# Generated by pormake.
# Topology afi, (4)-cn, num edge types: 1
# Building blocks:
#     Node 0, Type 0, BuildingBlock: ICAMEG_clean_sbu_1, # of connection points: 4
#     Node 1, Type 0, BuildingBlock: ICAMEG_clean_sbu_1, # of connection points: 4
#     Node 2, Type 0, BuildingBlock: ICAMEG_clean_sbu_1, # of connection points: 4
#     Node 3, Type 0, BuildingBlock: ICAMEG_clean_sbu_1, # of connection points: 4
#     Node 4, Type 0, BuildingBlock: ICAMEG_clean_sbu_1, # of connection points: 4
#     Node 5, Type 0, BuildingBlock: ICAMEG_clean_sbu_1, # of connection points: 4
#     Node 6, Type 0, BuildingBlock: ICAMEG_clean_sbu_1, # of connection points: 4
#     Node 7, Type 0, BuildingBlock: ICAMEG_clean_sbu_1, # of connection points: 4
#     Node 8, Type 0, BuildingBlock: ICAMEG_clean_sbu_1, # of connection points: 4
#     Node 9, Type 0, BuildingBlock: ICAMEG_clean_sbu_1, # of connection points: 4
#     Node 10, Type 0, BuildingBlock: ICAMEG_clean_sbu_1, # of connection points: 4
#     Node 11, Type 0, BuildingBlock: ICAMEG_clean_sbu_1, # of connection points: 4
#     Node 12, Type 0, BuildingBlock: ICAMEG_clean_sbu_1, # of connection points: 4
#     Node 13, Type 0, BuildingBlock: ICAMEG_clean_sbu_1, # of connection points: 4
#     Node 14, Type 0, BuildingBlock: ICAMEG_clean_sbu_1, # of connection points: 4
#     Node 15, Type 0, BuildingBlock: ICAMEG_clean_sbu_1, # of connection points: 4
#     Node 16, Type 0, BuildingBlock: ICAMEG_clean_sbu_1, # of connection points: 4
#     Node 17, Type 0, BuildingBlock: ICAMEG_clean_sbu_1, # of connection points: 4
#     Node 18, Type 0, BuildingBlock: ICAMEG_clean_sbu_1, # of connection points: 4
#     Node 19, Type 0, BuildingBlock: ICAMEG_clean_sbu_1, # of connection points: 4
#     Node 20, Type 0, BuildingBlock: ICAMEG_clean_sbu_1, # of connection points: 4
#     Node 21, Type 0, BuildingBlock: ICAMEG_clean_sbu_1, # of connection points: 4
#     Node 22, Type 0, BuildingBlock: ICAMEG_clean_sbu_1, # of connection points: 4
#     Node 23, Type 0, BuildingBlock: ICAMEG_clean_sbu_1, # of connection points: 4
#     Edge 24, Type (0, 0), None
#     Edge 25, Type (0, 0), None
#     Edge 26, Type (0, 0), None
#     Edge 27, Type (0, 0), None
#     Edge 28, Type (0, 0), None
#     Edge 29, Type (0, 0), None
#     Edge 30, Type (0, 0), None
#     Edge 31, Type (0, 0), None
#     Edge 32, Type (0, 0), None
#     Edge 33, Type (0, 0), None
#     Edge 34, Type (0, 0), None
#     Edge 35, Type (0, 0), None
#     Edge 36, Type (0, 0), None
#     Edge 37, Type (0, 0), None
#     Edge 38, Type (0, 0), None
#     Edge 39, Type (0, 0), None
#     Edge 40, Type (0, 0), None
#     Edge 41, Type (0, 0), None
#     Edge 42, Type (0, 0), None
#     Edge 43, Type (0, 0), None
#     Edge 44, Type (0, 0), None
#     Edge 45, Type (0, 0), None
#     Edge 46, Type (0, 0), None
#     Edge 47, Type (0, 0), None
#     Edge 48, Type (0, 0), None
#     Edge 49, Type (0, 0), None
#     Edge 50, Type (0, 0), None
#     Edge 51, Type (0, 0), None
#     Edge 52, Type (0, 0), None
#     Edge 53, Type (0, 0), None
#     Edge 54, Type (0, 0), None
#     Edge 55, Type (0, 0), None
#     Edge 56, Type (0, 0), None
#     Edge 57, Type (0, 0), None
#     Edge 58, Type (0, 0), None
#     Edge 59, Type (0, 0), None
#     Edge 60, Type (0, 0), None
#     Edge 61, Type (0, 0), None
#     Edge 62, Type (0, 0), None
#     Edge 63, Type (0, 0), None
#     Edge 64, Type (0, 0), None
#     Edge 65, Type (0, 0), None
#     Edge 66, Type (0, 0), None
#     Edge 67, Type (0, 0), None
#     Edge 68, Type (0, 0), None
#     Edge 69, Type (0, 0), None
#     Edge 70, Type (0, 0), None
#     Edge 71, Type (0, 0), None
# Relax obj value: 0.117
# Max RMSD: 0.170
# Mean RMSD: 0.170
data_MOF--net-afi--node1-ICAMEG_clean_sbu_1--edge1-none
_symmetry_space_group_name_H-M    P1
_symmetry_Int_Tables_number       1
_symmetry_cell_setting            triclinic
loop_
_symmetry_equiv_pos_as_xyz
'x, y, z'
_cell_length_a     33.081607
_cell_length_b     33.081922
_cell_length_c     23.570287
_cell_angle_alpha  89.998807
_cell_angle_beta   90.000081
_cell_angle_gamma 119.99486
loop_
_atom_site_label
_atom_site_type_symbol
_atom_site_fract_x
_atom_site_fract_y
_atom_site_fract_z
_atom_type_partial_charge
Co0 Co 0.50405 0.08886 0.09279 0.0
Co1 Co 0.47396 0.13741 0.19996 0.0
O2 O 0.47215 0.11949 0.12175 0.0
C3 C 0.4425 0.0862 -0.00806 0.0
O4 O 0.42649 0.11004 0.01879 0.0
C5 C 0.51618 0.24017 0.19101 0.0
O6 O 0.5518 0.245 0.22074 0.0
O7 O 0.54517 0.16405 0.203 0.0
O8 O 0.54891 0.1098 0.1543 0.0
H9 H 0.40837 0.18949 0.36052 0.0
H10 H 0.5015 0.17432 0.04897 0.0
O11 O 0.46196 0.06718 0.02061 0.0
H12 H 0.66533 0.21361 0.03441 0.0
H13 H 0.57192 0.03604 0.9402 0.0
H14 H 0.55356 0.04258 0.14442 0.0
H15 H 0.60516 0.13462 0.05816 0.0
H16 H 0.52554 0.06866 -0.02193 0.0
O17 O 0.48392 0.19998 0.17472 0.0
H18 H 0.41027 0.16299 0.26539 0.0
H19 H 0.54019 0.17233 0.29853 0.0
H20 H 0.61327 0.02446 0.10528 0.0
H21 H 0.5618 0.25491 0.03469 0.0
H22 H 0.62363 0.02386 0.00322 0.0
H23 H 0.6444 0.27546 0.02416 0.0
O24 O 0.46102 0.03303 0.14681 0.0
H25 H 0.32814 0.12438 0.11636 0.0
H26 H 0.39071 0.06658 0.26582 0.0
H27 H 0.30728 0.04196 0.2657 0.0
H28 H 0.2752 0.07045 0.19039 0.0
H29 H 0.41206 0.15049 0.1199 0.0
H30 H 0.54756 0.21649 0.38551 0.0
H31 H 0.47633 0.215 0.42285 0.0
O32 O 0.46237 0.07247 0.22651 0.0
C33 C 0.56909 0.1466 0.18245 0.0
C34 C 0.43788 0.18639 0.3467 0.0
C35 C 0.51598 0.20196 0.36036 0.0
N36 N 0.47309 0.15962 0.27742 0.0
C37 C 0.43804 0.1682 0.29351 0.0
C38 C 0.51229 0.17779 0.31007 0.0
C39 C 0.47686 0.20246 0.38084 0.0
C40 C 0.53677 0.18137 0.04507 0.0
N41 N 0.54819 0.14719 0.05308 0.0
C42 C 0.57117 0.22794 0.03677 0.0
C43 C 0.61756 0.23962 0.03157 0.0
C44 C 0.6292 0.20495 0.03705 0.0
C45 C 0.59425 0.1593 0.04903 0.0
C46 C 0.57074 0.04078 -0.0151 0.0
C47 C 0.55835 0.04244 0.09932 0.0
C48 C 0.54234 0.05672 0.00694 0.0
N49 N 0.53578 0.05709 0.06373 0.0
C50 C 0.59088 0.03082 0.07797 0.0
C51 C 0.59752 0.03094 0.02038 0.0
C52 C 0.453 0.03362 0.20165 0.0
C53 C 0.34163 0.11156 0.14932 0.0
C54 C 0.37716 0.07862 0.23221 0.0
C55 C 0.32982 0.06487 0.23271 0.0
C56 C 0.31194 0.08125 0.19076 0.0
N57 N 0.40664 0.11076 0.19357 0.0
C58 C 0.38916 0.12612 0.15148 0.0
Co59 Co 0.41056 0.51009 0.11568 0.0
Co60 Co 0.33773 0.45587 0.22928 0.0
O61 O 0.35178 0.46759 0.14854 0.0
C62 C 0.3661 0.43828 0.01305 0.0
O63 O 0.32726 0.40984 0.03981 0.0
C64 C 0.28549 0.50426 0.25542 0.0
O65 O 0.31394 0.52352 0.29845 0.0
O66 O 0.38744 0.52187 0.25479 0.0
O67 O 0.42974 0.55303 0.17809 0.0
H68 H 0.35525 0.45185 0.43984 0.0
H69 H 0.3256 0.48243 0.04153 0.0
O70 O 0.39911 0.47296 0.04014 0.0
H71 H 0.38263 0.64688 0.08698 0.0
H72 H 0.50456 0.63919 -0.01843 0.0
H73 H 0.51084 0.55467 0.14971 0.0
H74 H 0.42045 0.60689 0.12652 0.0
H75 H 0.43685 0.56588 0.00978 0.0
O76 O 0.29035 0.47688 0.22127 0.0
H77 H 0.38185 0.4787 0.34206 0.0
H78 H 0.24382 0.40175 0.28306 0.0
H79 H 0.58379 0.62667 0.11436 0.0
H80 H 0.29018 0.52311 -0.00402 0.0
H81 H 0.57993 0.66855 0.03354 0.0
H82 H 0.31669 0.60526 0.01981 0.0
O83 O 0.43795 0.47351 0.16336 0.0
H84 H 0.19994 0.33641 0.11758 0.0
H85 H 0.31494 0.36077 0.26615 0.0
H86 H 0.25103 0.28112 0.24555 0.0
H87 H 0.19367 0.26842 0.16988 0.0
H88 H 0.26254 0.41598 0.14241 0.0
H89 H 0.21469 0.37753 0.38 0.0
H90 H 0.27105 0.40189 0.46002 0.0
O91 O 0.38795 0.43694 0.23741 0.0
C92 C 0.42066 0.55649 0.22829 0.0
C93 C 0.33065 0.44098 0.40606 0.0
C94 C 0.25181 0.39877 0.37233 0.0
N95 N 0.31586 0.43884 0.30692 0.0
C96 C 0.34612 0.45483 0.35069 0.0
C97 C 0.26878 0.41242 0.31733 0.0
C98 C 0.28328 0.41263 0.41706 0.0
C99 C 0.34056 0.51891 0.04939 0.0
N100 N 0.37918 0.54257 0.08289 0.0
C101 C 0.31839 0.54131 0.02552 0.0
C102 C 0.33367 0.58767 0.03835 0.0
C103 C 0.37082 0.61103 0.07533 0.0
C104 C 0.39279 0.58783 0.09746 0.0
C105 C 0.50714 0.62009 0.01707 0.0
C106 C 0.51043 0.57182 0.11101 0.0
C107 C 0.46831 0.57881 0.03452 0.0
N108 N 0.46959 0.55584 0.08213 0.0
C109 C 0.55099 0.61213 0.09249 0.0
C110 C 0.54911 0.63648 0.0459 0.0
C111 C 0.42595 0.44722 0.21003 0.0
C112 C 0.22503 0.34151 0.15025 0.0
C113 C 0.29011 0.35553 0.23309 0.0
C114 C 0.25413 0.31034 0.22146 0.0
C115 C 0.2216 0.30332 0.17949 0.0
N116 N 0.29209 0.39297 0.20587 0.0
C117 C 0.26057 0.38639 0.16433 0.0
Co118 Co 0.9373 0.42038 0.09279 0.0
Co119 Co 0.88879 0.34173 0.19996 0.0
O120 O 0.9067 0.35785 0.12175 0.0
C121 C 0.94006 0.36155 -0.00806 0.0
O122 O 0.91622 0.32169 0.01878 0.0
C123 C 0.78603 0.28117 0.19103 0.0
O124 O 0.7812 0.31194 0.2208 0.0
O125 O 0.86211 0.38627 0.20303 0.0
O126 O 0.91631 0.44427 0.15428 0.0
H127 H 0.83674 0.22402 0.36046 0.0
H128 H 0.8519 0.33235 0.04896 0.0
O129 O 0.95904 0.40002 0.02062 0.0
H130 H 0.81246 0.45679 0.03438 0.0
H131 H 0.99006 0.54107 0.94021 0.0
H132 H 0.9835 0.51616 0.14443 0.0
H133 H 0.89147 0.47567 0.05813 0.0
H134 H 0.9575 0.46209 -0.02193 0.0
O135 O 0.82622 0.28912 0.17472 0.0
H136 H 0.86324 0.25246 0.26534 0.0
H137 H 0.85387 0.37301 0.29858 0.0
H138 H 1.00155 0.59397 0.10528 0.0
H139 H 0.77128 0.312 0.0347 0.0
H140 H 1.00216 0.60493 0.00323 0.0
H141 H 0.75066 0.374 0.02416 0.0
O142 O 0.99314 0.43324 0.14682 0.0
H143 H 0.90192 0.20902 0.1163 0.0
H144 H 0.95965 0.32933 0.26579 0.0
H145 H 0.98432 0.27056 0.26564 0.0
H146 H 0.95587 0.21002 0.19031 0.0
H147 H 0.87575 0.26679 0.11988 0.0
H148 H 0.80972 0.33618 0.38555 0.0
H149 H 0.81121 0.26642 0.42284 0.0
O150 O 0.95371 0.39509 0.22651 0.0
C151 C 0.87952 0.42762 0.18246 0.0
C152 C 0.83984 0.25663 0.34667 0.0
C153 C 0.82426 0.31915 0.36039 0.0
N154 N 0.86659 0.31862 0.27742 0.0
C155 C 0.85802 0.275 0.29348 0.0
C156 C 0.84841 0.33964 0.31009 0.0
C157 C 0.82376 0.27952 0.38083 0.0
C158 C 0.84481 0.36055 0.04506 0.0
N159 N 0.87896 0.40615 0.05306 0.0
C160 C 0.79823 0.34834 0.03677 0.0
C161 C 0.78651 0.38303 0.03156 0.0
C162 C 0.82115 0.42934 0.03703 0.0
C163 C 0.86682 0.44008 0.049 0.0
C164 C 0.98531 0.53515 -0.01509 0.0
C165 C 0.98364 0.5211 0.09933 0.0
C166 C 0.9694 0.49081 0.00694 0.0
N167 N 0.96903 0.48388 0.06373 0.0
C168 C 0.99522 0.56523 0.07798 0.0
C169 C 0.99511 0.57175 0.02038 0.0
C170 C 0.99255 0.42461 0.20166 0.0
C171 C 0.91472 0.23531 0.14927 0.0
C172 C 0.94763 0.30376 0.23218 0.0
C173 C 0.9614 0.27019 0.23266 0.0
C174 C 0.94505 0.23595 0.1907 0.0
N175 N 0.91548 0.30109 0.19355 0.0
C176 C 0.90013 0.26826 0.15145 0.0
Co177 Co 0.51599 0.90569 0.11568 0.0
Co178 Co 0.57021 0.88706 0.22927 0.0
O179 O 0.55848 0.8894 0.14853 0.0
C180 C 0.58781 0.93302 0.01307 0.0
O181 O 0.61624 0.9226 0.03984 0.0
C182 C 0.52185 0.78643 0.25541 0.0
O183 O 0.50259 0.79561 0.29844 0.0
O184 O 0.50419 0.87076 0.25478 0.0
O185 O 0.47304 0.88193 0.17809 0.0
H186 H 0.57429 0.90863 0.43983 0.0
H187 H 0.54365 0.84836 0.0416 0.0
O188 O 0.55313 0.93136 0.04014 0.0
H189 H 0.37916 0.74103 0.08692 0.0
H190 H 0.38692 0.87066 -0.01845 0.0
H191 H 0.47142 0.9614 0.14972 0.0
H192 H 0.41916 0.81886 0.12643 0.0
H193 H 0.46022 0.87623 0.00977 0.0
O194 O 0.54921 0.81868 0.22124 0.0
H195 H 0.54738 0.90834 0.34206 0.0
H196 H 0.62433 0.84725 0.28303 0.0
H197 H 0.39943 0.96239 0.11436 0.0
H198 H 0.50297 0.77225 -0.00391 0.0
H199 H 0.35756 0.91667 0.03353 0.0
H200 H 0.4208 0.71667 0.01985 0.0
O201 O 0.55258 0.96965 0.16336 0.0
H202 H 0.68968 0.86875 0.11755 0.0
H203 H 0.6653 0.95934 0.26615 0.0
H204 H 0.74496 0.97506 0.24558 0.0
H205 H 0.75766 0.93042 0.16989 0.0
H206 H 0.6101 0.85178 0.14237 0.0
H207 H 0.64859 0.84237 0.37995 0.0
H208 H 0.62426 0.8744 0.45998 0.0
O209 O 0.58913 0.9562 0.23741 0.0
C210 C 0.46957 0.86938 0.22829 0.0
C211 C 0.58514 0.89488 0.40604 0.0
C212 C 0.62734 0.85824 0.3723 0.0
N213 N 0.58724 0.88221 0.3069 0.0
C214 C 0.57126 0.89648 0.35069 0.0
C215 C 0.61367 0.86155 0.3173 0.0
C216 C 0.6135 0.87586 0.41703 0.0
C217 C 0.50717 0.82686 0.04943 0.0
N218 N 0.4835 0.84184 0.08288 0.0
C219 C 0.48477 0.78229 0.02559 0.0
C220 C 0.43839 0.75123 0.03838 0.0
C221 C 0.41502 0.76505 0.0753 0.0
C222 C 0.43822 0.81022 0.09742 0.0
C223 C 0.40601 0.89233 0.01705 0.0
C224 C 0.45428 0.94386 0.11101 0.0
C225 C 0.44729 0.89476 0.03451 0.0
N226 N 0.47025 0.919 0.08213 0.0
C227 C 0.41398 0.94413 0.09249 0.0
C228 C 0.38963 0.91791 0.04588 0.0
C229 C 0.57886 0.98393 0.21003 0.0
C230 C 0.68458 0.88873 0.15023 0.0
C231 C 0.67054 0.93976 0.23308 0.0
C232 C 0.71574 0.94896 0.22147 0.0
C233 C 0.72276 0.92347 0.17948 0.0
N234 N 0.63311 0.90432 0.20586 0.0
C235 C 0.6397 0.87939 0.1643 0.0
Co236 Co 0.60571 0.52208 0.09279 0.0
Co237 Co 0.68432 0.55214 0.19999 0.0
O238 O 0.66824 0.55398 0.12177 0.0
C239 C 0.6646 0.58366 -0.00805 0.0
O240 O 0.70444 0.59964 0.01881 0.0
C241 C 0.74481 0.50985 0.19101 0.0
O242 O 0.71399 0.47422 0.22069 0.0
O243 O 0.63976 0.48094 0.20301 0.0
O244 O 0.58178 0.47721 0.1543 0.0
H245 H 0.80193 0.61766 0.36061 0.0
H246 H 0.69372 0.52463 0.049 0.0
O247 O 0.62611 0.56418 0.02062 0.0
H248 H 0.5692 0.36081 0.03441 0.0
H249 H 0.48505 0.45423 0.94019 0.0
H250 H 0.50992 0.47257 0.14441 0.0
H251 H 0.55037 0.42098 0.05814 0.0
H252 H 0.56403 0.50061 -0.02193 0.0
O253 O 0.73692 0.54215 0.17477 0.0
H254 H 0.77356 0.61582 0.26548 0.0
H255 H 0.653 0.48587 0.29853 0.0
H256 H 0.43211 0.41285 0.10525 0.0
H257 H 0.71402 0.46432 0.03475 0.0
H258 H 0.42116 0.4025 0.00319 0.0
H259 H 0.65197 0.38173 0.0242 0.0
O260 O 0.59289 0.5651 0.14681 0.0
H261 H 0.81715 0.69795 0.11645 0.0
H262 H 0.69673 0.6354 0.26583 0.0
H263 H 0.75554 0.71883 0.26572 0.0
H264 H 0.81613 0.7509 0.19045 0.0
H265 H 0.75933 0.61403 0.11997 0.0
H266 H 0.68978 0.47846 0.38549 0.0
H267 H 0.75951 0.54967 0.42288 0.0
O268 O 0.63099 0.56375 0.22652 0.0
C269 C 0.5984 0.45703 0.18245 0.0
C270 C 0.76934 0.58817 0.34676 0.0
C271 C 0.70682 0.51005 0.36037 0.0
N272 N 0.70739 0.55299 0.27745 0.0
C273 C 0.751 0.58803 0.29357 0.0
C274 C 0.68636 0.51377 0.31007 0.0
C275 C 0.74644 0.54916 0.38087 0.0
C276 C 0.6655 0.48936 0.04509 0.0
N277 N 0.61991 0.47794 0.05308 0.0
C278 C 0.67768 0.45496 0.03681 0.0
C279 C 0.64297 0.40857 0.0316 0.0
C280 C 0.59667 0.39694 0.03706 0.0
C281 C 0.58596 0.43189 0.04903 0.0
C282 C 0.49096 0.4554 -0.01511 0.0
C283 C 0.50499 0.46778 0.09931 0.0
C284 C 0.5353 0.48381 0.00693 0.0
N285 N 0.54222 0.49036 0.06372 0.0
C286 C 0.46085 0.43525 0.07795 0.0
C287 C 0.45435 0.42862 0.02036 0.0
C288 C 0.6015 0.57312 0.20166 0.0
C289 C 0.79083 0.68446 0.1494 0.0
C290 C 0.72233 0.64894 0.23224 0.0
C291 C 0.75592 0.69628 0.23274 0.0
C292 C 0.79019 0.71415 0.19082 0.0
N293 N 0.725 0.61945 0.19362 0.0
C294 C 0.75786 0.63694 0.15155 0.0
Co295 Co 0.12037 0.61558 0.11568 0.0
Co296 Co 0.13893 0.6884 0.22927 0.0
O297 O 0.13661 0.67434 0.14854 0.0
C298 C 0.09298 0.66002 0.01307 0.0
O299 O 0.10334 0.69885 0.03984 0.0
C300 C 0.23956 0.74073 0.25544 0.0
O301 O 0.23038 0.71231 0.2985 0.0
O302 O 0.15528 0.63872 0.25479 0.0
O303 O 0.14417 0.59643 0.17809 0.0
H304 H 0.11736 0.6709 0.43983 0.0
H305 H 0.17763 0.70059 0.04161 0.0
O306 O 0.09467 0.62701 0.04014 0.0
H307 H 0.28511 0.64358 0.08689 0.0
H308 H 0.15554 0.52163 -0.01843 0.0
H309 H 0.06473 0.5153 0.14971 0.0
H310 H 0.20729 0.6057 0.12644 0.0
H311 H 0.14989 0.58932 0.00978 0.0
O312 O 0.20731 0.73582 0.22125 0.0
H313 H 0.11767 0.6443 0.34206 0.0
H314 H 0.17865 0.78231 0.28302 0.0
H315 H 0.06381 0.44236 0.11435 0.0
H316 H 0.25372 0.73607 -0.00394 0.0
H317 H 0.10957 0.44625 0.03353 0.0
H318 H 0.30938 0.70956 0.01981 0.0
O319 O 0.0564 0.58815 0.16336 0.0
H320 H 0.15711 0.8261 0.11749 0.0
H321 H 0.06658 0.71114 0.26611 0.0
H322 H 0.05075 0.77499 0.24547 0.0
H323 H 0.09535 0.83233 0.16976 0.0
H324 H 0.17418 0.76358 0.14238 0.0
H325 H 0.1835 0.81145 0.37994 0.0
H326 H 0.15152 0.75509 0.45998 0.0
O327 O 0.0698 0.63815 0.2374 0.0
C328 C 0.1567 0.6055 0.2283 0.0
C329 C 0.13108 0.6955 0.40604 0.0
C330 C 0.16766 0.77433 0.37229 0.0
N331 N 0.14375 0.71028 0.3069 0.0
C332 C 0.12949 0.68002 0.35069 0.0
C333 C 0.16436 0.75736 0.3173 0.0
C334 C 0.15006 0.74287 0.41703 0.0
C335 C 0.19916 0.68563 0.04943 0.0
N336 N 0.18422 0.64699 0.08289 0.0
C337 C 0.24373 0.70784 0.02557 0.0
C338 C 0.27482 0.69256 0.03835 0.0
C339 C 0.26105 0.65539 0.07528 0.0
C340 C 0.21589 0.63338 0.09741 0.0
C341 C 0.13386 0.51904 0.01706 0.0
C342 C 0.08228 0.51572 0.11101 0.0
C343 C 0.13138 0.55785 0.03452 0.0
N344 N 0.10713 0.55656 0.08213 0.0
C345 C 0.08206 0.47517 0.09249 0.0
C346 C 0.1083 0.47706 0.04589 0.0
C347 C 0.0421 0.60014 0.21003 0.0
C348 C 0.13714 0.80102 0.15017 0.0
C349 C 0.08614 0.73596 0.23304 0.0
C350 C 0.07689 0.77191 0.22139 0.0
C351 C 0.10236 0.80443 0.1794 0.0
N352 N 0.12162 0.73401 0.20584 0.0
C353 C 0.14653 0.76552 0.16428 0.0
Co354 Co 0.9109 0.51075 0.32469 0.0
Co355 Co 0.89227 0.56497 0.21109 0.0
O356 O 0.8946 0.55323 0.29183 0.0
C357 C 0.93822 0.58257 0.4273 0.0
O358 O 0.9278 0.61099 0.40053 0.0
C359 C 0.79164 0.51659 0.18494 0.0
O360 O 0.80083 0.49734 0.1419 0.0
O361 O 0.87599 0.49896 0.18557 0.0
O362 O 0.88715 0.46781 0.26228 0.0
H363 H 0.91384 0.56907 0.00053 0.0
H364 H 0.85357 0.53837 0.39884 0.0
O365 O 0.93657 0.54789 0.40023 0.0
H366 H 0.74623 0.37391 0.3534 0.0
H367 H 0.87589 0.38168 0.45882 0.0
H368 H 0.96663 0.4662 0.29066 0.0
H369 H 0.82404 0.41393 0.31386 0.0
H370 H 0.88144 0.45498 0.4306 0.0
O371 O 0.82388 0.54396 0.21911 0.0
H372 H 0.91355 0.54216 0.0983 0.0
H373 H 0.85246 0.61909 0.15735 0.0
H374 H 0.96764 0.39422 0.32602 0.0
H375 H 0.77748 0.49767 0.44438 0.0
H376 H 0.92191 0.35233 0.40685 0.0
H377 H 0.72188 0.41552 0.42055 0.0
O378 O 0.97487 0.54735 0.27701 0.0
H379 H 0.87388 0.68438 0.32283 0.0
H380 H 0.96455 0.66008 0.17426 0.0
H381 H 0.98025 0.73973 0.19487 0.0
H382 H 0.93557 0.75239 0.27054 0.0
H383 H 0.85695 0.60482 0.29799 0.0
H384 H 0.84758 0.64337 0.06043 0.0
H385 H 0.87962 0.61905 -0.01961 0.0
O386 O 0.96142 0.58391 0.20297 0.0
C387 C 0.87459 0.46435 0.21209 0.0
C388 C 0.9001 0.57993 0.03433 0.0
C389 C 0.86346 0.62212 0.06808 0.0
N390 N 0.88742 0.58201 0.13347 0.0
C391 C 0.9017 0.56604 0.08968 0.0
C392 C 0.86677 0.60844 0.12307 0.0
C393 C 0.88108 0.60828 0.02334 0.0
C394 C 0.83207 0.50189 0.39098 0.0
N395 N 0.84705 0.47825 0.35748 0.0
C396 C 0.78751 0.47948 0.41484 0.0
C397 C 0.75645 0.43311 0.40202 0.0
C398 C 0.77025 0.40977 0.36504 0.0
C399 C 0.81542 0.43298 0.34292 0.0
C400 C 0.89755 0.40078 0.42332 0.0
C401 C 0.94909 0.44905 0.32937 0.0
C402 C 0.89998 0.44205 0.40586 0.0
N403 N 0.92422 0.46502 0.35824 0.0
C404 C 0.94937 0.40876 0.34789 0.0
C405 C 0.92315 0.3844 0.39449 0.0
C406 C 0.98915 0.57364 0.23035 0.0
C407 C 0.89388 0.6793 0.29016 0.0
C408 C 0.94496 0.66531 0.20732 0.0
C409 C 0.95414 0.7105 0.21895 0.0
C410 C 0.92862 0.7175 0.26093 0.0
N411 N 0.90951 0.62786 0.23452 0.0
C412 C 0.88456 0.63443 0.27608 0.0
Co413 Co 0.42561 0.93206 0.3476 0.0
Co414 Co 0.34695 0.88356 0.24041 0.0
O415 O 0.36308 0.90145 0.31864 0.0
C416 C 0.36677 0.93481 0.44845 0.0
O417 O 0.32691 0.91097 0.42162 0.0
C418 C 0.2864 0.78079 0.24933 0.0
O419 O 0.31715 0.77596 0.21953 0.0
O420 O 0.3915 0.85689 0.2373 0.0
O421 O 0.4495 0.91105 0.28613 0.0
H422 H 0.22922 0.83159 0.07994 0.0
H423 H 0.33758 0.84665 0.39143 0.0
O424 O 0.40524 0.9538 0.41976 0.0
H425 H 0.46204 0.80725 0.40603 0.0
H426 H 0.5463 0.98485 0.50017 0.0
H427 H 0.52138 0.97827 0.29595 0.0
H428 H 0.48091 0.88625 0.38229 0.0
H429 H 0.46732 0.95228 0.46232 0.0
O430 O 0.29434 0.82098 0.26565 0.0
H431 H 0.25767 0.85806 0.17505 0.0
H432 H 0.37818 0.8486 0.14177 0.0
H433 H 0.5992 0.99634 0.33509 0.0
H434 H 0.31724 0.76604 0.40569 0.0
H435 H 0.61016 0.99695 0.43715 0.0
H436 H 0.37926 0.74543 0.41623 0.0
O437 O 0.43846 0.9879 0.29356 0.0
H438 H 0.21426 0.89667 0.32419 0.0
H439 H 0.33454 0.95444 0.17465 0.0
H440 H 0.27577 0.97912 0.17488 0.0
H441 H 0.21525 0.95065 0.25023 0.0
H442 H 0.27202 0.87048 0.32054 0.0
H443 H 0.34133 0.80449 0.05479 0.0
H444 H 0.27158 0.80602 0.01754 0.0
O445 O 0.4003 0.94848 0.21387 0.0
C446 C 0.43283 0.87428 0.25792 0.0
C447 C 0.26182 0.83466 0.09372 0.0
C448 C 0.32432 0.81904 0.07997 0.0
N449 N 0.32382 0.86137 0.16296 0.0
C450 C 0.28021 0.85283 0.14691 0.0
C451 C 0.34482 0.84318 0.13027 0.0
C452 C 0.28469 0.81857 0.05954 0.0
C453 C 0.36578 0.83957 0.39534 0.0
N454 N 0.41139 0.87373 0.38734 0.0
C455 C 0.35359 0.79299 0.40363 0.0
C456 C 0.38827 0.78128 0.40884 0.0
C457 C 0.43458 0.81593 0.40338 0.0
C458 C 0.44532 0.86159 0.39141 0.0
C459 C 0.54038 0.9801 0.45547 0.0
C460 C 0.52632 0.97842 0.34105 0.0
C461 C 0.49604 0.96418 0.43344 0.0
N462 N 0.4891 0.9638 0.37665 0.0
C463 C 0.57046 0.99001 0.3624 0.0
C464 C 0.57698 0.9899 0.41999 0.0
C465 C 0.42983 0.98732 0.23872 0.0
C466 C 0.24054 0.90947 0.29121 0.0
C467 C 0.30897 0.94241 0.20828 0.0
C468 C 0.27541 0.95619 0.20784 0.0
C469 C 0.24118 0.93983 0.24981 0.0
N470 N 0.30631 0.91024 0.24687 0.0
C471 C 0.27348 0.89488 0.28899 0.0
Co472 Co 0.51528 0.40533 0.32468 0.0
Co473 Co 0.46103 0.3325 0.21108 0.0
O474 O 0.47277 0.34655 0.29182 0.0
C475 C 0.44347 0.36089 0.42732 0.0
O476 O 0.41501 0.32205 0.40056 0.0
C477 C 0.5094 0.28023 0.18491 0.0
O478 O 0.52863 0.30866 0.14186 0.0
O479 O 0.52703 0.3822 0.18555 0.0
O480 O 0.55822 0.42448 0.26228 0.0
H481 H 0.45699 0.35 0.00052 0.0
H482 H 0.4876 0.32038 0.39887 0.0
O483 O 0.47815 0.39389 0.40023 0.0
H484 H 0.65202 0.3773 0.3534 0.0
H485 H 0.64438 0.4993 0.4588 0.0
H486 H 0.55988 0.5056 0.29066 0.0
H487 H 0.61205 0.41513 0.3138 0.0
H488 H 0.57106 0.43159 0.43058 0.0
O489 O 0.48203 0.28511 0.21909 0.0
H490 H 0.48386 0.37661 0.09829 0.0
H491 H 0.40687 0.23859 0.15732 0.0
H492 H 0.63188 0.57855 0.32602 0.0
H493 H 0.52824 0.28496 0.44447 0.0
H494 H 0.67376 0.57467 0.40683 0.0
H495 H 0.61038 0.31141 0.42062 0.0
O496 O 0.47871 0.43273 0.27701 0.0
H497 H 0.34159 0.19474 0.32284 0.0
H498 H 0.36592 0.30973 0.17427 0.0
H499 H 0.28626 0.24584 0.19493 0.0
H500 H 0.27358 0.18849 0.27059 0.0
H501 H 0.42116 0.25731 0.29796 0.0
H502 H 0.38261 0.20945 0.0604 0.0
H503 H 0.40698 0.26581 -0.01964 0.0
O504 O 0.44211 0.38272 0.20297 0.0
C505 C 0.56166 0.41539 0.21207 0.0
C506 C 0.4461 0.3254 0.03431 0.0
C507 C 0.40386 0.24657 0.06805 0.0
N508 N 0.44398 0.31063 0.13345 0.0
C509 C 0.45997 0.34088 0.08967 0.0
C510 C 0.41753 0.26355 0.12305 0.0
C511 C 0.41773 0.27803 0.02332 0.0
C512 C 0.52407 0.33532 0.391 0.0
N513 N 0.54774 0.37392 0.35748 0.0
C514 C 0.54645 0.31315 0.4149 0.0
C515 C 0.59281 0.3284 0.40207 0.0
C516 C 0.61617 0.36552 0.36505 0.0
C517 C 0.59299 0.3875 0.3429 0.0
C518 C 0.62529 0.50188 0.4233 0.0
C519 C 0.57702 0.50519 0.32936 0.0
C520 C 0.58401 0.46306 0.40585 0.0
N521 N 0.56104 0.46435 0.35823 0.0
C522 C 0.61733 0.54574 0.34788 0.0
C523 C 0.64168 0.54385 0.39447 0.0
C524 C 0.45242 0.42074 0.23034 0.0
C525 C 0.34668 0.21983 0.29017 0.0
C526 C 0.36069 0.2849 0.20733 0.0
C527 C 0.31549 0.24893 0.21899 0.0
C528 C 0.30848 0.21641 0.26096 0.0
N529 N 0.39813 0.28687 0.23452 0.0
C530 C 0.39156 0.25535 0.27606 0.0
Co531 Co 0.0941 0.49885 0.34759 0.0
Co532 Co 0.14265 0.46876 0.2404 0.0
O533 O 0.12475 0.46697 0.31862 0.0
C534 C 0.09145 0.43731 0.44845 0.0
O535 O 0.11533 0.42133 0.42161 0.0
C536 C 0.24542 0.51104 0.24935 0.0
O537 O 0.25023 0.54665 0.21961 0.0
O538 O 0.16927 0.53997 0.23732 0.0
O539 O 0.11504 0.54373 0.2861 0.0
H540 H 0.19466 0.40311 0.07983 0.0
H541 H 0.17958 0.49633 0.39138 0.0
O542 O 0.07242 0.45676 0.41977 0.0
H543 H 0.21881 0.66014 0.40598 0.0
H544 H 0.04126 0.5667 0.50018 0.0
H545 H 0.0478 0.54834 0.29596 0.0
H546 H 0.13983 0.59996 0.38226 0.0
H547 H 0.07389 0.52034 0.46232 0.0
O548 O 0.20523 0.47876 0.26562 0.0
H549 H 0.16817 0.40503 0.17496 0.0
H550 H 0.17761 0.53499 0.14181 0.0
H551 H 0.02966 0.60804 0.33511 0.0
H552 H 0.26017 0.55666 0.40561 0.0
H553 H 0.02906 0.61839 0.43717 0.0
H554 H 0.28069 0.63925 0.41616 0.0
O555 O 0.03827 0.45582 0.29357 0.0
H556 H 0.12967 0.323 0.3241 0.0
H557 H 0.07179 0.38547 0.17463 0.0
H558 H 0.04716 0.30204 0.17483 0.0
H559 H 0.07569 0.27 0.25015 0.0
H560 H 0.15579 0.40692 0.32048 0.0
H561 H 0.22175 0.54232 0.05483 0.0
H562 H 0.22023 0.47106 0.0175 0.0
O563 O 0.07771 0.45715 0.21387 0.0
C564 C 0.15183 0.56387 0.25793 0.0
C565 C 0.19158 0.43262 0.09365 0.0
C566 C 0.2072 0.51074 0.07998 0.0
N567 N 0.16485 0.46786 0.16293 0.0
C568 C 0.1734 0.4328 0.14685 0.0
C569 C 0.18304 0.50707 0.13028 0.0
C570 C 0.20768 0.4716 0.05951 0.0
C571 C 0.18662 0.5316 0.39529 0.0
N572 N 0.15243 0.543 0.38731 0.0
C573 C 0.23319 0.56601 0.40356 0.0
C574 C 0.24485 0.61239 0.40877 0.0
C575 C 0.21017 0.62401 0.40332 0.0
C576 C 0.16452 0.58906 0.39137 0.0
C577 C 0.046 0.56552 0.45548 0.0
C578 C 0.04765 0.55313 0.34106 0.0
C579 C 0.06195 0.53712 0.43345 0.0
N580 N 0.06231 0.53056 0.37666 0.0
C581 C 0.03603 0.58565 0.36242 0.0
C582 C 0.03615 0.59229 0.42001 0.0
C583 C 0.03886 0.44779 0.23873 0.0
C584 C 0.11684 0.33647 0.29114 0.0
C585 C 0.08385 0.37194 0.20825 0.0
C586 C 0.07009 0.3246 0.20779 0.0
C587 C 0.08649 0.30675 0.24974 0.0
N588 N 0.11601 0.40145 0.24683 0.0
C589 C 0.1314 0.38399 0.28893 0.0
Co590 Co 0.62078 0.11515 0.32468 0.0
Co591 Co 0.69361 0.13371 0.21109 0.0
O592 O 0.67955 0.1314 0.29183 0.0
C593 C 0.66523 0.08777 0.4273 0.0
O594 O 0.70406 0.09814 0.40053 0.0
C595 C 0.74596 0.23434 0.18491 0.0
O596 O 0.71756 0.22517 0.14183 0.0
O597 O 0.64393 0.15006 0.18555 0.0
O598 O 0.60163 0.13895 0.26228 0.0
H599 H 0.67614 0.11216 0.00053 0.0
H600 H 0.70578 0.17242 0.39877 0.0
O601 O 0.63222 0.08946 0.40022 0.0
H602 H 0.64877 0.27989 0.35347 0.0
H603 H 0.52682 0.1503 0.4588 0.0
H604 H 0.5205 0.05949 0.29066 0.0
H605 H 0.61091 0.20207 0.31391 0.0
H606 H 0.59452 0.14467 0.43058 0.0
O607 O 0.74103 0.20209 0.21911 0.0
H608 H 0.64953 0.11247 0.09829 0.0
H609 H 0.78753 0.17342 0.15736 0.0
H610 H 0.44756 0.05856 0.32603 0.0
H611 H 0.74125 0.2485 0.44432 0.0
H612 H 0.45144 0.10432 0.40685 0.0
H613 H 0.71474 0.30416 0.42057 0.0
O614 O 0.59336 0.05119 0.27701 0.0
H615 H 0.83131 0.15191 0.3229 0.0
H616 H 0.71636 0.06136 0.17428 0.0
H617 H 0.78022 0.04554 0.19494 0.0
H618 H 0.83755 0.09015 0.27064 0.0
H619 H 0.76878 0.16897 0.298 0.0
H620 H 0.81668 0.17826 0.06044 0.0
H621 H 0.76034 0.14629 -0.01961 0.0
O622 O 0.64337 0.06459 0.20297 0.0
C623 C 0.61074 0.1515 0.21208 0.0
C624 C 0.70074 0.12587 0.03432 0.0
C625 C 0.77956 0.16242 0.06809 0.0
N626 N 0.7155 0.13853 0.13347 0.0
C627 C 0.68525 0.12428 0.08968 0.0
C628 C 0.76258 0.15913 0.12307 0.0
C629 C 0.74811 0.14484 0.02334 0.0
C630 C 0.69083 0.19395 0.39094 0.0
N631 N 0.65219 0.179 0.35748 0.0
C632 C 0.71302 0.23851 0.41481 0.0
C633 C 0.69774 0.2696 0.40202 0.0
C634 C 0.66058 0.25584 0.36508 0.0
C635 C 0.63858 0.21067 0.34294 0.0
C636 C 0.52423 0.12862 0.42331 0.0
C637 C 0.52092 0.07705 0.32937 0.0
C638 C 0.56305 0.12616 0.40585 0.0
N639 N 0.56176 0.1019 0.35824 0.0
C640 C 0.48036 0.07681 0.34789 0.0
C641 C 0.48225 0.10305 0.39449 0.0
C642 C 0.60535 0.03689 0.23034 0.0
C643 C 0.80623 0.13194 0.29022 0.0
C644 C 0.74117 0.08093 0.20735 0.0
C645 C 0.77713 0.07168 0.21901 0.0
C646 C 0.80964 0.09716 0.261 0.0
N647 N 0.73922 0.11641 0.23454 0.0
C648 C 0.77073 0.14132 0.2761 0.0
Co649 Co 0.52731 0.6005 0.34759 0.0
Co650 Co 0.55742 0.67913 0.24038 0.0
O651 O 0.55921 0.66302 0.31861 0.0
C652 C 0.5889 0.65937 0.44842 0.0
O653 O 0.60489 0.69922 0.42157 0.0
C654 C 0.51511 0.7396 0.24934 0.0
O655 O 0.4795 0.7088 0.21963 0.0
O656 O 0.48622 0.63456 0.23729 0.0
O657 O 0.48243 0.57658 0.28612 0.0
H658 H 0.62311 0.79678 0.07981 0.0
H659 H 0.52988 0.68852 0.39138 0.0
O660 O 0.56942 0.62089 0.41975 0.0
H661 H 0.36605 0.56402 0.40597 0.0
H662 H 0.45944 0.47983 0.50019 0.0
H663 H 0.47779 0.50471 0.29597 0.0
H664 H 0.42621 0.54517 0.38227 0.0
H665 H 0.50583 0.55881 0.46232 0.0
O666 O 0.54742 0.73172 0.26558 0.0
H667 H 0.6212 0.76836 0.17492 0.0
H668 H 0.49118 0.6479 0.14179 0.0
H669 H 0.41806 0.4269 0.33512 0.0
H670 H 0.46958 0.70883 0.40558 0.0
H671 H 0.4077 0.41596 0.43718 0.0
H672 H 0.38698 0.6468 0.41613 0.0
O673 O 0.57032 0.58766 0.29356 0.0
H674 H 0.70319 0.81187 0.3241 0.0
H675 H 0.64073 0.69152 0.17465 0.0
H676 H 0.72417 0.75028 0.17489 0.0
H677 H 0.7562 0.81084 0.2502 0.0
H678 H 0.61926 0.75411 0.32045 0.0
H679 H 0.48387 0.68473 0.05483 0.0
H680 H 0.55514 0.75446 0.0175 0.0
O681 O 0.56903 0.62579 0.21386 0.0
C682 C 0.4623 0.59324 0.25792 0.0
C683 C 0.59359 0.7642 0.09363 0.0
C684 C 0.51545 0.70174 0.07997 0.0
N685 N 0.55833 0.70223 0.16291 0.0
C686 C 0.59341 0.74583 0.14681 0.0
C687 C 0.51912 0.68125 0.13026 0.0
C688 C 0.5546 0.74134 0.0595 0.0
C689 C 0.49461 0.66031 0.39528 0.0
N690 N 0.48319 0.61471 0.38731 0.0
C691 C 0.46021 0.67249 0.40354 0.0
C692 C 0.41382 0.6378 0.40875 0.0
C693 C 0.40218 0.59149 0.40332 0.0
C694 C 0.43713 0.58077 0.39137 0.0
C695 C 0.46061 0.48575 0.45549 0.0
C696 C 0.473 0.49978 0.34107 0.0
C697 C 0.48903 0.53009 0.43345 0.0
N698 N 0.49559 0.53701 0.37666 0.0
C699 C 0.44046 0.45564 0.36243 0.0
C700 C 0.43382 0.44914 0.42002 0.0
C701 C 0.57836 0.59628 0.23872 0.0
C702 C 0.68972 0.78557 0.29114 0.0
C703 C 0.65425 0.71711 0.20826 0.0
C704 C 0.70159 0.75066 0.20783 0.0
C705 C 0.71945 0.78491 0.24977 0.0
N706 N 0.62473 0.71979 0.24682 0.0
C707 C 0.64219 0.75263 0.28891 0.0
Co708 Co 0.52733 0.93206 0.84759 0.0
Co709 Co 0.55741 0.88351 0.74042 0.0
O710 O 0.55922 0.90142 0.81863 0.0
C711 C 0.58887 0.93472 0.94844 0.0
O712 O 0.60489 0.91088 0.92159 0.0
C713 C 0.51518 0.78075 0.74937 0.0
O714 O 0.47956 0.77593 0.71964 0.0
O715 O 0.4862 0.85687 0.73737 0.0
O716 O 0.48246 0.91112 0.78608 0.0
H717 H 0.62301 0.83144 0.57986 0.0
H718 H 0.52988 0.8466 0.8914 0.0
O719 O 0.56941 0.95374 0.91977 0.0
H720 H 0.36605 0.80731 0.90597 0.0
H721 H 0.45946 0.98488 0.00018 0.0
H722 H 0.47781 0.97834 0.79596 0.0
H723 H 0.42621 0.8863 0.88222 0.0
H724 H 0.50583 0.95226 0.96231 0.0
O725 O 0.54744 0.82094 0.76565 0.0
H726 H 0.62111 0.85794 0.67498 0.0
H727 H 0.49118 0.84859 0.64184 0.0
H728 H 0.4181 0.99646 0.83511 0.0
H729 H 0.46957 0.76601 0.90568 0.0
H730 H 0.40775 0.99706 0.93716 0.0
H731 H 0.38697 0.74546 0.91621 0.0
O732 O 0.57035 0.98789 0.79357 0.0
H733 H 0.70322 0.89654 0.82403 0.0
H734 H 0.64068 0.95435 0.67458 0.0
H735 H 0.72411 0.97897 0.6747 0.0
H736 H 0.75618 0.95048 0.75002 0.0
H737 H 0.6193 0.87042 0.82048 0.0
H738 H 0.48382 0.80442 0.55487 0.0
H739 H 0.55505 0.80591 0.51753 0.0
O740 O 0.56901 0.94845 0.71387 0.0
C741 C 0.46229 0.87432 0.75793 0.0
C742 C 0.59351 0.83454 0.59368 0.0
C743 C 0.51539 0.81896 0.58002 0.0
N744 N 0.55829 0.8613 0.66296 0.0
C745 C 0.59334 0.85273 0.64687 0.0
C746 C 0.51909 0.84313 0.63031 0.0
C747 C 0.55452 0.81846 0.55954 0.0
C748 C 0.4946 0.83955 0.89531 0.0
N749 N 0.48318 0.87373 0.8873 0.0
C750 C 0.46021 0.79298 0.90361 0.0
C751 C 0.41382 0.7813 0.90881 0.0
C752 C 0.40218 0.81597 0.90333 0.0
C753 C 0.43713 0.86162 0.89135 0.0
C754 C 0.46064 0.98014 0.95548 0.0
C755 C 0.47302 0.97848 0.84106 0.0
C756 C 0.48904 0.9642 0.93344 0.0
N757 N 0.4956 0.96383 0.87665 0.0
C758 C 0.44049 0.9901 0.86241 0.0
C759 C 0.43386 0.98998 0.92001 0.0
C760 C 0.57838 0.9873 0.73873 0.0
C761 C 0.68974 0.90935 0.79107 0.0
C762 C 0.65422 0.94231 0.70819 0.0
C763 C 0.70156 0.95605 0.70769 0.0
C764 C 0.71943 0.93968 0.74964 0.0
N765 N 0.62473 0.91016 0.74681 0.0
C766 C 0.64221 0.89479 0.7889 0.0
Co767 Co 0.62078 0.51081 0.82469 0.0
Co768 Co 0.69361 0.56504 0.71109 0.0
O769 O 0.67956 0.55332 0.79184 0.0
C770 C 0.66524 0.58262 0.92732 0.0
O771 O 0.70409 0.61108 0.90058 0.0
C772 C 0.74586 0.51665 0.68495 0.0
O773 O 0.71741 0.49739 0.64193 0.0
O774 O 0.6439 0.49903 0.68558 0.0
O775 O 0.6016 0.46788 0.76229 0.0
H776 H 0.67609 0.56906 0.50053 0.0
H777 H 0.70574 0.53847 0.89884 0.0
O778 O 0.63223 0.54794 0.90024 0.0
H779 H 0.64872 0.37403 0.85339 0.0
H780 H 0.52678 0.38172 0.95881 0.0
H781 H 0.5205 0.46624 0.79066 0.0
H782 H 0.6109 0.41402 0.81385 0.0
H783 H 0.5945 0.45503 0.9306 0.0
O784 O 0.741 0.54403 0.71911 0.0
H785 H 0.64949 0.5422 0.59832 0.0
H786 H 0.78752 0.61915 0.65731 0.0
H787 H 0.44755 0.39424 0.82602 0.0
H788 H 0.74116 0.4978 0.94439 0.0
H789 H 0.45142 0.35235 0.90683 0.0
H790 H 0.71465 0.41565 0.92056 0.0
O791 O 0.59339 0.5474 0.77702 0.0
H792 H 0.8314 0.6845 0.82278 0.0
H793 H 0.7164 0.66013 0.67422 0.0
H794 H 0.78031 0.73979 0.69481 0.0
H795 H 0.83767 0.75249 0.77048 0.0
H796 H 0.7688 0.60493 0.79796 0.0
H797 H 0.81665 0.64338 0.56037 0.0
H798 H 0.76028 0.61902 0.48035 0.0
O799 O 0.64339 0.58397 0.70297 0.0
C800 C 0.61068 0.46442 0.71208 0.0
C801 C 0.70069 0.57993 0.53432 0.0
C802 C 0.77953 0.62214 0.56804 0.0
N803 N 0.71548 0.58206 0.63346 0.0
C804 C 0.68522 0.56608 0.58968 0.0
C805 C 0.76256 0.60849 0.62304 0.0
C806 C 0.74806 0.60828 0.52331 0.0
C807 C 0.69078 0.502 0.89098 0.0
N808 N 0.65216 0.47834 0.85748 0.0
C809 C 0.71295 0.4796 0.91485 0.0
C810 C 0.69767 0.43324 0.90202 0.0
C811 C 0.66053 0.40988 0.86504 0.0
C812 C 0.63855 0.43307 0.84291 0.0
C813 C 0.5242 0.40081 0.92331 0.0
C814 C 0.52091 0.44909 0.82937 0.0
C815 C 0.56303 0.44209 0.90586 0.0
N816 N 0.56175 0.46507 0.85824 0.0
C817 C 0.48035 0.40878 0.84788 0.0
C818 C 0.48223 0.38443 0.89448 0.0
C819 C 0.60539 0.57368 0.73035 0.0
C820 C 0.80631 0.6794 0.79012 0.0
C821 C 0.74123 0.66537 0.70728 0.0
C822 C 0.77721 0.71057 0.7189 0.0
C823 C 0.80974 0.71759 0.76088 0.0
N824 N 0.73925 0.62794 0.7345 0.0
C825 C 0.77077 0.63452 0.77604 0.0
Co826 Co 0.09406 0.60055 0.84759 0.0
Co827 Co 0.14257 0.6792 0.74041 0.0
O828 O 0.12466 0.66308 0.81863 0.0
C829 C 0.09131 0.65939 0.94844 0.0
O830 O 0.11514 0.69925 0.9216 0.0
C831 C 0.24534 0.73975 0.74934 0.0
O832 O 0.25016 0.70897 0.71958 0.0
O833 O 0.16924 0.63466 0.73734 0.0
O834 O 0.11505 0.57666 0.7861 0.0
H835 H 0.19461 0.79692 0.57992 0.0
H836 H 0.17946 0.68859 0.89142 0.0
O837 O 0.07232 0.62092 0.91975 0.0
H838 H 0.2189 0.56415 0.906 0.0
H839 H 0.0413 0.47987 0.00017 0.0
H840 H 0.04786 0.50477 0.79595 0.0
H841 H 0.13989 0.54526 0.88225 0.0
H842 H 0.07386 0.55885 0.9623 0.0
O843 O 0.20514 0.73181 0.76565 0.0
H844 H 0.16811 0.76848 0.67503 0.0
H845 H 0.1775 0.64794 0.6418 0.0
H846 H 0.02981 0.42697 0.83509 0.0
H847 H 0.26008 0.70894 0.90568 0.0
H848 H 0.0292 0.41601 0.93715 0.0
H849 H 0.2807 0.64693 0.91621 0.0
O850 O 0.03822 0.5877 0.79356 0.0
H851 H 0.12945 0.81192 0.8241 0.0
H852 H 0.0717 0.6916 0.6746 0.0
H853 H 0.04703 0.75038 0.67477 0.0
H854 H 0.07548 0.81091 0.7501 0.0
H855 H 0.15563 0.75415 0.8205 0.0
H856 H 0.22165 0.68477 0.55483 0.0
H857 H 0.22016 0.75453 0.51754 0.0
O858 O 0.07764 0.62585 0.71386 0.0
C859 C 0.15184 0.59331 0.75791 0.0
C860 C 0.19152 0.76431 0.59371 0.0
C861 C 0.20711 0.70179 0.57999 0.0
N862 N 0.16477 0.70231 0.66296 0.0
C863 C 0.17333 0.74594 0.6469 0.0
C864 C 0.18295 0.6813 0.63028 0.0
C865 C 0.2076 0.74142 0.55954 0.0
C866 C 0.18655 0.66039 0.89532 0.0
N867 N 0.1524 0.61478 0.88732 0.0
C868 C 0.23313 0.67259 0.90361 0.0
C869 C 0.24485 0.63791 0.90881 0.0
C870 C 0.21021 0.5916 0.90334 0.0
C871 C 0.16454 0.58086 0.89137 0.0
C872 C 0.04605 0.48579 0.95547 0.0
C873 C 0.04772 0.49984 0.84105 0.0
C874 C 0.06196 0.53013 0.93344 0.0
N875 N 0.06233 0.53706 0.87664 0.0
C876 C 0.03614 0.4557 0.8624 0.0
C877 C 0.03625 0.44919 0.92 0.0
C878 C 0.0388 0.59633 0.73872 0.0
C879 C 0.11665 0.78563 0.79112 0.0
C880 C 0.08373 0.71718 0.70822 0.0
C881 C 0.06995 0.75075 0.70775 0.0
C882 C 0.08631 0.78499 0.74971 0.0
N883 N 0.11589 0.71984 0.74683 0.0
C884 C 0.13124 0.75268 0.78893 0.0
Co885 Co 0.51538 0.11523 0.8247 0.0
Co886 Co 0.46116 0.13385 0.71111 0.0
O887 O 0.47289 0.13152 0.79185 0.0
C888 C 0.44356 0.0879 0.92731 0.0
O889 O 0.41513 0.09832 0.90055 0.0
C890 C 0.50951 0.23448 0.68497 0.0
O891 O 0.52878 0.22531 0.64194 0.0
O892 O 0.52718 0.15016 0.6856 0.0
O893 O 0.55833 0.13899 0.7623 0.0
H894 H 0.45709 0.11229 0.50055 0.0
H895 H 0.48772 0.17256 0.89879 0.0
O896 O 0.47824 0.08956 0.90024 0.0
H897 H 0.65221 0.27989 0.85345 0.0
H898 H 0.64445 0.15026 0.95883 0.0
H899 H 0.55996 0.05952 0.79066 0.0
H900 H 0.61221 0.20206 0.81395 0.0
H901 H 0.57115 0.14469 0.93061 0.0
O902 O 0.48215 0.20224 0.71914 0.0
H903 H 0.484 0.11258 0.59832 0.0
H904 H 0.40704 0.17366 0.65735 0.0
H905 H 0.63194 0.05853 0.82602 0.0
H906 H 0.52839 0.24867 0.94429 0.0
H907 H 0.67382 0.10425 0.90685 0.0
H908 H 0.61056 0.30425 0.92052 0.0
O909 O 0.4788 0.05127 0.77703 0.0
H910 H 0.34168 0.15215 0.82283 0.0
H911 H 0.36607 0.06157 0.67423 0.0
H912 H 0.28641 0.04585 0.6948 0.0
H913 H 0.2737 0.09048 0.77049 0.0
H914 H 0.42126 0.16913 0.79801 0.0
H915 H 0.38277 0.17854 0.56043 0.0
H916 H 0.40711 0.14652 0.48039 0.0
O917 O 0.44224 0.06472 0.70297 0.0
C918 C 0.5618 0.15154 0.71209 0.0
C919 C 0.44623 0.12604 0.53434 0.0
C920 C 0.40402 0.16267 0.56808 0.0
N921 N 0.44413 0.13871 0.63348 0.0
C922 C 0.46011 0.12443 0.58969 0.0
C923 C 0.4177 0.15936 0.62307 0.0
C924 C 0.41787 0.14505 0.52335 0.0
C925 C 0.5242 0.19406 0.89095 0.0
N926 N 0.54787 0.17907 0.8575 0.0
C927 C 0.5466 0.23863 0.91479 0.0
C928 C 0.59298 0.26969 0.902 0.0
C929 C 0.61635 0.25587 0.86507 0.0
C930 C 0.59315 0.2107 0.84296 0.0
C931 C 0.62536 0.12859 0.92333 0.0
C932 C 0.5771 0.07706 0.82937 0.0
C933 C 0.58409 0.12616 0.90587 0.0
N934 N 0.56112 0.10192 0.85825 0.0
C935 C 0.6174 0.07679 0.84789 0.0
C936 C 0.64174 0.10301 0.8945 0.0
C937 C 0.45251 0.03699 0.73036 0.0
C938 C 0.34679 0.13218 0.79015 0.0
C939 C 0.36083 0.08115 0.70729 0.0
C940 C 0.31563 0.07195 0.7189 0.0
C941 C 0.3086 0.09744 0.76089 0.0
N942 N 0.39826 0.11659 0.73452 0.0
C943 C 0.39167 0.14151 0.77608 0.0
Co944 Co 0.42563 0.49882 0.84758 0.0
Co945 Co 0.34702 0.46877 0.74039 0.0
O946 O 0.3631 0.46693 0.8186 0.0
C947 C 0.36674 0.43725 0.94842 0.0
O948 O 0.3269 0.42126 0.92157 0.0
C949 C 0.28654 0.51107 0.74936 0.0
O950 O 0.31737 0.5467 0.71969 0.0
O951 O 0.39159 0.53997 0.73736 0.0
O952 O 0.44956 0.5437 0.78608 0.0
H953 H 0.22941 0.40323 0.57977 0.0
H954 H 0.33762 0.49628 0.89138 0.0
O955 O 0.40523 0.45673 0.91975 0.0
H956 H 0.46214 0.6601 0.90596 0.0
H957 H 0.54629 0.56667 0.00019 0.0
H958 H 0.52143 0.54834 0.79597 0.0
H959 H 0.48097 0.59993 0.88223 0.0
H960 H 0.46731 0.5203 0.96231 0.0
O961 O 0.29443 0.47876 0.7656 0.0
H962 H 0.25778 0.40508 0.67489 0.0
H963 H 0.37833 0.53504 0.64184 0.0
H964 H 0.59924 0.60805 0.83512 0.0
H965 H 0.31733 0.55658 0.90562 0.0
H966 H 0.61018 0.6184 0.93719 0.0
H967 H 0.37937 0.63918 0.91617 0.0
O968 O 0.43845 0.45581 0.79356 0.0
H969 H 0.2142 0.32297 0.82395 0.0
H970 H 0.33461 0.3855 0.67456 0.0
H971 H 0.27581 0.30207 0.67469 0.0
H972 H 0.21521 0.27001 0.74996 0.0
H973 H 0.27201 0.40689 0.82041 0.0
H974 H 0.34155 0.54244 0.55488 0.0
H975 H 0.27182 0.47122 0.5175 0.0
O976 O 0.40035 0.45715 0.71386 0.0
C977 C 0.43294 0.56388 0.75792 0.0
C978 C 0.262 0.43273 0.59361 0.0
C979 C 0.32451 0.51085 0.58001 0.0
N980 N 0.32395 0.46791 0.66292 0.0
C981 C 0.28034 0.43287 0.6468 0.0
C982 C 0.34497 0.50713 0.6303 0.0
C983 C 0.2849 0.47173 0.5595 0.0
C984 C 0.36584 0.53155 0.89528 0.0
N985 N 0.41144 0.54296 0.88729 0.0
C986 C 0.35366 0.56595 0.90356 0.0
C987 C 0.38837 0.61233 0.90877 0.0
C988 C 0.43467 0.62397 0.90331 0.0
C989 C 0.44538 0.58902 0.89135 0.0
C990 C 0.54038 0.5655 0.95549 0.0
C991 C 0.52635 0.55313 0.84107 0.0
C992 C 0.49604 0.5371 0.93344 0.0
N993 N 0.48912 0.53054 0.87665 0.0
C994 C 0.57049 0.58566 0.86243 0.0
C995 C 0.57699 0.59229 0.92002 0.0
C996 C 0.42984 0.44778 0.73872 0.0
C997 C 0.24051 0.33645 0.791 0.0
C998 C 0.30901 0.37196 0.70816 0.0
C999 C 0.27543 0.32462 0.70766 0.0
C1000 C 0.24116 0.30675 0.74958 0.0
N1001 N 0.30634 0.40145 0.74677 0.0
C1002 C 0.27348 0.38398 0.78884 0.0
Co1003 Co 0.91099 0.40536 0.82469 0.0
Co1004 Co 0.89244 0.33254 0.7111 0.0
O1005 O 0.89476 0.34659 0.79184 0.0
C1006 C 0.93838 0.36092 0.9273 0.0
O1007 O 0.92802 0.32208 0.90054 0.0
C1008 C 0.79181 0.2802 0.68493 0.0
O1009 O 0.80098 0.30861 0.64187 0.0
O1010 O 0.87608 0.38221 0.68558 0.0
O1011 O 0.88719 0.42451 0.76229 0.0
H1012 H 0.91401 0.35004 0.50055 0.0
H1013 H 0.85373 0.32035 0.89877 0.0
O1014 O 0.93669 0.39392 0.90023 0.0
H1015 H 0.74625 0.37735 0.85348 0.0
H1016 H 0.87582 0.4993 0.95881 0.0
H1017 H 0.96663 0.50564 0.79066 0.0
H1018 H 0.82407 0.41523 0.81393 0.0
H1019 H 0.88147 0.43161 0.9306 0.0
O1020 O 0.82405 0.28512 0.71912 0.0
H1021 H 0.91369 0.37664 0.59832 0.0
H1022 H 0.85272 0.23862 0.65735 0.0
H1023 H 0.96755 0.57857 0.82603 0.0
H1024 H 0.77764 0.28487 0.94431 0.0
H1025 H 0.92179 0.57468 0.90685 0.0
H1026 H 0.72198 0.31137 0.92057 0.0
O1027 O 0.97496 0.43278 0.77702 0.0
H1028 H 0.87426 0.19483 0.82288 0.0
H1029 H 0.96478 0.3098 0.67426 0.0
H1030 H 0.98061 0.24595 0.69489 0.0
H1031 H 0.93601 0.18861 0.7706 0.0
H1032 H 0.85719 0.25736 0.798 0.0
H1033 H 0.84786 0.20949 0.56043 0.0
H1034 H 0.87985 0.26584 0.48039 0.0
O1035 O 0.96156 0.38278 0.70297 0.0
C1036 C 0.87466 0.41543 0.71208 0.0
C1037 C 0.90028 0.32543 0.53434 0.0
C1038 C 0.86371 0.24661 0.56808 0.0
N1039 N 0.88761 0.31066 0.63348 0.0
C1040 C 0.90187 0.34091 0.58969 0.0
C1041 C 0.867 0.26358 0.62307 0.0
C1042 C 0.8813 0.27807 0.52335 0.0
C1043 C 0.8322 0.3353 0.89094 0.0
N1044 N 0.84714 0.37394 0.85749 0.0
C1045 C 0.78764 0.3131 0.91481 0.0
C1046 C 0.75654 0.32837 0.90202 0.0
C1047 C 0.77031 0.36554 0.86509 0.0
C1048 C 0.81547 0.38755 0.84296 0.0
C1049 C 0.8975 0.5019 0.92331 0.0
C1050 C 0.94908 0.50522 0.82937 0.0
C1051 C 0.89998 0.46308 0.90586 0.0
N1052 N 0.92423 0.46438 0.85824 0.0
C1053 C 0.9493 0.54577 0.84789 0.0
C1054 C 0.92306 0.54387 0.89449 0.0
C1055 C 0.98926 0.4208 0.73035 0.0
C1056 C 0.89423 0.21992 0.7902 0.0
C1057 C 0.94522 0.28498 0.70733 0.0
C1058 C 0.95448 0.24903 0.71898 0.0
C1059 C 0.92901 0.21651 0.76097 0.0
N1060 N 0.90975 0.28693 0.73453 0.0
C1061 C 0.88483 0.25542 0.77609 0.0
Co1062 Co 0.12045 0.51019 0.61569 0.0
Co1063 Co 0.13908 0.45596 0.72928 0.0
O1064 O 0.13676 0.4677 0.64854 0.0
C1065 C 0.09314 0.43837 0.51308 0.0
O1066 O 0.10356 0.40994 0.53984 0.0
C1067 C 0.23971 0.50433 0.75543 0.0
O1068 O 0.23053 0.52359 0.79847 0.0
O1069 O 0.15537 0.52197 0.75481 0.0
O1070 O 0.14421 0.55313 0.67809 0.0
H1071 H 0.11752 0.45187 0.93984 0.0
H1072 H 0.17779 0.48256 0.54154 0.0
O1073 O 0.09479 0.47305 0.54015 0.0
H1074 H 0.28513 0.64702 0.58698 0.0
H1075 H 0.15548 0.63925 0.48156 0.0
H1076 H 0.06473 0.55474 0.64972 0.0
H1077 H 0.20732 0.607 0.6265 0.0
H1078 H 0.14992 0.56596 0.50978 0.0
O1079 O 0.20747 0.47697 0.72126 0.0
H1080 H 0.11781 0.47878 0.84208 0.0
H1081 H 0.17889 0.40184 0.78303 0.0
H1082 H 0.06372 0.62671 0.61435 0.0
H1083 H 0.25388 0.52325 0.49601 0.0
H1084 H 0.10946 0.6686 0.53353 0.0
H1085 H 0.30948 0.60541 0.51983 0.0
O1086 O 0.05649 0.47359 0.66336 0.0
H1087 H 0.15746 0.33654 0.61754 0.0
H1088 H 0.06681 0.36085 0.76613 0.0
H1089 H 0.0511 0.28121 0.74552 0.0
H1090 H 0.09577 0.26854 0.66984 0.0
H1091 H 0.1744 0.4161 0.64238 0.0
H1092 H 0.18377 0.37756 0.87995 0.0
H1093 H 0.15174 0.40188 0.95999 0.0
O1094 O 0.06994 0.43702 0.73741 0.0
C1095 C 0.15677 0.55659 0.72828 0.0
C1096 C 0.13126 0.44101 0.90605 0.0
C1097 C 0.16789 0.39881 0.8723 0.0
N1098 N 0.14393 0.43892 0.80691 0.0
C1099 C 0.12966 0.4549 0.8507 0.0
C1100 C 0.16459 0.41249 0.81731 0.0
C1101 C 0.15027 0.41265 0.91704 0.0
C1102 C 0.19929 0.51904 0.5494 0.0
N1103 N 0.18431 0.54268 0.58289 0.0
C1104 C 0.24385 0.54145 0.52554 0.0
C1105 C 0.27491 0.58781 0.53836 0.0
C1106 C 0.26111 0.61116 0.57533 0.0
C1107 C 0.21594 0.58796 0.59745 0.0
C1108 C 0.13381 0.62016 0.51706 0.0
C1109 C 0.08227 0.57188 0.61101 0.0
C1110 C 0.13138 0.57889 0.53451 0.0
N1111 N 0.10714 0.55592 0.58213 0.0
C1112 C 0.082 0.61218 0.59248 0.0
C1113 C 0.10822 0.63654 0.54588 0.0
C1114 C 0.04221 0.4473 0.71003 0.0
C1115 C 0.13746 0.34163 0.65022 0.0
C1116 C 0.0864 0.35562 0.73306 0.0
C1117 C 0.07721 0.31044 0.72143 0.0
C1118 C 0.10272 0.30343 0.67945 0.0
N1119 N 0.12184 0.39307 0.70585 0.0
C1120 C 0.14678 0.3865 0.6643 0.0
Co1121 Co 0.60577 0.08886 0.59278 0.0
Co1122 Co 0.68442 0.13737 0.69997 0.0
O1123 O 0.66829 0.11947 0.62175 0.0
C1124 C 0.66461 0.08611 0.49193 0.0
O1125 O 0.70447 0.10996 0.51876 0.0
C1126 C 0.74497 0.24014 0.69105 0.0
O1127 O 0.71421 0.24496 0.72085 0.0
O1128 O 0.63987 0.16403 0.70308 0.0
O1129 O 0.58187 0.10987 0.65425 0.0
H1130 H 0.80215 0.18935 0.86044 0.0
H1131 H 0.69379 0.17427 0.54895 0.0
O1132 O 0.62614 0.06712 0.52062 0.0
H1133 H 0.56933 0.21367 0.53435 0.0
H1134 H 0.48507 0.03607 0.44021 0.0
H1135 H 0.50999 0.04265 0.64443 0.0
H1136 H 0.55046 0.13466 0.55808 0.0
H1137 H 0.56406 0.06864 0.47806 0.0
O1138 O 0.73703 0.19994 0.67474 0.0
H1139 H 0.7737 0.16288 0.76533 0.0
H1140 H 0.65319 0.17232 0.79861 0.0
H1141 H 0.43218 0.02458 0.60529 0.0
H1142 H 0.71413 0.25489 0.5347 0.0
H1143 H 0.42121 0.02397 0.50323 0.0
H1144 H 0.65211 0.27549 0.52416 0.0
O1145 O 0.59291 0.03302 0.64682 0.0
H1146 H 0.81712 0.12427 0.6162 0.0
H1147 H 0.69684 0.06649 0.76573 0.0
H1148 H 0.75561 0.04181 0.76551 0.0
H1149 H 0.81613 0.07028 0.69015 0.0
H1150 H 0.75936 0.15045 0.61985 0.0
H1151 H 0.69003 0.21643 0.88559 0.0
H1152 H 0.75979 0.21491 0.92284 0.0
O1153 O 0.63108 0.07244 0.72651 0.0
C1154 C 0.59854 0.14664 0.68246 0.0
C1155 C 0.76955 0.18627 0.84666 0.0
C1156 C 0.70705 0.20188 0.86041 0.0
N1157 N 0.70755 0.15955 0.77743 0.0
C1158 C 0.75117 0.1681 0.79347 0.0
C1159 C 0.68655 0.17774 0.81011 0.0
C1160 C 0.74668 0.20236 0.88084 0.0
C1161 C 0.66559 0.18135 0.54505 0.0
N1162 N 0.61999 0.14719 0.55304 0.0
C1163 C 0.67778 0.22793 0.53676 0.0
C1164 C 0.6431 0.23964 0.53155 0.0
C1165 C 0.59679 0.20499 0.53701 0.0
C1166 C 0.58605 0.15933 0.54897 0.0
C1167 C 0.491 0.04082 0.48491 0.0
C1168 C 0.50505 0.0425 0.59933 0.0
C1169 C 0.53534 0.05673 0.50694 0.0
N1170 N 0.54227 0.05712 0.56373 0.0
C1171 C 0.46091 0.03091 0.57798 0.0
C1172 C 0.4544 0.03102 0.52038 0.0
C1173 C 0.60155 0.0336 0.70166 0.0
C1174 C 0.79084 0.11146 0.64918 0.0
C1175 C 0.72241 0.07852 0.73211 0.0
C1176 C 0.75597 0.06474 0.73255 0.0
C1177 C 0.7902 0.08111 0.69058 0.0
N1178 N 0.72507 0.11069 0.69351 0.0
C1179 C 0.75789 0.12605 0.6514 0.0
Co1180 Co 0.51606 0.61558 0.61569 0.0
Co1181 Co 0.57032 0.6884 0.72929 0.0
O1182 O 0.55858 0.67435 0.64855 0.0
C1183 C 0.58788 0.66002 0.51306 0.0
O1184 O 0.61635 0.69886 0.5398 0.0
C1185 C 0.52196 0.74068 0.75546 0.0
O1186 O 0.50272 0.71226 0.79851 0.0
O1187 O 0.50431 0.63871 0.75482 0.0
O1188 O 0.47312 0.59642 0.6781 0.0
H1189 H 0.57435 0.6709 0.93985 0.0
H1190 H 0.54375 0.70053 0.54151 0.0
O1191 O 0.55319 0.62702 0.54015 0.0
H1192 H 0.37933 0.64361 0.58698 0.0
H1193 H 0.38696 0.52161 0.48158 0.0
H1194 H 0.47147 0.5153 0.64971 0.0
H1195 H 0.4193 0.60577 0.62656 0.0
H1196 H 0.46028 0.58931 0.50979 0.0
O1197 O 0.54932 0.7358 0.72129 0.0
H1198 H 0.54748 0.6443 0.84208 0.0
H1199 H 0.62448 0.78232 0.78305 0.0
H1200 H 0.39947 0.44236 0.61435 0.0
H1201 H 0.50311 0.73596 0.49592 0.0
H1202 H 0.35758 0.44624 0.53355 0.0
H1203 H 0.42097 0.7095 0.51976 0.0
O1204 O 0.55263 0.58817 0.66337 0.0
H1205 H 0.68977 0.82616 0.61754 0.0
H1206 H 0.66542 0.71117 0.76611 0.0
H1207 H 0.74508 0.77506 0.74546 0.0
H1208 H 0.75777 0.83241 0.66979 0.0
H1209 H 0.6102 0.76359 0.64241 0.0
H1210 H 0.64875 0.81145 0.87998 0.0
H1211 H 0.62437 0.75509 0.96001 0.0
O1212 O 0.58923 0.63818 0.73741 0.0
C1213 C 0.46968 0.60552 0.7283 0.0
C1214 C 0.58524 0.6955 0.90606 0.0
C1215 C 0.62749 0.77433 0.87232 0.0
N1216 N 0.58736 0.71028 0.80692 0.0
C1217 C 0.57137 0.68003 0.85071 0.0
C1218 C 0.61382 0.75736 0.81733 0.0
C1219 C 0.61362 0.74287 0.91706 0.0
C1220 C 0.50728 0.68559 0.54937 0.0
N1221 N 0.48361 0.64699 0.58289 0.0
C1222 C 0.4849 0.70776 0.52548 0.0
C1223 C 0.43854 0.69252 0.53831 0.0
C1224 C 0.41518 0.65539 0.57532 0.0
C1225 C 0.43835 0.63341 0.59747 0.0
C1226 C 0.40605 0.51902 0.51707 0.0
C1227 C 0.45432 0.51572 0.61101 0.0
C1228 C 0.44734 0.55785 0.53453 0.0
N1229 N 0.4703 0.55656 0.58214 0.0
C1230 C 0.41401 0.47516 0.59249 0.0
C1231 C 0.38966 0.47705 0.5459 0.0
C1232 C 0.57892 0.60016 0.71003 0.0
C1233 C 0.68467 0.80107 0.65021 0.0
C1234 C 0.67066 0.736 0.73305 0.0
C1235 C 0.71585 0.77197 0.72139 0.0
C1236 C 0.72287 0.80449 0.67942 0.0
N1237 N 0.63322 0.73403 0.70586 0.0
C1238 C 0.63979 0.76555 0.66431 0.0
Co1239 Co 0.93726 0.52209 0.59278 0.0
Co1240 Co 0.88871 0.55217 0.69998 0.0
O1241 O 0.9066 0.55396 0.62176 0.0
C1242 C 0.9399 0.58362 0.49193 0.0
O1243 O 0.91603 0.5996 0.51877 0.0
C1244 C 0.78593 0.50988 0.69103 0.0
O1245 O 0.78112 0.47428 0.72076 0.0
O1246 O 0.86209 0.48096 0.70306 0.0
O1247 O 0.91632 0.47721 0.65427 0.0
H1248 H 0.83668 0.61781 0.86055 0.0
H1249 H 0.85177 0.5246 0.54901 0.0
O1250 O 0.95894 0.56418 0.52061 0.0
H1251 H 0.81255 0.3608 0.5344 0.0
H1252 H 0.9901 0.45425 0.44019 0.0
H1253 H 0.98356 0.4726 0.64441 0.0
H1254 H 0.89154 0.42098 0.55812 0.0
H1255 H 0.95747 0.50061 0.47806 0.0
O1256 O 0.82612 0.54217 0.67476 0.0
H1257 H 0.86318 0.6159 0.76542 0.0
H1258 H 0.85375 0.48594 0.79857 0.0
H1259 H 1.0017 0.4129 0.60527 0.0
H1260 H 0.77118 0.46427 0.53478 0.0
H1261 H 1.0023 0.40255 0.50321 0.0
H1262 H 0.75067 0.38169 0.52423 0.0
O1263 O 0.99309 0.56512 0.64681 0.0
H1264 H 0.90167 0.69793 0.61629 0.0
H1265 H 0.95956 0.63547 0.76575 0.0
H1266 H 0.98418 0.7189 0.76556 0.0
H1267 H 0.95565 0.75093 0.69024 0.0
H1268 H 0.87556 0.61401 0.6199 0.0
H1269 H 0.80961 0.4786 0.88554 0.0
H1270 H 0.81111 0.54985 0.92287 0.0
O1271 O 0.95365 0.56379 0.72651 0.0
C1272 C 0.87953 0.45706 0.68245 0.0
C1273 C 0.83977 0.5883 0.84673 0.0
C1274 C 0.82416 0.51018 0.8604 0.0
N1275 N 0.86651 0.55306 0.77745 0.0
C1276 C 0.85795 0.58813 0.79354 0.0
C1277 C 0.84831 0.51386 0.8101 0.0
C1278 C 0.82367 0.54932 0.88087 0.0
C1279 C 0.84474 0.48934 0.5451 0.0
N1280 N 0.87893 0.47794 0.55307 0.0
C1281 C 0.79817 0.45492 0.53683 0.0
C1282 C 0.78651 0.40854 0.53161 0.0
C1283 C 0.82119 0.39692 0.53706 0.0
C1284 C 0.86684 0.43188 0.54901 0.0
C1285 C 0.98536 0.45542 0.48489 0.0
C1286 C 0.98371 0.46781 0.59931 0.0
C1287 C 0.96941 0.48382 0.50693 0.0
N1288 N 0.96905 0.49038 0.56372 0.0
C1289 C 0.99533 0.43529 0.57796 0.0
C1290 C 0.99521 0.42865 0.52036 0.0
C1291 C 0.9925 0.57315 0.70165 0.0
C1292 C 0.91451 0.68446 0.64925 0.0
C1293 C 0.9475 0.64899 0.73214 0.0
C1294 C 0.96125 0.69633 0.7326 0.0
C1295 C 0.94485 0.71418 0.69065 0.0
N1296 N 0.91534 0.61948 0.69355 0.0
C1297 C 0.89995 0.63694 0.65145 0.0
Co1298 Co 0.41059 0.90577 0.6157 0.0
Co1299 Co 0.33776 0.88721 0.72929 0.0
O1300 O 0.35182 0.88952 0.64855 0.0
C1301 C 0.36614 0.93315 0.51308 0.0
O1302 O 0.32731 0.92278 0.53984 0.0
C1303 C 0.28541 0.78658 0.75547 0.0
O1304 O 0.31381 0.79575 0.79854 0.0
O1305 O 0.38744 0.87086 0.75482 0.0
O1306 O 0.42974 0.88197 0.6781 0.0
H1307 H 0.35524 0.90877 0.93985 0.0
H1308 H 0.32559 0.8485 0.54162 0.0
O1309 O 0.39915 0.93146 0.54015 0.0
H1310 H 0.3826 0.74104 0.58691 0.0
H1311 H 0.50455 0.87061 0.48158 0.0
H1312 H 0.51087 0.96143 0.64972 0.0
H1313 H 0.42047 0.81885 0.62646 0.0
H1314 H 0.43685 0.87625 0.5098 0.0
O1315 O 0.29034 0.81883 0.72127 0.0
H1316 H 0.38185 0.90845 0.84209 0.0
H1317 H 0.24384 0.84751 0.78303 0.0
H1318 H 0.58382 0.96236 0.61435 0.0
H1319 H 0.29012 0.77241 0.49607 0.0
H1320 H 0.57993 0.9166 0.53353 0.0
H1321 H 0.31663 0.71676 0.51982 0.0
O1322 O 0.43801 0.96974 0.66337 0.0
H1323 H 0.20007 0.86903 0.61748 0.0
H1324 H 0.31502 0.95956 0.76611 0.0
H1325 H 0.25116 0.97538 0.74547 0.0
H1326 H 0.19383 0.93077 0.66976 0.0
H1327 H 0.2626 0.85196 0.64238 0.0
H1328 H 0.2147 0.84267 0.87994 0.0
H1329 H 0.27104 0.87464 0.95999 0.0
O1330 O 0.38801 0.95633 0.73741 0.0
C1331 C 0.42064 0.86942 0.7283 0.0
C1332 C 0.33064 0.89505 0.90606 0.0
C1333 C 0.25181 0.8585 0.87229 0.0
N1334 N 0.31588 0.88239 0.80691 0.0
C1335 C 0.34612 0.89664 0.8507 0.0
C1336 C 0.2688 0.86179 0.81731 0.0
C1337 C 0.28327 0.87609 0.91704 0.0
C1338 C 0.34054 0.82697 0.54945 0.0
N1339 N 0.37918 0.84192 0.5829 0.0
C1340 C 0.31834 0.78241 0.52558 0.0
C1341 C 0.33362 0.75132 0.53836 0.0
C1342 C 0.37079 0.76509 0.5753 0.0
C1343 C 0.39279 0.81025 0.59743 0.0
C1344 C 0.50714 0.8923 0.51707 0.0
C1345 C 0.51046 0.94387 0.61101 0.0
C1346 C 0.46832 0.89476 0.53453 0.0
N1347 N 0.46961 0.91902 0.58214 0.0
C1348 C 0.55101 0.94411 0.59249 0.0
C1349 C 0.54912 0.91787 0.54589 0.0
C1350 C 0.42602 0.98403 0.71004 0.0
C1351 C 0.22515 0.889 0.65017 0.0
C1352 C 0.2902 0.93999 0.73304 0.0
C1353 C 0.25425 0.94925 0.72139 0.0
C1354 C 0.22174 0.92377 0.67939 0.0
N1355 N 0.29216 0.90452 0.70585 0.0
C1356 C 0.26065 0.87961 0.66428 0.0
Co1357 Co 0.50403 0.4204 0.59278 0.0
Co1358 Co 0.47392 0.34178 0.7 0.0
O1359 O 0.47214 0.35788 0.62177 0.0
C1360 C 0.44244 0.36153 0.49195 0.0
O1361 O 0.42646 0.32168 0.5188 0.0
C1362 C 0.51624 0.28131 0.69104 0.0
O1363 O 0.55185 0.31212 0.72075 0.0
O1364 O 0.54512 0.38634 0.70308 0.0
O1365 O 0.54892 0.44433 0.65426 0.0
H1366 H 0.40825 0.22412 0.86057 0.0
H1367 H 0.50146 0.33238 0.549 0.0
O1368 O 0.46192 0.40001 0.52062 0.0
H1369 H 0.66529 0.45688 0.5344 0.0
H1370 H 0.5719 0.54107 0.44018 0.0
H1371 H 0.55355 0.51619 0.6444 0.0
H1372 H 0.60513 0.47573 0.55809 0.0
H1373 H 0.5255 0.46209 0.47806 0.0
O1374 O 0.48393 0.28919 0.6748 0.0
H1375 H 0.41016 0.25254 0.76546 0.0
H1376 H 0.54016 0.37301 0.79859 0.0
H1377 H 0.61328 0.594 0.60525 0.0
H1378 H 0.56177 0.31207 0.53481 0.0
H1379 H 0.62364 0.60494 0.50319 0.0
H1380 H 0.64436 0.3741 0.52426 0.0
O1381 O 0.46102 0.43325 0.64681 0.0
H1382 H 0.32816 0.20902 0.61628 0.0
H1383 H 0.39062 0.32938 0.76573 0.0
H1384 H 0.30718 0.27062 0.7655 0.0
H1385 H 0.27515 0.21006 0.69019 0.0
H1386 H 0.41209 0.26679 0.61993 0.0
H1387 H 0.54748 0.33619 0.88555 0.0
H1388 H 0.47622 0.26646 0.92288 0.0
O1389 O 0.46232 0.39511 0.72652 0.0
C1390 C 0.56904 0.42767 0.68246 0.0
C1391 C 0.43777 0.25671 0.84675 0.0
C1392 C 0.5159 0.31917 0.86041 0.0
N1393 N 0.47302 0.31868 0.77747 0.0
C1394 C 0.43794 0.27508 0.79357 0.0
C1395 C 0.51223 0.33966 0.81011 0.0
C1396 C 0.47676 0.27957 0.88088 0.0
C1397 C 0.53673 0.36059 0.5451 0.0
N1398 N 0.54815 0.4062 0.55306 0.0
C1399 C 0.57113 0.34841 0.53684 0.0
C1400 C 0.61752 0.38311 0.53163 0.0
C1401 C 0.62916 0.42942 0.53706 0.0
C1402 C 0.59421 0.44014 0.549 0.0
C1403 C 0.57072 0.53516 0.48488 0.0
C1404 C 0.55834 0.52112 0.5993 0.0
C1405 C 0.54231 0.49082 0.50692 0.0
N1406 N 0.53575 0.4839 0.56371 0.0
C1407 C 0.59088 0.56526 0.57794 0.0
C1408 C 0.59751 0.57176 0.52035 0.0
C1409 C 0.45298 0.42462 0.70165 0.0
C1410 C 0.34163 0.23532 0.64924 0.0
C1411 C 0.3771 0.30379 0.73212 0.0
C1412 C 0.32975 0.27023 0.73256 0.0
C1413 C 0.3119 0.23598 0.69061 0.0
N1414 N 0.40661 0.30111 0.69356 0.0
C1415 C 0.38916 0.26827 0.65147 0.0
loop_
_geom_bond_atom_site_label_1
_geom_bond_atom_site_label_2
_geom_bond_distance
_geom_bond_site_symmetry_2
_ccdc_geom_bond_type
Co0 O2 2.143 . S
Co0 O8 2.074 . S
Co0 O11 2.093 . S
Co0 O24 2.097 . S
Co0 N41 2.151 . S
Co0 N49 2.214 . S
Co1 O2 2.160 . S
Co1 O7 2.058 . S
Co1 O17 2.057 . S
Co1 O32 2.037 . S
Co1 N36 2.145 . S
Co1 N57 2.257 . S
O2 Co0 2.143 . S
O2 Co1 2.160 . S
C3 O4 1.278 . S
C3 O11 1.224 . S
O4 C3 1.278 . S
C5 O6 1.245 . S
C5 O17 1.232 . S
O6 C5 1.245 . S
O7 Co1 2.058 . S
O7 C33 1.269 . S
O8 Co0 2.074 . S
O8 C33 1.257 . S
H9 C34 0.930 . S
H10 C40 0.930 . S
O11 Co0 2.093 . S
O11 C3 1.224 . S
H12 C44 0.929 . S
H13 C46 0.929 . S
H14 C47 0.930 . S
H15 C45 0.929 . S
H16 C48 0.928 . S
O17 Co1 2.057 . S
O17 C5 1.232 . S
H18 C37 0.929 . S
H19 C38 0.929 . S
H20 C50 0.931 . S
H21 C42 0.929 . S
H22 C51 0.930 . S
H23 C43 0.931 . S
O24 Co0 2.097 . S
O24 C52 1.214 . S
H25 C53 0.929 . S
H26 C54 0.929 . S
H27 C55 0.930 . S
H28 C56 0.929 . S
H29 C58 0.930 . S
H30 C35 0.930 . S
H31 C39 0.930 . S
O32 Co1 2.037 . S
O32 C52 1.234 . S
C33 O7 1.269 . S
C33 O8 1.257 . S
C34 H9 0.930 . S
C34 C37 1.388 . S
C34 C39 1.418 . S
C35 H30 0.930 . S
C35 C38 1.404 . S
C35 C39 1.353 . S
N36 Co1 2.145 . S
N36 C37 1.397 . S
N36 C38 1.334 . S
C37 H18 0.929 . S
C37 C34 1.388 . S
C37 N36 1.397 . S
C38 H19 0.929 . S
C38 C35 1.404 . S
C38 N36 1.334 . S
C39 H31 0.930 . S
C39 C34 1.418 . S
C39 C35 1.353 . S
C40 H10 0.930 . S
C40 N41 1.330 . S
C40 C42 1.446 . S
N41 Co0 2.151 . S
N41 C40 1.330 . S
N41 C45 1.418 . S
C42 H21 0.929 . S
C42 C40 1.446 . S
C42 C43 1.332 . S
C43 H23 0.931 . S
C43 C42 1.332 . S
C43 C44 1.267 . S
C44 H12 0.929 . S
C44 C43 1.267 . S
C44 C45 1.251 . S
C45 H15 0.929 . S
C45 N41 1.418 . S
C45 C44 1.251 . S
C46 H13 0.929 . S
C46 C48 1.406 . S
C46 C51 1.261 1_545 S
C47 H14 0.930 . S
C47 N49 1.325 . S
C47 C50 1.357 1_545 S
C48 H16 0.928 . S
C48 C46 1.406 . S
C48 N49 1.261 . S
N49 Co0 2.214 . S
N49 C47 1.325 . S
N49 C48 1.261 . S
C50 H20 0.931 . S
C50 C47 1.357 1_565 S
C50 C51 1.312 . S
C51 H22 0.930 . S
C51 C46 1.261 1_565 S
C51 C50 1.312 . S
C52 O24 1.214 . S
C52 O32 1.234 . S
C53 H25 0.929 . S
C53 C56 1.391 . S
C53 C58 1.391 . S
C54 H26 0.929 . S
C54 C55 1.390 . S
C54 N57 1.391 . S
C55 H27 0.930 . S
C55 C54 1.390 . S
C55 C56 1.392 . S
C56 H28 0.929 . S
C56 C53 1.391 . S
C56 C55 1.392 . S
N57 Co1 2.257 . S
N57 C54 1.391 . S
N57 C58 1.388 . S
C58 H29 0.930 . S
C58 C53 1.391 . S
C58 N57 1.388 . S
Co59 O61 2.143 . S
Co59 O67 2.074 . S
Co59 O70 2.093 . S
Co59 O83 2.097 . S
Co59 N100 2.151 . S
Co59 N108 2.214 . S
Co60 O61 2.160 . S
Co60 O66 2.058 . S
Co60 O76 2.057 . S
Co60 O91 2.037 . S
Co60 N95 2.145 . S
Co60 N116 2.257 . S
O61 Co59 2.143 . S
O61 Co60 2.160 . S
C62 O63 1.278 . S
C62 O70 1.224 . S
O63 C62 1.278 . S
C64 O65 1.245 . S
C64 O76 1.232 . S
O65 C64 1.245 . S
O66 Co60 2.058 . S
O66 C92 1.269 . S
O67 Co59 2.074 . S
O67 C92 1.257 . S
H68 C93 0.930 . S
H69 C99 0.930 . S
O70 Co59 2.093 . S
O70 C62 1.224 . S
H71 C103 0.929 . S
H72 C105 0.929 . S
H73 C106 0.930 . S
H74 C104 0.929 . S
H75 C107 0.928 . S
O76 Co60 2.057 . S
O76 C64 1.232 . S
H77 C96 0.929 . S
H78 C97 0.929 . S
H79 C109 0.931 . S
H80 C101 0.929 . S
H81 C110 0.930 . S
H82 C102 0.931 . S
O83 Co59 2.097 . S
O83 C111 1.214 . S
H84 C112 0.929 . S
H85 C113 0.929 . S
H86 C114 0.930 . S
H87 C115 0.929 . S
H88 C117 0.930 . S
H89 C94 0.930 . S
H90 C98 0.930 . S
O91 Co60 2.037 . S
O91 C111 1.234 . S
C92 O66 1.269 . S
C92 O67 1.257 . S
C93 H68 0.930 . S
C93 C96 1.388 . S
C93 C98 1.418 . S
C94 H89 0.930 . S
C94 C97 1.404 . S
C94 C98 1.353 . S
N95 Co60 2.145 . S
N95 C96 1.397 . S
N95 C97 1.334 . S
C96 H77 0.929 . S
C96 C93 1.388 . S
C96 N95 1.397 . S
C97 H78 0.929 . S
C97 C94 1.404 . S
C97 N95 1.334 . S
C98 H90 0.930 . S
C98 C93 1.418 . S
C98 C94 1.353 . S
C99 H69 0.930 . S
C99 N100 1.330 . S
C99 C101 1.446 . S
N100 Co59 2.151 . S
N100 C99 1.330 . S
N100 C104 1.418 . S
C101 H80 0.929 . S
C101 C99 1.446 . S
C101 C102 1.332 . S
C102 H82 0.931 . S
C102 C101 1.332 . S
C102 C103 1.267 . S
C103 H71 0.929 . S
C103 C102 1.267 . S
C103 C104 1.251 . S
C104 H74 0.929 . S
C104 N100 1.418 . S
C104 C103 1.251 . S
C105 H72 0.929 . S
C105 C107 1.406 . S
C105 C110 1.261 . S
C106 H73 0.930 . S
C106 N108 1.325 . S
C106 C109 1.357 . S
C107 H75 0.928 . S
C107 C105 1.406 . S
C107 N108 1.261 . S
N108 Co59 2.214 . S
N108 C106 1.325 . S
N108 C107 1.261 . S
C109 H79 0.931 . S
C109 C106 1.357 . S
C109 C110 1.312 . S
C110 H81 0.930 . S
C110 C105 1.261 . S
C110 C109 1.312 . S
C111 O83 1.214 . S
C111 O91 1.234 . S
C112 H84 0.929 . S
C112 C115 1.391 . S
C112 C117 1.391 . S
C113 H85 0.929 . S
C113 C114 1.390 . S
C113 N116 1.391 . S
C114 H86 0.930 . S
C114 C113 1.390 . S
C114 C115 1.392 . S
C115 H87 0.929 . S
C115 C112 1.391 . S
C115 C114 1.392 . S
N116 Co60 2.257 . S
N116 C113 1.391 . S
N116 C117 1.388 . S
C117 H88 0.930 . S
C117 C112 1.391 . S
C117 N116 1.388 . S
Co118 O120 2.143 . S
Co118 O126 2.074 . S
Co118 O129 2.093 . S
Co118 O142 2.097 . S
Co118 N159 2.151 . S
Co118 N167 2.214 . S
Co119 O120 2.160 . S
Co119 O125 2.058 . S
Co119 O135 2.057 . S
Co119 O150 2.037 . S
Co119 N154 2.145 . S
Co119 N175 2.257 . S
O120 Co118 2.143 . S
O120 Co119 2.160 . S
C121 O122 1.278 . S
C121 O129 1.224 . S
O122 C121 1.278 . S
C123 O124 1.245 . S
C123 O135 1.232 . S
O124 C123 1.245 . S
O125 Co119 2.058 . S
O125 C151 1.269 . S
O126 Co118 2.074 . S
O126 C151 1.257 . S
H127 C152 0.930 . S
H128 C158 0.930 . S
O129 Co118 2.093 . S
O129 C121 1.224 . S
H130 C162 0.929 . S
H131 C164 0.929 . S
H132 C165 0.930 . S
H133 C163 0.929 . S
H134 C166 0.928 . S
O135 Co119 2.057 . S
O135 C123 1.232 . S
H136 C155 0.929 . S
H137 C156 0.929 . S
H138 C168 0.931 . S
H139 C160 0.929 . S
H140 C169 0.930 . S
H141 C161 0.931 . S
O142 Co118 2.097 . S
O142 C170 1.214 . S
H143 C171 0.929 . S
H144 C172 0.929 . S
H145 C173 0.930 . S
H146 C174 0.929 . S
H147 C176 0.930 . S
H148 C153 0.930 . S
H149 C157 0.930 . S
O150 Co119 2.037 . S
O150 C170 1.234 . S
C151 O125 1.269 . S
C151 O126 1.257 . S
C152 H127 0.930 . S
C152 C155 1.388 . S
C152 C157 1.418 . S
C153 H148 0.930 . S
C153 C156 1.404 . S
C153 C157 1.353 . S
N154 Co119 2.145 . S
N154 C155 1.397 . S
N154 C156 1.334 . S
C155 H136 0.929 . S
C155 C152 1.388 . S
C155 N154 1.397 . S
C156 H137 0.929 . S
C156 C153 1.404 . S
C156 N154 1.334 . S
C157 H149 0.930 . S
C157 C152 1.418 . S
C157 C153 1.353 . S
C158 H128 0.930 . S
C158 N159 1.330 . S
C158 C160 1.446 . S
N159 Co118 2.151 . S
N159 C158 1.330 . S
N159 C163 1.418 . S
C160 H139 0.929 . S
C160 C158 1.446 . S
C160 C161 1.332 . S
C161 H141 0.931 . S
C161 C160 1.332 . S
C161 C162 1.267 . S
C162 H130 0.929 . S
C162 C161 1.267 . S
C162 C163 1.251 . S
C163 H133 0.929 . S
C163 N159 1.418 . S
C163 C162 1.251 . S
C164 H131 0.929 . S
C164 C166 1.406 . S
C164 C169 1.261 1_655 S
C165 H132 0.930 . S
C165 N167 1.325 . S
C165 C168 1.357 1_655 S
C166 H134 0.928 . S
C166 C164 1.406 . S
C166 N167 1.261 . S
N167 Co118 2.214 . S
N167 C165 1.325 . S
N167 C166 1.261 . S
C168 H138 0.931 . S
C168 C165 1.357 1_455 S
C168 C169 1.312 . S
C169 H140 0.930 . S
C169 C164 1.261 1_455 S
C169 C168 1.312 . S
C170 O142 1.214 . S
C170 O150 1.234 . S
C171 H143 0.929 . S
C171 C174 1.391 . S
C171 C176 1.391 . S
C172 H144 0.929 . S
C172 C173 1.390 . S
C172 N175 1.391 . S
C173 H145 0.930 . S
C173 C172 1.390 . S
C173 C174 1.392 . S
C174 H146 0.929 . S
C174 C171 1.391 . S
C174 C173 1.392 . S
N175 Co119 2.257 . S
N175 C172 1.391 . S
N175 C176 1.388 . S
C176 H147 0.930 . S
C176 C171 1.391 . S
C176 N175 1.388 . S
Co177 O179 2.143 . S
Co177 O185 2.074 . S
Co177 O188 2.093 . S
Co177 O201 2.097 . S
Co177 N218 2.151 . S
Co177 N226 2.214 . S
Co178 O179 2.160 . S
Co178 O184 2.058 . S
Co178 O194 2.057 . S
Co178 O209 2.037 . S
Co178 N213 2.145 . S
Co178 N234 2.257 . S
O179 Co177 2.143 . S
O179 Co178 2.160 . S
C180 O181 1.278 . S
C180 O188 1.224 . S
O181 C180 1.278 . S
C182 O183 1.245 . S
C182 O194 1.232 . S
O183 C182 1.245 . S
O184 Co178 2.058 . S
O184 C210 1.269 . S
O185 Co177 2.074 . S
O185 C210 1.257 . S
H186 C211 0.930 . S
H187 C217 0.930 . S
O188 Co177 2.093 . S
O188 C180 1.224 . S
H189 C221 0.929 . S
H190 C223 0.929 . S
H191 C224 0.930 . S
H192 C222 0.929 . S
H193 C225 0.928 . S
O194 Co178 2.057 . S
O194 C182 1.232 . S
H195 C214 0.929 . S
H196 C215 0.929 . S
H197 C227 0.931 . S
H198 C219 0.929 . S
H199 C228 0.930 . S
H200 C220 0.931 . S
O201 Co177 2.097 . S
O201 C229 1.214 . S
H202 C230 0.929 . S
H203 C231 0.929 . S
H204 C232 0.930 . S
H205 C233 0.929 . S
H206 C235 0.930 . S
H207 C212 0.930 . S
H208 C216 0.930 . S
O209 Co178 2.037 . S
O209 C229 1.234 . S
C210 O184 1.269 . S
C210 O185 1.257 . S
C211 H186 0.930 . S
C211 C214 1.388 . S
C211 C216 1.418 . S
C212 H207 0.930 . S
C212 C215 1.404 . S
C212 C216 1.353 . S
N213 Co178 2.145 . S
N213 C214 1.397 . S
N213 C215 1.334 . S
C214 H195 0.929 . S
C214 C211 1.388 . S
C214 N213 1.397 . S
C215 H196 0.929 . S
C215 C212 1.404 . S
C215 N213 1.334 . S
C216 H208 0.930 . S
C216 C211 1.418 . S
C216 C212 1.353 . S
C217 H187 0.930 . S
C217 N218 1.330 . S
C217 C219 1.446 . S
N218 Co177 2.151 . S
N218 C217 1.330 . S
N218 C222 1.418 . S
C219 H198 0.929 . S
C219 C217 1.446 . S
C219 C220 1.332 . S
C220 H200 0.931 . S
C220 C219 1.332 . S
C220 C221 1.267 . S
C221 H189 0.929 . S
C221 C220 1.267 . S
C221 C222 1.251 . S
C222 H192 0.929 . S
C222 N218 1.418 . S
C222 C221 1.251 . S
C223 H190 0.929 . S
C223 C225 1.406 . S
C223 C228 1.261 1_565 S
C224 H191 0.930 . S
C224 N226 1.325 . S
C224 C227 1.357 1_565 S
C225 H193 0.928 . S
C225 C223 1.406 . S
C225 N226 1.261 . S
N226 Co177 2.214 . S
N226 C224 1.325 . S
N226 C225 1.261 . S
C227 H197 0.931 . S
C227 C224 1.357 1_545 S
C227 C228 1.312 . S
C228 H199 0.930 . S
C228 C223 1.261 1_545 S
C228 C227 1.312 . S
C229 O201 1.214 . S
C229 O209 1.234 . S
C230 H202 0.929 . S
C230 C233 1.391 . S
C230 C235 1.391 . S
C231 H203 0.929 . S
C231 C232 1.390 . S
C231 N234 1.391 . S
C232 H204 0.930 . S
C232 C231 1.390 . S
C232 C233 1.392 . S
C233 H205 0.929 . S
C233 C230 1.391 . S
C233 C232 1.392 . S
N234 Co178 2.257 . S
N234 C231 1.391 . S
N234 C235 1.388 . S
C235 H206 0.930 . S
C235 C230 1.391 . S
C235 N234 1.388 . S
Co236 O238 2.143 . S
Co236 O244 2.074 . S
Co236 O247 2.093 . S
Co236 O260 2.097 . S
Co236 N277 2.151 . S
Co236 N285 2.214 . S
Co237 O238 2.160 . S
Co237 O243 2.058 . S
Co237 O253 2.057 . S
Co237 O268 2.037 . S
Co237 N272 2.145 . S
Co237 N293 2.257 . S
O238 Co236 2.143 . S
O238 Co237 2.160 . S
C239 O240 1.278 . S
C239 O247 1.224 . S
O240 C239 1.278 . S
C241 O242 1.245 . S
C241 O253 1.232 . S
O242 C241 1.245 . S
O243 Co237 2.058 . S
O243 C269 1.269 . S
O244 Co236 2.074 . S
O244 C269 1.257 . S
H245 C270 0.930 . S
H246 C276 0.930 . S
O247 Co236 2.093 . S
O247 C239 1.224 . S
H248 C280 0.929 . S
H249 C282 0.929 . S
H250 C283 0.930 . S
H251 C281 0.929 . S
H252 C284 0.928 . S
O253 Co237 2.057 . S
O253 C241 1.232 . S
H254 C273 0.929 . S
H255 C274 0.929 . S
H256 C286 0.931 . S
H257 C278 0.929 . S
H258 C287 0.930 . S
H259 C279 0.931 . S
O260 Co236 2.097 . S
O260 C288 1.214 . S
H261 C289 0.929 . S
H262 C290 0.929 . S
H263 C291 0.930 . S
H264 C292 0.929 . S
H265 C294 0.930 . S
H266 C271 0.930 . S
H267 C275 0.930 . S
O268 Co237 2.037 . S
O268 C288 1.234 . S
C269 O243 1.269 . S
C269 O244 1.257 . S
C270 H245 0.930 . S
C270 C273 1.388 . S
C270 C275 1.418 . S
C271 H266 0.930 . S
C271 C274 1.404 . S
C271 C275 1.353 . S
N272 Co237 2.145 . S
N272 C273 1.397 . S
N272 C274 1.334 . S
C273 H254 0.929 . S
C273 C270 1.388 . S
C273 N272 1.397 . S
C274 H255 0.929 . S
C274 C271 1.404 . S
C274 N272 1.334 . S
C275 H267 0.930 . S
C275 C270 1.418 . S
C275 C271 1.353 . S
C276 H246 0.930 . S
C276 N277 1.330 . S
C276 C278 1.446 . S
N277 Co236 2.151 . S
N277 C276 1.330 . S
N277 C281 1.418 . S
C278 H257 0.929 . S
C278 C276 1.446 . S
C278 C279 1.332 . S
C279 H259 0.931 . S
C279 C278 1.332 . S
C279 C280 1.267 . S
C280 H248 0.929 . S
C280 C279 1.267 . S
C280 C281 1.251 . S
C281 H251 0.929 . S
C281 N277 1.418 . S
C281 C280 1.251 . S
C282 H249 0.929 . S
C282 C284 1.406 . S
C282 C287 1.261 . S
C283 H250 0.930 . S
C283 N285 1.325 . S
C283 C286 1.357 . S
C284 H252 0.928 . S
C284 C282 1.406 . S
C284 N285 1.261 . S
N285 Co236 2.214 . S
N285 C283 1.325 . S
N285 C284 1.261 . S
C286 H256 0.931 . S
C286 C283 1.357 . S
C286 C287 1.312 . S
C287 H258 0.930 . S
C287 C282 1.261 . S
C287 C286 1.312 . S
C288 O260 1.214 . S
C288 O268 1.234 . S
C289 H261 0.929 . S
C289 C292 1.391 . S
C289 C294 1.391 . S
C290 H262 0.929 . S
C290 C291 1.390 . S
C290 N293 1.391 . S
C291 H263 0.930 . S
C291 C290 1.390 . S
C291 C292 1.392 . S
C292 H264 0.929 . S
C292 C289 1.391 . S
C292 C291 1.392 . S
N293 Co237 2.257 . S
N293 C290 1.391 . S
N293 C294 1.388 . S
C294 H265 0.930 . S
C294 C289 1.391 . S
C294 N293 1.388 . S
Co295 O297 2.143 . S
Co295 O303 2.074 . S
Co295 O306 2.093 . S
Co295 O319 2.097 . S
Co295 N336 2.151 . S
Co295 N344 2.214 . S
Co296 O297 2.160 . S
Co296 O302 2.058 . S
Co296 O312 2.057 . S
Co296 O327 2.037 . S
Co296 N331 2.145 . S
Co296 N352 2.257 . S
O297 Co295 2.143 . S
O297 Co296 2.160 . S
C298 O299 1.278 . S
C298 O306 1.224 . S
O299 C298 1.278 . S
C300 O301 1.245 . S
C300 O312 1.232 . S
O301 C300 1.245 . S
O302 Co296 2.058 . S
O302 C328 1.269 . S
O303 Co295 2.074 . S
O303 C328 1.257 . S
H304 C329 0.930 . S
H305 C335 0.930 . S
O306 Co295 2.093 . S
O306 C298 1.224 . S
H307 C339 0.929 . S
H308 C341 0.929 . S
H309 C342 0.930 . S
H310 C340 0.929 . S
H311 C343 0.928 . S
O312 Co296 2.057 . S
O312 C300 1.232 . S
H313 C332 0.929 . S
H314 C333 0.929 . S
H315 C345 0.931 . S
H316 C337 0.929 . S
H317 C346 0.930 . S
H318 C338 0.931 . S
O319 Co295 2.097 . S
O319 C347 1.214 . S
H320 C348 0.929 . S
H321 C349 0.929 . S
H322 C350 0.930 . S
H323 C351 0.929 . S
H324 C353 0.930 . S
H325 C330 0.930 . S
H326 C334 0.930 . S
O327 Co296 2.037 . S
O327 C347 1.234 . S
C328 O302 1.269 . S
C328 O303 1.257 . S
C329 H304 0.930 . S
C329 C332 1.388 . S
C329 C334 1.418 . S
C330 H325 0.930 . S
C330 C333 1.404 . S
C330 C334 1.353 . S
N331 Co296 2.145 . S
N331 C332 1.397 . S
N331 C333 1.334 . S
C332 H313 0.929 . S
C332 C329 1.388 . S
C332 N331 1.397 . S
C333 H314 0.929 . S
C333 C330 1.404 . S
C333 N331 1.334 . S
C334 H326 0.930 . S
C334 C329 1.418 . S
C334 C330 1.353 . S
C335 H305 0.930 . S
C335 N336 1.330 . S
C335 C337 1.446 . S
N336 Co295 2.151 . S
N336 C335 1.330 . S
N336 C340 1.418 . S
C337 H316 0.929 . S
C337 C335 1.446 . S
C337 C338 1.332 . S
C338 H318 0.931 . S
C338 C337 1.332 . S
C338 C339 1.267 . S
C339 H307 0.929 . S
C339 C338 1.267 . S
C339 C340 1.251 . S
C340 H310 0.929 . S
C340 N336 1.418 . S
C340 C339 1.251 . S
C341 H308 0.929 . S
C341 C343 1.406 . S
C341 C346 1.261 1_455 S
C342 H309 0.930 . S
C342 N344 1.325 . S
C342 C345 1.357 1_455 S
C343 H311 0.928 . S
C343 C341 1.406 . S
C343 N344 1.261 . S
N344 Co295 2.214 . S
N344 C342 1.325 . S
N344 C343 1.261 . S
C345 H315 0.931 . S
C345 C342 1.357 1_655 S
C345 C346 1.312 . S
C346 H317 0.930 . S
C346 C341 1.261 1_655 S
C346 C345 1.312 . S
C347 O319 1.214 . S
C347 O327 1.234 . S
C348 H320 0.929 . S
C348 C351 1.391 . S
C348 C353 1.391 . S
C349 H321 0.929 . S
C349 C350 1.390 . S
C349 N352 1.391 . S
C350 H322 0.930 . S
C350 C349 1.390 . S
C350 C351 1.392 . S
C351 H323 0.929 . S
C351 C348 1.391 . S
C351 C350 1.392 . S
N352 Co296 2.257 . S
N352 C349 1.391 . S
N352 C353 1.388 . S
C353 H324 0.930 . S
C353 C348 1.391 . S
C353 N352 1.388 . S
Co354 O356 2.143 . S
Co354 O362 2.074 . S
Co354 O365 2.093 . S
Co354 O378 2.097 . S
Co354 N395 2.151 . S
Co354 N403 2.214 . S
Co355 O356 2.160 . S
Co355 O361 2.058 . S
Co355 O371 2.057 . S
Co355 O386 2.037 . S
Co355 N390 2.145 . S
Co355 N411 2.257 . S
O356 Co354 2.143 . S
O356 Co355 2.160 . S
C357 O358 1.278 . S
C357 O365 1.224 . S
O358 C357 1.278 . S
C359 O360 1.245 . S
C359 O371 1.232 . S
O360 C359 1.245 . S
O361 Co355 2.058 . S
O361 C387 1.269 . S
O362 Co354 2.074 . S
O362 C387 1.257 . S
H363 C388 0.930 . S
H364 C394 0.930 . S
O365 Co354 2.093 . S
O365 C357 1.224 . S
H366 C398 0.929 . S
H367 C400 0.930 . S
H368 C401 0.930 . S
H369 C399 0.929 . S
H370 C402 0.928 . S
O371 Co355 2.057 . S
O371 C359 1.232 . S
H372 C391 0.929 . S
H373 C392 0.929 . S
H374 C404 0.931 . S
H375 C396 0.929 . S
H376 C405 0.930 . S
H377 C397 0.931 . S
O378 Co354 2.097 . S
O378 C406 1.214 . S
H379 C407 0.929 . S
H380 C408 0.929 . S
H381 C409 0.930 . S
H382 C410 0.929 . S
H383 C412 0.930 . S
H384 C389 0.930 . S
H385 C393 0.930 1_556 S
O386 Co355 2.037 . S
O386 C406 1.234 . S
C387 O361 1.269 . S
C387 O362 1.257 . S
C388 H363 0.930 . S
C388 C391 1.388 . S
C388 C393 1.418 . S
C389 H384 0.930 . S
C389 C392 1.404 . S
C389 C393 1.353 . S
N390 Co355 2.145 . S
N390 C391 1.397 . S
N390 C392 1.334 . S
C391 H372 0.929 . S
C391 C388 1.388 . S
C391 N390 1.397 . S
C392 H373 0.929 . S
C392 C389 1.404 . S
C392 N390 1.334 . S
C393 H385 0.930 1_554 S
C393 C388 1.418 . S
C393 C389 1.353 . S
C394 H364 0.930 . S
C394 N395 1.330 . S
C394 C396 1.446 . S
N395 Co354 2.151 . S
N395 C394 1.330 . S
N395 C399 1.418 . S
C396 H375 0.929 . S
C396 C394 1.446 . S
C396 C397 1.332 . S
C397 H377 0.931 . S
C397 C396 1.332 . S
C397 C398 1.267 . S
C398 H366 0.929 . S
C398 C397 1.267 . S
C398 C399 1.251 . S
C399 H369 0.929 . S
C399 N395 1.418 . S
C399 C398 1.251 . S
C400 H367 0.930 . S
C400 C402 1.406 . S
C400 C405 1.261 1_655 S
C401 H368 0.930 . S
C401 N403 1.325 . S
C401 C404 1.357 1_655 S
C402 H370 0.928 . S
C402 C400 1.406 . S
C402 N403 1.261 . S
N403 Co354 2.214 . S
N403 C401 1.325 . S
N403 C402 1.261 . S
C404 H374 0.931 . S
C404 C401 1.357 1_455 S
C404 C405 1.312 . S
C405 H376 0.930 . S
C405 C400 1.261 1_455 S
C405 C404 1.312 . S
C406 O378 1.214 . S
C406 O386 1.234 . S
C407 H379 0.929 . S
C407 C410 1.391 . S
C407 C412 1.391 . S
C408 H380 0.929 . S
C408 C409 1.390 . S
C408 N411 1.391 . S
C409 H381 0.930 . S
C409 C408 1.390 . S
C409 C410 1.392 . S
C410 H382 0.929 . S
C410 C407 1.391 . S
C410 C409 1.392 . S
N411 Co355 2.257 . S
N411 C408 1.391 . S
N411 C412 1.388 . S
C412 H383 0.930 . S
C412 C407 1.391 . S
C412 N411 1.388 . S
Co413 O415 2.143 . S
Co413 O421 2.074 . S
Co413 O424 2.093 . S
Co413 O437 2.097 . S
Co413 N454 2.151 . S
Co413 N462 2.214 . S
Co414 O415 2.160 . S
Co414 O420 2.058 . S
Co414 O430 2.057 . S
Co414 O445 2.037 . S
Co414 N449 2.145 . S
Co414 N470 2.257 . S
O415 Co413 2.143 . S
O415 Co414 2.160 . S
C416 O417 1.278 . S
C416 O424 1.224 . S
O417 C416 1.278 . S
C418 O419 1.245 . S
C418 O430 1.232 . S
O419 C418 1.245 . S
O420 Co414 2.058 . S
O420 C446 1.269 . S
O421 Co413 2.074 . S
O421 C446 1.257 . S
H422 C447 0.930 . S
H423 C453 0.930 . S
O424 Co413 2.093 . S
O424 C416 1.224 . S
H425 C457 0.929 . S
H426 C459 0.930 . S
H427 C460 0.930 . S
H428 C458 0.929 . S
H429 C461 0.928 . S
O430 Co414 2.057 . S
O430 C418 1.232 . S
H431 C450 0.929 . S
H432 C451 0.929 . S
H433 C463 0.931 . S
H434 C455 0.929 . S
H435 C464 0.930 . S
H436 C456 0.931 . S
O437 Co413 2.097 . S
O437 C465 1.214 . S
H438 C466 0.929 . S
H439 C467 0.929 . S
H440 C468 0.930 . S
H441 C469 0.929 . S
H442 C471 0.930 . S
H443 C448 0.930 . S
H444 C452 0.930 1_556 S
O445 Co414 2.037 . S
O445 C465 1.234 . S
C446 O420 1.269 . S
C446 O421 1.257 . S
C447 H422 0.930 . S
C447 C450 1.388 . S
C447 C452 1.418 . S
C448 H443 0.930 . S
C448 C451 1.404 . S
C448 C452 1.353 . S
N449 Co414 2.145 . S
N449 C450 1.397 . S
N449 C451 1.334 . S
C450 H431 0.929 . S
C450 C447 1.388 . S
C450 N449 1.397 . S
C451 H432 0.929 . S
C451 C448 1.404 . S
C451 N449 1.334 . S
C452 H444 0.930 1_554 S
C452 C447 1.418 . S
C452 C448 1.353 . S
C453 H423 0.930 . S
C453 N454 1.330 . S
C453 C455 1.446 . S
N454 Co413 2.151 . S
N454 C453 1.330 . S
N454 C458 1.418 . S
C455 H434 0.929 . S
C455 C453 1.446 . S
C455 C456 1.332 . S
C456 H436 0.931 . S
C456 C455 1.332 . S
C456 C457 1.267 . S
C457 H425 0.929 . S
C457 C456 1.267 . S
C457 C458 1.251 . S
C458 H428 0.929 . S
C458 N454 1.418 . S
C458 C457 1.251 . S
C459 H426 0.930 . S
C459 C461 1.406 . S
C459 C464 1.261 1_565 S
C460 H427 0.930 . S
C460 N462 1.325 . S
C460 C463 1.357 1_565 S
C461 H429 0.928 . S
C461 C459 1.406 . S
C461 N462 1.261 . S
N462 Co413 2.214 . S
N462 C460 1.325 . S
N462 C461 1.261 . S
C463 H433 0.931 . S
C463 C460 1.357 1_545 S
C463 C464 1.312 . S
C464 H435 0.930 . S
C464 C459 1.261 1_545 S
C464 C463 1.312 . S
C465 O437 1.214 . S
C465 O445 1.234 . S
C466 H438 0.929 . S
C466 C469 1.391 . S
C466 C471 1.391 . S
C467 H439 0.929 . S
C467 C468 1.390 . S
C467 N470 1.391 . S
C468 H440 0.930 . S
C468 C467 1.390 . S
C468 C469 1.392 . S
C469 H441 0.929 . S
C469 C466 1.391 . S
C469 C468 1.392 . S
N470 Co414 2.257 . S
N470 C467 1.391 . S
N470 C471 1.388 . S
C471 H442 0.930 . S
C471 C466 1.391 . S
C471 N470 1.388 . S
Co472 O474 2.143 . S
Co472 O480 2.074 . S
Co472 O483 2.093 . S
Co472 O496 2.097 . S
Co472 N513 2.151 . S
Co472 N521 2.214 . S
Co473 O474 2.160 . S
Co473 O479 2.058 . S
Co473 O489 2.057 . S
Co473 O504 2.037 . S
Co473 N508 2.145 . S
Co473 N529 2.257 . S
O474 Co472 2.143 . S
O474 Co473 2.160 . S
C475 O476 1.278 . S
C475 O483 1.224 . S
O476 C475 1.278 . S
C477 O478 1.245 . S
C477 O489 1.232 . S
O478 C477 1.245 . S
O479 Co473 2.058 . S
O479 C505 1.269 . S
O480 Co472 2.074 . S
O480 C505 1.257 . S
H481 C506 0.930 . S
H482 C512 0.930 . S
O483 Co472 2.093 . S
O483 C475 1.224 . S
H484 C516 0.929 . S
H485 C518 0.930 . S
H486 C519 0.930 . S
H487 C517 0.929 . S
H488 C520 0.928 . S
O489 Co473 2.057 . S
O489 C477 1.232 . S
H490 C509 0.929 . S
H491 C510 0.929 . S
H492 C522 0.931 . S
H493 C514 0.929 . S
H494 C523 0.930 . S
H495 C515 0.931 . S
O496 Co472 2.097 . S
O496 C524 1.214 . S
H497 C525 0.929 . S
H498 C526 0.929 . S
H499 C527 0.930 . S
H500 C528 0.929 . S
H501 C530 0.930 . S
H502 C507 0.930 . S
H503 C511 0.930 1_556 S
O504 Co473 2.037 . S
O504 C524 1.234 . S
C505 O479 1.269 . S
C505 O480 1.257 . S
C506 H481 0.930 . S
C506 C509 1.388 . S
C506 C511 1.418 . S
C507 H502 0.930 . S
C507 C510 1.404 . S
C507 C511 1.353 . S
N508 Co473 2.145 . S
N508 C509 1.397 . S
N508 C510 1.334 . S
C509 H490 0.929 . S
C509 C506 1.388 . S
C509 N508 1.397 . S
C510 H491 0.929 . S
C510 C507 1.404 . S
C510 N508 1.334 . S
C511 H503 0.930 1_554 S
C511 C506 1.418 . S
C511 C507 1.353 . S
C512 H482 0.930 . S
C512 N513 1.330 . S
C512 C514 1.446 . S
N513 Co472 2.151 . S
N513 C512 1.330 . S
N513 C517 1.418 . S
C514 H493 0.929 . S
C514 C512 1.446 . S
C514 C515 1.332 . S
C515 H495 0.931 . S
C515 C514 1.332 . S
C515 C516 1.267 . S
C516 H484 0.929 . S
C516 C515 1.267 . S
C516 C517 1.251 . S
C517 H487 0.929 . S
C517 N513 1.418 . S
C517 C516 1.251 . S
C518 H485 0.930 . S
C518 C520 1.406 . S
C518 C523 1.261 . S
C519 H486 0.930 . S
C519 N521 1.325 . S
C519 C522 1.357 . S
C520 H488 0.928 . S
C520 C518 1.406 . S
C520 N521 1.261 . S
N521 Co472 2.214 . S
N521 C519 1.325 . S
N521 C520 1.261 . S
C522 H492 0.931 . S
C522 C519 1.357 . S
C522 C523 1.312 . S
C523 H494 0.930 . S
C523 C518 1.261 . S
C523 C522 1.312 . S
C524 O496 1.214 . S
C524 O504 1.234 . S
C525 H497 0.929 . S
C525 C528 1.391 . S
C525 C530 1.391 . S
C526 H498 0.929 . S
C526 C527 1.390 . S
C526 N529 1.391 . S
C527 H499 0.930 . S
C527 C526 1.390 . S
C527 C528 1.392 . S
C528 H500 0.929 . S
C528 C525 1.391 . S
C528 C527 1.392 . S
N529 Co473 2.257 . S
N529 C526 1.391 . S
N529 C530 1.388 . S
C530 H501 0.930 . S
C530 C525 1.391 . S
C530 N529 1.388 . S
Co531 O533 2.143 . S
Co531 O539 2.074 . S
Co531 O542 2.093 . S
Co531 O555 2.097 . S
Co531 N572 2.151 . S
Co531 N580 2.214 . S
Co532 O533 2.160 . S
Co532 O538 2.058 . S
Co532 O548 2.057 . S
Co532 O563 2.037 . S
Co532 N567 2.145 . S
Co532 N588 2.257 . S
O533 Co531 2.143 . S
O533 Co532 2.160 . S
C534 O535 1.278 . S
C534 O542 1.224 . S
O535 C534 1.278 . S
C536 O537 1.245 . S
C536 O548 1.232 . S
O537 C536 1.245 . S
O538 Co532 2.058 . S
O538 C564 1.269 . S
O539 Co531 2.074 . S
O539 C564 1.257 . S
H540 C565 0.930 . S
H541 C571 0.930 . S
O542 Co531 2.093 . S
O542 C534 1.224 . S
H543 C575 0.929 . S
H544 C577 0.930 . S
H545 C578 0.930 . S
H546 C576 0.929 . S
H547 C579 0.928 . S
O548 Co532 2.057 . S
O548 C536 1.232 . S
H549 C568 0.929 . S
H550 C569 0.929 . S
H551 C581 0.931 . S
H552 C573 0.929 . S
H553 C582 0.930 . S
H554 C574 0.931 . S
O555 Co531 2.097 . S
O555 C583 1.214 . S
H556 C584 0.929 . S
H557 C585 0.929 . S
H558 C586 0.930 . S
H559 C587 0.929 . S
H560 C589 0.930 . S
H561 C566 0.930 . S
H562 C570 0.930 1_556 S
O563 Co532 2.037 . S
O563 C583 1.234 . S
C564 O538 1.269 . S
C564 O539 1.257 . S
C565 H540 0.930 . S
C565 C568 1.388 . S
C565 C570 1.418 . S
C566 H561 0.930 . S
C566 C569 1.404 . S
C566 C570 1.353 . S
N567 Co532 2.145 . S
N567 C568 1.397 . S
N567 C569 1.334 . S
C568 H549 0.929 . S
C568 C565 1.388 . S
C568 N567 1.397 . S
C569 H550 0.929 . S
C569 C566 1.404 . S
C569 N567 1.334 . S
C570 H562 0.930 1_554 S
C570 C565 1.418 . S
C570 C566 1.353 . S
C571 H541 0.930 . S
C571 N572 1.330 . S
C571 C573 1.446 . S
N572 Co531 2.151 . S
N572 C571 1.330 . S
N572 C576 1.418 . S
C573 H552 0.929 . S
C573 C571 1.446 . S
C573 C574 1.332 . S
C574 H554 0.931 . S
C574 C573 1.332 . S
C574 C575 1.267 . S
C575 H543 0.929 . S
C575 C574 1.267 . S
C575 C576 1.251 . S
C576 H546 0.929 . S
C576 N572 1.418 . S
C576 C575 1.251 . S
C577 H544 0.930 . S
C577 C579 1.406 . S
C577 C582 1.261 1_455 S
C578 H545 0.930 . S
C578 N580 1.325 . S
C578 C581 1.357 1_455 S
C579 H547 0.928 . S
C579 C577 1.406 . S
C579 N580 1.261 . S
N580 Co531 2.214 . S
N580 C578 1.325 . S
N580 C579 1.261 . S
C581 H551 0.931 . S
C581 C578 1.357 1_655 S
C581 C582 1.312 . S
C582 H553 0.930 . S
C582 C577 1.261 1_655 S
C582 C581 1.312 . S
C583 O555 1.214 . S
C583 O563 1.234 . S
C584 H556 0.929 . S
C584 C587 1.391 . S
C584 C589 1.391 . S
C585 H557 0.929 . S
C585 C586 1.390 . S
C585 N588 1.391 . S
C586 H558 0.930 . S
C586 C585 1.390 . S
C586 C587 1.392 . S
C587 H559 0.929 . S
C587 C584 1.391 . S
C587 C586 1.392 . S
N588 Co532 2.257 . S
N588 C585 1.391 . S
N588 C589 1.388 . S
C589 H560 0.930 . S
C589 C584 1.391 . S
C589 N588 1.388 . S
Co590 O592 2.143 . S
Co590 O598 2.074 . S
Co590 O601 2.093 . S
Co590 O614 2.097 . S
Co590 N631 2.151 . S
Co590 N639 2.214 . S
Co591 O592 2.160 . S
Co591 O597 2.058 . S
Co591 O607 2.057 . S
Co591 O622 2.037 . S
Co591 N626 2.145 . S
Co591 N647 2.257 . S
O592 Co590 2.143 . S
O592 Co591 2.160 . S
C593 O594 1.278 . S
C593 O601 1.224 . S
O594 C593 1.278 . S
C595 O596 1.245 . S
C595 O607 1.232 . S
O596 C595 1.245 . S
O597 Co591 2.058 . S
O597 C623 1.269 . S
O598 Co590 2.074 . S
O598 C623 1.257 . S
H599 C624 0.930 . S
H600 C630 0.930 . S
O601 Co590 2.093 . S
O601 C593 1.224 . S
H602 C634 0.929 . S
H603 C636 0.930 . S
H604 C637 0.930 . S
H605 C635 0.929 . S
H606 C638 0.928 . S
O607 Co591 2.057 . S
O607 C595 1.232 . S
H608 C627 0.929 . S
H609 C628 0.929 . S
H610 C640 0.931 . S
H611 C632 0.929 . S
H612 C641 0.930 . S
H613 C633 0.931 . S
O614 Co590 2.097 . S
O614 C642 1.214 . S
H615 C643 0.929 . S
H616 C644 0.929 . S
H617 C645 0.930 . S
H618 C646 0.929 . S
H619 C648 0.930 . S
H620 C625 0.930 . S
H621 C629 0.930 1_556 S
O622 Co591 2.037 . S
O622 C642 1.234 . S
C623 O597 1.269 . S
C623 O598 1.257 . S
C624 H599 0.930 . S
C624 C627 1.388 . S
C624 C629 1.418 . S
C625 H620 0.930 . S
C625 C628 1.404 . S
C625 C629 1.353 . S
N626 Co591 2.145 . S
N626 C627 1.397 . S
N626 C628 1.334 . S
C627 H608 0.929 . S
C627 C624 1.388 . S
C627 N626 1.397 . S
C628 H609 0.929 . S
C628 C625 1.404 . S
C628 N626 1.334 . S
C629 H621 0.930 1_554 S
C629 C624 1.418 . S
C629 C625 1.353 . S
C630 H600 0.930 . S
C630 N631 1.330 . S
C630 C632 1.446 . S
N631 Co590 2.151 . S
N631 C630 1.330 . S
N631 C635 1.418 . S
C632 H611 0.929 . S
C632 C630 1.446 . S
C632 C633 1.332 . S
C633 H613 0.931 . S
C633 C632 1.332 . S
C633 C634 1.267 . S
C634 H602 0.929 . S
C634 C633 1.267 . S
C634 C635 1.251 . S
C635 H605 0.929 . S
C635 N631 1.418 . S
C635 C634 1.251 . S
C636 H603 0.930 . S
C636 C638 1.406 . S
C636 C641 1.261 1_545 S
C637 H604 0.930 . S
C637 N639 1.325 . S
C637 C640 1.357 1_545 S
C638 H606 0.928 . S
C638 C636 1.406 . S
C638 N639 1.261 . S
N639 Co590 2.214 . S
N639 C637 1.325 . S
N639 C638 1.261 . S
C640 H610 0.931 . S
C640 C637 1.357 1_565 S
C640 C641 1.312 . S
C641 H612 0.930 . S
C641 C636 1.261 1_565 S
C641 C640 1.312 . S
C642 O614 1.214 . S
C642 O622 1.234 . S
C643 H615 0.929 . S
C643 C646 1.391 . S
C643 C648 1.391 . S
C644 H616 0.929 . S
C644 C645 1.390 . S
C644 N647 1.391 . S
C645 H617 0.930 . S
C645 C644 1.390 . S
C645 C646 1.392 . S
C646 H618 0.929 . S
C646 C643 1.391 . S
C646 C645 1.392 . S
N647 Co591 2.257 . S
N647 C644 1.391 . S
N647 C648 1.388 . S
C648 H619 0.930 . S
C648 C643 1.391 . S
C648 N647 1.388 . S
Co649 O651 2.143 . S
Co649 O657 2.074 . S
Co649 O660 2.093 . S
Co649 O673 2.097 . S
Co649 N690 2.151 . S
Co649 N698 2.214 . S
Co650 O651 2.160 . S
Co650 O656 2.058 . S
Co650 O666 2.057 . S
Co650 O681 2.037 . S
Co650 N685 2.145 . S
Co650 N706 2.257 . S
O651 Co649 2.143 . S
O651 Co650 2.160 . S
C652 O653 1.278 . S
C652 O660 1.224 . S
O653 C652 1.278 . S
C654 O655 1.245 . S
C654 O666 1.232 . S
O655 C654 1.245 . S
O656 Co650 2.058 . S
O656 C682 1.269 . S
O657 Co649 2.074 . S
O657 C682 1.257 . S
H658 C683 0.930 . S
H659 C689 0.930 . S
O660 Co649 2.093 . S
O660 C652 1.224 . S
H661 C693 0.929 . S
H662 C695 0.930 . S
H663 C696 0.930 . S
H664 C694 0.929 . S
H665 C697 0.928 . S
O666 Co650 2.057 . S
O666 C654 1.232 . S
H667 C686 0.929 . S
H668 C687 0.929 . S
H669 C699 0.931 . S
H670 C691 0.929 . S
H671 C700 0.930 . S
H672 C692 0.931 . S
O673 Co649 2.097 . S
O673 C701 1.214 . S
H674 C702 0.929 . S
H675 C703 0.929 . S
H676 C704 0.930 . S
H677 C705 0.929 . S
H678 C707 0.930 . S
H679 C684 0.930 . S
H680 C688 0.930 1_556 S
O681 Co650 2.037 . S
O681 C701 1.234 . S
C682 O656 1.269 . S
C682 O657 1.257 . S
C683 H658 0.930 . S
C683 C686 1.388 . S
C683 C688 1.418 . S
C684 H679 0.930 . S
C684 C687 1.404 . S
C684 C688 1.353 . S
N685 Co650 2.145 . S
N685 C686 1.397 . S
N685 C687 1.334 . S
C686 H667 0.929 . S
C686 C683 1.388 . S
C686 N685 1.397 . S
C687 H668 0.929 . S
C687 C684 1.404 . S
C687 N685 1.334 . S
C688 H680 0.930 1_554 S
C688 C683 1.418 . S
C688 C684 1.353 . S
C689 H659 0.930 . S
C689 N690 1.330 . S
C689 C691 1.446 . S
N690 Co649 2.151 . S
N690 C689 1.330 . S
N690 C694 1.418 . S
C691 H670 0.929 . S
C691 C689 1.446 . S
C691 C692 1.332 . S
C692 H672 0.931 . S
C692 C691 1.332 . S
C692 C693 1.267 . S
C693 H661 0.929 . S
C693 C692 1.267 . S
C693 C694 1.251 . S
C694 H664 0.929 . S
C694 N690 1.418 . S
C694 C693 1.251 . S
C695 H662 0.930 . S
C695 C697 1.406 . S
C695 C700 1.261 . S
C696 H663 0.930 . S
C696 N698 1.325 . S
C696 C699 1.357 . S
C697 H665 0.928 . S
C697 C695 1.406 . S
C697 N698 1.261 . S
N698 Co649 2.214 . S
N698 C696 1.325 . S
N698 C697 1.261 . S
C699 H669 0.931 . S
C699 C696 1.357 . S
C699 C700 1.312 . S
C700 H671 0.930 . S
C700 C695 1.261 . S
C700 C699 1.312 . S
C701 O673 1.214 . S
C701 O681 1.234 . S
C702 H674 0.929 . S
C702 C705 1.391 . S
C702 C707 1.391 . S
C703 H675 0.929 . S
C703 C704 1.390 . S
C703 N706 1.391 . S
C704 H676 0.930 . S
C704 C703 1.390 . S
C704 C705 1.392 . S
C705 H677 0.929 . S
C705 C702 1.391 . S
C705 C704 1.392 . S
N706 Co650 2.257 . S
N706 C703 1.391 . S
N706 C707 1.388 . S
C707 H678 0.930 . S
C707 C702 1.391 . S
C707 N706 1.388 . S
Co708 O710 2.143 . S
Co708 O716 2.074 . S
Co708 O719 2.093 . S
Co708 O732 2.097 . S
Co708 N749 2.151 . S
Co708 N757 2.214 . S
Co709 O710 2.160 . S
Co709 O715 2.058 . S
Co709 O725 2.057 . S
Co709 O740 2.037 . S
Co709 N744 2.145 . S
Co709 N765 2.257 . S
O710 Co708 2.143 . S
O710 Co709 2.160 . S
C711 O712 1.278 . S
C711 O719 1.224 . S
O712 C711 1.278 . S
C713 O714 1.245 . S
C713 O725 1.232 . S
O714 C713 1.245 . S
O715 Co709 2.058 . S
O715 C741 1.269 . S
O716 Co708 2.074 . S
O716 C741 1.257 . S
H717 C742 0.930 . S
H718 C748 0.930 . S
O719 Co708 2.093 . S
O719 C711 1.224 . S
H720 C752 0.929 . S
H721 C754 0.929 . S
H722 C755 0.930 . S
H723 C753 0.929 . S
H724 C756 0.928 . S
O725 Co709 2.057 . S
O725 C713 1.232 . S
H726 C745 0.929 . S
H727 C746 0.929 . S
H728 C758 0.931 . S
H729 C750 0.929 . S
H730 C759 0.930 . S
H731 C751 0.931 . S
O732 Co708 2.097 . S
O732 C760 1.214 . S
H733 C761 0.929 . S
H734 C762 0.929 . S
H735 C763 0.930 . S
H736 C764 0.929 . S
H737 C766 0.930 . S
H738 C743 0.930 . S
H739 C747 0.930 . S
O740 Co709 2.037 . S
O740 C760 1.234 . S
C741 O715 1.269 . S
C741 O716 1.257 . S
C742 H717 0.930 . S
C742 C745 1.388 . S
C742 C747 1.418 . S
C743 H738 0.930 . S
C743 C746 1.404 . S
C743 C747 1.353 . S
N744 Co709 2.145 . S
N744 C745 1.397 . S
N744 C746 1.334 . S
C745 H726 0.929 . S
C745 C742 1.388 . S
C745 N744 1.397 . S
C746 H727 0.929 . S
C746 C743 1.404 . S
C746 N744 1.334 . S
C747 H739 0.930 . S
C747 C742 1.418 . S
C747 C743 1.353 . S
C748 H718 0.930 . S
C748 N749 1.330 . S
C748 C750 1.446 . S
N749 Co708 2.151 . S
N749 C748 1.330 . S
N749 C753 1.418 . S
C750 H729 0.929 . S
C750 C748 1.446 . S
C750 C751 1.332 . S
C751 H731 0.931 . S
C751 C750 1.332 . S
C751 C752 1.267 . S
C752 H720 0.929 . S
C752 C751 1.267 . S
C752 C753 1.251 . S
C753 H723 0.929 . S
C753 N749 1.418 . S
C753 C752 1.251 . S
C754 H721 0.929 . S
C754 C756 1.406 . S
C754 C759 1.261 1_565 S
C755 H722 0.930 . S
C755 N757 1.325 . S
C755 C758 1.357 1_565 S
C756 H724 0.928 . S
C756 C754 1.406 . S
C756 N757 1.261 . S
N757 Co708 2.214 . S
N757 C755 1.325 . S
N757 C756 1.261 . S
C758 H728 0.931 . S
C758 C755 1.357 1_545 S
C758 C759 1.312 . S
C759 H730 0.930 . S
C759 C754 1.261 1_545 S
C759 C758 1.312 . S
C760 O732 1.214 . S
C760 O740 1.234 . S
C761 H733 0.929 . S
C761 C764 1.391 . S
C761 C766 1.391 . S
C762 H734 0.929 . S
C762 C763 1.390 . S
C762 N765 1.391 . S
C763 H735 0.930 . S
C763 C762 1.390 . S
C763 C764 1.392 . S
C764 H736 0.929 . S
C764 C761 1.391 . S
C764 C763 1.392 . S
N765 Co709 2.257 . S
N765 C762 1.391 . S
N765 C766 1.388 . S
C766 H737 0.930 . S
C766 C761 1.391 . S
C766 N765 1.388 . S
Co767 O769 2.143 . S
Co767 O775 2.074 . S
Co767 O778 2.093 . S
Co767 O791 2.097 . S
Co767 N808 2.151 . S
Co767 N816 2.214 . S
Co768 O769 2.160 . S
Co768 O774 2.058 . S
Co768 O784 2.057 . S
Co768 O799 2.037 . S
Co768 N803 2.145 . S
Co768 N824 2.257 . S
O769 Co767 2.143 . S
O769 Co768 2.160 . S
C770 O771 1.278 . S
C770 O778 1.224 . S
O771 C770 1.278 . S
C772 O773 1.245 . S
C772 O784 1.232 . S
O773 C772 1.245 . S
O774 Co768 2.058 . S
O774 C800 1.269 . S
O775 Co767 2.074 . S
O775 C800 1.257 . S
H776 C801 0.930 . S
H777 C807 0.930 . S
O778 Co767 2.093 . S
O778 C770 1.224 . S
H779 C811 0.929 . S
H780 C813 0.929 . S
H781 C814 0.930 . S
H782 C812 0.929 . S
H783 C815 0.928 . S
O784 Co768 2.057 . S
O784 C772 1.232 . S
H785 C804 0.929 . S
H786 C805 0.929 . S
H787 C817 0.931 . S
H788 C809 0.929 . S
H789 C818 0.930 . S
H790 C810 0.931 . S
O791 Co767 2.097 . S
O791 C819 1.214 . S
H792 C820 0.929 . S
H793 C821 0.929 . S
H794 C822 0.930 . S
H795 C823 0.929 . S
H796 C825 0.930 . S
H797 C802 0.930 . S
H798 C806 0.930 . S
O799 Co768 2.037 . S
O799 C819 1.234 . S
C800 O774 1.269 . S
C800 O775 1.257 . S
C801 H776 0.930 . S
C801 C804 1.388 . S
C801 C806 1.418 . S
C802 H797 0.930 . S
C802 C805 1.404 . S
C802 C806 1.353 . S
N803 Co768 2.145 . S
N803 C804 1.397 . S
N803 C805 1.334 . S
C804 H785 0.929 . S
C804 C801 1.388 . S
C804 N803 1.397 . S
C805 H786 0.929 . S
C805 C802 1.404 . S
C805 N803 1.334 . S
C806 H798 0.930 . S
C806 C801 1.418 . S
C806 C802 1.353 . S
C807 H777 0.930 . S
C807 N808 1.330 . S
C807 C809 1.446 . S
N808 Co767 2.151 . S
N808 C807 1.330 . S
N808 C812 1.418 . S
C809 H788 0.929 . S
C809 C807 1.446 . S
C809 C810 1.332 . S
C810 H790 0.931 . S
C810 C809 1.332 . S
C810 C811 1.267 . S
C811 H779 0.929 . S
C811 C810 1.267 . S
C811 C812 1.251 . S
C812 H782 0.929 . S
C812 N808 1.418 . S
C812 C811 1.251 . S
C813 H780 0.929 . S
C813 C815 1.406 . S
C813 C818 1.261 . S
C814 H781 0.930 . S
C814 N816 1.325 . S
C814 C817 1.357 . S
C815 H783 0.928 . S
C815 C813 1.406 . S
C815 N816 1.261 . S
N816 Co767 2.214 . S
N816 C814 1.325 . S
N816 C815 1.261 . S
C817 H787 0.931 . S
C817 C814 1.357 . S
C817 C818 1.312 . S
C818 H789 0.930 . S
C818 C813 1.261 . S
C818 C817 1.312 . S
C819 O791 1.214 . S
C819 O799 1.234 . S
C820 H792 0.929 . S
C820 C823 1.391 . S
C820 C825 1.391 . S
C821 H793 0.929 . S
C821 C822 1.390 . S
C821 N824 1.391 . S
C822 H794 0.930 . S
C822 C821 1.390 . S
C822 C823 1.392 . S
C823 H795 0.929 . S
C823 C820 1.391 . S
C823 C822 1.392 . S
N824 Co768 2.257 . S
N824 C821 1.391 . S
N824 C825 1.388 . S
C825 H796 0.930 . S
C825 C820 1.391 . S
C825 N824 1.388 . S
Co826 O828 2.143 . S
Co826 O834 2.074 . S
Co826 O837 2.093 . S
Co826 O850 2.097 . S
Co826 N867 2.151 . S
Co826 N875 2.214 . S
Co827 O828 2.160 . S
Co827 O833 2.058 . S
Co827 O843 2.057 . S
Co827 O858 2.037 . S
Co827 N862 2.145 . S
Co827 N883 2.257 . S
O828 Co826 2.143 . S
O828 Co827 2.160 . S
C829 O830 1.278 . S
C829 O837 1.224 . S
O830 C829 1.278 . S
C831 O832 1.245 . S
C831 O843 1.232 . S
O832 C831 1.245 . S
O833 Co827 2.058 . S
O833 C859 1.269 . S
O834 Co826 2.074 . S
O834 C859 1.257 . S
H835 C860 0.930 . S
H836 C866 0.930 . S
O837 Co826 2.093 . S
O837 C829 1.224 . S
H838 C870 0.929 . S
H839 C872 0.929 . S
H840 C873 0.930 . S
H841 C871 0.929 . S
H842 C874 0.928 . S
O843 Co827 2.057 . S
O843 C831 1.232 . S
H844 C863 0.929 . S
H845 C864 0.929 . S
H846 C876 0.931 . S
H847 C868 0.929 . S
H848 C877 0.930 . S
H849 C869 0.931 . S
O850 Co826 2.097 . S
O850 C878 1.214 . S
H851 C879 0.929 . S
H852 C880 0.929 . S
H853 C881 0.930 . S
H854 C882 0.929 . S
H855 C884 0.930 . S
H856 C861 0.930 . S
H857 C865 0.930 . S
O858 Co827 2.037 . S
O858 C878 1.234 . S
C859 O833 1.269 . S
C859 O834 1.257 . S
C860 H835 0.930 . S
C860 C863 1.388 . S
C860 C865 1.418 . S
C861 H856 0.930 . S
C861 C864 1.404 . S
C861 C865 1.353 . S
N862 Co827 2.145 . S
N862 C863 1.397 . S
N862 C864 1.334 . S
C863 H844 0.929 . S
C863 C860 1.388 . S
C863 N862 1.397 . S
C864 H845 0.929 . S
C864 C861 1.404 . S
C864 N862 1.334 . S
C865 H857 0.930 . S
C865 C860 1.418 . S
C865 C861 1.353 . S
C866 H836 0.930 . S
C866 N867 1.330 . S
C866 C868 1.446 . S
N867 Co826 2.151 . S
N867 C866 1.330 . S
N867 C871 1.418 . S
C868 H847 0.929 . S
C868 C866 1.446 . S
C868 C869 1.332 . S
C869 H849 0.931 . S
C869 C868 1.332 . S
C869 C870 1.267 . S
C870 H838 0.929 . S
C870 C869 1.267 . S
C870 C871 1.251 . S
C871 H841 0.929 . S
C871 N867 1.418 . S
C871 C870 1.251 . S
C872 H839 0.929 . S
C872 C874 1.406 . S
C872 C877 1.261 1_455 S
C873 H840 0.930 . S
C873 N875 1.325 . S
C873 C876 1.357 1_455 S
C874 H842 0.928 . S
C874 C872 1.406 . S
C874 N875 1.261 . S
N875 Co826 2.214 . S
N875 C873 1.325 . S
N875 C874 1.261 . S
C876 H846 0.931 . S
C876 C873 1.357 1_655 S
C876 C877 1.312 . S
C877 H848 0.930 . S
C877 C872 1.261 1_655 S
C877 C876 1.312 . S
C878 O850 1.214 . S
C878 O858 1.234 . S
C879 H851 0.929 . S
C879 C882 1.391 . S
C879 C884 1.391 . S
C880 H852 0.929 . S
C880 C881 1.390 . S
C880 N883 1.391 . S
C881 H853 0.930 . S
C881 C880 1.390 . S
C881 C882 1.392 . S
C882 H854 0.929 . S
C882 C879 1.391 . S
C882 C881 1.392 . S
N883 Co827 2.257 . S
N883 C880 1.391 . S
N883 C884 1.388 . S
C884 H855 0.930 . S
C884 C879 1.391 . S
C884 N883 1.388 . S
Co885 O887 2.143 . S
Co885 O893 2.074 . S
Co885 O896 2.093 . S
Co885 O909 2.097 . S
Co885 N926 2.151 . S
Co885 N934 2.214 . S
Co886 O887 2.160 . S
Co886 O892 2.058 . S
Co886 O902 2.057 . S
Co886 O917 2.037 . S
Co886 N921 2.145 . S
Co886 N942 2.257 . S
O887 Co885 2.143 . S
O887 Co886 2.160 . S
C888 O889 1.278 . S
C888 O896 1.224 . S
O889 C888 1.278 . S
C890 O891 1.245 . S
C890 O902 1.232 . S
O891 C890 1.245 . S
O892 Co886 2.058 . S
O892 C918 1.269 . S
O893 Co885 2.074 . S
O893 C918 1.257 . S
H894 C919 0.930 . S
H895 C925 0.930 . S
O896 Co885 2.093 . S
O896 C888 1.224 . S
H897 C929 0.929 . S
H898 C931 0.929 . S
H899 C932 0.930 . S
H900 C930 0.929 . S
H901 C933 0.928 . S
O902 Co886 2.057 . S
O902 C890 1.232 . S
H903 C922 0.929 . S
H904 C923 0.929 . S
H905 C935 0.931 . S
H906 C927 0.929 . S
H907 C936 0.930 . S
H908 C928 0.931 . S
O909 Co885 2.097 . S
O909 C937 1.214 . S
H910 C938 0.929 . S
H911 C939 0.929 . S
H912 C940 0.930 . S
H913 C941 0.929 . S
H914 C943 0.930 . S
H915 C920 0.930 . S
H916 C924 0.930 . S
O917 Co886 2.037 . S
O917 C937 1.234 . S
C918 O892 1.269 . S
C918 O893 1.257 . S
C919 H894 0.930 . S
C919 C922 1.388 . S
C919 C924 1.418 . S
C920 H915 0.930 . S
C920 C923 1.404 . S
C920 C924 1.353 . S
N921 Co886 2.145 . S
N921 C922 1.397 . S
N921 C923 1.334 . S
C922 H903 0.929 . S
C922 C919 1.388 . S
C922 N921 1.397 . S
C923 H904 0.929 . S
C923 C920 1.404 . S
C923 N921 1.334 . S
C924 H916 0.930 . S
C924 C919 1.418 . S
C924 C920 1.353 . S
C925 H895 0.930 . S
C925 N926 1.330 . S
C925 C927 1.446 . S
N926 Co885 2.151 . S
N926 C925 1.330 . S
N926 C930 1.418 . S
C927 H906 0.929 . S
C927 C925 1.446 . S
C927 C928 1.332 . S
C928 H908 0.931 . S
C928 C927 1.332 . S
C928 C929 1.267 . S
C929 H897 0.929 . S
C929 C928 1.267 . S
C929 C930 1.251 . S
C930 H900 0.929 . S
C930 N926 1.418 . S
C930 C929 1.251 . S
C931 H898 0.929 . S
C931 C933 1.406 . S
C931 C936 1.261 1_545 S
C932 H899 0.930 . S
C932 N934 1.325 . S
C932 C935 1.357 1_545 S
C933 H901 0.928 . S
C933 C931 1.406 . S
C933 N934 1.261 . S
N934 Co885 2.214 . S
N934 C932 1.325 . S
N934 C933 1.261 . S
C935 H905 0.931 . S
C935 C932 1.357 1_565 S
C935 C936 1.312 . S
C936 H907 0.930 . S
C936 C931 1.261 1_565 S
C936 C935 1.312 . S
C937 O909 1.214 . S
C937 O917 1.234 . S
C938 H910 0.929 . S
C938 C941 1.391 . S
C938 C943 1.391 . S
C939 H911 0.929 . S
C939 C940 1.390 . S
C939 N942 1.391 . S
C940 H912 0.930 . S
C940 C939 1.390 . S
C940 C941 1.392 . S
C941 H913 0.929 . S
C941 C938 1.391 . S
C941 C940 1.392 . S
N942 Co886 2.257 . S
N942 C939 1.391 . S
N942 C943 1.388 . S
C943 H914 0.930 . S
C943 C938 1.391 . S
C943 N942 1.388 . S
Co944 O946 2.143 . S
Co944 O952 2.074 . S
Co944 O955 2.093 . S
Co944 O968 2.097 . S
Co944 N985 2.151 . S
Co944 N993 2.214 . S
Co945 O946 2.160 . S
Co945 O951 2.058 . S
Co945 O961 2.057 . S
Co945 O976 2.037 . S
Co945 N980 2.145 . S
Co945 N1001 2.257 . S
O946 Co944 2.143 . S
O946 Co945 2.160 . S
C947 O948 1.278 . S
C947 O955 1.224 . S
O948 C947 1.278 . S
C949 O950 1.245 . S
C949 O961 1.232 . S
O950 C949 1.245 . S
O951 Co945 2.058 . S
O951 C977 1.269 . S
O952 Co944 2.074 . S
O952 C977 1.257 . S
H953 C978 0.930 . S
H954 C984 0.930 . S
O955 Co944 2.093 . S
O955 C947 1.224 . S
H956 C988 0.929 . S
H957 C990 0.929 . S
H958 C991 0.930 . S
H959 C989 0.929 . S
H960 C992 0.928 . S
O961 Co945 2.057 . S
O961 C949 1.232 . S
H962 C981 0.929 . S
H963 C982 0.929 . S
H964 C994 0.931 . S
H965 C986 0.929 . S
H966 C995 0.930 . S
H967 C987 0.931 . S
O968 Co944 2.097 . S
O968 C996 1.214 . S
H969 C997 0.929 . S
H970 C998 0.929 . S
H971 C999 0.930 . S
H972 C1000 0.929 . S
H973 C1002 0.930 . S
H974 C979 0.930 . S
H975 C983 0.930 . S
O976 Co945 2.037 . S
O976 C996 1.234 . S
C977 O951 1.269 . S
C977 O952 1.257 . S
C978 H953 0.930 . S
C978 C981 1.388 . S
C978 C983 1.418 . S
C979 H974 0.930 . S
C979 C982 1.404 . S
C979 C983 1.353 . S
N980 Co945 2.145 . S
N980 C981 1.397 . S
N980 C982 1.334 . S
C981 H962 0.929 . S
C981 C978 1.388 . S
C981 N980 1.397 . S
C982 H963 0.929 . S
C982 C979 1.404 . S
C982 N980 1.334 . S
C983 H975 0.930 . S
C983 C978 1.418 . S
C983 C979 1.353 . S
C984 H954 0.930 . S
C984 N985 1.330 . S
C984 C986 1.446 . S
N985 Co944 2.151 . S
N985 C984 1.330 . S
N985 C989 1.418 . S
C986 H965 0.929 . S
C986 C984 1.446 . S
C986 C987 1.332 . S
C987 H967 0.931 . S
C987 C986 1.332 . S
C987 C988 1.267 . S
C988 H956 0.929 . S
C988 C987 1.267 . S
C988 C989 1.251 . S
C989 H959 0.929 . S
C989 N985 1.418 . S
C989 C988 1.251 . S
C990 H957 0.929 . S
C990 C992 1.406 . S
C990 C995 1.261 . S
C991 H958 0.930 . S
C991 N993 1.325 . S
C991 C994 1.357 . S
C992 H960 0.928 . S
C992 C990 1.406 . S
C992 N993 1.261 . S
N993 Co944 2.214 . S
N993 C991 1.325 . S
N993 C992 1.261 . S
C994 H964 0.931 . S
C994 C991 1.357 . S
C994 C995 1.312 . S
C995 H966 0.930 . S
C995 C990 1.261 . S
C995 C994 1.312 . S
C996 O968 1.214 . S
C996 O976 1.234 . S
C997 H969 0.929 . S
C997 C1000 1.391 . S
C997 C1002 1.391 . S
C998 H970 0.929 . S
C998 C999 1.390 . S
C998 N1001 1.391 . S
C999 H971 0.930 . S
C999 C998 1.390 . S
C999 C1000 1.392 . S
C1000 H972 0.929 . S
C1000 C997 1.391 . S
C1000 C999 1.392 . S
N1001 Co945 2.257 . S
N1001 C998 1.391 . S
N1001 C1002 1.388 . S
C1002 H973 0.930 . S
C1002 C997 1.391 . S
C1002 N1001 1.388 . S
Co1003 O1005 2.143 . S
Co1003 O1011 2.074 . S
Co1003 O1014 2.093 . S
Co1003 O1027 2.097 . S
Co1003 N1044 2.151 . S
Co1003 N1052 2.214 . S
Co1004 O1005 2.160 . S
Co1004 O1010 2.058 . S
Co1004 O1020 2.057 . S
Co1004 O1035 2.037 . S
Co1004 N1039 2.145 . S
Co1004 N1060 2.257 . S
O1005 Co1003 2.143 . S
O1005 Co1004 2.160 . S
C1006 O1007 1.278 . S
C1006 O1014 1.224 . S
O1007 C1006 1.278 . S
C1008 O1009 1.245 . S
C1008 O1020 1.232 . S
O1009 C1008 1.245 . S
O1010 Co1004 2.058 . S
O1010 C1036 1.269 . S
O1011 Co1003 2.074 . S
O1011 C1036 1.257 . S
H1012 C1037 0.930 . S
H1013 C1043 0.930 . S
O1014 Co1003 2.093 . S
O1014 C1006 1.224 . S
H1015 C1047 0.929 . S
H1016 C1049 0.929 . S
H1017 C1050 0.930 . S
H1018 C1048 0.929 . S
H1019 C1051 0.928 . S
O1020 Co1004 2.057 . S
O1020 C1008 1.232 . S
H1021 C1040 0.929 . S
H1022 C1041 0.929 . S
H1023 C1053 0.931 . S
H1024 C1045 0.929 . S
H1025 C1054 0.930 . S
H1026 C1046 0.931 . S
O1027 Co1003 2.097 . S
O1027 C1055 1.214 . S
H1028 C1056 0.929 . S
H1029 C1057 0.929 . S
H1030 C1058 0.930 . S
H1031 C1059 0.929 . S
H1032 C1061 0.930 . S
H1033 C1038 0.930 . S
H1034 C1042 0.930 . S
O1035 Co1004 2.037 . S
O1035 C1055 1.234 . S
C1036 O1010 1.269 . S
C1036 O1011 1.257 . S
C1037 H1012 0.930 . S
C1037 C1040 1.388 . S
C1037 C1042 1.418 . S
C1038 H1033 0.930 . S
C1038 C1041 1.404 . S
C1038 C1042 1.353 . S
N1039 Co1004 2.145 . S
N1039 C1040 1.397 . S
N1039 C1041 1.334 . S
C1040 H1021 0.929 . S
C1040 C1037 1.388 . S
C1040 N1039 1.397 . S
C1041 H1022 0.929 . S
C1041 C1038 1.404 . S
C1041 N1039 1.334 . S
C1042 H1034 0.930 . S
C1042 C1037 1.418 . S
C1042 C1038 1.353 . S
C1043 H1013 0.930 . S
C1043 N1044 1.330 . S
C1043 C1045 1.446 . S
N1044 Co1003 2.151 . S
N1044 C1043 1.330 . S
N1044 C1048 1.418 . S
C1045 H1024 0.929 . S
C1045 C1043 1.446 . S
C1045 C1046 1.332 . S
C1046 H1026 0.931 . S
C1046 C1045 1.332 . S
C1046 C1047 1.267 . S
C1047 H1015 0.929 . S
C1047 C1046 1.267 . S
C1047 C1048 1.251 . S
C1048 H1018 0.929 . S
C1048 N1044 1.418 . S
C1048 C1047 1.251 . S
C1049 H1016 0.929 . S
C1049 C1051 1.406 . S
C1049 C1054 1.261 1_655 S
C1050 H1017 0.930 . S
C1050 N1052 1.325 . S
C1050 C1053 1.357 1_655 S
C1051 H1019 0.928 . S
C1051 C1049 1.406 . S
C1051 N1052 1.261 . S
N1052 Co1003 2.214 . S
N1052 C1050 1.325 . S
N1052 C1051 1.261 . S
C1053 H1023 0.931 . S
C1053 C1050 1.357 1_455 S
C1053 C1054 1.312 . S
C1054 H1025 0.930 . S
C1054 C1049 1.261 1_455 S
C1054 C1053 1.312 . S
C1055 O1027 1.214 . S
C1055 O1035 1.234 . S
C1056 H1028 0.929 . S
C1056 C1059 1.391 . S
C1056 C1061 1.391 . S
C1057 H1029 0.929 . S
C1057 C1058 1.390 . S
C1057 N1060 1.391 . S
C1058 H1030 0.930 . S
C1058 C1057 1.390 . S
C1058 C1059 1.392 . S
C1059 H1031 0.929 . S
C1059 C1056 1.391 . S
C1059 C1058 1.392 . S
N1060 Co1004 2.257 . S
N1060 C1057 1.391 . S
N1060 C1061 1.388 . S
C1061 H1032 0.930 . S
C1061 C1056 1.391 . S
C1061 N1060 1.388 . S
Co1062 O1064 2.143 . S
Co1062 O1070 2.074 . S
Co1062 O1073 2.093 . S
Co1062 O1086 2.097 . S
Co1062 N1103 2.151 . S
Co1062 N1111 2.214 . S
Co1063 O1064 2.160 . S
Co1063 O1069 2.058 . S
Co1063 O1079 2.057 . S
Co1063 O1094 2.037 . S
Co1063 N1098 2.145 . S
Co1063 N1119 2.257 . S
O1064 Co1062 2.143 . S
O1064 Co1063 2.160 . S
C1065 O1066 1.278 . S
C1065 O1073 1.224 . S
O1066 C1065 1.278 . S
C1067 O1068 1.245 . S
C1067 O1079 1.232 . S
O1068 C1067 1.245 . S
O1069 Co1063 2.058 . S
O1069 C1095 1.269 . S
O1070 Co1062 2.074 . S
O1070 C1095 1.257 . S
H1071 C1096 0.930 . S
H1072 C1102 0.930 . S
O1073 Co1062 2.093 . S
O1073 C1065 1.224 . S
H1074 C1106 0.929 . S
H1075 C1108 0.930 . S
H1076 C1109 0.930 . S
H1077 C1107 0.929 . S
H1078 C1110 0.928 . S
O1079 Co1063 2.057 . S
O1079 C1067 1.232 . S
H1080 C1099 0.929 . S
H1081 C1100 0.929 . S
H1082 C1112 0.931 . S
H1083 C1104 0.929 . S
H1084 C1113 0.930 . S
H1085 C1105 0.931 . S
O1086 Co1062 2.097 . S
O1086 C1114 1.214 . S
H1087 C1115 0.929 . S
H1088 C1116 0.929 . S
H1089 C1117 0.930 . S
H1090 C1118 0.929 . S
H1091 C1120 0.930 . S
H1092 C1097 0.930 . S
H1093 C1101 0.930 1_554 S
O1094 Co1063 2.037 . S
O1094 C1114 1.234 . S
C1095 O1069 1.269 . S
C1095 O1070 1.257 . S
C1096 H1071 0.930 . S
C1096 C1099 1.388 . S
C1096 C1101 1.418 . S
C1097 H1092 0.930 . S
C1097 C1100 1.404 . S
C1097 C1101 1.353 . S
N1098 Co1063 2.145 . S
N1098 C1099 1.397 . S
N1098 C1100 1.334 . S
C1099 H1080 0.929 . S
C1099 C1096 1.388 . S
C1099 N1098 1.397 . S
C1100 H1081 0.929 . S
C1100 C1097 1.404 . S
C1100 N1098 1.334 . S
C1101 H1093 0.930 1_556 S
C1101 C1096 1.418 . S
C1101 C1097 1.353 . S
C1102 H1072 0.930 . S
C1102 N1103 1.330 . S
C1102 C1104 1.446 . S
N1103 Co1062 2.151 . S
N1103 C1102 1.330 . S
N1103 C1107 1.418 . S
C1104 H1083 0.929 . S
C1104 C1102 1.446 . S
C1104 C1105 1.332 . S
C1105 H1085 0.931 . S
C1105 C1104 1.332 . S
C1105 C1106 1.267 . S
C1106 H1074 0.929 . S
C1106 C1105 1.267 . S
C1106 C1107 1.251 . S
C1107 H1077 0.929 . S
C1107 N1103 1.418 . S
C1107 C1106 1.251 . S
C1108 H1075 0.930 . S
C1108 C1110 1.406 . S
C1108 C1113 1.261 1_455 S
C1109 H1076 0.930 . S
C1109 N1111 1.325 . S
C1109 C1112 1.357 1_455 S
C1110 H1078 0.928 . S
C1110 C1108 1.406 . S
C1110 N1111 1.261 . S
N1111 Co1062 2.214 . S
N1111 C1109 1.325 . S
N1111 C1110 1.261 . S
C1112 H1082 0.931 . S
C1112 C1109 1.357 1_655 S
C1112 C1113 1.312 . S
C1113 H1084 0.930 . S
C1113 C1108 1.261 1_655 S
C1113 C1112 1.312 . S
C1114 O1086 1.214 . S
C1114 O1094 1.234 . S
C1115 H1087 0.929 . S
C1115 C1118 1.391 . S
C1115 C1120 1.391 . S
C1116 H1088 0.929 . S
C1116 C1117 1.390 . S
C1116 N1119 1.391 . S
C1117 H1089 0.930 . S
C1117 C1116 1.390 . S
C1117 C1118 1.392 . S
C1118 H1090 0.929 . S
C1118 C1115 1.391 . S
C1118 C1117 1.392 . S
N1119 Co1063 2.257 . S
N1119 C1116 1.391 . S
N1119 C1120 1.388 . S
C1120 H1091 0.930 . S
C1120 C1115 1.391 . S
C1120 N1119 1.388 . S
Co1121 O1123 2.143 . S
Co1121 O1129 2.074 . S
Co1121 O1132 2.093 . S
Co1121 O1145 2.097 . S
Co1121 N1162 2.151 . S
Co1121 N1170 2.214 . S
Co1122 O1123 2.160 . S
Co1122 O1128 2.058 . S
Co1122 O1138 2.057 . S
Co1122 O1153 2.037 . S
Co1122 N1157 2.145 . S
Co1122 N1178 2.257 . S
O1123 Co1121 2.143 . S
O1123 Co1122 2.160 . S
C1124 O1125 1.278 . S
C1124 O1132 1.224 . S
O1125 C1124 1.278 . S
C1126 O1127 1.245 . S
C1126 O1138 1.232 . S
O1127 C1126 1.245 . S
O1128 Co1122 2.058 . S
O1128 C1154 1.269 . S
O1129 Co1121 2.074 . S
O1129 C1154 1.257 . S
H1130 C1155 0.930 . S
H1131 C1161 0.930 . S
O1132 Co1121 2.093 . S
O1132 C1124 1.224 . S
H1133 C1165 0.929 . S
H1134 C1167 0.930 . S
H1135 C1168 0.930 . S
H1136 C1166 0.929 . S
H1137 C1169 0.928 . S
O1138 Co1122 2.057 . S
O1138 C1126 1.232 . S
H1139 C1158 0.929 . S
H1140 C1159 0.929 . S
H1141 C1171 0.931 . S
H1142 C1163 0.929 . S
H1143 C1172 0.930 . S
H1144 C1164 0.931 . S
O1145 Co1121 2.097 . S
O1145 C1173 1.214 . S
H1146 C1174 0.929 . S
H1147 C1175 0.929 . S
H1148 C1176 0.930 . S
H1149 C1177 0.929 . S
H1150 C1179 0.930 . S
H1151 C1156 0.930 . S
H1152 C1160 0.930 1_554 S
O1153 Co1122 2.037 . S
O1153 C1173 1.234 . S
C1154 O1128 1.269 . S
C1154 O1129 1.257 . S
C1155 H1130 0.930 . S
C1155 C1158 1.388 . S
C1155 C1160 1.418 . S
C1156 H1151 0.930 . S
C1156 C1159 1.404 . S
C1156 C1160 1.353 . S
N1157 Co1122 2.145 . S
N1157 C1158 1.397 . S
N1157 C1159 1.334 . S
C1158 H1139 0.929 . S
C1158 C1155 1.388 . S
C1158 N1157 1.397 . S
C1159 H1140 0.929 . S
C1159 C1156 1.404 . S
C1159 N1157 1.334 . S
C1160 H1152 0.930 1_556 S
C1160 C1155 1.418 . S
C1160 C1156 1.353 . S
C1161 H1131 0.930 . S
C1161 N1162 1.330 . S
C1161 C1163 1.446 . S
N1162 Co1121 2.151 . S
N1162 C1161 1.330 . S
N1162 C1166 1.418 . S
C1163 H1142 0.929 . S
C1163 C1161 1.446 . S
C1163 C1164 1.332 . S
C1164 H1144 0.931 . S
C1164 C1163 1.332 . S
C1164 C1165 1.267 . S
C1165 H1133 0.929 . S
C1165 C1164 1.267 . S
C1165 C1166 1.251 . S
C1166 H1136 0.929 . S
C1166 N1162 1.418 . S
C1166 C1165 1.251 . S
C1167 H1134 0.930 . S
C1167 C1169 1.406 . S
C1167 C1172 1.261 1_545 S
C1168 H1135 0.930 . S
C1168 N1170 1.325 . S
C1168 C1171 1.357 1_545 S
C1169 H1137 0.928 . S
C1169 C1167 1.406 . S
C1169 N1170 1.261 . S
N1170 Co1121 2.214 . S
N1170 C1168 1.325 . S
N1170 C1169 1.261 . S
C1171 H1141 0.931 . S
C1171 C1168 1.357 1_565 S
C1171 C1172 1.312 . S
C1172 H1143 0.930 . S
C1172 C1167 1.261 1_565 S
C1172 C1171 1.312 . S
C1173 O1145 1.214 . S
C1173 O1153 1.234 . S
C1174 H1146 0.929 . S
C1174 C1177 1.391 . S
C1174 C1179 1.391 . S
C1175 H1147 0.929 . S
C1175 C1176 1.390 . S
C1175 N1178 1.391 . S
C1176 H1148 0.930 . S
C1176 C1175 1.390 . S
C1176 C1177 1.392 . S
C1177 H1149 0.929 . S
C1177 C1174 1.391 . S
C1177 C1176 1.392 . S
N1178 Co1122 2.257 . S
N1178 C1175 1.391 . S
N1178 C1179 1.388 . S
C1179 H1150 0.930 . S
C1179 C1174 1.391 . S
C1179 N1178 1.388 . S
Co1180 O1182 2.143 . S
Co1180 O1188 2.074 . S
Co1180 O1191 2.093 . S
Co1180 O1204 2.097 . S
Co1180 N1221 2.151 . S
Co1180 N1229 2.214 . S
Co1181 O1182 2.160 . S
Co1181 O1187 2.058 . S
Co1181 O1197 2.057 . S
Co1181 O1212 2.037 . S
Co1181 N1216 2.145 . S
Co1181 N1237 2.257 . S
O1182 Co1180 2.143 . S
O1182 Co1181 2.160 . S
C1183 O1184 1.278 . S
C1183 O1191 1.224 . S
O1184 C1183 1.278 . S
C1185 O1186 1.245 . S
C1185 O1197 1.232 . S
O1186 C1185 1.245 . S
O1187 Co1181 2.058 . S
O1187 C1213 1.269 . S
O1188 Co1180 2.074 . S
O1188 C1213 1.257 . S
H1189 C1214 0.930 . S
H1190 C1220 0.930 . S
O1191 Co1180 2.093 . S
O1191 C1183 1.224 . S
H1192 C1224 0.929 . S
H1193 C1226 0.930 . S
H1194 C1227 0.930 . S
H1195 C1225 0.929 . S
H1196 C1228 0.928 . S
O1197 Co1181 2.057 . S
O1197 C1185 1.232 . S
H1198 C1217 0.929 . S
H1199 C1218 0.929 . S
H1200 C1230 0.931 . S
H1201 C1222 0.929 . S
H1202 C1231 0.930 . S
H1203 C1223 0.931 . S
O1204 Co1180 2.097 . S
O1204 C1232 1.214 . S
H1205 C1233 0.929 . S
H1206 C1234 0.929 . S
H1207 C1235 0.930 . S
H1208 C1236 0.929 . S
H1209 C1238 0.930 . S
H1210 C1215 0.930 . S
H1211 C1219 0.930 1_554 S
O1212 Co1181 2.037 . S
O1212 C1232 1.234 . S
C1213 O1187 1.269 . S
C1213 O1188 1.257 . S
C1214 H1189 0.930 . S
C1214 C1217 1.388 . S
C1214 C1219 1.418 . S
C1215 H1210 0.930 . S
C1215 C1218 1.404 . S
C1215 C1219 1.353 . S
N1216 Co1181 2.145 . S
N1216 C1217 1.397 . S
N1216 C1218 1.334 . S
C1217 H1198 0.929 . S
C1217 C1214 1.388 . S
C1217 N1216 1.397 . S
C1218 H1199 0.929 . S
C1218 C1215 1.404 . S
C1218 N1216 1.334 . S
C1219 H1211 0.930 1_556 S
C1219 C1214 1.418 . S
C1219 C1215 1.353 . S
C1220 H1190 0.930 . S
C1220 N1221 1.330 . S
C1220 C1222 1.446 . S
N1221 Co1180 2.151 . S
N1221 C1220 1.330 . S
N1221 C1225 1.418 . S
C1222 H1201 0.929 . S
C1222 C1220 1.446 . S
C1222 C1223 1.332 . S
C1223 H1203 0.931 . S
C1223 C1222 1.332 . S
C1223 C1224 1.267 . S
C1224 H1192 0.929 . S
C1224 C1223 1.267 . S
C1224 C1225 1.251 . S
C1225 H1195 0.929 . S
C1225 N1221 1.418 . S
C1225 C1224 1.251 . S
C1226 H1193 0.930 . S
C1226 C1228 1.406 . S
C1226 C1231 1.261 . S
C1227 H1194 0.930 . S
C1227 N1229 1.325 . S
C1227 C1230 1.357 . S
C1228 H1196 0.928 . S
C1228 C1226 1.406 . S
C1228 N1229 1.261 . S
N1229 Co1180 2.214 . S
N1229 C1227 1.325 . S
N1229 C1228 1.261 . S
C1230 H1200 0.931 . S
C1230 C1227 1.357 . S
C1230 C1231 1.312 . S
C1231 H1202 0.930 . S
C1231 C1226 1.261 . S
C1231 C1230 1.312 . S
C1232 O1204 1.214 . S
C1232 O1212 1.234 . S
C1233 H1205 0.929 . S
C1233 C1236 1.391 . S
C1233 C1238 1.391 . S
C1234 H1206 0.929 . S
C1234 C1235 1.390 . S
C1234 N1237 1.391 . S
C1235 H1207 0.930 . S
C1235 C1234 1.390 . S
C1235 C1236 1.392 . S
C1236 H1208 0.929 . S
C1236 C1233 1.391 . S
C1236 C1235 1.392 . S
N1237 Co1181 2.257 . S
N1237 C1234 1.391 . S
N1237 C1238 1.388 . S
C1238 H1209 0.930 . S
C1238 C1233 1.391 . S
C1238 N1237 1.388 . S
Co1239 O1241 2.143 . S
Co1239 O1247 2.074 . S
Co1239 O1250 2.093 . S
Co1239 O1263 2.097 . S
Co1239 N1280 2.151 . S
Co1239 N1288 2.214 . S
Co1240 O1241 2.160 . S
Co1240 O1246 2.058 . S
Co1240 O1256 2.057 . S
Co1240 O1271 2.037 . S
Co1240 N1275 2.145 . S
Co1240 N1296 2.257 . S
O1241 Co1239 2.143 . S
O1241 Co1240 2.160 . S
C1242 O1243 1.278 . S
C1242 O1250 1.224 . S
O1243 C1242 1.278 . S
C1244 O1245 1.245 . S
C1244 O1256 1.232 . S
O1245 C1244 1.245 . S
O1246 Co1240 2.058 . S
O1246 C1272 1.269 . S
O1247 Co1239 2.074 . S
O1247 C1272 1.257 . S
H1248 C1273 0.930 . S
H1249 C1279 0.930 . S
O1250 Co1239 2.093 . S
O1250 C1242 1.224 . S
H1251 C1283 0.929 . S
H1252 C1285 0.930 . S
H1253 C1286 0.930 . S
H1254 C1284 0.929 . S
H1255 C1287 0.928 . S
O1256 Co1240 2.057 . S
O1256 C1244 1.232 . S
H1257 C1276 0.929 . S
H1258 C1277 0.929 . S
H1259 C1289 0.931 . S
H1260 C1281 0.929 . S
H1261 C1290 0.930 . S
H1262 C1282 0.931 . S
O1263 Co1239 2.097 . S
O1263 C1291 1.214 . S
H1264 C1292 0.929 . S
H1265 C1293 0.929 . S
H1266 C1294 0.930 . S
H1267 C1295 0.929 . S
H1268 C1297 0.930 . S
H1269 C1274 0.930 . S
H1270 C1278 0.930 1_554 S
O1271 Co1240 2.037 . S
O1271 C1291 1.234 . S
C1272 O1246 1.269 . S
C1272 O1247 1.257 . S
C1273 H1248 0.930 . S
C1273 C1276 1.388 . S
C1273 C1278 1.418 . S
C1274 H1269 0.930 . S
C1274 C1277 1.404 . S
C1274 C1278 1.353 . S
N1275 Co1240 2.145 . S
N1275 C1276 1.397 . S
N1275 C1277 1.334 . S
C1276 H1257 0.929 . S
C1276 C1273 1.388 . S
C1276 N1275 1.397 . S
C1277 H1258 0.929 . S
C1277 C1274 1.404 . S
C1277 N1275 1.334 . S
C1278 H1270 0.930 1_556 S
C1278 C1273 1.418 . S
C1278 C1274 1.353 . S
C1279 H1249 0.930 . S
C1279 N1280 1.330 . S
C1279 C1281 1.446 . S
N1280 Co1239 2.151 . S
N1280 C1279 1.330 . S
N1280 C1284 1.418 . S
C1281 H1260 0.929 . S
C1281 C1279 1.446 . S
C1281 C1282 1.332 . S
C1282 H1262 0.931 . S
C1282 C1281 1.332 . S
C1282 C1283 1.267 . S
C1283 H1251 0.929 . S
C1283 C1282 1.267 . S
C1283 C1284 1.251 . S
C1284 H1254 0.929 . S
C1284 N1280 1.418 . S
C1284 C1283 1.251 . S
C1285 H1252 0.930 . S
C1285 C1287 1.406 . S
C1285 C1290 1.261 1_655 S
C1286 H1253 0.930 . S
C1286 N1288 1.325 . S
C1286 C1289 1.357 1_655 S
C1287 H1255 0.928 . S
C1287 C1285 1.406 . S
C1287 N1288 1.261 . S
N1288 Co1239 2.214 . S
N1288 C1286 1.325 . S
N1288 C1287 1.261 . S
C1289 H1259 0.931 . S
C1289 C1286 1.357 1_455 S
C1289 C1290 1.312 . S
C1290 H1261 0.930 . S
C1290 C1285 1.261 1_455 S
C1290 C1289 1.312 . S
C1291 O1263 1.214 . S
C1291 O1271 1.234 . S
C1292 H1264 0.929 . S
C1292 C1295 1.391 . S
C1292 C1297 1.391 . S
C1293 H1265 0.929 . S
C1293 C1294 1.390 . S
C1293 N1296 1.391 . S
C1294 H1266 0.930 . S
C1294 C1293 1.390 . S
C1294 C1295 1.392 . S
C1295 H1267 0.929 . S
C1295 C1292 1.391 . S
C1295 C1294 1.392 . S
N1296 Co1240 2.257 . S
N1296 C1293 1.391 . S
N1296 C1297 1.388 . S
C1297 H1268 0.930 . S
C1297 C1292 1.391 . S
C1297 N1296 1.388 . S
Co1298 O1300 2.143 . S
Co1298 O1306 2.074 . S
Co1298 O1309 2.093 . S
Co1298 O1322 2.097 . S
Co1298 N1339 2.151 . S
Co1298 N1347 2.214 . S
Co1299 O1300 2.160 . S
Co1299 O1305 2.058 . S
Co1299 O1315 2.057 . S
Co1299 O1330 2.037 . S
Co1299 N1334 2.145 . S
Co1299 N1355 2.257 . S
O1300 Co1298 2.143 . S
O1300 Co1299 2.160 . S
C1301 O1302 1.278 . S
C1301 O1309 1.224 . S
O1302 C1301 1.278 . S
C1303 O1304 1.245 . S
C1303 O1315 1.232 . S
O1304 C1303 1.245 . S
O1305 Co1299 2.058 . S
O1305 C1331 1.269 . S
O1306 Co1298 2.074 . S
O1306 C1331 1.257 . S
H1307 C1332 0.930 . S
H1308 C1338 0.930 . S
O1309 Co1298 2.093 . S
O1309 C1301 1.224 . S
H1310 C1342 0.929 . S
H1311 C1344 0.930 . S
H1312 C1345 0.930 . S
H1313 C1343 0.929 . S
H1314 C1346 0.928 . S
O1315 Co1299 2.057 . S
O1315 C1303 1.232 . S
H1316 C1335 0.929 . S
H1317 C1336 0.929 . S
H1318 C1348 0.931 . S
H1319 C1340 0.929 . S
H1320 C1349 0.930 . S
H1321 C1341 0.931 . S
O1322 Co1298 2.097 . S
O1322 C1350 1.214 . S
H1323 C1351 0.929 . S
H1324 C1352 0.929 . S
H1325 C1353 0.930 . S
H1326 C1354 0.929 . S
H1327 C1356 0.930 . S
H1328 C1333 0.930 . S
H1329 C1337 0.930 1_554 S
O1330 Co1299 2.037 . S
O1330 C1350 1.234 . S
C1331 O1305 1.269 . S
C1331 O1306 1.257 . S
C1332 H1307 0.930 . S
C1332 C1335 1.388 . S
C1332 C1337 1.418 . S
C1333 H1328 0.930 . S
C1333 C1336 1.404 . S
C1333 C1337 1.353 . S
N1334 Co1299 2.145 . S
N1334 C1335 1.397 . S
N1334 C1336 1.334 . S
C1335 H1316 0.929 . S
C1335 C1332 1.388 . S
C1335 N1334 1.397 . S
C1336 H1317 0.929 . S
C1336 C1333 1.404 . S
C1336 N1334 1.334 . S
C1337 H1329 0.930 1_556 S
C1337 C1332 1.418 . S
C1337 C1333 1.353 . S
C1338 H1308 0.930 . S
C1338 N1339 1.330 . S
C1338 C1340 1.446 . S
N1339 Co1298 2.151 . S
N1339 C1338 1.330 . S
N1339 C1343 1.418 . S
C1340 H1319 0.929 . S
C1340 C1338 1.446 . S
C1340 C1341 1.332 . S
C1341 H1321 0.931 . S
C1341 C1340 1.332 . S
C1341 C1342 1.267 . S
C1342 H1310 0.929 . S
C1342 C1341 1.267 . S
C1342 C1343 1.251 . S
C1343 H1313 0.929 . S
C1343 N1339 1.418 . S
C1343 C1342 1.251 . S
C1344 H1311 0.930 . S
C1344 C1346 1.406 . S
C1344 C1349 1.261 1_565 S
C1345 H1312 0.930 . S
C1345 N1347 1.325 . S
C1345 C1348 1.357 1_565 S
C1346 H1314 0.928 . S
C1346 C1344 1.406 . S
C1346 N1347 1.261 . S
N1347 Co1298 2.214 . S
N1347 C1345 1.325 . S
N1347 C1346 1.261 . S
C1348 H1318 0.931 . S
C1348 C1345 1.357 1_545 S
C1348 C1349 1.312 . S
C1349 H1320 0.930 . S
C1349 C1344 1.261 1_545 S
C1349 C1348 1.312 . S
C1350 O1322 1.214 . S
C1350 O1330 1.234 . S
C1351 H1323 0.929 . S
C1351 C1354 1.391 . S
C1351 C1356 1.391 . S
C1352 H1324 0.929 . S
C1352 C1353 1.390 . S
C1352 N1355 1.391 . S
C1353 H1325 0.930 . S
C1353 C1352 1.390 . S
C1353 C1354 1.392 . S
C1354 H1326 0.929 . S
C1354 C1351 1.391 . S
C1354 C1353 1.392 . S
N1355 Co1299 2.257 . S
N1355 C1352 1.391 . S
N1355 C1356 1.388 . S
C1356 H1327 0.930 . S
C1356 C1351 1.391 . S
C1356 N1355 1.388 . S
Co1357 O1359 2.143 . S
Co1357 O1365 2.074 . S
Co1357 O1368 2.093 . S
Co1357 O1381 2.097 . S
Co1357 N1398 2.151 . S
Co1357 N1406 2.214 . S
Co1358 O1359 2.160 . S
Co1358 O1364 2.058 . S
Co1358 O1374 2.057 . S
Co1358 O1389 2.037 . S
Co1358 N1393 2.145 . S
Co1358 N1414 2.257 . S
O1359 Co1357 2.143 . S
O1359 Co1358 2.160 . S
C1360 O1361 1.278 . S
C1360 O1368 1.224 . S
O1361 C1360 1.278 . S
C1362 O1363 1.245 . S
C1362 O1374 1.232 . S
O1363 C1362 1.245 . S
O1364 Co1358 2.058 . S
O1364 C1390 1.269 . S
O1365 Co1357 2.074 . S
O1365 C1390 1.257 . S
H1366 C1391 0.930 . S
H1367 C1397 0.930 . S
O1368 Co1357 2.093 . S
O1368 C1360 1.224 . S
H1369 C1401 0.929 . S
H1370 C1403 0.930 . S
H1371 C1404 0.930 . S
H1372 C1402 0.929 . S
H1373 C1405 0.928 . S
O1374 Co1358 2.057 . S
O1374 C1362 1.232 . S
H1375 C1394 0.929 . S
H1376 C1395 0.929 . S
H1377 C1407 0.931 . S
H1378 C1399 0.929 . S
H1379 C1408 0.930 . S
H1380 C1400 0.931 . S
O1381 Co1357 2.097 . S
O1381 C1409 1.214 . S
H1382 C1410 0.929 . S
H1383 C1411 0.929 . S
H1384 C1412 0.930 . S
H1385 C1413 0.929 . S
H1386 C1415 0.930 . S
H1387 C1392 0.930 . S
H1388 C1396 0.930 1_554 S
O1389 Co1358 2.037 . S
O1389 C1409 1.234 . S
C1390 O1364 1.269 . S
C1390 O1365 1.257 . S
C1391 H1366 0.930 . S
C1391 C1394 1.388 . S
C1391 C1396 1.418 . S
C1392 H1387 0.930 . S
C1392 C1395 1.404 . S
C1392 C1396 1.353 . S
N1393 Co1358 2.145 . S
N1393 C1394 1.397 . S
N1393 C1395 1.334 . S
C1394 H1375 0.929 . S
C1394 C1391 1.388 . S
C1394 N1393 1.397 . S
C1395 H1376 0.929 . S
C1395 C1392 1.404 . S
C1395 N1393 1.334 . S
C1396 H1388 0.930 1_556 S
C1396 C1391 1.418 . S
C1396 C1392 1.353 . S
C1397 H1367 0.930 . S
C1397 N1398 1.330 . S
C1397 C1399 1.446 . S
N1398 Co1357 2.151 . S
N1398 C1397 1.330 . S
N1398 C1402 1.418 . S
C1399 H1378 0.929 . S
C1399 C1397 1.446 . S
C1399 C1400 1.332 . S
C1400 H1380 0.931 . S
C1400 C1399 1.332 . S
C1400 C1401 1.267 . S
C1401 H1369 0.929 . S
C1401 C1400 1.267 . S
C1401 C1402 1.251 . S
C1402 H1372 0.929 . S
C1402 N1398 1.418 . S
C1402 C1401 1.251 . S
C1403 H1370 0.930 . S
C1403 C1405 1.406 . S
C1403 C1408 1.261 . S
C1404 H1371 0.930 . S
C1404 N1406 1.325 . S
C1404 C1407 1.357 . S
C1405 H1373 0.928 . S
C1405 C1403 1.406 . S
C1405 N1406 1.261 . S
N1406 Co1357 2.214 . S
N1406 C1404 1.325 . S
N1406 C1405 1.261 . S
C1407 H1377 0.931 . S
C1407 C1404 1.357 . S
C1407 C1408 1.312 . S
C1408 H1379 0.930 . S
C1408 C1403 1.261 . S
C1408 C1407 1.312 . S
C1409 O1381 1.214 . S
C1409 O1389 1.234 . S
C1410 H1382 0.929 . S
C1410 C1413 1.391 . S
C1410 C1415 1.391 . S
C1411 H1383 0.929 . S
C1411 C1412 1.390 . S
C1411 N1414 1.391 . S
C1412 H1384 0.930 . S
C1412 C1411 1.390 . S
C1412 C1413 1.392 . S
C1413 H1385 0.929 . S
C1413 C1410 1.391 . S
C1413 C1412 1.392 . S
N1414 Co1358 2.257 . S
N1414 C1411 1.391 . S
N1414 C1415 1.388 . S
C1415 H1386 0.930 . S
C1415 C1410 1.391 . S
C1415 N1414 1.388 . S
C52 C465 2.025 1_545 S
C524 C111 2.025 . S
C170 C583 2.025 1_655 S
C229 C642 2.025 1_565 S
C701 C288 2.025 . S
C347 C406 2.025 1_455 S
C760 C1173 2.025 1_565 S
C819 C1232 2.025 . S
C1291 C878 2.025 1_655 S
C937 C1350 2.025 1_545 S
C996 C1409 2.025 . S
C1114 C1055 2.025 1_455 S
C5 C477 1.580 . S
C536 C64 1.580 . S
C595 C123 1.580 . S
C182 C654 1.580 . S
C241 C359 1.580 . S
C300 C418 1.580 . S
C1185 C713 1.580 . S
C772 C1244 1.580 . S
C1303 C831 1.580 . S
C1362 C890 1.580 . S
C1067 C949 1.580 . S
C1008 C1126 1.580 . S
C3 C888 1.698 1_554 S
C947 C62 1.698 1_556 S
C1006 C121 1.698 1_556 S
C180 C711 1.698 1_554 S
C239 C770 1.698 1_554 S
C829 C298 1.698 1_556 S
C1242 C357 1.698 . S
C1301 C416 1.698 . S
C1360 C475 1.698 . S
C1065 C534 1.698 . S
C593 C1124 1.698 . S
C652 C1183 1.698 . S
C33 C623 1.967 . S
C682 C92 1.967 . S
C387 C151 1.967 . S
C210 C446 1.967 . S
C269 C505 1.967 . S
C328 C564 1.967 . S
C741 C1331 1.967 . S
C800 C1390 1.967 . S
C859 C1095 1.967 . S
C1154 C918 1.967 . S
C977 C1213 1.967 . S
C1036 C1272 1.967 . S
