# Generated by pormake.
# Topology rkf, (6)-cn, num edge types: 1
# Building blocks:
#     Node 0, Type 0, BuildingBlock: BETDIP_clean_sbu_0, # of connection points: 6
#     Node 1, Type 0, BuildingBlock: BETDIP_clean_sbu_0, # of connection points: 6
#     Node 2, Type 0, BuildingBlock: BETDIP_clean_sbu_0, # of connection points: 6
#     Node 3, Type 0, BuildingBlock: BETDIP_clean_sbu_0, # of connection points: 6
#     Node 4, Type 0, BuildingBlock: BETDIP_clean_sbu_0, # of connection points: 6
#     Node 5, Type 0, BuildingBlock: BETDIP_clean_sbu_0, # of connection points: 6
#     Edge 6, Type (0, 0), BuildingBlock: KIFKEQ_clean_linker_1, # of connection points: 2
#     Edge 7, Type (0, 0), BuildingBlock: KIFKEQ_clean_linker_1, # of connection points: 2
#     Edge 8, Type (0, 0), BuildingBlock: KIFKEQ_clean_linker_1, # of connection points: 2
#     Edge 9, Type (0, 0), BuildingBlock: KIFKEQ_clean_linker_1, # of connection points: 2
#     Edge 10, Type (0, 0), BuildingBlock: KIFKEQ_clean_linker_1, # of connection points: 2
#     Edge 11, Type (0, 0), BuildingBlock: KIFKEQ_clean_linker_1, # of connection points: 2
#     Edge 12, Type (0, 0), BuildingBlock: KIFKEQ_clean_linker_1, # of connection points: 2
#     Edge 13, Type (0, 0), BuildingBlock: KIFKEQ_clean_linker_1, # of connection points: 2
#     Edge 14, Type (0, 0), BuildingBlock: KIFKEQ_clean_linker_1, # of connection points: 2
#     Edge 15, Type (0, 0), BuildingBlock: KIFKEQ_clean_linker_1, # of connection points: 2
#     Edge 16, Type (0, 0), BuildingBlock: KIFKEQ_clean_linker_1, # of connection points: 2
#     Edge 17, Type (0, 0), BuildingBlock: KIFKEQ_clean_linker_1, # of connection points: 2
#     Edge 18, Type (0, 0), BuildingBlock: KIFKEQ_clean_linker_1, # of connection points: 2
#     Edge 19, Type (0, 0), BuildingBlock: KIFKEQ_clean_linker_1, # of connection points: 2
#     Edge 20, Type (0, 0), BuildingBlock: KIFKEQ_clean_linker_1, # of connection points: 2
#     Edge 21, Type (0, 0), BuildingBlock: KIFKEQ_clean_linker_1, # of connection points: 2
#     Edge 22, Type (0, 0), BuildingBlock: KIFKEQ_clean_linker_1, # of connection points: 2
#     Edge 23, Type (0, 0), BuildingBlock: KIFKEQ_clean_linker_1, # of connection points: 2
# Relax obj value: 0.704
# Max RMSD: 0.247
# Mean RMSD: 0.247
data_MOF--net-rkf--node1-BETDIP_clean_sbu_0--edge1-KIFKEQ_clean_linker_1
_symmetry_space_group_name_H-M    P1
_symmetry_Int_Tables_number       1
_symmetry_cell_setting            triclinic
loop_
_symmetry_equiv_pos_as_xyz
'x, y, z'
_cell_length_a     25.222536
_cell_length_b     25.163629
_cell_length_c     44.732407
_cell_angle_alpha  90.039066
_cell_angle_beta   90.046225
_cell_angle_gamma 119.8362
loop_
_atom_site_label
_atom_site_type_symbol
_atom_site_fract_x
_atom_site_fract_y
_atom_site_fract_z
_atom_type_partial_charge
Tb0 Tb 0.32989 0.12944 0.17142 0.0
Tb1 Tb 0.36903 0.25252 1.14909 0.0
C2 C 0.3245 0.0283 0.18049 0.0
C3 C 0.33366 -0.00831 0.20314 0.0
C4 C 0.33789 0.94077 0.19382 0.0
C5 C 0.33209 0.89669 0.21452 0.0
C6 C 0.32168 0.90296 0.24483 0.0
C7 C 0.32307 0.95708 0.25436 0.0
C8 C 0.32902 0.00116 0.23364 0.0
C9 C 0.23661 0.14495 0.15798 0.0
C10 C 0.3359 0.22234 0.21929 0.0
C11 C 0.39068 0.36 1.13906 0.0
C12 C 0.42766 0.41025 1.11836 0.0
C13 C 0.4065 0.4498 1.10969 0.0
C14 C 0.43897 0.49595 1.08885 0.0
C15 C 0.49354 0.50359 1.0763 0.0
C16 C 0.51638 0.46582 1.08635 0.0
C17 C 0.48351 0.41927 1.10708 0.0
C18 C 0.45802 0.22867 0.15922 0.0
C19 C 0.33772 0.15201 1.09859 0.0
O20 O 0.37302 0.07625 0.16991 0.0
O21 O 0.27908 0.03844 0.18515 0.0
O22 O 0.28705 0.16698 1.14478 0.0
O23 O 0.24042 0.11701 0.18156 0.0
O24 O 0.34267 0.17357 0.21562 0.0
O25 O 0.33408 0.25257 0.19517 0.0
O26 O 0.34404 0.31125 1.12762 0.0
O27 O 0.42105 0.34621 0.15818 0.0
O28 O 0.41186 0.21359 0.17516 0.0
O29 O 0.457 0.26041 1.13667 0.0
O30 O 0.3505 0.20943 1.10385 0.0
O31 O 0.33254 0.11619 1.12173 0.0
H32 H 0.34171 0.93305 0.17027 0.0
H33 H 0.33203 0.856 0.20656 0.0
H34 H 0.3145 0.96322 0.27747 0.0
H35 H 0.32573 0.04036 0.24117 0.0
H36 H 0.36372 0.44376 1.11835 0.0
H37 H 0.41914 0.52313 1.0813 0.0
H38 H 0.55845 0.47076 1.07737 0.0
H39 H 0.50099 0.3895 1.11375 0.0
Tb40 Tb 0.29688 0.33157 0.50367 0.0
Tb41 Tb 0.24931 0.41583 0.48761 0.0
C42 C 0.36064 0.28673 0.52173 0.0
C43 C 0.40761 0.29543 0.5438 0.0
C44 C 0.46406 0.30458 0.53333 0.0
C45 C 0.50773 0.30667 0.5532 0.0
C46 C 0.49568 0.29944 0.58398 0.0
C47 C 0.4401 0.293 0.59454 0.0
C48 C 0.39641 0.29101 0.57463 0.0
C49 C 0.19239 0.279 0.47599 0.0
C50 C 0.22753 0.36637 0.55435 0.0
C51 C 0.2021 0.47797 0.46999 0.0
C52 C 0.18613 0.49954 0.44297 0.0
C53 C 0.19477 0.48172 0.41461 0.0
C54 C 0.17954 0.50333 0.38918 0.0
C55 C 0.15561 0.54325 0.39172 0.0
C56 C 0.14815 0.5618 0.42027 0.0
C57 C 0.16346 0.54013 0.44571 0.0
C58 C 0.35584 0.46583 0.51531 0.0
C59 C 0.30203 0.36477 0.43486 0.0
O60 O 0.37822 0.32939 0.50144 0.0
O61 O 0.30431 0.26699 0.53065 0.0
O62 O 0.20825 0.32067 0.49513 0.0
O63 O 0.23052 0.2588 0.47571 0.0
O64 O 0.26895 0.34935 0.54847 0.0
O65 O 0.20731 0.38744 0.53242 0.0
O66 O 0.17042 0.41916 0.47576 0.0
O67 O 0.26058 0.50059 0.47468 0.0
O68 O 0.33769 0.42614 0.49509 0.0
O69 O 0.31497 0.48152 0.51972 0.0
O70 O 0.26939 0.39183 0.44188 0.0
O71 O 0.32355 0.34435 0.45633 0.0
H72 H 0.47368 0.30824 0.50958 0.0
H73 H 0.55016 0.31215 0.54439 0.0
H74 H 0.42888 0.28629 0.61811 0.0
H75 H 0.35332 0.28404 0.5833 0.0
H76 H 0.21251 0.45061 0.41218 0.0
H77 H 0.18451 0.48695 0.36755 0.0
H78 H 0.12992 0.59245 0.42293 0.0
H79 H 0.1572 0.55473 0.46758 0.0
Tb80 Tb 0.08875 0.31628 0.84214 0.0
Tb81 Tb -0.02461 0.3152 0.82825 0.0
C82 C 0.20096 0.35323 0.84933 0.0
C83 C 0.25155 0.40102 0.86679 0.0
C84 C 0.30808 0.43761 0.8528 0.0
C85 C 0.35677 0.48434 0.86862 0.0
C86 C 0.34979 0.49507 0.89881 0.0
C87 C 0.29243 0.4588 0.91253 0.0
C88 C 0.24368 0.41257 0.89661 0.0
C89 C -0.00231 0.20682 0.82563 0.0
C90 C -0.01004 0.26976 0.89261 0.0
C91 C 0.87403 0.30123 0.81155 0.0
C92 C 0.8311 0.27677 0.78648 0.0
C93 C 0.85017 0.26929 0.75819 0.0
C94 C 0.807 0.23799 0.73586 0.0
C95 C 0.74415 0.2132 0.74162 0.0
C96 C 0.72558 0.22341 0.76958 0.0
C97 C 0.76888 0.25514 0.79183 0.0
C98 C 0.05566 0.41255 0.85998 0.0
C99 C 0.06935 0.33555 0.77328 0.0
O100 O 0.17921 0.37385 0.82887 0.0
O101 O 0.15765 0.30671 0.86376 0.0
O102 O 0.01031 0.25809 0.81574 0.0
O103 O 0.04013 0.21624 0.84475 0.0
O104 O 0.04957 0.30463 0.88759 0.0
O105 O 0.95138 0.25955 0.87011 0.0
O106 O 0.88037 0.26028 0.82678 0.0
O107 O 0.92626 0.35145 0.80688 0.0
O108 O 0.06611 0.3867 0.83877 0.0
O109 O -0.00278 0.38428 0.86336 0.0
O110 O 0.01682 0.33263 0.78171 0.0
O111 O 0.10265 0.32665 0.79348 0.0
H112 H 0.31457 0.42993 0.82958 0.0
H113 H 0.39993 0.51164 0.85726 0.0
H114 H 0.2855 0.46463 0.93591 0.0
H115 H 0.20016 0.38549 0.90773 0.0
H116 H 0.89799 0.28521 0.75378 0.0
H117 H 0.82262 0.22983 0.71471 0.0
H118 H 0.67753 0.20481 0.77456 0.0
H119 H 0.75354 0.26051 0.81367 0.0
Tb120 Tb 0.87308 0.08673 0.17441 0.0
Tb121 Tb 0.75833 0.98049 0.15749 0.0
C122 C 0.95518 0.19603 0.18368 0.0
C123 C 0.95959 0.24967 0.19924 0.0
C124 C 0.97302 0.30229 0.18266 0.0
C125 C -0.0222 0.35404 0.19675 0.0
C126 C 0.96976 0.35434 0.22781 0.0
C127 C 0.95532 0.30104 0.24426 0.0
C128 C 0.95 0.24918 0.23012 0.0
C129 C 0.88144 -0.01206 0.16066 0.0
C130 C 0.80801 -0.01042 0.22409 0.0
C131 C 0.67132 0.88255 1.13727 0.0
C132 C 0.66015 0.8427 1.11134 0.0
C133 C 0.69196 0.86623 1.08453 0.0
C134 C 0.68879 0.82646 1.06195 0.0
C135 C 0.65435 0.76256 1.06598 0.0
C136 C 0.62018 0.73936 1.09232 0.0
C137 C 0.62295 0.77922 1.11479 0.0
C138 C 0.74481 0.06631 0.1862 0.0
C139 C 0.84343 0.07496 1.10483 0.0
O140 O 0.9194 0.17807 0.16044 0.0
O141 O 0.94875 0.14984 0.19977 0.0
O142 O 0.84943 0.00668 1.14845 0.0
O143 O 0.91511 0.02911 0.18017 0.0
O144 O 0.83626 0.04946 0.21911 0.0
O145 O 0.78067 0.952 0.20109 0.0
O146 O 0.7125 0.88489 0.15588 0.0
O147 O 0.67731 0.93661 1.13233 0.0
O148 O 0.78385 0.07354 0.16693 0.0
O149 O 0.71092 0.00798 0.18983 0.0
O150 O 0.79 0.02514 1.11187 0.0
O151 O 0.88467 0.10327 1.12607 0.0
H152 H -0.0198 0.30348 0.15873 0.0
H153 H -0.01144 0.39401 0.18338 0.0
H154 H 0.95029 0.29992 0.26832 0.0
H155 H 0.93931 0.20919 0.24347 0.0
H156 H 0.72154 0.91508 1.08159 0.0
H157 H 0.71656 0.84581 1.04216 0.0
H158 H 0.59336 0.69046 1.09608 0.0
H159 H 0.59843 0.76037 1.13549 0.0
Tb160 Tb 0.85086 0.86824 0.50671 0.0
Tb161 Tb 0.90329 0.78951 0.48816 0.0
C162 C 0.78592 0.90965 0.52702 0.0
C163 C 0.74851 0.90836 0.55247 0.0
C164 C 0.68858 0.89566 0.54682 0.0
C165 C 0.65491 0.90439 0.56905 0.0
C166 C 0.68075 0.92612 0.59735 0.0
C167 C 0.73925 0.93462 0.60359 0.0
C168 C 0.77295 0.92588 0.58131 0.0
C169 C 0.95427 0.92582 0.47836 0.0
C170 C 0.92375 0.83485 0.55592 0.0
C171 C 0.95515 0.73285 0.46916 0.0
C172 C -0.01783 0.72023 0.44316 0.0
C173 C -0.01093 0.75023 0.4159 0.0
C174 C 0.01974 0.7407 0.39234 0.0
C175 C 0.04397 0.70123 0.39582 0.0
C176 C 0.03474 0.6696 0.42287 0.0
C177 C 0.00397 0.67904 0.44634 0.0
C178 C 0.79621 0.73336 0.51517 0.0
C179 C 0.84626 0.84019 0.43721 0.0
O180 O 0.76442 0.85933 0.5113 0.0
O181 O 0.84554 0.93762 0.53021 0.0
O182 O 0.94096 0.88389 0.4971 0.0
O183 O 0.91334 0.94244 0.47835 0.0
O184 O 0.88091 0.85022 0.55089 0.0
O185 O 0.94471 0.81604 0.53334 0.0
O186 O -0.01546 0.78858 0.48001 0.0
O187 O 0.89591 0.71021 0.46882 0.0
O188 O 0.81369 0.77487 0.49599 0.0
O189 O 0.83848 0.71938 0.51901 0.0
O190 O 0.882 0.81595 0.44323 0.0
O191 O 0.82286 0.85697 0.45944 0.0
H192 H 0.66885 0.8819 0.52469 0.0
H193 H 0.6098 0.8969 0.5637 0.0
H194 H 0.76077 0.95204 0.62509 0.0
H195 H 0.81902 0.93574 0.58625 0.0
H196 H 0.97243 0.7822 0.41318 0.0
H197 H 0.02699 0.76646 0.37189 0.0
H198 H 0.05255 0.63872 0.42609 0.0
H199 H -0.00139 0.65536 0.46732 0.0
Tb200 Tb 0.09664 0.84421 0.84029 0.0
Tb201 Tb 0.21162 0.95408 0.81812 0.0
C202 C 0.02846 0.73987 0.86221 0.0
C203 C -0.01466 0.71473 0.88716 0.0
C204 C 0.93217 0.65771 0.88367 0.0
C205 C 0.8855 0.63719 0.9049 0.0
C206 C 0.89167 0.67331 0.93003 0.0
C207 C 0.9464 0.72909 0.93416 0.0
C208 C -0.00725 0.74985 0.91279 0.0
C209 C 0.07837 0.93353 0.82833 0.0
C210 C 0.18702 0.94959 0.88787 0.0
C211 C 0.30228 0.04672 0.79643 0.0
C212 C 0.35492 0.05854 0.7774 0.0
C213 C 0.34792 0.04726 0.74655 0.0
C214 C 0.39893 0.0641 0.72852 0.0
C215 C 0.45828 0.09261 0.74087 0.0
C216 C 0.46479 0.10061 0.77201 0.0
C217 C 0.41366 0.08405 0.79005 0.0
C218 C 0.2135 0.84966 0.82538 0.0
C219 C 0.10743 0.87483 0.7697 0.0
O220 O 0.08665 0.77349 0.86883 0.0
O221 O 0.01164 0.76409 0.84102 0.0
O222 O 0.12854 0.93968 0.83767 0.0
O223 O 0.03466 0.87817 0.83358 0.0
O224 O 0.14344 0.89102 0.88365 0.0
O225 O 0.21217 -0.01464 0.86424 0.0
O226 O 0.24782 0.02039 0.78417 0.0
O227 O 0.30178 0.02512 0.82302 0.0
O228 O 0.1724 0.85773 0.81518 0.0
O229 O 0.25902 0.90278 0.83169 0.0
O230 O 0.15762 0.92766 0.77608 0.0
O231 O 0.08081 0.83168 0.79079 0.0
H232 H 0.92564 0.63028 0.86386 0.0
H233 H 0.8439 0.594 0.90124 0.0
H234 H 0.95203 0.75835 0.95308 0.0
H235 H 0.03312 0.79441 0.91567 0.0
H236 H 0.30334 0.02755 0.73608 0.0
H237 H 0.39182 0.05827 0.7046 0.0
H238 H 0.5096 0.12197 0.7823 0.0
H239 H 0.42034 0.09302 0.81384 0.0
H240 H 0.93724 0.92671 0.18145 0.0
H241 H 0.88356 0.97953 1.10009 0.0
H242 H 0.0264 0.93584 0.15622 0.0
H243 H -0.02369 -0.0049 1.07601 0.0
H244 H 0.14234 0.16508 1.14463 0.0
H245 H 0.04478 0.08973 1.12243 0.0
H246 H 0.11428 0.96568 1.10836 0.0
H247 H 0.21203 0.04159 1.12968 0.0
C248 C 0.9425 0.93649 0.1577 0.0
C249 C 0.9065 0.95648 1.14319 0.0
C250 C -0.00666 0.9413 1.14303 0.0
C251 C 0.00982 0.9707 1.11509 0.0
C252 C 0.96522 0.97436 1.098 0.0
C253 C 0.91256 0.96639 1.11211 0.0
C254 C 0.13731 0.12286 1.1356 0.0
C255 C 0.18326 0.10804 1.13935 0.0
C256 C 0.08223 0.0802 1.12239 0.0
C257 C 0.07259 0.02208 1.11363 0.0
C258 C 0.12113 0.01034 1.11448 0.0
C259 C 0.17638 0.05335 1.12714 0.0
H260 H 0.07228 -0.00894 0.49615 0.0
H261 H 0.95844 0.93207 0.41769 0.0
H262 H 0.12485 0.0952 0.47687 0.0
H263 H 0.00655 0.03691 0.39966 0.0
H264 H 0.18825 0.27095 0.41561 0.0
H265 H 0.13345 0.16553 0.39861 0.0
H266 H 0.01497 0.11862 0.47527 0.0
H267 H 0.07378 0.22331 0.4935 0.0
C268 C 0.06137 -0.0007 0.4738 0.0
C269 C 0.00826 0.95554 0.45948 0.0
C270 C 0.09046 0.05909 0.46303 0.0
C271 C 0.06636 0.07349 0.43791 0.0
C272 C 0.02418 0.02668 0.41961 0.0
C273 C -0.003 0.96666 0.42998 0.0
C274 C 0.14795 0.23914 0.42779 0.0
C275 C 0.13824 0.25281 0.45708 0.0
C276 C 0.11684 0.17863 0.418 0.0
C277 C 0.07286 0.1344 0.43667 0.0
C278 C 0.05053 0.15264 0.46112 0.0
C279 C 0.08347 0.21282 0.47135 0.0
H280 H -0.00865 0.89028 0.78573 0.0
H281 H 0.14821 0.0566 0.81729 0.0
H282 H 0.95485 0.94966 0.75911 0.0
H283 H 0.11172 0.11631 0.78988 0.0
H284 H 0.92928 0.08656 0.83896 0.0
H285 H 0.94036 0.00771 0.81309 0.0
H286 H 0.03963 0.13489 0.74218 0.0
H287 H 0.02316 0.21171 0.76652 0.0
C288 C 0.0194 0.93975 0.78594 0.0
C289 C 0.07063 0.96954 0.8049 0.0
C290 C -0.00088 0.97344 0.76998 0.0
C291 C 0.02952 0.03695 0.77331 0.0
C292 C 0.08736 0.06694 0.78727 0.0
C293 C 0.10772 0.03308 0.80345 0.0
C294 C 0.94909 0.09598 0.81677 0.0
C295 C -0.02292 0.1552 0.80515 0.0
C296 C 0.9553 0.05097 0.80179 0.0
C297 C -0.00758 0.06645 0.77615 0.0
C298 C 0.01106 0.12234 0.76192 0.0
C299 C 0.00208 0.16639 0.77616 0.0
H300 H 0.53931 0.47864 1.02633 0.0
H301 H 0.50562 0.61669 1.06459 0.0
H302 H 0.54012 0.51689 0.97729 0.0
H303 H 0.5083 0.65707 1.01486 0.0
H304 H 0.46931 0.52113 0.89515 0.0
H305 H 0.54614 0.56734 0.93405 0.0
H306 H 0.42538 0.61087 0.98368 0.0
H307 H 0.3519 0.57033 0.94363 0.0
C308 C 0.53507 0.51927 1.02448 0.0
C309 C 0.5192 0.54256 1.04931 0.0
C310 C 0.53572 0.54176 0.99596 0.0
C311 C 0.52029 0.58791 0.99172 0.0
C312 C 0.51665 0.61902 1.01711 0.0
C313 C 0.51533 0.59602 1.04569 0.0
C314 C 0.46033 0.54316 0.9137 0.0
C315 C 0.40297 0.53908 0.91708 0.0
C316 C 0.50435 0.56921 0.93627 0.0
C317 C 0.49082 0.58949 0.96303 0.0
C318 C 0.43765 0.59457 0.96394 0.0
C319 C 0.39444 0.56999 0.94109 0.0
H320 H 0.20982 0.57688 0.33693 0.0
H321 H 0.0493 0.5469 0.38534 0.0
H322 H 0.15681 0.56347 0.29029 0.0
H323 H -0.003 0.53808 0.3384 0.0
H324 H 0.05859 0.47275 0.21541 0.0
H325 H 0.09907 0.55831 0.25006 0.0
H326 H 0.95313 0.44862 0.3119 0.0
H327 H 0.91002 0.3661 0.27619 0.0
C328 C 0.16372 0.56958 0.3375 0.0
C329 C 0.13248 0.55918 0.36469 0.0
C330 C 0.1332 0.5628 0.31058 0.0
C331 C 0.07081 0.5457 0.31044 0.0
C332 C 0.04384 0.54763 0.33767 0.0
C333 C 0.07407 0.55325 0.36467 0.0
C334 C 0.03349 0.46794 0.2358 0.0
C335 C -0.01721 0.41139 0.24378 0.0
C336 C 0.0572 0.517 0.2559 0.0
C337 C 0.0319 0.50951 0.28468 0.0
C338 C -0.02465 0.45648 0.29039 0.0
C339 C 0.9509 0.40814 0.27003 0.0
H340 H 0.74064 0.22589 0.68118 0.0
H341 H 0.6465 0.10069 0.7536 0.0
H342 H 0.69058 0.14245 0.64557 0.0
H343 H 0.59514 0.01704 0.71786 0.0
H344 H 0.67101 0.91152 0.65807 0.0
H345 H 0.65297 0.97454 0.69316 0.0
H346 H 0.60621 0.05564 0.61998 0.0
H347 H 0.62625 -0.00609 0.58475 0.0
C348 C 0.70746 0.18089 0.68934 0.0
C349 C 0.69897 0.1693 0.72012 0.0
C350 C 0.67818 0.13302 0.66893 0.0
C351 C 0.64013 0.07272 0.67903 0.0
C352 C 0.62519 0.06284 0.70953 0.0
C353 C 0.65438 0.11086 0.72996 0.0
C354 C 0.65518 0.94151 0.64955 0.0
C355 C 0.65169 0.94897 0.61867 0.0
C356 C 0.644 0.97715 0.66969 0.0
C357 C 0.62929 0.021 0.65924 0.0
C358 C 0.61835 0.02286 0.62859 0.0
C359 C 0.62955 -0.01282 0.60844 0.0
H360 H 0.65462 0.76673 1.00489 0.0
H361 H 0.67124 0.66605 1.07904 0.0
H362 H 0.69404 0.71849 0.97127 0.0
H363 H 0.70913 0.61653 1.04525 0.0
H364 H 0.77336 0.63485 0.9145 0.0
H365 H 0.69292 0.62956 0.94693 0.0
H366 H 0.81267 0.67219 1.02321 0.0
H367 H 0.89224 0.67624 0.99096 0.0
C368 C 0.66511 0.73301 1.01383 0.0
C369 C 0.66149 0.72147 1.04467 0.0
C370 C 0.68696 0.70472 0.99453 0.0
C371 C 0.70592 0.66469 1.00579 0.0
C372 C 0.69584 0.64802 1.03609 0.0
C373 C 0.67382 0.6762 1.05539 0.0
C374 C 0.7816 0.6409 0.93836 0.0
C375 C 0.83929 0.65682 0.95023 0.0
C376 C 0.73569 0.63819 0.95685 0.0
C377 C 0.74666 0.65102 0.98752 0.0
C378 C 0.8025 0.66152 0.99971 0.0
C379 C 0.84842 0.66458 0.98122 0.0
H380 H 0.02562 0.69112 0.33548 0.0
H381 H 0.15386 0.70644 0.40364 0.0
H382 H 0.10279 0.71518 0.29745 0.0
H383 H 0.23083 0.72838 0.3654 0.0
H384 H 0.23996 0.78304 0.23224 0.0
H385 H 0.17716 0.70473 0.26837 0.0
H386 H 0.2845 0.82555 0.3402 0.0
H387 H 0.34911 0.90239 0.30407 0.0
C388 C 0.06984 0.69788 0.34219 0.0
C389 C 0.08435 0.69884 0.37252 0.0
C390 C 0.11399 0.71079 0.32035 0.0
C391 C 0.17362 0.72516 0.32848 0.0
C392 C 0.18574 0.71882 0.35853 0.0
C393 C 0.14151 0.70596 0.38041 0.0
C394 C 0.25217 0.79181 0.25565 0.0
C395 C 0.29838 0.84977 0.26539 0.0
C396 C 0.2157 0.74697 0.27639 0.0
C397 C 0.22442 0.75964 0.30715 0.0
C398 C 0.27606 0.81418 0.31668 0.0
C399 C 0.3128 0.85878 0.29596 0.0
H400 H 0.47742 0.0518 0.68712 0.0
H401 H 0.56275 0.20406 0.74862 0.0
H402 H 0.53198 0.1194 0.64619 0.0
H403 H 0.62133 0.27101 0.70793 0.0
H404 H 0.52989 0.34524 0.64047 0.0
H405 H 0.56655 0.30438 0.67892 0.0
H406 H 0.59511 0.19548 0.61282 0.0
H407 H 0.5547 0.23423 0.57448 0.0
C408 C 0.50989 0.09928 0.6921 0.0
C409 C 0.51206 0.12346 0.72067 0.0
C410 C 0.54215 0.13832 0.66855 0.0
C411 C 0.5777 0.20192 0.67348 0.0
C412 C 0.59136 0.22286 0.70317 0.0
C413 C 0.55797 0.18407 0.72666 0.0
C414 C 0.54529 0.31363 0.63403 0.0
C415 C 0.5368 0.29095 0.60475 0.0
C416 C 0.56752 0.2907 0.65608 0.0
C417 C 0.58177 0.24448 0.64927 0.0
C418 C 0.58261 0.22939 0.61905 0.0
C419 C 0.55974 0.25198 0.59699 0.0
H420 H 0.57007 0.27595 1.13291 0.0
H421 H 0.45926 0.15513 0.20344 0.0
H422 H 0.65014 0.25196 1.14411 0.0
H423 H 0.53472 0.12441 0.21226 0.0
H424 H 0.6815 0.08178 0.2316 0.0
H425 H 0.62204 0.13399 0.22906 0.0
H426 H 0.6793 0.18322 1.13704 0.0
H427 H 0.74274 0.13693 1.14112 0.0
C428 C 0.56251 0.24336 1.1505 0.0
C429 C 0.50771 0.21596 0.16666 0.0
C430 C 0.6082 0.22884 0.15681 0.0
C431 C 0.59925 0.18468 0.1787 0.0
C432 C 0.5447 0.159 0.19546 0.0
C433 C 0.50032 0.17556 0.18996 0.0
C434 C 0.68242 0.10556 0.21126 0.0
C435 C 0.71672 0.10555 0.18666 0.0
C436 C 0.64749 0.13472 0.20947 0.0
C437 C 0.64408 0.16232 0.18256 0.0
C438 C 0.68077 0.16398 0.15842 0.0
C439 C 0.71725 0.13686 0.16063 0.0
H440 H 0.44736 0.44102 0.50478 0.0
H441 H 0.40695 0.56822 0.55011 0.0
H442 H 0.55504 0.50492 0.51686 0.0
H443 H 0.51602 0.63425 0.56087 0.0
H444 H 0.70081 0.74918 0.50058 0.0
H445 H 0.59402 0.68393 0.51321 0.0
H446 H 0.63905 0.56393 0.56216 0.0
H447 H 0.7479 0.63244 0.5512 0.0
C448 C 0.46114 0.48147 0.5182 0.0
C449 C 0.4189 0.49963 0.52651 0.0
C450 C 0.52281 0.51803 0.52516 0.0
C451 C 0.54334 0.5741 0.53988 0.0
C452 C 0.5008 0.59078 0.54972 0.0
C453 C 0.43874 0.55333 0.54338 0.0
C454 C 0.68867 0.71088 0.51534 0.0
C455 C 0.73275 0.69659 0.52541 0.0
C456 C 0.6274 0.67331 0.52246 0.0
C457 C 0.60881 0.61962 0.53897 0.0
C458 C 0.6528 0.60574 0.54975 0.0
C459 C 0.71468 0.64456 0.54332 0.0
H460 H 0.02335 0.48673 0.88956 0.0
H461 H 0.17403 0.48822 0.84297 0.0
H462 H 0.07478 0.5983 0.88626 0.0
H463 H 0.22565 0.60034 0.83997 0.0
H464 H 0.28422 0.8199 0.86152 0.0
H465 H 0.25807 0.71563 0.87778 0.0
H466 H 0.09433 0.63978 0.82407 0.0
H467 H 0.12061 0.74174 0.80737 0.0
C468 C 0.06843 0.51098 0.87962 0.0
C469 C 0.09409 0.47883 0.8659 0.0
C470 C 0.09789 0.57478 0.87785 0.0
C471 C 0.15384 0.60744 0.86275 0.0
C472 C 0.18273 0.57599 0.85191 0.0
C473 C 0.15301 0.51194 0.85349 0.0
C474 C 0.24324 0.78066 0.85297 0.0
C475 C 0.20407 0.78874 0.83347 0.0
C476 C 0.22824 0.72142 0.86234 0.0
C477 C 0.1737 0.67032 0.85251 0.0
C478 C 0.1361 0.67867 0.83228 0.0
C479 C 0.15137 0.73703 0.82266 0.0
H480 H 0.32257 0.32186 0.23578 0.0
H481 H 0.33585 0.17268 0.27499 0.0
H482 H 0.31573 0.35796 0.28566 0.0
H483 H 0.32769 0.20763 0.32481 0.0
H484 H 0.36474 0.30826 0.41399 0.0
H485 H 0.37238 0.27605 0.36378 0.0
H486 H 0.26317 0.35132 0.3303 0.0
H487 H 0.25665 0.38491 0.38105 0.0
C488 C 0.32373 0.29621 0.25498 0.0
C489 C 0.33 0.24386 0.25064 0.0
C490 C 0.31941 0.317 0.28399 0.0
C491 C 0.32131 0.28665 0.31031 0.0
C492 C 0.32711 0.23391 0.30582 0.0
C493 C 0.33138 0.21313 0.27682 0.0
C494 C 0.34252 0.31875 0.39605 0.0
C495 C 0.31019 0.35004 0.40238 0.0
C496 C 0.34637 0.29927 0.3668 0.0
C497 C 0.31797 0.30971 0.34196 0.0
C498 C 0.28646 0.34217 0.34814 0.0
C499 C 0.2826 0.36178 0.37761 0.0
H500 H 0.25302 0.32137 0.60598 0.0
H501 H 0.14505 0.40033 0.57599 0.0
H502 H 0.21345 0.31327 0.65651 0.0
H503 H 0.10648 0.39395 0.62678 0.0
H504 H 0.00931 0.33446 0.7197 0.0
H505 H 0.04483 0.3406 0.66794 0.0
H506 H 0.21416 0.35925 0.70081 0.0
H507 H 0.17833 0.35165 0.75165 0.0
C508 C 0.22108 0.3375 0.61004 0.0
C509 C 0.20298 0.36175 0.58619 0.0
C510 C 0.19828 0.33326 0.6395 0.0
C511 C 0.15625 0.35327 0.64684 0.0
C512 C 0.13789 0.37716 0.62282 0.0
C513 C 0.16065 0.38129 0.59331 0.0
C514 C 0.0542 0.34006 0.71591 0.0
C515 C 0.09033 0.34236 0.7406 0.0
C516 C 0.07504 0.3438 0.68589 0.0
C517 C 0.13296 0.34998 0.67914 0.0
C518 C 0.16893 0.35305 0.70405 0.0
C519 C 0.1482 0.3492 0.73378 0.0
H520 H 0.05589 0.27455 0.9433 0.0
H521 H 0.86998 0.19561 0.91264 0.0
H522 H 0.01987 0.22592 0.99178 0.0
H523 H 0.83325 0.14793 0.96169 0.0
H524 H 0.78152 0.03055 1.04959 0.0
H525 H 0.81457 0.07468 0.99931 0.0
H526 H -0.02133 0.22356 1.03735 0.0
H527 H 0.9468 0.17919 1.08648 0.0
C528 C 0.00705 0.24726 0.94684 0.0
C529 C 0.96646 0.24011 0.92338 0.0
C530 C -0.01412 0.21915 0.97517 0.0
C531 C 0.92274 0.18236 0.98185 0.0
C532 C 0.88207 0.17488 0.9582 0.0
C533 C 0.90337 0.203 0.92974 0.0
C534 C 0.82476 0.07261 1.04723 0.0
C535 C 0.86106 0.10035 1.07287 0.0
C536 C 0.84395 0.09854 1.01809 0.0
C537 C 0.90038 0.15344 1.01317 0.0
C538 C 0.93589 0.18091 1.03904 0.0
C539 C 0.91695 0.15516 1.06785 0.0
H540 H 0.84118 0.05061 0.27863 0.0
H541 H 0.78295 0.87238 0.24099 0.0
H542 H 0.84929 0.01318 0.32795 0.0
H543 H 0.79188 0.83489 0.29044 0.0
H544 H 0.87324 0.80639 0.3815 0.0
H545 H 0.86284 0.83952 0.33102 0.0
H546 H 0.79106 0.94783 0.36936 0.0
H547 H 0.80047 0.91442 0.41916 0.0
C548 C 0.82976 0.00321 0.28071 0.0
C549 C 0.8108 0.96495 0.25516 0.0
C550 C 0.83432 0.98138 0.30937 0.0
C551 C 0.82129 0.92034 0.31402 0.0
C552 C 0.8029 0.88216 0.28837 0.0
C553 C 0.79724 0.90376 0.25974 0.0
C554 C 0.85458 0.83672 0.37924 0.0
C555 C 0.83731 0.8567 0.40516 0.0
C556 C 0.84851 0.85596 0.35 0.0
C557 C 0.82621 0.89719 0.34533 0.0
C558 C 0.80908 0.91691 0.37132 0.0
C559 C 0.81406 0.89694 0.4003 0.0
H560 H 0.87499 0.83932 0.61134 0.0
H561 H 0.03248 0.84098 0.57313 0.0
H562 H 0.91713 0.84607 0.66171 0.0
H563 H 0.07526 0.8494 0.62328 0.0
H564 H -0.01221 0.7971 0.7503 0.0
H565 H 0.94344 0.78773 0.70023 0.0
H566 H 0.12003 0.92218 0.66675 0.0
H567 H 0.16377 0.93278 0.71681 0.0
C568 C 0.9187 0.84128 0.61348 0.0
C569 C 0.94972 0.83942 0.58749 0.0
C570 C 0.94298 0.8449 0.64266 0.0
C571 C 0.00024 0.84845 0.64727 0.0
C572 C 0.03145 0.84724 0.62122 0.0
C573 C 0.00652 0.8421 0.59215 0.0
C574 C 0.01747 0.82451 0.7323 0.0
C575 C 0.08002 0.86547 0.7382 0.0
C576 C -0.00829 0.81948 0.70336 0.0
C577 C 0.02757 0.854 0.67872 0.0
C578 C 0.09032 0.89416 0.68461 0.0
C579 C 0.11566 0.90035 0.71364 0.0
H580 H 0.1496 0.89652 0.9449 0.0
H581 H 0.27277 0.06852 0.90293 0.0
H582 H 0.18529 0.94422 0.99422 0.0
H583 H 0.3091 0.11563 0.95164 0.0
H584 H 0.33375 0.20552 1.04444 0.0
H585 H 0.29659 0.15738 0.99556 0.0
H586 H 0.25981 -0.01633 1.03203 0.0
H587 H 0.29589 0.03176 1.08084 0.0
C588 C 0.18433 0.94451 0.94597 0.0
C589 C 0.20756 0.97794 0.91918 0.0
C590 C 0.20546 0.97223 0.97459 0.0
C591 C 0.25084 0.03491 0.97791 0.0
C592 C 0.27373 0.06801 0.95098 0.0
C593 C 0.25279 0.04038 0.92252 0.0
C594 C 0.31829 0.15709 1.04212 0.0
C595 C 0.31895 0.12342 1.06726 0.0
C596 C 0.29678 0.12899 1.01368 0.0
C597 C 0.2744 0.06552 1.00883 0.0
C598 C 0.27535 0.03205 1.03408 0.0
C599 C 0.29704 0.06019 1.06245 0.0
loop_
_geom_bond_atom_site_label_1
_geom_bond_atom_site_label_2
_geom_bond_distance
_geom_bond_site_symmetry_2
_ccdc_geom_bond_type
Tb0 C2 2.809 . S
Tb0 O20 2.484 . S
Tb0 O21 2.440 . S
Tb0 O22 2.658 1_554 S
Tb0 O23 2.409 . S
Tb0 O24 2.378 . S
Tb0 O28 2.325 . S
Tb0 O31 2.341 1_554 S
Tb1 C11 2.809 . S
Tb1 O22 2.325 . S
Tb1 O25 2.341 1_556 S
Tb1 O26 2.484 . S
Tb1 O27 2.440 . S
Tb1 O28 2.658 1_556 S
Tb1 O29 2.409 . S
Tb1 O30 2.378 . S
C2 Tb0 2.809 . S
C2 C3 1.514 . S
C2 O20 1.248 . S
C2 O21 1.266 . S
C3 C2 1.514 . S
C3 C4 1.359 . S
C3 C8 1.348 . S
C4 C3 1.359 . S
C4 C5 1.380 . S
C4 H32 0.929 . S
C5 C4 1.380 . S
C5 C6 1.347 . S
C5 H33 0.931 . S
C6 C5 1.347 . S
C6 C7 1.369 . S
C7 C6 1.369 . S
C7 C8 1.408 . S
C7 H34 0.930 . S
C8 C3 1.348 . S
C8 C7 1.408 . S
C8 H35 0.930 . S
C9 O22 1.281 1_554 S
C9 O23 1.254 . S
C10 O24 1.236 . S
C10 O25 1.266 . S
C11 Tb1 2.809 . S
C11 C12 1.514 . S
C11 O26 1.248 . S
C11 O27 1.266 . S
C12 C11 1.514 . S
C12 C13 1.359 . S
C12 C17 1.348 . S
C13 C12 1.359 . S
C13 C14 1.380 . S
C13 H36 0.929 . S
C14 C13 1.380 . S
C14 C15 1.347 . S
C14 H37 0.931 . S
C15 C14 1.347 . S
C15 C16 1.369 . S
C16 C15 1.369 . S
C16 C17 1.408 . S
C16 H38 0.930 . S
C17 C12 1.348 . S
C17 C16 1.408 . S
C17 H39 0.930 . S
C18 O28 1.281 . S
C18 O29 1.254 1_554 S
C19 O30 1.236 . S
C19 O31 1.266 . S
O20 Tb0 2.484 . S
O20 C2 1.248 . S
O21 Tb0 2.440 . S
O21 C2 1.266 . S
O22 Tb0 2.658 1_556 S
O22 Tb1 2.325 . S
O22 C9 1.281 1_556 S
O23 Tb0 2.409 . S
O23 C9 1.254 . S
O24 Tb0 2.378 . S
O24 C10 1.236 . S
O25 Tb1 2.341 1_554 S
O25 C10 1.266 . S
O26 Tb1 2.484 . S
O26 C11 1.248 . S
O27 Tb1 2.440 . S
O27 C11 1.266 . S
O28 Tb0 2.325 . S
O28 Tb1 2.658 1_554 S
O28 C18 1.281 . S
O29 Tb1 2.409 . S
O29 C18 1.254 1_556 S
O30 Tb1 2.378 . S
O30 C19 1.236 . S
O31 Tb0 2.341 1_556 S
O31 C19 1.266 . S
H32 C4 0.929 . S
H33 C5 0.931 . S
H34 C7 0.930 . S
H35 C8 0.930 . S
H36 C13 0.929 . S
H37 C14 0.931 . S
H38 C16 0.930 . S
H39 C17 0.930 . S
Tb40 C42 2.809 . S
Tb40 O60 2.484 . S
Tb40 O61 2.440 . S
Tb40 O62 2.658 . S
Tb40 O63 2.409 . S
Tb40 O64 2.378 . S
Tb40 O68 2.325 . S
Tb40 O71 2.341 . S
Tb41 C51 2.809 . S
Tb41 O62 2.325 . S
Tb41 O65 2.341 . S
Tb41 O66 2.484 . S
Tb41 O67 2.440 . S
Tb41 O68 2.658 . S
Tb41 O69 2.409 . S
Tb41 O70 2.378 . S
C42 Tb40 2.809 . S
C42 C43 1.514 . S
C42 O60 1.248 . S
C42 O61 1.266 . S
C43 C42 1.514 . S
C43 C44 1.359 . S
C43 C48 1.348 . S
C44 C43 1.359 . S
C44 C45 1.380 . S
C44 H72 0.929 . S
C45 C44 1.380 . S
C45 C46 1.347 . S
C45 H73 0.931 . S
C46 C45 1.347 . S
C46 C47 1.369 . S
C47 C46 1.369 . S
C47 C48 1.408 . S
C47 H74 0.930 . S
C48 C43 1.348 . S
C48 C47 1.408 . S
C48 H75 0.930 . S
C49 O62 1.281 . S
C49 O63 1.254 . S
C50 O64 1.236 . S
C50 O65 1.266 . S
C51 Tb41 2.809 . S
C51 C52 1.514 . S
C51 O66 1.248 . S
C51 O67 1.266 . S
C52 C51 1.514 . S
C52 C53 1.359 . S
C52 C57 1.348 . S
C53 C52 1.359 . S
C53 C54 1.380 . S
C53 H76 0.929 . S
C54 C53 1.380 . S
C54 C55 1.347 . S
C54 H77 0.931 . S
C55 C54 1.347 . S
C55 C56 1.369 . S
C56 C55 1.369 . S
C56 C57 1.408 . S
C56 H78 0.930 . S
C57 C52 1.348 . S
C57 C56 1.408 . S
C57 H79 0.930 . S
C58 O68 1.281 . S
C58 O69 1.254 . S
C59 O70 1.236 . S
C59 O71 1.266 . S
O60 Tb40 2.484 . S
O60 C42 1.248 . S
O61 Tb40 2.440 . S
O61 C42 1.266 . S
O62 Tb40 2.658 . S
O62 Tb41 2.325 . S
O62 C49 1.281 . S
O63 Tb40 2.409 . S
O63 C49 1.254 . S
O64 Tb40 2.378 . S
O64 C50 1.236 . S
O65 Tb41 2.341 . S
O65 C50 1.266 . S
O66 Tb41 2.484 . S
O66 C51 1.248 . S
O67 Tb41 2.440 . S
O67 C51 1.266 . S
O68 Tb40 2.325 . S
O68 Tb41 2.658 . S
O68 C58 1.281 . S
O69 Tb41 2.409 . S
O69 C58 1.254 . S
O70 Tb41 2.378 . S
O70 C59 1.236 . S
O71 Tb40 2.341 . S
O71 C59 1.266 . S
H72 C44 0.929 . S
H73 C45 0.931 . S
H74 C47 0.930 . S
H75 C48 0.930 . S
H76 C53 0.929 . S
H77 C54 0.931 . S
H78 C56 0.930 . S
H79 C57 0.930 . S
Tb80 C82 2.809 . S
Tb80 O100 2.484 . S
Tb80 O101 2.440 . S
Tb80 O102 2.658 . S
Tb80 O103 2.409 . S
Tb80 O104 2.378 . S
Tb80 O108 2.338 . S
Tb80 O111 2.341 . S
Tb81 C91 2.809 . S
Tb81 O102 2.325 1_655 S
Tb81 O105 2.341 . S
Tb81 O106 2.484 . S
Tb81 O107 2.440 . S
Tb81 O108 2.654 1_655 S
Tb81 O109 2.409 . S
Tb81 O110 2.378 1_655 S
C82 Tb80 2.809 . S
C82 C83 1.514 . S
C82 O100 1.248 . S
C82 O101 1.266 . S
C83 C82 1.514 . S
C83 C84 1.359 . S
C83 C88 1.348 . S
C84 C83 1.359 . S
C84 C85 1.380 . S
C84 H112 0.929 . S
C85 C84 1.380 . S
C85 C86 1.347 . S
C85 H113 0.931 . S
C86 C85 1.347 . S
C86 C87 1.369 . S
C87 C86 1.369 . S
C87 C88 1.408 . S
C87 H114 0.930 . S
C88 C83 1.348 . S
C88 C87 1.408 . S
C88 H115 0.930 . S
C89 O102 1.281 . S
C89 O103 1.254 . S
C90 O104 1.236 1_655 S
C90 O105 1.266 . S
C91 Tb81 2.809 . S
C91 C92 1.514 . S
C91 O106 1.248 . S
C91 O107 1.266 . S
C92 C91 1.514 . S
C92 C93 1.359 . S
C92 C97 1.348 . S
C93 C92 1.359 . S
C93 C94 1.380 . S
C93 H116 0.929 . S
C94 C93 1.380 . S
C94 C95 1.347 . S
C94 H117 0.931 . S
C95 C94 1.347 . S
C95 C96 1.369 . S
C96 C95 1.369 . S
C96 C97 1.408 . S
C96 H118 0.930 . S
C97 C92 1.348 . S
C97 C96 1.408 . S
C97 H119 0.930 . S
C98 O108 1.270 1_655 S
C98 O109 1.254 . S
C99 O110 1.236 . S
C99 O111 1.266 . S
O100 Tb80 2.484 . S
O100 C82 1.248 . S
O101 Tb80 2.440 . S
O101 C82 1.266 . S
O102 Tb80 2.658 . S
O102 Tb81 2.325 1_455 S
O102 C89 1.281 . S
O103 Tb80 2.409 . S
O103 C89 1.254 . S
O104 Tb80 2.378 . S
O104 C90 1.236 1_455 S
O105 Tb81 2.341 . S
O105 C90 1.266 . S
O106 Tb81 2.484 . S
O106 C91 1.248 . S
O107 Tb81 2.440 . S
O107 C91 1.266 . S
O108 Tb80 2.338 . S
O108 Tb81 2.654 1_455 S
O108 C98 1.270 1_455 S
O109 Tb81 2.409 . S
O109 C98 1.254 . S
O110 Tb81 2.378 1_455 S
O110 C99 1.236 . S
O111 Tb80 2.341 . S
O111 C99 1.266 . S
H112 C84 0.929 . S
H113 C85 0.931 . S
H114 C87 0.930 . S
H115 C88 0.930 . S
H116 C93 0.929 . S
H117 C94 0.931 . S
H118 C96 0.930 . S
H119 C97 0.930 . S
Tb120 C122 2.809 . S
Tb120 O140 2.484 . S
Tb120 O141 2.440 . S
Tb120 O142 2.658 1_554 S
Tb120 O143 2.409 . S
Tb120 O144 2.378 . S
Tb120 O148 2.325 . S
Tb120 O151 2.341 1_554 S
Tb121 C131 2.809 . S
Tb121 O142 2.325 1_565 S
Tb121 O145 2.341 1_556 S
Tb121 O146 2.484 . S
Tb121 O147 2.440 . S
Tb121 O148 2.658 1_566 S
Tb121 O149 2.409 . S
Tb121 O150 2.378 1_565 S
C122 Tb120 2.809 . S
C122 C123 1.514 . S
C122 O140 1.248 . S
C122 O141 1.266 . S
C123 C122 1.514 . S
C123 C124 1.359 . S
C123 C128 1.348 . S
C124 C123 1.359 . S
C124 C125 1.380 . S
C124 H152 0.929 . S
C125 C124 1.380 . S
C125 C126 1.347 . S
C125 H153 0.931 . S
C126 C125 1.347 . S
C126 C127 1.369 . S
C127 C126 1.369 . S
C127 C128 1.408 . S
C127 H154 0.930 . S
C128 C123 1.348 . S
C128 C127 1.408 . S
C128 H155 0.930 . S
C129 O142 1.281 1_554 S
C129 O143 1.254 . S
C130 O144 1.236 1_565 S
C130 O145 1.266 . S
C131 Tb121 2.809 . S
C131 C132 1.514 . S
C131 O146 1.248 . S
C131 O147 1.266 . S
C132 C131 1.514 . S
C132 C133 1.359 . S
C132 C137 1.348 . S
C133 C132 1.359 . S
C133 C134 1.380 . S
C133 H156 0.929 . S
C134 C133 1.380 . S
C134 C135 1.347 . S
C134 H157 0.931 . S
C135 C134 1.347 . S
C135 C136 1.369 . S
C136 C135 1.369 . S
C136 C137 1.408 . S
C136 H158 0.930 . S
C137 C132 1.348 . S
C137 C136 1.408 . S
C137 H159 0.930 . S
C138 O148 1.281 1_565 S
C138 O149 1.254 1_554 S
C139 O150 1.236 . S
C139 O151 1.266 . S
O140 Tb120 2.484 . S
O140 C122 1.248 . S
O141 Tb120 2.440 . S
O141 C122 1.266 . S
O142 Tb120 2.658 1_556 S
O142 Tb121 2.325 1_545 S
O142 C129 1.281 1_556 S
O143 Tb120 2.409 . S
O143 C129 1.254 . S
O144 Tb120 2.378 . S
O144 C130 1.236 1_545 S
O145 Tb121 2.341 1_554 S
O145 C130 1.266 . S
O146 Tb121 2.484 . S
O146 C131 1.248 . S
O147 Tb121 2.440 . S
O147 C131 1.266 . S
O148 Tb120 2.325 . S
O148 Tb121 2.658 1_544 S
O148 C138 1.281 1_545 S
O149 Tb121 2.409 . S
O149 C138 1.254 1_556 S
O150 Tb121 2.378 1_545 S
O150 C139 1.236 . S
O151 Tb120 2.341 1_556 S
O151 C139 1.266 . S
H152 C124 0.929 . S
H153 C125 0.931 . S
H154 C127 0.930 . S
H155 C128 0.930 . S
H156 C133 0.929 . S
H157 C134 0.931 . S
H158 C136 0.930 . S
H159 C137 0.930 . S
Tb160 C162 2.809 . S
Tb160 O180 2.484 . S
Tb160 O181 2.440 . S
Tb160 O182 2.658 1_655 S
Tb160 O183 2.409 1_655 S
Tb160 O184 2.378 . S
Tb160 O188 2.325 . S
Tb160 O191 2.341 . S
Tb161 C171 2.809 1_655 S
Tb161 O182 2.325 1_655 S
Tb161 O185 2.340 1_655 S
Tb161 O186 2.484 1_655 S
Tb161 O187 2.440 . S
Tb161 O188 2.658 . S
Tb161 O189 2.409 . S
Tb161 O190 2.378 . S
C162 Tb160 2.809 . S
C162 C163 1.514 . S
C162 O180 1.248 . S
C162 O181 1.266 . S
C163 C162 1.514 . S
C163 C164 1.359 . S
C163 C168 1.348 . S
C164 C163 1.359 . S
C164 C165 1.380 . S
C164 H192 0.929 . S
C165 C164 1.380 . S
C165 C166 1.347 . S
C165 H193 0.931 . S
C166 C165 1.347 . S
C166 C167 1.369 . S
C167 C166 1.369 . S
C167 C168 1.408 . S
C167 H194 0.930 . S
C168 C163 1.348 . S
C168 C167 1.408 . S
C168 H195 0.930 . S
C169 O182 1.281 . S
C169 O183 1.254 . S
C170 O184 1.236 . S
C170 O185 1.260 1_655 S
C171 Tb161 2.809 1_455 S
C171 C172 1.514 . S
C171 O186 1.248 . S
C171 O187 1.266 1_455 S
C172 C171 1.514 . S
C172 C173 1.359 . S
C172 C177 1.348 . S
C173 C172 1.359 . S
C173 C174 1.380 . S
C173 H196 0.929 . S
C174 C173 1.380 . S
C174 C175 1.347 . S
C174 H197 0.931 . S
C175 C174 1.347 . S
C175 C176 1.369 . S
C176 C175 1.369 . S
C176 C177 1.408 . S
C176 H198 0.930 . S
C177 C172 1.348 . S
C177 C176 1.408 . S
C177 H199 0.930 1_455 S
C178 O188 1.281 . S
C178 O189 1.254 . S
C179 O190 1.236 . S
C179 O191 1.266 . S
O180 Tb160 2.484 . S
O180 C162 1.248 . S
O181 Tb160 2.440 . S
O181 C162 1.266 . S
O182 Tb160 2.658 1_455 S
O182 Tb161 2.325 1_455 S
O182 C169 1.281 . S
O183 Tb160 2.409 1_455 S
O183 C169 1.254 . S
O184 Tb160 2.378 . S
O184 C170 1.236 . S
O185 Tb161 2.340 1_455 S
O185 C170 1.260 1_455 S
O186 Tb161 2.484 1_455 S
O186 C171 1.248 . S
O187 Tb161 2.440 . S
O187 C171 1.266 1_655 S
O188 Tb160 2.325 . S
O188 Tb161 2.658 . S
O188 C178 1.281 . S
O189 Tb161 2.409 . S
O189 C178 1.254 . S
O190 Tb161 2.378 . S
O190 C179 1.236 . S
O191 Tb160 2.341 . S
O191 C179 1.266 . S
H192 C164 0.929 . S
H193 C165 0.931 . S
H194 C167 0.930 . S
H195 C168 0.930 . S
H196 C173 0.929 . S
H197 C174 0.931 . S
H198 C176 0.930 . S
H199 C177 0.930 1_655 S
Tb200 C202 2.809 . S
Tb200 O220 2.484 . S
Tb200 O221 2.440 . S
Tb200 O222 2.658 1_565 S
Tb200 O223 2.409 1_565 S
Tb200 O224 2.378 . S
Tb200 O228 2.325 . S
Tb200 O231 2.341 . S
Tb201 C211 2.809 1_565 S
Tb201 O222 2.325 1_565 S
Tb201 O225 2.341 1_565 S
Tb201 O226 2.484 1_565 S
Tb201 O227 2.440 . S
Tb201 O228 2.658 . S
Tb201 O229 2.409 . S
Tb201 O230 2.378 . S
C202 Tb200 2.809 . S
C202 C203 1.514 . S
C202 O220 1.248 . S
C202 O221 1.266 . S
C203 C202 1.514 . S
C203 C204 1.359 . S
C203 C208 1.348 . S
C204 C203 1.359 . S
C204 C205 1.380 . S
C204 H232 0.929 . S
C205 C204 1.380 . S
C205 C206 1.347 . S
C205 H233 0.931 . S
C206 C205 1.347 . S
C206 C207 1.369 . S
C207 C206 1.369 . S
C207 C208 1.408 . S
C207 H234 0.930 . S
C208 C203 1.348 . S
C208 C207 1.408 . S
C208 H235 0.930 . S
C209 O222 1.281 . S
C209 O223 1.254 . S
C210 O224 1.236 . S
C210 O225 1.266 1_565 S
C211 Tb201 2.809 1_545 S
C211 C212 1.514 . S
C211 O226 1.248 . S
C211 O227 1.266 1_545 S
C212 C211 1.514 . S
C212 C213 1.359 . S
C212 C217 1.348 . S
C213 C212 1.359 . S
C213 C214 1.380 . S
C213 H236 0.929 . S
C214 C213 1.380 . S
C214 C215 1.347 . S
C214 H237 0.931 . S
C215 C214 1.347 . S
C215 C216 1.369 . S
C216 C215 1.369 . S
C216 C217 1.408 . S
C216 H238 0.930 . S
C217 C212 1.348 . S
C217 C216 1.408 . S
C217 H239 0.930 1_545 S
C218 O228 1.281 . S
C218 O229 1.254 . S
C219 O230 1.236 . S
C219 O231 1.266 . S
O220 Tb200 2.484 . S
O220 C202 1.248 . S
O221 Tb200 2.440 . S
O221 C202 1.266 . S
O222 Tb200 2.658 1_545 S
O222 Tb201 2.325 1_545 S
O222 C209 1.281 . S
O223 Tb200 2.409 1_545 S
O223 C209 1.254 . S
O224 Tb200 2.378 . S
O224 C210 1.236 . S
O225 Tb201 2.341 1_545 S
O225 C210 1.266 1_545 S
O226 Tb201 2.484 1_545 S
O226 C211 1.248 . S
O227 Tb201 2.440 . S
O227 C211 1.266 1_565 S
O228 Tb200 2.325 . S
O228 Tb201 2.658 . S
O228 C218 1.281 . S
O229 Tb201 2.409 . S
O229 C218 1.254 . S
O230 Tb201 2.378 . S
O230 C219 1.236 . S
O231 Tb200 2.341 . S
O231 C219 1.266 . S
H232 C204 0.929 . S
H233 C205 0.931 . S
H234 C207 0.930 . S
H235 C208 0.930 . S
H236 C213 0.929 . S
H237 C214 0.931 . S
H238 C216 0.930 . S
H239 C217 0.930 1_565 S
H240 C248 0.950 1_565 S
H241 C253 0.950 . S
H242 C250 0.950 . S
H243 C252 0.950 . S
H244 C254 0.950 . S
H245 C256 0.950 . S
H246 C258 0.950 . S
H247 C259 0.950 . S
C248 H240 0.950 1_545 S
C248 C249 1.386 1_556 S
C248 C250 1.391 1_655 S
C249 C248 1.386 1_554 S
C249 C253 1.393 . S
C250 H242 0.950 . S
C250 C248 1.391 1_455 S
C250 C251 1.400 1_556 S
C251 C250 1.400 1_554 S
C251 C252 1.398 . S
C251 C257 1.491 . S
C252 H243 0.950 . S
C252 C251 1.398 . S
C252 C253 1.391 1_455 S
C253 H241 0.950 . S
C253 C249 1.393 . S
C253 C252 1.391 1_655 S
C254 H244 0.950 . S
C254 C255 1.386 . S
C254 C256 1.391 . S
C255 C254 1.386 . S
C255 C259 1.393 1_554 S
C256 H245 0.950 . S
C256 C254 1.391 . S
C256 C257 1.400 . S
C257 C251 1.491 . S
C257 C256 1.400 . S
C257 C258 1.398 1_554 S
C258 H246 0.950 . S
C258 C257 1.398 1_556 S
C258 C259 1.391 . S
C259 H247 0.950 . S
C259 C255 1.393 1_556 S
C259 C258 1.391 . S
H260 C268 0.950 . S
H261 C273 0.947 1_565 S
H262 C270 0.950 . S
H263 C272 0.950 . S
H264 C274 0.950 . S
H265 C276 0.950 . S
H266 C278 0.950 . S
H267 C279 0.950 . S
C268 H260 0.950 . S
C268 C269 1.386 . S
C268 C270 1.391 1_565 S
C269 C268 1.386 . S
C269 C273 1.391 1_565 S
C270 H262 0.950 . S
C270 C268 1.391 1_545 S
C270 C271 1.400 . S
C271 C270 1.400 . S
C271 C272 1.398 . S
C271 C277 1.491 . S
C272 H263 0.950 . S
C272 C271 1.398 . S
C272 C273 1.395 . S
C273 H261 0.947 1_545 S
C273 C269 1.391 1_545 S
C273 C272 1.395 . S
C274 H264 0.950 . S
C274 C275 1.386 . S
C274 C276 1.391 . S
C275 C274 1.386 . S
C275 C279 1.393 . S
C276 H265 0.950 . S
C276 C274 1.391 . S
C276 C277 1.400 . S
C277 C271 1.491 . S
C277 C276 1.400 . S
C277 C278 1.398 . S
C278 H266 0.950 . S
C278 C277 1.398 . S
C278 C279 1.391 . S
C279 H267 0.950 . S
C279 C275 1.393 . S
C279 C278 1.391 . S
H280 C288 0.950 . S
H281 C293 0.950 . S
H282 C290 0.950 . S
H283 C292 0.950 . S
H284 C294 0.958 . S
H285 C296 0.950 . S
H286 C298 0.950 . S
H287 C299 0.950 . S
C288 H280 0.950 . S
C288 C289 1.386 . S
C288 C290 1.391 . S
C289 C288 1.386 . S
C289 C293 1.393 . S
C290 H282 0.950 . S
C290 C288 1.391 . S
C290 C291 1.400 . S
C291 C290 1.400 . S
C291 C292 1.398 . S
C291 C297 1.491 . S
C292 H283 0.950 . S
C292 C291 1.398 . S
C292 C293 1.391 . S
C293 H281 0.950 . S
C293 C289 1.393 . S
C293 C292 1.391 . S
C294 H284 0.958 . S
C294 C295 1.389 1_655 S
C294 C296 1.379 1_655 S
C295 C294 1.389 1_455 S
C295 C299 1.393 . S
C296 H285 0.950 . S
C296 C294 1.379 1_455 S
C296 C297 1.400 . S
C297 C291 1.491 . S
C297 C296 1.400 . S
C297 C298 1.398 . S
C298 H286 0.950 . S
C298 C297 1.398 . S
C298 C299 1.391 . S
C299 H287 0.950 . S
C299 C295 1.393 . S
C299 C298 1.391 . S
H300 C308 0.950 . S
H301 C313 0.950 . S
H302 C310 0.950 . S
H303 C312 0.950 . S
H304 C314 0.950 . S
H305 C316 0.950 . S
H306 C318 0.950 . S
H307 C319 0.950 . S
C308 H300 0.950 . S
C308 C309 1.386 . S
C308 C310 1.391 . S
C309 C308 1.386 . S
C309 C313 1.393 . S
C310 H302 0.950 . S
C310 C308 1.391 . S
C310 C311 1.400 . S
C311 C310 1.400 . S
C311 C312 1.398 . S
C311 C317 1.491 . S
C312 H303 0.950 . S
C312 C311 1.398 . S
C312 C313 1.391 . S
C313 H301 0.950 . S
C313 C309 1.393 . S
C313 C312 1.391 . S
C314 H304 0.950 . S
C314 C315 1.386 . S
C314 C316 1.391 . S
C315 C314 1.386 . S
C315 C319 1.393 . S
C316 H305 0.950 . S
C316 C314 1.391 . S
C316 C317 1.400 . S
C317 C311 1.491 . S
C317 C316 1.400 . S
C317 C318 1.398 . S
C318 H306 0.950 . S
C318 C317 1.398 . S
C318 C319 1.391 . S
C319 H307 0.950 . S
C319 C315 1.393 . S
C319 C318 1.391 . S
H320 C328 0.950 . S
H321 C333 0.950 . S
H322 C330 0.950 . S
H323 C332 0.950 . S
H324 C334 0.950 . S
H325 C336 0.950 . S
H326 C338 0.950 1_455 S
H327 C339 0.950 . S
C328 H320 0.950 . S
C328 C329 1.386 . S
C328 C330 1.391 . S
C329 C328 1.386 . S
C329 C333 1.393 . S
C330 H322 0.950 . S
C330 C328 1.391 . S
C330 C331 1.400 . S
C331 C330 1.400 . S
C331 C332 1.398 . S
C331 C337 1.491 1_455 S
C332 H323 0.950 . S
C332 C331 1.398 . S
C332 C333 1.391 . S
C333 H321 0.950 . S
C333 C329 1.393 . S
C333 C332 1.391 . S
C334 H324 0.950 . S
C334 C335 1.386 . S
C334 C336 1.391 . S
C335 C334 1.386 . S
C335 C339 1.393 . S
C336 H325 0.950 . S
C336 C334 1.391 . S
C336 C337 1.400 . S
C337 C331 1.491 1_655 S
C337 C336 1.400 . S
C337 C338 1.398 . S
C338 H326 0.950 1_655 S
C338 C337 1.398 . S
C338 C339 1.391 . S
C339 H327 0.950 . S
C339 C335 1.393 . S
C339 C338 1.391 . S
H340 C348 0.950 . S
H341 C353 0.950 . S
H342 C350 0.950 . S
H343 C352 0.950 . S
H344 C354 0.950 . S
H345 C356 0.950 . S
H346 C358 0.950 1_545 S
H347 C359 0.950 . S
C348 H340 0.950 . S
C348 C349 1.386 . S
C348 C350 1.391 . S
C349 C348 1.386 . S
C349 C353 1.393 . S
C350 H342 0.950 . S
C350 C348 1.391 . S
C350 C351 1.400 . S
C351 C350 1.400 . S
C351 C352 1.398 . S
C351 C357 1.491 1_545 S
C352 H343 0.950 . S
C352 C351 1.398 . S
C352 C353 1.391 . S
C353 H341 0.950 . S
C353 C349 1.393 . S
C353 C352 1.391 . S
C354 H344 0.950 . S
C354 C355 1.386 . S
C354 C356 1.391 . S
C355 C354 1.386 . S
C355 C359 1.393 . S
C356 H345 0.950 . S
C356 C354 1.391 . S
C356 C357 1.400 . S
C357 C351 1.491 1_565 S
C357 C356 1.400 . S
C357 C358 1.398 . S
C358 H346 0.950 1_565 S
C358 C357 1.398 . S
C358 C359 1.391 . S
C359 H347 0.950 . S
C359 C355 1.393 . S
C359 C358 1.391 . S
H360 C368 0.950 . S
H361 C373 0.950 . S
H362 C370 0.950 . S
H363 C372 0.950 . S
H364 C374 0.950 . S
H365 C376 0.950 . S
H366 C378 0.950 . S
H367 C379 0.950 . S
C368 H360 0.950 . S
C368 C369 1.386 . S
C368 C370 1.391 . S
C369 C368 1.386 . S
C369 C373 1.393 . S
C370 H362 0.950 . S
C370 C368 1.391 . S
C370 C371 1.400 . S
C371 C370 1.400 . S
C371 C372 1.398 . S
C371 C377 1.491 . S
C372 H363 0.950 . S
C372 C371 1.398 . S
C372 C373 1.391 . S
C373 H361 0.950 . S
C373 C369 1.393 . S
C373 C372 1.391 . S
C374 H364 0.950 . S
C374 C375 1.386 1_655 S
C374 C376 1.391 . S
C375 C374 1.386 1_455 S
C375 C379 1.393 . S
C376 H365 0.950 . S
C376 C374 1.391 . S
C376 C377 1.400 . S
C377 C371 1.491 . S
C377 C376 1.400 . S
C377 C378 1.398 . S
C378 H366 0.950 . S
C378 C377 1.398 . S
C378 C379 1.391 1_655 S
C379 H367 0.950 . S
C379 C375 1.393 . S
C379 C378 1.391 1_455 S
H380 C388 0.950 . S
H381 C393 0.950 . S
H382 C390 0.950 . S
H383 C392 0.950 . S
H384 C394 0.950 . S
H385 C396 0.950 . S
H386 C398 0.950 . S
H387 C399 0.950 . S
C388 H380 0.950 . S
C388 C389 1.386 . S
C388 C390 1.391 . S
C389 C388 1.386 . S
C389 C393 1.393 . S
C390 H382 0.950 . S
C390 C388 1.391 . S
C390 C391 1.400 . S
C391 C390 1.400 . S
C391 C392 1.398 . S
C391 C397 1.491 . S
C392 H383 0.950 . S
C392 C391 1.398 . S
C392 C393 1.391 . S
C393 H381 0.950 . S
C393 C389 1.393 . S
C393 C392 1.391 . S
C394 H384 0.950 . S
C394 C395 1.386 1_565 S
C394 C396 1.391 . S
C395 C394 1.386 1_545 S
C395 C399 1.393 . S
C396 H385 0.950 . S
C396 C394 1.391 . S
C396 C397 1.400 . S
C397 C391 1.491 . S
C397 C396 1.400 . S
C397 C398 1.398 1_565 S
C398 H386 0.950 . S
C398 C397 1.398 1_545 S
C398 C399 1.391 . S
C399 H387 0.950 . S
C399 C395 1.393 . S
C399 C398 1.391 . S
H400 C408 0.950 . S
H401 C413 0.950 . S
H402 C410 0.950 . S
H403 C412 0.950 . S
H404 C414 0.950 . S
H405 C416 0.950 . S
H406 C418 0.950 . S
H407 C419 0.950 . S
C408 H400 0.950 . S
C408 C409 1.386 . S
C408 C410 1.391 . S
C409 C408 1.386 . S
C409 C413 1.393 . S
C410 H402 0.950 . S
C410 C408 1.391 . S
C410 C411 1.400 . S
C411 C410 1.400 . S
C411 C412 1.398 . S
C411 C417 1.491 . S
C412 H403 0.950 . S
C412 C411 1.398 . S
C412 C413 1.391 . S
C413 H401 0.950 . S
C413 C409 1.393 . S
C413 C412 1.391 . S
C414 H404 0.950 . S
C414 C415 1.386 . S
C414 C416 1.391 . S
C415 C414 1.386 . S
C415 C419 1.393 . S
C416 H405 0.950 . S
C416 C414 1.391 . S
C416 C417 1.400 . S
C417 C411 1.491 . S
C417 C416 1.400 . S
C417 C418 1.398 . S
C418 H406 0.950 . S
C418 C417 1.398 . S
C418 C419 1.391 . S
C419 H407 0.950 . S
C419 C415 1.393 . S
C419 C418 1.391 . S
H420 C428 0.950 . S
H421 C433 0.950 . S
H422 C430 0.950 . S
H423 C432 0.950 . S
H424 C434 0.950 1_565 S
H425 C436 0.950 . S
H426 C438 0.950 . S
H427 C439 0.950 . S
C428 H420 0.950 . S
C428 C429 1.386 1_556 S
C428 C430 1.391 . S
C429 C428 1.386 1_554 S
C429 C433 1.393 . S
C430 H422 0.950 . S
C430 C428 1.391 . S
C430 C431 1.400 1_556 S
C431 C430 1.400 1_554 S
C431 C432 1.398 . S
C431 C437 1.491 . S
C432 H423 0.950 . S
C432 C431 1.398 . S
C432 C433 1.391 . S
C433 H421 0.950 . S
C433 C429 1.393 . S
C433 C432 1.391 . S
C434 H424 0.950 1_545 S
C434 C435 1.386 . S
C434 C436 1.391 . S
C435 C434 1.386 . S
C435 C439 1.393 1_554 S
C436 H425 0.950 . S
C436 C434 1.391 . S
C436 C437 1.400 . S
C437 C431 1.491 . S
C437 C436 1.400 . S
C437 C438 1.398 1_554 S
C438 H426 0.950 . S
C438 C437 1.398 1_556 S
C438 C439 1.391 . S
C439 H427 0.950 . S
C439 C435 1.393 1_556 S
C439 C438 1.391 . S
H440 C448 0.950 . S
H441 C453 0.950 . S
H442 C450 0.950 . S
H443 C452 0.950 . S
H444 C454 0.950 . S
H445 C456 0.950 . S
H446 C458 0.950 . S
H447 C459 0.950 . S
C448 H440 0.950 . S
C448 C449 1.386 . S
C448 C450 1.391 . S
C449 C448 1.386 . S
C449 C453 1.393 . S
C450 H442 0.950 . S
C450 C448 1.391 . S
C450 C451 1.400 . S
C451 C450 1.400 . S
C451 C452 1.398 . S
C451 C457 1.491 . S
C452 H443 0.950 . S
C452 C451 1.398 . S
C452 C453 1.391 . S
C453 H441 0.950 . S
C453 C449 1.393 . S
C453 C452 1.391 . S
C454 H444 0.950 . S
C454 C455 1.386 . S
C454 C456 1.391 . S
C455 C454 1.386 . S
C455 C459 1.393 . S
C456 H445 0.950 . S
C456 C454 1.391 . S
C456 C457 1.400 . S
C457 C451 1.491 . S
C457 C456 1.400 . S
C457 C458 1.398 . S
C458 H446 0.950 . S
C458 C457 1.398 . S
C458 C459 1.391 . S
C459 H447 0.950 . S
C459 C455 1.393 . S
C459 C458 1.391 . S
H460 C468 0.950 . S
H461 C473 0.950 . S
H462 C470 0.950 . S
H463 C472 0.950 . S
H464 C474 0.950 . S
H465 C476 0.950 . S
H466 C478 0.950 . S
H467 C479 0.950 . S
C468 H460 0.950 . S
C468 C469 1.386 1_655 S
C468 C470 1.391 1_655 S
C469 C468 1.386 1_455 S
C469 C473 1.393 . S
C470 H462 0.950 . S
C470 C468 1.391 1_455 S
C470 C471 1.400 . S
C471 C470 1.400 . S
C471 C472 1.398 . S
C471 C477 1.491 . S
C472 H463 0.950 . S
C472 C471 1.398 . S
C472 C473 1.391 . S
C473 H461 0.950 . S
C473 C469 1.393 . S
C473 C472 1.391 . S
C474 H464 0.950 . S
C474 C475 1.386 . S
C474 C476 1.391 . S
C475 C474 1.386 . S
C475 C479 1.393 . S
C476 H465 0.950 . S
C476 C474 1.391 . S
C476 C477 1.400 . S
C477 C471 1.491 . S
C477 C476 1.400 . S
C477 C478 1.398 . S
C478 H466 0.950 . S
C478 C477 1.398 . S
C478 C479 1.391 . S
C479 H467 0.950 . S
C479 C475 1.393 . S
C479 C478 1.391 . S
H480 C488 0.950 . S
H481 C493 0.950 . S
H482 C490 0.950 . S
H483 C492 0.950 . S
H484 C494 0.950 . S
H485 C496 0.950 . S
H486 C498 0.950 . S
H487 C499 0.950 . S
C488 H480 0.950 . S
C488 C489 1.386 . S
C488 C490 1.391 . S
C489 C488 1.386 . S
C489 C493 1.393 . S
C490 H482 0.950 . S
C490 C488 1.391 . S
C490 C491 1.400 . S
C491 C490 1.400 . S
C491 C492 1.398 . S
C491 C497 1.491 . S
C492 H483 0.950 . S
C492 C491 1.398 . S
C492 C493 1.391 . S
C493 H481 0.950 . S
C493 C489 1.393 . S
C493 C492 1.391 . S
C494 H484 0.950 . S
C494 C495 1.386 . S
C494 C496 1.391 . S
C495 C494 1.386 . S
C495 C499 1.393 . S
C496 H485 0.950 . S
C496 C494 1.391 . S
C496 C497 1.400 . S
C497 C491 1.491 . S
C497 C496 1.400 . S
C497 C498 1.398 . S
C498 H486 0.950 . S
C498 C497 1.398 . S
C498 C499 1.391 . S
C499 H487 0.950 . S
C499 C495 1.393 . S
C499 C498 1.391 . S
H500 C508 0.950 . S
H501 C513 0.950 . S
H502 C510 0.950 . S
H503 C512 0.950 . S
H504 C514 0.950 . S
H505 C516 0.950 . S
H506 C518 0.950 . S
H507 C519 0.950 . S
C508 H500 0.950 . S
C508 C509 1.386 . S
C508 C510 1.391 . S
C509 C508 1.386 . S
C509 C513 1.393 . S
C510 H502 0.950 . S
C510 C508 1.391 . S
C510 C511 1.400 . S
C511 C510 1.400 . S
C511 C512 1.398 . S
C511 C517 1.491 . S
C512 H503 0.950 . S
C512 C511 1.398 . S
C512 C513 1.391 . S
C513 H501 0.950 . S
C513 C509 1.393 . S
C513 C512 1.391 . S
C514 H504 0.950 . S
C514 C515 1.386 . S
C514 C516 1.391 . S
C515 C514 1.386 . S
C515 C519 1.393 . S
C516 H505 0.950 . S
C516 C514 1.391 . S
C516 C517 1.400 . S
C517 C511 1.491 . S
C517 C516 1.400 . S
C517 C518 1.398 . S
C518 H506 0.950 . S
C518 C517 1.398 . S
C518 C519 1.391 . S
C519 H507 0.950 . S
C519 C515 1.393 . S
C519 C518 1.391 . S
H520 C528 0.950 1_455 S
H521 C533 0.950 . S
H522 C530 0.950 . S
H523 C532 0.950 . S
H524 C534 0.950 . S
H525 C536 0.950 . S
H526 C538 0.950 . S
H527 C539 0.950 . S
C528 H520 0.950 1_655 S
C528 C529 1.386 . S
C528 C530 1.391 . S
C529 C528 1.386 . S
C529 C533 1.393 . S
C530 H522 0.950 . S
C530 C528 1.391 . S
C530 C531 1.400 . S
C531 C530 1.400 . S
C531 C532 1.398 . S
C531 C537 1.491 . S
C532 H523 0.950 . S
C532 C531 1.398 . S
C532 C533 1.391 . S
C533 H521 0.950 . S
C533 C529 1.393 . S
C533 C532 1.391 . S
C534 H524 0.950 . S
C534 C535 1.386 . S
C534 C536 1.391 . S
C535 C534 1.386 . S
C535 C539 1.393 . S
C536 H525 0.950 . S
C536 C534 1.391 . S
C536 C537 1.400 . S
C537 C531 1.491 . S
C537 C536 1.400 . S
C537 C538 1.398 . S
C538 H526 0.950 . S
C538 C537 1.398 . S
C538 C539 1.391 . S
C539 H527 0.950 . S
C539 C535 1.393 . S
C539 C538 1.391 . S
H540 C548 0.950 1_545 S
H541 C553 0.950 . S
H542 C550 0.950 . S
H543 C552 0.950 . S
H544 C554 0.950 . S
H545 C556 0.950 . S
H546 C558 0.950 . S
H547 C559 0.950 . S
C548 H540 0.950 1_565 S
C548 C549 1.386 . S
C548 C550 1.391 . S
C549 C548 1.386 . S
C549 C553 1.393 . S
C550 H542 0.950 . S
C550 C548 1.391 . S
C550 C551 1.400 . S
C551 C550 1.400 . S
C551 C552 1.398 . S
C551 C557 1.491 . S
C552 H543 0.950 . S
C552 C551 1.398 . S
C552 C553 1.391 . S
C553 H541 0.950 . S
C553 C549 1.393 . S
C553 C552 1.391 . S
C554 H544 0.950 . S
C554 C555 1.386 . S
C554 C556 1.391 . S
C555 C554 1.386 . S
C555 C559 1.393 . S
C556 H545 0.950 . S
C556 C554 1.391 . S
C556 C557 1.400 . S
C557 C551 1.491 . S
C557 C556 1.400 . S
C557 C558 1.398 . S
C558 H546 0.950 . S
C558 C557 1.398 . S
C558 C559 1.391 . S
C559 H547 0.950 . S
C559 C555 1.393 . S
C559 C558 1.391 . S
H560 C568 0.950 . S
H561 C573 0.950 . S
H562 C570 0.950 . S
H563 C572 0.950 . S
H564 C574 0.950 . S
H565 C576 0.950 . S
H566 C578 0.950 . S
H567 C579 0.950 . S
C568 H560 0.950 . S
C568 C569 1.386 . S
C568 C570 1.391 . S
C569 C568 1.386 . S
C569 C573 1.393 . S
C570 H562 0.950 . S
C570 C568 1.391 . S
C570 C571 1.400 . S
C571 C570 1.400 . S
C571 C572 1.398 . S
C571 C577 1.491 . S
C572 H563 0.950 . S
C572 C571 1.398 . S
C572 C573 1.391 . S
C573 H561 0.950 . S
C573 C569 1.393 . S
C573 C572 1.391 . S
C574 H564 0.950 . S
C574 C575 1.386 . S
C574 C576 1.391 . S
C575 C574 1.386 . S
C575 C579 1.393 . S
C576 H565 0.950 . S
C576 C574 1.391 . S
C576 C577 1.400 . S
C577 C571 1.491 . S
C577 C576 1.400 . S
C577 C578 1.398 . S
C578 H566 0.950 . S
C578 C577 1.398 . S
C578 C579 1.391 . S
C579 H567 0.950 . S
C579 C575 1.393 . S
C579 C578 1.391 . S
H580 C588 0.950 . S
H581 C593 0.950 . S
H582 C590 0.950 . S
H583 C592 0.950 . S
H584 C594 0.950 . S
H585 C596 0.950 . S
H586 C598 0.950 . S
H587 C599 0.950 . S
C588 H580 0.950 . S
C588 C589 1.386 . S
C588 C590 1.391 . S
C589 C588 1.386 . S
C589 C593 1.393 . S
C590 H582 0.950 . S
C590 C588 1.391 . S
C590 C591 1.400 . S
C591 C590 1.400 . S
C591 C592 1.398 . S
C591 C597 1.491 . S
C592 H583 0.950 . S
C592 C591 1.398 . S
C592 C593 1.391 . S
C593 H581 0.950 . S
C593 C589 1.393 . S
C593 C592 1.391 . S
C594 H584 0.950 . S
C594 C595 1.386 . S
C594 C596 1.391 . S
C595 C594 1.386 . S
C595 C599 1.393 . S
C596 H585 0.950 . S
C596 C594 1.391 . S
C596 C597 1.400 . S
C597 C591 1.491 . S
C597 C596 1.400 . S
C597 C598 1.398 . S
C598 H586 0.950 . S
C598 C597 1.398 . S
C598 C599 1.391 . S
C599 H587 0.950 . S
C599 C595 1.393 . S
C599 C598 1.391 . S
C249 C129 0.658 . S
C255 C9 0.639 . S
C269 C169 0.714 . S
C275 C49 0.722 . S
C289 C209 0.646 . S
C295 C89 0.631 . S
C309 C15 0.725 . S
C315 C86 0.719 . S
C329 C55 0.732 . S
C335 C126 0.719 . S
C349 C95 0.737 . S
C355 C166 0.772 . S
C369 C135 0.713 . S
C375 C206 0.728 . S
C389 C175 0.737 . S
C395 C6 0.720 . S
C409 C215 0.719 . S
C415 C46 0.750 . S
C429 C18 1.480 . S
C435 C138 1.471 1_545 S
C449 C58 1.469 . S
C455 C178 1.479 . S
C469 C98 1.479 1_455 S
C475 C218 1.469 . S
C489 C10 4.034 . S
C495 C59 4.092 . S
C509 C50 4.042 . S
C515 C99 4.094 . S
C529 C90 4.042 . S
C535 C139 4.093 . S
C549 C130 4.042 . S
C555 C179 4.093 . S
C569 C170 4.039 1_455 S
C575 C219 4.092 . S
C589 C210 4.040 1_545 S
C595 C19 4.092 . S
