# Generated by pormake.
# Topology smm, (6)-cn, num edge types: 1
# Building blocks:
#     Node 0, Type 0, BuildingBlock: KUMBOL_clean_sbu_0, # of connection points: 6
#     Node 1, Type 0, BuildingBlock: KUMBOL_clean_sbu_0, # of connection points: 6
#     Node 2, Type 0, BuildingBlock: KUMBOL_clean_sbu_0, # of connection points: 6
#     Node 3, Type 0, BuildingBlock: KUMBOL_clean_sbu_0, # of connection points: 6
#     Node 4, Type 0, BuildingBlock: KUMBOL_clean_sbu_0, # of connection points: 6
#     Node 5, Type 0, BuildingBlock: KUMBOL_clean_sbu_0, # of connection points: 6
#     Node 6, Type 0, BuildingBlock: KUMBOL_clean_sbu_0, # of connection points: 6
#     Node 7, Type 0, BuildingBlock: KUMBOL_clean_sbu_0, # of connection points: 6
#     Node 8, Type 0, BuildingBlock: KUMBOL_clean_sbu_0, # of connection points: 6
#     Edge 9, Type (0, 0), BuildingBlock: XIVTED_clean_linker_0, # of connection points: 2
#     Edge 10, Type (0, 0), BuildingBlock: XIVTED_clean_linker_0, # of connection points: 2
#     Edge 11, Type (0, 0), BuildingBlock: XIVTED_clean_linker_0, # of connection points: 2
#     Edge 12, Type (0, 0), BuildingBlock: XIVTED_clean_linker_0, # of connection points: 2
#     Edge 13, Type (0, 0), BuildingBlock: XIVTED_clean_linker_0, # of connection points: 2
#     Edge 14, Type (0, 0), BuildingBlock: XIVTED_clean_linker_0, # of connection points: 2
#     Edge 15, Type (0, 0), BuildingBlock: XIVTED_clean_linker_0, # of connection points: 2
#     Edge 16, Type (0, 0), BuildingBlock: XIVTED_clean_linker_0, # of connection points: 2
#     Edge 17, Type (0, 0), BuildingBlock: XIVTED_clean_linker_0, # of connection points: 2
#     Edge 18, Type (0, 0), BuildingBlock: XIVTED_clean_linker_0, # of connection points: 2
#     Edge 19, Type (0, 0), BuildingBlock: XIVTED_clean_linker_0, # of connection points: 2
#     Edge 20, Type (0, 0), BuildingBlock: XIVTED_clean_linker_0, # of connection points: 2
#     Edge 21, Type (0, 0), BuildingBlock: XIVTED_clean_linker_0, # of connection points: 2
#     Edge 22, Type (0, 0), BuildingBlock: XIVTED_clean_linker_0, # of connection points: 2
#     Edge 23, Type (0, 0), BuildingBlock: XIVTED_clean_linker_0, # of connection points: 2
#     Edge 24, Type (0, 0), BuildingBlock: XIVTED_clean_linker_0, # of connection points: 2
#     Edge 25, Type (0, 0), BuildingBlock: XIVTED_clean_linker_0, # of connection points: 2
#     Edge 26, Type (0, 0), BuildingBlock: XIVTED_clean_linker_0, # of connection points: 2
#     Edge 27, Type (0, 0), BuildingBlock: XIVTED_clean_linker_0, # of connection points: 2
#     Edge 28, Type (0, 0), BuildingBlock: XIVTED_clean_linker_0, # of connection points: 2
#     Edge 29, Type (0, 0), BuildingBlock: XIVTED_clean_linker_0, # of connection points: 2
#     Edge 30, Type (0, 0), BuildingBlock: XIVTED_clean_linker_0, # of connection points: 2
#     Edge 31, Type (0, 0), BuildingBlock: XIVTED_clean_linker_0, # of connection points: 2
#     Edge 32, Type (0, 0), BuildingBlock: XIVTED_clean_linker_0, # of connection points: 2
#     Edge 33, Type (0, 0), BuildingBlock: XIVTED_clean_linker_0, # of connection points: 2
#     Edge 34, Type (0, 0), BuildingBlock: XIVTED_clean_linker_0, # of connection points: 2
#     Edge 35, Type (0, 0), BuildingBlock: XIVTED_clean_linker_0, # of connection points: 2
# Relax obj value: 0.115
# Max RMSD: 0.258
# Mean RMSD: 0.195
data_MOF--net-smm--node1-KUMBOL_clean_sbu_0--edge1-XIVTED_clean_linker_0
_symmetry_space_group_name_H-M    P1
_symmetry_Int_Tables_number       1
_symmetry_cell_setting            triclinic
loop_
_symmetry_equiv_pos_as_xyz
'x, y, z'
_cell_length_a     58.371243
_cell_length_b     72.522778
_cell_length_c     15.160611
_cell_angle_alpha  98.821423
_cell_angle_beta   99.06599
_cell_angle_gamma 121.98193
loop_
_atom_site_label
_atom_site_type_symbol
_atom_site_fract_x
_atom_site_fract_y
_atom_site_fract_z
_atom_type_partial_charge
Gd0 Gd 1.02392 0.19408 0.06179 0.0
Gd1 Gd 0.09791 0.24457 0.1495 0.0
C2 C 0.17226 0.24016 0.25099 0.0
C3 C 0.18689 0.25753 0.41777 0.0
C4 C 0.14749 0.25436 0.31671 0.0
C5 C 0.15052 0.24364 0.24051 0.0
C6 C 0.16592 0.26179 0.4061 0.0
C7 C 0.19006 0.24674 0.34031 0.0
C8 C 0.17596 0.23081 0.17111 0.0
C9 C 0.15879 0.22589 0.08355 0.0
N10 N 0.13311 0.23771 0.15537 0.0
C11 C 0.1376 0.22977 0.0769 0.0
H12 H 0.12437 0.22586 0.00896 0.0
C13 C 0.1252 0.27094 0.37405 0.0
N14 N 0.12729 0.25847 0.30249 0.0
C15 C 0.14284 0.27854 0.46421 0.0
C16 C 0.16313 0.27376 0.48052 0.0
H17 H 0.10941 0.27453 0.36207 0.0
H18 H 0.20675 0.24404 0.34993 0.0
H19 H 0.99532 0.2098 0.20736 0.0
H20 H 0.19238 0.22782 0.17612 0.0
H21 H 0.16178 0.21904 0.02119 0.0
H22 H 0.20114 0.26296 0.486 0.0
H23 H 1.0105 0.16303 0.84379 0.0
H24 H 0.92722 0.20806 0.04379 0.0
H25 H 0.95732 0.21571 0.19755 0.0
H26 H 0.91914 0.1754 0.73192 0.0
H27 H 0.14075 0.28802 0.52106 0.0
H28 H 0.17685 0.27974 0.55035 0.0
H29 H 0.91347 0.19338 0.87019 0.0
H30 H 0.97866 0.15019 0.68814 0.0
N31 N 0.98786 0.19982 0.06067 0.0
C32 C 0.94398 0.20549 0.04765 0.0
C33 C 0.96088 0.20978 0.13455 0.0
C34 C 0.94823 0.19712 0.96685 0.0
C35 C 0.9704 0.1941 0.97563 0.0
C36 C 0.98256 0.20651 0.1398 0.0
N37 N 0.99389 0.17976 0.90888 0.0
C38 C 0.97345 0.18375 0.89762 0.0
C39 C 0.97709 0.15973 0.74634 0.0
C40 C 0.95699 0.16471 0.73284 0.0
C41 C 0.9952 0.16712 0.83532 0.0
C42 C 0.95464 0.1765 0.80903 0.0
H43 H 0.94294 0.15887 0.66378 0.0
O44 O 1.02173 0.1656 0.10183 0.0
O45 O 0.06946 0.20647 0.10544 0.0
O46 O 0.08312 0.22965 -0.00564 0.0
O47 O 1.03431 0.21096 0.94869 0.0
O48 O 0.04345 0.1785 -0.00919 0.0
O49 O 0.98627 0.16785 0.09006 0.0
O50 O 0.11897 0.28091 0.17342 0.0
O51 O 0.0525 0.23174 0.11166 0.0
O52 O 1.03778 0.21108 0.21503 0.0
O53 O 0.08589 0.22689 0.25995 0.0
O54 O 0.07941 0.2637 0.20069 0.0
O55 O 0.12129 0.26148 0.05595 0.0
C56 C 0.06887 0.19169 0.0456 0.0
C57 C 0.93358 0.18065 0.79955 0.0
C58 C 0.93037 0.19092 0.87827 0.0
C59 C 0.99549 0.15523 0.10005 0.0
C60 C 0.97698 0.13113 0.04492 0.0
C61 C 0.9573 0.12435 0.95963 0.0
C62 C 0.97968 0.11482 0.07594 0.0
C63 C 0.96293 0.09189 0.02203 0.0
C64 C 0.94061 0.10175 0.90629 0.0
C65 C 0.94335 0.08564 0.93698 0.0
C66 C 0.0591 0.22165 0.9323 0.0
C67 C 0.05341 0.24865 0.15526 0.0
C68 C 0.12995 0.28163 0.10426 0.0
C69 C 0.16025 0.2996 0.12412 0.0
C70 C 0.1798 0.30263 0.20162 0.0
C71 C 0.16979 0.31396 0.06586 0.0
C72 C 0.19878 0.33128 0.08509 0.0
C73 C 0.20835 0.31967 0.22126 0.0
C74 C 0.21779 0.3339 0.16392 0.0
C75 C 0.06125 0.21797 0.27751 0.0
H76 H 0.95483 0.13651 0.93395 0.0
H77 H 0.99514 0.12008 0.14112 0.0
H78 H 0.92543 0.09667 0.84079 0.0
H79 H 0.92976 0.06817 0.89456 0.0
H80 H 0.17299 0.29195 0.24745 0.0
H81 H 0.1547 0.31146 0.00543 0.0
H82 H 0.22325 0.32196 0.28168 0.0
H83 H 0.24005 0.34723 0.18246 0.0
Gd84 Gd 0.93613 0.8703 0.07926 0.0
Gd85 Gd 0.93778 0.82029 0.03427 0.0
C86 C 1.02552 0.84097 0.01968 0.0
C87 C 1.0159 0.82082 0.86033 0.0
C88 C 0.97762 0.81699 0.91911 0.0
C89 C 0.99654 0.8317 0.00432 0.0
C90 C 0.98694 0.81077 0.84709 0.0
C91 C 1.03518 0.83596 0.94645 0.0
C92 C 0.04375 0.85435 0.10901 0.0
C93 C 1.03279 0.85748 0.18096 0.0
N94 N 0.98639 0.83579 0.07392 0.0
C95 C 1.00387 0.84786 0.16226 0.0
H96 H 0.99575 0.85042 0.21846 0.0
C97 C 0.92999 0.78995 0.83235 0.0
N98 N 0.94982 0.8075 0.90896 0.0
C99 C 0.93816 0.78325 0.75874 0.0
C100 C 0.96678 0.79399 0.76541 0.0
H101 H 0.90784 0.78178 0.82687 0.0
H102 H 0.0574 0.84311 0.95663 0.0
H103 H 0.92732 0.88963 0.89727 0.0
H104 H 0.06615 0.86181 0.12369 0.0
H105 H 0.04661 0.86739 0.25078 0.0
H106 H 1.02353 0.81649 0.80543 0.0
H107 H 0.91176 0.85377 0.26027 0.0
H108 H 0.84637 0.87868 0.83967 0.0
H109 H 0.89123 0.89187 0.80126 0.0
H110 H 0.8128 0.85257 0.09307 0.0
H111 H 0.9224 0.76984 0.69693 0.0
H112 H 0.97307 0.78871 0.70847 0.0
H113 H 0.81734 0.86414 0.94917 0.0
H114 H 0.87206 0.84531 0.32111 0.0
N115 N 0.90205 0.87271 0.98282 0.0
C116 C 0.86187 0.87707 0.88053 0.0
C117 C 0.88709 0.88446 0.85848 0.0
C118 C 0.85761 0.86879 0.95801 0.0
C119 C 0.87847 0.86699 0.00888 0.0
C120 C 0.90731 0.88276 0.91214 0.0
N121 N 0.8965 0.85912 0.1368 0.0
C122 C 0.87589 0.86044 0.08938 0.0
C123 C 0.87272 0.8494 0.25543 0.0
C124 C 0.85102 0.85 0.20589 0.0
C125 C 0.89535 0.85408 0.21992 0.0
C126 C 0.85241 0.8556 0.12186 0.0
H127 H 0.83341 0.84621 0.2332 0.0
O128 O 0.95554 0.89696 0.20939 0.0
O129 O 0.96667 0.85978 0.07809 0.0
O130 O 0.94226 0.83124 0.18509 0.0
O131 O 0.95601 0.86858 0.21529 0.0
O132 O 0.97035 0.88364 0.00948 0.0
O133 O 0.95422 0.90553 0.08003 0.0
O134 O 0.90631 0.78351 0.00341 0.0
O135 O 0.91111 0.83322 0.06353 0.0
O136 O 0.92485 0.85586 0.92305 0.0
O137 O 0.93594 0.82915 0.89978 0.0
O138 O 0.8925 0.80475 0.95185 0.0
O139 O 0.94286 0.79988 0.11856 0.0
C140 C 0.98184 0.87341 0.03315 0.0
C141 C 0.83114 0.85659 0.06991 0.0
C142 C 0.83367 0.86307 -0.01217 0.0
C143 C 0.95898 0.9125 0.16916 0.0
C144 C 0.94761 0.92565 0.20021 0.0
C145 C 0.92832 0.91795 0.25304 0.0
C146 C 0.95568 0.94589 0.17614 0.0
C147 C 0.94478 0.95839 0.20544 0.0
C148 C 0.91731 0.93008 0.28131 0.0
C149 C 0.92544 0.95011 0.25794 0.0
C150 C 0.95255 0.85107 0.24273 0.0
C151 C 0.88836 0.81851 -0.00064 0.0
C152 C 0.9198 0.78045 0.06984 0.0
C153 C 0.92138 0.76011 0.0467 0.0
C154 C 0.94319 0.76262 0.01045 0.0
C155 C 0.90191 0.73838 0.06025 0.0
C156 C 0.90449 0.71968 0.03579 0.0
C157 C 0.94599 0.7447 -0.01218 0.0
C158 C 0.92706 0.72367 8e-05 0.0
C159 C 0.92883 0.84208 0.87016 0.0
H160 H 0.92162 0.9025 0.27263 0.0
H161 H 0.97061 0.95198 0.13567 0.0
H162 H 0.90233 0.92388 0.32143 0.0
H163 H 0.9162 0.95898 0.27992 0.0
H164 H 0.95834 0.77864 -0.00012 0.0
H165 H 0.88479 0.73599 0.08777 0.0
H166 H 0.96309 0.74711 0.96016 0.0
H167 H 0.93023 0.71032 0.98147 0.0
Gd168 Gd 0.21635 0.05386 0.07564 0.0
Gd169 Gd 0.23461 1.0128 0.05635 0.0
C170 C 0.15978 0.93991 0.00824 0.0
C171 C 0.17203 0.93168 0.15079 0.0
C172 C 0.20351 0.96843 0.12721 0.0
C173 C 0.18479 0.96198 0.04212 0.0
C174 C 0.1978 0.95307 0.1811 0.0
C175 C 0.15305 0.9251 0.06438 0.0
C176 C 0.14289 0.93308 0.91751 0.0
C177 C 0.15144 0.94792 0.86232 0.0
N178 N 0.19206 0.97667 -0.01063 0.0
C179 C 0.17622 0.96973 0.89947 0.0
H180 H 0.18252 0.98082 0.85556 0.0
C181 C 0.24979 0.99426 0.22699 0.0
N182 N 0.22842 0.98901 0.1534 0.0
C183 C 0.24505 0.97975 0.28338 0.0
C184 C 0.21872 0.95925 0.26141 0.0
H185 H 0.27016 1.01017 0.24425 0.0
H186 H 0.1337 0.90823 0.04018 0.0
H187 H 0.218 0.07792 0.28913 0.0
H188 H 0.12361 0.91624 0.88874 0.0
H189 H 0.13885 0.94265 0.79134 0.0
H190 H 0.16708 0.91977 0.19186 0.0
H191 H 0.23879 0.06759 0.88928 0.0
H192 H 0.29663 0.14249 0.40522 0.0
H193 H 0.25084 0.11241 0.41975 0.0
H194 H 0.33508 0.15464 0.14748 0.0
H195 H 0.2617 0.98438 0.34357 0.0
H196 H 0.21516 0.94795 0.3047 0.0
H197 H 0.32808 0.15799 0.30331 0.0
H198 H 0.2784 0.09863 0.85287 0.0
N199 N 0.2461 0.08697 0.20441 0.0
C200 C 0.28256 0.1271 0.34834 0.0
C201 C 0.25675 0.11019 0.3568 0.0
C202 C 0.28901 0.12461 0.26422 0.0
C203 C 0.26995 0.1042 0.19219 0.0
C204 C 0.23833 0.09055 0.28279 0.0
N205 N 0.2542 0.08304 0.0354 0.0
C206 C 0.2739 0.10234 0.10463 0.0
C207 C 0.27763 0.09982 0.92424 0.0
C208 C 0.29884 0.1192 -0.00465 0.0
C209 C 0.25528 0.08195 0.94552 0.0
C210 C 0.29698 0.12081 0.08668 0.0
H211 H 0.31616 0.13301 0.97873 0.0
O212 O 0.19591 0.06354 0.97709 0.0
O213 O 0.19764 1.01599 0.03958 0.0
O214 O 0.22736 1.01955 0.91925 0.0
O215 O 0.2004 0.03423 0.92458 0.0
O216 O 0.17926 1.02722 0.11805 0.0
O217 O 0.18965 0.06481 0.11218 0.0
O218 O 0.2727 1.01295 0.07268 0.0
O219 O 0.25156 0.04938 0.0605 0.0
O220 O 0.22777 0.0506 0.21836 0.0
O221 O 0.22939 1.01876 0.19866 0.0
O222 O 0.27591 0.04381 0.15186 0.0
O223 O 0.24109 0.99604 0.94065 0.0
C224 C 0.17795 1.00934 0.08027 0.0
C225 C 0.31698 0.14049 0.15966 0.0
C226 C 0.31305 0.14237 0.24842 0.0
C227 C 0.18577 0.07006 0.03573 0.0
C228 C 0.19169 0.09324 0.04599 0.0
C229 C 0.21877 0.11122 0.04971 0.0
C230 C 0.17111 0.09795 0.05368 0.0
C231 C 0.17832 0.12053 0.06797 0.0
C232 C 0.22591 0.13327 0.06438 0.0
C233 C 0.20603 0.13793 0.0741 0.0
C234 C 0.21065 1.02469 0.87868 0.0
C235 C 0.27574 0.05929 0.12033 0.0
C236 C 0.26455 1.00003 -0.011 0.0
C237 C 0.26711 0.98049 0.9792 0.0
C238 C 0.24357 0.95894 0.97203 0.0
C239 C 0.29263 0.98297 0.97372 0.0
C240 C 0.29415 0.96387 0.95886 0.0
C241 C 0.24508 0.94021 0.95877 0.0
C242 C 0.26999 0.94257 0.95177 0.0
C243 C 0.22929 0.03516 0.24933 0.0
H244 H 0.23455 0.10828 0.04061 0.0
H245 H 0.14991 0.08431 0.04952 0.0
H246 H 0.24703 0.14686 0.06761 0.0
H247 H 0.2122 0.15525 0.08429 0.0
H248 H 0.22383 0.95648 0.97558 0.0
H249 H 0.31093 0.99951 0.97891 0.0
H250 H 0.22673 0.92369 0.9534 0.0
H251 H 0.27045 0.92767 0.94195 0.0
Gd252 Gd 0.79918 0.51682 0.10237 0.0
Gd253 Gd 0.73989 0.52102 0.08493 0.0
C254 C 0.65754 0.45353 0.05495 0.0
C255 C 0.63036 0.44459 0.89715 0.0
C256 C 0.6774 0.47935 0.96221 0.0
C257 C 0.68007 0.47355 0.04367 0.0
C258 C 0.65208 0.46538 0.8892 0.0
C259 C 0.63308 0.43868 0.98007 0.0
C260 C 0.65982 0.44953 0.14223 0.0
C261 C 0.68372 0.46567 0.21616 0.0
N262 N 0.7039 0.48841 0.11458 0.0
C263 C 0.7056 0.48514 0.20105 0.0
H264 H 0.72383 0.4974 0.25865 0.0
C265 C 0.69411 0.50856 0.88865 0.0
N266 N 0.69842 0.49985 0.95851 0.0
C267 C 0.66965 0.49522 0.81361 0.0
C268 C 0.64877 0.47331 0.81289 0.0
H269 H 0.71 0.52566 0.89001 0.0
H270 H 0.61574 0.42303 -0.01317 0.0
H271 H 0.81014 0.49426 0.91708 0.0
H272 H 0.64297 0.43439 0.15388 0.0
H273 H 0.68545 0.46304 0.2846 0.0
H274 H 0.61092 0.43346 0.84128 0.0
H275 H 0.83056 0.56074 0.29495 0.0
H276 H 0.87722 0.54826 0.8439 0.0
H277 H 0.84077 0.50734 0.81316 0.0
H278 H 0.91167 0.61329 0.09664 0.0
H279 H 0.66682 0.50193 0.75692 0.0
H280 H 0.62965 0.46311 0.75538 0.0
H281 H 0.90335 0.58785 0.94963 0.0
H282 H 0.87011 0.60101 0.34921 0.0
N283 N 0.82796 0.52754 0.00159 0.0
C284 C 0.86368 0.54261 0.88904 0.0
C285 C 0.84319 0.5195 0.87157 0.0
C286 C 0.86739 0.55803 0.96726 0.0
C287 C 0.84919 0.5498 0.02373 0.0
C288 C 0.82591 0.51217 0.93032 0.0
N289 N 0.8373 0.55512 0.16253 0.0
C290 C 0.85412 0.56402 0.10705 0.0
C291 C 0.86577 0.59083 0.28073 0.0
C292 C 0.88251 0.60049 0.22287 0.0
C293 C 0.84324 0.56796 0.24953 0.0
C294 C 0.87706 0.587 0.13535 0.0
H295 H 0.89991 0.61822 0.24714 0.0
O296 O 0.82965 0.51837 0.21256 0.0
O297 O 0.75406 0.49833 0.1068 0.0
O298 O 0.76455 0.53337 0.23573 0.0
O299 O 0.79053 0.51791 0.24105 0.0
O300 O 0.76409 0.48059 0.01949 0.0
O301 O 0.80709 0.49042 0.08823 0.0
O302 O 0.73027 0.54592 0.07437 0.0
O303 O 0.78735 0.54227 0.11364 0.0
O304 O 0.78321 0.51411 0.95383 0.0
O305 O 0.7385 0.50692 0.93874 0.0
O306 O 0.764 0.54763 0.01543 0.0
O307 O 0.7269 0.53303 0.19387 0.0
C308 C 0.7441 0.47896 0.0518 0.0
C309 C 0.89418 0.59562 0.0766 0.0
C310 C 0.88939 0.58115 -0.00724 0.0
C311 C 0.82678 0.50018 0.16665 0.0
C312 C 0.85288 0.50139 0.16429 0.0
C313 C 0.87598 0.5209 0.15352 0.0
C314 C 0.85469 0.48288 0.17103 0.0
C315 C 0.87937 0.48386 0.16594 0.0
C316 C 0.90038 0.52206 0.14926 0.0
C317 C 0.90211 0.50379 0.15535 0.0
C318 C 0.77908 0.52703 0.2813 0.0
C319 C 0.78925 0.55468 0.05877 0.0
C320 C 0.72316 0.54585 0.15128 0.0
C321 C 0.69717 0.54461 0.14934 0.0
C322 C 0.67076 0.52537 0.09546 0.0
C323 C 0.6989 0.56283 0.20521 0.0
C324 C 0.6744 0.56193 0.20836 0.0
C325 C 0.64632 0.52442 0.0975 0.0
C326 C 0.64805 0.54254 0.15384 0.0
C327 C 0.75859 0.50832 0.90395 0.0
H328 H 0.87521 0.53529 0.14856 0.0
H329 H 0.83682 0.46768 0.17853 0.0
H330 H 0.91811 0.53724 0.14125 0.0
H331 H 0.92152 0.50543 0.1528 0.0
H332 H 0.66898 0.51108 0.05261 0.0
H333 H 0.71934 0.57747 0.24821 0.0
H334 H 0.62597 0.50954 0.05579 0.0
H335 H 0.62883 0.54143 0.15451 0.0
Gd336 Gd 0.52765 0.22408 0.13905 0.0
Gd337 Gd 0.52184 0.17061 0.11258 0.0
C338 C 0.59163 0.16146 0.07407 0.0
C339 C 0.57218 0.13741 0.91485 0.0
C340 C 0.54554 0.1494 0.98344 0.0
C341 C 0.56723 0.1615 0.06539 0.0
C342 C 0.5476 0.13695 0.9076 0.0
C343 C 0.59418 0.14966 -0.00209 0.0
C344 C 0.61245 0.17282 0.15976 0.0
C345 C 0.60824 0.18321 0.23488 0.0
N346 N 0.56405 0.17261 0.13784 0.0
C347 C 0.5836 0.18264 0.22302 0.0
H348 H 0.58064 0.19073 0.2818 0.0
C349 C 0.49915 0.13597 0.90189 0.0
N350 N 0.52198 0.14917 0.97899 0.0
C351 C 0.50028 0.12346 0.82479 0.0
C352 C 0.52467 0.12406 0.82735 0.0
H353 H 0.48015 0.13533 0.89872 0.0
H354 H 0.61283 0.14956 0.00312 0.0
H355 H 0.46761 0.19913 0.96523 0.0
H356 H 0.63154 0.17326 0.16917 0.0
H357 H 0.62397 0.1917 0.30194 0.0
H358 H 0.5742 0.12804 0.8572 0.0
H359 H 0.5678 0.263 0.34412 0.0
H360 H 0.41071 0.20975 0.07163 0.0
H361 H 0.42128 0.19311 0.94247 0.0
H362 H 0.46598 0.25905 0.38022 0.0
H363 H 0.4823 0.11332 0.76348 0.0
H364 H 0.52543 0.11426 0.76766 0.0
H365 H 0.42751 0.23426 0.23531 0.0
H366 H 0.56275 0.28398 0.47588 0.0
N367 N 0.48327 0.21852 0.10731 0.0
C368 C 0.43115 0.21239 0.08235 0.0
C369 C 0.43706 0.20303 0.00922 0.0
C370 C 0.45194 0.22555 0.16768 0.0
C371 C 0.47815 0.22836 0.1781 0.0
C372 C 0.46348 0.20651 0.0226 0.0
N373 N 0.52479 0.24494 0.26625 0.0
C374 C 0.49965 0.24215 0.25987 0.0
C375 C 0.5448 0.27217 0.41577 0.0
C376 C 0.51868 0.26867 0.41231 0.0
C377 C 0.5476 0.26032 0.34113 0.0
C378 C 0.49578 0.25373 0.33321 0.0
H379 H 0.51657 0.2779 0.47014 0.0
O380 O 0.56538 0.2572 0.15072 0.0
O381 O 0.55008 0.20712 0.12231 0.0
O382 O 0.53892 0.19178 0.26265 0.0
O383 O 0.52209 0.21458 0.27059 0.0
O384 O 0.57272 0.23823 0.21915 0.0
O385 O 0.52751 0.24404 0.04377 0.0
O386 O 0.48918 0.13595 0.10427 0.0
O387 O 0.49782 0.18652 0.13123 0.0
O388 O 0.51191 0.20344 -0.01093 0.0
O389 O 0.53102 0.18233 -0.01324 0.0
O390 O 0.47714 0.1559 0.03289 0.0
O391 O 0.52466 0.15674 0.22823 0.0
C392 C 0.57419 0.22209 0.17837 0.0
C393 C 0.46946 0.25045 0.32436 0.0
C394 C 0.44756 0.23633 0.24183 0.0
C395 C 0.55363 0.26132 0.0836 0.0
C396 C 0.56016 0.28485 0.10252 0.0
C397 C 0.54248 0.28911 0.14053 0.0
C398 C 0.58452 0.3034 0.0871 0.0
C399 C 0.59094 0.32583 0.11126 0.0
C400 C 0.54855 0.31092 0.16343 0.0
C401 C 0.57245 0.32901 0.14953 0.0
C402 C 0.53156 0.20387 0.3087 0.0
C403 C 0.47369 0.17075 0.07397 0.0
C404 C 0.50262 0.13646 0.18314 0.0
C405 C 0.50622 0.11773 0.18314 0.0
C406 C 0.50672 0.10601 0.10145 0.0
C407 C 0.50973 0.11175 0.26602 0.0
C408 C 0.51371 0.09418 0.26744 0.0
C409 C 0.5106 0.08865 0.10223 0.0
C410 C 0.51401 0.08272 0.18423 0.0
C411 C 0.5206 0.19213 0.94553 0.0
H412 H 0.52396 0.27554 0.15329 0.0
H413 H 0.59861 0.30051 0.05864 0.0
H414 H 0.53467 0.31387 0.19299 0.0
H415 H 0.57651 0.34572 0.16879 0.0
H416 H 0.50403 0.11017 0.03678 0.0
H417 H 0.50973 0.12099 0.3294 0.0
H418 H 0.51081 0.07964 0.03879 0.0
H419 H 0.51644 0.06887 0.18194 0.0
Gd420 Gd 0.89638 0.31734 0.20424 0.0
Gd421 Gd 0.96818 0.36997 0.28792 0.0
C422 C 0.96414 0.43164 0.35971 0.0
C423 C 0.98407 0.45133 0.24746 0.0
C424 C 0.97951 0.41602 0.24916 0.0
C425 C 0.96751 0.41449 0.32163 0.0
C426 C 0.98854 0.43475 0.21268 0.0
C427 C 0.97192 0.44979 0.32096 0.0
C428 C 0.95345 0.43023 0.43656 0.0
C429 C 0.94697 0.4123 0.47462 0.0
N430 N 0.96006 0.39664 0.35714 0.0
C431 C 0.95065 0.39571 0.43436 0.0
H432 H 0.94619 0.3824 0.46617 0.0
C433 C 0.99955 0.40267 0.1568 0.0
N434 N 0.98377 0.39986 0.21784 0.0
C435 C 1.00859 0.42073 0.11756 0.0
C436 C 1.00266 0.43667 0.14453 0.0
H437 H 1.00479 0.39068 0.1374 0.0
H438 H 0.96912 0.46293 0.34845 0.0
H439 H 0.85632 0.29867 -0.01495 0.0
H440 H 0.95056 0.44305 0.46783 0.0
H441 H 0.93922 0.41127 0.53526 0.0
H442 H 0.99058 0.46569 0.21961 0.0
H443 H 0.91462 0.2997 0.37832 0.0
H444 H 0.85365 0.24161 0.84049 0.0
H445 H 0.84082 0.26913 0.8396 0.0
H446 H 0.89719 0.22593 0.086 0.0
H447 H 1.02036 0.42246 0.06731 0.0
H448 H 1.00991 0.45079 0.11475 0.0
H449 H 0.87528 0.22581 0.93302 0.0
H450 H 0.92245 0.27028 0.39835 0.0
N451 N 0.87911 0.28879 0.06479 0.0
C452 C 0.86069 0.25466 0.90396 0.0
C453 C 0.85336 0.27012 0.9032 0.0
C454 C 0.87578 0.2555 -0.01225 0.0
C455 C 0.88445 0.27284 0.06829 0.0
C456 C 0.86219 0.28682 -0.01468 0.0
N457 N 0.90274 0.28893 0.23045 0.0
C458 C 0.89647 0.27279 0.15411 0.0
C459 C 0.91538 0.2709 0.32912 0.0
C460 C 0.91056 0.25495 0.25103 0.0
C461 C 0.91117 0.28776 0.31747 0.0
C462 C 0.90057 0.25554 0.16208 0.0
H463 H 0.91396 0.24197 0.26021 0.0
O464 O 0.8644 0.29703 0.27036 0.0
O465 O 0.92198 0.35549 0.25997 0.0
O466 O 0.95748 0.35308 0.40013 0.0
O467 O 0.90874 0.33204 0.35734 0.0
O468 O 0.88734 0.33961 0.14107 0.0
O469 O 0.85402 0.30984 0.16386 0.0
O470 O 1.01318 0.38495 0.30706 0.0
O471 O 0.94298 0.33174 0.25433 0.0
O472 O 0.91227 0.32461 0.08066 0.0
O473 O 0.95282 0.36213 0.13341 0.0
O474 O 0.97794 0.34799 0.20409 0.0
O475 O 0.99789 0.38572 0.4264 0.0
C476 C 0.90751 0.35873 0.19978 0.0
C477 C 0.89377 0.2391 0.08143 0.0
C478 C 0.88136 0.23906 -0.00568 0.0
C479 C 0.84453 0.29743 0.21961 0.0
C480 C 0.81614 0.27565 0.17959 0.0
C481 C 0.81392 0.25625 0.13348 0.0
C482 C 0.79106 0.27412 0.1853 0.0
C483 C 0.76407 0.25333 0.14409 0.0
C484 C 0.78762 0.23579 0.0939 0.0
C485 C 0.76305 0.2343 0.09907 0.0
C486 C 0.93327 0.34212 0.41917 0.0
C487 C 0.95775 0.32854 0.20802 0.0
C488 C 1.02015 0.39266 0.39706 0.0
C489 C 0.04407 0.41686 0.44006 0.0
C490 C 1.03846 0.43348 0.45435 0.0
C491 C 0.07237 0.42354 0.4703 0.0
C492 C 0.09449 0.44661 0.51583 0.0
C493 C 0.06016 0.45617 0.49688 0.0
C494 C 0.08785 0.46269 0.52757 0.0
C495 C 0.93257 0.34341 0.06789 0.0
H496 H 0.8326 0.2569 0.12814 0.0
H497 H 0.79257 0.28909 0.22011 0.0
H498 H 0.78626 0.22091 0.0589 0.0
H499 H 0.74311 0.21799 0.06844 0.0
H500 H 1.0172 0.42893 0.43394 0.0
H501 H 0.07701 0.41087 0.46084 0.0
H502 H 0.05542 0.46877 0.50704 0.0
H503 H 0.10423 0.48049 0.56062 0.0
Gd504 Gd 0.43151 0.89615 0.86396 0.0
Gd505 Gd 0.50272 0.94923 0.93403 0.0
C506 C 0.58115 0.94903 0.01681 0.0
C507 C 0.59971 0.96905 0.18175 0.0
C508 C 0.55741 0.96351 0.0888 0.0
C509 C 0.55874 0.95172 0.01067 0.0
C510 C 0.57835 0.97283 0.17445 0.0
C511 C 0.6011 0.95717 0.10312 0.0
C512 C 0.58339 0.93886 0.9355 0.0
C513 C 0.56429 0.9325 0.85032 0.0
N514 N 0.53918 0.94408 0.9278 0.0
C515 C 0.54252 0.9356 0.84746 0.0
H516 H 0.52827 0.93061 0.7806 0.0
C517 C 0.53711 0.98151 0.1509 0.0
N518 N 0.53673 0.96714 0.07971 0.0
C519 C 0.55733 0.991 0.23714 0.0
C520 C 0.57777 0.98634 0.24947 0.0
H521 H 0.52124 0.98504 0.14214 0.0
H522 H 0.61819 0.95496 0.10919 0.0
H523 H 0.39987 0.9098 0.00183 0.0
H524 H 0.60023 0.93643 0.93738 0.0
H525 H 0.56627 0.92516 0.78667 0.0
H526 H 0.61576 0.97584 0.24724 0.0
H527 H 0.42288 0.86652 0.65403 0.0
H528 H 0.32359 0.89575 0.83268 0.0
H529 H 0.35698 0.90924 -0.01222 0.0
H530 H 0.31857 0.862 0.52652 0.0
H531 H 0.55709 1.00184 0.29408 0.0
H532 H 0.59347 0.99378 0.31632 0.0
H533 H 0.30969 0.8785 0.6603 0.0
H534 H 0.38976 0.84888 0.4964 0.0
N535 N 0.39157 0.89723 0.85602 0.0
C536 C 0.34246 0.89594 0.83843 0.0
C537 C 0.36121 0.90351 0.92606 0.0
C538 C 0.34786 0.88804 0.75959 0.0
C539 C 0.37273 0.88862 0.77101 0.0
C540 C 0.38564 0.90386 0.93366 0.0
N541 N 0.40071 0.87867 0.71144 0.0
C542 C 0.37749 0.87908 0.69623 0.0
C543 C 0.38608 0.85737 0.5519 0.0
C544 C 0.36266 0.85844 0.5344 0.0
C545 C 0.40477 0.86734 0.64154 0.0
C546 C 0.35787 0.86907 0.60725 0.0
H547 H 0.34813 0.85059 0.46501 0.0
O548 O 0.41699 0.86102 0.847 0.0
O549 O 0.47816 0.91164 0.91349 0.0
O550 O 0.4876 0.92888 0.78499 0.0
O551 O 0.43943 0.91209 0.74696 0.0
O552 O 0.45399 0.88097 0.81257 0.0
O553 O 0.41111 0.87869 0.96081 0.0
O554 O 0.50046 0.96662 0.83099 0.0
O555 O 0.45683 0.9339 0.89847 0.0
O556 O 0.44459 0.9137 0.01614 0.0
O557 O 0.49372 0.93813 0.0618 0.0
O558 O 0.48213 0.96541 -0.00517 0.0
O559 O 0.5378 0.98343 0.9461 0.0
C560 C 0.47909 0.8962 0.86533 0.0
C561 C 0.33379 0.86946 0.59446 0.0
C562 C 0.32875 0.87888 0.67058 0.0
C563 C 0.40565 0.85938 0.9154 0.0
C564 C 0.37689 0.83916 0.89672 0.0
C565 C 0.3535 0.84047 0.88606 0.0
C566 C 0.37288 0.81807 0.8889 0.0
C567 C 0.34572 0.79827 0.87027 0.0
C568 C 0.3265 0.82092 0.86813 0.0
C569 C 0.32256 0.79992 0.86028 0.0
C570 C 0.46337 0.92109 0.72472 0.0
C571 C 0.45648 0.94955 0.94735 0.0
C572 C 0.52454 0.98548 0.875 0.0
C573 C 0.52496 1.0063 0.88794 0.0
C574 C 0.52605 1.01729 0.97479 0.0
C575 C 0.52385 1.01514 0.81203 0.0
C576 C 0.5239 0.03487 0.8225 0.0
C577 C 0.52617 0.0368 -0.01418 0.0
C578 C 0.52516 0.04558 0.91057 0.0
C579 C 0.4693 0.92635 0.07993 0.0
H580 H 0.35598 0.85649 0.89158 0.0
H581 H 0.39102 0.81716 0.89802 0.0
H582 H 0.30854 0.82203 0.85977 0.0
H583 H 0.30134 0.78495 0.8447 0.0
H584 H 0.52683 1.01082 0.03417 0.0
H585 H 0.52254 1.00643 0.74464 0.0
H586 H 0.52714 0.04523 0.05313 0.0
H587 H 0.52576 0.06095 0.9218 0.0
Gd588 Gd 0.34056 0.5799 0.75467 0.0
Gd589 Gd 0.35851 0.53919 0.76008 0.0
C590 C 0.44485 0.56748 0.96037 0.0
C591 C 0.47599 0.58179 0.8632 0.0
C592 C 0.42567 0.56408 0.80038 0.0
C593 C 0.42172 0.56067 0.88528 0.0
C594 C 0.45286 0.57425 0.78786 0.0
C595 C 0.47208 0.57875 0.94973 0.0
C596 C 0.43974 0.56131 0.04169 0.0
C597 C 0.41206 0.54721 0.04416 0.0
N598 N 0.39496 0.54853 0.89141 0.0
C599 C 0.38989 0.54032 0.96702 0.0
H600 H 0.36857 0.52857 0.96863 0.0
C601 C 0.40532 0.55475 0.63948 0.0
N602 N 0.40264 0.55547 0.72776 0.0
C603 C 0.43185 0.56523 0.62401 0.0
C604 C 0.45581 0.57537 0.69878 0.0
H605 H 0.3872 0.5455 0.57953 0.0
H606 H 0.49004 0.58401 0.0064 0.0
H607 H 0.3029 0.54687 0.53466 0.0
H608 H 0.45692 0.56623 0.10075 0.0
H609 H 0.40774 0.54127 0.10475 0.0
H610 H 0.49674 0.58886 0.85395 0.0
H611 H 0.3419 0.61022 0.94932 0.0
H612 H 0.21733 0.52443 0.49919 0.0
H613 H 0.25432 0.52558 0.43506 0.0
H614 H 0.21865 0.56015 0.7943 0.0
H615 H 0.4337 0.56493 0.55396 0.0
H616 H 0.47629 0.583 0.68625 0.0
H617 H 0.20412 0.53689 0.63411 0.0
H618 H 0.30829 0.61301 0.02131 0.0
N619 N 0.29402 0.55727 0.65599 0.0
C620 C 0.23877 0.53382 0.54357 0.0
C621 C 0.25955 0.53438 0.50721 0.0
C622 C 0.246 0.54572 0.63631 0.0
C623 C 0.27425 0.55772 0.69127 0.0
C624 C 0.2872 0.54634 0.56447 0.0
N625 N 0.31005 0.58324 0.83067 0.0
C626 C 0.28243 0.57082 0.78157 0.0
C627 C 0.30067 0.60088 0.95435 0.0
C628 C 0.27195 0.58708 0.90752 0.0
C629 C 0.31958 0.59916 0.91365 0.0
C630 C 0.26257 0.57222 0.81914 0.0
H631 H 0.25735 0.58862 0.93871 0.0
O632 O 0.35423 0.61524 0.78585 0.0
O633 O 0.37668 0.57605 0.77259 0.0
O634 O 0.35554 0.5509 0.90051 0.0
O635 O 0.33693 0.57241 0.89124 0.0
O636 O 0.38161 0.60219 0.86949 0.0
O637 O 0.34125 0.59554 0.64368 0.0
O638 O 0.34677 0.51063 0.64672 0.0
O639 O 0.32281 0.54289 0.7163 0.0
O640 O 0.35988 0.57692 0.64249 0.0
O641 O 0.34576 0.53982 0.61289 0.0
O642 O 0.31674 0.51981 0.79171 0.0
O643 O 0.35018 0.50781 0.78643 0.0
C644 C 0.39428 0.59305 0.84301 0.0
C645 C 0.23422 0.55945 0.76619 0.0
C646 C 0.22596 0.54627 0.6749 0.0
C647 C 0.34645 0.61381 0.6983 0.0
C648 C 0.32622 0.61979 0.67194 0.0
C649 C 0.30054 0.60431 0.60192 0.0
C650 C 0.33193 0.64071 0.71871 0.0
C651 C 0.31202 0.64592 0.69694 0.0
C652 C 0.2807 0.60931 0.58095 0.0
C653 C 0.28631 0.62994 0.62817 0.0
C654 C 0.34533 0.56183 0.93514 0.0
C655 C 0.30515 0.52824 0.74979 0.0
C656 C 0.34085 0.49689 0.69879 0.0
C657 C 0.3122 0.47531 0.66801 0.0
C658 C 0.29357 0.4693 0.58115 0.0
C659 C 0.30272 0.46105 0.727 0.0
C660 C 0.27481 0.44143 0.7004 0.0
C661 C 0.26614 0.44987 0.55425 0.0
C662 C 0.25678 0.43609 0.61321 0.0
C663 C 0.35313 0.55813 0.58585 0.0
H664 H 0.29559 0.58823 0.56318 0.0
H665 H 0.35166 0.65278 0.77253 0.0
H666 H 0.26098 0.59719 0.5274 0.0
H667 H 0.27077 0.63362 0.60921 0.0
H668 H 0.30001 0.47975 0.53411 0.0
H669 H 0.31678 0.46554 0.7944 0.0
H670 H 0.25199 0.4455 0.48735 0.0
H671 H 0.23541 0.42104 0.58986 0.0
Gd672 Gd 0.63835 0.77053 0.93684 0.0
Gd673 Gd 0.63694 0.71903 0.90021 0.0
C674 C 0.54941 0.6527 0.7967 0.0
C675 C 0.54738 0.63712 0.92832 0.0
C676 C 0.58932 0.67323 0.93491 0.0
C677 C 0.57664 0.67187 0.8468 0.0
C678 C 0.5751 0.65554 0.97558 0.0
C679 C 0.53462 0.63566 0.83879 0.0
C680 C 0.53784 0.65119 0.70561 0.0
C681 C 0.55347 0.66848 0.66644 0.0
N682 N 0.59113 0.68901 0.80911 0.0
C683 C 0.58022 0.68731 0.7193 0.0
H684 H 0.59203 0.7002 0.6872 0.0
C685 C 0.63118 0.69097 0.05705 0.0
N686 N 0.61616 0.69119 0.97863 0.0
C687 C 0.61791 0.67407 0.10099 0.0
C688 C 0.58952 0.65649 0.06101 0.0
H689 H 0.65336 0.70424 0.08664 0.0
H690 H 0.51339 0.62129 0.8021 0.0
H691 H 0.63387 0.79366 0.1377 0.0
H692 H 0.51701 0.63671 0.66488 0.0
H693 H 0.54491 0.66736 0.59558 0.0
H694 H 0.53598 0.6237 0.95968 0.0
H695 H 0.67332 0.78569 0.77601 0.0
H696 H 0.71698 0.84901 0.30203 0.0
H697 H 0.66585 0.82419 0.28418 0.0
H698 H 0.77167 0.85868 0.08698 0.0
H699 H 0.62965 0.67448 0.16497 0.0
H700 H 0.5793 0.64326 0.09456 0.0
H701 H 0.75659 0.86148 0.22827 0.0
H702 H 0.72134 0.81316 0.77014 0.0
N703 N 0.66689 0.8001 0.07684 0.0
C704 C 0.70309 0.83548 0.23829 0.0
C705 C 0.67424 0.82155 0.22842 0.0
C706 C 0.71337 0.83267 0.16353 0.0
C707 C 0.69437 0.81479 0.08206 0.0
C708 C 0.65623 0.80427 0.1457 0.0
N709 N 0.68307 0.7973 0.92302 0.0
C710 C 0.70272 0.81342 0.00235 0.0
C711 C 0.71647 0.81331 0.83614 0.0
C712 C 0.73738 0.82908 0.91808 0.0
C713 C 0.68924 0.79756 0.83983 0.0
C714 C 0.7305 0.8296 0.00232 0.0
H715 H 0.75847 0.84121 0.91509 0.0
O716 O 0.63271 0.79058 0.85281 0.0
O717 O 0.61014 0.7323 0.88594 0.0
O718 O 0.64284 0.7323 0.77675 0.0
O719 O 0.62489 0.75422 0.78402 0.0
O720 O 0.59812 0.74813 0.97529 0.0
O721 O 0.60998 0.78097 0.95386 0.0
O722 O 0.6655 0.70865 0.92336 0.0
O723 O 0.66513 0.7567 0.9184 0.0
O724 O 0.64835 0.76533 0.07525 0.0
O725 O 0.63223 0.72712 0.0415 0.0
O726 O 0.67905 0.74305 0.00601 0.0
O727 O 0.63898 0.69864 0.78433 0.0
C728 C 0.59123 0.72883 0.92631 0.0
C729 C 0.75014 0.84631 0.08533 0.0
C730 C 0.74156 0.84787 0.16584 0.0
C731 C 0.61617 0.79289 0.89488 0.0
C732 C 0.62298 0.81622 0.92715 0.0
C733 C 0.65101 0.83433 0.9724 0.0
C734 C 0.60177 0.82061 0.9155 0.0
C735 C 0.60873 0.8429 0.9505 0.0
C736 C 0.65798 0.85617 0.00637 0.0
C737 C 0.63718 0.86043 -0.00418 0.0
C738 C 0.63261 0.74248 0.73844 0.0
C739 C 0.6864 0.76117 0.98075 0.0
C740 C 0.65906 0.69865 0.8357 0.0
C741 C 0.68241 0.70265 0.79726 0.0
C742 C 0.70994 0.72202 0.83833 0.0
C743 C 0.67717 0.68598 0.72081 0.0
C744 C 0.69921 0.68827 0.68578 0.0
C745 C 0.7318 0.72484 0.8022 0.0
C746 C 0.72657 0.70807 0.72662 0.0
C747 C 0.64099 0.74663 0.09867 0.0
H748 H 0.66763 0.83161 0.98148 0.0
H749 H 0.58003 0.80676 0.88083 0.0
H750 H 0.67973 0.86995 0.04103 0.0
H751 H 0.64357 0.87771 0.02203 0.0
H752 H 0.71462 0.73472 0.89918 0.0
H753 H 0.65585 0.67103 0.68954 0.0
H754 H 0.753 0.73983 0.83424 0.0
H755 H 0.7441 0.71031 0.70221 0.0
H756 H 0.24796 0.34826 0.03459 0.0
H757 H 0.22364 0.42196 0.73755 0.0
H758 H 0.17443 0.35011 -0.00217 0.0
H759 H 0.30126 0.42628 0.80374 0.0
H760 H 0.20479 0.395 0.82878 0.0
H761 H 0.26695 0.37571 0.94594 0.0
C762 C 0.23577 0.35446 0.00827 0.0
C763 C 0.20954 0.34687 0.02492 0.0
C764 C 0.22598 0.40187 0.8237 0.0
C765 C 0.23127 0.37837 0.92148 0.0
C766 C 0.23676 0.41724 0.77128 0.0
C767 C 0.26409 0.42636 0.7622 0.0
C768 C 0.24248 0.39532 0.86741 0.0
C769 C 0.28019 0.41984 0.80905 0.0
C770 C 0.24666 0.37014 0.9572 0.0
C771 C 0.19458 0.35523 -0.01348 0.0
N772 N 0.2691 0.40465 0.85898 0.0
N773 N 0.20566 0.37052 0.93696 0.0
H774 H 0.8497 0.81537 0.85617 0.0
H775 H 0.73219 0.78383 0.13223 0.0
H776 H 0.8591 0.80564 0.12893 0.0
H777 H 0.71036 0.76923 0.8338 0.0
H778 H 0.78129 0.7988 0.13621 0.0
H779 H 0.80125 0.80419 0.84909 0.0
C780 C 0.84169 0.81111 0.91502 0.0
C781 C 0.8591 0.81247 -0.00491 0.0
C782 C 0.76595 0.79275 0.06978 0.0
C783 C 0.80317 0.79919 -0.01314 0.0
C784 C 0.73788 0.78448 0.06756 0.0
C785 C 0.71697 0.77584 0.98288 0.0
C786 C 0.77366 0.79237 -0.01355 0.0
C787 C 0.72574 0.77654 0.90115 0.0
C788 C 0.81395 0.80465 0.91081 0.0
C789 C 0.84706 0.80589 0.06761 0.0
N790 N 0.75324 0.78456 0.90493 0.0
N791 N 0.82019 0.79982 0.06219 0.0
H792 H 0.34852 0.99418 0.07333 0.0
H793 H 0.44656 0.96646 0.09724 0.0
H794 H 0.29973 0.93676 0.82874 0.0
H795 H 0.41396 0.94 0.79874 0.0
H796 H 0.40973 0.97314 0.10067 0.0
H797 H 0.38963 0.99285 0.07141 0.0
C798 C 0.34652 0.98147 0.01863 0.0
C799 C 0.32047 0.96544 0.95174 0.0
C800 C 0.41066 0.96608 0.03413 0.0
C801 C 0.3674 0.96341 0.95008 0.0
C802 C 0.43149 0.96197 0.03231 0.0
C803 C 0.43273 0.95194 0.94796 0.0
C804 C 0.39097 0.96047 0.95058 0.0
C805 C 0.41316 0.94706 0.86557 0.0
C806 C 0.36991 0.98047 0.01829 0.0
C807 C 0.31924 0.94928 0.88255 0.0
N808 N 0.39287 0.95108 0.86904 0.0
N809 N 0.34224 0.94867 0.88355 0.0
H810 H 0.42405 0.14754 0.9382 0.0
H811 H 0.32168 0.09427 0.26439 0.0
H812 H 0.45558 0.16908 0.23685 0.0
H813 H 0.29574 0.06861 0.96616 0.0
H814 H 0.36886 0.12408 0.25815 0.0
H815 H 0.37621 0.12244 0.94952 0.0
C816 C 0.42088 0.14759 0.00674 0.0
C817 C 0.44437 0.16116 0.08651 0.0
C818 C 0.35283 0.11216 0.19379 0.0
C819 C 0.38843 0.13102 0.10034 0.0
C820 C 0.32567 0.09507 0.19723 0.0
C821 C 0.30391 0.0791 0.11544 0.0
C822 C 0.35902 0.11343 0.1077 0.0
C823 C 0.31113 0.08084 0.03104 0.0
C824 C 0.39334 0.13286 0.01308 0.0
C825 C 0.43843 0.15962 0.17307 0.0
N826 N 0.33765 0.09752 0.0295 0.0
N827 N 0.41136 0.14485 0.1775 0.0
H828 H 0.97436 0.31387 0.34455 0.0
H829 H 1.01633 0.24619 0.00728 0.0
H830 H 0.95417 0.30274 0.04778 0.0
H831 H 0.0423 0.26382 0.30655 0.0
H832 H 0.9874 0.26146 0.01672 0.0
H833 H 0.99251 0.29012 0.32863 0.0
C834 C 0.97279 0.30572 0.27558 0.0
C835 C 0.9617 0.30964 0.19711 0.0
C836 C 0.99904 0.26165 0.08033 0.0
C837 C 0.98401 0.28322 0.17822 0.0
C838 C 1.01532 0.25268 0.0748 0.0
C839 C 1.0312 0.25313 0.15621 0.0
C840 C 0.99877 0.27137 0.16799 0.0
C841 C 1.02995 0.26265 0.24196 0.0
C842 C 0.98358 0.2924 0.26647 0.0
C843 C 0.96173 0.29962 0.1099 0.0
N844 N 1.01414 0.27129 0.24554 0.0
N845 N 0.97271 0.28699 0.10279 0.0
H846 H 0.8778 0.67962 0.89868 0.0
H847 H 0.81347 0.59277 0.21014 0.0
H848 H 0.88664 0.70385 0.18771 0.0
H849 H 0.81361 0.57327 0.92797 0.0
H850 H 0.84032 0.63291 0.20862 0.0
H851 H 0.85328 0.64086 0.91097 0.0
C852 C 0.87423 0.67685 0.96485 0.0
C853 C 0.88444 0.69554 0.04191 0.0
C854 C 0.835 0.61994 0.14754 0.0
C855 C 0.85606 0.65001 0.05733 0.0
C856 C 0.82003 0.59692 0.14896 0.0
C857 C 0.8121 0.57933 0.07034 0.0
C858 C 0.84171 0.62573 0.06594 0.0
C859 C 0.81992 0.58603 -0.00853 0.0
C860 C 0.86028 0.65449 0.97202 0.0
C861 C 0.87899 0.69029 0.12564 0.0
N862 N 0.83402 0.60833 -0.00865 0.0
N863 N 0.86541 0.66824 0.13111 0.0
H864 H 0.2696 0.5269 0.84967 0.0
H865 H 0.12774 0.43861 0.42762 0.0
H866 H 0.27002 0.49895 0.57873 0.0
H867 H 0.13019 0.47376 0.68912 0.0
H868 H 0.17898 0.4571 0.48568 0.0
H869 H 0.21788 0.50451 0.7963 0.0
C870 C 0.2587 0.51614 0.77862 0.0
C871 C 0.27401 0.51552 0.71711 0.0
C872 C 0.16823 0.46059 0.53062 0.0
C873 C 0.21476 0.48913 0.65603 0.0
C874 C 0.13893 0.44987 0.49773 0.0
C875 C 0.12459 0.45468 0.55332 0.0
C876 C 0.1833 0.4761 0.62012 0.0
C877 C 0.14034 0.46966 0.6434 0.0
C878 C 0.22919 0.50326 0.74815 0.0
C879 C 0.25892 0.50057 0.627 0.0
N880 N 0.16867 0.47984 0.67359 0.0
N881 N 0.23018 0.4881 0.59887 0.0
H882 H 0.66418 0.64252 0.66083 0.0
H883 H 0.7115 0.60754 0.23546 0.0
H884 H 0.72223 0.69117 0.5389 0.0
H885 H 0.64214 0.55946 0.32493 0.0
H886 H 0.71646 0.63851 0.34726 0.0
H887 H 0.65632 0.61198 0.53911 0.0
C888 C 0.67505 0.64683 0.60785 0.0
C889 C 0.69383 0.66955 0.61017 0.0
C890 C 0.70003 0.62119 0.34199 0.0
C891 C 0.68532 0.63446 0.47119 0.0
C892 C 0.69728 0.60352 0.27854 0.0
C893 C 0.67643 0.58089 0.27116 0.0
C894 C 0.68199 0.61621 0.39917 0.0
C895 C 0.65835 0.57664 0.32779 0.0
C896 C 0.67065 0.62932 0.53855 0.0
C897 C 0.70782 0.67396 0.54071 0.0
N898 N 0.66168 0.59413 0.38985 0.0
N899 N 0.70335 0.65659 0.47428 0.0
H900 H 0.54905 0.08187 0.33029 0.0
H901 H 0.49491 0.05377 0.77743 0.0
H902 H 0.48651 0.09108 0.40349 0.0
H903 H 0.55035 0.03794 0.68483 0.0
H904 H 0.49399 0.06988 0.64776 0.0
H905 H 0.55207 0.06814 0.4659 0.0
C906 C 0.53587 0.08098 0.37469 0.0
C907 C 0.51724 0.08745 0.35436 0.0
C908 C 0.50633 0.06286 0.65571 0.0
C909 C 0.52089 0.07189 0.51136 0.0
C910 C 0.50701 0.05374 0.73017 0.0
C911 C 0.52272 0.04438 0.74243 0.0
C912 C 0.52151 0.06273 0.59265 0.0
C913 C 0.53761 0.04461 0.67775 0.0
C914 C 0.53771 0.0732 0.45254 0.0
C915 C 0.50128 0.08642 0.4163 0.0
N916 N 0.53666 0.05363 0.60596 0.0
N917 N 0.50338 0.07869 0.4916 0.0
H918 H 0.12977 0.10632 0.93582 0.0
H919 H 0.10321 0.19506 0.20663 0.0
H920 H 0.18186 0.15107 0.21053 0.0
H921 H 0.07369 0.16632 0.90889 0.0
H922 H 0.12803 0.17616 0.2174 0.0
H923 H 0.10335 0.12383 0.93362 0.0
C924 C 0.13512 0.11935 -0.00324 0.0
C925 C 0.15789 0.12699 0.07386 0.0
C926 C 0.11626 0.17412 0.14966 0.0
C927 C 0.12807 0.14762 0.0713 0.0
C928 C 0.10235 0.18514 0.14347 0.0
C929 C 0.08699 0.18286 0.05636 0.0
C930 C 0.11407 0.1601 0.06852 0.0
C931 C 0.0857 0.16895 0.97731 0.0
C932 C 0.12031 0.12962 -0.00495 0.0
C933 C 0.16429 0.14447 0.14995 0.0
N934 N 0.09888 0.15813 -0.01477 0.0
N935 N 0.14959 0.15416 0.14677 0.0
H936 H 0.95054 0.96772 0.03769 0.0
H937 H 0.96964 0.08698 0.19897 0.0
H938 H 0.9571 0.99786 0.31693 0.0
H939 H 0.96144 0.05649 0.91791 0.0
H940 H 0.96954 0.0562 0.24659 0.0
H941 H 0.95898 1.00169 -0.00432 0.0
C942 C 0.95413 0.98158 0.09051 0.0
C943 C 0.95281 0.97978 0.18076 0.0
C944 C 0.96791 0.05629 0.17455 0.0
C945 C 0.96219 1.01869 0.1329 0.0
C946 C 0.96815 0.07398 0.14741 0.0
C947 C 0.96527 0.0743 0.054 0.0
C948 C 0.9648 0.03871 0.10797 0.0
C949 C 0.96314 0.05678 -0.0097 0.0
C950 C 0.95876 1.00093 0.06634 0.0
C951 C 0.95739 0.99828 0.24603 0.0
N952 N 0.9628 0.03969 0.01828 0.0
N953 N 0.9617 1.01682 0.22073 0.0
H954 H 1.02762 0.89901 0.19531 0.0
H955 H 0.13287 0.97841 0.92348 0.0
H956 H 1.00849 0.88229 0.89706 0.0
H957 H 0.16123 0.98718 0.21543 0.0
H958 H 0.08793 0.94323 0.91354 0.0
H959 H 0.07633 0.93 0.20643 0.0
C960 C 1.03384 0.90106 0.13197 0.0
C961 C 1.01361 0.88687 0.0449 0.0
C962 C 0.10406 0.95252 0.97977 0.0
C963 C 0.06987 0.92415 0.0571 0.0
C964 C 0.13013 0.97264 -0.01482 0.0
C965 C 0.15203 0.98556 0.06939 0.0
C966 C 0.09874 0.94513 0.05994 0.0
C967 C 0.14577 0.97758 0.14791 0.0
C968 C 0.06176 0.91923 0.13833 0.0
C969 C 1.02318 0.89191 0.96593 0.0
N970 N 0.12013 0.9582 0.14134 0.0
N971 N 0.05001 0.90989 0.97384 0.0
H972 H 0.86297 0.4562 0.28312 0.0
H973 H 0.92097 0.3846 0.07974 0.0
H974 H 0.90228 0.46737 0.06073 0.0
H975 H 0.89009 0.37729 0.3205 0.0
H976 H 0.9138 0.4148 0.0716 0.0
H977 H 0.8712 0.42664 0.29618 0.0
C978 C 0.87307 0.45234 0.23646 0.0
C979 C 0.88203 0.46449 0.171 0.0
C980 C 0.90889 0.40685 0.12709 0.0
C981 C 0.89176 0.43068 0.18607 0.0
C982 C 0.91322 0.38974 0.13208 0.0
C983 C 0.90738 0.37922 0.20349 0.0
C984 C 0.8976 0.41301 0.19206 0.0
C985 C 0.89604 0.38572 0.26687 0.0
C986 C 0.878 0.43556 0.24449 0.0
C987 C 0.89532 0.45878 0.11318 0.0
N988 N 0.89156 0.40218 0.25983 0.0
N989 N 0.89973 0.44241 0.12208 0.0
H990 H 0.69953 0.44197 0.91167 0.0
H991 H 0.63427 0.36352 0.24927 0.0
H992 H 0.73771 0.4633 0.20707 0.0
H993 H 0.60529 0.33681 0.95089 0.0
H994 H 0.67133 0.40009 0.23449 0.0
H995 H 0.6641 0.40409 0.92312 0.0
C996 C 0.7003 0.43877 0.97919 0.0
C997 C 0.72112 0.45626 0.05903 0.0
C998 C 0.65721 0.38623 0.17198 0.0
C999 C 0.68079 0.41237 0.07263 0.0
C1000 C 0.63607 0.36517 0.18045 0.0
C1001 C 0.61677 0.34666 0.10141 0.0
C1002 C 0.65916 0.38937 0.08339 0.0
C1003 C 0.61994 0.35027 0.01402 0.0
C1004 C 0.68011 0.41704 -0.01435 0.0
C1005 C 0.72153 0.45071 0.14406 0.0
N1006 N 0.64043 0.3711 0.00741 0.0
N1007 N 0.7017 0.42952 0.14866 0.0
H1008 H 0.62397 0.24735 0.31579 0.0
H1009 H 0.71397 0.22929 0.00423 0.0
H1010 H 0.58826 0.2072 0.02917 0.0
H1011 H 0.75089 0.27092 0.28912 0.0
H1012 H 0.66828 0.22139 0.01239 0.0
H1013 H 0.67027 0.25611 0.30794 0.0
C1014 C 0.62582 0.24022 0.25127 0.0
C1015 C 0.60191 0.22608 0.17372 0.0
C1016 C 0.68631 0.23232 0.0732 0.0
C1017 C 0.65537 0.23645 0.1635 0.0
C1018 C 0.71259 0.23685 0.06881 0.0
C1019 C 0.73667 0.2507 0.14649 0.0
C1020 C 0.68359 0.24165 0.15596 0.0
C1021 C 0.73321 0.26026 0.2272 0.0
C1022 C 0.65234 0.24528 0.24678 0.0
C1023 C 0.60581 0.21769 0.09149 0.0
N1024 N 0.70728 0.25546 0.22996 0.0
N1025 N 0.63188 0.22293 0.08871 0.0
H1026 H 0.56487 0.82892 0.79624 0.0
H1027 H 0.51761 0.9066 0.03092 0.0
H1028 H 0.60403 0.87082 0.08077 0.0
H1029 H 0.48794 0.87192 0.73839 0.0
H1030 H 0.54835 0.89298 0.05351 0.0
H1031 H 0.53433 0.8426 0.77711 0.0
C1032 C 0.56683 0.84073 0.8551 0.0
C1033 C 0.58731 0.84872 0.94008 0.0
C1034 C 0.53526 0.88849 -0.01579 0.0
C1035 C 0.55242 0.86484 0.91841 0.0
C1036 C 0.51796 0.89651 0.97125 0.0
C1037 C 0.50069 0.89092 0.88217 0.0
C1038 C 0.53492 0.87437 0.90787 0.0
C1039 C 0.50123 0.87699 0.80803 0.0
C1040 C 0.54954 0.84876 0.84393 0.0
C1041 C 0.58889 0.86432 0.01345 0.0
N1042 N 0.51792 0.86926 0.82242 0.0
N1043 N 0.57187 0.87183 0.00094 0.0
H1044 H 0.27725 0.65469 0.76651 0.0
H1045 H 0.31068 0.76338 0.93633 0.0
H1046 H 0.36039 0.68788 0.7286 0.0
H1047 H 0.37157 0.78233 0.77986 0.0
H1048 H 0.30313 0.7263 0.91263 0.0
H1049 H 0.28518 0.69153 0.82124 0.0
C1050 C 0.29739 0.66983 0.77125 0.0
C1051 C 0.31815 0.66825 0.74259 0.0
C1052 C 0.31787 0.7384 0.88235 0.0
C1053 C 0.32775 0.71067 0.80726 0.0
C1054 C 0.32226 0.75964 0.89618 0.0
C1055 C 0.34155 0.7759 0.85915 0.0
C1056 C 0.33272 0.73331 0.83028 0.0
C1057 C 0.35658 0.77037 0.81005 0.0
C1058 C 0.30207 0.69094 0.80361 0.0
C1059 C 0.34391 0.68835 0.75066 0.0
N1060 N 0.35177 0.74953 0.79681 0.0
N1061 N 0.34783 0.70873 0.78108 0.0
H1062 H 0.57281 0.70625 0.05687 0.0
H1063 H 0.42133 0.60378 0.70628 0.0
H1064 H 0.54552 0.70317 0.77119 0.0
H1065 H 0.43731 0.61989 0.00413 0.0
H1066 H 0.46985 0.63586 0.72641 0.0
H1067 H 0.52624 0.67153 0.03753 0.0
C1068 C 0.55712 0.69809 -0.01031 0.0
C1069 C 0.56358 0.70706 0.91424 0.0
C1070 C 0.4629 0.63223 0.78751 0.0
C1071 C 0.50974 0.66747 0.89196 0.0
C1072 C 0.43526 0.61363 0.77606 0.0
C1073 C 0.42521 0.60878 0.85372 0.0
C1074 C 0.48087 0.64627 0.87738 0.0
C1075 C 0.44418 0.62275 0.94232 0.0
C1076 C 0.53046 0.67832 0.97876 0.0
C1077 C 0.54195 0.69628 0.82996 0.0
N1078 N 0.47092 0.64074 0.95172 0.0
N1079 N 0.51623 0.67706 0.82086 0.0
H1080 H 0.10324 0.23229 0.86179 0.0
H1081 H 1.01795 0.2098 0.34954 0.0
H1082 H 1.01712 0.21263 0.78683 0.0
H1083 H 0.10228 0.22561 0.42248 0.0
H1084 H 1.01749 0.21139 0.51 0.0
H1085 H 0.1038 0.23143 0.70186 0.0
C1086 C 0.08443 0.22785 0.81172 0.0
C1087 C 0.05993 0.22226 0.83713 0.0
C1088 C 1.03611 0.21454 0.49092 0.0
C1089 C 0.06047 0.22111 0.65416 0.0
C1090 C 1.03638 0.21359 0.39921 0.0
C1091 C 0.06035 0.21787 0.37304 0.0
C1092 C 0.05994 0.21975 0.55654 0.0
C1093 C 0.08355 0.22257 0.4402 0.0
C1094 C 0.08477 0.22727 0.72031 0.0
C1095 C 1.03626 0.21669 0.76957 0.0
N1096 N 0.0828 0.22345 0.52936 0.0
N1097 N 1.03708 0.21618 0.68061 0.0
H1098 H 0.95174 0.88059 0.81537 0.0
H1099 H 0.94772 0.8189 0.32601 0.0
H1100 H 0.91149 0.80851 0.71466 0.0
H1101 H 0.96498 0.88601 0.38646 0.0
H1102 H 0.94246 0.8174 0.48096 0.0
H1103 H 0.96165 0.88465 0.66639 0.0
C1104 C 0.94423 0.86553 0.76088 0.0
C1105 C 0.9304 0.84411 0.77645 0.0
C1106 C 0.94757 0.83251 0.4605 0.0
C1107 C 0.94297 0.84878 0.60848 0.0
C1108 C 0.95083 0.83349 0.37225 0.0
C1109 C 0.95614 0.85242 0.34238 0.0
C1110 C 0.94978 0.85061 0.51946 0.0
C1111 C 0.96052 0.87097 0.4062 0.0
C1112 C 0.95039 0.86793 0.67664 0.0
C1113 C 0.92237 0.8253 0.70533 0.0
N1114 N 0.95685 0.86948 0.49167 0.0
N1115 N 0.9289 0.82808 0.62434 0.0
H1116 H 0.18754 0.04086 0.76832 0.0
H1117 H 0.25481 1.02398 0.37515 0.0
H1118 H 0.22352 1.00186 0.75994 0.0
H1119 H 0.1966 0.04339 0.33336 0.0
H1120 H 0.24493 1.01753 0.52174 0.0
H1121 H 0.19007 0.04239 0.60977 0.0
C1122 C 0.19547 1.03228 0.73267 0.0
C1123 C 0.20609 1.02178 0.77814 0.0
C1124 C 0.23425 1.02317 0.48046 0.0
C1125 C 0.20928 1.02369 0.59871 0.0
C1126 C 0.2399 1.02681 0.39695 0.0
C1127 C 0.22643 0.03411 0.34258 0.0
C1128 C 0.21515 1.02706 0.5098 0.0
C1129 C 0.20785 0.03821 0.37471 0.0
C1130 C 0.19703 0.03326 0.64256 0.0
C1131 C 0.21583 1.01071 0.72854 0.0
N1132 N 0.20272 0.03463 0.4567 0.0
N1133 N 0.21758 1.01225 0.64191 0.0
H1134 H 0.75857 0.54475 0.39197 0.0
H1135 H 0.77217 0.48636 0.78458 0.0
H1136 H 0.7977 0.50815 0.38946 0.0
H1137 H 0.74034 0.52811 0.80229 0.0
H1138 H 0.77823 0.49176 0.63273 0.0
H1139 H 0.75021 0.53795 0.53994 0.0
C1140 C 0.7658 0.53559 0.42315 0.0
C1141 C 0.77871 0.52689 0.37799 0.0
C1142 C 0.76952 0.49948 0.66914 0.0
C1143 C 0.76876 0.51873 0.54619 0.0
C1144 C 0.76592 0.49628 0.75532 0.0
C1145 C 0.75557 0.50669 0.80509 0.0
C1146 C 0.76284 0.51332 0.63318 0.0
C1147 C 0.74766 0.51932 0.76477 0.0
C1148 C 0.7608 0.53155 0.50723 0.0
C1149 C 0.78764 0.51515 0.42164 0.0
N1150 N 0.7517 0.52248 0.68123 0.0
N1151 N 0.78229 0.51127 0.50305 0.0
H1152 H 0.51048 0.22066 0.41924 0.0
H1153 H 0.54397 0.17675 0.83931 0.0
H1154 H 0.55373 0.18728 0.41781 0.0
H1155 H 0.49828 0.20811 0.83412 0.0
H1156 H 0.54782 0.18036 0.68448 0.0
H1157 H 0.50749 0.21742 0.57453 0.0
C1158 C 0.51967 0.21291 0.452 0.0
C1159 C 0.53231 0.20418 0.40564 0.0
C1160 C 0.53688 0.18637 0.71722 0.0
C1161 C 0.52846 0.20002 0.58227 0.0
C1162 C 0.5345 0.18417 0.80526 0.0
C1163 C 0.52085 0.19221 0.84948 0.0
C1164 C 0.5256 0.19671 0.67382 0.0
C1165 C 0.50913 0.20181 0.80264 0.0
C1166 C 0.51774 0.21089 0.54039 0.0
C1167 C 0.54363 0.19411 0.451 0.0
N1168 N 0.51189 0.20389 0.71723 0.0
N1169 N 0.54131 0.19221 0.53701 0.0
H1170 H 0.97933 0.36169 0.56798 0.0
H1171 H 0.88776 0.32815 0.92406 0.0
H1172 H 0.88817 0.3222 0.48718 0.0
H1173 H 0.97739 0.35911 0.00022 0.0
H1174 H 0.88775 0.32747 0.76309 0.0
H1175 H 0.97943 0.36251 0.7286 0.0
C1176 C 0.95935 0.35312 0.58401 0.0
C1177 C 0.9337 0.34192 0.51478 0.0
C1178 C 0.90743 0.33438 0.81491 0.0
C1179 C 0.93372 0.34283 0.69702 0.0
C1180 C 0.90734 0.3346 0.90606 0.0
C1181 C 0.93256 0.34351 0.97342 0.0
C1182 C 0.93297 0.34317 0.79241 0.0
C1183 C 0.95767 0.35237 0.94914 0.0
C1184 C 0.95944 0.35362 0.67552 0.0
C1185 C 0.90842 0.33109 0.5388 0.0
N1186 N 0.95727 0.35193 0.85967 0.0
N1187 N 0.90908 0.33186 0.62856 0.0
H1188 H 0.41914 0.90899 0.57954 0.0
H1189 H 0.51391 0.94274 0.23061 0.0
H1190 H 0.50887 0.93947 0.65777 0.0
H1191 H 0.42456 0.91363 0.14991 0.0
H1192 H 0.51291 0.9442 0.39107 0.0
H1193 H 0.42091 0.91264 0.42306 0.0
C1194 C 0.43913 0.91628 0.56371 0.0
C1195 C 0.46374 0.92338 0.63086 0.0
C1196 C 0.49355 0.93764 0.33826 0.0
C1197 C 0.46603 0.92799 0.45377 0.0
C1198 C 0.49417 0.93693 0.2468 0.0
C1199 C 0.46931 0.92809 0.17709 0.0
C1200 C 0.46784 0.92926 0.3595 0.0
C1201 C 0.44419 0.92042 0.20145 0.0
C1202 C 0.44017 0.91851 0.47476 0.0
C1203 C 0.48924 0.93329 0.60767 0.0
N1204 N 0.44406 0.92107 0.2909 0.0
N1205 N 0.48968 0.9352 0.52075 0.0
H1206 H 0.35511 0.59535 0.07692 0.0
H1207 H 0.32888 0.52113 0.43569 0.0
H1208 H 0.32681 0.52525 -0.00073 0.0
H1209 H 0.37389 0.59413 0.5154 0.0
H1210 H 0.32259 0.52106 0.27221 0.0
H1211 H 0.35463 0.59365 0.23673 0.0
C1212 C 0.34847 0.57958 0.09367 0.0
C1213 C 0.34165 0.56059 0.02684 0.0
C1214 C 0.33386 0.53705 0.32583 0.0
C1215 C 0.34134 0.55849 0.20703 0.0
C1216 C 0.33766 0.5371 0.41875 0.0
C1217 C 0.35182 0.55763 0.48854 0.0
C1218 C 0.34431 0.55767 0.30364 0.0
C1219 C 0.36262 0.57788 0.46348 0.0
C1220 C 0.34841 0.57862 0.18446 0.0
C1221 C 0.33305 0.54043 0.05054 0.0
N1222 N 0.35855 0.57738 0.37281 0.0
N1223 N 0.33337 0.53994 0.13936 0.0
H1224 H 0.64442 0.71854 0.62115 0.0
H1225 H 0.61519 0.7609 0.19223 0.0
H1226 H 0.61715 0.76373 0.63455 0.0
H1227 H 0.66405 0.73259 0.21558 0.0
H1228 H 0.61085 0.75884 0.34866 0.0
H1229 H 0.64531 0.71904 0.4625 0.0
C1230 C 0.63855 0.72854 0.59064 0.0
C1231 C 0.63105 0.74138 0.64106 0.0
C1232 C 0.62263 0.75319 0.3196 0.0
C1233 C 0.63221 0.74207 0.4605 0.0
C1234 C 0.62535 0.7546 0.23141 0.0
C1235 C 0.64007 0.74696 0.19295 0.0
C1236 C 0.63462 0.74394 0.3679 0.0
C1237 C 0.65217 0.73824 0.24348 0.0
C1238 C 0.63914 0.72884 0.50024 0.0
C1239 C 0.62325 0.75374 0.59792 0.0
N1240 N 0.64916 0.73692 0.32912 0.0
N1241 N 0.6242 0.7539 0.50957 0.0
loop_
_geom_bond_atom_site_label_1
_geom_bond_atom_site_label_2
_geom_bond_distance
_geom_bond_site_symmetry_2
_ccdc_geom_bond_type
Gd0 N31 2.661 1_455 S
Gd0 N37 2.601 1_455 S
Gd0 O44 2.545 1_455 S
Gd0 O45 2.606 . S
Gd0 O47 2.429 . S
Gd0 O48 2.545 . S
Gd0 O49 2.412 1_455 S
Gd0 O51 2.362 . S
Gd0 O52 2.324 . S
Gd0 C59 2.828 1_455 S
Gd1 N10 2.661 . S
Gd1 N14 2.601 . S
Gd1 O45 2.362 . S
Gd1 O46 2.324 . S
Gd1 O50 2.545 . S
Gd1 O51 2.606 . S
Gd1 O53 2.429 . S
Gd1 O54 2.545 . S
Gd1 O55 2.412 . S
Gd1 C68 2.828 . S
C2 C5 1.417 . S
C2 C7 1.431 . S
C2 C8 1.412 . S
C3 C6 1.437 . S
C3 C7 1.317 . S
C3 H22 0.929 . S
C4 C5 1.426 . S
C4 C6 1.413 . S
C4 N14 1.359 . S
C5 C2 1.417 . S
C5 C4 1.426 . S
C5 N10 1.350 . S
C6 C3 1.437 . S
C6 C4 1.413 . S
C6 C16 1.391 . S
C7 C2 1.431 . S
C7 C3 1.317 . S
C7 H18 0.930 . S
C8 C2 1.412 . S
C8 C9 1.355 . S
C8 H20 0.930 . S
C9 C8 1.355 . S
C9 C11 1.402 . S
C9 H21 0.930 . S
N10 Gd1 2.661 . S
N10 C5 1.350 . S
N10 C11 1.307 . S
C11 C9 1.402 . S
C11 N10 1.307 . S
C11 H12 0.930 . S
H12 C11 0.930 . S
C13 N14 1.334 . S
C13 C15 1.394 . S
C13 H17 0.930 . S
N14 Gd1 2.601 . S
N14 C4 1.359 . S
N14 C13 1.334 . S
C15 C13 1.394 . S
C15 C16 1.359 . S
C15 H27 0.930 . S
C16 C6 1.391 . S
C16 C15 1.359 . S
C16 H28 0.929 . S
H17 C13 0.930 . S
H18 C7 0.930 . S
H19 C36 0.930 . S
H20 C8 0.930 . S
H21 C9 0.930 . S
H22 C3 0.929 . S
H23 C41 0.930 . S
H24 C32 0.930 . S
H25 C33 0.930 . S
H26 C57 0.929 1_556 S
H27 C15 0.930 . S
H28 C16 0.929 . S
H29 C58 0.930 . S
H30 C39 0.930 . S
N31 Gd0 2.661 1_655 S
N31 C35 1.350 . S
N31 C36 1.307 . S
C32 H24 0.930 . S
C32 C33 1.355 . S
C32 C34 1.412 . S
C33 H25 0.930 . S
C33 C32 1.355 . S
C33 C36 1.402 . S
C34 C32 1.412 . S
C34 C35 1.417 . S
C34 C58 1.431 . S
C35 N31 1.350 . S
C35 C34 1.417 . S
C35 C38 1.426 . S
C36 H19 0.930 . S
C36 N31 1.307 . S
C36 C33 1.402 . S
N37 Gd0 2.601 1_655 S
N37 C38 1.359 . S
N37 C41 1.334 1_554 S
C38 C35 1.426 . S
C38 N37 1.359 . S
C38 C42 1.413 1_554 S
C39 H30 0.930 . S
C39 C40 1.359 . S
C39 C41 1.394 . S
C40 C39 1.359 . S
C40 C42 1.391 . S
C40 H43 0.929 . S
C41 H23 0.930 . S
C41 N37 1.334 1_556 S
C41 C39 1.394 . S
C42 C38 1.413 1_556 S
C42 C40 1.391 . S
C42 C57 1.437 1_556 S
H43 C40 0.929 . S
O44 Gd0 2.545 1_655 S
O44 C59 1.258 . S
O45 Gd0 2.606 . S
O45 Gd1 2.362 . S
O45 C56 1.284 . S
O46 Gd1 2.324 . S
O46 C66 1.254 . S
O47 Gd0 2.429 . S
O47 C66 1.268 . S
O48 Gd0 2.545 . S
O48 C56 1.250 . S
O49 Gd0 2.412 1_655 S
O49 C59 1.252 . S
O50 Gd1 2.545 . S
O50 C68 1.258 . S
O51 Gd0 2.362 . S
O51 Gd1 2.606 . S
O51 C67 1.284 . S
O52 Gd0 2.324 . S
O52 C75 1.254 . S
O53 Gd1 2.429 . S
O53 C75 1.268 . S
O54 Gd1 2.545 . S
O54 C67 1.250 . S
O55 Gd1 2.412 . S
O55 C68 1.252 . S
C56 O45 1.284 . S
C56 O48 1.250 . S
C57 H26 0.929 1_554 S
C57 C42 1.437 1_554 S
C57 C58 1.317 . S
C58 H29 0.930 . S
C58 C34 1.431 . S
C58 C57 1.317 . S
C59 Gd0 2.828 1_655 S
C59 O44 1.258 . S
C59 O49 1.252 . S
C59 C60 1.497 . S
C60 C59 1.497 . S
C60 C61 1.395 . S
C60 C62 1.380 . S
C61 C60 1.395 . S
C61 C64 1.398 . S
C61 H76 0.930 1_554 S
C62 C60 1.380 . S
C62 C63 1.391 . S
C62 H77 0.930 . S
C63 C62 1.391 . S
C63 C65 1.387 . S
C64 C61 1.398 . S
C64 C65 1.380 . S
C64 H78 0.930 1_554 S
C65 C63 1.387 . S
C65 C64 1.380 . S
C65 H79 0.930 . S
C66 O46 1.254 . S
C66 O47 1.268 . S
C67 O51 1.284 . S
C67 O54 1.250 . S
C68 Gd1 2.828 . S
C68 O50 1.258 . S
C68 O55 1.252 . S
C68 C69 1.497 . S
C69 C68 1.497 . S
C69 C70 1.395 . S
C69 C71 1.380 . S
C70 C69 1.395 . S
C70 C73 1.398 . S
C70 H80 0.930 . S
C71 C69 1.380 . S
C71 C72 1.391 . S
C71 H81 0.930 . S
C72 C71 1.391 . S
C72 C74 1.387 . S
C73 C70 1.398 . S
C73 C74 1.380 . S
C73 H82 0.930 . S
C74 C72 1.387 . S
C74 C73 1.380 . S
C74 H83 0.930 . S
C75 O52 1.254 . S
C75 O53 1.268 . S
H76 C61 0.930 1_556 S
H77 C62 0.930 . S
H78 C64 0.930 1_556 S
H79 C65 0.930 . S
H80 C70 0.930 . S
H81 C71 0.930 . S
H82 C73 0.930 . S
H83 C74 0.930 . S
Gd84 N115 2.661 . S
Gd84 N121 2.601 . S
Gd84 O128 2.545 . S
Gd84 O129 2.606 . S
Gd84 O131 2.429 . S
Gd84 O132 2.545 . S
Gd84 O133 2.412 . S
Gd84 O135 2.362 . S
Gd84 O136 2.324 . S
Gd84 C143 2.828 . S
Gd85 N94 2.661 . S
Gd85 N98 2.601 . S
Gd85 O129 2.362 . S
Gd85 O130 2.324 . S
Gd85 O134 2.545 . S
Gd85 O135 2.606 . S
Gd85 O137 2.429 . S
Gd85 O138 2.545 . S
Gd85 O139 2.412 . S
Gd85 C152 2.828 . S
C86 C89 1.417 . S
C86 C91 1.431 . S
C86 C92 1.412 . S
C87 C90 1.437 . S
C87 C91 1.317 . S
C87 H106 0.929 . S
C88 C89 1.426 . S
C88 C90 1.413 . S
C88 N98 1.359 . S
C89 C86 1.417 . S
C89 C88 1.426 . S
C89 N94 1.350 . S
C90 C87 1.437 . S
C90 C88 1.413 . S
C90 C100 1.391 1_554 S
C91 C86 1.431 . S
C91 C87 1.317 . S
C91 H102 0.930 1_655 S
C92 C86 1.412 . S
C92 C93 1.355 . S
C92 H104 0.930 1_655 S
C93 C92 1.355 . S
C93 C95 1.402 . S
C93 H105 0.930 . S
N94 Gd85 2.661 . S
N94 C89 1.350 . S
N94 C95 1.307 . S
C95 C93 1.402 . S
C95 N94 1.307 . S
C95 H96 0.930 . S
H96 C95 0.930 . S
C97 N98 1.334 1_556 S
C97 C99 1.394 . S
C97 H101 0.930 . S
N98 Gd85 2.601 . S
N98 C88 1.359 . S
N98 C97 1.334 1_554 S
C99 C97 1.394 . S
C99 C100 1.359 . S
C99 H111 0.930 . S
C100 C90 1.391 1_556 S
C100 C99 1.359 . S
C100 H112 0.929 . S
H101 C97 0.930 . S
H102 C91 0.930 1_455 S
H103 C120 0.930 . S
H104 C92 0.930 1_455 S
H105 C93 0.930 . S
H106 C87 0.929 . S
H107 C125 0.930 . S
H108 C116 0.930 . S
H109 C117 0.930 . S
H110 C141 0.929 . S
H111 C99 0.930 . S
H112 C100 0.929 . S
H113 C142 0.930 . S
H114 C123 0.930 . S
N115 Gd84 2.661 . S
N115 C119 1.350 . S
N115 C120 1.307 . S
C116 H108 0.930 . S
C116 C117 1.355 1_554 S
C116 C118 1.412 . S
C117 H109 0.930 . S
C117 C116 1.355 1_556 S
C117 C120 1.402 1_556 S
C118 C116 1.412 . S
C118 C119 1.417 . S
C118 C142 1.431 . S
C119 N115 1.350 . S
C119 C118 1.417 . S
C119 C122 1.426 . S
C120 H103 0.930 . S
C120 N115 1.307 . S
C120 C117 1.402 1_554 S
N121 Gd84 2.601 . S
N121 C122 1.359 . S
N121 C125 1.334 . S
C122 C119 1.426 . S
C122 N121 1.359 . S
C122 C126 1.413 . S
C123 H114 0.930 . S
C123 C124 1.359 . S
C123 C125 1.394 . S
C124 C123 1.359 . S
C124 C126 1.391 . S
C124 H127 0.929 . S
C125 H107 0.930 . S
C125 N121 1.334 . S
C125 C123 1.394 . S
C126 C122 1.413 . S
C126 C124 1.391 . S
C126 C141 1.437 . S
H127 C124 0.929 . S
O128 Gd84 2.545 . S
O128 C143 1.258 . S
O129 Gd84 2.606 . S
O129 Gd85 2.362 . S
O129 C140 1.284 . S
O130 Gd85 2.324 . S
O130 C150 1.254 . S
O131 Gd84 2.429 . S
O131 C150 1.268 . S
O132 Gd84 2.545 . S
O132 C140 1.250 . S
O133 Gd84 2.412 . S
O133 C143 1.252 . S
O134 Gd85 2.545 . S
O134 C152 1.258 . S
O135 Gd84 2.362 . S
O135 Gd85 2.606 . S
O135 C151 1.284 . S
O136 Gd84 2.324 . S
O136 C159 1.254 . S
O137 Gd85 2.429 . S
O137 C159 1.268 . S
O138 Gd85 2.545 . S
O138 C151 1.250 . S
O139 Gd85 2.412 . S
O139 C152 1.252 . S
C140 O129 1.284 . S
C140 O132 1.250 . S
C141 H110 0.929 . S
C141 C126 1.437 . S
C141 C142 1.317 . S
C142 H113 0.930 . S
C142 C118 1.431 . S
C142 C141 1.317 . S
C143 Gd84 2.828 . S
C143 O128 1.258 . S
C143 O133 1.252 . S
C143 C144 1.497 . S
C144 C143 1.497 . S
C144 C145 1.395 . S
C144 C146 1.380 . S
C145 C144 1.395 . S
C145 C148 1.398 . S
C145 H160 0.930 . S
C146 C144 1.380 . S
C146 C147 1.391 . S
C146 H161 0.930 . S
C147 C146 1.391 . S
C147 C149 1.387 . S
C148 C145 1.398 . S
C148 C149 1.380 . S
C148 H162 0.930 . S
C149 C147 1.387 . S
C149 C148 1.380 . S
C149 H163 0.930 . S
C150 O130 1.254 . S
C150 O131 1.268 . S
C151 O135 1.284 . S
C151 O138 1.250 . S
C152 Gd85 2.828 . S
C152 O134 1.258 . S
C152 O139 1.252 . S
C152 C153 1.497 . S
C153 C152 1.497 . S
C153 C154 1.395 . S
C153 C155 1.380 . S
C154 C153 1.395 . S
C154 C157 1.398 . S
C154 H164 0.930 . S
C155 C153 1.380 . S
C155 C156 1.391 . S
C155 H165 0.930 . S
C156 C155 1.391 . S
C156 C158 1.387 . S
C157 C154 1.398 . S
C157 C158 1.380 . S
C157 H166 0.930 1_554 S
C158 C156 1.387 . S
C158 C157 1.380 . S
C158 H167 0.930 . S
C159 O136 1.254 . S
C159 O137 1.268 . S
H160 C145 0.930 . S
H161 C146 0.930 . S
H162 C148 0.930 . S
H163 C149 0.930 . S
H164 C154 0.930 . S
H165 C155 0.930 . S
H166 C157 0.930 1_556 S
H167 C158 0.930 . S
Gd168 N199 2.661 . S
Gd168 N205 2.601 1_554 S
Gd168 O212 2.545 1_554 S
Gd168 O213 2.606 1_545 S
Gd168 O215 2.429 1_554 S
Gd168 O216 2.533 1_545 S
Gd168 O217 2.412 . S
Gd168 O219 2.362 . S
Gd168 O220 2.324 . S
Gd168 C227 2.828 . S
Gd169 N178 2.661 1_554 S
Gd169 N182 2.601 . S
Gd169 O213 2.362 . S
Gd169 O214 2.324 1_554 S
Gd169 O218 2.545 . S
Gd169 O219 2.606 1_565 S
Gd169 O221 2.429 1_565 S
Gd169 O222 2.545 1_565 S
Gd169 O223 2.412 1_554 S
Gd169 C236 2.828 . S
C170 C173 1.417 . S
C170 C175 1.431 . S
C170 C176 1.412 . S
C171 C174 1.437 . S
C171 C175 1.317 1_554 S
C171 H190 0.929 . S
C172 C173 1.426 1_554 S
C172 C174 1.413 . S
C172 N182 1.359 . S
C173 C170 1.417 . S
C173 C172 1.426 1_556 S
C173 N178 1.350 . S
C174 C171 1.437 . S
C174 C172 1.413 . S
C174 C184 1.391 . S
C175 C170 1.431 . S
C175 C171 1.317 1_556 S
C175 H186 0.930 . S
C176 C170 1.412 . S
C176 C177 1.355 . S
C176 H188 0.930 . S
C177 C176 1.355 . S
C177 C179 1.402 . S
C177 H189 0.930 . S
N178 Gd169 2.661 1_556 S
N178 C173 1.350 . S
N178 C179 1.307 . S
C179 C177 1.402 . S
C179 N178 1.307 . S
C179 H180 0.930 . S
H180 C179 0.930 . S
C181 N182 1.334 . S
C181 C183 1.394 . S
C181 H185 0.930 . S
N182 Gd169 2.601 . S
N182 C172 1.359 . S
N182 C181 1.334 . S
C183 C181 1.394 . S
C183 C184 1.359 . S
C183 H195 0.930 . S
C184 C174 1.391 . S
C184 C183 1.359 . S
C184 H196 0.929 . S
H185 C181 0.930 . S
H186 C175 0.930 . S
H187 C204 0.930 . S
H188 C176 0.930 . S
H189 C177 0.930 . S
H190 C171 0.929 . S
H191 C209 0.930 . S
H192 C200 0.930 . S
H193 C201 0.930 . S
H194 C225 0.929 . S
H195 C183 0.930 . S
H196 C184 0.929 . S
H197 C226 0.930 . S
H198 C207 0.930 . S
N199 Gd168 2.661 . S
N199 C203 1.350 . S
N199 C204 1.307 . S
C200 H192 0.930 . S
C200 C201 1.355 . S
C200 C202 1.412 . S
C201 H193 0.930 . S
C201 C200 1.355 . S
C201 C204 1.402 . S
C202 C200 1.412 . S
C202 C203 1.417 . S
C202 C226 1.431 . S
C203 N199 1.350 . S
C203 C202 1.417 . S
C203 C206 1.426 1_554 S
C204 H187 0.930 . S
C204 N199 1.307 . S
C204 C201 1.402 . S
N205 Gd168 2.601 1_556 S
N205 C206 1.359 . S
N205 C209 1.334 . S
C206 C203 1.426 1_556 S
C206 N205 1.359 . S
C206 C210 1.413 . S
C207 H198 0.930 . S
C207 C208 1.359 . S
C207 C209 1.394 . S
C208 C207 1.359 . S
C208 C210 1.391 . S
C208 H211 0.929 . S
C209 H191 0.930 . S
C209 N205 1.334 . S
C209 C207 1.394 . S
C210 C206 1.413 . S
C210 C208 1.391 . S
C210 C225 1.437 . S
H211 C208 0.929 . S
O212 Gd168 2.545 1_556 S
O212 C227 1.258 1_556 S
O213 Gd168 2.606 1_565 S
O213 Gd169 2.362 . S
O213 C224 1.284 . S
O214 Gd169 2.324 1_556 S
O214 C234 1.254 . S
O215 Gd168 2.429 1_556 S
O215 C234 1.268 1_545 S
O216 Gd168 2.533 1_565 S
O216 C224 1.291 . S
O217 Gd168 2.412 . S
O217 C227 1.252 . S
O218 Gd169 2.545 . S
O218 C236 1.258 . S
O219 Gd168 2.362 . S
O219 Gd169 2.606 1_545 S
O219 C235 1.284 . S
O220 Gd168 2.324 . S
O220 C243 1.254 . S
O221 Gd169 2.429 1_545 S
O221 C243 1.268 . S
O222 Gd169 2.545 1_545 S
O222 C235 1.250 . S
O223 Gd169 2.412 1_556 S
O223 C236 1.252 1_556 S
C224 O213 1.284 . S
C224 O216 1.291 . S
C225 H194 0.929 . S
C225 C210 1.437 . S
C225 C226 1.317 1_556 S
C226 H197 0.930 . S
C226 C202 1.431 . S
C226 C225 1.317 1_554 S
C227 Gd168 2.828 . S
C227 O212 1.258 1_554 S
C227 O217 1.252 . S
C227 C228 1.497 . S
C228 C227 1.497 . S
C228 C229 1.395 1_554 S
C228 C230 1.380 . S
C229 C228 1.395 1_556 S
C229 C232 1.398 1_556 S
C229 H244 0.930 . S
C230 C228 1.380 . S
C230 C231 1.391 . S
C230 H245 0.930 . S
C231 C230 1.391 . S
C231 C233 1.387 . S
C232 C229 1.398 1_554 S
C232 C233 1.380 . S
C232 H246 0.930 1_554 S
C233 C231 1.387 . S
C233 C232 1.380 . S
C233 H247 0.930 . S
C234 O214 1.254 . S
C234 O215 1.268 1_565 S
C235 O219 1.284 . S
C235 O222 1.250 . S
C236 Gd169 2.828 . S
C236 O218 1.258 . S
C236 O223 1.252 1_554 S
C236 C237 1.497 1_554 S
C237 C236 1.497 1_556 S
C237 C238 1.395 1_556 S
C237 C239 1.380 . S
C238 C237 1.395 1_554 S
C238 C241 1.398 . S
C238 H248 0.930 . S
C239 C237 1.380 . S
C239 C240 1.391 . S
C239 H249 0.930 . S
C240 C239 1.391 . S
C240 C242 1.387 . S
C241 C238 1.398 . S
C241 C242 1.380 1_554 S
C241 H250 0.930 . S
C242 C240 1.387 . S
C242 C241 1.380 1_556 S
C242 H251 0.930 . S
C243 O220 1.254 . S
C243 O221 1.268 . S
H244 C229 0.930 . S
H245 C230 0.930 . S
H246 C232 0.930 1_556 S
H247 C233 0.930 . S
H248 C238 0.930 . S
H249 C239 0.930 . S
H250 C241 0.930 . S
H251 C242 0.930 . S
Gd252 N283 2.661 . S
Gd252 N289 2.601 . S
Gd252 O296 2.545 . S
Gd252 O297 2.606 . S
Gd252 O299 2.429 . S
Gd252 O300 2.545 . S
Gd252 O301 2.412 . S
Gd252 O303 2.362 . S
Gd252 O304 2.324 1_554 S
Gd252 C311 2.828 . S
Gd253 N262 2.661 . S
Gd253 N266 2.601 1_554 S
Gd253 O297 2.362 . S
Gd253 O298 2.324 . S
Gd253 O302 2.545 . S
Gd253 O303 2.606 . S
Gd253 O305 2.429 1_554 S
Gd253 O306 2.545 . S
Gd253 O307 2.412 . S
Gd253 C320 2.828 . S
C254 C257 1.417 . S
C254 C259 1.431 1_554 S
C254 C260 1.412 . S
C255 C258 1.437 . S
C255 C259 1.317 . S
C255 H274 0.929 . S
C256 C257 1.426 1_556 S
C256 C258 1.413 . S
C256 N266 1.359 . S
C257 C254 1.417 . S
C257 C256 1.426 1_554 S
C257 N262 1.350 . S
C258 C255 1.437 . S
C258 C256 1.413 . S
C258 C268 1.391 . S
C259 C254 1.431 1_556 S
C259 C255 1.317 . S
C259 H270 0.930 . S
C260 C254 1.412 . S
C260 C261 1.355 . S
C260 H272 0.930 . S
C261 C260 1.355 . S
C261 C263 1.402 . S
C261 H273 0.930 . S
N262 Gd253 2.661 . S
N262 C257 1.350 . S
N262 C263 1.307 . S
C263 C261 1.402 . S
C263 N262 1.307 . S
C263 H264 0.930 . S
H264 C263 0.930 . S
C265 N266 1.334 . S
C265 C267 1.394 . S
C265 H269 0.930 . S
N266 Gd253 2.601 1_556 S
N266 C256 1.359 . S
N266 C265 1.334 . S
C267 C265 1.394 . S
C267 C268 1.359 . S
C267 H279 0.930 . S
C268 C258 1.391 . S
C268 C267 1.359 . S
C268 H280 0.929 . S
H269 C265 0.930 . S
H270 C259 0.930 . S
H271 C288 0.930 1_556 S
H272 C260 0.930 . S
H273 C261 0.930 . S
H274 C255 0.929 . S
H275 C293 0.930 . S
H276 C284 0.930 . S
H277 C285 0.930 1_556 S
H278 C309 0.929 . S
H279 C267 0.930 . S
H280 C268 0.929 . S
H281 C310 0.930 . S
H282 C291 0.930 . S
N283 Gd252 2.661 . S
N283 C287 1.350 . S
N283 C288 1.307 . S
C284 H276 0.930 . S
C284 C285 1.355 . S
C284 C286 1.412 . S
C285 H277 0.930 1_554 S
C285 C284 1.355 . S
C285 C288 1.402 . S
C286 C284 1.412 . S
C286 C287 1.417 . S
C286 C310 1.431 . S
C287 N283 1.350 . S
C287 C286 1.417 . S
C287 C290 1.426 . S
C288 H271 0.930 1_554 S
C288 N283 1.307 . S
C288 C285 1.402 . S
N289 Gd252 2.601 . S
N289 C290 1.359 . S
N289 C293 1.334 . S
C290 C287 1.426 . S
C290 N289 1.359 . S
C290 C294 1.413 . S
C291 H282 0.930 . S
C291 C292 1.359 . S
C291 C293 1.394 . S
C292 C291 1.359 . S
C292 C294 1.391 . S
C292 H295 0.929 . S
C293 H275 0.930 . S
C293 N289 1.334 . S
C293 C291 1.394 . S
C294 C290 1.413 . S
C294 C292 1.391 . S
C294 C309 1.437 . S
H295 C292 0.929 . S
O296 Gd252 2.545 . S
O296 C311 1.258 . S
O297 Gd252 2.606 . S
O297 Gd253 2.362 . S
O297 C308 1.284 . S
O298 Gd253 2.324 . S
O298 C318 1.254 . S
O299 Gd252 2.429 . S
O299 C318 1.268 . S
O300 Gd252 2.545 . S
O300 C308 1.250 . S
O301 Gd252 2.412 . S
O301 C311 1.252 . S
O302 Gd253 2.545 . S
O302 C320 1.258 . S
O303 Gd252 2.362 . S
O303 Gd253 2.606 . S
O303 C319 1.284 . S
O304 Gd252 2.324 1_556 S
O304 C327 1.254 . S
O305 Gd253 2.429 1_556 S
O305 C327 1.268 . S
O306 Gd253 2.545 . S
O306 C319 1.250 . S
O307 Gd253 2.412 . S
O307 C320 1.252 . S
C308 O297 1.284 . S
C308 O300 1.250 . S
C309 H278 0.929 . S
C309 C294 1.437 . S
C309 C310 1.317 . S
C310 H281 0.930 . S
C310 C286 1.431 . S
C310 C309 1.317 . S
C311 Gd252 2.828 . S
C311 O296 1.258 . S
C311 O301 1.252 . S
C311 C312 1.497 . S
C312 C311 1.497 . S
C312 C313 1.395 . S
C312 C314 1.380 . S
C313 C312 1.395 . S
C313 C316 1.398 . S
C313 H328 0.930 . S
C314 C312 1.380 . S
C314 C315 1.391 . S
C314 H329 0.930 1_554 S
C315 C314 1.391 . S
C315 C317 1.387 . S
C316 C313 1.398 . S
C316 C317 1.380 . S
C316 H330 0.930 . S
C317 C315 1.387 . S
C317 C316 1.380 . S
C317 H331 0.930 . S
C318 O298 1.254 . S
C318 O299 1.268 . S
C319 O303 1.284 . S
C319 O306 1.250 . S
C320 Gd253 2.828 . S
C320 O302 1.258 . S
C320 O307 1.252 . S
C320 C321 1.497 . S
C321 C320 1.497 . S
C321 C322 1.395 . S
C321 C323 1.380 . S
C322 C321 1.395 . S
C322 C325 1.398 . S
C322 H332 0.930 1_554 S
C323 C321 1.380 . S
C323 C324 1.391 . S
C323 H333 0.930 . S
C324 C323 1.391 . S
C324 C326 1.387 . S
C325 C322 1.398 . S
C325 C326 1.380 . S
C325 H334 0.930 . S
C326 C324 1.387 . S
C326 C325 1.380 . S
C326 H335 0.930 . S
C327 O304 1.254 . S
C327 O305 1.268 . S
H328 C313 0.930 . S
H329 C314 0.930 1_556 S
H330 C316 0.930 . S
H331 C317 0.930 . S
H332 C322 0.930 1_556 S
H333 C323 0.930 . S
H334 C325 0.930 . S
H335 C326 0.930 . S
Gd336 N367 2.661 1_554 S
Gd336 N373 2.601 . S
Gd336 O380 2.545 . S
Gd336 O381 2.606 . S
Gd336 O383 2.429 . S
Gd336 O384 2.545 . S
Gd336 O385 2.412 1_554 S
Gd336 O387 2.362 1_554 S
Gd336 O388 2.324 1_554 S
Gd336 C395 2.828 . S
Gd337 N346 2.661 1_556 S
Gd337 N350 2.601 . S
Gd337 O381 2.362 1_556 S
Gd337 O382 2.324 1_556 S
Gd337 O386 2.545 . S
Gd337 O387 2.606 . S
Gd337 O389 2.429 . S
Gd337 O390 2.545 . S
Gd337 O391 2.412 1_556 S
Gd337 C404 2.828 . S
C338 C341 1.417 . S
C338 C343 1.431 . S
C338 C344 1.412 . S
C339 C342 1.437 . S
C339 C343 1.317 1_556 S
C339 H358 0.929 . S
C340 C341 1.426 1_556 S
C340 C342 1.413 . S
C340 N350 1.359 . S
C341 C338 1.417 . S
C341 C340 1.426 1_554 S
C341 N346 1.350 . S
C342 C339 1.437 . S
C342 C340 1.413 . S
C342 C352 1.391 . S
C343 C338 1.431 . S
C343 C339 1.317 1_554 S
C343 H354 0.930 . S
C344 C338 1.412 . S
C344 C345 1.355 . S
C344 H356 0.930 . S
C345 C344 1.355 . S
C345 C347 1.402 . S
C345 H357 0.930 . S
N346 Gd337 2.661 1_554 S
N346 C341 1.350 . S
N346 C347 1.307 . S
C347 C345 1.402 . S
C347 N346 1.307 . S
C347 H348 0.930 . S
H348 C347 0.930 . S
C349 N350 1.334 . S
C349 C351 1.394 . S
C349 H353 0.930 . S
N350 Gd337 2.601 . S
N350 C340 1.359 . S
N350 C349 1.334 . S
C351 C349 1.394 . S
C351 C352 1.359 . S
C351 H363 0.930 . S
C352 C342 1.391 . S
C352 C351 1.359 . S
C352 H364 0.929 . S
H353 C349 0.930 . S
H354 C343 0.930 . S
H355 C372 0.930 . S
H356 C344 0.930 . S
H357 C345 0.930 . S
H358 C339 0.929 . S
H359 C377 0.930 . S
H360 C368 0.930 . S
H361 C369 0.930 . S
H362 C393 0.929 . S
H363 C351 0.930 . S
H364 C352 0.929 . S
H365 C394 0.930 . S
H366 C375 0.930 . S
N367 Gd336 2.661 1_556 S
N367 C371 1.350 . S
N367 C372 1.307 . S
C368 H360 0.930 . S
C368 C369 1.355 . S
C368 C370 1.412 . S
C369 H361 0.930 . S
C369 C368 1.355 . S
C369 C372 1.402 . S
C370 C368 1.412 . S
C370 C371 1.417 . S
C370 C394 1.431 . S
C371 N367 1.350 . S
C371 C370 1.417 . S
C371 C374 1.426 1_556 S
C372 H355 0.930 . S
C372 N367 1.307 . S
C372 C369 1.402 . S
N373 Gd336 2.601 . S
N373 C374 1.359 . S
N373 C377 1.334 . S
C374 C371 1.426 1_554 S
C374 N373 1.359 . S
C374 C378 1.413 . S
C375 H366 0.930 . S
C375 C376 1.359 . S
C375 C377 1.394 . S
C376 C375 1.359 . S
C376 C378 1.391 . S
C376 H379 0.929 . S
C377 H359 0.930 . S
C377 N373 1.334 . S
C377 C375 1.394 . S
C378 C374 1.413 . S
C378 C376 1.391 . S
C378 C393 1.437 . S
H379 C376 0.929 . S
O380 Gd336 2.545 . S
O380 C395 1.258 . S
O381 Gd336 2.606 . S
O381 Gd337 2.362 1_554 S
O381 C392 1.284 . S
O382 Gd337 2.324 1_554 S
O382 C402 1.254 . S
O383 Gd336 2.429 . S
O383 C402 1.268 . S
O384 Gd336 2.545 . S
O384 C392 1.250 . S
O385 Gd336 2.412 1_556 S
O385 C395 1.252 1_556 S
O386 Gd337 2.545 . S
O386 C404 1.258 . S
O387 Gd336 2.362 1_556 S
O387 Gd337 2.606 . S
O387 C403 1.284 . S
O388 Gd336 2.324 1_556 S
O388 C411 1.254 . S
O389 Gd337 2.429 . S
O389 C411 1.268 . S
O390 Gd337 2.545 . S
O390 C403 1.250 . S
O391 Gd337 2.412 1_554 S
O391 C404 1.252 1_554 S
C392 O381 1.284 . S
C392 O384 1.250 . S
C393 H362 0.929 . S
C393 C378 1.437 . S
C393 C394 1.317 1_554 S
C394 H365 0.930 . S
C394 C370 1.431 . S
C394 C393 1.317 1_556 S
C395 Gd336 2.828 . S
C395 O380 1.258 . S
C395 O385 1.252 1_554 S
C395 C396 1.497 . S
C396 C395 1.497 . S
C396 C397 1.395 . S
C396 C398 1.380 1_554 S
C397 C396 1.395 . S
C397 C400 1.398 . S
C397 H412 0.930 . S
C398 C396 1.380 1_556 S
C398 C399 1.391 . S
C398 H413 0.930 . S
C399 C398 1.391 . S
C399 C401 1.387 . S
C400 C397 1.398 . S
C400 C401 1.380 1_554 S
C400 H414 0.930 . S
C401 C399 1.387 . S
C401 C400 1.380 1_556 S
C401 H415 0.930 . S
C402 O382 1.254 . S
C402 O383 1.268 . S
C403 O387 1.284 . S
C403 O390 1.250 . S
C404 Gd337 2.828 . S
C404 O386 1.258 . S
C404 O391 1.252 1_556 S
C404 C405 1.497 . S
C405 C404 1.497 . S
C405 C406 1.395 . S
C405 C407 1.380 1_556 S
C406 C405 1.395 . S
C406 C409 1.398 . S
C406 H416 0.930 . S
C407 C405 1.380 1_554 S
C407 C408 1.391 . S
C407 H417 0.930 . S
C408 C407 1.391 . S
C408 C410 1.387 . S
C409 C406 1.398 . S
C409 C410 1.380 1_556 S
C409 H418 0.930 . S
C410 C408 1.387 . S
C410 C409 1.380 1_554 S
C410 H419 0.930 . S
C411 O388 1.254 . S
C411 O389 1.268 . S
H412 C397 0.930 . S
H413 C398 0.930 . S
H414 C400 0.930 . S
H415 C401 0.930 . S
H416 C406 0.930 . S
H417 C407 0.930 . S
H418 C409 0.930 . S
H419 C410 0.930 . S
Gd420 N451 2.661 . S
Gd420 N457 2.601 . S
Gd420 O464 2.545 . S
Gd420 O465 2.606 . S
Gd420 O467 2.429 . S
Gd420 O468 2.545 . S
Gd420 O469 2.412 . S
Gd420 O471 2.362 . S
Gd420 O472 2.324 . S
Gd420 C479 2.828 . S
Gd421 N430 2.661 . S
Gd421 N434 2.601 . S
Gd421 O465 2.362 . S
Gd421 O466 2.324 . S
Gd421 O470 2.545 . S
Gd421 O471 2.606 . S
Gd421 O473 2.429 . S
Gd421 O474 2.545 . S
Gd421 O475 2.412 . S
Gd421 C488 2.828 . S
C422 C425 1.417 . S
C422 C427 1.431 . S
C422 C428 1.412 . S
C423 C426 1.437 . S
C423 C427 1.317 . S
C423 H442 0.929 . S
C424 C425 1.426 . S
C424 C426 1.413 . S
C424 N434 1.359 . S
C425 C422 1.417 . S
C425 C424 1.426 . S
C425 N430 1.350 . S
C426 C423 1.437 . S
C426 C424 1.413 . S
C426 C436 1.391 . S
C427 C422 1.431 . S
C427 C423 1.317 . S
C427 H438 0.930 . S
C428 C422 1.412 . S
C428 C429 1.355 . S
C428 H440 0.930 . S
C429 C428 1.355 . S
C429 C431 1.402 . S
C429 H441 0.930 . S
N430 Gd421 2.661 . S
N430 C425 1.350 . S
N430 C431 1.307 . S
C431 C429 1.402 . S
C431 N430 1.307 . S
C431 H432 0.930 . S
H432 C431 0.930 . S
C433 N434 1.334 . S
C433 C435 1.394 . S
C433 H437 0.930 . S
N434 Gd421 2.601 . S
N434 C424 1.359 . S
N434 C433 1.334 . S
C435 C433 1.394 . S
C435 C436 1.359 . S
C435 H447 0.930 1_554 S
C436 C426 1.391 . S
C436 C435 1.359 . S
C436 H448 0.929 . S
H437 C433 0.930 . S
H438 C427 0.930 . S
H439 C456 0.930 . S
H440 C428 0.930 . S
H441 C429 0.930 . S
H442 C423 0.929 . S
H443 C461 0.930 . S
H444 C452 0.930 . S
H445 C453 0.930 . S
H446 C477 0.929 . S
H447 C435 0.930 1_556 S
H448 C436 0.929 . S
H449 C478 0.930 . S
H450 C459 0.930 . S
N451 Gd420 2.661 . S
N451 C455 1.350 . S
N451 C456 1.307 1_554 S
C452 H444 0.930 . S
C452 C453 1.355 . S
C452 C454 1.412 1_556 S
C453 H445 0.930 . S
C453 C452 1.355 . S
C453 C456 1.402 . S
C454 C452 1.412 1_554 S
C454 C455 1.417 . S
C454 C478 1.431 . S
C455 N451 1.350 . S
C455 C454 1.417 . S
C455 C458 1.426 . S
C456 H439 0.930 . S
C456 N451 1.307 1_556 S
C456 C453 1.402 . S
N457 Gd420 2.601 . S
N457 C458 1.359 . S
N457 C461 1.334 . S
C458 C455 1.426 . S
C458 N457 1.359 . S
C458 C462 1.413 . S
C459 H450 0.930 . S
C459 C460 1.359 . S
C459 C461 1.394 . S
C460 C459 1.359 . S
C460 C462 1.391 . S
C460 H463 0.929 . S
C461 H443 0.930 . S
C461 N457 1.334 . S
C461 C459 1.394 . S
C462 C458 1.413 . S
C462 C460 1.391 . S
C462 C477 1.437 . S
H463 C460 0.929 . S
O464 Gd420 2.545 . S
O464 C479 1.258 . S
O465 Gd420 2.606 . S
O465 Gd421 2.362 . S
O465 C476 1.284 . S
O466 Gd421 2.324 . S
O466 C486 1.254 . S
O467 Gd420 2.429 . S
O467 C486 1.268 . S
O468 Gd420 2.545 . S
O468 C476 1.250 . S
O469 Gd420 2.412 . S
O469 C479 1.252 . S
O470 Gd421 2.545 . S
O470 C488 1.258 . S
O471 Gd420 2.362 . S
O471 Gd421 2.606 . S
O471 C487 1.284 . S
O472 Gd420 2.324 . S
O472 C495 1.254 1_554 S
O473 Gd421 2.429 . S
O473 C495 1.268 1_554 S
O474 Gd421 2.545 . S
O474 C487 1.250 . S
O475 Gd421 2.412 . S
O475 C488 1.252 . S
C476 O465 1.284 . S
C476 O468 1.250 . S
C477 H446 0.929 . S
C477 C462 1.437 . S
C477 C478 1.317 . S
C478 H449 0.930 . S
C478 C454 1.431 . S
C478 C477 1.317 . S
C479 Gd420 2.828 . S
C479 O464 1.258 . S
C479 O469 1.252 . S
C479 C480 1.497 . S
C480 C479 1.497 . S
C480 C481 1.395 . S
C480 C482 1.380 1_554 S
C481 C480 1.395 . S
C481 C484 1.398 . S
C481 H496 0.930 . S
C482 C480 1.380 1_556 S
C482 C483 1.391 . S
C482 H497 0.930 . S
C483 C482 1.391 . S
C483 C485 1.387 . S
C484 C481 1.398 . S
C484 C485 1.380 1_554 S
C484 H498 0.930 . S
C485 C483 1.387 . S
C485 C484 1.380 1_556 S
C485 H499 0.930 . S
C486 O466 1.254 . S
C486 O467 1.268 . S
C487 O471 1.284 . S
C487 O474 1.250 . S
C488 Gd421 2.828 . S
C488 O470 1.258 . S
C488 O475 1.252 . S
C488 C489 1.497 1_655 S
C489 C488 1.497 1_455 S
C489 C490 1.395 . S
C489 C491 1.380 . S
C490 C489 1.395 . S
C490 C493 1.398 . S
C490 H500 0.930 . S
C491 C489 1.380 . S
C491 C492 1.391 . S
C491 H501 0.930 . S
C492 C491 1.391 . S
C492 C494 1.387 . S
C493 C490 1.398 . S
C493 C494 1.380 . S
C493 H502 0.930 . S
C494 C492 1.387 . S
C494 C493 1.380 . S
C494 H503 0.930 . S
C495 O472 1.254 1_556 S
C495 O473 1.268 1_556 S
H496 C481 0.930 . S
H497 C482 0.930 . S
H498 C484 0.930 . S
H499 C485 0.930 . S
H500 C490 0.930 . S
H501 C491 0.930 . S
H502 C493 0.930 . S
H503 C494 0.930 . S
Gd504 N535 2.661 . S
Gd504 N541 2.601 . S
Gd504 O548 2.545 . S
Gd504 O549 2.606 . S
Gd504 O551 2.429 . S
Gd504 O552 2.545 . S
Gd504 O553 2.412 . S
Gd504 O555 2.362 . S
Gd504 O556 2.324 . S
Gd504 C563 2.828 . S
Gd505 N514 2.661 . S
Gd505 N518 2.601 . S
Gd505 O549 2.362 . S
Gd505 O550 2.324 . S
Gd505 O554 2.545 . S
Gd505 O555 2.606 . S
Gd505 O557 2.429 . S
Gd505 O558 2.545 . S
Gd505 O559 2.412 . S
Gd505 C572 2.828 . S
C506 C509 1.417 . S
C506 C511 1.431 . S
C506 C512 1.412 . S
C507 C510 1.437 1_556 S
C507 C511 1.317 . S
C507 H526 0.929 1_556 S
C508 C509 1.426 . S
C508 C510 1.413 1_556 S
C508 N518 1.359 . S
C509 C506 1.417 . S
C509 C508 1.426 . S
C509 N514 1.350 . S
C510 C507 1.437 1_554 S
C510 C508 1.413 1_554 S
C510 C520 1.391 . S
C511 C506 1.431 . S
C511 C507 1.317 . S
C511 H522 0.930 . S
C512 C506 1.412 . S
C512 C513 1.355 . S
C512 H524 0.930 . S
C513 C512 1.355 . S
C513 C515 1.402 . S
C513 H525 0.930 . S
N514 Gd505 2.661 . S
N514 C509 1.350 . S
N514 C515 1.307 . S
C515 C513 1.402 . S
C515 N514 1.307 . S
C515 H516 0.930 . S
H516 C515 0.930 . S
C517 N518 1.334 1_554 S
C517 C519 1.394 . S
C517 H521 0.930 . S
N518 Gd505 2.601 . S
N518 C508 1.359 . S
N518 C517 1.334 1_556 S
C519 C517 1.394 . S
C519 C520 1.359 . S
C519 H531 0.930 . S
C520 C510 1.391 . S
C520 C519 1.359 . S
C520 H532 0.929 . S
H521 C517 0.930 . S
H522 C511 0.930 . S
H523 C540 0.930 . S
H524 C512 0.930 . S
H525 C513 0.930 . S
H526 C507 0.929 1_554 S
H527 C545 0.930 . S
H528 C536 0.930 . S
H529 C537 0.930 1_554 S
H530 C561 0.929 . S
H531 C519 0.930 . S
H532 C520 0.929 . S
H533 C562 0.930 . S
H534 C543 0.930 . S
N535 Gd504 2.661 . S
N535 C539 1.350 . S
N535 C540 1.307 . S
C536 H528 0.930 . S
C536 C537 1.355 . S
C536 C538 1.412 . S
C537 H529 0.930 1_556 S
C537 C536 1.355 . S
C537 C540 1.402 . S
C538 C536 1.412 . S
C538 C539 1.417 . S
C538 C562 1.431 . S
C539 N535 1.350 . S
C539 C538 1.417 . S
C539 C542 1.426 . S
C540 H523 0.930 . S
C540 N535 1.307 . S
C540 C537 1.402 . S
N541 Gd504 2.601 . S
N541 C542 1.359 . S
N541 C545 1.334 . S
C542 C539 1.426 . S
C542 N541 1.359 . S
C542 C546 1.413 . S
C543 H534 0.930 . S
C543 C544 1.359 . S
C543 C545 1.394 . S
C544 C543 1.359 . S
C544 C546 1.391 . S
C544 H547 0.929 . S
C545 H527 0.930 . S
C545 N541 1.334 . S
C545 C543 1.394 . S
C546 C542 1.413 . S
C546 C544 1.391 . S
C546 C561 1.437 . S
H547 C544 0.929 . S
O548 Gd504 2.545 . S
O548 C563 1.258 . S
O549 Gd504 2.606 . S
O549 Gd505 2.362 . S
O549 C560 1.284 . S
O550 Gd505 2.324 . S
O550 C570 1.254 . S
O551 Gd504 2.429 . S
O551 C570 1.268 . S
O552 Gd504 2.545 . S
O552 C560 1.250 . S
O553 Gd504 2.412 . S
O553 C563 1.252 . S
O554 Gd505 2.545 . S
O554 C572 1.258 . S
O555 Gd504 2.362 . S
O555 Gd505 2.606 . S
O555 C571 1.284 . S
O556 Gd504 2.324 . S
O556 C579 1.254 . S
O557 Gd505 2.429 . S
O557 C579 1.268 . S
O558 Gd505 2.545 . S
O558 C571 1.250 . S
O559 Gd505 2.412 . S
O559 C572 1.252 . S
C560 O549 1.284 . S
C560 O552 1.250 . S
C561 H530 0.929 . S
C561 C546 1.437 . S
C561 C562 1.317 . S
C562 H533 0.930 . S
C562 C538 1.431 . S
C562 C561 1.317 . S
C563 Gd504 2.828 . S
C563 O548 1.258 . S
C563 O553 1.252 . S
C563 C564 1.497 . S
C564 C563 1.497 . S
C564 C565 1.395 . S
C564 C566 1.380 . S
C565 C564 1.395 . S
C565 C568 1.398 . S
C565 H580 0.930 . S
C566 C564 1.380 . S
C566 C567 1.391 . S
C566 H581 0.930 . S
C567 C566 1.391 . S
C567 C569 1.387 . S
C568 C565 1.398 . S
C568 C569 1.380 . S
C568 H582 0.930 . S
C569 C567 1.387 . S
C569 C568 1.380 . S
C569 H583 0.930 . S
C570 O550 1.254 . S
C570 O551 1.268 . S
C571 O555 1.284 . S
C571 O558 1.250 . S
C572 Gd505 2.828 . S
C572 O554 1.258 . S
C572 O559 1.252 . S
C572 C573 1.497 . S
C573 C572 1.497 . S
C573 C574 1.395 . S
C573 C575 1.380 . S
C574 C573 1.395 . S
C574 C577 1.398 1_565 S
C574 H584 0.930 . S
C575 C573 1.380 . S
C575 C576 1.391 . S
C575 H585 0.930 . S
C576 C575 1.391 . S
C576 C578 1.387 1_565 S
C577 C574 1.398 1_545 S
C577 C578 1.380 . S
C577 H586 0.930 . S
C578 C576 1.387 1_545 S
C578 C577 1.380 . S
C578 H587 0.930 . S
C579 O556 1.254 . S
C579 O557 1.268 . S
H580 C565 0.930 . S
H581 C566 0.930 . S
H582 C568 0.930 . S
H583 C569 0.930 . S
H584 C574 0.930 . S
H585 C575 0.930 . S
H586 C577 0.930 . S
H587 C578 0.930 . S
Gd588 N619 2.661 . S
Gd588 N625 2.601 1_556 S
Gd588 O632 2.545 1_556 S
Gd588 O633 2.606 . S
Gd588 O635 2.429 1_556 S
Gd588 O636 2.545 1_556 S
Gd588 O637 2.412 . S
Gd588 O639 2.362 . S
Gd588 O640 2.324 . S
Gd588 C647 2.828 . S
Gd589 N598 2.661 1_556 S
Gd589 N602 2.601 . S
Gd589 O633 2.362 . S
Gd589 O634 2.324 1_556 S
Gd589 O638 2.545 . S
Gd589 O639 2.606 . S
Gd589 O641 2.429 . S
Gd589 O642 2.545 . S
Gd589 O643 2.412 . S
Gd589 C656 2.828 . S
C590 C593 1.417 . S
C590 C595 1.431 . S
C590 C596 1.412 . S
C591 C594 1.437 . S
C591 C595 1.317 1_556 S
C591 H610 0.929 . S
C592 C593 1.426 1_556 S
C592 C594 1.413 . S
C592 N602 1.359 . S
C593 C590 1.417 . S
C593 C592 1.426 1_554 S
C593 N598 1.350 . S
C594 C591 1.437 . S
C594 C592 1.413 . S
C594 C604 1.391 . S
C595 C590 1.431 . S
C595 C591 1.317 1_554 S
C595 H606 0.930 . S
C596 C590 1.412 . S
C596 C597 1.355 . S
C596 H608 0.930 . S
C597 C596 1.355 . S
C597 C599 1.402 . S
C597 H609 0.930 . S
N598 Gd589 2.661 1_554 S
N598 C593 1.350 . S
N598 C599 1.307 . S
C599 C597 1.402 . S
C599 N598 1.307 . S
C599 H600 0.930 . S
H600 C599 0.930 . S
C601 N602 1.334 . S
C601 C603 1.394 . S
C601 H605 0.930 . S
N602 Gd589 2.601 . S
N602 C592 1.359 . S
N602 C601 1.334 . S
C603 C601 1.394 . S
C603 C604 1.359 . S
C603 H615 0.930 . S
C604 C594 1.391 . S
C604 C603 1.359 . S
C604 H616 0.929 . S
H605 C601 0.930 . S
H606 C595 0.930 . S
H607 C624 0.930 . S
H608 C596 0.930 . S
H609 C597 0.930 . S
H610 C591 0.929 . S
H611 C629 0.930 . S
H612 C620 0.930 . S
H613 C621 0.930 . S
H614 C645 0.929 . S
H615 C603 0.930 . S
H616 C604 0.929 . S
H617 C646 0.930 . S
H618 C627 0.930 . S
N619 Gd588 2.661 . S
N619 C623 1.350 . S
N619 C624 1.307 . S
C620 H612 0.930 . S
C620 C621 1.355 . S
C620 C622 1.412 . S
C621 H613 0.930 . S
C621 C620 1.355 . S
C621 C624 1.402 . S
C622 C620 1.412 . S
C622 C623 1.417 . S
C622 C646 1.431 . S
C623 N619 1.350 . S
C623 C622 1.417 . S
C623 C626 1.426 . S
C624 H607 0.930 . S
C624 N619 1.307 . S
C624 C621 1.402 . S
N625 Gd588 2.601 1_554 S
N625 C626 1.359 1_554 S
N625 C629 1.334 . S
C626 C623 1.426 . S
C626 N625 1.359 1_556 S
C626 C630 1.413 1_556 S
C627 H618 0.930 . S
C627 C628 1.359 . S
C627 C629 1.394 . S
C628 C627 1.359 . S
C628 C630 1.391 . S
C628 H631 0.929 . S
C629 H611 0.930 . S
C629 N625 1.334 . S
C629 C627 1.394 . S
C630 C626 1.413 1_554 S
C630 C628 1.391 . S
C630 C645 1.437 1_554 S
H631 C628 0.929 . S
O632 Gd588 2.545 1_554 S
O632 C647 1.258 1_554 S
O633 Gd588 2.606 . S
O633 Gd589 2.362 . S
O633 C644 1.284 . S
O634 Gd589 2.324 1_554 S
O634 C654 1.254 . S
O635 Gd588 2.429 1_554 S
O635 C654 1.268 . S
O636 Gd588 2.545 1_554 S
O636 C644 1.250 1_554 S
O637 Gd588 2.412 . S
O637 C647 1.252 . S
O638 Gd589 2.545 . S
O638 C656 1.258 . S
O639 Gd588 2.362 . S
O639 Gd589 2.606 . S
O639 C655 1.284 . S
O640 Gd588 2.324 . S
O640 C663 1.254 . S
O641 Gd589 2.429 . S
O641 C663 1.268 . S
O642 Gd589 2.545 . S
O642 C655 1.250 . S
O643 Gd589 2.412 . S
O643 C656 1.252 . S
C644 O633 1.284 . S
C644 O636 1.250 1_556 S
C645 H614 0.929 . S
C645 C630 1.437 1_556 S
C645 C646 1.317 . S
C646 H617 0.930 . S
C646 C622 1.431 . S
C646 C645 1.317 . S
C647 Gd588 2.828 . S
C647 O632 1.258 1_556 S
C647 O637 1.252 . S
C647 C648 1.497 . S
C648 C647 1.497 . S
C648 C649 1.395 1_556 S
C648 C650 1.380 . S
C649 C648 1.395 1_554 S
C649 C652 1.398 . S
C649 H664 0.930 . S
C650 C648 1.380 . S
C650 C651 1.391 . S
C650 H665 0.930 . S
C651 C650 1.391 . S
C651 C653 1.387 . S
C652 C649 1.398 . S
C652 C653 1.380 1_554 S
C652 H666 0.930 . S
C653 C651 1.387 . S
C653 C652 1.380 1_556 S
C653 H667 0.930 . S
C654 O634 1.254 . S
C654 O635 1.268 . S
C655 O639 1.284 . S
C655 O642 1.250 . S
C656 Gd589 2.828 . S
C656 O638 1.258 . S
C656 O643 1.252 . S
C656 C657 1.497 . S
C657 C656 1.497 . S
C657 C658 1.395 . S
C657 C659 1.380 . S
C658 C657 1.395 . S
C658 C661 1.398 . S
C658 H668 0.930 . S
C659 C657 1.380 . S
C659 C660 1.391 . S
C659 H669 0.930 1_556 S
C660 C659 1.391 . S
C660 C662 1.387 . S
C661 C658 1.398 . S
C661 C662 1.380 . S
C661 H670 0.930 . S
C662 C660 1.387 . S
C662 C661 1.380 . S
C662 H671 0.930 . S
C663 O640 1.254 . S
C663 O641 1.268 . S
H664 C649 0.930 . S
H665 C650 0.930 . S
H666 C652 0.930 . S
H667 C653 0.930 . S
H668 C658 0.930 . S
H669 C659 0.930 1_554 S
H670 C661 0.930 . S
H671 C662 0.930 . S
Gd672 N703 2.661 1_556 S
Gd672 N709 2.601 . S
Gd672 O716 2.545 . S
Gd672 O717 2.606 . S
Gd672 O719 2.429 . S
Gd672 O720 2.545 . S
Gd672 O721 2.412 1_556 S
Gd672 O723 2.362 . S
Gd672 O724 2.324 1_556 S
Gd672 C731 2.828 . S
Gd673 N682 2.661 . S
Gd673 N686 2.601 . S
Gd673 O717 2.362 . S
Gd673 O718 2.324 . S
Gd673 O722 2.545 . S
Gd673 O723 2.606 . S
Gd673 O725 2.429 1_556 S
Gd673 O726 2.545 . S
Gd673 O727 2.412 . S
Gd673 C740 2.828 . S
C674 C677 1.417 . S
C674 C679 1.431 . S
C674 C680 1.412 . S
C675 C678 1.437 . S
C675 C679 1.317 . S
C675 H694 0.929 . S
C676 C677 1.426 . S
C676 C678 1.413 . S
C676 N686 1.359 . S
C677 C674 1.417 . S
C677 C676 1.426 . S
C677 N682 1.350 . S
C678 C675 1.437 . S
C678 C676 1.413 . S
C678 C688 1.391 1_556 S
C679 C674 1.431 . S
C679 C675 1.317 . S
C679 H690 0.930 . S
C680 C674 1.412 . S
C680 C681 1.355 . S
C680 H692 0.930 . S
C681 C680 1.355 . S
C681 C683 1.402 . S
C681 H693 0.930 . S
N682 Gd673 2.661 . S
N682 C677 1.350 . S
N682 C683 1.307 . S
C683 C681 1.402 . S
C683 N682 1.307 . S
C683 H684 0.930 . S
H684 C683 0.930 . S
C685 N686 1.334 1_554 S
C685 C687 1.394 . S
C685 H689 0.930 . S
N686 Gd673 2.601 . S
N686 C676 1.359 . S
N686 C685 1.334 1_556 S
C687 C685 1.394 . S
C687 C688 1.359 . S
C687 H699 0.930 . S
C688 C678 1.391 1_554 S
C688 C687 1.359 . S
C688 H700 0.929 . S
H689 C685 0.930 . S
H690 C679 0.930 . S
H691 C708 0.930 . S
H692 C680 0.930 . S
H693 C681 0.930 . S
H694 C675 0.929 . S
H695 C713 0.930 . S
H696 C704 0.930 . S
H697 C705 0.930 . S
H698 C729 0.929 . S
H699 C687 0.930 . S
H700 C688 0.929 . S
H701 C730 0.930 . S
H702 C711 0.930 . S
N703 Gd672 2.661 1_554 S
N703 C707 1.350 . S
N703 C708 1.307 . S
C704 H696 0.930 . S
C704 C705 1.355 . S
C704 C706 1.412 . S
C705 H697 0.930 . S
C705 C704 1.355 . S
C705 C708 1.402 . S
C706 C704 1.412 . S
C706 C707 1.417 . S
C706 C730 1.431 . S
C707 N703 1.350 . S
C707 C706 1.417 . S
C707 C710 1.426 1_554 S
C708 H691 0.930 . S
C708 N703 1.307 . S
C708 C705 1.402 . S
N709 Gd672 2.601 . S
N709 C710 1.359 . S
N709 C713 1.334 . S
C710 C707 1.426 1_556 S
C710 N709 1.359 . S
C710 C714 1.413 . S
C711 H702 0.930 . S
C711 C712 1.359 . S
C711 C713 1.394 . S
C712 C711 1.359 . S
C712 C714 1.391 . S
C712 H715 0.929 . S
C713 H695 0.930 . S
C713 N709 1.334 . S
C713 C711 1.394 . S
C714 C710 1.413 . S
C714 C712 1.391 . S
C714 C729 1.437 . S
H715 C712 0.929 . S
O716 Gd672 2.545 . S
O716 C731 1.258 . S
O717 Gd672 2.606 . S
O717 Gd673 2.362 . S
O717 C728 1.284 . S
O718 Gd673 2.324 . S
O718 C738 1.254 . S
O719 Gd672 2.429 . S
O719 C738 1.268 . S
O720 Gd672 2.545 . S
O720 C728 1.250 . S
O721 Gd672 2.412 1_554 S
O721 C731 1.252 1_554 S
O722 Gd673 2.545 . S
O722 C740 1.258 . S
O723 Gd672 2.362 . S
O723 Gd673 2.606 . S
O723 C739 1.284 . S
O724 Gd672 2.324 1_554 S
O724 C747 1.254 . S
O725 Gd673 2.429 1_554 S
O725 C747 1.268 . S
O726 Gd673 2.545 . S
O726 C739 1.250 . S
O727 Gd673 2.412 . S
O727 C740 1.252 . S
C728 O717 1.284 . S
C728 O720 1.250 . S
C729 H698 0.929 . S
C729 C714 1.437 . S
C729 C730 1.317 1_556 S
C730 H701 0.930 . S
C730 C706 1.431 . S
C730 C729 1.317 1_554 S
C731 Gd672 2.828 . S
C731 O716 1.258 . S
C731 O721 1.252 1_556 S
C731 C732 1.497 . S
C732 C731 1.497 . S
C732 C733 1.395 . S
C732 C734 1.380 1_556 S
C733 C732 1.395 . S
C733 C736 1.398 . S
C733 H748 0.930 . S
C734 C732 1.380 1_554 S
C734 C735 1.391 . S
C734 H749 0.930 . S
C735 C734 1.391 . S
C735 C737 1.387 . S
C736 C733 1.398 . S
C736 C737 1.380 1_556 S
C736 H750 0.930 . S
C737 C735 1.387 . S
C737 C736 1.380 1_554 S
C737 H751 0.930 . S
C738 O718 1.254 . S
C738 O719 1.268 . S
C739 O723 1.284 . S
C739 O726 1.250 . S
C740 Gd673 2.828 . S
C740 O722 1.258 . S
C740 O727 1.252 . S
C740 C741 1.497 . S
C741 C740 1.497 . S
C741 C742 1.395 . S
C741 C743 1.380 . S
C742 C741 1.395 . S
C742 C745 1.398 . S
C742 H752 0.930 . S
C743 C741 1.380 . S
C743 C744 1.391 . S
C743 H753 0.930 . S
C744 C743 1.391 . S
C744 C746 1.387 . S
C745 C742 1.398 . S
C745 C746 1.380 . S
C745 H754 0.930 . S
C746 C744 1.387 . S
C746 C745 1.380 . S
C746 H755 0.930 . S
C747 O724 1.254 . S
C747 O725 1.268 . S
H748 C733 0.930 . S
H749 C734 0.930 . S
H750 C736 0.930 . S
H751 C737 0.930 . S
H752 C742 0.930 . S
H753 C743 0.930 . S
H754 C745 0.930 . S
H755 C746 0.930 . S
H756 C762 0.930 . S
H757 C766 0.931 1_556 S
H758 C771 0.929 . S
H759 C769 0.929 . S
H760 C764 0.929 . S
H761 C770 0.929 . S
C762 H756 0.930 . S
C762 C763 1.367 . S
C762 C770 1.378 . S
C763 C762 1.367 . S
C763 C771 1.433 . S
C764 H760 0.929 . S
C764 C766 1.377 . S
C764 C768 1.350 . S
C765 C768 1.463 . S
C765 C770 1.350 . S
C765 N773 1.427 . S
C766 H757 0.931 1_554 S
C766 C764 1.377 . S
C766 C767 1.367 . S
C767 C766 1.367 . S
C767 C769 1.433 . S
C768 C764 1.350 . S
C768 C765 1.463 . S
C768 N772 1.427 . S
C769 H759 0.929 . S
C769 C767 1.433 . S
C769 N772 1.384 . S
C770 H761 0.929 . S
C770 C762 1.378 . S
C770 C765 1.350 . S
C771 H758 0.929 . S
C771 C763 1.433 . S
C771 N773 1.384 . S
N772 C768 1.427 . S
N772 C769 1.384 . S
N773 C765 1.427 . S
N773 C771 1.384 . S
H774 C780 0.930 . S
H775 C784 0.930 . S
H776 C789 0.929 . S
H777 C787 0.929 . S
H778 C782 0.929 . S
H779 C788 0.929 . S
C780 H774 0.930 . S
C780 C781 1.367 . S
C780 C788 1.378 . S
C781 C780 1.367 . S
C781 C789 1.433 . S
C782 H778 0.929 . S
C782 C784 1.378 . S
C782 C786 1.350 . S
C783 C786 1.463 . S
C783 C788 1.350 . S
C783 N791 1.427 . S
C784 H775 0.930 . S
C784 C782 1.378 . S
C784 C785 1.367 1_554 S
C785 C784 1.367 1_556 S
C785 C787 1.433 . S
C786 C782 1.350 . S
C786 C783 1.463 . S
C786 N790 1.427 1_554 S
C787 H777 0.929 . S
C787 C785 1.433 . S
C787 N790 1.384 . S
C788 H779 0.929 . S
C788 C780 1.378 . S
C788 C783 1.350 . S
C789 H776 0.929 . S
C789 C781 1.433 . S
C789 N791 1.384 . S
N790 C786 1.427 1_556 S
N790 C787 1.384 . S
N791 C783 1.427 . S
N791 C789 1.384 . S
H792 C798 0.930 . S
H793 C802 0.930 . S
H794 C807 0.929 . S
H795 C805 0.929 . S
H796 C800 0.929 . S
H797 C806 0.929 . S
C798 H792 0.930 . S
C798 C799 1.367 . S
C798 C806 1.378 . S
C799 C798 1.367 . S
C799 C807 1.433 . S
C800 H796 0.929 . S
C800 C802 1.378 . S
C800 C804 1.350 . S
C801 C804 1.463 . S
C801 C806 1.350 . S
C801 N809 1.427 . S
C802 H793 0.930 . S
C802 C800 1.378 . S
C802 C803 1.367 . S
C803 C802 1.367 . S
C803 C805 1.433 . S
C804 C800 1.350 . S
C804 C801 1.463 . S
C804 N808 1.427 . S
C805 H795 0.929 . S
C805 C803 1.433 . S
C805 N808 1.384 . S
C806 H797 0.929 . S
C806 C798 1.378 . S
C806 C801 1.350 . S
C807 H794 0.929 . S
C807 C799 1.433 . S
C807 N809 1.384 . S
N808 C804 1.427 . S
N808 C805 1.384 . S
N809 C801 1.427 . S
N809 C807 1.384 . S
H810 C816 0.930 . S
H811 C820 0.930 . S
H812 C825 0.929 . S
H813 C823 0.929 . S
H814 C818 0.929 . S
H815 C824 0.929 . S
C816 H810 0.930 . S
C816 C817 1.367 . S
C816 C824 1.378 . S
C817 C816 1.367 . S
C817 C825 1.433 1_556 S
C818 H814 0.929 . S
C818 C820 1.378 . S
C818 C822 1.350 . S
C819 C822 1.463 . S
C819 C824 1.350 1_554 S
C819 N827 1.427 . S
C820 H811 0.930 . S
C820 C818 1.378 . S
C820 C821 1.367 . S
C821 C820 1.367 . S
C821 C823 1.433 1_554 S
C822 C818 1.350 . S
C822 C819 1.463 . S
C822 N826 1.427 1_554 S
C823 H813 0.929 . S
C823 C821 1.433 1_556 S
C823 N826 1.384 . S
C824 H815 0.929 . S
C824 C816 1.378 . S
C824 C819 1.350 1_556 S
C825 H812 0.929 . S
C825 C817 1.433 1_554 S
C825 N827 1.384 . S
N826 C822 1.427 1_556 S
N826 C823 1.384 . S
N827 C819 1.427 . S
N827 C825 1.384 . S
H828 C834 0.930 . S
H829 C838 0.930 . S
H830 C843 0.929 . S
H831 C841 0.929 . S
H832 C836 0.929 . S
H833 C842 0.929 . S
C834 H828 0.930 . S
C834 C835 1.367 . S
C834 C842 1.378 . S
C835 C834 1.367 . S
C835 C843 1.433 . S
C836 H832 0.929 . S
C836 C838 1.378 . S
C836 C840 1.350 1_455 S
C837 C840 1.463 . S
C837 C842 1.350 . S
C837 N845 1.427 . S
C838 H829 0.930 . S
C838 C836 1.378 . S
C838 C839 1.370 . S
C839 C838 1.370 . S
C839 C841 1.399 1_455 S
C840 C836 1.350 1_655 S
C840 C837 1.463 . S
C840 N844 1.427 . S
C841 H831 0.929 . S
C841 C839 1.399 1_655 S
C841 N844 1.384 . S
C842 H833 0.929 . S
C842 C834 1.378 . S
C842 C837 1.350 . S
C843 H830 0.929 . S
C843 C835 1.433 . S
C843 N845 1.384 . S
N844 C840 1.427 . S
N844 C841 1.384 . S
N845 C837 1.427 . S
N845 C843 1.384 . S
H846 C852 0.930 . S
H847 C856 0.930 . S
H848 C861 0.929 . S
H849 C859 0.929 . S
H850 C854 0.929 . S
H851 C860 0.929 . S
C852 H846 0.930 . S
C852 C853 1.367 . S
C852 C860 1.378 . S
C853 C852 1.367 . S
C853 C861 1.433 . S
C854 H850 0.929 . S
C854 C856 1.378 . S
C854 C858 1.350 . S
C855 C858 1.463 . S
C855 C860 1.350 . S
C855 N863 1.427 . S
C856 H847 0.930 . S
C856 C854 1.378 . S
C856 C857 1.367 . S
C857 C856 1.367 . S
C857 C859 1.433 . S
C858 C854 1.350 . S
C858 C855 1.463 . S
C858 N862 1.427 . S
C859 H849 0.929 . S
C859 C857 1.433 . S
C859 N862 1.384 . S
C860 H851 0.929 . S
C860 C852 1.378 . S
C860 C855 1.350 . S
C861 H848 0.929 . S
C861 C853 1.433 . S
C861 N863 1.384 . S
N862 C858 1.427 . S
N862 C859 1.384 . S
N863 C855 1.427 . S
N863 C861 1.384 . S
H864 C870 0.930 . S
H865 C874 0.930 . S
H866 C879 0.929 . S
H867 C877 0.929 . S
H868 C872 0.929 . S
H869 C878 0.929 . S
C870 H864 0.930 . S
C870 C871 1.367 . S
C870 C878 1.378 . S
C871 C870 1.367 . S
C871 C879 1.433 . S
C872 H868 0.929 . S
C872 C874 1.378 . S
C872 C876 1.350 . S
C873 C876 1.463 . S
C873 C878 1.350 . S
C873 N881 1.427 . S
C874 H865 0.930 . S
C874 C872 1.378 . S
C874 C875 1.367 . S
C875 C874 1.367 . S
C875 C877 1.433 . S
C876 C872 1.350 . S
C876 C873 1.463 . S
C876 N880 1.427 . S
C877 H867 0.929 . S
C877 C875 1.433 . S
C877 N880 1.384 . S
C878 H869 0.929 . S
C878 C870 1.378 . S
C878 C873 1.350 . S
C879 H866 0.929 . S
C879 C871 1.433 . S
C879 N881 1.384 . S
N880 C876 1.427 . S
N880 C877 1.384 . S
N881 C873 1.427 . S
N881 C879 1.384 . S
H882 C888 0.930 . S
H883 C892 0.930 . S
H884 C897 0.929 . S
H885 C895 0.929 . S
H886 C890 0.929 . S
H887 C896 0.929 . S
C888 H882 0.930 . S
C888 C889 1.367 . S
C888 C896 1.378 . S
C889 C888 1.367 . S
C889 C897 1.433 . S
C890 H886 0.929 . S
C890 C892 1.378 . S
C890 C894 1.350 . S
C891 C894 1.463 . S
C891 C896 1.350 . S
C891 N899 1.427 . S
C892 H883 0.930 . S
C892 C890 1.378 . S
C892 C893 1.367 . S
C893 C892 1.367 . S
C893 C895 1.433 . S
C894 C890 1.350 . S
C894 C891 1.463 . S
C894 N898 1.427 . S
C895 H885 0.929 . S
C895 C893 1.433 . S
C895 N898 1.384 . S
C896 H887 0.929 . S
C896 C888 1.378 . S
C896 C891 1.350 . S
C897 H884 0.929 . S
C897 C889 1.433 . S
C897 N899 1.384 . S
N898 C894 1.427 . S
N898 C895 1.384 . S
N899 C891 1.427 . S
N899 C897 1.384 . S
H900 C906 0.930 . S
H901 C910 0.930 . S
H902 C915 0.929 . S
H903 C913 0.929 . S
H904 C908 0.929 . S
H905 C914 0.929 . S
C906 H900 0.930 . S
C906 C907 1.367 . S
C906 C914 1.378 . S
C907 C906 1.367 . S
C907 C915 1.433 . S
C908 H904 0.929 . S
C908 C910 1.378 . S
C908 C912 1.350 . S
C909 C912 1.463 . S
C909 C914 1.350 . S
C909 N917 1.427 . S
C910 H901 0.930 . S
C910 C908 1.378 . S
C910 C911 1.367 . S
C911 C910 1.367 . S
C911 C913 1.433 1_545 S
C912 C908 1.350 . S
C912 C909 1.463 . S
C912 N916 1.427 . S
C913 H903 0.929 . S
C913 C911 1.433 1_565 S
C913 N916 1.384 1_565 S
C914 H905 0.929 . S
C914 C906 1.378 . S
C914 C909 1.350 . S
C915 H902 0.929 . S
C915 C907 1.433 . S
C915 N917 1.384 . S
N916 C912 1.427 . S
N916 C913 1.384 1_545 S
N917 C909 1.427 . S
N917 C915 1.384 . S
H918 C924 0.930 . S
H919 C928 0.930 . S
H920 C933 0.929 . S
H921 C931 0.929 . S
H922 C926 0.929 . S
H923 C932 0.929 . S
C924 H918 0.930 . S
C924 C925 1.367 . S
C924 C932 1.378 . S
C925 C924 1.367 . S
C925 C933 1.433 . S
C926 H922 0.929 . S
C926 C928 1.378 . S
C926 C930 1.350 . S
C927 C930 1.463 . S
C927 C932 1.350 . S
C927 N935 1.427 . S
C928 H919 0.930 . S
C928 C926 1.378 . S
C928 C929 1.367 . S
C929 C928 1.367 . S
C929 C931 1.433 . S
C930 C926 1.350 . S
C930 C927 1.463 . S
C930 N934 1.427 . S
C931 H921 0.929 . S
C931 C929 1.433 . S
C931 N934 1.384 . S
C932 H923 0.929 . S
C932 C924 1.378 . S
C932 C927 1.350 . S
C933 H920 0.929 . S
C933 C925 1.433 . S
C933 N935 1.384 . S
N934 C930 1.427 . S
N934 C931 1.384 . S
N935 C927 1.427 . S
N935 C933 1.384 . S
H936 C942 0.930 . S
H937 C946 0.930 . S
H938 C951 0.929 . S
H939 C949 0.929 . S
H940 C944 0.929 . S
H941 C950 0.929 . S
C942 H936 0.930 . S
C942 C943 1.367 . S
C942 C950 1.378 . S
C943 C942 1.367 . S
C943 C951 1.433 . S
C944 H940 0.929 . S
C944 C946 1.378 . S
C944 C948 1.350 . S
C945 C948 1.463 1_565 S
C945 C950 1.350 . S
C945 N953 1.427 . S
C946 H937 0.930 . S
C946 C944 1.378 . S
C946 C947 1.367 . S
C947 C946 1.367 . S
C947 C949 1.433 . S
C948 C944 1.350 . S
C948 C945 1.463 1_545 S
C948 N952 1.427 . S
C949 H939 0.929 . S
C949 C947 1.433 . S
C949 N952 1.384 . S
C950 H941 0.929 . S
C950 C942 1.378 . S
C950 C945 1.350 . S
C951 H938 0.929 . S
C951 C943 1.433 . S
C951 N953 1.384 . S
N952 C948 1.427 . S
N952 C949 1.384 . S
N953 C945 1.427 . S
N953 C951 1.384 . S
H954 C960 0.930 . S
H955 C964 0.930 . S
H956 C969 0.929 . S
H957 C967 0.929 . S
H958 C962 0.929 1_556 S
H959 C968 0.929 . S
C960 H954 0.930 . S
C960 C961 1.367 1_455 S
C960 C968 1.378 . S
C961 C960 1.367 1_655 S
C961 C969 1.433 . S
C962 H958 0.929 1_554 S
C962 C964 1.378 1_554 S
C962 C966 1.350 . S
C963 C966 1.463 . S
C963 C968 1.350 . S
C963 N971 1.427 . S
C964 H955 0.930 . S
C964 C962 1.378 1_556 S
C964 C965 1.367 1_556 S
C965 C964 1.367 1_554 S
C965 C967 1.433 . S
C966 C962 1.350 . S
C966 C963 1.463 . S
C966 N970 1.427 . S
C967 H957 0.929 . S
C967 C965 1.433 . S
C967 N970 1.384 . S
C968 H959 0.929 . S
C968 C960 1.378 . S
C968 C963 1.350 . S
C969 H956 0.929 . S
C969 C961 1.433 . S
C969 N971 1.384 1_655 S
N970 C966 1.427 . S
N970 C967 1.384 . S
N971 C963 1.427 . S
N971 C969 1.384 1_455 S
H972 C978 0.930 . S
H973 C982 0.930 . S
H974 C987 0.929 . S
H975 C985 0.929 . S
H976 C980 0.929 1_556 S
H977 C986 0.929 . S
C978 H972 0.930 . S
C978 C979 1.367 1_554 S
C978 C986 1.378 . S
C979 C978 1.367 1_556 S
C979 C987 1.433 . S
C980 H976 0.929 1_554 S
C980 C982 1.378 . S
C980 C984 1.350 . S
C981 C984 1.463 . S
C981 C986 1.350 . S
C981 N989 1.427 1_554 S
C982 H973 0.930 . S
C982 C980 1.378 . S
C982 C983 1.367 . S
C983 C982 1.367 . S
C983 C985 1.433 . S
C984 C980 1.350 . S
C984 C981 1.463 . S
C984 N988 1.427 . S
C985 H975 0.929 . S
C985 C983 1.433 . S
C985 N988 1.384 . S
C986 H977 0.929 . S
C986 C978 1.378 . S
C986 C981 1.350 . S
C987 H974 0.929 . S
C987 C979 1.433 . S
C987 N989 1.384 . S
N988 C984 1.427 . S
N988 C985 1.384 . S
N989 C981 1.427 1_556 S
N989 C987 1.384 . S
H990 C996 0.930 . S
H991 C1000 0.930 1_554 S
H992 C1005 0.929 . S
H993 C1003 0.929 . S
H994 C998 0.929 . S
H995 C1004 0.929 . S
C996 H990 0.930 . S
C996 C997 1.367 1_556 S
C996 C1004 1.378 . S
C997 C996 1.367 1_554 S
C997 C1005 1.433 . S
C998 H994 0.929 . S
C998 C1000 1.378 1_554 S
C998 C1002 1.350 1_554 S
C999 C1002 1.463 . S
C999 C1004 1.350 . S
C999 N1007 1.427 1_556 S
C1000 H991 0.930 1_556 S
C1000 C998 1.378 1_556 S
C1000 C1001 1.367 . S
C1001 C1000 1.367 . S
C1001 C1003 1.433 . S
C1002 C998 1.350 1_556 S
C1002 C999 1.463 . S
C1002 N1006 1.427 . S
C1003 H993 0.929 . S
C1003 C1001 1.433 . S
C1003 N1006 1.384 . S
C1004 H995 0.929 . S
C1004 C996 1.378 . S
C1004 C999 1.350 . S
C1005 H992 0.929 . S
C1005 C997 1.433 . S
C1005 N1007 1.384 . S
N1006 C1002 1.427 . S
N1006 C1003 1.384 . S
N1007 C999 1.427 1_554 S
N1007 C1005 1.384 . S
H1008 C1014 0.930 . S
H1009 C1018 0.930 . S
H1010 C1023 0.929 . S
H1011 C1021 0.929 1_554 S
H1012 C1016 0.929 . S
H1013 C1022 0.929 . S
C1014 H1008 0.930 . S
C1014 C1015 1.367 1_554 S
C1014 C1022 1.378 . S
C1015 C1014 1.367 1_556 S
C1015 C1023 1.433 . S
C1016 H1012 0.929 . S
C1016 C1018 1.378 . S
C1016 C1020 1.350 . S
C1017 C1020 1.463 . S
C1017 C1022 1.350 1_556 S
C1017 N1025 1.427 . S
C1018 H1009 0.930 . S
C1018 C1016 1.378 . S
C1018 C1019 1.367 . S
C1019 C1018 1.367 . S
C1019 C1021 1.433 . S
C1020 C1016 1.350 . S
C1020 C1017 1.463 . S
C1020 N1024 1.427 . S
C1021 H1011 0.929 1_556 S
C1021 C1019 1.433 . S
C1021 N1024 1.384 . S
C1022 H1013 0.929 . S
C1022 C1014 1.378 . S
C1022 C1017 1.350 1_554 S
C1023 H1010 0.929 . S
C1023 C1015 1.433 . S
C1023 N1025 1.384 . S
N1024 C1020 1.427 . S
N1024 C1021 1.384 . S
N1025 C1017 1.427 . S
N1025 C1023 1.384 . S
H1026 C1032 0.930 . S
H1027 C1036 0.930 . S
H1028 C1041 0.929 . S
H1029 C1039 0.929 . S
H1030 C1034 0.929 1_554 S
H1031 C1040 0.929 . S
C1032 H1026 0.930 . S
C1032 C1033 1.367 . S
C1032 C1040 1.378 1_554 S
C1033 C1032 1.367 . S
C1033 C1041 1.433 . S
C1034 H1030 0.929 1_556 S
C1034 C1036 1.378 . S
C1034 C1038 1.350 . S
C1035 C1038 1.463 . S
C1035 C1040 1.350 . S
C1035 N1043 1.427 1_556 S
C1036 H1027 0.930 . S
C1036 C1034 1.378 . S
C1036 C1037 1.367 . S
C1037 C1036 1.367 . S
C1037 C1039 1.433 . S
C1038 C1034 1.350 . S
C1038 C1035 1.463 . S
C1038 N1042 1.427 . S
C1039 H1029 0.929 . S
C1039 C1037 1.433 . S
C1039 N1042 1.384 . S
C1040 H1031 0.929 . S
C1040 C1032 1.378 1_556 S
C1040 C1035 1.350 . S
C1041 H1028 0.929 . S
C1041 C1033 1.433 . S
C1041 N1043 1.384 . S
N1042 C1038 1.427 . S
N1042 C1039 1.384 . S
N1043 C1035 1.427 1_554 S
N1043 C1041 1.384 . S
H1044 C1050 0.939 . S
H1045 C1054 0.930 . S
H1046 C1059 0.929 . S
H1047 C1057 0.929 1_554 S
H1048 C1052 0.929 . S
H1049 C1058 0.929 1_554 S
C1050 H1044 0.939 . S
C1050 C1051 1.367 . S
C1050 C1058 1.378 . S
C1051 C1050 1.367 . S
C1051 C1059 1.433 . S
C1052 H1048 0.929 . S
C1052 C1054 1.378 . S
C1052 C1056 1.350 . S
C1053 C1056 1.463 . S
C1053 C1058 1.350 . S
C1053 N1061 1.427 . S
C1054 H1045 0.930 . S
C1054 C1052 1.378 . S
C1054 C1055 1.367 . S
C1055 C1054 1.367 . S
C1055 C1057 1.433 . S
C1056 C1052 1.350 . S
C1056 C1053 1.463 . S
C1056 N1060 1.427 . S
C1057 H1047 0.929 1_556 S
C1057 C1055 1.433 . S
C1057 N1060 1.384 . S
C1058 H1049 0.929 1_556 S
C1058 C1050 1.378 . S
C1058 C1053 1.350 . S
C1059 H1046 0.929 . S
C1059 C1051 1.433 . S
C1059 N1061 1.384 . S
N1060 C1056 1.427 . S
N1060 C1057 1.384 . S
N1061 C1053 1.427 . S
N1061 C1059 1.384 . S
H1062 C1068 0.930 . S
H1063 C1072 0.930 . S
H1064 C1077 0.929 . S
H1065 C1075 0.929 . S
H1066 C1070 0.929 . S
H1067 C1076 0.929 . S
C1068 H1062 0.930 . S
C1068 C1069 1.367 1_554 S
C1068 C1076 1.378 . S
C1069 C1068 1.367 1_556 S
C1069 C1077 1.433 . S
C1070 H1066 0.929 . S
C1070 C1072 1.378 . S
C1070 C1074 1.350 . S
C1071 C1074 1.463 . S
C1071 C1076 1.350 1_556 S
C1071 N1079 1.427 . S
C1072 H1063 0.930 . S
C1072 C1070 1.378 . S
C1072 C1073 1.367 . S
C1073 C1072 1.367 . S
C1073 C1075 1.433 1_556 S
C1074 C1070 1.350 . S
C1074 C1071 1.463 . S
C1074 N1078 1.427 1_556 S
C1075 H1065 0.929 . S
C1075 C1073 1.433 1_554 S
C1075 N1078 1.384 . S
C1076 H1067 0.929 . S
C1076 C1068 1.378 . S
C1076 C1071 1.350 1_554 S
C1077 H1064 0.929 . S
C1077 C1069 1.433 . S
C1077 N1079 1.384 . S
N1078 C1074 1.427 1_554 S
N1078 C1075 1.384 . S
N1079 C1071 1.427 . S
N1079 C1077 1.384 . S
H1080 C1086 0.930 . S
H1081 C1090 0.930 . S
H1082 C1095 0.929 . S
H1083 C1093 0.929 . S
H1084 C1088 0.929 . S
H1085 C1094 0.929 . S
C1086 H1080 0.930 . S
C1086 C1087 1.367 . S
C1086 C1094 1.378 . S
C1087 C1086 1.367 . S
C1087 C1095 1.433 . S
C1088 H1084 0.929 . S
C1088 C1090 1.378 . S
C1088 C1092 1.350 . S
C1089 C1092 1.463 . S
C1089 C1094 1.350 . S
C1089 N1097 1.427 . S
C1090 H1081 0.930 . S
C1090 C1088 1.378 . S
C1090 C1091 1.367 . S
C1091 C1090 1.367 . S
C1091 C1093 1.433 . S
C1092 C1088 1.350 . S
C1092 C1089 1.463 . S
C1092 N1096 1.427 . S
C1093 H1083 0.929 . S
C1093 C1091 1.433 . S
C1093 N1096 1.384 . S
C1094 H1085 0.929 . S
C1094 C1086 1.378 . S
C1094 C1089 1.350 . S
C1095 H1082 0.929 . S
C1095 C1087 1.433 . S
C1095 N1097 1.384 . S
N1096 C1092 1.427 . S
N1096 C1093 1.384 . S
N1097 C1089 1.427 . S
N1097 C1095 1.384 . S
H1098 C1104 0.930 . S
H1099 C1108 0.930 . S
H1100 C1113 0.929 . S
H1101 C1111 0.929 . S
H1102 C1106 0.929 . S
H1103 C1112 0.929 . S
C1104 H1098 0.930 . S
C1104 C1105 1.367 . S
C1104 C1112 1.378 . S
C1105 C1104 1.367 . S
C1105 C1113 1.433 . S
C1106 H1102 0.929 . S
C1106 C1108 1.378 . S
C1106 C1110 1.350 . S
C1107 C1110 1.463 . S
C1107 C1112 1.350 . S
C1107 N1115 1.427 . S
C1108 H1099 0.930 . S
C1108 C1106 1.378 . S
C1108 C1109 1.367 . S
C1109 C1108 1.367 . S
C1109 C1111 1.433 . S
C1110 C1106 1.350 . S
C1110 C1107 1.463 . S
C1110 N1114 1.427 . S
C1111 H1101 0.929 . S
C1111 C1109 1.433 . S
C1111 N1114 1.384 . S
C1112 H1103 0.929 . S
C1112 C1104 1.378 . S
C1112 C1107 1.350 . S
C1113 H1100 0.929 . S
C1113 C1105 1.433 . S
C1113 N1115 1.384 . S
N1114 C1110 1.427 . S
N1114 C1111 1.384 . S
N1115 C1107 1.427 . S
N1115 C1113 1.384 . S
H1116 C1122 0.930 . S
H1117 C1126 0.930 . S
H1118 C1131 0.929 . S
H1119 C1129 0.929 1_565 S
H1120 C1124 0.929 . S
H1121 C1130 0.929 . S
C1122 H1116 0.930 . S
C1122 C1123 1.368 . S
C1122 C1130 1.378 . S
C1123 C1122 1.368 . S
C1123 C1131 1.434 1_565 S
C1124 H1120 0.929 . S
C1124 C1126 1.378 . S
C1124 C1128 1.350 . S
C1125 C1128 1.463 . S
C1125 C1130 1.350 1_545 S
C1125 N1133 1.427 . S
C1126 H1117 0.930 . S
C1126 C1124 1.378 . S
C1126 C1127 1.367 . S
C1127 C1126 1.367 . S
C1127 C1129 1.433 . S
C1128 C1124 1.350 . S
C1128 C1125 1.463 . S
C1128 N1132 1.427 1_545 S
C1129 H1119 0.929 1_545 S
C1129 C1127 1.433 . S
C1129 N1132 1.384 1_545 S
C1130 H1121 0.929 . S
C1130 C1122 1.378 . S
C1130 C1125 1.350 1_565 S
C1131 H1118 0.929 . S
C1131 C1123 1.434 1_545 S
C1131 N1133 1.384 . S
N1132 C1128 1.427 1_565 S
N1132 C1129 1.384 1_565 S
N1133 C1125 1.427 . S
N1133 C1131 1.384 . S
H1134 C1140 0.930 . S
H1135 C1144 0.930 . S
H1136 C1149 0.929 . S
H1137 C1147 0.929 . S
H1138 C1142 0.929 . S
H1139 C1148 0.929 . S
C1140 H1134 0.930 . S
C1140 C1141 1.367 . S
C1140 C1148 1.378 . S
C1141 C1140 1.367 . S
C1141 C1149 1.433 . S
C1142 H1138 0.929 . S
C1142 C1144 1.378 . S
C1142 C1146 1.350 . S
C1143 C1146 1.463 . S
C1143 C1148 1.350 . S
C1143 N1151 1.427 . S
C1144 H1135 0.930 . S
C1144 C1142 1.378 . S
C1144 C1145 1.367 . S
C1145 C1144 1.367 . S
C1145 C1147 1.433 . S
C1146 C1142 1.350 . S
C1146 C1143 1.463 . S
C1146 N1150 1.427 . S
C1147 H1137 0.929 . S
C1147 C1145 1.433 . S
C1147 N1150 1.384 . S
C1148 H1139 0.929 . S
C1148 C1140 1.378 . S
C1148 C1143 1.350 . S
C1149 H1136 0.929 . S
C1149 C1141 1.433 . S
C1149 N1151 1.384 . S
N1150 C1146 1.427 . S
N1150 C1147 1.384 . S
N1151 C1143 1.427 . S
N1151 C1149 1.384 . S
H1152 C1158 0.930 . S
H1153 C1162 0.930 . S
H1154 C1167 0.929 . S
H1155 C1165 0.929 . S
H1156 C1160 0.929 . S
H1157 C1166 0.929 . S
C1158 H1152 0.930 . S
C1158 C1159 1.367 . S
C1158 C1166 1.378 . S
C1159 C1158 1.367 . S
C1159 C1167 1.433 . S
C1160 H1156 0.929 . S
C1160 C1162 1.378 . S
C1160 C1164 1.350 . S
C1161 C1164 1.463 . S
C1161 C1166 1.350 . S
C1161 N1169 1.427 . S
C1162 H1153 0.930 . S
C1162 C1160 1.378 . S
C1162 C1163 1.367 . S
C1163 C1162 1.367 . S
C1163 C1165 1.433 . S
C1164 C1160 1.350 . S
C1164 C1161 1.463 . S
C1164 N1168 1.427 . S
C1165 H1155 0.929 . S
C1165 C1163 1.433 . S
C1165 N1168 1.384 . S
C1166 H1157 0.929 . S
C1166 C1158 1.378 . S
C1166 C1161 1.350 . S
C1167 H1154 0.929 . S
C1167 C1159 1.433 . S
C1167 N1169 1.384 . S
N1168 C1164 1.427 . S
N1168 C1165 1.384 . S
N1169 C1161 1.427 . S
N1169 C1167 1.384 . S
H1170 C1176 0.930 . S
H1171 C1180 0.930 . S
H1172 C1185 0.929 . S
H1173 C1183 0.929 . S
H1174 C1178 0.929 . S
H1175 C1184 0.929 . S
C1176 H1170 0.930 . S
C1176 C1177 1.367 . S
C1176 C1184 1.378 . S
C1177 C1176 1.367 . S
C1177 C1185 1.433 . S
C1178 H1174 0.929 . S
C1178 C1180 1.378 . S
C1178 C1182 1.350 . S
C1179 C1182 1.463 . S
C1179 C1184 1.350 . S
C1179 N1187 1.427 . S
C1180 H1171 0.930 . S
C1180 C1178 1.378 . S
C1180 C1181 1.367 . S
C1181 C1180 1.367 . S
C1181 C1183 1.433 . S
C1182 C1178 1.350 . S
C1182 C1179 1.463 . S
C1182 N1186 1.427 . S
C1183 H1173 0.929 . S
C1183 C1181 1.433 . S
C1183 N1186 1.384 . S
C1184 H1175 0.929 . S
C1184 C1176 1.378 . S
C1184 C1179 1.350 . S
C1185 H1172 0.929 . S
C1185 C1177 1.433 . S
C1185 N1187 1.384 . S
N1186 C1182 1.427 . S
N1186 C1183 1.384 . S
N1187 C1179 1.427 . S
N1187 C1185 1.384 . S
H1188 C1194 0.930 . S
H1189 C1198 0.930 . S
H1190 C1203 0.929 . S
H1191 C1201 0.929 . S
H1192 C1196 0.929 . S
H1193 C1202 0.929 . S
C1194 H1188 0.930 . S
C1194 C1195 1.367 . S
C1194 C1202 1.378 . S
C1195 C1194 1.367 . S
C1195 C1203 1.433 . S
C1196 H1192 0.929 . S
C1196 C1198 1.378 . S
C1196 C1200 1.350 . S
C1197 C1200 1.463 . S
C1197 C1202 1.350 . S
C1197 N1205 1.427 . S
C1198 H1189 0.930 . S
C1198 C1196 1.378 . S
C1198 C1199 1.367 . S
C1199 C1198 1.367 . S
C1199 C1201 1.433 . S
C1200 C1196 1.350 . S
C1200 C1197 1.463 . S
C1200 N1204 1.427 . S
C1201 H1191 0.929 . S
C1201 C1199 1.433 . S
C1201 N1204 1.384 . S
C1202 H1193 0.929 . S
C1202 C1194 1.378 . S
C1202 C1197 1.350 . S
C1203 H1190 0.929 . S
C1203 C1195 1.433 . S
C1203 N1205 1.384 . S
N1204 C1200 1.427 . S
N1204 C1201 1.384 . S
N1205 C1197 1.427 . S
N1205 C1203 1.384 . S
H1206 C1212 0.930 . S
H1207 C1216 0.930 . S
H1208 C1221 0.929 . S
H1209 C1219 0.929 . S
H1210 C1214 0.929 . S
H1211 C1220 0.929 . S
C1212 H1206 0.930 . S
C1212 C1213 1.367 . S
C1212 C1220 1.378 . S
C1213 C1212 1.367 . S
C1213 C1221 1.433 . S
C1214 H1210 0.929 . S
C1214 C1216 1.378 . S
C1214 C1218 1.350 . S
C1215 C1218 1.463 . S
C1215 C1220 1.350 . S
C1215 N1223 1.427 . S
C1216 H1207 0.930 . S
C1216 C1214 1.378 . S
C1216 C1217 1.367 . S
C1217 C1216 1.367 . S
C1217 C1219 1.433 . S
C1218 C1214 1.350 . S
C1218 C1215 1.463 . S
C1218 N1222 1.427 . S
C1219 H1209 0.929 . S
C1219 C1217 1.433 . S
C1219 N1222 1.384 . S
C1220 H1211 0.929 . S
C1220 C1212 1.378 . S
C1220 C1215 1.350 . S
C1221 H1208 0.929 . S
C1221 C1213 1.433 . S
C1221 N1223 1.384 . S
N1222 C1218 1.427 . S
N1222 C1219 1.384 . S
N1223 C1215 1.427 . S
N1223 C1221 1.384 . S
H1224 C1230 0.930 . S
H1225 C1234 0.930 . S
H1226 C1239 0.929 . S
H1227 C1237 0.929 . S
H1228 C1232 0.929 . S
H1229 C1238 0.929 . S
C1230 H1224 0.930 . S
C1230 C1231 1.367 . S
C1230 C1238 1.378 . S
C1231 C1230 1.367 . S
C1231 C1239 1.433 . S
C1232 H1228 0.929 . S
C1232 C1234 1.378 . S
C1232 C1236 1.350 . S
C1233 C1236 1.463 . S
C1233 C1238 1.350 . S
C1233 N1241 1.427 . S
C1234 H1225 0.930 . S
C1234 C1232 1.378 . S
C1234 C1235 1.367 . S
C1235 C1234 1.367 . S
C1235 C1237 1.433 . S
C1236 C1232 1.350 . S
C1236 C1233 1.463 . S
C1236 N1240 1.427 . S
C1237 H1227 0.929 . S
C1237 C1235 1.433 . S
C1237 N1240 1.384 . S
C1238 H1229 0.929 . S
C1238 C1230 1.378 . S
C1238 C1233 1.350 . S
C1239 H1226 0.929 . S
C1239 C1231 1.433 . S
C1239 N1241 1.384 . S
N1240 C1236 1.427 . S
N1240 C1237 1.384 . S
N1241 C1233 1.427 . S
N1241 C1239 1.384 . S
C763 C72 1.213 . S
C767 C660 1.312 1_554 S
C781 C151 2.190 . S
C785 C739 2.095 . S
C799 C240 1.349 . S
C803 C571 1.484 . S
C817 C403 2.256 . S
C821 C235 2.315 . S
C835 C487 2.240 . S
C839 C67 2.218 . S
C853 C156 2.020 . S
C857 C319 2.158 . S
C871 C655 1.570 . S
C875 C492 1.555 . S
C889 C744 1.545 . S
C893 C324 1.643 . S
C907 C408 2.208 . S
C911 C576 2.334 1_545 S
C925 C231 1.382 . S
C929 C56 1.656 . S
C943 C147 1.116 . S
C947 C63 1.260 . S
C961 C140 2.935 . S
C965 C224 3.085 . S
C979 C315 1.658 1_556 S
C983 C476 2.108 . S
C997 C308 2.077 . S
C1001 C399 1.764 . S
C1015 C392 2.046 1_556 S
C1019 C483 1.552 . S
C1033 C735 1.798 . S
C1037 C560 2.322 . S
C1051 C651 0.758 . S
C1055 C567 0.759 . S
C1069 C728 2.047 . S
C1073 C644 1.955 . S
C1087 C66 1.286 1_556 S
C1091 C75 1.286 . S
C1105 C159 1.266 1_556 S
C1109 C150 1.266 . S
C1123 C234 1.293 . S
C1127 C243 1.294 . S
C1141 C318 1.364 . S
C1145 C327 1.364 . S
C1159 C402 1.245 . S
C1163 C411 1.245 . S
C1177 C486 1.337 . S
C1181 C495 1.337 . S
C1195 C570 1.304 . S
C1199 C579 1.304 1_554 S
C1213 C654 1.262 . S
C1217 C663 1.262 . S
C1231 C738 1.273 . S
C1235 C747 1.273 . S
