# Generated by pormake.
# Topology une, (4)-cn, num edge types: 1
# Building blocks:
#     Node 0, Type 0, BuildingBlock: UXUYUI_clean_sbu_0, # of connection points: 4
#     Node 1, Type 0, BuildingBlock: UXUYUI_clean_sbu_0, # of connection points: 4
#     Node 2, Type 0, BuildingBlock: UXUYUI_clean_sbu_0, # of connection points: 4
#     Node 3, Type 0, BuildingBlock: UXUYUI_clean_sbu_0, # of connection points: 4
#     Node 4, Type 0, BuildingBlock: UXUYUI_clean_sbu_0, # of connection points: 4
#     Node 5, Type 0, BuildingBlock: UXUYUI_clean_sbu_0, # of connection points: 4
#     Node 6, Type 0, BuildingBlock: UXUYUI_clean_sbu_0, # of connection points: 4
#     Node 7, Type 0, BuildingBlock: UXUYUI_clean_sbu_0, # of connection points: 4
#     Node 8, Type 0, BuildingBlock: UXUYUI_clean_sbu_0, # of connection points: 4
#     Node 9, Type 0, BuildingBlock: UXUYUI_clean_sbu_0, # of connection points: 4
#     Node 10, Type 0, BuildingBlock: UXUYUI_clean_sbu_0, # of connection points: 4
#     Node 11, Type 0, BuildingBlock: UXUYUI_clean_sbu_0, # of connection points: 4
#     Node 12, Type 0, BuildingBlock: UXUYUI_clean_sbu_0, # of connection points: 4
#     Node 13, Type 0, BuildingBlock: UXUYUI_clean_sbu_0, # of connection points: 4
#     Node 14, Type 0, BuildingBlock: UXUYUI_clean_sbu_0, # of connection points: 4
#     Node 15, Type 0, BuildingBlock: UXUYUI_clean_sbu_0, # of connection points: 4
#     Node 16, Type 0, BuildingBlock: UXUYUI_clean_sbu_0, # of connection points: 4
#     Node 17, Type 0, BuildingBlock: UXUYUI_clean_sbu_0, # of connection points: 4
#     Edge 18, Type (0, 0), BuildingBlock: XIVTED_clean_linker_0, # of connection points: 2
#     Edge 19, Type (0, 0), BuildingBlock: XIVTED_clean_linker_0, # of connection points: 2
#     Edge 20, Type (0, 0), BuildingBlock: XIVTED_clean_linker_0, # of connection points: 2
#     Edge 21, Type (0, 0), BuildingBlock: XIVTED_clean_linker_0, # of connection points: 2
#     Edge 22, Type (0, 0), BuildingBlock: XIVTED_clean_linker_0, # of connection points: 2
#     Edge 23, Type (0, 0), BuildingBlock: XIVTED_clean_linker_0, # of connection points: 2
#     Edge 24, Type (0, 0), BuildingBlock: XIVTED_clean_linker_0, # of connection points: 2
#     Edge 25, Type (0, 0), BuildingBlock: XIVTED_clean_linker_0, # of connection points: 2
#     Edge 26, Type (0, 0), BuildingBlock: XIVTED_clean_linker_0, # of connection points: 2
#     Edge 27, Type (0, 0), BuildingBlock: XIVTED_clean_linker_0, # of connection points: 2
#     Edge 28, Type (0, 0), BuildingBlock: XIVTED_clean_linker_0, # of connection points: 2
#     Edge 29, Type (0, 0), BuildingBlock: XIVTED_clean_linker_0, # of connection points: 2
#     Edge 30, Type (0, 0), BuildingBlock: XIVTED_clean_linker_0, # of connection points: 2
#     Edge 31, Type (0, 0), BuildingBlock: XIVTED_clean_linker_0, # of connection points: 2
#     Edge 32, Type (0, 0), BuildingBlock: XIVTED_clean_linker_0, # of connection points: 2
#     Edge 33, Type (0, 0), BuildingBlock: XIVTED_clean_linker_0, # of connection points: 2
#     Edge 34, Type (0, 0), BuildingBlock: XIVTED_clean_linker_0, # of connection points: 2
#     Edge 35, Type (0, 0), BuildingBlock: XIVTED_clean_linker_0, # of connection points: 2
#     Edge 36, Type (0, 0), BuildingBlock: XIVTED_clean_linker_0, # of connection points: 2
#     Edge 37, Type (0, 0), BuildingBlock: XIVTED_clean_linker_0, # of connection points: 2
#     Edge 38, Type (0, 0), BuildingBlock: XIVTED_clean_linker_0, # of connection points: 2
#     Edge 39, Type (0, 0), BuildingBlock: XIVTED_clean_linker_0, # of connection points: 2
#     Edge 40, Type (0, 0), BuildingBlock: XIVTED_clean_linker_0, # of connection points: 2
#     Edge 41, Type (0, 0), BuildingBlock: XIVTED_clean_linker_0, # of connection points: 2
#     Edge 42, Type (0, 0), BuildingBlock: XIVTED_clean_linker_0, # of connection points: 2
#     Edge 43, Type (0, 0), BuildingBlock: XIVTED_clean_linker_0, # of connection points: 2
#     Edge 44, Type (0, 0), BuildingBlock: XIVTED_clean_linker_0, # of connection points: 2
#     Edge 45, Type (0, 0), BuildingBlock: XIVTED_clean_linker_0, # of connection points: 2
#     Edge 46, Type (0, 0), BuildingBlock: XIVTED_clean_linker_0, # of connection points: 2
#     Edge 47, Type (0, 0), BuildingBlock: XIVTED_clean_linker_0, # of connection points: 2
#     Edge 48, Type (0, 0), BuildingBlock: XIVTED_clean_linker_0, # of connection points: 2
#     Edge 49, Type (0, 0), BuildingBlock: XIVTED_clean_linker_0, # of connection points: 2
#     Edge 50, Type (0, 0), BuildingBlock: XIVTED_clean_linker_0, # of connection points: 2
#     Edge 51, Type (0, 0), BuildingBlock: XIVTED_clean_linker_0, # of connection points: 2
#     Edge 52, Type (0, 0), BuildingBlock: XIVTED_clean_linker_0, # of connection points: 2
#     Edge 53, Type (0, 0), BuildingBlock: XIVTED_clean_linker_0, # of connection points: 2
# Relax obj value: 0.347
# Max RMSD: 0.226
# Mean RMSD: 0.222
data_MOF--net-une--node1-UXUYUI_clean_sbu_0--edge1-XIVTED_clean_linker_0
_symmetry_space_group_name_H-M    P1
_symmetry_Int_Tables_number       1
_symmetry_cell_setting            triclinic
loop_
_symmetry_equiv_pos_as_xyz
'x, y, z'
_cell_length_a     55.275408
_cell_length_b     55.223983
_cell_length_c     78.870875
_cell_angle_alpha  89.909585
_cell_angle_beta   89.977731
_cell_angle_gamma 120.0084
loop_
_atom_site_label
_atom_site_type_symbol
_atom_site_fract_x
_atom_site_fract_y
_atom_site_fract_z
_atom_type_partial_charge
Li0 Li 0.34271 0.05366 0.04474 0.0
Li1 Li 0.34241 0.05456 0.07645 0.0
Li2 Li 0.36747 0.03433 0.06024 0.0
Li3 Li 0.31756 0.01183 0.06116 0.0
C4 C 0.3856 0.10216 0.06173 0.0
N5 N 0.40558 0.15881 0.06541 0.0
C6 C 0.3674 0.11279 0.06048 0.0
C7 C 0.41392 0.12033 0.06497 0.0
C8 C 0.37791 0.14148 0.06235 0.0
C9 C 0.42363 0.14892 0.06674 0.0
C10 C 0.28311 0.03111 0.06289 0.0
C11 C 0.24298 0.00717 0.08124 0.0
N12 N 0.22591 0.00265 0.06776 0.0
C13 C 0.26517 0.02649 0.04925 0.0
C14 C 0.27194 0.02155 0.07904 0.0
C15 C 0.23632 0.01195 0.05196 0.0
C16 C 0.32019 0.05514 0.01346 0.0
N17 N 0.34195 0.07099 0.02394 0.0
C18 C 0.35924 0.10947 0.00463 0.0
C19 C 0.36193 0.09732 0.01951 0.0
C20 C 0.33607 0.09415 0.994 0.0
C21 C 0.31678 0.06634 0.99838 0.0
H22 H 0.30532 0.03381 0.01692 0.0
H23 H 0.37984 0.10913 0.02754 0.0
C24 C 0.36028 0.08331 0.10843 0.0
N25 N 0.34241 0.07655 0.09513 0.0
C26 C 0.35973 0.10004 0.1216 0.0
C27 C 0.32251 0.10242 0.10705 0.0
C28 C 0.3239 0.0859 0.09421 0.0
C29 C 0.34064 0.10988 0.12099 0.0
H30 H 0.37502 0.07585 0.10876 0.0
H31 H 0.31024 0.08069 0.08338 0.0
C32 C 0.35549 0.01848 0.02696 0.0
N33 N 0.38524 0.01955 0.99853 0.0
C34 C 0.34624 0.99449 0.01707 0.0
C35 C 0.37989 0.04303 0.0224 0.0
C36 C 0.36156 0.99545 0.00273 0.0
C37 C 0.39463 0.04314 0.00799 0.0
C38 C 0.32987 0.99842 0.0923 0.0
C39 C 0.32831 0.97264 0.08969 0.0
C40 C 0.31815 0.00262 0.10693 0.0
C41 C 0.31468 0.95134 0.10166 0.0
C42 C 0.30471 0.98079 0.1186 0.0
N43 N 0.30325 0.95581 0.11574 0.0
C44 C 0.42418 0.04962 0.05415 0.0
C45 C 0.39133 0.00108 0.05503 0.0
C46 C 0.4445 0.04431 0.04743 0.0
N47 N 0.39806 0.02808 0.05746 0.0
C48 C 0.41099 0.99481 0.04848 0.0
C49 C 0.43773 0.01661 0.04411 0.0
H50 H 0.42867 0.07092 0.05562 0.0
H51 H 0.37007 0.98449 0.05694 0.0
C52 C 0.27529 0.9709 0.04285 0.0
N53 N 0.28354 0.97681 0.05927 0.0
C54 C 0.24963 0.94783 0.03879 0.0
C55 C 0.24138 0.93655 0.06863 0.0
C56 C 0.26713 0.96029 0.07216 0.0
C57 C 0.23231 0.93045 0.05177 0.0
H58 H 0.28832 0.98473 0.03288 0.0
H59 H 0.27337 0.96591 0.08516 0.0
O60 O 0.37563 0.074 0.0605 0.0
O61 O 0.31143 0.04452 0.06043 0.0
O62 O 0.34102 0.01755 0.04128 0.0
O63 O 0.34364 0.01976 0.08094 0.0
H64 H 0.34542 0.09907 0.05801 0.0
H65 H 0.42824 0.11245 0.0662 0.0
H66 H 0.36407 0.14997 0.06138 0.0
H67 H 0.4455 0.16323 0.06923 0.0
H68 H 0.23407 -0.00053 0.09365 0.0
H69 H 0.27336 0.03393 0.03671 0.0
H70 H 0.28548 0.02487 0.08973 0.0
H71 H 0.2222 0.00805 0.04149 0.0
H72 H 0.37467 0.13097 0.00186 0.0
H73 H 0.29903 0.05345 0.99036 0.0
H74 H 0.37436 0.10553 0.13198 0.0
H75 H 0.30714 0.10904 0.10609 0.0
H76 H 0.3275 0.97526 0.0205 0.0
H77 H 0.38756 0.06174 0.02998 0.0
H78 H 0.35466 0.97702 0.99497 0.0
H79 H 0.4136 0.06196 0.00435 0.0
H80 H 0.33724 0.969 0.07849 0.0
H81 H 0.31944 0.02251 0.10928 0.0
H82 H 0.31316 0.93123 0.09975 0.0
H83 H 0.29546 0.98373 0.12994 0.0
H84 H 0.4649 0.06171 0.04426 0.0
H85 H 0.40468 0.97322 0.04579 0.0
H86 H 0.24333 0.94366 0.02563 0.0
H87 H 0.2283 0.92368 0.07894 0.0
Li88 Li 0.96147 0.33292 0.06092 0.0
Li89 Li 0.98051 0.30267 0.06132 0.0
Li90 Li 0.93842 0.28984 0.04511 0.0
Li91 Li 0.93721 0.28649 0.07707 0.0
C92 C 0.99039 0.34506 0.03203 0.0
N93 N 0.01963 0.3938 0.01345 0.0
C94 C 0.01939 0.36147 0.03371 0.0
C95 C 0.9763 0.35338 0.02083 0.0
C96 C 0.03379 0.38603 0.0242 0.0
C97 C 0.99144 0.37814 0.0116 0.0
C98 C 0.99654 0.32718 0.09184 0.0
C99 C 0.0156 0.31955 0.11749 0.0
N100 N 0.04146 0.3403 0.11284 0.0
C101 C 0.0233 0.34843 0.08733 0.0
C102 C 0.99263 0.31259 0.10704 0.0
C103 C 0.04574 0.35473 0.0981 0.0
C104 C 0.94851 0.37538 0.05422 0.0
N105 N 0.96945 0.37087 0.05924 0.0
C106 C 0.00357 0.41824 0.0529 0.0
C107 C 0.99645 0.39203 0.0595 0.0
C108 C 0.98261 0.42276 0.04623 0.0
C109 C 0.95464 0.40136 0.04767 0.0
H110 H 0.92721 0.35834 0.05422 0.0
H111 H 0.01277 0.38801 0.06349 0.0
C112 C 0.02119 0.29948 0.04316 0.0
N113 N 0.0132 0.29914 0.05949 0.0
C114 C 0.04339 0.29529 0.03941 0.0
C115 C 0.04902 0.2903 0.06937 0.0
C116 C 0.02624 0.29411 0.07254 0.0
C117 C 0.05762 0.29071 0.05259 0.0
H118 H 0.00988 0.30245 0.03296 0.0
H119 H 0.01868 0.29236 0.08534 0.0
C120 C 0.89469 0.29483 0.05545 0.0
N121 N 0.84182 0.2755 0.04231 0.0
C122 C 0.87123 0.27457 0.06419 0.0
C123 C 0.89122 0.30547 0.04011 0.0
C124 C 0.84469 0.26502 0.05732 0.0
C125 C 0.86434 0.29536 0.03366 0.0
C126 C 0.95532 0.24756 0.05949 0.0
C127 C 0.95985 0.23876 0.04381 0.0
C128 C 0.96171 0.23831 0.07443 0.0
C129 C 0.97101 0.22099 0.04333 0.0
C130 C 0.9728 0.22051 0.07341 0.0
N131 N 0.97722 0.21233 0.05802 0.0
C132 C 0.93037 0.27874 0.00986 0.0
C133 C 0.89187 0.24909 0.02739 0.0
C134 C 0.91559 0.26447 0.99538 0.0
N135 N 0.91819 0.27103 0.02541 0.0
C136 C 0.87614 0.23472 0.01327 0.0
C137 C 0.88803 0.2424 0.99705 0.0
H138 H 0.95166 0.29571 0.00871 0.0
H139 H 0.88311 0.24274 0.03995 0.0
C140 C 0.91288 0.27177 0.11083 0.0
N141 N 0.91438 0.26301 0.09496 0.0
C142 C 0.89641 0.25224 0.12325 0.0
C143 C 0.88301 0.21544 0.10258 0.0
C144 C 0.89954 0.23555 0.09063 0.0
C145 C 0.88152 0.22359 0.1192 0.0
H146 H 0.92478 0.29378 0.11391 0.0
H147 H 0.90068 0.22921 0.07783 0.0
O148 O 0.97587 0.32108 0.04137 0.0
O149 O 0.97417 0.32102 0.08165 0.0
O150 O 0.92087 0.30423 0.06193 0.0
O151 O 0.94528 0.26567 0.06021 0.0
H152 H 0.03063 0.35553 0.04243 0.0
H153 H 0.95389 0.34098 0.0194 0.0
H154 H 0.0562 0.399 0.02544 0.0
H155 H 0.98078 0.38494 0.003 0.0
H156 H 0.01288 0.30841 0.12927 0.0
H157 H 0.02682 0.35957 0.0755 0.0
H158 H 0.97213 0.29598 0.1107 0.0
H159 H 0.06658 0.37101 0.09471 0.0
H160 H 0.02537 0.43435 0.05223 0.0
H161 H 0.93784 0.40396 0.04266 0.0
H162 H 0.0495 0.29582 0.0263 0.0
H163 H 0.05933 0.28642 0.07982 0.0
H164 H 0.87346 0.26627 0.07614 0.0
H165 H 0.90911 0.32105 0.03313 0.0
H166 H 0.82636 0.24927 0.06392 0.0
H167 H 0.86138 0.30323 0.02173 0.0
H168 H 0.95511 0.24588 0.03214 0.0
H169 H 0.95854 0.24516 0.08667 0.0
H170 H 0.97483 0.21416 0.03129 0.0
H171 H 0.97804 0.21333 0.08486 0.0
H172 H 0.92546 0.27065 0.98304 0.0
H173 H 0.85514 0.21732 0.01503 0.0
H174 H 0.89584 0.25939 0.13594 0.0
H175 H 0.87139 0.19371 0.09878 0.0
Li176 Li 0.69094 0.67979 0.0629 0.0
Li177 Li 0.71073 0.6514 0.07327 0.0
Li178 Li 0.70778 0.65816 0.04275 0.0
Li179 Li 0.66583 0.6288 0.05964 0.0
C180 C 0.7472 0.71418 0.06278 0.0
N181 N 0.78179 0.7705 0.06912 0.0
C182 C 0.76162 0.72296 0.07815 0.0
C183 C 0.75054 0.73403 0.0506 0.0
C184 C 0.77901 0.75154 0.0811 0.0
C185 C 0.76804 0.76241 0.05406 0.0
C186 C 0.652 0.63763 0.08994 0.0
C187 C 0.61789 0.5977 0.10579 0.0
N188 N 0.60149 0.60955 0.10678 0.0
C189 C 0.63493 0.64953 0.09121 0.0
C190 C 0.64357 0.61162 0.09737 0.0
C191 C 0.60942 0.63496 0.09975 0.0
C192 C 0.66816 0.71348 0.05575 0.0
N193 N 0.68661 0.71151 0.06621 0.0
C194 C 0.70135 0.75694 0.0775 0.0
C195 C 0.70216 0.73204 0.07753 0.0
C196 C 0.68372 0.76018 0.06604 0.0
C197 C 0.66632 0.73771 0.05547 0.0
H198 H 0.65554 0.69659 0.04716 0.0
H199 H 0.71598 0.72956 0.08613 0.0
C200 C 0.7606 0.65553 0.08416 0.0
N201 N 0.7351 0.65004 0.08977 0.0
C202 C 0.78082 0.65772 0.09559 0.0
C203 C 0.74829 0.64878 0.11848 0.0
C204 C 0.7285 0.6464 0.10653 0.0
C205 C 0.77507 0.65489 0.11308 0.0
H206 H 0.76548 0.65898 0.07079 0.0
H207 H 0.70821 0.64256 0.11065 0.0
C208 C 0.6671 0.65961 0.02599 0.0
N209 N 0.65882 0.66314 0.99173 0.0
C210 C 0.64863 0.63566 0.01693 0.0
C211 C 0.6812 0.68538 0.01764 0.0
C212 C 0.64476 0.63788 0.99962 0.0
C213 C 0.67679 0.68673 0.00031 0.0
C214 C 0.70959 0.60753 0.05871 0.0
C215 C 0.73319 0.61169 0.04976 0.0
C216 C 0.69901 0.58794 0.07187 0.0
C217 C 0.74607 0.59637 0.05427 0.0
C218 C 0.7125 0.57305 0.07601 0.0
N219 N 0.73556 0.57755 0.06721 0.0
C220 C 0.7504 0.6832 0.01802 0.0
C221 C 0.7119 0.63919 0.01051 0.0
C222 C 0.76423 0.68398 0.00305 0.0
N223 N 0.72486 0.66092 0.02148 0.0
C224 C 0.72487 0.63919 0.99533 0.0
C225 C 0.75166 0.66155 0.99158 0.0
H226 H 0.76052 0.69984 0.02716 0.0
H227 H 0.69181 0.62148 0.01378 0.0
C228 C 0.60741 0.60121 0.05642 0.0
N229 N 0.62978 0.59727 0.05659 0.0
C230 C 0.58218 0.5811 0.04929 0.0
C231 C 0.60327 0.5529 0.04309 0.0
C232 C 0.62799 0.57341 0.05054 0.0
C233 C 0.5802 0.55705 0.04183 0.0
H234 H 0.60972 0.62086 0.06067 0.0
H235 H 0.6464 0.57128 0.05026 0.0
O236 O 0.72995 0.6863 0.05968 0.0
O237 O 0.67691 0.65143 0.0815 0.0
O238 O 0.67148 0.65785 0.04291 0.0
O239 O 0.69691 0.62259 0.05465 0.0
H240 H 0.75923 0.70794 0.08776 0.0
H241 H 0.73955 0.72762 0.03865 0.0
H242 H 0.7902 0.75864 0.09296 0.0
H243 H 0.77066 0.778 0.04479 0.0
H244 H 0.61101 0.57748 0.11153 0.0
H245 H 0.64121 0.66969 0.08556 0.0
H246 H 0.65666 0.60225 0.09658 0.0
H247 H 0.59591 0.64383 0.10076 0.0
H248 H 0.71485 0.77371 0.08597 0.0
H249 H 0.65257 0.7394 0.04637 0.0
H250 H 0.80089 0.66195 0.09074 0.0
H251 H 0.74295 0.64684 0.13181 0.0
H252 H 0.63761 0.61552 0.02313 0.0
H253 H 0.69547 0.70413 0.02446 0.0
H254 H 0.63063 0.61949 0.99244 0.0
H255 H 0.68765 0.70652 0.99368 0.0
H256 H 0.74165 0.6268 0.03954 0.0
H257 H 0.68067 0.58439 0.07885 0.0
H258 H 0.76445 0.59948 0.04752 0.0
H259 H 0.70464 0.55792 0.08623 0.0
H260 H 0.78511 0.70136 0.00092 0.0
H261 H 0.71431 0.62154 0.98684 0.0
H262 H 0.56488 0.58506 0.04887 0.0
H263 H 0.60303 0.53502 0.03731 0.0
Li264 Li 0.63288 0.96242 0.94863 0.0
Li265 Li 0.68042 0.99229 0.93854 0.0
Li266 Li 0.65604 0.94514 0.92676 0.0
Li267 Li 0.67077 0.95363 0.95616 0.0
C268 C 0.65081 0.99793 0.9151 0.0
N269 N 0.66427 0.04543 0.89646 0.0
C270 C 0.64228 0.01653 0.92063 0.0
C271 C 0.66606 0.0034 0.90006 0.0
C272 C 0.64931 0.04044 0.91103 0.0
C273 C 0.6727 0.02755 0.89082 0.0
C274 C 0.68428 0.00519 0.97304 0.0
C275 C 0.7296 0.03012 0.98624 0.0
N276 N 0.72105 0.04556 0.99517 0.0
C277 C 0.67586 0.02117 0.98241 0.0
C278 C 0.71128 0.00958 0.97502 0.0
C279 C 0.69479 0.04153 0.99351 0.0
C280 C 0.60057 0.96174 0.9751 0.0
N281 N 0.60121 0.96232 0.95789 0.0
C282 C 0.56185 0.96925 0.95704 0.0
C283 C 0.58224 0.96564 0.94872 0.0
C284 C 0.56107 0.96926 0.97488 0.0
C285 C 0.58055 0.96503 0.98389 0.0
H286 H 0.6163 0.95965 0.98204 0.0
H287 H 0.58346 0.96636 0.93503 0.0
C288 C 0.73023 0.03732 0.92475 0.0
N289 N 0.70688 0.03033 0.934 0.0
C290 C 0.7517 0.06518 0.92388 0.0
C291 C 0.7237 0.07806 0.94109 0.0
C292 C 0.70284 0.05009 0.94155 0.0
C293 C 0.74897 0.08586 0.93264 0.0
H294 H 0.73264 0.02115 0.91863 0.0
H295 H 0.68387 0.04394 0.94861 0.0
C296 C 0.62677 0.90319 0.95698 0.0
N297 N 0.61677 0.85849 0.97748 0.0
C298 C 0.63836 0.88649 0.95294 0.0
C299 C 0.60976 0.89691 0.97131 0.0
C300 C 0.63314 0.86405 0.9635 0.0
C301 C 0.60505 0.87429 0.98155 0.0
C302 C 0.71627 0.96138 0.93512 0.0
C303 C 0.7125 0.93588 0.92913 0.0
C304 C 0.74285 0.98216 0.94026 0.0
C305 C 0.73527 0.93148 0.92863 0.0
C306 C 0.76508 0.97693 0.9396 0.0
N307 N 0.76087 0.95191 0.93385 0.0
C308 C 0.67226 0.93345 0.89566 0.0
C309 C 0.63119 0.89533 0.90717 0.0
C310 C 0.67314 0.91645 0.88289 0.0
N311 N 0.65182 0.92255 0.90763 0.0
C312 C 0.63123 0.87754 0.89458 0.0
C313 C 0.65281 0.88793 0.88246 0.0
H314 H 0.68871 0.95505 0.89655 0.0
H315 H 0.61542 0.88714 0.917 0.0
C316 C 0.66975 0.94104 0.99037 0.0
N317 N 0.68176 0.94028 0.97547 0.0
C318 C 0.67296 0.92844 0.00488 0.0
C319 C 0.70199 0.91567 0.98869 0.0
C320 C 0.69805 0.92833 0.97447 0.0
C321 C 0.68883 0.91507 0.00405 0.0
H322 H 0.65662 0.95038 0.99079 0.0
H323 H 0.70695 0.92734 0.96255 0.0
O324 O 0.64476 0.97479 0.92455 0.0
O325 O 0.66611 0.98548 0.96193 0.0
O326 O 0.63251 0.9259 0.94715 0.0
O327 O 0.69436 0.96637 0.93536 0.0
H328 H 0.63077 0.01279 0.93235 0.0
H329 H 0.6729 0.98927 0.89564 0.0
H330 H 0.64301 0.05512 0.91521 0.0
H331 H 0.68461 0.03212 0.8792 0.0
H332 H 0.75059 0.03377 0.98787 0.0
H333 H 0.655 0.01803 0.981 0.0
H334 H 0.71796 0.99718 0.96801 0.0
H335 H 0.68862 0.05415 0.00078 0.0
H336 H 0.54712 0.97233 0.94962 0.0
H337 H 0.58108 0.9654 0.99761 0.0
H338 H 0.7706 0.07028 0.91698 0.0
H339 H 0.72065 0.09306 0.94822 0.0
H340 H 0.65156 0.89105 0.94191 0.0
H341 H 0.60052 0.9095 0.97458 0.0
H342 H 0.64219 0.85112 0.96061 0.0
H343 H 0.59213 0.86934 0.99277 0.0
H344 H 0.6922 0.91948 0.92511 0.0
H345 H 0.74639 0.00223 0.94463 0.0
H346 H 0.73258 0.91179 0.92412 0.0
H347 H 0.78572 0.99282 0.94359 0.0
H348 H 0.68993 0.92543 0.87369 0.0
H349 H 0.61529 0.85566 0.89482 0.0
H350 H 0.66252 0.92851 0.01649 0.0
H351 H 0.71397 0.90512 0.98741 0.0
Li352 Li 0.03765 0.69833 0.91964 0.0
Li353 Li 0.03279 0.70759 0.94929 0.0
Li354 Li 0.02295 0.66016 0.94262 0.0
Li355 Li 0.99248 0.6772 0.93288 0.0
C356 C 0.08376 0.71603 0.94638 0.0
N357 N 0.13254 0.75688 0.9611 0.0
C358 C 0.09804 0.74288 0.93936 0.0
C359 C 0.09437 0.7099 0.96081 0.0
C360 C 0.12266 0.76324 0.947 0.0
C361 C 0.11904 0.73086 0.96809 0.0
C362 C 0.00895 0.73506 0.93329 0.0
C363 C 0.98033 0.74627 0.951 0.0
N364 N 0.98921 0.77045 0.94218 0.0
C365 C 0.01782 0.76004 0.92441 0.0
C366 C 0.99012 0.72815 0.94672 0.0
C367 C 0.0076 0.77765 0.92909 0.0
C368 C 0.04957 0.73058 0.89058 0.0
N369 N 0.05859 0.7159 0.89985 0.0
C370 C 0.10064 0.73481 0.88357 0.0
C371 C 0.08331 0.7172 0.89643 0.0
C372 C 0.09253 0.7514 0.87429 0.0
C373 C 0.06626 0.74856 0.87772 0.0
H374 H 0.02991 0.7293 0.89371 0.0
H375 H 0.0901 0.70554 0.90418 0.0
C376 C 0.0495 0.7258 0.98268 0.0
N377 N 0.04856 0.73466 0.96674 0.0
C378 C 0.06352 0.74519 0.99553 0.0
C379 C 0.07491 0.78236 0.97531 0.0
C380 C 0.06071 0.76228 0.96288 0.0
C381 C 0.07674 0.77391 0.99186 0.0
H382 H 0.04007 0.70366 0.98528 0.0
H383 H 0.0604 0.76875 0.94999 0.0
C384 C 0.98449 0.64127 0.90977 0.0
N385 N 0.93579 0.60928 0.89183 0.0
C386 C 0.96499 0.61452 0.91549 0.0
C387 C 0.97936 0.65172 0.89489 0.0
C388 C 0.94046 0.59868 0.90624 0.0
C389 C 0.95457 0.63523 0.88601 0.0
C390 C 0.98198 0.65743 0.96852 0.0
C391 C 0.96824 0.6282 0.96878 0.0
C392 C 0.97649 0.67159 0.98127 0.0
C393 C 0.94896 0.61363 0.98164 0.0
C394 C 0.95704 0.65627 0.99391 0.0
N395 N 0.94379 0.62785 0.99383 0.0
C396 C 0.03114 0.6344 0.96973 0.0
C397 C 0.01832 0.60564 0.94529 0.0
C398 C 0.02881 0.61267 0.97986 0.0
N399 N 0.02533 0.63037 0.9529 0.0
C400 C 0.01598 0.58327 0.95498 0.0
C401 C 0.02051 0.58651 0.97259 0.0
H402 H 0.03617 0.65416 0.97545 0.0
H403 H 0.01341 0.60292 0.93191 0.0
C404 C 0.94887 0.68348 0.91843 0.0
N405 N 0.95426 0.66687 0.92865 0.0
C406 C 0.92203 0.67991 0.91773 0.0
C407 C 0.90622 0.64032 0.93659 0.0
C408 C 0.93332 0.64472 0.93694 0.0
C409 C 0.90053 0.6588 0.92748 0.0
H410 H 0.96568 0.70039 0.91145 0.0
H411 H 0.93774 0.63104 0.94434 0.0
O412 O 0.05914 0.6961 0.9394 0.0
O413 O 0.01898 0.71774 0.92889 0.0
O414 O 0.00823 0.65743 0.91889 0.0
O415 O 0.0016 0.67216 0.95632 0.0
H416 H 0.08992 0.7481 0.92833 0.0
H417 H 0.08361 0.68924 0.9664 0.0
H418 H 0.13381 0.78417 0.94178 0.0
H419 H 0.12741 0.72646 0.97932 0.0
H420 H 0.96564 0.74108 0.96133 0.0
H421 H 0.03257 0.76584 0.91406 0.0
H422 H 0.9829 0.70888 0.95364 0.0
H423 H 0.01431 0.79705 0.92234 0.0
H424 H 0.12046 0.73591 0.88122 0.0
H425 H 0.05918 0.76111 0.87116 0.0
H426 H 0.06437 0.73778 0.00812 0.0
H427 H 0.08536 0.80425 0.9718 0.0
H428 H 0.9686 0.60623 0.92705 0.0
H429 H 0.99422 0.67246 0.89037 0.0
H430 H 0.92508 0.578 0.91056 0.0
H431 H 0.95022 0.64309 0.87453 0.0
H432 H 0.97208 0.61681 0.95902 0.0
H433 H 0.98722 0.6942 0.98149 0.0
H434 H 0.93809 0.59102 0.98192 0.0
H435 H 0.95256 0.66698 0.00382 0.0
H436 H 0.03276 0.6161 0.99334 0.0
H437 H 0.00938 0.56332 0.94895 0.0
H438 H 0.91843 0.69425 0.91023 0.0
H439 H 0.89039 0.62371 0.94431 0.0
Li440 Li 0.28759 0.33109 0.9517 0.0
Li441 Li 0.30854 0.31227 0.93272 0.0
Li442 Li 0.33481 0.36068 0.94288 0.0
Li443 Li 0.29712 0.34668 0.92225 0.0
C444 C 0.31666 0.32056 0.97322 0.0
N445 N 0.30935 0.31002 0.00766 0.0
C446 C 0.30978 0.29422 0.97954 0.0
C447 C 0.32021 0.34165 0.98446 0.0
C448 C 0.30608 0.28928 0.99698 0.0
C449 C 0.31631 0.33588 0.00181 0.0
C450 C 0.2562 0.29131 0.91818 0.0
C451 C 0.25348 0.27321 0.89001 0.0
N452 N 0.22527 0.25724 0.89168 0.0
C453 C 0.22721 0.27472 0.91963 0.0
C454 C 0.26949 0.29057 0.90327 0.0
C455 C 0.21194 0.25762 0.90609 0.0
C456 C 0.25779 0.34147 0.97691 0.0
N457 N 0.26137 0.32133 0.96947 0.0
C458 C 0.22625 0.28612 0.98709 0.0
C459 C 0.24627 0.2941 0.9743 0.0
C460 C 0.22167 0.30638 0.99485 0.0
C461 C 0.23799 0.33444 0.98973 0.0
H462 H 0.26998 0.3629 0.97268 0.0
H463 H 0.24966 0.27859 0.9681 0.0
C464 C 0.32547 0.27493 0.91746 0.0
N465 N 0.30825 0.27829 0.92833 0.0
C466 C 0.32615 0.24995 0.91749 0.0
C467 C 0.28961 0.23172 0.93868 0.0
C468 C 0.28973 0.25696 0.93827 0.0
C469 C 0.30866 0.22827 0.92862 0.0
H470 H 0.33932 0.29181 0.90918 0.0
H471 H 0.27592 0.26012 0.94652 0.0
C472 C 0.31681 0.39815 0.94352 0.0
N473 N 0.34296 0.45584 0.94458 0.0
C474 C 0.32279 0.41359 0.92849 0.0
C475 C 0.32405 0.41208 0.95909 0.0
C476 C 0.336 0.44273 0.9293 0.0
C477 C 0.33733 0.44125 0.95936 0.0
C478 C 0.35794 0.34888 0.91478 0.0
C479 C 0.37182 0.34117 0.92653 0.0
C480 C 0.36991 0.35902 0.89887 0.0
C481 C 0.39745 0.34365 0.92213 0.0
C482 C 0.39557 0.36117 0.89494 0.0
N483 N 0.40869 0.35351 0.90656 0.0
C484 C 0.38191 0.37963 0.96339 0.0
C485 C 0.38473 0.41573 0.94583 0.0
C486 C 0.40649 0.3983 0.97165 0.0
N487 N 0.37097 0.38862 0.95112 0.0
C488 C 0.40957 0.43528 0.95378 0.0
C489 C 0.42051 0.42668 0.96711 0.0
H490 H 0.37137 0.35791 0.96705 0.0
H491 H 0.37629 0.42233 0.93565 0.0
C492 C 0.25621 0.35439 0.90756 0.0
N493 N 0.2801 0.3543 0.9037 0.0
C494 C 0.23907 0.3547 0.8947 0.0
C495 C 0.27194 0.35573 0.87406 0.0
C496 C 0.28848 0.35537 0.88738 0.0
C497 C 0.24654 0.35484 0.87765 0.0
H498 H 0.24983 0.35286 0.92067 0.0
H499 H 0.30733 0.3547 0.8847 0.0
O500 O 0.31993 0.32578 0.95614 0.0
O501 O 0.27132 0.30849 0.93125 0.0
O502 O 0.3037 0.36958 0.94302 0.0
O503 O 0.33305 0.34716 0.91882 0.0
H504 H 0.30741 0.27777 0.97111 0.0
H505 H 0.32566 0.36218 0.97978 0.0
H506 H 0.30065 0.26895 0.00204 0.0
H507 H 0.31877 0.35196 0.01061 0.0
H508 H 0.26347 0.27249 0.87838 0.0
H509 H 0.21664 0.27515 0.93109 0.0
H510 H 0.2919 0.30338 0.90188 0.0
H511 H 0.18947 0.24468 0.90702 0.0
H512 H 0.21428 0.26431 0.99074 0.0
H513 H 0.2348 0.35066 0.99511 0.0
H514 H 0.34079 0.24796 0.9093 0.0
H515 H 0.27591 0.21578 0.94758 0.0
H516 H 0.31757 0.40328 0.91632 0.0
H517 H 0.31958 0.40052 0.97085 0.0
H518 H 0.34082 0.45493 0.91777 0.0
H519 H 0.34315 0.45228 0.97131 0.0
H520 H 0.36281 0.33302 0.93883 0.0
H521 H 0.3595 0.36521 0.88967 0.0
H522 H 0.40836 0.33766 0.93108 0.0
H523 H 0.40507 0.36897 0.88267 0.0
H524 H 0.41387 0.39058 0.98188 0.0
H525 H 0.41999 0.45685 0.9496 0.0
H526 H 0.21951 0.35347 0.89812 0.0
H527 H 0.27865 0.3561 0.86112 0.0
Li528 Li 0.01882 0.38785 0.38466 0.0
Li529 Li 0.01616 0.38368 0.41625 0.0
Li530 Li 0.04671 0.37133 0.39848 0.0
Li531 Li 0.99718 0.34232 0.39812 0.0
C532 C 0.05982 0.43514 0.3956 0.0
N533 N 0.07911 0.48838 0.38286 0.0
C534 C 0.05402 0.45386 0.4041 0.0
C535 C 0.0755 0.44356 0.38063 0.0
C536 C 0.06397 0.48068 0.39746 0.0
C537 C 0.08501 0.47052 0.37438 0.0
C538 C 0.95783 0.35546 0.39629 0.0
C539 C 0.91069 0.32337 0.40542 0.0
N540 N 0.90166 0.32172 0.3892 0.0
C541 C 0.94806 0.35341 0.3797 0.0
C542 C 0.939 0.34028 0.40926 0.0
C543 C 0.9196 0.33626 0.37638 0.0
C544 C 0.02002 0.40486 0.35027 0.0
N545 N 0.0151 0.40864 0.36667 0.0
C546 C 0.00156 0.44174 0.35835 0.0
C547 C 0.00584 0.42646 0.37088 0.0
C548 C 0.00676 0.43852 0.34131 0.0
C549 C 0.01624 0.4199 0.33731 0.0
H550 H 0.02639 0.38984 0.3472 0.0
H551 H 0.00158 0.42861 0.38401 0.0
C552 C 0.03397 0.41688 0.44639 0.0
N553 N 0.01205 0.40139 0.4359 0.0
C554 C 0.0313 0.43252 0.45947 0.0
C555 C 0.98331 0.41492 0.45111 0.0
C556 C 0.98707 0.40018 0.43803 0.0
C557 C 0.00571 0.4317 0.46185 0.0
H558 H 0.05377 0.41788 0.44421 0.0
H559 H 0.9703 0.38857 0.42922 0.0
C560 C 0.03657 0.34625 0.36874 0.0
N561 N 0.066 0.32753 0.3497 0.0
C562 C 0.03005 0.31833 0.36981 0.0
C563 C 0.05823 0.36466 0.35806 0.0
C564 C 0.04508 0.30926 0.36004 0.0
C565 C 0.07284 0.3548 0.34854 0.0
C566 C 0.00786 0.32797 0.42872 0.0
C567 C 0.0073 0.3029 0.42509 0.0
C568 C 0.99422 0.32978 0.44318 0.0
C569 C 0.99304 0.28007 0.43599 0.0
C570 C 0.98018 0.30647 0.45375 0.0
N571 N 0.97989 0.28231 0.44997 0.0
C572 C 0.10411 0.39307 0.38988 0.0
C573 C 0.07908 0.34525 0.39759 0.0
C574 C 0.12523 0.38961 0.38255 0.0
N575 N 0.08093 0.37065 0.39636 0.0
C576 C 0.09942 0.34074 0.39022 0.0
C577 C 0.12221 0.36276 0.38173 0.0
H578 H 0.10527 0.41315 0.38921 0.0
H579 H 0.06039 0.32774 0.40265 0.0
C580 C 0.96188 0.29926 0.37742 0.0
N581 N 0.96627 0.30533 0.39421 0.0
C582 C 0.94016 0.27366 0.37202 0.0
C583 C 0.92624 0.26121 0.40123 0.0
C584 C 0.94861 0.28717 0.40612 0.0
C585 C 0.92218 0.25414 0.38397 0.0
H586 H 0.97513 0.31452 0.36812 0.0
H587 H 0.95137 0.29295 0.41933 0.0
O588 O 0.04978 0.40859 0.40173 0.0
O589 O 0.98577 0.37153 0.3997 0.0
O590 O 0.02215 0.3556 0.3783 0.0
O591 O 0.02224 0.35081 0.41844 0.0
H592 H 0.04173 0.44773 0.4156 0.0
H593 H 0.07978 0.42925 0.3737 0.0
H594 H 0.05955 0.49533 0.40389 0.0
H595 H 0.09697 0.47721 0.36274 0.0
H596 H 0.89594 0.31136 0.41531 0.0
H597 H 0.96231 0.36461 0.36945 0.0
H598 H 0.94624 0.34097 0.42209 0.0
H599 H 0.91179 0.3344 0.3636 0.0
H600 H 0.99442 0.45604 0.36196 0.0
H601 H 0.02005 0.41654 0.32429 0.0
H602 H 0.04907 0.44534 0.4675 0.0
H603 H 0.96342 0.41418 0.45235 0.0
H604 H 0.01394 0.30389 0.37833 0.0
H605 H 0.06413 0.38647 0.35735 0.0
H606 H 0.04029 0.28775 0.3608 0.0
H607 H 0.08977 0.36888 0.34032 0.0
H608 H 0.01723 0.30085 0.41383 0.0
H609 H 0.99447 0.34897 0.44625 0.0
H610 H 0.9923 0.26051 0.43328 0.0
H611 H 0.96952 0.3076 0.46497 0.0
H612 H 0.14285 0.40748 0.37671 0.0
H613 H 0.09581 0.31959 0.38992 0.0
H614 H 0.93713 0.2694 0.35855 0.0
H615 H 0.9124 0.24685 0.41079 0.0
Li616 Li 0.6314 0.67258 0.40435 0.0
Li617 Li 0.659 0.65012 0.40331 0.0
Li618 Li 0.613 0.62786 0.39043 0.0
Li619 Li 0.61813 0.62924 0.42183 0.0
C620 C 0.65679 0.68658 0.37426 0.0
N621 N 0.67892 0.73491 0.35496 0.0
C622 C 0.68554 0.70554 0.37443 0.0
C623 C 0.63932 0.69235 0.3643 0.0
C624 C 0.69631 0.72979 0.36456 0.0
C625 C 0.6509 0.71686 0.35464 0.0
C626 C 0.67343 0.67435 0.43502 0.0
C627 C 0.69401 0.66156 0.45781 0.0
N628 N 0.71595 0.68818 0.45816 0.0
C629 C 0.69613 0.70162 0.43568 0.0
C630 C 0.6723 0.65419 0.44625 0.0
C631 C 0.71743 0.70819 0.44744 0.0
C632 C 0.61079 0.7095 0.39716 0.0
N633 N 0.63355 0.70811 0.40227 0.0
C634 C 0.66378 0.75597 0.39479 0.0
C635 C 0.6595 0.73105 0.40201 0.0
C636 C 0.64107 0.75723 0.38779 0.0
C637 C 0.6141 0.73402 0.38981 0.0
H638 H 0.59036 0.69102 0.39758 0.0
H639 H 0.67729 0.72922 0.40573 0.0
C640 C 0.69571 0.64944 0.3813 0.0
N641 N 0.69506 0.65535 0.39794 0.0
C642 C 0.72013 0.65321 0.37393 0.0
C643 C 0.74314 0.66834 0.40105 0.0
C644 C 0.71795 0.66409 0.408 0.0
C645 C 0.74449 0.66346 0.38368 0.0
H646 H 0.67716 0.64214 0.37362 0.0
H647 H 0.71694 0.66812 0.42127 0.0
C648 C 0.56705 0.6236 0.40172 0.0
N649 N 0.51369 0.59136 0.3889 0.0
C650 C 0.548 0.59867 0.40977 0.0
C651 C 0.55892 0.6321 0.38713 0.0
C652 C 0.52112 0.58269 0.40311 0.0
C653 C 0.53188 0.61551 0.38084 0.0
C654 C 0.64328 0.59644 0.40173 0.0
C655 C 0.64186 0.58494 0.38572 0.0
C656 C 0.66031 0.59471 0.41422 0.0
C657 C 0.6576 0.57203 0.38246 0.0
C658 C 0.67575 0.58167 0.41045 0.0
N659 N 0.67409 0.5707 0.39479 0.0
C660 C 0.59494 0.61457 0.35617 0.0
C661 C 0.57327 0.57725 0.37591 0.0
C662 C 0.5795 0.59689 0.3429 0.0
N663 N 0.5914 0.60455 0.37228 0.0
C664 C 0.55772 0.55876 0.36301 0.0
C665 C 0.56081 0.56857 0.34628 0.0
H666 H 0.61006 0.63611 0.35354 0.0
H667 H 0.57124 0.56982 0.38882 0.0
C668 C 0.58409 0.6147 0.45139 0.0
N669 N 0.59993 0.60779 0.44154 0.0
C670 C 0.56696 0.59637 0.46406 0.0
C671 C 0.58395 0.56499 0.45678 0.0
C672 C 0.60034 0.58365 0.44409 0.0
C673 C 0.56648 0.57095 0.46669 0.0
H674 H 0.58378 0.6338 0.44886 0.0
H675 H 0.61254 0.57831 0.43584 0.0
O676 O 0.64576 0.66278 0.38397 0.0
O677 O 0.65219 0.66762 0.42373 0.0
O678 O 0.59368 0.63923 0.40783 0.0
O679 O 0.62852 0.60978 0.40504 0.0
H680 H 0.6994 0.70191 0.38232 0.0
H681 H 0.61697 0.67838 0.3643 0.0
H682 H 0.71849 0.74465 0.36464 0.0
H683 H 0.63758 0.72164 0.347 0.0
H684 H 0.6934 0.64611 0.46652 0.0
H685 H 0.69742 0.71758 0.42719 0.0
H686 H 0.6549 0.63308 0.44606 0.0
H687 H 0.73515 0.72918 0.44803 0.0
H688 H 0.68497 0.77314 0.39337 0.0
H689 H 0.59594 0.73428 0.3849 0.0
H690 H 0.71995 0.64835 0.36061 0.0
H691 H 0.76146 0.67606 0.40903 0.0
H692 H 0.55392 0.59148 0.42092 0.0
H693 H 0.5735 0.65098 0.38049 0.0
H694 H 0.50621 0.56332 0.4092 0.0
H695 H 0.52541 0.62175 0.36949 0.0
H696 H 0.6291 0.58631 0.37581 0.0
H697 H 0.66192 0.60367 0.42662 0.0
H698 H 0.6568 0.5632 0.3701 0.0
H699 H 0.68914 0.58036 0.41997 0.0
H700 H 0.58264 0.60506 0.3301 0.0
H701 H 0.54336 0.53705 0.36609 0.0
H702 H 0.55378 0.60169 0.47147 0.0
H703 H 0.58387 0.54544 0.45823 0.0
Li704 Li 0.35655 0.0115 0.39628 0.0
Li705 Li 0.37476 0.98296 0.40869 0.0
Li706 Li 0.37524 0.98908 0.37794 0.0
Li707 Li 0.33159 0.96058 0.3935 0.0
C708 C 0.41278 0.04569 0.39762 0.0
N709 N 0.44724 0.10237 0.40287 0.0
C710 C 0.42634 0.05544 0.41317 0.0
C711 C 0.41684 0.06477 0.38472 0.0
C712 C 0.44369 0.08417 0.41557 0.0
C713 C 0.43429 0.09334 0.38764 0.0
C714 C 0.31448 0.96939 0.42223 0.0
C715 C 0.27869 0.92907 0.43699 0.0
N716 N 0.26164 0.94021 0.43619 0.0
C717 C 0.2967 0.98054 0.42164 0.0
C718 C 0.30553 0.94355 0.43004 0.0
C719 C 0.27002 0.96543 0.42875 0.0
C720 C 0.33294 0.04368 0.38728 0.0
N721 N 0.35171 0.04313 0.39815 0.0
C722 C 0.36481 0.08887 0.40823 0.0
C723 C 0.36671 0.06459 0.40905 0.0
C724 C 0.34662 0.0905 0.39647 0.0
C725 C 0.32999 0.06723 0.38625 0.0
H726 H 0.32076 0.02606 0.37906 0.0
H727 H 0.38075 0.06325 0.41801 0.0
C728 C 0.42411 0.98953 0.42204 0.0
N729 N 0.39747 0.98192 0.42643 0.0
C730 C 0.4433 0.9921 0.43436 0.0
C731 C 0.40723 0.97864 0.4556 0.0
C732 C 0.38862 0.97622 0.44279 0.0
C733 C 0.43514 0.98712 0.45146 0.0
H734 H 0.43064 0.99436 0.40895 0.0
H735 H 0.3674 0.97059 0.44594 0.0
C736 C 0.33647 0.99063 0.35891 0.0
N737 N 0.33117 0.99343 0.32423 0.0
C738 C 0.3199 0.96627 0.34963 0.0
C739 C 0.35023 0.01641 0.35055 0.0
C740 C 0.3175 0.96813 0.3321 0.0
C741 C 0.34733 0.01739 0.33301 0.0
C742 C 0.37552 0.93935 0.39593 0.0
C743 C 0.40053 0.94432 0.38846 0.0
C744 C 0.36384 0.91998 0.40914 0.0
C745 C 0.41364 0.92998 0.3945 0.0
C746 C 0.37761 0.9061 0.41482 0.0
N747 N 0.40203 0.91135 0.40745 0.0
C748 C 0.42001 0.01399 0.35458 0.0
C749 C 0.38263 0.96957 0.34662 0.0
C750 C 0.43499 0.015 0.34011 0.0
N751 N 0.39439 0.99149 0.35755 0.0
C752 C 0.39678 0.96977 0.33193 0.0
C753 C 0.42353 0.99255 0.32862 0.0
H754 H 0.42922 0.03075 0.36371 0.0
H755 H 0.36248 0.95165 0.34953 0.0
C756 C 0.27528 0.93633 0.38592 0.0
N757 N 0.29539 0.92984 0.38962 0.0
C758 C 0.25077 0.91686 0.37785 0.0
C759 C 0.26732 0.88378 0.37854 0.0
C760 C 0.29164 0.90398 0.38657 0.0
C761 C 0.24708 0.8906 0.37344 0.0
H762 H 0.27929 0.95738 0.38795 0.0
H763 H 0.30839 0.89975 0.38914 0.0
O764 O 0.39564 0.01764 0.39503 0.0
O765 O 0.34048 0.98363 0.4151 0.0
O766 O 0.33937 0.98925 0.37606 0.0
O767 O 0.36262 0.95354 0.39041 0.0
H768 H 0.4233 0.04105 0.42335 0.0
H769 H 0.40647 0.05762 0.37264 0.0
H770 H 0.45424 0.09201 0.42755 0.0
H771 H 0.43749 0.10834 0.37781 0.0
H772 H 0.27141 0.90897 0.443 0.0
H773 H 0.30335 0.00055 0.41566 0.0
H774 H 0.3191 0.93471 0.43064 0.0
H775 H 0.25597 0.97372 0.42831 0.0
H776 H 0.37774 0.10633 0.41644 0.0
H777 H 0.31582 0.06772 0.37695 0.0
H778 H 0.46442 0.99825 0.43052 0.0
H779 H 0.40009 0.97488 0.46863 0.0
H780 H 0.3093 0.94609 0.35581 0.0
H781 H 0.36306 0.03546 0.35754 0.0
H782 H 0.30485 0.94944 0.32476 0.0
H783 H 0.35794 0.0372 0.32638 0.0
H784 H 0.40988 0.95929 0.37824 0.0
H785 H 0.34445 0.91587 0.41501 0.0
H786 H 0.4331 0.93372 0.38891 0.0
H787 H 0.3689 0.89116 0.42511 0.0
H788 H 0.45582 0.03267 0.33835 0.0
H789 H 0.38707 0.95207 0.32341 0.0
H790 H 0.23557 0.92284 0.37426 0.0
H791 H 0.2654 0.86388 0.3752 0.0
Li792 Li 0.34885 0.3286 0.27107 0.0
Li793 Li 0.29783 0.29956 0.2757 0.0
Li794 Li 0.33095 0.28702 0.28765 0.0
Li795 Li 0.32436 0.28276 0.25779 0.0
C796 C 0.33697 0.32807 0.30851 0.0
N797 N 0.35505 0.3424 0.34158 0.0
C798 C 0.31786 0.3175 0.32191 0.0
C799 C 0.36531 0.34596 0.31196 0.0
C800 C 0.32741 0.32495 0.33853 0.0
C801 C 0.37402 0.35298 0.32875 0.0
C802 C 0.33054 0.33631 0.24231 0.0
C803 C 0.36157 0.35806 0.21859 0.0
N804 N 0.35856 0.38091 0.22035 0.0
C805 C 0.32773 0.36 0.24389 0.0
C806 C 0.34759 0.3353 0.22957 0.0
C807 C 0.34208 0.38233 0.23267 0.0
C808 C 0.40237 0.37226 0.26139 0.0
N809 N 0.37776 0.36617 0.26878 0.0
C810 C 0.3968 0.41309 0.27841 0.0
C811 C 0.37421 0.38613 0.2765 0.0
C812 C 0.42322 0.4194 0.27231 0.0
C813 C 0.42561 0.39897 0.26305 0.0
H814 H 0.40439 0.35592 0.25516 0.0
H815 H 0.35429 0.38055 0.28222 0.0
C816 C 0.25219 0.2847 0.29587 0.0
N817 N 0.26515 0.30036 0.28196 0.0
C818 C 0.23309 0.28915 0.3049 0.0
C819 C 0.2389 0.32387 0.28412 0.0
C820 C 0.25837 0.31909 0.27564 0.0
C821 C 0.22684 0.30968 0.29942 0.0
H822 H 0.25833 0.27021 0.30069 0.0
H823 H 0.26912 0.33139 0.2646 0.0
C824 C 0.37864 0.29368 0.27741 0.0
N825 N 0.41511 0.28003 0.29288 0.0
C826 C 0.37196 0.26573 0.2786 0.0
C827 C 0.40395 0.31469 0.28404 0.0
C828 C 0.39064 0.25926 0.2865 0.0
C829 C 0.4221 0.30735 0.29181 0.0
C830 C 0.27694 0.23839 0.26811 0.0
C831 C 0.28231 0.21627 0.26685 0.0
C832 C 0.25244 0.23568 0.26118 0.0
C833 C 0.26315 0.19183 0.2585 0.0
C834 C 0.23376 0.21086 0.25296 0.0
N835 N 0.23948 0.18965 0.25178 0.0
C836 C 0.31349 0.24371 0.31124 0.0
C837 C 0.35834 0.28175 0.31761 0.0
C838 C 0.31477 0.22874 0.3251 0.0
N839 N 0.33523 0.26953 0.30758 0.0
C840 C 0.36051 0.26754 0.33166 0.0
C841 C 0.33863 0.24051 0.33545 0.0
H842 H 0.2952 0.23451 0.30324 0.0
H843 H 0.37533 0.30236 0.31462 0.0
C844 C 0.34724 0.25972 0.23598 0.0
N845 N 0.32387 0.26157 0.23841 0.0
C846 C 0.34842 0.24325 0.22302 0.0
C847 C 0.30199 0.23197 0.21447 0.0
C848 C 0.30165 0.24863 0.22774 0.0
C849 C 0.32547 0.22877 0.2122 0.0
H850 H 0.36508 0.271 0.24414 0.0
H851 H 0.28352 0.2509 0.22967 0.0
O852 O 0.328 0.32094 0.29214 0.0
O853 O 0.31739 0.31459 0.2535 0.0
O854 O 0.36057 0.30041 0.26972 0.0
O855 O 0.29559 0.26257 0.2761 0.0
H856 H 0.29591 0.30356 0.31955 0.0
H857 H 0.38055 0.35392 0.30185 0.0
H858 H 0.31283 0.31684 0.34901 0.0
H859 H 0.39589 0.36669 0.33159 0.0
H860 H 0.3749 0.3576 0.2087 0.0
H861 H 0.31501 0.36134 0.25386 0.0
H862 H 0.35024 0.31727 0.22828 0.0
H863 H 0.34022 0.40086 0.2338 0.0
H864 H 0.39406 0.42809 0.28577 0.0
H865 H 0.44555 0.40313 0.25799 0.0
H866 H 0.22487 0.27786 0.31666 0.0
H867 H 0.23429 0.33937 0.2791 0.0
H868 H 0.35242 0.2492 0.27361 0.0
H869 H 0.4094 0.33638 0.28341 0.0
H870 H 0.38565 0.23772 0.28758 0.0
H871 H 0.44168 0.32338 0.29706 0.0
H872 H 0.30116 0.21804 0.27218 0.0
H873 H 0.248 0.25263 0.262 0.0
H874 H 0.26711 0.1746 0.25734 0.0
H875 H 0.21477 0.20849 0.24747 0.0
H876 H 0.29756 0.2078 0.32734 0.0
H877 H 0.37917 0.27755 0.33938 0.0
H878 H 0.36723 0.24199 0.22143 0.0
H879 H 0.28389 0.22124 0.20633 0.0
Li880 Li 0.70942 0.02433 0.24904 0.0
Li881 Li 0.70951 0.03871 0.27822 0.0
Li882 Li 0.69385 0.98875 0.27416 0.0
Li883 Li 0.66617 0.00917 0.26486 0.0
C884 C 0.75722 0.03841 0.27551 0.0
N885 N 0.80853 0.07261 0.2904 0.0
C886 C 0.77659 0.06338 0.26763 0.0
C887 C 0.76404 0.03075 0.29091 0.0
C888 C 0.80242 0.08038 0.27535 0.0
C889 C 0.79005 0.04837 0.29826 0.0
C890 C 0.70075 0.07448 0.25784 0.0
C891 C 0.69113 0.11076 0.26638 0.0
N892 N 0.71375 0.12977 0.25742 0.0
C893 C 0.72379 0.09436 0.2486 0.0
C894 C 0.68416 0.08271 0.2667 0.0
C895 C 0.73006 0.12221 0.24859 0.0
C896 C 0.71576 0.04772 0.21705 0.0
N897 N 0.72763 0.03741 0.2278 0.0
C898 C 0.76966 0.05825 0.21143 0.0
C899 C 0.75361 0.04136 0.22491 0.0
C900 C 0.75875 0.07109 0.20092 0.0
C901 C 0.73101 0.06467 0.20345 0.0
H902 H 0.69524 0.04462 0.21983 0.0
H903 H 0.76261 0.03308 0.23376 0.0
C904 C 0.72748 0.05988 0.31106 0.0
N905 N 0.73021 0.06746 0.29443 0.0
C906 C 0.74582 0.07843 0.32315 0.0
C907 C 0.769 0.11239 0.30084 0.0
C908 C 0.75009 0.09337 0.28925 0.0
C909 C 0.76739 0.10469 0.31792 0.0
H910 H 0.7121 0.03888 0.31481 0.0
H911 H 0.75274 0.09865 0.27599 0.0
C912 C 0.65131 0.96757 0.24384 0.0
N913 N 0.59953 0.93343 0.22955 0.0
C914 C 0.63301 0.94169 0.25119 0.0
C915 C 0.64338 0.97603 0.22917 0.0
C916 C 0.6069 0.92473 0.24378 0.0
C917 C 0.61707 0.9585 0.22216 0.0
C918 C 0.65775 0.00314 0.29948 0.0
C919 C 0.64036 0.97719 0.30707 0.0
C920 C 0.65492 0.02612 0.3038 0.0
C921 C 0.61997 0.97455 0.31859 0.0
C922 C 0.63429 0.02264 0.31538 0.0
N923 N 0.61735 0.99713 0.32245 0.0
C924 C 0.69652 0.96172 0.30245 0.0
C925 C 0.68633 0.93314 0.2781 0.0
C926 C 0.69305 0.93993 0.31295 0.0
N927 N 0.69284 0.95792 0.28544 0.0
C928 C 0.68259 0.91059 0.28819 0.0
C929 C 0.68562 0.91378 0.30592 0.0
H930 H 0.70119 0.98152 0.30795 0.0
H931 H 0.68327 0.93062 0.26454 0.0
C932 C 0.62321 0.01942 0.25416 0.0
N933 N 0.62856 0.00125 0.26273 0.0
C934 C 0.59654 0.0163 0.2546 0.0
C935 C 0.58099 0.97462 0.27159 0.0
C936 C 0.60787 0.9785 0.27074 0.0
C937 C 0.57524 0.99419 0.26393 0.0
H938 H 0.63988 0.0369 0.24747 0.0
H939 H 0.61246 0.9639 0.27703 0.0
O940 O 0.73154 0.0218 0.26836 0.0
O941 O 0.69395 0.04698 0.25773 0.0
O942 O 0.67674 0.98469 0.25109 0.0
O943 O 0.67772 0.00607 0.28809 0.0
H944 H 0.77151 0.06996 0.2559 0.0
H945 H 0.74935 0.01154 0.29719 0.0
H946 H 0.81749 0.09988 0.26947 0.0
H947 H 0.79551 0.04278 0.31023 0.0
H948 H 0.67847 0.11739 0.27321 0.0
H949 H 0.73712 0.08856 0.24182 0.0
H950 H 0.66591 0.06759 0.27361 0.0
H951 H 0.74797 0.13782 0.24162 0.0
H952 H 0.79099 0.06271 0.20997 0.0
H953 H 0.72163 0.07375 0.1955 0.0
H954 H 0.74423 0.0717 0.33621 0.0
H955 H 0.78547 0.1325 0.29636 0.0
H956 H 0.63873 0.93495 0.26263 0.0
H957 H 0.65728 0.99603 0.22337 0.0
H958 H 0.59245 0.90472 0.24938 0.0
H959 H 0.61058 0.96484 0.21087 0.0
H960 H 0.6423 0.95918 0.30389 0.0
H961 H 0.66867 0.04646 0.29838 0.0
H962 H 0.60619 0.95453 0.32443 0.0
H963 H 0.6318 0.04024 0.31878 0.0
H964 H 0.69506 0.94328 0.32652 0.0
H965 H 0.67706 0.89085 0.28223 0.0
H966 H 0.5929 0.03154 0.24819 0.0
H967 H 0.56539 0.95734 0.27901 0.0
Li968 Li 0.96503 0.67695 0.27413 0.0
Li969 Li 0.98657 0.65437 0.25776 0.0
Li970 Li 0.01454 0.70344 0.26451 0.0
Li971 Li 0.97501 0.68497 0.2442 0.0
C972 C 0.99246 0.65316 0.29312 0.0
N973 N 0.98415 0.61395 0.31767 0.0
C974 C 0.96843 0.62672 0.29283 0.0
C975 C 0.01217 0.65968 0.30597 0.0
C976 C 0.96466 0.60717 0.30532 0.0
C977 C 0.00758 0.63958 0.31827 0.0
C978 C 0.92586 0.63785 0.24553 0.0
C979 C 0.90255 0.61431 0.21974 0.0
N980 N 0.88021 0.61697 0.22413 0.0
C981 C 0.90248 0.63997 0.2499 0.0
C982 C 0.92576 0.62459 0.23043 0.0
C983 C 0.87967 0.62942 0.23888 0.0
C984 C 0.92622 0.68951 0.28665 0.0
N985 N 0.93977 0.67565 0.29114 0.0
C986 C 0.91603 0.66312 0.31785 0.0
C987 C 0.93546 0.663 0.30654 0.0
C988 C 0.90129 0.67683 0.31336 0.0
C989 C 0.90709 0.6906 0.29763 0.0
H990 H 0.9302 0.69965 0.27441 0.0
H991 H 0.94685 0.65269 0.31013 0.0
C992 C 0.01379 0.6241 0.26315 0.0
N993 N 0.98948 0.62151 0.25733 0.0
C994 C 0.0155 0.60039 0.26704 0.0
C995 C 0.96748 0.57173 0.25813 0.0
C996 C 0.96672 0.59605 0.25434 0.0
C997 C 0.99183 0.57379 0.26511 0.0
H998 H 0.03122 0.64462 0.26593 0.0
H999 H 0.94743 0.59458 0.25016 0.0
C1000 C 0.98996 0.7349 0.27328 0.0
N1001 N 0.00074 0.77776 0.2955 0.0
C1002 C 0.98736 0.75761 0.26791 0.0
C1003 C 0.99789 0.7339 0.28999 0.0
C1004 C 0.99294 0.7791 0.27933 0.0
C1005 C 0.00329 0.7558 0.30101 0.0
C1006 C 0.02547 0.67444 0.23427 0.0
C1007 C 0.0536 0.68453 0.2381 0.0
C1008 C 0.01204 0.65274 0.22257 0.0
C1009 C 0.06765 0.67228 0.23044 0.0
C1010 C 0.02679 0.64102 0.21519 0.0
N1011 N 0.05405 0.65093 0.21926 0.0
C1012 C 0.06517 0.72099 0.28021 0.0
C1013 C 0.05945 0.75912 0.27201 0.0
C1014 C 0.08896 0.73867 0.28953 0.0
N1015 N 0.0505 0.73127 0.27215 0.0
C1016 C 0.08304 0.77759 0.28136 0.0
C1017 C 0.09762 0.76725 0.29074 0.0
H1018 H 0.05766 0.69877 0.27996 0.0
H1019 H 0.04746 0.76682 0.26546 0.0
C1020 C 0.93935 0.69899 0.22816 0.0
N1021 N 0.95865 0.6913 0.2247 0.0
C1022 C 0.92095 0.69754 0.2156 0.0
C1023 C 0.94408 0.68245 0.19575 0.0
C1024 C 0.96193 0.6839 0.20879 0.0
C1025 C 0.92265 0.68838 0.19929 0.0
H1026 H 0.93704 0.70442 0.24099 0.0
H1027 H 0.97717 0.67748 0.20647 0.0
O1028 O 0.99722 0.67217 0.28055 0.0
O1029 O 0.94875 0.64879 0.25595 0.0
O1030 O 0.98436 0.71366 0.26221 0.0
O1031 O 0.01128 0.68596 0.24181 0.0
H1032 H 0.95282 0.62134 0.28307 0.0
H1033 H 0.03083 0.68004 0.30646 0.0
H1034 H 0.94624 0.5866 0.30518 0.0
H1035 H 0.02269 0.64435 0.32827 0.0
H1036 H 0.90236 0.6043 0.20792 0.0
H1037 H 0.90196 0.6498 0.26161 0.0
H1038 H 0.94352 0.62254 0.22688 0.0
H1039 H 0.86156 0.63118 0.24203 0.0
H1040 H 0.91223 0.65211 0.32979 0.0
H1041 H 0.89693 0.70213 0.29373 0.0
H1042 H 0.0345 0.60298 0.2727 0.0
H1043 H 0.9488 0.55159 0.25642 0.0
H1044 H 0.9811 0.75861 0.25504 0.0
H1045 H -7e-05 0.71647 0.29443 0.0
H1046 H 0.99106 0.79684 0.27533 0.0
H1047 H 0.00952 0.75534 0.31396 0.0
H1048 H 0.06448 0.70161 0.24689 0.0
H1049 H 0.9904 0.64486 0.21932 0.0
H1050 H 0.08937 0.67977 0.23337 0.0
H1051 H 0.01656 0.62405 0.20623 0.0
H1052 H 0.09994 0.72984 0.29613 0.0
H1053 H 0.08882 0.79942 0.28194 0.0
H1054 H 0.9049 0.70257 0.21877 0.0
H1055 H 0.94594 0.67517 0.18334 0.0
Li1056 Li 0.67114 0.71737 0.71561 0.0
Li1057 Li 0.67121 0.71486 0.7474 0.0
Li1058 Li 0.69524 0.69611 0.72836 0.0
Li1059 Li 0.64564 0.67284 0.73004 0.0
C1060 C 0.71619 0.7622 0.72506 0.0
N1061 N 0.73917 0.81539 0.71151 0.0
C1062 C 0.7144 0.78318 0.73389 0.0
C1063 C 0.72987 0.76836 0.70939 0.0
C1064 C 0.72613 0.80992 0.72682 0.0
C1065 C 0.74127 0.79534 0.70273 0.0
C1066 C 0.6121 0.6941 0.73201 0.0
C1067 C 0.56815 0.67143 0.74697 0.0
N1068 N 0.55452 0.66839 0.73207 0.0
C1069 C 0.5977 0.69091 0.71686 0.0
C1070 C 0.59728 0.6844 0.7472 0.0
C1071 C 0.56857 0.67779 0.71716 0.0
C1072 C 0.67541 0.73703 0.68154 0.0
N1073 N 0.66884 0.73932 0.69785 0.0
C1074 C 0.65736 0.77411 0.69002 0.0
C1075 C 0.65989 0.75731 0.70227 0.0
C1076 C 0.66434 0.77249 0.67311 0.0
C1077 C 0.67359 0.75378 0.6689 0.0
H1078 H 0.68202 0.72226 0.67834 0.0
H1079 H 0.65475 0.75858 0.71535 0.0
C1080 C 0.68572 0.7377 0.7813 0.0
N1081 N 0.67048 0.73442 0.76707 0.0
C1082 C 0.68389 0.75256 0.79516 0.0
C1083 C 0.65104 0.76047 0.77931 0.0
C1084 C 0.6536 0.74568 0.76582 0.0
C1085 C 0.66617 0.764 0.79427 0.0
H1086 H 0.69917 0.72871 0.7819 0.0
H1087 H 0.64228 0.74341 0.75422 0.0
C1088 C 0.67804 0.66794 0.69974 0.0
N1089 N 0.69854 0.63988 0.68093 0.0
C1090 C 0.66616 0.63896 0.70135 0.0
C1091 C 0.70044 0.68263 0.68859 0.0
C1092 C 0.67678 0.62516 0.6917 0.0
C1093 C 0.71051 0.66808 0.67921 0.0
C1094 C 0.65736 0.6561 0.7595 0.0
C1095 C 0.65328 0.62999 0.75461 0.0
C1096 C 0.64685 0.65884 0.77507 0.0
C1097 C 0.63876 0.60704 0.7654 0.0
C1098 C 0.63248 0.63539 0.7855 0.0
N1099 N 0.62877 0.6102 0.78049 0.0
C1100 C 0.7511 0.71304 0.7191 0.0
C1101 C 0.72297 0.66484 0.72547 0.0
C1102 C 0.77153 0.70841 0.7119 0.0
N1103 N 0.72688 0.69118 0.72503 0.0
C1104 C 0.74269 0.65922 0.71827 0.0
C1105 C 0.76683 0.681 0.71076 0.0
H1106 H 0.75379 0.73379 0.71895 0.0
H1107 H 0.70358 0.6478 0.73017 0.0
C1108 C 0.60181 0.63326 0.71144 0.0
N1109 N 0.61049 0.63883 0.72782 0.0
C1110 C 0.57554 0.61101 0.70751 0.0
C1111 C 0.56723 0.60017 0.73739 0.0
C1112 C 0.59363 0.62308 0.74078 0.0
C1113 C 0.55791 0.59421 0.72057 0.0
H1114 H 0.61509 0.64666 0.7014 0.0
H1115 H 0.60008 0.62872 0.75375 0.0
O1116 O 0.7042 0.73569 0.73158 0.0
O1117 O 0.64055 0.70608 0.7319 0.0
O1118 O 0.66807 0.68188 0.70918 0.0
O1119 O 0.67205 0.67899 0.74932 0.0
H1120 H 0.70402 0.77888 0.74604 0.0
H1121 H 0.7311 0.75232 0.70224 0.0
H1122 H 0.72481 0.82632 0.7335 0.0
H1123 H 0.75164 0.8003 0.69054 0.0
H1124 H 0.55638 0.66364 0.75861 0.0
H1125 H 0.60889 0.69813 0.70498 0.0
H1126 H 0.60813 0.68646 0.75901 0.0
H1127 H 0.55712 0.67498 0.70552 0.0
H1128 H 0.65043 0.78852 0.69376 0.0
H1129 H 0.67894 0.75185 0.65595 0.0
H1130 H 0.6959 0.75479 0.80648 0.0
H1131 H 0.63768 0.76948 0.7779 0.0
H1132 H 0.6492 0.62724 0.71013 0.0
H1133 H 0.71042 0.70511 0.68747 0.0
H1134 H 0.66782 0.60277 0.69287 0.0
H1135 H 0.72799 0.67923 0.67066 0.0
H1136 H 0.66073 0.6273 0.7425 0.0
H1137 H 0.64966 0.6788 0.77904 0.0
H1138 H 0.63533 0.5867 0.76172 0.0
H1139 H 0.62422 0.63722 0.79757 0.0
H1140 H 0.78988 0.7258 0.70625 0.0
H1141 H 0.73848 0.63785 0.71786 0.0
H1142 H 0.56904 0.60698 0.69437 0.0
H1143 H 0.55392 0.58783 0.74778 0.0
Li1144 Li 0.32125 0.97963 0.73346 0.0
Li1145 Li 0.29319 0.00154 0.73054 0.0
Li1146 Li 0.27717 0.95873 0.74916 0.0
Li1147 Li 0.27725 0.9565 0.71771 0.0
C1148 C 0.32775 0.00523 0.76555 0.0
N1149 N 0.36266 0.02148 0.79343 0.0
C1150 C 0.34644 0.03356 0.76851 0.0
C1151 C 0.32663 0.9852 0.77687 0.0
C1152 C 0.36398 0.04135 0.78264 0.0
C1153 C 0.34449 0.99382 0.79086 0.0
C1154 C 0.32367 0.01447 0.70208 0.0
C1155 C 0.32051 0.04452 0.68101 0.0
N1156 N 0.34863 0.06183 0.68191 0.0
C1157 C 0.35255 0.03263 0.70282 0.0
C1158 C 0.30752 0.02048 0.69107 0.0
C1159 C 0.36477 0.05642 0.69251 0.0
C1160 C 0.36304 0.97648 0.71716 0.0
N1161 N 0.35833 0.98547 0.73217 0.0
C1162 C 0.40499 0.00021 0.74122 0.0
C1163 C 0.37868 0.99725 0.74417 0.0
C1164 C 0.40999 0.99046 0.72595 0.0
C1165 C 0.38865 0.97844 0.71386 0.0
H1166 H 0.34675 0.96782 0.70768 0.0
H1167 H 0.37477 0.00453 0.75596 0.0
C1168 C 0.27366 0.03875 0.72122 0.0
N1169 N 0.29594 0.03703 0.72697 0.0
C1170 C 0.27765 0.06359 0.71394 0.0
C1171 C 0.32704 0.08485 0.71982 0.0
C1172 C 0.32208 0.05974 0.72709 0.0
C1173 C 0.30482 0.08662 0.71253 0.0
H1174 H 0.25312 0.02038 0.72126 0.0
H1175 H 0.33946 0.05767 0.7315 0.0
C1176 C 0.30544 0.92541 0.73266 0.0
N1177 N 0.33618 0.89874 0.72875 0.0
C1178 C 0.30519 0.91286 0.71721 0.0
C1179 C 0.3213 0.92425 0.74613 0.0
C1180 C 0.32085 0.8995 0.71549 0.0
C1181 C 0.33672 0.91074 0.74389 0.0
C1182 C 0.22949 0.95256 0.72539 0.0
C1183 C 0.20946 0.92761 0.73299 0.0
C1184 C 0.22334 0.96105 0.71006 0.0
C1185 C 0.1836 0.91153 0.72509 0.0
C1186 C 0.19728 0.94435 0.70254 0.0
N1187 N 0.17811 0.92014 0.71015 0.0
C1188 C 0.23917 0.94365 0.77724 0.0
C1189 C 0.25871 0.91464 0.77228 0.0
C1190 C 0.22219 0.92572 0.79014 0.0
N1191 N 0.25678 0.93764 0.76854 0.0
C1192 C 0.2426 0.89653 0.78522 0.0
C1193 C 0.22377 0.90174 0.79418 0.0
H1194 H 0.23769 0.96183 0.7738 0.0
H1195 H 0.27229 0.90993 0.76493 0.0
C1196 C 0.26244 0.94258 0.68298 0.0
N1197 N 0.25782 0.93276 0.69917 0.0
C1198 C 0.24734 0.92489 0.66963 0.0
C1199 C 0.22382 0.88715 0.68983 0.0
C1200 C 0.23909 0.90563 0.70279 0.0
C1201 C 0.2278 0.8968 0.67301 0.0
H1202 H 0.27783 0.96406 0.68041 0.0
H1203 H 0.23604 0.8984 0.71579 0.0
O1204 O 0.31032 0.99729 0.75182 0.0
O1205 O 0.31128 0.99117 0.7122 0.0
O1206 O 0.29065 0.93911 0.73448 0.0
O1207 O 0.25519 0.96825 0.73272 0.0
H1208 H 0.34743 0.04939 0.76 0.0
H1209 H 0.31224 0.96326 0.77488 0.0
H1210 H 0.37861 0.06319 0.78505 0.0
H1211 H 0.34391 0.97851 0.79968 0.0
H1212 H 0.30821 0.04953 0.67256 0.0
H1213 H 0.36542 0.02865 0.71139 0.0
H1214 H 0.28509 0.00707 0.69057 0.0
H1215 H 0.38707 0.07067 0.693 0.0
H1216 H 0.42115 0.00979 0.75076 0.0
H1217 H 0.39197 0.97122 0.70178 0.0
H1218 H 0.25997 0.06411 0.70844 0.0
H1219 H 0.34824 0.10225 0.71914 0.0
H1220 H 0.29342 0.91378 0.70655 0.0
H1221 H 0.3221 0.93406 0.75811 0.0
H1222 H 0.32093 0.88985 0.70358 0.0
H1223 H 0.34921 0.90989 0.75418 0.0
H1224 H 0.2139 0.92051 0.74474 0.0
H1225 H 0.23871 0.98004 0.70385 0.0
H1226 H 0.16796 0.89212 0.7308 0.0
H1227 H 0.19234 0.95056 0.69062 0.0
H1228 H 0.20787 0.9304 0.79678 0.0
H1229 H 0.24408 0.87803 0.78774 0.0
H1230 H 0.25114 0.93296 0.65678 0.0
H1231 H 0.20875 0.86565 0.69294 0.0
Li1232 Li 0.0444 0.32305 0.74597 0.0
Li1233 Li 0.02509 0.35149 0.73475 0.0
Li1234 Li 0.00038 0.30017 0.7313 0.0
Li1235 Li 0.04356 0.33007 0.7153 0.0
C1236 C 0.98488 0.30918 0.76148 0.0
N1237 N 0.93429 0.28172 0.77829 0.0
C1238 C 0.96859 0.32187 0.76323 0.0
C1239 C 0.97564 0.28268 0.76843 0.0
C1240 C 0.94303 0.30761 0.77175 0.0
C1241 C 0.94993 0.26909 0.77683 0.0
C1242 C 0.08223 0.38589 0.73573 0.0
C1243 C 0.10605 0.43407 0.72663 0.0
N1244 N 0.11835 0.4419 0.74212 0.0
C1245 C 0.09517 0.3944 0.75155 0.0
C1246 C 0.0878 0.40585 0.72314 0.0
C1247 C 0.11337 0.42282 0.75453 0.0
C1248 C 0.09389 0.32844 0.75877 0.0
N1249 N 0.06743 0.32136 0.7633 0.0
C1250 C 0.07709 0.31704 0.79233 0.0
C1251 C 0.05865 0.31548 0.77966 0.0
C1252 C 0.1047 0.3246 0.78804 0.0
C1253 C 0.11289 0.32999 0.77096 0.0
H1254 H 0.10047 0.33367 0.74572 0.0
H1255 H 0.03757 0.31021 0.78292 0.0
C1256 C -0.00041 0.38241 0.72714 0.0
N1257 N 0.01983 0.38286 0.73712 0.0
C1258 C 0.9969 0.40608 0.72565 0.0
C1259 C 0.03468 0.42973 0.74567 0.0
C1260 C 0.03634 0.40536 0.74697 0.0
C1261 C 0.01529 0.43047 0.7345 0.0
H1262 H 0.98627 0.36402 0.71975 0.0
H1263 H 0.05156 0.40486 0.75531 0.0
C1264 C 0.04488 0.27978 0.732 0.0
N1265 N 0.07121 0.25079 0.74191 0.0
C1266 C 0.06985 0.28526 0.72424 0.0
C1267 C 0.03312 0.25939 0.74465 0.0
C1268 C 0.08289 0.27041 0.72946 0.0
C1269 C 0.04682 0.24501 0.74953 0.0
C1270 C 0.00365 0.33317 0.69776 0.0
C1271 C 0.98489 0.3105 0.6879 0.0
C1272 C 0.01879 0.35968 0.6904 0.0
C1273 C 0.98183 0.3147 0.67074 0.0
C1274 C 0.01516 0.36303 0.6732 0.0
N1275 N 0.99692 0.34065 0.66381 0.0
C1276 C 0.94137 0.27059 0.72845 0.0
C1277 C 0.96462 0.24713 0.71851 0.0
C1278 C 0.91671 0.25113 0.72044 0.0
N1279 N 0.96478 0.26855 0.72706 0.0
C1280 C 0.94062 0.22761 0.70996 0.0
C1281 C 0.91643 0.23001 0.71032 0.0
H1282 H 0.94231 0.28842 0.73469 0.0
H1283 H 0.98381 0.24662 0.71706 0.0
C1284 C 0.08774 0.35459 0.69141 0.0
N1285 N 0.06152 0.33306 0.69433 0.0
C1286 C 0.10156 0.35568 0.67637 0.0
C1287 C 0.06095 0.31259 0.66757 0.0
C1288 C 0.048 0.31226 0.68283 0.0
C1289 C 0.08827 0.33432 0.66427 0.0
H1290 H 0.09827 0.37045 0.70097 0.0
H1291 H 0.02735 0.29509 0.68567 0.0
O1292 O 0.00992 0.32278 0.75317 0.0
O1293 O 0.06435 0.35815 0.73257 0.0
O1294 O 0.03206 0.29443 0.72728 0.0
O1295 O 0.00721 0.32943 0.71454 0.0
H1296 H 0.97554 0.34245 0.758 0.0
H1297 H 0.98813 0.27269 0.76727 0.0
H1298 H 0.93012 0.3171 0.77313 0.0
H1299 H 0.94243 0.2485 0.78219 0.0
H1300 H 0.11043 0.44975 0.71703 0.0
H1301 H 0.091 0.37931 0.7615 0.0
H1302 H 0.07804 0.39966 0.71082 0.0
H1303 H 0.12344 0.42972 0.76673 0.0
H1304 H 0.06991 0.31256 0.80534 0.0
H1305 H 0.13406 0.33635 0.76713 0.0
H1306 H 0.98175 0.40578 0.71682 0.0
H1307 H 0.04897 0.44804 0.75289 0.0
H1308 H 0.0792 0.301 0.71441 0.0
H1309 H 0.01372 0.25484 0.7507 0.0
H1310 H 0.10232 0.27453 0.72365 0.0
H1311 H 0.03806 0.22927 0.75938 0.0
H1312 H 0.97295 0.28984 0.69337 0.0
H1313 H 0.03321 0.37747 0.69789 0.0
H1314 H 0.96749 0.29731 0.66293 0.0
H1315 H 0.02683 0.38342 0.66733 0.0
H1316 H 0.89854 0.2536 0.72147 0.0
H1317 H 0.94185 0.21216 0.70216 0.0
H1318 H 0.12285 0.37248 0.67459 0.0
H1319 H 0.04984 0.29577 0.6586 0.0
Li1320 Li 0.95934 0.62947 0.61032 0.0
Li1321 Li 0.00796 0.65744 0.60179 0.0
Li1322 Li 0.98185 0.6119 0.58807 0.0
Li1323 Li 0.99445 0.61638 0.61795 0.0
C1324 C 0.98235 0.6682 0.57803 0.0
N1325 N 0.0009 0.71785 0.56063 0.0
C1326 C 0.97425 0.68726 0.58326 0.0
C1327 C -0.00024 0.67428 0.56392 0.0
C1328 C 0.98387 0.71227 0.57429 0.0
C1329 C 0.00897 0.69953 0.55531 0.0
C1330 C 0.00541 0.67097 0.63543 0.0
C1331 C 0.0444 0.69994 0.65358 0.0
N1332 N 0.03284 0.71611 0.65697 0.0
C1333 C 0.99372 0.68766 0.63926 0.0
C1334 C 0.03078 0.67693 0.6428 0.0
C1335 C 0.00798 0.71047 0.65012 0.0
C1336 C 0.92692 0.6274 0.63685 0.0
N1337 N 0.92821 0.63029 0.61972 0.0
C1338 C 0.89086 0.64034 0.62002 0.0
C1339 C 0.91045 0.63619 0.61112 0.0
C1340 C 0.89004 0.63873 0.63783 0.0
C1341 C 0.90799 0.6316 0.6462 0.0
H1342 H 0.9415 0.62293 0.64333 0.0
H1343 H 0.91214 0.63865 0.59749 0.0
C1344 C 0.06205 0.69877 0.59191 0.0
N1345 N 0.03774 0.69496 0.59863 0.0
C1346 C 0.08643 0.72467 0.59324 0.0
C1347 C 0.05959 0.74302 0.60657 0.0
C1348 C 0.03574 0.71678 0.60492 0.0
C1349 C 0.08562 0.74678 0.60149 0.0
H1350 H 0.06288 0.68129 0.58643 0.0
H1351 H 0.01598 0.71348 0.60961 0.0
C1352 C 0.94958 0.56724 0.61572 0.0
N1353 N 0.93736 0.51867 0.63276 0.0
C1354 C 0.95914 0.54985 0.60946 0.0
C1355 C 0.93368 0.55987 0.63058 0.0
C1356 C 0.95274 0.52538 0.61826 0.0
C1357 C 0.92778 0.53525 0.63904 0.0
C1358 C 0.04125 0.62505 0.60058 0.0
C1359 C 0.04184 0.60266 0.59272 0.0
C1360 C 0.0634 0.64307 0.61104 0.0
C1361 C 0.06448 0.59856 0.59559 0.0
C1362 C 0.08564 0.63824 0.6136 0.0
N1363 N 0.08571 0.61627 0.60589 0.0
C1364 C 0.00124 0.6014 0.55808 0.0
C1365 C 0.95533 0.56586 0.56511 0.0
C1366 C 0.00265 0.58511 0.54505 0.0
N1367 N 0.97819 0.59124 0.56809 0.0
C1368 C 0.95569 0.54894 0.55204 0.0
C1369 C 0.97994 0.55814 0.54211 0.0
H1370 H 0.01926 0.62152 0.56091 0.0
H1371 H 0.93731 0.55825 0.57335 0.0
C1372 C 0.99535 0.60431 0.6523 0.0
N1373 N 0.00306 0.59998 0.63672 0.0
C1374 C 0.99899 0.59162 0.66664 0.0
C1375 C 0.01875 0.57049 0.64869 0.0
C1376 C 0.01436 0.58324 0.6347 0.0
C1377 C 0.01084 0.57448 0.66489 0.0
H1378 H 0.98572 0.6171 0.65355 0.0
H1379 H 0.01902 0.57885 0.62221 0.0
O1380 O 0.97361 0.64387 0.58683 0.0
O1381 O 0.99179 0.64859 0.62478 0.0
O1382 O 0.95637 0.5917 0.60756 0.0
O1383 O 0.0194 0.6296 0.59778 0.0
H1384 H 0.961 0.68297 0.59426 0.0
H1385 H 0.00629 0.65976 0.55976 0.0
H1386 H 0.97791 0.72731 0.57825 0.0
H1387 H 0.02256 0.70459 0.54441 0.0
H1388 H 0.06413 0.70488 0.6593 0.0
H1389 H 0.9741 0.68337 0.63366 0.0
H1390 H 0.03975 0.66383 0.64033 0.0
H1391 H -0.00068 0.72372 0.65305 0.0
H1392 H 0.87738 0.6459 0.61314 0.0
H1393 H 0.90776 0.6298 0.65988 0.0
H1394 H 0.10595 0.72689 0.58873 0.0
H1395 H 0.05788 0.75943 0.61297 0.0
H1396 H 0.97182 0.55546 0.59811 0.0
H1397 H 0.92617 0.57311 0.63562 0.0
H1398 H 0.96016 0.51183 0.61363 0.0
H1399 H 0.91565 0.52937 0.65062 0.0
H1400 H 0.02478 0.58825 0.58477 0.0
H1401 H 0.06355 0.66072 0.61701 0.0
H1402 H 0.06509 0.58121 0.58968 0.0
H1403 H 0.10289 0.65202 0.62168 0.0
H1404 H 0.02198 0.59309 0.53802 0.0
H1405 H 0.93744 0.52859 0.55007 0.0
H1406 H 0.99244 0.59501 0.67893 0.0
H1407 H 0.02723 0.55676 0.64677 0.0
Li1408 Li 0.3613 0.37469 0.61639 0.0
Li1409 Li 0.36793 0.36595 0.58693 0.0
Li1410 Li 0.3218 0.34571 0.59904 0.0
Li1411 Li 0.35031 0.32688 0.60959 0.0
C1412 C 0.34074 0.40451 0.59958 0.0
N1413 N 0.32356 0.4422 0.60783 0.0
C1414 C 0.35189 0.43007 0.59103 0.0
C1415 C 0.32097 0.3982 0.61237 0.0
C1416 C 0.34292 0.44884 0.59538 0.0
C1417 C 0.31248 0.41747 0.61633 0.0
C1418 C 0.41155 0.38105 0.61522 0.0
C1419 C 0.44394 0.39372 0.63848 0.0
N1420 N 0.45939 0.41981 0.63178 0.0
C1421 C 0.4278 0.40794 0.60853 0.0
C1422 C 0.41971 0.3738 0.63027 0.0
C1423 C 0.45191 0.42724 0.6171 0.0
C1424 C 0.37529 0.39216 0.65024 0.0
N1425 N 0.37645 0.40135 0.6341 0.0
C1426 C 0.40344 0.44884 0.64294 0.0
C1427 C 0.39005 0.42904 0.63026 0.0
C1428 C 0.40302 0.44005 0.65972 0.0
C1429 C 0.38849 0.41128 0.66335 0.0
H1430 H 0.36476 0.36995 0.65283 0.0
H1431 H 0.39145 0.43574 0.61725 0.0
C1432 C 0.38403 0.39985 0.55835 0.0
N1433 N 0.39086 0.38356 0.56778 0.0
C1434 C 0.40245 0.41784 0.54608 0.0
C1435 C 0.43394 0.40074 0.55274 0.0
C1436 C 0.41497 0.38323 0.56505 0.0
C1437 C 0.42815 0.41897 0.54335 0.0
H1438 H 0.36479 0.39979 0.56093 0.0
H1439 H 0.42 0.37028 0.57291 0.0
C1440 C 0.308 0.32534 0.63427 0.0
N1441 N 0.26677 0.2967 0.65823 0.0
C1442 C 0.29337 0.29609 0.63454 0.0
C1443 C 0.30187 0.33999 0.64637 0.0
C1444 C 0.27255 0.28201 0.6467 0.0
C1445 C 0.28088 0.32513 0.65832 0.0
C1446 C 0.31438 0.31023 0.57569 0.0
C1447 C 0.29428 0.28318 0.58058 0.0
C1448 C 0.31048 0.32189 0.56094 0.0
C1449 C 0.27041 0.26825 0.57062 0.0
C1450 C 0.28632 0.30628 0.55133 0.0
N1451 N 0.26695 0.28002 0.55634 0.0
C1452 C 0.27927 0.35437 0.5848 0.0
C1453 C 0.26258 0.31351 0.60156 0.0
C1454 C 0.25275 0.35164 0.58458 0.0
N1455 N 0.284 0.3364 0.59413 0.0
C1456 C 0.23578 0.30991 0.60166 0.0
C1457 C 0.23091 0.32995 0.59383 0.0
H1458 H 0.2964 0.37181 0.57837 0.0
H1459 H 0.26644 0.29867 0.60808 0.0
C1460 C 0.35434 0.29834 0.63681 0.0
N1461 N 0.3507 0.29594 0.61974 0.0
C1462 C 0.35073 0.27566 0.64648 0.0
C1463 C 0.34109 0.24867 0.62072 0.0
C1464 C 0.34462 0.27194 0.6115 0.0
C1465 C 0.34348 0.25025 0.63849 0.0
H1466 H 0.35878 0.31759 0.64301 0.0
H1467 H 0.34151 0.27053 0.59792 0.0
O1468 O 0.3496 0.38607 0.59558 0.0
O1469 O 0.38738 0.36218 0.6073 0.0
O1470 O 0.32902 0.33957 0.62274 0.0
O1471 O 0.33751 0.32547 0.58548 0.0
H1472 H 0.36745 0.43546 0.58121 0.0
H1473 H 0.31202 0.37851 0.61902 0.0
H1474 H 0.3514 0.46871 0.58888 0.0
H1475 H 0.29707 0.41275 0.62615 0.0
H1476 H 0.45043 0.38846 0.65019 0.0
H1477 H 0.42158 0.41402 0.59701 0.0
H1478 H 0.40738 0.3531 0.63563 0.0
H1479 H 0.46457 0.44819 0.61213 0.0
H1480 H 0.415 0.47076 0.6395 0.0
H1481 H 0.38768 0.40363 0.67611 0.0
H1482 H 0.39708 0.43167 0.53943 0.0
H1483 H 0.45321 0.40045 0.55092 0.0
H1484 H 0.2977 0.28434 0.62527 0.0
H1485 H 0.31331 0.3626 0.64665 0.0
H1486 H 0.26096 0.25939 0.64695 0.0
H1487 H 0.2759 0.33622 0.66772 0.0
H1488 H 0.29692 0.27397 0.59205 0.0
H1489 H 0.32583 0.34288 0.55706 0.0
H1490 H 0.25458 0.24734 0.57429 0.0
H1491 H 0.28293 0.31508 0.53993 0.0
H1492 H 0.24975 0.36715 0.57797 0.0
H1493 H 0.21965 0.29273 0.60889 0.0
H1494 H 0.35307 0.27781 0.66012 0.0
H1495 H 0.33538 0.22935 0.61412 0.0
Li1496 Li 0.65158 0.00208 0.60173 0.0
Li1497 Li 0.6328 0.02532 0.61795 0.0
Li1498 Li 0.63566 0.02856 0.5863 0.0
Li1499 Li 0.67846 0.05084 0.60448 0.0
C1500 C 0.59406 0.96853 0.6021 0.0
N1501 N 0.55534 0.91222 0.60447 0.0
C1502 C 0.59199 0.95381 0.61697 0.0
C1503 C 0.57638 0.95467 0.58846 0.0
C1504 C 0.57231 0.92532 0.61791 0.0
C1505 C 0.55694 0.92618 0.58991 0.0
C1506 C 0.67676 0.03617 0.63814 0.0
C1507 C 0.68858 0.0747 0.65716 0.0
N1508 N 0.69896 0.06353 0.6684 0.0
C1509 C 0.68747 0.02504 0.64992 0.0
C1510 C 0.67722 0.06118 0.64182 0.0
C1511 C 0.69861 0.03918 0.66513 0.0
C1512 C 0.6754 0.97067 0.61179 0.0
N1513 N 0.6548 0.96921 0.60171 0.0
C1514 C 0.63856 0.92106 0.59582 0.0
C1515 C 0.63718 0.94536 0.59323 0.0
C1516 C 0.65866 0.92161 0.60695 0.0
C1517 C 0.67778 0.94704 0.61457 0.0
H1518 H 0.68948 0.99005 0.6181 0.0
H1519 H 0.62152 0.9449 0.58485 0.0
C1520 C 0.59716 0.03842 0.63585 0.0
N1521 N 0.61072 0.02365 0.63669 0.0
C1522 C 0.57997 0.03719 0.64917 0.0
C1523 C 0.59128 0.00576 0.664 0.0
C1524 C 0.60843 0.00778 0.65045 0.0
C1525 C 0.57661 0.02041 0.66338 0.0
H1526 H 0.59937 0.05079 0.6247 0.0
H1527 H 0.61973 0.99649 0.65084 0.0
C1528 C 0.67927 0.01329 0.5739 0.0
N1529 N 0.69361 0.97916 0.55621 0.0
C1530 C 0.70549 0.01581 0.57625 0.0
C1531 C 0.66039 0.99354 0.56249 0.0
C1532 C 0.71232 0.99831 0.56721 0.0
C1533 C 0.66804 0.97646 0.55367 0.0
C1534 C 0.65497 0.08438 0.59559 0.0
C1535 C 0.66816 0.09014 0.57977 0.0
C1536 C 0.64983 0.10416 0.60325 0.0
C1537 C 0.676 0.11569 0.57187 0.0
C1538 C 0.65802 0.12948 0.59495 0.0
N1539 N 0.67082 0.13467 0.57956 0.0
C1540 C 0.58879 0.02443 0.57154 0.0
C1541 C 0.62354 0.03249 0.55112 0.0
C1542 C 0.56995 0.02129 0.55883 0.0
N1543 N 0.61478 0.02944 0.56749 0.0
C1544 C 0.60532 0.02957 0.53794 0.0
C1545 C 0.57792 0.02334 0.54174 0.0
H1546 H 0.58248 0.02209 0.5847 0.0
H1547 H 0.64434 0.0364 0.54828 0.0
C1548 C 0.7323 0.07073 0.61514 0.0
N1549 N 0.71552 0.0803 0.60923 0.0
C1550 C 0.75684 0.08852 0.6238 0.0
C1551 C 0.74786 0.12648 0.61878 0.0
C1552 C 0.72312 0.10776 0.61048 0.0
C1553 C 0.76454 0.1167 0.62624 0.0
H1554 H 0.72537 0.04865 0.61441 0.0
H1555 H 0.70934 0.11495 0.60605 0.0
O1556 O 0.61334 0.99634 0.60083 0.0
O1557 O 0.66626 0.02267 0.62305 0.0
O1558 O 0.67195 0.02979 0.58289 0.0
O1559 O 0.64694 0.05949 0.60358 0.0
H1560 H 0.6058 0.96415 0.62753 0.0
H1561 H 0.57782 0.96577 0.57684 0.0
H1562 H 0.57061 0.91361 0.62929 0.0
H1563 H 0.54317 0.91515 0.57944 0.0
H1564 H 0.68917 0.09411 0.66012 0.0
H1565 H 0.68723 0.00569 0.64732 0.0
H1566 H 0.66907 0.07021 0.63294 0.0
H1567 H 0.70702 0.03082 0.67433 0.0
H1568 H 0.62369 0.9019 0.58953 0.0
H1569 H 0.69348 0.94833 0.62333 0.0
H1570 H 0.5687 0.04849 0.64809 0.0
H1571 H 0.58937 0.99276 0.67479 0.0
H1572 H 0.72034 0.03101 0.58502 0.0
H1573 H 0.63987 0.99106 0.56071 0.0
H1574 H 0.73249 -7e-05 0.56896 0.0
H1575 H 0.65357 0.96095 0.54489 0.0
H1576 H 0.67242 0.07517 0.57365 0.0
H1577 H 0.63968 0.10002 0.6155 0.0
H1578 H 0.68623 0.12044 0.55964 0.0
H1579 H 0.65421 0.14501 0.60074 0.0
H1580 H 0.54923 0.01701 0.56235 0.0
H1581 H 0.61228 0.03118 0.52494 0.0
H1582 H 0.76849 0.07967 0.6295 0.0
H1583 H 0.75315 0.1481 0.61996 0.0
H1584 H 0.44956 0.97467 0.0501 0.0
H1585 H 0.54632 0.00878 0.96769 0.0
H1586 H 0.46973 0.04386 0.01638 0.0
H1587 H 0.53107 0.94354 0.00356 0.0
H1588 H 0.51669 0.02069 0.98465 0.0
H1589 H 0.47855 0.96232 0.03286 0.0
C1590 C 0.4602 0.98734 0.03911 0.0
C1591 C 0.45728 0.01038 0.03471 0.0
C1592 C 0.51976 0.00372 0.98879 0.0
C1593 C 0.4904 0.99628 0.01483 0.0
C1594 C 0.53646 0.99673 0.97902 0.0
C1595 C 0.54124 0.97516 0.98422 0.0
C1596 C 0.50765 0.98897 0.00386 0.0
C1597 C 0.52825 0.96054 0.99917 0.0
C1598 C 0.47677 0.9803 0.02927 0.0
C1599 C 0.47172 0.02618 0.02039 0.0
N1600 N 0.51211 0.96774 0.00846 0.0
N1601 N 0.48753 0.01876 0.01093 0.0
H1602 H 0.02313 0.44757 0.02203 0.0
H1603 H 0.99102 0.57059 0.00216 0.0
H1604 H 0.95835 0.45564 0.04738 0.0
H1605 H 0.03738 0.54784 0.96806 0.0
H1606 H 0.98271 0.53163 0.02065 0.0
H1607 H 0.03284 0.48764 0.00413 0.0
C1608 C 0.01119 0.45802 0.02398 0.0
C1609 C 0.98997 0.44835 0.03627 0.0
C1610 C 0.99469 0.53512 0.00913 0.0
C1611 C 0.0008 0.49402 0.0157 0.0
C1612 C -0.00043 0.55744 0.99862 0.0
C1613 C 0.01506 0.56252 0.98361 0.0
C1614 C 0.00557 0.51785 0.00471 0.0
C1615 C 0.02525 0.54456 0.97949 0.0
C1616 C 0.01657 0.48071 0.01364 0.0
C1617 C 0.97481 0.46236 0.03802 0.0
N1618 N 0.02047 0.52308 0.99005 0.0
N1619 N 0.98057 0.48454 0.02787 0.0
H1620 H 0.46257 0.41927 0.97995 0.0
H1621 H 0.54863 0.57065 0.02121 0.0
H1622 H 0.43582 0.48043 0.97655 0.0
H1623 H 0.55571 0.49993 0.038 0.0
H1624 H 0.51034 0.5397 0.00263 0.0
H1625 H 0.50069 0.45079 0.99847 0.0
C1626 C 0.46465 0.43931 0.98308 0.0
C1627 C 0.44564 0.44699 0.9768 0.0
C1628 C 0.5202 0.53097 0.01045 0.0
C1629 C 0.48966 0.4834 0.99787 0.0
C1630 C 0.54194 0.54858 0.02124 0.0
C1631 C 0.5555 0.53797 0.03135 0.0
C1632 C 0.51212 0.50256 0.00954 0.0
C1633 C 0.54624 0.50922 0.03033 0.0
C1634 C 0.48649 0.45731 0.99366 0.0
C1635 C 0.45001 0.47363 0.98096 0.0
N1636 N 0.52526 0.49259 0.01956 0.0
N1637 N 0.47152 0.49084 0.99127 0.0
H1638 H 0.13864 0.32331 0.38576 0.0
H1639 H 0.23223 0.36183 0.30325 0.0
H1640 H 0.14691 0.38826 0.35151 0.0
H1641 H 0.18353 0.27666 0.32128 0.0
H1642 H 0.20769 0.37561 0.32328 0.0
H1643 H 0.1629 0.31011 0.36509 0.0
C1644 C 0.14557 0.33492 0.37399 0.0
C1645 C 0.1404 0.35691 0.37045 0.0
C1646 C 0.20239 0.35391 0.32275 0.0
C1647 C 0.16881 0.34214 0.34692 0.0
C1648 C 0.21617 0.34586 0.31117 0.0
C1649 C 0.21015 0.31791 0.31046 0.0
C1650 C 0.18287 0.33408 0.33398 0.0
C1651 C 0.1895 0.29853 0.32152 0.0
C1652 C 0.15946 0.32733 0.36222 0.0
C1653 C 0.15069 0.37152 0.35507 0.0
N1654 N 0.17686 0.30704 0.33293 0.0
N1655 N 0.16442 0.3639 0.3439 0.0
H1656 H 0.6787 0.81321 0.39213 0.0
H1657 H 0.64375 0.85903 0.30317 0.0
H1658 H 0.6155 0.75546 0.3577 0.0
H1659 H 0.71363 0.91407 0.33472 0.0
H1660 H 0.63208 0.82105 0.32332 0.0
H1661 H 0.69007 0.85103 0.37192 0.0
C1662 C 0.66709 0.80849 0.38038 0.0
C1663 C 0.64606 0.78107 0.37667 0.0
C1664 C 0.65003 0.84143 0.3258 0.0
C1665 C 0.65902 0.82431 0.35341 0.0
C1666 C 0.65686 0.86307 0.31421 0.0
C1667 C 0.67967 0.88987 0.31725 0.0
C1668 C 0.66605 0.84658 0.34058 0.0
C1669 C 0.6956 0.89391 0.33196 0.0
C1670 C 0.6736 0.8301 0.36883 0.0
C1671 C 0.63154 0.7763 0.36128 0.0
N1672 N 0.68843 0.87257 0.34309 0.0
N1673 N 0.63835 0.79766 0.35021 0.0
H1674 H 0.13802 0.82257 0.2866 0.0
H1675 H 0.21298 0.83355 0.37543 0.0
H1676 H 0.10906 0.75401 0.32215 0.0
H1677 H 0.22948 0.9051 0.34487 0.0
H1678 H 0.17688 0.80325 0.35514 0.0
H1679 H 0.17388 0.85254 0.30695 0.0
C1680 C 0.13913 0.81378 0.29866 0.0
C1681 C 0.12045 0.78563 0.30258 0.0
C1682 C 0.18831 0.82561 0.35294 0.0
C1683 C 0.16169 0.81981 0.32591 0.0
C1684 C 0.20891 0.84286 0.3645 0.0
C1685 C 0.22405 0.87188 0.36192 0.0
C1686 C 0.18307 0.83745 0.3386 0.0
C1687 C 0.21795 0.88288 0.34753 0.0
C1688 C 0.15968 0.8309 0.31026 0.0
C1689 C 0.12326 0.77539 0.31837 0.0
N1690 N 0.19804 0.86567 0.3364 0.0
N1691 N 0.14346 0.79244 0.32942 0.0
H1692 H 0.83437 0.62069 0.63297 0.0
H1693 H 0.82417 0.70866 0.7105 0.0
H1694 H 0.90395 0.67259 0.66553 0.0
H1695 H 0.75197 0.63978 0.68721 0.0
H1696 H 0.85434 0.69915 0.69224 0.0
H1697 H 0.80425 0.63118 0.6507 0.0
C1698 C 0.8433 0.6344 0.64378 0.0
C1699 C 0.87159 0.64561 0.64788 0.0
C1700 C 0.83188 0.68605 0.69118 0.0
C1701 C 0.83745 0.65772 0.66815 0.0
C1702 C 0.8147 0.69151 0.70157 0.0
C1703 C 0.78556 0.67485 0.70046 0.0
C1704 C 0.81983 0.66402 0.67943 0.0
C1705 C 0.77435 0.65286 0.68867 0.0
C1706 C 0.82612 0.64025 0.65395 0.0
C1707 C 0.88213 0.66319 0.66207 0.0
N1708 N 0.79149 0.64816 0.67856 0.0
N1709 N 0.86509 0.66873 0.67167 0.0
H1710 H 0.36175 0.2128 0.63368 0.0
H1711 H 0.27645 0.11567 0.71237 0.0
H1712 H 0.31089 0.23111 0.66683 0.0
H1713 H 0.34534 0.113 0.68854 0.0
H1714 H 0.28517 0.15506 0.69395 0.0
H1715 H 0.35207 0.17268 0.65172 0.0
C1716 C 0.34845 0.20827 0.6447 0.0
C1717 C 0.33727 0.22537 0.64886 0.0
C1718 C 0.29844 0.14591 0.69282 0.0
C1719 C 0.32608 0.17965 0.66947 0.0
C1720 C 0.29343 0.12343 0.70329 0.0
C1721 C 0.31034 0.11123 0.70208 0.0
C1722 C 0.32024 0.15595 0.68087 0.0
C1723 C 0.33208 0.12208 0.69009 0.0
C1724 C 0.34307 0.18552 0.65503 0.0
C1725 C 0.32024 0.21867 0.66332 0.0
N1726 N 0.33632 0.14372 0.67991 0.0
N1727 N 0.31511 0.19631 0.67308 0.0
H1728 H 0.81366 0.11618 0.63175 0.0
H1729 H 0.88138 0.24488 0.69439 0.0
H1730 H 0.76939 0.15844 0.6475 0.0
H1731 H 0.89682 0.17576 0.69933 0.0
H1732 H 0.84458 0.21774 0.67403 0.0
H1733 H 0.84947 0.14274 0.65293 0.0
C1734 C 0.81135 0.13097 0.63958 0.0
C1735 C 0.78816 0.13481 0.63777 0.0
C1736 C 0.85598 0.20854 0.67968 0.0
C1737 C 0.82962 0.16575 0.66178 0.0
C1738 C 0.87688 0.22389 0.69149 0.0
C1739 C 0.89242 0.2127 0.69881 0.0
C1740 C 0.85088 0.18202 0.67478 0.0
C1741 C 0.8859 0.1856 0.69391 0.0
C1742 C 0.83189 0.14615 0.65165 0.0
C1743 C 0.78696 0.15495 0.6481 0.0
N1744 N 0.86583 0.17131 0.6821 0.0
N1745 N 0.80741 0.16969 0.6596 0.0
H1746 H 0.34707 0.10651 0.15539 0.0
H1747 H 0.30917 0.22468 0.17896 0.0
H1748 H 0.33117 0.15403 0.11797 0.0
H1749 H 0.34386 0.19124 0.21481 0.0
H1750 H 0.31293 0.19572 0.15677 0.0
H1751 H 0.34298 0.13502 0.17766 0.0
C1752 C 0.34294 0.12304 0.15181 0.0
C1753 C 0.33934 0.1277 0.13472 0.0
C1754 C 0.31972 0.19473 0.1695 0.0
C1755 C 0.33408 0.16009 0.16023 0.0
C1756 C 0.31737 0.21109 0.18218 0.0
C1757 C 0.32634 0.21047 0.19872 0.0
C1758 C 0.33084 0.17741 0.17343 0.0
C1759 C 0.33704 0.19265 0.20217 0.0
C1760 C 0.34042 0.13919 0.16456 0.0
C1761 C 0.33357 0.14921 0.13095 0.0
N1762 N 0.33897 0.17682 0.18965 0.0
N1763 N 0.33101 0.16449 0.14358 0.0
H1764 H 0.84635 0.22515 0.14325 0.0
H1765 H 0.7979 0.07147 0.17916 0.0
H1766 H 0.87791 0.17287 0.12447 0.0
H1767 H 0.76147 0.12113 0.1948 0.0
H1768 H 0.82879 0.1091 0.15982 0.0
H1769 H 0.81679 0.18816 0.16331 0.0
C1770 C 0.84723 0.20599 0.14344 0.0
C1771 C 0.8645 0.20205 0.13209 0.0
C1772 C 0.81395 0.11171 0.16745 0.0
C1773 C 0.83056 0.15951 0.15489 0.0
C1774 C 0.79637 0.09025 0.17851 0.0
C1775 C 0.77689 0.09302 0.18852 0.0
C1776 C 0.81222 0.13623 0.16647 0.0
C1777 C 0.77576 0.11781 0.18709 0.0
C1778 C 0.83021 0.1848 0.1548 0.0
C1779 C 0.86459 0.17665 0.1328 0.0
N1780 N 0.79318 0.13843 0.17632 0.0
N1781 N 0.84787 0.15637 0.14397 0.0
H1782 H 0.86617 0.66043 0.2038 0.0
H1783 H 0.83147 0.69235 0.11117 0.0
H1784 H 0.92957 0.70386 0.16574 0.0
H1785 H 0.7695 0.62821 0.14364 0.0
H1786 H 0.86744 0.69971 0.1317 0.0
H1787 H 0.83023 0.65171 0.18276 0.0
C1788 C 0.87251 0.66829 0.19102 0.0
C1789 C 0.90089 0.6831 0.18651 0.0
C1790 C 0.84598 0.68395 0.13429 0.0
C1791 C 0.85986 0.67307 0.16236 0.0
C1792 C 0.82536 0.67955 0.1225 0.0
C1793 C 0.79724 0.65944 0.12555 0.0
C1794 C 0.83853 0.66842 0.14939 0.0
C1795 C 0.79074 0.64417 0.14078 0.0
C1796 C 0.85198 0.66312 0.17899 0.0
C1797 C 0.90792 0.69234 0.16971 0.0
N1798 N 0.81119 0.64905 0.15213 0.0
N1799 N 0.88754 0.68734 0.15825 0.0
H1800 H 0.69986 0.88738 0.8721 0.0
H1801 H 0.61868 0.76145 0.80664 0.0
H1802 H 0.61061 0.84489 0.86452 0.0
H1803 H 0.70782 0.80318 0.81447 0.0
H1804 H 0.61517 0.79068 0.82857 0.0
H1805 H 0.70309 0.85605 0.85159 0.0
C1806 C 0.68094 0.87159 0.86603 0.0
C1807 C 0.65492 0.86894 0.86996 0.0
C1808 C 0.6355 0.7934 0.82556 0.0
C1809 C 0.65846 0.83265 0.8466 0.0
C1810 C 0.63753 0.77677 0.81299 0.0
C1811 C 0.66363 0.78003 0.8086 0.0
C1812 C 0.65974 0.81358 0.83382 0.0
C1813 C 0.68727 0.79984 0.8175 0.0
C1814 C 0.68279 0.85355 0.85441 0.0
C1815 C 0.63107 0.84763 0.86197 0.0
N1816 N 0.68478 0.816 0.8296 0.0
N1817 N 0.63343 0.83039 0.85064 0.0
H1818 H 0.07971 0.76797 0.84424 0.0
H1819 H 0.23766 0.87737 0.81969 0.0
H1820 H 0.1497 0.78424 0.87619 0.0
H1821 H 0.16722 0.87912 0.79754 0.0
H1822 H 0.20584 0.84051 0.83913 0.0
H1823 H 0.11157 0.80568 0.82541 0.0
C1824 C 0.10172 0.77943 0.84735 0.0
C1825 C 0.1119 0.77282 0.86194 0.0
C1826 C 0.19736 0.84908 0.8301 0.0
C1827 C 0.14859 0.81587 0.8402 0.0
C1828 C 0.21548 0.87007 0.819 0.0
C1829 C 0.20503 0.8813 0.80702 0.0
C1830 C 0.1685 0.83894 0.82905 0.0
C1831 C 0.17615 0.8712 0.8067 0.0
C1832 C 0.11991 0.80094 0.83655 0.0
C1833 C 0.14082 0.78814 0.86501 0.0
N1834 N 0.15884 0.85041 0.81746 0.0
N1835 N 0.1581 0.80889 0.85425 0.0
H1836 H 0.21353 0.37898 0.87567 0.0
H1837 H 0.14358 0.30761 0.78713 0.0
H1838 H 0.23453 0.32438 0.84822 0.0
H1839 H 0.11306 0.35002 0.819 0.0
H1840 H 0.17903 0.31596 0.80846 0.0
H1841 H 0.17881 0.37126 0.85404 0.0
C1842 C 0.21089 0.36537 0.8651 0.0
C1843 C 0.227 0.35224 0.86385 0.0
C1844 C 0.16452 0.32336 0.81082 0.0
C1845 C 0.1873 0.34348 0.83891 0.0
C1846 C 0.14434 0.31867 0.79862 0.0
C1847 C 0.1253 0.32812 0.80129 0.0
C1848 C 0.16589 0.33781 0.82575 0.0
C1849 C 0.12708 0.34208 0.8165 0.0
C1850 C 0.19107 0.36102 0.85273 0.0
C1851 C 0.22292 0.33525 0.84965 0.0
N1852 N 0.14708 0.34661 0.82812 0.0
N1853 N 0.20346 0.33132 0.83778 0.0
H1854 H 0.96424 0.41608 0.48543 0.0
H1855 H 0.00843 0.57187 0.51167 0.0
H1856 H 0.03952 0.48776 0.46703 0.0
H1857 H 0.95754 0.50104 0.54403 0.0
H1858 H 0.01561 0.54101 0.4928 0.0
H1859 H 0.95725 0.44663 0.50492 0.0
C1860 C 0.97936 0.43824 0.4856 0.0
C1861 C 0.00255 0.44946 0.4747 0.0
C1862 C 0.00286 0.5323 0.50404 0.0
C1863 C 0.99443 0.48449 0.49664 0.0
C1864 C 0.99876 0.5499 0.51488 0.0
C1865 C 0.98245 0.53922 0.52962 0.0
C1866 C 0.99024 0.50367 0.50778 0.0
C1867 C 0.96992 0.51032 0.53274 0.0
C1868 C 0.97539 0.45562 0.4967 0.0
C1869 C 0.02155 0.47828 0.47538 0.0
N1870 N 0.97405 0.49358 0.52192 0.0
N1871 N 0.01694 0.49488 0.48605 0.0
H1872 H 0.51078 0.55262 0.47012 0.0
H1873 H 0.48546 0.44802 0.54658 0.0
H1874 H 0.57652 0.54057 0.49032 0.0
H1875 H 0.41937 0.43913 0.51335 0.0
H1876 H 0.51943 0.48503 0.52818 0.0
H1877 H 0.47724 0.51509 0.48857 0.0
C1878 C 0.51819 0.54229 0.4786 0.0
C1879 C 0.54646 0.54973 0.47874 0.0
C1880 C 0.49748 0.47485 0.52492 0.0
C1881 C 0.50821 0.50668 0.49976 0.0
C1882 C 0.47801 0.4535 0.53534 0.0
C1883 C 0.44931 0.44026 0.53161 0.0
C1884 C 0.48826 0.4834 0.51076 0.0
C1885 C 0.44111 0.44896 0.517 0.0
C1886 C 0.49901 0.5207 0.48899 0.0
C1887 C 0.55487 0.53536 0.48978 0.0
N1888 N 0.46044 0.47006 0.50721 0.0
N1889 N 0.53584 0.51458 0.49991 0.0
H1890 H 0.58622 0.05171 0.51167 0.0
H1891 H 0.42801 0.95614 0.48031 0.0
H1892 H 0.52274 0.98273 0.54061 0.0
H1893 H 0.48983 0.02907 0.45329 0.0
H1894 H 0.46274 0.96477 0.50219 0.0
H1895 H 0.55166 0.0426 0.48955 0.0
C1896 C 0.56506 0.03459 0.51334 0.0
C1897 C 0.55736 0.01808 0.52807 0.0
C1898 C 0.46871 0.97886 0.49145 0.0
C1899 C 0.51763 0.00759 0.50284 0.0
C1900 C 0.44883 0.97402 0.47899 0.0
C1901 C 0.45597 0.99183 0.46487 0.0
C1902 C 0.49597 0.00169 0.48982 0.0
C1903 C 0.48344 0.01447 0.46377 0.0
C1904 C 0.54529 0.02947 0.50075 0.0
C1905 C 0.52953 0.99631 0.52961 0.0
N1906 N 0.50239 0.01874 0.47605 0.0
N1907 N 0.51072 0.9917 0.51717 0.0
H1908 H 0.21087 0.87559 0.06076 0.0
H1909 H 0.0808 0.82466 0.99794 0.0
H1910 H 0.19163 0.9309 0.0327 0.0
H1911 H 0.11252 0.7715 0.01499 0.0
H1912 H 0.11456 0.86188 0.01624 0.0
H1913 H 0.16803 0.83543 0.04969 0.0
C1914 C 0.19731 0.87922 0.05253 0.0
C1915 C 0.20479 0.9064 0.04741 0.0
C1916 C 0.1139 0.84194 0.01612 0.0
C1917 C 0.15615 0.86096 0.03477 0.0
C1918 C 0.09471 0.82073 0.00564 0.0
C1919 C 0.09412 0.79507 0.00473 0.0
C1920 C 0.13268 0.83751 0.02577 0.0
C1921 C 0.11218 0.79091 0.01531 0.0
C1922 C 0.17303 0.85639 0.04616 0.0
C1923 C 0.18669 0.91015 0.03671 0.0
N1924 N 0.13096 0.81205 0.02525 0.0
N1925 N 0.1633 0.88767 0.03065 0.0
H1926 H 0.1102 0.318 0.06611 0.0
H1927 H 0.1691 0.26073 0.99359 0.0
H1928 H 0.05922 0.25479 0.02966 0.0
H1929 H 0.22127 0.33349 0.02396 0.0
H1930 H 0.12934 0.25116 0.01147 0.0
H1931 H 0.15134 0.31679 0.05548 0.0
C1932 C 0.10764 0.30346 0.05612 0.0
C1933 C 0.08151 0.28678 0.04853 0.0
C1934 C 0.14955 0.26903 0.01437 0.0
C1935 C 0.12815 0.28538 0.0363 0.0
C1936 C 0.17236 0.27441 0.00423 0.0
C1937 C 0.19851 0.29819 0.00713 0.0
C1938 C 0.15283 0.28763 0.02746 0.0
C1939 C 0.20133 0.31528 0.02104 0.0
C1940 C 0.13107 0.30288 0.05 0.0
C1941 C 0.07917 0.26833 0.03562 0.0
N1942 N 0.17867 0.30985 0.03057 0.0
N1943 N 0.10225 0.26832 0.02979 0.0
H1944 H 0.73071 0.81144 0.06326 0.0
H1945 H 0.64521 0.87911 0.02414 0.0
H1946 H 0.64075 0.77106 0.06263 0.0
H1947 H 0.73353 0.91197 0.01651 0.0
H1948 H 0.64482 0.84588 0.04474 0.0
H1949 H 0.7333 0.85446 0.05294 0.0
C1950 C 0.71151 0.81186 0.06139 0.0
C1951 C 0.68546 0.78758 0.06356 0.0
C1952 C 0.66439 0.86066 0.03877 0.0
C1953 C 0.68827 0.83648 0.05149 0.0
C1954 C 0.66467 0.87978 0.02709 0.0
C1955 C 0.6894 0.89812 0.01846 0.0
C1956 C 0.68899 0.85983 0.04182 0.0
C1957 C 0.71392 0.89782 0.02265 0.0
C1958 C 0.713 0.83634 0.05537 0.0
C1959 C 0.66125 0.78922 0.06082 0.0
N1960 N 0.71304 0.87874 0.0339 0.0
N1961 N 0.66323 0.81314 0.05471 0.0
H1962 H 0.74935 0.13585 0.93407 0.0
H1963 H 0.90293 0.21637 0.97329 0.0
H1964 H 0.80404 0.10115 0.93698 0.0
H1965 H 0.83632 0.23157 0.98737 0.0
H1966 H 0.87239 0.18316 0.95167 0.0
H1967 H 0.78707 0.18004 0.94509 0.0
C1968 C 0.76939 0.13762 0.93673 0.0
C1969 C 0.77323 0.11445 0.93501 0.0
C1970 C 0.86471 0.19423 0.95927 0.0
C1971 C 0.81649 0.16504 0.94736 0.0
C1972 C 0.8821 0.21318 0.97152 0.0
C1973 C 0.87186 0.22631 0.98217 0.0
C1974 C 0.83712 0.18875 0.95762 0.0
C1975 C 0.84474 0.22148 0.9795 0.0
C1976 C 0.7909 0.16287 0.94296 0.0
C1977 C 0.79997 0.11831 0.93815 0.0
N1978 N 0.82819 0.20289 0.96756 0.0
N1979 N 0.82046 0.14299 0.94443 0.0
H1980 H 0.78751 0.70448 0.97059 0.0
H1981 H 0.84773 0.61302 0.93023 0.0
H1982 H 0.75261 0.61584 0.97889 0.0
H1983 H 0.8921 0.70328 0.93124 0.0
H1984 H 0.80625 0.61282 0.94119 0.0
H1985 H 0.81941 0.70317 0.94961 0.0
C1986 C 0.78632 0.68469 0.96788 0.0
C1987 C 0.76766 0.66034 0.97677 0.0
C1988 C 0.82493 0.63266 0.93871 0.0
C1989 C 0.80391 0.65867 0.95266 0.0
C1990 C 0.84863 0.63279 0.93248 0.0
C1991 C 0.87363 0.65819 0.93013 0.0
C1992 C 0.82627 0.65809 0.94264 0.0
C1993 C 0.87335 0.68318 0.93286 0.0
C1994 C 0.80443 0.68394 0.95584 0.0
C1995 C 0.76655 0.63516 0.97238 0.0
N1996 N 0.8502 0.6825 0.93923 0.0
N1997 N 0.78469 0.63506 0.96081 0.0
H1998 H 0.35764 0.22722 0.93013 0.0
H1999 H 0.28599 0.08668 0.98244 0.0
H2000 H 0.26827 0.17353 0.9341 0.0
H2001 H 0.37455 0.13321 0.97194 0.0
H2002 H 0.27864 0.11414 0.9611 0.0
H2003 H 0.3639 0.1895 0.94121 0.0
C2004 C 0.33927 0.20726 0.93289 0.0
C2005 C 0.31237 0.20374 0.93149 0.0
C2006 C 0.29966 0.1181 0.96326 0.0
C2007 C 0.31946 0.16067 0.94464 0.0
C2008 C 0.30389 0.10226 0.97542 0.0
C2009 C 0.33103 0.10787 0.97925 0.0
C2010 C 0.32274 0.14004 0.95499 0.0
C2011 C 0.35334 0.12864 0.96979 0.0
C2012 C 0.34289 0.18575 0.93937 0.0
C2013 C 0.28942 0.17742 0.93541 0.0
N2014 N 0.34875 0.14425 0.95829 0.0
N2015 N 0.2935 0.15707 0.9421 0.0
H2016 H 0.86679 0.22826 0.39302 0.0
H2017 H 0.82308 0.12741 0.31319 0.0
H2018 H 0.92495 0.21887 0.36112 0.0
H2019 H 0.76259 0.12294 0.34947 0.0
H2020 H 0.86055 0.15941 0.33184 0.0
H2021 H 0.82809 0.18764 0.37902 0.0
C2022 C 0.8714 0.21727 0.38333 0.0
C2023 C 0.89899 0.22709 0.378 0.0
C2024 C 0.83913 0.15138 0.33585 0.0
C2025 C 0.85512 0.18117 0.36186 0.0
C2026 C 0.81777 0.13329 0.32514 0.0
C2027 C 0.78983 0.12299 0.32973 0.0
C2028 C 0.83258 0.15958 0.35124 0.0
C2029 C 0.78397 0.13067 0.34549 0.0
C2030 C 0.84935 0.19424 0.37529 0.0
C2031 C 0.90391 0.21227 0.36536 0.0
N2032 N 0.80523 0.14887 0.35563 0.0
N2033 N 0.88219 0.19029 0.35759 0.0
H2034 H 0.8522 0.67383 0.30403 0.0
H2035 H 0.78501 0.6521 0.39512 0.0
H2036 H 0.89975 0.67759 0.34844 0.0
H2037 H 0.76424 0.68859 0.35314 0.0
H2038 H 0.82541 0.65729 0.37889 0.0
H2039 H 0.81691 0.67391 0.32224 0.0
C2040 C 0.85549 0.67502 0.31761 0.0
C2041 C 0.87937 0.67616 0.32463 0.0
C2042 C 0.81206 0.66435 0.37338 0.0
C2043 C 0.83826 0.67541 0.34567 0.0
C2044 C 0.78913 0.66151 0.38262 0.0
C2045 C 0.77092 0.66938 0.37531 0.0
C2046 C 0.81645 0.67488 0.35675 0.0
C2047 C 0.77722 0.68145 0.35908 0.0
C2048 C 0.83516 0.67491 0.32801 0.0
C2049 C 0.88166 0.67653 0.34242 0.0
N2050 N 0.79919 0.68348 0.35029 0.0
N2051 N 0.86128 0.67605 0.35237 0.0
H2052 H 0.29805 0.20473 0.35761 0.0
H2053 H 0.39169 0.1428 0.39247 0.0
H2054 H 0.38505 0.23799 0.34498 0.0
H2055 H 0.30158 0.09812 0.39331 0.0
H2056 H 0.3912 0.18432 0.38202 0.0
H2057 H 0.30096 0.17205 0.37727 0.0
C2058 C 0.31783 0.20534 0.35907 0.0
C2059 C 0.3412 0.22379 0.34936 0.0
C2060 C 0.37156 0.16558 0.38478 0.0
C2061 C 0.34472 0.18668 0.372 0.0
C2062 C 0.37182 0.14197 0.39087 0.0
C2063 C 0.34661 0.11696 0.39355 0.0
C2064 C 0.34591 0.16411 0.38142 0.0
C2065 C 0.32146 0.11692 0.39113 0.0
C2066 C 0.31949 0.18678 0.37036 0.0
C2067 C 0.36649 0.22418 0.35217 0.0
N2068 N 0.32172 0.14005 0.38503 0.0
N2069 N 0.36748 0.20565 0.36308 0.0
H2070 H 0.55537 0.51771 0.33974 0.0
H2071 H 0.43161 0.47281 0.27435 0.0
H2072 H 0.53021 0.5754 0.32139 0.0
H2073 H 0.47179 0.42435 0.28412 0.0
H2074 H 0.46931 0.51212 0.28967 0.0
H2075 H 0.52637 0.48426 0.31805 0.0
C2076 C 0.54375 0.5233 0.33106 0.0
C2077 C 0.54486 0.54913 0.33242 0.0
C2078 C 0.47014 0.49306 0.28816 0.0
C2079 C 0.51161 0.51104 0.30759 0.0
C2080 C 0.44863 0.47064 0.27944 0.0
C2081 C 0.44843 0.4452 0.27808 0.0
C2082 C 0.49132 0.48981 0.29576 0.0
C2083 C 0.47112 0.44359 0.28476 0.0
C2084 C 0.52737 0.50433 0.31861 0.0
C2085 C 0.52982 0.55563 0.32073 0.0
N2086 N 0.49139 0.46541 0.29353 0.0
N2087 N 0.51347 0.53652 0.30892 0.0
H2088 H 0.52257 0.94804 0.26634 0.0
H2089 H 0.4594 0.03613 0.30808 0.0
H2090 H 0.5666 0.03816 0.26983 0.0
H2091 H 0.42653 0.94775 0.31623 0.0
H2092 H 0.4924 0.03604 0.28748 0.0
H2093 H 0.48092 0.94682 0.27788 0.0
C2094 C 0.52341 0.96759 0.26931 0.0
C2095 C 0.54835 0.99321 0.26741 0.0
C2096 C 0.47766 0.0166 0.29361 0.0
C2097 C 0.50071 0.99193 0.28047 0.0
C2098 C 0.45892 0.01665 0.30544 0.0
C2099 C 0.44047 0.99201 0.31415 0.0
C2100 C 0.47794 0.99174 0.29045 0.0
C2101 C 0.44029 0.96725 0.30984 0.0
C2102 C 0.4996 0.96686 0.27584 0.0
C2103 C 0.54793 0.0179 0.27104 0.0
N2104 N 0.45899 0.96782 0.29844 0.0
N2105 N 0.52461 0.01662 0.27761 0.0
H2106 H 0.03272 0.55937 0.26375 0.0
H2107 H 0.96214 0.44651 0.33761 0.0
H2108 H 0.95059 0.53236 0.2841 0.0
H2109 H 0.04069 0.46658 0.31438 0.0
H2110 H 0.95613 0.47538 0.31648 0.0
H2111 H 0.03457 0.52277 0.2803 0.0
C2112 C 0.01493 0.54549 0.27151 0.0
C2113 C 0.99152 0.549 0.2726 0.0
C2114 C 0.9746 0.47334 0.31589 0.0
C2115 C 0.99356 0.50731 0.29164 0.0
C2116 C 0.97811 0.457 0.32802 0.0
C2117 C 0.00209 0.45443 0.32784 0.0
C2118 C 0.99535 0.48747 0.30355 0.0
C2119 C 0.02187 0.46801 0.31494 0.0
C2120 C 0.01597 0.5246 0.28093 0.0
C2121 C 0.96894 0.53028 0.28273 0.0
N2122 N 0.01821 0.4842 0.3034 0.0
N2123 N 0.97067 0.51048 0.292 0.0
H2124 H 0.40798 0.49133 0.66505 0.0
H2125 H 0.53449 0.53944 0.73025 0.0
H2126 H 0.43589 0.43628 0.68441 0.0
H2127 H 0.51819 0.59586 0.70111 0.0
H2128 H 0.49116 0.49994 0.7192 0.0
H2129 H 0.44104 0.52814 0.68384 0.0
C2130 C 0.42088 0.48691 0.67338 0.0
C2131 C 0.41952 0.46086 0.67295 0.0
C2132 C 0.49689 0.52101 0.71544 0.0
C2133 C 0.45729 0.50283 0.69453 0.0
C2134 C 0.52146 0.54348 0.72179 0.0
C2135 C 0.52996 0.57075 0.71634 0.0
C2136 C 0.48076 0.52603 0.7037 0.0
C2137 C 0.51249 0.57502 0.70536 0.0
C2138 C 0.43966 0.50788 0.68414 0.0
C2139 C 0.43623 0.45604 0.68432 0.0
N2140 N 0.48883 0.55287 0.69929 0.0
N2141 N 0.45471 0.47698 0.6945 0.0
H2142 H 0.56915 0.06072 0.67871 0.0
H2143 H 0.42144 0.95032 0.71557 0.0
H2144 H 0.53788 0.97179 0.67851 0.0
H2145 H 0.4608 0.03833 0.7268 0.0
H2146 H 0.46568 0.95757 0.70412 0.0
H2147 H 0.53159 0.0533 0.69822 0.0
C2148 C 0.55452 0.03967 0.68292 0.0
C2149 C 0.55641 0.0168 0.67686 0.0
C2150 C 0.46485 0.97527 0.70935 0.0
C2151 C 0.51342 0.00813 0.69908 0.0
C2152 C 0.43963 0.97111 0.71586 0.0
C2153 C 0.43758 0.99382 0.72197 0.0
C2154 C 0.48803 0.00244 0.70864 0.0
C2155 C 0.46165 0.02032 0.72219 0.0
C2156 C 0.53321 0.03545 0.69412 0.0
C2157 C 0.53722 0.99001 0.6829 0.0
N2158 N 0.48583 0.02402 0.71531 0.0
N2159 N 0.51628 0.98638 0.69348 0.0
H2160 H 0.06135 0.48101 0.72782 0.0
H2161 H 0.97127 0.54411 0.68879 0.0
H2162 H 0.9715 0.44021 0.73106 0.0
H2163 H 0.05601 0.56996 0.6742 0.0
H2164 H 0.97378 0.51386 0.71064 0.0
H2165 H 0.06212 0.52167 0.71494 0.0
C2166 C 0.04184 0.48092 0.72626 0.0
C2167 C 0.01628 0.4571 0.73032 0.0
C2168 C 0.99195 0.52648 0.70282 0.0
C2169 C 0.017 0.50329 0.71534 0.0
C2170 C 0.99058 0.54383 0.69043 0.0
C2171 C 0.01338 0.55926 0.67959 0.0
C2172 C 0.01635 0.52476 0.70442 0.0
C2173 C 0.03784 0.55802 0.68215 0.0
C2174 C 0.04228 0.50402 0.71876 0.0
C2175 C 0.9916 0.45801 0.72785 0.0
N2176 N 0.03861 0.54088 0.69423 0.0
N2177 N 0.99254 0.48061 0.72032 0.0
H2178 H 0.19942 0.90551 0.6475 0.0
H2179 H 0.13248 0.74858 0.61402 0.0
H2180 H 0.21894 0.84435 0.66716 0.0
H2181 H 0.09807 0.80176 0.6025 0.0
H2182 H 0.17156 0.78762 0.62816 0.0
H2183 H 0.16902 0.87148 0.62623 0.0
C2184 C 0.19758 0.88504 0.64717 0.0
C2185 C 0.21139 0.87753 0.65918 0.0
C2186 C 0.15567 0.79089 0.62235 0.0
C2187 C 0.1769 0.83873 0.63499 0.0
C2188 C 0.13345 0.76866 0.61407 0.0
C2189 C 0.11178 0.7718 0.60715 0.0
C2190 C 0.15626 0.81648 0.62382 0.0
C2191 C 0.11408 0.79828 0.60791 0.0
C2192 C 0.1802 0.86565 0.6351 0.0
C2193 C 0.20826 0.85077 0.65828 0.0
N2194 N 0.13578 0.81957 0.61629 0.0
N2195 N 0.19126 0.8323 0.64645 0.0
H2196 H 0.12518 0.37832 0.64434 0.0
H2197 H 0.1772 0.28548 0.59641 0.0
H2198 H 0.0869 0.28871 0.6495 0.0
H2199 H 0.22514 0.37547 0.60033 0.0
H2200 H 0.13745 0.28631 0.60939 0.0
H2201 H 0.15547 0.37727 0.62211 0.0
C2202 C 0.12295 0.3584 0.64071 0.0
C2203 C 0.10376 0.33363 0.64904 0.0
C2204 C 0.15652 0.30589 0.6071 0.0
C2205 C 0.13816 0.33228 0.62348 0.0
C2206 C 0.17924 0.30544 0.59971 0.0
C2207 C 0.20478 0.33038 0.59757 0.0
C2208 C 0.15937 0.33146 0.61239 0.0
C2209 C 0.20594 0.35569 0.60171 0.0
C2210 C 0.14013 0.35781 0.62795 0.0
C2211 C 0.1013 0.30834 0.64346 0.0
N2212 N 0.18373 0.35553 0.60917 0.0
N2213 N 0.11854 0.30837 0.63118 0.0
H2214 H 0.7034 0.80507 0.64945 0.0
H2215 H 0.61313 0.87182 0.61564 0.0
H2216 H 0.62053 0.78098 0.6672 0.0
H2217 H 0.70274 0.91232 0.61043 0.0
H2218 H 0.61305 0.83161 0.62869 0.0
H2219 H 0.70087 0.83801 0.62961 0.0
C2220 C 0.68455 0.80647 0.64898 0.0
C2221 C 0.66224 0.79058 0.66005 0.0
C2222 C 0.63269 0.84914 0.62448 0.0
C2223 C 0.65918 0.82794 0.63748 0.0
C2224 C 0.63272 0.87197 0.61689 0.0
C2225 C 0.65802 0.8955 0.61209 0.0
C2226 C 0.6581 0.84981 0.62721 0.0
C2227 C 0.68283 0.89472 0.61419 0.0
C2228 C 0.68316 0.8253 0.63774 0.0
C2229 C 0.63833 0.7932 0.65903 0.0
N2230 N 0.68229 0.87231 0.62172 0.0
N2231 N 0.63746 0.81162 0.64799 0.0
loop_
_geom_bond_atom_site_label_1
_geom_bond_atom_site_label_2
_geom_bond_distance
_geom_bond_site_symmetry_2
_ccdc_geom_bond_type
Li0 N17 1.990 . S
Li0 O60 1.956 . S
Li0 O61 1.970 . S
Li0 O62 1.961 . S
Li1 N25 1.990 . S
Li1 O60 1.970 . S
Li1 O61 1.956 . S
Li1 O63 1.961 . S
Li2 N47 1.990 . S
Li2 O60 1.961 . S
Li2 O62 1.956 . S
Li2 O63 1.970 . S
Li3 N53 1.990 1_545 S
Li3 O61 1.961 . S
Li3 O62 1.970 . S
Li3 O63 1.956 . S
C4 C6 1.348 . S
C4 C7 1.356 . S
C4 O60 1.325 . S
N5 C8 1.314 . S
N5 C9 1.279 . S
C6 C4 1.348 . S
C6 C8 1.353 . S
C6 H64 0.929 . S
C7 C4 1.356 . S
C7 C9 1.358 . S
C7 H65 0.930 . S
C8 N5 1.314 . S
C8 C6 1.353 . S
C8 H66 0.930 . S
C9 N5 1.279 . S
C9 C7 1.358 . S
C9 H67 0.930 . S
C10 C13 1.348 . S
C10 C14 1.356 . S
C10 O61 1.325 . S
C11 N12 1.279 . S
C11 C14 1.358 . S
C11 H68 0.930 . S
N12 C11 1.279 . S
N12 C15 1.314 . S
C13 C10 1.348 . S
C13 C15 1.353 . S
C13 H69 0.929 . S
C14 C10 1.356 . S
C14 C11 1.358 . S
C14 H70 0.930 . S
C15 N12 1.314 . S
C15 C13 1.353 . S
C15 H71 0.930 . S
C16 N17 1.314 . S
C16 C21 1.353 . S
C16 H22 0.930 . S
N17 Li0 1.990 . S
N17 C16 1.314 . S
N17 C19 1.279 . S
C18 C19 1.358 . S
C18 C20 1.356 . S
C18 H72 0.930 . S
C19 N17 1.279 . S
C19 C18 1.358 . S
C19 H23 0.930 . S
C20 C18 1.356 . S
C20 C21 1.348 . S
C21 C16 1.353 . S
C21 C20 1.348 . S
C21 H73 0.929 1_554 S
H22 C16 0.930 . S
H23 C19 0.930 . S
C24 N25 1.314 . S
C24 C26 1.353 . S
C24 H30 0.930 . S
N25 Li1 1.990 . S
N25 C24 1.314 . S
N25 C28 1.279 . S
C26 C24 1.353 . S
C26 C29 1.348 . S
C26 H74 0.929 . S
C27 C28 1.358 . S
C27 C29 1.356 . S
C27 H75 0.930 . S
C28 N25 1.279 . S
C28 C27 1.358 . S
C28 H31 0.930 . S
C29 C26 1.348 . S
C29 C27 1.356 . S
H30 C24 0.930 . S
H31 C28 0.930 . S
C32 C34 1.348 1_545 S
C32 C35 1.356 . S
C32 O62 1.325 . S
N33 C36 1.314 1_545 S
N33 C37 1.279 . S
C34 C32 1.348 1_565 S
C34 C36 1.353 1_554 S
C34 H76 0.929 . S
C35 C32 1.356 . S
C35 C37 1.358 1_554 S
C35 H77 0.930 . S
C36 N33 1.314 1_565 S
C36 C34 1.353 1_556 S
C36 H78 0.930 . S
C37 N33 1.279 . S
C37 C35 1.358 1_556 S
C37 H79 0.930 . S
C38 C39 1.348 . S
C38 C40 1.356 . S
C38 O63 1.325 1_565 S
C39 C38 1.348 . S
C39 C41 1.353 . S
C39 H80 0.929 . S
C40 C38 1.356 . S
C40 C42 1.358 . S
C40 H81 0.930 . S
C41 C39 1.353 . S
C41 N43 1.314 . S
C41 H82 0.930 . S
C42 C40 1.358 . S
C42 N43 1.279 . S
C42 H83 0.930 . S
N43 C41 1.314 . S
N43 C42 1.279 . S
C44 C46 1.353 . S
C44 N47 1.314 . S
C44 H50 0.930 . S
C45 N47 1.279 . S
C45 C48 1.358 . S
C45 H51 0.930 . S
C46 C44 1.353 . S
C46 C49 1.348 . S
C46 H84 0.929 . S
N47 Li2 1.990 . S
N47 C44 1.314 . S
N47 C45 1.279 . S
C48 C45 1.358 . S
C48 C49 1.356 . S
C48 H85 0.930 . S
C49 C46 1.348 . S
C49 C48 1.356 . S
H50 C44 0.930 . S
H51 C45 0.930 . S
C52 N53 1.314 . S
C52 C54 1.353 . S
C52 H58 0.930 . S
N53 Li3 1.990 1_565 S
N53 C52 1.314 . S
N53 C56 1.279 . S
C54 C52 1.353 . S
C54 C57 1.348 . S
C54 H86 0.929 . S
C55 C56 1.358 . S
C55 C57 1.356 . S
C55 H87 0.930 . S
C56 N53 1.279 . S
C56 C55 1.358 . S
C56 H59 0.930 . S
C57 C54 1.348 . S
C57 C55 1.356 . S
H58 C52 0.930 . S
H59 C56 0.930 . S
O60 Li0 1.956 . S
O60 Li1 1.970 . S
O60 Li2 1.961 . S
O60 C4 1.325 . S
O61 Li0 1.970 . S
O61 Li1 1.956 . S
O61 Li3 1.961 . S
O61 C10 1.325 . S
O62 Li0 1.961 . S
O62 Li2 1.956 . S
O62 Li3 1.970 . S
O62 C32 1.325 . S
O63 Li1 1.961 . S
O63 Li2 1.970 . S
O63 Li3 1.956 . S
O63 C38 1.325 1_545 S
H64 C6 0.929 . S
H65 C7 0.930 . S
H66 C8 0.930 . S
H67 C9 0.930 . S
H68 C11 0.930 . S
H69 C13 0.929 . S
H70 C14 0.930 . S
H71 C15 0.930 . S
H72 C18 0.930 . S
H73 C21 0.929 1_556 S
H74 C26 0.929 . S
H75 C27 0.930 . S
H76 C34 0.929 . S
H77 C35 0.930 . S
H78 C36 0.930 . S
H79 C37 0.930 . S
H80 C39 0.929 . S
H81 C40 0.930 . S
H82 C41 0.930 . S
H83 C42 0.930 . S
H84 C46 0.929 . S
H85 C48 0.930 . S
H86 C54 0.929 . S
H87 C55 0.930 . S
Li88 N105 1.990 . S
Li88 O148 1.956 . S
Li88 O149 1.970 . S
Li88 O150 1.961 . S
Li89 N113 1.990 1_655 S
Li89 O148 1.970 . S
Li89 O149 1.956 . S
Li89 O151 1.961 . S
Li90 N135 1.990 . S
Li90 O148 1.961 . S
Li90 O150 1.956 . S
Li90 O151 1.970 . S
Li91 N141 1.990 . S
Li91 O149 1.961 . S
Li91 O150 1.970 . S
Li91 O151 1.956 . S
C92 C94 1.348 1_655 S
C92 C95 1.356 . S
C92 O148 1.325 . S
N93 C96 1.314 1_655 S
N93 C97 1.279 . S
C94 C92 1.348 1_455 S
C94 C96 1.353 1_554 S
C94 H152 0.929 . S
C95 C92 1.356 . S
C95 C97 1.358 1_554 S
C95 H153 0.930 . S
C96 N93 1.314 1_455 S
C96 C94 1.353 1_556 S
C96 H154 0.930 . S
C97 N93 1.279 . S
C97 C95 1.358 1_556 S
C97 H155 0.930 . S
C98 C101 1.348 . S
C98 C102 1.356 . S
C98 O149 1.325 1_455 S
C99 N100 1.279 . S
C99 C102 1.358 . S
C99 H156 0.930 . S
N100 C99 1.279 . S
N100 C103 1.314 . S
C101 C98 1.348 . S
C101 C103 1.353 . S
C101 H157 0.929 . S
C102 C98 1.356 . S
C102 C99 1.358 . S
C102 H158 0.930 . S
C103 N100 1.314 . S
C103 C101 1.353 . S
C103 H159 0.930 . S
C104 N105 1.314 . S
C104 C109 1.353 . S
C104 H110 0.930 . S
N105 Li88 1.990 . S
N105 C104 1.314 . S
N105 C107 1.279 . S
C106 C107 1.358 . S
C106 C108 1.356 . S
C106 H160 0.930 . S
C107 N105 1.279 . S
C107 C106 1.358 . S
C107 H111 0.930 . S
C108 C106 1.356 . S
C108 C109 1.348 . S
C109 C104 1.353 . S
C109 C108 1.348 . S
C109 H161 0.929 . S
H110 C104 0.930 . S
H111 C107 0.930 . S
C112 N113 1.314 . S
C112 C114 1.353 . S
C112 H118 0.930 . S
N113 Li89 1.990 1_455 S
N113 C112 1.314 . S
N113 C116 1.279 . S
C114 C112 1.353 . S
C114 C117 1.348 . S
C114 H162 0.929 . S
C115 C116 1.358 . S
C115 C117 1.356 . S
C115 H163 0.930 . S
C116 N113 1.279 . S
C116 C115 1.358 . S
C116 H119 0.930 . S
C117 C114 1.348 . S
C117 C115 1.356 . S
H118 C112 0.930 . S
H119 C116 0.930 . S
C120 C122 1.348 . S
C120 C123 1.356 . S
C120 O150 1.325 . S
N121 C124 1.314 . S
N121 C125 1.279 . S
C122 C120 1.348 . S
C122 C124 1.353 . S
C122 H164 0.929 . S
C123 C120 1.356 . S
C123 C125 1.358 . S
C123 H165 0.930 . S
C124 N121 1.314 . S
C124 C122 1.353 . S
C124 H166 0.930 . S
C125 N121 1.279 . S
C125 C123 1.358 . S
C125 H167 0.930 . S
C126 C127 1.348 . S
C126 C128 1.356 . S
C126 O151 1.325 . S
C127 C126 1.348 . S
C127 C129 1.353 . S
C127 H168 0.929 . S
C128 C126 1.356 . S
C128 C130 1.358 . S
C128 H169 0.930 . S
C129 C127 1.353 . S
C129 N131 1.314 . S
C129 H170 0.930 . S
C130 C128 1.358 . S
C130 N131 1.279 . S
C130 H171 0.930 . S
N131 C129 1.314 . S
N131 C130 1.279 . S
C132 C134 1.353 . S
C132 N135 1.314 . S
C132 H138 0.930 . S
C133 N135 1.279 . S
C133 C136 1.358 . S
C133 H139 0.930 . S
C134 C132 1.353 . S
C134 C137 1.348 . S
C134 H172 0.929 1_554 S
N135 Li90 1.990 . S
N135 C132 1.314 . S
N135 C133 1.279 . S
C136 C133 1.358 . S
C136 C137 1.356 . S
C136 H173 0.930 . S
C137 C134 1.348 . S
C137 C136 1.356 . S
H138 C132 0.930 . S
H139 C133 0.930 . S
C140 N141 1.314 . S
C140 C142 1.353 . S
C140 H146 0.930 . S
N141 Li91 1.990 . S
N141 C140 1.314 . S
N141 C144 1.279 . S
C142 C140 1.353 . S
C142 C145 1.348 . S
C142 H174 0.929 . S
C143 C144 1.358 . S
C143 C145 1.356 . S
C143 H175 0.930 . S
C144 N141 1.279 . S
C144 C143 1.358 . S
C144 H147 0.930 . S
C145 C142 1.348 . S
C145 C143 1.356 . S
H146 C140 0.930 . S
H147 C144 0.930 . S
O148 Li88 1.956 . S
O148 Li89 1.970 . S
O148 Li90 1.961 . S
O148 C92 1.325 . S
O149 Li88 1.970 . S
O149 Li89 1.956 . S
O149 Li91 1.961 . S
O149 C98 1.325 1_655 S
O150 Li88 1.961 . S
O150 Li90 1.956 . S
O150 Li91 1.970 . S
O150 C120 1.325 . S
O151 Li89 1.961 . S
O151 Li90 1.970 . S
O151 Li91 1.956 . S
O151 C126 1.325 . S
H152 C94 0.929 . S
H153 C95 0.930 . S
H154 C96 0.930 . S
H155 C97 0.930 . S
H156 C99 0.930 . S
H157 C101 0.929 . S
H158 C102 0.930 . S
H159 C103 0.930 . S
H160 C106 0.930 . S
H161 C109 0.929 . S
H162 C114 0.929 . S
H163 C115 0.930 . S
H164 C122 0.929 . S
H165 C123 0.930 . S
H166 C124 0.930 . S
H167 C125 0.930 . S
H168 C127 0.929 . S
H169 C128 0.930 . S
H170 C129 0.930 . S
H171 C130 0.930 . S
H172 C134 0.929 1_556 S
H173 C136 0.930 . S
H174 C142 0.929 . S
H175 C143 0.930 . S
Li176 N193 1.990 . S
Li176 O236 1.956 . S
Li176 O237 1.970 . S
Li176 O238 1.961 . S
Li177 N201 1.990 . S
Li177 O236 1.970 . S
Li177 O237 1.956 . S
Li177 O239 1.961 . S
Li178 N223 1.990 . S
Li178 O236 1.961 . S
Li178 O238 1.956 . S
Li178 O239 1.970 . S
Li179 N229 1.990 . S
Li179 O237 1.961 . S
Li179 O238 1.970 . S
Li179 O239 1.956 . S
C180 C182 1.348 . S
C180 C183 1.356 . S
C180 O236 1.325 . S
N181 C184 1.314 . S
N181 C185 1.279 . S
C182 C180 1.348 . S
C182 C184 1.353 . S
C182 H240 0.929 . S
C183 C180 1.356 . S
C183 C185 1.358 . S
C183 H241 0.930 . S
C184 N181 1.314 . S
C184 C182 1.353 . S
C184 H242 0.930 . S
C185 N181 1.279 . S
C185 C183 1.358 . S
C185 H243 0.930 . S
C186 C189 1.348 . S
C186 C190 1.356 . S
C186 O237 1.325 . S
C187 N188 1.279 . S
C187 C190 1.358 . S
C187 H244 0.930 . S
N188 C187 1.279 . S
N188 C191 1.314 . S
C189 C186 1.348 . S
C189 C191 1.353 . S
C189 H245 0.929 . S
C190 C186 1.356 . S
C190 C187 1.358 . S
C190 H246 0.930 . S
C191 N188 1.314 . S
C191 C189 1.353 . S
C191 H247 0.930 . S
C192 N193 1.314 . S
C192 C197 1.353 . S
C192 H198 0.930 . S
N193 Li176 1.990 . S
N193 C192 1.314 . S
N193 C195 1.279 . S
C194 C195 1.358 . S
C194 C196 1.356 . S
C194 H248 0.930 . S
C195 N193 1.279 . S
C195 C194 1.358 . S
C195 H199 0.930 . S
C196 C194 1.356 . S
C196 C197 1.348 . S
C197 C192 1.353 . S
C197 C196 1.348 . S
C197 H249 0.929 . S
H198 C192 0.930 . S
H199 C195 0.930 . S
C200 N201 1.314 . S
C200 C202 1.353 . S
C200 H206 0.930 . S
N201 Li177 1.990 . S
N201 C200 1.314 . S
N201 C204 1.279 . S
C202 C200 1.353 . S
C202 C205 1.348 . S
C202 H250 0.929 . S
C203 C204 1.358 . S
C203 C205 1.356 . S
C203 H251 0.930 . S
C204 N201 1.279 . S
C204 C203 1.358 . S
C204 H207 0.930 . S
C205 C202 1.348 . S
C205 C203 1.356 . S
H206 C200 0.930 . S
H207 C204 0.930 . S
C208 C210 1.348 . S
C208 C211 1.356 . S
C208 O238 1.325 . S
N209 C212 1.314 . S
N209 C213 1.279 . S
C210 C208 1.348 . S
C210 C212 1.353 1_554 S
C210 H252 0.929 . S
C211 C208 1.356 . S
C211 C213 1.358 1_554 S
C211 H253 0.930 . S
C212 N209 1.314 . S
C212 C210 1.353 1_556 S
C212 H254 0.930 . S
C213 N209 1.279 . S
C213 C211 1.358 1_556 S
C213 H255 0.930 . S
C214 C215 1.348 . S
C214 C216 1.356 . S
C214 O239 1.325 . S
C215 C214 1.348 . S
C215 C217 1.353 . S
C215 H256 0.929 . S
C216 C214 1.356 . S
C216 C218 1.358 . S
C216 H257 0.930 . S
C217 C215 1.353 . S
C217 N219 1.314 . S
C217 H258 0.930 . S
C218 C216 1.358 . S
C218 N219 1.279 . S
C218 H259 0.930 . S
N219 C217 1.314 . S
N219 C218 1.279 . S
C220 C222 1.353 . S
C220 N223 1.314 . S
C220 H226 0.930 . S
C221 N223 1.279 . S
C221 C224 1.358 . S
C221 H227 0.930 . S
C222 C220 1.353 . S
C222 C225 1.348 . S
C222 H260 0.929 . S
N223 Li178 1.990 . S
N223 C220 1.314 . S
N223 C221 1.279 . S
C224 C221 1.358 . S
C224 C225 1.356 . S
C224 H261 0.930 1_554 S
C225 C222 1.348 . S
C225 C224 1.356 . S
H226 C220 0.930 . S
H227 C221 0.930 . S
C228 N229 1.314 . S
C228 C230 1.353 . S
C228 H234 0.930 . S
N229 Li179 1.990 . S
N229 C228 1.314 . S
N229 C232 1.279 . S
C230 C228 1.353 . S
C230 C233 1.348 . S
C230 H262 0.929 . S
C231 C232 1.358 . S
C231 C233 1.356 . S
C231 H263 0.930 . S
C232 N229 1.279 . S
C232 C231 1.358 . S
C232 H235 0.930 . S
C233 C230 1.348 . S
C233 C231 1.356 . S
H234 C228 0.930 . S
H235 C232 0.930 . S
O236 Li176 1.956 . S
O236 Li177 1.970 . S
O236 Li178 1.961 . S
O236 C180 1.325 . S
O237 Li176 1.970 . S
O237 Li177 1.956 . S
O237 Li179 1.961 . S
O237 C186 1.325 . S
O238 Li176 1.961 . S
O238 Li178 1.956 . S
O238 Li179 1.970 . S
O238 C208 1.325 . S
O239 Li177 1.961 . S
O239 Li178 1.970 . S
O239 Li179 1.956 . S
O239 C214 1.325 . S
H240 C182 0.929 . S
H241 C183 0.930 . S
H242 C184 0.930 . S
H243 C185 0.930 . S
H244 C187 0.930 . S
H245 C189 0.929 . S
H246 C190 0.930 . S
H247 C191 0.930 . S
H248 C194 0.930 . S
H249 C197 0.929 . S
H250 C202 0.929 . S
H251 C203 0.930 . S
H252 C210 0.929 . S
H253 C211 0.930 . S
H254 C212 0.930 . S
H255 C213 0.930 . S
H256 C215 0.929 . S
H257 C216 0.930 . S
H258 C217 0.930 . S
H259 C218 0.930 . S
H260 C222 0.929 . S
H261 C224 0.930 1_556 S
H262 C230 0.929 . S
H263 C231 0.930 . S
Li264 N281 1.990 . S
Li264 O324 1.956 . S
Li264 O325 1.970 . S
Li264 O326 1.961 . S
Li265 N289 1.990 1_565 S
Li265 O324 1.970 . S
Li265 O325 1.956 . S
Li265 O327 1.961 . S
Li266 N311 1.990 . S
Li266 O324 1.961 . S
Li266 O326 1.956 . S
Li266 O327 1.970 . S
Li267 N317 1.990 . S
Li267 O325 1.961 . S
Li267 O326 1.970 . S
Li267 O327 1.956 . S
C268 C270 1.348 . S
C268 C271 1.356 . S
C268 O324 1.325 1_545 S
N269 C272 1.314 . S
N269 C273 1.279 . S
C270 C268 1.348 . S
C270 C272 1.353 . S
C270 H328 0.929 . S
C271 C268 1.356 . S
C271 C273 1.358 . S
C271 H329 0.930 1_545 S
C272 N269 1.314 . S
C272 C270 1.353 . S
C272 H330 0.930 . S
C273 N269 1.279 . S
C273 C271 1.358 . S
C273 H331 0.930 . S
C274 C277 1.348 . S
C274 C278 1.356 . S
C274 O325 1.325 . S
C275 N276 1.279 . S
C275 C278 1.358 1_554 S
C275 H332 0.930 . S
N276 C275 1.279 . S
N276 C279 1.322 . S
C277 C274 1.348 . S
C277 C279 1.357 1_556 S
C277 H333 0.929 . S
C278 C274 1.356 . S
C278 C275 1.358 1_556 S
C278 H334 0.930 . S
C279 N276 1.322 . S
C279 C277 1.357 1_554 S
C279 H335 0.916 1_565 S
C280 N281 1.314 . S
C280 C285 1.353 . S
C280 H286 0.930 . S
N281 Li264 1.990 . S
N281 C280 1.314 . S
N281 C283 1.279 . S
C282 C283 1.358 . S
C282 C284 1.356 . S
C282 H336 0.930 1_565 S
C283 N281 1.279 . S
C283 C282 1.358 . S
C283 H287 0.930 1_565 S
C284 C282 1.356 . S
C284 C285 1.348 . S
C285 C280 1.353 . S
C285 C284 1.348 . S
C285 H337 0.929 . S
H286 C280 0.930 . S
H287 C283 0.930 1_545 S
C288 N289 1.314 . S
C288 C290 1.353 . S
C288 H294 0.930 . S
N289 Li265 1.990 1_545 S
N289 C288 1.314 . S
N289 C292 1.279 . S
C290 C288 1.353 . S
C290 C293 1.348 . S
C290 H338 0.929 . S
C291 C292 1.358 . S
C291 C293 1.356 . S
C291 H339 0.930 . S
C292 N289 1.279 . S
C292 C291 1.358 . S
C292 H295 0.930 . S
C293 C290 1.348 . S
C293 C291 1.356 . S
H294 C288 0.930 . S
H295 C292 0.930 . S
C296 C298 1.348 . S
C296 C299 1.356 . S
C296 O326 1.325 . S
N297 C300 1.314 . S
N297 C301 1.279 . S
C298 C296 1.348 . S
C298 C300 1.353 . S
C298 H340 0.929 . S
C299 C296 1.356 . S
C299 C301 1.358 . S
C299 H341 0.930 . S
C300 N297 1.314 . S
C300 C298 1.353 . S
C300 H342 0.930 . S
C301 N297 1.279 . S
C301 C299 1.358 . S
C301 H343 0.930 . S
C302 C303 1.348 . S
C302 C304 1.356 . S
C302 O327 1.325 . S
C303 C302 1.348 . S
C303 C305 1.353 . S
C303 H344 0.929 . S
C304 C302 1.356 . S
C304 C306 1.358 . S
C304 H345 0.930 . S
C305 C303 1.353 . S
C305 N307 1.314 . S
C305 H346 0.930 . S
C306 C304 1.358 . S
C306 N307 1.279 . S
C306 H347 0.930 . S
N307 C305 1.314 . S
N307 C306 1.279 . S
C308 C310 1.353 . S
C308 N311 1.314 . S
C308 H314 0.930 . S
C309 N311 1.279 . S
C309 C312 1.358 . S
C309 H315 0.930 . S
C310 C308 1.353 . S
C310 C313 1.348 . S
C310 H348 0.929 . S
N311 Li266 1.990 . S
N311 C308 1.314 . S
N311 C309 1.279 . S
C312 C309 1.358 . S
C312 C313 1.356 . S
C312 H349 0.930 . S
C313 C310 1.348 . S
C313 C312 1.356 . S
H314 C308 0.930 . S
H315 C309 0.930 . S
C316 N317 1.314 . S
C316 C318 1.353 . S
C316 H322 0.930 . S
N317 Li267 1.990 . S
N317 C316 1.314 . S
N317 C320 1.279 . S
C318 C316 1.353 . S
C318 C321 1.348 . S
C318 H350 0.929 1_556 S
C319 C320 1.358 . S
C319 C321 1.356 . S
C319 H351 0.930 . S
C320 N317 1.279 . S
C320 C319 1.358 . S
C320 H323 0.930 . S
C321 C318 1.348 . S
C321 C319 1.356 . S
H322 C316 0.930 . S
H323 C320 0.930 . S
O324 Li264 1.956 . S
O324 Li265 1.970 . S
O324 Li266 1.961 . S
O324 C268 1.325 1_565 S
O325 Li264 1.970 . S
O325 Li265 1.956 . S
O325 Li267 1.961 . S
O325 C274 1.325 . S
O326 Li264 1.961 . S
O326 Li266 1.956 . S
O326 Li267 1.970 . S
O326 C296 1.325 . S
O327 Li265 1.961 . S
O327 Li266 1.970 . S
O327 Li267 1.956 . S
O327 C302 1.325 . S
H328 C270 0.929 . S
H329 C271 0.930 1_565 S
H330 C272 0.930 . S
H331 C273 0.930 . S
H332 C275 0.930 . S
H333 C277 0.929 . S
H334 C278 0.930 . S
H335 C279 0.916 1_545 S
H336 C282 0.930 1_545 S
H337 C285 0.929 . S
H338 C290 0.929 . S
H339 C291 0.930 . S
H340 C298 0.929 . S
H341 C299 0.930 . S
H342 C300 0.930 . S
H343 C301 0.930 . S
H344 C303 0.929 . S
H345 C304 0.930 . S
H346 C305 0.930 . S
H347 C306 0.930 . S
H348 C310 0.929 . S
H349 C312 0.930 . S
H350 C318 0.929 1_554 S
H351 C319 0.930 . S
Li352 N369 1.990 . S
Li352 O412 1.956 . S
Li352 O413 1.970 . S
Li352 O414 1.961 . S
Li353 N377 1.990 . S
Li353 O412 1.970 . S
Li353 O413 1.956 . S
Li353 O415 1.961 . S
Li354 N399 1.990 . S
Li354 O412 1.961 . S
Li354 O414 1.956 . S
Li354 O415 1.970 . S
Li355 N405 1.990 1_455 S
Li355 O413 1.961 . S
Li355 O414 1.970 . S
Li355 O415 1.956 . S
C356 C358 1.348 . S
C356 C359 1.356 . S
C356 O412 1.325 . S
N357 C360 1.314 . S
N357 C361 1.279 . S
C358 C356 1.348 . S
C358 C360 1.353 . S
C358 H416 0.929 . S
C359 C356 1.356 . S
C359 C361 1.358 . S
C359 H417 0.930 . S
C360 N357 1.314 . S
C360 C358 1.353 . S
C360 H418 0.930 . S
C361 N357 1.279 . S
C361 C359 1.358 . S
C361 H419 0.930 . S
C362 C365 1.348 . S
C362 C366 1.356 . S
C362 O413 1.325 . S
C363 N364 1.279 . S
C363 C366 1.358 . S
C363 H420 0.930 . S
N364 C363 1.279 . S
N364 C367 1.314 . S
C365 C362 1.348 . S
C365 C367 1.353 . S
C365 H421 0.929 . S
C366 C362 1.356 . S
C366 C363 1.358 . S
C366 H422 0.930 . S
C367 N364 1.314 . S
C367 C365 1.353 . S
C367 H423 0.930 . S
C368 N369 1.314 . S
C368 C373 1.353 . S
C368 H374 0.930 . S
N369 Li352 1.990 . S
N369 C368 1.314 . S
N369 C371 1.279 . S
C370 C371 1.358 . S
C370 C372 1.356 . S
C370 H424 0.930 . S
C371 N369 1.279 . S
C371 C370 1.358 . S
C371 H375 0.930 . S
C372 C370 1.356 . S
C372 C373 1.348 . S
C373 C368 1.353 . S
C373 C372 1.348 . S
C373 H425 0.929 . S
H374 C368 0.930 . S
H375 C371 0.930 . S
C376 N377 1.314 . S
C376 C378 1.353 . S
C376 H382 0.930 . S
N377 Li353 1.990 . S
N377 C376 1.314 . S
N377 C380 1.279 . S
C378 C376 1.353 . S
C378 C381 1.348 . S
C378 H426 0.929 1_556 S
C379 C380 1.358 . S
C379 C381 1.356 . S
C379 H427 0.930 . S
C380 N377 1.279 . S
C380 C379 1.358 . S
C380 H383 0.930 . S
C381 C378 1.348 . S
C381 C379 1.356 . S
H382 C376 0.930 . S
H383 C380 0.930 . S
C384 C386 1.348 . S
C384 C387 1.356 . S
C384 O414 1.325 1_655 S
N385 C388 1.314 . S
N385 C389 1.279 . S
C386 C384 1.348 . S
C386 C388 1.353 . S
C386 H428 0.929 . S
C387 C384 1.356 . S
C387 C389 1.358 . S
C387 H429 0.930 1_655 S
C388 N385 1.314 . S
C388 C386 1.353 . S
C388 H430 0.930 . S
C389 N385 1.279 . S
C389 C387 1.358 . S
C389 H431 0.930 . S
C390 C391 1.348 . S
C390 C392 1.356 . S
C390 O415 1.325 . S
C391 C390 1.348 . S
C391 C393 1.353 1_456 S
C391 H432 0.929 . S
C392 C390 1.356 . S
C392 C394 1.358 1_556 S
C392 H433 0.930 . S
C393 C391 1.353 1_654 S
C393 N395 1.320 1_655 S
C393 H434 0.930 . S
C394 C392 1.358 1_554 S
C394 N395 1.277 . S
C394 H435 0.930 . S
N395 C393 1.320 1_455 S
N395 C394 1.277 . S
C396 C398 1.353 . S
C396 N399 1.314 . S
C396 H402 0.930 . S
C397 N399 1.279 . S
C397 C400 1.358 . S
C397 H403 0.930 1_455 S
C398 C396 1.353 . S
C398 C401 1.348 . S
C398 H436 0.929 . S
N399 Li354 1.990 . S
N399 C396 1.314 . S
N399 C397 1.279 . S
C400 C397 1.358 . S
C400 C401 1.356 . S
C400 H437 0.930 1_455 S
C401 C398 1.348 . S
C401 C400 1.356 . S
H402 C396 0.930 . S
H403 C397 0.930 1_655 S
C404 N405 1.314 . S
C404 C406 1.353 . S
C404 H410 0.930 . S
N405 Li355 1.990 1_655 S
N405 C404 1.314 . S
N405 C408 1.279 . S
C406 C404 1.353 . S
C406 C409 1.348 . S
C406 H438 0.929 . S
C407 C408 1.358 . S
C407 C409 1.356 . S
C407 H439 0.930 . S
C408 N405 1.279 . S
C408 C407 1.358 . S
C408 H411 0.930 . S
C409 C406 1.348 . S
C409 C407 1.356 . S
H410 C404 0.930 . S
H411 C408 0.930 . S
O412 Li352 1.956 . S
O412 Li353 1.970 . S
O412 Li354 1.961 . S
O412 C356 1.325 . S
O413 Li352 1.970 . S
O413 Li353 1.956 . S
O413 Li355 1.961 . S
O413 C362 1.325 . S
O414 Li352 1.961 . S
O414 Li354 1.956 . S
O414 Li355 1.970 . S
O414 C384 1.325 1_455 S
O415 Li353 1.961 . S
O415 Li354 1.970 . S
O415 Li355 1.956 . S
O415 C390 1.325 . S
H416 C358 0.929 . S
H417 C359 0.930 . S
H418 C360 0.930 . S
H419 C361 0.930 . S
H420 C363 0.930 . S
H421 C365 0.929 . S
H422 C366 0.930 . S
H423 C367 0.930 . S
H424 C370 0.930 . S
H425 C373 0.929 . S
H426 C378 0.929 1_554 S
H427 C379 0.930 . S
H428 C386 0.929 . S
H429 C387 0.930 1_455 S
H430 C388 0.930 . S
H431 C389 0.930 . S
H432 C391 0.929 . S
H433 C392 0.930 . S
H434 C393 0.930 . S
H435 C394 0.930 . S
H436 C398 0.929 . S
H437 C400 0.930 1_655 S
H438 C406 0.929 . S
H439 C407 0.930 . S
Li440 N457 1.990 . S
Li440 O500 1.956 . S
Li440 O501 1.970 . S
Li440 O502 1.961 . S
Li441 N465 1.990 . S
Li441 O500 1.970 . S
Li441 O501 1.956 . S
Li441 O503 1.961 . S
Li442 N487 1.990 . S
Li442 O500 1.961 . S
Li442 O502 1.956 . S
Li442 O503 1.970 . S
Li443 N493 1.990 . S
Li443 O501 1.961 . S
Li443 O502 1.970 . S
Li443 O503 1.956 . S
C444 C446 1.348 . S
C444 C447 1.356 . S
C444 O500 1.325 . S
N445 C448 1.314 . S
N445 C449 1.279 . S
C446 C444 1.348 . S
C446 C448 1.353 1_556 S
C446 H504 0.929 . S
C447 C444 1.356 . S
C447 C449 1.358 1_556 S
C447 H505 0.930 . S
C448 N445 1.314 . S
C448 C446 1.353 1_554 S
C448 H506 0.930 . S
C449 N445 1.279 . S
C449 C447 1.358 1_554 S
C449 H507 0.930 . S
C450 C453 1.348 . S
C450 C454 1.356 . S
C450 O501 1.325 . S
C451 N452 1.279 . S
C451 C454 1.358 . S
C451 H508 0.930 . S
N452 C451 1.279 . S
N452 C455 1.314 . S
C453 C450 1.348 . S
C453 C455 1.353 . S
C453 H509 0.929 . S
C454 C450 1.356 . S
C454 C451 1.358 . S
C454 H510 0.930 . S
C455 N452 1.314 . S
C455 C453 1.353 . S
C455 H511 0.930 . S
C456 N457 1.314 . S
C456 C461 1.353 . S
C456 H462 0.930 . S
N457 Li440 1.990 . S
N457 C456 1.314 . S
N457 C459 1.279 . S
C458 C459 1.358 . S
C458 C460 1.356 . S
C458 H512 0.930 1_556 S
C459 N457 1.279 . S
C459 C458 1.358 . S
C459 H463 0.930 . S
C460 C458 1.356 . S
C460 C461 1.348 . S
C461 C456 1.353 . S
C461 C460 1.348 . S
C461 H513 0.929 . S
H462 C456 0.930 . S
H463 C459 0.930 . S
C464 N465 1.314 . S
C464 C466 1.353 . S
C464 H470 0.930 . S
N465 Li441 1.990 . S
N465 C464 1.314 . S
N465 C468 1.279 . S
C466 C464 1.353 . S
C466 C469 1.348 . S
C466 H514 0.929 . S
C467 C468 1.358 . S
C467 C469 1.356 . S
C467 H515 0.930 . S
C468 N465 1.279 . S
C468 C467 1.358 . S
C468 H471 0.930 . S
C469 C466 1.348 . S
C469 C467 1.356 . S
H470 C464 0.930 . S
H471 C468 0.930 . S
C472 C474 1.348 . S
C472 C475 1.356 . S
C472 O502 1.325 . S
N473 C476 1.314 . S
N473 C477 1.279 . S
C474 C472 1.348 . S
C474 C476 1.353 . S
C474 H516 0.929 . S
C475 C472 1.356 . S
C475 C477 1.358 . S
C475 H517 0.930 . S
C476 N473 1.314 . S
C476 C474 1.353 . S
C476 H518 0.930 . S
C477 N473 1.279 . S
C477 C475 1.358 . S
C477 H519 0.930 . S
C478 C479 1.348 . S
C478 C480 1.356 . S
C478 O503 1.325 . S
C479 C478 1.348 . S
C479 C481 1.353 . S
C479 H520 0.929 . S
C480 C478 1.356 . S
C480 C482 1.358 . S
C480 H521 0.930 . S
C481 C479 1.353 . S
C481 N483 1.314 . S
C481 H522 0.930 . S
C482 C480 1.358 . S
C482 N483 1.279 . S
C482 H523 0.930 . S
N483 C481 1.314 . S
N483 C482 1.279 . S
C484 C486 1.353 . S
C484 N487 1.314 . S
C484 H490 0.930 . S
C485 N487 1.279 . S
C485 C488 1.358 . S
C485 H491 0.930 . S
C486 C484 1.353 . S
C486 C489 1.348 . S
C486 H524 0.929 . S
N487 Li442 1.990 . S
N487 C484 1.314 . S
N487 C485 1.279 . S
C488 C485 1.358 . S
C488 C489 1.356 . S
C488 H525 0.930 . S
C489 C486 1.348 . S
C489 C488 1.356 . S
H490 C484 0.930 . S
H491 C485 0.930 . S
C492 N493 1.314 . S
C492 C494 1.353 . S
C492 H498 0.930 . S
N493 Li443 1.990 . S
N493 C492 1.314 . S
N493 C496 1.279 . S
C494 C492 1.353 . S
C494 C497 1.348 . S
C494 H526 0.929 . S
C495 C496 1.358 . S
C495 C497 1.356 . S
C495 H527 0.930 . S
C496 N493 1.279 . S
C496 C495 1.358 . S
C496 H499 0.930 . S
C497 C494 1.348 . S
C497 C495 1.356 . S
H498 C492 0.930 . S
H499 C496 0.930 . S
O500 Li440 1.956 . S
O500 Li441 1.970 . S
O500 Li442 1.961 . S
O500 C444 1.325 . S
O501 Li440 1.970 . S
O501 Li441 1.956 . S
O501 Li443 1.961 . S
O501 C450 1.325 . S
O502 Li440 1.961 . S
O502 Li442 1.956 . S
O502 Li443 1.970 . S
O502 C472 1.325 . S
O503 Li441 1.961 . S
O503 Li442 1.970 . S
O503 Li443 1.956 . S
O503 C478 1.325 . S
H504 C446 0.929 . S
H505 C447 0.930 . S
H506 C448 0.930 . S
H507 C449 0.930 . S
H508 C451 0.930 . S
H509 C453 0.929 . S
H510 C454 0.930 . S
H511 C455 0.930 . S
H512 C458 0.930 1_554 S
H513 C461 0.929 . S
H514 C466 0.929 . S
H515 C467 0.930 . S
H516 C474 0.929 . S
H517 C475 0.930 . S
H518 C476 0.930 . S
H519 C477 0.930 . S
H520 C479 0.929 . S
H521 C480 0.930 . S
H522 C481 0.930 . S
H523 C482 0.930 . S
H524 C486 0.929 . S
H525 C488 0.930 . S
H526 C494 0.929 . S
H527 C495 0.930 . S
Li528 N545 1.981 . S
Li528 O588 1.974 . S
Li528 O589 1.957 1_455 S
Li528 O590 1.971 1_455 S
Li529 N553 1.997 . S
Li529 O588 1.949 1_655 S
Li529 O589 1.988 . S
Li529 O591 1.939 1_655 S
Li530 N575 1.990 . S
Li530 O588 1.961 . S
Li530 O590 1.956 1_455 S
Li530 O591 1.970 . S
Li531 N581 1.990 . S
Li531 O589 1.961 . S
Li531 O590 1.970 . S
Li531 O591 1.956 1_655 S
C532 C534 1.348 . S
C532 C535 1.356 . S
C532 O588 1.325 . S
N533 C536 1.314 . S
N533 C537 1.279 . S
C534 C532 1.348 . S
C534 C536 1.353 . S
C534 H592 0.929 . S
C535 C532 1.356 . S
C535 C537 1.358 . S
C535 H593 0.930 . S
C536 N533 1.314 . S
C536 C534 1.353 . S
C536 H594 0.930 . S
C537 N533 1.279 . S
C537 C535 1.358 . S
C537 H595 0.930 . S
C538 C541 1.348 . S
C538 C542 1.356 . S
C538 O589 1.325 . S
C539 N540 1.279 . S
C539 C542 1.358 . S
C539 H596 0.930 . S
N540 C539 1.279 . S
N540 C543 1.314 . S
C541 C538 1.348 . S
C541 C543 1.353 . S
C541 H597 0.929 . S
C542 C538 1.356 . S
C542 C539 1.358 . S
C542 H598 0.930 . S
C543 N540 1.314 . S
C543 C541 1.353 . S
C543 H599 0.930 . S
C544 N545 1.314 1_655 S
C544 C549 1.353 . S
C544 H550 0.930 . S
N545 Li528 1.981 . S
N545 C544 1.314 1_455 S
N545 C547 1.279 . S
C546 C547 1.358 . S
C546 C548 1.356 1_455 S
C546 H600 0.930 . S
C547 N545 1.279 . S
C547 C546 1.358 . S
C547 H551 0.930 . S
C548 C546 1.356 1_655 S
C548 C549 1.348 . S
C549 C544 1.353 . S
C549 C548 1.348 . S
C549 H601 0.929 . S
H550 C544 0.930 . S
H551 C547 0.930 . S
C552 N553 1.314 1_455 S
C552 C554 1.353 . S
C552 H558 0.930 . S
N553 Li529 1.997 . S
N553 C552 1.314 1_655 S
N553 C556 1.279 . S
C554 C552 1.353 . S
C554 C557 1.348 . S
C554 H602 0.929 . S
C555 C556 1.358 . S
C555 C557 1.356 1_655 S
C555 H603 0.930 . S
C556 N553 1.279 . S
C556 C555 1.358 . S
C556 H559 0.930 . S
C557 C554 1.348 . S
C557 C555 1.356 1_455 S
H558 C552 0.930 . S
H559 C556 0.930 . S
C560 C562 1.349 . S
C560 C563 1.350 1_655 S
C560 O590 1.328 . S
N561 C564 1.314 1_455 S
N561 C565 1.279 . S
C562 C560 1.349 . S
C562 C564 1.353 . S
C562 H604 0.929 . S
C563 C560 1.350 1_455 S
C563 C565 1.358 . S
C563 H605 0.930 . S
C564 N561 1.314 1_655 S
C564 C562 1.353 . S
C564 H606 0.930 . S
C565 N561 1.279 . S
C565 C563 1.358 . S
C565 H607 0.930 . S
C566 C567 1.348 . S
C566 C568 1.356 1_455 S
C566 O591 1.325 . S
C567 C566 1.348 . S
C567 C569 1.353 . S
C567 H608 0.929 . S
C568 C566 1.356 1_655 S
C568 C570 1.358 . S
C568 H609 0.930 . S
C569 C567 1.353 . S
C569 N571 1.309 1_455 S
C569 H610 0.930 . S
C570 C568 1.358 . S
C570 N571 1.291 . S
C570 H611 0.930 . S
N571 C569 1.309 1_655 S
N571 C570 1.291 . S
C572 C574 1.353 . S
C572 N575 1.314 . S
C572 H578 0.930 . S
C573 N575 1.279 . S
C573 C576 1.358 . S
C573 H579 0.930 . S
C574 C572 1.353 . S
C574 C577 1.348 . S
C574 H612 0.929 . S
N575 Li530 1.990 . S
N575 C572 1.314 . S
N575 C573 1.279 . S
C576 C573 1.358 . S
C576 C577 1.356 . S
C576 H613 0.930 . S
C577 C574 1.348 . S
C577 C576 1.356 . S
H578 C572 0.930 . S
H579 C573 0.930 . S
C580 N581 1.314 . S
C580 C582 1.353 . S
C580 H586 0.930 . S
N581 Li531 1.990 . S
N581 C580 1.314 . S
N581 C584 1.279 . S
C582 C580 1.353 . S
C582 C585 1.348 . S
C582 H614 0.929 . S
C583 C584 1.358 . S
C583 C585 1.356 . S
C583 H615 0.930 . S
C584 N581 1.279 . S
C584 C583 1.358 . S
C584 H587 0.930 . S
C585 C582 1.348 . S
C585 C583 1.356 . S
H586 C580 0.930 . S
H587 C584 0.930 . S
O588 Li528 1.974 . S
O588 Li529 1.949 1_455 S
O588 Li530 1.961 . S
O588 C532 1.325 . S
O589 Li528 1.957 1_655 S
O589 Li529 1.988 . S
O589 Li531 1.961 . S
O589 C538 1.325 . S
O590 Li528 1.971 1_655 S
O590 Li530 1.956 1_655 S
O590 Li531 1.970 . S
O590 C560 1.328 . S
O591 Li529 1.939 1_455 S
O591 Li530 1.970 . S
O591 Li531 1.956 1_455 S
O591 C566 1.325 . S
H592 C534 0.929 . S
H593 C535 0.930 . S
H594 C536 0.930 . S
H595 C537 0.930 . S
H596 C539 0.930 . S
H597 C541 0.929 . S
H598 C542 0.930 . S
H599 C543 0.930 . S
H600 C546 0.930 . S
H601 C549 0.929 . S
H602 C554 0.929 . S
H603 C555 0.930 . S
H604 C562 0.929 . S
H605 C563 0.930 . S
H606 C564 0.930 . S
H607 C565 0.930 . S
H608 C567 0.929 . S
H609 C568 0.930 . S
H610 C569 0.930 . S
H611 C570 0.930 . S
H612 C574 0.929 . S
H613 C576 0.930 . S
H614 C582 0.929 . S
H615 C583 0.930 . S
Li616 N633 1.990 . S
Li616 O676 1.956 . S
Li616 O677 1.970 . S
Li616 O678 1.961 . S
Li617 N641 1.990 . S
Li617 O676 1.970 . S
Li617 O677 1.956 . S
Li617 O679 1.961 . S
Li618 N663 1.990 . S
Li618 O676 1.961 . S
Li618 O678 1.956 . S
Li618 O679 1.970 . S
Li619 N669 1.990 . S
Li619 O677 1.961 . S
Li619 O678 1.970 . S
Li619 O679 1.956 . S
C620 C622 1.348 . S
C620 C623 1.356 . S
C620 O676 1.325 . S
N621 C624 1.314 . S
N621 C625 1.279 . S
C622 C620 1.348 . S
C622 C624 1.353 . S
C622 H680 0.929 . S
C623 C620 1.356 . S
C623 C625 1.358 . S
C623 H681 0.930 . S
C624 N621 1.314 . S
C624 C622 1.353 . S
C624 H682 0.930 . S
C625 N621 1.279 . S
C625 C623 1.358 . S
C625 H683 0.930 . S
C626 C629 1.348 . S
C626 C630 1.356 . S
C626 O677 1.325 . S
C627 N628 1.279 . S
C627 C630 1.358 . S
C627 H684 0.930 . S
N628 C627 1.279 . S
N628 C631 1.314 . S
C629 C626 1.348 . S
C629 C631 1.353 . S
C629 H685 0.929 . S
C630 C626 1.356 . S
C630 C627 1.358 . S
C630 H686 0.930 . S
C631 N628 1.314 . S
C631 C629 1.353 . S
C631 H687 0.930 . S
C632 N633 1.314 . S
C632 C637 1.353 . S
C632 H638 0.930 . S
N633 Li616 1.990 . S
N633 C632 1.314 . S
N633 C635 1.279 . S
C634 C635 1.358 . S
C634 C636 1.356 . S
C634 H688 0.930 . S
C635 N633 1.279 . S
C635 C634 1.358 . S
C635 H639 0.930 . S
C636 C634 1.356 . S
C636 C637 1.348 . S
C637 C632 1.353 . S
C637 C636 1.348 . S
C637 H689 0.929 . S
H638 C632 0.930 . S
H639 C635 0.930 . S
C640 N641 1.314 . S
C640 C642 1.353 . S
C640 H646 0.930 . S
N641 Li617 1.990 . S
N641 C640 1.314 . S
N641 C644 1.279 . S
C642 C640 1.353 . S
C642 C645 1.348 . S
C642 H690 0.929 . S
C643 C644 1.358 . S
C643 C645 1.356 . S
C643 H691 0.930 . S
C644 N641 1.279 . S
C644 C643 1.358 . S
C644 H647 0.930 . S
C645 C642 1.348 . S
C645 C643 1.356 . S
H646 C640 0.930 . S
H647 C644 0.930 . S
C648 C650 1.348 . S
C648 C651 1.356 . S
C648 O678 1.325 . S
N649 C652 1.314 . S
N649 C653 1.279 . S
C650 C648 1.348 . S
C650 C652 1.353 . S
C650 H692 0.929 . S
C651 C648 1.356 . S
C651 C653 1.358 . S
C651 H693 0.930 . S
C652 N649 1.314 . S
C652 C650 1.353 . S
C652 H694 0.930 . S
C653 N649 1.279 . S
C653 C651 1.358 . S
C653 H695 0.930 . S
C654 C655 1.348 . S
C654 C656 1.356 . S
C654 O679 1.325 . S
C655 C654 1.348 . S
C655 C657 1.353 . S
C655 H696 0.929 . S
C656 C654 1.356 . S
C656 C658 1.358 . S
C656 H697 0.930 . S
C657 C655 1.353 . S
C657 N659 1.314 . S
C657 H698 0.930 . S
C658 C656 1.358 . S
C658 N659 1.279 . S
C658 H699 0.930 . S
N659 C657 1.314 . S
N659 C658 1.279 . S
C660 C662 1.353 . S
C660 N663 1.314 . S
C660 H666 0.930 . S
C661 N663 1.279 . S
C661 C664 1.358 . S
C661 H667 0.930 . S
C662 C660 1.353 . S
C662 C665 1.348 . S
C662 H700 0.929 . S
N663 Li618 1.990 . S
N663 C660 1.314 . S
N663 C661 1.279 . S
C664 C661 1.358 . S
C664 C665 1.356 . S
C664 H701 0.930 . S
C665 C662 1.348 . S
C665 C664 1.356 . S
H666 C660 0.930 . S
H667 C661 0.930 . S
C668 N669 1.314 . S
C668 C670 1.353 . S
C668 H674 0.930 . S
N669 Li619 1.990 . S
N669 C668 1.314 . S
N669 C672 1.279 . S
C670 C668 1.353 . S
C670 C673 1.348 . S
C670 H702 0.929 . S
C671 C672 1.358 . S
C671 C673 1.356 . S
C671 H703 0.930 . S
C672 N669 1.279 . S
C672 C671 1.358 . S
C672 H675 0.930 . S
C673 C670 1.348 . S
C673 C671 1.356 . S
H674 C668 0.930 . S
H675 C672 0.930 . S
O676 Li616 1.956 . S
O676 Li617 1.970 . S
O676 Li618 1.961 . S
O676 C620 1.325 . S
O677 Li616 1.970 . S
O677 Li617 1.956 . S
O677 Li619 1.961 . S
O677 C626 1.325 . S
O678 Li616 1.961 . S
O678 Li618 1.956 . S
O678 Li619 1.970 . S
O678 C648 1.325 . S
O679 Li617 1.961 . S
O679 Li618 1.970 . S
O679 Li619 1.956 . S
O679 C654 1.325 . S
H680 C622 0.929 . S
H681 C623 0.930 . S
H682 C624 0.930 . S
H683 C625 0.930 . S
H684 C627 0.930 . S
H685 C629 0.929 . S
H686 C630 0.930 . S
H687 C631 0.930 . S
H688 C634 0.930 . S
H689 C637 0.929 . S
H690 C642 0.929 . S
H691 C643 0.930 . S
H692 C650 0.929 . S
H693 C651 0.930 . S
H694 C652 0.930 . S
H695 C653 0.930 . S
H696 C655 0.929 . S
H697 C656 0.930 . S
H698 C657 0.930 . S
H699 C658 0.930 . S
H700 C662 0.929 . S
H701 C664 0.930 . S
H702 C670 0.929 . S
H703 C671 0.930 . S
Li704 N721 1.990 . S
Li704 O764 1.956 . S
Li704 O765 1.957 1_545 S
Li704 O766 1.958 . S
Li705 N729 1.990 . S
Li705 O764 1.970 1_565 S
Li705 O765 1.971 . S
Li705 O767 1.961 . S
Li706 N751 1.990 . S
Li706 O764 1.961 . S
Li706 O766 1.958 . S
Li706 O767 1.970 1_545 S
Li707 N757 1.990 . S
Li707 O765 1.984 . S
Li707 O766 1.973 1_565 S
Li707 O767 1.956 . S
C708 C710 1.348 . S
C708 C711 1.356 . S
C708 O764 1.325 . S
N709 C712 1.314 . S
N709 C713 1.279 . S
C710 C708 1.348 . S
C710 C712 1.353 . S
C710 H768 0.929 . S
C711 C708 1.356 . S
C711 C713 1.358 . S
C711 H769 0.930 . S
C712 N709 1.314 . S
C712 C710 1.353 . S
C712 H770 0.930 . S
C713 N709 1.279 . S
C713 C711 1.358 . S
C713 H771 0.930 . S
C714 C717 1.348 1_565 S
C714 C718 1.356 . S
C714 O765 1.314 . S
C715 N716 1.279 . S
C715 C718 1.358 . S
C715 H772 0.930 . S
N716 C715 1.279 . S
N716 C719 1.314 1_565 S
C717 C714 1.348 1_545 S
C717 C719 1.353 . S
C717 H773 0.929 . S
C718 C714 1.356 . S
C718 C715 1.358 . S
C718 H774 0.930 . S
C719 N716 1.314 1_545 S
C719 C717 1.353 . S
C719 H775 0.930 . S
C720 N721 1.314 . S
C720 C725 1.353 . S
C720 H726 0.930 . S
N721 Li704 1.990 . S
N721 C720 1.314 . S
N721 C723 1.279 . S
C722 C723 1.358 . S
C722 C724 1.356 . S
C722 H776 0.930 . S
C723 N721 1.279 . S
C723 C722 1.358 . S
C723 H727 0.930 . S
C724 C722 1.356 . S
C724 C725 1.348 . S
C725 C720 1.353 . S
C725 C724 1.348 . S
C725 H777 0.929 . S
H726 C720 0.930 . S
H727 C723 0.930 . S
C728 N729 1.314 . S
C728 C730 1.353 . S
C728 H734 0.930 . S
N729 Li705 1.990 . S
N729 C728 1.314 . S
N729 C732 1.279 1_565 S
C730 C728 1.353 . S
C730 C733 1.348 . S
C730 H778 0.929 . S
C731 C732 1.358 . S
C731 C733 1.356 1_545 S
C731 H779 0.930 . S
C732 N729 1.279 1_545 S
C732 C731 1.358 . S
C732 H735 0.930 . S
C733 C730 1.348 . S
C733 C731 1.356 1_565 S
H734 C728 0.930 . S
H735 C732 0.930 . S
C736 C738 1.326 1_545 S
C736 C739 1.381 . S
C736 O766 1.320 . S
N737 C740 1.314 1_545 S
N737 C741 1.279 . S
C738 C736 1.326 1_565 S
C738 C740 1.353 . S
C738 H780 0.929 . S
C739 C736 1.381 . S
C739 C741 1.358 . S
C739 H781 0.930 . S
C740 N737 1.314 1_565 S
C740 C738 1.353 . S
C740 H782 0.930 . S
C741 N737 1.279 . S
C741 C739 1.358 . S
C741 H783 0.930 . S
C742 C743 1.348 . S
C742 C744 1.356 . S
C742 O767 1.325 . S
C743 C742 1.348 . S
C743 C745 1.353 . S
C743 H784 0.929 . S
C744 C742 1.356 . S
C744 C746 1.358 . S
C744 H785 0.930 . S
C745 C743 1.353 . S
C745 N747 1.314 . S
C745 H786 0.930 . S
C746 C744 1.358 . S
C746 N747 1.279 . S
C746 H787 0.930 . S
N747 C745 1.314 . S
N747 C746 1.279 . S
C748 C750 1.353 . S
C748 N751 1.314 . S
C748 H754 0.930 . S
C749 N751 1.279 1_565 S
C749 C752 1.358 . S
C749 H755 0.930 . S
C750 C748 1.353 . S
C750 C753 1.348 . S
C750 H788 0.929 . S
N751 Li706 1.990 . S
N751 C748 1.314 . S
N751 C749 1.279 1_545 S
C752 C749 1.358 . S
C752 C753 1.356 1_565 S
C752 H789 0.930 . S
C753 C750 1.348 . S
C753 C752 1.356 1_545 S
H754 C748 0.930 . S
H755 C749 0.930 . S
C756 N757 1.314 . S
C756 C758 1.353 . S
C756 H762 0.930 . S
N757 Li707 1.990 . S
N757 C756 1.314 . S
N757 C760 1.279 . S
C758 C756 1.353 . S
C758 C761 1.348 . S
C758 H790 0.929 . S
C759 C760 1.358 . S
C759 C761 1.356 . S
C759 H791 0.930 . S
C760 N757 1.279 . S
C760 C759 1.358 . S
C760 H763 0.930 . S
C761 C758 1.348 . S
C761 C759 1.356 . S
H762 C756 0.930 . S
H763 C760 0.930 . S
O764 Li704 1.956 . S
O764 Li705 1.970 1_545 S
O764 Li706 1.961 . S
O764 C708 1.325 . S
O765 Li704 1.957 1_565 S
O765 Li705 1.971 . S
O765 Li707 1.984 . S
O765 C714 1.314 . S
O766 Li704 1.958 . S
O766 Li706 1.958 . S
O766 Li707 1.973 1_545 S
O766 C736 1.320 . S
O767 Li705 1.961 . S
O767 Li706 1.970 1_565 S
O767 Li707 1.956 . S
O767 C742 1.325 . S
H768 C710 0.929 . S
H769 C711 0.930 . S
H770 C712 0.930 . S
H771 C713 0.930 . S
H772 C715 0.930 . S
H773 C717 0.929 . S
H774 C718 0.930 . S
H775 C719 0.930 . S
H776 C722 0.930 . S
H777 C725 0.929 . S
H778 C730 0.929 . S
H779 C731 0.930 . S
H780 C738 0.929 . S
H781 C739 0.930 . S
H782 C740 0.930 . S
H783 C741 0.930 . S
H784 C743 0.929 . S
H785 C744 0.930 . S
H786 C745 0.930 . S
H787 C746 0.930 . S
H788 C750 0.929 . S
H789 C752 0.930 . S
H790 C758 0.929 . S
H791 C759 0.930 . S
Li792 N809 1.990 . S
Li792 O852 1.956 . S
Li792 O853 1.970 . S
Li792 O854 1.961 . S
Li793 N817 1.990 . S
Li793 O852 1.970 . S
Li793 O853 1.956 . S
Li793 O855 1.961 . S
Li794 N839 1.990 . S
Li794 O852 1.961 . S
Li794 O854 1.956 . S
Li794 O855 1.970 . S
Li795 N845 1.990 . S
Li795 O853 1.961 . S
Li795 O854 1.970 . S
Li795 O855 1.956 . S
C796 C798 1.348 . S
C796 C799 1.356 . S
C796 O852 1.325 . S
N797 C800 1.314 . S
N797 C801 1.279 . S
C798 C796 1.348 . S
C798 C800 1.353 . S
C798 H856 0.929 . S
C799 C796 1.356 . S
C799 C801 1.358 . S
C799 H857 0.930 . S
C800 N797 1.314 . S
C800 C798 1.353 . S
C800 H858 0.930 . S
C801 N797 1.279 . S
C801 C799 1.358 . S
C801 H859 0.930 . S
C802 C805 1.348 . S
C802 C806 1.356 . S
C802 O853 1.325 . S
C803 N804 1.279 . S
C803 C806 1.358 . S
C803 H860 0.930 . S
N804 C803 1.279 . S
N804 C807 1.314 . S
C805 C802 1.348 . S
C805 C807 1.353 . S
C805 H861 0.929 . S
C806 C802 1.356 . S
C806 C803 1.358 . S
C806 H862 0.930 . S
C807 N804 1.314 . S
C807 C805 1.353 . S
C807 H863 0.930 . S
C808 N809 1.314 . S
C808 C813 1.353 . S
C808 H814 0.930 . S
N809 Li792 1.990 . S
N809 C808 1.314 . S
N809 C811 1.279 . S
C810 C811 1.358 . S
C810 C812 1.356 . S
C810 H864 0.930 . S
C811 N809 1.279 . S
C811 C810 1.358 . S
C811 H815 0.930 . S
C812 C810 1.356 . S
C812 C813 1.348 . S
C813 C808 1.353 . S
C813 C812 1.348 . S
C813 H865 0.929 . S
H814 C808 0.930 . S
H815 C811 0.930 . S
C816 N817 1.314 . S
C816 C818 1.353 . S
C816 H822 0.930 . S
N817 Li793 1.990 . S
N817 C816 1.314 . S
N817 C820 1.279 . S
C818 C816 1.353 . S
C818 C821 1.348 . S
C818 H866 0.929 . S
C819 C820 1.358 . S
C819 C821 1.356 . S
C819 H867 0.930 . S
C820 N817 1.279 . S
C820 C819 1.358 . S
C820 H823 0.930 . S
C821 C818 1.348 . S
C821 C819 1.356 . S
H822 C816 0.930 . S
H823 C820 0.930 . S
C824 C826 1.348 . S
C824 C827 1.356 . S
C824 O854 1.325 . S
N825 C828 1.314 . S
N825 C829 1.279 . S
C826 C824 1.348 . S
C826 C828 1.353 . S
C826 H868 0.929 . S
C827 C824 1.356 . S
C827 C829 1.358 . S
C827 H869 0.930 . S
C828 N825 1.314 . S
C828 C826 1.353 . S
C828 H870 0.930 . S
C829 N825 1.279 . S
C829 C827 1.358 . S
C829 H871 0.930 . S
C830 C831 1.348 . S
C830 C832 1.356 . S
C830 O855 1.325 . S
C831 C830 1.348 . S
C831 C833 1.353 . S
C831 H872 0.929 . S
C832 C830 1.356 . S
C832 C834 1.358 . S
C832 H873 0.930 . S
C833 C831 1.353 . S
C833 N835 1.314 . S
C833 H874 0.930 . S
C834 C832 1.358 . S
C834 N835 1.279 . S
C834 H875 0.930 . S
N835 C833 1.314 . S
N835 C834 1.279 . S
C836 C838 1.353 . S
C836 N839 1.314 . S
C836 H842 0.930 . S
C837 N839 1.279 . S
C837 C840 1.358 . S
C837 H843 0.930 . S
C838 C836 1.353 . S
C838 C841 1.348 . S
C838 H876 0.929 . S
N839 Li794 1.990 . S
N839 C836 1.314 . S
N839 C837 1.279 . S
C840 C837 1.358 . S
C840 C841 1.356 . S
C840 H877 0.930 . S
C841 C838 1.348 . S
C841 C840 1.356 . S
H842 C836 0.930 . S
H843 C837 0.930 . S
C844 N845 1.314 . S
C844 C846 1.353 . S
C844 H850 0.930 . S
N845 Li795 1.990 . S
N845 C844 1.314 . S
N845 C848 1.279 . S
C846 C844 1.353 . S
C846 C849 1.348 . S
C846 H878 0.929 . S
C847 C848 1.358 . S
C847 C849 1.356 . S
C847 H879 0.930 . S
C848 N845 1.279 . S
C848 C847 1.358 . S
C848 H851 0.930 . S
C849 C846 1.348 . S
C849 C847 1.356 . S
H850 C844 0.930 . S
H851 C848 0.930 . S
O852 Li792 1.956 . S
O852 Li793 1.970 . S
O852 Li794 1.961 . S
O852 C796 1.325 . S
O853 Li792 1.970 . S
O853 Li793 1.956 . S
O853 Li795 1.961 . S
O853 C802 1.325 . S
O854 Li792 1.961 . S
O854 Li794 1.956 . S
O854 Li795 1.970 . S
O854 C824 1.325 . S
O855 Li793 1.961 . S
O855 Li794 1.970 . S
O855 Li795 1.956 . S
O855 C830 1.325 . S
H856 C798 0.929 . S
H857 C799 0.930 . S
H858 C800 0.930 . S
H859 C801 0.930 . S
H860 C803 0.930 . S
H861 C805 0.929 . S
H862 C806 0.930 . S
H863 C807 0.930 . S
H864 C810 0.930 . S
H865 C813 0.929 . S
H866 C818 0.929 . S
H867 C819 0.930 . S
H868 C826 0.929 . S
H869 C827 0.930 . S
H870 C828 0.930 . S
H871 C829 0.930 . S
H872 C831 0.929 . S
H873 C832 0.930 . S
H874 C833 0.930 . S
H875 C834 0.930 . S
H876 C838 0.929 . S
H877 C840 0.930 . S
H878 C846 0.929 . S
H879 C847 0.930 . S
Li880 N897 1.990 . S
Li880 O940 1.956 . S
Li880 O941 1.970 . S
Li880 O942 1.961 . S
Li881 N905 1.990 . S
Li881 O940 1.970 . S
Li881 O941 1.956 . S
Li881 O943 1.961 . S
Li882 N927 1.990 1_545 S
Li882 O940 1.961 . S
Li882 O942 1.956 . S
Li882 O943 1.970 . S
Li883 N933 1.990 . S
Li883 O941 1.961 . S
Li883 O942 1.970 . S
Li883 O943 1.956 . S
C884 C886 1.348 . S
C884 C887 1.356 . S
C884 O940 1.325 . S
N885 C888 1.314 . S
N885 C889 1.279 . S
C886 C884 1.348 . S
C886 C888 1.353 . S
C886 H944 0.929 . S
C887 C884 1.356 . S
C887 C889 1.358 . S
C887 H945 0.930 . S
C888 N885 1.314 . S
C888 C886 1.353 . S
C888 H946 0.930 . S
C889 N885 1.279 . S
C889 C887 1.358 . S
C889 H947 0.930 . S
C890 C893 1.348 . S
C890 C894 1.356 . S
C890 O941 1.325 . S
C891 N892 1.279 . S
C891 C894 1.358 . S
C891 H948 0.930 . S
N892 C891 1.279 . S
N892 C895 1.314 . S
C893 C890 1.348 . S
C893 C895 1.353 . S
C893 H949 0.929 . S
C894 C890 1.356 . S
C894 C891 1.358 . S
C894 H950 0.930 . S
C895 N892 1.314 . S
C895 C893 1.353 . S
C895 H951 0.930 . S
C896 N897 1.314 . S
C896 C901 1.353 . S
C896 H902 0.930 . S
N897 Li880 1.990 . S
N897 C896 1.314 . S
N897 C899 1.279 . S
C898 C899 1.358 . S
C898 C900 1.356 . S
C898 H952 0.930 . S
C899 N897 1.279 . S
C899 C898 1.358 . S
C899 H903 0.930 . S
C900 C898 1.356 . S
C900 C901 1.348 . S
C901 C896 1.353 . S
C901 C900 1.348 . S
C901 H953 0.929 . S
H902 C896 0.930 . S
H903 C899 0.930 . S
C904 N905 1.314 . S
C904 C906 1.353 . S
C904 H910 0.930 . S
N905 Li881 1.990 . S
N905 C904 1.314 . S
N905 C908 1.279 . S
C906 C904 1.353 . S
C906 C909 1.348 . S
C906 H954 0.929 . S
C907 C908 1.358 . S
C907 C909 1.356 . S
C907 H955 0.930 . S
C908 N905 1.279 . S
C908 C907 1.358 . S
C908 H911 0.930 . S
C909 C906 1.348 . S
C909 C907 1.356 . S
H910 C904 0.930 . S
H911 C908 0.930 . S
C912 C914 1.348 . S
C912 C915 1.356 . S
C912 O942 1.325 1_565 S
N913 C916 1.314 . S
N913 C917 1.279 . S
C914 C912 1.348 . S
C914 C916 1.353 . S
C914 H956 0.929 . S
C915 C912 1.356 . S
C915 C917 1.358 . S
C915 H957 0.930 . S
C916 N913 1.314 . S
C916 C914 1.353 . S
C916 H958 0.930 . S
C917 N913 1.279 . S
C917 C915 1.358 . S
C917 H959 0.930 . S
C918 C919 1.368 . S
C918 C920 1.356 . S
C918 O943 1.325 . S
C919 C918 1.368 . S
C919 C921 1.352 1_545 S
C919 H960 0.910 1_545 S
C920 C918 1.356 . S
C920 C922 1.358 . S
C920 H961 0.930 . S
C921 C919 1.352 1_565 S
C921 N923 1.314 1_565 S
C921 H962 0.930 . S
C922 C920 1.358 . S
C922 N923 1.279 . S
C922 H963 0.930 . S
N923 C921 1.314 1_545 S
N923 C922 1.279 . S
C924 C926 1.353 . S
C924 N927 1.314 . S
C924 H930 0.930 . S
C925 N927 1.279 . S
C925 C928 1.358 . S
C925 H931 0.930 . S
C926 C924 1.353 . S
C926 C929 1.348 . S
C926 H964 0.929 . S
N927 Li882 1.990 1_565 S
N927 C924 1.314 . S
N927 C925 1.279 . S
C928 C925 1.358 . S
C928 C929 1.356 . S
C928 H965 0.930 . S
C929 C926 1.348 . S
C929 C928 1.356 . S
H930 C924 0.930 . S
H931 C925 0.930 . S
C932 N933 1.314 . S
C932 C934 1.353 . S
C932 H938 0.930 . S
N933 Li883 1.990 . S
N933 C932 1.314 . S
N933 C936 1.279 . S
C934 C932 1.353 . S
C934 C937 1.348 . S
C934 H966 0.929 . S
C935 C936 1.358 . S
C935 C937 1.356 . S
C935 H967 0.930 . S
C936 N933 1.279 . S
C936 C935 1.358 . S
C936 H939 0.930 . S
C937 C934 1.348 . S
C937 C935 1.356 . S
H938 C932 0.930 . S
H939 C936 0.930 . S
O940 Li880 1.956 . S
O940 Li881 1.970 . S
O940 Li882 1.961 . S
O940 C884 1.325 . S
O941 Li880 1.970 . S
O941 Li881 1.956 . S
O941 Li883 1.961 . S
O941 C890 1.325 . S
O942 Li880 1.961 . S
O942 Li882 1.956 . S
O942 Li883 1.970 . S
O942 C912 1.325 1_545 S
O943 Li881 1.961 . S
O943 Li882 1.970 . S
O943 Li883 1.956 . S
O943 C918 1.325 . S
H944 C886 0.929 . S
H945 C887 0.930 . S
H946 C888 0.930 . S
H947 C889 0.930 . S
H948 C891 0.930 . S
H949 C893 0.929 . S
H950 C894 0.930 . S
H951 C895 0.930 . S
H952 C898 0.930 . S
H953 C901 0.929 . S
H954 C906 0.929 . S
H955 C907 0.930 . S
H956 C914 0.929 . S
H957 C915 0.930 . S
H958 C916 0.930 . S
H959 C917 0.930 . S
H960 C919 0.910 1_565 S
H961 C920 0.930 . S
H962 C921 0.930 . S
H963 C922 0.930 . S
H964 C926 0.929 . S
H965 C928 0.930 . S
H966 C934 0.929 . S
H967 C935 0.930 . S
Li968 N985 1.990 . S
Li968 O1028 1.956 . S
Li968 O1029 1.970 . S
Li968 O1030 1.961 . S
Li969 N993 1.990 . S
Li969 O1028 1.970 . S
Li969 O1029 1.956 . S
Li969 O1031 1.961 . S
Li970 N1015 1.990 1_655 S
Li970 O1028 1.961 . S
Li970 O1030 1.956 . S
Li970 O1031 1.970 . S
Li971 N1021 1.990 . S
Li971 O1029 1.961 . S
Li971 O1030 1.970 . S
Li971 O1031 1.956 . S
C972 C974 1.348 . S
C972 C975 1.356 . S
C972 O1028 1.325 . S
N973 C976 1.314 . S
N973 C977 1.279 . S
C974 C972 1.348 . S
C974 C976 1.353 . S
C974 H1032 0.929 . S
C975 C972 1.356 . S
C975 C977 1.358 . S
C975 H1033 0.930 . S
C976 N973 1.314 . S
C976 C974 1.353 . S
C976 H1034 0.930 . S
C977 N973 1.279 . S
C977 C975 1.358 . S
C977 H1035 0.930 . S
C978 C981 1.348 . S
C978 C982 1.356 . S
C978 O1029 1.325 . S
C979 N980 1.279 . S
C979 C982 1.358 . S
C979 H1036 0.930 . S
N980 C979 1.279 . S
N980 C983 1.314 . S
C981 C978 1.348 . S
C981 C983 1.353 . S
C981 H1037 0.929 . S
C982 C978 1.356 . S
C982 C979 1.358 . S
C982 H1038 0.930 . S
C983 N980 1.314 . S
C983 C981 1.353 . S
C983 H1039 0.930 . S
C984 N985 1.314 . S
C984 C989 1.353 . S
C984 H990 0.930 . S
N985 Li968 1.990 . S
N985 C984 1.314 . S
N985 C987 1.279 . S
C986 C987 1.358 . S
C986 C988 1.356 . S
C986 H1040 0.930 . S
C987 N985 1.279 . S
C987 C986 1.358 . S
C987 H991 0.930 . S
C988 C986 1.356 . S
C988 C989 1.348 . S
C989 C984 1.353 . S
C989 C988 1.348 . S
C989 H1041 0.929 . S
H990 C984 0.930 . S
H991 C987 0.930 . S
C992 N993 1.314 . S
C992 C994 1.353 . S
C992 H998 0.930 1_655 S
N993 Li969 1.990 . S
N993 C992 1.314 . S
N993 C996 1.279 . S
C994 C992 1.353 . S
C994 C997 1.348 . S
C994 H1042 0.929 1_655 S
C995 C996 1.358 . S
C995 C997 1.356 . S
C995 H1043 0.930 . S
C996 N993 1.279 . S
C996 C995 1.358 . S
C996 H999 0.930 . S
C997 C994 1.348 . S
C997 C995 1.356 . S
H998 C992 0.930 1_455 S
H999 C996 0.930 . S
C1000 C1002 1.348 . S
C1000 C1003 1.356 . S
C1000 O1030 1.325 . S
N1001 C1004 1.314 . S
N1001 C1005 1.279 . S
C1002 C1000 1.348 . S
C1002 C1004 1.353 . S
C1002 H1044 0.929 . S
C1003 C1000 1.356 . S
C1003 C1005 1.358 . S
C1003 H1045 0.930 . S
C1004 N1001 1.314 . S
C1004 C1002 1.353 . S
C1004 H1046 0.930 . S
C1005 N1001 1.279 . S
C1005 C1003 1.358 . S
C1005 H1047 0.930 . S
C1006 C1007 1.348 . S
C1006 C1008 1.356 . S
C1006 O1031 1.325 1_455 S
C1007 C1006 1.348 . S
C1007 C1009 1.353 . S
C1007 H1048 0.929 . S
C1008 C1006 1.356 . S
C1008 C1010 1.358 . S
C1008 H1049 0.930 1_455 S
C1009 C1007 1.353 . S
C1009 N1011 1.314 . S
C1009 H1050 0.930 . S
C1010 C1008 1.358 . S
C1010 N1011 1.279 . S
C1010 H1051 0.930 . S
N1011 C1009 1.314 . S
N1011 C1010 1.279 . S
C1012 C1014 1.353 . S
C1012 N1015 1.314 . S
C1012 H1018 0.930 . S
C1013 N1015 1.279 . S
C1013 C1016 1.358 . S
C1013 H1019 0.930 . S
C1014 C1012 1.353 . S
C1014 C1017 1.348 . S
C1014 H1052 0.929 . S
N1015 Li970 1.990 1_455 S
N1015 C1012 1.314 . S
N1015 C1013 1.279 . S
C1016 C1013 1.358 . S
C1016 C1017 1.356 . S
C1016 H1053 0.930 . S
C1017 C1014 1.348 . S
C1017 C1016 1.356 . S
H1018 C1012 0.930 . S
H1019 C1013 0.930 . S
C1020 N1021 1.314 . S
C1020 C1022 1.353 . S
C1020 H1026 0.930 . S
N1021 Li971 1.990 . S
N1021 C1020 1.314 . S
N1021 C1024 1.279 . S
C1022 C1020 1.353 . S
C1022 C1025 1.348 . S
C1022 H1054 0.929 . S
C1023 C1024 1.358 . S
C1023 C1025 1.356 . S
C1023 H1055 0.930 . S
C1024 N1021 1.279 . S
C1024 C1023 1.358 . S
C1024 H1027 0.930 . S
C1025 C1022 1.348 . S
C1025 C1023 1.356 . S
H1026 C1020 0.930 . S
H1027 C1024 0.930 . S
O1028 Li968 1.956 . S
O1028 Li969 1.970 . S
O1028 Li970 1.961 . S
O1028 C972 1.325 . S
O1029 Li968 1.970 . S
O1029 Li969 1.956 . S
O1029 Li971 1.961 . S
O1029 C978 1.325 . S
O1030 Li968 1.961 . S
O1030 Li970 1.956 . S
O1030 Li971 1.970 . S
O1030 C1000 1.325 . S
O1031 Li969 1.961 . S
O1031 Li970 1.970 . S
O1031 Li971 1.956 . S
O1031 C1006 1.325 1_655 S
H1032 C974 0.929 . S
H1033 C975 0.930 . S
H1034 C976 0.930 . S
H1035 C977 0.930 . S
H1036 C979 0.930 . S
H1037 C981 0.929 . S
H1038 C982 0.930 . S
H1039 C983 0.930 . S
H1040 C986 0.930 . S
H1041 C989 0.929 . S
H1042 C994 0.929 1_455 S
H1043 C995 0.930 . S
H1044 C1002 0.929 . S
H1045 C1003 0.930 . S
H1046 C1004 0.930 . S
H1047 C1005 0.930 . S
H1048 C1007 0.929 . S
H1049 C1008 0.930 1_655 S
H1050 C1009 0.930 . S
H1051 C1010 0.930 . S
H1052 C1014 0.929 . S
H1053 C1016 0.930 . S
H1054 C1022 0.929 . S
H1055 C1023 0.930 . S
Li1056 N1073 1.990 . S
Li1056 O1116 1.956 . S
Li1056 O1117 1.970 . S
Li1056 O1118 1.961 . S
Li1057 N1081 1.990 . S
Li1057 O1116 1.970 . S
Li1057 O1117 1.956 . S
Li1057 O1119 1.961 . S
Li1058 N1103 1.990 . S
Li1058 O1116 1.961 . S
Li1058 O1118 1.956 . S
Li1058 O1119 1.970 . S
Li1059 N1109 1.990 . S
Li1059 O1117 1.961 . S
Li1059 O1118 1.970 . S
Li1059 O1119 1.956 . S
C1060 C1062 1.348 . S
C1060 C1063 1.356 . S
C1060 O1116 1.325 . S
N1061 C1064 1.314 . S
N1061 C1065 1.279 . S
C1062 C1060 1.348 . S
C1062 C1064 1.353 . S
C1062 H1120 0.929 . S
C1063 C1060 1.356 . S
C1063 C1065 1.358 . S
C1063 H1121 0.930 . S
C1064 N1061 1.314 . S
C1064 C1062 1.353 . S
C1064 H1122 0.930 . S
C1065 N1061 1.279 . S
C1065 C1063 1.358 . S
C1065 H1123 0.930 . S
C1066 C1069 1.348 . S
C1066 C1070 1.356 . S
C1066 O1117 1.325 . S
C1067 N1068 1.279 . S
C1067 C1070 1.358 . S
C1067 H1124 0.930 . S
N1068 C1067 1.279 . S
N1068 C1071 1.314 . S
C1069 C1066 1.348 . S
C1069 C1071 1.353 . S
C1069 H1125 0.929 . S
C1070 C1066 1.356 . S
C1070 C1067 1.358 . S
C1070 H1126 0.930 . S
C1071 N1068 1.314 . S
C1071 C1069 1.353 . S
C1071 H1127 0.930 . S
C1072 N1073 1.314 . S
C1072 C1077 1.353 . S
C1072 H1078 0.930 . S
N1073 Li1056 1.990 . S
N1073 C1072 1.314 . S
N1073 C1075 1.279 . S
C1074 C1075 1.358 . S
C1074 C1076 1.356 . S
C1074 H1128 0.930 . S
C1075 N1073 1.279 . S
C1075 C1074 1.358 . S
C1075 H1079 0.930 . S
C1076 C1074 1.356 . S
C1076 C1077 1.348 . S
C1077 C1072 1.353 . S
C1077 C1076 1.348 . S
C1077 H1129 0.929 . S
H1078 C1072 0.930 . S
H1079 C1075 0.930 . S
C1080 N1081 1.314 . S
C1080 C1082 1.353 . S
C1080 H1086 0.930 . S
N1081 Li1057 1.990 . S
N1081 C1080 1.314 . S
N1081 C1084 1.279 . S
C1082 C1080 1.353 . S
C1082 C1085 1.348 . S
C1082 H1130 0.929 . S
C1083 C1084 1.358 . S
C1083 C1085 1.356 . S
C1083 H1131 0.930 . S
C1084 N1081 1.279 . S
C1084 C1083 1.358 . S
C1084 H1087 0.930 . S
C1085 C1082 1.348 . S
C1085 C1083 1.356 . S
H1086 C1080 0.930 . S
H1087 C1084 0.930 . S
C1088 C1090 1.348 . S
C1088 C1091 1.356 . S
C1088 O1118 1.325 . S
N1089 C1092 1.314 . S
N1089 C1093 1.279 . S
C1090 C1088 1.348 . S
C1090 C1092 1.353 . S
C1090 H1132 0.929 . S
C1091 C1088 1.356 . S
C1091 C1093 1.358 . S
C1091 H1133 0.930 . S
C1092 N1089 1.314 . S
C1092 C1090 1.353 . S
C1092 H1134 0.930 . S
C1093 N1089 1.279 . S
C1093 C1091 1.358 . S
C1093 H1135 0.930 . S
C1094 C1095 1.348 . S
C1094 C1096 1.356 . S
C1094 O1119 1.325 . S
C1095 C1094 1.348 . S
C1095 C1097 1.353 . S
C1095 H1136 0.929 . S
C1096 C1094 1.356 . S
C1096 C1098 1.358 . S
C1096 H1137 0.930 . S
C1097 C1095 1.353 . S
C1097 N1099 1.314 . S
C1097 H1138 0.930 . S
C1098 C1096 1.358 . S
C1098 N1099 1.279 . S
C1098 H1139 0.930 . S
N1099 C1097 1.314 . S
N1099 C1098 1.279 . S
C1100 C1102 1.353 . S
C1100 N1103 1.314 . S
C1100 H1106 0.930 . S
C1101 N1103 1.279 . S
C1101 C1104 1.358 . S
C1101 H1107 0.930 . S
C1102 C1100 1.353 . S
C1102 C1105 1.348 . S
C1102 H1140 0.929 . S
N1103 Li1058 1.990 . S
N1103 C1100 1.314 . S
N1103 C1101 1.279 . S
C1104 C1101 1.358 . S
C1104 C1105 1.356 . S
C1104 H1141 0.930 . S
C1105 C1102 1.348 . S
C1105 C1104 1.356 . S
H1106 C1100 0.930 . S
H1107 C1101 0.930 . S
C1108 N1109 1.314 . S
C1108 C1110 1.353 . S
C1108 H1114 0.930 . S
N1109 Li1059 1.990 . S
N1109 C1108 1.314 . S
N1109 C1112 1.279 . S
C1110 C1108 1.353 . S
C1110 C1113 1.348 . S
C1110 H1142 0.929 . S
C1111 C1112 1.358 . S
C1111 C1113 1.356 . S
C1111 H1143 0.930 . S
C1112 N1109 1.279 . S
C1112 C1111 1.358 . S
C1112 H1115 0.930 . S
C1113 C1110 1.348 . S
C1113 C1111 1.356 . S
H1114 C1108 0.930 . S
H1115 C1112 0.930 . S
O1116 Li1056 1.956 . S
O1116 Li1057 1.970 . S
O1116 Li1058 1.961 . S
O1116 C1060 1.325 . S
O1117 Li1056 1.970 . S
O1117 Li1057 1.956 . S
O1117 Li1059 1.961 . S
O1117 C1066 1.325 . S
O1118 Li1056 1.961 . S
O1118 Li1058 1.956 . S
O1118 Li1059 1.970 . S
O1118 C1088 1.325 . S
O1119 Li1057 1.961 . S
O1119 Li1058 1.970 . S
O1119 Li1059 1.956 . S
O1119 C1094 1.325 . S
H1120 C1062 0.929 . S
H1121 C1063 0.930 . S
H1122 C1064 0.930 . S
H1123 C1065 0.930 . S
H1124 C1067 0.930 . S
H1125 C1069 0.929 . S
H1126 C1070 0.930 . S
H1127 C1071 0.930 . S
H1128 C1074 0.930 . S
H1129 C1077 0.929 . S
H1130 C1082 0.929 . S
H1131 C1083 0.930 . S
H1132 C1090 0.929 . S
H1133 C1091 0.930 . S
H1134 C1092 0.930 . S
H1135 C1093 0.930 . S
H1136 C1095 0.929 . S
H1137 C1096 0.930 . S
H1138 C1097 0.930 . S
H1139 C1098 0.930 . S
H1140 C1102 0.929 . S
H1141 C1104 0.930 . S
H1142 C1110 0.929 . S
H1143 C1111 0.930 . S
Li1144 N1161 1.990 . S
Li1144 O1204 1.956 . S
Li1144 O1205 1.970 . S
Li1144 O1206 1.961 . S
Li1145 N1169 1.990 1_565 S
Li1145 O1204 1.970 . S
Li1145 O1205 1.956 . S
Li1145 O1207 1.961 . S
Li1146 N1191 1.990 . S
Li1146 O1204 1.961 . S
Li1146 O1206 1.956 . S
Li1146 O1207 1.970 . S
Li1147 N1197 1.990 . S
Li1147 O1205 1.961 . S
Li1147 O1206 1.970 . S
Li1147 O1207 1.956 . S
C1148 C1150 1.348 . S
C1148 C1151 1.356 . S
C1148 O1204 1.325 1_545 S
N1149 C1152 1.314 . S
N1149 C1153 1.279 . S
C1150 C1148 1.348 . S
C1150 C1152 1.353 . S
C1150 H1208 0.929 . S
C1151 C1148 1.356 . S
C1151 C1153 1.358 . S
C1151 H1209 0.930 1_545 S
C1152 N1149 1.314 . S
C1152 C1150 1.353 . S
C1152 H1210 0.930 . S
C1153 N1149 1.279 . S
C1153 C1151 1.358 . S
C1153 H1211 0.930 . S
C1154 C1157 1.348 . S
C1154 C1158 1.356 . S
C1154 O1205 1.325 . S
C1155 N1156 1.279 . S
C1155 C1158 1.358 . S
C1155 H1212 0.930 . S
N1156 C1155 1.279 . S
N1156 C1159 1.314 . S
C1157 C1154 1.348 . S
C1157 C1159 1.353 . S
C1157 H1213 0.929 . S
C1158 C1154 1.356 . S
C1158 C1155 1.358 . S
C1158 H1214 0.930 . S
C1159 N1156 1.314 . S
C1159 C1157 1.353 . S
C1159 H1215 0.925 . S
C1160 N1161 1.314 . S
C1160 C1165 1.353 . S
C1160 H1166 0.930 . S
N1161 Li1144 1.990 . S
N1161 C1160 1.314 . S
N1161 C1163 1.279 . S
C1162 C1163 1.358 . S
C1162 C1164 1.356 . S
C1162 H1216 0.930 1_565 S
C1163 N1161 1.279 . S
C1163 C1162 1.358 . S
C1163 H1167 0.930 1_565 S
C1164 C1162 1.356 . S
C1164 C1165 1.348 . S
C1165 C1160 1.353 . S
C1165 C1164 1.348 . S
C1165 H1217 0.929 . S
H1166 C1160 0.930 . S
H1167 C1163 0.930 1_545 S
C1168 N1169 1.314 . S
C1168 C1170 1.353 . S
C1168 H1174 0.930 . S
N1169 Li1145 1.990 1_545 S
N1169 C1168 1.314 . S
N1169 C1172 1.279 . S
C1170 C1168 1.353 . S
C1170 C1173 1.348 . S
C1170 H1218 0.929 . S
C1171 C1172 1.358 . S
C1171 C1173 1.356 . S
C1171 H1219 0.930 . S
C1172 N1169 1.279 . S
C1172 C1171 1.358 . S
C1172 H1175 0.930 . S
C1173 C1170 1.348 . S
C1173 C1171 1.356 . S
H1174 C1168 0.930 . S
H1175 C1172 0.930 . S
C1176 C1178 1.348 . S
C1176 C1179 1.356 . S
C1176 O1206 1.325 . S
N1177 C1180 1.314 . S
N1177 C1181 1.279 . S
C1178 C1176 1.348 . S
C1178 C1180 1.353 . S
C1178 H1220 0.929 . S
C1179 C1176 1.356 . S
C1179 C1181 1.358 . S
C1179 H1221 0.930 . S
C1180 N1177 1.314 . S
C1180 C1178 1.353 . S
C1180 H1222 0.930 . S
C1181 N1177 1.279 . S
C1181 C1179 1.358 . S
C1181 H1223 0.930 . S
C1182 C1183 1.348 . S
C1182 C1184 1.356 . S
C1182 O1207 1.325 . S
C1183 C1182 1.348 . S
C1183 C1185 1.353 . S
C1183 H1224 0.929 . S
C1184 C1182 1.356 . S
C1184 C1186 1.358 . S
C1184 H1225 0.930 . S
C1185 C1183 1.353 . S
C1185 N1187 1.314 . S
C1185 H1226 0.930 . S
C1186 C1184 1.358 . S
C1186 N1187 1.279 . S
C1186 H1227 0.930 . S
N1187 C1185 1.314 . S
N1187 C1186 1.279 . S
C1188 C1190 1.353 . S
C1188 N1191 1.314 . S
C1188 H1194 0.930 . S
C1189 N1191 1.279 . S
C1189 C1192 1.358 . S
C1189 H1195 0.930 . S
C1190 C1188 1.353 . S
C1190 C1193 1.348 . S
C1190 H1228 0.929 . S
N1191 Li1146 1.990 . S
N1191 C1188 1.314 . S
N1191 C1189 1.279 . S
C1192 C1189 1.358 . S
C1192 C1193 1.356 . S
C1192 H1229 0.930 . S
C1193 C1190 1.348 . S
C1193 C1192 1.356 . S
H1194 C1188 0.930 . S
H1195 C1189 0.930 . S
C1196 N1197 1.314 . S
C1196 C1198 1.353 . S
C1196 H1202 0.930 . S
N1197 Li1147 1.990 . S
N1197 C1196 1.314 . S
N1197 C1200 1.279 . S
C1198 C1196 1.353 . S
C1198 C1201 1.348 . S
C1198 H1230 0.929 . S
C1199 C1200 1.358 . S
C1199 C1201 1.356 . S
C1199 H1231 0.930 . S
C1200 N1197 1.279 . S
C1200 C1199 1.358 . S
C1200 H1203 0.930 . S
C1201 C1198 1.348 . S
C1201 C1199 1.356 . S
H1202 C1196 0.930 . S
H1203 C1200 0.930 . S
O1204 Li1144 1.956 . S
O1204 Li1145 1.970 . S
O1204 Li1146 1.961 . S
O1204 C1148 1.325 1_565 S
O1205 Li1144 1.970 . S
O1205 Li1145 1.956 . S
O1205 Li1147 1.961 . S
O1205 C1154 1.325 . S
O1206 Li1144 1.961 . S
O1206 Li1146 1.956 . S
O1206 Li1147 1.970 . S
O1206 C1176 1.325 . S
O1207 Li1145 1.961 . S
O1207 Li1146 1.970 . S
O1207 Li1147 1.956 . S
O1207 C1182 1.325 . S
H1208 C1150 0.929 . S
H1209 C1151 0.930 1_565 S
H1210 C1152 0.930 . S
H1211 C1153 0.930 . S
H1212 C1155 0.930 . S
H1213 C1157 0.929 . S
H1214 C1158 0.930 . S
H1215 C1159 0.925 . S
H1216 C1162 0.930 1_545 S
H1217 C1165 0.929 . S
H1218 C1170 0.929 . S
H1219 C1171 0.930 . S
H1220 C1178 0.929 . S
H1221 C1179 0.930 . S
H1222 C1180 0.930 . S
H1223 C1181 0.930 . S
H1224 C1183 0.929 . S
H1225 C1184 0.930 . S
H1226 C1185 0.930 . S
H1227 C1186 0.930 . S
H1228 C1190 0.929 . S
H1229 C1192 0.930 . S
H1230 C1198 0.929 . S
H1231 C1199 0.930 . S
Li1232 N1249 1.990 . S
Li1232 O1292 1.956 . S
Li1232 O1293 1.970 . S
Li1232 O1294 1.961 . S
Li1233 N1257 1.990 . S
Li1233 O1292 1.970 . S
Li1233 O1293 1.956 . S
Li1233 O1295 1.961 . S
Li1234 N1279 1.990 1_455 S
Li1234 O1292 1.961 . S
Li1234 O1294 1.956 . S
Li1234 O1295 1.970 . S
Li1235 N1285 1.990 . S
Li1235 O1293 1.961 . S
Li1235 O1294 1.970 . S
Li1235 O1295 1.956 . S
C1236 C1238 1.348 . S
C1236 C1239 1.356 . S
C1236 O1292 1.325 1_655 S
N1237 C1240 1.314 . S
N1237 C1241 1.279 . S
C1238 C1236 1.348 . S
C1238 C1240 1.353 . S
C1238 H1296 0.929 1_655 S
C1239 C1236 1.356 . S
C1239 C1241 1.358 . S
C1239 H1297 0.930 . S
C1240 N1237 1.314 . S
C1240 C1238 1.353 . S
C1240 H1298 0.930 . S
C1241 N1237 1.279 . S
C1241 C1239 1.358 . S
C1241 H1299 0.930 . S
C1242 C1245 1.348 . S
C1242 C1246 1.356 . S
C1242 O1293 1.325 . S
C1243 N1244 1.279 . S
C1243 C1246 1.358 . S
C1243 H1300 0.930 . S
N1244 C1243 1.279 . S
N1244 C1247 1.314 . S
C1245 C1242 1.348 . S
C1245 C1247 1.353 . S
C1245 H1301 0.929 . S
C1246 C1242 1.356 . S
C1246 C1243 1.358 . S
C1246 H1302 0.930 . S
C1247 N1244 1.314 . S
C1247 C1245 1.353 . S
C1247 H1303 0.930 . S
C1248 N1249 1.314 . S
C1248 C1253 1.353 . S
C1248 H1254 0.930 . S
N1249 Li1232 1.990 . S
N1249 C1248 1.314 . S
N1249 C1251 1.279 . S
C1250 C1251 1.358 . S
C1250 C1252 1.356 . S
C1250 H1304 0.930 . S
C1251 N1249 1.279 . S
C1251 C1250 1.358 . S
C1251 H1255 0.930 . S
C1252 C1250 1.356 . S
C1252 C1253 1.348 . S
C1253 C1248 1.353 . S
C1253 C1252 1.348 . S
C1253 H1305 0.929 . S
H1254 C1248 0.930 . S
H1255 C1251 0.930 . S
C1256 N1257 1.314 . S
C1256 C1258 1.353 . S
C1256 H1262 0.930 . S
N1257 Li1233 1.990 . S
N1257 C1256 1.314 . S
N1257 C1260 1.279 . S
C1258 C1256 1.353 . S
C1258 C1261 1.348 . S
C1258 H1306 0.929 1_455 S
C1259 C1260 1.358 . S
C1259 C1261 1.356 . S
C1259 H1307 0.930 . S
C1260 N1257 1.279 . S
C1260 C1259 1.358 . S
C1260 H1263 0.930 . S
C1261 C1258 1.348 . S
C1261 C1259 1.356 . S
H1262 C1256 0.930 . S
H1263 C1260 0.930 . S
C1264 C1266 1.348 . S
C1264 C1267 1.356 . S
C1264 O1294 1.325 . S
N1265 C1268 1.314 . S
N1265 C1269 1.279 . S
C1266 C1264 1.348 . S
C1266 C1268 1.353 . S
C1266 H1308 0.929 . S
C1267 C1264 1.356 . S
C1267 C1269 1.358 . S
C1267 H1309 0.930 . S
C1268 N1265 1.314 . S
C1268 C1266 1.353 . S
C1268 H1310 0.930 . S
C1269 N1265 1.279 . S
C1269 C1267 1.358 . S
C1269 H1311 0.930 . S
C1270 C1271 1.348 . S
C1270 C1272 1.356 . S
C1270 O1295 1.325 . S
C1271 C1270 1.348 . S
C1271 C1273 1.353 . S
C1271 H1312 0.929 1_455 S
C1272 C1270 1.356 . S
C1272 C1274 1.358 . S
C1272 H1313 0.930 . S
C1273 C1271 1.353 . S
C1273 N1275 1.314 . S
C1273 H1314 0.930 1_455 S
C1274 C1272 1.358 . S
C1274 N1275 1.279 . S
C1274 H1315 0.930 . S
N1275 C1273 1.314 . S
N1275 C1274 1.279 . S
C1276 C1278 1.353 . S
C1276 N1279 1.314 . S
C1276 H1282 0.930 . S
C1277 N1279 1.279 . S
C1277 C1280 1.358 . S
C1277 H1283 0.930 . S
C1278 C1276 1.353 . S
C1278 C1281 1.348 . S
C1278 H1316 0.929 . S
N1279 Li1234 1.990 1_655 S
N1279 C1276 1.314 . S
N1279 C1277 1.279 . S
C1280 C1277 1.358 . S
C1280 C1281 1.356 . S
C1280 H1317 0.930 . S
C1281 C1278 1.348 . S
C1281 C1280 1.356 . S
H1282 C1276 0.930 . S
H1283 C1277 0.930 . S
C1284 N1285 1.314 . S
C1284 C1286 1.353 . S
C1284 H1290 0.930 . S
N1285 Li1235 1.990 . S
N1285 C1284 1.314 . S
N1285 C1288 1.279 . S
C1286 C1284 1.353 . S
C1286 C1289 1.348 . S
C1286 H1318 0.929 . S
C1287 C1288 1.358 . S
C1287 C1289 1.356 . S
C1287 H1319 0.930 . S
C1288 N1285 1.279 . S
C1288 C1287 1.358 . S
C1288 H1291 0.930 . S
C1289 C1286 1.348 . S
C1289 C1287 1.356 . S
H1290 C1284 0.930 . S
H1291 C1288 0.930 . S
O1292 Li1232 1.956 . S
O1292 Li1233 1.970 . S
O1292 Li1234 1.961 . S
O1292 C1236 1.325 1_455 S
O1293 Li1232 1.970 . S
O1293 Li1233 1.956 . S
O1293 Li1235 1.961 . S
O1293 C1242 1.325 . S
O1294 Li1232 1.961 . S
O1294 Li1234 1.956 . S
O1294 Li1235 1.970 . S
O1294 C1264 1.325 . S
O1295 Li1233 1.961 . S
O1295 Li1234 1.970 . S
O1295 Li1235 1.956 . S
O1295 C1270 1.325 . S
H1296 C1238 0.929 1_455 S
H1297 C1239 0.930 . S
H1298 C1240 0.930 . S
H1299 C1241 0.930 . S
H1300 C1243 0.930 . S
H1301 C1245 0.929 . S
H1302 C1246 0.930 . S
H1303 C1247 0.930 . S
H1304 C1250 0.930 . S
H1305 C1253 0.929 . S
H1306 C1258 0.929 1_655 S
H1307 C1259 0.930 . S
H1308 C1266 0.929 . S
H1309 C1267 0.930 . S
H1310 C1268 0.930 . S
H1311 C1269 0.930 . S
H1312 C1271 0.929 1_655 S
H1313 C1272 0.930 . S
H1314 C1273 0.930 1_655 S
H1315 C1274 0.930 . S
H1316 C1278 0.929 . S
H1317 C1280 0.930 . S
H1318 C1286 0.929 . S
H1319 C1287 0.930 . S
Li1320 N1337 1.990 . S
Li1320 O1380 1.955 1_655 S
Li1320 O1381 2.001 . S
Li1320 O1382 1.961 . S
Li1321 N1345 1.990 . S
Li1321 O1380 1.972 . S
Li1321 O1381 1.934 1_455 S
Li1321 O1383 1.961 . S
Li1322 N1367 1.990 . S
Li1322 O1380 1.962 1_655 S
Li1322 O1382 1.956 . S
Li1322 O1383 1.970 1_655 S
Li1323 N1373 1.990 . S
Li1323 O1381 1.938 1_455 S
Li1323 O1382 1.970 1_455 S
Li1323 O1383 1.956 . S
C1324 C1326 1.348 1_655 S
C1324 C1327 1.356 . S
C1324 O1380 1.323 1_655 S
N1325 C1328 1.314 1_655 S
N1325 C1329 1.279 . S
C1326 C1324 1.348 1_455 S
C1326 C1328 1.353 . S
C1326 H1384 0.929 . S
C1327 C1324 1.356 . S
C1327 C1329 1.358 . S
C1327 H1385 0.930 . S
C1328 N1325 1.314 1_455 S
C1328 C1326 1.353 . S
C1328 H1386 0.930 . S
C1329 N1325 1.279 . S
C1329 C1327 1.358 . S
C1329 H1387 0.930 . S
C1330 C1333 1.333 1_455 S
C1330 C1334 1.369 . S
C1330 O1381 1.332 1_455 S
C1331 N1332 1.279 . S
C1331 C1334 1.358 . S
C1331 H1388 0.930 . S
N1332 C1331 1.279 . S
N1332 C1335 1.314 1_455 S
C1333 C1330 1.333 1_655 S
C1333 C1335 1.353 . S
C1333 H1389 0.929 . S
C1334 C1330 1.369 . S
C1334 C1331 1.358 . S
C1334 H1390 0.930 . S
C1335 N1332 1.314 1_655 S
C1335 C1333 1.353 . S
C1335 H1391 0.930 . S
C1336 N1337 1.314 . S
C1336 C1341 1.353 . S
C1336 H1342 0.930 . S
N1337 Li1320 1.990 . S
N1337 C1336 1.314 . S
N1337 C1339 1.279 . S
C1338 C1339 1.358 . S
C1338 C1340 1.356 . S
C1338 H1392 0.930 . S
C1339 N1337 1.279 . S
C1339 C1338 1.358 . S
C1339 H1343 0.930 . S
C1340 C1338 1.356 . S
C1340 C1341 1.348 . S
C1341 C1336 1.353 . S
C1341 C1340 1.348 . S
C1341 H1393 0.929 . S
H1342 C1336 0.930 . S
H1343 C1339 0.930 . S
C1344 N1345 1.314 . S
C1344 C1346 1.353 . S
C1344 H1350 0.930 . S
N1345 Li1321 1.990 . S
N1345 C1344 1.314 . S
N1345 C1348 1.279 . S
C1346 C1344 1.353 . S
C1346 C1349 1.348 . S
C1346 H1394 0.929 . S
C1347 C1348 1.358 . S
C1347 C1349 1.356 . S
C1347 H1395 0.930 . S
C1348 N1345 1.279 . S
C1348 C1347 1.358 . S
C1348 H1351 0.930 . S
C1349 C1346 1.348 . S
C1349 C1347 1.356 . S
H1350 C1344 0.930 . S
H1351 C1348 0.930 . S
C1352 C1354 1.348 . S
C1352 C1355 1.356 . S
C1352 O1382 1.325 . S
N1353 C1356 1.314 . S
N1353 C1357 1.279 . S
C1354 C1352 1.348 . S
C1354 C1356 1.353 . S
C1354 H1396 0.929 . S
C1355 C1352 1.356 . S
C1355 C1357 1.358 . S
C1355 H1397 0.930 . S
C1356 N1353 1.314 . S
C1356 C1354 1.353 . S
C1356 H1398 0.930 . S
C1357 N1353 1.279 . S
C1357 C1355 1.358 . S
C1357 H1399 0.930 . S
C1358 C1359 1.348 . S
C1358 C1360 1.356 . S
C1358 O1383 1.325 . S
C1359 C1358 1.348 . S
C1359 C1361 1.353 . S
C1359 H1400 0.929 . S
C1360 C1358 1.356 . S
C1360 C1362 1.358 . S
C1360 H1401 0.930 . S
C1361 C1359 1.353 . S
C1361 N1363 1.314 . S
C1361 H1402 0.930 . S
C1362 C1360 1.358 . S
C1362 N1363 1.279 . S
C1362 H1403 0.930 . S
N1363 C1361 1.314 . S
N1363 C1362 1.279 . S
C1364 C1366 1.353 . S
C1364 N1367 1.314 1_455 S
C1364 H1370 0.930 . S
C1365 N1367 1.279 . S
C1365 C1368 1.358 . S
C1365 H1371 0.930 . S
C1366 C1364 1.353 . S
C1366 C1369 1.348 1_455 S
C1366 H1404 0.929 . S
N1367 Li1322 1.990 . S
N1367 C1364 1.314 1_655 S
N1367 C1365 1.279 . S
C1368 C1365 1.358 . S
C1368 C1369 1.356 . S
C1368 H1405 0.930 . S
C1369 C1366 1.348 1_655 S
C1369 C1368 1.356 . S
H1370 C1364 0.930 . S
H1371 C1365 0.930 . S
C1372 N1373 1.314 1_655 S
C1372 C1374 1.353 . S
C1372 H1378 0.930 . S
N1373 Li1323 1.990 . S
N1373 C1372 1.314 1_455 S
N1373 C1376 1.279 . S
C1374 C1372 1.353 . S
C1374 C1377 1.348 1_655 S
C1374 H1406 0.929 . S
C1375 C1376 1.358 . S
C1375 C1377 1.356 . S
C1375 H1407 0.930 . S
C1376 N1373 1.279 . S
C1376 C1375 1.358 . S
C1376 H1379 0.930 . S
C1377 C1374 1.348 1_455 S
C1377 C1375 1.356 . S
H1378 C1372 0.930 . S
H1379 C1376 0.930 . S
O1380 Li1320 1.955 1_455 S
O1380 Li1321 1.972 . S
O1380 Li1322 1.962 1_455 S
O1380 C1324 1.323 1_455 S
O1381 Li1320 2.001 . S
O1381 Li1321 1.934 1_655 S
O1381 Li1323 1.938 1_655 S
O1381 C1330 1.332 1_655 S
O1382 Li1320 1.961 . S
O1382 Li1322 1.956 . S
O1382 Li1323 1.970 1_655 S
O1382 C1352 1.325 . S
O1383 Li1321 1.961 . S
O1383 Li1322 1.970 1_455 S
O1383 Li1323 1.956 . S
O1383 C1358 1.325 . S
H1384 C1326 0.929 . S
H1385 C1327 0.930 . S
H1386 C1328 0.930 . S
H1387 C1329 0.930 . S
H1388 C1331 0.930 . S
H1389 C1333 0.929 . S
H1390 C1334 0.930 . S
H1391 C1335 0.930 . S
H1392 C1338 0.930 . S
H1393 C1341 0.929 . S
H1394 C1346 0.929 . S
H1395 C1347 0.930 . S
H1396 C1354 0.929 . S
H1397 C1355 0.930 . S
H1398 C1356 0.930 . S
H1399 C1357 0.930 . S
H1400 C1359 0.929 . S
H1401 C1360 0.930 . S
H1402 C1361 0.930 . S
H1403 C1362 0.930 . S
H1404 C1366 0.929 . S
H1405 C1368 0.930 . S
H1406 C1374 0.929 . S
H1407 C1375 0.930 . S
Li1408 N1425 1.990 . S
Li1408 O1468 1.956 . S
Li1408 O1469 1.970 . S
Li1408 O1470 1.961 . S
Li1409 N1433 1.990 . S
Li1409 O1468 1.970 . S
Li1409 O1469 1.956 . S
Li1409 O1471 1.961 . S
Li1410 N1455 1.990 . S
Li1410 O1468 1.961 . S
Li1410 O1470 1.956 . S
Li1410 O1471 1.970 . S
Li1411 N1461 1.990 . S
Li1411 O1469 1.961 . S
Li1411 O1470 1.970 . S
Li1411 O1471 1.956 . S
C1412 C1414 1.348 . S
C1412 C1415 1.356 . S
C1412 O1468 1.325 . S
N1413 C1416 1.314 . S
N1413 C1417 1.279 . S
C1414 C1412 1.348 . S
C1414 C1416 1.353 . S
C1414 H1472 0.929 . S
C1415 C1412 1.356 . S
C1415 C1417 1.358 . S
C1415 H1473 0.930 . S
C1416 N1413 1.314 . S
C1416 C1414 1.353 . S
C1416 H1474 0.930 . S
C1417 N1413 1.279 . S
C1417 C1415 1.358 . S
C1417 H1475 0.930 . S
C1418 C1421 1.348 . S
C1418 C1422 1.356 . S
C1418 O1469 1.325 . S
C1419 N1420 1.279 . S
C1419 C1422 1.358 . S
C1419 H1476 0.930 . S
N1420 C1419 1.279 . S
N1420 C1423 1.314 . S
C1421 C1418 1.348 . S
C1421 C1423 1.353 . S
C1421 H1477 0.929 . S
C1422 C1418 1.356 . S
C1422 C1419 1.358 . S
C1422 H1478 0.930 . S
C1423 N1420 1.314 . S
C1423 C1421 1.353 . S
C1423 H1479 0.930 . S
C1424 N1425 1.314 . S
C1424 C1429 1.353 . S
C1424 H1430 0.930 . S
N1425 Li1408 1.990 . S
N1425 C1424 1.314 . S
N1425 C1427 1.279 . S
C1426 C1427 1.358 . S
C1426 C1428 1.356 . S
C1426 H1480 0.930 . S
C1427 N1425 1.279 . S
C1427 C1426 1.358 . S
C1427 H1431 0.930 . S
C1428 C1426 1.356 . S
C1428 C1429 1.348 . S
C1429 C1424 1.353 . S
C1429 C1428 1.348 . S
C1429 H1481 0.929 . S
H1430 C1424 0.930 . S
H1431 C1427 0.930 . S
C1432 N1433 1.314 . S
C1432 C1434 1.353 . S
C1432 H1438 0.930 . S
N1433 Li1409 1.990 . S
N1433 C1432 1.314 . S
N1433 C1436 1.279 . S
C1434 C1432 1.353 . S
C1434 C1437 1.348 . S
C1434 H1482 0.929 . S
C1435 C1436 1.358 . S
C1435 C1437 1.356 . S
C1435 H1483 0.930 . S
C1436 N1433 1.279 . S
C1436 C1435 1.358 . S
C1436 H1439 0.930 . S
C1437 C1434 1.348 . S
C1437 C1435 1.356 . S
H1438 C1432 0.930 . S
H1439 C1436 0.930 . S
C1440 C1442 1.348 . S
C1440 C1443 1.356 . S
C1440 O1470 1.325 . S
N1441 C1444 1.314 . S
N1441 C1445 1.279 . S
C1442 C1440 1.348 . S
C1442 C1444 1.353 . S
C1442 H1484 0.929 . S
C1443 C1440 1.356 . S
C1443 C1445 1.358 . S
C1443 H1485 0.930 . S
C1444 N1441 1.314 . S
C1444 C1442 1.353 . S
C1444 H1486 0.930 . S
C1445 N1441 1.279 . S
C1445 C1443 1.358 . S
C1445 H1487 0.930 . S
C1446 C1447 1.348 . S
C1446 C1448 1.356 . S
C1446 O1471 1.325 . S
C1447 C1446 1.348 . S
C1447 C1449 1.353 . S
C1447 H1488 0.929 . S
C1448 C1446 1.356 . S
C1448 C1450 1.358 . S
C1448 H1489 0.930 . S
C1449 C1447 1.353 . S
C1449 N1451 1.314 . S
C1449 H1490 0.930 . S
C1450 C1448 1.358 . S
C1450 N1451 1.279 . S
C1450 H1491 0.930 . S
N1451 C1449 1.314 . S
N1451 C1450 1.279 . S
C1452 C1454 1.353 . S
C1452 N1455 1.314 . S
C1452 H1458 0.930 . S
C1453 N1455 1.279 . S
C1453 C1456 1.358 . S
C1453 H1459 0.930 . S
C1454 C1452 1.353 . S
C1454 C1457 1.348 . S
C1454 H1492 0.929 . S
N1455 Li1410 1.990 . S
N1455 C1452 1.314 . S
N1455 C1453 1.279 . S
C1456 C1453 1.358 . S
C1456 C1457 1.356 . S
C1456 H1493 0.930 . S
C1457 C1454 1.348 . S
C1457 C1456 1.356 . S
H1458 C1452 0.930 . S
H1459 C1453 0.930 . S
C1460 N1461 1.314 . S
C1460 C1462 1.353 . S
C1460 H1466 0.930 . S
N1461 Li1411 1.990 . S
N1461 C1460 1.314 . S
N1461 C1464 1.279 . S
C1462 C1460 1.353 . S
C1462 C1465 1.348 . S
C1462 H1494 0.929 . S
C1463 C1464 1.358 . S
C1463 C1465 1.356 . S
C1463 H1495 0.930 . S
C1464 N1461 1.279 . S
C1464 C1463 1.358 . S
C1464 H1467 0.930 . S
C1465 C1462 1.348 . S
C1465 C1463 1.356 . S
H1466 C1460 0.930 . S
H1467 C1464 0.930 . S
O1468 Li1408 1.956 . S
O1468 Li1409 1.970 . S
O1468 Li1410 1.961 . S
O1468 C1412 1.325 . S
O1469 Li1408 1.970 . S
O1469 Li1409 1.956 . S
O1469 Li1411 1.961 . S
O1469 C1418 1.325 . S
O1470 Li1408 1.961 . S
O1470 Li1410 1.956 . S
O1470 Li1411 1.970 . S
O1470 C1440 1.325 . S
O1471 Li1409 1.961 . S
O1471 Li1410 1.970 . S
O1471 Li1411 1.956 . S
O1471 C1446 1.325 . S
H1472 C1414 0.929 . S
H1473 C1415 0.930 . S
H1474 C1416 0.930 . S
H1475 C1417 0.930 . S
H1476 C1419 0.930 . S
H1477 C1421 0.929 . S
H1478 C1422 0.930 . S
H1479 C1423 0.930 . S
H1480 C1426 0.930 . S
H1481 C1429 0.929 . S
H1482 C1434 0.929 . S
H1483 C1435 0.930 . S
H1484 C1442 0.929 . S
H1485 C1443 0.930 . S
H1486 C1444 0.930 . S
H1487 C1445 0.930 . S
H1488 C1447 0.929 . S
H1489 C1448 0.930 . S
H1490 C1449 0.930 . S
H1491 C1450 0.930 . S
H1492 C1454 0.929 . S
H1493 C1456 0.930 . S
H1494 C1462 0.929 . S
H1495 C1463 0.930 . S
Li1496 N1513 1.990 . S
Li1496 O1556 1.956 . S
Li1496 O1557 1.988 . S
Li1496 O1558 1.961 1_565 S
Li1497 N1521 1.979 1_565 S
Li1497 O1556 1.975 . S
Li1497 O1557 1.947 . S
Li1497 O1559 1.957 1_565 S
Li1498 N1543 1.990 1_545 S
Li1498 O1556 1.963 1_545 S
Li1498 O1558 1.958 . S
Li1498 O1559 1.966 . S
Li1499 N1549 1.990 . S
Li1499 O1557 1.947 1_545 S
Li1499 O1558 1.970 . S
Li1499 O1559 1.956 . S
C1500 C1502 1.348 . S
C1500 C1503 1.356 . S
C1500 O1556 1.325 . S
N1501 C1504 1.314 . S
N1501 C1505 1.279 . S
C1502 C1500 1.348 . S
C1502 C1504 1.353 . S
C1502 H1560 0.929 . S
C1503 C1500 1.356 . S
C1503 C1505 1.358 . S
C1503 H1561 0.930 . S
C1504 N1501 1.314 . S
C1504 C1502 1.353 . S
C1504 H1562 0.930 . S
C1505 N1501 1.279 . S
C1505 C1503 1.358 . S
C1505 H1563 0.930 . S
C1506 C1509 1.365 . S
C1506 C1510 1.341 1_565 S
C1506 O1557 1.325 . S
C1507 N1508 1.278 . S
C1507 C1510 1.358 . S
C1507 H1564 0.930 . S
N1508 C1507 1.278 . S
N1508 C1511 1.316 1_545 S
C1509 C1506 1.365 . S
C1509 C1511 1.353 . S
C1509 H1565 0.929 . S
C1510 C1506 1.341 1_545 S
C1510 C1507 1.358 . S
C1510 H1566 0.930 . S
C1511 N1508 1.316 1_565 S
C1511 C1509 1.353 . S
C1511 H1567 0.930 . S
C1512 N1513 1.314 . S
C1512 C1517 1.353 . S
C1512 H1518 0.930 . S
N1513 Li1496 1.990 . S
N1513 C1512 1.314 . S
N1513 C1515 1.279 . S
C1514 C1515 1.358 . S
C1514 C1516 1.356 . S
C1514 H1568 0.930 . S
C1515 N1513 1.279 . S
C1515 C1514 1.358 . S
C1515 H1519 0.930 . S
C1516 C1514 1.356 . S
C1516 C1517 1.348 . S
C1517 C1512 1.353 . S
C1517 C1516 1.348 . S
C1517 H1569 0.929 . S
H1518 C1512 0.930 . S
H1519 C1515 0.930 . S
C1520 N1521 1.327 . S
C1520 C1522 1.353 . S
C1520 H1526 0.930 . S
N1521 Li1497 1.979 1_545 S
N1521 C1520 1.327 . S
N1521 C1524 1.275 1_545 S
C1522 C1520 1.353 . S
C1522 C1525 1.348 1_545 S
C1522 H1570 0.929 . S
C1523 C1524 1.358 . S
C1523 C1525 1.356 . S
C1523 H1571 0.930 . S
C1524 N1521 1.275 1_565 S
C1524 C1523 1.358 . S
C1524 H1527 0.930 . S
C1525 C1522 1.348 1_565 S
C1525 C1523 1.356 . S
H1526 C1520 0.930 . S
H1527 C1524 0.930 . S
C1528 C1530 1.348 . S
C1528 C1531 1.356 1_545 S
C1528 O1558 1.325 . S
N1529 C1532 1.314 . S
N1529 C1533 1.279 1_545 S
C1530 C1528 1.348 . S
C1530 C1532 1.353 . S
C1530 H1572 0.929 . S
C1531 C1528 1.356 1_565 S
C1531 C1533 1.358 . S
C1531 H1573 0.930 . S
C1532 N1529 1.314 . S
C1532 C1530 1.353 . S
C1532 H1574 0.930 . S
C1533 N1529 1.279 1_565 S
C1533 C1531 1.358 . S
C1533 H1575 0.930 . S
C1534 C1535 1.348 . S
C1534 C1536 1.356 . S
C1534 O1559 1.325 . S
C1535 C1534 1.348 . S
C1535 C1537 1.353 . S
C1535 H1576 0.929 . S
C1536 C1534 1.356 . S
C1536 C1538 1.358 . S
C1536 H1577 0.930 . S
C1537 C1535 1.353 . S
C1537 N1539 1.314 . S
C1537 H1578 0.930 . S
C1538 C1536 1.358 . S
C1538 N1539 1.279 . S
C1538 H1579 0.930 . S
N1539 C1537 1.314 . S
N1539 C1538 1.279 . S
C1540 C1542 1.353 . S
C1540 N1543 1.314 . S
C1540 H1546 0.930 . S
C1541 N1543 1.279 1_545 S
C1541 C1544 1.358 . S
C1541 H1547 0.930 . S
C1542 C1540 1.353 . S
C1542 C1545 1.348 1_565 S
C1542 H1580 0.929 . S
N1543 Li1498 1.990 1_565 S
N1543 C1540 1.314 . S
N1543 C1541 1.279 1_565 S
C1544 C1541 1.358 . S
C1544 C1545 1.356 . S
C1544 H1581 0.930 . S
C1545 C1542 1.348 1_545 S
C1545 C1544 1.356 . S
H1546 C1540 0.930 . S
H1547 C1541 0.930 . S
C1548 N1549 1.314 . S
C1548 C1550 1.353 . S
C1548 H1554 0.930 . S
N1549 Li1499 1.990 . S
N1549 C1548 1.314 . S
N1549 C1552 1.279 . S
C1550 C1548 1.353 . S
C1550 C1553 1.348 . S
C1550 H1582 0.929 . S
C1551 C1552 1.358 . S
C1551 C1553 1.356 . S
C1551 H1583 0.930 . S
C1552 N1549 1.279 . S
C1552 C1551 1.358 . S
C1552 H1555 0.930 . S
C1553 C1550 1.348 . S
C1553 C1551 1.356 . S
H1554 C1548 0.930 . S
H1555 C1552 0.930 . S
O1556 Li1496 1.956 . S
O1556 Li1497 1.975 . S
O1556 Li1498 1.963 1_565 S
O1556 C1500 1.325 . S
O1557 Li1496 1.988 . S
O1557 Li1497 1.947 . S
O1557 Li1499 1.947 1_565 S
O1557 C1506 1.325 . S
O1558 Li1496 1.961 1_545 S
O1558 Li1498 1.958 . S
O1558 Li1499 1.970 . S
O1558 C1528 1.325 . S
O1559 Li1497 1.957 1_545 S
O1559 Li1498 1.966 . S
O1559 Li1499 1.956 . S
O1559 C1534 1.325 . S
H1560 C1502 0.929 . S
H1561 C1503 0.930 . S
H1562 C1504 0.930 . S
H1563 C1505 0.930 . S
H1564 C1507 0.930 . S
H1565 C1509 0.929 . S
H1566 C1510 0.930 . S
H1567 C1511 0.930 . S
H1568 C1514 0.930 . S
H1569 C1517 0.929 . S
H1570 C1522 0.929 . S
H1571 C1523 0.930 . S
H1572 C1530 0.929 . S
H1573 C1531 0.930 . S
H1574 C1532 0.930 . S
H1575 C1533 0.930 . S
H1576 C1535 0.929 . S
H1577 C1536 0.930 . S
H1578 C1537 0.930 . S
H1579 C1538 0.930 . S
H1580 C1542 0.929 . S
H1581 C1544 0.930 . S
H1582 C1550 0.929 . S
H1583 C1551 0.930 . S
H1584 C1590 0.930 . S
H1585 C1594 0.930 . S
H1586 C1599 0.929 . S
H1587 C1597 0.929 . S
H1588 C1592 0.929 . S
H1589 C1598 0.929 . S
C1590 H1584 0.930 . S
C1590 C1591 1.367 1_565 S
C1590 C1598 1.378 . S
C1591 C1590 1.367 1_545 S
C1591 C1599 1.433 . S
C1592 H1588 0.929 . S
C1592 C1594 1.378 . S
C1592 C1596 1.350 1_545 S
C1593 C1596 1.463 1_544 S
C1593 C1598 1.350 1_545 S
C1593 N1601 1.427 . S
C1594 H1585 0.930 . S
C1594 C1592 1.378 . S
C1594 C1595 1.367 1_545 S
C1595 C1594 1.367 1_565 S
C1595 C1597 1.433 . S
C1596 C1592 1.350 1_565 S
C1596 C1593 1.463 1_566 S
C1596 N1600 1.427 . S
C1597 H1587 0.929 . S
C1597 C1595 1.433 . S
C1597 N1600 1.384 . S
C1598 H1589 0.929 . S
C1598 C1590 1.378 . S
C1598 C1593 1.350 1_565 S
C1599 H1586 0.929 . S
C1599 C1591 1.433 . S
C1599 N1601 1.384 . S
N1600 C1596 1.427 . S
N1600 C1597 1.384 . S
N1601 C1593 1.427 . S
N1601 C1599 1.384 . S
H1602 C1608 0.930 . S
H1603 C1612 0.930 . S
H1604 C1617 0.929 . S
H1605 C1615 0.929 1_655 S
H1606 C1610 0.929 . S
H1607 C1616 0.929 . S
C1608 H1602 0.930 . S
C1608 C1609 1.367 . S
C1608 C1616 1.378 1_554 S
C1609 C1608 1.367 . S
C1609 C1617 1.433 . S
C1610 H1606 0.929 . S
C1610 C1612 1.378 1_554 S
C1610 C1614 1.350 1_554 S
C1611 C1614 1.463 1_654 S
C1611 C1616 1.350 1_554 S
C1611 N1619 1.427 1_655 S
C1612 H1603 0.930 . S
C1612 C1610 1.378 1_556 S
C1612 C1613 1.367 . S
C1613 C1612 1.367 . S
C1613 C1615 1.433 . S
C1614 C1610 1.350 1_556 S
C1614 C1611 1.463 1_456 S
C1614 N1618 1.427 1_455 S
C1615 H1605 0.929 1_455 S
C1615 C1613 1.433 . S
C1615 N1618 1.384 1_455 S
C1616 H1607 0.929 . S
C1616 C1608 1.378 1_556 S
C1616 C1611 1.350 1_556 S
C1617 H1604 0.929 . S
C1617 C1609 1.433 . S
C1617 N1619 1.384 1_655 S
N1618 C1614 1.427 1_655 S
N1618 C1615 1.384 1_655 S
N1619 C1611 1.427 1_455 S
N1619 C1617 1.384 1_455 S
H1620 C1626 0.930 . S
H1621 C1630 0.930 . S
H1622 C1635 0.929 . S
H1623 C1633 0.929 . S
H1624 C1628 0.960 . S
H1625 C1634 0.929 . S
C1626 H1620 0.930 . S
C1626 C1627 1.367 . S
C1626 C1634 1.378 . S
C1627 C1626 1.367 . S
C1627 C1635 1.433 . S
C1628 H1624 0.960 . S
C1628 C1630 1.378 . S
C1628 C1632 1.350 . S
C1629 C1632 1.463 1_556 S
C1629 C1634 1.350 . S
C1629 N1637 1.427 . S
C1630 H1621 0.930 . S
C1630 C1628 1.378 . S
C1630 C1631 1.367 . S
C1631 C1630 1.367 . S
C1631 C1633 1.433 . S
C1632 C1628 1.350 . S
C1632 C1629 1.463 1_554 S
C1632 N1636 1.427 . S
C1633 H1623 0.929 . S
C1633 C1631 1.433 . S
C1633 N1636 1.384 . S
C1634 H1625 0.929 . S
C1634 C1626 1.378 . S
C1634 C1629 1.350 . S
C1635 H1622 0.929 . S
C1635 C1627 1.433 . S
C1635 N1637 1.384 . S
N1636 C1632 1.427 . S
N1636 C1633 1.384 . S
N1637 C1629 1.427 . S
N1637 C1635 1.384 . S
H1638 C1644 0.930 . S
H1639 C1648 0.930 . S
H1640 C1653 0.929 . S
H1641 C1651 0.929 . S
H1642 C1646 0.929 . S
H1643 C1652 0.929 . S
C1644 H1638 0.930 . S
C1644 C1645 1.367 . S
C1644 C1652 1.378 . S
C1645 C1644 1.367 . S
C1645 C1653 1.433 . S
C1646 H1642 0.929 . S
C1646 C1648 1.378 . S
C1646 C1650 1.350 . S
C1647 C1650 1.463 . S
C1647 C1652 1.350 . S
C1647 N1655 1.427 . S
C1648 H1639 0.930 . S
C1648 C1646 1.378 . S
C1648 C1649 1.367 . S
C1649 C1648 1.367 . S
C1649 C1651 1.433 . S
C1650 C1646 1.350 . S
C1650 C1647 1.463 . S
C1650 N1654 1.427 . S
C1651 H1641 0.929 . S
C1651 C1649 1.433 . S
C1651 N1654 1.384 . S
C1652 H1643 0.929 . S
C1652 C1644 1.378 . S
C1652 C1647 1.350 . S
C1653 H1640 0.929 . S
C1653 C1645 1.433 . S
C1653 N1655 1.384 . S
N1654 C1650 1.427 . S
N1654 C1651 1.384 . S
N1655 C1647 1.427 . S
N1655 C1653 1.384 . S
H1656 C1662 0.930 . S
H1657 C1666 0.930 . S
H1658 C1671 0.929 . S
H1659 C1669 0.929 . S
H1660 C1664 0.929 . S
H1661 C1670 0.929 . S
C1662 H1656 0.930 . S
C1662 C1663 1.367 . S
C1662 C1670 1.378 . S
C1663 C1662 1.367 . S
C1663 C1671 1.433 . S
C1664 H1660 0.929 . S
C1664 C1666 1.378 . S
C1664 C1668 1.350 . S
C1665 C1668 1.463 . S
C1665 C1670 1.350 . S
C1665 N1673 1.427 . S
C1666 H1657 0.930 . S
C1666 C1664 1.378 . S
C1666 C1667 1.367 . S
C1667 C1666 1.367 . S
C1667 C1669 1.433 . S
C1668 C1664 1.350 . S
C1668 C1665 1.463 . S
C1668 N1672 1.427 . S
C1669 H1659 0.929 . S
C1669 C1667 1.433 . S
C1669 N1672 1.384 . S
C1670 H1661 0.929 . S
C1670 C1662 1.378 . S
C1670 C1665 1.350 . S
C1671 H1658 0.929 . S
C1671 C1663 1.433 . S
C1671 N1673 1.384 . S
N1672 C1668 1.427 . S
N1672 C1669 1.384 . S
N1673 C1665 1.427 . S
N1673 C1671 1.384 . S
H1674 C1680 0.930 . S
H1675 C1684 0.930 . S
H1676 C1689 0.929 . S
H1677 C1687 0.929 . S
H1678 C1682 0.929 . S
H1679 C1688 0.929 . S
C1680 H1674 0.930 . S
C1680 C1681 1.367 . S
C1680 C1688 1.378 . S
C1681 C1680 1.367 . S
C1681 C1689 1.433 . S
C1682 H1678 0.929 . S
C1682 C1684 1.378 . S
C1682 C1686 1.350 . S
C1683 C1686 1.463 . S
C1683 C1688 1.350 . S
C1683 N1691 1.427 . S
C1684 H1675 0.930 . S
C1684 C1682 1.378 . S
C1684 C1685 1.367 . S
C1685 C1684 1.367 . S
C1685 C1687 1.433 . S
C1686 C1682 1.350 . S
C1686 C1683 1.463 . S
C1686 N1690 1.427 . S
C1687 H1677 0.929 . S
C1687 C1685 1.433 . S
C1687 N1690 1.384 . S
C1688 H1679 0.929 . S
C1688 C1680 1.378 . S
C1688 C1683 1.350 . S
C1689 H1676 0.929 . S
C1689 C1681 1.433 . S
C1689 N1691 1.384 . S
N1690 C1686 1.427 . S
N1690 C1687 1.384 . S
N1691 C1683 1.427 . S
N1691 C1689 1.384 . S
H1692 C1698 0.930 . S
H1693 C1702 0.930 . S
H1694 C1707 0.929 . S
H1695 C1705 0.929 . S
H1696 C1700 0.929 . S
H1697 C1706 0.929 . S
C1698 H1692 0.930 . S
C1698 C1699 1.367 . S
C1698 C1706 1.378 . S
C1699 C1698 1.367 . S
C1699 C1707 1.433 . S
C1700 H1696 0.929 . S
C1700 C1702 1.378 . S
C1700 C1704 1.350 . S
C1701 C1704 1.463 . S
C1701 C1706 1.350 . S
C1701 N1709 1.427 . S
C1702 H1693 0.930 . S
C1702 C1700 1.378 . S
C1702 C1703 1.367 . S
C1703 C1702 1.367 . S
C1703 C1705 1.433 . S
C1704 C1700 1.350 . S
C1704 C1701 1.463 . S
C1704 N1708 1.427 . S
C1705 H1695 0.929 . S
C1705 C1703 1.433 . S
C1705 N1708 1.384 . S
C1706 H1697 0.929 . S
C1706 C1698 1.378 . S
C1706 C1701 1.350 . S
C1707 H1694 0.929 . S
C1707 C1699 1.433 . S
C1707 N1709 1.384 . S
N1708 C1704 1.427 . S
N1708 C1705 1.384 . S
N1709 C1701 1.427 . S
N1709 C1707 1.384 . S
H1710 C1716 0.930 . S
H1711 C1720 0.930 . S
H1712 C1725 0.929 . S
H1713 C1723 0.929 . S
H1714 C1718 0.929 . S
H1715 C1724 0.929 . S
C1716 H1710 0.930 . S
C1716 C1717 1.367 . S
C1716 C1724 1.378 . S
C1717 C1716 1.367 . S
C1717 C1725 1.433 . S
C1718 H1714 0.929 . S
C1718 C1720 1.378 . S
C1718 C1722 1.350 . S
C1719 C1722 1.463 . S
C1719 C1724 1.350 . S
C1719 N1727 1.427 . S
C1720 H1711 0.930 . S
C1720 C1718 1.378 . S
C1720 C1721 1.367 . S
C1721 C1720 1.367 . S
C1721 C1723 1.433 . S
C1722 C1718 1.350 . S
C1722 C1719 1.463 . S
C1722 N1726 1.427 . S
C1723 H1713 0.929 . S
C1723 C1721 1.433 . S
C1723 N1726 1.384 . S
C1724 H1715 0.929 . S
C1724 C1716 1.378 . S
C1724 C1719 1.350 . S
C1725 H1712 0.929 . S
C1725 C1717 1.433 . S
C1725 N1727 1.384 . S
N1726 C1722 1.427 . S
N1726 C1723 1.384 . S
N1727 C1719 1.427 . S
N1727 C1725 1.384 . S
H1728 C1734 0.930 . S
H1729 C1738 0.930 . S
H1730 C1743 0.929 . S
H1731 C1741 0.929 . S
H1732 C1736 0.929 . S
H1733 C1742 0.929 . S
C1734 H1728 0.930 . S
C1734 C1735 1.367 . S
C1734 C1742 1.378 . S
C1735 C1734 1.367 . S
C1735 C1743 1.433 . S
C1736 H1732 0.929 . S
C1736 C1738 1.378 . S
C1736 C1740 1.350 . S
C1737 C1740 1.463 . S
C1737 C1742 1.350 . S
C1737 N1745 1.427 . S
C1738 H1729 0.930 . S
C1738 C1736 1.378 . S
C1738 C1739 1.367 . S
C1739 C1738 1.367 . S
C1739 C1741 1.433 . S
C1740 C1736 1.350 . S
C1740 C1737 1.463 . S
C1740 N1744 1.427 . S
C1741 H1731 0.929 . S
C1741 C1739 1.433 . S
C1741 N1744 1.384 . S
C1742 H1733 0.929 . S
C1742 C1734 1.378 . S
C1742 C1737 1.350 . S
C1743 H1730 0.929 . S
C1743 C1735 1.433 . S
C1743 N1745 1.384 . S
N1744 C1740 1.427 . S
N1744 C1741 1.384 . S
N1745 C1737 1.427 . S
N1745 C1743 1.384 . S
H1746 C1752 0.930 . S
H1747 C1756 0.930 . S
H1748 C1761 0.929 . S
H1749 C1759 0.929 . S
H1750 C1754 0.929 . S
H1751 C1760 0.929 . S
C1752 H1746 0.930 . S
C1752 C1753 1.367 . S
C1752 C1760 1.378 . S
C1753 C1752 1.367 . S
C1753 C1761 1.433 . S
C1754 H1750 0.929 . S
C1754 C1756 1.378 . S
C1754 C1758 1.350 . S
C1755 C1758 1.463 . S
C1755 C1760 1.350 . S
C1755 N1763 1.427 . S
C1756 H1747 0.930 . S
C1756 C1754 1.378 . S
C1756 C1757 1.367 . S
C1757 C1756 1.367 . S
C1757 C1759 1.433 . S
C1758 C1754 1.350 . S
C1758 C1755 1.463 . S
C1758 N1762 1.427 . S
C1759 H1749 0.929 . S
C1759 C1757 1.433 . S
C1759 N1762 1.384 . S
C1760 H1751 0.929 . S
C1760 C1752 1.378 . S
C1760 C1755 1.350 . S
C1761 H1748 0.929 . S
C1761 C1753 1.433 . S
C1761 N1763 1.384 . S
N1762 C1758 1.427 . S
N1762 C1759 1.384 . S
N1763 C1755 1.427 . S
N1763 C1761 1.384 . S
H1764 C1770 0.930 . S
H1765 C1774 0.930 . S
H1766 C1779 0.929 . S
H1767 C1777 0.929 . S
H1768 C1772 0.929 . S
H1769 C1778 0.929 . S
C1770 H1764 0.930 . S
C1770 C1771 1.367 . S
C1770 C1778 1.378 . S
C1771 C1770 1.367 . S
C1771 C1779 1.433 . S
C1772 H1768 0.929 . S
C1772 C1774 1.378 . S
C1772 C1776 1.350 . S
C1773 C1776 1.463 . S
C1773 C1778 1.350 . S
C1773 N1781 1.427 . S
C1774 H1765 0.930 . S
C1774 C1772 1.378 . S
C1774 C1775 1.367 . S
C1775 C1774 1.367 . S
C1775 C1777 1.433 . S
C1776 C1772 1.350 . S
C1776 C1773 1.463 . S
C1776 N1780 1.427 . S
C1777 H1767 0.929 . S
C1777 C1775 1.433 . S
C1777 N1780 1.384 . S
C1778 H1769 0.929 . S
C1778 C1770 1.378 . S
C1778 C1773 1.350 . S
C1779 H1766 0.929 . S
C1779 C1771 1.433 . S
C1779 N1781 1.384 . S
N1780 C1776 1.427 . S
N1780 C1777 1.384 . S
N1781 C1773 1.427 . S
N1781 C1779 1.384 . S
H1782 C1788 0.930 . S
H1783 C1792 0.930 . S
H1784 C1797 0.929 . S
H1785 C1795 0.929 . S
H1786 C1790 0.929 . S
H1787 C1796 0.929 . S
C1788 H1782 0.930 . S
C1788 C1789 1.367 . S
C1788 C1796 1.378 . S
C1789 C1788 1.367 . S
C1789 C1797 1.433 . S
C1790 H1786 0.929 . S
C1790 C1792 1.378 . S
C1790 C1794 1.350 . S
C1791 C1794 1.463 . S
C1791 C1796 1.350 . S
C1791 N1799 1.427 . S
C1792 H1783 0.930 . S
C1792 C1790 1.378 . S
C1792 C1793 1.367 . S
C1793 C1792 1.367 . S
C1793 C1795 1.433 . S
C1794 C1790 1.350 . S
C1794 C1791 1.463 . S
C1794 N1798 1.427 . S
C1795 H1785 0.929 . S
C1795 C1793 1.433 . S
C1795 N1798 1.384 . S
C1796 H1787 0.929 . S
C1796 C1788 1.378 . S
C1796 C1791 1.350 . S
C1797 H1784 0.929 . S
C1797 C1789 1.433 . S
C1797 N1799 1.384 . S
N1798 C1794 1.427 . S
N1798 C1795 1.384 . S
N1799 C1791 1.427 . S
N1799 C1797 1.384 . S
H1800 C1806 0.930 . S
H1801 C1810 0.930 . S
H1802 C1815 0.929 . S
H1803 C1813 0.929 . S
H1804 C1808 0.929 . S
H1805 C1814 0.929 . S
C1806 H1800 0.930 . S
C1806 C1807 1.367 . S
C1806 C1814 1.378 . S
C1807 C1806 1.367 . S
C1807 C1815 1.433 . S
C1808 H1804 0.929 . S
C1808 C1810 1.378 . S
C1808 C1812 1.350 . S
C1809 C1812 1.463 . S
C1809 C1814 1.350 . S
C1809 N1817 1.427 . S
C1810 H1801 0.930 . S
C1810 C1808 1.378 . S
C1810 C1811 1.367 . S
C1811 C1810 1.367 . S
C1811 C1813 1.433 . S
C1812 C1808 1.350 . S
C1812 C1809 1.463 . S
C1812 N1816 1.427 . S
C1813 H1803 0.929 . S
C1813 C1811 1.433 . S
C1813 N1816 1.384 . S
C1814 H1805 0.929 . S
C1814 C1806 1.378 . S
C1814 C1809 1.350 . S
C1815 H1802 0.929 . S
C1815 C1807 1.433 . S
C1815 N1817 1.384 . S
N1816 C1812 1.427 . S
N1816 C1813 1.384 . S
N1817 C1809 1.427 . S
N1817 C1815 1.384 . S
H1818 C1824 0.930 . S
H1819 C1828 0.930 . S
H1820 C1833 0.929 . S
H1821 C1831 0.929 . S
H1822 C1826 0.929 . S
H1823 C1832 0.929 . S
C1824 H1818 0.930 . S
C1824 C1825 1.367 . S
C1824 C1832 1.378 . S
C1825 C1824 1.367 . S
C1825 C1833 1.433 . S
C1826 H1822 0.929 . S
C1826 C1828 1.378 . S
C1826 C1830 1.350 . S
C1827 C1830 1.463 . S
C1827 C1832 1.350 . S
C1827 N1835 1.427 . S
C1828 H1819 0.930 . S
C1828 C1826 1.378 . S
C1828 C1829 1.367 . S
C1829 C1828 1.367 . S
C1829 C1831 1.433 . S
C1830 C1826 1.350 . S
C1830 C1827 1.463 . S
C1830 N1834 1.427 . S
C1831 H1821 0.929 . S
C1831 C1829 1.433 . S
C1831 N1834 1.384 . S
C1832 H1823 0.929 . S
C1832 C1824 1.378 . S
C1832 C1827 1.350 . S
C1833 H1820 0.929 . S
C1833 C1825 1.433 . S
C1833 N1835 1.384 . S
N1834 C1830 1.427 . S
N1834 C1831 1.384 . S
N1835 C1827 1.427 . S
N1835 C1833 1.384 . S
H1836 C1842 0.930 . S
H1837 C1846 0.930 . S
H1838 C1851 0.929 . S
H1839 C1849 0.929 . S
H1840 C1844 0.929 . S
H1841 C1850 0.929 . S
C1842 H1836 0.930 . S
C1842 C1843 1.367 . S
C1842 C1850 1.378 . S
C1843 C1842 1.367 . S
C1843 C1851 1.433 . S
C1844 H1840 0.929 . S
C1844 C1846 1.378 . S
C1844 C1848 1.350 . S
C1845 C1848 1.463 . S
C1845 C1850 1.350 . S
C1845 N1853 1.427 . S
C1846 H1837 0.930 . S
C1846 C1844 1.378 . S
C1846 C1847 1.367 . S
C1847 C1846 1.367 . S
C1847 C1849 1.433 . S
C1848 C1844 1.350 . S
C1848 C1845 1.463 . S
C1848 N1852 1.427 . S
C1849 H1839 0.929 . S
C1849 C1847 1.433 . S
C1849 N1852 1.384 . S
C1850 H1841 0.929 . S
C1850 C1842 1.378 . S
C1850 C1845 1.350 . S
C1851 H1838 0.929 . S
C1851 C1843 1.433 . S
C1851 N1853 1.384 . S
N1852 C1848 1.427 . S
N1852 C1849 1.384 . S
N1853 C1845 1.427 . S
N1853 C1851 1.384 . S
H1854 C1860 0.930 . S
H1855 C1864 0.930 . S
H1856 C1869 0.929 . S
H1857 C1867 0.929 . S
H1858 C1862 0.929 . S
H1859 C1868 0.929 . S
C1860 H1854 0.930 . S
C1860 C1861 1.367 . S
C1860 C1868 1.378 . S
C1861 C1860 1.367 . S
C1861 C1869 1.433 1_455 S
C1862 H1858 0.929 . S
C1862 C1864 1.378 . S
C1862 C1866 1.341 1_655 S
C1863 C1866 1.472 . S
C1863 C1868 1.350 . S
C1863 N1871 1.427 1_455 S
C1864 H1855 0.930 . S
C1864 C1862 1.378 . S
C1864 C1865 1.367 . S
C1865 C1864 1.367 . S
C1865 C1867 1.433 1_655 S
C1866 C1862 1.341 1_455 S
C1866 C1863 1.472 . S
C1866 N1870 1.429 . S
C1867 H1857 0.929 . S
C1867 C1865 1.433 1_455 S
C1867 N1870 1.384 . S
C1868 H1859 0.929 . S
C1868 C1860 1.378 . S
C1868 C1863 1.350 . S
C1869 H1856 0.929 . S
C1869 C1861 1.433 1_655 S
C1869 N1871 1.384 . S
N1870 C1866 1.429 . S
N1870 C1867 1.384 . S
N1871 C1863 1.427 1_655 S
N1871 C1869 1.384 . S
H1872 C1878 0.930 . S
H1873 C1882 0.930 . S
H1874 C1887 0.929 . S
H1875 C1885 0.929 . S
H1876 C1880 0.929 . S
H1877 C1886 0.929 . S
C1878 H1872 0.930 . S
C1878 C1879 1.367 . S
C1878 C1886 1.378 . S
C1879 C1878 1.367 . S
C1879 C1887 1.433 . S
C1880 H1876 0.929 . S
C1880 C1882 1.378 . S
C1880 C1884 1.350 . S
C1881 C1884 1.463 . S
C1881 C1886 1.350 . S
C1881 N1889 1.427 . S
C1882 H1873 0.930 . S
C1882 C1880 1.378 . S
C1882 C1883 1.367 . S
C1883 C1882 1.367 . S
C1883 C1885 1.433 . S
C1884 C1880 1.350 . S
C1884 C1881 1.463 . S
C1884 N1888 1.427 . S
C1885 H1875 0.929 . S
C1885 C1883 1.433 . S
C1885 N1888 1.384 . S
C1886 H1877 0.929 . S
C1886 C1878 1.378 . S
C1886 C1881 1.350 . S
C1887 H1874 0.929 . S
C1887 C1879 1.433 . S
C1887 N1889 1.384 . S
N1888 C1884 1.427 . S
N1888 C1885 1.384 . S
N1889 C1881 1.427 . S
N1889 C1887 1.384 . S
H1890 C1896 0.930 . S
H1891 C1900 0.930 . S
H1892 C1905 0.929 . S
H1893 C1903 0.929 . S
H1894 C1898 0.929 . S
H1895 C1904 0.929 . S
C1896 H1890 0.930 . S
C1896 C1897 1.367 . S
C1896 C1904 1.378 . S
C1897 C1896 1.367 . S
C1897 C1905 1.433 1_545 S
C1898 H1894 0.929 . S
C1898 C1900 1.378 . S
C1898 C1902 1.365 . S
C1899 C1902 1.476 1_545 S
C1899 C1904 1.350 . S
C1899 N1907 1.427 1_545 S
C1900 H1891 0.930 . S
C1900 C1898 1.378 . S
C1900 C1901 1.367 . S
C1901 C1900 1.367 . S
C1901 C1903 1.433 1_565 S
C1902 C1898 1.365 . S
C1902 C1899 1.476 1_565 S
C1902 N1906 1.399 1_565 S
C1903 H1893 0.929 . S
C1903 C1901 1.433 1_545 S
C1903 N1906 1.384 . S
C1904 H1895 0.929 . S
C1904 C1896 1.378 . S
C1904 C1899 1.350 . S
C1905 H1892 0.929 . S
C1905 C1897 1.433 1_565 S
C1905 N1907 1.384 . S
N1906 C1902 1.399 1_545 S
N1906 C1903 1.384 . S
N1907 C1899 1.427 1_565 S
N1907 C1905 1.384 . S
H1908 C1914 0.930 . S
H1909 C1918 0.930 . S
H1910 C1923 0.929 . S
H1911 C1921 0.929 . S
H1912 C1916 0.929 . S
H1913 C1922 0.929 . S
C1914 H1908 0.930 . S
C1914 C1915 1.367 . S
C1914 C1922 1.378 . S
C1915 C1914 1.367 . S
C1915 C1923 1.433 . S
C1916 H1912 0.929 . S
C1916 C1918 1.378 1_554 S
C1916 C1920 1.350 . S
C1917 C1920 1.463 . S
C1917 C1922 1.350 . S
C1917 N1925 1.427 . S
C1918 H1909 0.930 . S
C1918 C1916 1.378 1_556 S
C1918 C1919 1.367 . S
C1919 C1918 1.367 . S
C1919 C1921 1.433 . S
C1920 C1916 1.350 . S
C1920 C1917 1.463 . S
C1920 N1924 1.427 . S
C1921 H1911 0.929 . S
C1921 C1919 1.433 . S
C1921 N1924 1.384 1_556 S
C1922 H1913 0.929 . S
C1922 C1914 1.378 . S
C1922 C1917 1.350 . S
C1923 H1910 0.929 . S
C1923 C1915 1.433 . S
C1923 N1925 1.384 . S
N1924 C1920 1.427 . S
N1924 C1921 1.384 1_554 S
N1925 C1917 1.427 . S
N1925 C1923 1.384 . S
H1926 C1932 0.930 . S
H1927 C1936 0.930 . S
H1928 C1941 0.929 . S
H1929 C1939 0.929 . S
H1930 C1934 0.929 . S
H1931 C1940 0.929 . S
C1932 H1926 0.930 . S
C1932 C1933 1.367 . S
C1932 C1940 1.378 . S
C1933 C1932 1.367 . S
C1933 C1941 1.433 . S
C1934 H1930 0.929 . S
C1934 C1936 1.378 1_554 S
C1934 C1938 1.350 . S
C1935 C1938 1.463 . S
C1935 C1940 1.350 . S
C1935 N1943 1.427 . S
C1936 H1927 0.930 . S
C1936 C1934 1.378 1_556 S
C1936 C1937 1.367 . S
C1937 C1936 1.367 . S
C1937 C1939 1.433 . S
C1938 C1934 1.350 . S
C1938 C1935 1.463 . S
C1938 N1942 1.427 . S
C1939 H1929 0.929 . S
C1939 C1937 1.433 . S
C1939 N1942 1.384 1_556 S
C1940 H1931 0.929 . S
C1940 C1932 1.378 . S
C1940 C1935 1.350 . S
C1941 H1928 0.929 . S
C1941 C1933 1.433 . S
C1941 N1943 1.384 . S
N1942 C1938 1.427 . S
N1942 C1939 1.384 1_554 S
N1943 C1935 1.427 . S
N1943 C1941 1.384 . S
H1944 C1950 0.930 . S
H1945 C1954 0.930 . S
H1946 C1959 0.929 . S
H1947 C1957 0.929 . S
H1948 C1952 0.924 1_556 S
H1949 C1958 0.929 . S
C1950 H1944 0.930 . S
C1950 C1951 1.367 . S
C1950 C1958 1.378 . S
C1951 C1950 1.367 . S
C1951 C1959 1.433 . S
C1952 H1948 0.924 1_554 S
C1952 C1954 1.367 1_554 S
C1952 C1956 1.362 . S
C1953 C1956 1.463 . S
C1953 C1958 1.350 . S
C1953 N1961 1.427 . S
C1954 H1945 0.930 . S
C1954 C1952 1.367 1_556 S
C1954 C1955 1.367 . S
C1955 C1954 1.367 . S
C1955 C1957 1.433 1_556 S
C1956 C1952 1.362 . S
C1956 C1953 1.463 . S
C1956 N1960 1.427 . S
C1957 H1947 0.929 . S
C1957 C1955 1.433 1_554 S
C1957 N1960 1.384 . S
C1958 H1949 0.929 . S
C1958 C1950 1.378 . S
C1958 C1953 1.350 . S
C1959 H1946 0.929 . S
C1959 C1951 1.433 . S
C1959 N1961 1.384 . S
N1960 C1956 1.427 . S
N1960 C1957 1.384 . S
N1961 C1953 1.427 . S
N1961 C1959 1.384 . S
H1962 C1968 0.930 . S
H1963 C1972 0.930 . S
H1964 C1977 0.929 . S
H1965 C1975 0.940 . S
H1966 C1970 0.929 . S
H1967 C1976 0.929 . S
C1968 H1962 0.930 . S
C1968 C1969 1.367 . S
C1968 C1976 1.378 . S
C1969 C1968 1.367 . S
C1969 C1977 1.433 . S
C1970 H1966 0.929 . S
C1970 C1972 1.378 1_556 S
C1970 C1974 1.350 . S
C1971 C1974 1.463 . S
C1971 C1976 1.350 . S
C1971 N1979 1.427 . S
C1972 H1963 0.930 . S
C1972 C1970 1.378 1_554 S
C1972 C1973 1.367 . S
C1973 C1972 1.367 . S
C1973 C1975 1.464 . S
C1974 C1970 1.350 . S
C1974 C1971 1.463 . S
C1974 N1978 1.427 . S
C1975 H1965 0.940 . S
C1975 C1973 1.464 . S
C1975 N1978 1.346 1_554 S
C1976 H1967 0.929 . S
C1976 C1968 1.378 . S
C1976 C1971 1.350 . S
C1977 H1964 0.929 . S
C1977 C1969 1.433 . S
C1977 N1979 1.384 . S
N1978 C1974 1.427 . S
N1978 C1975 1.346 1_556 S
N1979 C1971 1.427 . S
N1979 C1977 1.384 . S
H1980 C1986 0.930 . S
H1981 C1990 0.930 . S
H1982 C1995 0.929 . S
H1983 C1993 0.929 . S
H1984 C1988 0.929 . S
H1985 C1994 0.929 . S
C1986 H1980 0.930 . S
C1986 C1987 1.367 . S
C1986 C1994 1.378 1_554 S
C1987 C1986 1.367 . S
C1987 C1995 1.433 . S
C1988 H1984 0.929 . S
C1988 C1990 1.378 . S
C1988 C1992 1.350 . S
C1989 C1992 1.463 . S
C1989 C1994 1.350 . S
C1989 N1997 1.427 . S
C1990 H1981 0.930 . S
C1990 C1988 1.378 . S
C1990 C1991 1.367 . S
C1991 C1990 1.367 . S
C1991 C1993 1.433 . S
C1992 C1988 1.350 . S
C1992 C1989 1.463 . S
C1992 N1996 1.427 . S
C1993 H1983 0.929 . S
C1993 C1991 1.433 . S
C1993 N1996 1.384 . S
C1994 H1985 0.929 . S
C1994 C1986 1.378 1_556 S
C1994 C1989 1.350 . S
C1995 H1982 0.929 . S
C1995 C1987 1.433 . S
C1995 N1997 1.384 1_554 S
N1996 C1992 1.427 . S
N1996 C1993 1.384 . S
N1997 C1989 1.427 . S
N1997 C1995 1.384 1_556 S
H1998 C2004 0.930 . S
H1999 C2008 0.937 . S
H2000 C2013 0.929 . S
H2001 C2011 0.929 . S
H2002 C2006 0.929 . S
H2003 C2012 0.929 . S
C2004 H1998 0.930 . S
C2004 C2005 1.367 . S
C2004 C2012 1.378 . S
C2005 C2004 1.367 . S
C2005 C2013 1.433 . S
C2006 H2002 0.929 . S
C2006 C2008 1.351 1_556 S
C2006 C2010 1.350 . S
C2007 C2010 1.463 . S
C2007 C2012 1.350 . S
C2007 N2015 1.427 . S
C2008 H1999 0.937 . S
C2008 C2006 1.351 1_554 S
C2008 C2009 1.388 . S
C2009 C2008 1.388 . S
C2009 C2011 1.433 . S
C2010 C2006 1.350 . S
C2010 C2007 1.463 . S
C2010 N2014 1.427 . S
C2011 H2001 0.929 . S
C2011 C2009 1.433 . S
C2011 N2014 1.384 1_554 S
C2012 H2003 0.929 . S
C2012 C2004 1.378 . S
C2012 C2007 1.350 . S
C2013 H2000 0.929 . S
C2013 C2005 1.433 . S
C2013 N2015 1.384 . S
N2014 C2010 1.427 . S
N2014 C2011 1.384 1_556 S
N2015 C2007 1.427 . S
N2015 C2013 1.384 . S
H2016 C2022 0.930 . S
H2017 C2026 0.930 . S
H2018 C2031 0.929 . S
H2019 C2029 0.929 . S
H2020 C2024 0.929 . S
H2021 C2030 0.929 . S
C2022 H2016 0.930 . S
C2022 C2023 1.367 . S
C2022 C2030 1.378 . S
C2023 C2022 1.367 . S
C2023 C2031 1.433 . S
C2024 H2020 0.929 . S
C2024 C2026 1.378 . S
C2024 C2028 1.350 . S
C2025 C2028 1.463 . S
C2025 C2030 1.350 . S
C2025 N2033 1.427 . S
C2026 H2017 0.930 . S
C2026 C2024 1.378 . S
C2026 C2027 1.367 . S
C2027 C2026 1.367 . S
C2027 C2029 1.433 . S
C2028 C2024 1.350 . S
C2028 C2025 1.463 . S
C2028 N2032 1.427 . S
C2029 H2019 0.929 . S
C2029 C2027 1.433 . S
C2029 N2032 1.384 . S
C2030 H2021 0.929 . S
C2030 C2022 1.378 . S
C2030 C2025 1.350 . S
C2031 H2018 0.929 . S
C2031 C2023 1.433 . S
C2031 N2033 1.384 . S
N2032 C2028 1.427 . S
N2032 C2029 1.384 . S
N2033 C2025 1.427 . S
N2033 C2031 1.384 . S
H2034 C2040 0.930 . S
H2035 C2044 0.930 . S
H2036 C2049 0.929 . S
H2037 C2047 0.929 . S
H2038 C2042 0.929 . S
H2039 C2048 0.929 . S
C2040 H2034 0.930 . S
C2040 C2041 1.367 . S
C2040 C2048 1.378 . S
C2041 C2040 1.367 . S
C2041 C2049 1.433 . S
C2042 H2038 0.929 . S
C2042 C2044 1.378 . S
C2042 C2046 1.350 . S
C2043 C2046 1.463 . S
C2043 C2048 1.350 . S
C2043 N2051 1.427 . S
C2044 H2035 0.930 . S
C2044 C2042 1.378 . S
C2044 C2045 1.367 . S
C2045 C2044 1.367 . S
C2045 C2047 1.433 . S
C2046 C2042 1.350 . S
C2046 C2043 1.463 . S
C2046 N2050 1.427 . S
C2047 H2037 0.929 . S
C2047 C2045 1.433 . S
C2047 N2050 1.384 . S
C2048 H2039 0.929 . S
C2048 C2040 1.378 . S
C2048 C2043 1.350 . S
C2049 H2036 0.929 . S
C2049 C2041 1.433 . S
C2049 N2051 1.384 . S
N2050 C2046 1.427 . S
N2050 C2047 1.384 . S
N2051 C2043 1.427 . S
N2051 C2049 1.384 . S
H2052 C2058 0.930 . S
H2053 C2062 0.930 . S
H2054 C2067 0.929 . S
H2055 C2065 0.929 . S
H2056 C2060 0.929 . S
H2057 C2066 0.929 . S
C2058 H2052 0.930 . S
C2058 C2059 1.367 . S
C2058 C2066 1.378 . S
C2059 C2058 1.367 . S
C2059 C2067 1.433 . S
C2060 H2056 0.929 . S
C2060 C2062 1.378 . S
C2060 C2064 1.350 . S
C2061 C2064 1.463 . S
C2061 C2066 1.350 . S
C2061 N2069 1.427 . S
C2062 H2053 0.930 . S
C2062 C2060 1.378 . S
C2062 C2063 1.367 . S
C2063 C2062 1.367 . S
C2063 C2065 1.433 . S
C2064 C2060 1.350 . S
C2064 C2061 1.463 . S
C2064 N2068 1.427 . S
C2065 H2055 0.929 . S
C2065 C2063 1.433 . S
C2065 N2068 1.384 . S
C2066 H2057 0.929 . S
C2066 C2058 1.378 . S
C2066 C2061 1.350 . S
C2067 H2054 0.929 . S
C2067 C2059 1.433 . S
C2067 N2069 1.384 . S
N2068 C2064 1.427 . S
N2068 C2065 1.384 . S
N2069 C2061 1.427 . S
N2069 C2067 1.384 . S
H2070 C2076 0.930 . S
H2071 C2080 0.930 . S
H2072 C2085 0.929 . S
H2073 C2083 0.929 . S
H2074 C2078 0.929 . S
H2075 C2084 0.929 . S
C2076 H2070 0.930 . S
C2076 C2077 1.367 . S
C2076 C2084 1.378 . S
C2077 C2076 1.367 . S
C2077 C2085 1.433 . S
C2078 H2074 0.929 . S
C2078 C2080 1.378 . S
C2078 C2082 1.350 . S
C2079 C2082 1.463 . S
C2079 C2084 1.350 . S
C2079 N2087 1.427 . S
C2080 H2071 0.930 . S
C2080 C2078 1.378 . S
C2080 C2081 1.367 . S
C2081 C2080 1.367 . S
C2081 C2083 1.433 . S
C2082 C2078 1.350 . S
C2082 C2079 1.463 . S
C2082 N2086 1.427 . S
C2083 H2073 0.929 . S
C2083 C2081 1.433 . S
C2083 N2086 1.384 . S
C2084 H2075 0.929 . S
C2084 C2076 1.378 . S
C2084 C2079 1.350 . S
C2085 H2072 0.929 . S
C2085 C2077 1.433 . S
C2085 N2087 1.384 . S
N2086 C2082 1.427 . S
N2086 C2083 1.384 . S
N2087 C2079 1.427 . S
N2087 C2085 1.384 . S
H2088 C2094 0.930 1_565 S
H2089 C2098 0.930 . S
H2090 C2103 0.929 . S
H2091 C2101 0.929 . S
H2092 C2096 0.929 . S
H2093 C2102 0.929 . S
C2094 H2088 0.930 1_545 S
C2094 C2095 1.367 . S
C2094 C2102 1.378 1_545 S
C2095 C2094 1.367 . S
C2095 C2103 1.433 . S
C2096 H2092 0.929 . S
C2096 C2098 1.378 . S
C2096 C2100 1.350 . S
C2097 C2100 1.463 . S
C2097 C2102 1.350 1_545 S
C2097 N2105 1.427 . S
C2098 H2089 0.930 . S
C2098 C2096 1.378 . S
C2098 C2099 1.372 . S
C2099 C2098 1.372 . S
C2099 C2101 1.427 1_545 S
C2100 C2096 1.350 . S
C2100 C2097 1.463 . S
C2100 N2104 1.427 1_545 S
C2101 H2091 0.929 . S
C2101 C2099 1.427 1_565 S
C2101 N2104 1.384 . S
C2102 H2093 0.929 . S
C2102 C2094 1.378 1_565 S
C2102 C2097 1.350 1_565 S
C2103 H2090 0.929 . S
C2103 C2095 1.433 . S
C2103 N2105 1.384 . S
N2104 C2100 1.427 1_565 S
N2104 C2101 1.384 . S
N2105 C2097 1.427 . S
N2105 C2103 1.384 . S
H2106 C2112 0.930 . S
H2107 C2116 0.930 . S
H2108 C2121 0.929 . S
H2109 C2119 0.929 . S
H2110 C2114 0.929 . S
H2111 C2120 0.929 1_455 S
C2112 H2106 0.930 . S
C2112 C2113 1.367 . S
C2112 C2120 1.378 . S
C2113 C2112 1.367 . S
C2113 C2121 1.433 . S
C2114 H2110 0.929 . S
C2114 C2116 1.378 . S
C2114 C2118 1.350 . S
C2115 C2118 1.463 . S
C2115 C2120 1.350 . S
C2115 N2123 1.427 . S
C2116 H2107 0.930 . S
C2116 C2114 1.378 . S
C2116 C2117 1.367 . S
C2117 C2116 1.367 . S
C2117 C2119 1.433 1_655 S
C2118 C2114 1.350 . S
C2118 C2115 1.463 . S
C2118 N2122 1.427 1_655 S
C2119 H2109 0.929 . S
C2119 C2117 1.433 1_455 S
C2119 N2122 1.384 . S
C2120 H2111 0.929 1_655 S
C2120 C2112 1.378 . S
C2120 C2115 1.350 . S
C2121 H2108 0.929 . S
C2121 C2113 1.433 . S
C2121 N2123 1.384 . S
N2122 C2118 1.427 1_455 S
N2122 C2119 1.384 . S
N2123 C2115 1.427 . S
N2123 C2121 1.384 . S
H2124 C2130 0.930 . S
H2125 C2134 0.930 . S
H2126 C2139 0.929 . S
H2127 C2137 0.929 . S
H2128 C2132 0.929 . S
H2129 C2138 0.929 . S
C2130 H2124 0.930 . S
C2130 C2131 1.367 . S
C2130 C2138 1.378 . S
C2131 C2130 1.367 . S
C2131 C2139 1.433 . S
C2132 H2128 0.929 . S
C2132 C2134 1.378 . S
C2132 C2136 1.350 . S
C2133 C2136 1.463 . S
C2133 C2138 1.350 . S
C2133 N2141 1.427 . S
C2134 H2125 0.930 . S
C2134 C2132 1.378 . S
C2134 C2135 1.367 . S
C2135 C2134 1.367 . S
C2135 C2137 1.433 . S
C2136 C2132 1.350 . S
C2136 C2133 1.463 . S
C2136 N2140 1.427 . S
C2137 H2127 0.929 . S
C2137 C2135 1.433 . S
C2137 N2140 1.384 . S
C2138 H2129 0.929 . S
C2138 C2130 1.378 . S
C2138 C2133 1.350 . S
C2139 H2126 0.929 . S
C2139 C2131 1.433 . S
C2139 N2141 1.384 . S
N2140 C2136 1.427 . S
N2140 C2137 1.384 . S
N2141 C2133 1.427 . S
N2141 C2139 1.384 . S
H2142 C2148 0.930 . S
H2143 C2152 0.930 . S
H2144 C2157 0.929 . S
H2145 C2155 0.929 1_545 S
H2146 C2150 0.929 . S
H2147 C2156 0.929 . S
C2148 H2142 0.930 . S
C2148 C2149 1.371 1_545 S
C2148 C2156 1.378 . S
C2149 C2148 1.371 1_565 S
C2149 C2157 1.430 . S
C2150 H2146 0.929 . S
C2150 C2152 1.378 . S
C2150 C2154 1.350 . S
C2151 C2154 1.463 . S
C2151 C2156 1.350 1_565 S
C2151 N2159 1.427 . S
C2152 H2143 0.930 . S
C2152 C2150 1.378 . S
C2152 C2153 1.367 . S
C2153 C2152 1.367 . S
C2153 C2155 1.433 . S
C2154 C2150 1.350 . S
C2154 C2151 1.463 . S
C2154 N2158 1.427 1_565 S
C2155 H2145 0.929 1_565 S
C2155 C2153 1.433 . S
C2155 N2158 1.384 1_565 S
C2156 H2147 0.929 . S
C2156 C2148 1.378 . S
C2156 C2151 1.350 1_545 S
C2157 H2144 0.929 . S
C2157 C2149 1.430 . S
C2157 N2159 1.384 . S
N2158 C2154 1.427 1_545 S
N2158 C2155 1.384 1_545 S
N2159 C2151 1.427 . S
N2159 C2157 1.384 . S
H2160 C2166 0.930 . S
H2161 C2170 0.930 . S
H2162 C2175 0.929 1_655 S
H2163 C2173 0.929 . S
H2164 C2168 0.929 . S
H2165 C2174 0.929 . S
C2166 H2160 0.930 . S
C2166 C2167 1.367 . S
C2166 C2174 1.378 . S
C2167 C2166 1.367 . S
C2167 C2175 1.433 . S
C2168 H2164 0.929 . S
C2168 C2170 1.378 . S
C2168 C2172 1.350 1_655 S
C2169 C2172 1.463 . S
C2169 C2174 1.350 . S
C2169 N2177 1.427 1_455 S
C2170 H2161 0.930 . S
C2170 C2168 1.378 . S
C2170 C2171 1.367 . S
C2171 C2170 1.367 . S
C2171 C2173 1.433 1_655 S
C2172 C2168 1.350 1_455 S
C2172 C2169 1.463 . S
C2172 N2176 1.427 . S
C2173 H2163 0.929 . S
C2173 C2171 1.433 1_455 S
C2173 N2176 1.384 . S
C2174 H2165 0.929 . S
C2174 C2166 1.378 . S
C2174 C2169 1.350 . S
C2175 H2162 0.929 1_455 S
C2175 C2167 1.433 . S
C2175 N2177 1.384 1_455 S
N2176 C2172 1.427 . S
N2176 C2173 1.384 . S
N2177 C2169 1.427 1_655 S
N2177 C2175 1.384 1_655 S
H2178 C2184 0.930 . S
H2179 C2188 0.930 . S
H2180 C2193 0.929 . S
H2181 C2191 0.929 . S
H2182 C2186 0.929 . S
H2183 C2192 0.929 . S
C2184 H2178 0.930 . S
C2184 C2185 1.367 . S
C2184 C2192 1.378 . S
C2185 C2184 1.367 . S
C2185 C2193 1.433 . S
C2186 H2182 0.929 . S
C2186 C2188 1.378 . S
C2186 C2190 1.350 . S
C2187 C2190 1.463 . S
C2187 C2192 1.350 . S
C2187 N2195 1.427 . S
C2188 H2179 0.930 . S
C2188 C2186 1.378 . S
C2188 C2189 1.367 . S
C2189 C2188 1.367 . S
C2189 C2191 1.433 . S
C2190 C2186 1.350 . S
C2190 C2187 1.463 . S
C2190 N2194 1.427 . S
C2191 H2181 0.929 . S
C2191 C2189 1.433 . S
C2191 N2194 1.384 . S
C2192 H2183 0.929 . S
C2192 C2184 1.378 . S
C2192 C2187 1.350 . S
C2193 H2180 0.929 . S
C2193 C2185 1.433 . S
C2193 N2195 1.384 . S
N2194 C2190 1.427 . S
N2194 C2191 1.384 . S
N2195 C2187 1.427 . S
N2195 C2193 1.384 . S
H2196 C2202 0.930 . S
H2197 C2206 0.930 . S
H2198 C2211 0.929 . S
H2199 C2209 0.929 . S
H2200 C2204 0.929 . S
H2201 C2210 0.929 . S
C2202 H2196 0.930 . S
C2202 C2203 1.367 . S
C2202 C2210 1.378 . S
C2203 C2202 1.367 . S
C2203 C2211 1.433 . S
C2204 H2200 0.929 . S
C2204 C2206 1.378 . S
C2204 C2208 1.350 . S
C2205 C2208 1.463 . S
C2205 C2210 1.350 . S
C2205 N2213 1.427 . S
C2206 H2197 0.930 . S
C2206 C2204 1.378 . S
C2206 C2207 1.367 . S
C2207 C2206 1.367 . S
C2207 C2209 1.433 . S
C2208 C2204 1.350 . S
C2208 C2205 1.463 . S
C2208 N2212 1.427 . S
C2209 H2199 0.929 . S
C2209 C2207 1.433 . S
C2209 N2212 1.384 . S
C2210 H2201 0.929 . S
C2210 C2202 1.378 . S
C2210 C2205 1.350 . S
C2211 H2198 0.929 . S
C2211 C2203 1.433 . S
C2211 N2213 1.384 . S
N2212 C2208 1.427 . S
N2212 C2209 1.384 . S
N2213 C2205 1.427 . S
N2213 C2211 1.384 . S
H2214 C2220 0.930 . S
H2215 C2224 0.930 . S
H2216 C2229 0.929 . S
H2217 C2227 0.929 . S
H2218 C2222 0.929 . S
H2219 C2228 0.929 . S
C2220 H2214 0.930 . S
C2220 C2221 1.367 . S
C2220 C2228 1.378 . S
C2221 C2220 1.367 . S
C2221 C2229 1.433 . S
C2222 H2218 0.929 . S
C2222 C2224 1.378 . S
C2222 C2226 1.350 . S
C2223 C2226 1.463 . S
C2223 C2228 1.350 . S
C2223 N2231 1.427 . S
C2224 H2215 0.930 . S
C2224 C2222 1.378 . S
C2224 C2225 1.367 . S
C2225 C2224 1.367 . S
C2225 C2227 1.433 . S
C2226 C2222 1.350 . S
C2226 C2223 1.463 . S
C2226 N2230 1.427 . S
C2227 H2217 0.929 . S
C2227 C2225 1.433 . S
C2227 N2230 1.384 . S
C2228 H2219 0.929 . S
C2228 C2220 1.378 . S
C2228 C2223 1.350 . S
C2229 H2216 0.929 . S
C2229 C2221 1.433 . S
C2229 N2231 1.384 . S
N2230 C2226 1.427 . S
N2230 C2227 1.384 . S
N2231 C2223 1.427 . S
N2231 C2229 1.384 . S
C1591 C49 1.944 . S
C1595 C284 1.957 . S
C1609 C108 1.974 . S
C1613 C401 1.988 . S
C1627 C489 1.973 . S
C1631 C233 1.982 . S
C1645 C577 1.924 . S
C1649 C821 1.938 . S
C1663 C636 1.954 . S
C1667 C929 1.964 . S
C1681 C1017 1.925 . S
C1685 C761 1.933 . S
C1699 C1340 1.944 . S
C1703 C1105 1.930 . S
C1717 C1465 1.970 . S
C1721 C1173 1.955 . S
C1735 C1553 1.917 . S
C1739 C1281 1.925 . S
C1753 C29 2.566 . S
C1757 C849 2.559 . S
C1771 C145 2.564 . S
C1775 C900 2.563 . S
C1789 C1025 2.635 . S
C1793 C205 2.632 . S
C1807 C313 2.554 . S
C1811 C1085 2.553 . S
C1825 C372 2.566 . S
C1829 C1193 2.568 . S
C1843 C497 2.638 . S
C1847 C1252 2.637 . S
C1861 C557 2.610 . S
C1865 C1369 2.614 . S
C1879 C673 2.618 . S
C1883 C1437 2.615 . S
C1897 C1545 2.525 . S
C1901 C733 2.521 . S
C1915 C57 0.346 . S
C1919 C381 0.117 . S
C1933 C117 0.355 . S
C1937 C460 0.103 . S
C1951 C196 0.430 . S
C1955 C321 0.177 . S
C1969 C293 0.415 . S
C1973 C137 0.088 . S
C1987 C225 0.130 . S
C1991 C409 0.403 . S
C2005 C469 0.356 . S
C2009 C20 0.094 . S
C2023 C585 0.353 . S
C2027 C909 0.154 . S
C2041 C988 0.146 . S
C2045 C645 0.402 . S
C2059 C841 0.118 . S
C2063 C724 0.316 . S
C2077 C665 0.129 . S
C2081 C812 0.440 . S
C2095 C937 0.387 . S
C2099 C753 0.160 . S
C2113 C997 0.405 . S
C2117 C548 0.151 . S
C2131 C1428 0.122 . S
C2135 C1113 0.351 . S
C2149 C1525 0.160 . S
C2153 C1164 0.343 . S
C2167 C1261 0.440 . S
C2171 C1377 0.224 1_655 S
C2185 C1201 0.080 . S
C2189 C1349 0.352 . S
C2203 C1289 0.144 . S
C2207 C1457 0.443 . S
C2221 C1076 0.076 . S
C2225 C1516 0.280 . S
