# Generated by pormake.
# Topology wiu, (6)-cn, num edge types: 1
# Building blocks:
#     Node 0, Type 0, BuildingBlock: BETFEN_clean_sbu_0, # of connection points: 6
#     Node 1, Type 0, BuildingBlock: BETFEN_clean_sbu_0, # of connection points: 6
#     Node 2, Type 0, BuildingBlock: BETFEN_clean_sbu_0, # of connection points: 6
#     Node 3, Type 0, BuildingBlock: BETFEN_clean_sbu_0, # of connection points: 6
#     Node 4, Type 0, BuildingBlock: BETFEN_clean_sbu_0, # of connection points: 6
#     Node 5, Type 0, BuildingBlock: BETFEN_clean_sbu_0, # of connection points: 6
#     Node 6, Type 0, BuildingBlock: BETFEN_clean_sbu_0, # of connection points: 6
#     Node 7, Type 0, BuildingBlock: BETFEN_clean_sbu_0, # of connection points: 6
#     Node 8, Type 0, BuildingBlock: BETFEN_clean_sbu_0, # of connection points: 6
#     Node 9, Type 0, BuildingBlock: BETFEN_clean_sbu_0, # of connection points: 6
#     Node 10, Type 0, BuildingBlock: BETFEN_clean_sbu_0, # of connection points: 6
#     Node 11, Type 0, BuildingBlock: BETFEN_clean_sbu_0, # of connection points: 6
#     Node 12, Type 0, BuildingBlock: BETFEN_clean_sbu_0, # of connection points: 6
#     Node 13, Type 0, BuildingBlock: BETFEN_clean_sbu_0, # of connection points: 6
#     Node 14, Type 0, BuildingBlock: BETFEN_clean_sbu_0, # of connection points: 6
#     Node 15, Type 0, BuildingBlock: BETFEN_clean_sbu_0, # of connection points: 6
#     Edge 16, Type (0, 0), BuildingBlock: XIVTED_clean_linker_0, # of connection points: 2
#     Edge 17, Type (0, 0), BuildingBlock: XIVTED_clean_linker_0, # of connection points: 2
#     Edge 18, Type (0, 0), BuildingBlock: XIVTED_clean_linker_0, # of connection points: 2
#     Edge 19, Type (0, 0), BuildingBlock: XIVTED_clean_linker_0, # of connection points: 2
#     Edge 20, Type (0, 0), BuildingBlock: XIVTED_clean_linker_0, # of connection points: 2
#     Edge 21, Type (0, 0), BuildingBlock: XIVTED_clean_linker_0, # of connection points: 2
#     Edge 22, Type (0, 0), BuildingBlock: XIVTED_clean_linker_0, # of connection points: 2
#     Edge 23, Type (0, 0), BuildingBlock: XIVTED_clean_linker_0, # of connection points: 2
#     Edge 24, Type (0, 0), BuildingBlock: XIVTED_clean_linker_0, # of connection points: 2
#     Edge 25, Type (0, 0), BuildingBlock: XIVTED_clean_linker_0, # of connection points: 2
#     Edge 26, Type (0, 0), BuildingBlock: XIVTED_clean_linker_0, # of connection points: 2
#     Edge 27, Type (0, 0), BuildingBlock: XIVTED_clean_linker_0, # of connection points: 2
#     Edge 28, Type (0, 0), BuildingBlock: XIVTED_clean_linker_0, # of connection points: 2
#     Edge 29, Type (0, 0), BuildingBlock: XIVTED_clean_linker_0, # of connection points: 2
#     Edge 30, Type (0, 0), BuildingBlock: XIVTED_clean_linker_0, # of connection points: 2
#     Edge 31, Type (0, 0), BuildingBlock: XIVTED_clean_linker_0, # of connection points: 2
#     Edge 32, Type (0, 0), BuildingBlock: XIVTED_clean_linker_0, # of connection points: 2
#     Edge 33, Type (0, 0), BuildingBlock: XIVTED_clean_linker_0, # of connection points: 2
#     Edge 34, Type (0, 0), BuildingBlock: XIVTED_clean_linker_0, # of connection points: 2
#     Edge 35, Type (0, 0), BuildingBlock: XIVTED_clean_linker_0, # of connection points: 2
#     Edge 36, Type (0, 0), BuildingBlock: XIVTED_clean_linker_0, # of connection points: 2
#     Edge 37, Type (0, 0), BuildingBlock: XIVTED_clean_linker_0, # of connection points: 2
#     Edge 38, Type (0, 0), BuildingBlock: XIVTED_clean_linker_0, # of connection points: 2
#     Edge 39, Type (0, 0), BuildingBlock: XIVTED_clean_linker_0, # of connection points: 2
#     Edge 40, Type (0, 0), BuildingBlock: XIVTED_clean_linker_0, # of connection points: 2
#     Edge 41, Type (0, 0), BuildingBlock: XIVTED_clean_linker_0, # of connection points: 2
#     Edge 42, Type (0, 0), BuildingBlock: XIVTED_clean_linker_0, # of connection points: 2
#     Edge 43, Type (0, 0), BuildingBlock: XIVTED_clean_linker_0, # of connection points: 2
#     Edge 44, Type (0, 0), BuildingBlock: XIVTED_clean_linker_0, # of connection points: 2
#     Edge 45, Type (0, 0), BuildingBlock: XIVTED_clean_linker_0, # of connection points: 2
#     Edge 46, Type (0, 0), BuildingBlock: XIVTED_clean_linker_0, # of connection points: 2
#     Edge 47, Type (0, 0), BuildingBlock: XIVTED_clean_linker_0, # of connection points: 2
#     Edge 48, Type (0, 0), BuildingBlock: XIVTED_clean_linker_0, # of connection points: 2
#     Edge 49, Type (0, 0), BuildingBlock: XIVTED_clean_linker_0, # of connection points: 2
#     Edge 50, Type (0, 0), BuildingBlock: XIVTED_clean_linker_0, # of connection points: 2
#     Edge 51, Type (0, 0), BuildingBlock: XIVTED_clean_linker_0, # of connection points: 2
#     Edge 52, Type (0, 0), BuildingBlock: XIVTED_clean_linker_0, # of connection points: 2
#     Edge 53, Type (0, 0), BuildingBlock: XIVTED_clean_linker_0, # of connection points: 2
#     Edge 54, Type (0, 0), BuildingBlock: XIVTED_clean_linker_0, # of connection points: 2
#     Edge 55, Type (0, 0), BuildingBlock: XIVTED_clean_linker_0, # of connection points: 2
#     Edge 56, Type (0, 0), BuildingBlock: XIVTED_clean_linker_0, # of connection points: 2
#     Edge 57, Type (0, 0), BuildingBlock: XIVTED_clean_linker_0, # of connection points: 2
#     Edge 58, Type (0, 0), BuildingBlock: XIVTED_clean_linker_0, # of connection points: 2
#     Edge 59, Type (0, 0), BuildingBlock: XIVTED_clean_linker_0, # of connection points: 2
#     Edge 60, Type (0, 0), BuildingBlock: XIVTED_clean_linker_0, # of connection points: 2
#     Edge 61, Type (0, 0), BuildingBlock: XIVTED_clean_linker_0, # of connection points: 2
#     Edge 62, Type (0, 0), BuildingBlock: XIVTED_clean_linker_0, # of connection points: 2
#     Edge 63, Type (0, 0), BuildingBlock: XIVTED_clean_linker_0, # of connection points: 2
# Relax obj value: 0.565
# Max RMSD: 0.322
# Mean RMSD: 0.322
data_MOF--net-wiu--node1-BETFEN_clean_sbu_0--edge1-XIVTED_clean_linker_0
_symmetry_space_group_name_H-M    P1
_symmetry_Int_Tables_number       1
_symmetry_cell_setting            triclinic
loop_
_symmetry_equiv_pos_as_xyz
'x, y, z'
_cell_length_a     38.869172
_cell_length_b     38.728086
_cell_length_c     55.397766
_cell_angle_alpha  89.729636
_cell_angle_beta   90.224429
_cell_angle_gamma 90.129537
loop_
_atom_site_label
_atom_site_type_symbol
_atom_site_fract_x
_atom_site_fract_y
_atom_site_fract_z
_atom_type_partial_charge
Pr0 Pr 0.33275 0.15904 0.26207 0.0
Pr1 Pr 0.36758 0.10362 0.24539 0.0
C2 C 0.29182 0.20245 0.28679 0.0
C3 C 0.28574 0.23858 0.29261 0.0
C4 C 0.30543 0.26489 0.28207 0.0
C5 C 0.29647 0.29939 0.28563 0.0
C6 C 0.26765 0.30789 0.29971 0.0
C7 C 0.24895 0.28126 0.31102 0.0
C8 C 0.2579 0.24686 0.3074 0.0
C9 C 0.39883 0.18446 0.24832 0.0
C10 C 0.36519 0.1019 0.30221 0.0
C11 C 0.40123 0.05519 0.22128 0.0
C12 C 0.38935 0.03206 0.20193 0.0
C13 C 0.3864 0.99634 0.20609 0.0
C14 C 0.38358 0.97397 0.18641 0.0
C15 C 0.39007 0.9875 0.16321 0.0
C16 C 0.3793 0.02188 0.15948 0.0
C17 C 0.3816 0.04483 0.17876 0.0
C18 C 0.3004 0.08452 0.25827 0.0
C19 C 0.31561 0.14005 0.20436 0.0
O20 O 0.31883 0.18768 0.29629 0.0
O21 O 0.28642 0.1937 0.26441 0.0
O22 O 0.39376 0.15548 0.259 0.0
O23 O 0.36963 0.19923 0.24376 0.0
O24 O 0.38755 0.09666 0.28497 0.0
O25 O 0.33809 0.12128 0.29693 0.0
O26 O 0.4044 0.08809 0.21598 0.0
O27 O 0.38811 0.04939 0.24255 0.0
O28 O 0.30893 0.11091 0.24671 0.0
O29 O 0.32695 0.0658 0.2634 0.0
O30 O 0.30519 0.15859 0.22301 0.0
O31 O 0.34198 0.11913 0.20766 0.0
H32 H 0.32691 0.25872 0.27046 0.0
H33 H 0.31114 0.31925 0.27645 0.0
H34 H 0.22695 0.28698 0.32224 0.0
H35 H 0.24246 0.22665 0.3156 0.0
H36 H 0.38908 0.98565 0.2241 0.0
H37 H 0.38566 0.94648 0.18977 0.0
H38 H 0.37743 0.03277 1.1415 0.0
H39 H 0.38008 0.0723 0.17516 0.0
Pr40 Pr 0.60873 0.5833 0.51055 0.0
Pr41 Pr 0.6639 0.61832 0.49479 0.0
C42 C 0.56562 0.54093 0.53474 0.0
C43 C 0.53012 0.53416 0.5417 0.0
C44 C 0.50343 0.55603 0.53431 0.0
C45 C 0.46929 0.54656 0.53854 0.0
C46 C 0.46155 0.51503 0.55009 0.0
C47 C 0.48864 0.49405 0.55838 0.0
C48 C 0.52268 0.50354 0.55413 0.0
C49 C 0.58347 0.64983 0.49714 0.0
C50 C 0.66407 0.61624 0.55145 0.0
C51 C 0.71363 0.65163 0.47143 0.0
C52 C 0.73627 0.63987 0.45189 0.0
C53 C 0.77187 0.63673 0.45576 0.0
C54 C 0.7938 0.6336 0.43592 0.0
C55 C 0.78008 0.63996 0.41274 0.0
C56 C 0.74561 0.6294 0.40943 0.0
C57 C 0.72309 0.63207 0.42889 0.0
C58 C 0.68207 0.55061 0.50776 0.0
C59 C 0.62832 0.56711 0.45304 0.0
O60 O 0.58149 0.5668 0.54489 0.0
O61 O 0.5726 0.53777 0.51187 0.0
O62 O 0.61219 0.64466 0.50796 0.0
O63 O 0.56892 0.62057 0.49224 0.0
O64 O 0.6693 0.63891 0.53422 0.0
O65 O 0.64542 0.58865 0.54594 0.0
O66 O 0.68103 0.65619 0.46614 0.0
O67 O 0.71875 0.63714 0.49242 0.0
O68 O 0.65673 0.55947 0.49534 0.0
O69 O 0.69963 0.57721 0.51461 0.0
O70 O 0.60981 0.55611 0.47158 0.0
O71 O 0.64899 0.59372 0.4566 0.0
H72 H 0.50896 0.57968 0.52453 0.0
H73 H 0.449 0.56307 0.5317 0.0
H74 H 0.48352 0.46987 0.56761 0.0
H75 H 0.54319 0.4864 0.55986 0.0
H76 H 0.78282 0.6393 0.47368 0.0
H77 H 0.82127 0.63512 0.43906 0.0
H78 H 0.73447 0.62725 0.39157 0.0
H79 H 0.69565 0.63066 0.42555 0.0
Pr80 Pr 0.18466 0.85793 0.7622 0.0
Pr81 Pr 0.15132 0.91402 0.74527 0.0
C82 C 0.22696 0.81238 0.7843 0.0
C83 C 0.2354 0.7781 0.79378 0.0
C84 C 0.2122 0.75046 0.79225 0.0
C85 C 0.22311 0.71699 0.79805 0.0
C86 C 0.25743 0.7108 0.8051 0.0
C87 C 0.28008 0.7389 0.80743 0.0
C88 C 0.26909 0.77226 0.80183 0.0
C89 C 0.11771 0.83469 0.74828 0.0
C90 C 0.15291 0.9162 0.80237 0.0
C91 C 0.11889 0.96224 0.71963 0.0
C92 C 0.13063 0.98252 0.69864 0.0
C93 C 0.13671 0.01818 0.7007 0.0
C94 C 0.13929 0.03839 0.67977 0.0
C95 C 0.12971 0.02337 0.65763 0.0
C96 C 0.13717 0.98788 0.65541 0.0
C97 C 0.13504 0.96705 0.67597 0.0
C98 C 0.21881 0.93187 0.75865 0.0
C99 C 0.20247 0.87844 0.70466 0.0
O100 O 0.20614 0.83238 0.79624 0.0
O101 O 0.22398 0.8154 0.76098 0.0
O102 O 0.12373 0.86295 0.75942 0.0
O103 O 0.14645 0.8197 0.7432 0.0
O104 O 0.1327 0.9247 0.78432 0.0
O105 O 0.1776 0.89319 0.79829 0.0
O106 O 0.11317 0.92922 0.71631 0.0
O107 O 0.13403 0.96915 0.74009 0.0
O108 O 0.21004 0.90567 0.74702 0.0
O109 O 0.19233 0.95044 0.76393 0.0
O110 O 0.2136 0.86105 0.72379 0.0
O111 O 0.1755 0.89847 0.70748 0.0
H112 H 0.1862 0.75457 0.78574 0.0
H113 H 0.20518 0.69578 0.79586 0.0
H114 H 0.30652 0.73498 0.81303 0.0
H115 H 0.28737 0.79338 0.80289 0.0
H116 H 0.13665 0.03069 0.71815 0.0
H117 H 0.13974 0.06621 0.6817 0.0
H118 H 0.13639 0.97521 0.63806 0.0
H119 H 0.13403 0.93929 0.67383 0.0
Pr120 Pr 0.90869 0.435 1.01317 0.0
Pr121 Pr 0.85437 0.40053 0.99459 0.0
C122 C 0.95283 0.47632 1.03733 0.0
C123 C 0.98838 0.48156 1.04506 0.0
C124 C 0.0149 0.46074 1.03627 0.0
C125 C 0.04917 0.46997 1.0404 0.0
C126 C 0.05729 0.50021 1.05327 0.0
C127 C 0.03044 0.51984 1.06314 0.0
C128 C 0.99625 0.5106 1.05898 0.0
C129 C 0.9339 0.3688 0.99912 0.0
C130 C 0.8497 0.40256 1.05191 0.0
C131 C 0.80725 0.36717 0.96861 0.0
C132 C 0.785 0.37923 0.94872 0.0
C133 C 0.74947 0.38351 0.95228 0.0
C134 C 0.72762 0.38631 0.93224 0.0
C135 C 0.74118 0.37846 0.90937 0.0
C136 C 0.77589 0.38803 0.90595 0.0
C137 C 0.79837 0.38566 0.9256 0.0
C138 C 0.8345 0.46762 1.00769 0.0
C139 C 0.89072 0.45402 0.95543 0.0
O140 O 0.93477 0.45225 1.04795 0.0
O141 O 0.94724 0.47832 1.01417 0.0
O142 O 0.90501 0.37376 1.00955 0.0
O143 O 0.94855 0.39821 0.9947 0.0
O144 O 0.84255 0.38187 1.03386 0.0
O145 O 0.87201 0.42795 1.0481 0.0
O146 O 0.84022 0.36431 0.96425 0.0
O147 O 0.80052 0.37984 0.98981 0.0
O148 O 0.86144 0.45952 0.99694 0.0
O149 O 0.81575 0.44068 1.01175 0.0
O150 O 0.90476 0.4662 0.9755 0.0
O151 O 0.87353 0.42475 0.95714 0.0
H152 H 1.0091 0.43838 1.02529 0.0
H153 H 0.0692 0.4545 1.03233 0.0
H154 H 0.03583 0.54295 1.07343 0.0
H155 H 0.97593 0.52701 1.06575 0.0
H156 H 0.73841 0.38192 0.97017 0.0
H157 H 0.70012 0.3855 0.93525 0.0
H158 H 0.78706 0.389 0.8881 0.0
H159 H 0.82583 0.3861 0.92237 0.0
Pr160 Pr 0.65106 0.91303 1.05685 0.0
Pr161 Pr 0.68587 0.85884 1.03899 0.0
C162 C 0.61718 0.96046 1.08188 0.0
C163 C 0.62868 0.98356 1.10137 0.0
C164 C 0.63289 0.01912 1.09703 0.0
C165 C 0.6349 0.04182 1.11654 0.0
C166 C 0.62694 0.02899 1.13969 0.0
C167 C 0.63582 0.99418 1.14403 0.0
C168 C 0.63428 0.971 1.12487 0.0
C169 C 0.71806 0.93366 1.04418 0.0
C170 C 0.70373 0.87712 1.09671 0.0
C171 C 0.72828 0.81527 1.01573 0.0
C172 C 0.73431 0.78033 1.00702 0.0
C173 C 0.71271 0.75299 1.01372 0.0
C174 C 0.72245 0.71901 1.00895 0.0
C175 C 0.75398 0.71206 0.99754 0.0
C176 C 0.77452 0.73982 0.9897 0.0
C177 C 0.76475 0.77371 0.99448 0.0
C178 C 0.61946 0.83325 1.05237 0.0
C179 C 0.65346 0.9172 0.99953 0.0
O180 O 0.61468 0.92745 1.08686 0.0
O181 O 0.62993 0.96687 1.06061 0.0
O182 O 0.70998 0.90654 1.05505 0.0
O183 O 0.69115 0.95204 1.03957 0.0
O184 O 0.71638 0.86335 1.07679 0.0
O185 O 0.6744 0.89393 1.09466 0.0
O186 O 0.70581 0.83453 1.00445 0.0
O187 O 0.72776 0.81897 1.03908 0.0
O188 O 0.6248 0.86221 1.04181 0.0
O189 O 0.64861 0.81852 1.05707 0.0
O190 O 0.63267 0.92427 1.01743 0.0
O191 O 0.67889 0.89514 1.00361 0.0
H192 H 0.63165 0.02955 1.07887 0.0
H193 H 0.63368 0.06928 1.11285 0.0
H194 H 0.63585 0.98348 0.16211 0.0
H195 H 0.63453 0.94356 1.12874 0.0
H196 H 0.68925 0.75782 1.02365 0.0
H197 H 0.70624 0.69822 1.01546 0.0
H198 H 0.79869 0.73534 0.98058 0.0
H199 H 0.78177 0.79469 0.98936 0.0
Pr200 Pr 0.35092 0.39476 0.8091 0.0
Pr201 Pr 0.40991 0.43979 0.78753 0.0
C202 C 0.309 0.35285 0.83227 0.0
C203 C 0.28224 0.36365 0.84949 0.0
C204 C 0.24769 0.36673 0.84218 0.0
C205 C 0.22209 0.37176 0.85946 0.0
C206 C 0.2308 0.36871 0.88411 0.0
C207 C 0.26501 0.37747 0.89027 0.0
C208 C 0.29091 0.37286 0.87325 0.0
C209 C 0.3268 0.46235 0.80171 0.0
C210 C 0.3858 0.45378 0.84591 0.0
C211 C 0.44662 0.49176 0.76824 0.0
C212 C 0.4821 0.50115 0.76255 0.0
C213 C 0.50719 0.47578 0.75886 0.0
C214 C 0.54156 0.48535 0.75579 0.0
C215 C 0.55117 0.52031 0.75677 0.0
C216 C 0.52583 0.54563 0.7599 0.0
C217 C 0.49146 0.53608 0.76269 0.0
C218 C 0.44012 0.37326 0.79614 0.0
C219 C 0.35006 0.40337 0.75019 0.0
O220 O 0.34115 0.35674 0.83924 0.0
O221 O 0.30346 0.36124 0.80963 0.0
O222 O 0.35562 0.44991 0.79701 0.0
O223 O 0.30736 0.43798 0.81007 0.0
O224 O 0.4053 0.46376 0.82743 0.0
O225 O 0.36583 0.42617 0.84416 0.0
O226 O 0.43225 0.46748 0.75519 0.0
O227 O 0.43952 0.48954 0.79127 0.0
O228 O 0.40866 0.3808 0.80072 0.0
O229 O 0.45566 0.40045 0.78793 0.0
O230 O 0.34292 0.38181 0.76805 0.0
O231 O 0.372 0.42941 0.75365 0.0
H232 H 0.24022 0.36312 0.82351 0.0
H233 H 0.19549 0.37047 0.85365 0.0
H234 H 0.27283 0.3809 0.90886 0.0
H235 H 0.31747 0.37433 0.87914 0.0
H236 H 0.50036 0.44864 0.759 0.0
H237 H 0.56081 0.46542 0.75365 0.0
H238 H 0.53272 0.57273 0.76061 0.0
H239 H 0.47232 0.5559 0.76564 0.0
Pr240 Pr 0.86835 0.1014 0.5567 0.0
Pr241 Pr 0.83542 0.15738 0.54003 0.0
C242 C 0.90012 0.05266 0.58226 0.0
C243 C 0.88806 0.0327 0.60328 0.0
C244 C 0.88287 0.99686 0.60162 0.0
C245 C 0.87991 0.97724 0.62281 0.0
C246 C 0.88865 0.99318 0.64482 0.0
C247 C 0.87973 0.02838 0.6464 0.0
C248 C 0.88228 0.04871 0.62562 0.0
C249 C 0.80099 0.08407 0.54286 0.0
C250 C 0.81725 0.13802 0.59756 0.0
C251 C 0.79382 0.20146 0.51594 0.0
C252 C 0.78561 0.23733 0.51042 0.0
C253 C 0.80883 0.26403 0.51543 0.0
C254 C 0.79838 0.29835 0.51297 0.0
C255 C 0.7645 0.30625 0.50575 0.0
C256 C 0.74187 0.27919 0.49987 0.0
C257 C 0.75241 0.245 0.50219 0.0
C258 C 0.90171 0.18158 0.55427 0.0
C259 C 0.86717 0.09976 0.49973 0.0
O260 O 0.90643 0.08558 0.58553 0.0
O261 O 0.88473 0.04597 0.56185 0.0
O262 O 0.80986 0.10961 0.55509 0.0
O263 O 0.82742 0.06601 0.53667 0.0
O264 O 0.80813 0.15773 0.57902 0.0
O265 O 0.84235 0.11576 0.59426 0.0
O266 O 0.82131 0.18803 0.50638 0.0
O267 O 0.78882 0.19174 0.53817 0.0
O268 O 0.89628 0.15288 0.54342 0.0
O269 O 0.87266 0.19639 0.55896 0.0
O270 O 0.88747 0.09109 0.51768 0.0
O271 O 0.84213 0.12213 0.50412 0.0
H272 H 0.88387 0.98386 0.58437 0.0
H273 H 0.88016 0.94937 0.62132 0.0
H274 H 0.87934 0.0415 0.6636 0.0
H275 H 0.88246 0.07654 0.62738 0.0
H276 H 0.83455 0.25835 0.52192 0.0
H277 H 0.81658 0.31868 0.5172 0.0
H278 H 0.71553 0.28432 0.49454 0.0
H279 H 0.73415 0.22448 0.49847 0.0
Pr280 Pr 0.16423 0.61908 0.30509 0.0
Pr281 Pr 0.11022 0.5821 0.2882 0.0
C282 C 0.21056 0.65465 0.33007 0.0
C283 C 0.23329 0.6428 0.34977 0.0
C284 C 0.26876 0.63869 0.34589 0.0
C285 C 0.29087 0.63473 0.36568 0.0
C286 C 0.27771 0.64085 0.38894 0.0
C287 C 0.24285 0.63176 0.39226 0.0
C288 C 0.2202 0.6353 0.37281 0.0
C289 C 0.18578 0.55229 0.29306 0.0
C290 C 0.12911 0.56569 0.34602 0.0
C291 C 0.06775 0.53964 0.26351 0.0
C292 C 0.0318 0.53184 0.25814 0.0
C293 C 1.00548 0.55454 0.26468 0.0
C294 C 0.97113 0.54501 0.26128 0.0
C295 C 0.96275 0.51261 0.25141 0.0
C296 C 0.98942 0.49047 0.24426 0.0
C297 C 0.02368 0.50003 0.24767 0.0
C298 C 0.08345 0.64784 0.30183 0.0
C299 C 0.1669 0.61521 0.24825 0.0
O300 O 0.17758 0.6567 0.33473 0.0
O301 O 0.21727 0.64217 0.30877 0.0
O302 O 0.15893 0.55994 0.30412 0.0
O303 O 0.20345 0.57961 0.28778 0.0
O304 O 0.11084 0.55473 0.3273 0.0
O305 O 0.14944 0.59266 0.34275 0.0
O306 O 0.08077 0.56782 0.25428 0.0
O307 O 0.07772 0.5339 0.28564 0.0
O308 O 0.11205 0.6434 0.29089 0.0
O309 O 0.06967 0.61813 0.30669 0.0
O310 O 0.17157 0.63817 0.26529 0.0
O311 O 0.148 0.58771 0.25366 0.0
H312 H 0.27957 0.64104 0.32796 0.0
H313 H 0.31833 0.63546 0.36248 0.0
H314 H 0.23182 0.62982 0.41012 0.0
H315 H 0.19278 0.63465 0.37619 0.0
H316 H 0.0115 0.57911 0.27299 0.0
H317 H 0.95119 0.56243 0.26725 0.0
H318 H 0.98382 0.46555 0.23634 0.0
H319 H 0.04387 0.48223 0.24261 0.0
Pr320 Pr 0.83255 0.6582 0.76099 0.0
Pr321 Pr 0.86632 0.60258 0.74459 0.0
C322 C 0.79123 0.70246 0.78464 0.0
C323 C 0.78628 0.73824 0.79196 0.0
C324 C 0.80654 0.76487 0.78234 0.0
C325 C 0.79784 0.79927 0.78665 0.0
C326 C 0.76873 0.80737 0.80056 0.0
C327 C 0.74973 0.7804 0.81119 0.0
C328 C 0.7584 0.7461 0.80682 0.0
C329 C 0.89876 0.68324 0.74745 0.0
C330 C 0.86521 0.60103 0.80158 0.0
C331 C 0.899 0.55309 0.72072 0.0
C332 C 0.88773 0.53084 0.70073 0.0
C333 C 0.88515 0.49493 0.70401 0.0
C334 C 0.88345 0.47348 0.68378 0.0
C335 C 0.89057 0.48823 0.66104 0.0
C336 C 0.87945 0.52262 0.6579 0.0
C337 C 0.88069 0.54464 0.67774 0.0
C338 C 0.79909 0.58471 0.75812 0.0
C339 C 0.81477 0.6384 0.70338 0.0
O340 O 0.81529 0.68464 0.79541 0.0
O341 O 0.78903 0.6964 0.76158 0.0
O342 O 0.89354 0.65412 0.75791 0.0
O343 O 0.86972 0.69839 0.74319 0.0
O344 O 0.88601 0.59358 0.78381 0.0
O345 O 0.83947 0.62259 0.79699 0.0
O346 O 0.90385 0.58592 0.71593 0.0
O347 O 0.88411 0.5474 0.74139 0.0
O348 O 0.80774 0.61023 0.74572 0.0
O349 O 0.82561 0.56677 0.76444 0.0
O350 O 0.80427 0.65658 0.72216 0.0
O351 O 0.84135 0.61777 0.7066 0.0
H352 H 0.82809 0.75906 0.7707 0.0
H353 H 0.81282 0.81941 0.77802 0.0
H354 H 0.72753 0.78577 0.8223 0.0
H355 H 0.74251 0.72569 0.81431 0.0
H356 H 0.8874 0.48345 0.72182 0.0
H357 H 0.88596 0.44589 0.68654 0.0
H358 H 0.87821 0.53436 0.64016 0.0
H359 H 0.87906 0.57224 0.67475 0.0
Pr360 Pr 0.10932 0.08191 1.01286 0.0
Pr361 Pr 0.16336 0.11744 0.9946 0.0
C362 C 0.06622 0.04026 1.03767 0.0
C363 C 0.03058 0.03469 1.04487 0.0
C364 C 1.00406 0.05513 1.0354 0.0
C365 C 0.96979 0.04594 1.03946 0.0
C366 C 0.9617 0.01615 1.05298 0.0
C367 C 0.98855 0.99683 1.06341 0.0
C368 C 0.02274 1.00601 1.0593 0.0
C369 C 0.08322 0.14799 0.99868 0.0
C370 C 0.16635 0.11589 1.05172 0.0
C371 C 0.21178 0.15094 0.96999 0.0
C372 C 0.23522 0.13879 0.95105 0.0
C373 C 0.27093 0.13784 0.95517 0.0
C374 C 0.2932 0.1349 0.93548 0.0
C375 C 0.27924 0.13979 0.9122 0.0
C376 C 0.24576 0.12637 0.90901 0.0
C377 C 0.22279 0.12881 0.92825 0.0
C378 C 0.18361 0.05042 1.00801 0.0
C379 C 0.12705 0.06388 0.95522 0.0
O380 O 0.08322 0.06551 1.04774 0.0
O381 O 0.07251 0.03709 1.0147 0.0
O382 O 0.11229 0.14325 1.00909 0.0
O383 O 0.06874 0.11847 0.99442 0.0
O384 O 0.17056 0.13817 1.03403 0.0
O385 O 0.14744 0.08817 1.04717 0.0
O386 O 0.17907 0.15357 0.96444 0.0
O387 O 0.21735 0.13841 0.99152 0.0
O388 O 0.15688 0.0585 0.99685 0.0
O389 O 0.20205 0.07741 1.01253 0.0
O390 O 0.11288 0.05145 0.97518 0.0
O391 O 0.1441 0.09331 0.95702 0.0
H392 H 0.00985 0.07722 1.02403 0.0
H393 H 0.94975 0.06114 1.03095 0.0
H394 H 0.98318 0.97406 1.07419 0.0
H395 H 0.04308 0.98993 1.06663 0.0
H396 H 0.28152 0.14216 0.97302 0.0
H397 H 0.32049 0.13858 0.93861 0.0
H398 H 0.23507 0.12263 0.89115 0.0
H399 H 0.19552 0.1256 0.92483 0.0
Pr400 Pr 0.68593 0.3598 0.26254 0.0
Pr401 Pr 0.65049 0.41451 0.24464 0.0
C402 C 0.72919 0.31712 0.28641 0.0
C403 C 0.73889 0.28206 0.29339 0.0
C404 C 0.71514 0.2548 0.29327 0.0
C405 C 0.72648 0.22095 0.29711 0.0
C406 C 0.76167 0.21415 0.30071 0.0
C407 C 0.78507 0.24174 0.30163 0.0
C408 C 0.7737 0.27546 0.29807 0.0
C409 C 0.6197 0.33406 0.24869 0.0
C410 C 0.65254 0.41659 0.30164 0.0
C411 C 0.61724 0.46373 0.22042 0.0
C412 C 0.62901 0.4872 0.20115 0.0
C413 C 0.63154 0.5229 0.20532 0.0
C414 C 0.63396 0.54555 0.18564 0.0
C415 C 0.62739 0.53224 0.16244 0.0
C416 C 0.63876 0.4981 0.15874 0.0
C417 C 0.63686 0.47484 0.17802 0.0
C418 C 0.71784 0.43408 0.25739 0.0
C419 C 0.70194 0.37795 0.20455 0.0
O420 O 0.70268 0.33151 0.29667 0.0
O421 O 0.73204 0.32473 0.26359 0.0
O422 O 0.62479 0.36297 0.25924 0.0
O423 O 0.64896 0.31946 0.24424 0.0
O424 O 0.63012 0.42087 0.28411 0.0
O425 O 0.68012 0.39776 0.29692 0.0
O426 O 0.61382 0.43097 0.21504 0.0
O427 O 0.6306 0.46903 0.2417 0.0
O428 O 0.70917 0.4076 0.24619 0.0
O429 O 0.69129 0.45269 0.26231 0.0
O430 O 0.71483 0.36347 0.2243 0.0
O431 O 0.67291 0.39526 0.20677 0.0
H432 H 0.68821 0.25955 0.2894 0.0
H433 H 0.70806 0.19997 0.29609 0.0
H434 H 0.81227 0.23711 0.30449 0.0
H435 H 0.79234 0.29633 0.29809 0.0
H436 H 0.62884 0.53331 0.22333 0.0
H437 H 0.63169 0.57297 0.18899 0.0
H438 H 0.64077 0.48751 1.14076 0.0
H439 H 0.63873 0.44744 0.17444 0.0
Pr440 Pr 0.40674 0.93487 0.51277 0.0
Pr441 Pr 0.3521 0.89889 0.49514 0.0
C442 C 0.44992 0.97583 0.53806 0.0
C443 C 0.48625 0.98473 0.54068 0.0
C444 C 0.51211 0.9616 0.53395 0.0
C445 C 0.5466 0.97156 0.53531 0.0
C446 C 0.55564 1.00489 0.5432 0.0
C447 C 0.52947 0.02776 0.55017 0.0
C448 C 0.49506 0.0177 0.54893 0.0
C449 C 0.43277 0.86941 0.49833 0.0
C450 C 0.34969 0.90103 0.55204 0.0
C451 C 0.30547 0.86446 0.46962 0.0
C452 C 0.28281 0.87669 0.45001 0.0
C453 C 0.24723 0.88019 0.45378 0.0
C454 C 0.22527 0.88391 0.43387 0.0
C455 C 0.23883 0.87747 0.41077 0.0
C456 C 0.27329 0.88801 0.40755 0.0
C457 C 0.29594 0.88477 0.42706 0.0
C458 C 0.33164 0.96556 0.50807 0.0
C459 C 0.38915 0.95236 0.45497 0.0
O460 O 0.44018 0.94532 0.5455 0.0
O461 O 0.43549 0.98508 0.5178 0.0
O462 O 0.40402 0.87376 0.5091 0.0
O463 O 0.44696 0.89908 0.49385 0.0
O464 O 0.34465 0.87875 0.53462 0.0
O465 O 0.36893 0.92846 0.54715 0.0
O466 O 0.33845 0.86228 0.46496 0.0
O467 O 0.29879 0.87658 0.49102 0.0
O468 O 0.35834 0.95774 0.49686 0.0
O469 O 0.31351 0.93841 0.51302 0.0
O470 O 0.40849 0.96179 0.47358 0.0
O471 O 0.36718 0.9267 0.4581 0.0
H472 H 0.50561 0.93607 0.5274 0.0
H473 H 0.56616 0.95319 0.53014 0.0
H474 H 0.53547 0.05376 0.55597 0.0
H475 H 0.47524 0.03591 0.55397 0.0
H476 H 0.2363 0.87748 0.47164 0.0
H477 H 0.19779 0.8826 0.4369 0.0
H478 H 0.28429 0.89038 0.38971 0.0
H479 H 0.32337 0.88603 0.42378 0.0
Pr480 Pr 0.1507 0.41294 0.55551 0.0
Pr481 Pr 0.18742 0.35921 0.53859 0.0
C482 C 0.11515 0.45921 0.58023 0.0
C483 C 0.12668 0.48272 0.59949 0.0
C484 C 0.13132 0.51813 0.59477 0.0
C485 C 0.13432 0.54117 0.61403 0.0
C486 C 0.12701 0.52898 0.63745 0.0
C487 C 0.13519 0.49404 0.64197 0.0
C488 C 0.13267 0.47053 0.62304 0.0
C489 C 0.21719 0.43508 0.54322 0.0
C490 C 0.20392 0.37767 0.59635 0.0
C491 C 0.22888 0.31674 0.51351 0.0
C492 C 0.23528 0.2805 0.5082 0.0
C493 C 0.21505 0.25441 0.51852 0.0
C494 C 0.22383 0.21983 0.5152 0.0
C495 C 0.25297 0.211 0.50156 0.0
C496 C 0.27232 0.2374 0.49054 0.0
C497 C 0.26356 0.27191 0.49392 0.0
C498 C 0.1222 0.3317 0.55254 0.0
C499 C 0.15387 0.41591 0.49873 0.0
O500 O 0.11376 0.42616 0.58541 0.0
O501 O 0.12712 0.46581 0.55872 0.0
O502 O 0.20968 0.40795 0.55431 0.0
O503 O 0.18995 0.45286 0.53821 0.0
O504 O 0.21493 0.35965 0.57762 0.0
O505 O 0.177 0.39789 0.59312 0.0
O506 O 0.20112 0.33054 0.50439 0.0
O507 O 0.23497 0.32629 0.53564 0.0
O508 O 0.1264 0.36054 0.54155 0.0
O509 O 0.15188 0.31812 0.55736 0.0
O510 O 0.131 0.41985 0.51582 0.0
O511 O 0.18166 0.39763 0.50411 0.0
H512 H 0.1299 0.52824 0.57653 0.0
H513 H 0.13365 0.56858 0.61007 0.0
H514 H 0.13564 0.48366 0.66013 0.0
H515 H 0.13269 0.44317 0.62717 0.0
H516 H 0.19321 0.26083 0.52972 0.0
H517 H 0.20866 0.20014 0.52416 0.0
H518 H 0.29461 0.23142 0.47966 0.0
H519 H 0.27939 0.29193 0.48589 0.0
Pr520 Pr 0.85565 0.90131 0.3065 0.0
Pr521 Pr 0.90964 0.93593 0.28906 0.0
C522 C 0.80725 0.86813 0.33144 0.0
C523 C 0.78495 0.87974 0.35122 0.0
C524 C 0.74939 0.8837 0.34748 0.0
C525 C 0.72752 0.88593 0.3674 0.0
C526 C 0.74116 0.87815 0.39039 0.0
C527 C 0.77588 0.88768 0.39396 0.0
C528 C 0.79831 0.8859 0.3744 0.0
C529 C 0.83596 0.96851 0.29262 0.0
C530 C 0.89088 0.95365 0.34647 0.0
C531 C 0.9535 0.97876 0.26601 0.0
C532 C 0.98818 0.98508 0.25708 0.0
C533 C 0.01491 0.96183 0.26183 0.0
C534 C 0.0489 0.97145 0.25716 0.0
C535 C 0.05646 1.00451 0.24787 0.0
C536 C 0.02926 0.02686 0.24193 0.0
C537 C 0.99536 0.0172 0.24657 0.0
C538 C 0.9351 0.86939 0.30282 0.0
C539 C 0.85251 0.90258 0.24928 0.0
O540 O 0.84007 0.86428 0.33617 0.0
O541 O 0.80117 0.88198 0.31039 0.0
O542 O 0.8621 0.96058 0.3045 0.0
O543 O 0.81793 0.94141 0.28782 0.0
O544 O 0.9045 0.96669 0.32655 0.0
O545 O 0.87449 0.92399 0.34442 0.0
O546 O 0.93388 0.95679 0.2546 0.0
O547 O 0.9502 0.97734 0.28938 0.0
O548 O 0.90635 0.87455 0.29206 0.0
O549 O 0.94942 0.89876 0.3077 0.0
O550 O 0.84533 0.88182 0.26736 0.0
O551 O 0.87428 0.92836 0.25331 0.0
H552 H 0.73835 0.88223 0.32952 0.0
H553 H 0.70002 0.88485 0.36424 0.0
H554 H 0.78715 0.88836 0.41184 0.0
H555 H 0.82577 0.88649 0.37774 0.0
H556 H 0.00963 0.93706 0.27022 0.0
H557 H 0.06932 0.9538 0.26215 0.0
H558 H 0.03424 0.05229 0.23448 0.0
H559 H 0.97487 0.03549 0.24299 0.0
Pr560 Pr 0.36767 0.60336 1.05526 0.0
Pr561 Pr 0.3323 0.65821 1.03826 0.0
C562 C 0.40221 0.55535 1.07963 0.0
C563 C 0.39068 0.53156 1.09879 0.0
C564 C 0.38762 0.49599 1.09427 0.0
C565 C 0.38492 0.47294 1.1137 0.0
C566 C 0.39142 0.48557 1.13709 0.0
C567 C 0.38106 0.51996 1.14114 0.0
C568 C 0.38325 0.54355 1.12208 0.0
C569 C 0.30062 0.58304 1.04266 0.0
C570 C 0.31556 0.63953 1.09598 0.0
C571 C 0.29084 0.70113 1.01306 0.0
C572 C 0.28363 0.73716 1.00736 0.0
C573 C 0.30592 0.76354 1.01475 0.0
C574 C 0.29663 0.79801 1.01123 0.0
C575 C 0.26488 0.80638 1.0004 0.0
C576 C 0.24329 0.77965 0.99229 0.0
C577 C 0.2526 0.74528 0.99582 0.0
C578 C 0.39836 0.684 1.05209 0.0
C579 C 0.36489 0.6019 0.99842 0.0
O580 O 0.40455 0.58821 1.08505 0.0
O581 O 0.38947 0.54963 1.0582 0.0
O582 O 0.30882 0.60974 1.05389 0.0
O583 O 0.3275 0.56503 1.03738 0.0
O584 O 0.30533 0.65837 1.07727 0.0
O585 O 0.34168 0.6183 1.09284 0.0
O586 O 0.31869 0.68763 1.00409 0.0
O587 O 0.28497 0.69154 1.03524 0.0
O588 O 0.39328 0.65527 1.04131 0.0
O589 O 0.36911 0.69849 1.0567 0.0
O590 O 0.38752 0.59702 1.0157 0.0
O591 O 0.33742 0.62056 1.00367 0.0
H592 H 0.39004 0.48592 1.07615 0.0
H593 H 0.38668 0.44557 1.11002 0.0
H594 H 0.37933 0.53026 0.15921 0.0
H595 H 0.38184 0.5709 1.12596 0.0
H596 H 0.32989 0.75749 1.02387 0.0
H597 H 0.3136 0.81803 1.01793 0.0
H598 H 0.2189 0.78529 0.98362 0.0
H599 H 0.23514 0.72502 0.99009 0.0
Pr600 Pr 0.66375 0.11835 0.80615 0.0
Pr601 Pr 0.6101 0.08254 0.78865 0.0
C602 C 0.71098 0.15275 0.83127 0.0
C603 C 0.73334 0.14086 0.85115 0.0
C604 C 0.76886 0.13664 0.84754 0.0
C605 C 0.7907 0.13323 0.86753 0.0
C606 C 0.77721 0.14014 0.89058 0.0
C607 C 0.74236 0.13096 0.89383 0.0
C608 C 0.71995 0.13392 0.87419 0.0
C609 C 0.68518 0.05135 0.79405 0.0
C610 C 0.62798 0.06537 0.84627 0.0
C611 C 0.56637 0.04098 0.76432 0.0
C612 C 0.53065 0.03507 0.75724 0.0
C613 C 0.504 0.05473 0.76703 0.0
C614 C 0.46981 0.04516 0.76299 0.0
C615 C 0.4619 0.01573 0.74917 0.0
C616 C 0.48885 0.99718 0.73847 0.0
C617 C 0.52297 1.00676 0.74255 0.0
C618 C 0.5844 0.14892 0.8023 0.0
C619 C 0.66715 0.11521 0.74921 0.0
O620 O 0.67804 0.15566 0.83577 0.0
O621 O 0.71749 0.13971 0.81013 0.0
O622 O 0.65812 0.05903 0.80485 0.0
O623 O 0.70294 0.07867 0.78905 0.0
O624 O 0.61379 0.0524 0.82654 0.0
O625 O 0.64485 0.09482 0.84399 0.0
O626 O 0.58303 0.06633 0.75404 0.0
O627 O 0.57315 0.0378 0.78727 0.0
O628 O 0.61269 0.14378 0.7912 0.0
O629 O 0.57036 0.1195 0.80761 0.0
O630 O 0.67157 0.13799 0.76643 0.0
O631 O 0.64802 0.08779 0.7543 0.0
H632 H 0.7799 0.13858 0.82966 0.0
H633 H 0.8182 0.1339 0.86451 0.0
H634 H 0.73112 0.12953 0.91164 0.0
H635 H 0.69249 0.13343 0.8774 0.0
H636 H 0.50967 0.07652 0.7786 0.0
H637 H 0.4497 0.05976 0.77174 0.0
H638 H 0.48361 0.97472 0.72746 0.0
H639 H 0.54342 0.99127 0.73497 0.0
H640 H 0.46765 0.16267 0.25131 0.0
H641 H 0.55173 0.3548 0.25817 0.0
H642 H 0.40684 0.25527 0.24663 0.0
H643 H 0.61041 0.26463 0.23959 0.0
H644 H 0.49903 0.31883 0.25832 0.0
H645 H 0.52025 0.19878 0.25137 0.0
C646 C 0.46517 0.19049 0.2504 0.0
C647 C 0.43221 0.20551 0.24887 0.0
C648 C 0.52345 0.30688 0.2542 0.0
C649 C 0.49315 0.24771 0.24934 0.0
C650 C 0.55374 0.32755 0.25413 0.0
C651 C 0.58616 0.31318 0.2488 0.0
C652 C 0.52512 0.27107 0.24931 0.0
C653 C 0.58641 0.27734 0.24377 0.0
C654 C 0.49539 0.21125 0.25038 0.0
C655 C 0.43131 0.24207 0.24769 0.0
N656 N 0.55685 0.25783 0.24429 0.0
N657 N 0.46087 0.26159 0.24812 0.0
H658 H 0.60431 0.71844 0.50533 0.0
H659 H 0.41197 0.80023 0.50295 0.0
H660 H 0.51365 0.65802 0.49024 0.0
H661 H 0.50319 0.86229 0.49432 0.0
H662 H 0.44837 0.74793 0.5028 0.0
H663 H 0.56811 0.77092 0.50581 0.0
C664 C 0.5769 0.71601 0.50215 0.0
C665 C 0.56246 0.6832 0.49765 0.0
C666 C 0.46048 0.77301 0.50097 0.0
C667 C 0.52014 0.74392 0.49856 0.0
C668 C 0.43956 0.80304 0.50109 0.0
C669 C 0.45409 0.83625 0.49854 0.0
C670 C 0.49665 0.77569 0.49876 0.0
C671 C 0.49036 0.8376 0.4962 0.0
C672 C 0.5561 0.74616 0.5024 0.0
C673 C 0.52643 0.68237 0.4937 0.0
N674 N 0.51009 0.8082 0.49653 0.0
N675 N 0.50682 0.7118 0.4944 0.0
H676 H 0.05241 0.85118 0.76703 0.0
H677 H 0.96696 0.66364 0.73875 0.0
H678 H 0.10553 0.7703 0.72938 0.0
H679 H 0.90665 0.75199 0.75879 0.0
H680 H 0.01888 0.70067 0.73871 0.0
H681 H 1.00012 0.81457 0.76749 0.0
C682 C 0.05322 0.82593 0.75875 0.0
C683 C 0.08399 0.81423 0.74814 0.0
C684 C 0.99433 0.71198 0.74328 0.0
C685 C 0.02357 0.77138 0.74888 0.0
C686 C 0.96455 0.69064 0.74343 0.0
C687 C 0.93193 0.70434 0.74879 0.0
C688 C 0.99207 0.74748 0.74904 0.0
C689 C 0.93093 0.73996 0.75441 0.0
C690 C 0.02321 0.80485 0.75906 0.0
C691 C 0.08284 0.78083 0.73787 0.0
N692 N 0.96018 0.75994 0.75454 0.0
N693 N 0.05364 0.76087 0.7386 0.0
H694 H 0.10463 0.21702 1.00316 0.0
H695 H 0.91283 0.30007 1.007 0.0
H696 H 0.01274 0.15575 0.99521 0.0
H697 H 1.00352 0.36029 0.99179 0.0
H698 H 0.94871 0.24735 1.00705 0.0
H699 H 0.0686 0.26959 1.00334 0.0
C700 C 0.07698 0.21443 1.00152 0.0
C701 C 0.06214 0.18134 0.99907 0.0
C702 C 0.9608 0.27212 1.0037 0.0
C703 C 0.02001 0.24225 0.99967 0.0
C704 C 0.94017 0.30241 1.0037 0.0
C705 C 0.95471 0.33525 0.99931 0.0
C706 C 0.9967 0.27421 0.99971 0.0
C707 C 0.99067 0.33594 0.9952 0.0
C708 C 0.05626 0.24463 1.00158 0.0
C709 C 0.0258 0.18032 0.99701 0.0
N710 N 0.01012 0.30636 0.99565 0.0
N711 N 1.0063 0.20986 0.99752 0.0
H712 H 0.55101 0.85499 1.04576 0.0
H713 H 0.46677 0.66269 1.0457 0.0
H714 H 0.61069 0.76293 1.05782 0.0
H715 H 0.40685 0.75438 1.0576 0.0
H716 H 0.51942 0.69869 1.04558 0.0
H717 H 0.49821 0.81914 1.04555 0.0
C718 C 0.55321 0.82735 1.0483 0.0
C719 C 0.58592 0.81241 1.0519 0.0
C720 C 0.49474 0.71099 1.0482 0.0
C721 C 0.52478 0.77048 1.05128 0.0
C722 C 0.46449 0.6903 1.04823 0.0
C723 C 0.43176 0.70507 1.05176 0.0
C724 C 0.49275 0.7472 1.05125 0.0
C725 C 0.43113 0.74135 1.05493 0.0
C726 C 0.52287 0.80674 1.04822 0.0
C727 C 0.58644 0.77609 1.05508 0.0
N728 N 0.4607 0.76087 1.05444 0.0
N729 N 0.55681 0.75669 1.05454 0.0
H730 H 0.60222 0.21478 0.78529 0.0
H731 H 0.4183 0.30726 0.81343 0.0
H732 H 0.51835 0.16054 0.81912 0.0
H733 H 0.50666 0.35965 0.78397 0.0
H734 H 0.45281 0.25341 0.81557 0.0
H735 H 0.56684 0.26751 0.78454 0.0
C736 C 0.57648 0.2138 0.79266 0.0
C737 C 0.56372 0.18257 0.80231 0.0
C738 C 0.46463 0.27675 0.80865 0.0
C739 C 0.52209 0.24392 0.80137 0.0
C740 C 0.44477 0.30769 0.80743 0.0
C741 C 0.45915 0.33873 0.79849 0.0
C742 C 0.49933 0.27636 0.8008 0.0
C743 C 0.49393 0.33689 0.79103 0.0
C744 C 0.55605 0.24414 0.7922 0.0
C745 C 0.52972 0.18364 0.81148 0.0
N746 N 0.51238 0.30681 0.7923 0.0
N747 N 0.51036 0.21335 0.81074 0.0
H748 H 0.11632 0.26104 0.55765 0.0
H749 H 0.90932 0.25161 0.56032 0.0
H750 H 0.05278 0.35076 0.54681 0.0
H751 H 0.97083 0.16144 0.54675 0.0
H752 H 0.96129 0.28735 0.55908 0.0
H753 H 0.06462 0.22452 0.55724 0.0
C754 C 0.09153 0.27331 0.55523 0.0
C755 C 0.08953 0.30956 0.55226 0.0
C756 C 0.96364 0.2598 0.55635 0.0
C757 C 0.02895 0.26689 0.55211 0.0
C758 C 0.93373 0.23904 0.55713 0.0
C759 C 0.93498 0.20291 0.55363 0.0
C760 C 0.99608 0.24484 0.55247 0.0
C761 C 0.96802 0.18893 0.54953 0.0
C762 C 0.06181 0.25215 0.55492 0.0
C763 C 0.05614 0.32321 0.54914 0.0
N764 N 0.99695 0.20969 0.54926 0.0
N765 N 0.02752 0.30211 0.54935 0.0
H766 H 0.01323 0.65423 0.30711 0.0
H767 H 1.00508 0.86214 0.30871 0.0
H768 H 0.10306 0.71746 0.29584 0.0
H769 H 0.91493 0.80002 0.2957 0.0
H770 H 0.0406 0.80998 0.30772 0.0
H771 H 0.97735 0.70629 0.30658 0.0
C772 C 0.02566 0.67902 0.30457 0.0
C773 C 0.06174 0.6808 0.3015 0.0
C774 C 0.0131 0.80755 0.30505 0.0
C775 C 0.0198 0.74185 0.30121 0.0
C776 C 0.99249 0.83756 0.30569 0.0
C777 C 0.95643 0.83616 0.30227 0.0
C778 C 0.99803 0.7749 0.30141 0.0
C779 C 0.94237 0.80294 0.2984 0.0
C780 C 1.00487 0.70896 0.3042 0.0
C781 C 0.07562 0.71425 0.29824 0.0
N782 N 0.96297 0.77395 0.29827 0.0
N783 N 0.05486 0.7431 0.29838 0.0
H784 H 0.4174 1.00635 1.11833 0.0
H785 H 0.59905 0.01471 0.18516 0.0
H786 H 0.44379 0.94705 0.18195 0.0
H787 H 0.57514 0.07045 1.11956 0.0
H788 H 0.53941 0.99549 0.18698 0.0
H789 H 0.47649 0.02722 1.11669 0.0
C790 C 0.4355 0.99717 1.13179 0.0
C791 C 0.42413 0.9786 0.15219 0.0
C792 C 0.54738 0.01194 0.17216 0.0
C793 C 0.49175 1.00171 1.15011 0.0
C794 C 0.58134 0.02357 0.17134 0.0
C795 C 0.59347 0.04031 1.15041 0.0
C796 C 0.52531 0.01918 0.15266 0.0
C797 C 0.56826 0.05434 1.13478 0.0
C798 C 0.46915 0.00968 1.13106 0.0
C799 C 0.44995 0.96439 0.16724 0.0
N800 N 0.53565 0.04203 1.1355 0.0
N801 N 0.48223 0.97756 0.16663 0.0
H802 H 0.82582 0.69156 0.42863 0.0
H803 H 0.69586 0.82746 0.3727 0.0
H804 H 0.75799 0.66916 0.36879 0.0
H805 H 0.76068 0.84791 0.4345 0.0
H806 H 0.71433 0.76815 0.37335 0.0
H807 H 0.80662 0.75066 0.42789 0.0
C808 C 0.80713 0.69873 0.415 0.0
C809 C 0.78964 0.67374 0.40104 0.0
C810 C 0.72464 0.78566 0.38675 0.0
C811 C 0.76845 0.74211 0.39979 0.0
C812 C 0.71365 0.8198 0.38679 0.0
C813 C 0.73062 0.84429 0.40148 0.0
C814 C 0.75108 0.7757 0.4025 0.0
C815 C 0.74991 0.83095 0.42096 0.0
C816 C 0.79575 0.73273 0.41498 0.0
C817 C 0.76923 0.68647 0.38191 0.0
N818 N 0.76117 0.79783 0.4202 0.0
N819 N 0.7577 0.71951 0.38258 0.0
H820 H 0.09726 1.00292 0.61473 0.0
H821 H 0.92097 0.01747 0.68676 0.0
H822 H 0.08162 0.07088 0.67525 0.0
H823 H 0.93847 0.94687 0.62796 0.0
H824 H 0.98121 0.03448 0.68485 0.0
H825 H 0.0366 0.98731 0.6163 0.0
C826 C 0.08122 0.01509 0.62815 0.0
C827 C 0.09588 0.03452 0.64701 0.0
C828 C 0.97166 0.01533 0.6723 0.0
C829 C 0.0265 0.01752 0.6485 0.0
C830 C 0.93731 1.00505 0.67364 0.0
C831 C 0.92319 0.98414 0.65534 0.0
C832 C 0.99217 1.00289 0.65346 0.0
C833 C 0.94684 0.966 0.64086 0.0
C834 C 0.04663 1.0056 0.62929 0.0
C835 C 0.07272 0.05267 0.66187 0.0
N836 N 0.97987 0.97698 0.63941 0.0
N837 N 0.03943 0.04244 0.66313 0.0
H838 H 0.69557 0.32805 0.92725 0.0
H839 H 0.82489 0.19006 0.87472 0.0
H840 H 0.76171 0.34714 0.86616 0.0
H841 H 0.75705 0.16967 0.93462 0.0
H842 H 0.80678 0.24952 0.87463 0.0
H843 H 0.71409 0.26873 0.92794 0.0
C844 C 0.71371 0.32009 0.91362 0.0
C845 C 0.73097 0.34426 0.89877 0.0
C846 C 0.79567 0.23197 0.88774 0.0
C847 C 0.75144 0.27565 0.89925 0.0
C848 C 0.80644 0.19776 0.88821 0.0
C849 C 0.78836 0.17328 0.90231 0.0
C850 C 0.76854 0.242 0.90267 0.0
C851 C 0.76853 0.18664 0.92132 0.0
C852 C 0.72471 0.28596 0.91442 0.0
C853 C 0.75067 0.3305 0.87984 0.0
N854 N 0.75753 0.21985 0.92017 0.0
N855 N 0.76189 0.29739 0.88133 0.0
H856 H 0.23944 0.34783 0.93287 0.0
H857 H 0.25641 0.16594 0.86771 0.0
H858 H 0.18107 0.31908 0.87013 0.0
H859 H 0.31637 0.19684 0.92976 0.0
H860 H 0.23077 0.22324 0.86663 0.0
H861 H 0.26117 0.28896 0.93575 0.0
C862 C 0.23067 0.32912 0.91975 0.0
C863 C 0.21435 0.33988 0.89825 0.0
C864 C 0.24943 0.21724 0.88059 0.0
C865 C 0.23672 0.27258 0.90226 0.0
C866 C 0.26471 0.18469 0.88096 0.0
C867 C 0.285 0.17469 0.90092 0.0
C868 C 0.2564 0.24033 0.89946 0.0
C869 C 0.29783 0.20164 0.91555 0.0
C870 C 0.24377 0.29564 0.92116 0.0
C871 C 0.19861 0.3133 0.88478 0.0
N872 N 0.28205 0.23278 0.91531 0.0
N873 N 0.21217 0.2811 0.88576 0.0
H874 H 0.1937 0.82565 0.42733 0.0
H875 H 0.32575 0.691 0.37391 0.0
H876 H 0.261 0.84776 0.36737 0.0
H877 H 0.25852 0.66869 0.43377 0.0
H878 H 0.30713 0.75031 0.3745 0.0
H879 H 0.21353 0.76674 0.42754 0.0
C880 C 0.21239 0.81844 0.41387 0.0
C881 C 0.22955 0.84338 0.39958 0.0
C882 C 0.29627 0.73238 0.38747 0.0
C883 C 0.25146 0.77523 0.39942 0.0
C884 C 0.30733 0.69825 0.38755 0.0
C885 C 0.28939 0.67331 0.40132 0.0
C886 C 0.26908 0.7418 0.40255 0.0
C887 C 0.26976 0.68607 0.42064 0.0
C888 C 0.22414 0.78456 0.41439 0.0
C889 C 0.24998 0.83054 0.3807 0.0
N890 N 0.25843 0.71919 0.41988 0.0
N891 N 0.26187 0.79765 0.3819 0.0
H892 H 0.10029 0.51573 0.68353 0.0
H893 H 0.91855 0.50866 0.61677 0.0
H894 H 0.07617 0.57302 0.61869 0.0
H895 H 0.94468 0.449 0.68031 0.0
H896 H 0.97751 0.52999 0.61556 0.0
H897 H 0.04045 0.4972 0.68562 0.0
C898 C 0.0825 0.52505 0.66991 0.0
C899 C 0.09455 0.54169 0.64893 0.0
C900 C 0.97013 0.51226 0.62981 0.0
C901 C 0.02619 0.52159 0.65157 0.0
C902 C 0.93657 0.49948 0.63028 0.0
C903 C 0.92514 0.48042 0.65044 0.0
C904 C 0.99261 0.50421 0.64892 0.0
C905 C 0.95087 0.46648 0.66568 0.0
C906 C 0.04841 0.51382 0.67089 0.0
C907 C 0.06929 0.55665 0.63378 0.0
N908 N 0.98306 0.47988 0.66529 0.0
N909 N 0.03654 0.54472 0.63458 0.0
H910 H 0.574 0.57324 0.18068 0.0
H911 H 0.44373 0.44267 1.1194 0.0
H912 H 0.5987 0.51188 1.11821 0.0
H913 H 0.41932 0.50343 0.18217 0.0
H914 H 0.50221 0.46311 1.12146 0.0
H915 H 0.51584 0.55183 0.17908 0.0
C916 C 0.56751 0.55562 0.16627 0.0
C917 C 0.59297 0.54067 0.15149 0.0
C918 C 0.48401 0.47209 1.13477 0.0
C919 C 0.52561 0.51675 1.14943 0.0
C920 C 0.45035 0.45994 1.13399 0.0
C921 C 0.42497 0.47533 1.14859 0.0
C922 C 0.49263 0.498 0.15125 0.0
C923 C 0.437 0.49395 0.16871 0.0
C924 C 0.53405 0.54292 0.16574 0.0
C925 C 0.58104 0.52128 1.13169 0.0
N926 N 0.46969 0.50637 0.16878 0.0
N927 N 0.54852 0.50843 1.13188 0.0
H928 H 0.20138 0.33109 0.29755 0.0
H929 H 0.25226 0.53016 0.28649 0.0
H930 H 0.30622 0.36709 0.3042 0.0
H931 H 0.14912 0.49393 0.30036 0.0
H932 H 0.27293 0.47037 0.28987 0.0
H933 H 0.18188 0.39073 0.29647 0.0
C934 C 0.2203 0.35153 0.29916 0.0
C935 C 0.25553 0.34406 0.30096 0.0
C936 C 0.24579 0.47561 0.29213 0.0
C937 C 0.23336 0.41254 0.2991 0.0
C938 C 0.23401 0.50958 0.29 0.0
C939 C 0.19901 0.51678 0.29306 0.0
C940 C 0.22224 0.4489 0.29704 0.0
C941 C 0.17636 0.48938 0.29785 0.0
C942 C 0.20914 0.38563 0.29834 0.0
C943 C 0.27887 0.37171 0.30243 0.0
N944 N 0.18835 0.45665 0.29963 0.0
N945 N 0.26738 0.40479 0.30132 0.0
H946 H 0.43766 0.44975 0.54196 0.0
H947 H 0.23948 0.50249 0.54218 0.0
H948 H 0.40342 0.55213 0.56076 0.0
H949 H 0.27513 0.39714 0.54466 0.0
H950 H 0.29944 0.52231 0.54585 0.0
H951 H 0.37803 0.43058 0.54073 0.0
C952 C 0.41762 0.46811 0.54623 0.0
C953 C 0.42555 0.50264 0.55146 0.0
C954 C 0.29404 0.49487 0.54549 0.0
C955 C 0.35706 0.48101 0.54945 0.0
C956 C 0.25998 0.48364 0.54315 0.0
C957 C 0.25262 0.44823 0.54296 0.0
C958 C 0.32064 0.47042 0.54728 0.0
C959 C 0.27988 0.42471 0.54468 0.0
C960 C 0.38353 0.45719 0.54532 0.0
C961 C 0.3984 0.5254 0.5563 0.0
N962 N 0.3127 0.43622 0.54669 0.0
N963 N 0.36528 0.51423 0.55503 0.0
H964 H 0.22653 0.65682 0.82879 0.0
H965 H 0.36691 0.51739 0.78804 0.0
H966 H 0.3174 0.68325 0.78815 0.0
H967 H 0.26834 0.49149 0.81877 0.0
H968 H 0.35275 0.5789 0.79186 0.0
H969 H 0.24548 0.59665 0.82995 0.0
C970 C 0.25051 0.64994 0.82018 0.0
C971 C 0.27021 0.67497 0.80814 0.0
C972 C 0.33422 0.55973 0.79773 0.0
C973 C 0.29202 0.60619 0.80925 0.0
C974 C 0.34223 0.5247 0.79544 0.0
C975 C 0.31852 0.49944 0.80278 0.0
C976 C 0.30237 0.56942 0.80754 0.0
C977 C 0.28715 0.51017 0.8126 0.0
C978 C 0.26136 0.61563 0.82085 0.0
C979 C 0.30146 0.66479 0.7977 0.0
N980 N 0.27998 0.54432 0.81467 0.0
N981 N 0.31126 0.63113 0.7983 0.0
H982 H 0.08 0.56671 1.04816 0.0
H983 H 0.27806 0.5161 1.03799 0.0
H984 H 0.11658 0.46277 1.06009 0.0
H985 H 0.24275 0.62039 1.04882 0.0
H986 H 0.21854 0.49556 1.0425 0.0
H987 H 0.13933 0.58671 1.04597 0.0
C988 C 0.10049 0.54813 1.05074 0.0
C989 C 0.09326 0.51294 1.0543 0.0
C990 C 0.22391 0.52293 1.04383 0.0
C991 C 0.16136 0.53564 1.05112 0.0
C992 C 0.25771 0.53463 1.04102 0.0
C993 C 0.26511 0.56992 1.04294 0.0
C994 C 0.19751 0.54682 1.04824 0.0
C995 C 0.23801 0.59293 1.04718 0.0
C996 C 0.1344 0.55957 1.04927 0.0
C997 C 0.12098 0.49003 1.05695 0.0
N998 N 0.20539 0.581 1.04963 0.0
N999 N 0.15385 0.50174 1.05514 0.0
H1000 H 0.76767 0.49026 1.00905 0.0
H1001 H 0.8195 0.68919 1.00582 0.0
H1002 H 0.87272 0.52577 1.00433 0.0
H1003 H 0.71787 0.65308 0.98657 0.0
H1004 H 0.83919 0.62958 1.00758 0.0
H1005 H 0.7481 0.55018 1.00423 0.0
C1006 C 0.78654 0.51074 1.00731 0.0
C1007 C 0.82177 0.5033 1.00723 0.0
C1008 C 0.81266 0.6347 1.00275 0.0
C1009 C 0.7998 0.57136 1.00158 0.0
C1010 C 0.80143 0.66877 1.00153 0.0
C1011 C 0.7669 0.67617 0.99608 0.0
C1012 C 0.78915 0.60776 0.99876 0.0
C1013 C 0.74455 0.64852 0.99123 0.0
C1014 C 0.77542 0.54478 1.00431 0.0
C1015 C 0.84528 0.53057 1.00456 0.0
N1016 N 0.75599 0.61547 0.99286 0.0
N1017 N 0.83388 0.56343 1.00192 0.0
H1018 H 0.58551 0.55994 0.78926 0.0
H1019 H 0.75921 0.57604 0.71856 0.0
H1020 H 0.59968 0.50267 0.72346 0.0
H1021 H 0.75931 0.56467 0.79601 0.0
H1022 H 0.69822 0.55939 0.71764 0.0
H1023 H 0.64715 0.57372 0.7896 0.0
C1024 C 0.60163 0.55053 0.77481 0.0
C1025 C 0.58778 0.53013 0.75632 0.0
C1026 C 0.71175 0.56022 0.73476 0.0
C1027 C 0.65766 0.54577 0.75661 0.0
C1028 C 0.74633 0.56962 0.73532 0.0
C1029 C 0.76398 0.5712 0.7574 0.0
C1030 C 0.69468 0.55354 0.75651 0.0
C1031 C 0.74643 0.56316 0.77867 0.0
C1032 C 0.63666 0.55812 0.77515 0.0
C1033 C 0.60962 0.51832 0.73807 0.0
N1034 N 0.71239 0.5551 0.77777 0.0
N1035 N 0.64361 0.52656 0.73854 0.0
H1036 H 0.7211 0.338 0.47335 0.0
H1037 H 0.73268 0.52281 0.53637 0.0
H1038 H 0.77876 0.35645 0.53885 0.0
H1039 H 0.65766 0.49672 0.48174 0.0
H1040 H 0.75196 0.46245 0.53669 0.0
H1041 H 0.69931 0.397 0.47507 0.0
C1042 C 0.72917 0.35443 0.4881 0.0
C1043 C 0.75205 0.34235 0.50587 0.0
C1044 C 0.73124 0.47001 0.52469 0.0
C1045 C 0.72751 0.40996 0.50782 0.0
C1046 C 0.72038 0.50437 0.52447 0.0
C1047 C 0.69381 0.51463 0.50894 0.0
C1048 C 0.71565 0.44612 0.509 0.0
C1049 C 0.67834 0.48982 0.49399 0.0
C1050 C 0.71676 0.38812 0.48906 0.0
C1051 C 0.76183 0.36491 0.52445 0.0
N1052 N 0.68966 0.45676 0.49427 0.0
N1053 N 0.74958 0.39767 0.5249 0.0
H1054 H 0.77441 0.39407 0.25546 0.0
H1055 H 0.90588 0.5502 0.2381 0.0
H1056 H 0.74264 0.50055 0.25921 0.0
H1057 H 0.93691 0.44863 0.26207 0.0
H1058 H 0.84568 0.53141 0.23954 0.0
H1059 H 0.83422 0.41286 0.25229 0.0
C1060 C 0.78016 0.42146 0.25582 0.0
C1061 C 0.75376 0.44587 0.25781 0.0
C1062 C 0.86576 0.51333 0.24445 0.0
C1063 C 0.82192 0.46752 0.25371 0.0
C1064 C 0.90004 0.52399 0.24366 0.0
C1065 C 0.92644 0.50103 0.25014 0.0
C1066 C 0.8579 0.47945 0.25165 0.0
C1067 C 0.91748 0.46713 0.25668 0.0
C1068 C 0.81423 0.43213 0.25395 0.0
C1069 C 0.76241 0.48099 0.25801 0.0
N1070 N 0.88395 0.4574 0.25732 0.0
N1071 N 0.79588 0.49085 0.25581 0.0
H1072 H 0.70238 0.83023 0.79791 0.0
H1073 H 0.75182 0.0296 0.78772 0.0
H1074 H 0.80682 0.86684 0.80595 0.0
H1075 H 0.64891 0.99271 0.8016 0.0
H1076 H 0.77291 0.96997 0.79121 0.0
H1077 H 0.68249 0.88972 0.79702 0.0
C1078 C 0.72113 0.85076 0.79989 0.0
C1079 C 0.75638 0.84348 0.80204 0.0
C1080 C 0.74573 0.97504 0.79347 0.0
C1081 C 0.73374 0.91185 0.80036 0.0
C1082 C 0.7337 1.00892 0.79128 0.0
C1083 C 0.69863 0.01589 0.79428 0.0
C1084 C 0.72236 0.94816 0.79837 0.0
C1085 C 0.67618 0.98834 0.79912 0.0
C1086 C 0.70974 0.88478 0.79918 0.0
C1087 C 0.77948 0.87128 0.80393 0.0
N1088 N 0.68841 0.95569 0.80094 0.0
N1089 N 0.76777 0.90431 0.80291 0.0
H1090 H 0.7406 1.00056 1.03897 0.0
H1091 H 0.93869 0.9496 1.04945 0.0
H1092 H 0.776 0.89635 1.05102 0.0
H1093 H 0.90266 0.05405 1.05892 0.0
H1094 H 0.87927 0.92972 1.04798 0.0
H1095 H 0.80017 0.0211 1.04314 0.0
C1096 C 0.76096 0.98205 1.04224 0.0
C1097 C 0.75357 0.94678 1.04455 0.0
C1098 C 0.88433 0.95696 1.05058 0.0
C1099 C 0.82126 0.96988 1.04946 0.0
C1100 C 0.9183 0.96833 1.05163 0.0
C1101 C 0.92571 1.00361 1.05429 0.0
C1102 C 0.85749 0.98104 1.05195 0.0
C1103 C 0.89812 0.02671 1.05646 0.0
C1104 C 0.79481 0.99375 1.04483 0.0
C1105 C 0.78071 0.9238 1.04907 0.0
N1106 N 0.86518 0.01505 1.05508 0.0
N1107 N 0.81337 0.93574 1.05131 0.0
H1108 H 0.80571 0.99859 0.33101 0.0
H1109 H 0.81308 0.18696 0.27374 0.0
H1110 H 0.83708 0.01758 0.25765 0.0
H1111 H 0.73896 0.1601 0.32849 0.0
H1112 H 0.83123 0.12653 0.27223 0.0
H1113 H 0.78885 0.05953 0.33452 0.0
C1114 C 0.80827 0.01559 0.31552 0.0
C1115 C 0.82169 1.0033 0.29377 0.0
C1116 C 0.81107 0.13392 0.28461 0.0
C1117 C 0.80392 0.07257 0.29788 0.0
C1118 C 0.80093 0.16833 0.28563 0.0
C1119 C 0.7744 0.17829 0.30118 0.0
C1120 C 0.79487 0.10945 0.29947 0.0
C1121 C 0.75927 0.15323 0.3161 0.0
C1122 C 0.79895 0.0502 0.31757 0.0
C1123 C 0.82593 0.02621 0.27445 0.0
N1124 N 0.7698 0.11983 0.31494 0.0
N1125 N 0.81718 0.05994 0.27697 0.0
H1126 H 0.77345 0.03236 0.51516 0.0
H1127 H 0.5886 0.04485 0.57694 0.0
H1128 H 0.74704 0.10884 0.56834 0.0
H1129 H 0.60572 0.99094 0.50999 0.0
H1130 H 0.64824 0.06464 0.57623 0.0
H1131 H 0.71326 0.01276 0.51495 0.0
C1132 C 0.75498 0.04494 0.52675 0.0
C1133 C 0.76509 0.0721 0.54179 0.0
C1134 C 0.63891 0.04848 0.56169 0.0
C1135 C 0.69679 0.04982 0.54188 0.0
C1136 C 0.60484 0.03726 0.56204 0.0
C1137 C 0.5921 0.01619 0.54349 0.0
C1138 C 0.66052 0.03835 0.54276 0.0
C1139 C 0.61456 1.00668 0.52488 0.0
C1140 C 0.72073 0.03387 0.52661 0.0
C1141 C 0.74026 0.08778 0.55643 0.0
N1142 N 0.64771 0.01779 0.525 0.0
N1143 N 0.7073 0.07627 0.55622 0.0
H1144 H 0.31884 0.1869 0.50462 0.0
H1145 H 0.26522 0.98833 0.51382 0.0
H1146 H 0.21375 0.15232 0.4964 0.0
H1147 H 0.3692 0.02358 0.50199 0.0
H1148 H 0.24532 0.0484 0.51053 0.0
H1149 H 0.33754 0.12702 0.50576 0.0
C1150 C 0.29971 0.16672 0.50269 0.0
C1151 C 0.26464 0.17466 0.50042 0.0
C1152 C 0.27248 0.04288 0.50872 0.0
C1153 C 0.28586 0.1059 0.50235 0.0
C1154 C 0.28382 1.00875 0.51081 0.0
C1155 C 0.31884 1.00121 0.50829 0.0
C1156 C 0.29649 0.06939 0.50439 0.0
C1157 C 0.34195 0.02841 0.50409 0.0
C1158 C 0.3104 0.13248 0.50354 0.0
C1159 C 0.24098 0.14734 0.49854 0.0
N1160 N 0.33038 0.06129 0.50233 0.0
N1161 N 0.25201 0.1141 0.49968 0.0
H1162 H 0.11367 0.96926 0.23284 0.0
H1163 H 0.24364 0.12433 0.25825 0.0
H1164 H 0.08136 0.06773 0.26099 0.0
H1165 H 0.27608 0.01792 0.25761 0.0
H1166 H 0.18389 0.10549 0.25399 0.0
H1167 H 0.17366 0.98855 0.2356 0.0
C1168 C 0.11919 0.99493 0.23952 0.0
C1169 C 0.09251 0.01683 0.24681 0.0
C1170 C 0.20402 0.08623 0.25495 0.0
C1171 C 0.16077 0.03894 0.24997 0.0
C1172 C 0.23802 0.09693 0.25746 0.0
C1173 C 0.26457 0.07254 0.2585 0.0
C1174 C 0.19661 0.0509 0.25303 0.0
C1175 C 0.25617 0.03742 0.2572 0.0
C1176 C 0.15334 1.00586 0.24111 0.0
C1177 C 0.10104 0.0501 0.2549 0.0
N1178 N 0.22279 0.02758 0.25432 0.0
N1179 N 0.13444 0.06009 0.25633 0.0
H1180 H 0.14471 0.99296 1.00509 0.0
H1181 H 0.30241 0.86428 0.98886 0.0
H1182 H 0.25024 0.02691 1.01042 0.0
H1183 H 0.20065 0.8311 1.00988 0.0
H1184 H 0.28309 0.92441 0.99072 0.0
H1185 H 0.16438 0.9335 1.0014 0.0
C1186 C 0.17209 0.98775 1.00572 0.0
C1187 C 0.19597 0.01466 1.00828 0.0
C1188 C 0.26509 0.90387 0.99488 0.0
C1189 C 0.21864 0.94688 1.00366 0.0
C1190 C 0.27605 0.86964 0.99383 0.0
C1191 C 0.25316 0.84268 0.99934 0.0
C1192 C 0.23101 0.91106 1.00138 0.0
C1193 C 0.21909 0.85101 1.00521 0.0
C1194 C 0.18327 0.95387 1.00355 0.0
C1195 C 0.23109 1.00671 1.00879 0.0
N1196 N 0.20909 0.88447 1.00613 0.0
N1197 N 0.24147 0.97339 1.00634 0.0
H1198 H 0.43961 0.94874 0.75185 0.0
H1199 H 0.24184 0.99814 0.76535 0.0
H1200 H 0.4024 0.05318 0.7438 0.0
H1201 H 0.27646 0.89475 0.75017 0.0
H1202 H 0.30121 0.01884 0.7609 0.0
H1203 H 0.38033 0.92825 0.75344 0.0
C1204 C 0.41899 0.96735 0.75001 0.0
C1205 C 0.42602 1.00281 0.74776 0.0
C1206 C 0.29575 0.99162 0.75858 0.0
C1207 C 0.35806 0.97952 0.75024 0.0
C1208 C 0.26201 0.97981 0.76134 0.0
C1209 C 0.25443 0.94474 0.75822 0.0
C1210 C 0.32197 0.96807 0.75298 0.0
C1211 C 0.28134 0.92202 0.75277 0.0
C1212 C 0.38513 0.95563 0.75112 0.0
C1213 C 0.39818 0.02571 0.74597 0.0
N1214 N 0.31396 0.93406 0.75039 0.0
N1215 N 0.36539 0.01369 0.74743 0.0
H1216 H 0.30681 0.08349 0.17488 0.0
H1217 H 0.19492 0.17505 1.0711 0.0
H1218 H 0.27381 0.18908 0.18155 0.0
H1219 H 0.18475 0.06626 1.08596 0.0
H1220 H 0.23012 0.18118 1.10784 0.0
H1221 H 0.26941 0.07713 1.13923 0.0
C1222 C 0.2921 0.1056 0.16873 0.0
C1223 C 0.29405 0.13709 0.18145 0.0
C1224 C 0.22005 0.15598 1.10319 0.0
C1225 C 0.25084 0.12987 1.13985 0.0
C1226 C 0.19983 0.1524 1.0821 0.0
C1227 C 0.18624 0.1201 1.07522 0.0
C1228 C 0.22793 0.12694 1.11756 0.0
C1229 C 0.19412 0.09179 1.09044 0.0
C1230 C 0.27043 0.10177 1.14838 0.0
C1231 C 0.27355 0.16437 0.17252 0.0
N1232 N 0.21457 0.09579 1.11054 0.0
N1233 N 0.25335 0.16027 0.15229 0.0
H1234 H 0.59359 0.4439 0.32149 0.0
H1235 H 0.68456 0.55965 0.42312 0.0
H1236 H 0.70246 0.43645 0.33518 0.0
H1237 H 0.58005 0.52426 0.43078 0.0
H1238 H 0.69113 0.52194 0.38778 0.0
H1239 H 0.58762 0.4796 0.35781 0.0
C1240 C 0.6163 0.44951 0.33216 0.0
C1241 C 0.64857 0.43653 0.32506 0.0
C1242 C 0.66667 0.52252 0.39707 0.0
C1243 C 0.6419 0.47886 0.36692 0.0
C1244 C 0.66272 0.5444 0.41724 0.0
C1245 C 0.63146 0.54576 0.43014 0.0
C1246 C 0.63894 0.50211 0.38896 0.0
C1247 C 0.60455 0.52451 0.42157 0.0
C1248 C 0.61282 0.47002 0.35301 0.0
C1249 C 0.67696 0.4453 0.33985 0.0
N1250 N 0.60876 0.50411 0.40156 0.0
N1251 N 0.67304 0.46606 0.35973 0.0
H1252 H 0.21516 0.93644 0.67713 0.0
H1253 H 0.3176 0.84319 0.57058 0.0
H1254 H 0.24 0.82823 0.68045 0.0
H1255 H 0.33557 0.95029 0.5872 0.0
H1256 H 0.28285 0.8377 0.60734 0.0
H1257 H 0.25231 0.94257 0.64144 0.0
C1258 C 0.22806 0.91379 0.67023 0.0
C1259 C 0.22399 0.88161 0.68197 0.0
C1260 C 0.29456 0.86237 0.60309 0.0
C1261 C 0.26665 0.88851 0.64039 0.0
C1262 C 0.31453 0.86559 0.58199 0.0
C1263 C 0.33014 0.8972 0.57559 0.0
C1264 C 0.28908 0.89113 0.61801 0.0
C1265 C 0.32456 0.92525 0.5913 0.0
C1266 C 0.24955 0.91743 0.64986 0.0
C1267 C 0.24209 0.85351 0.67217 0.0
N1268 N 0.30437 0.92166 0.61148 0.0
N1269 N 0.26207 0.8575 0.65194 0.0
H1270 H 0.88121 0.53269 0.8064 0.0
H1271 H 0.89863 0.52486 0.95042 0.0
H1272 H 0.8541 0.62047 0.84971 0.0
H1273 H 0.87457 0.43457 0.90844 0.0
H1274 H 0.89008 0.56089 0.91411 0.0
H1275 H 0.88597 0.49745 0.84315 0.0
C1276 C 0.87647 0.54475 0.82367 0.0
C1277 C 0.8675 0.57997 0.82469 0.0
C1278 C 0.88682 0.53319 0.9128 0.0
C1279 C 0.8737 0.53922 0.86755 0.0
C1280 C 0.89206 0.5124 0.93355 0.0
C1281 C 0.88797 0.47619 0.93273 0.0
C1282 C 0.87808 0.51794 0.89056 0.0
C1283 C 0.87854 0.46212 0.91018 0.0
C1284 C 0.87906 0.52441 0.84474 0.0
C1285 C 0.86118 0.59361 0.84783 0.0
N1286 N 0.87437 0.48278 0.89016 0.0
N1287 N 0.86489 0.57347 0.86822 0.0
H1288 H 0.87261 0.91398 0.20146 0.0
H1289 H 0.68348 0.89448 1.14314 0.0
H1290 H 0.78442 0.88558 0.24401 0.0
H1291 H 0.77408 0.86819 1.1027 0.0
H1292 H 0.71962 0.90175 0.17941 0.0
H1293 H 0.83709 0.9078 0.16451 0.0
C1294 C 0.84584 0.90656 0.20311 0.0
C1295 C 0.83184 0.89981 0.22609 0.0
C1296 C 0.73161 0.8942 0.16263 0.0
C1297 C 0.79044 0.89364 0.18361 0.0
C1298 C 0.71088 0.88992 1.14182 0.0
C1299 C 0.72532 0.8799 1.11961 0.0
C1300 C 0.76753 0.88943 0.16145 0.0
C1301 C 0.76139 0.8752 1.11932 0.0
C1302 C 0.82553 0.90294 0.18195 0.0
C1303 C 0.79671 0.8905 0.22682 0.0
N1304 N 0.78106 0.8802 1.13967 0.0
N1305 N 0.77739 0.88805 0.20615 0.0
H1306 H 0.4237 0.57679 0.97704 0.0
H1307 H 0.33049 0.46142 0.8764 0.0
H1308 H 0.31414 0.5818 0.96572 0.0
H1309 H 0.43438 0.49784 0.86695 0.0
H1310 H 0.32483 0.49887 0.91187 0.0
H1311 H 0.429 0.54232 0.94006 0.0
C1312 C 0.4007 0.57088 0.96675 0.0
C1313 C 0.36842 0.58276 0.9747 0.0
C1314 C 0.34894 0.49863 0.90214 0.0
C1315 C 0.37434 0.54192 0.93213 0.0
C1316 C 0.35236 0.47695 0.88187 0.0
C1317 C 0.38318 0.47589 0.86846 0.0
C1318 C 0.37678 0.51917 0.90985 0.0
C1319 C 0.41018 0.49739 0.87654 0.0
C1320 C 0.4038 0.5511 0.94553 0.0
C1321 C 0.33965 0.57375 0.96039 0.0
N1322 N 0.40651 0.51761 0.8967 0.0
N1323 N 0.34323 0.5537 0.94015 0.0
H1324 H 0.68335 0.06445 0.71576 0.0
H1325 H 0.77789 0.18881 0.61967 0.0
H1326 H 0.69816 0.17294 0.72915 0.0
H1327 H 0.80568 0.08173 0.62738 0.0
H1328 H 0.74124 0.18327 0.65578 0.0
H1329 H 0.71982 0.06974 0.67955 0.0
C1330 C 0.69385 0.0895 0.71103 0.0
C1331 C 0.68723 0.11831 0.72579 0.0
C1332 C 0.7554 0.16098 0.6496 0.0
C1333 C 0.72929 0.12463 0.68377 0.0
C1334 C 0.77645 0.16415 0.62891 0.0
C1335 C 0.79557 0.13592 0.62035 0.0
C1336 C 0.75221 0.12899 0.66169 0.0
C1337 C 0.79205 0.10451 0.63329 0.0
C1338 C 0.71497 0.09244 0.69035 0.0
C1339 C 0.7022 0.14994 0.71853 0.0
N1340 N 0.77074 0.10184 0.65293 0.0
N1341 N 0.72207 0.15225 0.69816 0.0
H1342 H 0.09455 0.43885 0.47648 0.0
H1343 H 0.18372 0.56183 0.37804 0.0
H1344 H 0.20449 0.43974 0.46721 0.0
H1345 H 0.08257 0.51919 0.36656 0.0
H1346 H 0.1906 0.52435 0.41371 0.0
H1347 H 0.08848 0.47424 0.43975 0.0
C1348 C 0.1175 0.44625 0.46669 0.0
C1349 C 0.15009 0.43568 0.47512 0.0
C1350 C 0.16681 0.52326 0.4035 0.0
C1351 C 0.14324 0.4777 0.43284 0.0
C1352 C 0.16265 0.54499 0.38312 0.0
C1353 C 0.13224 0.54427 0.36905 0.0
C1354 C 0.14009 0.50085 0.41062 0.0
C1355 C 0.10637 0.52109 0.37667 0.0
C1356 C 0.11396 0.46658 0.44562 0.0
C1357 C 0.17876 0.44667 0.46146 0.0
N1358 N 0.11071 0.50082 0.39689 0.0
N1359 N 0.17471 0.46724 0.44134 0.0
H1360 H 0.68595 0.67537 0.5744 0.0
H1361 H 0.81015 0.58403 0.67133 0.0
H1362 H 0.68839 0.56476 0.58236 0.0
H1363 H 0.76842 0.68541 0.68329 0.0
H1364 H 0.7723 0.57775 0.63591 0.0
H1365 H 0.72152 0.68078 0.611 0.0
C1366 C 0.69369 0.65214 0.5839 0.0
C1367 C 0.68351 0.61955 0.57516 0.0
C1368 C 0.77148 0.60146 0.64618 0.0
C1369 C 0.72578 0.62564 0.61723 0.0
C1370 C 0.79344 0.60528 0.6664 0.0
C1371 C 0.7931 0.63558 0.68051 0.0
C1372 C 0.74918 0.6284 0.63928 0.0
C1373 C 0.77003 0.66169 0.67313 0.0
C1374 C 0.71414 0.65529 0.60489 0.0
C1375 C 0.69496 0.59049 0.58842 0.0
N1376 N 0.74951 0.65766 0.65307 0.0
N1377 N 0.71565 0.59419 0.60844 0.0
H1378 H 0.13936 0.98508 0.80661 0.0
H1379 H 0.11893 0.99309 0.95053 0.0
H1380 H 0.16203 0.89638 0.85097 0.0
H1381 H 0.14373 0.08318 0.9081 0.0
H1382 H 0.12757 0.95694 0.9146 0.0
H1383 H 0.13447 0.02042 0.84304 0.0
C1384 C 0.14315 0.97284 0.82404 0.0
C1385 C 0.15093 0.93731 0.82541 0.0
C1386 C 0.13098 0.98462 0.91308 0.0
C1387 C 0.14454 0.97829 0.86796 0.0
C1388 C 0.1257 1.0055 0.93364 0.0
C1389 C 0.12997 0.04172 0.93262 0.0
C1390 C 0.14 0.99973 0.8908 0.0
C1391 C 0.13963 0.05566 0.91002 0.0
C1392 C 0.14047 0.99325 0.84495 0.0
C1393 C 0.15597 0.92348 0.84878 0.0
N1394 N 0.14388 0.03489 0.8902 0.0
N1395 N 0.15222 0.94374 0.86898 0.0
H1396 H 0.8698 0.41413 1.09968 0.0
H1397 H 0.68107 0.39536 0.15792 0.0
H1398 H 0.78145 0.38567 1.05703 0.0
H1399 H 0.77211 0.36889 0.19849 0.0
H1400 H 0.71681 0.4024 1.12154 0.0
H1401 H 0.83441 0.40824 1.13653 0.0
C1402 C 0.84301 0.40675 1.09798 0.0
C1403 C 0.82895 0.39989 1.07501 0.0
C1404 C 0.72897 0.39486 1.13838 0.0
C1405 C 0.78766 0.39408 1.1174 0.0
C1406 C 0.70847 0.39072 0.15925 0.0
C1407 C 0.72314 0.38067 0.18153 0.0
C1408 C 0.7649 0.38997 1.13957 0.0
C1409 C 0.75921 0.37587 0.18182 0.0
C1410 C 0.82277 0.40331 1.1191 0.0
C1411 C 0.79379 0.39066 1.07422 0.0
N1412 N 0.77865 0.38077 0.16143 0.0
N1413 N 0.77452 0.38837 1.09485 0.0
H1414 H 0.43994 0.9914 0.4321 0.0
H1415 H 0.31506 0.08679 0.33651 0.0
H1416 H 0.33268 0.96466 0.42587 0.0
H1417 H 0.42266 0.07081 0.3221 0.0
H1418 H 0.32071 0.05066 0.37315 0.0
H1419 H 0.43412 0.02819 0.39578 0.0
C1420 C 0.41519 0.99313 0.42315 0.0
C1421 C 0.38697 0.97424 0.43215 0.0
C1422 C 0.34314 0.0552 0.36203 0.0
C1423 C 0.37972 0.01776 0.39063 0.0
C1424 C 0.33999 0.07613 0.34111 0.0
C1425 C 0.36845 0.08228 0.32593 0.0
C1426 C 0.37518 0.04062 0.36841 0.0
C1427 C 0.39993 0.06712 0.33304 0.0
C1428 C 0.41184 0.01424 0.40235 0.0
C1429 C 0.35543 0.9781 0.41959 0.0
N1430 N 0.40245 0.04743 0.35362 0.0
N1431 N 0.35261 0.99948 0.39985 0.0
H1432 H 0.31987 0.34467 0.73154 0.0
H1433 H 0.21271 0.43478 0.62524 0.0
H1434 H 0.33505 0.45225 0.71447 0.0
H1435 H 0.24517 0.32886 0.61983 0.0
H1436 H 0.2497 0.44164 0.66107 0.0
H1437 H 0.2856 0.33829 0.69446 0.0
C1438 C 0.31628 0.36701 0.71998 0.0
C1439 C 0.33101 0.39903 0.72636 0.0
C1440 C 0.24866 0.41684 0.65215 0.0
C1441 C 0.29032 0.3919 0.68359 0.0
C1442 C 0.22724 0.41273 0.63169 0.0
C1443 C 0.22529 0.38098 0.61929 0.0
C1444 C 0.2679 0.38877 0.66109 0.0
C1445 C 0.24548 0.35376 0.62861 0.0
C1446 C 0.29658 0.36326 0.69869 0.0
C1447 C 0.32479 0.42692 0.7104 0.0
N1448 N 0.26537 0.35812 0.64896 0.0
N1449 N 0.30474 0.42282 0.6901 0.0
H1450 H 0.85823 0.12192 0.45193 0.0
H1451 H 0.87266 0.93265 0.39272 0.0
H1452 H 0.88019 0.03086 0.49407 0.0
H1453 H 0.90074 0.02408 0.35276 0.0
H1454 H 0.8655 0.96826 0.42905 0.0
H1455 H 0.86387 0.08712 0.41475 0.0
C1456 C 0.86406 0.09467 0.45344 0.0
C1457 C 0.86918 0.0796 0.47638 0.0
C1458 C 0.87341 0.98056 0.41237 0.0
C1459 C 0.87482 0.03911 0.43363 0.0
C1460 C 0.87761 0.96013 0.39151 0.0
C1461 C 0.88807 0.97494 0.36941 0.0
C1462 C 0.8788 0.01657 0.41137 0.0
C1463 C 0.89334 0.01109 0.36928 0.0
C1464 C 0.8674 0.07477 0.43215 0.0
C1465 C 0.87655 0.04393 0.47693 0.0
N1466 N 0.88848 0.03048 0.38969 0.0
N1467 N 0.87882 0.02509 0.45614 0.0
H1468 H 0.1844 0.5641 0.2153 0.0
H1469 H 0.27438 0.68929 1.11755 0.0
H1470 H 0.19584 0.67332 0.22737 0.0
H1471 H 0.3063 0.58359 1.12657 0.0
H1472 H 0.23796 0.68325 0.15373 0.0
H1473 H 0.22054 0.5697 0.17891 0.0
C1474 C 0.19406 0.58936 0.21023 0.0
C1475 C 0.18662 0.6183 0.22468 0.0
C1476 C 0.25298 0.66137 1.14783 0.0
C1477 C 0.22828 0.62496 0.18247 0.0
C1478 C 0.27391 0.66483 1.1271 0.0
C1479 C 0.29414 0.63716 1.11889 0.0
C1480 C 0.251 0.62959 0.16031 0.0
C1481 C 0.2918 0.60596 1.13221 0.0
C1482 C 0.215 0.59248 0.18946 0.0
C1483 C 0.20055 0.6502 0.217 0.0
N1484 N 0.27057 0.60296 0.15188 0.0
N1485 N 0.22024 0.65267 0.19656 0.0
H1486 H 0.66373 0.89666 0.95182 0.0
H1487 H 0.64622 0.0862 0.89258 0.0
H1488 H 0.63794 0.98584 0.9941 0.0
H1489 H 0.61835 0.99497 0.85278 0.0
H1490 H 0.65363 0.0503 0.92907 0.0
H1491 H 0.65764 0.93213 0.91475 0.0
C1492 C 0.65692 0.92365 0.95338 0.0
C1493 C 0.65086 0.93795 0.97632 0.0
C1494 C 0.64571 0.03813 0.91239 0.0
C1495 C 0.64477 0.97928 0.9337 0.0
C1496 C 0.64135 0.05872 0.89144 0.0
C1497 C 0.63085 0.04404 0.86935 0.0
C1498 C 0.6405 1.0021 0.91144 0.0
C1499 C 0.62574 1.00787 0.8693 0.0
C1500 C 0.65335 0.94393 0.93216 0.0
C1501 C 0.64231 0.97334 0.97695 0.0
N1502 N 0.63081 0.98833 0.88976 0.0
N1503 N 0.63986 0.99263 0.95621 0.0
loop_
_geom_bond_atom_site_label_1
_geom_bond_atom_site_label_2
_geom_bond_distance
_geom_bond_site_symmetry_2
_ccdc_geom_bond_type
Pr0 C2 2.880 . S
Pr0 O20 2.562 . S
Pr0 O21 2.490 . S
Pr0 O22 2.695 . S
Pr0 O23 2.512 . S
Pr0 O25 2.437 . S
Pr0 O28 2.436 . S
Pr0 O30 2.438 . S
Pr1 C11 2.880 . S
Pr1 O22 2.436 . S
Pr1 O24 2.438 . S
Pr1 O26 2.562 . S
Pr1 O27 2.490 . S
Pr1 O28 2.695 . S
Pr1 O29 2.512 . S
Pr1 O31 2.437 . S
C2 Pr0 2.880 . S
C2 C3 1.491 . S
C2 O20 1.254 . S
C2 O21 1.225 . S
C3 C2 1.491 . S
C3 C4 1.392 . S
C3 C8 1.356 . S
C4 C3 1.392 . S
C4 C5 1.368 . S
C4 H32 0.929 . S
C5 C4 1.368 . S
C5 C6 1.386 . S
C5 H33 0.929 . S
C6 C5 1.386 . S
C6 C7 1.373 . S
C7 C6 1.373 . S
C7 C8 1.409 . S
C7 H34 0.931 . S
C8 C3 1.356 . S
C8 C7 1.409 . S
C8 H35 0.930 . S
C9 O22 1.270 . S
C9 O23 1.248 . S
C10 O24 1.267 . S
C10 O25 1.278 . S
C11 Pr1 2.880 . S
C11 C12 1.491 . S
C11 O26 1.254 . S
C11 O27 1.225 . S
C12 C11 1.491 . S
C12 C13 1.392 . S
C12 C17 1.356 . S
C13 C12 1.392 . S
C13 C14 1.368 1_545 S
C13 H36 0.929 1_545 S
C14 C13 1.368 1_565 S
C14 C15 1.386 . S
C14 H37 0.929 . S
C15 C14 1.386 . S
C15 C16 1.373 1_565 S
C16 C15 1.373 1_545 S
C16 C17 1.409 . S
C16 H38 0.931 . S
C17 C12 1.356 . S
C17 C16 1.409 . S
C17 H39 0.930 . S
C18 O28 1.270 . S
C18 O29 1.248 . S
C19 O30 1.267 . S
C19 O31 1.278 . S
O20 Pr0 2.562 . S
O20 C2 1.254 . S
O21 Pr0 2.490 . S
O21 C2 1.225 . S
O22 Pr0 2.695 . S
O22 Pr1 2.436 . S
O22 C9 1.270 . S
O23 Pr0 2.512 . S
O23 C9 1.248 . S
O24 Pr1 2.438 . S
O24 C10 1.267 . S
O25 Pr0 2.437 . S
O25 C10 1.278 . S
O26 Pr1 2.562 . S
O26 C11 1.254 . S
O27 Pr1 2.490 . S
O27 C11 1.225 . S
O28 Pr0 2.436 . S
O28 Pr1 2.695 . S
O28 C18 1.270 . S
O29 Pr1 2.512 . S
O29 C18 1.248 . S
O30 Pr0 2.438 . S
O30 C19 1.267 . S
O31 Pr1 2.437 . S
O31 C19 1.278 . S
H32 C4 0.929 . S
H33 C5 0.929 . S
H34 C7 0.931 . S
H35 C8 0.930 . S
H36 C13 0.929 1_565 S
H37 C14 0.929 . S
H38 C16 0.931 . S
H39 C17 0.930 . S
Pr40 C42 2.880 . S
Pr40 O60 2.562 . S
Pr40 O61 2.490 . S
Pr40 O62 2.695 . S
Pr40 O63 2.512 . S
Pr40 O65 2.437 . S
Pr40 O68 2.436 . S
Pr40 O70 2.438 . S
Pr41 C51 2.880 . S
Pr41 O62 2.436 . S
Pr41 O64 2.438 . S
Pr41 O66 2.562 . S
Pr41 O67 2.490 . S
Pr41 O68 2.695 . S
Pr41 O69 2.512 . S
Pr41 O71 2.437 . S
C42 Pr40 2.880 . S
C42 C43 1.491 . S
C42 O60 1.254 . S
C42 O61 1.225 . S
C43 C42 1.491 . S
C43 C44 1.392 . S
C43 C48 1.356 . S
C44 C43 1.392 . S
C44 C45 1.368 . S
C44 H72 0.929 . S
C45 C44 1.368 . S
C45 C46 1.386 . S
C45 H73 0.929 . S
C46 C45 1.386 . S
C46 C47 1.373 . S
C47 C46 1.373 . S
C47 C48 1.409 . S
C47 H74 0.931 . S
C48 C43 1.356 . S
C48 C47 1.409 . S
C48 H75 0.930 . S
C49 O62 1.270 . S
C49 O63 1.248 . S
C50 O64 1.267 . S
C50 O65 1.278 . S
C51 Pr41 2.880 . S
C51 C52 1.491 . S
C51 O66 1.254 . S
C51 O67 1.225 . S
C52 C51 1.491 . S
C52 C53 1.392 . S
C52 C57 1.356 . S
C53 C52 1.392 . S
C53 C54 1.368 . S
C53 H76 0.929 . S
C54 C53 1.368 . S
C54 C55 1.386 . S
C54 H77 0.929 . S
C55 C54 1.386 . S
C55 C56 1.373 . S
C56 C55 1.373 . S
C56 C57 1.409 . S
C56 H78 0.931 . S
C57 C52 1.356 . S
C57 C56 1.409 . S
C57 H79 0.930 . S
C58 O68 1.270 . S
C58 O69 1.248 . S
C59 O70 1.267 . S
C59 O71 1.278 . S
O60 Pr40 2.562 . S
O60 C42 1.254 . S
O61 Pr40 2.490 . S
O61 C42 1.225 . S
O62 Pr40 2.695 . S
O62 Pr41 2.436 . S
O62 C49 1.270 . S
O63 Pr40 2.512 . S
O63 C49 1.248 . S
O64 Pr41 2.438 . S
O64 C50 1.267 . S
O65 Pr40 2.437 . S
O65 C50 1.278 . S
O66 Pr41 2.562 . S
O66 C51 1.254 . S
O67 Pr41 2.490 . S
O67 C51 1.225 . S
O68 Pr40 2.436 . S
O68 Pr41 2.695 . S
O68 C58 1.270 . S
O69 Pr41 2.512 . S
O69 C58 1.248 . S
O70 Pr40 2.438 . S
O70 C59 1.267 . S
O71 Pr41 2.437 . S
O71 C59 1.278 . S
H72 C44 0.929 . S
H73 C45 0.929 . S
H74 C47 0.931 . S
H75 C48 0.930 . S
H76 C53 0.929 . S
H77 C54 0.929 . S
H78 C56 0.931 . S
H79 C57 0.930 . S
Pr80 C82 2.880 . S
Pr80 O100 2.562 . S
Pr80 O101 2.490 . S
Pr80 O102 2.695 . S
Pr80 O103 2.512 . S
Pr80 O105 2.437 . S
Pr80 O108 2.436 . S
Pr80 O110 2.438 . S
Pr81 C91 2.880 . S
Pr81 O102 2.436 . S
Pr81 O104 2.438 . S
Pr81 O106 2.562 . S
Pr81 O107 2.490 . S
Pr81 O108 2.695 . S
Pr81 O109 2.512 . S
Pr81 O111 2.437 . S
C82 Pr80 2.880 . S
C82 C83 1.491 . S
C82 O100 1.254 . S
C82 O101 1.225 . S
C83 C82 1.491 . S
C83 C84 1.392 . S
C83 C88 1.356 . S
C84 C83 1.392 . S
C84 C85 1.368 . S
C84 H112 0.929 . S
C85 C84 1.368 . S
C85 C86 1.386 . S
C85 H113 0.929 . S
C86 C85 1.386 . S
C86 C87 1.373 . S
C87 C86 1.373 . S
C87 C88 1.409 . S
C87 H114 0.931 . S
C88 C83 1.356 . S
C88 C87 1.409 . S
C88 H115 0.930 . S
C89 O102 1.270 . S
C89 O103 1.248 . S
C90 O104 1.267 . S
C90 O105 1.278 . S
C91 Pr81 2.880 . S
C91 C92 1.491 . S
C91 O106 1.254 . S
C91 O107 1.225 . S
C92 C91 1.491 . S
C92 C93 1.392 . S
C92 C97 1.356 . S
C93 C92 1.392 . S
C93 C94 1.368 1_565 S
C93 H116 0.929 1_565 S
C94 C93 1.368 1_545 S
C94 C95 1.386 . S
C94 H117 0.929 . S
C95 C94 1.386 . S
C95 C96 1.373 1_545 S
C96 C95 1.373 1_565 S
C96 C97 1.409 . S
C96 H118 0.931 . S
C97 C92 1.356 . S
C97 C96 1.409 . S
C97 H119 0.930 . S
C98 O108 1.270 . S
C98 O109 1.248 . S
C99 O110 1.267 . S
C99 O111 1.278 . S
O100 Pr80 2.562 . S
O100 C82 1.254 . S
O101 Pr80 2.490 . S
O101 C82 1.225 . S
O102 Pr80 2.695 . S
O102 Pr81 2.436 . S
O102 C89 1.270 . S
O103 Pr80 2.512 . S
O103 C89 1.248 . S
O104 Pr81 2.438 . S
O104 C90 1.267 . S
O105 Pr80 2.437 . S
O105 C90 1.278 . S
O106 Pr81 2.562 . S
O106 C91 1.254 . S
O107 Pr81 2.490 . S
O107 C91 1.225 . S
O108 Pr80 2.436 . S
O108 Pr81 2.695 . S
O108 C98 1.270 . S
O109 Pr81 2.512 . S
O109 C98 1.248 . S
O110 Pr80 2.438 . S
O110 C99 1.267 . S
O111 Pr81 2.437 . S
O111 C99 1.278 . S
H112 C84 0.929 . S
H113 C85 0.929 . S
H114 C87 0.931 . S
H115 C88 0.930 . S
H116 C93 0.929 1_545 S
H117 C94 0.929 . S
H118 C96 0.931 . S
H119 C97 0.930 . S
Pr120 C122 2.880 . S
Pr120 O140 2.562 . S
Pr120 O141 2.490 . S
Pr120 O142 2.695 . S
Pr120 O143 2.512 . S
Pr120 O145 2.437 . S
Pr120 O148 2.436 . S
Pr120 O150 2.438 . S
Pr121 C131 2.880 . S
Pr121 O142 2.436 . S
Pr121 O144 2.438 . S
Pr121 O146 2.562 . S
Pr121 O147 2.490 . S
Pr121 O148 2.695 . S
Pr121 O149 2.512 . S
Pr121 O151 2.437 . S
C122 Pr120 2.880 . S
C122 C123 1.491 1_655 S
C122 O140 1.254 . S
C122 O141 1.225 . S
C123 C122 1.491 1_455 S
C123 C124 1.392 . S
C123 C128 1.356 1_455 S
C124 C123 1.392 . S
C124 C125 1.368 . S
C124 H152 0.929 . S
C125 C124 1.368 . S
C125 C126 1.386 . S
C125 H153 0.929 . S
C126 C125 1.386 . S
C126 C127 1.373 . S
C127 C126 1.373 . S
C127 C128 1.409 1_455 S
C127 H154 0.931 . S
C128 C123 1.356 1_655 S
C128 C127 1.409 1_655 S
C128 H155 0.930 . S
C129 O142 1.270 . S
C129 O143 1.248 . S
C130 O144 1.267 . S
C130 O145 1.278 . S
C131 Pr121 2.880 . S
C131 C132 1.491 . S
C131 O146 1.254 . S
C131 O147 1.225 . S
C132 C131 1.491 . S
C132 C133 1.392 . S
C132 C137 1.356 . S
C133 C132 1.392 . S
C133 C134 1.368 . S
C133 H156 0.929 . S
C134 C133 1.368 . S
C134 C135 1.386 . S
C134 H157 0.929 . S
C135 C134 1.386 . S
C135 C136 1.373 . S
C136 C135 1.373 . S
C136 C137 1.409 . S
C136 H158 0.931 . S
C137 C132 1.356 . S
C137 C136 1.409 . S
C137 H159 0.930 . S
C138 O148 1.270 . S
C138 O149 1.248 . S
C139 O150 1.267 . S
C139 O151 1.278 . S
O140 Pr120 2.562 . S
O140 C122 1.254 . S
O141 Pr120 2.490 . S
O141 C122 1.225 . S
O142 Pr120 2.695 . S
O142 Pr121 2.436 . S
O142 C129 1.270 . S
O143 Pr120 2.512 . S
O143 C129 1.248 . S
O144 Pr121 2.438 . S
O144 C130 1.267 . S
O145 Pr120 2.437 . S
O145 C130 1.278 . S
O146 Pr121 2.562 . S
O146 C131 1.254 . S
O147 Pr121 2.490 . S
O147 C131 1.225 . S
O148 Pr120 2.436 . S
O148 Pr121 2.695 . S
O148 C138 1.270 . S
O149 Pr121 2.512 . S
O149 C138 1.248 . S
O150 Pr120 2.438 . S
O150 C139 1.267 . S
O151 Pr121 2.437 . S
O151 C139 1.278 . S
H152 C124 0.929 . S
H153 C125 0.929 . S
H154 C127 0.931 . S
H155 C128 0.930 . S
H156 C133 0.929 . S
H157 C134 0.929 . S
H158 C136 0.931 . S
H159 C137 0.930 . S
Pr160 C162 2.880 . S
Pr160 O180 2.562 . S
Pr160 O181 2.490 . S
Pr160 O182 2.695 . S
Pr160 O183 2.512 . S
Pr160 O185 2.437 . S
Pr160 O188 2.436 . S
Pr160 O190 2.438 . S
Pr161 C171 2.880 . S
Pr161 O182 2.436 . S
Pr161 O184 2.438 . S
Pr161 O186 2.562 . S
Pr161 O187 2.490 . S
Pr161 O188 2.695 . S
Pr161 O189 2.512 . S
Pr161 O191 2.437 . S
C162 Pr160 2.880 . S
C162 C163 1.491 . S
C162 O180 1.254 . S
C162 O181 1.225 . S
C163 C162 1.491 . S
C163 C164 1.392 . S
C163 C168 1.356 . S
C164 C163 1.392 . S
C164 C165 1.368 1_565 S
C164 H192 0.929 1_565 S
C165 C164 1.368 1_545 S
C165 C166 1.386 . S
C165 H193 0.929 . S
C166 C165 1.386 . S
C166 C167 1.373 1_545 S
C167 C166 1.373 1_565 S
C167 C168 1.409 . S
C167 H194 0.931 . S
C168 C163 1.356 . S
C168 C167 1.409 . S
C168 H195 0.930 . S
C169 O182 1.270 . S
C169 O183 1.248 . S
C170 O184 1.267 . S
C170 O185 1.278 . S
C171 Pr161 2.880 . S
C171 C172 1.491 . S
C171 O186 1.254 . S
C171 O187 1.225 . S
C172 C171 1.491 . S
C172 C173 1.392 . S
C172 C177 1.356 . S
C173 C172 1.392 . S
C173 C174 1.368 . S
C173 H196 0.929 . S
C174 C173 1.368 . S
C174 C175 1.386 . S
C174 H197 0.929 . S
C175 C174 1.386 . S
C175 C176 1.373 . S
C176 C175 1.373 . S
C176 C177 1.409 . S
C176 H198 0.931 . S
C177 C172 1.356 . S
C177 C176 1.409 . S
C177 H199 0.930 . S
C178 O188 1.270 . S
C178 O189 1.248 . S
C179 O190 1.267 . S
C179 O191 1.278 . S
O180 Pr160 2.562 . S
O180 C162 1.254 . S
O181 Pr160 2.490 . S
O181 C162 1.225 . S
O182 Pr160 2.695 . S
O182 Pr161 2.436 . S
O182 C169 1.270 . S
O183 Pr160 2.512 . S
O183 C169 1.248 . S
O184 Pr161 2.438 . S
O184 C170 1.267 . S
O185 Pr160 2.437 . S
O185 C170 1.278 . S
O186 Pr161 2.562 . S
O186 C171 1.254 . S
O187 Pr161 2.490 . S
O187 C171 1.225 . S
O188 Pr160 2.436 . S
O188 Pr161 2.695 . S
O188 C178 1.270 . S
O189 Pr161 2.512 . S
O189 C178 1.248 . S
O190 Pr160 2.438 . S
O190 C179 1.267 . S
O191 Pr161 2.437 . S
O191 C179 1.278 . S
H192 C164 0.929 1_545 S
H193 C165 0.929 . S
H194 C167 0.931 . S
H195 C168 0.930 . S
H196 C173 0.929 . S
H197 C174 0.929 . S
H198 C176 0.931 . S
H199 C177 0.930 . S
Pr200 C202 2.880 . S
Pr200 O220 2.562 . S
Pr200 O221 2.490 . S
Pr200 O222 2.695 . S
Pr200 O223 2.512 . S
Pr200 O225 2.437 . S
Pr200 O228 2.436 . S
Pr200 O230 2.438 . S
Pr201 C211 2.880 . S
Pr201 O222 2.436 . S
Pr201 O224 2.438 . S
Pr201 O226 2.562 . S
Pr201 O227 2.490 . S
Pr201 O228 2.695 . S
Pr201 O229 2.512 . S
Pr201 O231 2.437 . S
C202 Pr200 2.880 . S
C202 C203 1.491 . S
C202 O220 1.254 . S
C202 O221 1.225 . S
C203 C202 1.491 . S
C203 C204 1.392 . S
C203 C208 1.356 . S
C204 C203 1.392 . S
C204 C205 1.368 . S
C204 H232 0.929 . S
C205 C204 1.368 . S
C205 C206 1.386 . S
C205 H233 0.929 . S
C206 C205 1.386 . S
C206 C207 1.373 . S
C207 C206 1.373 . S
C207 C208 1.409 . S
C207 H234 0.931 . S
C208 C203 1.356 . S
C208 C207 1.409 . S
C208 H235 0.930 . S
C209 O222 1.270 . S
C209 O223 1.248 . S
C210 O224 1.267 . S
C210 O225 1.278 . S
C211 Pr201 2.880 . S
C211 C212 1.491 . S
C211 O226 1.254 . S
C211 O227 1.225 . S
C212 C211 1.491 . S
C212 C213 1.392 . S
C212 C217 1.356 . S
C213 C212 1.392 . S
C213 C214 1.368 . S
C213 H236 0.929 . S
C214 C213 1.368 . S
C214 C215 1.386 . S
C214 H237 0.929 . S
C215 C214 1.386 . S
C215 C216 1.373 . S
C216 C215 1.373 . S
C216 C217 1.409 . S
C216 H238 0.931 . S
C217 C212 1.356 . S
C217 C216 1.409 . S
C217 H239 0.930 . S
C218 O228 1.270 . S
C218 O229 1.248 . S
C219 O230 1.267 . S
C219 O231 1.278 . S
O220 Pr200 2.562 . S
O220 C202 1.254 . S
O221 Pr200 2.490 . S
O221 C202 1.225 . S
O222 Pr200 2.695 . S
O222 Pr201 2.436 . S
O222 C209 1.270 . S
O223 Pr200 2.512 . S
O223 C209 1.248 . S
O224 Pr201 2.438 . S
O224 C210 1.267 . S
O225 Pr200 2.437 . S
O225 C210 1.278 . S
O226 Pr201 2.562 . S
O226 C211 1.254 . S
O227 Pr201 2.490 . S
O227 C211 1.225 . S
O228 Pr200 2.436 . S
O228 Pr201 2.695 . S
O228 C218 1.270 . S
O229 Pr201 2.512 . S
O229 C218 1.248 . S
O230 Pr200 2.438 . S
O230 C219 1.267 . S
O231 Pr201 2.437 . S
O231 C219 1.278 . S
H232 C204 0.929 . S
H233 C205 0.929 . S
H234 C207 0.931 . S
H235 C208 0.930 . S
H236 C213 0.929 . S
H237 C214 0.929 . S
H238 C216 0.931 . S
H239 C217 0.930 . S
Pr240 C242 2.880 . S
Pr240 O260 2.562 . S
Pr240 O261 2.490 . S
Pr240 O262 2.695 . S
Pr240 O263 2.512 . S
Pr240 O265 2.437 . S
Pr240 O268 2.436 . S
Pr240 O270 2.438 . S
Pr241 C251 2.880 . S
Pr241 O262 2.436 . S
Pr241 O264 2.438 . S
Pr241 O266 2.562 . S
Pr241 O267 2.490 . S
Pr241 O268 2.695 . S
Pr241 O269 2.512 . S
Pr241 O271 2.437 . S
C242 Pr240 2.880 . S
C242 C243 1.491 . S
C242 O260 1.254 . S
C242 O261 1.225 . S
C243 C242 1.491 . S
C243 C244 1.392 . S
C243 C248 1.356 . S
C244 C243 1.392 . S
C244 C245 1.368 1_545 S
C244 H272 0.929 1_545 S
C245 C244 1.368 1_565 S
C245 C246 1.386 . S
C245 H273 0.929 . S
C246 C245 1.386 . S
C246 C247 1.373 1_565 S
C247 C246 1.373 1_545 S
C247 C248 1.409 . S
C247 H274 0.931 . S
C248 C243 1.356 . S
C248 C247 1.409 . S
C248 H275 0.930 . S
C249 O262 1.270 . S
C249 O263 1.248 . S
C250 O264 1.267 . S
C250 O265 1.278 . S
C251 Pr241 2.880 . S
C251 C252 1.491 . S
C251 O266 1.254 . S
C251 O267 1.225 . S
C252 C251 1.491 . S
C252 C253 1.392 . S
C252 C257 1.356 . S
C253 C252 1.392 . S
C253 C254 1.368 . S
C253 H276 0.929 . S
C254 C253 1.368 . S
C254 C255 1.386 . S
C254 H277 0.929 . S
C255 C254 1.386 . S
C255 C256 1.373 . S
C256 C255 1.373 . S
C256 C257 1.409 . S
C256 H278 0.931 . S
C257 C252 1.356 . S
C257 C256 1.409 . S
C257 H279 0.930 . S
C258 O268 1.270 . S
C258 O269 1.248 . S
C259 O270 1.267 . S
C259 O271 1.278 . S
O260 Pr240 2.562 . S
O260 C242 1.254 . S
O261 Pr240 2.490 . S
O261 C242 1.225 . S
O262 Pr240 2.695 . S
O262 Pr241 2.436 . S
O262 C249 1.270 . S
O263 Pr240 2.512 . S
O263 C249 1.248 . S
O264 Pr241 2.438 . S
O264 C250 1.267 . S
O265 Pr240 2.437 . S
O265 C250 1.278 . S
O266 Pr241 2.562 . S
O266 C251 1.254 . S
O267 Pr241 2.490 . S
O267 C251 1.225 . S
O268 Pr240 2.436 . S
O268 Pr241 2.695 . S
O268 C258 1.270 . S
O269 Pr241 2.512 . S
O269 C258 1.248 . S
O270 Pr240 2.438 . S
O270 C259 1.267 . S
O271 Pr241 2.437 . S
O271 C259 1.278 . S
H272 C244 0.929 1_565 S
H273 C245 0.929 . S
H274 C247 0.931 . S
H275 C248 0.930 . S
H276 C253 0.929 . S
H277 C254 0.929 . S
H278 C256 0.931 . S
H279 C257 0.930 . S
Pr280 C282 2.880 . S
Pr280 O300 2.562 . S
Pr280 O301 2.490 . S
Pr280 O302 2.695 . S
Pr280 O303 2.512 . S
Pr280 O305 2.437 . S
Pr280 O308 2.436 . S
Pr280 O310 2.438 . S
Pr281 C291 2.880 . S
Pr281 O302 2.436 . S
Pr281 O304 2.438 . S
Pr281 O306 2.562 . S
Pr281 O307 2.490 . S
Pr281 O308 2.695 . S
Pr281 O309 2.512 . S
Pr281 O311 2.437 . S
C282 Pr280 2.880 . S
C282 C283 1.491 . S
C282 O300 1.254 . S
C282 O301 1.225 . S
C283 C282 1.491 . S
C283 C284 1.392 . S
C283 C288 1.356 . S
C284 C283 1.392 . S
C284 C285 1.368 . S
C284 H312 0.929 . S
C285 C284 1.368 . S
C285 C286 1.386 . S
C285 H313 0.929 . S
C286 C285 1.386 . S
C286 C287 1.373 . S
C287 C286 1.373 . S
C287 C288 1.409 . S
C287 H314 0.931 . S
C288 C283 1.356 . S
C288 C287 1.409 . S
C288 H315 0.930 . S
C289 O302 1.270 . S
C289 O303 1.248 . S
C290 O304 1.267 . S
C290 O305 1.278 . S
C291 Pr281 2.880 . S
C291 C292 1.491 1_455 S
C291 O306 1.254 . S
C291 O307 1.225 . S
C292 C291 1.491 1_655 S
C292 C293 1.392 . S
C292 C297 1.356 1_655 S
C293 C292 1.392 . S
C293 C294 1.368 . S
C293 H316 0.929 . S
C294 C293 1.368 . S
C294 C295 1.386 . S
C294 H317 0.929 . S
C295 C294 1.386 . S
C295 C296 1.373 . S
C296 C295 1.373 . S
C296 C297 1.409 1_655 S
C296 H318 0.931 . S
C297 C292 1.356 1_455 S
C297 C296 1.409 1_455 S
C297 H319 0.930 . S
C298 O308 1.270 . S
C298 O309 1.248 . S
C299 O310 1.267 . S
C299 O311 1.278 . S
O300 Pr280 2.562 . S
O300 C282 1.254 . S
O301 Pr280 2.490 . S
O301 C282 1.225 . S
O302 Pr280 2.695 . S
O302 Pr281 2.436 . S
O302 C289 1.270 . S
O303 Pr280 2.512 . S
O303 C289 1.248 . S
O304 Pr281 2.438 . S
O304 C290 1.267 . S
O305 Pr280 2.437 . S
O305 C290 1.278 . S
O306 Pr281 2.562 . S
O306 C291 1.254 . S
O307 Pr281 2.490 . S
O307 C291 1.225 . S
O308 Pr280 2.436 . S
O308 Pr281 2.695 . S
O308 C298 1.270 . S
O309 Pr281 2.512 . S
O309 C298 1.248 . S
O310 Pr280 2.438 . S
O310 C299 1.267 . S
O311 Pr281 2.437 . S
O311 C299 1.278 . S
H312 C284 0.929 . S
H313 C285 0.929 . S
H314 C287 0.931 . S
H315 C288 0.930 . S
H316 C293 0.929 . S
H317 C294 0.929 . S
H318 C296 0.931 . S
H319 C297 0.930 . S
Pr320 C322 2.880 . S
Pr320 O340 2.562 . S
Pr320 O341 2.490 . S
Pr320 O342 2.695 . S
Pr320 O343 2.512 . S
Pr320 O345 2.437 . S
Pr320 O348 2.436 . S
Pr320 O350 2.438 . S
Pr321 C331 2.880 . S
Pr321 O342 2.436 . S
Pr321 O344 2.438 . S
Pr321 O346 2.562 . S
Pr321 O347 2.490 . S
Pr321 O348 2.695 . S
Pr321 O349 2.512 . S
Pr321 O351 2.437 . S
C322 Pr320 2.880 . S
C322 C323 1.491 . S
C322 O340 1.254 . S
C322 O341 1.225 . S
C323 C322 1.491 . S
C323 C324 1.392 . S
C323 C328 1.356 . S
C324 C323 1.392 . S
C324 C325 1.368 . S
C324 H352 0.929 . S
C325 C324 1.368 . S
C325 C326 1.386 . S
C325 H353 0.929 . S
C326 C325 1.386 . S
C326 C327 1.373 . S
C327 C326 1.373 . S
C327 C328 1.409 . S
C327 H354 0.931 . S
C328 C323 1.356 . S
C328 C327 1.409 . S
C328 H355 0.930 . S
C329 O342 1.270 . S
C329 O343 1.248 . S
C330 O344 1.267 . S
C330 O345 1.278 . S
C331 Pr321 2.880 . S
C331 C332 1.491 . S
C331 O346 1.254 . S
C331 O347 1.225 . S
C332 C331 1.491 . S
C332 C333 1.392 . S
C332 C337 1.356 . S
C333 C332 1.392 . S
C333 C334 1.368 . S
C333 H356 0.929 . S
C334 C333 1.368 . S
C334 C335 1.386 . S
C334 H357 0.929 . S
C335 C334 1.386 . S
C335 C336 1.373 . S
C336 C335 1.373 . S
C336 C337 1.409 . S
C336 H358 0.931 . S
C337 C332 1.356 . S
C337 C336 1.409 . S
C337 H359 0.930 . S
C338 O348 1.270 . S
C338 O349 1.248 . S
C339 O350 1.267 . S
C339 O351 1.278 . S
O340 Pr320 2.562 . S
O340 C322 1.254 . S
O341 Pr320 2.490 . S
O341 C322 1.225 . S
O342 Pr320 2.695 . S
O342 Pr321 2.436 . S
O342 C329 1.270 . S
O343 Pr320 2.512 . S
O343 C329 1.248 . S
O344 Pr321 2.438 . S
O344 C330 1.267 . S
O345 Pr320 2.437 . S
O345 C330 1.278 . S
O346 Pr321 2.562 . S
O346 C331 1.254 . S
O347 Pr321 2.490 . S
O347 C331 1.225 . S
O348 Pr320 2.436 . S
O348 Pr321 2.695 . S
O348 C338 1.270 . S
O349 Pr321 2.512 . S
O349 C338 1.248 . S
O350 Pr320 2.438 . S
O350 C339 1.267 . S
O351 Pr321 2.437 . S
O351 C339 1.278 . S
H352 C324 0.929 . S
H353 C325 0.929 . S
H354 C327 0.931 . S
H355 C328 0.930 . S
H356 C333 0.929 . S
H357 C334 0.929 . S
H358 C336 0.931 . S
H359 C337 0.930 . S
Pr360 C362 2.880 . S
Pr360 O380 2.562 1_545 S
Pr360 O381 2.490 . S
Pr360 O382 2.695 . S
Pr360 O383 2.512 . S
Pr360 O385 2.437 . S
Pr360 O388 2.436 . S
Pr360 O390 2.438 . S
Pr361 C371 2.880 . S
Pr361 O382 2.436 . S
Pr361 O384 2.438 . S
Pr361 O386 2.562 . S
Pr361 O387 2.490 . S
Pr361 O388 2.695 . S
Pr361 O389 2.512 . S
Pr361 O391 2.437 . S
C362 Pr360 2.880 . S
C362 C363 1.491 1_445 S
C362 O380 1.254 1_545 S
C362 O381 1.225 . S
C363 C362 1.491 1_665 S
C363 C364 1.392 1_565 S
C363 C368 1.356 1_655 S
C364 C363 1.392 1_545 S
C364 C365 1.368 1_545 S
C364 H392 0.929 . S
C365 C364 1.368 1_565 S
C365 C366 1.386 . S
C365 H393 0.929 . S
C366 C365 1.386 . S
C366 C367 1.373 . S
C367 C366 1.373 . S
C367 C368 1.409 1_655 S
C367 H394 0.931 . S
C368 C363 1.356 1_455 S
C368 C367 1.409 1_455 S
C368 H395 0.930 . S
C369 O382 1.270 . S
C369 O383 1.248 . S
C370 O384 1.267 . S
C370 O385 1.278 . S
C371 Pr361 2.880 . S
C371 C372 1.491 . S
C371 O386 1.254 . S
C371 O387 1.225 . S
C372 C371 1.491 . S
C372 C373 1.392 . S
C372 C377 1.356 . S
C373 C372 1.392 . S
C373 C374 1.368 . S
C373 H396 0.929 . S
C374 C373 1.368 . S
C374 C375 1.386 . S
C374 H397 0.929 . S
C375 C374 1.386 . S
C375 C376 1.373 . S
C376 C375 1.373 . S
C376 C377 1.409 . S
C376 H398 0.931 . S
C377 C372 1.356 . S
C377 C376 1.409 . S
C377 H399 0.930 . S
C378 O388 1.270 . S
C378 O389 1.248 . S
C379 O390 1.267 . S
C379 O391 1.278 . S
O380 Pr360 2.562 1_565 S
O380 C362 1.254 1_565 S
O381 Pr360 2.490 . S
O381 C362 1.225 . S
O382 Pr360 2.695 . S
O382 Pr361 2.436 . S
O382 C369 1.270 . S
O383 Pr360 2.512 . S
O383 C369 1.248 . S
O384 Pr361 2.438 . S
O384 C370 1.267 . S
O385 Pr360 2.437 . S
O385 C370 1.278 . S
O386 Pr361 2.562 . S
O386 C371 1.254 . S
O387 Pr361 2.490 . S
O387 C371 1.225 . S
O388 Pr360 2.436 . S
O388 Pr361 2.695 . S
O388 C378 1.270 . S
O389 Pr361 2.512 . S
O389 C378 1.248 . S
O390 Pr360 2.438 . S
O390 C379 1.267 . S
O391 Pr361 2.437 . S
O391 C379 1.278 . S
H392 C364 0.929 . S
H393 C365 0.929 . S
H394 C367 0.931 . S
H395 C368 0.930 . S
H396 C373 0.929 . S
H397 C374 0.929 . S
H398 C376 0.931 . S
H399 C377 0.930 . S
Pr400 C402 2.880 . S
Pr400 O420 2.562 . S
Pr400 O421 2.490 . S
Pr400 O422 2.695 . S
Pr400 O423 2.512 . S
Pr400 O425 2.437 . S
Pr400 O428 2.436 . S
Pr400 O430 2.438 . S
Pr401 C411 2.880 . S
Pr401 O422 2.436 . S
Pr401 O424 2.438 . S
Pr401 O426 2.562 . S
Pr401 O427 2.490 . S
Pr401 O428 2.695 . S
Pr401 O429 2.512 . S
Pr401 O431 2.437 . S
C402 Pr400 2.880 . S
C402 C403 1.491 . S
C402 O420 1.254 . S
C402 O421 1.225 . S
C403 C402 1.491 . S
C403 C404 1.392 . S
C403 C408 1.356 . S
C404 C403 1.392 . S
C404 C405 1.368 . S
C404 H432 0.929 . S
C405 C404 1.368 . S
C405 C406 1.386 . S
C405 H433 0.929 . S
C406 C405 1.386 . S
C406 C407 1.373 . S
C407 C406 1.373 . S
C407 C408 1.409 . S
C407 H434 0.931 . S
C408 C403 1.356 . S
C408 C407 1.409 . S
C408 H435 0.930 . S
C409 O422 1.270 . S
C409 O423 1.248 . S
C410 O424 1.267 . S
C410 O425 1.278 . S
C411 Pr401 2.880 . S
C411 C412 1.491 . S
C411 O426 1.254 . S
C411 O427 1.225 . S
C412 C411 1.491 . S
C412 C413 1.392 . S
C412 C417 1.356 . S
C413 C412 1.392 . S
C413 C414 1.368 . S
C413 H436 0.929 . S
C414 C413 1.368 . S
C414 C415 1.386 . S
C414 H437 0.929 . S
C415 C414 1.386 . S
C415 C416 1.373 . S
C416 C415 1.373 . S
C416 C417 1.409 . S
C416 H438 0.931 . S
C417 C412 1.356 . S
C417 C416 1.409 . S
C417 H439 0.930 . S
C418 O428 1.270 . S
C418 O429 1.248 . S
C419 O430 1.267 . S
C419 O431 1.278 . S
O420 Pr400 2.562 . S
O420 C402 1.254 . S
O421 Pr400 2.490 . S
O421 C402 1.225 . S
O422 Pr400 2.695 . S
O422 Pr401 2.436 . S
O422 C409 1.270 . S
O423 Pr400 2.512 . S
O423 C409 1.248 . S
O424 Pr401 2.438 . S
O424 C410 1.267 . S
O425 Pr400 2.437 . S
O425 C410 1.278 . S
O426 Pr401 2.562 . S
O426 C411 1.254 . S
O427 Pr401 2.490 . S
O427 C411 1.225 . S
O428 Pr400 2.436 . S
O428 Pr401 2.695 . S
O428 C418 1.270 . S
O429 Pr401 2.512 . S
O429 C418 1.248 . S
O430 Pr400 2.438 . S
O430 C419 1.267 . S
O431 Pr401 2.437 . S
O431 C419 1.278 . S
H432 C404 0.929 . S
H433 C405 0.929 . S
H434 C407 0.931 . S
H435 C408 0.930 . S
H436 C413 0.929 . S
H437 C414 0.929 . S
H438 C416 0.931 . S
H439 C417 0.930 . S
Pr440 C442 2.880 . S
Pr440 O460 2.562 1_565 S
Pr440 O461 2.490 . S
Pr440 O462 2.695 . S
Pr440 O463 2.512 . S
Pr440 O465 2.437 . S
Pr440 O468 2.436 . S
Pr440 O470 2.438 . S
Pr441 C451 2.880 . S
Pr441 O462 2.436 . S
Pr441 O464 2.438 . S
Pr441 O466 2.562 . S
Pr441 O467 2.490 . S
Pr441 O468 2.695 . S
Pr441 O469 2.512 . S
Pr441 O471 2.437 . S
C442 Pr440 2.880 . S
C442 C443 1.491 1_565 S
C442 O460 1.254 1_565 S
C442 O461 1.225 . S
C443 C442 1.491 1_545 S
C443 C444 1.392 1_545 S
C443 C448 1.356 . S
C444 C443 1.392 1_565 S
C444 C445 1.368 1_565 S
C444 H472 0.929 . S
C445 C444 1.368 1_545 S
C445 C446 1.386 . S
C445 H473 0.929 . S
C446 C445 1.386 . S
C446 C447 1.373 . S
C447 C446 1.373 . S
C447 C448 1.409 . S
C447 H474 0.931 . S
C448 C443 1.356 . S
C448 C447 1.409 . S
C448 H475 0.930 . S
C449 O462 1.270 . S
C449 O463 1.248 . S
C450 O464 1.267 . S
C450 O465 1.278 . S
C451 Pr441 2.880 . S
C451 C452 1.491 . S
C451 O466 1.254 . S
C451 O467 1.225 . S
C452 C451 1.491 . S
C452 C453 1.392 . S
C452 C457 1.356 . S
C453 C452 1.392 . S
C453 C454 1.368 . S
C453 H476 0.929 . S
C454 C453 1.368 . S
C454 C455 1.386 . S
C454 H477 0.929 . S
C455 C454 1.386 . S
C455 C456 1.373 . S
C456 C455 1.373 . S
C456 C457 1.409 . S
C456 H478 0.931 . S
C457 C452 1.356 . S
C457 C456 1.409 . S
C457 H479 0.930 . S
C458 O468 1.270 . S
C458 O469 1.248 . S
C459 O470 1.267 . S
C459 O471 1.278 . S
O460 Pr440 2.562 1_545 S
O460 C442 1.254 1_545 S
O461 Pr440 2.490 . S
O461 C442 1.225 . S
O462 Pr440 2.695 . S
O462 Pr441 2.436 . S
O462 C449 1.270 . S
O463 Pr440 2.512 . S
O463 C449 1.248 . S
O464 Pr441 2.438 . S
O464 C450 1.267 . S
O465 Pr440 2.437 . S
O465 C450 1.278 . S
O466 Pr441 2.562 . S
O466 C451 1.254 . S
O467 Pr441 2.490 . S
O467 C451 1.225 . S
O468 Pr440 2.436 . S
O468 Pr441 2.695 . S
O468 C458 1.270 . S
O469 Pr441 2.512 . S
O469 C458 1.248 . S
O470 Pr440 2.438 . S
O470 C459 1.267 . S
O471 Pr441 2.437 . S
O471 C459 1.278 . S
H472 C444 0.929 . S
H473 C445 0.929 . S
H474 C447 0.931 . S
H475 C448 0.930 . S
H476 C453 0.929 . S
H477 C454 0.929 . S
H478 C456 0.931 . S
H479 C457 0.930 . S
Pr480 C482 2.880 . S
Pr480 O500 2.562 . S
Pr480 O501 2.490 . S
Pr480 O502 2.695 . S
Pr480 O503 2.512 . S
Pr480 O505 2.437 . S
Pr480 O508 2.436 . S
Pr480 O510 2.438 . S
Pr481 C491 2.880 . S
Pr481 O502 2.436 . S
Pr481 O504 2.438 . S
Pr481 O506 2.562 . S
Pr481 O507 2.490 . S
Pr481 O508 2.695 . S
Pr481 O509 2.512 . S
Pr481 O511 2.437 . S
C482 Pr480 2.880 . S
C482 C483 1.491 . S
C482 O500 1.254 . S
C482 O501 1.225 . S
C483 C482 1.491 . S
C483 C484 1.392 . S
C483 C488 1.356 . S
C484 C483 1.392 . S
C484 C485 1.368 . S
C484 H512 0.929 . S
C485 C484 1.368 . S
C485 C486 1.386 . S
C485 H513 0.929 . S
C486 C485 1.386 . S
C486 C487 1.373 . S
C487 C486 1.373 . S
C487 C488 1.409 . S
C487 H514 0.931 . S
C488 C483 1.356 . S
C488 C487 1.409 . S
C488 H515 0.930 . S
C489 O502 1.270 . S
C489 O503 1.248 . S
C490 O504 1.267 . S
C490 O505 1.278 . S
C491 Pr481 2.880 . S
C491 C492 1.491 . S
C491 O506 1.254 . S
C491 O507 1.225 . S
C492 C491 1.491 . S
C492 C493 1.392 . S
C492 C497 1.356 . S
C493 C492 1.392 . S
C493 C494 1.368 . S
C493 H516 0.929 . S
C494 C493 1.368 . S
C494 C495 1.386 . S
C494 H517 0.929 . S
C495 C494 1.386 . S
C495 C496 1.373 . S
C496 C495 1.373 . S
C496 C497 1.409 . S
C496 H518 0.931 . S
C497 C492 1.356 . S
C497 C496 1.409 . S
C497 H519 0.930 . S
C498 O508 1.270 . S
C498 O509 1.248 . S
C499 O510 1.267 . S
C499 O511 1.278 . S
O500 Pr480 2.562 . S
O500 C482 1.254 . S
O501 Pr480 2.490 . S
O501 C482 1.225 . S
O502 Pr480 2.695 . S
O502 Pr481 2.436 . S
O502 C489 1.270 . S
O503 Pr480 2.512 . S
O503 C489 1.248 . S
O504 Pr481 2.438 . S
O504 C490 1.267 . S
O505 Pr480 2.437 . S
O505 C490 1.278 . S
O506 Pr481 2.562 . S
O506 C491 1.254 . S
O507 Pr481 2.490 . S
O507 C491 1.225 . S
O508 Pr480 2.436 . S
O508 Pr481 2.695 . S
O508 C498 1.270 . S
O509 Pr481 2.512 . S
O509 C498 1.248 . S
O510 Pr480 2.438 . S
O510 C499 1.267 . S
O511 Pr481 2.437 . S
O511 C499 1.278 . S
H512 C484 0.929 . S
H513 C485 0.929 . S
H514 C487 0.931 . S
H515 C488 0.930 . S
H516 C493 0.929 . S
H517 C494 0.929 . S
H518 C496 0.931 . S
H519 C497 0.930 . S
Pr520 C522 2.880 . S
Pr520 O540 2.562 . S
Pr520 O541 2.490 . S
Pr520 O542 2.695 . S
Pr520 O543 2.512 . S
Pr520 O545 2.437 . S
Pr520 O548 2.436 . S
Pr520 O550 2.438 . S
Pr521 C531 2.880 . S
Pr521 O542 2.436 . S
Pr521 O544 2.438 . S
Pr521 O546 2.562 1_565 S
Pr521 O547 2.490 . S
Pr521 O548 2.695 . S
Pr521 O549 2.512 . S
Pr521 O551 2.437 . S
C522 Pr520 2.880 . S
C522 C523 1.491 . S
C522 O540 1.254 . S
C522 O541 1.225 . S
C523 C522 1.491 . S
C523 C524 1.392 . S
C523 C528 1.356 . S
C524 C523 1.392 . S
C524 C525 1.368 . S
C524 H552 0.929 . S
C525 C524 1.368 . S
C525 C526 1.386 . S
C525 H553 0.929 . S
C526 C525 1.386 . S
C526 C527 1.373 . S
C527 C526 1.373 . S
C527 C528 1.409 . S
C527 H554 0.931 . S
C528 C523 1.356 . S
C528 C527 1.409 . S
C528 H555 0.930 . S
C529 O542 1.270 . S
C529 O543 1.248 . S
C530 O544 1.267 . S
C530 O545 1.278 . S
C531 Pr521 2.880 . S
C531 C532 1.491 1_665 S
C531 O546 1.254 1_565 S
C531 O547 1.225 . S
C532 C531 1.491 1_445 S
C532 C533 1.392 1_545 S
C532 C537 1.356 1_455 S
C533 C532 1.392 1_565 S
C533 C534 1.368 1_565 S
C533 H556 0.929 . S
C534 C533 1.368 1_545 S
C534 C535 1.386 . S
C534 H557 0.929 . S
C535 C534 1.386 . S
C535 C536 1.373 . S
C536 C535 1.373 . S
C536 C537 1.409 1_455 S
C536 H558 0.931 . S
C537 C532 1.356 1_655 S
C537 C536 1.409 1_655 S
C537 H559 0.930 . S
C538 O548 1.270 . S
C538 O549 1.248 . S
C539 O550 1.267 . S
C539 O551 1.278 . S
O540 Pr520 2.562 . S
O540 C522 1.254 . S
O541 Pr520 2.490 . S
O541 C522 1.225 . S
O542 Pr520 2.695 . S
O542 Pr521 2.436 . S
O542 C529 1.270 . S
O543 Pr520 2.512 . S
O543 C529 1.248 . S
O544 Pr521 2.438 . S
O544 C530 1.267 . S
O545 Pr520 2.437 . S
O545 C530 1.278 . S
O546 Pr521 2.562 1_545 S
O546 C531 1.254 1_545 S
O547 Pr521 2.490 . S
O547 C531 1.225 . S
O548 Pr520 2.436 . S
O548 Pr521 2.695 . S
O548 C538 1.270 . S
O549 Pr521 2.512 . S
O549 C538 1.248 . S
O550 Pr520 2.438 . S
O550 C539 1.267 . S
O551 Pr521 2.437 . S
O551 C539 1.278 . S
H552 C524 0.929 . S
H553 C525 0.929 . S
H554 C527 0.931 . S
H555 C528 0.930 . S
H556 C533 0.929 . S
H557 C534 0.929 . S
H558 C536 0.931 . S
H559 C537 0.930 . S
Pr560 C562 2.880 . S
Pr560 O580 2.562 . S
Pr560 O581 2.490 . S
Pr560 O582 2.695 . S
Pr560 O583 2.512 . S
Pr560 O585 2.437 . S
Pr560 O588 2.436 . S
Pr560 O590 2.438 . S
Pr561 C571 2.880 . S
Pr561 O582 2.436 . S
Pr561 O584 2.438 . S
Pr561 O586 2.562 . S
Pr561 O587 2.490 . S
Pr561 O588 2.695 . S
Pr561 O589 2.512 . S
Pr561 O591 2.437 . S
C562 Pr560 2.880 . S
C562 C563 1.491 . S
C562 O580 1.254 . S
C562 O581 1.225 . S
C563 C562 1.491 . S
C563 C564 1.392 . S
C563 C568 1.356 . S
C564 C563 1.392 . S
C564 C565 1.368 . S
C564 H592 0.929 . S
C565 C564 1.368 . S
C565 C566 1.386 . S
C565 H593 0.929 . S
C566 C565 1.386 . S
C566 C567 1.373 . S
C567 C566 1.373 . S
C567 C568 1.409 . S
C567 H594 0.931 . S
C568 C563 1.356 . S
C568 C567 1.409 . S
C568 H595 0.930 . S
C569 O582 1.270 . S
C569 O583 1.248 . S
C570 O584 1.267 . S
C570 O585 1.278 . S
C571 Pr561 2.880 . S
C571 C572 1.491 . S
C571 O586 1.254 . S
C571 O587 1.225 . S
C572 C571 1.491 . S
C572 C573 1.392 . S
C572 C577 1.356 . S
C573 C572 1.392 . S
C573 C574 1.368 . S
C573 H596 0.929 . S
C574 C573 1.368 . S
C574 C575 1.386 . S
C574 H597 0.929 . S
C575 C574 1.386 . S
C575 C576 1.373 . S
C576 C575 1.373 . S
C576 C577 1.409 . S
C576 H598 0.931 . S
C577 C572 1.356 . S
C577 C576 1.409 . S
C577 H599 0.930 . S
C578 O588 1.270 . S
C578 O589 1.248 . S
C579 O590 1.267 . S
C579 O591 1.278 . S
O580 Pr560 2.562 . S
O580 C562 1.254 . S
O581 Pr560 2.490 . S
O581 C562 1.225 . S
O582 Pr560 2.695 . S
O582 Pr561 2.436 . S
O582 C569 1.270 . S
O583 Pr560 2.512 . S
O583 C569 1.248 . S
O584 Pr561 2.438 . S
O584 C570 1.267 . S
O585 Pr560 2.437 . S
O585 C570 1.278 . S
O586 Pr561 2.562 . S
O586 C571 1.254 . S
O587 Pr561 2.490 . S
O587 C571 1.225 . S
O588 Pr560 2.436 . S
O588 Pr561 2.695 . S
O588 C578 1.270 . S
O589 Pr561 2.512 . S
O589 C578 1.248 . S
O590 Pr560 2.438 . S
O590 C579 1.267 . S
O591 Pr561 2.437 . S
O591 C579 1.278 . S
H592 C564 0.929 . S
H593 C565 0.929 . S
H594 C567 0.931 . S
H595 C568 0.930 . S
H596 C573 0.929 . S
H597 C574 0.929 . S
H598 C576 0.931 . S
H599 C577 0.930 . S
Pr600 C602 2.880 . S
Pr600 O620 2.562 . S
Pr600 O621 2.490 . S
Pr600 O622 2.695 . S
Pr600 O623 2.512 . S
Pr600 O625 2.437 . S
Pr600 O628 2.436 . S
Pr600 O630 2.438 . S
Pr601 C611 2.880 . S
Pr601 O622 2.436 . S
Pr601 O624 2.438 . S
Pr601 O626 2.562 1_545 S
Pr601 O627 2.490 . S
Pr601 O628 2.695 . S
Pr601 O629 2.512 . S
Pr601 O631 2.437 . S
C602 Pr600 2.880 . S
C602 C603 1.491 . S
C602 O620 1.254 . S
C602 O621 1.225 . S
C603 C602 1.491 . S
C603 C604 1.392 . S
C603 C608 1.356 . S
C604 C603 1.392 . S
C604 C605 1.368 . S
C604 H632 0.929 . S
C605 C604 1.368 . S
C605 C606 1.386 . S
C605 H633 0.929 . S
C606 C605 1.386 . S
C606 C607 1.373 . S
C607 C606 1.373 . S
C607 C608 1.409 . S
C607 H634 0.931 . S
C608 C603 1.356 . S
C608 C607 1.409 . S
C608 H635 0.930 . S
C609 O622 1.270 . S
C609 O623 1.248 . S
C610 O624 1.267 . S
C610 O625 1.278 . S
C611 Pr601 2.880 . S
C611 C612 1.491 1_545 S
C611 O626 1.254 1_545 S
C611 O627 1.225 . S
C612 C611 1.491 1_565 S
C612 C613 1.392 1_565 S
C612 C617 1.356 . S
C613 C612 1.392 1_545 S
C613 C614 1.368 1_545 S
C613 H636 0.929 . S
C614 C613 1.368 1_565 S
C614 C615 1.386 . S
C614 H637 0.929 . S
C615 C614 1.386 . S
C615 C616 1.373 . S
C616 C615 1.373 . S
C616 C617 1.409 . S
C616 H638 0.931 . S
C617 C612 1.356 . S
C617 C616 1.409 . S
C617 H639 0.930 . S
C618 O628 1.270 . S
C618 O629 1.248 . S
C619 O630 1.267 . S
C619 O631 1.278 . S
O620 Pr600 2.562 . S
O620 C602 1.254 . S
O621 Pr600 2.490 . S
O621 C602 1.225 . S
O622 Pr600 2.695 . S
O622 Pr601 2.436 . S
O622 C609 1.270 . S
O623 Pr600 2.512 . S
O623 C609 1.248 . S
O624 Pr601 2.438 . S
O624 C610 1.267 . S
O625 Pr600 2.437 . S
O625 C610 1.278 . S
O626 Pr601 2.562 1_565 S
O626 C611 1.254 1_565 S
O627 Pr601 2.490 . S
O627 C611 1.225 . S
O628 Pr600 2.436 . S
O628 Pr601 2.695 . S
O628 C618 1.270 . S
O629 Pr601 2.512 . S
O629 C618 1.248 . S
O630 Pr600 2.438 . S
O630 C619 1.267 . S
O631 Pr601 2.437 . S
O631 C619 1.278 . S
H632 C604 0.929 . S
H633 C605 0.929 . S
H634 C607 0.931 . S
H635 C608 0.930 . S
H636 C613 0.929 . S
H637 C614 0.929 . S
H638 C616 0.931 . S
H639 C617 0.930 . S
H640 C646 0.930 . S
H641 C650 0.930 . S
H642 C655 0.929 . S
H643 C653 0.929 . S
H644 C648 0.929 . S
H645 C654 0.929 . S
C646 H640 0.930 . S
C646 C647 1.367 . S
C646 C654 1.378 . S
C647 C646 1.367 . S
C647 C655 1.433 . S
C648 H644 0.929 . S
C648 C650 1.378 . S
C648 C652 1.350 . S
C649 C652 1.463 . S
C649 C654 1.350 . S
C649 N657 1.427 . S
C650 H641 0.930 . S
C650 C648 1.378 . S
C650 C651 1.367 . S
C651 C650 1.367 . S
C651 C653 1.433 . S
C652 C648 1.350 . S
C652 C649 1.463 . S
C652 N656 1.427 . S
C653 H643 0.929 . S
C653 C651 1.433 . S
C653 N656 1.384 . S
C654 H645 0.929 . S
C654 C646 1.378 . S
C654 C649 1.350 . S
C655 H642 0.929 . S
C655 C647 1.433 . S
C655 N657 1.384 . S
N656 C652 1.427 . S
N656 C653 1.384 . S
N657 C649 1.427 . S
N657 C655 1.384 . S
H658 C664 0.930 . S
H659 C668 0.930 . S
H660 C673 0.929 . S
H661 C671 0.929 . S
H662 C666 0.929 . S
H663 C672 0.929 . S
C664 H658 0.930 . S
C664 C665 1.367 . S
C664 C672 1.378 . S
C665 C664 1.367 . S
C665 C673 1.433 . S
C666 H662 0.929 . S
C666 C668 1.378 . S
C666 C670 1.350 . S
C667 C670 1.463 . S
C667 C672 1.350 . S
C667 N675 1.427 . S
C668 H659 0.930 . S
C668 C666 1.378 . S
C668 C669 1.367 . S
C669 C668 1.367 . S
C669 C671 1.433 . S
C670 C666 1.350 . S
C670 C667 1.463 . S
C670 N674 1.427 . S
C671 H661 0.929 . S
C671 C669 1.433 . S
C671 N674 1.384 . S
C672 H663 0.929 . S
C672 C664 1.378 . S
C672 C667 1.350 . S
C673 H660 0.929 . S
C673 C665 1.433 . S
C673 N675 1.384 . S
N674 C670 1.427 . S
N674 C671 1.384 . S
N675 C667 1.427 . S
N675 C673 1.384 . S
H676 C682 0.930 . S
H677 C686 0.930 . S
H678 C691 0.929 . S
H679 C689 0.929 . S
H680 C684 0.929 . S
H681 C690 0.929 . S
C682 H676 0.930 . S
C682 C683 1.367 . S
C682 C690 1.378 . S
C683 C682 1.367 . S
C683 C691 1.433 . S
C684 H680 0.929 . S
C684 C686 1.378 . S
C684 C688 1.350 . S
C685 C688 1.463 1_455 S
C685 C690 1.350 . S
C685 N693 1.427 . S
C686 H677 0.930 . S
C686 C684 1.378 . S
C686 C687 1.367 . S
C687 C686 1.367 . S
C687 C689 1.433 . S
C688 C684 1.350 . S
C688 C685 1.463 1_655 S
C688 N692 1.427 . S
C689 H679 0.929 . S
C689 C687 1.433 . S
C689 N692 1.384 . S
C690 H681 0.929 . S
C690 C682 1.378 . S
C690 C685 1.350 . S
C691 H678 0.929 . S
C691 C683 1.433 . S
C691 N693 1.384 . S
N692 C688 1.427 . S
N692 C689 1.384 . S
N693 C685 1.427 . S
N693 C691 1.384 . S
H694 C700 0.930 . S
H695 C704 0.930 . S
H696 C709 0.929 . S
H697 C707 0.929 . S
H698 C702 0.929 . S
H699 C708 0.929 . S
C700 H694 0.930 . S
C700 C701 1.367 . S
C700 C708 1.378 . S
C701 C700 1.367 . S
C701 C709 1.433 . S
C702 H698 0.929 . S
C702 C704 1.378 . S
C702 C706 1.350 . S
C703 C706 1.463 1_455 S
C703 C708 1.350 . S
C703 N711 1.434 . S
C704 H695 0.930 . S
C704 C702 1.378 . S
C704 C705 1.367 . S
C705 C704 1.367 . S
C705 C707 1.433 . S
C706 C702 1.350 . S
C706 C703 1.463 1_655 S
C706 N710 1.434 . S
C707 H697 0.929 . S
C707 C705 1.433 . S
C707 N710 1.396 . S
C708 H699 0.929 . S
C708 C700 1.378 . S
C708 C703 1.350 . S
C709 H696 0.929 . S
C709 C701 1.433 . S
C709 N711 1.396 . S
N710 C706 1.434 . S
N710 C707 1.396 . S
N711 C703 1.434 . S
N711 C709 1.396 . S
H712 C718 0.930 . S
H713 C722 0.930 . S
H714 C727 0.929 . S
H715 C725 0.929 . S
H716 C720 0.929 . S
H717 C726 0.929 . S
C718 H712 0.930 . S
C718 C719 1.367 . S
C718 C726 1.378 . S
C719 C718 1.367 . S
C719 C727 1.433 . S
C720 H716 0.929 . S
C720 C722 1.378 . S
C720 C724 1.350 . S
C721 C724 1.463 . S
C721 C726 1.350 . S
C721 N729 1.427 . S
C722 H713 0.930 . S
C722 C720 1.378 . S
C722 C723 1.367 . S
C723 C722 1.367 . S
C723 C725 1.433 . S
C724 C720 1.350 . S
C724 C721 1.463 . S
C724 N728 1.427 . S
C725 H715 0.929 . S
C725 C723 1.433 . S
C725 N728 1.384 . S
C726 H717 0.929 . S
C726 C718 1.378 . S
C726 C721 1.350 . S
C727 H714 0.929 . S
C727 C719 1.433 . S
C727 N729 1.384 . S
N728 C724 1.427 . S
N728 C725 1.384 . S
N729 C721 1.427 . S
N729 C727 1.384 . S
H730 C736 0.930 . S
H731 C740 0.930 . S
H732 C745 0.929 . S
H733 C743 0.929 . S
H734 C738 0.929 . S
H735 C744 0.929 . S
C736 H730 0.930 . S
C736 C737 1.367 . S
C736 C744 1.378 . S
C737 C736 1.367 . S
C737 C745 1.433 . S
C738 H734 0.929 . S
C738 C740 1.378 . S
C738 C742 1.350 . S
C739 C742 1.463 . S
C739 C744 1.350 . S
C739 N747 1.427 . S
C740 H731 0.930 . S
C740 C738 1.378 . S
C740 C741 1.367 . S
C741 C740 1.367 . S
C741 C743 1.433 . S
C742 C738 1.350 . S
C742 C739 1.463 . S
C742 N746 1.427 . S
C743 H733 0.929 . S
C743 C741 1.433 . S
C743 N746 1.384 . S
C744 H735 0.929 . S
C744 C736 1.378 . S
C744 C739 1.350 . S
C745 H732 0.929 . S
C745 C737 1.433 . S
C745 N747 1.384 . S
N746 C742 1.427 . S
N746 C743 1.384 . S
N747 C739 1.427 . S
N747 C745 1.384 . S
H748 C754 0.930 . S
H749 C758 0.930 . S
H750 C763 0.929 . S
H751 C761 0.929 . S
H752 C756 0.929 . S
H753 C762 0.929 . S
C754 H748 0.930 . S
C754 C755 1.367 . S
C754 C762 1.378 . S
C755 C754 1.367 . S
C755 C763 1.433 . S
C756 H752 0.929 . S
C756 C758 1.378 . S
C756 C760 1.350 . S
C757 C760 1.463 1_455 S
C757 C762 1.350 . S
C757 N765 1.427 . S
C758 H749 0.930 . S
C758 C756 1.378 . S
C758 C759 1.367 . S
C759 C758 1.367 . S
C759 C761 1.433 . S
C760 C756 1.350 . S
C760 C757 1.463 1_655 S
C760 N764 1.427 . S
C761 H751 0.929 . S
C761 C759 1.433 . S
C761 N764 1.384 . S
C762 H753 0.929 . S
C762 C754 1.378 . S
C762 C757 1.350 . S
C763 H750 0.929 . S
C763 C755 1.433 . S
C763 N765 1.384 . S
N764 C760 1.427 . S
N764 C761 1.384 . S
N765 C757 1.427 . S
N765 C763 1.384 . S
H766 C772 0.930 1_655 S
H767 C776 0.930 1_455 S
H768 C781 0.929 . S
H769 C779 0.929 . S
H770 C774 0.929 . S
H771 C780 0.929 . S
C772 H766 0.930 1_455 S
C772 C773 1.367 . S
C772 C780 1.378 1_455 S
C773 C772 1.367 . S
C773 C781 1.433 . S
C774 H770 0.929 . S
C774 C776 1.378 1_455 S
C774 C778 1.350 1_455 S
C775 C778 1.463 1_455 S
C775 C780 1.350 1_455 S
C775 N783 1.427 . S
C776 H767 0.930 1_655 S
C776 C774 1.378 1_655 S
C776 C777 1.367 . S
C777 C776 1.367 . S
C777 C779 1.433 . S
C778 C774 1.350 1_655 S
C778 C775 1.463 1_655 S
C778 N782 1.427 . S
C779 H769 0.929 . S
C779 C777 1.433 . S
C779 N782 1.384 . S
C780 H771 0.929 . S
C780 C772 1.378 1_655 S
C780 C775 1.350 1_655 S
C781 H768 0.929 . S
C781 C773 1.433 . S
C781 N783 1.384 . S
N782 C778 1.427 . S
N782 C779 1.384 . S
N783 C775 1.427 . S
N783 C781 1.384 . S
H784 C790 0.930 . S
H785 C794 0.930 . S
H786 C799 0.929 . S
H787 C797 0.929 . S
H788 C792 0.929 . S
H789 C798 0.929 . S
C790 H784 0.930 . S
C790 C791 1.367 1_556 S
C790 C798 1.378 . S
C791 C790 1.367 1_554 S
C791 C799 1.433 . S
C792 H788 0.929 . S
C792 C794 1.378 . S
C792 C796 1.350 1_554 S
C793 C796 1.463 1_564 S
C793 C798 1.350 1_554 S
C793 N801 1.426 1_565 S
C794 H785 0.930 . S
C794 C792 1.378 . S
C794 C795 1.367 1_554 S
C795 C794 1.367 1_556 S
C795 C797 1.433 . S
C796 C792 1.350 1_556 S
C796 C793 1.463 1_546 S
C796 N800 1.426 1_545 S
C797 H787 0.929 . S
C797 C795 1.433 . S
C797 N800 1.382 1_545 S
C798 H789 0.929 . S
C798 C790 1.378 . S
C798 C793 1.350 1_556 S
C799 H786 0.929 . S
C799 C791 1.433 . S
C799 N801 1.382 1_565 S
N800 C796 1.426 1_565 S
N800 C797 1.382 1_565 S
N801 C793 1.426 1_545 S
N801 C799 1.382 1_545 S
H802 C808 0.930 . S
H803 C812 0.930 . S
H804 C817 0.929 . S
H805 C815 0.929 . S
H806 C810 0.929 . S
H807 C816 0.929 . S
C808 H802 0.930 . S
C808 C809 1.367 . S
C808 C816 1.378 . S
C809 C808 1.367 . S
C809 C817 1.433 . S
C810 H806 0.929 . S
C810 C812 1.378 . S
C810 C814 1.350 . S
C811 C814 1.463 . S
C811 C816 1.350 . S
C811 N819 1.427 . S
C812 H803 0.930 . S
C812 C810 1.378 . S
C812 C813 1.367 . S
C813 C812 1.367 . S
C813 C815 1.433 . S
C814 C810 1.350 . S
C814 C811 1.463 . S
C814 N818 1.427 . S
C815 H805 0.929 . S
C815 C813 1.433 . S
C815 N818 1.384 . S
C816 H807 0.929 . S
C816 C808 1.378 . S
C816 C811 1.350 . S
C817 H804 0.929 . S
C817 C809 1.433 . S
C817 N819 1.384 . S
N818 C814 1.427 . S
N818 C815 1.384 . S
N819 C811 1.427 . S
N819 C817 1.384 . S
H820 C826 0.930 . S
H821 C830 0.930 . S
H822 C835 0.929 . S
H823 C833 0.929 . S
H824 C828 0.929 . S
H825 C834 0.929 . S
C826 H820 0.930 . S
C826 C827 1.367 1_565 S
C826 C834 1.378 . S
C827 C826 1.367 1_545 S
C827 C835 1.433 . S
C828 H824 0.929 . S
C828 C830 1.378 . S
C828 C832 1.350 1_545 S
C829 C832 1.463 1_445 S
C829 C834 1.350 1_545 S
C829 N837 1.427 . S
C830 H821 0.930 . S
C830 C828 1.378 . S
C830 C831 1.367 1_545 S
C831 C830 1.367 1_565 S
C831 C833 1.433 . S
C832 C828 1.350 1_565 S
C832 C829 1.463 1_665 S
C832 N836 1.427 . S
C833 H823 0.929 . S
C833 C831 1.433 . S
C833 N836 1.384 . S
C834 H825 0.929 . S
C834 C826 1.378 . S
C834 C829 1.350 1_565 S
C835 H822 0.929 . S
C835 C827 1.433 . S
C835 N837 1.384 . S
N836 C832 1.427 . S
N836 C833 1.384 . S
N837 C829 1.427 . S
N837 C835 1.384 . S
H838 C844 0.930 . S
H839 C848 0.930 . S
H840 C853 0.929 . S
H841 C851 0.929 . S
H842 C846 0.929 . S
H843 C852 0.929 . S
C844 H838 0.930 . S
C844 C845 1.367 . S
C844 C852 1.378 . S
C845 C844 1.367 . S
C845 C853 1.433 . S
C846 H842 0.929 . S
C846 C848 1.378 . S
C846 C850 1.350 . S
C847 C850 1.463 . S
C847 C852 1.350 . S
C847 N855 1.427 . S
C848 H839 0.930 . S
C848 C846 1.378 . S
C848 C849 1.367 . S
C849 C848 1.367 . S
C849 C851 1.433 . S
C850 C846 1.350 . S
C850 C847 1.463 . S
C850 N854 1.427 . S
C851 H841 0.929 . S
C851 C849 1.433 . S
C851 N854 1.384 . S
C852 H843 0.929 . S
C852 C844 1.378 . S
C852 C847 1.350 . S
C853 H840 0.929 . S
C853 C845 1.433 . S
C853 N855 1.384 . S
N854 C850 1.427 . S
N854 C851 1.384 . S
N855 C847 1.427 . S
N855 C853 1.384 . S
H856 C862 0.930 . S
H857 C866 0.930 . S
H858 C871 0.929 . S
H859 C869 0.929 . S
H860 C864 0.929 . S
H861 C870 0.929 . S
C862 H856 0.930 . S
C862 C863 1.367 . S
C862 C870 1.378 . S
C863 C862 1.367 . S
C863 C871 1.433 . S
C864 H860 0.929 . S
C864 C866 1.378 . S
C864 C868 1.350 . S
C865 C868 1.463 . S
C865 C870 1.350 . S
C865 N873 1.427 . S
C866 H857 0.930 . S
C866 C864 1.378 . S
C866 C867 1.367 . S
C867 C866 1.367 . S
C867 C869 1.433 . S
C868 C864 1.350 . S
C868 C865 1.463 . S
C868 N872 1.427 . S
C869 H859 0.929 . S
C869 C867 1.433 . S
C869 N872 1.384 . S
C870 H861 0.929 . S
C870 C862 1.378 . S
C870 C865 1.350 . S
C871 H858 0.929 . S
C871 C863 1.433 . S
C871 N873 1.384 . S
N872 C868 1.427 . S
N872 C869 1.384 . S
N873 C865 1.427 . S
N873 C871 1.384 . S
H874 C880 0.930 . S
H875 C884 0.930 . S
H876 C889 0.929 . S
H877 C887 0.929 . S
H878 C882 0.929 . S
H879 C888 0.929 . S
C880 H874 0.930 . S
C880 C881 1.367 . S
C880 C888 1.378 . S
C881 C880 1.367 . S
C881 C889 1.433 . S
C882 H878 0.929 . S
C882 C884 1.378 . S
C882 C886 1.350 . S
C883 C886 1.463 . S
C883 C888 1.350 . S
C883 N891 1.427 . S
C884 H875 0.930 . S
C884 C882 1.378 . S
C884 C885 1.367 . S
C885 C884 1.367 . S
C885 C887 1.433 . S
C886 C882 1.350 . S
C886 C883 1.463 . S
C886 N890 1.427 . S
C887 H877 0.929 . S
C887 C885 1.433 . S
C887 N890 1.384 . S
C888 H879 0.929 . S
C888 C880 1.378 . S
C888 C883 1.350 . S
C889 H876 0.929 . S
C889 C881 1.433 . S
C889 N891 1.384 . S
N890 C886 1.427 . S
N890 C887 1.384 . S
N891 C883 1.427 . S
N891 C889 1.384 . S
H892 C898 0.930 . S
H893 C902 0.930 . S
H894 C907 0.929 . S
H895 C905 0.929 . S
H896 C900 0.929 . S
H897 C906 0.929 . S
C898 H892 0.930 . S
C898 C899 1.367 . S
C898 C906 1.378 . S
C899 C898 1.367 . S
C899 C907 1.433 . S
C900 H896 0.929 . S
C900 C902 1.378 . S
C900 C904 1.350 . S
C901 C904 1.463 1_455 S
C901 C906 1.350 . S
C901 N909 1.427 . S
C902 H893 0.930 . S
C902 C900 1.378 . S
C902 C903 1.367 . S
C903 C902 1.367 . S
C903 C905 1.433 . S
C904 C900 1.350 . S
C904 C901 1.463 1_655 S
C904 N908 1.427 . S
C905 H895 0.929 . S
C905 C903 1.433 . S
C905 N908 1.384 . S
C906 H897 0.929 . S
C906 C898 1.378 . S
C906 C901 1.350 . S
C907 H894 0.929 . S
C907 C899 1.433 . S
C907 N909 1.384 . S
N908 C904 1.427 . S
N908 C905 1.384 . S
N909 C901 1.427 . S
N909 C907 1.384 . S
H910 C916 0.930 . S
H911 C920 0.930 . S
H912 C925 0.929 . S
H913 C923 0.929 . S
H914 C918 0.929 . S
H915 C924 0.929 . S
C916 H910 0.930 . S
C916 C917 1.367 . S
C916 C924 1.378 . S
C917 C916 1.367 . S
C917 C925 1.433 1_554 S
C918 H914 0.929 . S
C918 C920 1.378 . S
C918 C922 1.350 . S
C919 C922 1.463 1_554 S
C919 C924 1.350 . S
C919 N927 1.427 1_554 S
C920 H911 0.930 . S
C920 C918 1.378 . S
C920 C921 1.367 . S
C921 C920 1.367 . S
C921 C923 1.433 1_556 S
C922 C918 1.350 . S
C922 C919 1.463 1_556 S
C922 N926 1.427 1_556 S
C923 H913 0.929 . S
C923 C921 1.433 1_554 S
C923 N926 1.384 . S
C924 H915 0.929 . S
C924 C916 1.378 . S
C924 C919 1.350 . S
C925 H912 0.929 . S
C925 C917 1.433 1_556 S
C925 N927 1.384 . S
N926 C922 1.427 1_554 S
N926 C923 1.384 . S
N927 C919 1.427 1_556 S
N927 C925 1.384 . S
H928 C934 0.930 . S
H929 C938 0.930 . S
H930 C943 0.929 . S
H931 C941 0.929 . S
H932 C936 0.929 . S
H933 C942 0.929 . S
C934 H928 0.930 . S
C934 C935 1.367 . S
C934 C942 1.378 . S
C935 C934 1.367 . S
C935 C943 1.433 . S
C936 H932 0.929 . S
C936 C938 1.378 . S
C936 C940 1.350 . S
C937 C940 1.463 . S
C937 C942 1.350 . S
C937 N945 1.427 . S
C938 H929 0.930 . S
C938 C936 1.378 . S
C938 C939 1.367 . S
C939 C938 1.367 . S
C939 C941 1.433 . S
C940 C936 1.350 . S
C940 C937 1.463 . S
C940 N944 1.427 . S
C941 H931 0.929 . S
C941 C939 1.433 . S
C941 N944 1.384 . S
C942 H933 0.929 . S
C942 C934 1.378 . S
C942 C937 1.350 . S
C943 H930 0.929 . S
C943 C935 1.433 . S
C943 N945 1.384 . S
N944 C940 1.427 . S
N944 C941 1.384 . S
N945 C937 1.427 . S
N945 C943 1.384 . S
H946 C952 0.930 . S
H947 C956 0.930 . S
H948 C961 0.929 . S
H949 C959 0.929 . S
H950 C954 0.929 . S
H951 C960 0.929 . S
C952 H946 0.930 . S
C952 C953 1.367 . S
C952 C960 1.378 . S
C953 C952 1.367 . S
C953 C961 1.433 . S
C954 H950 0.929 . S
C954 C956 1.378 . S
C954 C958 1.350 . S
C955 C958 1.463 . S
C955 C960 1.350 . S
C955 N963 1.427 . S
C956 H947 0.930 . S
C956 C954 1.378 . S
C956 C957 1.367 . S
C957 C956 1.367 . S
C957 C959 1.433 . S
C958 C954 1.350 . S
C958 C955 1.463 . S
C958 N962 1.427 . S
C959 H949 0.929 . S
C959 C957 1.433 . S
C959 N962 1.384 . S
C960 H951 0.929 . S
C960 C952 1.378 . S
C960 C955 1.350 . S
C961 H948 0.929 . S
C961 C953 1.433 . S
C961 N963 1.384 . S
N962 C958 1.427 . S
N962 C959 1.384 . S
N963 C955 1.427 . S
N963 C961 1.384 . S
H964 C970 0.930 . S
H965 C974 0.930 . S
H966 C979 0.929 . S
H967 C977 0.929 . S
H968 C972 0.929 . S
H969 C978 0.929 . S
C970 H964 0.930 . S
C970 C971 1.367 . S
C970 C978 1.378 . S
C971 C970 1.367 . S
C971 C979 1.433 . S
C972 H968 0.929 . S
C972 C974 1.378 . S
C972 C976 1.350 . S
C973 C976 1.463 . S
C973 C978 1.350 . S
C973 N981 1.427 . S
C974 H965 0.930 . S
C974 C972 1.378 . S
C974 C975 1.367 . S
C975 C974 1.367 . S
C975 C977 1.433 . S
C976 C972 1.350 . S
C976 C973 1.463 . S
C976 N980 1.427 . S
C977 H967 0.929 . S
C977 C975 1.433 . S
C977 N980 1.384 . S
C978 H969 0.929 . S
C978 C970 1.378 . S
C978 C973 1.350 . S
C979 H966 0.929 . S
C979 C971 1.433 . S
C979 N981 1.384 . S
N980 C976 1.427 . S
N980 C977 1.384 . S
N981 C973 1.427 . S
N981 C979 1.384 . S
H982 C988 0.930 . S
H983 C992 0.930 . S
H984 C997 0.929 . S
H985 C995 0.929 . S
H986 C990 0.929 . S
H987 C996 0.929 . S
C988 H982 0.930 . S
C988 C989 1.367 . S
C988 C996 1.378 . S
C989 C988 1.367 . S
C989 C997 1.433 . S
C990 H986 0.929 . S
C990 C992 1.378 . S
C990 C994 1.350 . S
C991 C994 1.463 . S
C991 C996 1.350 . S
C991 N999 1.427 . S
C992 H983 0.930 . S
C992 C990 1.378 . S
C992 C993 1.367 . S
C993 C992 1.367 . S
C993 C995 1.433 . S
C994 C990 1.350 . S
C994 C991 1.463 . S
C994 N998 1.427 . S
C995 H985 0.929 . S
C995 C993 1.433 . S
C995 N998 1.384 . S
C996 H987 0.929 . S
C996 C988 1.378 . S
C996 C991 1.350 . S
C997 H984 0.929 . S
C997 C989 1.433 . S
C997 N999 1.384 . S
N998 C994 1.427 . S
N998 C995 1.384 . S
N999 C991 1.427 . S
N999 C997 1.384 . S
H1000 C1006 0.930 . S
H1001 C1010 0.930 . S
H1002 C1015 0.929 . S
H1003 C1013 0.929 . S
H1004 C1008 0.929 . S
H1005 C1014 0.929 . S
C1006 H1000 0.930 . S
C1006 C1007 1.367 . S
C1006 C1014 1.378 . S
C1007 C1006 1.367 . S
C1007 C1015 1.433 . S
C1008 H1004 0.929 . S
C1008 C1010 1.378 . S
C1008 C1012 1.350 . S
C1009 C1012 1.463 . S
C1009 C1014 1.350 . S
C1009 N1017 1.427 . S
C1010 H1001 0.930 . S
C1010 C1008 1.378 . S
C1010 C1011 1.367 . S
C1011 C1010 1.367 . S
C1011 C1013 1.433 . S
C1012 C1008 1.350 . S
C1012 C1009 1.463 . S
C1012 N1016 1.427 . S
C1013 H1003 0.929 . S
C1013 C1011 1.433 . S
C1013 N1016 1.384 . S
C1014 H1005 0.929 . S
C1014 C1006 1.378 . S
C1014 C1009 1.350 . S
C1015 H1002 0.929 . S
C1015 C1007 1.433 . S
C1015 N1017 1.384 . S
N1016 C1012 1.427 . S
N1016 C1013 1.384 . S
N1017 C1009 1.427 . S
N1017 C1015 1.384 . S
H1018 C1024 0.930 . S
H1019 C1028 0.930 . S
H1020 C1033 0.929 . S
H1021 C1031 0.929 . S
H1022 C1026 0.929 . S
H1023 C1032 0.929 . S
C1024 H1018 0.930 . S
C1024 C1025 1.367 . S
C1024 C1032 1.378 . S
C1025 C1024 1.367 . S
C1025 C1033 1.433 . S
C1026 H1022 0.929 . S
C1026 C1028 1.378 . S
C1026 C1030 1.350 . S
C1027 C1030 1.463 . S
C1027 C1032 1.350 . S
C1027 N1035 1.427 . S
C1028 H1019 0.930 . S
C1028 C1026 1.378 . S
C1028 C1029 1.367 . S
C1029 C1028 1.367 . S
C1029 C1031 1.433 . S
C1030 C1026 1.350 . S
C1030 C1027 1.463 . S
C1030 N1034 1.427 . S
C1031 H1021 0.929 . S
C1031 C1029 1.433 . S
C1031 N1034 1.384 . S
C1032 H1023 0.929 . S
C1032 C1024 1.378 . S
C1032 C1027 1.350 . S
C1033 H1020 0.929 . S
C1033 C1025 1.433 . S
C1033 N1035 1.384 . S
N1034 C1030 1.427 . S
N1034 C1031 1.384 . S
N1035 C1027 1.427 . S
N1035 C1033 1.384 . S
H1036 C1042 0.930 . S
H1037 C1046 0.930 . S
H1038 C1051 0.929 . S
H1039 C1049 0.929 . S
H1040 C1044 0.929 . S
H1041 C1050 0.929 . S
C1042 H1036 0.930 . S
C1042 C1043 1.367 . S
C1042 C1050 1.378 . S
C1043 C1042 1.367 . S
C1043 C1051 1.433 . S
C1044 H1040 0.929 . S
C1044 C1046 1.378 . S
C1044 C1048 1.350 . S
C1045 C1048 1.463 . S
C1045 C1050 1.350 . S
C1045 N1053 1.427 . S
C1046 H1037 0.930 . S
C1046 C1044 1.378 . S
C1046 C1047 1.367 . S
C1047 C1046 1.367 . S
C1047 C1049 1.433 . S
C1048 C1044 1.350 . S
C1048 C1045 1.463 . S
C1048 N1052 1.427 . S
C1049 H1039 0.929 . S
C1049 C1047 1.433 . S
C1049 N1052 1.384 . S
C1050 H1041 0.929 . S
C1050 C1042 1.378 . S
C1050 C1045 1.350 . S
C1051 H1038 0.929 . S
C1051 C1043 1.433 . S
C1051 N1053 1.384 . S
N1052 C1048 1.427 . S
N1052 C1049 1.384 . S
N1053 C1045 1.427 . S
N1053 C1051 1.384 . S
H1054 C1060 0.930 . S
H1055 C1064 0.930 . S
H1056 C1069 0.929 . S
H1057 C1067 0.929 . S
H1058 C1062 0.929 . S
H1059 C1068 0.929 . S
C1060 H1054 0.930 . S
C1060 C1061 1.367 . S
C1060 C1068 1.378 . S
C1061 C1060 1.367 . S
C1061 C1069 1.433 . S
C1062 H1058 0.929 . S
C1062 C1064 1.378 . S
C1062 C1066 1.350 . S
C1063 C1066 1.463 . S
C1063 C1068 1.350 . S
C1063 N1071 1.427 . S
C1064 H1055 0.930 . S
C1064 C1062 1.378 . S
C1064 C1065 1.367 . S
C1065 C1064 1.367 . S
C1065 C1067 1.433 . S
C1066 C1062 1.350 . S
C1066 C1063 1.463 . S
C1066 N1070 1.427 . S
C1067 H1057 0.929 . S
C1067 C1065 1.433 . S
C1067 N1070 1.384 . S
C1068 H1059 0.929 . S
C1068 C1060 1.378 . S
C1068 C1063 1.350 . S
C1069 H1056 0.929 . S
C1069 C1061 1.433 . S
C1069 N1071 1.384 . S
N1070 C1066 1.427 . S
N1070 C1067 1.384 . S
N1071 C1063 1.427 . S
N1071 C1069 1.384 . S
H1072 C1078 0.930 . S
H1073 C1082 0.930 . S
H1074 C1087 0.929 . S
H1075 C1085 0.929 . S
H1076 C1080 0.929 . S
H1077 C1086 0.929 . S
C1078 H1072 0.930 . S
C1078 C1079 1.367 . S
C1078 C1086 1.378 . S
C1079 C1078 1.367 . S
C1079 C1087 1.433 . S
C1080 H1076 0.929 . S
C1080 C1082 1.378 . S
C1080 C1084 1.350 . S
C1081 C1084 1.463 . S
C1081 C1086 1.350 . S
C1081 N1089 1.427 . S
C1082 H1073 0.930 . S
C1082 C1080 1.378 . S
C1082 C1083 1.367 . S
C1083 C1082 1.367 . S
C1083 C1085 1.433 . S
C1084 C1080 1.350 . S
C1084 C1081 1.463 . S
C1084 N1088 1.427 . S
C1085 H1075 0.929 . S
C1085 C1083 1.433 . S
C1085 N1088 1.384 . S
C1086 H1077 0.929 . S
C1086 C1078 1.378 . S
C1086 C1081 1.350 . S
C1087 H1074 0.929 . S
C1087 C1079 1.433 . S
C1087 N1089 1.384 . S
N1088 C1084 1.427 . S
N1088 C1085 1.384 . S
N1089 C1081 1.427 . S
N1089 C1087 1.384 . S
H1090 C1096 0.930 . S
H1091 C1100 0.930 . S
H1092 C1105 0.929 . S
H1093 C1103 0.929 . S
H1094 C1098 0.929 . S
H1095 C1104 0.929 . S
C1096 H1090 0.930 . S
C1096 C1097 1.367 . S
C1096 C1104 1.378 . S
C1097 C1096 1.367 . S
C1097 C1105 1.433 . S
C1098 H1094 0.929 . S
C1098 C1100 1.378 . S
C1098 C1102 1.350 . S
C1099 C1102 1.463 . S
C1099 C1104 1.350 . S
C1099 N1107 1.427 . S
C1100 H1091 0.930 . S
C1100 C1098 1.378 . S
C1100 C1101 1.367 . S
C1101 C1100 1.367 . S
C1101 C1103 1.433 . S
C1102 C1098 1.350 . S
C1102 C1099 1.463 . S
C1102 N1106 1.427 . S
C1103 H1093 0.929 . S
C1103 C1101 1.433 . S
C1103 N1106 1.384 . S
C1104 H1095 0.929 . S
C1104 C1096 1.378 . S
C1104 C1099 1.350 . S
C1105 H1092 0.929 . S
C1105 C1097 1.433 . S
C1105 N1107 1.384 . S
N1106 C1102 1.427 . S
N1106 C1103 1.384 . S
N1107 C1099 1.427 . S
N1107 C1105 1.384 . S
H1108 C1114 0.930 . S
H1109 C1118 0.930 . S
H1110 C1123 0.929 . S
H1111 C1121 0.929 . S
H1112 C1116 0.929 . S
H1113 C1122 0.929 . S
C1114 H1108 0.930 . S
C1114 C1115 1.367 . S
C1114 C1122 1.378 . S
C1115 C1114 1.367 . S
C1115 C1123 1.433 . S
C1116 H1112 0.929 . S
C1116 C1118 1.378 . S
C1116 C1120 1.350 . S
C1117 C1120 1.463 . S
C1117 C1122 1.350 . S
C1117 N1125 1.427 . S
C1118 H1109 0.930 . S
C1118 C1116 1.378 . S
C1118 C1119 1.367 . S
C1119 C1118 1.367 . S
C1119 C1121 1.433 . S
C1120 C1116 1.350 . S
C1120 C1117 1.463 . S
C1120 N1124 1.427 . S
C1121 H1111 0.929 . S
C1121 C1119 1.433 . S
C1121 N1124 1.384 . S
C1122 H1113 0.929 . S
C1122 C1114 1.378 . S
C1122 C1117 1.350 . S
C1123 H1110 0.929 . S
C1123 C1115 1.433 . S
C1123 N1125 1.384 . S
N1124 C1120 1.427 . S
N1124 C1121 1.384 . S
N1125 C1117 1.427 . S
N1125 C1123 1.384 . S
H1126 C1132 0.930 . S
H1127 C1136 0.930 . S
H1128 C1141 0.929 . S
H1129 C1139 0.929 . S
H1130 C1134 0.929 . S
H1131 C1140 0.929 . S
C1132 H1126 0.930 . S
C1132 C1133 1.367 . S
C1132 C1140 1.378 . S
C1133 C1132 1.367 . S
C1133 C1141 1.433 . S
C1134 H1130 0.929 . S
C1134 C1136 1.378 . S
C1134 C1138 1.350 . S
C1135 C1138 1.463 . S
C1135 C1140 1.350 . S
C1135 N1143 1.427 . S
C1136 H1127 0.930 . S
C1136 C1134 1.378 . S
C1136 C1137 1.367 . S
C1137 C1136 1.367 . S
C1137 C1139 1.433 . S
C1138 C1134 1.350 . S
C1138 C1135 1.463 . S
C1138 N1142 1.427 . S
C1139 H1129 0.929 . S
C1139 C1137 1.433 . S
C1139 N1142 1.384 . S
C1140 H1131 0.929 . S
C1140 C1132 1.378 . S
C1140 C1135 1.350 . S
C1141 H1128 0.929 . S
C1141 C1133 1.433 . S
C1141 N1143 1.384 . S
N1142 C1138 1.427 . S
N1142 C1139 1.384 . S
N1143 C1135 1.427 . S
N1143 C1141 1.384 . S
H1144 C1150 0.930 . S
H1145 C1154 0.930 . S
H1146 C1159 0.929 . S
H1147 C1157 0.929 . S
H1148 C1152 0.929 . S
H1149 C1158 0.929 . S
C1150 H1144 0.930 . S
C1150 C1151 1.367 . S
C1150 C1158 1.378 . S
C1151 C1150 1.367 . S
C1151 C1159 1.433 . S
C1152 H1148 0.929 . S
C1152 C1154 1.378 . S
C1152 C1156 1.350 . S
C1153 C1156 1.463 . S
C1153 C1158 1.350 . S
C1153 N1161 1.427 . S
C1154 H1145 0.930 . S
C1154 C1152 1.378 . S
C1154 C1155 1.367 . S
C1155 C1154 1.367 . S
C1155 C1157 1.433 . S
C1156 C1152 1.350 . S
C1156 C1153 1.463 . S
C1156 N1160 1.427 . S
C1157 H1147 0.929 . S
C1157 C1155 1.433 . S
C1157 N1160 1.384 . S
C1158 H1149 0.929 . S
C1158 C1150 1.378 . S
C1158 C1153 1.350 . S
C1159 H1146 0.929 . S
C1159 C1151 1.433 . S
C1159 N1161 1.384 . S
N1160 C1156 1.427 . S
N1160 C1157 1.384 . S
N1161 C1153 1.427 . S
N1161 C1159 1.384 . S
H1162 C1168 0.930 . S
H1163 C1172 0.930 . S
H1164 C1177 0.929 . S
H1165 C1175 0.929 . S
H1166 C1170 0.929 . S
H1167 C1176 0.929 . S
C1168 H1162 0.930 . S
C1168 C1169 1.367 . S
C1168 C1176 1.378 . S
C1169 C1168 1.367 . S
C1169 C1177 1.433 . S
C1170 H1166 0.929 . S
C1170 C1172 1.378 . S
C1170 C1174 1.350 . S
C1171 C1174 1.463 . S
C1171 C1176 1.350 . S
C1171 N1179 1.427 . S
C1172 H1163 0.930 . S
C1172 C1170 1.378 . S
C1172 C1173 1.367 . S
C1173 C1172 1.367 . S
C1173 C1175 1.433 . S
C1174 C1170 1.350 . S
C1174 C1171 1.463 . S
C1174 N1178 1.427 . S
C1175 H1165 0.929 . S
C1175 C1173 1.433 . S
C1175 N1178 1.384 . S
C1176 H1167 0.929 . S
C1176 C1168 1.378 . S
C1176 C1171 1.350 . S
C1177 H1164 0.929 . S
C1177 C1169 1.433 . S
C1177 N1179 1.384 . S
N1178 C1174 1.427 . S
N1178 C1175 1.384 . S
N1179 C1171 1.427 . S
N1179 C1177 1.384 . S
H1180 C1186 0.930 . S
H1181 C1190 0.930 . S
H1182 C1195 0.929 . S
H1183 C1193 0.929 . S
H1184 C1188 0.929 . S
H1185 C1194 0.929 . S
C1186 H1180 0.930 . S
C1186 C1187 1.367 . S
C1186 C1194 1.378 . S
C1187 C1186 1.367 . S
C1187 C1195 1.433 . S
C1188 H1184 0.929 . S
C1188 C1190 1.378 . S
C1188 C1192 1.350 . S
C1189 C1192 1.463 . S
C1189 C1194 1.350 . S
C1189 N1197 1.427 . S
C1190 H1181 0.930 . S
C1190 C1188 1.378 . S
C1190 C1191 1.367 . S
C1191 C1190 1.367 . S
C1191 C1193 1.433 . S
C1192 C1188 1.350 . S
C1192 C1189 1.463 . S
C1192 N1196 1.427 . S
C1193 H1183 0.929 . S
C1193 C1191 1.433 . S
C1193 N1196 1.384 . S
C1194 H1185 0.929 . S
C1194 C1186 1.378 . S
C1194 C1189 1.350 . S
C1195 H1182 0.929 . S
C1195 C1187 1.433 . S
C1195 N1197 1.384 . S
N1196 C1192 1.427 . S
N1196 C1193 1.384 . S
N1197 C1189 1.427 . S
N1197 C1195 1.384 . S
H1198 C1204 0.930 . S
H1199 C1208 0.930 . S
H1200 C1213 0.930 1_545 S
H1201 C1211 0.929 . S
H1202 C1206 0.929 . S
H1203 C1212 0.929 . S
C1204 H1198 0.930 . S
C1204 C1205 1.367 . S
C1204 C1212 1.378 . S
C1205 C1204 1.367 . S
C1205 C1213 1.433 . S
C1206 H1202 0.929 . S
C1206 C1208 1.378 . S
C1206 C1210 1.350 . S
C1207 C1210 1.463 . S
C1207 C1212 1.350 . S
C1207 N1215 1.427 . S
C1208 H1199 0.930 . S
C1208 C1206 1.378 . S
C1208 C1209 1.367 . S
C1209 C1208 1.367 . S
C1209 C1211 1.433 . S
C1210 C1206 1.350 . S
C1210 C1207 1.463 . S
C1210 N1214 1.427 . S
C1211 H1201 0.929 . S
C1211 C1209 1.433 . S
C1211 N1214 1.384 . S
C1212 H1203 0.929 . S
C1212 C1204 1.378 . S
C1212 C1207 1.350 . S
C1213 H1200 0.930 1_565 S
C1213 C1205 1.433 . S
C1213 N1215 1.384 . S
N1214 C1210 1.427 . S
N1214 C1211 1.384 . S
N1215 C1207 1.427 . S
N1215 C1213 1.384 . S
H1216 C1222 0.930 . S
H1217 C1226 0.930 . S
H1218 C1231 0.929 . S
H1219 C1229 0.929 . S
H1220 C1224 0.929 . S
H1221 C1230 0.929 . S
C1222 H1216 0.930 . S
C1222 C1223 1.367 . S
C1222 C1230 1.378 1_554 S
C1223 C1222 1.367 . S
C1223 C1231 1.433 1_554 S
C1224 H1220 0.929 . S
C1224 C1226 1.378 . S
C1224 C1228 1.350 . S
C1225 C1228 1.463 . S
C1225 C1230 1.350 . S
C1225 N1233 1.427 . S
C1226 H1217 0.930 . S
C1226 C1224 1.378 . S
C1226 C1227 1.367 . S
C1227 C1226 1.367 . S
C1227 C1229 1.433 . S
C1228 C1224 1.350 . S
C1228 C1225 1.463 . S
C1228 N1232 1.427 . S
C1229 H1219 0.929 . S
C1229 C1227 1.433 . S
C1229 N1232 1.384 . S
C1230 H1221 0.929 . S
C1230 C1222 1.378 1_556 S
C1230 C1225 1.350 . S
C1231 H1218 0.929 . S
C1231 C1223 1.433 1_556 S
C1231 N1233 1.384 . S
N1232 C1228 1.427 . S
N1232 C1229 1.384 . S
N1233 C1225 1.427 . S
N1233 C1231 1.384 . S
H1234 C1240 0.930 . S
H1235 C1244 0.930 . S
H1236 C1249 0.929 . S
H1237 C1247 0.929 . S
H1238 C1242 0.929 . S
H1239 C1248 0.929 . S
C1240 H1234 0.930 . S
C1240 C1241 1.367 . S
C1240 C1248 1.378 . S
C1241 C1240 1.367 . S
C1241 C1249 1.433 . S
C1242 H1238 0.929 . S
C1242 C1244 1.378 . S
C1242 C1246 1.350 . S
C1243 C1246 1.463 . S
C1243 C1248 1.350 . S
C1243 N1251 1.427 . S
C1244 H1235 0.930 . S
C1244 C1242 1.378 . S
C1244 C1245 1.367 . S
C1245 C1244 1.367 . S
C1245 C1247 1.433 . S
C1246 C1242 1.350 . S
C1246 C1243 1.463 . S
C1246 N1250 1.427 . S
C1247 H1237 0.929 . S
C1247 C1245 1.433 . S
C1247 N1250 1.384 . S
C1248 H1239 0.929 . S
C1248 C1240 1.378 . S
C1248 C1243 1.350 . S
C1249 H1236 0.929 . S
C1249 C1241 1.433 . S
C1249 N1251 1.384 . S
N1250 C1246 1.427 . S
N1250 C1247 1.384 . S
N1251 C1243 1.427 . S
N1251 C1249 1.384 . S
H1252 C1258 0.930 . S
H1253 C1262 0.930 . S
H1254 C1267 0.929 . S
H1255 C1265 0.929 . S
H1256 C1260 0.929 . S
H1257 C1266 0.929 . S
C1258 H1252 0.930 . S
C1258 C1259 1.367 . S
C1258 C1266 1.378 . S
C1259 C1258 1.367 . S
C1259 C1267 1.433 . S
C1260 H1256 0.929 . S
C1260 C1262 1.378 . S
C1260 C1264 1.350 . S
C1261 C1264 1.463 . S
C1261 C1266 1.350 . S
C1261 N1269 1.427 . S
C1262 H1253 0.930 . S
C1262 C1260 1.378 . S
C1262 C1263 1.367 . S
C1263 C1262 1.367 . S
C1263 C1265 1.433 . S
C1264 C1260 1.350 . S
C1264 C1261 1.463 . S
C1264 N1268 1.427 . S
C1265 H1255 0.929 . S
C1265 C1263 1.433 . S
C1265 N1268 1.384 . S
C1266 H1257 0.929 . S
C1266 C1258 1.378 . S
C1266 C1261 1.350 . S
C1267 H1254 0.929 . S
C1267 C1259 1.433 . S
C1267 N1269 1.384 . S
N1268 C1264 1.427 . S
N1268 C1265 1.384 . S
N1269 C1261 1.427 . S
N1269 C1267 1.384 . S
H1270 C1276 0.930 . S
H1271 C1280 0.930 . S
H1272 C1285 0.929 . S
H1273 C1283 0.929 . S
H1274 C1278 0.929 . S
H1275 C1284 0.929 . S
C1276 H1270 0.930 . S
C1276 C1277 1.367 . S
C1276 C1284 1.378 . S
C1277 C1276 1.367 . S
C1277 C1285 1.433 . S
C1278 H1274 0.929 . S
C1278 C1280 1.378 . S
C1278 C1282 1.350 . S
C1279 C1282 1.463 . S
C1279 C1284 1.350 . S
C1279 N1287 1.427 . S
C1280 H1271 0.930 . S
C1280 C1278 1.378 . S
C1280 C1281 1.367 . S
C1281 C1280 1.367 . S
C1281 C1283 1.433 . S
C1282 C1278 1.350 . S
C1282 C1279 1.463 . S
C1282 N1286 1.427 . S
C1283 H1273 0.929 . S
C1283 C1281 1.433 . S
C1283 N1286 1.384 . S
C1284 H1275 0.929 . S
C1284 C1276 1.378 . S
C1284 C1279 1.350 . S
C1285 H1272 0.929 . S
C1285 C1277 1.433 . S
C1285 N1287 1.384 . S
N1286 C1282 1.427 . S
N1286 C1283 1.384 . S
N1287 C1279 1.427 . S
N1287 C1285 1.384 . S
H1288 C1294 0.930 . S
H1289 C1298 0.930 . S
H1290 C1303 0.929 . S
H1291 C1301 0.929 . S
H1292 C1296 0.929 . S
H1293 C1302 0.929 . S
C1294 H1288 0.930 . S
C1294 C1295 1.367 . S
C1294 C1302 1.378 . S
C1295 C1294 1.367 . S
C1295 C1303 1.433 . S
C1296 H1292 0.929 . S
C1296 C1298 1.378 . S
C1296 C1300 1.350 . S
C1297 C1300 1.463 . S
C1297 C1302 1.350 . S
C1297 N1305 1.427 . S
C1298 H1289 0.930 . S
C1298 C1296 1.378 . S
C1298 C1299 1.367 1_554 S
C1299 C1298 1.367 1_556 S
C1299 C1301 1.433 . S
C1300 C1296 1.350 . S
C1300 C1297 1.463 . S
C1300 N1304 1.427 . S
C1301 H1291 0.929 . S
C1301 C1299 1.433 . S
C1301 N1304 1.384 1_556 S
C1302 H1293 0.929 . S
C1302 C1294 1.378 . S
C1302 C1297 1.350 . S
C1303 H1290 0.929 . S
C1303 C1295 1.433 . S
C1303 N1305 1.384 . S
N1304 C1300 1.427 . S
N1304 C1301 1.384 1_554 S
N1305 C1297 1.427 . S
N1305 C1303 1.384 . S
H1306 C1312 0.930 . S
H1307 C1316 0.930 . S
H1308 C1321 0.929 . S
H1309 C1319 0.929 . S
H1310 C1314 0.929 . S
H1311 C1320 0.929 . S
C1312 H1306 0.930 . S
C1312 C1313 1.367 . S
C1312 C1320 1.378 . S
C1313 C1312 1.367 . S
C1313 C1321 1.433 . S
C1314 H1310 0.929 . S
C1314 C1316 1.378 . S
C1314 C1318 1.350 . S
C1315 C1318 1.463 . S
C1315 C1320 1.350 . S
C1315 N1323 1.427 . S
C1316 H1307 0.930 . S
C1316 C1314 1.378 . S
C1316 C1317 1.367 . S
C1317 C1316 1.367 . S
C1317 C1319 1.433 . S
C1318 C1314 1.350 . S
C1318 C1315 1.463 . S
C1318 N1322 1.427 . S
C1319 H1309 0.929 . S
C1319 C1317 1.433 . S
C1319 N1322 1.384 . S
C1320 H1311 0.929 . S
C1320 C1312 1.378 . S
C1320 C1315 1.350 . S
C1321 H1308 0.929 . S
C1321 C1313 1.433 . S
C1321 N1323 1.384 . S
N1322 C1318 1.427 . S
N1322 C1319 1.384 . S
N1323 C1315 1.427 . S
N1323 C1321 1.384 . S
H1324 C1330 0.930 . S
H1325 C1334 0.930 . S
H1326 C1339 0.929 . S
H1327 C1337 0.929 . S
H1328 C1332 0.929 . S
H1329 C1338 0.929 . S
C1330 H1324 0.930 . S
C1330 C1331 1.367 . S
C1330 C1338 1.378 . S
C1331 C1330 1.367 . S
C1331 C1339 1.433 . S
C1332 H1328 0.929 . S
C1332 C1334 1.378 . S
C1332 C1336 1.350 . S
C1333 C1336 1.463 . S
C1333 C1338 1.350 . S
C1333 N1341 1.427 . S
C1334 H1325 0.930 . S
C1334 C1332 1.378 . S
C1334 C1335 1.367 . S
C1335 C1334 1.367 . S
C1335 C1337 1.433 . S
C1336 C1332 1.350 . S
C1336 C1333 1.463 . S
C1336 N1340 1.427 . S
C1337 H1327 0.929 . S
C1337 C1335 1.433 . S
C1337 N1340 1.384 . S
C1338 H1329 0.929 . S
C1338 C1330 1.378 . S
C1338 C1333 1.350 . S
C1339 H1326 0.929 . S
C1339 C1331 1.433 . S
C1339 N1341 1.384 . S
N1340 C1336 1.427 . S
N1340 C1337 1.384 . S
N1341 C1333 1.427 . S
N1341 C1339 1.384 . S
H1342 C1348 0.930 . S
H1343 C1352 0.930 . S
H1344 C1357 0.929 . S
H1345 C1355 0.929 . S
H1346 C1350 0.929 . S
H1347 C1356 0.929 . S
C1348 H1342 0.930 . S
C1348 C1349 1.367 . S
C1348 C1356 1.378 . S
C1349 C1348 1.367 . S
C1349 C1357 1.433 . S
C1350 H1346 0.929 . S
C1350 C1352 1.378 . S
C1350 C1354 1.350 . S
C1351 C1354 1.463 . S
C1351 C1356 1.350 . S
C1351 N1359 1.427 . S
C1352 H1343 0.930 . S
C1352 C1350 1.378 . S
C1352 C1353 1.367 . S
C1353 C1352 1.367 . S
C1353 C1355 1.433 . S
C1354 C1350 1.350 . S
C1354 C1351 1.463 . S
C1354 N1358 1.427 . S
C1355 H1345 0.929 . S
C1355 C1353 1.433 . S
C1355 N1358 1.384 . S
C1356 H1347 0.929 . S
C1356 C1348 1.378 . S
C1356 C1351 1.350 . S
C1357 H1344 0.929 . S
C1357 C1349 1.433 . S
C1357 N1359 1.384 . S
N1358 C1354 1.427 . S
N1358 C1355 1.384 . S
N1359 C1351 1.427 . S
N1359 C1357 1.384 . S
H1360 C1366 0.930 . S
H1361 C1370 0.930 . S
H1362 C1375 0.929 . S
H1363 C1373 0.929 . S
H1364 C1368 0.929 . S
H1365 C1374 0.929 . S
C1366 H1360 0.930 . S
C1366 C1367 1.367 . S
C1366 C1374 1.378 . S
C1367 C1366 1.367 . S
C1367 C1375 1.433 . S
C1368 H1364 0.929 . S
C1368 C1370 1.378 . S
C1368 C1372 1.350 . S
C1369 C1372 1.463 . S
C1369 C1374 1.350 . S
C1369 N1377 1.427 . S
C1370 H1361 0.930 . S
C1370 C1368 1.378 . S
C1370 C1371 1.367 . S
C1371 C1370 1.367 . S
C1371 C1373 1.433 . S
C1372 C1368 1.350 . S
C1372 C1369 1.463 . S
C1372 N1376 1.427 . S
C1373 H1363 0.929 . S
C1373 C1371 1.433 . S
C1373 N1376 1.384 . S
C1374 H1365 0.929 . S
C1374 C1366 1.378 . S
C1374 C1369 1.350 . S
C1375 H1362 0.929 . S
C1375 C1367 1.433 . S
C1375 N1377 1.384 . S
N1376 C1372 1.427 . S
N1376 C1373 1.384 . S
N1377 C1369 1.427 . S
N1377 C1375 1.384 . S
H1378 C1384 0.930 . S
H1379 C1388 0.930 . S
H1380 C1393 0.929 . S
H1381 C1391 0.929 . S
H1382 C1386 0.929 . S
H1383 C1392 0.929 . S
C1384 H1378 0.930 . S
C1384 C1385 1.367 . S
C1384 C1392 1.378 . S
C1385 C1384 1.367 . S
C1385 C1393 1.433 . S
C1386 H1382 0.929 . S
C1386 C1388 1.378 . S
C1386 C1390 1.350 . S
C1387 C1390 1.463 . S
C1387 C1392 1.350 . S
C1387 N1395 1.427 . S
C1388 H1379 0.930 . S
C1388 C1386 1.378 . S
C1388 C1389 1.385 . S
C1389 C1388 1.385 . S
C1389 C1391 1.427 1_565 S
C1390 C1386 1.350 . S
C1390 C1387 1.463 . S
C1390 N1394 1.427 . S
C1391 H1381 0.929 . S
C1391 C1389 1.427 1_545 S
C1391 N1394 1.384 1_545 S
C1392 H1383 0.929 . S
C1392 C1384 1.378 . S
C1392 C1387 1.350 . S
C1393 H1380 0.929 . S
C1393 C1385 1.433 . S
C1393 N1395 1.384 . S
N1394 C1390 1.427 . S
N1394 C1391 1.384 1_565 S
N1395 C1387 1.427 . S
N1395 C1393 1.384 . S
H1396 C1402 0.930 . S
H1397 C1406 0.930 . S
H1398 C1411 0.929 . S
H1399 C1409 0.929 . S
H1400 C1404 0.929 . S
H1401 C1410 0.929 . S
C1402 H1396 0.930 . S
C1402 C1403 1.367 . S
C1402 C1410 1.378 . S
C1403 C1402 1.367 . S
C1403 C1411 1.433 . S
C1404 H1400 0.929 . S
C1404 C1406 1.378 . S
C1404 C1408 1.350 . S
C1405 C1408 1.463 . S
C1405 C1410 1.350 . S
C1405 N1413 1.427 . S
C1406 H1397 0.930 . S
C1406 C1404 1.378 . S
C1406 C1407 1.367 1_556 S
C1407 C1406 1.367 1_554 S
C1407 C1409 1.433 . S
C1408 C1404 1.350 . S
C1408 C1405 1.463 . S
C1408 N1412 1.427 . S
C1409 H1399 0.929 . S
C1409 C1407 1.433 . S
C1409 N1412 1.384 1_554 S
C1410 H1401 0.929 . S
C1410 C1402 1.378 . S
C1410 C1405 1.350 . S
C1411 H1398 0.929 . S
C1411 C1403 1.433 . S
C1411 N1413 1.384 . S
N1412 C1408 1.427 . S
N1412 C1409 1.384 1_556 S
N1413 C1405 1.427 . S
N1413 C1411 1.384 . S
H1414 C1420 0.930 . S
H1415 C1424 0.930 . S
H1416 C1429 0.929 . S
H1417 C1427 0.929 . S
H1418 C1422 0.929 . S
H1419 C1428 0.929 . S
C1420 H1414 0.930 . S
C1420 C1421 1.367 . S
C1420 C1428 1.378 1_565 S
C1421 C1420 1.367 . S
C1421 C1429 1.433 1_565 S
C1422 H1418 0.929 . S
C1422 C1424 1.378 . S
C1422 C1426 1.350 . S
C1423 C1426 1.463 . S
C1423 C1428 1.350 . S
C1423 N1431 1.427 . S
C1424 H1415 0.930 . S
C1424 C1422 1.378 . S
C1424 C1425 1.367 . S
C1425 C1424 1.367 . S
C1425 C1427 1.433 . S
C1426 C1422 1.350 . S
C1426 C1423 1.463 . S
C1426 N1430 1.427 . S
C1427 H1417 0.929 . S
C1427 C1425 1.433 . S
C1427 N1430 1.384 . S
C1428 H1419 0.929 . S
C1428 C1420 1.378 1_545 S
C1428 C1423 1.350 . S
C1429 H1416 0.929 . S
C1429 C1421 1.433 1_545 S
C1429 N1431 1.384 . S
N1430 C1426 1.427 . S
N1430 C1427 1.384 . S
N1431 C1423 1.427 . S
N1431 C1429 1.384 . S
H1432 C1438 0.930 . S
H1433 C1442 0.930 . S
H1434 C1447 0.929 . S
H1435 C1445 0.929 . S
H1436 C1440 0.929 . S
H1437 C1446 0.929 . S
C1438 H1432 0.930 . S
C1438 C1439 1.367 . S
C1438 C1446 1.378 . S
C1439 C1438 1.367 . S
C1439 C1447 1.433 . S
C1440 H1436 0.929 . S
C1440 C1442 1.378 . S
C1440 C1444 1.350 . S
C1441 C1444 1.463 . S
C1441 C1446 1.350 . S
C1441 N1449 1.427 . S
C1442 H1433 0.930 . S
C1442 C1440 1.378 . S
C1442 C1443 1.367 . S
C1443 C1442 1.367 . S
C1443 C1445 1.433 . S
C1444 C1440 1.350 . S
C1444 C1441 1.463 . S
C1444 N1448 1.427 . S
C1445 H1435 0.929 . S
C1445 C1443 1.433 . S
C1445 N1448 1.384 . S
C1446 H1437 0.929 . S
C1446 C1438 1.378 . S
C1446 C1441 1.350 . S
C1447 H1434 0.929 . S
C1447 C1439 1.433 . S
C1447 N1449 1.384 . S
N1448 C1444 1.427 . S
N1448 C1445 1.384 . S
N1449 C1441 1.427 . S
N1449 C1447 1.384 . S
H1450 C1456 0.930 . S
H1451 C1460 0.930 . S
H1452 C1465 0.929 . S
H1453 C1463 0.929 . S
H1454 C1458 0.929 1_565 S
H1455 C1464 0.929 . S
C1456 H1450 0.930 . S
C1456 C1457 1.367 . S
C1456 C1464 1.378 . S
C1457 C1456 1.367 . S
C1457 C1465 1.433 . S
C1458 H1454 0.929 1_545 S
C1458 C1460 1.378 1_545 S
C1458 C1462 1.350 . S
C1459 C1462 1.463 . S
C1459 C1464 1.350 . S
C1459 N1467 1.427 . S
C1460 H1451 0.930 . S
C1460 C1458 1.378 1_565 S
C1460 C1461 1.372 . S
C1461 C1460 1.372 . S
C1461 C1463 1.421 1_565 S
C1462 C1458 1.350 . S
C1462 C1459 1.463 . S
C1462 N1466 1.427 . S
C1463 H1453 0.929 . S
C1463 C1461 1.421 1_545 S
C1463 N1466 1.384 . S
C1464 H1455 0.929 . S
C1464 C1456 1.378 . S
C1464 C1459 1.350 . S
C1465 H1452 0.929 . S
C1465 C1457 1.433 . S
C1465 N1467 1.384 . S
N1466 C1462 1.427 . S
N1466 C1463 1.384 . S
N1467 C1459 1.427 . S
N1467 C1465 1.384 . S
H1468 C1474 0.930 . S
H1469 C1478 0.930 . S
H1470 C1483 0.929 . S
H1471 C1481 0.929 . S
H1472 C1476 0.929 . S
H1473 C1482 0.929 . S
C1474 H1468 0.930 . S
C1474 C1475 1.367 . S
C1474 C1482 1.378 . S
C1475 C1474 1.367 . S
C1475 C1483 1.433 . S
C1476 H1472 0.929 . S
C1476 C1478 1.378 . S
C1476 C1480 1.350 . S
C1477 C1480 1.463 . S
C1477 C1482 1.350 . S
C1477 N1485 1.427 . S
C1478 H1469 0.930 . S
C1478 C1476 1.378 . S
C1478 C1479 1.367 1_554 S
C1479 C1478 1.367 1_556 S
C1479 C1481 1.433 . S
C1480 C1476 1.350 . S
C1480 C1477 1.463 . S
C1480 N1484 1.427 . S
C1481 H1471 0.929 . S
C1481 C1479 1.433 . S
C1481 N1484 1.384 1_556 S
C1482 H1473 0.929 . S
C1482 C1474 1.378 . S
C1482 C1477 1.350 . S
C1483 H1470 0.929 . S
C1483 C1475 1.433 . S
C1483 N1485 1.384 . S
N1484 C1480 1.427 . S
N1484 C1481 1.384 1_554 S
N1485 C1477 1.427 . S
N1485 C1483 1.384 . S
H1486 C1492 0.930 . S
H1487 C1496 0.930 . S
H1488 C1501 0.929 . S
H1489 C1499 0.929 . S
H1490 C1494 0.928 . S
H1491 C1500 0.929 . S
C1492 H1486 0.930 . S
C1492 C1493 1.367 . S
C1492 C1500 1.378 . S
C1493 C1492 1.367 . S
C1493 C1501 1.433 . S
C1494 H1490 0.928 . S
C1494 C1496 1.378 1_565 S
C1494 C1498 1.350 . S
C1495 C1498 1.463 . S
C1495 C1500 1.350 . S
C1495 N1503 1.427 . S
C1496 H1487 0.930 . S
C1496 C1494 1.378 1_545 S
C1496 C1497 1.370 . S
C1497 C1496 1.370 . S
C1497 C1499 1.425 1_545 S
C1498 C1494 1.350 . S
C1498 C1495 1.463 . S
C1498 N1502 1.427 . S
C1499 H1489 0.929 . S
C1499 C1497 1.425 1_565 S
C1499 N1502 1.384 . S
C1500 H1491 0.929 . S
C1500 C1492 1.378 . S
C1500 C1495 1.350 . S
C1501 H1488 0.929 . S
C1501 C1493 1.433 . S
C1501 N1503 1.384 . S
N1502 C1498 1.427 . S
N1502 C1499 1.384 . S
N1503 C1495 1.427 . S
N1503 C1501 1.384 . S
C647 C9 2.630 . S
C651 C409 2.628 . S
C665 C49 2.630 . S
C669 C449 2.632 . S
C683 C89 2.627 . S
C687 C329 2.630 . S
C701 C369 2.631 . S
C705 C129 2.629 . S
C719 C178 2.631 . S
C723 C578 2.631 . S
C737 C618 2.627 . S
C741 C218 2.630 . S
C755 C498 2.625 . S
C759 C258 2.625 . S
C773 C298 2.625 . S
C777 C538 2.625 . S
C791 C15 0.997 . S
C795 C166 0.997 . S
C809 C55 0.975 . S
C813 C526 0.975 . S
C827 C95 0.965 . S
C831 C246 0.965 . S
C845 C135 0.977 . S
C849 C606 0.977 . S
C863 C206 0.994 . S
C867 C375 0.994 . S
C881 C455 0.977 . S
C885 C286 0.977 . S
C899 C486 0.994 . S
C903 C335 0.994 . S
C917 C415 0.963 . S
C921 C566 0.963 . S
C935 C6 1.093 . S
C939 C289 1.192 . S
C953 C46 1.083 . S
C957 C489 1.191 . S
C971 C86 1.096 . S
C975 C209 1.205 . S
C989 C126 1.090 . S
C993 C569 1.191 . S
C1007 C138 1.191 . S
C1011 C175 1.084 . S
C1025 C215 1.080 . S
C1029 C338 1.193 . S
C1043 C255 1.111 . S
C1047 C58 1.203 . S
C1061 C418 1.207 . S
C1065 C295 1.109 . S
C1079 C326 1.094 . S
C1083 C609 1.192 1_565 S
C1097 C169 1.191 . S
C1101 C366 1.090 . S
C1115 C529 1.192 1_545 S
C1119 C406 1.080 . S
C1133 C249 1.203 . S
C1137 C446 1.111 . S
C1151 C495 1.091 . S
C1155 C458 1.191 1_545 S
C1169 C535 1.109 . S
C1173 C18 1.207 . S
C1187 C378 1.207 1_565 S
C1191 C575 1.109 . S
C1205 C615 1.094 . S
C1209 C98 1.192 . S
C1223 C19 4.049 . S
C1227 C370 4.077 . S
C1241 C410 4.078 . S
C1245 C59 4.049 . S
C1259 C99 4.047 . S
C1263 C450 4.076 . S
C1277 C330 4.076 . S
C1281 C139 4.047 . S
C1295 C539 4.081 . S
C1299 C170 4.053 . S
C1313 C579 4.079 . S
C1317 C210 4.051 . S
C1331 C619 4.082 . S
C1335 C250 4.053 . S
C1349 C499 4.079 . S
C1353 C290 4.051 . S
C1367 C50 4.079 . S
C1371 C339 4.051 . S
C1385 C90 4.076 . S
C1389 C379 4.037 1_565 S
C1403 C130 4.081 . S
C1407 C419 4.053 . S
C1421 C459 4.053 . S
C1425 C10 4.082 . S
C1439 C219 4.077 . S
C1443 C490 4.048 . S
C1457 C259 4.082 . S
C1461 C530 4.059 . S
C1475 C299 4.081 . S
C1479 C570 4.052 . S
C1493 C179 4.081 . S
C1497 C610 4.057 . S
