# Generated by pormake.
# Topology smc, (6)-cn, num edge types: 1
# Building blocks:
#     Node 0, Type 0, BuildingBlock: KUMBOL_clean_sbu_0, # of connection points: 6
#     Node 1, Type 0, BuildingBlock: KUMBOL_clean_sbu_0, # of connection points: 6
#     Node 2, Type 0, BuildingBlock: KUMBOL_clean_sbu_0, # of connection points: 6
#     Node 3, Type 0, BuildingBlock: KUMBOL_clean_sbu_0, # of connection points: 6
#     Node 4, Type 0, BuildingBlock: KUMBOL_clean_sbu_0, # of connection points: 6
#     Node 5, Type 0, BuildingBlock: KUMBOL_clean_sbu_0, # of connection points: 6
#     Node 6, Type 0, BuildingBlock: KUMBOL_clean_sbu_0, # of connection points: 6
#     Node 7, Type 0, BuildingBlock: KUMBOL_clean_sbu_0, # of connection points: 6
#     Node 8, Type 0, BuildingBlock: KUMBOL_clean_sbu_0, # of connection points: 6
#     Edge 9, Type (0, 0), BuildingBlock: MIFKUJ_clean_linker_0, # of connection points: 2
#     Edge 10, Type (0, 0), BuildingBlock: MIFKUJ_clean_linker_0, # of connection points: 2
#     Edge 11, Type (0, 0), BuildingBlock: MIFKUJ_clean_linker_0, # of connection points: 2
#     Edge 12, Type (0, 0), BuildingBlock: MIFKUJ_clean_linker_0, # of connection points: 2
#     Edge 13, Type (0, 0), BuildingBlock: MIFKUJ_clean_linker_0, # of connection points: 2
#     Edge 14, Type (0, 0), BuildingBlock: MIFKUJ_clean_linker_0, # of connection points: 2
#     Edge 15, Type (0, 0), BuildingBlock: MIFKUJ_clean_linker_0, # of connection points: 2
#     Edge 16, Type (0, 0), BuildingBlock: MIFKUJ_clean_linker_0, # of connection points: 2
#     Edge 17, Type (0, 0), BuildingBlock: MIFKUJ_clean_linker_0, # of connection points: 2
#     Edge 18, Type (0, 0), BuildingBlock: MIFKUJ_clean_linker_0, # of connection points: 2
#     Edge 19, Type (0, 0), BuildingBlock: MIFKUJ_clean_linker_0, # of connection points: 2
#     Edge 20, Type (0, 0), BuildingBlock: MIFKUJ_clean_linker_0, # of connection points: 2
#     Edge 21, Type (0, 0), BuildingBlock: MIFKUJ_clean_linker_0, # of connection points: 2
#     Edge 22, Type (0, 0), BuildingBlock: MIFKUJ_clean_linker_0, # of connection points: 2
#     Edge 23, Type (0, 0), BuildingBlock: MIFKUJ_clean_linker_0, # of connection points: 2
#     Edge 24, Type (0, 0), BuildingBlock: MIFKUJ_clean_linker_0, # of connection points: 2
#     Edge 25, Type (0, 0), BuildingBlock: MIFKUJ_clean_linker_0, # of connection points: 2
#     Edge 26, Type (0, 0), BuildingBlock: MIFKUJ_clean_linker_0, # of connection points: 2
#     Edge 27, Type (0, 0), BuildingBlock: MIFKUJ_clean_linker_0, # of connection points: 2
#     Edge 28, Type (0, 0), BuildingBlock: MIFKUJ_clean_linker_0, # of connection points: 2
#     Edge 29, Type (0, 0), BuildingBlock: MIFKUJ_clean_linker_0, # of connection points: 2
#     Edge 30, Type (0, 0), BuildingBlock: MIFKUJ_clean_linker_0, # of connection points: 2
#     Edge 31, Type (0, 0), BuildingBlock: MIFKUJ_clean_linker_0, # of connection points: 2
#     Edge 32, Type (0, 0), BuildingBlock: MIFKUJ_clean_linker_0, # of connection points: 2
#     Edge 33, Type (0, 0), BuildingBlock: MIFKUJ_clean_linker_0, # of connection points: 2
#     Edge 34, Type (0, 0), BuildingBlock: MIFKUJ_clean_linker_0, # of connection points: 2
#     Edge 35, Type (0, 0), BuildingBlock: MIFKUJ_clean_linker_0, # of connection points: 2
# Relax obj value: 0.109
# Max RMSD: 0.278
# Mean RMSD: 0.278
data_MOF--net-smc--node1-KUMBOL_clean_sbu_0--edge1-MIFKUJ_clean_linker_0
_symmetry_space_group_name_H-M    P1
_symmetry_Int_Tables_number       1
_symmetry_cell_setting            triclinic
loop_
_symmetry_equiv_pos_as_xyz
'x, y, z'
_cell_length_a     46.589185
_cell_length_b     46.662723
_cell_length_c     53.094803
_cell_angle_alpha  89.837054
_cell_angle_beta   90.00506
_cell_angle_gamma 119.94709
loop_
_atom_site_label
_atom_site_type_symbol
_atom_site_fract_x
_atom_site_fract_y
_atom_site_fract_z
_atom_type_partial_charge
Gd0 Gd 1.00713 0.41693 0.01804 0.0
Gd1 Gd 0.06034 0.50162 0.9954 0.0
C2 C 0.02893 0.57627 0.01691 0.0
C3 C 0.02192 0.59535 0.97602 0.0
C4 C 0.0355 0.55135 0.9789 0.0
C5 C 0.03571 0.55328 1.00502 0.0
C6 C 0.02845 0.57238 0.96419 0.0
C7 C 0.02257 0.59756 1.00227 0.0
C8 C 0.02907 0.57748 0.0432 0.0
C9 C 0.03496 0.5556 0.05706 0.0
N10 N 0.04247 0.53273 0.01881 0.0
C11 C 0.04176 0.5334 0.04455 0.0
H12 H 0.04614 0.51691 0.05582 0.0
C13 C 0.04551 0.52916 0.94218 0.0
N14 N 0.04267 0.52944 0.96785 0.0
C15 C 0.03792 0.54887 0.9269 0.0
C16 C 0.02913 0.57044 0.93794 0.0
H17 H 0.05457 0.51434 0.93333 0.0
H18 H 1.01842 0.61607 0.01104 0.0
H19 H 0.0403 0.38499 0.97841 0.0
H20 H 0.02475 0.5952 0.05303 0.0
H21 H 0.03465 0.55607 0.07744 0.0
H22 H 1.01687 0.61193 0.96501 0.0
H23 H 0.96994 0.4051 0.0743 0.0
H24 H 0.08353 0.33919 0.02213 0.0
H25 H 0.07206 0.35586 0.98074 0.0
H26 H 0.04712 0.34204 0.10609 0.0
H27 H 0.03978 0.54808 0.90662 0.0
H28 H 0.02385 0.58616 0.92606 0.0
H29 H 0.07453 0.33461 0.06903 0.0
H30 H 0.97198 0.38354 0.11641 0.0
N31 N 0.03473 0.38606 0.01812 0.0
C32 C 0.06958 0.35204 0.02121 0.0
C33 C 0.06306 0.36131 0.99783 0.0
C34 C 0.05687 0.35831 0.04306 0.0
C35 C 0.03901 0.37526 0.04081 0.0
C36 C 0.04499 0.37786 0.9966 0.0
N37 N 1.00526 0.39423 0.05822 0.0
C38 C 0.02362 0.37932 0.06156 0.0
C39 C 0.98682 0.3824 0.10119 0.0
C40 C 1.00732 0.36896 0.10531 0.0
C41 C 0.98567 0.39453 0.0773 0.0
C42 C 0.02559 0.36673 0.08526 0.0
H43 H 1.00814 0.35956 0.12382 0.0
O44 O 0.95341 0.39202 0.02183 0.0
O45 O 1.00877 0.46333 1.00451 0.0
O46 O 0.07717 0.49563 0.03562 0.0
O47 O 0.03711 0.44399 0.05159 0.0
O48 O 0.98039 0.44075 0.0361 0.0
O49 O 0.97567 0.37029 0.99895 0.0
O50 O 0.10423 0.52769 0.97218 0.0
O51 O 0.05912 0.45545 0.00709 0.0
O52 O 1.0122 0.41739 0.97574 0.0
O53 O 0.02607 0.47052 0.96311 0.0
O54 O 0.08446 0.47764 0.9743 0.0
O55 O 0.10189 0.5492 0.00757 0.0
C56 C 0.98951 0.46493 0.02051 0.0
C57 C 0.04489 0.35148 0.08795 0.0
C58 C 0.06052 0.34728 0.06687 0.0
C59 C 0.94833 0.36641 0.00879 0.0
C60 C 0.92555 0.33386 0.02016 0.0
C61 C 0.93803 0.31744 0.03475 0.0
C62 C 0.89097 0.31948 0.01708 0.0
C63 C 0.86896 0.28895 0.0287 0.0
C64 C 0.91648 0.28723 0.04617 0.0
C65 C 0.88228 0.27308 0.04322 0.0
C66 C 0.06407 0.47306 0.05415 0.0
C67 C 0.078 0.45429 0.99035 0.0
C68 C 0.11795 0.55397 0.9864 0.0
C69 C 0.13048 0.58658 0.97343 0.0
C70 C 0.12441 0.58741 0.94754 0.0
C71 C 0.14944 0.61705 0.98627 0.0
C72 C 0.16075 0.64755 0.97341 0.0
C73 C 0.13494 0.61728 0.93505 0.0
C74 C 0.15276 0.64704 0.94783 0.0
C75 C 1.01423 0.43858 0.95831 0.0
H76 H 0.96443 0.32794 0.03734 0.0
H77 H 0.88127 0.3323 1.00603 0.0
H78 H 0.92634 0.27469 0.05734 0.0
H79 H 0.86625 0.24939 0.05205 0.0
H80 H 0.11174 0.56496 0.93664 0.0
H81 H 0.15534 0.61704 1.006 0.0
H82 H 0.12971 0.61736 0.91519 0.0
H83 H 0.16133 0.66988 0.93739 0.0
Gd84 Gd 0.64181 0.60444 0.00982 0.0
Gd85 Gd 0.55282 0.56508 0.99761 0.0
C86 C 0.48902 0.46456 0.03476 0.0
C87 C 0.46081 0.4298 0.99882 0.0
C88 C 0.50282 0.48757 0.99256 0.0
C89 C 0.50746 0.49158 0.01842 0.0
C90 C 0.4797 0.45643 0.98254 0.0
C91 C 0.4652 0.43397 0.02487 0.0
C92 C 0.49519 0.46897 0.06062 0.0
C93 C 0.52026 0.49916 0.06955 0.0
N94 N 0.5306 0.52154 0.02755 0.0
C95 C 0.5379 0.5252 0.05272 0.0
H96 H 0.5577 0.54771 0.06022 0.0
C97 C 0.5164 0.51079 0.95168 0.0
N98 N 0.52121 0.51384 0.97719 0.0
C99 C 0.49432 0.48031 0.94093 0.0
C100 C 0.4759 0.45298 0.95641 0.0
H101 H 0.52868 0.53215 0.93945 0.0
H102 H 0.45024 0.41327 0.0372 0.0
H103 H 0.66153 0.66129 0.96405 0.0
H104 H 0.48116 0.44914 0.07383 0.0
H105 H 0.52598 0.50247 0.08946 0.0
H106 H 0.44268 0.40587 0.99146 0.0
H107 H 0.65983 0.58886 0.06768 0.0
H108 H 0.72343 0.75697 0.99538 0.0
H109 H 0.6935 0.72167 0.95906 0.0
H110 H 0.73842 0.73379 0.08075 0.0
H111 H 0.49086 0.47815 0.92072 0.0
H112 H 0.45844 0.42948 0.94804 0.0
H113 H 0.73925 0.76139 0.04098 0.0
H114 H 0.69088 0.61994 0.10523 0.0
N115 N 0.67148 0.66206 1.00325 0.0
C116 C 0.70873 0.73046 0.99787 0.0
C117 C 0.69208 0.71059 0.97728 0.0
C118 C 0.70726 0.7158 0.02119 0.0
C119 C 0.68846 0.68105 0.02325 0.0
C120 C 0.67387 0.67625 0.98024 0.0
N121 N 0.67125 0.63201 0.04639 0.0
C122 C 0.68858 0.66555 0.04546 0.0
C123 C 0.69027 0.63306 0.08859 0.0
C124 C 0.70706 0.66758 0.08828 0.0
C125 C 0.67277 0.61554 0.06725 0.0
C126 C 0.70677 0.68429 0.06644 0.0
H127 H 0.72065 0.68108 0.10482 0.0
O128 O 0.67264 0.58192 0.01501 0.0
O129 O 0.59511 0.55676 1.00279 0.0
O130 O 0.56429 0.59283 0.03615 0.0
O131 O 0.62141 0.61688 0.0436 0.0
O132 O 0.62458 0.55666 0.0316 0.0
O133 O 0.68174 0.61486 0.98358 0.0
O134 O 0.52161 0.57721 0.97509 0.0
O135 O 0.59925 0.61315 1.00198 0.0
O136 O 0.6323 0.60174 0.96807 0.0
O137 O 0.57854 0.55781 0.96315 0.0
O138 O 0.56956 0.60891 0.97182 0.0
O139 O 0.50623 0.55883 0.01292 0.0
C140 C 0.59811 0.53855 0.01889 0.0
C141 C 0.72443 0.71895 0.06481 0.0
C142 C 0.7248 0.73467 0.04219 0.0
C143 C 0.69196 0.59752 0.99607 0.0
C144 C 0.72794 0.61329 1.00087 0.0
C145 C 0.7459 0.6466 0.008 0.0
C146 C 0.74453 0.59502 0.9985 0.0
C147 C 0.77898 0.6101 1.00309 0.0
C148 C 0.77969 0.66151 0.01291 0.0
C149 C 0.79609 0.64352 0.01059 0.0
C150 C 0.59146 0.61041 0.0503 0.0
C151 C 0.5957 0.62937 0.98416 0.0
C152 C 0.49766 0.56635 0.99157 0.0
C153 C 0.46351 0.54379 0.98187 0.0
C154 C 0.45921 0.5318 0.95704 0.0
C155 C 0.43489 0.53521 0.99659 0.0
C156 C 0.4029 0.51388 0.9867 0.0
C157 C 0.42783 0.5101 0.94765 0.0
C158 C 0.3999 0.50101 0.96239 0.0
C159 C 0.60861 0.57864 0.95416 0.0
H160 H 0.73383 0.66114 0.00977 0.0
H161 H 0.73072 0.56937 0.99272 0.0
H162 H 0.79326 0.68717 0.01863 0.0
H163 H 0.82224 0.65582 0.01503 0.0
H164 H 0.48007 0.53948 0.94452 0.0
H165 H 0.43744 0.5452 0.01538 0.0
H166 H 0.42511 0.50079 0.92863 0.0
H167 H 0.37569 0.48469 0.95443 0.0
Gd168 Gd 0.45048 0.0503 0.00987 0.0
Gd169 Gd 0.48933 0.99858 0.00684 0.0
C170 C 0.59046 0.04427 0.04558 0.0
C171 C 0.62515 0.04283 0.01216 0.0
C172 C 0.56757 0.02644 1.0038 0.0
C173 C 0.56339 0.03211 0.02875 0.0
C174 C 0.59853 0.03158 0.99529 0.0
C175 C 0.62128 0.04964 0.03713 0.0
C176 C 0.58572 0.05018 0.07058 0.0
C177 C 0.55464 0.04408 0.07834 0.0
N178 N 0.53292 0.02552 0.03666 0.0
C179 C 0.52849 0.0318 0.06115 0.0
H180 H 0.50529 0.02848 0.06779 0.0
C181 C 0.54415 1.00722 0.96358 0.0
N182 N 0.54116 0.01469 0.98806 0.0
C183 C 0.57437 1.01235 0.95429 0.0
C184 C 0.60159 0.02425 0.97027 0.0
H185 H 0.52275 0.99552 0.9514 0.0
H186 H 0.64217 0.05861 0.04986 0.0
H187 H 0.40023 1.01076 0.96073 0.0
H188 H 0.6059 0.05957 0.084 0.0
H189 H 0.5508 0.04901 0.09758 0.0
H190 H 0.64883 0.04617 1.00614 0.0
H191 H 0.45852 0.0883 0.06452 0.0
H192 H 0.30042 0.97704 0.98341 0.0
H193 H 0.34068 0.98112 0.95128 0.0
H194 H 0.31235 0.02352 0.06573 0.0
H195 H 0.57634 1.00602 0.93501 0.0
H196 H 0.62458 0.02689 0.96321 0.0
H197 H 0.29004 0.99277 0.0263 0.0
H198 H 0.42292 0.09352 0.09639 0.0
N199 N 0.39406 0.02187 0.99857 0.0
C200 C 0.32659 0.9897 0.98788 0.0
C201 C 0.34924 0.99207 0.96966 0.0
C202 C 0.33809 1.00482 0.01129 0.0
C203 C 0.37243 0.02104 0.0161 0.0
C204 C 0.3831 1.00887 0.97517 0.0
N205 N 0.41813 0.0543 0.04199 0.0
C206 C 0.38489 0.03823 0.03832 0.0
C207 C 0.4118 0.07737 0.08044 0.0
C208 C 0.3774 0.05961 0.07763 0.0
C209 C 0.43194 0.07454 0.06229 0.0
C210 C 0.36352 0.03992 0.05629 0.0
H211 H 0.36183 0.06197 0.09165 0.0
O212 O 0.47377 0.1037 0.01413 0.0
O213 O 0.49776 0.04947 0.00699 0.0
O214 O 0.46115 0.98906 0.04479 0.0
O215 O 0.43444 0.02041 0.04536 0.0
O216 O 0.49708 0.08195 0.03273 0.0
O217 O 0.44346 0.0798 0.98143 0.0
O218 O 0.49491 0.95736 0.993 0.0
O219 O 0.44183 0.99854 1.0057 0.0
O220 O 0.45875 0.044 0.96918 0.0
O221 O 0.49476 0.02256 0.96773 0.0
O222 O 0.44822 0.9699 0.97925 0.0
O223 O 0.47324 0.95419 0.02936 0.0
C224 C 0.51549 0.07217 0.02208 0.0
C225 C 0.3292 0.02276 0.05204 0.0
C226 C 0.3165 1.0052 0.0296 0.0
C227 C 0.46002 0.10737 0.99398 0.0
C228 C 0.44484 0.12848 0.99656 0.0
C229 C 0.41028 0.11441 0.99722 0.0
C230 C 0.46513 0.16319 0.99794 0.0
C231 C 0.45092 0.18371 0.99911 0.0
C232 C 0.39613 0.13457 0.99875 0.0
C233 C 0.41621 0.16893 0.99952 0.0
C234 C 0.44153 0.99887 0.05559 0.0
C235 C 0.42713 0.97747 0.98841 0.0
C236 C 0.48587 0.94137 0.01426 0.0
C237 C 0.50924 0.93219 0.02599 0.0
C238 C 0.52847 0.95061 0.04659 0.0
C239 C 0.51258 0.9053 0.01721 0.0
C240 C 0.53495 0.89724 0.02915 0.0
C241 C 0.55137 0.94367 0.05763 0.0
C242 C 0.55473 0.91741 0.04898 0.0
C243 C 0.47907 0.03684 0.95712 0.0
H244 H 0.39418 0.08787 0.9963 0.0
H245 H 0.49184 0.1742 0.99733 0.0
H246 H 0.36945 0.12353 0.99917 0.0
H247 H 0.40456 0.184 1.00065 0.0
H248 H 0.52573 0.97039 0.05444 0.0
H249 H 0.49738 0.89039 1.00172 0.0
H250 H 0.56638 0.95856 0.07319 0.0
H251 H 0.5729 0.91281 0.05801 0.0
Gd252 Gd 0.66508 0.74008 0.35294 0.0
Gd253 Gd 0.71575 0.82681 0.33203 0.0
C254 C 0.67067 0.89023 0.35543 0.0
C255 C 0.65869 0.90633 0.31502 0.0
C256 C 0.68302 0.87069 0.31688 0.0
C257 C 0.68298 0.87181 0.34299 0.0
C258 C 0.67136 0.88847 0.30267 0.0
C259 C 0.65826 0.90713 0.34133 0.0
C260 C 0.67118 0.89119 0.38173 0.0
C261 C 0.68382 0.87419 0.39505 0.0
N262 N 0.69469 0.85479 0.35625 0.0
C263 C 0.69558 0.85615 0.38201 0.0
H264 H 0.70501 0.84333 0.39293 0.0
C265 C 0.69958 0.85517 0.27975 0.0
N266 N 0.69518 0.85303 0.30533 0.0
C267 C 0.68809 0.8721 0.26491 0.0
C268 C 0.67344 0.88843 0.2764 0.0
H269 H 0.71224 0.8439 0.27068 0.0
H270 H 0.64847 0.92112 0.3506 0.0
H271 H 0.69736 0.7125 0.3089 0.0
H272 H 0.6619 0.90499 0.39193 0.0
H273 H 0.68439 0.87484 0.41542 0.0
H274 H 0.64947 0.9199 0.30439 0.0
H275 H 0.63151 0.72381 0.41072 0.0
H276 H 0.74737 0.66864 0.34628 0.0
H277 H 0.73143 0.68575 0.30699 0.0
H278 H 0.71688 0.66639 0.43286 0.0
H279 H 0.69101 0.87295 0.24465 0.0
H280 H 0.66476 0.90177 0.26488 0.0
H281 H 0.7423 0.66206 0.39343 0.0
H282 H 0.63818 0.70152 0.45128 0.0
N283 N 0.69479 0.71163 0.34895 0.0
C284 C 0.73239 0.68041 0.34725 0.0
C285 C 0.72336 0.68994 0.32503 0.0
C286 C 0.72087 0.685 0.37037 0.0
C287 C 0.70154 0.70053 0.37053 0.0
C288 C 0.70398 0.7051 0.32621 0.0
N289 N 0.66719 0.7161 0.39156 0.0
C290 C 0.6872 0.70279 0.3926 0.0
C291 C 0.65225 0.70188 0.43495 0.0
C292 C 0.67452 0.69014 0.43674 0.0
C293 C 0.6484 0.71431 0.41196 0.0
C294 C 0.6918 0.68982 0.41527 0.0
H295 H 0.67745 0.68051 0.45455 0.0
O296 O 0.61192 0.71178 0.36024 0.0
O297 O 0.66522 0.78606 0.34112 0.0
O298 O 0.73285 0.81994 0.37178 0.0
O299 O 0.69459 0.76695 0.38673 0.0
O300 O 0.63659 0.76129 0.37216 0.0
O301 O 0.63342 0.69512 0.332 0.0
O302 O 0.76093 0.85455 0.31044 0.0
O303 O 0.7162 0.78082 0.34208 0.0
O304 O 0.66651 0.74225 0.31047 0.0
O305 O 0.68387 0.79676 0.29853 0.0
O306 O 0.7402 0.8047 0.30922 0.0
O307 O 0.75522 0.87539 0.34493 0.0
C308 C 0.64524 0.78601 0.35719 0.0
C309 C 0.71263 0.67608 0.41556 0.0
C310 C 0.72712 0.67364 0.39312 0.0
C311 C 0.60658 0.68857 0.34428 0.0
C312 C 0.58549 0.65418 0.35319 0.0
C313 C 0.59968 0.63808 0.3661 0.0
C314 C 0.55095 0.63718 0.34875 0.0
C315 C 0.5308 0.60407 0.35689 0.0
C316 C 0.57994 0.60558 0.37442 0.0
C317 C 0.54588 0.58869 0.36987 0.0
C318 C 0.72051 0.79663 0.38979 0.0
C319 C 0.73494 0.78101 0.3246 0.0
C320 C 0.77308 0.88071 0.3247 0.0
C321 C 0.78618 0.91331 0.31154 0.0
C322 C 0.77983 0.91393 0.28569 0.0
C323 C 0.80637 0.94389 0.324 0.0
C324 C 0.81879 0.97435 0.31075 0.0
C325 C 0.7916 0.94368 0.27279 0.0
C326 C 0.81075 0.97354 0.28513 0.0
C327 C 0.66986 0.76459 0.29358 0.0
H328 H 0.62605 0.6506 0.3697 0.0
H329 H 0.53995 0.64953 0.33866 0.0
H330 H 0.5911 0.59339 0.38447 0.0
H331 H 0.53123 0.5636 0.37684 0.0
H332 H 0.76618 0.89136 0.27509 0.0
H333 H 0.81235 0.94398 0.34373 0.0
H334 H 0.78629 0.94357 0.25293 0.0
H335 H 0.82016 0.9962 0.2743 0.0
Gd336 Gd 0.30647 0.93547 0.3537 0.0
Gd337 Gd 0.21755 0.89181 0.33773 0.0
C338 C 0.16509 0.78608 0.36913 0.0
C339 C 0.14874 0.75307 0.33108 0.0
C340 C 0.18019 0.81327 0.3284 0.0
C341 C 0.18048 0.81528 0.35443 0.0
C342 C 0.16398 0.78203 0.31648 0.0
C343 C 0.14911 0.75512 0.35733 0.0
C344 C 0.16634 0.78873 0.39535 0.0
C345 C 0.18264 0.8199 0.40636 0.0
N346 N 0.19628 0.84563 0.36542 0.0
C347 C 0.19736 0.84812 0.39112 0.0
H348 H 0.20948 0.87154 0.4004 0.0
C349 C 0.19109 0.84032 0.28899 0.0
N350 N 0.1948 0.84172 0.31468 0.0
C351 C 0.17605 0.81004 0.2764 0.0
C352 C 0.1628 0.78075 0.29019 0.0
H353 H 0.19891 0.86255 0.278 0.0
H354 H 0.13692 0.73259 0.36837 0.0
H355 H 0.32583 0.9942 0.30966 0.0
H356 H 0.15497 0.7669 0.40723 0.0
H357 H 0.18383 0.82225 0.42666 0.0
H358 H 0.13626 0.72895 0.32224 0.0
H359 H 0.32791 0.92009 0.4104 0.0
H360 H 0.36941 0.0882 0.3463 0.0
H361 H 0.34958 0.05466 0.3075 0.0
H362 H 0.38219 0.06229 0.43157 0.0
H363 H 0.17392 0.80933 0.25609 0.0
H364 H 0.1507 0.75728 0.2804 0.0
H365 H 0.38108 0.09075 0.39276 0.0
H366 H 0.35296 0.95008 0.44994 0.0
N367 N 0.33094 0.99322 0.34942 0.0
C368 C 0.35894 0.06164 0.34738 0.0
C369 C 0.34785 0.0428 0.32543 0.0
C370 C 0.35763 0.0461 0.37027 0.0
C371 C 0.34372 1.01145 0.3706 0.0
C372 C 0.33431 1.00848 0.32675 0.0
N373 N 0.33225 0.96238 0.39155 0.0
C374 C 0.34465 0.99558 0.39233 0.0
C375 C 0.35054 0.96313 0.43393 0.0
C376 C 0.36142 0.99691 0.43556 0.0
C377 C 0.33644 0.94623 0.41152 0.0
C378 C 0.35911 0.0137 0.41447 0.0
H379 H 0.37228 1.00993 0.45296 0.0
O380 O 0.33664 0.91199 0.35676 0.0
O381 O 0.26189 0.887 0.34447 0.0
O382 O 0.22676 0.91922 0.37629 0.0
O383 O 0.2821 0.93983 0.38827 0.0
O384 O 0.29056 0.88723 0.37424 0.0
O385 O 0.35265 0.95454 0.33265 0.0
O386 O 0.17939 0.89302 0.31476 0.0
O387 O 0.26211 0.94095 0.3438 0.0
O388 O 0.30149 0.93359 0.31161 0.0
O389 O 0.24684 0.89363 0.30241 0.0
O390 O 0.23265 0.93669 0.31344 0.0
O391 O 0.17308 0.88786 0.35501 0.0
C392 C 0.26526 0.86879 0.36043 0.0
C393 C 0.37139 0.04798 0.41465 0.0
C394 C 0.37068 0.06417 0.39256 0.0
C395 C 0.36011 0.93335 0.3423 0.0
C396 C 0.39414 0.94632 0.35184 0.0
C397 C 0.40894 0.97471 0.36689 0.0
C398 C 0.41146 0.92929 0.34684 0.0
C399 C 0.44332 0.94027 0.35712 0.0
C400 C 0.44018 0.98564 0.37724 0.0
C401 C 0.45713 0.96854 0.37262 0.0
C402 C 0.25194 0.93411 0.39266 0.0
C403 C 0.25811 0.95741 0.32634 0.0
C404 C 0.15935 0.8878 0.33359 0.0
C405 C 0.12397 0.86175 0.3301 0.0
C406 C 0.11625 0.83151 0.31892 0.0
C407 C 0.09755 0.86689 0.33726 0.0
C408 C 0.06427 0.84173 0.33326 0.0
C409 C 0.0836 0.80661 0.31548 0.0
C410 C 0.05777 0.81162 0.3226 0.0
C411 C 0.27845 0.91292 0.296 0.0
H412 H 0.39625 0.98827 0.37084 0.0
H413 H 0.40005 0.90765 0.33488 0.0
H414 H 0.45123 1.00733 0.38914 0.0
H415 H 0.4809 0.97734 0.38162 0.0
H416 H 0.13527 0.82704 0.31234 0.0
H417 H 0.10277 0.89026 0.34542 0.0
H418 H 0.07832 0.78347 0.30689 0.0
H419 H 0.03251 0.79209 0.31937 0.0
Gd420 Gd 0.10802 0.37747 0.34564 0.0
Gd421 Gd 0.14673 0.32784 0.33049 0.0
C422 C 0.25285 0.3731 0.3601 0.0
C423 C 0.28459 0.38505 0.32143 0.0
C424 C 0.22456 0.36061 0.31982 0.0
C425 C 0.22328 0.36057 0.34596 0.0
C426 C 0.2553 0.37253 0.30737 0.0
C427 C 0.28337 0.38532 0.34771 0.0
C428 C 0.25106 0.37338 0.38635 0.0
C429 C 0.22042 0.36164 0.39797 0.0
N430 N 0.19344 0.34925 0.35756 0.0
C431 C 0.19183 0.34969 0.38331 0.0
H432 H 0.16894 0.34161 0.39308 0.0
C433 C 0.19627 0.34587 0.28092 0.0
N434 N 0.19597 0.34906 0.30654 0.0
C435 C 0.22605 0.35746 0.26783 0.0
C436 C 0.25576 0.37123 0.28108 0.0
H437 H 0.17335 0.33403 0.2704 0.0
H438 H 0.30622 0.39507 0.35831 0.0
H439 H 0.04832 0.33792 0.302 0.0
H440 H 0.2732 0.38291 0.39779 0.0
H441 H 0.21879 0.36205 0.41829 0.0
H442 H 0.30835 0.39447 0.31215 0.0
H443 H 0.12625 0.4164 0.40105 0.0
H444 H 0.95413 0.30054 0.33771 0.0
H445 H 0.98759 0.30648 0.29984 0.0
H446 H 0.98213 0.34667 0.42062 0.0
H447 H 0.22599 0.35535 0.24753 0.0
H448 H 0.27883 0.38011 0.27089 0.0
H449 H 0.95234 0.31552 0.38287 0.0
H450 H 0.09719 0.42 0.43855 0.0
N451 N 0.04986 0.34851 0.34114 0.0
C452 C 0.98092 0.3142 0.33886 0.0
C453 C 0.99971 0.31756 0.31744 0.0
C454 C 0.99694 0.32956 0.36126 0.0
C455 C 0.03188 0.3469 0.36176 0.0
C456 C 0.0343 0.33542 0.31881 0.0
N457 N 0.08211 0.38127 0.38249 0.0
C458 C 0.04853 0.36425 0.38299 0.0
C459 C 0.0832 0.40363 0.42332 0.0
C460 C 0.04873 0.38471 0.42478 0.0
C461 C 0.0996 0.40166 0.40194 0.0
C462 C 0.03089 0.36498 0.40433 0.0
H463 H 0.03612 0.38618 0.44145 0.0
O464 O 0.13438 0.43122 0.34899 0.0
O465 O 0.15532 0.37828 0.33679 0.0
O466 O 0.12087 0.31222 0.3701 0.0
O467 O 0.09904 0.34664 0.38018 0.0
O468 O 0.15603 0.40613 0.36717 0.0
O469 O 0.09521 0.40742 0.32172 0.0
O470 O 0.13161 0.28338 0.30874 0.0
O471 O 0.09892 0.32607 0.33764 0.0
O472 O 0.10801 0.37068 0.30374 0.0
O473 O 0.15112 0.36033 0.29618 0.0
O474 O 0.10136 0.30103 0.30646 0.0
O475 O 0.15578 0.2886 0.34441 0.0
C476 C 0.17375 0.39834 0.35336 0.0
C477 C 0.99613 0.3467 0.40432 0.0
C478 C 0.97918 0.32894 0.38283 0.0
C479 C 0.11611 0.43526 0.33248 0.0
C480 C 0.10357 0.45757 0.33995 0.0
C481 C 0.0717 0.44444 0.35019 0.0
C482 C 0.12369 0.49227 0.33731 0.0
C483 C 0.11182 0.51365 0.34466 0.0
C484 C 0.06 0.46533 0.35778 0.0
C485 C 0.07978 0.49953 0.3551 0.0
C486 C 0.10514 0.32255 0.38575 0.0
C487 C 0.08156 0.30613 0.32032 0.0
C488 C 0.14473 0.27109 0.3239 0.0
C489 C 0.16516 0.25829 0.3119 0.0
C490 C 0.17532 0.26649 0.28667 0.0
C491 C 0.17316 0.23641 0.3247 0.0
C492 C 0.19232 0.22451 0.31256 0.0
C493 C 0.19469 0.25542 0.27498 0.0
C494 C 0.20334 0.23485 0.28782 0.0
C495 C 0.1301 0.3701 0.28854 0.0
H496 H 0.05581 0.41802 0.35236 0.0
H497 H 0.14827 0.50247 0.32928 0.0
H498 H 0.03545 0.45494 0.36584 0.0
H499 H 0.07003 0.51499 0.36157 0.0
H500 H 0.16781 0.281 0.27558 0.0
H501 H 0.16447 0.22862 0.34379 0.0
H502 H 0.20252 0.26234 0.25564 0.0
H503 H 0.21783 0.22602 0.27802 0.0
Gd504 Gd 0.336 0.07121 0.68807 0.0
Gd505 Gd 0.3898 0.15809 0.67038 0.0
C506 C 0.34538 0.22314 0.68929 0.0
C507 C 0.33936 0.24158 0.64782 0.0
C508 C 0.36218 0.20488 0.65218 0.0
C509 C 0.35862 0.20474 0.67821 0.0
C510 C 0.35346 0.22412 0.63685 0.0
C511 C 0.33526 0.24102 0.67395 0.0
C512 C 0.34275 0.22316 0.71552 0.0
C513 C 0.35348 0.20543 0.7301 0.0
N514 N 0.36815 0.1868 0.69268 0.0
C515 C 0.36625 0.18738 0.71837 0.0
H516 H 0.37387 0.17362 0.73012 0.0
C517 C 0.38459 0.19166 0.6171 0.0
N518 N 0.37541 0.18741 0.6419 0.0
C519 C 0.37634 0.21031 0.60117 0.0
C520 C 0.3601 0.2261 0.611 0.0
H521 H 0.39786 0.18006 0.60958 0.0
H522 H 0.32466 0.25491 0.68216 0.0
H523 H 0.37165 0.04609 0.64514 0.0
H524 H 0.33261 0.23689 0.72469 0.0
H525 H 0.35165 0.2054 0.75042 0.0
H526 H 0.33213 0.25611 0.63629 0.0
H527 H 0.29634 0.05269 0.74325 0.0
H528 H 0.40563 0.98715 0.68221 0.0
H529 H 0.40019 0.01377 0.64357 0.0
H530 H 0.36154 0.97471 0.76553 0.0
H531 H 0.38276 0.21272 0.58139 0.0
H532 H 0.35384 0.24068 0.59863 0.0
H533 H 0.39054 0.97223 0.72758 0.0
H534 H 0.2925 0.02177 0.78212 0.0
N535 N 0.3633 0.04035 0.68472 0.0
C536 C 0.39365 1.00193 0.68313 0.0
C537 C 0.39054 0.01682 0.66128 0.0
C538 C 0.37978 1.00494 0.70563 0.0
C539 C 0.36465 0.02464 0.70585 0.0
C540 C 0.37453 0.03539 0.66231 0.0
N541 N 0.33153 0.04273 0.7258 0.0
C542 C 0.34812 0.02576 0.72709 0.0
C543 C 0.30842 0.02288 0.76686 0.0
C544 C 0.32673 1.00673 0.76901 0.0
C545 C 0.31069 0.04041 0.74483 0.0
C546 C 0.34628 1.00738 0.74876 0.0
H547 H 0.32469 0.99291 0.78599 0.0
O548 O 0.28212 0.04463 0.69165 0.0
O549 O 0.33811 0.11857 0.67774 0.0
O550 O 0.40208 0.14915 0.71127 0.0
O551 O 0.36524 0.09405 0.72291 0.0
O552 O 0.30814 0.09273 0.70783 0.0
O553 O 0.30558 0.02808 0.665 0.0
O554 O 0.43926 0.18225 0.65471 0.0
O555 O 0.38856 0.11108 0.67968 0.0
O556 O 0.34146 0.07657 0.64589 0.0
O557 O 0.35728 0.13123 0.63611 0.0
O558 O 0.41314 0.13515 0.64704 0.0
O559 O 0.42717 0.20834 0.68219 0.0
C560 C 0.31783 0.11832 0.69364 0.0
C561 C 0.36256 0.98891 0.74903 0.0
C562 C 0.37913 0.98756 0.72745 0.0
C563 C 0.27778 0.02188 0.67554 0.0
C564 C 0.25511 0.98729 0.68335 0.0
C565 C 0.26754 0.9695 0.69618 0.0
C566 C 0.22087 0.97177 0.67795 0.0
C567 C 0.19929 0.93856 0.68524 0.0
C568 C 0.24636 0.93702 0.70385 0.0
C569 C 0.21259 0.92167 0.69851 0.0
C570 C 0.38983 0.12408 0.72792 0.0
C571 C 0.40738 0.11113 0.66228 0.0
C572 C 0.44888 0.21046 0.66572 0.0
C573 C 0.4657 0.24054 0.64931 0.0
C574 C 0.46845 0.23655 0.62331 0.0
C575 C 0.48092 0.27314 0.65924 0.0
C576 C 0.49845 0.30112 0.64319 0.0
C577 C 0.48574 0.26374 0.60762 0.0
C578 C 0.50078 0.29556 0.61738 0.0
C579 C 0.3436 0.09939 0.63 0.0
H580 H 0.29365 0.98063 0.70021 0.0
H581 H 0.21127 0.98532 0.66774 0.0
H582 H 0.2562 0.92362 0.71394 0.0
H583 H 0.1968 0.89651 0.70497 0.0
H584 H 0.45776 0.21225 0.61492 0.0
H585 H 0.47912 0.27661 0.67922 0.0
H586 H 0.48794 0.26011 0.58773 0.0
H587 H 0.51491 0.3159 0.60454 0.0
Gd588 Gd 0.975 0.2657 0.68895 0.0
Gd589 Gd 0.88917 0.2302 0.66737 0.0
C590 C 0.82503 0.12063 0.68687 0.0
C591 C 0.8092 0.09568 0.64544 0.0
C592 C 0.84486 0.15529 0.64953 0.0
C593 C 0.84355 0.15219 0.6756 0.0
C594 C 0.82708 0.12708 0.63425 0.0
C595 C 0.80822 0.09247 0.67167 0.0
C596 C 0.82398 0.11821 0.71313 0.0
C597 C 0.84095 0.14678 0.72754 0.0
N598 N 0.86057 0.17982 0.68991 0.0
C599 C 0.8591 0.17748 0.71562 0.0
H600 H 0.87209 0.19889 0.7273 0.0
C601 C 0.86094 0.19025 0.61381 0.0
N602 N 0.86284 0.18584 0.6391 0.0
C603 C 0.84379 0.16309 0.59791 0.0
C604 C 0.82721 0.13129 0.60814 0.0
H605 H 0.87301 0.2149 0.60585 0.0
H606 H 0.79415 0.06808 0.68003 0.0
H607 H 1.00294 0.32949 0.64833 0.0
H608 H 0.81015 0.09443 0.72245 0.0
H609 H 0.84025 0.14517 0.74789 0.0
H610 H 0.7957 0.07376 0.63397 0.0
H611 H 0.99071 0.24346 0.74511 0.0
H612 H 0.04383 0.41926 0.69067 0.0
H613 H 0.02844 0.39018 0.64972 0.0
H614 H 0.04514 0.38309 0.77513 0.0
H615 H 0.84313 0.16675 0.57783 0.0
H616 H 0.81382 0.11025 0.5958 0.0
H617 H 0.04946 0.4163 0.73765 0.0
H618 H 1.01211 0.26854 0.78682 0.0
N619 N 1.0025 0.32397 0.68815 0.0
C620 C 0.03252 0.39257 0.69018 0.0
C621 C 0.02395 0.37626 0.66703 0.0
C622 C 0.02769 0.37435 0.71231 0.0
C623 C 1.01276 0.33968 0.71058 0.0
C624 C 1.00945 0.3418 0.66633 0.0
N625 N 0.99784 0.28817 0.72863 0.0
C626 C 1.01053 0.32117 0.73155 0.0
C627 C 1.01162 0.2836 0.77147 0.0
C628 C 0.02278 0.31717 0.77519 0.0
C629 C 0.99965 0.2695 0.74782 0.0
C630 C 0.02291 0.33656 0.75497 0.0
H631 H 0.0321 0.32804 0.79351 0.0
O632 O 1.0039 0.24091 0.69357 0.0
O633 O 0.92975 0.22007 0.67606 0.0
O634 O 0.89453 0.25168 0.70786 0.0
O635 O 0.94718 0.26565 0.72308 0.0
O636 O 0.95434 0.21502 0.7066 0.0
O637 O 0.02106 0.28246 0.66834 0.0
O638 O 0.86338 0.25107 0.64742 0.0
O639 O 0.93431 0.27675 0.67867 0.0
O640 O 0.97303 0.26826 0.64657 0.0
O641 O 0.92018 0.22756 0.63451 0.0
O642 O 0.91204 0.2771 0.64495 0.0
O643 O 0.83908 0.21851 0.67886 0.0
C644 C 0.92987 0.19941 0.69141 0.0
C645 C 0.03595 0.37084 0.7572 0.0
C646 C 0.03836 0.38973 0.73588 0.0
C647 C 0.0277 0.26113 0.67878 0.0
C648 C 0.06184 0.27389 0.68818 0.0
C649 C 0.07742 0.3033 0.70207 0.0
C650 C 0.07914 0.25676 0.6832 0.0
C651 C 0.11208 0.26937 0.6917 0.0
C652 C 0.10973 0.31567 0.71073 0.0
C653 C 0.12695 0.29899 0.70558 0.0
C654 C 0.91741 0.26181 0.72612 0.0
C655 C 0.93436 0.29553 0.66119 0.0
C656 C 0.83584 0.23466 0.66001 0.0
C657 C 0.80466 0.21826 0.64486 0.0
C658 C 0.80678 0.218 0.61842 0.0
C659 C 0.77282 0.20489 0.65614 0.0
C660 C 0.74378 0.19078 0.64102 0.0
C661 C 0.77845 0.20417 0.6036 0.0
C662 C 0.74735 0.19076 0.61469 0.0
C663 C 0.95226 0.24764 0.62961 0.0
H664 H 0.06465 0.31679 0.70615 0.0
H665 H 0.06721 0.23407 0.67241 0.0
H666 H 0.12152 0.33835 0.7215 0.0
H667 H 0.15189 0.30911 0.7128 0.0
H668 H 0.83046 0.22911 0.60891 0.0
H669 H 0.7707 0.2055 0.67643 0.0
H670 H 0.78065 0.20431 0.5833 0.0
H671 H 0.72595 0.18099 0.60243 0.0
Gd672 Gd 0.77987 0.70765 0.68387 0.0
Gd673 Gd 0.81106 0.65349 0.66313 0.0
C674 C 0.91866 0.69031 0.68495 0.0
C675 C 0.9443 0.69553 0.64421 0.0
C676 C 0.88624 0.68049 0.64685 0.0
C677 C 0.88822 0.68137 0.67298 0.0
C678 C 0.91431 0.68725 0.63225 0.0
C679 C 0.94663 0.69761 0.67043 0.0
C680 C 0.92001 0.6909 0.71123 0.0
C681 C 0.89145 0.68236 0.72503 0.0
N682 N 0.86045 0.67302 0.68671 0.0
C683 C 0.86179 0.67333 0.71247 0.0
H684 H 0.84044 0.66693 0.7238 0.0
C685 C 0.85317 0.66662 0.6102 0.0
N686 N 0.85663 0.6713 0.63571 0.0
C687 C 0.88042 0.67382 0.595 0.0
C688 C 0.91115 0.68422 0.60606 0.0
H689 H 0.82905 0.6563 0.60148 0.0
H690 H 0.97004 0.70416 0.67934 0.0
H691 H 0.71285 0.67133 0.64656 0.0
H692 H 0.94293 0.69771 0.72105 0.0
H693 H 0.8922 0.68267 0.74541 0.0
H694 H 0.96578 0.69982 0.6334 0.0
H695 H 0.80835 0.74951 0.73784 0.0
H696 H 0.62628 0.63266 0.69297 0.0
H697 H 0.652 0.64001 0.65088 0.0
H698 H 0.67002 0.67638 0.77437 0.0
H699 H 0.87744 0.67031 0.57483 0.0
H700 H 0.93199 0.68883 0.59426 0.0
H701 H 0.63318 0.64575 0.7391 0.0
H702 H 0.7871 0.7518 0.77995 0.0
N703 N 0.72155 0.6796 0.6859 0.0
C704 C 0.65296 0.64589 0.69115 0.0
C705 C 0.66742 0.65019 0.66739 0.0
C706 C 0.67312 0.66023 0.71218 0.0
C707 C 0.70777 0.67736 0.70886 0.0
C708 C 0.70195 0.66787 0.66504 0.0
N709 N 0.76137 0.71262 0.7241 0.0
C710 C 0.72834 0.69466 0.72861 0.0
C711 C 0.77033 0.73542 0.76574 0.0
C712 C 0.73666 0.71545 0.77117 0.0
C713 C 0.78228 0.73406 0.74186 0.0
C714 C 0.71508 0.69523 0.75234 0.0
H715 H 0.72746 0.71659 0.78966 0.0
O716 O 0.80789 0.76159 0.68559 0.0
O717 O 0.82395 0.70517 0.67016 0.0
O718 O 0.78849 0.63832 0.70352 0.0
O719 O 0.7783 0.67963 0.71851 0.0
O720 O 0.83149 0.73571 0.70038 0.0
O721 O 0.76323 0.73742 0.66364 0.0
O722 O 0.79373 0.60876 0.6412 0.0
O723 O 0.76591 0.65495 0.67434 0.0
O724 O 0.77416 0.70057 0.64178 0.0
O725 O 0.81338 0.68628 0.62975 0.0
O726 O 0.76295 0.62878 0.64209 0.0
O727 O 0.81808 0.61294 0.67672 0.0
C728 C 0.84565 0.72533 0.68507 0.0
C729 C 0.6807 0.67663 0.75618 0.0
C730 C 0.65973 0.65918 0.73611 0.0
C731 C 0.78657 0.7655 0.67246 0.0
C732 C 0.77627 0.78832 0.68315 0.0
C733 C 0.74782 0.77572 0.69831 0.0
C734 C 0.7953 0.82291 0.67902 0.0
C735 C 0.78618 0.84457 0.69048 0.0
C736 C 0.73863 0.79695 0.70947 0.0
C737 C 0.75766 0.83104 0.70572 0.0
C738 C 0.77978 0.65236 0.72175 0.0
C739 C 0.74599 0.63574 0.65766 0.0
C740 C 0.80659 0.59582 0.65607 0.0
C741 C 0.82653 0.58254 0.64387 0.0
C742 C 0.83342 0.58764 0.61792 0.0
C743 C 0.83769 0.56363 0.65746 0.0
C744 C 0.85643 0.55128 0.64521 0.0
C745 C 0.85218 0.57602 0.606 0.0
C746 C 0.86368 0.55817 0.61945 0.0
C747 C 0.79329 0.69813 0.62455 0.0
H748 H 0.73268 0.74941 0.70158 0.0
H749 H 0.81739 0.83292 0.66743 0.0
H750 H 0.71667 0.78692 0.72116 0.0
H751 H 0.74987 0.84692 0.71461 0.0
H752 H 0.82398 0.6003 0.60651 0.0
H753 H 0.83189 0.55859 0.6773 0.0
H754 H 0.85741 0.58045 0.58605 0.0
H755 H 0.87753 0.54882 0.60939 0.0
H756 H 0.3773 0.55428 0.99465 0.0
H757 H 0.31949 0.53689 1.00444 0.0
H758 H 0.29949 0.43716 0.01708 0.0
H759 H 0.35704 0.45449 1.00627 0.0
H760 H 0.25583 0.43347 0.98765 0.0
H761 H 0.2947 0.48851 0.06548 0.0
H762 H 0.32913 0.53317 0.09515 0.0
H763 H 0.29675 0.59577 0.06118 0.0
H764 H 0.26249 0.55168 0.03105 0.0
H765 H 0.09832 0.4416 0.03597 0.0
H766 H 0.15111 0.44358 0.04433 0.0
H767 H 0.17235 0.45399 0.96466 0.0
H768 H 0.11987 0.45184 0.95643 0.0
H769 H 0.21187 0.4937 0.03639 0.0
H770 H 0.22106 0.42469 0.94789 0.0
H771 H 0.18404 0.37609 0.92227 0.0
H772 H 0.11756 0.33393 0.98497 0.0
H773 H 0.15431 0.38207 0.01109 0.0
C774 C 0.36083 0.52897 1.00052 0.0
C775 C 0.37177 0.50586 1.00014 0.0
C776 C 0.32764 0.51892 1.00606 0.0
C777 C 0.30474 0.48558 0.01164 0.0
C778 C 0.31637 0.46296 0.01278 0.0
C779 C 0.3494 0.47293 0.00693 0.0
C780 C 0.26831 0.4737 0.01338 0.0
C781 C 0.24633 0.44658 0.99853 0.0
C782 C 0.25528 0.49001 0.02799 0.0
C783 C 0.2762 0.51682 0.04586 0.0
C784 C 0.29514 0.5119 0.06418 0.0
C785 C 0.31459 0.5371 0.08111 0.0
C786 C 0.31517 0.56731 0.08002 0.0
C787 C 0.29628 0.57237 0.062 0.0
C788 C 0.27682 0.54726 0.045 0.0
C789 C 0.11398 0.44367 0.02027 0.0
C790 C 0.10504 0.44692 0.99557 0.0
C791 C 0.14427 0.44493 0.02505 0.0
C792 C 0.166 0.44907 1.00515 0.0
C793 C 0.15607 0.4504 0.98039 0.0
C794 C 0.12596 0.44917 0.97567 0.0
C795 C 0.2 0.45446 0.00996 0.0
C796 C 0.22145 0.48037 0.0259 0.0
C797 C 0.21243 0.43652 0.99688 0.0
C798 C 0.19044 0.40713 0.98142 0.0
C799 C 0.19867 0.40497 0.95628 0.0
C800 C 0.17767 0.37752 0.94165 0.0
C801 C 0.14843 0.35199 0.95198 0.0
C802 C 0.14015 0.35379 0.97698 0.0
C803 C 0.16104 0.38118 0.9917 0.0
H804 H 0.1322 0.33079 0.94061 0.0
H805 H 0.33021 0.58677 0.09317 0.0
H806 H 0.53754 0.87436 0.98154 0.0
H807 H 0.5507 0.83081 0.97099 0.0
H808 H 0.55402 0.8113 0.05001 0.0
H809 H 0.54007 0.85365 0.06059 0.0
H810 H 0.60996 0.82076 0.02479 0.0
H811 H 0.49162 0.75731 0.01571 0.0
H812 H 0.43719 0.74438 0.99877 0.0
H813 H 0.4699 0.74044 0.92391 0.0
H814 H 0.52474 0.75383 0.94039 0.0
H815 H 0.61256 0.66934 0.02589 0.0
H816 H 0.60619 0.7178 0.0309 0.0
H817 H 0.58725 0.71657 0.95123 0.0
H818 H 0.59214 0.66704 0.9467 0.0
H819 H 0.54125 0.72022 0.97413 0.0
H820 H 0.66031 0.7875 0.98191 0.0
H821 H 0.71615 0.80407 0.99793 0.0
H822 H 0.68257 0.80037 0.07381 0.0
H823 H 0.6268 0.78497 0.05812 0.0
C824 C 0.54039 0.86031 0.99661 0.0
C825 C 0.53823 0.86796 0.02193 0.0
C826 C 0.54812 0.83554 0.99058 0.0
C827 C 0.55381 0.81801 0.00974 0.0
C828 C 0.55027 0.82474 0.03489 0.0
C829 C 0.5423 0.84908 0.04089 0.0
C830 C 0.56456 0.79342 1.00397 0.0
C831 C 0.5948 0.79865 0.01383 0.0
C832 C 0.54531 0.76493 0.9892 0.0
C833 C 0.51243 0.75701 0.97924 0.0
C834 C 0.48733 0.75404 0.9956 0.0
C835 C 0.45638 0.74655 0.9861 0.0
C836 C 0.45013 0.74171 0.96027 0.0
C837 C 0.4748 0.74427 0.94391 0.0
C838 C 0.50582 0.7518 0.95332 0.0
C839 C 0.60796 0.6799 0.00943 0.0
C840 C 0.60256 0.66407 0.98606 0.0
C841 C 0.6044 0.70788 0.0122 0.0
C842 C 0.59604 0.72115 0.99144 0.0
C843 C 0.59331 0.70683 0.96766 0.0
C844 C 0.59647 0.67865 0.96502 0.0
C845 C 0.58688 0.74753 0.99489 0.0
C846 C 0.55675 0.74254 0.98476 0.0
C847 C 0.6063 0.77638 0.0093 0.0
C848 C 0.63943 0.78485 0.01887 0.0
C849 C 0.66483 0.79007 1.00201 0.0
C850 C 0.69648 0.79937 0.01103 0.0
C851 C 0.70282 0.80291 0.03689 0.0
C852 C 0.67761 0.79754 0.05379 0.0
C853 C 0.64607 0.78883 0.04484 0.0
H854 H 0.72732 0.81002 0.04382 0.0
H855 H 0.42614 0.73589 0.95295 0.0
H856 H 0.38845 0.94154 0.94965 0.0
H857 H 0.3381 0.88742 0.95202 0.0
H858 H 0.33915 0.89509 0.03306 0.0
H859 H 0.38818 0.94994 0.03041 0.0
H860 H 0.33361 0.83527 0.96938 0.0
H861 H 0.26803 0.84067 0.05913 0.0
H862 H 0.25883 0.88088 0.08277 0.0
H863 H 0.26428 0.93201 0.01402 0.0
H864 H 0.27396 0.89242 0.99003 0.0
H865 H 0.21969 0.6691 0.99827 0.0
H866 H 0.26136 0.72678 0.00741 0.0
H867 H 0.19337 0.75843 0.98271 0.0
H868 H 0.15172 0.70098 0.97397 0.0
H869 H 0.23178 0.7981 0.02033 0.0
H870 H 0.24813 0.75619 0.94185 0.0
H871 H 0.25637 0.71758 0.91532 0.0
H872 H 0.34562 0.74188 0.95555 0.0
H873 H 0.3376 0.78029 0.98259 0.0
C874 C 0.37706 0.93221 0.96788 0.0
C875 C 0.39216 0.95022 0.9898 0.0
C876 C 0.34848 0.90101 0.96929 0.0
C877 C 0.33458 0.88661 0.99274 0.0
C878 C 0.34869 0.90547 0.01464 0.0
C879 C 0.37691 0.93709 0.01314 0.0
C880 C 0.30748 0.85105 0.99413 0.0
C881 C 0.31141 0.82736 0.98057 0.0
C882 C 0.27831 0.84014 0.00872 0.0
C883 C 0.27187 0.86369 0.02285 0.0
C884 C 0.26718 0.86047 0.04907 0.0
C885 C 0.26208 0.88326 0.06254 0.0
C886 C 0.26123 0.90915 0.04992 0.0
C887 C 0.26535 0.91221 0.0238 0.0
C888 C 0.27072 0.88965 0.01027 0.0
C889 C 0.21326 0.68824 0.99568 0.0
C890 C 0.18246 0.68047 0.98527 0.0
C891 C 0.23721 0.7213 1.00067 0.0
C892 C 0.23085 0.74723 0.9953 0.0
C893 C 0.19908 0.7391 0.98696 0.0
C894 C 0.17525 0.70617 0.98192 0.0
C895 C 0.25803 0.78268 0.99547 0.0
C896 C 0.25415 0.8062 0.00931 0.0
C897 C 0.28706 0.79367 0.98075 0.0
C898 C 0.29207 0.77081 0.9644 0.0
C899 C 0.26938 0.75312 0.94514 0.0
C900 C 0.27402 0.73129 0.93001 0.0
C901 C 0.30146 0.72721 0.93379 0.0
C902 C 0.32435 0.74502 0.95268 0.0
C903 C 0.31977 0.76682 0.96791 0.0
H904 H 0.30502 0.71031 0.92205 0.0
H905 H 0.25727 0.92677 0.06036 0.0
H906 H 0.44475 0.22835 0.96965 0.0
H907 H 0.47509 0.28874 0.97292 0.0
H908 H 0.53407 0.28279 0.0331 0.0
H909 H 0.50373 0.22213 0.02979 0.0
H910 H 0.5064 0.32186 0.04484 0.0
H911 H 0.56961 0.31286 0.97778 0.0
H912 H 0.57817 0.29368 0.93673 0.0
H913 H 0.53267 0.34244 0.89916 0.0
H914 H 0.52335 0.36148 0.94003 0.0
H915 H 0.5982 0.49767 0.0554 0.0
H916 H 0.57925 0.43887 0.05261 0.0
H917 H 0.54305 0.43712 0.97741 0.0
H918 H 0.56732 0.49701 0.9789 0.0
H919 H 0.56431 0.40054 0.97497 0.0
H920 H 0.47825 0.38189 0.04192 0.0
H921 H 0.45971 0.39164 0.08305 0.0
H922 H 0.54237 0.39222 0.11933 0.0
H923 H 0.56038 0.3811 0.07852 0.0
C924 C 0.46441 0.23994 0.98343 0.0
C925 C 0.47176 0.22048 0.99956 0.0
C926 C 0.48188 0.27448 0.98518 0.0
C927 C 0.507 0.29042 1.0032 0.0
C928 C 0.51487 0.27108 0.01901 0.0
C929 C 0.49765 0.23646 0.01703 0.0
C930 C 0.52329 0.327 0.00656 0.0
C931 C 0.51952 0.33918 0.02966 0.0
C932 C 0.53972 0.34957 0.98666 0.0
C933 C 0.54555 0.33839 0.96202 0.0
C934 C 0.56119 0.31928 0.96079 0.0
C935 C 0.56622 0.30847 0.93754 0.0
C936 C 0.55591 0.31678 0.91536 0.0
C937 C 0.54062 0.336 0.91637 0.0
C938 C 0.5355 0.34684 0.93957 0.0
C939 C 0.58593 0.4846 0.03834 0.0
C940 C 0.58287 0.50188 0.01776 0.0
C941 C 0.5743 0.45052 0.03693 0.0
C942 C 0.55802 0.43233 0.01523 0.0
C943 C 0.55508 0.44986 0.99461 0.0
C944 C 0.56825 0.48424 0.99562 0.0
C945 C 0.54621 0.39583 0.01312 0.0
C946 C 0.55112 0.38351 0.99024 0.0
C947 C 0.53028 0.37291 0.03311 0.0
C948 C 0.52128 0.38208 0.05718 0.0
C949 C 0.49275 0.38489 0.05865 0.0
C950 C 0.48215 0.39021 0.0819 0.0
C951 C 0.50027 0.3933 0.10371 0.0
C952 C 0.52859 0.39026 0.10239 0.0
C953 C 0.53881 0.38414 0.07926 0.0
H954 H 0.49212 0.39762 0.12167 0.0
H955 H 0.55981 0.30837 0.89738 0.0
H956 H 0.55304 0.09036 0.97919 0.0
H957 H 0.61098 0.1322 0.97484 0.0
H958 H 0.61915 0.14268 0.05579 0.0
H959 H 0.55973 0.10523 0.05942 0.0
H960 H 0.65108 0.19716 0.0416 0.0
H961 H 0.68524 0.11139 1.00144 0.0
H962 H 0.68133 0.07357 0.96743 0.0
H963 H 0.65644 0.12743 0.91452 0.0
H964 H 0.66258 0.16686 0.9479 0.0
H965 H 0.82122 0.25833 0.06493 0.0
H966 H 0.76124 0.22717 0.05951 0.0
H967 H 0.77296 0.25256 0.98056 0.0
H968 H 0.83334 0.28322 0.98578 0.0
H969 H 0.73209 0.18884 0.98628 0.0
H970 H 0.73913 0.28496 0.02162 0.0
H971 H 0.7563 0.33081 0.05169 0.0
H972 H 0.7052 0.26135 0.11132 0.0
H973 H 0.6881 0.21503 0.08169 0.0
C974 C 0.56744 0.10152 0.99603 0.0
C975 C 0.55195 0.09404 0.01973 0.0
C976 C 0.6012 0.12517 0.99359 0.0
C977 C 0.62095 0.14065 0.01493 0.0
C978 C 0.60522 0.13193 0.03872 0.0
C979 C 0.57111 0.10997 0.04096 0.0
C980 C 0.65699 0.16744 0.01313 0.0
C981 C 0.6686 0.19457 0.02977 0.0
C982 C 0.68054 0.16662 0.99646 0.0
C983 C 0.67236 0.14075 0.97741 0.0
C984 C 0.6781 0.11458 0.98267 0.0
C985 C 0.67612 0.09327 0.96343 0.0
C986 C 0.6677 0.0975 0.93899 0.0
C987 C 0.66232 0.12375 0.93356 0.0
C988 C 0.66545 0.1458 0.95255 0.0
C989 C 0.81109 0.25745 0.0464 0.0
C990 C 0.83223 0.27312 0.02575 0.0
C991 C 0.77666 0.23987 0.04338 0.0
C992 C 0.76234 0.23761 0.01965 0.0
C993 C 0.78332 0.25396 0.99908 0.0
C994 C 0.81786 0.27168 1.00212 0.0
C995 C 0.72577 0.21614 0.01614 0.0
C996 C 0.71428 0.19074 0.99831 0.0
C997 C 0.70239 0.21869 0.03153 0.0
C998 C 0.71252 0.24649 0.04943 0.0
C999 C 0.73175 0.27944 0.04118 0.0
C1000 C 0.74143 0.30552 0.05814 0.0
C1001 C 0.73189 0.299 0.0834 0.0
C1002 C 0.71258 0.26637 0.09174 0.0
C1003 C 0.70284 0.24019 0.07486 0.0
H1004 H 0.73942 0.31923 0.09651 0.0
H1005 H 0.66584 0.08074 0.9242 0.0
H1006 H 0.97458 0.48832 0.97741 0.0
H1007 H 0.93966 0.51391 0.97414 0.0
H1008 H 0.92055 0.49991 0.05394 0.0
H1009 H 0.95798 0.47794 0.05757 0.0
H1010 H 0.87569 0.48715 0.98296 0.0
H1011 H 0.90668 0.5349 0.07582 0.0
H1012 H 0.94804 0.56933 0.10773 0.0
H1013 H 1.0031 0.64275 0.05139 0.0
H1014 H 0.96278 0.60778 0.01899 0.0
H1015 H 0.75861 0.54501 0.01561 0.0
H1016 H 0.79222 0.51783 0.01586 0.0
H1017 H 0.87522 0.60646 0.98608 0.0
H1018 H 0.84176 0.63321 0.9847 0.0
H1019 H 0.88647 0.58143 0.03314 0.0
H1020 H 0.84284 0.5464 0.94925 0.0
H1021 H 0.79807 0.51822 0.91815 0.0
H1022 H 0.76415 0.4259 0.95689 0.0
H1023 H 0.80845 0.45366 0.98846 0.0
C1024 C 0.96413 0.49222 0.99438 0.0
C1025 C 0.97029 0.48248 0.01791 0.0
C1026 C 0.94377 0.50647 0.99251 0.0
C1027 C 0.92823 0.51035 0.014 0.0
C1028 C 0.93364 0.49952 0.03731 0.0
C1029 C 0.95464 0.4862 0.03927 0.0
C1030 C 0.9042 0.52284 0.01162 0.0
C1031 C 0.87813 0.50772 0.99406 0.0
C1032 C 0.90658 0.54946 0.02614 0.0
C1033 C 0.93299 0.56785 0.04475 0.0
C1034 C 0.92841 0.55771 0.07008 0.0
C1035 C 0.95148 0.57743 0.08829 0.0
C1036 C 0.97849 0.608 0.08153 0.0
C1037 C 0.98245 0.61885 0.05655 0.0
C1038 C 0.95986 0.59881 0.03819 0.0
C1039 C 0.78375 0.55847 0.00853 0.0
C1040 C 0.79754 0.59164 1.00057 0.0
C1041 C 0.80297 0.5429 0.00877 0.0
C1042 C 0.83633 0.56021 1.00117 0.0
C1043 C 0.84964 0.59269 0.99223 0.0
C1044 C 0.83045 0.60806 0.99166 0.0
C1045 C 0.8585 0.54597 1.00449 0.0
C1046 C 0.88403 0.5607 0.02221 0.0
C1047 C 0.85526 0.51886 0.99038 0.0
C1048 C 0.82871 0.50219 0.97139 0.0
C1049 C 0.82562 0.52016 0.95129 0.0
C1050 C 0.80038 0.50425 0.93354 0.0
C1051 C 0.77821 0.47031 0.93559 0.0
C1052 C 0.7813 0.4522 0.95535 0.0
C1053 C 0.80649 0.46801 0.97317 0.0
H1054 H 0.75869 0.45803 0.92182 0.0
H1055 H 0.99614 0.62343 0.09569 0.0
H1056 H 0.75793 0.76893 0.36918 0.0
H1057 H 0.8134 0.77652 0.37612 0.0
H1058 H 0.83205 0.78925 0.29613 0.0
H1059 H 0.77688 0.78149 0.2893 0.0
H1060 H 0.86128 0.75881 0.31459 0.0
H1061 H 0.85491 0.8554 0.33709 0.0
H1062 H 0.83416 0.88692 0.36055 0.0
H1063 H 0.86597 0.86456 0.43009 0.0
H1064 H 0.88635 0.83234 0.40706 0.0
H1065 H 0.03151 0.85883 0.3 0.0
H1066 H 0.97421 0.847 0.30394 0.0
H1067 H 0.9723 0.81812 0.38137 0.0
H1068 H 0.02979 0.82974 0.37732 0.0
H1069 H 0.93436 0.85329 0.3696 0.0
H1070 H 0.94519 0.75989 0.34396 0.0
H1071 H 0.96848 0.73277 0.31787 0.0
H1072 H 0.9294 0.75324 0.2513 0.0
H1073 H 0.90638 0.78104 0.27697 0.0
C1074 C 0.77363 0.77265 0.3531 0.0
C1075 C 0.76328 0.77533 0.32877 0.0
C1076 C 0.80546 0.77718 0.35707 0.0
C1077 C 0.82748 0.78451 0.33671 0.0
C1078 C 0.81585 0.78402 0.31222 0.0
C1079 C 0.78419 0.77948 0.30831 0.0
C1080 C 0.86323 0.79509 0.34059 0.0
C1081 C 0.87713 0.77948 0.32664 0.0
C1082 C 0.8842 0.82192 0.35649 0.0
C1083 C 0.87185 0.84117 0.37038 0.0
C1084 C 0.85725 0.85698 0.35741 0.0
C1085 C 0.8456 0.87502 0.37062 0.0
C1086 C 0.84879 0.87778 0.3968 0.0
C1087 C 0.86359 0.86246 0.40981 0.0
C1088 C 0.87513 0.84424 0.39669 0.0
C1089 C 1.01936 0.85143 0.31817 0.0
C1090 C 0.03526 0.84584 0.3385 0.0
C1091 C 0.98651 0.84434 0.32036 0.0
C1092 C 0.96882 0.83137 0.34288 0.0
C1093 C 0.98549 0.82825 0.36386 0.0
C1094 C 1.0184 0.83514 0.36161 0.0
C1095 C 0.93216 0.81729 0.34329 0.0
C1096 C 0.91825 0.83226 0.35796 0.0
C1097 C 0.91116 0.79016 0.32778 0.0
C1098 C 0.92428 0.77276 0.31237 0.0
C1099 C 0.94175 0.75879 0.32374 0.0
C1100 C 0.95488 0.74328 0.30903 0.0
C1101 C 0.95048 0.74134 0.28294 0.0
C1102 C 0.93282 0.75479 0.27151 0.0
C1103 C 0.91969 0.7704 0.28614 0.0
H1104 H 0.96069 0.72935 0.27157 0.0
H1105 H 0.83971 0.8917 0.40701 0.0
H1106 H 0.14911 0.16143 0.32859 0.0
H1107 H 0.16223 0.11737 0.33708 0.0
H1108 H 0.26635 0.18781 0.3288 0.0
H1109 H 0.25325 0.23159 0.32047 0.0
H1110 H 0.18971 0.09438 0.30509 0.0
H1111 H 0.31285 0.16253 0.36184 0.0
H1112 H 0.33798 0.20499 0.39493 0.0
H1113 H 0.2413 0.18229 0.42015 0.0
H1114 H 0.21558 0.13939 0.38748 0.0
H1115 H 0.27346 1.00481 0.29063 0.0
H1116 H 0.26581 0.05311 0.29336 0.0
H1117 H 0.23877 0.03104 0.37158 0.0
H1118 H 0.24525 0.98249 0.36836 0.0
H1119 H 0.27416 0.09808 0.36402 0.0
H1120 H 0.17996 1.00432 0.32854 0.0
H1121 H 0.15093 0.95802 0.29887 0.0
H1122 H 0.18189 0.02646 0.2369 0.0
H1123 H 0.21159 0.07316 0.2662 0.0
C1124 C 0.17481 0.16766 0.32952 0.0
C1125 C 0.20016 0.20005 0.32417 0.0
C1126 C 0.18232 0.14239 0.33404 0.0
C1127 C 0.21535 0.14907 0.3336 0.0
C1128 C 0.24073 0.18186 0.32959 0.0
C1129 C 0.23322 0.20697 0.32489 0.0
C1130 C 0.22329 0.12164 0.33518 0.0
C1131 C 0.20815 0.09529 0.31804 0.0
C1132 C 0.24705 0.12226 0.35224 0.0
C1133 C 0.26231 0.14797 0.37201 0.0
C1134 C 0.29695 0.16653 0.37449 0.0
C1135 C 0.3113 0.19068 0.39317 0.0
C1136 C 0.29125 0.19641 0.40957 0.0
C1137 C 0.2568 0.17793 0.40736 0.0
C1138 C 0.24233 0.15373 0.38874 0.0
C1139 C 0.26709 1.01105 0.30863 0.0
C1140 C 0.26178 0.99073 0.32975 0.0
C1141 C 0.26244 0.0385 0.31014 0.0
C1142 C 0.25163 0.04587 0.33271 0.0
C1143 C 0.24767 0.02641 0.35407 0.0
C1144 C 0.25218 0.99892 0.35245 0.0
C1145 C 0.2413 0.07156 0.33345 0.0
C1146 C 0.25587 0.09741 0.35103 0.0
C1147 C 0.2165 0.07016 0.31717 0.0
C1148 C 0.19824 0.04221 0.29954 0.0
C1149 C 0.18075 1.00948 0.30857 0.0
C1150 C 0.16417 0.98316 0.29182 0.0
C1151 C 0.16462 0.98929 0.26601 0.0
C1152 C 0.18159 0.02175 0.2569 0.0
C1153 C 0.19829 0.04816 0.27357 0.0
H1154 H 0.15178 0.96889 0.25307 0.0
H1155 H 0.30241 0.21512 0.42402 0.0
H1156 H 0.04387 0.28253 0.36393 0.0
H1157 H 0.99629 0.22672 0.37012 0.0
H1158 H 0.99482 0.20862 0.29043 0.0
H1159 H 0.04245 0.26387 0.28438 0.0
H1160 H 0.93227 0.18662 0.35299 0.0
H1161 H 0.99023 0.13561 0.28119 0.0
H1162 H 0.04596 0.1504 0.2658 0.0
H1163 H 0.08883 0.20131 0.33498 0.0
H1164 H 0.03341 0.18657 0.35086 0.0
H1165 H 0.81333 0.02979 0.30788 0.0
H1166 H 0.85544 0.08646 0.31735 0.0
H1167 H 0.91786 0.05163 0.34893 0.0
H1168 H 0.87582 0.99448 0.33844 0.0
H1169 H 0.95384 0.09982 0.31971 0.0
H1170 H 0.88178 0.08967 0.3856 0.0
H1171 H 0.82944 0.07569 0.40703 0.0
H1172 H 0.81938 0.14577 0.36076 0.0
H1173 H 0.87143 0.15985 0.33877 0.0
C1174 C 0.03295 0.26696 0.34772 0.0
C1175 C 0.04743 0.27748 0.32376 0.0
C1176 C 1.00568 0.23495 0.35125 0.0
C1177 C 0.99247 0.21295 0.33084 0.0
C1178 C 1.00496 0.22471 0.3066 0.0
C1179 C 0.03209 0.25648 0.30313 0.0
C1180 C 0.96776 0.17704 0.33469 0.0
C1181 C 0.93691 0.1676 0.34574 0.0
C1182 C 0.97428 0.15199 0.32635 0.0
C1183 C 1.00764 0.16016 0.31712 0.0
C1184 C 1.01152 0.14979 0.29317 0.0
C1185 C 0.04309 0.15825 0.28434 0.0
C1186 C 0.07095 0.17692 0.29936 0.0
C1187 C 0.06728 0.18702 0.3233 0.0
C1188 C 0.0358 0.17865 0.33221 0.0
C1189 C 0.83575 0.03407 0.31731 0.0
C1190 C 0.84116 1.00747 0.3223 0.0
C1191 C 0.85988 0.06666 0.32289 0.0
C1192 C 0.8901 0.07379 0.33403 0.0
C1193 C 0.8949 0.04706 0.3403 0.0
C1194 C 0.87065 0.01426 0.33458 0.0
C1195 C 0.91738 0.10913 0.33695 0.0
C1196 C 0.94897 0.11859 0.32717 0.0
C1197 C 0.91185 0.13404 0.34731 0.0
C1198 C 0.88044 0.12565 0.36041 0.0
C1199 C 0.86829 0.10192 0.37985 0.0
C1200 C 0.83868 0.09401 0.39212 0.0
C1201 C 0.82106 0.10979 0.38523 0.0
C1202 C 0.83305 0.13356 0.36607 0.0
C1203 C 0.86264 0.14155 0.35372 0.0
H1204 H 0.79815 0.10363 0.39476 0.0
H1205 H 0.09536 0.1835 0.29248 0.0
H1206 H 0.25408 0.82409 0.39738 0.0
H1207 H 0.23421 0.76484 0.39311 0.0
H1208 H 0.23064 0.77364 0.31236 0.0
H1209 H 0.25206 0.83319 0.3167 0.0
H1210 H 0.17941 0.7175 0.37849 0.0
H1211 H 0.23412 0.71205 0.28215 0.0
H1212 H 0.28324 0.74681 0.25597 0.0
H1213 H 0.33954 0.79438 0.32231 0.0
H1214 H 0.29084 0.75961 0.3489 0.0
H1215 H 0.09122 0.55666 0.32951 0.0
H1216 H 0.12202 0.61697 0.33037 0.0
H1217 H 0.20973 0.61541 0.35397 0.0
H1218 H 0.17874 0.55461 0.35361 0.0
H1219 H 0.22274 0.66713 0.31825 0.0
H1220 H 0.16721 0.6262 0.39817 0.0
H1221 H 0.11879 0.59168 0.42509 0.0
H1222 H 0.06713 0.63784 0.39328 0.0
H1223 H 0.11505 0.6722 0.36585 0.0
C1224 C 0.24925 0.81332 0.37873 0.0
C1225 C 0.25348 0.83297 0.35744 0.0
C1226 C 0.2378 0.77941 0.37627 0.0
C1227 C 0.2308 0.76436 0.3524 0.0
C1228 C 0.23624 0.78438 0.33101 0.0
C1229 C 0.24801 0.81841 0.33349 0.0
C1230 C 0.21647 0.72764 0.35016 0.0
C1231 C 0.18897 0.70674 0.36518 0.0
C1232 C 0.229 0.71302 0.3332 0.0
C1233 C 0.25875 0.73337 0.31749 0.0
C1234 C 0.25704 0.72977 0.29116 0.0
C1235 C 0.2848 0.74953 0.27624 0.0
C1236 C 0.31448 0.77287 0.28746 0.0
C1237 C 0.31651 0.77637 0.31364 0.0
C1238 C 0.28883 0.75665 0.32864 0.0
C1239 C 0.11708 0.569 0.33488 0.0
C1240 C 0.13224 0.55054 0.34196 0.0
C1241 C 0.13474 0.6036 0.33522 0.0
C1242 C 0.16811 0.62085 0.34256 0.0
C1243 C 0.18398 0.60269 0.34825 0.0
C1244 C 0.16622 0.56788 0.348 0.0
C1245 C 0.18534 0.65752 0.34603 0.0
C1246 C 0.21326 0.67822 0.33135 0.0
C1247 C 0.17335 0.67212 0.36334 0.0
C1248 C 0.14467 0.65173 0.37997 0.0
C1249 C 0.14546 0.62887 0.39686 0.0
C1250 C 0.11811 0.60932 0.41219 0.0
C1251 C 0.0899 0.61256 0.4109 0.0
C1252 C 0.08901 0.63539 0.39429 0.0
C1253 C 0.11627 0.65495 0.37888 0.0
H1254 H 0.06874 0.5974 0.42278 0.0
H1255 H 0.33591 0.7882 0.27587 0.0
H1256 H 0.2161 0.42828 0.39206 0.0
H1257 H 0.27625 0.46481 0.39044 0.0
H1258 H 0.27398 0.45479 0.3096 0.0
H1259 H 0.21353 0.41869 0.31123 0.0
H1260 H 0.32443 0.45454 0.37604 0.0
H1261 H 0.33751 0.52638 0.28404 0.0
H1262 H 0.30495 0.54431 0.25856 0.0
H1263 H 0.25198 0.54456 0.32467 0.0
H1264 H 0.28452 0.52708 0.35057 0.0
H1265 H 0.49303 0.53979 0.34154 0.0
H1266 H 0.43279 0.50675 0.3385 0.0
H1267 H 0.42477 0.59188 0.35881 0.0
H1268 H 0.48537 0.62527 0.36183 0.0
H1269 H 0.37933 0.55587 0.32322 0.0
H1270 H 0.41326 0.53313 0.40263 0.0
H1271 H 0.44493 0.51699 0.4308 0.0
H1272 H 0.40232 0.42213 0.39491 0.0
H1273 H 0.37078 0.4379 0.36626 0.0
C1274 C 0.22849 0.43387 0.37395 0.0
C1275 C 0.2103 0.41987 0.35187 0.0
C1276 C 0.26289 0.4547 0.37303 0.0
C1277 C 0.27989 0.4627 0.34991 0.0
C1278 C 0.26157 0.4493 0.32768 0.0
C1279 C 0.22706 0.42837 0.32863 0.0
C1280 C 0.31671 0.48481 0.34932 0.0
C1281 C 0.33636 0.47656 0.36435 0.0
C1282 C 0.33252 0.51399 0.33447 0.0
C1283 C 0.31324 0.52511 0.31917 0.0
C1284 C 0.31902 0.53041 0.29314 0.0
C1285 C 0.30054 0.54047 0.27863 0.0
C1286 C 0.27634 0.54547 0.28998 0.0
C1287 C 0.27065 0.54057 0.31589 0.0
C1288 C 0.28908 0.53055 0.33048 0.0
C1289 C 0.47852 0.55159 0.34533 0.0
C1290 C 0.49417 0.58516 0.35231 0.0
C1291 C 0.44398 0.53261 0.34355 0.0
C1292 C 0.42399 0.54652 0.34891 0.0
C1293 C 0.43953 0.58044 0.35467 0.0
C1294 C 0.47424 0.59957 0.35635 0.0
C1295 C 0.38702 0.52525 0.34965 0.0
C1296 C 0.36738 0.53366 0.33471 0.0
C1297 C 0.37108 0.4964 0.36487 0.0
C1298 C 0.38992 0.48682 0.38215 0.0
C1299 C 0.41084 0.50892 0.40063 0.0
C1300 C 0.42874 0.49983 0.41669 0.0
C1301 C 0.4257 0.46859 0.4146 0.0
C1302 C 0.40469 0.44634 0.39648 0.0
C1303 C 0.38678 0.45533 0.38034 0.0
H1304 H 0.43958 0.46159 0.42706 0.0
H1305 H 0.26204 0.55321 0.27871 0.0
H1306 H 0.51085 0.96649 0.35294 0.0
H1307 H 0.54167 0.93746 0.34935 0.0
H1308 H 0.45014 0.84448 0.34442 0.0
H1309 H 0.41892 0.87318 0.35039 0.0
H1310 H 0.48713 0.83434 0.3721 0.0
H1311 H 0.50628 0.88528 0.29198 0.0
H1312 H 0.52175 0.92956 0.26048 0.0
H1313 H 0.62079 0.98099 0.28979 0.0
H1314 H 0.60579 0.9373 0.32175 0.0
H1315 H 0.62313 0.79948 0.31325 0.0
H1316 H 0.58539 0.82165 0.30882 0.0
H1317 H 0.58202 0.82848 0.38975 0.0
H1318 H 0.61825 0.80488 0.39405 0.0
H1319 H 0.58689 0.87516 0.31811 0.0
H1320 H 0.51156 0.81988 0.411 0.0
H1321 H 0.49147 0.76941 0.43683 0.0
H1322 H 0.49603 0.71629 0.37248 0.0
H1323 H 0.51568 0.76628 0.34619 0.0
C1324 C 0.49703 0.93981 0.35144 0.0
C1325 C 0.46211 0.92237 0.3523 0.0
C1326 C 0.51489 0.92318 0.34885 0.0
C1327 C 0.49848 0.88863 0.34618 0.0
C1328 C 0.46361 0.87113 0.34641 0.0
C1329 C 0.44567 0.88772 0.34952 0.0
C1330 C 0.51777 0.87082 0.34447 0.0
C1331 C 0.50888 0.84333 0.3602 0.0
C1332 C 0.54572 0.88159 0.32844 0.0
C1333 C 0.5548 0.90811 0.3094 0.0
C1334 C 0.53128 0.90617 0.29185 0.0
C1335 C 0.53998 0.93115 0.27389 0.0
C1336 C 0.57221 0.9581 0.27317 0.0
C1337 C 0.59583 0.96011 0.29039 0.0
C1338 C 0.58724 0.93523 0.30842 0.0
C1339 C 0.61431 0.80584 0.33002 0.0
C1340 C 0.62408 0.80114 0.354 0.0
C1341 C 0.5927 0.81847 0.32752 0.0
C1342 C 0.58025 0.82639 0.34895 0.0
C1343 C 0.59036 0.82183 0.37287 0.0
C1344 C 0.61139 0.80865 0.37536 0.0
C1345 C 0.55704 0.83972 0.34649 0.0
C1346 C 0.56513 0.86624 0.32996 0.0
C1347 C 0.52765 0.82728 0.36104 0.0
C1348 C 0.51536 0.79694 0.37668 0.0
C1349 C 0.5081 0.79739 0.40233 0.0
C1350 C 0.49683 0.76887 0.41706 0.0
C1351 C 0.49256 0.73969 0.40632 0.0
C1352 C 0.49944 0.73893 0.3808 0.0
C1353 C 0.51068 0.76736 0.36598 0.0
H1354 H 0.48387 0.71765 0.41777 0.0
H1355 H 0.5789 0.9774 0.25924 0.0
H1356 H 0.72083 0.21649 0.67777 0.0
H1357 H 0.66249 0.19821 0.68793 0.0
H1358 H 0.63073 0.11638 0.63682 0.0
H1359 H 0.68835 0.13349 0.62743 0.0
H1360 H 0.60605 0.16545 0.62849 0.0
H1361 H 0.61844 0.0959 0.69145 0.0
H1362 H 0.64348 0.08677 0.72933 0.0
H1363 H 0.61513 0.14605 0.77292 0.0
H1364 H 0.59041 0.15601 0.73518 0.0
H1365 H 0.43502 0.08702 0.62976 0.0
H1366 H 0.49057 0.09404 0.63218 0.0
H1367 H 0.50334 0.13766 0.70583 0.0
H1368 H 0.44662 0.12756 0.70424 0.0
H1369 H 0.53992 0.11205 0.7052 0.0
H1370 H 0.53044 0.18508 0.64795 0.0
H1371 H 0.50718 0.20126 0.61259 0.0
H1372 H 0.533 0.14668 0.56134 0.0
H1373 H 0.55622 0.12994 0.59646 0.0
C1374 C 0.70143 0.19403 0.66933 0.0
C1375 C 0.70941 0.17675 0.65151 0.0
C1376 C 0.66807 0.18374 0.675 0.0
C1377 C 0.64217 0.1561 0.66289 0.0
C1378 C 0.65019 0.1379 0.64624 0.0
C1379 C 0.68326 0.14781 0.64087 0.0
C1380 C 0.60679 0.14741 0.66565 0.0
C1381 C 0.59147 0.15347 0.64518 0.0
C1382 C 0.58808 0.13309 0.68779 0.0
C1383 C 0.60302 0.12711 0.7104 0.0
C1384 C 0.61793 0.10735 0.70903 0.0
C1385 C 0.63197 0.10193 0.7305 0.0
C1386 C 0.63103 0.11593 0.7535 0.0
C1387 C 0.61594 0.13529 0.75509 0.0
C1388 C 0.6019 0.14082 0.73366 0.0
C1389 C 0.44915 0.09668 0.64693 0.0
C1390 C 0.43614 0.10626 0.66696 0.0
C1391 C 0.48129 0.10139 0.64814 0.0
C1392 C 0.50208 0.11774 0.66877 0.0
C1393 C 0.48826 0.12525 0.68955 0.0
C1394 C 0.45556 0.11928 0.68872 0.0
C1395 C 0.53856 0.12919 0.66771 0.0
C1396 C 0.55425 0.12398 0.68847 0.0
C1397 C 0.55808 0.14547 0.64615 0.0
C1398 C 0.54483 0.15605 0.62486 0.0
C1399 C 0.53107 0.17645 0.62914 0.0
C1400 C 0.51788 0.18571 0.60915 0.0
C1401 C 0.51851 0.17492 0.58475 0.0
C1402 C 0.53251 0.155 0.58026 0.0
C1403 C 0.54575 0.14567 0.60019 0.0
H1404 H 0.5082 0.18205 0.5693 0.0
H1405 H 0.64189 0.11169 0.7701 0.0
H1406 H 0.94226 0.32922 0.70605 0.0
H1407 H 0.93182 0.37556 0.71228 0.0
H1408 H 0.92391 0.38297 0.63191 0.0
H1409 H 0.93388 0.33688 0.62575 0.0
H1410 H 0.95792 0.44226 0.69498 0.0
H1411 H 0.85375 0.38376 0.61988 0.0
H1412 H 0.81387 0.32825 0.60384 0.0
H1413 H 0.81742 0.28494 0.6744 0.0
H1414 H 0.85725 0.34011 0.69084 0.0
H1415 H 0.91817 0.55827 0.64412 0.0
H1416 H 0.93395 0.51748 0.65579 0.0
H1417 H 0.83629 0.45437 0.68638 0.0
H1418 H 0.82007 0.4951 0.67388 0.0
H1419 H 0.85059 0.41896 0.65792 0.0
H1420 H 0.90888 0.49209 0.7242 0.0
H1421 H 0.9458 0.54491 0.74535 0.0
H1422 H 0.0282 0.55539 0.70183 0.0
H1423 H 0.99169 0.50286 0.68014 0.0
C1424 C 0.93896 0.34121 0.68976 0.0
C1425 C 0.93818 0.32887 0.66545 0.0
C1426 C 0.93302 0.36775 0.69331 0.0
C1427 C 0.92616 0.38227 0.67257 0.0
C1428 C 0.92843 0.37183 0.64825 0.0
C1429 C 0.93438 0.34556 0.64475 0.0
C1430 C 0.91398 0.40629 0.67585 0.0
C1431 C 0.93445 0.43722 0.68696 0.0
C1432 C 0.88275 0.39935 0.6663 0.0
C1433 C 0.85865 0.36608 0.65651 0.0
C1434 C 0.84596 0.36239 0.63198 0.0
C1435 C 0.82344 0.33097 0.62279 0.0
C1436 C 0.81323 0.30306 0.63804 0.0
C1437 C 0.82552 0.30652 0.66252 0.0
C1438 C 0.84813 0.33785 0.67176 0.0
C1439 C 0.90021 0.53602 0.65384 0.0
C1440 C 0.86778 0.52999 0.65799 0.0
C1441 C 0.90936 0.51265 0.66067 0.0
C1442 C 0.88649 0.48259 0.67213 0.0
C1443 C 0.85453 0.47724 0.67754 0.0
C1444 C 0.84532 0.50073 0.67065 0.0
C1445 C 0.89517 0.45585 0.6761 0.0
C1446 C 0.87398 0.4242 0.66624 0.0
C1447 C 0.92532 0.46192 0.68748 0.0
C1448 C 0.94745 0.4936 0.70041 0.0
C1449 C 0.93482 0.50577 0.71899 0.0
C1450 C 0.95569 0.53565 0.7311 0.0
C1451 C 0.98932 0.55352 0.7249 0.0
C1452 C 1.00215 0.54152 0.70661 0.0
C1453 C 0.98138 0.51167 0.69442 0.0
H1454 H 1.00544 0.57665 0.73431 0.0
H1455 H 0.79572 0.27878 0.63092 0.0
H1456 H 0.6976 0.60225 0.62349 0.0
H1457 H 0.64779 0.5482 0.62916 0.0
H1458 H 0.6692 0.55122 0.70837 0.0
H1459 H 0.7176 0.60643 0.70298 0.0
H1460 H 0.66215 0.49508 0.68438 0.0
H1461 H 0.59884 0.55159 0.68926 0.0
H1462 H 0.5785 0.58865 0.6752 0.0
H1463 H 0.54595 0.53589 0.60546 0.0
H1464 H 0.56535 0.49796 0.61925 0.0
H1465 H 0.53185 0.32722 0.68826 0.0
H1466 H 0.56582 0.38578 0.69945 0.0
H1467 H 0.5399 0.41327 0.62895 0.0
H1468 H 0.50354 0.35558 0.6192 0.0
H1469 H 0.54672 0.45614 0.65731 0.0
H1470 H 0.61778 0.40981 0.64362 0.0
H1471 H 0.63991 0.3723 0.65125 0.0
H1472 H 0.66384 0.40723 0.72734 0.0
H1473 H 0.64149 0.44469 0.72021 0.0
C1474 C 0.69079 0.59204 0.64232 0.0
C1475 C 0.71162 0.60864 0.6628 0.0
C1476 C 0.66236 0.56101 0.64555 0.0
C1477 C 0.65441 0.54548 0.66927 0.0
C1478 C 0.67433 0.56276 0.68998 0.0
C1479 C 0.70219 0.59436 0.68688 0.0
C1480 C 0.62775 0.51002 0.67162 0.0
C1481 C 0.63669 0.48658 0.67896 0.0
C1482 C 0.5948 0.49868 0.66371 0.0
C1483 C 0.58361 0.52189 0.65532 0.0
C1484 C 0.58745 0.54789 0.67091 0.0
C1485 C 0.57608 0.56907 0.66299 0.0
C1486 C 0.56124 0.56482 0.6394 0.0
C1487 C 0.55748 0.53919 0.62373 0.0
C1488 C 0.56845 0.5177 0.63166 0.0
C1489 C 0.53271 0.34574 0.67548 0.0
C1490 C 0.51548 0.33631 0.65243 0.0
C1491 C 0.55274 0.37945 0.68168 0.0
C1492 C 0.5568 0.40458 0.66469 0.0
C1493 C 0.53791 0.39494 0.64248 0.0
C1494 C 0.51729 0.36155 0.63667 0.0
C1495 C 0.58129 0.44072 0.66905 0.0
C1496 C 0.57199 0.46442 0.66307 0.0
C1497 C 0.61437 0.4523 0.67711 0.0
C1498 C 0.62755 0.42966 0.6815 0.0
C1499 C 0.62754 0.40928 0.66203 0.0
C1500 C 0.64015 0.38807 0.66626 0.0
C1501 C 0.65315 0.38729 0.6898 0.0
C1502 C 0.65366 0.40778 0.70914 0.0
C1503 C 0.64102 0.429 0.70503 0.0
H1504 H 0.66292 0.37087 0.69303 0.0
H1505 H 0.55254 0.58132 0.63331 0.0
H1506 H 0.81052 0.89111 0.72737 0.0
H1507 H 0.8356 0.95098 0.72305 0.0
H1508 H 0.83006 0.94141 0.64217 0.0
H1509 H 0.80567 0.88108 0.64653 0.0
H1510 H 0.88525 0.99679 0.65453 0.0
H1511 H 0.77183 0.95098 0.67615 0.0
H1512 H 0.72024 0.91703 0.7 0.0
H1513 H 0.76556 0.97357 0.76666 0.0
H1514 H 0.81762 1.00755 0.74331 0.0
H1515 H 0.91302 0.16397 0.64706 0.0
H1516 H 0.8884 0.10378 0.64228 0.0
H1517 H 0.89042 0.09351 0.72295 0.0
H1518 H 0.91406 0.15322 0.72767 0.0
H1519 H 0.8324 0.04749 0.70474 0.0
H1520 H 0.9482 0.08979 0.68175 0.0
H1521 H 0.99779 0.1245 0.65596 0.0
H1522 H 0.94435 0.07538 0.58899 0.0
H1523 H 0.89436 0.04052 0.61441 0.0
C1524 C 0.81504 0.90178 0.70864 0.0
C1525 C 0.80586 0.88129 0.6873 0.0
C1526 C 0.8292 0.93608 0.70616 0.0
C1527 C 0.83395 0.95092 0.68228 0.0
C1528 C 0.82646 0.93071 0.66083 0.0
C1529 C 0.8126 0.89622 0.66332 0.0
C1530 C 0.84549 0.98718 0.6801 0.0
C1531 C 0.87335 1.00774 0.66524 0.0
C1532 C 0.83008 1.00187 0.69391 0.0
C1533 C 0.79873 0.98164 0.70801 0.0
C1534 C 0.77088 0.95604 0.69594 0.0
C1535 C 0.74154 0.9368 0.70937 0.0
C1536 C 0.73964 0.94309 0.73484 0.0
C1537 C 0.76707 0.9687 0.74693 0.0
C1538 C 0.7965 0.98798 0.7336 0.0
C1539 C 0.90779 0.14871 0.66373 0.0
C1540 C 0.91444 0.1631 0.68781 0.0
C1541 C 0.89407 0.11434 0.66099 0.0
C1542 C 0.88752 0.09386 0.68226 0.0
C1543 C 0.89492 0.10853 0.70623 0.0
C1544 C 0.90852 0.14271 0.70893 0.0
C1545 C 0.87288 0.05716 0.68004 0.0
C1546 C 0.84419 0.03648 0.69394 0.0
C1547 C 0.88726 0.04245 0.6651 0.0
C1548 C 0.91752 0.06274 0.64994 0.0
C1549 C 0.94703 0.08646 0.66152 0.0
C1550 C 0.9752 0.10614 0.64698 0.0
C1551 C 0.97421 0.10217 0.62085 0.0
C1552 C 0.94508 0.07841 0.60923 0.0
C1553 C 0.91685 0.05864 0.6237 0.0
H1554 H 0.99602 0.11748 0.60962 0.0
H1555 H 0.71691 0.92817 0.74521 0.0
H1556 H 0.8769 0.75235 0.64027 0.0
H1557 H 0.93486 0.79382 0.63428 0.0
H1558 H 0.95426 0.7826 0.71228 0.0
H1559 H 0.89532 0.74603 0.71893 0.0
H1560 H 0.98599 0.83925 0.70641 0.0
H1561 H 1.0047 0.76366 0.6386 0.0
H1562 H 0.99104 0.73498 0.59747 0.0
H1563 H 0.97099 0.80821 0.56653 0.0
H1564 H 0.9863 0.83818 0.607 0.0
H1565 H 0.16076 0.87478 0.66926 0.0
H1566 H 0.10083 0.8435 0.66432 0.0
H1567 H 0.09521 0.93086 0.68147 0.0
H1568 H 0.15548 0.96218 0.68751 0.0
H1569 H 0.05701 0.84574 0.63477 0.0
H1570 H 0.02168 0.90751 0.71195 0.0
H1571 H 0.04457 0.93988 0.75086 0.0
H1572 H 0.10234 0.89269 0.76339 0.0
H1573 H 0.0795 0.85981 0.72474 0.0
C1574 C 0.89383 0.75859 0.65597 0.0
C1575 C 0.88174 0.74534 0.67997 0.0
C1576 C 0.92752 0.78211 0.65245 0.0
C1577 C 0.95035 0.79162 0.67254 0.0
C1578 C 0.93792 0.77678 0.69625 0.0
C1579 C 0.90408 0.75513 0.70008 0.0
C1580 C 0.9864 0.81826 0.67019 0.0
C1581 C 1.0012 0.8401 0.69065 0.0
C1582 C 1.00713 0.82161 0.64938 0.0
C1583 C 0.99497 0.8021 0.62606 0.0
C1584 C 0.99668 0.77314 0.62313 0.0
C1585 C 0.98907 0.75694 0.59989 0.0
C1586 C 0.97929 0.76925 0.57963 0.0
C1587 C 0.97803 0.79836 0.58234 0.0
C1588 C 0.98649 0.81514 0.60532 0.0
C1589 C 0.14686 0.88743 0.67211 0.0
C1590 C 0.16304 0.92094 0.67927 0.0
C1591 C 0.11248 0.86951 0.66901 0.0
C1592 C 0.09317 0.88451 0.6729 0.0
C1593 C 0.10936 0.91845 0.6788 0.0
C1594 C 0.14392 0.93646 0.68202 0.0
C1595 C 0.05619 0.86389 0.67177 0.0
C1596 C 0.04143 0.84407 0.65055 0.0
C1597 C 0.03555 0.86218 0.69193 0.0
C1598 C 0.0492 0.88155 0.71532 0.0
C1599 C 0.03922 0.90403 0.72306 0.0
C1600 C 0.05218 0.92245 0.74506 0.0
C1601 C 0.07499 0.91844 0.75954 0.0
C1602 C 0.08477 0.89588 0.75211 0.0
C1603 C 0.07185 0.87736 0.73015 0.0
H1604 H 0.08501 0.93274 0.77654 0.0
H1605 H 0.97317 0.75649 0.56175 0.0
H1606 H 0.28693 0.13224 0.73065 0.0
H1607 H 0.25126 0.15664 0.72696 0.0
H1608 H 0.26506 0.16337 0.64637 0.0
H1609 H 0.30042 0.13825 0.65009 0.0
H1610 H 0.26338 0.21538 0.71107 0.0
H1611 H 0.19393 0.15586 0.619 0.0
H1612 H 0.17679 0.10536 0.594 0.0
H1613 H 0.17418 0.0524 0.66104 0.0
H1614 H 0.19086 0.10244 0.68646 0.0
H1615 H 0.17655 0.29688 0.6762 0.0
H1616 H 0.21034 0.27049 0.67283 0.0
H1617 H 0.12567 0.17654 0.69258 0.0
H1618 H 0.09149 0.20292 0.69575 0.0
H1619 H 0.16269 0.1679 0.65763 0.0
H1620 H 0.18384 0.22479 0.73668 0.0
H1621 H 0.19913 0.27257 0.76442 0.0
H1622 H 0.29454 0.32541 0.72884 0.0
H1623 H 0.27963 0.2781 0.70062 0.0
C1624 C 0.28242 0.13903 0.71215 0.0
C1625 C 0.29725 0.13427 0.69076 0.0
C1626 C 0.26208 0.15305 0.71005 0.0
C1627 C 0.25537 0.16199 0.68641 0.0
C1628 C 0.26961 0.15657 0.66484 0.0
C1629 C 0.2901 0.14253 0.66698 0.0
C1630 C 0.23354 0.17698 0.68469 0.0
C1631 C 0.24148 0.20505 0.69926 0.0
C1632 C 0.20463 0.1634 0.66957 0.0
C1633 C 0.19397 0.133 0.65456 0.0
C1634 C 0.18956 0.13339 0.6284 0.0
C1635 C 0.17995 0.10486 0.61417 0.0
C1636 C 0.17451 0.07572 0.62591 0.0
C1637 C 0.17852 0.07501 0.65195 0.0
C1638 C 0.18808 0.10346 0.66627 0.0
C1639 C 0.165 0.27054 0.67971 0.0
C1640 C 0.13134 0.25214 0.68662 0.0
C1641 C 0.18441 0.25544 0.67777 0.0
C1642 C 0.17088 0.22157 0.68297 0.0
C1643 C 0.13684 0.20272 0.68857 0.0
C1644 C 0.11726 0.21783 0.69035 0.0
C1645 C 0.19266 0.20641 0.68395 0.0
C1646 C 0.18475 0.17838 0.66926 0.0
C1647 C 0.22138 0.21967 0.69931 0.0
C1648 C 0.23047 0.24805 0.71635 0.0
C1649 C 0.20799 0.2467 0.73465 0.0
C1650 C 0.2166 0.27368 0.75047 0.0
C1651 C 0.24775 0.30205 0.74835 0.0
C1652 C 0.2704 0.30345 0.73043 0.0
C1653 C 0.26188 0.27656 0.71452 0.0
H1654 H 0.25437 0.32291 0.76062 0.0
H1655 H 0.16712 0.05367 0.61485 0.0
H1656 H 0.07994 0.37311 0.26503 0.0
H1657 H 0.07866 0.39362 0.22342 0.0
H1658 H 0.17753 0.4121 0.20896 0.0
H1659 H 0.17927 0.39167 0.25161 0.0
H1660 H 0.16934 0.46432 0.1924 0.0
H1661 H 0.11327 0.34872 0.17997 0.0
H1662 H 0.07413 0.28975 0.18824 0.0
H1663 H 0.99222 0.30691 0.18025 0.0
H1664 H 0.03084 0.36612 0.17242 0.0
H1665 H 0.12966 0.49205 0.06279 0.0
H1666 H 0.15049 0.4777 0.10063 0.0
H1667 H 0.05718 0.44654 0.13791 0.0
H1668 H 0.03644 0.46023 0.10032 0.0
H1669 H 0.07216 0.39794 0.13767 0.0
H1670 H 0.13137 0.51617 0.15645 0.0
H1671 H 0.17161 0.57441 0.14646 0.0
H1672 H 0.2489 0.55022 0.1393 0.0
H1673 H 0.20901 0.49176 0.14905 0.0
C1674 C 0.10155 0.38128 0.25316 0.0
C1675 C 0.12972 0.38047 0.26188 0.0
C1676 C 0.10067 0.39298 0.22912 0.0
C1677 C 0.12779 0.40416 0.21272 0.0
C1678 C 0.15616 0.40349 0.22117 0.0
C1679 C 0.15704 0.39152 0.24548 0.0
C1680 C 0.12569 0.41669 0.1871 0.0
C1681 C 0.14843 0.44955 0.18019 0.0
C1682 C 0.09848 0.39764 0.17095 0.0
C1683 C 0.07504 0.36199 0.17577 0.0
C1684 C 0.08693 0.34001 0.1802 0.0
C1685 C 0.06482 0.30651 0.18478 0.0
C1686 C 0.03071 0.2946 0.18481 0.0
C1687 C 1.01864 0.31617 0.18023 0.0
C1688 C 0.04065 0.34971 0.17571 0.0
C1689 C 0.11415 0.48338 0.07943 0.0
C1690 C 0.08134 0.47717 0.07854 0.0
C1691 C 0.12598 0.4749 0.10103 0.0
C1692 C 0.10528 0.46054 0.12216 0.0
C1693 C 0.0736 0.45719 0.12188 0.0
C1694 C 0.06185 0.46541 0.10043 0.0
C1695 C 0.11463 0.44602 0.14373 0.0
C1696 C 0.09327 0.41259 0.14973 0.0
C1697 C 0.14322 0.46443 0.15875 0.0
C1698 C 0.16718 0.49959 0.15323 0.0
C1699 C 0.15691 0.52325 0.15259 0.0
C1700 C 0.17966 0.5563 0.14702 0.0
C1701 C 0.21277 0.566 0.1422 0.0
C1702 C 0.22324 0.54268 0.14303 0.0
C1703 C 0.20059 0.5096 0.14862 0.0
H1704 H 0.23034 0.59159 0.13786 0.0
H1705 H 1.01364 0.26865 0.18835 0.0
H1706 H 0.69429 0.79373 0.24712 0.0
H1707 H 0.67526 0.76846 0.20551 0.0
H1708 H 0.59694 0.68067 0.24069 0.0
H1709 H 0.61646 0.70536 0.28199 0.0
H1710 H 0.62287 0.66185 0.20729 0.0
H1711 H 0.5851 0.74056 0.20613 0.0
H1712 H 0.59061 0.79578 0.20964 0.0
H1713 H 0.66036 0.83103 0.1485 0.0
H1714 H 0.65567 0.77616 0.14488 0.0
H1715 H 0.54586 0.58659 0.08959 0.0
H1716 H 0.552 0.61319 0.13097 0.0
H1717 H 0.64184 0.69863 0.1052 0.0
H1718 H 0.63611 0.67249 0.06477 0.0
H1719 H 0.60489 0.71702 0.13397 0.0
H1720 H 0.64597 0.64027 0.13776 0.0
H1721 H 0.64075 0.58521 0.1338 0.0
H1722 H 0.56417 0.54657 0.19 0.0
H1723 H 0.56851 0.6013 0.19398 0.0
C1724 C 0.67268 0.76933 0.24591 0.0
C1725 C 0.65689 0.75168 0.26793 0.0
C1726 C 0.66174 0.75477 0.22206 0.0
C1727 C 0.63433 0.72252 0.21968 0.0
C1728 C 0.61819 0.70538 0.24175 0.0
C1729 C 0.62937 0.71965 0.26546 0.0
C1730 C 0.62309 0.7059 0.19451 0.0
C1731 C 0.61836 0.67383 0.19147 0.0
C1732 C 0.61766 0.72139 0.17345 0.0
C1733 C 0.62025 0.75431 0.1754 0.0
C1734 C 0.60178 0.76014 0.19354 0.0
C1735 C 0.60474 0.79138 0.19554 0.0
C1736 C 0.62589 0.81692 0.17935 0.0
C1737 C 0.64403 0.81124 0.16106 0.0
C1738 C 0.64121 0.78007 0.15902 0.0
C1739 C 0.56641 0.61131 0.09265 0.0
C1740 C 0.59046 0.62731 0.07379 0.0
C1741 C 0.57007 0.62645 0.11633 0.0
C1742 C 0.59756 0.65797 0.12133 0.0
C1743 C 0.62038 0.67448 0.10196 0.0
C1744 C 0.61705 0.6593 0.07872 0.0
C1745 C 0.60457 0.67315 0.14701 0.0
C1746 C 0.60882 0.70498 0.15004 0.0
C1747 C 0.60954 0.65749 0.16808 0.0
C1748 C 0.60727 0.62475 0.16595 0.0
C1749 C 0.62784 0.61997 0.14914 0.0
C1750 C 0.62506 0.58884 0.1469 0.0
C1751 C 0.60209 0.5624 0.16158 0.0
C1752 C 0.5819 0.56706 0.1786 0.0
C1753 C 0.5845 0.59812 0.18085 0.0
H1754 H 0.59998 0.53832 0.15982 0.0
H1755 H 0.62817 0.84109 0.18093 0.0
H1756 H 0.38039 0.98668 0.06893 0.0
H1757 H 0.35185 0.96708 0.10887 0.0
H1758 H 0.43214 0.9551 0.13691 0.0
H1759 H 0.46129 0.97513 0.09623 0.0
H1760 H 0.37398 0.90496 0.15317 0.0
H1761 H 0.42426 0.02122 0.15531 0.0
H1762 H 0.44091 0.07897 0.14486 0.0
H1763 H 0.33891 0.05412 0.14383 0.0
H1764 H 0.32157 0.99608 0.1539 0.0
H1765 H 0.33575 0.91548 0.28306 0.0
H1766 H 0.35972 0.92181 0.2411 0.0
H1767 H 0.27245 0.91631 0.2083 0.0
H1768 H 0.24791 0.90928 0.25062 0.0
H1769 H 0.33424 0.97366 0.19502 0.0
H1770 H 0.28697 0.8556 0.1976 0.0
H1771 H 0.27656 0.80297 0.21659 0.0
H1772 H 0.38073 0.83647 0.21503 0.0
H1773 H 0.39186 0.88955 0.19642 0.0
C1774 C 0.39231 0.98023 0.08358 0.0
C1775 C 0.42363 0.98336 0.07951 0.0
C1776 C 0.3758 0.96887 0.10652 0.0
C1777 C 0.39007 0.96035 0.12633 0.0
C1778 C 0.42067 0.96181 0.12204 0.0
C1779 C 0.43733 0.97321 0.09879 0.0
C1780 C 0.37283 0.95051 0.15134 0.0
C1781 C 0.36564 0.9202 0.16242 0.0
C1782 C 0.36152 0.97008 0.16353 0.0
C1783 C 0.37161 1.00421 0.15517 0.0
C1784 C 0.40534 0.02792 0.15245 0.0
C1785 C 0.41491 0.06077 0.14678 0.0
C1786 C 0.39099 0.07024 0.14391 0.0
C1787 C 0.35741 0.04678 0.14625 0.0
C1788 C 0.3477 0.0139 0.15187 0.0
C1789 C 0.32135 0.915 0.26688 0.0
C1790 C 0.28996 0.91197 0.27012 0.0
C1791 C 0.33506 0.91846 0.24287 0.0
C1792 C 0.31791 0.91942 0.22148 0.0
C1793 C 0.28607 0.91544 0.22455 0.0
C1794 C 0.27198 0.9113 0.24867 0.0
C1795 C 0.33483 0.92799 0.19646 0.0
C1796 C 0.34218 0.95824 0.1855 0.0
C1797 C 0.34698 0.9088 0.18489 0.0
C1798 C 0.34027 0.8767 0.19577 0.0
C1799 C 0.3077 0.85187 0.20148 0.0
C1800 C 0.30166 0.82193 0.21215 0.0
C1801 C 0.32797 0.81641 0.21704 0.0
C1802 C 0.36038 0.84079 0.21123 0.0
C1803 C 0.36656 0.87079 0.20059 0.0
H1804 H 0.32326 0.79321 0.22527 0.0
H1805 H 0.39846 0.09573 0.1397 0.0
H1806 H 0.52141 0.09756 0.93869 0.0
H1807 H 0.51693 0.11995 0.89796 0.0
H1808 H 0.44025 0.02269 0.87568 0.0
H1809 H 0.4449 1.0004 0.91648 0.0
H1810 H 0.47769 0.05499 0.83576 0.0
H1811 H 0.42168 0.07825 0.90105 0.0
H1812 H 0.4125 0.10088 0.94017 0.0
H1813 H 0.48404 0.19922 0.91654 0.0
H1814 H 0.49395 0.17712 0.87735 0.0
H1815 H 0.36179 0.08974 0.77082 0.0
H1816 H 0.38942 0.08149 0.80662 0.0
H1817 H 0.48363 0.15791 0.77852 0.0
H1818 H 0.45596 0.16459 0.74113 0.0
H1819 H 0.44764 0.14286 0.84116 0.0
H1820 H 0.49553 0.11341 0.77066 0.0
H1821 H 0.49276 0.08485 0.73107 0.0
H1822 H 0.4288 0.99115 0.76603 0.0
H1823 H 0.42886 0.01923 0.80522 0.0
C1824 C 0.5047 0.08074 0.9246 0.0
C1825 C 0.48427 0.04704 0.93039 0.0
C1826 C 0.50172 0.09366 0.90148 0.0
C1827 C 0.47791 0.07319 0.88373 0.0
C1828 C 0.4589 0.03907 0.88892 0.0
C1829 C 0.46182 0.02619 0.91212 0.0
C1830 C 0.47108 0.08747 0.8607 0.0
C1831 C 0.47135 0.07437 0.83697 0.0
C1832 C 0.46291 0.11295 0.86206 0.0
C1833 C 0.45886 0.126 0.88641 0.0
C1834 C 0.43589 0.10464 0.90438 0.0
C1835 C 0.43044 0.11739 0.92651 0.0
C1836 C 0.44765 0.15146 0.93078 0.0
C1837 C 0.47074 0.17283 0.91316 0.0
C1838 C 0.47629 0.16021 0.89101 0.0
C1839 C 0.38841 0.10467 0.77199 0.0
C1840 C 0.40662 0.12697 0.75252 0.0
C1841 C 0.40419 0.09998 0.79262 0.0
C1842 C 0.4387 0.11814 0.79483 0.0
C1843 C 0.45699 0.14283 0.77678 0.0
C1844 C 0.4411 0.14701 0.75561 0.0
C1845 C 0.45464 0.11065 0.81629 0.0
C1846 C 0.45532 0.12445 0.83986 0.0
C1847 C 0.46297 0.08533 0.81484 0.0
C1848 C 0.46156 0.0686 0.79076 0.0
C1849 C 0.4799 0.08683 0.76968 0.0
C1850 C 0.47888 0.0707 0.74728 0.0
C1851 C 0.46041 0.03625 0.74591 0.0
C1852 C 0.44279 0.01787 0.76696 0.0
C1853 C 0.44302 0.0339 0.7892 0.0
H1854 H 0.45991 0.02381 0.72861 0.0
H1855 H 0.44285 0.1614 0.94757 0.0
H1856 H 1.0094 0.38231 0.93929 0.0
H1857 H 0.98958 0.35723 0.89833 0.0
H1858 H 0.97395 0.43752 0.87681 0.0
H1859 H 0.99415 0.46328 0.91844 0.0
H1860 H 0.9198 0.37319 0.86374 0.0
H1861 H 0.03638 0.43548 0.85172 0.0
H1862 H 0.0953 0.4565 0.86136 0.0
H1863 H 0.07997 0.35794 0.85721 0.0
H1864 H 1.0208 0.3362 0.848 0.0
H1865 H 0.89507 0.30553 0.73552 0.0
H1866 H 0.90792 0.33995 0.77347 0.0
H1867 H 0.94445 0.28165 0.80978 0.0
H1868 H 0.93237 0.24807 0.77198 0.0
H1869 H 0.98991 0.34468 0.81121 0.0
H1870 H 0.87219 0.28187 0.82874 0.0
H1871 H 0.81313 0.26049 0.81924 0.0
H1872 H 0.83093 0.35976 0.8122 0.0
H1873 H 0.89021 0.38173 0.82136 0.0
C1874 C 1.00194 0.39495 0.92597 0.0
C1875 C 1.00359 0.42504 0.93233 0.0
C1876 C 0.9906 0.38046 0.90238 0.0
C1877 C 0.98035 0.39542 0.88428 0.0
C1878 C 0.98174 0.42546 0.89042 0.0
C1879 C 0.99356 0.44031 0.91415 0.0
C1880 C 0.96839 0.37909 0.85918 0.0
C1881 C 0.93533 0.3675 0.85198 0.0
C1882 C 0.98838 0.3712 0.84385 0.0
C1883 C 0.02401 0.38417 0.8494 0.0
C1884 C 0.04547 0.41822 0.8531 0.0
C1885 C 0.07895 0.43028 0.85845 0.0
C1886 C 0.09135 0.40856 0.85996 0.0
C1887 C 0.07032 0.37474 0.85607 0.0
C1888 C 0.0368 0.36254 0.85077 0.0
C1889 C 0.90466 0.29934 0.75196 0.0
C1890 C 0.91276 0.27409 0.75072 0.0
C1891 C 0.91227 0.31922 0.77365 0.0
C1892 C 0.92763 0.31381 0.79457 0.0
C1893 C 0.93301 0.28675 0.79393 0.0
C1894 C 0.92569 0.26722 0.77237 0.0
C1895 C 0.94089 0.33742 0.81631 0.0
C1896 C 0.9744 0.35058 0.82279 0.0
C1897 C 0.92128 0.34663 0.83088 0.0
C1898 C 0.88568 0.33343 0.82544 0.0
C1899 C 0.86356 0.29913 0.82496 0.0
C1900 C 0.83003 0.28691 0.81968 0.0
C1901 C 0.8183 0.30875 0.81504 0.0
C1902 C 0.84006 0.34287 0.81575 0.0
C1903 C 0.87361 0.35522 0.821 0.0
H1904 H 0.79234 0.29924 0.81096 0.0
H1905 H 0.11728 0.41795 0.86409 0.0
H1906 H 0.74341 0.58533 0.7333 0.0
H1907 H 0.71201 0.56106 0.77243 0.0
H1908 H 0.75467 0.65869 0.80464 0.0
H1909 H 0.7869 0.68226 0.76665 0.0
H1910 H 0.75006 0.61984 0.83959 0.0
H1911 H 0.67228 0.61092 0.77265 0.0
H1912 H 0.64098 0.58879 0.73308 0.0
H1913 H 0.60221 0.48968 0.76066 0.0
H1914 H 0.63337 0.51113 0.80024 0.0
H1915 H 0.6447 0.63096 0.92386 0.0
H1916 H 0.67086 0.63193 0.88395 0.0
H1917 H 0.62092 0.52537 0.88404 0.0
H1918 H 0.59411 0.52431 0.92451 0.0
H1919 H 0.62748 0.55442 0.83447 0.0
H1920 H 0.69661 0.56238 0.90308 0.0
H1921 H 0.72413 0.58281 0.94402 0.0
H1922 H 0.77862 0.68141 0.91409 0.0
H1923 H 0.75107 0.66163 0.873 0.0
C1924 C 0.74672 0.60139 0.74905 0.0
C1925 C 0.76722 0.63587 0.74663 0.0
C1926 C 0.72831 0.58757 0.77131 0.0
C1927 C 0.73003 0.60802 0.79149 0.0
C1928 C 0.75239 0.64213 0.78953 0.0
C1929 C 0.77081 0.65573 0.7676 0.0
C1930 C 0.70838 0.59509 0.8145 0.0
C1931 C 0.72327 0.60557 0.8383 0.0
C1932 C 0.67331 0.57521 0.81336 0.0
C1933 C 0.65535 0.56261 0.78928 0.0
C1934 C 0.65721 0.58443 0.77019 0.0
C1935 C 0.63939 0.57202 0.74784 0.0
C1936 C 0.61952 0.53789 0.74446 0.0
C1937 C 0.61753 0.5161 0.76335 0.0
C1938 C 0.63524 0.52835 0.78572 0.0
C1939 C 0.6387 0.60763 0.91521 0.0
C1940 C 0.61755 0.57757 0.92746 0.0
C1941 C 0.6538 0.60823 0.89237 0.0
C1942 C 0.64854 0.57879 0.88119 0.0
C1943 C 0.62554 0.54844 0.89237 0.0
C1944 C 0.6101 0.54782 0.91541 0.0
C1945 C 0.66928 0.58073 0.85902 0.0
C1946 C 0.6543 0.56817 0.83562 0.0
C1947 C 0.70432 0.59855 0.86046 0.0
C1948 C 0.72166 0.61051 0.88495 0.0
C1949 C 0.71437 0.58845 0.90524 0.0
C1950 C 0.72997 0.59992 0.92849 0.0
C1951 C 0.7531 0.63341 0.93168 0.0
C1952 C 0.76072 0.65547 0.91159 0.0
C1953 C 0.74516 0.64412 0.88829 0.0
H1954 H 0.76516 0.64226 0.94969 0.0
H1955 H 0.6058 0.52826 0.72717 0.0
H1956 H 0.69267 0.7844 0.43592 0.0
H1957 H 0.71468 0.77471 0.47472 0.0
H1958 H 0.80776 0.80474 0.43754 0.0
H1959 H 0.78568 0.81508 0.3985 0.0
H1960 H 0.78242 0.7436 0.46266 0.0
H1961 H 0.80605 0.85249 0.48296 0.0
H1962 H 0.7947 0.89851 0.48722 0.0
H1963 H 0.71709 0.84178 0.54033 0.0
H1964 H 0.72761 0.79519 0.53611 0.0
H1965 H 0.8378 0.71602 0.58466 0.0
H1966 H 0.8347 0.73928 0.54369 0.0
H1967 H 0.74065 0.72892 0.56504 0.0
H1968 H 0.74367 0.70628 0.60547 0.0
H1969 H 0.77828 0.78812 0.54643 0.0
H1970 H 0.74925 0.67706 0.52149 0.0
H1971 H 0.75875 0.62989 0.5166 0.0
H1972 H 0.8455 0.69008 0.47209 0.0
H1973 H 0.83674 0.73775 0.477 0.0
C1974 C 0.71828 0.79021 0.43628 0.0
C1975 C 0.73762 0.80107 0.41426 0.0
C1976 C 0.7308 0.78438 0.45845 0.0
C1977 C 0.76298 0.789 0.45921 0.0
C1978 C 0.78292 0.8011 0.4375 0.0
C1979 C 0.77047 0.80746 0.41529 0.0
C1980 C 0.77452 0.77934 0.48238 0.0
C1981 C 0.7823 0.75388 0.48094 0.0
C1982 C 0.77381 0.79221 0.50635 0.0
C1983 C 0.76752 0.82026 0.5091 0.0
C1984 C 0.78641 0.84973 0.49542 0.0
C1985 C 0.78015 0.87593 0.49785 0.0
C1986 C 0.75517 0.87305 0.51401 0.0
C1987 C 0.73644 0.84397 0.52782 0.0
C1988 C 0.74257 0.81768 0.52544 0.0
C1989 C 0.81629 0.7183 0.58044 0.0
C1990 C 0.79108 0.7093 0.59854 0.0
C1991 C 0.81454 0.7317 0.55699 0.0
C1992 C 0.78743 0.7361 0.55112 0.0
C1993 C 0.76202 0.72626 0.56901 0.0
C1994 C 0.76379 0.71312 0.59225 0.0
C1995 C 0.78522 0.75161 0.5269 0.0
C1996 C 0.77909 0.77821 0.52815 0.0
C1997 C 0.78734 0.73967 0.50283 0.0
C1998 C 0.7926 0.71107 0.4999 0.0
C1999 C 0.77052 0.68031 0.51085 0.0
C2000 C 0.77573 0.65347 0.50804 0.0
C2001 C 0.80278 0.65702 0.49412 0.0
C2002 C 0.82461 0.68739 0.48292 0.0
C2003 C 0.81953 0.71432 0.48571 0.0
H2004 H 0.80677 0.63621 0.49196 0.0
H2005 H 0.75035 0.89337 0.51586 0.0
H2006 H 0.2179 0.90891 0.43746 0.0
H2007 H 0.22862 0.93977 0.47723 0.0
H2008 H 0.29504 0.03027 0.4382 0.0
H2009 H 0.28515 0.99977 0.3993 0.0
H2010 H 0.32486 0.02481 0.47747 0.0
H2011 H 0.2183 0.01404 0.46228 0.0
H2012 H 0.15825 0.98408 0.45381 0.0
H2013 H 0.14074 0.92989 0.52299 0.0
H2014 H 0.20076 0.95922 0.53171 0.0
H2015 H 0.3618 0.1321 0.58376 0.0
H2016 H 0.34137 0.10764 0.54194 0.0
H2017 H 0.27399 0.01425 0.57696 0.0
H2018 H 0.29348 0.03841 0.61815 0.0
H2019 H 0.24402 0.02361 0.53876 0.0
H2020 H 0.35042 0.03237 0.55292 0.0
H2021 H 0.41045 0.06172 0.56143 0.0
H2022 H 0.42831 0.1188 0.49373 0.0
H2023 H 0.36829 0.09018 0.48504 0.0
C2024 C 0.2337 0.93553 0.43729 0.0
C2025 C 0.24985 0.95199 0.41501 0.0
C2026 C 0.24009 0.9532 0.46006 0.0
C2027 C 0.2627 0.98755 0.46084 0.0
C2028 C 0.27756 1.00394 0.4383 0.0
C2029 C 0.27139 0.98642 0.41586 0.0
C2030 C 0.27308 1.00638 0.48508 0.0
C2031 C 0.30712 0.02491 0.49066 0.0
C2032 C 0.25014 1.00617 0.50267 0.0
C2033 C 0.21405 0.9886 0.49752 0.0
C2034 C 0.20167 0.99555 0.47559 0.0
C2035 C 0.16763 0.97872 0.47077 0.0
C2036 C 0.1457 0.95504 0.48782 0.0
C2037 C 0.15776 0.94821 0.50978 0.0
C2038 C 0.19178 0.96495 0.51468 0.0
C2039 C 0.34229 0.10657 0.58251 0.0
C2040 C 0.3297 0.0872 0.60441 0.0
C2041 C 0.33075 0.09247 0.55857 0.0
C2042 C 0.30637 0.0588 0.55616 0.0
C2043 C 0.2928 0.04013 0.57811 0.0
C2044 C 0.3043 0.05405 0.60179 0.0
C2045 C 0.29577 0.04208 0.53109 0.0
C2046 C 0.26174 0.02379 0.52542 0.0
C2047 C 0.31871 0.04242 0.5134 0.0
C2048 C 0.35481 0.05949 0.51854 0.0
C2049 C 0.36711 0.0514 0.53997 0.0
C2050 C 0.40114 0.06787 0.54481 0.0
C2051 C 0.42317 0.09221 0.52819 0.0
C2052 C 0.41121 0.10003 0.50663 0.0
C2053 C 0.37719 0.0837 0.50175 0.0
H2054 H 0.44951 0.10494 0.53197 0.0
H2055 H 0.11936 0.94203 0.48405 0.0
H2056 H 0.921 0.21665 0.58465 0.0
H2057 H 0.9472 0.22172 0.5434 0.0
H2058 H 0.04317 0.28463 0.57633 0.0
H2059 H 1.0176 0.28059 0.61673 0.0
H2060 H 0.04003 0.31185 0.53578 0.0
H2061 H 1.01501 0.2024 0.5579 0.0
H2062 H 0.97907 0.14429 0.57077 0.0
H2063 H 0.92204 0.12563 0.50309 0.0
H2064 H 0.95735 0.1838 0.48998 0.0
H2065 H 0.12698 0.29333 0.42137 0.0
H2066 H 0.10208 0.27195 0.46334 0.0
H2067 H 0.02249 0.29036 0.44558 0.0
H2068 H 0.04598 0.31003 0.40415 0.0
H2069 H 0.02187 0.21981 0.47929 0.0
H2070 H 0.03872 0.34864 0.49749 0.0
H2071 H 0.07744 0.40741 0.48795 0.0
H2072 H 0.15681 0.38656 0.47899 0.0
H2073 H 0.11883 0.32794 0.48934 0.0
C2074 C 0.94762 0.23153 0.58311 0.0
C2075 C 0.96687 0.2485 0.60424 0.0
C2076 C 0.9627 0.23425 0.55947 0.0
C2077 C 0.99738 0.25362 0.55654 0.0
C2078 C 1.01645 0.26977 0.57779 0.0
C2079 C 1.00155 0.26733 0.60111 0.0
C2080 C 1.01424 0.25889 0.53143 0.0
C2081 C 0.03608 0.29154 0.52364 0.0
C2082 C 1.00969 0.23262 0.51541 0.0
C2083 C 0.98864 0.19755 0.52307 0.0
C2084 C 0.99466 0.18596 0.54584 0.0
C2085 C 0.97443 0.15301 0.55317 0.0
C2086 C 0.94824 0.1313 0.53779 0.0
C2087 C 0.94231 0.14249 0.515 0.0
C2088 C 0.96245 0.17545 0.5076 0.0
C2089 C 0.10379 0.29203 0.42625 0.0
C2090 C 0.08901 0.3043 0.40952 0.0
C2091 C 0.08957 0.27983 0.45023 0.0
C2092 C 0.06052 0.27987 0.45772 0.0
C2093 C 0.04495 0.29025 0.44042 0.0
C2094 C 0.05879 0.30198 0.41672 0.0
C2095 C 0.04764 0.27263 0.48412 0.0
C2096 C 0.02608 0.23985 0.49183 0.0
C2097 C 0.05291 0.29869 0.50048 0.0
C2098 C 0.07579 0.33379 0.49379 0.0
C2099 C 0.06445 0.35662 0.49353 0.0
C2100 C 0.08631 0.38993 0.48813 0.0
C2101 C 0.11956 0.4007 0.48283 0.0
C2102 C 0.13103 0.37817 0.483 0.0
C2103 C 0.10933 0.34489 0.48862 0.0
H2104 H 0.13642 0.42649 0.47858 0.0
H2105 H 0.9326 0.1058 0.54352 0.0
loop_
_geom_bond_atom_site_label_1
_geom_bond_atom_site_label_2
_geom_bond_distance
_geom_bond_site_symmetry_2
_ccdc_geom_bond_type
Gd0 N31 2.661 1_654 S
Gd0 N37 2.601 1_655 S
Gd0 O44 2.545 . S
Gd0 O45 2.606 . S
Gd0 O47 2.429 1_655 S
Gd0 O48 2.545 . S
Gd0 O49 2.412 1_554 S
Gd0 O51 2.362 1_655 S
Gd0 O52 2.324 1_554 S
Gd0 C59 2.828 . S
Gd1 N10 2.661 1_556 S
Gd1 N14 2.601 . S
Gd1 O45 2.362 1_456 S
Gd1 O46 2.324 1_556 S
Gd1 O50 2.545 . S
Gd1 O51 2.606 1_556 S
Gd1 O53 2.429 . S
Gd1 O54 2.545 . S
Gd1 O55 2.412 1_556 S
Gd1 C68 2.828 . S
C2 C5 1.415 . S
C2 C7 1.431 1_554 S
C2 C8 1.412 . S
C3 C6 1.437 . S
C3 C7 1.317 . S
C3 H22 0.929 . S
C4 C5 1.431 1_456 S
C4 C6 1.413 1_455 S
C4 N14 1.359 . S
C5 C2 1.415 . S
C5 C4 1.431 1_654 S
C5 N10 1.348 1_655 S
C6 C3 1.437 . S
C6 C4 1.413 1_655 S
C6 C16 1.391 1_655 S
C7 C2 1.431 1_556 S
C7 C3 1.317 . S
C7 H18 0.930 1_556 S
C8 C2 1.412 . S
C8 C9 1.355 . S
C8 H20 0.930 . S
C9 C8 1.355 . S
C9 C11 1.402 . S
C9 H21 0.930 . S
N10 Gd1 2.661 1_554 S
N10 C5 1.348 1_455 S
N10 C11 1.307 1_455 S
C11 C9 1.402 . S
C11 N10 1.307 1_655 S
C11 H12 0.930 1_655 S
H12 C11 0.930 1_455 S
C13 N14 1.334 . S
C13 C15 1.394 . S
C13 H17 0.930 . S
N14 Gd1 2.601 . S
N14 C4 1.359 . S
N14 C13 1.334 . S
C15 C13 1.394 . S
C15 C16 1.359 . S
C15 H27 0.930 . S
C16 C6 1.391 1_455 S
C16 C15 1.359 . S
C16 H28 0.929 1_455 S
H17 C13 0.930 . S
H18 C7 0.930 1_554 S
H19 C36 0.930 . S
H20 C8 0.930 . S
H21 C9 0.930 . S
H22 C3 0.929 . S
H23 C41 0.930 . S
H24 C32 0.930 . S
H25 C33 0.930 . S
H26 C57 0.929 . S
H27 C15 0.930 . S
H28 C16 0.929 1_655 S
H29 C58 0.930 . S
H30 C39 0.930 1_655 S
N31 Gd0 2.661 1_456 S
N31 C35 1.350 1_556 S
N31 C36 1.307 . S
C32 H24 0.930 . S
C32 C33 1.355 . S
C32 C34 1.412 . S
C33 H25 0.930 . S
C33 C32 1.355 . S
C33 C36 1.402 . S
C34 C32 1.412 . S
C34 C35 1.417 1_556 S
C34 C58 1.431 1_556 S
C35 N31 1.350 1_554 S
C35 C34 1.417 1_554 S
C35 C38 1.426 . S
C36 H19 0.930 . S
C36 N31 1.307 . S
C36 C33 1.402 . S
N37 Gd0 2.601 1_455 S
N37 C38 1.359 . S
N37 C41 1.334 1_455 S
C38 C35 1.426 . S
C38 N37 1.359 . S
C38 C42 1.413 . S
C39 H30 0.930 1_455 S
C39 C40 1.358 . S
C39 C41 1.395 1_455 S
C40 C39 1.358 . S
C40 C42 1.391 . S
C40 H43 0.929 . S
C41 H23 0.930 . S
C41 N37 1.334 1_655 S
C41 C39 1.395 1_655 S
C42 C38 1.413 . S
C42 C40 1.391 . S
C42 C57 1.437 . S
H43 C40 0.929 . S
O44 Gd0 2.545 . S
O44 C59 1.258 . S
O45 Gd0 2.606 . S
O45 Gd1 2.362 1_654 S
O45 C56 1.284 . S
O46 Gd1 2.324 1_554 S
O46 C66 1.254 . S
O47 Gd0 2.429 1_455 S
O47 C66 1.268 . S
O48 Gd0 2.545 . S
O48 C56 1.250 . S
O49 Gd0 2.412 1_556 S
O49 C59 1.252 1_556 S
O50 Gd1 2.545 . S
O50 C68 1.258 . S
O51 Gd0 2.362 1_455 S
O51 Gd1 2.606 1_554 S
O51 C67 1.278 1_554 S
O52 Gd0 2.324 1_556 S
O52 C75 1.254 . S
O53 Gd1 2.429 . S
O53 C75 1.268 1_455 S
O54 Gd1 2.545 . S
O54 C67 1.264 . S
O55 Gd1 2.412 1_554 S
O55 C68 1.252 1_554 S
C56 O45 1.284 . S
C56 O48 1.250 . S
C57 H26 0.929 . S
C57 C42 1.437 . S
C57 C58 1.317 . S
C58 H29 0.930 . S
C58 C34 1.431 1_554 S
C58 C57 1.317 . S
C59 Gd0 2.828 . S
C59 O44 1.258 . S
C59 O49 1.252 1_554 S
C59 C60 1.497 . S
C60 C59 1.497 . S
C60 C61 1.395 . S
C60 C62 1.380 1_554 S
C61 C60 1.395 . S
C61 C64 1.398 . S
C61 H76 0.930 . S
C62 C60 1.380 1_556 S
C62 C63 1.393 . S
C62 H77 0.930 . S
C63 C62 1.393 . S
C63 C65 1.357 1_556 S
C64 C61 1.398 . S
C64 C65 1.380 . S
C64 H78 0.930 . S
C65 C63 1.357 1_554 S
C65 C64 1.380 . S
C65 H79 0.930 . S
C66 O46 1.254 . S
C66 O47 1.268 . S
C67 O51 1.278 1_556 S
C67 O54 1.264 . S
C68 Gd1 2.828 . S
C68 O50 1.258 . S
C68 O55 1.252 1_556 S
C68 C69 1.497 . S
C69 C68 1.497 . S
C69 C70 1.395 . S
C69 C71 1.380 1_556 S
C70 C69 1.395 . S
C70 C73 1.398 . S
C70 H80 0.930 . S
C71 C69 1.380 1_554 S
C71 C72 1.391 . S
C71 H81 0.930 . S
C72 C71 1.391 . S
C72 C74 1.387 1_554 S
C73 C70 1.398 . S
C73 C74 1.380 . S
C73 H82 0.930 . S
C74 C72 1.387 1_556 S
C74 C73 1.380 . S
C74 H83 0.930 . S
C75 O52 1.254 . S
C75 O53 1.268 1_655 S
H76 C61 0.930 . S
H77 C62 0.930 . S
H78 C64 0.930 . S
H79 C65 0.930 . S
H80 C70 0.930 . S
H81 C71 0.930 . S
H82 C73 0.930 . S
H83 C74 0.930 . S
Gd84 N115 2.661 1_554 S
Gd84 N121 2.601 . S
Gd84 O128 2.545 . S
Gd84 O129 2.606 . S
Gd84 O131 2.429 . S
Gd84 O132 2.545 . S
Gd84 O133 2.412 1_554 S
Gd84 O135 2.362 . S
Gd84 O136 2.324 1_554 S
Gd84 C143 2.828 . S
Gd85 N94 2.661 1_556 S
Gd85 N98 2.601 . S
Gd85 O129 2.362 1_556 S
Gd85 O130 2.324 1_556 S
Gd85 O134 2.545 . S
Gd85 O135 2.606 1_556 S
Gd85 O137 2.429 . S
Gd85 O138 2.545 . S
Gd85 O139 2.412 1_556 S
Gd85 C152 2.828 . S
C86 C89 1.415 . S
C86 C91 1.431 1_554 S
C86 C92 1.412 . S
C87 C90 1.437 . S
C87 C91 1.317 . S
C87 H106 0.929 . S
C88 C89 1.431 1_556 S
C88 C90 1.413 . S
C88 N98 1.359 . S
C89 C86 1.415 . S
C89 C88 1.431 1_554 S
C89 N94 1.348 . S
C90 C87 1.437 . S
C90 C88 1.413 . S
C90 C100 1.391 . S
C91 C86 1.431 1_556 S
C91 C87 1.317 . S
C91 H102 0.930 1_556 S
C92 C86 1.412 . S
C92 C93 1.355 . S
C92 H104 0.930 . S
C93 C92 1.355 . S
C93 C95 1.402 . S
C93 H105 0.930 . S
N94 Gd85 2.661 1_554 S
N94 C89 1.348 . S
N94 C95 1.307 . S
C95 C93 1.402 . S
C95 N94 1.307 . S
C95 H96 0.930 . S
H96 C95 0.930 . S
C97 N98 1.334 . S
C97 C99 1.394 . S
C97 H101 0.930 . S
N98 Gd85 2.601 . S
N98 C88 1.359 . S
N98 C97 1.334 . S
C99 C97 1.394 . S
C99 C100 1.359 . S
C99 H111 0.930 . S
C100 C90 1.391 . S
C100 C99 1.359 . S
C100 H112 0.929 . S
H101 C97 0.930 . S
H102 C91 0.930 1_554 S
H103 C120 0.930 . S
H104 C92 0.930 . S
H105 C93 0.930 . S
H106 C87 0.929 . S
H107 C125 0.930 . S
H108 C116 0.930 . S
H109 C117 0.930 . S
H110 C141 0.929 . S
H111 C99 0.930 . S
H112 C100 0.929 . S
H113 C142 0.930 . S
H114 C123 0.930 . S
N115 Gd84 2.661 1_556 S
N115 C119 1.350 1_556 S
N115 C120 1.307 . S
C116 H108 0.930 . S
C116 C117 1.355 . S
C116 C118 1.412 . S
C117 H109 0.930 . S
C117 C116 1.355 . S
C117 C120 1.402 . S
C118 C116 1.412 . S
C118 C119 1.417 1_556 S
C118 C142 1.431 1_556 S
C119 N115 1.350 1_554 S
C119 C118 1.417 1_554 S
C119 C122 1.426 . S
C120 H103 0.930 . S
C120 N115 1.307 . S
C120 C117 1.402 . S
N121 Gd84 2.601 . S
N121 C122 1.359 . S
N121 C125 1.334 . S
C122 C119 1.426 . S
C122 N121 1.359 . S
C122 C126 1.413 . S
C123 H114 0.930 . S
C123 C124 1.359 . S
C123 C125 1.394 . S
C124 C123 1.359 . S
C124 C126 1.391 . S
C124 H127 0.929 . S
C125 H107 0.930 . S
C125 N121 1.334 . S
C125 C123 1.394 . S
C126 C122 1.413 . S
C126 C124 1.391 . S
C126 C141 1.437 . S
H127 C124 0.929 . S
O128 Gd84 2.545 . S
O128 C143 1.258 . S
O129 Gd84 2.606 . S
O129 Gd85 2.362 1_554 S
O129 C140 1.284 . S
O130 Gd85 2.324 1_554 S
O130 C150 1.254 . S
O131 Gd84 2.429 . S
O131 C150 1.268 . S
O132 Gd84 2.545 . S
O132 C140 1.250 . S
O133 Gd84 2.412 1_556 S
O133 C143 1.252 1_556 S
O134 Gd85 2.545 . S
O134 C152 1.258 . S
O135 Gd84 2.362 . S
O135 Gd85 2.606 1_554 S
O135 C151 1.278 1_554 S
O136 Gd84 2.324 1_556 S
O136 C159 1.254 . S
O137 Gd85 2.429 . S
O137 C159 1.268 . S
O138 Gd85 2.545 . S
O138 C151 1.264 . S
O139 Gd85 2.412 1_554 S
O139 C152 1.252 1_554 S
C140 O129 1.284 . S
C140 O132 1.250 . S
C141 H110 0.929 . S
C141 C126 1.437 . S
C141 C142 1.317 . S
C142 H113 0.930 . S
C142 C118 1.431 1_554 S
C142 C141 1.317 . S
C143 Gd84 2.828 . S
C143 O128 1.258 . S
C143 O133 1.252 1_554 S
C143 C144 1.497 . S
C144 C143 1.497 . S
C144 C145 1.395 . S
C144 C146 1.380 1_554 S
C145 C144 1.395 . S
C145 C148 1.398 . S
C145 H160 0.930 . S
C146 C144 1.380 1_556 S
C146 C147 1.393 . S
C146 H161 0.930 . S
C147 C146 1.393 . S
C147 C149 1.357 1_556 S
C148 C145 1.398 . S
C148 C149 1.380 . S
C148 H162 0.930 . S
C149 C147 1.357 1_554 S
C149 C148 1.380 . S
C149 H163 0.930 . S
C150 O130 1.254 . S
C150 O131 1.268 . S
C151 O135 1.278 1_556 S
C151 O138 1.264 . S
C152 Gd85 2.828 . S
C152 O134 1.258 . S
C152 O139 1.252 1_556 S
C152 C153 1.497 . S
C153 C152 1.497 . S
C153 C154 1.395 . S
C153 C155 1.380 1_556 S
C154 C153 1.395 . S
C154 C157 1.398 . S
C154 H164 0.930 . S
C155 C153 1.380 1_554 S
C155 C156 1.391 . S
C155 H165 0.930 . S
C156 C155 1.391 . S
C156 C158 1.387 1_554 S
C157 C154 1.398 . S
C157 C158 1.380 . S
C157 H166 0.930 . S
C158 C156 1.387 1_556 S
C158 C157 1.380 . S
C158 H167 0.930 . S
C159 O136 1.254 . S
C159 O137 1.268 . S
H160 C145 0.930 . S
H161 C146 0.930 . S
H162 C148 0.930 . S
H163 C149 0.930 . S
H164 C154 0.930 . S
H165 C155 0.930 . S
H166 C157 0.930 . S
H167 C158 0.930 . S
Gd168 N199 2.661 1_554 S
Gd168 N205 2.601 . S
Gd168 O212 2.545 . S
Gd168 O213 2.606 . S
Gd168 O215 2.429 . S
Gd168 O216 2.545 . S
Gd168 O217 2.412 1_554 S
Gd168 O219 2.362 1_545 S
Gd168 O220 2.324 1_554 S
Gd168 C227 2.828 . S
Gd169 N178 2.661 1_566 S
Gd169 N182 2.602 1_565 S
Gd169 O213 2.362 1_566 S
Gd169 O214 2.324 1_556 S
Gd169 O218 2.545 . S
Gd169 O219 2.606 1_556 S
Gd169 O221 2.429 1_565 S
Gd169 O222 2.545 . S
Gd169 O223 2.412 1_556 S
Gd169 C236 2.828 . S
C170 C173 1.415 . S
C170 C175 1.431 1_554 S
C170 C176 1.412 . S
C171 C174 1.437 . S
C171 C175 1.317 . S
C171 H190 0.929 . S
C172 C173 1.431 1_556 S
C172 C174 1.413 . S
C172 N182 1.358 . S
C173 C170 1.415 . S
C173 C172 1.431 1_554 S
C173 N178 1.348 . S
C174 C171 1.437 . S
C174 C172 1.413 . S
C174 C184 1.391 . S
C175 C170 1.431 1_556 S
C175 C171 1.317 . S
C175 H186 0.930 1_556 S
C176 C170 1.412 . S
C176 C177 1.355 . S
C176 H188 0.930 . S
C177 C176 1.355 . S
C177 C179 1.402 . S
C177 H189 0.930 . S
N178 Gd169 2.661 1_544 S
N178 C173 1.348 . S
N178 C179 1.307 . S
C179 C177 1.402 . S
C179 N178 1.307 . S
C179 H180 0.930 . S
H180 C179 0.930 . S
C181 N182 1.333 1_565 S
C181 C183 1.385 . S
C181 H185 0.930 . S
N182 Gd169 2.602 1_545 S
N182 C172 1.358 . S
N182 C181 1.333 1_545 S
C183 C181 1.385 . S
C183 C184 1.361 1_565 S
C183 H195 0.939 . S
C184 C174 1.391 . S
C184 C183 1.361 1_545 S
C184 H196 0.929 . S
H185 C181 0.930 . S
H186 C175 0.930 1_554 S
H187 C204 0.930 1_545 S
H188 C176 0.930 . S
H189 C177 0.930 . S
H190 C171 0.929 . S
H191 C209 0.930 . S
H192 C200 0.930 . S
H193 C201 0.930 . S
H194 C225 0.929 . S
H195 C183 0.939 . S
H196 C184 0.929 . S
H197 C226 0.930 . S
H198 C207 0.930 . S
N199 Gd168 2.661 1_556 S
N199 C203 1.350 1_546 S
N199 C204 1.307 1_545 S
C200 H192 0.930 . S
C200 C201 1.355 . S
C200 C202 1.412 . S
C201 H193 0.930 . S
C201 C200 1.355 . S
C201 C204 1.402 . S
C202 C200 1.412 . S
C202 C203 1.417 1_556 S
C202 C226 1.431 1_556 S
C203 N199 1.350 1_564 S
C203 C202 1.417 1_554 S
C203 C206 1.421 1_565 S
C204 H187 0.930 1_565 S
C204 N199 1.307 1_565 S
C204 C201 1.402 . S
N205 Gd168 2.601 . S
N205 C206 1.357 . S
N205 C209 1.334 . S
C206 C203 1.421 1_545 S
C206 N205 1.357 . S
C206 C210 1.421 1_545 S
C207 H198 0.930 . S
C207 C208 1.358 . S
C207 C209 1.394 . S
C208 C207 1.358 . S
C208 C210 1.385 1_545 S
C208 H211 0.938 1_545 S
C209 H191 0.930 . S
C209 N205 1.334 . S
C209 C207 1.394 . S
C210 C206 1.421 1_565 S
C210 C208 1.385 1_565 S
C210 C225 1.437 . S
H211 C208 0.938 1_565 S
O212 Gd168 2.545 . S
O212 C227 1.258 . S
O213 Gd168 2.606 . S
O213 Gd169 2.362 1_544 S
O213 C224 1.284 . S
O214 Gd169 2.324 1_554 S
O214 C234 1.254 . S
O215 Gd168 2.429 . S
O215 C234 1.268 1_545 S
O216 Gd168 2.545 . S
O216 C224 1.250 . S
O217 Gd168 2.412 1_556 S
O217 C227 1.252 1_556 S
O218 Gd169 2.545 . S
O218 C236 1.258 . S
O219 Gd168 2.362 1_565 S
O219 Gd169 2.606 1_554 S
O219 C235 1.278 1_554 S
O220 Gd168 2.324 1_556 S
O220 C243 1.254 . S
O221 Gd169 2.429 1_545 S
O221 C243 1.268 . S
O222 Gd169 2.545 . S
O222 C235 1.264 . S
O223 Gd169 2.412 1_554 S
O223 C236 1.252 1_554 S
C224 O213 1.284 . S
C224 O216 1.250 . S
C225 H194 0.929 . S
C225 C210 1.437 . S
C225 C226 1.317 . S
C226 H197 0.930 . S
C226 C202 1.431 1_554 S
C226 C225 1.317 . S
C227 Gd168 2.828 . S
C227 O212 1.258 . S
C227 O217 1.252 1_554 S
C227 C228 1.497 . S
C228 C227 1.497 . S
C228 C229 1.395 . S
C228 C230 1.380 1_554 S
C229 C228 1.395 . S
C229 C232 1.398 . S
C229 H244 0.930 . S
C230 C228 1.380 1_556 S
C230 C231 1.393 . S
C230 H245 0.930 . S
C231 C230 1.393 . S
C231 C233 1.357 1_556 S
C232 C229 1.398 . S
C232 C233 1.380 . S
C232 H246 0.930 . S
C233 C231 1.357 1_554 S
C233 C232 1.380 . S
C233 H247 0.930 . S
C234 O214 1.254 . S
C234 O215 1.268 1_565 S
C235 O219 1.278 1_556 S
C235 O222 1.264 . S
C236 Gd169 2.828 . S
C236 O218 1.258 . S
C236 O223 1.252 1_556 S
C236 C237 1.497 . S
C237 C236 1.497 . S
C237 C238 1.395 . S
C237 C239 1.380 1_556 S
C238 C237 1.395 . S
C238 C241 1.398 . S
C238 H248 0.930 . S
C239 C237 1.380 1_554 S
C239 C240 1.391 . S
C239 H249 0.930 . S
C240 C239 1.391 . S
C240 C242 1.387 1_554 S
C241 C238 1.398 . S
C241 C242 1.380 . S
C241 H250 0.930 . S
C242 C240 1.387 1_556 S
C242 C241 1.380 . S
C242 H251 0.930 . S
C243 O220 1.254 . S
C243 O221 1.268 . S
H244 C229 0.930 . S
H245 C230 0.930 . S
H246 C232 0.930 . S
H247 C233 0.930 . S
H248 C238 0.930 . S
H249 C239 0.930 . S
H250 C241 0.930 . S
H251 C242 0.930 . S
Gd252 N283 2.661 . S
Gd252 N289 2.601 . S
Gd252 O296 2.545 . S
Gd252 O297 2.606 . S
Gd252 O299 2.429 . S
Gd252 O300 2.545 . S
Gd252 O301 2.412 . S
Gd252 O303 2.362 . S
Gd252 O304 2.324 . S
Gd252 C311 2.828 . S
Gd253 N262 2.661 . S
Gd253 N266 2.601 . S
Gd253 O297 2.362 . S
Gd253 O298 2.324 . S
Gd253 O302 2.545 . S
Gd253 O303 2.606 . S
Gd253 O305 2.429 . S
Gd253 O306 2.545 . S
Gd253 O307 2.412 . S
Gd253 C320 2.828 . S
C254 C257 1.417 . S
C254 C259 1.431 . S
C254 C260 1.412 . S
C255 C258 1.437 . S
C255 C259 1.317 . S
C255 H274 0.929 . S
C256 C257 1.426 . S
C256 C258 1.413 . S
C256 N266 1.359 . S
C257 C254 1.417 . S
C257 C256 1.426 . S
C257 N262 1.350 . S
C258 C255 1.437 . S
C258 C256 1.413 . S
C258 C268 1.391 . S
C259 C254 1.431 . S
C259 C255 1.317 . S
C259 H270 0.930 . S
C260 C254 1.412 . S
C260 C261 1.355 . S
C260 H272 0.930 . S
C261 C260 1.355 . S
C261 C263 1.402 . S
C261 H273 0.930 . S
N262 Gd253 2.661 . S
N262 C257 1.350 . S
N262 C263 1.307 . S
C263 C261 1.402 . S
C263 N262 1.307 . S
C263 H264 0.930 . S
H264 C263 0.930 . S
C265 N266 1.334 . S
C265 C267 1.394 . S
C265 H269 0.930 . S
N266 Gd253 2.601 . S
N266 C256 1.359 . S
N266 C265 1.334 . S
C267 C265 1.394 . S
C267 C268 1.359 . S
C267 H279 0.930 . S
C268 C258 1.391 . S
C268 C267 1.359 . S
C268 H280 0.929 . S
H269 C265 0.930 . S
H270 C259 0.930 . S
H271 C288 0.930 . S
H272 C260 0.930 . S
H273 C261 0.930 . S
H274 C255 0.929 . S
H275 C293 0.930 . S
H276 C284 0.930 . S
H277 C285 0.930 . S
H278 C309 0.929 . S
H279 C267 0.930 . S
H280 C268 0.929 . S
H281 C310 0.930 . S
H282 C291 0.930 . S
N283 Gd252 2.661 . S
N283 C287 1.350 . S
N283 C288 1.307 . S
C284 H276 0.930 . S
C284 C285 1.355 . S
C284 C286 1.412 . S
C285 H277 0.930 . S
C285 C284 1.355 . S
C285 C288 1.402 . S
C286 C284 1.412 . S
C286 C287 1.417 . S
C286 C310 1.431 . S
C287 N283 1.350 . S
C287 C286 1.417 . S
C287 C290 1.426 . S
C288 H271 0.930 . S
C288 N283 1.307 . S
C288 C285 1.402 . S
N289 Gd252 2.601 . S
N289 C290 1.359 . S
N289 C293 1.334 . S
C290 C287 1.426 . S
C290 N289 1.359 . S
C290 C294 1.413 . S
C291 H282 0.930 . S
C291 C292 1.359 . S
C291 C293 1.394 . S
C292 C291 1.359 . S
C292 C294 1.391 . S
C292 H295 0.929 . S
C293 H275 0.930 . S
C293 N289 1.334 . S
C293 C291 1.394 . S
C294 C290 1.413 . S
C294 C292 1.391 . S
C294 C309 1.437 . S
H295 C292 0.929 . S
O296 Gd252 2.545 . S
O296 C311 1.258 . S
O297 Gd252 2.606 . S
O297 Gd253 2.362 . S
O297 C308 1.284 . S
O298 Gd253 2.324 . S
O298 C318 1.254 . S
O299 Gd252 2.429 . S
O299 C318 1.268 . S
O300 Gd252 2.545 . S
O300 C308 1.250 . S
O301 Gd252 2.412 . S
O301 C311 1.252 . S
O302 Gd253 2.545 . S
O302 C320 1.258 . S
O303 Gd252 2.362 . S
O303 Gd253 2.606 . S
O303 C319 1.284 . S
O304 Gd252 2.324 . S
O304 C327 1.254 . S
O305 Gd253 2.429 . S
O305 C327 1.268 . S
O306 Gd253 2.545 . S
O306 C319 1.250 . S
O307 Gd253 2.412 . S
O307 C320 1.252 . S
C308 O297 1.284 . S
C308 O300 1.250 . S
C309 H278 0.929 . S
C309 C294 1.437 . S
C309 C310 1.317 . S
C310 H281 0.930 . S
C310 C286 1.431 . S
C310 C309 1.317 . S
C311 Gd252 2.828 . S
C311 O296 1.258 . S
C311 O301 1.252 . S
C311 C312 1.497 . S
C312 C311 1.497 . S
C312 C313 1.395 . S
C312 C314 1.380 . S
C313 C312 1.395 . S
C313 C316 1.398 . S
C313 H328 0.930 . S
C314 C312 1.380 . S
C314 C315 1.391 . S
C314 H329 0.930 . S
C315 C314 1.391 . S
C315 C317 1.387 . S
C316 C313 1.398 . S
C316 C317 1.380 . S
C316 H330 0.930 . S
C317 C315 1.387 . S
C317 C316 1.380 . S
C317 H331 0.930 . S
C318 O298 1.254 . S
C318 O299 1.268 . S
C319 O303 1.284 . S
C319 O306 1.250 . S
C320 Gd253 2.828 . S
C320 O302 1.258 . S
C320 O307 1.252 . S
C320 C321 1.497 . S
C321 C320 1.497 . S
C321 C322 1.395 . S
C321 C323 1.380 . S
C322 C321 1.395 . S
C322 C325 1.398 . S
C322 H332 0.930 . S
C323 C321 1.380 . S
C323 C324 1.391 . S
C323 H333 0.930 . S
C324 C323 1.391 . S
C324 C326 1.387 1_565 S
C325 C322 1.398 . S
C325 C326 1.380 1_565 S
C325 H334 0.930 1_565 S
C326 C324 1.387 1_545 S
C326 C325 1.380 1_545 S
C326 H335 0.930 . S
C327 O304 1.254 . S
C327 O305 1.268 . S
H328 C313 0.930 . S
H329 C314 0.930 . S
H330 C316 0.930 . S
H331 C317 0.930 . S
H332 C322 0.930 . S
H333 C323 0.930 . S
H334 C325 0.930 1_545 S
H335 C326 0.930 . S
Gd336 N367 2.661 . S
Gd336 N373 2.601 . S
Gd336 O380 2.545 . S
Gd336 O381 2.606 . S
Gd336 O383 2.429 . S
Gd336 O384 2.545 . S
Gd336 O385 2.412 . S
Gd336 O387 2.362 . S
Gd336 O388 2.324 . S
Gd336 C395 2.828 . S
Gd337 N346 2.661 . S
Gd337 N350 2.601 . S
Gd337 O381 2.362 . S
Gd337 O382 2.324 . S
Gd337 O386 2.545 . S
Gd337 O387 2.606 . S
Gd337 O389 2.429 . S
Gd337 O390 2.545 . S
Gd337 O391 2.412 . S
Gd337 C404 2.828 . S
C338 C341 1.417 . S
C338 C343 1.431 . S
C338 C344 1.412 . S
C339 C342 1.437 . S
C339 C343 1.317 . S
C339 H358 0.929 . S
C340 C341 1.426 . S
C340 C342 1.413 . S
C340 N350 1.359 . S
C341 C338 1.417 . S
C341 C340 1.426 . S
C341 N346 1.350 . S
C342 C339 1.437 . S
C342 C340 1.413 . S
C342 C352 1.391 . S
C343 C338 1.431 . S
C343 C339 1.317 . S
C343 H354 0.930 . S
C344 C338 1.412 . S
C344 C345 1.355 . S
C344 H356 0.930 . S
C345 C344 1.355 . S
C345 C347 1.402 . S
C345 H357 0.930 . S
N346 Gd337 2.661 . S
N346 C341 1.350 . S
N346 C347 1.307 . S
C347 C345 1.402 . S
C347 N346 1.307 . S
C347 H348 0.930 . S
H348 C347 0.930 . S
C349 N350 1.334 . S
C349 C351 1.394 . S
C349 H353 0.930 . S
N350 Gd337 2.601 . S
N350 C340 1.359 . S
N350 C349 1.334 . S
C351 C349 1.394 . S
C351 C352 1.359 . S
C351 H363 0.930 . S
C352 C342 1.391 . S
C352 C351 1.359 . S
C352 H364 0.929 . S
H353 C349 0.930 . S
H354 C343 0.930 . S
H355 C372 0.930 . S
H356 C344 0.930 . S
H357 C345 0.930 . S
H358 C339 0.929 . S
H359 C377 0.930 . S
H360 C368 0.930 . S
H361 C369 0.930 . S
H362 C393 0.929 . S
H363 C351 0.930 . S
H364 C352 0.929 . S
H365 C394 0.930 . S
H366 C375 0.930 . S
N367 Gd336 2.661 . S
N367 C371 1.350 . S
N367 C372 1.307 . S
C368 H360 0.930 . S
C368 C369 1.355 1_545 S
C368 C370 1.412 . S
C369 H361 0.930 . S
C369 C368 1.355 1_565 S
C369 C372 1.402 . S
C370 C368 1.412 . S
C370 C371 1.417 1_545 S
C370 C394 1.431 . S
C371 N367 1.350 . S
C371 C370 1.417 1_565 S
C371 C374 1.426 . S
C372 H355 0.930 . S
C372 N367 1.307 . S
C372 C369 1.402 . S
N373 Gd336 2.601 . S
N373 C374 1.359 . S
N373 C377 1.334 . S
C374 C371 1.426 . S
C374 N373 1.359 . S
C374 C378 1.413 . S
C375 H366 0.930 . S
C375 C376 1.359 . S
C375 C377 1.394 . S
C376 C375 1.359 . S
C376 C378 1.391 . S
C376 H379 0.929 1_565 S
C377 H359 0.930 . S
C377 N373 1.334 . S
C377 C375 1.394 . S
C378 C374 1.413 . S
C378 C376 1.391 . S
C378 C393 1.437 1_565 S
H379 C376 0.929 1_545 S
O380 Gd336 2.545 . S
O380 C395 1.258 . S
O381 Gd336 2.606 . S
O381 Gd337 2.362 . S
O381 C392 1.284 . S
O382 Gd337 2.324 . S
O382 C402 1.254 . S
O383 Gd336 2.429 . S
O383 C402 1.268 . S
O384 Gd336 2.545 . S
O384 C392 1.250 . S
O385 Gd336 2.412 . S
O385 C395 1.252 . S
O386 Gd337 2.545 . S
O386 C404 1.258 . S
O387 Gd336 2.362 . S
O387 Gd337 2.606 . S
O387 C403 1.284 . S
O388 Gd336 2.324 . S
O388 C411 1.254 . S
O389 Gd337 2.429 . S
O389 C411 1.268 . S
O390 Gd337 2.545 . S
O390 C403 1.250 . S
O391 Gd337 2.412 . S
O391 C404 1.252 . S
C392 O381 1.284 . S
C392 O384 1.250 . S
C393 H362 0.929 . S
C393 C378 1.437 1_545 S
C393 C394 1.317 . S
C394 H365 0.930 . S
C394 C370 1.431 . S
C394 C393 1.317 . S
C395 Gd336 2.828 . S
C395 O380 1.258 . S
C395 O385 1.252 . S
C395 C396 1.497 . S
C396 C395 1.497 . S
C396 C397 1.395 . S
C396 C398 1.380 . S
C397 C396 1.395 . S
C397 C400 1.398 . S
C397 H412 0.930 . S
C398 C396 1.380 . S
C398 C399 1.391 . S
C398 H413 0.930 . S
C399 C398 1.391 . S
C399 C401 1.387 . S
C400 C397 1.398 . S
C400 C401 1.380 . S
C400 H414 0.930 . S
C401 C399 1.387 . S
C401 C400 1.380 . S
C401 H415 0.930 . S
C402 O382 1.254 . S
C402 O383 1.268 . S
C403 O387 1.284 . S
C403 O390 1.250 . S
C404 Gd337 2.828 . S
C404 O386 1.258 . S
C404 O391 1.252 . S
C404 C405 1.497 . S
C405 C404 1.497 . S
C405 C406 1.395 . S
C405 C407 1.380 . S
C406 C405 1.395 . S
C406 C409 1.398 . S
C406 H416 0.930 . S
C407 C405 1.380 . S
C407 C408 1.391 . S
C407 H417 0.930 . S
C408 C407 1.391 . S
C408 C410 1.387 . S
C409 C406 1.398 . S
C409 C410 1.380 . S
C409 H418 0.930 . S
C410 C408 1.387 . S
C410 C409 1.380 . S
C410 H419 0.930 1_455 S
C411 O388 1.254 . S
C411 O389 1.268 . S
H412 C397 0.930 . S
H413 C398 0.930 . S
H414 C400 0.930 . S
H415 C401 0.930 . S
H416 C406 0.930 . S
H417 C407 0.930 . S
H418 C409 0.930 . S
H419 C410 0.930 1_655 S
Gd420 N451 2.661 . S
Gd420 N457 2.601 . S
Gd420 O464 2.545 . S
Gd420 O465 2.606 . S
Gd420 O467 2.429 . S
Gd420 O468 2.545 . S
Gd420 O469 2.412 . S
Gd420 O471 2.362 . S
Gd420 O472 2.324 . S
Gd420 C479 2.828 . S
Gd421 N430 2.661 . S
Gd421 N434 2.601 . S
Gd421 O465 2.362 . S
Gd421 O466 2.324 . S
Gd421 O470 2.545 . S
Gd421 O471 2.606 . S
Gd421 O473 2.429 . S
Gd421 O474 2.545 . S
Gd421 O475 2.412 . S
Gd421 C488 2.828 . S
C422 C425 1.417 . S
C422 C427 1.431 . S
C422 C428 1.412 . S
C423 C426 1.437 . S
C423 C427 1.317 . S
C423 H442 0.929 . S
C424 C425 1.426 . S
C424 C426 1.413 . S
C424 N434 1.359 . S
C425 C422 1.417 . S
C425 C424 1.426 . S
C425 N430 1.350 . S
C426 C423 1.437 . S
C426 C424 1.413 . S
C426 C436 1.391 . S
C427 C422 1.431 . S
C427 C423 1.317 . S
C427 H438 0.930 . S
C428 C422 1.412 . S
C428 C429 1.355 . S
C428 H440 0.930 . S
C429 C428 1.355 . S
C429 C431 1.402 . S
C429 H441 0.930 . S
N430 Gd421 2.661 . S
N430 C425 1.350 . S
N430 C431 1.307 . S
C431 C429 1.402 . S
C431 N430 1.307 . S
C431 H432 0.930 . S
H432 C431 0.930 . S
C433 N434 1.334 . S
C433 C435 1.394 . S
C433 H437 0.930 . S
N434 Gd421 2.601 . S
N434 C424 1.359 . S
N434 C433 1.334 . S
C435 C433 1.394 . S
C435 C436 1.359 . S
C435 H447 0.930 . S
C436 C426 1.391 . S
C436 C435 1.359 . S
C436 H448 0.929 . S
H437 C433 0.930 . S
H438 C427 0.930 . S
H439 C456 0.930 . S
H440 C428 0.930 . S
H441 C429 0.930 . S
H442 C423 0.929 . S
H443 C461 0.930 . S
H444 C452 0.930 1_655 S
H445 C453 0.930 . S
H446 C477 0.929 . S
H447 C435 0.930 . S
H448 C436 0.929 . S
H449 C478 0.930 . S
H450 C459 0.930 . S
N451 Gd420 2.661 . S
N451 C455 1.350 . S
N451 C456 1.307 . S
C452 H444 0.930 1_455 S
C452 C453 1.355 . S
C452 C454 1.412 . S
C453 H445 0.930 . S
C453 C452 1.355 . S
C453 C456 1.402 . S
C454 C452 1.412 . S
C454 C455 1.417 . S
C454 C478 1.431 1_455 S
C455 N451 1.350 . S
C455 C454 1.417 . S
C455 C458 1.426 . S
C456 H439 0.930 . S
C456 N451 1.307 . S
C456 C453 1.402 . S
N457 Gd420 2.601 . S
N457 C458 1.359 . S
N457 C461 1.334 . S
C458 C455 1.426 . S
C458 N457 1.359 . S
C458 C462 1.413 . S
C459 H450 0.930 . S
C459 C460 1.359 . S
C459 C461 1.394 . S
C460 C459 1.359 . S
C460 C462 1.391 . S
C460 H463 0.929 . S
C461 H443 0.930 . S
C461 N457 1.334 . S
C461 C459 1.394 . S
C462 C458 1.413 . S
C462 C460 1.391 . S
C462 C477 1.437 1_455 S
H463 C460 0.929 . S
O464 Gd420 2.545 . S
O464 C479 1.258 . S
O465 Gd420 2.606 . S
O465 Gd421 2.362 . S
O465 C476 1.284 . S
O466 Gd421 2.324 . S
O466 C486 1.254 . S
O467 Gd420 2.429 . S
O467 C486 1.268 . S
O468 Gd420 2.545 . S
O468 C476 1.250 . S
O469 Gd420 2.412 . S
O469 C479 1.252 . S
O470 Gd421 2.545 . S
O470 C488 1.258 . S
O471 Gd420 2.362 . S
O471 Gd421 2.606 . S
O471 C487 1.284 . S
O472 Gd420 2.324 . S
O472 C495 1.254 . S
O473 Gd421 2.429 . S
O473 C495 1.268 . S
O474 Gd421 2.545 . S
O474 C487 1.250 . S
O475 Gd421 2.412 . S
O475 C488 1.252 . S
C476 O465 1.284 . S
C476 O468 1.250 . S
C477 H446 0.929 . S
C477 C462 1.437 1_655 S
C477 C478 1.317 . S
C478 H449 0.930 . S
C478 C454 1.431 1_655 S
C478 C477 1.317 . S
C479 Gd420 2.828 . S
C479 O464 1.258 . S
C479 O469 1.252 . S
C479 C480 1.497 . S
C480 C479 1.497 . S
C480 C481 1.395 . S
C480 C482 1.380 . S
C481 C480 1.395 . S
C481 C484 1.398 . S
C481 H496 0.930 . S
C482 C480 1.380 . S
C482 C483 1.391 . S
C482 H497 0.930 . S
C483 C482 1.391 . S
C483 C485 1.387 . S
C484 C481 1.398 . S
C484 C485 1.380 . S
C484 H498 0.930 . S
C485 C483 1.387 . S
C485 C484 1.380 . S
C485 H499 0.930 . S
C486 O466 1.254 . S
C486 O467 1.268 . S
C487 O471 1.284 . S
C487 O474 1.250 . S
C488 Gd421 2.828 . S
C488 O470 1.258 . S
C488 O475 1.252 . S
C488 C489 1.497 . S
C489 C488 1.497 . S
C489 C490 1.395 . S
C489 C491 1.380 . S
C490 C489 1.395 . S
C490 C493 1.398 . S
C490 H500 0.930 . S
C491 C489 1.380 . S
C491 C492 1.391 . S
C491 H501 0.930 . S
C492 C491 1.391 . S
C492 C494 1.387 . S
C493 C490 1.398 . S
C493 C494 1.380 . S
C493 H502 0.930 . S
C494 C492 1.387 . S
C494 C493 1.380 . S
C494 H503 0.930 . S
C495 O472 1.254 . S
C495 O473 1.268 . S
H496 C481 0.930 . S
H497 C482 0.930 . S
H498 C484 0.930 . S
H499 C485 0.930 . S
H500 C490 0.930 . S
H501 C491 0.930 . S
H502 C493 0.930 . S
H503 C494 0.930 . S
Gd504 N535 2.661 . S
Gd504 N541 2.601 . S
Gd504 O548 2.545 . S
Gd504 O549 2.606 . S
Gd504 O551 2.429 . S
Gd504 O552 2.545 . S
Gd504 O553 2.412 . S
Gd504 O555 2.362 . S
Gd504 O556 2.324 . S
Gd504 C563 2.828 . S
Gd505 N514 2.661 . S
Gd505 N518 2.601 . S
Gd505 O549 2.362 . S
Gd505 O550 2.324 . S
Gd505 O554 2.545 . S
Gd505 O555 2.606 . S
Gd505 O557 2.429 . S
Gd505 O558 2.545 . S
Gd505 O559 2.412 . S
Gd505 C572 2.828 . S
C506 C509 1.417 . S
C506 C511 1.431 . S
C506 C512 1.412 . S
C507 C510 1.437 . S
C507 C511 1.317 . S
C507 H526 0.929 . S
C508 C509 1.426 . S
C508 C510 1.413 . S
C508 N518 1.359 . S
C509 C506 1.417 . S
C509 C508 1.426 . S
C509 N514 1.350 . S
C510 C507 1.437 . S
C510 C508 1.413 . S
C510 C520 1.391 . S
C511 C506 1.431 . S
C511 C507 1.317 . S
C511 H522 0.930 . S
C512 C506 1.412 . S
C512 C513 1.355 . S
C512 H524 0.930 . S
C513 C512 1.355 . S
C513 C515 1.402 . S
C513 H525 0.930 . S
N514 Gd505 2.661 . S
N514 C509 1.350 . S
N514 C515 1.307 . S
C515 C513 1.402 . S
C515 N514 1.307 . S
C515 H516 0.930 . S
H516 C515 0.930 . S
C517 N518 1.334 . S
C517 C519 1.394 . S
C517 H521 0.930 . S
N518 Gd505 2.601 . S
N518 C508 1.359 . S
N518 C517 1.334 . S
C519 C517 1.394 . S
C519 C520 1.359 . S
C519 H531 0.930 . S
C520 C510 1.391 . S
C520 C519 1.359 . S
C520 H532 0.929 . S
H521 C517 0.930 . S
H522 C511 0.930 . S
H523 C540 0.930 . S
H524 C512 0.930 . S
H525 C513 0.930 . S
H526 C507 0.929 . S
H527 C545 0.930 . S
H528 C536 0.930 . S
H529 C537 0.930 . S
H530 C561 0.929 1_565 S
H531 C519 0.930 . S
H532 C520 0.929 . S
H533 C562 0.930 . S
H534 C543 0.930 . S
N535 Gd504 2.661 . S
N535 C539 1.350 . S
N535 C540 1.307 . S
C536 H528 0.930 . S
C536 C537 1.355 . S
C536 C538 1.412 . S
C537 H529 0.930 . S
C537 C536 1.355 . S
C537 C540 1.402 . S
C538 C536 1.412 . S
C538 C539 1.417 . S
C538 C562 1.431 . S
C539 N535 1.350 . S
C539 C538 1.417 . S
C539 C542 1.426 . S
C540 H523 0.930 . S
C540 N535 1.307 . S
C540 C537 1.402 . S
N541 Gd504 2.601 . S
N541 C542 1.359 . S
N541 C545 1.334 . S
C542 C539 1.426 . S
C542 N541 1.359 . S
C542 C546 1.413 . S
C543 H534 0.930 . S
C543 C544 1.359 . S
C543 C545 1.394 . S
C544 C543 1.359 . S
C544 C546 1.391 . S
C544 H547 0.929 . S
C545 H527 0.930 . S
C545 N541 1.334 . S
C545 C543 1.394 . S
C546 C542 1.413 . S
C546 C544 1.391 . S
C546 C561 1.437 . S
H547 C544 0.929 . S
O548 Gd504 2.545 . S
O548 C563 1.258 . S
O549 Gd504 2.606 . S
O549 Gd505 2.362 . S
O549 C560 1.284 . S
O550 Gd505 2.324 . S
O550 C570 1.254 . S
O551 Gd504 2.429 . S
O551 C570 1.268 . S
O552 Gd504 2.545 . S
O552 C560 1.250 . S
O553 Gd504 2.412 . S
O553 C563 1.252 . S
O554 Gd505 2.545 . S
O554 C572 1.258 . S
O555 Gd504 2.362 . S
O555 Gd505 2.606 . S
O555 C571 1.284 . S
O556 Gd504 2.324 . S
O556 C579 1.254 . S
O557 Gd505 2.429 . S
O557 C579 1.268 . S
O558 Gd505 2.545 . S
O558 C571 1.250 . S
O559 Gd505 2.412 . S
O559 C572 1.252 . S
C560 O549 1.284 . S
C560 O552 1.250 . S
C561 H530 0.929 1_545 S
C561 C546 1.437 . S
C561 C562 1.317 . S
C562 H533 0.930 . S
C562 C538 1.431 . S
C562 C561 1.317 . S
C563 Gd504 2.828 . S
C563 O548 1.258 . S
C563 O553 1.252 . S
C563 C564 1.497 . S
C564 C563 1.497 . S
C564 C565 1.395 1_545 S
C564 C566 1.380 1_545 S
C565 C564 1.395 1_565 S
C565 C568 1.398 . S
C565 H580 0.930 . S
C566 C564 1.380 1_565 S
C566 C567 1.391 . S
C566 H581 0.930 1_565 S
C567 C566 1.391 . S
C567 C569 1.387 . S
C568 C565 1.398 . S
C568 C569 1.380 . S
C568 H582 0.930 . S
C569 C567 1.387 . S
C569 C568 1.380 . S
C569 H583 0.930 . S
C570 O550 1.254 . S
C570 O551 1.268 . S
C571 O555 1.284 . S
C571 O558 1.250 . S
C572 Gd505 2.828 . S
C572 O554 1.258 . S
C572 O559 1.252 . S
C572 C573 1.497 . S
C573 C572 1.497 . S
C573 C574 1.395 . S
C573 C575 1.380 . S
C574 C573 1.395 . S
C574 C577 1.398 . S
C574 H584 0.930 . S
C575 C573 1.380 . S
C575 C576 1.391 . S
C575 H585 0.930 . S
C576 C575 1.391 . S
C576 C578 1.387 . S
C577 C574 1.398 . S
C577 C578 1.380 . S
C577 H586 0.930 . S
C578 C576 1.387 . S
C578 C577 1.380 . S
C578 H587 0.930 . S
C579 O556 1.254 . S
C579 O557 1.268 . S
H580 C565 0.930 . S
H581 C566 0.930 1_545 S
H582 C568 0.930 . S
H583 C569 0.930 . S
H584 C574 0.930 . S
H585 C575 0.930 . S
H586 C577 0.930 . S
H587 C578 0.930 . S
Gd588 N619 2.661 . S
Gd588 N625 2.601 . S
Gd588 O632 2.545 . S
Gd588 O633 2.606 . S
Gd588 O635 2.429 . S
Gd588 O636 2.545 . S
Gd588 O637 2.412 . S
Gd588 O639 2.362 . S
Gd588 O640 2.324 . S
Gd588 C647 2.828 . S
Gd589 N598 2.661 . S
Gd589 N602 2.601 . S
Gd589 O633 2.362 . S
Gd589 O634 2.324 . S
Gd589 O638 2.545 . S
Gd589 O639 2.606 . S
Gd589 O641 2.429 . S
Gd589 O642 2.545 . S
Gd589 O643 2.412 . S
Gd589 C656 2.828 . S
C590 C593 1.417 . S
C590 C595 1.431 . S
C590 C596 1.412 . S
C591 C594 1.437 . S
C591 C595 1.317 . S
C591 H610 0.929 . S
C592 C593 1.426 . S
C592 C594 1.413 . S
C592 N602 1.359 . S
C593 C590 1.417 . S
C593 C592 1.426 . S
C593 N598 1.350 . S
C594 C591 1.437 . S
C594 C592 1.413 . S
C594 C604 1.391 . S
C595 C590 1.431 . S
C595 C591 1.317 . S
C595 H606 0.930 . S
C596 C590 1.412 . S
C596 C597 1.355 . S
C596 H608 0.930 . S
C597 C596 1.355 . S
C597 C599 1.402 . S
C597 H609 0.930 . S
N598 Gd589 2.661 . S
N598 C593 1.350 . S
N598 C599 1.307 . S
C599 C597 1.402 . S
C599 N598 1.307 . S
C599 H600 0.930 . S
H600 C599 0.930 . S
C601 N602 1.334 . S
C601 C603 1.394 . S
C601 H605 0.930 . S
N602 Gd589 2.601 . S
N602 C592 1.359 . S
N602 C601 1.334 . S
C603 C601 1.394 . S
C603 C604 1.359 . S
C603 H615 0.930 . S
C604 C594 1.391 . S
C604 C603 1.359 . S
C604 H616 0.929 . S
H605 C601 0.930 . S
H606 C595 0.930 . S
H607 C624 0.930 . S
H608 C596 0.930 . S
H609 C597 0.930 . S
H610 C591 0.929 . S
H611 C629 0.930 . S
H612 C620 0.930 . S
H613 C621 0.930 . S
H614 C645 0.929 . S
H615 C603 0.930 . S
H616 C604 0.929 . S
H617 C646 0.930 . S
H618 C627 0.930 . S
N619 Gd588 2.661 . S
N619 C623 1.350 . S
N619 C624 1.307 . S
C620 H612 0.930 . S
C620 C621 1.355 . S
C620 C622 1.412 . S
C621 H613 0.930 . S
C621 C620 1.355 . S
C621 C624 1.402 . S
C622 C620 1.412 . S
C622 C623 1.417 . S
C622 C646 1.426 1_655 S
C623 N619 1.350 . S
C623 C622 1.417 . S
C623 C626 1.426 . S
C624 H607 0.930 . S
C624 N619 1.307 . S
C624 C621 1.402 . S
N625 Gd588 2.601 . S
N625 C626 1.359 . S
N625 C629 1.334 . S
C626 C623 1.426 . S
C626 N625 1.359 . S
C626 C630 1.413 . S
C627 H618 0.930 . S
C627 C628 1.359 . S
C627 C629 1.394 . S
C628 C627 1.359 . S
C628 C630 1.391 . S
C628 H631 0.929 1_655 S
C629 H611 0.930 . S
C629 N625 1.334 . S
C629 C627 1.394 . S
C630 C626 1.413 . S
C630 C628 1.391 . S
C630 C645 1.437 1_655 S
H631 C628 0.929 1_455 S
O632 Gd588 2.545 . S
O632 C647 1.258 . S
O633 Gd588 2.606 . S
O633 Gd589 2.362 . S
O633 C644 1.284 . S
O634 Gd589 2.324 . S
O634 C654 1.254 . S
O635 Gd588 2.429 . S
O635 C654 1.268 . S
O636 Gd588 2.545 . S
O636 C644 1.250 . S
O637 Gd588 2.412 . S
O637 C647 1.252 . S
O638 Gd589 2.545 . S
O638 C656 1.258 . S
O639 Gd588 2.362 . S
O639 Gd589 2.606 . S
O639 C655 1.284 . S
O640 Gd588 2.324 . S
O640 C663 1.254 . S
O641 Gd589 2.429 . S
O641 C663 1.268 . S
O642 Gd589 2.545 . S
O642 C655 1.250 . S
O643 Gd589 2.412 . S
O643 C656 1.252 . S
C644 O633 1.284 . S
C644 O636 1.250 . S
C645 H614 0.929 . S
C645 C630 1.437 1_455 S
C645 C646 1.323 . S
C646 H617 0.930 . S
C646 C622 1.426 1_455 S
C646 C645 1.323 . S
C647 Gd588 2.828 . S
C647 O632 1.258 . S
C647 O637 1.252 . S
C647 C648 1.497 1_655 S
C648 C647 1.497 1_455 S
C648 C649 1.395 . S
C648 C650 1.380 . S
C649 C648 1.395 . S
C649 C652 1.398 . S
C649 H664 0.930 . S
C650 C648 1.380 . S
C650 C651 1.391 . S
C650 H665 0.930 . S
C651 C650 1.391 . S
C651 C653 1.387 . S
C652 C649 1.398 . S
C652 C653 1.380 . S
C652 H666 0.930 . S
C653 C651 1.387 . S
C653 C652 1.380 . S
C653 H667 0.930 . S
C654 O634 1.254 . S
C654 O635 1.268 . S
C655 O639 1.284 . S
C655 O642 1.250 . S
C656 Gd589 2.828 . S
C656 O638 1.258 . S
C656 O643 1.252 . S
C656 C657 1.497 . S
C657 C656 1.497 . S
C657 C658 1.395 . S
C657 C659 1.380 . S
C658 C657 1.395 . S
C658 C661 1.398 . S
C658 H668 0.930 . S
C659 C657 1.380 . S
C659 C660 1.391 . S
C659 H669 0.930 . S
C660 C659 1.391 . S
C660 C662 1.387 . S
C661 C658 1.398 . S
C661 C662 1.380 . S
C661 H670 0.930 . S
C662 C660 1.387 . S
C662 C661 1.380 . S
C662 H671 0.930 . S
C663 O640 1.254 . S
C663 O641 1.268 . S
H664 C649 0.930 . S
H665 C650 0.930 . S
H666 C652 0.930 . S
H667 C653 0.930 . S
H668 C658 0.930 . S
H669 C659 0.930 . S
H670 C661 0.930 . S
H671 C662 0.930 . S
Gd672 N703 2.661 . S
Gd672 N709 2.601 . S
Gd672 O716 2.545 . S
Gd672 O717 2.606 . S
Gd672 O719 2.429 . S
Gd672 O720 2.545 . S
Gd672 O721 2.412 . S
Gd672 O723 2.362 . S
Gd672 O724 2.324 . S
Gd672 C731 2.828 . S
Gd673 N682 2.661 . S
Gd673 N686 2.601 . S
Gd673 O717 2.362 . S
Gd673 O718 2.324 . S
Gd673 O722 2.545 . S
Gd673 O723 2.606 . S
Gd673 O725 2.429 . S
Gd673 O726 2.545 . S
Gd673 O727 2.412 . S
Gd673 C740 2.828 . S
C674 C677 1.417 . S
C674 C679 1.431 . S
C674 C680 1.412 . S
C675 C678 1.437 . S
C675 C679 1.317 . S
C675 H694 0.929 . S
C676 C677 1.426 . S
C676 C678 1.413 . S
C676 N686 1.359 . S
C677 C674 1.417 . S
C677 C676 1.426 . S
C677 N682 1.350 . S
C678 C675 1.437 . S
C678 C676 1.413 . S
C678 C688 1.391 . S
C679 C674 1.431 . S
C679 C675 1.317 . S
C679 H690 0.930 . S
C680 C674 1.412 . S
C680 C681 1.355 . S
C680 H692 0.930 . S
C681 C680 1.355 . S
C681 C683 1.402 . S
C681 H693 0.930 . S
N682 Gd673 2.661 . S
N682 C677 1.350 . S
N682 C683 1.307 . S
C683 C681 1.402 . S
C683 N682 1.307 . S
C683 H684 0.930 . S
H684 C683 0.930 . S
C685 N686 1.334 . S
C685 C687 1.394 . S
C685 H689 0.930 . S
N686 Gd673 2.601 . S
N686 C676 1.359 . S
N686 C685 1.334 . S
C687 C685 1.394 . S
C687 C688 1.359 . S
C687 H699 0.930 . S
C688 C678 1.391 . S
C688 C687 1.359 . S
C688 H700 0.929 . S
H689 C685 0.930 . S
H690 C679 0.930 . S
H691 C708 0.930 . S
H692 C680 0.930 . S
H693 C681 0.930 . S
H694 C675 0.929 . S
H695 C713 0.930 . S
H696 C704 0.930 . S
H697 C705 0.930 . S
H698 C729 0.929 . S
H699 C687 0.930 . S
H700 C688 0.929 . S
H701 C730 0.930 . S
H702 C711 0.930 . S
N703 Gd672 2.661 . S
N703 C707 1.350 . S
N703 C708 1.307 . S
C704 H696 0.930 . S
C704 C705 1.355 . S
C704 C706 1.412 . S
C705 H697 0.930 . S
C705 C704 1.355 . S
C705 C708 1.402 . S
C706 C704 1.412 . S
C706 C707 1.417 . S
C706 C730 1.431 . S
C707 N703 1.350 . S
C707 C706 1.417 . S
C707 C710 1.426 . S
C708 H691 0.930 . S
C708 N703 1.307 . S
C708 C705 1.402 . S
N709 Gd672 2.601 . S
N709 C710 1.359 . S
N709 C713 1.334 . S
C710 C707 1.426 . S
C710 N709 1.359 . S
C710 C714 1.413 . S
C711 H702 0.930 . S
C711 C712 1.359 . S
C711 C713 1.394 . S
C712 C711 1.359 . S
C712 C714 1.391 . S
C712 H715 0.929 . S
C713 H695 0.930 . S
C713 N709 1.334 . S
C713 C711 1.394 . S
C714 C710 1.413 . S
C714 C712 1.391 . S
C714 C729 1.437 . S
H715 C712 0.929 . S
O716 Gd672 2.545 . S
O716 C731 1.258 . S
O717 Gd672 2.606 . S
O717 Gd673 2.362 . S
O717 C728 1.284 . S
O718 Gd673 2.324 . S
O718 C738 1.254 . S
O719 Gd672 2.429 . S
O719 C738 1.268 . S
O720 Gd672 2.545 . S
O720 C728 1.250 . S
O721 Gd672 2.412 . S
O721 C731 1.252 . S
O722 Gd673 2.545 . S
O722 C740 1.258 . S
O723 Gd672 2.362 . S
O723 Gd673 2.606 . S
O723 C739 1.284 . S
O724 Gd672 2.324 . S
O724 C747 1.254 . S
O725 Gd673 2.429 . S
O725 C747 1.268 . S
O726 Gd673 2.545 . S
O726 C739 1.250 . S
O727 Gd673 2.412 . S
O727 C740 1.252 . S
C728 O717 1.284 . S
C728 O720 1.250 . S
C729 H698 0.929 . S
C729 C714 1.437 . S
C729 C730 1.317 . S
C730 H701 0.930 . S
C730 C706 1.431 . S
C730 C729 1.317 . S
C731 Gd672 2.828 . S
C731 O716 1.258 . S
C731 O721 1.252 . S
C731 C732 1.497 . S
C732 C731 1.497 . S
C732 C733 1.395 . S
C732 C734 1.380 . S
C733 C732 1.395 . S
C733 C736 1.398 . S
C733 H748 0.930 . S
C734 C732 1.380 . S
C734 C735 1.391 . S
C734 H749 0.930 . S
C735 C734 1.391 . S
C735 C737 1.387 . S
C736 C733 1.398 . S
C736 C737 1.380 . S
C736 H750 0.930 . S
C737 C735 1.387 . S
C737 C736 1.380 . S
C737 H751 0.930 . S
C738 O718 1.254 . S
C738 O719 1.268 . S
C739 O723 1.284 . S
C739 O726 1.250 . S
C740 Gd673 2.828 . S
C740 O722 1.258 . S
C740 O727 1.252 . S
C740 C741 1.497 . S
C741 C740 1.497 . S
C741 C742 1.395 . S
C741 C743 1.380 . S
C742 C741 1.395 . S
C742 C745 1.398 . S
C742 H752 0.930 . S
C743 C741 1.380 . S
C743 C744 1.391 . S
C743 H753 0.930 . S
C744 C743 1.391 . S
C744 C746 1.387 . S
C745 C742 1.398 . S
C745 C746 1.380 . S
C745 H754 0.930 . S
C746 C744 1.387 . S
C746 C745 1.380 . S
C746 H755 0.930 . S
C747 O724 1.254 . S
C747 O725 1.268 . S
H748 C733 0.930 . S
H749 C734 0.930 . S
H750 C736 0.930 . S
H751 C737 0.930 . S
H752 C742 0.930 . S
H753 C743 0.930 . S
H754 C745 0.930 . S
H755 C746 0.930 . S
H756 C774 0.951 1_556 S
H757 C776 0.951 1_556 S
H758 C778 0.950 . S
H759 C779 0.950 . S
H760 C781 0.955 . S
H761 C784 0.950 . S
H762 C785 0.950 . S
H763 C787 0.950 . S
H764 C788 0.950 . S
H765 C789 0.951 . S
H766 C791 0.951 . S
H767 C793 0.950 . S
H768 C794 0.950 . S
H769 C796 0.950 . S
H770 C799 0.950 . S
H771 C800 0.950 . S
H772 C802 0.950 . S
H773 C803 0.950 1_554 S
C774 H756 0.951 1_554 S
C774 C775 1.366 . S
C774 C776 1.388 . S
C775 C774 1.366 . S
C775 C779 1.385 . S
C776 H757 0.951 1_554 S
C776 C774 1.388 . S
C776 C777 1.366 . S
C777 C776 1.366 . S
C777 C778 1.414 . S
C777 C780 1.499 . S
C778 H758 0.950 . S
C778 C777 1.414 . S
C778 C779 1.374 . S
C779 H759 0.950 . S
C779 C775 1.385 . S
C779 C778 1.374 . S
C780 C777 1.499 . S
C780 C781 1.373 . S
C780 C782 1.389 . S
C781 H760 0.955 . S
C781 C780 1.373 . S
C781 C797 1.383 . S
C782 C780 1.389 . S
C782 C783 1.524 . S
C782 C796 1.377 . S
C783 C782 1.524 . S
C783 C784 1.397 . S
C783 C788 1.363 . S
C784 H761 0.950 . S
C784 C783 1.397 . S
C784 C785 1.334 . S
C785 H762 0.950 . S
C785 C784 1.334 . S
C785 C786 1.287 . S
C786 C785 1.287 . S
C786 C787 1.524 . S
C786 H805 0.913 . S
C787 H763 0.950 . S
C787 C786 1.524 . S
C787 C788 1.415 . S
C788 H764 0.950 . S
C788 C783 1.363 . S
C788 C787 1.415 . S
C789 H765 0.951 . S
C789 C790 1.366 . S
C789 C791 1.388 . S
C790 C789 1.366 . S
C790 C794 1.385 1_554 S
C791 H766 0.951 . S
C791 C789 1.388 . S
C791 C792 1.366 . S
C792 C791 1.366 . S
C792 C793 1.414 1_554 S
C792 C795 1.499 . S
C793 H767 0.950 . S
C793 C792 1.414 1_556 S
C793 C794 1.374 . S
C794 H768 0.950 . S
C794 C790 1.385 1_556 S
C794 C793 1.374 . S
C795 C792 1.499 . S
C795 C796 1.373 . S
C795 C797 1.399 . S
C796 H769 0.950 . S
C796 C782 1.377 . S
C796 C795 1.373 . S
C797 C781 1.383 . S
C797 C795 1.399 . S
C797 C798 1.508 1_554 S
C798 C797 1.508 1_556 S
C798 C799 1.397 . S
C798 C803 1.363 . S
C799 H770 0.950 . S
C799 C798 1.397 . S
C799 C800 1.334 . S
C800 H771 0.950 . S
C800 C799 1.334 . S
C800 C801 1.287 . S
C801 C800 1.287 . S
C801 C802 1.524 . S
C801 H804 0.999 . S
C802 H772 0.950 . S
C802 C801 1.524 . S
C802 C803 1.415 . S
C803 H773 0.950 1_556 S
C803 C798 1.363 . S
C803 C802 1.415 . S
H804 C801 0.999 . S
H805 C786 0.913 . S
H806 C824 0.951 1_556 S
H807 C826 0.951 1_556 S
H808 C828 0.950 . S
H809 C829 0.950 . S
H810 C831 0.950 . S
H811 C834 0.950 . S
H812 C835 0.950 . S
H813 C837 0.950 . S
H814 C838 0.950 . S
H815 C839 0.951 . S
H816 C841 0.951 . S
H817 C843 0.950 . S
H818 C844 0.950 . S
H819 C846 0.950 . S
H820 C849 0.950 . S
H821 C850 0.950 . S
H822 C852 0.949 1_554 S
H823 C853 0.950 . S
C824 H806 0.951 1_554 S
C824 C825 1.366 . S
C824 C826 1.388 . S
C825 C824 1.366 . S
C825 C829 1.385 . S
C826 H807 0.951 1_554 S
C826 C824 1.388 . S
C826 C827 1.366 . S
C827 C826 1.366 . S
C827 C828 1.414 . S
C827 C830 1.499 . S
C828 H808 0.950 . S
C828 C827 1.414 . S
C828 C829 1.374 . S
C829 H809 0.950 . S
C829 C825 1.385 . S
C829 C828 1.374 . S
C830 C827 1.499 . S
C830 C831 1.373 . S
C830 C832 1.389 . S
C831 H810 0.950 . S
C831 C830 1.373 . S
C831 C847 1.377 . S
C832 C830 1.389 . S
C832 C833 1.524 . S
C832 C846 1.377 . S
C833 C832 1.524 . S
C833 C834 1.397 . S
C833 C838 1.363 . S
C834 H811 0.950 . S
C834 C833 1.397 . S
C834 C835 1.334 . S
C835 H812 0.950 . S
C835 C834 1.334 . S
C835 C836 1.287 . S
C836 C835 1.287 . S
C836 C837 1.524 . S
C836 H855 0.913 . S
C837 H813 0.950 . S
C837 C836 1.524 . S
C837 C838 1.415 . S
C838 H814 0.950 . S
C838 C833 1.363 . S
C838 C837 1.415 . S
C839 H815 0.951 . S
C839 C840 1.366 . S
C839 C841 1.388 . S
C840 C839 1.366 . S
C840 C844 1.385 1_554 S
C841 H816 0.951 . S
C841 C839 1.388 . S
C841 C842 1.366 . S
C842 C841 1.366 . S
C842 C843 1.414 1_554 S
C842 C845 1.499 . S
C843 H817 0.950 . S
C843 C842 1.414 1_556 S
C843 C844 1.374 . S
C844 H818 0.950 . S
C844 C840 1.385 1_556 S
C844 C843 1.374 . S
C845 C842 1.499 . S
C845 C846 1.373 . S
C845 C847 1.389 . S
C846 H819 0.950 . S
C846 C832 1.377 . S
C846 C845 1.373 . S
C847 C831 1.377 . S
C847 C845 1.389 . S
C847 C848 1.524 1_554 S
C848 C847 1.524 1_556 S
C848 C849 1.397 . S
C848 C853 1.363 1_556 S
C849 H820 0.950 . S
C849 C848 1.397 . S
C849 C850 1.334 . S
C850 H821 0.950 . S
C850 C849 1.334 . S
C850 C851 1.287 . S
C851 C850 1.287 . S
C851 C852 1.524 . S
C851 H854 0.999 . S
C852 H822 0.949 1_556 S
C852 C851 1.524 . S
C852 C853 1.415 1_556 S
C853 H823 0.950 . S
C853 C848 1.363 1_554 S
C853 C852 1.415 1_554 S
H854 C851 0.999 . S
H855 C836 0.913 . S
H856 C874 0.951 . S
H857 C876 0.951 . S
H858 C878 0.950 . S
H859 C879 0.950 . S
H860 C881 0.950 . S
H861 C884 0.950 . S
H862 C885 0.950 . S
H863 C887 0.950 . S
H864 C888 0.950 . S
H865 C889 0.951 . S
H866 C891 0.951 . S
H867 C893 0.950 . S
H868 C894 0.950 . S
H869 C896 0.950 . S
H870 C899 0.950 . S
H871 C900 0.950 . S
H872 C902 0.950 . S
H873 C903 0.950 . S
C874 H856 0.951 . S
C874 C875 1.366 . S
C874 C876 1.388 . S
C875 C874 1.366 . S
C875 C879 1.385 . S
C876 H857 0.951 . S
C876 C874 1.388 . S
C876 C877 1.366 . S
C877 C876 1.366 . S
C877 C878 1.414 . S
C877 C880 1.499 . S
C878 H858 0.950 . S
C878 C877 1.414 . S
C878 C879 1.374 . S
C879 H859 0.950 . S
C879 C875 1.385 . S
C879 C878 1.374 . S
C880 C877 1.499 . S
C880 C881 1.373 1_554 S
C880 C882 1.389 . S
C881 H860 0.950 . S
C881 C880 1.373 1_556 S
C881 C897 1.377 . S
C882 C880 1.389 . S
C882 C883 1.524 . S
C882 C896 1.377 . S
C883 C882 1.524 . S
C883 C884 1.397 . S
C883 C888 1.363 . S
C884 H861 0.950 . S
C884 C883 1.397 . S
C884 C885 1.334 . S
C885 H862 0.950 . S
C885 C884 1.334 . S
C885 C886 1.287 . S
C886 C885 1.287 . S
C886 C887 1.524 . S
C886 H905 0.913 . S
C887 H863 0.950 . S
C887 C886 1.524 . S
C887 C888 1.415 . S
C888 H864 0.950 . S
C888 C883 1.363 . S
C888 C887 1.415 . S
C889 H865 0.951 . S
C889 C890 1.366 . S
C889 C891 1.388 . S
C890 C889 1.366 . S
C890 C894 1.385 . S
C891 H866 0.951 . S
C891 C889 1.388 . S
C891 C892 1.366 . S
C892 C891 1.366 . S
C892 C893 1.414 . S
C892 C895 1.499 . S
C893 H867 0.950 . S
C893 C892 1.414 . S
C893 C894 1.374 . S
C894 H868 0.950 . S
C894 C890 1.385 . S
C894 C893 1.374 . S
C895 C892 1.499 . S
C895 C896 1.373 . S
C895 C897 1.389 1_554 S
C896 H869 0.950 . S
C896 C882 1.377 . S
C896 C895 1.373 . S
C897 C881 1.377 . S
C897 C895 1.389 1_556 S
C897 C898 1.524 . S
C898 C897 1.524 . S
C898 C899 1.397 . S
C898 C903 1.363 . S
C899 H870 0.950 . S
C899 C898 1.397 . S
C899 C900 1.334 . S
C900 H871 0.950 . S
C900 C899 1.334 . S
C900 C901 1.287 . S
C901 C900 1.287 . S
C901 C902 1.524 . S
C901 H904 0.999 . S
C902 H872 0.950 . S
C902 C901 1.524 . S
C902 C903 1.415 . S
C903 H873 0.950 . S
C903 C898 1.363 . S
C903 C902 1.415 . S
H904 C901 0.999 . S
H905 C886 0.913 . S
H906 C924 0.951 . S
H907 C926 0.951 . S
H908 C928 0.950 . S
H909 C929 0.950 . S
H910 C931 0.950 . S
H911 C934 0.950 . S
H912 C935 0.950 . S
H913 C937 0.950 . S
H914 C938 0.950 . S
H915 C939 0.951 . S
H916 C941 0.951 . S
H917 C943 0.950 . S
H918 C944 0.950 . S
H919 C946 0.950 . S
H920 C949 0.950 . S
H921 C950 0.950 . S
H922 C952 0.950 . S
H923 C953 0.950 . S
C924 H906 0.951 . S
C924 C925 1.366 . S
C924 C926 1.388 . S
C925 C924 1.366 . S
C925 C929 1.385 1_556 S
C926 H907 0.951 . S
C926 C924 1.388 . S
C926 C927 1.366 . S
C927 C926 1.366 . S
C927 C928 1.414 1_556 S
C927 C930 1.499 . S
C928 H908 0.950 . S
C928 C927 1.414 1_554 S
C928 C929 1.374 . S
C929 H909 0.950 . S
C929 C925 1.385 1_554 S
C929 C928 1.374 . S
C930 C927 1.499 . S
C930 C931 1.373 1_556 S
C930 C932 1.389 . S
C931 H910 0.950 . S
C931 C930 1.373 1_554 S
C931 C947 1.377 . S
C932 C930 1.389 . S
C932 C933 1.524 . S
C932 C946 1.377 . S
C933 C932 1.524 . S
C933 C934 1.397 . S
C933 C938 1.363 . S
C934 H911 0.950 . S
C934 C933 1.397 . S
C934 C935 1.334 . S
C935 H912 0.950 . S
C935 C934 1.334 . S
C935 C936 1.287 . S
C936 C935 1.287 . S
C936 C937 1.524 . S
C936 H955 0.913 . S
C937 H913 0.950 . S
C937 C936 1.524 . S
C937 C938 1.415 . S
C938 H914 0.950 . S
C938 C933 1.363 . S
C938 C937 1.415 . S
C939 H915 0.951 . S
C939 C940 1.366 . S
C939 C941 1.388 . S
C940 C939 1.366 . S
C940 C944 1.385 1_554 S
C941 H916 0.951 . S
C941 C939 1.388 . S
C941 C942 1.367 . S
C942 C941 1.367 . S
C942 C943 1.412 1_554 S
C942 C945 1.498 1_554 S
C943 H917 0.950 . S
C943 C942 1.412 1_556 S
C943 C944 1.374 . S
C944 H918 0.950 . S
C944 C940 1.385 1_556 S
C944 C943 1.374 . S
C945 C942 1.498 1_556 S
C945 C946 1.373 . S
C945 C947 1.389 1_556 S
C946 H919 0.950 . S
C946 C932 1.377 . S
C946 C945 1.373 . S
C947 C931 1.377 . S
C947 C945 1.389 1_554 S
C947 C948 1.524 . S
C948 C947 1.524 . S
C948 C949 1.397 . S
C948 C953 1.363 . S
C949 H920 0.950 . S
C949 C948 1.397 . S
C949 C950 1.334 . S
C950 H921 0.950 . S
C950 C949 1.334 . S
C950 C951 1.287 . S
C951 C950 1.287 . S
C951 C952 1.524 . S
C951 H954 0.999 . S
C952 H922 0.950 . S
C952 C951 1.524 . S
C952 C953 1.415 . S
C953 H923 0.950 . S
C953 C948 1.363 . S
C953 C952 1.415 . S
H954 C951 0.999 . S
H955 C936 0.913 . S
H956 C974 0.951 . S
H957 C976 0.951 . S
H958 C978 0.950 . S
H959 C979 0.950 . S
H960 C981 0.950 . S
H961 C984 0.950 . S
H962 C985 0.950 . S
H963 C987 0.950 . S
H964 C988 0.950 . S
H965 C989 0.951 . S
H966 C991 0.951 . S
H967 C993 0.950 . S
H968 C994 0.950 . S
H969 C996 0.950 . S
H970 C999 0.950 . S
H971 C1000 0.950 . S
H972 C1002 0.950 . S
H973 C1003 0.950 . S
C974 H956 0.951 . S
C974 C975 1.366 1_556 S
C974 C976 1.388 . S
C975 C974 1.366 1_554 S
C975 C979 1.385 . S
C976 H957 0.951 . S
C976 C974 1.388 . S
C976 C977 1.366 . S
C977 C976 1.366 . S
C977 C978 1.414 1_556 S
C977 C980 1.499 . S
C978 H958 0.950 . S
C978 C977 1.414 1_554 S
C978 C979 1.374 . S
C979 H959 0.950 . S
C979 C975 1.385 . S
C979 C978 1.374 . S
C980 C977 1.499 . S
C980 C981 1.373 1_556 S
C980 C982 1.389 . S
C981 H960 0.950 . S
C981 C980 1.373 1_554 S
C981 C997 1.377 . S
C982 C980 1.389 . S
C982 C983 1.524 . S
C982 C996 1.377 . S
C983 C982 1.524 . S
C983 C984 1.397 . S
C983 C988 1.363 . S
C984 H961 0.950 . S
C984 C983 1.397 . S
C984 C985 1.334 . S
C985 H962 0.950 . S
C985 C984 1.334 . S
C985 C986 1.287 . S
C986 C985 1.287 . S
C986 C987 1.524 . S
C986 H1005 0.913 . S
C987 H963 0.950 . S
C987 C986 1.524 . S
C987 C988 1.415 . S
C988 H964 0.950 . S
C988 C983 1.363 . S
C988 C987 1.415 . S
C989 H965 0.951 . S
C989 C990 1.366 1_554 S
C989 C991 1.388 . S
C990 C989 1.366 1_556 S
C990 C994 1.385 . S
C991 H966 0.951 . S
C991 C989 1.388 . S
C991 C992 1.366 1_554 S
C992 C991 1.366 1_556 S
C992 C993 1.414 . S
C992 C995 1.499 . S
C993 H967 0.950 . S
C993 C992 1.414 . S
C993 C994 1.374 . S
C994 H968 0.950 . S
C994 C990 1.385 . S
C994 C993 1.374 . S
C995 C992 1.499 . S
C995 C996 1.373 . S
C995 C997 1.389 1_556 S
C996 H969 0.950 . S
C996 C982 1.377 . S
C996 C995 1.373 . S
C997 C981 1.377 . S
C997 C995 1.389 1_554 S
C997 C998 1.524 . S
C998 C997 1.524 . S
C998 C999 1.397 . S
C998 C1003 1.363 . S
C999 H970 0.950 . S
C999 C998 1.397 . S
C999 C1000 1.334 . S
C1000 H971 0.950 . S
C1000 C999 1.334 . S
C1000 C1001 1.287 . S
C1001 C1000 1.287 . S
C1001 C1002 1.524 . S
C1001 H1004 0.999 . S
C1002 H972 0.950 . S
C1002 C1001 1.524 . S
C1002 C1003 1.415 . S
C1003 H973 0.950 . S
C1003 C998 1.363 . S
C1003 C1002 1.415 . S
H1004 C1001 0.999 . S
H1005 C986 0.913 . S
H1006 C1024 0.951 . S
H1007 C1026 0.951 . S
H1008 C1028 0.950 . S
H1009 C1029 0.950 . S
H1010 C1031 0.950 . S
H1011 C1034 0.950 . S
H1012 C1035 0.950 . S
H1013 C1037 0.950 . S
H1014 C1038 0.950 . S
H1015 C1039 0.951 . S
H1016 C1041 0.951 . S
H1017 C1043 0.950 . S
H1018 C1044 0.950 . S
H1019 C1046 0.950 . S
H1020 C1049 0.950 . S
H1021 C1050 0.950 . S
H1022 C1052 0.950 1_554 S
H1023 C1053 0.950 . S
C1024 H1006 0.951 . S
C1024 C1025 1.366 1_556 S
C1024 C1026 1.388 . S
C1025 C1024 1.366 1_554 S
C1025 C1029 1.385 . S
C1026 H1007 0.951 . S
C1026 C1024 1.388 . S
C1026 C1027 1.359 1_556 S
C1027 C1026 1.359 1_554 S
C1027 C1028 1.421 . S
C1027 C1030 1.497 1_554 S
C1028 H1008 0.950 . S
C1028 C1027 1.421 . S
C1028 C1029 1.374 . S
C1029 H1009 0.950 . S
C1029 C1025 1.385 . S
C1029 C1028 1.374 . S
C1030 C1027 1.497 1_556 S
C1030 C1031 1.378 . S
C1030 C1032 1.389 . S
C1031 H1010 0.950 . S
C1031 C1030 1.378 . S
C1031 C1047 1.377 . S
C1032 C1030 1.389 . S
C1032 C1033 1.517 1_556 S
C1032 C1046 1.383 . S
C1033 C1032 1.517 1_554 S
C1033 C1034 1.397 . S
C1033 C1038 1.363 1_554 S
C1034 H1011 0.950 . S
C1034 C1033 1.397 . S
C1034 C1035 1.334 . S
C1035 H1012 0.950 . S
C1035 C1034 1.334 . S
C1035 C1036 1.287 . S
C1036 C1035 1.287 . S
C1036 C1037 1.524 1_554 S
C1036 H1055 0.913 . S
C1037 H1013 0.950 . S
C1037 C1036 1.524 1_556 S
C1037 C1038 1.415 . S
C1038 H1014 0.950 . S
C1038 C1033 1.363 1_556 S
C1038 C1037 1.415 . S
C1039 H1015 0.951 . S
C1039 C1040 1.366 1_554 S
C1039 C1041 1.388 . S
C1040 C1039 1.366 1_556 S
C1040 C1044 1.385 . S
C1041 H1016 0.951 . S
C1041 C1039 1.388 . S
C1041 C1042 1.366 1_554 S
C1042 C1041 1.366 1_556 S
C1042 C1043 1.414 . S
C1042 C1045 1.499 . S
C1043 H1017 0.950 . S
C1043 C1042 1.414 . S
C1043 C1044 1.374 . S
C1044 H1018 0.950 . S
C1044 C1040 1.385 . S
C1044 C1043 1.374 . S
C1045 C1042 1.499 . S
C1045 C1046 1.373 . S
C1045 C1047 1.389 . S
C1046 H1019 0.950 . S
C1046 C1032 1.383 . S
C1046 C1045 1.373 . S
C1047 C1031 1.377 . S
C1047 C1045 1.389 . S
C1047 C1048 1.524 . S
C1048 C1047 1.524 . S
C1048 C1049 1.397 . S
C1048 C1053 1.363 1_556 S
C1049 H1020 0.950 . S
C1049 C1048 1.397 . S
C1049 C1050 1.334 . S
C1050 H1021 0.950 . S
C1050 C1049 1.334 . S
C1050 C1051 1.287 . S
C1051 C1050 1.287 . S
C1051 C1052 1.524 . S
C1051 H1054 0.999 . S
C1052 H1022 0.950 1_556 S
C1052 C1051 1.524 . S
C1052 C1053 1.415 1_556 S
C1053 H1023 0.950 . S
C1053 C1048 1.363 1_554 S
C1053 C1052 1.415 1_554 S
H1054 C1051 0.999 . S
H1055 C1036 0.913 . S
H1056 C1074 0.951 . S
H1057 C1076 0.951 . S
H1058 C1078 0.950 . S
H1059 C1079 0.950 . S
H1060 C1081 0.950 . S
H1061 C1084 0.950 . S
H1062 C1085 0.950 . S
H1063 C1087 0.950 . S
H1064 C1088 0.950 . S
H1065 C1089 0.951 1_455 S
H1066 C1091 0.951 . S
H1067 C1093 0.950 . S
H1068 C1094 0.941 1_455 S
H1069 C1096 0.950 . S
H1070 C1099 0.950 . S
H1071 C1100 0.950 . S
H1072 C1102 0.950 . S
H1073 C1103 0.950 . S
C1074 H1056 0.951 . S
C1074 C1075 1.366 . S
C1074 C1076 1.388 . S
C1075 C1074 1.366 . S
C1075 C1079 1.385 . S
C1076 H1057 0.951 . S
C1076 C1074 1.388 . S
C1076 C1077 1.366 . S
C1077 C1076 1.366 . S
C1077 C1078 1.414 . S
C1077 C1080 1.499 . S
C1078 H1058 0.950 . S
C1078 C1077 1.414 . S
C1078 C1079 1.374 . S
C1079 H1059 0.950 . S
C1079 C1075 1.385 . S
C1079 C1078 1.374 . S
C1080 C1077 1.499 . S
C1080 C1081 1.373 . S
C1080 C1082 1.389 . S
C1081 H1060 0.950 . S
C1081 C1080 1.373 . S
C1081 C1097 1.377 . S
C1082 C1080 1.389 . S
C1082 C1083 1.524 . S
C1082 C1096 1.377 . S
C1083 C1082 1.524 . S
C1083 C1084 1.397 . S
C1083 C1088 1.363 . S
C1084 H1061 0.950 . S
C1084 C1083 1.397 . S
C1084 C1085 1.334 . S
C1085 H1062 0.950 . S
C1085 C1084 1.334 . S
C1085 C1086 1.287 . S
C1086 C1085 1.287 . S
C1086 C1087 1.524 . S
C1086 H1105 0.913 . S
C1087 H1063 0.950 . S
C1087 C1086 1.524 . S
C1087 C1088 1.415 . S
C1088 H1064 0.950 . S
C1088 C1083 1.363 . S
C1088 C1087 1.415 . S
C1089 H1065 0.951 1_655 S
C1089 C1090 1.366 1_655 S
C1089 C1091 1.388 . S
C1090 C1089 1.366 1_455 S
C1090 C1094 1.372 1_455 S
C1091 H1066 0.951 . S
C1091 C1089 1.388 . S
C1091 C1092 1.366 . S
C1092 C1091 1.366 . S
C1092 C1093 1.414 . S
C1092 C1095 1.499 . S
C1093 H1067 0.950 . S
C1093 C1092 1.414 . S
C1093 C1094 1.396 . S
C1094 H1068 0.941 1_655 S
C1094 C1090 1.372 1_655 S
C1094 C1093 1.396 . S
C1095 C1092 1.499 . S
C1095 C1096 1.373 . S
C1095 C1097 1.389 . S
C1096 H1069 0.950 . S
C1096 C1082 1.377 . S
C1096 C1095 1.373 . S
C1097 C1081 1.377 . S
C1097 C1095 1.389 . S
C1097 C1098 1.524 . S
C1098 C1097 1.524 . S
C1098 C1099 1.397 . S
C1098 C1103 1.363 . S
C1099 H1070 0.950 . S
C1099 C1098 1.397 . S
C1099 C1100 1.334 . S
C1100 H1071 0.950 . S
C1100 C1099 1.334 . S
C1100 C1101 1.287 . S
C1101 C1100 1.287 . S
C1101 C1102 1.524 . S
C1101 H1104 0.999 . S
C1102 H1072 0.950 . S
C1102 C1101 1.524 . S
C1102 C1103 1.415 . S
C1103 H1073 0.950 . S
C1103 C1098 1.363 . S
C1103 C1102 1.415 . S
H1104 C1101 0.999 . S
H1105 C1086 0.913 . S
H1106 C1124 0.951 . S
H1107 C1126 0.951 . S
H1108 C1128 0.950 . S
H1109 C1129 0.950 . S
H1110 C1131 0.950 . S
H1111 C1134 0.950 . S
H1112 C1135 0.950 . S
H1113 C1137 0.950 . S
H1114 C1138 0.950 . S
H1115 C1139 0.951 . S
H1116 C1141 0.951 1_545 S
H1117 C1143 0.950 . S
H1118 C1144 0.950 . S
H1119 C1146 0.950 . S
H1120 C1149 0.950 . S
H1121 C1150 0.950 . S
H1122 C1152 0.950 . S
H1123 C1153 0.950 . S
C1124 H1106 0.951 . S
C1124 C1125 1.366 . S
C1124 C1126 1.388 . S
C1125 C1124 1.366 . S
C1125 C1129 1.385 . S
C1126 H1107 0.951 . S
C1126 C1124 1.388 . S
C1126 C1127 1.366 . S
C1127 C1126 1.366 . S
C1127 C1128 1.414 . S
C1127 C1130 1.499 . S
C1128 H1108 0.950 . S
C1128 C1127 1.414 . S
C1128 C1129 1.374 . S
C1129 H1109 0.950 . S
C1129 C1125 1.385 . S
C1129 C1128 1.374 . S
C1130 C1127 1.499 . S
C1130 C1131 1.373 . S
C1130 C1132 1.389 . S
C1131 H1110 0.950 . S
C1131 C1130 1.373 . S
C1131 C1147 1.377 . S
C1132 C1130 1.389 . S
C1132 C1133 1.524 . S
C1132 C1146 1.377 . S
C1133 C1132 1.524 . S
C1133 C1134 1.397 . S
C1133 C1138 1.363 . S
C1134 H1111 0.950 . S
C1134 C1133 1.397 . S
C1134 C1135 1.334 . S
C1135 H1112 0.950 . S
C1135 C1134 1.334 . S
C1135 C1136 1.287 . S
C1136 C1135 1.287 . S
C1136 C1137 1.524 . S
C1136 H1155 0.913 . S
C1137 H1113 0.950 . S
C1137 C1136 1.524 . S
C1137 C1138 1.415 . S
C1138 H1114 0.950 . S
C1138 C1133 1.363 . S
C1138 C1137 1.415 . S
C1139 H1115 0.951 . S
C1139 C1140 1.366 . S
C1139 C1141 1.388 . S
C1140 C1139 1.366 . S
C1140 C1144 1.385 . S
C1141 H1116 0.951 1_565 S
C1141 C1139 1.388 . S
C1141 C1142 1.366 . S
C1142 C1141 1.366 . S
C1142 C1143 1.414 . S
C1142 C1145 1.499 1_565 S
C1143 H1117 0.950 . S
C1143 C1142 1.414 . S
C1143 C1144 1.374 . S
C1144 H1118 0.950 . S
C1144 C1140 1.385 . S
C1144 C1143 1.374 . S
C1145 C1142 1.499 1_545 S
C1145 C1146 1.373 . S
C1145 C1147 1.389 . S
C1146 H1119 0.950 . S
C1146 C1132 1.377 . S
C1146 C1145 1.373 . S
C1147 C1131 1.377 . S
C1147 C1145 1.389 . S
C1147 C1148 1.524 . S
C1148 C1147 1.524 . S
C1148 C1149 1.397 1_545 S
C1148 C1153 1.363 . S
C1149 H1120 0.950 . S
C1149 C1148 1.397 1_565 S
C1149 C1150 1.334 . S
C1150 H1121 0.950 . S
C1150 C1149 1.334 . S
C1150 C1151 1.287 . S
C1151 C1150 1.287 . S
C1151 C1152 1.524 1_565 S
C1151 H1154 0.999 . S
C1152 H1122 0.950 . S
C1152 C1151 1.524 1_545 S
C1152 C1153 1.415 . S
C1153 H1123 0.950 . S
C1153 C1148 1.363 . S
C1153 C1152 1.415 . S
H1154 C1151 0.999 . S
H1155 C1136 0.913 . S
H1156 C1174 0.951 . S
H1157 C1176 0.951 . S
H1158 C1178 0.950 1_655 S
H1159 C1179 0.950 . S
H1160 C1181 0.950 . S
H1161 C1184 0.950 . S
H1162 C1185 0.950 . S
H1163 C1187 0.950 . S
H1164 C1188 0.950 . S
H1165 C1189 0.951 . S
H1166 C1191 0.951 . S
H1167 C1193 0.950 . S
H1168 C1194 0.950 1_565 S
H1169 C1196 0.950 . S
H1170 C1199 0.950 . S
H1171 C1200 0.950 . S
H1172 C1202 0.950 . S
H1173 C1203 0.950 . S
C1174 H1156 0.951 . S
C1174 C1175 1.366 . S
C1174 C1176 1.388 . S
C1175 C1174 1.366 . S
C1175 C1179 1.385 . S
C1176 H1157 0.951 . S
C1176 C1174 1.388 . S
C1176 C1177 1.366 . S
C1177 C1176 1.366 . S
C1177 C1178 1.414 . S
C1177 C1180 1.499 1_455 S
C1178 H1158 0.950 1_455 S
C1178 C1177 1.414 . S
C1178 C1179 1.374 . S
C1179 H1159 0.950 . S
C1179 C1175 1.385 . S
C1179 C1178 1.374 . S
C1180 C1177 1.499 1_655 S
C1180 C1181 1.373 . S
C1180 C1182 1.389 . S
C1181 H1160 0.950 . S
C1181 C1180 1.373 . S
C1181 C1197 1.377 . S
C1182 C1180 1.389 . S
C1182 C1183 1.524 1_655 S
C1182 C1196 1.377 . S
C1183 C1182 1.524 1_455 S
C1183 C1184 1.397 . S
C1183 C1188 1.363 . S
C1184 H1161 0.950 . S
C1184 C1183 1.397 . S
C1184 C1185 1.334 . S
C1185 H1162 0.950 . S
C1185 C1184 1.334 . S
C1185 C1186 1.287 . S
C1186 C1185 1.287 . S
C1186 C1187 1.524 . S
C1186 H1205 0.913 . S
C1187 H1163 0.950 . S
C1187 C1186 1.524 . S
C1187 C1188 1.415 . S
C1188 H1164 0.950 . S
C1188 C1183 1.363 . S
C1188 C1187 1.415 . S
C1189 H1165 0.951 . S
C1189 C1190 1.358 1_545 S
C1189 C1191 1.388 . S
C1190 C1189 1.358 1_565 S
C1190 C1194 1.386 1_565 S
C1191 H1166 0.951 . S
C1191 C1189 1.388 . S
C1191 C1192 1.366 . S
C1192 C1191 1.366 . S
C1192 C1193 1.414 . S
C1192 C1195 1.499 . S
C1193 H1167 0.950 . S
C1193 C1192 1.414 . S
C1193 C1194 1.374 . S
C1194 H1168 0.950 1_545 S
C1194 C1190 1.386 1_545 S
C1194 C1193 1.374 . S
C1195 C1192 1.499 . S
C1195 C1196 1.373 . S
C1195 C1197 1.389 . S
C1196 H1169 0.950 . S
C1196 C1182 1.377 . S
C1196 C1195 1.373 . S
C1197 C1181 1.377 . S
C1197 C1195 1.389 . S
C1197 C1198 1.524 . S
C1198 C1197 1.524 . S
C1198 C1199 1.397 . S
C1198 C1203 1.363 . S
C1199 H1170 0.950 . S
C1199 C1198 1.397 . S
C1199 C1200 1.334 . S
C1200 H1171 0.950 . S
C1200 C1199 1.334 . S
C1200 C1201 1.287 . S
C1201 C1200 1.287 . S
C1201 C1202 1.524 . S
C1201 H1204 0.999 . S
C1202 H1172 0.950 . S
C1202 C1201 1.524 . S
C1202 C1203 1.415 . S
C1203 H1173 0.950 . S
C1203 C1198 1.363 . S
C1203 C1202 1.415 . S
H1204 C1201 0.999 . S
H1205 C1186 0.913 . S
H1206 C1224 0.951 . S
H1207 C1226 0.951 . S
H1208 C1228 0.950 . S
H1209 C1229 0.950 . S
H1210 C1231 0.950 . S
H1211 C1234 0.950 . S
H1212 C1235 0.950 . S
H1213 C1237 0.950 . S
H1214 C1238 0.950 . S
H1215 C1239 0.951 . S
H1216 C1241 0.951 . S
H1217 C1243 0.950 . S
H1218 C1244 0.950 . S
H1219 C1246 0.950 . S
H1220 C1249 0.950 . S
H1221 C1250 0.950 . S
H1222 C1252 0.950 . S
H1223 C1253 0.950 . S
C1224 H1206 0.951 . S
C1224 C1225 1.366 . S
C1224 C1226 1.388 . S
C1225 C1224 1.366 . S
C1225 C1229 1.385 . S
C1226 H1207 0.951 . S
C1226 C1224 1.388 . S
C1226 C1227 1.366 . S
C1227 C1226 1.366 . S
C1227 C1228 1.414 . S
C1227 C1230 1.499 . S
C1228 H1208 0.950 . S
C1228 C1227 1.414 . S
C1228 C1229 1.374 . S
C1229 H1209 0.950 . S
C1229 C1225 1.385 . S
C1229 C1228 1.374 . S
C1230 C1227 1.499 . S
C1230 C1231 1.373 . S
C1230 C1232 1.389 . S
C1231 H1210 0.950 . S
C1231 C1230 1.373 . S
C1231 C1247 1.377 . S
C1232 C1230 1.389 . S
C1232 C1233 1.524 . S
C1232 C1246 1.377 . S
C1233 C1232 1.524 . S
C1233 C1234 1.397 . S
C1233 C1238 1.363 . S
C1234 H1211 0.950 . S
C1234 C1233 1.397 . S
C1234 C1235 1.334 . S
C1235 H1212 0.950 . S
C1235 C1234 1.334 . S
C1235 C1236 1.287 . S
C1236 C1235 1.287 . S
C1236 C1237 1.524 . S
C1236 H1255 0.913 . S
C1237 H1213 0.950 . S
C1237 C1236 1.524 . S
C1237 C1238 1.415 . S
C1238 H1214 0.950 . S
C1238 C1233 1.363 . S
C1238 C1237 1.415 . S
C1239 H1215 0.951 . S
C1239 C1240 1.366 . S
C1239 C1241 1.388 . S
C1240 C1239 1.366 . S
C1240 C1244 1.385 . S
C1241 H1216 0.951 . S
C1241 C1239 1.388 . S
C1241 C1242 1.366 . S
C1242 C1241 1.366 . S
C1242 C1243 1.414 . S
C1242 C1245 1.499 . S
C1243 H1217 0.950 . S
C1243 C1242 1.414 . S
C1243 C1244 1.374 . S
C1244 H1218 0.950 . S
C1244 C1240 1.385 . S
C1244 C1243 1.374 . S
C1245 C1242 1.499 . S
C1245 C1246 1.373 . S
C1245 C1247 1.389 . S
C1246 H1219 0.950 . S
C1246 C1232 1.377 . S
C1246 C1245 1.373 . S
C1247 C1231 1.377 . S
C1247 C1245 1.389 . S
C1247 C1248 1.524 . S
C1248 C1247 1.524 . S
C1248 C1249 1.397 . S
C1248 C1253 1.363 . S
C1249 H1220 0.950 . S
C1249 C1248 1.397 . S
C1249 C1250 1.334 . S
C1250 H1221 0.950 . S
C1250 C1249 1.334 . S
C1250 C1251 1.287 . S
C1251 C1250 1.287 . S
C1251 C1252 1.524 . S
C1251 H1254 0.999 . S
C1252 H1222 0.950 . S
C1252 C1251 1.524 . S
C1252 C1253 1.415 . S
C1253 H1223 0.950 . S
C1253 C1248 1.363 . S
C1253 C1252 1.415 . S
H1254 C1251 0.999 . S
H1255 C1236 0.913 . S
H1256 C1274 0.951 . S
H1257 C1276 0.951 . S
H1258 C1278 0.950 . S
H1259 C1279 0.950 . S
H1260 C1281 0.950 . S
H1261 C1284 0.950 . S
H1262 C1285 0.950 . S
H1263 C1287 0.950 . S
H1264 C1288 0.950 . S
H1265 C1289 0.951 . S
H1266 C1291 0.951 . S
H1267 C1293 0.950 . S
H1268 C1294 0.950 . S
H1269 C1296 0.950 . S
H1270 C1299 0.950 . S
H1271 C1300 0.950 . S
H1272 C1302 0.950 . S
H1273 C1303 0.950 . S
C1274 H1256 0.951 . S
C1274 C1275 1.366 . S
C1274 C1276 1.388 . S
C1275 C1274 1.366 . S
C1275 C1279 1.385 . S
C1276 H1257 0.951 . S
C1276 C1274 1.388 . S
C1276 C1277 1.366 . S
C1277 C1276 1.366 . S
C1277 C1278 1.414 . S
C1277 C1280 1.499 . S
C1278 H1258 0.950 . S
C1278 C1277 1.414 . S
C1278 C1279 1.374 . S
C1279 H1259 0.950 . S
C1279 C1275 1.385 . S
C1279 C1278 1.374 . S
C1280 C1277 1.499 . S
C1280 C1281 1.373 . S
C1280 C1282 1.389 . S
C1281 H1260 0.950 . S
C1281 C1280 1.373 . S
C1281 C1297 1.377 . S
C1282 C1280 1.389 . S
C1282 C1283 1.524 . S
C1282 C1296 1.377 . S
C1283 C1282 1.524 . S
C1283 C1284 1.397 . S
C1283 C1288 1.363 . S
C1284 H1261 0.950 . S
C1284 C1283 1.397 . S
C1284 C1285 1.334 . S
C1285 H1262 0.950 . S
C1285 C1284 1.334 . S
C1285 C1286 1.287 . S
C1286 C1285 1.287 . S
C1286 C1287 1.524 . S
C1286 H1305 0.913 . S
C1287 H1263 0.950 . S
C1287 C1286 1.524 . S
C1287 C1288 1.415 . S
C1288 H1264 0.950 . S
C1288 C1283 1.363 . S
C1288 C1287 1.415 . S
C1289 H1265 0.951 . S
C1289 C1290 1.366 . S
C1289 C1291 1.388 . S
C1290 C1289 1.366 . S
C1290 C1294 1.385 . S
C1291 H1266 0.951 . S
C1291 C1289 1.388 . S
C1291 C1292 1.366 . S
C1292 C1291 1.366 . S
C1292 C1293 1.414 . S
C1292 C1295 1.499 . S
C1293 H1267 0.950 . S
C1293 C1292 1.414 . S
C1293 C1294 1.374 . S
C1294 H1268 0.950 . S
C1294 C1290 1.385 . S
C1294 C1293 1.374 . S
C1295 C1292 1.499 . S
C1295 C1296 1.373 . S
C1295 C1297 1.389 . S
C1296 H1269 0.950 . S
C1296 C1282 1.377 . S
C1296 C1295 1.373 . S
C1297 C1281 1.377 . S
C1297 C1295 1.389 . S
C1297 C1298 1.524 . S
C1298 C1297 1.524 . S
C1298 C1299 1.397 . S
C1298 C1303 1.363 . S
C1299 H1270 0.950 . S
C1299 C1298 1.397 . S
C1299 C1300 1.334 . S
C1300 H1271 0.950 . S
C1300 C1299 1.334 . S
C1300 C1301 1.287 . S
C1301 C1300 1.287 . S
C1301 C1302 1.524 . S
C1301 H1304 0.999 . S
C1302 H1272 0.950 . S
C1302 C1301 1.524 . S
C1302 C1303 1.415 . S
C1303 H1273 0.950 . S
C1303 C1298 1.363 . S
C1303 C1302 1.415 . S
H1304 C1301 0.999 . S
H1305 C1286 0.913 . S
H1306 C1324 0.951 . S
H1307 C1326 0.951 . S
H1308 C1328 0.950 . S
H1309 C1329 0.950 . S
H1310 C1331 0.950 . S
H1311 C1334 0.950 . S
H1312 C1335 0.950 . S
H1313 C1337 0.950 . S
H1314 C1338 0.950 . S
H1315 C1339 0.951 . S
H1316 C1341 0.951 . S
H1317 C1343 0.950 . S
H1318 C1344 0.950 . S
H1319 C1346 0.950 . S
H1320 C1349 0.950 . S
H1321 C1350 0.950 . S
H1322 C1352 0.950 . S
H1323 C1353 0.950 . S
C1324 H1306 0.951 . S
C1324 C1325 1.366 . S
C1324 C1326 1.388 . S
C1325 C1324 1.366 . S
C1325 C1329 1.385 . S
C1326 H1307 0.951 . S
C1326 C1324 1.388 . S
C1326 C1327 1.366 . S
C1327 C1326 1.366 . S
C1327 C1328 1.414 . S
C1327 C1330 1.499 . S
C1328 H1308 0.950 . S
C1328 C1327 1.414 . S
C1328 C1329 1.374 . S
C1329 H1309 0.950 . S
C1329 C1325 1.385 . S
C1329 C1328 1.374 . S
C1330 C1327 1.499 . S
C1330 C1331 1.373 . S
C1330 C1332 1.389 . S
C1331 H1310 0.950 . S
C1331 C1330 1.373 . S
C1331 C1347 1.377 . S
C1332 C1330 1.389 . S
C1332 C1333 1.524 . S
C1332 C1346 1.377 . S
C1333 C1332 1.524 . S
C1333 C1334 1.397 . S
C1333 C1338 1.363 . S
C1334 H1311 0.950 . S
C1334 C1333 1.397 . S
C1334 C1335 1.334 . S
C1335 H1312 0.950 . S
C1335 C1334 1.334 . S
C1335 C1336 1.287 . S
C1336 C1335 1.287 . S
C1336 C1337 1.524 . S
C1336 H1355 0.913 . S
C1337 H1313 0.950 . S
C1337 C1336 1.524 . S
C1337 C1338 1.415 . S
C1338 H1314 0.950 . S
C1338 C1333 1.363 . S
C1338 C1337 1.415 . S
C1339 H1315 0.951 . S
C1339 C1340 1.366 . S
C1339 C1341 1.388 . S
C1340 C1339 1.366 . S
C1340 C1344 1.385 . S
C1341 H1316 0.951 . S
C1341 C1339 1.388 . S
C1341 C1342 1.366 . S
C1342 C1341 1.366 . S
C1342 C1343 1.414 . S
C1342 C1345 1.499 . S
C1343 H1317 0.950 . S
C1343 C1342 1.414 . S
C1343 C1344 1.374 . S
C1344 H1318 0.950 . S
C1344 C1340 1.385 . S
C1344 C1343 1.374 . S
C1345 C1342 1.499 . S
C1345 C1346 1.373 . S
C1345 C1347 1.389 . S
C1346 H1319 0.950 . S
C1346 C1332 1.377 . S
C1346 C1345 1.373 . S
C1347 C1331 1.377 . S
C1347 C1345 1.389 . S
C1347 C1348 1.524 . S
C1348 C1347 1.524 . S
C1348 C1349 1.397 . S
C1348 C1353 1.363 . S
C1349 H1320 0.950 . S
C1349 C1348 1.397 . S
C1349 C1350 1.334 . S
C1350 H1321 0.950 . S
C1350 C1349 1.334 . S
C1350 C1351 1.287 . S
C1351 C1350 1.287 . S
C1351 C1352 1.524 . S
C1351 H1354 0.999 . S
C1352 H1322 0.950 . S
C1352 C1351 1.524 . S
C1352 C1353 1.415 . S
C1353 H1323 0.950 . S
C1353 C1348 1.363 . S
C1353 C1352 1.415 . S
H1354 C1351 0.999 . S
H1355 C1336 0.913 . S
H1356 C1374 0.951 . S
H1357 C1376 0.951 . S
H1358 C1378 0.950 . S
H1359 C1379 0.950 . S
H1360 C1381 0.950 . S
H1361 C1384 0.950 . S
H1362 C1385 0.950 . S
H1363 C1387 0.950 . S
H1364 C1388 0.950 . S
H1365 C1389 0.951 . S
H1366 C1391 0.951 . S
H1367 C1393 0.950 . S
H1368 C1394 0.950 . S
H1369 C1396 0.950 . S
H1370 C1399 0.950 . S
H1371 C1400 0.950 . S
H1372 C1402 0.950 . S
H1373 C1403 0.950 . S
C1374 H1356 0.951 . S
C1374 C1375 1.366 . S
C1374 C1376 1.388 . S
C1375 C1374 1.366 . S
C1375 C1379 1.385 . S
C1376 H1357 0.951 . S
C1376 C1374 1.388 . S
C1376 C1377 1.366 . S
C1377 C1376 1.366 . S
C1377 C1378 1.414 . S
C1377 C1380 1.499 . S
C1378 H1358 0.950 . S
C1378 C1377 1.414 . S
C1378 C1379 1.374 . S
C1379 H1359 0.950 . S
C1379 C1375 1.385 . S
C1379 C1378 1.374 . S
C1380 C1377 1.499 . S
C1380 C1381 1.373 . S
C1380 C1382 1.389 . S
C1381 H1360 0.950 . S
C1381 C1380 1.373 . S
C1381 C1397 1.377 . S
C1382 C1380 1.389 . S
C1382 C1383 1.524 . S
C1382 C1396 1.377 . S
C1383 C1382 1.524 . S
C1383 C1384 1.397 . S
C1383 C1388 1.363 . S
C1384 H1361 0.950 . S
C1384 C1383 1.397 . S
C1384 C1385 1.334 . S
C1385 H1362 0.950 . S
C1385 C1384 1.334 . S
C1385 C1386 1.287 . S
C1386 C1385 1.287 . S
C1386 C1387 1.524 . S
C1386 H1405 0.913 . S
C1387 H1363 0.950 . S
C1387 C1386 1.524 . S
C1387 C1388 1.415 . S
C1388 H1364 0.950 . S
C1388 C1383 1.363 . S
C1388 C1387 1.415 . S
C1389 H1365 0.951 . S
C1389 C1390 1.366 . S
C1389 C1391 1.388 . S
C1390 C1389 1.366 . S
C1390 C1394 1.385 . S
C1391 H1366 0.951 . S
C1391 C1389 1.388 . S
C1391 C1392 1.366 . S
C1392 C1391 1.366 . S
C1392 C1393 1.414 . S
C1392 C1395 1.499 . S
C1393 H1367 0.950 . S
C1393 C1392 1.414 . S
C1393 C1394 1.374 . S
C1394 H1368 0.950 . S
C1394 C1390 1.385 . S
C1394 C1393 1.374 . S
C1395 C1392 1.499 . S
C1395 C1396 1.373 . S
C1395 C1397 1.389 . S
C1396 H1369 0.950 . S
C1396 C1382 1.377 . S
C1396 C1395 1.373 . S
C1397 C1381 1.377 . S
C1397 C1395 1.389 . S
C1397 C1398 1.524 . S
C1398 C1397 1.524 . S
C1398 C1399 1.397 . S
C1398 C1403 1.363 . S
C1399 H1370 0.950 . S
C1399 C1398 1.397 . S
C1399 C1400 1.334 . S
C1400 H1371 0.950 . S
C1400 C1399 1.334 . S
C1400 C1401 1.287 . S
C1401 C1400 1.287 . S
C1401 C1402 1.524 . S
C1401 H1404 0.999 . S
C1402 H1372 0.950 . S
C1402 C1401 1.524 . S
C1402 C1403 1.415 . S
C1403 H1373 0.950 . S
C1403 C1398 1.363 . S
C1403 C1402 1.415 . S
H1404 C1401 0.999 . S
H1405 C1386 0.913 . S
H1406 C1424 0.951 . S
H1407 C1426 0.951 . S
H1408 C1428 0.950 . S
H1409 C1429 0.950 . S
H1410 C1431 0.950 . S
H1411 C1434 0.950 . S
H1412 C1435 0.950 . S
H1413 C1437 0.950 . S
H1414 C1438 0.950 . S
H1415 C1439 0.951 . S
H1416 C1441 0.951 . S
H1417 C1443 0.950 . S
H1418 C1444 0.950 . S
H1419 C1446 0.950 . S
H1420 C1449 0.950 . S
H1421 C1450 0.950 . S
H1422 C1452 0.950 . S
H1423 C1453 0.950 . S
C1424 H1406 0.951 . S
C1424 C1425 1.366 . S
C1424 C1426 1.388 . S
C1425 C1424 1.366 . S
C1425 C1429 1.385 . S
C1426 H1407 0.951 . S
C1426 C1424 1.388 . S
C1426 C1427 1.366 . S
C1427 C1426 1.366 . S
C1427 C1428 1.414 . S
C1427 C1430 1.499 . S
C1428 H1408 0.950 . S
C1428 C1427 1.414 . S
C1428 C1429 1.374 . S
C1429 H1409 0.950 . S
C1429 C1425 1.385 . S
C1429 C1428 1.374 . S
C1430 C1427 1.499 . S
C1430 C1431 1.373 . S
C1430 C1432 1.389 . S
C1431 H1410 0.950 . S
C1431 C1430 1.373 . S
C1431 C1447 1.377 . S
C1432 C1430 1.389 . S
C1432 C1433 1.524 . S
C1432 C1446 1.377 . S
C1433 C1432 1.524 . S
C1433 C1434 1.397 . S
C1433 C1438 1.363 . S
C1434 H1411 0.950 . S
C1434 C1433 1.397 . S
C1434 C1435 1.334 . S
C1435 H1412 0.950 . S
C1435 C1434 1.334 . S
C1435 C1436 1.287 . S
C1436 C1435 1.287 . S
C1436 C1437 1.524 . S
C1436 H1455 0.913 . S
C1437 H1413 0.950 . S
C1437 C1436 1.524 . S
C1437 C1438 1.415 . S
C1438 H1414 0.950 . S
C1438 C1433 1.363 . S
C1438 C1437 1.415 . S
C1439 H1415 0.951 . S
C1439 C1440 1.366 . S
C1439 C1441 1.388 . S
C1440 C1439 1.366 . S
C1440 C1444 1.385 . S
C1441 H1416 0.951 . S
C1441 C1439 1.388 . S
C1441 C1442 1.366 . S
C1442 C1441 1.366 . S
C1442 C1443 1.414 . S
C1442 C1445 1.499 . S
C1443 H1417 0.950 . S
C1443 C1442 1.414 . S
C1443 C1444 1.374 . S
C1444 H1418 0.950 . S
C1444 C1440 1.385 . S
C1444 C1443 1.374 . S
C1445 C1442 1.499 . S
C1445 C1446 1.373 . S
C1445 C1447 1.389 . S
C1446 H1419 0.950 . S
C1446 C1432 1.377 . S
C1446 C1445 1.373 . S
C1447 C1431 1.377 . S
C1447 C1445 1.389 . S
C1447 C1448 1.524 . S
C1448 C1447 1.524 . S
C1448 C1449 1.397 . S
C1448 C1453 1.363 . S
C1449 H1420 0.950 . S
C1449 C1448 1.397 . S
C1449 C1450 1.334 . S
C1450 H1421 0.950 . S
C1450 C1449 1.334 . S
C1450 C1451 1.287 . S
C1451 C1450 1.287 . S
C1451 C1452 1.524 . S
C1451 H1454 0.999 . S
C1452 H1422 0.950 . S
C1452 C1451 1.524 . S
C1452 C1453 1.415 . S
C1453 H1423 0.950 . S
C1453 C1448 1.363 . S
C1453 C1452 1.415 . S
H1454 C1451 0.999 . S
H1455 C1436 0.913 . S
H1456 C1474 0.951 . S
H1457 C1476 0.951 . S
H1458 C1478 0.950 . S
H1459 C1479 0.950 . S
H1460 C1481 0.950 . S
H1461 C1484 0.950 . S
H1462 C1485 0.950 . S
H1463 C1487 0.950 . S
H1464 C1488 0.950 . S
H1465 C1489 0.951 . S
H1466 C1491 0.951 . S
H1467 C1493 0.950 . S
H1468 C1494 0.950 . S
H1469 C1496 0.950 . S
H1470 C1499 0.950 . S
H1471 C1500 0.950 . S
H1472 C1502 0.950 . S
H1473 C1503 0.950 . S
C1474 H1456 0.951 . S
C1474 C1475 1.366 . S
C1474 C1476 1.388 . S
C1475 C1474 1.366 . S
C1475 C1479 1.385 . S
C1476 H1457 0.951 . S
C1476 C1474 1.388 . S
C1476 C1477 1.366 . S
C1477 C1476 1.366 . S
C1477 C1478 1.414 . S
C1477 C1480 1.499 . S
C1478 H1458 0.950 . S
C1478 C1477 1.414 . S
C1478 C1479 1.374 . S
C1479 H1459 0.950 . S
C1479 C1475 1.385 . S
C1479 C1478 1.374 . S
C1480 C1477 1.499 . S
C1480 C1481 1.373 . S
C1480 C1482 1.389 . S
C1481 H1460 0.950 . S
C1481 C1480 1.373 . S
C1481 C1497 1.377 . S
C1482 C1480 1.389 . S
C1482 C1483 1.524 . S
C1482 C1496 1.377 . S
C1483 C1482 1.524 . S
C1483 C1484 1.397 . S
C1483 C1488 1.363 . S
C1484 H1461 0.950 . S
C1484 C1483 1.397 . S
C1484 C1485 1.334 . S
C1485 H1462 0.950 . S
C1485 C1484 1.334 . S
C1485 C1486 1.287 . S
C1486 C1485 1.287 . S
C1486 C1487 1.524 . S
C1486 H1505 0.913 . S
C1487 H1463 0.950 . S
C1487 C1486 1.524 . S
C1487 C1488 1.415 . S
C1488 H1464 0.950 . S
C1488 C1483 1.363 . S
C1488 C1487 1.415 . S
C1489 H1465 0.951 . S
C1489 C1490 1.366 . S
C1489 C1491 1.388 . S
C1490 C1489 1.366 . S
C1490 C1494 1.385 . S
C1491 H1466 0.951 . S
C1491 C1489 1.388 . S
C1491 C1492 1.366 . S
C1492 C1491 1.366 . S
C1492 C1493 1.414 . S
C1492 C1495 1.499 . S
C1493 H1467 0.950 . S
C1493 C1492 1.414 . S
C1493 C1494 1.374 . S
C1494 H1468 0.950 . S
C1494 C1490 1.385 . S
C1494 C1493 1.374 . S
C1495 C1492 1.499 . S
C1495 C1496 1.373 . S
C1495 C1497 1.389 . S
C1496 H1469 0.950 . S
C1496 C1482 1.377 . S
C1496 C1495 1.373 . S
C1497 C1481 1.377 . S
C1497 C1495 1.389 . S
C1497 C1498 1.524 . S
C1498 C1497 1.524 . S
C1498 C1499 1.397 . S
C1498 C1503 1.363 . S
C1499 H1470 0.950 . S
C1499 C1498 1.397 . S
C1499 C1500 1.334 . S
C1500 H1471 0.950 . S
C1500 C1499 1.334 . S
C1500 C1501 1.287 . S
C1501 C1500 1.287 . S
C1501 C1502 1.524 . S
C1501 H1504 0.999 . S
C1502 H1472 0.950 . S
C1502 C1501 1.524 . S
C1502 C1503 1.415 . S
C1503 H1473 0.950 . S
C1503 C1498 1.363 . S
C1503 C1502 1.415 . S
H1504 C1501 0.999 . S
H1505 C1486 0.913 . S
H1506 C1524 0.951 . S
H1507 C1526 0.951 . S
H1508 C1528 0.950 . S
H1509 C1529 0.950 . S
H1510 C1531 0.950 . S
H1511 C1534 0.950 . S
H1512 C1535 0.950 . S
H1513 C1537 0.950 . S
H1514 C1538 0.950 . S
H1515 C1539 0.951 . S
H1516 C1541 0.951 . S
H1517 C1543 0.950 . S
H1518 C1544 0.950 . S
H1519 C1546 0.950 . S
H1520 C1549 0.950 . S
H1521 C1550 0.950 . S
H1522 C1552 0.950 . S
H1523 C1553 0.950 . S
C1524 H1506 0.951 . S
C1524 C1525 1.366 . S
C1524 C1526 1.388 . S
C1525 C1524 1.366 . S
C1525 C1529 1.385 . S
C1526 H1507 0.951 . S
C1526 C1524 1.388 . S
C1526 C1527 1.366 . S
C1527 C1526 1.366 . S
C1527 C1528 1.414 . S
C1527 C1530 1.499 . S
C1528 H1508 0.950 . S
C1528 C1527 1.414 . S
C1528 C1529 1.374 . S
C1529 H1509 0.950 . S
C1529 C1525 1.385 . S
C1529 C1528 1.374 . S
C1530 C1527 1.499 . S
C1530 C1531 1.373 . S
C1530 C1532 1.389 . S
C1531 H1510 0.950 . S
C1531 C1530 1.373 . S
C1531 C1547 1.377 1_565 S
C1532 C1530 1.389 . S
C1532 C1533 1.524 . S
C1532 C1546 1.377 1_565 S
C1533 C1532 1.524 . S
C1533 C1534 1.397 . S
C1533 C1538 1.363 . S
C1534 H1511 0.950 . S
C1534 C1533 1.397 . S
C1534 C1535 1.334 . S
C1535 H1512 0.950 . S
C1535 C1534 1.334 . S
C1535 C1536 1.287 . S
C1536 C1535 1.287 . S
C1536 C1537 1.524 . S
C1536 H1555 0.913 . S
C1537 H1513 0.950 . S
C1537 C1536 1.524 . S
C1537 C1538 1.415 . S
C1538 H1514 0.950 . S
C1538 C1533 1.363 . S
C1538 C1537 1.415 . S
C1539 H1515 0.951 . S
C1539 C1540 1.366 . S
C1539 C1541 1.388 . S
C1540 C1539 1.366 . S
C1540 C1544 1.385 . S
C1541 H1516 0.951 . S
C1541 C1539 1.388 . S
C1541 C1542 1.366 . S
C1542 C1541 1.366 . S
C1542 C1543 1.414 . S
C1542 C1545 1.499 . S
C1543 H1517 0.950 . S
C1543 C1542 1.414 . S
C1543 C1544 1.374 . S
C1544 H1518 0.950 . S
C1544 C1540 1.385 . S
C1544 C1543 1.374 . S
C1545 C1542 1.499 . S
C1545 C1546 1.373 . S
C1545 C1547 1.389 . S
C1546 H1519 0.950 . S
C1546 C1532 1.377 1_545 S
C1546 C1545 1.373 . S
C1547 C1531 1.377 1_545 S
C1547 C1545 1.389 . S
C1547 C1548 1.524 . S
C1548 C1547 1.524 . S
C1548 C1549 1.397 . S
C1548 C1553 1.363 . S
C1549 H1520 0.950 . S
C1549 C1548 1.397 . S
C1549 C1550 1.334 . S
C1550 H1521 0.950 . S
C1550 C1549 1.334 . S
C1550 C1551 1.287 . S
C1551 C1550 1.287 . S
C1551 C1552 1.524 . S
C1551 H1554 0.999 . S
C1552 H1522 0.950 . S
C1552 C1551 1.524 . S
C1552 C1553 1.415 . S
C1553 H1523 0.950 . S
C1553 C1548 1.363 . S
C1553 C1552 1.415 . S
H1554 C1551 0.999 . S
H1555 C1536 0.913 . S
H1556 C1574 0.951 . S
H1557 C1576 0.951 . S
H1558 C1578 0.950 . S
H1559 C1579 0.950 . S
H1560 C1581 0.950 . S
H1561 C1584 0.950 . S
H1562 C1585 0.950 . S
H1563 C1587 0.950 . S
H1564 C1588 0.950 . S
H1565 C1589 0.951 . S
H1566 C1591 0.951 . S
H1567 C1593 0.950 . S
H1568 C1594 0.950 . S
H1569 C1596 0.950 . S
H1570 C1599 0.950 . S
H1571 C1600 0.950 . S
H1572 C1602 0.950 . S
H1573 C1603 0.950 . S
C1574 H1556 0.951 . S
C1574 C1575 1.366 . S
C1574 C1576 1.388 . S
C1575 C1574 1.366 . S
C1575 C1579 1.385 . S
C1576 H1557 0.951 . S
C1576 C1574 1.388 . S
C1576 C1577 1.366 . S
C1577 C1576 1.366 . S
C1577 C1578 1.414 . S
C1577 C1580 1.499 . S
C1578 H1558 0.950 . S
C1578 C1577 1.414 . S
C1578 C1579 1.374 . S
C1579 H1559 0.950 . S
C1579 C1575 1.385 . S
C1579 C1578 1.374 . S
C1580 C1577 1.499 . S
C1580 C1581 1.373 1_655 S
C1580 C1582 1.389 1_655 S
C1581 H1560 0.950 . S
C1581 C1580 1.373 1_455 S
C1581 C1597 1.377 . S
C1582 C1580 1.389 1_455 S
C1582 C1583 1.524 1_455 S
C1582 C1596 1.377 . S
C1583 C1582 1.524 1_655 S
C1583 C1584 1.397 . S
C1583 C1588 1.363 . S
C1584 H1561 0.950 . S
C1584 C1583 1.397 . S
C1584 C1585 1.334 . S
C1585 H1562 0.950 . S
C1585 C1584 1.334 . S
C1585 C1586 1.287 . S
C1586 C1585 1.287 . S
C1586 C1587 1.524 . S
C1586 H1605 0.913 . S
C1587 H1563 0.950 . S
C1587 C1586 1.524 . S
C1587 C1588 1.415 . S
C1588 H1564 0.950 . S
C1588 C1583 1.363 . S
C1588 C1587 1.415 . S
C1589 H1565 0.951 . S
C1589 C1590 1.366 . S
C1589 C1591 1.388 . S
C1590 C1589 1.366 . S
C1590 C1594 1.385 . S
C1591 H1566 0.951 . S
C1591 C1589 1.388 . S
C1591 C1592 1.366 . S
C1592 C1591 1.366 . S
C1592 C1593 1.414 . S
C1592 C1595 1.499 . S
C1593 H1567 0.950 . S
C1593 C1592 1.414 . S
C1593 C1594 1.374 . S
C1594 H1568 0.950 . S
C1594 C1590 1.385 . S
C1594 C1593 1.374 . S
C1595 C1592 1.499 . S
C1595 C1596 1.373 . S
C1595 C1597 1.389 . S
C1596 H1569 0.950 . S
C1596 C1582 1.377 . S
C1596 C1595 1.373 . S
C1597 C1581 1.377 . S
C1597 C1595 1.389 . S
C1597 C1598 1.524 . S
C1598 C1597 1.524 . S
C1598 C1599 1.397 . S
C1598 C1603 1.363 . S
C1599 H1570 0.950 . S
C1599 C1598 1.397 . S
C1599 C1600 1.334 . S
C1600 H1571 0.950 . S
C1600 C1599 1.334 . S
C1600 C1601 1.287 . S
C1601 C1600 1.287 . S
C1601 C1602 1.524 . S
C1601 H1604 0.999 . S
C1602 H1572 0.950 . S
C1602 C1601 1.524 . S
C1602 C1603 1.415 . S
C1603 H1573 0.950 . S
C1603 C1598 1.363 . S
C1603 C1602 1.415 . S
H1604 C1601 0.999 . S
H1605 C1586 0.913 . S
H1606 C1624 0.951 . S
H1607 C1626 0.951 . S
H1608 C1628 0.950 . S
H1609 C1629 0.950 . S
H1610 C1631 0.950 . S
H1611 C1634 0.950 . S
H1612 C1635 0.950 . S
H1613 C1637 0.950 . S
H1614 C1638 0.950 . S
H1615 C1639 0.951 . S
H1616 C1641 0.951 . S
H1617 C1643 0.950 . S
H1618 C1644 0.950 . S
H1619 C1646 0.950 . S
H1620 C1649 0.950 . S
H1621 C1650 0.950 . S
H1622 C1652 0.950 . S
H1623 C1653 0.950 . S
C1624 H1606 0.951 . S
C1624 C1625 1.366 . S
C1624 C1626 1.388 . S
C1625 C1624 1.366 . S
C1625 C1629 1.385 . S
C1626 H1607 0.951 . S
C1626 C1624 1.388 . S
C1626 C1627 1.366 . S
C1627 C1626 1.366 . S
C1627 C1628 1.414 . S
C1627 C1630 1.499 . S
C1628 H1608 0.950 . S
C1628 C1627 1.414 . S
C1628 C1629 1.374 . S
C1629 H1609 0.950 . S
C1629 C1625 1.385 . S
C1629 C1628 1.374 . S
C1630 C1627 1.499 . S
C1630 C1631 1.373 . S
C1630 C1632 1.389 . S
C1631 H1610 0.950 . S
C1631 C1630 1.373 . S
C1631 C1647 1.377 . S
C1632 C1630 1.389 . S
C1632 C1633 1.524 . S
C1632 C1646 1.377 . S
C1633 C1632 1.524 . S
C1633 C1634 1.397 . S
C1633 C1638 1.363 . S
C1634 H1611 0.950 . S
C1634 C1633 1.397 . S
C1634 C1635 1.334 . S
C1635 H1612 0.950 . S
C1635 C1634 1.334 . S
C1635 C1636 1.287 . S
C1636 C1635 1.287 . S
C1636 C1637 1.524 . S
C1636 H1655 0.913 . S
C1637 H1613 0.950 . S
C1637 C1636 1.524 . S
C1637 C1638 1.415 . S
C1638 H1614 0.950 . S
C1638 C1633 1.363 . S
C1638 C1637 1.415 . S
C1639 H1615 0.951 . S
C1639 C1640 1.366 . S
C1639 C1641 1.388 . S
C1640 C1639 1.366 . S
C1640 C1644 1.385 . S
C1641 H1616 0.951 . S
C1641 C1639 1.388 . S
C1641 C1642 1.366 . S
C1642 C1641 1.366 . S
C1642 C1643 1.414 . S
C1642 C1645 1.499 . S
C1643 H1617 0.950 . S
C1643 C1642 1.414 . S
C1643 C1644 1.374 . S
C1644 H1618 0.950 . S
C1644 C1640 1.385 . S
C1644 C1643 1.374 . S
C1645 C1642 1.499 . S
C1645 C1646 1.373 . S
C1645 C1647 1.389 . S
C1646 H1619 0.950 . S
C1646 C1632 1.377 . S
C1646 C1645 1.373 . S
C1647 C1631 1.377 . S
C1647 C1645 1.389 . S
C1647 C1648 1.524 . S
C1648 C1647 1.524 . S
C1648 C1649 1.397 . S
C1648 C1653 1.363 . S
C1649 H1620 0.950 . S
C1649 C1648 1.397 . S
C1649 C1650 1.334 . S
C1650 H1621 0.950 . S
C1650 C1649 1.334 . S
C1650 C1651 1.287 . S
C1651 C1650 1.287 . S
C1651 C1652 1.524 . S
C1651 H1654 0.999 . S
C1652 H1622 0.950 . S
C1652 C1651 1.524 . S
C1652 C1653 1.415 . S
C1653 H1623 0.950 . S
C1653 C1648 1.363 . S
C1653 C1652 1.415 . S
H1654 C1651 0.999 . S
H1655 C1636 0.913 . S
H1656 C1674 0.951 . S
H1657 C1676 0.951 . S
H1658 C1678 0.950 . S
H1659 C1679 0.950 . S
H1660 C1681 0.950 . S
H1661 C1684 0.950 . S
H1662 C1685 0.950 . S
H1663 C1687 0.950 . S
H1664 C1688 0.950 . S
H1665 C1689 0.951 . S
H1666 C1691 0.951 . S
H1667 C1693 0.950 . S
H1668 C1694 0.950 . S
H1669 C1696 0.950 . S
H1670 C1699 0.950 . S
H1671 C1700 0.950 . S
H1672 C1702 0.950 . S
H1673 C1703 0.950 . S
C1674 H1656 0.951 . S
C1674 C1675 1.366 . S
C1674 C1676 1.388 . S
C1675 C1674 1.366 . S
C1675 C1679 1.385 . S
C1676 H1657 0.951 . S
C1676 C1674 1.388 . S
C1676 C1677 1.366 . S
C1677 C1676 1.366 . S
C1677 C1678 1.414 . S
C1677 C1680 1.499 . S
C1678 H1658 0.950 . S
C1678 C1677 1.414 . S
C1678 C1679 1.374 . S
C1679 H1659 0.950 . S
C1679 C1675 1.385 . S
C1679 C1678 1.374 . S
C1680 C1677 1.499 . S
C1680 C1681 1.373 . S
C1680 C1682 1.389 . S
C1681 H1660 0.950 . S
C1681 C1680 1.373 . S
C1681 C1697 1.377 . S
C1682 C1680 1.389 . S
C1682 C1683 1.524 . S
C1682 C1696 1.377 . S
C1683 C1682 1.524 . S
C1683 C1684 1.397 . S
C1683 C1688 1.363 . S
C1684 H1661 0.950 . S
C1684 C1683 1.397 . S
C1684 C1685 1.334 . S
C1685 H1662 0.950 . S
C1685 C1684 1.334 . S
C1685 C1686 1.287 . S
C1686 C1685 1.287 . S
C1686 C1687 1.524 1_455 S
C1686 H1705 0.913 1_455 S
C1687 H1663 0.950 . S
C1687 C1686 1.524 1_655 S
C1687 C1688 1.415 1_655 S
C1688 H1664 0.950 . S
C1688 C1683 1.363 . S
C1688 C1687 1.415 1_455 S
C1689 H1665 0.951 . S
C1689 C1690 1.366 . S
C1689 C1691 1.388 . S
C1690 C1689 1.366 . S
C1690 C1694 1.385 . S
C1691 H1666 0.951 . S
C1691 C1689 1.388 . S
C1691 C1692 1.366 . S
C1692 C1691 1.366 . S
C1692 C1693 1.414 . S
C1692 C1695 1.499 . S
C1693 H1667 0.950 . S
C1693 C1692 1.414 . S
C1693 C1694 1.374 . S
C1694 H1668 0.950 . S
C1694 C1690 1.385 . S
C1694 C1693 1.374 . S
C1695 C1692 1.499 . S
C1695 C1696 1.373 . S
C1695 C1697 1.389 . S
C1696 H1669 0.950 . S
C1696 C1682 1.377 . S
C1696 C1695 1.373 . S
C1697 C1681 1.377 . S
C1697 C1695 1.389 . S
C1697 C1698 1.524 . S
C1698 C1697 1.524 . S
C1698 C1699 1.397 . S
C1698 C1703 1.363 . S
C1699 H1670 0.950 . S
C1699 C1698 1.397 . S
C1699 C1700 1.334 . S
C1700 H1671 0.950 . S
C1700 C1699 1.334 . S
C1700 C1701 1.287 . S
C1701 C1700 1.287 . S
C1701 C1702 1.524 . S
C1701 H1704 0.999 . S
C1702 H1672 0.950 . S
C1702 C1701 1.524 . S
C1702 C1703 1.415 . S
C1703 H1673 0.950 . S
C1703 C1698 1.363 . S
C1703 C1702 1.415 . S
H1704 C1701 0.999 . S
H1705 C1686 0.913 1_655 S
H1706 C1724 0.951 . S
H1707 C1726 0.951 . S
H1708 C1728 0.950 . S
H1709 C1729 0.950 . S
H1710 C1731 0.950 . S
H1711 C1734 0.950 . S
H1712 C1735 0.950 . S
H1713 C1737 0.950 . S
H1714 C1738 0.950 . S
H1715 C1739 0.951 . S
H1716 C1741 0.951 . S
H1717 C1743 0.950 . S
H1718 C1744 0.950 . S
H1719 C1746 0.950 . S
H1720 C1749 0.950 . S
H1721 C1750 0.950 . S
H1722 C1752 0.950 . S
H1723 C1753 0.950 . S
C1724 H1706 0.951 . S
C1724 C1725 1.366 . S
C1724 C1726 1.388 . S
C1725 C1724 1.366 . S
C1725 C1729 1.385 . S
C1726 H1707 0.951 . S
C1726 C1724 1.388 . S
C1726 C1727 1.366 . S
C1727 C1726 1.366 . S
C1727 C1728 1.414 . S
C1727 C1730 1.499 . S
C1728 H1708 0.950 . S
C1728 C1727 1.414 . S
C1728 C1729 1.374 . S
C1729 H1709 0.950 . S
C1729 C1725 1.385 . S
C1729 C1728 1.374 . S
C1730 C1727 1.499 . S
C1730 C1731 1.373 . S
C1730 C1732 1.389 . S
C1731 H1710 0.950 . S
C1731 C1730 1.373 . S
C1731 C1747 1.377 . S
C1732 C1730 1.389 . S
C1732 C1733 1.524 . S
C1732 C1746 1.377 . S
C1733 C1732 1.524 . S
C1733 C1734 1.397 . S
C1733 C1738 1.363 . S
C1734 H1711 0.950 . S
C1734 C1733 1.397 . S
C1734 C1735 1.334 . S
C1735 H1712 0.950 . S
C1735 C1734 1.334 . S
C1735 C1736 1.287 . S
C1736 C1735 1.287 . S
C1736 C1737 1.524 . S
C1736 H1755 0.913 . S
C1737 H1713 0.950 . S
C1737 C1736 1.524 . S
C1737 C1738 1.415 . S
C1738 H1714 0.950 . S
C1738 C1733 1.363 . S
C1738 C1737 1.415 . S
C1739 H1715 0.951 . S
C1739 C1740 1.366 . S
C1739 C1741 1.388 . S
C1740 C1739 1.366 . S
C1740 C1744 1.385 . S
C1741 H1716 0.951 . S
C1741 C1739 1.388 . S
C1741 C1742 1.366 . S
C1742 C1741 1.366 . S
C1742 C1743 1.414 . S
C1742 C1745 1.499 . S
C1743 H1717 0.950 . S
C1743 C1742 1.414 . S
C1743 C1744 1.374 . S
C1744 H1718 0.950 . S
C1744 C1740 1.385 . S
C1744 C1743 1.374 . S
C1745 C1742 1.499 . S
C1745 C1746 1.373 . S
C1745 C1747 1.389 . S
C1746 H1719 0.950 . S
C1746 C1732 1.377 . S
C1746 C1745 1.373 . S
C1747 C1731 1.377 . S
C1747 C1745 1.389 . S
C1747 C1748 1.524 . S
C1748 C1747 1.524 . S
C1748 C1749 1.397 . S
C1748 C1753 1.363 . S
C1749 H1720 0.950 . S
C1749 C1748 1.397 . S
C1749 C1750 1.334 . S
C1750 H1721 0.950 . S
C1750 C1749 1.334 . S
C1750 C1751 1.287 . S
C1751 C1750 1.287 . S
C1751 C1752 1.524 . S
C1751 H1754 0.999 . S
C1752 H1722 0.950 . S
C1752 C1751 1.524 . S
C1752 C1753 1.415 . S
C1753 H1723 0.950 . S
C1753 C1748 1.363 . S
C1753 C1752 1.415 . S
H1754 C1751 0.999 . S
H1755 C1736 0.913 . S
H1756 C1774 0.951 . S
H1757 C1776 0.951 . S
H1758 C1778 0.950 . S
H1759 C1779 0.950 . S
H1760 C1781 0.950 . S
H1761 C1784 0.950 . S
H1762 C1785 0.950 . S
H1763 C1787 0.950 . S
H1764 C1788 0.950 . S
H1765 C1789 0.951 . S
H1766 C1791 0.951 . S
H1767 C1793 0.950 . S
H1768 C1794 0.950 . S
H1769 C1796 0.950 . S
H1770 C1799 0.950 . S
H1771 C1800 0.950 . S
H1772 C1802 0.950 . S
H1773 C1803 0.950 . S
C1774 H1756 0.951 . S
C1774 C1775 1.366 . S
C1774 C1776 1.388 . S
C1775 C1774 1.366 . S
C1775 C1779 1.385 . S
C1776 H1757 0.951 . S
C1776 C1774 1.388 . S
C1776 C1777 1.366 . S
C1777 C1776 1.366 . S
C1777 C1778 1.414 . S
C1777 C1780 1.499 . S
C1778 H1758 0.950 . S
C1778 C1777 1.414 . S
C1778 C1779 1.374 . S
C1779 H1759 0.950 . S
C1779 C1775 1.385 . S
C1779 C1778 1.374 . S
C1780 C1777 1.499 . S
C1780 C1781 1.373 . S
C1780 C1782 1.389 . S
C1781 H1760 0.950 . S
C1781 C1780 1.373 . S
C1781 C1797 1.377 . S
C1782 C1780 1.389 . S
C1782 C1783 1.524 . S
C1782 C1796 1.377 . S
C1783 C1782 1.524 . S
C1783 C1784 1.397 . S
C1783 C1788 1.363 . S
C1784 H1761 0.950 . S
C1784 C1783 1.397 . S
C1784 C1785 1.334 1_565 S
C1785 H1762 0.950 . S
C1785 C1784 1.334 1_545 S
C1785 C1786 1.287 . S
C1786 C1785 1.287 . S
C1786 C1787 1.524 1_545 S
C1786 H1805 0.913 . S
C1787 H1763 0.950 . S
C1787 C1786 1.524 1_565 S
C1787 C1788 1.415 . S
C1788 H1764 0.950 . S
C1788 C1783 1.363 . S
C1788 C1787 1.415 . S
C1789 H1765 0.951 . S
C1789 C1790 1.366 . S
C1789 C1791 1.388 . S
C1790 C1789 1.366 . S
C1790 C1794 1.385 . S
C1791 H1766 0.951 . S
C1791 C1789 1.388 . S
C1791 C1792 1.366 . S
C1792 C1791 1.366 . S
C1792 C1793 1.414 . S
C1792 C1795 1.499 . S
C1793 H1767 0.950 . S
C1793 C1792 1.414 . S
C1793 C1794 1.374 . S
C1794 H1768 0.950 . S
C1794 C1790 1.385 . S
C1794 C1793 1.374 . S
C1795 C1792 1.499 . S
C1795 C1796 1.373 . S
C1795 C1797 1.389 . S
C1796 H1769 0.950 . S
C1796 C1782 1.377 . S
C1796 C1795 1.373 . S
C1797 C1781 1.377 . S
C1797 C1795 1.389 . S
C1797 C1798 1.524 . S
C1798 C1797 1.524 . S
C1798 C1799 1.397 . S
C1798 C1803 1.363 . S
C1799 H1770 0.950 . S
C1799 C1798 1.397 . S
C1799 C1800 1.334 . S
C1800 H1771 0.950 . S
C1800 C1799 1.334 . S
C1800 C1801 1.287 . S
C1801 C1800 1.287 . S
C1801 C1802 1.524 . S
C1801 H1804 0.999 . S
C1802 H1772 0.950 . S
C1802 C1801 1.524 . S
C1802 C1803 1.415 . S
C1803 H1773 0.950 . S
C1803 C1798 1.363 . S
C1803 C1802 1.415 . S
H1804 C1801 0.999 . S
H1805 C1786 0.913 . S
H1806 C1824 0.951 . S
H1807 C1826 0.951 . S
H1808 C1828 0.950 . S
H1809 C1829 0.950 . S
H1810 C1831 0.950 . S
H1811 C1834 0.950 . S
H1812 C1835 0.950 . S
H1813 C1837 0.950 . S
H1814 C1838 0.950 . S
H1815 C1839 0.951 . S
H1816 C1841 0.951 . S
H1817 C1843 0.950 . S
H1818 C1844 0.950 . S
H1819 C1846 0.950 . S
H1820 C1849 0.950 . S
H1821 C1850 0.950 . S
H1822 C1852 0.950 1_565 S
H1823 C1853 0.950 . S
C1824 H1806 0.951 . S
C1824 C1825 1.366 . S
C1824 C1826 1.388 . S
C1825 C1824 1.366 . S
C1825 C1829 1.385 . S
C1826 H1807 0.951 . S
C1826 C1824 1.388 . S
C1826 C1827 1.366 . S
C1827 C1826 1.366 . S
C1827 C1828 1.414 . S
C1827 C1830 1.499 . S
C1828 H1808 0.950 . S
C1828 C1827 1.414 . S
C1828 C1829 1.374 . S
C1829 H1809 0.950 . S
C1829 C1825 1.385 . S
C1829 C1828 1.374 . S
C1830 C1827 1.499 . S
C1830 C1831 1.373 . S
C1830 C1832 1.389 . S
C1831 H1810 0.950 . S
C1831 C1830 1.373 . S
C1831 C1847 1.377 . S
C1832 C1830 1.389 . S
C1832 C1833 1.524 . S
C1832 C1846 1.377 . S
C1833 C1832 1.524 . S
C1833 C1834 1.397 . S
C1833 C1838 1.363 . S
C1834 H1811 0.950 . S
C1834 C1833 1.397 . S
C1834 C1835 1.334 . S
C1835 H1812 0.950 . S
C1835 C1834 1.334 . S
C1835 C1836 1.287 . S
C1836 C1835 1.287 . S
C1836 C1837 1.524 . S
C1836 H1855 0.913 . S
C1837 H1813 0.950 . S
C1837 C1836 1.524 . S
C1837 C1838 1.415 . S
C1838 H1814 0.950 . S
C1838 C1833 1.363 . S
C1838 C1837 1.415 . S
C1839 H1815 0.951 . S
C1839 C1840 1.366 . S
C1839 C1841 1.388 . S
C1840 C1839 1.366 . S
C1840 C1844 1.385 . S
C1841 H1816 0.951 . S
C1841 C1839 1.388 . S
C1841 C1842 1.366 . S
C1842 C1841 1.366 . S
C1842 C1843 1.414 . S
C1842 C1845 1.499 . S
C1843 H1817 0.950 . S
C1843 C1842 1.414 . S
C1843 C1844 1.374 . S
C1844 H1818 0.950 . S
C1844 C1840 1.385 . S
C1844 C1843 1.374 . S
C1845 C1842 1.499 . S
C1845 C1846 1.373 . S
C1845 C1847 1.389 . S
C1846 H1819 0.950 . S
C1846 C1832 1.377 . S
C1846 C1845 1.373 . S
C1847 C1831 1.377 . S
C1847 C1845 1.389 . S
C1847 C1848 1.524 . S
C1848 C1847 1.524 . S
C1848 C1849 1.397 . S
C1848 C1853 1.363 . S
C1849 H1820 0.950 . S
C1849 C1848 1.397 . S
C1849 C1850 1.334 . S
C1850 H1821 0.950 . S
C1850 C1849 1.334 . S
C1850 C1851 1.287 . S
C1851 C1850 1.287 . S
C1851 C1852 1.524 . S
C1851 H1854 0.999 . S
C1852 H1822 0.950 1_545 S
C1852 C1851 1.524 . S
C1852 C1853 1.415 . S
C1853 H1823 0.950 . S
C1853 C1848 1.363 . S
C1853 C1852 1.415 . S
H1854 C1851 0.999 . S
H1855 C1836 0.913 . S
H1856 C1874 0.951 . S
H1857 C1876 0.951 . S
H1858 C1878 0.950 . S
H1859 C1879 0.950 . S
H1860 C1881 0.950 . S
H1861 C1884 0.950 . S
H1862 C1885 0.950 . S
H1863 C1887 0.950 . S
H1864 C1888 0.950 . S
H1865 C1889 0.951 . S
H1866 C1891 0.951 . S
H1867 C1893 0.950 . S
H1868 C1894 0.950 . S
H1869 C1896 0.950 . S
H1870 C1899 0.950 . S
H1871 C1900 0.950 . S
H1872 C1902 0.950 . S
H1873 C1903 0.950 . S
C1874 H1856 0.951 . S
C1874 C1875 1.366 . S
C1874 C1876 1.388 . S
C1875 C1874 1.366 . S
C1875 C1879 1.385 . S
C1876 H1857 0.951 . S
C1876 C1874 1.388 . S
C1876 C1877 1.366 . S
C1877 C1876 1.366 . S
C1877 C1878 1.414 . S
C1877 C1880 1.499 . S
C1878 H1858 0.950 . S
C1878 C1877 1.414 . S
C1878 C1879 1.374 . S
C1879 H1859 0.950 . S
C1879 C1875 1.385 . S
C1879 C1878 1.374 . S
C1880 C1877 1.499 . S
C1880 C1881 1.373 . S
C1880 C1882 1.389 . S
C1881 H1860 0.950 . S
C1881 C1880 1.373 . S
C1881 C1897 1.377 . S
C1882 C1880 1.389 . S
C1882 C1883 1.524 . S
C1882 C1896 1.377 . S
C1883 C1882 1.524 . S
C1883 C1884 1.397 . S
C1883 C1888 1.363 1_655 S
C1884 H1861 0.950 . S
C1884 C1883 1.397 . S
C1884 C1885 1.334 1_655 S
C1885 H1862 0.950 . S
C1885 C1884 1.334 1_455 S
C1885 C1886 1.287 . S
C1886 C1885 1.287 . S
C1886 C1887 1.524 . S
C1886 H1905 0.913 . S
C1887 H1863 0.950 . S
C1887 C1886 1.524 . S
C1887 C1888 1.415 . S
C1888 H1864 0.950 . S
C1888 C1883 1.363 1_455 S
C1888 C1887 1.415 . S
C1889 H1865 0.951 . S
C1889 C1890 1.366 . S
C1889 C1891 1.388 . S
C1890 C1889 1.366 . S
C1890 C1894 1.385 . S
C1891 H1866 0.951 . S
C1891 C1889 1.388 . S
C1891 C1892 1.366 . S
C1892 C1891 1.366 . S
C1892 C1893 1.414 . S
C1892 C1895 1.499 . S
C1893 H1867 0.950 . S
C1893 C1892 1.414 . S
C1893 C1894 1.374 . S
C1894 H1868 0.950 . S
C1894 C1890 1.385 . S
C1894 C1893 1.374 . S
C1895 C1892 1.499 . S
C1895 C1896 1.373 . S
C1895 C1897 1.389 . S
C1896 H1869 0.950 . S
C1896 C1882 1.377 . S
C1896 C1895 1.373 . S
C1897 C1881 1.377 . S
C1897 C1895 1.389 . S
C1897 C1898 1.524 . S
C1898 C1897 1.524 . S
C1898 C1899 1.397 . S
C1898 C1903 1.363 . S
C1899 H1870 0.950 . S
C1899 C1898 1.397 . S
C1899 C1900 1.334 . S
C1900 H1871 0.950 . S
C1900 C1899 1.334 . S
C1900 C1901 1.287 . S
C1901 C1900 1.287 . S
C1901 C1902 1.524 . S
C1901 H1904 0.999 . S
C1902 H1872 0.950 . S
C1902 C1901 1.524 . S
C1902 C1903 1.415 . S
C1903 H1873 0.950 . S
C1903 C1898 1.363 . S
C1903 C1902 1.415 . S
H1904 C1901 0.999 . S
H1905 C1886 0.913 . S
H1906 C1924 0.951 . S
H1907 C1926 0.951 . S
H1908 C1928 0.950 . S
H1909 C1929 0.950 . S
H1910 C1931 0.950 . S
H1911 C1934 0.950 . S
H1912 C1935 0.950 . S
H1913 C1937 0.950 . S
H1914 C1938 0.950 . S
H1915 C1939 0.951 . S
H1916 C1941 0.951 . S
H1917 C1943 0.950 . S
H1918 C1944 0.950 . S
H1919 C1946 0.950 . S
H1920 C1949 0.950 . S
H1921 C1950 0.950 . S
H1922 C1952 0.950 . S
H1923 C1953 0.950 . S
C1924 H1906 0.951 . S
C1924 C1925 1.366 . S
C1924 C1926 1.388 . S
C1925 C1924 1.366 . S
C1925 C1929 1.385 . S
C1926 H1907 0.951 . S
C1926 C1924 1.388 . S
C1926 C1927 1.366 . S
C1927 C1926 1.366 . S
C1927 C1928 1.414 . S
C1927 C1930 1.499 . S
C1928 H1908 0.950 . S
C1928 C1927 1.414 . S
C1928 C1929 1.374 . S
C1929 H1909 0.950 . S
C1929 C1925 1.385 . S
C1929 C1928 1.374 . S
C1930 C1927 1.499 . S
C1930 C1931 1.373 . S
C1930 C1932 1.389 . S
C1931 H1910 0.950 . S
C1931 C1930 1.373 . S
C1931 C1947 1.377 . S
C1932 C1930 1.389 . S
C1932 C1933 1.524 . S
C1932 C1946 1.377 . S
C1933 C1932 1.524 . S
C1933 C1934 1.397 . S
C1933 C1938 1.363 . S
C1934 H1911 0.950 . S
C1934 C1933 1.397 . S
C1934 C1935 1.334 . S
C1935 H1912 0.950 . S
C1935 C1934 1.334 . S
C1935 C1936 1.287 . S
C1936 C1935 1.287 . S
C1936 C1937 1.524 . S
C1936 H1955 0.913 . S
C1937 H1913 0.950 . S
C1937 C1936 1.524 . S
C1937 C1938 1.415 . S
C1938 H1914 0.950 . S
C1938 C1933 1.363 . S
C1938 C1937 1.415 . S
C1939 H1915 0.951 . S
C1939 C1940 1.366 . S
C1939 C1941 1.388 . S
C1940 C1939 1.366 . S
C1940 C1944 1.385 . S
C1941 H1916 0.951 . S
C1941 C1939 1.388 . S
C1941 C1942 1.366 . S
C1942 C1941 1.366 . S
C1942 C1943 1.414 . S
C1942 C1945 1.499 . S
C1943 H1917 0.950 . S
C1943 C1942 1.414 . S
C1943 C1944 1.374 . S
C1944 H1918 0.950 . S
C1944 C1940 1.385 . S
C1944 C1943 1.374 . S
C1945 C1942 1.499 . S
C1945 C1946 1.373 . S
C1945 C1947 1.389 . S
C1946 H1919 0.950 . S
C1946 C1932 1.377 . S
C1946 C1945 1.373 . S
C1947 C1931 1.377 . S
C1947 C1945 1.389 . S
C1947 C1948 1.524 . S
C1948 C1947 1.524 . S
C1948 C1949 1.397 . S
C1948 C1953 1.363 . S
C1949 H1920 0.950 . S
C1949 C1948 1.397 . S
C1949 C1950 1.334 . S
C1950 H1921 0.950 . S
C1950 C1949 1.334 . S
C1950 C1951 1.287 . S
C1951 C1950 1.287 . S
C1951 C1952 1.524 . S
C1951 H1954 0.999 . S
C1952 H1922 0.950 . S
C1952 C1951 1.524 . S
C1952 C1953 1.415 . S
C1953 H1923 0.950 . S
C1953 C1948 1.363 . S
C1953 C1952 1.415 . S
H1954 C1951 0.999 . S
H1955 C1936 0.913 . S
H1956 C1974 0.951 . S
H1957 C1976 0.951 . S
H1958 C1978 0.950 . S
H1959 C1979 0.950 . S
H1960 C1981 0.950 . S
H1961 C1984 0.950 . S
H1962 C1985 0.950 . S
H1963 C1987 0.950 . S
H1964 C1988 0.950 . S
H1965 C1989 0.951 . S
H1966 C1991 0.951 . S
H1967 C1993 0.950 . S
H1968 C1994 0.950 . S
H1969 C1996 0.950 . S
H1970 C1999 0.950 . S
H1971 C2000 0.950 . S
H1972 C2002 0.950 . S
H1973 C2003 0.950 . S
C1974 H1956 0.951 . S
C1974 C1975 1.366 . S
C1974 C1976 1.388 . S
C1975 C1974 1.366 . S
C1975 C1979 1.385 . S
C1976 H1957 0.951 . S
C1976 C1974 1.388 . S
C1976 C1977 1.366 . S
C1977 C1976 1.366 . S
C1977 C1978 1.414 . S
C1977 C1980 1.499 . S
C1978 H1958 0.950 . S
C1978 C1977 1.414 . S
C1978 C1979 1.374 . S
C1979 H1959 0.950 . S
C1979 C1975 1.385 . S
C1979 C1978 1.374 . S
C1980 C1977 1.499 . S
C1980 C1981 1.373 . S
C1980 C1982 1.389 . S
C1981 H1960 0.950 . S
C1981 C1980 1.373 . S
C1981 C1997 1.377 . S
C1982 C1980 1.389 . S
C1982 C1983 1.524 . S
C1982 C1996 1.377 . S
C1983 C1982 1.524 . S
C1983 C1984 1.397 . S
C1983 C1988 1.363 . S
C1984 H1961 0.950 . S
C1984 C1983 1.397 . S
C1984 C1985 1.334 . S
C1985 H1962 0.950 . S
C1985 C1984 1.334 . S
C1985 C1986 1.287 . S
C1986 C1985 1.287 . S
C1986 C1987 1.524 . S
C1986 H2005 0.913 . S
C1987 H1963 0.950 . S
C1987 C1986 1.524 . S
C1987 C1988 1.415 . S
C1988 H1964 0.950 . S
C1988 C1983 1.363 . S
C1988 C1987 1.415 . S
C1989 H1965 0.951 . S
C1989 C1990 1.366 . S
C1989 C1991 1.388 . S
C1990 C1989 1.366 . S
C1990 C1994 1.385 . S
C1991 H1966 0.951 . S
C1991 C1989 1.388 . S
C1991 C1992 1.366 . S
C1992 C1991 1.366 . S
C1992 C1993 1.414 . S
C1992 C1995 1.499 . S
C1993 H1967 0.950 . S
C1993 C1992 1.414 . S
C1993 C1994 1.374 . S
C1994 H1968 0.950 . S
C1994 C1990 1.385 . S
C1994 C1993 1.374 . S
C1995 C1992 1.499 . S
C1995 C1996 1.373 . S
C1995 C1997 1.389 . S
C1996 H1969 0.950 . S
C1996 C1982 1.377 . S
C1996 C1995 1.373 . S
C1997 C1981 1.377 . S
C1997 C1995 1.389 . S
C1997 C1998 1.524 . S
C1998 C1997 1.524 . S
C1998 C1999 1.397 . S
C1998 C2003 1.363 . S
C1999 H1970 0.950 . S
C1999 C1998 1.397 . S
C1999 C2000 1.334 . S
C2000 H1971 0.950 . S
C2000 C1999 1.334 . S
C2000 C2001 1.287 . S
C2001 C2000 1.287 . S
C2001 C2002 1.524 . S
C2001 H2004 0.999 . S
C2002 H1972 0.950 . S
C2002 C2001 1.524 . S
C2002 C2003 1.415 . S
C2003 H1973 0.950 . S
C2003 C1998 1.363 . S
C2003 C2002 1.415 . S
H2004 C2001 0.999 . S
H2005 C1986 0.913 . S
H2006 C2024 0.951 . S
H2007 C2026 0.951 . S
H2008 C2028 0.950 . S
H2009 C2029 0.950 . S
H2010 C2031 0.950 . S
H2011 C2034 0.950 . S
H2012 C2035 0.950 . S
H2013 C2037 0.950 . S
H2014 C2038 0.950 . S
H2015 C2039 0.951 . S
H2016 C2041 0.951 . S
H2017 C2043 0.950 . S
H2018 C2044 0.950 . S
H2019 C2046 0.950 . S
H2020 C2049 0.950 . S
H2021 C2050 0.950 . S
H2022 C2052 0.950 . S
H2023 C2053 0.950 . S
C2024 H2006 0.951 . S
C2024 C2025 1.366 . S
C2024 C2026 1.388 . S
C2025 C2024 1.366 . S
C2025 C2029 1.385 . S
C2026 H2007 0.951 . S
C2026 C2024 1.388 . S
C2026 C2027 1.366 . S
C2027 C2026 1.366 . S
C2027 C2028 1.414 . S
C2027 C2030 1.499 . S
C2028 H2008 0.950 . S
C2028 C2027 1.414 . S
C2028 C2029 1.374 . S
C2029 H2009 0.950 . S
C2029 C2025 1.385 . S
C2029 C2028 1.374 . S
C2030 C2027 1.499 . S
C2030 C2031 1.373 1_565 S
C2030 C2032 1.389 . S
C2031 H2010 0.950 . S
C2031 C2030 1.373 1_545 S
C2031 C2047 1.377 . S
C2032 C2030 1.389 . S
C2032 C2033 1.524 . S
C2032 C2046 1.377 . S
C2033 C2032 1.524 . S
C2033 C2034 1.397 . S
C2033 C2038 1.363 . S
C2034 H2011 0.950 . S
C2034 C2033 1.397 . S
C2034 C2035 1.334 . S
C2035 H2012 0.950 . S
C2035 C2034 1.334 . S
C2035 C2036 1.287 . S
C2036 C2035 1.287 . S
C2036 C2037 1.524 . S
C2036 H2055 0.913 . S
C2037 H2013 0.950 . S
C2037 C2036 1.524 . S
C2037 C2038 1.415 . S
C2038 H2014 0.950 . S
C2038 C2033 1.363 . S
C2038 C2037 1.415 . S
C2039 H2015 0.951 . S
C2039 C2040 1.366 . S
C2039 C2041 1.388 . S
C2040 C2039 1.366 . S
C2040 C2044 1.385 . S
C2041 H2016 0.951 . S
C2041 C2039 1.388 . S
C2041 C2042 1.366 . S
C2042 C2041 1.366 . S
C2042 C2043 1.414 . S
C2042 C2045 1.499 . S
C2043 H2017 0.950 . S
C2043 C2042 1.414 . S
C2043 C2044 1.374 . S
C2044 H2018 0.950 . S
C2044 C2040 1.385 . S
C2044 C2043 1.374 . S
C2045 C2042 1.499 . S
C2045 C2046 1.373 1_545 S
C2045 C2047 1.389 . S
C2046 H2019 0.950 . S
C2046 C2032 1.377 . S
C2046 C2045 1.373 1_565 S
C2047 C2031 1.377 . S
C2047 C2045 1.389 . S
C2047 C2048 1.524 . S
C2048 C2047 1.524 . S
C2048 C2049 1.397 . S
C2048 C2053 1.363 . S
C2049 H2020 0.950 . S
C2049 C2048 1.397 . S
C2049 C2050 1.334 . S
C2050 H2021 0.950 . S
C2050 C2049 1.334 . S
C2050 C2051 1.287 . S
C2051 C2050 1.287 . S
C2051 C2052 1.524 . S
C2051 H2054 0.999 . S
C2052 H2022 0.950 . S
C2052 C2051 1.524 . S
C2052 C2053 1.415 . S
C2053 H2023 0.950 . S
C2053 C2048 1.363 . S
C2053 C2052 1.415 . S
H2054 C2051 0.999 . S
H2055 C2036 0.913 . S
H2056 C2074 0.951 . S
H2057 C2076 0.951 . S
H2058 C2078 0.950 . S
H2059 C2079 0.950 . S
H2060 C2081 0.953 . S
H2061 C2084 0.950 . S
H2062 C2085 0.950 . S
H2063 C2087 0.950 . S
H2064 C2088 0.950 . S
H2065 C2089 0.951 . S
H2066 C2091 0.951 . S
H2067 C2093 0.950 . S
H2068 C2094 0.950 . S
H2069 C2096 0.950 . S
H2070 C2099 0.950 . S
H2071 C2100 0.950 . S
H2072 C2102 0.950 . S
H2073 C2103 0.950 . S
C2074 H2056 0.951 . S
C2074 C2075 1.366 . S
C2074 C2076 1.388 . S
C2075 C2074 1.366 . S
C2075 C2079 1.385 . S
C2076 H2057 0.951 . S
C2076 C2074 1.388 . S
C2076 C2077 1.366 . S
C2077 C2076 1.366 . S
C2077 C2078 1.414 . S
C2077 C2080 1.499 . S
C2078 H2058 0.950 . S
C2078 C2077 1.414 . S
C2078 C2079 1.374 . S
C2079 H2059 0.950 . S
C2079 C2075 1.385 . S
C2079 C2078 1.374 . S
C2080 C2077 1.499 . S
C2080 C2081 1.373 1_655 S
C2080 C2082 1.389 1_655 S
C2081 H2060 0.953 . S
C2081 C2080 1.373 1_455 S
C2081 C2097 1.377 . S
C2082 C2080 1.389 1_455 S
C2082 C2083 1.524 1_455 S
C2082 C2096 1.377 . S
C2083 C2082 1.524 1_655 S
C2083 C2084 1.393 1_655 S
C2083 C2088 1.363 . S
C2084 H2061 0.950 . S
C2084 C2083 1.393 1_455 S
C2084 C2085 1.338 1_455 S
C2085 H2062 0.950 . S
C2085 C2084 1.338 1_655 S
C2085 C2086 1.287 . S
C2086 C2085 1.287 . S
C2086 C2087 1.524 . S
C2086 H2105 0.913 . S
C2087 H2063 0.950 . S
C2087 C2086 1.524 . S
C2087 C2088 1.415 . S
C2088 H2064 0.950 . S
C2088 C2083 1.363 . S
C2088 C2087 1.415 . S
C2089 H2065 0.951 . S
C2089 C2090 1.366 . S
C2089 C2091 1.388 . S
C2090 C2089 1.366 . S
C2090 C2094 1.385 . S
C2091 H2066 0.951 . S
C2091 C2089 1.388 . S
C2091 C2092 1.366 . S
C2092 C2091 1.366 . S
C2092 C2093 1.414 . S
C2092 C2095 1.499 . S
C2093 H2067 0.950 . S
C2093 C2092 1.414 . S
C2093 C2094 1.374 . S
C2094 H2068 0.950 . S
C2094 C2090 1.385 . S
C2094 C2093 1.374 . S
C2095 C2092 1.499 . S
C2095 C2096 1.373 . S
C2095 C2097 1.389 . S
C2096 H2069 0.950 . S
C2096 C2082 1.377 . S
C2096 C2095 1.373 . S
C2097 C2081 1.377 . S
C2097 C2095 1.389 . S
C2097 C2098 1.524 . S
C2098 C2097 1.524 . S
C2098 C2099 1.397 . S
C2098 C2103 1.363 . S
C2099 H2070 0.950 . S
C2099 C2098 1.397 . S
C2099 C2100 1.334 . S
C2100 H2071 0.950 . S
C2100 C2099 1.334 . S
C2100 C2101 1.287 . S
C2101 C2100 1.287 . S
C2101 C2102 1.524 . S
C2101 H2104 0.999 . S
C2102 H2072 0.950 . S
C2102 C2101 1.524 . S
C2102 C2103 1.415 . S
C2103 H2073 0.950 . S
C2103 C2098 1.363 . S
C2103 C2102 1.415 . S
H2104 C2101 0.999 . S
H2105 C2086 0.913 . S
C775 C156 1.159 . S
C790 C67 1.307 1_554 S
C825 C240 1.159 . S
C840 C151 1.307 1_554 S
C875 C235 1.307 1_554 S
C890 C72 1.162 . S
C925 C231 1.137 . S
C940 C140 1.255 . S
C975 C224 1.254 . S
C990 C63 1.139 . S
C1025 C56 1.255 . S
C1040 C147 1.137 . S
C1075 C319 1.313 . S
C1090 C408 1.162 . S
C1125 C492 1.160 . S
C1140 C403 1.313 . S
C1175 C487 1.313 . S
C1190 C324 1.164 . S
C1225 C392 1.255 . S
C1240 C483 1.121 . S
C1275 C476 1.255 . S
C1290 C315 1.121 . S
C1325 C399 1.119 . S
C1340 C308 1.255 . S
C1375 C660 1.160 . S
C1390 C571 1.313 . S
C1425 C655 1.313 . S
C1440 C744 1.160 . S
C1475 C739 1.312 . S
C1490 C576 1.161 . S
C1525 C735 1.121 . S
C1540 C644 1.255 . S
C1575 C728 1.255 . S
C1590 C567 1.121 . S
C1625 C560 1.255 . S
C1640 C651 1.121 . S
C1675 C495 2.626 . S
C1690 C66 2.685 . S
C1725 C327 2.625 . S
C1740 C150 2.686 . S
C1775 C234 2.685 . S
C1790 C411 2.625 . S
C1825 C243 2.626 . S
C1840 C570 2.686 . S
C1875 C75 2.626 . S
C1890 C654 2.685 . S
C1925 C738 2.685 . S
C1940 C159 2.626 . S
C1975 C318 2.685 . S
C1990 C747 2.626 . S
C2025 C402 2.685 . S
C2040 C579 2.626 . S
C2075 C663 2.625 . S
C2090 C486 2.685 . S
