# Generated by pormake.
# Topology ull, (4)-cn, num edge types: 1
# Building blocks:
#     Node 0, Type 0, BuildingBlock: CEKHIL_clean_sbu_0, # of connection points: 4
#     Node 1, Type 0, BuildingBlock: CEKHIL_clean_sbu_0, # of connection points: 4
#     Node 2, Type 0, BuildingBlock: CEKHIL_clean_sbu_0, # of connection points: 4
#     Node 3, Type 0, BuildingBlock: CEKHIL_clean_sbu_0, # of connection points: 4
#     Node 4, Type 0, BuildingBlock: CEKHIL_clean_sbu_0, # of connection points: 4
#     Node 5, Type 0, BuildingBlock: CEKHIL_clean_sbu_0, # of connection points: 4
#     Node 6, Type 0, BuildingBlock: CEKHIL_clean_sbu_0, # of connection points: 4
#     Node 7, Type 0, BuildingBlock: CEKHIL_clean_sbu_0, # of connection points: 4
#     Node 8, Type 0, BuildingBlock: CEKHIL_clean_sbu_0, # of connection points: 4
#     Node 9, Type 0, BuildingBlock: CEKHIL_clean_sbu_0, # of connection points: 4
#     Node 10, Type 0, BuildingBlock: CEKHIL_clean_sbu_0, # of connection points: 4
#     Node 11, Type 0, BuildingBlock: CEKHIL_clean_sbu_0, # of connection points: 4
#     Node 12, Type 0, BuildingBlock: CEKHIL_clean_sbu_0, # of connection points: 4
#     Node 13, Type 0, BuildingBlock: CEKHIL_clean_sbu_0, # of connection points: 4
#     Node 14, Type 0, BuildingBlock: CEKHIL_clean_sbu_0, # of connection points: 4
#     Node 15, Type 0, BuildingBlock: CEKHIL_clean_sbu_0, # of connection points: 4
#     Node 16, Type 0, BuildingBlock: CEKHIL_clean_sbu_0, # of connection points: 4
#     Node 17, Type 0, BuildingBlock: CEKHIL_clean_sbu_0, # of connection points: 4
#     Node 18, Type 0, BuildingBlock: CEKHIL_clean_sbu_0, # of connection points: 4
#     Node 19, Type 0, BuildingBlock: CEKHIL_clean_sbu_0, # of connection points: 4
#     Node 20, Type 0, BuildingBlock: CEKHIL_clean_sbu_0, # of connection points: 4
#     Node 21, Type 0, BuildingBlock: CEKHIL_clean_sbu_0, # of connection points: 4
#     Node 22, Type 0, BuildingBlock: CEKHIL_clean_sbu_0, # of connection points: 4
#     Node 23, Type 0, BuildingBlock: CEKHIL_clean_sbu_0, # of connection points: 4
#     Node 24, Type 0, BuildingBlock: CEKHIL_clean_sbu_0, # of connection points: 4
#     Node 25, Type 0, BuildingBlock: CEKHIL_clean_sbu_0, # of connection points: 4
#     Node 26, Type 0, BuildingBlock: CEKHIL_clean_sbu_0, # of connection points: 4
#     Node 27, Type 0, BuildingBlock: CEKHIL_clean_sbu_0, # of connection points: 4
#     Node 28, Type 0, BuildingBlock: CEKHIL_clean_sbu_0, # of connection points: 4
#     Node 29, Type 0, BuildingBlock: CEKHIL_clean_sbu_0, # of connection points: 4
#     Node 30, Type 0, BuildingBlock: CEKHIL_clean_sbu_0, # of connection points: 4
#     Node 31, Type 0, BuildingBlock: CEKHIL_clean_sbu_0, # of connection points: 4
#     Node 32, Type 0, BuildingBlock: CEKHIL_clean_sbu_0, # of connection points: 4
#     Node 33, Type 0, BuildingBlock: CEKHIL_clean_sbu_0, # of connection points: 4
#     Node 34, Type 0, BuildingBlock: CEKHIL_clean_sbu_0, # of connection points: 4
#     Node 35, Type 0, BuildingBlock: CEKHIL_clean_sbu_0, # of connection points: 4
#     Node 36, Type 0, BuildingBlock: CEKHIL_clean_sbu_0, # of connection points: 4
#     Node 37, Type 0, BuildingBlock: CEKHIL_clean_sbu_0, # of connection points: 4
#     Node 38, Type 0, BuildingBlock: CEKHIL_clean_sbu_0, # of connection points: 4
#     Node 39, Type 0, BuildingBlock: CEKHIL_clean_sbu_0, # of connection points: 4
#     Node 40, Type 0, BuildingBlock: CEKHIL_clean_sbu_0, # of connection points: 4
#     Node 41, Type 0, BuildingBlock: CEKHIL_clean_sbu_0, # of connection points: 4
#     Node 42, Type 0, BuildingBlock: CEKHIL_clean_sbu_0, # of connection points: 4
#     Node 43, Type 0, BuildingBlock: CEKHIL_clean_sbu_0, # of connection points: 4
#     Node 44, Type 0, BuildingBlock: CEKHIL_clean_sbu_0, # of connection points: 4
#     Node 45, Type 0, BuildingBlock: CEKHIL_clean_sbu_0, # of connection points: 4
#     Node 46, Type 0, BuildingBlock: CEKHIL_clean_sbu_0, # of connection points: 4
#     Node 47, Type 0, BuildingBlock: CEKHIL_clean_sbu_0, # of connection points: 4
#     Edge 48, Type (0, 0), BuildingBlock: ZUJKAS_clean_linker_0, # of connection points: 2
#     Edge 49, Type (0, 0), BuildingBlock: ZUJKAS_clean_linker_0, # of connection points: 2
#     Edge 50, Type (0, 0), BuildingBlock: ZUJKAS_clean_linker_0, # of connection points: 2
#     Edge 51, Type (0, 0), BuildingBlock: ZUJKAS_clean_linker_0, # of connection points: 2
#     Edge 52, Type (0, 0), BuildingBlock: ZUJKAS_clean_linker_0, # of connection points: 2
#     Edge 53, Type (0, 0), BuildingBlock: ZUJKAS_clean_linker_0, # of connection points: 2
#     Edge 54, Type (0, 0), BuildingBlock: ZUJKAS_clean_linker_0, # of connection points: 2
#     Edge 55, Type (0, 0), BuildingBlock: ZUJKAS_clean_linker_0, # of connection points: 2
#     Edge 56, Type (0, 0), BuildingBlock: ZUJKAS_clean_linker_0, # of connection points: 2
#     Edge 57, Type (0, 0), BuildingBlock: ZUJKAS_clean_linker_0, # of connection points: 2
#     Edge 58, Type (0, 0), BuildingBlock: ZUJKAS_clean_linker_0, # of connection points: 2
#     Edge 59, Type (0, 0), BuildingBlock: ZUJKAS_clean_linker_0, # of connection points: 2
#     Edge 60, Type (0, 0), BuildingBlock: ZUJKAS_clean_linker_0, # of connection points: 2
#     Edge 61, Type (0, 0), BuildingBlock: ZUJKAS_clean_linker_0, # of connection points: 2
#     Edge 62, Type (0, 0), BuildingBlock: ZUJKAS_clean_linker_0, # of connection points: 2
#     Edge 63, Type (0, 0), BuildingBlock: ZUJKAS_clean_linker_0, # of connection points: 2
#     Edge 64, Type (0, 0), BuildingBlock: ZUJKAS_clean_linker_0, # of connection points: 2
#     Edge 65, Type (0, 0), BuildingBlock: ZUJKAS_clean_linker_0, # of connection points: 2
#     Edge 66, Type (0, 0), BuildingBlock: ZUJKAS_clean_linker_0, # of connection points: 2
#     Edge 67, Type (0, 0), BuildingBlock: ZUJKAS_clean_linker_0, # of connection points: 2
#     Edge 68, Type (0, 0), BuildingBlock: ZUJKAS_clean_linker_0, # of connection points: 2
#     Edge 69, Type (0, 0), BuildingBlock: ZUJKAS_clean_linker_0, # of connection points: 2
#     Edge 70, Type (0, 0), BuildingBlock: ZUJKAS_clean_linker_0, # of connection points: 2
#     Edge 71, Type (0, 0), BuildingBlock: ZUJKAS_clean_linker_0, # of connection points: 2
#     Edge 72, Type (0, 0), BuildingBlock: ZUJKAS_clean_linker_0, # of connection points: 2
#     Edge 73, Type (0, 0), BuildingBlock: ZUJKAS_clean_linker_0, # of connection points: 2
#     Edge 74, Type (0, 0), BuildingBlock: ZUJKAS_clean_linker_0, # of connection points: 2
#     Edge 75, Type (0, 0), BuildingBlock: ZUJKAS_clean_linker_0, # of connection points: 2
#     Edge 76, Type (0, 0), BuildingBlock: ZUJKAS_clean_linker_0, # of connection points: 2
#     Edge 77, Type (0, 0), BuildingBlock: ZUJKAS_clean_linker_0, # of connection points: 2
#     Edge 78, Type (0, 0), BuildingBlock: ZUJKAS_clean_linker_0, # of connection points: 2
#     Edge 79, Type (0, 0), BuildingBlock: ZUJKAS_clean_linker_0, # of connection points: 2
#     Edge 80, Type (0, 0), BuildingBlock: ZUJKAS_clean_linker_0, # of connection points: 2
#     Edge 81, Type (0, 0), BuildingBlock: ZUJKAS_clean_linker_0, # of connection points: 2
#     Edge 82, Type (0, 0), BuildingBlock: ZUJKAS_clean_linker_0, # of connection points: 2
#     Edge 83, Type (0, 0), BuildingBlock: ZUJKAS_clean_linker_0, # of connection points: 2
#     Edge 84, Type (0, 0), BuildingBlock: ZUJKAS_clean_linker_0, # of connection points: 2
#     Edge 85, Type (0, 0), BuildingBlock: ZUJKAS_clean_linker_0, # of connection points: 2
#     Edge 86, Type (0, 0), BuildingBlock: ZUJKAS_clean_linker_0, # of connection points: 2
#     Edge 87, Type (0, 0), BuildingBlock: ZUJKAS_clean_linker_0, # of connection points: 2
#     Edge 88, Type (0, 0), BuildingBlock: ZUJKAS_clean_linker_0, # of connection points: 2
#     Edge 89, Type (0, 0), BuildingBlock: ZUJKAS_clean_linker_0, # of connection points: 2
#     Edge 90, Type (0, 0), BuildingBlock: ZUJKAS_clean_linker_0, # of connection points: 2
#     Edge 91, Type (0, 0), BuildingBlock: ZUJKAS_clean_linker_0, # of connection points: 2
#     Edge 92, Type (0, 0), BuildingBlock: ZUJKAS_clean_linker_0, # of connection points: 2
#     Edge 93, Type (0, 0), BuildingBlock: ZUJKAS_clean_linker_0, # of connection points: 2
#     Edge 94, Type (0, 0), BuildingBlock: ZUJKAS_clean_linker_0, # of connection points: 2
#     Edge 95, Type (0, 0), BuildingBlock: ZUJKAS_clean_linker_0, # of connection points: 2
#     Edge 96, Type (0, 0), BuildingBlock: ZUJKAS_clean_linker_0, # of connection points: 2
#     Edge 97, Type (0, 0), BuildingBlock: ZUJKAS_clean_linker_0, # of connection points: 2
#     Edge 98, Type (0, 0), BuildingBlock: ZUJKAS_clean_linker_0, # of connection points: 2
#     Edge 99, Type (0, 0), BuildingBlock: ZUJKAS_clean_linker_0, # of connection points: 2
#     Edge 100, Type (0, 0), BuildingBlock: ZUJKAS_clean_linker_0, # of connection points: 2
#     Edge 101, Type (0, 0), BuildingBlock: ZUJKAS_clean_linker_0, # of connection points: 2
#     Edge 102, Type (0, 0), BuildingBlock: ZUJKAS_clean_linker_0, # of connection points: 2
#     Edge 103, Type (0, 0), BuildingBlock: ZUJKAS_clean_linker_0, # of connection points: 2
#     Edge 104, Type (0, 0), BuildingBlock: ZUJKAS_clean_linker_0, # of connection points: 2
#     Edge 105, Type (0, 0), BuildingBlock: ZUJKAS_clean_linker_0, # of connection points: 2
#     Edge 106, Type (0, 0), BuildingBlock: ZUJKAS_clean_linker_0, # of connection points: 2
#     Edge 107, Type (0, 0), BuildingBlock: ZUJKAS_clean_linker_0, # of connection points: 2
#     Edge 108, Type (0, 0), BuildingBlock: ZUJKAS_clean_linker_0, # of connection points: 2
#     Edge 109, Type (0, 0), BuildingBlock: ZUJKAS_clean_linker_0, # of connection points: 2
#     Edge 110, Type (0, 0), BuildingBlock: ZUJKAS_clean_linker_0, # of connection points: 2
#     Edge 111, Type (0, 0), BuildingBlock: ZUJKAS_clean_linker_0, # of connection points: 2
#     Edge 112, Type (0, 0), BuildingBlock: ZUJKAS_clean_linker_0, # of connection points: 2
#     Edge 113, Type (0, 0), BuildingBlock: ZUJKAS_clean_linker_0, # of connection points: 2
#     Edge 114, Type (0, 0), BuildingBlock: ZUJKAS_clean_linker_0, # of connection points: 2
#     Edge 115, Type (0, 0), BuildingBlock: ZUJKAS_clean_linker_0, # of connection points: 2
#     Edge 116, Type (0, 0), BuildingBlock: ZUJKAS_clean_linker_0, # of connection points: 2
#     Edge 117, Type (0, 0), BuildingBlock: ZUJKAS_clean_linker_0, # of connection points: 2
#     Edge 118, Type (0, 0), BuildingBlock: ZUJKAS_clean_linker_0, # of connection points: 2
#     Edge 119, Type (0, 0), BuildingBlock: ZUJKAS_clean_linker_0, # of connection points: 2
#     Edge 120, Type (0, 0), BuildingBlock: ZUJKAS_clean_linker_0, # of connection points: 2
#     Edge 121, Type (0, 0), BuildingBlock: ZUJKAS_clean_linker_0, # of connection points: 2
#     Edge 122, Type (0, 0), BuildingBlock: ZUJKAS_clean_linker_0, # of connection points: 2
#     Edge 123, Type (0, 0), BuildingBlock: ZUJKAS_clean_linker_0, # of connection points: 2
#     Edge 124, Type (0, 0), BuildingBlock: ZUJKAS_clean_linker_0, # of connection points: 2
#     Edge 125, Type (0, 0), BuildingBlock: ZUJKAS_clean_linker_0, # of connection points: 2
#     Edge 126, Type (0, 0), BuildingBlock: ZUJKAS_clean_linker_0, # of connection points: 2
#     Edge 127, Type (0, 0), BuildingBlock: ZUJKAS_clean_linker_0, # of connection points: 2
#     Edge 128, Type (0, 0), BuildingBlock: ZUJKAS_clean_linker_0, # of connection points: 2
#     Edge 129, Type (0, 0), BuildingBlock: ZUJKAS_clean_linker_0, # of connection points: 2
#     Edge 130, Type (0, 0), BuildingBlock: ZUJKAS_clean_linker_0, # of connection points: 2
#     Edge 131, Type (0, 0), BuildingBlock: ZUJKAS_clean_linker_0, # of connection points: 2
#     Edge 132, Type (0, 0), BuildingBlock: ZUJKAS_clean_linker_0, # of connection points: 2
#     Edge 133, Type (0, 0), BuildingBlock: ZUJKAS_clean_linker_0, # of connection points: 2
#     Edge 134, Type (0, 0), BuildingBlock: ZUJKAS_clean_linker_0, # of connection points: 2
#     Edge 135, Type (0, 0), BuildingBlock: ZUJKAS_clean_linker_0, # of connection points: 2
#     Edge 136, Type (0, 0), BuildingBlock: ZUJKAS_clean_linker_0, # of connection points: 2
#     Edge 137, Type (0, 0), BuildingBlock: ZUJKAS_clean_linker_0, # of connection points: 2
#     Edge 138, Type (0, 0), BuildingBlock: ZUJKAS_clean_linker_0, # of connection points: 2
#     Edge 139, Type (0, 0), BuildingBlock: ZUJKAS_clean_linker_0, # of connection points: 2
#     Edge 140, Type (0, 0), BuildingBlock: ZUJKAS_clean_linker_0, # of connection points: 2
#     Edge 141, Type (0, 0), BuildingBlock: ZUJKAS_clean_linker_0, # of connection points: 2
#     Edge 142, Type (0, 0), BuildingBlock: ZUJKAS_clean_linker_0, # of connection points: 2
#     Edge 143, Type (0, 0), BuildingBlock: ZUJKAS_clean_linker_0, # of connection points: 2
# Relax obj value: 0.022
# Max RMSD: 0.082
# Mean RMSD: 0.082
data_MOF--net-ull--node1-CEKHIL_clean_sbu_0--edge1-ZUJKAS_clean_linker_0
_symmetry_space_group_name_H-M    P1
_symmetry_Int_Tables_number       1
_symmetry_cell_setting            triclinic
loop_
_symmetry_equiv_pos_as_xyz
'x, y, z'
_cell_length_a     78.803987
_cell_length_b     78.798772
_cell_length_c     78.790052
_cell_angle_alpha  90.006308
_cell_angle_beta   90.011502
_cell_angle_gamma 89.991947
loop_
_atom_site_label
_atom_site_type_symbol
_atom_site_fract_x
_atom_site_fract_y
_atom_site_fract_z
_atom_type_partial_charge
Co0 Co 0.04221 0.3386 0.1699 0.0
O1 O 0.06012 0.34479 0.18522 0.0
O2 O 0.03449 0.35625 0.18529 0.0
C3 C 0.05812 0.33928 0.14605 0.0
O4 O 0.02082 0.33582 0.15549 0.0
Co5 Co 0.04456 0.30483 0.14984 0.0
O6 O 0.025 0.31433 0.13716 0.0
C7 C 0.03537 0.30399 0.18609 0.0
C8 C 0.04971 0.35576 0.1917 0.0
C9 C 0.01621 0.32676 0.14266 0.0
O10 O 0.03436 0.32031 0.18615 0.0
O11 O 0.04059 0.29552 0.17324 0.0
O12 O 0.0518 0.35315 0.15231 0.0
O13 O 0.05604 0.32585 0.15523 0.0
Co14 Co 0.66335 0.04351 0.1703 0.0
O15 O 0.65793 0.06193 0.18531 0.0
O16 O 0.64618 0.03647 0.18651 0.0
C17 C 0.66206 0.05887 0.14613 0.0
O18 O 0.66532 0.02168 0.15642 0.0
Co19 Co 0.69615 0.04453 0.14868 0.0
O20 O 0.68459 0.02619 0.13584 0.0
C21 C 0.69839 0.03554 0.18503 0.0
C22 C 0.64706 0.05186 0.19246 0.0
C23 C 0.67281 0.01735 0.14253 0.0
O24 O 0.68207 0.03577 0.18606 0.0
O25 O 0.70643 0.03974 0.17154 0.0
O26 O 0.64833 0.05284 0.15295 0.0
O27 O 0.6758 0.05678 0.15486 0.0
Co28 Co 0.95802 0.66623 0.16912 0.0
O29 O 0.93947 0.66052 0.18384 0.0
O30 O 0.96491 0.64871 0.18504 0.0
C31 C 0.94292 0.66545 0.14475 0.0
O32 O 0.97994 0.66844 0.1554 0.0
Co33 Co 0.95696 0.69972 0.14854 0.0
O34 O 0.97643 0.68941 0.13636 0.0
C35 C 0.96517 0.70094 0.18503 0.0
C36 C 0.94945 0.64946 0.19083 0.0
C37 C 0.98492 0.67702 0.14238 0.0
O38 O 0.96563 0.6846 0.18539 0.0
O39 O 0.96067 0.70934 0.17186 0.0
O40 O 0.94881 0.65158 0.15142 0.0
O41 O 0.9449 0.679 0.1538 0.0
Co42 Co 0.33881 0.96011 0.1702 0.0
O43 O 0.34372 0.94215 0.18594 0.0
O44 O 0.35605 0.96738 0.18624 0.0
C45 C 0.33999 0.94378 0.14665 0.0
O46 O 0.33744 0.98149 0.15554 0.0
Co47 Co 0.30627 0.95908 0.14811 0.0
O48 O 0.31828 0.97681 0.13489 0.0
C49 C 0.30379 0.9692 0.18421 0.0
C50 C 0.35484 0.95223 0.19271 0.0
C51 C 0.33015 0.9856 0.14147 0.0
O52 O 0.32008 0.96874 0.18551 0.0
O53 O 0.29587 0.96477 0.17071 0.0
O54 O 0.35378 0.94975 0.15341 0.0
O55 O 0.32621 0.9466 0.15509 0.0
Co56 Co 0.04368 0.66324 0.83136 0.0
O57 O 0.06169 0.65774 0.81589 0.0
O58 O 0.03608 0.64622 0.81524 0.0
C59 C 0.05953 0.66159 0.85521 0.0
O60 O 0.02218 0.66534 0.84568 0.0
Co61 Co 0.04553 0.69592 0.85319 0.0
O62 O 0.02701 0.68473 0.86608 0.0
C63 C 0.03629 0.69849 0.81692 0.0
C64 C 0.05135 0.64698 0.80897 0.0
C65 C 0.01801 0.67299 0.85952 0.0
O66 O 0.03583 0.68217 0.8159 0.0
O67 O 0.04108 0.70637 0.83032 0.0
O68 O 0.05328 0.64798 0.84834 0.0
O69 O 0.05735 0.67543 0.84665 0.0
Co70 Co 0.33932 0.04214 0.83195 0.0
O71 O 0.34504 0.05993 0.81633 0.0
O72 O 0.35694 0.03448 0.81653 0.0
C73 C 0.33989 0.05841 0.85555 0.0
O74 O 0.33698 0.0209 0.84661 0.0
Co75 Co 0.30576 0.04414 0.85258 0.0
O76 O 0.31652 0.02568 0.86598 0.0
C77 C 0.3047 0.03515 0.81624 0.0
C78 C 0.35614 0.0496 0.80992 0.0
C79 C 0.3287 0.01679 0.8601 0.0
O80 O 0.32098 0.03377 0.81605 0.0
O81 O 0.29638 0.04062 0.82909 0.0
O82 O 0.35385 0.05232 0.84928 0.0
O83 O 0.32644 0.05584 0.84654 0.0
Co84 Co 0.9582 0.33908 0.8322 0.0
O85 O 0.94001 0.3445 0.81692 0.0
O86 O 0.96545 0.35636 0.81618 0.0
C87 C 0.94246 0.34029 0.85615 0.0
O88 O 0.97983 0.33703 0.8464 0.0
Co89 Co 0.95677 0.30612 0.85364 0.0
O90 O 0.97519 0.31739 0.86661 0.0
C91 C 0.96579 0.30408 0.8173 0.0
C92 C 0.95016 0.35543 0.80999 0.0
C93 C 0.98409 0.32926 0.86016 0.0
O94 O 0.96613 0.3204 0.81649 0.0
O95 O 0.96116 0.29599 0.83062 0.0
O96 O 0.94854 0.35404 0.84942 0.0
O97 O 0.94475 0.32659 0.84742 0.0
Co98 Co 0.66456 0.95931 0.83235 0.0
O99 O 0.65794 0.94094 0.8178 0.0
O100 O 0.64653 0.96658 0.81715 0.0
C101 C 0.66442 0.94417 0.85668 0.0
O102 O 0.66772 0.98111 0.84605 0.0
Co103 Co 0.69878 0.95745 0.85162 0.0
O104 O 0.68972 0.97747 0.86388 0.0
C105 C 0.69878 0.96564 0.81512 0.0
C106 C 0.6468 0.95113 0.81127 0.0
C107 C 0.67712 0.98609 0.85849 0.0
O108 O 0.68246 0.96659 0.81539 0.0
O109 O 0.70755 0.96083 0.82793 0.0
O110 O 0.65043 0.95041 0.85061 0.0
O111 O 0.67763 0.94583 0.8471 0.0
Co112 Co 0.16982 0.04337 0.33843 0.0
O113 O 0.18518 0.06146 0.34397 0.0
O114 O 0.18591 0.03587 0.35552 0.0
C115 C 0.14591 0.05913 0.33998 0.0
O116 O 0.15552 0.0218 0.3364 0.0
Co117 Co 0.148 0.04511 0.30571 0.0
O118 O 0.13562 0.02601 0.31639 0.0
C119 C 0.18432 0.03606 0.30317 0.0
C120 C 0.1921 0.05117 0.3548 0.0
C121 C 0.14199 0.01724 0.32839 0.0
O122 O 0.18541 0.03564 0.31949 0.0
O123 O 0.17085 0.0407 0.29534 0.0
O124 O 0.15274 0.05291 0.35363 0.0
O125 O 0.15452 0.05696 0.32619 0.0
Co126 Co 0.95877 0.17024 0.33886 0.0
O127 O 0.94094 0.18565 0.34499 0.0
O128 O 0.96668 0.18586 0.35622 0.0
C129 C 0.94284 0.14644 0.34003 0.0
O130 O 0.98013 0.15577 0.33612 0.0
Co131 Co 0.95612 0.14972 0.30541 0.0
O132 O 0.97601 0.1374 0.31465 0.0
C133 C 0.96541 0.18593 0.30395 0.0
C134 C 0.95145 0.19227 0.35578 0.0
C135 C 0.98481 0.14299 0.32703 0.0
O136 O 0.96644 0.18625 0.32027 0.0
O137 O 0.96018 0.17293 0.29571 0.0
O138 O 0.94932 0.15287 0.35375 0.0
O139 O 0.94479 0.15542 0.32644 0.0
Co140 Co 0.83158 0.95895 0.33835 0.0
O141 O 0.81669 0.94066 0.3444 0.0
O142 O 0.81546 0.96642 0.35547 0.0
C143 C 0.85578 0.94363 0.34001 0.0
O144 O 0.84551 0.9807 0.33566 0.0
Co145 Co 0.85273 0.95657 0.30525 0.0
O146 O 0.86456 0.97658 0.31479 0.0
C147 C 0.81637 0.96524 0.30313 0.0
C148 C 0.80967 0.95094 0.35515 0.0
C149 C 0.85848 0.98546 0.32688 0.0
O150 O 0.81564 0.96607 0.31946 0.0
O151 O 0.82967 0.96041 0.29514 0.0
O152 O 0.84897 0.95006 0.35356 0.0
O153 O 0.84698 0.94529 0.32626 0.0
Co154 Co 0.04289 0.83219 0.34005 0.0
O155 O 0.06082 0.81666 0.34555 0.0
O156 O 0.03536 0.81633 0.35736 0.0
C157 C 0.05899 0.85589 0.34134 0.0
O158 O 0.02154 0.84678 0.338 0.0
Co159 Co 0.04488 0.85347 0.30702 0.0
O160 O 0.02592 0.86621 0.31755 0.0
C161 C 0.03529 0.81731 0.30501 0.0
C162 C 0.0506 0.80998 0.35657 0.0
C163 C 0.01712 0.8602 0.32972 0.0
O164 O 0.03475 0.81657 0.32134 0.0
O165 O 0.04029 0.8305 0.29694 0.0
O166 O 0.05275 0.84923 0.35506 0.0
O167 O 0.05667 0.8472 0.32762 0.0
Co168 Co 0.17021 0.95863 0.66293 0.0
O169 O 0.18542 0.94088 0.65618 0.0
O170 O 0.18553 0.96681 0.64541 0.0
C171 C 0.14632 0.94284 0.66195 0.0
O172 O 0.15584 0.97991 0.6665 0.0
Co173 Co 0.15049 0.95504 0.69684 0.0
O174 O 0.13798 0.97516 0.68827 0.0
C175 C 0.18677 0.96388 0.69757 0.0
C176 C 0.1919 0.95156 0.64548 0.0
C177 C 0.14325 0.9843 0.67599 0.0
O178 O 0.18655 0.96595 0.68136 0.0
O179 O 0.17413 0.95799 0.70593 0.0
O180 O 0.15246 0.94956 0.64821 0.0
O181 O 0.15565 0.94443 0.67534 0.0
Co182 Co 0.04307 0.16967 0.66509 0.0
O183 O 0.06129 0.18468 0.65913 0.0
O184 O 0.03581 0.18525 0.64738 0.0
C185 C 0.05868 0.14561 0.66439 0.0
O186 O 0.02145 0.15554 0.6676 0.0
Co187 Co 0.04488 0.14932 0.69872 0.0
O188 O 0.02553 0.13674 0.68869 0.0
C189 C 0.03604 0.18569 0.69974 0.0
C190 C 0.05117 0.19131 0.64799 0.0
C191 C 0.0168 0.1425 0.67634 0.0
O192 O 0.03531 0.18594 0.6834 0.0
O193 O 0.04093 0.17267 0.70816 0.0
O194 O 0.05252 0.15201 0.65052 0.0
O195 O 0.05661 0.15474 0.67787 0.0
Co196 Co 0.83153 0.04296 0.66217 0.0
O197 O 0.81634 0.06098 0.65604 0.0
O198 O 0.81616 0.03543 0.6444 0.0
C199 C 0.85543 0.05879 0.66161 0.0
O200 O 0.84588 0.0215 0.66485 0.0
Co201 Co 0.85156 0.04504 0.69598 0.0
O202 O 0.86435 0.0257 0.68621 0.0
C203 C 0.81527 0.0359 0.6967 0.0
C204 C 0.80988 0.05071 0.64493 0.0
C205 C 0.85881 0.01693 0.67378 0.0
O206 O 0.81521 0.03508 0.68037 0.0
O207 O 0.82816 0.04097 0.70523 0.0
O208 O 0.84917 0.05257 0.6477 0.0
O209 O 0.84623 0.05666 0.67503 0.0
Co210 Co 0.95855 0.83191 0.6639 0.0
O211 O 0.94049 0.81641 0.65866 0.0
O212 O 0.96593 0.81578 0.64679 0.0
C213 C 0.94261 0.85569 0.66239 0.0
O214 O 0.98003 0.84631 0.66569 0.0
Co215 Co 0.95707 0.85377 0.69654 0.0
O216 O 0.97517 0.86687 0.6849 0.0
C217 C 0.96639 0.81753 0.69908 0.0
C218 C 0.95068 0.8095 0.64774 0.0
C219 C 0.98409 0.86031 0.67311 0.0
O220 O 0.96664 0.81648 0.68276 0.0
O221 O 0.96172 0.83095 0.707 0.0
O222 O 0.94875 0.84884 0.64873 0.0
O223 O 0.94496 0.84717 0.67622 0.0
Co224 Co 0.34205 0.17088 0.04143 0.0
O225 O 0.35013 0.18601 0.05878 0.0
O226 O 0.35993 0.18518 0.0324 0.0
C227 C 0.34256 0.14712 0.05747 0.0
O228 O 0.33732 0.15651 0.02042 0.0
Co229 Co 0.30761 0.15246 0.04597 0.0
O230 O 0.31447 0.14005 0.02514 0.0
C231 C 0.308 0.18878 0.03734 0.0
C232 C 0.3607 0.19169 0.04755 0.0
C233 C 0.32696 0.14467 0.01595 0.0
O234 O 0.32408 0.18793 0.03454 0.0
O235 O 0.29943 0.17649 0.04363 0.0
O236 O 0.35629 0.15262 0.05022 0.0
O237 O 0.32948 0.15695 0.05619 0.0
Co238 Co 0.33849 0.83132 0.96016 0.0
O239 O 0.3445 0.81602 0.94218 0.0
O240 O 0.35613 0.81586 0.96774 0.0
C241 C 0.33918 0.85511 0.94422 0.0
O242 O 0.33596 0.84567 0.98159 0.0
Co243 Co 0.305 0.85178 0.95824 0.0
O244 O 0.3152 0.86477 0.97726 0.0
C245 C 0.30384 0.81547 0.96736 0.0
C246 C 0.35552 0.80949 0.95251 0.0
C247 C 0.32746 0.85893 0.98605 0.0
O248 O 0.32017 0.81515 0.96807 0.0
O249 O 0.29547 0.8285 0.96241 0.0
O250 O 0.35305 0.84889 0.95056 0.0
O251 O 0.3257 0.84601 0.94638 0.0
Co252 Co 0.17009 0.33797 0.95937 0.0
O253 O 0.18538 0.34435 0.94154 0.0
O254 O 0.18526 0.35579 0.96718 0.0
C255 C 0.14632 0.33844 0.94336 0.0
O256 O 0.15562 0.33496 0.98067 0.0
Co257 Co 0.15052 0.30399 0.95677 0.0
O258 O 0.13754 0.31331 0.97625 0.0
C259 C 0.18675 0.30358 0.9659 0.0
C260 C 0.19172 0.35537 0.95197 0.0
C261 C 0.14282 0.32578 0.98512 0.0
O262 O 0.18651 0.31987 0.96729 0.0
O263 O 0.17412 0.29498 0.96037 0.0
O264 O 0.15235 0.35235 0.94981 0.0
O265 O 0.15566 0.32511 0.94537 0.0
Co266 Co 0.66173 0.17044 0.95874 0.0
O267 O 0.65648 0.18614 0.94085 0.0
O268 O 0.64437 0.18627 0.96618 0.0
C269 C 0.66074 0.14686 0.94245 0.0
O270 O 0.66347 0.15577 0.98006 0.0
Co271 Co 0.69461 0.14887 0.95735 0.0
O272 O 0.68286 0.13541 0.97511 0.0
C273 C 0.69667 0.18507 0.96707 0.0
C274 C 0.64541 0.19279 0.95104 0.0
C275 C 0.67094 0.14176 0.984 0.0
O276 O 0.68034 0.18597 0.96723 0.0
O277 O 0.70474 0.17176 0.96231 0.0
O278 O 0.6469 0.15344 0.94852 0.0
O279 O 0.6744 0.15553 0.94512 0.0
Co280 Co 0.83172 0.66371 0.95762 0.0
O281 O 0.81632 0.65738 0.93989 0.0
O282 O 0.81647 0.64598 0.96556 0.0
C283 C 0.85537 0.66294 0.94148 0.0
O284 O 0.84635 0.66684 0.97879 0.0
Co285 Co 0.85152 0.69758 0.95443 0.0
O286 O 0.86451 0.68835 0.97396 0.0
C287 C 0.81534 0.69826 0.9637 0.0
C288 C 0.80999 0.64638 0.95034 0.0
C289 C 0.85923 0.67602 0.98303 0.0
O290 O 0.81551 0.68201 0.96548 0.0
O291 O 0.82794 0.70668 0.95784 0.0
O292 O 0.84931 0.64912 0.94807 0.0
O293 O 0.84612 0.67634 0.94343 0.0
Co294 Co 0.66282 0.83164 0.04334 0.0
O295 O 0.65665 0.81596 0.06091 0.0
O296 O 0.64537 0.81624 0.03518 0.0
C297 C 0.66179 0.85511 0.05976 0.0
O298 O 0.66573 0.84641 0.02225 0.0
Co299 Co 0.69625 0.85219 0.04638 0.0
O300 O 0.68599 0.86577 0.02776 0.0
C301 C 0.69761 0.81599 0.03693 0.0
C302 C 0.64584 0.80955 0.05029 0.0
C303 C 0.67408 0.85996 0.01848 0.0
O304 O 0.68134 0.81576 0.03538 0.0
O305 O 0.70582 0.82882 0.04262 0.0
O306 O 0.64803 0.84897 0.0531 0.0
O307 O 0.67531 0.84609 0.0576 0.0
Co308 Co 0.17001 0.66199 0.04322 0.0
O309 O 0.1856 0.65641 0.06111 0.0
O310 O 0.18575 0.6446 0.03563 0.0
C311 C 0.14633 0.66097 0.05936 0.0
O312 O 0.1554 0.66412 0.02186 0.0
Co313 Co 0.14892 0.69517 0.04516 0.0
O314 O 0.13618 0.68479 0.02611 0.0
C315 C 0.18511 0.69693 0.03559 0.0
C316 C 0.19226 0.64545 0.0508 0.0
C317 C 0.1421 0.67255 0.01735 0.0
O318 O 0.18576 0.68058 0.03506 0.0
O319 O 0.17195 0.70506 0.04055 0.0
O320 O 0.15284 0.64716 0.05318 0.0
O321 O 0.15514 0.67459 0.05696 0.0
Co322 Co 0.83078 0.33853 0.04328 0.0
O323 O 0.81528 0.34432 0.06116 0.0
O324 O 0.81508 0.35591 0.03557 0.0
C325 C 0.85454 0.33964 0.05929 0.0
O326 O 0.84533 0.33613 0.02193 0.0
Co327 Co 0.85164 0.30523 0.04555 0.0
O328 O 0.86437 0.31532 0.02634 0.0
C329 C 0.81542 0.30359 0.03618 0.0
C330 C 0.80864 0.35522 0.05078 0.0
C331 C 0.85855 0.32756 0.01749 0.0
O332 O 0.81493 0.31992 0.03532 0.0
O333 O 0.82849 0.29541 0.04132 0.0
O334 O 0.84802 0.35341 0.053 0.0
O335 O 0.84565 0.32603 0.05711 0.0
Co336 Co 0.5434 0.84024 0.67075 0.0
O337 O 0.56108 0.84607 0.68647 0.0
O338 O 0.53548 0.85762 0.68635 0.0
C339 C 0.55968 0.84136 0.64717 0.0
O340 O 0.52222 0.83775 0.65597 0.0
Co341 Co 0.546 0.80685 0.6501 0.0
O342 O 0.5268 0.81675 0.63717 0.0
C343 C 0.53612 0.80536 0.68617 0.0
C344 C 0.55059 0.85694 0.693 0.0
C345 C 0.51788 0.82902 0.64282 0.0
O346 O 0.53526 0.82168 0.68653 0.0
O347 O 0.54146 0.79709 0.67323 0.0
O348 O 0.5533 0.85511 0.65362 0.0
O349 O 0.55744 0.82774 0.65604 0.0
Co350 Co 0.16485 0.54339 0.66976 0.0
O351 O 0.15928 0.56173 0.68478 0.0
O352 O 0.14732 0.53634 0.68559 0.0
C353 C 0.16394 0.5589 0.64566 0.0
O354 O 0.1669 0.52168 0.65571 0.0
Co355 Co 0.19812 0.54459 0.64884 0.0
O356 O 0.18755 0.52545 0.63638 0.0
C357 C 0.19964 0.53594 0.68526 0.0
C358 C 0.14812 0.55172 0.69156 0.0
C359 C 0.17524 0.5169 0.64246 0.0
O360 O 0.18331 0.53551 0.6858 0.0
O361 O 0.20791 0.54056 0.67204 0.0
O362 O 0.15011 0.55291 0.65231 0.0
O363 O 0.17755 0.55671 0.65456 0.0
Co364 Co 0.45847 0.16255 0.67032 0.0
O365 O 0.44066 0.15685 0.6859 0.0
O366 O 0.46629 0.14539 0.68621 0.0
C367 C 0.44232 0.16101 0.64666 0.0
O368 O 0.47975 0.16494 0.65574 0.0
Co369 Co 0.4559 0.19551 0.6489 0.0
O370 O 0.47467 0.18483 0.63587 0.0
C371 C 0.46514 0.19768 0.68514 0.0
C372 C 0.45106 0.14599 0.69258 0.0
C373 C 0.48378 0.17298 0.64208 0.0
O374 O 0.46643 0.1814 0.68581 0.0
O375 O 0.45966 0.20563 0.67205 0.0
O376 O 0.44875 0.14738 0.65331 0.0
O377 O 0.44451 0.17476 0.65533 0.0
Co378 Co 0.83689 0.45864 0.66994 0.0
O379 O 0.84221 0.44055 0.68535 0.0
O380 O 0.85406 0.46598 0.68605 0.0
C381 C 0.83838 0.44272 0.64612 0.0
O382 O 0.83502 0.48017 0.65553 0.0
Co383 Co 0.80416 0.45696 0.64816 0.0
O384 O 0.81504 0.47583 0.63561 0.0
C385 C 0.80172 0.46646 0.68437 0.0
C386 C 0.85318 0.45069 0.69224 0.0
C387 C 0.82705 0.48463 0.64194 0.0
O388 O 0.81803 0.46663 0.68546 0.0
O389 O 0.79381 0.46181 0.67094 0.0
O390 O 0.85204 0.4489 0.65295 0.0
O391 O 0.82457 0.44503 0.65468 0.0
Co392 Co 0.54218 0.16258 0.33166 0.0
O393 O 0.55952 0.15528 0.31609 0.0
O394 O 0.53335 0.14495 0.31696 0.0
C395 C 0.55846 0.16165 0.35526 0.0
O396 O 0.52119 0.16648 0.34636 0.0
Co397 Co 0.54609 0.19643 0.35138 0.0
O398 O 0.52647 0.1878 0.36458 0.0
C399 C 0.53644 0.19721 0.31517 0.0
C400 C 0.54843 0.14461 0.31028 0.0
C401 C 0.51713 0.17572 0.35924 0.0
O402 O 0.53482 0.18093 0.31523 0.0
O403 O 0.54213 0.20557 0.3279 0.0
O404 O 0.55148 0.14795 0.34933 0.0
O405 O 0.55677 0.17502 0.34589 0.0
Co406 Co 0.84159 0.54302 0.332 0.0
O407 O 0.84765 0.56046 0.31605 0.0
O408 O 0.85875 0.53459 0.3165 0.0
C409 C 0.84329 0.55949 0.35542 0.0
O410 O 0.83883 0.52195 0.34688 0.0
Co411 Co 0.80878 0.54608 0.35347 0.0
O412 O 0.81935 0.52762 0.36695 0.0
C413 C 0.80638 0.53598 0.31737 0.0
C414 C 0.85832 0.54964 0.30974 0.0
C415 C 0.83094 0.51824 0.36071 0.0
O416 O 0.82269 0.53522 0.31647 0.0
O417 O 0.7985 0.54114 0.33064 0.0
O418 O 0.85683 0.55274 0.34891 0.0
O419 O 0.8295 0.55739 0.34676 0.0
Co420 Co 0.45777 0.83784 0.33197 0.0
O421 O 0.4397 0.84341 0.31664 0.0
O422 O 0.46509 0.85537 0.31622 0.0
C423 C 0.44192 0.83878 0.35585 0.0
O424 O 0.47919 0.83564 0.34641 0.0
Co425 Co 0.45574 0.80435 0.35264 0.0
O426 O 0.47511 0.81448 0.36517 0.0
C427 C 0.46459 0.80305 0.31635 0.0
C428 C 0.4498 0.85456 0.30999 0.0
C429 C 0.48379 0.82691 0.35948 0.0
O430 O 0.46593 0.81934 0.31611 0.0
O431 O 0.4591 0.79478 0.32923 0.0
O432 O 0.44798 0.85261 0.34927 0.0
O433 O 0.44418 0.82521 0.34692 0.0
Co434 Co 0.1619 0.45852 0.33234 0.0
O435 O 0.15574 0.44029 0.31743 0.0
O436 O 0.14425 0.46589 0.31673 0.0
C437 C 0.16108 0.44307 0.35651 0.0
O438 O 0.16474 0.48018 0.34636 0.0
Co439 Co 0.19574 0.45621 0.35235 0.0
O440 O 0.18686 0.47658 0.3641 0.0
C441 C 0.19654 0.46515 0.31604 0.0
C442 C 0.14472 0.45049 0.31072 0.0
C443 C 0.17429 0.48522 0.35867 0.0
O444 O 0.18021 0.46605 0.31596 0.0
O445 O 0.20503 0.46006 0.32893 0.0
O446 O 0.14727 0.44932 0.35006 0.0
O447 O 0.17455 0.4449 0.34732 0.0
Co448 Co 0.66943 0.54434 0.83828 0.0
O449 O 0.68508 0.5621 0.84409 0.0
O450 O 0.68517 0.53645 0.85552 0.0
C451 C 0.6458 0.56053 0.83956 0.0
O452 O 0.65476 0.52308 0.83593 0.0
Co453 Co 0.64822 0.5467 0.8052 0.0
O454 O 0.63537 0.52769 0.81549 0.0
C455 C 0.68429 0.53669 0.80323 0.0
C456 C 0.69169 0.55162 0.85493 0.0
C457 C 0.64136 0.51875 0.82758 0.0
O458 O 0.68509 0.53631 0.81956 0.0
O459 O 0.67109 0.54167 0.79515 0.0
O460 O 0.65234 0.55417 0.85328 0.0
O461 O 0.65456 0.55828 0.82588 0.0
Co462 Co 0.45803 0.67105 0.83775 0.0
O463 O 0.4398 0.68591 0.84402 0.0
O464 O 0.46547 0.68663 0.85537 0.0
C465 C 0.44263 0.6469 0.83862 0.0
O466 O 0.47971 0.65709 0.83492 0.0
Co467 Co 0.456 0.6507 0.80417 0.0
O468 O 0.47544 0.63812 0.81402 0.0
C469 C 0.46468 0.68711 0.80303 0.0
C470 C 0.45005 0.69258 0.85503 0.0
C471 C 0.4843 0.644 0.82623 0.0
O472 O 0.46541 0.68742 0.81936 0.0
O473 O 0.45989 0.67402 0.79465 0.0
O474 O 0.44899 0.65328 0.85241 0.0
O475 O 0.44438 0.65606 0.82512 0.0
Co476 Co 0.33177 0.45893 0.83996 0.0
O477 O 0.31653 0.44077 0.84551 0.0
O478 O 0.31585 0.46622 0.85733 0.0
C479 C 0.35567 0.44312 0.84111 0.0
O480 O 0.346 0.48052 0.83786 0.0
Co481 Co 0.35324 0.45742 0.80702 0.0
O482 O 0.36638 0.47561 0.81847 0.0
C483 C 0.3169 0.46659 0.80496 0.0
C484 C 0.30974 0.45089 0.85656 0.0
C485 C 0.35991 0.48458 0.83027 0.0
O486 O 0.31601 0.46686 0.82129 0.0
O487 O 0.33026 0.46198 0.79691 0.0
O488 O 0.34905 0.44929 0.85487 0.0
O489 O 0.34691 0.4454 0.82743 0.0
Co490 Co 0.54316 0.33282 0.83732 0.0
O491 O 0.56125 0.31763 0.84315 0.0
O492 O 0.53571 0.31707 0.85479 0.0
C493 C 0.55885 0.35679 0.83842 0.0
O494 O 0.52168 0.34714 0.83484 0.0
Co495 Co 0.54545 0.35332 0.80378 0.0
O496 O 0.52559 0.36551 0.81331 0.0
C497 C 0.53701 0.31697 0.80252 0.0
C498 C 0.55105 0.31093 0.85418 0.0
C499 C 0.51691 0.35993 0.82579 0.0
O500 O 0.53534 0.31685 0.81878 0.0
O501 O 0.54256 0.32982 0.79427 0.0
O502 O 0.55264 0.3502 0.85217 0.0
O503 O 0.55684 0.34783 0.82482 0.0
Co504 Co 0.67098 0.45906 0.16538 0.0
O505 O 0.68608 0.44091 0.15942 0.0
O506 O 0.68649 0.46639 0.14766 0.0
C507 C 0.647 0.44336 0.16472 0.0
O508 O 0.65676 0.48061 0.16783 0.0
Co509 Co 0.65062 0.45733 0.19895 0.0
O510 O 0.63783 0.47647 0.18878 0.0
C511 C 0.68691 0.4665 0.2 0.0
C512 C 0.69264 0.45106 0.14826 0.0
C513 C 0.64362 0.48519 0.17644 0.0
O514 O 0.68723 0.46696 0.18366 0.0
O515 O 0.67388 0.46168 0.20844 0.0
O516 O 0.65334 0.44955 0.15084 0.0
O517 O 0.65613 0.44544 0.1782 0.0
Co518 Co 0.54327 0.66988 0.16287 0.0
O519 O 0.56124 0.6852 0.15697 0.0
O520 O 0.53563 0.68562 0.14548 0.0
C521 C 0.5592 0.64605 0.16171 0.0
O522 O 0.52184 0.65554 0.16544 0.0
Co523 Co 0.54559 0.64887 0.19613 0.0
O524 O 0.52684 0.63579 0.18548 0.0
C525 C 0.53683 0.68525 0.19779 0.0
C526 C 0.55092 0.69185 0.14602 0.0
C527 C 0.51776 0.64194 0.17357 0.0
O528 O 0.53546 0.68571 0.18151 0.0
O529 O 0.54219 0.67222 0.20591 0.0
O530 O 0.55286 0.65255 0.14796 0.0
O531 O 0.55704 0.65495 0.17532 0.0
Co532 Co 0.33156 0.54301 0.16504 0.0
O533 O 0.31662 0.56115 0.15868 0.0
O534 O 0.31616 0.53553 0.14724 0.0
C535 C 0.3556 0.55862 0.16441 0.0
O536 O 0.34568 0.52141 0.16799 0.0
Co537 Co 0.35151 0.54534 0.19887 0.0
O538 O 0.36371 0.52533 0.1898 0.0
C539 C 0.31521 0.53619 0.19962 0.0
C540 C 0.31007 0.55089 0.14762 0.0
C541 C 0.35825 0.51659 0.17733 0.0
O542 O 0.31504 0.53551 0.18327 0.0
O543 O 0.32817 0.5411 0.2081 0.0
O544 O 0.34942 0.5522 0.15056 0.0
O545 O 0.3463 0.55679 0.1778 0.0
Co546 Co 0.45903 0.33221 0.16387 0.0
O547 O 0.44087 0.31691 0.15835 0.0
O548 O 0.46635 0.31624 0.14661 0.0
C549 C 0.44326 0.35615 0.16276 0.0
O550 O 0.48063 0.34645 0.16591 0.0
Co551 Co 0.45772 0.35351 0.19691 0.0
O552 O 0.47591 0.36668 0.18551 0.0
C553 C 0.46687 0.3172 0.19881 0.0
C554 C 0.45107 0.31002 0.14743 0.0
C555 C 0.4848 0.36027 0.1736 0.0
O556 O 0.46702 0.31645 0.18248 0.0
O557 O 0.46234 0.33051 0.20699 0.0
O558 O 0.4493 0.34945 0.14897 0.0
O559 O 0.44559 0.3474 0.17645 0.0
Co560 Co 0.83775 0.67018 0.54294 0.0
O561 O 0.84253 0.68556 0.56123 0.0
O562 O 0.85507 0.68634 0.53612 0.0
C563 C 0.83888 0.64631 0.5588 0.0
O564 O 0.83661 0.65583 0.52133 0.0
Co565 Co 0.80509 0.6483 0.54349 0.0
O566 O 0.81661 0.63581 0.52495 0.0
C567 C 0.80277 0.68454 0.53412 0.0
C568 C 0.85379 0.69246 0.55142 0.0
C569 C 0.82888 0.6422 0.51658 0.0
O570 O 0.81908 0.68569 0.53445 0.0
O571 O 0.79478 0.67106 0.53843 0.0
O572 O 0.85268 0.65323 0.55307 0.0
O573 O 0.8251 0.65481 0.55612 0.0
Co574 Co 0.8382 0.33151 0.45887 0.0
O575 O 0.8444 0.3167 0.44057 0.0
O576 O 0.85602 0.31606 0.46612 0.0
C577 C 0.8387 0.35567 0.44348 0.0
O578 O 0.83548 0.34544 0.48058 0.0
Co579 Co 0.80444 0.35158 0.45718 0.0
O580 O 0.81445 0.36429 0.47646 0.0
C581 C 0.80371 0.31515 0.46583 0.0
C582 C 0.85555 0.3101 0.45071 0.0
C583 C 0.82678 0.3585 0.48521 0.0
O584 O 0.82005 0.31498 0.46644 0.0
O585 O 0.79518 0.32816 0.46111 0.0
O586 O 0.85261 0.3494 0.44968 0.0
O587 O 0.82531 0.34639 0.44537 0.0
Co588 Co 0.66925 0.83902 0.45875 0.0
O589 O 0.68422 0.8448 0.44042 0.0
O590 O 0.68523 0.85635 0.46598 0.0
C591 C 0.64511 0.84021 0.44327 0.0
O592 O 0.65526 0.83676 0.4805 0.0
Co593 Co 0.648 0.80593 0.4572 0.0
O594 O 0.63568 0.81638 0.47647 0.0
C595 C 0.68438 0.804 0.46609 0.0
C596 C 0.69111 0.85578 0.45054 0.0
C597 C 0.64193 0.82849 0.48521 0.0
O598 O 0.68521 0.82034 0.46636 0.0
O599 O 0.67103 0.79592 0.46155 0.0
O600 O 0.65181 0.85395 0.44942 0.0
O601 O 0.65396 0.82655 0.44533 0.0
Co602 Co 0.16342 0.67024 0.45868 0.0
O603 O 0.15748 0.68599 0.44108 0.0
O604 O 0.14612 0.68582 0.46677 0.0
C605 C 0.16219 0.64667 0.4424 0.0
O606 O 0.16608 0.65541 0.47976 0.0
Co607 Co 0.19689 0.64967 0.45565 0.0
O608 O 0.1873 0.63686 0.47511 0.0
C609 C 0.19831 0.68583 0.46493 0.0
C610 C 0.14667 0.69248 0.45166 0.0
C611 C 0.17499 0.64237 0.48407 0.0
O612 O 0.18207 0.68596 0.46675 0.0
O613 O 0.20648 0.67308 0.45902 0.0
O614 O 0.14846 0.65314 0.44881 0.0
O615 O 0.1758 0.65556 0.44457 0.0
Co616 Co 0.33159 0.16393 0.45905 0.0
O617 O 0.31657 0.15841 0.44069 0.0
O618 O 0.31593 0.14618 0.46595 0.0
C619 C 0.35565 0.16351 0.44346 0.0
O620 O 0.3457 0.16587 0.48074 0.0
Co621 Co 0.35219 0.19746 0.45814 0.0
O622 O 0.36479 0.18678 0.47713 0.0
C623 C 0.31577 0.19849 0.46681 0.0
C624 C 0.30989 0.1471 0.45059 0.0
C625 C 0.35888 0.17431 0.48557 0.0
O626 O 0.31541 0.18214 0.46721 0.0
O627 O 0.32886 0.20692 0.46215 0.0
O628 O 0.34919 0.14951 0.44925 0.0
O629 O 0.34659 0.17696 0.44588 0.0
Co630 Co 0.16232 0.3316 0.54392 0.0
O631 O 0.1566 0.31608 0.5618 0.0
O632 O 0.145 0.31583 0.53622 0.0
C633 C 0.16112 0.35533 0.55998 0.0
O634 O 0.16467 0.34618 0.52256 0.0
Co635 Co 0.19554 0.35258 0.54622 0.0
O636 O 0.18538 0.36531 0.52705 0.0
C637 C 0.19729 0.3164 0.53665 0.0
C638 C 0.14571 0.3094 0.55143 0.0
C639 C 0.1732 0.35944 0.51816 0.0
O640 O 0.18097 0.31583 0.53595 0.0
O641 O 0.20545 0.32952 0.54173 0.0
O642 O 0.14738 0.34877 0.55367 0.0
O643 O 0.17477 0.34651 0.55777 0.0
Co644 Co 0.66954 0.16269 0.54265 0.0
O645 O 0.68489 0.15625 0.56043 0.0
O646 O 0.6848 0.14503 0.53468 0.0
C647 C 0.64582 0.16201 0.55868 0.0
O648 O 0.65508 0.16577 0.52133 0.0
Co649 Co 0.64957 0.19644 0.54535 0.0
O650 O 0.6366 0.18703 0.52594 0.0
C651 C 0.68579 0.19729 0.5359 0.0
C652 C 0.6913 0.14539 0.54987 0.0
C653 C 0.64211 0.17476 0.51695 0.0
O654 O 0.68588 0.18096 0.53495 0.0
O655 O 0.67291 0.20574 0.5411 0.0
O656 O 0.65186 0.14817 0.55211 0.0
O657 O 0.65508 0.1754 0.55673 0.0
Co658 Co 0.33198 0.83887 0.54386 0.0
O659 O 0.31665 0.84498 0.56174 0.0
O660 O 0.31637 0.85631 0.53606 0.0
C661 C 0.35584 0.84002 0.55976 0.0
O662 O 0.34644 0.83608 0.52252 0.0
Co663 Co 0.3525 0.80534 0.54665 0.0
O664 O 0.36511 0.81495 0.52708 0.0
C665 C 0.31625 0.80402 0.53756 0.0
C666 C 0.3101 0.85592 0.55135 0.0
C667 C 0.35946 0.82719 0.51811 0.0
O668 O 0.31604 0.82029 0.53606 0.0
O669 O 0.3291 0.79579 0.54318 0.0
O670 O 0.34936 0.85375 0.55336 0.0
O671 O 0.34684 0.82645 0.55778 0.0
H672 H 0.1165 0.46641 0.29744 0.0
H673 H 0.09535 0.45399 0.27804 0.0
H674 H 0.12487 0.40799 0.27539 0.0
H675 H 0.14579 0.42011 0.2946 0.0
H676 H 0.09934 0.43893 0.24404 0.0
H677 H 0.07728 0.39244 0.29187 0.0
H678 H 0.08915 0.41124 0.29747 0.0
H679 H 0.09994 0.39272 0.2896 0.0
C680 C 0.11852 0.45372 0.29257 0.0
C681 C 0.13273 0.44418 0.29769 0.0
C682 C 0.10643 0.44664 0.28154 0.0
C683 C 0.10839 0.42994 0.27561 0.0
C684 C 0.12293 0.42076 0.28013 0.0
H685 H 0.07871 0.35349 0.2101 0.0
H686 H 0.08963 0.37348 0.23104 0.0
C687 C 0.13493 0.42776 0.29107 0.0
C688 C 0.09535 0.42168 0.26484 0.0
H689 H 0.07146 0.3856 0.26264 0.0
C690 C 0.09286 0.42752 0.24819 0.0
C691 C 0.08684 0.40686 0.27034 0.0
C692 C 0.08829 0.40053 0.28836 0.0
C693 C 0.0831 0.41814 0.23653 0.0
C694 C 0.07565 0.40267 0.24175 0.0
C695 C 0.07725 0.39745 0.25867 0.0
C696 C 0.06826 0.3906 0.22938 0.0
C697 C 0.08172 0.42418 0.21842 0.0
C698 C 0.05243 0.39349 0.2217 0.0
C699 C 0.04603 0.38194 0.20973 0.0
C700 C 0.05546 0.36746 0.20523 0.0
C701 C 0.07115 0.36454 0.21322 0.0
C702 C 0.07742 0.37595 0.2252 0.0
H703 H 0.0889 0.4361 0.2162 0.0
H704 H 0.08656 0.41425 0.20967 0.0
H705 H 0.06818 0.42642 0.21523 0.0
H706 H 0.04512 0.40468 0.22489 0.0
H707 H 0.03393 0.38453 0.20375 0.0
H708 H 0.64776 0.08297 0.20731 0.0
H709 H 0.62852 0.09436 0.22865 0.0
H710 H 0.60149 0.04681 0.23001 0.0
H711 H 0.62078 0.03522 0.20836 0.0
H712 H 0.58035 0.07634 0.22703 0.0
H713 H 0.62673 0.08291 0.2795 0.0
H714 H 0.63391 0.09217 0.25997 0.0
H715 H 0.6306 0.06962 0.26122 0.0
C716 C 0.63784 0.07482 0.21222 0.0
C717 C 0.63585 0.05814 0.20618 0.0
C718 C 0.62688 0.08136 0.22449 0.0
C719 C 0.61373 0.07137 0.23109 0.0
C720 C 0.61165 0.05468 0.22514 0.0
H721 H 0.55364 0.11121 0.31606 0.0
H722 H 0.56747 0.09083 0.29688 0.0
C723 C 0.62269 0.04808 0.21283 0.0
C724 C 0.60188 0.07879 0.2437 0.0
H725 H 0.60109 0.09915 0.28195 0.0
C726 C 0.5848 0.08109 0.23917 0.0
C727 C 0.60768 0.08486 0.25958 0.0
C728 C 0.6257 0.08213 0.26546 0.0
C729 C 0.57359 0.0901 0.24973 0.0
C730 C 0.57967 0.09699 0.26513 0.0
C731 C 0.5965 0.09394 0.27006 0.0
C732 C 0.56919 0.10836 0.27583 0.0
C733 C 0.55542 0.09251 0.24427 0.0
C734 C 0.56547 0.12488 0.27025 0.0
C735 C 0.55785 0.13655 0.28125 0.0
C736 C 0.55352 0.13173 0.29782 0.0
C737 C 0.55656 0.11503 0.30317 0.0
C738 C 0.5645 0.10345 0.29229 0.0
H739 H 0.55175 0.0834 0.23415 0.0
H740 H 0.54669 0.09095 0.25522 0.0
H741 H 0.55378 0.10557 0.23926 0.0
H742 H 0.56923 0.12898 0.25768 0.0
H743 H 0.55584 0.14948 0.27702 0.0
H744 H 0.96644 0.62394 0.20764 0.0
H745 H 0.95466 0.60418 0.22872 0.0
H746 H 0.90601 0.62892 0.2247 0.0
H747 H 0.91763 0.64871 0.20403 0.0
H748 H 0.91585 0.62312 0.25795 0.0
H749 H 0.92202 0.56463 0.21877 0.0
H750 H 0.9411 0.57672 0.22203 0.0
H751 H 0.92404 0.58564 0.20984 0.0
C752 C 0.95326 0.62518 0.21133 0.0
C753 C 0.94297 0.63787 0.20413 0.0
C754 C 0.94652 0.61381 0.22327 0.0
C755 C 0.92938 0.61493 0.2281 0.0
C756 C 0.91924 0.62778 0.22113 0.0
H757 H 0.85037 0.56277 0.27903 0.0
H758 H 0.86983 0.57658 0.25898 0.0
C759 C 0.92593 0.6391 0.20929 0.0
C760 C 0.92176 0.60295 0.24048 0.0
H761 H 0.90928 0.56169 0.2457 0.0
C762 C 0.9146 0.60966 0.25536 0.0
C763 C 0.92006 0.58539 0.23703 0.0
C764 C 0.92708 0.5776 0.22101 0.0
C765 C 0.90545 0.59938 0.26664 0.0
C766 C 0.90345 0.58195 0.26301 0.0
C767 C 0.91097 0.57508 0.24843 0.0
C768 C 0.89238 0.57117 0.27365 0.0
C769 C 0.89749 0.60725 0.28219 0.0
C770 C 0.89878 0.56314 0.2882 0.0
C771 C 0.88772 0.55494 0.29945 0.0
C772 C 0.87017 0.55497 0.29638 0.0
C773 C 0.86389 0.5625 0.28152 0.0
C774 C 0.87496 0.57038 0.27013 0.0
H775 H 0.90018 0.62105 0.28319 0.0
H776 H 0.88352 0.60539 0.28184 0.0
H777 H 0.90233 0.60082 0.29375 0.0
H778 H 0.91218 0.56382 0.29119 0.0
H779 H 0.89275 0.5495 0.31104 0.0
H780 H 0.46509 0.88341 0.29743 0.0
H781 H 0.45227 0.9046 0.27834 0.0
H782 H 0.40733 0.87368 0.27424 0.0
H783 H 0.41985 0.85269 0.29314 0.0
H784 H 0.43755 0.90111 0.24399 0.0
H785 H 0.39026 0.9203 0.29231 0.0
H786 H 0.4094 0.90885 0.29761 0.0
H787 H 0.39129 0.89775 0.28923 0.0
C788 C 0.45256 0.88107 0.29227 0.0
C789 C 0.44341 0.86646 0.29692 0.0
C790 C 0.44525 0.89319 0.28143 0.0
C791 C 0.42871 0.89085 0.27521 0.0
C792 C 0.41996 0.87589 0.2792 0.0
H793 H 0.35139 0.92331 0.2111 0.0
H794 H 0.37106 0.91151 0.23187 0.0
C795 C 0.42719 0.86387 0.28996 0.0
C796 C 0.42013 0.90398 0.26482 0.0
H797 H 0.38368 0.92735 0.26338 0.0
C798 C 0.42599 0.9072 0.24831 0.0
C799 C 0.40511 0.91197 0.27056 0.0
C800 C 0.39871 0.9097 0.28846 0.0
C801 C 0.41651 0.91724 0.23698 0.0
C802 C 0.40091 0.92429 0.24242 0.0
C803 C 0.39561 0.92188 0.25923 0.0
C804 C 0.3889 0.9323 0.23036 0.0
C805 C 0.42264 0.9194 0.21898 0.0
C806 C 0.39226 0.94812 0.22287 0.0
C807 C 0.38091 0.95501 0.211 0.0
C808 C 0.36613 0.9461 0.20641 0.0
C809 C 0.36268 0.93048 0.2143 0.0
C810 C 0.37391 0.9237 0.22618 0.0
H811 H 0.43425 0.91185 0.21635 0.0
H812 H 0.41255 0.91552 0.20993 0.0
H813 H 0.42551 0.93298 0.21661 0.0
H814 H 0.4037 0.95503 0.22609 0.0
H815 H 0.38392 0.96706 0.20511 0.0
H816 H 0.11981 0.53614 0.70492 0.0
H817 H 0.09856 0.54895 0.72392 0.0
H818 H 0.12827 0.59483 0.72617 0.0
H819 H 0.14932 0.58231 0.70733 0.0
H820 H 0.10219 0.56437 0.75763 0.0
H821 H 0.08096 0.61039 0.70896 0.0
H822 H 0.09286 0.5915 0.70375 0.0
H823 H 0.10358 0.61007 0.7116 0.0
C824 C 0.12186 0.54888 0.70963 0.0
C825 C 0.13616 0.55827 0.7045 0.0
C826 C 0.10971 0.55618 0.72042 0.0
C827 C 0.11169 0.57296 0.72611 0.0
C828 C 0.12632 0.582 0.72161 0.0
H829 H 0.08029 0.64996 0.79056 0.0
H830 H 0.09169 0.63017 0.76969 0.0
C831 C 0.13839 0.57477 0.71089 0.0
C832 C 0.09856 0.58141 0.7366 0.0
H833 H 0.07455 0.61746 0.73798 0.0
C834 C 0.09579 0.57574 0.75325 0.0
C835 C 0.09014 0.59617 0.73079 0.0
C836 C 0.09188 0.60231 0.71273 0.0
C837 C 0.0858 0.58521 0.76463 0.0
C838 C 0.07838 0.6006 0.75912 0.0
C839 C 0.08031 0.60568 0.74218 0.0
C840 C 0.0706 0.61269 0.77121 0.0
C841 C 0.08409 0.57933 0.78277 0.0
C842 C 0.05475 0.60956 0.77872 0.0
C843 C 0.04808 0.62099 0.79064 0.0
C844 C 0.05726 0.6356 0.79525 0.0
C845 C 0.07292 0.63881 0.78735 0.0
C846 C 0.07947 0.62752 0.77541 0.0
H847 H 0.09149 0.56759 0.7853 0.0
H848 H 0.08848 0.58945 0.79154 0.0
H849 H 0.07054 0.57679 0.78563 0.0
H850 H 0.04767 0.59823 0.77551 0.0
H851 H 0.036 0.61817 0.79655 0.0
H852 H 0.35261 0.07763 0.79027 0.0
H853 H 0.3724 0.08879 0.7693 0.0
H854 H 0.40582 0.04632 0.77783 0.0
H855 H 0.38585 0.03487 0.79897 0.0
H856 H 0.42113 0.08103 0.7792 0.0
H857 H 0.38336 0.06942 0.72103 0.0
H858 H 0.37133 0.07865 0.73806 0.0
H859 H 0.38008 0.05771 0.74049 0.0
C860 C 0.36407 0.07052 0.7876 0.0
C861 C 0.36765 0.05535 0.79625 0.0
C862 C 0.37535 0.0769 0.77556 0.0
C863 C 0.39049 0.06831 0.77193 0.0
C864 C 0.39413 0.05307 0.78041 0.0
H865 H 0.467 0.11752 0.70516 0.0
H866 H 0.45486 0.09631 0.72462 0.0
C867 C 0.3827 0.04653 0.7924 0.0
C868 C 0.40262 0.07595 0.75977 0.0
H869 H 0.40455 0.09127 0.71934 0.0
C870 C 0.41779 0.08294 0.76599 0.0
C871 C 0.39819 0.07836 0.74256 0.0
C872 C 0.38243 0.0705 0.73506 0.0
C873 C 0.42801 0.09337 0.75571 0.0
C874 C 0.42293 0.0967 0.73882 0.0
C875 C 0.40835 0.08878 0.73233 0.0
C876 C 0.43125 0.10985 0.72826 0.0
C877 C 0.44353 0.10166 0.76323 0.0
C878 C 0.42208 0.1245 0.72406 0.0
C879 C 0.42891 0.13651 0.71302 0.0
C880 C 0.44508 0.13414 0.70588 0.0
C881 C 0.45455 0.11973 0.71054 0.0
C882 C 0.44765 0.10763 0.72164 0.0
H883 H 0.44483 0.09904 0.77702 0.0
H884 H 0.45503 0.09687 0.75667 0.0
H885 H 0.443 0.11561 0.76128 0.0
H886 H 0.40943 0.12648 0.72908 0.0
H887 H 0.42129 0.14748 0.70977 0.0
H888 H 0.8509 0.4209 0.70935 0.0
H889 H 0.87153 0.40849 0.72874 0.0
H890 H 0.90283 0.45316 0.72443 0.0
H891 H 0.88198 0.46587 0.70495 0.0
H892 H 0.90593 0.40213 0.71957 0.0
H893 H 0.90052 0.44387 0.77644 0.0
H894 H 0.88409 0.44287 0.76049 0.0
H895 H 0.90353 0.45384 0.7561 0.0
C896 C 0.86204 0.42824 0.71267 0.0
C897 C 0.86483 0.44437 0.70557 0.0
C898 C 0.87384 0.4211 0.72375 0.0
C899 C 0.8887 0.42989 0.72803 0.0
C900 C 0.89134 0.44624 0.72143 0.0
H901 H 0.96475 0.38471 0.79773 0.0
H902 H 0.95273 0.40425 0.77649 0.0
C903 C 0.87944 0.45347 0.71031 0.0
C904 C 0.90164 0.42124 0.73864 0.0
H905 H 0.91851 0.42013 0.77858 0.0
C906 C 0.90888 0.40621 0.73239 0.0
C907 C 0.9056 0.42667 0.75529 0.0
C908 C 0.89802 0.44264 0.76262 0.0
C909 C 0.91931 0.39603 0.7426 0.0
C910 C 0.92244 0.40091 0.75957 0.0
C911 C 0.91606 0.41644 0.76554 0.0
C912 C 0.93037 0.38902 0.77181 0.0
C913 C 0.92648 0.37983 0.73533 0.0
C914 C 0.92177 0.37408 0.77616 0.0
C915 C 0.9285 0.36304 0.78824 0.0
C916 C 0.94402 0.36667 0.79624 0.0
C917 C 0.95283 0.38152 0.79168 0.0
C918 C 0.94596 0.39271 0.77963 0.0
H919 H 0.9271 0.38032 0.72125 0.0
H920 H 0.93939 0.37729 0.74038 0.0
H921 H 0.91815 0.36907 0.73894 0.0
H922 H 0.90963 0.3711 0.77043 0.0
H923 H 0.92138 0.35173 0.79148 0.0
H924 H 0.64706 0.92044 0.7957 0.0
H925 H 0.62595 0.9086 0.77652 0.0
H926 H 0.59734 0.95519 0.77882 0.0
H927 H 0.6187 0.96733 0.79812 0.0
H928 H 0.59079 0.90463 0.78473 0.0
H929 H 0.60104 0.94435 0.72707 0.0
H930 H 0.61684 0.94269 0.7436 0.0
H931 H 0.59799 0.95494 0.74709 0.0
C932 C 0.63639 0.9283 0.79204 0.0
C933 C 0.63455 0.94484 0.79847 0.0
C934 C 0.6243 0.92147 0.78109 0.0
C935 C 0.61009 0.931 0.77623 0.0
C936 C 0.60831 0.94768 0.78228 0.0
H937 H 0.53582 0.88662 0.70399 0.0
H938 H 0.54705 0.90639 0.72547 0.0
C939 C 0.6205 0.95458 0.79331 0.0
C940 C 0.59703 0.92289 0.76537 0.0
H941 H 0.5823 0.92127 0.72461 0.0
C942 C 0.58869 0.90845 0.77167 0.0
C943 C 0.59422 0.92797 0.74838 0.0
C944 C 0.603 0.94328 0.74099 0.0
C945 C 0.57835 0.89845 0.76119 0.0
C946 C 0.57642 0.9029 0.74393 0.0
C947 C 0.58383 0.91792 0.73787 0.0
C948 C 0.56887 0.89089 0.73159 0.0
C949 C 0.57008 0.88281 0.76848 0.0
C950 C 0.57742 0.87572 0.72798 0.0
C951 C 0.57117 0.86457 0.71574 0.0
C952 C 0.55615 0.86831 0.70687 0.0
C953 C 0.54735 0.88337 0.71072 0.0
C954 C 0.55377 0.89467 0.7229 0.0
H955 H 0.56881 0.88368 0.7825 0.0
H956 H 0.55732 0.88075 0.76285 0.0
H957 H 0.57804 0.87157 0.76551 0.0
H958 H 0.58919 0.87266 0.7344 0.0
H959 H 0.57826 0.8531 0.71308 0.0
H960 H 0.20983 0.08061 0.35242 0.0
H961 H 0.23055 0.09204 0.37241 0.0
H962 H 0.22562 0.04734 0.40353 0.0
H963 H 0.2048 0.0356 0.38337 0.0
H964 H 0.22156 0.08647 0.41824 0.0
H965 H 0.28066 0.06887 0.38388 0.0
H966 H 0.26291 0.07586 0.37126 0.0
H967 H 0.26152 0.05626 0.38275 0.0
C968 C 0.21322 0.07309 0.36342 0.0
C969 C 0.20567 0.05719 0.36631 0.0
C970 C 0.22506 0.07966 0.37482 0.0
C971 C 0.22954 0.07053 0.3894 0.0
C972 C 0.22227 0.05454 0.39231 0.0
H973 H 0.29496 0.11996 0.46684 0.0
H974 H 0.27521 0.09917 0.45443 0.0
C975 C 0.21047 0.04785 0.38076 0.0
C976 C 0.24156 0.07822 0.4016 0.0
H977 H 0.28299 0.09023 0.40503 0.0
C978 C 0.23507 0.08698 0.41568 0.0
C979 C 0.2591 0.07889 0.39807 0.0
C980 C 0.26659 0.0694 0.38323 0.0
C981 C 0.24561 0.09727 0.42577 0.0
C982 C 0.26302 0.09865 0.42168 0.0
C983 C 0.26962 0.08914 0.40813 0.0
C984 C 0.27419 0.1114 0.42985 0.0
C985 C 0.23792 0.10746 0.44004 0.0
C986 C 0.28002 0.12513 0.42019 0.0
C987 C 0.29118 0.13694 0.42719 0.0
C988 C 0.29686 0.13524 0.44403 0.0
C989 C 0.29075 0.12164 0.45386 0.0
C990 C 0.27948 0.10978 0.4468 0.0
H991 H 0.22389 0.10617 0.44056 0.0
H992 H 0.24326 0.10309 0.45232 0.0
H993 H 0.24118 0.12109 0.43857 0.0
H994 H 0.27605 0.12663 0.40711 0.0
H995 H 0.2956 0.14725 0.41924 0.0
H996 H 0.88385 0.29704 0.46663 0.0
H997 H 0.9053 0.27803 0.45413 0.0
H998 H 0.87607 0.27547 0.40795 0.0
H999 H 0.85483 0.29429 0.42014 0.0
H1000 H 0.90176 0.24418 0.43884 0.0
H1001 H 0.92356 0.29249 0.39275 0.0
H1002 H 0.91153 0.29786 0.41153 0.0
H1003 H 0.90092 0.29 0.39289 0.0
C1004 C 0.88196 0.29227 0.45388 0.0
C1005 C 0.86773 0.29729 0.44432 0.0
C1006 C 0.89422 0.28147 0.44676 0.0
C1007 C 0.89243 0.27568 0.42999 0.0
C1008 C 0.87788 0.28011 0.42077 0.0
H1009 H 0.92262 0.21089 0.35334 0.0
H1010 H 0.91173 0.23185 0.37332 0.0
C1011 C 0.8657 0.29082 0.42782 0.0
C1012 C 0.90562 0.2651 0.42173 0.0
H1013 H 0.92965 0.26336 0.38573 0.0
C1014 C 0.90824 0.24845 0.42748 0.0
C1015 C 0.91413 0.27079 0.40698 0.0
C1016 C 0.91254 0.28883 0.40075 0.0
C1017 C 0.91813 0.23694 0.41807 0.0
C1018 C 0.92558 0.24232 0.40265 0.0
C1019 C 0.92386 0.25927 0.39753 0.0
C1020 C 0.93305 0.23008 0.3905 0.0
C1021 C 0.91964 0.21881 0.424 0.0
C1022 C 0.94885 0.22236 0.39342 0.0
C1023 C 0.95523 0.21038 0.38188 0.0
C1024 C 0.9458 0.20591 0.36738 0.0
C1025 C 0.93017 0.21398 0.36441 0.0
C1026 C 0.92392 0.22598 0.37581 0.0
H1027 H 0.9124 0.21645 0.43586 0.0
H1028 H 0.91494 0.21008 0.41398 0.0
H1029 H 0.93319 0.21573 0.42631 0.0
H1030 H 0.95613 0.22549 0.40465 0.0
H1031 H 0.96729 0.20434 0.38451 0.0
H1032 H 0.70355 0.85773 0.41847 0.0
H1033 H 0.7236 0.87826 0.40699 0.0
H1034 H 0.72836 0.90161 0.45623 0.0
H1035 H 0.708 0.88099 0.46797 0.0
H1036 H 0.71926 0.91739 0.41057 0.0
H1037 H 0.77856 0.88883 0.43663 0.0
H1038 H 0.75989 0.87602 0.43306 0.0
H1039 H 0.76009 0.89121 0.44996 0.0
C1040 C 0.70889 0.86714 0.42696 0.0
C1041 C 0.70418 0.8677 0.44417 0.0
C1042 C 0.7203 0.87891 0.42032 0.0
C1043 C 0.72738 0.89145 0.43074 0.0
C1044 C 0.72299 0.89199 0.44801 0.0
H1045 H 0.79299 0.96843 0.38049 0.0
H1046 H 0.77266 0.95673 0.40117 0.0
C1047 C 0.71142 0.8802 0.45468 0.0
C1048 C 0.73932 0.90382 0.42317 0.0
H1049 H 0.78155 0.91007 0.41586 0.0
C1050 C 0.73289 0.91613 0.41202 0.0
C1051 C 0.75705 0.90199 0.42505 0.0
C1052 C 0.76446 0.88882 0.43679 0.0
C1053 C 0.74378 0.92615 0.40207 0.0
C1054 C 0.76149 0.9237 0.4033 0.0
C1055 C 0.76794 0.91196 0.41505 0.0
C1056 C 0.77332 0.9313 0.39084 0.0
C1057 C 0.73633 0.93852 0.38951 0.0
C1058 C 0.78024 0.92091 0.37819 0.0
C1059 C 0.79165 0.92751 0.3664 0.0
C1060 C 0.79653 0.94467 0.36705 0.0
C1061 C 0.78943 0.95518 0.37963 0.0
C1062 C 0.77787 0.94853 0.39145 0.0
H1063 H 0.72223 0.93853 0.38971 0.0
H1064 H 0.74088 0.95153 0.39243 0.0
H1065 H 0.74068 0.93532 0.37649 0.0
H1066 H 0.77683 0.90761 0.37747 0.0
H1067 H 0.79685 0.91903 0.35692 0.0
H1068 H 0.08039 0.79285 0.35472 0.0
H1069 H 0.09256 0.77358 0.37558 0.0
H1070 H 0.04753 0.77802 0.40634 0.0
H1071 H 0.03508 0.79744 0.38527 0.0
H1072 H 0.09801 0.78327 0.41062 0.0
H1073 H 0.05746 0.72569 0.40362 0.0
H1074 H 0.05898 0.74146 0.38705 0.0
H1075 H 0.04731 0.74604 0.40602 0.0
C1076 C 0.07292 0.7896 0.36579 0.0
C1077 C 0.05677 0.79672 0.36836 0.0
C1078 C 0.07993 0.77859 0.37772 0.0
C1079 C 0.07097 0.77439 0.3925 0.0
C1080 C 0.05459 0.781 0.39493 0.0
H1081 H 0.11724 0.70354 0.46686 0.0
H1082 H 0.09718 0.7248 0.45574 0.0
C1083 C 0.0475 0.79207 0.3829 0.0
C1084 C 0.07947 0.76383 0.40555 0.0
H1085 H 0.08137 0.72352 0.42136 0.0
C1086 C 0.0942 0.77029 0.41322 0.0
C1087 C 0.07439 0.74698 0.40902 0.0
C1088 C 0.05872 0.73949 0.401 0.0
C1089 C 0.10448 0.76007 0.42353 0.0
C1090 C 0.10004 0.74289 0.42608 0.0
C1091 C 0.08473 0.73671 0.41935 0.0
C1092 C 0.11224 0.73071 0.43356 0.0
C1093 C 0.12039 0.76754 0.43111 0.0
C1094 C 0.12727 0.72705 0.42477 0.0
C1095 C 0.13858 0.71496 0.43098 0.0
C1096 C 0.13516 0.70626 0.44616 0.0
C1097 C 0.12026 0.71014 0.45519 0.0
C1098 C 0.10878 0.7222 0.44883 0.0
H1099 H 0.11949 0.78157 0.43221 0.0
H1100 H 0.12297 0.76212 0.44386 0.0
H1101 H 0.13134 0.76454 0.42277 0.0
H1102 H 0.13007 0.73332 0.41286 0.0
H1103 H 0.14993 0.71226 0.42371 0.0
H1104 H 0.20371 0.96768 0.61676 0.0
H1105 H 0.22479 0.95673 0.59639 0.0
H1106 H 0.23141 0.91208 0.62731 0.0
H1107 H 0.21056 0.92275 0.64747 0.0
H1108 H 0.26285 0.93061 0.61493 0.0
H1109 H 0.21594 0.91274 0.565 0.0
H1110 H 0.21494 0.93341 0.57481 0.0
H1111 H 0.20961 0.91493 0.58692 0.0
C1112 C 0.20979 0.9556 0.61924 0.0
C1113 C 0.20544 0.94605 0.63368 0.0
C1114 C 0.22173 0.94935 0.60758 0.0
C1115 C 0.22951 0.93354 0.61032 0.0
C1116 C 0.2255 0.92427 0.62495 0.0
H1117 H 0.29369 0.85534 0.58159 0.0
H1118 H 0.27468 0.87667 0.59333 0.0
C1119 C 0.21355 0.9304 0.63645 0.0
C1120 C 0.24178 0.92622 0.59812 0.0
H1121 H 0.24365 0.90195 0.56222 0.0
C1122 C 0.25876 0.92469 0.60319 0.0
C1123 C 0.2364 0.91856 0.58281 0.0
C1124 C 0.21823 0.91988 0.57694 0.0
C1125 C 0.2703 0.9149 0.59383 0.0
C1126 C 0.26461 0.90615 0.57921 0.0
C1127 C 0.24793 0.90861 0.57348 0.0
C1128 C 0.27521 0.89285 0.57116 0.0
C1129 C 0.28836 0.91344 0.60004 0.0
C1130 C 0.28126 0.89451 0.55448 0.0
C1131 C 0.29218 0.8822 0.54763 0.0
C1132 C 0.29707 0.86805 0.55738 0.0
C1133 C 0.29032 0.86614 0.57378 0.0
C1134 C 0.27949 0.87837 0.58056 0.0
H1135 H 0.29199 0.92452 0.60797 0.0
H1136 H 0.28961 0.90185 0.60795 0.0
H1137 H 0.29737 0.9124 0.58925 0.0
H1138 H 0.27794 0.90554 0.54698 0.0
H1139 H 0.29717 0.88401 0.53495 0.0
H1140 H 0.03549 0.20422 0.61949 0.0
H1141 H 0.04809 0.22332 0.59818 0.0
H1142 H 0.09379 0.22646 0.6281 0.0
H1143 H 0.0815 0.20754 0.64919 0.0
H1144 H 0.06299 0.25732 0.60169 0.0
H1145 H 0.10988 0.20927 0.58097 0.0
H1146 H 0.09101 0.20383 0.5928 0.0
H1147 H 0.10939 0.21202 0.60359 0.0
C1148 C 0.04815 0.20915 0.62157 0.0
C1149 C 0.05756 0.20424 0.63594 0.0
C1150 C 0.05533 0.22 0.60938 0.0
C1151 C 0.07201 0.22598 0.61141 0.0
C1152 C 0.08105 0.22169 0.62611 0.0
H1153 H 0.14864 0.29083 0.58026 0.0
H1154 H 0.12889 0.26988 0.59153 0.0
C1155 C 0.07395 0.21091 0.6382 0.0
C1156 C 0.08036 0.23654 0.59826 0.0
H1157 H 0.11656 0.23837 0.57452 0.0
C1158 C 0.07447 0.25309 0.59538 0.0
C1159 C 0.09527 0.23092 0.58997 0.0
C1160 C 0.10168 0.21297 0.59184 0.0
C1161 C 0.08384 0.26459 0.58542 0.0
C1162 C 0.09936 0.25928 0.57814 0.0
C1163 C 0.10467 0.24242 0.58016 0.0
C1164 C 0.11138 0.27152 0.57046 0.0
C1165 C 0.07771 0.28263 0.58363 0.0
C1166 C 0.10823 0.27916 0.55466 0.0
C1167 C 0.11964 0.29115 0.54807 0.0
C1168 C 0.13426 0.2957 0.55727 0.0
C1169 C 0.13748 0.28768 0.57288 0.0
C1170 C 0.12621 0.27569 0.57935 0.0
H1171 H 0.06594 0.28503 0.59102 0.0
H1172 H 0.0877 0.29157 0.58798 0.0
H1173 H 0.07512 0.28539 0.57007 0.0
H1174 H 0.09692 0.27597 0.54754 0.0
H1175 H 0.11682 0.29714 0.53603 0.0
H1176 H 0.79306 0.08071 0.64607 0.0
H1177 H 0.77369 0.09249 0.62509 0.0
H1178 H 0.77788 0.04685 0.59519 0.0
H1179 H 0.79737 0.03477 0.61641 0.0
H1180 H 0.78267 0.09748 0.59002 0.0
H1181 H 0.72566 0.05639 0.59827 0.0
H1182 H 0.74172 0.05817 0.61454 0.0
H1183 H 0.74603 0.04638 0.59557 0.0
C1184 C 0.78975 0.07304 0.63515 0.0
C1185 C 0.7968 0.0568 0.63289 0.0
C1186 C 0.77869 0.07982 0.62314 0.0
C1187 C 0.77434 0.07056 0.60859 0.0
C1188 C 0.78095 0.05414 0.60643 0.0
H1189 H 0.70255 0.11609 0.53446 0.0
H1190 H 0.72397 0.0961 0.54544 0.0
C1191 C 0.79208 0.04727 0.61854 0.0
C1192 C 0.76354 0.07876 0.59554 0.0
H1193 H 0.72297 0.08006 0.5803 0.0
C1194 C 0.76972 0.09348 0.58763 0.0
C1195 C 0.7467 0.07345 0.59235 0.0
C1196 C 0.73949 0.05778 0.60063 0.0
C1197 C 0.75922 0.10356 0.57739 0.0
C1198 C 0.74206 0.09889 0.57514 0.0
C1199 C 0.73615 0.08358 0.58208 0.0
C1200 C 0.72962 0.11095 0.56783 0.0
C1201 C 0.76636 0.11953 0.56962 0.0
C1202 C 0.72575 0.1258 0.57681 0.0
C1203 C 0.71356 0.13707 0.5707 0.0
C1204 C 0.70499 0.13377 0.55541 0.0
C1205 C 0.70904 0.119 0.54623 0.0
C1206 C 0.7212 0.10757 0.55249 0.0
H1207 H 0.78039 0.11888 0.56846 0.0
H1208 H 0.76081 0.12186 0.55688 0.0
H1209 H 0.76317 0.1305 0.57786 0.0
H1210 H 0.73197 0.12854 0.58877 0.0
H1211 H 0.71074 0.14831 0.57809 0.0
H1212 H 0.88244 0.70577 0.53649 0.0
H1213 H 0.90331 0.72489 0.54973 0.0
H1214 H 0.87223 0.72767 0.59467 0.0
H1215 H 0.85154 0.7087 0.58172 0.0
H1216 H 0.89954 0.75873 0.56482 0.0
H1217 H 0.91891 0.71007 0.6117 0.0
H1218 H 0.90747 0.70489 0.59251 0.0
H1219 H 0.89635 0.71305 0.61071 0.0
C1220 C 0.87999 0.71065 0.54911 0.0
C1221 C 0.86543 0.7056 0.55812 0.0
C1222 C 0.89193 0.7215 0.55665 0.0
C1223 C 0.88947 0.72736 0.57331 0.0
C1224 C 0.87455 0.72299 0.58194 0.0
H1225 H 0.9217 0.79122 0.65103 0.0
H1226 H 0.9099 0.77054 0.63127 0.0
C1227 C 0.86269 0.7122 0.57447 0.0
C1228 C 0.90246 0.73777 0.58208 0.0
H1229 H 0.92587 0.73895 0.61852 0.0
C1230 C 0.90563 0.75433 0.57635 0.0
C1231 C 0.91047 0.73192 0.59705 0.0
C1232 C 0.90828 0.71395 0.60328 0.0
C1233 C 0.91567 0.76559 0.58591 0.0
C1234 C 0.92276 0.76003 0.60145 0.0
C1235 C 0.92037 0.74318 0.60663 0.0
C1236 C 0.93078 0.772 0.61352 0.0
C1237 C 0.9178 0.78364 0.57993 0.0
C1238 C 0.94665 0.77942 0.61025 0.0
C1239 C 0.95354 0.79123 0.62166 0.0
C1240 C 0.94458 0.79583 0.6364 0.0
C1241 C 0.9289 0.78801 0.63977 0.0
C1242 C 0.92213 0.77618 0.62849 0.0
H1243 H 0.91029 0.78634 0.5683 0.0
H1244 H 0.91385 0.7926 0.59007 0.0
H1245 H 0.93138 0.78608 0.57714 0.0
H1246 H 0.95358 0.7762 0.59883 0.0
H1247 H 0.96563 0.79708 0.61872 0.0
H1248 H 0.42003 0.29498 0.14754 0.0
H1249 H 0.40916 0.27356 0.12808 0.0
H1250 H 0.45723 0.27252 0.10196 0.0
H1251 H 0.46827 0.29427 0.12144 0.0
H1252 H 0.42847 0.27504 0.08018 0.0
H1253 H 0.42077 0.22289 0.12668 0.0
H1254 H 0.41109 0.24235 0.13349 0.0
H1255 H 0.43375 0.24131 0.13088 0.0
C1256 C 0.4284 0.29012 0.13777 0.0
C1257 C 0.44506 0.29628 0.13609 0.0
C1258 C 0.42216 0.27781 0.12669 0.0
C1259 C 0.43245 0.27126 0.11373 0.0
C1260 C 0.44912 0.27734 0.11197 0.0
H1261 H 0.39342 0.18501 0.05525 0.0
H1262 H 0.41363 0.20426 0.06919 0.0
C1263 C 0.45542 0.28971 0.12312 0.0
C1264 C 0.42538 0.25856 0.10177 0.0
H1265 H 0.40517 0.22025 0.10065 0.0
C1266 C 0.42361 0.26294 0.08458 0.0
C1267 C 0.4192 0.2427 0.10749 0.0
C1268 C 0.42143 0.23694 0.12561 0.0
C1269 C 0.41501 0.25225 0.07316 0.0
C1270 C 0.40795 0.23689 0.07915 0.0
C1271 C 0.41049 0.23211 0.09612 0.0
C1272 C 0.39693 0.22605 0.06841 0.0
C1273 C 0.41331 0.25755 0.05486 0.0
C1274 C 0.38095 0.23199 0.06319 0.0
C1275 C 0.36939 0.22098 0.0554 0.0
C1276 C 0.37377 0.20399 0.0525 0.0
C1277 C 0.38998 0.19821 0.05706 0.0
C1278 C 0.40145 0.20914 0.06507 0.0
H1279 H 0.42299 0.26717 0.05131 0.0
H1280 H 0.41455 0.24644 0.04627 0.0
H1281 H 0.40057 0.2632 0.05285 0.0
H1282 H 0.37708 0.24489 0.06595 0.0
H1283 H 0.3568 0.22555 0.05227 0.0
H1284 H 0.38468 0.79776 0.9678 0.0
H1285 H 0.40489 0.7769 0.95622 0.0
H1286 H 0.37284 0.77021 0.91238 0.0
H1287 H 0.3528 0.79089 0.92368 0.0
H1288 H 0.38605 0.73881 0.93019 0.0
H1289 H 0.43507 0.78642 0.91173 0.0
H1290 H 0.42586 0.78711 0.93268 0.0
H1291 H 0.41314 0.79246 0.9146 0.0
C1292 C 0.38191 0.79171 0.95577 0.0
C1293 C 0.36719 0.796 0.94662 0.0
C1294 C 0.39349 0.77989 0.94915 0.0
C1295 C 0.39039 0.77217 0.93339 0.0
C1296 C 0.37548 0.77609 0.92453 0.0
H1297 H 0.41939 0.70821 0.8547 0.0
H1298 H 0.40739 0.72701 0.87607 0.0
C1299 C 0.36404 0.78792 0.93102 0.0
C1300 C 0.40255 0.76009 0.92569 0.0
H1301 H 0.43822 0.75871 0.90107 0.0
C1302 C 0.39765 0.74306 0.92414 0.0
C1303 C 0.4177 0.76568 0.91787 0.0
C1304 C 0.42337 0.78391 0.91918 0.0
C1305 C 0.40707 0.73165 0.91424 0.0
C1306 C 0.42154 0.73753 0.90539 0.0
C1307 C 0.42707 0.75428 0.90782 0.0
C1308 C 0.42969 0.72702 0.89208 0.0
C1309 C 0.40109 0.71351 0.91283 0.0
C1310 C 0.44651 0.72135 0.89363 0.0
C1311 C 0.45352 0.71057 0.88129 0.0
C1312 C 0.44378 0.70542 0.86723 0.0
C1313 C 0.42721 0.71178 0.86543 0.0
C1314 C 0.42027 0.72248 0.87769 0.0
H1315 H 0.39331 0.70978 0.92399 0.0
H1316 H 0.39308 0.71216 0.90132 0.0
H1317 H 0.41198 0.70464 0.9117 0.0
H1318 H 0.45403 0.72488 0.90459 0.0
H1319 H 0.46633 0.70589 0.88301 0.0
H1320 H 0.29639 0.46664 0.8848 0.0
H1321 H 0.27708 0.45407 0.90591 0.0
H1322 H 0.27443 0.40824 0.87614 0.0
H1323 H 0.29356 0.42053 0.85522 0.0
H1324 H 0.24309 0.43883 0.90201 0.0
H1325 H 0.29143 0.39264 0.92363 0.0
H1326 H 0.29681 0.41154 0.91181 0.0
H1327 H 0.28897 0.39302 0.90098 0.0
C1328 C 0.29151 0.45396 0.8827 0.0
C1329 C 0.29663 0.44452 0.86842 0.0
C1330 C 0.28054 0.4468 0.89477 0.0
C1331 C 0.27465 0.4301 0.89274 0.0
C1332 C 0.27913 0.42101 0.87812 0.0
H1333 H 0.21037 0.353 0.92317 0.0
H1334 H 0.23109 0.37311 0.91215 0.0
C1335 C 0.29002 0.42811 0.86613 0.0
C1336 C 0.26403 0.42173 0.90583 0.0
H1337 H 0.26235 0.38571 0.92984 0.0
C1338 C 0.24738 0.42745 0.90846 0.0
C1339 C 0.26974 0.40697 0.91431 0.0
C1340 C 0.28777 0.40076 0.91269 0.0
C1341 C 0.23588 0.41802 0.91836 0.0
C1342 C 0.24129 0.40262 0.92582 0.0
C1343 C 0.25824 0.39751 0.92406 0.0
C1344 C 0.22909 0.39045 0.93332 0.0
C1345 C 0.21775 0.42393 0.91988 0.0
C1346 C 0.2213 0.39341 0.94908 0.0
C1347 C 0.20944 0.38178 0.95554 0.0
C1348 C 0.20518 0.36715 0.94623 0.0
C1349 C 0.2133 0.36416 0.93064 0.0
C1350 C 0.22516 0.37564 0.9243 0.0
H1351 H 0.21533 0.43574 0.91255 0.0
H1352 H 0.20901 0.41387 0.91528 0.0
H1353 H 0.21471 0.42635 0.93342 0.0
H1354 H 0.2243 0.40472 0.95629 0.0
H1355 H 0.20335 0.38443 0.96758 0.0
H1356 H 0.61637 0.205 0.96611 0.0
H1357 H 0.59654 0.22612 0.95439 0.0
H1358 H 0.62895 0.23232 0.91076 0.0
H1359 H 0.64865 0.2114 0.92224 0.0
H1360 H 0.61634 0.26376 0.9275 0.0
H1361 H 0.56599 0.2169 0.91076 0.0
H1362 H 0.57492 0.21665 0.93182 0.0
H1363 H 0.58774 0.21046 0.91408 0.0
C1364 C 0.61931 0.21101 0.9541 0.0
C1365 C 0.63403 0.2065 0.94507 0.0
C1366 C 0.60794 0.22296 0.94739 0.0
C1367 C 0.61123 0.23062 0.93164 0.0
C1368 C 0.62616 0.2265 0.92291 0.0
H1369 H 0.5812 0.29441 0.85277 0.0
H1370 H 0.59348 0.27541 0.87381 0.0
C1371 C 0.6374 0.21453 0.9295 0.0
C1372 C 0.59922 0.2428 0.92384 0.0
H1373 H 0.56287 0.24465 0.90024 0.0
C1374 C 0.60448 0.25968 0.92183 0.0
C1375 C 0.58373 0.23744 0.91652 0.0
C1376 C 0.57766 0.21938 0.91828 0.0
C1377 C 0.59504 0.27115 0.91202 0.0
C1378 C 0.58016 0.26549 0.90372 0.0
C1379 C 0.57432 0.24891 0.90657 0.0
C1380 C 0.57177 0.27604 0.89059 0.0
C1381 C 0.60139 0.28912 0.91015 0.0
C1382 C 0.55515 0.28212 0.89269 0.0
C1383 C 0.54798 0.29302 0.88054 0.0
C1384 C 0.55735 0.29787 0.86614 0.0
C1385 C 0.57368 0.29108 0.86379 0.0
C1386 C 0.58077 0.28026 0.87584 0.0
H1387 H 0.60964 0.29282 0.92098 0.0
H1388 H 0.60903 0.29012 0.89836 0.0
H1389 H 0.59068 0.29823 0.90926 0.0
H1390 H 0.54794 0.27885 0.90393 0.0
H1391 H 0.53537 0.29804 0.88269 0.0
H1392 H 0.70521 0.53487 0.88248 0.0
H1393 H 0.7266 0.54575 0.9025 0.0
H1394 H 0.73009 0.59203 0.87354 0.0
H1395 H 0.70899 0.58137 0.85363 0.0
H1396 H 0.76223 0.57628 0.88302 0.0
H1397 H 0.71791 0.58532 0.93747 0.0
H1398 H 0.71846 0.56506 0.92687 0.0
H1399 H 0.71025 0.58326 0.91596 0.0
C1400 C 0.71065 0.5473 0.88035 0.0
C1401 C 0.70538 0.55728 0.8665 0.0
C1402 C 0.72276 0.55353 0.89184 0.0
C1403 C 0.72976 0.56977 0.88958 0.0
C1404 C 0.72479 0.5795 0.87554 0.0
H1405 H 0.79052 0.64938 0.92222 0.0
H1406 H 0.77162 0.6283 0.90986 0.0
C1407 C 0.71272 0.57336 0.86417 0.0
C1408 C 0.74226 0.577 0.90164 0.0
H1409 H 0.74517 0.5972 0.93993 0.0
C1410 C 0.75862 0.58054 0.89561 0.0
C1411 C 0.73755 0.58245 0.91809 0.0
C1412 C 0.72009 0.57894 0.92509 0.0
C1413 C 0.77008 0.59019 0.9052 0.0
C1414 C 0.76494 0.59673 0.92111 0.0
C1415 C 0.74901 0.59223 0.92769 0.0
C1416 C 0.77515 0.60987 0.92989 0.0
C1417 C 0.78741 0.59385 0.89793 0.0
C1418 C 0.78277 0.60682 0.94572 0.0
C1419 C 0.79358 0.61902 0.95296 0.0
C1420 C 0.79684 0.63435 0.94442 0.0
C1421 C 0.78845 0.63762 0.92903 0.0
C1422 C 0.77767 0.62555 0.9219 0.0
H1423 H 0.79122 0.58406 0.88852 0.0
H1424 H 0.78711 0.6063 0.89133 0.0
H1425 H 0.79717 0.59446 0.90808 0.0
H1426 H 0.78083 0.59483 0.95215 0.0
H1427 H 0.79989 0.61616 0.96484 0.0
H1428 H 0.58107 0.70842 0.14706 0.0
H1429 H 0.59292 0.72769 0.12602 0.0
H1430 H 0.54698 0.72416 0.0965 0.0
H1431 H 0.53484 0.70474 0.11775 0.0
H1432 H 0.59727 0.71846 0.09069 0.0
H1433 H 0.55755 0.77634 0.09972 0.0
H1434 H 0.55939 0.7603 0.11601 0.0
H1435 H 0.54711 0.75614 0.09731 0.0
C1436 C 0.57334 0.71186 0.13622 0.0
C1437 C 0.55701 0.70501 0.13406 0.0
C1438 C 0.58017 0.72286 0.12418 0.0
C1439 C 0.57084 0.72734 0.10971 0.0
C1440 C 0.55432 0.72097 0.10767 0.0
H1441 H 0.6161 0.79889 0.03535 0.0
H1442 H 0.59609 0.77759 0.04647 0.0
C1443 C 0.54742 0.70989 0.11981 0.0
C1444 C 0.57908 0.738 0.09657 0.0
H1445 H 0.58099 0.77855 0.08139 0.0
C1446 C 0.59352 0.73151 0.08841 0.0
C1447 C 0.57409 0.75495 0.09351 0.0
C1448 C 0.55873 0.76249 0.1021 0.0
C1449 C 0.60364 0.7418 0.07799 0.0
C1450 C 0.5993 0.75907 0.07585 0.0
C1451 C 0.58425 0.76529 0.08308 0.0
C1452 C 0.61146 0.77126 0.06832 0.0
C1453 C 0.61928 0.73431 0.0699 0.0
C1454 C 0.62665 0.77469 0.07692 0.0
C1455 C 0.63793 0.78681 0.07073 0.0
C1456 C 0.63432 0.79576 0.05573 0.0
C1457 C 0.61926 0.7921 0.04687 0.0
C1458 C 0.60781 0.78002 0.05323 0.0
H1459 H 0.61824 0.7203 0.06863 0.0
H1460 H 0.62155 0.7399 0.05716 0.0
H1461 H 0.63046 0.73712 0.07799 0.0
H1462 H 0.62961 0.76822 0.0887 0.0
H1463 H 0.64941 0.78934 0.07786 0.0
H1464 H 0.21167 0.6492 0.07897 0.0
H1465 H 0.23288 0.6297 0.09024 0.0
H1466 H 0.22515 0.59625 0.04763 0.0
H1467 H 0.20377 0.61593 0.03609 0.0
H1468 H 0.22381 0.58082 0.08227 0.0
H1469 H 0.28144 0.61954 0.07122 0.0
H1470 H 0.26416 0.63123 0.08041 0.0
H1471 H 0.26201 0.62258 0.0594 0.0
C1472 C 0.21457 0.6378 0.07186 0.0
C1473 C 0.20607 0.63412 0.05661 0.0
C1474 C 0.22674 0.62669 0.0783 0.0
C1475 C 0.23067 0.61162 0.06971 0.0
C1476 C 0.22234 0.60789 0.05439 0.0
H1477 H 0.29753 0.53509 0.119 0.0
H1478 H 0.27824 0.5474 0.09772 0.0
C1479 C 0.21021 0.61915 0.0478 0.0
C1480 C 0.24298 0.59965 0.0774 0.0
H1481 H 0.28339 0.59816 0.09283 0.0
C1482 C 0.23696 0.58434 0.08426 0.0
C1483 C 0.2601 0.6043 0.07992 0.0
C1484 C 0.26739 0.62024 0.07222 0.0
C1485 C 0.24736 0.57418 0.09466 0.0
C1486 C 0.26417 0.57945 0.09806 0.0
C1487 C 0.27045 0.59419 0.09028 0.0
C1488 C 0.27485 0.57112 0.11115 0.0
C1489 C 0.24 0.55852 0.10282 0.0
C1490 C 0.27922 0.58031 0.12574 0.0
C1491 C 0.29017 0.57339 0.13778 0.0
C1492 C 0.29708 0.5571 0.13552 0.0
C1493 C 0.29234 0.54764 0.12113 0.0
C1494 C 0.28132 0.55464 0.10899 0.0
H1495 H 0.22616 0.55726 0.10044 0.0
H1496 H 0.24645 0.5471 0.09768 0.0
H1497 H 0.24221 0.55878 0.11674 0.0
H1498 H 0.27433 0.59301 0.12769 0.0
H1499 H 0.29349 0.58102 0.14873 0.0
H1500 H 0.70903 0.42081 0.1494 0.0
H1501 H 0.72799 0.40864 0.12826 0.0
H1502 H 0.72438 0.4543 0.09834 0.0
H1503 H 0.70529 0.46677 0.11969 0.0
H1504 H 0.71841 0.40387 0.09321 0.0
H1505 H 0.77647 0.44357 0.10092 0.0
H1506 H 0.7606 0.44206 0.11739 0.0
H1507 H 0.75631 0.45408 0.09856 0.0
C1508 C 0.71239 0.42841 0.13845 0.0
C1509 C 0.7056 0.44476 0.1362 0.0
C1510 C 0.72322 0.42139 0.12635 0.0
C1511 C 0.72759 0.43055 0.11174 0.0
C1512 C 0.72128 0.44709 0.10962 0.0
H1513 H 0.79759 0.38497 0.03618 0.0
H1514 H 0.77656 0.40495 0.04784 0.0
C1515 C 0.71038 0.45418 0.12181 0.0
C1516 C 0.73805 0.42211 0.09856 0.0
H1517 H 0.77831 0.42006 0.08263 0.0
C1518 C 0.73142 0.40759 0.09066 0.0
C1519 C 0.75495 0.42707 0.09515 0.0
C1520 C 0.76265 0.4425 0.10345 0.0
C1521 C 0.74151 0.39738 0.08014 0.0
C1522 C 0.75872 0.4017 0.07761 0.0
C1523 C 0.76509 0.4168 0.08461 0.0
C1524 C 0.77075 0.38953 0.0698 0.0
C1525 C 0.73386 0.38168 0.0723 0.0
C1526 C 0.77439 0.37433 0.07829 0.0
C1527 C 0.78636 0.36305 0.07178 0.0
C1528 C 0.79495 0.36669 0.05658 0.0
C1529 C 0.79107 0.38178 0.04785 0.0
C1530 C 0.77915 0.39322 0.05452 0.0
H1531 H 0.71983 0.3827 0.07134 0.0
H1532 H 0.73916 0.37935 0.05945 0.0
H1533 H 0.73687 0.37054 0.08038 0.0
H1534 H 0.7682 0.37135 0.0902 0.0
H1535 H 0.78906 0.35156 0.07882 0.0
H1536 H 0.981 0.21489 0.31576 0.0
H1537 H 0.99222 0.23855 0.29896 0.0
H1538 H 0.97472 0.21441 0.25309 0.0
H1539 H 0.96338 0.19089 0.26962 0.0
H1540 H 0.017 0.23654 0.27352 0.0
H1541 H 0.95722 0.26303 0.2478 0.0
H1542 H 0.95768 0.24879 0.26576 0.0
H1543 H 0.95907 0.24056 0.2445 0.0
C1544 C 0.97933 0.21471 0.30211 0.0
C1545 C 0.97124 0.20093 0.29408 0.0
C1546 C 0.98579 0.22824 0.29254 0.0
C1547 C 0.9841 0.22836 0.2748 0.0
C1548 C 0.97586 0.21477 0.26679 0.0
H1549 H 0.04026 0.27035 0.19315 0.0
H1550 H 0.02857 0.25396 0.21665 0.0
C1551 C 0.96947 0.20124 0.2763 0.0
C1552 C 0.99183 0.24208 0.26443 0.0
H1553 H 0.98283 0.27077 0.23319 0.0
C1554 C 0.00951 0.24421 0.26489 0.0
C1555 C 0.98204 0.25224 0.25331 0.0
C1556 C 0.96293 0.25119 0.2529 0.0
C1557 C 0.01773 0.25558 0.25388 0.0
C1558 C 0.00803 0.26493 0.24201 0.0
C1559 C 0.99028 0.26347 0.24218 0.0
C1560 C 0.0161 0.27533 0.22854 0.0
C1561 C 0.03677 0.25732 0.25486 0.0
C1562 C 0.01289 0.29282 0.22734 0.0
C1563 C 0.01961 0.3023 0.21388 0.0
C1564 C 0.02943 0.29439 0.20121 0.0
C1565 C 0.03277 0.27689 0.20263 0.0
C1566 C 0.02617 0.26749 0.21614 0.0
H1567 H 0.0417 0.25324 0.26743 0.0
H1568 H 0.04267 0.24916 0.24502 0.0
H1569 H 0.04076 0.27063 0.25251 0.0
H1570 H 0.00504 0.29908 0.23673 0.0
H1571 H 0.01671 0.31571 0.21316 0.0
H1572 H 0.78589 0.97815 0.31447 0.0
H1573 H 0.76235 0.98902 0.29724 0.0
H1574 H 0.78988 0.97655 0.25164 0.0
H1575 H 0.81322 0.96551 0.26856 0.0
H1576 H 0.76329 0.01551 0.27395 0.0
H1577 H 0.74353 0.95614 0.24204 0.0
H1578 H 0.75694 0.95622 0.26063 0.0
H1579 H 0.76585 0.96003 0.23994 0.0
C1580 C 0.78685 0.97752 0.30077 0.0
C1581 C 0.80149 0.97088 0.29295 0.0
C1582 C 0.77339 0.98377 0.29095 0.0
C1583 C 0.77423 0.98336 0.27314 0.0
C1584 C 0.78875 0.97664 0.26534 0.0
H1585 H 0.73297 0.0341 0.18824 0.0
H1586 H 0.74945 0.02191 0.21148 0.0
C1587 C 0.80217 0.97041 0.27509 0.0
C1588 C 0.7605 0.99079 0.26257 0.0
H1589 H 0.73474 0.98223 0.22872 0.0
C1590 C 0.75682 0.00816 0.26427 0.0
C1591 C 0.75196 0.98119 0.24999 0.0
C1592 C 0.75464 0.96233 0.24814 0.0
C1593 C 0.74554 0.01633 0.25311 0.0
C1594 C 0.7378 0.00691 0.23999 0.0
C1595 C 0.74082 0.98943 0.23877 0.0
C1596 C 0.72759 0.01523 0.22661 0.0
C1597 C 0.74232 0.0351 0.25498 0.0
C1598 C 0.70983 0.01561 0.22756 0.0
C1599 C 0.70029 0.02265 0.21429 0.0
C1600 C 0.70839 0.02929 0.19979 0.0
C1601 C 0.72625 0.02912 0.19914 0.0
C1602 C 0.73573 0.02215 0.21241 0.0
H1603 H 0.74809 0.04035 0.26672 0.0
H1604 H 0.74768 0.04189 0.24386 0.0
H1605 H 0.72845 0.03759 0.25517 0.0
H1606 H 0.70335 0.01027 0.23844 0.0
H1607 H 0.68658 0.02254 0.21525 0.0
H1608 H 0.96255 0.7351 0.19074 0.0
H1609 H 0.97424 0.75139 0.21433 0.0
H1610 H 0.99271 0.70531 0.23731 0.0
H1611 H 0.98108 0.68878 0.21365 0.0
H1612 H 0.96856 0.74855 0.25058 0.0
H1613 H 0.03547 0.73615 0.23151 0.0
H1614 H 0.01785 0.7326 0.21731 0.0
H1615 H 0.02193 0.71798 0.23428 0.0
C1616 C 0.96899 0.72835 0.20082 0.0
C1617 C 0.97098 0.7106 0.20017 0.0
C1618 C 0.97563 0.73771 0.21435 0.0
C1619 C 0.98451 0.72958 0.22746 0.0
C1620 C 0.98607 0.71184 0.2272 0.0
H1621 H 0.01942 0.78834 0.31644 0.0
H1622 H 0.00748 0.76527 0.29929 0.0
C1623 C 0.97934 0.70242 0.21369 0.0
C1624 C 0.9926 0.73992 0.24096 0.0
H1625 H 0.03111 0.7542 0.25485 0.0
C1626 C 0.98223 0.74963 0.2517 0.0
C1627 C 0.01045 0.7414 0.24225 0.0
C1628 C 0.02216 0.7316 0.23069 0.0
C1629 C 0.98923 0.76109 0.26345 0.0
C1630 C 0.00708 0.76279 0.26453 0.0
C1631 C 0.01745 0.75277 0.25407 0.0
C1632 C 0.01514 0.77603 0.27523 0.0
C1633 C 0.97749 0.77186 0.27408 0.0
C1634 C 0.02383 0.78945 0.26742 0.0
C1635 C 0.03067 0.80261 0.27713 0.0
C1636 C 0.02908 0.8026 0.29493 0.0
C1637 C 0.02084 0.78881 0.30278 0.0
C1638 C 0.01392 0.77565 0.293 0.0
H1639 H 0.9641 0.77098 0.26975 0.0
H1640 H 0.97808 0.76755 0.28748 0.0
H1641 H 0.98149 0.78537 0.27372 0.0
H1642 H 0.02496 0.78997 0.25372 0.0
H1643 H 0.03699 0.81292 0.27061 0.0
H1644 H 0.21632 0.02675 0.31393 0.0
H1645 H 0.24007 0.01686 0.29637 0.0
H1646 H 0.20915 0.02213 0.25153 0.0
H1647 H 0.18564 0.03225 0.26873 0.0
H1648 H 0.24217 0.98901 0.27542 0.0
H1649 H 0.25151 0.04731 0.23762 0.0
H1650 H 0.239 0.04704 0.2568 0.0
H1651 H 0.22986 0.04039 0.23692 0.0
C1652 C 0.21462 0.02595 0.30031 0.0
C1653 C 0.19905 0.03044 0.29277 0.0
C1654 C 0.22822 0.02028 0.2903 0.0
C1655 C 0.22651 0.01908 0.27259 0.0
C1656 C 0.21095 0.0234 0.26511 0.0
H1657 H 0.26966 0.97547 0.185 0.0
H1658 H 0.25303 0.98759 0.20809 0.0
C1659 C 0.19744 0.0291 0.27503 0.0
C1660 C 0.2406 0.01266 0.2618 0.0
H1661 H 0.26251 0.02144 0.22543 0.0
C1662 C 0.24689 0.99622 0.26469 0.0
C1663 C 0.24686 0.02212 0.24786 0.0
C1664 C 0.24158 0.04026 0.24472 0.0
C1665 C 0.25846 0.98864 0.2534 0.0
C1666 C 0.26384 0.99774 0.23893 0.0
C1667 C 0.25821 0.01444 0.23648 0.0
C1668 C 0.27418 0.98973 0.22542 0.0
C1669 C 0.26426 0.97067 0.25649 0.0
C1670 C 0.29162 0.98688 0.22756 0.0
C1671 C 0.30128 0.97998 0.2143 0.0
C1672 C 0.29361 0.97578 0.19869 0.0
C1673 C 0.27605 0.97848 0.19679 0.0
C1674 C 0.26648 0.98544 0.20998 0.0
H1675 H 0.25813 0.96495 0.26783 0.0
H1676 H 0.26137 0.96269 0.24523 0.0
H1677 H 0.27822 0.97049 0.25835 0.0
H1678 H 0.29779 0.99022 0.23939 0.0
H1679 H 0.31476 0.97809 0.21623 0.0
H1680 H 0.01897 0.68761 0.78865 0.0
H1681 H 0.00742 0.70505 0.76561 0.0
H1682 H 0.02819 0.74991 0.78902 0.0
H1683 H 0.03975 0.73271 0.81204 0.0
H1684 H 0.98392 0.7327 0.76985 0.0
H1685 H 0.04361 0.75324 0.73876 0.0
H1686 H 0.04253 0.73506 0.75269 0.0
H1687 H 0.04342 0.75613 0.76138 0.0
C1688 C 0.02127 0.70116 0.7888 0.0
C1689 C 0.03031 0.70873 0.80224 0.0
C1690 C 0.01462 0.7111 0.77564 0.0
C1691 C 0.0171 0.72874 0.77552 0.0
C1692 C 0.02635 0.73628 0.78872 0.0
H1693 H 0.96412 0.81312 0.73348 0.0
H1694 H 0.9756 0.78994 0.75049 0.0
C1695 C 0.03288 0.72641 0.80194 0.0
C1696 C 0.00925 0.73949 0.7622 0.0
H1697 H 0.01858 0.76893 0.73178 0.0
C1698 C 0.99148 0.74046 0.76137 0.0
C1699 C 0.01913 0.74947 0.75102 0.0
C1700 C 0.03824 0.74836 0.75084 0.0
C1701 C 0.98335 0.75174 0.7502 0.0
C1702 C 0.99326 0.7624 0.73969 0.0
C1703 C 0.01101 0.76085 0.73994 0.0
C1704 C 0.98551 0.7759 0.72908 0.0
C1705 C 0.96422 0.75231 0.74986 0.0
C1706 C 0.98739 0.7758 0.71137 0.0
C1707 C 0.9808 0.78907 0.70153 0.0
C1708 C 0.97242 0.80283 0.70928 0.0
C1709 C 0.97047 0.80277 0.72704 0.0
C1710 C 0.97695 0.78946 0.73681 0.0
H1711 H 0.95858 0.74046 0.75501 0.0
H1712 H 0.95978 0.76305 0.75781 0.0
H1713 H 0.95945 0.75429 0.73674 0.0
H1714 H 0.99406 0.7655 0.70517 0.0
H1715 H 0.98261 0.78871 0.68791 0.0
H1716 H 0.19848 0.95152 0.7277 0.0
H1717 H 0.22089 0.96336 0.74556 0.0
H1718 H 0.23058 0.00196 0.70796 0.0
H1719 H 0.20871 0.98959 0.68963 0.0
H1720 H 0.25945 0.99248 0.72215 0.0
H1721 H 0.21293 0.00486 0.77323 0.0
H1722 H 0.21406 0.98272 0.76817 0.0
H1723 H 0.20661 0.99762 0.75248 0.0
C1724 C 0.20553 0.9624 0.72315 0.0
C1725 C 0.2017 0.96975 0.70735 0.0
C1726 C 0.21825 0.96925 0.73343 0.0
C1727 C 0.22705 0.98392 0.7284 0.0
C1728 C 0.22386 0.99075 0.71222 0.0
H1729 H 0.27467 0.04766 0.80463 0.0
H1730 H 0.25709 0.03652 0.78165 0.0
C1731 C 0.21137 0.98366 0.70174 0.0
C1732 C 0.23899 0.9925 0.74027 0.0
H1733 H 0.24199 0.00823 0.78051 0.0
C1734 C 0.25562 0.99603 0.73489 0.0
C1735 C 0.23391 0.99754 0.75677 0.0
C1736 C 0.21586 0.99567 0.76294 0.0
C1737 C 0.26737 0.00413 0.74564 0.0
C1738 C 0.26254 0.00829 0.76246 0.0
C1739 C 0.24583 0.00496 0.76771 0.0
C1740 C 0.27436 0.0162 0.77495 0.0
C1741 C 0.28465 0.00849 0.73866 0.0
C1742 C 0.29016 0.00877 0.77871 0.0
C1743 C 0.30045 0.01544 0.79159 0.0
C1744 C 0.2949 0.02934 0.80131 0.0
C1745 C 0.27924 0.0369 0.7974 0.0
C1746 C 0.26917 0.03051 0.78427 0.0
H1747 H 0.28431 0.00989 0.72463 0.0
H1748 H 0.2896 0.02045 0.74423 0.0
H1749 H 0.29363 0.99807 0.74167 0.0
H1750 H 0.29429 0.99744 0.77214 0.0
H1751 H 0.31236 0.00923 0.79448 0.0
H1752 H 0.01852 0.21349 0.68794 0.0
H1753 H 0.00693 0.23705 0.70466 0.0
H1754 H 0.02826 0.2154 0.75014 0.0
H1755 H 0.0399 0.19193 0.73368 0.0
H1756 H 0.98366 0.23374 0.73212 0.0
H1757 H 0.04297 0.26559 0.75241 0.0
H1758 H 0.04219 0.251 0.73473 0.0
H1759 H 0.04302 0.24311 0.75613 0.0
C1760 C 0.02096 0.21386 0.70146 0.0
C1761 C 0.03016 0.20077 0.70944 0.0
C1762 C 0.01428 0.22732 0.71099 0.0
C1763 C 0.0169 0.22807 0.7286 0.0
C1764 C 0.02634 0.21523 0.73653 0.0
H1765 H 0.96334 0.26976 0.81238 0.0
H1766 H 0.97482 0.25303 0.78901 0.0
C1767 C 0.0329 0.20174 0.72707 0.0
C1768 C 0.00891 0.2416 0.73901 0.0
H1769 H 0.0179 0.27225 0.76832 0.0
C1770 C 0.99113 0.24234 0.73985 0.0
C1771 C 0.01866 0.25293 0.74894 0.0
C1772 C 0.03777 0.25328 0.74792 0.0
C1773 C 0.98287 0.25352 0.75102 0.0
C1774 C 0.99266 0.26412 0.76171 0.0
C1775 C 0.01041 0.264 0.76022 0.0
C1776 C 0.9848 0.27458 0.77526 0.0
C1777 C 0.96374 0.25374 0.75146 0.0
C1778 C 0.98671 0.29229 0.77538 0.0
C1779 C 0.98013 0.30197 0.78878 0.0
C1780 C 0.97172 0.29407 0.80243 0.0
C1781 C 0.96971 0.27632 0.80212 0.0
C1782 C 0.97619 0.2667 0.78869 0.0
H1783 H 0.95822 0.2487 0.7395 0.0
H1784 H 0.95927 0.24563 0.76206 0.0
H1785 H 0.95887 0.2668 0.75357 0.0
H1786 H 0.99343 0.29861 0.76518 0.0
H1787 H 0.98199 0.31559 0.78861 0.0
H1788 H 0.78741 0.01873 0.68453 0.0
H1789 H 0.76365 0.00715 0.70094 0.0
H1790 H 0.78524 0.02769 0.74683 0.0
H1791 H 0.80888 0.03934 0.73066 0.0
H1792 H 0.76629 0.98351 0.72766 0.0
H1793 H 0.7354 0.0427 0.74951 0.0
H1794 H 0.75014 0.04221 0.73196 0.0
H1795 H 0.75783 0.04245 0.75346 0.0
C1796 C 0.78699 0.021 0.69808 0.0
C1797 C 0.80011 0.02998 0.70625 0.0
C1798 C 0.77341 0.01433 0.70744 0.0
C1799 C 0.77257 0.01673 0.72507 0.0
C1800 C 0.78546 0.02595 0.73319 0.0
H1801 H 0.73256 0.96184 0.8081 0.0
H1802 H 0.74838 0.97325 0.78412 0.0
C1803 C 0.79905 0.03251 0.7239 0.0
C1804 C 0.75894 0.0087 0.7353 0.0
H1805 H 0.72888 0.01741 0.76528 0.0
C1806 C 0.75791 0.99092 0.73568 0.0
C1807 C 0.74785 0.01836 0.74559 0.0
C1808 C 0.74771 0.0375 0.74502 0.0
C1809 C 0.74677 0.98254 0.7468 0.0
C1810 C 0.73654 0.99221 0.75794 0.0
C1811 C 0.73685 0.00999 0.75685 0.0
C1812 C 0.72647 0.9842 0.77172 0.0
C1813 C 0.74626 0.96341 0.74672 0.0
C1814 C 0.70886 0.98666 0.77282 0.0
C1815 C 0.6997 0.98014 0.7866 0.0
C1816 C 0.70805 0.97124 0.79967 0.0
C1817 C 0.72567 0.9686 0.79832 0.0
C1818 C 0.73475 0.97502 0.78453 0.0
H1819 H 0.75059 0.95819 0.73436 0.0
H1820 H 0.75487 0.95852 0.75673 0.0
H1821 H 0.73326 0.95865 0.74936 0.0
H1822 H 0.70224 0.99382 0.76312 0.0
H1823 H 0.68617 0.98248 0.78724 0.0
H1824 H 0.19769 0.27233 0.95572 0.0
H1825 H 0.22065 0.25541 0.96787 0.0
H1826 H 0.23235 0.29602 0.00267 0.0
H1827 H 0.20985 0.31336 0.98999 0.0
H1828 H 0.26079 0.28105 0.99246 0.0
H1829 H 0.21532 0.23132 0.01205 0.0
H1830 H 0.21497 0.23454 0.98954 0.0
H1831 H 0.20849 0.25142 0.00356 0.0
C1832 C 0.20526 0.27773 0.96585 0.0
C1833 C 0.20182 0.29411 0.97203 0.0
C1834 C 0.21831 0.26799 0.97288 0.0
C1835 C 0.2279 0.2742 0.98657 0.0
C1836 C 0.22504 0.29087 0.99223 0.0
H1837 H 0.27986 0.20236 0.05206 0.0
H1838 H 0.26189 0.22512 0.04109 0.0
C1839 C 0.21217 0.30078 0.98496 0.0
C1840 C 0.24041 0.26307 0.99535 0.0
H1841 H 0.24458 0.2242 0.01399 0.0
C1842 C 0.25724 0.26866 0.99729 0.0
C1843 C 0.23573 0.24706 0.00204 0.0
C1844 C 0.21761 0.24081 0.00187 0.0
C1845 C 0.26956 0.25852 0.00535 0.0
C1846 C 0.26506 0.2421 0.01115 0.0
C1847 C 0.24816 0.2367 0.00946 0.0
C1848 C 0.27748 0.23015 0.01901 0.0
C1849 C 0.28712 0.26572 0.00786 0.0
C1850 C 0.29255 0.22563 0.01058 0.0
C1851 C 0.3031 0.21288 0.01712 0.0
C1852 C 0.2985 0.20407 0.03193 0.0
C1853 C 0.28369 0.2089 0.04058 0.0
C1854 C 0.27339 0.22189 0.03428 0.0
H1855 H 0.28687 0.27982 0.00823 0.0
H1856 H 0.29297 0.26102 0.01978 0.0
H1857 H 0.29527 0.26189 0.99704 0.0
H1858 H 0.29582 0.23139 0.99855 0.0
H1859 H 0.31433 0.20926 0.01006 0.0
H1860 H 0.18837 0.73147 0.03454 0.0
H1861 H 0.21182 0.74805 0.02318 0.0
H1862 H 0.23915 0.70207 0.0117 0.0
H1863 H 0.21554 0.68519 0.02292 0.0
H1864 H 0.24621 0.74904 0.03271 0.0
H1865 H 0.23789 0.72745 0.96593 0.0
H1866 H 0.22189 0.72405 0.98196 0.0
H1867 H 0.24067 0.71116 0.98166 0.0
C1868 C 0.19935 0.72479 0.02967 0.0
C1869 C 0.19995 0.70692 0.02956 0.0
C1870 C 0.21278 0.73434 0.02319 0.0
C1871 C 0.22714 0.72632 0.0164 0.0
C1872 C 0.22806 0.70852 0.01663 0.0
H1873 H 0.3156 0.78756 0.98476 0.0
H1874 H 0.29879 0.76414 0.99652 0.0
C1875 C 0.21457 0.6989 0.02313 0.0
C1876 C 0.24087 0.73681 0.00888 0.0
H1877 H 0.25897 0.74797 0.97107 0.0
C1878 C 0.2492 0.74865 0.01928 0.0
C1879 C 0.24462 0.73634 0.99132 0.0
C1880 C 0.23576 0.72418 0.97947 0.0
C1881 C 0.26085 0.76032 0.01252 0.0
C1882 C 0.2643 0.76009 0.99492 0.0
C1883 C 0.25634 0.74799 0.98457 0.0
C1884 C 0.27484 0.77342 0.98686 0.0
C1885 C 0.26881 0.77336 0.02406 0.0
C1886 C 0.26695 0.78615 0.97727 0.0
C1887 C 0.27645 0.79956 0.97062 0.0
C1888 C 0.29409 0.80045 0.9733 0.0
C1889 C 0.30205 0.78731 0.98245 0.0
C1890 C 0.29248 0.77393 0.98922 0.0
H1891 H 0.26362 0.7728 0.03715 0.0
H1892 H 0.28272 0.77121 0.02467 0.0
H1893 H 0.26671 0.78631 0.0189 0.0
H1894 H 0.25335 0.78595 0.97531 0.0
H1895 H 0.26988 0.80936 0.96358 0.0
H1896 H 0.81026 0.26937 0.03903 0.0
H1897 H 0.78703 0.25259 0.02738 0.0
H1898 H 0.76347 0.29807 0.00817 0.0
H1899 H 0.7868 0.31511 0.01974 0.0
H1900 H 0.75106 0.25476 0.03305 0.0
H1901 H 0.76929 0.2669 0.96585 0.0
H1902 H 0.78351 0.27105 0.98334 0.0
H1903 H 0.76615 0.28518 0.97917 0.0
C1904 C 0.80014 0.2759 0.03241 0.0
C1905 C 0.80053 0.29363 0.03022 0.0
C1906 C 0.78682 0.26625 0.02579 0.0
C1907 C 0.77364 0.27405 0.01674 0.0
C1908 C 0.77365 0.29178 0.01493 0.0
H1909 H 0.68519 0.21408 0.98281 0.0
H1910 H 0.70227 0.23731 0.99453 0.0
C1911 C 0.78697 0.30149 0.02162 0.0
C1912 C 0.76027 0.26339 0.00884 0.0
H1913 H 0.74625 0.24855 0.97057 0.0
C1914 C 0.74982 0.25355 0.01939 0.0
C1915 C 0.75883 0.26174 0.99101 0.0
C1916 C 0.77008 0.27166 0.9791 0.0
C1917 C 0.73822 0.24182 0.0126 0.0
C1918 C 0.73698 0.23998 0.99478 0.0
C1919 C 0.74716 0.2501 0.98422 0.0
C1920 C 0.72636 0.22656 0.98693 0.0
C1921 C 0.72792 0.23095 0.02452 0.0
C1922 C 0.73421 0.21305 0.97841 0.0
C1923 C 0.72454 0.19979 0.97171 0.0
C1924 C 0.70674 0.19978 0.97328 0.0
C1925 C 0.69885 0.21362 0.9814 0.0
C1926 C 0.70859 0.22688 0.98818 0.0
H1927 H 0.73232 0.23205 0.03787 0.0
H1928 H 0.71443 0.23495 0.02398 0.0
H1929 H 0.72856 0.21741 0.02064 0.0
H1930 H 0.7479 0.21259 0.97726 0.0
H1931 H 0.73109 0.18944 0.96548 0.0
H1932 H 0.8032 0.72827 0.95152 0.0
H1933 H 0.78088 0.746 0.96375 0.0
H1934 H 0.77231 0.70847 0.00269 0.0
H1935 H 0.79404 0.69026 0.98991 0.0
H1936 H 0.7432 0.72227 0.99388 0.0
H1937 H 0.78932 0.77403 0.00482 0.0
H1938 H 0.78771 0.76885 0.98274 0.0
H1939 H 0.79574 0.75334 0.99752 0.0
C1940 C 0.7964 0.72371 0.96257 0.0
C1941 C 0.80049 0.70797 0.96988 0.0
C1942 C 0.78374 0.73392 0.96965 0.0
C1943 C 0.7753 0.72887 0.98451 0.0
C1944 C 0.77875 0.71275 0.99133 0.0
H1945 H 0.72807 0.80483 0.04892 0.0
H1946 H 0.74574 0.78206 0.03751 0.0
C1947 C 0.79116 0.70233 0.984 0.0
C1948 C 0.76341 0.74066 0.99329 0.0
H1949 H 0.76025 0.78096 0.00883 0.0
C1950 C 0.74695 0.73508 0.99726 0.0
C1951 C 0.76839 0.75725 0.9981 0.0
C1952 C 0.78631 0.76366 0.99575 0.0
C1953 C 0.73526 0.74573 0.00557 0.0
C1954 C 0.73996 0.76264 0.0095 0.0
C1955 C 0.75651 0.76808 0.00573 0.0
C1956 C 0.72814 0.77502 0.01759 0.0
C1957 C 0.71818 0.73854 0.0104 0.0
C1958 C 0.71216 0.77852 0.01046 0.0
C1959 C 0.70183 0.79129 0.01728 0.0
C1960 C 0.70752 0.80116 0.03102 0.0
C1961 C 0.72338 0.79749 0.03828 0.0
C1962 C 0.7335 0.78448 0.03174 0.0
H1963 H 0.71875 0.72453 0.01189 0.0
H1964 H 0.71345 0.74413 0.02244 0.0
H1965 H 0.70891 0.74136 1.00018 0.0
H1966 H 0.70788 0.77183 0.99926 0.0
H1967 H 0.68975 0.79398 0.01128 0.0
H1968 H 0.48072 0.71574 0.81499 0.0
H1969 H 0.49217 0.73938 0.79832 0.0
H1970 H 0.4736 0.71612 0.75241 0.0
H1971 H 0.46207 0.6926 0.76883 0.0
H1972 H 0.51665 0.73678 0.77242 0.0
H1973 H 0.45729 0.76536 0.74794 0.0
H1974 H 0.45763 0.751 0.76582 0.0
H1975 H 0.45843 0.74287 0.7445 0.0
C1976 C 0.47885 0.71576 0.80137 0.0
C1977 C 0.47045 0.70221 0.79328 0.0
C1978 C 0.48544 0.72927 0.79187 0.0
C1979 C 0.48355 0.72962 0.77415 0.0
C1980 C 0.47492 0.7163 0.7661 0.0
H1981 H 0.53992 0.77138 0.69233 0.0
H1982 H 0.52792 0.75483 0.71557 0.0
C1983 C 0.46842 0.70277 0.77553 0.0
C1984 C 0.49152 0.74322 0.76383 0.0
H1985 H 0.48291 0.7726 0.73313 0.0
C1986 C 0.50926 0.7448 0.76402 0.0
C1987 C 0.48187 0.75382 0.753 0.0
C1988 C 0.46273 0.75333 0.75289 0.0
C1989 C 0.51766 0.75606 0.75303 0.0
C1990 C 0.50805 0.76587 0.74146 0.0
C1991 C 0.49027 0.76495 0.74189 0.0
C1992 C 0.51622 0.77629 0.72806 0.0
C1993 C 0.53675 0.75719 0.75371 0.0
C1994 C 0.51354 0.79388 0.72728 0.0
C1995 C 0.52042 0.80346 0.71397 0.0
C1996 C 0.52991 0.79555 0.70104 0.0
C1997 C 0.5327 0.77793 0.70203 0.0
C1998 C 0.52593 0.76843 0.71538 0.0
H1999 H 0.54176 0.75274 0.76612 0.0
H2000 H 0.54223 0.74903 0.74363 0.0
H2001 H 0.54111 0.77041 0.75152 0.0
H2002 H 0.50598 0.80018 0.73689 0.0
H2003 H 0.51794 0.81697 0.7136 0.0
H2004 H 0.31242 0.46447 0.77059 0.0
H2005 H 0.28939 0.4763 0.75364 0.0
H2006 H 0.26484 0.4943 0.79909 0.0
H2007 H 0.28795 0.48254 0.8163 0.0
H2008 H 0.25332 0.4702 0.75525 0.0
H2009 H 0.27092 0.53732 0.76871 0.0
H2010 H 0.28525 0.51988 0.77265 0.0
H2011 H 0.26773 0.52361 0.7867 0.0
C2012 C 0.30212 0.47086 0.77707 0.0
C2013 C 0.30216 0.47264 0.79485 0.0
C2014 C 0.28893 0.47759 0.76733 0.0
C2015 C 0.27553 0.48635 0.77508 0.0
C2016 C 0.2752 0.48777 0.79284 0.0
H2017 H 0.18778 0.52021 0.71411 0.0
H2018 H 0.20456 0.50863 0.73762 0.0
C2019 C 0.28838 0.48095 0.80266 0.0
C2020 C 0.26226 0.49433 0.76436 0.0
H2021 H 0.24823 0.53272 0.74987 0.0
C2022 C 0.25202 0.48386 0.75422 0.0
C2023 C 0.26074 0.51217 0.76295 0.0
C2024 C 0.27178 0.52398 0.77322 0.0
C2025 C 0.24055 0.49075 0.74243 0.0
C2026 C 0.23923 0.50859 0.74083 0.0
C2027 C 0.2492 0.51906 0.75124 0.0
C2028 C 0.22875 0.51655 0.72735 0.0
C2029 C 0.23048 0.47893 0.73122 0.0
C2030 C 0.23675 0.52525 0.71405 0.0
C2031 C 0.22725 0.53187 0.70063 0.0
C2032 C 0.20948 0.53004 0.70025 0.0
C2033 C 0.20143 0.52182 0.71393 0.0
C2034 C 0.211 0.51512 0.72735 0.0
H2035 H 0.23496 0.46559 0.73218 0.0
H2036 H 0.21693 0.4793 0.73505 0.0
H2037 H 0.23127 0.48301 0.71776 0.0
H2038 H 0.25044 0.52654 0.71384 0.0
H2039 H 0.23391 0.5382 0.69041 0.0
H2040 H 0.51109 0.29519 0.81001 0.0
H2041 H 0.4993 0.27299 0.7918 0.0
H2042 H 0.53849 0.28257 0.75474 0.0
H2043 H 0.54964 0.30543 0.77247 0.0
H2044 H 0.51032 0.2814 0.73948 0.0
H2045 H 0.51165 0.22552 0.7818 0.0
H2046 H 0.49982 0.24255 0.79112 0.0
H2047 H 0.52221 0.2451 0.78718 0.0
C2048 C 0.51734 0.29234 0.7981 0.0
C2049 C 0.53127 0.30205 0.79265 0.0
C2050 C 0.51066 0.27954 0.78773 0.0
C2051 C 0.51811 0.27583 0.77193 0.0
C2052 C 0.53245 0.28514 0.76683 0.0
H2053 H 0.49075 0.18999 0.70725 0.0
H2054 H 0.50338 0.20865 0.72868 0.0
C2055 C 0.53886 0.29819 0.77698 0.0
C2056 C 0.51021 0.26337 0.76006 0.0
H2057 H 0.49417 0.22317 0.75698 0.0
C2058 C 0.50696 0.26861 0.74332 0.0
C2059 C 0.50596 0.24657 0.76488 0.0
C2060 C 0.51026 0.23955 0.78217 0.0
C2061 C 0.49953 0.2577 0.73138 0.0
C2062 C 0.49437 0.24124 0.73646 0.0
C2063 C 0.49782 0.23587 0.75312 0.0
C2064 C 0.48578 0.22935 0.72452 0.0
C2065 C 0.4978 0.26386 0.71331 0.0
C2066 C 0.47129 0.23445 0.71545 0.0
C2067 C 0.46432 0.22398 0.70294 0.0
C2068 C 0.47132 0.20792 0.69964 0.0
C2069 C 0.48508 0.20231 0.70952 0.0
C2070 C 0.49231 0.21297 0.72177 0.0
H2071 H 0.50715 0.274 0.7104 0.0
H2072 H 0.49963 0.25336 0.70408 0.0
H2073 H 0.48494 0.26929 0.71146 0.0
H2074 H 0.46557 0.24673 0.71777 0.0
H2075 H 0.45355 0.22853 0.69571 0.0
H2076 H 0.81273 0.47626 0.71611 0.0
H2077 H 0.79547 0.48695 0.7397 0.0
H2078 H 0.75038 0.48157 0.70917 0.0
H2079 H 0.7673 0.47066 0.68579 0.0
H2080 H 0.77492 0.51523 0.74105 0.0
H2081 H 0.73644 0.45768 0.75236 0.0
H2082 H 0.75554 0.45735 0.73972 0.0
H2083 H 0.73572 0.46409 0.73054 0.0
C2084 C 0.79912 0.4772 0.71447 0.0
C2085 C 0.79144 0.47246 0.69903 0.0
C2086 C 0.78928 0.48333 0.72797 0.0
C2087 C 0.77159 0.48475 0.72633 0.0
C2088 C 0.76394 0.48015 0.71092 0.0
H2089 H 0.68661 0.53376 0.7687 0.0
H2090 H 0.70959 0.52132 0.75214 0.0
C2091 C 0.77371 0.47399 0.69749 0.0
C2092 C 0.76101 0.49171 0.74032 0.0
H2093 H 0.72489 0.48397 0.76302 0.0
C2094 C 0.76419 0.50828 0.74611 0.0
C2095 C 0.74705 0.48259 0.74703 0.0
C2096 C 0.74359 0.46438 0.74222 0.0
C2097 C 0.75319 0.51628 0.75767 0.0
C2098 C 0.73872 0.50749 0.76352 0.0
C2099 C 0.73597 0.49069 0.75838 0.0
C2100 C 0.7255 0.51596 0.77382 0.0
C2101 C 0.75658 0.53432 0.76305 0.0
C2102 C 0.72695 0.51716 0.79152 0.0
C2103 C 0.71376 0.52426 0.80113 0.0
C2104 C 0.69891 0.53025 0.79316 0.0
C2105 C 0.69779 0.52931 0.77534 0.0
C2106 C 0.71092 0.52219 0.7658 0.0
H2107 H 0.76855 0.53936 0.75757 0.0
H2108 H 0.74589 0.54255 0.75899 0.0
H2109 H 0.75736 0.53501 0.7771 0.0
H2110 H 0.73814 0.51235 0.7979 0.0
H2111 H 0.71509 0.52478 0.8148 0.0
H2112 H 0.51725 0.18609 0.28818 0.0
H2113 H 0.50573 0.20318 0.26484 0.0
H2114 H 0.53071 0.24753 0.28491 0.0
H2115 H 0.54228 0.23068 0.30813 0.0
H2116 H 0.48429 0.23179 0.26885 0.0
H2117 H 0.543 0.24877 0.23414 0.0
H2118 H 0.54202 0.23131 0.24897 0.0
H2119 H 0.54434 0.25272 0.25655 0.0
C2120 C 0.52051 0.19943 0.28749 0.0
C2121 C 0.53068 0.20699 0.30009 0.0
C2122 C 0.51388 0.20917 0.27416 0.0
C2123 C 0.51752 0.22658 0.27304 0.0
C2124 C 0.52798 0.23406 0.28534 0.0
H2125 H 0.46585 0.31261 0.23326 0.0
H2126 H 0.47719 0.28892 0.24965 0.0
C2127 C 0.53449 0.2244 0.2987 0.0
C2128 C 0.50947 0.23733 0.25981 0.0
H2129 H 0.51854 0.26608 0.22865 0.0
C2130 C 0.49175 0.2391 0.25988 0.0
C2131 C 0.51919 0.24672 0.24799 0.0
C2132 C 0.53818 0.24469 0.24675 0.0
C2133 C 0.48357 0.25066 0.24904 0.0
C2134 C 0.49339 0.26082 0.23797 0.0
C2135 C 0.51103 0.25841 0.23727 0.0
C2136 C 0.48574 0.27471 0.22777 0.0
C2137 C 0.46449 0.25207 0.24969 0.0
C2138 C 0.48695 0.2747 0.21 0.0
C2139 C 0.48046 0.28828 0.20053 0.0
C2140 C 0.47284 0.30225 0.20868 0.0
C2141 C 0.47158 0.3021 0.22651 0.0
C2142 C 0.47798 0.2885 0.23593 0.0
H2143 H 0.45862 0.24038 0.25495 0.0
H2144 H 0.46093 0.26284 0.25803 0.0
H2145 H 0.45914 0.25447 0.23687 0.0
H2146 H 0.493 0.26423 0.20346 0.0
H2147 H 0.48173 0.28797 0.18684 0.0
H2148 H 0.77176 0.53445 0.31492 0.0
H2149 H 0.75479 0.52309 0.29173 0.0
H2150 H 0.80027 0.51274 0.26315 0.0
H2151 H 0.81753 0.52393 0.28649 0.0
H2152 H 0.7525 0.53277 0.25762 0.0
H2153 H 0.77613 0.46652 0.26436 0.0
H2154 H 0.77972 0.48248 0.2804 0.0
H2155 H 0.79197 0.48263 0.26118 0.0
C2156 C 0.77825 0.52983 0.30372 0.0
C2157 C 0.79609 0.53 0.3027 0.0
C2158 C 0.76847 0.52335 0.29043 0.0
C2159 C 0.77625 0.51685 0.2758 0.0
C2160 C 0.79401 0.51741 0.27446 0.0
H2161 H 0.71501 0.48339 0.18793 0.0
H2162 H 0.73835 0.4956 0.20458 0.0
C2163 C 0.80385 0.52389 0.2878 0.0
C2164 C 0.76557 0.50923 0.26225 0.0
H2165 H 0.7551 0.47141 0.24372 0.0
C2166 C 0.75322 0.51941 0.2544 0.0
C2167 C 0.76647 0.49175 0.25816 0.0
C2168 C 0.77918 0.48012 0.26651 0.0
C2169 C 0.74149 0.5125 0.24288 0.0
C2170 C 0.74216 0.49498 0.2391 0.0
C2171 C 0.75475 0.48487 0.24659 0.0
C2172 C 0.72884 0.48673 0.22873 0.0
C2173 C 0.72795 0.52375 0.23536 0.0
C2174 C 0.71598 0.47748 0.23681 0.0
C2175 C 0.70263 0.47058 0.22742 0.0
C2176 C 0.7019 0.47267 0.20968 0.0
C2177 C 0.71515 0.48151 0.20155 0.0
C2178 C 0.72848 0.48853 0.21102 0.0
H2179 H 0.72865 0.53696 0.24023 0.0
H2180 H 0.72931 0.52404 0.22135 0.0
H2181 H 0.7152 0.51851 0.23829 0.0
H2182 H 0.71607 0.47596 0.25048 0.0
H2183 H 0.69273 0.46381 0.23414 0.0
H2184 H 0.51107 0.70726 0.19039 0.0
H2185 H 0.49925 0.72928 0.20881 0.0
H2186 H 0.53805 0.71893 0.24609 0.0
H2187 H 0.54922 0.69625 0.22814 0.0
H2188 H 0.50979 0.72012 0.26112 0.0
H2189 H 0.5118 0.77652 0.21953 0.0
H2190 H 0.49993 0.75969 0.20989 0.0
H2191 H 0.52228 0.75694 0.21399 0.0
C2192 C 0.51723 0.7099 0.2024 0.0
C2193 C 0.53106 0.70004 0.20784 0.0
C2194 C 0.51053 0.7226 0.21289 0.0
C2195 C 0.51787 0.72605 0.2288 0.0
C2196 C 0.5321 0.71657 0.23392 0.0
H2197 H 0.49037 0.8111 0.29456 0.0
H2198 H 0.50311 0.79276 0.2729 0.0
C2199 C 0.53852 0.70361 0.22364 0.0
C2200 C 0.50996 0.73841 0.24077 0.0
H2201 H 0.49411 0.77866 0.24423 0.0
C2202 C 0.50654 0.73298 0.25741 0.0
C2203 C 0.50584 0.75529 0.23613 0.0
C2204 C 0.51033 0.7625 0.21897 0.0
C2205 C 0.49907 0.74378 0.26943 0.0
C2206 C 0.49403 0.76033 0.26451 0.0
C2207 C 0.49766 0.7659 0.24795 0.0
C2208 C 0.48536 0.77209 0.27651 0.0
C2209 C 0.49715 0.73741 0.2874 0.0
C2210 C 0.47074 0.76691 0.28532 0.0
C2211 C 0.4637 0.77719 0.29794 0.0
C2212 C 0.47077 0.79314 0.30163 0.0
C2213 C 0.48465 0.79887 0.29199 0.0
C2214 C 0.49194 0.78838 0.27962 0.0
H2215 H 0.50643 0.72718 0.29027 0.0
H2216 H 0.49895 0.74778 0.29678 0.0
H2217 H 0.48426 0.73201 0.28906 0.0
H2218 H 0.465 0.7547 0.28272 0.0
H2219 H 0.45285 0.77256 0.30499 0.0
H2220 H 0.31185 0.53348 0.23404 0.0
H2221 H 0.28816 0.52185 0.25001 0.0
H2222 H 0.26042 0.5138 0.20353 0.0
H2223 H 0.28436 0.5252 0.18723 0.0
H2224 H 0.2547 0.53195 0.25235 0.0
H2225 H 0.25968 0.46677 0.22549 0.0
H2226 H 0.27612 0.48246 0.22262 0.0
H2227 H 0.25688 0.4837 0.21047 0.0
C2228 C 0.30073 0.52932 0.22711 0.0
C2229 C 0.30013 0.5302 0.20927 0.0
C2230 C 0.28715 0.52268 0.23632 0.0
C2231 C 0.2726 0.51672 0.22798 0.0
C2232 C 0.27166 0.51801 0.21022 0.0
H2233 H 0.18434 0.48213 0.28804 0.0
H2234 H 0.2009 0.49456 0.26478 0.0
C2235 C 0.28533 0.52463 0.20093 0.0
C2236 C 0.25872 0.50897 0.23812 0.0
H2237 H 0.23933 0.47114 0.2469 0.0
C2238 C 0.25114 0.51873 0.25098 0.0
C2239 C 0.25418 0.49166 0.23639 0.0
C2240 C 0.26218 0.48044 0.2231 0.0
C2241 C 0.23956 0.51153 0.26245 0.0
C2242 C 0.2354 0.49416 0.26099 0.0
C2243 C 0.24251 0.4845 0.24785 0.0
C2244 C 0.22507 0.48554 0.27409 0.0
C2245 C 0.23243 0.52228 0.2766 0.0
C2246 C 0.23319 0.47613 0.2868 0.0
C2247 C 0.22385 0.4691 0.30013 0.0
C2248 C 0.20613 0.47125 0.30097 0.0
C2249 C 0.19795 0.4802 0.28782 0.0
C2250 C 0.20736 0.48734 0.27452 0.0
H2251 H 0.23728 0.53551 0.27625 0.0
H2252 H 0.21838 0.5226 0.27568 0.0
H2253 H 0.23575 0.51657 0.28905 0.0
H2254 H 0.24686 0.47463 0.28667 0.0
H2255 H 0.23061 0.46225 0.30995 0.0
H2256 H 0.76853 0.68579 0.52861 0.0
H2257 H 0.75183 0.70923 0.51745 0.0
H2258 H 0.79681 0.74025 0.51456 0.0
H2259 H 0.81385 0.7166 0.52547 0.0
H2260 H 0.74667 0.74106 0.53025 0.0
H2261 H 0.77747 0.74473 0.46679 0.0
H2262 H 0.7807 0.72703 0.48096 0.0
H2263 H 0.7914 0.7468 0.48473 0.0
C2264 C 0.77497 0.69756 0.52564 0.0
C2265 C 0.79262 0.69921 0.5279 0.0
C2266 C 0.76535 0.71099 0.51924 0.0
C2267 C 0.77307 0.72644 0.51494 0.0
C2268 C 0.79062 0.72833 0.51745 0.0
H2269 H 0.71533 0.8155 0.47778 0.0
H2270 H 0.73854 0.79847 0.48979 0.0
C2271 C 0.80033 0.71482 0.5238 0.0
C2272 C 0.76247 0.74041 0.50796 0.0
H2273 H 0.7549 0.76365 0.47205 0.0
C2274 C 0.74861 0.74613 0.5176 0.0
C2275 C 0.76499 0.74704 0.49142 0.0
C2276 C 0.77935 0.74104 0.48027 0.0
C2277 C 0.73694 0.75785 0.511 0.0
C2278 C 0.73916 0.76403 0.49433 0.0
C2279 C 0.75334 0.7589 0.48487 0.0
C2280 C 0.72588 0.77442 0.48604 0.0
C2281 C 0.72196 0.7632 0.52164 0.0
C2282 C 0.7113 0.76647 0.47974 0.0
C2283 C 0.6981 0.77607 0.47285 0.0
C2284 C 0.69915 0.7939 0.47216 0.0
C2285 C 0.71405 0.80182 0.47811 0.0
C2286 C 0.72733 0.79213 0.48497 0.0
H2287 H 0.72336 0.7593 0.53512 0.0
H2288 H 0.7203 0.77719 0.52108 0.0
H2289 H 0.71026 0.7573 0.51648 0.0
H2290 H 0.71 0.75279 0.48043 0.0
H2291 H 0.6869 0.76946 0.4684 0.0
H2292 H 0.69125 0.23151 0.53788 0.0
H2293 H 0.71476 0.24773 0.52606 0.0
H2294 H 0.73822 0.2015 0.5086 0.0
H2295 H 0.71456 0.18502 0.52029 0.0
H2296 H 0.75026 0.24593 0.53219 0.0
H2297 H 0.73352 0.23083 0.46521 0.0
H2298 H 0.71904 0.22713 0.48257 0.0
H2299 H 0.73669 0.21312 0.47925 0.0
C2300 C 0.70141 0.2247 0.53162 0.0
C2301 C 0.70088 0.20692 0.52993 0.0
C2302 C 0.71489 0.23403 0.5249 0.0
C2303 C 0.72812 0.22585 0.51626 0.0
C2304 C 0.72799 0.20808 0.515 0.0
H2305 H 0.81596 0.28683 0.48223 0.0
H2306 H 0.79949 0.2632 0.49403 0.0
C2307 C 0.71449 0.19868 0.52177 0.0
C2308 C 0.74164 0.23619 0.50819 0.0
H2309 H 0.75624 0.24962 0.46963 0.0
C2310 C 0.75177 0.24658 0.51853 0.0
C2311 C 0.74344 0.23709 0.49034 0.0
C2312 C 0.73256 0.22656 0.47861 0.0
C2313 C 0.76332 0.2582 0.51149 0.0
C2314 C 0.76487 0.25934 0.49364 0.0
C2315 C 0.7551 0.24861 0.48331 0.0
C2316 C 0.77523 0.27278 0.48547 0.0
C2317 C 0.77316 0.26976 0.52317 0.0
C2318 C 0.76711 0.2857 0.47632 0.0
C2319 C 0.77643 0.29917 0.46957 0.0
C2320 C 0.79414 0.29999 0.47173 0.0
C2321 C 0.80235 0.28665 0.48036 0.0
C2322 C 0.79296 0.27318 0.4872 0.0
H2323 H 0.76853 0.26909 0.53647 0.0
H2324 H 0.78674 0.26602 0.52305 0.0
H2325 H 0.77232 0.28311 0.51875 0.0
H2326 H 0.75344 0.2856 0.4748 0.0
H2327 H 0.76965 0.30911 0.46292 0.0
H2328 H 0.30534 0.77319 0.54889 0.0
H2329 H 0.28317 0.75529 0.53664 0.0
H2330 H 0.27242 0.79393 0.49937 0.0
H2331 H 0.29402 0.81228 0.51218 0.0
H2332 H 0.24397 0.7792 0.5086 0.0
H2333 H 0.29068 0.72882 0.4944 0.0
H2334 H 0.28978 0.73319 0.51669 0.0
H2335 H 0.29694 0.74937 0.50219 0.0
C2336 C 0.29811 0.77795 0.5382 0.0
C2337 C 0.30154 0.79407 0.53138 0.0
C2338 C 0.28554 0.76764 0.53111 0.0
C2339 C 0.2765 0.77299 0.5167 0.0
C2340 C 0.27932 0.78943 0.51038 0.0
H2341 H 0.22822 0.69758 0.45217 0.0
H2342 H 0.24599 0.72037 0.46341 0.0
C2343 C 0.29166 0.79992 0.51772 0.0
C2344 C 0.26455 0.76123 0.50793 0.0
H2345 H 0.2616 0.72131 0.49137 0.0
C2346 C 0.24784 0.76658 0.50472 0.0
C2347 C 0.26968 0.74489 0.50245 0.0
C2348 C 0.28779 0.7388 0.50393 0.0
C2349 C 0.23606 0.75593 0.49654 0.0
C2350 C 0.24092 0.73921 0.49198 0.0
C2351 C 0.25772 0.73402 0.49496 0.0
C2352 C 0.22902 0.72679 0.48407 0.0
C2353 C 0.21869 0.76292 0.49252 0.0
C2354 C 0.21334 0.72291 0.49167 0.0
C2355 C 0.20293 0.71015 0.48495 0.0
C2356 C 0.20825 0.70065 0.47082 0.0
C2357 C 0.22382 0.70465 0.46311 0.0
C2358 C 0.23399 0.71767 0.46956 0.0
H2359 H 0.21897 0.77696 0.49131 0.0
H2360 H 0.21357 0.75749 0.48057 0.0
H2361 H 0.20988 0.75975 0.50304 0.0
H2362 H 0.20937 0.72931 0.50316 0.0
H2363 H 0.19111 0.70719 0.4913 0.0
H2364 H 0.23176 0.31224 0.5374 0.0
H2365 H 0.24838 0.28895 0.52567 0.0
H2366 H 0.20243 0.26346 0.51047 0.0
H2367 H 0.18555 0.28688 0.52207 0.0
H2368 H 0.24791 0.25371 0.53312 0.0
H2369 H 0.23026 0.26734 0.46606 0.0
H2370 H 0.22661 0.28236 0.48297 0.0
H2371 H 0.21307 0.26419 0.48073 0.0
C2372 C 0.2251 0.30169 0.53164 0.0
C2373 C 0.20726 0.30156 0.53058 0.0
C2374 C 0.23466 0.28834 0.52497 0.0
C2375 C 0.22666 0.27459 0.51701 0.0
C2376 C 0.20887 0.2741 0.51633 0.0
H2377 H 0.28784 0.18655 0.48404 0.0
H2378 H 0.2644 0.20324 0.49593 0.0
C2379 C 0.19924 0.28747 0.52305 0.0
C2380 C 0.23717 0.26108 0.50912 0.0
H2381 H 0.24971 0.2452 0.47075 0.0
C2382 C 0.24816 0.25166 0.51951 0.0
C2383 C 0.23754 0.25857 0.49134 0.0
C2384 C 0.22635 0.26869 0.47954 0.0
C2385 C 0.25981 0.24008 0.51256 0.0
C2386 C 0.26038 0.2378 0.49476 0.0
C2387 C 0.24912 0.2469 0.4844 0.0
C2388 C 0.27372 0.22731 0.48661 0.0
C2389 C 0.27196 0.23095 0.52421 0.0
C2390 C 0.28645 0.23527 0.47706 0.0
C2391 C 0.29983 0.22583 0.4703 0.0
C2392 C 0.30073 0.20816 0.47282 0.0
C2393 C 0.28758 0.20012 0.48187 0.0
C2394 C 0.27421 0.20963 0.48874 0.0
H2395 H 0.27149 0.23596 0.53738 0.0
H2396 H 0.26868 0.21726 0.52456 0.0
H2397 H 0.28516 0.23209 0.51941 0.0
H2398 H 0.28627 0.24889 0.47523 0.0
H2399 H 0.30963 0.23246 0.46331 0.0
H2400 H 0.07283 0.3121 0.13024 0.0
H2401 H 0.08781 0.31187 0.103 0.0
H2402 H 0.0785 0.36549 0.09729 0.0
H2403 H 0.06338 0.3658 0.12442 0.0
H2404 H 0.07135 0.34683 0.06811 0.0
H2405 H 0.13524 0.33121 0.09323 0.0
H2406 H 0.11892 0.31673 0.09983 0.0
H2407 H 0.11814 0.3385 0.10663 0.0
C2408 C 0.07401 0.32384 0.1232 0.0
C2409 C 0.067 0.33898 0.12951 0.0
C2410 C 0.08266 0.32371 0.10769 0.0
C2411 C 0.08452 0.33872 0.09826 0.0
C2412 C 0.07731 0.3538 0.10442 0.0
H2413 H 0.1517 0.34869 0.00999 0.0
H2414 H 0.1375 0.35345 0.03728 0.0
C2415 C 0.06868 0.35394 0.11993 0.0
C2416 C 0.09357 0.33862 0.08175 0.0
H2417 H 0.13167 0.32943 0.06323 0.0
C2418 C 0.08457 0.34314 0.06705 0.0
C2419 C 0.11089 0.33408 0.08042 0.0
C2420 C 0.12144 0.33001 0.09588 0.0
C2421 C 0.09227 0.34267 0.05099 0.0
C2422 C 0.10936 0.33734 0.04958 0.0
C2423 C 0.11853 0.33339 0.06433 0.0
C2424 C 0.11767 0.33499 0.03285 0.0
C2425 C 0.08204 0.34789 0.03566 0.0
C2426 C 0.1113 0.32296 0.0214 0.0
C2427 C 0.11935 0.32019 0.00586 0.0
C2428 C 0.13405 0.32934 0.00143 0.0
C2429 C 0.14039 0.34146 0.01293 0.0
C2430 C 0.13232 0.34418 0.02855 0.0
H2431 H 0.07117 0.35613 0.03925 0.0
H2432 H 0.09005 0.35476 0.02632 0.0
H2433 H 0.07688 0.33638 0.02941 0.0
H2434 H 0.10021 0.31549 0.02459 0.0
H2435 H 0.11408 0.31073 0.9974 0.0
H2436 H 0.63721 0.05764 0.12205 0.0
H2437 H 0.63726 0.07103 0.09402 0.0
H2438 H 0.6864 0.09279 0.10456 0.0
H2439 H 0.68673 0.07877 0.13225 0.0
H2440 H 0.6377 0.10279 0.08425 0.0
H2441 H 0.69566 0.07184 0.05961 0.0
H2442 H 0.6857 0.06528 0.07912 0.0
H2443 H 0.69985 0.08324 0.07883 0.0
C2444 C 0.64807 0.06519 0.11832 0.0
C2445 C 0.66203 0.06705 0.12926 0.0
C2446 C 0.64808 0.07287 0.10231 0.0
C2447 C 0.66198 0.08268 0.09699 0.0
C2448 C 0.67576 0.08487 0.10811 0.0
H2449 H 0.6608 0.15597 0.01401 0.0
H2450 H 0.65734 0.14158 0.04134 0.0
C2451 C 0.67589 0.07694 0.12399 0.0
C2452 C 0.66192 0.09083 0.07996 0.0
H2453 H 0.68543 0.0956 0.04391 0.0
C2454 C 0.64808 0.10111 0.07536 0.0
C2455 C 0.67528 0.08841 0.06819 0.0
C2456 C 0.68985 0.07644 0.07161 0.0
C2457 C 0.64737 0.10924 0.05949 0.0
C2458 C 0.66118 0.10755 0.04811 0.0
C2459 C 0.67489 0.09708 0.05264 0.0
C2460 C 0.66179 0.11632 0.03137 0.0
C2461 C 0.63165 0.11921 0.055 0.0
C2462 C 0.66567 0.10705 0.01665 0.0
C2463 C 0.66812 0.11531 0.00117 0.0
C2464 C 0.66647 0.13302 0.99999 0.0
C2465 C 0.66192 0.14228 0.01453 0.0
C2466 C 0.65985 0.13403 0.03014 0.0
H2467 H 0.62043 0.11461 0.0622 0.0
H2468 H 0.63362 0.13274 0.05839 0.0
H2469 H 0.62878 0.1184 0.04123 0.0
H2470 H 0.6672 0.09339 0.0172 0.0
H2471 H 0.67155 0.10785 0.99014 0.0
H2472 H 0.92899 0.69257 0.12812 0.0
H2473 H 0.91446 0.69248 0.10062 0.0
H2474 H 0.92315 0.63864 0.09608 0.0
H2475 H 0.93782 0.63865 0.12345 0.0
H2476 H 0.93074 0.65666 0.06655 0.0
H2477 H 0.86686 0.67342 0.09098 0.0
H2478 H 0.88333 0.68784 0.09735 0.0
H2479 H 0.88381 0.66623 0.10463 0.0
C2480 C 0.92779 0.68072 0.12127 0.0
C2481 C 0.93446 0.6656 0.12799 0.0
C2482 C 0.91939 0.68066 0.10562 0.0
C2483 C 0.91747 0.6655 0.09645 0.0
C2484 C 0.92439 0.65046 0.103 0.0
H2485 H 0.85031 0.65374 0.00844 0.0
H2486 H 0.86459 0.64955 0.0358 0.0
C2487 C 0.93276 0.65049 0.11864 0.0
C2488 C 0.90853 0.66535 0.07988 0.0
H2489 H 0.87053 0.67425 0.06099 0.0
C2490 C 0.91755 0.66041 0.06534 0.0
C2491 C 0.89124 0.66996 0.07837 0.0
C2492 C 0.88066 0.67451 0.09367 0.0
C2493 C 0.9099 0.66048 0.04924 0.0
C2494 C 0.89284 0.66583 0.04763 0.0
C2495 C 0.88365 0.67025 0.06224 0.0
C2496 C 0.88455 0.66773 0.03083 0.0
C2497 C 0.92015 0.6548 0.0341 0.0
C2498 C 0.891 0.67938 0.01905 0.0
C2499 C 0.88291 0.68181 0.00347 0.0
C2500 C 0.8681 0.6727 0.99934 0.0
C2501 C 0.86171 0.66092 0.01115 0.0
C2502 C 0.86982 0.65854 0.0268 0.0
H2503 H 0.93097 0.64661 0.03794 0.0
H2504 H 0.91214 0.64772 0.02491 0.0
H2505 H 0.92539 0.66611 0.02756 0.0
H2506 H 0.90215 0.68685 0.02202 0.0
H2507 H 0.88823 0.69101 0.99476 0.0
H2508 H 0.31614 0.88979 0.99702 0.0
H2509 H 0.32122 0.90332 0.02436 0.0
H2510 H 0.35276 0.86128 0.03957 0.0
H2511 H 0.34769 0.84748 0.01212 0.0
H2512 H 0.3275 0.87073 0.06368 0.0
H2513 H 0.36481 0.9263 0.04205 0.0
H2514 H 0.34541 0.92325 0.03047 0.0
H2515 H 0.36192 0.90755 0.02917 0.0
C2516 C 0.32427 0.88342 0.00608 0.0
C2517 C 0.33149 0.86751 0.00234 0.0
C2518 C 0.32725 0.89125 0.02169 0.0
C2519 C 0.33752 0.88341 0.0339 0.0
C2520 C 0.34487 0.86759 0.03024 0.0
H2521 H 0.36746 0.93513 0.1274 0.0
H2522 H 0.36766 0.91954 0.10053 0.0
C2523 C 0.34199 0.85975 0.01454 0.0
C2524 C 0.33979 0.89143 0.05077 0.0
H2525 H 0.35316 0.92788 0.07001 0.0
C2526 C 0.33327 0.88314 0.06512 0.0
C2527 C 0.34748 0.90754 0.05263 0.0
C2528 C 0.35546 0.91664 0.03779 0.0
C2529 C 0.33369 0.89082 0.0812 0.0
C2530 C 0.34058 0.90732 0.08291 0.0
C2531 C 0.34768 0.91532 0.06866 0.0
C2532 C 0.34039 0.91659 0.09931 0.0
C2533 C 0.32676 0.88117 0.09622 0.0
C2534 C 0.32497 0.92033 0.10742 0.0
C2535 C 0.32482 0.9292 0.12281 0.0
C2536 C 0.34008 0.93462 0.13027 0.0
C2537 C 0.35548 0.93109 0.12199 0.0
C2538 C 0.35563 0.92218 0.10663 0.0
H2539 H 0.32656 0.86728 0.0938 0.0
H2540 H 0.3344 0.88363 0.10781 0.0
H2541 H 0.31354 0.88532 0.09869 0.0
H2542 H 0.31303 0.91651 0.1018 0.0
H2543 H 0.31274 0.93183 0.12882 0.0
H2544 H 0.06593 0.63404 0.87521 0.0
H2545 H 0.08049 0.63345 0.90264 0.0
H2546 H 0.08721 0.68771 0.90035 0.0
H2547 H 0.07284 0.68838 0.87278 0.0
H2548 H 0.11663 0.67008 0.90988 0.0
H2549 H 0.06094 0.64971 0.94802 0.0
H2550 H 0.06591 0.63626 0.93029 0.0
H2551 H 0.05897 0.65767 0.92663 0.0
C2552 C 0.07046 0.64586 0.88057 0.0
C2553 C 0.06818 0.66128 0.87187 0.0
C2554 C 0.07872 0.6455 0.89628 0.0
C2555 C 0.08474 0.66056 0.90363 0.0
C2556 C 0.08261 0.67595 0.89491 0.0
H2557 H 0.11242 0.68575 0.00527 0.0
H2558 H 0.09934 0.68116 0.97769 0.0
C2559 C 0.07437 0.67632 0.87919 0.0
C2560 C 0.09339 0.66031 0.92036 0.0
H2561 H 0.08718 0.65174 0.96239 0.0
C2562 C 0.11024 0.66601 0.92136 0.0
C2563 C 0.08496 0.65508 0.93533 0.0
C2564 C 0.06665 0.64946 0.93513 0.0
C2565 C 0.11885 0.66678 0.93697 0.0
C2566 C 0.11045 0.66148 0.95192 0.0
C2567 C 0.09365 0.65562 0.95088 0.0
C2568 C 0.1183 0.66334 0.96894 0.0
C2569 C 0.13664 0.67384 0.9374 0.0
C2570 C 0.13318 0.65457 0.97337 0.0
C2571 C 0.1408 0.65719 0.98924 0.0
C2572 C 0.13362 0.66862 1.00096 0.0
C2573 C 0.11842 0.67695 0.99659 0.0
C2574 C 0.11086 0.67432 0.9808 0.0
H2575 H 0.14 0.68046 0.92541 0.0
H2576 H 0.13817 0.68287 0.94812 0.0
H2577 H 0.14578 0.66329 0.93928 0.0
H2578 H 0.13897 0.64581 0.9645 0.0
H2579 H 0.15244 0.65051 0.9922 0.0
H2580 H 0.36669 0.06836 0.87516 0.0
H2581 H 0.36572 0.08314 0.90255 0.0
H2582 H 0.31106 0.08297 0.90082 0.0
H2583 H 0.31187 0.06836 0.87337 0.0
H2584 H 0.34464 0.11686 0.90911 0.0
H2585 H 0.32853 0.06025 0.94823 0.0
H2586 H 0.33972 0.05855 0.92828 0.0
H2587 H 0.31744 0.06316 0.92844 0.0
C2588 C 0.35446 0.07146 0.88062 0.0
C2589 C 0.33935 0.06719 0.87213 0.0
C2590 C 0.35395 0.07992 0.89622 0.0
C2591 C 0.33833 0.08405 0.90366 0.0
C2592 C 0.32323 0.0798 0.89526 0.0
H2593 H 0.30398 0.12538 0.9986 0.0
H2594 H 0.30762 0.11139 0.97126 0.0
C2595 C 0.32372 0.07148 0.8796 0.0
C2596 C 0.33775 0.0929 0.9202 0.0
H2597 H 0.3288 0.08675 0.96209 0.0
C2598 C 0.34128 0.11033 0.92076 0.0
C2599 C 0.33328 0.08428 0.93524 0.0
C2600 C 0.32958 0.0655 0.93519 0.0
C2601 C 0.34 0.11952 0.93599 0.0
C2602 C 0.33553 0.1109 0.95113 0.0
C2603 C 0.33224 0.09337 0.95052 0.0
C2604 C 0.3335 0.11983 0.96762 0.0
C2605 C 0.34284 0.13845 0.93558 0.0
C2606 C 0.34688 0.1292 0.9748 0.0
C2607 C 0.34476 0.13744 0.99041 0.0
C2608 C 0.32933 0.13617 0.9993 0.0
C2609 C 0.31606 0.12659 0.99216 0.0
C2610 C 0.31812 0.11856 0.9765 0.0
H2611 H 0.34147 0.14365 0.92254 0.0
H2612 H 0.33379 0.14515 0.94405 0.0
H2613 H 0.35592 0.14127 0.93997 0.0
H2614 H 0.35902 0.13001 0.96842 0.0
H2615 H 0.35529 0.14457 0.99563 0.0
H2616 H 0.84878 0.35005 0.99252 0.0
H2617 H 0.86253 0.35486 0.965 0.0
H2618 H 0.90126 0.31842 0.97789 0.0
H2619 H 0.88789 0.31369 0.00532 0.0
H2620 H 0.91415 0.34801 0.96336 0.0
H2621 H 0.86126 0.32094 0.92521 0.0
H2622 H 0.85562 0.3379 0.93939 0.0
H2623 H 0.86282 0.31801 0.94788 0.0
C2624 C 0.86027 0.34312 0.98954 0.0
C2625 C 0.86712 0.33138 0.00113 0.0
C2626 C 0.86805 0.34582 0.97376 0.0
C2627 C 0.88278 0.3368 0.96932 0.0
C2628 C 0.88987 0.32546 0.98103 0.0
H2629 H 0.929 0.31322 0.87314 0.0
H2630 H 0.91445 0.31343 0.90061 0.0
C2631 C 0.88214 0.32275 0.99673 0.0
C2632 C 0.89085 0.33886 0.95243 0.0
H2633 H 0.88495 0.33128 0.91015 0.0
C2634 C 0.90774 0.34448 0.9517 0.0
C2635 C 0.88251 0.33401 0.93728 0.0
C2636 C 0.8646 0.32724 0.93738 0.0
C2637 C 0.91658 0.34524 0.93624 0.0
C2638 C 0.90822 0.34048 0.92109 0.0
C2639 C 0.89129 0.335 0.92179 0.0
C2640 C 0.91702 0.3405 0.90444 0.0
C2641 C 0.93497 0.35061 0.93634 0.0
C2642 C 0.92319 0.35567 0.89744 0.0
C2643 C 0.93154 0.35558 0.88178 0.0
C2644 C 0.93379 0.34032 0.87279 0.0
C2645 C 0.9275 0.32517 0.87978 0.0
C2646 C 0.91915 0.32527 0.89544 0.0
H2647 H 0.94054 0.35007 0.94929 0.0
H2648 H 0.94262 0.34243 0.92779 0.0
H2649 H 0.93595 0.36387 0.93173 0.0
H2650 H 0.92143 0.3676 0.90404 0.0
H2651 H 0.93616 0.36748 0.87669 0.0
H2652 H 0.67746 0.89366 0.0119 0.0
H2653 H 0.67384 0.90817 0.98475 0.0
H2654 H 0.66031 0.86063 0.96113 0.0
H2655 H 0.66306 0.84623 0.98854 0.0
H2656 H 0.69106 0.90476 0.95739 0.0
H2657 H 0.62436 0.88975 0.94151 0.0
H2658 H 0.63321 0.88553 0.96218 0.0
H2659 H 0.63662 0.8709 0.94493 0.0
C2660 C 0.67344 0.88636 1.00096 0.0
C2661 C 0.67048 0.86883 0.00233 0.0
C2662 C 0.6714 0.89465 0.98543 0.0
C2663 C 0.66662 0.88558 0.97085 0.0
C2664 C 0.66353 0.86805 0.97223 0.0
H2665 H 0.68906 0.92318 0.86903 0.0
H2666 H 0.68958 0.90876 0.89653 0.0
C2667 C 0.66519 0.8598 0.98789 0.0
C2668 C 0.66598 0.89434 0.95411 0.0
H2669 H 0.64138 0.90082 0.919 0.0
C2670 C 0.68012 0.90399 0.94907 0.0
C2671 C 0.65166 0.89356 0.94327 0.0
C2672 C 0.63555 0.88452 0.94833 0.0
C2673 C 0.68039 0.91277 0.93358 0.0
C2674 C 0.66641 0.91131 0.92238 0.0
C2675 C 0.65221 0.90178 0.92745 0.0
C2676 C 0.66608 0.91984 0.90553 0.0
C2677 C 0.6955 0.92387 0.92965 0.0
C2678 C 0.6524 0.93039 0.9011 0.0
C2679 C 0.65188 0.93829 0.88522 0.0
C2680 C 0.66511 0.93593 0.87351 0.0
C2681 C 0.67879 0.92539 0.8779 0.0
C2682 C 0.67915 0.91723 0.89367 0.0
H2683 H 0.70214 0.9279 0.94142 0.0
H2684 H 0.70469 0.91661 0.92185 0.0
H2685 H 0.69169 0.93541 0.92252 0.0
H2686 H 0.64213 0.93258 0.90998 0.0
H2687 H 0.64117 0.94635 0.88218 0.0
H2688 H 0.12516 0.0645 0.36724 0.0
H2689 H 0.09763 0.07902 0.36755 0.0
H2690 H 0.10154 0.08787 0.31372 0.0
H2691 H 0.12904 0.07332 0.31323 0.0
H2692 H 0.09235 0.11792 0.34117 0.0
H2693 H 0.05279 0.0593 0.3389 0.0
H2694 H 0.07174 0.05983 0.35175 0.0
H2695 H 0.07349 0.06007 0.3291 0.0
C2696 C 0.12016 0.06952 0.35546 0.0
C2697 C 0.12925 0.06777 0.3402 0.0
C2698 C 0.10446 0.07781 0.35569 0.0
C2699 C 0.09765 0.08448 0.34067 0.0
C2700 C 0.10668 0.08281 0.32543 0.0
H2701 H 1.00098 0.11939 0.30751 0.0
H2702 H 0.02826 0.10589 0.31258 0.0
C2703 C 0.12234 0.07447 0.32518 0.0
C2704 C 0.081 0.09311 0.34078 0.0
H2705 H 0.03847 0.08547 0.33859 0.0
C2706 C 0.08052 0.1109 0.34075 0.0
C2707 C 0.06572 0.08382 0.34017 0.0
C2708 C 0.06577 0.06468 0.33995 0.0
C2709 C 0.06504 0.1197 0.33975 0.0
C2710 C 0.04968 0.1104 0.33895 0.0
C2711 C 0.05023 0.09258 0.33929 0.0
C2712 C 0.03301 0.11879 0.33634 0.0
C2713 C 0.06531 0.13883 0.33888 0.0
C2714 C 0.02648 0.1305 0.34811 0.0
C2715 C 0.01081 0.13842 0.34519 0.0
C2716 C 0.00133 0.1346 0.33053 0.0
C2717 C 0.00785 0.12266 0.31896 0.0
C2718 C 0.02349 0.11488 0.32183 0.0
H2719 H 0.07817 0.14379 0.33592 0.0
H2720 H 0.0563 0.14354 0.32912 0.0
H2721 H 0.06139 0.14408 0.35135 0.0
H2722 H 0.03345 0.13345 0.35958 0.0
H2723 H 0.00611 0.14745 0.35442 0.0
H2724 H 0.93941 0.12432 0.36646 0.0
H2725 H 0.92444 0.09708 0.36661 0.0
H2726 H 0.91102 0.10404 0.31403 0.0
H2727 H 0.92602 0.1313 0.31373 0.0
H2728 H 0.8833 0.09351 0.33771 0.0
H2729 H 0.94136 0.05334 0.34066 0.0
H2730 H 0.93988 0.07059 0.35557 0.0
H2731 H 0.94181 0.07506 0.33334 0.0
C2732 C 0.9333 0.12004 0.35491 0.0
C2733 C 0.93393 0.12992 0.34006 0.0
C2734 C 0.92477 0.10448 0.35503 0.0
C2735 C 0.91671 0.09855 0.34032 0.0
C2736 C 0.91718 0.10843 0.32551 0.0
H2737 H 0.88351 1.00087 0.30859 0.0
H2738 H 0.89669 0.02828 0.31356 0.0
C2739 C 0.92579 0.12396 0.32535 0.0
C2740 C 0.9079 0.08196 0.34029 0.0
H2741 H 0.91504 0.03926 0.34119 0.0
C2742 C 0.89018 0.08162 0.33857 0.0
C2743 C 0.91697 0.06653 0.34135 0.0
C2744 C 0.93607 0.06625 0.34273 0.0
C2745 C 0.88127 0.06619 0.33764 0.0
C2746 C 0.89037 0.05073 0.3386 0.0
C2747 C 0.90808 0.05112 0.34058 0.0
C2748 C 0.88204 0.03403 0.33604 0.0
C2749 C 0.86231 0.06656 0.33501 0.0
C2750 C 0.86941 0.02803 0.34712 0.0
C2751 C 0.86169 0.01224 0.34426 0.0
C2752 C 0.86658 0.00214 0.33035 0.0
C2753 C 0.87938 0.0082 0.31946 0.0
C2754 C 0.88699 0.02392 0.32227 0.0
H2755 H 0.85775 0.07934 0.33117 0.0
H2756 H 0.85845 0.05723 0.32517 0.0
H2757 H 0.8559 0.06308 0.34706 0.0
H2758 H 0.86561 0.03549 0.35801 0.0
H2759 H 0.85196 0.00794 0.35296 0.0
H2760 H 0.87324 0.92979 0.31339 0.0
H2761 H 0.90047 0.91483 0.31437 0.0
H2762 H 0.90287 0.92248 0.36852 0.0
H2763 H 0.87581 0.93767 0.36761 0.0
H2764 H 0.93296 0.92983 0.35273 0.0
H2765 H 0.90925 0.86696 0.33196 0.0
H2766 H 0.90384 0.88377 0.31756 0.0
H2767 H 0.89526 0.8838 0.33872 0.0
C2768 C 0.87956 0.92826 0.32551 0.0
C2769 C 0.87235 0.93484 0.34043 0.0
C2770 C 0.89505 0.9196 0.32606 0.0
C2771 C 0.90354 0.91725 0.34157 0.0
C2772 C 0.89648 0.92404 0.35644 0.0
H2773 H 0.99162 0.84936 0.35104 0.0
H2774 H 0.96414 0.86312 0.35612 0.0
C2775 C 0.88102 0.93272 0.35589 0.0
C2776 C 0.92003 0.90817 0.3422 0.0
H2777 H 0.93935 0.87079 0.3318 0.0
C2778 C 0.93433 0.91687 0.3483 0.0
C2779 C 0.92175 0.89115 0.33672 0.0
C2780 C 0.90668 0.8808 0.33103 0.0
C2781 C 0.95043 0.90924 0.34841 0.0
C2782 C 0.95231 0.89257 0.34201 0.0
C2783 C 0.93791 0.88362 0.33657 0.0
C2784 C 0.96923 0.88462 0.33982 0.0
C2785 C 0.96529 0.91913 0.35533 0.0
C2786 C 0.98114 0.89212 0.32896 0.0
C2787 C 0.99677 0.88434 0.32603 0.0
C2788 C 1.00084 0.86878 0.33382 0.0
C2789 C 0.98894 0.86136 0.34488 0.0
C2790 C 0.97323 0.86917 0.34777 0.0
H2791 H 0.96109 0.92916 0.36431 0.0
H2792 H 0.97442 0.91067 0.36194 0.0
H2793 H 0.97202 0.92542 0.34468 0.0
H2794 H 0.97821 0.90385 0.32242 0.0
H2795 H 0.00557 0.89046 0.31742 0.0
H2796 H 0.11187 0.00513 0.31629 0.0
H2797 H 0.0988 0.97771 0.32172 0.0
H2798 H 0.13987 0.96448 0.35536 0.0
H2799 H 0.15331 0.99204 0.34985 0.0
H2800 H 0.13213 0.93919 0.33149 0.0
H2801 H 0.07397 0.96124 0.36416 0.0
H2802 H 0.07748 0.97185 0.34431 0.0
H2803 H 0.09238 0.9746 0.3614 0.0
C2804 C 0.11814 0.99651 0.32496 0.0
C2805 C 0.13369 1.00085 0.33263 0.0
C2806 C 0.11055 0.98084 0.32813 0.0
C2807 C 0.11822 0.96916 0.33913 0.0
C2808 C 0.13369 0.9734 0.34691 0.0
H2809 H 0.06561 0.87603 0.36871 0.0
H2810 H 0.08098 0.903 0.36919 0.0
C2811 C 0.14132 0.98916 0.34377 0.0
C2812 C 0.11039 0.95223 0.34168 0.0
H2813 H 0.07331 0.93292 0.35304 0.0
C2814 C 0.11935 0.93777 0.3364 0.0
C2815 C 0.09379 0.95039 0.34826 0.0
C2816 C 0.0839 0.96533 0.35502 0.0
C2817 C 0.11188 0.92159 0.33687 0.0
C2818 C 0.09492 0.9199 0.34252 0.0
C2819 C 0.08622 0.93426 0.34847 0.0
C2820 C 0.08587 0.90339 0.34218 0.0
C2821 C 0.12222 0.90646 0.33133 0.0
C2822 C 0.08329 0.89477 0.32678 0.0
C2823 C 0.07452 0.87934 0.32647 0.0
C2824 C 0.06806 0.87232 0.34153 0.0
C2825 C 0.07047 0.88109 0.35689 0.0
C2826 C 0.07925 0.8965 0.3572 0.0
H2827 H 0.13606 0.90909 0.33206 0.0
H2828 H 0.11934 0.89516 0.33924 0.0
H2829 H 0.1191 0.90338 0.31794 0.0
H2830 H 0.08794 0.90005 0.31498 0.0
H2831 H 0.07277 0.87293 0.31443 0.0
H2832 H 0.99079 0.89411 0.67401 0.0
H2833 H 0.01804 0.90817 0.66957 0.0
H2834 H 0.04136 0.85971 0.65917 0.0
H2835 H 0.01385 0.8457 0.66276 0.0
H2836 H 0.04502 0.90531 0.68756 0.0
H2837 H 0.06193 0.88671 0.622 0.0
H2838 H 0.04104 0.8832 0.63067 0.0
H2839 H 0.05805 0.86858 0.63518 0.0
C2840 C 0.00168 0.8865 0.67046 0.0
C2841 C 1.00021 0.86882 0.66869 0.0
C2842 C 0.01726 0.89454 0.66796 0.0
C2843 C 0.0318 0.88507 0.66388 0.0
C2844 C 0.0303 0.8674 0.66184 0.0
H2845 H 0.13347 0.92228 0.68666 0.0
H2846 H 0.10591 0.90799 0.68695 0.0
C2847 C 0.01458 0.85937 0.66398 0.0
C2848 C 0.04863 0.89362 0.66308 0.0
H2849 H 0.08425 0.89848 0.63886 0.0
C2850 C 0.05352 0.9039 0.67682 0.0
C2851 C 0.05971 0.89199 0.64903 0.0
C2852 C 0.05484 0.88217 0.63332 0.0
C2853 C 0.06911 0.91249 0.67696 0.0
C2854 C 0.08053 0.9102 0.66329 0.0
C2855 C 0.07561 0.90006 0.64946 0.0
C2856 C 0.09751 0.91845 0.66295 0.0
C2857 C 0.07293 0.92426 0.6916 0.0
C2858 C 0.10228 0.92856 0.64907 0.0
C2859 C 0.11818 0.93643 0.64871 0.0
C2860 C 0.12957 0.93442 0.66229 0.0
C2861 C 0.12486 0.92421 0.67611 0.0
C2862 C 0.10906 0.91612 0.67634 0.0
H2863 H 0.06111 0.92871 0.69787 0.0
H2864 H 0.08053 0.91737 0.70124 0.0
H2865 H 0.08023 0.93553 0.68735 0.0
H2866 H 0.09363 0.93051 0.63856 0.0
H2867 H 0.12148 0.94422 0.63788 0.0
H2868 H 0.14993 0.00817 0.65129 0.0
H2869 H 0.13592 0.03568 0.6473 0.0
H2870 H 0.10342 0.02546 0.6901 0.0
H2871 H 0.11702 0.99802 0.69405 0.0
H2872 H 0.08598 0.03804 0.66224 0.0
H2873 H 0.14234 0.07774 0.6774 0.0
H2874 H 0.14525 0.06245 0.66073 0.0
H2875 H 0.1415 0.05532 0.68205 0.0
C2876 C 0.13979 0.01176 0.65984 0.0
C2877 C 0.13469 1.00085 0.67304 0.0
C2878 C 0.13187 0.02753 0.65759 0.0
C2879 C 0.11879 0.0327 0.66855 0.0
C2880 C 0.11351 0.02175 0.68152 0.0
H2881 H 0.07457 0.13033 0.69118 0.0
H2882 H 0.08921 0.10287 0.69136 0.0
C2883 C 0.12136 0.00603 0.68377 0.0
C2884 C 0.11041 0.04946 0.66664 0.0
H2885 H 0.11724 0.09218 0.66966 0.0
C2886 C 0.09282 0.04989 0.66376 0.0
C2887 C 0.11935 0.06488 0.66883 0.0
C2888 C 0.13813 0.06518 0.67256 0.0
C2889 C 0.08392 0.06531 0.66309 0.0
C2890 C 0.09287 0.08071 0.66519 0.0
C2891 C 0.11046 0.08032 0.66798 0.0
C2892 C 0.0841 0.09734 0.66496 0.0
C2893 C 0.06494 0.06501 0.66062 0.0
C2894 C 0.07649 0.10333 0.65002 0.0
C2895 C 0.06817 0.119 0.64987 0.0
C2896 C 0.06731 0.12895 0.66467 0.0
C2897 C 0.07498 0.12293 0.67961 0.0
C2898 C 0.08338 0.10728 0.67972 0.0
H2899 H 0.05955 0.05213 0.66258 0.0
H2900 H 0.05863 0.07396 0.66949 0.0
H2901 H 0.0619 0.06908 0.64748 0.0
H2902 H 0.07708 0.09592 0.63846 0.0
H2903 H 0.06243 0.12332 0.63815 0.0
H2904 H 0.9921 0.15215 0.65349 0.0
H2905 H 0.96454 0.1385 0.64858 0.0
H2906 H 0.97675 0.1003 0.68581 0.0
H2907 H 0.0042 0.11356 0.69063 0.0
H2908 H 0.96271 0.08699 0.65621 0.0
H2909 H 0.92416 0.14033 0.68177 0.0
H2910 H 0.93864 0.14569 0.66498 0.0
H2911 H 0.94677 0.1388 0.68512 0.0
C2912 C 0.98895 0.1408 0.66057 0.0
C2913 C 1.00037 0.13406 0.67255 0.0
C2914 C 0.97315 0.13309 0.65783 0.0
C2915 C 0.96851 0.11853 0.66702 0.0
C2916 C 0.98004 0.11156 0.67863 0.0
H2917 H 0.87163 0.07262 0.68903 0.0
H2918 H 0.89909 0.08721 0.68941 0.0
C2919 C 0.99575 0.11923 0.68139 0.0
C2920 C 0.95165 0.11045 0.66481 0.0
H2921 H 0.90924 0.11651 0.67149 0.0
C2922 C 0.951 0.09347 0.65943 0.0
C2923 C 0.93643 0.11887 0.66925 0.0
C2924 C 0.93643 0.13689 0.67574 0.0
C2925 C 0.93555 0.08463 0.65851 0.0
C2926 C 0.92032 0.09308 0.66285 0.0
C2927 C 0.92094 0.1101 0.6681 0.0
C2928 C 0.90366 0.08433 0.66248 0.0
C2929 C 0.93574 0.06617 0.65341 0.0
C2930 C 0.89708 0.078 0.6472 0.0
C2931 C 0.88144 0.06963 0.64695 0.0
C2932 C 0.87204 0.06753 0.66198 0.0
C2933 C 0.87859 0.07401 0.67725 0.0
C2934 C 0.89425 0.08238 0.67749 0.0
H2935 H 0.94864 0.06057 0.65439 0.0
H2936 H 0.92694 0.05865 0.66145 0.0
H2937 H 0.93149 0.06501 0.64003 0.0
H2938 H 0.90399 0.07962 0.63543 0.0
H2939 H 0.87668 0.06487 0.63497 0.0
H2940 H 0.92707 0.87199 0.68879 0.0
H2941 H 0.91212 0.89924 0.68805 0.0
H2942 H 0.92321 0.90403 0.63468 0.0
H2943 H 0.93823 0.87683 0.63531 0.0
H2944 H 0.93008 0.93355 0.65382 0.0
H2945 H 0.86533 0.90884 0.66622 0.0
H2946 H 0.88102 0.90191 0.68126 0.0
H2947 H 0.88262 0.8954 0.65945 0.0
C2948 C 0.92629 0.87883 0.67689 0.0
C2949 C 0.93376 0.87224 0.6621 0.0
C2950 C 0.91766 0.89433 0.67647 0.0
C2951 C 0.91633 0.90351 0.66125 0.0
C2952 C 0.92398 0.89708 0.64652 0.0
H2953 H 0.85021 0.99269 0.65007 0.0
H2954 H 0.86424 0.96533 0.64505 0.0
C2955 C 0.93255 0.88154 0.64691 0.0
C2956 C 0.90738 0.92006 0.66083 0.0
H2957 H 0.86904 0.9388 0.66836 0.0
C2958 C 0.9167 0.9347 0.65686 0.0
C2959 C 0.88987 0.92148 0.6645 0.0
C2960 C 0.87905 0.90607 0.66794 0.0
C2961 C 0.90912 0.95082 0.65713 0.0
C2962 C 0.89182 0.95234 0.66169 0.0
C2963 C 0.88233 0.93763 0.66499 0.0
C2964 C 0.88363 0.96911 0.66413 0.0
C2965 C 0.91973 0.9661 0.65259 0.0
C2966 C 0.8898 0.98021 0.67658 0.0
C2967 C 0.88187 0.99577 0.67947 0.0
C2968 C 0.86746 1.00059 0.67005 0.0
C2969 C 0.86129 0.98944 0.65752 0.0
C2970 C 0.86927 0.97379 0.65465 0.0
H2971 H 0.93079 0.96252 0.6446 0.0
H2972 H 0.9121 0.97575 0.64572 0.0
H2973 H 0.92467 0.97197 0.66441 0.0
H2974 H 0.90062 0.97671 0.6843 0.0
H2975 H 0.88698 0.00394 0.68927 0.0
H2976 H 0.34163 0.01496 0.15616 0.0
H2977 H 0.34476 0.04276 0.1425 0.0
H2978 H 0.33234 0.02037 0.09409 0.0
H2979 H 0.32848 0.99283 0.10777 0.0
H2980 H 0.36396 0.05603 0.11819 0.0
H2981 H 0.2972 0.05681 0.09652 0.0
H2982 H 0.30518 0.04097 0.11097 0.0
H2983 H 0.30843 0.03876 0.08844 0.0
C2984 C 0.33973 0.01597 0.14258 0.0
C2985 C 0.33457 0.0018 0.13307 0.0
C2986 C 0.34148 0.03186 0.13479 0.0
C2987 C 0.33826 0.03378 0.11734 0.0
C2988 C 0.33426 0.01936 0.10767 0.0
H2989 H 0.36543 0.12122 0.05563 0.0
H2990 H 0.36454 0.09402 0.07052 0.0
C2991 C 0.3322 0.00359 0.11547 0.0
C2992 C 0.33865 0.05085 0.10929 0.0
H2993 H 0.31539 0.07783 0.0846 0.0
C2994 C 0.35331 0.06085 0.11094 0.0
C2995 C 0.3246 0.05734 0.10014 0.0
C2996 C 0.30791 0.04799 0.09906 0.0
C2997 C 0.35445 0.07696 0.10334 0.0
C2998 C 0.34076 0.08301 0.09335 0.0
C2999 C 0.32598 0.07314 0.09204 0.0
C3000 C 0.34136 0.09954 0.08423 0.0
C3001 C 0.37017 0.08744 0.10645 0.0
C3002 C 0.32825 0.11146 0.08635 0.0
C3003 C 0.32851 0.12684 0.07749 0.0
C3004 C 0.34197 0.13067 0.06646 0.0
C3005 C 0.355 0.1187 0.06422 0.0
C3006 C 0.35459 0.1032 0.07286 0.0
H3007 H 0.37658 0.08367 0.11844 0.0
H3008 H 0.37928 0.08535 0.09592 0.0
H3009 H 0.36715 0.10118 0.10711 0.0
H3010 H 0.31784 0.1089 0.09495 0.0
H3011 H 0.3183 0.13583 0.07946 0.0
H3012 H 0.3406 0.98738 0.84595 0.0
H3013 H 0.34325 0.95962 0.85977 0.0
H3014 H 0.32885 0.98208 0.9076 0.0
H3015 H 0.32537 0.00957 0.8937 0.0
H3016 H 0.36156 0.9465 0.88428 0.0
H3017 H 0.29444 0.94532 0.90464 0.0
H3018 H 0.30259 0.96129 0.89047 0.0
H3019 H 0.30532 0.9634 0.91309 0.0
C3020 C 0.33812 0.98638 0.85944 0.0
C3021 C 0.33254 1.00056 0.86871 0.0
C3022 C 0.3396 0.97052 0.86732 0.0
C3023 C 0.33574 0.96863 0.88464 0.0
C3024 C 0.33126 0.98305 0.89411 0.0
H3025 H 0.36243 0.88065 0.94613 0.0
H3026 H 0.36179 0.90798 0.93145 0.0
C3027 C 0.32942 0.99879 0.88618 0.0
C3028 C 0.33608 0.95159 0.89276 0.0
H3029 H 0.31255 0.92452 0.91707 0.0
C3030 C 0.3508 0.94164 0.89135 0.0
C3031 C 0.32191 0.94502 0.90167 0.0
C3032 C 0.30512 0.95424 0.9024 0.0
C3033 C 0.35187 0.9255 0.8989 0.0
C3034 C 0.33806 0.9194 0.90868 0.0
C3035 C 0.32324 0.92923 0.90979 0.0
C3036 C 0.33853 0.90281 0.91771 0.0
C3037 C 0.36765 0.91506 0.89591 0.0
C3038 C 0.3253 0.89105 0.91554 0.0
C3039 C 0.32538 0.87564 0.92435 0.0
C3040 C 0.33882 0.87159 0.93531 0.0
C3041 C 0.35202 0.88336 0.93758 0.0
C3042 C 0.35175 0.89893 0.92905 0.0
H3043 H 0.37412 0.91883 0.88396 0.0
H3044 H 0.37669 0.91718 0.90649 0.0
H3045 H 0.36467 0.9013 0.89522 0.0
H3046 H 0.3149 0.89375 0.90696 0.0
H3047 H 0.31505 0.86679 0.92236 0.0
H3048 H 0.01358 0.33983 0.84511 0.0
H3049 H 0.04164 0.34212 0.85844 0.0
H3050 H 0.01948 0.33037 0.90711 0.0
H3051 H 0.99168 0.32729 0.89375 0.0
H3052 H 0.0558 0.36088 0.88223 0.0
H3053 H 0.05495 0.29445 0.90475 0.0
H3054 H 0.03911 0.30269 0.89046 0.0
H3055 H 0.03732 0.30619 0.913 0.0
C3056 C 0.01471 0.33789 0.85868 0.0
C3057 C 1.00051 0.33315 0.86837 0.0
C3058 C 0.03074 0.33915 0.86628 0.0
C3059 C 0.03278 0.33588 0.8837 0.0
C3060 C 0.01837 0.3323 0.89355 0.0
H3061 H 0.12105 0.36203 0.94448 0.0
H3062 H 0.09387 0.36144 0.92956 0.0
C3063 C 0.00246 0.3307 0.88593 0.0
C3064 C 0.04995 0.33587 0.89158 0.0
H3065 H 0.0764 0.31228 0.91654 0.0
C3066 C 0.06036 0.3502 0.88963 0.0
C3067 C 0.05613 0.32178 0.9009 0.0
C3068 C 0.04636 0.30535 0.90224 0.0
C3069 C 0.07654 0.35102 0.89712 0.0
C3070 C 0.08224 0.33736 0.90735 0.0
C3071 C 0.07199 0.32287 0.90893 0.0
C3072 C 0.09876 0.33773 0.91653 0.0
C3073 C 0.08745 0.36637 0.89363 0.0
C3074 C 0.11031 0.32423 0.91484 0.0
C3075 C 0.12567 0.32432 0.92375 0.0
C3076 C 0.12986 0.338 0.93438 0.0
C3077 C 0.11826 0.35141 0.9362 0.0
C3078 C 0.10277 0.35117 0.92753 0.0
H3079 H 0.08389 0.37253 0.88146 0.0
H3080 H 0.08556 0.37582 0.9039 0.0
H3081 H 0.10111 0.36297 0.89311 0.0
H3082 H 0.10749 0.31364 0.90654 0.0
H3083 H 0.13437 0.3138 0.92212 0.0
H3084 H 0.68775 0.13101 0.92761 0.0
H3085 H 0.68788 0.10368 0.91273 0.0
H3086 H 0.63438 0.09793 0.92248 0.0
H3087 H 0.63406 0.12532 0.93727 0.0
H3088 H 0.66091 0.06851 0.93123 0.0
H3089 H 0.65981 0.09368 0.86518 0.0
H3090 H 0.67308 0.10421 0.88057 0.0
H3091 H 0.65047 0.10503 0.8828 0.0
C3092 C 0.676 0.12395 0.92656 0.0
C3093 C 0.66089 0.13032 0.93358 0.0
C3094 C 0.6761 0.10839 0.91804 0.0
C3095 C 0.66111 0.09892 0.91645 0.0
C3096 C 0.64604 0.10514 0.92355 0.0
H3097 H 0.64992 0.00753 0.85361 0.0
H3098 H 0.64441 0.03465 0.86791 0.0
C3099 C 0.6459 0.12076 0.93198 0.0
C3100 C 0.66135 0.08233 0.9077 0.0
H3101 H 0.6641 0.06416 0.86847 0.0
C3102 C 0.66149 0.0675 0.91751 0.0
C3103 C 0.66188 0.08115 0.88983 0.0
C3104 C 0.66122 0.09681 0.87886 0.0
C3105 C 0.66269 0.05144 0.90989 0.0
C3106 C 0.66398 0.05025 0.892 0.0
C3107 C 0.6632 0.0651 0.88217 0.0
C3108 C 0.6671 0.03381 0.88336 0.0
C3109 C 0.66261 0.0359 0.92108 0.0
C3110 C 0.6818 0.02451 0.88709 0.0
C3111 C 0.68495 0.00907 0.87904 0.0
C3112 C 0.67355 0.0026 0.86688 0.0
C3113 C 0.65894 0.01209 0.86292 0.0
C3114 C 0.65577 0.02759 0.87108 0.0
H3115 H 0.65643 0.03851 0.93349 0.0
H3116 H 0.65592 0.02517 0.91486 0.0
H3117 H 0.67588 0.03197 0.92363 0.0
H3118 H 0.69094 0.02927 0.89619 0.0
H3119 H 0.69643 0.00226 0.88231 0.0
H3120 H 0.98876 0.66182 0.84444 0.0
H3121 H 0.96069 0.65921 0.85763 0.0
H3122 H 0.98234 0.67205 0.90626 0.0
H3123 H 0.01016 0.67543 0.89305 0.0
H3124 H 0.94683 0.64045 0.88169 0.0
H3125 H 0.9462 0.70731 0.90298 0.0
H3126 H 0.96228 0.69912 0.88892 0.0
H3127 H 0.96401 0.69604 0.91152 0.0
C3128 C 0.98752 0.66395 0.85797 0.0
C3129 C 0.00158 0.66907 0.86768 0.0
C3130 C 0.97148 0.66249 0.86549 0.0
C3131 C 0.96929 0.66595 0.88285 0.0
C3132 C 0.98357 0.66995 0.89274 0.0
H3133 H 0.88079 0.63957 0.94324 0.0
H3134 H 0.90811 0.64014 0.92856 0.0
C3135 C 0.99949 0.67173 0.88519 0.0
C3136 C 0.95209 0.66574 0.8906 0.0
H3137 H 0.92496 0.68931 0.91481 0.0
C3138 C 0.94199 0.65117 0.88884 0.0
C3139 C 0.94556 0.67989 0.89959 0.0
C3140 C 0.95501 0.69653 0.9007 0.0
C3141 C 0.92575 0.6502 0.89616 0.0
C3142 C 0.91969 0.66396 0.90604 0.0
C3143 C 0.92965 0.67866 0.90746 0.0
C3144 C 0.90306 0.6635 0.91497 0.0
C3145 C 0.91518 0.63457 0.89288 0.0
C3146 C 0.89136 0.67681 0.91286 0.0
C3147 C 0.87594 0.67676 0.92165 0.0
C3148 C 0.87184 0.66328 0.93255 0.0
C3149 C 0.88354 0.65001 0.93474 0.0
C3150 C 0.8991 0.65024 0.92622 0.0
H3151 H 0.919 0.62821 0.88088 0.0
H3152 H 0.91712 0.62538 0.90337 0.0
H3153 H 0.90146 0.63769 0.89211 0.0
H3154 H 0.89413 0.68725 0.90436 0.0
H3155 H 0.86714 0.68714 0.91972 0.0
H3156 H 0.66221 0.98797 0.1578 0.0
H3157 H 0.6593 0.95994 0.14454 0.0
H3158 H 0.67046 0.98193 0.09565 0.0
H3159 H 0.67415 0.00969 0.10893 0.0
H3160 H 0.63991 0.946 0.12095 0.0
H3161 H 0.70608 0.94607 0.09761 0.0
H3162 H 0.6982 0.962 0.11202 0.0
H3163 H 0.69441 0.96384 0.08953 0.0
C3164 C 0.6639 0.98681 0.14421 0.0
C3165 C 0.66865 1.00094 0.13443 0.0
C3166 C 0.66227 0.9708 0.13664 0.0
C3167 C 0.66519 0.96871 0.11916 0.0
C3168 C 0.66879 0.98307 0.10924 0.0
H3169 H 0.63793 0.8802 0.05889 0.0
H3170 H 0.63853 0.90743 0.07378 0.0
C3171 C 0.67075 0.99896 0.11683 0.0
C3172 C 0.66487 0.95154 0.11131 0.0
H3173 H 0.68789 0.92478 0.08617 0.0
C3174 C 0.65045 0.9413 0.11344 0.0
C3175 C 0.67878 0.9452 0.10183 0.0
C3176 C 0.6953 0.95478 0.10027 0.0
C3177 C 0.64938 0.92511 0.10602 0.0
C3178 C 0.66287 0.91922 0.09568 0.0
C3179 C 0.67743 0.92933 0.09388 0.0
C3180 C 0.66232 0.90261 0.08669 0.0
C3181 C 0.63395 0.91438 0.10969 0.0
C3182 C 0.67581 0.89105 0.08839 0.0
C3183 C 0.67572 0.87569 0.0795 0.0
C3184 C 0.66203 0.87148 0.0689 0.0
C3185 C 0.64855 0.88303 0.06715 0.0
C3186 C 0.6488 0.89853 0.07579 0.0
H3187 H 0.62788 0.9181 0.12187 0.0
H3188 H 0.62446 0.91625 0.09946 0.0
H3189 H 0.63723 0.90069 0.11032 0.0
H3190 H 0.68644 0.89391 0.09663 0.0
H3191 H 0.68627 0.86703 0.0811 0.0
H3192 H 0.00917 0.65395 0.15262 0.0
H3193 H 0.0368 0.64843 0.13934 0.0
H3194 H 0.02562 0.68539 0.10057 0.0
H3195 H 0.99812 0.69083 0.11348 0.0
H3196 H 0.03921 0.65511 0.08784 0.0
H3197 H 0.07774 0.68114 0.14101 0.0
H3198 H 0.06285 0.66474 0.14649 0.0
H3199 H 0.05522 0.68492 0.13917 0.0
C3200 C 0.01257 0.66085 0.14123 0.0
C3201 C 0.00142 0.67292 0.13421 0.0
C3202 C 0.0284 0.65775 0.13372 0.0
C3203 C 0.03334 0.66667 0.11909 0.0
C3204 C 0.02209 0.6784 0.11188 0.0
H3205 H 0.12979 0.68823 0.07301 0.0
H3206 H 0.10243 0.68837 0.08773 0.0
C3207 C 0.00635 0.68152 0.11934 0.0
C3208 C 0.05022 0.66406 0.11119 0.0
H3209 H 0.09264 0.67061 0.11732 0.0
C3210 C 0.05092 0.65836 0.09432 0.0
C3211 C 0.06544 0.66851 0.11962 0.0
C3212 C 0.06538 0.6753 0.13753 0.0
C3213 C 0.06639 0.65719 0.08556 0.0
C3214 C 0.08161 0.66164 0.09399 0.0
C3215 C 0.08095 0.66714 0.11093 0.0
C3216 C 0.09826 0.66135 0.08522 0.0
C3217 C 0.06627 0.65179 0.06719 0.0
C3218 C 0.10504 0.64608 0.07904 0.0
C3219 C 0.12065 0.64597 0.07059 0.0
C3220 C 0.12979 0.66112 0.06824 0.0
C3221 C 0.12304 0.67636 0.07458 0.0
C3222 C 0.10743 0.67646 0.08303 0.0
H3223 H 0.05335 0.65249 0.06157 0.0
H3224 H 0.07495 0.65984 0.05954 0.0
H3225 H 0.07072 0.63846 0.06624 0.0
H3226 H 0.0983 0.63424 0.08084 0.0
H3227 H 0.12557 0.63401 0.06593 0.0
H3228 H 0.99243 0.35119 0.15056 0.0
H3229 H 0.96487 0.35587 0.13685 0.0
H3230 H 0.97513 0.31492 0.10204 0.0
H3231 H 0.00259 0.31029 0.11535 0.0
H3232 H 0.9621 0.34357 0.08621 0.0
H3233 H 0.9232 0.32495 0.1421 0.0
H3234 H 0.93837 0.3416 0.14569 0.0
H3235 H 0.94565 0.32058 0.14075 0.0
C3236 C 0.98884 0.34321 0.13996 0.0
C3237 C 0.99974 0.33029 0.13416 0.0
C3238 C 0.97304 0.34585 0.1322 0.0
C3239 C 0.96786 0.33558 0.11858 0.0
C3240 C 0.97885 0.32296 0.11256 0.0
H3241 H 0.87039 0.31287 0.07464 0.0
H3242 H 0.8979 0.31293 0.08914 0.0
C3243 C 0.99457 0.32032 0.12025 0.0
C3244 C 0.951 0.33774 0.11048 0.0
H3245 H 0.90842 0.33353 0.11751 0.0
C3246 C 0.95035 0.34151 0.09307 0.0
C3247 C 0.93571 0.33482 0.11943 0.0
C3248 C 0.93566 0.33012 0.138 0.0
C3249 C 0.93484 0.34228 0.08433 0.0
C3250 C 0.91957 0.33941 0.09329 0.0
C3251 C 0.92017 0.3358 0.11072 0.0
C3252 C 0.90286 0.33955 0.08465 0.0
C3253 C 0.93494 0.34563 0.06547 0.0
C3254 C 0.8965 0.35454 0.07744 0.0
C3255 C 0.8808 0.35455 0.06917 0.0
C3256 C 0.87117 0.33957 0.06799 0.0
C3257 C 0.87753 0.3246 0.0753 0.0
C3258 C 0.89321 0.32462 0.08363 0.0
H3259 H 0.94779 0.34408 0.0599 0.0
H3260 H 0.92604 0.33696 0.05882 0.0
H3261 H 0.9307 0.35885 0.06308 0.0
H3262 H 0.90365 0.36625 0.07829 0.0
H3263 H 0.87621 0.3663 0.06372 0.0
H3264 H 0.61204 0.816 0.49747 0.0
H3265 H 0.59911 0.82112 0.52502 0.0
H3266 H 0.63995 0.85506 0.53819 0.0
H3267 H 0.65323 0.84987 0.51048 0.0
H3268 H 0.63245 0.83087 0.56345 0.0
H3269 H 0.57408 0.86344 0.54173 0.0
H3270 H 0.57773 0.84368 0.53101 0.0
H3271 H 0.59249 0.86089 0.52833 0.0
C3272 C 0.61829 0.82467 0.50611 0.0
C3273 C 0.63372 0.83253 0.50169 0.0
C3274 C 0.61078 0.82766 0.52186 0.0
C3275 C 0.61843 0.83865 0.53356 0.0
C3276 C 0.63378 0.84661 0.52926 0.0
H3277 H 0.56631 0.86853 0.62679 0.0
H3278 H 0.58155 0.86875 0.59975 0.0
C3279 C 0.64133 0.84366 0.51342 0.0
C3280 C 0.61064 0.84108 0.55053 0.0
H3281 H 0.57366 0.85244 0.57005 0.0
C3282 C 0.61967 0.83577 0.56494 0.0
C3283 C 0.59404 0.84764 0.55247 0.0
C3284 C 0.58407 0.8544 0.53758 0.0
C3285 C 0.61229 0.83624 0.58117 0.0
C3286 C 0.59534 0.84193 0.58297 0.0
C3287 C 0.58657 0.84786 0.56864 0.0
C3288 C 0.58641 0.84172 0.59956 0.0
C3289 C 0.62271 0.83067 0.59624 0.0
C3290 C 0.58388 0.82642 0.60834 0.0
C3291 C 0.57518 0.82625 0.62382 0.0
C3292 C 0.56875 0.84138 0.63073 0.0
C3293 C 0.57114 0.85666 0.62182 0.0
C3294 C 0.57985 0.85681 0.60636 0.0
H3295 H 0.63653 0.83134 0.59352 0.0
H3296 H 0.61994 0.83861 0.60755 0.0
H3297 H 0.61956 0.81731 0.59936 0.0
H3298 H 0.58849 0.81456 0.60313 0.0
H3299 H 0.57345 0.81427 0.63034 0.0
H3300 H 0.19102 0.57264 0.62883 0.0
H3301 H 0.19076 0.58741 0.60147 0.0
H3302 H 0.13672 0.57967 0.59765 0.0
H3303 H 0.1369 0.56475 0.62488 0.0
H3304 H 0.15393 0.57184 0.56797 0.0
H3305 H 0.17267 0.6353 0.592 0.0
H3306 H 0.1869 0.61857 0.59811 0.0
H3307 H 0.16542 0.61851 0.60581 0.0
C3308 C 0.17908 0.57411 0.62217 0.0
C3309 C 0.16397 0.5676 0.62904 0.0
C3310 C 0.17893 0.58265 0.6066 0.0
C3311 C 0.16367 0.58489 0.59767 0.0
C3312 C 0.14861 0.57818 0.60439 0.0
H3313 H 0.15307 0.65208 0.50949 0.0
H3314 H 0.14855 0.63808 0.53692 0.0
C3315 C 0.14875 0.56966 0.61995 0.0
C3316 C 0.16345 0.59383 0.58111 0.0
H3317 H 0.17322 0.63148 0.56198 0.0
C3318 C 0.15803 0.58492 0.56667 0.0
C3319 C 0.16852 0.61098 0.57949 0.0
C3320 C 0.17355 0.62148 0.59469 0.0
C3321 C 0.15812 0.59251 0.55055 0.0
C3322 C 0.16399 0.60938 0.54881 0.0
C3323 C 0.16884 0.6185 0.56333 0.0
C3324 C 0.16603 0.6175 0.53195 0.0
C3325 C 0.15192 0.58239 0.53552 0.0
C3326 C 0.17739 0.6106 0.52013 0.0
C3327 C 0.18001 0.61853 0.50452 0.0
C3328 C 0.17138 0.63362 0.50037 0.0
C3329 C 0.15988 0.64045 0.51221 0.0
C3330 C 0.1573 0.6325 0.52791 0.0
H3331 H 0.14341 0.57189 0.5395 0.0
H3332 H 0.14502 0.5906 0.52636 0.0
H3333 H 0.16298 0.57672 0.52888 0.0
H3334 H 0.1845 0.59922 0.52312 0.0
H3335 H 0.18899 0.61288 0.49578 0.0
H3336 H 0.38887 0.18669 0.49772 0.0
H3337 H 0.40212 0.18108 0.52504 0.0
H3338 H 0.36162 0.14664 0.53792 0.0
H3339 H 0.34802 0.15231 0.51047 0.0
H3340 H 0.36906 0.17052 0.56345 0.0
H3341 H 0.42758 0.1387 0.54105 0.0
H3342 H 0.42371 0.15856 0.53058 0.0
H3343 H 0.40907 0.14127 0.52778 0.0
C3344 C 0.38276 0.17781 0.50625 0.0
C3345 C 0.36732 0.16995 0.50185 0.0
C3346 C 0.39047 0.17453 0.52185 0.0
C3347 C 0.383 0.16327 0.53341 0.0
C3348 C 0.36765 0.15529 0.5291 0.0
H3349 H 0.43597 0.13361 0.62644 0.0
H3350 H 0.42062 0.13308 0.59943 0.0
C3351 C 0.35992 0.15852 0.5134 0.0
C3352 C 0.39089 0.16065 0.5503 0.0
H3353 H 0.42811 0.14949 0.56949 0.0
C3354 C 0.3819 0.16573 0.56482 0.0
C3355 C 0.40756 0.15422 0.55207 0.0
C3356 C 0.41749 0.14771 0.53706 0.0
C3357 C 0.38939 0.1652 0.58098 0.0
C3358 C 0.40641 0.1597 0.58262 0.0
C3359 C 0.41515 0.15394 0.5682 0.0
C3360 C 0.41549 0.16005 0.59912 0.0
C3361 C 0.37903 0.17056 0.59616 0.0
C3362 C 0.41793 0.17544 0.60778 0.0
C3363 C 0.42669 0.17578 0.62322 0.0
C3364 C 0.43327 0.16075 0.63021 0.0
C3365 C 0.43101 0.1454 0.6214 0.0
C3366 C 0.42224 0.14507 0.60597 0.0
H3367 H 0.3652 0.16971 0.59355 0.0
H3368 H 0.38201 0.16261 0.60741 0.0
H3369 H 0.38202 0.18395 0.59932 0.0
H3370 H 0.41317 0.18722 0.60253 0.0
H3371 H 0.42832 0.18782 0.62966 0.0
H3372 H 0.81347 0.38814 0.49727 0.0
H3373 H 0.8186 0.4016 0.52459 0.0
H3374 H 0.85388 0.36194 0.53782 0.0
H3375 H 0.84872 0.34813 0.51037 0.0
H3376 H 0.82963 0.36909 0.56324 0.0
H3377 H 0.86056 0.42797 0.54048 0.0
H3378 H 0.84083 0.4236 0.52996 0.0
H3379 H 0.85842 0.40928 0.52738 0.0
C3380 C 0.82243 0.38226 0.50588 0.0
C3381 C 0.83069 0.36701 0.50157 0.0
C3382 C 0.82542 0.39008 0.52148 0.0
C3383 C 0.8368 0.38291 0.53313 0.0
C3384 C 0.84514 0.36773 0.52893 0.0
H3385 H 0.86583 0.43643 0.62597 0.0
H3386 H 0.86646 0.42104 0.599 0.0
C3387 C 0.84219 0.35989 0.51324 0.0
C3388 C 0.83921 0.39097 0.54997 0.0
H3389 H 0.84985 0.42846 0.56892 0.0
C3390 C 0.83424 0.382 0.56453 0.0
C3391 C 0.8454 0.40774 0.55163 0.0
C3392 C 0.85177 0.41766 0.53655 0.0
C3393 C 0.83465 0.38961 0.58065 0.0
C3394 C 0.83994 0.40671 0.58217 0.0
C3395 C 0.84558 0.41543 0.5677 0.0
C3396 C 0.83951 0.41586 0.59862 0.0
C3397 C 0.82941 0.37929 0.59589 0.0
C3398 C 0.82409 0.41829 0.60722 0.0
C3399 C 0.82368 0.42709 0.62264 0.0
C3400 C 0.83868 0.4337 0.62966 0.0
C3401 C 0.85406 0.43145 0.6209 0.0
C3402 C 0.85446 0.42266 0.6055 0.0
H3403 H 0.83031 0.36545 0.59335 0.0
H3404 H 0.8374 0.38236 0.60709 0.0
H3405 H 0.81602 0.38224 0.59909 0.0
H3406 H 0.81234 0.41348 0.60195 0.0
H3407 H 0.81163 0.4287 0.62904 0.0
H3408 H 0.56339 0.13517 0.37702 0.0
H3409 H 0.57793 0.13557 0.40445 0.0
H3410 H 0.58772 0.18909 0.39859 0.0
H3411 H 0.57336 0.18876 0.371 0.0
H3412 H 0.61613 0.17037 0.40933 0.0
H3413 H 0.55939 0.156 0.44861 0.0
H3414 H 0.56341 0.14113 0.4318 0.0
H3415 H 0.55787 0.16267 0.42674 0.0
C3416 C 0.5686 0.14704 0.38158 0.0
C3417 C 0.56718 0.16195 0.37188 0.0
C3418 C 0.57684 0.14726 0.3973 0.0
C3419 C 0.58371 0.1624 0.40365 0.0
C3420 C 0.58245 0.17728 0.39392 0.0
H3421 H 0.6137 0.19016 0.50438 0.0
H3422 H 0.60025 0.18585 0.47691 0.0
C3423 C 0.57422 0.17708 0.37819 0.0
C3424 C 0.59236 0.16274 0.42038 0.0
H3425 H 0.58581 0.15689 0.46282 0.0
C3426 C 0.60954 0.16739 0.42104 0.0
C3427 C 0.58367 0.15894 0.43562 0.0
C3428 C 0.56503 0.15454 0.43576 0.0
C3429 C 0.61827 0.16842 0.43656 0.0
C3430 C 0.60962 0.16447 0.45179 0.0
C3431 C 0.59245 0.15974 0.45111 0.0
C3432 C 0.61776 0.1664 0.46866 0.0
C3433 C 0.6365 0.17426 0.43657 0.0
C3434 C 0.63197 0.15667 0.47329 0.0
C3435 C 0.63979 0.15913 0.48909 0.0
C3436 C 0.6335 0.17133 0.50052 0.0
C3437 C 0.61901 0.18072 0.49592 0.0
C3438 C 0.61123 0.17825 0.4802 0.0
H3439 H 0.64016 0.18017 0.42431 0.0
H3440 H 0.63877 0.18356 0.44692 0.0
H3441 H 0.64492 0.16318 0.43876 0.0
H3442 H 0.63703 0.14723 0.46469 0.0
H3443 H 0.65087 0.15161 0.49223 0.0
H3444 H 0.81662 0.57378 0.37242 0.0
H3445 H 0.81737 0.58882 0.3996 0.0
H3446 H 0.87143 0.58084 0.40268 0.0
H3447 H 0.87074 0.56558 0.37564 0.0
H3448 H 0.85521 0.57352 0.43256 0.0
H3449 H 0.8351 0.63655 0.40881 0.0
H3450 H 0.82068 0.61988 0.40304 0.0
H3451 H 0.84199 0.61973 0.39485 0.0
C3452 C 0.82867 0.57528 0.37886 0.0
C3453 C 0.84363 0.56857 0.37185 0.0
C3454 C 0.8291 0.58398 0.39433 0.0
C3455 C 0.84451 0.58624 0.40301 0.0
C3456 C 0.85943 0.57936 0.39613 0.0
H3457 H 0.85085 0.65365 0.49189 0.0
H3458 H 0.85713 0.6402 0.4645 0.0
C3459 C 0.85901 0.57065 0.38068 0.0
C3460 C 0.84495 0.59526 0.41955 0.0
H3461 H 0.83402 0.63247 0.43891 0.0
C3462 C 0.85074 0.58647 0.43392 0.0
C3463 C 0.83944 0.61227 0.42127 0.0
C3464 C 0.83412 0.62274 0.40614 0.0
C3465 C 0.85045 0.59397 0.45008 0.0
C3466 C 0.84393 0.6106 0.45195 0.0
C3467 C 0.83887 0.61967 0.43748 0.0
C3468 C 0.84111 0.61833 0.46889 0.0
C3469 C 0.85703 0.58397 0.46503 0.0
C3470 C 0.83001 0.61054 0.48039 0.0
C3471 C 0.8264 0.61814 0.49596 0.0
C3472 C 0.83372 0.63383 0.5004 0.0
C3473 C 0.84503 0.64155 0.48893 0.0
C3474 C 0.84861 0.63391 0.47326 0.0
H3475 H 0.8663 0.57415 0.46097 0.0
H3476 H 0.86321 0.59239 0.4745 0.0
H3477 H 0.84627 0.5774 0.4713 0.0
H3478 H 0.82379 0.59871 0.47715 0.0
H3479 H 0.81763 0.61178 0.50441 0.0
H3480 H 0.34943 0.84895 0.49264 0.0
H3481 H 0.36301 0.85313 0.46494 0.0
H3482 H 0.40212 0.81739 0.47861 0.0
H3483 H 0.38889 0.81326 0.50623 0.0
H3484 H 0.41457 0.84694 0.46322 0.0
H3485 H 0.36198 0.81788 0.42614 0.0
H3486 H 0.35608 0.83505 0.43996 0.0
H3487 H 0.36378 0.81554 0.44886 0.0
C3488 C 0.36097 0.84205 0.48979 0.0
C3489 C 0.36797 0.83067 0.50165 0.0
C3490 C 0.36865 0.84438 0.47392 0.0
C3491 C 0.38343 0.83537 0.46965 0.0
C3492 C 0.39068 0.8244 0.48162 0.0
H3493 H 0.42911 0.81146 0.37299 0.0
H3494 H 0.4149 0.81144 0.40065 0.0
C3495 C 0.38304 0.82204 0.49741 0.0
C3496 C 0.39138 0.83707 0.45267 0.0
H3497 H 0.38527 0.8285 0.41061 0.0
C3498 C 0.40814 0.84302 0.45169 0.0
C3499 C 0.38303 0.8317 0.43771 0.0
C3500 C 0.36528 0.82454 0.43812 0.0
C3501 C 0.41683 0.84367 0.43614 0.0
C3502 C 0.40842 0.83845 0.42115 0.0
C3503 C 0.39164 0.83257 0.42212 0.0
C3504 C 0.41699 0.83857 0.40439 0.0
C3505 C 0.43508 0.84946 0.43597 0.0
C3506 C 0.42274 0.85384 0.39727 0.0
C3507 C 0.43091 0.85387 0.38152 0.0
C3508 C 0.43336 0.83864 0.37254 0.0
C3509 C 0.42744 0.82338 0.37962 0.0
C3510 C 0.41929 0.82336 0.39539 0.0
H3511 H 0.44084 0.84906 0.44884 0.0
H3512 H 0.44282 0.84147 0.42732 0.0
H3513 H 0.43568 0.86275 0.43136 0.0
H3514 H 0.42082 0.86576 0.40385 0.0
H3515 H 0.43523 0.86585 0.37635 0.0
H3516 H 0.13406 0.43665 0.37713 0.0
H3517 H 0.13407 0.42193 0.40445 0.0
H3518 H 0.18827 0.41523 0.40094 0.0
H3519 H 0.18834 0.42974 0.37342 0.0
H3520 H 0.17103 0.38581 0.41076 0.0
H3521 H 0.15099 0.44116 0.44955 0.0
H3522 H 0.13714 0.43627 0.43212 0.0
H3523 H 0.15845 0.44328 0.42799 0.0
C3524 C 0.14601 0.4321 0.3822 0.0
C3525 C 0.16122 0.43442 0.37317 0.0
C3526 C 0.14599 0.42375 0.39785 0.0
C3527 C 0.1612 0.41769 0.40484 0.0
C3528 C 0.1764 0.41986 0.39579 0.0
H3529 H 0.18661 0.38911 0.50633 0.0
H3530 H 0.18222 0.40238 0.4788 0.0
C3531 C 0.17642 0.42819 0.3801 0.0
C3532 C 0.16126 0.40894 0.42152 0.0
H3533 H 0.15285 0.41472 0.46364 0.0
C3534 C 0.16702 0.39209 0.42233 0.0
C3535 C 0.1561 0.41722 0.43659 0.0
C3536 C 0.15046 0.43552 0.43663 0.0
C3537 C 0.16786 0.38333 0.43784 0.0
C3538 C 0.16257 0.39157 0.45289 0.0
C3539 C 0.15671 0.40837 0.45205 0.0
C3540 C 0.16441 0.38353 0.46982 0.0
C3541 C 0.17493 0.36553 0.43807 0.0
C3542 C 0.15559 0.36863 0.47408 0.0
C3543 C 0.15809 0.3609 0.48992 0.0
C3544 C 0.16945 0.36798 0.50176 0.0
C3545 C 0.17786 0.38318 0.49754 0.0
C3546 C 0.17534 0.39085 0.48179 0.0
H3547 H 0.18155 0.36232 0.42604 0.0
H3548 H 0.18396 0.36389 0.44877 0.0
H3549 H 0.16439 0.35637 0.43983 0.0
H3550 H 0.14686 0.36293 0.46513 0.0
H3551 H 0.15136 0.34927 0.49276 0.0
H3552 H 0.6252 0.56684 0.86671 0.0
H3553 H 0.59787 0.58161 0.86676 0.0
H3554 H 0.60156 0.58884 0.81264 0.0
H3555 H 0.62901 0.57426 0.8125 0.0
H3556 H 0.59185 0.61823 0.83052 0.0
H3557 H 0.55279 0.56246 0.84892 0.0
H3558 H 0.57024 0.56709 0.86286 0.0
H3559 H 0.57435 0.56046 0.84143 0.0
C3560 C 0.62017 0.57154 0.85481 0.0
C3561 C 0.62922 0.56933 0.83958 0.0
C3562 C 0.60453 0.57991 0.85486 0.0
C3563 C 0.5976 0.58614 0.83968 0.0
C3564 C 0.60668 0.58409 0.82449 0.0
H3565 H 0.49688 0.61497 0.81206 0.0
H3566 H 0.52437 0.60176 0.8169 0.0
C3567 C 0.62233 0.57573 0.82442 0.0
C3568 C 0.58093 0.59489 0.83958 0.0
H3569 H 0.53863 0.58879 0.84674 0.0
C3570 C 0.58021 0.61184 0.83413 0.0
C3571 C 0.56578 0.58647 0.84421 0.0
C3572 C 0.56571 0.56807 0.84956 0.0
C3573 C 0.5647 0.62056 0.83302 0.0
C3574 C 0.54954 0.61214 0.83771 0.0
C3575 C 0.5503 0.59525 0.84332 0.0
C3576 C 0.53265 0.62015 0.83552 0.0
C3577 C 0.56457 0.63848 0.82629 0.0
C3578 C 0.52803 0.63478 0.8446 0.0
C3579 C 0.51222 0.64246 0.84185 0.0
C3580 C 0.50077 0.63561 0.82997 0.0
C3581 C 0.50536 0.62071 0.82123 0.0
C3582 C 0.52109 0.61308 0.824 0.0
H3583 H 0.57679 0.64191 0.82015 0.0
H3584 H 0.55417 0.64021 0.81693 0.0
H3585 H 0.56236 0.64743 0.83694 0.0
H3586 H 0.53667 0.64028 0.85376 0.0
H3587 H 0.50908 0.65386 0.84886 0.0
H3588 H 0.44412 0.62228 0.86286 0.0
H3589 H 0.43029 0.5945 0.86257 0.0
H3590 H 0.40756 0.60632 0.81416 0.0
H3591 H 0.42201 0.63381 0.81405 0.0
H3592 H 0.3983 0.58534 0.86266 0.0
H3593 H 0.42772 0.56124 0.80362 0.0
H3594 H 0.43477 0.58047 0.81379 0.0
H3595 H 0.41642 0.58066 0.80013 0.0
C3596 C 0.43627 0.61889 0.8521 0.0
C3597 C 0.43425 0.63013 0.8384 0.0
C3598 C 0.42833 0.60303 0.85196 0.0
C3599 C 0.4181 0.59814 0.83821 0.0
C3600 C 0.41578 0.60955 0.82468 0.0
H3601 H 0.34529 0.51443 0.84041 0.0
H3602 H 0.35924 0.54204 0.84344 0.0
C3603 C 0.42396 0.6253 0.82468 0.0
C3604 C 0.40973 0.58122 0.83816 0.0
H3605 H 0.40446 0.54535 0.81448 0.0
C3606 C 0.39973 0.57654 0.85217 0.0
C3607 C 0.41181 0.5696 0.82462 0.0
C3608 C 0.42341 0.57316 0.80979 0.0
C3609 C 0.39164 0.56066 0.85294 0.0
C3610 C 0.39309 0.54936 0.83904 0.0
C3611 C 0.40319 0.55402 0.8251 0.0
C3612 C 0.38458 0.53249 0.83863 0.0
C3613 C 0.382 0.55604 0.86883 0.0
C3614 C 0.39407 0.51791 0.83471 0.0
C3615 C 0.38605 0.50227 0.83253 0.0
C3616 C 0.3684 0.50078 0.83447 0.0
C3617 C 0.35894 0.51518 0.83905 0.0
C3618 C 0.36694 0.53096 0.84088 0.0
H3619 H 0.38664 0.56334 0.87997 0.0
H3620 H 0.36839 0.55917 0.86705 0.0
H3621 H 0.3831 0.5423 0.8717 0.0
H3622 H 0.40768 0.5187 0.83296 0.0
H3623 H 0.39367 0.49135 0.82907 0.0
H3624 H 0.37087 0.42655 0.81474 0.0
H3625 H 0.39824 0.41179 0.81488 0.0
H3626 H 0.40546 0.42535 0.8674 0.0
H3627 H 0.37806 0.44008 0.8674 0.0
H3628 H 0.43408 0.43183 0.84488 0.0
H3629 H 0.40915 0.36608 0.84001 0.0
H3630 H 0.40051 0.3809 0.82495 0.0
H3631 H 0.39635 0.3837 0.84718 0.0
C3632 C 0.37826 0.42636 0.82632 0.0
C3633 C 0.37229 0.43441 0.84108 0.0
C3634 C 0.39384 0.41785 0.82641 0.0
C3635 C 0.40373 0.41731 0.84121 0.0
C3636 C 0.39793 0.42554 0.85589 0.0
H3637 H 0.4943 0.35306 0.85158 0.0
H3638 H 0.4671 0.36717 0.85714 0.0
C3639 C 0.38229 0.43394 0.85586 0.0
C3640 C 0.42035 0.40852 0.84119 0.0
H3641 H 0.43881 0.36969 0.83575 0.0
C3642 C 0.43514 0.41823 0.84303 0.0
C3643 C 0.42164 0.39075 0.83904 0.0
C3644 C 0.40609 0.37967 0.83783 0.0
C3645 C 0.45127 0.41071 0.84211 0.0
C3646 C 0.4526 0.39305 0.83909 0.0
C3647 C 0.43777 0.38324 0.83794 0.0
C3648 C 0.46922 0.38471 0.83612 0.0
C3649 C 0.46674 0.42177 0.8443 0.0
C3650 C 0.47929 0.38975 0.82236 0.0
C3651 C 0.49478 0.38179 0.81917 0.0
C3652 C 0.50052 0.36844 0.82959 0.0
C3653 C 0.49032 0.36331 0.84333 0.0
C3654 C 0.47477 0.37134 0.84652 0.0
H3655 H 0.46372 0.43353 0.85147 0.0
H3656 H 0.47703 0.41488 0.85103 0.0
H3657 H 0.47154 0.42558 0.83162 0.0
H3658 H 0.47507 0.39975 0.81393 0.0
H3659 H 0.50216 0.38605 0.80839 0.0
H3660 H 0.57214 0.37402 0.81134 0.0
H3661 H 0.58692 0.40137 0.81177 0.0
H3662 H 0.58037 0.4042 0.86604 0.0
H3663 H 0.56536 0.37705 0.86568 0.0
H3664 H 0.57231 0.43402 0.85015 0.0
H3665 H 0.63505 0.41086 0.82832 0.0
H3666 H 0.61797 0.40523 0.81433 0.0
H3667 H 0.61851 0.39673 0.83552 0.0
C3668 C 0.57389 0.38046 0.82336 0.0
C3669 C 0.56765 0.37336 0.83848 0.0
C3670 C 0.58244 0.39603 0.82361 0.0
C3671 C 0.58502 0.40468 0.83899 0.0
C3672 C 0.57862 0.39769 0.85406 0.0
H3673 H 0.6523 0.49302 0.84855 0.0
H3674 H 0.63869 0.46542 0.85324 0.0
C3675 C 0.57005 0.38217 0.85382 0.0
C3676 C 0.59393 0.42127 0.83932 0.0
H3677 H 0.63102 0.4409 0.82848 0.0
C3678 C 0.58519 0.4355 0.84553 0.0
C3679 C 0.61084 0.42313 0.83359 0.0
C3680 C 0.62122 0.40815 0.82772 0.0
C3681 C 0.5927 0.45166 0.8456 0.0
C3682 C 0.60929 0.45367 0.83903 0.0
C3683 C 0.61825 0.43935 0.83339 0.0
C3684 C 0.61716 0.47063 0.83701 0.0
C3685 C 0.5828 0.46643 0.85269 0.0
C3686 C 0.6096 0.48266 0.82631 0.0
C3687 C 0.6173 0.49837 0.82359 0.0
C3688 C 0.63283 0.5024 0.83146 0.0
C3689 C 0.64032 0.49038 0.84235 0.0
C3690 C 0.63259 0.47459 0.84501 0.0
H3691 H 0.5728 0.46213 0.86165 0.0
H3692 H 0.59127 0.4755 0.85938 0.0
H3693 H 0.57649 0.47327 0.84212 0.0
H3694 H 0.59787 0.47976 0.81974 0.0
H3695 H 0.61114 0.50726 0.81511 0.0
H3696 H 0.49163 0.39402 0.17483 0.0
H3697 H 0.51902 0.40799 0.17097 0.0
H3698 H 0.54227 0.3595 0.16052 0.0
H3699 H 0.51462 0.3456 0.1635 0.0
H3700 H 0.54567 0.40486 0.18938 0.0
H3701 H 0.56363 0.3867 0.12397 0.0
H3702 H 0.54259 0.38319 0.13225 0.0
H3703 H 0.55948 0.36851 0.13698 0.0
C3704 C 0.50254 0.38639 0.17138 0.0
C3705 C 0.50101 0.36874 0.16942 0.0
C3706 C 0.5182 0.39437 0.16922 0.0
C3707 C 0.53277 0.38487 0.16531 0.0
C3708 C 0.5312 0.36722 0.16307 0.0
H3709 H 0.63407 0.42293 0.18954 0.0
H3710 H 0.60667 0.40831 0.18963 0.0
C3711 C 0.5154 0.35926 0.16486 0.0
C3712 C 0.54965 0.39336 0.16487 0.0
H3713 H 0.58561 0.39849 0.14121 0.0
C3714 C 0.55433 0.40355 0.17876 0.0
C3715 C 0.56095 0.39184 0.15098 0.0
C3716 C 0.55634 0.38211 0.13514 0.0
C3717 C 0.56989 0.4122 0.17918 0.0
C3718 C 0.5815 0.41007 0.16564 0.0
C3719 C 0.57682 0.39997 0.15169 0.0
C3720 C 0.59838 0.41854 0.16548 0.0
C3721 C 0.57343 0.4239 0.19393 0.0
C3722 C 0.60319 0.42864 0.15161 0.0
C3723 C 0.61901 0.43666 0.15136 0.0
C3724 C 0.63029 0.43487 0.16506 0.0
C3725 C 0.62554 0.42471 0.17891 0.0
C3726 C 0.60983 0.41644 0.17901 0.0
H3727 H 0.5615 0.42822 0.20009 0.0
H3728 H 0.58097 0.41701 0.20362 0.0
H3729 H 0.58069 0.43527 0.18985 0.0
H3730 H 0.59463 0.43044 0.14099 0.0
H3731 H 0.62234 0.44442 0.14051 0.0
H3732 H 0.65345 0.50991 0.15373 0.0
H3733 H 0.63966 0.53734 0.14852 0.0
H3734 H 0.60085 0.52487 0.185 0.0
H3735 H 0.61427 0.49753 0.19015 0.0
H3736 H 0.58809 0.53894 0.15497 0.0
H3737 H 0.64062 0.57757 0.18206 0.0
H3738 H 0.64643 0.56313 0.16537 0.0
H3739 H 0.63905 0.55495 0.18532 0.0
C3740 C 0.64194 0.51297 0.16059 0.0
C3741 C 0.63507 0.50152 0.17246 0.0
C3742 C 0.63414 0.52869 0.15766 0.0
C3743 C 0.61937 0.53322 0.16656 0.0
C3744 C 0.61227 0.52166 0.17805 0.0
H3745 H 0.57275 0.62936 0.18891 0.0
H3746 H 0.58743 0.60197 0.18895 0.0
C3747 C 0.62003 0.50602 0.181 0.0
C3748 C 0.61126 0.55005 0.16423 0.0
H3749 H 0.61694 0.59242 0.1714 0.0
C3750 C 0.59442 0.55066 0.15842 0.0
C3751 C 0.6195 0.56528 0.16897 0.0
C3752 C 0.63735 0.56531 0.17591 0.0
C3753 C 0.58553 0.56607 0.15741 0.0
C3754 C 0.59379 0.58131 0.1621 0.0
C3755 C 0.61068 0.58072 0.16774 0.0
C3756 C 0.5849 0.5979 0.1619 0.0
C3757 C 0.56719 0.56584 0.15187 0.0
C3758 C 0.57872 0.60475 0.14667 0.0
C3759 C 0.57028 0.62037 0.14662 0.0
C3760 C 0.56797 0.62946 0.1618 0.0
C3761 C 0.5743 0.62264 0.17702 0.0
C3762 C 0.58272 0.60702 0.17706 0.0
H3763 H 0.56167 0.55289 0.1525 0.0
H3764 H 0.55943 0.57446 0.15988 0.0
H3765 H 0.56632 0.57031 0.13854 0.0
H3766 H 0.58053 0.59807 0.13479 0.0
H3767 H 0.56564 0.62534 0.13468 0.0
H3768 H 0.48822 0.6565 0.16251 0.0
H3769 H 0.46032 0.6429 0.16017 0.0
H3770 H 0.48273 0.5947 0.17333 0.0
H3771 H 0.51037 0.60836 0.17648 0.0
H3772 H 0.44671 0.61871 0.14168 0.0
H3773 H 0.44664 0.59736 0.20852 0.0
H3774 H 0.46254 0.61159 0.20029 0.0
H3775 H 0.46448 0.589 0.19719 0.0
C3776 C 0.48718 0.64298 0.16478 0.0
C3777 C 0.5014 0.63352 0.16992 0.0
C3778 C 0.47123 0.63523 0.16348 0.0
C3779 C 0.4693 0.61786 0.16709 0.0
C3780 C 0.48374 0.60823 0.17113 0.0
H3781 H 0.38097 0.55683 0.14098 0.0
H3782 H 0.4083 0.57149 0.14149 0.0
C3783 C 0.49957 0.61602 0.17278 0.0
C3784 C 0.45221 0.60985 0.16695 0.0
H3785 H 0.42547 0.58528 0.19059 0.0
C3786 C 0.44201 0.6115 0.15242 0.0
C3787 C 0.44586 0.60075 0.1811 0.0
C3788 C 0.45538 0.59973 0.19771 0.0
C3789 C 0.42585 0.604 0.15151 0.0
C3790 C 0.41996 0.59404 0.16528 0.0
C3791 C 0.43003 0.5927 0.17993 0.0
C3792 C 0.40337 0.585 0.16493 0.0
C3793 C 0.41515 0.60722 0.13595 0.0
C3794 C 0.39175 0.58704 0.17831 0.0
C3795 C 0.37632 0.57827 0.17829 0.0
C3796 C 0.37213 0.56743 0.16477 0.0
C3797 C 0.38379 0.56527 0.15146 0.0
C3798 C 0.39935 0.57379 0.15165 0.0
H3799 H 0.41884 0.61924 0.12957 0.0
H3800 H 0.4171 0.59674 0.12674 0.0
H3801 H 0.40145 0.60789 0.13916 0.0
H3802 H 0.39457 0.59552 0.18877 0.0
H3803 H 0.36757 0.58017 0.18871 0.0
H3804 H 0.43195 0.37424 0.19013 0.0
H3805 H 0.41726 0.4017 0.18994 0.0
H3806 H 0.42004 0.40301 0.13534 0.0
H3807 H 0.43482 0.37562 0.13536 0.0
H3808 H 0.43206 0.43452 0.1665 0.0
H3809 H 0.36662 0.40955 0.15647 0.0
H3810 H 0.38211 0.39743 0.16828 0.0
H3811 H 0.38456 0.40003 0.14584 0.0
C3812 C 0.42944 0.38037 0.17808 0.0
C3813 C 0.43453 0.37277 0.16276 0.0
C3814 C 0.42106 0.39602 0.178 0.0
C3815 C 0.41754 0.40425 0.16262 0.0
C3816 C 0.42262 0.39677 0.14731 0.0
H3817 H 0.35575 0.49625 0.14894 0.0
H3818 H 0.37053 0.4693 0.14366 0.0
C3819 C 0.43107 0.38115 0.14737 0.0
C3820 C 0.40878 0.42084 0.16264 0.0
H3821 H 0.3695 0.439 0.1607 0.0
C3822 C 0.4184 0.43557 0.16514 0.0
C3823 C 0.39102 0.42208 0.16058 0.0
C3824 C 0.38033 0.40649 0.15763 0.0
C3825 C 0.41064 0.45158 0.16601 0.0
C3826 C 0.39274 0.4528 0.1648 0.0
C3827 C 0.38319 0.43807 0.16172 0.0
C3828 C 0.38368 0.46907 0.16778 0.0
C3829 C 0.42175 0.46704 0.16817 0.0
C3830 C 0.38587 0.47768 0.1832 0.0
C3831 C 0.37761 0.49304 0.18618 0.0
C3832 C 0.36668 0.50008 0.17392 0.0
C3833 C 0.36411 0.49122 0.15862 0.0
C3834 C 0.37255 0.47583 0.15559 0.0
H3835 H 0.43474 0.46475 0.1632 0.0
H3836 H 0.41631 0.47824 0.16159 0.0
H3837 H 0.4229 0.47003 0.18189 0.0
H3838 H 0.39396 0.47247 0.19302 0.0
H3839 H 0.37972 0.49932 0.19822 0.0
H3840 H 0.84741 0.51055 0.65369 0.0
H3841 H 0.85219 0.53829 0.64034 0.0
H3842 H 0.82063 0.52352 0.59814 0.0
H3843 H 0.81596 0.4959 0.61113 0.0
H3844 H 0.85054 0.53984 0.58833 0.0
H3845 H 0.8158 0.57595 0.63808 0.0
H3846 H 0.83289 0.56274 0.64543 0.0
H3847 H 0.8144 0.55316 0.63619 0.0
C3848 C 0.8416 0.51317 0.64151 0.0
C3849 C 0.83117 0.50102 0.63358 0.0
C3850 C 0.84425 0.52906 0.63396 0.0
C3851 C 0.83654 0.53304 0.61838 0.0
C3852 C 0.82663 0.52075 0.61021 0.0
H3853 H 0.81169 0.62805 0.57029 0.0
H3854 H 0.81214 0.60062 0.58493 0.0
C3855 C 0.82394 0.50495 0.61771 0.0
C3856 C 0.83837 0.55006 0.61054 0.0
H3857 H 0.82742 0.59172 0.61549 0.0
C3858 C 0.84562 0.55122 0.59431 0.0
C3859 C 0.83169 0.56483 0.61828 0.0
C3860 C 0.82312 0.5642 0.6354 0.0
C3861 C 0.84623 0.56671 0.58552 0.0
C3862 C 0.83964 0.5815 0.5933 0.0
C3863 C 0.83253 0.58038 0.6096 0.0
C3864 C 0.83949 0.59816 0.5845 0.0
C3865 C 0.85339 0.56699 0.56775 0.0
C3866 C 0.85472 0.60594 0.57954 0.0
C3867 C 0.85448 0.62154 0.5711 0.0
C3868 C 0.83902 0.62974 0.56761 0.0
C3869 C 0.82379 0.62203 0.57276 0.0
C3870 C 0.82404 0.60639 0.58116 0.0
H3871 H 0.85398 0.55406 0.56213 0.0
H3872 H 0.84565 0.57521 0.55932 0.0
H3873 H 0.86648 0.57216 0.56812 0.0
H3874 H 0.8668 0.59999 0.58229 0.0
H3875 H 0.86644 0.62722 0.56741 0.0
H3876 H 0.82847 0.51137 0.39444 0.0
H3877 H 0.83172 0.48395 0.40852 0.0
H3878 H 0.84323 0.46058 0.36032 0.0
H3879 H 0.84085 0.48823 0.34634 0.0
H3880 H 0.81356 0.45711 0.40514 0.0
H3881 H 0.87943 0.43964 0.38825 0.0
H3882 H 0.87105 0.4606 0.38454 0.0
H3883 H 0.86676 0.44366 0.36979 0.0
C3884 C 0.832 0.50043 0.3869 0.0
C3885 C 0.8345 0.50194 0.36931 0.0
C3886 C 0.83381 0.48474 0.39495 0.0
C3887 C 0.83791 0.47015 0.38556 0.0
C3888 C 0.84055 0.47168 0.36797 0.0
H3889 H 0.81395 0.36855 0.42294 0.0
H3890 H 0.81372 0.39609 0.40859 0.0
C3891 C 0.83911 0.48748 0.35996 0.0
C3892 C 0.83829 0.45329 0.39409 0.0
H3893 H 0.86213 0.41752 0.39963 0.0
C3894 C 0.82426 0.44852 0.40402 0.0
C3895 C 0.8523 0.4421 0.39283 0.0
C3896 C 0.86829 0.44683 0.38343 0.0
C3897 C 0.82381 0.43295 0.41266 0.0
C3898 C 0.83747 0.42144 0.41077 0.0
C3899 C 0.85155 0.42623 0.40093 0.0
C3900 C 0.83763 0.40455 0.41921 0.0
C3901 C 0.80887 0.42928 0.42408 0.0
C3902 C 0.85142 0.39981 0.42947 0.0
C3903 C 0.85176 0.38391 0.43733 0.0
C3904 C 0.83823 0.37249 0.43522 0.0
C3905 C 0.82445 0.37719 0.42495 0.0
C3906 C 0.82426 0.39298 0.41683 0.0
H3907 H 0.80255 0.44116 0.4283 0.0
H3908 H 0.79937 0.42168 0.41699 0.0
H3909 H 0.81279 0.42202 0.4355 0.0
H3910 H 0.86191 0.40846 0.43148 0.0
H3911 H 0.86255 0.38063 0.44518 0.0
H3912 H 0.50854 0.84966 0.34981 0.0
H3913 H 0.53602 0.85466 0.36357 0.0
H3914 H 0.5235 0.81793 0.40213 0.0
H3915 H 0.49612 0.813 0.38874 0.0
H3916 H 0.53781 0.84772 0.41511 0.0
H3917 H 0.57605 0.82094 0.36214 0.0
H3918 H 0.5617 0.83778 0.35656 0.0
H3919 H 0.55342 0.8178 0.36376 0.0
C3920 C 0.5116 0.84271 0.36126 0.0
C3921 C 0.50012 0.83083 0.36806 0.0
C3922 C 0.52735 0.84552 0.36905 0.0
C3923 C 0.53189 0.83648 0.38374 0.0
C3924 C 0.52029 0.82499 0.39078 0.0
H3925 H 0.62814 0.81316 0.42975 0.0
H3926 H 0.60064 0.81336 0.41526 0.0
C3927 C 0.50462 0.82216 0.38303 0.0
C3928 C 0.54876 0.83863 0.3918 0.0
H3929 H 0.59106 0.83125 0.38587 0.0
C3930 C 0.54948 0.84425 0.4087 0.0
C3931 C 0.56393 0.83387 0.38345 0.0
C3932 C 0.56384 0.82713 0.36552 0.0
C3933 C 0.56493 0.84507 0.41754 0.0
C3934 C 0.5801 0.84037 0.40917 0.0
C3935 C 0.57941 0.83491 0.39222 0.0
C3936 C 0.59674 0.84041 0.41798 0.0
C3937 C 0.56482 0.85043 0.43593 0.0
C3938 C 0.60371 0.85556 0.4242 0.0
C3939 C 0.61939 0.85547 0.43253 0.0
C3940 C 0.62843 0.84023 0.43468 0.0
C3941 C 0.62147 0.82509 0.42833 0.0
C3942 C 0.60579 0.82519 0.42001 0.0
H3943 H 0.55189 0.84984 0.4415 0.0
H3944 H 0.57341 0.84228 0.44358 0.0
H3945 H 0.56939 0.86371 0.43692 0.0
H3946 H 0.59708 0.86749 0.42252 0.0
H3947 H 0.62446 0.86737 0.43719 0.0
H3948 H 0.13478 0.6274 0.43366 0.0
H3949 H 0.13473 0.59995 0.41901 0.0
H3950 H 0.18935 0.60097 0.41666 0.0
H3951 H 0.18956 0.62852 0.43117 0.0
H3952 H 0.15657 0.59273 0.38386 0.0
H3953 H 0.16912 0.55409 0.44174 0.0
H3954 H 0.15794 0.57409 0.4427 0.0
H3955 H 0.18036 0.57383 0.43898 0.0
C3956 C 0.14679 0.6218 0.43001 0.0
C3957 C 0.16219 0.63011 0.43357 0.0
C3958 C 0.14671 0.60616 0.42162 0.0
C3959 C 0.16202 0.59852 0.41681 0.0
C3960 C 0.17741 0.60674 0.42031 0.0
H3961 H 0.19595 0.50313 0.37878 0.0
H3962 H 0.19139 0.53056 0.39211 0.0
C3963 C 0.17751 0.62244 0.42859 0.0
C3964 C 0.16199 0.58181 0.40827 0.0
H3965 H 0.16871 0.5397 0.41556 0.0
C3966 C 0.1591 0.58107 0.39073 0.0
C3967 C 0.1653 0.56676 0.41736 0.0
C3968 C 0.16831 0.56705 0.43627 0.0
C3969 C 0.16002 0.5656 0.38188 0.0
C3970 C 0.16352 0.55047 0.39095 0.0
C3971 C 0.16599 0.55127 0.4086 0.0
C3972 C 0.16594 0.53386 0.38234 0.0
C3973 C 0.15792 0.56571 0.36284 0.0
C3974 C 0.15312 0.52647 0.37237 0.0
C3975 C 0.15576 0.51071 0.36449 0.0
C3976 C 0.17117 0.50197 0.36671 0.0
C3977 C 0.18387 0.5094 0.37684 0.0
C3978 C 0.1813 0.52513 0.3845 0.0
H3979 H 0.15944 0.57866 0.35747 0.0
H3980 H 0.16728 0.55717 0.35668 0.0
H3981 H 0.145 0.56117 0.35957 0.0
H3982 H 0.14101 0.53277 0.37082 0.0
H3983 H 0.14568 0.5053 0.35688 0.0
H3984 H 0.49136 0.154 0.35004 0.0
H3985 H 0.46382 0.15033 0.36404 0.0
H3986 H 0.47805 0.18712 0.40196 0.0
H3987 H 0.50554 0.19078 0.38827 0.0
H3988 H 0.46304 0.15755 0.41534 0.0
H3989 H 0.42483 0.1855 0.36298 0.0
H3990 H 0.43872 0.16839 0.35705 0.0
H3991 H 0.44755 0.18808 0.36438 0.0
C3992 C 0.48866 0.16127 0.36139 0.0
C3993 C 0.50067 0.17277 0.36794 0.0
C3994 C 0.47288 0.15923 0.36931 0.0
C3995 C 0.46883 0.16863 0.38389 0.0
C3996 C 0.4809 0.17979 0.39067 0.0
H3997 H 0.37223 0.19118 0.43071 0.0
H3998 H 0.3998 0.19177 0.41635 0.0
C3999 C 0.49662 0.18188 0.38277 0.0
C4000 C 0.45202 0.167 0.3922 0.0
H4001 H 0.40975 0.17475 0.38655 0.0
C4002 C 0.45137 0.16123 0.40904 0.0
C4003 C 0.43687 0.17204 0.38399 0.0
C4004 C 0.43693 0.17899 0.36615 0.0
C4005 C 0.43595 0.16036 0.41792 0.0
C4006 C 0.42076 0.1652 0.40965 0.0
C4007 C 0.42141 0.17097 0.39281 0.0
C4008 C 0.4041 0.16473 0.4184 0.0
C4009 C 0.4361 0.1547 0.43622 0.0
C4010 C 0.39734 0.14931 0.42418 0.0
C4011 C 0.38163 0.14894 0.43242 0.0
C4012 C 0.37235 0.16398 0.43492 0.0
C4013 C 0.3791 0.17939 0.42901 0.0
C4014 C 0.39482 0.17975 0.42077 0.0
H4015 H 0.44902 0.15538 0.44182 0.0
H4016 H 0.42739 0.16259 0.444 0.0
H4017 H 0.43173 0.14134 0.43697 0.0
H4018 H 0.40415 0.13754 0.42222 0.0
H4019 H 0.37672 0.13685 0.43675 0.0
H4020 H 0.18748 0.50467 0.61244 0.0
H4021 H 0.18193 0.47726 0.59935 0.0
H4022 H 0.14793 0.46435 0.64021 0.0
H4023 H 0.15354 0.49189 0.65364 0.0
H4024 H 0.17196 0.43893 0.63261 0.0
H4025 H 0.13928 0.461 0.5744 0.0
H4026 H 0.15912 0.47158 0.57806 0.0
H4027 H 0.14197 0.47432 0.59287 0.0
C4028 C 0.17871 0.49611 0.61866 0.0
C4029 C 0.17096 0.50054 0.63414 0.0
C4030 C 0.17547 0.48046 0.61105 0.0
C4031 C 0.16434 0.46887 0.61867 0.0
C4032 C 0.15648 0.47319 0.63407 0.0
H4033 H 0.13391 0.37568 0.56663 0.0
H4034 H 0.13371 0.40277 0.58182 0.0
C4035 C 0.15967 0.48894 0.6417 0.0
C4036 C 0.16173 0.45195 0.61087 0.0
H4037 H 0.15005 0.43257 0.5739 0.0
C4038 C 0.16698 0.43749 0.61985 0.0
C4039 C 0.15506 0.45009 0.5943 0.0
C4040 C 0.14837 0.46505 0.58439 0.0
C4041 C 0.16637 0.42129 0.61244 0.0
C4042 C 0.16059 0.41957 0.59551 0.0
C4043 C 0.15469 0.43394 0.58679 0.0
C4044 C 0.16076 0.40302 0.58653 0.0
C4045 C 0.1719 0.40617 0.6228 0.0
C4046 C 0.17607 0.39428 0.58392 0.0
C4047 C 0.17622 0.37878 0.57526 0.0
C4048 C 0.16107 0.37182 0.56894 0.0
C4049 C 0.14579 0.3807 0.57138 0.0
C4050 C 0.14565 0.39618 0.58006 0.0
H4051 H 0.17129 0.40886 0.63663 0.0
H4052 H 0.16391 0.3949 0.62002 0.0
H4053 H 0.18525 0.40301 0.6196 0.0
H4054 H 0.18794 0.39952 0.58845 0.0
H4055 H 0.18821 0.37229 0.57348 0.0
H4056 H 0.63443 0.186 0.58085 0.0
H4057 H 0.60747 0.18631 0.59623 0.0
H4058 H 0.59269 0.13986 0.57121 0.0
H4059 H 0.62002 0.13906 0.55653 0.0
H4060 H 0.57672 0.18913 0.58606 0.0
H4061 H 0.58162 0.12717 0.61857 0.0
H4062 H 0.59929 0.13653 0.60745 0.0
H4063 H 0.5833 0.12481 0.59601 0.0
C4064 C 0.62546 0.1758 0.57875 0.0
C4065 C 0.62935 0.16244 0.56762 0.0
C4066 C 0.61005 0.17597 0.58754 0.0
C4067 C 0.59813 0.1629 0.58521 0.0
C4068 C 0.60187 0.14977 0.57373 0.0
H4069 H 0.4914 0.17657 0.60858 0.0
H4070 H 0.51901 0.17314 0.59496 0.0
C4071 C 0.61743 0.14941 0.56521 0.0
C4072 C 0.58153 0.16348 0.59422 0.0
H4073 H 0.55409 0.14004 0.61829 0.0
C4074 C 0.57187 0.17842 0.59321 0.0
C4075 C 0.57525 0.14964 0.60384 0.0
C4076 C 0.5855 0.13372 0.6067 0.0
C4077 C 0.55606 0.17984 0.60128 0.0
C4078 C 0.54931 0.16565 0.61002 0.0
C4079 C 0.5591 0.15082 0.61134 0.0
C4080 C 0.53221 0.16607 0.618 0.0
C4081 C 0.547 0.19672 0.60065 0.0
C4082 C 0.53015 0.16213 0.63528 0.0
C4083 C 0.51421 0.16362 0.64302 0.0
C4084 C 0.50013 0.16926 0.63364 0.0
C4085 C 0.50209 0.17247 0.6162 0.0
C4086 C 0.5179 0.17066 0.60842 0.0
H4087 H 0.55603 0.20734 0.59855 0.0
H4088 H 0.53789 0.1967 0.58991 0.0
H4089 H 0.5399 0.1992 0.61257 0.0
H4090 H 0.54096 0.1584 0.64291 0.0
H4091 H 0.51308 0.16105 0.65648 0.0
H4092 H 0.49241 0.85085 0.65274 0.0
H4093 H 0.46475 0.85504 0.63906 0.0
H4094 H 0.47858 0.81937 0.59994 0.0
H4095 H 0.50615 0.81526 0.61324 0.0
H4096 H 0.46311 0.84861 0.58738 0.0
H4097 H 0.426 0.81992 0.64011 0.0
H4098 H 0.4397 0.83721 0.64594 0.0
H4099 H 0.44874 0.81767 0.63843 0.0
C4100 C 0.48961 0.84398 0.64116 0.0
C4101 C 0.5015 0.83261 0.63419 0.0
C4102 C 0.47375 0.84631 0.63343 0.0
C4103 C 0.46952 0.83731 0.61863 0.0
C4104 C 0.48154 0.82638 0.61139 0.0
H4105 H 0.37289 0.81288 0.57309 0.0
H4106 H 0.40051 0.81305 0.5874 0.0
C4107 C 0.49732 0.82403 0.61908 0.0
C4108 C 0.45255 0.83895 0.61064 0.0
H4109 H 0.41049 0.83038 0.61674 0.0
C4110 C 0.45158 0.84474 0.59382 0.0
C4111 C 0.43758 0.83363 0.619 0.0
C4112 C 0.43796 0.82662 0.63682 0.0
C4113 C 0.43605 0.84527 0.58508 0.0
C4114 C 0.42105 0.84012 0.5935 0.0
C4115 C 0.422 0.83441 0.61035 0.0
C4116 C 0.4043 0.84013 0.58489 0.0
C4117 C 0.43592 0.85085 0.56676 0.0
C4118 C 0.39721 0.85531 0.57887 0.0
C4119 C 0.3815 0.85524 0.57064 0.0
C4120 C 0.3725 0.83999 0.5684 0.0
C4121 C 0.37953 0.82482 0.5746 0.0
C4122 C 0.39528 0.8249 0.5828 0.0
H4123 H 0.4488 0.85034 0.56103 0.0
H4124 H 0.42726 0.8428 0.5591 0.0
H4125 H 0.43136 0.86415 0.566 0.0
H4126 H 0.4038 0.86725 0.58062 0.0
H4127 H 0.37636 0.86716 0.56611 0.0
loop_
_geom_bond_atom_site_label_1
_geom_bond_atom_site_label_2
_geom_bond_distance
_geom_bond_site_symmetry_2
_ccdc_geom_bond_type
Co0 O1 2.216 . S
Co0 O2 2.091 . S
Co0 O4 2.004 . S
Co0 O10 2.021 . S
Co0 O12 2.137 . S
Co0 O13 2.244 . S
O1 Co0 2.216 . S
O1 C8 1.247 . S
O2 Co0 2.091 . S
O2 C8 1.261 . S
C3 O12 1.247 . S
C3 O13 1.272 . S
O4 Co0 2.004 . S
O4 C9 1.259 . S
Co5 O6 2.061 . S
Co5 O11 2.052 . S
Co5 O13 2.135 . S
O6 Co5 2.061 . S
O6 C9 1.235 . S
C7 O10 1.238 . S
C7 O11 1.241 . S
C8 O1 1.247 . S
C8 O2 1.261 . S
C9 O4 1.259 . S
C9 O6 1.235 . S
O10 Co0 2.021 . S
O10 C7 1.238 . S
O11 Co5 2.052 . S
O11 C7 1.241 . S
O12 Co0 2.137 . S
O12 C3 1.247 . S
O13 Co0 2.244 . S
O13 C3 1.272 . S
O13 Co5 2.135 . S
Co14 O15 2.216 . S
Co14 O16 2.091 . S
Co14 O18 2.004 . S
Co14 O24 2.021 . S
Co14 O26 2.137 . S
Co14 O27 2.244 . S
O15 Co14 2.216 . S
O15 C22 1.247 . S
O16 Co14 2.091 . S
O16 C22 1.261 . S
C17 O26 1.247 . S
C17 O27 1.272 . S
O18 Co14 2.004 . S
O18 C23 1.259 . S
Co19 O20 2.061 . S
Co19 O25 2.052 . S
Co19 O27 2.135 . S
O20 Co19 2.061 . S
O20 C23 1.235 . S
C21 O24 1.238 . S
C21 O25 1.241 . S
C22 O15 1.247 . S
C22 O16 1.261 . S
C23 O18 1.259 . S
C23 O20 1.235 . S
O24 Co14 2.021 . S
O24 C21 1.238 . S
O25 Co19 2.052 . S
O25 C21 1.241 . S
O26 Co14 2.137 . S
O26 C17 1.247 . S
O27 Co14 2.244 . S
O27 C17 1.272 . S
O27 Co19 2.135 . S
Co28 O29 2.216 . S
Co28 O30 2.091 . S
Co28 O32 2.004 . S
Co28 O38 2.021 . S
Co28 O40 2.137 . S
Co28 O41 2.244 . S
O29 Co28 2.216 . S
O29 C36 1.247 . S
O30 Co28 2.091 . S
O30 C36 1.261 . S
C31 O40 1.247 . S
C31 O41 1.272 . S
O32 Co28 2.004 . S
O32 C37 1.259 . S
Co33 O34 2.061 . S
Co33 O39 2.052 . S
Co33 O41 2.135 . S
O34 Co33 2.061 . S
O34 C37 1.235 . S
C35 O38 1.238 . S
C35 O39 1.241 . S
C36 O29 1.247 . S
C36 O30 1.261 . S
C37 O32 1.259 . S
C37 O34 1.235 . S
O38 Co28 2.021 . S
O38 C35 1.238 . S
O39 Co33 2.052 . S
O39 C35 1.241 . S
O40 Co28 2.137 . S
O40 C31 1.247 . S
O41 Co28 2.244 . S
O41 C31 1.272 . S
O41 Co33 2.135 . S
Co42 O43 2.216 . S
Co42 O44 2.091 . S
Co42 O46 2.004 . S
Co42 O52 2.021 . S
Co42 O54 2.137 . S
Co42 O55 2.244 . S
O43 Co42 2.216 . S
O43 C50 1.247 . S
O44 Co42 2.091 . S
O44 C50 1.261 . S
C45 O54 1.247 . S
C45 O55 1.272 . S
O46 Co42 2.004 . S
O46 C51 1.259 . S
Co47 O48 2.061 . S
Co47 O53 2.052 . S
Co47 O55 2.135 . S
O48 Co47 2.061 . S
O48 C51 1.235 . S
C49 O52 1.238 . S
C49 O53 1.241 . S
C50 O43 1.247 . S
C50 O44 1.261 . S
C51 O46 1.259 . S
C51 O48 1.235 . S
O52 Co42 2.021 . S
O52 C49 1.238 . S
O53 Co47 2.052 . S
O53 C49 1.241 . S
O54 Co42 2.137 . S
O54 C45 1.247 . S
O55 Co42 2.244 . S
O55 C45 1.272 . S
O55 Co47 2.135 . S
Co56 O57 2.216 . S
Co56 O58 2.091 . S
Co56 O60 2.004 . S
Co56 O66 2.021 . S
Co56 O68 2.137 . S
Co56 O69 2.244 . S
O57 Co56 2.216 . S
O57 C64 1.247 . S
O58 Co56 2.091 . S
O58 C64 1.261 . S
C59 O68 1.247 . S
C59 O69 1.272 . S
O60 Co56 2.004 . S
O60 C65 1.259 . S
Co61 O62 2.061 . S
Co61 O67 2.052 . S
Co61 O69 2.135 . S
O62 Co61 2.061 . S
O62 C65 1.235 . S
C63 O66 1.238 . S
C63 O67 1.241 . S
C64 O57 1.247 . S
C64 O58 1.261 . S
C65 O60 1.259 . S
C65 O62 1.235 . S
O66 Co56 2.021 . S
O66 C63 1.238 . S
O67 Co61 2.052 . S
O67 C63 1.241 . S
O68 Co56 2.137 . S
O68 C59 1.247 . S
O69 Co56 2.244 . S
O69 C59 1.272 . S
O69 Co61 2.135 . S
Co70 O71 2.216 . S
Co70 O72 2.091 . S
Co70 O74 2.004 . S
Co70 O80 2.021 . S
Co70 O82 2.137 . S
Co70 O83 2.244 . S
O71 Co70 2.216 . S
O71 C78 1.247 . S
O72 Co70 2.091 . S
O72 C78 1.261 . S
C73 O82 1.247 . S
C73 O83 1.272 . S
O74 Co70 2.004 . S
O74 C79 1.259 . S
Co75 O76 2.061 . S
Co75 O81 2.052 . S
Co75 O83 2.135 . S
O76 Co75 2.061 . S
O76 C79 1.235 . S
C77 O80 1.238 . S
C77 O81 1.241 . S
C78 O71 1.247 . S
C78 O72 1.261 . S
C79 O74 1.259 . S
C79 O76 1.235 . S
O80 Co70 2.021 . S
O80 C77 1.238 . S
O81 Co75 2.052 . S
O81 C77 1.241 . S
O82 Co70 2.137 . S
O82 C73 1.247 . S
O83 Co70 2.244 . S
O83 C73 1.272 . S
O83 Co75 2.135 . S
Co84 O85 2.216 . S
Co84 O86 2.091 . S
Co84 O88 2.004 . S
Co84 O94 2.021 . S
Co84 O96 2.137 . S
Co84 O97 2.244 . S
O85 Co84 2.216 . S
O85 C92 1.247 . S
O86 Co84 2.091 . S
O86 C92 1.261 . S
C87 O96 1.247 . S
C87 O97 1.272 . S
O88 Co84 2.004 . S
O88 C93 1.259 . S
Co89 O90 2.061 . S
Co89 O95 2.052 . S
Co89 O97 2.135 . S
O90 Co89 2.061 . S
O90 C93 1.235 . S
C91 O94 1.238 . S
C91 O95 1.241 . S
C92 O85 1.247 . S
C92 O86 1.261 . S
C93 O88 1.259 . S
C93 O90 1.235 . S
O94 Co84 2.021 . S
O94 C91 1.238 . S
O95 Co89 2.052 . S
O95 C91 1.241 . S
O96 Co84 2.137 . S
O96 C87 1.247 . S
O97 Co84 2.244 . S
O97 C87 1.272 . S
O97 Co89 2.135 . S
Co98 O99 2.216 . S
Co98 O100 2.091 . S
Co98 O102 2.004 . S
Co98 O108 2.021 . S
Co98 O110 2.137 . S
Co98 O111 2.244 . S
O99 Co98 2.216 . S
O99 C106 1.247 . S
O100 Co98 2.091 . S
O100 C106 1.261 . S
C101 O110 1.247 . S
C101 O111 1.272 . S
O102 Co98 2.004 . S
O102 C107 1.259 . S
Co103 O104 2.061 . S
Co103 O109 2.052 . S
Co103 O111 2.135 . S
O104 Co103 2.061 . S
O104 C107 1.235 . S
C105 O108 1.238 . S
C105 O109 1.241 . S
C106 O99 1.247 . S
C106 O100 1.261 . S
C107 O102 1.259 . S
C107 O104 1.235 . S
O108 Co98 2.021 . S
O108 C105 1.238 . S
O109 Co103 2.052 . S
O109 C105 1.241 . S
O110 Co98 2.137 . S
O110 C101 1.247 . S
O111 Co98 2.244 . S
O111 C101 1.272 . S
O111 Co103 2.135 . S
Co112 O113 2.216 . S
Co112 O114 2.091 . S
Co112 O116 2.004 . S
Co112 O122 2.021 . S
Co112 O124 2.137 . S
Co112 O125 2.244 . S
O113 Co112 2.216 . S
O113 C120 1.247 . S
O114 Co112 2.091 . S
O114 C120 1.261 . S
C115 O124 1.247 . S
C115 O125 1.272 . S
O116 Co112 2.004 . S
O116 C121 1.259 . S
Co117 O118 2.061 . S
Co117 O123 2.052 . S
Co117 O125 2.135 . S
O118 Co117 2.061 . S
O118 C121 1.235 . S
C119 O122 1.238 . S
C119 O123 1.241 . S
C120 O113 1.247 . S
C120 O114 1.261 . S
C121 O116 1.259 . S
C121 O118 1.235 . S
O122 Co112 2.021 . S
O122 C119 1.238 . S
O123 Co117 2.052 . S
O123 C119 1.241 . S
O124 Co112 2.137 . S
O124 C115 1.247 . S
O125 Co112 2.244 . S
O125 C115 1.272 . S
O125 Co117 2.135 . S
Co126 O127 2.216 . S
Co126 O128 2.091 . S
Co126 O130 2.004 . S
Co126 O136 2.021 . S
Co126 O138 2.137 . S
Co126 O139 2.244 . S
O127 Co126 2.216 . S
O127 C134 1.247 . S
O128 Co126 2.091 . S
O128 C134 1.261 . S
C129 O138 1.247 . S
C129 O139 1.272 . S
O130 Co126 2.004 . S
O130 C135 1.259 . S
Co131 O132 2.061 . S
Co131 O137 2.052 . S
Co131 O139 2.135 . S
O132 Co131 2.061 . S
O132 C135 1.235 . S
C133 O136 1.238 . S
C133 O137 1.241 . S
C134 O127 1.247 . S
C134 O128 1.261 . S
C135 O130 1.259 . S
C135 O132 1.235 . S
O136 Co126 2.021 . S
O136 C133 1.238 . S
O137 Co131 2.052 . S
O137 C133 1.241 . S
O138 Co126 2.137 . S
O138 C129 1.247 . S
O139 Co126 2.244 . S
O139 C129 1.272 . S
O139 Co131 2.135 . S
Co140 O141 2.216 . S
Co140 O142 2.091 . S
Co140 O144 2.004 . S
Co140 O150 2.021 . S
Co140 O152 2.137 . S
Co140 O153 2.244 . S
O141 Co140 2.216 . S
O141 C148 1.247 . S
O142 Co140 2.091 . S
O142 C148 1.261 . S
C143 O152 1.247 . S
C143 O153 1.272 . S
O144 Co140 2.004 . S
O144 C149 1.259 . S
Co145 O146 2.061 . S
Co145 O151 2.052 . S
Co145 O153 2.135 . S
O146 Co145 2.061 . S
O146 C149 1.235 . S
C147 O150 1.238 . S
C147 O151 1.241 . S
C148 O141 1.247 . S
C148 O142 1.261 . S
C149 O144 1.259 . S
C149 O146 1.235 . S
O150 Co140 2.021 . S
O150 C147 1.238 . S
O151 Co145 2.052 . S
O151 C147 1.241 . S
O152 Co140 2.137 . S
O152 C143 1.247 . S
O153 Co140 2.244 . S
O153 C143 1.272 . S
O153 Co145 2.135 . S
Co154 O155 2.216 . S
Co154 O156 2.091 . S
Co154 O158 2.004 . S
Co154 O164 2.021 . S
Co154 O166 2.137 . S
Co154 O167 2.244 . S
O155 Co154 2.216 . S
O155 C162 1.247 . S
O156 Co154 2.091 . S
O156 C162 1.261 . S
C157 O166 1.247 . S
C157 O167 1.272 . S
O158 Co154 2.004 . S
O158 C163 1.259 . S
Co159 O160 2.061 . S
Co159 O165 2.052 . S
Co159 O167 2.135 . S
O160 Co159 2.061 . S
O160 C163 1.235 . S
C161 O164 1.238 . S
C161 O165 1.241 . S
C162 O155 1.247 . S
C162 O156 1.261 . S
C163 O158 1.259 . S
C163 O160 1.235 . S
O164 Co154 2.021 . S
O164 C161 1.238 . S
O165 Co159 2.052 . S
O165 C161 1.241 . S
O166 Co154 2.137 . S
O166 C157 1.247 . S
O167 Co154 2.244 . S
O167 C157 1.272 . S
O167 Co159 2.135 . S
Co168 O169 2.216 . S
Co168 O170 2.091 . S
Co168 O172 2.004 . S
Co168 O178 2.021 . S
Co168 O180 2.137 . S
Co168 O181 2.244 . S
O169 Co168 2.216 . S
O169 C176 1.247 . S
O170 Co168 2.091 . S
O170 C176 1.261 . S
C171 O180 1.247 . S
C171 O181 1.272 . S
O172 Co168 2.004 . S
O172 C177 1.259 . S
Co173 O174 2.061 . S
Co173 O179 2.052 . S
Co173 O181 2.135 . S
O174 Co173 2.061 . S
O174 C177 1.235 . S
C175 O178 1.238 . S
C175 O179 1.241 . S
C176 O169 1.247 . S
C176 O170 1.261 . S
C177 O172 1.259 . S
C177 O174 1.235 . S
O178 Co168 2.021 . S
O178 C175 1.238 . S
O179 Co173 2.052 . S
O179 C175 1.241 . S
O180 Co168 2.137 . S
O180 C171 1.247 . S
O181 Co168 2.244 . S
O181 C171 1.272 . S
O181 Co173 2.135 . S
Co182 O183 2.216 . S
Co182 O184 2.091 . S
Co182 O186 2.004 . S
Co182 O192 2.021 . S
Co182 O194 2.137 . S
Co182 O195 2.244 . S
O183 Co182 2.216 . S
O183 C190 1.247 . S
O184 Co182 2.091 . S
O184 C190 1.261 . S
C185 O194 1.247 . S
C185 O195 1.272 . S
O186 Co182 2.004 . S
O186 C191 1.259 . S
Co187 O188 2.061 . S
Co187 O193 2.052 . S
Co187 O195 2.135 . S
O188 Co187 2.061 . S
O188 C191 1.235 . S
C189 O192 1.238 . S
C189 O193 1.241 . S
C190 O183 1.247 . S
C190 O184 1.261 . S
C191 O186 1.259 . S
C191 O188 1.235 . S
O192 Co182 2.021 . S
O192 C189 1.238 . S
O193 Co187 2.052 . S
O193 C189 1.241 . S
O194 Co182 2.137 . S
O194 C185 1.247 . S
O195 Co182 2.244 . S
O195 C185 1.272 . S
O195 Co187 2.135 . S
Co196 O197 2.216 . S
Co196 O198 2.091 . S
Co196 O200 2.004 . S
Co196 O206 2.021 . S
Co196 O208 2.137 . S
Co196 O209 2.244 . S
O197 Co196 2.216 . S
O197 C204 1.247 . S
O198 Co196 2.091 . S
O198 C204 1.261 . S
C199 O208 1.247 . S
C199 O209 1.272 . S
O200 Co196 2.004 . S
O200 C205 1.259 . S
Co201 O202 2.061 . S
Co201 O207 2.052 . S
Co201 O209 2.135 . S
O202 Co201 2.061 . S
O202 C205 1.235 . S
C203 O206 1.238 . S
C203 O207 1.241 . S
C204 O197 1.247 . S
C204 O198 1.261 . S
C205 O200 1.259 . S
C205 O202 1.235 . S
O206 Co196 2.021 . S
O206 C203 1.238 . S
O207 Co201 2.052 . S
O207 C203 1.241 . S
O208 Co196 2.137 . S
O208 C199 1.247 . S
O209 Co196 2.244 . S
O209 C199 1.272 . S
O209 Co201 2.135 . S
Co210 O211 2.216 . S
Co210 O212 2.091 . S
Co210 O214 2.004 . S
Co210 O220 2.021 . S
Co210 O222 2.137 . S
Co210 O223 2.244 . S
O211 Co210 2.216 . S
O211 C218 1.247 . S
O212 Co210 2.091 . S
O212 C218 1.261 . S
C213 O222 1.247 . S
C213 O223 1.272 . S
O214 Co210 2.004 . S
O214 C219 1.259 . S
Co215 O216 2.061 . S
Co215 O221 2.052 . S
Co215 O223 2.135 . S
O216 Co215 2.061 . S
O216 C219 1.235 . S
C217 O220 1.238 . S
C217 O221 1.241 . S
C218 O211 1.247 . S
C218 O212 1.261 . S
C219 O214 1.259 . S
C219 O216 1.235 . S
O220 Co210 2.021 . S
O220 C217 1.238 . S
O221 Co215 2.052 . S
O221 C217 1.241 . S
O222 Co210 2.137 . S
O222 C213 1.247 . S
O223 Co210 2.244 . S
O223 C213 1.272 . S
O223 Co215 2.135 . S
Co224 O225 2.216 . S
Co224 O226 2.091 . S
Co224 O228 2.004 . S
Co224 O234 2.021 . S
Co224 O236 2.137 . S
Co224 O237 2.244 . S
O225 Co224 2.216 . S
O225 C232 1.247 . S
O226 Co224 2.091 . S
O226 C232 1.261 . S
C227 O236 1.247 . S
C227 O237 1.272 . S
O228 Co224 2.004 . S
O228 C233 1.259 . S
Co229 O230 2.061 . S
Co229 O235 2.052 . S
Co229 O237 2.135 . S
O230 Co229 2.061 . S
O230 C233 1.235 . S
C231 O234 1.238 . S
C231 O235 1.241 . S
C232 O225 1.247 . S
C232 O226 1.261 . S
C233 O228 1.259 . S
C233 O230 1.235 . S
O234 Co224 2.021 . S
O234 C231 1.238 . S
O235 Co229 2.052 . S
O235 C231 1.241 . S
O236 Co224 2.137 . S
O236 C227 1.247 . S
O237 Co224 2.244 . S
O237 C227 1.272 . S
O237 Co229 2.135 . S
Co238 O239 2.216 . S
Co238 O240 2.091 . S
Co238 O242 2.004 . S
Co238 O248 2.021 . S
Co238 O250 2.137 . S
Co238 O251 2.244 . S
O239 Co238 2.216 . S
O239 C246 1.247 . S
O240 Co238 2.091 . S
O240 C246 1.261 . S
C241 O250 1.247 . S
C241 O251 1.272 . S
O242 Co238 2.004 . S
O242 C247 1.259 . S
Co243 O244 2.061 . S
Co243 O249 2.052 . S
Co243 O251 2.135 . S
O244 Co243 2.061 . S
O244 C247 1.235 . S
C245 O248 1.238 . S
C245 O249 1.241 . S
C246 O239 1.247 . S
C246 O240 1.261 . S
C247 O242 1.259 . S
C247 O244 1.235 . S
O248 Co238 2.021 . S
O248 C245 1.238 . S
O249 Co243 2.052 . S
O249 C245 1.241 . S
O250 Co238 2.137 . S
O250 C241 1.247 . S
O251 Co238 2.244 . S
O251 C241 1.272 . S
O251 Co243 2.135 . S
Co252 O253 2.216 . S
Co252 O254 2.091 . S
Co252 O256 2.004 . S
Co252 O262 2.021 . S
Co252 O264 2.137 . S
Co252 O265 2.244 . S
O253 Co252 2.216 . S
O253 C260 1.247 . S
O254 Co252 2.091 . S
O254 C260 1.261 . S
C255 O264 1.247 . S
C255 O265 1.272 . S
O256 Co252 2.004 . S
O256 C261 1.259 . S
Co257 O258 2.061 . S
Co257 O263 2.052 . S
Co257 O265 2.135 . S
O258 Co257 2.061 . S
O258 C261 1.235 . S
C259 O262 1.238 . S
C259 O263 1.241 . S
C260 O253 1.247 . S
C260 O254 1.261 . S
C261 O256 1.259 . S
C261 O258 1.235 . S
O262 Co252 2.021 . S
O262 C259 1.238 . S
O263 Co257 2.052 . S
O263 C259 1.241 . S
O264 Co252 2.137 . S
O264 C255 1.247 . S
O265 Co252 2.244 . S
O265 C255 1.272 . S
O265 Co257 2.135 . S
Co266 O267 2.216 . S
Co266 O268 2.091 . S
Co266 O270 2.004 . S
Co266 O276 2.021 . S
Co266 O278 2.137 . S
Co266 O279 2.244 . S
O267 Co266 2.216 . S
O267 C274 1.247 . S
O268 Co266 2.091 . S
O268 C274 1.261 . S
C269 O278 1.247 . S
C269 O279 1.272 . S
O270 Co266 2.004 . S
O270 C275 1.259 . S
Co271 O272 2.061 . S
Co271 O277 2.052 . S
Co271 O279 2.135 . S
O272 Co271 2.061 . S
O272 C275 1.235 . S
C273 O276 1.238 . S
C273 O277 1.241 . S
C274 O267 1.247 . S
C274 O268 1.261 . S
C275 O270 1.259 . S
C275 O272 1.235 . S
O276 Co266 2.021 . S
O276 C273 1.238 . S
O277 Co271 2.052 . S
O277 C273 1.241 . S
O278 Co266 2.137 . S
O278 C269 1.247 . S
O279 Co266 2.244 . S
O279 C269 1.272 . S
O279 Co271 2.135 . S
Co280 O281 2.216 . S
Co280 O282 2.091 . S
Co280 O284 2.004 . S
Co280 O290 2.021 . S
Co280 O292 2.137 . S
Co280 O293 2.244 . S
O281 Co280 2.216 . S
O281 C288 1.247 . S
O282 Co280 2.091 . S
O282 C288 1.261 . S
C283 O292 1.247 . S
C283 O293 1.272 . S
O284 Co280 2.004 . S
O284 C289 1.259 . S
Co285 O286 2.061 . S
Co285 O291 2.052 . S
Co285 O293 2.135 . S
O286 Co285 2.061 . S
O286 C289 1.235 . S
C287 O290 1.238 . S
C287 O291 1.241 . S
C288 O281 1.247 . S
C288 O282 1.261 . S
C289 O284 1.259 . S
C289 O286 1.235 . S
O290 Co280 2.021 . S
O290 C287 1.238 . S
O291 Co285 2.052 . S
O291 C287 1.241 . S
O292 Co280 2.137 . S
O292 C283 1.247 . S
O293 Co280 2.244 . S
O293 C283 1.272 . S
O293 Co285 2.135 . S
Co294 O295 2.216 . S
Co294 O296 2.091 . S
Co294 O298 2.004 . S
Co294 O304 2.021 . S
Co294 O306 2.137 . S
Co294 O307 2.244 . S
O295 Co294 2.216 . S
O295 C302 1.247 . S
O296 Co294 2.091 . S
O296 C302 1.261 . S
C297 O306 1.247 . S
C297 O307 1.272 . S
O298 Co294 2.004 . S
O298 C303 1.259 . S
Co299 O300 2.061 . S
Co299 O305 2.052 . S
Co299 O307 2.135 . S
O300 Co299 2.061 . S
O300 C303 1.235 . S
C301 O304 1.238 . S
C301 O305 1.241 . S
C302 O295 1.247 . S
C302 O296 1.261 . S
C303 O298 1.259 . S
C303 O300 1.235 . S
O304 Co294 2.021 . S
O304 C301 1.238 . S
O305 Co299 2.052 . S
O305 C301 1.241 . S
O306 Co294 2.137 . S
O306 C297 1.247 . S
O307 Co294 2.244 . S
O307 C297 1.272 . S
O307 Co299 2.135 . S
Co308 O309 2.216 . S
Co308 O310 2.091 . S
Co308 O312 2.004 . S
Co308 O318 2.021 . S
Co308 O320 2.137 . S
Co308 O321 2.244 . S
O309 Co308 2.216 . S
O309 C316 1.247 . S
O310 Co308 2.091 . S
O310 C316 1.261 . S
C311 O320 1.247 . S
C311 O321 1.272 . S
O312 Co308 2.004 . S
O312 C317 1.259 . S
Co313 O314 2.061 . S
Co313 O319 2.052 . S
Co313 O321 2.135 . S
O314 Co313 2.061 . S
O314 C317 1.235 . S
C315 O318 1.238 . S
C315 O319 1.241 . S
C316 O309 1.247 . S
C316 O310 1.261 . S
C317 O312 1.259 . S
C317 O314 1.235 . S
O318 Co308 2.021 . S
O318 C315 1.238 . S
O319 Co313 2.052 . S
O319 C315 1.241 . S
O320 Co308 2.137 . S
O320 C311 1.247 . S
O321 Co308 2.244 . S
O321 C311 1.272 . S
O321 Co313 2.135 . S
Co322 O323 2.216 . S
Co322 O324 2.091 . S
Co322 O326 2.004 . S
Co322 O332 2.021 . S
Co322 O334 2.137 . S
Co322 O335 2.244 . S
O323 Co322 2.216 . S
O323 C330 1.247 . S
O324 Co322 2.091 . S
O324 C330 1.261 . S
C325 O334 1.247 . S
C325 O335 1.272 . S
O326 Co322 2.004 . S
O326 C331 1.259 . S
Co327 O328 2.061 . S
Co327 O333 2.052 . S
Co327 O335 2.135 . S
O328 Co327 2.061 . S
O328 C331 1.235 . S
C329 O332 1.238 . S
C329 O333 1.241 . S
C330 O323 1.247 . S
C330 O324 1.261 . S
C331 O326 1.259 . S
C331 O328 1.235 . S
O332 Co322 2.021 . S
O332 C329 1.238 . S
O333 Co327 2.052 . S
O333 C329 1.241 . S
O334 Co322 2.137 . S
O334 C325 1.247 . S
O335 Co322 2.244 . S
O335 C325 1.272 . S
O335 Co327 2.135 . S
Co336 O337 2.216 . S
Co336 O338 2.091 . S
Co336 O340 2.004 . S
Co336 O346 2.021 . S
Co336 O348 2.137 . S
Co336 O349 2.244 . S
O337 Co336 2.216 . S
O337 C344 1.247 . S
O338 Co336 2.091 . S
O338 C344 1.261 . S
C339 O348 1.247 . S
C339 O349 1.272 . S
O340 Co336 2.004 . S
O340 C345 1.259 . S
Co341 O342 2.061 . S
Co341 O347 2.052 . S
Co341 O349 2.135 . S
O342 Co341 2.061 . S
O342 C345 1.235 . S
C343 O346 1.238 . S
C343 O347 1.241 . S
C344 O337 1.247 . S
C344 O338 1.261 . S
C345 O340 1.259 . S
C345 O342 1.235 . S
O346 Co336 2.021 . S
O346 C343 1.238 . S
O347 Co341 2.052 . S
O347 C343 1.241 . S
O348 Co336 2.137 . S
O348 C339 1.247 . S
O349 Co336 2.244 . S
O349 C339 1.272 . S
O349 Co341 2.135 . S
Co350 O351 2.216 . S
Co350 O352 2.091 . S
Co350 O354 2.004 . S
Co350 O360 2.021 . S
Co350 O362 2.137 . S
Co350 O363 2.244 . S
O351 Co350 2.216 . S
O351 C358 1.247 . S
O352 Co350 2.091 . S
O352 C358 1.261 . S
C353 O362 1.247 . S
C353 O363 1.272 . S
O354 Co350 2.004 . S
O354 C359 1.259 . S
Co355 O356 2.061 . S
Co355 O361 2.052 . S
Co355 O363 2.135 . S
O356 Co355 2.061 . S
O356 C359 1.235 . S
C357 O360 1.238 . S
C357 O361 1.241 . S
C358 O351 1.247 . S
C358 O352 1.261 . S
C359 O354 1.259 . S
C359 O356 1.235 . S
O360 Co350 2.021 . S
O360 C357 1.238 . S
O361 Co355 2.052 . S
O361 C357 1.241 . S
O362 Co350 2.137 . S
O362 C353 1.247 . S
O363 Co350 2.244 . S
O363 C353 1.272 . S
O363 Co355 2.135 . S
Co364 O365 2.216 . S
Co364 O366 2.091 . S
Co364 O368 2.004 . S
Co364 O374 2.021 . S
Co364 O376 2.137 . S
Co364 O377 2.244 . S
O365 Co364 2.216 . S
O365 C372 1.247 . S
O366 Co364 2.091 . S
O366 C372 1.261 . S
C367 O376 1.247 . S
C367 O377 1.272 . S
O368 Co364 2.004 . S
O368 C373 1.259 . S
Co369 O370 2.061 . S
Co369 O375 2.052 . S
Co369 O377 2.135 . S
O370 Co369 2.061 . S
O370 C373 1.235 . S
C371 O374 1.238 . S
C371 O375 1.241 . S
C372 O365 1.247 . S
C372 O366 1.261 . S
C373 O368 1.259 . S
C373 O370 1.235 . S
O374 Co364 2.021 . S
O374 C371 1.238 . S
O375 Co369 2.052 . S
O375 C371 1.241 . S
O376 Co364 2.137 . S
O376 C367 1.247 . S
O377 Co364 2.244 . S
O377 C367 1.272 . S
O377 Co369 2.135 . S
Co378 O379 2.216 . S
Co378 O380 2.091 . S
Co378 O382 2.004 . S
Co378 O388 2.021 . S
Co378 O390 2.137 . S
Co378 O391 2.244 . S
O379 Co378 2.216 . S
O379 C386 1.247 . S
O380 Co378 2.091 . S
O380 C386 1.261 . S
C381 O390 1.247 . S
C381 O391 1.272 . S
O382 Co378 2.004 . S
O382 C387 1.259 . S
Co383 O384 2.061 . S
Co383 O389 2.052 . S
Co383 O391 2.135 . S
O384 Co383 2.061 . S
O384 C387 1.235 . S
C385 O388 1.238 . S
C385 O389 1.241 . S
C386 O379 1.247 . S
C386 O380 1.261 . S
C387 O382 1.259 . S
C387 O384 1.235 . S
O388 Co378 2.021 . S
O388 C385 1.238 . S
O389 Co383 2.052 . S
O389 C385 1.241 . S
O390 Co378 2.137 . S
O390 C381 1.247 . S
O391 Co378 2.244 . S
O391 C381 1.272 . S
O391 Co383 2.135 . S
Co392 O393 2.216 . S
Co392 O394 2.091 . S
Co392 O396 2.004 . S
Co392 O402 2.021 . S
Co392 O404 2.137 . S
Co392 O405 2.244 . S
O393 Co392 2.216 . S
O393 C400 1.247 . S
O394 Co392 2.091 . S
O394 C400 1.261 . S
C395 O404 1.247 . S
C395 O405 1.272 . S
O396 Co392 2.004 . S
O396 C401 1.259 . S
Co397 O398 2.061 . S
Co397 O403 2.052 . S
Co397 O405 2.135 . S
O398 Co397 2.061 . S
O398 C401 1.235 . S
C399 O402 1.238 . S
C399 O403 1.241 . S
C400 O393 1.247 . S
C400 O394 1.261 . S
C401 O396 1.259 . S
C401 O398 1.235 . S
O402 Co392 2.021 . S
O402 C399 1.238 . S
O403 Co397 2.052 . S
O403 C399 1.241 . S
O404 Co392 2.137 . S
O404 C395 1.247 . S
O405 Co392 2.244 . S
O405 C395 1.272 . S
O405 Co397 2.135 . S
Co406 O407 2.216 . S
Co406 O408 2.091 . S
Co406 O410 2.004 . S
Co406 O416 2.021 . S
Co406 O418 2.137 . S
Co406 O419 2.244 . S
O407 Co406 2.216 . S
O407 C414 1.247 . S
O408 Co406 2.091 . S
O408 C414 1.261 . S
C409 O418 1.247 . S
C409 O419 1.272 . S
O410 Co406 2.004 . S
O410 C415 1.259 . S
Co411 O412 2.061 . S
Co411 O417 2.052 . S
Co411 O419 2.135 . S
O412 Co411 2.061 . S
O412 C415 1.235 . S
C413 O416 1.238 . S
C413 O417 1.241 . S
C414 O407 1.247 . S
C414 O408 1.261 . S
C415 O410 1.259 . S
C415 O412 1.235 . S
O416 Co406 2.021 . S
O416 C413 1.238 . S
O417 Co411 2.052 . S
O417 C413 1.241 . S
O418 Co406 2.137 . S
O418 C409 1.247 . S
O419 Co406 2.244 . S
O419 C409 1.272 . S
O419 Co411 2.135 . S
Co420 O421 2.216 . S
Co420 O422 2.091 . S
Co420 O424 2.004 . S
Co420 O430 2.021 . S
Co420 O432 2.137 . S
Co420 O433 2.244 . S
O421 Co420 2.216 . S
O421 C428 1.247 . S
O422 Co420 2.091 . S
O422 C428 1.261 . S
C423 O432 1.247 . S
C423 O433 1.272 . S
O424 Co420 2.004 . S
O424 C429 1.259 . S
Co425 O426 2.061 . S
Co425 O431 2.052 . S
Co425 O433 2.135 . S
O426 Co425 2.061 . S
O426 C429 1.235 . S
C427 O430 1.238 . S
C427 O431 1.241 . S
C428 O421 1.247 . S
C428 O422 1.261 . S
C429 O424 1.259 . S
C429 O426 1.235 . S
O430 Co420 2.021 . S
O430 C427 1.238 . S
O431 Co425 2.052 . S
O431 C427 1.241 . S
O432 Co420 2.137 . S
O432 C423 1.247 . S
O433 Co420 2.244 . S
O433 C423 1.272 . S
O433 Co425 2.135 . S
Co434 O435 2.216 . S
Co434 O436 2.091 . S
Co434 O438 2.004 . S
Co434 O444 2.021 . S
Co434 O446 2.137 . S
Co434 O447 2.244 . S
O435 Co434 2.216 . S
O435 C442 1.247 . S
O436 Co434 2.091 . S
O436 C442 1.261 . S
C437 O446 1.247 . S
C437 O447 1.272 . S
O438 Co434 2.004 . S
O438 C443 1.259 . S
Co439 O440 2.061 . S
Co439 O445 2.052 . S
Co439 O447 2.135 . S
O440 Co439 2.061 . S
O440 C443 1.235 . S
C441 O444 1.238 . S
C441 O445 1.241 . S
C442 O435 1.247 . S
C442 O436 1.261 . S
C443 O438 1.259 . S
C443 O440 1.235 . S
O444 Co434 2.021 . S
O444 C441 1.238 . S
O445 Co439 2.052 . S
O445 C441 1.241 . S
O446 Co434 2.137 . S
O446 C437 1.247 . S
O447 Co434 2.244 . S
O447 C437 1.272 . S
O447 Co439 2.135 . S
Co448 O449 2.216 . S
Co448 O450 2.091 . S
Co448 O452 2.004 . S
Co448 O458 2.021 . S
Co448 O460 2.137 . S
Co448 O461 2.244 . S
O449 Co448 2.216 . S
O449 C456 1.247 . S
O450 Co448 2.091 . S
O450 C456 1.261 . S
C451 O460 1.247 . S
C451 O461 1.272 . S
O452 Co448 2.004 . S
O452 C457 1.259 . S
Co453 O454 2.061 . S
Co453 O459 2.052 . S
Co453 O461 2.135 . S
O454 Co453 2.061 . S
O454 C457 1.235 . S
C455 O458 1.238 . S
C455 O459 1.241 . S
C456 O449 1.247 . S
C456 O450 1.261 . S
C457 O452 1.259 . S
C457 O454 1.235 . S
O458 Co448 2.021 . S
O458 C455 1.238 . S
O459 Co453 2.052 . S
O459 C455 1.241 . S
O460 Co448 2.137 . S
O460 C451 1.247 . S
O461 Co448 2.244 . S
O461 C451 1.272 . S
O461 Co453 2.135 . S
Co462 O463 2.216 . S
Co462 O464 2.091 . S
Co462 O466 2.004 . S
Co462 O472 2.021 . S
Co462 O474 2.137 . S
Co462 O475 2.244 . S
O463 Co462 2.216 . S
O463 C470 1.247 . S
O464 Co462 2.091 . S
O464 C470 1.261 . S
C465 O474 1.247 . S
C465 O475 1.272 . S
O466 Co462 2.004 . S
O466 C471 1.259 . S
Co467 O468 2.061 . S
Co467 O473 2.052 . S
Co467 O475 2.135 . S
O468 Co467 2.061 . S
O468 C471 1.235 . S
C469 O472 1.238 . S
C469 O473 1.241 . S
C470 O463 1.247 . S
C470 O464 1.261 . S
C471 O466 1.259 . S
C471 O468 1.235 . S
O472 Co462 2.021 . S
O472 C469 1.238 . S
O473 Co467 2.052 . S
O473 C469 1.241 . S
O474 Co462 2.137 . S
O474 C465 1.247 . S
O475 Co462 2.244 . S
O475 C465 1.272 . S
O475 Co467 2.135 . S
Co476 O477 2.216 . S
Co476 O478 2.091 . S
Co476 O480 2.004 . S
Co476 O486 2.021 . S
Co476 O488 2.137 . S
Co476 O489 2.244 . S
O477 Co476 2.216 . S
O477 C484 1.247 . S
O478 Co476 2.091 . S
O478 C484 1.261 . S
C479 O488 1.247 . S
C479 O489 1.272 . S
O480 Co476 2.004 . S
O480 C485 1.259 . S
Co481 O482 2.061 . S
Co481 O487 2.052 . S
Co481 O489 2.135 . S
O482 Co481 2.061 . S
O482 C485 1.235 . S
C483 O486 1.238 . S
C483 O487 1.241 . S
C484 O477 1.247 . S
C484 O478 1.261 . S
C485 O480 1.259 . S
C485 O482 1.235 . S
O486 Co476 2.021 . S
O486 C483 1.238 . S
O487 Co481 2.052 . S
O487 C483 1.241 . S
O488 Co476 2.137 . S
O488 C479 1.247 . S
O489 Co476 2.244 . S
O489 C479 1.272 . S
O489 Co481 2.135 . S
Co490 O491 2.216 . S
Co490 O492 2.091 . S
Co490 O494 2.004 . S
Co490 O500 2.021 . S
Co490 O502 2.137 . S
Co490 O503 2.244 . S
O491 Co490 2.216 . S
O491 C498 1.247 . S
O492 Co490 2.091 . S
O492 C498 1.261 . S
C493 O502 1.247 . S
C493 O503 1.272 . S
O494 Co490 2.004 . S
O494 C499 1.259 . S
Co495 O496 2.061 . S
Co495 O501 2.052 . S
Co495 O503 2.135 . S
O496 Co495 2.061 . S
O496 C499 1.235 . S
C497 O500 1.238 . S
C497 O501 1.241 . S
C498 O491 1.247 . S
C498 O492 1.261 . S
C499 O494 1.259 . S
C499 O496 1.235 . S
O500 Co490 2.021 . S
O500 C497 1.238 . S
O501 Co495 2.052 . S
O501 C497 1.241 . S
O502 Co490 2.137 . S
O502 C493 1.247 . S
O503 Co490 2.244 . S
O503 C493 1.272 . S
O503 Co495 2.135 . S
Co504 O505 2.216 . S
Co504 O506 2.091 . S
Co504 O508 2.004 . S
Co504 O514 2.021 . S
Co504 O516 2.137 . S
Co504 O517 2.244 . S
O505 Co504 2.216 . S
O505 C512 1.247 . S
O506 Co504 2.091 . S
O506 C512 1.261 . S
C507 O516 1.247 . S
C507 O517 1.272 . S
O508 Co504 2.004 . S
O508 C513 1.259 . S
Co509 O510 2.061 . S
Co509 O515 2.052 . S
Co509 O517 2.135 . S
O510 Co509 2.061 . S
O510 C513 1.235 . S
C511 O514 1.238 . S
C511 O515 1.241 . S
C512 O505 1.247 . S
C512 O506 1.261 . S
C513 O508 1.259 . S
C513 O510 1.235 . S
O514 Co504 2.021 . S
O514 C511 1.238 . S
O515 Co509 2.052 . S
O515 C511 1.241 . S
O516 Co504 2.137 . S
O516 C507 1.247 . S
O517 Co504 2.244 . S
O517 C507 1.272 . S
O517 Co509 2.135 . S
Co518 O519 2.216 . S
Co518 O520 2.091 . S
Co518 O522 2.004 . S
Co518 O528 2.021 . S
Co518 O530 2.137 . S
Co518 O531 2.244 . S
O519 Co518 2.216 . S
O519 C526 1.247 . S
O520 Co518 2.091 . S
O520 C526 1.261 . S
C521 O530 1.247 . S
C521 O531 1.272 . S
O522 Co518 2.004 . S
O522 C527 1.259 . S
Co523 O524 2.061 . S
Co523 O529 2.052 . S
Co523 O531 2.135 . S
O524 Co523 2.061 . S
O524 C527 1.235 . S
C525 O528 1.238 . S
C525 O529 1.241 . S
C526 O519 1.247 . S
C526 O520 1.261 . S
C527 O522 1.259 . S
C527 O524 1.235 . S
O528 Co518 2.021 . S
O528 C525 1.238 . S
O529 Co523 2.052 . S
O529 C525 1.241 . S
O530 Co518 2.137 . S
O530 C521 1.247 . S
O531 Co518 2.244 . S
O531 C521 1.272 . S
O531 Co523 2.135 . S
Co532 O533 2.216 . S
Co532 O534 2.091 . S
Co532 O536 2.004 . S
Co532 O542 2.021 . S
Co532 O544 2.137 . S
Co532 O545 2.244 . S
O533 Co532 2.216 . S
O533 C540 1.247 . S
O534 Co532 2.091 . S
O534 C540 1.261 . S
C535 O544 1.247 . S
C535 O545 1.272 . S
O536 Co532 2.004 . S
O536 C541 1.259 . S
Co537 O538 2.061 . S
Co537 O543 2.052 . S
Co537 O545 2.135 . S
O538 Co537 2.061 . S
O538 C541 1.235 . S
C539 O542 1.238 . S
C539 O543 1.241 . S
C540 O533 1.247 . S
C540 O534 1.261 . S
C541 O536 1.259 . S
C541 O538 1.235 . S
O542 Co532 2.021 . S
O542 C539 1.238 . S
O543 Co537 2.052 . S
O543 C539 1.241 . S
O544 Co532 2.137 . S
O544 C535 1.247 . S
O545 Co532 2.244 . S
O545 C535 1.272 . S
O545 Co537 2.135 . S
Co546 O547 2.216 . S
Co546 O548 2.091 . S
Co546 O550 2.004 . S
Co546 O556 2.021 . S
Co546 O558 2.137 . S
Co546 O559 2.244 . S
O547 Co546 2.216 . S
O547 C554 1.247 . S
O548 Co546 2.091 . S
O548 C554 1.261 . S
C549 O558 1.247 . S
C549 O559 1.272 . S
O550 Co546 2.004 . S
O550 C555 1.259 . S
Co551 O552 2.061 . S
Co551 O557 2.052 . S
Co551 O559 2.135 . S
O552 Co551 2.061 . S
O552 C555 1.235 . S
C553 O556 1.238 . S
C553 O557 1.241 . S
C554 O547 1.247 . S
C554 O548 1.261 . S
C555 O550 1.259 . S
C555 O552 1.235 . S
O556 Co546 2.021 . S
O556 C553 1.238 . S
O557 Co551 2.052 . S
O557 C553 1.241 . S
O558 Co546 2.137 . S
O558 C549 1.247 . S
O559 Co546 2.244 . S
O559 C549 1.272 . S
O559 Co551 2.135 . S
Co560 O561 2.216 . S
Co560 O562 2.091 . S
Co560 O564 2.004 . S
Co560 O570 2.021 . S
Co560 O572 2.137 . S
Co560 O573 2.244 . S
O561 Co560 2.216 . S
O561 C568 1.247 . S
O562 Co560 2.091 . S
O562 C568 1.261 . S
C563 O572 1.247 . S
C563 O573 1.272 . S
O564 Co560 2.004 . S
O564 C569 1.259 . S
Co565 O566 2.061 . S
Co565 O571 2.052 . S
Co565 O573 2.135 . S
O566 Co565 2.061 . S
O566 C569 1.235 . S
C567 O570 1.238 . S
C567 O571 1.241 . S
C568 O561 1.247 . S
C568 O562 1.261 . S
C569 O564 1.259 . S
C569 O566 1.235 . S
O570 Co560 2.021 . S
O570 C567 1.238 . S
O571 Co565 2.052 . S
O571 C567 1.241 . S
O572 Co560 2.137 . S
O572 C563 1.247 . S
O573 Co560 2.244 . S
O573 C563 1.272 . S
O573 Co565 2.135 . S
Co574 O575 2.216 . S
Co574 O576 2.091 . S
Co574 O578 2.004 . S
Co574 O584 2.021 . S
Co574 O586 2.137 . S
Co574 O587 2.244 . S
O575 Co574 2.216 . S
O575 C582 1.247 . S
O576 Co574 2.091 . S
O576 C582 1.261 . S
C577 O586 1.247 . S
C577 O587 1.272 . S
O578 Co574 2.004 . S
O578 C583 1.259 . S
Co579 O580 2.061 . S
Co579 O585 2.052 . S
Co579 O587 2.135 . S
O580 Co579 2.061 . S
O580 C583 1.235 . S
C581 O584 1.238 . S
C581 O585 1.241 . S
C582 O575 1.247 . S
C582 O576 1.261 . S
C583 O578 1.259 . S
C583 O580 1.235 . S
O584 Co574 2.021 . S
O584 C581 1.238 . S
O585 Co579 2.052 . S
O585 C581 1.241 . S
O586 Co574 2.137 . S
O586 C577 1.247 . S
O587 Co574 2.244 . S
O587 C577 1.272 . S
O587 Co579 2.135 . S
Co588 O589 2.216 . S
Co588 O590 2.091 . S
Co588 O592 2.004 . S
Co588 O598 2.021 . S
Co588 O600 2.137 . S
Co588 O601 2.244 . S
O589 Co588 2.216 . S
O589 C596 1.247 . S
O590 Co588 2.091 . S
O590 C596 1.261 . S
C591 O600 1.247 . S
C591 O601 1.272 . S
O592 Co588 2.004 . S
O592 C597 1.259 . S
Co593 O594 2.061 . S
Co593 O599 2.052 . S
Co593 O601 2.135 . S
O594 Co593 2.061 . S
O594 C597 1.235 . S
C595 O598 1.238 . S
C595 O599 1.241 . S
C596 O589 1.247 . S
C596 O590 1.261 . S
C597 O592 1.259 . S
C597 O594 1.235 . S
O598 Co588 2.021 . S
O598 C595 1.238 . S
O599 Co593 2.052 . S
O599 C595 1.241 . S
O600 Co588 2.137 . S
O600 C591 1.247 . S
O601 Co588 2.244 . S
O601 C591 1.272 . S
O601 Co593 2.135 . S
Co602 O603 2.216 . S
Co602 O604 2.091 . S
Co602 O606 2.004 . S
Co602 O612 2.021 . S
Co602 O614 2.137 . S
Co602 O615 2.244 . S
O603 Co602 2.216 . S
O603 C610 1.247 . S
O604 Co602 2.091 . S
O604 C610 1.261 . S
C605 O614 1.247 . S
C605 O615 1.272 . S
O606 Co602 2.004 . S
O606 C611 1.259 . S
Co607 O608 2.061 . S
Co607 O613 2.052 . S
Co607 O615 2.135 . S
O608 Co607 2.061 . S
O608 C611 1.235 . S
C609 O612 1.238 . S
C609 O613 1.241 . S
C610 O603 1.247 . S
C610 O604 1.261 . S
C611 O606 1.259 . S
C611 O608 1.235 . S
O612 Co602 2.021 . S
O612 C609 1.238 . S
O613 Co607 2.052 . S
O613 C609 1.241 . S
O614 Co602 2.137 . S
O614 C605 1.247 . S
O615 Co602 2.244 . S
O615 C605 1.272 . S
O615 Co607 2.135 . S
Co616 O617 2.216 . S
Co616 O618 2.091 . S
Co616 O620 2.004 . S
Co616 O626 2.021 . S
Co616 O628 2.137 . S
Co616 O629 2.244 . S
O617 Co616 2.216 . S
O617 C624 1.247 . S
O618 Co616 2.091 . S
O618 C624 1.261 . S
C619 O628 1.247 . S
C619 O629 1.272 . S
O620 Co616 2.004 . S
O620 C625 1.259 . S
Co621 O622 2.061 . S
Co621 O627 2.052 . S
Co621 O629 2.135 . S
O622 Co621 2.061 . S
O622 C625 1.235 . S
C623 O626 1.238 . S
C623 O627 1.241 . S
C624 O617 1.247 . S
C624 O618 1.261 . S
C625 O620 1.259 . S
C625 O622 1.235 . S
O626 Co616 2.021 . S
O626 C623 1.238 . S
O627 Co621 2.052 . S
O627 C623 1.241 . S
O628 Co616 2.137 . S
O628 C619 1.247 . S
O629 Co616 2.244 . S
O629 C619 1.272 . S
O629 Co621 2.135 . S
Co630 O631 2.216 . S
Co630 O632 2.091 . S
Co630 O634 2.004 . S
Co630 O640 2.021 . S
Co630 O642 2.137 . S
Co630 O643 2.244 . S
O631 Co630 2.216 . S
O631 C638 1.247 . S
O632 Co630 2.091 . S
O632 C638 1.261 . S
C633 O642 1.247 . S
C633 O643 1.272 . S
O634 Co630 2.004 . S
O634 C639 1.259 . S
Co635 O636 2.061 . S
Co635 O641 2.052 . S
Co635 O643 2.135 . S
O636 Co635 2.061 . S
O636 C639 1.235 . S
C637 O640 1.238 . S
C637 O641 1.241 . S
C638 O631 1.247 . S
C638 O632 1.261 . S
C639 O634 1.259 . S
C639 O636 1.235 . S
O640 Co630 2.021 . S
O640 C637 1.238 . S
O641 Co635 2.052 . S
O641 C637 1.241 . S
O642 Co630 2.137 . S
O642 C633 1.247 . S
O643 Co630 2.244 . S
O643 C633 1.272 . S
O643 Co635 2.135 . S
Co644 O645 2.216 . S
Co644 O646 2.091 . S
Co644 O648 2.004 . S
Co644 O654 2.021 . S
Co644 O656 2.137 . S
Co644 O657 2.244 . S
O645 Co644 2.216 . S
O645 C652 1.247 . S
O646 Co644 2.091 . S
O646 C652 1.261 . S
C647 O656 1.247 . S
C647 O657 1.272 . S
O648 Co644 2.004 . S
O648 C653 1.259 . S
Co649 O650 2.061 . S
Co649 O655 2.052 . S
Co649 O657 2.135 . S
O650 Co649 2.061 . S
O650 C653 1.235 . S
C651 O654 1.238 . S
C651 O655 1.241 . S
C652 O645 1.247 . S
C652 O646 1.261 . S
C653 O648 1.259 . S
C653 O650 1.235 . S
O654 Co644 2.021 . S
O654 C651 1.238 . S
O655 Co649 2.052 . S
O655 C651 1.241 . S
O656 Co644 2.137 . S
O656 C647 1.247 . S
O657 Co644 2.244 . S
O657 C647 1.272 . S
O657 Co649 2.135 . S
Co658 O659 2.216 . S
Co658 O660 2.091 . S
Co658 O662 2.004 . S
Co658 O668 2.021 . S
Co658 O670 2.137 . S
Co658 O671 2.244 . S
O659 Co658 2.216 . S
O659 C666 1.247 . S
O660 Co658 2.091 . S
O660 C666 1.261 . S
C661 O670 1.247 . S
C661 O671 1.272 . S
O662 Co658 2.004 . S
O662 C667 1.259 . S
Co663 O664 2.061 . S
Co663 O669 2.052 . S
Co663 O671 2.135 . S
O664 Co663 2.061 . S
O664 C667 1.235 . S
C665 O668 1.238 . S
C665 O669 1.241 . S
C666 O659 1.247 . S
C666 O660 1.261 . S
C667 O662 1.259 . S
C667 O664 1.235 . S
O668 Co658 2.021 . S
O668 C665 1.238 . S
O669 Co663 2.052 . S
O669 C665 1.241 . S
O670 Co658 2.137 . S
O670 C661 1.247 . S
O671 Co658 2.244 . S
O671 C661 1.272 . S
O671 Co663 2.135 . S
H672 C680 0.929 . S
H673 C682 0.930 . S
H674 C684 0.930 . S
H675 C687 0.929 . S
H676 C690 0.930 . S
H677 C692 0.960 . S
H678 C692 0.960 . S
H679 C692 0.960 . S
C680 H672 0.929 . S
C680 C681 1.377 . S
C680 C682 1.384 . S
C681 C680 1.377 . S
C681 C687 1.390 . S
C682 H673 0.930 . S
C682 C680 1.384 . S
C682 C683 1.372 . S
C683 C682 1.372 . S
C683 C684 1.400 . S
C683 C688 1.490 . S
C684 H674 0.930 . S
C684 C683 1.400 . S
C684 C687 1.386 . S
H685 C701 0.930 . S
H686 C702 0.931 . S
C687 H675 0.929 . S
C687 C681 1.390 . S
C687 C684 1.386 . S
C688 C683 1.490 . S
C688 C690 1.395 . S
C688 C691 1.403 . S
H689 C695 0.930 . S
C690 H676 0.930 . S
C690 C688 1.395 . S
C690 C693 1.403 . S
C691 C688 1.403 . S
C691 C692 1.524 . S
C691 C695 1.400 . S
C692 H677 0.960 . S
C692 H678 0.960 . S
C692 H679 0.960 . S
C692 C691 1.524 . S
C693 C690 1.403 . S
C693 C694 1.392 . S
C693 C697 1.495 . S
C694 C693 1.392 . S
C694 C695 1.385 . S
C694 C696 1.478 . S
C695 H689 0.930 . S
C695 C691 1.400 . S
C695 C694 1.385 . S
C696 C694 1.478 . S
C696 C698 1.381 . S
C696 C702 1.383 . S
C697 C693 1.495 . S
C697 H703 0.959 . S
C697 H704 0.961 . S
C697 H705 0.960 . S
C698 C696 1.381 . S
C698 C699 1.394 . S
C698 H706 0.930 . S
C699 C698 1.394 . S
C699 C700 1.383 . S
C699 H707 0.929 . S
C700 C699 1.383 . S
C700 C701 1.377 . S
C701 H685 0.930 . S
C701 C700 1.377 . S
C701 C702 1.379 . S
C702 H686 0.931 . S
C702 C696 1.383 . S
C702 C701 1.379 . S
H703 C697 0.959 . S
H704 C697 0.961 . S
H705 C697 0.960 . S
H706 C698 0.930 . S
H707 C699 0.929 . S
H708 C716 0.929 . S
H709 C718 0.930 . S
H710 C720 0.930 . S
H711 C723 0.929 . S
H712 C726 0.930 . S
H713 C728 0.960 . S
H714 C728 0.960 . S
H715 C728 0.960 . S
C716 H708 0.929 . S
C716 C717 1.377 . S
C716 C718 1.384 . S
C717 C716 1.377 . S
C717 C723 1.390 . S
C718 H709 0.930 . S
C718 C716 1.384 . S
C718 C719 1.372 . S
C719 C718 1.372 . S
C719 C720 1.400 . S
C719 C724 1.490 . S
C720 H710 0.930 . S
C720 C719 1.400 . S
C720 C723 1.386 . S
H721 C737 0.930 . S
H722 C738 0.931 . S
C723 H711 0.929 . S
C723 C717 1.390 . S
C723 C720 1.386 . S
C724 C719 1.490 . S
C724 C726 1.395 . S
C724 C727 1.403 . S
H725 C731 0.930 . S
C726 H712 0.930 . S
C726 C724 1.395 . S
C726 C729 1.403 . S
C727 C724 1.403 . S
C727 C728 1.524 . S
C727 C731 1.400 . S
C728 H713 0.960 . S
C728 H714 0.960 . S
C728 H715 0.960 . S
C728 C727 1.524 . S
C729 C726 1.403 . S
C729 C730 1.392 . S
C729 C733 1.495 . S
C730 C729 1.392 . S
C730 C731 1.385 . S
C730 C732 1.478 . S
C731 H725 0.930 . S
C731 C727 1.400 . S
C731 C730 1.385 . S
C732 C730 1.478 . S
C732 C734 1.381 . S
C732 C738 1.383 . S
C733 C729 1.495 . S
C733 H739 0.959 . S
C733 H740 0.961 . S
C733 H741 0.960 . S
C734 C732 1.381 . S
C734 C735 1.394 . S
C734 H742 0.930 . S
C735 C734 1.394 . S
C735 C736 1.383 . S
C735 H743 0.929 . S
C736 C735 1.383 . S
C736 C737 1.377 . S
C737 H721 0.930 . S
C737 C736 1.377 . S
C737 C738 1.379 . S
C738 H722 0.931 . S
C738 C732 1.383 . S
C738 C737 1.379 . S
H739 C733 0.959 . S
H740 C733 0.961 . S
H741 C733 0.960 . S
H742 C734 0.930 . S
H743 C735 0.929 . S
H744 C752 0.929 . S
H745 C754 0.930 . S
H746 C756 0.930 . S
H747 C759 0.929 . S
H748 C762 0.930 . S
H749 C764 0.960 . S
H750 C764 0.960 . S
H751 C764 0.960 . S
C752 H744 0.929 . S
C752 C753 1.377 . S
C752 C754 1.384 . S
C753 C752 1.377 . S
C753 C759 1.390 . S
C754 H745 0.930 . S
C754 C752 1.384 . S
C754 C755 1.372 . S
C755 C754 1.372 . S
C755 C756 1.400 . S
C755 C760 1.490 . S
C756 H746 0.930 . S
C756 C755 1.400 . S
C756 C759 1.386 . S
H757 C773 0.930 . S
H758 C774 0.931 . S
C759 H747 0.929 . S
C759 C753 1.390 . S
C759 C756 1.386 . S
C760 C755 1.490 . S
C760 C762 1.395 . S
C760 C763 1.403 . S
H761 C767 0.930 . S
C762 H748 0.930 . S
C762 C760 1.395 . S
C762 C765 1.403 . S
C763 C760 1.403 . S
C763 C764 1.524 . S
C763 C767 1.400 . S
C764 H749 0.960 . S
C764 H750 0.960 . S
C764 H751 0.960 . S
C764 C763 1.524 . S
C765 C762 1.403 . S
C765 C766 1.392 . S
C765 C769 1.495 . S
C766 C765 1.392 . S
C766 C767 1.385 . S
C766 C768 1.478 . S
C767 H761 0.930 . S
C767 C763 1.400 . S
C767 C766 1.385 . S
C768 C766 1.478 . S
C768 C770 1.381 . S
C768 C774 1.383 . S
C769 C765 1.495 . S
C769 H775 0.959 . S
C769 H776 0.961 . S
C769 H777 0.960 . S
C770 C768 1.381 . S
C770 C771 1.394 . S
C770 H778 0.930 . S
C771 C770 1.394 . S
C771 C772 1.383 . S
C771 H779 0.929 . S
C772 C771 1.383 . S
C772 C773 1.377 . S
C773 H757 0.930 . S
C773 C772 1.377 . S
C773 C774 1.379 . S
C774 H758 0.931 . S
C774 C768 1.383 . S
C774 C773 1.379 . S
H775 C769 0.959 . S
H776 C769 0.961 . S
H777 C769 0.960 . S
H778 C770 0.930 . S
H779 C771 0.929 . S
H780 C788 0.929 . S
H781 C790 0.930 . S
H782 C792 0.930 . S
H783 C795 0.929 . S
H784 C798 0.930 . S
H785 C800 0.960 . S
H786 C800 0.960 . S
H787 C800 0.960 . S
C788 H780 0.929 . S
C788 C789 1.377 . S
C788 C790 1.384 . S
C789 C788 1.377 . S
C789 C795 1.390 . S
C790 H781 0.930 . S
C790 C788 1.384 . S
C790 C791 1.372 . S
C791 C790 1.372 . S
C791 C792 1.400 . S
C791 C796 1.490 . S
C792 H782 0.930 . S
C792 C791 1.400 . S
C792 C795 1.386 . S
H793 C809 0.930 . S
H794 C810 0.931 . S
C795 H783 0.929 . S
C795 C789 1.390 . S
C795 C792 1.386 . S
C796 C791 1.490 . S
C796 C798 1.395 . S
C796 C799 1.403 . S
H797 C803 0.930 . S
C798 H784 0.930 . S
C798 C796 1.395 . S
C798 C801 1.403 . S
C799 C796 1.403 . S
C799 C800 1.524 . S
C799 C803 1.400 . S
C800 H785 0.960 . S
C800 H786 0.960 . S
C800 H787 0.960 . S
C800 C799 1.524 . S
C801 C798 1.403 . S
C801 C802 1.392 . S
C801 C805 1.495 . S
C802 C801 1.392 . S
C802 C803 1.385 . S
C802 C804 1.478 . S
C803 H797 0.930 . S
C803 C799 1.400 . S
C803 C802 1.385 . S
C804 C802 1.478 . S
C804 C806 1.381 . S
C804 C810 1.383 . S
C805 C801 1.495 . S
C805 H811 0.959 . S
C805 H812 0.961 . S
C805 H813 0.960 . S
C806 C804 1.381 . S
C806 C807 1.394 . S
C806 H814 0.930 . S
C807 C806 1.394 . S
C807 C808 1.383 . S
C807 H815 0.929 . S
C808 C807 1.383 . S
C808 C809 1.377 . S
C809 H793 0.930 . S
C809 C808 1.377 . S
C809 C810 1.379 . S
C810 H794 0.931 . S
C810 C804 1.383 . S
C810 C809 1.379 . S
H811 C805 0.959 . S
H812 C805 0.961 . S
H813 C805 0.960 . S
H814 C806 0.930 . S
H815 C807 0.929 . S
H816 C824 0.929 . S
H817 C826 0.930 . S
H818 C828 0.930 . S
H819 C831 0.929 . S
H820 C834 0.930 . S
H821 C836 0.960 . S
H822 C836 0.960 . S
H823 C836 0.960 . S
C824 H816 0.929 . S
C824 C825 1.377 . S
C824 C826 1.384 . S
C825 C824 1.377 . S
C825 C831 1.390 . S
C826 H817 0.930 . S
C826 C824 1.384 . S
C826 C827 1.372 . S
C827 C826 1.372 . S
C827 C828 1.400 . S
C827 C832 1.490 . S
C828 H818 0.930 . S
C828 C827 1.400 . S
C828 C831 1.386 . S
H829 C845 0.930 . S
H830 C846 0.931 . S
C831 H819 0.929 . S
C831 C825 1.390 . S
C831 C828 1.386 . S
C832 C827 1.490 . S
C832 C834 1.395 . S
C832 C835 1.403 . S
H833 C839 0.930 . S
C834 H820 0.930 . S
C834 C832 1.395 . S
C834 C837 1.403 . S
C835 C832 1.403 . S
C835 C836 1.524 . S
C835 C839 1.400 . S
C836 H821 0.960 . S
C836 H822 0.960 . S
C836 H823 0.960 . S
C836 C835 1.524 . S
C837 C834 1.403 . S
C837 C838 1.392 . S
C837 C841 1.495 . S
C838 C837 1.392 . S
C838 C839 1.385 . S
C838 C840 1.478 . S
C839 H833 0.930 . S
C839 C835 1.400 . S
C839 C838 1.385 . S
C840 C838 1.478 . S
C840 C842 1.381 . S
C840 C846 1.383 . S
C841 C837 1.495 . S
C841 H847 0.959 . S
C841 H848 0.961 . S
C841 H849 0.960 . S
C842 C840 1.381 . S
C842 C843 1.394 . S
C842 H850 0.930 . S
C843 C842 1.394 . S
C843 C844 1.383 . S
C843 H851 0.929 . S
C844 C843 1.383 . S
C844 C845 1.377 . S
C845 H829 0.930 . S
C845 C844 1.377 . S
C845 C846 1.379 . S
C846 H830 0.931 . S
C846 C840 1.383 . S
C846 C845 1.379 . S
H847 C841 0.959 . S
H848 C841 0.961 . S
H849 C841 0.960 . S
H850 C842 0.930 . S
H851 C843 0.929 . S
H852 C860 0.929 . S
H853 C862 0.930 . S
H854 C864 0.930 . S
H855 C867 0.929 . S
H856 C870 0.930 . S
H857 C872 0.960 . S
H858 C872 0.960 . S
H859 C872 0.960 . S
C860 H852 0.929 . S
C860 C861 1.377 . S
C860 C862 1.384 . S
C861 C860 1.377 . S
C861 C867 1.390 . S
C862 H853 0.930 . S
C862 C860 1.384 . S
C862 C863 1.372 . S
C863 C862 1.372 . S
C863 C864 1.400 . S
C863 C868 1.490 . S
C864 H854 0.930 . S
C864 C863 1.400 . S
C864 C867 1.386 . S
H865 C881 0.930 . S
H866 C882 0.931 . S
C867 H855 0.929 . S
C867 C861 1.390 . S
C867 C864 1.386 . S
C868 C863 1.490 . S
C868 C870 1.395 . S
C868 C871 1.403 . S
H869 C875 0.930 . S
C870 H856 0.930 . S
C870 C868 1.395 . S
C870 C873 1.403 . S
C871 C868 1.403 . S
C871 C872 1.524 . S
C871 C875 1.400 . S
C872 H857 0.960 . S
C872 H858 0.960 . S
C872 H859 0.960 . S
C872 C871 1.524 . S
C873 C870 1.403 . S
C873 C874 1.392 . S
C873 C877 1.495 . S
C874 C873 1.392 . S
C874 C875 1.385 . S
C874 C876 1.478 . S
C875 H869 0.930 . S
C875 C871 1.400 . S
C875 C874 1.385 . S
C876 C874 1.478 . S
C876 C878 1.381 . S
C876 C882 1.383 . S
C877 C873 1.495 . S
C877 H883 0.959 . S
C877 H884 0.961 . S
C877 H885 0.960 . S
C878 C876 1.381 . S
C878 C879 1.394 . S
C878 H886 0.930 . S
C879 C878 1.394 . S
C879 C880 1.383 . S
C879 H887 0.929 . S
C880 C879 1.383 . S
C880 C881 1.377 . S
C881 H865 0.930 . S
C881 C880 1.377 . S
C881 C882 1.379 . S
C882 H866 0.931 . S
C882 C876 1.383 . S
C882 C881 1.379 . S
H883 C877 0.959 . S
H884 C877 0.961 . S
H885 C877 0.960 . S
H886 C878 0.930 . S
H887 C879 0.929 . S
H888 C896 0.929 . S
H889 C898 0.930 . S
H890 C900 0.930 . S
H891 C903 0.929 . S
H892 C906 0.930 . S
H893 C908 0.960 . S
H894 C908 0.960 . S
H895 C908 0.960 . S
C896 H888 0.929 . S
C896 C897 1.377 . S
C896 C898 1.384 . S
C897 C896 1.377 . S
C897 C903 1.390 . S
C898 H889 0.930 . S
C898 C896 1.384 . S
C898 C899 1.372 . S
C899 C898 1.372 . S
C899 C900 1.400 . S
C899 C904 1.490 . S
C900 H890 0.930 . S
C900 C899 1.400 . S
C900 C903 1.386 . S
H901 C917 0.930 . S
H902 C918 0.931 . S
C903 H891 0.929 . S
C903 C897 1.390 . S
C903 C900 1.386 . S
C904 C899 1.490 . S
C904 C906 1.395 . S
C904 C907 1.403 . S
H905 C911 0.930 . S
C906 H892 0.930 . S
C906 C904 1.395 . S
C906 C909 1.403 . S
C907 C904 1.403 . S
C907 C908 1.524 . S
C907 C911 1.400 . S
C908 H893 0.960 . S
C908 H894 0.960 . S
C908 H895 0.960 . S
C908 C907 1.524 . S
C909 C906 1.403 . S
C909 C910 1.392 . S
C909 C913 1.495 . S
C910 C909 1.392 . S
C910 C911 1.385 . S
C910 C912 1.478 . S
C911 H905 0.930 . S
C911 C907 1.400 . S
C911 C910 1.385 . S
C912 C910 1.478 . S
C912 C914 1.381 . S
C912 C918 1.383 . S
C913 C909 1.495 . S
C913 H919 0.959 . S
C913 H920 0.961 . S
C913 H921 0.960 . S
C914 C912 1.381 . S
C914 C915 1.394 . S
C914 H922 0.930 . S
C915 C914 1.394 . S
C915 C916 1.383 . S
C915 H923 0.929 . S
C916 C915 1.383 . S
C916 C917 1.377 . S
C917 H901 0.930 . S
C917 C916 1.377 . S
C917 C918 1.379 . S
C918 H902 0.931 . S
C918 C912 1.383 . S
C918 C917 1.379 . S
H919 C913 0.959 . S
H920 C913 0.961 . S
H921 C913 0.960 . S
H922 C914 0.930 . S
H923 C915 0.929 . S
H924 C932 0.929 . S
H925 C934 0.930 . S
H926 C936 0.930 . S
H927 C939 0.929 . S
H928 C942 0.930 . S
H929 C944 0.960 . S
H930 C944 0.960 . S
H931 C944 0.960 . S
C932 H924 0.929 . S
C932 C933 1.377 . S
C932 C934 1.384 . S
C933 C932 1.377 . S
C933 C939 1.390 . S
C934 H925 0.930 . S
C934 C932 1.384 . S
C934 C935 1.372 . S
C935 C934 1.372 . S
C935 C936 1.400 . S
C935 C940 1.490 . S
C936 H926 0.930 . S
C936 C935 1.400 . S
C936 C939 1.386 . S
H937 C953 0.930 . S
H938 C954 0.931 . S
C939 H927 0.929 . S
C939 C933 1.390 . S
C939 C936 1.386 . S
C940 C935 1.490 . S
C940 C942 1.395 . S
C940 C943 1.403 . S
H941 C947 0.930 . S
C942 H928 0.930 . S
C942 C940 1.395 . S
C942 C945 1.403 . S
C943 C940 1.403 . S
C943 C944 1.524 . S
C943 C947 1.400 . S
C944 H929 0.960 . S
C944 H930 0.960 . S
C944 H931 0.960 . S
C944 C943 1.524 . S
C945 C942 1.403 . S
C945 C946 1.392 . S
C945 C949 1.495 . S
C946 C945 1.392 . S
C946 C947 1.385 . S
C946 C948 1.478 . S
C947 H941 0.930 . S
C947 C943 1.400 . S
C947 C946 1.385 . S
C948 C946 1.478 . S
C948 C950 1.381 . S
C948 C954 1.383 . S
C949 C945 1.495 . S
C949 H955 0.959 . S
C949 H956 0.961 . S
C949 H957 0.960 . S
C950 C948 1.381 . S
C950 C951 1.394 . S
C950 H958 0.930 . S
C951 C950 1.394 . S
C951 C952 1.383 . S
C951 H959 0.929 . S
C952 C951 1.383 . S
C952 C953 1.377 . S
C953 H937 0.930 . S
C953 C952 1.377 . S
C953 C954 1.379 . S
C954 H938 0.931 . S
C954 C948 1.383 . S
C954 C953 1.379 . S
H955 C949 0.959 . S
H956 C949 0.961 . S
H957 C949 0.960 . S
H958 C950 0.930 . S
H959 C951 0.929 . S
H960 C968 0.929 . S
H961 C970 0.930 . S
H962 C972 0.930 . S
H963 C975 0.929 . S
H964 C978 0.930 . S
H965 C980 0.960 . S
H966 C980 0.960 . S
H967 C980 0.960 . S
C968 H960 0.929 . S
C968 C969 1.377 . S
C968 C970 1.384 . S
C969 C968 1.377 . S
C969 C975 1.390 . S
C970 H961 0.930 . S
C970 C968 1.384 . S
C970 C971 1.372 . S
C971 C970 1.372 . S
C971 C972 1.400 . S
C971 C976 1.490 . S
C972 H962 0.930 . S
C972 C971 1.400 . S
C972 C975 1.386 . S
H973 C989 0.930 . S
H974 C990 0.931 . S
C975 H963 0.929 . S
C975 C969 1.390 . S
C975 C972 1.386 . S
C976 C971 1.490 . S
C976 C978 1.395 . S
C976 C979 1.403 . S
H977 C983 0.930 . S
C978 H964 0.930 . S
C978 C976 1.395 . S
C978 C981 1.403 . S
C979 C976 1.403 . S
C979 C980 1.524 . S
C979 C983 1.400 . S
C980 H965 0.960 . S
C980 H966 0.960 . S
C980 H967 0.960 . S
C980 C979 1.524 . S
C981 C978 1.403 . S
C981 C982 1.392 . S
C981 C985 1.495 . S
C982 C981 1.392 . S
C982 C983 1.385 . S
C982 C984 1.478 . S
C983 H977 0.930 . S
C983 C979 1.400 . S
C983 C982 1.385 . S
C984 C982 1.478 . S
C984 C986 1.381 . S
C984 C990 1.383 . S
C985 C981 1.495 . S
C985 H991 0.959 . S
C985 H992 0.961 . S
C985 H993 0.960 . S
C986 C984 1.381 . S
C986 C987 1.394 . S
C986 H994 0.930 . S
C987 C986 1.394 . S
C987 C988 1.383 . S
C987 H995 0.929 . S
C988 C987 1.383 . S
C988 C989 1.377 . S
C989 H973 0.930 . S
C989 C988 1.377 . S
C989 C990 1.379 . S
C990 H974 0.931 . S
C990 C984 1.383 . S
C990 C989 1.379 . S
H991 C985 0.959 . S
H992 C985 0.961 . S
H993 C985 0.960 . S
H994 C986 0.930 . S
H995 C987 0.929 . S
H996 C1004 0.929 . S
H997 C1006 0.930 . S
H998 C1008 0.930 . S
H999 C1011 0.929 . S
H1000 C1014 0.930 . S
H1001 C1016 0.960 . S
H1002 C1016 0.960 . S
H1003 C1016 0.960 . S
C1004 H996 0.929 . S
C1004 C1005 1.377 . S
C1004 C1006 1.384 . S
C1005 C1004 1.377 . S
C1005 C1011 1.390 . S
C1006 H997 0.930 . S
C1006 C1004 1.384 . S
C1006 C1007 1.372 . S
C1007 C1006 1.372 . S
C1007 C1008 1.400 . S
C1007 C1012 1.490 . S
C1008 H998 0.930 . S
C1008 C1007 1.400 . S
C1008 C1011 1.386 . S
H1009 C1025 0.930 . S
H1010 C1026 0.931 . S
C1011 H999 0.929 . S
C1011 C1005 1.390 . S
C1011 C1008 1.386 . S
C1012 C1007 1.490 . S
C1012 C1014 1.395 . S
C1012 C1015 1.403 . S
H1013 C1019 0.930 . S
C1014 H1000 0.930 . S
C1014 C1012 1.395 . S
C1014 C1017 1.403 . S
C1015 C1012 1.403 . S
C1015 C1016 1.524 . S
C1015 C1019 1.400 . S
C1016 H1001 0.960 . S
C1016 H1002 0.960 . S
C1016 H1003 0.960 . S
C1016 C1015 1.524 . S
C1017 C1014 1.403 . S
C1017 C1018 1.392 . S
C1017 C1021 1.495 . S
C1018 C1017 1.392 . S
C1018 C1019 1.385 . S
C1018 C1020 1.478 . S
C1019 H1013 0.930 . S
C1019 C1015 1.400 . S
C1019 C1018 1.385 . S
C1020 C1018 1.478 . S
C1020 C1022 1.381 . S
C1020 C1026 1.383 . S
C1021 C1017 1.495 . S
C1021 H1027 0.959 . S
C1021 H1028 0.961 . S
C1021 H1029 0.960 . S
C1022 C1020 1.381 . S
C1022 C1023 1.394 . S
C1022 H1030 0.930 . S
C1023 C1022 1.394 . S
C1023 C1024 1.383 . S
C1023 H1031 0.929 . S
C1024 C1023 1.383 . S
C1024 C1025 1.377 . S
C1025 H1009 0.930 . S
C1025 C1024 1.377 . S
C1025 C1026 1.379 . S
C1026 H1010 0.931 . S
C1026 C1020 1.383 . S
C1026 C1025 1.379 . S
H1027 C1021 0.959 . S
H1028 C1021 0.961 . S
H1029 C1021 0.960 . S
H1030 C1022 0.930 . S
H1031 C1023 0.929 . S
H1032 C1040 0.929 . S
H1033 C1042 0.930 . S
H1034 C1044 0.930 . S
H1035 C1047 0.929 . S
H1036 C1050 0.930 . S
H1037 C1052 0.960 . S
H1038 C1052 0.960 . S
H1039 C1052 0.960 . S
C1040 H1032 0.929 . S
C1040 C1041 1.377 . S
C1040 C1042 1.384 . S
C1041 C1040 1.377 . S
C1041 C1047 1.390 . S
C1042 H1033 0.930 . S
C1042 C1040 1.384 . S
C1042 C1043 1.372 . S
C1043 C1042 1.372 . S
C1043 C1044 1.400 . S
C1043 C1048 1.490 . S
C1044 H1034 0.930 . S
C1044 C1043 1.400 . S
C1044 C1047 1.386 . S
H1045 C1061 0.930 . S
H1046 C1062 0.931 . S
C1047 H1035 0.929 . S
C1047 C1041 1.390 . S
C1047 C1044 1.386 . S
C1048 C1043 1.490 . S
C1048 C1050 1.395 . S
C1048 C1051 1.403 . S
H1049 C1055 0.930 . S
C1050 H1036 0.930 . S
C1050 C1048 1.395 . S
C1050 C1053 1.403 . S
C1051 C1048 1.403 . S
C1051 C1052 1.524 . S
C1051 C1055 1.400 . S
C1052 H1037 0.960 . S
C1052 H1038 0.960 . S
C1052 H1039 0.960 . S
C1052 C1051 1.524 . S
C1053 C1050 1.403 . S
C1053 C1054 1.392 . S
C1053 C1057 1.495 . S
C1054 C1053 1.392 . S
C1054 C1055 1.385 . S
C1054 C1056 1.478 . S
C1055 H1049 0.930 . S
C1055 C1051 1.400 . S
C1055 C1054 1.385 . S
C1056 C1054 1.478 . S
C1056 C1058 1.381 . S
C1056 C1062 1.383 . S
C1057 C1053 1.495 . S
C1057 H1063 0.959 . S
C1057 H1064 0.961 . S
C1057 H1065 0.960 . S
C1058 C1056 1.381 . S
C1058 C1059 1.394 . S
C1058 H1066 0.930 . S
C1059 C1058 1.394 . S
C1059 C1060 1.383 . S
C1059 H1067 0.929 . S
C1060 C1059 1.383 . S
C1060 C1061 1.377 . S
C1061 H1045 0.930 . S
C1061 C1060 1.377 . S
C1061 C1062 1.379 . S
C1062 H1046 0.931 . S
C1062 C1056 1.383 . S
C1062 C1061 1.379 . S
H1063 C1057 0.959 . S
H1064 C1057 0.961 . S
H1065 C1057 0.960 . S
H1066 C1058 0.930 . S
H1067 C1059 0.929 . S
H1068 C1076 0.929 . S
H1069 C1078 0.930 . S
H1070 C1080 0.930 . S
H1071 C1083 0.929 . S
H1072 C1086 0.930 . S
H1073 C1088 0.960 . S
H1074 C1088 0.960 . S
H1075 C1088 0.960 . S
C1076 H1068 0.929 . S
C1076 C1077 1.377 . S
C1076 C1078 1.384 . S
C1077 C1076 1.377 . S
C1077 C1083 1.390 . S
C1078 H1069 0.930 . S
C1078 C1076 1.384 . S
C1078 C1079 1.372 . S
C1079 C1078 1.372 . S
C1079 C1080 1.400 . S
C1079 C1084 1.490 . S
C1080 H1070 0.930 . S
C1080 C1079 1.400 . S
C1080 C1083 1.386 . S
H1081 C1097 0.930 . S
H1082 C1098 0.931 . S
C1083 H1071 0.929 . S
C1083 C1077 1.390 . S
C1083 C1080 1.386 . S
C1084 C1079 1.490 . S
C1084 C1086 1.395 . S
C1084 C1087 1.403 . S
H1085 C1091 0.930 . S
C1086 H1072 0.930 . S
C1086 C1084 1.395 . S
C1086 C1089 1.403 . S
C1087 C1084 1.403 . S
C1087 C1088 1.524 . S
C1087 C1091 1.400 . S
C1088 H1073 0.960 . S
C1088 H1074 0.960 . S
C1088 H1075 0.960 . S
C1088 C1087 1.524 . S
C1089 C1086 1.403 . S
C1089 C1090 1.392 . S
C1089 C1093 1.495 . S
C1090 C1089 1.392 . S
C1090 C1091 1.385 . S
C1090 C1092 1.478 . S
C1091 H1085 0.930 . S
C1091 C1087 1.400 . S
C1091 C1090 1.385 . S
C1092 C1090 1.478 . S
C1092 C1094 1.381 . S
C1092 C1098 1.383 . S
C1093 C1089 1.495 . S
C1093 H1099 0.959 . S
C1093 H1100 0.961 . S
C1093 H1101 0.960 . S
C1094 C1092 1.381 . S
C1094 C1095 1.394 . S
C1094 H1102 0.930 . S
C1095 C1094 1.394 . S
C1095 C1096 1.383 . S
C1095 H1103 0.929 . S
C1096 C1095 1.383 . S
C1096 C1097 1.377 . S
C1097 H1081 0.930 . S
C1097 C1096 1.377 . S
C1097 C1098 1.379 . S
C1098 H1082 0.931 . S
C1098 C1092 1.383 . S
C1098 C1097 1.379 . S
H1099 C1093 0.959 . S
H1100 C1093 0.961 . S
H1101 C1093 0.960 . S
H1102 C1094 0.930 . S
H1103 C1095 0.929 . S
H1104 C1112 0.929 . S
H1105 C1114 0.930 . S
H1106 C1116 0.930 . S
H1107 C1119 0.929 . S
H1108 C1122 0.930 . S
H1109 C1124 0.960 . S
H1110 C1124 0.960 . S
H1111 C1124 0.960 . S
C1112 H1104 0.929 . S
C1112 C1113 1.377 . S
C1112 C1114 1.384 . S
C1113 C1112 1.377 . S
C1113 C1119 1.390 . S
C1114 H1105 0.930 . S
C1114 C1112 1.384 . S
C1114 C1115 1.372 . S
C1115 C1114 1.372 . S
C1115 C1116 1.400 . S
C1115 C1120 1.490 . S
C1116 H1106 0.930 . S
C1116 C1115 1.400 . S
C1116 C1119 1.386 . S
H1117 C1133 0.930 . S
H1118 C1134 0.931 . S
C1119 H1107 0.929 . S
C1119 C1113 1.390 . S
C1119 C1116 1.386 . S
C1120 C1115 1.490 . S
C1120 C1122 1.395 . S
C1120 C1123 1.403 . S
H1121 C1127 0.930 . S
C1122 H1108 0.930 . S
C1122 C1120 1.395 . S
C1122 C1125 1.403 . S
C1123 C1120 1.403 . S
C1123 C1124 1.524 . S
C1123 C1127 1.400 . S
C1124 H1109 0.960 . S
C1124 H1110 0.960 . S
C1124 H1111 0.960 . S
C1124 C1123 1.524 . S
C1125 C1122 1.403 . S
C1125 C1126 1.392 . S
C1125 C1129 1.495 . S
C1126 C1125 1.392 . S
C1126 C1127 1.385 . S
C1126 C1128 1.478 . S
C1127 H1121 0.930 . S
C1127 C1123 1.400 . S
C1127 C1126 1.385 . S
C1128 C1126 1.478 . S
C1128 C1130 1.381 . S
C1128 C1134 1.383 . S
C1129 C1125 1.495 . S
C1129 H1135 0.959 . S
C1129 H1136 0.961 . S
C1129 H1137 0.960 . S
C1130 C1128 1.381 . S
C1130 C1131 1.394 . S
C1130 H1138 0.930 . S
C1131 C1130 1.394 . S
C1131 C1132 1.383 . S
C1131 H1139 0.929 . S
C1132 C1131 1.383 . S
C1132 C1133 1.377 . S
C1133 H1117 0.930 . S
C1133 C1132 1.377 . S
C1133 C1134 1.379 . S
C1134 H1118 0.931 . S
C1134 C1128 1.383 . S
C1134 C1133 1.379 . S
H1135 C1129 0.959 . S
H1136 C1129 0.961 . S
H1137 C1129 0.960 . S
H1138 C1130 0.930 . S
H1139 C1131 0.929 . S
H1140 C1148 0.929 . S
H1141 C1150 0.930 . S
H1142 C1152 0.930 . S
H1143 C1155 0.929 . S
H1144 C1158 0.930 . S
H1145 C1160 0.960 . S
H1146 C1160 0.960 . S
H1147 C1160 0.960 . S
C1148 H1140 0.929 . S
C1148 C1149 1.377 . S
C1148 C1150 1.384 . S
C1149 C1148 1.377 . S
C1149 C1155 1.390 . S
C1150 H1141 0.930 . S
C1150 C1148 1.384 . S
C1150 C1151 1.372 . S
C1151 C1150 1.372 . S
C1151 C1152 1.400 . S
C1151 C1156 1.490 . S
C1152 H1142 0.930 . S
C1152 C1151 1.400 . S
C1152 C1155 1.386 . S
H1153 C1169 0.930 . S
H1154 C1170 0.931 . S
C1155 H1143 0.929 . S
C1155 C1149 1.390 . S
C1155 C1152 1.386 . S
C1156 C1151 1.490 . S
C1156 C1158 1.395 . S
C1156 C1159 1.403 . S
H1157 C1163 0.930 . S
C1158 H1144 0.930 . S
C1158 C1156 1.395 . S
C1158 C1161 1.403 . S
C1159 C1156 1.403 . S
C1159 C1160 1.524 . S
C1159 C1163 1.400 . S
C1160 H1145 0.960 . S
C1160 H1146 0.960 . S
C1160 H1147 0.960 . S
C1160 C1159 1.524 . S
C1161 C1158 1.403 . S
C1161 C1162 1.392 . S
C1161 C1165 1.495 . S
C1162 C1161 1.392 . S
C1162 C1163 1.385 . S
C1162 C1164 1.478 . S
C1163 H1157 0.930 . S
C1163 C1159 1.400 . S
C1163 C1162 1.385 . S
C1164 C1162 1.478 . S
C1164 C1166 1.381 . S
C1164 C1170 1.383 . S
C1165 C1161 1.495 . S
C1165 H1171 0.959 . S
C1165 H1172 0.961 . S
C1165 H1173 0.960 . S
C1166 C1164 1.381 . S
C1166 C1167 1.394 . S
C1166 H1174 0.930 . S
C1167 C1166 1.394 . S
C1167 C1168 1.383 . S
C1167 H1175 0.929 . S
C1168 C1167 1.383 . S
C1168 C1169 1.377 . S
C1169 H1153 0.930 . S
C1169 C1168 1.377 . S
C1169 C1170 1.379 . S
C1170 H1154 0.931 . S
C1170 C1164 1.383 . S
C1170 C1169 1.379 . S
H1171 C1165 0.959 . S
H1172 C1165 0.961 . S
H1173 C1165 0.960 . S
H1174 C1166 0.930 . S
H1175 C1167 0.929 . S
H1176 C1184 0.929 . S
H1177 C1186 0.930 . S
H1178 C1188 0.930 . S
H1179 C1191 0.929 . S
H1180 C1194 0.930 . S
H1181 C1196 0.960 . S
H1182 C1196 0.960 . S
H1183 C1196 0.960 . S
C1184 H1176 0.929 . S
C1184 C1185 1.377 . S
C1184 C1186 1.384 . S
C1185 C1184 1.377 . S
C1185 C1191 1.390 . S
C1186 H1177 0.930 . S
C1186 C1184 1.384 . S
C1186 C1187 1.372 . S
C1187 C1186 1.372 . S
C1187 C1188 1.400 . S
C1187 C1192 1.490 . S
C1188 H1178 0.930 . S
C1188 C1187 1.400 . S
C1188 C1191 1.386 . S
H1189 C1205 0.930 . S
H1190 C1206 0.931 . S
C1191 H1179 0.929 . S
C1191 C1185 1.390 . S
C1191 C1188 1.386 . S
C1192 C1187 1.490 . S
C1192 C1194 1.395 . S
C1192 C1195 1.403 . S
H1193 C1199 0.930 . S
C1194 H1180 0.930 . S
C1194 C1192 1.395 . S
C1194 C1197 1.403 . S
C1195 C1192 1.403 . S
C1195 C1196 1.524 . S
C1195 C1199 1.400 . S
C1196 H1181 0.960 . S
C1196 H1182 0.960 . S
C1196 H1183 0.960 . S
C1196 C1195 1.524 . S
C1197 C1194 1.403 . S
C1197 C1198 1.392 . S
C1197 C1201 1.495 . S
C1198 C1197 1.392 . S
C1198 C1199 1.385 . S
C1198 C1200 1.478 . S
C1199 H1193 0.930 . S
C1199 C1195 1.400 . S
C1199 C1198 1.385 . S
C1200 C1198 1.478 . S
C1200 C1202 1.381 . S
C1200 C1206 1.383 . S
C1201 C1197 1.495 . S
C1201 H1207 0.959 . S
C1201 H1208 0.961 . S
C1201 H1209 0.960 . S
C1202 C1200 1.381 . S
C1202 C1203 1.394 . S
C1202 H1210 0.930 . S
C1203 C1202 1.394 . S
C1203 C1204 1.383 . S
C1203 H1211 0.929 . S
C1204 C1203 1.383 . S
C1204 C1205 1.377 . S
C1205 H1189 0.930 . S
C1205 C1204 1.377 . S
C1205 C1206 1.379 . S
C1206 H1190 0.931 . S
C1206 C1200 1.383 . S
C1206 C1205 1.379 . S
H1207 C1201 0.959 . S
H1208 C1201 0.961 . S
H1209 C1201 0.960 . S
H1210 C1202 0.930 . S
H1211 C1203 0.929 . S
H1212 C1220 0.929 . S
H1213 C1222 0.930 . S
H1214 C1224 0.930 . S
H1215 C1227 0.929 . S
H1216 C1230 0.930 . S
H1217 C1232 0.960 . S
H1218 C1232 0.960 . S
H1219 C1232 0.960 . S
C1220 H1212 0.929 . S
C1220 C1221 1.377 . S
C1220 C1222 1.384 . S
C1221 C1220 1.377 . S
C1221 C1227 1.390 . S
C1222 H1213 0.930 . S
C1222 C1220 1.384 . S
C1222 C1223 1.372 . S
C1223 C1222 1.372 . S
C1223 C1224 1.400 . S
C1223 C1228 1.490 . S
C1224 H1214 0.930 . S
C1224 C1223 1.400 . S
C1224 C1227 1.386 . S
H1225 C1241 0.930 . S
H1226 C1242 0.931 . S
C1227 H1215 0.929 . S
C1227 C1221 1.390 . S
C1227 C1224 1.386 . S
C1228 C1223 1.490 . S
C1228 C1230 1.395 . S
C1228 C1231 1.403 . S
H1229 C1235 0.930 . S
C1230 H1216 0.930 . S
C1230 C1228 1.395 . S
C1230 C1233 1.403 . S
C1231 C1228 1.403 . S
C1231 C1232 1.524 . S
C1231 C1235 1.400 . S
C1232 H1217 0.960 . S
C1232 H1218 0.960 . S
C1232 H1219 0.960 . S
C1232 C1231 1.524 . S
C1233 C1230 1.403 . S
C1233 C1234 1.392 . S
C1233 C1237 1.495 . S
C1234 C1233 1.392 . S
C1234 C1235 1.385 . S
C1234 C1236 1.478 . S
C1235 H1229 0.930 . S
C1235 C1231 1.400 . S
C1235 C1234 1.385 . S
C1236 C1234 1.478 . S
C1236 C1238 1.381 . S
C1236 C1242 1.383 . S
C1237 C1233 1.495 . S
C1237 H1243 0.959 . S
C1237 H1244 0.961 . S
C1237 H1245 0.960 . S
C1238 C1236 1.381 . S
C1238 C1239 1.394 . S
C1238 H1246 0.930 . S
C1239 C1238 1.394 . S
C1239 C1240 1.383 . S
C1239 H1247 0.929 . S
C1240 C1239 1.383 . S
C1240 C1241 1.377 . S
C1241 H1225 0.930 . S
C1241 C1240 1.377 . S
C1241 C1242 1.379 . S
C1242 H1226 0.931 . S
C1242 C1236 1.383 . S
C1242 C1241 1.379 . S
H1243 C1237 0.959 . S
H1244 C1237 0.961 . S
H1245 C1237 0.960 . S
H1246 C1238 0.930 . S
H1247 C1239 0.929 . S
H1248 C1256 0.929 . S
H1249 C1258 0.930 . S
H1250 C1260 0.930 . S
H1251 C1263 0.929 . S
H1252 C1266 0.930 . S
H1253 C1268 0.960 . S
H1254 C1268 0.960 . S
H1255 C1268 0.960 . S
C1256 H1248 0.929 . S
C1256 C1257 1.377 . S
C1256 C1258 1.384 . S
C1257 C1256 1.377 . S
C1257 C1263 1.390 . S
C1258 H1249 0.930 . S
C1258 C1256 1.384 . S
C1258 C1259 1.372 . S
C1259 C1258 1.372 . S
C1259 C1260 1.400 . S
C1259 C1264 1.490 . S
C1260 H1250 0.930 . S
C1260 C1259 1.400 . S
C1260 C1263 1.386 . S
H1261 C1277 0.930 . S
H1262 C1278 0.931 . S
C1263 H1251 0.929 . S
C1263 C1257 1.390 . S
C1263 C1260 1.386 . S
C1264 C1259 1.490 . S
C1264 C1266 1.395 . S
C1264 C1267 1.403 . S
H1265 C1271 0.930 . S
C1266 H1252 0.930 . S
C1266 C1264 1.395 . S
C1266 C1269 1.403 . S
C1267 C1264 1.403 . S
C1267 C1268 1.524 . S
C1267 C1271 1.400 . S
C1268 H1253 0.960 . S
C1268 H1254 0.960 . S
C1268 H1255 0.960 . S
C1268 C1267 1.524 . S
C1269 C1266 1.403 . S
C1269 C1270 1.392 . S
C1269 C1273 1.495 . S
C1270 C1269 1.392 . S
C1270 C1271 1.385 . S
C1270 C1272 1.478 . S
C1271 H1265 0.930 . S
C1271 C1267 1.400 . S
C1271 C1270 1.385 . S
C1272 C1270 1.478 . S
C1272 C1274 1.381 . S
C1272 C1278 1.383 . S
C1273 C1269 1.495 . S
C1273 H1279 0.959 . S
C1273 H1280 0.961 . S
C1273 H1281 0.960 . S
C1274 C1272 1.381 . S
C1274 C1275 1.394 . S
C1274 H1282 0.930 . S
C1275 C1274 1.394 . S
C1275 C1276 1.383 . S
C1275 H1283 0.929 . S
C1276 C1275 1.383 . S
C1276 C1277 1.377 . S
C1277 H1261 0.930 . S
C1277 C1276 1.377 . S
C1277 C1278 1.379 . S
C1278 H1262 0.931 . S
C1278 C1272 1.383 . S
C1278 C1277 1.379 . S
H1279 C1273 0.959 . S
H1280 C1273 0.961 . S
H1281 C1273 0.960 . S
H1282 C1274 0.930 . S
H1283 C1275 0.929 . S
H1284 C1292 0.929 . S
H1285 C1294 0.930 . S
H1286 C1296 0.930 . S
H1287 C1299 0.929 . S
H1288 C1302 0.930 . S
H1289 C1304 0.960 . S
H1290 C1304 0.960 . S
H1291 C1304 0.960 . S
C1292 H1284 0.929 . S
C1292 C1293 1.377 . S
C1292 C1294 1.384 . S
C1293 C1292 1.377 . S
C1293 C1299 1.390 . S
C1294 H1285 0.930 . S
C1294 C1292 1.384 . S
C1294 C1295 1.372 . S
C1295 C1294 1.372 . S
C1295 C1296 1.400 . S
C1295 C1300 1.490 . S
C1296 H1286 0.930 . S
C1296 C1295 1.400 . S
C1296 C1299 1.386 . S
H1297 C1313 0.930 . S
H1298 C1314 0.931 . S
C1299 H1287 0.929 . S
C1299 C1293 1.390 . S
C1299 C1296 1.386 . S
C1300 C1295 1.490 . S
C1300 C1302 1.395 . S
C1300 C1303 1.403 . S
H1301 C1307 0.930 . S
C1302 H1288 0.930 . S
C1302 C1300 1.395 . S
C1302 C1305 1.403 . S
C1303 C1300 1.403 . S
C1303 C1304 1.524 . S
C1303 C1307 1.400 . S
C1304 H1289 0.960 . S
C1304 H1290 0.960 . S
C1304 H1291 0.960 . S
C1304 C1303 1.524 . S
C1305 C1302 1.403 . S
C1305 C1306 1.392 . S
C1305 C1309 1.495 . S
C1306 C1305 1.392 . S
C1306 C1307 1.385 . S
C1306 C1308 1.478 . S
C1307 H1301 0.930 . S
C1307 C1303 1.400 . S
C1307 C1306 1.385 . S
C1308 C1306 1.478 . S
C1308 C1310 1.381 . S
C1308 C1314 1.383 . S
C1309 C1305 1.495 . S
C1309 H1315 0.959 . S
C1309 H1316 0.961 . S
C1309 H1317 0.960 . S
C1310 C1308 1.381 . S
C1310 C1311 1.394 . S
C1310 H1318 0.930 . S
C1311 C1310 1.394 . S
C1311 C1312 1.383 . S
C1311 H1319 0.929 . S
C1312 C1311 1.383 . S
C1312 C1313 1.377 . S
C1313 H1297 0.930 . S
C1313 C1312 1.377 . S
C1313 C1314 1.379 . S
C1314 H1298 0.931 . S
C1314 C1308 1.383 . S
C1314 C1313 1.379 . S
H1315 C1309 0.959 . S
H1316 C1309 0.961 . S
H1317 C1309 0.960 . S
H1318 C1310 0.930 . S
H1319 C1311 0.929 . S
H1320 C1328 0.929 . S
H1321 C1330 0.930 . S
H1322 C1332 0.930 . S
H1323 C1335 0.929 . S
H1324 C1338 0.930 . S
H1325 C1340 0.960 . S
H1326 C1340 0.960 . S
H1327 C1340 0.960 . S
C1328 H1320 0.929 . S
C1328 C1329 1.377 . S
C1328 C1330 1.384 . S
C1329 C1328 1.377 . S
C1329 C1335 1.390 . S
C1330 H1321 0.930 . S
C1330 C1328 1.384 . S
C1330 C1331 1.372 . S
C1331 C1330 1.372 . S
C1331 C1332 1.400 . S
C1331 C1336 1.490 . S
C1332 H1322 0.930 . S
C1332 C1331 1.400 . S
C1332 C1335 1.386 . S
H1333 C1349 0.930 . S
H1334 C1350 0.931 . S
C1335 H1323 0.929 . S
C1335 C1329 1.390 . S
C1335 C1332 1.386 . S
C1336 C1331 1.490 . S
C1336 C1338 1.395 . S
C1336 C1339 1.403 . S
H1337 C1343 0.930 . S
C1338 H1324 0.930 . S
C1338 C1336 1.395 . S
C1338 C1341 1.403 . S
C1339 C1336 1.403 . S
C1339 C1340 1.524 . S
C1339 C1343 1.400 . S
C1340 H1325 0.960 . S
C1340 H1326 0.960 . S
C1340 H1327 0.960 . S
C1340 C1339 1.524 . S
C1341 C1338 1.403 . S
C1341 C1342 1.392 . S
C1341 C1345 1.495 . S
C1342 C1341 1.392 . S
C1342 C1343 1.385 . S
C1342 C1344 1.478 . S
C1343 H1337 0.930 . S
C1343 C1339 1.400 . S
C1343 C1342 1.385 . S
C1344 C1342 1.478 . S
C1344 C1346 1.381 . S
C1344 C1350 1.383 . S
C1345 C1341 1.495 . S
C1345 H1351 0.959 . S
C1345 H1352 0.961 . S
C1345 H1353 0.960 . S
C1346 C1344 1.381 . S
C1346 C1347 1.394 . S
C1346 H1354 0.930 . S
C1347 C1346 1.394 . S
C1347 C1348 1.383 . S
C1347 H1355 0.929 . S
C1348 C1347 1.383 . S
C1348 C1349 1.377 . S
C1349 H1333 0.930 . S
C1349 C1348 1.377 . S
C1349 C1350 1.379 . S
C1350 H1334 0.931 . S
C1350 C1344 1.383 . S
C1350 C1349 1.379 . S
H1351 C1345 0.959 . S
H1352 C1345 0.961 . S
H1353 C1345 0.960 . S
H1354 C1346 0.930 . S
H1355 C1347 0.929 . S
H1356 C1364 0.929 . S
H1357 C1366 0.930 . S
H1358 C1368 0.930 . S
H1359 C1371 0.929 . S
H1360 C1374 0.930 . S
H1361 C1376 0.960 . S
H1362 C1376 0.960 . S
H1363 C1376 0.960 . S
C1364 H1356 0.929 . S
C1364 C1365 1.377 . S
C1364 C1366 1.384 . S
C1365 C1364 1.377 . S
C1365 C1371 1.390 . S
C1366 H1357 0.930 . S
C1366 C1364 1.384 . S
C1366 C1367 1.372 . S
C1367 C1366 1.372 . S
C1367 C1368 1.400 . S
C1367 C1372 1.490 . S
C1368 H1358 0.930 . S
C1368 C1367 1.400 . S
C1368 C1371 1.386 . S
H1369 C1385 0.930 . S
H1370 C1386 0.931 . S
C1371 H1359 0.929 . S
C1371 C1365 1.390 . S
C1371 C1368 1.386 . S
C1372 C1367 1.490 . S
C1372 C1374 1.395 . S
C1372 C1375 1.403 . S
H1373 C1379 0.930 . S
C1374 H1360 0.930 . S
C1374 C1372 1.395 . S
C1374 C1377 1.403 . S
C1375 C1372 1.403 . S
C1375 C1376 1.524 . S
C1375 C1379 1.400 . S
C1376 H1361 0.960 . S
C1376 H1362 0.960 . S
C1376 H1363 0.960 . S
C1376 C1375 1.524 . S
C1377 C1374 1.403 . S
C1377 C1378 1.392 . S
C1377 C1381 1.495 . S
C1378 C1377 1.392 . S
C1378 C1379 1.385 . S
C1378 C1380 1.478 . S
C1379 H1373 0.930 . S
C1379 C1375 1.400 . S
C1379 C1378 1.385 . S
C1380 C1378 1.478 . S
C1380 C1382 1.381 . S
C1380 C1386 1.383 . S
C1381 C1377 1.495 . S
C1381 H1387 0.959 . S
C1381 H1388 0.961 . S
C1381 H1389 0.960 . S
C1382 C1380 1.381 . S
C1382 C1383 1.394 . S
C1382 H1390 0.930 . S
C1383 C1382 1.394 . S
C1383 C1384 1.383 . S
C1383 H1391 0.929 . S
C1384 C1383 1.383 . S
C1384 C1385 1.377 . S
C1385 H1369 0.930 . S
C1385 C1384 1.377 . S
C1385 C1386 1.379 . S
C1386 H1370 0.931 . S
C1386 C1380 1.383 . S
C1386 C1385 1.379 . S
H1387 C1381 0.959 . S
H1388 C1381 0.961 . S
H1389 C1381 0.960 . S
H1390 C1382 0.930 . S
H1391 C1383 0.929 . S
H1392 C1400 0.929 . S
H1393 C1402 0.930 . S
H1394 C1404 0.930 . S
H1395 C1407 0.929 . S
H1396 C1410 0.930 . S
H1397 C1412 0.960 . S
H1398 C1412 0.960 . S
H1399 C1412 0.960 . S
C1400 H1392 0.929 . S
C1400 C1401 1.377 . S
C1400 C1402 1.384 . S
C1401 C1400 1.377 . S
C1401 C1407 1.390 . S
C1402 H1393 0.930 . S
C1402 C1400 1.384 . S
C1402 C1403 1.372 . S
C1403 C1402 1.372 . S
C1403 C1404 1.400 . S
C1403 C1408 1.490 . S
C1404 H1394 0.930 . S
C1404 C1403 1.400 . S
C1404 C1407 1.386 . S
H1405 C1421 0.930 . S
H1406 C1422 0.931 . S
C1407 H1395 0.929 . S
C1407 C1401 1.390 . S
C1407 C1404 1.386 . S
C1408 C1403 1.490 . S
C1408 C1410 1.395 . S
C1408 C1411 1.403 . S
H1409 C1415 0.930 . S
C1410 H1396 0.930 . S
C1410 C1408 1.395 . S
C1410 C1413 1.403 . S
C1411 C1408 1.403 . S
C1411 C1412 1.524 . S
C1411 C1415 1.400 . S
C1412 H1397 0.960 . S
C1412 H1398 0.960 . S
C1412 H1399 0.960 . S
C1412 C1411 1.524 . S
C1413 C1410 1.403 . S
C1413 C1414 1.392 . S
C1413 C1417 1.495 . S
C1414 C1413 1.392 . S
C1414 C1415 1.385 . S
C1414 C1416 1.478 . S
C1415 H1409 0.930 . S
C1415 C1411 1.400 . S
C1415 C1414 1.385 . S
C1416 C1414 1.478 . S
C1416 C1418 1.381 . S
C1416 C1422 1.383 . S
C1417 C1413 1.495 . S
C1417 H1423 0.959 . S
C1417 H1424 0.961 . S
C1417 H1425 0.960 . S
C1418 C1416 1.381 . S
C1418 C1419 1.394 . S
C1418 H1426 0.930 . S
C1419 C1418 1.394 . S
C1419 C1420 1.383 . S
C1419 H1427 0.929 . S
C1420 C1419 1.383 . S
C1420 C1421 1.377 . S
C1421 H1405 0.930 . S
C1421 C1420 1.377 . S
C1421 C1422 1.379 . S
C1422 H1406 0.931 . S
C1422 C1416 1.383 . S
C1422 C1421 1.379 . S
H1423 C1417 0.959 . S
H1424 C1417 0.961 . S
H1425 C1417 0.960 . S
H1426 C1418 0.930 . S
H1427 C1419 0.929 . S
H1428 C1436 0.929 . S
H1429 C1438 0.930 . S
H1430 C1440 0.930 . S
H1431 C1443 0.929 . S
H1432 C1446 0.930 . S
H1433 C1448 0.960 . S
H1434 C1448 0.960 . S
H1435 C1448 0.960 . S
C1436 H1428 0.929 . S
C1436 C1437 1.377 . S
C1436 C1438 1.384 . S
C1437 C1436 1.377 . S
C1437 C1443 1.390 . S
C1438 H1429 0.930 . S
C1438 C1436 1.384 . S
C1438 C1439 1.372 . S
C1439 C1438 1.372 . S
C1439 C1440 1.400 . S
C1439 C1444 1.490 . S
C1440 H1430 0.930 . S
C1440 C1439 1.400 . S
C1440 C1443 1.386 . S
H1441 C1457 0.930 . S
H1442 C1458 0.931 . S
C1443 H1431 0.929 . S
C1443 C1437 1.390 . S
C1443 C1440 1.386 . S
C1444 C1439 1.490 . S
C1444 C1446 1.395 . S
C1444 C1447 1.403 . S
H1445 C1451 0.930 . S
C1446 H1432 0.930 . S
C1446 C1444 1.395 . S
C1446 C1449 1.403 . S
C1447 C1444 1.403 . S
C1447 C1448 1.524 . S
C1447 C1451 1.400 . S
C1448 H1433 0.960 . S
C1448 H1434 0.960 . S
C1448 H1435 0.960 . S
C1448 C1447 1.524 . S
C1449 C1446 1.403 . S
C1449 C1450 1.392 . S
C1449 C1453 1.495 . S
C1450 C1449 1.392 . S
C1450 C1451 1.385 . S
C1450 C1452 1.478 . S
C1451 H1445 0.930 . S
C1451 C1447 1.400 . S
C1451 C1450 1.385 . S
C1452 C1450 1.478 . S
C1452 C1454 1.381 . S
C1452 C1458 1.383 . S
C1453 C1449 1.495 . S
C1453 H1459 0.959 . S
C1453 H1460 0.961 . S
C1453 H1461 0.960 . S
C1454 C1452 1.381 . S
C1454 C1455 1.394 . S
C1454 H1462 0.930 . S
C1455 C1454 1.394 . S
C1455 C1456 1.383 . S
C1455 H1463 0.929 . S
C1456 C1455 1.383 . S
C1456 C1457 1.377 . S
C1457 H1441 0.930 . S
C1457 C1456 1.377 . S
C1457 C1458 1.379 . S
C1458 H1442 0.931 . S
C1458 C1452 1.383 . S
C1458 C1457 1.379 . S
H1459 C1453 0.959 . S
H1460 C1453 0.961 . S
H1461 C1453 0.960 . S
H1462 C1454 0.930 . S
H1463 C1455 0.929 . S
H1464 C1472 0.929 . S
H1465 C1474 0.930 . S
H1466 C1476 0.930 . S
H1467 C1479 0.929 . S
H1468 C1482 0.930 . S
H1469 C1484 0.960 . S
H1470 C1484 0.960 . S
H1471 C1484 0.960 . S
C1472 H1464 0.929 . S
C1472 C1473 1.377 . S
C1472 C1474 1.384 . S
C1473 C1472 1.377 . S
C1473 C1479 1.390 . S
C1474 H1465 0.930 . S
C1474 C1472 1.384 . S
C1474 C1475 1.372 . S
C1475 C1474 1.372 . S
C1475 C1476 1.400 . S
C1475 C1480 1.490 . S
C1476 H1466 0.930 . S
C1476 C1475 1.400 . S
C1476 C1479 1.386 . S
H1477 C1493 0.930 . S
H1478 C1494 0.931 . S
C1479 H1467 0.929 . S
C1479 C1473 1.390 . S
C1479 C1476 1.386 . S
C1480 C1475 1.490 . S
C1480 C1482 1.395 . S
C1480 C1483 1.403 . S
H1481 C1487 0.930 . S
C1482 H1468 0.930 . S
C1482 C1480 1.395 . S
C1482 C1485 1.403 . S
C1483 C1480 1.403 . S
C1483 C1484 1.524 . S
C1483 C1487 1.400 . S
C1484 H1469 0.960 . S
C1484 H1470 0.960 . S
C1484 H1471 0.960 . S
C1484 C1483 1.524 . S
C1485 C1482 1.403 . S
C1485 C1486 1.392 . S
C1485 C1489 1.495 . S
C1486 C1485 1.392 . S
C1486 C1487 1.385 . S
C1486 C1488 1.478 . S
C1487 H1481 0.930 . S
C1487 C1483 1.400 . S
C1487 C1486 1.385 . S
C1488 C1486 1.478 . S
C1488 C1490 1.381 . S
C1488 C1494 1.383 . S
C1489 C1485 1.495 . S
C1489 H1495 0.959 . S
C1489 H1496 0.961 . S
C1489 H1497 0.960 . S
C1490 C1488 1.381 . S
C1490 C1491 1.394 . S
C1490 H1498 0.930 . S
C1491 C1490 1.394 . S
C1491 C1492 1.383 . S
C1491 H1499 0.929 . S
C1492 C1491 1.383 . S
C1492 C1493 1.377 . S
C1493 H1477 0.930 . S
C1493 C1492 1.377 . S
C1493 C1494 1.379 . S
C1494 H1478 0.931 . S
C1494 C1488 1.383 . S
C1494 C1493 1.379 . S
H1495 C1489 0.959 . S
H1496 C1489 0.961 . S
H1497 C1489 0.960 . S
H1498 C1490 0.930 . S
H1499 C1491 0.929 . S
H1500 C1508 0.929 . S
H1501 C1510 0.930 . S
H1502 C1512 0.930 . S
H1503 C1515 0.929 . S
H1504 C1518 0.930 . S
H1505 C1520 0.960 . S
H1506 C1520 0.960 . S
H1507 C1520 0.960 . S
C1508 H1500 0.929 . S
C1508 C1509 1.377 . S
C1508 C1510 1.384 . S
C1509 C1508 1.377 . S
C1509 C1515 1.390 . S
C1510 H1501 0.930 . S
C1510 C1508 1.384 . S
C1510 C1511 1.372 . S
C1511 C1510 1.372 . S
C1511 C1512 1.400 . S
C1511 C1516 1.490 . S
C1512 H1502 0.930 . S
C1512 C1511 1.400 . S
C1512 C1515 1.386 . S
H1513 C1529 0.930 . S
H1514 C1530 0.931 . S
C1515 H1503 0.929 . S
C1515 C1509 1.390 . S
C1515 C1512 1.386 . S
C1516 C1511 1.490 . S
C1516 C1518 1.395 . S
C1516 C1519 1.403 . S
H1517 C1523 0.930 . S
C1518 H1504 0.930 . S
C1518 C1516 1.395 . S
C1518 C1521 1.403 . S
C1519 C1516 1.403 . S
C1519 C1520 1.524 . S
C1519 C1523 1.400 . S
C1520 H1505 0.960 . S
C1520 H1506 0.960 . S
C1520 H1507 0.960 . S
C1520 C1519 1.524 . S
C1521 C1518 1.403 . S
C1521 C1522 1.392 . S
C1521 C1525 1.495 . S
C1522 C1521 1.392 . S
C1522 C1523 1.385 . S
C1522 C1524 1.478 . S
C1523 H1517 0.930 . S
C1523 C1519 1.400 . S
C1523 C1522 1.385 . S
C1524 C1522 1.478 . S
C1524 C1526 1.381 . S
C1524 C1530 1.383 . S
C1525 C1521 1.495 . S
C1525 H1531 0.959 . S
C1525 H1532 0.961 . S
C1525 H1533 0.960 . S
C1526 C1524 1.381 . S
C1526 C1527 1.394 . S
C1526 H1534 0.930 . S
C1527 C1526 1.394 . S
C1527 C1528 1.383 . S
C1527 H1535 0.929 . S
C1528 C1527 1.383 . S
C1528 C1529 1.377 . S
C1529 H1513 0.930 . S
C1529 C1528 1.377 . S
C1529 C1530 1.379 . S
C1530 H1514 0.931 . S
C1530 C1524 1.383 . S
C1530 C1529 1.379 . S
H1531 C1525 0.959 . S
H1532 C1525 0.961 . S
H1533 C1525 0.960 . S
H1534 C1526 0.930 . S
H1535 C1527 0.929 . S
H1536 C1544 0.929 . S
H1537 C1546 0.930 . S
H1538 C1548 0.930 1_455 S
H1539 C1551 0.929 . S
H1540 C1554 0.930 . S
H1541 C1556 0.960 . S
H1542 C1556 0.960 . S
H1543 C1556 0.960 . S
C1544 H1536 0.929 . S
C1544 C1545 1.377 . S
C1544 C1546 1.384 . S
C1545 C1544 1.377 . S
C1545 C1551 1.390 . S
C1546 H1537 0.930 . S
C1546 C1544 1.384 . S
C1546 C1547 1.372 . S
C1547 C1546 1.372 . S
C1547 C1548 1.400 . S
C1547 C1552 1.490 . S
C1548 H1538 0.930 1_655 S
C1548 C1547 1.400 . S
C1548 C1551 1.386 . S
H1549 C1565 0.930 . S
H1550 C1566 0.931 . S
C1551 H1539 0.929 . S
C1551 C1545 1.390 . S
C1551 C1548 1.386 . S
C1552 C1547 1.490 . S
C1552 C1554 1.395 1_655 S
C1552 C1555 1.403 . S
H1553 C1559 0.930 . S
C1554 H1540 0.930 . S
C1554 C1552 1.395 1_455 S
C1554 C1557 1.403 . S
C1555 C1552 1.403 . S
C1555 C1556 1.524 . S
C1555 C1559 1.400 . S
C1556 H1541 0.960 . S
C1556 H1542 0.960 . S
C1556 H1543 0.960 . S
C1556 C1555 1.524 . S
C1557 C1554 1.403 . S
C1557 C1558 1.392 . S
C1557 C1561 1.495 . S
C1558 C1557 1.392 . S
C1558 C1559 1.385 1_455 S
C1558 C1560 1.478 . S
C1559 H1553 0.930 . S
C1559 C1555 1.400 . S
C1559 C1558 1.385 1_655 S
C1560 C1558 1.478 . S
C1560 C1562 1.381 . S
C1560 C1566 1.383 . S
C1561 C1557 1.495 . S
C1561 H1567 0.959 . S
C1561 H1568 0.961 . S
C1561 H1569 0.960 . S
C1562 C1560 1.381 . S
C1562 C1563 1.394 . S
C1562 H1570 0.930 1_455 S
C1563 C1562 1.394 . S
C1563 C1564 1.383 . S
C1563 H1571 0.929 . S
C1564 C1563 1.383 . S
C1564 C1565 1.377 . S
C1565 H1549 0.930 . S
C1565 C1564 1.377 . S
C1565 C1566 1.379 . S
C1566 H1550 0.931 . S
C1566 C1560 1.383 . S
C1566 C1565 1.379 . S
H1567 C1561 0.959 . S
H1568 C1561 0.961 . S
H1569 C1561 0.960 . S
H1570 C1562 0.930 1_655 S
H1571 C1563 0.929 . S
H1572 C1580 0.929 . S
H1573 C1582 0.930 . S
H1574 C1584 0.938 . S
H1575 C1587 0.929 . S
H1576 C1590 0.930 . S
H1577 C1592 0.960 . S
H1578 C1592 0.960 . S
H1579 C1592 0.960 . S
C1580 H1572 0.929 . S
C1580 C1581 1.377 . S
C1580 C1582 1.384 . S
C1581 C1580 1.377 . S
C1581 C1587 1.390 . S
C1582 H1573 0.930 . S
C1582 C1580 1.384 . S
C1582 C1583 1.372 . S
C1583 C1582 1.372 . S
C1583 C1584 1.400 . S
C1583 C1588 1.490 . S
C1584 H1574 0.938 . S
C1584 C1583 1.400 . S
C1584 C1587 1.386 . S
H1585 C1601 0.930 . S
H1586 C1602 0.931 . S
C1587 H1575 0.929 . S
C1587 C1581 1.390 . S
C1587 C1584 1.386 . S
C1588 C1583 1.490 . S
C1588 C1590 1.395 1_565 S
C1588 C1591 1.403 . S
H1589 C1595 0.930 . S
C1590 H1576 0.930 . S
C1590 C1588 1.395 1_545 S
C1590 C1593 1.403 . S
C1591 C1588 1.403 . S
C1591 C1592 1.524 . S
C1591 C1595 1.400 . S
C1592 H1577 0.960 . S
C1592 H1578 0.960 . S
C1592 H1579 0.960 . S
C1592 C1591 1.524 . S
C1593 C1590 1.403 . S
C1593 C1594 1.392 . S
C1593 C1597 1.495 . S
C1594 C1593 1.392 . S
C1594 C1595 1.385 1_545 S
C1594 C1596 1.478 . S
C1595 H1589 0.930 . S
C1595 C1591 1.400 . S
C1595 C1594 1.385 1_565 S
C1596 C1594 1.478 . S
C1596 C1598 1.381 . S
C1596 C1602 1.383 . S
C1597 C1593 1.495 . S
C1597 H1603 0.959 . S
C1597 H1604 0.961 . S
C1597 H1605 0.960 . S
C1598 C1596 1.381 . S
C1598 C1599 1.394 . S
C1598 H1606 0.908 1_545 S
C1599 C1598 1.394 . S
C1599 C1600 1.383 . S
C1599 H1607 0.929 . S
C1600 C1599 1.383 . S
C1600 C1601 1.377 . S
C1601 H1585 0.930 . S
C1601 C1600 1.377 . S
C1601 C1602 1.379 . S
C1602 H1586 0.931 . S
C1602 C1596 1.383 . S
C1602 C1601 1.379 . S
H1603 C1597 0.959 . S
H1604 C1597 0.961 . S
H1605 C1597 0.960 . S
H1606 C1598 0.908 1_565 S
H1607 C1599 0.929 . S
H1608 C1616 0.929 . S
H1609 C1618 0.930 . S
H1610 C1620 0.989 . S
H1611 C1623 0.929 1_455 S
H1612 C1626 0.930 . S
H1613 C1628 0.960 . S
H1614 C1628 0.960 . S
H1615 C1628 0.960 . S
C1616 H1608 0.929 . S
C1616 C1617 1.377 . S
C1616 C1618 1.384 . S
C1617 C1616 1.377 . S
C1617 C1623 1.390 . S
C1618 H1609 0.930 . S
C1618 C1616 1.384 . S
C1618 C1619 1.372 . S
C1619 C1618 1.372 . S
C1619 C1620 1.359 1_655 S
C1619 C1624 1.490 . S
C1620 H1610 0.989 . S
C1620 C1619 1.359 1_455 S
C1620 C1623 1.371 1_455 S
H1621 C1637 0.930 . S
H1622 C1638 0.931 . S
C1623 H1611 0.929 1_655 S
C1623 C1617 1.390 . S
C1623 C1620 1.371 1_655 S
C1624 C1619 1.490 . S
C1624 C1626 1.395 . S
C1624 C1627 1.403 1_655 S
H1625 C1631 0.930 . S
C1626 H1612 0.930 . S
C1626 C1624 1.395 . S
C1626 C1629 1.403 . S
C1627 C1624 1.403 1_455 S
C1627 C1628 1.524 . S
C1627 C1631 1.400 . S
C1628 H1613 0.960 . S
C1628 H1614 0.960 . S
C1628 H1615 0.960 . S
C1628 C1627 1.524 . S
C1629 C1626 1.403 . S
C1629 C1630 1.392 1_655 S
C1629 C1633 1.495 . S
C1630 C1629 1.392 1_455 S
C1630 C1631 1.385 . S
C1630 C1632 1.478 . S
C1631 H1625 0.930 . S
C1631 C1627 1.400 . S
C1631 C1630 1.385 . S
C1632 C1630 1.478 . S
C1632 C1634 1.381 1_455 S
C1632 C1638 1.383 . S
C1633 C1629 1.495 . S
C1633 H1639 0.959 . S
C1633 H1640 0.961 . S
C1633 H1641 0.960 . S
C1634 C1632 1.381 1_655 S
C1634 C1635 1.394 1_655 S
C1634 H1642 0.930 . S
C1635 C1634 1.394 1_455 S
C1635 C1636 1.383 . S
C1635 H1643 0.929 1_455 S
C1636 C1635 1.383 . S
C1636 C1637 1.377 . S
C1637 H1621 0.930 . S
C1637 C1636 1.377 . S
C1637 C1638 1.379 . S
C1638 H1622 0.931 . S
C1638 C1632 1.383 . S
C1638 C1637 1.379 . S
H1639 C1633 0.959 . S
H1640 C1633 0.961 . S
H1641 C1633 0.960 . S
H1642 C1634 0.930 . S
H1643 C1635 0.929 1_655 S
H1644 C1652 0.929 . S
H1645 C1654 0.930 . S
H1646 C1656 0.937 . S
H1647 C1659 0.929 1_565 S
H1648 C1662 0.930 . S
H1649 C1664 0.960 . S
H1650 C1664 0.960 . S
H1651 C1664 0.960 1_565 S
C1652 H1644 0.929 . S
C1652 C1653 1.377 . S
C1652 C1654 1.384 . S
C1653 C1652 1.377 . S
C1653 C1659 1.390 . S
C1654 H1645 0.930 . S
C1654 C1652 1.384 . S
C1654 C1655 1.372 . S
C1655 C1654 1.372 . S
C1655 C1656 1.395 1_545 S
C1655 C1660 1.490 . S
C1656 H1646 0.937 . S
C1656 C1655 1.395 1_565 S
C1656 C1659 1.384 1_565 S
H1657 C1673 0.930 . S
H1658 C1674 0.931 . S
C1659 H1647 0.929 1_545 S
C1659 C1653 1.390 . S
C1659 C1656 1.384 1_545 S
C1660 C1655 1.490 . S
C1660 C1662 1.395 . S
C1660 C1663 1.403 . S
H1661 C1667 0.930 . S
C1662 H1648 0.930 . S
C1662 C1660 1.395 . S
C1662 C1665 1.392 1_545 S
C1663 C1660 1.403 . S
C1663 C1664 1.524 . S
C1663 C1667 1.400 1_545 S
C1664 H1649 0.960 . S
C1664 H1650 0.960 . S
C1664 H1651 0.960 1_545 S
C1664 C1663 1.524 . S
C1665 C1662 1.392 1_565 S
C1665 C1666 1.401 . S
C1665 C1669 1.499 . S
C1666 C1665 1.401 . S
C1666 C1667 1.385 . S
C1666 C1668 1.478 . S
C1667 H1661 0.930 . S
C1667 C1663 1.400 1_565 S
C1667 C1666 1.385 . S
C1668 C1666 1.478 . S
C1668 C1670 1.381 1_565 S
C1668 C1674 1.383 . S
C1669 C1665 1.499 . S
C1669 H1675 0.947 1_565 S
C1669 H1676 0.961 . S
C1669 H1677 0.960 1_565 S
C1670 C1668 1.381 1_545 S
C1670 C1671 1.394 1_545 S
C1670 H1678 0.930 . S
C1671 C1670 1.394 1_565 S
C1671 C1672 1.383 . S
C1671 H1679 0.929 1_565 S
C1672 C1671 1.383 . S
C1672 C1673 1.377 . S
C1673 H1657 0.930 . S
C1673 C1672 1.377 . S
C1673 C1674 1.379 . S
C1674 H1658 0.931 . S
C1674 C1668 1.383 . S
C1674 C1673 1.379 . S
H1675 C1669 0.947 1_545 S
H1676 C1669 0.961 . S
H1677 C1669 0.960 1_545 S
H1678 C1670 0.930 . S
H1679 C1671 0.929 1_545 S
H1680 C1688 0.929 1_655 S
H1681 C1690 0.935 1_655 S
H1682 C1692 0.930 . S
H1683 C1695 0.929 . S
H1684 C1698 0.930 . S
H1685 C1700 0.960 . S
H1686 C1700 0.960 . S
H1687 C1700 0.960 . S
C1688 H1680 0.929 1_455 S
C1688 C1689 1.377 . S
C1688 C1690 1.382 . S
C1689 C1688 1.377 . S
C1689 C1695 1.390 . S
C1690 H1681 0.935 1_455 S
C1690 C1688 1.382 . S
C1690 C1691 1.369 . S
C1691 C1690 1.369 . S
C1691 C1692 1.400 . S
C1691 C1696 1.490 . S
C1692 H1682 0.930 . S
C1692 C1691 1.400 . S
C1692 C1695 1.386 . S
H1693 C1709 0.930 . S
H1694 C1710 0.931 1_455 S
C1695 H1683 0.929 . S
C1695 C1689 1.390 . S
C1695 C1692 1.386 . S
C1696 C1691 1.490 . S
C1696 C1698 1.395 1_455 S
C1696 C1699 1.403 . S
H1697 C1703 0.930 . S
C1698 H1684 0.930 . S
C1698 C1696 1.395 1_655 S
C1698 C1701 1.403 . S
C1699 C1696 1.403 . S
C1699 C1700 1.524 . S
C1699 C1703 1.400 . S
C1700 H1685 0.960 . S
C1700 H1686 0.960 . S
C1700 H1687 0.960 . S
C1700 C1699 1.524 . S
C1701 C1698 1.403 . S
C1701 C1702 1.392 . S
C1701 C1705 1.495 . S
C1702 C1701 1.392 . S
C1702 C1703 1.385 1_655 S
C1702 C1704 1.478 . S
C1703 H1697 0.930 . S
C1703 C1699 1.400 . S
C1703 C1702 1.385 1_455 S
C1704 C1702 1.478 . S
C1704 C1706 1.381 . S
C1704 C1710 1.383 . S
C1705 C1701 1.495 . S
C1705 H1711 0.959 . S
C1705 H1712 0.961 . S
C1705 H1713 0.960 . S
C1706 C1704 1.381 . S
C1706 C1707 1.394 . S
C1706 H1714 0.930 . S
C1707 C1706 1.394 . S
C1707 C1708 1.383 . S
C1707 H1715 0.929 . S
C1708 C1707 1.383 . S
C1708 C1709 1.377 . S
C1709 H1693 0.930 . S
C1709 C1708 1.377 . S
C1709 C1710 1.379 . S
C1710 H1694 0.931 1_655 S
C1710 C1704 1.383 . S
C1710 C1709 1.379 . S
H1711 C1705 0.959 . S
H1712 C1705 0.961 . S
H1713 C1705 0.960 . S
H1714 C1706 0.930 . S
H1715 C1707 0.929 . S
H1716 C1724 0.929 . S
H1717 C1726 0.930 . S
H1718 C1728 0.930 . S
H1719 C1731 0.929 1_545 S
H1720 C1734 0.930 . S
H1721 C1736 0.960 . S
H1722 C1736 0.960 1_565 S
H1723 C1736 0.960 . S
C1724 H1716 0.929 . S
C1724 C1725 1.377 . S
C1724 C1726 1.384 . S
C1725 C1724 1.377 . S
C1725 C1731 1.390 . S
C1726 H1717 0.930 . S
C1726 C1724 1.384 . S
C1726 C1727 1.372 . S
C1727 C1726 1.372 . S
C1727 C1728 1.400 1_565 S
C1727 C1732 1.490 . S
C1728 H1718 0.930 . S
C1728 C1727 1.400 1_545 S
C1728 C1731 1.386 1_545 S
H1729 C1745 0.930 . S
H1730 C1746 0.931 . S
C1731 H1719 0.929 1_565 S
C1731 C1725 1.390 . S
C1731 C1728 1.386 1_565 S
C1732 C1727 1.490 . S
C1732 C1734 1.395 . S
C1732 C1735 1.403 1_565 S
H1733 C1739 0.930 . S
C1734 H1720 0.930 . S
C1734 C1732 1.395 . S
C1734 C1737 1.403 . S
C1735 C1732 1.403 1_545 S
C1735 C1736 1.524 . S
C1735 C1739 1.400 . S
C1736 H1721 0.960 . S
C1736 H1722 0.960 1_545 S
C1736 H1723 0.960 . S
C1736 C1735 1.524 . S
C1737 C1734 1.403 . S
C1737 C1738 1.392 1_565 S
C1737 C1741 1.495 . S
C1738 C1737 1.392 1_545 S
C1738 C1739 1.385 . S
C1738 C1740 1.478 . S
C1739 H1733 0.930 . S
C1739 C1735 1.400 . S
C1739 C1738 1.385 . S
C1740 C1738 1.478 . S
C1740 C1742 1.381 1_545 S
C1740 C1746 1.383 . S
C1741 C1737 1.495 . S
C1741 H1747 0.959 . S
C1741 H1748 1.002 . S
C1741 H1749 0.960 . S
C1742 C1740 1.381 1_565 S
C1742 C1743 1.394 1_565 S
C1742 H1750 0.930 . S
C1743 C1742 1.394 1_545 S
C1743 C1744 1.383 . S
C1743 H1751 0.929 1_545 S
C1744 C1743 1.383 . S
C1744 C1745 1.377 . S
C1745 H1729 0.930 . S
C1745 C1744 1.377 . S
C1745 C1746 1.379 . S
C1746 H1730 0.931 . S
C1746 C1740 1.383 . S
C1746 C1745 1.379 . S
H1747 C1741 0.959 . S
H1748 C1741 1.002 . S
H1749 C1741 0.960 . S
H1750 C1742 0.930 . S
H1751 C1743 0.929 1_565 S
H1752 C1760 0.929 . S
H1753 C1762 0.930 . S
H1754 C1764 0.930 . S
H1755 C1767 0.929 . S
H1756 C1770 0.930 . S
H1757 C1772 0.960 . S
H1758 C1772 0.960 . S
H1759 C1772 0.960 . S
C1760 H1752 0.929 . S
C1760 C1761 1.377 . S
C1760 C1762 1.384 . S
C1761 C1760 1.377 . S
C1761 C1767 1.390 . S
C1762 H1753 0.930 . S
C1762 C1760 1.384 . S
C1762 C1763 1.372 . S
C1763 C1762 1.372 . S
C1763 C1764 1.400 . S
C1763 C1768 1.490 . S
C1764 H1754 0.930 . S
C1764 C1763 1.400 . S
C1764 C1767 1.386 . S
H1765 C1781 0.930 . S
H1766 C1782 0.931 . S
C1767 H1755 0.929 . S
C1767 C1761 1.390 . S
C1767 C1764 1.386 . S
C1768 C1763 1.490 . S
C1768 C1770 1.395 1_455 S
C1768 C1771 1.403 . S
H1769 C1775 0.930 . S
C1770 H1756 0.930 . S
C1770 C1768 1.395 1_655 S
C1770 C1773 1.403 . S
C1771 C1768 1.403 . S
C1771 C1772 1.524 . S
C1771 C1775 1.400 . S
C1772 H1757 0.960 . S
C1772 H1758 0.960 . S
C1772 H1759 0.960 . S
C1772 C1771 1.524 . S
C1773 C1770 1.403 . S
C1773 C1774 1.392 . S
C1773 C1777 1.495 . S
C1774 C1773 1.392 . S
C1774 C1775 1.385 1_655 S
C1774 C1776 1.478 . S
C1775 H1769 0.930 . S
C1775 C1771 1.400 . S
C1775 C1774 1.385 1_455 S
C1776 C1774 1.478 . S
C1776 C1778 1.381 . S
C1776 C1782 1.383 . S
C1777 C1773 1.495 . S
C1777 H1783 0.959 . S
C1777 H1784 0.961 . S
C1777 H1785 0.960 . S
C1778 C1776 1.381 . S
C1778 C1779 1.394 . S
C1778 H1786 0.930 . S
C1779 C1778 1.394 . S
C1779 C1780 1.383 . S
C1779 H1787 0.929 . S
C1780 C1779 1.383 . S
C1780 C1781 1.377 . S
C1781 H1765 0.930 . S
C1781 C1780 1.377 . S
C1781 C1782 1.379 . S
C1782 H1766 0.931 . S
C1782 C1776 1.383 . S
C1782 C1781 1.379 . S
H1783 C1777 0.959 . S
H1784 C1777 0.961 . S
H1785 C1777 0.960 . S
H1786 C1778 0.930 . S
H1787 C1779 0.929 . S
H1788 C1796 0.929 . S
H1789 C1798 0.930 1_565 S
H1790 C1800 0.930 . S
H1791 C1803 0.929 . S
H1792 C1806 0.930 . S
H1793 C1808 0.960 . S
H1794 C1808 0.960 . S
H1795 C1808 0.960 . S
C1796 H1788 0.929 . S
C1796 C1797 1.377 . S
C1796 C1798 1.384 . S
C1797 C1796 1.377 . S
C1797 C1803 1.390 . S
C1798 H1789 0.930 1_545 S
C1798 C1796 1.384 . S
C1798 C1799 1.372 . S
C1799 C1798 1.372 . S
C1799 C1800 1.400 . S
C1799 C1804 1.490 . S
C1800 H1790 0.930 . S
C1800 C1799 1.400 . S
C1800 C1803 1.386 . S
H1801 C1817 0.930 . S
H1802 C1818 0.931 . S
C1803 H1791 0.929 . S
C1803 C1797 1.390 . S
C1803 C1800 1.386 . S
C1804 C1799 1.490 . S
C1804 C1806 1.395 1_545 S
C1804 C1807 1.403 . S
H1805 C1811 0.930 . S
C1806 H1792 0.930 . S
C1806 C1804 1.395 1_565 S
C1806 C1809 1.403 . S
C1807 C1804 1.403 . S
C1807 C1808 1.524 . S
C1807 C1811 1.400 . S
C1808 H1793 0.960 . S
C1808 H1794 0.960 . S
C1808 H1795 0.960 . S
C1808 C1807 1.524 . S
C1809 C1806 1.403 . S
C1809 C1810 1.392 . S
C1809 C1813 1.495 . S
C1810 C1809 1.392 . S
C1810 C1811 1.385 1_565 S
C1810 C1812 1.478 . S
C1811 H1805 0.930 . S
C1811 C1807 1.400 . S
C1811 C1810 1.385 1_545 S
C1812 C1810 1.478 . S
C1812 C1814 1.381 . S
C1812 C1818 1.383 . S
C1813 C1809 1.495 . S
C1813 H1819 0.959 . S
C1813 H1820 0.961 . S
C1813 H1821 0.960 . S
C1814 C1812 1.381 . S
C1814 C1815 1.394 . S
C1814 H1822 0.930 . S
C1815 C1814 1.394 . S
C1815 C1816 1.383 . S
C1815 H1823 0.929 . S
C1816 C1815 1.383 . S
C1816 C1817 1.377 . S
C1817 H1801 0.930 . S
C1817 C1816 1.377 . S
C1817 C1818 1.379 . S
C1818 H1802 0.931 . S
C1818 C1812 1.383 . S
C1818 C1817 1.379 . S
H1819 C1813 0.959 . S
H1820 C1813 0.961 . S
H1821 C1813 0.960 . S
H1822 C1814 0.930 . S
H1823 C1815 0.929 . S
H1824 C1832 0.929 . S
H1825 C1834 0.930 . S
H1826 C1836 0.930 . S
H1827 C1839 0.929 1_554 S
H1828 C1842 0.930 . S
H1829 C1844 0.960 . S
H1830 C1844 0.913 1_556 S
H1831 C1844 0.960 . S
C1832 H1824 0.929 . S
C1832 C1833 1.377 . S
C1832 C1834 1.384 . S
C1833 C1832 1.377 . S
C1833 C1839 1.390 . S
C1834 H1825 0.930 . S
C1834 C1832 1.384 . S
C1834 C1835 1.372 . S
C1835 C1834 1.372 . S
C1835 C1836 1.400 1_556 S
C1835 C1840 1.490 . S
C1836 H1826 0.930 . S
C1836 C1835 1.400 1_554 S
C1836 C1839 1.386 1_554 S
H1837 C1853 0.930 . S
H1838 C1854 0.931 . S
C1839 H1827 0.929 1_556 S
C1839 C1833 1.390 . S
C1839 C1836 1.386 1_556 S
C1840 C1835 1.490 . S
C1840 C1842 1.395 . S
C1840 C1843 1.403 1_556 S
H1841 C1847 0.930 . S
C1842 H1828 0.930 . S
C1842 C1840 1.395 . S
C1842 C1845 1.403 . S
C1843 C1840 1.403 1_554 S
C1843 C1844 1.524 . S
C1843 C1847 1.400 . S
C1844 H1829 0.960 . S
C1844 H1830 0.913 1_554 S
C1844 H1831 0.960 . S
C1844 C1843 1.524 . S
C1845 C1842 1.403 . S
C1845 C1846 1.392 1_556 S
C1845 C1849 1.495 . S
C1846 C1845 1.392 1_554 S
C1846 C1847 1.385 . S
C1846 C1848 1.478 . S
C1847 H1841 0.930 . S
C1847 C1843 1.400 . S
C1847 C1846 1.385 . S
C1848 C1846 1.478 . S
C1848 C1850 1.381 1_554 S
C1848 C1854 1.383 . S
C1849 C1845 1.495 . S
C1849 H1855 0.959 . S
C1849 H1856 0.961 . S
C1849 H1857 0.960 . S
C1850 C1848 1.381 1_556 S
C1850 C1851 1.394 1_556 S
C1850 H1858 0.930 . S
C1851 C1850 1.394 1_554 S
C1851 C1852 1.383 . S
C1851 H1859 0.929 1_554 S
C1852 C1851 1.383 . S
C1852 C1853 1.377 . S
C1853 H1837 0.930 . S
C1853 C1852 1.377 . S
C1853 C1854 1.379 . S
C1854 H1838 0.931 . S
C1854 C1848 1.383 . S
C1854 C1853 1.379 . S
H1855 C1849 0.959 . S
H1856 C1849 0.961 . S
H1857 C1849 0.960 . S
H1858 C1850 0.930 . S
H1859 C1851 0.929 1_556 S
H1860 C1868 0.929 . S
H1861 C1870 0.930 . S
H1862 C1872 0.930 . S
H1863 C1875 0.929 . S
H1864 C1878 0.930 . S
H1865 C1880 0.960 . S
H1866 C1880 0.960 . S
H1867 C1880 0.960 . S
C1868 H1860 0.929 . S
C1868 C1869 1.377 . S
C1868 C1870 1.384 . S
C1869 C1868 1.377 . S
C1869 C1875 1.390 . S
C1870 H1861 0.930 . S
C1870 C1868 1.384 . S
C1870 C1871 1.372 . S
C1871 C1870 1.372 . S
C1871 C1872 1.400 . S
C1871 C1876 1.490 . S
C1872 H1862 0.930 . S
C1872 C1871 1.400 . S
C1872 C1875 1.386 . S
H1873 C1889 0.930 . S
H1874 C1890 0.931 1_554 S
C1875 H1863 0.929 . S
C1875 C1869 1.390 . S
C1875 C1872 1.386 . S
C1876 C1871 1.490 . S
C1876 C1878 1.395 . S
C1876 C1879 1.403 1_554 S
H1877 C1883 0.930 . S
C1878 H1864 0.930 . S
C1878 C1876 1.395 . S
C1878 C1881 1.403 . S
C1879 C1876 1.403 1_556 S
C1879 C1880 1.524 . S
C1879 C1883 1.400 . S
C1880 H1865 0.960 . S
C1880 H1866 0.960 . S
C1880 H1867 0.960 . S
C1880 C1879 1.524 . S
C1881 C1878 1.403 . S
C1881 C1882 1.392 1_554 S
C1881 C1885 1.495 . S
C1882 C1881 1.392 1_556 S
C1882 C1883 1.385 . S
C1882 C1884 1.478 . S
C1883 H1877 0.930 . S
C1883 C1879 1.400 . S
C1883 C1882 1.385 . S
C1884 C1882 1.478 . S
C1884 C1886 1.381 . S
C1884 C1890 1.383 . S
C1885 C1881 1.495 . S
C1885 H1891 0.959 . S
C1885 H1892 0.961 . S
C1885 H1893 0.960 . S
C1886 C1884 1.381 . S
C1886 C1887 1.394 . S
C1886 H1894 0.930 . S
C1887 C1886 1.394 . S
C1887 C1888 1.383 . S
C1887 H1895 0.929 . S
C1888 C1887 1.383 . S
C1888 C1889 1.377 . S
C1889 H1873 0.930 . S
C1889 C1888 1.377 . S
C1889 C1890 1.379 . S
C1890 H1874 0.931 1_556 S
C1890 C1884 1.383 . S
C1890 C1889 1.379 . S
H1891 C1885 0.959 . S
H1892 C1885 0.961 . S
H1893 C1885 0.960 . S
H1894 C1886 0.930 . S
H1895 C1887 0.929 . S
H1896 C1904 0.929 . S
H1897 C1906 0.930 . S
H1898 C1908 0.930 1_556 S
H1899 C1911 0.929 . S
H1900 C1914 0.930 . S
H1901 C1916 0.960 . S
H1902 C1916 0.960 . S
H1903 C1916 0.960 . S
C1904 H1896 0.929 . S
C1904 C1905 1.377 . S
C1904 C1906 1.384 . S
C1905 C1904 1.377 . S
C1905 C1911 1.390 . S
C1906 H1897 0.930 . S
C1906 C1904 1.384 . S
C1906 C1907 1.372 . S
C1907 C1906 1.372 . S
C1907 C1908 1.400 . S
C1907 C1912 1.490 . S
C1908 H1898 0.930 1_554 S
C1908 C1907 1.400 . S
C1908 C1911 1.386 . S
H1909 C1925 0.930 . S
H1910 C1926 0.931 . S
C1911 H1899 0.929 . S
C1911 C1905 1.390 . S
C1911 C1908 1.386 . S
C1912 C1907 1.490 . S
C1912 C1914 1.395 . S
C1912 C1915 1.403 1_554 S
H1913 C1919 0.930 . S
C1914 H1900 0.930 . S
C1914 C1912 1.395 . S
C1914 C1917 1.403 . S
C1915 C1912 1.403 1_556 S
C1915 C1916 1.524 . S
C1915 C1919 1.400 . S
C1916 H1901 0.960 . S
C1916 H1902 0.960 . S
C1916 H1903 0.960 . S
C1916 C1915 1.524 . S
C1917 C1914 1.403 . S
C1917 C1918 1.392 1_554 S
C1917 C1921 1.495 . S
C1918 C1917 1.392 1_556 S
C1918 C1919 1.385 . S
C1918 C1920 1.478 . S
C1919 H1913 0.930 . S
C1919 C1915 1.400 . S
C1919 C1918 1.385 . S
C1920 C1918 1.478 . S
C1920 C1922 1.381 . S
C1920 C1926 1.383 . S
C1921 C1917 1.495 . S
C1921 H1927 0.959 . S
C1921 H1928 0.961 . S
C1921 H1929 0.960 . S
C1922 C1920 1.381 . S
C1922 C1923 1.394 . S
C1922 H1930 0.930 1_556 S
C1923 C1922 1.394 . S
C1923 C1924 1.383 . S
C1923 H1931 0.929 . S
C1924 C1923 1.383 . S
C1924 C1925 1.377 . S
C1925 H1909 0.930 . S
C1925 C1924 1.377 . S
C1925 C1926 1.379 . S
C1926 H1910 0.931 . S
C1926 C1920 1.383 . S
C1926 C1925 1.379 . S
H1927 C1921 0.959 . S
H1928 C1921 0.961 . S
H1929 C1921 0.960 . S
H1930 C1922 0.930 1_554 S
H1931 C1923 0.929 . S
H1932 C1940 0.929 . S
H1933 C1942 0.930 . S
H1934 C1944 0.990 . S
H1935 C1947 0.929 1_554 S
H1936 C1950 0.930 . S
H1937 C1952 0.948 1_554 S
H1938 C1952 0.998 . S
H1939 C1952 0.936 1_554 S
C1940 H1932 0.929 . S
C1940 C1941 1.377 . S
C1940 C1942 1.384 . S
C1941 C1940 1.377 . S
C1941 C1947 1.390 . S
C1942 H1933 0.930 . S
C1942 C1940 1.384 . S
C1942 C1943 1.372 . S
C1943 C1942 1.372 . S
C1943 C1944 1.358 1_556 S
C1943 C1948 1.490 . S
C1944 H1934 0.990 . S
C1944 C1943 1.358 1_554 S
C1944 C1947 1.371 1_554 S
H1945 C1961 0.930 . S
H1946 C1962 0.931 . S
C1947 H1935 0.929 1_556 S
C1947 C1941 1.390 . S
C1947 C1944 1.371 1_556 S
C1948 C1943 1.490 . S
C1948 C1950 1.395 . S
C1948 C1951 1.416 . S
H1949 C1955 0.930 . S
C1950 H1936 0.930 . S
C1950 C1948 1.395 . S
C1950 C1953 1.403 . S
C1951 C1948 1.416 . S
C1951 C1952 1.524 . S
C1951 C1955 1.389 1_556 S
C1952 H1937 0.948 1_556 S
C1952 H1938 0.998 . S
C1952 H1939 0.936 1_556 S
C1952 C1951 1.524 . S
C1953 C1950 1.403 . S
C1953 C1954 1.392 1_556 S
C1953 C1957 1.495 . S
C1954 C1953 1.392 1_554 S
C1954 C1955 1.385 . S
C1954 C1956 1.478 . S
C1955 H1949 0.930 . S
C1955 C1951 1.389 1_554 S
C1955 C1954 1.385 . S
C1956 C1954 1.478 . S
C1956 C1958 1.381 1_554 S
C1956 C1962 1.383 . S
C1957 C1953 1.495 . S
C1957 H1963 0.959 . S
C1957 H1964 0.961 1_556 S
C1957 H1965 0.960 . S
C1958 C1956 1.381 1_556 S
C1958 C1959 1.394 1_556 S
C1958 H1966 0.930 . S
C1959 C1958 1.394 1_554 S
C1959 C1960 1.383 . S
C1959 H1967 0.929 1_554 S
C1960 C1959 1.383 . S
C1960 C1961 1.377 . S
C1961 H1945 0.930 . S
C1961 C1960 1.377 . S
C1961 C1962 1.379 . S
C1962 H1946 0.931 . S
C1962 C1956 1.383 . S
C1962 C1961 1.379 . S
H1963 C1957 0.959 . S
H1964 C1957 0.961 1_554 S
H1965 C1957 0.960 . S
H1966 C1958 0.930 . S
H1967 C1959 0.929 1_556 S
H1968 C1976 0.929 . S
H1969 C1978 0.930 . S
H1970 C1980 0.930 . S
H1971 C1983 0.929 . S
H1972 C1986 0.930 . S
H1973 C1988 0.960 . S
H1974 C1988 0.960 . S
H1975 C1988 0.960 . S
C1976 H1968 0.929 . S
C1976 C1977 1.377 . S
C1976 C1978 1.384 . S
C1977 C1976 1.377 . S
C1977 C1983 1.390 . S
C1978 H1969 0.930 . S
C1978 C1976 1.384 . S
C1978 C1979 1.372 . S
C1979 C1978 1.372 . S
C1979 C1980 1.400 . S
C1979 C1984 1.490 . S
C1980 H1970 0.930 . S
C1980 C1979 1.400 . S
C1980 C1983 1.386 . S
H1981 C1997 0.930 . S
H1982 C1998 0.931 . S
C1983 H1971 0.929 . S
C1983 C1977 1.390 . S
C1983 C1980 1.386 . S
C1984 C1979 1.490 . S
C1984 C1986 1.395 . S
C1984 C1987 1.403 . S
H1985 C1991 0.930 . S
C1986 H1972 0.930 . S
C1986 C1984 1.395 . S
C1986 C1989 1.403 . S
C1987 C1984 1.403 . S
C1987 C1988 1.524 . S
C1987 C1991 1.400 . S
C1988 H1973 0.960 . S
C1988 H1974 0.960 . S
C1988 H1975 0.960 . S
C1988 C1987 1.524 . S
C1989 C1986 1.403 . S
C1989 C1990 1.392 . S
C1989 C1993 1.495 . S
C1990 C1989 1.392 . S
C1990 C1991 1.385 . S
C1990 C1992 1.478 . S
C1991 H1985 0.930 . S
C1991 C1987 1.400 . S
C1991 C1990 1.385 . S
C1992 C1990 1.478 . S
C1992 C1994 1.381 . S
C1992 C1998 1.383 . S
C1993 C1989 1.495 . S
C1993 H1999 0.959 . S
C1993 H2000 0.961 . S
C1993 H2001 0.960 . S
C1994 C1992 1.381 . S
C1994 C1995 1.394 . S
C1994 H2002 0.930 . S
C1995 C1994 1.394 . S
C1995 C1996 1.383 . S
C1995 H2003 0.929 . S
C1996 C1995 1.383 . S
C1996 C1997 1.377 . S
C1997 H1981 0.930 . S
C1997 C1996 1.377 . S
C1997 C1998 1.379 . S
C1998 H1982 0.931 . S
C1998 C1992 1.383 . S
C1998 C1997 1.379 . S
H1999 C1993 0.959 . S
H2000 C1993 0.961 . S
H2001 C1993 0.960 . S
H2002 C1994 0.930 . S
H2003 C1995 0.929 . S
H2004 C2012 0.929 . S
H2005 C2014 0.930 . S
H2006 C2016 0.930 . S
H2007 C2019 0.929 . S
H2008 C2022 0.930 . S
H2009 C2024 0.960 . S
H2010 C2024 0.960 . S
H2011 C2024 0.960 . S
C2012 H2004 0.929 . S
C2012 C2013 1.377 . S
C2012 C2014 1.384 . S
C2013 C2012 1.377 . S
C2013 C2019 1.390 . S
C2014 H2005 0.930 . S
C2014 C2012 1.384 . S
C2014 C2015 1.372 . S
C2015 C2014 1.372 . S
C2015 C2016 1.400 . S
C2015 C2020 1.490 . S
C2016 H2006 0.930 . S
C2016 C2015 1.400 . S
C2016 C2019 1.386 . S
H2017 C2033 0.930 . S
H2018 C2034 0.931 . S
C2019 H2007 0.929 . S
C2019 C2013 1.390 . S
C2019 C2016 1.386 . S
C2020 C2015 1.490 . S
C2020 C2022 1.395 . S
C2020 C2023 1.403 . S
H2021 C2027 0.930 . S
C2022 H2008 0.930 . S
C2022 C2020 1.395 . S
C2022 C2025 1.403 . S
C2023 C2020 1.403 . S
C2023 C2024 1.524 . S
C2023 C2027 1.400 . S
C2024 H2009 0.960 . S
C2024 H2010 0.960 . S
C2024 H2011 0.960 . S
C2024 C2023 1.524 . S
C2025 C2022 1.403 . S
C2025 C2026 1.392 . S
C2025 C2029 1.495 . S
C2026 C2025 1.392 . S
C2026 C2027 1.385 . S
C2026 C2028 1.478 . S
C2027 H2021 0.930 . S
C2027 C2023 1.400 . S
C2027 C2026 1.385 . S
C2028 C2026 1.478 . S
C2028 C2030 1.381 . S
C2028 C2034 1.383 . S
C2029 C2025 1.495 . S
C2029 H2035 0.959 . S
C2029 H2036 0.961 . S
C2029 H2037 0.960 . S
C2030 C2028 1.381 . S
C2030 C2031 1.394 . S
C2030 H2038 0.930 . S
C2031 C2030 1.394 . S
C2031 C2032 1.383 . S
C2031 H2039 0.929 . S
C2032 C2031 1.383 . S
C2032 C2033 1.377 . S
C2033 H2017 0.930 . S
C2033 C2032 1.377 . S
C2033 C2034 1.379 . S
C2034 H2018 0.931 . S
C2034 C2028 1.383 . S
C2034 C2033 1.379 . S
H2035 C2029 0.959 . S
H2036 C2029 0.961 . S
H2037 C2029 0.960 . S
H2038 C2030 0.930 . S
H2039 C2031 0.929 . S
H2040 C2048 0.929 . S
H2041 C2050 0.930 . S
H2042 C2052 0.930 . S
H2043 C2055 0.929 . S
H2044 C2058 0.930 . S
H2045 C2060 0.960 . S
H2046 C2060 0.960 . S
H2047 C2060 0.960 . S
C2048 H2040 0.929 . S
C2048 C2049 1.377 . S
C2048 C2050 1.384 . S
C2049 C2048 1.377 . S
C2049 C2055 1.390 . S
C2050 H2041 0.930 . S
C2050 C2048 1.384 . S
C2050 C2051 1.372 . S
C2051 C2050 1.372 . S
C2051 C2052 1.400 . S
C2051 C2056 1.490 . S
C2052 H2042 0.930 . S
C2052 C2051 1.400 . S
C2052 C2055 1.386 . S
H2053 C2069 0.930 . S
H2054 C2070 0.931 . S
C2055 H2043 0.929 . S
C2055 C2049 1.390 . S
C2055 C2052 1.386 . S
C2056 C2051 1.490 . S
C2056 C2058 1.395 . S
C2056 C2059 1.403 . S
H2057 C2063 0.930 . S
C2058 H2044 0.930 . S
C2058 C2056 1.395 . S
C2058 C2061 1.403 . S
C2059 C2056 1.403 . S
C2059 C2060 1.524 . S
C2059 C2063 1.400 . S
C2060 H2045 0.960 . S
C2060 H2046 0.960 . S
C2060 H2047 0.960 . S
C2060 C2059 1.524 . S
C2061 C2058 1.403 . S
C2061 C2062 1.392 . S
C2061 C2065 1.495 . S
C2062 C2061 1.392 . S
C2062 C2063 1.385 . S
C2062 C2064 1.478 . S
C2063 H2057 0.930 . S
C2063 C2059 1.400 . S
C2063 C2062 1.385 . S
C2064 C2062 1.478 . S
C2064 C2066 1.381 . S
C2064 C2070 1.383 . S
C2065 C2061 1.495 . S
C2065 H2071 0.959 . S
C2065 H2072 0.961 . S
C2065 H2073 0.960 . S
C2066 C2064 1.381 . S
C2066 C2067 1.394 . S
C2066 H2074 0.930 . S
C2067 C2066 1.394 . S
C2067 C2068 1.383 . S
C2067 H2075 0.929 . S
C2068 C2067 1.383 . S
C2068 C2069 1.377 . S
C2069 H2053 0.930 . S
C2069 C2068 1.377 . S
C2069 C2070 1.379 . S
C2070 H2054 0.931 . S
C2070 C2064 1.383 . S
C2070 C2069 1.379 . S
H2071 C2065 0.959 . S
H2072 C2065 0.961 . S
H2073 C2065 0.960 . S
H2074 C2066 0.930 . S
H2075 C2067 0.929 . S
H2076 C2084 0.929 . S
H2077 C2086 0.930 . S
H2078 C2088 0.930 . S
H2079 C2091 0.929 . S
H2080 C2094 0.930 . S
H2081 C2096 0.960 . S
H2082 C2096 0.960 . S
H2083 C2096 0.960 . S
C2084 H2076 0.929 . S
C2084 C2085 1.377 . S
C2084 C2086 1.384 . S
C2085 C2084 1.377 . S
C2085 C2091 1.390 . S
C2086 H2077 0.930 . S
C2086 C2084 1.384 . S
C2086 C2087 1.372 . S
C2087 C2086 1.372 . S
C2087 C2088 1.400 . S
C2087 C2092 1.490 . S
C2088 H2078 0.930 . S
C2088 C2087 1.400 . S
C2088 C2091 1.386 . S
H2089 C2105 0.930 . S
H2090 C2106 0.931 . S
C2091 H2079 0.929 . S
C2091 C2085 1.390 . S
C2091 C2088 1.386 . S
C2092 C2087 1.490 . S
C2092 C2094 1.395 . S
C2092 C2095 1.403 . S
H2093 C2099 0.930 . S
C2094 H2080 0.930 . S
C2094 C2092 1.395 . S
C2094 C2097 1.403 . S
C2095 C2092 1.403 . S
C2095 C2096 1.524 . S
C2095 C2099 1.400 . S
C2096 H2081 0.960 . S
C2096 H2082 0.960 . S
C2096 H2083 0.960 . S
C2096 C2095 1.524 . S
C2097 C2094 1.403 . S
C2097 C2098 1.392 . S
C2097 C2101 1.495 . S
C2098 C2097 1.392 . S
C2098 C2099 1.385 . S
C2098 C2100 1.478 . S
C2099 H2093 0.930 . S
C2099 C2095 1.400 . S
C2099 C2098 1.385 . S
C2100 C2098 1.478 . S
C2100 C2102 1.381 . S
C2100 C2106 1.383 . S
C2101 C2097 1.495 . S
C2101 H2107 0.959 . S
C2101 H2108 0.961 . S
C2101 H2109 0.960 . S
C2102 C2100 1.381 . S
C2102 C2103 1.394 . S
C2102 H2110 0.930 . S
C2103 C2102 1.394 . S
C2103 C2104 1.383 . S
C2103 H2111 0.929 . S
C2104 C2103 1.383 . S
C2104 C2105 1.377 . S
C2105 H2089 0.930 . S
C2105 C2104 1.377 . S
C2105 C2106 1.379 . S
C2106 H2090 0.931 . S
C2106 C2100 1.383 . S
C2106 C2105 1.379 . S
H2107 C2101 0.959 . S
H2108 C2101 0.961 . S
H2109 C2101 0.960 . S
H2110 C2102 0.930 . S
H2111 C2103 0.929 . S
H2112 C2120 0.929 . S
H2113 C2122 0.930 . S
H2114 C2124 0.930 . S
H2115 C2127 0.929 . S
H2116 C2130 0.930 . S
H2117 C2132 0.960 . S
H2118 C2132 0.960 . S
H2119 C2132 0.960 . S
C2120 H2112 0.929 . S
C2120 C2121 1.377 . S
C2120 C2122 1.384 . S
C2121 C2120 1.377 . S
C2121 C2127 1.390 . S
C2122 H2113 0.930 . S
C2122 C2120 1.384 . S
C2122 C2123 1.372 . S
C2123 C2122 1.372 . S
C2123 C2124 1.400 . S
C2123 C2128 1.490 . S
C2124 H2114 0.930 . S
C2124 C2123 1.400 . S
C2124 C2127 1.386 . S
H2125 C2141 0.930 . S
H2126 C2142 0.931 . S
C2127 H2115 0.929 . S
C2127 C2121 1.390 . S
C2127 C2124 1.386 . S
C2128 C2123 1.490 . S
C2128 C2130 1.395 . S
C2128 C2131 1.403 . S
H2129 C2135 0.930 . S
C2130 H2116 0.930 . S
C2130 C2128 1.395 . S
C2130 C2133 1.403 . S
C2131 C2128 1.403 . S
C2131 C2132 1.524 . S
C2131 C2135 1.400 . S
C2132 H2117 0.960 . S
C2132 H2118 0.960 . S
C2132 H2119 0.960 . S
C2132 C2131 1.524 . S
C2133 C2130 1.403 . S
C2133 C2134 1.392 . S
C2133 C2137 1.495 . S
C2134 C2133 1.392 . S
C2134 C2135 1.385 . S
C2134 C2136 1.478 . S
C2135 H2129 0.930 . S
C2135 C2131 1.400 . S
C2135 C2134 1.385 . S
C2136 C2134 1.478 . S
C2136 C2138 1.381 . S
C2136 C2142 1.383 . S
C2137 C2133 1.495 . S
C2137 H2143 0.959 . S
C2137 H2144 0.961 . S
C2137 H2145 0.960 . S
C2138 C2136 1.381 . S
C2138 C2139 1.394 . S
C2138 H2146 0.930 . S
C2139 C2138 1.394 . S
C2139 C2140 1.383 . S
C2139 H2147 0.929 . S
C2140 C2139 1.383 . S
C2140 C2141 1.377 . S
C2141 H2125 0.930 . S
C2141 C2140 1.377 . S
C2141 C2142 1.379 . S
C2142 H2126 0.931 . S
C2142 C2136 1.383 . S
C2142 C2141 1.379 . S
H2143 C2137 0.959 . S
H2144 C2137 0.961 . S
H2145 C2137 0.960 . S
H2146 C2138 0.930 . S
H2147 C2139 0.929 . S
H2148 C2156 0.929 . S
H2149 C2158 0.930 . S
H2150 C2160 0.930 . S
H2151 C2163 0.929 . S
H2152 C2166 0.930 . S
H2153 C2168 0.960 . S
H2154 C2168 0.960 . S
H2155 C2168 0.960 . S
C2156 H2148 0.929 . S
C2156 C2157 1.377 . S
C2156 C2158 1.384 . S
C2157 C2156 1.377 . S
C2157 C2163 1.390 . S
C2158 H2149 0.930 . S
C2158 C2156 1.384 . S
C2158 C2159 1.372 . S
C2159 C2158 1.372 . S
C2159 C2160 1.400 . S
C2159 C2164 1.490 . S
C2160 H2150 0.930 . S
C2160 C2159 1.400 . S
C2160 C2163 1.386 . S
H2161 C2177 0.930 . S
H2162 C2178 0.931 . S
C2163 H2151 0.929 . S
C2163 C2157 1.390 . S
C2163 C2160 1.386 . S
C2164 C2159 1.490 . S
C2164 C2166 1.395 . S
C2164 C2167 1.403 . S
H2165 C2171 0.930 . S
C2166 H2152 0.930 . S
C2166 C2164 1.395 . S
C2166 C2169 1.403 . S
C2167 C2164 1.403 . S
C2167 C2168 1.524 . S
C2167 C2171 1.400 . S
C2168 H2153 0.960 . S
C2168 H2154 0.960 . S
C2168 H2155 0.960 . S
C2168 C2167 1.524 . S
C2169 C2166 1.403 . S
C2169 C2170 1.392 . S
C2169 C2173 1.495 . S
C2170 C2169 1.392 . S
C2170 C2171 1.385 . S
C2170 C2172 1.478 . S
C2171 H2165 0.930 . S
C2171 C2167 1.400 . S
C2171 C2170 1.385 . S
C2172 C2170 1.478 . S
C2172 C2174 1.381 . S
C2172 C2178 1.383 . S
C2173 C2169 1.495 . S
C2173 H2179 0.959 . S
C2173 H2180 0.961 . S
C2173 H2181 0.960 . S
C2174 C2172 1.381 . S
C2174 C2175 1.394 . S
C2174 H2182 0.930 . S
C2175 C2174 1.394 . S
C2175 C2176 1.383 . S
C2175 H2183 0.929 . S
C2176 C2175 1.383 . S
C2176 C2177 1.377 . S
C2177 H2161 0.930 . S
C2177 C2176 1.377 . S
C2177 C2178 1.379 . S
C2178 H2162 0.931 . S
C2178 C2172 1.383 . S
C2178 C2177 1.379 . S
H2179 C2173 0.959 . S
H2180 C2173 0.961 . S
H2181 C2173 0.960 . S
H2182 C2174 0.930 . S
H2183 C2175 0.929 . S
H2184 C2192 0.929 . S
H2185 C2194 0.930 . S
H2186 C2196 0.930 . S
H2187 C2199 0.929 . S
H2188 C2202 0.930 . S
H2189 C2204 0.960 . S
H2190 C2204 0.960 . S
H2191 C2204 0.960 . S
C2192 H2184 0.929 . S
C2192 C2193 1.377 . S
C2192 C2194 1.384 . S
C2193 C2192 1.377 . S
C2193 C2199 1.390 . S
C2194 H2185 0.930 . S
C2194 C2192 1.384 . S
C2194 C2195 1.372 . S
C2195 C2194 1.372 . S
C2195 C2196 1.400 . S
C2195 C2200 1.490 . S
C2196 H2186 0.930 . S
C2196 C2195 1.400 . S
C2196 C2199 1.386 . S
H2197 C2213 0.930 . S
H2198 C2214 0.931 . S
C2199 H2187 0.929 . S
C2199 C2193 1.390 . S
C2199 C2196 1.386 . S
C2200 C2195 1.490 . S
C2200 C2202 1.395 . S
C2200 C2203 1.403 . S
H2201 C2207 0.930 . S
C2202 H2188 0.930 . S
C2202 C2200 1.395 . S
C2202 C2205 1.403 . S
C2203 C2200 1.403 . S
C2203 C2204 1.524 . S
C2203 C2207 1.400 . S
C2204 H2189 0.960 . S
C2204 H2190 0.960 . S
C2204 H2191 0.960 . S
C2204 C2203 1.524 . S
C2205 C2202 1.403 . S
C2205 C2206 1.392 . S
C2205 C2209 1.495 . S
C2206 C2205 1.392 . S
C2206 C2207 1.385 . S
C2206 C2208 1.478 . S
C2207 H2201 0.930 . S
C2207 C2203 1.400 . S
C2207 C2206 1.385 . S
C2208 C2206 1.478 . S
C2208 C2210 1.381 . S
C2208 C2214 1.383 . S
C2209 C2205 1.495 . S
C2209 H2215 0.959 . S
C2209 H2216 0.961 . S
C2209 H2217 0.960 . S
C2210 C2208 1.381 . S
C2210 C2211 1.394 . S
C2210 H2218 0.930 . S
C2211 C2210 1.394 . S
C2211 C2212 1.383 . S
C2211 H2219 0.929 . S
C2212 C2211 1.383 . S
C2212 C2213 1.377 . S
C2213 H2197 0.930 . S
C2213 C2212 1.377 . S
C2213 C2214 1.379 . S
C2214 H2198 0.931 . S
C2214 C2208 1.383 . S
C2214 C2213 1.379 . S
H2215 C2209 0.959 . S
H2216 C2209 0.961 . S
H2217 C2209 0.960 . S
H2218 C2210 0.930 . S
H2219 C2211 0.929 . S
H2220 C2228 0.929 . S
H2221 C2230 0.930 . S
H2222 C2232 0.930 . S
H2223 C2235 0.929 . S
H2224 C2238 0.930 . S
H2225 C2240 0.960 . S
H2226 C2240 0.960 . S
H2227 C2240 0.960 . S
C2228 H2220 0.929 . S
C2228 C2229 1.377 . S
C2228 C2230 1.384 . S
C2229 C2228 1.377 . S
C2229 C2235 1.390 . S
C2230 H2221 0.930 . S
C2230 C2228 1.384 . S
C2230 C2231 1.372 . S
C2231 C2230 1.372 . S
C2231 C2232 1.400 . S
C2231 C2236 1.490 . S
C2232 H2222 0.930 . S
C2232 C2231 1.400 . S
C2232 C2235 1.386 . S
H2233 C2249 0.930 . S
H2234 C2250 0.931 . S
C2235 H2223 0.929 . S
C2235 C2229 1.390 . S
C2235 C2232 1.386 . S
C2236 C2231 1.490 . S
C2236 C2238 1.395 . S
C2236 C2239 1.403 . S
H2237 C2243 0.930 . S
C2238 H2224 0.930 . S
C2238 C2236 1.395 . S
C2238 C2241 1.403 . S
C2239 C2236 1.403 . S
C2239 C2240 1.524 . S
C2239 C2243 1.400 . S
C2240 H2225 0.960 . S
C2240 H2226 0.960 . S
C2240 H2227 0.960 . S
C2240 C2239 1.524 . S
C2241 C2238 1.403 . S
C2241 C2242 1.392 . S
C2241 C2245 1.495 . S
C2242 C2241 1.392 . S
C2242 C2243 1.385 . S
C2242 C2244 1.478 . S
C2243 H2237 0.930 . S
C2243 C2239 1.400 . S
C2243 C2242 1.385 . S
C2244 C2242 1.478 . S
C2244 C2246 1.381 . S
C2244 C2250 1.383 . S
C2245 C2241 1.495 . S
C2245 H2251 0.959 . S
C2245 H2252 0.961 . S
C2245 H2253 0.960 . S
C2246 C2244 1.381 . S
C2246 C2247 1.394 . S
C2246 H2254 0.930 . S
C2247 C2246 1.394 . S
C2247 C2248 1.383 . S
C2247 H2255 0.929 . S
C2248 C2247 1.383 . S
C2248 C2249 1.377 . S
C2249 H2233 0.930 . S
C2249 C2248 1.377 . S
C2249 C2250 1.379 . S
C2250 H2234 0.931 . S
C2250 C2244 1.383 . S
C2250 C2249 1.379 . S
H2251 C2245 0.959 . S
H2252 C2245 0.961 . S
H2253 C2245 0.960 . S
H2254 C2246 0.930 . S
H2255 C2247 0.929 . S
H2256 C2264 0.929 . S
H2257 C2266 0.930 . S
H2258 C2268 0.930 . S
H2259 C2271 0.929 . S
H2260 C2274 0.930 . S
H2261 C2276 0.960 . S
H2262 C2276 0.960 . S
H2263 C2276 0.960 . S
C2264 H2256 0.929 . S
C2264 C2265 1.377 . S
C2264 C2266 1.384 . S
C2265 C2264 1.377 . S
C2265 C2271 1.390 . S
C2266 H2257 0.930 . S
C2266 C2264 1.384 . S
C2266 C2267 1.372 . S
C2267 C2266 1.372 . S
C2267 C2268 1.400 . S
C2267 C2272 1.490 . S
C2268 H2258 0.930 . S
C2268 C2267 1.400 . S
C2268 C2271 1.386 . S
H2269 C2285 0.930 . S
H2270 C2286 0.931 . S
C2271 H2259 0.929 . S
C2271 C2265 1.390 . S
C2271 C2268 1.386 . S
C2272 C2267 1.490 . S
C2272 C2274 1.395 . S
C2272 C2275 1.403 . S
H2273 C2279 0.930 . S
C2274 H2260 0.930 . S
C2274 C2272 1.395 . S
C2274 C2277 1.403 . S
C2275 C2272 1.403 . S
C2275 C2276 1.524 . S
C2275 C2279 1.400 . S
C2276 H2261 0.960 . S
C2276 H2262 0.960 . S
C2276 H2263 0.960 . S
C2276 C2275 1.524 . S
C2277 C2274 1.403 . S
C2277 C2278 1.392 . S
C2277 C2281 1.495 . S
C2278 C2277 1.392 . S
C2278 C2279 1.385 . S
C2278 C2280 1.478 . S
C2279 H2273 0.930 . S
C2279 C2275 1.400 . S
C2279 C2278 1.385 . S
C2280 C2278 1.478 . S
C2280 C2282 1.381 . S
C2280 C2286 1.383 . S
C2281 C2277 1.495 . S
C2281 H2287 0.959 . S
C2281 H2288 0.961 . S
C2281 H2289 0.960 . S
C2282 C2280 1.381 . S
C2282 C2283 1.394 . S
C2282 H2290 0.930 . S
C2283 C2282 1.394 . S
C2283 C2284 1.383 . S
C2283 H2291 0.929 . S
C2284 C2283 1.383 . S
C2284 C2285 1.377 . S
C2285 H2269 0.930 . S
C2285 C2284 1.377 . S
C2285 C2286 1.379 . S
C2286 H2270 0.931 . S
C2286 C2280 1.383 . S
C2286 C2285 1.379 . S
H2287 C2281 0.959 . S
H2288 C2281 0.961 . S
H2289 C2281 0.960 . S
H2290 C2282 0.930 . S
H2291 C2283 0.929 . S
H2292 C2300 0.929 . S
H2293 C2302 0.930 . S
H2294 C2304 0.930 . S
H2295 C2307 0.929 . S
H2296 C2310 0.930 . S
H2297 C2312 0.960 . S
H2298 C2312 0.960 . S
H2299 C2312 0.960 . S
C2300 H2292 0.929 . S
C2300 C2301 1.377 . S
C2300 C2302 1.384 . S
C2301 C2300 1.377 . S
C2301 C2307 1.390 . S
C2302 H2293 0.930 . S
C2302 C2300 1.384 . S
C2302 C2303 1.372 . S
C2303 C2302 1.372 . S
C2303 C2304 1.400 . S
C2303 C2308 1.490 . S
C2304 H2294 0.930 . S
C2304 C2303 1.400 . S
C2304 C2307 1.386 . S
H2305 C2321 0.930 . S
H2306 C2322 0.931 . S
C2307 H2295 0.929 . S
C2307 C2301 1.390 . S
C2307 C2304 1.386 . S
C2308 C2303 1.490 . S
C2308 C2310 1.395 . S
C2308 C2311 1.403 . S
H2309 C2315 0.930 . S
C2310 H2296 0.930 . S
C2310 C2308 1.395 . S
C2310 C2313 1.403 . S
C2311 C2308 1.403 . S
C2311 C2312 1.524 . S
C2311 C2315 1.400 . S
C2312 H2297 0.960 . S
C2312 H2298 0.960 . S
C2312 H2299 0.960 . S
C2312 C2311 1.524 . S
C2313 C2310 1.403 . S
C2313 C2314 1.392 . S
C2313 C2317 1.495 . S
C2314 C2313 1.392 . S
C2314 C2315 1.385 . S
C2314 C2316 1.478 . S
C2315 H2309 0.930 . S
C2315 C2311 1.400 . S
C2315 C2314 1.385 . S
C2316 C2314 1.478 . S
C2316 C2318 1.381 . S
C2316 C2322 1.383 . S
C2317 C2313 1.495 . S
C2317 H2323 0.959 . S
C2317 H2324 0.961 . S
C2317 H2325 0.960 . S
C2318 C2316 1.381 . S
C2318 C2319 1.394 . S
C2318 H2326 0.930 . S
C2319 C2318 1.394 . S
C2319 C2320 1.383 . S
C2319 H2327 0.929 . S
C2320 C2319 1.383 . S
C2320 C2321 1.377 . S
C2321 H2305 0.930 . S
C2321 C2320 1.377 . S
C2321 C2322 1.379 . S
C2322 H2306 0.931 . S
C2322 C2316 1.383 . S
C2322 C2321 1.379 . S
H2323 C2317 0.959 . S
H2324 C2317 0.961 . S
H2325 C2317 0.960 . S
H2326 C2318 0.930 . S
H2327 C2319 0.929 . S
H2328 C2336 0.929 . S
H2329 C2338 0.930 . S
H2330 C2340 0.930 . S
H2331 C2343 0.929 . S
H2332 C2346 0.930 . S
H2333 C2348 0.960 . S
H2334 C2348 0.960 . S
H2335 C2348 0.960 . S
C2336 H2328 0.929 . S
C2336 C2337 1.377 . S
C2336 C2338 1.384 . S
C2337 C2336 1.377 . S
C2337 C2343 1.390 . S
C2338 H2329 0.930 . S
C2338 C2336 1.384 . S
C2338 C2339 1.372 . S
C2339 C2338 1.372 . S
C2339 C2340 1.400 . S
C2339 C2344 1.490 . S
C2340 H2330 0.930 . S
C2340 C2339 1.400 . S
C2340 C2343 1.386 . S
H2341 C2357 0.930 . S
H2342 C2358 0.931 . S
C2343 H2331 0.929 . S
C2343 C2337 1.390 . S
C2343 C2340 1.386 . S
C2344 C2339 1.490 . S
C2344 C2346 1.395 . S
C2344 C2347 1.403 . S
H2345 C2351 0.930 . S
C2346 H2332 0.930 . S
C2346 C2344 1.395 . S
C2346 C2349 1.403 . S
C2347 C2344 1.403 . S
C2347 C2348 1.524 . S
C2347 C2351 1.400 . S
C2348 H2333 0.960 . S
C2348 H2334 0.960 . S
C2348 H2335 0.960 . S
C2348 C2347 1.524 . S
C2349 C2346 1.403 . S
C2349 C2350 1.392 . S
C2349 C2353 1.495 . S
C2350 C2349 1.392 . S
C2350 C2351 1.385 . S
C2350 C2352 1.478 . S
C2351 H2345 0.930 . S
C2351 C2347 1.400 . S
C2351 C2350 1.385 . S
C2352 C2350 1.478 . S
C2352 C2354 1.381 . S
C2352 C2358 1.383 . S
C2353 C2349 1.495 . S
C2353 H2359 0.959 . S
C2353 H2360 0.961 . S
C2353 H2361 0.960 . S
C2354 C2352 1.381 . S
C2354 C2355 1.394 . S
C2354 H2362 0.930 . S
C2355 C2354 1.394 . S
C2355 C2356 1.383 . S
C2355 H2363 0.929 . S
C2356 C2355 1.383 . S
C2356 C2357 1.377 . S
C2357 H2341 0.930 . S
C2357 C2356 1.377 . S
C2357 C2358 1.379 . S
C2358 H2342 0.931 . S
C2358 C2352 1.383 . S
C2358 C2357 1.379 . S
H2359 C2353 0.959 . S
H2360 C2353 0.961 . S
H2361 C2353 0.960 . S
H2362 C2354 0.930 . S
H2363 C2355 0.929 . S
H2364 C2372 0.929 . S
H2365 C2374 0.930 . S
H2366 C2376 0.930 . S
H2367 C2379 0.929 . S
H2368 C2382 0.930 . S
H2369 C2384 0.960 . S
H2370 C2384 0.960 . S
H2371 C2384 0.960 . S
C2372 H2364 0.929 . S
C2372 C2373 1.377 . S
C2372 C2374 1.384 . S
C2373 C2372 1.377 . S
C2373 C2379 1.390 . S
C2374 H2365 0.930 . S
C2374 C2372 1.384 . S
C2374 C2375 1.372 . S
C2375 C2374 1.372 . S
C2375 C2376 1.400 . S
C2375 C2380 1.490 . S
C2376 H2366 0.930 . S
C2376 C2375 1.400 . S
C2376 C2379 1.386 . S
H2377 C2393 0.930 . S
H2378 C2394 0.931 . S
C2379 H2367 0.929 . S
C2379 C2373 1.390 . S
C2379 C2376 1.386 . S
C2380 C2375 1.490 . S
C2380 C2382 1.395 . S
C2380 C2383 1.403 . S
H2381 C2387 0.930 . S
C2382 H2368 0.930 . S
C2382 C2380 1.395 . S
C2382 C2385 1.403 . S
C2383 C2380 1.403 . S
C2383 C2384 1.524 . S
C2383 C2387 1.400 . S
C2384 H2369 0.960 . S
C2384 H2370 0.960 . S
C2384 H2371 0.960 . S
C2384 C2383 1.524 . S
C2385 C2382 1.403 . S
C2385 C2386 1.392 . S
C2385 C2389 1.495 . S
C2386 C2385 1.392 . S
C2386 C2387 1.385 . S
C2386 C2388 1.478 . S
C2387 H2381 0.930 . S
C2387 C2383 1.400 . S
C2387 C2386 1.385 . S
C2388 C2386 1.478 . S
C2388 C2390 1.381 . S
C2388 C2394 1.383 . S
C2389 C2385 1.495 . S
C2389 H2395 0.959 . S
C2389 H2396 0.961 . S
C2389 H2397 0.960 . S
C2390 C2388 1.381 . S
C2390 C2391 1.394 . S
C2390 H2398 0.930 . S
C2391 C2390 1.394 . S
C2391 C2392 1.383 . S
C2391 H2399 0.929 . S
C2392 C2391 1.383 . S
C2392 C2393 1.377 . S
C2393 H2377 0.930 . S
C2393 C2392 1.377 . S
C2393 C2394 1.379 . S
C2394 H2378 0.931 . S
C2394 C2388 1.383 . S
C2394 C2393 1.379 . S
H2395 C2389 0.959 . S
H2396 C2389 0.961 . S
H2397 C2389 0.960 . S
H2398 C2390 0.930 . S
H2399 C2391 0.929 . S
H2400 C2408 0.929 . S
H2401 C2410 0.930 . S
H2402 C2412 0.930 . S
H2403 C2415 0.929 . S
H2404 C2418 0.930 . S
H2405 C2420 0.960 . S
H2406 C2420 0.960 . S
H2407 C2420 0.960 . S
C2408 H2400 0.929 . S
C2408 C2409 1.377 . S
C2408 C2410 1.384 . S
C2409 C2408 1.377 . S
C2409 C2415 1.390 . S
C2410 H2401 0.930 . S
C2410 C2408 1.384 . S
C2410 C2411 1.372 . S
C2411 C2410 1.372 . S
C2411 C2412 1.400 . S
C2411 C2416 1.490 . S
C2412 H2402 0.930 . S
C2412 C2411 1.400 . S
C2412 C2415 1.386 . S
H2413 C2429 0.930 . S
H2414 C2430 0.931 . S
C2415 H2403 0.929 . S
C2415 C2409 1.390 . S
C2415 C2412 1.386 . S
C2416 C2411 1.490 . S
C2416 C2418 1.395 . S
C2416 C2419 1.403 . S
H2417 C2423 0.930 . S
C2418 H2404 0.930 . S
C2418 C2416 1.395 . S
C2418 C2421 1.403 . S
C2419 C2416 1.403 . S
C2419 C2420 1.524 . S
C2419 C2423 1.400 . S
C2420 H2405 0.960 . S
C2420 H2406 0.960 . S
C2420 H2407 0.960 . S
C2420 C2419 1.524 . S
C2421 C2418 1.403 . S
C2421 C2422 1.392 . S
C2421 C2425 1.495 . S
C2422 C2421 1.392 . S
C2422 C2423 1.385 . S
C2422 C2424 1.478 . S
C2423 H2417 0.930 . S
C2423 C2419 1.400 . S
C2423 C2422 1.385 . S
C2424 C2422 1.478 . S
C2424 C2426 1.381 . S
C2424 C2430 1.383 . S
C2425 C2421 1.495 . S
C2425 H2431 0.959 . S
C2425 H2432 0.961 . S
C2425 H2433 0.960 . S
C2426 C2424 1.381 . S
C2426 C2427 1.394 . S
C2426 H2434 0.930 . S
C2427 C2426 1.394 . S
C2427 C2428 1.383 . S
C2427 H2435 0.929 . S
C2428 C2427 1.383 . S
C2428 C2429 1.377 . S
C2429 H2413 0.930 . S
C2429 C2428 1.377 . S
C2429 C2430 1.379 . S
C2430 H2414 0.931 . S
C2430 C2424 1.383 . S
C2430 C2429 1.379 . S
H2431 C2425 0.959 . S
H2432 C2425 0.961 . S
H2433 C2425 0.960 . S
H2434 C2426 0.930 . S
H2435 C2427 0.929 . S
H2436 C2444 0.929 . S
H2437 C2446 0.930 . S
H2438 C2448 0.930 . S
H2439 C2451 0.929 . S
H2440 C2454 0.930 . S
H2441 C2456 0.960 . S
H2442 C2456 0.960 . S
H2443 C2456 0.960 . S
C2444 H2436 0.929 . S
C2444 C2445 1.377 . S
C2444 C2446 1.384 . S
C2445 C2444 1.377 . S
C2445 C2451 1.390 . S
C2446 H2437 0.930 . S
C2446 C2444 1.384 . S
C2446 C2447 1.372 . S
C2447 C2446 1.372 . S
C2447 C2448 1.400 . S
C2447 C2452 1.490 . S
C2448 H2438 0.930 . S
C2448 C2447 1.400 . S
C2448 C2451 1.386 . S
H2449 C2465 0.930 . S
H2450 C2466 0.931 . S
C2451 H2439 0.929 . S
C2451 C2445 1.390 . S
C2451 C2448 1.386 . S
C2452 C2447 1.490 . S
C2452 C2454 1.395 . S
C2452 C2455 1.403 . S
H2453 C2459 0.930 . S
C2454 H2440 0.930 . S
C2454 C2452 1.395 . S
C2454 C2457 1.403 . S
C2455 C2452 1.403 . S
C2455 C2456 1.524 . S
C2455 C2459 1.400 . S
C2456 H2441 0.960 . S
C2456 H2442 0.960 . S
C2456 H2443 0.960 . S
C2456 C2455 1.524 . S
C2457 C2454 1.403 . S
C2457 C2458 1.392 . S
C2457 C2461 1.495 . S
C2458 C2457 1.392 . S
C2458 C2459 1.385 . S
C2458 C2460 1.478 . S
C2459 H2453 0.930 . S
C2459 C2455 1.400 . S
C2459 C2458 1.385 . S
C2460 C2458 1.478 . S
C2460 C2462 1.381 . S
C2460 C2466 1.383 . S
C2461 C2457 1.495 . S
C2461 H2467 0.959 . S
C2461 H2468 0.961 . S
C2461 H2469 0.960 . S
C2462 C2460 1.381 . S
C2462 C2463 1.394 . S
C2462 H2470 0.930 . S
C2463 C2462 1.394 . S
C2463 C2464 1.383 . S
C2463 H2471 0.929 . S
C2464 C2463 1.383 . S
C2464 C2465 1.377 . S
C2465 H2449 0.930 . S
C2465 C2464 1.377 . S
C2465 C2466 1.379 . S
C2466 H2450 0.931 . S
C2466 C2460 1.383 . S
C2466 C2465 1.379 . S
H2467 C2461 0.959 . S
H2468 C2461 0.961 . S
H2469 C2461 0.960 . S
H2470 C2462 0.930 . S
H2471 C2463 0.929 . S
H2472 C2480 0.929 . S
H2473 C2482 0.930 . S
H2474 C2484 0.930 . S
H2475 C2487 0.929 . S
H2476 C2490 0.930 . S
H2477 C2492 0.960 . S
H2478 C2492 0.960 . S
H2479 C2492 0.960 . S
C2480 H2472 0.929 . S
C2480 C2481 1.377 . S
C2480 C2482 1.384 . S
C2481 C2480 1.377 . S
C2481 C2487 1.390 . S
C2482 H2473 0.930 . S
C2482 C2480 1.384 . S
C2482 C2483 1.372 . S
C2483 C2482 1.372 . S
C2483 C2484 1.400 . S
C2483 C2488 1.490 . S
C2484 H2474 0.930 . S
C2484 C2483 1.400 . S
C2484 C2487 1.386 . S
H2485 C2501 0.930 . S
H2486 C2502 0.931 . S
C2487 H2475 0.929 . S
C2487 C2481 1.390 . S
C2487 C2484 1.386 . S
C2488 C2483 1.490 . S
C2488 C2490 1.395 . S
C2488 C2491 1.403 . S
H2489 C2495 0.930 . S
C2490 H2476 0.930 . S
C2490 C2488 1.395 . S
C2490 C2493 1.403 . S
C2491 C2488 1.403 . S
C2491 C2492 1.524 . S
C2491 C2495 1.400 . S
C2492 H2477 0.960 . S
C2492 H2478 0.960 . S
C2492 H2479 0.960 . S
C2492 C2491 1.524 . S
C2493 C2490 1.403 . S
C2493 C2494 1.392 . S
C2493 C2497 1.495 . S
C2494 C2493 1.392 . S
C2494 C2495 1.385 . S
C2494 C2496 1.478 . S
C2495 H2489 0.930 . S
C2495 C2491 1.400 . S
C2495 C2494 1.385 . S
C2496 C2494 1.478 . S
C2496 C2498 1.381 . S
C2496 C2502 1.383 . S
C2497 C2493 1.495 . S
C2497 H2503 0.959 . S
C2497 H2504 0.961 . S
C2497 H2505 0.960 . S
C2498 C2496 1.381 . S
C2498 C2499 1.394 . S
C2498 H2506 0.930 . S
C2499 C2498 1.394 . S
C2499 C2500 1.383 . S
C2499 H2507 0.929 . S
C2500 C2499 1.383 . S
C2500 C2501 1.377 . S
C2501 H2485 0.930 . S
C2501 C2500 1.377 . S
C2501 C2502 1.379 . S
C2502 H2486 0.931 . S
C2502 C2496 1.383 . S
C2502 C2501 1.379 . S
H2503 C2497 0.959 . S
H2504 C2497 0.961 . S
H2505 C2497 0.960 . S
H2506 C2498 0.930 . S
H2507 C2499 0.929 . S
H2508 C2516 0.929 . S
H2509 C2518 0.930 . S
H2510 C2520 0.930 . S
H2511 C2523 0.929 . S
H2512 C2526 0.930 . S
H2513 C2528 0.960 . S
H2514 C2528 0.960 . S
H2515 C2528 0.960 . S
C2516 H2508 0.929 . S
C2516 C2517 1.377 . S
C2516 C2518 1.384 . S
C2517 C2516 1.377 . S
C2517 C2523 1.390 . S
C2518 H2509 0.930 . S
C2518 C2516 1.384 . S
C2518 C2519 1.372 . S
C2519 C2518 1.372 . S
C2519 C2520 1.400 . S
C2519 C2524 1.490 . S
C2520 H2510 0.930 . S
C2520 C2519 1.400 . S
C2520 C2523 1.386 . S
H2521 C2537 0.930 . S
H2522 C2538 0.931 . S
C2523 H2511 0.929 . S
C2523 C2517 1.390 . S
C2523 C2520 1.386 . S
C2524 C2519 1.490 . S
C2524 C2526 1.395 . S
C2524 C2527 1.403 . S
H2525 C2531 0.930 . S
C2526 H2512 0.930 . S
C2526 C2524 1.395 . S
C2526 C2529 1.403 . S
C2527 C2524 1.403 . S
C2527 C2528 1.524 . S
C2527 C2531 1.400 . S
C2528 H2513 0.960 . S
C2528 H2514 0.960 . S
C2528 H2515 0.960 . S
C2528 C2527 1.524 . S
C2529 C2526 1.403 . S
C2529 C2530 1.392 . S
C2529 C2533 1.495 . S
C2530 C2529 1.392 . S
C2530 C2531 1.385 . S
C2530 C2532 1.478 . S
C2531 H2525 0.930 . S
C2531 C2527 1.400 . S
C2531 C2530 1.385 . S
C2532 C2530 1.478 . S
C2532 C2534 1.381 . S
C2532 C2538 1.383 . S
C2533 C2529 1.495 . S
C2533 H2539 0.959 . S
C2533 H2540 0.961 . S
C2533 H2541 0.960 . S
C2534 C2532 1.381 . S
C2534 C2535 1.394 . S
C2534 H2542 0.930 . S
C2535 C2534 1.394 . S
C2535 C2536 1.383 . S
C2535 H2543 0.929 . S
C2536 C2535 1.383 . S
C2536 C2537 1.377 . S
C2537 H2521 0.930 . S
C2537 C2536 1.377 . S
C2537 C2538 1.379 . S
C2538 H2522 0.931 . S
C2538 C2532 1.383 . S
C2538 C2537 1.379 . S
H2539 C2533 0.959 . S
H2540 C2533 0.961 . S
H2541 C2533 0.960 . S
H2542 C2534 0.930 . S
H2543 C2535 0.929 . S
H2544 C2552 0.929 . S
H2545 C2554 0.930 . S
H2546 C2556 0.930 . S
H2547 C2559 0.929 . S
H2548 C2562 0.930 . S
H2549 C2564 0.960 . S
H2550 C2564 0.960 . S
H2551 C2564 0.960 . S
C2552 H2544 0.929 . S
C2552 C2553 1.377 . S
C2552 C2554 1.384 . S
C2553 C2552 1.377 . S
C2553 C2559 1.390 . S
C2554 H2545 0.930 . S
C2554 C2552 1.384 . S
C2554 C2555 1.372 . S
C2555 C2554 1.372 . S
C2555 C2556 1.400 . S
C2555 C2560 1.490 . S
C2556 H2546 0.930 . S
C2556 C2555 1.400 . S
C2556 C2559 1.386 . S
H2557 C2573 0.930 . S
H2558 C2574 0.931 . S
C2559 H2547 0.929 . S
C2559 C2553 1.390 . S
C2559 C2556 1.386 . S
C2560 C2555 1.490 . S
C2560 C2562 1.395 . S
C2560 C2563 1.403 . S
H2561 C2567 0.930 . S
C2562 H2548 0.930 . S
C2562 C2560 1.395 . S
C2562 C2565 1.403 . S
C2563 C2560 1.403 . S
C2563 C2564 1.524 . S
C2563 C2567 1.400 . S
C2564 H2549 0.960 . S
C2564 H2550 0.960 . S
C2564 H2551 0.960 . S
C2564 C2563 1.524 . S
C2565 C2562 1.403 . S
C2565 C2566 1.392 . S
C2565 C2569 1.495 . S
C2566 C2565 1.392 . S
C2566 C2567 1.385 . S
C2566 C2568 1.478 . S
C2567 H2561 0.930 . S
C2567 C2563 1.400 . S
C2567 C2566 1.385 . S
C2568 C2566 1.478 . S
C2568 C2570 1.381 . S
C2568 C2574 1.383 . S
C2569 C2565 1.495 . S
C2569 H2575 0.959 . S
C2569 H2576 0.961 . S
C2569 H2577 0.960 . S
C2570 C2568 1.381 . S
C2570 C2571 1.394 . S
C2570 H2578 0.930 . S
C2571 C2570 1.394 . S
C2571 C2572 1.383 . S
C2571 H2579 0.929 . S
C2572 C2571 1.383 . S
C2572 C2573 1.377 . S
C2573 H2557 0.930 . S
C2573 C2572 1.377 . S
C2573 C2574 1.379 . S
C2574 H2558 0.931 . S
C2574 C2568 1.383 . S
C2574 C2573 1.379 . S
H2575 C2569 0.959 . S
H2576 C2569 0.961 . S
H2577 C2569 0.960 . S
H2578 C2570 0.930 . S
H2579 C2571 0.929 . S
H2580 C2588 0.929 . S
H2581 C2590 0.930 . S
H2582 C2592 0.930 . S
H2583 C2595 0.929 . S
H2584 C2598 0.930 . S
H2585 C2600 0.960 . S
H2586 C2600 0.960 . S
H2587 C2600 0.960 . S
C2588 H2580 0.929 . S
C2588 C2589 1.377 . S
C2588 C2590 1.384 . S
C2589 C2588 1.377 . S
C2589 C2595 1.390 . S
C2590 H2581 0.930 . S
C2590 C2588 1.384 . S
C2590 C2591 1.372 . S
C2591 C2590 1.372 . S
C2591 C2592 1.400 . S
C2591 C2596 1.490 . S
C2592 H2582 0.930 . S
C2592 C2591 1.400 . S
C2592 C2595 1.386 . S
H2593 C2609 0.930 . S
H2594 C2610 0.931 . S
C2595 H2583 0.929 . S
C2595 C2589 1.390 . S
C2595 C2592 1.386 . S
C2596 C2591 1.490 . S
C2596 C2598 1.395 . S
C2596 C2599 1.403 . S
H2597 C2603 0.930 . S
C2598 H2584 0.930 . S
C2598 C2596 1.395 . S
C2598 C2601 1.403 . S
C2599 C2596 1.403 . S
C2599 C2600 1.524 . S
C2599 C2603 1.400 . S
C2600 H2585 0.960 . S
C2600 H2586 0.960 . S
C2600 H2587 0.960 . S
C2600 C2599 1.524 . S
C2601 C2598 1.403 . S
C2601 C2602 1.392 . S
C2601 C2605 1.495 . S
C2602 C2601 1.392 . S
C2602 C2603 1.385 . S
C2602 C2604 1.478 . S
C2603 H2597 0.930 . S
C2603 C2599 1.400 . S
C2603 C2602 1.385 . S
C2604 C2602 1.478 . S
C2604 C2606 1.381 . S
C2604 C2610 1.383 . S
C2605 C2601 1.495 . S
C2605 H2611 0.959 . S
C2605 H2612 0.961 . S
C2605 H2613 0.960 . S
C2606 C2604 1.381 . S
C2606 C2607 1.394 . S
C2606 H2614 0.930 . S
C2607 C2606 1.394 . S
C2607 C2608 1.383 . S
C2607 H2615 0.929 . S
C2608 C2607 1.383 . S
C2608 C2609 1.377 . S
C2609 H2593 0.930 . S
C2609 C2608 1.377 . S
C2609 C2610 1.379 . S
C2610 H2594 0.931 . S
C2610 C2604 1.383 . S
C2610 C2609 1.379 . S
H2611 C2605 0.959 . S
H2612 C2605 0.961 . S
H2613 C2605 0.960 . S
H2614 C2606 0.930 . S
H2615 C2607 0.929 . S
H2616 C2624 0.929 . S
H2617 C2626 0.930 . S
H2618 C2628 0.930 . S
H2619 C2631 0.929 . S
H2620 C2634 0.930 . S
H2621 C2636 0.960 . S
H2622 C2636 0.960 . S
H2623 C2636 0.960 . S
C2624 H2616 0.929 . S
C2624 C2625 1.377 . S
C2624 C2626 1.384 . S
C2625 C2624 1.377 . S
C2625 C2631 1.390 . S
C2626 H2617 0.930 . S
C2626 C2624 1.384 . S
C2626 C2627 1.372 . S
C2627 C2626 1.372 . S
C2627 C2628 1.400 . S
C2627 C2632 1.490 . S
C2628 H2618 0.930 . S
C2628 C2627 1.400 . S
C2628 C2631 1.386 . S
H2629 C2645 0.930 . S
H2630 C2646 0.931 . S
C2631 H2619 0.929 . S
C2631 C2625 1.390 . S
C2631 C2628 1.386 . S
C2632 C2627 1.490 . S
C2632 C2634 1.395 . S
C2632 C2635 1.403 . S
H2633 C2639 0.930 . S
C2634 H2620 0.930 . S
C2634 C2632 1.395 . S
C2634 C2637 1.403 . S
C2635 C2632 1.403 . S
C2635 C2636 1.524 . S
C2635 C2639 1.400 . S
C2636 H2621 0.960 . S
C2636 H2622 0.960 . S
C2636 H2623 0.960 . S
C2636 C2635 1.524 . S
C2637 C2634 1.403 . S
C2637 C2638 1.392 . S
C2637 C2641 1.495 . S
C2638 C2637 1.392 . S
C2638 C2639 1.385 . S
C2638 C2640 1.478 . S
C2639 H2633 0.930 . S
C2639 C2635 1.400 . S
C2639 C2638 1.385 . S
C2640 C2638 1.478 . S
C2640 C2642 1.381 . S
C2640 C2646 1.383 . S
C2641 C2637 1.495 . S
C2641 H2647 0.959 . S
C2641 H2648 0.961 . S
C2641 H2649 0.960 . S
C2642 C2640 1.381 . S
C2642 C2643 1.394 . S
C2642 H2650 0.930 . S
C2643 C2642 1.394 . S
C2643 C2644 1.383 . S
C2643 H2651 0.929 . S
C2644 C2643 1.383 . S
C2644 C2645 1.377 . S
C2645 H2629 0.930 . S
C2645 C2644 1.377 . S
C2645 C2646 1.379 . S
C2646 H2630 0.931 . S
C2646 C2640 1.383 . S
C2646 C2645 1.379 . S
H2647 C2641 0.959 . S
H2648 C2641 0.961 . S
H2649 C2641 0.960 . S
H2650 C2642 0.930 . S
H2651 C2643 0.929 . S
H2652 C2660 0.929 . S
H2653 C2662 0.930 . S
H2654 C2664 0.930 . S
H2655 C2667 0.929 . S
H2656 C2670 0.930 . S
H2657 C2672 0.960 . S
H2658 C2672 0.960 . S
H2659 C2672 0.960 . S
C2660 H2652 0.929 . S
C2660 C2661 1.377 . S
C2660 C2662 1.384 . S
C2661 C2660 1.377 . S
C2661 C2667 1.390 . S
C2662 H2653 0.930 . S
C2662 C2660 1.384 . S
C2662 C2663 1.372 . S
C2663 C2662 1.372 . S
C2663 C2664 1.400 . S
C2663 C2668 1.490 . S
C2664 H2654 0.930 . S
C2664 C2663 1.400 . S
C2664 C2667 1.386 . S
H2665 C2681 0.930 . S
H2666 C2682 0.931 . S
C2667 H2655 0.929 . S
C2667 C2661 1.390 . S
C2667 C2664 1.386 . S
C2668 C2663 1.490 . S
C2668 C2670 1.395 . S
C2668 C2671 1.403 . S
H2669 C2675 0.930 . S
C2670 H2656 0.930 . S
C2670 C2668 1.395 . S
C2670 C2673 1.403 . S
C2671 C2668 1.403 . S
C2671 C2672 1.524 . S
C2671 C2675 1.400 . S
C2672 H2657 0.960 . S
C2672 H2658 0.960 . S
C2672 H2659 0.960 . S
C2672 C2671 1.524 . S
C2673 C2670 1.403 . S
C2673 C2674 1.392 . S
C2673 C2677 1.495 . S
C2674 C2673 1.392 . S
C2674 C2675 1.385 . S
C2674 C2676 1.478 . S
C2675 H2669 0.930 . S
C2675 C2671 1.400 . S
C2675 C2674 1.385 . S
C2676 C2674 1.478 . S
C2676 C2678 1.381 . S
C2676 C2682 1.383 . S
C2677 C2673 1.495 . S
C2677 H2683 0.959 . S
C2677 H2684 0.961 . S
C2677 H2685 0.960 . S
C2678 C2676 1.381 . S
C2678 C2679 1.394 . S
C2678 H2686 0.930 . S
C2679 C2678 1.394 . S
C2679 C2680 1.383 . S
C2679 H2687 0.929 . S
C2680 C2679 1.383 . S
C2680 C2681 1.377 . S
C2681 H2665 0.930 . S
C2681 C2680 1.377 . S
C2681 C2682 1.379 . S
C2682 H2666 0.931 . S
C2682 C2676 1.383 . S
C2682 C2681 1.379 . S
H2683 C2677 0.959 . S
H2684 C2677 0.961 . S
H2685 C2677 0.960 . S
H2686 C2678 0.930 . S
H2687 C2679 0.929 . S
H2688 C2696 0.929 . S
H2689 C2698 0.930 . S
H2690 C2700 0.930 . S
H2691 C2703 0.929 . S
H2692 C2706 0.930 . S
H2693 C2708 0.960 . S
H2694 C2708 0.960 . S
H2695 C2708 0.960 . S
C2696 H2688 0.929 . S
C2696 C2697 1.377 . S
C2696 C2698 1.384 . S
C2697 C2696 1.377 . S
C2697 C2703 1.390 . S
C2698 H2689 0.930 . S
C2698 C2696 1.384 . S
C2698 C2699 1.372 . S
C2699 C2698 1.372 . S
C2699 C2700 1.400 . S
C2699 C2704 1.490 . S
C2700 H2690 0.930 . S
C2700 C2699 1.400 . S
C2700 C2703 1.386 . S
H2701 C2717 0.930 . S
H2702 C2718 0.931 . S
C2703 H2691 0.929 . S
C2703 C2697 1.390 . S
C2703 C2700 1.386 . S
C2704 C2699 1.490 . S
C2704 C2706 1.395 . S
C2704 C2707 1.403 . S
H2705 C2711 0.930 . S
C2706 H2692 0.930 . S
C2706 C2704 1.395 . S
C2706 C2709 1.403 . S
C2707 C2704 1.403 . S
C2707 C2708 1.524 . S
C2707 C2711 1.400 . S
C2708 H2693 0.960 . S
C2708 H2694 0.960 . S
C2708 H2695 0.960 . S
C2708 C2707 1.524 . S
C2709 C2706 1.403 . S
C2709 C2710 1.392 . S
C2709 C2713 1.495 . S
C2710 C2709 1.392 . S
C2710 C2711 1.385 . S
C2710 C2712 1.478 . S
C2711 H2705 0.930 . S
C2711 C2707 1.400 . S
C2711 C2710 1.385 . S
C2712 C2710 1.478 . S
C2712 C2714 1.381 . S
C2712 C2718 1.383 . S
C2713 C2709 1.495 . S
C2713 H2719 0.959 . S
C2713 H2720 0.961 . S
C2713 H2721 0.960 . S
C2714 C2712 1.381 . S
C2714 C2715 1.394 . S
C2714 H2722 0.930 . S
C2715 C2714 1.394 . S
C2715 C2716 1.383 . S
C2715 H2723 0.929 . S
C2716 C2715 1.383 . S
C2716 C2717 1.377 . S
C2717 H2701 0.930 . S
C2717 C2716 1.377 . S
C2717 C2718 1.379 . S
C2718 H2702 0.931 . S
C2718 C2712 1.383 . S
C2718 C2717 1.379 . S
H2719 C2713 0.959 . S
H2720 C2713 0.961 . S
H2721 C2713 0.960 . S
H2722 C2714 0.930 . S
H2723 C2715 0.929 . S
H2724 C2732 0.929 . S
H2725 C2734 0.930 . S
H2726 C2736 0.930 . S
H2727 C2739 0.929 . S
H2728 C2742 0.930 . S
H2729 C2744 0.960 . S
H2730 C2744 0.960 . S
H2731 C2744 0.960 . S
C2732 H2724 0.929 . S
C2732 C2733 1.377 . S
C2732 C2734 1.384 . S
C2733 C2732 1.377 . S
C2733 C2739 1.390 . S
C2734 H2725 0.930 . S
C2734 C2732 1.384 . S
C2734 C2735 1.372 . S
C2735 C2734 1.372 . S
C2735 C2736 1.400 . S
C2735 C2740 1.490 . S
C2736 H2726 0.930 . S
C2736 C2735 1.400 . S
C2736 C2739 1.386 . S
H2737 C2753 0.930 . S
H2738 C2754 0.931 . S
C2739 H2727 0.929 . S
C2739 C2733 1.390 . S
C2739 C2736 1.386 . S
C2740 C2735 1.490 . S
C2740 C2742 1.395 . S
C2740 C2743 1.403 . S
H2741 C2747 0.930 . S
C2742 H2728 0.930 . S
C2742 C2740 1.395 . S
C2742 C2745 1.403 . S
C2743 C2740 1.403 . S
C2743 C2744 1.524 . S
C2743 C2747 1.400 . S
C2744 H2729 0.960 . S
C2744 H2730 0.960 . S
C2744 H2731 0.960 . S
C2744 C2743 1.524 . S
C2745 C2742 1.403 . S
C2745 C2746 1.392 . S
C2745 C2749 1.495 . S
C2746 C2745 1.392 . S
C2746 C2747 1.385 . S
C2746 C2748 1.478 . S
C2747 H2741 0.930 . S
C2747 C2743 1.400 . S
C2747 C2746 1.385 . S
C2748 C2746 1.478 . S
C2748 C2750 1.381 . S
C2748 C2754 1.383 . S
C2749 C2745 1.495 . S
C2749 H2755 0.959 . S
C2749 H2756 0.961 . S
C2749 H2757 0.960 . S
C2750 C2748 1.381 . S
C2750 C2751 1.394 . S
C2750 H2758 0.930 . S
C2751 C2750 1.394 . S
C2751 C2752 1.383 . S
C2751 H2759 0.929 . S
C2752 C2751 1.383 . S
C2752 C2753 1.377 . S
C2753 H2737 0.930 . S
C2753 C2752 1.377 . S
C2753 C2754 1.379 . S
C2754 H2738 0.931 . S
C2754 C2748 1.383 . S
C2754 C2753 1.379 . S
H2755 C2749 0.959 . S
H2756 C2749 0.961 . S
H2757 C2749 0.960 . S
H2758 C2750 0.930 . S
H2759 C2751 0.929 . S
H2760 C2768 0.929 . S
H2761 C2770 0.930 . S
H2762 C2772 0.930 . S
H2763 C2775 0.929 . S
H2764 C2778 0.930 . S
H2765 C2780 0.960 . S
H2766 C2780 0.960 . S
H2767 C2780 0.960 . S
C2768 H2760 0.929 . S
C2768 C2769 1.377 . S
C2768 C2770 1.384 . S
C2769 C2768 1.377 . S
C2769 C2775 1.390 . S
C2770 H2761 0.930 . S
C2770 C2768 1.384 . S
C2770 C2771 1.372 . S
C2771 C2770 1.372 . S
C2771 C2772 1.400 . S
C2771 C2776 1.490 . S
C2772 H2762 0.930 . S
C2772 C2771 1.400 . S
C2772 C2775 1.386 . S
H2773 C2789 0.930 . S
H2774 C2790 0.931 . S
C2775 H2763 0.929 . S
C2775 C2769 1.390 . S
C2775 C2772 1.386 . S
C2776 C2771 1.490 . S
C2776 C2778 1.395 . S
C2776 C2779 1.403 . S
H2777 C2783 0.930 . S
C2778 H2764 0.930 . S
C2778 C2776 1.395 . S
C2778 C2781 1.403 . S
C2779 C2776 1.403 . S
C2779 C2780 1.524 . S
C2779 C2783 1.400 . S
C2780 H2765 0.960 . S
C2780 H2766 0.960 . S
C2780 H2767 0.960 . S
C2780 C2779 1.524 . S
C2781 C2778 1.403 . S
C2781 C2782 1.392 . S
C2781 C2785 1.495 . S
C2782 C2781 1.392 . S
C2782 C2783 1.385 . S
C2782 C2784 1.478 . S
C2783 H2777 0.930 . S
C2783 C2779 1.400 . S
C2783 C2782 1.385 . S
C2784 C2782 1.478 . S
C2784 C2786 1.381 . S
C2784 C2790 1.383 . S
C2785 C2781 1.495 . S
C2785 H2791 0.959 . S
C2785 H2792 0.961 . S
C2785 H2793 0.960 . S
C2786 C2784 1.381 . S
C2786 C2787 1.394 . S
C2786 H2794 0.930 . S
C2787 C2786 1.394 . S
C2787 C2788 1.383 . S
C2787 H2795 0.929 . S
C2788 C2787 1.383 . S
C2788 C2789 1.377 . S
C2789 H2773 0.930 . S
C2789 C2788 1.377 . S
C2789 C2790 1.379 . S
C2790 H2774 0.931 . S
C2790 C2784 1.383 . S
C2790 C2789 1.379 . S
H2791 C2785 0.959 . S
H2792 C2785 0.961 . S
H2793 C2785 0.960 . S
H2794 C2786 0.930 . S
H2795 C2787 0.929 . S
H2796 C2804 0.929 . S
H2797 C2806 0.930 . S
H2798 C2808 0.930 . S
H2799 C2811 0.929 . S
H2800 C2814 0.930 . S
H2801 C2816 0.960 . S
H2802 C2816 0.960 . S
H2803 C2816 0.960 . S
C2804 H2796 0.929 . S
C2804 C2805 1.377 . S
C2804 C2806 1.384 . S
C2805 C2804 1.377 . S
C2805 C2811 1.390 . S
C2806 H2797 0.930 . S
C2806 C2804 1.384 . S
C2806 C2807 1.372 . S
C2807 C2806 1.372 . S
C2807 C2808 1.400 . S
C2807 C2812 1.490 . S
C2808 H2798 0.930 . S
C2808 C2807 1.400 . S
C2808 C2811 1.386 . S
H2809 C2825 0.930 . S
H2810 C2826 0.931 . S
C2811 H2799 0.929 . S
C2811 C2805 1.390 . S
C2811 C2808 1.386 . S
C2812 C2807 1.490 . S
C2812 C2814 1.395 . S
C2812 C2815 1.403 . S
H2813 C2819 0.930 . S
C2814 H2800 0.930 . S
C2814 C2812 1.395 . S
C2814 C2817 1.403 . S
C2815 C2812 1.403 . S
C2815 C2816 1.524 . S
C2815 C2819 1.400 . S
C2816 H2801 0.960 . S
C2816 H2802 0.960 . S
C2816 H2803 0.960 . S
C2816 C2815 1.524 . S
C2817 C2814 1.403 . S
C2817 C2818 1.392 . S
C2817 C2821 1.495 . S
C2818 C2817 1.392 . S
C2818 C2819 1.385 . S
C2818 C2820 1.478 . S
C2819 H2813 0.930 . S
C2819 C2815 1.400 . S
C2819 C2818 1.385 . S
C2820 C2818 1.478 . S
C2820 C2822 1.381 . S
C2820 C2826 1.383 . S
C2821 C2817 1.495 . S
C2821 H2827 0.959 . S
C2821 H2828 0.961 . S
C2821 H2829 0.960 . S
C2822 C2820 1.381 . S
C2822 C2823 1.394 . S
C2822 H2830 0.930 . S
C2823 C2822 1.394 . S
C2823 C2824 1.383 . S
C2823 H2831 0.929 . S
C2824 C2823 1.383 . S
C2824 C2825 1.377 . S
C2825 H2809 0.930 . S
C2825 C2824 1.377 . S
C2825 C2826 1.379 . S
C2826 H2810 0.931 . S
C2826 C2820 1.383 . S
C2826 C2825 1.379 . S
H2827 C2821 0.959 . S
H2828 C2821 0.961 . S
H2829 C2821 0.960 . S
H2830 C2822 0.930 . S
H2831 C2823 0.929 . S
H2832 C2840 0.929 . S
H2833 C2842 0.930 . S
H2834 C2844 0.930 . S
H2835 C2847 0.929 . S
H2836 C2850 0.930 . S
H2837 C2852 0.960 . S
H2838 C2852 0.960 . S
H2839 C2852 0.960 . S
C2840 H2832 0.929 . S
C2840 C2841 1.377 . S
C2840 C2842 1.384 . S
C2841 C2840 1.377 . S
C2841 C2847 1.390 . S
C2842 H2833 0.930 . S
C2842 C2840 1.384 . S
C2842 C2843 1.372 . S
C2843 C2842 1.372 . S
C2843 C2844 1.400 . S
C2843 C2848 1.490 . S
C2844 H2834 0.930 . S
C2844 C2843 1.400 . S
C2844 C2847 1.386 . S
H2845 C2861 0.930 . S
H2846 C2862 0.931 . S
C2847 H2835 0.929 . S
C2847 C2841 1.390 . S
C2847 C2844 1.386 . S
C2848 C2843 1.490 . S
C2848 C2850 1.395 . S
C2848 C2851 1.403 . S
H2849 C2855 0.930 . S
C2850 H2836 0.930 . S
C2850 C2848 1.395 . S
C2850 C2853 1.403 . S
C2851 C2848 1.403 . S
C2851 C2852 1.524 . S
C2851 C2855 1.400 . S
C2852 H2837 0.960 . S
C2852 H2838 0.960 . S
C2852 H2839 0.960 . S
C2852 C2851 1.524 . S
C2853 C2850 1.403 . S
C2853 C2854 1.392 . S
C2853 C2857 1.495 . S
C2854 C2853 1.392 . S
C2854 C2855 1.385 . S
C2854 C2856 1.478 . S
C2855 H2849 0.930 . S
C2855 C2851 1.400 . S
C2855 C2854 1.385 . S
C2856 C2854 1.478 . S
C2856 C2858 1.381 . S
C2856 C2862 1.383 . S
C2857 C2853 1.495 . S
C2857 H2863 0.959 . S
C2857 H2864 0.961 . S
C2857 H2865 0.960 . S
C2858 C2856 1.381 . S
C2858 C2859 1.394 . S
C2858 H2866 0.930 . S
C2859 C2858 1.394 . S
C2859 C2860 1.383 . S
C2859 H2867 0.929 . S
C2860 C2859 1.383 . S
C2860 C2861 1.377 . S
C2861 H2845 0.930 . S
C2861 C2860 1.377 . S
C2861 C2862 1.379 . S
C2862 H2846 0.931 . S
C2862 C2856 1.383 . S
C2862 C2861 1.379 . S
H2863 C2857 0.959 . S
H2864 C2857 0.961 . S
H2865 C2857 0.960 . S
H2866 C2858 0.930 . S
H2867 C2859 0.929 . S
H2868 C2876 0.929 . S
H2869 C2878 0.930 . S
H2870 C2880 0.930 . S
H2871 C2883 0.929 . S
H2872 C2886 0.930 . S
H2873 C2888 0.960 . S
H2874 C2888 0.960 . S
H2875 C2888 0.960 . S
C2876 H2868 0.929 . S
C2876 C2877 1.377 . S
C2876 C2878 1.384 . S
C2877 C2876 1.377 . S
C2877 C2883 1.390 . S
C2878 H2869 0.930 . S
C2878 C2876 1.384 . S
C2878 C2879 1.372 . S
C2879 C2878 1.372 . S
C2879 C2880 1.400 . S
C2879 C2884 1.490 . S
C2880 H2870 0.930 . S
C2880 C2879 1.400 . S
C2880 C2883 1.386 . S
H2881 C2897 0.930 . S
H2882 C2898 0.931 . S
C2883 H2871 0.929 . S
C2883 C2877 1.390 . S
C2883 C2880 1.386 . S
C2884 C2879 1.490 . S
C2884 C2886 1.395 . S
C2884 C2887 1.403 . S
H2885 C2891 0.930 . S
C2886 H2872 0.930 . S
C2886 C2884 1.395 . S
C2886 C2889 1.403 . S
C2887 C2884 1.403 . S
C2887 C2888 1.524 . S
C2887 C2891 1.400 . S
C2888 H2873 0.960 . S
C2888 H2874 0.960 . S
C2888 H2875 0.960 . S
C2888 C2887 1.524 . S
C2889 C2886 1.403 . S
C2889 C2890 1.392 . S
C2889 C2893 1.495 . S
C2890 C2889 1.392 . S
C2890 C2891 1.385 . S
C2890 C2892 1.478 . S
C2891 H2885 0.930 . S
C2891 C2887 1.400 . S
C2891 C2890 1.385 . S
C2892 C2890 1.478 . S
C2892 C2894 1.381 . S
C2892 C2898 1.383 . S
C2893 C2889 1.495 . S
C2893 H2899 0.959 . S
C2893 H2900 0.961 . S
C2893 H2901 0.960 . S
C2894 C2892 1.381 . S
C2894 C2895 1.394 . S
C2894 H2902 0.930 . S
C2895 C2894 1.394 . S
C2895 C2896 1.383 . S
C2895 H2903 0.929 . S
C2896 C2895 1.383 . S
C2896 C2897 1.377 . S
C2897 H2881 0.930 . S
C2897 C2896 1.377 . S
C2897 C2898 1.379 . S
C2898 H2882 0.931 . S
C2898 C2892 1.383 . S
C2898 C2897 1.379 . S
H2899 C2893 0.959 . S
H2900 C2893 0.961 . S
H2901 C2893 0.960 . S
H2902 C2894 0.930 . S
H2903 C2895 0.929 . S
H2904 C2912 0.929 . S
H2905 C2914 0.930 . S
H2906 C2916 0.930 . S
H2907 C2919 0.929 . S
H2908 C2922 0.930 . S
H2909 C2924 0.960 . S
H2910 C2924 0.960 . S
H2911 C2924 0.960 . S
C2912 H2904 0.929 . S
C2912 C2913 1.377 . S
C2912 C2914 1.384 . S
C2913 C2912 1.377 . S
C2913 C2919 1.390 . S
C2914 H2905 0.930 . S
C2914 C2912 1.384 . S
C2914 C2915 1.372 . S
C2915 C2914 1.372 . S
C2915 C2916 1.400 . S
C2915 C2920 1.490 . S
C2916 H2906 0.930 . S
C2916 C2915 1.400 . S
C2916 C2919 1.386 . S
H2917 C2933 0.930 . S
H2918 C2934 0.931 . S
C2919 H2907 0.929 . S
C2919 C2913 1.390 . S
C2919 C2916 1.386 . S
C2920 C2915 1.490 . S
C2920 C2922 1.395 . S
C2920 C2923 1.403 . S
H2921 C2927 0.930 . S
C2922 H2908 0.930 . S
C2922 C2920 1.395 . S
C2922 C2925 1.403 . S
C2923 C2920 1.403 . S
C2923 C2924 1.524 . S
C2923 C2927 1.400 . S
C2924 H2909 0.960 . S
C2924 H2910 0.960 . S
C2924 H2911 0.960 . S
C2924 C2923 1.524 . S
C2925 C2922 1.403 . S
C2925 C2926 1.392 . S
C2925 C2929 1.495 . S
C2926 C2925 1.392 . S
C2926 C2927 1.385 . S
C2926 C2928 1.478 . S
C2927 H2921 0.930 . S
C2927 C2923 1.400 . S
C2927 C2926 1.385 . S
C2928 C2926 1.478 . S
C2928 C2930 1.381 . S
C2928 C2934 1.383 . S
C2929 C2925 1.495 . S
C2929 H2935 0.959 . S
C2929 H2936 0.961 . S
C2929 H2937 0.960 . S
C2930 C2928 1.381 . S
C2930 C2931 1.394 . S
C2930 H2938 0.930 . S
C2931 C2930 1.394 . S
C2931 C2932 1.383 . S
C2931 H2939 0.929 . S
C2932 C2931 1.383 . S
C2932 C2933 1.377 . S
C2933 H2917 0.930 . S
C2933 C2932 1.377 . S
C2933 C2934 1.379 . S
C2934 H2918 0.931 . S
C2934 C2928 1.383 . S
C2934 C2933 1.379 . S
H2935 C2929 0.959 . S
H2936 C2929 0.961 . S
H2937 C2929 0.960 . S
H2938 C2930 0.930 . S
H2939 C2931 0.929 . S
H2940 C2948 0.929 . S
H2941 C2950 0.930 . S
H2942 C2952 0.930 . S
H2943 C2955 0.929 . S
H2944 C2958 0.930 . S
H2945 C2960 0.960 . S
H2946 C2960 0.960 . S
H2947 C2960 0.960 . S
C2948 H2940 0.929 . S
C2948 C2949 1.377 . S
C2948 C2950 1.384 . S
C2949 C2948 1.377 . S
C2949 C2955 1.390 . S
C2950 H2941 0.930 . S
C2950 C2948 1.384 . S
C2950 C2951 1.372 . S
C2951 C2950 1.372 . S
C2951 C2952 1.400 . S
C2951 C2956 1.490 . S
C2952 H2942 0.930 . S
C2952 C2951 1.400 . S
C2952 C2955 1.386 . S
H2953 C2969 0.930 . S
H2954 C2970 0.931 . S
C2955 H2943 0.929 . S
C2955 C2949 1.390 . S
C2955 C2952 1.386 . S
C2956 C2951 1.490 . S
C2956 C2958 1.395 . S
C2956 C2959 1.403 . S
H2957 C2963 0.930 . S
C2958 H2944 0.930 . S
C2958 C2956 1.395 . S
C2958 C2961 1.403 . S
C2959 C2956 1.403 . S
C2959 C2960 1.524 . S
C2959 C2963 1.400 . S
C2960 H2945 0.960 . S
C2960 H2946 0.960 . S
C2960 H2947 0.960 . S
C2960 C2959 1.524 . S
C2961 C2958 1.403 . S
C2961 C2962 1.392 . S
C2961 C2965 1.495 . S
C2962 C2961 1.392 . S
C2962 C2963 1.385 . S
C2962 C2964 1.478 . S
C2963 H2957 0.930 . S
C2963 C2959 1.400 . S
C2963 C2962 1.385 . S
C2964 C2962 1.478 . S
C2964 C2966 1.381 . S
C2964 C2970 1.383 . S
C2965 C2961 1.495 . S
C2965 H2971 0.959 . S
C2965 H2972 0.961 . S
C2965 H2973 0.960 . S
C2966 C2964 1.381 . S
C2966 C2967 1.394 . S
C2966 H2974 0.930 . S
C2967 C2966 1.394 . S
C2967 C2968 1.383 . S
C2967 H2975 0.929 . S
C2968 C2967 1.383 . S
C2968 C2969 1.377 . S
C2969 H2953 0.930 . S
C2969 C2968 1.377 . S
C2969 C2970 1.379 . S
C2970 H2954 0.931 . S
C2970 C2964 1.383 . S
C2970 C2969 1.379 . S
H2971 C2965 0.959 . S
H2972 C2965 0.961 . S
H2973 C2965 0.960 . S
H2974 C2966 0.930 . S
H2975 C2967 0.929 . S
H2976 C2984 0.929 . S
H2977 C2986 0.930 . S
H2978 C2988 0.930 . S
H2979 C2991 0.929 . S
H2980 C2994 0.930 . S
H2981 C2996 0.960 . S
H2982 C2996 0.960 . S
H2983 C2996 0.960 . S
C2984 H2976 0.929 . S
C2984 C2985 1.377 . S
C2984 C2986 1.384 . S
C2985 C2984 1.377 . S
C2985 C2991 1.390 . S
C2986 H2977 0.930 . S
C2986 C2984 1.384 . S
C2986 C2987 1.372 . S
C2987 C2986 1.372 . S
C2987 C2988 1.400 . S
C2987 C2992 1.490 . S
C2988 H2978 0.930 . S
C2988 C2987 1.400 . S
C2988 C2991 1.386 . S
H2989 C3005 0.930 . S
H2990 C3006 0.931 . S
C2991 H2979 0.929 . S
C2991 C2985 1.390 . S
C2991 C2988 1.386 . S
C2992 C2987 1.490 . S
C2992 C2994 1.395 . S
C2992 C2995 1.403 . S
H2993 C2999 0.930 . S
C2994 H2980 0.930 . S
C2994 C2992 1.395 . S
C2994 C2997 1.403 . S
C2995 C2992 1.403 . S
C2995 C2996 1.524 . S
C2995 C2999 1.400 . S
C2996 H2981 0.960 . S
C2996 H2982 0.960 . S
C2996 H2983 0.960 . S
C2996 C2995 1.524 . S
C2997 C2994 1.403 . S
C2997 C2998 1.392 . S
C2997 C3001 1.495 . S
C2998 C2997 1.392 . S
C2998 C2999 1.385 . S
C2998 C3000 1.478 . S
C2999 H2993 0.930 . S
C2999 C2995 1.400 . S
C2999 C2998 1.385 . S
C3000 C2998 1.478 . S
C3000 C3002 1.381 . S
C3000 C3006 1.383 . S
C3001 C2997 1.495 . S
C3001 H3007 0.959 . S
C3001 H3008 0.961 . S
C3001 H3009 0.960 . S
C3002 C3000 1.381 . S
C3002 C3003 1.394 . S
C3002 H3010 0.930 . S
C3003 C3002 1.394 . S
C3003 C3004 1.383 . S
C3003 H3011 0.929 . S
C3004 C3003 1.383 . S
C3004 C3005 1.377 . S
C3005 H2989 0.930 . S
C3005 C3004 1.377 . S
C3005 C3006 1.379 . S
C3006 H2990 0.931 . S
C3006 C3000 1.383 . S
C3006 C3005 1.379 . S
H3007 C3001 0.959 . S
H3008 C3001 0.961 . S
H3009 C3001 0.960 . S
H3010 C3002 0.930 . S
H3011 C3003 0.929 . S
H3012 C3020 0.929 . S
H3013 C3022 0.930 . S
H3014 C3024 0.930 . S
H3015 C3027 0.929 . S
H3016 C3030 0.930 . S
H3017 C3032 0.960 . S
H3018 C3032 0.960 . S
H3019 C3032 0.960 . S
C3020 H3012 0.929 . S
C3020 C3021 1.377 . S
C3020 C3022 1.384 . S
C3021 C3020 1.377 . S
C3021 C3027 1.390 . S
C3022 H3013 0.930 . S
C3022 C3020 1.384 . S
C3022 C3023 1.372 . S
C3023 C3022 1.372 . S
C3023 C3024 1.400 . S
C3023 C3028 1.490 . S
C3024 H3014 0.930 . S
C3024 C3023 1.400 . S
C3024 C3027 1.386 . S
H3025 C3041 0.930 . S
H3026 C3042 0.931 . S
C3027 H3015 0.929 . S
C3027 C3021 1.390 . S
C3027 C3024 1.386 . S
C3028 C3023 1.490 . S
C3028 C3030 1.395 . S
C3028 C3031 1.403 . S
H3029 C3035 0.930 . S
C3030 H3016 0.930 . S
C3030 C3028 1.395 . S
C3030 C3033 1.403 . S
C3031 C3028 1.403 . S
C3031 C3032 1.524 . S
C3031 C3035 1.400 . S
C3032 H3017 0.960 . S
C3032 H3018 0.960 . S
C3032 H3019 0.960 . S
C3032 C3031 1.524 . S
C3033 C3030 1.403 . S
C3033 C3034 1.392 . S
C3033 C3037 1.495 . S
C3034 C3033 1.392 . S
C3034 C3035 1.385 . S
C3034 C3036 1.478 . S
C3035 H3029 0.930 . S
C3035 C3031 1.400 . S
C3035 C3034 1.385 . S
C3036 C3034 1.478 . S
C3036 C3038 1.381 . S
C3036 C3042 1.383 . S
C3037 C3033 1.495 . S
C3037 H3043 0.959 . S
C3037 H3044 0.961 . S
C3037 H3045 0.960 . S
C3038 C3036 1.381 . S
C3038 C3039 1.394 . S
C3038 H3046 0.930 . S
C3039 C3038 1.394 . S
C3039 C3040 1.383 . S
C3039 H3047 0.929 . S
C3040 C3039 1.383 . S
C3040 C3041 1.377 . S
C3041 H3025 0.930 . S
C3041 C3040 1.377 . S
C3041 C3042 1.379 . S
C3042 H3026 0.931 . S
C3042 C3036 1.383 . S
C3042 C3041 1.379 . S
H3043 C3037 0.959 . S
H3044 C3037 0.961 . S
H3045 C3037 0.960 . S
H3046 C3038 0.930 . S
H3047 C3039 0.929 . S
H3048 C3056 0.929 . S
H3049 C3058 0.930 . S
H3050 C3060 0.930 . S
H3051 C3063 0.929 . S
H3052 C3066 0.930 . S
H3053 C3068 0.960 . S
H3054 C3068 0.960 . S
H3055 C3068 0.960 . S
C3056 H3048 0.929 . S
C3056 C3057 1.377 . S
C3056 C3058 1.384 . S
C3057 C3056 1.377 . S
C3057 C3063 1.390 . S
C3058 H3049 0.930 . S
C3058 C3056 1.384 . S
C3058 C3059 1.372 . S
C3059 C3058 1.372 . S
C3059 C3060 1.400 . S
C3059 C3064 1.490 . S
C3060 H3050 0.930 . S
C3060 C3059 1.400 . S
C3060 C3063 1.386 . S
H3061 C3077 0.930 . S
H3062 C3078 0.931 . S
C3063 H3051 0.929 . S
C3063 C3057 1.390 . S
C3063 C3060 1.386 . S
C3064 C3059 1.490 . S
C3064 C3066 1.395 . S
C3064 C3067 1.403 . S
H3065 C3071 0.930 . S
C3066 H3052 0.930 . S
C3066 C3064 1.395 . S
C3066 C3069 1.403 . S
C3067 C3064 1.403 . S
C3067 C3068 1.524 . S
C3067 C3071 1.400 . S
C3068 H3053 0.960 . S
C3068 H3054 0.960 . S
C3068 H3055 0.960 . S
C3068 C3067 1.524 . S
C3069 C3066 1.403 . S
C3069 C3070 1.392 . S
C3069 C3073 1.495 . S
C3070 C3069 1.392 . S
C3070 C3071 1.385 . S
C3070 C3072 1.478 . S
C3071 H3065 0.930 . S
C3071 C3067 1.400 . S
C3071 C3070 1.385 . S
C3072 C3070 1.478 . S
C3072 C3074 1.381 . S
C3072 C3078 1.383 . S
C3073 C3069 1.495 . S
C3073 H3079 0.959 . S
C3073 H3080 0.961 . S
C3073 H3081 0.960 . S
C3074 C3072 1.381 . S
C3074 C3075 1.394 . S
C3074 H3082 0.930 . S
C3075 C3074 1.394 . S
C3075 C3076 1.383 . S
C3075 H3083 0.929 . S
C3076 C3075 1.383 . S
C3076 C3077 1.377 . S
C3077 H3061 0.930 . S
C3077 C3076 1.377 . S
C3077 C3078 1.379 . S
C3078 H3062 0.931 . S
C3078 C3072 1.383 . S
C3078 C3077 1.379 . S
H3079 C3073 0.959 . S
H3080 C3073 0.961 . S
H3081 C3073 0.960 . S
H3082 C3074 0.930 . S
H3083 C3075 0.929 . S
H3084 C3092 0.929 . S
H3085 C3094 0.930 . S
H3086 C3096 0.930 . S
H3087 C3099 0.929 . S
H3088 C3102 0.930 . S
H3089 C3104 0.960 . S
H3090 C3104 0.960 . S
H3091 C3104 0.960 . S
C3092 H3084 0.929 . S
C3092 C3093 1.377 . S
C3092 C3094 1.384 . S
C3093 C3092 1.377 . S
C3093 C3099 1.390 . S
C3094 H3085 0.930 . S
C3094 C3092 1.384 . S
C3094 C3095 1.372 . S
C3095 C3094 1.372 . S
C3095 C3096 1.400 . S
C3095 C3100 1.490 . S
C3096 H3086 0.930 . S
C3096 C3095 1.400 . S
C3096 C3099 1.386 . S
H3097 C3113 0.930 . S
H3098 C3114 0.931 . S
C3099 H3087 0.929 . S
C3099 C3093 1.390 . S
C3099 C3096 1.386 . S
C3100 C3095 1.490 . S
C3100 C3102 1.395 . S
C3100 C3103 1.403 . S
H3101 C3107 0.930 . S
C3102 H3088 0.930 . S
C3102 C3100 1.395 . S
C3102 C3105 1.403 . S
C3103 C3100 1.403 . S
C3103 C3104 1.524 . S
C3103 C3107 1.400 . S
C3104 H3089 0.960 . S
C3104 H3090 0.960 . S
C3104 H3091 0.960 . S
C3104 C3103 1.524 . S
C3105 C3102 1.403 . S
C3105 C3106 1.392 . S
C3105 C3109 1.495 . S
C3106 C3105 1.392 . S
C3106 C3107 1.385 . S
C3106 C3108 1.478 . S
C3107 H3101 0.930 . S
C3107 C3103 1.400 . S
C3107 C3106 1.385 . S
C3108 C3106 1.478 . S
C3108 C3110 1.381 . S
C3108 C3114 1.383 . S
C3109 C3105 1.495 . S
C3109 H3115 0.959 . S
C3109 H3116 0.961 . S
C3109 H3117 0.960 . S
C3110 C3108 1.381 . S
C3110 C3111 1.394 . S
C3110 H3118 0.930 . S
C3111 C3110 1.394 . S
C3111 C3112 1.383 . S
C3111 H3119 0.929 . S
C3112 C3111 1.383 . S
C3112 C3113 1.377 . S
C3113 H3097 0.930 . S
C3113 C3112 1.377 . S
C3113 C3114 1.379 . S
C3114 H3098 0.931 . S
C3114 C3108 1.383 . S
C3114 C3113 1.379 . S
H3115 C3109 0.959 . S
H3116 C3109 0.961 . S
H3117 C3109 0.960 . S
H3118 C3110 0.930 . S
H3119 C3111 0.929 . S
H3120 C3128 0.929 . S
H3121 C3130 0.930 . S
H3122 C3132 0.930 . S
H3123 C3135 0.929 . S
H3124 C3138 0.930 . S
H3125 C3140 0.960 . S
H3126 C3140 0.960 . S
H3127 C3140 0.960 . S
C3128 H3120 0.929 . S
C3128 C3129 1.377 . S
C3128 C3130 1.384 . S
C3129 C3128 1.377 . S
C3129 C3135 1.390 . S
C3130 H3121 0.930 . S
C3130 C3128 1.384 . S
C3130 C3131 1.372 . S
C3131 C3130 1.372 . S
C3131 C3132 1.400 . S
C3131 C3136 1.490 . S
C3132 H3122 0.930 . S
C3132 C3131 1.400 . S
C3132 C3135 1.386 . S
H3133 C3149 0.930 . S
H3134 C3150 0.931 . S
C3135 H3123 0.929 . S
C3135 C3129 1.390 . S
C3135 C3132 1.386 . S
C3136 C3131 1.490 . S
C3136 C3138 1.395 . S
C3136 C3139 1.403 . S
H3137 C3143 0.930 . S
C3138 H3124 0.930 . S
C3138 C3136 1.395 . S
C3138 C3141 1.403 . S
C3139 C3136 1.403 . S
C3139 C3140 1.524 . S
C3139 C3143 1.400 . S
C3140 H3125 0.960 . S
C3140 H3126 0.960 . S
C3140 H3127 0.960 . S
C3140 C3139 1.524 . S
C3141 C3138 1.403 . S
C3141 C3142 1.392 . S
C3141 C3145 1.495 . S
C3142 C3141 1.392 . S
C3142 C3143 1.385 . S
C3142 C3144 1.478 . S
C3143 H3137 0.930 . S
C3143 C3139 1.400 . S
C3143 C3142 1.385 . S
C3144 C3142 1.478 . S
C3144 C3146 1.381 . S
C3144 C3150 1.383 . S
C3145 C3141 1.495 . S
C3145 H3151 0.959 . S
C3145 H3152 0.961 . S
C3145 H3153 0.960 . S
C3146 C3144 1.381 . S
C3146 C3147 1.394 . S
C3146 H3154 0.930 . S
C3147 C3146 1.394 . S
C3147 C3148 1.383 . S
C3147 H3155 0.929 . S
C3148 C3147 1.383 . S
C3148 C3149 1.377 . S
C3149 H3133 0.930 . S
C3149 C3148 1.377 . S
C3149 C3150 1.379 . S
C3150 H3134 0.931 . S
C3150 C3144 1.383 . S
C3150 C3149 1.379 . S
H3151 C3145 0.959 . S
H3152 C3145 0.961 . S
H3153 C3145 0.960 . S
H3154 C3146 0.930 . S
H3155 C3147 0.929 . S
H3156 C3164 0.929 . S
H3157 C3166 0.930 . S
H3158 C3168 0.930 . S
H3159 C3171 0.929 . S
H3160 C3174 0.930 . S
H3161 C3176 0.960 . S
H3162 C3176 0.960 . S
H3163 C3176 0.960 . S
C3164 H3156 0.929 . S
C3164 C3165 1.377 . S
C3164 C3166 1.384 . S
C3165 C3164 1.377 . S
C3165 C3171 1.390 . S
C3166 H3157 0.930 . S
C3166 C3164 1.384 . S
C3166 C3167 1.372 . S
C3167 C3166 1.372 . S
C3167 C3168 1.400 . S
C3167 C3172 1.490 . S
C3168 H3158 0.930 . S
C3168 C3167 1.400 . S
C3168 C3171 1.386 . S
H3169 C3185 0.930 . S
H3170 C3186 0.931 . S
C3171 H3159 0.929 . S
C3171 C3165 1.390 . S
C3171 C3168 1.386 . S
C3172 C3167 1.490 . S
C3172 C3174 1.395 . S
C3172 C3175 1.403 . S
H3173 C3179 0.930 . S
C3174 H3160 0.930 . S
C3174 C3172 1.395 . S
C3174 C3177 1.403 . S
C3175 C3172 1.403 . S
C3175 C3176 1.524 . S
C3175 C3179 1.400 . S
C3176 H3161 0.960 . S
C3176 H3162 0.960 . S
C3176 H3163 0.960 . S
C3176 C3175 1.524 . S
C3177 C3174 1.403 . S
C3177 C3178 1.392 . S
C3177 C3181 1.495 . S
C3178 C3177 1.392 . S
C3178 C3179 1.385 . S
C3178 C3180 1.478 . S
C3179 H3173 0.930 . S
C3179 C3175 1.400 . S
C3179 C3178 1.385 . S
C3180 C3178 1.478 . S
C3180 C3182 1.381 . S
C3180 C3186 1.383 . S
C3181 C3177 1.495 . S
C3181 H3187 0.959 . S
C3181 H3188 0.961 . S
C3181 H3189 0.960 . S
C3182 C3180 1.381 . S
C3182 C3183 1.394 . S
C3182 H3190 0.930 . S
C3183 C3182 1.394 . S
C3183 C3184 1.383 . S
C3183 H3191 0.929 . S
C3184 C3183 1.383 . S
C3184 C3185 1.377 . S
C3185 H3169 0.930 . S
C3185 C3184 1.377 . S
C3185 C3186 1.379 . S
C3186 H3170 0.931 . S
C3186 C3180 1.383 . S
C3186 C3185 1.379 . S
H3187 C3181 0.959 . S
H3188 C3181 0.961 . S
H3189 C3181 0.960 . S
H3190 C3182 0.930 . S
H3191 C3183 0.929 . S
H3192 C3200 0.929 . S
H3193 C3202 0.930 . S
H3194 C3204 0.930 . S
H3195 C3207 0.929 . S
H3196 C3210 0.930 . S
H3197 C3212 0.960 . S
H3198 C3212 0.960 . S
H3199 C3212 0.960 . S
C3200 H3192 0.929 . S
C3200 C3201 1.377 . S
C3200 C3202 1.384 . S
C3201 C3200 1.377 . S
C3201 C3207 1.390 . S
C3202 H3193 0.930 . S
C3202 C3200 1.384 . S
C3202 C3203 1.372 . S
C3203 C3202 1.372 . S
C3203 C3204 1.400 . S
C3203 C3208 1.490 . S
C3204 H3194 0.930 . S
C3204 C3203 1.400 . S
C3204 C3207 1.386 . S
H3205 C3221 0.930 . S
H3206 C3222 0.931 . S
C3207 H3195 0.929 . S
C3207 C3201 1.390 . S
C3207 C3204 1.386 . S
C3208 C3203 1.490 . S
C3208 C3210 1.395 . S
C3208 C3211 1.403 . S
H3209 C3215 0.930 . S
C3210 H3196 0.930 . S
C3210 C3208 1.395 . S
C3210 C3213 1.403 . S
C3211 C3208 1.403 . S
C3211 C3212 1.524 . S
C3211 C3215 1.400 . S
C3212 H3197 0.960 . S
C3212 H3198 0.960 . S
C3212 H3199 0.960 . S
C3212 C3211 1.524 . S
C3213 C3210 1.403 . S
C3213 C3214 1.392 . S
C3213 C3217 1.495 . S
C3214 C3213 1.392 . S
C3214 C3215 1.385 . S
C3214 C3216 1.478 . S
C3215 H3209 0.930 . S
C3215 C3211 1.400 . S
C3215 C3214 1.385 . S
C3216 C3214 1.478 . S
C3216 C3218 1.381 . S
C3216 C3222 1.383 . S
C3217 C3213 1.495 . S
C3217 H3223 0.959 . S
C3217 H3224 0.961 . S
C3217 H3225 0.960 . S
C3218 C3216 1.381 . S
C3218 C3219 1.394 . S
C3218 H3226 0.930 . S
C3219 C3218 1.394 . S
C3219 C3220 1.383 . S
C3219 H3227 0.929 . S
C3220 C3219 1.383 . S
C3220 C3221 1.377 . S
C3221 H3205 0.930 . S
C3221 C3220 1.377 . S
C3221 C3222 1.379 . S
C3222 H3206 0.931 . S
C3222 C3216 1.383 . S
C3222 C3221 1.379 . S
H3223 C3217 0.959 . S
H3224 C3217 0.961 . S
H3225 C3217 0.960 . S
H3226 C3218 0.930 . S
H3227 C3219 0.929 . S
H3228 C3236 0.929 . S
H3229 C3238 0.930 . S
H3230 C3240 0.930 . S
H3231 C3243 0.929 . S
H3232 C3246 0.930 . S
H3233 C3248 0.960 . S
H3234 C3248 0.960 . S
H3235 C3248 0.960 . S
C3236 H3228 0.929 . S
C3236 C3237 1.377 . S
C3236 C3238 1.384 . S
C3237 C3236 1.377 . S
C3237 C3243 1.390 . S
C3238 H3229 0.930 . S
C3238 C3236 1.384 . S
C3238 C3239 1.372 . S
C3239 C3238 1.372 . S
C3239 C3240 1.400 . S
C3239 C3244 1.490 . S
C3240 H3230 0.930 . S
C3240 C3239 1.400 . S
C3240 C3243 1.386 . S
H3241 C3257 0.930 . S
H3242 C3258 0.931 . S
C3243 H3231 0.929 . S
C3243 C3237 1.390 . S
C3243 C3240 1.386 . S
C3244 C3239 1.490 . S
C3244 C3246 1.395 . S
C3244 C3247 1.403 . S
H3245 C3251 0.930 . S
C3246 H3232 0.930 . S
C3246 C3244 1.395 . S
C3246 C3249 1.403 . S
C3247 C3244 1.403 . S
C3247 C3248 1.524 . S
C3247 C3251 1.400 . S
C3248 H3233 0.960 . S
C3248 H3234 0.960 . S
C3248 H3235 0.960 . S
C3248 C3247 1.524 . S
C3249 C3246 1.403 . S
C3249 C3250 1.392 . S
C3249 C3253 1.495 . S
C3250 C3249 1.392 . S
C3250 C3251 1.385 . S
C3250 C3252 1.478 . S
C3251 H3245 0.930 . S
C3251 C3247 1.400 . S
C3251 C3250 1.385 . S
C3252 C3250 1.478 . S
C3252 C3254 1.381 . S
C3252 C3258 1.383 . S
C3253 C3249 1.495 . S
C3253 H3259 0.959 . S
C3253 H3260 0.961 . S
C3253 H3261 0.960 . S
C3254 C3252 1.381 . S
C3254 C3255 1.394 . S
C3254 H3262 0.930 . S
C3255 C3254 1.394 . S
C3255 C3256 1.383 . S
C3255 H3263 0.929 . S
C3256 C3255 1.383 . S
C3256 C3257 1.377 . S
C3257 H3241 0.930 . S
C3257 C3256 1.377 . S
C3257 C3258 1.379 . S
C3258 H3242 0.931 . S
C3258 C3252 1.383 . S
C3258 C3257 1.379 . S
H3259 C3253 0.959 . S
H3260 C3253 0.961 . S
H3261 C3253 0.960 . S
H3262 C3254 0.930 . S
H3263 C3255 0.929 . S
H3264 C3272 0.929 . S
H3265 C3274 0.930 . S
H3266 C3276 0.930 . S
H3267 C3279 0.929 . S
H3268 C3282 0.930 . S
H3269 C3284 0.960 . S
H3270 C3284 0.960 . S
H3271 C3284 0.960 . S
C3272 H3264 0.929 . S
C3272 C3273 1.377 . S
C3272 C3274 1.384 . S
C3273 C3272 1.377 . S
C3273 C3279 1.390 . S
C3274 H3265 0.930 . S
C3274 C3272 1.384 . S
C3274 C3275 1.372 . S
C3275 C3274 1.372 . S
C3275 C3276 1.400 . S
C3275 C3280 1.490 . S
C3276 H3266 0.930 . S
C3276 C3275 1.400 . S
C3276 C3279 1.386 . S
H3277 C3293 0.930 . S
H3278 C3294 0.931 . S
C3279 H3267 0.929 . S
C3279 C3273 1.390 . S
C3279 C3276 1.386 . S
C3280 C3275 1.490 . S
C3280 C3282 1.395 . S
C3280 C3283 1.403 . S
H3281 C3287 0.930 . S
C3282 H3268 0.930 . S
C3282 C3280 1.395 . S
C3282 C3285 1.403 . S
C3283 C3280 1.403 . S
C3283 C3284 1.524 . S
C3283 C3287 1.400 . S
C3284 H3269 0.960 . S
C3284 H3270 0.960 . S
C3284 H3271 0.960 . S
C3284 C3283 1.524 . S
C3285 C3282 1.403 . S
C3285 C3286 1.392 . S
C3285 C3289 1.495 . S
C3286 C3285 1.392 . S
C3286 C3287 1.385 . S
C3286 C3288 1.478 . S
C3287 H3281 0.930 . S
C3287 C3283 1.400 . S
C3287 C3286 1.385 . S
C3288 C3286 1.478 . S
C3288 C3290 1.381 . S
C3288 C3294 1.383 . S
C3289 C3285 1.495 . S
C3289 H3295 0.959 . S
C3289 H3296 0.961 . S
C3289 H3297 0.960 . S
C3290 C3288 1.381 . S
C3290 C3291 1.394 . S
C3290 H3298 0.930 . S
C3291 C3290 1.394 . S
C3291 C3292 1.383 . S
C3291 H3299 0.929 . S
C3292 C3291 1.383 . S
C3292 C3293 1.377 . S
C3293 H3277 0.930 . S
C3293 C3292 1.377 . S
C3293 C3294 1.379 . S
C3294 H3278 0.931 . S
C3294 C3288 1.383 . S
C3294 C3293 1.379 . S
H3295 C3289 0.959 . S
H3296 C3289 0.961 . S
H3297 C3289 0.960 . S
H3298 C3290 0.930 . S
H3299 C3291 0.929 . S
H3300 C3308 0.929 . S
H3301 C3310 0.930 . S
H3302 C3312 0.930 . S
H3303 C3315 0.929 . S
H3304 C3318 0.930 . S
H3305 C3320 0.960 . S
H3306 C3320 0.960 . S
H3307 C3320 0.960 . S
C3308 H3300 0.929 . S
C3308 C3309 1.377 . S
C3308 C3310 1.384 . S
C3309 C3308 1.377 . S
C3309 C3315 1.390 . S
C3310 H3301 0.930 . S
C3310 C3308 1.384 . S
C3310 C3311 1.372 . S
C3311 C3310 1.372 . S
C3311 C3312 1.400 . S
C3311 C3316 1.490 . S
C3312 H3302 0.930 . S
C3312 C3311 1.400 . S
C3312 C3315 1.386 . S
H3313 C3329 0.930 . S
H3314 C3330 0.931 . S
C3315 H3303 0.929 . S
C3315 C3309 1.390 . S
C3315 C3312 1.386 . S
C3316 C3311 1.490 . S
C3316 C3318 1.395 . S
C3316 C3319 1.403 . S
H3317 C3323 0.930 . S
C3318 H3304 0.930 . S
C3318 C3316 1.395 . S
C3318 C3321 1.403 . S
C3319 C3316 1.403 . S
C3319 C3320 1.524 . S
C3319 C3323 1.400 . S
C3320 H3305 0.960 . S
C3320 H3306 0.960 . S
C3320 H3307 0.960 . S
C3320 C3319 1.524 . S
C3321 C3318 1.403 . S
C3321 C3322 1.392 . S
C3321 C3325 1.495 . S
C3322 C3321 1.392 . S
C3322 C3323 1.385 . S
C3322 C3324 1.478 . S
C3323 H3317 0.930 . S
C3323 C3319 1.400 . S
C3323 C3322 1.385 . S
C3324 C3322 1.478 . S
C3324 C3326 1.381 . S
C3324 C3330 1.383 . S
C3325 C3321 1.495 . S
C3325 H3331 0.959 . S
C3325 H3332 0.961 . S
C3325 H3333 0.960 . S
C3326 C3324 1.381 . S
C3326 C3327 1.394 . S
C3326 H3334 0.930 . S
C3327 C3326 1.394 . S
C3327 C3328 1.383 . S
C3327 H3335 0.929 . S
C3328 C3327 1.383 . S
C3328 C3329 1.377 . S
C3329 H3313 0.930 . S
C3329 C3328 1.377 . S
C3329 C3330 1.379 . S
C3330 H3314 0.931 . S
C3330 C3324 1.383 . S
C3330 C3329 1.379 . S
H3331 C3325 0.959 . S
H3332 C3325 0.961 . S
H3333 C3325 0.960 . S
H3334 C3326 0.930 . S
H3335 C3327 0.929 . S
H3336 C3344 0.929 . S
H3337 C3346 0.930 . S
H3338 C3348 0.930 . S
H3339 C3351 0.929 . S
H3340 C3354 0.930 . S
H3341 C3356 0.960 . S
H3342 C3356 0.960 . S
H3343 C3356 0.960 . S
C3344 H3336 0.929 . S
C3344 C3345 1.377 . S
C3344 C3346 1.384 . S
C3345 C3344 1.377 . S
C3345 C3351 1.390 . S
C3346 H3337 0.930 . S
C3346 C3344 1.384 . S
C3346 C3347 1.372 . S
C3347 C3346 1.372 . S
C3347 C3348 1.400 . S
C3347 C3352 1.490 . S
C3348 H3338 0.930 . S
C3348 C3347 1.400 . S
C3348 C3351 1.386 . S
H3349 C3365 0.930 . S
H3350 C3366 0.931 . S
C3351 H3339 0.929 . S
C3351 C3345 1.390 . S
C3351 C3348 1.386 . S
C3352 C3347 1.490 . S
C3352 C3354 1.395 . S
C3352 C3355 1.403 . S
H3353 C3359 0.930 . S
C3354 H3340 0.930 . S
C3354 C3352 1.395 . S
C3354 C3357 1.403 . S
C3355 C3352 1.403 . S
C3355 C3356 1.524 . S
C3355 C3359 1.400 . S
C3356 H3341 0.960 . S
C3356 H3342 0.960 . S
C3356 H3343 0.960 . S
C3356 C3355 1.524 . S
C3357 C3354 1.403 . S
C3357 C3358 1.392 . S
C3357 C3361 1.495 . S
C3358 C3357 1.392 . S
C3358 C3359 1.385 . S
C3358 C3360 1.478 . S
C3359 H3353 0.930 . S
C3359 C3355 1.400 . S
C3359 C3358 1.385 . S
C3360 C3358 1.478 . S
C3360 C3362 1.381 . S
C3360 C3366 1.383 . S
C3361 C3357 1.495 . S
C3361 H3367 0.959 . S
C3361 H3368 0.961 . S
C3361 H3369 0.960 . S
C3362 C3360 1.381 . S
C3362 C3363 1.394 . S
C3362 H3370 0.930 . S
C3363 C3362 1.394 . S
C3363 C3364 1.383 . S
C3363 H3371 0.929 . S
C3364 C3363 1.383 . S
C3364 C3365 1.377 . S
C3365 H3349 0.930 . S
C3365 C3364 1.377 . S
C3365 C3366 1.379 . S
C3366 H3350 0.931 . S
C3366 C3360 1.383 . S
C3366 C3365 1.379 . S
H3367 C3361 0.959 . S
H3368 C3361 0.961 . S
H3369 C3361 0.960 . S
H3370 C3362 0.930 . S
H3371 C3363 0.929 . S
H3372 C3380 0.929 . S
H3373 C3382 0.930 . S
H3374 C3384 0.930 . S
H3375 C3387 0.929 . S
H3376 C3390 0.930 . S
H3377 C3392 0.960 . S
H3378 C3392 0.960 . S
H3379 C3392 0.960 . S
C3380 H3372 0.929 . S
C3380 C3381 1.377 . S
C3380 C3382 1.384 . S
C3381 C3380 1.377 . S
C3381 C3387 1.390 . S
C3382 H3373 0.930 . S
C3382 C3380 1.384 . S
C3382 C3383 1.372 . S
C3383 C3382 1.372 . S
C3383 C3384 1.400 . S
C3383 C3388 1.490 . S
C3384 H3374 0.930 . S
C3384 C3383 1.400 . S
C3384 C3387 1.386 . S
H3385 C3401 0.930 . S
H3386 C3402 0.931 . S
C3387 H3375 0.929 . S
C3387 C3381 1.390 . S
C3387 C3384 1.386 . S
C3388 C3383 1.490 . S
C3388 C3390 1.395 . S
C3388 C3391 1.403 . S
H3389 C3395 0.930 . S
C3390 H3376 0.930 . S
C3390 C3388 1.395 . S
C3390 C3393 1.403 . S
C3391 C3388 1.403 . S
C3391 C3392 1.524 . S
C3391 C3395 1.400 . S
C3392 H3377 0.960 . S
C3392 H3378 0.960 . S
C3392 H3379 0.960 . S
C3392 C3391 1.524 . S
C3393 C3390 1.403 . S
C3393 C3394 1.392 . S
C3393 C3397 1.495 . S
C3394 C3393 1.392 . S
C3394 C3395 1.385 . S
C3394 C3396 1.478 . S
C3395 H3389 0.930 . S
C3395 C3391 1.400 . S
C3395 C3394 1.385 . S
C3396 C3394 1.478 . S
C3396 C3398 1.381 . S
C3396 C3402 1.383 . S
C3397 C3393 1.495 . S
C3397 H3403 0.959 . S
C3397 H3404 0.961 . S
C3397 H3405 0.960 . S
C3398 C3396 1.381 . S
C3398 C3399 1.394 . S
C3398 H3406 0.930 . S
C3399 C3398 1.394 . S
C3399 C3400 1.383 . S
C3399 H3407 0.929 . S
C3400 C3399 1.383 . S
C3400 C3401 1.377 . S
C3401 H3385 0.930 . S
C3401 C3400 1.377 . S
C3401 C3402 1.379 . S
C3402 H3386 0.931 . S
C3402 C3396 1.383 . S
C3402 C3401 1.379 . S
H3403 C3397 0.959 . S
H3404 C3397 0.961 . S
H3405 C3397 0.960 . S
H3406 C3398 0.930 . S
H3407 C3399 0.929 . S
H3408 C3416 0.929 . S
H3409 C3418 0.930 . S
H3410 C3420 0.930 . S
H3411 C3423 0.929 . S
H3412 C3426 0.930 . S
H3413 C3428 0.960 . S
H3414 C3428 0.960 . S
H3415 C3428 0.960 . S
C3416 H3408 0.929 . S
C3416 C3417 1.377 . S
C3416 C3418 1.384 . S
C3417 C3416 1.377 . S
C3417 C3423 1.390 . S
C3418 H3409 0.930 . S
C3418 C3416 1.384 . S
C3418 C3419 1.372 . S
C3419 C3418 1.372 . S
C3419 C3420 1.400 . S
C3419 C3424 1.490 . S
C3420 H3410 0.930 . S
C3420 C3419 1.400 . S
C3420 C3423 1.386 . S
H3421 C3437 0.930 . S
H3422 C3438 0.931 . S
C3423 H3411 0.929 . S
C3423 C3417 1.390 . S
C3423 C3420 1.386 . S
C3424 C3419 1.490 . S
C3424 C3426 1.395 . S
C3424 C3427 1.403 . S
H3425 C3431 0.930 . S
C3426 H3412 0.930 . S
C3426 C3424 1.395 . S
C3426 C3429 1.403 . S
C3427 C3424 1.403 . S
C3427 C3428 1.524 . S
C3427 C3431 1.400 . S
C3428 H3413 0.960 . S
C3428 H3414 0.960 . S
C3428 H3415 0.960 . S
C3428 C3427 1.524 . S
C3429 C3426 1.403 . S
C3429 C3430 1.392 . S
C3429 C3433 1.495 . S
C3430 C3429 1.392 . S
C3430 C3431 1.385 . S
C3430 C3432 1.478 . S
C3431 H3425 0.930 . S
C3431 C3427 1.400 . S
C3431 C3430 1.385 . S
C3432 C3430 1.478 . S
C3432 C3434 1.381 . S
C3432 C3438 1.383 . S
C3433 C3429 1.495 . S
C3433 H3439 0.959 . S
C3433 H3440 0.961 . S
C3433 H3441 0.960 . S
C3434 C3432 1.381 . S
C3434 C3435 1.394 . S
C3434 H3442 0.930 . S
C3435 C3434 1.394 . S
C3435 C3436 1.383 . S
C3435 H3443 0.929 . S
C3436 C3435 1.383 . S
C3436 C3437 1.377 . S
C3437 H3421 0.930 . S
C3437 C3436 1.377 . S
C3437 C3438 1.379 . S
C3438 H3422 0.931 . S
C3438 C3432 1.383 . S
C3438 C3437 1.379 . S
H3439 C3433 0.959 . S
H3440 C3433 0.961 . S
H3441 C3433 0.960 . S
H3442 C3434 0.930 . S
H3443 C3435 0.929 . S
H3444 C3452 0.929 . S
H3445 C3454 0.930 . S
H3446 C3456 0.930 . S
H3447 C3459 0.929 . S
H3448 C3462 0.930 . S
H3449 C3464 0.960 . S
H3450 C3464 0.960 . S
H3451 C3464 0.960 . S
C3452 H3444 0.929 . S
C3452 C3453 1.377 . S
C3452 C3454 1.384 . S
C3453 C3452 1.377 . S
C3453 C3459 1.390 . S
C3454 H3445 0.930 . S
C3454 C3452 1.384 . S
C3454 C3455 1.372 . S
C3455 C3454 1.372 . S
C3455 C3456 1.400 . S
C3455 C3460 1.490 . S
C3456 H3446 0.930 . S
C3456 C3455 1.400 . S
C3456 C3459 1.386 . S
H3457 C3473 0.930 . S
H3458 C3474 0.931 . S
C3459 H3447 0.929 . S
C3459 C3453 1.390 . S
C3459 C3456 1.386 . S
C3460 C3455 1.490 . S
C3460 C3462 1.395 . S
C3460 C3463 1.403 . S
H3461 C3467 0.930 . S
C3462 H3448 0.930 . S
C3462 C3460 1.395 . S
C3462 C3465 1.403 . S
C3463 C3460 1.403 . S
C3463 C3464 1.524 . S
C3463 C3467 1.400 . S
C3464 H3449 0.960 . S
C3464 H3450 0.960 . S
C3464 H3451 0.960 . S
C3464 C3463 1.524 . S
C3465 C3462 1.403 . S
C3465 C3466 1.392 . S
C3465 C3469 1.495 . S
C3466 C3465 1.392 . S
C3466 C3467 1.385 . S
C3466 C3468 1.478 . S
C3467 H3461 0.930 . S
C3467 C3463 1.400 . S
C3467 C3466 1.385 . S
C3468 C3466 1.478 . S
C3468 C3470 1.381 . S
C3468 C3474 1.383 . S
C3469 C3465 1.495 . S
C3469 H3475 0.959 . S
C3469 H3476 0.961 . S
C3469 H3477 0.960 . S
C3470 C3468 1.381 . S
C3470 C3471 1.394 . S
C3470 H3478 0.930 . S
C3471 C3470 1.394 . S
C3471 C3472 1.383 . S
C3471 H3479 0.929 . S
C3472 C3471 1.383 . S
C3472 C3473 1.377 . S
C3473 H3457 0.930 . S
C3473 C3472 1.377 . S
C3473 C3474 1.379 . S
C3474 H3458 0.931 . S
C3474 C3468 1.383 . S
C3474 C3473 1.379 . S
H3475 C3469 0.959 . S
H3476 C3469 0.961 . S
H3477 C3469 0.960 . S
H3478 C3470 0.930 . S
H3479 C3471 0.929 . S
H3480 C3488 0.929 . S
H3481 C3490 0.930 . S
H3482 C3492 0.930 . S
H3483 C3495 0.929 . S
H3484 C3498 0.930 . S
H3485 C3500 0.960 . S
H3486 C3500 0.960 . S
H3487 C3500 0.960 . S
C3488 H3480 0.929 . S
C3488 C3489 1.377 . S
C3488 C3490 1.384 . S
C3489 C3488 1.377 . S
C3489 C3495 1.390 . S
C3490 H3481 0.930 . S
C3490 C3488 1.384 . S
C3490 C3491 1.372 . S
C3491 C3490 1.372 . S
C3491 C3492 1.400 . S
C3491 C3496 1.490 . S
C3492 H3482 0.930 . S
C3492 C3491 1.400 . S
C3492 C3495 1.386 . S
H3493 C3509 0.930 . S
H3494 C3510 0.931 . S
C3495 H3483 0.929 . S
C3495 C3489 1.390 . S
C3495 C3492 1.386 . S
C3496 C3491 1.490 . S
C3496 C3498 1.395 . S
C3496 C3499 1.403 . S
H3497 C3503 0.930 . S
C3498 H3484 0.930 . S
C3498 C3496 1.395 . S
C3498 C3501 1.403 . S
C3499 C3496 1.403 . S
C3499 C3500 1.524 . S
C3499 C3503 1.400 . S
C3500 H3485 0.960 . S
C3500 H3486 0.960 . S
C3500 H3487 0.960 . S
C3500 C3499 1.524 . S
C3501 C3498 1.403 . S
C3501 C3502 1.392 . S
C3501 C3505 1.495 . S
C3502 C3501 1.392 . S
C3502 C3503 1.385 . S
C3502 C3504 1.478 . S
C3503 H3497 0.930 . S
C3503 C3499 1.400 . S
C3503 C3502 1.385 . S
C3504 C3502 1.478 . S
C3504 C3506 1.381 . S
C3504 C3510 1.383 . S
C3505 C3501 1.495 . S
C3505 H3511 0.959 . S
C3505 H3512 0.961 . S
C3505 H3513 0.960 . S
C3506 C3504 1.381 . S
C3506 C3507 1.394 . S
C3506 H3514 0.930 . S
C3507 C3506 1.394 . S
C3507 C3508 1.383 . S
C3507 H3515 0.929 . S
C3508 C3507 1.383 . S
C3508 C3509 1.377 . S
C3509 H3493 0.930 . S
C3509 C3508 1.377 . S
C3509 C3510 1.379 . S
C3510 H3494 0.931 . S
C3510 C3504 1.383 . S
C3510 C3509 1.379 . S
H3511 C3505 0.959 . S
H3512 C3505 0.961 . S
H3513 C3505 0.960 . S
H3514 C3506 0.930 . S
H3515 C3507 0.929 . S
H3516 C3524 0.929 . S
H3517 C3526 0.930 . S
H3518 C3528 0.930 . S
H3519 C3531 0.929 . S
H3520 C3534 0.930 . S
H3521 C3536 0.960 . S
H3522 C3536 0.960 . S
H3523 C3536 0.960 . S
C3524 H3516 0.929 . S
C3524 C3525 1.377 . S
C3524 C3526 1.384 . S
C3525 C3524 1.377 . S
C3525 C3531 1.390 . S
C3526 H3517 0.930 . S
C3526 C3524 1.384 . S
C3526 C3527 1.372 . S
C3527 C3526 1.372 . S
C3527 C3528 1.400 . S
C3527 C3532 1.490 . S
C3528 H3518 0.930 . S
C3528 C3527 1.400 . S
C3528 C3531 1.386 . S
H3529 C3545 0.930 . S
H3530 C3546 0.931 . S
C3531 H3519 0.929 . S
C3531 C3525 1.390 . S
C3531 C3528 1.386 . S
C3532 C3527 1.490 . S
C3532 C3534 1.395 . S
C3532 C3535 1.403 . S
H3533 C3539 0.930 . S
C3534 H3520 0.930 . S
C3534 C3532 1.395 . S
C3534 C3537 1.403 . S
C3535 C3532 1.403 . S
C3535 C3536 1.524 . S
C3535 C3539 1.400 . S
C3536 H3521 0.960 . S
C3536 H3522 0.960 . S
C3536 H3523 0.960 . S
C3536 C3535 1.524 . S
C3537 C3534 1.403 . S
C3537 C3538 1.392 . S
C3537 C3541 1.495 . S
C3538 C3537 1.392 . S
C3538 C3539 1.385 . S
C3538 C3540 1.478 . S
C3539 H3533 0.930 . S
C3539 C3535 1.400 . S
C3539 C3538 1.385 . S
C3540 C3538 1.478 . S
C3540 C3542 1.381 . S
C3540 C3546 1.383 . S
C3541 C3537 1.495 . S
C3541 H3547 0.959 . S
C3541 H3548 0.961 . S
C3541 H3549 0.960 . S
C3542 C3540 1.381 . S
C3542 C3543 1.394 . S
C3542 H3550 0.930 . S
C3543 C3542 1.394 . S
C3543 C3544 1.383 . S
C3543 H3551 0.929 . S
C3544 C3543 1.383 . S
C3544 C3545 1.377 . S
C3545 H3529 0.930 . S
C3545 C3544 1.377 . S
C3545 C3546 1.379 . S
C3546 H3530 0.931 . S
C3546 C3540 1.383 . S
C3546 C3545 1.379 . S
H3547 C3541 0.959 . S
H3548 C3541 0.961 . S
H3549 C3541 0.960 . S
H3550 C3542 0.930 . S
H3551 C3543 0.929 . S
H3552 C3560 0.929 . S
H3553 C3562 0.930 . S
H3554 C3564 0.930 . S
H3555 C3567 0.929 . S
H3556 C3570 0.930 . S
H3557 C3572 0.960 . S
H3558 C3572 0.960 . S
H3559 C3572 0.960 . S
C3560 H3552 0.929 . S
C3560 C3561 1.377 . S
C3560 C3562 1.384 . S
C3561 C3560 1.377 . S
C3561 C3567 1.390 . S
C3562 H3553 0.930 . S
C3562 C3560 1.384 . S
C3562 C3563 1.372 . S
C3563 C3562 1.372 . S
C3563 C3564 1.400 . S
C3563 C3568 1.490 . S
C3564 H3554 0.930 . S
C3564 C3563 1.400 . S
C3564 C3567 1.386 . S
H3565 C3581 0.930 . S
H3566 C3582 0.931 . S
C3567 H3555 0.929 . S
C3567 C3561 1.390 . S
C3567 C3564 1.386 . S
C3568 C3563 1.490 . S
C3568 C3570 1.395 . S
C3568 C3571 1.403 . S
H3569 C3575 0.930 . S
C3570 H3556 0.930 . S
C3570 C3568 1.395 . S
C3570 C3573 1.403 . S
C3571 C3568 1.403 . S
C3571 C3572 1.524 . S
C3571 C3575 1.400 . S
C3572 H3557 0.960 . S
C3572 H3558 0.960 . S
C3572 H3559 0.960 . S
C3572 C3571 1.524 . S
C3573 C3570 1.403 . S
C3573 C3574 1.392 . S
C3573 C3577 1.495 . S
C3574 C3573 1.392 . S
C3574 C3575 1.385 . S
C3574 C3576 1.478 . S
C3575 H3569 0.930 . S
C3575 C3571 1.400 . S
C3575 C3574 1.385 . S
C3576 C3574 1.478 . S
C3576 C3578 1.381 . S
C3576 C3582 1.383 . S
C3577 C3573 1.495 . S
C3577 H3583 0.959 . S
C3577 H3584 0.961 . S
C3577 H3585 0.960 . S
C3578 C3576 1.381 . S
C3578 C3579 1.394 . S
C3578 H3586 0.930 . S
C3579 C3578 1.394 . S
C3579 C3580 1.383 . S
C3579 H3587 0.929 . S
C3580 C3579 1.383 . S
C3580 C3581 1.377 . S
C3581 H3565 0.930 . S
C3581 C3580 1.377 . S
C3581 C3582 1.379 . S
C3582 H3566 0.931 . S
C3582 C3576 1.383 . S
C3582 C3581 1.379 . S
H3583 C3577 0.959 . S
H3584 C3577 0.961 . S
H3585 C3577 0.960 . S
H3586 C3578 0.930 . S
H3587 C3579 0.929 . S
H3588 C3596 0.929 . S
H3589 C3598 0.930 . S
H3590 C3600 0.930 . S
H3591 C3603 0.929 . S
H3592 C3606 0.930 . S
H3593 C3608 0.960 . S
H3594 C3608 0.960 . S
H3595 C3608 0.960 . S
C3596 H3588 0.929 . S
C3596 C3597 1.377 . S
C3596 C3598 1.384 . S
C3597 C3596 1.377 . S
C3597 C3603 1.390 . S
C3598 H3589 0.930 . S
C3598 C3596 1.384 . S
C3598 C3599 1.372 . S
C3599 C3598 1.372 . S
C3599 C3600 1.400 . S
C3599 C3604 1.490 . S
C3600 H3590 0.930 . S
C3600 C3599 1.400 . S
C3600 C3603 1.386 . S
H3601 C3617 0.930 . S
H3602 C3618 0.931 . S
C3603 H3591 0.929 . S
C3603 C3597 1.390 . S
C3603 C3600 1.386 . S
C3604 C3599 1.490 . S
C3604 C3606 1.395 . S
C3604 C3607 1.403 . S
H3605 C3611 0.930 . S
C3606 H3592 0.930 . S
C3606 C3604 1.395 . S
C3606 C3609 1.403 . S
C3607 C3604 1.403 . S
C3607 C3608 1.524 . S
C3607 C3611 1.400 . S
C3608 H3593 0.960 . S
C3608 H3594 0.960 . S
C3608 H3595 0.960 . S
C3608 C3607 1.524 . S
C3609 C3606 1.403 . S
C3609 C3610 1.392 . S
C3609 C3613 1.495 . S
C3610 C3609 1.392 . S
C3610 C3611 1.385 . S
C3610 C3612 1.478 . S
C3611 H3605 0.930 . S
C3611 C3607 1.400 . S
C3611 C3610 1.385 . S
C3612 C3610 1.478 . S
C3612 C3614 1.381 . S
C3612 C3618 1.383 . S
C3613 C3609 1.495 . S
C3613 H3619 0.959 . S
C3613 H3620 0.961 . S
C3613 H3621 0.960 . S
C3614 C3612 1.381 . S
C3614 C3615 1.394 . S
C3614 H3622 0.930 . S
C3615 C3614 1.394 . S
C3615 C3616 1.383 . S
C3615 H3623 0.929 . S
C3616 C3615 1.383 . S
C3616 C3617 1.377 . S
C3617 H3601 0.930 . S
C3617 C3616 1.377 . S
C3617 C3618 1.379 . S
C3618 H3602 0.931 . S
C3618 C3612 1.383 . S
C3618 C3617 1.379 . S
H3619 C3613 0.959 . S
H3620 C3613 0.961 . S
H3621 C3613 0.960 . S
H3622 C3614 0.930 . S
H3623 C3615 0.929 . S
H3624 C3632 0.929 . S
H3625 C3634 0.930 . S
H3626 C3636 0.930 . S
H3627 C3639 0.929 . S
H3628 C3642 0.930 . S
H3629 C3644 0.960 . S
H3630 C3644 0.960 . S
H3631 C3644 0.960 . S
C3632 H3624 0.929 . S
C3632 C3633 1.377 . S
C3632 C3634 1.384 . S
C3633 C3632 1.377 . S
C3633 C3639 1.390 . S
C3634 H3625 0.930 . S
C3634 C3632 1.384 . S
C3634 C3635 1.372 . S
C3635 C3634 1.372 . S
C3635 C3636 1.400 . S
C3635 C3640 1.490 . S
C3636 H3626 0.930 . S
C3636 C3635 1.400 . S
C3636 C3639 1.386 . S
H3637 C3653 0.930 . S
H3638 C3654 0.931 . S
C3639 H3627 0.929 . S
C3639 C3633 1.390 . S
C3639 C3636 1.386 . S
C3640 C3635 1.490 . S
C3640 C3642 1.395 . S
C3640 C3643 1.403 . S
H3641 C3647 0.930 . S
C3642 H3628 0.930 . S
C3642 C3640 1.395 . S
C3642 C3645 1.403 . S
C3643 C3640 1.403 . S
C3643 C3644 1.524 . S
C3643 C3647 1.400 . S
C3644 H3629 0.960 . S
C3644 H3630 0.960 . S
C3644 H3631 0.960 . S
C3644 C3643 1.524 . S
C3645 C3642 1.403 . S
C3645 C3646 1.392 . S
C3645 C3649 1.495 . S
C3646 C3645 1.392 . S
C3646 C3647 1.385 . S
C3646 C3648 1.478 . S
C3647 H3641 0.930 . S
C3647 C3643 1.400 . S
C3647 C3646 1.385 . S
C3648 C3646 1.478 . S
C3648 C3650 1.381 . S
C3648 C3654 1.383 . S
C3649 C3645 1.495 . S
C3649 H3655 0.959 . S
C3649 H3656 0.961 . S
C3649 H3657 0.960 . S
C3650 C3648 1.381 . S
C3650 C3651 1.394 . S
C3650 H3658 0.930 . S
C3651 C3650 1.394 . S
C3651 C3652 1.383 . S
C3651 H3659 0.929 . S
C3652 C3651 1.383 . S
C3652 C3653 1.377 . S
C3653 H3637 0.930 . S
C3653 C3652 1.377 . S
C3653 C3654 1.379 . S
C3654 H3638 0.931 . S
C3654 C3648 1.383 . S
C3654 C3653 1.379 . S
H3655 C3649 0.959 . S
H3656 C3649 0.961 . S
H3657 C3649 0.960 . S
H3658 C3650 0.930 . S
H3659 C3651 0.929 . S
H3660 C3668 0.929 . S
H3661 C3670 0.930 . S
H3662 C3672 0.930 . S
H3663 C3675 0.929 . S
H3664 C3678 0.930 . S
H3665 C3680 0.960 . S
H3666 C3680 0.960 . S
H3667 C3680 0.960 . S
C3668 H3660 0.929 . S
C3668 C3669 1.377 . S
C3668 C3670 1.384 . S
C3669 C3668 1.377 . S
C3669 C3675 1.390 . S
C3670 H3661 0.930 . S
C3670 C3668 1.384 . S
C3670 C3671 1.372 . S
C3671 C3670 1.372 . S
C3671 C3672 1.400 . S
C3671 C3676 1.490 . S
C3672 H3662 0.930 . S
C3672 C3671 1.400 . S
C3672 C3675 1.386 . S
H3673 C3689 0.930 . S
H3674 C3690 0.931 . S
C3675 H3663 0.929 . S
C3675 C3669 1.390 . S
C3675 C3672 1.386 . S
C3676 C3671 1.490 . S
C3676 C3678 1.395 . S
C3676 C3679 1.403 . S
H3677 C3683 0.930 . S
C3678 H3664 0.930 . S
C3678 C3676 1.395 . S
C3678 C3681 1.403 . S
C3679 C3676 1.403 . S
C3679 C3680 1.524 . S
C3679 C3683 1.400 . S
C3680 H3665 0.960 . S
C3680 H3666 0.960 . S
C3680 H3667 0.960 . S
C3680 C3679 1.524 . S
C3681 C3678 1.403 . S
C3681 C3682 1.392 . S
C3681 C3685 1.495 . S
C3682 C3681 1.392 . S
C3682 C3683 1.385 . S
C3682 C3684 1.478 . S
C3683 H3677 0.930 . S
C3683 C3679 1.400 . S
C3683 C3682 1.385 . S
C3684 C3682 1.478 . S
C3684 C3686 1.381 . S
C3684 C3690 1.383 . S
C3685 C3681 1.495 . S
C3685 H3691 0.959 . S
C3685 H3692 0.961 . S
C3685 H3693 0.960 . S
C3686 C3684 1.381 . S
C3686 C3687 1.394 . S
C3686 H3694 0.930 . S
C3687 C3686 1.394 . S
C3687 C3688 1.383 . S
C3687 H3695 0.929 . S
C3688 C3687 1.383 . S
C3688 C3689 1.377 . S
C3689 H3673 0.930 . S
C3689 C3688 1.377 . S
C3689 C3690 1.379 . S
C3690 H3674 0.931 . S
C3690 C3684 1.383 . S
C3690 C3689 1.379 . S
H3691 C3685 0.959 . S
H3692 C3685 0.961 . S
H3693 C3685 0.960 . S
H3694 C3686 0.930 . S
H3695 C3687 0.929 . S
H3696 C3704 0.929 . S
H3697 C3706 0.930 . S
H3698 C3708 0.930 . S
H3699 C3711 0.929 . S
H3700 C3714 0.930 . S
H3701 C3716 0.960 . S
H3702 C3716 0.960 . S
H3703 C3716 0.960 . S
C3704 H3696 0.929 . S
C3704 C3705 1.377 . S
C3704 C3706 1.384 . S
C3705 C3704 1.377 . S
C3705 C3711 1.390 . S
C3706 H3697 0.930 . S
C3706 C3704 1.384 . S
C3706 C3707 1.372 . S
C3707 C3706 1.372 . S
C3707 C3708 1.400 . S
C3707 C3712 1.490 . S
C3708 H3698 0.930 . S
C3708 C3707 1.400 . S
C3708 C3711 1.386 . S
H3709 C3725 0.930 . S
H3710 C3726 0.931 . S
C3711 H3699 0.929 . S
C3711 C3705 1.390 . S
C3711 C3708 1.386 . S
C3712 C3707 1.490 . S
C3712 C3714 1.395 . S
C3712 C3715 1.403 . S
H3713 C3719 0.930 . S
C3714 H3700 0.930 . S
C3714 C3712 1.395 . S
C3714 C3717 1.403 . S
C3715 C3712 1.403 . S
C3715 C3716 1.524 . S
C3715 C3719 1.400 . S
C3716 H3701 0.960 . S
C3716 H3702 0.960 . S
C3716 H3703 0.960 . S
C3716 C3715 1.524 . S
C3717 C3714 1.403 . S
C3717 C3718 1.392 . S
C3717 C3721 1.495 . S
C3718 C3717 1.392 . S
C3718 C3719 1.385 . S
C3718 C3720 1.478 . S
C3719 H3713 0.930 . S
C3719 C3715 1.400 . S
C3719 C3718 1.385 . S
C3720 C3718 1.478 . S
C3720 C3722 1.381 . S
C3720 C3726 1.383 . S
C3721 C3717 1.495 . S
C3721 H3727 0.959 . S
C3721 H3728 0.961 . S
C3721 H3729 0.960 . S
C3722 C3720 1.381 . S
C3722 C3723 1.394 . S
C3722 H3730 0.930 . S
C3723 C3722 1.394 . S
C3723 C3724 1.383 . S
C3723 H3731 0.929 . S
C3724 C3723 1.383 . S
C3724 C3725 1.377 . S
C3725 H3709 0.930 . S
C3725 C3724 1.377 . S
C3725 C3726 1.379 . S
C3726 H3710 0.931 . S
C3726 C3720 1.383 . S
C3726 C3725 1.379 . S
H3727 C3721 0.959 . S
H3728 C3721 0.961 . S
H3729 C3721 0.960 . S
H3730 C3722 0.930 . S
H3731 C3723 0.929 . S
H3732 C3740 0.929 . S
H3733 C3742 0.930 . S
H3734 C3744 0.930 . S
H3735 C3747 0.929 . S
H3736 C3750 0.930 . S
H3737 C3752 0.960 . S
H3738 C3752 0.960 . S
H3739 C3752 0.960 . S
C3740 H3732 0.929 . S
C3740 C3741 1.377 . S
C3740 C3742 1.384 . S
C3741 C3740 1.377 . S
C3741 C3747 1.390 . S
C3742 H3733 0.930 . S
C3742 C3740 1.384 . S
C3742 C3743 1.372 . S
C3743 C3742 1.372 . S
C3743 C3744 1.400 . S
C3743 C3748 1.490 . S
C3744 H3734 0.930 . S
C3744 C3743 1.400 . S
C3744 C3747 1.386 . S
H3745 C3761 0.930 . S
H3746 C3762 0.931 . S
C3747 H3735 0.929 . S
C3747 C3741 1.390 . S
C3747 C3744 1.386 . S
C3748 C3743 1.490 . S
C3748 C3750 1.395 . S
C3748 C3751 1.403 . S
H3749 C3755 0.930 . S
C3750 H3736 0.930 . S
C3750 C3748 1.395 . S
C3750 C3753 1.403 . S
C3751 C3748 1.403 . S
C3751 C3752 1.524 . S
C3751 C3755 1.400 . S
C3752 H3737 0.960 . S
C3752 H3738 0.960 . S
C3752 H3739 0.960 . S
C3752 C3751 1.524 . S
C3753 C3750 1.403 . S
C3753 C3754 1.392 . S
C3753 C3757 1.495 . S
C3754 C3753 1.392 . S
C3754 C3755 1.385 . S
C3754 C3756 1.478 . S
C3755 H3749 0.930 . S
C3755 C3751 1.400 . S
C3755 C3754 1.385 . S
C3756 C3754 1.478 . S
C3756 C3758 1.381 . S
C3756 C3762 1.383 . S
C3757 C3753 1.495 . S
C3757 H3763 0.959 . S
C3757 H3764 0.961 . S
C3757 H3765 0.960 . S
C3758 C3756 1.381 . S
C3758 C3759 1.394 . S
C3758 H3766 0.930 . S
C3759 C3758 1.394 . S
C3759 C3760 1.383 . S
C3759 H3767 0.929 . S
C3760 C3759 1.383 . S
C3760 C3761 1.377 . S
C3761 H3745 0.930 . S
C3761 C3760 1.377 . S
C3761 C3762 1.379 . S
C3762 H3746 0.931 . S
C3762 C3756 1.383 . S
C3762 C3761 1.379 . S
H3763 C3757 0.959 . S
H3764 C3757 0.961 . S
H3765 C3757 0.960 . S
H3766 C3758 0.930 . S
H3767 C3759 0.929 . S
H3768 C3776 0.929 . S
H3769 C3778 0.930 . S
H3770 C3780 0.930 . S
H3771 C3783 0.929 . S
H3772 C3786 0.930 . S
H3773 C3788 0.960 . S
H3774 C3788 0.960 . S
H3775 C3788 0.960 . S
C3776 H3768 0.929 . S
C3776 C3777 1.377 . S
C3776 C3778 1.384 . S
C3777 C3776 1.377 . S
C3777 C3783 1.390 . S
C3778 H3769 0.930 . S
C3778 C3776 1.384 . S
C3778 C3779 1.372 . S
C3779 C3778 1.372 . S
C3779 C3780 1.400 . S
C3779 C3784 1.490 . S
C3780 H3770 0.930 . S
C3780 C3779 1.400 . S
C3780 C3783 1.386 . S
H3781 C3797 0.930 . S
H3782 C3798 0.931 . S
C3783 H3771 0.929 . S
C3783 C3777 1.390 . S
C3783 C3780 1.386 . S
C3784 C3779 1.490 . S
C3784 C3786 1.395 . S
C3784 C3787 1.403 . S
H3785 C3791 0.930 . S
C3786 H3772 0.930 . S
C3786 C3784 1.395 . S
C3786 C3789 1.403 . S
C3787 C3784 1.403 . S
C3787 C3788 1.524 . S
C3787 C3791 1.400 . S
C3788 H3773 0.960 . S
C3788 H3774 0.960 . S
C3788 H3775 0.960 . S
C3788 C3787 1.524 . S
C3789 C3786 1.403 . S
C3789 C3790 1.392 . S
C3789 C3793 1.495 . S
C3790 C3789 1.392 . S
C3790 C3791 1.385 . S
C3790 C3792 1.478 . S
C3791 H3785 0.930 . S
C3791 C3787 1.400 . S
C3791 C3790 1.385 . S
C3792 C3790 1.478 . S
C3792 C3794 1.381 . S
C3792 C3798 1.383 . S
C3793 C3789 1.495 . S
C3793 H3799 0.959 . S
C3793 H3800 0.961 . S
C3793 H3801 0.960 . S
C3794 C3792 1.381 . S
C3794 C3795 1.394 . S
C3794 H3802 0.930 . S
C3795 C3794 1.394 . S
C3795 C3796 1.383 . S
C3795 H3803 0.929 . S
C3796 C3795 1.383 . S
C3796 C3797 1.377 . S
C3797 H3781 0.930 . S
C3797 C3796 1.377 . S
C3797 C3798 1.379 . S
C3798 H3782 0.931 . S
C3798 C3792 1.383 . S
C3798 C3797 1.379 . S
H3799 C3793 0.959 . S
H3800 C3793 0.961 . S
H3801 C3793 0.960 . S
H3802 C3794 0.930 . S
H3803 C3795 0.929 . S
H3804 C3812 0.929 . S
H3805 C3814 0.930 . S
H3806 C3816 0.930 . S
H3807 C3819 0.929 . S
H3808 C3822 0.930 . S
H3809 C3824 0.960 . S
H3810 C3824 0.960 . S
H3811 C3824 0.960 . S
C3812 H3804 0.929 . S
C3812 C3813 1.377 . S
C3812 C3814 1.384 . S
C3813 C3812 1.377 . S
C3813 C3819 1.390 . S
C3814 H3805 0.930 . S
C3814 C3812 1.384 . S
C3814 C3815 1.372 . S
C3815 C3814 1.372 . S
C3815 C3816 1.400 . S
C3815 C3820 1.490 . S
C3816 H3806 0.930 . S
C3816 C3815 1.400 . S
C3816 C3819 1.386 . S
H3817 C3833 0.930 . S
H3818 C3834 0.931 . S
C3819 H3807 0.929 . S
C3819 C3813 1.390 . S
C3819 C3816 1.386 . S
C3820 C3815 1.490 . S
C3820 C3822 1.395 . S
C3820 C3823 1.403 . S
H3821 C3827 0.930 . S
C3822 H3808 0.930 . S
C3822 C3820 1.395 . S
C3822 C3825 1.403 . S
C3823 C3820 1.403 . S
C3823 C3824 1.524 . S
C3823 C3827 1.400 . S
C3824 H3809 0.960 . S
C3824 H3810 0.960 . S
C3824 H3811 0.960 . S
C3824 C3823 1.524 . S
C3825 C3822 1.403 . S
C3825 C3826 1.392 . S
C3825 C3829 1.495 . S
C3826 C3825 1.392 . S
C3826 C3827 1.385 . S
C3826 C3828 1.478 . S
C3827 H3821 0.930 . S
C3827 C3823 1.400 . S
C3827 C3826 1.385 . S
C3828 C3826 1.478 . S
C3828 C3830 1.381 . S
C3828 C3834 1.383 . S
C3829 C3825 1.495 . S
C3829 H3835 0.959 . S
C3829 H3836 0.961 . S
C3829 H3837 0.960 . S
C3830 C3828 1.381 . S
C3830 C3831 1.394 . S
C3830 H3838 0.930 . S
C3831 C3830 1.394 . S
C3831 C3832 1.383 . S
C3831 H3839 0.929 . S
C3832 C3831 1.383 . S
C3832 C3833 1.377 . S
C3833 H3817 0.930 . S
C3833 C3832 1.377 . S
C3833 C3834 1.379 . S
C3834 H3818 0.931 . S
C3834 C3828 1.383 . S
C3834 C3833 1.379 . S
H3835 C3829 0.959 . S
H3836 C3829 0.961 . S
H3837 C3829 0.960 . S
H3838 C3830 0.930 . S
H3839 C3831 0.929 . S
H3840 C3848 0.929 . S
H3841 C3850 0.930 . S
H3842 C3852 0.930 . S
H3843 C3855 0.929 . S
H3844 C3858 0.930 . S
H3845 C3860 0.960 . S
H3846 C3860 0.960 . S
H3847 C3860 0.960 . S
C3848 H3840 0.929 . S
C3848 C3849 1.377 . S
C3848 C3850 1.384 . S
C3849 C3848 1.377 . S
C3849 C3855 1.390 . S
C3850 H3841 0.930 . S
C3850 C3848 1.384 . S
C3850 C3851 1.372 . S
C3851 C3850 1.372 . S
C3851 C3852 1.400 . S
C3851 C3856 1.490 . S
C3852 H3842 0.930 . S
C3852 C3851 1.400 . S
C3852 C3855 1.386 . S
H3853 C3869 0.930 . S
H3854 C3870 0.931 . S
C3855 H3843 0.929 . S
C3855 C3849 1.390 . S
C3855 C3852 1.386 . S
C3856 C3851 1.490 . S
C3856 C3858 1.395 . S
C3856 C3859 1.403 . S
H3857 C3863 0.930 . S
C3858 H3844 0.930 . S
C3858 C3856 1.395 . S
C3858 C3861 1.403 . S
C3859 C3856 1.403 . S
C3859 C3860 1.524 . S
C3859 C3863 1.400 . S
C3860 H3845 0.960 . S
C3860 H3846 0.960 . S
C3860 H3847 0.960 . S
C3860 C3859 1.524 . S
C3861 C3858 1.403 . S
C3861 C3862 1.392 . S
C3861 C3865 1.495 . S
C3862 C3861 1.392 . S
C3862 C3863 1.385 . S
C3862 C3864 1.478 . S
C3863 H3857 0.930 . S
C3863 C3859 1.400 . S
C3863 C3862 1.385 . S
C3864 C3862 1.478 . S
C3864 C3866 1.381 . S
C3864 C3870 1.383 . S
C3865 C3861 1.495 . S
C3865 H3871 0.959 . S
C3865 H3872 0.961 . S
C3865 H3873 0.960 . S
C3866 C3864 1.381 . S
C3866 C3867 1.394 . S
C3866 H3874 0.930 . S
C3867 C3866 1.394 . S
C3867 C3868 1.383 . S
C3867 H3875 0.929 . S
C3868 C3867 1.383 . S
C3868 C3869 1.377 . S
C3869 H3853 0.930 . S
C3869 C3868 1.377 . S
C3869 C3870 1.379 . S
C3870 H3854 0.931 . S
C3870 C3864 1.383 . S
C3870 C3869 1.379 . S
H3871 C3865 0.959 . S
H3872 C3865 0.961 . S
H3873 C3865 0.960 . S
H3874 C3866 0.930 . S
H3875 C3867 0.929 . S
H3876 C3884 0.929 . S
H3877 C3886 0.930 . S
H3878 C3888 0.930 . S
H3879 C3891 0.929 . S
H3880 C3894 0.930 . S
H3881 C3896 0.960 . S
H3882 C3896 0.960 . S
H3883 C3896 0.960 . S
C3884 H3876 0.929 . S
C3884 C3885 1.377 . S
C3884 C3886 1.384 . S
C3885 C3884 1.377 . S
C3885 C3891 1.390 . S
C3886 H3877 0.930 . S
C3886 C3884 1.384 . S
C3886 C3887 1.372 . S
C3887 C3886 1.372 . S
C3887 C3888 1.400 . S
C3887 C3892 1.490 . S
C3888 H3878 0.930 . S
C3888 C3887 1.400 . S
C3888 C3891 1.386 . S
H3889 C3905 0.930 . S
H3890 C3906 0.931 . S
C3891 H3879 0.929 . S
C3891 C3885 1.390 . S
C3891 C3888 1.386 . S
C3892 C3887 1.490 . S
C3892 C3894 1.395 . S
C3892 C3895 1.403 . S
H3893 C3899 0.930 . S
C3894 H3880 0.930 . S
C3894 C3892 1.395 . S
C3894 C3897 1.403 . S
C3895 C3892 1.403 . S
C3895 C3896 1.524 . S
C3895 C3899 1.400 . S
C3896 H3881 0.960 . S
C3896 H3882 0.960 . S
C3896 H3883 0.960 . S
C3896 C3895 1.524 . S
C3897 C3894 1.403 . S
C3897 C3898 1.392 . S
C3897 C3901 1.495 . S
C3898 C3897 1.392 . S
C3898 C3899 1.385 . S
C3898 C3900 1.478 . S
C3899 H3893 0.930 . S
C3899 C3895 1.400 . S
C3899 C3898 1.385 . S
C3900 C3898 1.478 . S
C3900 C3902 1.381 . S
C3900 C3906 1.383 . S
C3901 C3897 1.495 . S
C3901 H3907 0.959 . S
C3901 H3908 0.961 . S
C3901 H3909 0.960 . S
C3902 C3900 1.381 . S
C3902 C3903 1.394 . S
C3902 H3910 0.930 . S
C3903 C3902 1.394 . S
C3903 C3904 1.383 . S
C3903 H3911 0.929 . S
C3904 C3903 1.383 . S
C3904 C3905 1.377 . S
C3905 H3889 0.930 . S
C3905 C3904 1.377 . S
C3905 C3906 1.379 . S
C3906 H3890 0.931 . S
C3906 C3900 1.383 . S
C3906 C3905 1.379 . S
H3907 C3901 0.959 . S
H3908 C3901 0.961 . S
H3909 C3901 0.960 . S
H3910 C3902 0.930 . S
H3911 C3903 0.929 . S
H3912 C3920 0.929 . S
H3913 C3922 0.930 . S
H3914 C3924 0.930 . S
H3915 C3927 0.929 . S
H3916 C3930 0.930 . S
H3917 C3932 0.960 . S
H3918 C3932 0.960 . S
H3919 C3932 0.960 . S
C3920 H3912 0.929 . S
C3920 C3921 1.377 . S
C3920 C3922 1.384 . S
C3921 C3920 1.377 . S
C3921 C3927 1.390 . S
C3922 H3913 0.930 . S
C3922 C3920 1.384 . S
C3922 C3923 1.372 . S
C3923 C3922 1.372 . S
C3923 C3924 1.400 . S
C3923 C3928 1.490 . S
C3924 H3914 0.930 . S
C3924 C3923 1.400 . S
C3924 C3927 1.386 . S
H3925 C3941 0.930 . S
H3926 C3942 0.931 . S
C3927 H3915 0.929 . S
C3927 C3921 1.390 . S
C3927 C3924 1.386 . S
C3928 C3923 1.490 . S
C3928 C3930 1.395 . S
C3928 C3931 1.403 . S
H3929 C3935 0.930 . S
C3930 H3916 0.930 . S
C3930 C3928 1.395 . S
C3930 C3933 1.403 . S
C3931 C3928 1.403 . S
C3931 C3932 1.524 . S
C3931 C3935 1.400 . S
C3932 H3917 0.960 . S
C3932 H3918 0.960 . S
C3932 H3919 0.960 . S
C3932 C3931 1.524 . S
C3933 C3930 1.403 . S
C3933 C3934 1.392 . S
C3933 C3937 1.495 . S
C3934 C3933 1.392 . S
C3934 C3935 1.385 . S
C3934 C3936 1.478 . S
C3935 H3929 0.930 . S
C3935 C3931 1.400 . S
C3935 C3934 1.385 . S
C3936 C3934 1.478 . S
C3936 C3938 1.381 . S
C3936 C3942 1.383 . S
C3937 C3933 1.495 . S
C3937 H3943 0.959 . S
C3937 H3944 0.961 . S
C3937 H3945 0.960 . S
C3938 C3936 1.381 . S
C3938 C3939 1.394 . S
C3938 H3946 0.930 . S
C3939 C3938 1.394 . S
C3939 C3940 1.383 . S
C3939 H3947 0.929 . S
C3940 C3939 1.383 . S
C3940 C3941 1.377 . S
C3941 H3925 0.930 . S
C3941 C3940 1.377 . S
C3941 C3942 1.379 . S
C3942 H3926 0.931 . S
C3942 C3936 1.383 . S
C3942 C3941 1.379 . S
H3943 C3937 0.959 . S
H3944 C3937 0.961 . S
H3945 C3937 0.960 . S
H3946 C3938 0.930 . S
H3947 C3939 0.929 . S
H3948 C3956 0.929 . S
H3949 C3958 0.930 . S
H3950 C3960 0.930 . S
H3951 C3963 0.929 . S
H3952 C3966 0.930 . S
H3953 C3968 0.960 . S
H3954 C3968 0.960 . S
H3955 C3968 0.960 . S
C3956 H3948 0.929 . S
C3956 C3957 1.377 . S
C3956 C3958 1.384 . S
C3957 C3956 1.377 . S
C3957 C3963 1.390 . S
C3958 H3949 0.930 . S
C3958 C3956 1.384 . S
C3958 C3959 1.372 . S
C3959 C3958 1.372 . S
C3959 C3960 1.400 . S
C3959 C3964 1.490 . S
C3960 H3950 0.930 . S
C3960 C3959 1.400 . S
C3960 C3963 1.386 . S
H3961 C3977 0.930 . S
H3962 C3978 0.931 . S
C3963 H3951 0.929 . S
C3963 C3957 1.390 . S
C3963 C3960 1.386 . S
C3964 C3959 1.490 . S
C3964 C3966 1.395 . S
C3964 C3967 1.403 . S
H3965 C3971 0.930 . S
C3966 H3952 0.930 . S
C3966 C3964 1.395 . S
C3966 C3969 1.403 . S
C3967 C3964 1.403 . S
C3967 C3968 1.524 . S
C3967 C3971 1.400 . S
C3968 H3953 0.960 . S
C3968 H3954 0.960 . S
C3968 H3955 0.960 . S
C3968 C3967 1.524 . S
C3969 C3966 1.403 . S
C3969 C3970 1.392 . S
C3969 C3973 1.495 . S
C3970 C3969 1.392 . S
C3970 C3971 1.385 . S
C3970 C3972 1.478 . S
C3971 H3965 0.930 . S
C3971 C3967 1.400 . S
C3971 C3970 1.385 . S
C3972 C3970 1.478 . S
C3972 C3974 1.381 . S
C3972 C3978 1.383 . S
C3973 C3969 1.495 . S
C3973 H3979 0.959 . S
C3973 H3980 0.961 . S
C3973 H3981 0.960 . S
C3974 C3972 1.381 . S
C3974 C3975 1.394 . S
C3974 H3982 0.930 . S
C3975 C3974 1.394 . S
C3975 C3976 1.383 . S
C3975 H3983 0.929 . S
C3976 C3975 1.383 . S
C3976 C3977 1.377 . S
C3977 H3961 0.930 . S
C3977 C3976 1.377 . S
C3977 C3978 1.379 . S
C3978 H3962 0.931 . S
C3978 C3972 1.383 . S
C3978 C3977 1.379 . S
H3979 C3973 0.959 . S
H3980 C3973 0.961 . S
H3981 C3973 0.960 . S
H3982 C3974 0.930 . S
H3983 C3975 0.929 . S
H3984 C3992 0.929 . S
H3985 C3994 0.930 . S
H3986 C3996 0.930 . S
H3987 C3999 0.929 . S
H3988 C4002 0.930 . S
H3989 C4004 0.960 . S
H3990 C4004 0.960 . S
H3991 C4004 0.960 . S
C3992 H3984 0.929 . S
C3992 C3993 1.377 . S
C3992 C3994 1.384 . S
C3993 C3992 1.377 . S
C3993 C3999 1.390 . S
C3994 H3985 0.930 . S
C3994 C3992 1.384 . S
C3994 C3995 1.372 . S
C3995 C3994 1.372 . S
C3995 C3996 1.400 . S
C3995 C4000 1.490 . S
C3996 H3986 0.930 . S
C3996 C3995 1.400 . S
C3996 C3999 1.386 . S
H3997 C4013 0.930 . S
H3998 C4014 0.931 . S
C3999 H3987 0.929 . S
C3999 C3993 1.390 . S
C3999 C3996 1.386 . S
C4000 C3995 1.490 . S
C4000 C4002 1.395 . S
C4000 C4003 1.403 . S
H4001 C4007 0.930 . S
C4002 H3988 0.930 . S
C4002 C4000 1.395 . S
C4002 C4005 1.403 . S
C4003 C4000 1.403 . S
C4003 C4004 1.524 . S
C4003 C4007 1.400 . S
C4004 H3989 0.960 . S
C4004 H3990 0.960 . S
C4004 H3991 0.960 . S
C4004 C4003 1.524 . S
C4005 C4002 1.403 . S
C4005 C4006 1.392 . S
C4005 C4009 1.495 . S
C4006 C4005 1.392 . S
C4006 C4007 1.385 . S
C4006 C4008 1.478 . S
C4007 H4001 0.930 . S
C4007 C4003 1.400 . S
C4007 C4006 1.385 . S
C4008 C4006 1.478 . S
C4008 C4010 1.381 . S
C4008 C4014 1.383 . S
C4009 C4005 1.495 . S
C4009 H4015 0.959 . S
C4009 H4016 0.961 . S
C4009 H4017 0.960 . S
C4010 C4008 1.381 . S
C4010 C4011 1.394 . S
C4010 H4018 0.930 . S
C4011 C4010 1.394 . S
C4011 C4012 1.383 . S
C4011 H4019 0.929 . S
C4012 C4011 1.383 . S
C4012 C4013 1.377 . S
C4013 H3997 0.930 . S
C4013 C4012 1.377 . S
C4013 C4014 1.379 . S
C4014 H3998 0.931 . S
C4014 C4008 1.383 . S
C4014 C4013 1.379 . S
H4015 C4009 0.959 . S
H4016 C4009 0.961 . S
H4017 C4009 0.960 . S
H4018 C4010 0.930 . S
H4019 C4011 0.929 . S
H4020 C4028 0.929 . S
H4021 C4030 0.930 . S
H4022 C4032 0.930 . S
H4023 C4035 0.929 . S
H4024 C4038 0.930 . S
H4025 C4040 0.960 . S
H4026 C4040 0.960 . S
H4027 C4040 0.960 . S
C4028 H4020 0.929 . S
C4028 C4029 1.377 . S
C4028 C4030 1.384 . S
C4029 C4028 1.377 . S
C4029 C4035 1.390 . S
C4030 H4021 0.930 . S
C4030 C4028 1.384 . S
C4030 C4031 1.372 . S
C4031 C4030 1.372 . S
C4031 C4032 1.400 . S
C4031 C4036 1.490 . S
C4032 H4022 0.930 . S
C4032 C4031 1.400 . S
C4032 C4035 1.386 . S
H4033 C4049 0.930 . S
H4034 C4050 0.931 . S
C4035 H4023 0.929 . S
C4035 C4029 1.390 . S
C4035 C4032 1.386 . S
C4036 C4031 1.490 . S
C4036 C4038 1.395 . S
C4036 C4039 1.403 . S
H4037 C4043 0.930 . S
C4038 H4024 0.930 . S
C4038 C4036 1.395 . S
C4038 C4041 1.403 . S
C4039 C4036 1.403 . S
C4039 C4040 1.524 . S
C4039 C4043 1.400 . S
C4040 H4025 0.960 . S
C4040 H4026 0.960 . S
C4040 H4027 0.960 . S
C4040 C4039 1.524 . S
C4041 C4038 1.403 . S
C4041 C4042 1.392 . S
C4041 C4045 1.495 . S
C4042 C4041 1.392 . S
C4042 C4043 1.385 . S
C4042 C4044 1.478 . S
C4043 H4037 0.930 . S
C4043 C4039 1.400 . S
C4043 C4042 1.385 . S
C4044 C4042 1.478 . S
C4044 C4046 1.381 . S
C4044 C4050 1.383 . S
C4045 C4041 1.495 . S
C4045 H4051 0.959 . S
C4045 H4052 0.961 . S
C4045 H4053 0.960 . S
C4046 C4044 1.381 . S
C4046 C4047 1.394 . S
C4046 H4054 0.930 . S
C4047 C4046 1.394 . S
C4047 C4048 1.383 . S
C4047 H4055 0.929 . S
C4048 C4047 1.383 . S
C4048 C4049 1.377 . S
C4049 H4033 0.930 . S
C4049 C4048 1.377 . S
C4049 C4050 1.379 . S
C4050 H4034 0.931 . S
C4050 C4044 1.383 . S
C4050 C4049 1.379 . S
H4051 C4045 0.959 . S
H4052 C4045 0.961 . S
H4053 C4045 0.960 . S
H4054 C4046 0.930 . S
H4055 C4047 0.929 . S
H4056 C4064 0.929 . S
H4057 C4066 0.930 . S
H4058 C4068 0.930 . S
H4059 C4071 0.929 . S
H4060 C4074 0.930 . S
H4061 C4076 0.960 . S
H4062 C4076 0.960 . S
H4063 C4076 0.960 . S
C4064 H4056 0.929 . S
C4064 C4065 1.377 . S
C4064 C4066 1.384 . S
C4065 C4064 1.377 . S
C4065 C4071 1.390 . S
C4066 H4057 0.930 . S
C4066 C4064 1.384 . S
C4066 C4067 1.372 . S
C4067 C4066 1.372 . S
C4067 C4068 1.400 . S
C4067 C4072 1.490 . S
C4068 H4058 0.930 . S
C4068 C4067 1.400 . S
C4068 C4071 1.386 . S
H4069 C4085 0.930 . S
H4070 C4086 0.931 . S
C4071 H4059 0.929 . S
C4071 C4065 1.390 . S
C4071 C4068 1.386 . S
C4072 C4067 1.490 . S
C4072 C4074 1.395 . S
C4072 C4075 1.403 . S
H4073 C4079 0.930 . S
C4074 H4060 0.930 . S
C4074 C4072 1.395 . S
C4074 C4077 1.403 . S
C4075 C4072 1.403 . S
C4075 C4076 1.524 . S
C4075 C4079 1.400 . S
C4076 H4061 0.960 . S
C4076 H4062 0.960 . S
C4076 H4063 0.960 . S
C4076 C4075 1.524 . S
C4077 C4074 1.403 . S
C4077 C4078 1.392 . S
C4077 C4081 1.495 . S
C4078 C4077 1.392 . S
C4078 C4079 1.385 . S
C4078 C4080 1.478 . S
C4079 H4073 0.930 . S
C4079 C4075 1.400 . S
C4079 C4078 1.385 . S
C4080 C4078 1.478 . S
C4080 C4082 1.381 . S
C4080 C4086 1.383 . S
C4081 C4077 1.495 . S
C4081 H4087 0.959 . S
C4081 H4088 0.961 . S
C4081 H4089 0.960 . S
C4082 C4080 1.381 . S
C4082 C4083 1.394 . S
C4082 H4090 0.930 . S
C4083 C4082 1.394 . S
C4083 C4084 1.383 . S
C4083 H4091 0.929 . S
C4084 C4083 1.383 . S
C4084 C4085 1.377 . S
C4085 H4069 0.930 . S
C4085 C4084 1.377 . S
C4085 C4086 1.379 . S
C4086 H4070 0.931 . S
C4086 C4080 1.383 . S
C4086 C4085 1.379 . S
H4087 C4081 0.959 . S
H4088 C4081 0.961 . S
H4089 C4081 0.960 . S
H4090 C4082 0.930 . S
H4091 C4083 0.929 . S
H4092 C4100 0.929 . S
H4093 C4102 0.930 . S
H4094 C4104 0.930 . S
H4095 C4107 0.929 . S
H4096 C4110 0.930 . S
H4097 C4112 0.960 . S
H4098 C4112 0.960 . S
H4099 C4112 0.960 . S
C4100 H4092 0.929 . S
C4100 C4101 1.377 . S
C4100 C4102 1.384 . S
C4101 C4100 1.377 . S
C4101 C4107 1.390 . S
C4102 H4093 0.930 . S
C4102 C4100 1.384 . S
C4102 C4103 1.372 . S
C4103 C4102 1.372 . S
C4103 C4104 1.400 . S
C4103 C4108 1.490 . S
C4104 H4094 0.930 . S
C4104 C4103 1.400 . S
C4104 C4107 1.386 . S
H4105 C4121 0.930 . S
H4106 C4122 0.931 . S
C4107 H4095 0.929 . S
C4107 C4101 1.390 . S
C4107 C4104 1.386 . S
C4108 C4103 1.490 . S
C4108 C4110 1.395 . S
C4108 C4111 1.403 . S
H4109 C4115 0.930 . S
C4110 H4096 0.930 . S
C4110 C4108 1.395 . S
C4110 C4113 1.403 . S
C4111 C4108 1.403 . S
C4111 C4112 1.524 . S
C4111 C4115 1.400 . S
C4112 H4097 0.960 . S
C4112 H4098 0.960 . S
C4112 H4099 0.960 . S
C4112 C4111 1.524 . S
C4113 C4110 1.403 . S
C4113 C4114 1.392 . S
C4113 C4117 1.495 . S
C4114 C4113 1.392 . S
C4114 C4115 1.385 . S
C4114 C4116 1.478 . S
C4115 H4109 0.930 . S
C4115 C4111 1.400 . S
C4115 C4114 1.385 . S
C4116 C4114 1.478 . S
C4116 C4118 1.381 . S
C4116 C4122 1.383 . S
C4117 C4113 1.495 . S
C4117 H4123 0.959 . S
C4117 H4124 0.961 . S
C4117 H4125 0.960 . S
C4118 C4116 1.381 . S
C4118 C4119 1.394 . S
C4118 H4126 0.930 . S
C4119 C4118 1.394 . S
C4119 C4120 1.383 . S
C4119 H4127 0.929 . S
C4120 C4119 1.383 . S
C4120 C4121 1.377 . S
C4121 H4105 0.930 . S
C4121 C4120 1.377 . S
C4121 C4122 1.379 . S
C4122 H4106 0.931 . S
C4122 C4116 1.383 . S
C4122 C4121 1.379 . S
H4123 C4117 0.959 . S
H4124 C4117 0.961 . S
H4125 C4117 0.960 . S
H4126 C4118 0.930 . S
H4127 C4119 0.929 . S
C681 C442 1.342 . S
C700 C8 1.341 . S
C717 C22 1.342 . S
C736 C400 1.342 . S
C753 C36 1.343 . S
C772 C414 1.337 . S
C789 C428 1.342 . S
C808 C50 1.341 . S
C825 C358 1.342 . S
C844 C64 1.339 . S
C861 C78 1.342 . S
C880 C372 1.342 . S
C897 C386 1.343 . S
C916 C92 1.338 . S
C933 C106 1.342 . S
C952 C344 1.341 . S
C969 C120 1.342 . S
C988 C624 1.342 . S
C1005 C582 1.342 . S
C1024 C134 1.340 . S
C1041 C596 1.342 . S
C1060 C148 1.342 . S
C1077 C162 1.343 . S
C1096 C610 1.339 . S
C1113 C176 1.343 . S
C1132 C666 1.337 . S
C1149 C190 1.342 . S
C1168 C638 1.341 . S
C1185 C204 1.343 . S
C1204 C652 1.338 . S
C1221 C568 1.343 . S
C1240 C218 1.338 . S
C1257 C554 1.342 . S
C1276 C232 1.342 . S
C1293 C246 1.343 . S
C1312 C470 1.337 . S
C1329 C484 1.342 . S
C1348 C260 1.341 . S
C1365 C274 1.343 . S
C1384 C498 1.337 . S
C1401 C456 1.343 . S
C1420 C288 1.337 . S
C1437 C526 1.342 . S
C1456 C302 1.341 . S
C1473 C316 1.342 . S
C1492 C540 1.342 . S
C1509 C512 1.342 . S
C1528 C330 1.341 . S
C1545 C133 1.261 . S
C1564 C7 1.276 . S
C1581 C147 1.261 . S
C1600 C21 1.276 . S
C1617 C35 1.256 . S
C1636 C161 1.265 . S
C1653 C119 1.259 . S
C1672 C49 1.276 . S
C1689 C63 1.263 . S
C1708 C217 1.253 . S
C1725 C175 1.257 . S
C1744 C77 1.272 . S
C1761 C189 1.263 . S
C1780 C91 1.268 . S
C1797 C203 1.263 . S
C1816 C105 1.260 . S
C1833 C259 1.257 . S
C1852 C231 1.271 . S
C1869 C315 1.257 . S
C1888 C245 1.238 . S
C1905 C329 1.255 . S
C1924 C273 1.251 . S
C1941 C287 1.258 . S
C1960 C301 1.275 . S
C1977 C469 1.262 . S
C1996 C343 1.275 . S
C2013 C483 1.255 . S
C2032 C357 1.254 . S
C2049 C497 1.262 . S
C2068 C371 1.243 . S
C2085 C385 1.260 . S
C2104 C455 1.277 . S
C2121 C399 1.263 . S
C2140 C553 1.251 . S
C2157 C413 1.257 . S
C2176 C511 1.237 . S
C2193 C525 1.261 . S
C2212 C427 1.241 . S
C2229 C539 1.260 . S
C2248 C441 1.237 . S
C2265 C567 1.259 . S
C2284 C595 1.236 . S
C2301 C651 1.256 . S
C2320 C581 1.241 . S
C2337 C665 1.258 . S
C2356 C609 1.273 . S
C2373 C637 1.256 . S
C2392 C623 1.242 . S
C2409 C3 1.418 . S
C2428 C261 1.376 1_554 S
C2445 C17 1.416 . S
C2464 C275 1.410 1_554 S
C2481 C31 1.418 . S
C2500 C289 1.382 1_554 S
C2517 C247 1.392 1_554 S
C2536 C45 1.423 . S
C2553 C59 1.414 . S
C2572 C317 1.394 1_556 S
C2589 C73 1.415 . S
C2608 C233 1.411 1_556 S
C2625 C331 1.396 1_556 S
C2644 C87 1.411 . S
C2661 C303 1.394 1_556 S
C2680 C101 1.418 . S
C2697 C115 1.414 . S
C2716 C135 1.406 1_455 S
C2733 C129 1.414 . S
C2752 C149 1.405 1_545 S
C2769 C143 1.418 . S
C2788 C163 1.390 1_655 S
C2805 C121 1.387 1_565 S
C2824 C157 1.412 . S
C2841 C219 1.395 1_455 S
C2860 C171 1.416 . S
C2877 C177 1.395 1_545 S
C2896 C185 1.415 . S
C2913 C191 1.396 1_655 S
C2932 C199 1.410 . S
C2949 C213 1.418 . S
C2968 C205 1.373 1_565 S
C2985 C51 1.388 1_545 S
C3004 C227 1.409 . S
C3021 C79 1.390 1_565 S
C3040 C241 1.404 . S
C3057 C93 1.388 1_455 S
C3076 C255 1.409 . S
C3093 C269 1.418 . S
C3112 C107 1.370 1_545 S
C3129 C65 1.388 1_655 S
C3148 C283 1.408 . S
C3165 C23 1.388 1_565 S
C3184 C297 1.407 . S
C3201 C37 1.396 1_455 S
C3220 C311 1.408 . S
C3237 C9 1.395 1_655 S
C3256 C325 1.415 . S
C3273 C597 1.387 . S
C3292 C339 1.417 . S
C3309 C353 1.418 . S
C3328 C611 1.379 . S
C3345 C625 1.387 . S
C3364 C367 1.418 . S
C3381 C583 1.387 . S
C3400 C381 1.415 . S
C3417 C395 1.414 . S
C3436 C653 1.395 . S
C3453 C409 1.418 . S
C3472 C569 1.379 . S
C3489 C667 1.394 . S
C3508 C423 1.402 . S
C3525 C437 1.414 . S
C3544 C639 1.385 . S
C3561 C451 1.414 . S
C3580 C471 1.394 . S
C3597 C465 1.416 . S
C3616 C485 1.408 . S
C3633 C479 1.418 . S
C3652 C499 1.369 . S
C3669 C493 1.418 . S
C3688 C457 1.393 . S
C3705 C555 1.393 . S
C3724 C507 1.421 . S
C3741 C513 1.396 . S
C3760 C521 1.406 . S
C3777 C527 1.389 . S
C3796 C535 1.407 . S
C3813 C549 1.417 . S
C3832 C541 1.366 . S
C3849 C387 1.391 . S
C3868 C563 1.403 . S
C3885 C415 1.393 . S
C3904 C577 1.421 . S
C3921 C429 1.396 . S
C3940 C591 1.406 . S
C3957 C605 1.415 . S
C3976 C443 1.410 . S
C3993 C401 1.395 . S
C4012 C619 1.403 . S
C4029 C359 1.388 . S
C4048 C633 1.423 . S
C4065 C647 1.415 . S
C4084 C373 1.376 . S
C4101 C345 1.394 . S
C4120 C661 1.403 . S
