# Generated by pormake.
# Topology uoj, (4)-cn, num edge types: 1
# Building blocks:
#     Node 0, Type 0, BuildingBlock: KOZSID_clean_sbu_0, # of connection points: 4
#     Node 1, Type 0, BuildingBlock: KOZSID_clean_sbu_0, # of connection points: 4
#     Node 2, Type 0, BuildingBlock: KOZSID_clean_sbu_0, # of connection points: 4
#     Node 3, Type 0, BuildingBlock: KOZSID_clean_sbu_0, # of connection points: 4
#     Node 4, Type 0, BuildingBlock: KOZSID_clean_sbu_0, # of connection points: 4
#     Node 5, Type 0, BuildingBlock: KOZSID_clean_sbu_0, # of connection points: 4
#     Node 6, Type 0, BuildingBlock: KOZSID_clean_sbu_0, # of connection points: 4
#     Node 7, Type 0, BuildingBlock: KOZSID_clean_sbu_0, # of connection points: 4
#     Edge 8, Type (0, 0), BuildingBlock: ZUJKAS_clean_linker_0, # of connection points: 2
#     Edge 9, Type (0, 0), BuildingBlock: ZUJKAS_clean_linker_0, # of connection points: 2
#     Edge 10, Type (0, 0), BuildingBlock: ZUJKAS_clean_linker_0, # of connection points: 2
#     Edge 11, Type (0, 0), BuildingBlock: ZUJKAS_clean_linker_0, # of connection points: 2
#     Edge 12, Type (0, 0), BuildingBlock: ZUJKAS_clean_linker_0, # of connection points: 2
#     Edge 13, Type (0, 0), BuildingBlock: ZUJKAS_clean_linker_0, # of connection points: 2
#     Edge 14, Type (0, 0), BuildingBlock: ZUJKAS_clean_linker_0, # of connection points: 2
#     Edge 15, Type (0, 0), BuildingBlock: ZUJKAS_clean_linker_0, # of connection points: 2
#     Edge 16, Type (0, 0), BuildingBlock: ZUJKAS_clean_linker_0, # of connection points: 2
#     Edge 17, Type (0, 0), BuildingBlock: ZUJKAS_clean_linker_0, # of connection points: 2
#     Edge 18, Type (0, 0), BuildingBlock: ZUJKAS_clean_linker_0, # of connection points: 2
#     Edge 19, Type (0, 0), BuildingBlock: ZUJKAS_clean_linker_0, # of connection points: 2
#     Edge 20, Type (0, 0), BuildingBlock: ZUJKAS_clean_linker_0, # of connection points: 2
#     Edge 21, Type (0, 0), BuildingBlock: ZUJKAS_clean_linker_0, # of connection points: 2
#     Edge 22, Type (0, 0), BuildingBlock: ZUJKAS_clean_linker_0, # of connection points: 2
#     Edge 23, Type (0, 0), BuildingBlock: ZUJKAS_clean_linker_0, # of connection points: 2
# Relax obj value: 0.031
# Max RMSD: 0.310
# Mean RMSD: 0.294
data_MOF--net-uoj--node1-KOZSID_clean_sbu_0--edge1-ZUJKAS_clean_linker_0
_symmetry_space_group_name_H-M    P1
_symmetry_Int_Tables_number       1
_symmetry_cell_setting            triclinic
loop_
_symmetry_equiv_pos_as_xyz
'x, y, z'
_cell_length_a     48.266776
_cell_length_b     50.589737
_cell_length_c     58.83133
_cell_angle_alpha  90.049658
_cell_angle_beta   90.091297
_cell_angle_gamma 93.597003
loop_
_atom_site_label
_atom_site_type_symbol
_atom_site_fract_x
_atom_site_fract_y
_atom_site_fract_z
_atom_type_partial_charge
C0 C 0.11074 0.31513 0.39722 0.0
C1 C 0.13198 0.33431 0.40133 0.0
C2 C 0.12834 0.34333 0.42302 0.0
C3 C 0.10513 0.32926 0.43097 0.0
N4 N 0.09418 0.31145 0.41586 0.0
Co5 Co 0.05854 0.28965 0.42013 0.0
N6 N 0.05722 0.2974 0.4534 0.0
C7 C 0.07252 0.31663 0.46426 0.0
C8 C 0.06733 0.31724 0.48721 0.0
C9 C 0.04739 0.29717 0.49103 0.0
C10 C 0.04148 0.28544 0.47013 0.0
N11 N 0.02255 0.26856 0.42413 0.0
C12 C 1.0095 0.25955 0.44327 0.0
C13 C 0.9843 0.24601 0.43818 0.0
C14 C 0.98161 0.24636 0.41507 0.0
C15 C 1.00513 0.2601 0.40737 0.0
N16 N 0.05976 0.28105 0.387 0.0
C17 C 0.03895 0.26911 0.37472 0.0
C18 C 0.04586 0.2646 0.35254 0.0
C19 C 0.07258 0.27484 0.35043 0.0
C20 C 0.08034 0.28542 0.37147 0.0
N21 N 0.07937 0.25825 0.42707 0.0
C22 C 0.10999 0.21444 0.43883 0.0
C23 C 0.08628 0.21132 0.42491 0.0
C24 C 0.07142 0.23349 0.41907 0.0
C25 C 0.11775 0.23993 0.44672 0.0
C26 C 0.10224 0.26129 0.44084 0.0
N27 N 0.03855 0.32189 0.41381 0.0
C28 C 0.03974 0.36429 0.39485 0.0
C29 C 0.02354 0.37493 0.41192 0.0
C30 C 1.01278 0.3575 0.4288 0.0
C31 C 1.02017 0.33103 0.42922 0.0
C32 C 0.04674 0.33793 0.39601 0.0
H33 H 1.01224 0.31846 0.44283 0.0
H34 H 0.06042 0.33131 0.38319 0.0
H35 H 0.05349 0.23055 0.40819 0.0
H36 H 0.1088 0.2803 0.44777 0.0
C37 C 0.09388 0.33115 0.45284 0.0
C38 C 0.10506 0.30354 0.37456 0.0
C39 C 1.01964 0.26419 0.4665 0.0
C40 C 1.01381 0.26097 0.38484 0.0
H41 H 0.14786 0.34171 0.38959 0.0
H42 H 0.14098 0.35851 0.43185 0.0
H43 H 0.0774 0.33019 0.49979 0.0
H44 H 0.03814 0.29188 0.50727 0.0
H45 H 0.96948 0.23667 0.44991 0.0
H46 H 0.96512 0.23664 0.40505 0.0
H47 H 0.03299 0.2551 0.33943 0.0
H48 H 0.08452 0.27567 0.33486 0.0
H49 H 0.07946 0.19199 0.41835 0.0
H50 H 0.13551 0.24338 0.45786 0.0
H51 H 0.04857 0.37662 0.38132 0.0
H52 H 0.99937 0.36441 0.44198 0.0
C53 C 0.37131 0.96323 0.58517 0.0
C54 C 0.39326 0.9554 0.57205 0.0
C55 C 0.38233 0.93711 0.55688 0.0
C56 C 0.35447 0.93474 0.56158 0.0
N57 N 0.34701 0.95043 0.57873 0.0
Co58 Co 0.3087 0.9527 0.59093 0.0
N59 N 0.29544 0.91878 0.57582 0.0
C60 C 0.30949 0.90559 0.56013 0.0
C61 C 0.29563 0.8827 0.55273 0.0
C62 C 0.27095 0.88152 0.56409 0.0
C63 C 0.27103 0.90398 0.57772 0.0
N64 N 0.27 0.95542 0.60236 0.0
C65 C 0.24705 0.93842 0.60042 0.0
C66 C 0.22372 0.94976 0.60883 0.0
C67 C 0.23213 0.97485 0.6158 0.0
C68 C 0.26006 0.97749 0.61128 0.0
N69 N 0.32265 0.98599 0.60652 0.0
C70 C 0.30681 1.00438 0.61531 0.0
C71 C 0.32217 0.02507 0.62529 0.0
C72 C 0.34942 1.01935 0.62256 0.0
C73 C 0.34917 0.99542 0.61104 0.0
N74 N 0.29819 0.97341 0.56397 0.0
C75 C 0.27283 1.01023 0.5358 0.0
C76 C 0.29924 1.01615 0.54539 0.0
C77 C 0.31173 0.99734 0.55903 0.0
C78 C 0.26122 0.98433 0.53857 0.0
C79 C 0.27406 0.96644 0.5526 0.0
N80 N 0.3185 0.93298 0.61847 0.0
C81 C 0.31651 0.9293 0.65939 0.0
C82 C 0.33466 0.90882 0.65928 0.0
C83 C 0.3444 0.90042 0.6381 0.0
C84 C 0.33581 0.91254 0.6179 0.0
C85 C 0.30893 0.9411 0.63906 0.0
H86 H 0.34351 0.90563 0.6019 0.0
H87 H 0.29575 0.95736 0.64025 0.0
H88 H 0.33154 1.00291 0.56673 0.0
H89 H 0.26326 0.94758 0.55522 0.0
C90 C 0.33615 0.9145 0.55357 0.0
C91 C 0.37438 0.98321 0.6032 0.0
C92 C 0.24577 0.91271 0.58856 0.0
C93 C 0.27793 0.99964 0.61647 0.0
H94 H 0.41499 0.96187 0.5735 0.0
H95 H 0.39361 0.9258 0.54476 0.0
H96 H 0.30255 0.86867 0.5404 0.0
H97 H 0.25418 0.86652 0.56173 0.0
H98 H 0.20266 0.94105 0.60923 0.0
H99 H 0.21936 0.98944 0.62318 0.0
H100 H 0.3145 0.04192 0.6341 0.0
H101 H 0.36742 0.03144 0.6282 0.0
H102 H 0.30961 0.03561 0.54349 0.0
H103 H 0.24162 0.97802 0.53068 0.0
H104 H 0.30876 0.93684 0.67525 0.0
H105 H 0.35839 0.88455 0.63713 0.0
C106 C 0.92968 0.72326 0.39921 0.0
C107 C 0.90785 0.70485 0.40373 0.0
C108 C 0.9121 0.69538 0.42519 0.0
C109 C 0.93614 0.70853 0.43265 0.0
N110 N 0.94704 0.72619 0.41744 0.0
Co111 Co 0.98305 0.74739 0.42123 0.0
N112 N 0.985 0.73972 0.45445 0.0
C113 C 0.96983 0.72056 0.46546 0.0
C114 C 0.97546 0.72002 0.48835 0.0
C115 C 0.99554 0.74004 0.49197 0.0
C116 C 1.0011 0.75168 0.47101 0.0
N117 N 1.01936 0.768 0.42482 0.0
C118 C 0.0327 0.77727 0.4438 0.0
C119 C 0.05803 0.79031 0.43845 0.0
C120 C 0.06055 0.7893 0.41534 0.0
C121 C 0.03679 0.77569 0.40791 0.0
N122 N 0.98137 0.75573 0.38808 0.0
C123 C 1.00265 0.76612 0.37546 0.0
C124 C 0.99606 0.76941 0.35305 0.0
C125 C 0.96903 0.76006 0.35115 0.0
C126 C 0.96054 0.75145 0.37265 0.0
N127 N 0.96292 0.77914 0.42839 0.0
C128 C 0.93413 0.82366 0.44163 0.0
C129 C 0.95656 0.82618 0.42631 0.0
C130 C 0.97066 0.8037 0.41991 0.0
C131 C 0.92626 0.79819 0.44955 0.0
C132 C 0.94082 0.77653 0.44291 0.0
N133 N 1.0023 0.7148 0.41468 0.0
C134 C 0.99999 0.67216 0.39601 0.0
C135 C 1.01699 0.66167 0.41264 0.0
C136 C 0.02857 0.67924 0.42913 0.0
C137 C 1.02128 0.70574 0.42966 0.0
C138 C 0.99315 0.69857 0.39723 0.0
H139 H 0.02981 0.71843 0.44302 0.0
H140 H 0.97885 0.70509 0.38478 0.0
H141 H 0.98797 0.80624 0.40837 0.0
H142 H 0.93416 0.75759 0.44988 0.0
C143 C 0.94795 0.70634 0.45432 0.0
C144 C 0.93466 0.73515 0.37657 0.0
C145 C 0.02287 0.77294 0.46713 0.0
C146 C 0.02803 0.774 0.3854 0.0
H147 H 0.89108 0.69836 0.39241 0.0
H148 H 0.89918 0.68065 0.43425 0.0
H149 H 0.96551 0.70721 0.50105 0.0
H150 H 1.00506 0.74539 0.50813 0.0
H151 H 0.07314 0.79964 0.45001 0.0
H152 H 0.07717 0.7984 0.40513 0.0
H153 H 1.00939 0.77745 0.33963 0.0
H154 H 0.95747 0.7586 0.33539 0.0
H155 H 0.96357 0.84539 0.41966 0.0
H156 H 0.90873 0.79479 0.46086 0.0
H157 H 0.99048 0.6597 0.38281 0.0
H158 H 0.04256 0.67244 0.44196 0.0
C159 C 0.6721 0.07502 0.58514 0.0
C160 C 0.65008 0.08362 0.57248 0.0
C161 C 0.66105 0.10217 0.55761 0.0
C162 C 0.68901 0.10393 0.56203 0.0
N163 N 0.69649 0.08762 0.57872 0.0
Co164 Co 0.73493 0.0844 0.59045 0.0
N165 N 0.74855 0.11849 0.57592 0.0
C166 C 0.73454 0.13225 0.56056 0.0
C167 C 0.74869 0.15506 0.55342 0.0
C168 C 0.77354 0.1556 0.56458 0.0
C169 C 0.77322 0.13287 0.57786 0.0
N170 N 0.77369 0.08082 0.60153 0.0
C171 C 0.79684 0.09759 0.59985 0.0
C172 C 0.82006 0.08571 0.60788 0.0
C173 C 0.81137 0.06052 0.61431 0.0
C174 C 0.78339 0.05835 0.60988 0.0
N175 N 0.72069 0.05081 0.60535 0.0
C176 C 0.73636 0.03188 0.61346 0.0
C177 C 0.72085 1.01105 0.62301 0.0
C178 C 0.69368 1.01725 0.62071 0.0
C179 C 0.69412 0.04158 0.60986 0.0
N180 N 0.7446 0.06426 0.56296 0.0
C181 C 0.76773 0.02762 0.53336 0.0
C182 C 0.74135 0.02233 0.54301 0.0
C183 C 0.72994 0.0411 0.55733 0.0
C184 C 0.78087 0.05271 0.53714 0.0
C185 C 0.76901 0.07061 0.55182 0.0
N186 N 0.72584 0.10348 0.61851 0.0
C187 C 0.72658 0.10457 0.65954 0.0
C188 C 0.70886 0.12544 0.66006 0.0
C189 C 0.70077 0.1359 0.63907 0.0
C190 C 0.70948 0.12465 0.61851 0.0
C191 C 0.73467 0.09398 0.63886 0.0
H192 H 0.70244 0.13266 0.60269 0.0
H193 H 0.74759 0.07749 0.63955 0.0
H194 H 0.70996 0.03609 0.56491 0.0
H195 H 0.78078 0.08883 0.55521 0.0
C196 C 0.70758 0.12399 0.55417 0.0
C197 C 0.66901 0.05442 0.60262 0.0
C198 C 0.79841 0.12359 0.58848 0.0
C199 C 0.76529 0.03624 0.61456 0.0
H200 H 0.62829 0.07743 0.574 0.0
H201 H 0.64978 0.11399 0.54587 0.0
H202 H 0.74185 0.16948 0.5414 0.0
H203 H 0.79051 0.17038 0.56233 0.0
H204 H 0.84123 0.09414 0.60835 0.0
H205 H 0.824 0.04553 0.62126 0.0
H206 H 0.72839 0.99381 0.6313 0.0
H207 H 0.6756 1.00521 0.62621 0.0
H208 H 0.72993 1.00353 0.54005 0.0
H209 H 0.80114 0.05797 0.53001 0.0
H210 H 0.73412 0.09615 0.67512 0.0
H211 H 0.68716 0.1521 0.63849 0.0
C212 C 0.43308 0.76807 0.96929 0.0
C213 C 0.41059 0.76453 0.98395 0.0
C214 C 0.4057 0.78891 0.99242 0.0
C215 C 0.42525 0.80591 0.98243 0.0
N216 N 0.44225 0.79395 0.96811 0.0
Co217 Co 0.4726 0.81193 0.94967 0.0
N218 N 0.47193 0.84528 0.96805 0.0
C219 C 0.45253 0.85058 0.9836 0.0
C220 C 0.45661 0.87497 0.99353 0.0
C221 C 0.47975 0.88628 0.98336 0.0
C222 C 0.48853 0.86808 0.9676 0.0
N223 N 0.5024 0.83048 0.93082 0.0
C224 C 0.51525 0.85524 0.93269 0.0
C225 C 0.53273 0.86077 0.91438 0.0
C226 C 0.53017 0.83925 0.90022 0.0
C227 C 0.5114 0.82174 0.91063 0.0
N228 N 0.47328 0.77833 0.9318 0.0
C229 C 0.48577 0.77563 0.91158 0.0
C230 C 0.48307 0.7502 0.90331 0.0
C231 C 0.46778 0.73595 0.91928 0.0
C232 C 0.4619 0.75356 0.93642 0.0
N233 N 0.44489 0.82486 0.92809 0.0
C234 C 0.41883 0.83863 0.88717 0.0
C235 C 0.41308 0.81371 0.8972 0.0
C236 C 0.42607 0.80734 0.91773 0.0
C237 C 0.4353 0.85738 0.89955 0.0
C238 C 0.44771 0.85025 0.91999 0.0
N239 N 0.50094 0.79811 0.97025 0.0
C240 C 0.54255 0.77406 0.97371 0.0
C241 C 0.53848 0.77037 0.99708 0.0
C242 C 0.51574 0.78222 1.00698 0.0
C243 C 0.49723 0.79593 0.99329 0.0
C244 C 0.52386 0.78785 0.9608 0.0
H245 H 0.47951 0.80404 1.00125 0.0
H246 H 0.52766 0.78924 0.94288 0.0
H247 H 0.42228 0.78757 0.9243 0.0
H248 H 0.461 0.86501 0.92829 0.0
C249 C 0.431 0.83209 0.98881 0.0
C250 C 0.44407 0.74651 0.9561 0.0
C251 C 0.50923 0.87526 0.94996 0.0
C252 C 0.50253 0.79657 0.90246 0.0
H253 H 0.39886 0.74626 0.98813 0.0
H254 H 0.39039 0.79352 1.00501 0.0
H255 H 0.44394 0.88372 1.00633 0.0
H256 H 0.48814 0.90627 0.98644 0.0
H257 H 0.54523 0.8789 0.91121 0.0
H258 H 0.5405 0.83683 0.88411 0.0
H259 H 0.49182 0.74271 0.88783 0.0
H260 H 0.46152 0.71506 0.91835 0.0
H261 H 0.40002 0.79863 0.88861 0.0
H262 H 0.43947 0.87727 0.89309 0.0
H263 H 0.56005 0.76602 0.96521 0.0
H264 H 0.51167 0.78012 0.025 0.0
C265 C 0.75344 0.59102 0.10512 0.0
C266 C 0.72977 0.57891 0.11488 0.0
C267 C 0.73636 0.55402 0.12135 0.0
C268 C 0.76362 0.55224 0.11524 0.0
N269 N 0.77484 0.57464 0.10571 0.0
Co270 Co 0.81291 0.57871 0.09241 0.0
N271 N 0.82527 0.54632 0.10779 0.0
C272 C 0.80838 0.52715 0.11711 0.0
C273 C 0.82265 0.5072 0.12659 0.0
C274 C 0.85025 0.51424 0.12291 0.0
C275 C 0.85133 0.53817 0.11139 0.0
N276 N 0.85075 0.58258 0.07874 0.0
C277 C 0.87458 0.57131 0.08458 0.0
C278 C 0.89641 0.5802 0.07062 0.0
C279 C 0.88585 0.59737 0.05544 0.0
C280 C 0.85834 0.59816 0.06099 0.0
N281 N 0.8012 0.61145 0.07707 0.0
C282 C 0.81492 0.62436 0.06006 0.0
C283 C 0.80228 0.64626 0.05259 0.0
C284 C 0.77877 0.64708 0.06537 0.0
C285 C 0.77829 0.62544 0.07994 0.0
N286 N 0.82585 0.5997 0.11913 0.0
C287 C 0.84528 0.62649 0.15876 0.0
C288 C 0.85188 0.63659 0.13701 0.0
C289 C 0.84212 0.62279 0.1174 0.0
C290 C 0.82824 0.60315 0.16003 0.0
C291 C 0.81873 0.59031 0.14027 0.0
N292 N 0.79905 0.55671 0.06634 0.0
C293 C 0.75909 0.54174 0.04387 0.0
C294 C 0.77033 0.51735 0.03959 0.0
C295 C 0.79764 0.51428 0.04708 0.0
C296 C 0.81168 0.53424 0.06024 0.0
C297 C 0.77372 0.56105 0.05699 0.0
H298 H 0.83209 0.53071 0.06663 0.0
H299 H 0.76348 0.57877 0.0607 0.0
H300 H 0.84794 0.63061 0.1009 0.0
H301 H 0.80575 0.57244 0.14228 0.0
C302 C 0.77994 0.53074 0.11955 0.0
C303 C 0.75374 0.61683 0.09341 0.0
C304 C 0.87718 0.55151 0.10257 0.0
C305 C 0.84071 0.61675 0.05287 0.0
H306 H 0.70963 0.58699 0.11653 0.0
H307 H 0.72285 0.53903 0.12952 0.0
H308 H 0.8141 0.49003 0.13573 0.0
H309 H 0.8676 0.50299 0.12794 0.0
H310 H 0.91781 0.57509 0.07143 0.0
H311 H 0.89723 0.60893 0.04265 0.0
H312 H 0.80937 0.66005 0.03946 0.0
H313 H 0.7632 0.66144 0.06354 0.0
H314 H 0.86498 0.65463 0.13515 0.0
H315 H 0.82205 0.59478 0.17634 0.0
H316 H 0.73856 0.54566 0.03778 0.0
H317 H 0.80756 0.49603 0.04394 0.0
C318 C 0.61076 0.27118 0.9695 0.0
C319 C 0.63244 0.27521 0.98495 0.0
C320 C 0.63733 0.25101 0.99376 0.0
C321 C 0.6185 0.23365 0.98326 0.0
N322 N 0.6019 0.24521 0.96832 0.0
Co323 Co 0.57207 0.22675 0.94949 0.0
N324 N 0.57287 0.19352 0.96801 0.0
C325 C 0.59197 0.18859 0.98396 0.0
C326 C 0.588 0.16423 0.99392 0.0
C327 C 0.56526 0.15255 0.98337 0.0
C328 C 0.55656 0.17053 0.96739 0.0
N329 N 0.5428 0.20774 0.9303 0.0
C330 C 0.53024 0.18287 0.93208 0.0
C331 C 0.51306 0.17705 0.91358 0.0
C332 C 0.51553 0.1985 0.8994 0.0
C333 C 0.53394 0.21627 0.90999 0.0
N334 N 0.57123 0.2602 0.93146 0.0
C335 C 0.55905 0.2626 0.91105 0.0
C336 C 0.56195 0.28788 0.9025 0.0
C337 C 0.57709 0.30235 0.91847 0.0
C338 C 0.58259 0.28503 0.93592 0.0
N339 N 0.60031 0.21402 0.92834 0.0
C340 C 0.62688 0.20016 0.88767 0.0
C341 C 0.63199 0.22533 0.89749 0.0
C342 C 0.61885 0.2317 0.91793 0.0
C343 C 0.61086 0.18128 0.90023 0.0
C344 C 0.5981 0.18849 0.92048 0.0
N345 N 0.54319 0.24026 0.96965 0.0
C346 C 0.50065 0.26296 0.9727 0.0
C347 C 0.50372 0.2659 0.99628 0.0
C348 C 0.52702 0.25504 1.0063 0.0
C349 C 0.54636 0.24225 0.99276 0.0
C350 C 0.52026 0.25019 0.95991 0.0
H351 H 0.56411 0.23446 1.00095 0.0
H352 H 0.51708 0.24925 0.94188 0.0
H353 H 0.62229 0.25158 0.92438 0.0
H354 H 0.58504 0.17361 0.92882 0.0
C355 C 0.61298 0.20746 0.98963 0.0
C356 C 0.60033 0.2924 0.95559 0.0
C357 C 0.53621 0.16304 0.94951 0.0
C358 C 0.54263 0.24145 0.90182 0.0
H359 H 0.64358 0.29371 0.98945 0.0
H360 H 0.65212 0.24675 1.00691 0.0
H361 H 0.60047 0.15576 1.00703 0.0
H362 H 0.55704 0.13251 0.98641 0.0
H363 H 0.50081 0.15877 0.91032 0.0
H364 H 0.50537 0.20072 0.88316 0.0
H365 H 0.55357 0.29508 0.88676 0.0
H366 H 0.58361 0.32317 0.91733 0.0
H367 H 0.64467 0.24059 0.88884 0.0
H368 H 0.60727 0.16117 0.89408 0.0
H369 H 0.48359 0.27127 0.96379 0.0
H370 H 0.53038 0.25638 0.02447 0.0
C371 C 0.28998 0.44763 0.10353 0.0
C372 C 0.31399 0.45918 0.11325 0.0
C373 C 0.30782 0.48391 0.12053 0.0
C374 C 0.28046 0.48616 0.11488 0.0
N375 N 0.2688 0.4642 0.10487 0.0
Co376 Co 0.23035 0.46088 0.09216 0.0
N377 N 0.21864 0.49265 0.10885 0.0
C378 C 0.23588 0.51125 0.11863 0.0
C379 C 0.22199 0.53088 0.12898 0.0
C380 C 0.19426 0.52425 0.1254 0.0
C381 C 0.19274 0.50087 0.11304 0.0
N382 N 0.1922 0.45786 0.07891 0.0
C383 C 0.16866 0.46916 0.08538 0.0
C384 C 0.14656 0.46139 0.07123 0.0
C385 C 0.1566 0.44474 0.05536 0.0
C386 C 0.18413 0.44322 0.06067 0.0
N387 N 0.24136 0.42867 0.07562 0.0
C388 C 0.22706 0.41643 0.05851 0.0
C389 C 0.2392 0.39459 0.05032 0.0
C390 C 0.26298 0.39309 0.06273 0.0
C391 C 0.26416 0.41436 0.07775 0.0
N392 N 0.2179 0.43891 0.11839 0.0
C393 C 0.19986 0.4103 0.15744 0.0
C394 C 0.19016 0.40278 0.13566 0.0
C395 C 0.19966 0.41717 0.11633 0.0
C396 C 0.21867 0.43239 0.15906 0.0
C397 C 0.22716 0.44637 0.13959 0.0
N398 N 0.24367 0.48381 0.06657 0.0
C399 C 0.28248 0.49904 0.04298 0.0
C400 C 0.27109 0.52353 0.03944 0.0
C401 C 0.24444 0.52672 0.04829 0.0
C402 C 0.23097 0.50655 0.06146 0.0
C403 C 0.26852 0.4796 0.05639 0.0
H404 H 0.2109 0.51002 0.06851 0.0
H405 H 0.27893 0.46182 0.05957 0.0
H406 H 0.19212 0.41087 0.0998 0.0
H407 H 0.24104 0.46358 0.14193 0.0
C408 C 0.26437 0.50748 0.12034 0.0
C409 C 0.28911 0.42224 0.09109 0.0
C410 C 0.16662 0.48806 0.10413 0.0
C411 C 0.20129 0.42467 0.05181 0.0
H412 H 0.33407 0.45087 0.11439 0.0
H413 H 0.32164 0.49845 0.129 0.0
H414 H 0.23088 0.54761 0.13857 0.0
H415 H 0.17713 0.53541 0.13104 0.0
H416 H 0.12532 0.46698 0.07235 0.0
H417 H 0.14488 0.434 0.04222 0.0
H418 H 0.23161 0.38126 0.03698 0.0
H419 H 0.27825 0.37854 0.06039 0.0
H420 H 0.1756 0.38578 0.13354 0.0
H421 H 0.22639 0.43935 0.17545 0.0
H422 H 0.30289 0.49534 0.03656 0.0
H423 H 0.23427 0.54492 0.04552 0.0
H424 H 0.14665 0.39393 0.17034 0.0
H425 H 0.13141 0.37518 0.2072 0.0
H426 H 0.21649 0.37609 0.22954 0.0
H427 H 0.23183 0.39485 0.19294 0.0
H428 H 0.17374 0.32474 0.23727 0.0
H429 H 0.14465 0.42232 0.27048 0.0
H430 H 0.13522 0.41296 0.24177 0.0
H431 H 0.17103 0.41984 0.24895 0.0
C432 C 0.16213 0.38972 0.18296 0.0
C433 C 0.19047 0.39601 0.17866 0.0
C434 C 0.15339 0.37917 0.20408 0.0
C435 C 0.1728 0.37437 0.22121 0.0
C436 C 0.20112 0.37968 0.21665 0.0
H437 H 0.15779 0.3004 0.35719 0.0
H438 H 0.17583 0.31812 0.32076 0.0
C439 C 0.20984 0.39047 0.1957 0.0
C440 C 0.16367 0.36473 0.24418 0.0
H441 H 0.13785 0.38564 0.29476 0.0
C442 C 0.16587 0.338 0.24987 0.0
C443 C 0.1534 0.38202 0.26059 0.0
C444 C 0.15092 0.41095 0.25537 0.0
C445 C 0.15758 0.32801 0.27139 0.0
C446 C 0.14762 0.3454 0.28805 0.0
C447 C 0.14557 0.37221 0.28223 0.0
C448 C 0.13791 0.33607 0.31113 0.0
C449 C 0.15872 0.29869 0.27568 0.0
C450 C 0.11121 0.34142 0.31869 0.0
C451 C 0.10125 0.33189 0.33968 0.0
C452 C 0.11761 0.31659 0.35371 0.0
C453 C 0.14471 0.31204 0.34669 0.0
C454 C 0.15485 0.32187 0.3257 0.0
H455 H 0.15899 0.28729 0.25954 0.0
H456 H 0.17802 0.29508 0.28513 0.0
H457 H 0.1407 0.29096 0.28594 0.0
H458 H 0.09769 0.35242 0.30804 0.0
H459 H 0.08029 0.33575 0.34464 0.0
H460 H 0.30218 0.89372 0.69574 0.0
H461 H 0.31704 0.8796 0.73344 0.0
H462 H 0.40213 0.88414 0.71106 0.0
H463 H 0.38738 0.89825 0.67312 0.0
H464 H 0.35799 0.8329 0.7448 0.0
H465 H 0.39099 0.93609 0.7706 0.0
H466 H 0.36439 0.92923 0.74938 0.0
H467 H 0.39996 0.92466 0.74267 0.0
C468 C 0.32406 0.89151 0.69874 0.0
C469 C 0.34359 0.89723 0.68136 0.0
C470 C 0.3325 0.88336 0.72031 0.0
C471 C 0.3607 0.88095 0.72516 0.0
C472 C 0.38024 0.88589 0.70772 0.0
H473 H 0.44852 0.86486 0.85357 0.0
H474 H 0.43433 0.87389 0.81465 0.0
C475 C 0.37177 0.8938 0.686 0.0
C476 C 0.36962 0.87437 0.7487 0.0
H477 H 0.39607 0.90258 0.7976 0.0
C478 C 0.36638 0.84808 0.75637 0.0
C479 C 0.3806 0.89415 0.76376 0.0
C480 C 0.38421 0.92271 0.7564 0.0
C481 C 0.37414 0.84102 0.7786 0.0
C482 C 0.38468 0.86093 0.79392 0.0
C483 C 0.38795 0.88723 0.78608 0.0
C484 C 0.39305 0.85499 0.81791 0.0
C485 C 0.3717 0.81215 0.78516 0.0
C486 C 0.3746 0.84156 0.83314 0.0
C487 C 0.38279 0.83619 0.85555 0.0
C488 C 0.40945 0.8446 0.86347 0.0
C489 C 0.42768 0.8584 0.84828 0.0
C490 C 0.41961 0.86349 0.82588 0.0
H491 H 0.37161 0.79908 0.76996 0.0
H492 H 0.38901 0.80707 0.79647 0.0
H493 H 0.35185 0.80785 0.79431 0.0
H494 H 0.35371 0.83542 0.82781 0.0
H495 H 0.36807 0.8258 0.86678 0.0
H496 H 0.9362 0.68502 0.3596 0.0
H497 H 0.91859 0.66822 0.3228 0.0
H498 H 0.88346 0.74298 0.30971 0.0
H499 H 0.90086 0.75972 0.34672 0.0
H500 H 0.86215 0.66512 0.30314 0.0
H501 H 0.93698 0.73154 0.25486 0.0
H502 H 0.94147 0.72451 0.28469 0.0
H503 H 0.91619 0.74693 0.27584 0.0
C504 C 0.92411 0.69761 0.34911 0.0
C505 C 0.91969 0.7236 0.3561 0.0
C506 C 0.91423 0.68808 0.328 0.0
C507 C 0.90004 0.70443 0.31326 0.0
C508 C 0.89465 0.73008 0.32061 0.0
H509 H 0.84649 0.67936 0.1708 0.0
H510 H 0.85902 0.6991 0.20795 0.0
C511 C 0.90432 0.73954 0.34184 0.0
C512 C 0.89167 0.69483 0.29002 0.0
H513 H 0.90588 0.7037 0.2334 0.0
C514 C 0.87167 0.67359 0.28789 0.0
C515 C 0.90393 0.70594 0.27006 0.0
C516 C 0.92599 0.72838 0.2713 0.0
C517 C 0.86353 0.66328 0.26645 0.0
C518 C 0.87636 0.67387 0.24645 0.0
C519 C 0.89606 0.69543 0.24859 0.0
C520 C 0.87013 0.66234 0.22333 0.0
C521 C 0.84081 0.6414 0.26551 0.0
C522 C 0.87313 0.63532 0.21912 0.0
C523 C 0.86589 0.62405 0.198 0.0
C524 C 0.85581 0.63952 0.18027 0.0
C525 C 0.85419 0.66687 0.18403 0.0
C526 C 0.86124 0.67814 0.20534 0.0
H527 H 0.82726 0.64163 0.28075 0.0
H528 H 0.82769 0.64306 0.25012 0.0
H529 H 0.85029 0.62199 0.26509 0.0
H530 H 0.88088 0.62278 0.23229 0.0
H531 H 0.86796 0.60304 0.1956 0.0
H532 H 0.59903 0.1704 0.85485 0.0
H533 H 0.61393 0.16042 0.81634 0.0
H534 H 0.69065 0.20692 0.82742 0.0
H535 H 0.67624 0.21641 0.86639 0.0
H536 H 0.62716 0.19378 0.7802 0.0
H537 H 0.7178 0.13716 0.80378 0.0
H538 H 0.69167 0.14525 0.82411 0.0
H539 H 0.71804 0.16991 0.81563 0.0
C540 C 0.61933 0.17819 0.84935 0.0
C541 C 0.63654 0.19396 0.86407 0.0
C542 C 0.6277 0.17266 0.82713 0.0
C543 C 0.65359 0.1826 0.8189 0.0
C544 C 0.67077 0.1986 0.83339 0.0
H545 H 0.70159 0.17702 0.67359 0.0
H546 H 0.68815 0.19258 0.71134 0.0
C547 C 0.66237 0.20422 0.85568 0.0
C548 C 0.6623 0.17617 0.79517 0.0
H549 H 0.71087 0.14475 0.76465 0.0
C550 C 0.64555 0.18317 0.7768 0.0
C551 C 0.68613 0.16206 0.79063 0.0
C552 C 0.70437 0.15291 0.80954 0.0
C553 C 0.65188 0.17643 0.75419 0.0
C554 C 0.67584 0.1625 0.74965 0.0
C555 C 0.69263 0.1556 0.76801 0.0
C556 C 0.68303 0.15346 0.72622 0.0
C557 C 0.63236 0.18352 0.73543 0.0
C558 C 0.68476 0.12633 0.72184 0.0
C559 C 0.69238 0.11742 0.70033 0.0
C560 C 0.69882 0.13537 0.68249 0.0
C561 C 0.69659 0.16257 0.68676 0.0
C562 C 0.6889 0.17151 0.7084 0.0
H563 H 0.61192 0.18878 0.74215 0.0
H564 H 0.64162 0.20085 0.72597 0.0
H565 H 0.62895 0.16684 0.72325 0.0
H566 H 0.6802 0.11194 0.73515 0.0
H567 H 0.69326 0.0963 0.6977 0.0
H568 H 0.29201 0.0533 0.50962 0.0
H569 H 0.26488 0.08753 0.49248 0.0
H570 H 0.18954 0.04788 0.51777 0.0
H571 H 0.2163 1.01474 0.53598 0.0
H572 H 0.22497 0.08604 0.46032 0.0
H573 H 0.17956 0.12109 0.54027 0.0
H574 H 0.20749 0.09904 0.54001 0.0
H575 H 0.17211 0.08628 0.5361 0.0
C576 C 0.26971 0.05199 0.51183 0.0
C577 C 0.25659 0.03096 0.5243 0.0
C578 C 0.25414 0.07155 0.50183 0.0
C579 C 0.22506 0.07073 0.50412 0.0
C580 C 0.21192 0.04951 0.51614 0.0
H581 H 0.09123 0.165 0.45401 0.0
H582 H 0.11901 0.12953 0.46853 0.0
C583 C 0.22739 0.03014 0.52625 0.0
C584 C 0.20833 0.09171 0.49378 0.0
H585 H 0.15904 0.13555 0.5059 0.0
C586 C 0.21072 0.09696 0.47036 0.0
C587 C 0.18964 0.10618 0.50676 0.0
C588 C 0.18723 0.10308 0.53221 0.0
C589 C 0.19463 0.11568 0.45958 0.0
C590 C 0.17564 0.12972 0.47251 0.0
C591 C 0.17332 0.12459 0.4959 0.0
C592 C 0.15872 0.1505 0.46229 0.0
C593 C 0.19769 0.11997 0.43433 0.0
C594 C 0.17167 0.1741 0.45384 0.0
C595 C 0.15586 0.19439 0.44565 0.0
C596 C 0.12661 0.19164 0.4456 0.0
C597 C 0.11365 0.16771 0.45355 0.0
C598 C 0.12953 0.14748 0.462 0.0
H599 H 0.20821 0.10363 0.426 0.0
H600 H 0.17711 0.12173 0.4262 0.0
H601 H 0.21033 0.13871 0.43127 0.0
H602 H 0.19409 0.17713 0.45411 0.0
H603 H 0.16658 0.21246 0.43955 0.0
H604 H 0.21199 0.87375 0.60887 0.0
H605 H 0.17091 0.84933 0.59228 0.0
H606 H 0.17804 0.89862 0.53261 0.0
H607 H 0.2187 0.92304 0.5492 0.0
H608 H 0.11731 0.86874 0.57272 0.0
H609 H 0.18307 0.81949 0.51012 0.0
H610 H 0.19705 0.83474 0.53581 0.0
H611 H 0.18857 0.85493 0.51201 0.0
C612 C 0.20434 0.87967 0.59244 0.0
C613 C 0.21839 0.90041 0.5804 0.0
C614 C 0.18096 0.86567 0.58292 0.0
C615 C 0.17146 0.87192 0.56105 0.0
C616 C 0.18501 0.89324 0.54939 0.0
H617 H 0.02445 0.82436 0.48124 0.0
H618 H 0.05899 0.84737 0.50619 0.0
C619 C 0.20816 0.90731 0.55895 0.0
C620 C 0.14832 0.85555 0.54985 0.0
H621 H 0.13442 0.81328 0.5052 0.0
C622 C 0.12105 0.85651 0.55803 0.0
C623 C 0.15313 0.83933 0.5308 0.0
C624 C 0.18203 0.83677 0.52168 0.0
C625 C 0.09849 0.84228 0.54732 0.0
C626 C 0.10319 0.82669 0.52781 0.0
C627 C 0.13061 0.82523 0.52005 0.0
C628 C 0.08009 0.81222 0.51481 0.0
C629 C 0.06979 0.8439 0.5571 0.0
C630 C 0.08011 0.78468 0.51127 0.0
C631 C 0.06018 0.77149 0.49713 0.0
C632 C 0.03983 0.78554 0.4861 0.0
C633 C 0.03939 0.81293 0.49004 0.0
C634 C 0.05921 0.8261 0.50427 0.0
H635 H 0.07055 0.85042 0.57514 0.0
H636 H 0.05851 0.85856 0.54726 0.0
H637 H 0.05781 0.82448 0.55599 0.0
H638 H 0.09606 0.77347 0.51896 0.0
H639 H 0.06151 0.75053 0.4939 0.0
H640 H 0.77072 0.97519 0.54449 0.0
H641 H 0.799 0.94242 0.5267 0.0
H642 H 0.82655 0.9998 0.47614 0.0
H643 H 0.79879 0.03282 0.49418 0.0
H644 H 0.80012 0.91936 0.4863 0.0
H645 H 0.90009 0.97791 0.49781 0.0
H646 H 0.86836 0.98728 0.51082 0.0
H647 H 0.87546 0.99499 0.48144 0.0
C648 C 0.78254 0.98078 0.52942 0.0
C649 C 0.78253 1.00679 0.5209 0.0
C650 C 0.79888 0.96201 0.5193 0.0
C651 C 0.81564 0.96866 0.50034 0.0
C652 C 0.81467 0.99427 0.49118 0.0
H653 H 0.92045 0.86819 0.41761 0.0
H654 H 0.89233 0.90416 0.43062 0.0
C655 C 0.79857 1.01315 0.50144 0.0
C656 C 0.834 0.94879 0.49028 0.0
H657 H 0.90142 0.93844 0.47611 0.0
C658 C 0.82224 0.92364 0.4841 0.0
C659 C 0.86305 0.95409 0.4874 0.0
C660 C 0.87757 0.97992 0.49492 0.0
C661 C 0.83853 0.90392 0.47517 0.0
C662 C 0.86742 0.90929 0.47224 0.0
C663 C 0.87922 0.93443 0.47813 0.0
C664 C 0.88581 0.88839 0.46447 0.0
C665 C 0.82479 0.87729 0.46896 0.0
C666 C 0.89213 0.86794 0.4793 0.0
C667 C 0.90846 0.84761 0.47206 0.0
C668 C 0.91877 0.84693 0.44964 0.0
C669 C 0.91308 0.86797 0.43498 0.0
C670 C 0.89683 0.8885 0.44235 0.0
H671 H 0.80179 0.87751 0.46879 0.0
H672 H 0.83193 0.87094 0.45198 0.0
H673 H 0.8308 0.86233 0.48154 0.0
H674 H 0.88424 0.8676 0.49654 0.0
H675 H 0.9129 0.83229 0.48413 0.0
H676 H 0.82636 0.11182 0.54995 0.0
H677 H 0.86703 0.13595 0.53325 0.0
H678 H 0.8723 0.18802 0.59134 0.0
H679 H 0.83125 0.16389 0.60799 0.0
H680 H 0.86995 0.19135 0.52238 0.0
H681 H 0.95386 0.16648 0.58198 0.0
H682 H 0.9214 0.1468 0.57983 0.0
H683 H 0.92285 0.17786 0.59467 0.0
C684 C 0.83657 0.12805 0.55938 0.0
C685 C 0.82587 0.13574 0.58043 0.0
C686 C 0.85974 0.14195 0.54976 0.0
C687 C 0.87302 0.16377 0.56103 0.0
C688 C 0.86279 0.17106 0.58241 0.0
H689 H 0.9807 0.28641 0.49303 0.0
H690 H 0.94614 0.26317 0.5178 0.0
C691 C 0.83938 0.15724 0.59196 0.0
C692 C 0.89631 0.17974 0.54965 0.0
H693 H 0.96588 0.19774 0.55315 0.0
C694 C 0.89088 0.1928 0.52919 0.0
C695 C 0.92376 0.18155 0.55834 0.0
C696 C 0.93106 0.16731 0.57982 0.0
C697 C 0.91194 0.20762 0.51731 0.0
C698 C 0.93936 0.20969 0.5261 0.0
C699 C 0.94488 0.19645 0.54648 0.0
C700 C 0.96257 0.22462 0.51373 0.0
C701 C 0.90481 0.22047 0.4951 0.0
C702 C 0.98411 0.21105 0.50389 0.0
C703 C 1.00396 0.22438 0.48986 0.0
C704 C 1.00301 0.25166 0.48563 0.0
C705 C 0.98232 0.26552 0.49639 0.0
C706 C 0.96236 0.25215 0.51032 0.0
H707 H 0.88438 0.21266 0.48839 0.0
H708 H 0.90391 0.24212 0.49774 0.0
H709 H 0.92096 0.21735 0.48212 0.0
H710 H 0.98477 0.18985 0.50616 0.0
H711 H 1.01928 0.21312 0.48138 0.0
H712 H 0.27467 0.57658 0.05039 0.0
H713 H 0.30448 0.61218 0.03352 0.0
H714 H 0.33564 0.55693 0.98553 0.0
H715 H 0.306 0.52117 1.00242 0.0
H716 H 0.37761 0.58726 1.00301 0.0
H717 H 0.29648 0.65297 0.97573 0.0
H718 H 0.29446 0.64549 1.00549 0.0
H719 H 0.28838 0.61937 0.98493 0.0
C720 C 0.28742 0.57202 0.03595 0.0
C721 C 0.28766 0.54582 0.02779 0.0
C722 C 0.30456 0.59251 0.02627 0.0
C723 C 0.32221 0.58755 1.00792 0.0
C724 C 0.32231 0.56147 0.99961 0.0
H725 H 0.40576 0.71798 0.92993 0.0
H726 H 0.37784 0.67769 0.94082 0.0
C727 C 0.30529 0.54094 1.00936 0.0
C728 C 0.34129 0.60922 0.99801 0.0
H729 H 0.34306 0.67185 0.97569 0.0
C730 C 0.36996 0.60567 0.99691 0.0
C731 C 0.33156 0.63324 0.98962 0.0
C732 C 0.30102 0.63794 0.98876 0.0
C733 C 0.38902 0.6255 0.9883 0.0
C734 C 0.37942 0.65001 0.98092 0.0
C735 C 0.35068 0.65329 0.98147 0.0
C736 C 0.39869 0.67268 0.973 0.0
C737 C 0.41926 0.61975 0.98691 0.0
C738 C 0.42024 0.68326 0.98711 0.0
C739 C 0.43649 0.70603 0.98068 0.0
C740 C 0.43157 0.71895 0.96003 0.0
C741 C 0.41058 0.70804 0.94561 0.0
C742 C 0.39436 0.68518 0.95201 0.0
H743 H 0.4219 0.59811 0.98598 0.0
H744 H 0.4294 0.62939 0.97187 0.0
H745 H 0.43012 0.62741 1.00243 0.0
H746 H 0.4237 0.67466 1.00363 0.0
H747 H 0.45196 0.71445 0.99242 0.0
H748 H 0.71593 0.60459 0.05991 0.0
H749 H 0.67742 0.63046 0.04722 0.0
H750 H 0.69359 0.68497 0.10277 0.0
H751 H 0.73274 0.65945 0.11494 0.0
H752 H 0.62951 0.64448 0.06437 0.0
H753 H 0.69645 0.7362 0.05112 0.0
H754 H 0.71055 0.70483 0.05729 0.0
H755 H 0.69699 0.72435 0.07982 0.0
C756 C 0.71089 0.62184 0.06962 0.0
C757 C 0.72717 0.62985 0.08855 0.0
C758 C 0.68894 0.63677 0.06229 0.0
C759 C 0.68272 0.66021 0.07361 0.0
C760 C 0.69824 0.6675 0.09323 0.0
H761 H 0.56107 0.77898 0.04006 0.0
H762 H 0.59445 0.75242 0.06014 0.0
C763 C 0.72037 0.65266 0.10046 0.0
C764 C 0.66044 0.67705 0.06456 0.0
H765 H 0.64821 0.73949 0.04572 0.0
C766 C 0.63371 0.66525 0.06035 0.0
C767 C 0.66556 0.7043 0.05914 0.0
C768 C 0.69398 0.71815 0.06185 0.0
C769 C 0.61227 0.67972 0.05107 0.0
C770 C 0.61748 0.70685 0.0455 0.0
C771 C 0.644 0.7188 0.05006 0.0
C772 C 0.59623 0.72269 0.0338 0.0
C773 C 0.58405 0.66578 0.04747 0.0
C774 C 0.58598 0.71509 1.01224 0.0
C775 C 0.56699 0.73024 1.00075 0.0
C776 C 0.5576 0.75362 1.01037 0.0
C777 C 0.56757 0.76107 0.03214 0.0
C778 C 0.58683 0.74593 0.0436 0.0
H779 H 0.58103 0.64794 0.05841 0.0
H780 H 0.56724 0.67919 0.05106 0.0
H781 H 0.58212 0.65925 0.02949 0.0
H782 H 0.59306 0.69758 1.00403 0.0
H783 H 0.55967 0.72357 0.98418 0.0
H784 H 0.78567 0.48027 1.00798 0.0
H785 H 0.75638 0.44433 0.99045 0.0
H786 H 0.68645 0.46732 0.02965 0.0
H787 H 0.7153 0.50321 0.04689 0.0
H788 H 0.72849 0.40152 1.0074 0.0
H789 H 0.65142 0.46375 0.96815 0.0
H790 H 0.68359 0.47766 0.98002 0.0
H791 H 0.65428 0.46937 0.99816 0.0
C792 C 0.76403 0.47773 1.01283 0.0
C793 C 0.75288 0.49509 0.02864 0.0
C794 C 0.74722 0.45715 1.00272 0.0
C795 C 0.71882 0.45333 1.00816 0.0
C796 C 0.70791 0.47024 0.02439 0.0
H797 H 0.58719 0.33022 0.98622 0.0
H798 H 0.61575 0.37021 0.99723 0.0
C799 C 0.72458 0.49085 0.03434 0.0
C800 C 0.70078 0.43125 0.9976 0.0
H801 H 0.63853 0.41732 0.97051 0.0
C802 C 0.709 0.4051 0.99911 0.0
C803 C 0.6752 0.43562 0.98666 0.0
C804 C 0.66573 0.46315 0.98292 0.0
C805 C 0.69215 0.38341 0.99074 0.0
C806 C 0.66633 0.38778 0.98034 0.0
C807 C 0.65821 0.41387 0.97855 0.0
C808 C 0.64732 0.36536 0.97177 0.0
C809 C 0.70171 0.35579 0.99364 0.0
C810 C 0.65488 0.34981 0.95321 0.0
C811 C 0.6383 0.32723 0.94667 0.0
C812 C 0.61378 0.31973 0.95853 0.0
C813 C 0.60562 0.3359 0.97646 0.0
C814 C 0.62208 0.3586 0.98288 0.0
H815 H 0.71954 0.35527 1.00556 0.0
H816 H 0.68449 0.3422 1.00002 0.0
H817 H 0.70826 0.34821 0.97691 0.0
H818 H 0.67411 0.35465 0.94424 0.0
H819 H 0.64539 0.3148 0.93315 0.0
H820 H 0.44718 0.267 0.98954 0.0
H821 H 0.41435 0.29425 1.00845 0.0
H822 H 0.47902 0.32485 0.05365 0.0
H823 H 0.51256 0.29864 0.03387 0.0
H824 H 0.39406 0.2965 0.04938 0.0
H825 H 0.45065 0.39321 0.03286 0.0
H826 H 0.46056 0.36291 0.01991 0.0
H827 H 0.47066 0.37086 0.04871 0.0
C828 C 0.45472 0.27975 1.00329 0.0
C829 C 0.48297 0.28076 1.00973 0.0
C830 C 0.43568 0.29527 1.01431 0.0
C831 C 0.44404 0.31233 0.03227 0.0
C832 C 0.47194 0.31259 0.03945 0.0
H833 H 0.31427 0.38387 0.11534 0.0
H834 H 0.35314 0.35792 0.10325 0.0
C835 C 0.49114 0.29715 0.02829 0.0
C836 C 0.42337 0.32954 0.04327 0.0
H837 H 0.41075 0.39387 0.05612 0.0
C838 C 0.39784 0.31779 0.05089 0.0
C839 C 0.42778 0.3575 0.04505 0.0
C840 C 0.45375 0.37194 0.03601 0.0
C841 C 0.37684 0.33292 0.05998 0.0
C842 C 0.38151 0.36079 0.06227 0.0
C843 C 0.40707 0.37256 0.05473 0.0
C844 C 0.35959 0.37819 0.07108 0.0
C845 C 0.34938 0.31886 0.06616 0.0
C846 C 0.35103 0.39939 0.05784 0.0
C847 C 0.32924 0.41457 0.06502 0.0
C848 C 0.31542 0.40905 0.08567 0.0
C849 C 0.32463 0.38865 0.09942 0.0
C850 C 0.34662 0.37356 0.09231 0.0
H851 H 0.34642 0.2993 0.05761 0.0
H852 H 0.34874 0.31539 0.08477 0.0
H853 H 0.33177 0.33089 0.06148 0.0
H854 H 0.36056 0.40366 0.04148 0.0
H855 H 0.3224 0.43002 0.05398 0.0
H856 H 0.02249 0.62708 0.37685 0.0
H857 H 0.02306 0.57884 0.37813 0.0
H858 H 1.02164 0.58126 0.45134 0.0
H859 H 1.01985 0.62945 0.45023 0.0
H860 H 0.05873 0.54529 0.39606 0.0
H861 H 0.95681 0.52894 0.43882 0.0
H862 H 0.96875 0.56066 0.42729 0.0
H863 H 0.98127 0.55011 0.45442 0.0
C864 C 0.02212 0.61743 0.39328 0.0
C865 C 1.0208 0.63241 0.41343 0.0
C866 C 0.0226 0.58974 0.39397 0.0
C867 C 1.02171 0.57615 0.41481 0.0
C868 C 1.02159 0.59107 0.435 0.0
H869 H 0.02276 0.40752 0.44946 0.0
H870 H 1.02178 0.45587 0.4504 0.0
C871 C 1.02103 0.6188 0.43433 0.0
C872 C 1.02093 0.54647 0.41528 0.0
H873 H 0.98287 0.49116 0.43376 0.0
C874 C 0.04208 0.53351 0.40426 0.0
C875 C 0.99922 0.53087 0.42596 0.0
C876 C 0.97507 0.54329 0.43711 0.0
C877 C 0.04231 0.50566 0.40385 0.0
C878 C 1.02057 0.4901 0.41445 0.0
C879 C 0.99954 0.503 0.42564 0.0
C880 C 1.01928 0.46045 0.41392 0.0
C881 C 0.06616 0.49312 0.39237 0.0
C882 C 1.01723 0.44668 0.39318 0.0
C883 C 1.0175 0.41897 0.39258 0.0
C884 C 1.01979 0.40419 0.41274 0.0
C885 C 1.0207 0.41802 0.43358 0.0
C886 C 1.02035 0.44578 0.43415 0.0
H887 H 0.0844 0.50742 0.39029 0.0
H888 H 0.07264 0.47581 0.4022 0.0
H889 H 0.0595 0.48609 0.37523 0.0
H890 H 1.01565 0.45741 0.37735 0.0
H891 H 1.01616 0.40915 0.37622 0.0
H892 H 0.63748 1.01682 0.57917 0.0
H893 H 0.58756 1.00534 0.58323 0.0
H894 H 0.58555 0.0557 0.64233 0.0
H895 H 0.63531 0.06796 0.63758 0.0
H896 H 0.55392 0.98255 0.61307 0.0
H897 H 0.52621 0.08673 0.60594 0.0
H898 H 0.56102 0.077 0.60123 0.0
H899 H 0.54849 0.08148 0.62971 0.0
C900 C 0.62642 0.02499 0.59328 0.0
C901 C 0.6403 0.04312 0.60817 0.0
C902 C 0.59779 1.01857 0.59555 0.0
C903 C 0.58225 0.03012 0.61276 0.0
C904 C 0.59658 0.04708 0.62845 0.0
H905 H 0.40868 0.96856 0.63742 0.0
H906 H 0.45848 0.98081 0.642 0.0
C907 C 0.62519 0.05375 0.62601 0.0
C908 C 0.55115 0.02482 0.61379 0.0
H909 H 0.4895 0.05509 0.6146 0.0
C910 C 0.5399 0.99847 0.61345 0.0
C911 C 0.53247 0.04545 0.61384 0.0
C912 C 0.5426 0.07424 0.61246 0.0
C913 C 0.51095 0.99221 0.61317 0.0
C914 C 0.49227 1.01282 0.614 0.0
C915 C 0.50353 0.03917 0.61431 0.0
C916 C 0.46116 1.00755 0.61321 0.0
C917 C 0.50079 0.96348 0.61103 0.0
C918 C 0.44526 0.01974 0.59657 0.0
C919 C 0.4166 1.01333 0.59444 0.0
C920 C 0.40305 0.99455 0.60889 0.0
C921 C 0.41853 0.98328 0.62621 0.0
C922 C 0.44716 0.98995 0.62853 0.0
H923 H 0.51704 0.95125 0.60392 0.0
H924 H 0.49527 0.95557 0.62813 0.0
H925 H 0.48214 0.96114 0.59997 0.0
H926 H 0.45522 0.03347 0.58456 0.0
H927 H 0.40526 0.02199 0.58071 0.0
H928 H 0.50206 0.12829 0.97421 0.0
H929 H 0.49813 0.07971 0.97162 0.0
H930 H 0.55139 0.08329 0.91278 0.0
H931 H 0.55605 0.13174 0.91592 0.0
H932 H 0.47985 0.04337 0.94194 0.0
H933 H 0.59293 0.03436 0.95147 0.0
H934 H 0.57706 0.06536 0.95536 0.0
H935 H 0.5845 0.05375 0.92721 0.0
C936 C 0.51257 0.11867 0.96053 0.0
C937 C 0.52943 0.13389 0.94533 0.0
C938 C 0.51045 0.09083 0.95909 0.0
C939 C 0.52509 0.07742 0.94238 0.0
C940 C 0.54058 0.0928 0.92633 0.0
H941 H 0.49007 0.90635 0.91591 0.0
H942 H 0.49486 0.95476 0.91264 0.0
C943 C 0.54289 0.12062 0.92789 0.0
C944 C 0.52448 0.04753 0.94207 0.0
H945 H 0.56597 0.99485 0.94257 0.0
C946 C 0.49873 0.03283 0.94206 0.0
C947 C 0.549 0.03339 0.94269 0.0
C948 C 0.57742 0.04749 0.94443 0.0
C949 C 0.49681 1.00482 0.9424 0.0
C950 C 0.52134 0.99068 0.94215 0.0
C951 C 0.54708 1.00538 0.94241 0.0
C952 C 0.52072 0.9608 0.94255 0.0
C953 C 0.46837 0.99074 0.94383 0.0
C954 C 0.5351 0.94748 0.9595 0.0
C955 C 0.53291 0.91965 0.96103 0.0
C956 C 0.51623 0.90434 0.94568 0.0
C957 C 0.50307 0.91752 0.92801 0.0
C958 C 0.50546 0.94532 0.92636 0.0
H959 H 0.45276 1.00391 0.95062 0.0
H960 H 0.46154 0.98438 0.92655 0.0
H961 H 0.46856 0.97293 0.95483 0.0
H962 H 0.54725 0.95867 0.97213 0.0
H963 H 0.54318 0.91011 0.97488 0.0
H964 H 0.12869 0.46904 0.13564 0.0
H965 H 0.07992 0.47968 0.13943 0.0
H966 H 0.09159 0.53823 0.0865 0.0
H967 H 0.1406 0.52821 0.08345 0.0
H968 H 0.05803 0.55615 0.11693 0.0
H969 H 1.01953 0.45324 0.09781 0.0
H970 H 0.04076 0.45538 0.12285 0.0
H971 H 0.05572 0.46405 0.09561 0.0
C972 C 0.12095 0.48464 0.12526 0.0
C973 C 0.13859 0.49804 0.10948 0.0
C974 C 0.09286 0.49043 0.1271 0.0
C975 C 0.08142 0.50932 0.1128 0.0
C976 C 0.09949 0.52348 0.09771 0.0
H977 H 0.90599 0.51746 0.07682 0.0
H978 H 0.95485 0.5073 0.08052 0.0
C979 C 0.12765 0.51789 0.09605 0.0
C980 C 0.05074 0.51399 0.11312 0.0
H981 H 0.9857 0.48277 0.10871 0.0
C982 C 0.04228 0.54003 0.11516 0.0
C983 C 0.02978 0.4932 0.11036 0.0
C984 C 0.03685 0.46495 0.10629 0.0
C985 C 1.01396 0.5458 0.11462 0.0
C986 C 0.99296 0.52492 0.11268 0.0
C987 C 1.00144 0.49889 0.11055 0.0
C988 C 0.96232 0.52969 0.11156 0.0
C989 C 1.00702 0.57447 0.11525 0.0
C990 C 0.94936 0.54489 0.12813 0.0
C991 C 0.92132 0.55084 0.12589 0.0
C992 C 0.90531 0.54132 0.10729 0.0
C993 C 0.91772 0.52491 0.09144 0.0
C994 C 0.94579 0.51921 0.09352 0.0
H995 H 0.02494 0.58788 0.10991 0.0
H996 H 0.98912 0.57802 0.10402 0.0
H997 H 1.00158 0.57986 0.1329 0.0
H998 H 0.96104 0.55258 0.14267 0.0
H999 H 0.91238 0.56358 0.13834 0.0
loop_
_geom_bond_atom_site_label_1
_geom_bond_atom_site_label_2
_geom_bond_distance
_geom_bond_site_symmetry_2
_ccdc_geom_bond_type
C0 C1 1.443 . S
C0 N4 1.376 . S
C0 C38 1.389 . S
C1 C0 1.443 . S
C1 C2 1.340 . S
C1 H41 0.951 . S
C2 C1 1.340 . S
C2 C3 1.439 . S
C2 H42 0.950 . S
C3 C2 1.439 . S
C3 N4 1.374 . S
C3 C37 1.395 . S
N4 C0 1.376 . S
N4 C3 1.374 . S
N4 Co5 2.008 . S
Co5 N4 2.008 . S
Co5 N6 1.995 . S
Co5 N11 2.008 . S
Co5 N16 1.995 . S
Co5 N21 2.282 . S
Co5 N27 2.282 . S
N6 Co5 1.995 . S
N6 C7 1.376 . S
N6 C10 1.383 . S
C7 N6 1.376 . S
C7 C8 1.446 . S
C7 C37 1.391 . S
C8 C7 1.446 . S
C8 C9 1.339 . S
C8 H43 0.949 . S
C9 C8 1.339 . S
C9 C10 1.439 . S
C9 H44 0.950 . S
C10 N6 1.383 . S
C10 C9 1.439 . S
C10 C39 1.392 1_455 S
N11 Co5 2.008 . S
N11 C12 1.376 1_455 S
N11 C15 1.374 1_455 S
C12 N11 1.376 1_655 S
C12 C13 1.443 . S
C12 C39 1.389 . S
C13 C12 1.443 . S
C13 C14 1.340 . S
C13 H45 0.951 . S
C14 C13 1.340 . S
C14 C15 1.439 . S
C14 H46 0.950 . S
C15 N11 1.374 1_655 S
C15 C14 1.439 . S
C15 C40 1.404 . S
N16 Co5 1.995 . S
N16 C17 1.376 . S
N16 C20 1.383 . S
C17 N16 1.376 . S
C17 C18 1.446 . S
C17 C40 1.370 1_455 S
C18 C17 1.446 . S
C18 C19 1.339 . S
C18 H47 0.949 . S
C19 C18 1.339 . S
C19 C20 1.439 . S
C19 H48 0.950 . S
C20 N16 1.383 . S
C20 C19 1.439 . S
C20 C38 1.392 . S
N21 Co5 2.282 . S
N21 C24 1.332 . S
N21 C26 1.332 . S
C22 C23 1.386 . S
C22 C25 1.388 . S
C23 C22 1.386 . S
C23 C24 1.382 . S
C23 H49 0.950 . S
C24 N21 1.332 . S
C24 C23 1.382 . S
C24 H35 0.952 . S
C25 C22 1.388 . S
C25 C26 1.382 . S
C25 H50 0.950 . S
C26 N21 1.332 . S
C26 C25 1.382 . S
C26 H36 0.948 . S
N27 Co5 2.282 . S
N27 C31 1.332 . S
N27 C32 1.332 . S
C28 C29 1.388 . S
C28 C32 1.382 1_655 S
C28 H51 0.950 . S
C29 C28 1.388 . S
C29 C30 1.386 1_655 S
C30 C29 1.386 1_455 S
C30 C31 1.382 . S
C30 H52 0.950 . S
C31 N27 1.332 . S
C31 C30 1.382 . S
C31 H33 0.952 . S
C32 N27 1.332 . S
C32 C28 1.382 1_455 S
C32 H34 0.944 1_455 S
H33 C31 0.952 . S
H34 C32 0.944 1_655 S
H35 C24 0.952 . S
H36 C26 0.948 . S
C37 C3 1.395 . S
C37 C7 1.391 . S
C38 C0 1.389 . S
C38 C20 1.392 . S
C39 C10 1.392 1_655 S
C39 C12 1.389 . S
C40 C15 1.404 . S
C40 C17 1.370 1_655 S
H41 C1 0.951 . S
H42 C2 0.950 . S
H43 C8 0.949 . S
H44 C9 0.950 . S
H45 C13 0.951 . S
H46 C14 0.950 . S
H47 C18 0.949 . S
H48 C19 0.950 . S
H49 C23 0.950 . S
H50 C25 0.950 . S
H51 C28 0.950 . S
H52 C30 0.950 . S
C53 C54 1.443 . S
C53 N57 1.376 . S
C53 C91 1.389 . S
C54 C53 1.443 . S
C54 C55 1.340 . S
C54 H94 0.951 . S
C55 C54 1.340 . S
C55 C56 1.439 . S
C55 H95 0.950 . S
C56 C55 1.439 . S
C56 N57 1.374 . S
C56 C90 1.395 . S
N57 C53 1.376 . S
N57 C56 1.374 . S
N57 Co58 2.008 . S
Co58 N57 2.008 . S
Co58 N59 1.995 . S
Co58 N64 2.008 . S
Co58 N69 1.995 . S
Co58 N74 2.282 . S
Co58 N80 2.282 . S
N59 Co58 1.995 . S
N59 C60 1.376 . S
N59 C63 1.383 . S
C60 N59 1.376 . S
C60 C61 1.446 . S
C60 C90 1.391 . S
C61 C60 1.446 . S
C61 C62 1.339 . S
C61 H96 0.949 . S
C62 C61 1.339 . S
C62 C63 1.439 . S
C62 H97 0.950 . S
C63 N59 1.383 . S
C63 C62 1.439 . S
C63 C92 1.392 . S
N64 Co58 2.008 . S
N64 C65 1.376 . S
N64 C68 1.374 . S
C65 N64 1.376 . S
C65 C66 1.443 . S
C65 C92 1.389 . S
C66 C65 1.443 . S
C66 C67 1.340 . S
C66 H98 0.951 . S
C67 C66 1.340 . S
C67 C68 1.439 . S
C67 H99 0.950 . S
C68 N64 1.374 . S
C68 C67 1.439 . S
C68 C93 1.395 . S
N69 Co58 1.995 . S
N69 C70 1.376 . S
N69 C73 1.383 . S
C70 N69 1.376 . S
C70 C71 1.446 . S
C70 C93 1.391 . S
C71 C70 1.446 . S
C71 C72 1.339 . S
C71 H100 0.949 1_565 S
C72 C71 1.339 . S
C72 C73 1.439 . S
C72 H101 0.950 1_565 S
C73 N69 1.383 . S
C73 C72 1.439 . S
C73 C91 1.392 . S
N74 Co58 2.282 . S
N74 C77 1.332 . S
N74 C79 1.332 . S
C75 C76 1.386 1_565 S
C75 C78 1.388 . S
C76 C75 1.386 1_545 S
C76 C77 1.382 1_545 S
C76 H102 0.950 . S
C77 N74 1.332 . S
C77 C76 1.382 1_565 S
C77 H88 0.952 . S
C78 C75 1.388 . S
C78 C79 1.382 . S
C78 H103 0.950 . S
C79 N74 1.332 . S
C79 C78 1.382 . S
C79 H89 0.948 . S
N80 Co58 2.282 . S
N80 C84 1.332 . S
N80 C85 1.332 . S
C81 C82 1.388 . S
C81 C85 1.382 . S
C81 H104 0.950 . S
C82 C81 1.388 . S
C82 C83 1.386 . S
C83 C82 1.386 . S
C83 C84 1.382 . S
C83 H105 0.950 . S
C84 N80 1.332 . S
C84 C83 1.382 . S
C84 H86 0.952 . S
C85 N80 1.332 . S
C85 C81 1.382 . S
C85 H87 0.948 . S
H86 C84 0.952 . S
H87 C85 0.948 . S
H88 C77 0.952 . S
H89 C79 0.948 . S
C90 C56 1.395 . S
C90 C60 1.391 . S
C91 C53 1.389 . S
C91 C73 1.392 . S
C92 C63 1.392 . S
C92 C65 1.389 . S
C93 C68 1.395 . S
C93 C70 1.391 . S
H94 C54 0.951 . S
H95 C55 0.950 . S
H96 C61 0.949 . S
H97 C62 0.950 . S
H98 C66 0.951 . S
H99 C67 0.950 . S
H100 C71 0.949 1_545 S
H101 C72 0.950 1_545 S
H102 C76 0.950 . S
H103 C78 0.950 . S
H104 C81 0.950 . S
H105 C83 0.950 . S
C106 C107 1.443 . S
C106 N110 1.376 . S
C106 C144 1.389 . S
C107 C106 1.443 . S
C107 C108 1.340 . S
C107 H147 0.951 . S
C108 C107 1.340 . S
C108 C109 1.439 . S
C108 H148 0.950 . S
C109 C108 1.439 . S
C109 N110 1.374 . S
C109 C143 1.395 . S
N110 C106 1.376 . S
N110 C109 1.374 . S
N110 Co111 2.008 . S
Co111 N110 2.008 . S
Co111 N112 1.995 . S
Co111 N117 2.008 . S
Co111 N122 1.995 . S
Co111 N127 2.282 . S
Co111 N133 2.282 . S
N112 Co111 1.995 . S
N112 C113 1.376 . S
N112 C116 1.383 . S
C113 N112 1.376 . S
C113 C114 1.446 . S
C113 C143 1.391 . S
C114 C113 1.446 . S
C114 C115 1.339 . S
C114 H149 0.949 . S
C115 C114 1.339 . S
C115 C116 1.439 . S
C115 H150 0.950 . S
C116 N112 1.383 . S
C116 C115 1.439 . S
C116 C145 1.392 1_655 S
N117 Co111 2.008 . S
N117 C118 1.376 1_655 S
N117 C121 1.374 1_655 S
C118 N117 1.376 1_455 S
C118 C119 1.443 . S
C118 C145 1.389 . S
C119 C118 1.443 . S
C119 C120 1.340 . S
C119 H151 0.951 . S
C120 C119 1.340 . S
C120 C121 1.439 . S
C120 H152 0.950 . S
C121 N117 1.374 1_455 S
C121 C120 1.439 . S
C121 C146 1.404 . S
N122 Co111 1.995 . S
N122 C123 1.376 . S
N122 C126 1.383 . S
C123 N122 1.376 . S
C123 C124 1.446 . S
C123 C146 1.370 1_655 S
C124 C123 1.446 . S
C124 C125 1.339 . S
C124 H153 0.949 . S
C125 C124 1.339 . S
C125 C126 1.439 . S
C125 H154 0.950 . S
C126 N122 1.383 . S
C126 C125 1.439 . S
C126 C144 1.392 . S
N127 Co111 2.282 . S
N127 C130 1.332 . S
N127 C132 1.332 . S
C128 C129 1.386 . S
C128 C131 1.388 . S
C129 C128 1.386 . S
C129 C130 1.382 . S
C129 H155 0.950 . S
C130 N127 1.332 . S
C130 C129 1.382 . S
C130 H141 0.952 . S
C131 C128 1.388 . S
C131 C132 1.382 . S
C131 H156 0.950 . S
C132 N127 1.332 . S
C132 C131 1.382 . S
C132 H142 0.948 . S
N133 Co111 2.282 . S
N133 C137 1.332 . S
N133 C138 1.332 . S
C134 C135 1.388 . S
C134 C138 1.382 1_455 S
C134 H157 0.950 . S
C135 C134 1.388 . S
C135 C136 1.386 1_455 S
C136 C135 1.386 1_655 S
C136 C137 1.382 . S
C136 H158 0.950 . S
C137 N133 1.332 . S
C137 C136 1.382 . S
C137 H139 0.952 . S
C138 N133 1.332 . S
C138 C134 1.382 1_655 S
C138 H140 0.944 1_655 S
H139 C137 0.952 . S
H140 C138 0.944 1_455 S
H141 C130 0.952 . S
H142 C132 0.948 . S
C143 C109 1.395 . S
C143 C113 1.391 . S
C144 C106 1.389 . S
C144 C126 1.392 . S
C145 C116 1.392 1_455 S
C145 C118 1.389 . S
C146 C121 1.404 . S
C146 C123 1.370 1_455 S
H147 C107 0.951 . S
H148 C108 0.950 . S
H149 C114 0.949 . S
H150 C115 0.950 . S
H151 C119 0.951 . S
H152 C120 0.950 . S
H153 C124 0.949 . S
H154 C125 0.950 . S
H155 C129 0.950 . S
H156 C131 0.950 . S
H157 C134 0.950 . S
H158 C136 0.950 . S
C159 C160 1.443 . S
C159 N163 1.376 . S
C159 C197 1.389 . S
C160 C159 1.443 . S
C160 C161 1.340 . S
C160 H200 0.951 . S
C161 C160 1.340 . S
C161 C162 1.439 . S
C161 H201 0.950 . S
C162 C161 1.439 . S
C162 N163 1.374 . S
C162 C196 1.395 . S
N163 C159 1.376 . S
N163 C162 1.374 . S
N163 Co164 2.008 . S
Co164 N163 2.008 . S
Co164 N165 1.995 . S
Co164 N170 2.008 . S
Co164 N175 1.995 . S
Co164 N180 2.282 . S
Co164 N186 2.282 . S
N165 Co164 1.995 . S
N165 C166 1.376 . S
N165 C169 1.383 . S
C166 N165 1.376 . S
C166 C167 1.446 . S
C166 C196 1.391 . S
C167 C166 1.446 . S
C167 C168 1.339 . S
C167 H202 0.949 . S
C168 C167 1.339 . S
C168 C169 1.439 . S
C168 H203 0.950 . S
C169 N165 1.383 . S
C169 C168 1.439 . S
C169 C198 1.392 . S
N170 Co164 2.008 . S
N170 C171 1.376 . S
N170 C174 1.374 . S
C171 N170 1.376 . S
C171 C172 1.443 . S
C171 C198 1.389 . S
C172 C171 1.443 . S
C172 C173 1.340 . S
C172 H204 0.951 . S
C173 C172 1.340 . S
C173 C174 1.439 . S
C173 H205 0.950 . S
C174 N170 1.374 . S
C174 C173 1.439 . S
C174 C199 1.395 . S
N175 Co164 1.995 . S
N175 C176 1.376 . S
N175 C179 1.383 . S
C176 N175 1.376 . S
C176 C177 1.446 . S
C176 C199 1.391 . S
C177 C176 1.446 . S
C177 C178 1.339 . S
C177 H206 0.949 1_545 S
C178 C177 1.339 . S
C178 C179 1.439 . S
C178 H207 0.950 1_545 S
C179 N175 1.383 . S
C179 C178 1.439 . S
C179 C197 1.392 . S
N180 Co164 2.282 . S
N180 C183 1.332 . S
N180 C185 1.332 . S
C181 C182 1.386 1_545 S
C181 C184 1.388 . S
C182 C181 1.386 1_565 S
C182 C183 1.382 1_565 S
C182 H208 0.950 . S
C183 N180 1.332 . S
C183 C182 1.382 1_545 S
C183 H194 0.952 . S
C184 C181 1.388 . S
C184 C185 1.382 . S
C184 H209 0.950 . S
C185 N180 1.332 . S
C185 C184 1.382 . S
C185 H195 0.948 . S
N186 Co164 2.282 . S
N186 C190 1.332 . S
N186 C191 1.332 . S
C187 C188 1.388 . S
C187 C191 1.382 . S
C187 H210 0.950 . S
C188 C187 1.388 . S
C188 C189 1.386 . S
C189 C188 1.386 . S
C189 C190 1.382 . S
C189 H211 0.950 . S
C190 N186 1.332 . S
C190 C189 1.382 . S
C190 H192 0.952 . S
C191 N186 1.332 . S
C191 C187 1.382 . S
C191 H193 0.948 . S
H192 C190 0.952 . S
H193 C191 0.948 . S
H194 C183 0.952 . S
H195 C185 0.948 . S
C196 C162 1.395 . S
C196 C166 1.391 . S
C197 C159 1.389 . S
C197 C179 1.392 . S
C198 C169 1.392 . S
C198 C171 1.389 . S
C199 C174 1.395 . S
C199 C176 1.391 . S
H200 C160 0.951 . S
H201 C161 0.950 . S
H202 C167 0.949 . S
H203 C168 0.950 . S
H204 C172 0.951 . S
H205 C173 0.950 . S
H206 C177 0.949 1_565 S
H207 C178 0.950 1_565 S
H208 C182 0.950 . S
H209 C184 0.950 . S
H210 C187 0.950 . S
H211 C189 0.950 . S
C212 C213 1.443 . S
C212 N216 1.376 . S
C212 C250 1.389 . S
C213 C212 1.443 . S
C213 C214 1.340 . S
C213 H253 0.951 . S
C214 C213 1.340 . S
C214 C215 1.439 . S
C214 H254 0.950 . S
C215 C214 1.439 . S
C215 N216 1.374 . S
C215 C249 1.395 . S
N216 C212 1.376 . S
N216 C215 1.374 . S
N216 Co217 2.008 . S
Co217 N216 2.008 . S
Co217 N218 1.995 . S
Co217 N223 2.008 . S
Co217 N228 1.995 . S
Co217 N233 2.282 . S
Co217 N239 2.282 . S
N218 Co217 1.995 . S
N218 C219 1.376 . S
N218 C222 1.383 . S
C219 N218 1.376 . S
C219 C220 1.446 . S
C219 C249 1.391 . S
C220 C219 1.446 . S
C220 C221 1.339 . S
C220 H255 0.949 . S
C221 C220 1.339 . S
C221 C222 1.439 . S
C221 H256 0.950 . S
C222 N218 1.383 . S
C222 C221 1.439 . S
C222 C251 1.392 . S
N223 Co217 2.008 . S
N223 C224 1.376 . S
N223 C227 1.374 . S
C224 N223 1.376 . S
C224 C225 1.443 . S
C224 C251 1.389 . S
C225 C224 1.443 . S
C225 C226 1.340 . S
C225 H257 0.951 . S
C226 C225 1.340 . S
C226 C227 1.439 . S
C226 H258 0.950 . S
C227 N223 1.374 . S
C227 C226 1.439 . S
C227 C252 1.395 . S
N228 Co217 1.995 . S
N228 C229 1.376 . S
N228 C232 1.383 . S
C229 N228 1.376 . S
C229 C230 1.446 . S
C229 C252 1.391 . S
C230 C229 1.446 . S
C230 C231 1.339 . S
C230 H259 0.949 . S
C231 C230 1.339 . S
C231 C232 1.439 . S
C231 H260 0.950 . S
C232 N228 1.383 . S
C232 C231 1.439 . S
C232 C250 1.392 . S
N233 Co217 2.282 . S
N233 C236 1.332 . S
N233 C238 1.332 . S
C234 C235 1.386 . S
C234 C237 1.388 . S
C235 C234 1.386 . S
C235 C236 1.382 . S
C235 H261 0.950 . S
C236 N233 1.332 . S
C236 C235 1.382 . S
C236 H247 0.952 . S
C237 C234 1.388 . S
C237 C238 1.382 . S
C237 H262 0.950 . S
C238 N233 1.332 . S
C238 C237 1.382 . S
C238 H248 0.948 . S
N239 Co217 2.282 . S
N239 C243 1.332 . S
N239 C244 1.332 . S
C240 C241 1.388 . S
C240 C244 1.382 . S
C240 H263 0.950 . S
C241 C240 1.388 . S
C241 C242 1.386 . S
C242 C241 1.386 . S
C242 C243 1.382 . S
C242 H264 0.950 1_556 S
C243 N239 1.332 . S
C243 C242 1.382 . S
C243 H245 0.952 . S
C244 N239 1.332 . S
C244 C240 1.382 . S
C244 H246 0.948 . S
H245 C243 0.952 . S
H246 C244 0.948 . S
H247 C236 0.952 . S
H248 C238 0.948 . S
C249 C215 1.395 . S
C249 C219 1.391 . S
C250 C212 1.389 . S
C250 C232 1.392 . S
C251 C222 1.392 . S
C251 C224 1.389 . S
C252 C227 1.395 . S
C252 C229 1.391 . S
H253 C213 0.951 . S
H254 C214 0.950 . S
H255 C220 0.949 . S
H256 C221 0.950 . S
H257 C225 0.951 . S
H258 C226 0.950 . S
H259 C230 0.949 . S
H260 C231 0.950 . S
H261 C235 0.950 . S
H262 C237 0.950 . S
H263 C240 0.950 . S
H264 C242 0.950 1_554 S
C265 C266 1.443 . S
C265 N269 1.376 . S
C265 C303 1.389 . S
C266 C265 1.443 . S
C266 C267 1.340 . S
C266 H306 0.951 . S
C267 C266 1.340 . S
C267 C268 1.439 . S
C267 H307 0.950 . S
C268 C267 1.439 . S
C268 N269 1.374 . S
C268 C302 1.395 . S
N269 C265 1.376 . S
N269 C268 1.374 . S
N269 Co270 2.008 . S
Co270 N269 2.008 . S
Co270 N271 1.995 . S
Co270 N276 2.008 . S
Co270 N281 1.995 . S
Co270 N286 2.282 . S
Co270 N292 2.282 . S
N271 Co270 1.995 . S
N271 C272 1.376 . S
N271 C275 1.383 . S
C272 N271 1.376 . S
C272 C273 1.446 . S
C272 C302 1.391 . S
C273 C272 1.446 . S
C273 C274 1.339 . S
C273 H308 0.949 . S
C274 C273 1.339 . S
C274 C275 1.439 . S
C274 H309 0.950 . S
C275 N271 1.383 . S
C275 C274 1.439 . S
C275 C304 1.392 . S
N276 Co270 2.008 . S
N276 C277 1.376 . S
N276 C280 1.374 . S
C277 N276 1.376 . S
C277 C278 1.443 . S
C277 C304 1.389 . S
C278 C277 1.443 . S
C278 C279 1.340 . S
C278 H310 0.951 . S
C279 C278 1.340 . S
C279 C280 1.439 . S
C279 H311 0.950 . S
C280 N276 1.374 . S
C280 C279 1.439 . S
C280 C305 1.395 . S
N281 Co270 1.995 . S
N281 C282 1.376 . S
N281 C285 1.383 . S
C282 N281 1.376 . S
C282 C283 1.446 . S
C282 C305 1.391 . S
C283 C282 1.446 . S
C283 C284 1.339 . S
C283 H312 0.949 . S
C284 C283 1.339 . S
C284 C285 1.439 . S
C284 H313 0.950 . S
C285 N281 1.383 . S
C285 C284 1.439 . S
C285 C303 1.392 . S
N286 Co270 2.282 . S
N286 C289 1.332 . S
N286 C291 1.332 . S
C287 C288 1.386 . S
C287 C290 1.388 . S
C288 C287 1.386 . S
C288 C289 1.382 . S
C288 H314 0.950 . S
C289 N286 1.332 . S
C289 C288 1.382 . S
C289 H300 0.952 . S
C290 C287 1.388 . S
C290 C291 1.382 . S
C290 H315 0.950 . S
C291 N286 1.332 . S
C291 C290 1.382 . S
C291 H301 0.948 . S
N292 Co270 2.282 . S
N292 C296 1.332 . S
N292 C297 1.332 . S
C293 C294 1.388 . S
C293 C297 1.382 . S
C293 H316 0.950 . S
C294 C293 1.388 . S
C294 C295 1.386 . S
C295 C294 1.386 . S
C295 C296 1.382 . S
C295 H317 0.950 . S
C296 N292 1.332 . S
C296 C295 1.382 . S
C296 H298 0.952 . S
C297 N292 1.332 . S
C297 C293 1.382 . S
C297 H299 0.948 . S
H298 C296 0.952 . S
H299 C297 0.948 . S
H300 C289 0.952 . S
H301 C291 0.948 . S
C302 C268 1.395 . S
C302 C272 1.391 . S
C303 C265 1.389 . S
C303 C285 1.392 . S
C304 C275 1.392 . S
C304 C277 1.389 . S
C305 C280 1.395 . S
C305 C282 1.391 . S
H306 C266 0.951 . S
H307 C267 0.950 . S
H308 C273 0.949 . S
H309 C274 0.950 . S
H310 C278 0.951 . S
H311 C279 0.950 . S
H312 C283 0.949 . S
H313 C284 0.950 . S
H314 C288 0.950 . S
H315 C290 0.950 . S
H316 C293 0.950 . S
H317 C295 0.950 . S
C318 C319 1.443 . S
C318 N322 1.376 . S
C318 C356 1.389 . S
C319 C318 1.443 . S
C319 C320 1.340 . S
C319 H359 0.951 . S
C320 C319 1.340 . S
C320 C321 1.439 . S
C320 H360 0.950 . S
C321 C320 1.439 . S
C321 N322 1.374 . S
C321 C355 1.395 . S
N322 C318 1.376 . S
N322 C321 1.374 . S
N322 Co323 2.008 . S
Co323 N322 2.008 . S
Co323 N324 1.995 . S
Co323 N329 2.008 . S
Co323 N334 1.995 . S
Co323 N339 2.282 . S
Co323 N345 2.282 . S
N324 Co323 1.995 . S
N324 C325 1.376 . S
N324 C328 1.383 . S
C325 N324 1.376 . S
C325 C326 1.446 . S
C325 C355 1.391 . S
C326 C325 1.446 . S
C326 C327 1.339 . S
C326 H361 0.949 . S
C327 C326 1.339 . S
C327 C328 1.439 . S
C327 H362 0.950 . S
C328 N324 1.383 . S
C328 C327 1.439 . S
C328 C357 1.392 . S
N329 Co323 2.008 . S
N329 C330 1.376 . S
N329 C333 1.374 . S
C330 N329 1.376 . S
C330 C331 1.443 . S
C330 C357 1.389 . S
C331 C330 1.443 . S
C331 C332 1.340 . S
C331 H363 0.951 . S
C332 C331 1.340 . S
C332 C333 1.439 . S
C332 H364 0.950 . S
C333 N329 1.374 . S
C333 C332 1.439 . S
C333 C358 1.395 . S
N334 Co323 1.995 . S
N334 C335 1.376 . S
N334 C338 1.383 . S
C335 N334 1.376 . S
C335 C336 1.446 . S
C335 C358 1.391 . S
C336 C335 1.446 . S
C336 C337 1.339 . S
C336 H365 0.949 . S
C337 C336 1.339 . S
C337 C338 1.439 . S
C337 H366 0.950 . S
C338 N334 1.383 . S
C338 C337 1.439 . S
C338 C356 1.392 . S
N339 Co323 2.282 . S
N339 C342 1.332 . S
N339 C344 1.332 . S
C340 C341 1.386 . S
C340 C343 1.388 . S
C341 C340 1.386 . S
C341 C342 1.382 . S
C341 H367 0.950 . S
C342 N339 1.332 . S
C342 C341 1.382 . S
C342 H353 0.952 . S
C343 C340 1.388 . S
C343 C344 1.382 . S
C343 H368 0.950 . S
C344 N339 1.332 . S
C344 C343 1.382 . S
C344 H354 0.948 . S
N345 Co323 2.282 . S
N345 C349 1.332 . S
N345 C350 1.332 . S
C346 C347 1.388 . S
C346 C350 1.382 . S
C346 H369 0.950 . S
C347 C346 1.388 . S
C347 C348 1.386 . S
C348 C347 1.386 . S
C348 C349 1.382 . S
C348 H370 0.950 1_556 S
C349 N345 1.332 . S
C349 C348 1.382 . S
C349 H351 0.952 . S
C350 N345 1.332 . S
C350 C346 1.382 . S
C350 H352 0.948 . S
H351 C349 0.952 . S
H352 C350 0.948 . S
H353 C342 0.952 . S
H354 C344 0.948 . S
C355 C321 1.395 . S
C355 C325 1.391 . S
C356 C318 1.389 . S
C356 C338 1.392 . S
C357 C328 1.392 . S
C357 C330 1.389 . S
C358 C333 1.395 . S
C358 C335 1.391 . S
H359 C319 0.951 . S
H360 C320 0.950 . S
H361 C326 0.949 . S
H362 C327 0.950 . S
H363 C331 0.951 . S
H364 C332 0.950 . S
H365 C336 0.949 . S
H366 C337 0.950 . S
H367 C341 0.950 . S
H368 C343 0.950 . S
H369 C346 0.950 . S
H370 C348 0.950 1_554 S
C371 C372 1.443 . S
C371 N375 1.376 . S
C371 C409 1.389 . S
C372 C371 1.443 . S
C372 C373 1.340 . S
C372 H412 0.951 . S
C373 C372 1.340 . S
C373 C374 1.439 . S
C373 H413 0.950 . S
C374 C373 1.439 . S
C374 N375 1.374 . S
C374 C408 1.395 . S
N375 C371 1.376 . S
N375 C374 1.374 . S
N375 Co376 2.008 . S
Co376 N375 2.008 . S
Co376 N377 1.995 . S
Co376 N382 2.008 . S
Co376 N387 1.995 . S
Co376 N392 2.282 . S
Co376 N398 2.282 . S
N377 Co376 1.995 . S
N377 C378 1.376 . S
N377 C381 1.383 . S
C378 N377 1.376 . S
C378 C379 1.446 . S
C378 C408 1.391 . S
C379 C378 1.446 . S
C379 C380 1.339 . S
C379 H414 0.949 . S
C380 C379 1.339 . S
C380 C381 1.439 . S
C380 H415 0.950 . S
C381 N377 1.383 . S
C381 C380 1.439 . S
C381 C410 1.392 . S
N382 Co376 2.008 . S
N382 C383 1.376 . S
N382 C386 1.374 . S
C383 N382 1.376 . S
C383 C384 1.443 . S
C383 C410 1.389 . S
C384 C383 1.443 . S
C384 C385 1.340 . S
C384 H416 0.951 . S
C385 C384 1.340 . S
C385 C386 1.439 . S
C385 H417 0.950 . S
C386 N382 1.374 . S
C386 C385 1.439 . S
C386 C411 1.395 . S
N387 Co376 1.995 . S
N387 C388 1.376 . S
N387 C391 1.383 . S
C388 N387 1.376 . S
C388 C389 1.446 . S
C388 C411 1.391 . S
C389 C388 1.446 . S
C389 C390 1.339 . S
C389 H418 0.949 . S
C390 C389 1.339 . S
C390 C391 1.439 . S
C390 H419 0.950 . S
C391 N387 1.383 . S
C391 C390 1.439 . S
C391 C409 1.392 . S
N392 Co376 2.282 . S
N392 C395 1.332 . S
N392 C397 1.332 . S
C393 C394 1.386 . S
C393 C396 1.388 . S
C394 C393 1.386 . S
C394 C395 1.382 . S
C394 H420 0.950 . S
C395 N392 1.332 . S
C395 C394 1.382 . S
C395 H406 0.952 . S
C396 C393 1.388 . S
C396 C397 1.382 . S
C396 H421 0.950 . S
C397 N392 1.332 . S
C397 C396 1.382 . S
C397 H407 0.948 . S
N398 Co376 2.282 . S
N398 C402 1.332 . S
N398 C403 1.332 . S
C399 C400 1.388 . S
C399 C403 1.382 . S
C399 H422 0.950 . S
C400 C399 1.388 . S
C400 C401 1.386 . S
C401 C400 1.386 . S
C401 C402 1.382 . S
C401 H423 0.950 . S
C402 N398 1.332 . S
C402 C401 1.382 . S
C402 H404 0.952 . S
C403 N398 1.332 . S
C403 C399 1.382 . S
C403 H405 0.948 . S
H404 C402 0.952 . S
H405 C403 0.948 . S
H406 C395 0.952 . S
H407 C397 0.948 . S
C408 C374 1.395 . S
C408 C378 1.391 . S
C409 C371 1.389 . S
C409 C391 1.392 . S
C410 C381 1.392 . S
C410 C383 1.389 . S
C411 C386 1.395 . S
C411 C388 1.391 . S
H412 C372 0.951 . S
H413 C373 0.950 . S
H414 C379 0.949 . S
H415 C380 0.950 . S
H416 C384 0.951 . S
H417 C385 0.950 . S
H418 C389 0.949 . S
H419 C390 0.950 . S
H420 C394 0.950 . S
H421 C396 0.950 . S
H422 C399 0.950 . S
H423 C401 0.950 . S
H424 C432 0.929 . S
H425 C434 0.930 . S
H426 C436 0.930 . S
H427 C439 0.929 . S
H428 C442 0.930 . S
H429 C444 0.960 . S
H430 C444 0.960 . S
H431 C444 0.960 . S
C432 H424 0.929 . S
C432 C433 1.377 . S
C432 C434 1.384 . S
C433 C432 1.377 . S
C433 C439 1.390 . S
C434 H425 0.930 . S
C434 C432 1.384 . S
C434 C435 1.372 . S
C435 C434 1.372 . S
C435 C436 1.400 . S
C435 C440 1.490 . S
C436 H426 0.930 . S
C436 C435 1.400 . S
C436 C439 1.386 . S
H437 C453 0.930 . S
H438 C454 0.931 . S
C439 H427 0.929 . S
C439 C433 1.390 . S
C439 C436 1.386 . S
C440 C435 1.490 . S
C440 C442 1.395 . S
C440 C443 1.403 . S
H441 C447 0.930 . S
C442 H428 0.930 . S
C442 C440 1.395 . S
C442 C445 1.403 . S
C443 C440 1.403 . S
C443 C444 1.524 . S
C443 C447 1.400 . S
C444 H429 0.960 . S
C444 H430 0.960 . S
C444 H431 0.960 . S
C444 C443 1.524 . S
C445 C442 1.403 . S
C445 C446 1.392 . S
C445 C449 1.495 . S
C446 C445 1.392 . S
C446 C447 1.385 . S
C446 C448 1.478 . S
C447 H441 0.930 . S
C447 C443 1.400 . S
C447 C446 1.385 . S
C448 C446 1.478 . S
C448 C450 1.381 . S
C448 C454 1.383 . S
C449 C445 1.495 . S
C449 H455 0.959 . S
C449 H456 0.961 . S
C449 H457 0.960 . S
C450 C448 1.381 . S
C450 C451 1.394 . S
C450 H458 0.930 . S
C451 C450 1.394 . S
C451 C452 1.383 . S
C451 H459 0.929 . S
C452 C451 1.383 . S
C452 C453 1.377 . S
C453 H437 0.930 . S
C453 C452 1.377 . S
C453 C454 1.379 . S
C454 H438 0.931 . S
C454 C448 1.383 . S
C454 C453 1.379 . S
H455 C449 0.959 . S
H456 C449 0.961 . S
H457 C449 0.960 . S
H458 C450 0.930 . S
H459 C451 0.929 . S
H460 C468 0.929 . S
H461 C470 0.930 . S
H462 C472 0.930 . S
H463 C475 0.929 . S
H464 C478 0.930 . S
H465 C480 0.960 . S
H466 C480 0.960 . S
H467 C480 0.960 . S
C468 H460 0.929 . S
C468 C469 1.377 . S
C468 C470 1.384 . S
C469 C468 1.377 . S
C469 C475 1.390 . S
C470 H461 0.930 . S
C470 C468 1.384 . S
C470 C471 1.372 . S
C471 C470 1.372 . S
C471 C472 1.400 . S
C471 C476 1.490 . S
C472 H462 0.930 . S
C472 C471 1.400 . S
C472 C475 1.386 . S
H473 C489 0.930 . S
H474 C490 0.931 . S
C475 H463 0.929 . S
C475 C469 1.390 . S
C475 C472 1.386 . S
C476 C471 1.490 . S
C476 C478 1.395 . S
C476 C479 1.403 . S
H477 C483 0.930 . S
C478 H464 0.930 . S
C478 C476 1.395 . S
C478 C481 1.403 . S
C479 C476 1.403 . S
C479 C480 1.524 . S
C479 C483 1.400 . S
C480 H465 0.960 . S
C480 H466 0.960 . S
C480 H467 0.960 . S
C480 C479 1.524 . S
C481 C478 1.403 . S
C481 C482 1.392 . S
C481 C485 1.495 . S
C482 C481 1.392 . S
C482 C483 1.385 . S
C482 C484 1.478 . S
C483 H477 0.930 . S
C483 C479 1.400 . S
C483 C482 1.385 . S
C484 C482 1.478 . S
C484 C486 1.381 . S
C484 C490 1.383 . S
C485 C481 1.495 . S
C485 H491 0.959 . S
C485 H492 0.961 . S
C485 H493 0.960 . S
C486 C484 1.381 . S
C486 C487 1.394 . S
C486 H494 0.930 . S
C487 C486 1.394 . S
C487 C488 1.383 . S
C487 H495 0.929 . S
C488 C487 1.383 . S
C488 C489 1.377 . S
C489 H473 0.930 . S
C489 C488 1.377 . S
C489 C490 1.379 . S
C490 H474 0.931 . S
C490 C484 1.383 . S
C490 C489 1.379 . S
H491 C485 0.959 . S
H492 C485 0.961 . S
H493 C485 0.960 . S
H494 C486 0.930 . S
H495 C487 0.929 . S
H496 C504 0.929 . S
H497 C506 0.930 . S
H498 C508 0.930 . S
H499 C511 0.929 . S
H500 C514 0.930 . S
H501 C516 0.960 . S
H502 C516 0.960 . S
H503 C516 0.960 . S
C504 H496 0.929 . S
C504 C505 1.377 . S
C504 C506 1.384 . S
C505 C504 1.377 . S
C505 C511 1.390 . S
C506 H497 0.930 . S
C506 C504 1.384 . S
C506 C507 1.372 . S
C507 C506 1.372 . S
C507 C508 1.400 . S
C507 C512 1.490 . S
C508 H498 0.930 . S
C508 C507 1.400 . S
C508 C511 1.386 . S
H509 C525 0.930 . S
H510 C526 0.931 . S
C511 H499 0.929 . S
C511 C505 1.390 . S
C511 C508 1.386 . S
C512 C507 1.490 . S
C512 C514 1.395 . S
C512 C515 1.403 . S
H513 C519 0.930 . S
C514 H500 0.930 . S
C514 C512 1.395 . S
C514 C517 1.403 . S
C515 C512 1.403 . S
C515 C516 1.524 . S
C515 C519 1.400 . S
C516 H501 0.960 . S
C516 H502 0.960 . S
C516 H503 0.960 . S
C516 C515 1.524 . S
C517 C514 1.403 . S
C517 C518 1.392 . S
C517 C521 1.495 . S
C518 C517 1.392 . S
C518 C519 1.385 . S
C518 C520 1.478 . S
C519 H513 0.930 . S
C519 C515 1.400 . S
C519 C518 1.385 . S
C520 C518 1.478 . S
C520 C522 1.381 . S
C520 C526 1.383 . S
C521 C517 1.495 . S
C521 H527 0.959 . S
C521 H528 0.961 . S
C521 H529 0.960 . S
C522 C520 1.381 . S
C522 C523 1.394 . S
C522 H530 0.930 . S
C523 C522 1.394 . S
C523 C524 1.383 . S
C523 H531 0.929 . S
C524 C523 1.383 . S
C524 C525 1.377 . S
C525 H509 0.930 . S
C525 C524 1.377 . S
C525 C526 1.379 . S
C526 H510 0.931 . S
C526 C520 1.383 . S
C526 C525 1.379 . S
H527 C521 0.959 . S
H528 C521 0.961 . S
H529 C521 0.960 . S
H530 C522 0.930 . S
H531 C523 0.929 . S
H532 C540 0.929 . S
H533 C542 0.930 . S
H534 C544 0.930 . S
H535 C547 0.929 . S
H536 C550 0.930 . S
H537 C552 0.960 . S
H538 C552 0.960 . S
H539 C552 0.960 . S
C540 H532 0.929 . S
C540 C541 1.377 . S
C540 C542 1.384 . S
C541 C540 1.377 . S
C541 C547 1.390 . S
C542 H533 0.930 . S
C542 C540 1.384 . S
C542 C543 1.372 . S
C543 C542 1.372 . S
C543 C544 1.400 . S
C543 C548 1.490 . S
C544 H534 0.930 . S
C544 C543 1.400 . S
C544 C547 1.386 . S
H545 C561 0.930 . S
H546 C562 0.931 . S
C547 H535 0.929 . S
C547 C541 1.390 . S
C547 C544 1.386 . S
C548 C543 1.490 . S
C548 C550 1.395 . S
C548 C551 1.403 . S
H549 C555 0.930 . S
C550 H536 0.930 . S
C550 C548 1.395 . S
C550 C553 1.403 . S
C551 C548 1.403 . S
C551 C552 1.524 . S
C551 C555 1.400 . S
C552 H537 0.960 . S
C552 H538 0.960 . S
C552 H539 0.960 . S
C552 C551 1.524 . S
C553 C550 1.403 . S
C553 C554 1.392 . S
C553 C557 1.495 . S
C554 C553 1.392 . S
C554 C555 1.385 . S
C554 C556 1.478 . S
C555 H549 0.930 . S
C555 C551 1.400 . S
C555 C554 1.385 . S
C556 C554 1.478 . S
C556 C558 1.381 . S
C556 C562 1.383 . S
C557 C553 1.495 . S
C557 H563 0.959 . S
C557 H564 0.961 . S
C557 H565 0.960 . S
C558 C556 1.381 . S
C558 C559 1.394 . S
C558 H566 0.930 . S
C559 C558 1.394 . S
C559 C560 1.383 . S
C559 H567 0.929 . S
C560 C559 1.383 . S
C560 C561 1.377 . S
C561 H545 0.930 . S
C561 C560 1.377 . S
C561 C562 1.379 . S
C562 H546 0.931 . S
C562 C556 1.383 . S
C562 C561 1.379 . S
H563 C557 0.959 . S
H564 C557 0.961 . S
H565 C557 0.960 . S
H566 C558 0.930 . S
H567 C559 0.929 . S
H568 C576 0.929 . S
H569 C578 0.930 . S
H570 C580 0.930 . S
H571 C583 0.929 1_565 S
H572 C586 0.930 . S
H573 C588 0.960 . S
H574 C588 0.960 . S
H575 C588 0.960 . S
C576 H568 0.929 . S
C576 C577 1.377 . S
C576 C578 1.384 . S
C577 C576 1.377 . S
C577 C583 1.390 . S
C578 H569 0.930 . S
C578 C576 1.384 . S
C578 C579 1.372 . S
C579 C578 1.372 . S
C579 C580 1.400 . S
C579 C584 1.490 . S
C580 H570 0.930 . S
C580 C579 1.400 . S
C580 C583 1.386 . S
H581 C597 0.930 . S
H582 C598 0.931 . S
C583 H571 0.929 1_545 S
C583 C577 1.390 . S
C583 C580 1.386 . S
C584 C579 1.490 . S
C584 C586 1.395 . S
C584 C587 1.403 . S
H585 C591 0.930 . S
C586 H572 0.930 . S
C586 C584 1.395 . S
C586 C589 1.403 . S
C587 C584 1.403 . S
C587 C588 1.524 . S
C587 C591 1.400 . S
C588 H573 0.960 . S
C588 H574 0.960 . S
C588 H575 0.960 . S
C588 C587 1.524 . S
C589 C586 1.403 . S
C589 C590 1.392 . S
C589 C593 1.495 . S
C590 C589 1.392 . S
C590 C591 1.385 . S
C590 C592 1.478 . S
C591 H585 0.930 . S
C591 C587 1.400 . S
C591 C590 1.385 . S
C592 C590 1.478 . S
C592 C594 1.381 . S
C592 C598 1.383 . S
C593 C589 1.495 . S
C593 H599 0.959 . S
C593 H600 0.961 . S
C593 H601 0.960 . S
C594 C592 1.381 . S
C594 C595 1.394 . S
C594 H602 0.930 . S
C595 C594 1.394 . S
C595 C596 1.383 . S
C595 H603 0.929 . S
C596 C595 1.383 . S
C596 C597 1.377 . S
C597 H581 0.930 . S
C597 C596 1.377 . S
C597 C598 1.379 . S
C598 H582 0.931 . S
C598 C592 1.383 . S
C598 C597 1.379 . S
H599 C593 0.959 . S
H600 C593 0.961 . S
H601 C593 0.960 . S
H602 C594 0.930 . S
H603 C595 0.929 . S
H604 C612 0.929 . S
H605 C614 0.930 . S
H606 C616 0.930 . S
H607 C619 0.929 . S
H608 C622 0.930 . S
H609 C624 0.960 . S
H610 C624 0.960 . S
H611 C624 0.960 . S
C612 H604 0.929 . S
C612 C613 1.377 . S
C612 C614 1.384 . S
C613 C612 1.377 . S
C613 C619 1.390 . S
C614 H605 0.930 . S
C614 C612 1.384 . S
C614 C615 1.372 . S
C615 C614 1.372 . S
C615 C616 1.400 . S
C615 C620 1.490 . S
C616 H606 0.930 . S
C616 C615 1.400 . S
C616 C619 1.386 . S
H617 C633 0.930 . S
H618 C634 0.931 . S
C619 H607 0.929 . S
C619 C613 1.390 . S
C619 C616 1.386 . S
C620 C615 1.490 . S
C620 C622 1.395 . S
C620 C623 1.403 . S
H621 C627 0.930 . S
C622 H608 0.930 . S
C622 C620 1.395 . S
C622 C625 1.403 . S
C623 C620 1.403 . S
C623 C624 1.524 . S
C623 C627 1.400 . S
C624 H609 0.960 . S
C624 H610 0.960 . S
C624 H611 0.960 . S
C624 C623 1.524 . S
C625 C622 1.403 . S
C625 C626 1.392 . S
C625 C629 1.495 . S
C626 C625 1.392 . S
C626 C627 1.385 . S
C626 C628 1.478 . S
C627 H621 0.930 . S
C627 C623 1.400 . S
C627 C626 1.385 . S
C628 C626 1.478 . S
C628 C630 1.381 . S
C628 C634 1.383 . S
C629 C625 1.495 . S
C629 H635 0.959 . S
C629 H636 0.961 . S
C629 H637 0.960 . S
C630 C628 1.381 . S
C630 C631 1.394 . S
C630 H638 0.930 . S
C631 C630 1.394 . S
C631 C632 1.383 . S
C631 H639 0.929 . S
C632 C631 1.383 . S
C632 C633 1.377 . S
C633 H617 0.930 . S
C633 C632 1.377 . S
C633 C634 1.379 . S
C634 H618 0.931 . S
C634 C628 1.383 . S
C634 C633 1.379 . S
H635 C629 0.959 . S
H636 C629 0.961 . S
H637 C629 0.960 . S
H638 C630 0.930 . S
H639 C631 0.929 . S
H640 C648 0.929 . S
H641 C650 0.930 . S
H642 C652 0.930 . S
H643 C655 0.929 . S
H644 C658 0.930 . S
H645 C660 0.960 . S
H646 C660 0.960 . S
H647 C660 0.960 . S
C648 H640 0.929 . S
C648 C649 1.377 . S
C648 C650 1.384 . S
C649 C648 1.377 . S
C649 C655 1.390 . S
C650 H641 0.930 . S
C650 C648 1.384 . S
C650 C651 1.372 . S
C651 C650 1.372 . S
C651 C652 1.400 . S
C651 C656 1.490 . S
C652 H642 0.930 . S
C652 C651 1.400 . S
C652 C655 1.386 . S
H653 C669 0.930 . S
H654 C670 0.931 . S
C655 H643 0.929 . S
C655 C649 1.390 . S
C655 C652 1.386 . S
C656 C651 1.490 . S
C656 C658 1.395 . S
C656 C659 1.403 . S
H657 C663 0.930 . S
C658 H644 0.930 . S
C658 C656 1.395 . S
C658 C661 1.403 . S
C659 C656 1.403 . S
C659 C660 1.524 . S
C659 C663 1.400 . S
C660 H645 0.960 . S
C660 H646 0.960 . S
C660 H647 0.960 . S
C660 C659 1.524 . S
C661 C658 1.403 . S
C661 C662 1.392 . S
C661 C665 1.495 . S
C662 C661 1.392 . S
C662 C663 1.385 . S
C662 C664 1.478 . S
C663 H657 0.930 . S
C663 C659 1.400 . S
C663 C662 1.385 . S
C664 C662 1.478 . S
C664 C666 1.381 . S
C664 C670 1.383 . S
C665 C661 1.495 . S
C665 H671 0.959 . S
C665 H672 0.961 . S
C665 H673 0.960 . S
C666 C664 1.381 . S
C666 C667 1.394 . S
C666 H674 0.930 . S
C667 C666 1.394 . S
C667 C668 1.383 . S
C667 H675 0.929 . S
C668 C667 1.383 . S
C668 C669 1.377 . S
C669 H653 0.930 . S
C669 C668 1.377 . S
C669 C670 1.379 . S
C670 H654 0.931 . S
C670 C664 1.383 . S
C670 C669 1.379 . S
H671 C665 0.959 . S
H672 C665 0.961 . S
H673 C665 0.960 . S
H674 C666 0.930 . S
H675 C667 0.929 . S
H676 C684 0.929 . S
H677 C686 0.930 . S
H678 C688 0.930 . S
H679 C691 0.929 . S
H680 C694 0.930 . S
H681 C696 0.960 . S
H682 C696 0.960 . S
H683 C696 0.960 . S
C684 H676 0.929 . S
C684 C685 1.377 . S
C684 C686 1.384 . S
C685 C684 1.377 . S
C685 C691 1.390 . S
C686 H677 0.930 . S
C686 C684 1.384 . S
C686 C687 1.372 . S
C687 C686 1.372 . S
C687 C688 1.400 . S
C687 C692 1.490 . S
C688 H678 0.930 . S
C688 C687 1.400 . S
C688 C691 1.386 . S
H689 C705 0.930 . S
H690 C706 0.931 . S
C691 H679 0.929 . S
C691 C685 1.390 . S
C691 C688 1.386 . S
C692 C687 1.490 . S
C692 C694 1.395 . S
C692 C695 1.403 . S
H693 C699 0.930 . S
C694 H680 0.930 . S
C694 C692 1.395 . S
C694 C697 1.403 . S
C695 C692 1.403 . S
C695 C696 1.524 . S
C695 C699 1.400 . S
C696 H681 0.960 . S
C696 H682 0.960 . S
C696 H683 0.960 . S
C696 C695 1.524 . S
C697 C694 1.403 . S
C697 C698 1.392 . S
C697 C701 1.495 . S
C698 C697 1.392 . S
C698 C699 1.385 . S
C698 C700 1.478 . S
C699 H693 0.930 . S
C699 C695 1.400 . S
C699 C698 1.385 . S
C700 C698 1.478 . S
C700 C702 1.381 . S
C700 C706 1.383 . S
C701 C697 1.495 . S
C701 H707 0.959 . S
C701 H708 0.961 . S
C701 H709 0.960 . S
C702 C700 1.381 . S
C702 C703 1.394 . S
C702 H710 0.930 . S
C703 C702 1.394 . S
C703 C704 1.383 . S
C703 H711 0.929 . S
C704 C703 1.383 . S
C704 C705 1.377 . S
C705 H689 0.930 . S
C705 C704 1.377 . S
C705 C706 1.379 . S
C706 H690 0.931 . S
C706 C700 1.383 . S
C706 C705 1.379 . S
H707 C701 0.959 . S
H708 C701 0.961 . S
H709 C701 0.960 . S
H710 C702 0.930 . S
H711 C703 0.929 . S
H712 C720 0.929 . S
H713 C722 0.930 . S
H714 C724 0.930 . S
H715 C727 0.929 . S
H716 C730 0.930 . S
H717 C732 0.960 . S
H718 C732 0.960 . S
H719 C732 0.960 . S
C720 H712 0.929 . S
C720 C721 1.377 . S
C720 C722 1.384 . S
C721 C720 1.377 . S
C721 C727 1.390 1_554 S
C722 H713 0.930 . S
C722 C720 1.384 . S
C722 C723 1.372 . S
C723 C722 1.372 . S
C723 C724 1.400 1_554 S
C723 C728 1.490 1_554 S
C724 H714 0.930 . S
C724 C723 1.400 1_556 S
C724 C727 1.386 . S
H725 C741 0.930 . S
H726 C742 0.931 . S
C727 H715 0.929 . S
C727 C721 1.390 1_556 S
C727 C724 1.386 . S
C728 C723 1.490 1_556 S
C728 C730 1.395 1_556 S
C728 C731 1.403 . S
H729 C735 0.930 . S
C730 H716 0.930 . S
C730 C728 1.395 1_554 S
C730 C733 1.403 1_554 S
C731 C728 1.403 . S
C731 C732 1.524 . S
C731 C735 1.400 . S
C732 H717 0.960 . S
C732 H718 0.960 . S
C732 H719 0.960 . S
C732 C731 1.524 . S
C733 C730 1.403 1_556 S
C733 C734 1.392 . S
C733 C737 1.495 1_556 S
C734 C733 1.392 . S
C734 C735 1.385 . S
C734 C736 1.478 . S
C735 H729 0.930 . S
C735 C731 1.400 . S
C735 C734 1.385 . S
C736 C734 1.478 . S
C736 C738 1.381 . S
C736 C742 1.383 . S
C737 C733 1.495 1_554 S
C737 H743 0.959 . S
C737 H744 0.961 1_554 S
C737 H745 0.960 . S
C738 C736 1.381 . S
C738 C739 1.394 . S
C738 H746 0.930 . S
C739 C738 1.394 . S
C739 C740 1.383 . S
C739 H747 0.929 . S
C740 C739 1.383 . S
C740 C741 1.377 . S
C741 H725 0.930 . S
C741 C740 1.377 . S
C741 C742 1.379 . S
C742 H726 0.931 . S
C742 C736 1.383 . S
C742 C741 1.379 . S
H743 C737 0.959 . S
H744 C737 0.961 1_556 S
H745 C737 0.960 . S
H746 C738 0.930 . S
H747 C739 0.929 . S
H748 C756 0.929 . S
H749 C758 0.930 . S
H750 C760 0.930 . S
H751 C763 0.929 . S
H752 C766 0.930 . S
H753 C768 0.960 . S
H754 C768 0.960 . S
H755 C768 0.960 . S
C756 H748 0.929 . S
C756 C757 1.377 . S
C756 C758 1.384 . S
C757 C756 1.377 . S
C757 C763 1.390 . S
C758 H749 0.930 . S
C758 C756 1.384 . S
C758 C759 1.372 . S
C759 C758 1.372 . S
C759 C760 1.400 . S
C759 C764 1.490 . S
C760 H750 0.930 . S
C760 C759 1.400 . S
C760 C763 1.386 . S
H761 C777 0.930 . S
H762 C778 0.931 . S
C763 H751 0.929 . S
C763 C757 1.390 . S
C763 C760 1.386 . S
C764 C759 1.490 . S
C764 C766 1.395 . S
C764 C767 1.403 . S
H765 C771 0.930 . S
C766 H752 0.930 . S
C766 C764 1.395 . S
C766 C769 1.403 . S
C767 C764 1.403 . S
C767 C768 1.524 . S
C767 C771 1.400 . S
C768 H753 0.960 . S
C768 H754 0.960 . S
C768 H755 0.960 . S
C768 C767 1.524 . S
C769 C766 1.403 . S
C769 C770 1.392 . S
C769 C773 1.495 1_554 S
C770 C769 1.392 . S
C770 C771 1.385 . S
C770 C772 1.478 . S
C771 H765 0.930 . S
C771 C767 1.400 . S
C771 C770 1.385 . S
C772 C770 1.478 . S
C772 C774 1.381 1_554 S
C772 C778 1.383 . S
C773 C769 1.495 1_556 S
C773 H779 0.959 . S
C773 H780 0.961 . S
C773 H781 0.960 . S
C774 C772 1.381 1_556 S
C774 C775 1.394 . S
C774 H782 0.930 . S
C775 C774 1.394 . S
C775 C776 1.383 . S
C775 H783 0.929 . S
C776 C775 1.383 . S
C776 C777 1.377 1_556 S
C777 H761 0.930 . S
C777 C776 1.377 1_554 S
C777 C778 1.379 . S
C778 H762 0.931 . S
C778 C772 1.383 . S
C778 C777 1.379 . S
H779 C773 0.959 . S
H780 C773 0.961 . S
H781 C773 0.960 . S
H782 C774 0.930 . S
H783 C775 0.929 . S
H784 C792 0.929 . S
H785 C794 0.930 1_556 S
H786 C796 0.930 . S
H787 C799 0.929 . S
H788 C802 0.930 . S
H789 C804 0.960 . S
H790 C804 0.960 . S
H791 C804 0.960 . S
C792 H784 0.929 . S
C792 C793 1.377 . S
C792 C794 1.384 . S
C793 C792 1.377 . S
C793 C799 1.390 . S
C794 H785 0.930 1_554 S
C794 C792 1.384 . S
C794 C795 1.373 . S
C795 C794 1.373 . S
C795 C796 1.405 . S
C795 C800 1.484 1_554 S
C796 H786 0.930 . S
C796 C795 1.405 . S
C796 C799 1.386 . S
H797 C813 0.930 . S
H798 C814 0.931 . S
C799 H787 0.929 . S
C799 C793 1.390 . S
C799 C796 1.386 . S
C800 C795 1.484 1_556 S
C800 C802 1.395 1_556 S
C800 C803 1.403 . S
H801 C807 0.930 . S
C802 H788 0.930 . S
C802 C800 1.395 1_554 S
C802 C805 1.403 1_554 S
C803 C800 1.403 . S
C803 C804 1.524 . S
C803 C807 1.400 . S
C804 H789 0.960 . S
C804 H790 0.960 . S
C804 H791 0.960 . S
C804 C803 1.524 . S
C805 C802 1.403 1_556 S
C805 C806 1.392 . S
C805 C809 1.495 1_556 S
C806 C805 1.392 . S
C806 C807 1.385 . S
C806 C808 1.478 . S
C807 H801 0.930 . S
C807 C803 1.400 . S
C807 C806 1.385 . S
C808 C806 1.478 . S
C808 C810 1.381 . S
C808 C814 1.383 . S
C809 C805 1.495 1_554 S
C809 H815 0.959 . S
C809 H816 0.961 . S
C809 H817 0.960 1_554 S
C810 C808 1.381 . S
C810 C811 1.394 . S
C810 H818 0.930 . S
C811 C810 1.394 . S
C811 C812 1.383 . S
C811 H819 0.929 . S
C812 C811 1.383 . S
C812 C813 1.377 . S
C813 H797 0.930 . S
C813 C812 1.377 . S
C813 C814 1.379 . S
C814 H798 0.931 . S
C814 C808 1.383 . S
C814 C813 1.379 . S
H815 C809 0.959 . S
H816 C809 0.961 . S
H817 C809 0.960 1_556 S
H818 C810 0.930 . S
H819 C811 0.929 . S
H820 C828 0.929 . S
H821 C830 0.930 . S
H822 C832 0.930 . S
H823 C835 0.929 . S
H824 C838 0.930 . S
H825 C840 0.960 . S
H826 C840 0.960 . S
H827 C840 0.960 . S
C828 H820 0.929 . S
C828 C829 1.377 . S
C828 C830 1.384 . S
C829 C828 1.377 . S
C829 C835 1.390 1_556 S
C830 H821 0.930 . S
C830 C828 1.384 . S
C830 C831 1.372 1_556 S
C831 C830 1.372 1_554 S
C831 C832 1.400 . S
C831 C836 1.490 . S
C832 H822 0.930 . S
C832 C831 1.400 . S
C832 C835 1.386 . S
H833 C849 0.930 . S
H834 C850 0.931 . S
C835 H823 0.929 . S
C835 C829 1.390 1_554 S
C835 C832 1.386 . S
C836 C831 1.490 . S
C836 C838 1.395 . S
C836 C839 1.403 . S
H837 C843 0.930 . S
C838 H824 0.930 . S
C838 C836 1.395 . S
C838 C841 1.403 . S
C839 C836 1.403 . S
C839 C840 1.524 . S
C839 C843 1.400 . S
C840 H825 0.960 . S
C840 H826 0.960 . S
C840 H827 0.960 . S
C840 C839 1.524 . S
C841 C838 1.403 . S
C841 C842 1.392 . S
C841 C845 1.495 . S
C842 C841 1.392 . S
C842 C843 1.385 . S
C842 C844 1.478 . S
C843 H837 0.930 . S
C843 C839 1.400 . S
C843 C842 1.385 . S
C844 C842 1.478 . S
C844 C846 1.381 . S
C844 C850 1.383 . S
C845 C841 1.495 . S
C845 H851 0.959 . S
C845 H852 0.961 . S
C845 H853 0.960 . S
C846 C844 1.381 . S
C846 C847 1.394 . S
C846 H854 0.930 . S
C847 C846 1.394 . S
C847 C848 1.383 . S
C847 H855 0.929 . S
C848 C847 1.383 . S
C848 C849 1.377 . S
C849 H833 0.930 . S
C849 C848 1.377 . S
C849 C850 1.379 . S
C850 H834 0.931 . S
C850 C844 1.383 . S
C850 C849 1.379 . S
H851 C845 0.959 . S
H852 C845 0.961 . S
H853 C845 0.960 . S
H854 C846 0.930 . S
H855 C847 0.929 . S
H856 C864 0.929 . S
H857 C866 0.930 . S
H858 C868 0.930 . S
H859 C871 0.929 . S
H860 C874 0.930 . S
H861 C876 0.960 . S
H862 C876 0.960 . S
H863 C876 0.960 . S
C864 H856 0.929 . S
C864 C865 1.377 1_655 S
C864 C866 1.384 . S
C865 C864 1.377 1_455 S
C865 C871 1.390 . S
C866 H857 0.930 . S
C866 C864 1.384 . S
C866 C867 1.372 1_655 S
C867 C866 1.372 1_455 S
C867 C868 1.400 . S
C867 C872 1.489 . S
C868 H858 0.930 . S
C868 C867 1.400 . S
C868 C871 1.386 . S
H869 C885 0.930 . S
H870 C886 0.931 . S
C871 H859 0.929 . S
C871 C865 1.390 . S
C871 C868 1.386 . S
C872 C867 1.489 . S
C872 C874 1.415 . S
C872 C875 1.385 1_455 S
H873 C879 0.930 . S
C874 H860 0.930 . S
C874 C872 1.415 . S
C874 C877 1.403 . S
C875 C872 1.385 1_655 S
C875 C876 1.524 . S
C875 C879 1.400 . S
C876 H861 0.960 . S
C876 H862 0.960 . S
C876 H863 0.960 . S
C876 C875 1.524 . S
C877 C874 1.403 . S
C877 C878 1.392 . S
C877 C881 1.495 . S
C878 C877 1.392 . S
C878 C879 1.385 1_455 S
C878 C880 1.477 . S
C879 H873 0.930 . S
C879 C875 1.400 . S
C879 C878 1.385 1_655 S
C880 C878 1.477 . S
C880 C882 1.375 1_455 S
C880 C886 1.389 . S
C881 C877 1.495 . S
C881 H887 0.959 . S
C881 H888 0.961 . S
C881 H889 0.960 . S
C882 C880 1.375 1_655 S
C882 C883 1.394 . S
C882 H890 0.930 . S
C883 C882 1.394 . S
C883 C884 1.383 . S
C883 H891 0.929 . S
C884 C883 1.383 . S
C884 C885 1.377 1_655 S
C885 H869 0.930 . S
C885 C884 1.377 1_455 S
C885 C886 1.379 . S
C886 H870 0.931 . S
C886 C880 1.389 . S
C886 C885 1.379 . S
H887 C881 0.959 . S
H888 C881 0.961 . S
H889 C881 0.960 . S
H890 C882 0.930 . S
H891 C883 0.929 . S
H892 C900 0.927 1_565 S
H893 C902 0.916 1_565 S
H894 C904 0.930 . S
H895 C907 0.929 . S
H896 C910 0.930 . S
H897 C912 0.960 . S
H898 C912 0.960 . S
H899 C912 0.960 . S
C900 H892 0.927 1_545 S
C900 C901 1.377 . S
C900 C902 1.388 . S
C901 C900 1.377 . S
C901 C907 1.390 . S
C902 H893 0.916 1_545 S
C902 C900 1.388 . S
C902 C903 1.382 . S
C903 C902 1.382 . S
C903 C904 1.400 . S
C903 C908 1.490 . S
C904 H894 0.930 . S
C904 C903 1.400 . S
C904 C907 1.386 . S
H905 C921 0.930 . S
H906 C922 0.914 1_545 S
C907 H895 0.929 . S
C907 C901 1.390 . S
C907 C904 1.386 . S
C908 C903 1.490 . S
C908 C910 1.395 1_545 S
C908 C911 1.403 . S
H909 C915 0.930 . S
C910 H896 0.930 . S
C910 C908 1.395 1_565 S
C910 C913 1.403 . S
C911 C908 1.403 . S
C911 C912 1.524 . S
C911 C915 1.400 . S
C912 H897 0.960 . S
C912 H898 0.960 . S
C912 H899 0.960 . S
C912 C911 1.524 . S
C913 C910 1.403 . S
C913 C914 1.392 . S
C913 C917 1.495 . S
C914 C913 1.392 . S
C914 C915 1.385 1_565 S
C914 C916 1.478 . S
C915 H909 0.930 . S
C915 C911 1.400 . S
C915 C914 1.385 1_545 S
C916 C914 1.478 . S
C916 C918 1.381 . S
C916 C922 1.383 . S
C917 C913 1.495 . S
C917 H923 0.959 . S
C917 H924 0.961 . S
C917 H925 0.960 . S
C918 C916 1.381 . S
C918 C919 1.394 . S
C918 H926 0.930 . S
C919 C918 1.394 . S
C919 C920 1.383 . S
C919 H927 0.929 . S
C920 C919 1.383 . S
C920 C921 1.377 . S
C921 H905 0.930 . S
C921 C920 1.377 . S
C921 C922 1.379 . S
C922 H906 0.914 1_565 S
C922 C916 1.383 . S
C922 C921 1.379 . S
H923 C917 0.959 . S
H924 C917 0.961 . S
H925 C917 0.960 . S
H926 C918 0.930 . S
H927 C919 0.929 . S
H928 C936 0.929 . S
H929 C938 0.930 . S
H930 C940 0.930 . S
H931 C943 0.929 . S
H932 C946 0.930 . S
H933 C948 0.960 . S
H934 C948 0.960 . S
H935 C948 0.960 . S
C936 H928 0.929 . S
C936 C937 1.377 . S
C936 C938 1.384 . S
C937 C936 1.377 . S
C937 C943 1.390 . S
C938 H929 0.930 . S
C938 C936 1.384 . S
C938 C939 1.372 . S
C939 C938 1.372 . S
C939 C940 1.400 . S
C939 C944 1.490 . S
C940 H930 0.930 . S
C940 C939 1.400 . S
C940 C943 1.386 . S
H941 C957 0.930 . S
H942 C958 0.931 . S
C943 H931 0.929 . S
C943 C937 1.390 . S
C943 C940 1.386 . S
C944 C939 1.490 . S
C944 C946 1.395 . S
C944 C947 1.403 . S
H945 C951 0.930 . S
C946 H932 0.930 . S
C946 C944 1.395 . S
C946 C949 1.403 1_545 S
C947 C944 1.403 . S
C947 C948 1.524 . S
C947 C951 1.400 1_545 S
C948 H933 0.960 . S
C948 H934 0.960 . S
C948 H935 0.960 . S
C948 C947 1.524 . S
C949 C946 1.403 1_565 S
C949 C950 1.392 . S
C949 C953 1.495 . S
C950 C949 1.392 . S
C950 C951 1.385 . S
C950 C952 1.478 . S
C951 H945 0.930 . S
C951 C947 1.400 1_565 S
C951 C950 1.385 . S
C952 C950 1.478 . S
C952 C954 1.381 . S
C952 C958 1.383 . S
C953 C949 1.495 . S
C953 H959 0.959 . S
C953 H960 0.961 . S
C953 H961 0.960 . S
C954 C952 1.381 . S
C954 C955 1.394 . S
C954 H962 0.930 . S
C955 C954 1.394 . S
C955 C956 1.383 . S
C955 H963 0.929 . S
C956 C955 1.383 . S
C956 C957 1.377 . S
C957 H941 0.930 . S
C957 C956 1.377 . S
C957 C958 1.379 . S
C958 H942 0.931 . S
C958 C952 1.383 . S
C958 C957 1.379 . S
H959 C953 0.959 . S
H960 C953 0.961 . S
H961 C953 0.960 . S
H962 C954 0.930 . S
H963 C955 0.929 . S
H964 C972 0.929 . S
H965 C974 0.930 . S
H966 C976 0.930 . S
H967 C979 0.929 . S
H968 C982 0.930 . S
H969 C984 0.960 1_655 S
H970 C984 0.960 . S
H971 C984 0.960 . S
C972 H964 0.929 . S
C972 C973 1.377 . S
C972 C974 1.384 . S
C973 C972 1.377 . S
C973 C979 1.390 . S
C974 H965 0.930 . S
C974 C972 1.384 . S
C974 C975 1.372 . S
C975 C974 1.372 . S
C975 C976 1.400 . S
C975 C980 1.490 . S
C976 H966 0.930 . S
C976 C975 1.400 . S
C976 C979 1.386 . S
H977 C993 0.930 . S
H978 C994 0.931 . S
C979 H967 0.929 . S
C979 C973 1.390 . S
C979 C976 1.386 . S
C980 C975 1.490 . S
C980 C982 1.395 . S
C980 C983 1.403 . S
H981 C987 0.930 . S
C982 H968 0.930 . S
C982 C980 1.395 . S
C982 C985 1.403 1_455 S
C983 C980 1.403 . S
C983 C984 1.524 . S
C983 C987 1.400 1_455 S
C984 H969 0.960 1_455 S
C984 H970 0.960 . S
C984 H971 0.960 . S
C984 C983 1.524 . S
C985 C982 1.403 1_655 S
C985 C986 1.392 . S
C985 C989 1.495 . S
C986 C985 1.392 . S
C986 C987 1.385 . S
C986 C988 1.478 . S
C987 H981 0.930 . S
C987 C983 1.400 1_655 S
C987 C986 1.385 . S
C988 C986 1.478 . S
C988 C990 1.381 . S
C988 C994 1.383 . S
C989 C985 1.495 . S
C989 H995 0.959 1_655 S
C989 H996 0.961 . S
C989 H997 0.960 . S
C990 C988 1.381 . S
C990 C991 1.394 . S
C990 H998 0.930 . S
C991 C990 1.394 . S
C991 C992 1.383 . S
C991 H999 0.929 . S
C992 C991 1.383 . S
C992 C993 1.377 . S
C993 H977 0.930 . S
C993 C992 1.377 . S
C993 C994 1.379 . S
C994 H978 0.931 . S
C994 C988 1.383 . S
C994 C993 1.379 . S
H995 C989 0.959 1_455 S
H996 C989 0.961 . S
H997 C989 0.960 . S
H998 C990 0.930 . S
H999 C991 0.929 . S
C433 C393 1.742 . S
C452 C38 1.745 . S
C469 C82 1.895 . S
C488 C234 1.904 . S
C505 C144 1.753 . S
C524 C287 1.716 . S
C541 C340 1.916 . S
C560 C188 1.908 . S
C577 C75 1.856 1_545 S
C596 C22 1.839 . S
C613 C92 1.858 . S
C632 C145 1.870 . S
C649 C181 1.857 1_565 S
C668 C128 1.826 . S
C685 C198 1.861 . S
C704 C39 1.850 . S
C721 C400 1.988 . S
C740 C250 1.983 . S
C757 C303 2.078 . S
C776 C241 2.048 . S
C793 C294 1.991 . S
C812 C356 1.968 . S
C829 C347 2.061 . S
C848 C409 2.067 . S
C865 C135 1.869 . S
C884 C29 1.865 . S
C901 C197 2.144 . S
C920 C91 2.136 . S
C937 C357 2.495 . S
C956 C251 2.482 . S
C973 C410 2.156 . S
C992 C304 2.149 . S
