# Generated by pormake.
# Topology soh, (5)-cn, num edge types: 1
# Building blocks:
#     Node 0, Type 0, BuildingBlock: XOMCOT_clean_sbu_1, # of connection points: 5
#     Node 1, Type 0, BuildingBlock: XOMCOT_clean_sbu_1, # of connection points: 5
#     Node 2, Type 0, BuildingBlock: XOMCOT_clean_sbu_1, # of connection points: 5
#     Node 3, Type 0, BuildingBlock: XOMCOT_clean_sbu_1, # of connection points: 5
#     Node 4, Type 0, BuildingBlock: XOMCOT_clean_sbu_1, # of connection points: 5
#     Node 5, Type 0, BuildingBlock: XOMCOT_clean_sbu_1, # of connection points: 5
#     Node 6, Type 0, BuildingBlock: XOMCOT_clean_sbu_1, # of connection points: 5
#     Node 7, Type 0, BuildingBlock: XOMCOT_clean_sbu_1, # of connection points: 5
#     Node 8, Type 0, BuildingBlock: XOMCOT_clean_sbu_1, # of connection points: 5
#     Node 9, Type 0, BuildingBlock: XOMCOT_clean_sbu_1, # of connection points: 5
#     Node 10, Type 0, BuildingBlock: XOMCOT_clean_sbu_1, # of connection points: 5
#     Node 11, Type 0, BuildingBlock: XOMCOT_clean_sbu_1, # of connection points: 5
#     Node 12, Type 0, BuildingBlock: XOMCOT_clean_sbu_1, # of connection points: 5
#     Node 13, Type 0, BuildingBlock: XOMCOT_clean_sbu_1, # of connection points: 5
#     Node 14, Type 0, BuildingBlock: XOMCOT_clean_sbu_1, # of connection points: 5
#     Node 15, Type 0, BuildingBlock: XOMCOT_clean_sbu_1, # of connection points: 5
#     Node 16, Type 0, BuildingBlock: XOMCOT_clean_sbu_1, # of connection points: 5
#     Node 17, Type 0, BuildingBlock: XOMCOT_clean_sbu_1, # of connection points: 5
#     Node 18, Type 0, BuildingBlock: XOMCOT_clean_sbu_1, # of connection points: 5
#     Node 19, Type 0, BuildingBlock: XOMCOT_clean_sbu_1, # of connection points: 5
#     Node 20, Type 0, BuildingBlock: XOMCOT_clean_sbu_1, # of connection points: 5
#     Node 21, Type 0, BuildingBlock: XOMCOT_clean_sbu_1, # of connection points: 5
#     Node 22, Type 0, BuildingBlock: XOMCOT_clean_sbu_1, # of connection points: 5
#     Node 23, Type 0, BuildingBlock: XOMCOT_clean_sbu_1, # of connection points: 5
#     Node 24, Type 0, BuildingBlock: XOMCOT_clean_sbu_1, # of connection points: 5
#     Node 25, Type 0, BuildingBlock: XOMCOT_clean_sbu_1, # of connection points: 5
#     Node 26, Type 0, BuildingBlock: XOMCOT_clean_sbu_1, # of connection points: 5
#     Node 27, Type 0, BuildingBlock: XOMCOT_clean_sbu_1, # of connection points: 5
#     Node 28, Type 0, BuildingBlock: XOMCOT_clean_sbu_1, # of connection points: 5
#     Node 29, Type 0, BuildingBlock: XOMCOT_clean_sbu_1, # of connection points: 5
#     Node 30, Type 0, BuildingBlock: XOMCOT_clean_sbu_1, # of connection points: 5
#     Node 31, Type 0, BuildingBlock: XOMCOT_clean_sbu_1, # of connection points: 5
#     Edge 32, Type (0, 0), BuildingBlock: EZIPEK_clean_linker_0, # of connection points: 2
#     Edge 33, Type (0, 0), BuildingBlock: EZIPEK_clean_linker_0, # of connection points: 2
#     Edge 34, Type (0, 0), BuildingBlock: EZIPEK_clean_linker_0, # of connection points: 2
#     Edge 35, Type (0, 0), BuildingBlock: EZIPEK_clean_linker_0, # of connection points: 2
#     Edge 36, Type (0, 0), BuildingBlock: EZIPEK_clean_linker_0, # of connection points: 2
#     Edge 37, Type (0, 0), BuildingBlock: EZIPEK_clean_linker_0, # of connection points: 2
#     Edge 38, Type (0, 0), BuildingBlock: EZIPEK_clean_linker_0, # of connection points: 2
#     Edge 39, Type (0, 0), BuildingBlock: EZIPEK_clean_linker_0, # of connection points: 2
#     Edge 40, Type (0, 0), BuildingBlock: EZIPEK_clean_linker_0, # of connection points: 2
#     Edge 41, Type (0, 0), BuildingBlock: EZIPEK_clean_linker_0, # of connection points: 2
#     Edge 42, Type (0, 0), BuildingBlock: EZIPEK_clean_linker_0, # of connection points: 2
#     Edge 43, Type (0, 0), BuildingBlock: EZIPEK_clean_linker_0, # of connection points: 2
#     Edge 44, Type (0, 0), BuildingBlock: EZIPEK_clean_linker_0, # of connection points: 2
#     Edge 45, Type (0, 0), BuildingBlock: EZIPEK_clean_linker_0, # of connection points: 2
#     Edge 46, Type (0, 0), BuildingBlock: EZIPEK_clean_linker_0, # of connection points: 2
#     Edge 47, Type (0, 0), BuildingBlock: EZIPEK_clean_linker_0, # of connection points: 2
#     Edge 48, Type (0, 0), BuildingBlock: EZIPEK_clean_linker_0, # of connection points: 2
#     Edge 49, Type (0, 0), BuildingBlock: EZIPEK_clean_linker_0, # of connection points: 2
#     Edge 50, Type (0, 0), BuildingBlock: EZIPEK_clean_linker_0, # of connection points: 2
#     Edge 51, Type (0, 0), BuildingBlock: EZIPEK_clean_linker_0, # of connection points: 2
#     Edge 52, Type (0, 0), BuildingBlock: EZIPEK_clean_linker_0, # of connection points: 2
#     Edge 53, Type (0, 0), BuildingBlock: EZIPEK_clean_linker_0, # of connection points: 2
#     Edge 54, Type (0, 0), BuildingBlock: EZIPEK_clean_linker_0, # of connection points: 2
#     Edge 55, Type (0, 0), BuildingBlock: EZIPEK_clean_linker_0, # of connection points: 2
#     Edge 56, Type (0, 0), BuildingBlock: EZIPEK_clean_linker_0, # of connection points: 2
#     Edge 57, Type (0, 0), BuildingBlock: EZIPEK_clean_linker_0, # of connection points: 2
#     Edge 58, Type (0, 0), BuildingBlock: EZIPEK_clean_linker_0, # of connection points: 2
#     Edge 59, Type (0, 0), BuildingBlock: EZIPEK_clean_linker_0, # of connection points: 2
#     Edge 60, Type (0, 0), BuildingBlock: EZIPEK_clean_linker_0, # of connection points: 2
#     Edge 61, Type (0, 0), BuildingBlock: EZIPEK_clean_linker_0, # of connection points: 2
#     Edge 62, Type (0, 0), BuildingBlock: EZIPEK_clean_linker_0, # of connection points: 2
#     Edge 63, Type (0, 0), BuildingBlock: EZIPEK_clean_linker_0, # of connection points: 2
#     Edge 64, Type (0, 0), BuildingBlock: EZIPEK_clean_linker_0, # of connection points: 2
#     Edge 65, Type (0, 0), BuildingBlock: EZIPEK_clean_linker_0, # of connection points: 2
#     Edge 66, Type (0, 0), BuildingBlock: EZIPEK_clean_linker_0, # of connection points: 2
#     Edge 67, Type (0, 0), BuildingBlock: EZIPEK_clean_linker_0, # of connection points: 2
#     Edge 68, Type (0, 0), BuildingBlock: EZIPEK_clean_linker_0, # of connection points: 2
#     Edge 69, Type (0, 0), BuildingBlock: EZIPEK_clean_linker_0, # of connection points: 2
#     Edge 70, Type (0, 0), BuildingBlock: EZIPEK_clean_linker_0, # of connection points: 2
#     Edge 71, Type (0, 0), BuildingBlock: EZIPEK_clean_linker_0, # of connection points: 2
#     Edge 72, Type (0, 0), BuildingBlock: EZIPEK_clean_linker_0, # of connection points: 2
#     Edge 73, Type (0, 0), BuildingBlock: EZIPEK_clean_linker_0, # of connection points: 2
#     Edge 74, Type (0, 0), BuildingBlock: EZIPEK_clean_linker_0, # of connection points: 2
#     Edge 75, Type (0, 0), BuildingBlock: EZIPEK_clean_linker_0, # of connection points: 2
#     Edge 76, Type (0, 0), BuildingBlock: EZIPEK_clean_linker_0, # of connection points: 2
#     Edge 77, Type (0, 0), BuildingBlock: EZIPEK_clean_linker_0, # of connection points: 2
#     Edge 78, Type (0, 0), BuildingBlock: EZIPEK_clean_linker_0, # of connection points: 2
#     Edge 79, Type (0, 0), BuildingBlock: EZIPEK_clean_linker_0, # of connection points: 2
#     Edge 80, Type (0, 0), BuildingBlock: EZIPEK_clean_linker_0, # of connection points: 2
#     Edge 81, Type (0, 0), BuildingBlock: EZIPEK_clean_linker_0, # of connection points: 2
#     Edge 82, Type (0, 0), BuildingBlock: EZIPEK_clean_linker_0, # of connection points: 2
#     Edge 83, Type (0, 0), BuildingBlock: EZIPEK_clean_linker_0, # of connection points: 2
#     Edge 84, Type (0, 0), BuildingBlock: EZIPEK_clean_linker_0, # of connection points: 2
#     Edge 85, Type (0, 0), BuildingBlock: EZIPEK_clean_linker_0, # of connection points: 2
#     Edge 86, Type (0, 0), BuildingBlock: EZIPEK_clean_linker_0, # of connection points: 2
#     Edge 87, Type (0, 0), BuildingBlock: EZIPEK_clean_linker_0, # of connection points: 2
#     Edge 88, Type (0, 0), BuildingBlock: EZIPEK_clean_linker_0, # of connection points: 2
#     Edge 89, Type (0, 0), BuildingBlock: EZIPEK_clean_linker_0, # of connection points: 2
#     Edge 90, Type (0, 0), BuildingBlock: EZIPEK_clean_linker_0, # of connection points: 2
#     Edge 91, Type (0, 0), BuildingBlock: EZIPEK_clean_linker_0, # of connection points: 2
#     Edge 92, Type (0, 0), BuildingBlock: EZIPEK_clean_linker_0, # of connection points: 2
#     Edge 93, Type (0, 0), BuildingBlock: EZIPEK_clean_linker_0, # of connection points: 2
#     Edge 94, Type (0, 0), BuildingBlock: EZIPEK_clean_linker_0, # of connection points: 2
#     Edge 95, Type (0, 0), BuildingBlock: EZIPEK_clean_linker_0, # of connection points: 2
#     Edge 96, Type (0, 0), BuildingBlock: EZIPEK_clean_linker_0, # of connection points: 2
#     Edge 97, Type (0, 0), BuildingBlock: EZIPEK_clean_linker_0, # of connection points: 2
#     Edge 98, Type (0, 0), BuildingBlock: EZIPEK_clean_linker_0, # of connection points: 2
#     Edge 99, Type (0, 0), BuildingBlock: EZIPEK_clean_linker_0, # of connection points: 2
#     Edge 100, Type (0, 0), BuildingBlock: EZIPEK_clean_linker_0, # of connection points: 2
#     Edge 101, Type (0, 0), BuildingBlock: EZIPEK_clean_linker_0, # of connection points: 2
#     Edge 102, Type (0, 0), BuildingBlock: EZIPEK_clean_linker_0, # of connection points: 2
#     Edge 103, Type (0, 0), BuildingBlock: EZIPEK_clean_linker_0, # of connection points: 2
#     Edge 104, Type (0, 0), BuildingBlock: EZIPEK_clean_linker_0, # of connection points: 2
#     Edge 105, Type (0, 0), BuildingBlock: EZIPEK_clean_linker_0, # of connection points: 2
#     Edge 106, Type (0, 0), BuildingBlock: EZIPEK_clean_linker_0, # of connection points: 2
#     Edge 107, Type (0, 0), BuildingBlock: EZIPEK_clean_linker_0, # of connection points: 2
#     Edge 108, Type (0, 0), BuildingBlock: EZIPEK_clean_linker_0, # of connection points: 2
#     Edge 109, Type (0, 0), BuildingBlock: EZIPEK_clean_linker_0, # of connection points: 2
#     Edge 110, Type (0, 0), BuildingBlock: EZIPEK_clean_linker_0, # of connection points: 2
#     Edge 111, Type (0, 0), BuildingBlock: EZIPEK_clean_linker_0, # of connection points: 2
# Relax obj value: 0.225
# Max RMSD: 0.179
# Mean RMSD: 0.179
data_MOF--net-soh--node1-XOMCOT_clean_sbu_1--edge1-EZIPEK_clean_linker_0
_symmetry_space_group_name_H-M    P1
_symmetry_Int_Tables_number       1
_symmetry_cell_setting            triclinic
loop_
_symmetry_equiv_pos_as_xyz
'x, y, z'
_cell_length_a     61.709946
_cell_length_b     33.458599
_cell_length_c     34.703371
_cell_angle_alpha  90.111358
_cell_angle_beta   90.277657
_cell_angle_gamma 90.283152
loop_
_atom_site_label
_atom_site_type_symbol
_atom_site_fract_x
_atom_site_fract_y
_atom_site_fract_z
_atom_type_partial_charge
C0 C 0.29717 0.3828 0.23796 0.0
C1 C 0.29951 0.43748 0.26517 0.0
N2 N 0.32891 0.4448 0.27163 0.0
N3 N 0.32525 0.36717 0.23227 0.0
C4 C 0.34465 0.40341 0.25131 0.0
H5 H 0.28288 0.36552 0.23062 0.0
Co6 Co 0.33302 0.31911 0.21038 0.0
C7 C 0.38031 0.33026 0.18839 0.0
O8 O 0.37897 0.30205 0.16219 0.0
N9 N 0.3411 0.26937 0.18969 0.0
C10 C 0.35775 0.21047 0.19028 0.0
C11 C 0.35721 0.24786 0.20605 0.0
C12 C 0.3315 0.24356 0.16467 0.0
N13 N 0.34156 0.20768 0.16454 0.0
O14 O 0.33486 0.29621 0.26133 0.0
H15 H 0.36772 0.25857 0.22889 0.0
H16 H 0.31679 0.2499 0.14881 0.0
O17 O 0.36386 0.33779 0.20983 0.0
C18 C 0.31684 0.27753 0.26553 0.0
O19 O 0.30324 0.27699 0.23625 0.0
N20 N 0.32736 0.34169 0.16155 0.0
C21 C 0.30636 0.39454 0.11118 0.0
C22 C 0.32878 0.3976 0.11811 0.0
C23 C 0.33884 0.37176 0.14431 0.0
C24 C 0.30607 0.3359 0.15215 0.0
C25 C 0.29514 0.36242 0.12776 0.0
H26 H 0.35511 0.37901 0.1531 0.0
H27 H 0.29681 0.31339 0.16724 0.0
H28 H 0.36165 0.39782 0.25676 0.0
H29 H 0.28683 0.4536 0.27987 0.0
H30 H 0.36852 0.1864 0.19833 0.0
H31 H 0.33802 0.42223 0.10621 0.0
H32 H 0.2778 0.35924 0.1238 0.0
C33 C 1.03031 0.90914 0.26367 0.0
C34 C 1.02987 0.90141 0.30278 0.0
N35 N 1.0099 0.90964 0.31616 0.0
N36 N 1.01078 0.92279 0.25237 0.0
C37 C 0.99858 0.92155 0.2847 0.0
H38 H 0.04464 0.90967 0.24586 0.0
Co39 Co 1.00496 0.95579 0.20947 0.0
C40 C 0.96296 0.91385 0.18633 0.0
O41 O 0.97295 0.89736 0.15718 0.0
N42 N 0.99838 0.99142 0.16679 0.0
C43 C 0.98712 1.01722 0.11062 0.0
C44 C 0.99049 0.98255 0.13127 0.0
C45 C 0.99992 0.03204 0.16625 0.0
N46 N 0.99314 0.04829 0.13284 0.0
O47 O 0.99981 0.99817 0.24501 0.0
H48 H 0.98769 0.95281 0.12035 0.0
H49 H 1.00547 0.05037 0.18985 0.0
O50 O 0.97357 0.93728 0.20921 0.0
C51 C 1.019 1.01301 0.24736 0.0
O52 O 1.03338 1.00119 0.22195 0.0
N53 N 1.01517 0.91565 0.17574 0.0
C54 C 1.0381 0.86481 0.12703 0.0
C55 C 1.02323 0.8491 0.15357 0.0
C56 C 1.01254 0.87511 0.17896 0.0
C57 C 1.03098 0.93049 0.15232 0.0
C58 C 0.04241 0.90581 0.12757 0.0
H59 H 1.00177 0.86288 0.20049 0.0
H60 H 1.03502 0.96194 0.15296 0.0
H61 H 0.98286 0.93556 0.28658 0.0
H62 H 0.04379 0.89459 0.32066 0.0
H63 H 0.98084 1.01947 0.08153 0.0
H64 H 1.01994 0.8173 0.15455 0.0
H65 H 0.05426 0.9188 0.10828 0.0
C66 C 0.29947 0.90191 0.98529 0.0
C67 C 0.30263 0.88844 0.94819 0.0
N68 N 0.32288 0.89852 0.93653 0.0
N69 N 0.31745 0.92113 0.99716 0.0
C70 C 0.3311 0.91897 0.9671 0.0
H71 H 0.28447 0.90071 1.00127 0.0
Co72 Co 0.32247 0.95454 0.03964 0.0
C73 C 0.36422 0.91529 0.06551 0.0
O74 O 0.35459 0.90298 0.09692 0.0
N75 N 0.32846 0.99013 0.08196 0.0
C76 C 0.33683 1.01781 0.13894 0.0
C77 C 0.33407 0.98249 0.11906 0.0
C78 C 0.32823 0.03064 0.08041 0.0
N79 N 0.33303 0.04796 0.11443 0.0
O80 O 0.32831 0.99767 0.00418 0.0
H81 H 0.33533 0.95327 0.13182 0.0
H82 H 0.32512 0.04786 0.05484 0.0
O83 O 0.35367 0.93636 0.04083 0.0
C84 C 0.3095 1.00968 0.9934 0.0
O85 O 0.29238 0.99062 0.00648 0.0
N86 N 0.31233 0.91385 0.0732 0.0
C87 C 0.2902 0.85908 0.11981 0.0
C88 C 0.30435 0.84583 0.09082 0.0
C89 C 0.31554 0.87375 0.06819 0.0
C90 C 0.29686 0.92662 0.09838 0.0
C91 C 0.28651 0.90013 0.12322 0.0
H92 H 0.32657 0.86319 0.04633 0.0
H93 H 0.29247 0.95783 0.09949 0.0
H94 H 0.34587 0.93617 0.96694 0.0
H95 H 0.28991 0.87601 0.93027 0.0
H96 H 0.34085 0.02117 0.16917 0.0
H97 H 0.30718 0.81422 0.08651 0.0
H98 H 0.27542 0.91168 0.14458 0.0
C99 C 1.03592 0.37587 0.01181 0.0
C100 C 1.03742 0.42997 0.98384 0.0
N101 N 1.00884 0.44174 0.97381 0.0
N102 N 1.00702 0.36474 0.01439 0.0
C103 C 0.99028 0.40335 0.99257 0.0
H104 H 0.04896 0.35769 0.0229 0.0
Co105 Co 0.99645 0.3215 0.04222 0.0
C106 C 0.95269 0.34801 0.06586 0.0
O107 O 0.95977 0.33836 0.10033 0.0
N108 N 0.98554 0.27533 0.06873 0.0
C109 C 0.96412 0.22175 0.07608 0.0
C110 C 0.96563 0.25964 0.06149 0.0
C111 C 0.99615 0.24487 0.08659 0.0
N112 N 0.98333 0.21229 0.09156 0.0
O113 O 0.99458 0.29158 0.9949 0.0
H114 H 0.95346 0.27289 0.04316 0.0
H115 H 1.01338 0.24472 0.09233 0.0
O116 O 0.966 0.34358 0.03774 0.0
C117 C 1.0125 0.27242 0.99376 0.0
O118 O 1.02561 0.27551 0.0236 0.0
N119 N 1.00198 0.35124 0.08875 0.0
C120 C 1.0211 0.40174 0.14458 0.0
C121 C 1.00652 0.41665 0.11708 0.0
C122 C 0.99678 0.39097 0.0903 0.0
C123 C 1.01617 0.33617 0.11532 0.0
C124 C 1.02531 0.36055 0.14422 0.0
H125 H 0.98601 0.40383 0.06922 0.0
H126 H 1.0216 0.30579 0.11309 0.0
H127 H 0.97311 0.4012 0.9867 0.0
H128 H 0.05146 0.44437 0.97133 0.0
H129 H 0.95054 0.2014 0.07279 0.0
H130 H 1.00279 0.44824 0.11604 0.0
H131 H 1.03643 0.34766 0.16493 0.0
C132 C 0.77149 0.64671 0.74056 0.0
C133 C 0.76988 0.63253 0.7032 0.0
N134 N 0.75193 0.64787 0.68623 0.0
N135 N 0.75492 0.67164 0.74735 0.0
C136 C 0.74371 0.67211 0.71389 0.0
H137 H 0.78476 0.64149 0.76038 0.0
Co138 Co 0.74961 0.70717 0.78847 0.0
C139 C 0.70755 0.65774 0.77957 0.0
O140 O 0.71706 0.62948 0.75973 0.0
N141 N 0.74424 0.74399 0.82892 0.0
C142 C 0.728 0.77786 0.87606 0.0
C143 C 0.72934 0.74154 0.85724 0.0
C144 C 0.75221 0.78165 0.83204 0.0
N145 N 0.74229 0.80312 0.85985 0.0
O146 O 0.74275 0.74904 0.75109 0.0
H147 H 0.7191 0.71592 0.86247 0.0
H148 H 0.76428 0.79391 0.8129 0.0
O149 O 0.71839 0.68836 0.79176 0.0
C150 C 0.76045 0.76303 0.73717 0.0
O151 O 0.77888 0.74807 0.74938 0.0
N152 N 0.75953 0.66899 0.82474 0.0
C153 C 0.78132 0.61953 0.87686 0.0
C154 C 0.76256 0.60613 0.8579 0.0
C155 C 0.75195 0.63124 0.83169 0.0
C156 C 0.77807 0.68197 0.84252 0.0
C157 C 0.78911 0.65792 0.86894 0.0
H158 H 0.73799 0.61968 0.81701 0.0
H159 H 0.78445 0.71132 0.83592 0.0
H160 H 0.73055 0.69264 0.70957 0.0
H161 H 0.78231 0.61534 0.68909 0.0
H162 H 0.71642 0.78592 0.89804 0.0
H163 H 0.75612 0.57653 0.86346 0.0
H164 H 0.80356 0.66921 0.88316 0.0
C165 C 0.05661 0.13468 0.7442 0.0
C166 C 0.05716 0.1482 0.70667 0.0
N167 N 0.07545 0.13493 0.68941 0.0
N168 N 0.07431 0.11248 0.75093 0.0
C169 C 0.08504 0.11268 0.7172 0.0
H170 H 0.04325 0.13782 0.76403 0.0
Co171 Co 0.08094 0.0772 0.79138 0.0
C172 C 0.12246 0.12847 0.78179 0.0
O173 O 0.11291 0.15503 0.75992 0.0
N174 N 0.08769 0.04034 0.83091 0.0
C175 C 0.10187 1.01093 0.88271 0.0
C176 C 0.09887 0.04679 0.8639 0.0
C177 C 0.08388 1.00045 0.8307 0.0
N178 N 0.09278 0.98167 0.86127 0.0
O179 O 0.08781 0.03651 0.753 0.0
H180 H 0.10492 0.07555 0.8733 0.0
H181 H 0.07488 0.98513 0.80846 0.0
O182 O 0.11192 0.09789 0.79463 0.0
C183 C 0.06983 0.02202 0.74048 0.0
O184 O 0.05173 0.03471 0.75594 0.0
N185 N 0.07107 0.11488 0.82842 0.0
C186 C 0.04951 0.1669 0.87853 0.0
C187 C 0.06464 0.1814 0.8519 0.0
C188 C 0.0755 0.1549 0.82767 0.0
C189 C 0.05572 0.10053 0.85319 0.0
C190 C 0.04526 0.12577 0.87927 0.0
H191 H 0.08654 0.1672 0.80714 0.0
H192 H 0.05123 0.06927 0.85246 0.0
H193 H 0.09875 0.09354 0.71287 0.0
H194 H 0.04368 0.16257 0.6925 0.0
H195 H 0.11093 1.0064 0.90912 0.0
H196 H 0.0682 0.21308 0.85014 0.0
H197 H 1.03366 0.11337 0.89935 0.0
C198 C 0.7839 0.12743 0.99857 0.0
C199 C 0.78109 0.1795 0.03015 0.0
N200 N 0.75156 0.18599 0.03476 0.0
N201 N 0.75584 0.11222 0.98914 0.0
C202 C 0.73622 0.14647 0.00992 0.0
H203 H 0.79841 0.11272 0.98872 0.0
Co204 Co 0.74841 0.07241 0.9518 0.0
C205 C 0.70281 0.10611 0.9377 0.0
O206 O 0.70869 0.12374 0.90565 0.0
N207 N 0.74093 0.03161 0.91499 0.0
C208 C 0.72614 0.9986 0.86579 0.0
C209 C 0.72699 0.03426 0.88522 0.0
C210 C 0.74826 0.99344 0.9126 0.0
N211 N 0.74054 0.97283 0.88142 0.0
O212 O 0.74626 0.03369 0.99197 0.0
H213 H 0.71782 0.06027 0.87763 0.0
H214 H 0.7582 0.98043 0.93464 0.0
O215 O 0.7169 0.08625 0.95712 0.0
C216 C 0.76573 0.0244 1.00073 0.0
O217 O 0.78151 0.04272 0.98255 0.0
N218 N 0.75409 0.10996 0.91179 0.0
C219 C 0.77458 0.16477 0.86277 0.0
C220 C 0.76087 0.17781 0.89225 0.0
C221 C 0.75041 0.15004 0.91566 0.0
C222 C 0.76769 0.09687 0.88346 0.0
C223 C 0.77742 0.12359 0.85778 0.0
H224 H 0.73984 0.16119 0.93768 0.0
H225 H 0.77202 0.06568 0.88163 0.0
H226 H 0.71887 0.14389 0.00896 0.0
H227 H 0.79355 0.19527 0.04617 0.0
H228 H 0.7147 0.9925 0.84293 0.0
H229 H 0.75825 0.20939 0.89719 0.0
H230 H 0.78794 0.11229 0.8354 0.0
C231 C 0.05294 0.66543 0.98605 0.0
C232 C 0.04748 0.6514 0.02213 0.0
N233 N 0.06394 0.66027 0.04621 0.0
N234 N 0.07287 0.68239 0.98763 0.0
C235 C 0.07897 0.67878 0.02477 0.0
H236 H 0.04241 0.66595 0.96106 0.0
Co237 Co 0.08541 0.71726 0.95196 0.0
C238 C 0.1237 0.66103 0.97313 0.0
O239 O 0.11176 0.6357 0.99257 0.0
N240 N 0.09714 0.75397 0.91689 0.0
C241 C 0.11611 0.78707 0.87275 0.0
C242 C 0.11358 0.75095 0.89155 0.0
C243 C 0.08986 0.79165 0.91255 0.0
N244 N 0.10131 0.81283 0.88659 0.0
O245 O 0.09076 0.75528 0.99384 0.0
H246 H 0.12321 0.72446 0.88721 0.0
H247 H 0.07606 0.80312 0.9275 0.0
O248 O 0.11513 0.69222 0.95761 0.0
C249 C 0.07291 0.77238 1.00256 0.0
O250 O 0.05565 0.76339 0.98189 0.0
N251 N 0.0777 0.68232 0.911 0.0
C252 C 0.05799 0.63322 0.85552 0.0
C253 C 0.07047 0.61684 0.88539 0.0
C254 C 0.0804 0.64187 0.91248 0.0
C255 C 0.06537 0.6987 0.88229 0.0
C256 C 0.05587 0.6748 0.85367 0.0
H257 H 0.0891 0.62831 0.93584 0.0
H258 H 0.0622 0.73042 0.88211 0.0
H259 H 0.09385 0.69095 0.03638 0.0
H260 H 1.03213 0.63839 0.03062 0.0
H261 H 0.12827 0.79427 0.85143 0.0
H262 H 0.07236 0.58477 0.88791 0.0
H263 H 0.04637 0.68855 0.83101 0.0
C264 C 0.29718 0.8911 0.73948 0.0
C265 C 0.30289 0.94173 0.77216 0.0
N266 N 0.33179 0.93769 0.78534 0.0
N267 N 0.32343 0.86618 0.73812 0.0
C268 C 0.34445 0.89309 0.76453 0.0
H269 H 0.28231 0.88086 0.72602 0.0
Co270 Co 0.32938 0.82389 0.70504 0.0
C271 C 0.37807 0.83848 0.68616 0.0
O272 O 0.38024 0.80882 0.66177 0.0
N273 N 0.33527 0.78042 0.67067 0.0
C274 C 0.33953 0.74323 0.61758 0.0
C275 C 0.33931 0.78156 0.63234 0.0
C276 C 0.33328 0.7408 0.67822 0.0
N277 N 0.33544 0.71771 0.64653 0.0
O278 O 0.33436 0.78937 0.74866 0.0
H279 H 0.34143 0.80861 0.61573 0.0
H280 H 0.33016 0.72854 0.70635 0.0
O281 O 0.35992 0.84421 0.70308 0.0
C282 C 0.31539 0.77944 0.76047 0.0
O283 O 0.29854 0.79671 0.74438 0.0
N284 N 0.32098 0.85614 0.66424 0.0
C285 C 0.29879 0.90459 0.61281 0.0
C286 C 0.31855 0.91741 0.62887 0.0
C287 C 0.32938 0.89271 0.65511 0.0
C288 C 0.30176 0.84353 0.64887 0.0
C289 C 0.29047 0.86716 0.62274 0.0
H290 H 0.3438 0.90373 0.66942 0.0
H291 H 0.29485 0.81533 0.65797 0.0
H292 H 0.36055 0.88218 0.77092 0.0
H293 H 0.29113 0.96157 0.78496 0.0
H294 H 0.34175 0.73479 0.58773 0.0
H295 H 0.32525 0.94643 0.62174 0.0
H296 H 0.27523 0.8566 0.6108 0.0
C297 C 1.03231 0.41233 0.7602 0.0
C298 C 1.03441 0.40349 0.79895 0.0
N299 N 1.01581 0.4131 0.81687 0.0
N300 N 1.01252 0.4278 0.75361 0.0
C301 C 1.00269 0.42691 0.78845 0.0
H302 H 0.04522 0.41186 0.73923 0.0
Co303 Co 1.00393 0.45996 0.71156 0.0
C304 C 0.95989 0.42281 0.69691 0.0
O305 O 0.96597 0.41157 0.66247 0.0
N306 N 0.99473 0.49447 0.66942 0.0
C307 C 0.98273 0.52052 0.61357 0.0
C308 C 0.987 0.48575 0.63363 0.0
C309 C 0.99518 0.53505 0.6695 0.0
N310 N 0.98829 0.55141 0.63629 0.0
O311 O 1.00163 0.50371 0.74745 0.0
H312 H 0.98538 0.45615 0.62163 0.0
H313 H 1.00059 0.55341 0.69309 0.0
O314 O 0.97307 0.44217 0.71901 0.0
C315 C 1.02053 0.51985 0.74613 0.0
O316 O 1.03362 0.50831 0.71848 0.0
N317 N 1.01077 0.4185 0.6772 0.0
C318 C 1.02985 0.36322 0.62799 0.0
C319 C 1.01513 0.35051 0.65619 0.0
C320 C 1.00605 0.37875 0.68128 0.0
C321 C 1.02609 0.43052 0.6514 0.0
C322 C 1.03547 0.40358 0.62601 0.0
H323 H 0.99544 0.3688 0.70407 0.0
H324 H 1.03127 0.46142 0.65069 0.0
H325 H 0.98743 0.44163 0.79398 0.0
H326 H 0.04926 0.39509 0.81348 0.0
H327 H 0.97672 0.52291 0.58431 0.0
H328 H 1.01078 0.31924 0.65875 0.0
H329 H 0.04706 0.41415 0.60496 0.0
C330 C 0.30247 0.41607 0.48027 0.0
C331 C 0.30371 0.40819 0.44128 0.0
N332 N 0.32379 0.4179 0.42883 0.0
N333 N 0.32176 0.43027 0.4925 0.0
C334 C 0.33468 0.42862 0.46115 0.0
H335 H 0.28784 0.41622 0.4973 0.0
Co336 Co 0.32754 0.46211 0.53601 0.0
C337 C 0.36764 0.41775 0.56267 0.0
O338 O 0.35656 0.40847 0.59357 0.0
N339 N 0.33426 0.49681 0.57896 0.0
C340 C 0.3534 0.5353 0.61898 0.0
C341 C 0.35386 0.50269 0.5954 0.0
C342 C 0.32243 0.52804 0.59253 0.0
N343 N 0.33346 0.5516 0.61828 0.0
O344 O 0.33362 0.50675 0.50167 0.0
H345 H 0.36865 0.4879 0.58793 0.0
H346 H 0.3067 0.53454 0.58086 0.0
O347 O 0.35859 0.44024 0.53696 0.0
C348 C 0.31507 0.52322 0.49568 0.0
O349 O 0.29805 0.50832 0.51325 0.0
N350 N 0.31684 0.42067 0.56857 0.0
C351 C 0.29672 0.3644 0.61611 0.0
C352 C 0.31038 0.35199 0.58629 0.0
C353 C 0.31981 0.38062 0.56204 0.0
C354 C 0.30218 0.4326 0.59555 0.0
C355 C 0.29216 0.40509 0.61986 0.0
H356 H 0.33025 0.37071 0.53901 0.0
H357 H 0.29782 0.4636 0.59813 0.0
H358 H 0.35111 0.4399 0.46117 0.0
H359 H 0.29009 0.40099 0.4227 0.0
H360 H 0.36761 0.54823 0.63259 0.0
H361 H 0.31398 0.32062 0.58226 0.0
H362 H 0.28123 0.41558 0.642 0.0
C363 C 1.02951 0.88537 0.50926 0.0
C364 C 1.02381 0.93712 0.47909 0.0
N365 N 0.9943 0.93625 0.47086 0.0
N366 N 1.0027 0.86278 0.5147 0.0
C367 C 0.98127 0.89228 0.49268 0.0
H368 H 0.04464 0.87395 0.52047 0.0
Co369 Co 0.99839 0.82239 0.55118 0.0
C370 C 0.95494 0.85162 0.58217 0.0
O371 O 0.96451 0.85894 0.61514 0.0
N372 N 0.99409 0.7811 0.58917 0.0
C373 C 0.98931 0.75146 0.64591 0.0
C374 C 0.99055 0.78708 0.62703 0.0
C375 C 0.99524 0.74056 0.58633 0.0
N376 N 0.99309 0.72141 0.62086 0.0
O377 O 0.99233 0.7847 0.51091 0.0
H378 H 0.99005 0.81559 0.64138 0.0
H379 H 0.99785 0.72513 0.55936 0.0
O380 O 0.96673 0.83818 0.55467 0.0
C381 C 1.01102 0.77678 0.49703 0.0
O382 O 1.02785 0.79694 0.51012 0.0
N383 N 1.00866 0.8581 0.58896 0.0
C384 C 1.03406 0.90747 0.63625 0.0
C385 C 1.01422 0.92093 0.62095 0.0
C386 C 1.00227 0.89644 0.59584 0.0
C387 C 1.02805 0.84491 0.60302 0.0
C388 C 0.04109 0.86917 0.62629 0.0
H389 H 0.98829 0.90861 0.58122 0.0
H390 H 1.03387 0.8157 0.59472 0.0
H391 H 0.96446 0.88372 0.48972 0.0
H392 H 1.03547 0.9564 0.46507 0.0
H393 H 0.9861 0.74975 0.67615 0.0
H394 H 1.00857 0.95093 0.62681 0.0
H395 H 0.05667 0.85825 0.63604 0.0
C396 C 0.77584 0.17077 0.23256 0.0
C397 C 0.77331 0.15777 0.19515 0.0
N398 N 0.75197 0.15342 0.18719 0.0
N399 N 0.75621 0.17493 0.24865 0.0
C400 C 0.74212 0.16259 0.221 0.0
H401 H 0.79082 0.18101 0.24561 0.0
Co402 Co 0.75096 0.20809 0.29139 0.0
C403 C 0.70741 0.18119 0.32001 0.0
O404 O 0.71677 0.17859 0.35392 0.0
N405 N 0.7458 0.24373 0.3348 0.0
C406 C 0.7462 0.27295 0.39309 0.0
C407 C 0.74888 0.2377 0.37313 0.0
C408 C 0.74044 0.28312 0.33298 0.0
N409 N 0.74115 0.30156 0.36764 0.0
O410 O 0.74582 0.25153 0.25587 0.0
H411 H 0.75326 0.2097 0.38637 0.0
H412 H 0.73658 0.29877 0.30669 0.0
O413 O 0.71948 0.19127 0.29157 0.0
C414 C 0.7641 0.26947 0.25171 0.0
O415 O 0.78055 0.25794 0.27305 0.0
N416 N 0.76032 0.16678 0.32414 0.0
C417 C 0.78186 0.1145 0.37355 0.0
C418 C 0.76227 0.10302 0.35575 0.0
C419 C 0.75191 0.12947 0.33019 0.0
C420 C 0.78033 0.17644 0.33841 0.0
C421 C 0.79114 0.15121 0.36382 0.0
H422 H 0.73716 0.12019 0.31576 0.0
H423 H 0.78754 0.20497 0.33121 0.0
H424 H 0.72498 0.16204 0.22556 0.0
H425 H 0.78614 0.15637 0.174 0.0
H426 H 0.7487 0.27764 0.42366 0.0
H427 H 0.75492 0.07434 0.36212 0.0
H428 H 0.80638 0.16074 0.37659 0.0
C429 C 0.04256 0.62045 0.25723 0.0
C430 C 0.04233 0.64177 0.2235 0.0
N431 N 0.062 0.63928 0.20658 0.0
N432 N 0.0622 0.60389 0.26172 0.0
C433 C 0.07334 0.61453 0.23008 0.0
H434 H 1.0291 0.61619 0.27667 0.0
Co435 Co 0.07103 0.56981 0.30091 0.0
C436 C 0.11328 0.61188 0.32289 0.0
O437 O 0.10352 0.62494 0.35381 0.0
N438 N 0.08024 0.53373 0.34073 0.0
C439 C 0.09151 0.5073 0.39658 0.0
C440 C 0.08682 0.54209 0.37727 0.0
C441 C 0.08141 0.49328 0.33883 0.0
N442 N 0.08806 0.47682 0.3722 0.0
O443 O 0.07589 0.52961 0.2616 0.0
H444 H 0.08736 0.57139 0.39018 0.0
H445 H 0.0772 0.47553 0.3139 0.0
O446 O 0.10227 0.59078 0.29842 0.0
C447 C 0.05732 0.51236 0.25872 0.0
O448 O 0.04301 0.52003 0.2857 0.0
N449 N 0.06167 0.60817 0.33743 0.0
C450 C 0.03979 0.66075 0.38569 0.0
C451 C 0.05383 0.67541 0.35748 0.0
C452 C 0.06427 0.64861 0.33299 0.0
C453 C 0.04674 0.59396 0.36299 0.0
C454 C 1.03604 0.61964 0.38814 0.0
H455 H 0.0746 0.66025 0.31049 0.0
H456 H 0.04293 0.56239 0.36374 0.0
H457 H 0.08882 0.60166 0.22396 0.0
H458 H 1.0282 0.65625 0.21145 0.0
H459 H 0.09649 0.50445 0.42639 0.0
H460 H 0.05684 0.7072 0.35474 0.0
H461 H 1.02501 0.60757 0.40938 0.0
C462 C 0.78792 0.63526 0.49452 0.0
C463 C 0.78479 0.68625 0.52774 0.0
N464 N 0.75527 0.68979 0.53548 0.0
N465 N 0.76009 0.61778 0.48757 0.0
C466 C 0.74024 0.64954 0.511 0.0
H467 H 0.80242 0.62144 0.48343 0.0
Co468 Co 0.75255 0.57596 0.45378 0.0
C469 C 0.7088 0.61172 0.43101 0.0
O470 O 0.7178 0.62583 0.39975 0.0
N471 N 0.74447 0.53223 0.42011 0.0
C472 C 0.73053 0.49703 0.37084 0.0
C473 C 0.73366 0.53464 0.38612 0.0
C474 C 0.74754 0.49222 0.42468 0.0
N475 N 0.73924 0.47043 0.39519 0.0
O476 O 0.74915 0.54233 0.49808 0.0
H477 H 0.72877 0.56198 0.37236 0.0
H478 H 0.75572 0.47878 0.44891 0.0
O479 O 0.72082 0.59251 0.45502 0.0
C480 C 0.76812 0.52789 0.50333 0.0
O481 O 0.78266 0.5345 0.47643 0.0
N482 N 0.76032 0.60939 0.41098 0.0
C483 C 0.78152 0.65857 0.3573 0.0
C484 C 0.76881 0.67501 0.38659 0.0
C485 C 0.7582 0.6501 0.4126 0.0
C486 C 0.77356 0.59306 0.38365 0.0
C487 C 0.78362 0.61691 0.35568 0.0
H488 H 0.74808 0.66386 0.43403 0.0
H489 H 0.77699 0.56143 0.38396 0.0
H490 H 0.72323 0.643 0.51444 0.0
H491 H 0.79732 0.70236 0.54331 0.0
H492 H 0.72265 0.48974 0.34377 0.0
H493 H 0.76678 0.70707 0.38895 0.0
H494 H 0.79344 0.60303 0.33365 0.0
C495 C 0.03946 0.1518 0.4965 0.0
C496 C 0.04013 0.0995 0.52815 0.0
N497 N 0.06924 0.09241 0.53837 0.0
N498 N 0.068 0.16629 0.49275 0.0
C499 C 0.08611 0.13153 0.51674 0.0
H500 H 1.02571 0.16753 0.48461 0.0
Co501 Co 0.0776 0.20707 0.45972 0.0
C502 C 0.12292 0.17443 0.44468 0.0
O503 O 0.11738 0.16265 0.40992 0.0
N504 N 0.08737 0.24858 0.42639 0.0
C505 C 0.09983 0.28266 0.3757 0.0
C506 C 0.09661 0.24533 0.39116 0.0
C507 C 0.08568 0.28856 0.43181 0.0
N508 N 0.09289 0.30966 0.40137 0.0
O509 O 0.08006 0.24273 0.50289 0.0
H510 H 0.09984 0.21767 0.37633 0.0
H511 H 0.07896 0.30237 0.45714 0.0
O512 O 0.10852 0.19024 0.46646 0.0
C513 C 0.06094 0.25431 0.51133 0.0
O514 O 0.04468 0.23986 0.491 0.0
N515 N 0.07171 0.17307 0.41769 0.0
C516 C 0.05259 0.12377 0.36212 0.0
C517 C 0.06613 0.10778 0.39074 0.0
C518 C 0.0758 0.13299 0.41787 0.0
C519 C 0.05763 0.18864 0.39122 0.0
C520 C 0.0487 0.16489 0.36211 0.0
H521 H 0.08606 0.12005 0.43974 0.0
H522 H 0.0529 0.21965 0.39306 0.0
H523 H 0.1033 0.13492 0.52069 0.0
H524 H 1.02675 0.08431 0.54198 0.0
H525 H 0.10616 0.2895 0.34742 0.0
H526 H 0.06932 0.07599 0.39192 0.0
H527 H 1.03823 0.17827 0.34062 0.0
C528 C 0.80312 0.38933 0.75969 0.0
C529 C 0.80336 0.4015 0.79783 0.0
N530 N 0.82138 0.38716 0.8154 0.0
N531 N 0.82067 0.36672 0.75313 0.0
C532 C 0.83083 0.36513 0.78751 0.0
H533 H 0.79006 0.39367 0.73924 0.0
Co534 Co 0.82822 0.33168 0.71297 0.0
C535 C 0.87061 0.37942 0.72901 0.0
O536 O 0.86124 0.40784 0.7488 0.0
N537 N 0.83604 0.29454 0.67424 0.0
C538 C 0.85491 0.2608 0.6304 0.0
C539 C 0.85273 0.29691 0.64925 0.0
C540 C 0.82801 0.25711 0.66914 0.0
N541 N 0.8394 0.23583 0.64325 0.0
O542 O 0.83216 0.29073 0.75125 0.0
H543 H 0.86326 0.32259 0.64606 0.0
H544 H 0.8148 0.24447 0.68543 0.0
O545 O 0.85951 0.34995 0.71515 0.0
C546 C 0.81287 0.27768 0.75627 0.0
O547 O 0.79779 0.29046 0.7324 0.0
N548 N 0.82092 0.37031 0.67512 0.0
C549 C 0.80196 0.42369 0.62299 0.0
C550 C 0.81521 0.4376 0.65316 0.0
C551 C 0.82474 0.41042 0.67859 0.0
C552 C 0.80743 0.3566 0.64657 0.0
C553 C 0.79835 0.38256 0.61959 0.0
H554 H 0.83418 0.4221 0.7021 0.0
H555 H 0.803 0.32537 0.64514 0.0
H556 H 0.84425 0.34527 0.79209 0.0
H557 H 0.78996 0.41616 0.81174 0.0
H558 H 0.86743 0.25292 0.61005 0.0
H559 H 0.81816 0.46931 0.657 0.0
H560 H 0.78809 0.37067 0.59684 0.0
C561 C 0.52763 0.91989 0.76319 0.0
C562 C 0.52799 0.9126 0.80224 0.0
N563 N 0.50799 0.91859 0.81639 0.0
N564 N 0.50752 0.93106 0.75249 0.0
C565 C 0.49573 0.92829 0.78527 0.0
H566 H 0.54181 0.92216 0.74521 0.0
Co567 Co 0.50095 0.96455 0.71039 0.0
C568 C 0.45585 0.93911 0.68576 0.0
O569 O 0.46124 0.94707 0.64999 0.0
N570 N 0.49439 1.00023 0.66849 0.0
C571 C 0.49684 0.03412 0.61317 0.0
C572 C 0.50039 0.99796 0.63102 0.0
C573 C 0.48648 0.03791 0.67189 0.0
N574 N 0.48836 0.05928 0.63917 0.0
O575 O 0.49703 1.00715 0.74704 0.0
H576 H 0.50816 0.97272 0.6176 0.0
H577 H 0.48098 0.05089 0.69855 0.0
O578 O 0.46981 0.94602 0.71263 0.0
C579 C 0.51453 0.02813 0.74715 0.0
O580 O 0.52799 0.02382 0.71823 0.0
N581 N 0.50955 0.92424 0.67594 0.0
C582 C 0.5318 0.87462 0.62475 0.0
C583 C 0.50973 0.86798 0.63306 0.0
C584 C 0.49912 0.89211 0.66005 0.0
C585 C 0.53103 0.9305 0.66872 0.0
C586 C 0.54258 0.90556 0.64414 0.0
H587 H 0.48279 0.88446 0.66795 0.0
H588 H 0.5393 0.95542 0.68228 0.0
H589 H 0.47936 0.93954 0.78755 0.0
H590 H 0.54238 0.90776 0.81957 0.0
H591 H 0.5017 0.04227 0.58429 0.0
H592 H 0.50092 0.84358 0.61956 0.0
H593 H 0.5597 0.91096 0.6397 0.0
C594 C 0.79815 0.91191 0.51413 0.0
C595 C 0.79521 0.89475 0.4783 0.0
N596 N 0.81322 0.9017 0.45761 0.0
N597 N 0.81798 0.92915 0.51565 0.0
C598 C 0.82687 0.92158 0.48113 0.0
H599 H 0.78591 0.91495 0.53612 0.0
Co600 Co 0.82844 0.96743 0.54999 0.0
C601 C 0.86972 0.92874 0.57584 0.0
O602 O 0.86199 0.93278 0.61086 0.0
N603 N 0.83915 1.00813 0.58337 0.0
C604 C 0.86167 0.05608 0.60422 0.0
C605 C 0.86021 1.01912 0.58748 0.0
C606 C 0.82813 0.04039 0.59658 0.0
N607 N 0.84155 0.06969 0.60949 0.0
O608 O 0.83391 1.00323 0.50714 0.0
H609 H 0.87388 1.0044 0.57468 0.0
H610 H 0.81082 0.04404 0.5933 0.0
O611 O 0.85832 0.94205 0.54745 0.0
C612 C 0.81536 1.01735 0.49759 0.0
O613 O 0.7984 1.00554 0.51743 0.0
N614 N 0.81937 0.93426 0.59121 0.0
C615 C 0.79528 0.88419 0.63977 0.0
C616 C 0.8129 0.8694 0.61879 0.0
C617 C 0.82396 0.89433 0.59327 0.0
C618 C 0.80254 0.94933 0.61198 0.0
C619 C 0.79006 0.92473 0.63587 0.0
H620 H 0.8355 0.88102 0.57385 0.0
H621 H 0.79754 0.97984 0.60766 0.0
H622 H 0.8422 0.93406 0.47194 0.0
H623 H 0.78029 0.88212 0.46699 0.0
H624 H 0.87635 0.0735 0.6083 0.0
H625 H 0.81715 0.83805 0.62013 0.0
H626 H 0.77608 0.93705 0.65035 0.0
C627 C 0.52408 0.37288 0.49613 0.0
C628 C 0.5232 0.38545 0.45844 0.0
N629 N 0.50373 0.37529 0.44289 0.0
N630 N 0.50543 0.35412 0.50466 0.0
C631 C 0.4936 0.35573 0.47201 0.0
H632 H 0.53809 0.37418 0.51495 0.0
Co633 Co 0.4992 0.32169 0.54703 0.0
C634 C 0.45674 0.35691 0.57133 0.0
O635 O 0.46577 0.36476 0.60482 0.0
N636 N 0.49261 0.2868 0.58969 0.0
C637 C 0.48765 0.25851 0.64755 0.0
C638 C 0.49098 0.29394 0.62808 0.0
C639 C 0.48958 0.2466 0.58703 0.0
N640 N 0.48682 0.22892 0.62144 0.0
O641 O 0.49374 0.27828 0.51183 0.0
H642 H 0.49284 0.32279 0.64174 0.0
H643 H 0.48991 0.22959 0.56064 0.0
O644 O 0.46808 0.33949 0.54533 0.0
C645 C 0.51243 0.26443 0.50331 0.0
O646 O 0.52958 0.28152 0.51895 0.0
N647 N 0.50849 0.36356 0.58003 0.0
C648 C 0.53233 0.42466 0.61802 0.0
C649 C 0.51335 0.43287 0.5963 0.0
C650 C 0.50241 0.40248 0.57629 0.0
C651 C 0.52612 0.35438 0.602 0.0
C652 C 0.53754 0.38386 0.62233 0.0
H653 H 0.48929 0.41041 0.55705 0.0
H654 H 0.53164 0.32377 0.60341 0.0
H655 H 0.47879 0.33892 0.46936 0.0
H656 H 0.53695 0.39725 0.44293 0.0
H657 H 0.48676 0.25456 0.67845 0.0
H658 H 0.50641 0.4622 0.59418 0.0
H659 H 0.55032 0.37394 0.64132 0.0
C660 C 0.26858 0.65461 0.25409 0.0
C661 C 0.26789 0.64018 0.2167 0.0
N662 N 0.24906 0.65139 0.19965 0.0
N663 N 0.25033 0.67518 0.26072 0.0
C664 C 0.23871 0.67148 0.22792 0.0
H665 H 0.28253 0.65449 0.27307 0.0
Co666 Co 0.24333 0.71545 0.29619 0.0
C667 C 0.2019 0.6771 0.32548 0.0
O668 O 0.21067 0.67726 0.36004 0.0
N669 N 0.23548 0.75811 0.33025 0.0
C670 C 0.21501 0.80646 0.35535 0.0
C671 C 0.21504 0.76878 0.33984 0.0
C672 C 0.24752 0.79085 0.34 0.0
N673 N 0.23535 0.82058 0.35497 0.0
O674 O 0.23719 0.75012 0.25304 0.0
H675 H 0.20044 0.75279 0.33251 0.0
H676 H 0.26452 0.79441 0.33337 0.0
O677 O 0.21273 0.69265 0.29762 0.0
C678 C 0.25581 0.76507 0.24526 0.0
O679 O 0.27159 0.75899 0.27011 0.0
N680 N 0.25368 0.68327 0.33743 0.0
C681 C 0.27777 0.6381 0.39064 0.0
C682 C 0.26009 0.62126 0.37041 0.0
C683 C 0.2491 0.64362 0.34247 0.0
C684 C 0.27088 0.69997 0.35663 0.0
C685 C 0.28327 0.6779 0.38287 0.0
H686 H 0.23715 0.62887 0.32446 0.0
H687 H 0.27606 0.72991 0.3498 0.0
H688 H 0.22395 0.68775 0.22427 0.0
H689 H 0.28158 0.62727 0.20191 0.0
H690 H 0.20086 0.82349 0.36348 0.0
H691 H 0.25563 0.59022 0.37453 0.0
H692 H 0.29737 0.69157 0.39625 0.0
C693 C 0.53927 0.13792 0.26488 0.0
C694 C 0.54098 0.19144 0.2354 0.0
N695 N 0.57007 0.1964 0.224 0.0
N696 N 0.56732 0.12079 0.26674 0.0
C697 C 0.58609 0.15482 0.24325 0.0
H698 H 0.52528 0.12259 0.27641 0.0
Co699 Co 0.57556 0.07678 0.29668 0.0
C700 C 0.62013 0.11116 0.3206 0.0
O701 O 0.61192 0.12098 0.35403 0.0
N702 N 0.58359 0.03078 0.32659 0.0
C703 C 0.59735 0.99106 0.37221 0.0
C704 C 0.59637 0.02946 0.35837 0.0
C705 C 0.57678 0.99225 0.32227 0.0
N706 N 0.58507 0.96773 0.34936 0.0
O707 O 0.57815 0.04607 0.25006 0.0
H708 H 0.60374 0.05475 0.37229 0.0
H709 H 0.56561 0.98192 0.3004 0.0
O710 O 0.60756 0.09455 0.29526 0.0
C711 C 0.55879 0.03277 0.24547 0.0
O712 O 0.54469 0.04129 0.27257 0.0
N713 N 0.56863 0.10634 0.34179 0.0
C714 C 0.54694 0.14965 0.39856 0.0
C715 C 0.56116 0.1689 0.37337 0.0
C716 C 0.57158 0.14684 0.34481 0.0
C717 C 0.55456 0.08744 0.36613 0.0
C718 C 0.54379 0.10842 0.39509 0.0
H719 H 0.58179 0.16256 0.32465 0.0
H720 H 0.55056 0.05627 0.36188 0.0
H721 H 0.6028 0.14883 0.23675 0.0
H722 H 0.52783 0.20824 0.22271 0.0
H723 H 0.60585 0.98116 0.3978 0.0
H724 H 0.56369 0.20092 0.37508 0.0
H725 H 0.5325 0.09291 0.41368 0.0
C726 C 0.27914 0.12501 0.51383 0.0
C727 C 0.27971 0.13536 0.55238 0.0
N728 N 0.26121 0.12275 0.56952 0.0
N729 N 0.26058 0.1052 0.50639 0.0
C730 C 0.25068 0.10297 0.54085 0.0
H731 H 0.29207 0.12921 0.49328 0.0
Co732 Co 0.25169 0.07579 0.46275 0.0
C733 C 0.21094 0.12621 0.48217 0.0
O734 O 0.22069 0.1503 0.50661 0.0
N735 N 0.24277 0.04422 0.42022 0.0
C736 C 0.22157 1.00806 0.38125 0.0
C737 C 0.22346 0.04332 0.40164 0.0
C738 C 0.25258 1.01001 0.40926 0.0
N739 N 0.23981 0.98692 0.3866 0.0
O740 O 0.24543 0.03082 0.49614 0.0
H741 H 0.21067 0.0649 0.40516 0.0
H742 H 0.26831 1.00116 0.41958 0.0
O743 O 0.22134 0.09756 0.46592 0.0
C744 C 0.26337 1.0133 0.5035 0.0
O745 O 0.28104 0.0275 0.48743 0.0
N746 N 0.26059 0.11774 0.42943 0.0
C747 C 0.28032 0.17521 0.38244 0.0
C748 C 0.26695 0.18668 0.41304 0.0
C749 C 0.25705 0.15749 0.43592 0.0
C750 C 0.27423 0.10635 0.40056 0.0
C751 C 0.28378 0.13444 0.37617 0.0
H752 H 0.24746 0.16719 0.45982 0.0
H753 H 0.27835 0.07529 0.3968 0.0
H754 H 0.2363 0.08516 0.54447 0.0
H755 H 0.29371 0.14802 0.56674 0.0
H756 H 0.2072 0.99722 0.36649 0.0
H757 H 0.26418 0.218 0.41914 0.0
H758 H 0.29422 0.12441 0.35311 0.0
C759 C 0.55271 0.66161 0.51556 0.0
C760 C 0.55205 0.655 0.55477 0.0
N761 N 0.57137 0.66542 0.57032 0.0
N762 N 0.57238 0.67619 0.5065 0.0
C763 C 0.5838 0.67519 0.53983 0.0
H764 H 0.53888 0.66159 0.49629 0.0
Co765 Co 0.57912 0.71051 0.46578 0.0
C766 C 0.62006 0.67299 0.43845 0.0
O767 O 0.61041 0.67103 0.40464 0.0
N768 N 0.58676 0.7479 0.42603 0.0
C769 C 0.60704 0.79685 0.40097 0.0
C770 C 0.60721 0.76203 0.42155 0.0
C771 C 0.57439 0.776 0.40806 0.0
N772 N 0.58642 0.80614 0.39297 0.0
O773 O 0.58454 0.75222 0.50295 0.0
H774 H 0.62142 0.75111 0.43622 0.0
H775 H 0.55692 0.77707 0.40964 0.0
O776 O 0.60982 0.68917 0.46668 0.0
C777 C 0.56627 0.76993 0.50712 0.0
O778 O 0.55034 0.76058 0.48349 0.0
N779 N 0.56948 0.67111 0.43039 0.0
C780 C 0.5474 0.61595 0.38414 0.0
C781 C 0.56373 0.60322 0.40937 0.0
C782 C 0.57428 0.63126 0.43303 0.0
C783 C 0.55275 0.68316 0.40744 0.0
C784 C 0.54173 0.65628 0.38365 0.0
H785 H 0.58617 0.62099 0.45371 0.0
H786 H 0.54712 0.71345 0.40868 0.0
H787 H 0.60033 0.68583 0.5422 0.0
H788 H 0.53762 0.64809 0.57114 0.0
H789 H 0.6209 0.81594 0.3954 0.0
H790 H 0.56826 0.57202 0.4107 0.0
H791 H 0.52886 0.66686 0.365 0.0
C792 C 0.79991 0.87339 0.24304 0.0
C793 C 0.79863 0.89237 0.27796 0.0
N794 N 0.81792 0.88956 0.2965 0.0
N795 N 0.8198 0.85776 0.23943 0.0
C796 C 0.83013 0.86691 0.27256 0.0
H797 H 0.78687 0.86944 0.22241 0.0
Co798 Co 0.82938 0.82468 0.20023 0.0
C799 C 0.87125 0.86947 0.18205 0.0
O800 O 0.86216 0.884 0.15094 0.0
N801 N 0.83928 0.78967 0.16044 0.0
C802 C 0.85096 0.76441 0.1045 0.0
C803 C 0.84689 0.79886 0.12491 0.0
C804 C 0.83915 0.74918 0.1607 0.0
N805 N 0.84607 0.73341 0.12729 0.0
O806 O 0.83461 0.78448 0.23897 0.0
H807 H 0.84822 0.82857 0.11323 0.0
H808 H 0.83346 0.73095 0.18419 0.0
O809 O 0.86009 0.84679 0.20461 0.0
C810 C 0.8161 0.76717 0.24184 0.0
O811 O 0.80149 0.77495 0.21519 0.0
N812 N 0.81993 0.86278 0.16394 0.0
C813 C 0.79751 0.91419 0.11544 0.0
C814 C 0.81107 0.92959 0.14429 0.0
C815 C 0.82181 0.90329 0.16892 0.0
C816 C 0.80547 0.8478 0.13766 0.0
C817 C 0.79448 0.87294 0.11243 0.0
H818 H 0.83167 0.91537 0.19207 0.0
H819 H 0.80218 0.81605 0.13651 0.0
H820 H 0.84564 0.85427 0.27919 0.0
H821 H 0.78401 0.90523 0.28969 0.0
H822 H 0.85618 0.76222 0.07485 0.0
H823 H 0.81346 0.96152 0.14745 0.0
H824 H 0.78378 0.86036 0.09069 0.0
C825 C 0.53739 0.39776 0.25007 0.0
C826 C 0.53512 0.34424 0.27949 0.0
N827 N 0.50588 0.33962 0.28972 0.0
N828 N 0.50944 0.4152 0.24723 0.0
C829 C 0.49026 0.38134 0.26989 0.0
H830 H 0.55158 0.41295 0.23911 0.0
Co831 Co 0.50057 0.45855 0.21771 0.0
C832 C 0.45758 0.43125 0.18861 0.0
O833 O 0.46526 0.43934 0.15423 0.0
N834 N 0.49111 0.50379 0.18879 0.0
C835 C 0.46997 0.55585 0.17469 0.0
C836 C 0.47088 0.51909 0.19174 0.0
C837 C 0.50245 0.53343 0.17114 0.0
N838 N 0.48986 0.56513 0.16214 0.0
O839 O 0.496 0.48957 0.26338 0.0
H840 H 0.4579 0.50655 0.20866 0.0
H841 H 0.51984 0.53376 0.16801 0.0
O842 O 0.47029 0.43648 0.21759 0.0
C843 C 0.51482 0.5033 0.27178 0.0
O844 O 0.53134 0.49086 0.25128 0.0
N845 N 0.5084 0.42916 0.17336 0.0
C846 C 0.53017 0.3827 0.11911 0.0
C847 C 0.51264 0.36679 0.13951 0.0
C848 C 0.50213 0.39036 0.16697 0.0
C849 C 0.52578 0.44447 0.15411 0.0
C850 C 0.53661 0.42209 0.12628 0.0
H851 H 0.4897 0.37667 0.18441 0.0
H852 H 0.53239 0.47309 0.16218 0.0
H853 H 0.47352 0.38778 0.27611 0.0
H854 H 0.54805 0.32729 0.2927 0.0
H855 H 0.45626 0.57593 0.17473 0.0
H856 H 0.50747 0.33616 0.13488 0.0
H857 H 0.55039 0.43493 0.11145 0.0
C858 C 0.79146 0.39969 0.01194 0.0
C859 C 0.79413 0.34736 0.9807 0.0
N860 N 0.82306 0.34609 0.96756 0.0
N861 N 0.81901 0.41997 0.01271 0.0
C862 C 0.83824 0.38885 0.9872 0.0
H863 H 0.77733 0.4128 0.02511 0.0
Co864 Co 0.8268 0.46139 0.04554 0.0
C865 C 0.87191 0.43982 0.07099 0.0
O866 O 0.86485 0.44473 0.10618 0.0
N867 N 0.83431 0.50434 0.08 0.0
C868 C 0.83926 0.54193 0.13282 0.0
C869 C 0.8349 0.50427 0.11916 0.0
C870 C 0.83849 0.54306 0.07093 0.0
N871 N 0.84139 0.56615 0.10243 0.0
O872 O 0.83075 0.49625 1.002 0.0
H873 H 0.83214 0.47868 0.13742 0.0
H874 H 0.83873 0.55484 0.04198 0.0
O875 O 0.85803 0.44382 0.0436 0.0
C876 C 0.81206 0.50866 0.99152 0.0
O877 O 0.79498 0.49485 0.00977 0.0
N878 N 0.8195 0.42792 0.08653 0.0
C879 C 0.79921 0.37957 0.14066 0.0
C880 C 0.81829 0.3669 0.12262 0.0
C881 C 0.82806 0.39137 0.09492 0.0
C882 C 0.80045 0.43965 0.10276 0.0
C883 C 0.79024 0.41628 0.13046 0.0
H884 H 0.84189 0.38033 0.07929 0.0
H885 H 0.79307 0.46738 0.09373 0.0
H886 H 0.85476 0.39676 0.98044 0.0
H887 H 0.78125 0.32929 0.96837 0.0
H888 H 0.83997 0.55122 0.1627 0.0
H889 H 0.82518 0.33796 0.12915 0.0
H890 H 0.77522 0.42633 0.14321 0.0
C891 C 0.53146 0.88506 0.00891 0.0
C892 C 0.5286 0.93899 0.98085 0.0
N893 N 0.49918 0.94402 0.9731 0.0
N894 N 0.50355 0.86747 0.01377 0.0
C895 C 0.48386 0.90183 0.99323 0.0
H896 H 0.54589 0.8703 0.01929 0.0
Co897 Co 0.49579 0.82565 0.04664 0.0
C898 C 0.45197 0.84982 0.07281 0.0
O899 O 0.46017 0.84416 0.10724 0.0
N900 N 0.48757 0.78163 0.07833 0.0
C901 C 0.46808 0.72731 0.09312 0.0
C902 C 0.46797 0.76344 0.07482 0.0
C903 C 0.49967 0.75429 0.0977 0.0
N904 N 0.48803 0.72139 0.10721 0.0
O905 O 0.49301 0.79004 0.00343 0.0
H906 H 0.45486 0.77336 0.05656 0.0
H907 H 0.517 0.75635 0.10163 0.0
O908 O 0.46467 0.84386 0.0441 0.0
C909 C 0.51233 0.77842 0.99629 0.0
O910 O 0.52839 0.79614 0.01464 0.0
N911 N 0.50195 0.86012 0.08934 0.0
C912 C 0.52128 0.91632 0.13919 0.0
C913 C 0.50494 0.92756 0.11323 0.0
C914 C 0.4951 0.89898 0.08949 0.0
C915 C 0.51799 0.84878 0.11423 0.0
C916 C 0.52725 0.87596 0.14037 0.0
H917 H 0.48286 0.90891 0.0695 0.0
H918 H 0.52477 0.81935 0.11247 0.0
H919 H 0.46669 0.89632 0.98961 0.0
H920 H 0.54122 0.95659 0.96744 0.0
H921 H 0.45511 0.70538 0.09308 0.0
H922 H 0.49989 0.95844 0.11104 0.0
H923 H 0.53983 0.86595 0.15992 0.0
C924 C 0.28978 0.14479 0.7671 0.0
C925 C 0.28701 0.09051 0.73888 0.0
N926 N 0.25827 0.08889 0.7239 0.0
N927 N 0.26248 0.16551 0.76476 0.0
C928 C 0.2433 0.13307 0.73992 0.0
H929 H 0.30392 0.1588 0.77991 0.0
Co930 Co 0.25419 0.21118 0.79144 0.0
C931 C 0.20817 0.19406 0.81346 0.0
O932 O 0.21364 0.20256 0.84918 0.0
N933 N 0.24566 0.25867 0.81778 0.0
C934 C 0.22825 0.31672 0.8229 0.0
C935 C 0.22896 0.28068 0.80421 0.0
C936 C 0.25479 0.28247 0.84537 0.0
N937 N 0.24457 0.31814 0.84857 0.0
O938 O 0.25162 0.23989 0.7438 0.0
H939 H 0.21849 0.27191 0.78056 0.0
H940 H 0.26913 0.27505 0.86166 0.0
O941 O 0.22328 0.19394 0.78819 0.0
C942 C 0.27032 0.2514 0.73288 0.0
O943 O 0.28729 0.23968 0.75283 0.0
N944 N 0.25939 0.18312 0.83734 0.0
C945 C 0.27868 0.13309 0.8917 0.0
C946 C 0.25944 0.12162 0.87307 0.0
C947 C 0.25016 0.14689 0.84559 0.0
C948 C 0.27827 0.19429 0.85507 0.0
C949 C 0.28789 0.17024 0.88313 0.0
H950 H 0.2366 0.13576 0.82892 0.0
H951 H 0.28695 0.22033 0.84508 0.0
H952 H 0.2272 0.14114 0.73079 0.0
H953 H 0.29987 0.07162 0.72832 0.0
H954 H 0.21701 0.34078 0.81723 0.0
H955 H 0.25217 0.09268 0.87863 0.0
H956 H 0.30303 0.17947 0.89642 0.0
C957 C 0.53637 0.62619 0.75562 0.0
C958 C 0.53581 0.68041 0.72764 0.0
N959 N 0.56452 0.69547 0.72609 0.0
N960 N 0.56498 0.61826 0.76647 0.0
C961 C 0.58225 0.65904 0.74987 0.0
H962 H 0.52303 0.60676 0.76324 0.0
Co963 Co 0.57361 0.57623 0.79777 0.0
C964 C 0.61917 0.61131 0.81438 0.0
O965 O 0.61385 0.62419 0.84876 0.0
N966 N 0.58233 0.53281 0.82968 0.0
C967 C 0.5983 0.49785 0.87646 0.0
C968 C 0.59511 0.53522 0.86136 0.0
C969 C 0.57746 0.49324 0.82694 0.0
N970 N 0.58712 0.47141 0.85493 0.0
O971 O 0.57646 0.54325 0.75205 0.0
H972 H 0.60116 0.56241 0.87399 0.0
H973 H 0.56699 0.48039 0.80514 0.0
O974 O 0.60489 0.59337 0.79336 0.0
C975 C 0.55873 0.5261 0.74174 0.0
O976 O 0.54188 0.52887 0.76457 0.0
N977 N 0.56743 0.60857 0.84143 0.0
C978 C 0.54599 0.65758 0.89408 0.0
C979 C 0.56159 0.6735 0.86947 0.0
C980 C 0.57194 0.64865 0.84313 0.0
C981 C 0.55227 0.59265 0.86566 0.0
C982 C 0.54156 0.61656 0.89265 0.0
H983 H 0.58302 0.66228 0.82325 0.0
H984 H 0.54753 0.56164 0.86272 0.0
H985 H 0.59963 0.66089 0.75181 0.0
H986 H 0.52262 0.6936 0.71152 0.0
H987 H 0.60767 0.49065 0.90196 0.0
H988 H 0.56539 0.70515 0.87001 0.0
H989 H 0.52948 0.60343 0.91136 0.0
C990 C 0.2943 0.62699 0.01703 0.0
C991 C 0.2934 0.67865 0.04949 0.0
N992 N 0.26437 0.69139 0.05042 0.0
N993 N 0.26606 0.61806 0.00346 0.0
C994 C 0.24777 0.65591 0.02238 0.0
H995 H 0.30805 0.60869 0.00958 0.0
Co996 Co 0.25873 0.5778 0.96796 0.0
C997 C 0.21344 0.61283 0.94938 0.0
O998 O 0.22028 0.62857 0.91705 0.0
N999 N 0.25144 0.53618 0.93237 0.0
C1000 C 0.23649 0.50133 0.88399 0.0
C1001 C 0.2385 0.53843 0.90087 0.0
C1002 C 0.25764 0.49729 0.93306 0.0
N1003 N 0.24847 0.47558 0.90448 0.0
O1004 O 0.25543 0.54025 0.01046 0.0
H1005 H 0.23132 0.56533 0.88995 0.0
H1006 H 0.26875 0.48475 0.95377 0.0
O1007 O 0.22688 0.59325 0.9707 0.0
C1008 C 0.27389 0.52481 0.01862 0.0
O1009 O 0.29071 0.53557 0.99796 0.0
N1010 N 0.26575 0.61362 0.92686 0.0
C1011 C 0.28568 0.66418 0.87313 0.0
C1012 C 0.27125 0.67948 0.9003 0.0
C1013 C 0.26173 0.65386 0.92727 0.0
C1014 C 0.2803 0.59867 0.901 0.0
C1015 C 0.29016 0.62325 0.87351 0.0
H1016 H 0.25117 0.66668 0.94852 0.0
H1017 H 0.28501 0.56764 0.90237 0.0
H1018 H 0.23037 0.65618 0.01998 0.0
H1019 H 0.30597 0.6909 0.06796 0.0
H1020 H 0.2271 0.49382 0.85854 0.0
H1021 H 0.26749 0.71107 0.90082 0.0
H1022 H 0.30142 0.61053 0.85309 0.0
C1023 C 0.5509 0.16024 0.01417 0.0
C1024 C 0.55122 0.1484 0.05241 0.0
N1025 N 0.56938 0.16282 0.06974 0.0
N1026 N 0.56856 0.18274 0.00717 0.0
C1027 C 0.57887 0.18467 0.04154 0.0
H1028 H 0.53801 0.15474 0.99357 0.0
Co1029 Co 0.57747 0.21423 0.9647 0.0
C1030 C 0.61701 0.15975 0.98129 0.0
O1031 O 0.60657 0.13501 0.00394 0.0
N1032 N 0.58715 0.24741 0.92373 0.0
C1033 C 0.60944 0.28443 0.88788 0.0
C1034 C 0.60714 0.24921 0.90789 0.0
C1035 C 0.57746 0.28132 0.9115 0.0
N1036 N 0.59082 0.30484 0.89059 0.0
O1037 O 0.5836 0.25805 1.00002 0.0
H1038 H 0.62005 0.22816 0.91278 0.0
H1039 H 0.5613 0.28966 0.91956 0.0
O1040 O 0.60746 0.19063 0.96725 0.0
C1041 C 0.56512 0.27382 0.0072 0.0
O1042 O 0.54797 0.25779 0.99051 0.0
N1043 N 0.56791 0.17474 0.92903 0.0
C1044 C 0.54866 0.12444 0.87392 0.0
C1045 C 0.5618 0.10875 0.90335 0.0
C1046 C 0.57142 0.13448 0.93051 0.0
C1047 C 0.55396 0.18976 0.90207 0.0
C1048 C 0.5448 0.16552 0.87359 0.0
H1049 H 0.5811 0.12166 0.95301 0.0
H1050 H 0.54955 0.22088 0.90269 0.0
H1051 H 0.59292 0.20331 0.04539 0.0
H1052 H 0.53807 0.133 0.06656 0.0
H1053 H 0.62415 0.2955 0.87467 0.0
H1054 H 0.56481 0.07693 0.90499 0.0
H1055 H 0.53448 0.17874 0.85178 0.0
C1056 C 0.33906 0.47331 0.33624 0.0
C1057 C 0.3326 0.44354 0.31105 0.0
C1058 C 0.32398 0.39637 0.36008 0.0
C1059 C 0.32948 0.42582 0.3888 0.0
N1060 N 0.34478 0.49282 0.4022 0.0
N1061 N 0.31785 0.38835 0.28762 0.0
C1062 C 0.33808 0.46445 0.37647 0.0
C1063 C 0.32517 0.4078 0.32093 0.0
N1064 N 0.34468 0.50973 0.32178 0.0
N1065 N 0.31813 0.35858 0.37035 0.0
H1066 H 0.319 0.41957 0.2291 0.0
H1067 H 0.31279 0.35892 0.29397 0.0
H1068 H 0.31867 0.34894 0.3989 0.0
H1069 H 0.31414 0.33642 0.3504 0.0
H1070 H 0.34788 0.53496 0.33846 0.0
H1071 H 0.34511 0.51457 0.29204 0.0
H1072 H 0.35372 0.51799 0.39456 0.0
H1073 H 0.34119 0.49266 0.43118 0.0
C1074 C 1.00187 0.89856 0.42379 0.0
C1075 C 0.99169 0.93295 0.43133 0.0
C1076 C 0.99699 0.95699 0.36707 0.0
C1077 C 1.00431 0.91772 0.35612 0.0
N1078 N 1.01451 0.85075 0.37666 0.0
N1079 N 0.98119 0.99933 0.41739 0.0
C1080 C 1.00714 0.8879 0.3854 0.0
C1081 C 0.98949 0.96388 0.40519 0.0
N1082 N 1.00953 0.88242 0.4585 0.0
N1083 N 0.99952 0.98815 0.34246 0.0
H1084 H 0.97645 1.00322 0.44603 0.0
H1085 H 0.97797 0.02343 0.39937 0.0
H1086 H 1.00876 0.98518 0.31786 0.0
H1087 H 0.99497 1.01737 0.3485 0.0
H1088 H 1.01708 0.85449 0.4538 0.0
H1089 H 1.00507 0.91642 0.51514 0.0
H1090 H 1.01613 0.82842 0.39736 0.0
H1091 H 1.01771 0.84196 0.34843 0.0
C1092 C 0.3486 0.94434 0.85077 0.0
C1093 C 0.3324 0.93276 0.82499 0.0
C1094 C 0.31912 0.88094 0.8661 0.0
C1095 C 0.33107 0.89908 0.89705 0.0
N1096 N 0.36725 0.92466 0.90912 0.0
N1097 N 0.31408 0.88527 0.79331 0.0
C1098 C 0.34899 0.92447 0.887 0.0
C1099 C 0.32072 0.89924 0.82949 0.0
N1100 N 0.36319 0.97296 0.8406 0.0
N1101 N 0.30781 0.84646 0.87141 0.0
H1102 H 0.32277 0.91996 0.73888 0.0
H1103 H 0.30635 0.85709 0.79556 0.0
H1104 H 0.30936 0.83004 0.89682 0.0
H1105 H 0.298 0.83367 0.85015 0.0
H1106 H 0.37469 0.98466 0.85965 0.0
H1107 H 0.36255 0.98626 0.8134 0.0
H1108 H 0.38115 0.94089 0.90222 0.0
H1109 H 0.36923 0.90411 0.93142 0.0
C1110 C 1.00658 0.47248 0.90852 0.0
C1111 C 1.00672 0.44087 0.93413 0.0
C1112 C 1.01509 0.39173 0.88641 0.0
C1113 C 1.01376 0.42239 0.8576 0.0
N1114 N 1.01558 0.49317 0.84407 0.0
N1115 N 1.01745 0.38345 0.95972 0.0
C1116 C 1.01127 0.46338 0.86941 0.0
C1117 C 1.0125 0.40358 0.92542 0.0
N1118 N 1.00247 0.51002 0.92171 0.0
N1119 N 1.01864 0.35299 0.87653 0.0
H1120 H 1.01577 0.41604 0.01767 0.0
H1121 H 1.0212 0.35318 0.95417 0.0
H1122 H 1.0203 0.34414 0.84785 0.0
H1123 H 1.01914 0.33003 0.89678 0.0
H1124 H 1.00084 0.5349 0.904 0.0
H1125 H 0.99956 0.51519 0.95094 0.0
H1126 H 1.015 0.52337 0.85102 0.0
H1127 H 1.02235 0.48691 0.81748 0.0
C1128 C 0.73065 0.67726 0.63172 0.0
C1129 C 0.74634 0.64905 0.64519 0.0
C1130 C 0.76073 0.64816 0.58019 0.0
C1131 C 0.75195 0.68436 0.57461 0.0
N1132 N 0.72268 0.72943 0.58448 0.0
N1133 N 0.76785 0.59271 0.62329 0.0
C1134 C 0.73473 0.69798 0.59675 0.0
C1135 C 0.75903 0.62916 0.61655 0.0
N1136 N 0.71113 0.67993 0.64955 0.0
N1137 N 0.76792 0.63306 0.54486 0.0
H1138 H 0.7638 0.57629 0.64778 0.0
H1139 H 0.77811 0.57866 0.60377 0.0
H1140 H 0.76521 0.67074 0.49037 0.0
H1141 H 0.77262 0.60286 0.54757 0.0
H1142 H 0.69862 0.69818 0.63982 0.0
H1143 H 0.70695 0.65989 0.67135 0.0
H1144 H 0.71057 0.74236 0.60113 0.0
H1145 H 0.72604 0.7435 0.55831 0.0
C1146 C 0.09476 0.10306 0.63402 0.0
C1147 C 0.07982 0.13225 0.64813 0.0
C1148 C 0.06426 0.1333 0.58387 0.0
C1149 C 0.07215 0.09638 0.57789 0.0
N1150 N 0.1007 0.04958 0.58721 0.0
N1151 N 0.05718 0.18775 0.62786 0.0
C1152 C 0.08944 0.08189 0.59966 0.0
C1153 C 0.06652 0.15196 0.62026 0.0
N1154 N 0.11492 0.10037 0.64986 0.0
N1155 N 0.05823 0.15014 0.54861 0.0
H1156 H 0.06134 0.20426 0.65238 0.0
H1157 H 0.04606 0.20094 0.60912 0.0
H1158 H 0.06104 0.11394 0.49308 0.0
H1159 H 0.05422 0.18068 0.55197 0.0
H1160 H 0.12687 0.08149 0.63924 0.0
H1161 H 0.12025 0.12114 0.67038 0.0
H1162 H 0.11284 0.03611 0.60356 0.0
H1163 H 0.09659 0.0353 0.56136 0.0
C1164 C 0.75366 0.13007 0.11912 0.0
C1165 C 0.74331 0.15425 0.14794 0.0
C1166 C 0.73388 0.20349 0.09751 0.0
C1167 C 0.74712 0.18149 0.0735 0.0
N1168 N 0.76229 0.12834 0.0468 0.0
N1169 N 0.71475 0.20351 0.158 0.0
C1170 C 0.75438 0.14505 0.08101 0.0
C1171 C 0.73047 0.18787 0.13523 0.0
N1172 N 0.76368 0.09549 0.12901 0.0
N1173 N 0.7252 0.23832 0.08459 0.0
H1174 H 0.70845 0.18792 0.18108 0.0
H1175 H 0.70548 0.2282 0.1505 0.0
H1176 H 0.72803 0.24813 0.05647 0.0
H1177 H 0.71648 0.25795 0.10181 0.0
H1178 H 0.77264 0.07875 0.10943 0.0
H1179 H 0.76275 0.08423 0.15701 0.0
H1180 H 0.76672 0.09812 0.05098 0.0
H1181 H 0.76227 0.16469 0.99119 0.0
C1182 C 0.05476 0.6844 0.15089 0.0
C1183 C 0.06735 0.65388 0.16817 0.0
C1184 C 0.07968 0.63209 0.10509 0.0
C1185 C 0.06452 0.65781 0.08747 0.0
N1186 N 0.03988 0.71317 0.09217 0.0
N1187 N 0.10274 0.62529 0.16053 0.0
C1188 C 0.05276 0.68568 0.10999 0.0
C1189 C 0.08306 0.63463 0.14527 0.0
N1190 N 0.04666 0.71401 0.17368 0.0
N1191 N 0.09089 0.60526 0.08339 0.0
H1192 H 0.10768 0.63736 0.18688 0.0
H1193 H 0.1153 0.6132 0.14433 0.0
H1194 H 0.08858 0.6025 0.05369 0.0
H1195 H 0.10095 0.58371 0.09559 0.0
H1196 H 1.03832 0.73879 0.16346 0.0
H1197 H 0.05042 0.71562 0.20302 0.0
H1198 H 1.02932 0.73207 0.10662 0.0
H1199 H 0.03937 0.71652 0.06232 0.0
C1200 C 0.8411 0.33796 0.90427 0.0
C1201 C 0.82408 0.34976 0.92781 0.0
C1202 C 0.81365 0.40304 0.88555 0.0
C1203 C 0.82677 0.38509 0.85643 0.0
N1204 N 0.86337 0.36005 0.85129 0.0
N1205 N 0.80827 0.40096 0.95804 0.0
C1206 C 0.84381 0.3592 0.86922 0.0
C1207 C 0.81386 0.38475 0.92231 0.0
N1208 N 0.8546 0.30827 0.91579 0.0
N1209 N 0.8027 0.43749 0.87907 0.0
H1210 H 0.8153 0.36656 0.01349 0.0
H1211 H 0.8024 0.43048 0.95497 0.0
H1212 H 0.80569 0.45491 0.85475 0.0
H1213 H 0.79185 0.44935 0.89893 0.0
H1214 H 0.86672 0.29673 0.89822 0.0
H1215 H 0.85241 0.29399 0.94225 0.0
H1216 H 0.87675 0.34393 0.86089 0.0
H1217 H 0.86662 0.38096 0.82974 0.0
C1218 C 0.5043 0.90695 0.92446 0.0
C1219 C 0.49595 0.94233 0.93374 0.0
C1220 C 0.4959 0.96553 0.86871 0.0
C1221 C 0.50323 0.92644 0.85669 0.0
N1222 N 0.51454 0.85945 0.87511 0.0
N1223 N 0.48669 1.00984 0.92275 0.0
C1224 C 0.50756 0.89647 0.88533 0.0
C1225 C 0.49224 0.97336 0.90844 0.0
N1226 N 0.51136 0.88815 0.95832 0.0
N1227 N 0.49371 0.99544 0.84267 0.0
H1228 H 0.48431 1.01397 0.95229 0.0
H1229 H 0.48481 0.0355 0.90623 0.0
H1230 H 0.50063 0.99371 0.81575 0.0
H1231 H 0.48598 0.02234 0.84829 0.0
H1232 H 0.51712 0.859 0.95255 0.0
H1233 H 0.50892 0.92033 0.01634 0.0
H1234 H 0.51777 0.83714 0.89519 0.0
H1235 H 0.51615 0.85086 0.84637 0.0
C1236 C 0.80479 0.92981 0.39361 0.0
C1237 C 0.81537 0.90067 0.41648 0.0
C1238 C 0.83631 0.88008 0.36041 0.0
C1239 C 0.82199 0.9017 0.33626 0.0
N1240 N 0.8007 0.9621 0.33286 0.0
N1241 N 0.84138 0.84778 0.42209 0.0
C1242 C 0.80862 0.93092 0.3536 0.0
C1243 C 0.83116 0.87559 0.39991 0.0
N1244 N 0.79148 0.95745 0.41 0.0
N1245 N 0.85637 0.87009 0.34758 0.0
H1246 H 0.83804 0.84425 0.45135 0.0
H1247 H 0.85175 0.82638 0.41059 0.0
H1248 H 0.86278 0.88351 0.32305 0.0
H1249 H 0.86793 0.85599 0.36474 0.0
H1250 H 0.78326 0.97885 0.39374 0.0
H1251 H 0.78901 0.95956 0.4396 0.0
H1252 H 0.8048 0.96738 0.30415 0.0
H1253 H 0.8048 0.96738 0.30415 0.0
C1254 C 0.51256 0.3778 0.33685 0.0
C1255 C 0.50347 0.34199 0.32942 0.0
C1256 C 0.4824 0.34648 0.38734 0.0
C1257 C 0.4983 0.37415 0.40184 0.0
N1258 N 0.52141 0.42979 0.38291 0.0
N1259 N 0.47335 0.29791 0.3367 0.0
C1260 C 0.51132 0.39475 0.37411 0.0
C1261 C 0.48616 0.32762 0.35113 0.0
N1262 N 0.51896 0.39561 0.30227 0.0
N1263 N 0.46275 0.34349 0.40475 0.0
H1264 H 0.47638 0.28553 0.30959 0.0
H1265 H 0.46089 0.28455 0.35227 0.0
H1266 H 0.45815 0.36402 0.42583 0.0
H1267 H 0.45025 0.32517 0.3947 0.0
H1268 H 0.52406 0.42553 0.30681 0.0
H1269 H 0.5145 0.36229 0.24527 0.0
H1270 H 0.53224 0.44375 0.36424 0.0
H1271 H 0.51823 0.4449 0.4086 0.0
C1272 C 0.25739 0.63161 0.13155 0.0
C1273 C 0.24554 0.65568 0.15816 0.0
C1274 C 0.24285 0.70874 0.10929 0.0
C1275 C 0.25823 0.6874 0.08867 0.0
N1276 N 0.27081 0.63159 0.06214 0.0
N1277 N 0.21475 0.7005 0.15665 0.0
C1278 C 0.26272 0.64904 0.09567 0.0
C1279 C 0.23462 0.69024 0.14313 0.0
N1280 N 0.26308 0.59361 0.14062 0.0
N1281 N 0.23604 0.74492 0.09642 0.0
H1282 H 0.20584 0.68067 0.1736 0.0
H1283 H 0.20583 0.72433 0.14575 0.0
H1284 H 0.24216 0.75708 0.07095 0.0
H1285 H 0.2257 0.76319 0.11221 0.0
H1286 H 0.27255 0.576 0.12265 0.0
H1287 H 0.25776 0.58015 0.16603 0.0
H1288 H 0.27185 0.60029 0.06539 0.0
H1289 H 0.27558 0.66884 0.0078 0.0
C1290 C 0.56288 0.14203 0.13926 0.0
C1291 C 0.57502 0.16355 0.11086 0.0
C1292 C 0.58859 0.20878 0.16156 0.0
C1293 C 0.57176 0.19419 0.18419 0.0
N1294 N 0.55705 0.14026 0.21198 0.0
N1295 N 0.6109 0.19229 0.1068 0.0
C1296 C 0.56261 0.15836 0.17702 0.0
C1297 C 0.59145 0.1904 0.12493 0.0
N1298 N 0.55338 0.10629 0.13104 0.0
N1299 N 0.60197 0.23779 0.17564 0.0
H1300 H 0.61457 0.1718 0.08514 0.0
H1301 H 0.62393 0.20947 0.11659 0.0
H1302 H 0.59964 0.24978 0.20313 0.0
H1303 H 0.61437 0.25075 0.15959 0.0
H1304 H 0.54345 0.09134 0.15056 0.0
H1305 H 0.55652 0.09127 0.1053 0.0
H1306 H 0.55235 0.11016 0.20763 0.0
H1307 H 0.56211 0.17365 0.26876 0.0
C1308 C 0.23837 0.09728 0.62406 0.0
C1309 C 0.25594 0.12163 0.61062 0.0
C1310 C 0.26849 0.12437 0.67703 0.0
C1311 C 0.25769 0.09001 0.68389 0.0
N1312 N 0.22587 0.05072 0.67357 0.0
N1313 N 0.28064 0.17441 0.63171 0.0
C1314 C 0.24042 0.07806 0.66043 0.0
C1315 C 0.26919 0.14061 0.63938 0.0
N1316 N 0.21885 0.09866 0.60575 0.0
N1317 N 0.27383 0.14273 0.71209 0.0
H1318 H 0.27809 0.19067 0.60649 0.0
H1319 H 0.29157 0.18694 0.65137 0.0
H1320 H 0.26557 0.1122 0.769 0.0
H1321 H 0.28015 0.17181 0.70763 0.0
H1322 H 0.2051 0.08358 0.61538 0.0
H1323 H 0.21598 0.11973 0.5842 0.0
H1324 H 0.21322 0.03943 0.65674 0.0
H1325 H 0.22757 0.03811 0.70094 0.0
C1326 C 0.58034 0.71473 0.62415 0.0
C1327 C 0.57481 0.67455 0.61091 0.0
C1328 C 0.56629 0.65714 0.67731 0.0
C1329 C 0.57013 0.69464 0.68759 0.0
N1330 N 0.57946 0.76247 0.6783 0.0
N1331 N 0.56599 0.60598 0.62789 0.0
C1332 C 0.57707 0.72488 0.66366 0.0
C1333 C 0.56889 0.64477 0.63869 0.0
N1334 N 0.58879 0.74279 0.60008 0.0
N1335 N 0.55883 0.6364 0.70958 0.0
H1336 H 0.56881 0.59634 0.59975 0.0
H1337 H 0.56204 0.58347 0.64726 0.0
H1338 H 0.55461 0.66847 0.76732 0.0
H1339 H 0.55699 0.60568 0.70335 0.0
H1340 H 0.59462 0.77044 0.60925 0.0
H1341 H 0.59108 0.73883 0.57104 0.0
H1342 H 0.58268 0.78776 0.66187 0.0
H1343 H 0.57696 0.76809 0.70758 0.0
C1344 C 0.40996 0.36692 0.22531 0.0
C1345 C 0.39981 0.35724 0.18946 0.0
C1346 C 0.42285 0.40715 0.15774 0.0
C1347 C 0.43527 0.41236 0.19181 0.0
N1348 N 0.43323 0.41264 0.26114 0.0
N1349 N 0.40059 0.3638 0.11935 0.0
C1350 C 0.42686 0.39649 0.22674 0.0
C1351 C 0.40748 0.37574 0.15508 0.0
N1352 N 0.40441 0.34602 0.25765 0.0
N1353 N 0.42376 0.43522 0.12923 0.0
H1354 H 0.3881 0.34366 0.11393 0.0
H1355 H 0.4087 0.37241 0.09435 0.0
H1356 H 0.43177 0.46251 0.13293 0.0
H1357 H 0.4137 0.43451 0.10499 0.0
H1358 H 0.41268 0.34844 0.28376 0.0
H1359 H 0.39288 0.32314 0.25753 0.0
H1360 H 0.42649 0.40479 0.28751 0.0
H1361 H 0.44293 0.43813 0.26294 0.0
C1362 C 0.92732 0.90243 0.15368 0.0
C1363 C 0.93891 0.90642 0.18887 0.0
C1364 C 0.90513 0.88808 0.22268 0.0
C1365 C 0.89515 0.87757 0.18692 0.0
N1366 N 0.90149 0.86138 0.11988 0.0
N1367 N 0.93918 0.89409 0.25752 0.0
C1368 C 0.90773 0.88058 0.1529 0.0
C1369 C 0.92794 0.89683 0.22376 0.0
N1370 N 0.93463 0.92035 0.12087 0.0
N1371 N 0.893 0.89133 0.25522 0.0
H1372 H 0.95588 0.8979 0.25899 0.0
H1373 H 0.9322 0.88387 0.28299 0.0
H1374 H 0.87631 0.88698 0.25516 0.0
H1375 H 0.89925 0.90227 0.28115 0.0
H1376 H 0.92577 0.91996 0.09519 0.0
H1377 H 0.94791 0.93975 0.12082 0.0
H1378 H 0.91109 0.86106 0.09521 0.0
H1379 H 0.8884 0.84159 0.11895 0.0
C1380 C 0.39544 0.88025 0.03093 0.0
C1381 C 0.38775 0.90487 0.06133 0.0
C1382 C 0.41865 0.88455 0.10057 0.0
C1383 C 0.42882 0.86528 0.06856 0.0
N1384 N 0.42526 0.84513 1.00135 0.0
N1385 N 0.39624 0.9398 0.12014 0.0
C1386 C 0.41694 0.86393 0.03288 0.0
C1387 C 0.40106 0.91066 0.09401 0.0
N1388 N 0.38168 0.86953 1.00174 0.0
N1389 N 0.42363 0.87483 0.13779 0.0
H1390 H 0.38345 0.95969 0.11597 0.0
H1391 H 0.4064 0.94663 0.14339 0.0
H1392 H 0.43145 0.84851 0.14535 0.0
H1393 H 0.41587 0.8878 0.16131 0.0
H1394 H 0.38538 0.84804 0.98107 0.0
H1395 H 0.36582 0.87978 1.00001 0.0
H1396 H 0.41911 0.8494 0.97365 0.0
H1397 H 0.43802 0.82502 1.00256 0.0
C1398 C 0.91928 0.37607 0.09704 0.0
C1399 C 0.9305 0.36777 0.06238 0.0
C1400 C 0.90317 0.41041 0.02903 0.0
C1401 C 0.89436 0.42176 0.06552 0.0
N1402 N 0.90483 0.43092 0.13244 0.0
N1403 N 0.93066 0.37388 0.99294 0.0
C1404 C 0.90579 0.40962 0.09895 0.0
C1405 C 0.92178 0.38415 0.02747 0.0
N1406 N 0.9202 0.35089 0.12787 0.0
N1407 N 0.89436 0.42562 0.99608 0.0
H1408 H 0.9407 0.34925 0.98962 0.0
H1409 H 0.92757 0.38873 0.96721 0.0
H1410 H 0.88412 0.45025 0.9962 0.0
H1411 H 0.89755 0.41478 0.96859 0.0
H1412 H 0.9115 0.35637 0.15306 0.0
H1413 H 0.92644 0.32205 0.1258 0.0
H1414 H 0.91373 0.42275 0.15683 0.0
H1415 H 0.89824 0.45955 0.13368 0.0
C1416 C 0.66854 0.65181 0.7602 0.0
C1417 C 0.68441 0.65065 0.78987 0.0
C1418 C 0.65876 0.61453 0.83125 0.0
C1419 C 0.6424 0.61753 0.80231 0.0
N1420 N 0.63515 0.6245 0.73412 0.0
N1421 N 0.69392 0.63574 0.85554 0.0
C1422 C 0.64816 0.63211 0.76522 0.0
C1423 C 0.67929 0.63339 0.82596 0.0
N1424 N 0.67276 0.67327 0.72761 0.0
N1425 N 0.65519 0.5905 0.86245 0.0
H1426 H 0.70904 0.64925 0.85259 0.0
H1427 H 0.69043 0.62782 0.88383 0.0
H1428 H 0.64118 0.57319 0.86524 0.0
H1429 H 0.66693 0.58372 0.883 0.0
H1430 H 0.66125 0.67893 0.70631 0.0
H1431 H 0.68719 0.68922 0.72405 0.0
H1432 H 0.63941 0.63148 0.70593 0.0
H1433 H 0.62144 0.60643 0.73546 0.0
C1434 C 0.14971 0.15656 0.82858 0.0
C1435 C 0.14536 0.13757 0.79284 0.0
C1436 C 0.17967 0.16399 0.7673 0.0
C1437 C 0.18524 0.17989 0.80418 0.0
N1438 N 0.16993 0.2081 0.86212 0.0
N1439 N 0.15782 0.11681 0.73059 0.0
C1440 C 0.16883 0.18044 0.83312 0.0
C1441 C 0.16096 0.13919 0.76312 0.0
N1442 N 0.13533 0.15237 0.8581 0.0
N1443 N 0.19025 0.17703 0.73519 0.0
H1444 H 0.14435 0.09814 0.72704 0.0
H1445 H 0.16957 0.11355 0.70936 0.0
H1446 H 0.20104 0.20105 0.73569 0.0
H1447 H 0.1858 0.16874 0.7073 0.0
H1448 H 0.13862 0.16135 0.88629 0.0
H1449 H 0.12082 0.13661 0.85515 0.0
H1450 H 0.15789 0.21202 0.88265 0.0
H1451 H 0.18096 0.23178 0.86195 0.0
C1452 C 0.65527 0.14143 0.99795 0.0
C1453 C 0.63932 0.14788 0.96909 0.0
C1454 C 0.66332 0.11606 0.92156 0.0
C1455 C 0.67963 0.1116 0.9504 0.0
N1456 N 0.68563 0.10153 0.01859 0.0
N1457 N 0.62826 0.14255 0.90246 0.0
C1458 C 0.67411 0.1188 0.98944 0.0
C1459 C 0.64336 0.13549 0.93055 0.0
N1460 N 0.65294 0.15885 0.03327 0.0
N1461 N 0.66629 0.09826 0.88647 0.0
H1462 H 0.61316 0.15487 0.90798 0.0
H1463 H 0.63102 0.13872 0.87315 0.0
H1464 H 0.67963 0.08024 0.88072 0.0
H1465 H 0.65473 0.09723 0.86459 0.0
H1466 H 0.66498 0.15835 0.05444 0.0
H1467 H 0.64017 0.17811 0.03928 0.0
H1468 H 0.68104 0.10331 0.04739 0.0
H1469 H 0.69796 0.08105 0.01385 0.0
C1470 C 0.15393 0.63613 0.93056 0.0
C1471 C 0.14699 0.6501 0.96709 0.0
C1472 C 0.18186 0.62841 0.99569 0.0
C1473 C 0.18957 0.6179 0.95841 0.0
N1474 N 0.1796 0.59639 0.89451 0.0
N1475 N 0.15497 0.6637 0.03377 0.0
C1476 C 0.17463 0.61767 0.92695 0.0
C1477 C 0.16111 0.64709 0.9995 0.0
N1478 N 0.14081 0.64074 0.89905 0.0
N1479 N 0.19345 0.61798 0.0277 0.0
H1480 H 0.14007 0.67779 0.03748 0.0
H1481 H 0.16527 0.66694 0.05741 0.0
H1482 H 0.20739 0.60077 0.02658 0.0
H1483 H 0.1879 0.62172 0.05573 0.0
H1484 H 0.14591 0.63607 0.87086 0.0
H1485 H 0.1252 0.65222 0.90061 0.0
H1486 H 0.16888 0.59145 0.87175 0.0
H1487 H 0.19359 0.57918 0.89248 0.0
C1488 C 0.41661 0.927 0.66791 0.0
C1489 C 0.43444 0.91767 0.69252 0.0
C1490 C 0.41187 0.86365 0.72053 0.0
C1491 C 0.39636 0.86807 0.69059 0.0
N1492 N 0.38576 0.90146 0.63196 0.0
N1493 N 0.44943 0.87128 0.73934 0.0
C1494 C 0.39921 0.89911 0.66323 0.0
C1495 C 0.43211 0.88481 0.71858 0.0
N1496 N 0.41593 0.96315 0.64971 0.0
N1497 N 0.40744 0.83878 0.75065 0.0
H1498 H 0.46493 0.88325 0.73747 0.0
H1499 H 0.44894 0.84516 0.7556 0.0
H1500 H 0.39303 0.82244 0.75247 0.0
H1501 H 0.41705 0.83752 0.77539 0.0
H1502 H 0.40257 0.97273 0.63378 0.0
H1503 H 0.42752 0.98545 0.65447 0.0
H1504 H 0.38856 0.9209 0.60906 0.0
H1505 H 0.37295 0.88156 0.62725 0.0
C1506 C 0.92009 0.42649 0.68334 0.0
C1507 C 0.93704 0.41355 0.70812 0.0
C1508 C 0.9104 0.37508 0.74586 0.0
C1509 C 0.89389 0.38558 0.7191 0.0
N1510 N 0.88384 0.41476 0.65832 0.0
N1511 N 0.94896 0.37095 0.75994 0.0
C1512 C 0.89903 0.40926 0.68657 0.0
C1513 C 0.93237 0.38672 0.73876 0.0
N1514 N 0.92394 0.45656 0.65759 0.0
N1515 N 0.90499 0.35423 0.77825 0.0
H1516 H 0.96513 0.37898 0.75585 0.0
H1517 H 0.94693 0.34799 0.77981 0.0
H1518 H 0.88946 0.34275 0.78271 0.0
H1519 H 0.91556 0.34986 0.80133 0.0
H1520 H 0.91182 0.47012 0.64133 0.0
H1521 H 0.93894 0.47089 0.65537 0.0
H1522 H 0.88716 0.42846 0.63207 0.0
H1523 H 0.86845 0.40189 0.65948 0.0
C1524 C 0.40171 0.3969 0.59758 0.0
C1525 C 0.39116 0.40488 0.56184 0.0
C1526 C 0.42512 0.38481 0.52991 0.0
C1527 C 0.43352 0.36971 0.56541 0.0
N1528 N 0.42409 0.34893 0.63004 0.0
N1529 N 0.3924 0.39542 0.49264 0.0
C1530 C 0.41999 0.37168 0.59825 0.0
C1531 C 0.4027 0.39572 0.52742 0.0
N1532 N 0.3952 0.41473 0.63097 0.0
N1533 N 0.43838 0.39086 0.49917 0.0
H1534 H 0.37579 0.39943 0.48996 0.0
H1535 H 0.39995 0.38611 0.46737 0.0
H1536 H 0.45504 0.38681 0.50062 0.0
H1537 H 0.43308 0.40468 0.47394 0.0
H1538 H 0.40345 0.41069 0.65698 0.0
H1539 H 0.38386 0.43771 0.63158 0.0
H1540 H 0.41369 0.34841 0.65367 0.0
H1541 H 0.43602 0.32692 0.63051 0.0
C1542 C 0.89834 0.88463 0.54099 0.0
C1543 C 0.892 0.91042 0.57187 0.0
C1544 C 0.92167 0.88341 0.61001 0.0
C1545 C 0.93148 0.8652 0.57753 0.0
N1546 N 0.92703 0.84687 0.51015 0.0
N1547 N 0.90447 0.94372 0.63012 0.0
C1548 C 0.91935 0.86566 0.54215 0.0
C1549 C 0.90595 0.91303 0.60433 0.0
N1550 N 0.88408 0.87579 0.51197 0.0
N1551 N 0.92601 0.87074 0.64659 0.0
H1552 H 0.89469 0.96857 0.62533 0.0
H1553 H 0.91513 0.94651 0.65343 0.0
H1554 H 0.93434 0.84429 0.65215 0.0
H1555 H 0.91825 0.88291 0.67055 0.0
H1556 H 0.887 0.85408 0.49111 0.0
H1557 H 0.86848 0.88724 0.51053 0.0
H1558 H 0.92064 0.85171 0.48271 0.0
H1559 H 0.93975 0.82664 0.51077 0.0
C1560 C 0.65632 0.12704 0.34919 0.0
C1561 C 0.64403 0.1214 0.31503 0.0
C1562 C 0.67343 0.15722 0.28006 0.0
C1563 C 0.68394 0.16656 0.316 0.0
N1564 N 0.67681 0.17618 0.38394 0.0
N1565 N 0.64317 0.1252 0.24578 0.0
C1566 C 0.6729 0.15609 0.35032 0.0
C1567 C 0.65332 0.13456 0.27962 0.0
N1568 N 0.65233 0.10424 0.38096 0.0
N1569 N 0.68196 0.17148 0.24661 0.0
H1570 H 0.63111 0.10345 0.24406 0.0
H1571 H 0.64707 0.13739 0.21917 0.0
H1572 H 0.69269 0.19552 0.24612 0.0
H1573 H 0.67746 0.16161 0.2193 0.0
H1574 H 0.66182 0.10623 0.40588 0.0
H1575 H 0.64148 0.0802 0.38028 0.0
H1576 H 0.66809 0.17046 0.40904 0.0
H1577 H 0.68602 0.20242 0.38497 0.0
C1578 C 0.17095 0.64222 0.28646 0.0
C1579 C 0.17911 0.66043 0.321 0.0
C1580 C 0.14821 0.63146 0.35474 0.0
C1581 C 0.13724 0.62205 0.31979 0.0
N1582 N 0.13889 0.62328 0.24997 0.0
N1583 N 0.16896 0.68354 0.38481 0.0
C1584 C 0.14875 0.62884 0.28475 0.0
C1585 C 0.16578 0.65848 0.35419 0.0
N1586 N 0.18438 0.63519 0.25615 0.0
N1587 N 0.14228 0.61409 0.38866 0.0
H1588 H 0.17948 0.70799 0.38381 0.0
H1589 H 0.15871 0.68336 0.40865 0.0
H1590 H 0.13104 0.5907 0.38984 0.0
H1591 H 0.15075 0.61935 0.41431 0.0
H1592 H 0.17948 0.61936 0.23168 0.0
H1593 H 0.20097 0.64027 0.25754 0.0
H1594 H 0.14599 0.63207 0.22411 0.0
H1595 H 0.1232 0.61251 0.24709 0.0
C1596 C 0.6735 0.62163 0.47225 0.0
C1597 C 0.68477 0.6203 0.43625 0.0
C1598 C 0.65585 0.66 0.40733 0.0
C1599 C 0.64313 0.65817 0.44115 0.0
N1600 N 0.63847 0.62746 0.50369 0.0
N1601 N 0.6785 0.61978 0.36726 0.0
C1602 C 0.65157 0.63645 0.4733 0.0
C1603 C 0.67338 0.63364 0.40309 0.0
N1604 N 0.68309 0.60835 0.50524 0.0
N1605 N 0.65171 0.68741 0.37918 0.0
H1606 H 0.68932 0.59627 0.36316 0.0
H1607 H 0.66968 0.62773 0.34273 0.0
H1608 H 0.64045 0.71027 0.38255 0.0
H1609 H 0.66156 0.69032 0.35497 0.0
H1610 H 0.67688 0.61434 0.53251 0.0
H1611 H 0.69732 0.59195 0.50572 0.0
H1612 H 0.64309 0.6084 0.52592 0.0
H1613 H 0.62223 0.63553 0.50483 0.0
C1614 C 0.17214 0.13632 0.50071 0.0
C1615 C 0.18809 0.13597 0.47141 0.0
C1616 C 0.16263 0.17044 0.42802 0.0
C1617 C 0.14627 0.16867 0.45684 0.0
N1618 N 0.14022 0.16851 0.52562 0.0
N1619 N 0.19836 0.15069 0.406 0.0
C1620 C 0.15224 0.15686 0.49473 0.0
C1621 C 0.18327 0.15243 0.43467 0.0
N1622 N 0.1757 0.11556 0.53397 0.0
N1623 N 0.15906 0.19307 0.39583 0.0
H1624 H 0.21393 0.13966 0.41013 0.0
H1625 H 0.1951 0.1575 0.37732 0.0
H1626 H 0.1452 0.21047 0.39237 0.0
H1627 H 0.17064 0.19878 0.37485 0.0
H1628 H 0.16387 0.11135 0.55492 0.0
H1629 H 0.18964 0.09862 0.53836 0.0
H1630 H 0.14485 0.1632 0.55406 0.0
H1631 H 0.1275 0.18865 0.52342 0.0
C1632 C 0.34792 0.11622 0.10502 0.0
C1633 C 0.33294 0.09012 0.12318 0.0
C1634 C 0.3206 0.14488 0.16446 0.0
C1635 C 0.33534 0.17096 0.14596 0.0
N1636 N 0.35955 0.18481 0.094 0.0
N1637 N 0.3013 0.08159 0.16256 0.0
C1638 C 0.3477 0.15762 0.11436 0.0
C1639 C 0.31808 0.10515 0.15057 0.0
N1640 N 0.36323 0.10097 0.08089 0.0
N1641 N 0.30991 0.15757 0.19656 0.0
H1642 H 0.29873 0.05279 0.15186 0.0
H1643 H 0.28886 0.09185 0.1801 0.0
H1644 H 0.31114 0.18681 0.20687 0.0
H1645 H 0.30093 0.13862 0.21418 0.0
H1646 H 0.37584 0.11785 0.0694 0.0
H1647 H 0.36442 0.07055 0.07481 0.0
H1648 H 0.3676 0.17805 0.06853 0.0
H1649 H 0.35964 0.21518 0.10105 0.0
C1650 C 1.00376 0.10597 0.09183 0.0
C1651 C 0.99206 0.09049 0.12366 0.0
C1652 C 0.97978 0.15837 0.13918 0.0
C1653 C 0.98897 0.17269 0.10458 0.0
N1654 N 1.00729 0.15931 0.04492 0.0
N1655 N 0.96616 0.10111 0.17436 0.0
C1656 C 1.00045 0.14631 0.08012 0.0
C1657 C 0.97947 0.11657 0.14676 0.0
N1658 N 1.01855 0.08244 0.07361 0.0
N1659 N 0.97127 0.18509 0.16466 0.0
H1660 H 0.96451 0.07051 0.17911 0.0
H1661 H 0.95517 0.1182 0.18991 0.0
H1662 H 0.97134 0.21581 0.15939 0.0
H1663 H 0.96609 0.17731 0.19217 0.0
H1664 H 1.02898 0.09303 0.05242 0.0
H1665 H 1.02182 0.05328 0.08238 0.0
H1666 H 1.01363 0.14038 0.024 0.0
H1667 H 1.00509 0.18858 0.0355 0.0
C1668 C 0.73231 0.91215 0.8404 0.0
C1669 C 0.74452 0.93093 0.87024 0.0
C1670 C 0.75853 0.86454 0.88832 0.0
C1671 C 0.74288 0.84616 0.86409 0.0
N1672 N 0.71322 0.85285 0.81926 0.0
N1673 N 0.77911 0.92473 0.90177 0.0
C1674 C 0.72917 0.87013 0.84103 0.0
C1675 C 0.76045 0.90714 0.88904 0.0
N1676 N 0.72727 0.9329 0.80785 0.0
N1677 N 0.77136 0.84119 0.91103 0.0
H1678 H 0.78285 0.95433 0.89499 0.0
H1679 H 0.79215 0.90885 0.91303 0.0
H1680 H 0.77049 0.81003 0.91026 0.0
H1681 H 0.78152 0.85273 0.93242 0.0
H1682 H 0.71963 0.91989 0.78405 0.0
H1683 H 0.73439 0.96059 0.80207 0.0
H1684 H 0.70158 0.86958 0.80466 0.0
H1685 H 0.71083 0.82199 0.81798 0.0
C1686 C 0.07625 0.91377 0.86678 0.0
C1687 C 0.09486 0.93887 0.86671 0.0
C1688 C 0.11736 0.8811 0.88322 0.0
C1689 C 0.09925 0.85521 0.87869 0.0
N1690 N 0.06226 0.84652 0.85774 0.0
N1691 N 0.13385 0.94334 0.86354 0.0
C1692 C 0.07888 0.87146 0.868 0.0
C1693 C 0.11566 0.92164 0.87162 0.0
N1694 N 0.05609 0.93031 0.86729 0.0
N1695 N 0.13586 0.86773 0.90049 0.0
H1696 H 0.13325 0.97213 0.85216 0.0
H1697 H 0.14931 0.93094 0.86366 0.0
H1698 H 0.13724 0.83913 0.91204 0.0
H1699 H 0.14881 0.88659 0.90741 0.0
H1700 H 0.04198 0.91351 0.87085 0.0
H1701 H 0.05367 0.96112 0.86817 0.0
H1702 H 0.04762 0.85674 0.84649 0.0
H1703 H 0.06401 0.81555 0.85662 0.0
C1704 C 0.34602 0.64902 0.66527 0.0
C1705 C 0.3323 0.67482 0.64408 0.0
C1706 C 0.31207 0.61603 0.6199 0.0
C1707 C 0.32848 0.59089 0.63492 0.0
N1708 N 0.35078 0.5825 0.69116 0.0
N1709 N 0.30042 0.68346 0.60463 0.0
C1710 C 0.34233 0.60714 0.66374 0.0
C1711 C 0.31474 0.65846 0.62232 0.0
N1712 N 0.36341 0.66421 0.68493 0.0
N1713 N 0.29263 0.59974 0.60949 0.0
H1714 H 0.30046 0.71425 0.60931 0.0
H1715 H 0.28902 0.67379 0.58441 0.0
H1716 H 0.28846 0.5708 0.61783 0.0
H1717 H 0.27948 0.61624 0.59962 0.0
H1718 H 0.37515 0.64624 0.69773 0.0
H1719 H 0.3672 0.6946 0.68533 0.0
H1720 H 0.35953 0.59285 0.71495 0.0
H1721 H 0.34659 0.55223 0.69228 0.0
C1722 C 0.97622 0.61864 0.65382 0.0
C1723 C 0.98803 0.59386 0.62861 0.0
C1724 C 1.00708 0.65333 0.60414 0.0
C1725 C 0.99425 0.67818 0.62808 0.0
N1726 N 0.98024 0.67681 0.69296 0.0
N1727 N 1.01435 0.58734 0.57801 0.0
C1728 C 0.98202 0.6594 0.65765 0.0
C1729 C 1.00327 0.61117 0.60299 0.0
N1730 N 0.96001 0.60265 0.67557 0.0
N1731 N 1.02508 0.66938 0.58755 0.0
H1732 H 1.01322 0.5563 0.57826 0.0
H1733 H 1.02359 0.59841 0.55534 0.0
H1734 H 1.0302 0.69835 0.59417 0.0
H1735 H 1.0365 0.65286 0.57247 0.0
H1736 H 0.94993 0.62015 0.6927 0.0
H1737 H 0.95541 0.57266 0.6733 0.0
H1738 H 0.97176 0.66383 0.71566 0.0
H1739 H 0.99205 0.69686 0.70252 0.0
C1740 C 0.75955 0.40897 0.3789 0.0
C1741 C 0.73992 0.42753 0.38983 0.0
C1742 C 0.72082 0.36301 0.38383 0.0
C1743 C 0.74068 0.34413 0.37503 0.0
N1744 N 0.77945 0.34726 0.36951 0.0
N1745 N 0.70252 0.42234 0.40777 0.0
C1746 C 0.76022 0.36664 0.3742 0.0
C1747 C 0.72069 0.4045 0.39365 0.0
N1748 N 0.77729 0.43218 0.37137 0.0
N1749 N 0.70211 0.34111 0.38224 0.0
H1750 H 0.7022 0.45249 0.4155 0.0
H1751 H 0.68834 0.40697 0.4145 0.0
H1752 H 0.70202 0.31057 0.37599 0.0
H1753 H 0.68671 0.35335 0.38475 0.0
H1754 H 0.79151 0.42124 0.35934 0.0
H1755 H 0.7772 0.46319 0.37443 0.0
H1756 H 0.79451 0.36105 0.37269 0.0
H1757 H 0.78036 0.31655 0.36465 0.0
C1758 C 0.07115 0.37048 0.39053 0.0
C1759 C 0.09163 0.35219 0.39566 0.0
C1760 C 0.1098 0.41619 0.38342 0.0
C1761 C 0.08932 0.43488 0.3809 0.0
N1762 N 0.05068 0.43219 0.3884 0.0
N1763 N 0.13024 0.35771 0.40298 0.0
C1764 C 0.07002 0.41265 0.38635 0.0
C1765 C 0.11094 0.37514 0.39378 0.0
N1766 N 0.05294 0.34726 0.38788 0.0
N1767 N 0.12802 0.43757 0.37471 0.0
H1768 H 0.13137 0.32778 0.41113 0.0
H1769 H 0.14477 0.37344 0.40558 0.0
H1770 H 0.12751 0.46771 0.36711 0.0
H1771 H 0.14333 0.42493 0.37225 0.0
H1772 H 1.03775 0.35835 0.38045 0.0
H1773 H 0.05333 0.31618 0.38986 0.0
H1774 H 1.0362 0.41834 0.39615 0.0
H1775 H 0.04946 0.46313 0.38549 0.0
C1776 C 0.83772 0.12373 0.65677 0.0
C1777 C 0.83672 0.11083 0.61806 0.0
C1778 C 0.8334 0.18046 0.59692 0.0
C1779 C 0.83744 0.19356 0.63512 0.0
N1780 N 0.8475 0.17739 0.70044 0.0
N1781 N 0.83724 0.12681 0.55049 0.0
C1782 C 0.84042 0.16511 0.66502 0.0
C1783 C 0.83535 0.13917 0.58782 0.0
N1784 N 0.83661 0.09604 0.68551 0.0
N1785 N 0.82743 0.20753 0.56954 0.0
H1786 H 0.8391 0.09684 0.54297 0.0
H1787 H 0.8386 0.14643 0.52736 0.0
H1788 H 0.82558 0.23784 0.57573 0.0
H1789 H 0.82239 0.19937 0.54191 0.0
H1790 H 0.83533 0.10354 0.71456 0.0
H1791 H 0.83499 0.06552 0.67974 0.0
H1792 H 0.85177 0.15778 0.72244 0.0
H1793 H 0.8514 0.20707 0.7065 0.0
C1794 C 0.5071 0.12477 0.64097 0.0
C1795 C 0.4877 0.10232 0.63618 0.0
C1796 C 0.46728 0.16433 0.62574 0.0
C1797 C 0.48689 0.18642 0.62848 0.0
N1798 N 0.52565 0.18858 0.63438 0.0
N1799 N 0.44941 0.09897 0.62507 0.0
C1800 C 0.50685 0.16685 0.63514 0.0
C1801 C 0.46774 0.12172 0.62895 0.0
N1802 N 0.52561 0.10575 0.65223 0.0
N1803 N 0.44838 0.18453 0.61969 0.0
H1804 H 0.44964 0.06788 0.62746 0.0
H1805 H 0.43409 0.11021 0.61918 0.0
H1806 H 0.44792 0.21561 0.61735 0.0
H1807 H 0.43317 0.17121 0.61761 0.0
H1808 H 0.53981 0.1205 0.66028 0.0
H1809 H 0.52639 0.07493 0.65618 0.0
H1810 H 0.54103 0.17597 0.63453 0.0
H1811 H 0.52591 0.21954 0.63102 0.0
C1812 C 0.23886 0.87522 0.40192 0.0
C1813 C 0.24117 0.86152 0.3636 0.0
C1814 C 0.24733 0.93072 0.34232 0.0
C1815 C 0.242 0.94455 0.37963 0.0
N1816 N 0.22969 0.9304 0.44397 0.0
N1817 N 0.24553 0.87618 0.29613 0.0
C1818 C 0.23715 0.91688 0.40935 0.0
C1819 C 0.24518 0.88921 0.33343 0.0
N1820 N 0.23819 0.84799 0.43112 0.0
N1821 N 0.25431 0.95755 0.31549 0.0
H1822 H 0.24376 0.8462 0.28858 0.0
H1823 H 0.2461 0.89526 0.27249 0.0
H1824 H 0.25561 0.98806 0.32151 0.0
H1825 H 0.26036 0.94934 0.28868 0.0
H1826 H 0.23849 0.85586 0.46017 0.0
H1827 H 0.23945 0.81731 0.42604 0.0
H1828 H 0.22376 0.91166 0.46543 0.0
H1829 H 0.22798 0.96068 0.45028 0.0
C1830 C 0.58961 0.89663 0.3308 0.0
C1831 C 0.58054 0.92583 0.35541 0.0
C1832 C 0.57013 0.87377 0.40153 0.0
C1833 C 0.57991 0.84448 0.37754 0.0
N1834 N 0.59342 0.82604 0.31546 0.0
N1835 N 0.55684 0.94181 0.40761 0.0
C1836 C 0.58765 0.85545 0.34065 0.0
C1837 C 0.56895 0.91407 0.38859 0.0
N1838 N 0.60119 0.90847 0.29936 0.0
N1839 N 0.56333 0.86386 0.43762 0.0
H1840 H 0.55575 0.97137 0.39826 0.0
H1841 H 0.54636 0.93483 0.43007 0.0
H1842 H 0.56369 0.83489 0.44823 0.0
H1843 H 0.55847 0.88477 0.45804 0.0
H1844 H 0.61014 0.88901 0.28233 0.0
H1845 H 0.60293 0.9384 0.29164 0.0
H1846 H 0.59769 0.83133 0.28693 0.0
H1847 H 0.59194 0.79581 0.32244 0.0
C1848 C 0.82349 0.63165 0.10555 0.0
C1849 C 0.84277 0.60895 0.10415 0.0
C1850 C 0.86449 0.6691 0.11647 0.0
C1851 C 0.84524 0.6919 0.11671 0.0
N1852 N 0.80704 0.69737 0.10446 0.0
N1853 N 0.88153 0.60516 0.10297 0.0
C1854 C 0.82489 0.67384 0.10899 0.0
C1855 C 0.8633 0.62755 0.1078 0.0
N1856 N 0.80389 0.61249 0.10531 0.0
N1857 N 0.88368 0.68708 0.12615 0.0
H1858 H 0.88083 0.57454 0.09722 0.0
H1859 H 0.89713 0.61707 0.10211 0.0
H1860 H 0.88483 0.71753 0.13241 0.0
H1861 H 0.89813 0.67173 0.13014 0.0
H1862 H 0.78922 0.62677 0.11025 0.0
H1863 H 0.80242 0.58154 0.10273 0.0
H1864 H 0.79202 0.6866 0.09527 0.0
H1865 H 0.80774 0.72844 0.1068 0.0
C1866 C 0.49482 0.63683 0.17632 0.0
C1867 C 0.49629 0.6046 0.14985 0.0
C1868 C 0.49946 0.65177 0.09622 0.0
C1869 C 0.49542 0.68369 0.12219 0.0
N1870 N 0.49017 0.70838 0.18618 0.0
N1871 N 0.50394 0.58005 0.08651 0.0
C1872 C 0.49395 0.67674 0.16225 0.0
C1873 C 0.50029 0.6118 0.11037 0.0
N1874 N 0.49392 0.62872 0.21484 0.0
N1875 N 0.50094 0.65991 0.05776 0.0
H1876 H 0.50409 0.55067 0.09646 0.0
H1877 H 0.50773 0.58237 0.05746 0.0
H1878 H 0.49954 0.68883 0.04697 0.0
H1879 H 0.50318 0.63863 0.03632 0.0
H1880 H 0.4941 0.65032 0.23641 0.0
H1881 H 0.49426 0.59959 0.22546 0.0
H1882 H 0.48672 0.70588 0.21538 0.0
H1883 H 0.48993 0.73779 0.1762 0.0
C1884 C 0.26735 0.37806 0.86202 0.0
C1885 C 0.24966 0.35291 0.87196 0.0
C1886 C 0.2347 0.40663 0.91225 0.0
C1887 C 0.25044 0.43326 0.89729 0.0
N1888 N 0.28176 0.44582 0.85857 0.0
N1889 N 0.21809 0.34038 0.90996 0.0
C1890 C 0.267 0.41918 0.87283 0.0
C1891 C 0.23399 0.36634 0.89873 0.0
N1892 N 0.28447 0.36254 0.84243 0.0
N1893 N 0.22028 0.42048 0.93881 0.0
H1894 H 0.2182 0.3103 0.90186 0.0
H1895 H 0.20488 0.34813 0.92683 0.0
H1896 H 0.22034 0.45013 0.94817 0.0
H1897 H 0.20897 0.40273 0.95292 0.0
H1898 H 0.29862 0.37832 0.83649 0.0
H1899 H 0.28549 0.33239 0.83554 0.0
H1900 H 0.29287 0.43901 0.83712 0.0
H1901 H 0.28208 0.47579 0.86695 0.0
C1902 C 0.58379 0.37519 0.90977 0.0
C1903 C 0.58793 0.34646 0.88065 0.0
C1904 C 0.59253 0.40084 0.83404 0.0
C1905 C 0.58564 0.42888 0.86211 0.0
N1906 N 0.56924 0.4405 0.9239 0.0
N1907 N 0.59226 0.33154 0.81333 0.0
C1908 C 0.57945 0.41525 0.89908 0.0
C1909 C 0.59095 0.35921 0.84212 0.0
N1910 N 0.58571 0.36519 0.94772 0.0
N1911 N 0.60206 0.41387 0.80098 0.0
H1912 H 0.59082 0.30093 0.81853 0.0
H1913 H 0.59267 0.33919 0.78424 0.0
H1914 H 0.60515 0.44401 0.79585 0.0
H1915 H 0.60906 0.39468 0.78096 0.0
H1916 H 0.58466 0.38615 0.9699 0.0
H1917 H 0.59067 0.33702 0.95684 0.0
H1918 H 0.5629 0.43101 0.95016 0.0
H1919 H 0.56502 0.46958 0.9162 0.0
C1920 C 0.2775 0.2322 0.33527 0.0
C1921 C 0.29061 0.20557 0.35672 0.0
C1922 C 0.32278 0.22977 0.32196 0.0
C1923 C 0.30969 0.25786 0.302 0.0
N1924 N 0.27605 0.29454 0.30073 0.0
N1925 N 0.32648 0.1874 0.37822 0.0
C1926 C 0.28755 0.26196 0.31245 0.0
C1927 C 0.31353 0.20706 0.35255 0.0
N1928 N 0.25547 0.22772 0.33449 0.0
N1929 N 0.34357 0.22285 0.31063 0.0
H1930 H 0.32029 0.17148 0.40156 0.0
H1931 H 0.3433 0.19038 0.37864 0.0
H1932 H 0.3512 0.23894 0.28896 0.0
H1933 H 0.35276 0.19912 0.32104 0.0
H1934 H 0.24549 0.24399 0.31604 0.0
H1935 H 0.24731 0.20497 0.34899 0.0
H1936 H 0.26047 0.30069 0.31053 0.0
H1937 H 0.28297 0.31761 0.28485 0.0
C1938 C 0.05718 0.07145 0.31149 0.0
C1939 C 0.04323 0.09729 0.33175 0.0
C1940 C 1.01276 0.07207 0.29279 0.0
C1941 C 1.02631 0.04165 0.27772 0.0
N1942 N 0.06 1.00517 0.28622 0.0
N1943 N 1.00631 0.11485 0.34779 0.0
C1944 C 0.04814 0.03917 0.29094 0.0
C1945 C 1.02053 0.09567 0.32419 0.0
N1946 N 0.07906 0.07784 0.31121 0.0
N1947 N 0.9929 0.07943 0.27693 0.0
H1948 H 1.01118 0.13047 0.37238 0.0
H1949 H 0.98956 0.11142 0.3452 0.0
H1950 H 0.9869 0.06421 0.25293 0.0
H1951 H 0.98342 0.10365 0.28522 0.0
H1952 H 0.0895 0.06083 0.2943 0.0
H1953 H 0.08634 0.10277 0.32404 0.0
H1954 H 0.07545 1.00182 0.2981 0.0
H1955 H 0.05343 0.97868 0.27551 0.0
C1956 C 0.29034 0.07464 0.98343 0.0
C1957 C 0.30572 0.04626 0.96986 0.0
C1958 C 0.30672 0.08094 0.9074 0.0
C1959 C 0.28932 0.10556 0.91952 0.0
N1960 N 0.26393 0.12573 0.96816 0.0
N1961 N 0.32784 0.021 0.91819 0.0
C1962 C 0.28113 0.10264 0.95742 0.0
C1963 C 0.31407 0.0495 0.93187 0.0
N1964 N 0.28467 0.07519 0.0215 0.0
N1965 N 0.31606 0.08739 0.87229 0.0
H1966 H 0.33407 0.99821 0.93522 0.0
H1967 H 0.33221 1.01846 0.88938 0.0
H1968 H 0.31037 0.10856 0.85274 0.0
H1969 H 0.33034 0.07381 0.86346 0.0
H1970 H 0.27587 0.09813 0.03419 0.0
H1971 H 0.29009 0.05436 0.04149 0.0
H1972 H 0.25508 0.12115 0.99324 0.0
H1973 H 0.25756 0.1483 0.95084 0.0
C1974 C 0.0523 0.21963 0.92987 0.0
C1975 C 1.03904 0.19474 0.90656 0.0
C1976 C 1.0069 0.2209 0.9399 0.0
C1977 C 1.02021 0.24908 0.95972 0.0
N1978 N 0.05489 0.28321 0.96164 0.0
N1979 N 1.00301 0.17914 0.88308 0.0
C1980 C 0.04268 0.25095 0.95089 0.0
C1981 C 1.01608 0.19758 0.9096 0.0
N1982 N 0.074 0.21249 0.93355 0.0
N1983 N 0.98596 0.21466 0.95097 0.0
H1984 H 1.00909 0.16317 0.85971 0.0
H1985 H 0.98629 0.18325 0.88212 0.0
H1986 H 0.97873 0.23012 0.97354 0.0
H1987 H 0.97643 0.19147 0.93995 0.0
H1988 H 0.08383 0.22808 0.953 0.0
H1989 H 0.08163 0.18809 0.92081 0.0
H1990 H 0.07092 0.28717 0.95299 0.0
H1991 H 0.0482 0.30814 0.97481 0.0
C1992 C 0.76727 0.78822 0.66985 0.0
C1993 C 0.76155 0.79624 0.70863 0.0
C1994 C 0.77666 0.86369 0.7023 0.0
C1995 C 0.78148 0.85618 0.6629 0.0
N1996 N 0.77293 0.81628 0.6066 0.0
N1997 N 0.75329 0.8464 0.7556 0.0
C1998 C 0.77393 0.8201 0.64576 0.0
C1999 C 0.76364 0.83574 0.7227 0.0
N2000 N 0.76758 0.75001 0.65637 0.0
N2001 N 0.7856 0.89561 0.72122 0.0
H2002 H 0.74237 0.82692 0.76869 0.0
H2003 H 0.75332 0.87554 0.76624 0.0
H2004 H 0.79655 0.91526 0.70843 0.0
H2005 H 0.78394 0.89995 0.75081 0.0
H2006 H 0.77407 0.74234 0.62969 0.0
H2007 H 0.76298 0.72596 0.67328 0.0
H2008 H 0.76606 0.7914 0.59302 0.0
H2009 H 0.7766 0.83983 0.58804 0.0
C2010 C 0.05865 1.00374 0.67283 0.0
C2011 C 0.06805 0.99236 0.7086 0.0
C2012 C 0.05638 0.92353 0.69663 0.0
C2013 C 0.04808 0.93483 0.65986 0.0
N2014 N 0.05032 0.98262 0.60788 0.0
N2015 N 0.08299 0.93882 0.74624 0.0
C2016 C 0.05237 0.97388 0.64613 0.0
C2017 C 0.06947 0.95125 0.71758 0.0
N2018 N 0.05411 0.0427 0.66519 0.0
N2019 N 0.05066 0.88797 0.71299 0.0
H2020 H 0.09387 0.95849 0.75953 0.0
H2021 H 0.08535 0.90875 0.75277 0.0
H2022 H 0.03976 0.86802 0.70023 0.0
H2023 H 0.05493 0.88046 0.74115 0.0
H2024 H 0.04547 0.05171 0.64083 0.0
H2025 H 0.05693 0.06517 0.68515 0.0
H2026 H 0.0547 1.01034 0.59653 0.0
H2027 H 0.04671 0.96084 0.58722 0.0
C2028 C 0.79908 0.94496 0.05051 0.0
C2029 C 0.78817 0.94084 0.08593 0.0
C2030 C 0.76142 0.99074 0.06592 0.0
C2031 C 0.77151 0.99283 0.02911 0.0
N2032 N 0.79684 0.96343 0.98382 0.0
N2033 N 0.75699 0.95349 0.12543 0.0
C2034 C 0.78938 0.96738 0.02066 0.0
C2035 C 0.76864 0.96166 0.09297 0.0
N2036 N 0.81914 0.92844 0.04565 0.0
N2037 N 0.74601 1.01791 0.07621 0.0
H2038 H 0.76217 0.93311 0.14622 0.0
H2039 H 0.74145 0.96438 0.13019 0.0
H2040 H 0.74061 0.04067 0.05826 0.0
H2041 H 0.73994 0.02033 0.10406 0.0
H2042 H 0.82908 0.93495 0.02227 0.0
H2043 H 0.82679 0.91099 0.0665 0.0
H2044 H 0.80794 0.94167 0.97565 0.0
H2045 H 0.79059 0.97888 0.96043 0.0
C2046 C 0.07515 0.79122 0.07392 0.0
C2047 C 0.07005 0.80135 0.03512 0.0
C2048 C 0.04308 0.84926 0.05752 0.0
C2049 C 0.04818 0.84007 0.09629 0.0
N2050 N 0.07152 0.80724 0.1421 0.0
N2051 N 0.05647 0.852 0.99257 0.0
C2052 C 0.06492 0.81231 0.10479 0.0
C2053 C 0.05626 0.83415 0.02783 0.0
N2054 N 0.08969 0.76168 0.08128 0.0
N2055 N 1.02525 0.87171 0.04884 0.0
H2056 H 0.06783 0.8442 0.97193 0.0
H2057 H 0.04791 0.87797 0.98624 0.0
H2058 H 1.01465 0.88237 0.06977 0.0
H2059 H 1.01979 0.87608 0.02071 0.0
H2060 H 0.09155 0.74815 0.10807 0.0
H2061 H 0.10024 0.75131 0.0603 0.0
H2062 H 0.0849 0.79031 0.15013 0.0
H2063 H 0.06432 0.82199 0.16518 0.0
C2064 C 0.29508 0.71679 0.77734 0.0
C2065 C 0.3111 0.74582 0.78776 0.0
C2066 C 0.31337 0.71571 0.85235 0.0
C2067 C 0.29533 0.69078 0.84326 0.0
N2068 N 0.2674 0.67037 0.79855 0.0
N2069 N 0.33446 0.77487 0.83637 0.0
C2070 C 0.28588 0.69185 0.80606 0.0
C2071 C 0.32023 0.74548 0.82546 0.0
N2072 N 0.28882 0.71238 0.73968 0.0
N2073 N 0.32399 0.71066 0.88663 0.0
H2074 H 0.33978 0.79726 0.8178 0.0
H2075 H 0.33982 0.77896 0.86459 0.0
H2076 H 0.31912 0.68966 0.90707 0.0
H2077 H 0.33854 0.72487 0.89356 0.0
H2078 H 0.27951 0.68839 0.72976 0.0
H2079 H 0.29439 0.73044 0.71744 0.0
H2080 H 0.25809 0.67399 0.77369 0.0
H2081 H 0.26027 0.65111 0.81845 0.0
C2082 C 1.02491 0.60567 0.81992 0.0
C2083 C 0.04774 0.60646 0.82605 0.0
C2084 C 0.05116 0.54698 0.78607 0.0
C2085 C 1.02897 0.54954 0.77484 0.0
N2086 N 0.9956 0.5873 0.7766 0.0
N2087 N 0.08295 0.58429 0.80499 0.0
C2088 C 1.01603 0.58069 0.79035 0.0
C2089 C 0.06097 0.57924 0.80584 0.0
N2090 N 1.01155 0.62703 0.84341 0.0
N2091 N 0.06265 0.51264 0.78047 0.0
H2092 H 0.09078 0.60868 0.81777 0.0
H2093 H 0.09298 0.56671 0.78787 0.0
H2094 H 0.05568 0.48628 0.77016 0.0
H2095 H 0.07832 0.50878 0.7912 0.0
H2096 H 0.99473 0.62427 0.8425 0.0
H2097 H 1.01725 0.6443 0.86638 0.0
H2098 H 0.98652 0.61221 0.78439 0.0
H2099 H 0.98847 0.57025 0.75484 0.0
C2100 C 0.30339 0.54461 0.42906 0.0
C2101 C 0.31093 0.55516 0.46646 0.0
C2102 C 0.2965 0.62271 0.45542 0.0
C2103 C 0.2916 0.61242 0.41634 0.0
N2104 N 0.29903 0.56711 0.36377 0.0
N2105 N 0.31768 0.60727 0.51292 0.0
C2106 C 0.29822 0.57474 0.40238 0.0
C2107 C 0.30878 0.59547 0.47864 0.0
N2108 N 0.29876 0.50601 0.41997 0.0
N2109 N 0.28814 0.65658 0.47139 0.0
H2110 H 0.32651 0.58775 0.5303 0.0
H2111 H 0.31801 0.63694 0.52211 0.0
H2112 H 0.27798 0.6759 0.45641 0.0
H2113 H 0.28953 0.66335 0.50062 0.0
H2114 H 0.29144 0.49751 0.39402 0.0
H2115 H 0.30002 0.48366 0.44029 0.0
H2116 H 0.30465 0.54001 0.35283 0.0
H2117 H 0.29642 0.58922 0.34311 0.0
C2118 C 1.0044 0.73894 0.43458 0.0
C2119 C 1.01534 0.74281 0.47053 0.0
C2120 C 0.04226 0.69331 0.45012 0.0
C2121 C 1.03076 0.688 0.41514 0.0
N2122 N 0.99905 0.69979 0.37619 0.0
N2123 N 0.04172 0.71696 0.51575 0.0
C2124 C 1.01116 0.70885 0.40811 0.0
C2125 C 1.03333 0.71781 0.47924 0.0
N2126 N 0.9886 0.76551 0.4246 0.0
N2127 N 0.06212 0.67592 0.45509 0.0
H2128 H 1.03542 0.73364 0.53838 0.0
H2129 H 0.05358 0.69694 0.52469 0.0
H2130 H 0.06903 0.65665 0.43499 0.0
H2131 H 0.07261 0.68305 0.47769 0.0
H2132 H 0.98185 0.76709 0.39709 0.0
H2133 H 0.98337 0.78824 0.44283 0.0
H2134 H 0.98353 0.71087 0.37141 0.0
H2135 H 1.00386 0.67864 0.35586 0.0
C2136 C 0.77571 0.32041 0.15568 0.0
C2137 C 0.78793 0.35365 0.1689 0.0
C2138 C 0.77792 0.33789 0.23545 0.0
C2139 C 0.76822 0.30149 0.22274 0.0
N2140 N 0.76066 0.25587 0.17059 0.0
N2141 N 0.8024 0.3929 0.22139 0.0
C2142 C 0.76754 0.29246 0.18276 0.0
C2143 C 0.78933 0.36236 0.20881 0.0
N2144 N 0.77159 0.31577 0.11717 0.0
N2145 N 0.77611 0.34914 0.27312 0.0
H2146 H 0.81091 0.41159 0.20272 0.0
H2147 H 0.80616 0.39792 0.25027 0.0
H2148 H 0.76819 0.33162 0.29337 0.0
H2149 H 0.78071 0.37713 0.28358 0.0
H2150 H 0.76085 0.29438 0.10626 0.0
H2151 H 0.77744 0.33544 0.09632 0.0
H2152 H 0.76394 0.24493 0.14314 0.0
H2153 H 0.7532 0.23557 0.18884 0.0
C2154 C 0.06333 0.45652 0.20862 0.0
C2155 C 0.05015 0.48653 0.22552 0.0
C2156 C 1.01829 0.4566 0.19418 0.0
C2157 C 1.0315 0.42964 0.17344 0.0
N2158 N 0.06788 0.41213 0.15396 0.0
N2159 N 1.01647 0.523 0.22039 0.0
C2160 C 0.05445 0.43188 0.17859 0.0
C2161 C 1.02807 0.48902 0.21391 0.0
N2162 N 0.08389 0.45021 0.22182 0.0
N2163 N 0.99642 0.45074 0.19643 0.0
H2164 H 1.02351 0.54893 0.2316 0.0
H2165 H 1.00077 0.52691 0.20984 0.0
H2166 H 0.98865 0.42566 0.18483 0.0
H2167 H 0.98652 0.46832 0.21379 0.0
H2168 H 0.09321 0.42599 0.21297 0.0
H2169 H 0.09095 0.46691 0.24392 0.0
H2170 H 0.08466 0.41573 0.15451 0.0
H2171 H 0.06219 0.39577 0.13038 0.0
C2172 C 0.80613 0.47803 0.57368 0.0
C2173 C 0.79238 0.45204 0.59448 0.0
C2174 C 0.76139 0.47542 0.55584 0.0
C2175 C 0.77493 0.50456 0.53811 0.0
N2176 N 0.80877 0.54167 0.54234 0.0
N2177 N 0.75579 0.43409 0.61225 0.0
C2178 C 0.79683 0.50842 0.55088 0.0
C2179 C 0.76962 0.45325 0.58777 0.0
N2180 N 0.82808 0.47283 0.57401 0.0
N2181 N 0.74129 0.46693 0.54131 0.0
H2182 H 0.76114 0.4188 0.63665 0.0
H2183 H 0.73901 0.43707 0.61056 0.0
H2184 H 0.73479 0.48081 0.51712 0.0
H2185 H 0.73191 0.44306 0.55111 0.0
H2186 H 0.83846 0.48911 0.55627 0.0
H2187 H 0.83568 0.44938 0.58839 0.0
H2188 H 0.82413 0.54695 0.55398 0.0
H2189 H 0.80235 0.56608 0.5279 0.0
C2190 C 1.02955 0.33546 0.56132 0.0
C2191 C 1.03867 0.33529 0.59876 0.0
C2192 C 0.06505 0.28452 0.57861 0.0
C2193 C 0.05618 0.28569 0.54065 0.0
N2194 N 1.03516 0.32264 0.49376 0.0
N2195 N 0.06756 0.31625 0.64172 0.0
C2196 C 0.03999 0.31431 0.5314 0.0
C2197 C 0.05727 0.31191 0.60697 0.0
N2198 N 1.01055 0.35516 0.55439 0.0
N2199 N 0.08013 0.25639 0.58817 0.0
H2200 H 0.06185 0.33506 0.66339 0.0
H2201 H 0.08252 0.30362 0.64815 0.0
H2202 H 0.08591 0.23511 0.56897 0.0
H2203 H 0.08595 0.25209 0.61603 0.0
H2204 H 1.00189 0.35243 0.52866 0.0
H2205 H 1.00237 0.37134 0.57549 0.0
H2206 H 1.0252 0.34618 0.48542 0.0
H2207 H 0.04296 0.30917 0.47062 0.0
C2208 C 0.8086 0.19411 0.83228 0.0
C2209 C 0.78569 0.19447 0.83737 0.0
C2210 C 0.78434 0.25744 0.80262 0.0
C2211 C 0.80586 0.25215 0.78933 0.0
N2212 N 0.83853 0.21217 0.79091 0.0
N2213 N 0.75131 0.22285 0.81797 0.0
C2214 C 0.81817 0.21969 0.8041 0.0
C2215 C 0.7734 0.2251 0.81984 0.0
N2216 N 0.82134 0.17087 0.85533 0.0
N2217 N 0.77445 0.29373 0.7999 0.0
H2218 H 0.74256 0.19805 0.82746 0.0
H2219 H 0.74205 0.24359 0.80278 0.0
H2220 H 0.78266 0.31927 0.79069 0.0
H2221 H 0.75922 0.29924 0.81163 0.0
H2222 H 0.83821 0.17236 0.85504 0.0
H2223 H 0.81513 0.15355 0.87768 0.0
H2224 H 0.8469 0.1861 0.79766 0.0
H2225 H 0.84658 0.23038 0.77139 0.0
C2226 C 0.54417 0.04697 0.79373 0.0
C2227 C 0.52223 0.05129 0.78153 0.0
C2228 C 0.51663 0.09759 0.83547 0.0
C2229 C 0.53935 0.09838 0.84288 0.0
N2230 N 0.57523 0.08059 0.82121 0.0
N2231 N 0.48828 0.08623 0.78812 0.0
C2232 C 0.55328 0.07503 0.81977 0.0
C2233 C 0.50861 0.07825 0.80159 0.0
N2234 N 0.55622 1.01506 0.78203 0.0
N2235 N 0.50264 0.11388 0.86143 0.0
H2236 H 0.48185 0.07294 0.76341 0.0
H2237 H 0.47859 0.10865 0.79964 0.0
H2238 H 0.50781 0.12663 0.88736 0.0
H2239 H 0.48587 0.1108 0.85914 0.0
H2240 H 0.5716 1.00912 0.79313 0.0
H2241 H 0.54996 0.99192 0.76523 0.0
H2242 H 0.58576 0.06659 0.8021 0.0
H2243 H 0.5827 0.10238 0.83828 0.0
C2244 C 0.81836 0.04046 0.42756 0.0
C2245 C 0.81154 0.04726 0.46618 0.0
C2246 C 0.78555 0.09771 0.44349 0.0
C2247 C 0.79193 0.09043 0.40497 0.0
N2248 N 0.8166 0.06039 0.36007 0.0
N2249 N 0.7938 0.09093 0.51133 0.0
C2250 C 0.8091 0.06355 0.39696 0.0
C2251 C 0.79673 0.07861 0.47414 0.0
N2252 N 0.83296 1.01102 0.41985 0.0
N2253 N 0.76835 0.12221 0.45084 0.0
H2254 H 0.80194 0.07808 0.53451 0.0
H2255 H 0.78519 0.11643 0.51892 0.0
H2256 H 0.76011 0.13792 0.42943 0.0
H2257 H 0.76115 0.12473 0.4778 0.0
H2258 H 0.83649 1.00077 0.39228 0.0
H2259 H 0.84132 0.99579 0.44124 0.0
H2260 H 0.83046 0.04473 0.35244 0.0
H2261 H 0.80953 0.07545 0.33694 0.0
C2262 C 0.53093 0.19936 0.49285 0.0
C2263 C 0.51589 0.22816 0.47916 0.0
C2264 C 0.51668 0.19632 0.41534 0.0
C2265 C 0.53472 0.17327 0.42739 0.0
N2266 N 0.55967 0.15311 0.47723 0.0
N2267 N 0.4937 0.25344 0.42731 0.0
C2268 C 0.54182 0.17436 0.46621 0.0
C2269 C 0.50818 0.22597 0.44057 0.0
N2270 N 0.53464 0.19575 0.53155 0.0
N2271 N 0.5077 0.18963 0.37979 0.0
H2272 H 0.48621 0.27423 0.44498 0.0
H2273 H 0.48966 0.25656 0.39839 0.0
H2274 H 0.51373 0.16841 0.3606 0.0
H2275 H 0.49325 0.20242 0.37051 0.0
H2276 H 0.54369 0.17275 0.54369 0.0
H2277 H 0.52686 0.21346 0.5519 0.0
H2278 H 0.56726 0.15658 0.5039 0.0
H2279 H 0.56789 0.1339 0.45872 0.0
C2280 C 0.28267 0.77518 0.19267 0.0
C2281 C 0.26168 0.78335 0.20736 0.0
C2282 C 0.25722 0.83218 0.15531 0.0
C2283 C 0.27989 0.83069 0.14769 0.0
N2284 N 0.31498 0.80554 0.16767 0.0
N2285 N 0.22924 0.82342 0.20338 0.0
C2286 C 0.29286 0.8033 0.16847 0.0
C2287 C 0.24882 0.81261 0.18865 0.0
N2288 N 0.29294 0.74037 0.20152 0.0
N2289 N 0.24366 0.85144 0.13041 0.0
H2290 H 0.22257 0.81038 0.22784 0.0
H2291 H 0.22047 0.84769 0.19296 0.0
H2292 H 0.24912 0.86433 0.10486 0.0
H2293 H 0.22684 0.85061 0.13303 0.0
H2294 H 0.30756 0.73205 0.1889 0.0
H2295 H 0.28553 0.71796 0.2175 0.0
H2296 H 0.32478 0.78782 0.18518 0.0
H2297 H 0.32347 0.82808 0.1535 0.0
C2298 C 0.52882 1.00761 0.20327 0.0
C2299 C 0.55125 1.00648 0.21295 0.0
C2300 C 0.55492 0.95097 0.16696 0.0
C2301 C 0.53194 0.94698 0.16472 0.0
N2302 N 0.49738 0.96667 0.1912 0.0
N2303 N 0.58516 0.97024 0.2075 0.0
C2304 C 0.51897 0.9739 0.1859 0.0
C2305 C 0.56432 0.97641 0.19568 0.0
N2306 N 0.51681 0.04106 0.20991 0.0
N2307 N 0.56782 0.93186 0.14102 0.0
H2308 H 0.59275 0.98662 0.2292 0.0
H2309 H 0.59424 0.94593 0.1981 0.0
H2310 H 0.56161 0.91507 0.11812 0.0
H2311 H 0.58451 0.93663 0.13971 0.0
H2312 H 0.50076 0.04365 0.20069 0.0
H2313 H 0.52359 0.06768 0.21999 0.0
H2314 H 0.48784 0.98439 0.20907 0.0
H2315 H 0.48972 0.94054 0.18179 0.0
C2316 C 0.27087 0.95682 0.59692 0.0
C2317 C 0.28695 0.92945 0.58443 0.0
C2318 C 0.27961 0.94697 0.51741 0.0
C2319 C 0.26584 0.97825 0.52979 0.0
N2320 N 0.24254 1.00382 0.57925 0.0
N2321 N 0.30751 0.89909 0.53336 0.0
C2322 C 0.25964 0.98048 0.56903 0.0
C2323 C 0.29138 0.92435 0.54479 0.0
N2324 N 0.26702 0.96112 0.63549 0.0
N2325 N 0.28054 0.9378 0.47918 0.0
H2326 H 0.31618 0.8811 0.55244 0.0
H2327 H 0.31344 0.89797 0.50535 0.0
H2328 H 0.27078 0.95219 0.45922 0.0
H2329 H 0.28856 0.91309 0.468 0.0
H2330 H 0.25721 0.98312 0.64727 0.0
H2331 H 0.27462 0.94362 0.65637 0.0
H2332 H 0.23612 1.00504 0.60683 0.0
H2333 H 0.23297 1.01843 0.55903 0.0
C2334 C 0.54144 0.806 0.60131 0.0
C2335 C 0.54371 0.84786 0.59747 0.0
C2336 C 0.56762 0.83612 0.54197 0.0
C2337 C 0.56102 0.79558 0.54096 0.0
N2338 N 0.53627 0.74538 0.56575 0.0
N2339 N 0.55626 0.90311 0.5581 0.0
C2340 C 0.54641 0.7814 0.56953 0.0
C2341 C 0.55634 0.86325 0.56642 0.0
N2342 N 0.53465 0.78956 0.63518 0.0
N2343 N 0.58409 0.84901 0.51899 0.0
H2344 H 0.54677 0.92369 0.57287 0.0
H2345 H 0.56369 0.91492 0.53369 0.0
H2346 H 0.59243 0.82979 0.50062 0.0
H2347 H 0.59057 0.87779 0.52082 0.0
H2348 H 0.5341 0.75876 0.63971 0.0
H2349 H 0.53217 0.80659 0.65998 0.0
H2350 H 0.5244 0.73541 0.58481 0.0
H2351 H 0.53761 0.72807 0.54116 0.0
C2352 C 0.778 0.71289 0.30812 0.0
C2353 C 0.79147 0.68544 0.32773 0.0
C2354 C 0.82262 0.71082 0.29065 0.0
C2355 C 0.80936 0.74148 0.27499 0.0
N2356 N 0.77614 0.77905 0.28187 0.0
N2357 N 0.82792 0.6649 0.34387 0.0
C2358 C 0.78759 0.74478 0.28777 0.0
C2359 C 0.81422 0.68624 0.32086 0.0
N2360 N 0.756 0.70802 0.30774 0.0
N2361 N 0.84272 0.70379 0.27597 0.0
H2362 H 0.82253 0.64784 0.36706 0.0
H2363 H 0.84473 0.66743 0.34226 0.0
H2364 H 0.84936 0.7204 0.25358 0.0
H2365 H 0.85199 0.67914 0.28385 0.0
H2366 H 0.74579 0.72583 0.29109 0.0
H2367 H 0.74826 0.68351 0.32024 0.0
H2368 H 0.76079 0.78365 0.29345 0.0
H2369 H 0.78308 0.80457 0.26999 0.0
C2370 C 0.53312 0.56739 0.28874 0.0
C2371 C 0.51891 0.53605 0.30016 0.0
C2372 C 0.52036 0.5617 0.36664 0.0
C2373 C 0.53733 0.58819 0.35574 0.0
N2374 N 0.56174 0.61309 0.30716 0.0
N2375 N 0.49848 0.50332 0.35026 0.0
C2376 C 0.54415 0.59027 0.31697 0.0
C2377 C 0.51209 0.53345 0.33917 0.0
N2378 N 0.53559 0.57617 0.2506 0.0
N2379 N 0.51213 0.56387 0.40307 0.0
H2380 H 0.49218 0.48215 0.33121 0.0
H2381 H 0.49422 0.49782 0.37873 0.0
H2382 H 0.51821 0.5836 0.42384 0.0
H2383 H 0.49842 0.54834 0.41205 0.0
H2384 H 0.5438 0.60139 0.24069 0.0
H2385 H 0.5272 0.56094 0.22906 0.0
H2386 H 0.56893 0.61199 0.28008 0.0
H2387 H 0.57044 0.63046 0.32692 0.0
C2388 C 0.78538 0.59813 0.94568 0.0
C2389 C 0.79195 0.59433 0.9068 0.0
C2390 C 0.8158 0.53825 0.92438 0.0
C2391 C 0.80871 0.54159 0.96317 0.0
N2392 N 0.79234 0.58215 0.01251 0.0
N2393 N 0.81626 0.56682 0.85978 0.0
C2394 C 0.79524 0.57393 0.97429 0.0
C2395 C 0.80821 0.56639 0.89642 0.0
N2396 N 0.76909 0.6239 0.95513 0.0
N2397 N 0.82891 0.50729 0.91399 0.0
H2398 H 0.81062 0.58637 0.83864 0.0
H2399 H 0.82942 0.54995 0.85081 0.0
H2400 H 0.83468 0.48622 0.93351 0.0
H2401 H 0.83342 0.50111 0.88578 0.0
H2402 H 0.76164 0.62427 0.98198 0.0
H2403 H 0.76188 0.6432 0.93533 0.0
H2404 H 0.78472 0.60778 0.02263 0.0
H2405 H 0.79951 0.56537 0.03431 0.0
C2406 C 0.54372 0.6893 0.95918 0.0
C2407 C 0.53486 0.68423 0.92188 0.0
C2408 C 0.5092 0.73893 0.93362 0.0
C2409 C 0.51756 0.74308 0.97169 0.0
N2410 N 0.53876 0.71437 0.02362 0.0
N2411 N 0.50651 0.69781 0.87593 0.0
C2412 C 0.53358 0.71581 0.98531 0.0
C2413 C 0.51664 0.70689 0.90996 0.0
N2414 N 0.56234 0.66983 0.96931 0.0
N2415 N 0.49536 0.7669 0.91904 0.0
H2416 H 0.51183 0.67507 0.85771 0.0
H2417 H 0.49184 0.71035 0.86741 0.0
H2418 H 0.48982 0.79122 0.93486 0.0
H2419 H 0.49074 0.76795 0.89016 0.0
H2420 H 0.57123 0.67658 0.9941 0.0
H2421 H 0.56989 0.64896 0.95156 0.0
H2422 H 0.54862 0.69249 0.03569 0.0
H2423 H 0.53119 0.73193 0.04424 0.0
C2424 C 0.26584 0.27846 0.66477 0.0
C2425 C 0.27348 0.28295 0.70322 0.0
C2426 C 0.29662 0.33889 0.68378 0.0
C2427 C 0.28857 0.33576 0.64558 0.0
N2428 N 0.26249 0.30797 0.60094 0.0
N2429 N 0.28965 0.3262 0.75097 0.0
C2430 C 0.2722 0.30714 0.6364 0.0
C2431 C 0.28688 0.31591 0.71317 0.0
N2432 N 0.25317 0.24635 0.65512 0.0
N2433 N 0.31415 0.36267 0.69191 0.0
H2434 H 0.2816 0.3113 0.77307 0.0
H2435 H 0.29764 0.35218 0.75982 0.0
H2436 H 0.32228 0.3793 0.67105 0.0
H2437 H 0.32194 0.36272 0.71862 0.0
H2438 H 0.24865 0.23937 0.62696 0.0
H2439 H 0.24818 0.22503 0.67509 0.0
H2440 H 0.24904 0.29063 0.59357 0.0
H2441 H 0.26687 0.32841 0.57966 0.0
C2442 C 0.5397 0.5171 0.67751 0.0
C2443 C 0.55615 0.5049 0.70396 0.0
C2444 C 0.56457 0.44931 0.65993 0.0
C2445 C 0.54514 0.45722 0.63926 0.0
N2446 N 0.53076 0.51647 0.61009 0.0
N2447 N 0.58574 0.46003 0.71811 0.0
C2448 C 0.53719 0.49644 0.6423 0.0
C2449 C 0.5694 0.47168 0.69409 0.0
N2450 N 0.52618 0.54808 0.68542 0.0
N2451 N 0.5796 0.42453 0.6441 0.0
H2452 H 0.5902 0.47615 0.74258 0.0
H2453 H 0.59402 0.4332 0.71484 0.0
H2454 H 0.5775 0.41266 0.61646 0.0
H2455 H 0.59499 0.42011 0.65575 0.0
H2456 H 0.51306 0.55518 0.66765 0.0
H2457 H 0.52708 0.56471 0.71056 0.0
H2458 H 0.52661 0.54666 0.61046 0.0
H2459 H 0.53287 0.50423 0.58265 0.0
C2460 C 0.28068 0.42069 0.05882 0.0
C2461 C 0.29456 0.42778 0.09101 0.0
C2462 C 0.29239 0.49962 0.0788 0.0
C2463 C 0.27727 0.49305 0.04832 0.0
N2464 N 0.25213 0.44716 0.01807 0.0
N2465 N 0.30565 0.47531 0.13989 0.0
C2466 C 0.26964 0.45353 0.04143 0.0
C2467 C 0.29779 0.46768 0.10374 0.0
N2468 N 0.27902 0.38334 0.04316 0.0
N2469 N 0.30254 0.53566 0.08319 0.0
H2470 H 0.30863 0.45272 0.15989 0.0
H2471 H 0.30661 0.50413 0.15131 0.0
H2472 H 0.29972 0.55984 0.06519 0.0
H2473 H 0.31518 0.54023 0.1028 0.0
H2474 H 0.27076 0.37757 0.01746 0.0
H2475 H 0.2877 0.35897 0.05356 0.0
H2476 H 0.24505 0.41907 0.01425 0.0
H2477 H 0.24323 0.47056 0.0063 0.0
C2478 C 0.56994 0.31017 0.07181 0.0
C2479 C 0.56136 0.30877 0.03365 0.0
C2480 C 0.53366 0.35821 0.05143 0.0
C2481 C 0.54159 0.35841 0.08965 0.0
N2482 N 0.56932 0.34106 0.13554 0.0
N2483 N 0.54028 0.34237 0.98485 0.0
C2484 C 0.56047 0.33648 0.09958 0.0
C2485 C 0.54485 0.33627 0.02287 0.0
N2486 N 0.58658 0.28564 0.08199 0.0
N2487 N 0.51496 0.37805 0.0425 0.0
H2488 H 0.54858 0.32782 0.96314 0.0
H2489 H 0.53025 0.36503 0.97474 0.0
H2490 H 0.50666 0.39589 0.06216 0.0
H2491 H 0.50675 0.37456 0.01641 0.0
H2492 H 0.59155 0.28098 0.11023 0.0
H2493 H 0.59571 0.26987 0.06213 0.0
H2494 H 0.58422 0.32942 0.14389 0.0
H2495 H 0.56231 0.3588 0.15681 0.0
loop_
_geom_bond_atom_site_label_1
_geom_bond_atom_site_label_2
_geom_bond_distance
_geom_bond_site_symmetry_2
_ccdc_geom_bond_type
C0 C1 1.351 . S
C0 N3 1.368 . S
C0 H5 0.931 . S
C1 C0 1.351 . S
C1 N2 1.373 . S
C1 H29 0.930 . S
N2 C1 1.373 . S
N2 C4 1.340 . S
N3 C0 1.368 . S
N3 C4 1.321 . S
N3 Co6 2.135 . S
C4 N2 1.340 . S
C4 N3 1.321 . S
C4 H28 0.930 . S
H5 C0 0.931 . S
Co6 N3 2.135 . S
Co6 N9 2.121 . S
Co6 O14 2.055 . S
Co6 O17 2.039 . S
Co6 N20 2.140 . S
C7 O8 1.227 . S
C7 O17 1.265 . S
O8 C7 1.227 . S
N9 Co6 2.121 . S
N9 C11 1.375 . S
N9 C12 1.313 . S
C10 C11 1.338 . S
C10 N13 1.377 . S
C10 H30 0.930 . S
C11 N9 1.375 . S
C11 C10 1.338 . S
C11 H15 0.931 . S
C12 N9 1.313 . S
C12 N13 1.344 . S
C12 H16 0.930 . S
N13 C10 1.377 . S
N13 C12 1.344 . S
O14 Co6 2.055 . S
O14 C18 1.253 . S
H15 C11 0.931 . S
H16 C12 0.930 . S
O17 Co6 2.039 . S
O17 C7 1.265 . S
C18 O14 1.253 . S
C18 O19 1.227 . S
O19 C18 1.227 . S
N20 Co6 2.140 . S
N20 C23 1.346 . S
N20 C24 1.345 . S
C21 C22 1.387 . S
C21 C25 1.391 . S
C22 C21 1.387 . S
C22 C23 1.369 . S
C22 H31 0.929 . S
C23 N20 1.346 . S
C23 C22 1.369 . S
C23 H26 0.928 . S
C24 N20 1.345 . S
C24 C25 1.371 . S
C24 H27 0.931 . S
C25 C21 1.391 . S
C25 C24 1.371 . S
C25 H32 0.930 . S
H26 C23 0.928 . S
H27 C24 0.931 . S
H28 C4 0.930 . S
H29 C1 0.930 . S
H30 C10 0.930 . S
H31 C22 0.929 . S
H32 C25 0.930 . S
C33 C34 1.351 . S
C33 N36 1.368 . S
C33 H38 0.931 . S
C34 C33 1.351 . S
C34 N35 1.373 . S
C34 H62 0.930 . S
N35 C34 1.373 . S
N35 C37 1.340 . S
N36 C33 1.368 . S
N36 C37 1.321 . S
N36 Co39 2.135 . S
C37 N35 1.340 . S
C37 N36 1.321 . S
C37 H61 0.930 . S
H38 C33 0.931 . S
Co39 N36 2.135 . S
Co39 N42 2.121 1_565 S
Co39 O47 2.055 1_565 S
Co39 O50 2.039 . S
Co39 N53 2.140 . S
C40 O41 1.227 . S
C40 O50 1.265 . S
O41 C40 1.227 . S
N42 Co39 2.121 1_545 S
N42 C44 1.374 1_545 S
N42 C45 1.313 . S
C43 C44 1.333 1_545 S
C43 N46 1.377 . S
C43 H63 0.930 . S
C44 N42 1.374 1_565 S
C44 C43 1.333 1_565 S
C44 H48 0.936 . S
C45 N42 1.313 . S
C45 N46 1.344 . S
C45 H49 0.930 . S
N46 C43 1.377 . S
N46 C45 1.344 . S
O47 Co39 2.055 1_545 S
O47 C51 1.253 . S
H48 C44 0.936 . S
H49 C45 0.930 . S
O50 Co39 2.039 . S
O50 C40 1.265 . S
C51 O47 1.253 . S
C51 O52 1.227 . S
O52 C51 1.227 . S
N53 Co39 2.140 . S
N53 C56 1.346 . S
N53 C57 1.345 . S
C54 C55 1.387 . S
C54 C58 1.391 . S
C55 C54 1.387 . S
C55 C56 1.369 . S
C55 H64 0.929 . S
C56 N53 1.346 . S
C56 C55 1.369 . S
C56 H59 0.928 . S
C57 N53 1.345 . S
C57 C58 1.371 . S
C57 H60 0.931 . S
C58 C54 1.391 . S
C58 C57 1.371 . S
C58 H65 0.961 . S
H59 C56 0.928 . S
H60 C57 0.931 . S
H61 C37 0.930 . S
H62 C34 0.930 . S
H63 C43 0.930 . S
H64 C55 0.929 . S
H65 C58 0.961 . S
C66 C67 1.351 . S
C66 N69 1.368 . S
C66 H71 0.931 . S
C67 C66 1.351 . S
C67 N68 1.373 . S
C67 H95 0.930 . S
N68 C67 1.373 . S
N68 C70 1.340 . S
N69 C66 1.368 . S
N69 C70 1.321 . S
N69 Co72 2.135 1_556 S
C70 N68 1.340 . S
C70 N69 1.321 . S
C70 H94 0.930 . S
H71 C66 0.931 . S
Co72 N69 2.135 1_554 S
Co72 N75 2.121 1_565 S
Co72 O80 2.055 1_564 S
Co72 O83 2.039 . S
Co72 N86 2.140 . S
C73 O74 1.227 . S
C73 O83 1.265 . S
O74 C73 1.227 . S
N75 Co72 2.121 1_545 S
N75 C77 1.374 1_545 S
N75 C78 1.313 . S
C76 C77 1.333 1_545 S
C76 N79 1.377 . S
C76 H96 0.930 . S
C77 N75 1.374 1_565 S
C77 C76 1.333 1_565 S
C77 H81 0.936 . S
C78 N75 1.313 . S
C78 N79 1.344 . S
C78 H82 0.930 . S
N79 C76 1.377 . S
N79 C78 1.344 . S
O80 Co72 2.055 1_546 S
O80 C84 1.253 . S
H81 C77 0.936 . S
H82 C78 0.930 . S
O83 Co72 2.039 . S
O83 C73 1.265 . S
C84 O80 1.253 . S
C84 O85 1.227 1_556 S
O85 C84 1.227 1_554 S
N86 Co72 2.140 . S
N86 C89 1.346 . S
N86 C90 1.345 . S
C87 C88 1.387 . S
C87 C91 1.391 . S
C88 C87 1.387 . S
C88 C89 1.369 . S
C88 H97 0.929 . S
C89 N86 1.346 . S
C89 C88 1.369 . S
C89 H92 0.928 . S
C90 N86 1.345 . S
C90 C91 1.371 . S
C90 H93 0.931 . S
C91 C87 1.391 . S
C91 C90 1.371 . S
C91 H98 0.930 . S
H92 C89 0.928 . S
H93 C90 0.931 . S
H94 C70 0.930 . S
H95 C67 0.930 . S
H96 C76 0.930 . S
H97 C88 0.929 . S
H98 C91 0.930 . S
C99 C100 1.351 . S
C99 N102 1.368 . S
C99 H104 0.931 . S
C100 C99 1.351 . S
C100 N101 1.373 . S
C100 H128 0.930 . S
N101 C100 1.373 . S
N101 C103 1.340 . S
N102 C99 1.368 . S
N102 C103 1.321 . S
N102 Co105 2.135 1_556 S
C103 N101 1.340 . S
C103 N102 1.321 . S
C103 H127 0.930 . S
H104 C99 0.931 . S
Co105 N102 2.135 1_554 S
Co105 N108 2.121 . S
Co105 O113 2.055 1_554 S
Co105 O116 2.039 . S
Co105 N119 2.140 . S
C106 O107 1.227 . S
C106 O116 1.265 . S
O107 C106 1.227 . S
N108 Co105 2.121 . S
N108 C110 1.375 . S
N108 C111 1.313 . S
C109 C110 1.338 . S
C109 N112 1.377 . S
C109 H129 0.930 . S
C110 N108 1.375 . S
C110 C109 1.338 . S
C110 H114 0.931 . S
C111 N108 1.313 . S
C111 N112 1.344 . S
C111 H115 0.930 . S
N112 C109 1.377 . S
N112 C111 1.344 . S
O113 Co105 2.055 1_556 S
O113 C117 1.253 . S
H114 C110 0.931 . S
H115 C111 0.930 . S
O116 Co105 2.039 . S
O116 C106 1.265 . S
C117 O113 1.253 . S
C117 O118 1.227 1_556 S
O118 C117 1.227 1_554 S
N119 Co105 2.140 . S
N119 C122 1.346 . S
N119 C123 1.345 . S
C120 C121 1.387 . S
C120 C124 1.391 . S
C121 C120 1.387 . S
C121 C122 1.369 . S
C121 H130 0.929 . S
C122 N119 1.346 . S
C122 C121 1.369 . S
C122 H125 0.928 . S
C123 N119 1.345 . S
C123 C124 1.371 . S
C123 H126 0.931 . S
C124 C120 1.391 . S
C124 C123 1.371 . S
C124 H131 0.961 . S
H125 C122 0.928 . S
H126 C123 0.931 . S
H127 C103 0.930 . S
H128 C100 0.930 . S
H129 C109 0.930 . S
H130 C121 0.929 . S
H131 C124 0.961 . S
C132 C133 1.351 . S
C132 N135 1.368 . S
C132 H137 0.931 . S
C133 C132 1.351 . S
C133 N134 1.373 . S
C133 H161 0.930 . S
N134 C133 1.373 . S
N134 C136 1.340 . S
N135 C132 1.368 . S
N135 C136 1.321 . S
N135 Co138 2.135 . S
C136 N134 1.340 . S
C136 N135 1.321 . S
C136 H160 0.930 . S
H137 C132 0.931 . S
Co138 N135 2.135 . S
Co138 N141 2.121 . S
Co138 O146 2.055 . S
Co138 O149 2.039 . S
Co138 N152 2.140 . S
C139 O140 1.227 . S
C139 O149 1.265 . S
O140 C139 1.227 . S
N141 Co138 2.121 . S
N141 C143 1.375 . S
N141 C144 1.313 . S
C142 C143 1.338 . S
C142 N145 1.377 . S
C142 H162 0.930 . S
C143 N141 1.375 . S
C143 C142 1.338 . S
C143 H147 0.931 . S
C144 N141 1.313 . S
C144 N145 1.344 . S
C144 H148 0.930 . S
N145 C142 1.377 . S
N145 C144 1.344 . S
O146 Co138 2.055 . S
O146 C150 1.253 . S
H147 C143 0.931 . S
H148 C144 0.930 . S
O149 Co138 2.039 . S
O149 C139 1.265 . S
C150 O146 1.253 . S
C150 O151 1.227 . S
O151 C150 1.227 . S
N152 Co138 2.140 . S
N152 C155 1.346 . S
N152 C156 1.345 . S
C153 C154 1.387 . S
C153 C157 1.391 . S
C154 C153 1.387 . S
C154 C155 1.369 . S
C154 H163 0.929 . S
C155 N152 1.346 . S
C155 C154 1.369 . S
C155 H158 0.928 . S
C156 N152 1.345 . S
C156 C157 1.371 . S
C156 H159 0.931 . S
C157 C153 1.391 . S
C157 C156 1.371 . S
C157 H164 0.930 . S
H158 C155 0.928 . S
H159 C156 0.931 . S
H160 C136 0.930 . S
H161 C133 0.930 . S
H162 C142 0.930 . S
H163 C154 0.929 . S
H164 C157 0.930 . S
C165 C166 1.351 . S
C165 N168 1.368 . S
C165 H170 0.931 . S
C166 C165 1.351 . S
C166 N167 1.373 . S
C166 H194 0.930 . S
N167 C166 1.373 . S
N167 C169 1.340 . S
N168 C165 1.368 . S
N168 C169 1.321 . S
N168 Co171 2.135 . S
C169 N167 1.340 . S
C169 N168 1.321 . S
C169 H193 0.930 . S
H170 C165 0.931 . S
Co171 N168 2.135 . S
Co171 N174 2.121 1_545 S
Co171 O179 2.055 1_545 S
Co171 O182 2.039 . S
Co171 N185 2.140 . S
C172 O173 1.227 . S
C172 O182 1.265 . S
O173 C172 1.227 . S
N174 Co171 2.121 1_565 S
N174 C176 1.374 1_565 S
N174 C177 1.313 . S
C175 C176 1.333 1_565 S
C175 N178 1.377 . S
C175 H195 0.930 . S
C176 N174 1.374 1_545 S
C176 C175 1.333 1_545 S
C176 H180 0.936 . S
C177 N174 1.313 . S
C177 N178 1.344 . S
C177 H181 0.930 . S
N178 C175 1.377 . S
N178 C177 1.344 . S
O179 Co171 2.055 1_565 S
O179 C183 1.253 . S
H180 C176 0.936 . S
H181 C177 0.930 . S
O182 Co171 2.039 . S
O182 C172 1.265 . S
C183 O179 1.253 . S
C183 O184 1.227 . S
O184 C183 1.227 . S
N185 Co171 2.140 . S
N185 C188 1.346 . S
N185 C189 1.345 . S
C186 C187 1.387 . S
C186 C190 1.391 . S
C187 C186 1.387 . S
C187 C188 1.369 . S
C187 H196 0.929 . S
C188 N185 1.346 . S
C188 C187 1.369 . S
C188 H191 0.928 . S
C189 N185 1.345 . S
C189 C190 1.371 . S
C189 H192 0.931 . S
C190 C186 1.391 . S
C190 C189 1.371 . S
C190 H197 0.961 . S
H191 C188 0.928 . S
H192 C189 0.931 . S
H193 C169 0.930 . S
H194 C166 0.930 . S
H195 C175 0.930 . S
H196 C187 0.929 . S
H197 C190 0.961 . S
C198 C199 1.351 . S
C198 N201 1.368 . S
C198 H203 0.931 . S
C199 C198 1.351 . S
C199 N200 1.373 . S
C199 H227 0.930 . S
N200 C199 1.373 . S
N200 C202 1.340 . S
N201 C198 1.368 . S
N201 C202 1.321 . S
N201 Co204 2.135 1_554 S
C202 N200 1.340 . S
C202 N201 1.321 . S
C202 H226 0.930 . S
H203 C198 0.931 . S
Co204 N201 2.135 1_556 S
Co204 N207 2.121 1_545 S
Co204 O212 2.055 1_546 S
Co204 O215 2.039 . S
Co204 N218 2.140 . S
C205 O206 1.227 . S
C205 O215 1.265 . S
O206 C205 1.227 . S
N207 Co204 2.121 1_565 S
N207 C209 1.374 1_565 S
N207 C210 1.313 . S
C208 C209 1.333 1_565 S
C208 N211 1.377 . S
C208 H228 0.930 . S
C209 N207 1.374 1_545 S
C209 C208 1.333 1_545 S
C209 H213 0.936 . S
C210 N207 1.313 . S
C210 N211 1.344 . S
C210 H214 0.930 . S
N211 C208 1.377 . S
N211 C210 1.344 . S
O212 Co204 2.055 1_564 S
O212 C216 1.253 . S
H213 C209 0.936 . S
H214 C210 0.930 . S
O215 Co204 2.039 . S
O215 C205 1.265 . S
C216 O212 1.253 . S
C216 O217 1.227 1_554 S
O217 C216 1.227 1_556 S
N218 Co204 2.140 . S
N218 C221 1.346 . S
N218 C222 1.345 . S
C219 C220 1.387 . S
C219 C223 1.391 . S
C220 C219 1.387 . S
C220 C221 1.369 . S
C220 H229 0.929 . S
C221 N218 1.346 . S
C221 C220 1.369 . S
C221 H224 0.928 . S
C222 N218 1.345 . S
C222 C223 1.371 . S
C222 H225 0.931 . S
C223 C219 1.391 . S
C223 C222 1.371 . S
C223 H230 0.930 . S
H224 C221 0.928 . S
H225 C222 0.931 . S
H226 C202 0.930 . S
H227 C199 0.930 . S
H228 C208 0.930 . S
H229 C220 0.929 . S
H230 C223 0.930 . S
C231 C232 1.351 . S
C231 N234 1.368 . S
C231 H236 0.931 . S
C232 C231 1.351 . S
C232 N233 1.373 . S
C232 H260 0.930 . S
N233 C232 1.373 . S
N233 C235 1.340 . S
N234 C231 1.368 . S
N234 C235 1.321 . S
N234 Co237 2.135 1_554 S
C235 N233 1.340 . S
C235 N234 1.321 . S
C235 H259 0.930 . S
H236 C231 0.931 . S
Co237 N234 2.135 1_556 S
Co237 N240 2.121 . S
Co237 O245 2.055 1_556 S
Co237 O248 2.039 . S
Co237 N251 2.140 . S
C238 O239 1.227 . S
C238 O248 1.265 . S
O239 C238 1.227 . S
N240 Co237 2.121 . S
N240 C242 1.375 . S
N240 C243 1.313 . S
C241 C242 1.338 . S
C241 N244 1.377 . S
C241 H261 0.930 . S
C242 N240 1.375 . S
C242 C241 1.338 . S
C242 H246 0.931 . S
C243 N240 1.313 . S
C243 N244 1.344 . S
C243 H247 0.930 . S
N244 C241 1.377 . S
N244 C243 1.344 . S
O245 Co237 2.055 1_554 S
O245 C249 1.253 . S
H246 C242 0.931 . S
H247 C243 0.930 . S
O248 Co237 2.039 . S
O248 C238 1.265 . S
C249 O245 1.253 . S
C249 O250 1.227 1_554 S
O250 C249 1.227 1_556 S
N251 Co237 2.140 . S
N251 C254 1.346 . S
N251 C255 1.345 . S
C252 C253 1.387 . S
C252 C256 1.391 . S
C253 C252 1.387 . S
C253 C254 1.369 . S
C253 H262 0.929 . S
C254 N251 1.346 . S
C254 C253 1.369 . S
C254 H257 0.928 . S
C255 N251 1.345 . S
C255 C256 1.371 . S
C255 H258 0.931 . S
C256 C252 1.391 . S
C256 C255 1.371 . S
C256 H263 0.961 . S
H257 C254 0.928 . S
H258 C255 0.931 . S
H259 C235 0.930 . S
H260 C232 0.930 . S
H261 C241 0.930 . S
H262 C253 0.929 . S
H263 C256 0.961 . S
C264 C265 1.351 . S
C264 N267 1.368 . S
C264 H269 0.931 . S
C265 C264 1.351 . S
C265 N266 1.373 . S
C265 H293 0.930 . S
N266 C265 1.373 . S
N266 C268 1.340 . S
N267 C264 1.368 . S
N267 C268 1.321 . S
N267 Co270 2.135 . S
C268 N266 1.340 . S
C268 N267 1.321 . S
C268 H292 0.930 . S
H269 C264 0.931 . S
Co270 N267 2.135 . S
Co270 N273 2.121 . S
Co270 O278 2.055 . S
Co270 O281 2.039 . S
Co270 N284 2.140 . S
C271 O272 1.227 . S
C271 O281 1.265 . S
O272 C271 1.227 . S
N273 Co270 2.121 . S
N273 C275 1.375 . S
N273 C276 1.313 . S
C274 C275 1.338 . S
C274 N277 1.377 . S
C274 H294 0.930 . S
C275 N273 1.375 . S
C275 C274 1.338 . S
C275 H279 0.931 . S
C276 N273 1.313 . S
C276 N277 1.344 . S
C276 H280 0.930 . S
N277 C274 1.377 . S
N277 C276 1.344 . S
O278 Co270 2.055 . S
O278 C282 1.253 . S
H279 C275 0.931 . S
H280 C276 0.930 . S
O281 Co270 2.039 . S
O281 C271 1.265 . S
C282 O278 1.253 . S
C282 O283 1.227 . S
O283 C282 1.227 . S
N284 Co270 2.140 . S
N284 C287 1.346 . S
N284 C288 1.345 . S
C285 C286 1.387 . S
C285 C289 1.391 . S
C286 C285 1.387 . S
C286 C287 1.369 . S
C286 H295 0.929 . S
C287 N284 1.346 . S
C287 C286 1.369 . S
C287 H290 0.928 . S
C288 N284 1.345 . S
C288 C289 1.371 . S
C288 H291 0.931 . S
C289 C285 1.391 . S
C289 C288 1.371 . S
C289 H296 0.930 . S
H290 C287 0.928 . S
H291 C288 0.931 . S
H292 C268 0.930 . S
H293 C265 0.930 . S
H294 C274 0.930 . S
H295 C286 0.929 . S
H296 C289 0.930 . S
C297 C298 1.351 . S
C297 N300 1.368 . S
C297 H302 0.931 . S
C298 C297 1.351 . S
C298 N299 1.373 . S
C298 H326 0.930 . S
N299 C298 1.373 . S
N299 C301 1.340 . S
N300 C297 1.368 . S
N300 C301 1.321 . S
N300 Co303 2.135 . S
C301 N299 1.340 . S
C301 N300 1.321 . S
C301 H325 0.930 . S
H302 C297 0.931 . S
Co303 N300 2.135 . S
Co303 N306 2.121 . S
Co303 O311 2.055 . S
Co303 O314 2.039 . S
Co303 N317 2.140 . S
C304 O305 1.227 . S
C304 O314 1.265 . S
O305 C304 1.227 . S
N306 Co303 2.121 . S
N306 C308 1.375 . S
N306 C309 1.313 . S
C307 C308 1.338 . S
C307 N310 1.377 . S
C307 H327 0.930 . S
C308 N306 1.375 . S
C308 C307 1.338 . S
C308 H312 0.931 . S
C309 N306 1.313 . S
C309 N310 1.344 . S
C309 H313 0.930 . S
N310 C307 1.377 . S
N310 C309 1.344 . S
O311 Co303 2.055 . S
O311 C315 1.253 . S
H312 C308 0.931 . S
H313 C309 0.930 . S
O314 Co303 2.039 . S
O314 C304 1.265 . S
C315 O311 1.253 . S
C315 O316 1.227 . S
O316 C315 1.227 . S
N317 Co303 2.140 . S
N317 C320 1.346 . S
N317 C321 1.345 . S
C318 C319 1.387 . S
C318 C322 1.391 . S
C319 C318 1.387 . S
C319 C320 1.369 . S
C319 H328 0.929 . S
C320 N317 1.346 . S
C320 C319 1.369 . S
C320 H323 0.928 . S
C321 N317 1.345 . S
C321 C322 1.371 . S
C321 H324 0.931 . S
C322 C318 1.391 . S
C322 C321 1.371 . S
C322 H329 0.961 . S
H323 C320 0.928 . S
H324 C321 0.931 . S
H325 C301 0.930 . S
H326 C298 0.930 . S
H327 C307 0.930 . S
H328 C319 0.929 . S
H329 C322 0.961 . S
C330 C331 1.351 . S
C330 N333 1.368 . S
C330 H335 0.931 . S
C331 C330 1.351 . S
C331 N332 1.373 . S
C331 H359 0.930 . S
N332 C331 1.373 . S
N332 C334 1.340 . S
N333 C330 1.368 . S
N333 C334 1.321 . S
N333 Co336 2.135 . S
C334 N332 1.340 . S
C334 N333 1.321 . S
C334 H358 0.930 . S
H335 C330 0.931 . S
Co336 N333 2.135 . S
Co336 N339 2.121 . S
Co336 O344 2.055 . S
Co336 O347 2.039 . S
Co336 N350 2.140 . S
C337 O338 1.227 . S
C337 O347 1.265 . S
O338 C337 1.227 . S
N339 Co336 2.121 . S
N339 C341 1.375 . S
N339 C342 1.313 . S
C340 C341 1.338 . S
C340 N343 1.377 . S
C340 H360 0.930 . S
C341 N339 1.375 . S
C341 C340 1.338 . S
C341 H345 0.931 . S
C342 N339 1.313 . S
C342 N343 1.344 . S
C342 H346 0.930 . S
N343 C340 1.377 . S
N343 C342 1.344 . S
O344 Co336 2.055 . S
O344 C348 1.253 . S
H345 C341 0.931 . S
H346 C342 0.930 . S
O347 Co336 2.039 . S
O347 C337 1.265 . S
C348 O344 1.253 . S
C348 O349 1.227 . S
O349 C348 1.227 . S
N350 Co336 2.140 . S
N350 C353 1.346 . S
N350 C354 1.345 . S
C351 C352 1.387 . S
C351 C355 1.391 . S
C352 C351 1.387 . S
C352 C353 1.369 . S
C352 H361 0.929 . S
C353 N350 1.346 . S
C353 C352 1.369 . S
C353 H356 0.928 . S
C354 N350 1.345 . S
C354 C355 1.371 . S
C354 H357 0.931 . S
C355 C351 1.391 . S
C355 C354 1.371 . S
C355 H362 0.930 . S
H356 C353 0.928 . S
H357 C354 0.931 . S
H358 C334 0.930 . S
H359 C331 0.930 . S
H360 C340 0.930 . S
H361 C352 0.929 . S
H362 C355 0.930 . S
C363 C364 1.351 . S
C363 N366 1.368 . S
C363 H368 0.931 . S
C364 C363 1.351 . S
C364 N365 1.373 . S
C364 H392 0.930 . S
N365 C364 1.373 . S
N365 C367 1.340 . S
N366 C363 1.368 . S
N366 C367 1.321 . S
N366 Co369 2.135 . S
C367 N365 1.340 . S
C367 N366 1.321 . S
C367 H391 0.930 . S
H368 C363 0.931 . S
Co369 N366 2.135 . S
Co369 N372 2.121 . S
Co369 O377 2.055 . S
Co369 O380 2.039 . S
Co369 N383 2.140 . S
C370 O371 1.227 . S
C370 O380 1.265 . S
O371 C370 1.227 . S
N372 Co369 2.121 . S
N372 C374 1.375 . S
N372 C375 1.313 . S
C373 C374 1.338 . S
C373 N376 1.377 . S
C373 H393 0.930 . S
C374 N372 1.375 . S
C374 C373 1.338 . S
C374 H378 0.931 . S
C375 N372 1.313 . S
C375 N376 1.344 . S
C375 H379 0.930 . S
N376 C373 1.377 . S
N376 C375 1.344 . S
O377 Co369 2.055 . S
O377 C381 1.253 . S
H378 C374 0.931 . S
H379 C375 0.930 . S
O380 Co369 2.039 . S
O380 C370 1.265 . S
C381 O377 1.253 . S
C381 O382 1.227 . S
O382 C381 1.227 . S
N383 Co369 2.140 . S
N383 C386 1.346 . S
N383 C387 1.345 . S
C384 C385 1.387 . S
C384 C388 1.391 . S
C385 C384 1.387 . S
C385 C386 1.369 . S
C385 H394 0.929 . S
C386 N383 1.346 . S
C386 C385 1.369 . S
C386 H389 0.928 . S
C387 N383 1.345 . S
C387 C388 1.371 . S
C387 H390 0.931 . S
C388 C384 1.391 . S
C388 C387 1.371 . S
C388 H395 0.961 . S
H389 C386 0.928 . S
H390 C387 0.931 . S
H391 C367 0.930 . S
H392 C364 0.930 . S
H393 C373 0.930 . S
H394 C385 0.929 . S
H395 C388 0.961 . S
C396 C397 1.351 . S
C396 N399 1.368 . S
C396 H401 0.931 . S
C397 C396 1.351 . S
C397 N398 1.373 . S
C397 H425 0.930 . S
N398 C397 1.373 . S
N398 C400 1.340 . S
N399 C396 1.368 . S
N399 C400 1.321 . S
N399 Co402 2.135 . S
C400 N398 1.340 . S
C400 N399 1.321 . S
C400 H424 0.930 . S
H401 C396 0.931 . S
Co402 N399 2.135 . S
Co402 N405 2.121 . S
Co402 O410 2.055 . S
Co402 O413 2.039 . S
Co402 N416 2.140 . S
C403 O404 1.227 . S
C403 O413 1.265 . S
O404 C403 1.227 . S
N405 Co402 2.121 . S
N405 C407 1.375 . S
N405 C408 1.313 . S
C406 C407 1.338 . S
C406 N409 1.377 . S
C406 H426 0.930 . S
C407 N405 1.375 . S
C407 C406 1.338 . S
C407 H411 0.931 . S
C408 N405 1.313 . S
C408 N409 1.344 . S
C408 H412 0.930 . S
N409 C406 1.377 . S
N409 C408 1.344 . S
O410 Co402 2.055 . S
O410 C414 1.253 . S
H411 C407 0.931 . S
H412 C408 0.930 . S
O413 Co402 2.039 . S
O413 C403 1.265 . S
C414 O410 1.253 . S
C414 O415 1.227 . S
O415 C414 1.227 . S
N416 Co402 2.140 . S
N416 C419 1.346 . S
N416 C420 1.345 . S
C417 C418 1.387 . S
C417 C421 1.391 . S
C418 C417 1.387 . S
C418 C419 1.369 . S
C418 H427 0.929 . S
C419 N416 1.346 . S
C419 C418 1.369 . S
C419 H422 0.928 . S
C420 N416 1.345 . S
C420 C421 1.371 . S
C420 H423 0.931 . S
C421 C417 1.391 . S
C421 C420 1.371 . S
C421 H428 0.930 . S
H422 C419 0.928 . S
H423 C420 0.931 . S
H424 C400 0.930 . S
H425 C397 0.930 . S
H426 C406 0.930 . S
H427 C418 0.929 . S
H428 C421 0.930 . S
C429 C430 1.351 . S
C429 N432 1.368 . S
C429 H434 0.931 . S
C430 C429 1.351 . S
C430 N431 1.373 . S
C430 H458 0.930 . S
N431 C430 1.373 . S
N431 C433 1.340 . S
N432 C429 1.368 . S
N432 C433 1.321 . S
N432 Co435 2.135 . S
C433 N431 1.340 . S
C433 N432 1.321 . S
C433 H457 0.930 . S
H434 C429 0.931 . S
Co435 N432 2.135 . S
Co435 N438 2.121 . S
Co435 O443 2.055 . S
Co435 O446 2.039 . S
Co435 N449 2.140 . S
C436 O437 1.227 . S
C436 O446 1.265 . S
O437 C436 1.227 . S
N438 Co435 2.121 . S
N438 C440 1.375 . S
N438 C441 1.313 . S
C439 C440 1.338 . S
C439 N442 1.377 . S
C439 H459 0.930 . S
C440 N438 1.375 . S
C440 C439 1.338 . S
C440 H444 0.931 . S
C441 N438 1.313 . S
C441 N442 1.344 . S
C441 H445 0.930 . S
N442 C439 1.377 . S
N442 C441 1.344 . S
O443 Co435 2.055 . S
O443 C447 1.253 . S
H444 C440 0.931 . S
H445 C441 0.930 . S
O446 Co435 2.039 . S
O446 C436 1.265 . S
C447 O443 1.253 . S
C447 O448 1.227 . S
O448 C447 1.227 . S
N449 Co435 2.140 . S
N449 C452 1.346 . S
N449 C453 1.345 . S
C450 C451 1.387 . S
C450 C454 1.391 . S
C451 C450 1.387 . S
C451 C452 1.369 . S
C451 H460 0.929 . S
C452 N449 1.346 . S
C452 C451 1.369 . S
C452 H455 0.928 . S
C453 N449 1.345 . S
C453 C454 1.371 . S
C453 H456 0.931 . S
C454 C450 1.391 . S
C454 C453 1.371 . S
C454 H461 0.961 . S
H455 C452 0.928 . S
H456 C453 0.931 . S
H457 C433 0.930 . S
H458 C430 0.930 . S
H459 C439 0.930 . S
H460 C451 0.929 . S
H461 C454 0.961 . S
C462 C463 1.351 . S
C462 N465 1.368 . S
C462 H467 0.931 . S
C463 C462 1.351 . S
C463 N464 1.373 . S
C463 H491 0.930 . S
N464 C463 1.373 . S
N464 C466 1.340 . S
N465 C462 1.368 . S
N465 C466 1.321 . S
N465 Co468 2.135 . S
C466 N464 1.340 . S
C466 N465 1.321 . S
C466 H490 0.930 . S
H467 C462 0.931 . S
Co468 N465 2.135 . S
Co468 N471 2.121 . S
Co468 O476 2.055 . S
Co468 O479 2.039 . S
Co468 N482 2.140 . S
C469 O470 1.227 . S
C469 O479 1.265 . S
O470 C469 1.227 . S
N471 Co468 2.121 . S
N471 C473 1.375 . S
N471 C474 1.313 . S
C472 C473 1.338 . S
C472 N475 1.377 . S
C472 H492 0.930 . S
C473 N471 1.375 . S
C473 C472 1.338 . S
C473 H477 0.931 . S
C474 N471 1.313 . S
C474 N475 1.344 . S
C474 H478 0.930 . S
N475 C472 1.377 . S
N475 C474 1.344 . S
O476 Co468 2.055 . S
O476 C480 1.253 . S
H477 C473 0.931 . S
H478 C474 0.930 . S
O479 Co468 2.039 . S
O479 C469 1.265 . S
C480 O476 1.253 . S
C480 O481 1.227 . S
O481 C480 1.227 . S
N482 Co468 2.140 . S
N482 C485 1.346 . S
N482 C486 1.345 . S
C483 C484 1.387 . S
C483 C487 1.391 . S
C484 C483 1.387 . S
C484 C485 1.369 . S
C484 H493 0.929 . S
C485 N482 1.346 . S
C485 C484 1.369 . S
C485 H488 0.928 . S
C486 N482 1.345 . S
C486 C487 1.371 . S
C486 H489 0.931 . S
C487 C483 1.391 . S
C487 C486 1.371 . S
C487 H494 0.930 . S
H488 C485 0.928 . S
H489 C486 0.931 . S
H490 C466 0.930 . S
H491 C463 0.930 . S
H492 C472 0.930 . S
H493 C484 0.929 . S
H494 C487 0.930 . S
C495 C496 1.351 . S
C495 N498 1.368 . S
C495 H500 0.931 . S
C496 C495 1.351 . S
C496 N497 1.373 . S
C496 H524 0.930 . S
N497 C496 1.373 . S
N497 C499 1.340 . S
N498 C495 1.368 . S
N498 C499 1.321 . S
N498 Co501 2.135 . S
C499 N497 1.340 . S
C499 N498 1.321 . S
C499 H523 0.930 . S
H500 C495 0.931 . S
Co501 N498 2.135 . S
Co501 N504 2.121 . S
Co501 O509 2.055 . S
Co501 O512 2.039 . S
Co501 N515 2.140 . S
C502 O503 1.227 . S
C502 O512 1.265 . S
O503 C502 1.227 . S
N504 Co501 2.121 . S
N504 C506 1.375 . S
N504 C507 1.313 . S
C505 C506 1.338 . S
C505 N508 1.377 . S
C505 H525 0.930 . S
C506 N504 1.375 . S
C506 C505 1.338 . S
C506 H510 0.931 . S
C507 N504 1.313 . S
C507 N508 1.344 . S
C507 H511 0.930 . S
N508 C505 1.377 . S
N508 C507 1.344 . S
O509 Co501 2.055 . S
O509 C513 1.253 . S
H510 C506 0.931 . S
H511 C507 0.930 . S
O512 Co501 2.039 . S
O512 C502 1.265 . S
C513 O509 1.253 . S
C513 O514 1.227 . S
O514 C513 1.227 . S
N515 Co501 2.140 . S
N515 C518 1.346 . S
N515 C519 1.345 . S
C516 C517 1.387 . S
C516 C520 1.391 . S
C517 C516 1.387 . S
C517 C518 1.369 . S
C517 H526 0.929 . S
C518 N515 1.346 . S
C518 C517 1.369 . S
C518 H521 0.928 . S
C519 N515 1.345 . S
C519 C520 1.371 . S
C519 H522 0.931 . S
C520 C516 1.391 . S
C520 C519 1.371 . S
C520 H527 0.961 . S
H521 C518 0.928 . S
H522 C519 0.931 . S
H523 C499 0.930 . S
H524 C496 0.930 . S
H525 C505 0.930 . S
H526 C517 0.929 . S
H527 C520 0.961 . S
C528 C529 1.351 . S
C528 N531 1.368 . S
C528 H533 0.931 . S
C529 C528 1.351 . S
C529 N530 1.373 . S
C529 H557 0.930 . S
N530 C529 1.373 . S
N530 C532 1.340 . S
N531 C528 1.368 . S
N531 C532 1.321 . S
N531 Co534 2.135 . S
C532 N530 1.340 . S
C532 N531 1.321 . S
C532 H556 0.930 . S
H533 C528 0.931 . S
Co534 N531 2.135 . S
Co534 N537 2.121 . S
Co534 O542 2.055 . S
Co534 O545 2.039 . S
Co534 N548 2.140 . S
C535 O536 1.227 . S
C535 O545 1.265 . S
O536 C535 1.227 . S
N537 Co534 2.121 . S
N537 C539 1.375 . S
N537 C540 1.313 . S
C538 C539 1.338 . S
C538 N541 1.377 . S
C538 H558 0.930 . S
C539 N537 1.375 . S
C539 C538 1.338 . S
C539 H543 0.931 . S
C540 N537 1.313 . S
C540 N541 1.344 . S
C540 H544 0.930 . S
N541 C538 1.377 . S
N541 C540 1.344 . S
O542 Co534 2.055 . S
O542 C546 1.253 . S
H543 C539 0.931 . S
H544 C540 0.930 . S
O545 Co534 2.039 . S
O545 C535 1.265 . S
C546 O542 1.253 . S
C546 O547 1.227 . S
O547 C546 1.227 . S
N548 Co534 2.140 . S
N548 C551 1.346 . S
N548 C552 1.345 . S
C549 C550 1.387 . S
C549 C553 1.391 . S
C550 C549 1.387 . S
C550 C551 1.369 . S
C550 H559 0.929 . S
C551 N548 1.346 . S
C551 C550 1.369 . S
C551 H554 0.928 . S
C552 N548 1.345 . S
C552 C553 1.371 . S
C552 H555 0.931 . S
C553 C549 1.391 . S
C553 C552 1.371 . S
C553 H560 0.930 . S
H554 C551 0.928 . S
H555 C552 0.931 . S
H556 C532 0.930 . S
H557 C529 0.930 . S
H558 C538 0.930 . S
H559 C550 0.929 . S
H560 C553 0.930 . S
C561 C562 1.351 . S
C561 N564 1.368 . S
C561 H566 0.931 . S
C562 C561 1.351 . S
C562 N563 1.373 . S
C562 H590 0.930 . S
N563 C562 1.373 . S
N563 C565 1.340 . S
N564 C561 1.368 . S
N564 C565 1.321 . S
N564 Co567 2.135 . S
C565 N563 1.340 . S
C565 N564 1.321 . S
C565 H589 0.930 . S
H566 C561 0.931 . S
Co567 N564 2.135 . S
Co567 N570 2.121 1_565 S
Co567 O575 2.055 1_565 S
Co567 O578 2.039 . S
Co567 N581 2.140 . S
C568 O569 1.227 . S
C568 O578 1.265 . S
O569 C568 1.227 . S
N570 Co567 2.121 1_545 S
N570 C572 1.374 1_545 S
N570 C573 1.313 . S
C571 C572 1.333 1_545 S
C571 N574 1.377 . S
C571 H591 0.930 . S
C572 N570 1.374 1_565 S
C572 C571 1.333 1_565 S
C572 H576 0.936 . S
C573 N570 1.313 . S
C573 N574 1.344 . S
C573 H577 0.930 . S
N574 C571 1.377 . S
N574 C573 1.344 . S
O575 Co567 2.055 1_545 S
O575 C579 1.253 . S
H576 C572 0.936 . S
H577 C573 0.930 . S
O578 Co567 2.039 . S
O578 C568 1.265 . S
C579 O575 1.253 . S
C579 O580 1.227 . S
O580 C579 1.227 . S
N581 Co567 2.140 . S
N581 C584 1.346 . S
N581 C585 1.345 . S
C582 C583 1.387 . S
C582 C586 1.391 . S
C583 C582 1.387 . S
C583 C584 1.369 . S
C583 H592 0.929 . S
C584 N581 1.346 . S
C584 C583 1.369 . S
C584 H587 0.928 . S
C585 N581 1.345 . S
C585 C586 1.371 . S
C585 H588 0.931 . S
C586 C582 1.391 . S
C586 C585 1.371 . S
C586 H593 0.930 . S
H587 C584 0.928 . S
H588 C585 0.931 . S
H589 C565 0.930 . S
H590 C562 0.930 . S
H591 C571 0.930 . S
H592 C583 0.929 . S
H593 C586 0.930 . S
C594 C595 1.351 . S
C594 N597 1.368 . S
C594 H599 0.931 . S
C595 C594 1.351 . S
C595 N596 1.373 . S
C595 H623 0.930 . S
N596 C595 1.373 . S
N596 C598 1.340 . S
N597 C594 1.368 . S
N597 C598 1.321 . S
N597 Co600 2.135 . S
C598 N596 1.340 . S
C598 N597 1.321 . S
C598 H622 0.930 . S
H599 C594 0.931 . S
Co600 N597 2.135 . S
Co600 N603 2.121 1_565 S
Co600 O608 2.055 1_565 S
Co600 O611 2.039 . S
Co600 N614 2.140 . S
C601 O602 1.227 . S
C601 O611 1.265 . S
O602 C601 1.227 . S
N603 Co600 2.121 1_545 S
N603 C605 1.374 1_545 S
N603 C606 1.313 . S
C604 C605 1.333 1_545 S
C604 N607 1.377 . S
C604 H624 0.930 . S
C605 N603 1.374 1_565 S
C605 C604 1.333 1_565 S
C605 H609 0.936 . S
C606 N603 1.313 . S
C606 N607 1.344 . S
C606 H610 0.930 . S
N607 C604 1.377 . S
N607 C606 1.344 . S
O608 Co600 2.055 1_545 S
O608 C612 1.253 . S
H609 C605 0.936 . S
H610 C606 0.930 . S
O611 Co600 2.039 . S
O611 C601 1.265 . S
C612 O608 1.253 . S
C612 O613 1.227 . S
O613 C612 1.227 . S
N614 Co600 2.140 . S
N614 C617 1.346 . S
N614 C618 1.345 . S
C615 C616 1.387 . S
C615 C619 1.391 . S
C616 C615 1.387 . S
C616 C617 1.369 . S
C616 H625 0.929 . S
C617 N614 1.346 . S
C617 C616 1.369 . S
C617 H620 0.928 . S
C618 N614 1.345 . S
C618 C619 1.371 . S
C618 H621 0.931 . S
C619 C615 1.391 . S
C619 C618 1.371 . S
C619 H626 0.930 . S
H620 C617 0.928 . S
H621 C618 0.931 . S
H622 C598 0.930 . S
H623 C595 0.930 . S
H624 C604 0.930 . S
H625 C616 0.929 . S
H626 C619 0.930 . S
C627 C628 1.351 . S
C627 N630 1.368 . S
C627 H632 0.931 . S
C628 C627 1.351 . S
C628 N629 1.373 . S
C628 H656 0.930 . S
N629 C628 1.373 . S
N629 C631 1.340 . S
N630 C627 1.368 . S
N630 C631 1.321 . S
N630 Co633 2.135 . S
C631 N629 1.340 . S
C631 N630 1.321 . S
C631 H655 0.930 . S
H632 C627 0.931 . S
Co633 N630 2.135 . S
Co633 N636 2.121 . S
Co633 O641 2.055 . S
Co633 O644 2.039 . S
Co633 N647 2.140 . S
C634 O635 1.227 . S
C634 O644 1.265 . S
O635 C634 1.227 . S
N636 Co633 2.121 . S
N636 C638 1.375 . S
N636 C639 1.313 . S
C637 C638 1.338 . S
C637 N640 1.377 . S
C637 H657 0.930 . S
C638 N636 1.375 . S
C638 C637 1.338 . S
C638 H642 0.931 . S
C639 N636 1.313 . S
C639 N640 1.344 . S
C639 H643 0.930 . S
N640 C637 1.377 . S
N640 C639 1.344 . S
O641 Co633 2.055 . S
O641 C645 1.253 . S
H642 C638 0.931 . S
H643 C639 0.930 . S
O644 Co633 2.039 . S
O644 C634 1.265 . S
C645 O641 1.253 . S
C645 O646 1.227 . S
O646 C645 1.227 . S
N647 Co633 2.140 . S
N647 C650 1.346 . S
N647 C651 1.345 . S
C648 C649 1.387 . S
C648 C652 1.391 . S
C649 C648 1.387 . S
C649 C650 1.369 . S
C649 H658 0.929 . S
C650 N647 1.346 . S
C650 C649 1.369 . S
C650 H653 0.928 . S
C651 N647 1.345 . S
C651 C652 1.371 . S
C651 H654 0.931 . S
C652 C648 1.391 . S
C652 C651 1.371 . S
C652 H659 0.930 . S
H653 C650 0.928 . S
H654 C651 0.931 . S
H655 C631 0.930 . S
H656 C628 0.930 . S
H657 C637 0.930 . S
H658 C649 0.929 . S
H659 C652 0.930 . S
C660 C661 1.351 . S
C660 N663 1.368 . S
C660 H665 0.931 . S
C661 C660 1.351 . S
C661 N662 1.373 . S
C661 H689 0.930 . S
N662 C661 1.373 . S
N662 C664 1.340 . S
N663 C660 1.368 . S
N663 C664 1.321 . S
N663 Co666 2.135 . S
C664 N662 1.340 . S
C664 N663 1.321 . S
C664 H688 0.930 . S
H665 C660 0.931 . S
Co666 N663 2.135 . S
Co666 N669 2.121 . S
Co666 O674 2.055 . S
Co666 O677 2.039 . S
Co666 N680 2.140 . S
C667 O668 1.227 . S
C667 O677 1.265 . S
O668 C667 1.227 . S
N669 Co666 2.121 . S
N669 C671 1.375 . S
N669 C672 1.313 . S
C670 C671 1.338 . S
C670 N673 1.377 . S
C670 H690 0.930 . S
C671 N669 1.375 . S
C671 C670 1.338 . S
C671 H675 0.931 . S
C672 N669 1.313 . S
C672 N673 1.344 . S
C672 H676 0.930 . S
N673 C670 1.377 . S
N673 C672 1.344 . S
O674 Co666 2.055 . S
O674 C678 1.253 . S
H675 C671 0.931 . S
H676 C672 0.930 . S
O677 Co666 2.039 . S
O677 C667 1.265 . S
C678 O674 1.253 . S
C678 O679 1.227 . S
O679 C678 1.227 . S
N680 Co666 2.140 . S
N680 C683 1.346 . S
N680 C684 1.345 . S
C681 C682 1.387 . S
C681 C685 1.391 . S
C682 C681 1.387 . S
C682 C683 1.369 . S
C682 H691 0.929 . S
C683 N680 1.346 . S
C683 C682 1.369 . S
C683 H686 0.928 . S
C684 N680 1.345 . S
C684 C685 1.371 . S
C684 H687 0.931 . S
C685 C681 1.391 . S
C685 C684 1.371 . S
C685 H692 0.930 . S
H686 C683 0.928 . S
H687 C684 0.931 . S
H688 C664 0.930 . S
H689 C661 0.930 . S
H690 C670 0.930 . S
H691 C682 0.929 . S
H692 C685 0.930 . S
C693 C694 1.351 . S
C693 N696 1.368 . S
C693 H698 0.931 . S
C694 C693 1.351 . S
C694 N695 1.373 . S
C694 H722 0.930 . S
N695 C694 1.373 . S
N695 C697 1.340 . S
N696 C693 1.368 . S
N696 C697 1.321 . S
N696 Co699 2.135 . S
C697 N695 1.340 . S
C697 N696 1.321 . S
C697 H721 0.930 . S
H698 C693 0.931 . S
Co699 N696 2.135 . S
Co699 N702 2.121 1_545 S
Co699 O707 2.055 1_545 S
Co699 O710 2.039 . S
Co699 N713 2.140 . S
C700 O701 1.227 . S
C700 O710 1.265 . S
O701 C700 1.227 . S
N702 Co699 2.121 1_565 S
N702 C704 1.374 1_565 S
N702 C705 1.313 . S
C703 C704 1.333 1_565 S
C703 N706 1.377 . S
C703 H723 0.930 . S
C704 N702 1.374 1_545 S
C704 C703 1.333 1_545 S
C704 H708 0.936 . S
C705 N702 1.313 . S
C705 N706 1.344 . S
C705 H709 0.930 . S
N706 C703 1.377 . S
N706 C705 1.344 . S
O707 Co699 2.055 1_565 S
O707 C711 1.253 . S
H708 C704 0.936 . S
H709 C705 0.930 . S
O710 Co699 2.039 . S
O710 C700 1.265 . S
C711 O707 1.253 . S
C711 O712 1.227 . S
O712 C711 1.227 . S
N713 Co699 2.140 . S
N713 C716 1.346 . S
N713 C717 1.345 . S
C714 C715 1.387 . S
C714 C718 1.391 . S
C715 C714 1.387 . S
C715 C716 1.369 . S
C715 H724 0.929 . S
C716 N713 1.346 . S
C716 C715 1.369 . S
C716 H719 0.928 . S
C717 N713 1.345 . S
C717 C718 1.371 . S
C717 H720 0.931 . S
C718 C714 1.391 . S
C718 C717 1.371 . S
C718 H725 0.930 . S
H719 C716 0.928 . S
H720 C717 0.931 . S
H721 C697 0.930 . S
H722 C694 0.930 . S
H723 C703 0.930 . S
H724 C715 0.929 . S
H725 C718 0.930 . S
C726 C727 1.351 . S
C726 N729 1.368 . S
C726 H731 0.931 . S
C727 C726 1.351 . S
C727 N728 1.373 . S
C727 H755 0.930 . S
N728 C727 1.373 . S
N728 C730 1.340 . S
N729 C726 1.368 . S
N729 C730 1.321 . S
N729 Co732 2.135 . S
C730 N728 1.340 . S
C730 N729 1.321 . S
C730 H754 0.930 . S
H731 C726 0.931 . S
Co732 N729 2.135 . S
Co732 N735 2.121 1_545 S
Co732 O740 2.055 1_545 S
Co732 O743 2.039 . S
Co732 N746 2.140 . S
C733 O734 1.227 . S
C733 O743 1.265 . S
O734 C733 1.227 . S
N735 Co732 2.121 1_565 S
N735 C737 1.374 1_565 S
N735 C738 1.313 . S
C736 C737 1.333 1_565 S
C736 N739 1.377 . S
C736 H756 0.930 . S
C737 N735 1.374 1_545 S
C737 C736 1.333 1_545 S
C737 H741 0.936 . S
C738 N735 1.313 . S
C738 N739 1.344 . S
C738 H742 0.930 . S
N739 C736 1.377 . S
N739 C738 1.344 . S
O740 Co732 2.055 1_565 S
O740 C744 1.253 . S
H741 C737 0.936 . S
H742 C738 0.930 . S
O743 Co732 2.039 . S
O743 C733 1.265 . S
C744 O740 1.253 . S
C744 O745 1.227 . S
O745 C744 1.227 . S
N746 Co732 2.140 . S
N746 C749 1.346 . S
N746 C750 1.345 . S
C747 C748 1.387 . S
C747 C751 1.391 . S
C748 C747 1.387 . S
C748 C749 1.369 . S
C748 H757 0.929 . S
C749 N746 1.346 . S
C749 C748 1.369 . S
C749 H752 0.928 . S
C750 N746 1.345 . S
C750 C751 1.371 . S
C750 H753 0.931 . S
C751 C747 1.391 . S
C751 C750 1.371 . S
C751 H758 0.930 . S
H752 C749 0.928 . S
H753 C750 0.931 . S
H754 C730 0.930 . S
H755 C727 0.930 . S
H756 C736 0.930 . S
H757 C748 0.929 . S
H758 C751 0.930 . S
C759 C760 1.351 . S
C759 N762 1.368 . S
C759 H764 0.931 . S
C760 C759 1.351 . S
C760 N761 1.373 . S
C760 H788 0.930 . S
N761 C760 1.373 . S
N761 C763 1.340 . S
N762 C759 1.368 . S
N762 C763 1.321 . S
N762 Co765 2.135 . S
C763 N761 1.340 . S
C763 N762 1.321 . S
C763 H787 0.930 . S
H764 C759 0.931 . S
Co765 N762 2.135 . S
Co765 N768 2.121 . S
Co765 O773 2.055 . S
Co765 O776 2.039 . S
Co765 N779 2.140 . S
C766 O767 1.227 . S
C766 O776 1.265 . S
O767 C766 1.227 . S
N768 Co765 2.121 . S
N768 C770 1.375 . S
N768 C771 1.313 . S
C769 C770 1.338 . S
C769 N772 1.377 . S
C769 H789 0.930 . S
C770 N768 1.375 . S
C770 C769 1.338 . S
C770 H774 0.931 . S
C771 N768 1.313 . S
C771 N772 1.344 . S
C771 H775 0.930 . S
N772 C769 1.377 . S
N772 C771 1.344 . S
O773 Co765 2.055 . S
O773 C777 1.253 . S
H774 C770 0.931 . S
H775 C771 0.930 . S
O776 Co765 2.039 . S
O776 C766 1.265 . S
C777 O773 1.253 . S
C777 O778 1.227 . S
O778 C777 1.227 . S
N779 Co765 2.140 . S
N779 C782 1.346 . S
N779 C783 1.345 . S
C780 C781 1.387 . S
C780 C784 1.391 . S
C781 C780 1.387 . S
C781 C782 1.369 . S
C781 H790 0.929 . S
C782 N779 1.346 . S
C782 C781 1.369 . S
C782 H785 0.928 . S
C783 N779 1.345 . S
C783 C784 1.371 . S
C783 H786 0.931 . S
C784 C780 1.391 . S
C784 C783 1.371 . S
C784 H791 0.930 . S
H785 C782 0.928 . S
H786 C783 0.931 . S
H787 C763 0.930 . S
H788 C760 0.930 . S
H789 C769 0.930 . S
H790 C781 0.929 . S
H791 C784 0.930 . S
C792 C793 1.351 . S
C792 N795 1.368 . S
C792 H797 0.931 . S
C793 C792 1.351 . S
C793 N794 1.373 . S
C793 H821 0.930 . S
N794 C793 1.373 . S
N794 C796 1.340 . S
N795 C792 1.368 . S
N795 C796 1.321 . S
N795 Co798 2.135 . S
C796 N794 1.340 . S
C796 N795 1.321 . S
C796 H820 0.930 . S
H797 C792 0.931 . S
Co798 N795 2.135 . S
Co798 N801 2.121 . S
Co798 O806 2.055 . S
Co798 O809 2.039 . S
Co798 N812 2.140 . S
C799 O800 1.227 . S
C799 O809 1.265 . S
O800 C799 1.227 . S
N801 Co798 2.121 . S
N801 C803 1.375 . S
N801 C804 1.313 . S
C802 C803 1.338 . S
C802 N805 1.377 . S
C802 H822 0.930 . S
C803 N801 1.375 . S
C803 C802 1.338 . S
C803 H807 0.931 . S
C804 N801 1.313 . S
C804 N805 1.344 . S
C804 H808 0.930 . S
N805 C802 1.377 . S
N805 C804 1.344 . S
O806 Co798 2.055 . S
O806 C810 1.253 . S
H807 C803 0.931 . S
H808 C804 0.930 . S
O809 Co798 2.039 . S
O809 C799 1.265 . S
C810 O806 1.253 . S
C810 O811 1.227 . S
O811 C810 1.227 . S
N812 Co798 2.140 . S
N812 C815 1.346 . S
N812 C816 1.345 . S
C813 C814 1.387 . S
C813 C817 1.391 . S
C814 C813 1.387 . S
C814 C815 1.369 . S
C814 H823 0.929 . S
C815 N812 1.346 . S
C815 C814 1.369 . S
C815 H818 0.928 . S
C816 N812 1.345 . S
C816 C817 1.371 . S
C816 H819 0.931 . S
C817 C813 1.391 . S
C817 C816 1.371 . S
C817 H824 0.930 . S
H818 C815 0.928 . S
H819 C816 0.931 . S
H820 C796 0.930 . S
H821 C793 0.930 . S
H822 C802 0.930 . S
H823 C814 0.929 . S
H824 C817 0.930 . S
C825 C826 1.351 . S
C825 N828 1.368 . S
C825 H830 0.931 . S
C826 C825 1.351 . S
C826 N827 1.373 . S
C826 H854 0.930 . S
N827 C826 1.373 . S
N827 C829 1.340 . S
N828 C825 1.368 . S
N828 C829 1.321 . S
N828 Co831 2.135 . S
C829 N827 1.340 . S
C829 N828 1.321 . S
C829 H853 0.930 . S
H830 C825 0.931 . S
Co831 N828 2.135 . S
Co831 N834 2.121 . S
Co831 O839 2.055 . S
Co831 O842 2.039 . S
Co831 N845 2.140 . S
C832 O833 1.227 . S
C832 O842 1.265 . S
O833 C832 1.227 . S
N834 Co831 2.121 . S
N834 C836 1.375 . S
N834 C837 1.313 . S
C835 C836 1.338 . S
C835 N838 1.377 . S
C835 H855 0.930 . S
C836 N834 1.375 . S
C836 C835 1.338 . S
C836 H840 0.931 . S
C837 N834 1.313 . S
C837 N838 1.344 . S
C837 H841 0.930 . S
N838 C835 1.377 . S
N838 C837 1.344 . S
O839 Co831 2.055 . S
O839 C843 1.253 . S
H840 C836 0.931 . S
H841 C837 0.930 . S
O842 Co831 2.039 . S
O842 C832 1.265 . S
C843 O839 1.253 . S
C843 O844 1.227 . S
O844 C843 1.227 . S
N845 Co831 2.140 . S
N845 C848 1.346 . S
N845 C849 1.345 . S
C846 C847 1.387 . S
C846 C850 1.391 . S
C847 C846 1.387 . S
C847 C848 1.369 . S
C847 H856 0.929 . S
C848 N845 1.346 . S
C848 C847 1.369 . S
C848 H851 0.928 . S
C849 N845 1.345 . S
C849 C850 1.371 . S
C849 H852 0.931 . S
C850 C846 1.391 . S
C850 C849 1.371 . S
C850 H857 0.930 . S
H851 C848 0.928 . S
H852 C849 0.931 . S
H853 C829 0.930 . S
H854 C826 0.930 . S
H855 C835 0.930 . S
H856 C847 0.929 . S
H857 C850 0.930 . S
C858 C859 1.351 . S
C858 N861 1.368 . S
C858 H863 0.931 . S
C859 C858 1.351 . S
C859 N860 1.373 . S
C859 H887 0.930 . S
N860 C859 1.373 . S
N860 C862 1.340 . S
N861 C858 1.368 . S
N861 C862 1.321 . S
N861 Co864 2.135 1_556 S
C862 N860 1.340 . S
C862 N861 1.321 . S
C862 H886 0.930 . S
H863 C858 0.931 . S
Co864 N861 2.135 1_554 S
Co864 N867 2.121 . S
Co864 O872 2.055 1_554 S
Co864 O875 2.039 . S
Co864 N878 2.140 . S
C865 O866 1.227 . S
C865 O875 1.265 . S
O866 C865 1.227 . S
N867 Co864 2.121 . S
N867 C869 1.375 . S
N867 C870 1.313 . S
C868 C869 1.338 . S
C868 N871 1.377 . S
C868 H888 0.930 . S
C869 N867 1.375 . S
C869 C868 1.338 . S
C869 H873 0.931 . S
C870 N867 1.313 . S
C870 N871 1.344 . S
C870 H874 0.930 . S
N871 C868 1.377 . S
N871 C870 1.344 . S
O872 Co864 2.055 1_556 S
O872 C876 1.253 . S
H873 C869 0.931 . S
H874 C870 0.930 . S
O875 Co864 2.039 . S
O875 C865 1.265 . S
C876 O872 1.253 . S
C876 O877 1.227 1_556 S
O877 C876 1.227 1_554 S
N878 Co864 2.140 . S
N878 C881 1.346 . S
N878 C882 1.345 . S
C879 C880 1.387 . S
C879 C883 1.391 . S
C880 C879 1.387 . S
C880 C881 1.369 . S
C880 H889 0.929 . S
C881 N878 1.346 . S
C881 C880 1.369 . S
C881 H884 0.928 . S
C882 N878 1.345 . S
C882 C883 1.371 . S
C882 H885 0.931 . S
C883 C879 1.391 . S
C883 C882 1.371 . S
C883 H890 0.930 . S
H884 C881 0.928 . S
H885 C882 0.931 . S
H886 C862 0.930 . S
H887 C859 0.930 . S
H888 C868 0.930 . S
H889 C880 0.929 . S
H890 C883 0.930 . S
C891 C892 1.351 . S
C891 N894 1.368 . S
C891 H896 0.931 . S
C892 C891 1.351 . S
C892 N893 1.373 . S
C892 H920 0.930 . S
N893 C892 1.373 . S
N893 C895 1.340 . S
N894 C891 1.368 . S
N894 C895 1.321 . S
N894 Co897 2.135 1_556 S
C895 N893 1.340 . S
C895 N894 1.321 . S
C895 H919 0.930 . S
H896 C891 0.931 . S
Co897 N894 2.135 1_554 S
Co897 N900 2.121 . S
Co897 O905 2.055 1_554 S
Co897 O908 2.039 . S
Co897 N911 2.140 . S
C898 O899 1.227 . S
C898 O908 1.265 . S
O899 C898 1.227 . S
N900 Co897 2.121 . S
N900 C902 1.375 . S
N900 C903 1.313 . S
C901 C902 1.338 . S
C901 N904 1.377 . S
C901 H921 0.930 . S
C902 N900 1.375 . S
C902 C901 1.338 . S
C902 H906 0.931 . S
C903 N900 1.313 . S
C903 N904 1.344 . S
C903 H907 0.930 . S
N904 C901 1.377 . S
N904 C903 1.344 . S
O905 Co897 2.055 1_556 S
O905 C909 1.253 . S
H906 C902 0.931 . S
H907 C903 0.930 . S
O908 Co897 2.039 . S
O908 C898 1.265 . S
C909 O905 1.253 . S
C909 O910 1.227 1_556 S
O910 C909 1.227 1_554 S
N911 Co897 2.140 . S
N911 C914 1.346 . S
N911 C915 1.345 . S
C912 C913 1.387 . S
C912 C916 1.391 . S
C913 C912 1.387 . S
C913 C914 1.369 . S
C913 H922 0.929 . S
C914 N911 1.346 . S
C914 C913 1.369 . S
C914 H917 0.928 . S
C915 N911 1.345 . S
C915 C916 1.371 . S
C915 H918 0.931 . S
C916 C912 1.391 . S
C916 C915 1.371 . S
C916 H923 0.930 . S
H917 C914 0.928 . S
H918 C915 0.931 . S
H919 C895 0.930 . S
H920 C892 0.930 . S
H921 C901 0.930 . S
H922 C913 0.929 . S
H923 C916 0.930 . S
C924 C925 1.351 . S
C924 N927 1.368 . S
C924 H929 0.931 . S
C925 C924 1.351 . S
C925 N926 1.373 . S
C925 H953 0.930 . S
N926 C925 1.373 . S
N926 C928 1.340 . S
N927 C924 1.368 . S
N927 C928 1.321 . S
N927 Co930 2.135 . S
C928 N926 1.340 . S
C928 N927 1.321 . S
C928 H952 0.930 . S
H929 C924 0.931 . S
Co930 N927 2.135 . S
Co930 N933 2.121 . S
Co930 O938 2.055 . S
Co930 O941 2.039 . S
Co930 N944 2.140 . S
C931 O932 1.227 . S
C931 O941 1.265 . S
O932 C931 1.227 . S
N933 Co930 2.121 . S
N933 C935 1.375 . S
N933 C936 1.313 . S
C934 C935 1.338 . S
C934 N937 1.377 . S
C934 H954 0.930 . S
C935 N933 1.375 . S
C935 C934 1.338 . S
C935 H939 0.931 . S
C936 N933 1.313 . S
C936 N937 1.344 . S
C936 H940 0.930 . S
N937 C934 1.377 . S
N937 C936 1.344 . S
O938 Co930 2.055 . S
O938 C942 1.253 . S
H939 C935 0.931 . S
H940 C936 0.930 . S
O941 Co930 2.039 . S
O941 C931 1.265 . S
C942 O938 1.253 . S
C942 O943 1.227 . S
O943 C942 1.227 . S
N944 Co930 2.140 . S
N944 C947 1.346 . S
N944 C948 1.345 . S
C945 C946 1.387 . S
C945 C949 1.391 . S
C946 C945 1.387 . S
C946 C947 1.369 . S
C946 H955 0.929 . S
C947 N944 1.346 . S
C947 C946 1.369 . S
C947 H950 0.928 . S
C948 N944 1.345 . S
C948 C949 1.371 . S
C948 H951 0.931 . S
C949 C945 1.391 . S
C949 C948 1.371 . S
C949 H956 0.930 . S
H950 C947 0.928 . S
H951 C948 0.931 . S
H952 C928 0.930 . S
H953 C925 0.930 . S
H954 C934 0.930 . S
H955 C946 0.929 . S
H956 C949 0.930 . S
C957 C958 1.351 . S
C957 N960 1.368 . S
C957 H962 0.931 . S
C958 C957 1.351 . S
C958 N959 1.373 . S
C958 H986 0.930 . S
N959 C958 1.373 . S
N959 C961 1.340 . S
N960 C957 1.368 . S
N960 C961 1.321 . S
N960 Co963 2.135 . S
C961 N959 1.340 . S
C961 N960 1.321 . S
C961 H985 0.930 . S
H962 C957 0.931 . S
Co963 N960 2.135 . S
Co963 N966 2.121 . S
Co963 O971 2.055 . S
Co963 O974 2.039 . S
Co963 N977 2.140 . S
C964 O965 1.227 . S
C964 O974 1.265 . S
O965 C964 1.227 . S
N966 Co963 2.121 . S
N966 C968 1.375 . S
N966 C969 1.313 . S
C967 C968 1.338 . S
C967 N970 1.377 . S
C967 H987 0.930 . S
C968 N966 1.375 . S
C968 C967 1.338 . S
C968 H972 0.931 . S
C969 N966 1.313 . S
C969 N970 1.344 . S
C969 H973 0.930 . S
N970 C967 1.377 . S
N970 C969 1.344 . S
O971 Co963 2.055 . S
O971 C975 1.253 . S
H972 C968 0.931 . S
H973 C969 0.930 . S
O974 Co963 2.039 . S
O974 C964 1.265 . S
C975 O971 1.253 . S
C975 O976 1.227 . S
O976 C975 1.227 . S
N977 Co963 2.140 . S
N977 C980 1.346 . S
N977 C981 1.345 . S
C978 C979 1.387 . S
C978 C982 1.391 . S
C979 C978 1.387 . S
C979 C980 1.369 . S
C979 H988 0.929 . S
C980 N977 1.346 . S
C980 C979 1.369 . S
C980 H983 0.928 . S
C981 N977 1.345 . S
C981 C982 1.371 . S
C981 H984 0.931 . S
C982 C978 1.391 . S
C982 C981 1.371 . S
C982 H989 0.930 . S
H983 C980 0.928 . S
H984 C981 0.931 . S
H985 C961 0.930 . S
H986 C958 0.930 . S
H987 C967 0.930 . S
H988 C979 0.929 . S
H989 C982 0.930 . S
C990 C991 1.351 . S
C990 N993 1.368 . S
C990 H995 0.931 . S
C991 C990 1.351 . S
C991 N992 1.373 . S
C991 H1019 0.930 . S
N992 C991 1.373 . S
N992 C994 1.340 . S
N993 C990 1.368 . S
N993 C994 1.321 . S
N993 Co996 2.135 1_554 S
C994 N992 1.340 . S
C994 N993 1.321 . S
C994 H1018 0.930 . S
H995 C990 0.931 . S
Co996 N993 2.135 1_556 S
Co996 N999 2.121 . S
Co996 O1004 2.055 1_556 S
Co996 O1007 2.039 . S
Co996 N1010 2.140 . S
C997 O998 1.227 . S
C997 O1007 1.265 . S
O998 C997 1.227 . S
N999 Co996 2.121 . S
N999 C1001 1.375 . S
N999 C1002 1.313 . S
C1000 C1001 1.338 . S
C1000 N1003 1.377 . S
C1000 H1020 0.930 . S
C1001 N999 1.375 . S
C1001 C1000 1.338 . S
C1001 H1005 0.931 . S
C1002 N999 1.313 . S
C1002 N1003 1.344 . S
C1002 H1006 0.930 . S
N1003 C1000 1.377 . S
N1003 C1002 1.344 . S
O1004 Co996 2.055 1_554 S
O1004 C1008 1.253 . S
H1005 C1001 0.931 . S
H1006 C1002 0.930 . S
O1007 Co996 2.039 . S
O1007 C997 1.265 . S
C1008 O1004 1.253 . S
C1008 O1009 1.227 1_554 S
O1009 C1008 1.227 1_556 S
N1010 Co996 2.140 . S
N1010 C1013 1.346 . S
N1010 C1014 1.345 . S
C1011 C1012 1.387 . S
C1011 C1015 1.391 . S
C1012 C1011 1.387 . S
C1012 C1013 1.369 . S
C1012 H1021 0.929 . S
C1013 N1010 1.346 . S
C1013 C1012 1.369 . S
C1013 H1016 0.928 . S
C1014 N1010 1.345 . S
C1014 C1015 1.371 . S
C1014 H1017 0.931 . S
C1015 C1011 1.391 . S
C1015 C1014 1.371 . S
C1015 H1022 0.930 . S
H1016 C1013 0.928 . S
H1017 C1014 0.931 . S
H1018 C994 0.930 . S
H1019 C991 0.930 . S
H1020 C1000 0.930 . S
H1021 C1012 0.929 . S
H1022 C1015 0.930 . S
C1023 C1024 1.351 . S
C1023 N1026 1.368 . S
C1023 H1028 0.931 . S
C1024 C1023 1.351 . S
C1024 N1025 1.373 . S
C1024 H1052 0.930 . S
N1025 C1024 1.373 . S
N1025 C1027 1.340 . S
N1026 C1023 1.368 . S
N1026 C1027 1.321 . S
N1026 Co1029 2.135 1_554 S
C1027 N1025 1.340 . S
C1027 N1026 1.321 . S
C1027 H1051 0.930 . S
H1028 C1023 0.931 . S
Co1029 N1026 2.135 1_556 S
Co1029 N1032 2.121 . S
Co1029 O1037 2.055 1_556 S
Co1029 O1040 2.039 . S
Co1029 N1043 2.140 . S
C1030 O1031 1.227 . S
C1030 O1040 1.265 . S
O1031 C1030 1.227 . S
N1032 Co1029 2.121 . S
N1032 C1034 1.375 . S
N1032 C1035 1.313 . S
C1033 C1034 1.338 . S
C1033 N1036 1.377 . S
C1033 H1053 0.930 . S
C1034 N1032 1.375 . S
C1034 C1033 1.338 . S
C1034 H1038 0.931 . S
C1035 N1032 1.313 . S
C1035 N1036 1.344 . S
C1035 H1039 0.930 . S
N1036 C1033 1.377 . S
N1036 C1035 1.344 . S
O1037 Co1029 2.055 1_554 S
O1037 C1041 1.253 . S
H1038 C1034 0.931 . S
H1039 C1035 0.930 . S
O1040 Co1029 2.039 . S
O1040 C1030 1.265 . S
C1041 O1037 1.253 . S
C1041 O1042 1.227 1_554 S
O1042 C1041 1.227 1_556 S
N1043 Co1029 2.140 . S
N1043 C1046 1.346 . S
N1043 C1047 1.345 . S
C1044 C1045 1.387 . S
C1044 C1048 1.391 . S
C1045 C1044 1.387 . S
C1045 C1046 1.369 . S
C1045 H1054 0.929 . S
C1046 N1043 1.346 . S
C1046 C1045 1.369 . S
C1046 H1049 0.928 . S
C1047 N1043 1.345 . S
C1047 C1048 1.371 . S
C1047 H1050 0.931 . S
C1048 C1044 1.391 . S
C1048 C1047 1.371 . S
C1048 H1055 0.930 . S
H1049 C1046 0.928 . S
H1050 C1047 0.931 . S
H1051 C1027 0.930 . S
H1052 C1024 0.930 . S
H1053 C1033 0.930 . S
H1054 C1045 0.929 . S
H1055 C1048 0.930 . S
C1056 C1057 1.363 . S
C1056 C1062 1.379 . S
C1056 N1064 1.356 . S
C1057 C1056 1.363 . S
C1057 C1063 1.363 . S
C1058 C1059 1.363 . S
C1058 C1063 1.379 . S
C1058 N1065 1.356 . S
C1059 C1058 1.363 . S
C1059 C1062 1.363 . S
N1060 C1062 1.356 . S
N1060 H1072 0.984 . S
N1060 H1073 0.985 . S
N1061 C1063 1.356 . S
N1061 H1066 0.984 . S
N1061 H1067 0.985 . S
C1062 C1056 1.379 . S
C1062 C1059 1.363 . S
C1062 N1060 1.356 . S
C1063 C1057 1.363 . S
C1063 C1058 1.379 . S
C1063 N1061 1.356 . S
N1064 C1056 1.356 . S
N1064 H1070 0.984 . S
N1064 H1071 0.984 . S
N1065 C1058 1.356 . S
N1065 H1068 0.984 . S
N1065 H1069 0.985 . S
H1066 N1061 0.984 . S
H1067 N1061 0.985 . S
H1068 N1065 0.984 . S
H1069 N1065 0.985 . S
H1070 N1064 0.984 . S
H1071 N1064 0.984 . S
H1072 N1060 0.984 . S
H1073 N1060 0.985 . S
C1074 C1075 1.363 . S
C1074 C1080 1.379 . S
C1074 N1082 1.356 . S
C1075 C1074 1.363 . S
C1075 C1081 1.363 . S
C1076 C1077 1.363 . S
C1076 C1081 1.379 . S
C1076 N1083 1.356 . S
C1077 C1076 1.363 . S
C1077 C1080 1.363 . S
N1078 C1080 1.356 . S
N1078 H1090 0.984 . S
N1078 H1091 0.985 . S
N1079 C1081 1.356 . S
N1079 H1084 0.984 . S
N1079 H1085 0.985 . S
C1080 C1074 1.379 . S
C1080 C1077 1.363 . S
C1080 N1078 1.356 . S
C1081 C1075 1.363 . S
C1081 C1076 1.379 . S
C1081 N1079 1.356 . S
N1082 C1074 1.356 . S
N1082 H1088 0.984 . S
N1082 H1089 0.984 . S
N1083 C1076 1.356 . S
N1083 H1086 0.984 . S
N1083 H1087 0.985 . S
H1084 N1079 0.984 . S
H1085 N1079 0.985 . S
H1086 N1083 0.984 . S
H1087 N1083 0.985 . S
H1088 N1082 0.984 . S
H1089 N1082 0.984 . S
H1090 N1078 0.984 . S
H1091 N1078 0.985 . S
C1092 C1093 1.363 . S
C1092 C1098 1.379 . S
C1092 N1100 1.356 . S
C1093 C1092 1.363 . S
C1093 C1099 1.363 . S
C1094 C1095 1.363 . S
C1094 C1099 1.379 . S
C1094 N1101 1.356 . S
C1095 C1094 1.363 . S
C1095 C1098 1.363 . S
N1096 C1098 1.356 . S
N1096 H1108 0.984 . S
N1096 H1109 0.985 . S
N1097 C1099 1.356 . S
N1097 H1102 0.984 . S
N1097 H1103 0.985 . S
C1098 C1092 1.379 . S
C1098 C1095 1.363 . S
C1098 N1096 1.356 . S
C1099 C1093 1.363 . S
C1099 C1094 1.379 . S
C1099 N1097 1.356 . S
N1100 C1092 1.356 . S
N1100 H1106 0.984 . S
N1100 H1107 0.984 . S
N1101 C1094 1.356 . S
N1101 H1104 0.984 . S
N1101 H1105 0.985 . S
H1102 N1097 0.984 . S
H1103 N1097 0.985 . S
H1104 N1101 0.984 . S
H1105 N1101 0.985 . S
H1106 N1100 0.984 . S
H1107 N1100 0.984 . S
H1108 N1096 0.984 . S
H1109 N1096 0.985 . S
C1110 C1111 1.363 . S
C1110 C1116 1.379 . S
C1110 N1118 1.356 . S
C1111 C1110 1.363 . S
C1111 C1117 1.363 . S
C1112 C1113 1.363 . S
C1112 C1117 1.379 . S
C1112 N1119 1.356 . S
C1113 C1112 1.363 . S
C1113 C1116 1.363 . S
N1114 C1116 1.356 . S
N1114 H1126 0.984 . S
N1114 H1127 0.985 . S
N1115 C1117 1.356 . S
N1115 H1120 0.984 . S
N1115 H1121 0.985 . S
C1116 C1110 1.379 . S
C1116 C1113 1.363 . S
C1116 N1114 1.356 . S
C1117 C1111 1.363 . S
C1117 C1112 1.379 . S
C1117 N1115 1.356 . S
N1118 C1110 1.356 . S
N1118 H1124 0.984 . S
N1118 H1125 0.984 . S
N1119 C1112 1.356 . S
N1119 H1122 0.984 . S
N1119 H1123 0.985 . S
H1120 N1115 0.984 . S
H1121 N1115 0.985 . S
H1122 N1119 0.984 . S
H1123 N1119 0.985 . S
H1124 N1118 0.984 . S
H1125 N1118 0.984 . S
H1126 N1114 0.984 . S
H1127 N1114 0.985 . S
C1128 C1129 1.363 . S
C1128 C1134 1.379 . S
C1128 N1136 1.356 . S
C1129 C1128 1.363 . S
C1129 C1135 1.363 . S
C1130 C1131 1.363 . S
C1130 C1135 1.379 . S
C1130 N1137 1.356 . S
C1131 C1130 1.363 . S
C1131 C1134 1.363 . S
N1132 C1134 1.356 . S
N1132 H1144 0.984 . S
N1132 H1145 0.985 . S
N1133 C1135 1.356 . S
N1133 H1138 0.984 . S
N1133 H1139 0.985 . S
C1134 C1128 1.379 . S
C1134 C1131 1.363 . S
C1134 N1132 1.356 . S
C1135 C1129 1.363 . S
C1135 C1130 1.379 . S
C1135 N1133 1.356 . S
N1136 C1128 1.356 . S
N1136 H1142 0.984 . S
N1136 H1143 0.984 . S
N1137 C1130 1.356 . S
N1137 H1140 0.984 . S
N1137 H1141 0.985 . S
H1138 N1133 0.984 . S
H1139 N1133 0.985 . S
H1140 N1137 0.984 . S
H1141 N1137 0.985 . S
H1142 N1136 0.984 . S
H1143 N1136 0.984 . S
H1144 N1132 0.984 . S
H1145 N1132 0.985 . S
C1146 C1147 1.363 . S
C1146 C1152 1.379 . S
C1146 N1154 1.356 . S
C1147 C1146 1.363 . S
C1147 C1153 1.363 . S
C1148 C1149 1.363 . S
C1148 C1153 1.379 . S
C1148 N1155 1.356 . S
C1149 C1148 1.363 . S
C1149 C1152 1.363 . S
N1150 C1152 1.356 . S
N1150 H1162 0.984 . S
N1150 H1163 0.985 . S
N1151 C1153 1.356 . S
N1151 H1156 0.984 . S
N1151 H1157 0.985 . S
C1152 C1146 1.379 . S
C1152 C1149 1.363 . S
C1152 N1150 1.356 . S
C1153 C1147 1.363 . S
C1153 C1148 1.379 . S
C1153 N1151 1.356 . S
N1154 C1146 1.356 . S
N1154 H1160 0.984 . S
N1154 H1161 0.984 . S
N1155 C1148 1.356 . S
N1155 H1158 0.984 . S
N1155 H1159 0.985 . S
H1156 N1151 0.984 . S
H1157 N1151 0.985 . S
H1158 N1155 0.984 . S
H1159 N1155 0.985 . S
H1160 N1154 0.984 . S
H1161 N1154 0.984 . S
H1162 N1150 0.984 . S
H1163 N1150 0.985 . S
C1164 C1165 1.363 . S
C1164 C1170 1.379 . S
C1164 N1172 1.356 . S
C1165 C1164 1.363 . S
C1165 C1171 1.363 . S
C1166 C1167 1.363 . S
C1166 C1171 1.379 . S
C1166 N1173 1.356 . S
C1167 C1166 1.363 . S
C1167 C1170 1.363 . S
N1168 C1170 1.356 . S
N1168 H1180 0.984 . S
N1168 H1181 0.985 . S
N1169 C1171 1.356 . S
N1169 H1174 0.984 . S
N1169 H1175 0.985 . S
C1170 C1164 1.379 . S
C1170 C1167 1.363 . S
C1170 N1168 1.356 . S
C1171 C1165 1.363 . S
C1171 C1166 1.379 . S
C1171 N1169 1.356 . S
N1172 C1164 1.356 . S
N1172 H1178 0.984 . S
N1172 H1179 0.984 . S
N1173 C1166 1.356 . S
N1173 H1176 0.984 . S
N1173 H1177 0.985 . S
H1174 N1169 0.984 . S
H1175 N1169 0.985 . S
H1176 N1173 0.984 . S
H1177 N1173 0.985 . S
H1178 N1172 0.984 . S
H1179 N1172 0.984 . S
H1180 N1168 0.984 . S
H1181 N1168 0.985 . S
C1182 C1183 1.363 . S
C1182 C1188 1.379 . S
C1182 N1190 1.356 . S
C1183 C1182 1.363 . S
C1183 C1189 1.363 . S
C1184 C1185 1.363 . S
C1184 C1189 1.379 . S
C1184 N1191 1.356 . S
C1185 C1184 1.363 . S
C1185 C1188 1.363 . S
N1186 C1188 1.356 . S
N1186 H1198 0.984 . S
N1186 H1199 0.985 . S
N1187 C1189 1.356 . S
N1187 H1192 0.984 . S
N1187 H1193 0.985 . S
C1188 C1182 1.379 . S
C1188 C1185 1.363 . S
C1188 N1186 1.356 . S
C1189 C1183 1.363 . S
C1189 C1184 1.379 . S
C1189 N1187 1.356 . S
N1190 C1182 1.356 . S
N1190 H1196 0.984 . S
N1190 H1197 0.984 . S
N1191 C1184 1.356 . S
N1191 H1194 0.984 . S
N1191 H1195 0.985 . S
H1192 N1187 0.984 . S
H1193 N1187 0.985 . S
H1194 N1191 0.984 . S
H1195 N1191 0.985 . S
H1196 N1190 0.984 . S
H1197 N1190 0.984 . S
H1198 N1186 0.984 . S
H1199 N1186 0.985 . S
C1200 C1201 1.363 . S
C1200 C1206 1.379 . S
C1200 N1208 1.356 . S
C1201 C1200 1.363 . S
C1201 C1207 1.363 . S
C1202 C1203 1.363 . S
C1202 C1207 1.379 . S
C1202 N1209 1.356 . S
C1203 C1202 1.363 . S
C1203 C1206 1.363 . S
N1204 C1206 1.356 . S
N1204 H1216 0.984 . S
N1204 H1217 0.985 . S
N1205 C1207 1.356 . S
N1205 H1210 0.984 . S
N1205 H1211 0.985 . S
C1206 C1200 1.379 . S
C1206 C1203 1.363 . S
C1206 N1204 1.356 . S
C1207 C1201 1.363 . S
C1207 C1202 1.379 . S
C1207 N1205 1.356 . S
N1208 C1200 1.356 . S
N1208 H1214 0.984 . S
N1208 H1215 0.984 . S
N1209 C1202 1.356 . S
N1209 H1212 0.984 . S
N1209 H1213 0.985 . S
H1210 N1205 0.984 . S
H1211 N1205 0.985 . S
H1212 N1209 0.984 . S
H1213 N1209 0.985 . S
H1214 N1208 0.984 . S
H1215 N1208 0.984 . S
H1216 N1204 0.984 . S
H1217 N1204 0.985 . S
C1218 C1219 1.363 . S
C1218 C1224 1.379 . S
C1218 N1226 1.356 . S
C1219 C1218 1.363 . S
C1219 C1225 1.363 . S
C1220 C1221 1.363 . S
C1220 C1225 1.379 . S
C1220 N1227 1.356 . S
C1221 C1220 1.363 . S
C1221 C1224 1.363 . S
N1222 C1224 1.356 . S
N1222 H1234 0.984 . S
N1222 H1235 0.985 . S
N1223 C1225 1.356 . S
N1223 H1228 0.984 . S
N1223 H1229 0.985 . S
C1224 C1218 1.379 . S
C1224 C1221 1.363 . S
C1224 N1222 1.356 . S
C1225 C1219 1.363 . S
C1225 C1220 1.379 . S
C1225 N1223 1.356 . S
N1226 C1218 1.356 . S
N1226 H1232 0.984 . S
N1226 H1233 0.984 . S
N1227 C1220 1.356 . S
N1227 H1230 0.984 . S
N1227 H1231 0.985 . S
H1228 N1223 0.984 . S
H1229 N1223 0.985 . S
H1230 N1227 0.984 . S
H1231 N1227 0.985 . S
H1232 N1226 0.984 . S
H1233 N1226 0.984 . S
H1234 N1222 0.984 . S
H1235 N1222 0.985 . S
C1236 C1237 1.363 . S
C1236 C1242 1.379 . S
C1236 N1244 1.356 . S
C1237 C1236 1.363 . S
C1237 C1243 1.363 . S
C1238 C1239 1.363 . S
C1238 C1243 1.379 . S
C1238 N1245 1.356 . S
C1239 C1238 1.363 . S
C1239 C1242 1.363 . S
N1240 C1242 1.356 . S
N1240 H1252 0.984 . S
N1240 H1253 0.985 . S
N1241 C1243 1.356 . S
N1241 H1246 0.984 . S
N1241 H1247 0.985 . S
C1242 C1236 1.379 . S
C1242 C1239 1.363 . S
C1242 N1240 1.356 . S
C1243 C1237 1.363 . S
C1243 C1238 1.379 . S
C1243 N1241 1.356 . S
N1244 C1236 1.356 . S
N1244 H1250 0.984 . S
N1244 H1251 0.984 . S
N1245 C1238 1.356 . S
N1245 H1248 0.984 . S
N1245 H1249 0.985 . S
H1246 N1241 0.984 . S
H1247 N1241 0.985 . S
H1248 N1245 0.984 . S
H1249 N1245 0.985 . S
H1250 N1244 0.984 . S
H1251 N1244 0.984 . S
H1252 N1240 0.984 . S
H1253 N1240 0.985 . S
C1254 C1255 1.363 . S
C1254 C1260 1.379 . S
C1254 N1262 1.356 . S
C1255 C1254 1.363 . S
C1255 C1261 1.363 . S
C1256 C1257 1.363 . S
C1256 C1261 1.379 . S
C1256 N1263 1.356 . S
C1257 C1256 1.363 . S
C1257 C1260 1.363 . S
N1258 C1260 1.356 . S
N1258 H1270 0.984 . S
N1258 H1271 0.985 . S
N1259 C1261 1.356 . S
N1259 H1264 0.984 . S
N1259 H1265 0.985 . S
C1260 C1254 1.379 . S
C1260 C1257 1.363 . S
C1260 N1258 1.356 . S
C1261 C1255 1.363 . S
C1261 C1256 1.379 . S
C1261 N1259 1.356 . S
N1262 C1254 1.356 . S
N1262 H1268 0.984 . S
N1262 H1269 0.984 . S
N1263 C1256 1.356 . S
N1263 H1266 0.984 . S
N1263 H1267 0.985 . S
H1264 N1259 0.984 . S
H1265 N1259 0.985 . S
H1266 N1263 0.984 . S
H1267 N1263 0.985 . S
H1268 N1262 0.984 . S
H1269 N1262 0.984 . S
H1270 N1258 0.984 . S
H1271 N1258 0.985 . S
C1272 C1273 1.363 . S
C1272 C1278 1.379 . S
C1272 N1280 1.356 . S
C1273 C1272 1.363 . S
C1273 C1279 1.363 . S
C1274 C1275 1.363 . S
C1274 C1279 1.379 . S
C1274 N1281 1.356 . S
C1275 C1274 1.363 . S
C1275 C1278 1.363 . S
N1276 C1278 1.356 . S
N1276 H1288 0.984 . S
N1276 H1289 0.985 . S
N1277 C1279 1.356 . S
N1277 H1282 0.984 . S
N1277 H1283 0.985 . S
C1278 C1272 1.379 . S
C1278 C1275 1.363 . S
C1278 N1276 1.356 . S
C1279 C1273 1.363 . S
C1279 C1274 1.379 . S
C1279 N1277 1.356 . S
N1280 C1272 1.356 . S
N1280 H1286 0.984 . S
N1280 H1287 0.984 . S
N1281 C1274 1.356 . S
N1281 H1284 0.984 . S
N1281 H1285 0.985 . S
H1282 N1277 0.984 . S
H1283 N1277 0.985 . S
H1284 N1281 0.984 . S
H1285 N1281 0.985 . S
H1286 N1280 0.984 . S
H1287 N1280 0.984 . S
H1288 N1276 0.984 . S
H1289 N1276 0.985 . S
C1290 C1291 1.363 . S
C1290 C1296 1.379 . S
C1290 N1298 1.356 . S
C1291 C1290 1.363 . S
C1291 C1297 1.363 . S
C1292 C1293 1.363 . S
C1292 C1297 1.379 . S
C1292 N1299 1.356 . S
C1293 C1292 1.363 . S
C1293 C1296 1.363 . S
N1294 C1296 1.356 . S
N1294 H1306 0.984 . S
N1294 H1307 0.985 . S
N1295 C1297 1.356 . S
N1295 H1300 0.984 . S
N1295 H1301 0.985 . S
C1296 C1290 1.379 . S
C1296 C1293 1.363 . S
C1296 N1294 1.356 . S
C1297 C1291 1.363 . S
C1297 C1292 1.379 . S
C1297 N1295 1.356 . S
N1298 C1290 1.356 . S
N1298 H1304 0.984 . S
N1298 H1305 0.984 . S
N1299 C1292 1.356 . S
N1299 H1302 0.984 . S
N1299 H1303 0.985 . S
H1300 N1295 0.984 . S
H1301 N1295 0.985 . S
H1302 N1299 0.984 . S
H1303 N1299 0.985 . S
H1304 N1298 0.984 . S
H1305 N1298 0.984 . S
H1306 N1294 0.984 . S
H1307 N1294 0.985 . S
C1308 C1309 1.363 . S
C1308 C1314 1.379 . S
C1308 N1316 1.356 . S
C1309 C1308 1.363 . S
C1309 C1315 1.363 . S
C1310 C1311 1.363 . S
C1310 C1315 1.379 . S
C1310 N1317 1.356 . S
C1311 C1310 1.363 . S
C1311 C1314 1.363 . S
N1312 C1314 1.356 . S
N1312 H1324 0.984 . S
N1312 H1325 0.985 . S
N1313 C1315 1.356 . S
N1313 H1318 0.984 . S
N1313 H1319 0.985 . S
C1314 C1308 1.379 . S
C1314 C1311 1.363 . S
C1314 N1312 1.356 . S
C1315 C1309 1.363 . S
C1315 C1310 1.379 . S
C1315 N1313 1.356 . S
N1316 C1308 1.356 . S
N1316 H1322 0.984 . S
N1316 H1323 0.984 . S
N1317 C1310 1.356 . S
N1317 H1320 0.984 . S
N1317 H1321 0.985 . S
H1318 N1313 0.984 . S
H1319 N1313 0.985 . S
H1320 N1317 0.984 . S
H1321 N1317 0.985 . S
H1322 N1316 0.984 . S
H1323 N1316 0.984 . S
H1324 N1312 0.984 . S
H1325 N1312 0.985 . S
C1326 C1327 1.363 . S
C1326 C1332 1.379 . S
C1326 N1334 1.356 . S
C1327 C1326 1.363 . S
C1327 C1333 1.363 . S
C1328 C1329 1.363 . S
C1328 C1333 1.379 . S
C1328 N1335 1.356 . S
C1329 C1328 1.363 . S
C1329 C1332 1.363 . S
N1330 C1332 1.356 . S
N1330 H1342 0.984 . S
N1330 H1343 0.985 . S
N1331 C1333 1.356 . S
N1331 H1336 0.984 . S
N1331 H1337 0.985 . S
C1332 C1326 1.379 . S
C1332 C1329 1.363 . S
C1332 N1330 1.356 . S
C1333 C1327 1.363 . S
C1333 C1328 1.379 . S
C1333 N1331 1.356 . S
N1334 C1326 1.356 . S
N1334 H1340 0.984 . S
N1334 H1341 0.984 . S
N1335 C1328 1.356 . S
N1335 H1338 0.984 . S
N1335 H1339 0.985 . S
H1336 N1331 0.984 . S
H1337 N1331 0.985 . S
H1338 N1335 0.984 . S
H1339 N1335 0.985 . S
H1340 N1334 0.984 . S
H1341 N1334 0.984 . S
H1342 N1330 0.984 . S
H1343 N1330 0.985 . S
C1344 C1345 1.363 . S
C1344 C1350 1.379 . S
C1344 N1352 1.356 . S
C1345 C1344 1.363 . S
C1345 C1351 1.363 . S
C1346 C1347 1.363 . S
C1346 C1351 1.379 . S
C1346 N1353 1.356 . S
C1347 C1346 1.363 . S
C1347 C1350 1.363 . S
N1348 C1350 1.356 . S
N1348 H1360 0.984 . S
N1348 H1361 0.985 . S
N1349 C1351 1.356 . S
N1349 H1354 0.984 . S
N1349 H1355 0.985 . S
C1350 C1344 1.379 . S
C1350 C1347 1.363 . S
C1350 N1348 1.356 . S
C1351 C1345 1.363 . S
C1351 C1346 1.379 . S
C1351 N1349 1.356 . S
N1352 C1344 1.356 . S
N1352 H1358 0.984 . S
N1352 H1359 0.984 . S
N1353 C1346 1.356 . S
N1353 H1356 0.984 . S
N1353 H1357 0.985 . S
H1354 N1349 0.984 . S
H1355 N1349 0.985 . S
H1356 N1353 0.984 . S
H1357 N1353 0.985 . S
H1358 N1352 0.984 . S
H1359 N1352 0.984 . S
H1360 N1348 0.984 . S
H1361 N1348 0.985 . S
C1362 C1363 1.363 . S
C1362 C1368 1.379 . S
C1362 N1370 1.356 . S
C1363 C1362 1.363 . S
C1363 C1369 1.363 . S
C1364 C1365 1.363 . S
C1364 C1369 1.379 . S
C1364 N1371 1.356 . S
C1365 C1364 1.363 . S
C1365 C1368 1.363 . S
N1366 C1368 1.356 . S
N1366 H1378 0.984 . S
N1366 H1379 0.985 . S
N1367 C1369 1.356 . S
N1367 H1372 0.984 . S
N1367 H1373 0.985 . S
C1368 C1362 1.379 . S
C1368 C1365 1.363 . S
C1368 N1366 1.356 . S
C1369 C1363 1.363 . S
C1369 C1364 1.379 . S
C1369 N1367 1.356 . S
N1370 C1362 1.356 . S
N1370 H1376 0.984 . S
N1370 H1377 0.984 . S
N1371 C1364 1.356 . S
N1371 H1374 0.984 . S
N1371 H1375 0.985 . S
H1372 N1367 0.984 . S
H1373 N1367 0.985 . S
H1374 N1371 0.984 . S
H1375 N1371 0.985 . S
H1376 N1370 0.984 . S
H1377 N1370 0.984 . S
H1378 N1366 0.984 . S
H1379 N1366 0.985 . S
C1380 C1381 1.363 1_556 S
C1380 C1386 1.379 . S
C1380 N1388 1.356 . S
C1381 C1380 1.363 1_554 S
C1381 C1387 1.363 . S
C1382 C1383 1.363 . S
C1382 C1387 1.379 . S
C1382 N1389 1.356 . S
C1383 C1382 1.363 . S
C1383 C1386 1.363 1_554 S
N1384 C1386 1.356 . S
N1384 H1396 0.984 . S
N1384 H1397 0.985 . S
N1385 C1387 1.356 . S
N1385 H1390 0.984 . S
N1385 H1391 0.985 . S
C1386 C1380 1.379 . S
C1386 C1383 1.363 1_556 S
C1386 N1384 1.356 . S
C1387 C1381 1.363 . S
C1387 C1382 1.379 . S
C1387 N1385 1.356 . S
N1388 C1380 1.356 . S
N1388 H1394 0.984 . S
N1388 H1395 0.984 . S
N1389 C1382 1.356 . S
N1389 H1392 0.984 . S
N1389 H1393 0.985 . S
H1390 N1385 0.984 . S
H1391 N1385 0.985 . S
H1392 N1389 0.984 . S
H1393 N1389 0.985 . S
H1394 N1388 0.984 . S
H1395 N1388 0.984 . S
H1396 N1384 0.984 . S
H1397 N1384 0.985 . S
C1398 C1399 1.363 . S
C1398 C1404 1.379 . S
C1398 N1406 1.356 . S
C1399 C1398 1.363 . S
C1399 C1405 1.363 1_554 S
C1400 C1401 1.363 1_556 S
C1400 C1405 1.379 . S
C1400 N1407 1.356 . S
C1401 C1400 1.363 1_554 S
C1401 C1404 1.363 . S
N1402 C1404 1.356 . S
N1402 H1414 0.984 . S
N1402 H1415 0.985 . S
N1403 C1405 1.356 . S
N1403 H1408 0.984 . S
N1403 H1409 0.985 . S
C1404 C1398 1.379 . S
C1404 C1401 1.363 . S
C1404 N1402 1.356 . S
C1405 C1399 1.363 1_556 S
C1405 C1400 1.379 . S
C1405 N1403 1.356 . S
N1406 C1398 1.356 . S
N1406 H1412 0.984 . S
N1406 H1413 0.984 . S
N1407 C1400 1.356 . S
N1407 H1410 0.984 . S
N1407 H1411 0.985 . S
H1408 N1403 0.984 . S
H1409 N1403 0.985 . S
H1410 N1407 0.984 . S
H1411 N1407 0.985 . S
H1412 N1406 0.984 . S
H1413 N1406 0.984 . S
H1414 N1402 0.984 . S
H1415 N1402 0.985 . S
C1416 C1417 1.363 . S
C1416 C1422 1.379 . S
C1416 N1424 1.356 . S
C1417 C1416 1.363 . S
C1417 C1423 1.363 . S
C1418 C1419 1.363 . S
C1418 C1423 1.379 . S
C1418 N1425 1.356 . S
C1419 C1418 1.363 . S
C1419 C1422 1.363 . S
N1420 C1422 1.356 . S
N1420 H1432 0.984 . S
N1420 H1433 0.985 . S
N1421 C1423 1.356 . S
N1421 H1426 0.984 . S
N1421 H1427 0.985 . S
C1422 C1416 1.379 . S
C1422 C1419 1.363 . S
C1422 N1420 1.356 . S
C1423 C1417 1.363 . S
C1423 C1418 1.379 . S
C1423 N1421 1.356 . S
N1424 C1416 1.356 . S
N1424 H1430 0.984 . S
N1424 H1431 0.984 . S
N1425 C1418 1.356 . S
N1425 H1428 0.984 . S
N1425 H1429 0.985 . S
H1426 N1421 0.984 . S
H1427 N1421 0.985 . S
H1428 N1425 0.984 . S
H1429 N1425 0.985 . S
H1430 N1424 0.984 . S
H1431 N1424 0.984 . S
H1432 N1420 0.984 . S
H1433 N1420 0.985 . S
C1434 C1435 1.363 . S
C1434 C1440 1.379 . S
C1434 N1442 1.356 . S
C1435 C1434 1.363 . S
C1435 C1441 1.363 . S
C1436 C1437 1.363 . S
C1436 C1441 1.379 . S
C1436 N1443 1.356 . S
C1437 C1436 1.363 . S
C1437 C1440 1.363 . S
N1438 C1440 1.356 . S
N1438 H1450 0.984 . S
N1438 H1451 0.985 . S
N1439 C1441 1.356 . S
N1439 H1444 0.984 . S
N1439 H1445 0.985 . S
C1440 C1434 1.379 . S
C1440 C1437 1.363 . S
C1440 N1438 1.356 . S
C1441 C1435 1.363 . S
C1441 C1436 1.379 . S
C1441 N1439 1.356 . S
N1442 C1434 1.356 . S
N1442 H1448 0.984 . S
N1442 H1449 0.984 . S
N1443 C1436 1.356 . S
N1443 H1446 0.984 . S
N1443 H1447 0.985 . S
H1444 N1439 0.984 . S
H1445 N1439 0.985 . S
H1446 N1443 0.984 . S
H1447 N1443 0.985 . S
H1448 N1442 0.984 . S
H1449 N1442 0.984 . S
H1450 N1438 0.984 . S
H1451 N1438 0.985 . S
C1452 C1453 1.363 1_554 S
C1452 C1458 1.379 . S
C1452 N1460 1.356 . S
C1453 C1452 1.363 1_556 S
C1453 C1459 1.363 . S
C1454 C1455 1.363 . S
C1454 C1459 1.379 . S
C1454 N1461 1.356 . S
C1455 C1454 1.363 . S
C1455 C1458 1.363 1_556 S
N1456 C1458 1.356 . S
N1456 H1468 0.984 . S
N1456 H1469 0.985 . S
N1457 C1459 1.356 . S
N1457 H1462 0.984 . S
N1457 H1463 0.985 . S
C1458 C1452 1.379 . S
C1458 C1455 1.363 1_554 S
C1458 N1456 1.356 . S
C1459 C1453 1.363 . S
C1459 C1454 1.379 . S
C1459 N1457 1.356 . S
N1460 C1452 1.356 . S
N1460 H1466 0.984 . S
N1460 H1467 0.984 . S
N1461 C1454 1.356 . S
N1461 H1464 0.984 . S
N1461 H1465 0.985 . S
H1462 N1457 0.984 . S
H1463 N1457 0.985 . S
H1464 N1461 0.984 . S
H1465 N1461 0.985 . S
H1466 N1460 0.984 . S
H1467 N1460 0.984 . S
H1468 N1456 0.984 . S
H1469 N1456 0.985 . S
C1470 C1471 1.363 . S
C1470 C1476 1.379 . S
C1470 N1478 1.356 . S
C1471 C1470 1.363 . S
C1471 C1477 1.363 1_556 S
C1472 C1473 1.363 1_554 S
C1472 C1477 1.379 . S
C1472 N1479 1.356 . S
C1473 C1472 1.363 1_556 S
C1473 C1476 1.363 . S
N1474 C1476 1.356 . S
N1474 H1486 0.984 . S
N1474 H1487 0.985 . S
N1475 C1477 1.356 . S
N1475 H1480 0.984 . S
N1475 H1481 0.985 . S
C1476 C1470 1.379 . S
C1476 C1473 1.363 . S
C1476 N1474 1.356 . S
C1477 C1471 1.363 1_554 S
C1477 C1472 1.379 . S
C1477 N1475 1.356 . S
N1478 C1470 1.356 . S
N1478 H1484 0.984 . S
N1478 H1485 0.984 . S
N1479 C1472 1.356 . S
N1479 H1482 0.984 . S
N1479 H1483 0.985 . S
H1480 N1475 0.984 . S
H1481 N1475 0.985 . S
H1482 N1479 0.984 . S
H1483 N1479 0.985 . S
H1484 N1478 0.984 . S
H1485 N1478 0.984 . S
H1486 N1474 0.984 . S
H1487 N1474 0.985 . S
C1488 C1489 1.363 . S
C1488 C1494 1.379 . S
C1488 N1496 1.356 . S
C1489 C1488 1.363 . S
C1489 C1495 1.363 . S
C1490 C1491 1.363 . S
C1490 C1495 1.379 . S
C1490 N1497 1.356 . S
C1491 C1490 1.363 . S
C1491 C1494 1.363 . S
N1492 C1494 1.356 . S
N1492 H1504 0.984 . S
N1492 H1505 0.985 . S
N1493 C1495 1.356 . S
N1493 H1498 0.984 . S
N1493 H1499 0.985 . S
C1494 C1488 1.379 . S
C1494 C1491 1.363 . S
C1494 N1492 1.356 . S
C1495 C1489 1.363 . S
C1495 C1490 1.379 . S
C1495 N1493 1.356 . S
N1496 C1488 1.356 . S
N1496 H1502 0.984 . S
N1496 H1503 0.984 . S
N1497 C1490 1.356 . S
N1497 H1500 0.984 . S
N1497 H1501 0.985 . S
H1498 N1493 0.984 . S
H1499 N1493 0.985 . S
H1500 N1497 0.984 . S
H1501 N1497 0.985 . S
H1502 N1496 0.984 . S
H1503 N1496 0.984 . S
H1504 N1492 0.984 . S
H1505 N1492 0.985 . S
C1506 C1507 1.363 . S
C1506 C1512 1.379 . S
C1506 N1514 1.356 . S
C1507 C1506 1.363 . S
C1507 C1513 1.363 . S
C1508 C1509 1.363 . S
C1508 C1513 1.379 . S
C1508 N1515 1.356 . S
C1509 C1508 1.363 . S
C1509 C1512 1.363 . S
N1510 C1512 1.356 . S
N1510 H1522 0.984 . S
N1510 H1523 0.985 . S
N1511 C1513 1.356 . S
N1511 H1516 0.984 . S
N1511 H1517 0.985 . S
C1512 C1506 1.379 . S
C1512 C1509 1.363 . S
C1512 N1510 1.356 . S
C1513 C1507 1.363 . S
C1513 C1508 1.379 . S
C1513 N1511 1.356 . S
N1514 C1506 1.356 . S
N1514 H1520 0.984 . S
N1514 H1521 0.984 . S
N1515 C1508 1.356 . S
N1515 H1518 0.984 . S
N1515 H1519 0.985 . S
H1516 N1511 0.984 . S
H1517 N1511 0.985 . S
H1518 N1515 0.984 . S
H1519 N1515 0.985 . S
H1520 N1514 0.984 . S
H1521 N1514 0.984 . S
H1522 N1510 0.984 . S
H1523 N1510 0.985 . S
C1524 C1525 1.363 . S
C1524 C1530 1.379 . S
C1524 N1532 1.356 . S
C1525 C1524 1.363 . S
C1525 C1531 1.363 . S
C1526 C1527 1.363 . S
C1526 C1531 1.379 . S
C1526 N1533 1.356 . S
C1527 C1526 1.363 . S
C1527 C1530 1.363 . S
N1528 C1530 1.356 . S
N1528 H1540 0.984 . S
N1528 H1541 0.985 . S
N1529 C1531 1.356 . S
N1529 H1534 0.984 . S
N1529 H1535 0.985 . S
C1530 C1524 1.379 . S
C1530 C1527 1.363 . S
C1530 N1528 1.356 . S
C1531 C1525 1.363 . S
C1531 C1526 1.379 . S
C1531 N1529 1.356 . S
N1532 C1524 1.356 . S
N1532 H1538 0.984 . S
N1532 H1539 0.984 . S
N1533 C1526 1.356 . S
N1533 H1536 0.984 . S
N1533 H1537 0.985 . S
H1534 N1529 0.984 . S
H1535 N1529 0.985 . S
H1536 N1533 0.984 . S
H1537 N1533 0.985 . S
H1538 N1532 0.984 . S
H1539 N1532 0.984 . S
H1540 N1528 0.984 . S
H1541 N1528 0.985 . S
C1542 C1543 1.363 . S
C1542 C1548 1.379 . S
C1542 N1550 1.356 . S
C1543 C1542 1.363 . S
C1543 C1549 1.363 . S
C1544 C1545 1.363 . S
C1544 C1549 1.379 . S
C1544 N1551 1.356 . S
C1545 C1544 1.363 . S
C1545 C1548 1.363 . S
N1546 C1548 1.356 . S
N1546 H1558 0.984 . S
N1546 H1559 0.985 . S
N1547 C1549 1.356 . S
N1547 H1552 0.984 . S
N1547 H1553 0.985 . S
C1548 C1542 1.379 . S
C1548 C1545 1.363 . S
C1548 N1546 1.356 . S
C1549 C1543 1.363 . S
C1549 C1544 1.379 . S
C1549 N1547 1.356 . S
N1550 C1542 1.356 . S
N1550 H1556 0.984 . S
N1550 H1557 0.984 . S
N1551 C1544 1.356 . S
N1551 H1554 0.984 . S
N1551 H1555 0.985 . S
H1552 N1547 0.984 . S
H1553 N1547 0.985 . S
H1554 N1551 0.984 . S
H1555 N1551 0.985 . S
H1556 N1550 0.984 . S
H1557 N1550 0.984 . S
H1558 N1546 0.984 . S
H1559 N1546 0.985 . S
C1560 C1561 1.363 . S
C1560 C1566 1.379 . S
C1560 N1568 1.356 . S
C1561 C1560 1.363 . S
C1561 C1567 1.363 . S
C1562 C1563 1.363 . S
C1562 C1567 1.379 . S
C1562 N1569 1.356 . S
C1563 C1562 1.363 . S
C1563 C1566 1.363 . S
N1564 C1566 1.356 . S
N1564 H1576 0.984 . S
N1564 H1577 0.985 . S
N1565 C1567 1.356 . S
N1565 H1570 0.984 . S
N1565 H1571 0.985 . S
C1566 C1560 1.379 . S
C1566 C1563 1.363 . S
C1566 N1564 1.356 . S
C1567 C1561 1.363 . S
C1567 C1562 1.379 . S
C1567 N1565 1.356 . S
N1568 C1560 1.356 . S
N1568 H1574 0.984 . S
N1568 H1575 0.984 . S
N1569 C1562 1.356 . S
N1569 H1572 0.984 . S
N1569 H1573 0.985 . S
H1570 N1565 0.984 . S
H1571 N1565 0.985 . S
H1572 N1569 0.984 . S
H1573 N1569 0.985 . S
H1574 N1568 0.984 . S
H1575 N1568 0.984 . S
H1576 N1564 0.984 . S
H1577 N1564 0.985 . S
C1578 C1579 1.363 . S
C1578 C1584 1.379 . S
C1578 N1586 1.356 . S
C1579 C1578 1.363 . S
C1579 C1585 1.363 . S
C1580 C1581 1.363 . S
C1580 C1585 1.379 . S
C1580 N1587 1.356 . S
C1581 C1580 1.363 . S
C1581 C1584 1.363 . S
N1582 C1584 1.356 . S
N1582 H1594 0.984 . S
N1582 H1595 0.985 . S
N1583 C1585 1.356 . S
N1583 H1588 0.984 . S
N1583 H1589 0.985 . S
C1584 C1578 1.379 . S
C1584 C1581 1.363 . S
C1584 N1582 1.356 . S
C1585 C1579 1.363 . S
C1585 C1580 1.379 . S
C1585 N1583 1.356 . S
N1586 C1578 1.356 . S
N1586 H1592 0.984 . S
N1586 H1593 0.984 . S
N1587 C1580 1.356 . S
N1587 H1590 0.984 . S
N1587 H1591 0.985 . S
H1588 N1583 0.984 . S
H1589 N1583 0.985 . S
H1590 N1587 0.984 . S
H1591 N1587 0.985 . S
H1592 N1586 0.984 . S
H1593 N1586 0.984 . S
H1594 N1582 0.984 . S
H1595 N1582 0.985 . S
C1596 C1597 1.363 . S
C1596 C1602 1.379 . S
C1596 N1604 1.356 . S
C1597 C1596 1.363 . S
C1597 C1603 1.363 . S
C1598 C1599 1.363 . S
C1598 C1603 1.379 . S
C1598 N1605 1.356 . S
C1599 C1598 1.363 . S
C1599 C1602 1.363 . S
N1600 C1602 1.356 . S
N1600 H1612 0.984 . S
N1600 H1613 0.985 . S
N1601 C1603 1.356 . S
N1601 H1606 0.984 . S
N1601 H1607 0.985 . S
C1602 C1596 1.379 . S
C1602 C1599 1.363 . S
C1602 N1600 1.356 . S
C1603 C1597 1.363 . S
C1603 C1598 1.379 . S
C1603 N1601 1.356 . S
N1604 C1596 1.356 . S
N1604 H1610 0.984 . S
N1604 H1611 0.984 . S
N1605 C1598 1.356 . S
N1605 H1608 0.984 . S
N1605 H1609 0.985 . S
H1606 N1601 0.984 . S
H1607 N1601 0.985 . S
H1608 N1605 0.984 . S
H1609 N1605 0.985 . S
H1610 N1604 0.984 . S
H1611 N1604 0.984 . S
H1612 N1600 0.984 . S
H1613 N1600 0.985 . S
C1614 C1615 1.363 . S
C1614 C1620 1.379 . S
C1614 N1622 1.356 . S
C1615 C1614 1.363 . S
C1615 C1621 1.363 . S
C1616 C1617 1.363 . S
C1616 C1621 1.379 . S
C1616 N1623 1.356 . S
C1617 C1616 1.363 . S
C1617 C1620 1.363 . S
N1618 C1620 1.356 . S
N1618 H1630 0.984 . S
N1618 H1631 0.985 . S
N1619 C1621 1.356 . S
N1619 H1624 0.984 . S
N1619 H1625 0.985 . S
C1620 C1614 1.379 . S
C1620 C1617 1.363 . S
C1620 N1618 1.356 . S
C1621 C1615 1.363 . S
C1621 C1616 1.379 . S
C1621 N1619 1.356 . S
N1622 C1614 1.356 . S
N1622 H1628 0.984 . S
N1622 H1629 0.984 . S
N1623 C1616 1.356 . S
N1623 H1626 0.984 . S
N1623 H1627 0.985 . S
H1624 N1619 0.984 . S
H1625 N1619 0.985 . S
H1626 N1623 0.984 . S
H1627 N1623 0.985 . S
H1628 N1622 0.984 . S
H1629 N1622 0.984 . S
H1630 N1618 0.984 . S
H1631 N1618 0.985 . S
C1632 C1633 1.363 . S
C1632 C1638 1.379 . S
C1632 N1640 1.356 . S
C1633 C1632 1.363 . S
C1633 C1639 1.363 . S
C1634 C1635 1.363 . S
C1634 C1639 1.379 . S
C1634 N1641 1.356 . S
C1635 C1634 1.363 . S
C1635 C1638 1.363 . S
N1636 C1638 1.356 . S
N1636 H1648 0.984 . S
N1636 H1649 0.985 . S
N1637 C1639 1.356 . S
N1637 H1642 0.984 . S
N1637 H1643 0.985 . S
C1638 C1632 1.379 . S
C1638 C1635 1.363 . S
C1638 N1636 1.356 . S
C1639 C1633 1.363 . S
C1639 C1634 1.379 . S
C1639 N1637 1.356 . S
N1640 C1632 1.356 . S
N1640 H1646 0.984 . S
N1640 H1647 0.984 . S
N1641 C1634 1.356 . S
N1641 H1644 0.984 . S
N1641 H1645 0.985 . S
H1642 N1637 0.984 . S
H1643 N1637 0.985 . S
H1644 N1641 0.984 . S
H1645 N1641 0.985 . S
H1646 N1640 0.984 . S
H1647 N1640 0.984 . S
H1648 N1636 0.984 . S
H1649 N1636 0.985 . S
C1650 C1651 1.363 . S
C1650 C1656 1.379 . S
C1650 N1658 1.356 . S
C1651 C1650 1.363 . S
C1651 C1657 1.363 . S
C1652 C1653 1.363 . S
C1652 C1657 1.379 . S
C1652 N1659 1.356 . S
C1653 C1652 1.363 . S
C1653 C1656 1.363 . S
N1654 C1656 1.356 . S
N1654 H1666 0.984 . S
N1654 H1667 0.985 . S
N1655 C1657 1.356 . S
N1655 H1660 0.984 . S
N1655 H1661 0.985 . S
C1656 C1650 1.379 . S
C1656 C1653 1.363 . S
C1656 N1654 1.356 . S
C1657 C1651 1.363 . S
C1657 C1652 1.379 . S
C1657 N1655 1.356 . S
N1658 C1650 1.356 . S
N1658 H1664 0.984 . S
N1658 H1665 0.984 . S
N1659 C1652 1.356 . S
N1659 H1662 0.984 . S
N1659 H1663 0.985 . S
H1660 N1655 0.984 . S
H1661 N1655 0.985 . S
H1662 N1659 0.984 . S
H1663 N1659 0.985 . S
H1664 N1658 0.984 . S
H1665 N1658 0.984 . S
H1666 N1654 0.984 . S
H1667 N1654 0.985 . S
C1668 C1669 1.363 . S
C1668 C1674 1.379 . S
C1668 N1676 1.356 . S
C1669 C1668 1.363 . S
C1669 C1675 1.363 . S
C1670 C1671 1.363 . S
C1670 C1675 1.379 . S
C1670 N1677 1.356 . S
C1671 C1670 1.363 . S
C1671 C1674 1.363 . S
N1672 C1674 1.356 . S
N1672 H1684 0.984 . S
N1672 H1685 0.985 . S
N1673 C1675 1.356 . S
N1673 H1678 0.984 . S
N1673 H1679 0.985 . S
C1674 C1668 1.379 . S
C1674 C1671 1.363 . S
C1674 N1672 1.356 . S
C1675 C1669 1.363 . S
C1675 C1670 1.379 . S
C1675 N1673 1.356 . S
N1676 C1668 1.356 . S
N1676 H1682 0.984 . S
N1676 H1683 0.984 . S
N1677 C1670 1.356 . S
N1677 H1680 0.984 . S
N1677 H1681 0.985 . S
H1678 N1673 0.984 . S
H1679 N1673 0.985 . S
H1680 N1677 0.984 . S
H1681 N1677 0.985 . S
H1682 N1676 0.984 . S
H1683 N1676 0.984 . S
H1684 N1672 0.984 . S
H1685 N1672 0.985 . S
C1686 C1687 1.363 . S
C1686 C1692 1.379 . S
C1686 N1694 1.356 . S
C1687 C1686 1.363 . S
C1687 C1693 1.363 . S
C1688 C1689 1.363 . S
C1688 C1693 1.379 . S
C1688 N1695 1.356 . S
C1689 C1688 1.363 . S
C1689 C1692 1.363 . S
N1690 C1692 1.356 . S
N1690 H1702 0.984 . S
N1690 H1703 0.985 . S
N1691 C1693 1.356 . S
N1691 H1696 0.984 . S
N1691 H1697 0.985 . S
C1692 C1686 1.379 . S
C1692 C1689 1.363 . S
C1692 N1690 1.356 . S
C1693 C1687 1.363 . S
C1693 C1688 1.379 . S
C1693 N1691 1.356 . S
N1694 C1686 1.356 . S
N1694 H1700 0.984 . S
N1694 H1701 0.984 . S
N1695 C1688 1.356 . S
N1695 H1698 0.984 . S
N1695 H1699 0.985 . S
H1696 N1691 0.984 . S
H1697 N1691 0.985 . S
H1698 N1695 0.984 . S
H1699 N1695 0.985 . S
H1700 N1694 0.984 . S
H1701 N1694 0.984 . S
H1702 N1690 0.984 . S
H1703 N1690 0.985 . S
C1704 C1705 1.363 . S
C1704 C1710 1.379 . S
C1704 N1712 1.356 . S
C1705 C1704 1.363 . S
C1705 C1711 1.363 . S
C1706 C1707 1.363 . S
C1706 C1711 1.379 . S
C1706 N1713 1.356 . S
C1707 C1706 1.363 . S
C1707 C1710 1.363 . S
N1708 C1710 1.356 . S
N1708 H1720 0.984 . S
N1708 H1721 0.985 . S
N1709 C1711 1.356 . S
N1709 H1714 0.984 . S
N1709 H1715 0.985 . S
C1710 C1704 1.379 . S
C1710 C1707 1.363 . S
C1710 N1708 1.356 . S
C1711 C1705 1.363 . S
C1711 C1706 1.379 . S
C1711 N1709 1.356 . S
N1712 C1704 1.356 . S
N1712 H1718 0.984 . S
N1712 H1719 0.984 . S
N1713 C1706 1.356 . S
N1713 H1716 0.984 . S
N1713 H1717 0.985 . S
H1714 N1709 0.984 . S
H1715 N1709 0.985 . S
H1716 N1713 0.984 . S
H1717 N1713 0.985 . S
H1718 N1712 0.984 . S
H1719 N1712 0.984 . S
H1720 N1708 0.984 . S
H1721 N1708 0.985 . S
C1722 C1723 1.363 . S
C1722 C1728 1.379 . S
C1722 N1730 1.356 . S
C1723 C1722 1.363 . S
C1723 C1729 1.363 . S
C1724 C1725 1.363 . S
C1724 C1729 1.379 . S
C1724 N1731 1.356 . S
C1725 C1724 1.363 . S
C1725 C1728 1.363 . S
N1726 C1728 1.356 . S
N1726 H1738 0.984 . S
N1726 H1739 0.985 . S
N1727 C1729 1.356 . S
N1727 H1732 0.984 . S
N1727 H1733 0.985 . S
C1728 C1722 1.379 . S
C1728 C1725 1.363 . S
C1728 N1726 1.356 . S
C1729 C1723 1.363 . S
C1729 C1724 1.379 . S
C1729 N1727 1.356 . S
N1730 C1722 1.356 . S
N1730 H1736 0.984 . S
N1730 H1737 0.984 . S
N1731 C1724 1.356 . S
N1731 H1734 0.984 . S
N1731 H1735 0.985 . S
H1732 N1727 0.984 . S
H1733 N1727 0.985 . S
H1734 N1731 0.984 . S
H1735 N1731 0.985 . S
H1736 N1730 0.984 . S
H1737 N1730 0.984 . S
H1738 N1726 0.984 . S
H1739 N1726 0.985 . S
C1740 C1741 1.363 . S
C1740 C1746 1.379 . S
C1740 N1748 1.356 . S
C1741 C1740 1.363 . S
C1741 C1747 1.363 . S
C1742 C1743 1.363 . S
C1742 C1747 1.379 . S
C1742 N1749 1.356 . S
C1743 C1742 1.363 . S
C1743 C1746 1.363 . S
N1744 C1746 1.356 . S
N1744 H1756 0.984 . S
N1744 H1757 0.985 . S
N1745 C1747 1.356 . S
N1745 H1750 0.984 . S
N1745 H1751 0.985 . S
C1746 C1740 1.379 . S
C1746 C1743 1.363 . S
C1746 N1744 1.356 . S
C1747 C1741 1.363 . S
C1747 C1742 1.379 . S
C1747 N1745 1.356 . S
N1748 C1740 1.356 . S
N1748 H1754 0.984 . S
N1748 H1755 0.984 . S
N1749 C1742 1.356 . S
N1749 H1752 0.984 . S
N1749 H1753 0.985 . S
H1750 N1745 0.984 . S
H1751 N1745 0.985 . S
H1752 N1749 0.984 . S
H1753 N1749 0.985 . S
H1754 N1748 0.984 . S
H1755 N1748 0.984 . S
H1756 N1744 0.984 . S
H1757 N1744 0.985 . S
C1758 C1759 1.363 . S
C1758 C1764 1.379 . S
C1758 N1766 1.356 . S
C1759 C1758 1.363 . S
C1759 C1765 1.363 . S
C1760 C1761 1.363 . S
C1760 C1765 1.379 . S
C1760 N1767 1.356 . S
C1761 C1760 1.363 . S
C1761 C1764 1.363 . S
N1762 C1764 1.356 . S
N1762 H1774 0.984 . S
N1762 H1775 0.985 . S
N1763 C1765 1.356 . S
N1763 H1768 0.984 . S
N1763 H1769 0.985 . S
C1764 C1758 1.379 . S
C1764 C1761 1.363 . S
C1764 N1762 1.356 . S
C1765 C1759 1.363 . S
C1765 C1760 1.379 . S
C1765 N1763 1.356 . S
N1766 C1758 1.356 . S
N1766 H1772 0.984 . S
N1766 H1773 0.984 . S
N1767 C1760 1.356 . S
N1767 H1770 0.984 . S
N1767 H1771 0.985 . S
H1768 N1763 0.984 . S
H1769 N1763 0.985 . S
H1770 N1767 0.984 . S
H1771 N1767 0.985 . S
H1772 N1766 0.984 . S
H1773 N1766 0.984 . S
H1774 N1762 0.984 . S
H1775 N1762 0.985 . S
C1776 C1777 1.363 . S
C1776 C1782 1.379 . S
C1776 N1784 1.356 . S
C1777 C1776 1.363 . S
C1777 C1783 1.363 . S
C1778 C1779 1.363 . S
C1778 C1783 1.379 . S
C1778 N1785 1.356 . S
C1779 C1778 1.363 . S
C1779 C1782 1.363 . S
N1780 C1782 1.356 . S
N1780 H1792 0.984 . S
N1780 H1793 0.985 . S
N1781 C1783 1.356 . S
N1781 H1786 0.984 . S
N1781 H1787 0.985 . S
C1782 C1776 1.379 . S
C1782 C1779 1.363 . S
C1782 N1780 1.356 . S
C1783 C1777 1.363 . S
C1783 C1778 1.379 . S
C1783 N1781 1.356 . S
N1784 C1776 1.356 . S
N1784 H1790 0.984 . S
N1784 H1791 0.984 . S
N1785 C1778 1.356 . S
N1785 H1788 0.984 . S
N1785 H1789 0.985 . S
H1786 N1781 0.984 . S
H1787 N1781 0.985 . S
H1788 N1785 0.984 . S
H1789 N1785 0.985 . S
H1790 N1784 0.984 . S
H1791 N1784 0.984 . S
H1792 N1780 0.984 . S
H1793 N1780 0.985 . S
C1794 C1795 1.363 . S
C1794 C1800 1.379 . S
C1794 N1802 1.356 . S
C1795 C1794 1.363 . S
C1795 C1801 1.363 . S
C1796 C1797 1.363 . S
C1796 C1801 1.379 . S
C1796 N1803 1.356 . S
C1797 C1796 1.363 . S
C1797 C1800 1.363 . S
N1798 C1800 1.356 . S
N1798 H1810 0.984 . S
N1798 H1811 0.985 . S
N1799 C1801 1.356 . S
N1799 H1804 0.984 . S
N1799 H1805 0.985 . S
C1800 C1794 1.379 . S
C1800 C1797 1.363 . S
C1800 N1798 1.356 . S
C1801 C1795 1.363 . S
C1801 C1796 1.379 . S
C1801 N1799 1.356 . S
N1802 C1794 1.356 . S
N1802 H1808 0.984 . S
N1802 H1809 0.984 . S
N1803 C1796 1.356 . S
N1803 H1806 0.984 . S
N1803 H1807 0.985 . S
H1804 N1799 0.984 . S
H1805 N1799 0.985 . S
H1806 N1803 0.984 . S
H1807 N1803 0.985 . S
H1808 N1802 0.984 . S
H1809 N1802 0.984 . S
H1810 N1798 0.984 . S
H1811 N1798 0.985 . S
C1812 C1813 1.363 . S
C1812 C1818 1.379 . S
C1812 N1820 1.356 . S
C1813 C1812 1.363 . S
C1813 C1819 1.363 . S
C1814 C1815 1.363 . S
C1814 C1819 1.379 . S
C1814 N1821 1.356 . S
C1815 C1814 1.363 . S
C1815 C1818 1.363 . S
N1816 C1818 1.356 . S
N1816 H1828 0.984 . S
N1816 H1829 0.985 . S
N1817 C1819 1.356 . S
N1817 H1822 0.984 . S
N1817 H1823 0.985 . S
C1818 C1812 1.379 . S
C1818 C1815 1.363 . S
C1818 N1816 1.356 . S
C1819 C1813 1.363 . S
C1819 C1814 1.379 . S
C1819 N1817 1.356 . S
N1820 C1812 1.356 . S
N1820 H1826 0.984 . S
N1820 H1827 0.984 . S
N1821 C1814 1.356 . S
N1821 H1824 0.984 . S
N1821 H1825 0.985 . S
H1822 N1817 0.984 . S
H1823 N1817 0.985 . S
H1824 N1821 0.984 . S
H1825 N1821 0.985 . S
H1826 N1820 0.984 . S
H1827 N1820 0.984 . S
H1828 N1816 0.984 . S
H1829 N1816 0.985 . S
C1830 C1831 1.363 . S
C1830 C1836 1.379 . S
C1830 N1838 1.356 . S
C1831 C1830 1.363 . S
C1831 C1837 1.363 . S
C1832 C1833 1.363 . S
C1832 C1837 1.379 . S
C1832 N1839 1.356 . S
C1833 C1832 1.363 . S
C1833 C1836 1.363 . S
N1834 C1836 1.356 . S
N1834 H1846 0.984 . S
N1834 H1847 0.985 . S
N1835 C1837 1.356 . S
N1835 H1840 0.984 . S
N1835 H1841 0.985 . S
C1836 C1830 1.379 . S
C1836 C1833 1.363 . S
C1836 N1834 1.356 . S
C1837 C1831 1.363 . S
C1837 C1832 1.379 . S
C1837 N1835 1.356 . S
N1838 C1830 1.356 . S
N1838 H1844 0.984 . S
N1838 H1845 0.984 . S
N1839 C1832 1.356 . S
N1839 H1842 0.984 . S
N1839 H1843 0.985 . S
H1840 N1835 0.984 . S
H1841 N1835 0.985 . S
H1842 N1839 0.984 . S
H1843 N1839 0.985 . S
H1844 N1838 0.984 . S
H1845 N1838 0.984 . S
H1846 N1834 0.984 . S
H1847 N1834 0.985 . S
C1848 C1849 1.363 . S
C1848 C1854 1.379 . S
C1848 N1856 1.356 . S
C1849 C1848 1.363 . S
C1849 C1855 1.363 . S
C1850 C1851 1.363 . S
C1850 C1855 1.379 . S
C1850 N1857 1.356 . S
C1851 C1850 1.363 . S
C1851 C1854 1.363 . S
N1852 C1854 1.356 . S
N1852 H1864 0.984 . S
N1852 H1865 0.985 . S
N1853 C1855 1.356 . S
N1853 H1858 0.984 . S
N1853 H1859 0.985 . S
C1854 C1848 1.379 . S
C1854 C1851 1.363 . S
C1854 N1852 1.356 . S
C1855 C1849 1.363 . S
C1855 C1850 1.379 . S
C1855 N1853 1.356 . S
N1856 C1848 1.356 . S
N1856 H1862 0.984 . S
N1856 H1863 0.984 . S
N1857 C1850 1.356 . S
N1857 H1860 0.984 . S
N1857 H1861 0.985 . S
H1858 N1853 0.984 . S
H1859 N1853 0.985 . S
H1860 N1857 0.984 . S
H1861 N1857 0.985 . S
H1862 N1856 0.984 . S
H1863 N1856 0.984 . S
H1864 N1852 0.984 . S
H1865 N1852 0.985 . S
C1866 C1867 1.363 . S
C1866 C1872 1.379 . S
C1866 N1874 1.356 . S
C1867 C1866 1.363 . S
C1867 C1873 1.363 . S
C1868 C1869 1.363 . S
C1868 C1873 1.379 . S
C1868 N1875 1.356 . S
C1869 C1868 1.363 . S
C1869 C1872 1.363 . S
N1870 C1872 1.356 . S
N1870 H1882 0.984 . S
N1870 H1883 0.985 . S
N1871 C1873 1.356 . S
N1871 H1876 0.984 . S
N1871 H1877 0.985 . S
C1872 C1866 1.379 . S
C1872 C1869 1.363 . S
C1872 N1870 1.356 . S
C1873 C1867 1.363 . S
C1873 C1868 1.379 . S
C1873 N1871 1.356 . S
N1874 C1866 1.356 . S
N1874 H1880 0.984 . S
N1874 H1881 0.984 . S
N1875 C1868 1.356 . S
N1875 H1878 0.984 . S
N1875 H1879 0.985 . S
H1876 N1871 0.984 . S
H1877 N1871 0.985 . S
H1878 N1875 0.984 . S
H1879 N1875 0.985 . S
H1880 N1874 0.984 . S
H1881 N1874 0.984 . S
H1882 N1870 0.984 . S
H1883 N1870 0.985 . S
C1884 C1885 1.363 . S
C1884 C1890 1.379 . S
C1884 N1892 1.356 . S
C1885 C1884 1.363 . S
C1885 C1891 1.363 . S
C1886 C1887 1.363 . S
C1886 C1891 1.379 . S
C1886 N1893 1.356 . S
C1887 C1886 1.363 . S
C1887 C1890 1.363 . S
N1888 C1890 1.356 . S
N1888 H1900 0.984 . S
N1888 H1901 0.985 . S
N1889 C1891 1.356 . S
N1889 H1894 0.984 . S
N1889 H1895 0.985 . S
C1890 C1884 1.379 . S
C1890 C1887 1.363 . S
C1890 N1888 1.356 . S
C1891 C1885 1.363 . S
C1891 C1886 1.379 . S
C1891 N1889 1.356 . S
N1892 C1884 1.356 . S
N1892 H1898 0.984 . S
N1892 H1899 0.984 . S
N1893 C1886 1.356 . S
N1893 H1896 0.984 . S
N1893 H1897 0.985 . S
H1894 N1889 0.984 . S
H1895 N1889 0.985 . S
H1896 N1893 0.984 . S
H1897 N1893 0.985 . S
H1898 N1892 0.984 . S
H1899 N1892 0.984 . S
H1900 N1888 0.984 . S
H1901 N1888 0.985 . S
C1902 C1903 1.363 . S
C1902 C1908 1.379 . S
C1902 N1910 1.356 . S
C1903 C1902 1.363 . S
C1903 C1909 1.363 . S
C1904 C1905 1.363 . S
C1904 C1909 1.379 . S
C1904 N1911 1.356 . S
C1905 C1904 1.363 . S
C1905 C1908 1.363 . S
N1906 C1908 1.356 . S
N1906 H1918 0.984 . S
N1906 H1919 0.985 . S
N1907 C1909 1.356 . S
N1907 H1912 0.984 . S
N1907 H1913 0.985 . S
C1908 C1902 1.379 . S
C1908 C1905 1.363 . S
C1908 N1906 1.356 . S
C1909 C1903 1.363 . S
C1909 C1904 1.379 . S
C1909 N1907 1.356 . S
N1910 C1902 1.356 . S
N1910 H1916 0.984 . S
N1910 H1917 0.984 . S
N1911 C1904 1.356 . S
N1911 H1914 0.984 . S
N1911 H1915 0.985 . S
H1912 N1907 0.984 . S
H1913 N1907 0.985 . S
H1914 N1911 0.984 . S
H1915 N1911 0.985 . S
H1916 N1910 0.984 . S
H1917 N1910 0.984 . S
H1918 N1906 0.984 . S
H1919 N1906 0.985 . S
C1920 C1921 1.363 . S
C1920 C1926 1.379 . S
C1920 N1928 1.356 . S
C1921 C1920 1.363 . S
C1921 C1927 1.363 . S
C1922 C1923 1.363 . S
C1922 C1927 1.379 . S
C1922 N1929 1.356 . S
C1923 C1922 1.363 . S
C1923 C1926 1.363 . S
N1924 C1926 1.356 . S
N1924 H1936 0.984 . S
N1924 H1937 0.985 . S
N1925 C1927 1.356 . S
N1925 H1930 0.984 . S
N1925 H1931 0.985 . S
C1926 C1920 1.379 . S
C1926 C1923 1.363 . S
C1926 N1924 1.356 . S
C1927 C1921 1.363 . S
C1927 C1922 1.379 . S
C1927 N1925 1.356 . S
N1928 C1920 1.356 . S
N1928 H1934 0.984 . S
N1928 H1935 0.984 . S
N1929 C1922 1.356 . S
N1929 H1932 0.984 . S
N1929 H1933 0.985 . S
H1930 N1925 0.984 . S
H1931 N1925 0.985 . S
H1932 N1929 0.984 . S
H1933 N1929 0.985 . S
H1934 N1928 0.984 . S
H1935 N1928 0.984 . S
H1936 N1924 0.984 . S
H1937 N1924 0.985 . S
C1938 C1939 1.363 1_455 S
C1938 C1944 1.379 1_455 S
C1938 N1946 1.356 . S
C1939 C1938 1.363 1_655 S
C1939 C1945 1.363 . S
C1940 C1941 1.363 . S
C1940 C1945 1.379 . S
C1940 N1947 1.356 . S
C1941 C1940 1.363 . S
C1941 C1944 1.363 . S
N1942 C1944 1.356 1_455 S
N1942 H1954 0.984 1_545 S
N1942 H1955 0.985 1_455 S
N1943 C1945 1.356 . S
N1943 H1948 0.984 . S
N1943 H1949 0.985 . S
C1944 C1938 1.379 1_655 S
C1944 C1941 1.363 . S
C1944 N1942 1.356 1_655 S
C1945 C1939 1.363 . S
C1945 C1940 1.379 . S
C1945 N1943 1.356 . S
N1946 C1938 1.356 . S
N1946 H1952 0.984 . S
N1946 H1953 0.984 . S
N1947 C1940 1.356 . S
N1947 H1950 0.984 . S
N1947 H1951 0.985 . S
H1948 N1943 0.984 . S
H1949 N1943 0.985 . S
H1950 N1947 0.984 . S
H1951 N1947 0.985 . S
H1952 N1946 0.984 . S
H1953 N1946 0.984 . S
H1954 N1942 0.984 1_565 S
H1955 N1942 0.985 1_655 S
C1956 C1957 1.363 . S
C1956 C1962 1.379 . S
C1956 N1964 1.356 . S
C1957 C1956 1.363 . S
C1957 C1963 1.363 . S
C1958 C1959 1.363 . S
C1958 C1963 1.379 . S
C1958 N1965 1.356 . S
C1959 C1958 1.363 . S
C1959 C1962 1.363 . S
N1960 C1962 1.356 . S
N1960 H1972 0.984 . S
N1960 H1973 0.985 . S
N1961 C1963 1.356 . S
N1961 H1966 0.984 . S
N1961 H1967 0.985 . S
C1962 C1956 1.379 . S
C1962 C1959 1.363 . S
C1962 N1960 1.356 . S
C1963 C1957 1.363 . S
C1963 C1958 1.379 . S
C1963 N1961 1.356 . S
N1964 C1956 1.356 . S
N1964 H1970 0.984 . S
N1964 H1971 0.984 . S
N1965 C1958 1.356 . S
N1965 H1968 0.984 . S
N1965 H1969 0.985 . S
H1966 N1961 0.984 . S
H1967 N1961 0.985 . S
H1968 N1965 0.984 . S
H1969 N1965 0.985 . S
H1970 N1964 0.984 . S
H1971 N1964 0.984 . S
H1972 N1960 0.984 . S
H1973 N1960 0.985 . S
C1974 C1975 1.363 1_455 S
C1974 C1980 1.379 . S
C1974 N1982 1.356 . S
C1975 C1974 1.363 1_655 S
C1975 C1981 1.363 . S
C1976 C1977 1.363 . S
C1976 C1981 1.379 . S
C1976 N1983 1.356 . S
C1977 C1976 1.363 . S
C1977 C1980 1.363 1_655 S
N1978 C1980 1.356 . S
N1978 H1990 0.984 . S
N1978 H1991 0.985 1_455 S
N1979 C1981 1.356 . S
N1979 H1984 0.984 . S
N1979 H1985 0.985 . S
C1980 C1974 1.379 . S
C1980 C1977 1.363 1_455 S
C1980 N1978 1.356 . S
C1981 C1975 1.363 . S
C1981 C1976 1.379 . S
C1981 N1979 1.356 . S
N1982 C1974 1.356 . S
N1982 H1988 0.984 . S
N1982 H1989 0.984 . S
N1983 C1976 1.356 . S
N1983 H1986 0.984 . S
N1983 H1987 0.985 . S
H1984 N1979 0.984 . S
H1985 N1979 0.985 . S
H1986 N1983 0.984 . S
H1987 N1983 0.985 . S
H1988 N1982 0.984 . S
H1989 N1982 0.984 . S
H1990 N1978 0.984 . S
H1991 N1978 0.985 1_655 S
C1992 C1993 1.363 . S
C1992 C1998 1.379 . S
C1992 N2000 1.356 . S
C1993 C1992 1.363 . S
C1993 C1999 1.363 . S
C1994 C1995 1.363 . S
C1994 C1999 1.379 . S
C1994 N2001 1.356 . S
C1995 C1994 1.363 . S
C1995 C1998 1.363 . S
N1996 C1998 1.356 . S
N1996 H2008 0.984 . S
N1996 H2009 0.985 . S
N1997 C1999 1.356 . S
N1997 H2002 0.984 . S
N1997 H2003 0.985 . S
C1998 C1992 1.379 . S
C1998 C1995 1.363 . S
C1998 N1996 1.356 . S
C1999 C1993 1.363 . S
C1999 C1994 1.379 . S
C1999 N1997 1.356 . S
N2000 C1992 1.356 . S
N2000 H2006 0.984 . S
N2000 H2007 0.984 . S
N2001 C1994 1.356 . S
N2001 H2004 0.984 . S
N2001 H2005 0.985 . S
H2002 N1997 0.984 . S
H2003 N1997 0.985 . S
H2004 N2001 0.984 . S
H2005 N2001 0.985 . S
H2006 N2000 0.984 . S
H2007 N2000 0.984 . S
H2008 N1996 0.984 . S
H2009 N1996 0.985 . S
C2010 C2011 1.363 . S
C2010 C2016 1.379 . S
C2010 N2018 1.356 . S
C2011 C2010 1.363 . S
C2011 C2017 1.363 . S
C2012 C2013 1.363 . S
C2012 C2017 1.379 . S
C2012 N2019 1.356 . S
C2013 C2012 1.363 . S
C2013 C2016 1.363 . S
N2014 C2016 1.356 1_655 S
N2014 H2026 0.984 . S
N2014 H2027 0.985 . S
N2015 C2017 1.356 . S
N2015 H2020 0.984 . S
N2015 H2021 0.985 . S
C2016 C2010 1.379 . S
C2016 C2013 1.363 . S
C2016 N2014 1.356 1_455 S
C2017 C2011 1.363 . S
C2017 C2012 1.379 . S
C2017 N2015 1.356 . S
N2018 C2010 1.356 . S
N2018 H2024 0.984 1_565 S
N2018 H2025 0.979 1_565 S
N2019 C2012 1.356 . S
N2019 H2022 0.995 . S
N2019 H2023 0.985 . S
H2020 N2015 0.984 . S
H2021 N2015 0.985 . S
H2022 N2019 0.995 . S
H2023 N2019 0.985 . S
H2024 N2018 0.984 1_545 S
H2025 N2018 0.979 1_545 S
H2026 N2014 0.984 . S
H2027 N2014 0.985 . S
C2028 C2029 1.363 . S
C2028 C2034 1.379 . S
C2028 N2036 1.356 . S
C2029 C2028 1.363 . S
C2029 C2035 1.363 . S
C2030 C2031 1.363 . S
C2030 C2035 1.379 . S
C2030 N2037 1.356 . S
C2031 C2030 1.363 . S
C2031 C2034 1.363 . S
N2032 C2034 1.356 . S
N2032 H2044 0.984 1_554 S
N2032 H2045 0.985 1_554 S
N2033 C2035 1.356 . S
N2033 H2038 0.984 . S
N2033 H2039 0.985 . S
C2034 C2028 1.379 . S
C2034 C2031 1.363 . S
C2034 N2032 1.356 . S
C2035 C2029 1.363 . S
C2035 C2030 1.379 . S
C2035 N2033 1.356 . S
N2036 C2028 1.356 . S
N2036 H2042 0.984 . S
N2036 H2043 0.984 . S
N2037 C2030 1.356 . S
N2037 H2040 0.984 . S
N2037 H2041 0.985 . S
H2038 N2033 0.984 . S
H2039 N2033 0.985 . S
H2040 N2037 0.984 . S
H2041 N2037 0.985 . S
H2042 N2036 0.984 . S
H2043 N2036 0.984 . S
H2044 N2032 0.984 1_556 S
H2045 N2032 0.985 1_556 S
C2046 C2047 1.363 . S
C2046 C2052 1.379 . S
C2046 N2054 1.356 . S
C2047 C2046 1.363 . S
C2047 C2053 1.363 . S
C2048 C2049 1.363 . S
C2048 C2053 1.379 . S
C2048 N2055 1.356 . S
C2049 C2048 1.363 . S
C2049 C2052 1.363 . S
N2050 C2052 1.356 1_655 S
N2050 H2062 0.984 . S
N2050 H2063 0.985 . S
N2051 C2053 1.356 . S
N2051 H2056 0.984 . S
N2051 H2057 0.985 . S
C2052 C2046 1.379 . S
C2052 C2049 1.363 . S
C2052 N2050 1.356 1_455 S
C2053 C2047 1.363 . S
C2053 C2048 1.379 . S
C2053 N2051 1.356 . S
N2054 C2046 1.356 . S
N2054 H2060 0.984 . S
N2054 H2061 0.984 . S
N2055 C2048 1.356 . S
N2055 H2058 0.986 . S
N2055 H2059 0.985 . S
H2056 N2051 0.984 . S
H2057 N2051 0.985 . S
H2058 N2055 0.986 . S
H2059 N2055 0.985 . S
H2060 N2054 0.984 . S
H2061 N2054 0.984 . S
H2062 N2050 0.984 . S
H2063 N2050 0.985 . S
C2064 C2065 1.363 . S
C2064 C2070 1.379 . S
C2064 N2072 1.356 . S
C2065 C2064 1.363 . S
C2065 C2071 1.363 . S
C2066 C2067 1.363 . S
C2066 C2071 1.379 . S
C2066 N2073 1.356 . S
C2067 C2066 1.363 . S
C2067 C2070 1.363 . S
N2068 C2070 1.356 . S
N2068 H2080 0.984 . S
N2068 H2081 0.985 . S
N2069 C2071 1.356 . S
N2069 H2074 0.984 . S
N2069 H2075 0.985 . S
C2070 C2064 1.379 . S
C2070 C2067 1.363 . S
C2070 N2068 1.356 . S
C2071 C2065 1.363 . S
C2071 C2066 1.379 . S
C2071 N2069 1.356 . S
N2072 C2064 1.356 . S
N2072 H2078 0.984 . S
N2072 H2079 0.984 . S
N2073 C2066 1.356 . S
N2073 H2076 0.984 . S
N2073 H2077 0.985 . S
H2074 N2069 0.984 . S
H2075 N2069 0.985 . S
H2076 N2073 0.984 . S
H2077 N2073 0.985 . S
H2078 N2072 0.984 . S
H2079 N2072 0.984 . S
H2080 N2068 0.984 . S
H2081 N2068 0.985 . S
C2082 C2083 1.363 . S
C2082 C2088 1.379 . S
C2082 N2090 1.356 . S
C2083 C2082 1.363 . S
C2083 C2089 1.363 1_655 S
C2084 C2085 1.363 1_455 S
C2084 C2089 1.379 . S
C2084 N2091 1.356 . S
C2085 C2084 1.363 1_655 S
C2085 C2088 1.363 . S
N2086 C2088 1.356 . S
N2086 H2098 0.984 . S
N2086 H2099 0.985 . S
N2087 C2089 1.356 . S
N2087 H2092 0.984 . S
N2087 H2093 0.985 . S
C2088 C2082 1.379 . S
C2088 C2085 1.363 . S
C2088 N2086 1.356 . S
C2089 C2083 1.363 1_455 S
C2089 C2084 1.379 . S
C2089 N2087 1.356 . S
N2090 C2082 1.356 . S
N2090 H2096 0.984 . S
N2090 H2097 0.984 . S
N2091 C2084 1.356 . S
N2091 H2094 0.984 1_455 S
N2091 H2095 0.985 . S
H2092 N2087 0.984 . S
H2093 N2087 0.985 . S
H2094 N2091 0.984 1_655 S
H2095 N2091 0.985 . S
H2096 N2090 0.984 . S
H2097 N2090 0.984 . S
H2098 N2086 0.984 . S
H2099 N2086 0.985 . S
C2100 C2101 1.363 . S
C2100 C2106 1.379 . S
C2100 N2108 1.356 . S
C2101 C2100 1.363 . S
C2101 C2107 1.363 . S
C2102 C2103 1.363 . S
C2102 C2107 1.379 . S
C2102 N2109 1.356 . S
C2103 C2102 1.363 . S
C2103 C2106 1.363 . S
N2104 C2106 1.356 . S
N2104 H2116 0.984 . S
N2104 H2117 0.985 . S
N2105 C2107 1.356 . S
N2105 H2110 0.984 . S
N2105 H2111 0.985 . S
C2106 C2100 1.379 . S
C2106 C2103 1.363 . S
C2106 N2104 1.356 . S
C2107 C2101 1.363 . S
C2107 C2102 1.379 . S
C2107 N2105 1.356 . S
N2108 C2100 1.356 . S
N2108 H2114 0.984 . S
N2108 H2115 0.984 . S
N2109 C2102 1.356 . S
N2109 H2112 0.984 . S
N2109 H2113 0.985 . S
H2110 N2105 0.984 . S
H2111 N2105 0.985 . S
H2112 N2109 0.984 . S
H2113 N2109 0.985 . S
H2114 N2108 0.984 . S
H2115 N2108 0.984 . S
H2116 N2104 0.984 . S
H2117 N2104 0.985 . S
C2118 C2119 1.363 . S
C2118 C2124 1.379 . S
C2118 N2126 1.356 . S
C2119 C2118 1.363 . S
C2119 C2125 1.363 1_655 S
C2120 C2121 1.363 1_455 S
C2120 C2125 1.379 . S
C2120 N2127 1.356 . S
C2121 C2120 1.363 1_655 S
C2121 C2124 1.363 . S
N2122 C2124 1.356 . S
N2122 H2134 0.984 . S
N2122 H2135 0.985 . S
N2123 C2125 1.356 . S
N2123 H2128 0.966 1_455 S
N2123 H2129 0.985 . S
C2124 C2118 1.379 . S
C2124 C2121 1.363 . S
C2124 N2122 1.356 . S
C2125 C2119 1.363 1_455 S
C2125 C2120 1.379 . S
C2125 N2123 1.356 . S
N2126 C2118 1.356 . S
N2126 H2132 0.984 . S
N2126 H2133 0.984 . S
N2127 C2120 1.356 . S
N2127 H2130 0.984 . S
N2127 H2131 0.985 . S
H2128 N2123 0.966 1_655 S
H2129 N2123 0.985 . S
H2130 N2127 0.984 . S
H2131 N2127 0.985 . S
H2132 N2126 0.984 . S
H2133 N2126 0.984 . S
H2134 N2122 0.984 . S
H2135 N2122 0.985 . S
C2136 C2137 1.363 . S
C2136 C2142 1.379 . S
C2136 N2144 1.356 . S
C2137 C2136 1.363 . S
C2137 C2143 1.363 . S
C2138 C2139 1.363 . S
C2138 C2143 1.379 . S
C2138 N2145 1.356 . S
C2139 C2138 1.363 . S
C2139 C2142 1.363 . S
N2140 C2142 1.356 . S
N2140 H2152 0.984 . S
N2140 H2153 0.985 . S
N2141 C2143 1.356 . S
N2141 H2146 0.984 . S
N2141 H2147 0.985 . S
C2142 C2136 1.379 . S
C2142 C2139 1.363 . S
C2142 N2140 1.356 . S
C2143 C2137 1.363 . S
C2143 C2138 1.379 . S
C2143 N2141 1.356 . S
N2144 C2136 1.356 . S
N2144 H2150 0.984 . S
N2144 H2151 0.984 . S
N2145 C2138 1.356 . S
N2145 H2148 0.984 . S
N2145 H2149 0.985 . S
H2146 N2141 0.984 . S
H2147 N2141 0.985 . S
H2148 N2145 0.984 . S
H2149 N2145 0.985 . S
H2150 N2144 0.984 . S
H2151 N2144 0.984 . S
H2152 N2140 0.984 . S
H2153 N2140 0.985 . S
C2154 C2155 1.363 . S
C2154 C2160 1.379 . S
C2154 N2162 1.356 . S
C2155 C2154 1.363 . S
C2155 C2161 1.364 . S
C2156 C2157 1.363 1_655 S
C2156 C2161 1.378 1_655 S
C2156 N2163 1.356 . S
C2157 C2156 1.363 1_455 S
C2157 C2160 1.363 . S
N2158 C2160 1.356 . S
N2158 H2170 0.984 . S
N2158 H2171 0.985 . S
N2159 C2161 1.356 1_655 S
N2159 H2164 0.984 1_655 S
N2159 H2165 0.985 . S
C2160 C2154 1.379 . S
C2160 C2157 1.363 . S
C2160 N2158 1.356 . S
C2161 C2155 1.364 . S
C2161 C2156 1.378 1_455 S
C2161 N2159 1.356 1_455 S
N2162 C2154 1.356 . S
N2162 H2168 0.984 . S
N2162 H2169 0.984 . S
N2163 C2156 1.356 . S
N2163 H2166 0.984 . S
N2163 H2167 0.985 . S
H2164 N2159 0.984 1_455 S
H2165 N2159 0.985 . S
H2166 N2163 0.984 . S
H2167 N2163 0.985 . S
H2168 N2162 0.984 . S
H2169 N2162 0.984 . S
H2170 N2158 0.984 . S
H2171 N2158 0.985 . S
C2172 C2173 1.363 . S
C2172 C2178 1.379 . S
C2172 N2180 1.356 . S
C2173 C2172 1.363 . S
C2173 C2179 1.363 . S
C2174 C2175 1.363 . S
C2174 C2179 1.379 . S
C2174 N2181 1.356 . S
C2175 C2174 1.363 . S
C2175 C2178 1.363 . S
N2176 C2178 1.356 . S
N2176 H2188 0.984 . S
N2176 H2189 0.985 . S
N2177 C2179 1.356 . S
N2177 H2182 0.984 . S
N2177 H2183 0.985 . S
C2178 C2172 1.379 . S
C2178 C2175 1.363 . S
C2178 N2176 1.356 . S
C2179 C2173 1.363 . S
C2179 C2174 1.379 . S
C2179 N2177 1.356 . S
N2180 C2172 1.356 . S
N2180 H2186 0.984 . S
N2180 H2187 0.984 . S
N2181 C2174 1.356 . S
N2181 H2184 0.984 . S
N2181 H2185 0.985 . S
H2182 N2177 0.984 . S
H2183 N2177 0.985 . S
H2184 N2181 0.984 . S
H2185 N2181 0.985 . S
H2186 N2180 0.984 . S
H2187 N2180 0.984 . S
H2188 N2176 0.984 . S
H2189 N2176 0.985 . S
C2190 C2191 1.363 . S
C2190 C2196 1.379 . S
C2190 N2198 1.356 1_455 S
C2191 C2190 1.363 . S
C2191 C2197 1.363 . S
C2192 C2193 1.363 . S
C2192 C2197 1.379 . S
C2192 N2199 1.356 . S
C2193 C2192 1.363 . S
C2193 C2196 1.363 . S
N2194 C2196 1.356 . S
N2194 H2206 0.984 . S
N2194 H2207 0.985 . S
N2195 C2197 1.356 . S
N2195 H2200 0.984 1_455 S
N2195 H2201 0.985 . S
C2196 C2190 1.379 . S
C2196 C2193 1.363 . S
C2196 N2194 1.356 . S
C2197 C2191 1.363 . S
C2197 C2192 1.379 . S
C2197 N2195 1.356 . S
N2198 C2190 1.356 1_655 S
N2198 H2204 0.984 . S
N2198 H2205 0.984 . S
N2199 C2192 1.356 . S
N2199 H2202 0.984 . S
N2199 H2203 0.985 . S
H2200 N2195 0.984 1_655 S
H2201 N2195 0.985 . S
H2202 N2199 0.984 . S
H2203 N2199 0.985 . S
H2204 N2198 0.984 . S
H2205 N2198 0.984 . S
H2206 N2194 0.984 . S
H2207 N2194 0.985 . S
C2208 C2209 1.363 . S
C2208 C2214 1.379 . S
C2208 N2216 1.356 . S
C2209 C2208 1.363 . S
C2209 C2215 1.363 . S
C2210 C2211 1.363 . S
C2210 C2215 1.379 . S
C2210 N2217 1.356 . S
C2211 C2210 1.363 . S
C2211 C2214 1.363 . S
N2212 C2214 1.356 . S
N2212 H2224 0.984 . S
N2212 H2225 0.985 . S
N2213 C2215 1.356 . S
N2213 H2218 0.984 . S
N2213 H2219 0.985 . S
C2214 C2208 1.379 . S
C2214 C2211 1.363 . S
C2214 N2212 1.356 . S
C2215 C2209 1.363 . S
C2215 C2210 1.379 . S
C2215 N2213 1.356 . S
N2216 C2208 1.356 . S
N2216 H2222 0.984 . S
N2216 H2223 0.984 . S
N2217 C2210 1.356 . S
N2217 H2220 0.984 . S
N2217 H2221 0.985 . S
H2218 N2213 0.984 . S
H2219 N2213 0.985 . S
H2220 N2217 0.984 . S
H2221 N2217 0.985 . S
H2222 N2216 0.984 . S
H2223 N2216 0.984 . S
H2224 N2212 0.984 . S
H2225 N2212 0.985 . S
C2226 C2227 1.363 . S
C2226 C2232 1.379 . S
C2226 N2234 1.356 . S
C2227 C2226 1.363 . S
C2227 C2233 1.363 . S
C2228 C2229 1.363 . S
C2228 C2233 1.379 . S
C2228 N2235 1.356 . S
C2229 C2228 1.363 . S
C2229 C2232 1.363 . S
N2230 C2232 1.356 . S
N2230 H2242 0.984 . S
N2230 H2243 0.985 . S
N2231 C2233 1.356 . S
N2231 H2236 0.984 . S
N2231 H2237 0.985 . S
C2232 C2226 1.379 . S
C2232 C2229 1.363 . S
C2232 N2230 1.356 . S
C2233 C2227 1.363 . S
C2233 C2228 1.379 . S
C2233 N2231 1.356 . S
N2234 C2226 1.356 . S
N2234 H2240 0.984 . S
N2234 H2241 0.984 . S
N2235 C2228 1.356 . S
N2235 H2238 0.984 . S
N2235 H2239 0.985 . S
H2236 N2231 0.984 . S
H2237 N2231 0.985 . S
H2238 N2235 0.984 . S
H2239 N2235 0.985 . S
H2240 N2234 0.984 . S
H2241 N2234 0.984 . S
H2242 N2230 0.984 . S
H2243 N2230 0.985 . S
C2244 C2245 1.363 . S
C2244 C2250 1.379 . S
C2244 N2252 1.356 . S
C2245 C2244 1.363 . S
C2245 C2251 1.363 . S
C2246 C2247 1.363 . S
C2246 C2251 1.379 . S
C2246 N2253 1.356 . S
C2247 C2246 1.363 . S
C2247 C2250 1.363 . S
N2248 C2250 1.356 . S
N2248 H2260 0.984 . S
N2248 H2261 0.985 . S
N2249 C2251 1.356 . S
N2249 H2254 0.984 . S
N2249 H2255 0.985 . S
C2250 C2244 1.379 . S
C2250 C2247 1.363 . S
C2250 N2248 1.356 . S
C2251 C2245 1.363 . S
C2251 C2246 1.379 . S
C2251 N2249 1.356 . S
N2252 C2244 1.356 . S
N2252 H2258 0.984 . S
N2252 H2259 0.984 . S
N2253 C2246 1.356 . S
N2253 H2256 0.984 . S
N2253 H2257 0.985 . S
H2254 N2249 0.984 . S
H2255 N2249 0.985 . S
H2256 N2253 0.984 . S
H2257 N2253 0.985 . S
H2258 N2252 0.984 . S
H2259 N2252 0.984 . S
H2260 N2248 0.984 . S
H2261 N2248 0.985 . S
C2262 C2263 1.363 . S
C2262 C2268 1.379 . S
C2262 N2270 1.356 . S
C2263 C2262 1.363 . S
C2263 C2269 1.363 . S
C2264 C2265 1.363 . S
C2264 C2269 1.379 . S
C2264 N2271 1.356 . S
C2265 C2264 1.363 . S
C2265 C2268 1.363 . S
N2266 C2268 1.356 . S
N2266 H2278 0.984 . S
N2266 H2279 0.985 . S
N2267 C2269 1.356 . S
N2267 H2272 0.984 . S
N2267 H2273 0.985 . S
C2268 C2262 1.379 . S
C2268 C2265 1.363 . S
C2268 N2266 1.356 . S
C2269 C2263 1.363 . S
C2269 C2264 1.379 . S
C2269 N2267 1.356 . S
N2270 C2262 1.356 . S
N2270 H2276 0.984 . S
N2270 H2277 0.984 . S
N2271 C2264 1.356 . S
N2271 H2274 0.984 . S
N2271 H2275 0.985 . S
H2272 N2267 0.984 . S
H2273 N2267 0.985 . S
H2274 N2271 0.984 . S
H2275 N2271 0.985 . S
H2276 N2270 0.984 . S
H2277 N2270 0.984 . S
H2278 N2266 0.984 . S
H2279 N2266 0.985 . S
C2280 C2281 1.363 . S
C2280 C2286 1.379 . S
C2280 N2288 1.356 . S
C2281 C2280 1.363 . S
C2281 C2287 1.363 . S
C2282 C2283 1.363 . S
C2282 C2287 1.379 . S
C2282 N2289 1.356 . S
C2283 C2282 1.363 . S
C2283 C2286 1.363 . S
N2284 C2286 1.356 . S
N2284 H2296 0.984 . S
N2284 H2297 0.985 . S
N2285 C2287 1.356 . S
N2285 H2290 0.984 . S
N2285 H2291 0.985 . S
C2286 C2280 1.379 . S
C2286 C2283 1.363 . S
C2286 N2284 1.356 . S
C2287 C2281 1.363 . S
C2287 C2282 1.379 . S
C2287 N2285 1.356 . S
N2288 C2280 1.356 . S
N2288 H2294 0.984 . S
N2288 H2295 0.984 . S
N2289 C2282 1.356 . S
N2289 H2292 0.984 . S
N2289 H2293 0.985 . S
H2290 N2285 0.984 . S
H2291 N2285 0.985 . S
H2292 N2289 0.984 . S
H2293 N2289 0.985 . S
H2294 N2288 0.984 . S
H2295 N2288 0.984 . S
H2296 N2284 0.984 . S
H2297 N2284 0.985 . S
C2298 C2299 1.363 . S
C2298 C2304 1.379 . S
C2298 N2306 1.356 . S
C2299 C2298 1.363 . S
C2299 C2305 1.363 . S
C2300 C2301 1.363 . S
C2300 C2305 1.379 . S
C2300 N2307 1.356 . S
C2301 C2300 1.363 . S
C2301 C2304 1.363 . S
N2302 C2304 1.356 . S
N2302 H2314 0.984 . S
N2302 H2315 0.985 . S
N2303 C2305 1.356 . S
N2303 H2308 0.984 . S
N2303 H2309 0.985 . S
C2304 C2298 1.379 . S
C2304 C2301 1.363 . S
C2304 N2302 1.356 . S
C2305 C2299 1.363 . S
C2305 C2300 1.379 . S
C2305 N2303 1.356 . S
N2306 C2298 1.356 . S
N2306 H2312 0.984 . S
N2306 H2313 0.984 . S
N2307 C2300 1.356 . S
N2307 H2310 0.984 . S
N2307 H2311 0.985 . S
H2308 N2303 0.984 . S
H2309 N2303 0.985 . S
H2310 N2307 0.984 . S
H2311 N2307 0.985 . S
H2312 N2306 0.984 . S
H2313 N2306 0.984 . S
H2314 N2302 0.984 . S
H2315 N2302 0.985 . S
C2316 C2317 1.363 . S
C2316 C2322 1.379 . S
C2316 N2324 1.356 . S
C2317 C2316 1.363 . S
C2317 C2323 1.363 . S
C2318 C2319 1.363 . S
C2318 C2323 1.379 . S
C2318 N2325 1.356 . S
C2319 C2318 1.363 . S
C2319 C2322 1.363 . S
N2320 C2322 1.356 . S
N2320 H2332 0.984 . S
N2320 H2333 0.985 . S
N2321 C2323 1.356 . S
N2321 H2326 0.984 . S
N2321 H2327 0.985 . S
C2322 C2316 1.379 . S
C2322 C2319 1.363 . S
C2322 N2320 1.356 . S
C2323 C2317 1.363 . S
C2323 C2318 1.379 . S
C2323 N2321 1.356 . S
N2324 C2316 1.356 . S
N2324 H2330 0.984 . S
N2324 H2331 0.984 . S
N2325 C2318 1.356 . S
N2325 H2328 0.984 . S
N2325 H2329 0.985 . S
H2326 N2321 0.984 . S
H2327 N2321 0.985 . S
H2328 N2325 0.984 . S
H2329 N2325 0.985 . S
H2330 N2324 0.984 . S
H2331 N2324 0.984 . S
H2332 N2320 0.984 . S
H2333 N2320 0.985 . S
C2334 C2335 1.363 . S
C2334 C2340 1.379 . S
C2334 N2342 1.356 . S
C2335 C2334 1.363 . S
C2335 C2341 1.363 . S
C2336 C2337 1.363 . S
C2336 C2341 1.379 . S
C2336 N2343 1.356 . S
C2337 C2336 1.363 . S
C2337 C2340 1.363 . S
N2338 C2340 1.356 . S
N2338 H2350 0.984 . S
N2338 H2351 0.985 . S
N2339 C2341 1.356 . S
N2339 H2344 0.984 . S
N2339 H2345 0.985 . S
C2340 C2334 1.379 . S
C2340 C2337 1.363 . S
C2340 N2338 1.356 . S
C2341 C2335 1.363 . S
C2341 C2336 1.379 . S
C2341 N2339 1.356 . S
N2342 C2334 1.356 . S
N2342 H2348 0.984 . S
N2342 H2349 0.984 . S
N2343 C2336 1.356 . S
N2343 H2346 0.984 . S
N2343 H2347 0.985 . S
H2344 N2339 0.984 . S
H2345 N2339 0.985 . S
H2346 N2343 0.984 . S
H2347 N2343 0.985 . S
H2348 N2342 0.984 . S
H2349 N2342 0.984 . S
H2350 N2338 0.984 . S
H2351 N2338 0.985 . S
C2352 C2353 1.363 . S
C2352 C2358 1.379 . S
C2352 N2360 1.356 . S
C2353 C2352 1.363 . S
C2353 C2359 1.363 . S
C2354 C2355 1.363 . S
C2354 C2359 1.379 . S
C2354 N2361 1.356 . S
C2355 C2354 1.363 . S
C2355 C2358 1.363 . S
N2356 C2358 1.356 . S
N2356 H2368 0.984 . S
N2356 H2369 0.985 . S
N2357 C2359 1.356 . S
N2357 H2362 0.984 . S
N2357 H2363 0.985 . S
C2358 C2352 1.379 . S
C2358 C2355 1.363 . S
C2358 N2356 1.356 . S
C2359 C2353 1.363 . S
C2359 C2354 1.379 . S
C2359 N2357 1.356 . S
N2360 C2352 1.356 . S
N2360 H2366 0.984 . S
N2360 H2367 0.984 . S
N2361 C2354 1.356 . S
N2361 H2364 0.984 . S
N2361 H2365 0.985 . S
H2362 N2357 0.984 . S
H2363 N2357 0.985 . S
H2364 N2361 0.984 . S
H2365 N2361 0.985 . S
H2366 N2360 0.984 . S
H2367 N2360 0.984 . S
H2368 N2356 0.984 . S
H2369 N2356 0.985 . S
C2370 C2371 1.363 . S
C2370 C2376 1.379 . S
C2370 N2378 1.356 . S
C2371 C2370 1.363 . S
C2371 C2377 1.363 . S
C2372 C2373 1.363 . S
C2372 C2377 1.379 . S
C2372 N2379 1.356 . S
C2373 C2372 1.363 . S
C2373 C2376 1.363 . S
N2374 C2376 1.356 . S
N2374 H2386 0.984 . S
N2374 H2387 0.985 . S
N2375 C2377 1.356 . S
N2375 H2380 0.984 . S
N2375 H2381 0.985 . S
C2376 C2370 1.379 . S
C2376 C2373 1.363 . S
C2376 N2374 1.356 . S
C2377 C2371 1.363 . S
C2377 C2372 1.379 . S
C2377 N2375 1.356 . S
N2378 C2370 1.356 . S
N2378 H2384 0.984 . S
N2378 H2385 0.984 . S
N2379 C2372 1.356 . S
N2379 H2382 0.984 . S
N2379 H2383 0.985 . S
H2380 N2375 0.984 . S
H2381 N2375 0.985 . S
H2382 N2379 0.984 . S
H2383 N2379 0.985 . S
H2384 N2378 0.984 . S
H2385 N2378 0.984 . S
H2386 N2374 0.984 . S
H2387 N2374 0.985 . S
C2388 C2389 1.363 . S
C2388 C2394 1.379 . S
C2388 N2396 1.356 . S
C2389 C2388 1.363 . S
C2389 C2395 1.363 . S
C2390 C2391 1.363 . S
C2390 C2395 1.379 . S
C2390 N2397 1.356 . S
C2391 C2390 1.363 . S
C2391 C2394 1.363 . S
N2392 C2394 1.356 . S
N2392 H2404 0.984 1_556 S
N2392 H2405 0.985 1_556 S
N2393 C2395 1.356 . S
N2393 H2398 0.984 . S
N2393 H2399 0.985 . S
C2394 C2388 1.379 . S
C2394 C2391 1.363 . S
C2394 N2392 1.356 . S
C2395 C2389 1.363 . S
C2395 C2390 1.379 . S
C2395 N2393 1.356 . S
N2396 C2388 1.356 . S
N2396 H2402 0.984 . S
N2396 H2403 0.984 . S
N2397 C2390 1.356 . S
N2397 H2400 0.984 . S
N2397 H2401 0.985 . S
H2398 N2393 0.984 . S
H2399 N2393 0.985 . S
H2400 N2397 0.984 . S
H2401 N2397 0.985 . S
H2402 N2396 0.984 . S
H2403 N2396 0.984 . S
H2404 N2392 0.984 1_554 S
H2405 N2392 0.985 1_554 S
C2406 C2407 1.363 . S
C2406 C2412 1.379 . S
C2406 N2414 1.356 . S
C2407 C2406 1.363 . S
C2407 C2413 1.363 . S
C2408 C2409 1.363 . S
C2408 C2413 1.379 . S
C2408 N2415 1.356 . S
C2409 C2408 1.363 . S
C2409 C2412 1.363 . S
N2410 C2412 1.356 . S
N2410 H2422 0.987 . S
N2410 H2423 0.980 1_556 S
N2411 C2413 1.356 . S
N2411 H2416 0.984 . S
N2411 H2417 0.985 . S
C2412 C2406 1.379 . S
C2412 C2409 1.363 . S
C2412 N2410 1.356 . S
C2413 C2407 1.363 . S
C2413 C2408 1.379 . S
C2413 N2411 1.356 . S
N2414 C2406 1.356 . S
N2414 H2420 0.984 . S
N2414 H2421 0.984 . S
N2415 C2408 1.356 . S
N2415 H2418 0.984 . S
N2415 H2419 0.985 . S
H2416 N2411 0.984 . S
H2417 N2411 0.985 . S
H2418 N2415 0.984 . S
H2419 N2415 0.985 . S
H2420 N2414 0.984 . S
H2421 N2414 0.984 . S
H2422 N2410 0.987 . S
H2423 N2410 0.980 1_554 S
C2424 C2425 1.363 . S
C2424 C2430 1.379 . S
C2424 N2432 1.356 . S
C2425 C2424 1.363 . S
C2425 C2431 1.363 . S
C2426 C2427 1.363 . S
C2426 C2431 1.379 . S
C2426 N2433 1.356 . S
C2427 C2426 1.363 . S
C2427 C2430 1.363 . S
N2428 C2430 1.356 . S
N2428 H2440 0.984 . S
N2428 H2441 0.985 . S
N2429 C2431 1.356 . S
N2429 H2434 0.984 . S
N2429 H2435 0.985 . S
C2430 C2424 1.379 . S
C2430 C2427 1.363 . S
C2430 N2428 1.356 . S
C2431 C2425 1.363 . S
C2431 C2426 1.379 . S
C2431 N2429 1.356 . S
N2432 C2424 1.356 . S
N2432 H2438 0.984 . S
N2432 H2439 0.984 . S
N2433 C2426 1.356 . S
N2433 H2436 0.984 . S
N2433 H2437 0.985 . S
H2434 N2429 0.984 . S
H2435 N2429 0.985 . S
H2436 N2433 0.984 . S
H2437 N2433 0.985 . S
H2438 N2432 0.984 . S
H2439 N2432 0.984 . S
H2440 N2428 0.984 . S
H2441 N2428 0.985 . S
C2442 C2443 1.363 . S
C2442 C2448 1.379 . S
C2442 N2450 1.356 . S
C2443 C2442 1.363 . S
C2443 C2449 1.363 . S
C2444 C2445 1.363 . S
C2444 C2449 1.379 . S
C2444 N2451 1.356 . S
C2445 C2444 1.363 . S
C2445 C2448 1.363 . S
N2446 C2448 1.356 . S
N2446 H2458 0.984 . S
N2446 H2459 0.985 . S
N2447 C2449 1.356 . S
N2447 H2452 0.984 . S
N2447 H2453 0.985 . S
C2448 C2442 1.379 . S
C2448 C2445 1.363 . S
C2448 N2446 1.356 . S
C2449 C2443 1.363 . S
C2449 C2444 1.379 . S
C2449 N2447 1.356 . S
N2450 C2442 1.356 . S
N2450 H2456 0.984 . S
N2450 H2457 0.984 . S
N2451 C2444 1.356 . S
N2451 H2454 0.984 . S
N2451 H2455 0.985 . S
H2452 N2447 0.984 . S
H2453 N2447 0.985 . S
H2454 N2451 0.984 . S
H2455 N2451 0.985 . S
H2456 N2450 0.984 . S
H2457 N2450 0.984 . S
H2458 N2446 0.984 . S
H2459 N2446 0.985 . S
C2460 C2461 1.363 . S
C2460 C2466 1.379 . S
C2460 N2468 1.356 . S
C2461 C2460 1.363 . S
C2461 C2467 1.363 . S
C2462 C2463 1.363 . S
C2462 C2467 1.379 . S
C2462 N2469 1.356 . S
C2463 C2462 1.363 . S
C2463 C2466 1.363 . S
N2464 C2466 1.356 . S
N2464 H2476 0.984 . S
N2464 H2477 0.985 . S
N2465 C2467 1.356 . S
N2465 H2470 0.984 . S
N2465 H2471 0.985 . S
C2466 C2460 1.379 . S
C2466 C2463 1.363 . S
C2466 N2464 1.356 . S
C2467 C2461 1.363 . S
C2467 C2462 1.379 . S
C2467 N2465 1.356 . S
N2468 C2460 1.356 . S
N2468 H2474 0.984 . S
N2468 H2475 0.984 . S
N2469 C2462 1.356 . S
N2469 H2472 0.984 . S
N2469 H2473 0.985 . S
H2470 N2465 0.984 . S
H2471 N2465 0.985 . S
H2472 N2469 0.984 . S
H2473 N2469 0.985 . S
H2474 N2468 0.984 . S
H2475 N2468 0.984 . S
H2476 N2464 0.984 . S
H2477 N2464 0.985 . S
C2478 C2479 1.363 . S
C2478 C2484 1.379 . S
C2478 N2486 1.356 . S
C2479 C2478 1.363 . S
C2479 C2485 1.363 . S
C2480 C2481 1.363 . S
C2480 C2485 1.379 . S
C2480 N2487 1.356 . S
C2481 C2480 1.363 . S
C2481 C2484 1.363 . S
N2482 C2484 1.356 . S
N2482 H2494 0.984 . S
N2482 H2495 0.985 . S
N2483 C2485 1.356 . S
N2483 H2488 0.971 1_554 S
N2483 H2489 0.975 1_554 S
C2484 C2478 1.379 . S
C2484 C2481 1.363 . S
C2484 N2482 1.356 . S
C2485 C2479 1.363 . S
C2485 C2480 1.379 . S
C2485 N2483 1.356 . S
N2486 C2478 1.356 . S
N2486 H2492 0.984 . S
N2486 H2493 0.984 . S
N2487 C2480 1.356 . S
N2487 H2490 0.984 . S
N2487 H2491 0.985 . S
H2488 N2483 0.971 1_556 S
H2489 N2483 0.975 1_556 S
H2490 N2487 0.984 . S
H2491 N2487 0.985 . S
H2492 N2486 0.984 . S
H2493 N2486 0.984 . S
H2494 N2482 0.984 . S
H2495 N2482 0.985 . S
C1057 N2 0.775 . S
C1059 N332 0.775 . S
C1075 N365 0.775 . S
C1077 N35 0.775 . S
C1093 N266 0.775 . S
C1095 N68 0.775 . S
C1111 N101 0.775 . S
C1113 N299 0.775 . S
C1129 N134 0.775 . S
C1131 N464 0.775 . S
C1147 N167 0.775 . S
C1149 N497 0.775 . S
C1165 N398 0.775 . S
C1167 N200 0.775 . S
C1183 N431 0.775 . S
C1185 N233 0.775 . S
C1201 N860 0.775 . S
C1203 N530 0.775 . S
C1219 N893 0.775 . S
C1221 N563 0.775 . S
C1237 N596 0.775 . S
C1239 N794 0.775 . S
C1255 N827 0.775 . S
C1257 N629 0.775 . S
C1273 N662 0.775 . S
C1275 N992 0.775 . S
C1291 N1025 0.775 . S
C1293 N695 0.775 . S
C1309 N728 0.775 . S
C1311 N926 0.775 . S
C1327 N761 0.775 . S
C1329 N959 0.775 . S
C1345 C7 1.819 . S
C1347 C832 1.819 . S
C1363 C40 1.819 . S
C1365 C799 1.819 . S
C1381 C73 1.819 . S
C1383 C898 1.819 . S
C1399 C106 1.819 . S
C1401 C865 1.819 . S
C1417 C139 1.819 . S
C1419 C964 1.819 . S
C1435 C172 1.819 . S
C1437 C931 1.819 . S
C1453 C1030 1.819 . S
C1455 C205 1.819 . S
C1471 C238 1.819 . S
C1473 C997 1.819 . S
C1489 C568 1.819 . S
C1491 C271 1.819 . S
C1507 C304 1.819 . S
C1509 C535 1.819 . S
C1525 C337 1.819 . S
C1527 C634 1.819 . S
C1543 C601 1.819 . S
C1545 C370 1.819 . S
C1561 C700 1.819 . S
C1563 C403 1.819 . S
C1579 C667 1.819 . S
C1581 C436 1.819 . S
C1597 C469 1.819 . S
C1599 C766 1.819 . S
C1615 C733 1.819 . S
C1617 C502 1.819 . S
C1633 N79 1.142 . S
C1635 N13 1.142 . S
C1651 N46 1.142 . S
C1653 N112 1.142 . S
C1669 N211 1.142 . S
C1671 N145 1.142 . S
C1687 N178 1.142 . S
C1689 N244 1.142 . S
C1705 N277 1.142 . S
C1707 N343 1.142 . S
C1723 N310 1.142 . S
C1725 N376 1.142 . S
C1741 N475 1.142 . S
C1743 N409 1.142 . S
C1759 N508 1.142 . S
C1761 N442 1.142 . S
C1777 N607 1.142 . S
C1779 N541 1.142 . S
C1795 N574 1.142 . S
C1797 N640 1.142 . S
C1813 N673 1.142 . S
C1815 N739 1.142 . S
C1831 N706 1.142 . S
C1833 N772 1.142 . S
C1849 N871 1.142 . S
C1851 N805 1.142 . S
C1867 N838 1.142 . S
C1869 N904 1.142 . S
C1885 N937 1.142 . S
C1887 N1003 1.142 . S
C1903 N1036 1.142 . S
C1905 N970 1.142 . S
C1921 C747 1.923 . S
C1923 C18 1.926 . S
C1939 C516 1.923 1_655 S
C1941 C51 1.926 . S
C1957 C84 1.926 . S
C1959 C945 1.923 . S
C1975 C186 1.923 1_655 S
C1977 C117 1.926 . S
C1993 C150 1.926 . S
C1995 C615 1.923 . S
C2011 C183 1.926 . S
C2013 C384 1.923 1_455 S
C2029 C813 1.923 . S
C2031 C216 1.926 . S
C2047 C249 1.926 . S
C2049 C54 1.923 1_455 S
C2065 C282 1.926 . S
C2067 C1011 1.923 . S
C2083 C252 1.923 1_655 S
C2085 C315 1.926 . S
C2101 C348 1.926 . S
C2103 C681 1.923 . S
C2119 C381 1.926 . S
C2121 C450 1.923 1_655 S
C2137 C879 1.923 . S
C2139 C414 1.926 . S
C2155 C447 1.926 . S
C2157 C120 1.923 1_455 S
C2173 C549 1.923 . S
C2175 C480 1.926 . S
C2191 C318 1.923 1_455 S
C2193 C513 1.926 . S
C2209 C219 1.923 . S
C2211 C546 1.926 . S
C2227 C579 1.926 . S
C2229 C1044 1.923 . S
C2245 C612 1.926 . S
C2247 C417 1.923 . S
C2263 C645 1.926 . S
C2265 C714 1.923 . S
C2281 C678 1.926 . S
C2283 C87 1.923 . S
C2299 C711 1.926 . S
C2301 C912 1.923 . S
C2317 C285 1.923 . S
C2319 C744 1.926 . S
C2335 C582 1.923 . S
C2337 C777 1.926 . S
C2353 C483 1.923 . S
C2355 C810 1.926 . S
C2371 C843 1.926 . S
C2373 C780 1.923 . S
C2389 C153 1.923 . S
C2391 C876 1.926 . S
C2407 C978 1.923 . S
C2409 C909 1.926 . S
C2425 C942 1.926 . S
C2427 C351 1.923 . S
C2443 C975 1.926 . S
C2445 C648 1.923 . S
C2461 C21 1.923 . S
C2463 C1008 1.926 . S
C2479 C1041 1.926 . S
C2481 C846 1.923 . S
