# Generated by pormake.
# Topology pcl, (4)-cn, num edge types: 1
# Building blocks:
#     Node 0, Type 0, BuildingBlock: GALJAG_clean_sbu_0, # of connection points: 4
#     Node 1, Type 0, BuildingBlock: GALJAG_clean_sbu_0, # of connection points: 4
#     Node 2, Type 0, BuildingBlock: GALJAG_clean_sbu_0, # of connection points: 4
#     Node 3, Type 0, BuildingBlock: GALJAG_clean_sbu_0, # of connection points: 4
#     Node 4, Type 0, BuildingBlock: GALJAG_clean_sbu_0, # of connection points: 4
#     Node 5, Type 0, BuildingBlock: GALJAG_clean_sbu_0, # of connection points: 4
#     Node 6, Type 0, BuildingBlock: GALJAG_clean_sbu_0, # of connection points: 4
#     Node 7, Type 0, BuildingBlock: GALJAG_clean_sbu_0, # of connection points: 4
#     Node 8, Type 0, BuildingBlock: GALJAG_clean_sbu_0, # of connection points: 4
#     Node 9, Type 0, BuildingBlock: GALJAG_clean_sbu_0, # of connection points: 4
#     Node 10, Type 0, BuildingBlock: GALJAG_clean_sbu_0, # of connection points: 4
#     Node 11, Type 0, BuildingBlock: GALJAG_clean_sbu_0, # of connection points: 4
#     Node 12, Type 0, BuildingBlock: GALJAG_clean_sbu_0, # of connection points: 4
#     Node 13, Type 0, BuildingBlock: GALJAG_clean_sbu_0, # of connection points: 4
#     Node 14, Type 0, BuildingBlock: GALJAG_clean_sbu_0, # of connection points: 4
#     Node 15, Type 0, BuildingBlock: GALJAG_clean_sbu_0, # of connection points: 4
#     Edge 16, Type (0, 0), BuildingBlock: KIFKEQ_clean_linker_1, # of connection points: 2
#     Edge 17, Type (0, 0), BuildingBlock: KIFKEQ_clean_linker_1, # of connection points: 2
#     Edge 18, Type (0, 0), BuildingBlock: KIFKEQ_clean_linker_1, # of connection points: 2
#     Edge 19, Type (0, 0), BuildingBlock: KIFKEQ_clean_linker_1, # of connection points: 2
#     Edge 20, Type (0, 0), BuildingBlock: KIFKEQ_clean_linker_1, # of connection points: 2
#     Edge 21, Type (0, 0), BuildingBlock: KIFKEQ_clean_linker_1, # of connection points: 2
#     Edge 22, Type (0, 0), BuildingBlock: KIFKEQ_clean_linker_1, # of connection points: 2
#     Edge 23, Type (0, 0), BuildingBlock: KIFKEQ_clean_linker_1, # of connection points: 2
#     Edge 24, Type (0, 0), BuildingBlock: KIFKEQ_clean_linker_1, # of connection points: 2
#     Edge 25, Type (0, 0), BuildingBlock: KIFKEQ_clean_linker_1, # of connection points: 2
#     Edge 26, Type (0, 0), BuildingBlock: KIFKEQ_clean_linker_1, # of connection points: 2
#     Edge 27, Type (0, 0), BuildingBlock: KIFKEQ_clean_linker_1, # of connection points: 2
#     Edge 28, Type (0, 0), BuildingBlock: KIFKEQ_clean_linker_1, # of connection points: 2
#     Edge 29, Type (0, 0), BuildingBlock: KIFKEQ_clean_linker_1, # of connection points: 2
#     Edge 30, Type (0, 0), BuildingBlock: KIFKEQ_clean_linker_1, # of connection points: 2
#     Edge 31, Type (0, 0), BuildingBlock: KIFKEQ_clean_linker_1, # of connection points: 2
#     Edge 32, Type (0, 0), BuildingBlock: KIFKEQ_clean_linker_1, # of connection points: 2
#     Edge 33, Type (0, 0), BuildingBlock: KIFKEQ_clean_linker_1, # of connection points: 2
#     Edge 34, Type (0, 0), BuildingBlock: KIFKEQ_clean_linker_1, # of connection points: 2
#     Edge 35, Type (0, 0), BuildingBlock: KIFKEQ_clean_linker_1, # of connection points: 2
#     Edge 36, Type (0, 0), BuildingBlock: KIFKEQ_clean_linker_1, # of connection points: 2
#     Edge 37, Type (0, 0), BuildingBlock: KIFKEQ_clean_linker_1, # of connection points: 2
#     Edge 38, Type (0, 0), BuildingBlock: KIFKEQ_clean_linker_1, # of connection points: 2
#     Edge 39, Type (0, 0), BuildingBlock: KIFKEQ_clean_linker_1, # of connection points: 2
#     Edge 40, Type (0, 0), BuildingBlock: KIFKEQ_clean_linker_1, # of connection points: 2
#     Edge 41, Type (0, 0), BuildingBlock: KIFKEQ_clean_linker_1, # of connection points: 2
#     Edge 42, Type (0, 0), BuildingBlock: KIFKEQ_clean_linker_1, # of connection points: 2
#     Edge 43, Type (0, 0), BuildingBlock: KIFKEQ_clean_linker_1, # of connection points: 2
#     Edge 44, Type (0, 0), BuildingBlock: KIFKEQ_clean_linker_1, # of connection points: 2
#     Edge 45, Type (0, 0), BuildingBlock: KIFKEQ_clean_linker_1, # of connection points: 2
#     Edge 46, Type (0, 0), BuildingBlock: KIFKEQ_clean_linker_1, # of connection points: 2
#     Edge 47, Type (0, 0), BuildingBlock: KIFKEQ_clean_linker_1, # of connection points: 2
# Relax obj value: 0.122
# Max RMSD: 0.108
# Mean RMSD: 0.092
data_MOF--net-pcl--node1-GALJAG_clean_sbu_0--edge1-KIFKEQ_clean_linker_1
_symmetry_space_group_name_H-M    P1
_symmetry_Int_Tables_number       1
_symmetry_cell_setting            triclinic
loop_
_symmetry_equiv_pos_as_xyz
'x, y, z'
_cell_length_a     54.083502
_cell_length_b     40.844395
_cell_length_c     44.624956
_cell_angle_alpha  89.96817
_cell_angle_beta   90.042483
_cell_angle_gamma 90.029704
loop_
_atom_site_label
_atom_site_type_symbol
_atom_site_fract_x
_atom_site_fract_y
_atom_site_fract_z
_atom_type_partial_charge
In0 In 0.11526 0.32211 0.07273 0.0
O1 O 0.13512 0.27885 0.0507 0.0
O2 O 0.15257 0.3254 0.04961 0.0
C3 C 0.06869 0.29787 0.07083 0.0
C4 C 0.13015 0.31879 0.13026 0.0
C5 C 0.10998 0.38231 0.04869 0.0
O6 O 0.0777 0.31145 0.0937 0.0
O7 O 0.08337 0.2957 0.04899 0.0
O8 O 0.12066 0.37738 0.0734 0.0
O9 O 0.1018 0.35687 0.03611 0.0
C10 C 0.15353 0.2956 0.0425 0.0
O11 O 0.12067 0.34411 0.11885 0.0
O12 O 0.13185 0.29464 0.1127 0.0
In13 In 0.87948 0.67003 0.58157 0.0
O14 O 0.86129 0.71457 0.55903 0.0
O15 O 0.84229 0.66908 0.55822 0.0
C16 C 0.92725 0.69027 0.58286 0.0
C17 C 0.86305 0.67279 0.6384 0.0
C18 C 0.88319 0.61029 0.55635 0.0
O19 O 0.91398 0.69284 0.55973 0.0
O20 O 0.9162 0.67868 0.6053 0.0
O21 O 0.87349 0.61483 0.58168 0.0
O22 O 0.8913 0.63583 0.54387 0.0
C23 C 0.84232 0.69883 0.55087 0.0
O24 O 0.87147 0.647 0.62666 0.0
O25 O 0.86313 0.69765 0.6215 0.0
In26 In 0.11998 0.66181 0.92259 0.0
O27 O 0.14177 0.64324 0.88247 0.0
O28 O 0.12525 0.69024 0.87887 0.0
C29 C 0.11448 0.60325 0.9494 0.0
C30 C 0.15555 0.69267 0.95428 0.0
C31 C 0.07136 0.67623 0.91974 0.0
O32 O 0.12039 0.60618 0.92217 0.0
O33 O 0.11139 0.62993 0.96317 0.0
O34 O 0.08571 0.69064 0.93782 0.0
O35 O 0.08172 0.65549 0.90303 0.0
C36 C 0.13803 0.66823 0.86651 0.0
O37 O 0.13599 0.70711 0.94619 0.0
O38 O 0.15688 0.66311 0.94652 0.0
In39 In 0.88016 0.33757 0.41773 0.0
O40 O 0.86392 0.3594 0.37535 0.0
O41 O 0.87788 0.31079 0.37279 0.0
C42 C 0.87795 0.39384 0.44901 0.0
C43 C 0.84486 0.30209 0.44563 0.0
C44 C 0.92949 0.32746 0.41577 0.0
O45 O 0.87356 0.39237 0.42129 0.0
O46 O 0.88311 0.36677 0.46113 0.0
O47 O 0.91463 0.30462 0.42219 0.0
O48 O 0.91937 0.35452 0.41012 0.0
C49 C 0.86769 0.33446 0.35935 0.0
O50 O 0.86746 0.2995 0.45235 0.0
O51 O 0.84035 0.32184 0.42467 0.0
In52 In 0.8376 0.66272 0.9166 0.0
O53 O 0.8194 0.70753 0.93827 0.0
O54 O 0.79785 0.66445 0.93275 0.0
C55 C 0.88603 0.67889 0.91825 0.0
C56 C 0.83989 0.60409 0.94428 0.0
C57 C 0.82737 0.67047 0.85802 0.0
O58 O 0.87139 0.68709 0.93899 0.0
O59 O 0.87623 0.66284 0.89731 0.0
O60 O 0.82524 0.64324 0.87122 0.0
O61 O 0.83375 0.69399 0.87468 0.0
C62 C 0.7988 0.69354 0.94201 0.0
O63 O 0.83539 0.60692 0.91663 0.0
O64 O 0.84337 0.63078 0.95785 0.0
In65 In 0.16452 0.3329 0.4081 0.0
O66 O 0.17222 0.38777 0.41148 0.0
O67 O 0.15943 0.3631 0.45044 0.0
C68 C 0.17105 0.32337 0.34902 0.0
C69 C 0.20278 0.30003 0.43254 0.0
C70 C 0.11532 0.32242 0.40899 0.0
O71 O 0.17511 0.35057 0.36157 0.0
O72 O 0.16457 0.30062 0.36652 0.0
O73 O 0.12999 0.30495 0.42425 0.0
O74 O 0.12555 0.34473 0.39391 0.0
C75 C 0.16613 0.38976 0.43872 0.0
O76 O 0.1806 0.29125 0.43644 0.0
O77 O 0.20549 0.3248 0.41601 0.0
In78 In 0.84113 0.32657 0.07702 0.0
O79 O 0.85229 0.38044 0.07418 0.0
O80 O 0.82956 0.36114 0.03953 0.0
C81 C 0.8368 0.33141 0.13717 0.0
C82 C 0.80057 0.2956 0.05634 0.0
C83 C 0.88582 0.29912 0.06533 0.0
O84 O 0.8436 0.35502 0.12093 0.0
O85 O 0.83137 0.30571 0.12299 0.0
O86 O 0.87327 0.29231 0.08821 0.0
O87 O 0.87546 0.31881 0.04764 0.0
C88 C 0.84083 0.38565 0.04998 0.0
O89 O 0.82208 0.28409 0.05306 0.0
O90 O 0.79955 0.32233 0.07043 0.0
In91 In 0.16068 0.65785 0.58577 0.0
O92 O 0.16941 0.60366 0.58108 0.0
O93 O 0.15388 0.62801 0.54335 0.0
C94 C 0.16816 0.66291 0.64537 0.0
C95 C 0.19959 0.68956 0.56141 0.0
C96 C 0.11191 0.67207 0.58309 0.0
O97 O 0.16727 0.63582 0.63188 0.0
O98 O 0.16601 0.68767 0.62866 0.0
O99 O 0.12773 0.68827 0.56842 0.0
O100 O 0.12076 0.64906 0.59853 0.0
C101 C 0.16207 0.60164 0.55429 0.0
O102 O 0.17848 0.70263 0.56347 0.0
O103 O 0.201 0.66102 0.57197 0.0
In104 In 0.6181 0.82951 0.0783 0.0
O105 O 0.62991 0.85138 0.12254 0.0
O106 O 0.62961 0.79934 0.11925 0.0
C107 C 0.61448 0.88819 0.05074 0.0
C108 C 0.65535 0.7992 0.04924 0.0
C109 C 0.56992 0.81183 0.08159 0.0
O110 O 0.62209 0.88502 0.07726 0.0
O111 O 0.60867 0.86174 0.03802 0.0
O112 O 0.58346 0.80359 0.05985 0.0
O113 O 0.58083 0.82803 0.10161 0.0
C114 C 0.63371 0.82427 0.13532 0.0
O115 O 0.63409 0.7866 0.05143 0.0
O116 O 0.65767 0.82667 0.06173 0.0
In117 In 0.38338 0.16745 0.57212 0.0
O118 O 0.36545 0.2122 0.54962 0.0
O119 O 0.34684 0.16654 0.54717 0.0
C120 C 0.43124 0.18689 0.57462 0.0
C121 C 0.36655 0.17119 0.62877 0.0
C122 C 0.38766 0.10741 0.54768 0.0
O123 O 0.41817 0.1908 0.55145 0.0
O124 O 0.41997 0.17423 0.5964 0.0
O125 O 0.37691 0.11245 0.57231 0.0
O126 O 0.39642 0.13269 0.53535 0.0
C127 C 0.34682 0.19646 0.54045 0.0
O128 O 0.3735 0.14477 0.61682 0.0
O129 O 0.3681 0.19613 0.61209 0.0
In130 In 0.61839 0.16523 0.91852 0.0
O131 O 0.63061 0.1443 0.87413 0.0
O132 O 0.62999 0.19628 0.87814 0.0
C133 C 0.61493 0.10667 0.94638 0.0
C134 C 0.6554 0.19512 0.94842 0.0
C135 C 0.57028 0.1825 0.91378 0.0
O136 O 0.62309 0.10984 0.92012 0.0
O137 O 0.60849 0.13306 0.95871 0.0
O138 O 0.58389 0.19314 0.93461 0.0
O139 O 0.58109 0.16408 0.89538 0.0
C140 C 0.63439 0.17166 0.8618 0.0
O141 O 0.63369 0.20648 0.94815 0.0
O142 O 0.65827 0.16915 0.93363 0.0
In143 In 0.37737 0.82785 0.42108 0.0
O144 O 0.36289 0.78498 0.44951 0.0
O145 O 0.33791 0.82287 0.4374 0.0
C146 C 0.42586 0.81263 0.41723 0.0
C147 C 0.36014 0.821 0.36486 0.0
C148 C 0.38215 0.88659 0.44817 0.0
O149 O 0.41212 0.80068 0.43736 0.0
O150 O 0.41497 0.83129 0.39901 0.0
O151 O 0.37776 0.88364 0.42058 0.0
O152 O 0.38403 0.85991 0.46219 0.0
C153 C 0.34115 0.79619 0.45097 0.0
O154 O 0.35686 0.84651 0.38026 0.0
O155 O 0.37207 0.7985 0.3779 0.0
In156 In 0.33581 0.1631 0.90866 0.0
O157 O 0.3269 0.10859 0.91123 0.0
O158 O 0.33727 0.13286 0.95147 0.0
C159 C 0.33118 0.17128 0.84902 0.0
C160 C 0.29808 0.19743 0.93244 0.0
C161 C 0.38501 0.17263 0.91296 0.0
O162 O 0.32552 0.14492 0.8621 0.0
O163 O 0.33861 0.19383 0.86613 0.0
O164 O 0.36969 0.19413 0.92136 0.0
O165 O 0.37542 0.14674 0.90288 0.0
C166 C 0.33088 0.10644 0.93904 0.0
O167 O 0.32033 0.20292 0.93942 0.0
O168 O 0.29507 0.17532 0.9131 0.0
In169 In 0.66068 0.83338 0.41588 0.0
O170 O 0.66953 0.88793 0.41748 0.0
O171 O 0.65858 0.86465 0.458 0.0
C172 C 0.66567 0.82398 0.35644 0.0
C173 C 0.69842 0.79981 0.44081 0.0
C174 C 0.61141 0.82404 0.41969 0.0
O175 O 0.67172 0.85037 0.3692 0.0
O176 O 0.65764 0.80201 0.37378 0.0
O177 O 0.62663 0.80252 0.42836 0.0
O178 O 0.62113 0.84984 0.40959 0.0
C179 C 0.66514 0.89076 0.44514 0.0
O180 O 0.67614 0.79433 0.44765 0.0
O181 O 0.70145 0.82146 0.42105 0.0
In182 In 0.33585 0.83699 0.08343 0.0
O183 O 0.32427 0.89046 0.07911 0.0
O184 O 0.33993 0.86734 0.04092 0.0
C185 C 0.33115 0.83023 0.14322 0.0
C186 C 0.29792 0.80305 0.05953 0.0
C187 C 0.38492 0.82558 0.08019 0.0
O188 O 0.33029 0.85764 0.13021 0.0
O189 O 0.33378 0.806 0.12597 0.0
O190 O 0.36927 0.80494 0.07089 0.0
O191 O 0.37573 0.85153 0.09059 0.0
C192 C 0.33091 0.89305 0.05211 0.0
O193 O 0.3202 0.79677 0.05331 0.0
O194 O 0.29492 0.82592 0.07814 0.0
In195 In 0.66548 0.16473 0.58275 0.0
O196 O 0.67292 0.10987 0.58088 0.0
O197 O 0.66152 0.13356 0.54073 0.0
C198 C 0.67123 0.17452 0.64209 0.0
C199 C 0.70389 0.19717 0.55808 0.0
C200 C 0.61639 0.17529 0.57853 0.0
O201 O 0.67663 0.14784 0.62947 0.0
O202 O 0.6636 0.19663 0.62464 0.0
O203 O 0.6319 0.19387 0.56585 0.0
O204 O 0.62572 0.1517 0.59284 0.0
C205 C 0.66779 0.1072 0.55339 0.0
O206 O 0.68188 0.20715 0.55564 0.0
O207 O 0.70641 0.17142 0.57331 0.0
H208 H 0.03507 0.2969 0.11609 0.0
H209 H 0.04283 0.27816 0.02132 0.0
H210 H 0.99061 0.28908 0.1121 0.0
H211 H 0.99812 0.26992 0.01733 0.0
H212 H 0.9181 0.31604 0.02095 0.0
H213 H 0.96274 0.30775 0.02075 0.0
H214 H 0.957 0.25057 0.10193 0.0
H215 H 0.91237 0.25934 0.10239 0.0
C216 C 0.02731 0.29047 0.09449 0.0
C217 C 0.04238 0.28839 0.06898 0.0
C218 C 0.00182 0.28575 0.09223 0.0
C219 C 0.99081 0.27897 0.06436 0.0
C220 C 0.00605 0.27542 0.03904 0.0
C221 C 0.03163 0.27997 0.04136 0.0
C222 C 0.9263 0.30109 0.03837 0.0
C223 C 0.91181 0.2887 0.06189 0.0
C224 C 0.95188 0.2962 0.03819 0.0
C225 C 0.96344 0.27883 0.06154 0.0
C226 C 0.94867 0.26452 0.08391 0.0
C227 C 0.92311 0.2694 0.08408 0.0
H228 H 0.95767 0.70148 0.53484 0.0
H229 H 0.95774 0.69204 0.63124 0.0
H230 H 0.00293 0.70149 0.53489 0.0
H231 H 0.00275 0.69281 0.63137 0.0
H232 H 0.07637 0.64146 0.6154 0.0
H233 H 0.0322 0.65159 0.61532 0.0
H234 H 0.04211 0.7289 0.5503 0.0
H235 H 0.08681 0.71833 0.5501 0.0
C236 C 0.96735 0.70021 0.55607 0.0
C237 C 0.9542 0.69633 0.583 0.0
C238 C 0.99326 0.7003 0.55611 0.0
C239 C 0.00642 0.69656 0.58309 0.0
C240 C 0.99316 0.69496 0.61014 0.0
C241 C 0.96736 0.69472 0.61009 0.0
C242 C 0.06922 0.66071 0.60112 0.0
C243 C 0.08509 0.67911 0.58276 0.0
C244 C 0.04387 0.66672 0.60126 0.0
C245 C 0.03363 0.69132 0.58306 0.0
C246 C 0.04945 0.70974 0.56453 0.0
C247 C 0.075 0.70377 0.56447 0.0
H248 H 0.91657 0.68045 0.87037 0.0
H249 H 0.91577 0.69299 0.9664 0.0
H250 H 0.96132 0.68542 0.87017 0.0
H251 H 0.96101 0.69659 0.9665 0.0
H252 H 0.0436 0.71948 0.95282 0.0
H253 H 0.9985 0.72573 0.95217 0.0
H254 H 0.99348 0.64972 0.88505 0.0
H255 H 0.03805 0.64436 0.88507 0.0
C256 C 0.92603 0.68441 0.89147 0.0
C257 C 0.91278 0.68593 0.91844 0.0
C258 C 0.95171 0.68706 0.8914 0.0
C259 C 0.96486 0.69069 0.91839 0.0
C260 C 0.95148 0.69392 0.9453 0.0
C261 C 0.9256 0.69174 0.94529 0.0
C262 C 0.03277 0.70443 0.93775 0.0
C263 C 0.04435 0.68155 0.9189 0.0
C264 C 0.00696 0.70785 0.9375 0.0
C265 C 0.99233 0.68841 0.9184 0.0
C266 C 0.0041 0.66568 0.89955 0.0
C267 C 0.02973 0.66241 0.8997 0.0
H268 H 0.08295 0.34916 0.36985 0.0
H269 H 0.0865 0.28608 0.44744 0.0
H270 H 0.03814 0.34676 0.37093 0.0
H271 H 0.04112 0.28434 0.44905 0.0
H272 H 0.95715 0.27164 0.42466 0.0
H273 H 0.00241 0.26676 0.42244 0.0
H274 H 0.00786 0.37041 0.40419 0.0
H275 H 0.96325 0.37508 0.40576 0.0
C276 C 0.07411 0.33471 0.38717 0.0
C277 C 0.08821 0.31816 0.40882 0.0
C278 C 0.0484 0.33344 0.38786 0.0
C279 C 0.03605 0.31587 0.41041 0.0
C280 C 0.05012 0.29805 0.43137 0.0
C281 C 0.07604 0.29915 0.43054 0.0
C282 C 0.96813 0.29326 0.42012 0.0
C283 C 0.95666 0.32367 0.4151 0.0
C284 C 0.99398 0.29052 0.419 0.0
C285 C 0.0087 0.31812 0.41275 0.0
C286 C 0.99709 0.34851 0.40834 0.0
C287 C 0.97146 0.35122 0.40941 0.0
H288 H 0.42032 0.86588 0.10217 0.0
H289 H 0.41051 0.77293 0.05752 0.0
H290 H 0.46471 0.8575 0.10294 0.0
H291 H 0.45546 0.76434 0.05854 0.0
H292 H 0.53978 0.78926 0.03662 0.0
H293 H 0.49445 0.78879 0.03638 0.0
H294 H 0.49417 0.82119 0.12849 0.0
H295 H 0.53915 0.82218 0.12858 0.0
C296 C 0.42766 0.84356 0.09255 0.0
C297 C 0.41191 0.82001 0.07986 0.0
C298 C 0.45313 0.83865 0.0932 0.0
C299 C 0.46357 0.81006 0.08115 0.0
C300 C 0.44791 0.78661 0.06799 0.0
C301 C 0.42224 0.79148 0.06747 0.0
C302 C 0.52998 0.7957 0.05693 0.0
C303 C 0.54296 0.80619 0.08249 0.0
C304 C 0.50406 0.79536 0.05682 0.0
C305 C 0.49079 0.80551 0.08226 0.0
C306 C 0.50389 0.81394 0.10834 0.0
C307 C 0.52966 0.81435 0.10843 0.0
H308 H 0.5811 0.1395 0.60659 0.0
H309 H 0.59062 0.22285 0.54808 0.0
H310 H 0.53664 0.1474 0.60567 0.0
H311 H 0.54566 0.23106 0.54741 0.0
H312 H 0.46208 0.20208 0.52788 0.0
H313 H 0.50736 0.20305 0.52875 0.0
H314 H 0.5062 0.18649 0.62435 0.0
H315 H 0.46123 0.18492 0.62339 0.0
C316 C 0.57368 0.15964 0.59359 0.0
C317 C 0.58937 0.1806 0.57744 0.0
C318 C 0.54817 0.16433 0.59326 0.0
C319 C 0.53763 0.19009 0.57675 0.0
C320 C 0.55326 0.21096 0.5603 0.0
C321 C 0.57895 0.20633 0.56074 0.0
C322 C 0.47154 0.19924 0.54912 0.0
C323 C 0.45816 0.19301 0.5755 0.0
C324 C 0.49745 0.19987 0.54963 0.0
C325 C 0.51034 0.19429 0.57654 0.0
C326 C 0.49681 0.19014 0.60316 0.0
C327 C 0.47104 0.18942 0.60263 0.0
H328 H 0.54012 0.20939 0.95662 0.0
H329 H 0.53962 0.16801 0.86757 0.0
H330 H 0.49479 0.21039 0.95642 0.0
H331 H 0.49468 0.16957 0.86714 0.0
H332 H 0.41996 0.1295 0.89487 0.0
H333 H 0.4645 0.13653 0.89457 0.0
H334 H 0.45632 0.23328 0.93234 0.0
H335 H 0.41124 0.22602 0.93297 0.0
C336 C 0.53035 0.20117 0.93681 0.0
C337 C 0.54335 0.18821 0.91228 0.0
C338 C 0.50443 0.2018 0.93667 0.0
C339 C 0.4912 0.18951 0.91197 0.0
C340 C 0.50435 0.1785 0.88677 0.0
C341 C 0.53011 0.17777 0.88696 0.0
C342 C 0.42758 0.1523 0.90315 0.0
C343 C 0.41209 0.17726 0.91384 0.0
C344 C 0.45313 0.15643 0.90277 0.0
C345 C 0.46391 0.18565 0.91304 0.0
C346 C 0.44851 0.2105 0.9243 0.0
C347 C 0.42276 0.20638 0.92458 0.0
H348 H 0.45582 0.7847 0.45983 0.0
H349 H 0.45704 0.83022 0.37246 0.0
H350 H 0.50114 0.78451 0.46057 0.0
H351 H 0.50198 0.82942 0.37291 0.0
H352 H 0.57662 0.86785 0.40233 0.0
H353 H 0.53207 0.86098 0.40137 0.0
H354 H 0.53985 0.7631 0.43687 0.0
H355 H 0.58492 0.77023 0.43826 0.0
C356 C 0.46576 0.79405 0.44058 0.0
C357 C 0.45293 0.80784 0.41625 0.0
C358 C 0.49168 0.79388 0.44097 0.0
C359 C 0.50513 0.80747 0.41702 0.0
C360 C 0.49217 0.81948 0.39202 0.0
C361 C 0.4664 0.81977 0.39168 0.0
C362 C 0.56891 0.84483 0.40998 0.0
C363 C 0.58429 0.81952 0.42025 0.0
C364 C 0.54334 0.8408 0.40922 0.0
C365 C 0.53242 0.81132 0.41865 0.0
C366 C 0.54774 0.78612 0.4295 0.0
C367 C 0.57349 0.79015 0.43022 0.0
H368 H 0.15209 0.26793 0.16019 0.0
H369 H 0.12769 0.36791 0.17112 0.0
H370 H 0.16634 0.26731 0.21227 0.0
H371 H 0.14137 0.36711 0.22298 0.0
H372 H 0.1851 0.36831 0.30723 0.0
H373 H 0.17849 0.36564 0.25325 0.0
H374 H 0.14861 0.26804 0.26266 0.0
H375 H 0.15581 0.27043 0.31659 0.0
C376 C 0.14976 0.28972 0.17372 0.0
C377 C 0.13876 0.31795 0.16164 0.0
C378 C 0.15786 0.28934 0.20352 0.0
C379 C 0.15515 0.31723 0.22171 0.0
C380 C 0.14421 0.34543 0.20945 0.0
C381 C 0.13614 0.3458 0.17978 0.0
C382 C 0.17755 0.34606 0.29769 0.0
C383 C 0.17076 0.3197 0.31612 0.0
C384 C 0.17359 0.34462 0.2668 0.0
C385 C 0.16264 0.31684 0.25373 0.0
C386 C 0.15718 0.28972 0.27199 0.0
C387 C 0.16124 0.29113 0.3029 0.0
H388 H 0.86433 0.62323 0.67895 0.0
H389 H 0.84157 0.72392 0.66833 0.0
H390 H 0.85121 0.62434 0.73095 0.0
H391 H 0.82764 0.72483 0.72046 0.0
H392 H 0.84041 0.72312 0.82395 0.0
H393 H 0.84557 0.72467 0.76978 0.0
H394 H 0.8162 0.62646 0.76343 0.0
H395 H 0.81188 0.62457 0.81779 0.0
C396 C 0.85625 0.64554 0.68768 0.0
C397 C 0.8541 0.67355 0.66963 0.0
C398 C 0.84848 0.64609 0.71746 0.0
C399 C 0.83821 0.67462 0.72991 0.0
C400 C 0.83568 0.70255 0.71166 0.0
C401 C 0.84358 0.70202 0.68181 0.0
C402 C 0.83463 0.70209 0.81092 0.0
C403 C 0.82602 0.67357 0.8251 0.0
C404 C 0.8375 0.70302 0.77982 0.0
C405 C 0.83166 0.6755 0.76225 0.0
C406 C 0.82144 0.6478 0.77636 0.0
C407 C 0.81877 0.64679 0.80747 0.0
H408 H 0.12497 0.71337 0.82427 0.0
H409 H 0.17078 0.62816 0.83829 0.0
H410 H 0.13612 0.7136 0.77135 0.0
H411 H 0.18274 0.62904 0.78567 0.0
H412 H 0.16733 0.6127 0.68539 0.0
H413 H 0.16336 0.61615 0.73949 0.0
H414 H 0.16747 0.72173 0.73433 0.0
H415 H 0.17059 0.71819 0.67982 0.0
C416 C 0.13779 0.69506 0.81612 0.0
C417 C 0.1468 0.67054 0.83528 0.0
C418 C 0.14433 0.69529 0.78582 0.0
C419 C 0.16021 0.67118 0.77414 0.0
C420 C 0.17008 0.64758 0.79374 0.0
C421 C 0.16334 0.64716 0.82393 0.0
C422 C 0.16771 0.63664 0.69582 0.0
C423 C 0.1691 0.66518 0.67837 0.0
C424 C 0.16558 0.63864 0.72692 0.0
C425 C 0.16499 0.66925 0.74135 0.0
C426 C 0.16745 0.69779 0.72392 0.0
C427 C 0.16942 0.69577 0.69272 0.0
H428 H 0.82539 0.28259 0.1766 0.0
H429 H 0.85034 0.38296 0.17228 0.0
H430 H 0.83064 0.28307 0.23095 0.0
H431 H 0.85605 0.38328 0.22645 0.0
H432 H 0.84464 0.38201 0.32699 0.0
H433 H 0.83419 0.3813 0.27387 0.0
H434 H 0.86528 0.28423 0.26608 0.0
H435 H 0.87528 0.28471 0.31946 0.0
C436 C 0.83178 0.30484 0.1873 0.0
C437 C 0.8375 0.33273 0.17022 0.0
C438 C 0.83498 0.30503 0.21839 0.0
C439 C 0.84392 0.33313 0.233 0.0
C440 C 0.84889 0.36134 0.21594 0.0
C441 C 0.8457 0.36114 0.18488 0.0
C442 C 0.84915 0.36046 0.31396 0.0
C443 C 0.86086 0.33345 0.32733 0.0
C444 C 0.84325 0.36011 0.2835 0.0
C445 C 0.84896 0.33276 0.26572 0.0
C446 C 0.86035 0.30552 0.27924 0.0
C447 C 0.86623 0.30586 0.30975 0.0
H448 H 0.68712 0.86437 0.31542 0.0
H449 H 0.64424 0.77557 0.32331 0.0
H450 H 0.68312 0.86205 0.26107 0.0
H451 H 0.63938 0.77385 0.26902 0.0
H452 H 0.64592 0.76955 0.16767 0.0
H453 H 0.65784 0.76696 0.22052 0.0
H454 H 0.6503 0.8721 0.22695 0.0
H455 H 0.63929 0.87467 0.17431 0.0
C456 C 0.67699 0.84422 0.30548 0.0
C457 C 0.66581 0.82032 0.32356 0.0
C458 C 0.67454 0.84299 0.27436 0.0
C459 C 0.66059 0.81804 0.26066 0.0
C460 C 0.65041 0.79326 0.27875 0.0
C461 C 0.65309 0.79432 0.30989 0.0
C462 C 0.64703 0.79206 0.18042 0.0
C463 C 0.64165 0.82229 0.16691 0.0
C464 C 0.65375 0.79059 0.21069 0.0
C465 C 0.65511 0.81933 0.22802 0.0
C466 C 0.64996 0.84954 0.21424 0.0
C467 C 0.64342 0.851 0.18405 0.0
H468 H 0.31286 0.12806 0.80816 0.0
H469 H 0.35015 0.22124 0.81557 0.0
H470 H 0.31764 0.12983 0.75388 0.0
H471 H 0.35567 0.22258 0.76136 0.0
H472 H 0.34964 0.2245 0.6598 0.0
H473 H 0.33682 0.22649 0.71233 0.0
H474 H 0.35214 0.12304 0.72089 0.0
H475 H 0.3642 0.12096 0.66854 0.0
C476 C 0.32189 0.14905 0.79814 0.0
C477 C 0.33133 0.17437 0.81608 0.0
C478 C 0.32478 0.14999 0.76706 0.0
C479 C 0.33736 0.17612 0.75329 0.0
C480 C 0.34573 0.20221 0.77118 0.0
C481 C 0.34267 0.20138 0.80227 0.0
C482 C 0.35005 0.2022 0.67293 0.0
C483 C 0.35796 0.1726 0.66012 0.0
C484 C 0.34281 0.20334 0.70301 0.0
C485 C 0.34339 0.17491 0.72082 0.0
C486 C 0.351 0.14528 0.70774 0.0
C487 C 0.35813 0.14413 0.67775 0.0
H488 H 0.64755 0.22691 0.83073 0.0
H489 H 0.64037 0.122 0.82216 0.0
H490 H 0.66092 0.23033 0.77843 0.0
H491 H 0.65281 0.12541 0.77006 0.0
H492 H 0.69184 0.13374 0.68343 0.0
H493 H 0.6867 0.13559 0.73765 0.0
H494 H 0.64397 0.22454 0.729 0.0
H495 H 0.65001 0.22329 0.67489 0.0
C496 C 0.64883 0.20463 0.81766 0.0
C497 C 0.64291 0.17421 0.83047 0.0
C498 C 0.65639 0.20657 0.78771 0.0
C499 C 0.65807 0.17813 0.77003 0.0
C500 C 0.65229 0.14775 0.7831 0.0
C501 C 0.64491 0.14581 0.81296 0.0
C502 C 0.68173 0.15399 0.69321 0.0
C503 C 0.67113 0.1782 0.67497 0.0
C504 C 0.67862 0.15494 0.72424 0.0
C505 C 0.66453 0.1799 0.73768 0.0
C506 C 0.65506 0.20508 0.71949 0.0
C507 C 0.65843 0.20431 0.68844 0.0
H508 H 0.33196 0.87943 0.1842 0.0
H509 H 0.33057 0.77404 0.17657 0.0
H510 H 0.33613 0.87478 0.23821 0.0
H511 H 0.33383 0.76924 0.23101 0.0
H512 H 0.37437 0.77659 0.3225 0.0
H513 H 0.36421 0.77715 0.26922 0.0
H514 H 0.31628 0.8604 0.28347 0.0
H515 H 0.3273 0.86056 0.33636 0.0
C516 C 0.33209 0.85523 0.19416 0.0
C517 C 0.33104 0.8271 0.17617 0.0
C518 C 0.33432 0.85253 0.22521 0.0
C519 C 0.33534 0.8216 0.23906 0.0
C520 C 0.33348 0.79343 0.22107 0.0
C521 C 0.33144 0.79616 0.18991 0.0
C522 C 0.36147 0.79475 0.31422 0.0
C523 C 0.35183 0.81874 0.33344 0.0
C524 C 0.35551 0.79499 0.28372 0.0
C525 C 0.33959 0.81905 0.27193 0.0
C526 C 0.32904 0.842 0.2916 0.0
C527 C 0.33523 0.84199 0.32196 0.0
H528 H 0.29947 0.24342 0.97686 0.0
H529 H 0.24911 0.18819 0.9212 0.0
H530 H 0.26438 0.26748 0.00332 0.0
H531 H 0.2141 0.21259 0.94726 0.0
H532 H 0.15995 0.23235 0.02424 0.0
H533 H 0.1951 0.20962 0.99696 0.0
H534 H 0.22965 0.30502 0.99564 0.0
H535 H 0.19476 0.32758 0.02331 0.0
C536 C 0.28091 0.23671 0.97009 0.0
C537 C 0.27701 0.2139 0.94703 0.0
C538 C 0.26082 0.25054 0.98516 0.0
C539 C 0.23647 0.24178 0.97748 0.0
C540 C 0.23263 0.21943 0.95402 0.0
C541 C 0.25269 0.20565 0.93895 0.0
C542 C 0.17507 0.24842 0.01811 0.0
C543 C 0.17464 0.2817 0.0259 0.0
C544 C 0.19512 0.23547 0.00235 0.0
C545 C 0.21514 0.25555 0.99411 0.0
C546 C 0.21466 0.28884 0.00196 0.0
C547 C 0.19461 0.30178 0.01767 0.0
H548 H 0.83714 0.76249 0.5326 0.0
H549 H 0.80057 0.66845 0.5315 0.0
H550 H 0.8022 0.78651 0.50559 0.0
H551 H 0.766 0.69219 0.50416 0.0
H552 H 0.69697 0.75435 0.48573 0.0
H553 H 0.73199 0.73022 0.51233 0.0
H554 H 0.78243 0.78475 0.45622 0.0
H555 H 0.74746 0.80925 0.43002 0.0
C556 C 0.8217 0.74697 0.52649 0.0
C557 C 0.82155 0.71365 0.53421 0.0
C558 C 0.80176 0.76064 0.5109 0.0
C559 C 0.7813 0.74124 0.50278 0.0
C560 C 0.78129 0.70789 0.51045 0.0
C561 C 0.80118 0.69426 0.52597 0.0
C562 C 0.71555 0.76102 0.479 0.0
C563 C 0.71948 0.78366 0.45582 0.0
C564 C 0.7356 0.74715 0.49416 0.0
C565 C 0.76 0.75567 0.48644 0.0
C566 C 0.76388 0.77805 0.463 0.0
C567 C 0.74384 0.79188 0.44784 0.0
H568 H 0.24881 0.81253 0.07008 0.0
H569 H 0.29953 0.75545 0.01669 0.0
H570 H 0.21393 0.78571 0.04558 0.0
H571 H 0.26467 0.72912 0.9917 0.0
H572 H 0.19761 0.66461 0.97539 0.0
H573 H 0.2316 0.6908 0.00189 0.0
H574 H 0.19344 0.78359 0.99692 0.0
H575 H 0.15904 0.75707 0.97087 0.0
C576 C 0.25249 0.79423 0.0531 0.0
C577 C 0.27688 0.786 0.04533 0.0
C578 C 0.23251 0.77905 0.03892 0.0
C579 C 0.23651 0.75533 0.01665 0.0
C580 C 0.26095 0.74698 0.00904 0.0
C581 C 0.28093 0.76214 0.02326 0.0
C582 C 0.19642 0.6906 0.98003 0.0
C583 C 0.17569 0.70884 0.97101 0.0
C584 C 0.21598 0.70564 0.99505 0.0
C585 C 0.21531 0.73932 0.00136 0.0
C586 C 0.19441 0.75753 0.99265 0.0
C587 C 0.17477 0.74241 0.97762 0.0
H588 H 0.7042 0.25541 0.52797 0.0
H589 H 0.75121 0.17491 0.55426 0.0
H590 H 0.73884 0.28058 0.50159 0.0
H591 H 0.78559 0.19933 0.52705 0.0
H592 H 0.84819 0.26809 0.4983 0.0
H593 H 0.81435 0.24361 0.52682 0.0
H594 H 0.76285 0.27261 0.45757 0.0
H595 H 0.79646 0.29797 0.42979 0.0
C596 C 0.72194 0.2431 0.52806 0.0
C597 C 0.72501 0.21322 0.54312 0.0
C598 C 0.74176 0.25736 0.51277 0.0
C599 C 0.76501 0.24187 0.51198 0.0
C600 C 0.76808 0.21216 0.52746 0.0
C601 C 0.74832 0.19807 0.54294 0.0
C602 C 0.82963 0.26902 0.48918 0.0
C603 C 0.82493 0.28498 0.4619 0.0
C604 C 0.81024 0.25494 0.50545 0.0
C605 C 0.7858 0.25634 0.49462 0.0
C606 C 0.78131 0.2717 0.46694 0.0
C607 C 0.80062 0.28598 0.45086 0.0
H608 H 0.6533 0.74777 0.01018 0.0
H609 H 0.70402 0.81534 0.05213 0.0
H610 H 0.68754 0.72312 0.98269 0.0
H611 H 0.73839 0.78987 0.02596 0.0
H612 H 0.79253 0.75851 0.95441 0.0
H613 H 0.75728 0.78433 0.97894 0.0
H614 H 0.72241 0.68955 0.98853 0.0
H615 H 0.75706 0.66423 0.96275 0.0
C616 C 0.67182 0.7571 0.01373 0.0
C617 C 0.67602 0.78345 0.03323 0.0
C618 C 0.6915 0.7429 -0.00189 0.0
C619 C 0.71584 0.75448 0.00202 0.0
C620 C 0.71992 0.7807 0.02183 0.0
C621 C 0.70022 0.79516 0.03707 0.0
C622 C 0.77725 0.74332 0.96168 0.0
C623 C 0.77751 0.70942 0.95669 0.0
C624 C 0.75709 0.75803 0.97593 0.0
C625 C 0.73694 0.73905 0.98588 0.0
C626 C 0.73732 0.70508 0.98075 0.0
C627 C 0.75729 0.69049 0.96615 0.0
H628 H 0.34038 0.26113 0.52634 0.0
H629 H 0.30674 0.16577 0.51669 0.0
H630 H 0.30547 0.28578 0.49983 0.0
H631 H 0.27226 0.19015 0.48965 0.0
H632 H 0.2018 0.24959 0.4728 0.0
H633 H 0.23689 0.22477 0.49866 0.0
H634 H 0.28675 0.28867 0.45059 0.0
H635 H 0.25165 0.31394 0.42534 0.0
C636 C 0.32562 0.24544 0.51837 0.0
C637 C 0.32625 0.21157 0.52364 0.0
C638 C 0.30568 0.2595 0.50306 0.0
C639 C 0.28603 0.23993 0.49267 0.0
C640 C 0.28687 0.206 0.49775 0.0
C641 C 0.30672 0.192 0.51309 0.0
C642 C 0.22027 0.2582 0.4677 0.0
C643 C 0.22398 0.2837 0.44709 0.0
C644 C 0.24039 0.24392 0.48241 0.0
C645 C 0.26465 0.2548 0.47675 0.0
C646 C 0.26831 0.28006 0.45583 0.0
C647 C 0.2482 0.29437 0.44119 0.0
H648 H 0.79565 0.23279 0.03667 0.0
H649 H 0.75577 0.32372 0.046 0.0
H650 H 0.75978 0.2081 0.01258 0.0
H651 H 0.72034 0.29984 0.0204 0.0
H652 H 0.65288 0.23986 0.99389 0.0
H653 H 0.68728 0.26295 0.0224 0.0
H654 H 0.73878 0.20896 0.96712 0.0
H655 H 0.7044 0.18475 0.94002 0.0
C656 C 0.77919 0.2475 0.03344 0.0
C657 C 0.77847 0.28014 0.04312 0.0
C658 C 0.75867 0.23349 0.01939 0.0
C659 C 0.73713 0.25203 0.01414 0.0
C660 C 0.73638 0.2846 0.02436 0.0
C661 C 0.75676 0.2984 0.03891 0.0
C662 C 0.6716 0.23302 0.98795 0.0
C663 C 0.67601 0.21047 0.96487 0.0
C664 C 0.69135 0.24633 0.00417 0.0
C665 C 0.71593 0.23774 0.99726 0.0
C666 C 0.72017 0.21557 0.9737 0.0
C667 C 0.70046 0.20189 0.95791 0.0
H668 H 0.2427 0.66129 0.54384 0.0
H669 H 0.2044 0.75397 0.54588 0.0
H670 H 0.27704 0.68666 0.51742 0.0
H671 H 0.2393 0.77994 0.52072 0.0
H672 H 0.29204 0.80877 0.44648 0.0
H673 H 0.25833 0.78309 0.4737 0.0
H674 H 0.31091 0.72243 0.52121 0.0
H675 H 0.34459 0.74725 0.49268 0.0
C676 C 0.2418 0.68725 0.53896 0.0
C677 C 0.22084 0.70565 0.54679 0.0
C678 C 0.26159 0.70188 0.52397 0.0
C679 C 0.26104 0.73541 0.51679 0.0
C680 C 0.24021 0.75394 0.52528 0.0
C681 C 0.22026 0.73915 0.5399 0.0
C682 C 0.29638 0.78987 0.46269 0.0
C683 C 0.32092 0.77995 0.46745 0.0
C684 C 0.27704 0.77531 0.47854 0.0
C685 C 0.2818 0.75079 0.49991 0.0
C686 C 0.30646 0.74089 0.50465 0.0
C687 C 0.3258 0.75518 0.48842 0.0
H688 H 0.1022 0.5909 0.00761 0.0
H689 H 0.12071 0.54307 0.92426 0.0
H690 H 0.09878 0.53763 0.03211 0.0
H691 H 0.11775 0.48991 0.94883 0.0
H692 H 0.08886 0.39864 0.9952 0.0
H693 H 0.08783 0.45253 0.97151 0.0
H694 H 0.12659 0.49357 0.04743 0.0
H695 H 0.1272 0.43989 0.07131 0.0
C696 C 0.10552 0.569 0.99454 0.0
C697 C 0.11179 0.5711 0.96407 0.0
C698 C 0.10367 0.53853 0.00859 0.0
C699 C 0.10803 0.50958 0.99241 0.0
C700 C 0.11396 0.51173 0.96181 0.0
C701 C 0.11582 0.54219 0.94779 0.0
C702 C 0.09699 0.41925 0.00689 0.0
C703 C 0.10819 0.4151 0.03503 0.0
C704 C 0.09652 0.45004 0.99327 0.0
C705 C 0.10722 0.47726 0.00755 0.0
C706 C 0.11794 0.47317 0.036 0.0
C707 C 0.11842 0.44239 0.0496 0.0
H708 H 0.86529 0.55258 0.57812 0.0
H709 H 0.90229 0.59507 0.50163 0.0
H710 H 0.86392 0.49977 0.55262 0.0
H711 H 0.90133 0.54216 0.47636 0.0
H712 H 0.86816 0.45466 0.42711 0.0
H713 H 0.87005 0.50659 0.45387 0.0
H714 H 0.8908 0.4555 0.53489 0.0
H715 H 0.88848 0.4034 0.50819 0.0
C716 C 0.87334 0.55053 0.55597 0.0
C717 C 0.88381 0.57792 0.54178 0.0
C718 C 0.87264 0.52028 0.54144 0.0
C719 C 0.88238 0.51687 0.51242 0.0
C720 C 0.89331 0.54416 0.49852 0.0
C721 C 0.89401 0.57439 0.51305 0.0
C722 C 0.87302 0.45452 0.45067 0.0
C723 C 0.87818 0.42503 0.46559 0.0
C724 C 0.87429 0.48427 0.46593 0.0
C725 C 0.88074 0.48514 0.49643 0.0
C726 C 0.88559 0.45557 0.51146 0.0
C727 C 0.88433 0.42578 0.49616 0.0
H728 H 0.86759 0.44005 0.06458 0.0
H729 H 0.81391 0.40369 0.00109 0.0
H730 H 0.86806 0.4927 0.03875 0.0
H731 H 0.8137 0.45657 0.97583 0.0
H732 H 0.83791 0.5433 0.91909 0.0
H733 H 0.83875 0.49054 0.94467 0.0
H734 H 0.8433 0.54018 0.03005 0.0
H735 H 0.84333 0.59281 0.00433 0.0
C736 C 0.85577 0.44342 0.04522 0.0
C737 C 0.84076 0.41778 0.0348 0.0
C738 C 0.85592 0.47364 0.0305 0.0
C739 C 0.84094 0.47891 0.00516 0.0
C740 C 0.8258 0.45322 0.99494 0.0
C741 C 0.82578 0.42297 0.00953 0.0
C742 C 0.83917 0.54288 0.94331 0.0
C743 C 0.84058 0.57213 0.95972 0.0
C744 C 0.83948 0.51266 0.95802 0.0
C745 C 0.84102 0.51106 0.98947 0.0
C746 C 0.84248 0.54044 0.00581 0.0
C747 C 0.84235 0.57063 0.99108 0.0
H748 H 0.17903 0.45044 0.4182 0.0
H749 H 0.15358 0.39929 0.49714 0.0
H750 H 0.17874 0.50194 0.44603 0.0
H751 H 0.15286 0.45072 0.52475 0.0
H752 H 0.14749 0.59126 0.49648 0.0
H753 H 0.14898 0.54004 0.46834 0.0
H754 H 0.18116 0.49147 0.54506 0.0
H755 H 0.17924 0.54248 0.57331 0.0
C756 C 0.17336 0.45022 0.44148 0.0
C757 C 0.16635 0.42087 0.45552 0.0
C758 C 0.17305 0.47972 0.45736 0.0
C759 C 0.16577 0.4804 0.48759 0.0
C760 C 0.15888 0.45096 0.50161 0.0
C761 C 0.15916 0.42152 0.48574 0.0
C762 C 0.15487 0.56962 0.50729 0.0
C763 C 0.16317 0.57081 0.5371 0.0
C764 C 0.15588 0.54035 0.49113 0.0
C765 C 0.16517 0.51169 0.50448 0.0
C766 C 0.17359 0.51301 0.53427 0.0
C767 C 0.1726 0.54226 0.5504 0.0
H768 H 0.59814 0.09389 0.00284 0.0
H769 H 0.62824 0.04722 0.92405 0.0
H770 H 0.59635 0.0409 0.02812 0.0
H771 H 0.62689 0.99441 0.94946 0.0
H772 H 0.59912 0.90088 0.99367 0.0
H773 H 0.59757 0.95389 0.96844 0.0
H774 H 0.62532 0.00071 0.04852 0.0
H775 H 0.62642 0.94784 0.07387 0.0
C776 C 0.60437 0.07231 0.99095 0.0
C777 C 0.61337 0.07465 0.96152 0.0
C778 C 0.60346 0.04201 0.00546 0.0
C779 C 0.61151 0.01349 0.99079 0.0
C780 C 0.62026 0.01586 0.96122 0.0
C781 C 0.62118 0.04613 0.94674 0.0
C782 C 0.60478 0.92254 0.00588 0.0
C783 C 0.61295 0.92026 0.03568 0.0
C784 C 0.60401 0.95285 0.99141 0.0
C785 C 0.61138 0.98146 0.00647 0.0
C786 C 0.61924 0.97917 0.03642 0.0
C787 C 0.62002 0.94887 0.05088 0.0
H788 H 0.37757 0.94686 0.42259 0.0
H789 H 0.39246 0.89879 0.50695 0.0
H790 H 0.3805 2e-05 0.44715 0.0
H791 H 0.39593 0.95201 0.53144 0.0
H792 H 0.36867 0.05043 0.56943 0.0
H793 H 0.36875 0.99684 0.54548 0.0
H794 H 0.41005 0.03672 0.47104 0.0
H795 H 0.4095 0.09057 0.49477 0.0
C796 C 0.38164 0.94769 0.44635 0.0
C797 C 0.38467 0.91872 0.4629 0.0
C798 C 0.3835 0.97813 0.46037 0.0
C799 C 0.38845 0.98022 0.49124 0.0
C800 C 0.39179 0.9512 0.5077 0.0
C801 C 0.38991 0.92074 0.49367 0.0
C802 C 0.37787 0.0477 0.54802 0.0
C803 C 0.38899 0.07467 0.53389 0.0
C804 C 0.37805 0.01696 0.53438 0.0
C805 C 0.38937 0.01255 0.50633 0.0
C806 C 0.40088 0.03945 0.49246 0.0
C807 C 0.4007 0.07022 0.50611 0.0
H808 H 0.34549 0.90459 0.99462 0.0
H809 H 0.31195 0.95126 0.07133 0.0
H810 H 0.344 0.95623 0.96727 0.0
H811 H 0.30996 0.00282 0.04375 0.0
H812 H 0.33999 0.09596 -0.00167 0.0
H813 H 0.33853 0.04416 0.02539 0.0
H814 H 0.31543 0.99482 0.94442 0.0
H815 H 0.31741 0.04662 0.91719 0.0
C816 C 0.3376 0.92584 0.00553 0.0
C817 C 0.32893 0.92396 0.03514 0.0
C818 C 0.3366 0.95538 0.9898 0.0
C819 C 0.32689 0.98365 0.00335 0.0
C820 C 0.31786 0.98159 0.03283 0.0
C821 C 0.31888 0.95203 0.04857 0.0
C822 C 0.3345 0.07407 0.98635 0.0
C823 C 0.3289 0.07529 0.95563 0.0
C824 C 0.33352 0.04442 0.00189 0.0
C825 C 0.32688 0.01536 0.98705 0.0
C826 C 0.32092 0.01671 0.9564 0.0
C827 C 0.32193 0.04638 0.94084 0.0
H828 H 0.65478 0.0951 0.49542 0.0
H829 H 0.68284 0.04807 0.57522 0.0
H830 H 0.65506 0.04267 0.46935 0.0
H831 H 0.68374 0.99574 0.54893 0.0
H832 H 0.65373 0.90314 0.5035 0.0
H833 H 0.65522 0.95555 0.52951 0.0
H834 H 0.68268 0.00189 0.44903 0.0
H835 H 0.68055 0.94954 0.42281 0.0
C836 C 0.66119 0.07358 0.50731 0.0
C837 C 0.66871 0.07563 0.53737 0.0
C838 C 0.6615 0.04357 0.49232 0.0
C839 C 0.66942 0.01499 0.50705 0.0
C840 C 0.67721 0.01719 0.53706 0.0
C841 C 0.67682 0.04719 0.55208 0.0
C842 C 0.66014 0.92452 0.4914 0.0
C843 C 0.66695 0.9223 0.46111 0.0
C844 C 0.66115 0.95452 0.50635 0.0
C845 C 0.66906 0.98293 0.49135 0.0
C846 C 0.67616 0.98057 0.46111 0.0
C847 C 0.67508 0.95056 0.44614 0.0
loop_
_geom_bond_atom_site_label_1
_geom_bond_atom_site_label_2
_geom_bond_distance
_geom_bond_site_symmetry_2
_ccdc_geom_bond_type
In0 O1 2.294 . S
In0 O2 2.326 . S
In0 O6 2.266 . S
In0 O7 2.326 . S
In0 O8 2.266 . S
In0 O9 2.326 . S
In0 O11 2.294 . S
In0 O12 2.326 . S
O1 In0 2.294 . S
O1 C10 1.240 . S
O2 In0 2.326 . S
O2 C10 1.252 . S
C3 O6 1.252 . S
C3 O7 1.260 . S
C4 O11 1.240 . S
C4 O12 1.252 . S
C5 O8 1.252 . S
C5 O9 1.260 . S
O6 In0 2.266 . S
O6 C3 1.252 . S
O7 In0 2.326 . S
O7 C3 1.260 . S
O8 In0 2.266 . S
O8 C5 1.252 . S
O9 In0 2.326 . S
O9 C5 1.260 . S
C10 O1 1.240 . S
C10 O2 1.252 . S
O11 In0 2.294 . S
O11 C4 1.240 . S
O12 In0 2.326 . S
O12 C4 1.252 . S
In13 O14 2.294 . S
In13 O15 2.326 . S
In13 O19 2.266 . S
In13 O20 2.326 . S
In13 O21 2.266 . S
In13 O22 2.326 . S
In13 O24 2.294 . S
In13 O25 2.326 . S
O14 In13 2.294 . S
O14 C23 1.240 . S
O15 In13 2.326 . S
O15 C23 1.252 . S
C16 O19 1.252 . S
C16 O20 1.260 . S
C17 O24 1.240 . S
C17 O25 1.252 . S
C18 O21 1.252 . S
C18 O22 1.260 . S
O19 In13 2.266 . S
O19 C16 1.252 . S
O20 In13 2.326 . S
O20 C16 1.260 . S
O21 In13 2.266 . S
O21 C18 1.252 . S
O22 In13 2.326 . S
O22 C18 1.260 . S
C23 O14 1.240 . S
C23 O15 1.252 . S
O24 In13 2.294 . S
O24 C17 1.240 . S
O25 In13 2.326 . S
O25 C17 1.252 . S
In26 O27 2.294 . S
In26 O28 2.326 . S
In26 O32 2.266 . S
In26 O33 2.326 . S
In26 O34 2.266 . S
In26 O35 2.326 . S
In26 O37 2.294 . S
In26 O38 2.326 . S
O27 In26 2.294 . S
O27 C36 1.240 . S
O28 In26 2.326 . S
O28 C36 1.252 . S
C29 O32 1.252 . S
C29 O33 1.260 . S
C30 O37 1.240 . S
C30 O38 1.252 . S
C31 O34 1.252 . S
C31 O35 1.260 . S
O32 In26 2.266 . S
O32 C29 1.252 . S
O33 In26 2.326 . S
O33 C29 1.260 . S
O34 In26 2.266 . S
O34 C31 1.252 . S
O35 In26 2.326 . S
O35 C31 1.260 . S
C36 O27 1.240 . S
C36 O28 1.252 . S
O37 In26 2.294 . S
O37 C30 1.240 . S
O38 In26 2.326 . S
O38 C30 1.252 . S
In39 O40 2.294 . S
In39 O41 2.326 . S
In39 O45 2.266 . S
In39 O46 2.326 . S
In39 O47 2.266 . S
In39 O48 2.326 . S
In39 O50 2.294 . S
In39 O51 2.326 . S
O40 In39 2.294 . S
O40 C49 1.240 . S
O41 In39 2.326 . S
O41 C49 1.252 . S
C42 O45 1.252 . S
C42 O46 1.260 . S
C43 O50 1.240 . S
C43 O51 1.252 . S
C44 O47 1.252 . S
C44 O48 1.260 . S
O45 In39 2.266 . S
O45 C42 1.252 . S
O46 In39 2.326 . S
O46 C42 1.260 . S
O47 In39 2.266 . S
O47 C44 1.252 . S
O48 In39 2.326 . S
O48 C44 1.260 . S
C49 O40 1.240 . S
C49 O41 1.252 . S
O50 In39 2.294 . S
O50 C43 1.240 . S
O51 In39 2.326 . S
O51 C43 1.252 . S
In52 O53 2.294 . S
In52 O54 2.326 . S
In52 O58 2.266 . S
In52 O59 2.326 . S
In52 O60 2.266 . S
In52 O61 2.326 . S
In52 O63 2.294 . S
In52 O64 2.326 . S
O53 In52 2.294 . S
O53 C62 1.240 . S
O54 In52 2.326 . S
O54 C62 1.252 . S
C55 O58 1.252 . S
C55 O59 1.260 . S
C56 O63 1.240 . S
C56 O64 1.252 . S
C57 O60 1.252 . S
C57 O61 1.260 . S
O58 In52 2.266 . S
O58 C55 1.252 . S
O59 In52 2.326 . S
O59 C55 1.260 . S
O60 In52 2.266 . S
O60 C57 1.252 . S
O61 In52 2.326 . S
O61 C57 1.260 . S
C62 O53 1.240 . S
C62 O54 1.252 . S
O63 In52 2.294 . S
O63 C56 1.240 . S
O64 In52 2.326 . S
O64 C56 1.252 . S
In65 O66 2.294 . S
In65 O67 2.326 . S
In65 O71 2.266 . S
In65 O72 2.326 . S
In65 O73 2.266 . S
In65 O74 2.326 . S
In65 O76 2.294 . S
In65 O77 2.326 . S
O66 In65 2.294 . S
O66 C75 1.240 . S
O67 In65 2.326 . S
O67 C75 1.252 . S
C68 O71 1.252 . S
C68 O72 1.260 . S
C69 O76 1.240 . S
C69 O77 1.252 . S
C70 O73 1.252 . S
C70 O74 1.260 . S
O71 In65 2.266 . S
O71 C68 1.252 . S
O72 In65 2.326 . S
O72 C68 1.260 . S
O73 In65 2.266 . S
O73 C70 1.252 . S
O74 In65 2.326 . S
O74 C70 1.260 . S
C75 O66 1.240 . S
C75 O67 1.252 . S
O76 In65 2.294 . S
O76 C69 1.240 . S
O77 In65 2.326 . S
O77 C69 1.252 . S
In78 O79 2.294 . S
In78 O80 2.326 . S
In78 O84 2.266 . S
In78 O85 2.326 . S
In78 O86 2.266 . S
In78 O87 2.326 . S
In78 O89 2.294 . S
In78 O90 2.326 . S
O79 In78 2.294 . S
O79 C88 1.240 . S
O80 In78 2.326 . S
O80 C88 1.252 . S
C81 O84 1.252 . S
C81 O85 1.260 . S
C82 O89 1.240 . S
C82 O90 1.252 . S
C83 O86 1.252 . S
C83 O87 1.260 . S
O84 In78 2.266 . S
O84 C81 1.252 . S
O85 In78 2.326 . S
O85 C81 1.260 . S
O86 In78 2.266 . S
O86 C83 1.252 . S
O87 In78 2.326 . S
O87 C83 1.260 . S
C88 O79 1.240 . S
C88 O80 1.252 . S
O89 In78 2.294 . S
O89 C82 1.240 . S
O90 In78 2.326 . S
O90 C82 1.252 . S
In91 O92 2.294 . S
In91 O93 2.326 . S
In91 O97 2.266 . S
In91 O98 2.326 . S
In91 O99 2.266 . S
In91 O100 2.326 . S
In91 O102 2.294 . S
In91 O103 2.326 . S
O92 In91 2.294 . S
O92 C101 1.240 . S
O93 In91 2.326 . S
O93 C101 1.252 . S
C94 O97 1.252 . S
C94 O98 1.260 . S
C95 O102 1.240 . S
C95 O103 1.252 . S
C96 O99 1.252 . S
C96 O100 1.260 . S
O97 In91 2.266 . S
O97 C94 1.252 . S
O98 In91 2.326 . S
O98 C94 1.260 . S
O99 In91 2.266 . S
O99 C96 1.252 . S
O100 In91 2.326 . S
O100 C96 1.260 . S
C101 O92 1.240 . S
C101 O93 1.252 . S
O102 In91 2.294 . S
O102 C95 1.240 . S
O103 In91 2.326 . S
O103 C95 1.252 . S
In104 O105 2.294 . S
In104 O106 2.326 . S
In104 O110 2.266 . S
In104 O111 2.326 . S
In104 O112 2.266 . S
In104 O113 2.326 . S
In104 O115 2.294 . S
In104 O116 2.326 . S
O105 In104 2.294 . S
O105 C114 1.240 . S
O106 In104 2.326 . S
O106 C114 1.252 . S
C107 O110 1.252 . S
C107 O111 1.260 . S
C108 O115 1.240 . S
C108 O116 1.252 . S
C109 O112 1.252 . S
C109 O113 1.260 . S
O110 In104 2.266 . S
O110 C107 1.252 . S
O111 In104 2.326 . S
O111 C107 1.260 . S
O112 In104 2.266 . S
O112 C109 1.252 . S
O113 In104 2.326 . S
O113 C109 1.260 . S
C114 O105 1.240 . S
C114 O106 1.252 . S
O115 In104 2.294 . S
O115 C108 1.240 . S
O116 In104 2.326 . S
O116 C108 1.252 . S
In117 O118 2.294 . S
In117 O119 2.326 . S
In117 O123 2.266 . S
In117 O124 2.326 . S
In117 O125 2.266 . S
In117 O126 2.326 . S
In117 O128 2.294 . S
In117 O129 2.326 . S
O118 In117 2.294 . S
O118 C127 1.240 . S
O119 In117 2.326 . S
O119 C127 1.252 . S
C120 O123 1.252 . S
C120 O124 1.260 . S
C121 O128 1.240 . S
C121 O129 1.252 . S
C122 O125 1.252 . S
C122 O126 1.260 . S
O123 In117 2.266 . S
O123 C120 1.252 . S
O124 In117 2.326 . S
O124 C120 1.260 . S
O125 In117 2.266 . S
O125 C122 1.252 . S
O126 In117 2.326 . S
O126 C122 1.260 . S
C127 O118 1.240 . S
C127 O119 1.252 . S
O128 In117 2.294 . S
O128 C121 1.240 . S
O129 In117 2.326 . S
O129 C121 1.252 . S
In130 O131 2.294 . S
In130 O132 2.326 . S
In130 O136 2.266 . S
In130 O137 2.326 . S
In130 O138 2.266 . S
In130 O139 2.326 . S
In130 O141 2.294 . S
In130 O142 2.326 . S
O131 In130 2.294 . S
O131 C140 1.240 . S
O132 In130 2.326 . S
O132 C140 1.252 . S
C133 O136 1.252 . S
C133 O137 1.260 . S
C134 O141 1.240 . S
C134 O142 1.252 . S
C135 O138 1.252 . S
C135 O139 1.260 . S
O136 In130 2.266 . S
O136 C133 1.252 . S
O137 In130 2.326 . S
O137 C133 1.260 . S
O138 In130 2.266 . S
O138 C135 1.252 . S
O139 In130 2.326 . S
O139 C135 1.260 . S
C140 O131 1.240 . S
C140 O132 1.252 . S
O141 In130 2.294 . S
O141 C134 1.240 . S
O142 In130 2.326 . S
O142 C134 1.252 . S
In143 O144 2.294 . S
In143 O145 2.326 . S
In143 O149 2.266 . S
In143 O150 2.326 . S
In143 O151 2.266 . S
In143 O152 2.326 . S
In143 O154 2.294 . S
In143 O155 2.326 . S
O144 In143 2.294 . S
O144 C153 1.240 . S
O145 In143 2.326 . S
O145 C153 1.252 . S
C146 O149 1.252 . S
C146 O150 1.260 . S
C147 O154 1.240 . S
C147 O155 1.252 . S
C148 O151 1.252 . S
C148 O152 1.260 . S
O149 In143 2.266 . S
O149 C146 1.252 . S
O150 In143 2.326 . S
O150 C146 1.260 . S
O151 In143 2.266 . S
O151 C148 1.252 . S
O152 In143 2.326 . S
O152 C148 1.260 . S
C153 O144 1.240 . S
C153 O145 1.252 . S
O154 In143 2.294 . S
O154 C147 1.240 . S
O155 In143 2.326 . S
O155 C147 1.252 . S
In156 O157 2.294 . S
In156 O158 2.326 . S
In156 O162 2.266 . S
In156 O163 2.326 . S
In156 O164 2.266 . S
In156 O165 2.326 . S
In156 O167 2.294 . S
In156 O168 2.326 . S
O157 In156 2.294 . S
O157 C166 1.240 . S
O158 In156 2.326 . S
O158 C166 1.252 . S
C159 O162 1.252 . S
C159 O163 1.260 . S
C160 O167 1.240 . S
C160 O168 1.252 . S
C161 O164 1.252 . S
C161 O165 1.260 . S
O162 In156 2.266 . S
O162 C159 1.252 . S
O163 In156 2.326 . S
O163 C159 1.260 . S
O164 In156 2.266 . S
O164 C161 1.252 . S
O165 In156 2.326 . S
O165 C161 1.260 . S
C166 O157 1.240 . S
C166 O158 1.252 . S
O167 In156 2.294 . S
O167 C160 1.240 . S
O168 In156 2.326 . S
O168 C160 1.252 . S
In169 O170 2.294 . S
In169 O171 2.326 . S
In169 O175 2.266 . S
In169 O176 2.326 . S
In169 O177 2.266 . S
In169 O178 2.326 . S
In169 O180 2.294 . S
In169 O181 2.326 . S
O170 In169 2.294 . S
O170 C179 1.240 . S
O171 In169 2.326 . S
O171 C179 1.252 . S
C172 O175 1.252 . S
C172 O176 1.260 . S
C173 O180 1.240 . S
C173 O181 1.252 . S
C174 O177 1.252 . S
C174 O178 1.260 . S
O175 In169 2.266 . S
O175 C172 1.252 . S
O176 In169 2.326 . S
O176 C172 1.260 . S
O177 In169 2.266 . S
O177 C174 1.252 . S
O178 In169 2.326 . S
O178 C174 1.260 . S
C179 O170 1.240 . S
C179 O171 1.252 . S
O180 In169 2.294 . S
O180 C173 1.240 . S
O181 In169 2.326 . S
O181 C173 1.252 . S
In182 O183 2.294 . S
In182 O184 2.326 . S
In182 O188 2.266 . S
In182 O189 2.326 . S
In182 O190 2.266 . S
In182 O191 2.326 . S
In182 O193 2.294 . S
In182 O194 2.326 . S
O183 In182 2.294 . S
O183 C192 1.240 . S
O184 In182 2.326 . S
O184 C192 1.252 . S
C185 O188 1.252 . S
C185 O189 1.260 . S
C186 O193 1.240 . S
C186 O194 1.252 . S
C187 O190 1.252 . S
C187 O191 1.260 . S
O188 In182 2.266 . S
O188 C185 1.252 . S
O189 In182 2.326 . S
O189 C185 1.260 . S
O190 In182 2.266 . S
O190 C187 1.252 . S
O191 In182 2.326 . S
O191 C187 1.260 . S
C192 O183 1.240 . S
C192 O184 1.252 . S
O193 In182 2.294 . S
O193 C186 1.240 . S
O194 In182 2.326 . S
O194 C186 1.252 . S
In195 O196 2.294 . S
In195 O197 2.326 . S
In195 O201 2.266 . S
In195 O202 2.326 . S
In195 O203 2.266 . S
In195 O204 2.326 . S
In195 O206 2.294 . S
In195 O207 2.326 . S
O196 In195 2.294 . S
O196 C205 1.240 . S
O197 In195 2.326 . S
O197 C205 1.252 . S
C198 O201 1.252 . S
C198 O202 1.260 . S
C199 O206 1.240 . S
C199 O207 1.252 . S
C200 O203 1.252 . S
C200 O204 1.260 . S
O201 In195 2.266 . S
O201 C198 1.252 . S
O202 In195 2.326 . S
O202 C198 1.260 . S
O203 In195 2.266 . S
O203 C200 1.252 . S
O204 In195 2.326 . S
O204 C200 1.260 . S
C205 O196 1.240 . S
C205 O197 1.252 . S
O206 In195 2.294 . S
O206 C199 1.240 . S
O207 In195 2.326 . S
O207 C199 1.252 . S
H208 C216 0.950 . S
H209 C221 0.950 . S
H210 C218 0.950 . S
H211 C220 0.950 . S
H212 C222 0.950 . S
H213 C224 0.950 . S
H214 C226 0.950 . S
H215 C227 0.950 . S
C216 H208 0.950 . S
C216 C217 1.386 . S
C216 C218 1.391 1_455 S
C217 C216 1.386 . S
C217 C221 1.393 . S
C218 H210 0.950 . S
C218 C216 1.391 1_655 S
C218 C219 1.400 . S
C219 C218 1.400 . S
C219 C220 1.398 . S
C219 C225 1.491 . S
C220 H211 0.950 . S
C220 C219 1.398 . S
C220 C221 1.391 1_655 S
C221 H209 0.950 . S
C221 C217 1.393 . S
C221 C220 1.391 1_455 S
C222 H212 0.950 . S
C222 C223 1.386 . S
C222 C224 1.391 . S
C223 C222 1.386 . S
C223 C227 1.393 . S
C224 H213 0.950 . S
C224 C222 1.391 . S
C224 C225 1.400 . S
C225 C219 1.491 . S
C225 C224 1.400 . S
C225 C226 1.398 . S
C226 H214 0.950 . S
C226 C225 1.398 . S
C226 C227 1.391 . S
C227 H215 0.950 . S
C227 C223 1.393 . S
C227 C226 1.391 . S
H228 C236 0.950 . S
H229 C241 0.950 . S
H230 C238 0.950 . S
H231 C240 0.950 . S
H232 C242 0.950 . S
H233 C244 0.950 . S
H234 C246 0.950 . S
H235 C247 0.950 . S
C236 H228 0.950 . S
C236 C237 1.386 . S
C236 C238 1.391 1_655 S
C237 C236 1.386 . S
C237 C241 1.393 . S
C238 H230 0.950 . S
C238 C236 1.391 1_455 S
C238 C239 1.400 . S
C239 C238 1.400 . S
C239 C240 1.398 . S
C239 C245 1.491 . S
C240 H231 0.950 . S
C240 C239 1.398 . S
C240 C241 1.391 1_455 S
C241 H229 0.950 . S
C241 C237 1.393 . S
C241 C240 1.391 1_655 S
C242 H232 0.950 . S
C242 C243 1.386 . S
C242 C244 1.391 . S
C243 C242 1.386 . S
C243 C247 1.393 . S
C244 H233 0.950 . S
C244 C242 1.391 . S
C244 C245 1.400 . S
C245 C239 1.491 . S
C245 C244 1.400 . S
C245 C246 1.398 . S
C246 H234 0.950 . S
C246 C245 1.398 . S
C246 C247 1.391 . S
C247 H235 0.950 . S
C247 C243 1.393 . S
C247 C246 1.391 . S
H248 C256 0.950 . S
H249 C261 0.950 . S
H250 C258 0.950 . S
H251 C260 0.950 . S
H252 C262 0.950 . S
H253 C264 0.950 . S
H254 C266 0.950 . S
H255 C267 0.950 . S
C256 H248 0.950 . S
C256 C257 1.386 . S
C256 C258 1.391 . S
C257 C256 1.386 . S
C257 C261 1.393 . S
C258 H250 0.950 . S
C258 C256 1.391 . S
C258 C259 1.400 . S
C259 C258 1.400 . S
C259 C260 1.398 . S
C259 C265 1.491 . S
C260 H251 0.950 . S
C260 C259 1.398 . S
C260 C261 1.391 . S
C261 H249 0.950 . S
C261 C257 1.393 . S
C261 C260 1.391 . S
C262 H252 0.950 . S
C262 C263 1.386 . S
C262 C264 1.391 1_455 S
C263 C262 1.386 . S
C263 C267 1.393 . S
C264 H253 0.950 . S
C264 C262 1.391 1_655 S
C264 C265 1.400 . S
C265 C259 1.491 . S
C265 C264 1.400 . S
C265 C266 1.398 . S
C266 H254 0.950 . S
C266 C265 1.398 . S
C266 C267 1.391 1_655 S
C267 H255 0.950 . S
C267 C263 1.393 . S
C267 C266 1.391 1_455 S
H268 C276 0.950 . S
H269 C281 0.950 . S
H270 C278 0.950 . S
H271 C280 0.950 . S
H272 C282 0.950 . S
H273 C284 0.950 . S
H274 C286 0.950 . S
H275 C287 0.950 . S
C276 H268 0.950 . S
C276 C277 1.386 . S
C276 C278 1.391 . S
C277 C276 1.386 . S
C277 C281 1.393 . S
C278 H270 0.950 . S
C278 C276 1.391 . S
C278 C279 1.400 . S
C279 C278 1.400 . S
C279 C280 1.398 . S
C279 C285 1.491 . S
C280 H271 0.950 . S
C280 C279 1.398 . S
C280 C281 1.391 . S
C281 H269 0.950 . S
C281 C277 1.393 . S
C281 C280 1.391 . S
C282 H272 0.950 . S
C282 C283 1.386 . S
C282 C284 1.391 1_655 S
C283 C282 1.386 . S
C283 C287 1.393 . S
C284 H273 0.950 . S
C284 C282 1.391 1_455 S
C284 C285 1.400 . S
C285 C279 1.491 . S
C285 C284 1.400 . S
C285 C286 1.398 . S
C286 H274 0.950 . S
C286 C285 1.398 . S
C286 C287 1.391 1_455 S
C287 H275 0.950 . S
C287 C283 1.393 . S
C287 C286 1.391 1_655 S
H288 C296 0.950 . S
H289 C301 0.950 . S
H290 C298 0.950 . S
H291 C300 0.950 . S
H292 C302 0.950 . S
H293 C304 0.950 . S
H294 C306 0.950 . S
H295 C307 0.950 . S
C296 H288 0.950 . S
C296 C297 1.386 . S
C296 C298 1.391 . S
C297 C296 1.386 . S
C297 C301 1.393 . S
C298 H290 0.950 . S
C298 C296 1.391 . S
C298 C299 1.400 . S
C299 C298 1.400 . S
C299 C300 1.398 . S
C299 C305 1.491 . S
C300 H291 0.950 . S
C300 C299 1.398 . S
C300 C301 1.391 . S
C301 H289 0.950 . S
C301 C297 1.393 . S
C301 C300 1.391 . S
C302 H292 0.950 . S
C302 C303 1.386 . S
C302 C304 1.391 . S
C303 C302 1.386 . S
C303 C307 1.393 . S
C304 H293 0.950 . S
C304 C302 1.391 . S
C304 C305 1.400 . S
C305 C299 1.491 . S
C305 C304 1.400 . S
C305 C306 1.398 . S
C306 H294 0.950 . S
C306 C305 1.398 . S
C306 C307 1.391 . S
C307 H295 0.950 . S
C307 C303 1.393 . S
C307 C306 1.391 . S
H308 C316 0.950 . S
H309 C321 0.950 . S
H310 C318 0.950 . S
H311 C320 0.950 . S
H312 C322 0.950 . S
H313 C324 0.950 . S
H314 C326 0.950 . S
H315 C327 0.950 . S
C316 H308 0.950 . S
C316 C317 1.386 . S
C316 C318 1.391 . S
C317 C316 1.386 . S
C317 C321 1.393 . S
C318 H310 0.950 . S
C318 C316 1.391 . S
C318 C319 1.400 . S
C319 C318 1.400 . S
C319 C320 1.398 . S
C319 C325 1.491 . S
C320 H311 0.950 . S
C320 C319 1.398 . S
C320 C321 1.391 . S
C321 H309 0.950 . S
C321 C317 1.393 . S
C321 C320 1.391 . S
C322 H312 0.950 . S
C322 C323 1.386 . S
C322 C324 1.391 . S
C323 C322 1.386 . S
C323 C327 1.393 . S
C324 H313 0.950 . S
C324 C322 1.391 . S
C324 C325 1.400 . S
C325 C319 1.491 . S
C325 C324 1.400 . S
C325 C326 1.398 . S
C326 H314 0.950 . S
C326 C325 1.398 . S
C326 C327 1.391 . S
C327 H315 0.950 . S
C327 C323 1.393 . S
C327 C326 1.391 . S
H328 C336 0.950 . S
H329 C341 0.950 . S
H330 C338 0.950 . S
H331 C340 0.950 . S
H332 C342 0.950 . S
H333 C344 0.950 . S
H334 C346 0.950 . S
H335 C347 0.950 . S
C336 H328 0.950 . S
C336 C337 1.386 . S
C336 C338 1.391 . S
C337 C336 1.386 . S
C337 C341 1.393 . S
C338 H330 0.950 . S
C338 C336 1.391 . S
C338 C339 1.400 . S
C339 C338 1.400 . S
C339 C340 1.398 . S
C339 C345 1.491 . S
C340 H331 0.950 . S
C340 C339 1.398 . S
C340 C341 1.391 . S
C341 H329 0.950 . S
C341 C337 1.393 . S
C341 C340 1.391 . S
C342 H332 0.950 . S
C342 C343 1.386 . S
C342 C344 1.391 . S
C343 C342 1.386 . S
C343 C347 1.393 . S
C344 H333 0.950 . S
C344 C342 1.391 . S
C344 C345 1.400 . S
C345 C339 1.491 . S
C345 C344 1.400 . S
C345 C346 1.398 . S
C346 H334 0.950 . S
C346 C345 1.398 . S
C346 C347 1.391 . S
C347 H335 0.950 . S
C347 C343 1.393 . S
C347 C346 1.391 . S
H348 C356 0.950 . S
H349 C361 0.950 . S
H350 C358 0.950 . S
H351 C360 0.950 . S
H352 C362 0.950 . S
H353 C364 0.950 . S
H354 C366 0.950 . S
H355 C367 0.950 . S
C356 H348 0.950 . S
C356 C357 1.386 . S
C356 C358 1.391 . S
C357 C356 1.386 . S
C357 C361 1.393 . S
C358 H350 0.950 . S
C358 C356 1.391 . S
C358 C359 1.400 . S
C359 C358 1.400 . S
C359 C360 1.398 . S
C359 C365 1.491 . S
C360 H351 0.950 . S
C360 C359 1.398 . S
C360 C361 1.391 . S
C361 H349 0.950 . S
C361 C357 1.393 . S
C361 C360 1.391 . S
C362 H352 0.950 . S
C362 C363 1.386 . S
C362 C364 1.391 . S
C363 C362 1.386 . S
C363 C367 1.393 . S
C364 H353 0.950 . S
C364 C362 1.391 . S
C364 C365 1.400 . S
C365 C359 1.491 . S
C365 C364 1.400 . S
C365 C366 1.398 . S
C366 H354 0.950 . S
C366 C365 1.398 . S
C366 C367 1.391 . S
C367 H355 0.950 . S
C367 C363 1.393 . S
C367 C366 1.391 . S
H368 C376 0.950 . S
H369 C381 0.950 . S
H370 C378 0.950 . S
H371 C380 0.950 . S
H372 C382 0.950 . S
H373 C384 0.950 . S
H374 C386 0.950 . S
H375 C387 0.950 . S
C376 H368 0.950 . S
C376 C377 1.386 . S
C376 C378 1.391 . S
C377 C376 1.386 . S
C377 C381 1.393 . S
C378 H370 0.950 . S
C378 C376 1.391 . S
C378 C379 1.400 . S
C379 C378 1.400 . S
C379 C380 1.398 . S
C379 C385 1.491 . S
C380 H371 0.950 . S
C380 C379 1.398 . S
C380 C381 1.391 . S
C381 H369 0.950 . S
C381 C377 1.393 . S
C381 C380 1.391 . S
C382 H372 0.950 . S
C382 C383 1.386 . S
C382 C384 1.391 . S
C383 C382 1.386 . S
C383 C387 1.393 . S
C384 H373 0.950 . S
C384 C382 1.391 . S
C384 C385 1.400 . S
C385 C379 1.491 . S
C385 C384 1.400 . S
C385 C386 1.398 . S
C386 H374 0.950 . S
C386 C385 1.398 . S
C386 C387 1.391 . S
C387 H375 0.950 . S
C387 C383 1.393 . S
C387 C386 1.391 . S
H388 C396 0.950 . S
H389 C401 0.950 . S
H390 C398 0.950 . S
H391 C400 0.950 . S
H392 C402 0.950 . S
H393 C404 0.950 . S
H394 C406 0.950 . S
H395 C407 0.950 . S
C396 H388 0.950 . S
C396 C397 1.386 . S
C396 C398 1.391 . S
C397 C396 1.386 . S
C397 C401 1.393 . S
C398 H390 0.950 . S
C398 C396 1.391 . S
C398 C399 1.400 . S
C399 C398 1.400 . S
C399 C400 1.398 . S
C399 C405 1.491 . S
C400 H391 0.950 . S
C400 C399 1.398 . S
C400 C401 1.391 . S
C401 H389 0.950 . S
C401 C397 1.393 . S
C401 C400 1.391 . S
C402 H392 0.950 . S
C402 C403 1.386 . S
C402 C404 1.391 . S
C403 C402 1.386 . S
C403 C407 1.393 . S
C404 H393 0.950 . S
C404 C402 1.391 . S
C404 C405 1.400 . S
C405 C399 1.491 . S
C405 C404 1.400 . S
C405 C406 1.398 . S
C406 H394 0.950 . S
C406 C405 1.398 . S
C406 C407 1.391 . S
C407 H395 0.950 . S
C407 C403 1.393 . S
C407 C406 1.391 . S
H408 C416 0.950 . S
H409 C421 0.950 . S
H410 C418 0.950 . S
H411 C420 0.950 . S
H412 C422 0.950 . S
H413 C424 0.950 . S
H414 C426 0.950 . S
H415 C427 0.950 . S
C416 H408 0.950 . S
C416 C417 1.386 . S
C416 C418 1.391 . S
C417 C416 1.386 . S
C417 C421 1.393 . S
C418 H410 0.950 . S
C418 C416 1.391 . S
C418 C419 1.400 . S
C419 C418 1.400 . S
C419 C420 1.398 . S
C419 C425 1.491 . S
C420 H411 0.950 . S
C420 C419 1.398 . S
C420 C421 1.391 . S
C421 H409 0.950 . S
C421 C417 1.393 . S
C421 C420 1.391 . S
C422 H412 0.950 . S
C422 C423 1.386 . S
C422 C424 1.391 . S
C423 C422 1.386 . S
C423 C427 1.393 . S
C424 H413 0.950 . S
C424 C422 1.391 . S
C424 C425 1.400 . S
C425 C419 1.491 . S
C425 C424 1.400 . S
C425 C426 1.398 . S
C426 H414 0.950 . S
C426 C425 1.398 . S
C426 C427 1.391 . S
C427 H415 0.950 . S
C427 C423 1.393 . S
C427 C426 1.391 . S
H428 C436 0.950 . S
H429 C441 0.950 . S
H430 C438 0.950 . S
H431 C440 0.950 . S
H432 C442 0.950 . S
H433 C444 0.950 . S
H434 C446 0.950 . S
H435 C447 0.950 . S
C436 H428 0.950 . S
C436 C437 1.386 . S
C436 C438 1.391 . S
C437 C436 1.386 . S
C437 C441 1.393 . S
C438 H430 0.950 . S
C438 C436 1.391 . S
C438 C439 1.400 . S
C439 C438 1.400 . S
C439 C440 1.398 . S
C439 C445 1.491 . S
C440 H431 0.950 . S
C440 C439 1.398 . S
C440 C441 1.391 . S
C441 H429 0.950 . S
C441 C437 1.393 . S
C441 C440 1.391 . S
C442 H432 0.950 . S
C442 C443 1.386 . S
C442 C444 1.391 . S
C443 C442 1.386 . S
C443 C447 1.393 . S
C444 H433 0.950 . S
C444 C442 1.391 . S
C444 C445 1.400 . S
C445 C439 1.491 . S
C445 C444 1.400 . S
C445 C446 1.398 . S
C446 H434 0.950 . S
C446 C445 1.398 . S
C446 C447 1.391 . S
C447 H435 0.950 . S
C447 C443 1.393 . S
C447 C446 1.391 . S
H448 C456 0.950 . S
H449 C461 0.950 . S
H450 C458 0.950 . S
H451 C460 0.950 . S
H452 C462 0.950 . S
H453 C464 0.950 . S
H454 C466 0.950 . S
H455 C467 0.950 . S
C456 H448 0.950 . S
C456 C457 1.386 . S
C456 C458 1.391 . S
C457 C456 1.386 . S
C457 C461 1.393 . S
C458 H450 0.950 . S
C458 C456 1.391 . S
C458 C459 1.400 . S
C459 C458 1.400 . S
C459 C460 1.398 . S
C459 C465 1.491 . S
C460 H451 0.950 . S
C460 C459 1.398 . S
C460 C461 1.391 . S
C461 H449 0.950 . S
C461 C457 1.393 . S
C461 C460 1.391 . S
C462 H452 0.950 . S
C462 C463 1.386 . S
C462 C464 1.391 . S
C463 C462 1.386 . S
C463 C467 1.393 . S
C464 H453 0.950 . S
C464 C462 1.391 . S
C464 C465 1.400 . S
C465 C459 1.491 . S
C465 C464 1.400 . S
C465 C466 1.398 . S
C466 H454 0.950 . S
C466 C465 1.398 . S
C466 C467 1.391 . S
C467 H455 0.950 . S
C467 C463 1.393 . S
C467 C466 1.391 . S
H468 C476 0.950 . S
H469 C481 0.950 . S
H470 C478 0.950 . S
H471 C480 0.950 . S
H472 C482 0.950 . S
H473 C484 0.950 . S
H474 C486 0.950 . S
H475 C487 0.950 . S
C476 H468 0.950 . S
C476 C477 1.386 . S
C476 C478 1.391 . S
C477 C476 1.386 . S
C477 C481 1.393 . S
C478 H470 0.950 . S
C478 C476 1.391 . S
C478 C479 1.400 . S
C479 C478 1.400 . S
C479 C480 1.398 . S
C479 C485 1.491 . S
C480 H471 0.950 . S
C480 C479 1.398 . S
C480 C481 1.391 . S
C481 H469 0.950 . S
C481 C477 1.393 . S
C481 C480 1.391 . S
C482 H472 0.950 . S
C482 C483 1.386 . S
C482 C484 1.391 . S
C483 C482 1.386 . S
C483 C487 1.393 . S
C484 H473 0.950 . S
C484 C482 1.391 . S
C484 C485 1.400 . S
C485 C479 1.491 . S
C485 C484 1.400 . S
C485 C486 1.398 . S
C486 H474 0.950 . S
C486 C485 1.398 . S
C486 C487 1.391 . S
C487 H475 0.950 . S
C487 C483 1.393 . S
C487 C486 1.391 . S
H488 C496 0.950 . S
H489 C501 0.950 . S
H490 C498 0.950 . S
H491 C500 0.950 . S
H492 C502 0.950 . S
H493 C504 0.950 . S
H494 C506 0.950 . S
H495 C507 0.950 . S
C496 H488 0.950 . S
C496 C497 1.386 . S
C496 C498 1.391 . S
C497 C496 1.386 . S
C497 C501 1.393 . S
C498 H490 0.950 . S
C498 C496 1.391 . S
C498 C499 1.400 . S
C499 C498 1.400 . S
C499 C500 1.398 . S
C499 C505 1.491 . S
C500 H491 0.950 . S
C500 C499 1.398 . S
C500 C501 1.391 . S
C501 H489 0.950 . S
C501 C497 1.393 . S
C501 C500 1.391 . S
C502 H492 0.950 . S
C502 C503 1.386 . S
C502 C504 1.391 . S
C503 C502 1.386 . S
C503 C507 1.393 . S
C504 H493 0.950 . S
C504 C502 1.391 . S
C504 C505 1.400 . S
C505 C499 1.491 . S
C505 C504 1.400 . S
C505 C506 1.398 . S
C506 H494 0.950 . S
C506 C505 1.398 . S
C506 C507 1.391 . S
C507 H495 0.950 . S
C507 C503 1.393 . S
C507 C506 1.391 . S
H508 C516 0.950 . S
H509 C521 0.950 . S
H510 C518 0.950 . S
H511 C520 0.950 . S
H512 C522 0.950 . S
H513 C524 0.950 . S
H514 C526 0.950 . S
H515 C527 0.950 . S
C516 H508 0.950 . S
C516 C517 1.386 . S
C516 C518 1.391 . S
C517 C516 1.386 . S
C517 C521 1.393 . S
C518 H510 0.950 . S
C518 C516 1.391 . S
C518 C519 1.400 . S
C519 C518 1.400 . S
C519 C520 1.398 . S
C519 C525 1.491 . S
C520 H511 0.950 . S
C520 C519 1.398 . S
C520 C521 1.391 . S
C521 H509 0.950 . S
C521 C517 1.393 . S
C521 C520 1.391 . S
C522 H512 0.950 . S
C522 C523 1.386 . S
C522 C524 1.391 . S
C523 C522 1.386 . S
C523 C527 1.393 . S
C524 H513 0.950 . S
C524 C522 1.391 . S
C524 C525 1.400 . S
C525 C519 1.491 . S
C525 C524 1.400 . S
C525 C526 1.398 . S
C526 H514 0.950 . S
C526 C525 1.398 . S
C526 C527 1.391 . S
C527 H515 0.950 . S
C527 C523 1.393 . S
C527 C526 1.391 . S
H528 C536 0.950 . S
H529 C541 0.950 . S
H530 C538 0.950 . S
H531 C540 0.950 . S
H532 C542 0.950 . S
H533 C544 0.950 . S
H534 C546 0.950 . S
H535 C547 0.950 . S
C536 H528 0.950 . S
C536 C537 1.386 . S
C536 C538 1.391 1_556 S
C537 C536 1.386 . S
C537 C541 1.393 . S
C538 H530 0.950 . S
C538 C536 1.391 1_554 S
C538 C539 1.400 1_554 S
C539 C538 1.400 1_556 S
C539 C540 1.398 . S
C539 C545 1.491 1_556 S
C540 H531 0.950 . S
C540 C539 1.398 . S
C540 C541 1.391 . S
C541 H529 0.950 . S
C541 C537 1.393 . S
C541 C540 1.391 . S
C542 H532 0.950 . S
C542 C543 1.386 . S
C542 C544 1.391 1_554 S
C543 C542 1.386 . S
C543 C547 1.393 . S
C544 H533 0.950 . S
C544 C542 1.391 1_556 S
C544 C545 1.400 1_556 S
C545 C539 1.491 1_554 S
C545 C544 1.400 1_554 S
C545 C546 1.398 . S
C546 H534 0.950 . S
C546 C545 1.398 . S
C546 C547 1.391 . S
C547 H535 0.950 . S
C547 C543 1.393 . S
C547 C546 1.391 . S
H548 C556 0.950 . S
H549 C561 0.950 . S
H550 C558 0.950 . S
H551 C560 0.950 . S
H552 C562 0.950 . S
H553 C564 0.950 . S
H554 C566 0.950 . S
H555 C567 0.950 . S
C556 H548 0.950 . S
C556 C557 1.386 . S
C556 C558 1.391 . S
C557 C556 1.386 . S
C557 C561 1.393 . S
C558 H550 0.950 . S
C558 C556 1.391 . S
C558 C559 1.400 . S
C559 C558 1.400 . S
C559 C560 1.398 . S
C559 C565 1.491 . S
C560 H551 0.950 . S
C560 C559 1.398 . S
C560 C561 1.391 . S
C561 H549 0.950 . S
C561 C557 1.393 . S
C561 C560 1.391 . S
C562 H552 0.950 . S
C562 C563 1.386 . S
C562 C564 1.391 . S
C563 C562 1.386 . S
C563 C567 1.393 . S
C564 H553 0.950 . S
C564 C562 1.391 . S
C564 C565 1.400 . S
C565 C559 1.491 . S
C565 C564 1.400 . S
C565 C566 1.398 . S
C566 H554 0.950 . S
C566 C565 1.398 . S
C566 C567 1.391 . S
C567 H555 0.950 . S
C567 C563 1.393 . S
C567 C566 1.391 . S
H568 C576 0.950 . S
H569 C581 0.950 . S
H570 C578 0.950 . S
H571 C580 0.950 . S
H572 C582 0.950 . S
H573 C584 0.950 . S
H574 C586 0.950 . S
H575 C587 0.950 . S
C576 H568 0.950 . S
C576 C577 1.386 . S
C576 C578 1.391 . S
C577 C576 1.386 . S
C577 C581 1.393 . S
C578 H570 0.950 . S
C578 C576 1.391 . S
C578 C579 1.400 . S
C579 C578 1.400 . S
C579 C580 1.398 1_554 S
C579 C585 1.491 1_554 S
C580 H571 0.950 . S
C580 C579 1.398 1_556 S
C580 C581 1.391 1_556 S
C581 H569 0.950 . S
C581 C577 1.393 . S
C581 C580 1.391 1_554 S
C582 H572 0.950 . S
C582 C583 1.386 . S
C582 C584 1.391 . S
C583 C582 1.386 . S
C583 C587 1.393 . S
C584 H573 0.950 . S
C584 C582 1.391 . S
C584 C585 1.400 . S
C585 C579 1.491 1_556 S
C585 C584 1.400 . S
C585 C586 1.398 1_556 S
C586 H574 0.950 . S
C586 C585 1.398 1_554 S
C586 C587 1.391 1_554 S
C587 H575 0.950 . S
C587 C583 1.393 . S
C587 C586 1.391 1_556 S
H588 C596 0.950 . S
H589 C601 0.950 . S
H590 C598 0.950 . S
H591 C600 0.950 . S
H592 C602 0.950 . S
H593 C604 0.950 . S
H594 C606 0.950 . S
H595 C607 0.950 . S
C596 H588 0.950 . S
C596 C597 1.386 . S
C596 C598 1.391 . S
C597 C596 1.386 . S
C597 C601 1.393 . S
C598 H590 0.950 . S
C598 C596 1.391 . S
C598 C599 1.400 . S
C599 C598 1.400 . S
C599 C600 1.398 . S
C599 C605 1.491 . S
C600 H591 0.950 . S
C600 C599 1.398 . S
C600 C601 1.391 . S
C601 H589 0.950 . S
C601 C597 1.393 . S
C601 C600 1.391 . S
C602 H592 0.950 . S
C602 C603 1.386 . S
C602 C604 1.391 . S
C603 C602 1.386 . S
C603 C607 1.393 . S
C604 H593 0.950 . S
C604 C602 1.391 . S
C604 C605 1.400 . S
C605 C599 1.491 . S
C605 C604 1.400 . S
C605 C606 1.398 . S
C606 H594 0.950 . S
C606 C605 1.398 . S
C606 C607 1.391 . S
C607 H595 0.950 . S
C607 C603 1.393 . S
C607 C606 1.391 . S
H608 C616 0.950 . S
H609 C621 0.950 . S
H610 C618 0.950 . S
H611 C620 0.950 . S
H612 C622 0.950 . S
H613 C624 0.950 . S
H614 C626 0.950 . S
H615 C627 0.950 . S
C616 H608 0.950 . S
C616 C617 1.386 . S
C616 C618 1.391 1_554 S
C617 C616 1.386 . S
C617 C621 1.393 . S
C618 H610 0.950 . S
C618 C616 1.391 1_556 S
C618 C619 1.400 1_556 S
C619 C618 1.400 1_554 S
C619 C620 1.398 . S
C619 C625 1.491 1_554 S
C620 H611 0.950 . S
C620 C619 1.398 . S
C620 C621 1.391 . S
C621 H609 0.950 . S
C621 C617 1.393 . S
C621 C620 1.391 . S
C622 H612 0.950 . S
C622 C623 1.386 . S
C622 C624 1.391 1_556 S
C623 C622 1.386 . S
C623 C627 1.393 . S
C624 H613 0.950 . S
C624 C622 1.391 1_554 S
C624 C625 1.400 1_554 S
C625 C619 1.491 1_556 S
C625 C624 1.400 1_556 S
C625 C626 1.398 . S
C626 H614 0.950 . S
C626 C625 1.398 . S
C626 C627 1.391 . S
C627 H615 0.950 . S
C627 C623 1.393 . S
C627 C626 1.391 . S
H628 C636 0.950 . S
H629 C641 0.950 . S
H630 C638 0.950 . S
H631 C640 0.950 . S
H632 C642 0.950 . S
H633 C644 0.950 . S
H634 C646 0.950 . S
H635 C647 0.950 . S
C636 H628 0.950 . S
C636 C637 1.386 . S
C636 C638 1.391 . S
C637 C636 1.386 . S
C637 C641 1.393 . S
C638 H630 0.950 . S
C638 C636 1.391 . S
C638 C639 1.400 . S
C639 C638 1.400 . S
C639 C640 1.398 . S
C639 C645 1.491 . S
C640 H631 0.950 . S
C640 C639 1.398 . S
C640 C641 1.391 . S
C641 H629 0.950 . S
C641 C637 1.393 . S
C641 C640 1.391 . S
C642 H632 0.950 . S
C642 C643 1.386 . S
C642 C644 1.391 . S
C643 C642 1.386 . S
C643 C647 1.393 . S
C644 H633 0.950 . S
C644 C642 1.391 . S
C644 C645 1.400 . S
C645 C639 1.491 . S
C645 C644 1.400 . S
C645 C646 1.398 . S
C646 H634 0.950 . S
C646 C645 1.398 . S
C646 C647 1.391 . S
C647 H635 0.950 . S
C647 C643 1.393 . S
C647 C646 1.391 . S
H648 C656 0.950 . S
H649 C661 0.950 . S
H650 C658 0.950 1_556 S
H651 C660 0.950 . S
H652 C662 0.950 . S
H653 C664 0.950 1_554 S
H654 C666 0.950 . S
H655 C667 0.950 . S
C656 H648 0.950 . S
C656 C657 1.386 . S
C656 C658 1.391 . S
C657 C656 1.386 . S
C657 C661 1.393 . S
C658 H650 0.950 1_554 S
C658 C656 1.391 . S
C658 C659 1.400 . S
C659 C658 1.400 . S
C659 C660 1.398 . S
C659 C665 1.491 1_554 S
C660 H651 0.950 . S
C660 C659 1.398 . S
C660 C661 1.391 . S
C661 H649 0.950 . S
C661 C657 1.393 . S
C661 C660 1.391 . S
C662 H652 0.950 . S
C662 C663 1.386 . S
C662 C664 1.391 . S
C663 C662 1.386 . S
C663 C667 1.393 . S
C664 H653 0.950 1_556 S
C664 C662 1.391 . S
C664 C665 1.400 . S
C665 C659 1.491 1_556 S
C665 C664 1.400 . S
C665 C666 1.398 . S
C666 H654 0.950 . S
C666 C665 1.398 . S
C666 C667 1.391 . S
C667 H655 0.950 . S
C667 C663 1.393 . S
C667 C666 1.391 . S
H668 C676 0.950 . S
H669 C681 0.950 . S
H670 C678 0.950 . S
H671 C680 0.950 . S
H672 C682 0.950 . S
H673 C684 0.950 . S
H674 C686 0.950 . S
H675 C687 0.950 . S
C676 H668 0.950 . S
C676 C677 1.386 . S
C676 C678 1.391 . S
C677 C676 1.386 . S
C677 C681 1.393 . S
C678 H670 0.950 . S
C678 C676 1.391 . S
C678 C679 1.400 . S
C679 C678 1.400 . S
C679 C680 1.398 . S
C679 C685 1.491 . S
C680 H671 0.950 . S
C680 C679 1.398 . S
C680 C681 1.391 . S
C681 H669 0.950 . S
C681 C677 1.393 . S
C681 C680 1.391 . S
C682 H672 0.950 . S
C682 C683 1.386 . S
C682 C684 1.391 . S
C683 C682 1.386 . S
C683 C687 1.393 . S
C684 H673 0.950 . S
C684 C682 1.391 . S
C684 C685 1.400 . S
C685 C679 1.491 . S
C685 C684 1.400 . S
C685 C686 1.398 . S
C686 H674 0.950 . S
C686 C685 1.398 . S
C686 C687 1.391 . S
C687 H675 0.950 . S
C687 C683 1.393 . S
C687 C686 1.391 . S
H688 C696 0.950 . S
H689 C701 0.950 . S
H690 C698 0.950 . S
H691 C700 0.950 . S
H692 C702 0.950 . S
H693 C704 0.950 . S
H694 C706 0.950 . S
H695 C707 0.950 . S
C696 H688 0.950 . S
C696 C697 1.386 . S
C696 C698 1.391 1_556 S
C697 C696 1.386 . S
C697 C701 1.393 . S
C698 H690 0.950 . S
C698 C696 1.391 1_554 S
C698 C699 1.400 1_554 S
C699 C698 1.400 1_556 S
C699 C700 1.398 . S
C699 C705 1.491 1_556 S
C700 H691 0.950 . S
C700 C699 1.398 . S
C700 C701 1.391 . S
C701 H689 0.950 . S
C701 C697 1.393 . S
C701 C700 1.391 . S
C702 H692 0.950 . S
C702 C703 1.386 . S
C702 C704 1.391 1_554 S
C703 C702 1.386 . S
C703 C707 1.393 . S
C704 H693 0.950 . S
C704 C702 1.391 1_556 S
C704 C705 1.400 1_556 S
C705 C699 1.491 1_554 S
C705 C704 1.400 1_554 S
C705 C706 1.398 . S
C706 H694 0.950 . S
C706 C705 1.398 . S
C706 C707 1.391 . S
C707 H695 0.950 . S
C707 C703 1.393 . S
C707 C706 1.391 . S
H708 C716 0.950 . S
H709 C721 0.950 . S
H710 C718 0.950 . S
H711 C720 0.950 . S
H712 C722 0.950 . S
H713 C724 0.950 . S
H714 C726 0.950 . S
H715 C727 0.950 . S
C716 H708 0.950 . S
C716 C717 1.386 . S
C716 C718 1.391 . S
C717 C716 1.386 . S
C717 C721 1.393 . S
C718 H710 0.950 . S
C718 C716 1.391 . S
C718 C719 1.400 . S
C719 C718 1.400 . S
C719 C720 1.398 . S
C719 C725 1.491 . S
C720 H711 0.950 . S
C720 C719 1.398 . S
C720 C721 1.391 . S
C721 H709 0.950 . S
C721 C717 1.393 . S
C721 C720 1.391 . S
C722 H712 0.950 . S
C722 C723 1.386 . S
C722 C724 1.391 . S
C723 C722 1.386 . S
C723 C727 1.393 . S
C724 H713 0.950 . S
C724 C722 1.391 . S
C724 C725 1.400 . S
C725 C719 1.491 . S
C725 C724 1.400 . S
C725 C726 1.398 . S
C726 H714 0.950 . S
C726 C725 1.398 . S
C726 C727 1.391 . S
C727 H715 0.950 . S
C727 C723 1.393 . S
C727 C726 1.391 . S
H728 C736 0.950 . S
H729 C741 0.950 . S
H730 C738 0.950 . S
H731 C740 0.950 1_556 S
H732 C742 0.950 . S
H733 C744 0.950 . S
H734 C746 0.950 1_554 S
H735 C747 0.950 . S
C736 H728 0.950 . S
C736 C737 1.386 . S
C736 C738 1.391 . S
C737 C736 1.386 . S
C737 C741 1.393 . S
C738 H730 0.950 . S
C738 C736 1.391 . S
C738 C739 1.400 . S
C739 C738 1.400 . S
C739 C740 1.398 . S
C739 C745 1.491 1_554 S
C740 H731 0.950 1_554 S
C740 C739 1.398 . S
C740 C741 1.391 . S
C741 H729 0.950 . S
C741 C737 1.393 . S
C741 C740 1.391 . S
C742 H732 0.950 . S
C742 C743 1.386 . S
C742 C744 1.391 . S
C743 C742 1.386 . S
C743 C747 1.393 . S
C744 H733 0.950 . S
C744 C742 1.391 . S
C744 C745 1.400 . S
C745 C739 1.491 1_556 S
C745 C744 1.400 . S
C745 C746 1.398 . S
C746 H734 0.950 1_556 S
C746 C745 1.398 . S
C746 C747 1.391 . S
C747 H735 0.950 . S
C747 C743 1.393 . S
C747 C746 1.391 . S
H748 C756 0.950 . S
H749 C761 0.950 . S
H750 C758 0.950 . S
H751 C760 0.950 . S
H752 C762 0.950 . S
H753 C764 0.950 . S
H754 C766 0.950 . S
H755 C767 0.950 . S
C756 H748 0.950 . S
C756 C757 1.386 . S
C756 C758 1.391 . S
C757 C756 1.386 . S
C757 C761 1.393 . S
C758 H750 0.950 . S
C758 C756 1.391 . S
C758 C759 1.400 . S
C759 C758 1.400 . S
C759 C760 1.398 . S
C759 C765 1.491 . S
C760 H751 0.950 . S
C760 C759 1.398 . S
C760 C761 1.391 . S
C761 H749 0.950 . S
C761 C757 1.393 . S
C761 C760 1.391 . S
C762 H752 0.950 . S
C762 C763 1.386 . S
C762 C764 1.391 . S
C763 C762 1.386 . S
C763 C767 1.393 . S
C764 H753 0.950 . S
C764 C762 1.391 . S
C764 C765 1.400 . S
C765 C759 1.491 . S
C765 C764 1.400 . S
C765 C766 1.398 . S
C766 H754 0.950 . S
C766 C765 1.398 . S
C766 C767 1.391 . S
C767 H755 0.950 . S
C767 C763 1.393 . S
C767 C766 1.391 . S
H768 C776 0.950 1_554 S
H769 C781 0.950 . S
H770 C778 0.950 . S
H771 C780 0.950 . S
H772 C782 0.950 1_556 S
H773 C784 0.950 . S
H774 C786 0.950 . S
H775 C787 0.950 . S
C776 H768 0.950 1_556 S
C776 C777 1.386 . S
C776 C778 1.391 1_556 S
C777 C776 1.386 . S
C777 C781 1.393 . S
C778 H770 0.950 . S
C778 C776 1.391 1_554 S
C778 C779 1.400 1_554 S
C779 C778 1.400 1_556 S
C779 C780 1.398 . S
C779 C785 1.491 1_546 S
C780 H771 0.950 . S
C780 C779 1.398 . S
C780 C781 1.391 . S
C781 H769 0.950 . S
C781 C777 1.393 . S
C781 C780 1.391 . S
C782 H772 0.950 1_554 S
C782 C783 1.386 . S
C782 C784 1.391 1_554 S
C783 C782 1.386 . S
C783 C787 1.393 . S
C784 H773 0.950 . S
C784 C782 1.391 1_556 S
C784 C785 1.400 1_556 S
C785 C779 1.491 1_564 S
C785 C784 1.400 1_554 S
C785 C786 1.398 . S
C786 H774 0.950 . S
C786 C785 1.398 . S
C786 C787 1.391 . S
C787 H775 0.950 . S
C787 C783 1.393 . S
C787 C786 1.391 . S
H788 C796 0.950 . S
H789 C801 0.950 . S
H790 C798 0.950 . S
H791 C800 0.950 . S
H792 C802 0.950 . S
H793 C804 0.950 . S
H794 C806 0.950 . S
H795 C807 0.950 . S
C796 H788 0.950 . S
C796 C797 1.386 . S
C796 C798 1.391 . S
C797 C796 1.386 . S
C797 C801 1.393 . S
C798 H790 0.950 . S
C798 C796 1.391 . S
C798 C799 1.400 . S
C799 C798 1.400 . S
C799 C800 1.398 . S
C799 C805 1.491 1_565 S
C800 H791 0.950 . S
C800 C799 1.398 . S
C800 C801 1.391 . S
C801 H789 0.950 . S
C801 C797 1.393 . S
C801 C800 1.391 . S
C802 H792 0.950 . S
C802 C803 1.386 . S
C802 C804 1.391 . S
C803 C802 1.386 . S
C803 C807 1.393 . S
C804 H793 0.950 . S
C804 C802 1.391 . S
C804 C805 1.400 . S
C805 C799 1.491 1_545 S
C805 C804 1.400 . S
C805 C806 1.398 . S
C806 H794 0.950 . S
C806 C805 1.398 . S
C806 C807 1.391 . S
C807 H795 0.950 . S
C807 C803 1.393 . S
C807 C806 1.391 . S
H808 C816 0.950 . S
H809 C821 0.950 . S
H810 C818 0.948 1_556 S
H811 C820 0.950 . S
H812 C822 0.950 . S
H813 C824 0.948 1_554 S
H814 C826 0.950 . S
H815 C827 0.950 . S
C816 H808 0.950 . S
C816 C817 1.386 . S
C816 C818 1.392 . S
C817 C816 1.386 . S
C817 C821 1.393 . S
C818 H810 0.948 1_554 S
C818 C816 1.392 . S
C818 C819 1.401 . S
C819 C818 1.401 . S
C819 C820 1.398 . S
C819 C825 1.491 1_564 S
C820 H811 0.950 . S
C820 C819 1.398 . S
C820 C821 1.391 . S
C821 H809 0.950 . S
C821 C817 1.393 . S
C821 C820 1.391 . S
C822 H812 0.950 . S
C822 C823 1.386 . S
C822 C824 1.392 . S
C823 C822 1.386 . S
C823 C827 1.393 . S
C824 H813 0.948 1_556 S
C824 C822 1.392 . S
C824 C825 1.401 . S
C825 C819 1.491 1_546 S
C825 C824 1.401 . S
C825 C826 1.398 . S
C826 H814 0.950 . S
C826 C825 1.398 . S
C826 C827 1.391 . S
C827 H815 0.950 . S
C827 C823 1.393 . S
C827 C826 1.391 . S
H828 C836 0.950 . S
H829 C841 0.950 . S
H830 C838 0.950 . S
H831 C840 0.950 . S
H832 C842 0.950 . S
H833 C844 0.950 . S
H834 C846 0.950 . S
H835 C847 0.950 . S
C836 H828 0.950 . S
C836 C837 1.386 . S
C836 C838 1.391 . S
C837 C836 1.386 . S
C837 C841 1.393 . S
C838 H830 0.950 . S
C838 C836 1.391 . S
C838 C839 1.400 . S
C839 C838 1.400 . S
C839 C840 1.398 . S
C839 C845 1.491 1_545 S
C840 H831 0.950 . S
C840 C839 1.398 . S
C840 C841 1.391 . S
C841 H829 0.950 . S
C841 C837 1.393 . S
C841 C840 1.391 . S
C842 H832 0.950 . S
C842 C843 1.386 . S
C842 C844 1.391 . S
C843 C842 1.386 . S
C843 C847 1.393 . S
C844 H833 0.950 . S
C844 C842 1.391 . S
C844 C845 1.400 . S
C845 C839 1.491 1_565 S
C845 C844 1.400 . S
C845 C846 1.398 . S
C846 H834 0.950 . S
C846 C845 1.398 . S
C846 C847 1.391 . S
C847 H835 0.950 . S
C847 C843 1.393 . S
C847 C846 1.391 . S
C217 C3 1.459 . S
C223 C83 1.464 . S
C237 C16 1.462 . S
C243 C96 1.460 . S
C257 C55 1.462 . S
C263 C31 1.463 . S
C277 C70 1.462 . S
C283 C44 1.463 . S
C297 C187 1.465 . S
C303 C109 1.459 . S
C317 C200 1.462 . S
C323 C120 1.463 . S
C337 C135 1.464 . S
C343 C161 1.457 . S
C357 C146 1.460 . S
C363 C174 1.462 . S
C377 C4 1.559 . S
C383 C68 1.565 . S
C397 C17 1.558 . S
C403 C57 1.568 . S
C417 C36 1.569 . S
C423 C94 1.560 . S
C437 C81 1.563 . S
C443 C49 1.571 . S
C457 C172 1.571 . S
C463 C114 1.564 . S
C477 C159 1.570 . S
C483 C121 1.566 . S
C497 C140 1.561 . S
C503 C198 1.562 . S
C517 C185 1.569 . S
C523 C147 1.559 . S
C537 C160 1.481 . S
C543 C10 1.485 . S
C557 C23 1.477 . S
C563 C173 1.477 . S
C577 C186 1.474 . S
C583 C30 1.475 . S
C597 C199 1.484 . S
C603 C43 1.485 . S
C617 C108 1.478 . S
C623 C62 1.478 . S
C637 C127 1.475 . S
C643 C69 1.473 . S
C657 C82 1.484 . S
C663 C134 1.485 . S
C677 C95 1.472 . S
C683 C153 1.475 . S
C697 C29 1.740 . S
C703 C5 1.739 . S
C717 C18 1.733 . S
C723 C42 1.734 . S
C737 C88 1.360 . S
C743 C56 1.365 . S
C757 C75 1.363 . S
C763 C101 1.361 . S
C777 C133 1.733 . S
C783 C107 1.732 . S
C797 C148 1.739 . S
C803 C122 1.740 . S
C817 C192 1.364 . S
C823 C166 1.360 . S
C837 C205 1.371 . S
C843 C179 1.364 . S
