# Generated by pormake.
# Topology wkx, (5)-cn, num edge types: 1
# Building blocks:
#     Node 0, Type 0, BuildingBlock: BEQFEK_clean_sbu_0, # of connection points: 5
#     Node 1, Type 0, BuildingBlock: BEQFEK_clean_sbu_0, # of connection points: 5
#     Node 2, Type 0, BuildingBlock: BEQFEK_clean_sbu_0, # of connection points: 5
#     Node 3, Type 0, BuildingBlock: BEQFEK_clean_sbu_0, # of connection points: 5
#     Node 4, Type 0, BuildingBlock: BEQFEK_clean_sbu_0, # of connection points: 5
#     Node 5, Type 0, BuildingBlock: BEQFEK_clean_sbu_0, # of connection points: 5
#     Node 6, Type 0, BuildingBlock: BEQFEK_clean_sbu_0, # of connection points: 5
#     Node 7, Type 0, BuildingBlock: BEQFEK_clean_sbu_0, # of connection points: 5
#     Node 8, Type 0, BuildingBlock: BEQFEK_clean_sbu_0, # of connection points: 5
#     Node 9, Type 0, BuildingBlock: BEQFEK_clean_sbu_0, # of connection points: 5
#     Node 10, Type 0, BuildingBlock: BEQFEK_clean_sbu_0, # of connection points: 5
#     Node 11, Type 0, BuildingBlock: BEQFEK_clean_sbu_0, # of connection points: 5
#     Edge 12, Type (0, 0), BuildingBlock: KIFKEQ_clean_linker_1, # of connection points: 2
#     Edge 13, Type (0, 0), BuildingBlock: KIFKEQ_clean_linker_1, # of connection points: 2
#     Edge 14, Type (0, 0), BuildingBlock: KIFKEQ_clean_linker_1, # of connection points: 2
#     Edge 15, Type (0, 0), BuildingBlock: KIFKEQ_clean_linker_1, # of connection points: 2
#     Edge 16, Type (0, 0), BuildingBlock: KIFKEQ_clean_linker_1, # of connection points: 2
#     Edge 17, Type (0, 0), BuildingBlock: KIFKEQ_clean_linker_1, # of connection points: 2
#     Edge 18, Type (0, 0), BuildingBlock: KIFKEQ_clean_linker_1, # of connection points: 2
#     Edge 19, Type (0, 0), BuildingBlock: KIFKEQ_clean_linker_1, # of connection points: 2
#     Edge 20, Type (0, 0), BuildingBlock: KIFKEQ_clean_linker_1, # of connection points: 2
#     Edge 21, Type (0, 0), BuildingBlock: KIFKEQ_clean_linker_1, # of connection points: 2
#     Edge 22, Type (0, 0), BuildingBlock: KIFKEQ_clean_linker_1, # of connection points: 2
#     Edge 23, Type (0, 0), BuildingBlock: KIFKEQ_clean_linker_1, # of connection points: 2
#     Edge 24, Type (0, 0), BuildingBlock: KIFKEQ_clean_linker_1, # of connection points: 2
#     Edge 25, Type (0, 0), BuildingBlock: KIFKEQ_clean_linker_1, # of connection points: 2
#     Edge 26, Type (0, 0), BuildingBlock: KIFKEQ_clean_linker_1, # of connection points: 2
#     Edge 27, Type (0, 0), BuildingBlock: KIFKEQ_clean_linker_1, # of connection points: 2
#     Edge 28, Type (0, 0), BuildingBlock: KIFKEQ_clean_linker_1, # of connection points: 2
#     Edge 29, Type (0, 0), BuildingBlock: KIFKEQ_clean_linker_1, # of connection points: 2
#     Edge 30, Type (0, 0), BuildingBlock: KIFKEQ_clean_linker_1, # of connection points: 2
#     Edge 31, Type (0, 0), BuildingBlock: KIFKEQ_clean_linker_1, # of connection points: 2
#     Edge 32, Type (0, 0), BuildingBlock: KIFKEQ_clean_linker_1, # of connection points: 2
#     Edge 33, Type (0, 0), BuildingBlock: KIFKEQ_clean_linker_1, # of connection points: 2
#     Edge 34, Type (0, 0), BuildingBlock: KIFKEQ_clean_linker_1, # of connection points: 2
#     Edge 35, Type (0, 0), BuildingBlock: KIFKEQ_clean_linker_1, # of connection points: 2
#     Edge 36, Type (0, 0), BuildingBlock: KIFKEQ_clean_linker_1, # of connection points: 2
#     Edge 37, Type (0, 0), BuildingBlock: KIFKEQ_clean_linker_1, # of connection points: 2
#     Edge 38, Type (0, 0), BuildingBlock: KIFKEQ_clean_linker_1, # of connection points: 2
#     Edge 39, Type (0, 0), BuildingBlock: KIFKEQ_clean_linker_1, # of connection points: 2
#     Edge 40, Type (0, 0), BuildingBlock: KIFKEQ_clean_linker_1, # of connection points: 2
#     Edge 41, Type (0, 0), BuildingBlock: KIFKEQ_clean_linker_1, # of connection points: 2
# Relax obj value: 0.425
# Max RMSD: 0.258
# Mean RMSD: 0.258
data_MOF--net-wkx--node1-BEQFEK_clean_sbu_0--edge1-KIFKEQ_clean_linker_1
_symmetry_space_group_name_H-M    P1
_symmetry_Int_Tables_number       1
_symmetry_cell_setting            triclinic
loop_
_symmetry_equiv_pos_as_xyz
'x, y, z'
_cell_length_a     35.950721
_cell_length_b     35.964244
_cell_length_c     77.110341
_cell_angle_alpha  90.030003
_cell_angle_beta   89.9617
_cell_angle_gamma 120.07552
loop_
_atom_site_label
_atom_site_type_symbol
_atom_site_fract_x
_atom_site_fract_y
_atom_site_fract_z
_atom_type_partial_charge
Co0 Co 0.22046 0.15096 0.444 0.0
Co1 Co 0.31879 0.20385 0.45116 0.0
C2 C 0.25678 0.22971 0.46572 0.0
O3 O 0.22572 0.19914 0.45771 0.0
O4 O 0.29473 0.23557 0.46455 0.0
C5 C 0.13791 0.13239 0.43076 0.0
O6 O 0.15702 0.17258 0.42561 0.0
C7 C 0.40324 0.27717 0.4434 0.0
C8 C 0.44736 0.25805 0.45495 0.0
C9 C 0.44654 0.29031 0.44541 0.0
N10 N 0.37983 0.23875 0.45109 0.0
N11 N 0.40634 0.22759 0.45808 0.0
C12 C 0.38382 0.30081 0.43485 0.0
H13 H 0.35136 0.29011 0.44022 0.0
H14 H 0.38026 0.29361 0.42076 0.0
H15 H 0.40467 0.336 0.43663 0.0
C16 C 0.24939 0.15054 0.40861 0.0
N17 N 0.25722 0.16758 0.42465 0.0
N18 N 0.2989 0.18814 0.42758 0.0
C19 C 0.31886 0.18409 0.41341 0.0
C20 C 0.28812 0.16024 0.40089 0.0
C21 C 0.20533 0.11997 0.40187 0.0
H22 H 0.18943 0.0916 0.41055 0.0
H23 H 0.18592 0.13605 0.40186 0.0
H24 H 0.20623 0.10927 0.38846 0.0
O25 O 0.23289 0.11332 0.45866 0.0
O26 O 0.30305 0.15047 0.46421 0.0
H27 H 0.37253 0.18402 0.42549 0.0
H28 H 0.37153 0.17913 0.40214 0.0
C29 C 0.36479 0.19463 0.4132 0.0
H30 H 0.386 0.22987 0.41204 0.0
H31 H 0.39645 0.1989 0.46477 0.0
O32 O 0.15936 0.11723 0.43783 0.0
C33 C 0.26644 0.11656 0.46572 0.0
Co34 Co 0.06217 0.21397 0.61288 0.0
Co35 Co 0.1073 0.3127 0.61845 0.0
C36 C 0.01927 0.25325 0.63289 0.0
O37 O 0.0197 0.2215 0.62594 0.0
O38 O 0.05103 0.29122 0.63112 0.0
C39 C -0.00211 0.13178 0.59936 0.0
O40 O 0.98006 0.15225 0.59227 0.0
C41 C 0.11869 0.39783 0.61254 0.0
C42 C 0.18707 0.44062 0.61915 0.0
C43 C 0.15081 0.44077 0.6131 0.0
N44 N 0.13535 0.37374 0.61793 0.0
N45 N 0.17609 0.39947 0.62205 0.0
C46 C 0.07424 0.37912 0.60531 0.0
H47 H 0.0616 0.34508 0.60152 0.0
H48 H 0.07406 0.39787 0.59391 0.0
H49 H 0.05275 0.3801 0.6154 0.0
C50 C 0.09254 0.23975 0.57718 0.0
N51 N 0.08355 0.2489 0.59305 0.0
N52 N 0.1031 0.29082 0.59515 0.0
C53 C 0.12494 0.30976 0.58043 0.0
C54 C 0.11903 0.27802 0.56852 0.0
C55 C 0.08308 0.19572 0.57191 0.0
H56 H 0.08788 0.17925 0.58309 0.0
H57 H 0.04902 0.17667 0.56775 0.0
H58 H 0.10394 0.1967 0.56112 0.0
O59 O 0.11129 0.22632 0.62784 0.0
O60 O 0.14356 0.29674 0.63263 0.0
H61 H 0.18048 0.36881 0.58785 0.0
H62 H 0.16719 0.36575 0.56503 0.0
C63 C 0.15383 0.35719 0.57834 0.0
H64 H 0.1354 0.37367 0.58097 0.0
H65 H 0.19669 0.38885 0.62642 0.0
O66 O 0.033 0.15245 0.60762 0.0
C67 C 0.14106 0.26041 0.63478 0.0
Co68 Co 0.83322 0.0568 0.77529 0.0
Co69 Co 0.79177 0.1119 0.78505 0.0
C70 C 0.75812 0.02083 0.79858 0.0
O71 O 0.78413 0.01563 0.78916 0.0
O72 O 0.75788 0.05619 0.79832 0.0
C73 C 0.86651 0.00021 0.77619 0.0
O74 O 0.84711 0.98977 0.79132 0.0
C75 C 0.72008 0.12633 0.78068 0.0
C76 C 0.74595 0.19337 0.78935 0.0
C77 C 0.70966 0.15847 0.78237 0.0
N78 N 0.76041 0.14151 0.78638 0.0
N79 N 0.77565 0.18146 0.79172 0.0
C80 C 0.69434 0.08341 0.77214 0.0
H81 H 0.71549 0.07083 0.76796 0.0
H82 H 0.6766 0.0857 0.76079 0.0
H83 H 0.67072 0.06038 0.78156 0.0
C84 C 0.83346 0.08955 0.74066 0.0
N85 N 0.81859 0.08152 0.75705 0.0
N86 N 0.80293 0.10652 0.76104 0.0
C87 C 0.80791 0.13177 0.74723 0.0
C88 C 0.82734 0.12177 0.73381 0.0
C89 C 0.86006 0.07246 0.73288 0.0
H90 H 0.89168 0.08732 0.73953 0.0
H91 H 0.84384 0.03721 0.73488 0.0
H92 H 0.86529 0.07963 0.7188 0.0
O93 O 0.87451 0.1035 0.79051 0.0
O94 O 0.84767 0.14553 0.79718 0.0
H95 H 0.81849 0.18963 0.75956 0.0
H96 H 0.81449 0.19018 0.73615 0.0
C97 C 0.80192 0.17003 0.74796 0.0
H98 H 0.76717 0.15895 0.74918 0.0
H99 H 0.80673 0.20099 0.79649 0.0
O100 O 0.86346 0.02756 0.76678 0.0
C101 C 0.87765 0.13646 0.7981 0.0
Co102 Co 0.77558 0.84832 0.94687 0.0
Co103 Co 0.67681 0.79458 0.953 0.0
C104 C 0.73824 0.76731 0.96704 0.0
O105 O 0.76986 0.79873 0.95963 0.0
O106 O 0.70039 0.76169 0.96576 0.0
C107 C 0.86156 0.87052 0.93666 0.0
O108 O 0.84542 0.82972 0.93279 0.0
C109 C 0.59264 0.72131 0.94453 0.0
C110 C 0.54818 0.7384 0.95728 0.0
C111 C 0.54931 0.70702 0.94721 0.0
N112 N 0.61582 0.75946 0.95245 0.0
N113 N 0.5891 0.7695 0.96008 0.0
C114 C 0.61223 0.69852 0.9354 0.0
H115 H 0.61355 0.7049 0.92128 0.0
H116 H 0.5926 0.66332 0.93751 0.0
H117 H 0.64558 0.71055 0.94001 0.0
C118 C 0.74898 0.85155 0.91138 0.0
N119 N 0.74005 0.83353 0.92723 0.0
N120 N 0.6982 0.81277 0.92972 0.0
C121 C 0.67918 0.81768 0.91544 0.0
C122 C 0.71078 0.84242 0.90332 0.0
C123 C 0.79356 0.8819 0.90511 0.0
H124 H 0.80761 0.91171 0.913 0.0
H125 H 0.81384 0.867 0.90684 0.0
H126 H 0.79384 0.89011 0.89122 0.0
O127 O 0.76175 0.88375 0.96216 0.0
O128 O 0.69136 0.84623 0.96712 0.0
H129 H 0.62407 0.81558 0.92719 0.0
H130 H 0.62699 0.82295 0.90392 0.0
C131 C 0.6331 0.80653 0.91479 0.0
H132 H 0.61243 0.77137 0.91304 0.0
H133 H 0.59878 0.79758 0.96719 0.0
O134 O 0.83702 0.88436 0.94163 0.0
C135 C 0.72792 0.87983 0.9692 0.0
Co136 Co 0.93444 0.77985 0.11259 0.0
Co137 Co 0.88442 0.68127 0.11921 0.0
C138 C 0.97409 0.73798 0.13277 0.0
O139 O 0.97638 0.77036 0.12519 0.0
O140 O 0.94028 0.70119 0.13177 0.0
C141 C -0.00237 0.85919 0.09618 0.0
O142 O 0.0103 0.83626 0.08738 0.0
C143 C 0.86985 0.5948 0.11423 0.0
C144 C 0.80089 0.55402 0.12043 0.0
C145 C 0.83667 0.55234 0.11477 0.0
N146 N 0.85428 0.62013 0.11924 0.0
N147 N 0.81319 0.5956 0.12314 0.0
C148 C 0.91431 0.61191 0.10721 0.0
H149 H 0.92812 0.64597 0.10321 0.0
H150 H 0.91406 0.59244 0.09599 0.0
H151 H 0.93508 0.61038 0.11749 0.0
C152 C 0.90022 0.75241 0.0773 0.0
N153 N 0.90965 0.74382 0.09319 0.0
N154 N 0.88897 0.70199 0.09571 0.0
C155 C 0.86634 0.68258 0.08119 0.0
C156 C 0.87273 0.71389 0.06902 0.0
C157 C 0.90986 0.79625 0.07166 0.0
H158 H 0.90981 0.81518 0.08298 0.0
H159 H 0.94204 0.81313 0.06548 0.0
H160 H 0.88589 0.79454 0.06216 0.0
O161 O 0.88742 0.77117 0.12827 0.0
O162 O 0.85087 0.70072 0.1333 0.0
H163 H 0.80984 0.62473 0.08892 0.0
H164 H 0.82332 0.62612 0.06619 0.0
C165 C 0.83657 0.63519 0.07949 0.0
H166 H 0.85423 0.61813 0.08249 0.0
H167 H 0.79324 0.60734 0.12716 0.0
O168 O 0.96602 0.84106 0.10654 0.0
C169 C 0.85647 0.73834 0.13546 0.0
Co170 Co 0.16456 0.94383 0.27414 0.0
Co171 Co 0.20493 0.8882 0.2844 0.0
C172 C 0.24031 0.9805 0.29687 0.0
O173 O 0.21478 0.98582 0.28723 0.0
O174 O 0.23947 0.94462 0.29712 0.0
C175 C 0.13064 -0.00043 0.27481 0.0
O176 O 0.14586 0.00651 0.2907 0.0
C177 C 0.27536 0.87217 0.27925 0.0
C178 C 0.25116 0.80724 0.29011 0.0
C179 C 0.28577 0.84016 0.2814 0.0
N180 N 0.23613 0.85841 0.28595 0.0
N181 N 0.22192 0.81975 0.29261 0.0
C182 C 0.30199 0.91538 0.27102 0.0
H183 H 0.29368 0.93875 0.27653 0.0
H184 H 0.29517 0.91293 0.25691 0.0
H185 H 0.33678 0.92724 0.27289 0.0
C186 C 0.16133 0.90771 0.23992 0.0
N187 N 0.177 0.91657 0.25618 0.0
N188 N 0.1928 0.89179 0.26031 0.0
C189 C 0.18745 0.86594 0.24664 0.0
C190 C 0.16728 0.87512 0.23321 0.0
C191 C 0.13329 0.92376 0.23265 0.0
H192 H 0.10502 0.91343 0.24125 0.0
H193 H 0.15146 0.9594 0.23245 0.0
H194 H 0.12159 0.91163 0.21942 0.0
O195 O 0.12377 0.89941 0.29031 0.0
O196 O 0.14937 0.85634 0.29706 0.0
H197 H 0.18084 0.80892 0.25836 0.0
H198 H 0.18773 0.811 0.23499 0.0
C199 C 0.1973 0.83012 0.24711 0.0
H200 H 0.23231 0.84369 0.24874 0.0
H201 H 0.19192 0.80153 0.29848 0.0
O202 O 0.13593 0.97407 0.2651 0.0
C203 C 0.12033 0.86673 0.29826 0.0
Co204 Co 0.83385 0.77668 0.40893 0.0
Co205 Co 0.79409 0.6809 0.39817 0.0
C206 C 0.75742 0.73756 0.38675 0.0
O207 O 0.78289 0.76847 0.39643 0.0
O208 O 0.759 0.70292 0.38605 0.0
C209 C 0.86711 0.86679 0.40937 0.0
O210 O 0.8469 0.85914 0.39446 0.0
C211 C 0.72256 0.59448 0.40205 0.0
C212 C 0.74849 0.55366 0.39303 0.0
C213 C 0.71215 0.55197 0.40009 0.0
N214 N 0.76291 0.61991 0.39639 0.0
N215 N 0.7782 0.59541 0.39085 0.0
C216 C 0.69676 0.61122 0.41083 0.0
H217 H 0.71791 0.64475 0.41528 0.0
H218 H 0.67881 0.59057 0.42202 0.0
H219 H 0.67328 0.61109 0.40147 0.0
C220 C 0.83592 0.7424 0.44311 0.0
N221 N 0.82142 0.73647 0.42667 0.0
N222 N 0.80652 0.69618 0.4222 0.0
C223 C 0.81187 0.67532 0.4357 0.0
C224 C 0.83039 0.70387 0.44945 0.0
C225 C 0.86143 0.78561 0.45143 0.0
H226 H 0.89313 0.80366 0.44489 0.0
H227 H 0.84444 0.80399 0.44979 0.0
H228 H 0.86657 0.78276 0.46545 0.0
O229 O 0.87395 0.77314 0.39224 0.0
O230 O 0.84908 0.70469 0.38529 0.0
H231 H 0.82268 0.62889 0.42278 0.0
H232 H 0.81869 0.62314 0.44617 0.0
C233 C 0.80606 0.6312 0.4345 0.0
H234 H 0.77134 0.60743 0.43321 0.0
H235 H 0.80932 0.60719 0.38609 0.0
O236 O 0.86444 0.83557 0.41808 0.0
C237 C 0.87767 0.7443 0.3841 0.0
Co238 Co 0.06914 0.85094 0.57029 0.0
Co239 Co 0.1111 0.79426 0.56518 0.0
C240 C 0.02428 0.7692 0.55014 0.0
O241 O 0.02596 0.80203 0.55702 0.0
O242 O 0.05494 0.76144 0.55212 0.0
C243 C 0.00493 0.87107 0.5813 0.0
O244 O 0.98294 0.83093 0.58649 0.0
C245 C 0.1198 0.719 0.57245 0.0
C246 C 0.18591 0.74055 0.56346 0.0
C247 C 0.15035 0.70629 0.57111 0.0
N248 N 0.13684 0.75912 0.56616 0.0
N249 N 0.17627 0.77173 0.56072 0.0
C250 C 0.07471 0.69331 0.57908 0.0
H251 H 0.05429 0.70539 0.57358 0.0
H252 H 0.07467 0.69648 0.59339 0.0
H253 H 0.06097 0.6588 0.57584 0.0
C254 C 0.09623 0.85326 0.60623 0.0
N255 N 0.08798 0.83554 0.5903 0.0
N256 N 0.10698 0.81263 0.58838 0.0
C257 C 0.12818 0.81519 0.60324 0.0
C258 C 0.12201 0.84096 0.61509 0.0
C259 C 0.08675 0.88787 0.61136 0.0
H260 H 0.09598 0.91149 0.60067 0.0
H261 H 0.05169 0.87333 0.61358 0.0
H262 H 0.10418 0.90512 0.62324 0.0
O263 O 0.11956 0.88629 0.55572 0.0
O264 O 0.1496 0.84607 0.55109 0.0
H265 H 0.18272 0.81031 0.59542 0.0
H266 H 0.1719 0.80331 0.61852 0.0
C267 C 0.15715 0.7968 0.60545 0.0
H268 H 0.13835 0.76157 0.60365 0.0
H269 H 0.19674 0.80177 0.55525 0.0
O270 O 0.04247 0.88579 0.57513 0.0
C271 C 0.14873 0.88077 0.54895 0.0
Co272 Co 0.21695 0.06597 0.74053 0.0
Co273 Co 0.31546 0.11231 0.73357 0.0
C274 C 0.2547 0.02444 0.71895 0.0
O275 O 0.22341 0.02346 0.72696 0.0
O276 O 0.29241 0.05693 0.72012 0.0
C277 C 0.13598 0.00344 0.75602 0.0
O278 O 0.15725 0.98771 0.76406 0.0
C279 C 0.40078 0.12371 0.73963 0.0
C280 C 0.44375 0.19042 0.73091 0.0
C281 C 0.44375 0.15539 0.73841 0.0
N282 N 0.37662 0.13966 0.73353 0.0
N283 N 0.40249 0.17939 0.72816 0.0
C284 C 0.3826 0.07871 0.7462 0.0
H285 H 0.35099 0.05723 0.74013 0.0
H286 H 0.37757 0.07813 0.76041 0.0
H287 H 0.40497 0.06656 0.74354 0.0
C288 C 0.24567 0.09661 0.77604 0.0
N289 N 0.2535 0.08748 0.75995 0.0
N290 N 0.29526 0.10752 0.75721 0.0
C291 C 0.31537 0.12995 0.77168 0.0
C292 C 0.28461 0.1236 0.78413 0.0
C293 C 0.2022 0.08738 0.78208 0.0
H294 H 0.18404 0.09052 0.77112 0.0
H295 H 0.18414 0.05402 0.78708 0.0
H296 H 0.20443 0.10955 0.79254 0.0
O297 O 0.22832 0.1153 0.72573 0.0
O298 O 0.29867 0.14917 0.72041 0.0
H299 H 0.37281 0.18504 0.76255 0.0
H300 H 0.37209 0.17657 0.78574 0.0
C301 C 0.36274 0.16051 0.77293 0.0
H302 H 0.38012 0.1427 0.77108 0.0
H303 H 0.39194 0.19929 0.72294 0.0
O304 O 0.15563 0.03654 0.74651 0.0
C305 C 0.26183 0.14584 0.71871 0.0
Co306 Co 0.15643 0.21526 0.90848 0.0
Co307 Co 0.19956 0.31257 0.90025 0.0
C308 C 0.23503 0.25557 0.88779 0.0
O309 O 0.20843 0.22393 0.89686 0.0
O310 O 0.2343 0.29067 0.88766 0.0
C311 C 0.13647 0.13153 0.9221 0.0
O312 O 0.17578 0.14942 0.92824 0.0
C313 C 0.27032 0.39784 0.90798 0.0
C314 C 0.25313 0.44066 0.89397 0.0
C315 C 0.28422 0.44077 0.90465 0.0
N316 N 0.23265 0.37366 0.89987 0.0
N317 N 0.22248 0.39936 0.89148 0.0
C318 C 0.29313 0.37945 0.91792 0.0
H319 H 0.28195 0.34597 0.91371 0.0
H320 H 0.28575 0.37877 0.93192 0.0
H321 H 0.32843 0.39946 0.91614 0.0
C322 C 0.14895 0.24424 0.94325 0.0
N323 N 0.16662 0.25238 0.92731 0.0
N324 N 0.18366 0.29356 0.92386 0.0
C325 C 0.17687 0.31289 0.93758 0.0
C326 C 0.15484 0.28228 0.95038 0.0
C327 C 0.12148 0.19997 0.95042 0.0
H328 H 0.09318 0.18165 0.94188 0.0
H329 H 0.14015 0.18309 0.9506 0.0
H330 H 0.11042 0.20068 0.96379 0.0
O331 O 0.11994 0.22331 0.89153 0.0
O332 O 0.14633 0.29284 0.88646 0.0
H333 H 0.17359 0.36365 0.92438 0.0
H334 H 0.16567 0.36277 0.94761 0.0
C335 C 0.18373 0.35752 0.93714 0.0
H336 H 0.21841 0.3809 0.93885 0.0
H337 H 0.19473 0.38873 0.88405 0.0
O338 O 0.12326 0.15418 0.91462 0.0
C339 C 0.11763 0.25369 0.88407 0.0
Co340 Co 0.92831 0.15163 0.07489 0.0
Co341 Co 0.88141 0.20325 0.06794 0.0
C342 C 0.9692 0.2311 0.05315 0.0
O343 O 0.97002 0.20044 0.06092 0.0
O344 O 0.93701 0.23669 0.05467 0.0
C345 C 0.98495 0.11803 0.0726 0.0
O346 O 0.99567 0.13861 0.05773 0.0
C347 C 0.86878 0.27648 0.07299 0.0
C348 C 0.80024 0.24951 0.06633 0.0
C349 C 0.83612 0.28646 0.07231 0.0
N350 N 0.85277 0.23565 0.06775 0.0
N351 N 0.81196 0.21984 0.06358 0.0
C352 C 0.91304 0.30305 0.0803 0.0
H353 H 0.92639 0.28228 0.08407 0.0
H354 H 0.91259 0.32163 0.09172 0.0
H355 H 0.93431 0.32596 0.07026 0.0
C356 C 0.89955 0.1511 0.11029 0.0
N357 N 0.90746 0.16755 0.09415 0.0
N358 N 0.88668 0.18847 0.09154 0.0
C359 C 0.86468 0.18596 0.10616 0.0
C360 C 0.87202 0.16211 0.11857 0.0
C361 C 0.91101 0.1183 0.11607 0.0
H362 H 0.94651 0.13313 0.11622 0.0
H363 H 0.89808 0.10499 0.12906 0.0
H364 H 0.89809 0.09146 0.1066 0.0
O365 O 0.87879 0.11265 0.06035 0.0
O366 O 0.84527 0.14925 0.05484 0.0
H367 H 0.80799 0.1862 0.09792 0.0
H368 H 0.81975 0.19729 0.12082 0.0
C369 C 0.83396 0.20243 0.10766 0.0
H370 H 0.85117 0.23734 0.10493 0.0
H371 H 0.79175 0.18835 0.05937 0.0
O372 O 0.957 0.11981 0.08212 0.0
C373 C 0.84838 0.11562 0.05326 0.0
Co374 Co 0.77488 0.9344 0.24291 0.0
Co375 Co 0.67716 0.88445 0.23415 0.0
C376 C 0.73629 0.97436 0.2209 0.0
O377 O 0.76763 0.9765 0.22931 0.0
O378 O 0.6992 0.94073 0.22147 0.0
C379 C 0.86486 0.99087 0.24177 0.0
O380 O 0.85605 -0.00131 0.22612 0.0
C381 C 0.59044 0.86967 0.23809 0.0
C382 C 0.55003 0.80116 0.23113 0.0
C383 C 0.54803 0.8365 0.23711 0.0
N384 N 0.61606 0.8545 0.23303 0.0
N385 N 0.59178 0.8137 0.22866 0.0
C386 C 0.60712 0.9135 0.24569 0.0
H387 H 0.64108 0.92717 0.24981 0.0
H388 H 0.58721 0.91223 0.25693 0.0
H389 H 0.60576 0.93499 0.2357 0.0
C390 C 0.74335 0.90229 0.27771 0.0
N391 N 0.73611 0.91065 0.26144 0.0
N392 N 0.69475 0.88858 0.25804 0.0
C393 C 0.67415 0.86524 0.27226 0.0
C394 C 0.70427 0.87307 0.28523 0.0
C395 C 0.78741 0.91529 0.28434 0.0
H396 H 0.8034 0.90395 0.27517 0.0
H397 H 0.80684 0.95087 0.28488 0.0
H398 H 0.78689 0.90198 0.29734 0.0
O399 O 0.76791 0.88703 0.22767 0.0
O400 O 0.69821 0.851 0.22111 0.0
H401 H 0.61943 0.80804 0.26281 0.0
H402 H 0.61713 0.81747 0.28577 0.0
C403 C 0.62715 0.83294 0.27286 0.0
H404 H 0.60855 0.84913 0.27003 0.0
H405 H 0.60377 0.79402 0.22459 0.0
O406 O 0.83444 0.9643 0.25141 0.0
C407 C 0.73595 0.85629 0.21993 0.0
H408 H 0.07972 0.09184 0.45599 0.0
H409 H 0.09309 0.10876 0.40056 0.0
H410 H 0.00552 0.03422 0.45244 0.0
H411 H 0.01971 0.04913 0.39672 0.0
H412 H 0.88475 0.94171 0.39315 0.0
H413 H 0.94366 0.0139 0.39963 0.0
H414 H 0.97911 0.96339 0.44353 0.0
H415 H 0.91976 0.89238 0.43751 0.0
C416 C 0.06627 0.08345 0.44305 0.0
C417 C 0.09164 0.10413 0.42852 0.0
C418 C 0.024 0.0503 0.44098 0.0
C419 C 0.00688 0.03626 0.42429 0.0
C420 C 0.03161 0.05921 0.40978 0.0
C421 C 0.07367 0.0932 0.41191 0.0
C422 C 0.90464 0.94635 0.4044 0.0
C423 C 0.89798 0.91127 0.41468 0.0
C424 C 0.93853 0.98766 0.40805 0.0
C425 C 0.96647 0.99454 0.422 0.0
C426 C 0.95804 0.95969 0.43283 0.0
C427 C 0.92409 0.91866 0.42928 0.0
H428 H 0.02139 0.93683 0.55983 0.0
H429 H 0.94763 0.86943 0.60511 0.0
H430 H 0.00053 0.991 0.56361 0.0
H431 H 0.92708 0.92454 0.6091 0.0
H432 H 0.95596 0.08291 0.57108 0.0
H433 H 0.93964 0.00895 0.56565 0.0
H434 H 0.98182 0.00288 0.61748 0.0
H435 H -0.0014 0.0764 0.62273 0.0
C436 C 4e-05 0.93328 0.57043 0.0
C437 C 0.98672 0.89956 0.58239 0.0
C438 C 0.98759 0.96394 0.57244 0.0
C439 C 0.96218 0.96187 0.58663 0.0
C440 C 0.94661 0.92666 0.59802 0.0
C441 C 0.95844 0.89535 0.59579 0.0
C442 C 0.96041 0.06514 0.58142 0.0
C443 C 0.97921 0.08526 0.59718 0.0
C444 C 0.95106 0.02299 0.57835 0.0
C445 C 0.95965 0.00042 0.59114 0.0
C446 C 0.97449 0.01934 0.60746 0.0
C447 C 0.98456 0.06156 0.61039 0.0
H448 H 0.88423 0.9447 0.79379 0.0
H449 H 0.918 0.02343 0.74769 0.0
H450 H 0.94251 0.93018 0.78792 0.0
H451 H 0.97673 0.01054 0.74224 0.0
H452 H 0.07645 0.98132 0.73096 0.0
H453 H 0.00229 0.96457 0.73454 0.0
H454 H 0.01875 0.97124 0.79026 0.0
H455 H 0.09212 0.98514 0.78648 0.0
C456 C 0.9037 0.95843 0.78229 0.0
C457 C 0.89691 0.9857 0.77133 0.0
C458 C 0.93723 0.9503 0.77899 0.0
C459 C 0.96464 0.96944 0.7647 0.0
C460 C 0.95603 0.99461 0.75323 0.0
C461 C 0.92245 0.00242 0.75644 0.0
C462 C 0.06354 0.97784 0.74395 0.0
C463 C 0.08964 0.98482 0.75847 0.0
C464 C 0.02127 0.9686 0.74602 0.0
C465 C 0.00484 0.96769 0.76267 0.0
C466 C 0.03015 0.97143 0.77724 0.0
C467 C 0.07223 0.97959 0.77513 0.0
H468 H 0.92034 0.86961 0.91434 0.0
H469 H 0.90744 0.93891 0.9575 0.0
H470 H 0.99625 0.9256 0.91133 0.0
H471 H 0.98285 0.99378 0.95478 0.0
H472 H 0.08114 0.07852 0.89799 0.0
H473 H 0.02127 0.00588 0.90245 0.0
H474 H 0.06261 0.00845 0.95522 0.0
H475 H 0.12361 0.08131 0.95056 0.0
C476 C 0.93402 0.89622 0.92339 0.0
C477 C 0.90813 0.90052 0.93595 0.0
C478 C 0.97727 0.928 0.92173 0.0
C479 C 0.99526 0.96369 0.93291 0.0
C480 C 0.96993 0.96628 0.94617 0.0
C481 C 0.92668 0.93521 0.94756 0.0
C482 C 0.07814 0.063 0.91037 0.0
C483 C 0.10643 0.08533 0.92402 0.0
C484 C 0.04418 0.02136 0.91287 0.0
C485 C 0.03743 0.00176 0.92917 0.0
C486 C 0.0674 0.02301 0.94252 0.0
C487 C 0.10213 0.06449 0.93987 0.0
H488 H 0.02229 0.9219 0.12006 0.0
H489 H 0.01221 0.89898 0.06491 0.0
H490 H 0.03543 0.99446 0.11518 0.0
H491 H 0.0227 0.97066 0.0599 0.0
H492 H 0.04135 0.10235 0.05452 0.0
H493 H 0.06089 0.04777 0.06087 0.0
H494 H 0.98375 0.01348 0.10751 0.0
H495 H 0.96562 0.06842 0.1015 0.0
C496 C 0.02386 0.93295 0.10686 0.0
C497 C 0.01588 0.90515 0.09284 0.0
C498 C 0.03102 0.97427 0.10405 0.0
C499 C 0.02888 0.98795 0.08719 0.0
C500 C 0.02472 0.9613 0.07305 0.0
C501 C 0.01858 0.92019 0.07588 0.0
C502 C 0.0293 0.08363 0.06629 0.0
C503 C 0.00148 0.08927 0.0774 0.0
C504 C 0.04038 0.05229 0.06989 0.0
C505 C 0.02379 0.02607 0.08465 0.0
C506 C -0.00218 0.03346 0.09617 0.0
C507 C 0.98696 0.06477 0.09263 0.0
H508 H 0.09646 0.993 0.24266 0.0
H509 H 0.09978 0.04196 0.2942 0.0
H510 H 0.03842 0.00586 0.2349 0.0
H511 H 0.04184 0.05543 0.28629 0.0
H512 H 0.89343 0.98372 0.27362 0.0
H513 H 0.96587 0.00121 0.28138 0.0
H514 H 0.01083 0.05552 0.23047 0.0
H515 H 0.93789 0.03745 0.22256 0.0
C516 C 0.0855 0.0075 0.25221 0.0
C517 C 0.102 0.01558 0.26916 0.0
C518 C 0.05247 0.01526 0.2477 0.0
C519 C 0.03526 0.0312 0.26006 0.0
C520 C 0.05415 0.04257 0.27659 0.0
C521 C 0.08735 0.03493 0.28109 0.0
C522 C 0.91887 0.00013 0.26418 0.0
C523 C 0.90982 0.0084 0.24736 0.0
C524 C 0.96053 0.01058 0.26869 0.0
C525 C 0.99396 0.02942 0.25647 0.0
C526 C 0.98552 0.04055 0.24007 0.0
C527 C 0.9438 0.03023 0.23556 0.0
H528 H 0.62874 0.53412 0.3978 0.0
H529 H 0.70653 0.48073 0.4149 0.0
H530 H 0.56458 0.47115 0.40888 0.0
H531 H 0.64209 0.41693 0.42551 0.0
H532 H 0.52517 0.33538 0.46047 0.0
H533 H 0.58934 0.39801 0.44906 0.0
H534 H 0.51916 0.39393 0.40298 0.0
H535 H 0.45539 0.33117 0.41426 0.0
C536 C 0.63217 0.50907 0.40404 0.0
C537 C 0.67276 0.51278 0.40586 0.0
C538 C 0.59532 0.4727 0.41017 0.0
C539 C 0.59829 0.43919 0.4182 0.0
C540 C 0.63883 0.44251 0.41964 0.0
C541 C 0.67565 0.47883 0.41344 0.0
C542 C 0.52345 0.34799 0.44793 0.0
C543 C 0.4848 0.32903 0.43852 0.0
C544 C 0.56024 0.3837 0.44136 0.0
C545 C 0.55925 0.4011 0.42516 0.0
C546 C 0.5207 0.38186 0.41566 0.0
C547 C 0.48396 0.34607 0.42222 0.0
H548 H 0.084 0.45726 0.61532 0.0
H549 H 0.21539 0.5121 0.59795 0.0
H550 H 0.08222 0.51994 0.60447 0.0
H551 H 0.21436 0.57574 0.58786 0.0
H552 H 0.18418 0.66261 0.55522 0.0
H553 H 0.1831 0.59769 0.5652 0.0
H554 H 0.11203 0.59563 0.61077 0.0
H555 H 0.11307 0.66031 0.60073 0.0
C556 C 0.11233 0.4824 0.609 0.0
C557 C 0.14947 0.47918 0.60709 0.0
C558 C 0.11156 0.51871 0.60304 0.0
C559 C 0.14804 0.55274 0.59516 0.0
C560 C 0.18542 0.54978 0.59355 0.0
C561 C 0.18615 0.51348 0.59949 0.0
C562 C 0.1681 0.64805 0.56731 0.0
C563 C 0.14784 0.66596 0.57698 0.0
C564 C 0.16766 0.61102 0.57308 0.0
C565 C 0.14735 0.59137 0.58877 0.0
C566 C 0.12714 0.6094 0.59845 0.0
C567 C 0.12749 0.64637 0.59263 0.0
H568 H 0.45219 0.11949 0.7684 0.0
H569 H 0.52283 0.19228 0.72349 0.0
H570 H 0.51615 0.1204 0.77924 0.0
H571 H 0.58719 0.19328 0.73433 0.0
H572 H 0.70393 0.22453 0.76807 0.0
H573 H 0.63957 0.22406 0.75765 0.0
H574 H 0.56232 0.09107 0.77298 0.0
H575 H 0.62625 0.09224 0.78407 0.0
C576 C 0.48108 0.13473 0.76061 0.0
C577 C 0.48216 0.15472 0.74483 0.0
C578 C 0.5179 0.13555 0.76689 0.0
C579 C 0.55674 0.15665 0.7576 0.0
C580 C 0.5579 0.17707 0.74189 0.0
C581 C 0.52103 0.17629 0.73562 0.0
C582 C 0.67312 0.19529 0.76928 0.0
C583 C 0.67028 0.15813 0.77653 0.0
C584 C 0.63633 0.19489 0.76316 0.0
C585 C 0.59585 0.15738 0.7643 0.0
C586 C 0.59297 0.12052 0.77192 0.0
C587 C 0.62975 0.12096 0.77803 0.0
H588 H 0.32124 0.45497 0.93682 0.0
H589 H 0.33476 0.51446 0.88683 0.0
H590 H 0.38627 0.51853 0.94686 0.0
H591 H 0.39926 0.57884 0.89706 0.0
H592 H 0.53758 0.66723 0.91565 0.0
H593 H 0.47407 0.60214 0.90553 0.0
H594 H 0.41006 0.59386 0.95401 0.0
H595 H 0.47418 0.65826 0.96433 0.0
C596 C 0.33846 0.48135 0.92789 0.0
C597 C 0.32354 0.47933 0.91089 0.0
C598 C 0.37536 0.51808 0.93373 0.0
C599 C 0.39805 0.55363 0.92273 0.0
C600 C 0.38286 0.55172 0.90576 0.0
C601 C 0.34581 0.51503 0.89995 0.0
C602 C 0.5104 0.65098 0.92431 0.0
C603 C 0.51126 0.66724 0.94096 0.0
C604 C 0.47371 0.61408 0.91839 0.0
C605 C 0.43712 0.59273 0.929 0.0
C606 C 0.43796 0.6092 0.94562 0.0
C607 C 0.47455 0.6462 0.95149 0.0
H608 H 0.77123 0.29142 0.0881 0.0
H609 H 0.90136 0.3704 0.06969 0.0
H610 H 0.77134 0.35533 0.09871 0.0
H611 H 0.9016 0.43435 0.08035 0.0
H612 H 0.90077 0.53246 0.11831 0.0
H613 H 0.90084 0.46857 0.10777 0.0
H614 H 0.77211 0.41909 0.08797 0.0
H615 H 0.77218 0.48308 0.09847 0.0
C616 C 0.79986 0.32247 0.0863 0.0
C617 C 0.8366 0.32576 0.07838 0.0
C618 C 0.79989 0.35909 0.09233 0.0
C619 C 0.83659 0.39992 0.09047 0.0
C620 C 0.87314 0.40327 0.08232 0.0
C621 C 0.87309 0.36658 0.07628 0.0
C622 C 0.87281 0.50833 0.11145 0.0
C623 C 0.83682 0.51323 0.10889 0.0
C624 C 0.87276 0.47161 0.10547 0.0
C625 C 0.8366 0.43886 0.09692 0.0
C626 C 0.80034 0.44351 0.09464 0.0
C627 C 0.80041 0.48021 0.10062 0.0
H628 H 0.32516 0.86811 0.24993 0.0
H629 H 0.33015 0.80677 0.29727 0.0
H630 H 0.38792 0.86668 0.23904 0.0
H631 H 0.39318 0.80503 0.28632 0.0
H632 H 0.47866 0.7715 0.25326 0.0
H633 H 0.41433 0.7711 0.26375 0.0
H634 H 0.4647 0.90069 0.24485 0.0
H635 H 0.52804 0.90038 0.23382 0.0
C636 C 0.34027 0.8552 0.25818 0.0
C637 C 0.32365 0.83887 0.2747 0.0
C638 C 0.37608 0.85408 0.25188 0.0
C639 C 0.39587 0.83621 0.26189 0.0
C640 C 0.37854 0.81884 0.27825 0.0
C641 C 0.34264 0.82 0.28456 0.0
C642 C 0.47581 0.79979 0.25129 0.0
C643 C 0.50876 0.83629 0.24302 0.0
C644 C 0.43919 0.79971 0.25743 0.0
C645 C 0.43457 0.83599 0.25527 0.0
C646 C 0.4672 0.87217 0.24668 0.0
C647 C 0.50384 0.87226 0.24058 0.0
H648 H 0.25517 0.06278 0.29818 0.0
H649 H 0.27913 0.97301 0.3263 0.0
H650 H 0.27706 0.10975 0.32333 0.0
H651 H 0.30189 0.02065 0.35147 0.0
H652 H 0.25876 0.07495 0.39758 0.0
H653 H 0.25971 0.03618 0.37177 0.0
H654 H 0.33092 0.15655 0.34427 0.0
H655 H 0.32915 0.19517 0.37028 0.0
C656 C 0.26637 0.05363 0.30955 0.0
C657 C 0.26478 0.01373 0.31025 0.0
C658 C 0.27912 0.08076 0.32401 0.0
C659 C 0.29057 0.06872 0.33957 0.0
C660 C 0.29246 0.03053 0.3398 0.0
C661 C 0.27984 0.0034 0.32529 0.0
C662 C 0.275 0.09303 0.38604 0.0
C663 C 0.29334 0.13786 0.38575 0.0
C664 C 0.27597 0.07093 0.37129 0.0
C665 C 0.29533 0.09317 0.35587 0.0
C666 C 0.31536 0.13838 0.35586 0.0
C667 C 0.31453 0.16053 0.37071 0.0
H668 H 0.19361 0.25023 0.46373 0.0
H669 H 0.29408 0.26031 0.49736 0.0
H670 H 0.16418 0.27229 0.48742 0.0
H671 H 0.26348 0.28011 0.52142 0.0
H672 H 0.20599 0.32425 0.56267 0.0
H673 H 0.2446 0.32482 0.53649 0.0
H674 H 0.12335 0.23837 0.5118 0.0
H675 H 0.08526 0.24028 0.53756 0.0
C676 C 0.2099 0.258 0.47615 0.0
C677 C 0.24611 0.25343 0.47868 0.0
C678 C 0.19267 0.27008 0.48985 0.0
C679 C 0.21058 0.27696 0.50659 0.0
C680 C 0.24873 0.27538 0.50878 0.0
C681 C 0.26646 0.26406 0.49494 0.0
C682 C 0.18769 0.30655 0.5514 0.0
C683 C 0.14257 0.28258 0.55206 0.0
C684 C 0.20983 0.30627 0.53646 0.0
C685 C 0.18737 0.28156 0.52188 0.0
C686 C 0.14206 0.25856 0.5225 0.0
C687 C 0.12004 0.25928 0.53735 0.0
H688 H 0.79593 0.12504 0.70198 0.0
H689 H 0.91236 0.17962 0.73214 0.0
H690 H 0.83749 0.1649 0.67637 0.0
H691 H 0.95411 0.21917 0.70674 0.0
H692 H 0.02083 0.30099 0.66097 0.0
H693 H 0.97006 0.27588 0.68524 0.0
H694 H 0.88877 0.15778 0.6577 0.0
H695 H 0.939 0.18291 0.63354 0.0
C696 C 0.83034 0.14615 0.70313 0.0
C697 C 0.85115 0.14936 0.71889 0.0
C698 C 0.85417 0.16882 0.68851 0.0
C699 C 0.8992 0.19528 0.68947 0.0
C700 C 0.91951 0.1997 0.70555 0.0
C701 C 0.89574 0.17687 0.72007 0.0
C702 C 0.99142 0.27031 0.65988 0.0
C703 C 0.98416 0.24382 0.64538 0.0
C704 C 0.96254 0.25569 0.67386 0.0
C705 C 0.9256 0.21452 0.67354 0.0
C706 C 0.91668 0.1897 0.6584 0.0
C707 C 0.94564 0.20409 0.64454 0.0
H708 H 0.72173 0.03004 0.82842 0.0
H709 H 0.74231 0.93825 0.80008 0.0
H710 H 0.69995 0.9832 0.85384 0.0
H711 H 0.72116 0.89194 0.82545 0.0
H712 H 0.66794 0.80767 0.873 0.0
H713 H 0.66677 0.84637 0.84692 0.0
H714 H 0.74333 0.96705 0.87361 0.0
H715 H 0.74389 0.9283 0.89948 0.0
C716 C 0.72042 -0.00063 0.82742 0.0
C717 C 0.73423 0.98819 0.81223 0.0
C718 C 0.70837 0.9727 0.84207 0.0
C719 C 0.70949 0.93411 0.8418 0.0
C720 C 0.71974 0.92129 0.82614 0.0
C721 C 0.73203 0.94801 0.81157 0.0
C722 C 0.68397 0.84243 0.87324 0.0
C723 C 0.70649 0.86512 0.88807 0.0
C724 C 0.68345 0.86461 0.85835 0.0
C725 C 0.70503 0.90988 0.85813 0.0
C726 C 0.72591 0.93226 0.87333 0.0
C727 C 0.72666 0.91013 0.8881 0.0
H728 H 0.80038 0.74547 0.96453 0.0
H729 H 0.69985 0.73488 0.9983 0.0
H730 H 0.82863 0.7212 0.98788 0.0
H731 H 0.72937 0.71306 0.02205 0.0
H732 H 0.78571 0.66797 0.06308 0.0
H733 H 0.74754 0.66783 0.03686 0.0
H734 H 0.86928 0.75361 0.01232 0.0
H735 H 0.90689 0.75109 0.03806 0.0
C736 C 0.78382 0.73709 0.9769 0.0
C737 C 0.74798 0.74218 0.9796 0.0
C738 C 0.80037 0.72375 0.9904 0.0
C739 C 0.78219 0.71622 1.00712 0.0
C740 C 0.74431 0.71825 0.00942 0.0
C741 C 0.72721 0.73075 0.99576 0.0
C742 C 0.8042 0.68551 0.05183 0.0
C743 C 0.84932 0.70917 0.05253 0.0
C744 C 0.78232 0.68607 0.03686 0.0
C745 C 0.80505 0.71082 0.02233 0.0
C746 C 0.85035 0.7334 0.02298 0.0
C747 C 0.8721 0.73235 0.03783 0.0
H748 H 0.06048 0.79172 0.12946 0.0
H749 H 0.9637 0.70476 0.16521 0.0
H750 H 0.11342 0.81871 0.15271 0.0
H751 H 0.01505 0.73385 0.18882 0.0
H752 H 0.11225 0.78834 0.23066 0.0
H753 H 0.07273 0.74769 0.20522 0.0
H754 H 0.13181 0.86515 0.17512 0.0
H755 H 0.17427 0.90426 0.20018 0.0
C756 C 0.05081 0.77785 0.14229 0.0
C757 C 0.00806 0.74608 0.14552 0.0
C758 C 0.08095 0.79386 0.15576 0.0
C759 C 0.06871 0.77965 0.17297 0.0
C760 C 0.0264 0.74568 0.17587 0.0
C761 C 0.99664 0.72878 0.16227 0.0
C762 C 0.11786 0.80501 0.2184 0.0
C763 C 0.1466 0.84944 0.21735 0.0
C764 C 0.09449 0.78186 0.20381 0.0
C765 C 0.09823 0.80278 0.1879 0.0
C766 C 0.12818 0.8472 0.18686 0.0
C767 C 0.15235 0.87 0.20133 0.0
H768 H 0.02133 0.71686 0.52345 0.0
H769 H 0.94718 0.76603 0.54839 0.0
H770 H 0.96949 0.68959 0.49957 0.0
H771 H 0.89639 0.73996 0.52458 0.0
H772 H 0.80029 0.67948 0.48231 0.0
H773 H 0.84175 0.68239 0.50804 0.0
H774 H 0.95458 0.72449 0.47598 0.0
H775 H 0.91252 0.72032 0.4504 0.0
C776 C 0.99346 0.7209 0.52407 0.0
C777 C 0.98866 0.74398 0.53777 0.0
C778 C 0.96398 0.7057 0.51029 0.0
C779 C 0.92894 0.71302 0.50998 0.0
C780 C 0.92262 0.73332 0.52434 0.0
C781 C 0.95202 0.74856 0.53802 0.0
C782 C 0.8337 0.68833 0.48084 0.0
C783 C 0.85336 0.69953 0.46451 0.0
C784 C 0.85758 0.69033 0.49553 0.0
C785 C 0.9017 0.70392 0.49416 0.0
C786 C 0.92065 0.71326 0.47757 0.0
C787 C 0.89672 0.71114 0.46291 0.0
H788 H 0.08676 0.8428 0.64598 0.0
H789 H 0.20875 0.88274 0.62139 0.0
H790 H 0.12355 0.8821 0.67205 0.0
H791 H 0.2461 0.91992 0.64788 0.0
H792 H 0.2932 0.03222 0.68754 0.0
H793 H 0.26384 0.98243 0.66326 0.0
H794 H 0.16355 0.8894 0.6966 0.0
H795 H 0.1917 0.9404 0.72051 0.0
C796 C 0.12155 0.8591 0.64638 0.0
C797 C 0.14482 0.85947 0.63172 0.0
C798 C 0.14284 0.88144 0.6614 0.0
C799 C 0.18813 0.90441 0.66227 0.0
C800 C 0.21132 0.90322 0.64774 0.0
C801 C 0.18992 0.88129 0.6326 0.0
C802 C 0.26561 0.00066 0.68977 0.0
C803 C 0.2446 0.99037 0.7059 0.0
C804 C 0.24859 0.97193 0.67581 0.0
C805 C 0.21054 0.93192 0.67773 0.0
C806 C 0.19197 0.92033 0.69436 0.0
C807 C 0.20847 0.94935 0.70819 0.0
H808 H 0.26149 0.29278 0.8559 0.0
H809 H 0.26343 0.19812 0.88966 0.0
H810 H 0.28269 0.26436 0.83158 0.0
H811 H 0.28676 0.17089 0.86557 0.0
H812 H 0.25189 0.08984 0.81568 0.0
H813 H 0.25104 0.12764 0.84173 0.0
H814 H 0.32928 0.24921 0.81577 0.0
H815 H 0.32769 0.21076 0.78939 0.0
C816 C 0.26821 0.26705 0.85829 0.0
C817 C 0.26035 0.24745 0.87468 0.0
C818 C 0.28036 0.25058 0.84429 0.0
C819 C 0.28555 0.2145 0.84642 0.0
C820 C 0.28175 0.19775 0.86325 0.0
C821 C 0.26892 0.21374 0.87715 0.0
C822 C 0.26945 0.12466 0.81569 0.0
C823 C 0.29021 0.14732 0.8006 0.0
C824 C 0.26932 0.14651 0.83068 0.0
C825 C 0.29025 0.19177 0.83102 0.0
C826 C 0.31244 0.21445 0.81602 0.0
C827 C 0.31215 0.19245 0.80096 0.0
H828 H 0.0502 0.24288 0.05213 0.0
H829 H 0.96395 0.2715 0.02384 0.0
H830 H 0.09842 0.26503 0.02728 0.0
H831 H 0.01249 0.29384 0.99886 0.0
H832 H 0.06884 0.24962 0.95318 0.0
H833 H 0.02826 0.24925 0.9787 0.0
H834 H 0.14705 0.32286 1.00694 0.0
H835 H 0.18754 0.32308 0.98119 0.0
C836 C 0.04214 0.25513 0.04077 0.0
C837 C 0.00305 0.25515 0.03995 0.0
C838 C 0.0699 0.26793 0.02651 0.0
C839 C 0.05909 0.28071 0.01098 0.0
C840 C 0.02148 0.28364 0.01057 0.0
C841 C 0.99388 0.27129 0.02495 0.0
C842 C 0.08616 0.2662 0.9648 0.0
C843 C 0.13113 0.28608 0.96536 0.0
C844 C 0.06303 0.26632 0.97937 0.0
C845 C 0.08438 0.28604 0.99489 0.0
C846 C 0.12964 0.30718 0.99522 0.0
C847 C 0.15282 0.30744 0.98053 0.0
H848 H 0.79632 0.05938 0.2233 0.0
H849 H 0.70011 0.9661 0.18897 0.0
H850 H 0.82455 0.11145 0.19977 0.0
H851 H 0.72977 0.01691 0.16508 0.0
H852 H 0.78485 0.11666 0.12357 0.0
H853 H 0.74608 0.07837 0.14964 0.0
H854 H 0.86743 0.1227 0.17596 0.0
H855 H 0.90539 0.16327 0.1503 0.0
C856 C 0.78071 0.0503 0.21076 0.0
C857 C 0.74604 0.00862 0.20799 0.0
C858 C 0.7973 0.07996 0.19714 0.0
C859 C 0.78041 0.06836 0.18025 0.0
C860 C 0.74371 0.0275 0.17783 0.0
C861 C 0.72651 0.99815 0.19158 0.0
C862 C 0.80301 0.11925 0.13515 0.0
C863 C 0.84814 0.14312 0.13496 0.0
C864 C 0.78084 0.09669 0.15006 0.0
C865 C 0.80331 0.09684 0.16506 0.0
C866 C 0.84857 0.12212 0.16492 0.0
C867 C 0.87057 0.14518 0.15013 0.0
H868 H 0.72616 0.79258 0.38964 0.0
H869 H 0.73383 0.70371 0.35424 0.0
H870 H 0.70128 0.81996 0.36618 0.0
H871 H 0.71156 0.73261 0.33053 0.0
H872 H 0.6657 0.78585 0.28908 0.0
H873 H 0.66469 0.74611 0.31489 0.0
H874 H 0.73357 0.86587 0.34311 0.0
H875 H 0.73147 0.90466 0.31764 0.0
C876 C 0.72172 0.77833 0.37688 0.0
C877 C 0.73215 0.7461 0.37379 0.0
C878 C 0.70803 0.79445 0.36332 0.0
C879 C 0.70538 0.7795 0.34622 0.0
C880 C 0.71279 0.74497 0.34345 0.0
C881 C 0.72564 0.72824 0.3571 0.0
C882 C 0.67929 0.80336 0.30101 0.0
C883 C 0.69852 0.84832 0.30141 0.0
C884 C 0.67938 0.78068 0.31577 0.0
C885 C 0.69941 0.80252 0.33121 0.0
C886 C 0.71712 0.84749 0.33168 0.0
C887 C 0.71635 0.86997 0.31702 0.0
H888 H 0.20788 0.03189 0.46185 0.0
H889 H 0.31401 0.1203 0.494 0.0
H890 H 0.19244 0.97376 0.48206 0.0
H891 H 0.29782 0.06196 0.5145 0.0
H892 H 0.18481 0.96641 0.5539 0.0
H893 H 0.22624 0.02323 0.53298 0.0
H894 H 0.22403 0.92944 0.49739 0.0
H895 H 0.18322 0.87234 0.51864 0.0
C896 C 0.22837 0.03867 0.47309 0.0
C897 C 0.26178 0.08063 0.4765 0.0
C898 C 0.2198 0.00533 0.48455 0.0
C899 C 0.24398 0.01349 0.4998 0.0
C900 C 0.27885 0.05496 0.50278 0.0
C901 C 0.28804 0.08822 0.49109 0.0
C902 C 0.19426 0.95812 0.54181 0.0
C903 C 0.18063 0.91511 0.53777 0.0
C904 C 0.21821 0.99064 0.52991 0.0
C905 C 0.22818 0.98059 0.5136 0.0
C906 C 0.21673 0.93787 0.50992 0.0
C907 C 0.19355 0.90534 0.52205 0.0
H908 H 0.17215 0.20621 0.63072 0.0
H909 H 0.17881 0.30538 0.66438 0.0
H910 H 0.21396 0.19115 0.65155 0.0
H911 H 0.21992 0.28938 0.68555 0.0
H912 H 0.30687 0.1864 0.68948 0.0
H913 H 0.28895 0.22646 0.66857 0.0
H914 H 0.18757 0.2141 0.70235 0.0
H915 H 0.20462 0.17333 0.72296 0.0
C916 C 0.1833 0.22531 0.64245 0.0
C917 C 0.17204 0.25667 0.64606 0.0
C918 C 0.2075 0.21694 0.65428 0.0
C919 C 0.22009 0.23917 0.6701 0.0
C920 C 0.21064 0.27199 0.67338 0.0
C921 C 0.18724 0.28111 0.66131 0.0
C922 C 0.28148 0.19321 0.69259 0.0
C923 C 0.25676 0.17644 0.70769 0.0
C924 C 0.27128 0.21603 0.68066 0.0
C925 C 0.23699 0.22331 0.68392 0.0
C926 C 0.21444 0.20929 0.69963 0.0
C927 C 0.22396 0.18569 0.71133 0.0
H928 H 0.8924 0.20132 0.82105 0.0
H929 H 0.9502 0.13093 0.79962 0.0
H930 H 0.95219 0.23629 0.84175 0.0
H931 H 0.00895 0.16552 0.82016 0.0
H932 H 0.05395 0.17334 0.8758 0.0
H933 H -0.00178 0.15241 0.85417 0.0
H934 H 0.04235 0.2856 0.84286 0.0
H935 H 0.09944 0.30735 0.86473 0.0
C936 C 0.91808 0.19388 0.82053 0.0
C937 C 0.9161 0.16271 0.80891 0.0
C938 C 0.95225 0.214 0.83231 0.0
C939 C 0.98462 0.20302 0.83261 0.0
C940 C 0.98399 0.17404 0.82029 0.0
C941 C 0.95023 0.1542 0.80856 0.0
C942 C 0.05198 0.19847 0.86886 0.0
C943 C 0.08163 0.24212 0.87188 0.0
C944 C 0.01999 0.18634 0.85643 0.0
C945 C 0.01651 0.21742 0.84675 0.0
C946 C 0.04465 0.26115 0.85019 0.0
C947 C 0.07724 0.27347 0.86263 0.0
H948 H 0.80577 0.11975 0.02467 0.0
H949 H 0.82225 0.03095 0.05698 0.0
H950 H 0.76439 0.06174 1.00391 0.0
H951 H 0.78016 0.97308 0.0365 0.0
H952 H 0.68508 0.87275 0.99939 0.0
H953 H 0.70296 0.92998 0.02075 0.0
H954 H 0.79863 0.02219 0.98586 0.0
H955 H 0.78175 0.96516 0.96483 0.0
C956 C 0.79952 0.08764 0.02756 0.0
C957 C 0.81756 0.07983 0.04229 0.0
C958 C 0.77592 0.05459 0.01571 0.0
C959 C 0.76912 0.01311 0.01869 0.0
C960 C 0.78458 0.0047 0.03403 0.0
C961 C 0.80895 0.03787 0.04564 0.0
C962 C 0.70914 0.90546 0.99617 0.0
C963 C 0.73239 0.91466 0.9806 0.0
C964 C 0.71935 0.93804 1.00835 0.0
C965 C 0.75205 0.98032 1.00487 0.0
C966 C 0.77298 0.98992 0.98876 0.0
C967 C 0.76356 0.95729 0.9768 0.0
H968 H 0.83014 0.79648 0.13161 0.0
H969 H 0.81914 0.69598 0.16556 0.0
H970 H 0.79082 0.81476 0.15258 0.0
H971 H 0.78083 0.71536 0.18687 0.0
H972 H 0.79734 0.83389 0.22376 0.0
H973 H 0.81655 0.79461 0.20314 0.0
H974 H 0.71287 0.77687 0.16961 0.0
H975 H 0.69267 0.81518 0.1905 0.0
C976 C 0.81871 0.77792 0.14346 0.0
C977 C 0.82776 0.74499 0.14706 0.0
C978 C 0.79603 0.78819 0.15537 0.0
C979 C 0.78289 0.76637 0.17125 0.0
C980 C 0.79057 0.73243 0.17464 0.0
C981 C 0.81233 0.72136 0.16249 0.0
C982 C 0.77809 0.82081 0.21217 0.0
C983 C 0.74372 0.82777 0.20864 0.0
C984 C 0.78888 0.79811 0.20047 0.0
C985 C 0.76608 0.7828 0.18488 0.0
C986 C 0.73072 0.7883 0.18162 0.0
C987 C 0.71922 0.81013 0.19354 0.0
H988 H 0.94237 0.826 0.37826 0.0
H989 H 0.89788 0.69424 0.36343 0.0
H990 H 0.00014 0.85053 0.35727 0.0
H991 H 0.95663 0.71946 0.34222 0.0
H992 H 0.10188 0.79788 0.31954 0.0
H993 H 0.04297 0.76383 0.34067 0.0
H994 H 0.99545 0.84691 0.324 0.0
H995 H 0.05334 0.88062 0.30309 0.0
C996 C 0.94501 0.80214 0.37063 0.0
C997 C 0.91505 0.7581 0.3724 0.0
C998 C 0.97814 0.81631 0.35856 0.0
C999 C 0.98239 0.7869 0.34799 0.0
C1000 C 0.9539 0.74271 0.35023 0.0
C1001 C 0.92029 0.72839 0.36231 0.0
C1002 C 0.07853 0.80847 0.32027 0.0
C1003 C 0.08272 0.8424 0.30978 0.0
C1004 C 0.04484 0.78891 0.33231 0.0
C1005 C 0.01521 0.80329 0.33409 0.0
C1006 C 0.01835 0.83576 0.32308 0.0
C1007 C 0.05156 0.85498 0.31106 0.0
loop_
_geom_bond_atom_site_label_1
_geom_bond_atom_site_label_2
_geom_bond_distance
_geom_bond_site_symmetry_2
_ccdc_geom_bond_type
Co0 O3 1.970 . S
Co0 N17 1.989 . S
Co0 O25 1.967 . S
Co0 O32 1.920 . S
Co1 O4 1.966 . S
Co1 N10 2.022 . S
Co1 N18 1.993 . S
Co1 O26 1.941 . S
C2 O3 1.258 . S
C2 O4 1.263 . S
O3 Co0 1.970 . S
O3 C2 1.258 . S
O4 Co1 1.966 . S
O4 C2 1.263 . S
C5 O6 1.235 . S
C5 O32 1.289 . S
O6 C5 1.235 . S
C7 C9 1.400 . S
C7 N10 1.351 . S
C7 C12 1.501 . S
C8 C9 1.387 . S
C8 N11 1.341 . S
C9 C7 1.400 . S
C9 C8 1.387 . S
N10 Co1 2.022 . S
N10 C7 1.351 . S
N10 N11 1.365 . S
N11 C8 1.341 . S
N11 N10 1.365 . S
N11 H31 0.862 . S
C12 C7 1.501 . S
C12 H13 0.961 . S
C12 H14 0.961 . S
C12 H15 0.960 . S
H13 C12 0.961 . S
H14 C12 0.961 . S
H15 C12 0.960 . S
C16 N17 1.342 . S
C16 C20 1.401 . S
C16 C21 1.499 . S
N17 Co0 1.989 . S
N17 C16 1.342 . S
N17 N18 1.388 . S
N18 Co1 1.993 . S
N18 N17 1.388 . S
N18 C19 1.346 . S
C19 N18 1.346 . S
C19 C20 1.396 . S
C19 C29 1.510 . S
C20 C16 1.401 . S
C20 C19 1.396 . S
C21 C16 1.499 . S
C21 H22 0.959 . S
C21 H23 0.960 . S
C21 H24 0.961 . S
H22 C21 0.959 . S
H23 C21 0.960 . S
H24 C21 0.961 . S
O25 Co0 1.967 . S
O25 C33 1.258 . S
O26 Co1 1.941 . S
O26 C33 1.266 . S
H27 C29 0.959 . S
H28 C29 0.961 . S
C29 C19 1.510 . S
C29 H27 0.959 . S
C29 H28 0.961 . S
C29 H30 0.960 . S
H30 C29 0.960 . S
H31 N11 0.862 . S
O32 Co0 1.920 . S
O32 C5 1.289 . S
C33 O25 1.258 . S
C33 O26 1.266 . S
Co34 O37 1.970 . S
Co34 N51 1.989 . S
Co34 O59 1.967 . S
Co34 O66 1.920 . S
Co35 O38 1.966 . S
Co35 N44 2.022 . S
Co35 N52 1.993 . S
Co35 O60 1.941 . S
C36 O37 1.258 . S
C36 O38 1.263 . S
O37 Co34 1.970 . S
O37 C36 1.258 . S
O38 Co35 1.966 . S
O38 C36 1.263 . S
C39 O40 1.235 . S
C39 O66 1.289 . S
O40 C39 1.235 . S
C41 C43 1.400 . S
C41 N44 1.351 . S
C41 C46 1.501 . S
C42 C43 1.387 . S
C42 N45 1.341 . S
C43 C41 1.400 . S
C43 C42 1.387 . S
N44 Co35 2.022 . S
N44 C41 1.351 . S
N44 N45 1.365 . S
N45 C42 1.341 . S
N45 N44 1.365 . S
N45 H65 0.862 . S
C46 C41 1.501 . S
C46 H47 0.961 . S
C46 H48 0.961 . S
C46 H49 0.960 . S
H47 C46 0.961 . S
H48 C46 0.961 . S
H49 C46 0.960 . S
C50 N51 1.342 . S
C50 C54 1.401 . S
C50 C55 1.499 . S
N51 Co34 1.989 . S
N51 C50 1.342 . S
N51 N52 1.388 . S
N52 Co35 1.993 . S
N52 N51 1.388 . S
N52 C53 1.346 . S
C53 N52 1.346 . S
C53 C54 1.396 . S
C53 C63 1.510 . S
C54 C50 1.401 . S
C54 C53 1.396 . S
C55 C50 1.499 . S
C55 H56 0.959 . S
C55 H57 0.960 . S
C55 H58 0.961 . S
H56 C55 0.959 . S
H57 C55 0.960 . S
H58 C55 0.961 . S
O59 Co34 1.967 . S
O59 C67 1.258 . S
O60 Co35 1.941 . S
O60 C67 1.266 . S
H61 C63 0.959 . S
H62 C63 0.961 . S
C63 C53 1.510 . S
C63 H61 0.959 . S
C63 H62 0.961 . S
C63 H64 0.960 . S
H64 C63 0.960 . S
H65 N45 0.862 . S
O66 Co34 1.920 . S
O66 C39 1.289 . S
C67 O59 1.258 . S
C67 O60 1.266 . S
Co68 O71 1.970 . S
Co68 N85 1.989 . S
Co68 O93 1.967 . S
Co68 O100 1.920 . S
Co69 O72 1.966 . S
Co69 N78 2.022 . S
Co69 N86 1.993 . S
Co69 O94 1.941 . S
C70 O71 1.258 . S
C70 O72 1.263 . S
O71 Co68 1.970 . S
O71 C70 1.258 . S
O72 Co69 1.966 . S
O72 C70 1.263 . S
C73 O74 1.235 . S
C73 O100 1.289 . S
O74 C73 1.235 . S
C75 C77 1.400 . S
C75 N78 1.351 . S
C75 C80 1.501 . S
C76 C77 1.387 . S
C76 N79 1.341 . S
C77 C75 1.400 . S
C77 C76 1.387 . S
N78 Co69 2.022 . S
N78 C75 1.351 . S
N78 N79 1.365 . S
N79 C76 1.341 . S
N79 N78 1.365 . S
N79 H99 0.862 . S
C80 C75 1.501 . S
C80 H81 0.961 . S
C80 H82 0.961 . S
C80 H83 0.960 . S
H81 C80 0.961 . S
H82 C80 0.961 . S
H83 C80 0.960 . S
C84 N85 1.342 . S
C84 C88 1.401 . S
C84 C89 1.499 . S
N85 Co68 1.989 . S
N85 C84 1.342 . S
N85 N86 1.388 . S
N86 Co69 1.993 . S
N86 N85 1.388 . S
N86 C87 1.346 . S
C87 N86 1.346 . S
C87 C88 1.396 . S
C87 C97 1.510 . S
C88 C84 1.401 . S
C88 C87 1.396 . S
C89 C84 1.499 . S
C89 H90 0.959 . S
C89 H91 0.960 . S
C89 H92 0.961 . S
H90 C89 0.959 . S
H91 C89 0.960 . S
H92 C89 0.961 . S
O93 Co68 1.967 . S
O93 C101 1.258 . S
O94 Co69 1.941 . S
O94 C101 1.266 . S
H95 C97 0.959 . S
H96 C97 0.961 . S
C97 C87 1.510 . S
C97 H95 0.959 . S
C97 H96 0.961 . S
C97 H98 0.960 . S
H98 C97 0.960 . S
H99 N79 0.862 . S
O100 Co68 1.920 . S
O100 C73 1.289 . S
C101 O93 1.258 . S
C101 O94 1.266 . S
Co102 O105 1.970 . S
Co102 N119 1.989 . S
Co102 O127 1.967 . S
Co102 O134 1.920 . S
Co103 O106 1.966 . S
Co103 N112 2.022 . S
Co103 N120 1.993 . S
Co103 O128 1.941 . S
C104 O105 1.258 . S
C104 O106 1.263 . S
O105 Co102 1.970 . S
O105 C104 1.258 . S
O106 Co103 1.966 . S
O106 C104 1.263 . S
C107 O108 1.235 . S
C107 O134 1.289 . S
O108 C107 1.235 . S
C109 C111 1.400 . S
C109 N112 1.351 . S
C109 C114 1.501 . S
C110 C111 1.387 . S
C110 N113 1.341 . S
C111 C109 1.400 . S
C111 C110 1.387 . S
N112 Co103 2.022 . S
N112 C109 1.351 . S
N112 N113 1.365 . S
N113 C110 1.341 . S
N113 N112 1.365 . S
N113 H133 0.862 . S
C114 C109 1.501 . S
C114 H115 0.961 . S
C114 H116 0.961 . S
C114 H117 0.960 . S
H115 C114 0.961 . S
H116 C114 0.961 . S
H117 C114 0.960 . S
C118 N119 1.342 . S
C118 C122 1.401 . S
C118 C123 1.499 . S
N119 Co102 1.989 . S
N119 C118 1.342 . S
N119 N120 1.388 . S
N120 Co103 1.993 . S
N120 N119 1.388 . S
N120 C121 1.346 . S
C121 N120 1.346 . S
C121 C122 1.396 . S
C121 C131 1.510 . S
C122 C118 1.401 . S
C122 C121 1.396 . S
C123 C118 1.499 . S
C123 H124 0.959 . S
C123 H125 0.960 . S
C123 H126 0.961 . S
H124 C123 0.959 . S
H125 C123 0.960 . S
H126 C123 0.961 . S
O127 Co102 1.967 . S
O127 C135 1.258 . S
O128 Co103 1.941 . S
O128 C135 1.266 . S
H129 C131 0.959 . S
H130 C131 0.961 . S
C131 C121 1.510 . S
C131 H129 0.959 . S
C131 H130 0.961 . S
C131 H132 0.960 . S
H132 C131 0.960 . S
H133 N113 0.862 . S
O134 Co102 1.920 . S
O134 C107 1.289 . S
C135 O127 1.258 . S
C135 O128 1.266 . S
Co136 O139 1.970 . S
Co136 N153 1.989 . S
Co136 O161 1.967 . S
Co136 O168 1.920 . S
Co137 O140 1.966 . S
Co137 N146 2.022 . S
Co137 N154 1.993 . S
Co137 O162 1.941 . S
C138 O139 1.258 . S
C138 O140 1.263 . S
O139 Co136 1.970 . S
O139 C138 1.258 . S
O140 Co137 1.966 . S
O140 C138 1.263 . S
C141 O142 1.235 . S
C141 O168 1.289 . S
O142 C141 1.235 . S
C143 C145 1.400 . S
C143 N146 1.351 . S
C143 C148 1.501 . S
C144 C145 1.387 . S
C144 N147 1.341 . S
C145 C143 1.400 . S
C145 C144 1.387 . S
N146 Co137 2.022 . S
N146 C143 1.351 . S
N146 N147 1.365 . S
N147 C144 1.341 . S
N147 N146 1.365 . S
N147 H167 0.862 . S
C148 C143 1.501 . S
C148 H149 0.961 . S
C148 H150 0.961 . S
C148 H151 0.960 . S
H149 C148 0.961 . S
H150 C148 0.961 . S
H151 C148 0.960 . S
C152 N153 1.342 . S
C152 C156 1.401 . S
C152 C157 1.499 . S
N153 Co136 1.989 . S
N153 C152 1.342 . S
N153 N154 1.388 . S
N154 Co137 1.993 . S
N154 N153 1.388 . S
N154 C155 1.346 . S
C155 N154 1.346 . S
C155 C156 1.396 . S
C155 C165 1.510 . S
C156 C152 1.401 . S
C156 C155 1.396 . S
C157 C152 1.499 . S
C157 H158 0.959 . S
C157 H159 0.960 . S
C157 H160 0.961 . S
H158 C157 0.959 . S
H159 C157 0.960 . S
H160 C157 0.961 . S
O161 Co136 1.967 . S
O161 C169 1.258 . S
O162 Co137 1.941 . S
O162 C169 1.266 . S
H163 C165 0.959 . S
H164 C165 0.961 . S
C165 C155 1.510 . S
C165 H163 0.959 . S
C165 H164 0.961 . S
C165 H166 0.960 . S
H166 C165 0.960 . S
H167 N147 0.862 . S
O168 Co136 1.920 . S
O168 C141 1.289 . S
C169 O161 1.258 . S
C169 O162 1.266 . S
Co170 O173 1.970 . S
Co170 N187 1.989 . S
Co170 O195 1.967 . S
Co170 O202 1.920 . S
Co171 O174 1.966 . S
Co171 N180 2.022 . S
Co171 N188 1.993 . S
Co171 O196 1.941 . S
C172 O173 1.258 . S
C172 O174 1.263 . S
O173 Co170 1.970 . S
O173 C172 1.258 . S
O174 Co171 1.966 . S
O174 C172 1.263 . S
C175 O176 1.235 . S
C175 O202 1.289 . S
O176 C175 1.235 . S
C177 C179 1.400 . S
C177 N180 1.351 . S
C177 C182 1.501 . S
C178 C179 1.387 . S
C178 N181 1.341 . S
C179 C177 1.400 . S
C179 C178 1.387 . S
N180 Co171 2.022 . S
N180 C177 1.351 . S
N180 N181 1.365 . S
N181 C178 1.341 . S
N181 N180 1.365 . S
N181 H201 0.862 . S
C182 C177 1.501 . S
C182 H183 0.961 . S
C182 H184 0.961 . S
C182 H185 0.960 . S
H183 C182 0.961 . S
H184 C182 0.961 . S
H185 C182 0.960 . S
C186 N187 1.342 . S
C186 C190 1.401 . S
C186 C191 1.499 . S
N187 Co170 1.989 . S
N187 C186 1.342 . S
N187 N188 1.388 . S
N188 Co171 1.993 . S
N188 N187 1.388 . S
N188 C189 1.346 . S
C189 N188 1.346 . S
C189 C190 1.396 . S
C189 C199 1.510 . S
C190 C186 1.401 . S
C190 C189 1.396 . S
C191 C186 1.499 . S
C191 H192 0.959 . S
C191 H193 0.960 . S
C191 H194 0.961 . S
H192 C191 0.959 . S
H193 C191 0.960 . S
H194 C191 0.961 . S
O195 Co170 1.967 . S
O195 C203 1.258 . S
O196 Co171 1.941 . S
O196 C203 1.266 . S
H197 C199 0.959 . S
H198 C199 0.961 . S
C199 C189 1.510 . S
C199 H197 0.959 . S
C199 H198 0.961 . S
C199 H200 0.960 . S
H200 C199 0.960 . S
H201 N181 0.862 . S
O202 Co170 1.920 . S
O202 C175 1.289 . S
C203 O195 1.258 . S
C203 O196 1.266 . S
Co204 O207 1.970 . S
Co204 N221 1.989 . S
Co204 O229 1.967 . S
Co204 O236 1.920 . S
Co205 O208 1.966 . S
Co205 N214 2.022 . S
Co205 N222 1.993 . S
Co205 O230 1.941 . S
C206 O207 1.258 . S
C206 O208 1.263 . S
O207 Co204 1.970 . S
O207 C206 1.258 . S
O208 Co205 1.966 . S
O208 C206 1.263 . S
C209 O210 1.235 . S
C209 O236 1.289 . S
O210 C209 1.235 . S
C211 C213 1.400 . S
C211 N214 1.351 . S
C211 C216 1.501 . S
C212 C213 1.387 . S
C212 N215 1.341 . S
C213 C211 1.400 . S
C213 C212 1.387 . S
N214 Co205 2.022 . S
N214 C211 1.351 . S
N214 N215 1.365 . S
N215 C212 1.341 . S
N215 N214 1.365 . S
N215 H235 0.862 . S
C216 C211 1.501 . S
C216 H217 0.961 . S
C216 H218 0.961 . S
C216 H219 0.960 . S
H217 C216 0.961 . S
H218 C216 0.961 . S
H219 C216 0.960 . S
C220 N221 1.342 . S
C220 C224 1.401 . S
C220 C225 1.499 . S
N221 Co204 1.989 . S
N221 C220 1.342 . S
N221 N222 1.388 . S
N222 Co205 1.993 . S
N222 N221 1.388 . S
N222 C223 1.346 . S
C223 N222 1.346 . S
C223 C224 1.396 . S
C223 C233 1.510 . S
C224 C220 1.401 . S
C224 C223 1.396 . S
C225 C220 1.499 . S
C225 H226 0.959 . S
C225 H227 0.960 . S
C225 H228 0.961 . S
H226 C225 0.959 . S
H227 C225 0.960 . S
H228 C225 0.961 . S
O229 Co204 1.967 . S
O229 C237 1.258 . S
O230 Co205 1.941 . S
O230 C237 1.266 . S
H231 C233 0.959 . S
H232 C233 0.961 . S
C233 C223 1.510 . S
C233 H231 0.959 . S
C233 H232 0.961 . S
C233 H234 0.960 . S
H234 C233 0.960 . S
H235 N215 0.862 . S
O236 Co204 1.920 . S
O236 C209 1.289 . S
C237 O229 1.258 . S
C237 O230 1.266 . S
Co238 O241 1.970 . S
Co238 N255 1.989 . S
Co238 O263 1.967 . S
Co238 O270 1.920 . S
Co239 O242 1.966 . S
Co239 N248 2.022 . S
Co239 N256 1.993 . S
Co239 O264 1.941 . S
C240 O241 1.258 . S
C240 O242 1.263 . S
O241 Co238 1.970 . S
O241 C240 1.258 . S
O242 Co239 1.966 . S
O242 C240 1.263 . S
C243 O244 1.235 . S
C243 O270 1.289 . S
O244 C243 1.235 . S
C245 C247 1.400 . S
C245 N248 1.351 . S
C245 C250 1.501 . S
C246 C247 1.387 . S
C246 N249 1.341 . S
C247 C245 1.400 . S
C247 C246 1.387 . S
N248 Co239 2.022 . S
N248 C245 1.351 . S
N248 N249 1.365 . S
N249 C246 1.341 . S
N249 N248 1.365 . S
N249 H269 0.862 . S
C250 C245 1.501 . S
C250 H251 0.961 . S
C250 H252 0.961 . S
C250 H253 0.960 . S
H251 C250 0.961 . S
H252 C250 0.961 . S
H253 C250 0.960 . S
C254 N255 1.342 . S
C254 C258 1.401 . S
C254 C259 1.499 . S
N255 Co238 1.989 . S
N255 C254 1.342 . S
N255 N256 1.388 . S
N256 Co239 1.993 . S
N256 N255 1.388 . S
N256 C257 1.346 . S
C257 N256 1.346 . S
C257 C258 1.396 . S
C257 C267 1.510 . S
C258 C254 1.401 . S
C258 C257 1.396 . S
C259 C254 1.499 . S
C259 H260 0.959 . S
C259 H261 0.960 . S
C259 H262 0.961 . S
H260 C259 0.959 . S
H261 C259 0.960 . S
H262 C259 0.961 . S
O263 Co238 1.967 . S
O263 C271 1.258 . S
O264 Co239 1.941 . S
O264 C271 1.266 . S
H265 C267 0.959 . S
H266 C267 0.961 . S
C267 C257 1.510 . S
C267 H265 0.959 . S
C267 H266 0.961 . S
C267 H268 0.960 . S
H268 C267 0.960 . S
H269 N249 0.862 . S
O270 Co238 1.920 . S
O270 C243 1.289 . S
C271 O263 1.258 . S
C271 O264 1.266 . S
Co272 O275 1.970 . S
Co272 N289 1.989 . S
Co272 O297 1.967 . S
Co272 O304 1.920 . S
Co273 O276 1.966 . S
Co273 N282 2.022 . S
Co273 N290 1.993 . S
Co273 O298 1.941 . S
C274 O275 1.258 . S
C274 O276 1.263 . S
O275 Co272 1.970 . S
O275 C274 1.258 . S
O276 Co273 1.966 . S
O276 C274 1.263 . S
C277 O278 1.235 . S
C277 O304 1.289 . S
O278 C277 1.235 . S
C279 C281 1.400 . S
C279 N282 1.351 . S
C279 C284 1.501 . S
C280 C281 1.387 . S
C280 N283 1.341 . S
C281 C279 1.400 . S
C281 C280 1.387 . S
N282 Co273 2.022 . S
N282 C279 1.351 . S
N282 N283 1.365 . S
N283 C280 1.341 . S
N283 N282 1.365 . S
N283 H303 0.862 . S
C284 C279 1.501 . S
C284 H285 0.961 . S
C284 H286 0.961 . S
C284 H287 0.960 . S
H285 C284 0.961 . S
H286 C284 0.961 . S
H287 C284 0.960 . S
C288 N289 1.342 . S
C288 C292 1.401 . S
C288 C293 1.499 . S
N289 Co272 1.989 . S
N289 C288 1.342 . S
N289 N290 1.388 . S
N290 Co273 1.993 . S
N290 N289 1.388 . S
N290 C291 1.346 . S
C291 N290 1.346 . S
C291 C292 1.396 . S
C291 C301 1.510 . S
C292 C288 1.401 . S
C292 C291 1.396 . S
C293 C288 1.499 . S
C293 H294 0.959 . S
C293 H295 0.960 . S
C293 H296 0.961 . S
H294 C293 0.959 . S
H295 C293 0.960 . S
H296 C293 0.961 . S
O297 Co272 1.967 . S
O297 C305 1.258 . S
O298 Co273 1.941 . S
O298 C305 1.266 . S
H299 C301 0.959 . S
H300 C301 0.961 . S
C301 C291 1.510 . S
C301 H299 0.959 . S
C301 H300 0.961 . S
C301 H302 0.960 . S
H302 C301 0.960 . S
H303 N283 0.862 . S
O304 Co272 1.920 . S
O304 C277 1.289 . S
C305 O297 1.258 . S
C305 O298 1.266 . S
Co306 O309 1.970 . S
Co306 N323 1.989 . S
Co306 O331 1.967 . S
Co306 O338 1.920 . S
Co307 O310 1.966 . S
Co307 N316 2.022 . S
Co307 N324 1.993 . S
Co307 O332 1.941 . S
C308 O309 1.258 . S
C308 O310 1.263 . S
O309 Co306 1.970 . S
O309 C308 1.258 . S
O310 Co307 1.966 . S
O310 C308 1.263 . S
C311 O312 1.235 . S
C311 O338 1.289 . S
O312 C311 1.235 . S
C313 C315 1.400 . S
C313 N316 1.351 . S
C313 C318 1.501 . S
C314 C315 1.387 . S
C314 N317 1.341 . S
C315 C313 1.400 . S
C315 C314 1.387 . S
N316 Co307 2.022 . S
N316 C313 1.351 . S
N316 N317 1.365 . S
N317 C314 1.341 . S
N317 N316 1.365 . S
N317 H337 0.862 . S
C318 C313 1.501 . S
C318 H319 0.961 . S
C318 H320 0.961 . S
C318 H321 0.960 . S
H319 C318 0.961 . S
H320 C318 0.961 . S
H321 C318 0.960 . S
C322 N323 1.342 . S
C322 C326 1.401 . S
C322 C327 1.499 . S
N323 Co306 1.989 . S
N323 C322 1.342 . S
N323 N324 1.388 . S
N324 Co307 1.993 . S
N324 N323 1.388 . S
N324 C325 1.346 . S
C325 N324 1.346 . S
C325 C326 1.396 . S
C325 C335 1.510 . S
C326 C322 1.401 . S
C326 C325 1.396 . S
C327 C322 1.499 . S
C327 H328 0.959 . S
C327 H329 0.960 . S
C327 H330 0.961 . S
H328 C327 0.959 . S
H329 C327 0.960 . S
H330 C327 0.961 . S
O331 Co306 1.967 . S
O331 C339 1.258 . S
O332 Co307 1.941 . S
O332 C339 1.266 . S
H333 C335 0.959 . S
H334 C335 0.961 . S
C335 C325 1.510 . S
C335 H333 0.959 . S
C335 H334 0.961 . S
C335 H336 0.960 . S
H336 C335 0.960 . S
H337 N317 0.862 . S
O338 Co306 1.920 . S
O338 C311 1.289 . S
C339 O331 1.258 . S
C339 O332 1.266 . S
Co340 O343 1.970 . S
Co340 N357 1.989 . S
Co340 O365 1.967 . S
Co340 O372 1.920 . S
Co341 O344 1.966 . S
Co341 N350 2.022 . S
Co341 N358 1.993 . S
Co341 O366 1.941 . S
C342 O343 1.258 . S
C342 O344 1.263 . S
O343 Co340 1.970 . S
O343 C342 1.258 . S
O344 Co341 1.966 . S
O344 C342 1.263 . S
C345 O346 1.235 . S
C345 O372 1.289 . S
O346 C345 1.235 . S
C347 C349 1.400 . S
C347 N350 1.351 . S
C347 C352 1.501 . S
C348 C349 1.387 . S
C348 N351 1.341 . S
C349 C347 1.400 . S
C349 C348 1.387 . S
N350 Co341 2.022 . S
N350 C347 1.351 . S
N350 N351 1.365 . S
N351 C348 1.341 . S
N351 N350 1.365 . S
N351 H371 0.862 . S
C352 C347 1.501 . S
C352 H353 0.961 . S
C352 H354 0.961 . S
C352 H355 0.960 . S
H353 C352 0.961 . S
H354 C352 0.961 . S
H355 C352 0.960 . S
C356 N357 1.342 . S
C356 C360 1.401 . S
C356 C361 1.499 . S
N357 Co340 1.989 . S
N357 C356 1.342 . S
N357 N358 1.388 . S
N358 Co341 1.993 . S
N358 N357 1.388 . S
N358 C359 1.346 . S
C359 N358 1.346 . S
C359 C360 1.396 . S
C359 C369 1.510 . S
C360 C356 1.401 . S
C360 C359 1.396 . S
C361 C356 1.499 . S
C361 H362 0.959 . S
C361 H363 0.960 . S
C361 H364 0.961 . S
H362 C361 0.959 . S
H363 C361 0.960 . S
H364 C361 0.961 . S
O365 Co340 1.967 . S
O365 C373 1.258 . S
O366 Co341 1.941 . S
O366 C373 1.266 . S
H367 C369 0.959 . S
H368 C369 0.961 . S
C369 C359 1.510 . S
C369 H367 0.959 . S
C369 H368 0.961 . S
C369 H370 0.960 . S
H370 C369 0.960 . S
H371 N351 0.862 . S
O372 Co340 1.920 . S
O372 C345 1.289 . S
C373 O365 1.258 . S
C373 O366 1.266 . S
Co374 O377 1.970 . S
Co374 N391 1.989 . S
Co374 O399 1.967 . S
Co374 O406 1.920 . S
Co375 O378 1.966 . S
Co375 N384 2.022 . S
Co375 N392 1.993 . S
Co375 O400 1.941 . S
C376 O377 1.258 . S
C376 O378 1.263 . S
O377 Co374 1.970 . S
O377 C376 1.258 . S
O378 Co375 1.966 . S
O378 C376 1.263 . S
C379 O380 1.235 . S
C379 O406 1.289 . S
O380 C379 1.235 . S
C381 C383 1.400 . S
C381 N384 1.351 . S
C381 C386 1.501 . S
C382 C383 1.387 . S
C382 N385 1.341 . S
C383 C381 1.400 . S
C383 C382 1.387 . S
N384 Co375 2.022 . S
N384 C381 1.351 . S
N384 N385 1.365 . S
N385 C382 1.341 . S
N385 N384 1.365 . S
N385 H405 0.862 . S
C386 C381 1.501 . S
C386 H387 0.961 . S
C386 H388 0.961 . S
C386 H389 0.960 . S
H387 C386 0.961 . S
H388 C386 0.961 . S
H389 C386 0.960 . S
C390 N391 1.342 . S
C390 C394 1.401 . S
C390 C395 1.499 . S
N391 Co374 1.989 . S
N391 C390 1.342 . S
N391 N392 1.388 . S
N392 Co375 1.993 . S
N392 N391 1.388 . S
N392 C393 1.346 . S
C393 N392 1.346 . S
C393 C394 1.396 . S
C393 C403 1.510 . S
C394 C390 1.401 . S
C394 C393 1.396 . S
C395 C390 1.499 . S
C395 H396 0.959 . S
C395 H397 0.960 . S
C395 H398 0.961 . S
H396 C395 0.959 . S
H397 C395 0.960 . S
H398 C395 0.961 . S
O399 Co374 1.967 . S
O399 C407 1.258 . S
O400 Co375 1.941 . S
O400 C407 1.266 . S
H401 C403 0.959 . S
H402 C403 0.961 . S
C403 C393 1.510 . S
C403 H401 0.959 . S
C403 H402 0.961 . S
C403 H404 0.960 . S
H404 C403 0.960 . S
H405 N385 0.862 . S
O406 Co374 1.920 . S
O406 C379 1.289 . S
C407 O399 1.258 . S
C407 O400 1.266 . S
H408 C416 0.950 . S
H409 C421 0.950 . S
H410 C418 0.950 . S
H411 C420 0.950 . S
H412 C422 0.950 . S
H413 C424 0.950 . S
H414 C426 0.950 . S
H415 C427 0.950 . S
C416 H408 0.950 . S
C416 C417 1.386 . S
C416 C418 1.391 1_545 S
C417 C416 1.386 . S
C417 C421 1.393 . S
C418 H410 0.950 . S
C418 C416 1.391 1_565 S
C418 C419 1.400 . S
C419 C418 1.400 . S
C419 C420 1.398 1_565 S
C419 C425 1.491 . S
C420 H411 0.950 . S
C420 C419 1.398 1_545 S
C420 C421 1.391 . S
C421 H409 0.950 . S
C421 C417 1.393 . S
C421 C420 1.391 . S
C422 H412 0.950 . S
C422 C423 1.386 . S
C422 C424 1.391 . S
C423 C422 1.386 . S
C423 C427 1.393 . S
C424 H413 0.950 . S
C424 C422 1.391 . S
C424 C425 1.400 1_655 S
C425 C419 1.491 . S
C425 C424 1.400 1_455 S
C425 C426 1.398 . S
C426 H414 0.950 . S
C426 C425 1.398 . S
C426 C427 1.391 1_455 S
C427 H415 0.950 . S
C427 C423 1.393 . S
C427 C426 1.391 1_655 S
H428 C436 0.950 . S
H429 C441 0.950 . S
H430 C438 0.950 . S
H431 C440 0.950 . S
H432 C442 0.950 . S
H433 C444 0.950 . S
H434 C446 0.950 . S
H435 C447 0.950 . S
C436 H428 0.950 . S
C436 C437 1.386 . S
C436 C438 1.391 1_565 S
C437 C436 1.386 . S
C437 C441 1.393 . S
C438 H430 0.950 . S
C438 C436 1.391 1_545 S
C438 C439 1.400 . S
C439 C438 1.400 . S
C439 C440 1.398 1_545 S
C439 C445 1.491 . S
C440 H431 0.950 . S
C440 C439 1.398 1_565 S
C440 C441 1.391 . S
C441 H429 0.950 . S
C441 C437 1.393 . S
C441 C440 1.391 . S
C442 H432 0.950 . S
C442 C443 1.386 . S
C442 C444 1.391 . S
C443 C442 1.386 . S
C443 C447 1.393 . S
C444 H433 0.950 . S
C444 C442 1.391 . S
C444 C445 1.400 . S
C445 C439 1.491 . S
C445 C444 1.400 . S
C445 C446 1.398 . S
C446 H434 0.950 . S
C446 C445 1.398 . S
C446 C447 1.391 . S
C447 H435 0.950 . S
C447 C443 1.393 . S
C447 C446 1.391 . S
H448 C456 0.950 . S
H449 C461 0.950 . S
H450 C458 0.950 1_455 S
H451 C460 0.950 1_455 S
H452 C462 0.950 . S
H453 C464 0.950 . S
H454 C466 0.950 . S
H455 C467 0.950 . S
C456 H448 0.950 . S
C456 C457 1.386 . S
C456 C458 1.391 . S
C457 C456 1.386 . S
C457 C461 1.393 . S
C458 H450 0.950 1_655 S
C458 C456 1.391 . S
C458 C459 1.400 1_655 S
C459 C458 1.400 1_455 S
C459 C460 1.398 1_455 S
C459 C465 1.491 . S
C460 H451 0.950 1_655 S
C460 C459 1.398 1_655 S
C460 C461 1.391 . S
C461 H449 0.950 . S
C461 C457 1.393 . S
C461 C460 1.391 . S
C462 H452 0.950 . S
C462 C463 1.386 . S
C462 C464 1.391 . S
C463 C462 1.386 . S
C463 C467 1.393 . S
C464 H453 0.950 . S
C464 C462 1.391 . S
C464 C465 1.400 . S
C465 C459 1.491 . S
C465 C464 1.400 . S
C465 C466 1.398 . S
C466 H454 0.950 . S
C466 C465 1.398 . S
C466 C467 1.391 . S
C467 H455 0.950 . S
C467 C463 1.393 . S
C467 C466 1.391 . S
H468 C476 0.950 . S
H469 C481 0.950 . S
H470 C478 0.950 . S
H471 C480 0.950 . S
H472 C482 0.950 . S
H473 C484 0.950 . S
H474 C486 0.950 . S
H475 C487 0.950 . S
C476 H468 0.950 . S
C476 C477 1.386 . S
C476 C478 1.391 . S
C477 C476 1.386 . S
C477 C481 1.393 . S
C478 H470 0.950 . S
C478 C476 1.391 . S
C478 C479 1.400 1_565 S
C479 C478 1.400 1_545 S
C479 C480 1.398 . S
C479 C485 1.491 . S
C480 H471 0.950 . S
C480 C479 1.398 . S
C480 C481 1.391 1_545 S
C481 H469 0.950 . S
C481 C477 1.393 . S
C481 C480 1.391 1_565 S
C482 H472 0.950 . S
C482 C483 1.386 . S
C482 C484 1.391 1_455 S
C483 C482 1.386 . S
C483 C487 1.393 . S
C484 H473 0.950 . S
C484 C482 1.391 1_655 S
C484 C485 1.400 . S
C485 C479 1.491 . S
C485 C484 1.400 . S
C485 C486 1.398 1_655 S
C486 H474 0.950 . S
C486 C485 1.398 1_455 S
C486 C487 1.391 . S
C487 H475 0.950 . S
C487 C483 1.393 . S
C487 C486 1.391 . S
H488 C496 0.950 . S
H489 C501 0.950 . S
H490 C498 0.950 . S
H491 C500 0.950 . S
H492 C502 0.950 . S
H493 C504 0.950 . S
H494 C506 0.950 . S
H495 C507 0.950 . S
C496 H488 0.950 . S
C496 C497 1.386 . S
C496 C498 1.391 . S
C497 C496 1.386 . S
C497 C501 1.393 . S
C498 H490 0.950 . S
C498 C496 1.391 . S
C498 C499 1.400 . S
C499 C498 1.400 . S
C499 C500 1.398 . S
C499 C505 1.491 . S
C500 H491 0.950 . S
C500 C499 1.398 . S
C500 C501 1.391 . S
C501 H489 0.950 . S
C501 C497 1.393 . S
C501 C500 1.391 . S
C502 H492 0.950 . S
C502 C503 1.386 . S
C502 C504 1.391 . S
C503 C502 1.386 . S
C503 C507 1.393 . S
C504 H493 0.950 . S
C504 C502 1.391 . S
C504 C505 1.400 1_545 S
C505 C499 1.491 . S
C505 C504 1.400 1_565 S
C505 C506 1.398 . S
C506 H494 0.950 . S
C506 C505 1.398 . S
C506 C507 1.391 1_565 S
C507 H495 0.950 . S
C507 C503 1.393 . S
C507 C506 1.391 1_545 S
H508 C516 0.950 . S
H509 C521 0.950 . S
H510 C518 0.950 . S
H511 C520 0.950 . S
H512 C522 0.950 . S
H513 C524 0.950 . S
H514 C526 0.950 . S
H515 C527 0.950 . S
C516 H508 0.950 . S
C516 C517 1.386 . S
C516 C518 1.391 . S
C517 C516 1.386 . S
C517 C521 1.393 . S
C518 H510 0.950 . S
C518 C516 1.391 . S
C518 C519 1.400 1_455 S
C519 C518 1.400 1_655 S
C519 C520 1.398 . S
C519 C525 1.491 . S
C520 H511 0.950 . S
C520 C519 1.398 . S
C520 C521 1.391 1_655 S
C521 H509 0.950 . S
C521 C517 1.393 . S
C521 C520 1.391 1_455 S
C522 H512 0.950 . S
C522 C523 1.386 . S
C522 C524 1.391 . S
C523 C522 1.386 . S
C523 C527 1.393 . S
C524 H513 0.950 . S
C524 C522 1.391 . S
C524 C525 1.400 . S
C525 C519 1.491 . S
C525 C524 1.400 . S
C525 C526 1.398 . S
C526 H514 0.950 . S
C526 C525 1.398 . S
C526 C527 1.391 . S
C527 H515 0.950 . S
C527 C523 1.393 . S
C527 C526 1.391 . S
H528 C536 0.950 . S
H529 C541 0.950 . S
H530 C538 0.950 . S
H531 C540 0.950 . S
H532 C542 0.950 . S
H533 C544 0.950 . S
H534 C546 0.950 . S
H535 C547 0.950 . S
C536 H528 0.950 . S
C536 C537 1.386 . S
C536 C538 1.391 . S
C537 C536 1.386 . S
C537 C541 1.393 . S
C538 H530 0.950 . S
C538 C536 1.391 . S
C538 C539 1.400 . S
C539 C538 1.400 . S
C539 C540 1.398 . S
C539 C545 1.491 . S
C540 H531 0.950 . S
C540 C539 1.398 . S
C540 C541 1.391 . S
C541 H529 0.950 . S
C541 C537 1.393 . S
C541 C540 1.391 . S
C542 H532 0.950 . S
C542 C543 1.386 . S
C542 C544 1.391 . S
C543 C542 1.386 . S
C543 C547 1.393 . S
C544 H533 0.950 . S
C544 C542 1.391 . S
C544 C545 1.400 . S
C545 C539 1.491 . S
C545 C544 1.400 . S
C545 C546 1.398 . S
C546 H534 0.950 . S
C546 C545 1.398 . S
C546 C547 1.391 . S
C547 H535 0.950 . S
C547 C543 1.393 . S
C547 C546 1.391 . S
H548 C556 0.950 . S
H549 C561 0.950 . S
H550 C558 0.950 . S
H551 C560 0.950 . S
H552 C562 0.950 . S
H553 C564 0.950 . S
H554 C566 0.950 . S
H555 C567 0.950 . S
C556 H548 0.950 . S
C556 C557 1.386 . S
C556 C558 1.391 . S
C557 C556 1.386 . S
C557 C561 1.393 . S
C558 H550 0.950 . S
C558 C556 1.391 . S
C558 C559 1.400 . S
C559 C558 1.400 . S
C559 C560 1.398 . S
C559 C565 1.491 . S
C560 H551 0.950 . S
C560 C559 1.398 . S
C560 C561 1.391 . S
C561 H549 0.950 . S
C561 C557 1.393 . S
C561 C560 1.391 . S
C562 H552 0.950 . S
C562 C563 1.386 . S
C562 C564 1.391 . S
C563 C562 1.386 . S
C563 C567 1.393 . S
C564 H553 0.950 . S
C564 C562 1.391 . S
C564 C565 1.400 . S
C565 C559 1.491 . S
C565 C564 1.400 . S
C565 C566 1.398 . S
C566 H554 0.950 . S
C566 C565 1.398 . S
C566 C567 1.391 . S
C567 H555 0.950 . S
C567 C563 1.393 . S
C567 C566 1.391 . S
H568 C576 0.950 . S
H569 C581 0.950 . S
H570 C578 0.950 . S
H571 C580 0.950 . S
H572 C582 0.950 . S
H573 C584 0.950 . S
H574 C586 0.950 . S
H575 C587 0.950 . S
C576 H568 0.950 . S
C576 C577 1.386 . S
C576 C578 1.391 . S
C577 C576 1.386 . S
C577 C581 1.393 . S
C578 H570 0.950 . S
C578 C576 1.391 . S
C578 C579 1.400 . S
C579 C578 1.400 . S
C579 C580 1.398 . S
C579 C585 1.491 . S
C580 H571 0.950 . S
C580 C579 1.398 . S
C580 C581 1.391 . S
C581 H569 0.950 . S
C581 C577 1.393 . S
C581 C580 1.391 . S
C582 H572 0.950 . S
C582 C583 1.386 . S
C582 C584 1.391 . S
C583 C582 1.386 . S
C583 C587 1.393 . S
C584 H573 0.950 . S
C584 C582 1.391 . S
C584 C585 1.400 . S
C585 C579 1.491 . S
C585 C584 1.400 . S
C585 C586 1.398 . S
C586 H574 0.950 . S
C586 C585 1.398 . S
C586 C587 1.391 . S
C587 H575 0.950 . S
C587 C583 1.393 . S
C587 C586 1.391 . S
H588 C596 0.950 . S
H589 C601 0.950 . S
H590 C598 0.950 . S
H591 C600 0.950 . S
H592 C602 0.950 . S
H593 C604 0.950 . S
H594 C606 0.950 . S
H595 C607 0.950 . S
C596 H588 0.950 . S
C596 C597 1.386 . S
C596 C598 1.391 . S
C597 C596 1.386 . S
C597 C601 1.393 . S
C598 H590 0.950 . S
C598 C596 1.391 . S
C598 C599 1.400 . S
C599 C598 1.400 . S
C599 C600 1.398 . S
C599 C605 1.491 . S
C600 H591 0.950 . S
C600 C599 1.398 . S
C600 C601 1.391 . S
C601 H589 0.950 . S
C601 C597 1.393 . S
C601 C600 1.391 . S
C602 H592 0.950 . S
C602 C603 1.386 . S
C602 C604 1.391 . S
C603 C602 1.386 . S
C603 C607 1.393 . S
C604 H593 0.950 . S
C604 C602 1.391 . S
C604 C605 1.400 . S
C605 C599 1.491 . S
C605 C604 1.400 . S
C605 C606 1.398 . S
C606 H594 0.950 . S
C606 C605 1.398 . S
C606 C607 1.391 . S
C607 H595 0.950 . S
C607 C603 1.393 . S
C607 C606 1.391 . S
H608 C616 0.950 . S
H609 C621 0.950 . S
H610 C618 0.950 . S
H611 C620 0.950 . S
H612 C622 0.950 . S
H613 C624 0.950 . S
H614 C626 0.950 . S
H615 C627 0.950 . S
C616 H608 0.950 . S
C616 C617 1.386 . S
C616 C618 1.391 . S
C617 C616 1.386 . S
C617 C621 1.393 . S
C618 H610 0.950 . S
C618 C616 1.391 . S
C618 C619 1.400 . S
C619 C618 1.400 . S
C619 C620 1.398 . S
C619 C625 1.491 . S
C620 H611 0.950 . S
C620 C619 1.398 . S
C620 C621 1.391 . S
C621 H609 0.950 . S
C621 C617 1.393 . S
C621 C620 1.391 . S
C622 H612 0.950 . S
C622 C623 1.386 . S
C622 C624 1.391 . S
C623 C622 1.386 . S
C623 C627 1.393 . S
C624 H613 0.950 . S
C624 C622 1.391 . S
C624 C625 1.400 . S
C625 C619 1.491 . S
C625 C624 1.400 . S
C625 C626 1.398 . S
C626 H614 0.950 . S
C626 C625 1.398 . S
C626 C627 1.391 . S
C627 H615 0.950 . S
C627 C623 1.393 . S
C627 C626 1.391 . S
H628 C636 0.950 . S
H629 C641 0.950 . S
H630 C638 0.950 . S
H631 C640 0.950 . S
H632 C642 0.950 . S
H633 C644 0.950 . S
H634 C646 0.950 . S
H635 C647 0.950 . S
C636 H628 0.950 . S
C636 C637 1.386 . S
C636 C638 1.391 . S
C637 C636 1.386 . S
C637 C641 1.393 . S
C638 H630 0.950 . S
C638 C636 1.391 . S
C638 C639 1.400 . S
C639 C638 1.400 . S
C639 C640 1.398 . S
C639 C645 1.491 . S
C640 H631 0.950 . S
C640 C639 1.398 . S
C640 C641 1.391 . S
C641 H629 0.950 . S
C641 C637 1.393 . S
C641 C640 1.391 . S
C642 H632 0.950 . S
C642 C643 1.386 . S
C642 C644 1.391 . S
C643 C642 1.386 . S
C643 C647 1.393 . S
C644 H633 0.950 . S
C644 C642 1.391 . S
C644 C645 1.400 . S
C645 C639 1.491 . S
C645 C644 1.400 . S
C645 C646 1.398 . S
C646 H634 0.950 . S
C646 C645 1.398 . S
C646 C647 1.391 . S
C647 H635 0.950 . S
C647 C643 1.393 . S
C647 C646 1.391 . S
H648 C656 0.950 . S
H649 C661 0.950 . S
H650 C658 0.950 . S
H651 C660 0.950 . S
H652 C662 0.950 . S
H653 C664 0.950 . S
H654 C666 0.950 . S
H655 C667 0.950 . S
C656 H648 0.950 . S
C656 C657 1.386 . S
C656 C658 1.391 . S
C657 C656 1.386 . S
C657 C661 1.393 1_565 S
C658 H650 0.950 . S
C658 C656 1.391 . S
C658 C659 1.400 1_565 S
C659 C658 1.400 1_545 S
C659 C660 1.398 . S
C659 C665 1.491 . S
C660 H651 0.950 . S
C660 C659 1.398 . S
C660 C661 1.391 . S
C661 H649 0.950 . S
C661 C657 1.393 1_545 S
C661 C660 1.391 . S
C662 H652 0.950 . S
C662 C663 1.386 . S
C662 C664 1.391 . S
C663 C662 1.386 . S
C663 C667 1.393 . S
C664 H653 0.950 . S
C664 C662 1.391 . S
C664 C665 1.400 . S
C665 C659 1.491 . S
C665 C664 1.400 . S
C665 C666 1.398 . S
C666 H654 0.950 . S
C666 C665 1.398 . S
C666 C667 1.391 . S
C667 H655 0.950 . S
C667 C663 1.393 . S
C667 C666 1.391 . S
H668 C676 0.950 . S
H669 C681 0.950 . S
H670 C678 0.950 . S
H671 C680 0.950 . S
H672 C682 0.950 . S
H673 C684 0.950 . S
H674 C686 0.950 . S
H675 C687 0.950 . S
C676 H668 0.950 . S
C676 C677 1.386 . S
C676 C678 1.391 . S
C677 C676 1.386 . S
C677 C681 1.393 . S
C678 H670 0.950 . S
C678 C676 1.391 . S
C678 C679 1.400 . S
C679 C678 1.400 . S
C679 C680 1.398 . S
C679 C685 1.491 . S
C680 H671 0.950 . S
C680 C679 1.398 . S
C680 C681 1.391 . S
C681 H669 0.950 . S
C681 C677 1.393 . S
C681 C680 1.391 . S
C682 H672 0.950 . S
C682 C683 1.386 . S
C682 C684 1.391 . S
C683 C682 1.386 . S
C683 C687 1.393 . S
C684 H673 0.950 . S
C684 C682 1.391 . S
C684 C685 1.400 . S
C685 C679 1.491 . S
C685 C684 1.400 . S
C685 C686 1.398 . S
C686 H674 0.950 . S
C686 C685 1.398 . S
C686 C687 1.391 . S
C687 H675 0.950 . S
C687 C683 1.393 . S
C687 C686 1.391 . S
H688 C696 0.950 . S
H689 C701 0.950 . S
H690 C698 0.950 . S
H691 C700 0.950 . S
H692 C702 0.950 . S
H693 C704 0.950 . S
H694 C706 0.950 . S
H695 C707 0.950 . S
C696 H688 0.950 . S
C696 C697 1.386 . S
C696 C698 1.391 . S
C697 C696 1.386 . S
C697 C701 1.393 . S
C698 H690 0.950 . S
C698 C696 1.391 . S
C698 C699 1.400 . S
C699 C698 1.400 . S
C699 C700 1.398 . S
C699 C705 1.491 . S
C700 H691 0.950 . S
C700 C699 1.398 . S
C700 C701 1.391 . S
C701 H689 0.950 . S
C701 C697 1.393 . S
C701 C700 1.391 . S
C702 H692 0.950 . S
C702 C703 1.386 . S
C702 C704 1.391 1_455 S
C703 C702 1.386 . S
C703 C707 1.393 . S
C704 H693 0.950 . S
C704 C702 1.391 1_655 S
C704 C705 1.400 . S
C705 C699 1.491 . S
C705 C704 1.400 . S
C705 C706 1.398 . S
C706 H694 0.950 . S
C706 C705 1.398 . S
C706 C707 1.391 1_655 S
C707 H695 0.950 . S
C707 C703 1.393 . S
C707 C706 1.391 1_455 S
H708 C716 0.950 . S
H709 C721 0.950 . S
H710 C718 0.950 . S
H711 C720 0.950 . S
H712 C722 0.950 . S
H713 C724 0.950 . S
H714 C726 0.950 . S
H715 C727 0.950 . S
C716 H708 0.950 . S
C716 C717 1.386 1_565 S
C716 C718 1.391 . S
C717 C716 1.386 1_545 S
C717 C721 1.393 . S
C718 H710 0.950 . S
C718 C716 1.391 . S
C718 C719 1.400 . S
C719 C718 1.400 . S
C719 C720 1.398 . S
C719 C725 1.491 . S
C720 H711 0.950 . S
C720 C719 1.398 . S
C720 C721 1.391 1_565 S
C721 H709 0.950 . S
C721 C717 1.393 . S
C721 C720 1.391 1_545 S
C722 H712 0.950 . S
C722 C723 1.386 . S
C722 C724 1.391 . S
C723 C722 1.386 . S
C723 C727 1.393 . S
C724 H713 0.950 . S
C724 C722 1.391 . S
C724 C725 1.400 . S
C725 C719 1.491 . S
C725 C724 1.400 . S
C725 C726 1.398 . S
C726 H714 0.950 . S
C726 C725 1.398 . S
C726 C727 1.391 . S
C727 H715 0.950 . S
C727 C723 1.393 . S
C727 C726 1.391 . S
H728 C736 0.950 . S
H729 C741 0.950 . S
H730 C738 0.950 . S
H731 C740 0.950 . S
H732 C742 0.950 . S
H733 C744 0.950 . S
H734 C746 0.950 1_556 S
H735 C747 0.950 . S
C736 H728 0.950 . S
C736 C737 1.386 . S
C736 C738 1.391 . S
C737 C736 1.386 . S
C737 C741 1.393 . S
C738 H730 0.950 . S
C738 C736 1.391 . S
C738 C739 1.400 . S
C739 C738 1.400 . S
C739 C740 1.398 . S
C739 C745 1.491 1_556 S
C740 H731 0.950 . S
C740 C739 1.398 . S
C740 C741 1.391 . S
C741 H729 0.950 . S
C741 C737 1.393 . S
C741 C740 1.391 . S
C742 H732 0.950 . S
C742 C743 1.386 . S
C742 C744 1.391 . S
C743 C742 1.386 . S
C743 C747 1.393 . S
C744 H733 0.950 . S
C744 C742 1.391 . S
C744 C745 1.400 . S
C745 C739 1.491 1_554 S
C745 C744 1.400 . S
C745 C746 1.398 . S
C746 H734 0.950 1_554 S
C746 C745 1.398 . S
C746 C747 1.391 . S
C747 H735 0.950 . S
C747 C743 1.393 . S
C747 C746 1.391 . S
H748 C756 0.950 . S
H749 C761 0.950 . S
H750 C758 0.950 . S
H751 C760 0.950 . S
H752 C762 0.950 . S
H753 C764 0.950 . S
H754 C766 0.950 . S
H755 C767 0.950 . S
C756 H748 0.950 . S
C756 C757 1.386 1_455 S
C756 C758 1.391 . S
C757 C756 1.386 1_655 S
C757 C761 1.393 . S
C758 H750 0.950 . S
C758 C756 1.391 . S
C758 C759 1.400 . S
C759 C758 1.400 . S
C759 C760 1.398 1_455 S
C759 C765 1.491 . S
C760 H751 0.950 . S
C760 C759 1.398 1_655 S
C760 C761 1.391 . S
C761 H749 0.950 . S
C761 C757 1.393 . S
C761 C760 1.391 . S
C762 H752 0.950 . S
C762 C763 1.386 . S
C762 C764 1.391 . S
C763 C762 1.386 . S
C763 C767 1.393 . S
C764 H753 0.950 . S
C764 C762 1.391 . S
C764 C765 1.400 . S
C765 C759 1.491 . S
C765 C764 1.400 . S
C765 C766 1.398 . S
C766 H754 0.950 . S
C766 C765 1.398 . S
C766 C767 1.391 . S
C767 H755 0.950 . S
C767 C763 1.393 . S
C767 C766 1.391 . S
H768 C776 0.950 . S
H769 C781 0.950 . S
H770 C778 0.950 . S
H771 C780 0.950 . S
H772 C782 0.950 . S
H773 C784 0.950 . S
H774 C786 0.950 . S
H775 C787 0.950 . S
C776 H768 0.950 . S
C776 C777 1.386 . S
C776 C778 1.391 1_455 S
C777 C776 1.386 . S
C777 C781 1.393 . S
C778 H770 0.950 . S
C778 C776 1.391 1_655 S
C778 C779 1.400 . S
C779 C778 1.400 . S
C779 C780 1.398 . S
C779 C785 1.491 . S
C780 H771 0.950 . S
C780 C779 1.398 . S
C780 C781 1.391 1_655 S
C781 H769 0.950 . S
C781 C777 1.393 . S
C781 C780 1.391 1_455 S
C782 H772 0.950 . S
C782 C783 1.386 . S
C782 C784 1.391 . S
C783 C782 1.386 . S
C783 C787 1.393 . S
C784 H773 0.950 . S
C784 C782 1.391 . S
C784 C785 1.400 . S
C785 C779 1.491 . S
C785 C784 1.400 . S
C785 C786 1.398 . S
C786 H774 0.950 . S
C786 C785 1.398 . S
C786 C787 1.391 . S
C787 H775 0.950 . S
C787 C783 1.393 . S
C787 C786 1.391 . S
H788 C796 0.950 . S
H789 C801 0.950 . S
H790 C798 0.950 . S
H791 C800 0.950 . S
H792 C802 0.950 . S
H793 C804 0.950 . S
H794 C806 0.950 . S
H795 C807 0.950 . S
C796 H788 0.950 . S
C796 C797 1.386 . S
C796 C798 1.391 . S
C797 C796 1.386 . S
C797 C801 1.393 . S
C798 H790 0.950 . S
C798 C796 1.391 . S
C798 C799 1.400 . S
C799 C798 1.400 . S
C799 C800 1.398 . S
C799 C805 1.491 . S
C800 H791 0.950 . S
C800 C799 1.398 . S
C800 C801 1.391 . S
C801 H789 0.950 . S
C801 C797 1.393 . S
C801 C800 1.391 . S
C802 H792 0.950 . S
C802 C803 1.386 . S
C802 C804 1.391 . S
C803 C802 1.386 . S
C803 C807 1.393 1_545 S
C804 H793 0.950 . S
C804 C802 1.391 . S
C804 C805 1.400 1_545 S
C805 C799 1.491 . S
C805 C804 1.400 1_565 S
C805 C806 1.398 . S
C806 H794 0.950 . S
C806 C805 1.398 . S
C806 C807 1.391 . S
C807 H795 0.950 . S
C807 C803 1.393 1_565 S
C807 C806 1.391 . S
H808 C816 0.950 . S
H809 C821 0.950 . S
H810 C818 0.950 . S
H811 C820 0.950 . S
H812 C822 0.950 . S
H813 C824 0.950 . S
H814 C826 0.950 . S
H815 C827 0.950 . S
C816 H808 0.950 . S
C816 C817 1.386 . S
C816 C818 1.391 . S
C817 C816 1.386 . S
C817 C821 1.393 . S
C818 H810 0.950 . S
C818 C816 1.391 . S
C818 C819 1.400 . S
C819 C818 1.400 . S
C819 C820 1.398 . S
C819 C825 1.491 . S
C820 H811 0.950 . S
C820 C819 1.398 . S
C820 C821 1.391 . S
C821 H809 0.950 . S
C821 C817 1.393 . S
C821 C820 1.391 . S
C822 H812 0.950 . S
C822 C823 1.386 . S
C822 C824 1.391 . S
C823 C822 1.386 . S
C823 C827 1.393 . S
C824 H813 0.950 . S
C824 C822 1.391 . S
C824 C825 1.400 . S
C825 C819 1.491 . S
C825 C824 1.400 . S
C825 C826 1.398 . S
C826 H814 0.950 . S
C826 C825 1.398 . S
C826 C827 1.391 . S
C827 H815 0.950 . S
C827 C823 1.393 . S
C827 C826 1.391 . S
H828 C836 0.950 . S
H829 C841 0.950 . S
H830 C838 0.950 . S
H831 C840 0.950 . S
H832 C842 0.950 . S
H833 C844 0.950 . S
H834 C846 0.950 . S
H835 C847 0.950 . S
C836 H828 0.950 . S
C836 C837 1.386 . S
C836 C838 1.391 1_655 S
C837 C836 1.386 . S
C837 C841 1.393 . S
C838 H830 0.950 . S
C838 C836 1.391 1_455 S
C838 C839 1.400 . S
C839 C838 1.400 . S
C839 C840 1.398 . S
C839 C845 1.491 1_554 S
C840 H831 0.950 . S
C840 C839 1.398 . S
C840 C841 1.391 1_455 S
C841 H829 0.950 . S
C841 C837 1.393 . S
C841 C840 1.391 1_655 S
C842 H832 0.950 . S
C842 C843 1.386 . S
C842 C844 1.391 . S
C843 C842 1.386 . S
C843 C847 1.393 . S
C844 H833 0.950 . S
C844 C842 1.391 . S
C844 C845 1.400 . S
C845 C839 1.491 1_556 S
C845 C844 1.400 . S
C845 C846 1.398 . S
C846 H834 0.950 . S
C846 C845 1.398 . S
C846 C847 1.391 . S
C847 H835 0.950 . S
C847 C843 1.393 . S
C847 C846 1.391 . S
H848 C856 0.950 . S
H849 C861 0.950 . S
H850 C858 0.950 . S
H851 C860 0.950 . S
H852 C862 0.950 . S
H853 C864 0.950 . S
H854 C866 0.950 . S
H855 C867 0.950 . S
C856 H848 0.950 . S
C856 C857 1.386 1_545 S
C856 C858 1.391 . S
C857 C856 1.386 1_565 S
C857 C861 1.393 . S
C858 H850 0.950 . S
C858 C856 1.391 . S
C858 C859 1.400 . S
C859 C858 1.400 . S
C859 C860 1.398 1_545 S
C859 C865 1.491 . S
C860 H851 0.950 . S
C860 C859 1.398 1_565 S
C860 C861 1.391 . S
C861 H849 0.950 . S
C861 C857 1.393 . S
C861 C860 1.391 . S
C862 H852 0.950 . S
C862 C863 1.386 . S
C862 C864 1.391 . S
C863 C862 1.386 . S
C863 C867 1.393 . S
C864 H853 0.950 . S
C864 C862 1.391 . S
C864 C865 1.400 . S
C865 C859 1.491 . S
C865 C864 1.400 . S
C865 C866 1.398 . S
C866 H854 0.950 . S
C866 C865 1.398 . S
C866 C867 1.391 . S
C867 H855 0.950 . S
C867 C863 1.393 . S
C867 C866 1.391 . S
H868 C876 0.950 . S
H869 C881 0.950 . S
H870 C878 0.950 . S
H871 C880 0.950 . S
H872 C882 0.950 . S
H873 C884 0.950 . S
H874 C886 0.950 . S
H875 C887 0.950 . S
C876 H868 0.950 . S
C876 C877 1.386 . S
C876 C878 1.391 . S
C877 C876 1.386 . S
C877 C881 1.393 . S
C878 H870 0.950 . S
C878 C876 1.391 . S
C878 C879 1.400 . S
C879 C878 1.400 . S
C879 C880 1.398 . S
C879 C885 1.491 . S
C880 H871 0.950 . S
C880 C879 1.398 . S
C880 C881 1.391 . S
C881 H869 0.950 . S
C881 C877 1.393 . S
C881 C880 1.391 . S
C882 H872 0.950 . S
C882 C883 1.386 . S
C882 C884 1.391 . S
C883 C882 1.386 . S
C883 C887 1.393 . S
C884 H873 0.950 . S
C884 C882 1.391 . S
C884 C885 1.400 . S
C885 C879 1.491 . S
C885 C884 1.400 . S
C885 C886 1.398 . S
C886 H874 0.950 . S
C886 C885 1.398 . S
C886 C887 1.391 . S
C887 H875 0.950 . S
C887 C883 1.393 . S
C887 C886 1.391 . S
H888 C896 0.950 . S
H889 C901 0.950 . S
H890 C898 0.923 1_565 S
H891 C900 0.950 . S
H892 C902 0.950 . S
H893 C904 0.923 1_545 S
H894 C906 0.950 . S
H895 C907 0.950 . S
C896 H888 0.950 . S
C896 C897 1.386 . S
C896 C898 1.391 . S
C897 C896 1.386 . S
C897 C901 1.393 . S
C898 H890 0.923 1_545 S
C898 C896 1.391 . S
C898 C899 1.400 . S
C899 C898 1.400 . S
C899 C900 1.398 . S
C899 C905 1.491 1_545 S
C900 H891 0.950 . S
C900 C899 1.398 . S
C900 C901 1.391 . S
C901 H889 0.950 . S
C901 C897 1.393 . S
C901 C900 1.391 . S
C902 H892 0.950 . S
C902 C903 1.386 . S
C902 C904 1.391 . S
C903 C902 1.386 . S
C903 C907 1.393 . S
C904 H893 0.923 1_565 S
C904 C902 1.391 . S
C904 C905 1.400 . S
C905 C899 1.491 1_565 S
C905 C904 1.400 . S
C905 C906 1.398 . S
C906 H894 0.950 . S
C906 C905 1.398 . S
C906 C907 1.391 . S
C907 H895 0.950 . S
C907 C903 1.393 . S
C907 C906 1.391 . S
H908 C916 0.950 . S
H909 C921 0.950 . S
H910 C918 0.950 . S
H911 C920 0.950 . S
H912 C922 0.950 . S
H913 C924 0.950 . S
H914 C926 0.950 . S
H915 C927 0.950 . S
C916 H908 0.950 . S
C916 C917 1.386 . S
C916 C918 1.391 . S
C917 C916 1.386 . S
C917 C921 1.393 . S
C918 H910 0.950 . S
C918 C916 1.391 . S
C918 C919 1.400 . S
C919 C918 1.400 . S
C919 C920 1.398 . S
C919 C925 1.491 . S
C920 H911 0.950 . S
C920 C919 1.398 . S
C920 C921 1.391 . S
C921 H909 0.950 . S
C921 C917 1.393 . S
C921 C920 1.391 . S
C922 H912 0.950 . S
C922 C923 1.386 . S
C922 C924 1.391 . S
C923 C922 1.386 . S
C923 C927 1.393 . S
C924 H913 0.950 . S
C924 C922 1.391 . S
C924 C925 1.400 . S
C925 C919 1.491 . S
C925 C924 1.400 . S
C925 C926 1.398 . S
C926 H914 0.950 . S
C926 C925 1.398 . S
C926 C927 1.391 . S
C927 H915 0.950 . S
C927 C923 1.393 . S
C927 C926 1.391 . S
H928 C936 0.950 . S
H929 C941 0.950 . S
H930 C938 0.950 . S
H931 C940 0.950 1_455 S
H932 C942 0.950 . S
H933 C944 0.950 . S
H934 C946 0.950 1_655 S
H935 C947 0.950 . S
C936 H928 0.950 . S
C936 C937 1.386 . S
C936 C938 1.391 . S
C937 C936 1.386 . S
C937 C941 1.393 . S
C938 H930 0.950 . S
C938 C936 1.391 . S
C938 C939 1.400 . S
C939 C938 1.400 . S
C939 C940 1.398 . S
C939 C945 1.491 1_655 S
C940 H931 0.950 1_655 S
C940 C939 1.398 . S
C940 C941 1.391 . S
C941 H929 0.950 . S
C941 C937 1.393 . S
C941 C940 1.391 . S
C942 H932 0.950 . S
C942 C943 1.386 . S
C942 C944 1.391 . S
C943 C942 1.386 . S
C943 C947 1.393 . S
C944 H933 0.950 . S
C944 C942 1.391 . S
C944 C945 1.400 . S
C945 C939 1.491 1_455 S
C945 C944 1.400 . S
C945 C946 1.398 . S
C946 H934 0.950 1_455 S
C946 C945 1.398 . S
C946 C947 1.391 . S
C947 H935 0.950 . S
C947 C943 1.393 . S
C947 C946 1.391 . S
H948 C956 0.950 . S
H949 C961 0.950 . S
H950 C958 0.950 . S
H951 C960 0.950 . S
H952 C962 0.950 . S
H953 C964 0.950 . S
H954 C966 0.950 . S
H955 C967 0.950 . S
C956 H948 0.950 . S
C956 C957 1.386 . S
C956 C958 1.391 . S
C957 C956 1.386 . S
C957 C961 1.393 . S
C958 H950 0.950 . S
C958 C956 1.391 . S
C958 C959 1.400 . S
C959 C958 1.400 . S
C959 C960 1.398 . S
C959 C965 1.491 1_544 S
C960 H951 0.950 . S
C960 C959 1.398 . S
C960 C961 1.391 . S
C961 H949 0.950 . S
C961 C957 1.393 . S
C961 C960 1.391 . S
C962 H952 0.950 . S
C962 C963 1.386 . S
C962 C964 1.391 . S
C963 C962 1.386 . S
C963 C967 1.393 . S
C964 H953 0.950 . S
C964 C962 1.391 . S
C964 C965 1.400 . S
C965 C959 1.491 1_566 S
C965 C964 1.400 . S
C965 C966 1.398 . S
C966 H954 0.950 . S
C966 C965 1.398 . S
C966 C967 1.391 . S
C967 H955 0.950 . S
C967 C963 1.393 . S
C967 C966 1.391 . S
H968 C976 0.950 . S
H969 C981 0.950 . S
H970 C978 0.950 . S
H971 C980 0.950 . S
H972 C982 0.950 . S
H973 C984 0.950 . S
H974 C986 0.950 . S
H975 C987 0.950 . S
C976 H968 0.950 . S
C976 C977 1.386 . S
C976 C978 1.391 . S
C977 C976 1.386 . S
C977 C981 1.393 . S
C978 H970 0.950 . S
C978 C976 1.391 . S
C978 C979 1.400 . S
C979 C978 1.400 . S
C979 C980 1.398 . S
C979 C985 1.491 . S
C980 H971 0.950 . S
C980 C979 1.398 . S
C980 C981 1.391 . S
C981 H969 0.950 . S
C981 C977 1.393 . S
C981 C980 1.391 . S
C982 H972 0.950 . S
C982 C983 1.386 . S
C982 C984 1.391 . S
C983 C982 1.386 . S
C983 C987 1.393 . S
C984 H973 0.950 . S
C984 C982 1.391 . S
C984 C985 1.400 . S
C985 C979 1.491 . S
C985 C984 1.400 . S
C985 C986 1.398 . S
C986 H974 0.950 . S
C986 C985 1.398 . S
C986 C987 1.391 . S
C987 H975 0.950 . S
C987 C983 1.393 . S
C987 C986 1.391 . S
H988 C996 0.950 . S
H989 C1001 0.950 . S
H990 C998 0.950 1_455 S
H991 C1000 0.950 . S
H992 C1002 0.950 . S
H993 C1004 0.950 1_655 S
H994 C1006 0.950 . S
H995 C1007 0.950 . S
C996 H988 0.950 . S
C996 C997 1.386 . S
C996 C998 1.391 . S
C997 C996 1.386 . S
C997 C1001 1.393 . S
C998 H990 0.950 1_655 S
C998 C996 1.391 . S
C998 C999 1.400 . S
C999 C998 1.400 . S
C999 C1000 1.398 . S
C999 C1005 1.491 1_655 S
C1000 H991 0.950 . S
C1000 C999 1.398 . S
C1000 C1001 1.391 . S
C1001 H989 0.950 . S
C1001 C997 1.393 . S
C1001 C1000 1.391 . S
C1002 H992 0.950 . S
C1002 C1003 1.386 . S
C1002 C1004 1.391 . S
C1003 C1002 1.386 . S
C1003 C1007 1.393 . S
C1004 H993 0.950 1_455 S
C1004 C1002 1.391 . S
C1004 C1005 1.400 . S
C1005 C999 1.491 1_455 S
C1005 C1004 1.400 . S
C1005 C1006 1.398 . S
C1006 H994 0.950 . S
C1006 C1005 1.398 . S
C1006 C1007 1.391 . S
C1007 H995 0.950 . S
C1007 C1003 1.393 . S
C1007 C1006 1.391 . S
C417 C5 0.156 . S
C423 C209 0.143 . S
C437 C243 0.162 . S
C443 C39 0.156 . S
C457 C73 0.126 . S
C463 C277 0.105 . S
C477 C107 0.075 . S
C483 C311 0.071 . S
C497 C141 0.154 . S
C503 C345 0.140 . S
C517 C175 0.110 . S
C523 C379 0.130 . S
C537 C213 1.246 . S
C543 C9 1.260 . S
C557 C43 1.248 . S
C563 C247 1.257 . S
C577 C281 1.256 . S
C583 C77 1.249 . S
C597 C315 1.270 . S
C603 C111 1.248 . S
C617 C349 1.264 . S
C623 C145 1.258 . S
C637 C179 1.254 . S
C643 C383 1.251 . S
C657 C172 1.502 . S
C663 C20 1.472 . S
C677 C2 1.496 . S
C683 C54 1.484 . S
C697 C88 1.481 . S
C703 C36 1.498 . S
C717 C70 1.509 . S
C723 C122 1.467 . S
C737 C104 1.496 . S
C743 C156 1.484 . S
C757 C138 1.497 . S
C763 C190 1.484 . S
C777 C240 1.512 . S
C783 C224 1.462 . S
C797 C258 1.481 . S
C803 C274 1.499 . S
C817 C308 1.513 . S
C823 C292 1.459 . S
C837 C342 1.500 . S
C843 C326 1.476 . S
C857 C376 1.502 . S
C863 C360 1.478 . S
C877 C206 1.499 . S
C883 C394 1.482 . S
C897 C33 1.404 . S
C903 C271 1.396 . S
C917 C67 1.390 . S
C923 C305 1.405 . S
C937 C101 1.389 . S
C943 C339 1.409 . S
C957 C373 1.398 . S
C963 C135 1.402 . S
C977 C169 1.409 . S
C983 C407 1.390 . S
C997 C237 1.407 . S
C1003 C203 1.388 . S
