# Generated by pormake.
# Topology wme, (6)-cn, num edge types: 1
# Building blocks:
#     Node 0, Type 0, BuildingBlock: VOLQOD_clean_sbu_1, # of connection points: 6
#     Node 1, Type 0, BuildingBlock: VOLQOD_clean_sbu_1, # of connection points: 6
#     Node 2, Type 0, BuildingBlock: VOLQOD_clean_sbu_1, # of connection points: 6
#     Node 3, Type 0, BuildingBlock: VOLQOD_clean_sbu_1, # of connection points: 6
#     Node 4, Type 0, BuildingBlock: VOLQOD_clean_sbu_1, # of connection points: 6
#     Node 5, Type 0, BuildingBlock: VOLQOD_clean_sbu_1, # of connection points: 6
#     Node 6, Type 0, BuildingBlock: VOLQOD_clean_sbu_1, # of connection points: 6
#     Node 7, Type 0, BuildingBlock: VOLQOD_clean_sbu_1, # of connection points: 6
#     Node 8, Type 0, BuildingBlock: VOLQOD_clean_sbu_1, # of connection points: 6
#     Node 9, Type 0, BuildingBlock: VOLQOD_clean_sbu_1, # of connection points: 6
#     Node 10, Type 0, BuildingBlock: VOLQOD_clean_sbu_1, # of connection points: 6
#     Node 11, Type 0, BuildingBlock: VOLQOD_clean_sbu_1, # of connection points: 6
#     Edge 12, Type (0, 0), BuildingBlock: OJICUG_clean_linker_0, # of connection points: 2
#     Edge 13, Type (0, 0), BuildingBlock: OJICUG_clean_linker_0, # of connection points: 2
#     Edge 14, Type (0, 0), BuildingBlock: OJICUG_clean_linker_0, # of connection points: 2
#     Edge 15, Type (0, 0), BuildingBlock: OJICUG_clean_linker_0, # of connection points: 2
#     Edge 16, Type (0, 0), BuildingBlock: OJICUG_clean_linker_0, # of connection points: 2
#     Edge 17, Type (0, 0), BuildingBlock: OJICUG_clean_linker_0, # of connection points: 2
#     Edge 18, Type (0, 0), BuildingBlock: OJICUG_clean_linker_0, # of connection points: 2
#     Edge 19, Type (0, 0), BuildingBlock: OJICUG_clean_linker_0, # of connection points: 2
#     Edge 20, Type (0, 0), BuildingBlock: OJICUG_clean_linker_0, # of connection points: 2
#     Edge 21, Type (0, 0), BuildingBlock: OJICUG_clean_linker_0, # of connection points: 2
#     Edge 22, Type (0, 0), BuildingBlock: OJICUG_clean_linker_0, # of connection points: 2
#     Edge 23, Type (0, 0), BuildingBlock: OJICUG_clean_linker_0, # of connection points: 2
#     Edge 24, Type (0, 0), BuildingBlock: OJICUG_clean_linker_0, # of connection points: 2
#     Edge 25, Type (0, 0), BuildingBlock: OJICUG_clean_linker_0, # of connection points: 2
#     Edge 26, Type (0, 0), BuildingBlock: OJICUG_clean_linker_0, # of connection points: 2
#     Edge 27, Type (0, 0), BuildingBlock: OJICUG_clean_linker_0, # of connection points: 2
#     Edge 28, Type (0, 0), BuildingBlock: OJICUG_clean_linker_0, # of connection points: 2
#     Edge 29, Type (0, 0), BuildingBlock: OJICUG_clean_linker_0, # of connection points: 2
#     Edge 30, Type (0, 0), BuildingBlock: OJICUG_clean_linker_0, # of connection points: 2
#     Edge 31, Type (0, 0), BuildingBlock: OJICUG_clean_linker_0, # of connection points: 2
#     Edge 32, Type (0, 0), BuildingBlock: OJICUG_clean_linker_0, # of connection points: 2
#     Edge 33, Type (0, 0), BuildingBlock: OJICUG_clean_linker_0, # of connection points: 2
#     Edge 34, Type (0, 0), BuildingBlock: OJICUG_clean_linker_0, # of connection points: 2
#     Edge 35, Type (0, 0), BuildingBlock: OJICUG_clean_linker_0, # of connection points: 2
#     Edge 36, Type (0, 0), BuildingBlock: OJICUG_clean_linker_0, # of connection points: 2
#     Edge 37, Type (0, 0), BuildingBlock: OJICUG_clean_linker_0, # of connection points: 2
#     Edge 38, Type (0, 0), BuildingBlock: OJICUG_clean_linker_0, # of connection points: 2
#     Edge 39, Type (0, 0), BuildingBlock: OJICUG_clean_linker_0, # of connection points: 2
#     Edge 40, Type (0, 0), BuildingBlock: OJICUG_clean_linker_0, # of connection points: 2
#     Edge 41, Type (0, 0), BuildingBlock: OJICUG_clean_linker_0, # of connection points: 2
#     Edge 42, Type (0, 0), BuildingBlock: OJICUG_clean_linker_0, # of connection points: 2
#     Edge 43, Type (0, 0), BuildingBlock: OJICUG_clean_linker_0, # of connection points: 2
#     Edge 44, Type (0, 0), BuildingBlock: OJICUG_clean_linker_0, # of connection points: 2
#     Edge 45, Type (0, 0), BuildingBlock: OJICUG_clean_linker_0, # of connection points: 2
#     Edge 46, Type (0, 0), BuildingBlock: OJICUG_clean_linker_0, # of connection points: 2
#     Edge 47, Type (0, 0), BuildingBlock: OJICUG_clean_linker_0, # of connection points: 2
# Relax obj value: 0.332
# Max RMSD: 0.236
# Mean RMSD: 0.236
data_MOF--net-wme--node1-VOLQOD_clean_sbu_1--edge1-OJICUG_clean_linker_0
_symmetry_space_group_name_H-M    P1
_symmetry_Int_Tables_number       1
_symmetry_cell_setting            triclinic
loop_
_symmetry_equiv_pos_as_xyz
'x, y, z'
_cell_length_a     24.368827
_cell_length_b     24.640541
_cell_length_c     48.566289
_cell_angle_alpha  89.472421
_cell_angle_beta   90.200819
_cell_angle_gamma 119.4475
loop_
_atom_site_label
_atom_site_type_symbol
_atom_site_fract_x
_atom_site_fract_y
_atom_site_fract_z
_atom_type_partial_charge
O0 O 0.0834 0.3678 0.07847 0.0
Zn1 Zn 0.08935 0.29035 0.08612 0.0
O2 O 0.15125 0.30566 0.11564 0.0
Zn3 Zn 0.22121 0.29688 0.10177 0.0
Zn4 Zn 0.18396 0.38706 0.13148 0.0
Zn5 Zn 0.11111 0.24646 0.14473 0.0
O6 O 0.22936 0.22926 0.12121 0.0
O7 O 0.14068 0.18476 0.14552 0.0
O8 O 0.11036 0.25725 0.05167 0.0
O9 O 0.20122 0.26365 0.06423 0.0
O10 O 0.30357 0.37798 0.10077 0.0
O11 O 0.27589 0.43761 0.12449 0.0
O12 O 0.16836 0.387 0.17248 0.0
O13 O 0.00139 0.22823 0.09848 0.0
O14 O 0.12319 0.28563 0.18103 0.0
O15 O 0.01886 0.20176 0.13994 0.0
C16 C 0.1063 0.41812 0.09211 0.0
C17 C 0.18932 0.18481 0.13615 0.0
C18 C 0.31682 0.42969 0.11172 0.0
C19 C 0.15696 0.24853 0.04698 0.0
C20 C 0.14353 0.34106 0.18915 0.0
C21 C -0.01877 0.19864 0.12112 0.0
O22 O 0.14303 0.42884 0.11248 0.0
O23 O 0.72708 0.11106 0.57981 0.0
Zn24 Zn 0.81041 0.11617 0.58946 0.0
O25 O 0.85193 0.17498 0.62003 0.0
Zn26 Zn 0.93286 0.24341 0.60824 0.0
Zn27 Zn 0.80083 0.20872 0.63356 0.0
Zn28 Zn 0.86603 0.13342 0.65049 0.0
O29 O 0.00465 0.24917 0.63036 0.0
O30 O 0.9572 0.16158 0.65484 0.0
O31 O 0.86871 0.14096 0.55589 0.0
O32 O 0.9523 0.22669 0.57102 0.0
O33 O 0.93393 0.32535 0.60594 0.0
O34 O 0.84296 0.29943 0.62671 0.0
O35 O 0.7766 0.1909 0.67379 0.0
O36 O 0.78599 0.02845 0.60147 0.0
O37 O 0.82856 0.1413 0.68529 0.0
O38 O 0.82246 0.04296 0.64421 0.0
C39 C 0.69858 0.13599 0.59169 0.0
C40 C 0.00706 0.20907 0.64623 0.0
C41 C 0.89363 0.33923 0.61503 0.0
C42 C 0.92479 0.18605 0.55257 0.0
C43 C 0.79241 0.16281 0.69148 0.0
C44 C 0.79256 0.00708 0.62447 0.0
O45 O 0.72213 0.17221 0.61207 0.0
O46 O 0.55697 0.70462 0.08775 0.0
Zn47 Zn 0.63347 0.79129 0.09194 0.0
O48 O 0.61666 0.84111 0.11846 0.0
Zn49 Zn 0.62 0.91401 0.10154 0.0
Zn50 Zn 0.5361 0.79104 0.13502 0.0
Zn51 Zn 0.67712 0.86908 0.14716 0.0
O52 O 0.68204 -0.00575 0.11956 0.0
O53 O 0.73713 0.95856 0.14243 0.0
O54 O 0.66674 0.84009 0.05558 0.0
O55 O 0.65869 0.92424 0.06495 0.0
O56 O 0.53298 0.90382 0.09621 0.0
O57 O 0.4751 0.81138 0.1166 0.0
O58 O 0.53493 0.79899 0.17666 0.0
O59 O 0.69836 0.77148 0.10811 0.0
O60 O 0.63751 0.85824 0.18344 0.0
O61 O 0.72266 0.8209 0.14807 0.0
C62 C 0.51755 0.67515 0.10699 0.0
C63 C 0.73097 0.00344 0.13284 0.0
C64 C 0.47974 0.85713 0.10234 0.0
C65 C 0.67557 0.89429 0.04918 0.0
C66 C 0.58159 0.82902 0.19265 0.0
C67 C 0.72709 0.78421 0.13115 0.0
O68 O 0.50966 0.70332 0.12708 0.0
O69 O 0.84261 0.5672 0.58438 0.0
Zn70 Zn 0.83357 0.6444 0.58764 0.0
O71 O 0.77366 0.63402 0.61733 0.0
Zn72 Zn 0.7029 0.64054 0.60297 0.0
Zn73 Zn 0.74257 0.55546 0.63591 0.0
Zn74 Zn 0.81566 0.69642 0.64448 0.0
O75 O 0.69415 0.70911 0.62083 0.0
O76 O 0.78584 0.7577 0.64288 0.0
O77 O 0.81059 0.6727 0.55175 0.0
O78 O 0.72267 0.67163 0.56489 0.0
O79 O 0.62196 0.55753 0.60279 0.0
O80 O 0.65329 0.49869 0.62561 0.0
O81 O 0.74951 0.55976 0.67739 0.0
O82 O 0.92245 0.70879 0.59818 0.0
O83 O 0.80331 0.66205 0.68214 0.0
O84 O 0.90777 0.73877 0.63906 0.0
C85 C 0.83155 0.52751 0.60359 0.0
C86 C 0.73561 0.75559 0.63413 0.0
C87 C 0.61132 0.50522 0.61273 0.0
C88 C 0.76508 0.68333 0.54707 0.0
C89 C 0.77761 0.60759 0.69247 0.0
C90 C 0.94415 0.73978 0.62019 0.0
O91 O 0.79634 0.52139 0.62398 0.0
O92 O 0.2012 0.83498 0.07999 0.0
Zn93 Zn 0.11691 0.827 0.09091 0.0
O94 O 0.07811 0.76747 0.12171 0.0
Zn95 Zn -0.00042 0.69506 0.1106 0.0
Zn96 Zn 0.13508 0.74086 0.13508 0.0
Zn97 Zn 0.06011 0.8049 0.15192 0.0
O98 O 0.92502 0.6816 0.13332 0.0
O99 O -0.032 0.77224 0.15501 0.0
O100 O 0.05603 0.80145 0.05823 0.0
O101 O -0.02371 0.71277 0.07403 0.0
O102 O 0.00943 0.61886 0.10539 0.0
O103 O 0.10672 0.65632 0.12168 0.0
O104 O 0.15092 0.74836 0.17613 0.0
O105 O 0.1393 0.91333 0.10355 0.0
O106 O 0.09667 0.79572 0.18691 0.0
O107 O 0.10108 0.89565 0.1461 0.0
C108 C 0.23629 0.82139 0.09466 0.0
C109 C 0.9198 0.72212 0.14747 0.0
C110 C 0.05821 0.61375 0.10989 0.0
C111 C 0.00077 0.75467 0.05554 0.0
C112 C 0.13259 0.77405 0.19365 0.0
C113 C 0.13117 0.9329 0.12654 0.0
O114 O 0.21715 0.79017 0.11688 0.0
O115 O 0.37123 0.22973 0.58916 0.0
Zn116 Zn 0.29438 0.14283 0.59341 0.0
O117 O 0.30993 0.09134 0.61995 0.0
Zn118 Zn 0.30879 0.02055 0.60243 0.0
Zn119 Zn 0.38885 0.14213 0.63724 0.0
Zn120 Zn 0.24885 0.06033 0.64839 0.0
O121 O 0.2465 0.93783 0.61955 0.0
O122 O 0.19056 -0.02891 0.64293 0.0
O123 O 0.26098 0.096 0.55696 0.0
O124 O 0.27035 0.01214 0.56586 0.0
O125 O 0.39755 0.03522 0.59663 0.0
O126 O 0.45114 0.12524 0.61883 0.0
O127 O 0.38918 0.13277 0.67878 0.0
O128 O 0.2296 0.16134 0.60986 0.0
O129 O 0.28694 0.0705 0.68515 0.0
O130 O 0.20183 0.10678 0.64894 0.0
C131 C 0.40894 0.25885 0.60884 0.0
C132 C 0.19706 0.92724 0.63277 0.0
C133 C 0.44936 0.0827 0.60355 0.0
C134 C 0.25286 0.04243 0.55031 0.0
C135 C 0.34244 0.1013 0.69463 0.0
C136 C 0.19892 0.14557 0.63243 0.0
O137 O 0.41472 0.23012 0.62953 0.0
O138 O 0.58713 0.84207 0.41905 0.0
Zn139 Zn 0.66427 0.83556 0.40931 0.0
O140 O 0.64593 0.77759 0.37832 0.0
Zn141 Zn 0.6575 0.70786 0.38936 0.0
Zn142 Zn 0.56118 0.74518 0.36481 0.0
Zn143 Zn 0.70185 0.82024 0.34825 0.0
O144 O 0.72337 0.70251 0.36729 0.0
O145 O 0.76518 0.79207 0.34418 0.0
O146 O 0.69738 0.80864 0.44249 0.0
O147 O 0.69319 0.72231 0.42668 0.0
O148 O 0.57688 0.62602 0.39059 0.0
O149 O 0.51159 0.65398 0.37121 0.0
O150 O 0.55528 0.76337 0.32453 0.0
O151 O 0.72782 0.92362 0.39807 0.0
O152 O 0.65658 0.81223 0.31328 0.0
O153 O 0.74795 0.91081 0.35489 0.0
C154 C 0.53412 0.81915 0.40689 0.0
C155 C 0.76672 0.74356 0.35222 0.0
C156 C 0.52259 0.61312 0.38196 0.0
C157 C 0.70725 0.76255 0.4454 0.0
C158 C 0.59907 0.79108 0.30692 0.0
C159 C 0.75466 0.94595 0.37505 0.0
O160 O 0.5206 0.78338 0.38628 0.0
O161 O 0.67345 0.55869 0.91482 0.0
Zn162 Zn 0.76069 0.63561 0.91257 0.0
O163 O 0.81294 0.62485 0.88467 0.0
Zn164 Zn 0.88769 0.62812 0.90009 0.0
Zn165 Zn 0.76514 0.54757 0.8664 0.0
Zn166 Zn 0.83819 0.68793 0.8574 0.0
O167 O -0.03217 0.69513 0.88264 0.0
O168 O 0.92796 0.74891 0.86183 0.0
O169 O 0.80925 0.66386 0.94902 0.0
O170 O 0.89616 0.66061 0.9377 0.0
O171 O 0.88038 0.54216 0.9024 0.0
O172 O 0.7864 0.48595 0.88274 0.0
O173 O 0.77542 0.55189 0.82486 0.0
O174 O 0.73883 0.70109 0.89969 0.0
O175 O 0.82816 0.65447 0.82011 0.0
O176 O 0.78661 0.72955 0.85912 0.0
C177 C 0.64569 0.52384 0.89426 0.0
C178 C -0.02528 0.74404 0.87036 0.0
C179 C 0.83357 0.48975 0.89579 0.0
C180 C 0.86472 0.67364 0.95457 0.0
C181 C 0.80247 0.60048 0.80974 0.0
C182 C 0.74984 0.73138 0.8771 0.0
O183 O 0.67619 0.51974 0.87397 0.0
O184 O 0.11039 0.72628 0.41615 0.0
Zn185 Zn 0.1194 0.81147 0.40728 0.0
O186 O 0.18563 0.85653 0.37971 0.0
Zn187 Zn 0.25663 0.93091 0.39478 0.0
Zn188 Zn 0.21231 0.80154 0.36492 0.0
Zn189 Zn 0.15502 0.88337 0.34955 0.0
O190 O 0.27393 0.01076 0.37531 0.0
O191 O 0.18451 -0.02672 0.3518 0.0
O192 O 0.13689 0.86512 0.44187 0.0
O193 O 0.23122 0.94486 0.43135 0.0
O194 O 0.33249 0.91885 0.40057 0.0
O195 O 0.29578 0.82608 0.38085 0.0
O196 O 0.21312 0.79827 0.32317 0.0
O197 O 0.03567 0.79116 0.39041 0.0
O198 O 0.18135 0.86657 0.31385 0.0
O199 O 0.06202 0.83769 0.34939 0.0
C200 C 0.12458 0.69357 0.4006 0.0
C201 C 0.23433 0.01898 0.36122 0.0
C202 C 0.33765 0.87129 0.39457 0.0
C203 C 0.1843 0.91817 0.44746 0.0
C204 C 0.20065 0.82991 0.30594 0.0
C205 C 0.0206 0.803 0.36684 0.0
O206 O 0.15849 0.71617 0.37923 0.0
O207 O 0.34178 0.10073 0.91928 0.0
Zn208 Zn 0.26288 0.10436 0.90994 0.0
O209 O 0.27858 0.16249 0.87879 0.0
Zn210 Zn 0.26565 0.23063 0.89018 0.0
Zn211 Zn 0.36304 0.19765 0.86455 0.0
Zn212 Zn 0.22199 0.11955 0.84917 0.0
O213 O 0.20149 0.23784 0.86737 0.0
O214 O 0.16002 0.14929 0.84416 0.0
O215 O 0.22892 0.12854 0.94324 0.0
O216 O 0.22768 0.21264 0.92712 0.0
O217 O 0.34587 0.31247 0.89259 0.0
O218 O 0.41078 0.28918 0.87006 0.0
O219 O 0.36832 0.17779 0.82461 0.0
O220 O 0.20043 0.01609 0.89934 0.0
O221 O 0.26663 0.12534 0.81438 0.0
O222 O 0.17486 0.02916 0.85694 0.0
C223 C 0.39486 0.12643 0.90706 0.0
C224 C 0.15881 0.19788 0.85191 0.0
C225 C 0.39955 0.32792 0.88242 0.0
C226 C 0.2157 0.17235 0.94595 0.0
C227 C 0.32403 0.14739 0.80763 0.0
C228 C 0.17074 -0.00609 0.87698 0.0
O229 O 0.40652 0.16247 0.88639 0.0
O230 O 0.24682 0.38088 0.41077 0.0
Zn231 Zn 0.1598 0.30433 0.4081 0.0
O232 O 0.10852 0.31672 0.38013 0.0
Zn233 Zn 0.03332 0.31238 0.39539 0.0
Zn234 Zn 0.15692 0.39545 0.36258 0.0
Zn235 Zn 0.08458 0.25575 0.35241 0.0
O236 O 0.95377 0.2457 0.37778 0.0
O237 O -0.00508 0.19374 0.35698 0.0
O238 O 0.11101 0.27492 0.44446 0.0
O239 O 0.02414 0.27828 0.43297 0.0
O240 O 0.04064 0.39822 0.39839 0.0
O241 O 0.13617 0.45579 0.3801 0.0
O242 O 0.14587 0.39463 0.32112 0.0
O243 O 0.18133 0.23923 0.39523 0.0
O244 O 0.09389 0.29239 0.31539 0.0
O245 O 0.13682 0.21421 0.35398 0.0
C246 C 0.27551 0.41678 0.3904 0.0
C247 C 0.94767 0.19741 0.36561 0.0
C248 C 0.08845 0.45108 0.39289 0.0
C249 C 0.05548 0.26485 0.44995 0.0
C250 C 0.11875 0.34733 0.30559 0.0
C251 C 0.17198 0.21066 0.37248 0.0
O252 O 0.24593 0.42217 0.3699 0.0
O253 O 0.81435 0.21394 0.91496 0.0
Zn254 Zn 0.80718 0.13011 0.90595 0.0
O255 O 0.74128 0.08595 0.87855 0.0
Zn256 Zn 0.66982 0.0127 0.89424 0.0
Zn257 Zn 0.71669 0.14224 0.86293 0.0
Zn258 Zn 0.77097 0.05775 0.84904 0.0
O259 O 0.64949 0.93255 0.87515 0.0
O260 O 0.74022 0.96775 0.8528 0.0
O261 O 0.79069 0.07539 0.94049 0.0
O262 O 0.69537 -0.00297 0.93065 0.0
O263 O 0.59616 0.02749 0.9002 0.0
O264 O 0.6338 0.11963 0.87904 0.0
O265 O 0.7151 0.144 0.82104 0.0
O266 O 0.89077 0.15187 0.88874 0.0
O267 O 0.74404 0.07336 0.81298 0.0
O268 O 0.86404 0.10334 0.8485 0.0
C269 C 0.80324 0.24837 0.89873 0.0
C270 C 0.68908 0.92297 0.86202 0.0
C271 C 0.59194 0.07543 0.89351 0.0
C272 C 0.74293 0.0226 0.9464 0.0
C273 C 0.72581 0.11069 0.80438 0.0
C274 C 0.90561 0.13929 0.86544 0.0
O275 O 0.77223 0.22773 0.87656 0.0
C276 C 0.14049 0.02035 0.15516 0.0
C277 C 0.15611 4e-05 0.13095 0.0
H278 H 0.14066 0.09625 0.17614 0.0
C279 C 0.19383 0.0442 0.111 0.0
H280 H 0.11247 -0.01228 0.17122 0.0
C281 C 0.21119 0.10685 0.11421 0.0
C282 C 0.19033 0.12584 0.13724 0.0
H283 H 0.2076 0.03008 0.09239 0.0
H284 H 0.23635 0.13925 0.0976 0.0
C285 C 0.15719 0.08264 0.1582 0.0
C286 C 0.15801 0.21927 0.62342 0.0
C287 C 0.15785 0.1716 0.63954 0.0
H288 H 0.11132 0.27099 0.6138 0.0
C289 C 0.1161 0.1471 0.66195 0.0
H290 H 0.19074 0.24021 0.60646 0.0
C291 C 0.0708 0.16498 0.66629 0.0
C292 C 0.06668 0.20783 0.64836 0.0
H293 H 0.11577 0.1113 0.67518 0.0
H294 H 0.03604 0.1417 0.68236 0.0
C295 C 0.11305 0.23761 0.62794 0.0
C296 C 0.82952 0.08132 0.15466 0.0
C297 C 0.78724 0.06507 0.13264 0.0
H298 H 0.92405 0.13683 0.16831 0.0
C299 C 0.80643 0.09988 0.10805 0.0
H300 H 0.81551 0.05501 0.1738 0.0
C301 C 0.86925 0.14611 0.10457 0.0
C302 C 0.91312 0.15807 0.12575 0.0
H303 H 0.77459 0.08754 0.09068 0.0
H304 H 0.8841 0.16958 0.0848 0.0
C305 C 0.89184 0.12764 0.15131 0.0
C306 C 0.71541 0.83409 0.61091 0.0
C307 C 0.73303 0.81365 0.63471 0.0
H308 H 0.72162 0.91239 0.58865 0.0
C309 C 0.76236 0.85512 0.65638 0.0
H310 H 0.69338 0.80291 0.59377 0.0
C311 C 0.77869 0.91741 0.65346 0.0
C312 C 0.76668 0.93953 0.62863 0.0
H313 H 0.77639 0.84023 0.6749 0.0
H314 H 0.80385 0.94874 0.67017 0.0
C315 C 0.73247 0.89687 0.60781 0.0
C316 C 0.81711 0.69593 0.126 0.0
C317 C 0.85879 0.7208 0.14835 0.0
H318 H 0.7433 0.69756 0.10263 0.0
C319 C 0.85003 0.75865 0.16722 0.0
H320 H 0.82299 0.66696 0.11097 0.0
C321 C 0.80481 0.77658 0.16233 0.0
C322 C 0.76774 0.75729 0.13835 0.0
H323 H 0.88143 0.77834 0.18464 0.0
H324 H 0.80166 0.80857 0.17654 0.0
C325 C 0.77216 0.71437 0.12094 0.0
C326 C 0.05576 0.7918 0.60276 0.0
C327 C 0.01275 0.77796 0.62447 0.0
H328 H 0.15072 0.85001 0.58879 0.0
C329 C 0.03553 0.80357 0.65056 0.0
H330 H 0.03969 0.77196 0.58255 0.0
C331 C 0.09869 0.84724 0.65415 0.0
C332 C 0.14036 0.86592 0.6318 0.0
H333 H 0.00398 0.79258 0.66795 0.0
H334 H 0.11391 0.87018 0.67386 0.0
C335 C 0.11943 0.8356 0.60643 0.0
C336 C 0.90621 0.73152 0.37603 0.0
C337 C 0.95375 0.77791 0.35967 0.0
H338 H 0.80811 0.68174 0.38559 0.0
C339 C 0.9369 0.80245 0.33698 0.0
H340 H 0.91775 0.7107 0.39325 0.0
C341 C 0.87411 0.78582 0.33252 0.0
C342 C 0.82716 0.74399 0.35053 0.0
H343 H -0.02754 0.83746 0.32364 0.0
H344 H 0.86295 0.80915 0.31623 0.0
C345 C 0.84327 0.71423 0.37134 0.0
C346 C 0.05098 0.84074 0.84686 0.0
C347 C 0.03618 0.80066 0.86962 0.0
H348 H 0.10552 0.93315 0.8313 0.0
C349 C 0.07203 0.82201 0.89378 0.0
H350 H 0.02366 0.82506 0.82806 0.0
C351 C 0.11829 0.88465 0.89598 0.0
C352 C 0.12922 0.92617 0.87393 0.0
H353 H 0.06061 0.79186 0.91171 0.0
H354 H 0.14283 0.90113 0.91536 0.0
C355 C 0.09733 0.90282 0.84892 0.0
C356 C 0.2358 0.16125 0.38811 0.0
C357 C 0.2005 0.17075 0.36756 0.0
H358 H 0.27662 0.10598 0.40174 0.0
C359 C 0.18949 0.13884 0.34252 0.0
H360 H 0.24599 0.18589 0.40745 0.0
C361 C 0.20753 0.09376 0.33921 0.0
C362 C 0.23727 0.07996 0.36075 0.0
H363 H 0.16369 0.14599 0.326 0.0
H364 H 0.19397 0.0664 0.32055 0.0
C365 C 0.2543 0.11623 0.38468 0.0
C366 C 0.05218 0.15673 0.83157 0.0
C367 C 0.09895 0.19846 0.84946 0.0
H368 H 0.95391 0.10505 0.8227 0.0
C369 C 0.0828 0.22873 0.86966 0.0
H370 H 0.06342 0.13314 0.81568 0.0
C371 C 0.01986 0.21161 0.87412 0.0
C372 C -0.02759 0.16488 0.85812 0.0
H373 H 0.11783 0.26133 0.88374 0.0
H374 H 0.00824 0.23262 0.891 0.0
C375 C -0.01062 0.14022 0.83581 0.0
C376 C 0.85183 0.1184 0.38997 0.0
C377 C 0.88691 0.13987 0.36553 0.0
H378 H 0.78254 0.03909 0.41247 0.0
C379 C 0.87235 0.09938 0.34326 0.0
H380 H 0.8631 0.14883 0.40755 0.0
C381 C 0.82692 0.03701 0.34605 0.0
C382 C 0.79573 0.01375 0.37132 0.0
H383 H 0.89914 0.11509 0.32428 0.0
H384 H 0.81887 0.00648 0.32878 0.0
C385 C 0.80657 0.05548 0.39291 0.0
C386 C 0.73024 0.80048 0.84568 0.0
C387 C 0.72096 0.77081 0.87147 0.0
H388 H 0.72485 0.87135 0.82213 0.0
C389 C 0.68714 0.78212 0.89189 0.0
H390 H 0.75468 0.7917 0.82922 0.0
C391 C 0.66878 0.8271 0.88749 0.0
C392 C 0.68445 0.86137 0.86272 0.0
H393 H 0.67832 0.75919 0.91181 0.0
H394 H 0.64792 0.83913 0.90438 0.0
C395 C 0.71234 0.84547 0.84139 0.0
C396 C 0.014 0.50033 0.09919 0.0
C397 C 0.06384 0.56191 0.09843 0.0
H398 H -0.01118 0.40381 0.09677 0.0
C399 C 0.12309 0.57448 0.08855 0.0
H400 H -0.03216 0.48989 0.10648 0.0
C401 C 0.13464 0.52608 0.08266 0.0
C402 C 0.08706 0.46443 0.08644 0.0
H403 H 0.16185 0.62188 0.08704 0.0
H404 H 0.18226 0.5368 0.07762 0.0
C405 C 0.02576 0.45142 0.09329 0.0
C406 C 0.61883 0.16696 0.58301 0.0
C407 C 0.634 0.11912 0.58429 0.0
H408 H 0.54744 0.19212 0.58795 0.0
C409 C 0.58563 0.05684 0.58652 0.0
H410 H 0.65558 0.21525 0.58133 0.0
C411 C 0.52326 0.0434 0.59067 0.0
C412 C 0.50969 0.09237 0.5927 0.0
H413 H 0.59677 0.01941 0.58793 0.0
H414 H 0.48707 -0.00427 0.59464 0.0
C415 C 0.55718 0.15371 0.58718 0.0
C416 C 0.45313 0.57377 0.08238 0.0
C417 C 0.47838 0.60689 0.10681 0.0
H418 H 0.38061 0.48861 0.06484 0.0
C419 C 0.4588 0.57561 0.13226 0.0
H420 H 0.46765 0.59699 0.06255 0.0
C421 C 0.40977 0.51458 0.13353 0.0
C422 C 0.38004 0.48347 0.10939 0.0
H423 H 0.47845 0.59979 0.15141 0.0
H424 H 0.39193 0.49328 0.15351 0.0
C425 C 0.40378 0.51195 0.08369 0.0
C426 C 0.88152 0.47865 0.63051 0.0
C427 C 0.86423 0.49107 0.60457 0.0
H428 H 0.90687 0.4206 0.65394 0.0
C429 C 0.87273 0.46345 0.58105 0.0
H430 H 0.87688 0.50072 0.64889 0.0
C431 C 0.89109 0.41804 0.58403 0.0
C432 C 0.90131 0.40098 0.61044 0.0
H433 H 0.86012 0.47291 0.56087 0.0
H434 H 0.89116 0.39215 0.56613 0.0
C435 C 0.89966 0.4337 0.63343 0.0
C436 C 0.41142 0.90536 0.09397 0.0
C437 C 0.42113 0.85381 0.09249 0.0
H438 H 0.34222 0.93539 0.09516 0.0
C439 C 0.37123 0.79571 0.08466 0.0
H440 H 0.44946 0.95059 0.09995 0.0
C441 C 0.31101 0.78756 0.08126 0.0
C442 C 0.29967 0.83721 0.08586 0.0
H443 H 0.37794 0.75552 0.083 0.0
H444 H 0.27218 0.74099 0.07777 0.0
C445 C 0.35048 0.89691 0.09091 0.0
C446 C 0.52545 0.42195 0.58483 0.0
C447 C 0.54895 0.45013 0.61042 0.0
H448 H 0.46098 0.33745 0.56403 0.0
C449 C 0.51888 0.41877 0.63466 0.0
H450 H 0.5488 0.44553 0.56592 0.0
C451 C 0.46929 0.35802 0.63362 0.0
C452 C 0.44942 0.32708 0.60832 0.0
H453 H 0.53647 0.43987 0.65456 0.0
H454 H 0.44917 0.33384 0.65287 0.0
C455 C 0.47555 0.36035 0.58376 0.0
C456 C 0.45215 0.91259 0.40539 0.0
C457 C 0.38965 0.86366 0.40551 0.0
H458 H 0.54957 0.93631 0.40665 0.0
C459 C 0.37664 0.80349 0.41338 0.0
H460 H 0.46299 0.95937 0.39958 0.0
C461 C 0.42539 0.79065 0.41772 0.0
C462 C 0.48788 0.83779 0.41437 0.0
H463 H 0.32858 0.76526 0.41427 0.0
H464 H 0.41418 0.74273 0.42111 0.0
C465 C 0.50141 0.89956 0.40975 0.0
C466 C 0.54849 0.47182 0.86671 0.0
C467 C 0.57676 0.48611 0.89288 0.0
H468 H 0.46823 0.40975 0.84304 0.0
C469 C 0.54006 0.45711 0.9163 0.0
H470 H 0.57548 0.4946 0.84835 0.0
C471 C 0.4778 0.40903 0.91315 0.0
C472 C 0.45257 0.39026 0.88664 0.0
H473 H 0.56089 0.46765 0.93665 0.0
H474 H 0.45173 0.38276 0.93113 0.0
C475 C 0.48704 0.42386 0.86361 0.0
C476 C 0.04817 0.57972 0.40179 0.0
C477 C 0.10812 0.62964 0.40795 0.0
H478 H -0.00576 0.48204 0.3924 0.0
C479 C 0.15781 0.61801 0.41351 0.0
H480 H 0.00968 0.58824 0.39681 0.0
C481 C 0.14951 0.55839 0.41048 0.0
C482 C 0.09124 0.50925 0.40192 0.0
H483 H 0.20459 0.65611 0.41789 0.0
H484 H 0.18985 0.55152 0.41319 0.0
C485 C 0.03957 0.51936 0.39902 0.0
C486 C 0.55416 0.14536 0.91016 0.0
C487 C 0.54092 0.08437 0.90438 0.0
H488 H 0.51651 0.20612 0.91683 0.0
C489 C 0.47892 0.035 0.90685 0.0
H490 H 0.60195 0.18404 0.90918 0.0
C491 C 0.42979 0.04783 0.91167 0.0
C492 C 0.443 0.10988 0.91414 0.0
H493 H 0.46797 -0.01244 0.9028 0.0
H494 H 0.38152 0.01021 0.91058 0.0
C495 C 0.50556 0.158 0.915 0.0
C496 C 0.37964 0.48127 0.41367 0.0
C497 C 0.34447 0.45474 0.38974 0.0
H498 H 0.46706 0.55383 0.4298 0.0
C499 C 0.37443 0.47156 0.36393 0.0
H500 H 0.35747 0.46877 0.43376 0.0
C501 C 0.43623 0.51948 0.36172 0.0
C502 C 0.46924 0.55056 0.3853 0.0
H503 H 0.34862 0.45076 0.34518 0.0
H504 H 0.45648 0.5356 0.34143 0.0
C505 C 0.44214 0.52941 0.41142 0.0
C506 C 0.88441 0.42276 0.90022 0.0
C507 C 0.83168 0.43096 0.90346 0.0
H508 H 0.91669 0.35603 0.89645 0.0
C509 C 0.77346 0.3797 0.91084 0.0
H510 H 0.92967 0.46173 0.89444 0.0
C511 C 0.7665 0.3203 0.91249 0.0
C512 C 0.81751 0.31104 0.9067 0.0
H513 H 0.73228 0.38503 0.91373 0.0
H514 H 0.71996 0.28087 0.91611 0.0
C515 C 0.87716 0.36265 0.90156 0.0
C516 C 0.07445 0.30384 0.26009 0.0
C517 C 0.1195 0.35405 0.27543 0.0
H518 H 0.04707 0.26097 0.22087 0.0
C519 C 0.16899 0.40493 0.26161 0.0
H520 H 0.03517 0.26449 0.2701 0.0
C521 C 0.17582 0.40292 0.233 0.0
C522 C 0.13344 0.34987 0.21823 0.0
H523 H 0.20437 0.44419 0.27303 0.0
H524 H 0.21593 0.44091 0.22278 0.0
C525 C 0.08147 0.30167 0.23188 0.0
C526 C 0.75867 0.19209 0.73521 0.0
C527 C 0.76345 0.14776 0.71895 0.0
H528 H 0.74211 0.21489 0.77584 0.0
C529 C 0.7441 0.08815 0.72978 0.0
H530 H 0.77285 0.23819 0.72705 0.0
C531 C 0.72538 0.07444 0.75708 0.0
C532 C 0.72669 0.12042 0.77435 0.0
H533 H 0.74586 0.05269 0.71738 0.0
H534 H 0.71385 0.02887 0.76513 0.0
C535 C 0.74064 0.17857 0.76295 0.0
C536 C 0.6218 0.87127 0.23876 0.0
C537 C 0.57408 0.8247 0.22279 0.0
H538 H 0.66684 0.89642 0.2779 0.0
C539 C 0.52788 0.76997 0.23576 0.0
H540 H 0.65751 0.9143 0.22939 0.0
C541 C 0.53317 0.75979 0.2639 0.0
C542 C 0.58497 0.80404 0.27898 0.0
H543 H 0.49075 0.73325 0.22384 0.0
H544 H 0.49953 0.71586 0.27331 0.0
C545 C 0.62744 0.86086 0.26648 0.0
C546 C 0.74635 0.54653 0.73707 0.0
C547 C 0.78562 0.60135 0.7222 0.0
H548 H 0.72094 0.50273 0.77701 0.0
C549 C 0.83437 0.65199 0.73599 0.0
H550 H 0.7089 0.50655 0.72682 0.0
C551 C 0.84183 0.64946 0.76418 0.0
C552 C 0.80043 0.59645 0.77948 0.0
H553 H 0.8666 0.69433 0.72506 0.0
H554 H 0.87905 0.69021 0.77413 0.0
C555 C 0.75358 0.54415 0.76566 0.0
C556 C 0.16559 0.74538 0.23818 0.0
C557 C 0.16097 0.78931 0.22116 0.0
H558 H 0.18278 0.72412 0.27928 0.0
C559 C 0.18108 0.84947 0.23101 0.0
H560 H 0.15098 0.69893 0.23075 0.0
C561 C 0.20043 0.86424 0.2581 0.0
C562 C 0.19911 0.81883 0.27613 0.0
H563 H 0.1796 0.88467 0.21796 0.0
H564 H 0.21254 0.91024 0.26539 0.0
C565 C 0.18431 0.76001 0.26574 0.0
C566 C 0.39019 0.17476 0.76469 0.0
C567 C 0.33761 0.13235 0.78014 0.0
H568 H 0.43372 0.19781 0.72472 0.0
C569 C 0.29443 0.07509 0.76853 0.0
H570 H 0.42447 0.21892 0.77341 0.0
C571 C 0.30032 0.0625 0.74124 0.0
C572 C 0.34904 0.10729 0.72479 0.0
H573 H 0.25442 0.04079 0.78028 0.0
H574 H 0.26415 0.01923 0.73253 0.0
C575 C 0.39576 0.1624 0.737 0.0
C576 C 0.15501 0.21251 0.9717 0.0
C577 C 0.1897 0.18058 0.97187 0.0
H578 H 0.11622 0.2584 0.99564 0.0
C579 C 0.20562 0.164 0.99706 0.0
H580 H 0.14154 0.22523 0.95244 0.0
C581 C 0.19191 0.18377 0.02162 0.0
C582 C 0.16111 0.21944 0.02135 0.0
H583 H 0.23219 0.13938 0.99776 0.0
H584 H 0.20756 0.17314 0.04082 0.0
C585 C 0.14028 0.23134 0.99632 0.0
C586 C 0.95807 0.19733 0.47656 0.0
C587 C 0.0241 0.2355 0.4761 0.0
H588 H 0.87465 0.1503 0.50126 0.0
C589 C 0.05766 0.24945 0.50086 0.0
H590 H 0.93117 0.18511 0.4576 0.0
C591 C 0.02511 0.22999 0.52584 0.0
C592 C 0.9587 0.19538 0.52635 0.0
H593 H 0.10846 0.27849 0.501 0.0
H594 H 0.05179 0.24423 0.54484 0.0
C595 C 0.92566 0.17696 0.50147 0.0
C596 C 0.6888 0.89172 0.9983 0.0
C597 C 0.70536 0.92495 0.02296 0.0
H598 H 0.68829 0.89755 0.95431 0.0
C599 C 0.74384 -0.00971 0.02212 0.0
H600 H 0.6592 0.8415 0.99843 0.0
C601 C 0.76131 0.02237 0.99699 0.0
C602 C 0.73942 -0.0104 0.97236 0.0
H603 H 0.75769 0.01689 0.041 0.0
H604 H 0.78761 0.07285 0.99692 0.0
C605 C 0.70522 0.92391 0.97316 0.0
C606 C 0.7333 0.7507 0.52108 0.0
C607 C 0.76065 0.71188 0.52102 0.0
H608 H 0.69611 0.79852 0.49706 0.0
C609 C 0.77803 0.69707 0.49597 0.0
H610 H 0.72038 0.76361 0.54027 0.0
C611 C 0.76347 0.71659 0.47125 0.0
C612 C 0.73242 0.75212 0.47131 0.0
H613 H 0.79939 0.66755 0.49543 0.0
H614 H 0.77443 0.70194 0.45205 0.0
C615 C 0.71979 0.77112 0.49643 0.0
C616 C 0.96213 0.74437 0.98008 0.0
C617 C 0.89658 0.70346 0.98042 0.0
H618 H 0.04663 0.79413 0.00373 0.0
C619 C 0.86451 0.68723 0.0056 0.0
H620 H -0.01219 0.75827 0.96078 0.0
C621 C 0.89843 0.70727 0.0302 0.0
C622 C -0.03536 0.74472 0.02987 0.0
H623 H 0.81408 0.656 0.00635 0.0
H624 H 0.87312 0.69126 0.04952 0.0
C625 C -0.00417 0.76532 0.00459 0.0
C626 C 0.16686 0.91636 0.49818 0.0
C627 C 0.18826 0.95012 0.47352 0.0
H628 H 0.17109 0.92011 0.54218 0.0
C629 C 0.2223 0.0158 0.47433 0.0
H630 H 0.14068 0.86588 0.49811 0.0
C631 C 0.239 0.047 0.49949 0.0
C632 C 0.22288 0.01278 0.52413 0.0
H633 H 0.23885 0.04294 0.45548 0.0
H634 H 0.26844 0.09723 0.4996 0.0
C635 C 0.1846 0.94746 0.52331 0.0
loop_
_geom_bond_atom_site_label_1
_geom_bond_atom_site_label_2
_geom_bond_distance
_geom_bond_site_symmetry_2
_ccdc_geom_bond_type
O0 Zn1 1.953 . S
O0 C16 1.225 . S
Zn1 O0 1.953 . S
Zn1 O2 1.949 . S
Zn1 O8 1.919 . S
Zn1 O13 1.924 . S
O2 Zn1 1.949 . S
O2 Zn3 1.923 . S
O2 Zn4 1.950 . S
O2 Zn5 1.945 . S
Zn3 O2 1.923 . S
Zn3 O6 1.933 . S
Zn3 O9 1.941 . S
Zn3 O10 1.965 . S
Zn4 O2 1.950 . S
Zn4 O11 1.938 . S
Zn4 O12 1.906 . S
Zn4 O22 1.953 . S
Zn5 O2 1.945 . S
Zn5 O7 1.932 . S
Zn5 O14 1.977 . S
Zn5 O15 1.910 . S
O6 Zn3 1.933 . S
O6 C17 1.226 . S
O7 Zn5 1.932 . S
O7 C17 1.307 . S
O8 Zn1 1.919 . S
O8 C19 1.253 . S
O9 Zn3 1.941 . S
O9 C19 1.283 . S
O10 Zn3 1.965 . S
O10 C18 1.303 . S
O11 Zn4 1.938 . S
O11 C18 1.247 . S
O12 Zn4 1.906 . S
O12 C20 1.304 . S
O13 Zn1 1.924 . S
O13 C21 1.311 . S
O14 Zn5 1.977 . S
O14 C20 1.272 . S
O15 Zn5 1.910 . S
O15 C21 1.231 . S
C16 O0 1.225 . S
C16 O22 1.298 . S
C17 O6 1.226 . S
C17 O7 1.307 . S
C18 O10 1.303 . S
C18 O11 1.247 . S
C19 O8 1.253 . S
C19 O9 1.283 . S
C20 O12 1.304 . S
C20 O14 1.272 . S
C21 O13 1.311 . S
C21 O15 1.231 . S
O22 Zn4 1.953 . S
O22 C16 1.298 . S
O23 Zn24 1.953 . S
O23 C39 1.225 . S
Zn24 O23 1.953 . S
Zn24 O25 1.949 . S
Zn24 O31 1.919 . S
Zn24 O36 1.924 . S
O25 Zn24 1.949 . S
O25 Zn26 1.923 . S
O25 Zn27 1.950 . S
O25 Zn28 1.945 . S
Zn26 O25 1.923 . S
Zn26 O29 1.933 1_655 S
Zn26 O32 1.941 . S
Zn26 O33 1.965 . S
Zn27 O25 1.950 . S
Zn27 O34 1.938 . S
Zn27 O35 1.906 . S
Zn27 O45 1.953 . S
Zn28 O25 1.945 . S
Zn28 O30 1.932 . S
Zn28 O37 1.977 . S
Zn28 O38 1.910 . S
O29 Zn26 1.933 1_455 S
O29 C40 1.226 . S
O30 Zn28 1.932 . S
O30 C40 1.307 1_655 S
O31 Zn24 1.919 . S
O31 C42 1.253 . S
O32 Zn26 1.941 . S
O32 C42 1.283 . S
O33 Zn26 1.965 . S
O33 C41 1.303 . S
O34 Zn27 1.938 . S
O34 C41 1.247 . S
O35 Zn27 1.906 . S
O35 C43 1.304 . S
O36 Zn24 1.924 . S
O36 C44 1.311 . S
O37 Zn28 1.977 . S
O37 C43 1.272 . S
O38 Zn28 1.910 . S
O38 C44 1.231 . S
C39 O23 1.225 . S
C39 O45 1.298 . S
C40 O29 1.226 . S
C40 O30 1.307 1_455 S
C41 O33 1.303 . S
C41 O34 1.247 . S
C42 O31 1.253 . S
C42 O32 1.283 . S
C43 O35 1.304 . S
C43 O37 1.272 . S
C44 O36 1.311 . S
C44 O38 1.231 . S
O45 Zn27 1.953 . S
O45 C39 1.298 . S
O46 Zn47 1.953 . S
O46 C62 1.225 . S
Zn47 O46 1.953 . S
Zn47 O48 1.949 . S
Zn47 O54 1.919 . S
Zn47 O59 1.924 . S
O48 Zn47 1.949 . S
O48 Zn49 1.923 . S
O48 Zn50 1.950 . S
O48 Zn51 1.945 . S
Zn49 O48 1.923 . S
Zn49 O52 1.933 1_565 S
Zn49 O55 1.941 . S
Zn49 O56 1.965 . S
Zn50 O48 1.950 . S
Zn50 O57 1.938 . S
Zn50 O58 1.906 . S
Zn50 O68 1.953 . S
Zn51 O48 1.945 . S
Zn51 O53 1.932 . S
Zn51 O60 1.977 . S
Zn51 O61 1.910 . S
O52 Zn49 1.933 1_545 S
O52 C63 1.226 . S
O53 Zn51 1.932 . S
O53 C63 1.307 1_565 S
O54 Zn47 1.919 . S
O54 C65 1.253 . S
O55 Zn49 1.941 . S
O55 C65 1.283 . S
O56 Zn49 1.965 . S
O56 C64 1.303 . S
O57 Zn50 1.938 . S
O57 C64 1.247 . S
O58 Zn50 1.906 . S
O58 C66 1.304 . S
O59 Zn47 1.924 . S
O59 C67 1.311 . S
O60 Zn51 1.977 . S
O60 C66 1.272 . S
O61 Zn51 1.910 . S
O61 C67 1.231 . S
C62 O46 1.225 . S
C62 O68 1.298 . S
C63 O52 1.226 . S
C63 O53 1.307 1_545 S
C64 O56 1.303 . S
C64 O57 1.247 . S
C65 O54 1.253 . S
C65 O55 1.283 . S
C66 O58 1.304 . S
C66 O60 1.272 . S
C67 O59 1.311 . S
C67 O61 1.231 . S
O68 Zn50 1.953 . S
O68 C62 1.298 . S
O69 Zn70 1.953 . S
O69 C85 1.225 . S
Zn70 O69 1.953 . S
Zn70 O71 1.949 . S
Zn70 O77 1.919 . S
Zn70 O82 1.924 . S
O71 Zn70 1.949 . S
O71 Zn72 1.923 . S
O71 Zn73 1.950 . S
O71 Zn74 1.945 . S
Zn72 O71 1.923 . S
Zn72 O75 1.933 . S
Zn72 O78 1.941 . S
Zn72 O79 1.965 . S
Zn73 O71 1.950 . S
Zn73 O80 1.938 . S
Zn73 O81 1.906 . S
Zn73 O91 1.953 . S
Zn74 O71 1.945 . S
Zn74 O76 1.932 . S
Zn74 O83 1.977 . S
Zn74 O84 1.910 . S
O75 Zn72 1.933 . S
O75 C86 1.226 . S
O76 Zn74 1.932 . S
O76 C86 1.307 . S
O77 Zn70 1.919 . S
O77 C88 1.253 . S
O78 Zn72 1.941 . S
O78 C88 1.283 . S
O79 Zn72 1.965 . S
O79 C87 1.303 . S
O80 Zn73 1.938 . S
O80 C87 1.247 . S
O81 Zn73 1.906 . S
O81 C89 1.304 . S
O82 Zn70 1.924 . S
O82 C90 1.311 . S
O83 Zn74 1.977 . S
O83 C89 1.272 . S
O84 Zn74 1.910 . S
O84 C90 1.231 . S
C85 O69 1.225 . S
C85 O91 1.298 . S
C86 O75 1.226 . S
C86 O76 1.307 . S
C87 O79 1.303 . S
C87 O80 1.247 . S
C88 O77 1.253 . S
C88 O78 1.283 . S
C89 O81 1.304 . S
C89 O83 1.272 . S
C90 O82 1.311 . S
C90 O84 1.231 . S
O91 Zn73 1.953 . S
O91 C85 1.298 . S
O92 Zn93 1.953 . S
O92 C108 1.225 . S
Zn93 O92 1.953 . S
Zn93 O94 1.949 . S
Zn93 O100 1.919 . S
Zn93 O105 1.924 . S
O94 Zn93 1.949 . S
O94 Zn95 1.923 . S
O94 Zn96 1.950 . S
O94 Zn97 1.945 . S
Zn95 O94 1.923 . S
Zn95 O98 1.933 1_455 S
Zn95 O101 1.941 . S
Zn95 O102 1.965 . S
Zn96 O94 1.950 . S
Zn96 O103 1.938 . S
Zn96 O104 1.906 . S
Zn96 O114 1.953 . S
Zn97 O94 1.945 . S
Zn97 O99 1.932 . S
Zn97 O106 1.977 . S
Zn97 O107 1.910 . S
O98 Zn95 1.933 1_655 S
O98 C109 1.226 . S
O99 Zn97 1.932 . S
O99 C109 1.307 1_455 S
O100 Zn93 1.919 . S
O100 C111 1.253 . S
O101 Zn95 1.941 . S
O101 C111 1.283 . S
O102 Zn95 1.965 . S
O102 C110 1.303 . S
O103 Zn96 1.938 . S
O103 C110 1.247 . S
O104 Zn96 1.906 . S
O104 C112 1.304 . S
O105 Zn93 1.924 . S
O105 C113 1.311 . S
O106 Zn97 1.977 . S
O106 C112 1.272 . S
O107 Zn97 1.910 . S
O107 C113 1.231 . S
C108 O92 1.225 . S
C108 O114 1.298 . S
C109 O98 1.226 . S
C109 O99 1.307 1_655 S
C110 O102 1.303 . S
C110 O103 1.247 . S
C111 O100 1.253 . S
C111 O101 1.283 . S
C112 O104 1.304 . S
C112 O106 1.272 . S
C113 O105 1.311 . S
C113 O107 1.231 . S
O114 Zn96 1.953 . S
O114 C108 1.298 . S
O115 Zn116 1.953 . S
O115 C131 1.225 . S
Zn116 O115 1.953 . S
Zn116 O117 1.949 . S
Zn116 O123 1.919 . S
Zn116 O128 1.924 . S
O117 Zn116 1.949 . S
O117 Zn118 1.923 . S
O117 Zn119 1.950 . S
O117 Zn120 1.945 . S
Zn118 O117 1.923 . S
Zn118 O121 1.933 1_545 S
Zn118 O124 1.941 . S
Zn118 O125 1.965 . S
Zn119 O117 1.950 . S
Zn119 O126 1.938 . S
Zn119 O127 1.906 . S
Zn119 O137 1.953 . S
Zn120 O117 1.945 . S
Zn120 O122 1.932 . S
Zn120 O129 1.977 . S
Zn120 O130 1.910 . S
O121 Zn118 1.933 1_565 S
O121 C132 1.226 . S
O122 Zn120 1.932 . S
O122 C132 1.307 1_545 S
O123 Zn116 1.919 . S
O123 C134 1.253 . S
O124 Zn118 1.941 . S
O124 C134 1.283 . S
O125 Zn118 1.965 . S
O125 C133 1.303 . S
O126 Zn119 1.938 . S
O126 C133 1.247 . S
O127 Zn119 1.906 . S
O127 C135 1.304 . S
O128 Zn116 1.924 . S
O128 C136 1.311 . S
O129 Zn120 1.977 . S
O129 C135 1.272 . S
O130 Zn120 1.910 . S
O130 C136 1.231 . S
C131 O115 1.225 . S
C131 O137 1.298 . S
C132 O121 1.226 . S
C132 O122 1.307 1_565 S
C133 O125 1.303 . S
C133 O126 1.247 . S
C134 O123 1.253 . S
C134 O124 1.283 . S
C135 O127 1.304 . S
C135 O129 1.272 . S
C136 O128 1.311 . S
C136 O130 1.231 . S
O137 Zn119 1.953 . S
O137 C131 1.298 . S
O138 Zn139 1.953 . S
O138 C154 1.225 . S
Zn139 O138 1.953 . S
Zn139 O140 1.949 . S
Zn139 O146 1.919 . S
Zn139 O151 1.924 . S
O140 Zn139 1.949 . S
O140 Zn141 1.923 . S
O140 Zn142 1.950 . S
O140 Zn143 1.945 . S
Zn141 O140 1.923 . S
Zn141 O144 1.933 . S
Zn141 O147 1.941 . S
Zn141 O148 1.965 . S
Zn142 O140 1.950 . S
Zn142 O149 1.938 . S
Zn142 O150 1.906 . S
Zn142 O160 1.953 . S
Zn143 O140 1.945 . S
Zn143 O145 1.932 . S
Zn143 O152 1.977 . S
Zn143 O153 1.910 . S
O144 Zn141 1.933 . S
O144 C155 1.226 . S
O145 Zn143 1.932 . S
O145 C155 1.307 . S
O146 Zn139 1.919 . S
O146 C157 1.253 . S
O147 Zn141 1.941 . S
O147 C157 1.283 . S
O148 Zn141 1.965 . S
O148 C156 1.303 . S
O149 Zn142 1.938 . S
O149 C156 1.247 . S
O150 Zn142 1.906 . S
O150 C158 1.304 . S
O151 Zn139 1.924 . S
O151 C159 1.311 . S
O152 Zn143 1.977 . S
O152 C158 1.272 . S
O153 Zn143 1.910 . S
O153 C159 1.231 . S
C154 O138 1.225 . S
C154 O160 1.298 . S
C155 O144 1.226 . S
C155 O145 1.307 . S
C156 O148 1.303 . S
C156 O149 1.247 . S
C157 O146 1.253 . S
C157 O147 1.283 . S
C158 O150 1.304 . S
C158 O152 1.272 . S
C159 O151 1.311 . S
C159 O153 1.231 . S
O160 Zn142 1.953 . S
O160 C154 1.298 . S
O161 Zn162 1.953 . S
O161 C177 1.225 . S
Zn162 O161 1.953 . S
Zn162 O163 1.949 . S
Zn162 O169 1.919 . S
Zn162 O174 1.924 . S
O163 Zn162 1.949 . S
O163 Zn164 1.923 . S
O163 Zn165 1.950 . S
O163 Zn166 1.945 . S
Zn164 O163 1.923 . S
Zn164 O167 1.933 1_655 S
Zn164 O170 1.941 . S
Zn164 O171 1.965 . S
Zn165 O163 1.950 . S
Zn165 O172 1.938 . S
Zn165 O173 1.906 . S
Zn165 O183 1.953 . S
Zn166 O163 1.945 . S
Zn166 O168 1.932 . S
Zn166 O175 1.977 . S
Zn166 O176 1.910 . S
O167 Zn164 1.933 1_455 S
O167 C178 1.226 . S
O168 Zn166 1.932 . S
O168 C178 1.307 1_655 S
O169 Zn162 1.919 . S
O169 C180 1.253 . S
O170 Zn164 1.941 . S
O170 C180 1.283 . S
O171 Zn164 1.965 . S
O171 C179 1.303 . S
O172 Zn165 1.938 . S
O172 C179 1.247 . S
O173 Zn165 1.906 . S
O173 C181 1.304 . S
O174 Zn162 1.924 . S
O174 C182 1.311 . S
O175 Zn166 1.977 . S
O175 C181 1.272 . S
O176 Zn166 1.910 . S
O176 C182 1.231 . S
C177 O161 1.225 . S
C177 O183 1.298 . S
C178 O167 1.226 . S
C178 O168 1.307 1_455 S
C179 O171 1.303 . S
C179 O172 1.247 . S
C180 O169 1.253 . S
C180 O170 1.283 . S
C181 O173 1.304 . S
C181 O175 1.272 . S
C182 O174 1.311 . S
C182 O176 1.231 . S
O183 Zn165 1.953 . S
O183 C177 1.298 . S
O184 Zn185 1.953 . S
O184 C200 1.225 . S
Zn185 O184 1.953 . S
Zn185 O186 1.949 . S
Zn185 O192 1.919 . S
Zn185 O197 1.924 . S
O186 Zn185 1.949 . S
O186 Zn187 1.923 . S
O186 Zn188 1.950 . S
O186 Zn189 1.945 . S
Zn187 O186 1.923 . S
Zn187 O190 1.933 1_565 S
Zn187 O193 1.941 . S
Zn187 O194 1.965 . S
Zn188 O186 1.950 . S
Zn188 O195 1.938 . S
Zn188 O196 1.906 . S
Zn188 O206 1.953 . S
Zn189 O186 1.945 . S
Zn189 O191 1.932 . S
Zn189 O198 1.977 . S
Zn189 O199 1.910 . S
O190 Zn187 1.933 1_545 S
O190 C201 1.226 . S
O191 Zn189 1.932 . S
O191 C201 1.307 1_565 S
O192 Zn185 1.919 . S
O192 C203 1.253 . S
O193 Zn187 1.941 . S
O193 C203 1.283 . S
O194 Zn187 1.965 . S
O194 C202 1.303 . S
O195 Zn188 1.938 . S
O195 C202 1.247 . S
O196 Zn188 1.906 . S
O196 C204 1.304 . S
O197 Zn185 1.924 . S
O197 C205 1.311 . S
O198 Zn189 1.977 . S
O198 C204 1.272 . S
O199 Zn189 1.910 . S
O199 C205 1.231 . S
C200 O184 1.225 . S
C200 O206 1.298 . S
C201 O190 1.226 . S
C201 O191 1.307 1_545 S
C202 O194 1.303 . S
C202 O195 1.247 . S
C203 O192 1.253 . S
C203 O193 1.283 . S
C204 O196 1.304 . S
C204 O198 1.272 . S
C205 O197 1.311 . S
C205 O199 1.231 . S
O206 Zn188 1.953 . S
O206 C200 1.298 . S
O207 Zn208 1.953 . S
O207 C223 1.225 . S
Zn208 O207 1.953 . S
Zn208 O209 1.949 . S
Zn208 O215 1.919 . S
Zn208 O220 1.924 . S
O209 Zn208 1.949 . S
O209 Zn210 1.923 . S
O209 Zn211 1.950 . S
O209 Zn212 1.945 . S
Zn210 O209 1.923 . S
Zn210 O213 1.933 . S
Zn210 O216 1.941 . S
Zn210 O217 1.965 . S
Zn211 O209 1.950 . S
Zn211 O218 1.938 . S
Zn211 O219 1.906 . S
Zn211 O229 1.953 . S
Zn212 O209 1.945 . S
Zn212 O214 1.932 . S
Zn212 O221 1.977 . S
Zn212 O222 1.910 . S
O213 Zn210 1.933 . S
O213 C224 1.226 . S
O214 Zn212 1.932 . S
O214 C224 1.307 . S
O215 Zn208 1.919 . S
O215 C226 1.253 . S
O216 Zn210 1.941 . S
O216 C226 1.283 . S
O217 Zn210 1.965 . S
O217 C225 1.303 . S
O218 Zn211 1.938 . S
O218 C225 1.247 . S
O219 Zn211 1.906 . S
O219 C227 1.304 . S
O220 Zn208 1.924 . S
O220 C228 1.311 . S
O221 Zn212 1.977 . S
O221 C227 1.272 . S
O222 Zn212 1.910 . S
O222 C228 1.231 . S
C223 O207 1.225 . S
C223 O229 1.298 . S
C224 O213 1.226 . S
C224 O214 1.307 . S
C225 O217 1.303 . S
C225 O218 1.247 . S
C226 O215 1.253 . S
C226 O216 1.283 . S
C227 O219 1.304 . S
C227 O221 1.272 . S
C228 O220 1.311 . S
C228 O222 1.231 . S
O229 Zn211 1.953 . S
O229 C223 1.298 . S
O230 Zn231 1.953 . S
O230 C246 1.225 . S
Zn231 O230 1.953 . S
Zn231 O232 1.949 . S
Zn231 O238 1.919 . S
Zn231 O243 1.924 . S
O232 Zn231 1.949 . S
O232 Zn233 1.923 . S
O232 Zn234 1.950 . S
O232 Zn235 1.945 . S
Zn233 O232 1.923 . S
Zn233 O236 1.933 1_455 S
Zn233 O239 1.941 . S
Zn233 O240 1.965 . S
Zn234 O232 1.950 . S
Zn234 O241 1.938 . S
Zn234 O242 1.906 . S
Zn234 O252 1.953 . S
Zn235 O232 1.945 . S
Zn235 O237 1.932 . S
Zn235 O244 1.977 . S
Zn235 O245 1.910 . S
O236 Zn233 1.933 1_655 S
O236 C247 1.226 . S
O237 Zn235 1.932 . S
O237 C247 1.307 1_455 S
O238 Zn231 1.919 . S
O238 C249 1.253 . S
O239 Zn233 1.941 . S
O239 C249 1.283 . S
O240 Zn233 1.965 . S
O240 C248 1.303 . S
O241 Zn234 1.938 . S
O241 C248 1.247 . S
O242 Zn234 1.906 . S
O242 C250 1.304 . S
O243 Zn231 1.924 . S
O243 C251 1.311 . S
O244 Zn235 1.977 . S
O244 C250 1.272 . S
O245 Zn235 1.910 . S
O245 C251 1.231 . S
C246 O230 1.225 . S
C246 O252 1.298 . S
C247 O236 1.226 . S
C247 O237 1.307 1_655 S
C248 O240 1.303 . S
C248 O241 1.247 . S
C249 O238 1.253 . S
C249 O239 1.283 . S
C250 O242 1.304 . S
C250 O244 1.272 . S
C251 O243 1.311 . S
C251 O245 1.231 . S
O252 Zn234 1.953 . S
O252 C246 1.298 . S
O253 Zn254 1.953 . S
O253 C269 1.225 . S
Zn254 O253 1.953 . S
Zn254 O255 1.949 . S
Zn254 O261 1.919 . S
Zn254 O266 1.924 . S
O255 Zn254 1.949 . S
O255 Zn256 1.923 . S
O255 Zn257 1.950 . S
O255 Zn258 1.945 . S
Zn256 O255 1.923 . S
Zn256 O259 1.933 1_545 S
Zn256 O262 1.941 . S
Zn256 O263 1.965 . S
Zn257 O255 1.950 . S
Zn257 O264 1.938 . S
Zn257 O265 1.906 . S
Zn257 O275 1.953 . S
Zn258 O255 1.945 . S
Zn258 O260 1.932 . S
Zn258 O267 1.977 . S
Zn258 O268 1.910 . S
O259 Zn256 1.933 1_565 S
O259 C270 1.226 . S
O260 Zn258 1.932 . S
O260 C270 1.307 1_545 S
O261 Zn254 1.919 . S
O261 C272 1.253 . S
O262 Zn256 1.941 . S
O262 C272 1.283 . S
O263 Zn256 1.965 . S
O263 C271 1.303 . S
O264 Zn257 1.938 . S
O264 C271 1.247 . S
O265 Zn257 1.906 . S
O265 C273 1.304 . S
O266 Zn254 1.924 . S
O266 C274 1.311 . S
O267 Zn258 1.977 . S
O267 C273 1.272 . S
O268 Zn258 1.910 . S
O268 C274 1.231 . S
C269 O253 1.225 . S
C269 O275 1.298 . S
C270 O259 1.226 . S
C270 O260 1.307 1_565 S
C271 O263 1.303 . S
C271 O264 1.247 . S
C272 O261 1.253 . S
C272 O262 1.283 . S
C273 O265 1.304 . S
C273 O267 1.272 . S
C274 O266 1.311 . S
C274 O268 1.231 . S
O275 Zn257 1.953 . S
O275 C269 1.298 . S
C276 C277 1.387 . S
C276 H280 0.950 . S
C276 C285 1.390 . S
C277 C276 1.387 . S
C277 C279 1.387 . S
H278 C285 0.950 . S
C279 C277 1.387 . S
C279 C281 1.390 . S
C279 H283 0.950 . S
H280 C276 0.950 . S
C281 C279 1.390 . S
C281 C282 1.387 . S
C281 H284 0.950 . S
C282 C281 1.387 . S
C282 C285 1.387 . S
H283 C279 0.950 . S
H284 C281 0.950 . S
C285 C276 1.390 . S
C285 H278 0.950 . S
C285 C282 1.387 . S
C286 C287 1.387 . S
C286 H290 0.950 . S
C286 C295 1.390 . S
C287 C286 1.387 . S
C287 C289 1.387 . S
H288 C295 0.950 . S
C289 C287 1.387 . S
C289 C291 1.390 . S
C289 H293 0.950 . S
H290 C286 0.950 . S
C291 C289 1.390 . S
C291 C292 1.387 . S
C291 H294 0.950 . S
C292 C291 1.387 . S
C292 C295 1.387 . S
H293 C289 0.950 . S
H294 C291 0.950 . S
C295 C286 1.390 . S
C295 H288 0.950 . S
C295 C292 1.387 . S
C296 C297 1.387 . S
C296 H300 0.950 . S
C296 C305 1.390 . S
C297 C296 1.387 . S
C297 C299 1.387 . S
H298 C305 0.950 . S
C299 C297 1.387 . S
C299 C301 1.390 . S
C299 H303 0.950 . S
H300 C296 0.950 . S
C301 C299 1.390 . S
C301 C302 1.387 . S
C301 H304 0.950 . S
C302 C301 1.387 . S
C302 C305 1.387 . S
H303 C299 0.950 . S
H304 C301 0.950 . S
C305 C296 1.390 . S
C305 H298 0.950 . S
C305 C302 1.387 . S
C306 C307 1.387 . S
C306 H310 0.950 . S
C306 C315 1.390 . S
C307 C306 1.387 . S
C307 C309 1.387 . S
H308 C315 0.950 . S
C309 C307 1.387 . S
C309 C311 1.390 . S
C309 H313 0.950 . S
H310 C306 0.950 . S
C311 C309 1.390 . S
C311 C312 1.387 . S
C311 H314 0.953 . S
C312 C311 1.387 . S
C312 C315 1.387 . S
H313 C309 0.950 . S
H314 C311 0.953 . S
C315 C306 1.390 . S
C315 H308 0.950 . S
C315 C312 1.387 . S
C316 C317 1.387 . S
C316 H320 0.950 . S
C316 C325 1.390 . S
C317 C316 1.387 . S
C317 C319 1.387 . S
H318 C325 0.950 . S
C319 C317 1.387 . S
C319 C321 1.390 . S
C319 H323 0.950 . S
H320 C316 0.950 . S
C321 C319 1.390 . S
C321 C322 1.387 . S
C321 H324 0.950 . S
C322 C321 1.387 . S
C322 C325 1.387 . S
H323 C319 0.950 . S
H324 C321 0.950 . S
C325 C316 1.390 . S
C325 H318 0.950 . S
C325 C322 1.387 . S
C326 C327 1.387 . S
C326 H330 0.950 . S
C326 C335 1.390 . S
C327 C326 1.387 . S
C327 C329 1.387 . S
H328 C335 0.950 . S
C329 C327 1.387 . S
C329 C331 1.390 . S
C329 H333 0.950 . S
H330 C326 0.950 . S
C331 C329 1.390 . S
C331 C332 1.387 . S
C331 H334 0.950 . S
C332 C331 1.387 . S
C332 C335 1.387 . S
H333 C329 0.950 . S
H334 C331 0.950 . S
C335 C326 1.390 . S
C335 H328 0.950 . S
C335 C332 1.387 . S
C336 C337 1.387 . S
C336 H340 0.950 . S
C336 C345 1.390 . S
C337 C336 1.387 . S
C337 C339 1.387 . S
H338 C345 0.950 . S
C339 C337 1.387 . S
C339 C341 1.390 . S
C339 H343 0.950 1_655 S
H340 C336 0.950 . S
C341 C339 1.390 . S
C341 C342 1.387 . S
C341 H344 0.950 . S
C342 C341 1.387 . S
C342 C345 1.387 . S
H343 C339 0.950 1_455 S
H344 C341 0.950 . S
C345 C336 1.390 . S
C345 H338 0.950 . S
C345 C342 1.387 . S
C346 C347 1.387 . S
C346 H350 0.950 . S
C346 C355 1.390 . S
C347 C346 1.387 . S
C347 C349 1.387 . S
H348 C355 0.950 . S
C349 C347 1.387 . S
C349 C351 1.390 . S
C349 H353 0.950 . S
H350 C346 0.950 . S
C351 C349 1.390 . S
C351 C352 1.387 . S
C351 H354 0.950 . S
C352 C351 1.387 . S
C352 C355 1.387 . S
H353 C349 0.950 . S
H354 C351 0.950 . S
C355 C346 1.390 . S
C355 H348 0.950 . S
C355 C352 1.387 . S
C356 C357 1.387 . S
C356 H360 0.950 . S
C356 C365 1.390 . S
C357 C356 1.387 . S
C357 C359 1.387 . S
H358 C365 0.950 . S
C359 C357 1.387 . S
C359 C361 1.390 . S
C359 H363 0.950 . S
H360 C356 0.950 . S
C361 C359 1.390 . S
C361 C362 1.387 . S
C361 H364 0.950 . S
C362 C361 1.387 . S
C362 C365 1.387 . S
H363 C359 0.950 . S
H364 C361 0.950 . S
C365 C356 1.390 . S
C365 H358 0.950 . S
C365 C362 1.387 . S
C366 C367 1.387 . S
C366 H370 0.950 . S
C366 C375 1.390 . S
C367 C366 1.387 . S
C367 C369 1.387 . S
H368 C375 0.950 1_655 S
C369 C367 1.387 . S
C369 C371 1.390 . S
C369 H373 0.950 . S
H370 C366 0.950 . S
C371 C369 1.390 . S
C371 C372 1.387 . S
C371 H374 0.950 . S
C372 C371 1.387 . S
C372 C375 1.387 . S
H373 C369 0.950 . S
H374 C371 0.950 . S
C375 C366 1.390 . S
C375 H368 0.950 1_455 S
C375 C372 1.387 . S
C376 C377 1.387 . S
C376 H380 0.950 . S
C376 C385 1.390 . S
C377 C376 1.387 . S
C377 C379 1.387 . S
H378 C385 0.950 . S
C379 C377 1.387 . S
C379 C381 1.390 . S
C379 H383 0.950 . S
H380 C376 0.950 . S
C381 C379 1.390 . S
C381 C382 1.387 . S
C381 H384 0.950 . S
C382 C381 1.387 . S
C382 C385 1.387 . S
H383 C379 0.950 . S
H384 C381 0.950 . S
C385 C376 1.390 . S
C385 H378 0.950 . S
C385 C382 1.387 . S
C386 C387 1.387 . S
C386 H390 0.950 . S
C386 C395 1.390 . S
C387 C386 1.387 . S
C387 C389 1.387 . S
H388 C395 0.950 . S
C389 C387 1.387 . S
C389 C391 1.390 . S
C389 H393 0.950 . S
H390 C386 0.950 . S
C391 C389 1.390 . S
C391 C392 1.387 . S
C391 H394 0.950 . S
C392 C391 1.387 . S
C392 C395 1.387 . S
H393 C389 0.950 . S
H394 C391 0.950 . S
C395 C386 1.390 . S
C395 H388 0.950 . S
C395 C392 1.387 . S
C396 C397 1.387 . S
C396 H400 0.950 . S
C396 C405 1.390 . S
C397 C396 1.387 . S
C397 C399 1.387 . S
H398 C405 0.950 . S
C399 C397 1.387 . S
C399 C401 1.390 . S
C399 H403 0.950 . S
H400 C396 0.950 . S
C401 C399 1.390 . S
C401 C402 1.387 . S
C401 H404 0.950 . S
C402 C401 1.387 . S
C402 C405 1.387 . S
H403 C399 0.950 . S
H404 C401 0.950 . S
C405 C396 1.390 . S
C405 H398 0.950 . S
C405 C402 1.387 . S
C406 C407 1.387 . S
C406 H410 0.950 . S
C406 C415 1.390 . S
C407 C406 1.387 . S
C407 C409 1.387 . S
H408 C415 0.950 . S
C409 C407 1.387 . S
C409 C411 1.390 . S
C409 H413 0.950 . S
H410 C406 0.950 . S
C411 C409 1.390 . S
C411 C412 1.387 . S
C411 H414 0.950 . S
C412 C411 1.387 . S
C412 C415 1.387 . S
H413 C409 0.950 . S
H414 C411 0.950 . S
C415 C406 1.390 . S
C415 H408 0.950 . S
C415 C412 1.387 . S
C416 C417 1.387 . S
C416 H420 0.950 . S
C416 C425 1.390 . S
C417 C416 1.387 . S
C417 C419 1.387 . S
H418 C425 0.950 . S
C419 C417 1.387 . S
C419 C421 1.390 . S
C419 H423 0.950 . S
H420 C416 0.950 . S
C421 C419 1.390 . S
C421 C422 1.387 . S
C421 H424 0.950 . S
C422 C421 1.387 . S
C422 C425 1.387 . S
H423 C419 0.950 . S
H424 C421 0.950 . S
C425 C416 1.390 . S
C425 H418 0.950 . S
C425 C422 1.387 . S
C426 C427 1.387 . S
C426 H430 0.950 . S
C426 C435 1.390 . S
C427 C426 1.387 . S
C427 C429 1.387 . S
H428 C435 0.950 . S
C429 C427 1.387 . S
C429 C431 1.390 . S
C429 H433 0.950 . S
H430 C426 0.950 . S
C431 C429 1.390 . S
C431 C432 1.387 . S
C431 H434 0.950 . S
C432 C431 1.387 . S
C432 C435 1.387 . S
H433 C429 0.950 . S
H434 C431 0.950 . S
C435 C426 1.390 . S
C435 H428 0.950 . S
C435 C432 1.387 . S
C436 C437 1.387 . S
C436 H440 0.950 . S
C436 C445 1.390 . S
C437 C436 1.387 . S
C437 C439 1.387 . S
H438 C445 0.950 . S
C439 C437 1.387 . S
C439 C441 1.390 . S
C439 H443 0.950 . S
H440 C436 0.950 . S
C441 C439 1.390 . S
C441 C442 1.387 . S
C441 H444 0.950 . S
C442 C441 1.387 . S
C442 C445 1.387 . S
H443 C439 0.950 . S
H444 C441 0.950 . S
C445 C436 1.390 . S
C445 H438 0.950 . S
C445 C442 1.387 . S
C446 C447 1.387 . S
C446 H450 0.950 . S
C446 C455 1.390 . S
C447 C446 1.387 . S
C447 C449 1.387 . S
H448 C455 0.950 . S
C449 C447 1.387 . S
C449 C451 1.390 . S
C449 H453 0.950 . S
H450 C446 0.950 . S
C451 C449 1.390 . S
C451 C452 1.387 . S
C451 H454 0.950 . S
C452 C451 1.387 . S
C452 C455 1.387 . S
H453 C449 0.950 . S
H454 C451 0.950 . S
C455 C446 1.390 . S
C455 H448 0.950 . S
C455 C452 1.387 . S
C456 C457 1.387 . S
C456 H460 0.950 . S
C456 C465 1.390 . S
C457 C456 1.387 . S
C457 C459 1.387 . S
H458 C465 0.950 . S
C459 C457 1.387 . S
C459 C461 1.390 . S
C459 H463 0.950 . S
H460 C456 0.950 . S
C461 C459 1.390 . S
C461 C462 1.387 . S
C461 H464 0.950 . S
C462 C461 1.387 . S
C462 C465 1.387 . S
H463 C459 0.950 . S
H464 C461 0.950 . S
C465 C456 1.390 . S
C465 H458 0.950 . S
C465 C462 1.387 . S
C466 C467 1.387 . S
C466 H470 0.950 . S
C466 C475 1.390 . S
C467 C466 1.387 . S
C467 C469 1.387 . S
H468 C475 0.950 . S
C469 C467 1.387 . S
C469 C471 1.390 . S
C469 H473 0.950 . S
H470 C466 0.950 . S
C471 C469 1.390 . S
C471 C472 1.387 . S
C471 H474 0.950 . S
C472 C471 1.387 . S
C472 C475 1.387 . S
H473 C469 0.950 . S
H474 C471 0.950 . S
C475 C466 1.390 . S
C475 H468 0.950 . S
C475 C472 1.387 . S
C476 C477 1.387 . S
C476 H480 0.950 . S
C476 C485 1.390 . S
C477 C476 1.387 . S
C477 C479 1.387 . S
H478 C485 0.950 . S
C479 C477 1.387 . S
C479 C481 1.390 . S
C479 H483 0.950 . S
H480 C476 0.950 . S
C481 C479 1.390 . S
C481 C482 1.387 . S
C481 H484 0.950 . S
C482 C481 1.387 . S
C482 C485 1.387 . S
H483 C479 0.950 . S
H484 C481 0.950 . S
C485 C476 1.390 . S
C485 H478 0.950 . S
C485 C482 1.387 . S
C486 C487 1.387 . S
C486 H490 0.950 . S
C486 C495 1.390 . S
C487 C486 1.387 . S
C487 C489 1.387 . S
H488 C495 0.950 . S
C489 C487 1.387 . S
C489 C491 1.390 . S
C489 H493 0.950 . S
H490 C486 0.950 . S
C491 C489 1.390 . S
C491 C492 1.387 . S
C491 H494 0.950 . S
C492 C491 1.387 . S
C492 C495 1.387 . S
H493 C489 0.950 . S
H494 C491 0.950 . S
C495 C486 1.390 . S
C495 H488 0.950 . S
C495 C492 1.387 . S
C496 C497 1.387 . S
C496 H500 0.950 . S
C496 C505 1.390 . S
C497 C496 1.387 . S
C497 C499 1.387 . S
H498 C505 0.950 . S
C499 C497 1.387 . S
C499 C501 1.390 . S
C499 H503 0.950 . S
H500 C496 0.950 . S
C501 C499 1.390 . S
C501 C502 1.387 . S
C501 H504 0.950 . S
C502 C501 1.387 . S
C502 C505 1.387 . S
H503 C499 0.950 . S
H504 C501 0.950 . S
C505 C496 1.390 . S
C505 H498 0.950 . S
C505 C502 1.387 . S
C506 C507 1.387 . S
C506 H510 0.950 . S
C506 C515 1.390 . S
C507 C506 1.387 . S
C507 C509 1.387 . S
H508 C515 0.950 . S
C509 C507 1.387 . S
C509 C511 1.390 . S
C509 H513 0.950 . S
H510 C506 0.950 . S
C511 C509 1.390 . S
C511 C512 1.387 . S
C511 H514 0.950 . S
C512 C511 1.387 . S
C512 C515 1.387 . S
H513 C509 0.950 . S
H514 C511 0.950 . S
C515 C506 1.390 . S
C515 H508 0.950 . S
C515 C512 1.387 . S
C516 C517 1.387 . S
C516 H520 0.950 . S
C516 C525 1.390 . S
C517 C516 1.387 . S
C517 C519 1.387 . S
H518 C525 0.950 . S
C519 C517 1.387 . S
C519 C521 1.390 . S
C519 H523 0.950 . S
H520 C516 0.950 . S
C521 C519 1.390 . S
C521 C522 1.387 . S
C521 H524 0.950 . S
C522 C521 1.387 . S
C522 C525 1.387 . S
H523 C519 0.950 . S
H524 C521 0.950 . S
C525 C516 1.390 . S
C525 H518 0.950 . S
C525 C522 1.387 . S
C526 C527 1.387 . S
C526 H530 0.950 . S
C526 C535 1.390 . S
C527 C526 1.387 . S
C527 C529 1.387 . S
H528 C535 0.950 . S
C529 C527 1.387 . S
C529 C531 1.390 . S
C529 H533 0.950 . S
H530 C526 0.950 . S
C531 C529 1.390 . S
C531 C532 1.387 . S
C531 H534 0.950 . S
C532 C531 1.387 . S
C532 C535 1.387 . S
H533 C529 0.950 . S
H534 C531 0.950 . S
C535 C526 1.390 . S
C535 H528 0.950 . S
C535 C532 1.387 . S
C536 C537 1.387 . S
C536 H540 0.950 . S
C536 C545 1.390 . S
C537 C536 1.387 . S
C537 C539 1.387 . S
H538 C545 0.950 . S
C539 C537 1.387 . S
C539 C541 1.390 . S
C539 H543 0.950 . S
H540 C536 0.950 . S
C541 C539 1.390 . S
C541 C542 1.387 . S
C541 H544 0.950 . S
C542 C541 1.387 . S
C542 C545 1.387 . S
H543 C539 0.950 . S
H544 C541 0.950 . S
C545 C536 1.390 . S
C545 H538 0.950 . S
C545 C542 1.387 . S
C546 C547 1.387 . S
C546 H550 0.950 . S
C546 C555 1.390 . S
C547 C546 1.387 . S
C547 C549 1.387 . S
H548 C555 0.950 . S
C549 C547 1.387 . S
C549 C551 1.390 . S
C549 H553 0.950 . S
H550 C546 0.950 . S
C551 C549 1.390 . S
C551 C552 1.387 . S
C551 H554 0.950 . S
C552 C551 1.387 . S
C552 C555 1.387 . S
H553 C549 0.950 . S
H554 C551 0.950 . S
C555 C546 1.390 . S
C555 H548 0.950 . S
C555 C552 1.387 . S
C556 C557 1.387 . S
C556 H560 0.950 . S
C556 C565 1.390 . S
C557 C556 1.387 . S
C557 C559 1.387 . S
H558 C565 0.950 . S
C559 C557 1.387 . S
C559 C561 1.390 . S
C559 H563 0.950 . S
H560 C556 0.950 . S
C561 C559 1.390 . S
C561 C562 1.387 . S
C561 H564 0.950 . S
C562 C561 1.387 . S
C562 C565 1.387 . S
H563 C559 0.950 . S
H564 C561 0.950 . S
C565 C556 1.390 . S
C565 H558 0.950 . S
C565 C562 1.387 . S
C566 C567 1.387 . S
C566 H570 0.950 . S
C566 C575 1.390 . S
C567 C566 1.387 . S
C567 C569 1.387 . S
H568 C575 0.950 . S
C569 C567 1.387 . S
C569 C571 1.390 . S
C569 H573 0.950 . S
H570 C566 0.950 . S
C571 C569 1.390 . S
C571 C572 1.387 . S
C571 H574 0.950 . S
C572 C571 1.387 . S
C572 C575 1.387 . S
H573 C569 0.950 . S
H574 C571 0.950 . S
C575 C566 1.390 . S
C575 H568 0.950 . S
C575 C572 1.387 . S
C576 C577 1.387 . S
C576 H580 0.950 . S
C576 C585 1.390 1_556 S
C577 C576 1.387 . S
C577 C579 1.387 . S
H578 C585 0.950 . S
C579 C577 1.387 . S
C579 C581 1.390 1_556 S
C579 H583 0.950 . S
H580 C576 0.950 . S
C581 C579 1.390 1_554 S
C581 C582 1.387 . S
C581 H584 0.950 . S
C582 C581 1.387 . S
C582 C585 1.387 . S
H583 C579 0.950 . S
H584 C581 0.950 . S
C585 C576 1.390 1_554 S
C585 H578 0.950 . S
C585 C582 1.387 . S
C586 C587 1.387 1_655 S
C586 H590 0.950 . S
C586 C595 1.390 . S
C587 C586 1.387 1_455 S
C587 C589 1.387 . S
H588 C595 0.950 . S
C589 C587 1.387 . S
C589 C591 1.390 . S
C589 H593 0.950 . S
H590 C586 0.950 . S
C591 C589 1.390 . S
C591 C592 1.387 1_455 S
C591 H594 0.950 . S
C592 C591 1.387 1_655 S
C592 C595 1.387 . S
H593 C589 0.950 . S
H594 C591 0.950 . S
C595 C586 1.390 . S
C595 H588 0.950 . S
C595 C592 1.387 . S
C596 C597 1.387 . S
C596 H600 0.950 . S
C596 C605 1.390 1_564 S
C597 C596 1.387 . S
C597 C599 1.387 . S
H598 C605 0.950 . S
C599 C597 1.387 . S
C599 C601 1.390 1_564 S
C599 H603 0.950 . S
H600 C596 0.950 . S
C601 C599 1.390 1_546 S
C601 C602 1.387 . S
C601 H604 0.950 . S
C602 C601 1.387 . S
C602 C605 1.387 . S
H603 C599 0.950 . S
H604 C601 0.950 . S
C605 C596 1.390 1_546 S
C605 H598 0.950 . S
C605 C602 1.387 . S
C606 C607 1.387 . S
C606 H610 0.950 . S
C606 C615 1.390 . S
C607 C606 1.387 . S
C607 C609 1.387 . S
H608 C615 0.950 . S
C609 C607 1.387 . S
C609 C611 1.390 . S
C609 H613 0.950 . S
H610 C606 0.950 . S
C611 C609 1.390 . S
C611 C612 1.387 . S
C611 H614 0.950 . S
C612 C611 1.387 . S
C612 C615 1.387 . S
H613 C609 0.950 . S
H614 C611 0.950 . S
C615 C606 1.390 . S
C615 H608 0.950 . S
C615 C612 1.387 . S
C616 C617 1.387 1_455 S
C616 H620 0.950 . S
C616 C625 1.390 1_556 S
C617 C616 1.387 1_655 S
C617 C619 1.387 . S
H618 C625 0.950 . S
C619 C617 1.387 . S
C619 C621 1.390 1_556 S
C619 H623 0.950 . S
H620 C616 0.950 . S
C621 C619 1.390 1_554 S
C621 C622 1.387 1_655 S
C621 H624 0.950 . S
C622 C621 1.387 1_455 S
C622 C625 1.387 . S
H623 C619 0.950 . S
H624 C621 0.950 . S
C625 C616 1.390 1_554 S
C625 H618 0.950 . S
C625 C622 1.387 . S
C626 C627 1.387 . S
C626 H630 0.950 . S
C626 C635 1.390 1_565 S
C627 C626 1.387 . S
C627 C629 1.387 . S
H628 C635 0.950 . S
C629 C627 1.387 . S
C629 C631 1.390 1_565 S
C629 H633 0.950 . S
H630 C626 0.950 . S
C631 C629 1.390 1_545 S
C631 C632 1.387 . S
C631 H634 0.950 . S
C632 C631 1.387 . S
C632 C635 1.387 . S
H633 C629 0.950 . S
H634 C631 0.950 . S
C635 C626 1.390 1_545 S
C635 H628 0.950 . S
C635 C632 1.387 . S
C277 C113 1.059 1_545 S
C282 C17 1.066 . S
C287 C136 1.061 . S
C292 C40 1.063 . S
C297 C63 1.065 . S
C302 C21 1.058 1_655 S
C307 C86 1.062 . S
C312 C44 1.062 1_565 S
C317 C109 1.063 . S
C322 C67 1.061 . S
C327 C90 1.063 1_455 S
C332 C132 1.063 . S
C337 C205 1.061 1_655 S
C342 C155 1.062 . S
C347 C178 1.066 . S
C352 C228 1.059 1_565 S
C357 C251 1.063 . S
C362 C201 1.063 . S
C367 C224 1.067 . S
C372 C274 1.060 1_455 S
C377 C247 1.063 . S
C382 C159 1.062 1_545 S
C387 C182 1.059 . S
C392 C270 1.066 . S
C397 C110 1.263 . S
C402 C16 1.254 . S
C407 C39 1.254 . S
C412 C133 1.263 . S
C417 C62 1.255 . S
C422 C18 1.262 . S
C427 C85 1.255 . S
C432 C41 1.262 . S
C437 C64 1.263 . S
C442 C108 1.255 . S
C447 C87 1.262 . S
C452 C131 1.255 . S
C457 C202 1.262 . S
C462 C154 1.255 . S
C467 C177 1.255 . S
C472 C225 1.262 . S
C477 C200 1.255 . S
C482 C248 1.262 . S
C487 C271 1.263 . S
C492 C223 1.254 . S
C497 C246 1.254 . S
C502 C156 1.263 . S
C507 C179 1.262 . S
C512 C269 1.255 . S
C517 C250 1.507 . S
C522 C20 1.507 . S
C527 C43 1.509 . S
C532 C273 1.509 . S
C537 C66 1.507 . S
C542 C158 1.507 . S
C547 C89 1.510 . S
C552 C181 1.510 . S
C557 C112 1.510 . S
C562 C204 1.509 . S
C567 C227 1.509 . S
C572 C135 1.509 . S
C577 C226 1.541 . S
C582 C19 1.542 . S
C587 C249 1.541 . S
C592 C42 1.542 . S
C597 C65 1.542 . S
C602 C272 1.542 . S
C607 C88 1.541 . S
C612 C157 1.542 . S
C617 C180 1.541 . S
C622 C111 1.542 . S
C627 C203 1.542 . S
C632 C134 1.542 . S
