# Generated by pormake.
# Topology unc, (4)-cn, num edge types: 1
# Building blocks:
#     Node 0, Type 0, BuildingBlock: ICAMEG_clean_sbu_1, # of connection points: 4
#     Node 1, Type 0, BuildingBlock: ICAMEG_clean_sbu_1, # of connection points: 4
#     Node 2, Type 0, BuildingBlock: ICAMEG_clean_sbu_1, # of connection points: 4
#     Node 3, Type 0, BuildingBlock: ICAMEG_clean_sbu_1, # of connection points: 4
#     Edge 4, Type (0, 0), BuildingBlock: TEMPAE_clean_linker_10, # of connection points: 2
#     Edge 5, Type (0, 0), BuildingBlock: TEMPAE_clean_linker_10, # of connection points: 2
#     Edge 6, Type (0, 0), BuildingBlock: TEMPAE_clean_linker_10, # of connection points: 2
#     Edge 7, Type (0, 0), BuildingBlock: TEMPAE_clean_linker_10, # of connection points: 2
#     Edge 8, Type (0, 0), BuildingBlock: TEMPAE_clean_linker_10, # of connection points: 2
#     Edge 9, Type (0, 0), BuildingBlock: TEMPAE_clean_linker_10, # of connection points: 2
#     Edge 10, Type (0, 0), BuildingBlock: TEMPAE_clean_linker_10, # of connection points: 2
#     Edge 11, Type (0, 0), BuildingBlock: TEMPAE_clean_linker_10, # of connection points: 2
# Relax obj value: 0.023
# Max RMSD: 0.081
# Mean RMSD: 0.081
data_MOF--net-unc--node1-ICAMEG_clean_sbu_1--edge1-TEMPAE_clean_linker_10
_symmetry_space_group_name_H-M    P1
_symmetry_Int_Tables_number       1
_symmetry_cell_setting            triclinic
loop_
_symmetry_equiv_pos_as_xyz
'x, y, z'
_cell_length_a     32.663093
_cell_length_b     32.669088
_cell_length_c     22.455345
_cell_angle_alpha  89.978832
_cell_angle_beta   89.96801
_cell_angle_gamma 90.136455
loop_
_atom_site_label
_atom_site_type_symbol
_atom_site_fract_x
_atom_site_fract_y
_atom_site_fract_z
_atom_type_partial_charge
Co0 Co 0.07202 0.66838 0.9883 0.0
Co1 Co 0.97156 0.66821 0.02857 0.0
O2 O 0.0218 0.69794 0.00839 0.0
C3 C 0.09987 0.7322 0.07344 0.0
O4 O 0.06855 0.72285 0.10753 0.0
C5 C 0.94368 0.73186 0.94326 0.0
O6 O 0.97491 0.72256 0.90906 0.0
O7 O 0.97375 0.63953 0.95058 0.0
O8 O 0.04021 0.62261 0.95012 0.0
H9 H 0.88199 0.5434 0.04397 0.0
H10 H 0.0636 0.75496 0.95099 0.0
O11 O 0.10556 0.71322 0.02467 0.0
H12 H 0.08399 0.67742 0.76498 0.0
H13 H 0.21814 0.65659 0.91877 0.0
H14 H 0.09808 0.58167 0.99598 0.0
H15 H 0.08363 0.64206 0.86196 0.0
H16 H 0.15399 0.69308 0.94152 0.0
O17 O 0.93805 0.71291 0.99211 0.0
H18 H 0.94542 0.58139 0.0211 0.0
H19 H 0.88963 0.69262 0.07535 0.0
H20 H 0.16148 0.54391 0.97324 0.0
H21 H 0.06431 0.79165 0.85495 0.0
H22 H 0.2221 0.58142 0.93438 0.0
H23 H 0.0744 0.75279 0.76105 0.0
O24 O 0.06981 0.63975 0.06635 0.0
H25 H 0.97936 0.79161 0.16158 0.0
H26 H 0.95997 0.64193 0.15499 0.0
H27 H 0.95964 0.67737 0.25187 0.0
H28 H 0.96926 0.75278 0.25559 0.0
H29 H 0.98004 0.75485 0.06564 0.0
H30 H 0.82546 0.6559 0.09823 0.0
H31 H 0.82142 0.58071 0.0828 0.0
O32 O 1.00334 0.62258 0.06688 0.0
C33 C 1.00369 0.6187 0.9306 0.0
C34 C 0.88341 0.57615 0.05103 0.0
C35 C 0.85166 0.6393 0.08142 0.0
N36 N 0.92133 0.63913 0.04725 0.0
C37 C 0.91928 0.59781 0.03831 0.0
C38 C 0.88805 0.65994 0.06823 0.0
C39 C 0.84942 0.5971 0.07277 0.0
C40 C 0.06846 0.73791 0.91037 0.0
N41 N 0.07367 0.69645 0.91214 0.0
C42 C 0.06865 0.75882 0.8561 0.0
C43 C 0.07424 0.73699 0.80342 0.0
C44 C 0.07959 0.6947 0.80559 0.0
C45 C 0.07921 0.67483 0.86065 0.0
C46 C 0.19191 0.63989 0.9356 0.0
C47 C 0.12424 0.59817 0.97875 0.0
C48 C 0.15554 0.6604 0.94871 0.0
N49 N 0.12224 0.63948 0.96971 0.0
C50 C 0.1601 0.57664 0.9661 0.0
C51 C 0.19411 0.59772 0.94435 0.0
C52 C 0.03986 0.61881 0.0864 0.0
C53 C 0.97501 0.75876 0.16052 0.0
C54 C 0.9644 0.67472 0.15621 0.0
C55 C 0.96404 0.69464 0.21122 0.0
C56 C 0.96941 0.73695 0.21327 0.0
N57 N 0.96995 0.69633 0.10465 0.0
C58 C 0.97518 0.73781 0.10631 0.0
Co59 Co 0.37445 0.97125 0.27811 0.0
Co60 Co 0.37447 0.07188 0.2388 0.0
O61 O 0.34478 0.02153 0.25862 0.0
C62 C 0.31046 0.94362 0.19301 0.0
O63 O 0.31957 0.97514 0.15919 0.0
C64 C 0.31069 0.0993 0.32435 0.0
O65 O 0.31951 0.06761 0.35787 0.0
O66 O 0.40327 0.06936 0.31667 0.0
O67 O 0.42027 1.00294 0.31638 0.0
H68 H 0.49928 0.1615 0.22386 0.0
H69 H 0.2879 0.97927 0.31586 0.0
O70 O 0.32959 0.93779 0.24162 0.0
H71 H 0.36585 0.95827 0.50135 0.0
H72 H 0.38657 0.82488 0.34618 0.0
H73 H 0.46119 0.94534 0.26976 0.0
H74 H 0.40104 0.9592 0.40423 0.0
H75 H 0.34995 0.88907 0.32427 0.0
O76 O 0.32988 0.10528 0.27577 0.0
H77 H 0.46131 0.09798 0.24621 0.0
H78 H 0.34998 0.15402 0.19291 0.0
H79 H 0.49908 0.8819 0.29166 0.0
H80 H 0.25138 0.97797 0.41204 0.0
H81 H 0.46172 0.82107 0.33012 0.0
H82 H 0.29045 0.96758 0.50568 0.0
O83 O 0.40292 0.97383 0.19997 0.0
H84 H 0.25079 0.0647 0.10628 0.0
H85 H 0.4005 0.08409 0.11238 0.0
H86 H 0.36486 0.08492 0.01567 0.0
H87 H 0.28943 0.07529 0.0122 0.0
H88 H 0.28776 0.06354 0.20203 0.0
H89 H 0.38668 0.21828 0.17058 0.0
H90 H 0.46191 0.22225 0.1858 0.0
O91 O 0.42004 0.04029 0.19997 0.0
C92 C 0.42417 0.03935 0.33626 0.0
C93 C 0.46652 0.16012 0.21689 0.0
C94 C 0.40331 0.19201 0.18706 0.0
N95 N 0.40353 0.12219 0.22049 0.0
C96 C 0.44487 0.1242 0.22932 0.0
C97 C 0.38269 0.15556 0.19993 0.0
C98 C 0.44553 0.1942 0.19559 0.0
C99 C 0.30504 0.97428 0.35637 0.0
N100 N 0.34652 0.96923 0.35437 0.0
C101 C 0.28422 0.97376 0.41072 0.0
C102 C 0.30617 0.968 0.46325 0.0
C103 C 0.34848 0.96281 0.46086 0.0
C104 C 0.36826 0.96351 0.40572 0.0
C105 C 0.4032 0.85119 0.32952 0.0
C106 C 0.44475 0.91909 0.28682 0.0
C107 C 0.38262 0.88759 0.31689 0.0
N108 N 0.40346 0.92101 0.2961 0.0
C109 C 0.46636 0.88321 0.29899 0.0
C110 C 0.44537 0.84908 0.32052 0.0
C111 C 0.4238 1.00387 0.1801 0.0
C112 C 0.28364 0.06905 0.10723 0.0
C113 C 0.36771 0.07966 0.11127 0.0
C114 C 0.34767 0.08029 0.05636 0.0
C115 C 0.30535 0.07492 0.05445 0.0
N116 N 0.3462 0.07384 0.16286 0.0
C117 C 0.30471 0.06861 0.16133 0.0
Co118 Co 0.972 0.37379 0.48838 0.0
Co119 Co 0.07238 0.37391 0.52878 0.0
O120 O 0.02216 0.3442 0.50857 0.0
C121 C 0.94396 0.31001 0.57356 0.0
O122 O 0.97516 0.31943 0.60777 0.0
C123 C 0.10037 0.31022 0.44363 0.0
O124 O 0.06929 0.31964 0.40927 0.0
O125 O 0.07033 0.40254 0.45069 0.0
O126 O 1.0039 0.41956 0.45025 0.0
H127 H 0.16201 0.49867 0.54403 0.0
H128 H 0.98046 0.28723 0.45111 0.0
O129 O 0.93839 0.32894 0.5247 0.0
H130 H 0.9604 0.36485 0.26504 0.0
H131 H 0.82601 0.38568 0.41858 0.0
H132 H 0.94597 0.46052 0.49598 0.0
H133 H 0.9606 0.40017 0.36202 0.0
H134 H 0.89009 0.34915 0.44147 0.0
O135 O 0.1059 0.32915 0.49251 0.0
H136 H 0.0986 0.46071 0.52113 0.0
H137 H 0.15422 0.34947 0.57576 0.0
H138 H 0.88264 0.49832 0.4731 0.0
H139 H 0.97991 0.25058 0.35507 0.0
H140 H 0.82206 0.46084 0.43413 0.0
H141 H 0.96999 0.28949 0.26114 0.0
O142 O 0.97411 0.40239 0.56643 0.0
H143 H 0.06422 0.25064 0.66213 0.0
H144 H 0.08381 0.40028 0.65514 0.0
H145 H 0.08392 0.36493 0.75213 0.0
H146 H 0.07419 0.28954 0.75605 0.0
H147 H 0.06375 0.28731 0.56608 0.0
H148 H 0.21837 0.38616 0.59867 0.0
H149 H 0.22249 0.46134 0.58307 0.0
O150 O 0.04057 0.4196 0.5669 0.0
C151 C 0.04043 0.42342 0.43071 0.0
C152 C 0.16056 0.46593 0.55117 0.0
C153 C 0.19221 0.40278 0.58176 0.0
N154 N 0.12261 0.40297 0.54746 0.0
C155 C 0.1247 0.44428 0.53843 0.0
C156 C 0.15583 0.38215 0.56856 0.0
C157 C 0.1945 0.44496 0.57302 0.0
C158 C 0.97567 0.30429 0.41047 0.0
N159 N 0.97046 0.34575 0.41223 0.0
C160 C 0.97558 0.28341 0.3562 0.0
C161 C 0.97008 0.30527 0.30351 0.0
C162 C 0.96473 0.34755 0.30566 0.0
C163 C 0.96501 0.3674 0.36073 0.0
C164 C 0.85221 0.40236 0.43545 0.0
C165 C 0.91983 0.44403 0.47871 0.0
C166 C 0.88855 0.38182 0.44865 0.0
N167 N 0.92183 0.40272 0.4697 0.0
C168 C 0.88401 0.46558 0.46598 0.0
C169 C 0.85002 0.44453 0.44417 0.0
C170 C 1.00405 0.42334 0.58644 0.0
C171 C 0.06862 0.28347 0.66099 0.0
C172 C 0.07933 0.3675 0.65644 0.0
C173 C 0.07957 0.34763 0.71151 0.0
C174 C 0.07414 0.30533 0.71368 0.0
N175 N 0.07384 0.34585 0.60494 0.0
C176 C 0.06857 0.30438 0.60671 0.0
Co177 Co 0.66933 0.07062 0.77798 0.0
Co178 Co 0.66938 0.97005 0.7385 0.0
O179 O 0.69904 0.02039 0.75834 0.0
C180 C 0.73336 0.09839 0.69292 0.0
O181 O 0.72435 0.06686 0.65911 0.0
C182 C 0.73318 0.94253 0.82387 0.0
O183 O 0.72422 0.97409 0.85757 0.0
O184 O 0.64063 0.97244 0.81647 0.0
O185 O 0.62351 0.03883 0.81621 0.0
H186 H 0.54462 0.88036 0.72372 0.0
H187 H 0.75586 0.06258 0.81564 0.0
O188 O 0.71417 0.10417 0.74152 0.0
H189 H 0.67782 0.08323 1.00124 0.0
H190 H 0.65706 0.21688 0.84637 0.0
H191 H 0.58257 0.09646 0.76977 0.0
H192 H 0.64267 0.08247 0.90414 0.0
H193 H 0.69375 0.15275 0.82427 0.0
O194 O 0.71403 0.93665 0.77526 0.0
H195 H 0.58256 0.94388 0.7461 0.0
H196 H 0.6939 0.88801 0.69238 0.0
H197 H 0.54461 0.15984 0.79185 0.0
H198 H 0.79234 0.06371 0.9118 0.0
H199 H 0.58191 0.22064 0.83041 0.0
H200 H 0.75323 0.07393 0.0055 0.0
O201 O 0.6409 0.06813 0.69984 0.0
H202 H 0.79296 0.97749 0.60559 0.0
H203 H 0.64326 0.95803 0.61214 0.0
H204 H 0.67883 0.95738 0.51531 0.0
H205 H 0.75425 0.96704 0.51161 0.0
H206 H 0.75606 0.97849 0.70147 0.0
H207 H 0.65724 0.82375 0.67 0.0
H208 H 0.58202 0.8197 0.68542 0.0
O209 O 0.62375 1.00167 0.69988 0.0
C210 C 0.61969 1.0024 0.83609 0.0
C211 C 0.57738 0.88178 0.71667 0.0
C212 C 0.64059 0.84999 0.68659 0.0
N213 N 0.64034 0.91975 0.72018 0.0
C214 C 0.59901 0.9177 0.72911 0.0
C215 C 0.6612 0.88643 0.69949 0.0
C216 C 0.59839 0.84774 0.69522 0.0
C217 C 0.73871 0.0675 0.85617 0.0
N218 N 0.69722 0.07254 0.85422 0.0
C219 C 0.7595 0.06792 0.91051 0.0
C220 C 0.73752 0.07358 0.96307 0.0
C221 C 0.69521 0.07877 0.96072 0.0
C222 C 0.67546 0.07816 0.90559 0.0
C223 C 0.64046 0.19057 0.82967 0.0
C224 C 0.59898 0.12271 0.78686 0.0
C225 C 0.66108 0.15421 0.81693 0.0
N226 N 0.64027 0.12081 0.79609 0.0
C227 C 0.57734 0.15855 0.79914 0.0
C228 C 0.59829 0.19266 0.82073 0.0
C229 C 0.62001 0.03811 0.68001 0.0
C230 C 0.76011 0.97313 0.60664 0.0
C231 C 0.67605 0.96248 0.61093 0.0
C232 C 0.69604 0.96194 0.55595 0.0
C233 C 0.73836 0.96733 0.55392 0.0
N234 N 0.69759 0.96823 0.66246 0.0
C235 C 0.73908 0.97347 0.66082 0.0
C236 C 0.07695 0.59527 0.17777 0.0
C237 C 0.04704 0.58849 0.13412 0.0
C238 C 0.08069 0.56873 0.22681 0.0
C239 C 0.05453 0.53419 0.23134 0.0
C240 C 0.02569 0.52622 0.18571 0.0
C241 C 0.02195 0.55372 0.13811 0.0
C242 C 0.11119 0.57874 0.27514 0.0
C243 C 0.99777 0.48931 0.18813 0.0
C244 C 0.07674 0.44659 0.33838 0.0
C245 C 0.04765 0.45377 0.38304 0.0
C246 C 0.08024 0.47312 0.28927 0.0
C247 C 0.05473 0.50807 0.28573 0.0
C248 C 0.02681 0.51646 0.3324 0.0
C249 C 0.02325 0.48895 0.38004 0.0
C250 C 0.10972 0.46265 0.23981 0.0
C251 C 0.99965 0.55381 0.33106 0.0
H252 H 0.09617 0.6223 0.17499 0.0
H253 H 0.99903 0.54818 0.10412 0.0
H254 H 0.0946 0.58672 0.31667 0.0
H255 H 0.13051 0.55172 0.28512 0.0
H256 H 0.1314 0.6048 0.26282 0.0
H257 H 0.9799 0.48539 0.14643 0.0
H258 H 0.01584 0.46112 0.1961 0.0
H259 H 0.97598 0.49254 0.22574 0.0
H260 H 0.0954 0.41922 0.34041 0.0
H261 H 1.00097 0.49477 0.41483 0.0
H262 H 0.12936 0.48939 0.22905 0.0
H263 H 0.09226 0.45488 0.19895 0.0
H264 H 0.12963 0.43632 0.25142 0.0
H265 H 0.01816 0.58171 0.32237 0.0
H266 H 0.98261 0.55803 0.37345 0.0
H267 H 0.97713 0.55094 0.29432 0.0
C268 C 0.48973 0.02185 0.38657 0.0
C269 C 0.4546 0.04632 0.38387 0.0
C270 C 0.51734 0.02521 0.4341 0.0
C271 C 0.50907 0.05298 0.48096 0.0
C272 C 0.47414 0.07854 0.47775 0.0
C273 C 0.44752 0.07525 0.42875 0.0
C274 C 0.55467 0.998 0.43508 0.0
C275 C 0.4638 0.10786 0.52743 0.0
C276 C 0.555 0.01999 0.6283 0.0
C277 C 0.58972 0.04514 0.63223 0.0
C278 C 0.52745 0.02372 0.58077 0.0
C279 C 0.53533 0.05264 0.53517 0.0
C280 C 0.56985 0.07882 0.53959 0.0
C281 C 0.59643 0.07508 0.58855 0.0
C282 C 0.49056 0.99578 0.57847 0.0
C283 C 0.57977 0.10939 0.49125 0.0
H284 H 0.49547 0.99969 0.35162 0.0
H285 H 0.42017 0.09397 0.42695 0.0
H286 H 0.58261 0.01646 0.44367 0.0
H287 H 0.55186 0.9754 0.47176 0.0
H288 H 0.55876 0.98107 0.3926 0.0
H289 H 0.43739 0.12777 0.51614 0.0
H290 H 0.4562 0.09029 0.56829 0.0
H291 H 0.49054 0.12751 0.53803 0.0
H292 H 0.54951 0.99705 0.66231 0.0
H293 H 0.62343 0.09436 0.59127 0.0
H294 H 0.49371 0.97412 0.54072 0.0
H295 H 0.46233 0.01385 0.57078 0.0
H296 H 0.48676 0.97778 0.6201 0.0
H297 H 0.58753 0.09286 0.44959 0.0
H298 H 0.60595 0.12949 0.50338 0.0
H299 H 0.55277 0.1288 0.48161 0.0
C300 C 0.02126 0.55341 0.87954 0.0
C301 C 0.99653 0.58834 0.88294 0.0
C302 C 0.01768 0.5259 0.83193 0.0
C303 C 0.98938 0.53404 0.78569 0.0
C304 C 0.96356 0.56874 0.78962 0.0
C305 C 0.96711 0.59528 0.83869 0.0
C306 C 0.04521 0.48882 0.83017 0.0
C307 C 0.93366 0.57893 0.74063 0.0
C308 C 0.02162 0.48865 0.63765 0.0
C309 C 0.99683 0.45365 0.63412 0.0
C310 C 0.01792 0.51615 0.68524 0.0
C311 C 0.98945 0.50792 0.73133 0.0
C312 C 0.96359 0.47314 0.72727 0.0
C313 C 0.96726 0.44662 0.67822 0.0
C314 C 0.04549 0.55332 0.68715 0.0
C315 C 0.93351 0.46285 0.7761 0.0
H316 H 0.04381 0.54777 0.914 0.0
H317 H 0.94818 0.62245 0.84102 0.0
H318 H 0.02691 0.46075 0.82181 0.0
H319 H 0.06742 0.49191 0.79305 0.0
H320 H 0.06259 0.48477 0.87227 0.0
H321 H 0.91359 0.6051 0.75251 0.0
H322 H 0.95077 0.58684 0.69947 0.0
H323 H 0.91417 0.55203 0.73023 0.0
H324 H 0.04428 0.49437 0.60331 0.0
H325 H 0.94829 0.41939 0.67579 0.0
H326 H 0.06758 0.5503 0.72439 0.0
H327 H 0.02721 0.58134 0.6954 0.0
H328 H 0.06302 0.55742 0.64514 0.0
H329 H 0.95047 0.45502 0.81736 0.0
H330 H 0.91346 0.43661 0.76412 0.0
H331 H 0.91402 0.48969 0.78637 0.0
C332 C 0.48852 0.0224 0.12775 0.0
C333 C 0.45411 0.99686 0.13226 0.0
C334 C 0.51607 0.01864 0.08019 0.0
C335 C 0.50852 0.98926 0.03515 0.0
C336 C 0.47433 0.9627 0.04015 0.0
C337 C 0.44773 0.96651 0.08912 0.0
C338 C 0.5526 0.04703 0.07725 0.0
C339 C 0.46478 0.9316 0.99243 0.0
C340 C 0.55382 0.0194 0.88597 0.0
C341 C 0.58926 0.99536 0.88372 0.0
C342 C 0.5262 0.01606 0.93354 0.0
C343 C 0.53479 0.98877 0.9809 0.0
C344 C 0.57005 0.96363 0.97815 0.0
C345 C 0.59666 0.96687 0.92909 0.0
C346 C 0.48853 0.04278 0.93403 0.0
C347 C 0.58073 0.93486 0.02836 0.0
H348 H 0.49378 0.04567 0.16133 0.0
H349 H 0.42098 0.94691 0.09228 0.0
H350 H 0.58106 0.02925 0.06987 0.0
H351 H 0.54918 0.0683 0.03906 0.0
H352 H 0.55618 0.06545 0.1185 0.0
H353 H 0.43884 0.91129 0.00498 0.0
H354 H 0.45683 0.94766 0.95045 0.0
H355 H 0.49201 0.91242 0.98313 0.0
H356 H 0.54785 0.04123 0.85064 0.0
H357 H 0.62425 0.9485 0.92763 0.0
H358 H 0.49104 0.06575 0.97023 0.0
H359 H 0.46082 0.02405 0.94303 0.0
H360 H 0.48422 0.05927 0.89121 0.0
H361 H 0.58814 0.95287 0.06886 0.0
H362 H 0.60737 0.91517 0.01741 0.0
H363 H 0.55422 0.91499 0.03941 0.0
C364 C 0.2499 0.92391 0.13026 0.0
C365 C 0.278 0.91427 0.17531 0.0
C366 C 0.21897 0.89607 0.11387 0.0
C367 C 0.21652 0.85751 0.14261 0.0
C368 C 0.24478 0.84771 0.18815 0.0
C369 C 0.27494 0.87626 0.20417 0.0
C370 C 0.18906 0.9078 0.0656 0.0
C371 C 0.24365 0.80672 0.21929 0.0
C372 C 0.11952 0.79266 0.13641 0.0
C373 C 0.12911 0.76481 0.09101 0.0
C374 C 0.14724 0.82372 0.15272 0.0
C375 C 0.18563 0.82655 0.12353 0.0
C376 C 0.19536 0.79856 0.07761 0.0
C377 C 0.16692 0.76826 0.06168 0.0
C378 C 0.13559 0.85332 0.20143 0.0
C379 C 0.23616 0.8001 0.04596 0.0
H380 H 0.25187 0.95333 0.1081 0.0
H381 H 0.29659 0.86844 0.2389 0.0
H382 H 0.19223 0.88668 0.02721 0.0
H383 H 0.15722 0.9048 0.0823 0.0
H384 H 0.19385 0.93964 0.04964 0.0
H385 H 0.26746 0.80411 0.2544 0.0
H386 H 0.21321 0.80174 0.24 0.0
H387 H 0.24836 0.78183 0.1864 0.0
H388 H 0.09025 0.79039 0.15894 0.0
H389 H 0.17468 0.74681 0.02666 0.0
H390 H 0.13835 0.88526 0.18504 0.0
H391 H 0.15691 0.85007 0.23957 0.0
H392 H 0.10384 0.84829 0.21767 0.0
H393 H 0.24085 0.83068 0.02557 0.0
H394 H 0.2387 0.77652 0.01053 0.0
H395 H 0.26128 0.79535 0.07848 0.0
C396 C 0.24946 0.11841 0.38599 0.0
C397 C 0.27839 0.12863 0.34225 0.0
C398 C 0.21854 0.14616 0.40232 0.0
C399 C 0.21699 0.18522 0.37494 0.0
C400 C 0.24616 0.19563 0.33081 0.0
C401 C 0.27626 0.16716 0.31473 0.0
C402 C 0.18764 0.13377 0.44902 0.0
C403 C 0.24604 0.23716 0.3012 0.0
C404 C 0.12054 0.25049 0.37964 0.0
C405 C 0.12954 0.27761 0.42627 0.0
C406 C 0.14824 0.21953 0.36337 0.0
C407 C 0.18603 0.216 0.39394 0.0
C408 C 0.19514 0.24319 0.44117 0.0
C409 C 0.16674 0.27344 0.45695 0.0
C410 C 0.13726 0.1908 0.3132 0.0
C411 C 0.23528 0.24087 0.47437 0.0
H412 H 0.25072 0.08859 0.40708 0.0
H413 H 0.29859 0.17541 0.28105 0.0
H414 H 0.19022 0.15427 0.48822 0.0
H415 H 0.15615 0.13712 0.43118 0.0
H416 H 0.19189 0.10166 0.46408 0.0
H417 H 0.27056 0.24027 0.26718 0.0
H418 H 0.21607 0.24266 0.27945 0.0
H419 H 0.2503 0.26145 0.33519 0.0
H420 H 0.09175 0.2533 0.35603 0.0
H421 H 0.17406 0.29429 0.49297 0.0
H422 H 0.13947 0.15859 0.32852 0.0
H423 H 0.15929 0.19463 0.27599 0.0
H424 H 0.10585 0.19623 0.29599 0.0
H425 H 0.23929 0.20992 0.49377 0.0
H426 H 0.23734 0.26381 0.51078 0.0
H427 H 0.26108 0.24607 0.44306 0.0
C428 C 0.7685 0.16596 0.70368 0.0
C429 C 0.76578 0.12781 0.67522 0.0
C430 C 0.79865 0.19456 0.68767 0.0
C431 C 0.82724 0.18464 0.64259 0.0
C432 C 0.82512 0.14593 0.61427 0.0
C433 C 0.79419 0.11806 0.6306 0.0
C434 C 0.79941 0.2357 0.71834 0.0
C435 C 0.85539 0.13408 0.56651 0.0
C436 C 0.87711 0.27366 0.5613 0.0
C437 C 0.91471 0.27738 0.59108 0.0
C438 C 0.84866 0.24335 0.5772 0.0
C439 C 0.85816 0.21561 0.62357 0.0
C440 C 0.89634 0.2187 0.65322 0.0
C441 C 0.92407 0.24976 0.63691 0.0
C442 C 0.80809 0.24152 0.54504 0.0
C443 C 0.90774 0.18938 0.70242 0.0
H444 H 0.7466 0.17385 0.73806 0.0
H445 H 0.79247 0.08852 0.60876 0.0
H446 H 0.82969 0.24089 0.7394 0.0
H447 H 0.79486 0.26042 0.68509 0.0
H448 H 0.77535 0.23841 0.75309 0.0
H449 H 0.8508 0.10215 0.55083 0.0
H450 H 0.85243 0.15501 0.52786 0.0
H451 H 0.88711 0.13724 0.5836 0.0
H452 H 0.86952 0.29492 0.52595 0.0
H453 H 0.95318 0.25223 0.65979 0.0
H454 H 0.78273 0.24634 0.57717 0.0
H455 H 0.80364 0.21082 0.52494 0.0
H456 H 0.80572 0.26492 0.5093 0.0
H457 H 0.88615 0.19275 0.74024 0.0
H458 H 0.93936 0.19459 0.71901 0.0
H459 H 0.90519 0.15735 0.68636 0.0
C460 C 0.76811 0.87498 0.81348 0.0
C461 C 0.76556 0.91325 0.84162 0.0
C462 C 0.79825 0.84653 0.82948 0.0
C463 C 0.82701 0.85671 0.87422 0.0
C464 C 0.82506 0.89553 0.90223 0.0
C465 C 0.79412 0.92325 0.88592 0.0
C466 C 0.79882 0.80526 0.79917 0.0
C467 C 0.85552 0.90767 0.9496 0.0
C468 C 0.87696 0.76813 0.95581 0.0
C469 C 0.91446 0.76438 0.92573 0.0
C470 C 0.84854 0.79832 0.93992 0.0
C471 C 0.85794 0.8259 0.89324 0.0
C472 C 0.89601 0.82278 0.86329 0.0
C473 C 0.92373 0.79185 0.87961 0.0
C474 C 0.80808 0.80019 0.97244 0.0
C475 C 0.90731 0.85193 0.81374 0.0
H476 H 0.74607 0.8669 0.77935 0.0
H477 H 0.79254 0.95288 0.90751 0.0
H478 H 0.82901 0.80007 0.77787 0.0
H479 H 0.79434 0.78067 0.83267 0.0
H480 H 0.77463 0.80235 0.76466 0.0
H481 H 0.85104 0.93965 0.96506 0.0
H482 H 0.85267 0.88688 0.98846 0.0
H483 H 0.88717 0.90454 0.93224 0.0
H484 H 0.86944 0.74699 0.9914 0.0
H485 H 0.95276 0.78936 0.85648 0.0
H486 H 0.7826 0.79516 0.94058 0.0
H487 H 0.80377 0.83096 0.9923 0.0
H488 H 0.80579 0.77693 0.00841 0.0
H489 H 0.88559 0.84834 0.77613 0.0
H490 H 0.93887 0.84675 0.79693 0.0
H491 H 0.90487 0.88402 0.82953 0.0
loop_
_geom_bond_atom_site_label_1
_geom_bond_atom_site_label_2
_geom_bond_distance
_geom_bond_site_symmetry_2
_ccdc_geom_bond_type
Co0 O2 2.143 1_556 S
Co0 O8 2.079 . S
Co0 O11 2.088 1_556 S
Co0 O24 2.089 1_556 S
Co0 N41 2.158 . S
Co0 N49 2.214 1_556 S
Co1 O2 2.160 1_655 S
Co1 O7 2.058 1_554 S
Co1 O17 2.057 1_554 S
Co1 O32 2.037 . S
Co1 N36 2.145 . S
Co1 N57 2.257 . S
O2 Co0 2.143 1_554 S
O2 Co1 2.160 1_455 S
C3 O4 1.278 . S
C3 O11 1.224 . S
O4 C3 1.278 . S
C5 O6 1.245 . S
C5 O17 1.232 . S
O6 C5 1.245 . S
O7 Co1 2.058 1_556 S
O7 C33 1.269 1_655 S
O8 Co0 2.079 . S
O8 C33 1.257 . S
H9 C34 0.930 . S
H10 C40 0.930 . S
O11 Co0 2.088 1_554 S
O11 C3 1.224 . S
H12 C44 0.929 . S
H13 C46 0.930 . S
H14 C47 0.930 . S
H15 C45 0.929 . S
H16 C48 0.928 . S
O17 Co1 2.057 1_556 S
O17 C5 1.232 . S
H18 C37 0.929 . S
H19 C38 0.931 . S
H20 C50 0.931 . S
H21 C42 0.929 . S
H22 C51 0.930 . S
H23 C43 0.931 . S
O24 Co0 2.089 1_554 S
O24 C52 1.214 . S
H25 C53 0.929 . S
H26 C54 0.929 . S
H27 C55 0.930 . S
H28 C56 0.929 . S
H29 C58 0.930 . S
H30 C35 0.930 . S
H31 C39 0.930 . S
O32 Co1 2.037 . S
O32 C52 1.234 1_655 S
C33 O7 1.269 1_455 S
C33 O8 1.257 . S
C34 H9 0.930 . S
C34 C37 1.388 . S
C34 C39 1.418 . S
C35 H30 0.930 . S
C35 C38 1.404 . S
C35 C39 1.353 . S
N36 Co1 2.145 . S
N36 C37 1.397 . S
N36 C38 1.334 . S
C37 H18 0.929 . S
C37 C34 1.388 . S
C37 N36 1.397 . S
C38 H19 0.931 . S
C38 C35 1.404 . S
C38 N36 1.334 . S
C39 H31 0.930 . S
C39 C34 1.418 . S
C39 C35 1.353 . S
C40 H10 0.930 . S
C40 N41 1.330 . S
C40 C42 1.446 . S
N41 Co0 2.158 . S
N41 C40 1.330 . S
N41 C45 1.418 . S
C42 H21 0.929 . S
C42 C40 1.446 . S
C42 C43 1.332 . S
C43 H23 0.931 . S
C43 C42 1.332 . S
C43 C44 1.267 . S
C44 H12 0.929 . S
C44 C43 1.267 . S
C44 C45 1.251 . S
C45 H15 0.929 . S
C45 N41 1.418 . S
C45 C44 1.251 . S
C46 H13 0.930 . S
C46 C48 1.406 . S
C46 C51 1.261 . S
C47 H14 0.930 . S
C47 N49 1.325 . S
C47 C50 1.357 . S
C48 H16 0.928 . S
C48 C46 1.406 . S
C48 N49 1.261 1_556 S
N49 Co0 2.214 1_554 S
N49 C47 1.325 . S
N49 C48 1.261 1_554 S
C50 H20 0.931 . S
C50 C47 1.357 . S
C50 C51 1.312 1_554 S
C51 H22 0.930 . S
C51 C46 1.261 . S
C51 C50 1.312 1_556 S
C52 O24 1.214 . S
C52 O32 1.234 1_455 S
C53 H25 0.929 . S
C53 C56 1.391 . S
C53 C58 1.391 . S
C54 H26 0.929 . S
C54 C55 1.390 . S
C54 N57 1.391 . S
C55 H27 0.930 . S
C55 C54 1.390 . S
C55 C56 1.392 . S
C56 H28 0.929 . S
C56 C53 1.391 . S
C56 C55 1.392 . S
N57 Co1 2.257 . S
N57 C54 1.391 . S
N57 C58 1.388 . S
C58 H29 0.930 . S
C58 C53 1.391 . S
C58 N57 1.388 . S
Co59 O61 2.143 1_565 S
Co59 O67 2.074 . S
Co59 O70 2.093 . S
Co59 O83 2.097 . S
Co59 N100 2.151 . S
Co59 N108 2.214 . S
Co60 O61 2.160 . S
Co60 O66 2.058 . S
Co60 O76 2.057 . S
Co60 O91 2.037 . S
Co60 N95 2.145 . S
Co60 N116 2.257 . S
O61 Co59 2.143 1_545 S
O61 Co60 2.160 . S
C62 O63 1.278 . S
C62 O70 1.224 . S
O63 C62 1.278 . S
C64 O65 1.245 . S
C64 O76 1.232 . S
O65 C64 1.245 . S
O66 Co60 2.058 . S
O66 C92 1.269 . S
O67 Co59 2.074 . S
O67 C92 1.257 1_565 S
H68 C93 0.930 . S
H69 C99 0.930 . S
O70 Co59 2.093 . S
O70 C62 1.224 . S
H71 C103 0.929 . S
H72 C105 0.930 . S
H73 C106 0.930 . S
H74 C104 0.929 . S
H75 C107 0.928 . S
O76 Co60 2.057 . S
O76 C64 1.232 . S
H77 C96 0.929 . S
H78 C97 0.929 . S
H79 C109 0.931 . S
H80 C101 0.929 . S
H81 C110 0.930 . S
H82 C102 0.931 . S
O83 Co59 2.097 . S
O83 C111 1.214 1_565 S
H84 C112 0.929 . S
H85 C113 0.929 . S
H86 C114 0.930 . S
H87 C115 0.929 . S
H88 C117 0.930 . S
H89 C94 0.930 . S
H90 C98 0.930 . S
O91 Co60 2.037 . S
O91 C111 1.234 . S
C92 O66 1.269 . S
C92 O67 1.257 1_545 S
C93 H68 0.930 . S
C93 C96 1.388 . S
C93 C98 1.418 . S
C94 H89 0.930 . S
C94 C97 1.404 . S
C94 C98 1.353 . S
N95 Co60 2.145 . S
N95 C96 1.397 . S
N95 C97 1.334 . S
C96 H77 0.929 . S
C96 C93 1.388 . S
C96 N95 1.397 . S
C97 H78 0.929 . S
C97 C94 1.404 . S
C97 N95 1.334 . S
C98 H90 0.930 . S
C98 C93 1.418 . S
C98 C94 1.353 . S
C99 H69 0.930 . S
C99 N100 1.330 . S
C99 C101 1.446 . S
N100 Co59 2.151 . S
N100 C99 1.330 . S
N100 C104 1.418 . S
C101 H80 0.929 . S
C101 C99 1.446 . S
C101 C102 1.332 . S
C102 H82 0.931 . S
C102 C101 1.332 . S
C102 C103 1.267 . S
C103 H71 0.929 . S
C103 C102 1.267 . S
C103 C104 1.251 . S
C104 H74 0.929 . S
C104 N100 1.418 . S
C104 C103 1.251 . S
C105 H72 0.930 . S
C105 C107 1.406 . S
C105 C110 1.261 . S
C106 H73 0.930 . S
C106 N108 1.325 . S
C106 C109 1.357 . S
C107 H75 0.928 . S
C107 C105 1.406 . S
C107 N108 1.261 . S
N108 Co59 2.214 . S
N108 C106 1.325 . S
N108 C107 1.261 . S
C109 H79 0.931 . S
C109 C106 1.357 . S
C109 C110 1.312 . S
C110 H81 0.930 . S
C110 C105 1.261 . S
C110 C109 1.312 . S
C111 O83 1.214 1_545 S
C111 O91 1.234 . S
C112 H84 0.929 . S
C112 C115 1.391 . S
C112 C117 1.391 . S
C113 H85 0.929 . S
C113 C114 1.390 . S
C113 N116 1.391 . S
C114 H86 0.930 . S
C114 C113 1.390 . S
C114 C115 1.392 . S
C115 H87 0.929 . S
C115 C112 1.391 . S
C115 C114 1.392 . S
N116 Co60 2.257 . S
N116 C113 1.391 . S
N116 C117 1.388 . S
C117 H88 0.930 . S
C117 C112 1.391 . S
C117 N116 1.388 . S
Co118 O120 2.143 1_655 S
Co118 O126 2.074 . S
Co118 O129 2.093 . S
Co118 O142 2.097 . S
Co118 N159 2.151 . S
Co118 N167 2.214 . S
Co119 O120 2.160 . S
Co119 O125 2.058 . S
Co119 O135 2.057 . S
Co119 O150 2.037 . S
Co119 N154 2.145 . S
Co119 N175 2.257 . S
O120 Co118 2.143 1_455 S
O120 Co119 2.160 . S
C121 O122 1.278 . S
C121 O129 1.224 . S
O122 C121 1.278 . S
C123 O124 1.245 . S
C123 O135 1.232 . S
O124 C123 1.245 . S
O125 Co119 2.058 . S
O125 C151 1.269 . S
O126 Co118 2.074 . S
O126 C151 1.257 1_655 S
H127 C152 0.930 . S
H128 C158 0.930 . S
O129 Co118 2.093 . S
O129 C121 1.224 . S
H130 C162 0.929 . S
H131 C164 0.930 . S
H132 C165 0.930 . S
H133 C163 0.929 . S
H134 C166 0.928 . S
O135 Co119 2.057 . S
O135 C123 1.232 . S
H136 C155 0.929 . S
H137 C156 0.929 . S
H138 C168 0.931 . S
H139 C160 0.929 . S
H140 C169 0.930 . S
H141 C161 0.931 . S
O142 Co118 2.097 . S
O142 C170 1.214 1_655 S
H143 C171 0.929 . S
H144 C172 0.929 . S
H145 C173 0.930 . S
H146 C174 0.929 . S
H147 C176 0.930 . S
H148 C153 0.930 . S
H149 C157 0.930 . S
O150 Co119 2.037 . S
O150 C170 1.234 . S
C151 O125 1.269 . S
C151 O126 1.257 1_455 S
C152 H127 0.930 . S
C152 C155 1.388 . S
C152 C157 1.418 . S
C153 H148 0.930 . S
C153 C156 1.404 . S
C153 C157 1.353 . S
N154 Co119 2.145 . S
N154 C155 1.397 . S
N154 C156 1.334 . S
C155 H136 0.929 . S
C155 C152 1.388 . S
C155 N154 1.397 . S
C156 H137 0.929 . S
C156 C153 1.404 . S
C156 N154 1.334 . S
C157 H149 0.930 . S
C157 C152 1.418 . S
C157 C153 1.353 . S
C158 H128 0.930 . S
C158 N159 1.330 . S
C158 C160 1.446 . S
N159 Co118 2.151 . S
N159 C158 1.330 . S
N159 C163 1.418 . S
C160 H139 0.929 . S
C160 C158 1.446 . S
C160 C161 1.332 . S
C161 H141 0.931 . S
C161 C160 1.332 . S
C161 C162 1.267 . S
C162 H130 0.929 . S
C162 C161 1.267 . S
C162 C163 1.251 . S
C163 H133 0.929 . S
C163 N159 1.418 . S
C163 C162 1.251 . S
C164 H131 0.930 . S
C164 C166 1.406 . S
C164 C169 1.261 . S
C165 H132 0.930 . S
C165 N167 1.325 . S
C165 C168 1.357 . S
C166 H134 0.928 . S
C166 C164 1.406 . S
C166 N167 1.261 . S
N167 Co118 2.214 . S
N167 C165 1.325 . S
N167 C166 1.261 . S
C168 H138 0.931 . S
C168 C165 1.357 . S
C168 C169 1.312 . S
C169 H140 0.930 . S
C169 C164 1.261 . S
C169 C168 1.312 . S
C170 O142 1.214 1_455 S
C170 O150 1.234 . S
C171 H143 0.929 . S
C171 C174 1.391 . S
C171 C176 1.391 . S
C172 H144 0.929 . S
C172 C173 1.390 . S
C172 N175 1.391 . S
C173 H145 0.930 . S
C173 C172 1.390 . S
C173 C174 1.392 . S
C174 H146 0.929 . S
C174 C171 1.391 . S
C174 C173 1.392 . S
N175 Co119 2.257 . S
N175 C172 1.391 . S
N175 C176 1.388 . S
C176 H147 0.930 . S
C176 C171 1.391 . S
C176 N175 1.388 . S
Co177 O179 2.143 . S
Co177 O185 2.074 . S
Co177 O188 2.093 . S
Co177 O201 2.097 . S
Co177 N218 2.151 . S
Co177 N226 2.214 . S
Co178 O179 2.160 1_565 S
Co178 O184 2.058 . S
Co178 O194 2.057 . S
Co178 O209 2.037 . S
Co178 N213 2.145 . S
Co178 N234 2.257 . S
O179 Co177 2.143 . S
O179 Co178 2.160 1_545 S
C180 O181 1.278 . S
C180 O188 1.224 . S
O181 C180 1.278 . S
C182 O183 1.245 . S
C182 O194 1.232 . S
O183 C182 1.245 . S
O184 Co178 2.058 . S
O184 C210 1.269 1_565 S
O185 Co177 2.074 . S
O185 C210 1.257 . S
H186 C211 0.930 . S
H187 C217 0.930 . S
O188 Co177 2.093 . S
O188 C180 1.224 . S
H189 C221 0.929 . S
H190 C223 0.930 . S
H191 C224 0.930 . S
H192 C222 0.929 . S
H193 C225 0.928 . S
O194 Co178 2.057 . S
O194 C182 1.232 . S
H195 C214 0.929 . S
H196 C215 0.929 . S
H197 C227 0.931 . S
H198 C219 0.929 . S
H199 C228 0.930 . S
H200 C220 0.931 . S
O201 Co177 2.097 . S
O201 C229 1.214 . S
H202 C230 0.929 . S
H203 C231 0.929 . S
H204 C232 0.930 . S
H205 C233 0.929 . S
H206 C235 0.930 . S
H207 C212 0.930 . S
H208 C216 0.930 . S
O209 Co178 2.037 . S
O209 C229 1.234 1_565 S
C210 O184 1.269 1_545 S
C210 O185 1.257 . S
C211 H186 0.930 . S
C211 C214 1.388 . S
C211 C216 1.418 . S
C212 H207 0.930 . S
C212 C215 1.404 . S
C212 C216 1.353 . S
N213 Co178 2.145 . S
N213 C214 1.397 . S
N213 C215 1.334 . S
C214 H195 0.929 . S
C214 C211 1.388 . S
C214 N213 1.397 . S
C215 H196 0.929 . S
C215 C212 1.404 . S
C215 N213 1.334 . S
C216 H208 0.930 . S
C216 C211 1.418 . S
C216 C212 1.353 . S
C217 H187 0.930 . S
C217 N218 1.330 . S
C217 C219 1.446 . S
N218 Co177 2.151 . S
N218 C217 1.330 . S
N218 C222 1.418 . S
C219 H198 0.929 . S
C219 C217 1.446 . S
C219 C220 1.332 . S
C220 H200 0.931 . S
C220 C219 1.332 . S
C220 C221 1.267 . S
C221 H189 0.929 . S
C221 C220 1.267 . S
C221 C222 1.251 . S
C222 H192 0.929 . S
C222 N218 1.418 . S
C222 C221 1.251 . S
C223 H190 0.930 . S
C223 C225 1.406 . S
C223 C228 1.261 . S
C224 H191 0.930 . S
C224 N226 1.325 . S
C224 C227 1.357 . S
C225 H193 0.928 . S
C225 C223 1.406 . S
C225 N226 1.261 . S
N226 Co177 2.214 . S
N226 C224 1.325 . S
N226 C225 1.261 . S
C227 H197 0.931 . S
C227 C224 1.357 . S
C227 C228 1.312 . S
C228 H199 0.930 . S
C228 C223 1.261 . S
C228 C227 1.312 . S
C229 O201 1.214 . S
C229 O209 1.234 1_545 S
C230 H202 0.929 . S
C230 C233 1.391 . S
C230 C235 1.391 . S
C231 H203 0.929 . S
C231 C232 1.390 . S
C231 N234 1.391 . S
C232 H204 0.930 . S
C232 C231 1.390 . S
C232 C233 1.392 . S
C233 H205 0.929 . S
C233 C230 1.391 . S
C233 C232 1.392 . S
N234 Co178 2.257 . S
N234 C231 1.391 . S
N234 C235 1.388 . S
C235 H206 0.930 . S
C235 C230 1.391 . S
C235 N234 1.388 . S
C236 C237 1.391 . S
C236 C238 1.394 . S
C236 H252 0.931 . S
C237 C236 1.391 . S
C237 C241 1.376 1_455 S
C238 C236 1.394 . S
C238 C239 1.369 . S
C238 C242 1.531 . S
C239 C238 1.369 . S
C239 C240 1.410 1_455 S
C239 C247 1.503 . S
C240 C239 1.410 1_655 S
C240 C241 1.392 . S
C240 C243 1.511 . S
C241 C237 1.376 1_655 S
C241 C240 1.392 . S
C241 H253 0.929 . S
C242 C238 1.531 . S
C242 H254 0.960 . S
C242 H255 0.962 . S
C242 H256 0.960 . S
C243 C240 1.511 . S
C243 H257 0.961 . S
C243 H258 0.961 . S
C243 H259 0.961 . S
C244 C245 1.370 . S
C244 C246 1.363 . S
C244 H260 0.931 . S
C245 C244 1.370 . S
C245 C249 1.408 . S
C246 C244 1.363 . S
C246 C247 1.370 . S
C246 C250 1.524 . S
C247 C239 1.503 . S
C247 C246 1.370 . S
C247 C248 1.403 . S
C248 C247 1.403 . S
C248 C249 1.404 . S
C248 C251 1.539 . S
C249 C245 1.408 . S
C249 C248 1.404 . S
C249 H261 0.930 . S
C250 C246 1.524 . S
C250 H262 0.956 . S
C250 H263 0.961 1_455 S
C250 H264 0.961 . S
C251 C248 1.539 . S
C251 H265 0.958 . S
C251 H266 0.961 1_455 S
C251 H267 0.960 1_455 S
H252 C236 0.931 . S
H253 C241 0.929 . S
H254 C242 0.960 . S
H255 C242 0.962 . S
H256 C242 0.960 . S
H257 C243 0.961 . S
H258 C243 0.961 . S
H259 C243 0.961 . S
H260 C244 0.931 . S
H261 C249 0.930 . S
H262 C250 0.956 . S
H263 C250 0.961 1_655 S
H264 C250 0.961 . S
H265 C251 0.958 . S
H266 C251 0.961 1_655 S
H267 C251 0.960 1_655 S
C268 C269 1.391 . S
C268 C270 1.394 . S
C268 H284 0.931 1_545 S
C269 C268 1.391 . S
C269 C273 1.376 . S
C270 C268 1.394 . S
C270 C271 1.369 . S
C270 C274 1.531 1_545 S
C271 C270 1.369 . S
C271 C272 1.410 . S
C271 C279 1.503 . S
C272 C271 1.410 . S
C272 C273 1.392 . S
C272 C275 1.511 . S
C273 C269 1.376 . S
C273 C272 1.392 . S
C273 H285 0.929 . S
C274 C270 1.531 1_565 S
C274 H286 0.974 . S
C274 H287 0.962 . S
C274 H288 0.960 . S
C275 C272 1.511 . S
C275 H289 0.961 . S
C275 H290 0.961 . S
C275 H291 0.961 . S
C276 C277 1.370 1_565 S
C276 C278 1.363 . S
C276 H292 0.931 . S
C277 C276 1.370 1_545 S
C277 C281 1.408 . S
C278 C276 1.363 . S
C278 C279 1.370 1_565 S
C278 C282 1.524 . S
C279 C271 1.503 . S
C279 C278 1.370 1_545 S
C279 C280 1.403 . S
C280 C279 1.403 . S
C280 C281 1.404 . S
C280 C283 1.539 . S
C281 C277 1.408 . S
C281 C280 1.404 . S
C281 H293 0.930 . S
C282 C278 1.524 . S
C282 H294 0.956 . S
C282 H295 0.961 . S
C282 H296 0.961 . S
C283 C280 1.539 . S
C283 H297 0.958 . S
C283 H298 0.961 . S
C283 H299 0.960 . S
H284 C268 0.931 1_565 S
H285 C273 0.929 . S
H286 C274 0.974 . S
H287 C274 0.962 . S
H288 C274 0.960 . S
H289 C275 0.961 . S
H290 C275 0.961 . S
H291 C275 0.961 . S
H292 C276 0.931 . S
H293 C281 0.930 . S
H294 C282 0.956 . S
H295 C282 0.961 . S
H296 C282 0.961 . S
H297 C283 0.958 . S
H298 C283 0.961 . S
H299 C283 0.960 . S
C300 C301 1.391 . S
C300 C302 1.394 . S
C300 H316 0.931 . S
C301 C300 1.391 . S
C301 C305 1.376 1_455 S
C302 C300 1.394 . S
C302 C303 1.369 . S
C302 C306 1.531 . S
C303 C302 1.369 . S
C303 C304 1.410 1_455 S
C303 C311 1.503 . S
C304 C303 1.410 1_655 S
C304 C305 1.392 . S
C304 C307 1.511 . S
C305 C301 1.376 1_655 S
C305 C304 1.392 . S
C305 H317 0.929 . S
C306 C302 1.531 . S
C306 H318 0.960 . S
C306 H319 0.962 . S
C306 H320 0.960 . S
C307 C304 1.511 . S
C307 H321 0.961 . S
C307 H322 0.961 . S
C307 H323 0.961 . S
C308 C309 1.370 . S
C308 C310 1.363 . S
C308 H324 0.931 . S
C309 C308 1.370 . S
C309 C313 1.408 1_455 S
C310 C308 1.363 . S
C310 C311 1.370 . S
C310 C314 1.524 . S
C311 C303 1.503 . S
C311 C310 1.370 . S
C311 C312 1.403 . S
C312 C311 1.403 . S
C312 C313 1.404 1_455 S
C312 C315 1.539 1_455 S
C313 C309 1.408 1_655 S
C313 C312 1.404 1_655 S
C313 H325 0.930 . S
C314 C310 1.524 . S
C314 H326 0.956 . S
C314 H327 0.961 1_455 S
C314 H328 0.961 . S
C315 C312 1.539 1_655 S
C315 H329 0.958 1_655 S
C315 H330 0.961 . S
C315 H331 0.960 . S
H316 C300 0.931 . S
H317 C305 0.929 . S
H318 C306 0.960 . S
H319 C306 0.962 . S
H320 C306 0.960 . S
H321 C307 0.961 . S
H322 C307 0.961 . S
H323 C307 0.961 . S
H324 C308 0.931 . S
H325 C313 0.930 . S
H326 C314 0.956 . S
H327 C314 0.961 1_655 S
H328 C314 0.961 . S
H329 C315 0.958 1_455 S
H330 C315 0.961 . S
H331 C315 0.960 . S
C332 C333 1.391 . S
C332 C334 1.394 . S
C332 H348 0.931 . S
C333 C332 1.391 . S
C333 C337 1.376 1_545 S
C334 C332 1.394 . S
C334 C335 1.369 . S
C334 C338 1.531 . S
C335 C334 1.369 . S
C335 C336 1.410 1_545 S
C335 C343 1.503 1_554 S
C336 C335 1.410 1_565 S
C336 C337 1.392 . S
C336 C339 1.511 . S
C337 C333 1.376 1_565 S
C337 C336 1.392 . S
C337 H349 0.929 . S
C338 C334 1.531 . S
C338 H350 0.960 1_554 S
C338 H351 0.962 1_554 S
C338 H352 0.960 . S
C339 C336 1.511 . S
C339 H353 0.961 . S
C339 H354 0.961 . S
C339 H355 0.961 . S
C340 C341 1.370 1_565 S
C340 C342 1.363 . S
C340 H356 0.931 . S
C341 C340 1.370 1_545 S
C341 C345 1.408 . S
C342 C340 1.363 . S
C342 C343 1.370 1_565 S
C342 C346 1.524 . S
C343 C335 1.503 1_556 S
C343 C342 1.370 1_545 S
C343 C344 1.403 . S
C344 C343 1.403 . S
C344 C345 1.404 . S
C344 C347 1.539 1_556 S
C345 C341 1.408 . S
C345 C344 1.404 . S
C345 H357 0.930 . S
C346 C342 1.524 . S
C346 H358 0.956 . S
C346 H359 0.961 . S
C346 H360 0.961 . S
C347 C344 1.539 1_554 S
C347 H361 0.958 . S
C347 H362 0.961 . S
C347 H363 0.960 . S
H348 C332 0.931 . S
H349 C337 0.929 . S
H350 C338 0.960 1_556 S
H351 C338 0.962 1_556 S
H352 C338 0.960 . S
H353 C339 0.961 . S
H354 C339 0.961 . S
H355 C339 0.961 . S
H356 C340 0.931 . S
H357 C345 0.930 . S
H358 C346 0.956 . S
H359 C346 0.961 . S
H360 C346 0.961 . S
H361 C347 0.958 . S
H362 C347 0.961 . S
H363 C347 0.960 . S
C364 C365 1.391 . S
C364 C366 1.394 . S
C364 H380 0.931 . S
C365 C364 1.391 . S
C365 C369 1.376 . S
C366 C364 1.394 . S
C366 C367 1.369 . S
C366 C370 1.531 . S
C367 C366 1.369 . S
C367 C368 1.410 . S
C367 C375 1.503 . S
C368 C367 1.410 . S
C368 C369 1.392 . S
C368 C371 1.511 . S
C369 C365 1.376 . S
C369 C368 1.392 . S
C369 H381 0.929 . S
C370 C366 1.531 . S
C370 H382 0.960 . S
C370 H383 0.962 . S
C370 H384 0.960 . S
C371 C368 1.511 . S
C371 H385 0.961 . S
C371 H386 0.961 . S
C371 H387 0.961 . S
C372 C373 1.370 . S
C372 C374 1.363 . S
C372 H388 0.931 . S
C373 C372 1.370 . S
C373 C377 1.408 . S
C374 C372 1.363 . S
C374 C375 1.370 . S
C374 C378 1.524 . S
C375 C367 1.503 . S
C375 C374 1.370 . S
C375 C376 1.403 . S
C376 C375 1.403 . S
C376 C377 1.404 . S
C376 C379 1.539 . S
C377 C373 1.408 . S
C377 C376 1.404 . S
C377 H389 0.930 . S
C378 C374 1.524 . S
C378 H390 0.956 . S
C378 H391 0.961 . S
C378 H392 0.961 . S
C379 C376 1.539 . S
C379 H393 0.958 . S
C379 H394 0.961 . S
C379 H395 0.960 . S
H380 C364 0.931 . S
H381 C369 0.929 . S
H382 C370 0.960 . S
H383 C370 0.962 . S
H384 C370 0.960 . S
H385 C371 0.961 . S
H386 C371 0.961 . S
H387 C371 0.961 . S
H388 C372 0.931 . S
H389 C377 0.930 . S
H390 C378 0.956 . S
H391 C378 0.961 . S
H392 C378 0.961 . S
H393 C379 0.958 . S
H394 C379 0.961 . S
H395 C379 0.960 . S
C396 C397 1.391 . S
C396 C398 1.394 . S
C396 H412 0.931 . S
C397 C396 1.391 . S
C397 C401 1.376 . S
C398 C396 1.394 . S
C398 C399 1.369 . S
C398 C402 1.531 . S
C399 C398 1.369 . S
C399 C400 1.410 . S
C399 C407 1.503 . S
C400 C399 1.410 . S
C400 C401 1.392 . S
C400 C403 1.511 . S
C401 C397 1.376 . S
C401 C400 1.392 . S
C401 H413 0.929 . S
C402 C398 1.531 . S
C402 H414 0.960 . S
C402 H415 0.962 . S
C402 H416 0.960 . S
C403 C400 1.511 . S
C403 H417 0.961 . S
C403 H418 0.961 . S
C403 H419 0.961 . S
C404 C405 1.370 . S
C404 C406 1.363 . S
C404 H420 0.931 . S
C405 C404 1.370 . S
C405 C409 1.408 . S
C406 C404 1.363 . S
C406 C407 1.370 . S
C406 C410 1.524 . S
C407 C399 1.503 . S
C407 C406 1.370 . S
C407 C408 1.403 . S
C408 C407 1.403 . S
C408 C409 1.404 . S
C408 C411 1.539 . S
C409 C405 1.408 . S
C409 C408 1.404 . S
C409 H421 0.930 . S
C410 C406 1.524 . S
C410 H422 0.956 . S
C410 H423 0.961 . S
C410 H424 0.961 . S
C411 C408 1.539 . S
C411 H425 0.958 . S
C411 H426 0.961 . S
C411 H427 0.960 . S
H412 C396 0.931 . S
H413 C401 0.929 . S
H414 C402 0.960 . S
H415 C402 0.962 . S
H416 C402 0.960 . S
H417 C403 0.961 . S
H418 C403 0.961 . S
H419 C403 0.961 . S
H420 C404 0.931 . S
H421 C409 0.930 . S
H422 C410 0.956 . S
H423 C410 0.961 . S
H424 C410 0.961 . S
H425 C411 0.958 . S
H426 C411 0.961 . S
H427 C411 0.960 . S
C428 C429 1.391 . S
C428 C430 1.394 . S
C428 H444 0.931 . S
C429 C428 1.391 . S
C429 C433 1.376 . S
C430 C428 1.394 . S
C430 C431 1.369 . S
C430 C434 1.531 . S
C431 C430 1.369 . S
C431 C432 1.410 . S
C431 C439 1.503 . S
C432 C431 1.410 . S
C432 C433 1.392 . S
C432 C435 1.511 . S
C433 C429 1.376 . S
C433 C432 1.392 . S
C433 H445 0.929 . S
C434 C430 1.531 . S
C434 H446 0.960 . S
C434 H447 0.962 . S
C434 H448 0.960 . S
C435 C432 1.511 . S
C435 H449 0.961 . S
C435 H450 0.961 . S
C435 H451 0.961 . S
C436 C437 1.370 . S
C436 C438 1.363 . S
C436 H452 0.931 . S
C437 C436 1.370 . S
C437 C441 1.408 . S
C438 C436 1.363 . S
C438 C439 1.370 . S
C438 C442 1.524 . S
C439 C431 1.503 . S
C439 C438 1.370 . S
C439 C440 1.403 . S
C440 C439 1.403 . S
C440 C441 1.404 . S
C440 C443 1.539 . S
C441 C437 1.408 . S
C441 C440 1.404 . S
C441 H453 0.930 . S
C442 C438 1.524 . S
C442 H454 0.956 . S
C442 H455 0.961 . S
C442 H456 0.961 . S
C443 C440 1.539 . S
C443 H457 0.958 . S
C443 H458 0.961 . S
C443 H459 0.960 . S
H444 C428 0.931 . S
H445 C433 0.929 . S
H446 C434 0.960 . S
H447 C434 0.962 . S
H448 C434 0.960 . S
H449 C435 0.961 . S
H450 C435 0.961 . S
H451 C435 0.961 . S
H452 C436 0.931 . S
H453 C441 0.930 . S
H454 C442 0.956 . S
H455 C442 0.961 . S
H456 C442 0.961 . S
H457 C443 0.958 . S
H458 C443 0.961 . S
H459 C443 0.960 . S
C460 C461 1.391 . S
C460 C462 1.394 . S
C460 H476 0.931 . S
C461 C460 1.391 . S
C461 C465 1.376 . S
C462 C460 1.394 . S
C462 C463 1.369 . S
C462 C466 1.531 . S
C463 C462 1.369 . S
C463 C464 1.410 . S
C463 C471 1.503 . S
C464 C463 1.410 . S
C464 C465 1.392 . S
C464 C467 1.511 . S
C465 C461 1.376 . S
C465 C464 1.392 . S
C465 H477 0.929 . S
C466 C462 1.531 . S
C466 H478 0.960 . S
C466 H479 0.962 . S
C466 H480 0.960 . S
C467 C464 1.511 . S
C467 H481 0.961 . S
C467 H482 0.961 . S
C467 H483 0.961 . S
C468 C469 1.370 . S
C468 C470 1.363 . S
C468 H484 0.931 . S
C469 C468 1.370 . S
C469 C473 1.408 . S
C470 C468 1.363 . S
C470 C471 1.370 . S
C470 C474 1.524 . S
C471 C463 1.503 . S
C471 C470 1.370 . S
C471 C472 1.403 . S
C472 C471 1.403 . S
C472 C473 1.404 . S
C472 C475 1.539 . S
C473 C469 1.408 . S
C473 C472 1.404 . S
C473 H485 0.930 . S
C474 C470 1.524 . S
C474 H486 0.956 . S
C474 H487 0.961 . S
C474 H488 0.961 1_556 S
C475 C472 1.539 . S
C475 H489 0.958 . S
C475 H490 0.961 . S
C475 H491 0.960 . S
H476 C460 0.931 . S
H477 C465 0.929 . S
H478 C466 0.960 . S
H479 C466 0.962 . S
H480 C466 0.960 . S
H481 C467 0.961 . S
H482 C467 0.961 . S
H483 C467 0.961 . S
H484 C468 0.931 . S
H485 C473 0.930 . S
H486 C474 0.956 . S
H487 C474 0.961 . S
H488 C474 0.961 1_554 S
H489 C475 0.958 . S
H490 C475 0.961 . S
H491 C475 0.960 . S
C237 C52 1.646 . S
C245 C151 1.663 . S
C269 C92 1.660 . S
C277 C229 1.658 . S
C301 C33 1.661 . S
C309 C170 1.656 . S
C333 C111 1.661 . S
C341 C210 1.662 . S
C365 C62 1.480 . S
C373 C3 1.488 . S
C397 C64 1.493 . S
C405 C123 1.491 . S
C429 C180 1.491 . S
C437 C121 1.491 . S
C461 C182 1.485 . S
C469 C5 1.494 . S
