# Generated by pormake.
# Topology uni, (4)-cn, num edge types: 1
# Building blocks:
#     Node 0, Type 0, BuildingBlock: NAHDIM_clean_sbu_0, # of connection points: 4
#     Node 1, Type 0, BuildingBlock: NAHDIM_clean_sbu_0, # of connection points: 4
#     Node 2, Type 0, BuildingBlock: NAHDIM_clean_sbu_0, # of connection points: 4
#     Node 3, Type 0, BuildingBlock: NAHDIM_clean_sbu_0, # of connection points: 4
#     Node 4, Type 0, BuildingBlock: NAHDIM_clean_sbu_0, # of connection points: 4
#     Node 5, Type 0, BuildingBlock: NAHDIM_clean_sbu_0, # of connection points: 4
#     Edge 6, Type (0, 0), BuildingBlock: CIFDUS_clean_linker_0, # of connection points: 2
#     Edge 7, Type (0, 0), BuildingBlock: CIFDUS_clean_linker_0, # of connection points: 2
#     Edge 8, Type (0, 0), BuildingBlock: CIFDUS_clean_linker_0, # of connection points: 2
#     Edge 9, Type (0, 0), BuildingBlock: CIFDUS_clean_linker_0, # of connection points: 2
#     Edge 10, Type (0, 0), BuildingBlock: CIFDUS_clean_linker_0, # of connection points: 2
#     Edge 11, Type (0, 0), BuildingBlock: CIFDUS_clean_linker_0, # of connection points: 2
#     Edge 12, Type (0, 0), BuildingBlock: CIFDUS_clean_linker_0, # of connection points: 2
#     Edge 13, Type (0, 0), BuildingBlock: CIFDUS_clean_linker_0, # of connection points: 2
#     Edge 14, Type (0, 0), BuildingBlock: CIFDUS_clean_linker_0, # of connection points: 2
#     Edge 15, Type (0, 0), BuildingBlock: CIFDUS_clean_linker_0, # of connection points: 2
#     Edge 16, Type (0, 0), BuildingBlock: CIFDUS_clean_linker_0, # of connection points: 2
#     Edge 17, Type (0, 0), BuildingBlock: CIFDUS_clean_linker_0, # of connection points: 2
# Relax obj value: 0.045
# Max RMSD: 0.077
# Mean RMSD: 0.077
data_MOF--net-uni--node1-NAHDIM_clean_sbu_0--edge1-CIFDUS_clean_linker_0
_symmetry_space_group_name_H-M    P1
_symmetry_Int_Tables_number       1
_symmetry_cell_setting            triclinic
loop_
_symmetry_equiv_pos_as_xyz
'x, y, z'
_cell_length_a     34.347928
_cell_length_b     34.260365
_cell_length_c     20.505575
_cell_angle_alpha  89.933768
_cell_angle_beta   90.4605
_cell_angle_gamma 120.21977
loop_
_atom_site_label
_atom_site_type_symbol
_atom_site_fract_x
_atom_site_fract_y
_atom_site_fract_z
_atom_type_partial_charge
C0 C 0.65601 0.95485 0.09276 0.0
O1 O 0.66416 0.96518 0.03073 0.0
O2 O 0.69815 0.0804 0.06852 0.0
Zn3 Zn 0.63777 0.02872 0.09418 0.0
O4 O 0.6117 0.04828 0.16592 0.0
C5 C 0.56768 0.02065 0.00641 0.0
O6 O 0.56372 0.04615 0.05057 0.0
O7 O 0.64463 0.9776 0.12854 0.0
C8 C 0.57874 0.01776 0.1975 0.0
O9 O 0.56302 0.97524 0.18155 0.0
C10 C 0.70261 0.1192 0.06022 0.0
O11 O 0.66773 0.12447 0.06959 0.0
O12 O 0.59674 0.00849 0.01507 0.0
C13 C 0.75285 0.68572 0.2346 0.0
O14 O 0.73308 0.70501 0.2641 0.0
O15 O 0.67358 0.70874 0.14699 0.0
Zn16 Zn 0.6708 0.64952 0.16637 0.0
O17 O 0.6334 0.61607 0.24448 0.0
C18 C 0.60158 0.60179 0.07762 0.0
O19 O 0.58561 0.62081 0.11628 0.0
O20 O 0.73307 0.65999 0.18603 0.0
C21 C 0.59973 0.61545 0.27082 0.0
O22 O 0.58468 0.64125 0.24788 0.0
C23 C 0.67008 0.73578 0.18564 0.0
O24 O 0.66423 0.72659 0.2482 0.0
O25 O 0.64136 0.60928 0.08784 0.0
C26 C 0.08559 0.73368 0.40592 0.0
O27 O 0.06722 0.73452 0.34988 0.0
O28 O 0.97108 0.63733 0.36245 0.0
Zn29 Zn 0.02302 0.63487 0.40421 0.0
O30 O 0.00269 0.5946 0.48308 0.0
C31 C 0.05119 0.62079 0.2791 0.0
O32 O 0.04529 0.65455 0.26267 0.0
O33 O 0.0722 0.69616 0.43452 0.0
C34 C 0.99018 0.55285 0.47976 0.0
O35 O 0.98766 0.53452 0.42249 0.0
C36 C 0.95752 0.6641 0.3794 0.0
O37 O 0.97739 0.69187 0.42859 0.0
O38 O 0.0458 0.60802 0.33816 0.0
C39 C 0.35489 0.09273 0.60358 0.0
O40 O 0.3148 0.0619 0.62372 0.0
O41 O 0.3075 0.96989 0.57458 0.0
Zn42 Zn 0.3722 0.01763 0.59198 0.0
O43 O 0.39371 0.01204 0.68157 0.0
C44 C 0.44153 0.03998 0.49364 0.0
O45 O 0.45469 0.0822 0.50814 0.0
O46 O 0.38273 0.0808 0.58578 0.0
C47 C 0.41906 0.99543 0.69121 0.0
O48 O 0.42992 0.97868 0.64161 0.0
C49 C 0.29102 0.93184 0.60282 0.0
O50 O 0.31508 0.92607 0.64782 0.0
O51 O 0.40836 0.00842 0.52355 0.0
C52 C 0.31109 0.40367 0.73893 0.0
O53 O 0.31505 0.37154 0.76774 0.0
O54 O 0.37457 0.35801 0.66229 0.0
Zn55 Zn 0.39501 0.42387 0.67835 0.0
O56 O 0.43794 0.44922 0.75506 0.0
C57 C 0.44864 0.45593 0.55957 0.0
O58 O 0.45544 0.42189 0.56886 0.0
O59 O 0.34102 0.42954 0.69882 0.0
C60 C 0.48053 0.46712 0.75156 0.0
O61 O 0.49899 0.46832 0.69521 0.0
C62 C 0.40097 0.34227 0.66754 0.0
O63 O 0.44325 0.36939 0.68424 0.0
O64 O 0.42401 0.46224 0.59903 0.0
C65 C 0.94891 0.30042 0.93802 0.0
O66 O 0.98246 0.29473 0.92068 0.0
O67 O 0.06017 0.3827 0.88907 0.0
Zn68 Zn 0.00992 0.39537 0.90622 0.0
O69 O 0.02909 0.44297 0.97614 0.0
C70 C 0.98621 0.39663 0.77056 0.0
O71 O 0.98425 0.35735 0.76845 0.0
O72 O 0.95364 0.33965 0.9355 0.0
C73 C 0.04497 0.4844 0.9621 0.0
O74 O 0.05012 0.49662 0.90059 0.0
C75 C 0.09288 0.41036 0.85409 0.0
O76 O 0.09281 0.44612 0.83104 0.0
O77 O -0.00411 0.41819 0.82417 0.0
H78 H 0.51169 0.96035 0.27741 0.0
H79 H 0.59998 0.10221 0.23875 0.0
H80 H 0.56587 0.12171 0.3277 0.0
H81 H 0.51043 0.09836 0.41585 0.0
H82 H 0.42246 0.95625 0.45375 0.0
H83 H 0.45718 0.93712 0.36577 0.0
C84 C 0.52352 0.99557 0.28834 0.0
C85 C 0.55828 0.02973 0.2514 0.0
C86 C 0.50386 0.00654 0.33951 0.0
C87 C 0.57325 0.07519 0.26643 0.0
C88 C 0.55377 0.0864 0.3173 0.0
C89 C 0.49894 0.06321 0.40501 0.0
C90 C 0.46384 0.02885 0.44137 0.0
C91 C 0.519 0.05233 0.35412 0.0
C92 C 0.44937 0.98345 0.42658 0.0
C93 C 0.46918 0.97241 0.3762 0.0
H94 H 0.52935 0.60682 0.34279 0.0
H95 H 0.61737 0.55189 0.31962 0.0
H96 H 0.57769 0.49721 0.40541 0.0
H97 H 0.51804 0.46461 0.48679 0.0
H98 H 0.43101 0.52027 0.51289 0.0
H99 H 0.47015 0.57481 0.42605 0.0
C100 C 0.53989 0.58294 0.35658 0.0
C101 C 0.57624 0.58349 0.32463 0.0
C102 C 0.51701 0.55154 0.40632 0.0
C103 C 0.58954 0.55236 0.34334 0.0
C104 C 0.56681 0.52092 0.39236 0.0
C105 C 0.50745 0.48851 0.47329 0.0
C106 C 0.47156 0.48823 0.50602 0.0
C107 C 0.53044 0.52011 0.42401 0.0
C108 C 0.45859 0.51977 0.48841 0.0
C109 C 0.48095 0.55099 0.43878 0.0
H110 H 0.98771 0.47638 0.75995 0.0
H111 H 0.9722 0.36345 0.64596 0.0
H112 H 0.96868 0.40048 0.54601 0.0
H113 H 0.97487 0.46701 0.49063 0.0
H114 H 0.99184 0.58034 0.60517 0.0
H115 H 0.98948 0.54075 0.70526 0.0
C116 C 0.98324 0.45965 0.71332 0.0
C117 C 0.98058 0.41734 0.71047 0.0
C118 C 0.9816 0.48124 0.65607 0.0
C119 C 0.97453 0.3961 0.64961 0.0
C120 C 0.97256 0.41727 0.59238 0.0
C121 C 0.97757 0.48289 0.53748 0.0
C122 C 0.98385 0.52674 0.54026 0.0
C123 C 0.97676 0.46016 0.59496 0.0
C124 C 0.98721 0.54673 0.60148 0.0
C125 C 0.98596 0.52415 0.65882 0.0
H126 H 0.5012 0.03864 0.97574 0.0
H127 H 0.57301 0.97533 0.90022 0.0
H128 H 0.53146 0.95965 0.79729 0.0
H129 H 0.47763 0.96743 0.72677 0.0
H130 H 0.40639 0.03135 0.80238 0.0
H131 H 0.44464 0.04291 0.90732 0.0
C132 C 0.50765 0.0212 0.93694 0.0
C133 C 0.54044 0.00851 0.9456 0.0
C134 C 0.48379 0.01244 0.87778 0.0
C135 C 0.54808 0.98564 0.89487 0.0
C136 C 0.52436 0.97669 0.8359 0.0
C137 C 0.47017 0.98357 0.76632 0.0
C138 C 0.43937 -0.00125 0.75644 0.0
C139 C 0.49256 0.99046 0.82652 0.0
C140 C 0.43004 0.01946 0.80842 0.0
C141 C 0.45198 0.02618 0.86851 0.0
H142 H 0.62788 0.5748 0.96919 0.0
H143 H 0.51112 0.56358 0.06474 0.0
H144 H 0.46326 0.5188 0.97426 0.0
H145 H 0.45462 0.48568 0.86626 0.0
H146 H 0.57094 0.49902 0.76678 0.0
H147 H 0.61872 0.53979 0.86051 0.0
C148 C 0.59192 0.56221 0.9703 0.0
C149 C 0.57316 0.57265 0.02351 0.0
C150 C 0.56447 0.53696 0.91734 0.0
C151 C 0.52653 0.55633 0.02417 0.0
C152 C 0.49903 0.53063 0.97247 0.0
C153 C 0.49036 0.49714 0.86516 0.0
C154 C 0.50915 0.48935 0.80957 0.0
C155 C 0.51768 0.52119 0.91854 0.0
C156 C 0.55561 0.50471 0.80893 0.0
C157 C 0.58298 0.52805 0.8625 0.0
H158 H 0.04747 0.47301 0.09302 0.0
H159 H 0.06203 0.57083 0.94801 0.0
H160 H 0.06898 0.62334 0.03378 0.0
H161 H 0.06492 0.63905 0.1495 0.0
H162 H 0.05039 0.54117 0.29446 0.0
H163 H 0.05001 0.49145 0.20913 0.0
C164 C 0.05251 0.50595 0.08016 0.0
C165 C 0.05367 0.51773 0.01419 0.0
C166 C 0.05639 0.53598 0.1297 0.0
C167 C 0.06079 0.56078 -0.00161 0.0
C168 C 0.06468 0.59083 0.04742 0.0
C169 C 0.06218 0.60708 0.16253 0.0
C170 C 0.05718 0.5937 0.22823 0.0
C171 C 0.06163 0.57843 0.11318 0.0
C172 C 0.05409 0.5523 0.24426 0.0
C173 C 0.05369 0.5237 0.19547 0.0
H174 H 0.65434 0.79569 0.25067 0.0
H175 H 0.68851 0.7676 0.061 0.0
H176 H 0.68827 0.83337 0.01605 0.0
H177 H 0.67664 0.89785 0.02968 0.0
H178 H 0.6414 0.92542 0.21888 0.0
H179 H 0.64387 0.86097 0.26468 0.0
C180 C 0.66193 0.80404 0.19957 0.0
C181 C 0.67132 0.77664 0.15935 0.0
C182 C 0.66144 0.8418 0.17378 0.0
C183 C 0.681 0.78797 0.09315 0.0
C184 C 0.68088 0.82562 0.0673 0.0
C185 C 0.66962 0.88988 0.08097 0.0
C186 C 0.65878 0.91643 0.12064 0.0
C187 C 0.67086 0.8526 0.10704 0.0
C188 C 0.6498 0.90556 0.18708 0.0
C189 C 0.65119 0.86867 0.21341 0.0
H190 H 0.92289 0.71917 0.39867 0.0
H191 H 0.90789 0.60897 0.27845 0.0
H192 H 0.84517 0.6078 0.22001 0.0
H193 H 0.79255 0.63612 0.20571 0.0
H194 H 0.80716 0.74558 0.32728 0.0
H195 H 0.87221 0.74921 0.3818 0.0
C196 C 0.90598 0.69492 0.35964 0.0
C197 C 0.91995 0.66405 0.34337 0.0
C198 C 0.86985 0.69435 0.32621 0.0
C199 C 0.89776 0.63304 0.29231 0.0
C200 C 0.86187 0.63235 0.25871 0.0
C201 C 0.81028 0.66109 0.24361 0.0
C202 C 0.79488 0.69041 0.26247 0.0
C203 C 0.8474 0.66263 0.27554 0.0
C204 C 0.81814 0.72244 0.31193 0.0
C205 C 0.85533 0.72452 0.34331 0.0
H206 H 0.12534 0.74322 0.52439 0.0
H207 H 0.12674 0.81923 0.35545 0.0
H208 H 0.1881 0.88822 0.404 0.0
H209 H 0.24401 0.92606 0.4919 0.0
H210 H 0.24308 0.84909 0.65937 0.0
H211 H 0.17845 0.78151 0.61413 0.0
C212 C 0.13892 0.77486 0.49812 0.0
C213 C 0.12166 0.77591 0.43607 0.0
C214 C 0.17423 0.81429 0.52616 0.0
C215 C 0.1395 0.81735 0.40313 0.0
C216 C 0.17459 0.85685 0.43088 0.0
C217 C 0.2293 0.89465 0.51893 0.0
C218 C 0.24853 0.89264 0.57885 0.0
C219 C 0.19255 0.85562 0.49207 0.0
C220 C 0.22912 0.85159 0.61305 0.0
C221 C 0.19221 0.81285 0.58713 0.0
H222 H 0.45079 0.30426 0.63533 0.0
H223 H 0.31404 0.27219 0.66918 0.0
H224 H 0.28725 0.19204 0.65047 0.0
H225 H 0.3032 0.13081 0.62784 0.0
H226 H 0.44005 0.16412 0.59011 0.0
H227 H 0.46612 0.24397 0.60642 0.0
C228 C 0.41512 0.27972 0.63865 0.0
C229 C 0.38451 0.29403 0.65422 0.0
C230 C 0.39994 0.2339 0.62696 0.0
C231 C 0.3383 0.26196 0.65733 0.0
C232 C 0.32298 0.21614 0.64672 0.0
C233 C 0.33868 0.15557 0.62282 0.0
C234 C 0.3696 0.14137 0.60822 0.0
C235 C 0.35354 0.20167 0.63194 0.0
C236 C 0.41544 0.17398 0.60135 0.0
C237 C 0.43048 0.21973 0.6109 0.0
H238 H 0.16378 0.46001 0.77482 0.0
H239 H 0.10628 0.3428 0.89951 0.0
H240 H 0.16862 0.33026 0.87477 0.0
H241 H 0.2397 0.35285 0.81802 0.0
H242 H 0.29632 0.46984 0.69274 0.0
H243 H 0.23398 0.48204 0.71749 0.0
C244 C 0.16483 0.43171 0.79669 0.0
C245 C 0.13045 0.40249 0.83907 0.0
C246 C 0.20062 0.42461 0.78213 0.0
C247 C 0.13232 0.36587 0.86672 0.0
C248 C 0.16797 0.35866 0.85262 0.0
C249 C 0.23841 0.381 0.79609 0.0
C250 C 0.27273 0.41038 0.75365 0.0
C251 C 0.20234 0.38786 0.81043 0.0
C252 C 0.27041 0.44664 0.72557 0.0
C253 C 0.23476 0.45372 0.73971 0.0
H254 H 0.87317 0.30113 0.973 0.0
H255 H 0.92779 0.21254 0.95314 0.0
H256 H 0.8566 0.14877 0.98993 0.0
H257 H 0.77876 0.11814 0.02724 0.0
H258 H 0.72435 0.20702 0.04586 0.0
H259 H 0.79571 0.2707 0.01011 0.0
C260 C 0.86961 0.26791 0.97672 0.0
C261 C 0.90583 0.26169 0.96033 0.0
C262 C 0.82862 0.23141 -0.00228 0.0
C263 C 0.90049 0.21833 0.9654 0.0
C264 C 0.85978 0.18182 0.98647 0.0
C265 C 0.78252 0.15145 0.02362 0.0
C266 C 0.74622 0.15775 0.03927 0.0
C267 C 0.82362 0.18797 0.00272 0.0
C268 C 0.75167 0.20114 0.03409 0.0
C269 C 0.79249 0.23763 0.01364 0.0
loop_
_geom_bond_atom_site_label_1
_geom_bond_atom_site_label_2
_geom_bond_distance
_geom_bond_site_symmetry_2
_ccdc_geom_bond_type
C0 O1 1.160 . S
C0 O7 1.185 . S
O1 C0 1.160 . S
O2 Zn3 1.899 . S
O2 C10 1.284 . S
Zn3 O2 1.899 . S
Zn3 O4 2.032 . S
Zn3 O7 2.086 1_545 S
Zn3 O12 1.977 1_544 S
O4 Zn3 2.032 . S
O4 C8 1.278 . S
C5 O6 1.203 . S
C5 O12 1.267 1_545 S
O6 C5 1.203 . S
O7 C0 1.185 . S
O7 Zn3 2.086 1_565 S
C8 O4 1.278 . S
C8 O9 1.211 . S
O9 C8 1.211 . S
C10 O2 1.284 . S
C10 O11 1.273 . S
O11 C10 1.273 . S
O12 Zn3 1.977 1_566 S
O12 C5 1.267 1_565 S
C13 O14 1.160 . S
C13 O20 1.185 . S
O14 C13 1.160 . S
O15 Zn16 1.899 . S
O15 C23 1.284 . S
Zn16 O15 1.899 . S
Zn16 O17 2.032 . S
Zn16 O20 2.086 . S
Zn16 O25 1.977 . S
O17 Zn16 2.032 . S
O17 C21 1.278 . S
C18 O19 1.203 . S
C18 O25 1.267 . S
O19 C18 1.203 . S
O20 C13 1.185 . S
O20 Zn16 2.086 . S
C21 O17 1.278 . S
C21 O22 1.211 . S
O22 C21 1.211 . S
C23 O15 1.284 . S
C23 O24 1.273 . S
O24 C23 1.273 . S
O25 Zn16 1.977 . S
O25 C18 1.267 . S
C26 O27 1.160 . S
C26 O33 1.185 . S
O27 C26 1.160 . S
O28 Zn29 1.899 1_655 S
O28 C36 1.284 . S
Zn29 O28 1.899 1_455 S
Zn29 O30 2.032 . S
Zn29 O33 2.086 . S
Zn29 O38 1.977 . S
O30 Zn29 2.032 . S
O30 C34 1.278 . S
C31 O32 1.203 1_455 S
C31 O38 1.267 . S
O32 C31 1.203 1_655 S
O33 C26 1.185 . S
O33 Zn29 2.086 . S
C34 O30 1.278 . S
C34 O35 1.211 . S
O35 C34 1.211 . S
C36 O28 1.284 . S
C36 O37 1.273 . S
O37 C36 1.273 . S
O38 Zn29 1.977 . S
O38 C31 1.267 . S
C39 O40 1.160 . S
C39 O46 1.185 . S
O40 C39 1.160 . S
O41 Zn42 1.905 . S
O41 C49 1.266 1_545 S
Zn42 O41 1.905 . S
Zn42 O43 2.032 . S
Zn42 O46 2.086 . S
Zn42 O51 1.977 . S
O43 Zn42 2.032 . S
O43 C47 1.278 . S
C44 O45 1.203 1_545 S
C44 O51 1.267 . S
O45 C44 1.203 1_565 S
O46 C39 1.185 . S
O46 Zn42 2.086 . S
C47 O43 1.278 . S
C47 O48 1.211 . S
O48 C47 1.211 . S
C49 O41 1.266 1_565 S
C49 O50 1.273 . S
O50 C49 1.273 . S
O51 Zn42 1.977 . S
O51 C44 1.267 . S
C52 O53 1.160 . S
C52 O59 1.185 . S
O53 C52 1.160 . S
O54 Zn55 1.899 . S
O54 C62 1.284 . S
Zn55 O54 1.899 . S
Zn55 O56 2.032 . S
Zn55 O59 2.086 . S
Zn55 O64 1.977 . S
O56 Zn55 2.032 . S
O56 C60 1.278 . S
C57 O58 1.203 . S
C57 O64 1.267 . S
O58 C57 1.203 . S
O59 C52 1.185 . S
O59 Zn55 2.086 . S
C60 O56 1.278 . S
C60 O61 1.211 . S
O61 C60 1.211 . S
C62 O54 1.284 . S
C62 O63 1.273 . S
O63 C62 1.273 . S
O64 Zn55 1.977 . S
O64 C57 1.267 . S
C65 O66 1.160 . S
C65 O72 1.185 . S
O66 C65 1.160 . S
O67 Zn68 1.899 . S
O67 C75 1.284 . S
Zn68 O67 1.899 . S
Zn68 O69 2.032 . S
Zn68 O72 2.086 1_455 S
Zn68 O77 1.977 1_455 S
O69 Zn68 2.032 . S
O69 C73 1.278 . S
C70 O71 1.203 . S
C70 O77 1.267 1_455 S
O71 C70 1.203 . S
O72 C65 1.185 . S
O72 Zn68 2.086 1_655 S
C73 O69 1.278 . S
C73 O74 1.211 . S
O74 C73 1.211 . S
C75 O67 1.284 . S
C75 O76 1.273 . S
O76 C75 1.273 . S
O77 Zn68 1.977 1_655 S
O77 C70 1.267 1_655 S
H78 C84 0.930 . S
H79 C87 0.930 . S
H80 C88 0.930 . S
H81 C89 0.930 . S
H82 C92 0.930 . S
H83 C93 0.930 . S
C84 H78 0.930 . S
C84 C85 1.355 . S
C84 C86 1.415 . S
C85 C84 1.355 . S
C85 C87 1.419 . S
C86 C84 1.415 . S
C86 C91 1.425 . S
C86 C93 1.409 . S
C87 H79 0.930 . S
C87 C85 1.419 . S
C87 C88 1.362 . S
C88 H80 0.930 . S
C88 C87 1.362 . S
C88 C91 1.409 . S
C89 H81 0.930 . S
C89 C90 1.355 . S
C89 C91 1.415 . S
C90 C89 1.355 . S
C90 C92 1.419 . S
C91 C86 1.425 . S
C91 C88 1.409 . S
C91 C89 1.415 . S
C92 H82 0.930 . S
C92 C90 1.419 . S
C92 C93 1.362 . S
C93 H83 0.930 . S
C93 C86 1.409 . S
C93 C92 1.362 . S
H94 C100 0.930 . S
H95 C103 0.930 . S
H96 C104 0.930 . S
H97 C105 0.930 . S
H98 C108 0.930 . S
H99 C109 0.930 . S
C100 H94 0.930 . S
C100 C101 1.355 . S
C100 C102 1.415 . S
C101 C100 1.355 . S
C101 C103 1.419 . S
C102 C100 1.415 . S
C102 C107 1.425 . S
C102 C109 1.409 . S
C103 H95 0.930 . S
C103 C101 1.419 . S
C103 C104 1.362 . S
C104 H96 0.930 . S
C104 C103 1.362 . S
C104 C107 1.409 . S
C105 H97 0.930 . S
C105 C106 1.355 . S
C105 C107 1.415 . S
C106 C105 1.355 . S
C106 C108 1.419 . S
C107 C102 1.425 . S
C107 C104 1.409 . S
C107 C105 1.415 . S
C108 H98 0.930 . S
C108 C106 1.419 . S
C108 C109 1.362 . S
C109 H99 0.930 . S
C109 C102 1.409 . S
C109 C108 1.362 . S
H110 C116 0.930 . S
H111 C119 0.930 . S
H112 C120 0.930 . S
H113 C121 0.930 . S
H114 C124 0.930 . S
H115 C125 0.930 . S
C116 H110 0.930 . S
C116 C117 1.355 . S
C116 C118 1.415 . S
C117 C116 1.355 . S
C117 C119 1.419 . S
C118 C116 1.415 . S
C118 C123 1.425 . S
C118 C125 1.409 . S
C119 H111 0.930 . S
C119 C117 1.419 . S
C119 C120 1.362 . S
C120 H112 0.930 . S
C120 C119 1.362 . S
C120 C123 1.409 . S
C121 H113 0.930 . S
C121 C122 1.355 . S
C121 C123 1.415 . S
C122 C121 1.355 . S
C122 C124 1.419 . S
C123 C118 1.425 . S
C123 C120 1.409 . S
C123 C121 1.415 . S
C124 H114 0.930 . S
C124 C122 1.419 . S
C124 C125 1.362 . S
C125 H115 0.930 . S
C125 C118 1.409 . S
C125 C124 1.362 . S
H126 C132 0.930 . S
H127 C135 0.930 . S
H128 C136 0.930 . S
H129 C137 0.930 . S
H130 C140 0.930 . S
H131 C141 0.930 . S
C132 H126 0.930 . S
C132 C133 1.355 . S
C132 C134 1.415 . S
C133 C132 1.355 . S
C133 C135 1.419 1_545 S
C134 C132 1.415 . S
C134 C139 1.425 1_545 S
C134 C141 1.409 . S
C135 H127 0.930 . S
C135 C133 1.419 1_565 S
C135 C136 1.362 . S
C136 H128 0.930 . S
C136 C135 1.362 . S
C136 C139 1.409 . S
C137 H129 0.930 . S
C137 C138 1.355 1_565 S
C137 C139 1.415 . S
C138 C137 1.355 1_545 S
C138 C140 1.419 . S
C139 C134 1.425 1_565 S
C139 C136 1.409 . S
C139 C137 1.415 . S
C140 H130 0.930 . S
C140 C138 1.419 . S
C140 C141 1.362 . S
C141 H131 0.930 . S
C141 C134 1.409 . S
C141 C140 1.362 . S
H142 C148 0.930 . S
H143 C151 0.930 . S
H144 C152 0.930 . S
H145 C153 0.930 . S
H146 C156 0.930 . S
H147 C157 0.930 . S
C148 H142 0.930 . S
C148 C149 1.355 . S
C148 C150 1.415 1_554 S
C149 C148 1.355 . S
C149 C151 1.419 . S
C150 C148 1.415 1_556 S
C150 C155 1.425 . S
C150 C157 1.409 . S
C151 H143 0.930 . S
C151 C149 1.419 . S
C151 C152 1.362 . S
C152 H144 0.930 . S
C152 C151 1.362 . S
C152 C155 1.409 1_554 S
C153 H145 0.930 . S
C153 C154 1.355 . S
C153 C155 1.415 . S
C154 C153 1.355 . S
C154 C156 1.419 . S
C155 C150 1.425 . S
C155 C152 1.409 1_556 S
C155 C153 1.415 . S
C156 H146 0.930 . S
C156 C154 1.419 . S
C156 C157 1.362 . S
C157 H147 0.930 . S
C157 C150 1.409 . S
C157 C156 1.362 . S
H158 C164 0.930 . S
H159 C167 0.930 1_556 S
H160 C168 0.930 . S
H161 C169 0.930 . S
H162 C172 0.930 . S
H163 C173 0.930 . S
C164 H158 0.930 . S
C164 C165 1.355 . S
C164 C166 1.415 . S
C165 C164 1.355 . S
C165 C167 1.419 . S
C166 C164 1.415 . S
C166 C171 1.425 . S
C166 C173 1.409 . S
C167 H159 0.930 1_554 S
C167 C165 1.419 . S
C167 C168 1.362 . S
C168 H160 0.930 . S
C168 C167 1.362 . S
C168 C171 1.409 . S
C169 H161 0.930 . S
C169 C170 1.355 . S
C169 C171 1.415 . S
C170 C169 1.355 . S
C170 C172 1.419 . S
C171 C166 1.425 . S
C171 C168 1.409 . S
C171 C169 1.415 . S
C172 H162 0.930 . S
C172 C170 1.419 . S
C172 C173 1.362 . S
C173 H163 0.930 . S
C173 C166 1.409 . S
C173 C172 1.362 . S
H174 C180 0.930 . S
H175 C183 0.930 . S
H176 C184 0.930 . S
H177 C185 0.930 . S
H178 C188 0.930 . S
H179 C189 0.930 . S
C180 H174 0.930 . S
C180 C181 1.355 . S
C180 C182 1.415 . S
C181 C180 1.355 . S
C181 C183 1.419 . S
C182 C180 1.415 . S
C182 C187 1.425 . S
C182 C189 1.409 . S
C183 H175 0.930 . S
C183 C181 1.419 . S
C183 C184 1.362 . S
C184 H176 0.930 . S
C184 C183 1.362 . S
C184 C187 1.409 . S
C185 H177 0.930 . S
C185 C186 1.355 . S
C185 C187 1.415 . S
C186 C185 1.355 . S
C186 C188 1.419 . S
C187 C182 1.425 . S
C187 C184 1.409 . S
C187 C185 1.415 . S
C188 H178 0.930 . S
C188 C186 1.419 . S
C188 C189 1.362 . S
C189 H179 0.930 . S
C189 C182 1.409 . S
C189 C188 1.362 . S
H190 C196 0.930 . S
H191 C199 0.930 . S
H192 C200 0.930 . S
H193 C201 0.930 . S
H194 C204 0.930 . S
H195 C205 0.930 . S
C196 H190 0.930 . S
C196 C197 1.355 . S
C196 C198 1.415 . S
C197 C196 1.355 . S
C197 C199 1.419 . S
C198 C196 1.415 . S
C198 C203 1.425 . S
C198 C205 1.409 . S
C199 H191 0.930 . S
C199 C197 1.419 . S
C199 C200 1.362 . S
C200 H192 0.930 . S
C200 C199 1.362 . S
C200 C203 1.409 . S
C201 H193 0.930 . S
C201 C202 1.355 . S
C201 C203 1.415 . S
C202 C201 1.355 . S
C202 C204 1.419 . S
C203 C198 1.425 . S
C203 C200 1.409 . S
C203 C201 1.415 . S
C204 H194 0.930 . S
C204 C202 1.419 . S
C204 C205 1.362 . S
C205 H195 0.930 . S
C205 C198 1.409 . S
C205 C204 1.362 . S
H206 C212 0.930 . S
H207 C215 0.930 . S
H208 C216 0.930 . S
H209 C217 0.930 . S
H210 C220 0.930 . S
H211 C221 0.930 . S
C212 H206 0.930 . S
C212 C213 1.355 . S
C212 C214 1.415 . S
C213 C212 1.355 . S
C213 C215 1.419 . S
C214 C212 1.415 . S
C214 C219 1.425 . S
C214 C221 1.409 . S
C215 H207 0.930 . S
C215 C213 1.419 . S
C215 C216 1.362 . S
C216 H208 0.930 . S
C216 C215 1.362 . S
C216 C219 1.409 . S
C217 H209 0.930 . S
C217 C218 1.355 . S
C217 C219 1.415 . S
C218 C217 1.355 . S
C218 C220 1.419 . S
C219 C214 1.425 . S
C219 C216 1.409 . S
C219 C217 1.415 . S
C220 H210 0.930 . S
C220 C218 1.419 . S
C220 C221 1.362 . S
C221 H211 0.930 . S
C221 C214 1.409 . S
C221 C220 1.362 . S
H222 C228 0.930 . S
H223 C231 0.930 . S
H224 C232 0.930 . S
H225 C233 0.930 . S
H226 C236 0.930 . S
H227 C237 0.930 . S
C228 H222 0.930 . S
C228 C229 1.355 . S
C228 C230 1.415 . S
C229 C228 1.355 . S
C229 C231 1.419 . S
C230 C228 1.415 . S
C230 C235 1.425 . S
C230 C237 1.409 . S
C231 H223 0.930 . S
C231 C229 1.419 . S
C231 C232 1.362 . S
C232 H224 0.930 . S
C232 C231 1.362 . S
C232 C235 1.409 . S
C233 H225 0.930 . S
C233 C234 1.355 . S
C233 C235 1.415 . S
C234 C233 1.355 . S
C234 C236 1.419 . S
C235 C230 1.425 . S
C235 C232 1.409 . S
C235 C233 1.415 . S
C236 H226 0.930 . S
C236 C234 1.419 . S
C236 C237 1.362 . S
C237 H227 0.930 . S
C237 C230 1.409 . S
C237 C236 1.362 . S
H238 C244 0.930 . S
H239 C247 0.930 . S
H240 C248 0.930 . S
H241 C249 0.930 . S
H242 C252 0.930 . S
H243 C253 0.930 . S
C244 H238 0.930 . S
C244 C245 1.355 . S
C244 C246 1.415 . S
C245 C244 1.355 . S
C245 C247 1.419 . S
C246 C244 1.415 . S
C246 C251 1.425 . S
C246 C253 1.409 . S
C247 H239 0.930 . S
C247 C245 1.419 . S
C247 C248 1.362 . S
C248 H240 0.930 . S
C248 C247 1.362 . S
C248 C251 1.409 . S
C249 H241 0.930 . S
C249 C250 1.355 . S
C249 C251 1.415 . S
C250 C249 1.355 . S
C250 C252 1.419 . S
C251 C246 1.425 . S
C251 C248 1.409 . S
C251 C249 1.415 . S
C252 H242 0.930 . S
C252 C250 1.419 . S
C252 C253 1.362 . S
C253 H243 0.930 . S
C253 C246 1.409 . S
C253 C252 1.362 . S
H254 C260 0.930 . S
H255 C263 0.930 . S
H256 C264 0.930 . S
H257 C265 0.930 . S
H258 C268 0.930 . S
H259 C269 0.930 . S
C260 H254 0.930 . S
C260 C261 1.355 . S
C260 C262 1.415 . S
C261 C260 1.355 . S
C261 C263 1.419 . S
C262 C260 1.415 . S
C262 C267 1.425 . S
C262 C269 1.409 1_556 S
C263 H255 0.930 . S
C263 C261 1.419 . S
C263 C264 1.362 . S
C264 H256 0.930 . S
C264 C263 1.362 . S
C264 C267 1.409 . S
C265 H257 0.930 . S
C265 C266 1.355 1_556 S
C265 C267 1.415 . S
C266 C265 1.355 1_554 S
C266 C268 1.419 . S
C267 C262 1.425 . S
C267 C264 1.409 . S
C267 C265 1.415 . S
C268 H258 0.930 . S
C268 C266 1.419 . S
C268 C269 1.362 . S
C269 H259 0.930 . S
C269 C262 1.409 1_554 S
C269 C268 1.362 . S
C85 C8 1.420 . S
C90 C44 1.390 . S
C101 C21 1.415 . S
C106 C57 1.420 . S
C117 C70 1.409 . S
C122 C34 1.421 . S
C133 C5 1.421 . S
C138 C47 1.370 . S
C149 C18 1.366 . S
C154 C60 1.379 . S
C165 C73 1.359 1_554 S
C170 C31 1.410 . S
C181 C23 1.439 . S
C186 C0 1.430 . S
C197 C36 1.426 . S
C202 C13 1.411 . S
C213 C26 1.401 . S
C218 C49 1.407 . S
C229 C62 1.440 . S
C234 C39 1.438 . S
C245 C75 1.440 . S
C250 C52 1.439 . S
C261 C65 1.397 . S
C266 C10 1.407 . S
