# Generated by pormake.
# Topology sow, (4)-cn, num edge types: 1
# Building blocks:
#     Node 0, Type 0, BuildingBlock: QUQFOY_clean_sbu_1, # of connection points: 4
#     Node 1, Type 0, BuildingBlock: QUQFOY_clean_sbu_1, # of connection points: 4
#     Node 2, Type 0, BuildingBlock: QUQFOY_clean_sbu_1, # of connection points: 4
#     Node 3, Type 0, BuildingBlock: QUQFOY_clean_sbu_1, # of connection points: 4
#     Node 4, Type 0, BuildingBlock: QUQFOY_clean_sbu_1, # of connection points: 4
#     Node 5, Type 0, BuildingBlock: QUQFOY_clean_sbu_1, # of connection points: 4
#     Node 6, Type 0, BuildingBlock: QUQFOY_clean_sbu_1, # of connection points: 4
#     Node 7, Type 0, BuildingBlock: QUQFOY_clean_sbu_1, # of connection points: 4
#     Edge 8, Type (0, 0), BuildingBlock: OJICUG_clean_linker_0, # of connection points: 2
#     Edge 9, Type (0, 0), BuildingBlock: OJICUG_clean_linker_0, # of connection points: 2
#     Edge 10, Type (0, 0), BuildingBlock: OJICUG_clean_linker_0, # of connection points: 2
#     Edge 11, Type (0, 0), BuildingBlock: OJICUG_clean_linker_0, # of connection points: 2
#     Edge 12, Type (0, 0), BuildingBlock: OJICUG_clean_linker_0, # of connection points: 2
#     Edge 13, Type (0, 0), BuildingBlock: OJICUG_clean_linker_0, # of connection points: 2
#     Edge 14, Type (0, 0), BuildingBlock: OJICUG_clean_linker_0, # of connection points: 2
#     Edge 15, Type (0, 0), BuildingBlock: OJICUG_clean_linker_0, # of connection points: 2
#     Edge 16, Type (0, 0), BuildingBlock: OJICUG_clean_linker_0, # of connection points: 2
#     Edge 17, Type (0, 0), BuildingBlock: OJICUG_clean_linker_0, # of connection points: 2
#     Edge 18, Type (0, 0), BuildingBlock: OJICUG_clean_linker_0, # of connection points: 2
#     Edge 19, Type (0, 0), BuildingBlock: OJICUG_clean_linker_0, # of connection points: 2
#     Edge 20, Type (0, 0), BuildingBlock: OJICUG_clean_linker_0, # of connection points: 2
#     Edge 21, Type (0, 0), BuildingBlock: OJICUG_clean_linker_0, # of connection points: 2
#     Edge 22, Type (0, 0), BuildingBlock: OJICUG_clean_linker_0, # of connection points: 2
#     Edge 23, Type (0, 0), BuildingBlock: OJICUG_clean_linker_0, # of connection points: 2
# Relax obj value: 0.064
# Max RMSD: 0.116
# Mean RMSD: 0.116
data_MOF--net-sow--node1-QUQFOY_clean_sbu_1--edge1-OJICUG_clean_linker_0
_symmetry_space_group_name_H-M    P1
_symmetry_Int_Tables_number       1
_symmetry_cell_setting            triclinic
loop_
_symmetry_equiv_pos_as_xyz
'x, y, z'
_cell_length_a     28.018934
_cell_length_b     24.150071
_cell_length_c     17.050013
_cell_angle_alpha  90.554763
_cell_angle_beta   90.000634
_cell_angle_gamma 89.983307
loop_
_atom_site_label
_atom_site_type_symbol
_atom_site_fract_x
_atom_site_fract_y
_atom_site_fract_z
_atom_type_partial_charge
O0 O 0.16691 0.34154 0.11702 0.0
Cd1 Cd 0.11037 0.3629 0.04584 0.0
Cd2 Cd 0.08 0.26269 0.10515 0.0
O3 O 0.15021 0.2538 0.13973 0.0
O4 O 0.13693 0.42044 0.97509 0.0
O5 O 0.11102 0.33894 0.93273 0.0
C6 C 0.1312 0.38583 0.9178 0.0
C7 C 0.03161 0.18809 0.063 0.0
C8 C 0.17807 0.29522 0.14686 0.0
C9 C 0.03461 0.37103 0.16085 0.0
O10 O 0.04367 0.32014 0.17136 0.0
O11 O 0.05287 0.39726 0.10412 0.0
O12 O 0.0466 0.19213 0.13422 0.0
O13 O 0.04633 0.22483 1.014 0.0
O14 O 0.2623 0.3594 0.61701 0.0
Cd15 Cd 0.31814 0.33765 0.54441 0.0
Cd16 Cd 0.35039 0.44087 0.60219 0.0
O17 O 0.28152 0.44595 0.64625 0.0
O18 O 0.29187 0.28041 0.47146 0.0
O19 O 0.31753 0.36233 0.4324 0.0
C20 C 0.29779 0.31529 0.41548 0.0
C21 C 0.39418 0.51909 0.56149 0.0
C22 C 0.25283 0.40518 0.65111 0.0
C23 C 0.40016 0.33286 0.64919 0.0
O24 O 0.39299 0.38446 0.65786 0.0
O25 O 0.3765 0.30424 0.60004 0.0
O26 O 0.38247 0.51215 0.63373 0.0
O27 O 0.37842 0.48333 0.51094 0.0
O28 O 0.66751 0.36836 0.92206 0.0
Cd29 Cd 0.61059 0.34758 0.99284 0.0
Cd30 Cd 0.58144 0.44789 0.93397 0.0
O31 O 0.65186 0.45652 0.90059 0.0
O32 O 0.63648 0.28987 0.064 0.0
O33 O 0.61106 0.37172 0.10588 0.0
C34 C 0.63086 0.32465 0.12113 0.0
C35 C 0.533 0.5224 0.97636 0.0
C36 C 0.67926 0.41472 0.89295 0.0
C37 C 0.53572 0.34032 0.8765 0.0
O38 O 0.54545 0.39107 0.86625 0.0
O39 O 0.55303 0.3139 0.93386 0.0
O40 O 0.54841 0.51879 0.90534 0.0
O41 O 0.54734 0.48528 0.02509 0.0
O42 O 0.76198 0.35053 0.42198 0.0
Cd43 Cd 0.81812 0.37186 0.49435 0.0
Cd44 Cd 0.84995 0.26938 0.43513 0.0
O45 O 0.7808 0.26389 0.39263 0.0
O46 O 0.79215 0.42904 0.56777 0.0
O47 O 0.81779 0.34698 0.60632 0.0
C48 C 0.79821 0.39405 0.62358 0.0
C49 C 0.89437 0.19164 0.47584 0.0
C50 C 0.75222 0.3048 0.38799 0.0
C51 C 0.89906 0.37742 0.38757 0.0
O52 O 0.8916 0.32596 0.37799 0.0
O53 O 0.87627 0.40553 0.43843 0.0
O54 O 0.88218 0.19815 0.40372 0.0
O55 O 0.8788 0.22758 0.5263 0.0
O56 O 0.75581 0.86788 0.92156 0.0
Cd57 Cd 0.81243 0.84641 0.99254 0.0
Cd58 Cd 0.84267 0.94666 0.93374 0.0
O59 O 0.77242 0.95573 0.89949 0.0
O60 O 0.78594 0.78896 0.06349 0.0
O61 O 0.81198 0.87046 0.10561 0.0
C62 C 0.79177 0.82362 0.1207 0.0
C63 C 0.8912 1.02114 0.97593 0.0
C64 C 0.7446 0.9143 0.89207 0.0
C65 C 0.88788 0.83843 0.87708 0.0
O66 O 0.87877 0.88936 0.86693 0.0
O67 O 0.86981 0.81206 0.93385 0.0
O68 O 0.87607 1.01725 0.90478 0.0
O69 O 0.87656 0.98432 0.02486 0.0
O70 O 0.66077 0.85075 0.42152 0.0
Cd71 Cd 0.60487 0.87274 0.49397 0.0
Cd72 Cd 0.57218 0.77037 0.435 0.0
O73 O 0.64122 0.76435 0.39205 0.0
O74 O 0.63138 0.92971 0.56715 0.0
O75 O 0.60515 0.84799 0.60599 0.0
C76 C 0.62514 0.89485 0.62306 0.0
C77 C 0.52748 0.69279 0.47548 0.0
C78 C 0.67012 0.80493 0.38742 0.0
C79 C 0.5237 0.87897 0.3877 0.0
O80 O 0.53069 0.82739 0.37836 0.0
O81 O 0.54694 0.90697 0.4381 0.0
O82 O 0.53955 0.69946 0.40333 0.0
O83 O 0.5433 0.72848 0.52606 0.0
O84 O 0.25629 0.84208 0.1174 0.0
Cd85 Cd 0.31262 0.864 0.04615 0.0
Cd86 Cd 0.34391 0.76388 0.10537 0.0
O87 O 0.27383 0.7546 0.14053 0.0
O88 O 0.28557 0.9213 0.97548 0.0
O89 O 0.3121 0.84008 0.93303 0.0
C90 C 0.29155 0.88677 0.91815 0.0
C91 C 0.39249 0.68935 0.0634 0.0
C92 C 0.24561 0.79571 0.1475 0.0
C93 C 0.3887 0.87275 0.16062 0.0
O94 O 0.3802 0.82171 0.17096 0.0
O95 O 0.36986 0.89894 0.10436 0.0
O96 O 0.37768 0.69358 0.1347 0.0
O97 O 0.37752 0.72586 1.01426 0.0
O98 O 0.16062 0.85927 0.61736 0.0
Cd99 Cd 0.10494 0.83703 0.54476 0.0
Cd100 Cd 0.07196 0.93998 0.60259 0.0
O101 O 0.1408 0.94564 0.64663 0.0
O102 O 0.13167 0.77996 0.47194 0.0
O103 O 0.10543 0.86161 0.4327 0.0
C104 C 0.12554 0.81475 0.4159 0.0
C105 C 0.02774 1.01794 0.56198 0.0
C106 C 0.16977 0.90512 0.65148 0.0
C107 C 0.02299 0.8315 0.64961 0.0
O108 O 0.02979 0.88316 0.65826 0.0
O109 O 0.04685 0.80309 0.60045 0.0
O110 O 0.03946 1.01101 0.63422 0.0
O111 O 0.04368 0.98231 0.5114 0.0
C112 C 0.18243 0.36085 0.71576 0.0
C113 C 0.21258 0.4071 0.70765 0.0
H114 H 0.13254 0.31801 0.78836 0.0
C115 C 0.20883 0.45069 0.76253 0.0
H116 H 0.18391 0.32675 0.67408 0.0
C117 C 0.17926 0.44559 0.82818 0.0
C118 C 0.15281 0.39687 0.84019 0.0
H119 H 0.23122 0.48707 0.75791 0.0
H120 H 0.17958 0.47838 0.87198 0.0
C121 C 0.15289 0.35577 0.78138 0.0
C122 C 0.22286 0.24946 0.25579 0.0
C123 C 0.21856 0.29341 0.20283 0.0
H124 H 0.25179 0.22175 0.3647 0.0
C125 C 0.24779 0.34032 0.21337 0.0
H126 H 0.20116 0.21259 0.24927 0.0
C127 C 0.27674 0.34568 0.2798 0.0
C128 C 0.27708 0.30421 0.33695 0.0
H129 H 0.24585 0.37472 0.1732 0.0
H130 H 0.29627 0.38391 0.2888 0.0
C131 C 0.2518 0.25485 0.32228 0.0
C132 C 0.7078 0.25936 0.27699 0.0
C133 C 0.71188 0.30309 0.33159 0.0
H134 H 0.6784 0.23167 0.16767 0.0
C135 C 0.68207 0.34962 0.32319 0.0
H136 H 0.72991 0.22276 0.28184 0.0
C137 C 0.6526 0.35482 0.25749 0.0
C138 C 0.65225 0.31356 0.19891 0.0
H139 H 0.68381 0.38384 0.36464 0.0
H140 H 0.63255 0.39279 0.25024 0.0
C141 C 0.6783 0.26458 0.21127 0.0
C142 C 0.7244 0.46035 0.78434 0.0
C143 C 0.71975 0.41623 0.83696 0.0
H144 H 0.75334 0.48806 0.67546 0.0
C145 C 0.74848 0.36895 0.82585 0.0
H146 H 0.70308 0.4975 0.79128 0.0
C147 C 0.77722 0.36344 0.75919 0.0
C148 C 0.77784 0.40513 0.70237 0.0
H149 H 0.74626 0.33441 0.86575 0.0
H150 H 0.79633 0.32496 0.74975 0.0
C151 C 0.75311 0.45479 0.71761 0.0
C152 C 0.77021 0.85387 0.2571 0.0
C153 C 0.7702 0.8127 0.19839 0.0
H154 H 0.73924 0.88312 0.36432 0.0
C155 C 0.74368 0.76406 0.21056 0.0
H156 H 0.79063 0.89158 0.25 0.0
C157 C 0.71411 0.75912 0.27624 0.0
C158 C 0.71043 0.8028 0.33099 0.0
H159 H 0.74329 0.73122 0.16684 0.0
H160 H 0.69165 0.72281 0.28094 0.0
C161 C 0.74067 0.84895 0.32276 0.0
C162 C 0.67103 0.95508 0.71669 0.0
C163 C 0.64576 0.90575 0.70172 0.0
H164 H 0.72158 0.99718 0.79002 0.0
C165 C 0.64604 0.86416 0.75868 0.0
H166 H 0.67108 0.98827 0.67442 0.0
C167 C 0.67491 0.86937 0.82522 0.0
C168 C 0.70413 0.91625 0.83606 0.0
H169 H 0.62651 0.82594 0.74945 0.0
H170 H 0.67682 0.83487 0.86523 0.0
C171 C 0.69988 0.96033 0.78329 0.0
C172 C 0.24304 0.94612 0.82859 0.0
C173 C 0.26985 0.89765 0.84056 0.0
H174 H 0.19078 0.98716 0.75837 0.0
C175 C 0.27007 0.85658 0.78171 0.0
H176 H 0.24248 0.97888 0.87243 0.0
C177 C 0.2405 0.86142 0.71608 0.0
C178 C 0.21001 0.90739 0.70802 0.0
H179 H 0.29071 0.81901 0.78865 0.0
H180 H 0.23927 0.82732 0.67438 0.0
C181 C 0.21344 0.95099 0.76294 0.0
C182 C 0.17547 0.84011 0.21384 0.0
C183 C 0.20513 0.79353 0.20347 0.0
H184 H 0.12655 0.88324 0.28906 0.0
C185 C 0.20119 0.7496 0.25654 0.0
H186 H 0.17713 0.87448 0.17358 0.0
C187 C 0.17216 0.75474 0.32295 0.0
C188 C 0.14641 0.80382 0.33744 0.0
H189 H 0.22323 0.71297 0.25016 0.0
H190 H 0.17243 0.72169 0.36545 0.0
C191 C 0.14643 0.84522 0.28019 0.0
C192 C 0.01693 0.39661 0.29747 0.0
C193 C 0.00345 0.39823 0.2182 0.0
H194 H -0.00723 0.39102 0.41625 0.0
C195 C 0.95596 0.40953 0.19846 0.0
H196 H 0.05344 0.38715 0.31354 0.0
C197 C 0.92127 0.41166 0.25736 0.0
C198 C 0.9341 0.40292 0.33593 0.0
H199 H 0.94486 0.40984 0.13759 0.0
H200 H 0.88398 0.41341 0.24064 0.0
C201 C -0.01765 0.39907 0.35621 0.0
C202 C 0.42331 0.29721 0.77829 0.0
C203 C 0.43587 0.30783 0.70008 0.0
H204 H 0.44685 0.29792 0.89814 0.0
C205 C 0.48397 0.31412 0.6801 0.0
H206 H 0.3861 0.29359 0.79482 0.0
C207 C 0.51843 0.31704 0.73893 0.0
C208 C 0.50502 0.3135 0.81807 0.0
H209 H 0.49412 0.32361 0.62037 0.0
H210 H 0.55463 0.32819 0.72321 0.0
C211 C 0.45793 0.29982 0.83734 0.0
C212 C 0.93947 0.81141 0.68092 0.0
C213 C -0.01233 0.80608 0.70084 0.0
H214 H 0.86869 0.8246 0.72413 0.0
C215 C 0.00046 0.79613 0.77913 0.0
H216 H 0.92912 0.82038 0.62112 0.0
C217 C -0.0341 0.79856 0.83826 0.0
C218 C 0.9186 0.81131 0.81899 0.0
H219 H 0.03773 0.79326 0.79559 0.0
H220 H -0.02291 0.79729 0.89905 0.0
C221 C 0.90504 0.81409 0.73986 0.0
C222 C 0.40608 0.89888 0.29709 0.0
C223 C 0.41972 0.90022 0.21789 0.0
H224 H 0.43001 0.89334 0.41601 0.0
C225 C 0.46728 0.91123 0.19835 0.0
H226 H 0.36951 0.88962 0.31302 0.0
C227 C 0.50187 0.91334 0.25741 0.0
C228 C 0.48887 0.90477 0.33594 0.0
H229 H 0.47851 0.9113 0.13753 0.0
H230 H 0.53919 0.91483 0.24086 0.0
C231 C 0.44056 0.90125 0.356 0.0
C232 C -0.02056 0.10677 0.09579 0.0
C233 C -0.00344 0.14455 0.04001 0.0
H234 H 0.93264 1.03873 0.11982 0.0
C235 C -0.02191 0.14187 0.96343 0.0
H236 H -0.00737 0.1078 0.15549 0.0
C237 C 0.94341 1.10242 0.94314 0.0
C238 C 0.92628 1.06464 0.99892 0.0
H239 H -0.00979 0.17045 0.91911 0.0
H240 H 0.93021 1.1014 0.88344 0.0
C241 C 0.94477 1.06732 0.0755 0.0
C242 C 0.47563 0.61115 0.44071 0.0
C243 C 0.49423 0.64758 0.49802 0.0
H244 H 0.42926 0.54262 0.41532 0.0
C245 C 0.4788 0.64202 0.57598 0.0
H246 H 0.48644 0.61441 0.37994 0.0
C247 C 0.44571 0.60101 0.59613 0.0
C248 C 0.42715 0.56453 0.53883 0.0
H249 H 0.4921 0.66952 0.62152 0.0
H250 H 0.43492 0.59773 0.6569 0.0
C251 C 0.44253 0.57015 0.46085 0.0
C252 C 0.44613 0.6432 0.96389 0.0
C253 C 0.4276 0.64584 0.04044 0.0
H254 H 0.49407 0.60279 0.88394 0.0
C255 C 0.4447 0.60802 0.0962 0.0
H256 H 0.43403 0.67182 0.91959 0.0
C257 C 0.47938 0.56855 0.07592 0.0
C258 C 0.49792 0.56593 0.99937 0.0
H259 H 0.43146 0.609 0.15588 0.0
H260 H 0.49148 0.53993 0.12021 0.0
C261 C 0.48083 0.60376 0.94362 0.0
C262 C -0.02389 1.09983 0.59659 0.0
C263 C -0.00535 1.0633 0.53933 0.0
H264 H 0.92976 0.16842 0.62192 0.0
C265 C -0.0208 1.06882 0.46138 0.0
H266 H -0.01304 1.09662 0.65735 0.0
C267 C 0.94609 0.10983 0.4412 0.0
C268 C 0.92755 0.14636 0.49846 0.0
H269 H -0.00755 1.04125 0.41587 0.0
H270 H 0.93524 0.11303 0.38044 0.0
C271 C 0.94302 0.14085 0.57641 0.0
loop_
_geom_bond_atom_site_label_1
_geom_bond_atom_site_label_2
_geom_bond_distance
_geom_bond_site_symmetry_2
_ccdc_geom_bond_type
O0 Cd1 2.223 . S
O0 C8 1.315 . S
Cd1 O0 2.223 . S
Cd1 O4 2.297 1_554 S
Cd1 O5 2.439 1_554 S
Cd1 O11 2.240 . S
Cd2 O3 2.240 . S
Cd2 O10 2.223 . S
Cd2 O12 2.297 . S
Cd2 O13 2.439 1_554 S
O3 Cd2 2.240 . S
O3 C8 1.279 . S
O4 Cd1 2.297 1_556 S
O4 C6 1.247 . S
O5 Cd1 2.439 1_556 S
O5 C6 1.208 . S
C6 O4 1.247 . S
C6 O5 1.208 . S
C7 O12 1.247 . S
C7 O13 1.208 1_554 S
C8 O0 1.315 . S
C8 O3 1.279 . S
C9 O10 1.315 . S
C9 O11 1.279 . S
O10 Cd2 2.223 . S
O10 C9 1.315 . S
O11 Cd1 2.240 . S
O11 C9 1.279 . S
O12 Cd2 2.297 . S
O12 C7 1.247 . S
O13 Cd2 2.439 1_556 S
O13 C7 1.208 1_556 S
O14 Cd15 2.223 . S
O14 C22 1.315 . S
Cd15 O14 2.223 . S
Cd15 O18 2.297 . S
Cd15 O19 2.439 . S
Cd15 O25 2.240 . S
Cd16 O17 2.240 . S
Cd16 O24 2.223 . S
Cd16 O26 2.297 . S
Cd16 O27 2.439 . S
O17 Cd16 2.240 . S
O17 C22 1.279 . S
O18 Cd15 2.297 . S
O18 C20 1.247 . S
O19 Cd15 2.439 . S
O19 C20 1.208 . S
C20 O18 1.247 . S
C20 O19 1.208 . S
C21 O26 1.247 . S
C21 O27 1.208 . S
C22 O14 1.315 . S
C22 O17 1.279 . S
C23 O24 1.315 . S
C23 O25 1.279 . S
O24 Cd16 2.223 . S
O24 C23 1.315 . S
O25 Cd15 2.240 . S
O25 C23 1.279 . S
O26 Cd16 2.297 . S
O26 C21 1.247 . S
O27 Cd16 2.439 . S
O27 C21 1.208 . S
O28 Cd29 2.223 . S
O28 C36 1.315 . S
Cd29 O28 2.223 . S
Cd29 O32 2.297 1_556 S
Cd29 O33 2.439 1_556 S
Cd29 O39 2.240 . S
Cd30 O31 2.240 . S
Cd30 O38 2.223 . S
Cd30 O40 2.297 . S
Cd30 O41 2.439 1_556 S
O31 Cd30 2.240 . S
O31 C36 1.279 . S
O32 Cd29 2.297 1_554 S
O32 C34 1.247 . S
O33 Cd29 2.439 1_554 S
O33 C34 1.208 . S
C34 O32 1.247 . S
C34 O33 1.208 . S
C35 O40 1.247 . S
C35 O41 1.208 1_556 S
C36 O28 1.315 . S
C36 O31 1.279 . S
C37 O38 1.315 . S
C37 O39 1.279 . S
O38 Cd30 2.223 . S
O38 C37 1.315 . S
O39 Cd29 2.240 . S
O39 C37 1.279 . S
O40 Cd30 2.297 . S
O40 C35 1.247 . S
O41 Cd30 2.439 1_554 S
O41 C35 1.208 1_554 S
O42 Cd43 2.223 . S
O42 C50 1.315 . S
Cd43 O42 2.223 . S
Cd43 O46 2.297 . S
Cd43 O47 2.439 . S
Cd43 O53 2.240 . S
Cd44 O45 2.240 . S
Cd44 O52 2.223 . S
Cd44 O54 2.297 . S
Cd44 O55 2.439 . S
O45 Cd44 2.240 . S
O45 C50 1.279 . S
O46 Cd43 2.297 . S
O46 C48 1.247 . S
O47 Cd43 2.439 . S
O47 C48 1.208 . S
C48 O46 1.247 . S
C48 O47 1.208 . S
C49 O54 1.247 . S
C49 O55 1.208 . S
C50 O42 1.315 . S
C50 O45 1.279 . S
C51 O52 1.315 . S
C51 O53 1.279 . S
O52 Cd44 2.223 . S
O52 C51 1.315 . S
O53 Cd43 2.240 . S
O53 C51 1.279 . S
O54 Cd44 2.297 . S
O54 C49 1.247 . S
O55 Cd44 2.439 . S
O55 C49 1.208 . S
O56 Cd57 2.223 . S
O56 C64 1.315 . S
Cd57 O56 2.223 . S
Cd57 O60 2.297 1_556 S
Cd57 O61 2.439 1_556 S
Cd57 O67 2.240 . S
Cd58 O59 2.240 . S
Cd58 O66 2.223 . S
Cd58 O68 2.297 . S
Cd58 O69 2.439 1_556 S
O59 Cd58 2.240 . S
O59 C64 1.279 . S
O60 Cd57 2.297 1_554 S
O60 C62 1.247 . S
O61 Cd57 2.439 1_554 S
O61 C62 1.208 . S
C62 O60 1.247 . S
C62 O61 1.208 . S
C63 O68 1.247 . S
C63 O69 1.208 1_556 S
C64 O56 1.315 . S
C64 O59 1.279 . S
C65 O66 1.315 . S
C65 O67 1.279 . S
O66 Cd58 2.223 . S
O66 C65 1.315 . S
O67 Cd57 2.240 . S
O67 C65 1.279 . S
O68 Cd58 2.297 . S
O68 C63 1.247 . S
O69 Cd58 2.439 1_554 S
O69 C63 1.208 1_554 S
O70 Cd71 2.223 . S
O70 C78 1.315 . S
Cd71 O70 2.223 . S
Cd71 O74 2.297 . S
Cd71 O75 2.439 . S
Cd71 O81 2.240 . S
Cd72 O73 2.240 . S
Cd72 O80 2.223 . S
Cd72 O82 2.297 . S
Cd72 O83 2.439 . S
O73 Cd72 2.240 . S
O73 C78 1.279 . S
O74 Cd71 2.297 . S
O74 C76 1.247 . S
O75 Cd71 2.439 . S
O75 C76 1.208 . S
C76 O74 1.247 . S
C76 O75 1.208 . S
C77 O82 1.247 . S
C77 O83 1.208 . S
C78 O70 1.315 . S
C78 O73 1.279 . S
C79 O80 1.315 . S
C79 O81 1.279 . S
O80 Cd72 2.223 . S
O80 C79 1.315 . S
O81 Cd71 2.240 . S
O81 C79 1.279 . S
O82 Cd72 2.297 . S
O82 C77 1.247 . S
O83 Cd72 2.439 . S
O83 C77 1.208 . S
O84 Cd85 2.223 . S
O84 C92 1.315 . S
Cd85 O84 2.223 . S
Cd85 O88 2.297 1_554 S
Cd85 O89 2.439 1_554 S
Cd85 O95 2.240 . S
Cd86 O87 2.240 . S
Cd86 O94 2.223 . S
Cd86 O96 2.297 . S
Cd86 O97 2.439 1_554 S
O87 Cd86 2.240 . S
O87 C92 1.279 . S
O88 Cd85 2.297 1_556 S
O88 C90 1.247 . S
O89 Cd85 2.439 1_556 S
O89 C90 1.208 . S
C90 O88 1.247 . S
C90 O89 1.208 . S
C91 O96 1.247 . S
C91 O97 1.208 1_554 S
C92 O84 1.315 . S
C92 O87 1.279 . S
C93 O94 1.315 . S
C93 O95 1.279 . S
O94 Cd86 2.223 . S
O94 C93 1.315 . S
O95 Cd85 2.240 . S
O95 C93 1.279 . S
O96 Cd86 2.297 . S
O96 C91 1.247 . S
O97 Cd86 2.439 1_556 S
O97 C91 1.208 1_556 S
O98 Cd99 2.223 . S
O98 C106 1.315 . S
Cd99 O98 2.223 . S
Cd99 O102 2.297 . S
Cd99 O103 2.439 . S
Cd99 O109 2.240 . S
Cd100 O101 2.240 . S
Cd100 O108 2.223 . S
Cd100 O110 2.297 . S
Cd100 O111 2.439 . S
O101 Cd100 2.240 . S
O101 C106 1.279 . S
O102 Cd99 2.297 . S
O102 C104 1.247 . S
O103 Cd99 2.439 . S
O103 C104 1.208 . S
C104 O102 1.247 . S
C104 O103 1.208 . S
C105 O110 1.247 . S
C105 O111 1.208 . S
C106 O98 1.315 . S
C106 O101 1.279 . S
C107 O108 1.315 . S
C107 O109 1.279 . S
O108 Cd100 2.223 . S
O108 C107 1.315 . S
O109 Cd99 2.240 . S
O109 C107 1.279 . S
O110 Cd100 2.297 . S
O110 C105 1.247 . S
O111 Cd100 2.439 . S
O111 C105 1.208 . S
C112 C113 1.387 . S
C112 H116 0.950 . S
C112 C121 1.390 . S
C113 C112 1.387 . S
C113 C115 1.387 . S
H114 C121 0.950 . S
C115 C113 1.387 . S
C115 C117 1.390 . S
C115 H119 0.950 . S
H116 C112 0.950 . S
C117 C115 1.390 . S
C117 C118 1.387 . S
C117 H120 0.950 . S
C118 C117 1.387 . S
C118 C121 1.387 . S
H119 C115 0.950 . S
H120 C117 0.950 . S
C121 C112 1.390 . S
C121 H114 0.950 . S
C121 C118 1.387 . S
C122 C123 1.387 . S
C122 H126 0.950 . S
C122 C131 1.390 . S
C123 C122 1.387 . S
C123 C125 1.387 . S
H124 C131 0.950 . S
C125 C123 1.387 . S
C125 C127 1.390 . S
C125 H129 0.950 . S
H126 C122 0.950 . S
C127 C125 1.390 . S
C127 C128 1.387 . S
C127 H130 0.950 . S
C128 C127 1.387 . S
C128 C131 1.387 . S
H129 C125 0.950 . S
H130 C127 0.950 . S
C131 C122 1.390 . S
C131 H124 0.950 . S
C131 C128 1.387 . S
C132 C133 1.387 . S
C132 H136 0.950 . S
C132 C141 1.390 . S
C133 C132 1.387 . S
C133 C135 1.387 . S
H134 C141 0.950 . S
C135 C133 1.387 . S
C135 C137 1.390 . S
C135 H139 0.950 . S
H136 C132 0.950 . S
C137 C135 1.390 . S
C137 C138 1.387 . S
C137 H140 0.950 . S
C138 C137 1.387 . S
C138 C141 1.387 . S
H139 C135 0.950 . S
H140 C137 0.950 . S
C141 C132 1.390 . S
C141 H134 0.950 . S
C141 C138 1.387 . S
C142 C143 1.387 . S
C142 H146 0.950 . S
C142 C151 1.390 . S
C143 C142 1.387 . S
C143 C145 1.387 . S
H144 C151 0.950 . S
C145 C143 1.387 . S
C145 C147 1.390 . S
C145 H149 0.950 . S
H146 C142 0.950 . S
C147 C145 1.390 . S
C147 C148 1.387 . S
C147 H150 0.950 . S
C148 C147 1.387 . S
C148 C151 1.387 . S
H149 C145 0.950 . S
H150 C147 0.950 . S
C151 C142 1.390 . S
C151 H144 0.950 . S
C151 C148 1.387 . S
C152 C153 1.387 . S
C152 H156 0.950 . S
C152 C161 1.390 . S
C153 C152 1.387 . S
C153 C155 1.387 . S
H154 C161 0.950 . S
C155 C153 1.387 . S
C155 C157 1.390 . S
C155 H159 0.950 . S
H156 C152 0.950 . S
C157 C155 1.390 . S
C157 C158 1.387 . S
C157 H160 0.950 . S
C158 C157 1.387 . S
C158 C161 1.387 . S
H159 C155 0.950 . S
H160 C157 0.950 . S
C161 C152 1.390 . S
C161 H154 0.950 . S
C161 C158 1.387 . S
C162 C163 1.387 . S
C162 H166 0.950 . S
C162 C171 1.390 . S
C163 C162 1.387 . S
C163 C165 1.387 . S
H164 C171 0.950 . S
C165 C163 1.387 . S
C165 C167 1.390 . S
C165 H169 0.950 . S
H166 C162 0.950 . S
C167 C165 1.390 . S
C167 C168 1.387 . S
C167 H170 0.950 . S
C168 C167 1.387 . S
C168 C171 1.387 . S
H169 C165 0.950 . S
H170 C167 0.950 . S
C171 C162 1.390 . S
C171 H164 0.950 . S
C171 C168 1.387 . S
C172 C173 1.387 . S
C172 H176 0.950 . S
C172 C181 1.390 . S
C173 C172 1.387 . S
C173 C175 1.387 . S
H174 C181 0.950 . S
C175 C173 1.387 . S
C175 C177 1.390 . S
C175 H179 0.950 . S
H176 C172 0.950 . S
C177 C175 1.390 . S
C177 C178 1.387 . S
C177 H180 0.950 . S
C178 C177 1.387 . S
C178 C181 1.387 . S
H179 C175 0.950 . S
H180 C177 0.950 . S
C181 C172 1.390 . S
C181 H174 0.950 . S
C181 C178 1.387 . S
C182 C183 1.387 . S
C182 H186 0.950 . S
C182 C191 1.390 . S
C183 C182 1.387 . S
C183 C185 1.387 . S
H184 C191 0.950 . S
C185 C183 1.387 . S
C185 C187 1.390 . S
C185 H189 0.950 . S
H186 C182 0.950 . S
C187 C185 1.390 . S
C187 C188 1.387 . S
C187 H190 0.950 . S
C188 C187 1.387 . S
C188 C191 1.387 . S
H189 C185 0.950 . S
H190 C187 0.950 . S
C191 C182 1.390 . S
C191 H184 0.950 . S
C191 C188 1.387 . S
C192 C193 1.387 . S
C192 H196 0.950 . S
C192 C201 1.390 1_455 S
C193 C192 1.387 . S
C193 C195 1.387 . S
H194 C201 0.950 . S
C195 C193 1.387 . S
C195 C197 1.390 1_455 S
C195 H199 0.950 . S
H196 C192 0.950 . S
C197 C195 1.390 1_655 S
C197 C198 1.387 . S
C197 H200 0.950 . S
C198 C197 1.387 . S
C198 C201 1.387 . S
H199 C195 0.950 . S
H200 C197 0.950 . S
C201 C192 1.390 1_655 S
C201 H194 0.950 . S
C201 C198 1.387 . S
C202 C203 1.387 . S
C202 H206 0.950 . S
C202 C211 1.390 . S
C203 C202 1.387 . S
C203 C205 1.387 . S
H204 C211 0.950 . S
C205 C203 1.387 . S
C205 C207 1.390 . S
C205 H209 0.950 . S
H206 C202 0.950 . S
C207 C205 1.390 . S
C207 C208 1.387 . S
C207 H210 0.950 . S
C208 C207 1.387 . S
C208 C211 1.387 . S
H209 C205 0.950 . S
H210 C207 0.950 . S
C211 C202 1.390 . S
C211 H204 0.950 . S
C211 C208 1.387 . S
C212 C213 1.387 . S
C212 H216 0.950 . S
C212 C221 1.390 1_455 S
C213 C212 1.387 . S
C213 C215 1.387 . S
H214 C221 0.950 . S
C215 C213 1.387 . S
C215 C217 1.390 1_455 S
C215 H219 0.950 . S
H216 C212 0.950 . S
C217 C215 1.390 1_655 S
C217 C218 1.387 . S
C217 H220 0.950 . S
C218 C217 1.387 . S
C218 C221 1.387 . S
H219 C215 0.950 . S
H220 C217 0.950 . S
C221 C212 1.390 1_655 S
C221 H214 0.950 . S
C221 C218 1.387 . S
C222 C223 1.387 . S
C222 H226 0.950 . S
C222 C231 1.390 . S
C223 C222 1.387 . S
C223 C225 1.387 . S
H224 C231 0.950 . S
C225 C223 1.387 . S
C225 C227 1.390 . S
C225 H229 0.950 . S
H226 C222 0.950 . S
C227 C225 1.390 . S
C227 C228 1.387 . S
C227 H230 0.950 . S
C228 C227 1.387 . S
C228 C231 1.387 . S
H229 C225 0.950 . S
H230 C227 0.950 . S
C231 C222 1.390 . S
C231 H224 0.950 . S
C231 C228 1.387 . S
C232 C233 1.390 . S
C232 H236 0.950 . S
C232 C241 1.390 1_445 S
C233 C232 1.390 . S
C233 C235 1.385 1_554 S
H234 C241 0.950 . S
C235 C233 1.385 1_556 S
C235 C237 1.390 1_445 S
C235 H239 0.950 . S
H236 C232 0.950 . S
C237 C235 1.390 1_665 S
C237 C238 1.390 . S
C237 H240 0.950 . S
C238 C237 1.390 . S
C238 C241 1.385 1_556 S
H239 C235 0.950 . S
H240 C237 0.950 . S
C241 C232 1.390 1_665 S
C241 H234 0.950 . S
C241 C238 1.385 1_554 S
C242 C243 1.387 . S
C242 H246 0.950 . S
C242 C251 1.390 . S
C243 C242 1.387 . S
C243 C245 1.387 . S
H244 C251 0.950 . S
C245 C243 1.387 . S
C245 C247 1.390 . S
C245 H249 0.950 . S
H246 C242 0.950 . S
C247 C245 1.390 . S
C247 C248 1.387 . S
C247 H250 0.950 . S
C248 C247 1.387 . S
C248 C251 1.387 . S
H249 C245 0.950 . S
H250 C247 0.950 . S
C251 C242 1.390 . S
C251 H244 0.950 . S
C251 C248 1.387 . S
C252 C253 1.385 1_556 S
C252 H256 0.950 . S
C252 C261 1.390 . S
C253 C252 1.385 1_554 S
C253 C255 1.390 . S
H254 C261 0.950 . S
C255 C253 1.390 . S
C255 C257 1.390 . S
C255 H259 0.950 . S
H256 C252 0.950 . S
C257 C255 1.390 . S
C257 C258 1.385 1_554 S
C257 H260 0.950 . S
C258 C257 1.385 1_556 S
C258 C261 1.390 . S
H259 C255 0.950 . S
H260 C257 0.950 . S
C261 C252 1.390 . S
C261 H254 0.950 . S
C261 C258 1.390 . S
C262 C263 1.387 . S
C262 H266 0.950 . S
C262 C271 1.390 1_465 S
C263 C262 1.387 . S
C263 C265 1.387 . S
H264 C271 0.950 . S
C265 C263 1.387 . S
C265 C267 1.390 1_465 S
C265 H269 0.950 . S
H266 C262 0.950 . S
C267 C265 1.390 1_645 S
C267 C268 1.387 . S
C267 H270 0.950 . S
C268 C267 1.387 . S
C268 C271 1.387 . S
H269 C265 0.950 . S
H270 C267 0.950 . S
C271 C262 1.390 1_645 S
C271 H264 0.950 . S
C271 C268 1.387 . S
C113 C22 1.612 . S
C118 C6 1.616 . S
C123 C8 1.612 . S
C128 C20 1.616 . S
C133 C50 1.611 . S
C138 C34 1.616 . S
C143 C36 1.612 . S
C148 C48 1.616 . S
C153 C62 1.616 . S
C158 C78 1.612 . S
C163 C76 1.616 . S
C168 C64 1.612 . S
C173 C90 1.616 . S
C178 C106 1.612 . S
C183 C92 1.612 . S
C188 C104 1.616 . S
C193 C9 0.824 . S
C198 C51 0.824 . S
C203 C23 0.820 . S
C208 C37 0.820 . S
C213 C107 0.820 . S
C218 C65 0.820 . S
C223 C93 0.820 . S
C228 C79 0.820 . S
C233 C7 1.507 . S
C238 C63 1.507 . S
C243 C77 1.506 . S
C248 C21 1.506 . S
C253 C91 1.507 . S
C258 C35 1.507 . S
C263 C105 1.506 . S
C268 C49 1.506 . S
