# Generated by pormake.
# Topology whz, (6)-cn, num edge types: 1
# Building blocks:
#     Node 0, Type 0, BuildingBlock: BETDEL_clean_sbu_0, # of connection points: 6
#     Node 1, Type 0, BuildingBlock: BETDEL_clean_sbu_0, # of connection points: 6
#     Node 2, Type 0, BuildingBlock: BETDEL_clean_sbu_0, # of connection points: 6
#     Node 3, Type 0, BuildingBlock: BETDEL_clean_sbu_0, # of connection points: 6
#     Node 4, Type 0, BuildingBlock: BETDEL_clean_sbu_0, # of connection points: 6
#     Node 5, Type 0, BuildingBlock: BETDEL_clean_sbu_0, # of connection points: 6
#     Node 6, Type 0, BuildingBlock: BETDEL_clean_sbu_0, # of connection points: 6
#     Node 7, Type 0, BuildingBlock: BETDEL_clean_sbu_0, # of connection points: 6
#     Node 8, Type 0, BuildingBlock: BETDEL_clean_sbu_0, # of connection points: 6
#     Node 9, Type 0, BuildingBlock: BETDEL_clean_sbu_0, # of connection points: 6
#     Node 10, Type 0, BuildingBlock: BETDEL_clean_sbu_0, # of connection points: 6
#     Node 11, Type 0, BuildingBlock: BETDEL_clean_sbu_0, # of connection points: 6
#     Node 12, Type 0, BuildingBlock: BETDEL_clean_sbu_0, # of connection points: 6
#     Node 13, Type 0, BuildingBlock: BETDEL_clean_sbu_0, # of connection points: 6
#     Node 14, Type 0, BuildingBlock: BETDEL_clean_sbu_0, # of connection points: 6
#     Node 15, Type 0, BuildingBlock: BETDEL_clean_sbu_0, # of connection points: 6
#     Edge 16, Type (0, 0), BuildingBlock: AJUNOK_clean_linker_0, # of connection points: 2
#     Edge 17, Type (0, 0), BuildingBlock: AJUNOK_clean_linker_0, # of connection points: 2
#     Edge 18, Type (0, 0), BuildingBlock: AJUNOK_clean_linker_0, # of connection points: 2
#     Edge 19, Type (0, 0), BuildingBlock: AJUNOK_clean_linker_0, # of connection points: 2
#     Edge 20, Type (0, 0), BuildingBlock: AJUNOK_clean_linker_0, # of connection points: 2
#     Edge 21, Type (0, 0), BuildingBlock: AJUNOK_clean_linker_0, # of connection points: 2
#     Edge 22, Type (0, 0), BuildingBlock: AJUNOK_clean_linker_0, # of connection points: 2
#     Edge 23, Type (0, 0), BuildingBlock: AJUNOK_clean_linker_0, # of connection points: 2
#     Edge 24, Type (0, 0), BuildingBlock: AJUNOK_clean_linker_0, # of connection points: 2
#     Edge 25, Type (0, 0), BuildingBlock: AJUNOK_clean_linker_0, # of connection points: 2
#     Edge 26, Type (0, 0), BuildingBlock: AJUNOK_clean_linker_0, # of connection points: 2
#     Edge 27, Type (0, 0), BuildingBlock: AJUNOK_clean_linker_0, # of connection points: 2
#     Edge 28, Type (0, 0), BuildingBlock: AJUNOK_clean_linker_0, # of connection points: 2
#     Edge 29, Type (0, 0), BuildingBlock: AJUNOK_clean_linker_0, # of connection points: 2
#     Edge 30, Type (0, 0), BuildingBlock: AJUNOK_clean_linker_0, # of connection points: 2
#     Edge 31, Type (0, 0), BuildingBlock: AJUNOK_clean_linker_0, # of connection points: 2
#     Edge 32, Type (0, 0), BuildingBlock: AJUNOK_clean_linker_0, # of connection points: 2
#     Edge 33, Type (0, 0), BuildingBlock: AJUNOK_clean_linker_0, # of connection points: 2
#     Edge 34, Type (0, 0), BuildingBlock: AJUNOK_clean_linker_0, # of connection points: 2
#     Edge 35, Type (0, 0), BuildingBlock: AJUNOK_clean_linker_0, # of connection points: 2
#     Edge 36, Type (0, 0), BuildingBlock: AJUNOK_clean_linker_0, # of connection points: 2
#     Edge 37, Type (0, 0), BuildingBlock: AJUNOK_clean_linker_0, # of connection points: 2
#     Edge 38, Type (0, 0), BuildingBlock: AJUNOK_clean_linker_0, # of connection points: 2
#     Edge 39, Type (0, 0), BuildingBlock: AJUNOK_clean_linker_0, # of connection points: 2
#     Edge 40, Type (0, 0), BuildingBlock: AJUNOK_clean_linker_0, # of connection points: 2
#     Edge 41, Type (0, 0), BuildingBlock: AJUNOK_clean_linker_0, # of connection points: 2
#     Edge 42, Type (0, 0), BuildingBlock: AJUNOK_clean_linker_0, # of connection points: 2
#     Edge 43, Type (0, 0), BuildingBlock: AJUNOK_clean_linker_0, # of connection points: 2
#     Edge 44, Type (0, 0), BuildingBlock: AJUNOK_clean_linker_0, # of connection points: 2
#     Edge 45, Type (0, 0), BuildingBlock: AJUNOK_clean_linker_0, # of connection points: 2
#     Edge 46, Type (0, 0), BuildingBlock: AJUNOK_clean_linker_0, # of connection points: 2
#     Edge 47, Type (0, 0), BuildingBlock: AJUNOK_clean_linker_0, # of connection points: 2
#     Edge 48, Type (0, 0), BuildingBlock: AJUNOK_clean_linker_0, # of connection points: 2
#     Edge 49, Type (0, 0), BuildingBlock: AJUNOK_clean_linker_0, # of connection points: 2
#     Edge 50, Type (0, 0), BuildingBlock: AJUNOK_clean_linker_0, # of connection points: 2
#     Edge 51, Type (0, 0), BuildingBlock: AJUNOK_clean_linker_0, # of connection points: 2
#     Edge 52, Type (0, 0), BuildingBlock: AJUNOK_clean_linker_0, # of connection points: 2
#     Edge 53, Type (0, 0), BuildingBlock: AJUNOK_clean_linker_0, # of connection points: 2
#     Edge 54, Type (0, 0), BuildingBlock: AJUNOK_clean_linker_0, # of connection points: 2
#     Edge 55, Type (0, 0), BuildingBlock: AJUNOK_clean_linker_0, # of connection points: 2
#     Edge 56, Type (0, 0), BuildingBlock: AJUNOK_clean_linker_0, # of connection points: 2
#     Edge 57, Type (0, 0), BuildingBlock: AJUNOK_clean_linker_0, # of connection points: 2
#     Edge 58, Type (0, 0), BuildingBlock: AJUNOK_clean_linker_0, # of connection points: 2
#     Edge 59, Type (0, 0), BuildingBlock: AJUNOK_clean_linker_0, # of connection points: 2
#     Edge 60, Type (0, 0), BuildingBlock: AJUNOK_clean_linker_0, # of connection points: 2
#     Edge 61, Type (0, 0), BuildingBlock: AJUNOK_clean_linker_0, # of connection points: 2
#     Edge 62, Type (0, 0), BuildingBlock: AJUNOK_clean_linker_0, # of connection points: 2
#     Edge 63, Type (0, 0), BuildingBlock: AJUNOK_clean_linker_0, # of connection points: 2
# Relax obj value: 0.523
# Max RMSD: 0.279
# Mean RMSD: 0.279
data_MOF--net-whz--node1-BETDEL_clean_sbu_0--edge1-AJUNOK_clean_linker_0
_symmetry_space_group_name_H-M    P1
_symmetry_Int_Tables_number       1
_symmetry_cell_setting            triclinic
loop_
_symmetry_equiv_pos_as_xyz
'x, y, z'
_cell_length_a     24.763484
_cell_length_b     24.954474
_cell_length_c     41.251686
_cell_angle_alpha  89.388539
_cell_angle_beta   89.599796
_cell_angle_gamma 89.837412
loop_
_atom_site_label
_atom_site_type_symbol
_atom_site_fract_x
_atom_site_fract_y
_atom_site_fract_z
_atom_type_partial_charge
Dy0 Dy 0.32069 0.19875 0.17402 0.0
C1 C 0.29295 0.14355 0.04303 0.0
C2 C 0.33324 0.23408 0.23484 0.0
Dy3 Dy 0.31414 0.15392 0.1095 0.0
O4 O 0.33257 0.26433 0.20908 0.0
O5 O 0.33205 0.18413 0.22663 0.0
O6 O 0.23905 0.23311 0.16632 0.0
O7 O 0.29379 0.23583 0.12818 0.0
C8 C 0.24793 0.25302 0.13783 0.0
C9 C 0.3539 0.08671 0.15787 0.0
O10 O 0.3945 0.19979 0.10343 0.0
O11 O 0.39821 0.23241 0.1557 0.0
O12 O 0.33001 0.11742 0.05932 0.0
O13 O 0.26749 0.17421 0.06339 0.0
O14 O 0.32172 0.07099 0.13494 0.0
O15 O 0.36442 0.13496 0.15192 0.0
O16 O 0.25939 0.13576 0.18503 0.0
O17 O 0.23362 0.12701 0.13185 0.0
C18 C 0.41909 0.22856 0.12621 0.0
C19 C 0.22517 0.11804 0.1634 0.0
Dy20 Dy 0.59727 0.55827 0.41679 0.0
C21 C 0.66798 0.53218 0.29029 0.0
C22 C 0.55958 0.57855 0.47655 0.0
Dy23 Dy 0.64354 0.55855 0.35515 0.0
O24 O 0.53014 0.57353 0.45103 0.0
O25 O 0.61023 0.574 0.46901 0.0
O26 O 0.54871 0.48787 0.40569 0.0
O27 O 0.5556 0.54865 0.37012 0.0
C28 C 0.53132 0.50477 0.37802 0.0
C29 C 0.7085 0.59423 0.40583 0.0
O30 O 0.59333 0.63403 0.3484 0.0
O31 O 0.5904 0.64541 0.40303 0.0
O32 O 0.69201 0.56898 0.30723 0.0
O33 O 0.63229 0.50997 0.30929 0.0
O34 O 0.70283 0.62062 0.37854 0.0
O35 O 0.68003 0.55392 0.40342 0.0
O36 O 0.63782 0.48108 0.42651 0.0
O37 O 0.66371 0.4725 0.37296 0.0
C38 C 0.58143 0.66433 0.37357 0.0
C39 C 0.65876 0.45233 0.40304 0.0
Dy40 Dy 0.21949 0.85565 0.67768 0.0
C41 C 0.25095 0.91666 0.54512 0.0
C42 C 0.20684 0.81233 0.73743 0.0
Dy43 Dy 0.22708 0.90037 0.61149 0.0
O44 O 0.20502 0.78618 0.71052 0.0
O45 O 0.21071 0.86332 0.73119 0.0
O46 O 0.30095 0.82153 0.66981 0.0
O47 O 0.24635 0.8186 0.63197 0.0
C48 C 0.29187 0.80115 0.64186 0.0
C49 C 0.18747 0.96754 0.6593 0.0
O50 O 0.14863 0.85071 0.60652 0.0
O51 O 0.14097 0.82523 0.66054 0.0
O52 O 0.21104 0.93873 0.56119 0.0
O53 O 0.27686 0.88601 0.56552 0.0
O54 O 0.21952 0.98323 0.63588 0.0
O55 O 0.17706 0.91936 0.65407 0.0
O56 O 0.28024 0.91886 0.68732 0.0
O57 O 0.30775 0.92441 0.63388 0.0
C58 C 0.12241 0.82487 0.6306 0.0
C59 C 0.31541 0.93471 0.66518 0.0
Dy60 Dy 0.95528 0.48482 0.9212 0.0
C61 C 0.89717 0.51014 0.79032 0.0
C62 C 0.99062 0.46775 0.98187 0.0
Dy63 Dy 0.91292 0.48451 0.85662 0.0
O64 O 1.02111 0.47257 0.95644 0.0
O65 O 0.94021 0.47059 0.97379 0.0
O66 O 1.00217 0.55666 0.90844 0.0
O67 O 0.99793 0.49516 0.87442 0.0
C68 C 1.02074 0.53973 0.88107 0.0
C69 C 0.84676 0.44393 0.90552 0.0
O70 O 0.96343 0.40774 0.85423 0.0
O71 O 0.96543 0.39806 0.9094 0.0
O72 O 0.86722 0.47824 0.80821 0.0
O73 O 0.93458 0.52853 0.80912 0.0
O74 O 0.85287 0.4202 0.87762 0.0
O75 O 0.87462 0.48491 0.9043 0.0
O76 O 0.90818 0.55797 0.92994 0.0
O77 O 0.8869 0.56894 0.87569 0.0
C78 C 0.97565 0.37866 0.88041 0.0
C79 C 0.88766 0.58715 0.90633 0.0
Dy80 Dy 0.73958 0.89556 0.96679 0.0
C81 C 0.7406 0.80126 0.84534 0.0
C82 C 0.76482 0.9121 1.0326 0.0
Dy83 Dy 0.7444 0.84997 0.90281 0.0
O84 O 0.73744 0.94475 1.01383 0.0
O85 O 0.77854 0.87132 1.01503 0.0
O86 O 0.67119 0.95075 0.9455 0.0
O87 O 0.73679 0.93026 0.91799 0.0
C88 C 0.69373 0.95533 0.9168 0.0
C89 C 0.80533 0.79335 0.94338 0.0
O90 O 0.81236 0.90513 0.89341 0.0
O91 O 0.82294 0.92538 0.94763 0.0
O92 O 0.74364 0.77715 0.87305 0.0
O93 O 0.73641 0.85275 0.84909 0.0
O94 O 0.82224 0.81519 0.91683 0.0
O95 O 0.75809 0.8115 0.95002 0.0
O96 O 0.66501 0.84328 0.97129 0.0
O97 O 0.65791 0.83247 0.91619 0.0
C98 C 0.84078 0.92666 0.91679 0.0
C99 C 0.63853 0.82499 0.94587 0.0
Dy100 Dy 0.39179 0.47687 0.71382 0.0
C101 C 0.47844 0.48 0.59055 0.0
C102 C 0.37661 0.50405 0.77902 0.0
Dy103 Dy 0.43452 0.48398 0.64988 0.0
O104 O 0.34935 0.46753 0.76362 0.0
O105 O 0.41066 0.52498 0.75853 0.0
O106 O 0.33253 0.4137 0.69281 0.0
O107 O 0.35338 0.4808 0.66651 0.0
C108 C 0.32635 0.43927 0.66528 0.0
C109 C 0.49767 0.53633 0.69076 0.0
O110 O 0.3866 0.55782 0.64299 0.0
O111 O 0.36522 0.56262 0.69746 0.0
O112 O 0.50512 0.47981 0.61727 0.0
O113 O 0.42686 0.47868 0.59636 0.0
O114 O 0.47704 0.5565 0.66481 0.0
O115 O 0.47681 0.49026 0.69628 0.0
O116 O 0.44465 0.40184 0.71557 0.0
O117 O 0.44658 0.39612 0.66029 0.0
C118 C 0.36613 0.5844 0.66757 0.0
C119 C 0.45803 0.37507 0.68899 0.0
Dy120 Dy 0.80639 0.14602 0.4666 0.0
C121 C 0.82593 0.23844 0.34266 0.0
C122 C 0.78251 0.13367 0.53303 0.0
Dy123 Dy 0.81438 0.19236 0.40144 0.0
O124 O 0.81823 0.10602 0.51661 0.0
O125 O 0.76023 0.16739 0.51291 0.0
O126 O 0.81437 0.06414 0.44106 0.0
O127 O 0.85769 0.12869 0.42416 0.0
C128 C 0.84742 0.08069 0.41831 0.0
C129 C 0.73923 0.24303 0.43677 0.0
O130 O 0.75269 0.12936 0.39126 0.0
O131 O 0.72607 0.12105 0.44475 0.0
O132 O 0.82479 0.26381 0.36986 0.0
O133 O 0.82598 0.18699 0.34807 0.0
O134 O 0.73157 0.22253 0.40874 0.0
O135 O 0.78534 0.22773 0.447 0.0
O136 O 0.88662 0.19136 0.47248 0.0
O137 O 0.89191 0.22479 0.41992 0.0
C138 C 0.71766 0.11251 0.41337 0.0
C139 C 0.9117 0.22059 0.44955 0.0
Dy140 Dy 0.15201 0.56076 0.21541 0.0
C141 C 0.06468 0.57484 0.09305 0.0
C142 C 0.16667 0.5362 0.28139 0.0
Dy143 Dy 0.10079 0.57638 0.1541 0.0
O144 O 0.19749 0.56801 0.26396 0.0
O145 O 0.1286 0.51939 0.2626 0.0
O146 O 0.23295 0.56142 0.18745 0.0
O147 O 0.17172 0.61225 0.17318 0.0
C148 C 0.21812 0.59624 0.16543 0.0
C149 C 0.03068 0.53415 0.19697 0.0
O150 O 0.14357 0.49843 0.1435 0.0
O151 O 0.17486 0.48031 0.195 0.0
O152 O 0.03502 0.58372 0.1183 0.0
O153 O 0.11511 0.57147 0.10104 0.0
O154 O 1.02289 0.5778 0.18064 0.0
O155 O 0.08012 0.52053 0.1937 0.0
O156 O 0.10101 0.63881 0.22153 0.0
O157 O 0.09857 0.66129 0.16753 0.0
C158 C 0.16892 0.46665 0.16426 0.0
C159 C 0.08809 0.67362 0.19782 0.0
Dy160 Dy 0.81236 0.68104 0.67272 0.0
C161 C 0.78092 0.63125 0.54152 0.0
C162 C 0.83557 0.71312 0.73296 0.0
Dy163 Dy 0.80877 0.64539 0.6075 0.0
O164 O 0.83357 0.74386 0.70758 0.0
O165 O 0.82667 0.66381 0.72502 0.0
O166 O 0.73853 0.72772 0.66651 0.0
O167 O 0.79563 0.7281 0.62834 0.0
C168 C 0.75121 0.74861 0.6388 0.0
C169 C 0.85322 0.57651 0.65424 0.0
O170 O 0.88408 0.69689 0.60238 0.0
O171 O 0.89871 0.6925 0.65694 0.0
O172 O 0.80953 0.59841 0.55944 0.0
O173 O 0.76726 0.67092 0.56005 0.0
O174 O 0.87753 0.58793 0.62679 0.0
O175 O 0.81097 0.60266 0.65392 0.0
O176 O 0.73879 0.63374 0.68198 0.0
O177 O 0.72445 0.61944 0.62738 0.0
C178 C 0.91552 0.70622 0.62755 0.0
C179 C 0.70782 0.61674 0.65844 0.0
Dy180 Dy 0.11693 0.06513 0.92525 0.0
C181 C 0.17226 0.03984 0.79573 0.0
C182 C 0.07518 0.07698 0.985 0.0
Dy183 Dy 0.15668 0.06647 0.86106 0.0
O184 O 0.12648 0.07372 0.9786 0.0
O185 O 0.04801 0.07716 0.95846 0.0
O186 O 0.07128 0.99255 0.91431 0.0
O187 O 0.07221 0.05494 0.87981 0.0
C188 C 0.05097 1.00986 0.8875 0.0
C189 C 0.22512 0.10604 0.90826 0.0
O190 O 0.10308 0.14026 0.85744 0.0
O191 O 0.1058 0.15234 0.91214 0.0
O192 O 0.19704 0.07821 0.81093 0.0
O193 O 0.14063 1.01618 0.81655 0.0
O194 O 0.21645 0.13088 0.88078 0.0
O195 O 0.19778 0.06477 0.90782 0.0
O196 O 0.16591 0.99172 0.93303 0.0
O197 O 0.17949 0.98039 0.87822 0.0
C198 C 0.09269 0.17044 0.88298 0.0
C199 C 0.18229 0.96168 0.90876 0.0
Dy200 Dy 0.7302 0.35393 0.17253 0.0
C201 C 0.77008 0.40625 0.04012 0.0
C202 C 0.71133 0.32053 0.23374 0.0
Dy203 Dy 0.74506 0.39571 0.10664 0.0
O204 O 0.70988 0.29027 0.20838 0.0
O205 O 0.71843 0.3701 0.22493 0.0
O206 O 0.81 0.31535 0.16842 0.0
O207 O 0.75969 0.3141 0.1283 0.0
C208 C 0.80393 0.29628 0.13984 0.0
C209 C 0.70347 0.46481 0.15338 0.0
O210 O 0.66322 0.35296 0.10011 0.0
O211 O 0.65124 0.32629 0.15373 0.0
O212 O 0.73574 0.43574 0.05638 0.0
O213 O 0.79055 0.37179 0.0605 0.0
O214 O 0.74042 0.47863 0.13217 0.0
O215 O 0.69165 0.41752 0.14706 0.0
O216 O 0.79496 0.41447 0.18141 0.0
O217 O 0.82697 0.41327 0.12906 0.0
C218 C 0.63383 0.32919 0.12354 0.0
C219 C 0.83377 0.42495 0.16018 0.0
Dy220 Dy 0.43976 0.97001 0.42388 0.0
C221 C 0.38124 1.00665 0.29354 0.0
C222 C 0.47109 0.94633 0.48454 0.0
Dy223 Dy 0.39689 0.98077 0.35938 0.0
O224 O 0.50275 0.94758 0.45941 0.0
O225 O 0.42175 0.95564 0.47585 0.0
O226 O 0.48236 0.04701 0.41755 0.0
O227 O 0.48058 0.99507 0.37842 0.0
C228 C 0.50129 0.03839 0.38887 0.0
C229 C 0.32646 0.94463 0.40802 0.0
O230 O 0.44428 0.90121 0.35296 0.0
O231 O 0.47086 0.89275 0.40632 0.0
O232 O 0.35889 0.96645 0.30924 0.0
O233 O 0.41163 0.03164 0.31401 0.0
O234 O 0.31345 0.97964 0.38571 0.0
O235 O 0.37383 0.93072 0.40156 0.0
O236 O 0.38226 0.03703 0.43371 0.0
O237 O 0.37931 0.06325 0.38021 0.0
C238 C 0.47021 0.87433 0.37653 0.0
C239 C 0.36974 0.07284 0.41134 0.0
Dy240 Dy 0.23493 0.38969 0.46512 0.0
C241 C 0.20684 0.3008 0.34256 0.0
C242 C 0.25649 0.40324 0.5311 0.0
Dy243 Dy 0.22279 0.34246 0.40151 0.0
O244 O 0.22069 0.42986 0.51417 0.0
O245 O 0.28075 0.37015 0.51164 0.0
O246 O 0.22955 0.47185 0.43873 0.0
O247 O 0.18325 0.40892 0.42352 0.0
C248 C 0.19535 0.45652 0.4168 0.0
C249 C 0.29577 0.2879 0.43707 0.0
O250 O 0.28602 0.4031 0.3884 0.0
O251 O 0.31492 0.41322 0.44098 0.0
O252 O 0.20796 0.27356 0.36945 0.0
O253 O 0.20878 0.35169 0.3487 0.0
O254 O 0.30394 0.30684 0.40831 0.0
O255 O 0.25084 0.30636 0.44737 0.0
O256 O 0.15323 0.34776 0.47323 0.0
O257 O 0.14343 0.31482 0.42127 0.0
C258 C 0.322 0.42071 0.40917 0.0
C259 C 0.12531 0.32054 0.45124 0.0
Dy260 Dy 0.90458 0.98192 0.21785 0.0
C261 C 0.98993 0.96722 0.09447 0.0
C262 C 0.88013 1.00893 0.28241 0.0
Dy263 Dy 0.95242 0.98196 0.15493 0.0
O264 O 0.85777 0.97042 0.26604 0.0
O265 O 0.91456 0.03246 0.26311 0.0
O266 O 0.84287 0.92149 0.19524 0.0
O267 O 0.87043 0.98556 0.16924 0.0
C268 C 0.84053 0.94627 0.16723 0.0
C269 C 1.01644 0.03522 0.19501 0.0
O270 O 0.91046 0.05886 0.14608 0.0
O271 O 0.88321 0.06723 0.1995 0.0
O272 O 1.01933 0.96939 0.12018 0.0
O273 O 0.93925 0.96987 0.10232 0.0
O274 O 1.0 0.05248 0.16721 0.0
O275 O 0.99211 0.99115 0.20221 0.0
O276 O 0.95598 0.90719 0.22386 0.0
O277 O 0.95979 0.89494 0.16906 0.0
C278 C 0.8885 0.08733 0.16941 0.0
C279 C 0.96813 0.8767 0.19878 0.0
Dy280 Dy 0.3201 0.64365 0.9631 0.0
C281 C 0.33829 0.72101 0.83648 0.0
C282 C 0.29519 0.62685 1.02919 0.0
Dy283 Dy 0.33963 0.69182 0.89969 0.0
O284 O 0.32751 0.59736 1.0116 0.0
O285 O 0.2776 0.66535 1.01053 0.0
O286 O 0.32206 0.56226 0.93719 0.0
O287 O 0.37339 0.62251 0.92243 0.0
C288 C 0.35793 0.57624 0.91545 0.0
C289 C 0.29472 0.76341 0.93987 0.0
O290 O 0.26323 0.64669 0.88882 0.0
O291 O 0.24098 0.61952 0.94088 0.0
O292 O 0.35213 0.75171 0.86011 0.0
O293 O 0.33051 0.67282 0.84741 0.0
O294 O 0.33808 0.77101 0.92297 0.0
O295 O 0.28146 0.71414 0.93799 0.0
O296 O 0.3998 0.69233 0.96901 0.0
O297 O 0.42447 0.69436 0.9151 0.0
C298 C 0.23014 0.62236 0.90944 0.0
C299 C 0.43647 0.70279 0.94567 0.0
Dy300 Dy 0.63676 0.0609 0.71708 0.0
C301 C 0.54633 0.05613 0.59407 0.0
C302 C 0.65133 0.0348 0.78323 0.0
Dy303 Dy 0.59041 0.05492 0.65322 0.0
O304 O 0.68296 0.06523 0.76539 0.0
O305 O 0.61273 1.01866 0.76456 0.0
O306 O 0.6976 0.12281 0.69481 0.0
O307 O 0.67184 0.05849 0.66851 0.0
C308 C 0.69996 0.09943 0.66658 0.0
C309 C 0.52843 1.00445 0.69702 0.0
O310 O 0.64066 0.98329 0.64561 0.0
O311 O 0.6642 0.97603 0.6996 0.0
O312 O 0.51967 0.05523 0.62105 0.0
O313 O 0.59766 0.06051 0.59953 0.0
O314 O 0.54803 0.98297 0.6712 0.0
O315 O 0.5511 0.04985 0.70101 0.0
O316 O 0.58813 0.13912 0.71763 0.0
O317 O 0.58015 0.14281 0.66221 0.0
C318 C 0.66277 0.95587 0.66948 0.0
C319 C 0.57388 0.16561 0.69078 0.0
C320 C 0.2844 0.30309 0.2652 0.0
C321 C 0.30757 0.25168 0.26471 0.0
C322 C 0.2469 0.31682 0.28891 0.0
C323 C 0.23226 0.28003 0.31334 0.0
H324 H 0.29368 0.33249 0.24646 0.0
H325 H 0.23079 0.35727 0.28873 0.0
S326 S 0.28263 0.14044 0.32317 0.0
N327 N 0.3142 0.16391 0.29067 0.0
N328 N 0.24352 0.18983 0.33574 0.0
C329 C 0.25508 0.22832 0.31316 0.0
C330 C 0.29342 0.21438 0.28897 0.0
C331 C 0.4655 0.51965 0.53671 0.0
C332 C 0.50097 0.50319 0.56118 0.0
C333 C 0.48401 0.55036 0.51077 0.0
C334 C 0.53872 0.56445 0.50829 0.0
H335 H 0.42304 0.50929 0.53771 0.0
H336 H 0.4558 0.56047 0.49167 0.0
S337 S 0.6468 0.53567 0.56767 0.0
N338 N 0.59246 0.50615 0.58276 0.0
N339 N 0.62729 0.56432 0.53346 0.0
C340 C 0.57415 0.5506 0.53333 0.0
C341 C 0.55539 0.51911 0.55976 0.0
C342 C 0.2649 0.82078 0.78503 0.0
C343 C 0.2324 0.78816 0.76574 0.0
C344 C 0.30261 0.7983 0.80601 0.0
C345 C 0.30827 0.74246 0.80894 0.0
H346 H 0.26299 0.86407 0.78298 0.0
H347 H 0.32645 0.82502 0.82066 0.0
S348 S 0.23088 0.63962 0.7647 0.0
N349 N 0.20697 0.69748 0.75124 0.0
N350 N 0.27764 0.65483 0.79139 0.0
C351 C 0.27542 0.70927 0.79018 0.0
C352 C 0.23707 0.73225 0.76866 0.0
C353 C 0.06411 0.49858 1.01601 0.0
C354 C 1.00977 0.48342 1.01347 0.0
C355 C 0.08083 0.5309 0.04114 0.0
C356 C 0.04393 0.5481 0.06475 0.0
H357 H 0.09336 0.48821 0.99742 0.0
H358 H 0.12297 0.54242 0.04205 0.0
S359 S 0.89893 0.51155 0.07167 0.0
N360 N 0.92035 0.48228 0.03826 0.0
N361 N 0.9519 0.5431 0.08618 0.0
C362 C 0.99007 0.53046 0.06362 0.0
C363 C 0.97308 0.49742 0.03796 0.0
C364 C 0.78475 0.8108 0.79243 0.0
C365 C 0.76296 0.77712 0.81648 0.0
C366 C 0.81473 0.78964 0.7671 0.0
C367 C 0.82247 0.73407 0.76465 0.0
H368 H 0.77938 0.85388 0.79335 0.0
H369 H 0.82918 0.81688 0.74834 0.0
S370 S 0.77805 0.62942 0.82325 0.0
N371 N 0.75437 0.68615 0.838 0.0
N372 N 0.81054 0.64604 0.78956 0.0
C373 C 0.80323 0.70008 0.78934 0.0
C374 C 0.77282 0.72168 0.81531 0.0
C375 C 0.7474 0.24563 0.26599 0.0
C376 C 0.73253 0.29995 0.26428 0.0
C377 C 0.78178 0.22695 0.2901 0.0
C378 C 0.8015 0.26171 0.31372 0.0
H379 H 0.73434 0.21759 0.24778 0.0
H380 H 0.79178 0.18464 0.29066 0.0
S381 S 0.77191 0.40709 0.32097 0.0
N382 N 0.73816 0.38806 0.28873 0.0
N383 N 0.80277 0.35271 0.33462 0.0
C384 C 0.78618 0.31602 0.3127 0.0
C385 C 0.75111 0.33507 0.28805 0.0
C386 C 0.06618 0.99807 0.0615 0.0
C387 C 1.01059 0.98773 0.06387 0.0
C388 C 0.08642 0.03172 0.03739 0.0
C389 C 0.05176 0.05507 1.01454 0.0
H390 H 0.09413 0.98173 0.07915 0.0
H391 H 0.12968 0.03797 1.03608 0.0
S392 S 0.90299 0.03903 1.00965 0.0
N393 N 0.92116 1.002 0.04112 0.0
N394 N 0.95935 0.06576 0.99538 0.0
C395 C 0.99602 0.0448 1.01644 0.0
C396 C 0.97545 1.01026 0.04096 0.0
C397 C 0.5452 0.97522 0.51883 0.0
C398 C 0.49036 0.96211 0.51607 0.0
C399 C 0.56247 1.00906 0.54311 0.0
C400 C 0.52556 0.0297 0.56569 0.0
H401 H 0.57453 0.96212 0.50094 0.0
H402 H 0.60508 1.01854 0.54432 0.0
S403 S 0.37869 1.00138 0.57125 0.0
N404 N 0.40006 0.96751 0.5395 0.0
N405 N 0.4326 0.03168 0.58546 0.0
C406 C 0.47103 1.01463 0.56422 0.0
C407 C 0.45352 0.97994 0.53956 0.0
C408 C 0.28444 0.08715 0.95636 0.0
C409 C 0.25127 0.12398 0.93931 0.0
C410 C 0.2994 0.09475 0.98911 0.0
C411 C 0.2804 0.13872 1.00714 0.0
H412 H 0.29746 0.05072 0.94453 0.0
H413 H 0.32423 0.06453 1.0008 0.0
S414 S 0.19174 0.24702 0.97456 0.0
N415 N 0.20057 0.20685 0.94337 0.0
N416 N 0.22667 0.22044 1.00475 0.0
C417 C 0.24773 0.17637 0.99029 0.0
C418 C 0.23366 0.1692 0.9566 0.0
C419 C 0.71882 0.53994 0.23533 0.0
C420 C 0.67656 0.51814 0.25471 0.0
C421 C 0.72664 0.52511 0.20222 0.0
C422 C 0.6924 0.48795 0.18686 0.0
H423 H 0.74673 0.56795 0.24596 0.0
H424 H 0.7607 0.54163 0.18894 0.0
S425 S 0.57384 0.4216 0.22579 0.0
N426 N 0.59909 0.45872 0.25483 0.0
N427 N 0.61281 0.43229 0.1938 0.0
C428 C 0.64915 0.46756 0.20578 0.0
C429 C 0.6416 0.48207 0.23922 0.0
C430 C 0.30398 0.88929 0.49486 0.0
C431 C 0.26593 0.92404 0.50936 0.0
C432 C 0.32083 0.89528 0.4621 0.0
C433 C 0.3014 0.93685 0.44169 0.0
H434 H 0.32153 0.85704 0.50909 0.0
H435 H 0.3508 0.86752 0.45288 0.0
S436 S 0.20117 0.03957 0.46705 0.0
N437 N 0.20873 1.00186 0.49992 0.0
N438 N 0.24095 1.01351 0.43896 0.0
C439 C 0.26266 0.97159 0.45561 0.0
C440 C 0.24503 0.96521 0.48911 0.0
C441 C 0.83467 0.52156 0.70467 0.0
C442 C 0.87247 0.55129 0.68587 0.0
C443 C 0.84352 0.5074 0.73763 0.0
C444 C 0.89024 0.52333 0.7543 0.0
H445 H 0.79646 0.51057 0.694 0.0
H446 H 0.81238 0.4852 0.75048 0.0
S447 S 1.00245 0.60243 0.71716 0.0
N448 N 0.95929 0.5958 0.68709 0.0
N449 N 0.97565 0.57062 0.7487 0.0
C450 C 0.92893 0.55255 0.73576 0.0
C451 C 0.92022 0.56614 0.70185 0.0
C452 C 0.81533 0.88354 0.12042 0.0
C453 C 0.81205 0.93387 0.13564 0.0
C454 C 0.79945 0.87668 0.0875 0.0
C455 C 0.77911 0.91959 0.06819 0.0
H456 H 0.83281 0.84985 0.1334 0.0
H457 H 0.80412 0.83742 0.0769 0.0
S458 S 0.76187 0.05936 0.09645 0.0
N459 N 0.78624 0.02718 0.12834 0.0
N460 N 0.75627 1.0141 0.06777 0.0
C461 C 0.77447 0.96955 0.0835 0.0
C462 C 0.79098 0.97664 0.11668 0.0
C463 C 0.32721 0.51708 0.86829 0.0
C464 C 0.36449 0.55341 0.88172 0.0
C465 C 0.33113 0.50053 0.83538 0.0
C466 C 0.37226 0.51984 0.81436 0.0
H467 H 0.294 0.5023 0.88304 0.0
H468 H 0.30118 0.47312 0.82623 0.0
S469 S 0.48118 0.61392 0.8377 0.0
N470 N 0.44511 0.60599 0.87116 0.0
N471 N 0.45169 0.57653 0.8103 0.0
C472 C 0.40998 0.55546 0.82779 0.0
C473 C 0.40632 0.5717 0.86107 0.0
C474 C 0.73811 0.16761 0.58528 0.0
C475 C 0.76744 0.12725 0.5687 0.0
C476 C 0.72036 0.16101 0.61801 0.0
C477 C 0.73059 0.11342 0.63574 0.0
H478 H 0.72765 0.20437 0.5726 0.0
H479 H 0.69585 0.19218 0.62883 0.0
S480 S 0.80499 0.99508 0.60419 0.0
N481 N 0.80624 0.03819 0.57352 0.0
N482 N 0.77204 0.02526 0.6338 0.0
C483 C 0.76049 0.07327 0.61957 0.0
C484 C 0.7792 0.08029 0.58658 0.0
C485 C 0.2201 0.52106 0.36967 0.0
C486 C 0.18618 0.48114 0.38341 0.0
C487 C 0.21391 0.53929 0.33698 0.0
C488 C 0.17335 0.51868 0.31656 0.0
H489 H 0.25259 0.53731 0.38395 0.0
H490 H 0.24148 0.56934 0.32757 0.0
S491 S 0.07371 0.41411 0.34067 0.0
N492 N 0.11021 0.42253 0.37351 0.0
N493 N 0.09867 0.4561 0.31335 0.0
C494 C 0.13897 0.47943 0.33035 0.0
C495 C 0.14532 0.46098 0.36327 0.0
C496 C 0.77266 0.57518 0.49014 0.0
C497 C 0.76584 0.62474 0.50582 0.0
C498 C 0.75654 0.56732 0.45755 0.0
C499 C 0.73402 0.6088 0.4381 0.0
H500 H 0.78921 0.5414 0.50348 0.0
H501 H 0.76076 0.52752 0.4476 0.0
S502 S 0.70712 0.74677 0.46681 0.0
N503 N 0.73417 0.71648 0.49866 0.0
N504 N 0.70553 0.70176 0.43772 0.0
C505 C 0.72801 0.65896 0.45313 0.0
C506 C 0.74343 0.66681 0.48669 0.0
C507 C 0.14519 0.98239 0.74849 0.0
C508 C 0.17651 0.02504 0.76026 0.0
C509 C 0.14769 0.9663 0.71579 0.0
C510 C 0.18182 0.99163 0.69279 0.0
H511 H 0.11858 0.96055 0.76482 0.0
H512 H 0.12324 0.93253 0.70865 0.0
S513 S 0.27029 0.1077 0.71012 0.0
N514 N 0.24148 0.09398 0.74549 0.0
N515 N 0.24603 0.0639 0.68424 0.0
C516 C 0.21235 0.03542 0.7039 0.0
C517 C 0.20986 0.05189 0.73744 0.0
C518 C 0.77083 0.45792 0.98636 0.0
C519 C 0.78508 0.41169 1.00434 0.0
C520 C 0.78788 0.46572 0.95374 0.0
C521 C 0.81864 0.42708 0.93672 0.0
H522 H 0.74802 0.48955 0.99796 0.0
H523 H 0.7783 0.50355 0.94196 0.0
S524 S 0.86649 0.29828 0.97199 0.0
N525 N 0.83222 0.32611 1.00198 0.0
N526 N 0.86251 0.34042 0.94091 0.0
C527 C 0.83179 0.3799 0.954 0.0
C528 C 0.81546 0.37235 0.98756 0.0
C529 C 0.39903 0.08449 0.21286 0.0
C530 C 0.36214 0.06115 0.1912 0.0
C531 C 0.40478 0.06625 0.24528 0.0
C532 C 0.37425 0.0232 0.25817 0.0
H533 H 0.42325 0.11828 0.20487 0.0
H534 H 0.43335 0.08674 0.26053 0.0
S535 S 0.27257 0.94639 0.21198 0.0
N536 N 0.29514 0.99112 0.18536 0.0
N537 N 0.30591 0.95693 0.24589 0.0
C538 C 0.33786 0.99857 0.23669 0.0
C539 C 0.33195 1.01732 0.20347 0.0
C540 C 0.31275 0.37704 0.61729 0.0
C541 C 0.2987 0.42382 0.63432 0.0
C542 C 0.29826 0.37026 0.58426 0.0
C543 C 0.26867 0.40966 0.56681 0.0
H544 H 0.33779 0.34691 0.6289 0.0
H545 H 0.31144 0.33424 0.57208 0.0
S546 S 0.22185 0.53933 0.60034 0.0
N547 N 0.25348 0.51007 0.63089 0.0
N548 N 0.22532 0.49677 0.56999 0.0
C549 C 0.25308 0.45569 0.58399 0.0
C550 C 0.2684 0.46288 0.61727 0.0
C551 C 0.90245 0.06438 0.33156 0.0
C552 C 0.87073 0.02385 0.31765 0.0
C553 C 0.89542 0.08049 0.36408 0.0
C554 C 0.85628 0.05712 0.38487 0.0
H555 H 0.9331 0.08444 0.31708 0.0
H556 H 0.92068 0.1125 0.3729 0.0
S557 S 0.76151 0.94963 0.36096 0.0
N558 N 0.79791 0.9606 0.3278 0.0
N559 N 0.78472 0.99095 0.38862 0.0
C560 C 0.82442 1.0161 0.37152 0.0
C561 C 0.83156 0.9996 0.33815 0.0
C562 C 0.2232 0.64633 0.11162 0.0
C563 C 0.242 0.60401 0.13163 0.0
C564 C 0.24112 0.65337 0.07916 0.0
C565 C 0.27867 0.61825 0.0645 0.0
H566 H 0.1937 0.67436 0.12106 0.0
H567 H 0.2247 0.6866 0.06526 0.0
S568 S 0.33996 0.49968 0.10555 0.0
N569 N 0.30049 0.52581 0.13376 0.0
N570 N 0.33362 0.53858 0.0731 0.0
C571 C 0.29798 0.57565 0.08419 0.0
C572 C 0.27992 0.5687 0.11748 0.0
C573 C 0.7078 0.02824 0.8347 0.0
C574 C 0.65848 1.01926 0.81882 0.0
C575 C 0.71684 1.01044 0.86699 0.0
C576 C 0.67673 0.98393 0.88582 0.0
H577 H 0.74067 0.0475 0.82167 0.0
H578 H 0.75667 1.01616 0.87709 0.0
S579 S 0.5395 0.95152 0.8566 0.0
N580 N 0.5681 0.98237 0.82527 0.0
N581 N 0.58505 0.95035 0.8857 0.0
C582 C 0.62655 0.97627 0.87073 0.0
C583 C 0.61753 0.99351 0.83749 0.0
C584 C 0.48802 0.29558 0.14392 0.0
C585 C 0.47189 0.25796 0.12055 0.0
C586 C 0.53889 0.3201 0.14302 0.0
C587 C 0.57712 0.30933 0.11854 0.0
H588 H 0.4616 0.30554 0.16402 0.0
H589 H 0.54897 0.34692 0.16254 0.0
S590 S 0.55502 0.21831 0.04932 0.0
N591 N 0.49807 0.21416 0.07039 0.0
N592 N 0.59403 0.2609 0.06871 0.0
C593 C 0.56106 0.2743 0.09377 0.0
C594 C 0.50858 0.24862 0.09476 0.0
C595 C 0.55895 0.75335 0.39744 0.0
C596 C 0.55689 0.71959 0.37042 0.0
C597 C 0.53216 0.80281 0.3981 0.0
C598 C 0.50087 0.82223 0.37185 0.0
H599 H 0.58105 0.74124 0.4189 0.0
H600 H 0.53583 0.82563 0.42015 0.0
S601 S 0.48522 0.75169 0.29369 0.0
N602 N 0.52344 0.71064 0.31542 0.0
N603 N 0.47255 0.80411 0.31676 0.0
C604 C 0.49998 0.79004 0.34392 0.0
C605 C 0.52795 0.73889 0.34318 0.0
C606 C 1.00478 0.73114 0.65134 0.0
C607 C 0.97 0.73328 0.62452 0.0
C608 C 0.05347 0.7596 0.65205 0.0
C609 C 0.07103 0.79283 0.62606 0.0
H610 H 0.99406 0.70769 0.67265 0.0
H611 H 0.07724 0.75563 0.67388 0.0
S612 S 0.99703 0.81085 0.54867 0.0
N613 N 0.95804 0.76985 0.57011 0.0
N614 N 0.04991 0.82383 0.57154 0.0
C615 C 0.03776 0.79423 0.59838 0.0
C616 C 0.98746 0.76457 0.5976 0.0
C617 C 1.01946 0.29929 0.90818 0.0
C618 C 1.00418 0.32485 0.87887 0.0
C619 C 0.04824 0.2506 0.90883 0.0
C620 C 0.06347 0.22375 0.88028 0.0
H621 H 1.00953 0.31713 0.93123 0.0
H622 H 0.05834 0.23376 0.93239 0.0
S623 S 0.03359 0.27216 0.79669 0.0
N624 N 1.00694 0.31874 0.82012 0.0
N625 N 0.06033 0.22684 0.82135 0.0
C626 C 0.04833 0.24837 0.8506 0.0
C627 C 1.01903 0.29869 0.84995 0.0
C628 C 0.54662 0.80208 0.9717 0.0
C629 C 0.58918 0.79029 0.94985 0.0
C630 C 0.49821 0.77138 0.97241 0.0
C631 C 0.49101 0.72725 0.95168 0.0
H632 H 0.54962 0.83668 0.98719 0.0
H633 H 0.46527 0.78407 0.98796 0.0
S634 S 0.59397 0.6742 0.8943 0.0
N635 N 0.62277 0.72749 0.90991 0.0
N636 N 0.53389 0.6701 0.9117 0.0
C637 C 0.53499 0.7132 0.93157 0.0
C638 C 0.58338 0.74452 0.93053 0.0
C639 C 0.49358 0.29104 0.71893 0.0
C640 C 0.48896 0.32236 0.69026 0.0
C641 C 0.52222 0.24142 0.71953 0.0
C642 C 0.54794 0.22085 0.69154 0.0
H643 H 0.47419 0.30446 0.74102 0.0
H644 H 0.5231 0.21848 0.74195 0.0
S645 S 0.55361 0.28968 0.61104 0.0
N646 N 0.51672 0.32991 0.63368 0.0
N647 N 0.56986 0.23883 0.6349 0.0
C648 C 0.54511 0.25285 0.66311 0.0
C649 C 0.51595 0.30277 0.66246 0.0
C650 C 0.05708 0.25503 0.47637 0.0
C651 C 0.06875 0.30138 0.45762 0.0
C652 C 1.00527 0.23034 0.47562 0.0
C653 C 0.9636 0.25058 0.45561 0.0
H654 H 0.08888 0.23611 0.49032 0.0
H655 H 0.99892 0.19358 0.48929 0.0
S656 S 0.9728 0.37379 0.40427 0.0
N657 N 0.03303 0.36839 0.4208 0.0
N658 N 0.93774 0.32256 0.41861 0.0
C659 C 0.97467 0.29832 0.4381 0.0
C660 C 0.02656 0.3234 0.43925 0.0
C661 C 0.06205 0.76126 0.2263 0.0
C662 C 0.05252 0.72195 0.20268 0.0
C663 C 0.03266 0.81038 0.22637 0.0
C664 C 0.99285 0.82192 0.2028 0.0
H665 H 0.09402 0.75523 0.24375 0.0
H666 H 0.04311 0.84053 0.24392 0.0
S667 S 0.9466 0.72892 0.13918 0.0
N668 N 0.9955 0.69597 0.15773 0.0
N669 N 0.94183 0.78697 0.15777 0.0
C670 C 0.98102 0.78149 0.18052 0.0
C671 C 1.01034 0.73199 0.18051 0.0
C672 C 0.26462 0.34843 0.15158 0.0
C673 C 0.23252 0.31062 0.1354 0.0
C674 C 0.24407 0.39895 0.16044 0.0
C675 C 0.191 0.41445 0.15272 0.0
H676 H 0.30475 0.33737 0.15959 0.0
H677 H 0.26958 0.42566 0.17405 0.0
S678 S 0.09124 0.33195 0.109 0.0
N679 N 0.14519 0.29299 0.11158 0.0
N680 N 0.10773 0.38906 0.12624 0.0
C681 C 0.15954 0.37842 0.13485 0.0
C682 C 0.17995 0.32628 0.12673 0.0
C683 C 0.38848 0.49743 0.40748 0.0
C684 C 0.3718 0.44728 0.39604 0.0
C685 C 0.43719 0.52114 0.39662 0.0
C686 C 0.4723 0.49495 0.37467 0.0
H687 H 0.36447 0.51785 0.42562 0.0
H688 H 0.44996 0.55793 0.40791 0.0
S689 S 0.44531 0.36454 0.33585 0.0
N690 N 0.39175 0.37457 0.35914 0.0
N691 N 0.48473 0.41713 0.34076 0.0
C692 C 0.45445 0.44617 0.36184 0.0
C693 C 0.40404 0.42283 0.37207 0.0
C694 C 0.27299 0.70556 0.65657 0.0
C695 C 0.30682 0.74352 0.6409 0.0
C696 C 0.29242 0.65464 0.6663 0.0
C697 C 0.34628 0.63956 0.66033 0.0
H698 H 0.2319 0.71638 0.66292 0.0
H699 H 0.26517 0.62694 0.67841 0.0
S700 S 0.45092 0.7233 0.61967 0.0
N701 N 0.39669 0.76201 0.6202 0.0
N702 N 0.43252 0.66595 0.63675 0.0
C703 C 0.37984 0.6764 0.64373 0.0
C704 C 0.36037 0.7284 0.63449 0.0
C705 C 0.11379 0.52389 0.90041 0.0
C706 C 0.07965 0.54934 0.87768 0.0
C707 C 0.16266 0.54728 0.91012 0.0
C708 C 0.18054 0.59619 0.89668 0.0
H709 H 0.10019 0.48813 0.91308 0.0
H710 H 0.18586 0.52762 0.92901 0.0
S711 S 0.11078 0.67455 0.83236 0.0
N712 N 0.06969 0.62383 0.84003 0.0
N713 N 0.16354 0.66555 0.85615 0.0
C714 C 0.14955 0.61924 0.87157 0.0
C715 C 0.09873 0.59636 0.86257 0.0
C716 C 0.7876 0.69871 0.92755 0.0
C717 C 0.82023 0.73573 0.94416 0.0
C718 C 0.80962 0.65162 0.91386 0.0
C719 C 0.86504 0.63979 0.91636 0.0
H720 H 0.74551 0.70797 0.92319 0.0
H721 H 0.78316 0.62436 0.90136 0.0
S722 S 0.96668 0.72056 0.95976 0.0
N723 N 0.91005 0.75511 0.96363 0.0
N724 N 0.95085 0.66652 0.93915 0.0
C725 C 0.89716 0.67477 0.93453 0.0
C726 C 0.87494 0.72253 0.94816 0.0
C727 C 0.64027 0.54124 0.66066 0.0
C728 C 0.65498 0.59383 0.66857 0.0
C729 C 0.59181 0.51857 0.67264 0.0
C730 C 0.55605 0.54795 0.69259 0.0
H731 H 0.66614 0.51762 0.64504 0.0
H732 H 0.58029 0.4793 0.66421 0.0
S733 S 0.57807 0.68583 0.72195 0.0
N734 N 0.63213 0.67298 0.69965 0.0
N735 N 0.54044 0.63136 0.72067 0.0
C736 C 0.57188 0.59947 0.70179 0.0
C737 C 0.62134 0.62218 0.6901 0.0
C738 C 0.6646 0.30899 0.43416 0.0
C739 C 0.72037 0.29938 0.43765 0.0
C740 C 0.64499 0.35831 0.42227 0.0
C741 C 0.68048 0.39925 0.41233 0.0
H742 H 0.63602 0.27702 0.43898 0.0
H743 H 0.60177 0.36402 0.4201 0.0
S744 S 0.82917 0.39726 0.41916 0.0
N745 N 0.81043 0.33731 0.43234 0.0
N746 N 0.77315 0.42945 0.40951 0.0
C747 C 0.73592 0.39133 0.41692 0.0
C748 C 0.75597 0.34159 0.4297 0.0
C749 C 0.93354 0.44416 0.15316 0.0
C750 C 0.88602 0.44783 0.17203 0.0
C751 C 0.98246 0.46712 0.1634 0.0
C752 C 0.98602 0.49513 0.19286 0.0
H753 H 0.93279 0.42441 0.12991 0.0
H754 H 1.01689 0.46605 0.14706 0.0
S755 S 0.87477 0.51451 0.25208 0.0
N756 N 0.8472 0.47932 0.22286 0.0
N757 N 0.93829 0.52406 0.24102 0.0
C758 C 0.93952 0.49763 0.2124 0.0
C759 C 0.8899 0.47354 0.20232 0.0
C760 C 0.76469 0.84174 0.658 0.0
C761 C 0.73717 0.80636 0.63726 0.0
C762 C 0.74031 0.88932 0.6694 0.0
C763 C 0.68757 0.90358 0.66026 0.0
H764 H 0.80394 0.83058 0.66738 0.0
H765 H 0.76276 0.91488 0.6855 0.0
S766 S 0.5989 0.8261 0.60565 0.0
N767 N 0.65466 0.78983 0.60796 0.0
N768 N 0.60963 0.87955 0.62796 0.0
C769 C 0.66071 0.86976 0.63841 0.0
C770 C 0.68525 0.82125 0.62726 0.0
C771 C 0.90772 1.00284 0.9163 0.0
C772 C 0.89312 0.95095 0.90691 0.0
C773 C 0.95656 0.02603 0.90538 0.0
C774 C 0.99283 0.99781 0.88514 0.0
H775 H 0.88158 0.02538 0.93234 0.0
H776 H 0.96793 0.06466 0.91486 0.0
S777 S 0.97227 0.86158 0.85291 0.0
N778 N 0.91736 0.87333 0.87468 0.0
N779 N 1.00968 0.91601 0.85568 0.0
C780 C 0.97744 0.94692 0.87469 0.0
C781 C 0.92758 0.9237 0.88525 0.0
C782 C 0.81196 0.15317 0.16703 0.0
C783 C 0.86589 0.1401 0.15993 0.0
C784 C 0.78934 0.20181 0.15609 0.0
C785 C 0.82015 0.23951 0.13819 0.0
H786 H 0.78719 0.12576 0.18118 0.0
H787 H 0.74859 0.21173 0.16371 0.0
S788 S 0.9627 0.22336 0.11249 0.0
N789 N 0.94858 0.16712 0.13225 0.0
N790 N 0.90688 0.25977 0.11353 0.0
C791 C 0.87352 0.22607 0.1302 0.0
C792 C 0.89617 0.17609 0.14061 0.0
C793 C 0.5959 1.02015 0.40582 0.0
C794 C 0.56002 0.05013 0.3862 0.0
C795 C 0.64724 0.03987 0.41408 0.0
C796 C 0.66541 0.08972 0.40232 0.0
H797 H 0.58256 0.98288 0.41689 0.0
H798 H 0.67231 1.01655 0.43042 0.0
S799 S 0.58894 0.1825 0.34862 0.0
N800 N 0.54725 0.13173 0.3548 0.0
N801 N 0.64481 0.16724 0.3684 0.0
C802 C 0.63143 0.11854 0.38106 0.0
C803 C 0.57851 0.09918 0.37348 0.0
C804 C 0.27616 0.19218 0.42539 0.0
C805 C 0.31032 0.23024 0.43982 0.0
C806 C 0.29537 0.14121 0.41632 0.0
C807 C 0.34918 0.12594 0.42192 0.0
H808 H 0.23526 0.20326 0.41894 0.0
H809 H 0.26828 0.11407 0.4042 0.0
S810 S 0.45412 0.20891 0.46063 0.0
N811 N 0.40021 0.24811 0.45983 0.0
N812 N 0.43541 0.1515 0.44462 0.0
C813 C 0.38284 0.16231 0.43793 0.0
C814 C 0.36367 0.21462 0.44641 0.0
C815 C 0.09167 0.09622 0.20843 0.0
C816 C 0.0753 0.04479 0.19882 0.0
C817 C 0.14102 0.1186 0.19771 0.0
C818 C 0.17496 0.09154 0.17569 0.0
H819 H 0.06418 0.12108 0.22227 0.0
H820 H 0.15109 0.15883 0.20518 0.0
S821 S 0.15443 0.95357 0.14601 0.0
N822 N 0.10113 0.9649 0.1693 0.0
N823 N 0.19124 1.00865 0.14708 0.0
C824 C 0.16075 0.03912 0.16727 0.0
C825 C 0.11181 1.01532 0.17948 0.0
C826 C 0.234 0.90182 0.94686 0.0
C827 C 0.20659 0.90843 0.91714 0.0
C828 C 0.25845 0.85283 0.95571 0.0
C829 C 0.25495 0.80768 0.93583 0.0
H830 H 0.23858 0.93552 0.96295 0.0
H831 H 0.28237 0.85099 0.97759 0.0
S832 S 0.18442 0.80208 0.85675 0.0
N833 N 0.17532 0.86449 0.86861 0.0
N834 N 0.22008 0.77221 0.88548 0.0
C835 C 0.22559 0.813 0.90673 0.0
C836 C 0.20177 0.86331 0.89733 0.0
C837 C 0.40061 0.92533 0.69683 0.0
C838 C 0.36721 0.95714 0.6769 0.0
C839 C 0.45104 0.94396 0.70742 0.0
C840 C 0.46925 0.99594 0.69963 0.0
H841 H 0.38893 0.88459 0.70287 0.0
H842 H 0.47767 0.91611 0.71984 0.0
S843 S 0.39271 0.09822 0.65262 0.0
N844 N 0.35352 0.04473 0.65224 0.0
N845 N 0.44637 0.08112 0.674 0.0
C846 C 0.4338 0.02978 0.68223 0.0
C847 C 0.3834 1.01001 0.67029 0.0
loop_
_geom_bond_atom_site_label_1
_geom_bond_atom_site_label_2
_geom_bond_distance
_geom_bond_site_symmetry_2
_ccdc_geom_bond_type
Dy0 O4 2.398 . S
Dy0 O5 2.491 . S
Dy0 O6 2.403 . S
Dy0 O7 2.664 . S
Dy0 O11 2.326 . S
Dy0 O15 2.310 . S
Dy0 O16 2.351 . S
C1 O12 1.185 . S
C1 O13 1.355 . S
C2 O4 1.185 . S
C2 O5 1.355 . S
Dy3 O7 2.310 . S
Dy3 O10 2.351 . S
Dy3 O12 2.398 . S
Dy3 O13 2.491 . S
Dy3 O14 2.403 . S
Dy3 O15 2.664 . S
Dy3 O17 2.326 . S
O4 Dy0 2.398 . S
O4 C2 1.185 . S
O5 Dy0 2.491 . S
O5 C2 1.355 . S
O6 Dy0 2.403 . S
O6 C8 1.254 . S
O7 Dy0 2.664 . S
O7 Dy3 2.310 . S
O7 C8 1.268 . S
C8 O6 1.254 . S
C8 O7 1.268 . S
C9 O14 1.254 . S
C9 O15 1.268 . S
O10 Dy3 2.351 . S
O10 C18 1.249 . S
O11 Dy0 2.326 . S
O11 C18 1.267 . S
O12 C1 1.185 . S
O12 Dy3 2.398 . S
O13 C1 1.355 . S
O13 Dy3 2.491 . S
O14 Dy3 2.403 . S
O14 C9 1.254 . S
O15 Dy0 2.310 . S
O15 Dy3 2.664 . S
O15 C9 1.268 . S
O16 Dy0 2.351 . S
O16 C19 1.249 . S
O17 Dy3 2.326 . S
O17 C19 1.267 . S
C18 O10 1.249 . S
C18 O11 1.267 . S
C19 O16 1.249 . S
C19 O17 1.267 . S
Dy20 O24 2.398 . S
Dy20 O25 2.491 . S
Dy20 O26 2.403 . S
Dy20 O27 2.664 . S
Dy20 O31 2.326 . S
Dy20 O35 2.310 . S
Dy20 O36 2.351 . S
C21 O32 1.185 . S
C21 O33 1.355 . S
C22 O24 1.185 . S
C22 O25 1.355 . S
Dy23 O27 2.310 . S
Dy23 O30 2.351 . S
Dy23 O32 2.398 . S
Dy23 O33 2.491 . S
Dy23 O34 2.403 . S
Dy23 O35 2.664 . S
Dy23 O37 2.326 . S
O24 Dy20 2.398 . S
O24 C22 1.185 . S
O25 Dy20 2.491 . S
O25 C22 1.355 . S
O26 Dy20 2.403 . S
O26 C28 1.254 . S
O27 Dy20 2.664 . S
O27 Dy23 2.310 . S
O27 C28 1.268 . S
C28 O26 1.254 . S
C28 O27 1.268 . S
C29 O34 1.254 . S
C29 O35 1.268 . S
O30 Dy23 2.351 . S
O30 C38 1.249 . S
O31 Dy20 2.326 . S
O31 C38 1.267 . S
O32 C21 1.185 . S
O32 Dy23 2.398 . S
O33 C21 1.355 . S
O33 Dy23 2.491 . S
O34 Dy23 2.403 . S
O34 C29 1.254 . S
O35 Dy20 2.310 . S
O35 Dy23 2.664 . S
O35 C29 1.268 . S
O36 Dy20 2.351 . S
O36 C39 1.249 . S
O37 Dy23 2.326 . S
O37 C39 1.267 . S
C38 O30 1.249 . S
C38 O31 1.267 . S
C39 O36 1.249 . S
C39 O37 1.267 . S
Dy40 O44 2.398 . S
Dy40 O45 2.491 . S
Dy40 O46 2.403 . S
Dy40 O47 2.664 . S
Dy40 O51 2.326 . S
Dy40 O55 2.310 . S
Dy40 O56 2.351 . S
C41 O52 1.185 . S
C41 O53 1.355 . S
C42 O44 1.185 . S
C42 O45 1.355 . S
Dy43 O47 2.310 . S
Dy43 O50 2.351 . S
Dy43 O52 2.398 . S
Dy43 O53 2.491 . S
Dy43 O54 2.403 . S
Dy43 O55 2.664 . S
Dy43 O57 2.326 . S
O44 Dy40 2.398 . S
O44 C42 1.185 . S
O45 Dy40 2.491 . S
O45 C42 1.355 . S
O46 Dy40 2.403 . S
O46 C48 1.254 . S
O47 Dy40 2.664 . S
O47 Dy43 2.310 . S
O47 C48 1.268 . S
C48 O46 1.254 . S
C48 O47 1.268 . S
C49 O54 1.254 . S
C49 O55 1.268 . S
O50 Dy43 2.351 . S
O50 C58 1.249 . S
O51 Dy40 2.326 . S
O51 C58 1.267 . S
O52 C41 1.185 . S
O52 Dy43 2.398 . S
O53 C41 1.355 . S
O53 Dy43 2.491 . S
O54 Dy43 2.403 . S
O54 C49 1.254 . S
O55 Dy40 2.310 . S
O55 Dy43 2.664 . S
O55 C49 1.268 . S
O56 Dy40 2.351 . S
O56 C59 1.249 . S
O57 Dy43 2.326 . S
O57 C59 1.267 . S
C58 O50 1.249 . S
C58 O51 1.267 . S
C59 O56 1.249 . S
C59 O57 1.267 . S
Dy60 O64 2.397 1_655 S
Dy60 O65 2.491 . S
Dy60 O66 2.406 . S
Dy60 O67 2.664 . S
Dy60 O71 2.326 . S
Dy60 O75 2.310 . S
Dy60 O76 2.351 . S
C61 O72 1.185 . S
C61 O73 1.355 . S
C62 O64 1.184 1_655 S
C62 O65 1.355 . S
Dy63 O67 2.310 . S
Dy63 O70 2.351 . S
Dy63 O72 2.398 . S
Dy63 O73 2.491 . S
Dy63 O74 2.403 . S
Dy63 O75 2.664 . S
Dy63 O77 2.326 . S
O64 Dy60 2.397 1_455 S
O64 C62 1.184 1_455 S
O65 Dy60 2.491 . S
O65 C62 1.355 . S
O66 Dy60 2.406 . S
O66 C68 1.256 . S
O67 Dy60 2.664 . S
O67 Dy63 2.310 . S
O67 C68 1.268 . S
C68 O66 1.256 . S
C68 O67 1.268 . S
C69 O74 1.254 . S
C69 O75 1.268 . S
O70 Dy63 2.351 . S
O70 C78 1.249 . S
O71 Dy60 2.326 . S
O71 C78 1.267 . S
O72 C61 1.185 . S
O72 Dy63 2.398 . S
O73 C61 1.355 . S
O73 Dy63 2.491 . S
O74 Dy63 2.403 . S
O74 C69 1.254 . S
O75 Dy60 2.310 . S
O75 Dy63 2.664 . S
O75 C69 1.268 . S
O76 Dy60 2.351 . S
O76 C79 1.249 . S
O77 Dy63 2.326 . S
O77 C79 1.267 . S
C78 O70 1.249 . S
C78 O71 1.267 . S
C79 O76 1.249 . S
C79 O77 1.267 . S
Dy80 O84 2.398 . S
Dy80 O85 2.491 . S
Dy80 O86 2.403 . S
Dy80 O87 2.664 . S
Dy80 O91 2.326 . S
Dy80 O95 2.310 . S
Dy80 O96 2.351 . S
C81 O92 1.185 . S
C81 O93 1.355 . S
C82 O84 1.185 . S
C82 O85 1.355 . S
Dy83 O87 2.310 . S
Dy83 O90 2.351 . S
Dy83 O92 2.398 . S
Dy83 O93 2.491 . S
Dy83 O94 2.403 . S
Dy83 O95 2.664 . S
Dy83 O97 2.326 . S
O84 Dy80 2.398 . S
O84 C82 1.185 . S
O85 Dy80 2.491 . S
O85 C82 1.355 . S
O86 Dy80 2.403 . S
O86 C88 1.254 . S
O87 Dy80 2.664 . S
O87 Dy83 2.310 . S
O87 C88 1.268 . S
C88 O86 1.254 . S
C88 O87 1.268 . S
C89 O94 1.254 . S
C89 O95 1.268 . S
O90 Dy83 2.351 . S
O90 C98 1.249 . S
O91 Dy80 2.326 . S
O91 C98 1.267 . S
O92 C81 1.185 . S
O92 Dy83 2.398 . S
O93 C81 1.355 . S
O93 Dy83 2.491 . S
O94 Dy83 2.403 . S
O94 C89 1.254 . S
O95 Dy80 2.310 . S
O95 Dy83 2.664 . S
O95 C89 1.268 . S
O96 Dy80 2.351 . S
O96 C99 1.249 . S
O97 Dy83 2.326 . S
O97 C99 1.267 . S
C98 O90 1.249 . S
C98 O91 1.267 . S
C99 O96 1.249 . S
C99 O97 1.267 . S
Dy100 O104 2.398 . S
Dy100 O105 2.491 . S
Dy100 O106 2.403 . S
Dy100 O107 2.664 . S
Dy100 O111 2.326 . S
Dy100 O115 2.310 . S
Dy100 O116 2.351 . S
C101 O112 1.185 . S
C101 O113 1.355 . S
C102 O104 1.185 . S
C102 O105 1.355 . S
Dy103 O107 2.310 . S
Dy103 O110 2.351 . S
Dy103 O112 2.398 . S
Dy103 O113 2.491 . S
Dy103 O114 2.403 . S
Dy103 O115 2.664 . S
Dy103 O117 2.326 . S
O104 Dy100 2.398 . S
O104 C102 1.185 . S
O105 Dy100 2.491 . S
O105 C102 1.355 . S
O106 Dy100 2.403 . S
O106 C108 1.254 . S
O107 Dy100 2.664 . S
O107 Dy103 2.310 . S
O107 C108 1.268 . S
C108 O106 1.254 . S
C108 O107 1.268 . S
C109 O114 1.254 . S
C109 O115 1.268 . S
O110 Dy103 2.351 . S
O110 C118 1.249 . S
O111 Dy100 2.326 . S
O111 C118 1.267 . S
O112 C101 1.185 . S
O112 Dy103 2.398 . S
O113 C101 1.355 . S
O113 Dy103 2.491 . S
O114 Dy103 2.403 . S
O114 C109 1.254 . S
O115 Dy100 2.310 . S
O115 Dy103 2.664 . S
O115 C109 1.268 . S
O116 Dy100 2.351 . S
O116 C119 1.249 . S
O117 Dy103 2.326 . S
O117 C119 1.267 . S
C118 O110 1.249 . S
C118 O111 1.267 . S
C119 O116 1.249 . S
C119 O117 1.267 . S
Dy120 O124 2.398 . S
Dy120 O125 2.491 . S
Dy120 O126 2.403 . S
Dy120 O127 2.664 . S
Dy120 O131 2.326 . S
Dy120 O135 2.310 . S
Dy120 O136 2.351 . S
C121 O132 1.185 . S
C121 O133 1.355 . S
C122 O124 1.185 . S
C122 O125 1.355 . S
Dy123 O127 2.310 . S
Dy123 O130 2.351 . S
Dy123 O132 2.398 . S
Dy123 O133 2.491 . S
Dy123 O134 2.403 . S
Dy123 O135 2.664 . S
Dy123 O137 2.326 . S
O124 Dy120 2.398 . S
O124 C122 1.185 . S
O125 Dy120 2.491 . S
O125 C122 1.355 . S
O126 Dy120 2.403 . S
O126 C128 1.254 . S
O127 Dy120 2.664 . S
O127 Dy123 2.310 . S
O127 C128 1.268 . S
C128 O126 1.254 . S
C128 O127 1.268 . S
C129 O134 1.254 . S
C129 O135 1.268 . S
O130 Dy123 2.351 . S
O130 C138 1.249 . S
O131 Dy120 2.326 . S
O131 C138 1.267 . S
O132 C121 1.185 . S
O132 Dy123 2.398 . S
O133 C121 1.355 . S
O133 Dy123 2.491 . S
O134 Dy123 2.403 . S
O134 C129 1.254 . S
O135 Dy120 2.310 . S
O135 Dy123 2.664 . S
O135 C129 1.268 . S
O136 Dy120 2.351 . S
O136 C139 1.249 . S
O137 Dy123 2.326 . S
O137 C139 1.267 . S
C138 O130 1.249 . S
C138 O131 1.267 . S
C139 O136 1.249 . S
C139 O137 1.267 . S
Dy140 O144 2.398 . S
Dy140 O145 2.491 . S
Dy140 O146 2.403 . S
Dy140 O147 2.664 . S
Dy140 O151 2.326 . S
Dy140 O155 2.310 . S
Dy140 O156 2.351 . S
C141 O152 1.184 1_455 S
C141 O153 1.355 . S
C142 O144 1.185 . S
C142 O145 1.355 . S
Dy143 O147 2.310 . S
Dy143 O150 2.351 . S
Dy143 O152 2.397 1_455 S
Dy143 O153 2.491 . S
Dy143 O154 2.406 . S
Dy143 O155 2.664 . S
Dy143 O157 2.326 . S
O144 Dy140 2.398 . S
O144 C142 1.185 . S
O145 Dy140 2.491 . S
O145 C142 1.355 . S
O146 Dy140 2.403 . S
O146 C148 1.254 . S
O147 Dy140 2.664 . S
O147 Dy143 2.310 . S
O147 C148 1.268 . S
C148 O146 1.254 . S
C148 O147 1.268 . S
C149 O154 1.256 . S
C149 O155 1.268 . S
O150 Dy143 2.351 . S
O150 C158 1.249 . S
O151 Dy140 2.326 . S
O151 C158 1.267 . S
O152 C141 1.184 1_655 S
O152 Dy143 2.397 1_655 S
O153 C141 1.355 . S
O153 Dy143 2.491 . S
O154 Dy143 2.406 . S
O154 C149 1.256 . S
O155 Dy140 2.310 . S
O155 Dy143 2.664 . S
O155 C149 1.268 . S
O156 Dy140 2.351 . S
O156 C159 1.249 . S
O157 Dy143 2.326 . S
O157 C159 1.267 . S
C158 O150 1.249 . S
C158 O151 1.267 . S
C159 O156 1.249 . S
C159 O157 1.267 . S
Dy160 O164 2.398 . S
Dy160 O165 2.491 . S
Dy160 O166 2.403 . S
Dy160 O167 2.664 . S
Dy160 O171 2.326 . S
Dy160 O175 2.310 . S
Dy160 O176 2.351 . S
C161 O172 1.185 . S
C161 O173 1.355 . S
C162 O164 1.185 . S
C162 O165 1.355 . S
Dy163 O167 2.310 . S
Dy163 O170 2.351 . S
Dy163 O172 2.398 . S
Dy163 O173 2.491 . S
Dy163 O174 2.403 . S
Dy163 O175 2.664 . S
Dy163 O177 2.326 . S
O164 Dy160 2.398 . S
O164 C162 1.185 . S
O165 Dy160 2.491 . S
O165 C162 1.355 . S
O166 Dy160 2.403 . S
O166 C168 1.254 . S
O167 Dy160 2.664 . S
O167 Dy163 2.310 . S
O167 C168 1.268 . S
C168 O166 1.254 . S
C168 O167 1.268 . S
C169 O174 1.254 . S
C169 O175 1.268 . S
O170 Dy163 2.351 . S
O170 C178 1.249 . S
O171 Dy160 2.326 . S
O171 C178 1.267 . S
O172 C161 1.185 . S
O172 Dy163 2.398 . S
O173 C161 1.355 . S
O173 Dy163 2.491 . S
O174 Dy163 2.403 . S
O174 C169 1.254 . S
O175 Dy160 2.310 . S
O175 Dy163 2.664 . S
O175 C169 1.268 . S
O176 Dy160 2.351 . S
O176 C179 1.249 . S
O177 Dy163 2.326 . S
O177 C179 1.267 . S
C178 O170 1.249 . S
C178 O171 1.267 . S
C179 O176 1.249 . S
C179 O177 1.267 . S
Dy180 O184 2.401 1_455 S
Dy180 O185 2.506 . S
Dy180 O186 2.400 1_545 S
Dy180 O187 2.665 . S
Dy180 O191 2.346 . S
Dy180 O195 2.323 . S
Dy180 O196 2.335 1_545 S
C181 O192 1.185 . S
C181 O193 1.355 1_545 S
C182 O184 1.184 1_455 S
C182 O185 1.355 . S
Dy183 O187 2.310 . S
Dy183 O190 2.351 . S
Dy183 O192 2.398 . S
Dy183 O193 2.491 1_545 S
Dy183 O194 2.403 . S
Dy183 O195 2.664 . S
Dy183 O197 2.326 1_545 S
O184 Dy180 2.401 1_655 S
O184 C182 1.184 1_655 S
O185 Dy180 2.506 . S
O185 C182 1.355 . S
O186 Dy180 2.400 1_565 S
O186 C188 1.256 . S
O187 Dy180 2.665 . S
O187 Dy183 2.310 . S
O187 C188 1.268 1_545 S
C188 O186 1.256 . S
C188 O187 1.268 1_565 S
C189 O194 1.254 . S
C189 O195 1.268 . S
O190 Dy183 2.351 . S
O190 C198 1.249 . S
O191 Dy180 2.346 . S
O191 C198 1.267 . S
O192 C181 1.185 . S
O192 Dy183 2.398 . S
O193 C181 1.355 1_565 S
O193 Dy183 2.491 1_565 S
O194 Dy183 2.403 . S
O194 C189 1.254 . S
O195 Dy180 2.323 . S
O195 Dy183 2.664 . S
O195 C189 1.268 . S
O196 Dy180 2.335 1_565 S
O196 C199 1.249 . S
O197 Dy183 2.326 1_565 S
O197 C199 1.267 . S
C198 O190 1.249 . S
C198 O191 1.267 . S
C199 O196 1.249 . S
C199 O197 1.267 . S
Dy200 O204 2.398 . S
Dy200 O205 2.491 . S
Dy200 O206 2.403 . S
Dy200 O207 2.664 . S
Dy200 O211 2.326 . S
Dy200 O215 2.310 . S
Dy200 O216 2.351 . S
C201 O212 1.185 . S
C201 O213 1.355 . S
C202 O204 1.185 . S
C202 O205 1.355 . S
Dy203 O207 2.310 . S
Dy203 O210 2.351 . S
Dy203 O212 2.398 . S
Dy203 O213 2.491 . S
Dy203 O214 2.403 . S
Dy203 O215 2.664 . S
Dy203 O217 2.326 . S
O204 Dy200 2.398 . S
O204 C202 1.185 . S
O205 Dy200 2.491 . S
O205 C202 1.355 . S
O206 Dy200 2.403 . S
O206 C208 1.254 . S
O207 Dy200 2.664 . S
O207 Dy203 2.310 . S
O207 C208 1.268 . S
C208 O206 1.254 . S
C208 O207 1.268 . S
C209 O214 1.254 . S
C209 O215 1.268 . S
O210 Dy203 2.351 . S
O210 C218 1.249 . S
O211 Dy200 2.326 . S
O211 C218 1.267 . S
O212 C201 1.185 . S
O212 Dy203 2.398 . S
O213 C201 1.355 . S
O213 Dy203 2.491 . S
O214 Dy203 2.403 . S
O214 C209 1.254 . S
O215 Dy200 2.310 . S
O215 Dy203 2.664 . S
O215 C209 1.268 . S
O216 Dy200 2.351 . S
O216 C219 1.249 . S
O217 Dy203 2.326 . S
O217 C219 1.267 . S
C218 O210 1.249 . S
C218 O211 1.267 . S
C219 O216 1.249 . S
C219 O217 1.267 . S
Dy220 O224 2.401 . S
Dy220 O225 2.506 . S
Dy220 O226 2.397 1_565 S
Dy220 O227 2.665 . S
Dy220 O231 2.346 . S
Dy220 O235 2.323 . S
Dy220 O236 2.335 1_565 S
C221 O232 1.185 . S
C221 O233 1.355 1_565 S
C222 O224 1.185 . S
C222 O225 1.355 . S
Dy223 O227 2.310 . S
Dy223 O230 2.351 . S
Dy223 O232 2.398 . S
Dy223 O233 2.491 1_565 S
Dy223 O234 2.403 . S
Dy223 O235 2.664 . S
Dy223 O237 2.326 1_565 S
O224 Dy220 2.401 . S
O224 C222 1.185 . S
O225 Dy220 2.506 . S
O225 C222 1.355 . S
O226 Dy220 2.397 1_545 S
O226 C228 1.254 . S
O227 Dy220 2.665 . S
O227 Dy223 2.310 . S
O227 C228 1.268 1_565 S
C228 O226 1.254 . S
C228 O227 1.268 1_545 S
C229 O234 1.254 . S
C229 O235 1.268 . S
O230 Dy223 2.351 . S
O230 C238 1.249 . S
O231 Dy220 2.346 . S
O231 C238 1.267 . S
O232 C221 1.185 . S
O232 Dy223 2.398 . S
O233 C221 1.355 1_545 S
O233 Dy223 2.491 1_545 S
O234 Dy223 2.403 . S
O234 C229 1.254 . S
O235 Dy220 2.323 . S
O235 Dy223 2.664 . S
O235 C229 1.268 . S
O236 Dy220 2.335 1_545 S
O236 C239 1.249 . S
O237 Dy223 2.326 1_545 S
O237 C239 1.267 . S
C238 O230 1.249 . S
C238 O231 1.267 . S
C239 O236 1.249 . S
C239 O237 1.267 . S
Dy240 O244 2.398 . S
Dy240 O245 2.491 . S
Dy240 O246 2.403 . S
Dy240 O247 2.664 . S
Dy240 O251 2.326 . S
Dy240 O255 2.310 . S
Dy240 O256 2.351 . S
C241 O252 1.185 . S
C241 O253 1.355 . S
C242 O244 1.185 . S
C242 O245 1.355 . S
Dy243 O247 2.310 . S
Dy243 O250 2.351 . S
Dy243 O252 2.398 . S
Dy243 O253 2.491 . S
Dy243 O254 2.403 . S
Dy243 O255 2.664 . S
Dy243 O257 2.326 . S
O244 Dy240 2.398 . S
O244 C242 1.185 . S
O245 Dy240 2.491 . S
O245 C242 1.355 . S
O246 Dy240 2.403 . S
O246 C248 1.254 . S
O247 Dy240 2.664 . S
O247 Dy243 2.310 . S
O247 C248 1.268 . S
C248 O246 1.254 . S
C248 O247 1.268 . S
C249 O254 1.254 . S
C249 O255 1.268 . S
O250 Dy243 2.351 . S
O250 C258 1.249 . S
O251 Dy240 2.326 . S
O251 C258 1.267 . S
O252 C241 1.185 . S
O252 Dy243 2.398 . S
O253 C241 1.355 . S
O253 Dy243 2.491 . S
O254 Dy243 2.403 . S
O254 C249 1.254 . S
O255 Dy240 2.310 . S
O255 Dy243 2.664 . S
O255 C249 1.268 . S
O256 Dy240 2.351 . S
O256 C259 1.249 . S
O257 Dy243 2.326 . S
O257 C259 1.267 . S
C258 O250 1.249 . S
C258 O251 1.267 . S
C259 O256 1.249 . S
C259 O257 1.267 . S
Dy260 O264 2.398 . S
Dy260 O265 2.491 1_565 S
Dy260 O266 2.403 . S
Dy260 O267 2.664 . S
Dy260 O271 2.326 1_565 S
Dy260 O275 2.310 . S
Dy260 O276 2.351 . S
C261 O272 1.184 1_655 S
C261 O273 1.355 . S
C262 O264 1.185 . S
C262 O265 1.355 1_565 S
Dy263 O267 2.323 . S
Dy263 O270 2.335 1_565 S
Dy263 O272 2.401 1_655 S
Dy263 O273 2.506 . S
Dy263 O274 2.400 1_565 S
Dy263 O275 2.665 . S
Dy263 O277 2.346 . S
O264 Dy260 2.398 . S
O264 C262 1.185 . S
O265 Dy260 2.491 1_545 S
O265 C262 1.355 1_545 S
O266 Dy260 2.403 . S
O266 C268 1.254 . S
O267 Dy260 2.664 . S
O267 Dy263 2.323 . S
O267 C268 1.268 . S
C268 O266 1.254 . S
C268 O267 1.268 . S
C269 O274 1.256 . S
C269 O275 1.268 1_545 S
O270 Dy263 2.335 1_545 S
O270 C278 1.249 . S
O271 Dy260 2.326 1_545 S
O271 C278 1.267 . S
O272 C261 1.184 1_455 S
O272 Dy263 2.401 1_455 S
O273 C261 1.355 . S
O273 Dy263 2.506 . S
O274 Dy263 2.400 1_545 S
O274 C269 1.256 . S
O275 Dy260 2.310 . S
O275 Dy263 2.665 . S
O275 C269 1.268 1_565 S
O276 Dy260 2.351 . S
O276 C279 1.249 . S
O277 Dy263 2.346 . S
O277 C279 1.267 . S
C278 O270 1.249 . S
C278 O271 1.267 . S
C279 O276 1.249 . S
C279 O277 1.267 . S
Dy280 O284 2.398 . S
Dy280 O285 2.491 . S
Dy280 O286 2.403 . S
Dy280 O287 2.664 . S
Dy280 O291 2.326 . S
Dy280 O295 2.310 . S
Dy280 O296 2.351 . S
C281 O292 1.185 . S
C281 O293 1.355 . S
C282 O284 1.185 . S
C282 O285 1.355 . S
Dy283 O287 2.310 . S
Dy283 O290 2.351 . S
Dy283 O292 2.398 . S
Dy283 O293 2.491 . S
Dy283 O294 2.403 . S
Dy283 O295 2.664 . S
Dy283 O297 2.326 . S
O284 Dy280 2.398 . S
O284 C282 1.185 . S
O285 Dy280 2.491 . S
O285 C282 1.355 . S
O286 Dy280 2.403 . S
O286 C288 1.254 . S
O287 Dy280 2.664 . S
O287 Dy283 2.310 . S
O287 C288 1.268 . S
C288 O286 1.254 . S
C288 O287 1.268 . S
C289 O294 1.254 . S
C289 O295 1.268 . S
O290 Dy283 2.351 . S
O290 C298 1.249 . S
O291 Dy280 2.326 . S
O291 C298 1.267 . S
O292 C281 1.185 . S
O292 Dy283 2.398 . S
O293 C281 1.355 . S
O293 Dy283 2.491 . S
O294 Dy283 2.403 . S
O294 C289 1.254 . S
O295 Dy280 2.310 . S
O295 Dy283 2.664 . S
O295 C289 1.268 . S
O296 Dy280 2.351 . S
O296 C299 1.249 . S
O297 Dy283 2.326 . S
O297 C299 1.267 . S
C298 O290 1.249 . S
C298 O291 1.267 . S
C299 O296 1.249 . S
C299 O297 1.267 . S
Dy300 O304 2.398 . S
Dy300 O305 2.491 1_545 S
Dy300 O306 2.403 . S
Dy300 O307 2.664 . S
Dy300 O311 2.326 1_545 S
Dy300 O315 2.310 . S
Dy300 O316 2.351 . S
C301 O312 1.185 . S
C301 O313 1.355 . S
C302 O304 1.185 . S
C302 O305 1.355 1_545 S
Dy303 O307 2.323 . S
Dy303 O310 2.335 1_545 S
Dy303 O312 2.401 . S
Dy303 O313 2.506 . S
Dy303 O314 2.397 1_545 S
Dy303 O315 2.665 . S
Dy303 O317 2.346 . S
O304 Dy300 2.398 . S
O304 C302 1.185 . S
O305 Dy300 2.491 1_565 S
O305 C302 1.355 1_565 S
O306 Dy300 2.403 . S
O306 C308 1.254 . S
O307 Dy300 2.664 . S
O307 Dy303 2.323 . S
O307 C308 1.268 . S
C308 O306 1.254 . S
C308 O307 1.268 . S
C309 O314 1.254 . S
C309 O315 1.268 1_565 S
O310 Dy303 2.335 1_565 S
O310 C318 1.249 . S
O311 Dy300 2.326 1_565 S
O311 C318 1.267 . S
O312 C301 1.185 . S
O312 Dy303 2.401 . S
O313 C301 1.355 . S
O313 Dy303 2.506 . S
O314 Dy303 2.397 1_565 S
O314 C309 1.254 . S
O315 Dy300 2.310 . S
O315 Dy303 2.665 . S
O315 C309 1.268 1_545 S
O316 Dy300 2.351 . S
O316 C319 1.249 . S
O317 Dy303 2.346 . S
O317 C319 1.267 . S
C318 O310 1.249 . S
C318 O311 1.267 . S
C319 O316 1.249 . S
C319 O317 1.267 . S
C320 C321 1.369 . S
C320 C322 1.419 . S
C320 H324 0.930 . S
C321 C320 1.369 . S
C321 C330 1.429 . S
C322 C320 1.419 . S
C322 C323 1.363 . S
C322 H325 0.929 . S
C323 C322 1.363 . S
C323 C329 1.428 . S
H324 C320 0.930 . S
H325 C322 0.929 . S
S326 N327 1.613 . S
S326 N328 1.610 . S
N327 S326 1.613 . S
N327 C330 1.350 . S
N328 S326 1.610 . S
N328 C329 1.351 . S
C329 C323 1.428 . S
C329 N328 1.351 . S
C329 C330 1.434 . S
C330 C321 1.429 . S
C330 N327 1.350 . S
C330 C329 1.434 . S
C331 C332 1.369 . S
C331 C333 1.419 . S
C331 H335 0.930 . S
C332 C331 1.369 . S
C332 C341 1.429 . S
C333 C331 1.419 . S
C333 C334 1.363 . S
C333 H336 0.929 . S
C334 C333 1.363 . S
C334 C340 1.428 . S
H335 C331 0.930 . S
H336 C333 0.929 . S
S337 N338 1.613 . S
S337 N339 1.610 . S
N338 S337 1.613 . S
N338 C341 1.350 . S
N339 S337 1.610 . S
N339 C340 1.351 . S
C340 C334 1.428 . S
C340 N339 1.351 . S
C340 C341 1.434 . S
C341 C332 1.429 . S
C341 N338 1.350 . S
C341 C340 1.434 . S
C342 C343 1.369 . S
C342 C344 1.419 . S
C342 H346 0.930 . S
C343 C342 1.369 . S
C343 C352 1.429 . S
C344 C342 1.419 . S
C344 C345 1.363 . S
C344 H347 0.929 . S
C345 C344 1.363 . S
C345 C351 1.428 . S
H346 C342 0.930 . S
H347 C344 0.929 . S
S348 N349 1.613 . S
S348 N350 1.610 . S
N349 S348 1.613 . S
N349 C352 1.350 . S
N350 S348 1.610 . S
N350 C351 1.351 . S
C351 C345 1.428 . S
C351 N350 1.351 . S
C351 C352 1.434 . S
C352 C343 1.429 . S
C352 N349 1.350 . S
C352 C351 1.434 . S
C353 C354 1.369 1_455 S
C353 C355 1.419 . S
C353 H357 0.930 . S
C354 C353 1.369 1_655 S
C354 C363 1.429 1_556 S
C355 C353 1.419 . S
C355 C356 1.363 1_556 S
C355 H358 0.929 . S
C356 C355 1.363 1_554 S
C356 C362 1.428 1_455 S
H357 C353 0.930 . S
H358 C355 0.929 . S
S359 N360 1.613 . S
S359 N361 1.610 . S
N360 S359 1.613 . S
N360 C363 1.350 . S
N361 S359 1.610 . S
N361 C362 1.351 . S
C362 C356 1.428 1_655 S
C362 N361 1.351 . S
C362 C363 1.434 . S
C363 C354 1.429 1_554 S
C363 N360 1.350 . S
C363 C362 1.434 . S
C364 C365 1.369 . S
C364 C366 1.419 . S
C364 H368 0.930 . S
C365 C364 1.369 . S
C365 C374 1.429 . S
C366 C364 1.419 . S
C366 C367 1.363 . S
C366 H369 0.929 . S
C367 C366 1.363 . S
C367 C373 1.428 . S
H368 C364 0.930 . S
H369 C366 0.929 . S
S370 N371 1.613 . S
S370 N372 1.610 . S
N371 S370 1.613 . S
N371 C374 1.350 . S
N372 S370 1.610 . S
N372 C373 1.351 . S
C373 C367 1.428 . S
C373 N372 1.351 . S
C373 C374 1.434 . S
C374 C365 1.429 . S
C374 N371 1.350 . S
C374 C373 1.434 . S
C375 C376 1.369 . S
C375 C377 1.419 . S
C375 H379 0.930 . S
C376 C375 1.369 . S
C376 C385 1.429 . S
C377 C375 1.419 . S
C377 C378 1.363 . S
C377 H380 0.929 . S
C378 C377 1.363 . S
C378 C384 1.428 . S
H379 C375 0.930 . S
H380 C377 0.929 . S
S381 N382 1.613 . S
S381 N383 1.610 . S
N382 S381 1.613 . S
N382 C385 1.350 . S
N383 S381 1.610 . S
N383 C384 1.351 . S
C384 C378 1.428 . S
C384 N383 1.351 . S
C384 C385 1.434 . S
C385 C376 1.429 . S
C385 N382 1.350 . S
C385 C384 1.434 . S
C386 C387 1.369 1_455 S
C386 C388 1.419 1_565 S
C386 H390 0.930 . S
C387 C386 1.369 1_655 S
C387 C396 1.429 1_554 S
C388 C386 1.419 1_545 S
C388 C389 1.363 1_554 S
C388 H391 0.929 . S
C389 C388 1.363 1_556 S
C389 C395 1.428 1_455 S
H390 C386 0.930 . S
H391 C388 0.929 . S
S392 N393 1.613 . S
S392 N394 1.610 1_565 S
N393 S392 1.613 . S
N393 C396 1.350 . S
N394 S392 1.610 1_545 S
N394 C395 1.351 . S
C395 C389 1.428 1_655 S
C395 N394 1.351 . S
C395 C396 1.434 1_545 S
C396 C387 1.429 1_556 S
C396 N393 1.350 . S
C396 C395 1.434 1_565 S
C397 C398 1.369 . S
C397 C399 1.419 1_565 S
C397 H401 0.930 . S
C398 C397 1.369 . S
C398 C407 1.429 . S
C399 C397 1.419 1_545 S
C399 C400 1.363 . S
C399 H402 0.929 . S
C400 C399 1.363 . S
C400 C406 1.428 . S
H401 C397 0.930 . S
H402 C399 0.929 . S
S403 N404 1.613 1_545 S
S403 N405 1.610 . S
N404 S403 1.613 1_565 S
N404 C407 1.350 . S
N405 S403 1.610 . S
N405 C406 1.351 . S
C406 C400 1.428 . S
C406 N405 1.351 . S
C406 C407 1.434 1_545 S
C407 C398 1.429 . S
C407 N404 1.350 . S
C407 C406 1.434 1_565 S
C408 C409 1.369 . S
C408 C410 1.419 . S
C408 H412 0.930 . S
C409 C408 1.369 . S
C409 C418 1.429 . S
C410 C408 1.419 . S
C410 C411 1.363 1_556 S
C410 H413 0.929 . S
C411 C410 1.363 1_554 S
C411 C417 1.428 . S
H412 C408 0.930 . S
H413 C410 0.929 . S
S414 N415 1.613 . S
S414 N416 1.610 1_556 S
N415 S414 1.613 . S
N415 C418 1.350 . S
N416 S414 1.610 1_554 S
N416 C417 1.351 . S
C417 C411 1.428 . S
C417 N416 1.351 . S
C417 C418 1.434 1_554 S
C418 C409 1.429 . S
C418 N415 1.350 . S
C418 C417 1.434 1_556 S
C419 C420 1.369 . S
C419 C421 1.419 . S
C419 H423 0.930 . S
C420 C419 1.369 . S
C420 C429 1.429 . S
C421 C419 1.419 . S
C421 C422 1.363 . S
C421 H424 0.929 . S
C422 C421 1.363 . S
C422 C428 1.428 . S
H423 C419 0.930 . S
H424 C421 0.929 . S
S425 N426 1.613 . S
S425 N427 1.610 . S
N426 S425 1.613 . S
N426 C429 1.350 . S
N427 S425 1.610 . S
N427 C428 1.351 . S
C428 C422 1.428 . S
C428 N427 1.351 . S
C428 C429 1.434 . S
C429 C420 1.429 . S
C429 N426 1.350 . S
C429 C428 1.434 . S
C430 C431 1.369 . S
C430 C432 1.419 . S
C430 H434 0.930 . S
C431 C430 1.369 . S
C431 C440 1.429 . S
C432 C430 1.419 . S
C432 C433 1.363 . S
C432 H435 0.929 . S
C433 C432 1.363 . S
C433 C439 1.428 . S
H434 C430 0.930 . S
H435 C432 0.929 . S
S436 N437 1.613 . S
S436 N438 1.610 . S
N437 S436 1.613 . S
N437 C440 1.350 . S
N438 S436 1.610 . S
N438 C439 1.351 . S
C439 C433 1.428 . S
C439 N438 1.351 . S
C439 C440 1.434 . S
C440 C431 1.429 . S
C440 N437 1.350 . S
C440 C439 1.434 . S
C441 C442 1.369 . S
C441 C443 1.419 . S
C441 H445 0.930 . S
C442 C441 1.369 . S
C442 C451 1.429 . S
C443 C441 1.419 . S
C443 C444 1.363 . S
C443 H446 0.929 . S
C444 C443 1.363 . S
C444 C450 1.428 . S
H445 C441 0.930 . S
H446 C443 0.929 . S
S447 N448 1.613 . S
S447 N449 1.610 . S
N448 S447 1.613 . S
N448 C451 1.350 . S
N449 S447 1.610 . S
N449 C450 1.351 . S
C450 C444 1.428 . S
C450 N449 1.351 . S
C450 C451 1.434 . S
C451 C442 1.429 . S
C451 N448 1.350 . S
C451 C450 1.434 . S
C452 C453 1.369 . S
C452 C454 1.419 . S
C452 H456 0.930 . S
C453 C452 1.369 . S
C453 C462 1.429 . S
C454 C452 1.419 . S
C454 C455 1.363 1_554 S
C454 H457 0.929 1_554 S
C455 C454 1.363 1_556 S
C455 C461 1.428 1_556 S
H456 C452 0.930 . S
H457 C454 0.929 1_556 S
S458 N459 1.613 . S
S458 N460 1.610 1_554 S
N459 S458 1.613 . S
N459 C462 1.350 1_545 S
N460 S458 1.610 1_556 S
N460 C461 1.351 1_546 S
C461 C455 1.428 1_554 S
C461 N460 1.351 1_564 S
C461 C462 1.434 . S
C462 C453 1.429 . S
C462 N459 1.350 1_565 S
C462 C461 1.434 . S
C463 C464 1.369 . S
C463 C465 1.419 . S
C463 H467 0.930 . S
C464 C463 1.369 . S
C464 C473 1.429 . S
C465 C463 1.419 . S
C465 C466 1.363 . S
C465 H468 0.929 . S
C466 C465 1.363 . S
C466 C472 1.428 . S
H467 C463 0.930 . S
H468 C465 0.929 . S
S469 N470 1.613 . S
S469 N471 1.610 . S
N470 S469 1.613 . S
N470 C473 1.350 . S
N471 S469 1.610 . S
N471 C472 1.351 . S
C472 C466 1.428 . S
C472 N471 1.351 . S
C472 C473 1.434 . S
C473 C464 1.429 . S
C473 N470 1.350 . S
C473 C472 1.434 . S
C474 C475 1.369 . S
C474 C476 1.419 . S
C474 H478 0.930 . S
C475 C474 1.369 . S
C475 C484 1.429 . S
C476 C474 1.419 . S
C476 C477 1.363 . S
C476 H479 0.929 . S
C477 C476 1.363 . S
C477 C483 1.428 . S
H478 C474 0.930 . S
H479 C476 0.929 . S
S480 N481 1.613 . S
S480 N482 1.610 . S
N481 S480 1.613 . S
N481 C484 1.350 1_565 S
N482 S480 1.610 . S
N482 C483 1.351 1_565 S
C483 C477 1.428 . S
C483 N482 1.351 1_545 S
C483 C484 1.434 . S
C484 C475 1.429 . S
C484 N481 1.350 1_545 S
C484 C483 1.434 . S
C485 C486 1.369 . S
C485 C487 1.419 . S
C485 H489 0.930 . S
C486 C485 1.369 . S
C486 C495 1.429 . S
C487 C485 1.419 . S
C487 C488 1.363 . S
C487 H490 0.929 . S
C488 C487 1.363 . S
C488 C494 1.428 . S
H489 C485 0.930 . S
H490 C487 0.929 . S
S491 N492 1.613 . S
S491 N493 1.610 . S
N492 S491 1.613 . S
N492 C495 1.350 . S
N493 S491 1.610 . S
N493 C494 1.351 . S
C494 C488 1.428 . S
C494 N493 1.351 . S
C494 C495 1.434 . S
C495 C486 1.429 . S
C495 N492 1.350 . S
C495 C494 1.434 . S
C496 C497 1.369 . S
C496 C498 1.419 . S
C496 H500 0.930 . S
C497 C496 1.369 . S
C497 C506 1.429 . S
C498 C496 1.419 . S
C498 C499 1.363 . S
C498 H501 0.929 . S
C499 C498 1.363 . S
C499 C505 1.428 . S
H500 C496 0.930 . S
H501 C498 0.929 . S
S502 N503 1.613 . S
S502 N504 1.610 . S
N503 S502 1.613 . S
N503 C506 1.350 . S
N504 S502 1.610 . S
N504 C505 1.351 . S
C505 C499 1.428 . S
C505 N504 1.351 . S
C505 C506 1.434 . S
C506 C497 1.429 . S
C506 N503 1.350 . S
C506 C505 1.434 . S
C507 C508 1.369 . S
C507 C509 1.419 . S
C507 H511 0.930 . S
C508 C507 1.369 . S
C508 C517 1.429 1_565 S
C509 C507 1.419 . S
C509 C510 1.363 . S
C509 H512 0.929 . S
C510 C509 1.363 . S
C510 C516 1.428 1_565 S
H511 C507 0.930 . S
H512 C509 0.929 . S
S513 N514 1.613 . S
S513 N515 1.610 . S
N514 S513 1.613 . S
N514 C517 1.350 . S
N515 S513 1.610 . S
N515 C516 1.351 . S
C516 C510 1.428 1_545 S
C516 N515 1.351 . S
C516 C517 1.434 . S
C517 C508 1.429 1_545 S
C517 N514 1.350 . S
C517 C516 1.434 . S
C518 C519 1.369 1_556 S
C518 C520 1.419 . S
C518 H522 0.930 . S
C519 C518 1.369 1_554 S
C519 C528 1.432 . S
C520 C518 1.419 . S
C520 C521 1.363 . S
C520 H523 0.929 . S
C521 C520 1.363 . S
C521 C527 1.428 . S
H522 C518 0.930 . S
H523 C520 0.929 . S
S524 N525 1.613 1_556 S
S524 N526 1.610 . S
N525 S524 1.613 1_554 S
N525 C528 1.355 . S
N526 S524 1.610 . S
N526 C527 1.351 . S
C527 C521 1.428 . S
C527 N526 1.351 . S
C527 C528 1.424 1_556 S
C528 C519 1.432 . S
C528 N525 1.355 . S
C528 C527 1.424 1_554 S
C529 C530 1.369 . S
C529 C531 1.419 . S
C529 H533 0.930 . S
C530 C529 1.369 . S
C530 C539 1.429 . S
C531 C529 1.419 . S
C531 C532 1.363 . S
C531 H534 0.929 . S
C532 C531 1.363 . S
C532 C538 1.428 1_545 S
H533 C529 0.930 . S
H534 C531 0.929 . S
S535 N536 1.613 . S
S535 N537 1.610 . S
N536 S535 1.613 . S
N536 C539 1.350 1_565 S
N537 S535 1.610 . S
N537 C538 1.351 . S
C538 C532 1.428 1_565 S
C538 N537 1.351 . S
C538 C539 1.434 1_565 S
C539 C530 1.429 . S
C539 N536 1.350 1_545 S
C539 C538 1.434 1_545 S
C540 C541 1.369 . S
C540 C542 1.419 . S
C540 H544 0.930 . S
C541 C540 1.369 . S
C541 C550 1.429 . S
C542 C540 1.419 . S
C542 C543 1.363 . S
C542 H545 0.929 . S
C543 C542 1.363 . S
C543 C549 1.428 . S
H544 C540 0.930 . S
H545 C542 0.929 . S
S546 N547 1.613 . S
S546 N548 1.610 . S
N547 S546 1.613 . S
N547 C550 1.350 . S
N548 S546 1.610 . S
N548 C549 1.351 . S
C549 C543 1.428 . S
C549 N548 1.351 . S
C549 C550 1.434 . S
C550 C541 1.429 . S
C550 N547 1.350 . S
C550 C549 1.434 . S
C551 C552 1.369 . S
C551 C553 1.419 . S
C551 H555 0.930 . S
C552 C551 1.369 . S
C552 C561 1.429 1_545 S
C553 C551 1.419 . S
C553 C554 1.363 . S
C553 H556 0.929 . S
C554 C553 1.363 . S
C554 C560 1.428 . S
H555 C551 0.930 . S
H556 C553 0.929 . S
S557 N558 1.613 . S
S557 N559 1.610 . S
N558 S557 1.613 . S
N558 C561 1.350 . S
N559 S557 1.610 . S
N559 C560 1.351 1_565 S
C560 C554 1.428 . S
C560 N559 1.351 1_545 S
C560 C561 1.434 1_545 S
C561 C552 1.429 1_565 S
C561 N558 1.350 . S
C561 C560 1.434 1_565 S
C562 C563 1.369 . S
C562 C564 1.419 . S
C562 H566 0.930 . S
C563 C562 1.369 . S
C563 C572 1.429 . S
C564 C562 1.419 . S
C564 C565 1.363 1_554 S
C564 H567 0.929 1_554 S
C565 C564 1.363 1_556 S
C565 C571 1.428 1_556 S
H566 C562 0.930 . S
H567 C564 0.929 1_556 S
S568 N569 1.613 . S
S568 N570 1.610 1_554 S
N569 S568 1.613 . S
N569 C572 1.350 . S
N570 S568 1.610 1_556 S
N570 C571 1.351 1_556 S
C571 C565 1.428 1_554 S
C571 N570 1.351 1_554 S
C571 C572 1.434 . S
C572 C563 1.429 . S
C572 N569 1.350 . S
C572 C571 1.434 . S
C573 C574 1.369 . S
C573 C575 1.419 . S
C573 H577 0.930 . S
C574 C573 1.369 . S
C574 C583 1.429 1_565 S
C575 C573 1.419 . S
C575 C576 1.363 . S
C575 H578 0.929 . S
C576 C575 1.363 . S
C576 C582 1.428 1_565 S
H577 C573 0.930 . S
H578 C575 0.929 . S
S579 N580 1.613 . S
S579 N581 1.610 . S
N580 S579 1.613 . S
N580 C583 1.350 . S
N581 S579 1.610 . S
N581 C582 1.351 . S
C582 C576 1.428 1_545 S
C582 N581 1.351 . S
C582 C583 1.434 . S
C583 C574 1.429 1_545 S
C583 N580 1.350 . S
C583 C582 1.434 . S
C584 C585 1.369 . S
C584 C586 1.419 . S
C584 H588 0.930 . S
C585 C584 1.369 . S
C585 C594 1.429 . S
C586 C584 1.419 . S
C586 C587 1.363 . S
C586 H589 0.929 . S
C587 C586 1.363 . S
C587 C593 1.428 . S
H588 C584 0.930 . S
H589 C586 0.929 . S
S590 N591 1.613 . S
S590 N592 1.610 . S
N591 S590 1.613 . S
N591 C594 1.350 . S
N592 S590 1.610 . S
N592 C593 1.351 . S
C593 C587 1.428 . S
C593 N592 1.351 . S
C593 C594 1.434 . S
C594 C585 1.429 . S
C594 N591 1.350 . S
C594 C593 1.434 . S
C595 C596 1.369 . S
C595 C597 1.419 . S
C595 H599 0.930 . S
C596 C595 1.369 . S
C596 C605 1.429 . S
C597 C595 1.419 . S
C597 C598 1.363 . S
C597 H600 0.929 . S
C598 C597 1.363 . S
C598 C604 1.428 . S
H599 C595 0.930 . S
H600 C597 0.929 . S
S601 N602 1.613 . S
S601 N603 1.610 . S
N602 S601 1.613 . S
N602 C605 1.350 . S
N603 S601 1.610 . S
N603 C604 1.351 . S
C604 C598 1.428 . S
C604 N603 1.351 . S
C604 C605 1.434 . S
C605 C596 1.429 . S
C605 N602 1.350 . S
C605 C604 1.434 . S
C606 C607 1.369 . S
C606 C608 1.419 1_655 S
C606 H610 0.930 . S
C607 C606 1.369 . S
C607 C616 1.429 . S
C608 C606 1.419 1_455 S
C608 C609 1.363 . S
C608 H611 0.929 . S
C609 C608 1.363 . S
C609 C615 1.428 . S
H610 C606 0.930 . S
H611 C608 0.929 . S
S612 N613 1.613 . S
S612 N614 1.610 1_655 S
N613 S612 1.613 . S
N613 C616 1.350 . S
N614 S612 1.610 1_455 S
N614 C615 1.351 . S
C615 C609 1.428 . S
C615 N614 1.351 . S
C615 C616 1.434 1_455 S
C616 C607 1.429 . S
C616 N613 1.350 . S
C616 C615 1.434 1_655 S
C617 C618 1.369 1_455 S
C617 C619 1.419 . S
C617 H621 0.930 . S
C618 C617 1.369 1_655 S
C618 C627 1.429 . S
C619 C617 1.419 . S
C619 C620 1.363 . S
C619 H622 0.929 . S
C620 C619 1.363 . S
C620 C626 1.428 1_455 S
H621 C617 0.930 . S
H622 C619 0.929 . S
S623 N624 1.613 . S
S623 N625 1.610 . S
N624 S623 1.613 . S
N624 C627 1.350 . S
N625 S623 1.610 . S
N625 C626 1.351 . S
C626 C620 1.428 1_655 S
C626 N625 1.351 . S
C626 C627 1.434 . S
C627 C618 1.429 . S
C627 N624 1.350 . S
C627 C626 1.434 . S
C628 C629 1.369 . S
C628 C630 1.419 . S
C628 H632 0.930 . S
C629 C628 1.369 . S
C629 C638 1.429 . S
C630 C628 1.419 . S
C630 C631 1.363 . S
C630 H633 0.929 . S
C631 C630 1.363 . S
C631 C637 1.428 . S
H632 C628 0.930 . S
H633 C630 0.929 . S
S634 N635 1.613 . S
S634 N636 1.610 . S
N635 S634 1.613 . S
N635 C638 1.350 . S
N636 S634 1.610 . S
N636 C637 1.351 . S
C637 C631 1.428 . S
C637 N636 1.351 . S
C637 C638 1.434 . S
C638 C629 1.429 . S
C638 N635 1.350 . S
C638 C637 1.434 . S
C639 C640 1.369 . S
C639 C641 1.419 . S
C639 H643 0.930 . S
C640 C639 1.369 . S
C640 C649 1.429 . S
C641 C639 1.419 . S
C641 C642 1.363 . S
C641 H644 0.929 . S
C642 C641 1.363 . S
C642 C648 1.428 . S
H643 C639 0.930 . S
H644 C641 0.929 . S
S645 N646 1.613 . S
S645 N647 1.610 . S
N646 S645 1.613 . S
N646 C649 1.350 . S
N647 S645 1.610 . S
N647 C648 1.351 . S
C648 C642 1.428 . S
C648 N647 1.351 . S
C648 C649 1.434 . S
C649 C640 1.429 . S
C649 N646 1.350 . S
C649 C648 1.434 . S
C650 C651 1.369 . S
C650 C652 1.419 1_455 S
C650 H654 0.930 . S
C651 C650 1.369 . S
C651 C660 1.429 . S
C652 C650 1.419 1_655 S
C652 C653 1.363 . S
C652 H655 0.929 . S
C653 C652 1.363 . S
C653 C659 1.428 . S
H654 C650 0.930 . S
H655 C652 0.929 . S
S656 N657 1.613 1_655 S
S656 N658 1.610 . S
N657 S656 1.613 1_455 S
N657 C660 1.350 . S
N658 S656 1.610 . S
N658 C659 1.351 . S
C659 C653 1.428 . S
C659 N658 1.351 . S
C659 C660 1.434 1_655 S
C660 C651 1.429 . S
C660 N657 1.350 . S
C660 C659 1.434 1_455 S
C661 C662 1.369 . S
C661 C663 1.419 . S
C661 H665 0.930 . S
C662 C661 1.369 . S
C662 C671 1.429 1_455 S
C663 C661 1.419 . S
C663 C664 1.363 1_455 S
C663 H666 0.929 . S
C664 C663 1.363 1_655 S
C664 C670 1.428 . S
H665 C661 0.930 . S
H666 C663 0.929 . S
S667 N668 1.613 . S
S667 N669 1.610 . S
N668 S667 1.613 . S
N668 C671 1.350 . S
N669 S667 1.610 . S
N669 C670 1.351 . S
C670 C664 1.428 . S
C670 N669 1.351 . S
C670 C671 1.434 . S
C671 C662 1.429 1_655 S
C671 N668 1.350 . S
C671 C670 1.434 . S
C672 C673 1.369 . S
C672 C674 1.419 . S
C672 H676 0.930 . S
C673 C672 1.369 . S
C673 C682 1.429 . S
C674 C672 1.419 . S
C674 C675 1.363 . S
C674 H677 0.929 . S
C675 C674 1.363 . S
C675 C681 1.428 . S
H676 C672 0.930 . S
H677 C674 0.929 . S
S678 N679 1.613 . S
S678 N680 1.610 . S
N679 S678 1.613 . S
N679 C682 1.350 . S
N680 S678 1.610 . S
N680 C681 1.351 . S
C681 C675 1.428 . S
C681 N680 1.351 . S
C681 C682 1.434 . S
C682 C673 1.429 . S
C682 N679 1.350 . S
C682 C681 1.434 . S
C683 C684 1.369 . S
C683 C685 1.419 . S
C683 H687 0.930 . S
C684 C683 1.369 . S
C684 C693 1.429 . S
C685 C683 1.419 . S
C685 C686 1.363 . S
C685 H688 0.929 . S
C686 C685 1.363 . S
C686 C692 1.428 . S
H687 C683 0.930 . S
H688 C685 0.929 . S
S689 N690 1.613 . S
S689 N691 1.610 . S
N690 S689 1.613 . S
N690 C693 1.350 . S
N691 S689 1.610 . S
N691 C692 1.351 . S
C692 C686 1.428 . S
C692 N691 1.351 . S
C692 C693 1.434 . S
C693 C684 1.429 . S
C693 N690 1.350 . S
C693 C692 1.434 . S
C694 C695 1.369 . S
C694 C696 1.419 . S
C694 H698 0.930 . S
C695 C694 1.369 . S
C695 C704 1.429 . S
C696 C694 1.419 . S
C696 C697 1.363 . S
C696 H699 0.929 . S
C697 C696 1.363 . S
C697 C703 1.428 . S
H698 C694 0.930 . S
H699 C696 0.929 . S
S700 N701 1.613 . S
S700 N702 1.610 . S
N701 S700 1.613 . S
N701 C704 1.350 . S
N702 S700 1.610 . S
N702 C703 1.351 . S
C703 C697 1.428 . S
C703 N702 1.351 . S
C703 C704 1.434 . S
C704 C695 1.429 . S
C704 N701 1.350 . S
C704 C703 1.434 . S
C705 C706 1.369 . S
C705 C707 1.419 . S
C705 H709 0.930 . S
C706 C705 1.369 . S
C706 C715 1.429 . S
C707 C705 1.419 . S
C707 C708 1.363 . S
C707 H710 0.929 . S
C708 C707 1.363 . S
C708 C714 1.428 . S
H709 C705 0.930 . S
H710 C707 0.929 . S
S711 N712 1.613 1_455 S
S711 N713 1.610 . S
N712 S711 1.613 1_655 S
N712 C715 1.350 1_655 S
N713 S711 1.610 . S
N713 C714 1.351 . S
C714 C708 1.428 . S
C714 N713 1.351 . S
C714 C715 1.434 . S
C715 C706 1.429 . S
C715 N712 1.350 1_455 S
C715 C714 1.434 . S
C716 C717 1.369 . S
C716 C718 1.419 . S
C716 H720 0.930 . S
C717 C716 1.369 . S
C717 C726 1.429 . S
C718 C716 1.419 . S
C718 C719 1.363 . S
C718 H721 0.929 . S
C719 C718 1.363 . S
C719 C725 1.428 . S
H720 C716 0.930 . S
H721 C718 0.929 . S
S722 N723 1.613 . S
S722 N724 1.610 . S
N723 S722 1.613 . S
N723 C726 1.350 . S
N724 S722 1.610 . S
N724 C725 1.351 . S
C725 C719 1.428 . S
C725 N724 1.351 . S
C725 C726 1.434 . S
C726 C717 1.429 . S
C726 N723 1.350 . S
C726 C725 1.434 . S
C727 C728 1.369 . S
C727 C729 1.419 . S
C727 H731 0.930 . S
C728 C727 1.369 . S
C728 C737 1.429 . S
C729 C727 1.419 . S
C729 C730 1.363 . S
C729 H732 0.929 . S
C730 C729 1.363 . S
C730 C736 1.428 . S
H731 C727 0.930 . S
H732 C729 0.929 . S
S733 N734 1.613 . S
S733 N735 1.610 . S
N734 S733 1.613 . S
N734 C737 1.350 . S
N735 S733 1.610 . S
N735 C736 1.351 . S
C736 C730 1.428 . S
C736 N735 1.351 . S
C736 C737 1.434 . S
C737 C728 1.429 . S
C737 N734 1.350 . S
C737 C736 1.434 . S
C738 C739 1.369 . S
C738 C740 1.419 . S
C738 H742 0.930 . S
C739 C738 1.369 . S
C739 C748 1.429 . S
C740 C738 1.419 . S
C740 C741 1.363 . S
C740 H743 0.929 . S
C741 C740 1.363 . S
C741 C747 1.428 . S
H742 C738 0.930 . S
H743 C740 0.929 . S
S744 N745 1.613 . S
S744 N746 1.610 . S
N745 S744 1.613 . S
N745 C748 1.350 . S
N746 S744 1.610 . S
N746 C747 1.351 . S
C747 C741 1.428 . S
C747 N746 1.351 . S
C747 C748 1.434 . S
C748 C739 1.429 . S
C748 N745 1.350 . S
C748 C747 1.434 . S
C749 C750 1.369 . S
C749 C751 1.419 . S
C749 H753 0.930 . S
C750 C749 1.369 . S
C750 C759 1.429 . S
C751 C749 1.419 . S
C751 C752 1.363 . S
C751 H754 0.929 . S
C752 C751 1.363 . S
C752 C758 1.428 . S
H753 C749 0.930 . S
H754 C751 0.929 . S
S755 N756 1.613 . S
S755 N757 1.610 . S
N756 S755 1.613 . S
N756 C759 1.350 . S
N757 S755 1.610 . S
N757 C758 1.351 . S
C758 C752 1.428 . S
C758 N757 1.351 . S
C758 C759 1.434 . S
C759 C750 1.429 . S
C759 N756 1.350 . S
C759 C758 1.434 . S
C760 C761 1.369 . S
C760 C762 1.419 . S
C760 H764 0.930 . S
C761 C760 1.369 . S
C761 C770 1.429 . S
C762 C760 1.419 . S
C762 C763 1.363 . S
C762 H765 0.929 . S
C763 C762 1.363 . S
C763 C769 1.428 . S
H764 C760 0.930 . S
H765 C762 0.929 . S
S766 N767 1.613 . S
S766 N768 1.610 . S
N767 S766 1.613 . S
N767 C770 1.350 . S
N768 S766 1.610 . S
N768 C769 1.351 . S
C769 C763 1.428 . S
C769 N768 1.351 . S
C769 C770 1.434 . S
C770 C761 1.429 . S
C770 N767 1.350 . S
C770 C769 1.434 . S
C771 C772 1.369 . S
C771 C773 1.419 . S
C771 H775 0.930 . S
C772 C771 1.369 . S
C772 C781 1.429 . S
C773 C771 1.419 . S
C773 C774 1.363 . S
C773 H776 0.929 1_565 S
C774 C773 1.363 . S
C774 C780 1.428 . S
H775 C771 0.930 . S
H776 C773 0.929 1_545 S
S777 N778 1.613 . S
S777 N779 1.610 1_655 S
N778 S777 1.613 . S
N778 C781 1.350 . S
N779 S777 1.610 1_455 S
N779 C780 1.351 1_455 S
C780 C774 1.428 . S
C780 N779 1.351 1_655 S
C780 C781 1.434 . S
C781 C772 1.429 . S
C781 N778 1.350 . S
C781 C780 1.434 . S
C782 C783 1.369 . S
C782 C784 1.419 . S
C782 H786 0.930 . S
C783 C782 1.369 . S
C783 C792 1.429 . S
C784 C782 1.419 . S
C784 C785 1.363 . S
C784 H787 0.929 . S
C785 C784 1.363 . S
C785 C791 1.428 . S
H786 C782 0.930 . S
H787 C784 0.929 . S
S788 N789 1.613 . S
S788 N790 1.610 . S
N789 S788 1.613 . S
N789 C792 1.350 . S
N790 S788 1.610 . S
N790 C791 1.351 . S
C791 C785 1.428 . S
C791 N790 1.351 . S
C791 C792 1.434 . S
C792 C783 1.429 . S
C792 N789 1.350 . S
C792 C791 1.434 . S
C793 C794 1.369 . S
C793 C795 1.419 . S
C793 H797 0.930 1_545 S
C794 C793 1.369 . S
C794 C803 1.429 . S
C795 C793 1.419 . S
C795 C796 1.363 . S
C795 H798 0.929 . S
C796 C795 1.363 . S
C796 C802 1.428 . S
H797 C793 0.930 1_565 S
H798 C795 0.929 . S
S799 N800 1.613 . S
S799 N801 1.610 . S
N800 S799 1.613 . S
N800 C803 1.350 . S
N801 S799 1.610 . S
N801 C802 1.351 . S
C802 C796 1.428 . S
C802 N801 1.351 . S
C802 C803 1.434 . S
C803 C794 1.429 . S
C803 N800 1.350 . S
C803 C802 1.434 . S
C804 C805 1.369 . S
C804 C806 1.419 . S
C804 H808 0.930 . S
C805 C804 1.369 . S
C805 C814 1.429 . S
C806 C804 1.419 . S
C806 C807 1.363 . S
C806 H809 0.929 . S
C807 C806 1.363 . S
C807 C813 1.428 . S
H808 C804 0.930 . S
H809 C806 0.929 . S
S810 N811 1.613 . S
S810 N812 1.610 . S
N811 S810 1.613 . S
N811 C814 1.350 . S
N812 S810 1.610 . S
N812 C813 1.351 . S
C813 C807 1.428 . S
C813 N812 1.351 . S
C813 C814 1.434 . S
C814 C805 1.429 . S
C814 N811 1.350 . S
C814 C813 1.434 . S
C815 C816 1.369 . S
C815 C817 1.419 . S
C815 H819 0.930 . S
C816 C815 1.369 . S
C816 C825 1.428 1_545 S
C817 C815 1.419 . S
C817 C818 1.363 . S
C817 H820 0.929 . S
C818 C817 1.363 . S
C818 C824 1.428 . S
H819 C815 0.930 . S
H820 C817 0.929 . S
S821 N822 1.613 . S
S821 N823 1.610 . S
N822 S821 1.613 . S
N822 C825 1.351 . S
N823 S821 1.610 . S
N823 C824 1.351 1_565 S
C824 C818 1.428 . S
C824 N823 1.351 1_545 S
C824 C825 1.434 1_545 S
C825 C816 1.428 1_565 S
C825 N822 1.351 . S
C825 C824 1.434 1_565 S
C826 C827 1.369 . S
C826 C828 1.419 . S
C826 H830 0.930 . S
C827 C826 1.369 . S
C827 C836 1.429 . S
C828 C826 1.419 . S
C828 C829 1.363 . S
C828 H831 0.929 . S
C829 C828 1.363 . S
C829 C835 1.428 . S
H830 C826 0.930 . S
H831 C828 0.929 . S
S832 N833 1.613 . S
S832 N834 1.610 . S
N833 S832 1.613 . S
N833 C836 1.350 . S
N834 S832 1.610 . S
N834 C835 1.351 . S
C835 C829 1.428 . S
C835 N834 1.351 . S
C835 C836 1.434 . S
C836 C827 1.429 . S
C836 N833 1.350 . S
C836 C835 1.434 . S
C837 C838 1.369 . S
C837 C839 1.419 . S
C837 H841 0.930 . S
C838 C837 1.369 . S
C838 C847 1.429 . S
C839 C837 1.419 . S
C839 C840 1.363 . S
C839 H842 0.929 . S
C840 C839 1.363 . S
C840 C846 1.437 . S
H841 C837 0.930 . S
H842 C839 0.929 . S
S843 N844 1.613 . S
S843 N845 1.610 . S
N844 S843 1.613 . S
N844 C847 1.350 1_545 S
N845 S843 1.610 . S
N845 C846 1.336 1_545 S
C846 C840 1.437 . S
C846 N845 1.336 1_565 S
C846 C847 1.440 . S
C847 C838 1.429 . S
C847 N844 1.350 1_565 S
C847 C846 1.440 . S
C321 C2 0.731 . S
C323 C241 0.761 . S
C332 C101 0.732 . S
C334 C22 0.760 . S
C343 C42 0.765 . S
C345 C281 0.735 . S
C354 C62 0.748 . S
C356 C141 0.748 . S
C365 C81 0.762 . S
C367 C162 0.737 . S
C376 C202 0.734 . S
C378 C121 0.759 . S
C387 C261 0.764 . S
C389 C182 0.736 . S
C398 C222 0.731 . S
C400 C301 0.761 . S
C409 C189 1.898 . S
C411 C1 1.837 . S
C420 C21 1.842 . S
C422 C209 1.895 . S
C431 C41 1.835 . S
C433 C229 1.899 . S
C442 C169 1.900 . S
C444 C61 1.836 . S
C453 C268 1.895 . S
C455 C82 1.843 . S
C464 C288 1.894 . S
C466 C102 1.842 . S
C475 C122 1.843 . S
C477 C308 1.895 . S
C486 C248 1.895 . S
C488 C142 1.840 . S
C497 C161 1.835 . S
C499 C29 1.900 . S
C508 C181 1.837 1_565 S
C510 C49 1.900 . S
C519 C201 1.838 . S
C521 C69 1.897 . S
C530 C9 1.897 . S
C532 C221 1.842 1_545 S
C541 C108 1.895 . S
C543 C242 1.843 . S
C552 C262 1.843 1_545 S
C554 C128 1.897 . S
C563 C148 1.895 . S
C565 C282 1.843 . S
C574 C302 1.837 1_565 S
C576 C88 1.900 . S
C585 C18 2.293 . S
C587 C218 2.294 . S
C596 C38 2.293 . S
C598 C238 2.294 . S
C607 C178 2.293 . S
C609 C58 2.293 . S
C618 C78 2.295 . S
C620 C198 2.294 . S
C629 C99 2.297 . S
C631 C299 2.296 . S
C640 C119 2.296 . S
C642 C319 2.296 . S
C651 C259 2.294 . S
C653 C139 2.294 . S
C662 C159 2.296 . S
C664 C279 2.296 . S
C673 C8 1.434 . S
C675 C158 1.642 . S
C684 C258 1.642 . S
C686 C28 1.430 . S
C695 C48 1.434 . S
C697 C118 1.642 . S
C706 C68 1.428 1_455 S
C708 C298 1.644 . S
C717 C89 1.424 . S
C719 C79 1.645 . S
C728 C179 1.640 . S
C730 C109 1.433 . S
C739 C129 1.430 . S
C741 C39 1.643 . S
C750 C219 1.642 . S
C752 C149 1.431 1_655 S
C761 C168 1.433 . S
C763 C318 1.642 . S
C772 C98 1.646 . S
C774 C188 1.424 1_655 S
C783 C278 1.648 . S
C785 C208 1.421 . S
C794 C228 1.433 . S
C796 C138 1.642 . S
C805 C249 1.430 . S
C807 C239 1.643 . S
C816 C269 1.429 1_455 S
C818 C19 1.643 . S
C827 C199 1.645 . S
C829 C289 1.425 . S
C838 C59 1.646 . S
C840 C309 1.424 . S
