# Generated by pormake.
# Topology dei, (4)-cn, num edge types: 1
# Building blocks:
#     Node 0, Type 0, BuildingBlock: GALJAG_clean_sbu_0, # of connection points: 4
#     Node 1, Type 0, BuildingBlock: GALJAG_clean_sbu_0, # of connection points: 4
#     Node 2, Type 0, BuildingBlock: GALJAG_clean_sbu_0, # of connection points: 4
#     Node 3, Type 0, BuildingBlock: GALJAG_clean_sbu_0, # of connection points: 4
#     Node 4, Type 0, BuildingBlock: GALJAG_clean_sbu_0, # of connection points: 4
#     Node 5, Type 0, BuildingBlock: GALJAG_clean_sbu_0, # of connection points: 4
#     Node 6, Type 0, BuildingBlock: GALJAG_clean_sbu_0, # of connection points: 4
#     Node 7, Type 0, BuildingBlock: GALJAG_clean_sbu_0, # of connection points: 4
#     Node 8, Type 0, BuildingBlock: GALJAG_clean_sbu_0, # of connection points: 4
#     Node 9, Type 0, BuildingBlock: GALJAG_clean_sbu_0, # of connection points: 4
#     Node 10, Type 0, BuildingBlock: GALJAG_clean_sbu_0, # of connection points: 4
#     Node 11, Type 0, BuildingBlock: GALJAG_clean_sbu_0, # of connection points: 4
#     Node 12, Type 0, BuildingBlock: GALJAG_clean_sbu_0, # of connection points: 4
#     Node 13, Type 0, BuildingBlock: GALJAG_clean_sbu_0, # of connection points: 4
#     Node 14, Type 0, BuildingBlock: GALJAG_clean_sbu_0, # of connection points: 4
#     Node 15, Type 0, BuildingBlock: GALJAG_clean_sbu_0, # of connection points: 4
#     Node 16, Type 0, BuildingBlock: GALJAG_clean_sbu_0, # of connection points: 4
#     Node 17, Type 0, BuildingBlock: GALJAG_clean_sbu_0, # of connection points: 4
#     Node 18, Type 0, BuildingBlock: GALJAG_clean_sbu_0, # of connection points: 4
#     Node 19, Type 0, BuildingBlock: GALJAG_clean_sbu_0, # of connection points: 4
#     Node 20, Type 0, BuildingBlock: GALJAG_clean_sbu_0, # of connection points: 4
#     Node 21, Type 0, BuildingBlock: GALJAG_clean_sbu_0, # of connection points: 4
#     Node 22, Type 0, BuildingBlock: GALJAG_clean_sbu_0, # of connection points: 4
#     Node 23, Type 0, BuildingBlock: GALJAG_clean_sbu_0, # of connection points: 4
#     Node 24, Type 0, BuildingBlock: GALJAG_clean_sbu_0, # of connection points: 4
#     Node 25, Type 0, BuildingBlock: GALJAG_clean_sbu_0, # of connection points: 4
#     Node 26, Type 0, BuildingBlock: GALJAG_clean_sbu_0, # of connection points: 4
#     Node 27, Type 0, BuildingBlock: GALJAG_clean_sbu_0, # of connection points: 4
#     Node 28, Type 0, BuildingBlock: GALJAG_clean_sbu_0, # of connection points: 4
#     Node 29, Type 0, BuildingBlock: GALJAG_clean_sbu_0, # of connection points: 4
#     Node 30, Type 0, BuildingBlock: GALJAG_clean_sbu_0, # of connection points: 4
#     Node 31, Type 0, BuildingBlock: GALJAG_clean_sbu_0, # of connection points: 4
#     Edge 32, Type (0, 0), BuildingBlock: OJICUG_clean_linker_0, # of connection points: 2
#     Edge 33, Type (0, 0), BuildingBlock: OJICUG_clean_linker_0, # of connection points: 2
#     Edge 34, Type (0, 0), BuildingBlock: OJICUG_clean_linker_0, # of connection points: 2
#     Edge 35, Type (0, 0), BuildingBlock: OJICUG_clean_linker_0, # of connection points: 2
#     Edge 36, Type (0, 0), BuildingBlock: OJICUG_clean_linker_0, # of connection points: 2
#     Edge 37, Type (0, 0), BuildingBlock: OJICUG_clean_linker_0, # of connection points: 2
#     Edge 38, Type (0, 0), BuildingBlock: OJICUG_clean_linker_0, # of connection points: 2
#     Edge 39, Type (0, 0), BuildingBlock: OJICUG_clean_linker_0, # of connection points: 2
#     Edge 40, Type (0, 0), BuildingBlock: OJICUG_clean_linker_0, # of connection points: 2
#     Edge 41, Type (0, 0), BuildingBlock: OJICUG_clean_linker_0, # of connection points: 2
#     Edge 42, Type (0, 0), BuildingBlock: OJICUG_clean_linker_0, # of connection points: 2
#     Edge 43, Type (0, 0), BuildingBlock: OJICUG_clean_linker_0, # of connection points: 2
#     Edge 44, Type (0, 0), BuildingBlock: OJICUG_clean_linker_0, # of connection points: 2
#     Edge 45, Type (0, 0), BuildingBlock: OJICUG_clean_linker_0, # of connection points: 2
#     Edge 46, Type (0, 0), BuildingBlock: OJICUG_clean_linker_0, # of connection points: 2
#     Edge 47, Type (0, 0), BuildingBlock: OJICUG_clean_linker_0, # of connection points: 2
#     Edge 48, Type (0, 0), BuildingBlock: OJICUG_clean_linker_0, # of connection points: 2
#     Edge 49, Type (0, 0), BuildingBlock: OJICUG_clean_linker_0, # of connection points: 2
#     Edge 50, Type (0, 0), BuildingBlock: OJICUG_clean_linker_0, # of connection points: 2
#     Edge 51, Type (0, 0), BuildingBlock: OJICUG_clean_linker_0, # of connection points: 2
#     Edge 52, Type (0, 0), BuildingBlock: OJICUG_clean_linker_0, # of connection points: 2
#     Edge 53, Type (0, 0), BuildingBlock: OJICUG_clean_linker_0, # of connection points: 2
#     Edge 54, Type (0, 0), BuildingBlock: OJICUG_clean_linker_0, # of connection points: 2
#     Edge 55, Type (0, 0), BuildingBlock: OJICUG_clean_linker_0, # of connection points: 2
#     Edge 56, Type (0, 0), BuildingBlock: OJICUG_clean_linker_0, # of connection points: 2
#     Edge 57, Type (0, 0), BuildingBlock: OJICUG_clean_linker_0, # of connection points: 2
#     Edge 58, Type (0, 0), BuildingBlock: OJICUG_clean_linker_0, # of connection points: 2
#     Edge 59, Type (0, 0), BuildingBlock: OJICUG_clean_linker_0, # of connection points: 2
#     Edge 60, Type (0, 0), BuildingBlock: OJICUG_clean_linker_0, # of connection points: 2
#     Edge 61, Type (0, 0), BuildingBlock: OJICUG_clean_linker_0, # of connection points: 2
#     Edge 62, Type (0, 0), BuildingBlock: OJICUG_clean_linker_0, # of connection points: 2
#     Edge 63, Type (0, 0), BuildingBlock: OJICUG_clean_linker_0, # of connection points: 2
#     Edge 64, Type (0, 0), BuildingBlock: OJICUG_clean_linker_0, # of connection points: 2
#     Edge 65, Type (0, 0), BuildingBlock: OJICUG_clean_linker_0, # of connection points: 2
#     Edge 66, Type (0, 0), BuildingBlock: OJICUG_clean_linker_0, # of connection points: 2
#     Edge 67, Type (0, 0), BuildingBlock: OJICUG_clean_linker_0, # of connection points: 2
#     Edge 68, Type (0, 0), BuildingBlock: OJICUG_clean_linker_0, # of connection points: 2
#     Edge 69, Type (0, 0), BuildingBlock: OJICUG_clean_linker_0, # of connection points: 2
#     Edge 70, Type (0, 0), BuildingBlock: OJICUG_clean_linker_0, # of connection points: 2
#     Edge 71, Type (0, 0), BuildingBlock: OJICUG_clean_linker_0, # of connection points: 2
#     Edge 72, Type (0, 0), BuildingBlock: OJICUG_clean_linker_0, # of connection points: 2
#     Edge 73, Type (0, 0), BuildingBlock: OJICUG_clean_linker_0, # of connection points: 2
#     Edge 74, Type (0, 0), BuildingBlock: OJICUG_clean_linker_0, # of connection points: 2
#     Edge 75, Type (0, 0), BuildingBlock: OJICUG_clean_linker_0, # of connection points: 2
#     Edge 76, Type (0, 0), BuildingBlock: OJICUG_clean_linker_0, # of connection points: 2
#     Edge 77, Type (0, 0), BuildingBlock: OJICUG_clean_linker_0, # of connection points: 2
#     Edge 78, Type (0, 0), BuildingBlock: OJICUG_clean_linker_0, # of connection points: 2
#     Edge 79, Type (0, 0), BuildingBlock: OJICUG_clean_linker_0, # of connection points: 2
#     Edge 80, Type (0, 0), BuildingBlock: OJICUG_clean_linker_0, # of connection points: 2
#     Edge 81, Type (0, 0), BuildingBlock: OJICUG_clean_linker_0, # of connection points: 2
#     Edge 82, Type (0, 0), BuildingBlock: OJICUG_clean_linker_0, # of connection points: 2
#     Edge 83, Type (0, 0), BuildingBlock: OJICUG_clean_linker_0, # of connection points: 2
#     Edge 84, Type (0, 0), BuildingBlock: OJICUG_clean_linker_0, # of connection points: 2
#     Edge 85, Type (0, 0), BuildingBlock: OJICUG_clean_linker_0, # of connection points: 2
#     Edge 86, Type (0, 0), BuildingBlock: OJICUG_clean_linker_0, # of connection points: 2
#     Edge 87, Type (0, 0), BuildingBlock: OJICUG_clean_linker_0, # of connection points: 2
#     Edge 88, Type (0, 0), BuildingBlock: OJICUG_clean_linker_0, # of connection points: 2
#     Edge 89, Type (0, 0), BuildingBlock: OJICUG_clean_linker_0, # of connection points: 2
#     Edge 90, Type (0, 0), BuildingBlock: OJICUG_clean_linker_0, # of connection points: 2
#     Edge 91, Type (0, 0), BuildingBlock: OJICUG_clean_linker_0, # of connection points: 2
#     Edge 92, Type (0, 0), BuildingBlock: OJICUG_clean_linker_0, # of connection points: 2
#     Edge 93, Type (0, 0), BuildingBlock: OJICUG_clean_linker_0, # of connection points: 2
#     Edge 94, Type (0, 0), BuildingBlock: OJICUG_clean_linker_0, # of connection points: 2
#     Edge 95, Type (0, 0), BuildingBlock: OJICUG_clean_linker_0, # of connection points: 2
# Relax obj value: 0.292
# Max RMSD: 0.107
# Mean RMSD: 0.106
data_MOF--net-dei--node1-GALJAG_clean_sbu_0--edge1-OJICUG_clean_linker_0
_symmetry_space_group_name_H-M    P1
_symmetry_Int_Tables_number       1
_symmetry_cell_setting            triclinic
loop_
_symmetry_equiv_pos_as_xyz
'x, y, z'
_cell_length_a     41.152206
_cell_length_b     41.155218
_cell_length_c     60.009463
_cell_angle_alpha  89.955444
_cell_angle_beta   90.122759
_cell_angle_gamma 89.834419
loop_
_atom_site_label
_atom_site_type_symbol
_atom_site_fract_x
_atom_site_fract_y
_atom_site_fract_z
_atom_type_partial_charge
In0 In 0.15137 0.635 0.02536 0.0
O1 O 0.16868 0.60277 0.99605 0.0
O2 O 0.17707 0.58572 0.02871 0.0
C3 C 0.17541 0.69346 0.01166 0.0
C4 C 0.08645 0.64027 0.01914 0.0
C5 C 0.15238 0.62873 0.07008 0.0
O6 O 0.15297 0.6787 0.0016 0.0
O7 O 0.18777 0.67747 0.02752 0.0
O8 O 0.13076 0.61602 0.05799 0.0
O9 O 0.17382 0.64448 0.0596 0.0
C10 C 0.17871 0.5798 0.00821 0.0
O11 O 0.10258 0.65945 0.03118 0.0
O12 O 0.10307 0.6182 0.01 0.0
In13 In 0.63933 0.89648 0.28298 0.0
O14 O 0.64971 0.87452 0.3169 0.0
O15 O 0.63623 0.92454 0.3158 0.0
C16 C 0.63369 0.83202 0.27523 0.0
C17 C 0.58091 0.92176 0.2696 0.0
C18 C 0.69744 0.92 0.26801 0.0
O19 O 0.61607 0.84724 0.28886 0.0
O20 O 0.65416 0.84939 0.26513 0.0
O21 O 0.67231 0.91998 0.25586 0.0
O22 O 0.6926 0.90978 0.28742 0.0
C23 C 0.64451 0.90039 0.32761 0.0
O24 O 0.59625 0.93211 0.28635 0.0
O25 O 0.59626 0.9007 0.25855 0.0
In26 In 0.38105 0.39327 0.52932 0.0
O27 O 0.4298 0.36739 0.52994 0.0
O28 O 0.42821 0.41326 0.5139 0.0
C29 C 0.38311 0.39744 0.5741 0.0
C30 C 0.35726 0.45116 0.51412 0.0
C31 C 0.352 0.33628 0.51723 0.0
O32 O 0.40754 0.39078 0.56234 0.0
O33 O 0.35697 0.40159 0.56334 0.0
O34 O 0.3716 0.35128 0.50485 0.0
O35 O 0.34464 0.35153 0.53473 0.0
C36 C 0.4453 0.38926 0.5199 0.0
O37 O 0.36615 0.44616 0.53389 0.0
O38 O 0.35913 0.42639 0.50171 0.0
In39 In 0.88459 0.12737 0.77932 0.0
O40 O 0.8638 0.14398 0.81249 0.0
O41 O 0.89719 0.10437 0.81297 0.0
C42 C 0.88942 0.19268 0.77551 0.0
C43 C 0.94223 0.10322 0.76396 0.0
C44 C 0.82888 0.10247 0.76143 0.0
O45 O 0.90676 0.17605 0.78859 0.0
O46 O 0.86961 0.17637 0.76404 0.0
O47 O 0.85145 0.11396 0.74967 0.0
O48 O 0.83549 0.10122 0.78187 0.0
C49 C 0.87925 0.12343 0.82402 0.0
O50 O 0.92553 0.08876 0.77851 0.0
O51 O 0.92872 0.12825 0.75612 0.0
In52 In 0.1539 0.39137 0.96057 0.0
O53 O 0.10447 0.36716 0.95739 0.0
O54 O 0.10736 0.40933 0.97761 0.0
C55 C 0.15439 0.39542 0.91573 0.0
C56 C 0.17978 0.44846 0.97558 0.0
C57 C 0.17945 0.33313 0.97392 0.0
O58 O 0.13002 0.40314 0.92733 0.0
O59 O 0.17869 0.38543 0.92673 0.0
O60 O 0.18972 0.34849 0.95717 0.0
O61 O 0.15838 0.34842 0.98499 0.0
C62 C 0.08973 0.3871 0.96971 0.0
O63 O 0.17604 0.42417 0.9882 0.0
O64 O 0.1725 0.44308 0.9556 0.0
In65 In 0.88283 0.89586 0.21514 0.0
O66 O 0.92535 0.90408 0.23943 0.0
O67 O 0.92591 0.93066 0.20936 0.0
C68 C 0.82826 0.92133 0.23425 0.0
C69 C 0.88302 0.89577 0.17025 0.0
C70 C 0.87838 0.83102 0.22239 0.0
O71 O 0.83397 0.92265 0.21371 0.0
O72 O 0.85121 0.9093 0.24558 0.0
O73 O 0.85508 0.84767 0.21484 0.0
O74 O 0.90371 0.84707 0.22643 0.0
C75 C 0.94101 0.92293 0.22689 0.0
O76 O 0.89605 0.87351 0.18169 0.0
O77 O 0.87058 0.91861 0.18142 0.0
In78 In 0.37637 0.63771 0.46302 0.0
O79 O 0.35118 0.58816 0.46044 0.0
O80 O 0.36087 0.60563 0.49279 0.0
C81 C 0.35338 0.69636 0.47758 0.0
C82 C 0.44154 0.64109 0.46803 0.0
C83 C 0.37314 0.63134 0.41835 0.0
O84 O 0.3776 0.68214 0.48601 0.0
O85 O 0.33902 0.67993 0.46281 0.0
O86 O 0.39496 0.61811 0.43005 0.0
O87 O 0.35256 0.64783 0.42918 0.0
C88 C 0.35084 0.58235 0.481 0.0
O89 O 0.42576 0.65961 0.45521 0.0
O90 O 0.42443 0.62088 0.47856 0.0
In91 In 0.63713 0.12895 0.71686 0.0
O92 O 0.59618 0.12104 0.7422 0.0
O93 O 0.59623 0.09107 0.71366 0.0
C94 C 0.69654 0.10713 0.73031 0.0
C95 C 0.63804 0.12895 0.67203 0.0
C96 C 0.63438 0.19333 0.72594 0.0
O97 O 0.67183 0.10526 0.74278 0.0
O98 O 0.69082 0.11892 0.71135 0.0
O99 O 0.6133 0.17858 0.71463 0.0
O100 O 0.65687 0.17544 0.73338 0.0
C101 C 0.58125 0.09998 0.73093 0.0
O102 O 0.62802 0.15259 0.68344 0.0
O103 O 0.64716 0.10448 0.68318 0.0
In104 In 0.88539 0.39049 0.96666 0.0
O105 O 0.91196 0.39295 0.93366 0.0
O106 O 0.86081 0.40034 0.9329 0.0
C107 C 0.95009 0.38622 0.97442 0.0
C108 C 0.85682 0.33284 0.97811 0.0
C109 C 0.86205 0.44662 0.98481 0.0
O110 O 0.93382 0.3638 0.96549 0.0
O111 O 0.93364 0.41091 0.97982 0.0
O112 O 0.87218 0.42322 0.99658 0.0
O113 O 0.86181 0.44081 0.96424 0.0
C114 C 0.8871 0.39892 0.92207 0.0
O115 O 0.87562 0.34814 0.99091 0.0
O116 O 0.85015 0.34793 0.96041 0.0
In117 In 0.38455 0.12655 0.71614 0.0
O118 O 0.36387 0.14539 0.68332 0.0
O119 O 0.39449 0.10369 0.68209 0.0
C120 C 0.39039 0.19161 0.72099 0.0
C121 C 0.44241 0.10126 0.73047 0.0
C122 C 0.32942 0.10185 0.73486 0.0
O123 O 0.40868 0.17501 0.70858 0.0
O124 O 0.36905 0.17541 0.73112 0.0
O125 O 0.35231 0.1137 0.7462 0.0
O126 O 0.33546 0.1 0.71437 0.0
C127 C 0.37756 0.12414 0.67142 0.0
O128 O 0.42573 0.08828 0.71524 0.0
O129 O 0.42875 0.12528 0.73951 0.0
In130 In 0.64702 0.63808 0.4662 0.0
O131 O 0.63001 0.61628 0.43344 0.0
O132 O 0.66993 0.64904 0.43235 0.0
C133 C 0.58161 0.64104 0.46974 0.0
C134 C 0.66801 0.69727 0.48082 0.0
C135 C 0.67465 0.5841 0.485 0.0
O136 O 0.59778 0.6599 0.45753 0.0
O137 O 0.59843 0.6206 0.48043 0.0
O138 O 0.66215 0.60659 0.49642 0.0
O139 O 0.67544 0.59004 0.46446 0.0
C140 C 0.65062 0.63096 0.42164 0.0
O141 O 0.68283 0.68137 0.46598 0.0
O142 O 0.6445 0.68221 0.48934 0.0
In143 In 0.13847 0.89424 0.21225 0.0
O144 O 0.15589 0.87403 0.17911 0.0
O145 O 0.12978 0.91877 0.17859 0.0
C146 C 0.13354 0.82924 0.21807 0.0
C147 C 0.0803 0.91954 0.22585 0.0
C148 C 0.19451 0.91949 0.22955 0.0
O149 O 0.15462 0.84605 0.22804 0.0
O150 O 0.11487 0.84525 0.20549 0.0
O151 O 0.18899 0.9171 0.20903 0.0
O152 O 0.17078 0.91137 0.2416 0.0
C153 C 0.14426 0.89693 0.16758 0.0
O154 O 0.0943 0.89628 0.23565 0.0
O155 O 0.09679 0.93178 0.21028 0.0
In156 In 0.88241 0.63917 0.02944 0.0
O157 O 0.84322 0.67909 0.03188 0.0
O158 O 0.87439 0.68029 0.00402 0.0
C159 C 0.86342 0.5788 0.01638 0.0
C160 C 0.87974 0.63833 0.07426 0.0
C161 C 0.94663 0.64333 0.02033 0.0
O162 O 0.8582 0.60366 0.00443 0.0
O163 O 0.8772 0.58476 0.03465 0.0
O164 O 0.93199 0.66253 0.0332 0.0
O165 O 0.92874 0.62209 0.01146 0.0
C166 C 0.85229 0.69445 0.01483 0.0
O167 O 0.90394 0.64868 0.06358 0.0
O168 O 0.85626 0.62882 0.06234 0.0
In169 In 0.137 0.12708 0.77919 0.0
O170 O 0.09671 0.08821 0.77886 0.0
O171 O 0.09527 0.12442 0.75391 0.0
C172 C 0.19741 0.10809 0.76619 0.0
C173 C 0.13588 0.11943 0.82372 0.0
C174 C 0.1352 0.19223 0.77313 0.0
O175 O 0.17219 0.09933 0.75567 0.0
O176 O 0.19182 0.12572 0.78289 0.0
O177 O 0.12223 0.17792 0.78932 0.0
O178 O 0.14925 0.17366 0.75946 0.0
C179 C 0.08099 0.10083 0.76297 0.0
O180 O 0.11848 0.13981 0.81349 0.0
O181 O 0.15331 0.10163 0.81141 0.0
In182 In 0.64917 0.39588 0.53341 0.0
O183 O 0.62638 0.40717 0.56703 0.0
O184 O 0.67447 0.38802 0.56701 0.0
C185 C 0.58495 0.39138 0.52418 0.0
C186 C 0.67454 0.33808 0.51927 0.0
C187 C 0.6747 0.45331 0.51876 0.0
O188 O 0.59979 0.37173 0.53674 0.0
O189 O 0.60252 0.4135 0.51609 0.0
O190 O 0.67242 0.42873 0.50626 0.0
O191 O 0.666 0.44815 0.53848 0.0
C192 C 0.65071 0.39828 0.57835 0.0
O193 O 0.65244 0.35309 0.5089 0.0
O194 O 0.68582 0.35351 0.5357 0.0
In195 In 0.38355 0.89349 0.27903 0.0
O196 O 0.42577 0.92934 0.28481 0.0
O197 O 0.42653 0.90184 0.25517 0.0
C198 C 0.3256 0.91645 0.26323 0.0
C199 C 0.37662 0.89333 0.32363 0.0
C200 C 0.38834 0.82927 0.26991 0.0
O201 O 0.35074 0.91538 0.25114 0.0
O202 O 0.3303 0.90729 0.28295 0.0
O203 O 0.40827 0.84435 0.282 0.0
O204 O 0.36587 0.84671 0.26192 0.0
C205 C 0.44146 0.92142 0.26763 0.0
O206 O 0.38234 0.86803 0.31245 0.0
O207 O 0.37506 0.9193 0.31237 0.0
In208 In 0.64421 0.14292 0.53183 0.0
O209 O 0.59464 0.16658 0.53522 0.0
O210 O 0.59753 0.12501 0.5145 0.0
C211 C 0.64579 0.14048 0.57662 0.0
C212 C 0.66514 0.08333 0.5182 0.0
C213 C 0.67329 0.19907 0.51822 0.0
O214 O 0.62179 0.15103 0.56571 0.0
O215 O 0.66982 0.1317 0.56497 0.0
O216 O 0.65202 0.18457 0.50685 0.0
O217 O 0.68225 0.18359 0.53531 0.0
C218 C 0.57976 0.14674 0.52299 0.0
O219 O 0.66864 0.10838 0.50617 0.0
O220 O 0.65197 0.08877 0.53672 0.0
In221 In 0.14334 0.39742 0.77507 0.0
O222 O 0.1658 0.38092 0.80789 0.0
O223 O 0.13136 0.41958 0.80896 0.0
C224 C 0.13828 0.33218 0.77132 0.0
C225 C 0.08518 0.42174 0.76061 0.0
C226 C 0.19848 0.42194 0.75635 0.0
O227 O 0.1215 0.34878 0.78469 0.0
O228 O 0.15769 0.34848 0.75957 0.0
O229 O 0.17607 0.40912 0.74505 0.0
O230 O 0.19187 0.4249 0.77669 0.0
C231 C 0.15012 0.40087 0.8197 0.0
O232 O 0.10283 0.43649 0.77451 0.0
O233 O 0.09806 0.39642 0.7528 0.0
In234 In 0.87925 0.88861 0.02947 0.0
O235 O 0.85536 0.92292 0.00346 0.0
O236 O 0.87017 0.9427 0.03442 0.0
C237 C 0.8502 0.83293 0.01498 0.0
C238 C 0.94355 0.88478 0.02034 0.0
C239 C 0.8778 0.88929 0.07437 0.0
O240 O 0.84132 0.84775 0.03232 0.0
O241 O 0.87142 0.84784 0.00388 0.0
O242 O 0.90234 0.88058 0.06335 0.0
O243 O 0.8534 0.89742 0.06278 0.0
C244 C 0.8579 0.948 0.01554 0.0
O245 O 0.92604 0.90772 0.01313 0.0
O246 O 0.92852 0.86389 0.03162 0.0
In247 In 0.38267 0.62488 0.27764 0.0
O248 O 0.42684 0.62238 0.25429 0.0
O249 O 0.42541 0.58866 0.2808 0.0
C250 C 0.32669 0.59834 0.26105 0.0
C251 C 0.37697 0.62431 0.32239 0.0
C252 C 0.38734 0.68949 0.27013 0.0
O253 O 0.35056 0.60526 0.24876 0.0
O254 O 0.33205 0.60266 0.28144 0.0
O255 O 0.40657 0.67401 0.28261 0.0
O256 O 0.36555 0.67236 0.26116 0.0
C257 C 0.44164 0.60044 0.26493 0.0
O258 O 0.3667 0.6474 0.31044 0.0
O259 O 0.39006 0.60121 0.31177 0.0
In260 In 0.64538 0.89647 0.46801 0.0
O261 O 0.59582 0.88178 0.45505 0.0
O262 O 0.59683 0.90929 0.48491 0.0
C263 C 0.65158 0.90199 0.42351 0.0
C264 C 0.67084 0.95131 0.48675 0.0
C265 C 0.66595 0.83675 0.48222 0.0
O266 O 0.63247 0.91955 0.43474 0.0
O267 O 0.66825 0.88201 0.43481 0.0
O268 O 0.68328 0.85477 0.47007 0.0
O269 O 0.63978 0.84982 0.48838 0.0
C270 C 0.5798 0.8953 0.47032 0.0
O271 O 0.65859 0.92872 0.49814 0.0
O272 O 0.67275 0.945 0.46631 0.0
In273 In 0.39202 0.39658 0.71426 0.0
O274 O 0.43249 0.4352 0.71457 0.0
O275 O 0.43238 0.40057 0.74055 0.0
C276 C 0.33124 0.41529 0.72658 0.0
C277 C 0.39289 0.40385 0.66968 0.0
C278 C 0.39469 0.33153 0.72081 0.0
O279 O 0.35613 0.42366 0.73762 0.0
O280 O 0.33734 0.39811 0.70974 0.0
O281 O 0.41073 0.34616 0.7061 0.0
O282 O 0.37728 0.34977 0.73278 0.0
C283 C 0.44721 0.42361 0.73125 0.0
O284 O 0.40816 0.38171 0.67977 0.0
O285 O 0.37774 0.42345 0.68213 0.0
In286 In 0.87967 0.13486 0.96482 0.0
O287 O 0.92865 0.15959 0.96035 0.0
O288 O 0.92764 0.11641 0.97968 0.0
C289 C 0.87732 0.12853 0.92009 0.0
C290 C 0.8541 0.0794 0.98263 0.0
C291 C 0.8549 0.19357 0.97782 0.0
O292 O 0.90158 0.11984 0.93156 0.0
O293 O 0.85405 0.14037 0.93119 0.0
O294 O 0.87639 0.1785 0.98871 0.0
O295 O 0.84391 0.17784 0.96146 0.0
C296 C 0.94448 0.13917 0.97171 0.0
O297 O 0.86269 0.10322 0.99447 0.0
O298 O 0.8561 0.08461 0.96205 0.0
In299 In 0.13927 0.62435 0.21071 0.0
O300 O 0.09556 0.62154 0.23449 0.0
O301 O 0.09677 0.58804 0.20788 0.0
C302 C 0.1955 0.59809 0.22744 0.0
C303 C 0.1454 0.6231 0.16601 0.0
C304 C 0.13406 0.6892 0.21731 0.0
O305 O 0.1899 0.60164 0.207 0.0
O306 O 0.17178 0.60562 0.23971 0.0
O307 O 0.1553 0.67212 0.22703 0.0
O308 O 0.11543 0.67353 0.20459 0.0
C309 C 0.08085 0.59947 0.22402 0.0
O310 O 0.1562 0.64594 0.17789 0.0
O311 O 0.1315 0.60057 0.17667 0.0
In312 In 0.37432 0.89338 0.46335 0.0
O313 O 0.38405 0.87083 0.42974 0.0
O314 O 0.34879 0.90876 0.43096 0.0
C315 C 0.43975 0.89579 0.46766 0.0
C316 C 0.35133 0.83565 0.47907 0.0
C317 C 0.3535 0.95277 0.47765 0.0
O318 O 0.42528 0.88973 0.44971 0.0
O319 O 0.42121 0.90103 0.484 0.0
O320 O 0.34689 0.92699 0.48821 0.0
O321 O 0.36959 0.9482 0.46013 0.0
C322 C 0.36473 0.88896 0.41911 0.0
O323 O 0.37618 0.84951 0.4868 0.0
O324 O 0.33604 0.85241 0.46485 0.0
In325 In 0.88311 0.62646 0.21484 0.0
O326 O 0.89652 0.65021 0.1819 0.0
O327 O 0.8716 0.60499 0.18067 0.0
C328 C 0.8783 0.69112 0.22274 0.0
C329 C 0.94137 0.59859 0.22596 0.0
C330 C 0.82811 0.60075 0.23309 0.0
O331 O 0.85529 0.67473 0.2147 0.0
O332 O 0.9035 0.67486 0.2271 0.0
O333 O 0.83425 0.60024 0.21259 0.0
O334 O 0.85091 0.61203 0.24486 0.0
C335 C 0.88389 0.62836 0.16999 0.0
O336 O 0.92607 0.61746 0.23875 0.0
O337 O 0.92587 0.59126 0.20854 0.0
In338 In 0.14853 0.13661 0.96367 0.0
O339 O 0.18455 0.17852 0.95766 0.0
O340 O 0.1584 0.17896 0.98784 0.0
C341 C 0.17225 0.07891 0.97924 0.0
C342 C 0.14593 0.13036 0.91904 0.0
C343 C 0.08433 0.14089 0.97304 0.0
O344 O 0.16592 0.08446 0.9591 0.0
O345 O 0.16813 0.10315 0.99187 0.0
O346 O 0.09966 0.16233 0.96242 0.0
O347 O 0.10153 0.11723 0.9795 0.0
C348 C 0.17763 0.1939 0.97518 0.0
O349 O 0.17241 0.12803 0.92967 0.0
O350 O 0.12137 0.13643 0.93085 0.0
In351 In 0.64367 0.39811 0.71936 0.0
O352 O 0.6628 0.37945 0.68606 0.0
O353 O 0.63227 0.42122 0.68558 0.0
C354 C 0.6389 0.33312 0.72498 0.0
C355 C 0.58588 0.42293 0.73384 0.0
C356 C 0.69873 0.42332 0.73788 0.0
O357 O 0.61906 0.34941 0.71345 0.0
O358 O 0.66135 0.34956 0.73373 0.0
O359 O 0.69288 0.42422 0.71731 0.0
O360 O 0.67568 0.41217 0.74936 0.0
C361 C 0.64863 0.40087 0.67452 0.0
O362 O 0.60278 0.43665 0.71907 0.0
O363 O 0.59938 0.39844 0.74248 0.0
In364 In 0.37506 0.13814 0.53068 0.0
O365 O 0.39657 0.12095 0.56365 0.0
O366 O 0.35034 0.1442 0.56454 0.0
C367 C 0.43992 0.14314 0.52426 0.0
C368 C 0.35038 0.19699 0.51771 0.0
C369 C 0.34936 0.08327 0.51201 0.0
O370 O 0.42386 0.16293 0.53592 0.0
O371 O 0.4233 0.12059 0.51578 0.0
O372 O 0.35057 0.0881 0.53268 0.0
O373 O 0.35877 0.10717 0.50057 0.0
C374 C 0.3731 0.13079 0.57537 0.0
O375 O 0.37213 0.1821 0.50704 0.0
O376 O 0.33911 0.18106 0.53389 0.0
In377 In 0.63925 0.62744 0.28095 0.0
O378 O 0.59597 0.62441 0.25674 0.0
O379 O 0.59686 0.59093 0.28342 0.0
C380 C 0.69652 0.60201 0.26556 0.0
C381 C 0.6445 0.626 0.3257 0.0
C382 C 0.63358 0.69214 0.27393 0.0
O383 O 0.67257 0.60725 0.25285 0.0
O384 O 0.69073 0.6076 0.28572 0.0
O385 O 0.61519 0.67643 0.28675 0.0
O386 O 0.65485 0.67514 0.26423 0.0
C387 C 0.58115 0.60233 0.2671 0.0
O388 O 0.65371 0.64977 0.31404 0.0
O389 O 0.6324 0.60267 0.31478 0.0
In390 In 0.14814 0.89047 0.02678 0.0
O391 O 0.15015 0.8471 0.00277 0.0
O392 O 0.18563 0.84871 0.02824 0.0
C393 C 0.17414 0.94689 0.01085 0.0
C394 C 0.14942 0.89443 0.0716 0.0
C395 C 0.08339 0.88588 0.01978 0.0
O396 O 0.17095 0.94072 0.03123 0.0
O397 O 0.16642 0.9236 -0.00175 0.0
O398 O 0.10029 0.90806 0.01111 0.0
O399 O 0.09917 0.86612 0.03169 0.0
C400 C 0.17329 0.8327 0.01244 0.0
O401 O 0.12681 0.90638 0.05994 0.0
O402 O 0.17165 0.88048 0.06066 0.0
In403 In 0.8913 0.3981 0.78214 0.0
O404 O 0.93179 0.4367 0.78023 0.0
O405 O 0.93178 0.39947 0.75602 0.0
C406 C 0.8308 0.41724 0.76932 0.0
C407 C 0.894 0.40782 0.82651 0.0
C408 C 0.89237 0.33272 0.77704 0.0
O409 O 0.85594 0.42624 0.75889 0.0
O410 O 0.83649 0.39928 0.78588 0.0
O411 O 0.90545 0.34728 0.79311 0.0
O412 O 0.87855 0.35112 0.7631 0.0
C413 C 0.94656 0.42342 0.76422 0.0
O414 O 0.91203 0.38793 0.8164 0.0
O415 O 0.87515 0.4241 0.81413 0.0
C416 C 0.1296 0.60221 0.12838 0.0
C417 C 0.14832 0.62332 0.1415 0.0
H418 H 0.11605 0.5876 0.0954 0.0
C419 C 0.16927 0.64543 0.13097 0.0
H420 H 0.11322 0.58497 0.13606 0.0
C421 C 0.17121 0.64665 0.10774 0.0
C422 C 0.15187 0.62613 0.09461 0.0
H423 H 0.18407 0.66193 0.14069 0.0
H424 H 0.18732 0.66415 0.10007 0.0
C425 C 0.13118 0.60377 0.10513 0.0
C426 C 0.66585 0.87723 0.38684 0.0
C427 C 0.65216 0.90299 0.39894 0.0
H428 H 0.67378 0.85609 0.35473 0.0
C429 C 0.63707 0.92865 0.38737 0.0
H430 H 0.67749 0.85707 0.39533 0.0
C431 C 0.63522 0.92827 0.36411 0.0
C432 C 0.64795 0.90195 0.35206 0.0
H433 H 0.62633 0.94884 0.39632 0.0
H434 H 0.62313 0.94815 0.3556 0.0
C435 C 0.66355 0.8766 0.36362 0.0
C436 C 0.41522 0.38889 0.63268 0.0
C437 C 0.39119 0.40474 0.64519 0.0
H438 H 0.43151 0.37445 0.60039 0.0
C439 C 0.36451 0.41888 0.63416 0.0
H440 H 0.436 0.37774 0.64079 0.0
C441 C 0.36153 0.41634 0.61097 0.0
C442 C 0.38553 0.40022 0.59853 0.0
H443 H 0.34551 0.43097 0.6435 0.0
H444 H 0.34056 0.427 0.60279 0.0
C445 C 0.41259 0.38694 0.60957 0.0
C446 C 0.90049 0.10739 0.88443 0.0
C447 C 0.87669 0.12573 0.89557 0.0
H448 H 0.91966 0.09185 0.85299 0.0
C449 C 0.8529 0.1421 0.88302 0.0
H450 H 0.91907 0.09442 0.89369 0.0
C451 C 0.85347 0.14092 0.85975 0.0
C452 C 0.87755 0.12296 0.8486 0.0
H453 H 0.83428 0.15643 0.89117 0.0
H454 H 0.83521 0.15432 0.85048 0.0
C455 C 0.90078 0.10582 0.86115 0.0
C456 C 0.17831 0.38244 0.87846 0.0
C457 C 0.15422 0.39789 0.89119 0.0
H458 H 0.19576 0.37112 0.84575 0.0
C459 C 0.12951 0.41537 0.88026 0.0
H460 H 0.19763 0.3688 0.88647 0.0
C461 C 0.1287 0.41712 0.85701 0.0
C462 C 0.15231 0.40099 0.84426 0.0
H463 H 0.11069 0.42765 0.88967 0.0
H464 H 0.10917 0.43048 0.84902 0.0
C465 C 0.17722 0.38376 0.85519 0.0
C466 C 0.90182 0.87272 0.11078 0.0
C467 C 0.87836 0.89059 0.09891 0.0
H468 H 0.92142 0.86015 0.14272 0.0
C469 C 0.85646 0.9104 0.11064 0.0
H470 H 0.919 0.85726 0.10213 0.0
C471 C 0.85834 0.91262 0.13387 0.0
C472 C 0.88167 0.89452 0.14572 0.0
H473 H 0.83829 0.92457 0.10184 0.0
H474 H 0.84128 0.92815 0.14258 0.0
C475 C 0.90323 0.87439 0.13398 0.0
C476 C 0.35363 0.64961 0.38085 0.0
C477 C 0.37257 0.6284 0.39384 0.0
H478 H 0.34043 0.66509 0.34795 0.0
C479 C 0.39201 0.60499 0.38318 0.0
H480 H 0.33848 0.66791 0.38863 0.0
C481 C 0.39282 0.60309 0.35994 0.0
C482 C 0.3746 0.6249 0.34693 0.0
H483 H 0.40679 0.58825 0.3928 0.0
H484 H 0.40829 0.58504 0.35216 0.0
C485 C 0.35482 0.64803 0.35759 0.0
C486 C 0.66191 0.11158 0.63554 0.0
C487 C 0.63985 0.13082 0.64758 0.0
H488 H 0.68179 0.10021 0.60339 0.0
C489 C 0.62033 0.1534 0.63618 0.0
H490 H 0.67741 0.0942 0.64403 0.0
C491 C 0.62253 0.15652 0.61312 0.0
C492 C 0.6448 0.13765 0.60105 0.0
H493 H 0.60316 0.16857 0.64509 0.0
H494 H 0.6069 0.17392 0.60475 0.0
C495 C 0.66463 0.11524 0.61241 0.0
C496 C 0.86505 0.41947 0.8623 0.0
C497 C 0.89312 0.40909 0.85103 0.0
H498 H 0.84081 0.4238 0.89383 0.0
C499 C 0.91942 0.39676 0.86334 0.0
H500 H 0.84433 0.4288 0.85314 0.0
C501 C 0.91754 0.39419 0.88645 0.0
C502 C 0.88908 0.40335 0.89772 0.0
H503 H 0.94132 0.38857 0.85504 0.0
H504 H 0.93814 0.38421 0.89544 0.0
C505 C 0.86294 0.41634 0.8855 0.0
C506 C 0.39671 0.10575 0.63394 0.0
C507 C 0.37509 0.12424 0.64686 0.0
H508 H 0.41318 0.09357 0.60115 0.0
C509 C 0.35193 0.14393 0.63607 0.0
H510 H 0.41486 0.09043 0.6418 0.0
C511 C 0.3507 0.14543 0.6128 0.0
C512 C 0.37293 0.12766 0.5999 0.0
H513 H 0.33491 0.15841 0.64562 0.0
H514 H 0.33285 0.1611 0.60493 0.0
C515 C 0.3958 0.10763 0.61068 0.0
C516 C 0.66813 0.6508 0.38418 0.0
C517 C 0.65081 0.62834 0.39711 0.0
H518 H 0.67941 0.66778 0.35139 0.0
C519 C 0.63237 0.60425 0.38638 0.0
H520 H 0.68246 0.66967 0.39201 0.0
C521 C 0.63088 0.60295 0.36312 0.0
C522 C 0.64742 0.62601 0.35021 0.0
H523 H 0.61882 0.58658 0.39596 0.0
H524 H 0.6162 0.58436 0.35528 0.0
C525 C 0.66626 0.64978 0.36095 0.0
C526 C 0.12679 0.91824 0.13042 0.0
C527 C 0.14672 0.89749 0.14307 0.0
H528 H 0.11185 0.93327 0.09779 0.0
C529 C 0.16835 0.87648 0.13206 0.0
H530 H 0.10986 0.93462 0.13848 0.0
C531 C 0.16982 0.87601 0.1088 0.0
C532 C 0.14929 0.89615 0.09615 0.0
H533 H 0.18407 0.86029 0.14143 0.0
H534 H 0.18651 0.85938 0.10073 0.0
C535 C 0.12788 0.91738 0.10716 0.0
C536 C 0.85869 0.61527 0.10999 0.0
C537 C 0.87986 0.63634 0.09877 0.0
H538 H 0.84387 0.59568 0.14149 0.0
C539 C 0.90234 0.65463 0.1111 0.0
H540 H 0.84129 0.60075 0.10083 0.0
C541 C 0.90354 0.65205 0.13427 0.0
C542 C 0.88275 0.63064 0.1455 0.0
H543 H 0.91896 0.67105 0.10284 0.0
H544 H 0.921 0.66659 0.14338 0.0
C545 C 0.86034 0.6122 0.13318 0.0
C546 C 0.11228 0.13303 0.8606 0.0
C547 C 0.13762 0.11911 0.84822 0.0
H548 H 0.09508 0.14727 0.89271 0.0
C549 C 0.16558 0.10793 0.85932 0.0
H550 H 0.09049 0.1419 0.85242 0.0
C551 C 0.16855 0.11166 0.88243 0.0
C552 C 0.14332 0.12607 0.89473 0.0
H553 H 0.18558 0.09738 0.85008 0.0
H554 H 0.19053 0.10339 0.89064 0.0
C555 C 0.11498 0.13621 0.88364 0.0
C556 C 0.67427 0.38228 0.61528 0.0
C557 C 0.65105 0.39975 0.60293 0.0
H558 H 0.69148 0.36868 0.64773 0.0
C559 C 0.62766 0.41833 0.61429 0.0
H560 H 0.69253 0.36772 0.60695 0.0
C561 C 0.62738 0.41932 0.63756 0.0
C562 C 0.65012 0.40127 0.64993 0.0
H563 H 0.60954 0.43215 0.60518 0.0
H564 H 0.60893 0.43368 0.64587 0.0
C565 C 0.67362 0.38279 0.63859 0.0
C566 C 0.35829 0.9185 0.35956 0.0
C567 C 0.37182 0.89209 0.34796 0.0
H568 H 0.34454 0.93787 0.39139 0.0
C569 C 0.38063 0.86395 0.35979 0.0
H570 H 0.35103 0.94036 0.35079 0.0
C571 C 0.3771 0.86261 0.38286 0.0
C572 C 0.36421 0.88918 0.39456 0.0
H573 H 0.39097 0.84316 0.35127 0.0
H574 H 0.38503 0.84094 0.3916 0.0
C575 C 0.35426 0.91694 0.38271 0.0
C576 C 0.03281 0.61866 0.00591 0.0
C577 C 0.05075 0.64251 0.01726 0.0
H578 H 0.98548 0.60028 -0.00217 0.0
C579 C 0.03414 0.66788 0.028 0.0
H580 H 0.04502 0.59887 -0.00256 0.0
C581 C 1.00027 0.6687 0.02819 0.0
C582 C 0.98226 0.64418 0.01765 0.0
H583 H 0.04728 0.68672 0.03678 0.0
H584 H 0.98822 0.68812 0.03716 0.0
C585 C 0.99879 0.61949 0.0061 0.0
C586 C 0.65489 0.7453 0.25969 0.0
C587 C 0.6318 0.72787 0.27206 0.0
H588 H 0.67355 0.7922 0.25087 0.0
C589 C 0.60798 0.74503 0.28399 0.0
H590 H 0.67351 0.73268 0.25031 0.0
C591 C 0.60803 0.77891 0.28434 0.0
C592 C 0.63187 0.79639 0.27273 0.0
H593 H 0.58976 0.73229 0.29361 0.0
H594 H 0.58985 0.79138 0.2942 0.0
C595 C 0.65491 0.77932 0.26 0.0
C596 C 0.49844 0.41464 0.50918 0.0
C597 C 0.48108 0.38832 0.51808 0.0
H598 H 0.54525 0.43621 0.50399 0.0
C599 C 0.49834 0.36199 0.52724 0.0
H600 H 0.48575 0.43526 0.50202 0.0
C601 C 0.53217 0.36264 0.52851 0.0
C602 C 0.54951 0.38953 0.52053 0.0
H603 H 0.48567 0.34129 0.53418 0.0
H604 H 0.54467 0.34238 0.5363 0.0
C605 C 0.53244 0.4152 0.51033 0.0
C606 C 0.87325 0.28056 0.7598 0.0
C607 C 0.89271 0.29695 0.7754 0.0
H608 H 0.8568 0.2344 0.74762 0.0
C609 C 0.91194 0.2788 0.79026 0.0
H610 H 0.85817 0.29399 0.74816 0.0
C611 C 0.91133 0.24496 0.78986 0.0
C612 C 0.89128 0.22847 0.7747 0.0
H613 H 0.92729 0.29075 0.80242 0.0
H614 H 0.92614 0.23173 0.80176 0.0
C615 C 0.87244 0.24653 0.75951 0.0
C616 C 1.00359 0.4112 0.98458 0.0
C617 C 0.98589 0.385 0.9758 0.0
H618 H 0.0506 0.43232 0.9897 0.0
C619 C 1.00278 0.35851 0.96662 0.0
H620 H 0.99119 0.43193 0.99177 0.0
C621 C 0.03661 0.35884 0.9653 0.0
C622 C 0.05429 0.38556 0.97326 0.0
H623 H 0.98981 0.33793 0.95976 0.0
H624 H 0.04887 0.33846 0.95753 0.0
C625 C 0.03755 0.41143 0.98338 0.0
C626 C 0.84926 0.77813 0.21794 0.0
C627 C 0.87706 0.79533 0.22463 0.0
H628 H 0.8278 0.73151 0.21223 0.0
C629 C 0.90435 0.77799 0.23225 0.0
H630 H 0.82785 0.79088 0.21202 0.0
C631 C 0.90431 0.74405 0.2324 0.0
C632 C 0.87698 0.72683 0.2249 0.0
H633 H 0.92609 0.79061 0.23758 0.0
H634 H 0.92603 0.73133 0.2378 0.0
C635 C 0.84923 0.74416 0.21807 0.0
C636 C 0.4943 0.61962 0.48295 0.0
C637 C 0.4773 0.64209 0.46965 0.0
H638 H 0.54085 0.60167 0.49347 0.0
C639 C 0.49483 0.66495 0.45718 0.0
H640 H 0.48138 0.60173 0.49275 0.0
C641 C 0.52872 0.66492 0.4576 0.0
C642 C 0.54579 0.64203 0.4705 0.0
H643 H 0.48239 0.68259 0.4468 0.0
H644 H 0.54154 0.68256 0.44753 0.0
C645 C 0.5283 0.61958 0.48337 0.0
C646 C 0.60901 0.24713 0.71809 0.0
C647 C 0.63416 0.22905 0.72805 0.0
H648 H 0.59085 0.29415 0.70935 0.0
C649 C 0.65998 0.24554 0.73834 0.0
H650 H 0.58874 0.23511 0.71006 0.0
C651 C 0.66118 0.27953 0.73793 0.0
C652 C 0.63661 0.29748 0.72717 0.0
H653 H 0.6797 0.2322 0.74612 0.0
H654 H 0.68174 0.29169 0.7455 0.0
C655 C 0.61025 0.28096 0.71763 0.0
C656 C 0.41689 0.27769 0.70956 0.0
C657 C 0.3951 0.29578 0.72263 0.0
H658 H 0.43258 0.23067 0.69894 0.0
C659 C 0.37281 0.2793 0.73623 0.0
H660 H 0.43444 0.28971 0.69896 0.0
C661 C 0.37165 0.24529 0.73613 0.0
C662 C 0.39286 0.22731 0.72252 0.0
H663 H 0.35573 0.29266 0.74645 0.0
H664 H 0.35375 0.23313 0.74636 0.0
C665 C 0.41583 0.24384 0.70954 0.0
C666 C 0.10858 0.74238 0.20745 0.0
C667 C 0.13239 0.72493 0.21929 0.0
H668 H 0.09021 0.78902 0.19791 0.0
C669 C 0.15544 0.74205 0.23194 0.0
H670 H 0.09044 0.72985 0.19759 0.0
C671 C 0.1553 0.77606 0.23213 0.0
C672 C 0.13212 0.79346 0.21966 0.0
H673 H 0.17405 0.72922 0.24125 0.0
H674 H 0.17382 0.78869 0.24157 0.0
C675 C 0.10845 0.77628 0.20763 0.0
C676 C 0.15407 0.24429 0.7556 0.0
C677 C 0.13468 0.22796 0.77123 0.0
H678 H 0.17056 0.29042 0.74339 0.0
C679 C 0.1155 0.24616 0.78602 0.0
H680 H 0.1691 0.23082 0.74403 0.0
C681 C 0.11621 0.27998 0.7856 0.0
C682 C 0.13625 0.29642 0.77047 0.0
H683 H 0.1002 0.23426 0.79821 0.0
H684 H 0.10148 0.29324 0.79749 0.0
C685 C 0.15494 0.27832 0.75528 0.0
C686 C 0.41476 0.7422 0.27766 0.0
C687 C 0.3891 0.72513 0.26767 0.0
H688 H 0.43475 0.78849 0.28593 0.0
C689 C 0.36443 0.74257 0.25664 0.0
H690 H 0.43423 0.72943 0.28615 0.0
C691 C 0.36471 0.7766 0.25653 0.0
C692 C 0.3897 0.79362 0.2674 0.0
H693 H 0.34439 0.72999 0.24876 0.0
H694 H 0.34486 0.78954 0.24859 0.0
C695 C 0.41507 0.77607 0.2775 0.0
C696 C 0.49234 0.17128 0.53174 0.0
C697 C 0.47554 0.14537 0.52187 0.0
H698 H 0.53843 0.19215 0.53956 0.0
C699 C 0.49322 0.12109 0.51069 0.0
H700 H 0.47938 0.19045 0.54035 0.0
C701 C 0.52723 0.12208 0.5102 0.0
C702 C 0.54401 0.14737 0.52087 0.0
H703 H 0.48086 0.10089 0.50286 0.0
H704 H 0.54036 0.10255 0.5021 0.0
C705 C 0.5262 0.17227 0.53124 0.0
C706 C 0.9969 0.85786 0.02719 0.0
C707 C 0.9792 0.88366 0.01774 0.0
H708 H 0.04368 0.83833 0.03513 0.0
C709 C 0.99605 0.90915 0.00736 0.0
H710 H 0.9846 0.8378 0.03524 0.0
C711 C 0.03008 0.90942 0.00727 0.0
C712 C 0.0477 0.88425 0.0176 0.0
H713 H 0.983 0.92933 -6e-05 0.0
H714 H 0.04254 0.9298 -0.00025 0.0
C715 C 0.03077 0.85817 0.02715 0.0
C716 C 0.49203 0.90596 0.48831 0.0
C717 C 0.47553 0.8959 0.469 0.0
H718 H 0.53841 0.9139 0.5039 0.0
C719 C 0.49357 0.88566 0.45043 0.0
H720 H 0.47867 0.91398 0.50284 0.0
C721 C 0.52735 0.8853 0.45111 0.0
C722 C 0.54398 0.89548 0.47029 0.0
H723 H 0.48158 0.87776 0.43529 0.0
H724 H 0.54044 0.8773 0.43645 0.0
C725 C 0.5261 0.90594 0.4889 0.0
C726 C 0.03106 0.16799 0.966 0.0
C727 C 0.04862 0.14192 0.97525 0.0
H728 H 0.98438 0.18753 0.9577 0.0
C729 C 0.03158 0.11591 0.98484 0.0
H730 H 0.0435 0.18842 0.95852 0.0
C731 C 0.99757 0.11543 0.98438 0.0
C732 C 0.98012 0.14089 0.97425 0.0
H733 H 0.0445 0.09549 0.99207 0.0
H734 H 0.98501 0.09468 0.99133 0.0
C735 C 0.99718 0.16745 0.96548 0.0
C736 C 0.18532 0.50826 0.96879 0.0
C737 C 0.1865 0.48187 0.98374 0.0
H738 H 0.18216 0.55996 0.96475 0.0
C739 C 0.18982 0.48833 0.00661 0.0
H740 H 0.18284 0.50418 0.95104 0.0
C741 C 0.1897 0.52043 0.01444 0.0
C742 C 0.18601 0.54673 -0.00041 0.0
H743 H 0.1908 0.4686 0.01855 0.0
H744 H 0.19059 0.52452 0.03226 0.0
C745 C 0.18495 0.54031 0.97663 0.0
C746 C 0.76886 0.93362 0.22915 0.0
C747 C 0.79538 0.92767 0.2435 0.0
H748 H 0.71693 0.93599 0.22559 0.0
C749 C 0.78936 0.92348 0.26632 0.0
H750 H 0.77266 0.93692 0.21144 0.0
C751 C 0.75748 0.92313 0.2744 0.0
C752 C 0.73082 0.92675 0.25983 0.0
H753 H 0.80918 0.91888 0.27782 0.0
H754 H 0.75372 0.91836 0.29196 0.0
C755 C 0.73688 0.93307 0.23723 0.0
C756 C 0.34384 0.49054 0.48326 0.0
C757 C 0.34941 0.48439 0.50598 0.0
H758 H 0.33925 0.5265 0.45757 0.0
C759 C 0.3508 0.51092 0.52076 0.0
H760 H 0.34257 0.47068 0.47146 0.0
C761 C 0.349 0.54288 0.51284 0.0
C762 C 0.34559 0.5491 0.48994 0.0
H763 H 0.35489 0.50707 0.5384 0.0
H764 H 0.35193 0.5627 0.52453 0.0
C765 C 0.34187 0.52257 0.47533 0.0
C766 C 0.78846 0.10239 0.73016 0.0
C767 C 0.79552 0.09699 0.75275 0.0
H768 H 0.75169 0.10944 0.70536 0.0
C769 C 0.76963 0.09086 0.76749 0.0
H770 H 0.80778 0.10719 0.71838 0.0
C771 C 0.73731 0.09232 0.76005 0.0
C772 C 0.73026 0.09989 0.73772 0.0
H773 H 0.77424 0.08665 0.78503 0.0
H774 H 0.71788 0.08911 0.77199 0.0
C775 C 0.75623 0.10379 0.72273 0.0
C776 C 0.86329 0.51891 0.02376 0.0
C777 C 0.85739 0.5449 0.009 0.0
H778 H 0.86889 0.46745 0.0278 0.0
C779 C 0.8489 0.53787 0.98685 0.0
H780 H 0.86971 0.52348 0.04099 0.0
C781 C 0.84841 0.50562 0.9793 0.0
C782 C 0.8563 0.47978 0.99376 0.0
H783 H 0.84418 0.55731 0.9751 0.0
H784 H 0.84333 0.50108 0.96186 0.0
C785 C 0.86272 0.48673 0.01624 0.0
C786 C 0.25723 0.10783 0.77347 0.0
C787 C 0.23117 0.10079 0.75905 0.0
H788 H 0.30869 0.11292 0.77731 0.0
C789 C 0.23808 0.08967 0.73744 0.0
H790 H 0.25276 0.11618 0.79031 0.0
C791 C 0.27034 0.08787 0.72995 0.0
C792 C 0.29627 0.09691 0.74399 0.0
H793 H 0.21855 0.08401 0.72597 0.0
H794 H 0.27484 0.08095 0.71282 0.0
C795 C 0.28937 0.1058 0.76606 0.0
C796 C 0.67879 0.51328 0.52521 0.0
C797 C 0.68161 0.48668 0.51058 0.0
H798 H 0.67463 0.56498 0.52865 0.0
C799 C 0.68691 0.49283 0.48785 0.0
H800 H 0.67479 0.50945 0.54285 0.0
C801 C 0.68712 0.52482 0.47974 0.0
C802 C 0.68178 0.55128 0.49417 0.0
H803 H 0.6892 0.47293 0.47615 0.0
H804 H 0.68953 0.52866 0.46196 0.0
C805 C 0.67873 0.54519 0.51709 0.0
C806 C 0.23382 0.92347 0.26144 0.0
C807 C 0.22769 0.9254 0.23846 0.0
H808 H 0.26957 0.9196 0.28725 0.0
C809 C 0.25425 0.92862 0.22384 0.0
H810 H 0.21397 0.92099 0.27314 0.0
C811 C 0.28627 0.92766 0.23191 0.0
C812 C 0.29236 0.92353 0.25477 0.0
H813 H 0.25038 0.93015 0.20601 0.0
H814 H 0.30618 0.9285 0.22015 0.0
C815 C 0.26576 0.92259 0.2695 0.0
C816 C 0.68129 0.04284 0.48869 0.0
C817 C 0.67252 0.04966 0.5108 0.0
H818 H 0.6882 1.00614 0.46376 0.0
C819 C 0.66777 0.02354 0.5256 0.0
H820 H 0.68519 0.06239 0.47691 0.0
C821 C 0.66953 0.99139 0.51813 0.0
C822 C 0.67613 0.98455 0.49567 0.0
H823 H 0.66123 0.02791 0.54281 0.0
H824 H 0.66406 0.97197 0.52971 0.0
C825 C 0.68309 1.01058 0.48119 0.0
C826 C 0.25738 0.43618 0.76175 0.0
C827 C 0.23182 0.42674 0.74752 0.0
H828 H 0.30905 0.4402 0.76629 0.0
C829 C 0.23928 0.41726 0.72565 0.0
H830 H 0.25245 0.44354 0.77874 0.0
C831 C 0.27159 0.41511 0.71864 0.0
C832 C 0.29728 0.42256 0.73327 0.0
H833 H 0.22024 0.40981 0.71427 0.0
H834 H 0.27648 0.40637 0.70195 0.0
C835 C 0.28982 0.4342 0.75466 0.0
C836 C 0.85431 1.00795 0.02239 0.0
C837 C 0.85084 0.98154 0.00768 0.0
H838 H 0.85749 0.05965 0.0261 0.0
C839 C 0.84389 0.98792 0.98517 0.0
H840 H 0.85948 1.00389 0.03988 0.0
C841 C 0.8427 0.02 0.97729 0.0
C842 C 0.84834 0.04634 0.99175 0.0
H843 H 0.84102 0.96815 0.97344 0.0
H844 H 0.839 0.02406 0.95962 0.0
C845 C 0.85304 0.03998 0.01452 0.0
C846 C 0.28734 0.59025 0.22939 0.0
C847 C 0.29351 0.59146 0.2524 0.0
H848 H 0.25145 0.59073 0.20347 0.0
C849 C 0.26694 0.59032 0.26716 0.0
H850 H 0.30719 0.59108 0.21759 0.0
C851 C 0.23494 0.59041 0.25909 0.0
C852 C 0.22876 0.59135 0.23608 0.0
H853 H 0.2708 0.59119 0.28501 0.0
H854 H 0.21509 0.59135 0.2709 0.0
C855 C 0.25533 0.59005 0.22133 0.0
C856 C 0.33675 0.02382 0.51637 0.0
C857 C 0.34363 0.05049 0.50242 0.0
H858 H 0.3341 0.97185 0.51947 0.0
C859 C 0.34959 0.04467 0.47974 0.0
H860 H 0.33209 0.02747 0.53395 0.0
C861 C 0.35098 1.01287 0.47154 0.0
C862 C 0.34621 0.9861 0.48576 0.0
H863 H 0.35498 0.06458 0.46854 0.0
H864 H 0.35718 1.00923 0.45418 0.0
C865 C 0.33791 0.99193 0.5081 0.0
C866 C 0.75639 0.59672 0.27251 0.0
C867 C 0.73001 0.59522 0.25753 0.0
H868 H 0.80812 0.59953 0.27659 0.0
C869 C 0.73652 0.59112 0.23475 0.0
H870 H 0.75228 0.59984 0.2902 0.0
C871 C 0.76864 0.59054 0.22699 0.0
C872 C 0.79495 0.59443 0.24183 0.0
H873 H 0.7168 0.58987 0.22279 0.0
H874 H 0.77277 0.5889 0.20921 0.0
C875 C 0.78847 0.59652 0.26474 0.0
C876 C 0.18229 1.00645 0.0178 0.0
C877 C 0.18046 0.98034 0.00266 0.0
H878 H 0.18125 0.05819 0.02232 0.0
C879 C 0.18028 0.98718 0.97974 0.0
H880 H 0.18246 1.00202 0.03559 0.0
C881 C 0.17975 0.01937 0.97217 0.0
C882 C 0.1792 0.04548 0.98734 0.0
H883 H 0.17889 0.96769 0.96766 0.0
H884 H 0.17809 0.02374 0.9544 0.0
C885 C 0.18157 0.03868 0.01022 0.0
C886 C 0.77102 0.41766 0.77662 0.0
C887 C 0.79701 0.42462 0.7622 0.0
H888 H 0.71957 0.4126 0.78043 0.0
C889 C 0.79002 0.43566 0.74055 0.0
H890 H 0.77558 0.40937 0.79348 0.0
C891 C 0.75774 0.43741 0.73301 0.0
C892 C 0.73187 0.42844 0.74706 0.0
H893 H 0.8095 0.44125 0.72907 0.0
H894 H 0.75317 0.44423 0.71585 0.0
C895 C 0.73885 0.41968 0.76918 0.0
C896 C 0.163 0.78022 0.99243 0.0
C897 C 0.18042 0.79766 0.00865 0.0
H898 H 0.14822 0.73353 0.98039 0.0
C899 C 0.20061 0.78031 0.02344 0.0
H900 H 0.14727 0.79278 0.98074 0.0
C901 C 0.20114 0.74621 0.02325 0.0
C902 C 0.18151 0.72874 0.00826 0.0
H903 H 0.21435 0.79297 0.03615 0.0
H904 H 0.21527 0.73357 0.03582 0.0
C905 C 0.16355 0.74617 0.99223 0.0
C906 C 0.52776 0.94617 0.2818 0.0
C907 C 0.54571 0.9285 0.26594 0.0
H908 H 0.48061 0.9582 0.29461 0.0
C909 C 0.5288 0.91312 0.24852 0.0
H910 H 0.53996 0.95831 0.29545 0.0
C911 C 0.49472 0.91316 0.248 0.0
C912 C 0.47672 0.92848 0.26493 0.0
H913 H 0.54183 0.89934 0.23601 0.0
H914 H 0.48251 0.89936 0.23511 0.0
C915 C 0.49366 0.94612 0.28132 0.0
C916 C 0.35933 0.24938 0.49716 0.0
C917 C 0.3438 0.23226 0.51439 0.0
H918 H 0.37351 0.29578 0.48424 0.0
C919 C 0.32623 0.25003 0.53039 0.0
H920 H 0.37302 0.23648 0.48453 0.0
C921 C 0.32661 0.28413 0.53028 0.0
C922 C 0.34444 0.30122 0.5141 0.0
H923 H 0.31399 0.23765 0.5439 0.0
H924 H 0.31466 0.29702 0.5437 0.0
C925 C 0.35958 0.28345 0.49698 0.0
C926 C 0.99436 0.07445 0.77374 0.0
C927 C 0.97705 0.09576 0.7597 0.0
H928 H 0.04113 0.0589 0.78559 0.0
C929 C 0.99444 0.11395 0.7439 0.0
H930 H 0.98172 0.06008 0.7861 0.0
C931 C 0.02846 0.11317 0.74353 0.0
C932 C 0.04591 0.09428 0.75903 0.0
H933 H 0.98187 0.13048 0.73275 0.0
H934 H 0.04107 0.1292 0.73215 0.0
C935 C 0.02847 0.07375 0.77343 0.0
C936 C 0.1705 0.24696 0.99526 0.0
C937 C 0.18529 0.22898 0.97809 0.0
H938 H 0.15739 0.2941 0.00757 0.0
C939 C 0.20288 0.24585 0.96169 0.0
H940 H 0.15676 0.23479 0.00816 0.0
C941 C 0.20334 0.27994 0.9614 0.0
C942 C 0.1861 0.29792 0.97745 0.0
H943 H 0.21458 0.23279 0.94823 0.0
H944 H 0.21537 0.29213 0.94772 0.0
C945 C 0.17085 0.28104 0.99491 0.0
C946 C 0.99379 0.91274 0.24676 0.0
C947 C 0.97638 0.92908 0.22992 0.0
H948 H 0.04038 0.89713 0.25881 0.0
C949 C 0.99392 0.94675 0.21389 0.0
H950 H 0.9811 0.89888 0.25937 0.0
C951 C 0.02802 0.94591 0.21366 0.0
C952 C 0.04531 0.92717 0.22935 0.0
H953 H 0.98131 0.95959 0.20068 0.0
H954 H 0.04069 0.95814 0.20028 0.0
C955 C 0.02784 0.91169 0.24643 0.0
C956 C 0.32493 0.7489 0.46803 0.0
C957 C 0.34666 0.73142 0.48169 0.0
H958 H 0.3089 0.7958 0.45672 0.0
C959 C 0.36566 0.74873 0.49713 0.0
H960 H 0.30996 0.73634 0.45594 0.0
C961 C 0.36505 0.78275 0.49758 0.0
C962 C 0.34539 0.80036 0.48262 0.0
H963 H 0.38257 0.73608 0.50797 0.0
H964 H 0.38155 0.79527 0.50871 0.0
C965 C 0.32429 0.78303 0.4685 0.0
C966 C 0.49465 0.07436 0.71897 0.0
C967 C 0.47736 0.09369 0.73423 0.0
H968 H 0.54136 0.06078 0.7061 0.0
C969 C 0.49482 0.11008 0.75094 0.0
H970 H 0.48197 0.06142 0.70588 0.0
C971 C 0.52886 0.10955 0.75116 0.0
C972 C 0.54625 0.09279 0.73457 0.0
H973 H 0.48226 0.12507 0.76301 0.0
H974 H 0.54151 0.12423 0.76336 0.0
C975 C 0.52876 0.07398 0.7191 0.0
C976 C 0.86423 0.28001 -0.00151 0.0
C977 C 0.84929 0.29777 0.98122 0.0
H978 H 0.87742 0.23302 0.01112 0.0
C979 C 0.83155 0.28071 0.96496 0.0
H980 H 0.87808 0.29234 0.0113 0.0
C981 C 0.83103 0.24663 0.96493 0.0
C982 C 0.84841 0.22884 0.98109 0.0
H983 H 0.81972 0.29362 0.95144 0.0
H984 H 0.81884 0.23427 0.95137 0.0
C985 C 0.86387 0.24594 -0.00161 0.0
C986 C 0.65221 0.78344 0.49992 0.0
C987 C 0.67227 0.80148 0.4856 0.0
H988 H 0.63567 0.73643 0.50998 0.0
C989 C 0.69472 0.78467 0.47217 0.0
H990 H 0.63472 0.7956 0.51052 0.0
C991 C 0.69515 0.75052 0.47176 0.0
C992 C 0.67327 0.73255 0.48486 0.0
H993 H 0.71043 0.79782 0.46089 0.0
H994 H 0.71123 0.73829 0.4602 0.0
C995 C 0.65278 0.74944 0.49961 0.0
C996 C 0.85915 0.74683 0.99397 0.0
C997 C 0.84379 0.72918 0.01102 0.0
H998 H 0.87269 0.79372 0.98157 0.0
C999 C 0.82513 0.74629 0.02677 0.0
H1000 H 0.87363 0.73445 0.98152 0.0
C1001 C 0.82461 0.78036 0.02681 0.0
C1002 C 0.84272 0.79804 0.01109 0.0
H1003 H 0.81292 0.73347 0.0401 0.0
H1004 H 0.81203 0.79278 0.04017 0.0
C1005 C 0.8586 0.78089 0.994 0.0
C1006 C 0.70002 0.2851 0.53086 0.0
C1007 C 0.68137 0.30299 0.51544 0.0
H1008 H 0.71255 0.238 0.54364 0.0
C1009 C 0.66493 0.28604 0.49849 0.0
H1010 H 0.713 0.29735 0.54412 0.0
C1011 C 0.66476 0.25198 0.49817 0.0
C1012 C 0.68093 0.23407 0.51484 0.0
H1013 H 0.65041 0.29904 0.48631 0.0
H1014 H 0.65005 0.23976 0.48578 0.0
C1015 C 0.69977 0.25101 0.53057 0.0
C1016 C 0.9976 0.41089 0.74322 0.0
C1017 C 0.98126 0.43003 0.75907 0.0
H1018 H 0.04339 0.39366 0.73104 0.0
C1019 C 0.99966 0.45104 0.77259 0.0
H1020 H 0.98422 0.39452 0.73248 0.0
C1021 C 0.03375 0.45059 0.77172 0.0
C1022 C 0.05009 0.42907 0.75735 0.0
H1023 H 0.98786 0.4661 0.78498 0.0
H1024 H 0.04725 0.46532 0.78346 0.0
C1025 C 0.0316 0.41038 0.74239 0.0
C1026 C 0.49477 0.61164 0.24595 0.0
C1027 C 0.4771 0.59435 0.2621 0.0
H1028 H 0.54155 0.62731 0.23464 0.0
C1029 C 0.49439 0.57542 0.27768 0.0
H1030 H 0.48228 0.62644 0.23368 0.0
C1031 C 0.52851 0.57593 0.27824 0.0
C1032 C 0.54608 0.59538 0.26323 0.0
H1033 H 0.48159 0.56183 0.29038 0.0
H1034 H 0.54098 0.5627 0.29134 0.0
C1035 C 0.52883 0.61214 0.24651 0.0
C1036 C 0.49876 0.41241 0.75224 0.0
C1037 C 0.48196 0.43066 0.73605 0.0
H1038 H 0.54494 0.39601 0.76445 0.0
C1039 C 0.49993 0.4511 0.72191 0.0
H1040 H 0.48571 0.39647 0.76344 0.0
C1041 C 0.53403 0.4509 0.72253 0.0
C1042 C 0.55082 0.43017 0.73726 0.0
H1043 H 0.48778 0.4655 0.70926 0.0
H1044 H 0.54716 0.46515 0.71034 0.0
C1045 C 0.53279 0.41212 0.75281 0.0
C1046 C 0.99463 0.60738 0.24555 0.0
C1047 C 0.97677 0.59187 0.22862 0.0
H1048 H 0.0416 0.62168 0.25751 0.0
C1049 C 0.99387 0.57441 0.21222 0.0
H1050 H 0.98231 0.62107 0.25843 0.0
C1051 C 0.02797 0.57464 0.21176 0.0
C1052 C 0.04575 0.5925 0.2276 0.0
H1053 H 0.98091 0.5622 0.19893 0.0
H1054 H 0.04029 0.5626 0.19812 0.0
C1055 C 0.0287 0.60777 0.245 0.0
loop_
_geom_bond_atom_site_label_1
_geom_bond_atom_site_label_2
_geom_bond_distance
_geom_bond_site_symmetry_2
_ccdc_geom_bond_type
In0 O1 2.294 . S
In0 O2 2.326 . S
In0 O6 2.266 . S
In0 O7 2.326 . S
In0 O8 2.266 . S
In0 O9 2.326 . S
In0 O11 2.294 . S
In0 O12 2.326 . S
O1 In0 2.294 . S
O1 C10 1.240 . S
O2 In0 2.326 . S
O2 C10 1.252 . S
C3 O6 1.252 . S
C3 O7 1.260 . S
C4 O11 1.240 . S
C4 O12 1.252 . S
C5 O8 1.252 . S
C5 O9 1.260 . S
O6 In0 2.266 . S
O6 C3 1.252 . S
O7 In0 2.326 . S
O7 C3 1.260 . S
O8 In0 2.266 . S
O8 C5 1.252 . S
O9 In0 2.326 . S
O9 C5 1.260 . S
C10 O1 1.240 . S
C10 O2 1.252 . S
O11 In0 2.294 . S
O11 C4 1.240 . S
O12 In0 2.326 . S
O12 C4 1.252 . S
In13 O14 2.294 . S
In13 O15 2.326 . S
In13 O19 2.266 . S
In13 O20 2.326 . S
In13 O21 2.266 . S
In13 O22 2.326 . S
In13 O24 2.294 . S
In13 O25 2.326 . S
O14 In13 2.294 . S
O14 C23 1.240 . S
O15 In13 2.326 . S
O15 C23 1.252 . S
C16 O19 1.252 . S
C16 O20 1.260 . S
C17 O24 1.240 . S
C17 O25 1.252 . S
C18 O21 1.252 . S
C18 O22 1.260 . S
O19 In13 2.266 . S
O19 C16 1.252 . S
O20 In13 2.326 . S
O20 C16 1.260 . S
O21 In13 2.266 . S
O21 C18 1.252 . S
O22 In13 2.326 . S
O22 C18 1.260 . S
C23 O14 1.240 . S
C23 O15 1.252 . S
O24 In13 2.294 . S
O24 C17 1.240 . S
O25 In13 2.326 . S
O25 C17 1.252 . S
In26 O27 2.294 . S
In26 O28 2.326 . S
In26 O32 2.266 . S
In26 O33 2.326 . S
In26 O34 2.266 . S
In26 O35 2.326 . S
In26 O37 2.294 . S
In26 O38 2.326 . S
O27 In26 2.294 . S
O27 C36 1.240 . S
O28 In26 2.326 . S
O28 C36 1.252 . S
C29 O32 1.252 . S
C29 O33 1.260 . S
C30 O37 1.240 . S
C30 O38 1.252 . S
C31 O34 1.252 . S
C31 O35 1.260 . S
O32 In26 2.266 . S
O32 C29 1.252 . S
O33 In26 2.326 . S
O33 C29 1.260 . S
O34 In26 2.266 . S
O34 C31 1.252 . S
O35 In26 2.326 . S
O35 C31 1.260 . S
C36 O27 1.240 . S
C36 O28 1.252 . S
O37 In26 2.294 . S
O37 C30 1.240 . S
O38 In26 2.326 . S
O38 C30 1.252 . S
In39 O40 2.294 . S
In39 O41 2.326 . S
In39 O45 2.266 . S
In39 O46 2.326 . S
In39 O47 2.266 . S
In39 O48 2.326 . S
In39 O50 2.294 . S
In39 O51 2.326 . S
O40 In39 2.294 . S
O40 C49 1.240 . S
O41 In39 2.326 . S
O41 C49 1.252 . S
C42 O45 1.252 . S
C42 O46 1.260 . S
C43 O50 1.240 . S
C43 O51 1.252 . S
C44 O47 1.252 . S
C44 O48 1.260 . S
O45 In39 2.266 . S
O45 C42 1.252 . S
O46 In39 2.326 . S
O46 C42 1.260 . S
O47 In39 2.266 . S
O47 C44 1.252 . S
O48 In39 2.326 . S
O48 C44 1.260 . S
C49 O40 1.240 . S
C49 O41 1.252 . S
O50 In39 2.294 . S
O50 C43 1.240 . S
O51 In39 2.326 . S
O51 C43 1.252 . S
In52 O53 2.294 . S
In52 O54 2.326 . S
In52 O58 2.266 . S
In52 O59 2.326 . S
In52 O60 2.266 . S
In52 O61 2.326 . S
In52 O63 2.294 . S
In52 O64 2.326 . S
O53 In52 2.294 . S
O53 C62 1.240 . S
O54 In52 2.326 . S
O54 C62 1.252 . S
C55 O58 1.252 . S
C55 O59 1.260 . S
C56 O63 1.240 . S
C56 O64 1.252 . S
C57 O60 1.252 . S
C57 O61 1.260 . S
O58 In52 2.266 . S
O58 C55 1.252 . S
O59 In52 2.326 . S
O59 C55 1.260 . S
O60 In52 2.266 . S
O60 C57 1.252 . S
O61 In52 2.326 . S
O61 C57 1.260 . S
C62 O53 1.240 . S
C62 O54 1.252 . S
O63 In52 2.294 . S
O63 C56 1.240 . S
O64 In52 2.326 . S
O64 C56 1.252 . S
In65 O66 2.294 . S
In65 O67 2.326 . S
In65 O71 2.266 . S
In65 O72 2.326 . S
In65 O73 2.266 . S
In65 O74 2.326 . S
In65 O76 2.294 . S
In65 O77 2.326 . S
O66 In65 2.294 . S
O66 C75 1.240 . S
O67 In65 2.326 . S
O67 C75 1.252 . S
C68 O71 1.252 . S
C68 O72 1.260 . S
C69 O76 1.240 . S
C69 O77 1.252 . S
C70 O73 1.252 . S
C70 O74 1.260 . S
O71 In65 2.266 . S
O71 C68 1.252 . S
O72 In65 2.326 . S
O72 C68 1.260 . S
O73 In65 2.266 . S
O73 C70 1.252 . S
O74 In65 2.326 . S
O74 C70 1.260 . S
C75 O66 1.240 . S
C75 O67 1.252 . S
O76 In65 2.294 . S
O76 C69 1.240 . S
O77 In65 2.326 . S
O77 C69 1.252 . S
In78 O79 2.294 . S
In78 O80 2.326 . S
In78 O84 2.266 . S
In78 O85 2.326 . S
In78 O86 2.266 . S
In78 O87 2.326 . S
In78 O89 2.294 . S
In78 O90 2.326 . S
O79 In78 2.294 . S
O79 C88 1.240 . S
O80 In78 2.326 . S
O80 C88 1.252 . S
C81 O84 1.252 . S
C81 O85 1.260 . S
C82 O89 1.240 . S
C82 O90 1.252 . S
C83 O86 1.252 . S
C83 O87 1.260 . S
O84 In78 2.266 . S
O84 C81 1.252 . S
O85 In78 2.326 . S
O85 C81 1.260 . S
O86 In78 2.266 . S
O86 C83 1.252 . S
O87 In78 2.326 . S
O87 C83 1.260 . S
C88 O79 1.240 . S
C88 O80 1.252 . S
O89 In78 2.294 . S
O89 C82 1.240 . S
O90 In78 2.326 . S
O90 C82 1.252 . S
In91 O92 2.294 . S
In91 O93 2.326 . S
In91 O97 2.266 . S
In91 O98 2.326 . S
In91 O99 2.266 . S
In91 O100 2.326 . S
In91 O102 2.294 . S
In91 O103 2.326 . S
O92 In91 2.294 . S
O92 C101 1.240 . S
O93 In91 2.326 . S
O93 C101 1.252 . S
C94 O97 1.252 . S
C94 O98 1.260 . S
C95 O102 1.240 . S
C95 O103 1.252 . S
C96 O99 1.252 . S
C96 O100 1.260 . S
O97 In91 2.266 . S
O97 C94 1.252 . S
O98 In91 2.326 . S
O98 C94 1.260 . S
O99 In91 2.266 . S
O99 C96 1.252 . S
O100 In91 2.326 . S
O100 C96 1.260 . S
C101 O92 1.240 . S
C101 O93 1.252 . S
O102 In91 2.294 . S
O102 C95 1.240 . S
O103 In91 2.326 . S
O103 C95 1.252 . S
In104 O105 2.294 . S
In104 O106 2.326 . S
In104 O110 2.266 . S
In104 O111 2.326 . S
In104 O112 2.266 . S
In104 O113 2.326 . S
In104 O115 2.294 . S
In104 O116 2.326 . S
O105 In104 2.294 . S
O105 C114 1.240 . S
O106 In104 2.326 . S
O106 C114 1.252 . S
C107 O110 1.252 . S
C107 O111 1.260 . S
C108 O115 1.240 . S
C108 O116 1.252 . S
C109 O112 1.252 . S
C109 O113 1.260 . S
O110 In104 2.266 . S
O110 C107 1.252 . S
O111 In104 2.326 . S
O111 C107 1.260 . S
O112 In104 2.266 . S
O112 C109 1.252 . S
O113 In104 2.326 . S
O113 C109 1.260 . S
C114 O105 1.240 . S
C114 O106 1.252 . S
O115 In104 2.294 . S
O115 C108 1.240 . S
O116 In104 2.326 . S
O116 C108 1.252 . S
In117 O118 2.294 . S
In117 O119 2.326 . S
In117 O123 2.266 . S
In117 O124 2.326 . S
In117 O125 2.266 . S
In117 O126 2.326 . S
In117 O128 2.294 . S
In117 O129 2.326 . S
O118 In117 2.294 . S
O118 C127 1.240 . S
O119 In117 2.326 . S
O119 C127 1.252 . S
C120 O123 1.252 . S
C120 O124 1.260 . S
C121 O128 1.240 . S
C121 O129 1.252 . S
C122 O125 1.252 . S
C122 O126 1.260 . S
O123 In117 2.266 . S
O123 C120 1.252 . S
O124 In117 2.326 . S
O124 C120 1.260 . S
O125 In117 2.266 . S
O125 C122 1.252 . S
O126 In117 2.326 . S
O126 C122 1.260 . S
C127 O118 1.240 . S
C127 O119 1.252 . S
O128 In117 2.294 . S
O128 C121 1.240 . S
O129 In117 2.326 . S
O129 C121 1.252 . S
In130 O131 2.294 . S
In130 O132 2.326 . S
In130 O136 2.266 . S
In130 O137 2.326 . S
In130 O138 2.266 . S
In130 O139 2.326 . S
In130 O141 2.294 . S
In130 O142 2.326 . S
O131 In130 2.294 . S
O131 C140 1.240 . S
O132 In130 2.326 . S
O132 C140 1.252 . S
C133 O136 1.252 . S
C133 O137 1.260 . S
C134 O141 1.240 . S
C134 O142 1.252 . S
C135 O138 1.252 . S
C135 O139 1.260 . S
O136 In130 2.266 . S
O136 C133 1.252 . S
O137 In130 2.326 . S
O137 C133 1.260 . S
O138 In130 2.266 . S
O138 C135 1.252 . S
O139 In130 2.326 . S
O139 C135 1.260 . S
C140 O131 1.240 . S
C140 O132 1.252 . S
O141 In130 2.294 . S
O141 C134 1.240 . S
O142 In130 2.326 . S
O142 C134 1.252 . S
In143 O144 2.294 . S
In143 O145 2.326 . S
In143 O149 2.266 . S
In143 O150 2.326 . S
In143 O151 2.266 . S
In143 O152 2.326 . S
In143 O154 2.294 . S
In143 O155 2.326 . S
O144 In143 2.294 . S
O144 C153 1.240 . S
O145 In143 2.326 . S
O145 C153 1.252 . S
C146 O149 1.252 . S
C146 O150 1.260 . S
C147 O154 1.240 . S
C147 O155 1.252 . S
C148 O151 1.252 . S
C148 O152 1.260 . S
O149 In143 2.266 . S
O149 C146 1.252 . S
O150 In143 2.326 . S
O150 C146 1.260 . S
O151 In143 2.266 . S
O151 C148 1.252 . S
O152 In143 2.326 . S
O152 C148 1.260 . S
C153 O144 1.240 . S
C153 O145 1.252 . S
O154 In143 2.294 . S
O154 C147 1.240 . S
O155 In143 2.326 . S
O155 C147 1.252 . S
In156 O157 2.294 . S
In156 O158 2.326 . S
In156 O162 2.266 . S
In156 O163 2.326 . S
In156 O164 2.266 . S
In156 O165 2.326 . S
In156 O167 2.294 . S
In156 O168 2.326 . S
O157 In156 2.294 . S
O157 C166 1.240 . S
O158 In156 2.326 . S
O158 C166 1.252 . S
C159 O162 1.252 . S
C159 O163 1.260 . S
C160 O167 1.240 . S
C160 O168 1.252 . S
C161 O164 1.252 . S
C161 O165 1.260 . S
O162 In156 2.266 . S
O162 C159 1.252 . S
O163 In156 2.326 . S
O163 C159 1.260 . S
O164 In156 2.266 . S
O164 C161 1.252 . S
O165 In156 2.326 . S
O165 C161 1.260 . S
C166 O157 1.240 . S
C166 O158 1.252 . S
O167 In156 2.294 . S
O167 C160 1.240 . S
O168 In156 2.326 . S
O168 C160 1.252 . S
In169 O170 2.294 . S
In169 O171 2.326 . S
In169 O175 2.266 . S
In169 O176 2.326 . S
In169 O177 2.266 . S
In169 O178 2.326 . S
In169 O180 2.294 . S
In169 O181 2.326 . S
O170 In169 2.294 . S
O170 C179 1.240 . S
O171 In169 2.326 . S
O171 C179 1.252 . S
C172 O175 1.252 . S
C172 O176 1.260 . S
C173 O180 1.240 . S
C173 O181 1.252 . S
C174 O177 1.252 . S
C174 O178 1.260 . S
O175 In169 2.266 . S
O175 C172 1.252 . S
O176 In169 2.326 . S
O176 C172 1.260 . S
O177 In169 2.266 . S
O177 C174 1.252 . S
O178 In169 2.326 . S
O178 C174 1.260 . S
C179 O170 1.240 . S
C179 O171 1.252 . S
O180 In169 2.294 . S
O180 C173 1.240 . S
O181 In169 2.326 . S
O181 C173 1.252 . S
In182 O183 2.294 . S
In182 O184 2.326 . S
In182 O188 2.266 . S
In182 O189 2.326 . S
In182 O190 2.266 . S
In182 O191 2.326 . S
In182 O193 2.294 . S
In182 O194 2.326 . S
O183 In182 2.294 . S
O183 C192 1.240 . S
O184 In182 2.326 . S
O184 C192 1.252 . S
C185 O188 1.252 . S
C185 O189 1.260 . S
C186 O193 1.240 . S
C186 O194 1.252 . S
C187 O190 1.252 . S
C187 O191 1.260 . S
O188 In182 2.266 . S
O188 C185 1.252 . S
O189 In182 2.326 . S
O189 C185 1.260 . S
O190 In182 2.266 . S
O190 C187 1.252 . S
O191 In182 2.326 . S
O191 C187 1.260 . S
C192 O183 1.240 . S
C192 O184 1.252 . S
O193 In182 2.294 . S
O193 C186 1.240 . S
O194 In182 2.326 . S
O194 C186 1.252 . S
In195 O196 2.294 . S
In195 O197 2.326 . S
In195 O201 2.266 . S
In195 O202 2.326 . S
In195 O203 2.266 . S
In195 O204 2.326 . S
In195 O206 2.294 . S
In195 O207 2.326 . S
O196 In195 2.294 . S
O196 C205 1.240 . S
O197 In195 2.326 . S
O197 C205 1.252 . S
C198 O201 1.252 . S
C198 O202 1.260 . S
C199 O206 1.240 . S
C199 O207 1.252 . S
C200 O203 1.252 . S
C200 O204 1.260 . S
O201 In195 2.266 . S
O201 C198 1.252 . S
O202 In195 2.326 . S
O202 C198 1.260 . S
O203 In195 2.266 . S
O203 C200 1.252 . S
O204 In195 2.326 . S
O204 C200 1.260 . S
C205 O196 1.240 . S
C205 O197 1.252 . S
O206 In195 2.294 . S
O206 C199 1.240 . S
O207 In195 2.326 . S
O207 C199 1.252 . S
In208 O209 2.294 . S
In208 O210 2.326 . S
In208 O214 2.266 . S
In208 O215 2.326 . S
In208 O216 2.266 . S
In208 O217 2.326 . S
In208 O219 2.294 . S
In208 O220 2.326 . S
O209 In208 2.294 . S
O209 C218 1.240 . S
O210 In208 2.326 . S
O210 C218 1.252 . S
C211 O214 1.252 . S
C211 O215 1.260 . S
C212 O219 1.240 . S
C212 O220 1.252 . S
C213 O216 1.252 . S
C213 O217 1.260 . S
O214 In208 2.266 . S
O214 C211 1.252 . S
O215 In208 2.326 . S
O215 C211 1.260 . S
O216 In208 2.266 . S
O216 C213 1.252 . S
O217 In208 2.326 . S
O217 C213 1.260 . S
C218 O209 1.240 . S
C218 O210 1.252 . S
O219 In208 2.294 . S
O219 C212 1.240 . S
O220 In208 2.326 . S
O220 C212 1.252 . S
In221 O222 2.294 . S
In221 O223 2.326 . S
In221 O227 2.266 . S
In221 O228 2.326 . S
In221 O229 2.266 . S
In221 O230 2.326 . S
In221 O232 2.294 . S
In221 O233 2.326 . S
O222 In221 2.294 . S
O222 C231 1.240 . S
O223 In221 2.326 . S
O223 C231 1.252 . S
C224 O227 1.252 . S
C224 O228 1.260 . S
C225 O232 1.240 . S
C225 O233 1.252 . S
C226 O229 1.252 . S
C226 O230 1.260 . S
O227 In221 2.266 . S
O227 C224 1.252 . S
O228 In221 2.326 . S
O228 C224 1.260 . S
O229 In221 2.266 . S
O229 C226 1.252 . S
O230 In221 2.326 . S
O230 C226 1.260 . S
C231 O222 1.240 . S
C231 O223 1.252 . S
O232 In221 2.294 . S
O232 C225 1.240 . S
O233 In221 2.326 . S
O233 C225 1.252 . S
In234 O235 2.294 . S
In234 O236 2.326 . S
In234 O240 2.266 . S
In234 O241 2.326 . S
In234 O242 2.266 . S
In234 O243 2.326 . S
In234 O245 2.294 . S
In234 O246 2.326 . S
O235 In234 2.294 . S
O235 C244 1.240 . S
O236 In234 2.326 . S
O236 C244 1.252 . S
C237 O240 1.252 . S
C237 O241 1.260 . S
C238 O245 1.240 . S
C238 O246 1.252 . S
C239 O242 1.252 . S
C239 O243 1.260 . S
O240 In234 2.266 . S
O240 C237 1.252 . S
O241 In234 2.326 . S
O241 C237 1.260 . S
O242 In234 2.266 . S
O242 C239 1.252 . S
O243 In234 2.326 . S
O243 C239 1.260 . S
C244 O235 1.240 . S
C244 O236 1.252 . S
O245 In234 2.294 . S
O245 C238 1.240 . S
O246 In234 2.326 . S
O246 C238 1.252 . S
In247 O248 2.294 . S
In247 O249 2.326 . S
In247 O253 2.266 . S
In247 O254 2.326 . S
In247 O255 2.266 . S
In247 O256 2.326 . S
In247 O258 2.294 . S
In247 O259 2.326 . S
O248 In247 2.294 . S
O248 C257 1.240 . S
O249 In247 2.326 . S
O249 C257 1.252 . S
C250 O253 1.252 . S
C250 O254 1.260 . S
C251 O258 1.240 . S
C251 O259 1.252 . S
C252 O255 1.252 . S
C252 O256 1.260 . S
O253 In247 2.266 . S
O253 C250 1.252 . S
O254 In247 2.326 . S
O254 C250 1.260 . S
O255 In247 2.266 . S
O255 C252 1.252 . S
O256 In247 2.326 . S
O256 C252 1.260 . S
C257 O248 1.240 . S
C257 O249 1.252 . S
O258 In247 2.294 . S
O258 C251 1.240 . S
O259 In247 2.326 . S
O259 C251 1.252 . S
In260 O261 2.294 . S
In260 O262 2.326 . S
In260 O266 2.266 . S
In260 O267 2.326 . S
In260 O268 2.266 . S
In260 O269 2.326 . S
In260 O271 2.294 . S
In260 O272 2.326 . S
O261 In260 2.294 . S
O261 C270 1.240 . S
O262 In260 2.326 . S
O262 C270 1.252 . S
C263 O266 1.252 . S
C263 O267 1.260 . S
C264 O271 1.240 . S
C264 O272 1.252 . S
C265 O268 1.252 . S
C265 O269 1.260 . S
O266 In260 2.266 . S
O266 C263 1.252 . S
O267 In260 2.326 . S
O267 C263 1.260 . S
O268 In260 2.266 . S
O268 C265 1.252 . S
O269 In260 2.326 . S
O269 C265 1.260 . S
C270 O261 1.240 . S
C270 O262 1.252 . S
O271 In260 2.294 . S
O271 C264 1.240 . S
O272 In260 2.326 . S
O272 C264 1.252 . S
In273 O274 2.294 . S
In273 O275 2.326 . S
In273 O279 2.266 . S
In273 O280 2.326 . S
In273 O281 2.266 . S
In273 O282 2.326 . S
In273 O284 2.294 . S
In273 O285 2.326 . S
O274 In273 2.294 . S
O274 C283 1.240 . S
O275 In273 2.326 . S
O275 C283 1.252 . S
C276 O279 1.252 . S
C276 O280 1.260 . S
C277 O284 1.240 . S
C277 O285 1.252 . S
C278 O281 1.252 . S
C278 O282 1.260 . S
O279 In273 2.266 . S
O279 C276 1.252 . S
O280 In273 2.326 . S
O280 C276 1.260 . S
O281 In273 2.266 . S
O281 C278 1.252 . S
O282 In273 2.326 . S
O282 C278 1.260 . S
C283 O274 1.240 . S
C283 O275 1.252 . S
O284 In273 2.294 . S
O284 C277 1.240 . S
O285 In273 2.326 . S
O285 C277 1.252 . S
In286 O287 2.294 . S
In286 O288 2.326 . S
In286 O292 2.266 . S
In286 O293 2.326 . S
In286 O294 2.266 . S
In286 O295 2.326 . S
In286 O297 2.294 . S
In286 O298 2.326 . S
O287 In286 2.294 . S
O287 C296 1.240 . S
O288 In286 2.326 . S
O288 C296 1.252 . S
C289 O292 1.252 . S
C289 O293 1.260 . S
C290 O297 1.240 . S
C290 O298 1.252 . S
C291 O294 1.252 . S
C291 O295 1.260 . S
O292 In286 2.266 . S
O292 C289 1.252 . S
O293 In286 2.326 . S
O293 C289 1.260 . S
O294 In286 2.266 . S
O294 C291 1.252 . S
O295 In286 2.326 . S
O295 C291 1.260 . S
C296 O287 1.240 . S
C296 O288 1.252 . S
O297 In286 2.294 . S
O297 C290 1.240 . S
O298 In286 2.326 . S
O298 C290 1.252 . S
In299 O300 2.294 . S
In299 O301 2.326 . S
In299 O305 2.266 . S
In299 O306 2.326 . S
In299 O307 2.266 . S
In299 O308 2.326 . S
In299 O310 2.294 . S
In299 O311 2.326 . S
O300 In299 2.294 . S
O300 C309 1.240 . S
O301 In299 2.326 . S
O301 C309 1.252 . S
C302 O305 1.252 . S
C302 O306 1.260 . S
C303 O310 1.240 . S
C303 O311 1.252 . S
C304 O307 1.252 . S
C304 O308 1.260 . S
O305 In299 2.266 . S
O305 C302 1.252 . S
O306 In299 2.326 . S
O306 C302 1.260 . S
O307 In299 2.266 . S
O307 C304 1.252 . S
O308 In299 2.326 . S
O308 C304 1.260 . S
C309 O300 1.240 . S
C309 O301 1.252 . S
O310 In299 2.294 . S
O310 C303 1.240 . S
O311 In299 2.326 . S
O311 C303 1.252 . S
In312 O313 2.294 . S
In312 O314 2.326 . S
In312 O318 2.266 . S
In312 O319 2.326 . S
In312 O320 2.266 . S
In312 O321 2.326 . S
In312 O323 2.294 . S
In312 O324 2.326 . S
O313 In312 2.294 . S
O313 C322 1.240 . S
O314 In312 2.326 . S
O314 C322 1.252 . S
C315 O318 1.252 . S
C315 O319 1.260 . S
C316 O323 1.240 . S
C316 O324 1.252 . S
C317 O320 1.252 . S
C317 O321 1.260 . S
O318 In312 2.266 . S
O318 C315 1.252 . S
O319 In312 2.326 . S
O319 C315 1.260 . S
O320 In312 2.266 . S
O320 C317 1.252 . S
O321 In312 2.326 . S
O321 C317 1.260 . S
C322 O313 1.240 . S
C322 O314 1.252 . S
O323 In312 2.294 . S
O323 C316 1.240 . S
O324 In312 2.326 . S
O324 C316 1.252 . S
In325 O326 2.294 . S
In325 O327 2.326 . S
In325 O331 2.266 . S
In325 O332 2.326 . S
In325 O333 2.266 . S
In325 O334 2.326 . S
In325 O336 2.294 . S
In325 O337 2.326 . S
O326 In325 2.294 . S
O326 C335 1.240 . S
O327 In325 2.326 . S
O327 C335 1.252 . S
C328 O331 1.252 . S
C328 O332 1.260 . S
C329 O336 1.240 . S
C329 O337 1.252 . S
C330 O333 1.252 . S
C330 O334 1.260 . S
O331 In325 2.266 . S
O331 C328 1.252 . S
O332 In325 2.326 . S
O332 C328 1.260 . S
O333 In325 2.266 . S
O333 C330 1.252 . S
O334 In325 2.326 . S
O334 C330 1.260 . S
C335 O326 1.240 . S
C335 O327 1.252 . S
O336 In325 2.294 . S
O336 C329 1.240 . S
O337 In325 2.326 . S
O337 C329 1.252 . S
In338 O339 2.294 . S
In338 O340 2.326 . S
In338 O344 2.266 . S
In338 O345 2.326 . S
In338 O346 2.266 . S
In338 O347 2.326 . S
In338 O349 2.294 . S
In338 O350 2.326 . S
O339 In338 2.294 . S
O339 C348 1.240 . S
O340 In338 2.326 . S
O340 C348 1.252 . S
C341 O344 1.252 . S
C341 O345 1.260 . S
C342 O349 1.240 . S
C342 O350 1.252 . S
C343 O346 1.252 . S
C343 O347 1.260 . S
O344 In338 2.266 . S
O344 C341 1.252 . S
O345 In338 2.326 . S
O345 C341 1.260 . S
O346 In338 2.266 . S
O346 C343 1.252 . S
O347 In338 2.326 . S
O347 C343 1.260 . S
C348 O339 1.240 . S
C348 O340 1.252 . S
O349 In338 2.294 . S
O349 C342 1.240 . S
O350 In338 2.326 . S
O350 C342 1.252 . S
In351 O352 2.294 . S
In351 O353 2.326 . S
In351 O357 2.266 . S
In351 O358 2.326 . S
In351 O359 2.266 . S
In351 O360 2.326 . S
In351 O362 2.294 . S
In351 O363 2.326 . S
O352 In351 2.294 . S
O352 C361 1.240 . S
O353 In351 2.326 . S
O353 C361 1.252 . S
C354 O357 1.252 . S
C354 O358 1.260 . S
C355 O362 1.240 . S
C355 O363 1.252 . S
C356 O359 1.252 . S
C356 O360 1.260 . S
O357 In351 2.266 . S
O357 C354 1.252 . S
O358 In351 2.326 . S
O358 C354 1.260 . S
O359 In351 2.266 . S
O359 C356 1.252 . S
O360 In351 2.326 . S
O360 C356 1.260 . S
C361 O352 1.240 . S
C361 O353 1.252 . S
O362 In351 2.294 . S
O362 C355 1.240 . S
O363 In351 2.326 . S
O363 C355 1.252 . S
In364 O365 2.294 . S
In364 O366 2.326 . S
In364 O370 2.266 . S
In364 O371 2.326 . S
In364 O372 2.266 . S
In364 O373 2.326 . S
In364 O375 2.294 . S
In364 O376 2.326 . S
O365 In364 2.294 . S
O365 C374 1.240 . S
O366 In364 2.326 . S
O366 C374 1.252 . S
C367 O370 1.252 . S
C367 O371 1.260 . S
C368 O375 1.240 . S
C368 O376 1.252 . S
C369 O372 1.252 . S
C369 O373 1.260 . S
O370 In364 2.266 . S
O370 C367 1.252 . S
O371 In364 2.326 . S
O371 C367 1.260 . S
O372 In364 2.266 . S
O372 C369 1.252 . S
O373 In364 2.326 . S
O373 C369 1.260 . S
C374 O365 1.240 . S
C374 O366 1.252 . S
O375 In364 2.294 . S
O375 C368 1.240 . S
O376 In364 2.326 . S
O376 C368 1.252 . S
In377 O378 2.294 . S
In377 O379 2.326 . S
In377 O383 2.266 . S
In377 O384 2.326 . S
In377 O385 2.266 . S
In377 O386 2.326 . S
In377 O388 2.294 . S
In377 O389 2.326 . S
O378 In377 2.294 . S
O378 C387 1.240 . S
O379 In377 2.326 . S
O379 C387 1.252 . S
C380 O383 1.252 . S
C380 O384 1.260 . S
C381 O388 1.240 . S
C381 O389 1.252 . S
C382 O385 1.252 . S
C382 O386 1.260 . S
O383 In377 2.266 . S
O383 C380 1.252 . S
O384 In377 2.326 . S
O384 C380 1.260 . S
O385 In377 2.266 . S
O385 C382 1.252 . S
O386 In377 2.326 . S
O386 C382 1.260 . S
C387 O378 1.240 . S
C387 O379 1.252 . S
O388 In377 2.294 . S
O388 C381 1.240 . S
O389 In377 2.326 . S
O389 C381 1.252 . S
In390 O391 2.294 . S
In390 O392 2.326 . S
In390 O396 2.266 . S
In390 O397 2.326 . S
In390 O398 2.266 . S
In390 O399 2.326 . S
In390 O401 2.294 . S
In390 O402 2.326 . S
O391 In390 2.294 . S
O391 C400 1.240 . S
O392 In390 2.326 . S
O392 C400 1.252 . S
C393 O396 1.252 . S
C393 O397 1.260 . S
C394 O401 1.240 . S
C394 O402 1.252 . S
C395 O398 1.252 . S
C395 O399 1.260 . S
O396 In390 2.266 . S
O396 C393 1.252 . S
O397 In390 2.326 . S
O397 C393 1.260 . S
O398 In390 2.266 . S
O398 C395 1.252 . S
O399 In390 2.326 . S
O399 C395 1.260 . S
C400 O391 1.240 . S
C400 O392 1.252 . S
O401 In390 2.294 . S
O401 C394 1.240 . S
O402 In390 2.326 . S
O402 C394 1.252 . S
In403 O404 2.294 . S
In403 O405 2.326 . S
In403 O409 2.266 . S
In403 O410 2.326 . S
In403 O411 2.266 . S
In403 O412 2.326 . S
In403 O414 2.294 . S
In403 O415 2.326 . S
O404 In403 2.294 . S
O404 C413 1.240 . S
O405 In403 2.326 . S
O405 C413 1.252 . S
C406 O409 1.252 . S
C406 O410 1.260 . S
C407 O414 1.240 . S
C407 O415 1.252 . S
C408 O411 1.252 . S
C408 O412 1.260 . S
O409 In403 2.266 . S
O409 C406 1.252 . S
O410 In403 2.326 . S
O410 C406 1.260 . S
O411 In403 2.266 . S
O411 C408 1.252 . S
O412 In403 2.326 . S
O412 C408 1.260 . S
C413 O404 1.240 . S
C413 O405 1.252 . S
O414 In403 2.294 . S
O414 C407 1.240 . S
O415 In403 2.326 . S
O415 C407 1.252 . S
C416 C417 1.387 . S
C416 H420 0.950 . S
C416 C425 1.390 . S
C417 C416 1.387 . S
C417 C419 1.387 . S
H418 C425 0.950 . S
C419 C417 1.387 . S
C419 C421 1.390 . S
C419 H423 0.950 . S
H420 C416 0.950 . S
C421 C419 1.390 . S
C421 C422 1.387 . S
C421 H424 0.950 . S
C422 C421 1.387 . S
C422 C425 1.387 . S
H423 C419 0.950 . S
H424 C421 0.950 . S
C425 C416 1.390 . S
C425 H418 0.950 . S
C425 C422 1.387 . S
C426 C427 1.387 . S
C426 H430 0.950 . S
C426 C435 1.390 . S
C427 C426 1.387 . S
C427 C429 1.387 . S
H428 C435 0.950 . S
C429 C427 1.387 . S
C429 C431 1.390 . S
C429 H433 0.950 . S
H430 C426 0.950 . S
C431 C429 1.390 . S
C431 C432 1.387 . S
C431 H434 0.950 . S
C432 C431 1.387 . S
C432 C435 1.387 . S
H433 C429 0.950 . S
H434 C431 0.950 . S
C435 C426 1.390 . S
C435 H428 0.950 . S
C435 C432 1.387 . S
C436 C437 1.387 . S
C436 H440 0.950 . S
C436 C445 1.390 . S
C437 C436 1.387 . S
C437 C439 1.387 . S
H438 C445 0.950 . S
C439 C437 1.387 . S
C439 C441 1.390 . S
C439 H443 0.950 . S
H440 C436 0.950 . S
C441 C439 1.390 . S
C441 C442 1.387 . S
C441 H444 0.950 . S
C442 C441 1.387 . S
C442 C445 1.387 . S
H443 C439 0.950 . S
H444 C441 0.950 . S
C445 C436 1.390 . S
C445 H438 0.950 . S
C445 C442 1.387 . S
C446 C447 1.387 . S
C446 H450 0.950 . S
C446 C455 1.390 . S
C447 C446 1.387 . S
C447 C449 1.387 . S
H448 C455 0.950 . S
C449 C447 1.387 . S
C449 C451 1.390 . S
C449 H453 0.950 . S
H450 C446 0.950 . S
C451 C449 1.390 . S
C451 C452 1.387 . S
C451 H454 0.950 . S
C452 C451 1.387 . S
C452 C455 1.387 . S
H453 C449 0.950 . S
H454 C451 0.950 . S
C455 C446 1.390 . S
C455 H448 0.950 . S
C455 C452 1.387 . S
C456 C457 1.387 . S
C456 H460 0.950 . S
C456 C465 1.390 . S
C457 C456 1.387 . S
C457 C459 1.387 . S
H458 C465 0.950 . S
C459 C457 1.387 . S
C459 C461 1.390 . S
C459 H463 0.950 . S
H460 C456 0.950 . S
C461 C459 1.390 . S
C461 C462 1.387 . S
C461 H464 0.950 . S
C462 C461 1.387 . S
C462 C465 1.387 . S
H463 C459 0.950 . S
H464 C461 0.950 . S
C465 C456 1.390 . S
C465 H458 0.950 . S
C465 C462 1.387 . S
C466 C467 1.387 . S
C466 H470 0.950 . S
C466 C475 1.390 . S
C467 C466 1.387 . S
C467 C469 1.387 . S
H468 C475 0.950 . S
C469 C467 1.387 . S
C469 C471 1.390 . S
C469 H473 0.950 . S
H470 C466 0.950 . S
C471 C469 1.390 . S
C471 C472 1.387 . S
C471 H474 0.950 . S
C472 C471 1.387 . S
C472 C475 1.387 . S
H473 C469 0.950 . S
H474 C471 0.950 . S
C475 C466 1.390 . S
C475 H468 0.950 . S
C475 C472 1.387 . S
C476 C477 1.387 . S
C476 H480 0.950 . S
C476 C485 1.390 . S
C477 C476 1.387 . S
C477 C479 1.387 . S
H478 C485 0.950 . S
C479 C477 1.387 . S
C479 C481 1.390 . S
C479 H483 0.950 . S
H480 C476 0.950 . S
C481 C479 1.390 . S
C481 C482 1.387 . S
C481 H484 0.950 . S
C482 C481 1.387 . S
C482 C485 1.387 . S
H483 C479 0.950 . S
H484 C481 0.950 . S
C485 C476 1.390 . S
C485 H478 0.950 . S
C485 C482 1.387 . S
C486 C487 1.387 . S
C486 H490 0.950 . S
C486 C495 1.390 . S
C487 C486 1.387 . S
C487 C489 1.387 . S
H488 C495 0.950 . S
C489 C487 1.387 . S
C489 C491 1.390 . S
C489 H493 0.950 . S
H490 C486 0.950 . S
C491 C489 1.390 . S
C491 C492 1.387 . S
C491 H494 0.950 . S
C492 C491 1.387 . S
C492 C495 1.387 . S
H493 C489 0.950 . S
H494 C491 0.950 . S
C495 C486 1.390 . S
C495 H488 0.950 . S
C495 C492 1.387 . S
C496 C497 1.387 . S
C496 H500 0.950 . S
C496 C505 1.390 . S
C497 C496 1.387 . S
C497 C499 1.387 . S
H498 C505 0.950 . S
C499 C497 1.387 . S
C499 C501 1.390 . S
C499 H503 0.950 . S
H500 C496 0.950 . S
C501 C499 1.390 . S
C501 C502 1.387 . S
C501 H504 0.950 . S
C502 C501 1.387 . S
C502 C505 1.387 . S
H503 C499 0.950 . S
H504 C501 0.950 . S
C505 C496 1.390 . S
C505 H498 0.950 . S
C505 C502 1.387 . S
C506 C507 1.387 . S
C506 H510 0.950 . S
C506 C515 1.390 . S
C507 C506 1.387 . S
C507 C509 1.387 . S
H508 C515 0.950 . S
C509 C507 1.387 . S
C509 C511 1.390 . S
C509 H513 0.950 . S
H510 C506 0.950 . S
C511 C509 1.390 . S
C511 C512 1.387 . S
C511 H514 0.950 . S
C512 C511 1.387 . S
C512 C515 1.387 . S
H513 C509 0.950 . S
H514 C511 0.950 . S
C515 C506 1.390 . S
C515 H508 0.950 . S
C515 C512 1.387 . S
C516 C517 1.387 . S
C516 H520 0.950 . S
C516 C525 1.390 . S
C517 C516 1.387 . S
C517 C519 1.387 . S
H518 C525 0.950 . S
C519 C517 1.387 . S
C519 C521 1.390 . S
C519 H523 0.950 . S
H520 C516 0.950 . S
C521 C519 1.390 . S
C521 C522 1.387 . S
C521 H524 0.950 . S
C522 C521 1.387 . S
C522 C525 1.387 . S
H523 C519 0.950 . S
H524 C521 0.950 . S
C525 C516 1.390 . S
C525 H518 0.950 . S
C525 C522 1.387 . S
C526 C527 1.387 . S
C526 H530 0.950 . S
C526 C535 1.390 . S
C527 C526 1.387 . S
C527 C529 1.387 . S
H528 C535 0.950 . S
C529 C527 1.387 . S
C529 C531 1.390 . S
C529 H533 0.950 . S
H530 C526 0.950 . S
C531 C529 1.390 . S
C531 C532 1.387 . S
C531 H534 0.950 . S
C532 C531 1.387 . S
C532 C535 1.387 . S
H533 C529 0.950 . S
H534 C531 0.950 . S
C535 C526 1.390 . S
C535 H528 0.950 . S
C535 C532 1.387 . S
C536 C537 1.387 . S
C536 H540 0.950 . S
C536 C545 1.390 . S
C537 C536 1.387 . S
C537 C539 1.387 . S
H538 C545 0.950 . S
C539 C537 1.387 . S
C539 C541 1.390 . S
C539 H543 0.950 . S
H540 C536 0.950 . S
C541 C539 1.390 . S
C541 C542 1.387 . S
C541 H544 0.950 . S
C542 C541 1.387 . S
C542 C545 1.387 . S
H543 C539 0.950 . S
H544 C541 0.950 . S
C545 C536 1.390 . S
C545 H538 0.950 . S
C545 C542 1.387 . S
C546 C547 1.387 . S
C546 H550 0.950 . S
C546 C555 1.390 . S
C547 C546 1.387 . S
C547 C549 1.387 . S
H548 C555 0.950 . S
C549 C547 1.387 . S
C549 C551 1.390 . S
C549 H553 0.950 . S
H550 C546 0.950 . S
C551 C549 1.390 . S
C551 C552 1.387 . S
C551 H554 0.950 . S
C552 C551 1.387 . S
C552 C555 1.387 . S
H553 C549 0.950 . S
H554 C551 0.950 . S
C555 C546 1.390 . S
C555 H548 0.950 . S
C555 C552 1.387 . S
C556 C557 1.387 . S
C556 H560 0.950 . S
C556 C565 1.390 . S
C557 C556 1.387 . S
C557 C559 1.387 . S
H558 C565 0.950 . S
C559 C557 1.387 . S
C559 C561 1.390 . S
C559 H563 0.950 . S
H560 C556 0.950 . S
C561 C559 1.390 . S
C561 C562 1.387 . S
C561 H564 0.950 . S
C562 C561 1.387 . S
C562 C565 1.387 . S
H563 C559 0.950 . S
H564 C561 0.950 . S
C565 C556 1.390 . S
C565 H558 0.950 . S
C565 C562 1.387 . S
C566 C567 1.387 . S
C566 H570 0.950 . S
C566 C575 1.390 . S
C567 C566 1.387 . S
C567 C569 1.387 . S
H568 C575 0.950 . S
C569 C567 1.387 . S
C569 C571 1.390 . S
C569 H573 0.950 . S
H570 C566 0.950 . S
C571 C569 1.390 . S
C571 C572 1.387 . S
C571 H574 0.950 . S
C572 C571 1.387 . S
C572 C575 1.387 . S
H573 C569 0.950 . S
H574 C571 0.950 . S
C575 C566 1.390 . S
C575 H568 0.950 . S
C575 C572 1.387 . S
C576 C577 1.387 1_556 S
C576 H580 0.950 . S
C576 C585 1.390 1_455 S
C577 C576 1.387 1_554 S
C577 C579 1.387 . S
H578 C585 0.950 . S
C579 C577 1.387 . S
C579 C581 1.390 1_455 S
C579 H583 0.950 . S
H580 C576 0.950 . S
C581 C579 1.390 1_655 S
C581 C582 1.387 . S
C581 H584 0.950 . S
C582 C581 1.387 . S
C582 C585 1.387 1_554 S
H583 C579 0.950 . S
H584 C581 0.950 . S
C585 C576 1.390 1_655 S
C585 H578 0.950 . S
C585 C582 1.387 1_556 S
C586 C587 1.387 . S
C586 H590 0.950 . S
C586 C595 1.390 . S
C587 C586 1.387 . S
C587 C589 1.387 . S
H588 C595 0.950 . S
C589 C587 1.387 . S
C589 C591 1.390 . S
C589 H593 0.950 . S
H590 C586 0.950 . S
C591 C589 1.390 . S
C591 C592 1.387 . S
C591 H594 0.950 . S
C592 C591 1.387 . S
C592 C595 1.387 . S
H593 C589 0.950 . S
H594 C591 0.950 . S
C595 C586 1.390 . S
C595 H588 0.950 . S
C595 C592 1.387 . S
C596 C597 1.387 . S
C596 H600 0.950 . S
C596 C605 1.390 . S
C597 C596 1.387 . S
C597 C599 1.387 . S
H598 C605 0.950 . S
C599 C597 1.387 . S
C599 C601 1.390 . S
C599 H603 0.950 . S
H600 C596 0.950 . S
C601 C599 1.390 . S
C601 C602 1.387 . S
C601 H604 0.950 . S
C602 C601 1.387 . S
C602 C605 1.387 . S
H603 C599 0.950 . S
H604 C601 0.950 . S
C605 C596 1.390 . S
C605 H598 0.950 . S
C605 C602 1.387 . S
C606 C607 1.387 . S
C606 H610 0.950 . S
C606 C615 1.390 . S
C607 C606 1.387 . S
C607 C609 1.387 . S
H608 C615 0.950 . S
C609 C607 1.387 . S
C609 C611 1.390 . S
C609 H613 0.950 . S
H610 C606 0.950 . S
C611 C609 1.390 . S
C611 C612 1.387 . S
C611 H614 0.950 . S
C612 C611 1.387 . S
C612 C615 1.387 . S
H613 C609 0.950 . S
H614 C611 0.950 . S
C615 C606 1.390 . S
C615 H608 0.950 . S
C615 C612 1.387 . S
C616 C617 1.387 1_554 S
C616 H620 0.950 . S
C616 C625 1.390 1_655 S
C617 C616 1.387 1_556 S
C617 C619 1.387 . S
H618 C625 0.950 . S
C619 C617 1.387 . S
C619 C621 1.390 1_655 S
C619 H623 0.950 . S
H620 C616 0.950 . S
C621 C619 1.390 1_455 S
C621 C622 1.387 . S
C621 H624 0.950 . S
C622 C621 1.387 . S
C622 C625 1.387 1_556 S
H623 C619 0.950 . S
H624 C621 0.950 . S
C625 C616 1.390 1_455 S
C625 H618 0.950 . S
C625 C622 1.387 1_554 S
C626 C627 1.387 . S
C626 H630 0.950 . S
C626 C635 1.390 . S
C627 C626 1.387 . S
C627 C629 1.387 . S
H628 C635 0.950 . S
C629 C627 1.387 . S
C629 C631 1.390 . S
C629 H633 0.950 . S
H630 C626 0.950 . S
C631 C629 1.390 . S
C631 C632 1.387 . S
C631 H634 0.950 . S
C632 C631 1.387 . S
C632 C635 1.387 . S
H633 C629 0.950 . S
H634 C631 0.950 . S
C635 C626 1.390 . S
C635 H628 0.950 . S
C635 C632 1.387 . S
C636 C637 1.387 . S
C636 H640 0.950 . S
C636 C645 1.390 . S
C637 C636 1.387 . S
C637 C639 1.387 . S
H638 C645 0.950 . S
C639 C637 1.387 . S
C639 C641 1.390 . S
C639 H643 0.950 . S
H640 C636 0.950 . S
C641 C639 1.390 . S
C641 C642 1.387 . S
C641 H644 0.950 . S
C642 C641 1.387 . S
C642 C645 1.387 . S
H643 C639 0.950 . S
H644 C641 0.950 . S
C645 C636 1.390 . S
C645 H638 0.950 . S
C645 C642 1.387 . S
C646 C647 1.387 . S
C646 H650 0.950 . S
C646 C655 1.390 . S
C647 C646 1.387 . S
C647 C649 1.387 . S
H648 C655 0.950 . S
C649 C647 1.387 . S
C649 C651 1.390 . S
C649 H653 0.950 . S
H650 C646 0.950 . S
C651 C649 1.390 . S
C651 C652 1.387 . S
C651 H654 0.950 . S
C652 C651 1.387 . S
C652 C655 1.387 . S
H653 C649 0.950 . S
H654 C651 0.950 . S
C655 C646 1.390 . S
C655 H648 0.950 . S
C655 C652 1.387 . S
C656 C657 1.387 . S
C656 H660 0.950 . S
C656 C665 1.390 . S
C657 C656 1.387 . S
C657 C659 1.387 . S
H658 C665 0.950 . S
C659 C657 1.387 . S
C659 C661 1.390 . S
C659 H663 0.950 . S
H660 C656 0.950 . S
C661 C659 1.390 . S
C661 C662 1.387 . S
C661 H664 0.950 . S
C662 C661 1.387 . S
C662 C665 1.387 . S
H663 C659 0.950 . S
H664 C661 0.950 . S
C665 C656 1.390 . S
C665 H658 0.950 . S
C665 C662 1.387 . S
C666 C667 1.387 . S
C666 H670 0.950 . S
C666 C675 1.390 . S
C667 C666 1.387 . S
C667 C669 1.387 . S
H668 C675 0.950 . S
C669 C667 1.387 . S
C669 C671 1.390 . S
C669 H673 0.950 . S
H670 C666 0.950 . S
C671 C669 1.390 . S
C671 C672 1.387 . S
C671 H674 0.950 . S
C672 C671 1.387 . S
C672 C675 1.387 . S
H673 C669 0.950 . S
H674 C671 0.950 . S
C675 C666 1.390 . S
C675 H668 0.950 . S
C675 C672 1.387 . S
C676 C677 1.387 . S
C676 H680 0.950 . S
C676 C685 1.390 . S
C677 C676 1.387 . S
C677 C679 1.387 . S
H678 C685 0.950 . S
C679 C677 1.387 . S
C679 C681 1.390 . S
C679 H683 0.950 . S
H680 C676 0.950 . S
C681 C679 1.390 . S
C681 C682 1.387 . S
C681 H684 0.950 . S
C682 C681 1.387 . S
C682 C685 1.387 . S
H683 C679 0.950 . S
H684 C681 0.950 . S
C685 C676 1.390 . S
C685 H678 0.950 . S
C685 C682 1.387 . S
C686 C687 1.387 . S
C686 H690 0.950 . S
C686 C695 1.390 . S
C687 C686 1.387 . S
C687 C689 1.387 . S
H688 C695 0.950 . S
C689 C687 1.387 . S
C689 C691 1.390 . S
C689 H693 0.950 . S
H690 C686 0.950 . S
C691 C689 1.390 . S
C691 C692 1.387 . S
C691 H694 0.950 . S
C692 C691 1.387 . S
C692 C695 1.387 . S
H693 C689 0.950 . S
H694 C691 0.950 . S
C695 C686 1.390 . S
C695 H688 0.950 . S
C695 C692 1.387 . S
C696 C697 1.387 . S
C696 H700 0.950 . S
C696 C705 1.390 . S
C697 C696 1.387 . S
C697 C699 1.387 . S
H698 C705 0.950 . S
C699 C697 1.387 . S
C699 C701 1.390 . S
C699 H703 0.950 . S
H700 C696 0.950 . S
C701 C699 1.390 . S
C701 C702 1.387 . S
C701 H704 0.950 . S
C702 C701 1.387 . S
C702 C705 1.387 . S
H703 C699 0.950 . S
H704 C701 0.950 . S
C705 C696 1.390 . S
C705 H698 0.950 . S
C705 C702 1.387 . S
C706 C707 1.387 . S
C706 H710 0.950 . S
C706 C715 1.390 1_655 S
C707 C706 1.387 . S
C707 C709 1.387 . S
H708 C715 0.950 . S
C709 C707 1.387 . S
C709 C711 1.390 1_655 S
C709 H713 0.950 . S
H710 C706 0.950 . S
C711 C709 1.390 1_455 S
C711 C712 1.387 . S
C711 H714 0.950 . S
C712 C711 1.387 . S
C712 C715 1.387 . S
H713 C709 0.950 . S
H714 C711 0.950 . S
C715 C706 1.390 1_455 S
C715 H708 0.950 . S
C715 C712 1.387 . S
C716 C717 1.387 . S
C716 H720 0.950 . S
C716 C725 1.390 . S
C717 C716 1.387 . S
C717 C719 1.387 . S
H718 C725 0.950 . S
C719 C717 1.387 . S
C719 C721 1.390 . S
C719 H723 0.950 . S
H720 C716 0.950 . S
C721 C719 1.390 . S
C721 C722 1.387 . S
C721 H724 0.950 . S
C722 C721 1.387 . S
C722 C725 1.387 . S
H723 C719 0.950 . S
H724 C721 0.950 . S
C725 C716 1.390 . S
C725 H718 0.950 . S
C725 C722 1.387 . S
C726 C727 1.387 . S
C726 H730 0.950 . S
C726 C735 1.390 1_455 S
C727 C726 1.387 . S
C727 C729 1.387 1_556 S
H728 C735 0.950 . S
C729 C727 1.387 1_554 S
C729 C731 1.390 1_455 S
C729 H733 0.950 . S
H730 C726 0.950 . S
C731 C729 1.390 1_655 S
C731 C732 1.387 1_554 S
C731 H734 0.950 . S
C732 C731 1.387 1_556 S
C732 C735 1.387 . S
H733 C729 0.950 . S
H734 C731 0.950 . S
C735 C726 1.390 1_655 S
C735 H728 0.950 . S
C735 C732 1.387 . S
C736 C737 1.387 . S
C736 H740 0.950 . S
C736 C745 1.390 1_556 S
C737 C736 1.387 . S
C737 C739 1.387 . S
H738 C745 0.950 . S
C739 C737 1.387 . S
C739 C741 1.390 1_556 S
C739 H743 0.950 . S
H740 C736 0.950 . S
C741 C739 1.390 1_554 S
C741 C742 1.387 . S
C741 H744 0.950 . S
C742 C741 1.387 . S
C742 C745 1.387 . S
H743 C739 0.950 . S
H744 C741 0.950 . S
C745 C736 1.390 1_554 S
C745 H738 0.950 . S
C745 C742 1.387 . S
C746 C747 1.387 . S
C746 H750 0.950 . S
C746 C755 1.390 . S
C747 C746 1.387 . S
C747 C749 1.387 . S
H748 C755 0.950 . S
C749 C747 1.387 . S
C749 C751 1.390 . S
C749 H753 0.950 . S
H750 C746 0.950 . S
C751 C749 1.390 . S
C751 C752 1.387 . S
C751 H754 0.950 . S
C752 C751 1.387 . S
C752 C755 1.387 . S
H753 C749 0.950 . S
H754 C751 0.950 . S
C755 C746 1.390 . S
C755 H748 0.950 . S
C755 C752 1.387 . S
C756 C757 1.387 . S
C756 H760 0.950 . S
C756 C765 1.390 . S
C757 C756 1.387 . S
C757 C759 1.387 . S
H758 C765 0.950 . S
C759 C757 1.387 . S
C759 C761 1.390 . S
C759 H763 0.950 . S
H760 C756 0.950 . S
C761 C759 1.390 . S
C761 C762 1.387 . S
C761 H764 0.950 . S
C762 C761 1.387 . S
C762 C765 1.387 . S
H763 C759 0.950 . S
H764 C761 0.950 . S
C765 C756 1.390 . S
C765 H758 0.950 . S
C765 C762 1.387 . S
C766 C767 1.387 . S
C766 H770 0.950 . S
C766 C775 1.390 . S
C767 C766 1.387 . S
C767 C769 1.387 . S
H768 C775 0.950 . S
C769 C767 1.387 . S
C769 C771 1.390 . S
C769 H773 0.950 . S
H770 C766 0.950 . S
C771 C769 1.390 . S
C771 C772 1.387 . S
C771 H774 0.950 . S
C772 C771 1.387 . S
C772 C775 1.387 . S
H773 C769 0.950 . S
H774 C771 0.950 . S
C775 C766 1.390 . S
C775 H768 0.950 . S
C775 C772 1.387 . S
C776 C777 1.387 . S
C776 H780 0.950 . S
C776 C785 1.390 1_554 S
C777 C776 1.387 . S
C777 C779 1.387 . S
H778 C785 0.950 . S
C779 C777 1.387 . S
C779 C781 1.390 1_554 S
C779 H783 0.950 . S
H780 C776 0.950 . S
C781 C779 1.390 1_556 S
C781 C782 1.387 . S
C781 H784 0.950 . S
C782 C781 1.387 . S
C782 C785 1.387 . S
H783 C779 0.950 . S
H784 C781 0.950 . S
C785 C776 1.390 1_556 S
C785 H778 0.950 . S
C785 C782 1.387 . S
C786 C787 1.387 . S
C786 H790 0.950 . S
C786 C795 1.390 . S
C787 C786 1.387 . S
C787 C789 1.387 . S
H788 C795 0.950 . S
C789 C787 1.387 . S
C789 C791 1.390 . S
C789 H793 0.950 . S
H790 C786 0.950 . S
C791 C789 1.390 . S
C791 C792 1.387 . S
C791 H794 0.950 . S
C792 C791 1.387 . S
C792 C795 1.387 . S
H793 C789 0.950 . S
H794 C791 0.950 . S
C795 C786 1.390 . S
C795 H788 0.950 . S
C795 C792 1.387 . S
C796 C797 1.387 . S
C796 H800 0.950 . S
C796 C805 1.390 . S
C797 C796 1.387 . S
C797 C799 1.387 . S
H798 C805 0.950 . S
C799 C797 1.387 . S
C799 C801 1.390 . S
C799 H803 0.950 . S
H800 C796 0.950 . S
C801 C799 1.390 . S
C801 C802 1.387 . S
C801 H804 0.950 . S
C802 C801 1.387 . S
C802 C805 1.387 . S
H803 C799 0.950 . S
H804 C801 0.950 . S
C805 C796 1.390 . S
C805 H798 0.950 . S
C805 C802 1.387 . S
C806 C807 1.387 . S
C806 H810 0.950 . S
C806 C815 1.390 . S
C807 C806 1.387 . S
C807 C809 1.387 . S
H808 C815 0.950 . S
C809 C807 1.387 . S
C809 C811 1.390 . S
C809 H813 0.950 . S
H810 C806 0.950 . S
C811 C809 1.390 . S
C811 C812 1.387 . S
C811 H814 0.950 . S
C812 C811 1.387 . S
C812 C815 1.387 . S
H813 C809 0.950 . S
H814 C811 0.950 . S
C815 C806 1.390 . S
C815 H808 0.950 . S
C815 C812 1.387 . S
C816 C817 1.387 . S
C816 H820 0.950 . S
C816 C825 1.390 1_545 S
C817 C816 1.387 . S
C817 C819 1.387 . S
H818 C825 0.950 . S
C819 C817 1.387 . S
C819 C821 1.390 1_545 S
C819 H823 0.950 . S
H820 C816 0.950 . S
C821 C819 1.390 1_565 S
C821 C822 1.387 . S
C821 H824 0.950 . S
C822 C821 1.387 . S
C822 C825 1.387 . S
H823 C819 0.950 . S
H824 C821 0.950 . S
C825 C816 1.390 1_565 S
C825 H818 0.950 . S
C825 C822 1.387 . S
C826 C827 1.387 . S
C826 H830 0.950 . S
C826 C835 1.390 . S
C827 C826 1.387 . S
C827 C829 1.387 . S
H828 C835 0.950 . S
C829 C827 1.387 . S
C829 C831 1.390 . S
C829 H833 0.950 . S
H830 C826 0.950 . S
C831 C829 1.390 . S
C831 C832 1.387 . S
C831 H834 0.950 . S
C832 C831 1.387 . S
C832 C835 1.387 . S
H833 C829 0.950 . S
H834 C831 0.950 . S
C835 C826 1.390 . S
C835 H828 0.950 . S
C835 C832 1.387 . S
C836 C837 1.387 . S
C836 H840 0.950 . S
C836 C845 1.390 1_564 S
C837 C836 1.387 . S
C837 C839 1.387 . S
H838 C845 0.950 . S
C839 C837 1.387 . S
C839 C841 1.390 1_564 S
C839 H843 0.950 . S
H840 C836 0.950 . S
C841 C839 1.390 1_546 S
C841 C842 1.387 . S
C841 H844 0.950 . S
C842 C841 1.387 . S
C842 C845 1.387 . S
H843 C839 0.950 . S
H844 C841 0.950 . S
C845 C836 1.390 1_546 S
C845 H838 0.950 . S
C845 C842 1.387 . S
C846 C847 1.387 . S
C846 H850 0.950 . S
C846 C855 1.390 . S
C847 C846 1.387 . S
C847 C849 1.387 . S
H848 C855 0.950 . S
C849 C847 1.387 . S
C849 C851 1.390 . S
C849 H853 0.950 . S
H850 C846 0.950 . S
C851 C849 1.390 . S
C851 C852 1.387 . S
C851 H854 0.950 . S
C852 C851 1.387 . S
C852 C855 1.387 . S
H853 C849 0.950 . S
H854 C851 0.950 . S
C855 C846 1.390 . S
C855 H848 0.950 . S
C855 C852 1.387 . S
C856 C857 1.387 . S
C856 H860 0.950 . S
C856 C865 1.390 1_545 S
C857 C856 1.387 . S
C857 C859 1.387 . S
H858 C865 0.950 . S
C859 C857 1.387 . S
C859 C861 1.390 1_545 S
C859 H863 0.950 . S
H860 C856 0.950 . S
C861 C859 1.390 1_565 S
C861 C862 1.387 . S
C861 H864 0.950 . S
C862 C861 1.387 . S
C862 C865 1.387 . S
H863 C859 0.950 . S
H864 C861 0.950 . S
C865 C856 1.390 1_565 S
C865 H858 0.950 . S
C865 C862 1.387 . S
C866 C867 1.387 . S
C866 H870 0.950 . S
C866 C875 1.390 . S
C867 C866 1.387 . S
C867 C869 1.387 . S
H868 C875 0.950 . S
C869 C867 1.387 . S
C869 C871 1.390 . S
C869 H873 0.950 . S
H870 C866 0.950 . S
C871 C869 1.390 . S
C871 C872 1.387 . S
C871 H874 0.950 . S
C872 C871 1.387 . S
C872 C875 1.387 . S
H873 C869 0.950 . S
H874 C871 0.950 . S
C875 C866 1.390 . S
C875 H868 0.950 . S
C875 C872 1.387 . S
C876 C877 1.387 . S
C876 H880 0.950 . S
C876 C885 1.390 1_564 S
C877 C876 1.387 . S
C877 C879 1.387 . S
H878 C885 0.950 . S
C879 C877 1.387 . S
C879 C881 1.390 1_564 S
C879 H883 0.950 . S
H880 C876 0.950 . S
C881 C879 1.390 1_546 S
C881 C882 1.387 . S
C881 H884 0.950 . S
C882 C881 1.387 . S
C882 C885 1.387 . S
H883 C879 0.950 . S
H884 C881 0.950 . S
C885 C876 1.390 1_546 S
C885 H878 0.950 . S
C885 C882 1.387 . S
C886 C887 1.387 . S
C886 H890 0.950 . S
C886 C895 1.390 . S
C887 C886 1.387 . S
C887 C889 1.387 . S
H888 C895 0.950 . S
C889 C887 1.387 . S
C889 C891 1.390 . S
C889 H893 0.950 . S
H890 C886 0.950 . S
C891 C889 1.390 . S
C891 C892 1.387 . S
C891 H894 0.950 . S
C892 C891 1.387 . S
C892 C895 1.387 . S
H893 C889 0.950 . S
H894 C891 0.950 . S
C895 C886 1.390 . S
C895 H888 0.950 . S
C895 C892 1.387 . S
C896 C897 1.387 . S
C896 H900 0.950 1_554 S
C896 C905 1.390 . S
C897 C896 1.387 . S
C897 C899 1.387 . S
H898 C905 0.950 1_556 S
C899 C897 1.387 . S
C899 C901 1.390 . S
C899 H903 0.950 . S
H900 C896 0.950 1_556 S
C901 C899 1.390 . S
C901 C902 1.387 . S
C901 H904 0.950 . S
C902 C901 1.387 . S
C902 C905 1.387 . S
H903 C899 0.950 . S
H904 C901 0.950 . S
C905 C896 1.390 . S
C905 H898 0.950 1_554 S
C905 C902 1.387 . S
C906 C907 1.387 . S
C906 H910 0.950 . S
C906 C915 1.390 . S
C907 C906 1.387 . S
C907 C909 1.387 . S
H908 C915 0.950 . S
C909 C907 1.387 . S
C909 C911 1.390 . S
C909 H913 0.950 . S
H910 C906 0.950 . S
C911 C909 1.390 . S
C911 C912 1.387 . S
C911 H914 0.950 . S
C912 C911 1.387 . S
C912 C915 1.387 . S
H913 C909 0.950 . S
H914 C911 0.950 . S
C915 C906 1.390 . S
C915 H908 0.950 . S
C915 C912 1.387 . S
C916 C917 1.387 . S
C916 H920 0.950 . S
C916 C925 1.390 . S
C917 C916 1.387 . S
C917 C919 1.387 . S
H918 C925 0.950 . S
C919 C917 1.387 . S
C919 C921 1.390 . S
C919 H923 0.950 . S
H920 C916 0.950 . S
C921 C919 1.390 . S
C921 C922 1.387 . S
C921 H924 0.950 . S
C922 C921 1.387 . S
C922 C925 1.387 . S
H923 C919 0.950 . S
H924 C921 0.950 . S
C925 C916 1.390 . S
C925 H918 0.950 . S
C925 C922 1.387 . S
C926 C927 1.387 . S
C926 H930 0.950 . S
C926 C935 1.390 1_655 S
C927 C926 1.387 . S
C927 C929 1.387 . S
H928 C935 0.950 . S
C929 C927 1.387 . S
C929 C931 1.390 1_655 S
C929 H933 0.950 . S
H930 C926 0.950 . S
C931 C929 1.390 1_455 S
C931 C932 1.387 . S
C931 H934 0.950 . S
C932 C931 1.387 . S
C932 C935 1.387 . S
H933 C929 0.950 . S
H934 C931 0.950 . S
C935 C926 1.390 1_455 S
C935 H928 0.950 . S
C935 C932 1.387 . S
C936 C937 1.387 . S
C936 H940 0.950 . S
C936 C945 1.390 . S
C937 C936 1.387 . S
C937 C939 1.387 . S
H938 C945 0.950 . S
C939 C937 1.387 . S
C939 C941 1.390 . S
C939 H943 0.950 . S
H940 C936 0.950 . S
C941 C939 1.390 . S
C941 C942 1.387 . S
C941 H944 0.950 . S
C942 C941 1.387 . S
C942 C945 1.387 . S
H943 C939 0.950 . S
H944 C941 0.950 . S
C945 C936 1.390 . S
C945 H938 0.950 . S
C945 C942 1.387 . S
C946 C947 1.387 . S
C946 H950 0.950 . S
C946 C955 1.390 1_655 S
C947 C946 1.387 . S
C947 C949 1.387 . S
H948 C955 0.950 . S
C949 C947 1.387 . S
C949 C951 1.390 1_655 S
C949 H953 0.950 . S
H950 C946 0.950 . S
C951 C949 1.390 1_455 S
C951 C952 1.387 . S
C951 H954 0.950 . S
C952 C951 1.387 . S
C952 C955 1.387 . S
H953 C949 0.950 . S
H954 C951 0.950 . S
C955 C946 1.390 1_455 S
C955 H948 0.950 . S
C955 C952 1.387 . S
C956 C957 1.387 . S
C956 H960 0.950 . S
C956 C965 1.390 . S
C957 C956 1.387 . S
C957 C959 1.387 . S
H958 C965 0.950 . S
C959 C957 1.387 . S
C959 C961 1.390 . S
C959 H963 0.950 . S
H960 C956 0.950 . S
C961 C959 1.390 . S
C961 C962 1.387 . S
C961 H964 0.950 . S
C962 C961 1.387 . S
C962 C965 1.387 . S
H963 C959 0.950 . S
H964 C961 0.950 . S
C965 C956 1.390 . S
C965 H958 0.950 . S
C965 C962 1.387 . S
C966 C967 1.387 . S
C966 H970 0.950 . S
C966 C975 1.390 . S
C967 C966 1.387 . S
C967 C969 1.387 . S
H968 C975 0.950 . S
C969 C967 1.387 . S
C969 C971 1.390 . S
C969 H973 0.950 . S
H970 C966 0.950 . S
C971 C969 1.390 . S
C971 C972 1.387 . S
C971 H974 0.950 . S
C972 C971 1.387 . S
C972 C975 1.387 . S
H973 C969 0.950 . S
H974 C971 0.950 . S
C975 C966 1.390 . S
C975 H968 0.950 . S
C975 C972 1.387 . S
C976 C977 1.387 . S
C976 H980 0.950 1_556 S
C976 C985 1.390 . S
C977 C976 1.387 . S
C977 C979 1.387 . S
H978 C985 0.950 1_554 S
C979 C977 1.387 . S
C979 C981 1.390 . S
C979 H983 0.950 . S
H980 C976 0.950 1_554 S
C981 C979 1.390 . S
C981 C982 1.387 . S
C981 H984 0.950 . S
C982 C981 1.387 . S
C982 C985 1.387 . S
H983 C979 0.950 . S
H984 C981 0.950 . S
C985 C976 1.390 . S
C985 H978 0.950 1_556 S
C985 C982 1.387 . S
C986 C987 1.387 . S
C986 H990 0.950 . S
C986 C995 1.390 . S
C987 C986 1.387 . S
C987 C989 1.387 . S
H988 C995 0.950 . S
C989 C987 1.387 . S
C989 C991 1.390 . S
C989 H993 0.950 . S
H990 C986 0.950 . S
C991 C989 1.390 . S
C991 C992 1.387 . S
C991 H994 0.950 . S
C992 C991 1.387 . S
C992 C995 1.387 . S
H993 C989 0.950 . S
H994 C991 0.950 . S
C995 C986 1.390 . S
C995 H988 0.950 . S
C995 C992 1.387 . S
C996 C997 1.387 . S
C996 H1000 0.950 . S
C996 C1005 1.390 . S
C997 C996 1.387 . S
C997 C999 1.387 . S
H998 C1005 0.950 . S
C999 C997 1.387 . S
C999 C1001 1.390 . S
C999 H1003 0.950 . S
H1000 C996 0.950 . S
C1001 C999 1.390 . S
C1001 C1002 1.387 . S
C1001 H1004 0.950 . S
C1002 C1001 1.387 . S
C1002 C1005 1.387 . S
H1003 C999 0.950 . S
H1004 C1001 0.950 . S
C1005 C996 1.390 . S
C1005 H998 0.950 . S
C1005 C1002 1.387 . S
C1006 C1007 1.387 . S
C1006 H1010 0.950 . S
C1006 C1015 1.390 . S
C1007 C1006 1.387 . S
C1007 C1009 1.387 . S
H1008 C1015 0.950 . S
C1009 C1007 1.387 . S
C1009 C1011 1.390 . S
C1009 H1013 0.950 . S
H1010 C1006 0.950 . S
C1011 C1009 1.390 . S
C1011 C1012 1.387 . S
C1011 H1014 0.950 . S
C1012 C1011 1.387 . S
C1012 C1015 1.387 . S
H1013 C1009 0.950 . S
H1014 C1011 0.950 . S
C1015 C1006 1.390 . S
C1015 H1008 0.950 . S
C1015 C1012 1.387 . S
C1016 C1017 1.387 . S
C1016 H1020 0.950 . S
C1016 C1025 1.390 1_655 S
C1017 C1016 1.387 . S
C1017 C1019 1.387 . S
H1018 C1025 0.950 . S
C1019 C1017 1.387 . S
C1019 C1021 1.390 1_655 S
C1019 H1023 0.950 . S
H1020 C1016 0.950 . S
C1021 C1019 1.390 1_455 S
C1021 C1022 1.387 . S
C1021 H1024 0.950 . S
C1022 C1021 1.387 . S
C1022 C1025 1.387 . S
H1023 C1019 0.950 . S
H1024 C1021 0.950 . S
C1025 C1016 1.390 1_455 S
C1025 H1018 0.950 . S
C1025 C1022 1.387 . S
C1026 C1027 1.387 . S
C1026 H1030 0.950 . S
C1026 C1035 1.390 . S
C1027 C1026 1.387 . S
C1027 C1029 1.387 . S
H1028 C1035 0.950 . S
C1029 C1027 1.387 . S
C1029 C1031 1.390 . S
C1029 H1033 0.950 . S
H1030 C1026 0.950 . S
C1031 C1029 1.390 . S
C1031 C1032 1.387 . S
C1031 H1034 0.950 . S
C1032 C1031 1.387 . S
C1032 C1035 1.387 . S
H1033 C1029 0.950 . S
H1034 C1031 0.950 . S
C1035 C1026 1.390 . S
C1035 H1028 0.950 . S
C1035 C1032 1.387 . S
C1036 C1037 1.387 . S
C1036 H1040 0.950 . S
C1036 C1045 1.390 . S
C1037 C1036 1.387 . S
C1037 C1039 1.387 . S
H1038 C1045 0.950 . S
C1039 C1037 1.387 . S
C1039 C1041 1.390 . S
C1039 H1043 0.950 . S
H1040 C1036 0.950 . S
C1041 C1039 1.390 . S
C1041 C1042 1.387 . S
C1041 H1044 0.950 . S
C1042 C1041 1.387 . S
C1042 C1045 1.387 . S
H1043 C1039 0.950 . S
H1044 C1041 0.950 . S
C1045 C1036 1.390 . S
C1045 H1038 0.950 . S
C1045 C1042 1.387 . S
C1046 C1047 1.387 . S
C1046 H1050 0.950 . S
C1046 C1055 1.390 1_655 S
C1047 C1046 1.387 . S
C1047 C1049 1.387 . S
H1048 C1055 0.950 . S
C1049 C1047 1.387 . S
C1049 C1051 1.390 1_655 S
C1049 H1053 0.950 . S
H1050 C1046 0.950 . S
C1051 C1049 1.390 1_455 S
C1051 C1052 1.387 . S
C1051 H1054 0.950 . S
C1052 C1051 1.387 . S
C1052 C1055 1.387 . S
H1053 C1049 0.950 . S
H1054 C1051 0.950 . S
C1055 C1046 1.390 1_455 S
C1055 H1048 0.950 . S
C1055 C1052 1.387 . S
C417 C303 1.821 . S
C422 C5 1.823 . S
C427 C263 1.826 . S
C432 C23 1.821 . S
C437 C277 1.823 . S
C442 C29 1.826 . S
C447 C289 1.824 . S
C452 C49 1.822 . S
C457 C55 1.826 . S
C462 C231 1.822 . S
C467 C239 1.826 . S
C472 C69 1.823 . S
C477 C83 1.826 . S
C482 C251 1.822 . S
C487 C95 1.820 . S
C492 C211 1.824 . S
C497 C407 1.813 . S
C502 C114 1.812 . S
C507 C127 1.811 . S
C512 C374 1.813 . S
C517 C140 1.810 . S
C522 C381 1.811 . S
C527 C153 1.811 . S
C532 C394 1.813 . S
C537 C160 1.812 . S
C542 C335 1.813 . S
C547 C173 1.811 . S
C552 C342 1.810 . S
C557 C192 1.810 . S
C562 C361 1.811 . S
C567 C199 1.812 . S
C572 C322 1.813 . S
C577 C4 1.329 . S
C582 C161 1.329 . S
C587 C382 1.329 . S
C592 C16 1.327 . S
C597 C36 1.329 . S
C602 C185 1.329 . S
C607 C408 1.328 . S
C612 C42 1.328 . S
C617 C107 1.329 . S
C622 C62 1.329 . S
C627 C70 1.329 . S
C632 C328 1.327 . S
C637 C82 1.328 . S
C642 C133 1.330 . S
C647 C96 1.329 . S
C652 C354 1.327 . S
C657 C278 1.329 . S
C662 C120 1.327 . S
C667 C304 1.327 . S
C672 C146 1.329 . S
C677 C174 1.329 . S
C682 C224 1.327 . S
C687 C252 1.329 . S
C692 C200 1.327 . S
C697 C367 1.330 . S
C702 C218 1.328 . S
C707 C238 1.328 . S
C712 C395 1.330 . S
C717 C315 1.329 . S
C722 C270 1.329 . S
C727 C343 1.329 . S
C732 C296 1.329 . S
C737 C56 1.288 . S
C742 C10 1.288 . S
C747 C68 1.288 . S
C752 C18 1.288 . S
C757 C30 1.288 . S
C762 C88 1.288 . S
C767 C44 1.286 . S
C772 C94 1.286 . S
C777 C159 1.297 . S
C782 C109 1.297 . S
C787 C172 1.290 . S
C792 C122 1.290 . S
C797 C187 1.299 . S
C802 C135 1.299 . S
C807 C148 1.292 . S
C812 C198 1.292 . S
C817 C212 1.288 . S
C822 C264 1.288 . S
C827 C226 1.288 . S
C832 C276 1.288 . S
C837 C244 1.288 . S
C842 C290 1.288 . S
C847 C250 1.288 . S
C852 C302 1.288 . S
C857 C369 1.297 . S
C862 C317 1.297 . S
C867 C380 1.292 . S
C872 C330 1.292 . S
C877 C393 1.297 . S
C882 C341 1.297 . S
C887 C406 1.292 . S
C892 C356 1.292 . S
C897 C400 1.785 . S
C902 C3 1.781 . S
C907 C17 1.783 . S
C912 C205 1.784 . S
C917 C368 1.785 . S
C922 C31 1.781 . S
C927 C43 1.783 . S
C932 C179 1.784 . S
C937 C348 1.784 . S
C942 C57 1.782 . S
C947 C75 1.785 . S
C952 C147 1.782 . S
C957 C81 1.780 . S
C962 C316 1.786 . S
C967 C121 1.784 . S
C972 C101 1.783 . S
C977 C108 1.785 . S
C982 C291 1.781 . S
C987 C265 1.780 . S
C992 C134 1.785 . S
C997 C166 1.785 . S
C1002 C237 1.781 . S
C1007 C186 1.786 . S
C1012 C213 1.780 . S
C1017 C413 1.783 . S
C1022 C225 1.784 . S
C1027 C257 1.785 . S
C1032 C387 1.782 . S
C1037 C283 1.785 . S
C1042 C355 1.782 . S
C1047 C329 1.782 . S
C1052 C309 1.785 . S
