# Generated by pormake.
# Topology una, (4)-cn, num edge types: 1
# Building blocks:
#     Node 0, Type 0, BuildingBlock: UXUYUI_clean_sbu_0, # of connection points: 4
#     Node 1, Type 0, BuildingBlock: UXUYUI_clean_sbu_0, # of connection points: 4
#     Node 2, Type 0, BuildingBlock: UXUYUI_clean_sbu_0, # of connection points: 4
#     Node 3, Type 0, BuildingBlock: UXUYUI_clean_sbu_0, # of connection points: 4
#     Node 4, Type 0, BuildingBlock: UXUYUI_clean_sbu_0, # of connection points: 4
#     Node 5, Type 0, BuildingBlock: UXUYUI_clean_sbu_0, # of connection points: 4
#     Node 6, Type 0, BuildingBlock: UXUYUI_clean_sbu_0, # of connection points: 4
#     Node 7, Type 0, BuildingBlock: UXUYUI_clean_sbu_0, # of connection points: 4
#     Node 8, Type 0, BuildingBlock: UXUYUI_clean_sbu_0, # of connection points: 4
#     Node 9, Type 0, BuildingBlock: UXUYUI_clean_sbu_0, # of connection points: 4
#     Node 10, Type 0, BuildingBlock: UXUYUI_clean_sbu_0, # of connection points: 4
#     Node 11, Type 0, BuildingBlock: UXUYUI_clean_sbu_0, # of connection points: 4
#     Edge 12, Type (0, 0), None
#     Edge 13, Type (0, 0), None
#     Edge 14, Type (0, 0), None
#     Edge 15, Type (0, 0), None
#     Edge 16, Type (0, 0), None
#     Edge 17, Type (0, 0), None
#     Edge 18, Type (0, 0), None
#     Edge 19, Type (0, 0), None
#     Edge 20, Type (0, 0), None
#     Edge 21, Type (0, 0), None
#     Edge 22, Type (0, 0), None
#     Edge 23, Type (0, 0), None
#     Edge 24, Type (0, 0), None
#     Edge 25, Type (0, 0), None
#     Edge 26, Type (0, 0), None
#     Edge 27, Type (0, 0), None
#     Edge 28, Type (0, 0), None
#     Edge 29, Type (0, 0), None
#     Edge 30, Type (0, 0), None
#     Edge 31, Type (0, 0), None
#     Edge 32, Type (0, 0), None
#     Edge 33, Type (0, 0), None
#     Edge 34, Type (0, 0), None
#     Edge 35, Type (0, 0), None
# Relax obj value: 0.208
# Max RMSD: 0.213
# Mean RMSD: 0.213
data_MOF--net-una--node1-UXUYUI_clean_sbu_0--edge1-none
_symmetry_space_group_name_H-M    P1
_symmetry_Int_Tables_number       1
_symmetry_cell_setting            triclinic
loop_
_symmetry_equiv_pos_as_xyz
'x, y, z'
_cell_length_a     52.04727
_cell_length_b     52.050068
_cell_length_c     20.222994
_cell_angle_alpha  89.999415
_cell_angle_beta   90.001168
_cell_angle_gamma 119.99471
loop_
_atom_site_label
_atom_site_type_symbol
_atom_site_fract_x
_atom_site_fract_y
_atom_site_fract_z
_atom_type_partial_charge
Li0 Li 0.13793 0.4686 0.05724 0.0
Li1 Li 0.14696 0.42882 0.09768 0.0
Li2 Li 0.15806 0.44685 0.98667 0.0
Li3 Li 0.10667 0.41914 0.01427 0.0
C4 C 0.20416 0.48701 0.0481 0.0
N5 N 0.26117 0.52152 1.00037 0.0
C6 C 0.2254 0.47851 0.05879 0.0
C7 C 0.21194 0.51312 0.01337 0.0
C8 C 0.25409 0.49623 0.03416 0.0
C9 C 0.24089 0.53027 0.98964 0.0
C10 C 0.09879 0.44345 0.15297 0.0
C11 C 0.05855 0.44931 0.19426 0.0
N12 N 0.07713 0.46899 0.24001 0.0
C13 C 0.11742 0.4635 0.20082 0.0
C14 C 0.06907 0.43611 0.1499 0.0
C15 C 0.10608 0.47628 0.24418 0.0
C16 C 0.11374 0.5065 0.06525 0.0
N17 N 0.13792 0.50413 0.08049 0.0
C18 C 0.16205 0.55253 0.12866 0.0
C19 C 0.16175 0.52634 0.11202 0.0
C20 C 0.13741 0.55564 0.11361 0.0
C21 C 0.11291 0.53214 0.08194 0.0
H22 H 0.09508 0.4884 0.04028 0.0
H23 H 0.18049 0.52368 0.12443 0.0
C24 C 0.18008 0.40443 0.15008 0.0
N25 N 0.16232 0.41549 0.16804 0.0
C26 C 0.19719 0.40009 0.19733 0.0
C27 C 0.17625 0.4171 0.28143 0.0
C28 C 0.1595 0.42106 0.23251 0.0
C29 C 0.19615 0.40731 0.26392 0.0
H30 H 0.1822 0.40047 0.09838 0.0
H31 H 0.14539 0.42995 0.24574 0.0
C32 C 0.1194 0.45178 0.89971 0.0
N33 N 0.10203 0.44062 0.76882 0.0
C34 C 0.11887 0.4279 0.86669 0.0
C35 C 0.11108 0.46994 0.86615 0.0
C36 C 0.11003 0.42264 0.80054 0.0
C37 C 0.10238 0.46395 0.79998 0.0
C38 C 0.12247 0.37537 0.02912 0.0
C39 C 0.12744 0.35613 0.99003 0.0
C40 C 0.10335 0.36418 0.08342 0.0
C41 C 0.11311 0.32597 0.00574 0.0
C42 C 0.08946 0.33388 0.09753 0.0
N43 N 0.09457 0.31556 0.05872 0.0
C44 C 0.19535 0.43346 0.91599 0.0
C45 C 0.19414 0.47527 0.87283 0.0
C46 C 0.21401 0.43486 0.86512 0.0
N47 N 0.18554 0.45321 0.91833 0.0
C48 C 0.2132 0.47775 0.82143 0.0
C49 C 0.22286 0.45706 0.81708 0.0
H50 H 0.18825 0.41631 0.95317 0.0
H51 H 0.18586 0.49059 0.87596 0.0
C52 C 0.0506 0.4065 0.97062 0.0
N53 N 0.06817 0.39414 0.97516 0.0
C54 C 0.02509 0.39345 0.93135 0.0
C55 C 0.03584 0.35484 0.90219 0.0
C56 C 0.06115 0.36861 0.94232 0.0
C57 C 0.01768 0.36757 0.89513 0.0
H58 H 0.05723 0.42741 0.99494 0.0
H59 H 0.07595 0.35974 0.94398 0.0
O60 O 0.17575 0.46958 0.07034 0.0
O61 O 0.10963 0.4312 0.10908 0.0
O62 O 0.12741 0.45717 0.9649 0.0
O63 O 0.13648 0.40494 0.01393 0.0
H64 H 0.21975 0.45835 0.08536 0.0
H65 H 0.19567 0.51981 0.0038 0.0
H66 H 0.27071 0.48985 0.04179 0.0
H67 H 0.24716 0.55043 0.96232 0.0
H68 H 0.03561 0.4439 0.19231 0.0
H69 H 0.14059 0.46976 0.20326 0.0
H70 H 0.05424 0.42032 0.11384 0.0
H71 H 0.12035 0.49212 0.2809 0.0
H72 H 0.1812 0.57002 0.1538 0.0
H73 H 0.09356 0.53378 0.06924 0.0
H74 H 0.2118 0.39208 0.18144 0.0
H75 H 0.17482 0.4233 0.33181 0.0
H76 H 0.12502 0.41344 0.89183 0.0
H77 H 0.11124 0.48842 0.89114 0.0
H78 H 0.10947 0.40422 0.77446 0.0
H79 H 0.09584 0.47781 0.77342 0.0
H80 H 0.14213 0.36441 0.94775 0.0
H81 H 0.09925 0.37859 0.11457 0.0
H82 H 0.11671 0.31083 0.9758 0.0
H83 H 0.07462 0.32492 0.13937 0.0
H84 H 0.22116 0.41858 0.86271 0.0
H85 H 0.2196 0.49498 0.78454 0.0
H86 H 0.01164 0.40392 0.92847 0.0
H87 H 0.03138 0.33521 0.8746 0.0
Li88 Li 0.67249 0.13637 0.22391 0.0
Li89 Li 0.7213 0.14539 0.26436 0.0
Li90 Li 0.71437 0.15649 0.15334 0.0
Li91 Li 0.69069 0.10511 0.18094 0.0
C92 C 0.7203 0.20259 0.21477 0.0
N93 N 0.7428 0.2596 0.16705 0.0
C94 C 0.75003 0.22382 0.22545 0.0
C95 C 0.70196 0.21038 0.18006 0.0
C96 C 0.761 0.25251 0.20082 0.0
C97 C 0.71376 0.23932 0.15633 0.0
C98 C 0.6585 0.09722 0.31963 0.0
C99 C 0.6124 0.05699 0.36091 0.0
N100 N 0.61129 0.07556 0.40666 0.0
C101 C 0.65706 0.11584 0.3675 0.0
C102 C 0.63611 0.0675 0.31656 0.0
C103 C 0.63295 0.10451 0.41085 0.0
C104 C 0.6104 0.11218 0.23191 0.0
N105 N 0.63694 0.13635 0.24716 0.0
C106 C 0.61267 0.16048 0.29535 0.0
C107 C 0.63855 0.16018 0.2787 0.0
C108 C 0.58492 0.13584 0.28028 0.0
C109 C 0.58393 0.11135 0.24861 0.0
H110 H 0.60984 0.09352 0.20694 0.0
H111 H 0.65995 0.17892 0.29111 0.0
C112 C 0.77881 0.17851 0.31676 0.0
N113 N 0.74998 0.16074 0.33472 0.0
C114 C 0.80025 0.19561 0.36401 0.0
C115 C 0.7623 0.17467 0.4481 0.0
C116 C 0.74159 0.15793 0.39919 0.0
C117 C 0.79198 0.19457 0.4306 0.0
H118 H 0.78488 0.18062 0.26506 0.0
H119 H 0.71859 0.14382 0.41241 0.0
C120 C 0.67079 0.11785 0.06638 0.0
N121 N 0.66458 0.10048 0.93549 0.0
C122 C 0.69413 0.11731 0.03337 0.0
C123 C 0.64431 0.10953 0.03281 0.0
C124 C 0.69055 0.10847 0.96721 0.0
C125 C 0.6416 0.10083 0.96664 0.0
C126 C 0.75026 0.12089 0.1958 0.0
C127 C 0.77446 0.12585 0.15669 0.0
C128 C 0.74233 0.10178 0.25011 0.0
C129 C 0.79029 0.11151 0.17241 0.0
C130 C 0.75874 0.08788 0.26421 0.0
N131 N 0.78216 0.09298 0.22539 0.0
C132 C 0.76504 0.19377 0.08265 0.0
C133 C 0.72203 0.19258 0.03952 0.0
C134 C 0.7823 0.21242 0.03178 0.0
N135 N 0.73549 0.18397 0.085 0.0
C136 C 0.7386 0.21164 0.98812 0.0
C137 C 0.76896 0.22128 0.98375 0.0
H138 H 0.77508 0.18665 0.11982 0.0
H139 H 0.69842 0.18431 0.04266 0.0
C140 C 0.64725 0.04904 0.13728 0.0
N141 N 0.67719 0.0666 0.14183 0.0
C142 C 0.63479 0.02353 0.09801 0.0
C143 C 0.68416 0.03427 0.06887 0.0
C144 C 0.69569 0.05957 0.109 0.0
C145 C 0.65326 0.01612 0.06181 0.0
H146 H 0.63298 0.05568 0.16159 0.0
H147 H 0.71936 0.07437 0.11067 0.0
O148 O 0.70932 0.17418 0.23701 0.0
O149 O 0.68159 0.10807 0.27575 0.0
O150 O 0.6734 0.12585 0.13157 0.0
O151 O 0.73469 0.1349 0.1806 0.0
H152 H 0.76455 0.21817 0.252 0.0
H153 H 0.679 0.1941 0.1705 0.0
H154 H 0.78401 0.26913 0.20845 0.0
H155 H 0.69988 0.2456 0.12902 0.0
H156 H 0.59487 0.03405 0.35895 0.0
H157 H 0.67398 0.13902 0.36994 0.0
H158 H 0.63708 0.05267 0.2805 0.0
H159 H 0.63137 0.11877 0.44757 0.0
H160 H 0.61432 0.17962 0.32049 0.0
H161 H 0.56295 0.092 0.2359 0.0
H162 H 0.82286 0.21021 0.34811 0.0
H163 H 0.75467 0.17325 0.49848 0.0
H164 H 0.71474 0.12345 0.05851 0.0
H165 H 0.62599 0.10969 0.0578 0.0
H166 H 0.70841 0.1079 0.94113 0.0
H167 H 0.6212 0.09431 0.94008 0.0
H168 H 0.78086 0.14053 0.1144 0.0
H169 H 0.72382 0.09769 0.28127 0.0
H170 H 0.80902 0.1151 0.14245 0.0
H171 H 0.75285 0.07304 0.30607 0.0
H172 H 0.80573 0.21956 0.02936 0.0
H173 H 0.72777 0.21804 0.95124 0.0
H174 H 0.61087 0.01009 0.09513 0.0
H175 H 0.69932 0.0298 0.04129 0.0
Li176 Li 0.57904 0.71972 0.43104 0.0
Li177 Li 0.53926 0.67092 0.3906 0.0
Li178 Li 0.58871 0.68911 0.34763 0.0
Li179 Li 0.56101 0.7128 0.32003 0.0
C180 C 0.56441 0.65693 0.48632 0.0
N181 N 0.53885 0.60973 0.57337 0.0
C182 C 0.54436 0.6555 0.53419 0.0
C183 C 0.57174 0.63453 0.48326 0.0
C184 C 0.53157 0.63139 0.57755 0.0
C185 C 0.55853 0.61082 0.52761 0.0
C186 C 0.52083 0.71873 0.38146 0.0
C187 C 0.47757 0.71219 0.323 0.0
N188 N 0.48631 0.74122 0.33373 0.0
C189 C 0.52933 0.74846 0.39215 0.0
C190 C 0.49472 0.7004 0.34673 0.0
C191 C 0.5116 0.75943 0.36752 0.0
C192 C 0.60342 0.77723 0.48343 0.0
N193 N 0.59237 0.74841 0.50141 0.0
C194 C 0.59077 0.76073 0.61479 0.0
C195 C 0.58681 0.74002 0.56588 0.0
C196 C 0.60055 0.79041 0.59727 0.0
C197 C 0.60776 0.79867 0.53068 0.0
H198 H 0.60737 0.7833 0.43173 0.0
H199 H 0.57792 0.71702 0.57911 0.0
C200 C 0.50136 0.60883 0.39859 0.0
N201 N 0.50373 0.63538 0.41384 0.0
C202 C 0.47573 0.58237 0.41528 0.0
C203 C 0.45533 0.61111 0.46202 0.0
C204 C 0.48151 0.63699 0.44538 0.0
C205 C 0.45222 0.58335 0.44695 0.0
H206 H 0.51946 0.60828 0.37362 0.0
H207 H 0.48417 0.65839 0.4578 0.0
C208 C 0.63249 0.74868 0.36248 0.0
N209 N 0.69231 0.78058 0.39207 0.0
C210 C 0.65173 0.77288 0.32338 0.0
C211 C 0.64368 0.74075 0.41678 0.0
C212 C 0.6819 0.7887 0.33909 0.0
C213 C 0.67399 0.75715 0.43089 0.0
C214 C 0.55608 0.66922 0.23306 0.0
C215 C 0.57995 0.69256 0.20005 0.0
C216 C 0.53791 0.64274 0.1995 0.0
C217 C 0.58521 0.68898 0.1339 0.0
C218 C 0.5439 0.64003 0.13333 0.0
N219 N 0.56723 0.66301 0.10218 0.0
C220 C 0.60135 0.64568 0.30397 0.0
C221 C 0.63925 0.69411 0.27567 0.0
C222 C 0.6144 0.63322 0.26469 0.0
N223 N 0.61372 0.67561 0.30851 0.0
C224 C 0.65301 0.68258 0.23554 0.0
C225 C 0.64028 0.65169 0.22848 0.0
H226 H 0.58044 0.6314 0.32828 0.0
H227 H 0.64812 0.71778 0.27735 0.0
C228 C 0.5744 0.76348 0.24936 0.0
N229 N 0.55465 0.73392 0.2517 0.0
C230 C 0.573 0.78073 0.19849 0.0
C231 C 0.5301 0.73704 0.1548 0.0
C232 C 0.53258 0.72046 0.2062 0.0
C233 C 0.55081 0.76739 0.15044 0.0
H234 H 0.59155 0.77351 0.28654 0.0
H235 H 0.51726 0.69686 0.20933 0.0
O236 O 0.57665 0.68001 0.44244 0.0
O237 O 0.53827 0.70775 0.4037 0.0
O238 O 0.60292 0.73312 0.34729 0.0
O239 O 0.55068 0.67183 0.29826 0.0
H240 H 0.5381 0.67242 0.53662 0.0
H241 H 0.58753 0.63549 0.44719 0.0
H242 H 0.51574 0.62982 0.61427 0.0
H243 H 0.56393 0.59328 0.52566 0.0
H244 H 0.45741 0.69831 0.29568 0.0
H245 H 0.54949 0.76297 0.41871 0.0
H246 H 0.48804 0.67744 0.33717 0.0
H247 H 0.51798 0.78243 0.37515 0.0
H248 H 0.58458 0.75311 0.66518 0.0
H249 H 0.61577 0.82128 0.51478 0.0
H250 H 0.47409 0.56138 0.40256 0.0
H251 H 0.43783 0.61276 0.48717 0.0
H252 H 0.64345 0.77929 0.2811 0.0
H253 H 0.62927 0.72224 0.44794 0.0
H254 H 0.69703 0.80744 0.30915 0.0
H255 H 0.68294 0.75126 0.47274 0.0
H256 H 0.59442 0.71316 0.2252 0.0
H257 H 0.51943 0.62442 0.22449 0.0
H258 H 0.60363 0.70683 0.10782 0.0
H259 H 0.53004 0.61963 0.10677 0.0
H260 H 0.60392 0.6093 0.26181 0.0
H261 H 0.67265 0.69774 0.20795 0.0
H262 H 0.58928 0.80416 0.19608 0.0
H263 H 0.51287 0.72621 0.1179 0.0
Li264 Li 0.87149 0.53769 0.55725 0.0
Li265 Li 0.86246 0.57747 0.59769 0.0
Li266 Li 0.85136 0.55944 0.48668 0.0
Li267 Li 0.90275 0.58715 0.51428 0.0
C268 C 0.80526 0.51928 0.54811 0.0
N269 N 0.74825 0.48477 0.50039 0.0
C270 C 0.78403 0.52778 0.5588 0.0
C271 C 0.79748 0.49317 0.51338 0.0
C272 C 0.75534 0.51006 0.53417 0.0
C273 C 0.76853 0.47602 0.48965 0.0
C274 C 0.91064 0.56285 0.65298 0.0
C275 C 0.95088 0.55698 0.69428 0.0
N276 N 0.9323 0.5373 0.74003 0.0
C277 C 0.89201 0.54279 0.70084 0.0
C278 C 0.94036 0.57018 0.64992 0.0
C279 C 0.90335 0.53001 0.7442 0.0
C280 C 0.89568 0.49979 0.56526 0.0
N281 N 0.87151 0.50216 0.5805 0.0
C282 C 0.84737 0.45376 0.62867 0.0
C283 C 0.84768 0.47995 0.61203 0.0
C284 C 0.87202 0.45065 0.61362 0.0
C285 C 0.89651 0.47415 0.58195 0.0
H286 H 0.91434 0.51789 0.5403 0.0
H287 H 0.82893 0.48261 0.62444 0.0
C288 C 0.82934 0.60187 0.65009 0.0
N289 N 0.84711 0.5908 0.66805 0.0
C290 C 0.81224 0.6062 0.69734 0.0
C291 C 0.83318 0.58919 0.78143 0.0
C292 C 0.84993 0.58524 0.73252 0.0
C293 C 0.81328 0.59898 0.76393 0.0
H294 H 0.82723 0.60583 0.59839 0.0
H295 H 0.86403 0.57634 0.74575 0.0
C296 C 0.89002 0.55451 0.39972 0.0
N297 N 0.90739 0.56567 0.26884 0.0
C298 C 0.89055 0.57839 0.3667 0.0
C299 C 0.89834 0.53635 0.36617 0.0
C300 C 0.89939 0.58364 0.30055 0.0
C301 C 0.90705 0.54234 0.3 0.0
C302 C 0.88695 0.63093 0.52913 0.0
C303 C 0.88198 0.65016 0.49003 0.0
C304 C 0.90608 0.64211 0.58342 0.0
C305 C 0.89632 0.68033 0.50575 0.0
C306 C 0.91997 0.67242 0.59753 0.0
N307 N 0.91486 0.69074 0.55872 0.0
C308 C 0.81407 0.57283 0.416 0.0
C309 C 0.81528 0.53102 0.37285 0.0
C310 C 0.79541 0.57143 0.36512 0.0
N311 N 0.82388 0.55308 0.41834 0.0
C312 C 0.79623 0.52854 0.32144 0.0
C313 C 0.78656 0.54923 0.31709 0.0
H314 H 0.82117 0.58998 0.45318 0.0
H315 H 0.82357 0.5157 0.37597 0.0
C316 C 0.95883 0.59979 0.47063 0.0
N317 N 0.94125 0.61215 0.47516 0.0
C318 C 0.98434 0.61284 0.43136 0.0
C319 C 0.97358 0.65145 0.40218 0.0
C320 C 0.94827 0.63768 0.44232 0.0
C321 C 0.99174 0.63872 0.39514 0.0
H322 H 0.9522 0.57888 0.49495 0.0
H323 H 0.93347 0.64655 0.44398 0.0
O324 O 0.83368 0.53671 0.57035 0.0
O325 O 0.89979 0.57509 0.60909 0.0
O326 O 0.88201 0.54912 0.46491 0.0
O327 O 0.87294 0.60135 0.51394 0.0
H328 H 0.78968 0.54795 0.58537 0.0
H329 H 0.81375 0.48648 0.50381 0.0
H330 H 0.73871 0.51645 0.54181 0.0
H331 H 0.76225 0.45587 0.46233 0.0
H332 H 0.97382 0.56239 0.69233 0.0
H333 H 0.86883 0.53653 0.70327 0.0
H334 H 0.95519 0.58598 0.61386 0.0
H335 H 0.88908 0.51417 0.78091 0.0
H336 H 0.82822 0.43627 0.65381 0.0
H337 H 0.91586 0.47251 0.56925 0.0
H338 H 0.79763 0.61421 0.68144 0.0
H339 H 0.83461 0.58299 0.83182 0.0
H340 H 0.8844 0.59285 0.39184 0.0
H341 H 0.89819 0.51787 0.39116 0.0
H342 H 0.89995 0.60206 0.27446 0.0
H343 H 0.91358 0.52847 0.27344 0.0
H344 H 0.86729 0.64188 0.44776 0.0
H345 H 0.91018 0.6277 0.61457 0.0
H346 H 0.89272 0.69546 0.4758 0.0
H347 H 0.93481 0.68137 0.63938 0.0
H348 H 0.78826 0.58771 0.36271 0.0
H349 H 0.78983 0.51131 0.28455 0.0
H350 H 0.99778 0.60237 0.42849 0.0
H351 H 0.97804 0.67108 0.37459 0.0
Li352 Li 0.28812 0.8609 0.76436 0.0
Li353 Li 0.33693 0.86992 0.72391 0.0
Li354 Li 0.31873 0.90118 0.68095 0.0
Li355 Li 0.29505 0.8498 0.65335 0.0
C356 C 0.35092 0.90906 0.81964 0.0
N357 N 0.39812 0.93072 0.90668 0.0
C358 C 0.35235 0.89044 0.8675 0.0
C359 C 0.3733 0.93878 0.81658 0.0
C360 C 0.37646 0.90177 0.91086 0.0
C361 C 0.39702 0.9493 0.86093 0.0
C362 C 0.28912 0.80369 0.71478 0.0
C363 C 0.29565 0.76697 0.65633 0.0
N364 N 0.26662 0.74668 0.66705 0.0
C365 C 0.25938 0.78247 0.72545 0.0
C366 C 0.30745 0.79591 0.68006 0.0
C367 C 0.24841 0.75377 0.70082 0.0
C368 C 0.23061 0.82778 0.81675 0.0
N369 N 0.25944 0.84554 0.83472 0.0
C370 C 0.24712 0.83161 0.9481 0.0
C371 C 0.26782 0.84836 0.89919 0.0
C372 C 0.21743 0.81171 0.93059 0.0
C373 C 0.20917 0.81068 0.86401 0.0
H374 H 0.22454 0.82567 0.76505 0.0
H375 H 0.29083 0.86246 0.91242 0.0
C376 C 0.39902 0.89411 0.73192 0.0
N377 N 0.37247 0.86993 0.74716 0.0
C378 C 0.42549 0.89494 0.74861 0.0
C379 C 0.39675 0.8458 0.79535 0.0
C380 C 0.37087 0.84611 0.7787 0.0
C381 C 0.4245 0.87045 0.78028 0.0
H382 H 0.39957 0.91276 0.70695 0.0
H383 H 0.34947 0.82737 0.79111 0.0
C384 C 0.25916 0.88539 0.69579 0.0
N385 N 0.22726 0.91331 0.72539 0.0
C386 C 0.23496 0.88043 0.65669 0.0
C387 C 0.26709 0.90451 0.7501 0.0
C388 C 0.21913 0.89478 0.6724 0.0
C389 C 0.25068 0.91841 0.76421 0.0
C390 C 0.33863 0.88844 0.56638 0.0
C391 C 0.31529 0.88898 0.53337 0.0
C392 C 0.36511 0.89675 0.53282 0.0
C393 C 0.31887 0.89781 0.46721 0.0
C394 C 0.36782 0.90546 0.46665 0.0
N395 N 0.34484 0.90581 0.43549 0.0
C396 C 0.36217 0.95725 0.6373 0.0
C397 C 0.31373 0.94671 0.60899 0.0
C398 C 0.37462 0.98276 0.59803 0.0
N399 N 0.33223 0.93968 0.64183 0.0
C400 C 0.32526 0.97201 0.56886 0.0
C401 C 0.35616 0.99017 0.56181 0.0
H402 H 0.37644 0.95061 0.66161 0.0
H403 H 0.29006 0.93192 0.61066 0.0
C404 C 0.24437 0.81252 0.58265 0.0
N405 N 0.27393 0.82232 0.58501 0.0
C406 C 0.22712 0.79386 0.53178 0.0
C407 C 0.27082 0.79465 0.48812 0.0
C408 C 0.28739 0.8137 0.53952 0.0
C409 C 0.24046 0.785 0.48375 0.0
H410 H 0.23433 0.81963 0.61982 0.0
H411 H 0.311 0.82198 0.54266 0.0
O412 O 0.32783 0.89822 0.77576 0.0
O413 O 0.3001 0.83211 0.73701 0.0
O414 O 0.27472 0.87138 0.6806 0.0
O415 O 0.33602 0.88043 0.63157 0.0
H416 H 0.33544 0.86726 0.86993 0.0
H417 H 0.37233 0.95361 0.78052 0.0
H418 H 0.37804 0.88751 0.94758 0.0
H419 H 0.41455 0.97224 0.85898 0.0
H420 H 0.30954 0.76068 0.62902 0.0
H421 H 0.24487 0.78812 0.75201 0.0
H422 H 0.33041 0.81218 0.6705 0.0
H423 H 0.22541 0.73716 0.70845 0.0
H424 H 0.25475 0.83303 0.99848 0.0
H425 H 0.18656 0.79607 0.84811 0.0
H426 H 0.44647 0.91429 0.7359 0.0
H427 H 0.3951 0.82666 0.82049 0.0
H428 H 0.22855 0.86575 0.6144 0.0
H429 H 0.2856 0.9086 0.78126 0.0
H430 H 0.2004 0.89119 0.64245 0.0
H431 H 0.25657 0.93324 0.80606 0.0
H432 H 0.29468 0.88284 0.55851 0.0
H433 H 0.38343 0.89659 0.55781 0.0
H434 H 0.30101 0.89838 0.44113 0.0
H435 H 0.38822 0.91198 0.44009 0.0
H436 H 0.39854 0.9962 0.59515 0.0
H437 H 0.3101 0.97648 0.54127 0.0
H438 H 0.20369 0.78672 0.52935 0.0
H439 H 0.28165 0.78824 0.45124 0.0
Li440 Li 0.47017 0.33537 0.8906 0.0
Li441 Li 0.43039 0.28657 0.93105 0.0
Li442 Li 0.44842 0.29349 0.82004 0.0
Li443 Li 0.42071 0.31718 0.84763 0.0
C444 C 0.48859 0.28756 0.88147 0.0
N445 N 0.52311 0.26507 0.83374 0.0
C446 C 0.48009 0.25783 0.89215 0.0
C447 C 0.5147 0.30589 0.84674 0.0
C448 C 0.49782 0.24686 0.86752 0.0
C449 C 0.53185 0.2941 0.82301 0.0
C450 C 0.44502 0.34936 0.98633 0.0
C451 C 0.4509 0.39547 0.02761 0.0
N452 N 0.47058 0.39656 0.07337 0.0
C453 C 0.46507 0.35079 0.03419 0.0
C454 C 0.43769 0.37176 0.98326 0.0
C455 C 0.47786 0.3749 0.07755 0.0
C456 C 0.50807 0.39746 0.89859 0.0
N457 N 0.5057 0.37091 0.91384 0.0
C458 C 0.5541 0.39519 0.96202 0.0
C459 C 0.52792 0.36931 0.94538 0.0
C460 C 0.5572 0.42294 0.94695 0.0
C461 C 0.5337 0.42392 0.91527 0.0
H462 H 0.48996 0.39801 0.87362 0.0
H463 H 0.52526 0.34791 0.9578 0.0
C464 C 0.406 0.22906 0.98344 0.0
N465 N 0.41706 0.25789 1.00141 0.0
C466 C 0.40166 0.20762 0.03069 0.0
C467 C 0.41865 0.24556 0.11479 0.0
C468 C 0.42261 0.26627 0.06588 0.0
C469 C 0.40888 0.21588 0.09728 0.0
H470 H 0.40205 0.22299 0.93173 0.0
H471 H 0.43151 0.28927 0.07911 0.0
C472 C 0.45335 0.33707 0.73306 0.0
N473 N 0.44219 0.34328 0.60218 0.0
C474 C 0.42947 0.31373 0.70006 0.0
C475 C 0.47152 0.36355 0.6995 0.0
C476 C 0.42421 0.31731 0.6339 0.0
C477 C 0.46552 0.36626 0.63333 0.0
C478 C 0.37693 0.25761 0.86249 0.0
C479 C 0.35769 0.23341 0.82339 0.0
C480 C 0.36574 0.26555 0.91679 0.0
C481 C 0.32753 0.21759 0.8391 0.0
C482 C 0.33544 0.24914 0.93089 0.0
N483 N 0.31712 0.22572 0.89208 0.0
C484 C 0.43502 0.24281 0.74937 0.0
C485 C 0.47684 0.28582 0.70621 0.0
C486 C 0.43642 0.22555 0.6985 0.0
N487 N 0.45478 0.27237 0.7517 0.0
C488 C 0.47932 0.26925 0.65481 0.0
C489 C 0.45861 0.23889 0.65045 0.0
H490 H 0.41788 0.23278 0.78655 0.0
H491 H 0.49216 0.30943 0.70933 0.0
C492 C 0.40808 0.36061 0.80397 0.0
N493 N 0.39571 0.33068 0.80851 0.0
C494 C 0.39502 0.37307 0.76469 0.0
C495 C 0.35641 0.32372 0.73554 0.0
C496 C 0.37018 0.31218 0.77568 0.0
C497 C 0.36915 0.35461 0.72848 0.0
H498 H 0.42899 0.37489 0.82828 0.0
H499 H 0.3613 0.28851 0.77735 0.0
O500 O 0.47115 0.29854 0.90371 0.0
O501 O 0.43277 0.32628 0.94244 0.0
O502 O 0.45875 0.33446 0.79826 0.0
O503 O 0.40651 0.27317 0.8473 0.0
H504 H 0.45993 0.24332 0.91872 0.0
H505 H 0.52138 0.32885 0.83717 0.0
H506 H 0.49144 0.22386 0.87516 0.0
H507 H 0.55201 0.30798 0.79569 0.0
H508 H 0.4455 0.41301 0.02566 0.0
H509 H 0.47133 0.33387 0.03663 0.0
H510 H 0.4219 0.3708 0.9472 0.0
H511 H 0.49369 0.37647 0.11427 0.0
H512 H 0.5716 0.39354 0.98717 0.0
H513 H 0.53533 0.44491 0.90256 0.0
H514 H 0.39366 0.18501 0.01478 0.0
H515 H 0.42485 0.25318 0.16518 0.0
H516 H 0.41501 0.29312 0.7252 0.0
H517 H 0.48999 0.38187 0.72449 0.0
H518 H 0.40579 0.29945 0.60782 0.0
H519 H 0.47939 0.38665 0.60677 0.0
H520 H 0.36598 0.227 0.78111 0.0
H521 H 0.38016 0.28406 0.94794 0.0
H522 H 0.31239 0.19885 0.80915 0.0
H523 H 0.32649 0.25503 0.97274 0.0
H524 H 0.42014 0.20213 0.69609 0.0
H525 H 0.49655 0.28007 0.61791 0.0
H526 H 0.40551 0.39699 0.76181 0.0
H527 H 0.33677 0.30855 0.70796 0.0
Li528 Li 0.58872 0.90118 0.89659 0.0
Li529 Li 0.56102 0.8498 0.9242 0.0
Li530 Li 0.57905 0.8609 0.81319 0.0
Li531 Li 0.53927 0.86993 0.85363 0.0
C532 C 0.6325 0.88539 0.88175 0.0
N533 N 0.69232 0.91329 0.85215 0.0
C534 C 0.65175 0.88042 0.92085 0.0
C535 C 0.64369 0.90451 0.82744 0.0
C536 C 0.68191 0.89476 0.90513 0.0
C537 C 0.67399 0.9184 0.81334 0.0
C538 C 0.55609 0.88845 0.01116 0.0
C539 C 0.54391 0.90547 0.11088 0.0
N540 N 0.56724 0.90582 0.14204 0.0
C541 C 0.57996 0.88899 0.04417 0.0
C542 C 0.53792 0.89677 0.04471 0.0
C543 C 0.58522 0.89782 0.11033 0.0
C544 C 0.60136 0.95726 0.94024 0.0
N545 N 0.61373 0.93969 0.93571 0.0
C546 C 0.65302 0.97201 0.00868 0.0
C547 C 0.63926 0.94671 0.96855 0.0
C548 C 0.64029 0.99017 0.01573 0.0
C549 C 0.61441 0.98276 0.97951 0.0
H550 H 0.58045 0.95062 0.91593 0.0
H551 H 0.64813 0.93191 0.96689 0.0
C552 C 0.57441 0.81252 0.9949 0.0
N553 N 0.55466 0.82232 0.99254 0.0
C554 C 0.57301 0.79386 0.04577 0.0
C555 C 0.53011 0.79466 0.08943 0.0
C556 C 0.53259 0.81371 0.03802 0.0
C557 C 0.55081 0.78501 0.0938 0.0
H558 H 0.59156 0.81962 0.95772 0.0
H559 H 0.51726 0.82199 0.03488 0.0
C560 C 0.56442 0.90907 0.7579 0.0
N561 N 0.53887 0.93073 0.67086 0.0
C562 C 0.54436 0.89045 0.71004 0.0
C563 C 0.57176 0.93879 0.76097 0.0
C564 C 0.53158 0.90178 0.66668 0.0
C565 C 0.55856 0.94931 0.71661 0.0
C566 C 0.52085 0.8037 0.86277 0.0
C567 C 0.52936 0.78247 0.85209 0.0
C568 C 0.49474 0.79591 0.89749 0.0
C569 C 0.51164 0.75378 0.87672 0.0
C570 C 0.47759 0.76697 0.92121 0.0
N571 N 0.48635 0.74669 0.91049 0.0
C572 C 0.60344 0.82778 0.76079 0.0
C573 C 0.58681 0.84836 0.67836 0.0
C574 C 0.60778 0.81068 0.71354 0.0
N575 N 0.59238 0.84554 0.74282 0.0
C576 C 0.59076 0.83161 0.62944 0.0
C577 C 0.60055 0.81171 0.64695 0.0
H578 H 0.60741 0.82567 0.81249 0.0
H579 H 0.5779 0.86246 0.66513 0.0
C580 C 0.50136 0.89411 0.84562 0.0
N581 N 0.50374 0.86994 0.83038 0.0
C582 C 0.47572 0.89495 0.82893 0.0
C583 C 0.45533 0.84581 0.78219 0.0
C584 C 0.48152 0.84611 0.79884 0.0
C585 C 0.45222 0.87045 0.79726 0.0
H586 H 0.51946 0.91277 0.87059 0.0
H587 H 0.48418 0.82737 0.78643 0.0
O588 O 0.60293 0.87138 0.89694 0.0
O589 O 0.55069 0.88044 0.94596 0.0
O590 O 0.57666 0.89822 0.80178 0.0
O591 O 0.53828 0.83211 0.84053 0.0
H592 H 0.64346 0.86574 0.96313 0.0
H593 H 0.62927 0.9086 0.79629 0.0
H594 H 0.69705 0.89117 0.93508 0.0
H595 H 0.68295 0.93324 0.77148 0.0
H596 H 0.53004 0.912 0.13744 0.0
H597 H 0.59443 0.88284 0.01903 0.0
H598 H 0.51944 0.89661 0.01972 0.0
H599 H 0.60364 0.89839 0.13641 0.0
H600 H 0.67266 0.97648 0.03627 0.0
H601 H 0.60393 0.99621 0.98239 0.0
H602 H 0.58929 0.78671 0.04819 0.0
H603 H 0.51287 0.78826 0.12631 0.0
H604 H 0.5381 0.86727 0.70761 0.0
H605 H 0.58755 0.95362 0.79702 0.0
H606 H 0.51574 0.88752 0.62996 0.0
H607 H 0.56397 0.97225 0.71856 0.0
H608 H 0.54953 0.78812 0.82553 0.0
H609 H 0.48805 0.81219 0.90704 0.0
H610 H 0.51803 0.73716 0.86909 0.0
H611 H 0.45743 0.76069 0.94853 0.0
H612 H 0.61579 0.79607 0.72943 0.0
H613 H 0.58456 0.83303 0.57906 0.0
H614 H 0.47408 0.91429 0.84163 0.0
H615 H 0.43784 0.82666 0.75705 0.0
Li616 Li 0.71436 0.55944 0.09084 0.0
Li617 Li 0.69067 0.58714 0.06324 0.0
Li618 Li 0.67248 0.53769 0.02028 0.0
Li619 Li 0.72128 0.57747 0.97983 0.0
C620 C 0.67077 0.55451 0.17781 0.0
N621 N 0.66456 0.56567 0.30869 0.0
C622 C 0.69411 0.57838 0.21082 0.0
C623 C 0.64429 0.53634 0.21136 0.0
C624 C 0.69054 0.58364 0.27698 0.0
C625 C 0.64158 0.54234 0.27753 0.0
C626 C 0.75025 0.63092 0.0484 0.0
C627 C 0.75872 0.67241 0.97999 0.0
N628 N 0.78215 0.69073 0.0188 0.0
C629 C 0.77445 0.65016 0.08749 0.0
C630 C 0.74231 0.64211 0.9941 0.0
C631 C 0.79028 0.68032 0.07178 0.0
C632 C 0.76504 0.57283 0.16152 0.0
N633 N 0.73548 0.55308 0.15918 0.0
C634 C 0.7386 0.52854 0.25609 0.0
C635 C 0.72202 0.53102 0.20468 0.0
C636 C 0.76895 0.54923 0.26044 0.0
C637 C 0.78229 0.57142 0.21239 0.0
H638 H 0.77508 0.58997 0.12433 0.0
H639 H 0.69841 0.51569 0.20156 0.0
C640 C 0.64724 0.59978 0.1069 0.0
N641 N 0.67718 0.61215 0.10236 0.0
C642 C 0.63478 0.61284 0.14617 0.0
C643 C 0.68414 0.65144 0.17534 0.0
C644 C 0.69568 0.63768 0.1352 0.0
C645 C 0.65325 0.63871 0.1824 0.0
H646 H 0.63296 0.57888 0.08258 0.0
H647 H 0.71935 0.64654 0.13353 0.0
C648 C 0.72029 0.51927 0.02941 0.0
N649 N 0.74279 0.48476 0.07715 0.0
C650 C 0.75003 0.52777 0.01873 0.0
C651 C 0.70196 0.49316 0.06415 0.0
C652 C 0.761 0.51004 0.04336 0.0
C653 C 0.71376 0.47601 0.08788 0.0
C654 C 0.65849 0.56284 0.92454 0.0
C655 C 0.65706 0.54279 0.87668 0.0
C656 C 0.63609 0.57017 0.92761 0.0
C657 C 0.63295 0.53 0.83332 0.0
C658 C 0.61238 0.55696 0.88325 0.0
N659 N 0.61129 0.53729 0.8375 0.0
C660 C 0.61039 0.49979 0.01227 0.0
C661 C 0.63855 0.47994 0.96549 0.0
C662 C 0.58393 0.47416 0.99559 0.0
N663 N 0.63694 0.50216 0.99703 0.0
C664 C 0.61267 0.45376 0.94886 0.0
C665 C 0.58492 0.45065 0.96392 0.0
H666 H 0.60983 0.51789 0.03724 0.0
H667 H 0.65995 0.4826 0.95308 0.0
C668 C 0.77879 0.60185 0.92744 0.0
N669 N 0.74997 0.5908 0.90947 0.0
C670 C 0.80024 0.60619 0.88019 0.0
C671 C 0.7623 0.5892 0.79609 0.0
C672 C 0.74159 0.58524 0.845 0.0
C673 C 0.79198 0.59897 0.8136 0.0
H674 H 0.78487 0.60581 0.97915 0.0
H675 H 0.71858 0.57634 0.83177 0.0
O676 O 0.67339 0.54911 0.11261 0.0
O677 O 0.73468 0.60135 0.06358 0.0
O678 O 0.70931 0.5367 0.00718 0.0
O679 O 0.68157 0.57508 0.96843 0.0
H680 H 0.71472 0.59284 0.18568 0.0
H681 H 0.62597 0.51787 0.18637 0.0
H682 H 0.70839 0.60206 0.30306 0.0
H683 H 0.62118 0.52847 0.30409 0.0
H684 H 0.75283 0.68137 0.93814 0.0
H685 H 0.78086 0.64187 0.12977 0.0
H686 H 0.7238 0.6277 0.96295 0.0
H687 H 0.80901 0.69546 0.10172 0.0
H688 H 0.72777 0.51131 0.29298 0.0
H689 H 0.80572 0.5877 0.2148 0.0
H690 H 0.61086 0.60236 0.14905 0.0
H691 H 0.69931 0.67108 0.20293 0.0
H692 H 0.76454 0.54793 0.99216 0.0
H693 H 0.679 0.48648 0.07372 0.0
H694 H 0.784 0.51642 0.03572 0.0
H695 H 0.69988 0.45586 0.1152 0.0
H696 H 0.67398 0.53653 0.87425 0.0
H697 H 0.63705 0.58596 0.96367 0.0
H698 H 0.63138 0.51417 0.79661 0.0
H699 H 0.59484 0.56237 0.88519 0.0
H700 H 0.56294 0.47252 0.00829 0.0
H701 H 0.61433 0.43627 0.92372 0.0
H702 H 0.82285 0.6142 0.8961 0.0
H703 H 0.75467 0.583 0.7457 0.0
Li704 Li 0.15806 0.7128 0.25751 0.0
Li705 Li 0.10667 0.68912 0.22991 0.0
Li706 Li 0.13794 0.67092 0.18695 0.0
Li707 Li 0.14696 0.71973 0.1465 0.0
C708 C 0.11942 0.66922 0.34448 0.0
N709 N 0.10205 0.66302 0.47536 0.0
C710 C 0.11888 0.69256 0.37748 0.0
C711 C 0.11111 0.64274 0.37804 0.0
C712 C 0.11004 0.68899 0.44364 0.0
C713 C 0.10241 0.64004 0.44422 0.0
C714 C 0.12246 0.74869 0.21506 0.0
C715 C 0.08944 0.75716 0.14664 0.0
N716 N 0.09454 0.78058 0.18546 0.0
C717 C 0.12742 0.77289 0.25416 0.0
C718 C 0.10334 0.74076 0.16074 0.0
C719 C 0.11307 0.78871 0.23845 0.0
C720 C 0.19534 0.76348 0.3282 0.0
N721 N 0.18554 0.73392 0.32585 0.0
C722 C 0.21321 0.73704 0.42274 0.0
C723 C 0.19416 0.72047 0.37133 0.0
C724 C 0.22285 0.76739 0.4271 0.0
C725 C 0.21399 0.78073 0.37907 0.0
H726 H 0.18823 0.77351 0.29102 0.0
H727 H 0.18588 0.69686 0.3682 0.0
C728 C 0.05061 0.64568 0.27358 0.0
N729 N 0.06817 0.67562 0.26903 0.0
C730 C 0.0251 0.63322 0.31285 0.0
C731 C 0.03583 0.68258 0.34199 0.0
C732 C 0.06113 0.69412 0.30185 0.0
C733 C 0.01769 0.65169 0.34906 0.0
H734 H 0.05725 0.63141 0.24927 0.0
H735 H 0.07593 0.71779 0.30018 0.0
C736 C 0.20417 0.71873 0.19608 0.0
N737 N 0.26118 0.74122 0.24382 0.0
C738 C 0.2254 0.74846 0.18541 0.0
C739 C 0.21195 0.70039 0.2308 0.0
C740 C 0.25409 0.75943 0.21004 0.0
C741 C 0.24089 0.71219 0.25454 0.0
C742 C 0.0988 0.65693 0.09122 0.0
C743 C 0.11742 0.65551 0.04335 0.0
C744 C 0.06908 0.63454 0.09429 0.0
C745 C 0.1061 0.63139 1.0 0.0
C746 C 0.05857 0.61082 0.04994 0.0
N747 N 0.07715 0.60973 0.00418 0.0
C748 C 0.11375 0.60884 0.17895 0.0
C749 C 0.16175 0.63699 0.13216 0.0
C750 C 0.11292 0.58237 0.16226 0.0
N751 N 0.13793 0.63538 0.1637 0.0
C752 C 0.16205 0.6111 0.11551 0.0
C753 C 0.13741 0.58335 0.13058 0.0
H754 H 0.0951 0.60828 0.20393 0.0
H755 H 0.18049 0.65838 0.11974 0.0
C756 C 0.18008 0.77723 0.09411 0.0
N757 N 0.16231 0.74841 0.07613 0.0
C758 C 0.19718 0.79867 0.04686 0.0
C759 C 0.17624 0.76074 0.96275 0.0
C760 C 0.15949 0.74003 0.01167 0.0
C761 C 0.19614 0.79042 0.98027 0.0
H762 H 0.1822 0.78331 0.14581 0.0
H763 H 0.14538 0.71703 0.99843 0.0
O764 O 0.12742 0.67183 0.27928 0.0
O765 O 0.13647 0.73312 0.23025 0.0
O766 O 0.17575 0.70775 0.17384 0.0
O767 O 0.10964 0.68002 0.1351 0.0
H768 H 0.12502 0.71317 0.35234 0.0
H769 H 0.11127 0.62443 0.35306 0.0
H770 H 0.10947 0.70684 0.46972 0.0
H771 H 0.09588 0.61964 0.47078 0.0
H772 H 0.0746 0.75128 0.10478 0.0
H773 H 0.1421 0.77929 0.29645 0.0
H774 H 0.09925 0.72225 0.12959 0.0
H775 H 0.11666 0.80744 0.2684 0.0
H776 H 0.21962 0.72621 0.45963 0.0
H777 H 0.22113 0.80416 0.38149 0.0
H778 H 0.01167 0.6093 0.31574 0.0
H779 H 0.03136 0.69775 0.36957 0.0
H780 H 0.21975 0.76298 0.15885 0.0
H781 H 0.19567 0.67744 0.24036 0.0
H782 H 0.27071 0.78243 0.20241 0.0
H783 H 0.24717 0.69831 0.28185 0.0
H784 H 0.1406 0.67242 0.04091 0.0
H785 H 0.05425 0.6355 0.13036 0.0
H786 H 0.12036 0.62982 0.96328 0.0
H787 H 0.03563 0.59329 0.0519 0.0
H788 H 0.09357 0.56139 0.17498 0.0
H789 H 0.1812 0.61275 0.09036 0.0
H790 H 0.21179 0.82129 0.06276 0.0
H791 H 0.17481 0.75311 0.91237 0.0
Li792 Li 0.4484 0.15649 0.42421 0.0
Li793 Li 0.4207 0.1051 0.3966 0.0
Li794 Li 0.47016 0.13636 0.35364 0.0
Li795 Li 0.43037 0.14539 0.3132 0.0
C796 C 0.45333 0.11784 0.51117 0.0
N797 N 0.44218 0.10047 0.64205 0.0
C798 C 0.42946 0.1173 0.54418 0.0
C799 C 0.4715 0.10952 0.54473 0.0
C800 C 0.4242 0.10846 0.61033 0.0
C801 C 0.46551 0.10081 0.6109 0.0
C802 C 0.37692 0.1209 0.38175 0.0
C803 C 0.33543 0.08789 0.31334 0.0
N804 N 0.3171 0.09299 0.35215 0.0
C805 C 0.35768 0.12586 0.42085 0.0
C806 C 0.36573 0.10178 0.32744 0.0
C807 C 0.32751 0.11153 0.40514 0.0
C808 C 0.43501 0.19377 0.4949 0.0
N809 N 0.45476 0.18397 0.49255 0.0
C810 C 0.47931 0.21163 0.58944 0.0
C811 C 0.47683 0.19257 0.53804 0.0
C812 C 0.45861 0.22128 0.59381 0.0
C813 C 0.43641 0.21243 0.54578 0.0
H814 H 0.41786 0.18666 0.45773 0.0
H815 H 0.49216 0.18429 0.5349 0.0
C816 C 0.40806 0.04903 0.44026 0.0
N817 N 0.39569 0.0666 0.43571 0.0
C818 C 0.39501 0.02352 0.47953 0.0
C819 C 0.35639 0.03427 0.50868 0.0
C820 C 0.37016 0.05957 0.46855 0.0
C821 C 0.36913 0.01612 0.51574 0.0
H822 H 0.42897 0.05567 0.41595 0.0
H823 H 0.36129 0.07437 0.46687 0.0
C824 C 0.48857 0.20259 0.36278 0.0
N825 N 0.52308 0.2596 0.41051 0.0
C826 C 0.48006 0.22382 0.35211 0.0
C827 C 0.51469 0.21037 0.3975 0.0
C828 C 0.49778 0.25251 0.37674 0.0
C829 C 0.53183 0.23931 0.42123 0.0
C830 C 0.445 0.09722 0.25791 0.0
C831 C 0.46506 0.11584 0.21005 0.0
C832 C 0.43766 0.0675 0.26099 0.0
C833 C 0.47784 0.1045 0.1667 0.0
C834 C 0.45086 0.05698 0.21664 0.0
N835 N 0.47055 0.07555 0.17088 0.0
C836 C 0.50806 0.11217 0.34563 0.0
C837 C 0.5279 0.16017 0.29885 0.0
C838 C 0.5337 0.11134 0.32893 0.0
N839 N 0.50569 0.13635 0.33039 0.0
C840 C 0.55409 0.16048 0.2822 0.0
C841 C 0.5572 0.13584 0.29726 0.0
H842 H 0.48996 0.09352 0.3706 0.0
H843 H 0.52524 0.17892 0.28644 0.0
C844 C 0.40598 0.17851 0.26079 0.0
N845 N 0.41705 0.16075 0.24283 0.0
C846 C 0.40164 0.19561 0.21354 0.0
C847 C 0.41866 0.17468 0.12945 0.0
C848 C 0.42262 0.15793 0.17837 0.0
C849 C 0.40888 0.19458 0.14696 0.0
H850 H 0.40202 0.18062 0.31249 0.0
H851 H 0.43152 0.14383 0.16514 0.0
O852 O 0.45873 0.12585 0.44598 0.0
O853 O 0.40649 0.13491 0.39695 0.0
O854 O 0.47114 0.17418 0.34054 0.0
O855 O 0.43276 0.10807 0.30179 0.0
H856 H 0.41499 0.12345 0.51904 0.0
H857 H 0.48998 0.10968 0.51974 0.0
H858 H 0.40577 0.10789 0.63641 0.0
H859 H 0.47938 0.09428 0.63746 0.0
H860 H 0.32648 0.07305 0.27148 0.0
H861 H 0.36596 0.14055 0.46314 0.0
H862 H 0.38015 0.09769 0.29629 0.0
H863 H 0.31237 0.11512 0.43508 0.0
H864 H 0.49655 0.21803 0.62633 0.0
H865 H 0.42013 0.21957 0.5482 0.0
H866 H 0.40549 0.01008 0.48241 0.0
H867 H 0.33676 0.02981 0.53625 0.0
H868 H 0.45989 0.21817 0.32555 0.0
H869 H 0.52137 0.1941 0.40706 0.0
H870 H 0.49139 0.26913 0.36911 0.0
H871 H 0.55199 0.2456 0.44855 0.0
H872 H 0.47132 0.13901 0.20761 0.0
H873 H 0.42187 0.05267 0.29705 0.0
H874 H 0.49368 0.11876 0.12998 0.0
H875 H 0.44545 0.03404 0.21859 0.0
H876 H 0.53534 0.092 0.34164 0.0
H877 H 0.57158 0.17963 0.25706 0.0
H878 H 0.39363 0.21022 0.22944 0.0
H879 H 0.42487 0.17326 0.07907 0.0
Li880 Li 0.29507 0.44685 0.59084 0.0
Li881 Li 0.31875 0.41915 0.56324 0.0
Li882 Li 0.33694 0.4686 0.52028 0.0
Li883 Li 0.28814 0.42883 0.47983 0.0
C884 C 0.33865 0.45178 0.67781 0.0
N885 N 0.34486 0.44062 0.80869 0.0
C886 C 0.31531 0.42791 0.71082 0.0
C887 C 0.36514 0.46995 0.71137 0.0
C888 C 0.31889 0.42265 0.77698 0.0
C889 C 0.36785 0.46395 0.77754 0.0
C890 C 0.25918 0.37537 0.54839 0.0
C891 C 0.25071 0.33388 0.47999 0.0
N892 N 0.22728 0.31556 0.5188 0.0
C893 C 0.23497 0.35614 0.58749 0.0
C894 C 0.26712 0.36418 0.4941 0.0
C895 C 0.21915 0.32597 0.57177 0.0
C896 C 0.24439 0.43347 0.66151 0.0
N897 N 0.27394 0.45321 0.65918 0.0
C898 C 0.27083 0.47775 0.75608 0.0
C899 C 0.2874 0.47527 0.70468 0.0
C900 C 0.24047 0.45706 0.76043 0.0
C901 C 0.22713 0.43487 0.71239 0.0
H902 H 0.23435 0.41632 0.62433 0.0
H903 H 0.31101 0.4906 0.70156 0.0
C904 C 0.36219 0.40651 0.6069 0.0
N905 N 0.33225 0.39414 0.60236 0.0
C906 C 0.37464 0.39345 0.64618 0.0
C907 C 0.32528 0.35485 0.67534 0.0
C908 C 0.31375 0.36862 0.63521 0.0
C909 C 0.35617 0.36758 0.6824 0.0
H910 H 0.37646 0.42741 0.58258 0.0
H911 H 0.29008 0.35975 0.63354 0.0
C912 C 0.28913 0.48702 0.52941 0.0
N913 N 0.26663 0.52153 0.57714 0.0
C914 C 0.2594 0.47852 0.51872 0.0
C915 C 0.30746 0.51313 0.56415 0.0
C916 C 0.24843 0.49625 0.54335 0.0
C917 C 0.29566 0.53028 0.58788 0.0
C918 C 0.35094 0.44345 0.42455 0.0
C919 C 0.35236 0.46351 0.37669 0.0
C920 C 0.37333 0.43612 0.42761 0.0
C921 C 0.37647 0.47629 0.33333 0.0
C922 C 0.39704 0.44932 0.38325 0.0
N923 N 0.39814 0.469 0.3375 0.0
C924 C 0.39904 0.5065 0.51228 0.0
C925 C 0.37087 0.52635 0.4655 0.0
C926 C 0.4255 0.53213 0.49559 0.0
N927 N 0.37249 0.50413 0.49703 0.0
C928 C 0.39675 0.55253 0.44886 0.0
C929 C 0.42451 0.55564 0.46392 0.0
H930 H 0.39959 0.4884 0.53724 0.0
H931 H 0.34947 0.52369 0.45309 0.0
C932 C 0.23063 0.40444 0.42744 0.0
N933 N 0.25945 0.4155 0.40947 0.0
C934 C 0.20919 0.4001 0.38019 0.0
C935 C 0.24713 0.41709 0.29609 0.0
C936 C 0.26784 0.42106 0.345 0.0
C937 C 0.21745 0.40732 0.3136 0.0
H938 H 0.22456 0.40048 0.47914 0.0
H939 H 0.29084 0.42995 0.33177 0.0
O940 O 0.33604 0.45718 0.61262 0.0
O941 O 0.27474 0.40495 0.56358 0.0
O942 O 0.30011 0.46959 0.50718 0.0
O943 O 0.32785 0.43121 0.46844 0.0
H944 H 0.2947 0.41345 0.68568 0.0
H945 H 0.38345 0.48842 0.68638 0.0
H946 H 0.30104 0.40423 0.80306 0.0
H947 H 0.38824 0.47782 0.8041 0.0
H948 H 0.2566 0.32493 0.43815 0.0
H949 H 0.22857 0.36442 0.62976 0.0
H950 H 0.28563 0.3786 0.46295 0.0
H951 H 0.20041 0.31084 0.60171 0.0
H952 H 0.28166 0.49498 0.79298 0.0
H953 H 0.2037 0.41859 0.71479 0.0
H954 H 0.39856 0.40393 0.64906 0.0
H955 H 0.31011 0.33522 0.70293 0.0
H956 H 0.24488 0.45836 0.49215 0.0
H957 H 0.33042 0.51981 0.57372 0.0
H958 H 0.22542 0.48987 0.53571 0.0
H959 H 0.30954 0.55044 0.6152 0.0
H960 H 0.33545 0.46977 0.37426 0.0
H961 H 0.37237 0.42033 0.46367 0.0
H962 H 0.37804 0.49212 0.29661 0.0
H963 H 0.41458 0.44392 0.3852 0.0
H964 H 0.44649 0.53377 0.5083 0.0
H965 H 0.3951 0.57003 0.42372 0.0
H966 H 0.18657 0.39209 0.39609 0.0
H967 H 0.25476 0.42329 0.2457 0.0
Li968 Li 0.90274 0.31717 0.72991 0.0
Li969 Li 0.85136 0.29349 0.75751 0.0
Li970 Li 0.86246 0.28656 0.6465 0.0
Li971 Li 0.87148 0.33536 0.68695 0.0
C972 C 0.88696 0.2576 0.71506 0.0
N973 N 0.91488 0.2257 0.68547 0.0
C974 C 0.882 0.2334 0.75417 0.0
C975 C 0.90608 0.26553 0.66075 0.0
C976 C 0.89635 0.21758 0.73845 0.0
C977 C 0.91998 0.24913 0.64665 0.0
C978 C 0.89 0.33706 0.84448 0.0
C979 C 0.90701 0.36625 0.94422 0.0
N980 N 0.90737 0.34327 0.97537 0.0
C981 C 0.89054 0.31372 0.87749 0.0
C982 C 0.89831 0.36354 0.87804 0.0
C983 C 0.89938 0.3173 0.94365 0.0
C984 C 0.95881 0.3606 0.77357 0.0
N985 N 0.94125 0.33067 0.76903 0.0
C986 C 0.97358 0.32371 0.842 0.0
C987 C 0.94828 0.31217 0.80187 0.0
C988 C 0.99173 0.3546 0.84906 0.0
C989 C 0.98432 0.37306 0.81285 0.0
H990 H 0.95217 0.37488 0.74926 0.0
H991 H 0.93349 0.2885 0.80019 0.0
C992 C 0.81408 0.24281 0.8282 0.0
N993 N 0.82388 0.27236 0.82585 0.0
C994 C 0.79542 0.22555 0.87907 0.0
C995 C 0.79621 0.26925 0.92274 0.0
C996 C 0.81526 0.28582 0.87134 0.0
C997 C 0.78656 0.23889 0.9271 0.0
H998 H 0.82119 0.23277 0.79102 0.0
H999 H 0.82354 0.30942 0.8682 0.0
C1000 C 0.91062 0.34935 0.59122 0.0
N1001 N 0.93226 0.39655 0.50418 0.0
C1002 C 0.89199 0.35078 0.54336 0.0
C1003 C 0.94034 0.37174 0.59429 0.0
C1004 C 0.90332 0.37489 0.5 0.0
C1005 C 0.95085 0.39546 0.54993 0.0
C1006 C 0.80525 0.28756 0.69608 0.0
C1007 C 0.78402 0.25783 0.68541 0.0
C1008 C 0.79747 0.30589 0.73081 0.0
C1009 C 0.75533 0.24686 0.71004 0.0
C1010 C 0.76853 0.2941 0.75454 0.0
N1011 N 0.74824 0.26507 0.74382 0.0
C1012 C 0.82934 0.22905 0.59411 0.0
C1013 C 0.84993 0.26626 0.51167 0.0
C1014 C 0.81224 0.20761 0.54686 0.0
N1015 N 0.8471 0.25787 0.57614 0.0
C1016 C 0.83318 0.24555 0.46276 0.0
C1017 C 0.81328 0.21587 0.48027 0.0
H1018 H 0.82722 0.22298 0.64581 0.0
H1019 H 0.86403 0.28926 0.49844 0.0
C1020 C 0.89567 0.39745 0.67896 0.0
N1021 N 0.87149 0.37091 0.6637 0.0
C1022 C 0.8965 0.42392 0.66227 0.0
C1023 C 0.84737 0.39518 0.61552 0.0
C1024 C 0.84767 0.3693 0.63216 0.0
C1025 C 0.87201 0.42293 0.63059 0.0
H1026 H 0.91432 0.398 0.70393 0.0
H1027 H 0.82893 0.3479 0.61974 0.0
O1028 O 0.87295 0.27316 0.73025 0.0
O1029 O 0.88199 0.33445 0.77929 0.0
O1030 O 0.89978 0.32627 0.6351 0.0
O1031 O 0.83367 0.29854 0.67384 0.0
H1032 H 0.86732 0.227 0.79645 0.0
H1033 H 0.91017 0.28404 0.62959 0.0
H1034 H 0.89276 0.19885 0.76841 0.0
H1035 H 0.93481 0.25501 0.60479 0.0
H1036 H 0.91354 0.38665 0.97078 0.0
H1037 H 0.8844 0.29312 0.85235 0.0
H1038 H 0.89815 0.38186 0.85306 0.0
H1039 H 0.89995 0.29945 0.96973 0.0
H1040 H 0.97806 0.30854 0.86958 0.0
H1041 H 0.99776 0.39698 0.81573 0.0
H1042 H 0.78828 0.20213 0.88149 0.0
H1043 H 0.7898 0.28007 0.95963 0.0
H1044 H 0.86882 0.33386 0.54092 0.0
H1045 H 0.95517 0.37078 0.63035 0.0
H1046 H 0.88905 0.37646 0.46328 0.0
H1047 H 0.97378 0.41299 0.55188 0.0
H1048 H 0.78967 0.24331 0.65885 0.0
H1049 H 0.81375 0.32885 0.74036 0.0
H1050 H 0.73871 0.22386 0.70241 0.0
H1051 H 0.76225 0.30798 0.78185 0.0
H1052 H 0.79763 0.185 0.56276 0.0
H1053 H 0.83461 0.25318 0.41237 0.0
H1054 H 0.91585 0.4449 0.67498 0.0
H1055 H 0.82822 0.39354 0.59037 0.0
loop_
_geom_bond_atom_site_label_1
_geom_bond_atom_site_label_2
_geom_bond_distance
_geom_bond_site_symmetry_2
_ccdc_geom_bond_type
Li0 N17 1.990 . S
Li0 O60 1.956 . S
Li0 O61 1.970 . S
Li0 O62 1.961 1_554 S
Li1 N25 1.990 . S
Li1 O60 1.970 . S
Li1 O61 1.956 . S
Li1 O63 1.961 . S
Li2 N47 1.990 . S
Li2 O60 1.961 1_556 S
Li2 O62 1.956 . S
Li2 O63 1.970 1_556 S
Li3 N53 1.990 1_554 S
Li3 O61 1.961 . S
Li3 O62 1.970 1_554 S
Li3 O63 1.956 . S
C4 C6 1.348 . S
C4 C7 1.356 . S
C4 O60 1.325 . S
N5 C8 1.314 . S
N5 C9 1.279 . S
C6 C4 1.348 . S
C6 C8 1.353 . S
C6 H64 0.929 . S
C7 C4 1.356 . S
C7 C9 1.358 . S
C7 H65 0.930 1_554 S
C8 N5 1.314 . S
C8 C6 1.353 . S
C8 H66 0.930 . S
C9 N5 1.279 . S
C9 C7 1.358 . S
C9 H67 0.930 . S
C10 C13 1.348 . S
C10 C14 1.356 . S
C10 O61 1.325 . S
C11 N12 1.279 . S
C11 C14 1.358 . S
C11 H68 0.930 . S
N12 C11 1.279 . S
N12 C15 1.314 . S
C13 C10 1.348 . S
C13 C15 1.353 . S
C13 H69 0.929 . S
C14 C10 1.356 . S
C14 C11 1.358 . S
C14 H70 0.930 . S
C15 N12 1.314 . S
C15 C13 1.353 . S
C15 H71 0.930 . S
C16 N17 1.314 . S
C16 C21 1.353 . S
C16 H22 0.930 . S
N17 Li0 1.990 . S
N17 C16 1.314 . S
N17 C19 1.279 . S
C18 C19 1.358 . S
C18 C20 1.356 . S
C18 H72 0.930 . S
C19 N17 1.279 . S
C19 C18 1.358 . S
C19 H23 0.930 . S
C20 C18 1.356 . S
C20 C21 1.348 . S
C21 C16 1.353 . S
C21 C20 1.348 . S
C21 H73 0.929 . S
H22 C16 0.930 . S
H23 C19 0.930 . S
C24 N25 1.314 . S
C24 C26 1.353 . S
C24 H30 0.930 . S
N25 Li1 1.990 . S
N25 C24 1.314 . S
N25 C28 1.279 . S
C26 C24 1.353 . S
C26 C29 1.348 . S
C26 H74 0.929 . S
C27 C28 1.358 . S
C27 C29 1.356 . S
C27 H75 0.930 . S
C28 N25 1.279 . S
C28 C27 1.358 . S
C28 H31 0.930 . S
C29 C26 1.348 . S
C29 C27 1.356 . S
H30 C24 0.930 . S
H31 C28 0.930 . S
C32 C34 1.348 . S
C32 C35 1.356 . S
C32 O62 1.325 . S
N33 C36 1.314 . S
N33 C37 1.279 . S
C34 C32 1.348 . S
C34 C36 1.353 . S
C34 H76 0.929 . S
C35 C32 1.356 . S
C35 C37 1.358 . S
C35 H77 0.930 . S
C36 N33 1.314 . S
C36 C34 1.353 . S
C36 H78 0.930 . S
C37 N33 1.279 . S
C37 C35 1.358 . S
C37 H79 0.930 . S
C38 C39 1.348 1_554 S
C38 C40 1.356 . S
C38 O63 1.325 . S
C39 C38 1.348 1_556 S
C39 C41 1.353 . S
C39 H80 0.929 . S
C40 C38 1.356 . S
C40 C42 1.358 . S
C40 H81 0.930 . S
C41 C39 1.353 . S
C41 N43 1.314 . S
C41 H82 0.930 . S
C42 C40 1.358 . S
C42 N43 1.279 1_554 S
C42 H83 0.930 . S
N43 C41 1.314 . S
N43 C42 1.279 1_556 S
C44 C46 1.353 . S
C44 N47 1.314 . S
C44 H50 0.930 . S
C45 N47 1.279 . S
C45 C48 1.358 . S
C45 H51 0.930 . S
C46 C44 1.353 . S
C46 C49 1.348 . S
C46 H84 0.929 . S
N47 Li2 1.990 . S
N47 C44 1.314 . S
N47 C45 1.279 . S
C48 C45 1.358 . S
C48 C49 1.356 . S
C48 H85 0.930 . S
C49 C46 1.348 . S
C49 C48 1.356 . S
H50 C44 0.930 . S
H51 C45 0.930 . S
C52 N53 1.314 1_554 S
C52 C54 1.353 1_554 S
C52 H58 0.930 . S
N53 Li3 1.990 1_556 S
N53 C52 1.314 1_556 S
N53 C56 1.279 . S
C54 C52 1.353 1_556 S
C54 C57 1.343 . S
C54 H86 0.927 1_456 S
C55 C56 1.358 . S
C55 C57 1.384 . S
C55 H87 0.930 . S
C56 N53 1.279 . S
C56 C55 1.358 . S
C56 H59 0.930 . S
C57 C54 1.343 . S
C57 C55 1.384 . S
H58 C52 0.930 . S
H59 C56 0.930 . S
O60 Li0 1.956 . S
O60 Li1 1.970 . S
O60 Li2 1.961 1_554 S
O60 C4 1.325 . S
O61 Li0 1.970 . S
O61 Li1 1.956 . S
O61 Li3 1.961 . S
O61 C10 1.325 . S
O62 Li0 1.961 1_556 S
O62 Li2 1.956 . S
O62 Li3 1.970 1_556 S
O62 C32 1.325 . S
O63 Li1 1.961 . S
O63 Li2 1.970 1_554 S
O63 Li3 1.956 . S
O63 C38 1.325 . S
H64 C6 0.929 . S
H65 C7 0.930 1_556 S
H66 C8 0.930 . S
H67 C9 0.930 . S
H68 C11 0.930 . S
H69 C13 0.929 . S
H70 C14 0.930 . S
H71 C15 0.930 . S
H72 C18 0.930 . S
H73 C21 0.929 . S
H74 C26 0.929 . S
H75 C27 0.930 . S
H76 C34 0.929 . S
H77 C35 0.930 . S
H78 C36 0.930 . S
H79 C37 0.930 . S
H80 C39 0.929 . S
H81 C40 0.930 . S
H82 C41 0.930 . S
H83 C42 0.930 . S
H84 C46 0.929 . S
H85 C48 0.930 . S
H86 C54 0.927 1_654 S
H87 C55 0.930 . S
Li88 N105 1.990 . S
Li88 O148 1.956 . S
Li88 O149 1.970 . S
Li88 O150 1.961 . S
Li89 N113 1.990 . S
Li89 O148 1.970 . S
Li89 O149 1.956 . S
Li89 O151 1.961 . S
Li90 N135 1.990 . S
Li90 O148 1.961 . S
Li90 O150 1.956 . S
Li90 O151 1.970 . S
Li91 N141 1.990 . S
Li91 O149 1.961 . S
Li91 O150 1.970 . S
Li91 O151 1.956 . S
C92 C94 1.348 . S
C92 C95 1.356 . S
C92 O148 1.325 . S
N93 C96 1.314 . S
N93 C97 1.279 . S
C94 C92 1.348 . S
C94 C96 1.353 . S
C94 H152 0.929 . S
C95 C92 1.356 . S
C95 C97 1.358 . S
C95 H153 0.930 . S
C96 N93 1.314 . S
C96 C94 1.353 . S
C96 H154 0.930 . S
C97 N93 1.279 . S
C97 C95 1.358 . S
C97 H155 0.930 . S
C98 C101 1.348 . S
C98 C102 1.356 . S
C98 O149 1.325 . S
C99 N100 1.279 . S
C99 C102 1.358 . S
C99 H156 0.930 . S
N100 C99 1.279 . S
N100 C103 1.314 . S
C101 C98 1.348 . S
C101 C103 1.353 . S
C101 H157 0.929 . S
C102 C98 1.356 . S
C102 C99 1.358 . S
C102 H158 0.930 . S
C103 N100 1.314 . S
C103 C101 1.353 . S
C103 H159 0.930 . S
C104 N105 1.314 . S
C104 C109 1.353 . S
C104 H110 0.930 . S
N105 Li88 1.990 . S
N105 C104 1.314 . S
N105 C107 1.279 . S
C106 C107 1.358 . S
C106 C108 1.356 . S
C106 H160 0.930 . S
C107 N105 1.279 . S
C107 C106 1.358 . S
C107 H111 0.930 . S
C108 C106 1.356 . S
C108 C109 1.348 . S
C109 C104 1.353 . S
C109 C108 1.348 . S
C109 H161 0.929 . S
H110 C104 0.930 . S
H111 C107 0.930 . S
C112 N113 1.314 . S
C112 C114 1.353 . S
C112 H118 0.930 . S
N113 Li89 1.990 . S
N113 C112 1.314 . S
N113 C116 1.279 . S
C114 C112 1.353 . S
C114 C117 1.348 . S
C114 H162 0.929 . S
C115 C116 1.358 . S
C115 C117 1.356 . S
C115 H163 0.930 . S
C116 N113 1.279 . S
C116 C115 1.358 . S
C116 H119 0.930 . S
C117 C114 1.348 . S
C117 C115 1.356 . S
H118 C112 0.930 . S
H119 C116 0.930 . S
C120 C122 1.348 . S
C120 C123 1.356 . S
C120 O150 1.325 . S
N121 C124 1.314 . S
N121 C125 1.279 . S
C122 C120 1.348 . S
C122 C124 1.353 1_554 S
C122 H164 0.929 . S
C123 C120 1.356 . S
C123 C125 1.358 1_554 S
C123 H165 0.930 . S
C124 N121 1.314 . S
C124 C122 1.353 1_556 S
C124 H166 0.930 . S
C125 N121 1.279 . S
C125 C123 1.358 1_556 S
C125 H167 0.930 . S
C126 C127 1.348 . S
C126 C128 1.356 . S
C126 O151 1.325 . S
C127 C126 1.348 . S
C127 C129 1.353 . S
C127 H168 0.929 . S
C128 C126 1.356 . S
C128 C130 1.358 . S
C128 H169 0.930 . S
C129 C127 1.353 . S
C129 N131 1.314 . S
C129 H170 0.930 . S
C130 C128 1.358 . S
C130 N131 1.279 . S
C130 H171 0.930 . S
N131 C129 1.314 . S
N131 C130 1.279 . S
C132 C134 1.353 . S
C132 N135 1.314 . S
C132 H138 0.930 . S
C133 N135 1.279 1_556 S
C133 C136 1.358 . S
C133 H139 0.930 . S
C134 C132 1.353 . S
C134 C137 1.348 1_554 S
C134 H172 0.929 . S
N135 Li90 1.990 . S
N135 C132 1.314 . S
N135 C133 1.279 1_554 S
C136 C133 1.358 . S
C136 C137 1.356 . S
C136 H173 0.930 . S
C137 C134 1.348 1_556 S
C137 C136 1.356 . S
H138 C132 0.930 . S
H139 C133 0.930 . S
C140 N141 1.314 . S
C140 C142 1.353 . S
C140 H146 0.930 . S
N141 Li91 1.990 . S
N141 C140 1.314 . S
N141 C144 1.279 . S
C142 C140 1.353 . S
C142 C145 1.366 . S
C142 H174 0.929 1_545 S
C143 C144 1.358 . S
C143 C145 1.365 . S
C143 H175 0.930 . S
C144 N141 1.279 . S
C144 C143 1.358 . S
C144 H147 0.930 . S
C145 C142 1.366 . S
C145 C143 1.365 . S
H146 C140 0.930 . S
H147 C144 0.930 . S
O148 Li88 1.956 . S
O148 Li89 1.970 . S
O148 Li90 1.961 . S
O148 C92 1.325 . S
O149 Li88 1.970 . S
O149 Li89 1.956 . S
O149 Li91 1.961 . S
O149 C98 1.325 . S
O150 Li88 1.961 . S
O150 Li90 1.956 . S
O150 Li91 1.970 . S
O150 C120 1.325 . S
O151 Li89 1.961 . S
O151 Li90 1.970 . S
O151 Li91 1.956 . S
O151 C126 1.325 . S
H152 C94 0.929 . S
H153 C95 0.930 . S
H154 C96 0.930 . S
H155 C97 0.930 . S
H156 C99 0.930 . S
H157 C101 0.929 . S
H158 C102 0.930 . S
H159 C103 0.930 . S
H160 C106 0.930 . S
H161 C109 0.929 . S
H162 C114 0.929 . S
H163 C115 0.930 . S
H164 C122 0.929 . S
H165 C123 0.930 . S
H166 C124 0.930 . S
H167 C125 0.930 . S
H168 C127 0.929 . S
H169 C128 0.930 . S
H170 C129 0.930 . S
H171 C130 0.930 . S
H172 C134 0.929 . S
H173 C136 0.930 . S
H174 C142 0.929 1_565 S
H175 C143 0.930 . S
Li176 N193 1.990 . S
Li176 O236 1.956 . S
Li176 O237 1.970 . S
Li176 O238 1.961 . S
Li177 N201 1.990 . S
Li177 O236 1.970 . S
Li177 O237 1.956 . S
Li177 O239 1.961 . S
Li178 N223 1.990 . S
Li178 O236 1.961 . S
Li178 O238 1.956 . S
Li178 O239 1.970 . S
Li179 N229 1.990 . S
Li179 O237 1.961 . S
Li179 O238 1.970 . S
Li179 O239 1.956 . S
C180 C182 1.348 . S
C180 C183 1.356 . S
C180 O236 1.325 . S
N181 C184 1.314 . S
N181 C185 1.279 . S
C182 C180 1.348 . S
C182 C184 1.353 . S
C182 H240 0.929 . S
C183 C180 1.356 . S
C183 C185 1.358 . S
C183 H241 0.930 . S
C184 N181 1.314 . S
C184 C182 1.353 . S
C184 H242 0.930 . S
C185 N181 1.279 . S
C185 C183 1.358 . S
C185 H243 0.930 . S
C186 C189 1.348 . S
C186 C190 1.356 . S
C186 O237 1.325 . S
C187 N188 1.279 . S
C187 C190 1.358 . S
C187 H244 0.930 . S
N188 C187 1.279 . S
N188 C191 1.314 . S
C189 C186 1.348 . S
C189 C191 1.353 . S
C189 H245 0.929 . S
C190 C186 1.356 . S
C190 C187 1.358 . S
C190 H246 0.930 . S
C191 N188 1.314 . S
C191 C189 1.353 . S
C191 H247 0.930 . S
C192 N193 1.314 . S
C192 C197 1.353 . S
C192 H198 0.930 . S
N193 Li176 1.990 . S
N193 C192 1.314 . S
N193 C195 1.279 . S
C194 C195 1.358 . S
C194 C196 1.356 . S
C194 H248 0.930 . S
C195 N193 1.279 . S
C195 C194 1.358 . S
C195 H199 0.930 . S
C196 C194 1.356 . S
C196 C197 1.348 . S
C197 C192 1.353 . S
C197 C196 1.348 . S
C197 H249 0.929 . S
H198 C192 0.930 . S
H199 C195 0.930 . S
C200 N201 1.314 . S
C200 C202 1.353 . S
C200 H206 0.930 . S
N201 Li177 1.990 . S
N201 C200 1.314 . S
N201 C204 1.279 . S
C202 C200 1.353 . S
C202 C205 1.348 . S
C202 H250 0.929 . S
C203 C204 1.358 . S
C203 C205 1.356 . S
C203 H251 0.930 . S
C204 N201 1.279 . S
C204 C203 1.358 . S
C204 H207 0.930 . S
C205 C202 1.348 . S
C205 C203 1.356 . S
H206 C200 0.930 . S
H207 C204 0.930 . S
C208 C210 1.348 . S
C208 C211 1.356 . S
C208 O238 1.325 . S
N209 C212 1.314 . S
N209 C213 1.279 . S
C210 C208 1.348 . S
C210 C212 1.353 . S
C210 H252 0.929 . S
C211 C208 1.356 . S
C211 C213 1.358 . S
C211 H253 0.930 . S
C212 N209 1.314 . S
C212 C210 1.353 . S
C212 H254 0.930 . S
C213 N209 1.279 . S
C213 C211 1.358 . S
C213 H255 0.930 . S
C214 C215 1.348 . S
C214 C216 1.356 . S
C214 O239 1.325 . S
C215 C214 1.348 . S
C215 C217 1.353 . S
C215 H256 0.929 . S
C216 C214 1.356 . S
C216 C218 1.358 . S
C216 H257 0.930 . S
C217 C215 1.353 . S
C217 N219 1.314 . S
C217 H258 0.930 . S
C218 C216 1.358 . S
C218 N219 1.279 . S
C218 H259 0.930 . S
N219 C217 1.314 . S
N219 C218 1.279 . S
C220 C222 1.353 . S
C220 N223 1.314 . S
C220 H226 0.930 . S
C221 N223 1.279 . S
C221 C224 1.358 . S
C221 H227 0.930 . S
C222 C220 1.353 . S
C222 C225 1.348 . S
C222 H260 0.929 . S
N223 Li178 1.990 . S
N223 C220 1.314 . S
N223 C221 1.279 . S
C224 C221 1.358 . S
C224 C225 1.356 . S
C224 H261 0.930 . S
C225 C222 1.348 . S
C225 C224 1.356 . S
H226 C220 0.930 . S
H227 C221 0.930 . S
C228 N229 1.314 . S
C228 C230 1.353 . S
C228 H234 0.930 . S
N229 Li179 1.990 . S
N229 C228 1.314 . S
N229 C232 1.279 . S
C230 C228 1.353 . S
C230 C233 1.348 . S
C230 H262 0.929 . S
C231 C232 1.358 . S
C231 C233 1.356 . S
C231 H263 0.930 . S
C232 N229 1.279 . S
C232 C231 1.358 . S
C232 H235 0.930 . S
C233 C230 1.348 . S
C233 C231 1.356 . S
H234 C228 0.930 . S
H235 C232 0.930 . S
O236 Li176 1.956 . S
O236 Li177 1.970 . S
O236 Li178 1.961 . S
O236 C180 1.325 . S
O237 Li176 1.970 . S
O237 Li177 1.956 . S
O237 Li179 1.961 . S
O237 C186 1.325 . S
O238 Li176 1.961 . S
O238 Li178 1.956 . S
O238 Li179 1.970 . S
O238 C208 1.325 . S
O239 Li177 1.961 . S
O239 Li178 1.970 . S
O239 Li179 1.956 . S
O239 C214 1.325 . S
H240 C182 0.929 . S
H241 C183 0.930 . S
H242 C184 0.930 . S
H243 C185 0.930 . S
H244 C187 0.930 . S
H245 C189 0.929 . S
H246 C190 0.930 . S
H247 C191 0.930 . S
H248 C194 0.930 . S
H249 C197 0.929 . S
H250 C202 0.929 . S
H251 C203 0.930 . S
H252 C210 0.929 . S
H253 C211 0.930 . S
H254 C212 0.930 . S
H255 C213 0.930 . S
H256 C215 0.929 . S
H257 C216 0.930 . S
H258 C217 0.930 . S
H259 C218 0.930 . S
H260 C222 0.929 . S
H261 C224 0.930 . S
H262 C230 0.929 . S
H263 C231 0.930 . S
Li264 N281 1.990 . S
Li264 O324 1.956 . S
Li264 O325 1.970 . S
Li264 O326 1.961 . S
Li265 N289 1.990 . S
Li265 O324 1.970 . S
Li265 O325 1.956 . S
Li265 O327 1.961 . S
Li266 N311 1.990 . S
Li266 O324 1.961 . S
Li266 O326 1.956 . S
Li266 O327 1.970 . S
Li267 N317 1.990 . S
Li267 O325 1.961 . S
Li267 O326 1.970 . S
Li267 O327 1.956 . S
C268 C270 1.348 . S
C268 C271 1.356 . S
C268 O324 1.325 . S
N269 C272 1.314 . S
N269 C273 1.279 . S
C270 C268 1.348 . S
C270 C272 1.353 . S
C270 H328 0.929 . S
C271 C268 1.356 . S
C271 C273 1.358 . S
C271 H329 0.930 . S
C272 N269 1.314 . S
C272 C270 1.353 . S
C272 H330 0.930 . S
C273 N269 1.279 . S
C273 C271 1.358 . S
C273 H331 0.930 . S
C274 C277 1.348 . S
C274 C278 1.356 . S
C274 O325 1.325 . S
C275 N276 1.279 . S
C275 C278 1.358 . S
C275 H332 0.930 . S
N276 C275 1.279 . S
N276 C279 1.314 . S
C277 C274 1.348 . S
C277 C279 1.353 . S
C277 H333 0.929 . S
C278 C274 1.356 . S
C278 C275 1.358 . S
C278 H334 0.930 . S
C279 N276 1.314 . S
C279 C277 1.353 . S
C279 H335 0.930 . S
C280 N281 1.314 . S
C280 C285 1.353 . S
C280 H286 0.930 . S
N281 Li264 1.990 . S
N281 C280 1.314 . S
N281 C283 1.279 . S
C282 C283 1.358 . S
C282 C284 1.356 . S
C282 H336 0.930 . S
C283 N281 1.279 . S
C283 C282 1.358 . S
C283 H287 0.930 . S
C284 C282 1.356 . S
C284 C285 1.348 . S
C285 C280 1.353 . S
C285 C284 1.348 . S
C285 H337 0.929 . S
H286 C280 0.930 . S
H287 C283 0.930 . S
C288 N289 1.314 . S
C288 C290 1.353 . S
C288 H294 0.930 . S
N289 Li265 1.990 . S
N289 C288 1.314 . S
N289 C292 1.279 . S
C290 C288 1.353 . S
C290 C293 1.348 . S
C290 H338 0.929 . S
C291 C292 1.358 . S
C291 C293 1.356 . S
C291 H339 0.930 . S
C292 N289 1.279 . S
C292 C291 1.358 . S
C292 H295 0.930 . S
C293 C290 1.348 . S
C293 C291 1.356 . S
H294 C288 0.930 . S
H295 C292 0.930 . S
C296 C298 1.348 . S
C296 C299 1.356 . S
C296 O326 1.325 . S
N297 C300 1.314 . S
N297 C301 1.279 . S
C298 C296 1.348 . S
C298 C300 1.353 . S
C298 H340 0.929 . S
C299 C296 1.356 . S
C299 C301 1.358 . S
C299 H341 0.930 . S
C300 N297 1.314 . S
C300 C298 1.353 . S
C300 H342 0.930 . S
C301 N297 1.279 . S
C301 C299 1.358 . S
C301 H343 0.930 . S
C302 C303 1.348 . S
C302 C304 1.356 . S
C302 O327 1.325 . S
C303 C302 1.348 . S
C303 C305 1.353 . S
C303 H344 0.929 . S
C304 C302 1.356 . S
C304 C306 1.358 . S
C304 H345 0.930 . S
C305 C303 1.353 . S
C305 N307 1.314 . S
C305 H346 0.930 . S
C306 C304 1.358 . S
C306 N307 1.279 . S
C306 H347 0.930 . S
N307 C305 1.314 . S
N307 C306 1.279 . S
C308 C310 1.353 . S
C308 N311 1.314 . S
C308 H314 0.930 . S
C309 N311 1.279 . S
C309 C312 1.358 . S
C309 H315 0.930 . S
C310 C308 1.353 . S
C310 C313 1.348 . S
C310 H348 0.929 . S
N311 Li266 1.990 . S
N311 C308 1.314 . S
N311 C309 1.279 . S
C312 C309 1.358 . S
C312 C313 1.356 . S
C312 H349 0.930 . S
C313 C310 1.348 . S
C313 C312 1.356 . S
H314 C308 0.930 . S
H315 C309 0.930 . S
C316 N317 1.314 . S
C316 C318 1.353 . S
C316 H322 0.930 . S
N317 Li267 1.990 . S
N317 C316 1.314 . S
N317 C320 1.279 . S
C318 C316 1.353 . S
C318 C321 1.343 . S
C318 H350 0.929 1_655 S
C319 C320 1.358 . S
C319 C321 1.384 . S
C319 H351 0.930 . S
C320 N317 1.279 . S
C320 C319 1.358 . S
C320 H323 0.930 . S
C321 C318 1.343 . S
C321 C319 1.384 . S
H322 C316 0.930 . S
H323 C320 0.930 . S
O324 Li264 1.956 . S
O324 Li265 1.970 . S
O324 Li266 1.961 . S
O324 C268 1.325 . S
O325 Li264 1.970 . S
O325 Li265 1.956 . S
O325 Li267 1.961 . S
O325 C274 1.325 . S
O326 Li264 1.961 . S
O326 Li266 1.956 . S
O326 Li267 1.970 . S
O326 C296 1.325 . S
O327 Li265 1.961 . S
O327 Li266 1.970 . S
O327 Li267 1.956 . S
O327 C302 1.325 . S
H328 C270 0.929 . S
H329 C271 0.930 . S
H330 C272 0.930 . S
H331 C273 0.930 . S
H332 C275 0.930 . S
H333 C277 0.929 . S
H334 C278 0.930 . S
H335 C279 0.930 . S
H336 C282 0.930 . S
H337 C285 0.929 . S
H338 C290 0.929 . S
H339 C291 0.930 . S
H340 C298 0.929 . S
H341 C299 0.930 . S
H342 C300 0.930 . S
H343 C301 0.930 . S
H344 C303 0.929 . S
H345 C304 0.930 . S
H346 C305 0.930 . S
H347 C306 0.930 . S
H348 C310 0.929 . S
H349 C312 0.930 . S
H350 C318 0.929 1_455 S
H351 C319 0.930 . S
Li352 N369 1.990 . S
Li352 O412 1.956 . S
Li352 O413 1.970 . S
Li352 O414 1.961 . S
Li353 N377 1.990 . S
Li353 O412 1.970 . S
Li353 O413 1.956 . S
Li353 O415 1.961 . S
Li354 N399 1.990 . S
Li354 O412 1.961 . S
Li354 O414 1.956 . S
Li354 O415 1.970 . S
Li355 N405 1.990 . S
Li355 O413 1.961 . S
Li355 O414 1.970 . S
Li355 O415 1.956 . S
C356 C358 1.348 . S
C356 C359 1.356 . S
C356 O412 1.325 . S
N357 C360 1.314 . S
N357 C361 1.279 . S
C358 C356 1.348 . S
C358 C360 1.353 . S
C358 H416 0.929 . S
C359 C356 1.356 . S
C359 C361 1.358 . S
C359 H417 0.930 . S
C360 N357 1.314 . S
C360 C358 1.353 . S
C360 H418 0.930 . S
C361 N357 1.279 . S
C361 C359 1.358 . S
C361 H419 0.930 . S
C362 C365 1.348 . S
C362 C366 1.356 . S
C362 O413 1.325 . S
C363 N364 1.279 . S
C363 C366 1.358 . S
C363 H420 0.930 . S
N364 C363 1.279 . S
N364 C367 1.314 . S
C365 C362 1.348 . S
C365 C367 1.353 . S
C365 H421 0.929 . S
C366 C362 1.356 . S
C366 C363 1.358 . S
C366 H422 0.930 . S
C367 N364 1.314 . S
C367 C365 1.353 . S
C367 H423 0.930 . S
C368 N369 1.314 . S
C368 C373 1.353 . S
C368 H374 0.930 . S
N369 Li352 1.990 . S
N369 C368 1.314 . S
N369 C371 1.279 . S
C370 C371 1.358 . S
C370 C372 1.356 . S
C370 H424 0.930 . S
C371 N369 1.279 . S
C371 C370 1.358 . S
C371 H375 0.930 . S
C372 C370 1.356 . S
C372 C373 1.348 . S
C373 C368 1.353 . S
C373 C372 1.348 . S
C373 H425 0.929 . S
H374 C368 0.930 . S
H375 C371 0.930 . S
C376 N377 1.314 . S
C376 C378 1.353 . S
C376 H382 0.930 . S
N377 Li353 1.990 . S
N377 C376 1.314 . S
N377 C380 1.279 . S
C378 C376 1.353 . S
C378 C381 1.348 . S
C378 H426 0.929 . S
C379 C380 1.358 . S
C379 C381 1.356 . S
C379 H427 0.930 . S
C380 N377 1.279 . S
C380 C379 1.358 . S
C380 H383 0.930 . S
C381 C378 1.348 . S
C381 C379 1.356 . S
H382 C376 0.930 . S
H383 C380 0.930 . S
C384 C386 1.348 . S
C384 C387 1.356 . S
C384 O414 1.325 . S
N385 C388 1.314 . S
N385 C389 1.279 . S
C386 C384 1.348 . S
C386 C388 1.353 . S
C386 H428 0.929 . S
C387 C384 1.356 . S
C387 C389 1.358 . S
C387 H429 0.930 . S
C388 N385 1.314 . S
C388 C386 1.353 . S
C388 H430 0.930 . S
C389 N385 1.279 . S
C389 C387 1.358 . S
C389 H431 0.930 . S
C390 C391 1.348 . S
C390 C392 1.356 . S
C390 O415 1.325 . S
C391 C390 1.348 . S
C391 C393 1.353 . S
C391 H432 0.929 . S
C392 C390 1.356 . S
C392 C394 1.358 . S
C392 H433 0.930 . S
C393 C391 1.353 . S
C393 N395 1.314 . S
C393 H434 0.930 . S
C394 C392 1.358 . S
C394 N395 1.279 . S
C394 H435 0.930 . S
N395 C393 1.314 . S
N395 C394 1.279 . S
C396 C398 1.353 . S
C396 N399 1.314 . S
C396 H402 0.930 . S
C397 N399 1.279 . S
C397 C400 1.358 . S
C397 H403 0.930 . S
C398 C396 1.353 . S
C398 C401 1.366 . S
C398 H436 0.929 1_565 S
N399 Li354 1.990 . S
N399 C396 1.314 . S
N399 C397 1.279 . S
C400 C397 1.358 . S
C400 C401 1.365 . S
C400 H437 0.930 . S
C401 C398 1.366 . S
C401 C400 1.365 . S
H402 C396 0.930 . S
H403 C397 0.930 . S
C404 N405 1.314 . S
C404 C406 1.353 . S
C404 H410 0.930 . S
N405 Li355 1.990 . S
N405 C404 1.314 . S
N405 C408 1.279 . S
C406 C404 1.353 . S
C406 C409 1.348 . S
C406 H438 0.929 . S
C407 C408 1.358 . S
C407 C409 1.356 . S
C407 H439 0.930 . S
C408 N405 1.279 . S
C408 C407 1.358 . S
C408 H411 0.930 . S
C409 C406 1.348 . S
C409 C407 1.356 . S
H410 C404 0.930 . S
H411 C408 0.930 . S
O412 Li352 1.956 . S
O412 Li353 1.970 . S
O412 Li354 1.961 . S
O412 C356 1.325 . S
O413 Li352 1.970 . S
O413 Li353 1.956 . S
O413 Li355 1.961 . S
O413 C362 1.325 . S
O414 Li352 1.961 . S
O414 Li354 1.956 . S
O414 Li355 1.970 . S
O414 C384 1.325 . S
O415 Li353 1.961 . S
O415 Li354 1.970 . S
O415 Li355 1.956 . S
O415 C390 1.325 . S
H416 C358 0.929 . S
H417 C359 0.930 . S
H418 C360 0.930 . S
H419 C361 0.930 . S
H420 C363 0.930 . S
H421 C365 0.929 . S
H422 C366 0.930 . S
H423 C367 0.930 . S
H424 C370 0.930 . S
H425 C373 0.929 . S
H426 C378 0.929 . S
H427 C379 0.930 . S
H428 C386 0.929 . S
H429 C387 0.930 . S
H430 C388 0.930 . S
H431 C389 0.930 . S
H432 C391 0.929 . S
H433 C392 0.930 . S
H434 C393 0.930 . S
H435 C394 0.930 . S
H436 C398 0.929 1_545 S
H437 C400 0.930 . S
H438 C406 0.929 . S
H439 C407 0.930 . S
Li440 N457 1.990 . S
Li440 O500 1.956 . S
Li440 O501 1.970 . S
Li440 O502 1.961 . S
Li441 N465 1.990 1_556 S
Li441 O500 1.970 . S
Li441 O501 1.956 . S
Li441 O503 1.961 . S
Li442 N487 1.990 . S
Li442 O500 1.961 . S
Li442 O502 1.956 . S
Li442 O503 1.970 . S
Li443 N493 1.990 . S
Li443 O501 1.961 . S
Li443 O502 1.970 . S
Li443 O503 1.956 . S
C444 C446 1.348 . S
C444 C447 1.356 . S
C444 O500 1.325 . S
N445 C448 1.314 . S
N445 C449 1.279 . S
C446 C444 1.348 . S
C446 C448 1.353 . S
C446 H504 0.929 . S
C447 C444 1.356 . S
C447 C449 1.358 . S
C447 H505 0.930 . S
C448 N445 1.314 . S
C448 C446 1.353 . S
C448 H506 0.930 1_556 S
C449 N445 1.279 . S
C449 C447 1.358 . S
C449 H507 0.930 . S
C450 C453 1.348 1_556 S
C450 C454 1.356 1_556 S
C450 O501 1.325 . S
C451 N452 1.279 . S
C451 C454 1.358 . S
C451 H508 0.930 . S
N452 C451 1.279 . S
N452 C455 1.314 . S
C453 C450 1.348 1_554 S
C453 C455 1.353 . S
C453 H509 0.929 . S
C454 C450 1.356 1_554 S
C454 C451 1.358 . S
C454 H510 0.930 1_554 S
C455 N452 1.314 . S
C455 C453 1.353 . S
C455 H511 0.930 . S
C456 N457 1.314 . S
C456 C461 1.353 . S
C456 H462 0.930 . S
N457 Li440 1.990 . S
N457 C456 1.314 . S
N457 C459 1.279 . S
C458 C459 1.358 . S
C458 C460 1.356 . S
C458 H512 0.930 . S
C459 N457 1.279 . S
C459 C458 1.358 . S
C459 H463 0.930 . S
C460 C458 1.356 . S
C460 C461 1.348 . S
C461 C456 1.353 . S
C461 C460 1.348 . S
C461 H513 0.929 . S
H462 C456 0.930 . S
H463 C459 0.930 . S
C464 N465 1.314 . S
C464 C466 1.353 . S
C464 H470 0.930 1_554 S
N465 Li441 1.990 1_554 S
N465 C464 1.314 . S
N465 C468 1.279 . S
C466 C464 1.353 . S
C466 C469 1.348 . S
C466 H514 0.929 . S
C467 C468 1.358 . S
C467 C469 1.356 . S
C467 H515 0.930 . S
C468 N465 1.279 . S
C468 C467 1.358 . S
C468 H471 0.930 . S
C469 C466 1.348 . S
C469 C467 1.356 . S
H470 C464 0.930 1_556 S
H471 C468 0.930 . S
C472 C474 1.348 . S
C472 C475 1.356 . S
C472 O502 1.325 . S
N473 C476 1.314 . S
N473 C477 1.279 . S
C474 C472 1.348 . S
C474 C476 1.353 . S
C474 H516 0.929 . S
C475 C472 1.356 . S
C475 C477 1.358 . S
C475 H517 0.930 . S
C476 N473 1.314 . S
C476 C474 1.353 . S
C476 H518 0.930 . S
C477 N473 1.279 . S
C477 C475 1.358 . S
C477 H519 0.930 . S
C478 C479 1.348 . S
C478 C480 1.356 . S
C478 O503 1.325 . S
C479 C478 1.348 . S
C479 C481 1.353 . S
C479 H520 0.929 . S
C480 C478 1.356 . S
C480 C482 1.358 . S
C480 H521 0.930 . S
C481 C479 1.353 . S
C481 N483 1.314 . S
C481 H522 0.930 . S
C482 C480 1.358 . S
C482 N483 1.279 . S
C482 H523 0.930 . S
N483 C481 1.314 . S
N483 C482 1.279 . S
C484 C486 1.353 . S
C484 N487 1.314 . S
C484 H490 0.930 . S
C485 N487 1.279 . S
C485 C488 1.358 . S
C485 H491 0.930 . S
C486 C484 1.353 . S
C486 C489 1.348 . S
C486 H524 0.929 . S
N487 Li442 1.990 . S
N487 C484 1.314 . S
N487 C485 1.279 . S
C488 C485 1.358 . S
C488 C489 1.356 . S
C488 H525 0.930 . S
C489 C486 1.348 . S
C489 C488 1.356 . S
H490 C484 0.930 . S
H491 C485 0.930 . S
C492 N493 1.314 . S
C492 C494 1.353 . S
C492 H498 0.930 . S
N493 Li443 1.990 . S
N493 C492 1.314 . S
N493 C496 1.279 . S
C494 C492 1.353 . S
C494 C497 1.348 . S
C494 H526 0.929 . S
C495 C496 1.358 . S
C495 C497 1.356 . S
C495 H527 0.930 . S
C496 N493 1.279 . S
C496 C495 1.358 . S
C496 H499 0.930 . S
C497 C494 1.348 . S
C497 C495 1.356 . S
H498 C492 0.930 . S
H499 C496 0.930 . S
O500 Li440 1.956 . S
O500 Li441 1.970 . S
O500 Li442 1.961 . S
O500 C444 1.325 . S
O501 Li440 1.970 . S
O501 Li441 1.956 . S
O501 Li443 1.961 . S
O501 C450 1.325 . S
O502 Li440 1.961 . S
O502 Li442 1.956 . S
O502 Li443 1.970 . S
O502 C472 1.325 . S
O503 Li441 1.961 . S
O503 Li442 1.970 . S
O503 Li443 1.956 . S
O503 C478 1.325 . S
H504 C446 0.929 . S
H505 C447 0.930 . S
H506 C448 0.930 1_554 S
H507 C449 0.930 . S
H508 C451 0.930 . S
H509 C453 0.929 . S
H510 C454 0.930 1_556 S
H511 C455 0.930 . S
H512 C458 0.930 . S
H513 C461 0.929 . S
H514 C466 0.929 . S
H515 C467 0.930 . S
H516 C474 0.929 . S
H517 C475 0.930 . S
H518 C476 0.930 . S
H519 C477 0.930 . S
H520 C479 0.929 . S
H521 C480 0.930 . S
H522 C481 0.930 . S
H523 C482 0.930 . S
H524 C486 0.929 . S
H525 C488 0.930 . S
H526 C494 0.929 . S
H527 C495 0.930 . S
Li528 N545 1.990 . S
Li528 O588 1.956 . S
Li528 O589 1.970 . S
Li528 O590 1.961 . S
Li529 N553 1.990 1_556 S
Li529 O588 1.970 . S
Li529 O589 1.956 . S
Li529 O591 1.961 . S
Li530 N575 1.990 . S
Li530 O588 1.961 . S
Li530 O590 1.956 . S
Li530 O591 1.970 . S
Li531 N581 1.990 . S
Li531 O589 1.961 . S
Li531 O590 1.970 . S
Li531 O591 1.956 . S
C532 C534 1.348 . S
C532 C535 1.356 . S
C532 O588 1.325 . S
N533 C536 1.314 . S
N533 C537 1.279 . S
C534 C532 1.348 . S
C534 C536 1.353 . S
C534 H592 0.929 . S
C535 C532 1.356 . S
C535 C537 1.358 . S
C535 H593 0.930 . S
C536 N533 1.314 . S
C536 C534 1.353 . S
C536 H594 0.930 1_556 S
C537 N533 1.279 . S
C537 C535 1.358 . S
C537 H595 0.930 . S
C538 C541 1.348 1_556 S
C538 C542 1.356 1_556 S
C538 O589 1.325 . S
C539 N540 1.279 . S
C539 C542 1.358 . S
C539 H596 0.930 . S
N540 C539 1.279 . S
N540 C543 1.314 . S
C541 C538 1.348 1_554 S
C541 C543 1.353 . S
C541 H597 0.929 . S
C542 C538 1.356 1_554 S
C542 C539 1.358 . S
C542 H598 0.934 . S
C543 N540 1.314 . S
C543 C541 1.353 . S
C543 H599 0.930 . S
C544 N545 1.314 . S
C544 C549 1.353 . S
C544 H550 0.930 . S
N545 Li528 1.990 . S
N545 C544 1.314 . S
N545 C547 1.279 . S
C546 C547 1.358 . S
C546 C548 1.384 . S
C546 H600 0.930 . S
C547 N545 1.279 . S
C547 C546 1.358 . S
C547 H551 0.930 . S
C548 C546 1.384 . S
C548 C549 1.343 . S
C549 C544 1.353 . S
C549 C548 1.343 . S
C549 H601 0.929 1_565 S
H550 C544 0.930 . S
H551 C547 0.930 . S
C552 N553 1.314 . S
C552 C554 1.353 . S
C552 H558 0.930 1_554 S
N553 Li529 1.990 1_554 S
N553 C552 1.314 . S
N553 C556 1.279 . S
C554 C552 1.353 . S
C554 C557 1.348 . S
C554 H602 0.929 . S
C555 C556 1.358 . S
C555 C557 1.356 . S
C555 H603 0.930 . S
C556 N553 1.279 . S
C556 C555 1.358 . S
C556 H559 0.930 . S
C557 C554 1.348 . S
C557 C555 1.356 . S
H558 C552 0.930 1_556 S
H559 C556 0.930 . S
C560 C562 1.348 . S
C560 C563 1.356 . S
C560 O590 1.325 . S
N561 C564 1.314 . S
N561 C565 1.279 . S
C562 C560 1.348 . S
C562 C564 1.353 . S
C562 H604 0.929 . S
C563 C560 1.356 . S
C563 C565 1.358 . S
C563 H605 0.930 . S
C564 N561 1.314 . S
C564 C562 1.353 . S
C564 H606 0.930 . S
C565 N561 1.279 . S
C565 C563 1.358 . S
C565 H607 0.930 . S
C566 C567 1.348 . S
C566 C568 1.356 . S
C566 O591 1.325 . S
C567 C566 1.348 . S
C567 C569 1.353 . S
C567 H608 0.929 . S
C568 C566 1.356 . S
C568 C570 1.358 . S
C568 H609 0.930 . S
C569 C567 1.353 . S
C569 N571 1.314 . S
C569 H610 0.930 . S
C570 C568 1.358 . S
C570 N571 1.279 . S
C570 H611 0.930 . S
N571 C569 1.314 . S
N571 C570 1.279 . S
C572 C574 1.353 . S
C572 N575 1.314 . S
C572 H578 0.930 . S
C573 N575 1.279 . S
C573 C576 1.358 . S
C573 H579 0.930 . S
C574 C572 1.353 . S
C574 C577 1.348 . S
C574 H612 0.929 . S
N575 Li530 1.990 . S
N575 C572 1.314 . S
N575 C573 1.279 . S
C576 C573 1.358 . S
C576 C577 1.356 . S
C576 H613 0.930 . S
C577 C574 1.348 . S
C577 C576 1.356 . S
H578 C572 0.930 . S
H579 C573 0.930 . S
C580 N581 1.314 . S
C580 C582 1.353 . S
C580 H586 0.930 . S
N581 Li531 1.990 . S
N581 C580 1.314 . S
N581 C584 1.279 . S
C582 C580 1.353 . S
C582 C585 1.348 . S
C582 H614 0.929 . S
C583 C584 1.358 . S
C583 C585 1.356 . S
C583 H615 0.930 . S
C584 N581 1.279 . S
C584 C583 1.358 . S
C584 H587 0.930 . S
C585 C582 1.348 . S
C585 C583 1.356 . S
H586 C580 0.930 . S
H587 C584 0.930 . S
O588 Li528 1.956 . S
O588 Li529 1.970 . S
O588 Li530 1.961 . S
O588 C532 1.325 . S
O589 Li528 1.970 . S
O589 Li529 1.956 . S
O589 Li531 1.961 . S
O589 C538 1.325 . S
O590 Li528 1.961 . S
O590 Li530 1.956 . S
O590 Li531 1.970 . S
O590 C560 1.325 . S
O591 Li529 1.961 . S
O591 Li530 1.970 . S
O591 Li531 1.956 . S
O591 C566 1.325 . S
H592 C534 0.929 . S
H593 C535 0.930 . S
H594 C536 0.930 1_554 S
H595 C537 0.930 . S
H596 C539 0.930 . S
H597 C541 0.929 . S
H598 C542 0.934 . S
H599 C543 0.930 . S
H600 C546 0.930 . S
H601 C549 0.929 1_545 S
H602 C554 0.929 . S
H603 C555 0.930 . S
H604 C562 0.929 . S
H605 C563 0.930 . S
H606 C564 0.930 . S
H607 C565 0.930 . S
H608 C567 0.929 . S
H609 C568 0.930 . S
H610 C569 0.930 . S
H611 C570 0.930 . S
H612 C574 0.929 . S
H613 C576 0.930 . S
H614 C582 0.929 . S
H615 C583 0.930 . S
Li616 N633 1.990 . S
Li616 O676 1.956 . S
Li616 O677 1.970 . S
Li616 O678 1.961 . S
Li617 N641 1.990 . S
Li617 O676 1.970 . S
Li617 O677 1.956 . S
Li617 O679 1.961 1_554 S
Li618 N663 1.990 . S
Li618 O676 1.961 . S
Li618 O678 1.956 . S
Li618 O679 1.970 1_554 S
Li619 N669 1.990 . S
Li619 O677 1.961 1_556 S
Li619 O678 1.970 1_556 S
Li619 O679 1.956 . S
C620 C622 1.348 . S
C620 C623 1.356 . S
C620 O676 1.325 . S
N621 C624 1.314 . S
N621 C625 1.279 . S
C622 C620 1.348 . S
C622 C624 1.353 . S
C622 H680 0.929 . S
C623 C620 1.356 . S
C623 C625 1.358 . S
C623 H681 0.930 . S
C624 N621 1.314 . S
C624 C622 1.353 . S
C624 H682 0.930 . S
C625 N621 1.279 . S
C625 C623 1.358 . S
C625 H683 0.930 . S
C626 C629 1.348 . S
C626 C630 1.356 . S
C626 O677 1.325 . S
C627 N628 1.279 . S
C627 C630 1.358 . S
C627 H684 0.930 . S
N628 C627 1.279 . S
N628 C631 1.314 . S
C629 C626 1.348 . S
C629 C631 1.353 . S
C629 H685 0.929 . S
C630 C626 1.356 . S
C630 C627 1.358 . S
C630 H686 0.930 1_554 S
C631 N628 1.314 . S
C631 C629 1.353 . S
C631 H687 0.930 . S
C632 N633 1.314 . S
C632 C637 1.353 . S
C632 H638 0.930 . S
N633 Li616 1.990 . S
N633 C632 1.314 . S
N633 C635 1.279 . S
C634 C635 1.358 . S
C634 C636 1.356 . S
C634 H688 0.930 . S
C635 N633 1.279 . S
C635 C634 1.358 . S
C635 H639 0.930 . S
C636 C634 1.356 . S
C636 C637 1.348 . S
C637 C632 1.353 . S
C637 C636 1.348 . S
C637 H689 0.929 . S
H638 C632 0.930 . S
H639 C635 0.930 . S
C640 N641 1.314 . S
C640 C642 1.353 . S
C640 H646 0.930 . S
N641 Li617 1.990 . S
N641 C640 1.314 . S
N641 C644 1.279 . S
C642 C640 1.353 . S
C642 C645 1.348 . S
C642 H690 0.929 . S
C643 C644 1.358 . S
C643 C645 1.356 . S
C643 H691 0.930 . S
C644 N641 1.279 . S
C644 C643 1.358 . S
C644 H647 0.930 . S
C645 C642 1.348 . S
C645 C643 1.356 . S
H646 C640 0.930 . S
H647 C644 0.930 . S
C648 C650 1.348 1_554 S
C648 C651 1.356 . S
C648 O678 1.325 . S
N649 C652 1.314 . S
N649 C653 1.279 1_556 S
C650 C648 1.348 1_556 S
C650 C652 1.353 . S
C650 H692 0.929 . S
C651 C648 1.356 . S
C651 C653 1.358 . S
C651 H693 0.930 . S
C652 N649 1.314 . S
C652 C650 1.353 . S
C652 H694 0.930 . S
C653 N649 1.279 1_554 S
C653 C651 1.358 . S
C653 H695 0.930 . S
C654 C655 1.348 . S
C654 C656 1.356 . S
C654 O679 1.325 . S
C655 C654 1.348 . S
C655 C657 1.353 . S
C655 H696 0.929 . S
C656 C654 1.356 . S
C656 C658 1.358 . S
C656 H697 0.930 . S
C657 C655 1.353 . S
C657 N659 1.314 . S
C657 H698 0.930 . S
C658 C656 1.358 . S
C658 N659 1.279 . S
C658 H699 0.930 . S
N659 C657 1.314 . S
N659 C658 1.279 . S
C660 C662 1.353 . S
C660 N663 1.314 . S
C660 H666 0.930 . S
C661 N663 1.279 1_556 S
C661 C664 1.358 . S
C661 H667 0.930 . S
C662 C660 1.353 . S
C662 C665 1.348 1_554 S
C662 H700 0.929 . S
N663 Li618 1.990 . S
N663 C660 1.314 . S
N663 C661 1.279 1_554 S
C664 C661 1.358 . S
C664 C665 1.356 . S
C664 H701 0.930 . S
C665 C662 1.348 1_556 S
C665 C664 1.356 . S
H666 C660 0.930 . S
H667 C661 0.930 . S
C668 N669 1.314 . S
C668 C670 1.353 . S
C668 H674 0.930 . S
N669 Li619 1.990 . S
N669 C668 1.314 . S
N669 C672 1.279 . S
C670 C668 1.353 . S
C670 C673 1.348 . S
C670 H702 0.929 . S
C671 C672 1.358 . S
C671 C673 1.356 . S
C671 H703 0.930 . S
C672 N669 1.279 . S
C672 C671 1.358 . S
C672 H675 0.930 . S
C673 C670 1.348 . S
C673 C671 1.356 . S
H674 C668 0.930 . S
H675 C672 0.930 . S
O676 Li616 1.956 . S
O676 Li617 1.970 . S
O676 Li618 1.961 . S
O676 C620 1.325 . S
O677 Li616 1.970 . S
O677 Li617 1.956 . S
O677 Li619 1.961 1_554 S
O677 C626 1.325 . S
O678 Li616 1.961 . S
O678 Li618 1.956 . S
O678 Li619 1.970 1_554 S
O678 C648 1.325 . S
O679 Li617 1.961 1_556 S
O679 Li618 1.970 1_556 S
O679 Li619 1.956 . S
O679 C654 1.325 . S
H680 C622 0.929 . S
H681 C623 0.930 . S
H682 C624 0.930 . S
H683 C625 0.930 . S
H684 C627 0.930 . S
H685 C629 0.929 . S
H686 C630 0.930 1_556 S
H687 C631 0.930 . S
H688 C634 0.930 . S
H689 C637 0.929 . S
H690 C642 0.929 . S
H691 C643 0.930 . S
H692 C650 0.929 . S
H693 C651 0.930 . S
H694 C652 0.930 . S
H695 C653 0.930 . S
H696 C655 0.929 . S
H697 C656 0.930 . S
H698 C657 0.930 . S
H699 C658 0.930 . S
H700 C662 0.929 . S
H701 C664 0.930 . S
H702 C670 0.929 . S
H703 C671 0.930 . S
Li704 N721 1.990 . S
Li704 O764 1.956 . S
Li704 O765 1.970 . S
Li704 O766 1.961 . S
Li705 N729 1.990 . S
Li705 O764 1.970 . S
Li705 O765 1.956 . S
Li705 O767 1.961 . S
Li706 N751 1.990 . S
Li706 O764 1.961 . S
Li706 O766 1.956 . S
Li706 O767 1.970 . S
Li707 N757 1.990 . S
Li707 O765 1.961 . S
Li707 O766 1.970 . S
Li707 O767 1.956 . S
C708 C710 1.348 . S
C708 C711 1.356 . S
C708 O764 1.325 . S
N709 C712 1.314 . S
N709 C713 1.279 . S
C710 C708 1.348 . S
C710 C712 1.353 . S
C710 H768 0.929 . S
C711 C708 1.356 . S
C711 C713 1.358 . S
C711 H769 0.930 . S
C712 N709 1.314 . S
C712 C710 1.353 . S
C712 H770 0.930 . S
C713 N709 1.279 . S
C713 C711 1.358 . S
C713 H771 0.930 . S
C714 C717 1.348 . S
C714 C718 1.356 . S
C714 O765 1.325 . S
C715 N716 1.279 . S
C715 C718 1.358 . S
C715 H772 0.930 . S
N716 C715 1.279 . S
N716 C719 1.314 . S
C717 C714 1.348 . S
C717 C719 1.353 . S
C717 H773 0.929 . S
C718 C714 1.356 . S
C718 C715 1.358 . S
C718 H774 0.930 . S
C719 N716 1.314 . S
C719 C717 1.353 . S
C719 H775 0.930 . S
C720 N721 1.314 . S
C720 C725 1.353 . S
C720 H726 0.930 . S
N721 Li704 1.990 . S
N721 C720 1.314 . S
N721 C723 1.279 . S
C722 C723 1.358 . S
C722 C724 1.356 . S
C722 H776 0.930 . S
C723 N721 1.279 . S
C723 C722 1.358 . S
C723 H727 0.930 . S
C724 C722 1.356 . S
C724 C725 1.348 . S
C725 C720 1.353 . S
C725 C724 1.348 . S
C725 H777 0.929 . S
H726 C720 0.930 . S
H727 C723 0.930 . S
C728 N729 1.314 . S
C728 C730 1.353 . S
C728 H734 0.930 . S
N729 Li705 1.990 . S
N729 C728 1.314 . S
N729 C732 1.279 . S
C730 C728 1.353 . S
C730 C733 1.365 . S
C730 H778 0.929 1_455 S
C731 C732 1.358 . S
C731 C733 1.365 . S
C731 H779 0.930 . S
C732 N729 1.279 . S
C732 C731 1.358 . S
C732 H735 0.930 . S
C733 C730 1.365 . S
C733 C731 1.365 . S
H734 C728 0.930 . S
H735 C732 0.930 . S
C736 C738 1.348 . S
C736 C739 1.356 . S
C736 O766 1.325 . S
N737 C740 1.314 . S
N737 C741 1.279 . S
C738 C736 1.348 . S
C738 C740 1.353 . S
C738 H780 0.929 . S
C739 C736 1.356 . S
C739 C741 1.358 . S
C739 H781 0.930 . S
C740 N737 1.314 . S
C740 C738 1.353 . S
C740 H782 0.930 . S
C741 N737 1.279 . S
C741 C739 1.358 . S
C741 H783 0.930 . S
C742 C743 1.348 . S
C742 C744 1.356 . S
C742 O767 1.325 . S
C743 C742 1.348 . S
C743 C745 1.353 . S
C743 H784 0.929 . S
C744 C742 1.356 . S
C744 C746 1.358 . S
C744 H785 0.930 . S
C745 C743 1.353 . S
C745 N747 1.314 1_554 S
C745 H786 0.930 1_554 S
C746 C744 1.358 . S
C746 N747 1.279 1_554 S
C746 H787 0.930 . S
N747 C745 1.314 1_556 S
N747 C746 1.279 1_556 S
C748 C750 1.353 . S
C748 N751 1.314 . S
C748 H754 0.930 . S
C749 N751 1.279 . S
C749 C752 1.358 . S
C749 H755 0.930 . S
C750 C748 1.353 . S
C750 C753 1.348 . S
C750 H788 0.929 . S
N751 Li706 1.990 . S
N751 C748 1.314 . S
N751 C749 1.279 . S
C752 C749 1.358 . S
C752 C753 1.356 . S
C752 H789 0.930 . S
C753 C750 1.348 . S
C753 C752 1.356 . S
H754 C748 0.930 . S
H755 C749 0.930 . S
C756 N757 1.314 . S
C756 C758 1.353 . S
C756 H762 0.930 . S
N757 Li707 1.990 . S
N757 C756 1.314 . S
N757 C760 1.292 . S
C758 C756 1.353 . S
C758 C761 1.348 1_554 S
C758 H790 0.929 . S
C759 C760 1.348 1_556 S
C759 C761 1.356 . S
C759 H791 0.930 . S
C760 N757 1.292 . S
C760 C759 1.348 1_554 S
C760 H763 0.929 1_554 S
C761 C758 1.348 1_556 S
C761 C759 1.356 . S
H762 C756 0.930 . S
H763 C760 0.929 1_556 S
O764 Li704 1.956 . S
O764 Li705 1.970 . S
O764 Li706 1.961 . S
O764 C708 1.325 . S
O765 Li704 1.970 . S
O765 Li705 1.956 . S
O765 Li707 1.961 . S
O765 C714 1.325 . S
O766 Li704 1.961 . S
O766 Li706 1.956 . S
O766 Li707 1.970 . S
O766 C736 1.325 . S
O767 Li705 1.961 . S
O767 Li706 1.970 . S
O767 Li707 1.956 . S
O767 C742 1.325 . S
H768 C710 0.929 . S
H769 C711 0.930 . S
H770 C712 0.930 . S
H771 C713 0.930 . S
H772 C715 0.930 . S
H773 C717 0.929 . S
H774 C718 0.930 . S
H775 C719 0.930 . S
H776 C722 0.930 . S
H777 C725 0.929 . S
H778 C730 0.929 1_655 S
H779 C731 0.930 . S
H780 C738 0.929 . S
H781 C739 0.930 . S
H782 C740 0.930 . S
H783 C741 0.930 . S
H784 C743 0.929 . S
H785 C744 0.930 . S
H786 C745 0.930 1_556 S
H787 C746 0.930 . S
H788 C750 0.929 . S
H789 C752 0.930 . S
H790 C758 0.929 . S
H791 C759 0.930 . S
Li792 N809 1.990 . S
Li792 O852 1.956 . S
Li792 O853 1.970 . S
Li792 O854 1.961 . S
Li793 N817 1.990 . S
Li793 O852 1.970 . S
Li793 O853 1.956 . S
Li793 O855 1.961 . S
Li794 N839 1.990 . S
Li794 O852 1.961 . S
Li794 O854 1.956 . S
Li794 O855 1.970 . S
Li795 N845 1.990 . S
Li795 O853 1.961 . S
Li795 O854 1.970 . S
Li795 O855 1.956 . S
C796 C798 1.348 . S
C796 C799 1.356 . S
C796 O852 1.325 . S
N797 C800 1.314 . S
N797 C801 1.279 . S
C798 C796 1.348 . S
C798 C800 1.353 . S
C798 H856 0.929 . S
C799 C796 1.356 . S
C799 C801 1.358 . S
C799 H857 0.930 . S
C800 N797 1.314 . S
C800 C798 1.353 . S
C800 H858 0.930 . S
C801 N797 1.279 . S
C801 C799 1.358 . S
C801 H859 0.930 . S
C802 C805 1.348 . S
C802 C806 1.356 . S
C802 O853 1.325 . S
C803 N804 1.279 . S
C803 C806 1.358 . S
C803 H860 0.930 . S
N804 C803 1.279 . S
N804 C807 1.314 . S
C805 C802 1.348 . S
C805 C807 1.353 . S
C805 H861 0.929 . S
C806 C802 1.356 . S
C806 C803 1.358 . S
C806 H862 0.930 . S
C807 N804 1.314 . S
C807 C805 1.353 . S
C807 H863 0.930 . S
C808 N809 1.314 . S
C808 C813 1.353 . S
C808 H814 0.930 . S
N809 Li792 1.990 . S
N809 C808 1.314 . S
N809 C811 1.279 . S
C810 C811 1.358 . S
C810 C812 1.356 . S
C810 H864 0.930 . S
C811 N809 1.279 . S
C811 C810 1.358 . S
C811 H815 0.930 . S
C812 C810 1.356 . S
C812 C813 1.348 . S
C813 C808 1.353 . S
C813 C812 1.348 . S
C813 H865 0.929 . S
H814 C808 0.930 . S
H815 C811 0.930 . S
C816 N817 1.314 . S
C816 C818 1.353 . S
C816 H822 0.930 . S
N817 Li793 1.990 . S
N817 C816 1.314 . S
N817 C820 1.279 . S
C818 C816 1.353 . S
C818 C821 1.343 . S
C818 H866 0.929 1_545 S
C819 C820 1.358 . S
C819 C821 1.384 . S
C819 H867 0.930 . S
C820 N817 1.279 . S
C820 C819 1.358 . S
C820 H823 0.930 . S
C821 C818 1.343 . S
C821 C819 1.384 . S
H822 C816 0.930 . S
H823 C820 0.930 . S
C824 C826 1.348 . S
C824 C827 1.356 . S
C824 O854 1.325 . S
N825 C828 1.314 . S
N825 C829 1.279 . S
C826 C824 1.348 . S
C826 C828 1.353 . S
C826 H868 0.929 . S
C827 C824 1.356 . S
C827 C829 1.358 . S
C827 H869 0.930 . S
C828 N825 1.314 . S
C828 C826 1.353 . S
C828 H870 0.930 . S
C829 N825 1.279 . S
C829 C827 1.358 . S
C829 H871 0.930 . S
C830 C831 1.348 . S
C830 C832 1.356 . S
C830 O855 1.325 . S
C831 C830 1.348 . S
C831 C833 1.353 . S
C831 H872 0.929 . S
C832 C830 1.356 . S
C832 C834 1.358 . S
C832 H873 0.930 . S
C833 C831 1.353 . S
C833 N835 1.314 . S
C833 H874 0.930 . S
C834 C832 1.358 . S
C834 N835 1.279 . S
C834 H875 0.930 . S
N835 C833 1.314 . S
N835 C834 1.279 . S
C836 C838 1.353 . S
C836 N839 1.314 . S
C836 H842 0.930 . S
C837 N839 1.279 . S
C837 C840 1.358 . S
C837 H843 0.930 . S
C838 C836 1.353 . S
C838 C841 1.348 . S
C838 H876 0.929 . S
N839 Li794 1.990 . S
N839 C836 1.314 . S
N839 C837 1.279 . S
C840 C837 1.358 . S
C840 C841 1.356 . S
C840 H877 0.930 . S
C841 C838 1.348 . S
C841 C840 1.356 . S
H842 C836 0.930 . S
H843 C837 0.930 . S
C844 N845 1.314 . S
C844 C846 1.353 . S
C844 H850 0.930 . S
N845 Li795 1.990 . S
N845 C844 1.314 . S
N845 C848 1.279 . S
C846 C844 1.353 . S
C846 C849 1.348 . S
C846 H878 0.929 . S
C847 C848 1.358 . S
C847 C849 1.356 . S
C847 H879 0.930 . S
C848 N845 1.279 . S
C848 C847 1.358 . S
C848 H851 0.930 . S
C849 C846 1.348 . S
C849 C847 1.356 . S
H850 C844 0.930 . S
H851 C848 0.930 . S
O852 Li792 1.956 . S
O852 Li793 1.970 . S
O852 Li794 1.961 . S
O852 C796 1.325 . S
O853 Li792 1.970 . S
O853 Li793 1.956 . S
O853 Li795 1.961 . S
O853 C802 1.325 . S
O854 Li792 1.961 . S
O854 Li794 1.956 . S
O854 Li795 1.970 . S
O854 C824 1.325 . S
O855 Li793 1.961 . S
O855 Li794 1.970 . S
O855 Li795 1.956 . S
O855 C830 1.325 . S
H856 C798 0.929 . S
H857 C799 0.930 . S
H858 C800 0.930 . S
H859 C801 0.930 . S
H860 C803 0.930 . S
H861 C805 0.929 . S
H862 C806 0.930 . S
H863 C807 0.930 . S
H864 C810 0.930 . S
H865 C813 0.929 . S
H866 C818 0.929 1_565 S
H867 C819 0.930 . S
H868 C826 0.929 . S
H869 C827 0.930 . S
H870 C828 0.930 . S
H871 C829 0.930 . S
H872 C831 0.929 . S
H873 C832 0.930 . S
H874 C833 0.930 . S
H875 C834 0.930 . S
H876 C838 0.929 . S
H877 C840 0.930 . S
H878 C846 0.929 . S
H879 C847 0.930 . S
Li880 N897 1.990 . S
Li880 O940 1.956 . S
Li880 O941 1.970 . S
Li880 O942 1.961 . S
Li881 N905 1.990 . S
Li881 O940 1.970 . S
Li881 O941 1.956 . S
Li881 O943 1.961 . S
Li882 N927 1.990 . S
Li882 O940 1.961 . S
Li882 O942 1.956 . S
Li882 O943 1.970 . S
Li883 N933 1.990 . S
Li883 O941 1.961 . S
Li883 O942 1.970 . S
Li883 O943 1.956 . S
C884 C886 1.348 . S
C884 C887 1.356 . S
C884 O940 1.325 . S
N885 C888 1.314 . S
N885 C889 1.279 . S
C886 C884 1.348 . S
C886 C888 1.353 . S
C886 H944 0.929 . S
C887 C884 1.356 . S
C887 C889 1.358 . S
C887 H945 0.930 . S
C888 N885 1.314 . S
C888 C886 1.353 . S
C888 H946 0.930 . S
C889 N885 1.279 . S
C889 C887 1.358 . S
C889 H947 0.930 . S
C890 C893 1.348 . S
C890 C894 1.356 . S
C890 O941 1.325 . S
C891 N892 1.279 . S
C891 C894 1.358 . S
C891 H948 0.930 . S
N892 C891 1.279 . S
N892 C895 1.314 . S
C893 C890 1.348 . S
C893 C895 1.353 . S
C893 H949 0.929 . S
C894 C890 1.356 . S
C894 C891 1.358 . S
C894 H950 0.930 . S
C895 N892 1.314 . S
C895 C893 1.353 . S
C895 H951 0.930 . S
C896 N897 1.314 . S
C896 C901 1.353 . S
C896 H902 0.930 . S
N897 Li880 1.990 . S
N897 C896 1.314 . S
N897 C899 1.279 . S
C898 C899 1.358 . S
C898 C900 1.356 . S
C898 H952 0.930 . S
C899 N897 1.279 . S
C899 C898 1.358 . S
C899 H903 0.930 . S
C900 C898 1.356 . S
C900 C901 1.348 . S
C901 C896 1.353 . S
C901 C900 1.348 . S
C901 H953 0.929 . S
H902 C896 0.930 . S
H903 C899 0.930 . S
C904 N905 1.314 . S
C904 C906 1.353 . S
C904 H910 0.930 . S
N905 Li881 1.990 . S
N905 C904 1.314 . S
N905 C908 1.279 . S
C906 C904 1.353 . S
C906 C909 1.348 . S
C906 H954 0.929 . S
C907 C908 1.358 . S
C907 C909 1.356 . S
C907 H955 0.930 . S
C908 N905 1.279 . S
C908 C907 1.358 . S
C908 H911 0.930 . S
C909 C906 1.348 . S
C909 C907 1.356 . S
H910 C904 0.930 . S
H911 C908 0.930 . S
C912 C914 1.348 . S
C912 C915 1.356 . S
C912 O942 1.325 . S
N913 C916 1.314 . S
N913 C917 1.279 . S
C914 C912 1.348 . S
C914 C916 1.353 . S
C914 H956 0.929 . S
C915 C912 1.356 . S
C915 C917 1.358 . S
C915 H957 0.930 . S
C916 N913 1.314 . S
C916 C914 1.353 . S
C916 H958 0.930 . S
C917 N913 1.279 . S
C917 C915 1.358 . S
C917 H959 0.930 . S
C918 C919 1.348 . S
C918 C920 1.356 . S
C918 O943 1.325 . S
C919 C918 1.348 . S
C919 C921 1.353 . S
C919 H960 0.929 . S
C920 C918 1.356 . S
C920 C922 1.358 . S
C920 H961 0.930 . S
C921 C919 1.353 . S
C921 N923 1.314 . S
C921 H962 0.930 . S
C922 C920 1.358 . S
C922 N923 1.279 . S
C922 H963 0.930 . S
N923 C921 1.314 . S
N923 C922 1.279 . S
C924 C926 1.353 . S
C924 N927 1.314 . S
C924 H930 0.930 . S
C925 N927 1.279 . S
C925 C928 1.358 . S
C925 H931 0.930 . S
C926 C924 1.353 . S
C926 C929 1.348 . S
C926 H964 0.929 . S
N927 Li882 1.990 . S
N927 C924 1.314 . S
N927 C925 1.279 . S
C928 C925 1.358 . S
C928 C929 1.356 . S
C928 H965 0.930 . S
C929 C926 1.348 . S
C929 C928 1.356 . S
H930 C924 0.930 . S
H931 C925 0.930 . S
C932 N933 1.314 . S
C932 C934 1.353 . S
C932 H938 0.930 . S
N933 Li883 1.990 . S
N933 C932 1.314 . S
N933 C936 1.279 . S
C934 C932 1.353 . S
C934 C937 1.348 . S
C934 H966 0.929 . S
C935 C936 1.358 . S
C935 C937 1.356 . S
C935 H967 0.930 . S
C936 N933 1.279 . S
C936 C935 1.358 . S
C936 H939 0.930 . S
C937 C934 1.348 . S
C937 C935 1.356 . S
H938 C932 0.930 . S
H939 C936 0.930 . S
O940 Li880 1.956 . S
O940 Li881 1.970 . S
O940 Li882 1.961 . S
O940 C884 1.325 . S
O941 Li880 1.970 . S
O941 Li881 1.956 . S
O941 Li883 1.961 . S
O941 C890 1.325 . S
O942 Li880 1.961 . S
O942 Li882 1.956 . S
O942 Li883 1.970 . S
O942 C912 1.325 . S
O943 Li881 1.961 . S
O943 Li882 1.970 . S
O943 Li883 1.956 . S
O943 C918 1.325 . S
H944 C886 0.929 . S
H945 C887 0.930 . S
H946 C888 0.930 . S
H947 C889 0.930 . S
H948 C891 0.930 . S
H949 C893 0.929 . S
H950 C894 0.930 . S
H951 C895 0.930 . S
H952 C898 0.930 . S
H953 C901 0.929 . S
H954 C906 0.929 . S
H955 C907 0.930 . S
H956 C914 0.929 . S
H957 C915 0.930 . S
H958 C916 0.930 . S
H959 C917 0.930 . S
H960 C919 0.929 . S
H961 C920 0.930 . S
H962 C921 0.930 . S
H963 C922 0.930 . S
H964 C926 0.929 . S
H965 C928 0.930 . S
H966 C934 0.929 . S
H967 C935 0.930 . S
Li968 N985 1.990 . S
Li968 O1028 1.956 . S
Li968 O1029 1.970 . S
Li968 O1030 1.961 . S
Li969 N993 1.990 . S
Li969 O1028 1.970 . S
Li969 O1029 1.956 . S
Li969 O1031 1.961 . S
Li970 N1015 1.990 . S
Li970 O1028 1.961 . S
Li970 O1030 1.956 . S
Li970 O1031 1.970 . S
Li971 N1021 1.990 . S
Li971 O1029 1.961 . S
Li971 O1030 1.970 . S
Li971 O1031 1.956 . S
C972 C974 1.348 . S
C972 C975 1.356 . S
C972 O1028 1.325 . S
N973 C976 1.314 . S
N973 C977 1.279 . S
C974 C972 1.348 . S
C974 C976 1.353 . S
C974 H1032 0.929 . S
C975 C972 1.356 . S
C975 C977 1.358 . S
C975 H1033 0.930 . S
C976 N973 1.314 . S
C976 C974 1.353 . S
C976 H1034 0.930 . S
C977 N973 1.279 . S
C977 C975 1.358 . S
C977 H1035 0.930 . S
C978 C981 1.348 . S
C978 C982 1.356 . S
C978 O1029 1.325 . S
C979 N980 1.279 . S
C979 C982 1.358 . S
C979 H1036 0.930 . S
N980 C979 1.279 . S
N980 C983 1.314 . S
C981 C978 1.348 . S
C981 C983 1.353 . S
C981 H1037 0.929 . S
C982 C978 1.356 . S
C982 C979 1.358 . S
C982 H1038 0.930 . S
C983 N980 1.314 . S
C983 C981 1.353 . S
C983 H1039 0.930 . S
C984 N985 1.314 . S
C984 C989 1.353 . S
C984 H990 0.930 . S
N985 Li968 1.990 . S
N985 C984 1.314 . S
N985 C987 1.279 . S
C986 C987 1.358 . S
C986 C988 1.365 . S
C986 H1040 0.930 . S
C987 N985 1.279 . S
C987 C986 1.358 . S
C987 H991 0.930 . S
C988 C986 1.365 . S
C988 C989 1.365 . S
C989 C984 1.353 . S
C989 C988 1.365 . S
C989 H1041 0.929 1_655 S
H990 C984 0.930 . S
H991 C987 0.930 . S
C992 N993 1.314 . S
C992 C994 1.353 . S
C992 H998 0.930 . S
N993 Li969 1.990 . S
N993 C992 1.314 . S
N993 C996 1.279 . S
C994 C992 1.353 . S
C994 C997 1.348 . S
C994 H1042 0.929 . S
C995 C996 1.358 . S
C995 C997 1.356 . S
C995 H1043 0.935 . S
C996 N993 1.279 . S
C996 C995 1.358 . S
C996 H999 0.930 . S
C997 C994 1.348 . S
C997 C995 1.356 . S
H998 C992 0.930 . S
H999 C996 0.930 . S
C1000 C1002 1.348 . S
C1000 C1003 1.356 . S
C1000 O1030 1.325 . S
N1001 C1004 1.314 . S
N1001 C1005 1.279 . S
C1002 C1000 1.348 . S
C1002 C1004 1.353 . S
C1002 H1044 0.929 . S
C1003 C1000 1.356 . S
C1003 C1005 1.358 . S
C1003 H1045 0.930 . S
C1004 N1001 1.314 . S
C1004 C1002 1.353 . S
C1004 H1046 0.930 . S
C1005 N1001 1.279 . S
C1005 C1003 1.358 . S
C1005 H1047 0.930 . S
C1006 C1007 1.348 . S
C1006 C1008 1.356 . S
C1006 O1031 1.325 . S
C1007 C1006 1.348 . S
C1007 C1009 1.353 . S
C1007 H1048 0.929 . S
C1008 C1006 1.356 . S
C1008 C1010 1.358 . S
C1008 H1049 0.930 . S
C1009 C1007 1.353 . S
C1009 N1011 1.314 . S
C1009 H1050 0.930 . S
C1010 C1008 1.358 . S
C1010 N1011 1.279 . S
C1010 H1051 0.930 . S
N1011 C1009 1.314 . S
N1011 C1010 1.279 . S
C1012 C1014 1.353 . S
C1012 N1015 1.314 . S
C1012 H1018 0.930 . S
C1013 N1015 1.279 . S
C1013 C1016 1.358 . S
C1013 H1019 0.930 . S
C1014 C1012 1.353 . S
C1014 C1017 1.348 . S
C1014 H1052 0.929 . S
N1015 Li970 1.990 . S
N1015 C1012 1.314 . S
N1015 C1013 1.279 . S
C1016 C1013 1.358 . S
C1016 C1017 1.356 . S
C1016 H1053 0.930 . S
C1017 C1014 1.348 . S
C1017 C1016 1.356 . S
H1018 C1012 0.930 . S
H1019 C1013 0.930 . S
C1020 N1021 1.314 . S
C1020 C1022 1.353 . S
C1020 H1026 0.930 . S
N1021 Li971 1.990 . S
N1021 C1020 1.314 . S
N1021 C1024 1.279 . S
C1022 C1020 1.353 . S
C1022 C1025 1.348 . S
C1022 H1054 0.929 . S
C1023 C1024 1.358 . S
C1023 C1025 1.356 . S
C1023 H1055 0.930 . S
C1024 N1021 1.279 . S
C1024 C1023 1.358 . S
C1024 H1027 0.930 . S
C1025 C1022 1.348 . S
C1025 C1023 1.356 . S
H1026 C1020 0.930 . S
H1027 C1024 0.930 . S
O1028 Li968 1.956 . S
O1028 Li969 1.970 . S
O1028 Li970 1.961 . S
O1028 C972 1.325 . S
O1029 Li968 1.970 . S
O1029 Li969 1.956 . S
O1029 Li971 1.961 . S
O1029 C978 1.325 . S
O1030 Li968 1.961 . S
O1030 Li970 1.956 . S
O1030 Li971 1.970 . S
O1030 C1000 1.325 . S
O1031 Li969 1.961 . S
O1031 Li970 1.970 . S
O1031 Li971 1.956 . S
O1031 C1006 1.325 . S
H1032 C974 0.929 . S
H1033 C975 0.930 . S
H1034 C976 0.930 . S
H1035 C977 0.930 . S
H1036 C979 0.930 . S
H1037 C981 0.929 . S
H1038 C982 0.930 . S
H1039 C983 0.930 . S
H1040 C986 0.930 . S
H1041 C989 0.929 1_455 S
H1042 C994 0.929 . S
H1043 C995 0.935 . S
H1044 C1002 0.929 . S
H1045 C1003 0.930 . S
H1046 C1004 0.930 . S
H1047 C1005 0.930 . S
H1048 C1007 0.929 . S
H1049 C1008 0.930 . S
H1050 C1009 0.930 . S
H1051 C1010 0.930 . S
H1052 C1014 0.929 . S
H1053 C1016 0.930 . S
H1054 C1022 0.929 . S
H1055 C1023 0.930 . S
C29 C937 2.308 . S
C1017 C117 2.309 . S
C196 C577 2.309 . S
C293 C673 2.308 . S
C372 C761 2.309 . S
C849 C469 2.309 . S
C20 C753 1.939 . S
C108 C841 1.939 . S
C929 C205 1.939 . S
C284 C1025 1.939 . S
C381 C585 1.939 . S
C460 C665 1.939 . S
C900 C49 0.351 . S
C137 C997 0.352 . S
C233 C557 0.352 . S
C313 C636 0.351 . S
C724 C409 0.352 . S
C489 C812 0.351 . S
C57 C988 3.566 1_455 S
C548 C145 3.566 1_566 S
C645 C225 3.567 . S
C733 C321 3.567 1_455 S
C821 C401 3.566 1_545 S
C909 C497 3.567 . S
