# Generated by pormake.
# Topology vbw, (6)-cn, num edge types: 1
# Building blocks:
#     Node 0, Type 0, BuildingBlock: MIDCAF_clean_sbu_0, # of connection points: 6
#     Node 1, Type 0, BuildingBlock: MIDCAF_clean_sbu_0, # of connection points: 6
#     Node 2, Type 0, BuildingBlock: MIDCAF_clean_sbu_0, # of connection points: 6
#     Node 3, Type 0, BuildingBlock: MIDCAF_clean_sbu_0, # of connection points: 6
#     Node 4, Type 0, BuildingBlock: MIDCAF_clean_sbu_0, # of connection points: 6
#     Node 5, Type 0, BuildingBlock: MIDCAF_clean_sbu_0, # of connection points: 6
#     Node 6, Type 0, BuildingBlock: MIDCAF_clean_sbu_0, # of connection points: 6
#     Node 7, Type 0, BuildingBlock: MIDCAF_clean_sbu_0, # of connection points: 6
#     Node 8, Type 0, BuildingBlock: MIDCAF_clean_sbu_0, # of connection points: 6
#     Node 9, Type 0, BuildingBlock: MIDCAF_clean_sbu_0, # of connection points: 6
#     Node 10, Type 0, BuildingBlock: MIDCAF_clean_sbu_0, # of connection points: 6
#     Node 11, Type 0, BuildingBlock: MIDCAF_clean_sbu_0, # of connection points: 6
#     Node 12, Type 0, BuildingBlock: MIDCAF_clean_sbu_0, # of connection points: 6
#     Node 13, Type 0, BuildingBlock: MIDCAF_clean_sbu_0, # of connection points: 6
#     Node 14, Type 0, BuildingBlock: MIDCAF_clean_sbu_0, # of connection points: 6
#     Node 15, Type 0, BuildingBlock: MIDCAF_clean_sbu_0, # of connection points: 6
#     Edge 16, Type (0, 0), BuildingBlock: CIFDUS_clean_linker_0, # of connection points: 2
#     Edge 17, Type (0, 0), BuildingBlock: CIFDUS_clean_linker_0, # of connection points: 2
#     Edge 18, Type (0, 0), BuildingBlock: CIFDUS_clean_linker_0, # of connection points: 2
#     Edge 19, Type (0, 0), BuildingBlock: CIFDUS_clean_linker_0, # of connection points: 2
#     Edge 20, Type (0, 0), BuildingBlock: CIFDUS_clean_linker_0, # of connection points: 2
#     Edge 21, Type (0, 0), BuildingBlock: CIFDUS_clean_linker_0, # of connection points: 2
#     Edge 22, Type (0, 0), BuildingBlock: CIFDUS_clean_linker_0, # of connection points: 2
#     Edge 23, Type (0, 0), BuildingBlock: CIFDUS_clean_linker_0, # of connection points: 2
#     Edge 24, Type (0, 0), BuildingBlock: CIFDUS_clean_linker_0, # of connection points: 2
#     Edge 25, Type (0, 0), BuildingBlock: CIFDUS_clean_linker_0, # of connection points: 2
#     Edge 26, Type (0, 0), BuildingBlock: CIFDUS_clean_linker_0, # of connection points: 2
#     Edge 27, Type (0, 0), BuildingBlock: CIFDUS_clean_linker_0, # of connection points: 2
#     Edge 28, Type (0, 0), BuildingBlock: CIFDUS_clean_linker_0, # of connection points: 2
#     Edge 29, Type (0, 0), BuildingBlock: CIFDUS_clean_linker_0, # of connection points: 2
#     Edge 30, Type (0, 0), BuildingBlock: CIFDUS_clean_linker_0, # of connection points: 2
#     Edge 31, Type (0, 0), BuildingBlock: CIFDUS_clean_linker_0, # of connection points: 2
#     Edge 32, Type (0, 0), BuildingBlock: CIFDUS_clean_linker_0, # of connection points: 2
#     Edge 33, Type (0, 0), BuildingBlock: CIFDUS_clean_linker_0, # of connection points: 2
#     Edge 34, Type (0, 0), BuildingBlock: CIFDUS_clean_linker_0, # of connection points: 2
#     Edge 35, Type (0, 0), BuildingBlock: CIFDUS_clean_linker_0, # of connection points: 2
#     Edge 36, Type (0, 0), BuildingBlock: CIFDUS_clean_linker_0, # of connection points: 2
#     Edge 37, Type (0, 0), BuildingBlock: CIFDUS_clean_linker_0, # of connection points: 2
#     Edge 38, Type (0, 0), BuildingBlock: CIFDUS_clean_linker_0, # of connection points: 2
#     Edge 39, Type (0, 0), BuildingBlock: CIFDUS_clean_linker_0, # of connection points: 2
#     Edge 40, Type (0, 0), BuildingBlock: CIFDUS_clean_linker_0, # of connection points: 2
#     Edge 41, Type (0, 0), BuildingBlock: CIFDUS_clean_linker_0, # of connection points: 2
#     Edge 42, Type (0, 0), BuildingBlock: CIFDUS_clean_linker_0, # of connection points: 2
#     Edge 43, Type (0, 0), BuildingBlock: CIFDUS_clean_linker_0, # of connection points: 2
#     Edge 44, Type (0, 0), BuildingBlock: CIFDUS_clean_linker_0, # of connection points: 2
#     Edge 45, Type (0, 0), BuildingBlock: CIFDUS_clean_linker_0, # of connection points: 2
#     Edge 46, Type (0, 0), BuildingBlock: CIFDUS_clean_linker_0, # of connection points: 2
#     Edge 47, Type (0, 0), BuildingBlock: CIFDUS_clean_linker_0, # of connection points: 2
#     Edge 48, Type (0, 0), BuildingBlock: CIFDUS_clean_linker_0, # of connection points: 2
#     Edge 49, Type (0, 0), BuildingBlock: CIFDUS_clean_linker_0, # of connection points: 2
#     Edge 50, Type (0, 0), BuildingBlock: CIFDUS_clean_linker_0, # of connection points: 2
#     Edge 51, Type (0, 0), BuildingBlock: CIFDUS_clean_linker_0, # of connection points: 2
#     Edge 52, Type (0, 0), BuildingBlock: CIFDUS_clean_linker_0, # of connection points: 2
#     Edge 53, Type (0, 0), BuildingBlock: CIFDUS_clean_linker_0, # of connection points: 2
#     Edge 54, Type (0, 0), BuildingBlock: CIFDUS_clean_linker_0, # of connection points: 2
#     Edge 55, Type (0, 0), BuildingBlock: CIFDUS_clean_linker_0, # of connection points: 2
#     Edge 56, Type (0, 0), BuildingBlock: CIFDUS_clean_linker_0, # of connection points: 2
#     Edge 57, Type (0, 0), BuildingBlock: CIFDUS_clean_linker_0, # of connection points: 2
#     Edge 58, Type (0, 0), BuildingBlock: CIFDUS_clean_linker_0, # of connection points: 2
#     Edge 59, Type (0, 0), BuildingBlock: CIFDUS_clean_linker_0, # of connection points: 2
#     Edge 60, Type (0, 0), BuildingBlock: CIFDUS_clean_linker_0, # of connection points: 2
#     Edge 61, Type (0, 0), BuildingBlock: CIFDUS_clean_linker_0, # of connection points: 2
#     Edge 62, Type (0, 0), BuildingBlock: CIFDUS_clean_linker_0, # of connection points: 2
#     Edge 63, Type (0, 0), BuildingBlock: CIFDUS_clean_linker_0, # of connection points: 2
# Relax obj value: 0.402
# Max RMSD: 0.279
# Mean RMSD: 0.279
data_MOF--net-vbw--node1-MIDCAF_clean_sbu_0--edge1-CIFDUS_clean_linker_0
_symmetry_space_group_name_H-M    P1
_symmetry_Int_Tables_number       1
_symmetry_cell_setting            triclinic
loop_
_symmetry_equiv_pos_as_xyz
'x, y, z'
_cell_length_a     44.971934
_cell_length_b     39.889797
_cell_length_c     23.296795
_cell_angle_alpha  89.862199
_cell_angle_beta   89.996396
_cell_angle_gamma 89.854582
loop_
_atom_site_label
_atom_site_type_symbol
_atom_site_fract_x
_atom_site_fract_y
_atom_site_fract_z
_atom_type_partial_charge
Zn0 Zn 0.11536 0.18884 0.07785 0.0
Zn1 Zn 0.18538 0.19688 0.21159 0.0
Zn2 Zn 0.15347 0.18834 0.13939 0.0
C3 C 0.16896 0.1335 0.23286 0.0
C4 C 0.14471 0.24768 0.21965 0.0
O5 O 0.16741 0.20811 0.05396 0.0
O6 O 0.12396 0.23177 0.0387 0.0
C7 C 0.1402 0.12407 0.07351 0.0
O8 O 0.15994 0.13849 0.18094 0.0
O9 O 0.17622 0.15852 0.26277 0.0
O10 O 0.17121 0.24124 0.23344 0.0
O11 O 0.13086 0.22774 0.18642 0.0
O12 O 0.12959 0.14462 0.0373 0.0
O13 O 0.145 0.13477 0.12503 0.0
O14 O 0.12149 0.14906 0.16687 0.0
O15 O 0.08681 0.1854 0.14486 0.0
C16 C 0.09461 0.1596 0.17274 0.0
O17 O 0.19465 0.20086 0.09358 0.0
O18 O 0.22361 0.19731 0.16963 0.0
C19 C 0.1509 0.2283 0.0245 0.0
C20 C 0.22069 0.20205 0.11634 0.0
Zn21 Zn 0.32072 0.80558 0.64022 0.0
Zn22 Zn 0.38716 0.87336 0.54433 0.0
Zn23 Zn 0.35106 0.84464 0.60561 0.0
C24 C 0.40916 0.86551 0.66136 0.0
C25 C 0.33644 0.91505 0.54995 0.0
O26 O 0.30577 0.85844 0.5755 0.0
O27 O 0.29864 0.80417 0.56597 0.0
C28 C 0.36294 0.79057 0.70194 0.0
O29 O 0.38451 0.85048 0.67019 0.0
O30 O 0.41535 0.87692 0.61198 0.0
O31 O 0.36137 0.9124 0.52536 0.0
O32 O 0.32747 0.89204 0.5848 0.0
O33 O 0.34987 0.77151 0.66669 0.0
O34 O 0.36505 0.82204 0.68971 0.0
O35 O 0.31379 0.87652 0.63303 0.0
O36 O 0.30718 0.83979 0.70215 0.0
C37 C 0.3046 0.86961 0.68411 0.0
O38 O 0.35848 0.80979 0.53742 0.0
O39 O 0.39081 0.83729 0.48448 0.0
C40 C 0.29158 0.83389 0.5526 0.0
C41 C 0.37486 0.8117 0.49278 0.0
Zn42 Zn 0.18043 0.84125 0.87718 0.0
Zn43 Zn 0.0889 0.88371 0.96168 0.0
Zn44 Zn 0.13478 0.86389 0.90941 0.0
C45 C 0.06993 0.86444 0.85383 0.0
C46 C 0.12712 0.93778 0.95898 0.0
O47 O 0.15803 0.82664 0.97177 0.0
O48 O 0.18924 0.79889 0.91647 0.0
C49 C 0.14245 0.83423 0.78562 0.0
O50 O 0.09613 0.8512 0.85294 0.0
O51 O 0.0625 0.88374 0.89421 0.0
O52 O 0.10567 0.92683 0.98841 0.0
O53 O 0.1396 0.91882 0.9214 0.0
O54 O 0.16992 0.83661 0.79555 0.0
O55 O 0.1237 0.84099 0.82586 0.0
O56 O 0.16439 0.90609 0.88597 0.0
O57 O 0.2066 0.87938 0.89747 0.0
C58 C 0.19302 0.90616 0.88524 0.0
O59 O 0.13004 0.83886 0.99186 0.0
O60 O 0.0834 0.84751 0.0192 0.0
C61 C 0.17728 0.80272 0.9648 0.0
C62 C 0.10822 0.83342 0.02649 0.0
Zn63 Zn 0.31233 0.17017 0.20771 0.0
Zn64 Zn 0.39011 0.13492 0.44884 0.0
Zn65 Zn 0.3587 0.15846 0.36967 0.0
C66 C 0.42603 0.13277 0.35359 0.0
C67 C 0.34355 0.09296 0.44654 0.0
O68 O 0.32289 0.18968 0.33176 0.0
O69 O 0.29224 0.2053 0.26124 0.0
C70 C 0.37595 0.17745 0.25176 0.0
O71 O 0.40523 0.15288 0.33708 0.0
O72 O 0.42311 0.11698 0.4003 0.0
O73 O 0.3617 0.10274 0.48417 0.0
O74 O 0.34179 0.10871 0.3983 0.0
O75 O 0.3526 0.15998 0.2461 0.0
O76 O 0.38903 0.17485 0.30039 0.0
O77 O 0.32685 0.11809 0.34873 0.0
O78 O 0.33304 0.13496 0.26114 0.0
C79 C 0.31919 0.11601 0.2959 0.0
O80 O 0.35672 0.19399 0.44066 0.0
O81 O 0.39651 0.17827 0.48853 0.0
C82 C 0.30194 0.20876 0.31262 0.0
C83 C 0.37592 0.1993 0.48027 0.0
Zn84 Zn 0.80634 0.81229 0.77378 0.0
Zn85 Zn 0.87777 0.83314 0.92244 0.0
Zn86 Zn 0.84193 0.82052 0.85008 0.0
C87 C 0.91177 0.82537 0.82806 0.0
C88 C 0.84363 0.88761 0.92576 0.0
O89 O 0.80916 0.78322 0.88531 0.0
O90 O 0.77493 0.78955 0.81845 0.0
C91 C 0.85545 0.78567 0.72869 0.0
O92 O 0.88728 0.81112 0.813 0.0
O93 O 0.91265 0.84238 0.87355 0.0
O94 O 0.85913 0.87187 0.96199 0.0
O95 O 0.83717 0.87364 0.87748 0.0
O96 O 0.82787 0.78468 0.72008 0.0
O97 O 0.86599 0.79967 0.77412 0.0
O98 O 0.81914 0.8694 0.82984 0.0
O99 O 0.79923 0.85815 0.74593 0.0
C100 C 0.80527 0.87923 0.78432 0.0
O101 O 0.83336 0.78734 0.92471 0.0
O102 O 0.87783 0.79013 0.96427 0.0
C103 C 0.78296 0.77676 0.8656 0.0
C104 C 0.85233 0.77717 0.96252 0.0
Zn105 Zn 0.61016 0.16794 0.42683 0.0
Zn106 Zn 0.73484 0.13767 0.31071 0.0
Zn107 Zn 0.65489 0.1512 0.38403 0.0
C108 C 0.67982 0.09678 0.33127 0.0
C109 C 0.68914 0.18545 0.26595 0.0
O110 O 0.65955 0.18071 0.46604 0.0
O111 O 0.61778 0.20969 0.46937 0.0
C112 C 0.62316 0.09808 0.4534 0.0
O113 O 0.65331 0.09945 0.35065 0.0
O114 O 0.69843 0.11752 0.35084 0.0
O115 O 0.715 0.17245 0.25859 0.0
O116 O 0.67175 0.17696 0.30749 0.0
O117 O 0.61103 0.12368 0.47578 0.0
O118 O 0.63599 0.10159 0.40421 0.0
O119 O 0.6167 0.12156 0.35244 0.0
O120 O 0.59351 0.16928 0.34618 0.0
C121 C 0.59494 0.13876 0.33231 0.0
O122 O 0.6848 0.1592 0.45671 0.0
O123 O 0.71113 0.14349 0.38494 0.0
C124 C 0.6437 0.2044 0.48807 0.0
C125 C 0.7107 0.1553 0.43536 0.0
Zn126 Zn 0.808 0.13998 0.27884 0.0
Zn127 Zn 0.90194 0.11485 0.0532 0.0
Zn128 Zn 0.86408 0.13366 0.12728 0.0
C129 C 0.93281 0.11586 0.15519 0.0
C130 C 0.85797 0.06817 0.04756 0.0
O131 O 0.8264 0.1583 0.16638 0.0
O132 O 0.79021 0.17584 0.22216 0.0
C133 C 0.87318 0.14612 0.25333 0.0
O134 O 0.90855 0.13099 0.16924 0.0
O135 O 0.93479 0.10204 0.10661 0.0
O136 O 0.87861 0.07893 0.01587 0.0
O137 O 0.85112 0.08398 0.09373 0.0
O138 O 0.8507 0.12693 0.25402 0.0
O139 O 0.88794 0.14724 0.20624 0.0
O140 O 0.82947 0.09456 0.13727 0.0
O141 O 0.83116 0.10356 0.22973 0.0
C142 C 0.81903 0.0886 0.18756 0.0
O143 O 0.86456 0.17256 0.06193 0.0
O144 O 0.90472 0.15895 0.0136 0.0
C145 C 0.80342 0.17671 0.17358 0.0
C146 C 0.88388 0.17943 0.02337 0.0
Zn147 Zn 0.6732 0.82714 0.70802 0.0
Zn148 Zn 0.59273 0.85812 0.58107 0.0
Zn149 Zn 0.63309 0.84011 0.63919 0.0
C150 C 0.56741 0.84935 0.68484 0.0
C151 C 0.62675 0.91042 0.56669 0.0
O152 O 0.66189 0.80409 0.59309 0.0
O153 O 0.70024 0.80436 0.65236 0.0
C154 C 0.62675 0.80198 0.76391 0.0
O155 O 0.59161 0.83221 0.68959 0.0
O156 O 0.5639 0.86846 0.64226 0.0
O157 O 0.60631 0.89726 0.53762 0.0
O158 O 0.63815 0.89426 0.60961 0.0
O159 O 0.65464 0.79996 0.76748 0.0
O160 O 0.61464 0.81739 0.72091 0.0
O161 O 0.65857 0.88738 0.65279 0.0
O162 O 0.68203 0.87328 0.73215 0.0
C163 C 0.67499 0.89545 0.69593 0.0
O164 O 0.63309 0.80422 0.56575 0.0
O165 O 0.58733 0.81576 0.53841 0.0
C166 C 0.6889 0.79553 0.60516 0.0
C167 C 0.61011 0.79735 0.53473 0.0
Zn168 Zn 0.55878 0.61695 0.04451 0.0
Zn169 Zn 0.65025 0.69499 0.17809 0.0
Zn170 Zn 0.62382 0.65497 0.13827 0.0
C171 C 0.67293 0.62858 0.20276 0.0
C172 C 0.60688 0.70074 0.24375 0.0
O173 O 0.60187 0.67966 0.06515 0.0
O174 O 0.56412 0.6637 0.00797 0.0
C175 C 0.62707 0.59788 0.07216 0.0
O176 O 0.66377 0.62508 0.15067 0.0
O177 O 0.66778 0.65614 0.22797 0.0
O178 O 0.61907 0.7233 0.21386 0.0
O179 O 0.60861 0.67001 0.22717 0.0
O180 O 0.60167 0.61176 0.07547 0.0
O181 O 0.64726 0.611 0.10346 0.0
O182 O 0.59297 0.63918 0.20458 0.0
O183 O 0.57845 0.62134 0.1227 0.0
C184 C 0.57254 0.62515 0.17543 0.0
O185 O 0.66908 0.65113 0.09854 0.0
O186 O 0.66888 0.70609 0.10296 0.0
C187 C 0.58386 0.68517 0.02304 0.0
C188 C 0.67897 0.67955 0.08068 0.0
Zn189 Zn 0.82917 0.31508 0.69032 0.0
Zn190 Zn 0.91592 0.32041 0.56573 0.0
Zn191 Zn 0.87258 0.31855 0.63006 0.0
C192 C 0.94267 0.31434 0.66889 0.0
C193 C 0.88358 0.37873 0.54325 0.0
O194 O 0.8434 0.27666 0.59932 0.0
O195 O 0.81111 0.27258 0.67029 0.0
C196 C 0.87494 0.30613 0.76577 0.0
O197 O 0.9149 0.31292 0.68317 0.0
O198 O 0.94978 0.31888 0.6172 0.0
O199 O 0.90587 0.36235 0.52611 0.0
O200 O 0.86874 0.36814 0.58692 0.0
O201 O 0.84797 0.31481 0.76664 0.0
O202 O 0.88897 0.30553 0.71741 0.0
O203 O 0.84873 0.36905 0.63571 0.0
O204 O 0.80515 0.35427 0.67035 0.0
C205 C 0.82206 0.37692 0.65179 0.0
O206 O 0.86792 0.27852 0.56132 0.0
O207 O 0.91129 0.28154 0.51711 0.0
C208 C 0.82098 0.26197 0.6232 0.0
C209 C 0.88619 0.26803 0.52231 0.0
Zn210 Zn 0.72532 0.33079 0.84537 0.0
Zn211 Zn 0.62976 0.36148 0.95198 0.0
Zn212 Zn 0.67587 0.34943 0.88777 0.0
C213 C 0.60819 0.33989 0.84508 0.0
C214 C 0.66032 0.42228 0.93779 0.0
O215 O 0.70431 0.3167 0.94667 0.0
O216 O 0.74575 0.30273 0.90148 0.0
C217 C 0.67983 0.30938 0.77021 0.0
O218 O 0.63613 0.33601 0.83398 0.0
O219 O 0.59993 0.3512 0.893 0.0
O220 O 0.63902 0.40904 0.96478 0.0
O221 O 0.67685 0.40446 0.90442 0.0
O222 O 0.70762 0.30841 0.77786 0.0
O223 O 0.66305 0.3244 0.80699 0.0
O224 O 0.69966 0.39668 0.86293 0.0
O225 O 0.74224 0.37537 0.83288 0.0
C226 C 0.72585 0.40059 0.84123 0.0
O227 O 0.67473 0.31789 0.96684 0.0
O228 O 0.63362 0.32911 0.01559 0.0
C229 C 0.72996 0.3018 0.94604 0.0
C230 C 0.65691 0.3119 0.00921 0.0
Zn231 Zn 0.8081 0.65174 0.3275 0.0
Zn232 Zn 0.8963 0.60851 0.4065 0.0
Zn233 Zn 0.84898 0.63348 0.37028 0.0
C234 C 0.91282 0.63757 0.30661 0.0
C235 C 0.85907 0.55664 0.41753 0.0
O236 O 0.82538 0.66892 0.42991 0.0
O237 O 0.78121 0.66065 0.39201 0.0
C238 C 0.84273 0.68184 0.26031 0.0
O239 O 0.88594 0.64821 0.31251 0.0
O240 O 0.92264 0.61517 0.33989 0.0
O241 O 0.88591 0.56296 0.42811 0.0
O242 O 0.84235 0.57888 0.3932 0.0
O243 O 0.81913 0.69153 0.28421 0.0
O244 O 0.85801 0.65809 0.28414 0.0
O245 O 0.82168 0.5886 0.35211 0.0
O246 O 0.80161 0.61256 0.27702 0.0
C247 C 0.80674 0.58624 0.30527 0.0
O248 O 0.85509 0.66099 0.44951 0.0
O249 O 0.89927 0.6402 0.4724 0.0
C250 C 0.79696 0.67358 0.43088 0.0
C251 C 0.87793 0.65995 0.48264 0.0
Zn252 Zn 0.42607 0.35928 0.93887 0.0
Zn253 Zn 0.33664 0.33647 0.8232 0.0
Zn254 Zn 0.38131 0.34475 0.87225 0.0
C255 C 0.32848 0.39892 0.85031 0.0
C256 C 0.37824 0.32616 0.74072 0.0
O257 O 0.37904 0.31137 0.94853 0.0
O258 O 0.41784 0.32607 1.00109 0.0
C259 C 0.39675 0.41878 0.92798 0.0
O260 O 0.3566 0.39336 0.85688 0.0
O261 O 0.31115 0.37427 0.84717 0.0
O262 O 0.3521 0.33753 0.74404 0.0
O263 O 0.39432 0.32495 0.78655 0.0
O264 O 0.41948 0.40743 0.95313 0.0
O265 O 0.38072 0.39926 0.89657 0.0
O266 O 0.42113 0.32991 0.82072 0.0
O267 O 0.4561 0.34712 0.88068 0.0
C268 C 0.44877 0.33419 0.83337 0.0
O269 O 0.35213 0.30658 0.9167 0.0
O270 O 0.32189 0.29252 0.8464 0.0
C271 C 0.39561 0.30733 0.99328 0.0
C272 C 0.331 0.28795 0.89685 0.0
Zn273 Zn 0.18338 0.71561 0.28874 0.0
Zn274 Zn 0.08831 0.68194 0.45091 0.0
Zn275 Zn 0.1331 0.68375 0.38921 0.0
C276 C 0.06404 0.68519 0.346 0.0
C277 C 0.12652 0.62398 0.47127 0.0
O278 O 0.15902 0.72813 0.4133 0.0
O279 O 0.15952 0.75197 0.3286 0.0
C280 C 0.13029 0.68878 0.25323 0.0
O281 O 0.0921 0.68663 0.33588 0.0
O282 O 0.05482 0.68199 0.39678 0.0
O283 O 0.10317 0.63941 0.48634 0.0
O284 O 0.14195 0.635 0.42882 0.0
O285 O 0.15729 0.67974 0.25231 0.0
O286 O 0.11755 0.69325 0.30211 0.0
O287 O 0.16056 0.63953 0.37896 0.0
O288 O 0.1851 0.66535 0.3091 0.0
C289 C 0.1792 0.6389 0.33732 0.0
O290 O 0.13768 0.7202 0.46078 0.0
O291 O 0.09296 0.72154 0.49952 0.0
C292 C 0.16548 0.75341 0.3813 0.0
C293 C 0.11937 0.73201 0.49819 0.0
Zn294 Zn 0.32281 0.64326 0.20125 0.0
Zn295 Zn 0.38864 0.67296 0.07898 0.0
Zn296 Zn 0.34243 0.65217 0.10933 0.0
C297 C 0.40398 0.63671 0.16777 0.0
C298 C 0.38219 0.60621 0.04022 0.0
O299 O 0.29463 0.65368 0.09813 0.0
O300 O 0.28788 0.67814 0.18044 0.0
C301 C 0.35982 0.68666 0.2301 0.0
O302 O 0.38004 0.62284 0.1488 0.0
O303 O 0.40942 0.66676 0.15371 0.0
O304 O 0.39399 0.63308 0.02222 0.0
O305 O 0.36592 0.60742 0.08525 0.0
O306 O 0.3533 0.65891 0.25259 0.0
O307 O 0.35481 0.69098 0.17616 0.0
O308 O 0.30312 0.61729 0.11487 0.0
O309 O 0.32161 0.59283 0.18956 0.0
C310 C 0.30139 0.59365 0.15235 0.0
O311 O 0.34294 0.68039 0.02853 0.0
O312 O 0.37816 0.71721 0.04397 0.0
C313 C 0.27938 0.67395 0.12911 0.0
C314 C 0.35701 0.70681 0.01303 0.0
Zn315 Zn 0.11632 0.39188 0.58283 0.0
Zn316 Zn 0.21522 0.34413 0.64199 0.0
Zn317 Zn 0.16557 0.3665 0.61254 0.0
C318 C 0.2208 0.41117 0.66107 0.0
C319 C 0.1741 0.31992 0.72262 0.0
O320 O 0.15893 0.35198 0.52375 0.0
O321 O 0.112 0.36685 0.50923 0.0
C322 C 0.15386 0.44527 0.58851 0.0
O323 O 0.19324 0.40919 0.64592 0.0
O324 O 0.23712 0.3855 0.6586 0.0
O325 O 0.20137 0.31856 0.70997 0.0
O326 O 0.15601 0.33637 0.69005 0.0
O327 O 0.12754 0.43879 0.57401 0.0
O328 O 0.17098 0.4219 0.60778 0.0
O329 O 0.12706 0.34547 0.66556 0.0
O330 O 0.09011 0.38036 0.64672 0.0
C331 C 0.09996 0.35543 0.67406 0.0
O332 O 0.1864 0.33601 0.53924 0.0
O333 O 0.22913 0.31923 0.57601 0.0
C334 C 0.13579 0.35371 0.49126 0.0
C335 C 0.21141 0.32014 0.53421 0.0
H336 H 0.20201 0.09256 0.16749 0.0
H337 H 0.16814 0.10308 0.33888 0.0
H338 H 0.21717 0.09066 0.37849 0.0
H339 H 0.27112 0.09883 0.36197 0.0
H340 H 0.30458 0.09727 0.18845 0.0
H341 H 0.25508 0.085 0.152 0.0
C342 C 0.205 0.09013 0.21357 0.0
C343 C 0.18237 0.10135 0.25028 0.0
C344 C 0.23395 0.08687 0.23543 0.0
C345 C 0.18582 0.09604 0.30966 0.0
C346 C 0.21416 0.09002 0.33235 0.0
C347 C 0.26765 0.09478 0.31643 0.0
C348 C 0.2911 0.10023 0.27767 0.0
C349 C 0.23878 0.08903 0.29541 0.0
C350 C 0.28655 0.09426 0.21888 0.0
C351 C 0.25827 0.08707 0.19797 0.0
H352 H 0.24921 0.92808 0.9004 0.0
H353 H 0.17449 0.93633 0.78618 0.0
H354 H 0.20745 0.93249 0.70338 0.0
H355 H 0.25387 0.90572 0.66769 0.0
H356 H 0.32621 0.88913 0.78561 0.0
H357 H 0.29854 0.91687 0.8621 0.0
C358 C 0.24044 0.93115 0.85728 0.0
C359 C 0.20952 0.93019 0.84916 0.0
C360 C 0.25925 0.92547 0.81029 0.0
C361 C 0.19827 0.93572 0.79359 0.0
C362 C 0.21711 0.93255 0.74601 0.0
C363 C 0.26385 0.90953 0.70956 0.0
C364 C 0.29162 0.89509 0.72186 0.0
C365 C 0.24711 0.92399 0.75424 0.0
C366 C 0.30459 0.89984 0.77594 0.0
C367 C 0.28878 0.91565 0.81961 0.0
H368 H 0.68726 0.93434 0.78801 0.0
H369 H 0.70409 0.9259 0.60717 0.0
H370 H 0.75687 0.93529 0.62318 0.0
H371 H 0.79607 0.91733 0.69008 0.0
H372 H 0.77766 0.91294 0.87123 0.0
H373 H 0.72899 0.93812 0.85529 0.0
C374 C 0.70235 0.93686 0.75189 0.0
C375 C 0.69258 0.92661 0.69725 0.0
C376 C 0.73303 0.93826 0.76258 0.0
C377 C 0.71144 0.93199 0.65017 0.0
C378 C 0.7419 0.93649 0.65958 0.0
C379 C 0.78202 0.92385 0.7263 0.0
C380 C 0.78956 0.91173 0.78123 0.0
C381 C 0.75299 0.93524 0.71595 0.0
C382 C 0.77199 0.92122 0.82828 0.0
C383 C 0.7438 0.93509 0.81895 0.0
H384 H 0.71193 0.04068 0.32442 0.0
H385 H 0.66903 0.1161 0.22164 0.0
H386 H 0.71054 0.1156 0.15406 0.0
H387 H 0.76505 0.10699 0.14437 0.0
H388 H 0.80877 0.03542 0.25457 0.0
H389 H 0.76136 0.02056 0.29846 0.0
C390 C 0.7108 0.05522 0.28502 0.0
C391 C 0.68801 0.07898 0.27865 0.0
C392 C 0.73576 0.05644 0.24892 0.0
C393 C 0.68652 0.09768 0.22754 0.0
C394 C 0.71072 0.09805 0.18965 0.0
C395 C 0.7638 0.08702 0.17597 0.0
C396 C 0.79014 0.07235 0.19671 0.0
C397 C 0.73649 0.07962 0.20279 0.0
C398 C 0.78861 0.04696 0.23831 0.0
C399 C 0.76154 0.03861 0.26359 0.0
H400 H 0.76151 0.56398 0.36934 0.0
H401 H 0.80621 0.54542 0.21013 0.0
H402 H 0.75961 0.55192 0.15755 0.0
H403 H 0.71293 0.58518 0.15565 0.0
H404 H 0.67254 0.61425 0.3159 0.0
H405 H 0.71002 0.58282 0.36922 0.0
C406 C 0.76056 0.55932 0.32347 0.0
C407 C 0.78729 0.55776 0.29266 0.0
C408 C 0.7345 0.56768 0.2935 0.0
C409 C 0.78586 0.5489 0.23433 0.0
C410 C 0.75934 0.55382 0.20395 0.0
C411 C 0.71188 0.58361 0.2021 0.0
C412 C 0.69082 0.60279 0.2321 0.0
C413 C 0.73448 0.56691 0.23266 0.0
C414 C 0.68927 0.60041 0.2922 0.0
C415 C 0.71057 0.58229 0.32271 0.0
H416 H 0.77614 0.4384 0.85134 0.0
H417 H 0.69585 0.42905 0.75295 0.0
H418 H 0.72424 0.43162 0.66411 0.0
H419 H 0.77173 0.41115 0.62284 0.0
H420 H 0.85205 0.41872 0.72202 0.0
H421 H 0.82441 0.44355 0.80119 0.0
C422 C 0.76467 0.43953 0.81041 0.0
C423 C 0.73432 0.43078 0.80839 0.0
C424 C 0.78155 0.43918 0.75947 0.0
C425 C 0.71947 0.43417 0.75562 0.0
C426 C 0.73587 0.43473 0.70448 0.0
C427 C 0.7835 0.42057 0.6601 0.0
C428 C 0.81351 0.41139 0.66808 0.0
C429 C 0.76706 0.43343 0.70659 0.0
C430 C 0.82875 0.42462 0.71551 0.0
C431 C 0.81275 0.43819 0.76156 0.0
H432 H 0.27727 0.43136 0.87807 0.0
H433 H 0.35329 0.4367 0.76641 0.0
H434 H 0.32177 0.45546 0.68763 0.0
H435 H 0.27213 0.44559 0.64573 0.0
H436 H 0.19608 0.43734 0.75675 0.0
H437 H 0.22756 0.44598 0.84049 0.0
C438 C 0.28716 0.43894 0.83759 0.0
C439 C 0.31714 0.43088 0.82684 0.0
C440 C 0.26852 0.44805 0.79166 0.0
C441 C 0.33005 0.44177 0.7752 0.0
C442 C 0.31185 0.45185 0.72958 0.0
C443 C 0.26221 0.44814 0.68797 0.0
C444 C 0.2322 0.43924 0.69559 0.0
C445 C 0.28082 0.45146 0.7361 0.0
C446 C 0.2193 0.44339 0.75 0.0
C447 C 0.23748 0.44762 0.79818 0.0
H448 H 0.28709 0.56459 0.25458 0.0
H449 H 0.24816 0.59663 0.09418 0.0
H450 H 0.19982 0.60225 0.14111 0.0
H451 H 0.17419 0.61518 0.23107 0.0
H452 H 0.2172 0.59581 0.39287 0.0
H453 H 0.2578 0.56696 0.34293 0.0
C454 C 0.26787 0.57175 0.22919 0.0
C455 C 0.27158 0.58174 0.17125 0.0
C456 C 0.24085 0.57771 0.25763 0.0
C457 C 0.24618 0.58978 0.139 0.0
C458 C 0.21856 0.59327 0.16609 0.0
C459 C 0.19184 0.60323 0.25547 0.0
C460 C 0.19306 0.60797 0.3154 0.0
C461 C 0.21635 0.58993 0.22604 0.0
C462 C 0.21576 0.59235 0.34685 0.0
C463 C 0.23925 0.57648 0.31801 0.0
H464 H 0.12175 0.27555 0.96217 0.0
H465 H 0.20155 0.21561 0.96312 0.0
H466 H 0.21557 0.23832 0.86945 0.0
H467 H 0.20394 0.27366 0.78591 0.0
H468 H 0.12345 0.33278 0.78447 0.0
H469 H 0.11004 0.31063 0.87869 0.0
C470 C 0.14236 0.26757 0.9422 0.0
C471 C 0.16104 0.24433 0.97044 0.0
C472 C 0.14957 0.27984 0.88746 0.0
C473 C 0.18743 0.2342 0.94345 0.0
C474 C 0.19511 0.24679 0.88936 0.0
C475 C 0.18333 0.2816 0.80597 0.0
C476 C 0.16438 0.30443 0.7774 0.0
C477 C 0.17616 0.26935 0.86076 0.0
C478 C 0.13792 0.31449 0.80435 0.0
C479 C 0.13051 0.30223 0.85876 0.0
H480 H 0.38171 0.81738 0.37711 0.0
H481 H 0.3676 0.74539 0.51297 0.0
H482 H 0.36615 0.70011 0.44277 0.0
H483 H 0.3659 0.68167 0.34445 0.0
H484 H 0.37364 0.75292 0.20539 0.0
H485 H 0.38145 0.79807 0.27558 0.0
C486 C 0.37857 0.79169 0.39114 0.0
C487 C 0.37483 0.78455 0.45005 0.0
C488 C 0.37675 0.76589 0.35023 0.0
C489 C 0.37037 0.75138 0.46789 0.0
C490 C 0.36965 0.72555 0.42783 0.0
C491 C 0.36952 0.70698 0.32886 0.0
C492 C 0.36905 0.71389 0.26947 0.0
C493 C 0.37241 0.73263 0.36905 0.0
C494 C 0.37393 0.7469 0.25074 0.0
C495 C 0.37817 0.77268 0.2909 0.0
H496 H 0.15893 0.74333 0.21934 0.0
H497 H 0.07995 0.6857 0.18642 0.0
H498 H 0.06437 0.72714 0.11355 0.0
H499 H 0.07498 0.77963 0.05833 0.0
H500 H 0.15156 0.83865 0.10378 0.0
H501 H 0.1658 0.7974 0.17624 0.0
C502 C 0.13818 0.7398 0.19684 0.0
C503 C 0.12072 0.71151 0.20747 0.0
C504 C 0.1289 0.76421 0.15828 0.0
C505 C 0.0938 0.70731 0.17806 0.0
C506 C 0.08491 0.73102 0.13691 0.0
C507 C 0.0945 0.78341 0.08486 0.0
C508 C 0.11292 0.81124 0.07532 0.0
C509 C 0.10241 0.75961 0.12665 0.0
C510 C 0.13782 0.81666 0.10991 0.0
C511 C 0.1459 0.7932 0.15103 0.0
H512 H 0.34415 0.31813 0.64613 0.0
H513 H 0.43041 0.29267 0.71541 0.0
H514 H 0.43838 0.25341 0.63617 0.0
H515 H 0.41814 0.22158 0.5546 0.0
H516 H 0.32912 0.24198 0.49515 0.0
H517 H 0.32484 0.28822 0.56329 0.0
C518 C 0.36501 0.30449 0.64371 0.0
C519 C 0.38663 0.30831 0.68718 0.0
C520 C 0.36869 0.28077 0.60003 0.0
C521 C 0.41344 0.29037 0.68274 0.0
C522 C 0.41784 0.26766 0.63768 0.0
C523 C 0.39786 0.23633 0.55614 0.0
C524 C 0.37402 0.22872 0.51891 0.0
C525 C 0.39517 0.26184 0.59732 0.0
C526 C 0.34799 0.24801 0.52183 0.0
C527 C 0.34548 0.27415 0.56134 0.0
H528 H 0.88731 0.73237 0.01781 0.0
H529 H 0.79905 0.77495 0.01691 0.0
H530 H 0.78838 0.74812 0.10894 0.0
H531 H 0.80582 0.7178 0.19305 0.0
H532 H 0.8936 0.67395 0.19518 0.0
H533 H 0.90328 0.69701 0.09953 0.0
C534 C 0.86554 0.73512 0.03735 0.0
C535 C 0.84377 0.75511 0.01038 0.0
C536 C 0.85995 0.72047 0.09106 0.0
C537 C 0.8158 0.75891 0.03614 0.0
C538 C 0.80992 0.74407 0.08918 0.0
C539 C 0.82723 0.71332 0.17301 0.0
C540 C 0.84951 0.69523 0.20244 0.0
C541 C 0.83214 0.72571 0.11767 0.0
C542 C 0.87658 0.68879 0.17461 0.0
C543 C 0.88192 0.70165 0.11959 0.0
H544 H 0.61156 0.23201 0.57405 0.0
H545 H 0.70082 0.22318 0.50853 0.0
H546 H 0.71977 0.25532 0.58988 0.0
H547 H 0.71078 0.2855 0.67936 0.0
H548 H 0.6217 0.29331 0.74663 0.0
H549 H 0.60253 0.26288 0.66383 0.0
C550 C 0.63514 0.23728 0.57756 0.0
C551 C 0.65498 0.22465 0.53618 0.0
C552 C 0.64572 0.25596 0.62422 0.0
C553 C 0.68541 0.23163 0.54102 0.0
C554 C 0.69612 0.25037 0.58708 0.0
C555 C 0.68711 0.28069 0.67606 0.0
C556 C 0.66757 0.29217 0.71911 0.0
C557 C 0.67647 0.26247 0.62905 0.0
C558 C 0.63707 0.28557 0.71377 0.0
C559 C 0.62618 0.26781 0.66661 0.0
H560 H 0.84974 0.30415 0.87155 0.0
H561 H 0.92677 0.27008 0.77727 0.0
H562 H 0.93803 0.22997 0.85355 0.0
H563 H 0.92126 0.19853 0.93789 0.0
H564 H 0.84266 0.23028 0.02945 0.0
H565 H 0.83633 0.277 0.96235 0.0
C566 C 0.86942 0.2885 0.86808 0.0
C567 C 0.88714 0.28985 0.81807 0.0
C568 C 0.87488 0.26437 0.91071 0.0
C569 C 0.91272 0.26968 0.81498 0.0
C570 C 0.91894 0.24637 0.85834 0.0
C571 C 0.90285 0.21581 0.94371 0.0
C572 C 0.88184 0.21022 0.98767 0.0
C573 C 0.89937 0.24246 0.90488 0.0
C574 C 0.85858 0.23335 0.99506 0.0
C575 C 0.85512 0.26023 0.95692 0.0
H576 H 0.63387 0.6877 0.34477 0.0
H577 H 0.55859 0.738 0.26899 0.0
H578 H 0.55132 0.77041 0.35685 0.0
H579 H 0.57137 0.79076 0.44709 0.0
H580 H 0.64677 0.74178 0.52523 0.0
H581 H 0.64957 0.70277 0.44393 0.0
C582 C 0.61515 0.70475 0.34872 0.0
C583 C 0.59639 0.71021 0.30115 0.0
C584 C 0.612 0.72439 0.39856 0.0
C585 C 0.57282 0.73306 0.30561 0.0
C586 C 0.56898 0.75188 0.35547 0.0
C587 C 0.58827 0.77132 0.44705 0.0
C588 C 0.60994 0.77034 0.49079 0.0
C589 C 0.58926 0.74882 0.401 0.0
C590 C 0.63102 0.74434 0.49042 0.0
C591 C 0.63226 0.72171 0.4444 0.0
H592 H 0.55891 0.69913 0.91869 0.0
H593 H 0.62066 0.7382 0.04369 0.0
H594 H 0.63642 0.78114 0.97577 0.0
H595 H 0.6375 0.80268 0.8772 0.0
H596 H 0.57843 0.76174 0.75026 0.0
H597 H 0.55602 0.72514 0.82291 0.0
C598 C 0.57535 0.71745 0.93162 0.0
C599 C 0.58892 0.71498 0.98606 0.0
C600 C 0.58472 0.74183 0.8919 0.0
C601 C 0.61008 0.73914 0.00195 0.0
C602 C 0.61916 0.76375 0.96307 0.0
C603 C 0.61918 0.78631 0.86592 0.0
C604 C 0.60907 0.78529 0.80886 0.0
C605 C 0.60737 0.76456 0.90738 0.0
C606 C 0.58564 0.76383 0.79436 0.0
C607 C 0.57331 0.74246 0.83572 0.0
H608 H 0.89875 0.27068 0.41068 0.0
H609 H 0.85841 0.20713 0.53827 0.0
H610 H 0.84874 0.16437 0.4647 0.0
H611 H 0.85441 0.14434 0.36432 0.0
H612 H 0.90025 0.20662 0.24119 0.0
H613 H 0.9059 0.25042 0.31314 0.0
C614 C 0.88768 0.2475 0.42236 0.0
C615 C 0.87825 0.24246 0.47927 0.0
C616 C 0.88375 0.22268 0.38077 0.0
C617 C 0.86456 0.21213 0.49416 0.0
C618 C 0.85954 0.18754 0.4523 0.0
C619 C 0.86559 0.16755 0.35341 0.0
C620 C 0.87695 0.17224 0.29756 0.0
C621 C 0.86931 0.19246 0.39549 0.0
C622 C 0.89155 0.20229 0.28393 0.0
C623 C 0.89466 0.2274 0.32496 0.0
H624 H 0.64356 0.30926 0.12252 0.0
H625 H 0.68249 0.25178 0.98511 0.0
H626 H 0.69639 0.20751 0.05281 0.0
H627 H 0.69931 0.18644 0.15185 0.0
H628 H 0.65599 0.24106 0.28786 0.0
H629 H 0.64174 0.28524 0.21995 0.0
C630 C 0.65496 0.28694 0.10751 0.0
C631 C 0.66322 0.2843 0.04957 0.0
C632 C 0.66212 0.26125 0.14639 0.0
C633 C 0.67706 0.25487 0.03009 0.0
C634 C 0.68477 0.22947 0.06862 0.0
C635 C 0.68666 0.20801 0.16643 0.0
C636 C 0.67896 0.21089 0.22461 0.0
C637 C 0.67791 0.23271 0.12703 0.0
C638 C 0.66214 0.2385 0.24311 0.0
C639 C 0.65408 0.26373 0.20441 0.0
H640 H 0.87645 0.72749 0.49064 0.0
H641 H 0.88372 0.63687 0.59058 0.0
H642 H 0.88514 0.66952 0.67936 0.0
H643 H 0.87762 0.72343 0.72814 0.0
H644 H 0.87074 0.81403 0.62845 0.0
H645 H 0.8775 0.78227 0.53976 0.0
C646 C 0.87847 0.71513 0.53201 0.0
C647 C 0.87919 0.68009 0.53491 0.0
C648 C 0.88009 0.73409 0.58256 0.0
C649 C 0.8826 0.66397 0.58808 0.0
C650 C 0.88363 0.68258 0.63861 0.0
C651 C 0.87927 0.73626 0.68713 0.0
C652 C 0.87415 0.77085 0.68438 0.0
C653 C 0.8818 0.71762 0.63642 0.0
C654 C 0.87537 0.78739 0.63121 0.0
C655 C 0.8785 0.76916 0.58052 0.0
H656 H 0.36198 0.17917 0.13906 0.0
H657 H 0.40645 0.23547 0.27134 0.0
H658 H 0.41565 0.28119 0.20332 0.0
H659 H 0.41003 0.30557 0.10656 0.0
H660 H 0.37103 0.24623 0.972 0.0
H661 H 0.36008 0.20154 0.04062 0.0
C662 C 0.37376 0.20144 0.15288 0.0
C663 C 0.38336 0.20411 0.21011 0.0
C664 C 0.37947 0.22725 0.11333 0.0
C665 C 0.39891 0.23285 0.22742 0.0
C666 C 0.40406 0.25902 0.18862 0.0
C667 C 0.39909 0.28286 0.09233 0.0
C668 C 0.38981 0.27994 0.03484 0.0
C669 C 0.39427 0.25658 0.13155 0.0
C670 C 0.37666 0.24992 0.01667 0.0
C671 C 0.3709 0.22411 0.05572 0.0
H672 H 0.17818 0.80929 0.70255 0.0
H673 H 0.08606 0.82942 0.74103 0.0
H674 H 0.07118 0.8029 0.65132 0.0
H675 H 0.08426 0.77 0.56632 0.0
H676 H 0.17618 0.74536 0.5329 0.0
H677 H 0.19142 0.77849 0.61588 0.0
C678 C 0.1548 0.80825 0.69128 0.0
C679 C 0.13311 0.82114 0.72904 0.0
C680 C 0.1465 0.79222 0.6404 0.0
C681 C 0.10307 0.81951 0.71332 0.0
C682 C 0.09461 0.80433 0.66191 0.0
C683 C 0.10768 0.77215 0.5768 0.0
C684 C 0.12911 0.75549 0.5432 0.0
C685 C 0.11612 0.78999 0.62582 0.0
C686 C 0.15931 0.75836 0.55754 0.0
C687 C 0.16799 0.77703 0.60526 0.0
H688 H 0.38467 0.76125 0.96561 0.0
H689 H 0.32051 0.68378 0.92862 0.0
H690 H 0.31908 0.70135 0.82847 0.0
H691 H 0.33667 0.73726 0.75131 0.0
H692 H 0.39791 0.81761 0.78714 0.0
H693 H 0.4005 0.7997 0.8879 0.0
C694 C 0.3701 0.74845 0.9358 0.0
C695 C 0.35278 0.7211 0.95478 0.0
C696 C 0.3694 0.75866 0.87794 0.0
C697 C 0.334 0.70491 0.91547 0.0
C698 C 0.33336 0.71475 0.858 0.0
C699 C 0.35101 0.75066 0.78078 0.0
C700 C 0.36771 0.77827 0.7613 0.0
C701 C 0.35128 0.7412 0.83869 0.0
C702 C 0.38537 0.79587 0.8007 0.0
C703 C 0.38657 0.78583 0.8584 0.0
H704 H 0.09471 0.31797 0.43215 0.0
H705 H 0.18049 0.36533 0.41723 0.0
H706 H 0.18562 0.34448 0.31935 0.0
H707 H 0.16976 0.30572 0.24584 0.0
H708 H 0.08869 0.24973 0.26636 0.0
H709 H 0.07634 0.28259 0.35215 0.0
C710 C 0.11428 0.32393 0.4069 0.0
C711 C 0.13752 0.34245 0.43161 0.0
C712 C 0.11753 0.31077 0.35142 0.0
C713 C 0.16271 0.35045 0.39904 0.0
C714 C 0.16551 0.33881 0.34309 0.0
C715 C 0.14884 0.30159 0.26805 0.0
C716 C 0.13034 0.27523 0.25075 0.0
C717 C 0.14356 0.31804 0.31977 0.0
C718 C 0.10318 0.27008 0.27898 0.0
C719 C 0.09652 0.28832 0.32873 0.0
H720 H 0.04904 0.18024 0.23845 0.0
H721 H 0.08543 0.09303 0.15523 0.0
H722 H 0.03628 0.06699 0.15417 0.0
H723 H 0.98211 0.07639 0.15326 0.0
H724 H 0.94578 0.16517 0.23244 0.0
H725 H 0.99557 0.18283 0.26026 0.0
C726 C 0.04637 0.15484 0.22268 0.0
C727 C 0.07057 0.13869 0.19623 0.0
C728 C 0.01786 0.14071 0.22022 0.0
C729 C 0.06712 0.10584 0.176 0.0
C730 C 0.03887 0.09121 0.17452 0.0
C731 C 0.98502 0.09903 0.17833 0.0
C732 C 0.96036 0.11994 0.18928 0.0
C733 C 0.01386 0.10948 0.19283 0.0
C734 C 0.96434 0.14879 0.22285 0.0
C735 C 0.99292 0.15908 0.23836 0.0
H736 H 0.43915 0.81191 0.7 0.0
H737 H 0.43341 0.9193 0.71352 0.0
H738 H 0.48503 0.92185 0.74573 0.0
H739 H 0.53398 0.89562 0.73729 0.0
H740 H 0.54065 0.78978 0.70507 0.0
H741 H 0.48711 0.78378 0.71618 0.0
C742 C 0.44887 0.83556 0.71317 0.0
C743 C 0.43289 0.8654 0.70439 0.0
C744 C 0.47917 0.83694 0.72751 0.0
C745 C 0.44551 0.89609 0.72031 0.0
C746 C 0.47511 0.89754 0.73803 0.0
C747 C 0.52374 0.87101 0.73608 0.0
C748 C 0.54111 0.84316 0.72065 0.0
C749 C 0.49267 0.86844 0.7371 0.0
C750 C 0.5279 0.81137 0.71857 0.0
C751 C 0.49704 0.80816 0.72327 0.0
H752 H 0.94315 0.87065 0.76829 0.0
H753 H 0.9448 0.76858 0.82798 0.0
H754 H 0.99922 0.76877 0.82679 0.0
H755 H 0.04438 0.8038 0.83663 0.0
H756 H 0.04138 0.90711 0.78307 0.0
H757 H 0.98996 0.90056 0.75188 0.0
C758 C 0.9555 0.84788 0.77768 0.0
C759 C 0.94019 0.81972 0.79838 0.0
C760 C 0.98672 0.84878 0.77922 0.0
C761 C 0.95622 0.79043 0.81136 0.0
C762 C 0.98738 0.79078 0.81166 0.0
C763 C 0.03289 0.82423 0.81518 0.0
C764 C 0.04642 0.85594 0.81237 0.0
C765 C 0.00275 0.82062 0.79974 0.0
C766 C 0.03132 0.88249 0.78543 0.0
C767 C 0.00178 0.87884 0.76827 0.0
H768 H 0.46882 0.08505 0.36529 0.0
H769 H 0.4488 0.17689 0.27464 0.0
H770 H 0.50077 0.18163 0.24557 0.0
H771 H 0.55281 0.16658 0.26488 0.0
H772 H 0.57315 0.07706 0.36135 0.0
H773 H 0.52022 0.06375 0.3672 0.0
C774 C 0.47568 0.10571 0.33803 0.0
C775 C 0.45508 0.13108 0.32349 0.0
C776 C 0.50577 0.10871 0.32268 0.0
C777 C 0.46417 0.15724 0.28708 0.0
C778 C 0.49398 0.16004 0.27064 0.0
C779 C 0.54568 0.14343 0.28513 0.0
C780 C 0.56678 0.12317 0.3136 0.0
C781 C 0.51517 0.13692 0.29083 0.0
C782 C 0.5574 0.09309 0.33917 0.0
C783 C 0.52704 0.08579 0.34337 0.0
H784 H 0.52938 0.58342 0.13682 0.0
H785 H 0.54655 0.66018 0.26253 0.0
H786 H 0.4935 0.66406 0.2838 0.0
H787 H 0.44224 0.65409 0.2514 0.0
H788 H 0.42478 0.57743 0.12613 0.0
H789 H 0.47775 0.56386 0.12178 0.0
C790 C 0.52151 0.60039 0.16985 0.0
C791 C 0.54172 0.62208 0.19704 0.0
C792 C 0.4909 0.60239 0.18203 0.0
C793 C 0.53142 0.6435 0.24052 0.0
C794 C 0.50104 0.64577 0.25266 0.0
C795 C 0.44991 0.63322 0.22546 0.0
C796 C 0.42978 0.6172 0.18835 0.0
C797 C 0.48052 0.62644 0.22177 0.0
C798 C 0.43983 0.59018 0.15498 0.0
C799 C 0.47026 0.58287 0.15167 0.0
H800 H 0.98857 0.27097 0.67592 0.0
H801 H 0.95339 0.36153 0.74977 0.0
H802 H 0.00372 0.37995 0.7736 0.0
H803 H 0.05659 0.37755 0.74523 0.0
H804 H 0.09162 0.28801 0.66726 0.0
H805 H 0.04287 0.26131 0.6749 0.0
C806 C 0.99188 0.29376 0.70041 0.0
C807 C 0.96737 0.31506 0.71061 0.0
C808 C 0.02104 0.30474 0.71168 0.0
C809 C 0.97184 0.34463 0.74185 0.0
C810 C 1.00075 0.35545 0.75443 0.0
C811 C 0.05387 0.35155 0.73273 0.0
C812 C 0.07748 0.33497 0.70465 0.0
C813 C 0.02547 0.33686 0.73549 0.0
C814 C 0.07383 0.3013 0.68889 0.0
C815 C 0.04575 0.28623 0.69245 0.0
H816 H 0.57364 0.28494 0.83297 0.0
H817 H 0.58765 0.38468 0.76796 0.0
H818 H 0.53539 0.3886 0.74023 0.0
H819 H 0.48445 0.37016 0.76352 0.0
H820 H 0.47026 0.27107 0.8311 0.0
H821 H 0.52358 0.25963 0.82667 0.0
C822 C 0.56559 0.30665 0.80946 0.0
C823 C 0.58439 0.33452 0.80257 0.0
C824 C 0.53518 0.30904 0.79527 0.0
C825 C 0.57366 0.36279 0.77308 0.0
C826 C 0.54359 0.36523 0.75809 0.0
C827 C 0.49288 0.34532 0.77357 0.0
C828 C 0.47353 0.32157 0.79798 0.0
C829 C 0.5238 0.33947 0.77295 0.0
C830 C 0.4847 0.28964 0.81173 0.0
C831 C 0.51534 0.28335 0.81032 0.0
H832 H 0.01789 0.726 0.32166 0.0
H833 H 0.06092 0.63441 0.27021 0.0
H834 H 0.014 0.61325 0.23204 0.0
H835 H 0.95972 0.61418 0.24569 0.0
H836 H 0.9167 0.70522 0.30048 0.0
H837 H 0.96443 0.73401 0.30213 0.0
C838 C 0.01721 0.70227 0.29902 0.0
C839 C 0.04235 0.68138 0.29955 0.0
C840 C 0.98997 0.68999 0.27878 0.0
C841 C 0.04162 0.65073 0.27028 0.0
C842 C 0.0147 0.63848 0.24914 0.0
C843 C 0.96068 0.64084 0.25466 0.0
C844 C 0.93512 0.6573 0.27506 0.0
C845 C 0.9884 0.6568 0.25776 0.0
C846 C 0.93626 0.69192 0.28556 0.0
C847 C 0.96367 0.70827 0.28743 0.0
H848 H 0.14476 0.09408 0.96826 0.0
H849 H 0.14056 0.07256 0.14982 0.0
H850 H 0.1391 0.01275 0.12997 0.0
H851 H 0.13437 0.96683 0.06136 0.0
H852 H 0.14099 0.98638 0.87993 0.0
H853 H 0.14677 0.04664 0.89918 0.0
C854 C 0.14375 0.07622 0.00337 0.0
C855 C 0.1422 0.08782 0.06041 0.0
C856 C 0.14341 0.04157 0.99167 0.0
C857 C 0.14153 0.06441 0.10555 0.0
C858 C 0.14066 0.03014 0.09428 0.0
C859 C 0.13762 0.98428 0.0261 0.0
C860 C 0.13695 0.97248 0.96937 0.0
C861 C 0.14095 0.01851 0.03758 0.0
C862 C 0.14151 0.99505 0.92395 0.0
C863 C 0.14453 0.02945 0.935 0.0
H864 H 0.31907 0.94136 0.44947 0.0
H865 H 0.31935 0.9593 0.6316 0.0
H866 H 0.3153 0.01974 0.61462 0.0
H867 H 0.32558 0.06631 0.54776 0.0
H868 H 0.32662 0.04782 0.3654 0.0
H869 H 0.31547 0.98879 0.38229 0.0
C870 C 0.31672 0.95852 0.48529 0.0
C871 C 0.31997 0.94637 0.54153 0.0
C872 C 0.31543 0.99309 0.475 0.0
C873 C 0.31685 0.96837 0.58797 0.0
C874 C 0.31503 0.00291 0.57817 0.0
C875 C 0.32244 0.0495 0.51174 0.0
C876 C 0.32781 0.06101 0.45558 0.0
C877 C 0.3165 0.0155 0.52187 0.0
C878 C 0.32297 0.0394 0.40906 0.0
C879 C 0.31678 0.00558 0.41872 0.0
H880 H 0.8485 0.0431 0.94178 0.0
H881 H 0.83738 0.02047 0.12159 0.0
H882 H 0.82715 0.96181 0.09829 0.0
H883 H 0.83042 0.91579 0.02807 0.0
H884 H 0.84188 0.93872 0.84846 0.0
H885 H 0.84229 0.99863 0.8701 0.0
C886 C 0.84313 0.02543 0.9757 0.0
C887 C 0.84429 0.03573 0.03331 0.0
C888 C 0.83762 0.99184 0.96199 0.0
C889 C 0.83676 0.01297 0.07694 0.0
C890 C 0.83116 0.97941 0.06365 0.0
C891 C 0.83227 0.93403 0.99363 0.0
C892 C 0.83647 0.92304 0.93689 0.0
C893 C 0.83291 0.96834 0.00655 0.0
C894 C 0.83851 0.94668 0.8924 0.0
C895 C 0.83903 0.9809 0.90484 0.0
H896 H 0.6609 0.04486 0.44298 0.0
H897 H 0.5808 0.07724 0.52865 0.0
H898 H 0.57704 0.02301 0.57695 0.0
H899 H 0.5948 0.96523 0.5906 0.0
H900 H 0.67507 0.93243 0.50714 0.0
H901 H 0.68105 0.9881 0.46325 0.0
C902 C 0.6426 0.03993 0.4721 0.0
C903 C 0.62089 0.06485 0.48156 0.0
C904 C 0.64092 0.00883 0.5008 0.0
C905 C 0.59765 0.05841 0.52031 0.0
C906 C 0.59554 0.02745 0.54812 0.0
C907 C 0.61405 0.97072 0.56415 0.0
C908 C 0.63483 0.94524 0.5529 0.0
C909 C 0.61691 0.00243 0.53843 0.0
C910 C 0.65929 0.95208 0.51744 0.0
C911 C 0.66242 0.98371 0.49177 0.0
H912 H 0.67772 0.55956 0.06 0.0
H913 H 0.58818 0.57174 0.99595 0.0
H914 H 0.59338 0.52136 0.93866 0.0
H915 H 0.62025 0.46986 0.91719 0.0
H916 H 0.70881 0.45467 0.98215 0.0
H917 H 0.70762 0.51045 0.02702 0.0
C918 C 0.65955 0.55136 0.03287 0.0
C919 C 0.63238 0.56913 0.0332 0.0
C920 C 0.66258 0.52187 0.9999 0.0
C921 C 0.60915 0.55837 0.99739 0.0
C922 C 0.6121 0.52954 0.96431 0.0
C923 C 0.6397 0.47937 0.93939 0.0
C924 C 0.66462 0.45853 0.94615 0.0
C925 C 0.63831 0.51061 0.96656 0.0
C926 C 0.68959 0.47066 0.97561 0.0
C927 C 0.68866 0.50228 0.00204 0.0
H928 H 0.87251 0.49812 0.36969 0.0
H929 H 0.82411 0.5425 0.50939 0.0
H930 H 0.82477 0.4889 0.56146 0.0
H931 H 0.84775 0.43245 0.5737 0.0
H932 H 0.89802 0.39059 0.43294 0.0
H933 H 0.88818 0.43985 0.37524 0.0
C934 C 0.86091 0.4955 0.41033 0.0
C935 C 0.84799 0.52376 0.43551 0.0
C936 C 0.86269 0.46527 0.4408 0.0
C937 C 0.83362 0.52064 0.48878 0.0
C938 C 0.83455 0.4902 0.51899 0.0
C939 C 0.85603 0.43392 0.53017 0.0
C940 C 0.87425 0.40814 0.50853 0.0
C941 C 0.85041 0.46278 0.49663 0.0
C942 C 0.88468 0.41042 0.45162 0.0
C943 C 0.87888 0.43851 0.41812 0.0
H944 H 0.43318 0.47225 0.93559 0.0
H945 H 0.34108 0.44359 0.94822 0.0
H946 H 0.32827 0.49951 0.98393 0.0
H947 H 0.34419 0.55522 0.01895 0.0
H948 H 0.43581 0.5848 1.00054 0.0
H949 H 0.44809 0.5298 0.96027 0.0
C950 C 0.41023 0.47851 0.94524 0.0
C951 C 0.38806 0.45394 0.93913 0.0
C952 C 0.40311 0.51066 0.96563 0.0
C953 C 0.35842 0.46226 0.95161 0.0
C954 C 0.35118 0.4941 0.97274 0.0
C955 C 0.36678 0.54955 0.00578 0.0
C956 C 0.38919 0.57371 0.0132 0.0
C957 C 0.37346 0.51824 0.98114 0.0
C958 C 0.41828 0.56649 0.9952 0.0
C959 C 0.42528 0.53508 0.97228 0.0
H960 H 0.16794 0.5745 0.44652 0.0
H961 H 0.10626 0.60807 0.57675 0.0
H962 H 0.11573 0.55825 0.633 0.0
H963 H 0.1344 0.50119 0.63794 0.0
H964 H 0.1943 0.46465 0.50851 0.0
H965 H 0.19369 0.51958 0.46069 0.0
C966 C 0.15694 0.57102 0.4875 0.0
C967 C 0.1357 0.59459 0.50622 0.0
C968 C 0.16233 0.54177 0.52025 0.0
C969 C 0.12202 0.58996 0.56007 0.0
C970 C 0.12756 0.56152 0.59283 0.0
C971 C 0.14842 0.50586 0.60083 0.0
C972 C 0.16449 0.47932 0.5769 0.0
C973 C 0.14676 0.53675 0.57241 0.0
C974 C 0.18219 0.48513 0.5282 0.0
C975 C 0.18132 0.51631 0.50022 0.0
H976 H 0.23947 0.18766 0.00747 0.0
H977 H 0.26012 0.24677 0.15673 0.0
H978 H 0.29875 0.2764 0.10389 0.0
H979 H 0.32193 0.29087 0.01189 0.0
H980 H 0.30175 0.23214 0.86181 0.0
H981 H 0.26703 0.19802 0.91731 0.0
C982 C 0.25227 0.20729 0.02786 0.0
C983 C 0.24629 0.21592 0.08493 0.0
C984 C 0.27428 0.22464 0.99693 0.0
C985 C 0.2641 0.24001 0.11235 0.0
C986 C 0.28609 0.25713 0.08217 0.0
C987 C 0.31061 0.26997 0.99182 0.0
C988 C 0.31455 0.26389 0.93308 0.0
C989 C 0.29074 0.2504 0.02396 0.0
C990 C 0.29916 0.23722 0.9072 0.0
C991 C 0.27926 0.21771 0.93883 0.0
H992 H 0.28806 0.81583 0.44353 0.0
H993 H 0.23688 0.85739 0.58226 0.0
H994 H 0.19067 0.83879 0.5363 0.0
H995 H 0.16633 0.80094 0.46565 0.0
H996 H 0.21957 0.75569 0.33284 0.0
H997 H 0.26333 0.78574 0.36629 0.0
C998 C 0.26662 0.82222 0.46207 0.0
C999 C 0.2656 0.83813 0.51554 0.0
C1000 C 0.24061 0.80973 0.43721 0.0
C1001 C 0.23796 0.84576 0.54032 0.0
C1002 C 0.21165 0.83446 0.51465 0.0
C1003 C 0.1876 0.79773 0.44453 0.0
C1004 C 0.19016 0.77531 0.39843 0.0
C1005 C 0.21291 0.81469 0.46483 0.0
C1006 C 0.21732 0.77245 0.36913 0.0
C1007 C 0.24232 0.78962 0.38815 0.0
H1008 H 0.18254 0.73546 0.96546 0.0
H1009 H 0.20047 0.82295 0.06718 0.0
H1010 H 0.22995 0.78907 0.13434 0.0
H1011 H 0.25696 0.73602 0.15533 0.0
H1012 H 0.24317 0.65077 0.04514 0.0
H1013 H 0.20577 0.68177 0.99091 0.0
C1014 C 0.19213 0.74683 0.00344 0.0
C1015 C 0.18842 0.78144 0.01251 0.0
C1016 C 0.21031 0.72748 0.03998 0.0
C1017 C 0.20189 0.79613 0.06063 0.0
C1018 C 0.21922 0.77681 0.09847 0.0
C1019 C 0.24514 0.72401 0.12044 0.0
C1020 C 0.25282 0.69101 0.10451 0.0
C1021 C 0.22442 0.74263 0.08754 0.0
C1022 C 0.23769 0.67602 0.05847 0.0
C1023 C 0.21636 0.69383 0.02716 0.0
H1024 H 0.2428 0.22227 0.32928 0.0
H1025 H 0.33092 0.25321 0.37905 0.0
H1026 H 0.30975 0.29477 0.44434 0.0
H1027 H 0.26717 0.31733 0.49537 0.0
H1028 H 0.17856 0.28423 0.45438 0.0
H1029 H 0.19872 0.2487 0.37721 0.0
C1030 C 0.25725 0.23822 0.35451 0.0
C1031 C 0.28842 0.2344 0.35029 0.0
C1032 C 0.24484 0.26131 0.39379 0.0
C1033 C 0.30695 0.2553 0.38255 0.0
C1034 C 0.29485 0.27908 0.41969 0.0
C1035 C 0.25213 0.30264 0.46913 0.0
C1036 C 0.22139 0.30341 0.48063 0.0
C1037 C 0.26397 0.28149 0.42699 0.0
C1038 C 0.20224 0.28444 0.44597 0.0
C1039 C 0.21386 0.26379 0.4024 0.0
H1040 H 0.79187 0.72478 0.94322 0.0
H1041 H 0.72348 0.78226 0.85749 0.0
H1042 H 0.68526 0.75145 0.90821 0.0
H1043 H 0.67086 0.713 0.98389 0.0
H1044 H 0.73726 0.65826 0.07848 0.0
H1045 H 0.77656 0.68261 0.01764 0.0
C1046 C 0.76864 0.73083 0.93658 0.0
C1047 C 0.76073 0.75653 0.89772 0.0
C1048 C 0.74636 0.71317 0.96704 0.0
C1049 C 0.73039 0.76294 0.88747 0.0
C1050 C 0.70838 0.74528 0.91643 0.0
C1051 C 0.69388 0.70557 0.98988 0.0
C1052 C 0.7012 0.68355 0.03471 0.0
C1053 C 0.71608 0.72086 0.95695 0.0
C1054 C 0.73109 0.6745 0.04308 0.0
C1055 C 0.75354 0.68894 0.00898 0.0
H1056 H 0.8129 0.25216 0.50879 0.0
H1057 H 0.79003 0.21255 0.67539 0.0
H1058 H 0.75463 0.17415 0.63164 0.0
H1059 H 0.72692 0.15556 0.5467 0.0
H1060 H 0.75253 0.19147 0.37932 0.0
H1061 H 0.79119 0.22647 0.42224 0.0
C1062 C 0.80108 0.23416 0.53517 0.0
C1063 C 0.80437 0.23484 0.59501 0.0
C1064 C 0.78124 0.21156 0.50963 0.0
C1065 C 0.78799 0.21231 0.62905 0.0
C1066 C 0.76773 0.19037 0.60416 0.0
C1067 C 0.74142 0.17059 0.5198 0.0
C1068 C 0.73686 0.17148 0.46042 0.0
C1069 C 0.76368 0.19033 0.54464 0.0
C1070 C 0.75576 0.19064 0.4254 0.0
C1071 C 0.77766 0.2108 0.44988 0.0
H1072 H 0.76039 0.24378 0.94293 0.0
H1073 H 0.72489 0.31693 0.06042 0.0
H1074 H 0.74398 0.28424 0.14204 0.0
H1075 H 0.77134 0.23474 0.17942 0.0
H1076 H 0.80655 0.16221 0.0602 0.0
H1077 H 0.78695 0.19467 0.9797 0.0
C1078 C 0.75689 0.25259 0.98645 0.0
C1079 C 0.74103 0.28246 0.99587 0.0
C1080 C 0.76794 0.23379 0.0327 0.0
C1081 C 0.73675 0.29375 0.05233 0.0
C1082 C 0.74774 0.27513 0.09885 0.0
C1083 C 0.77475 0.22618 0.13575 0.0
C1084 C 0.79105 0.19659 0.12557 0.0
C1085 C 0.76339 0.24508 0.08953 0.0
C1086 C 0.79493 0.18546 0.06896 0.0
C1087 C 0.78347 0.20383 0.02296 0.0
H1088 H 0.7495 0.71193 0.40806 0.0
H1089 H 0.81146 0.68805 0.5435 0.0
H1090 H 0.78343 0.72435 0.60961 0.0
H1091 H 0.7396 0.76042 0.62913 0.0
H1092 H 0.68083 0.78738 0.48989 0.0
H1093 H 0.70911 0.75157 0.42482 0.0
C1094 C 0.7569 0.71454 0.45216 0.0
C1095 C 0.78218 0.69683 0.47131 0.0
C1096 C 0.74099 0.73556 0.48914 0.0
C1097 C 0.79198 0.70126 0.52795 0.0
C1098 C 0.77588 0.72188 0.56565 0.0
C1099 C 0.733 0.75854 0.58449 0.0
C1100 C 0.7072 0.77538 0.56492 0.0
C1101 C 0.75008 0.73877 0.54682 0.0
C1102 C 0.69961 0.77343 0.50665 0.0
C1103 C 0.71601 0.75328 0.4693 0.0
loop_
_geom_bond_atom_site_label_1
_geom_bond_atom_site_label_2
_geom_bond_distance
_geom_bond_site_symmetry_2
_ccdc_geom_bond_type
Zn0 O6 1.920 1_554 S
Zn0 O12 1.898 . S
Zn0 O15 1.905 . S
Zn1 O9 1.905 . S
Zn1 O10 1.898 . S
Zn1 O18 1.920 . S
Zn2 O5 2.080 . S
Zn2 O8 2.114 . S
Zn2 O11 2.120 . S
Zn2 O13 2.120 . S
Zn2 O14 2.114 . S
Zn2 O17 2.080 . S
C3 O8 1.166 . S
C3 O9 1.182 . S
C4 O10 1.167 . S
C4 O11 1.299 . S
O5 Zn2 2.080 . S
O5 C19 1.305 1_554 S
O6 Zn0 1.920 1_556 S
O6 C19 1.234 . S
C7 O12 1.167 . S
C7 O13 1.299 . S
O8 Zn2 2.114 . S
O8 C3 1.166 . S
O9 Zn1 1.905 . S
O9 C3 1.182 . S
O10 Zn1 1.898 . S
O10 C4 1.167 . S
O11 Zn2 2.120 . S
O11 C4 1.299 . S
O12 Zn0 1.898 . S
O12 C7 1.167 . S
O13 Zn2 2.120 . S
O13 C7 1.299 . S
O14 Zn2 2.114 . S
O14 C16 1.166 . S
O15 Zn0 1.905 . S
O15 C16 1.182 . S
C16 O14 1.166 . S
C16 O15 1.182 . S
O17 Zn2 2.080 . S
O17 C20 1.305 . S
O18 Zn1 1.920 . S
O18 C20 1.234 . S
C19 O5 1.305 1_556 S
C19 O6 1.234 . S
C20 O17 1.305 . S
C20 O18 1.234 . S
Zn21 O27 1.920 . S
Zn21 O33 1.898 . S
Zn21 O36 1.905 . S
Zn22 O30 1.905 . S
Zn22 O31 1.898 . S
Zn22 O39 1.920 . S
Zn23 O26 2.080 . S
Zn23 O29 2.114 . S
Zn23 O32 2.120 . S
Zn23 O34 2.120 . S
Zn23 O35 2.114 . S
Zn23 O38 2.080 . S
C24 O29 1.166 . S
C24 O30 1.182 . S
C25 O31 1.167 . S
C25 O32 1.299 . S
O26 Zn23 2.080 . S
O26 C40 1.305 . S
O27 Zn21 1.920 . S
O27 C40 1.234 . S
C28 O33 1.167 . S
C28 O34 1.299 . S
O29 Zn23 2.114 . S
O29 C24 1.166 . S
O30 Zn22 1.905 . S
O30 C24 1.182 . S
O31 Zn22 1.898 . S
O31 C25 1.167 . S
O32 Zn23 2.120 . S
O32 C25 1.299 . S
O33 Zn21 1.898 . S
O33 C28 1.167 . S
O34 Zn23 2.120 . S
O34 C28 1.299 . S
O35 Zn23 2.114 . S
O35 C37 1.166 . S
O36 Zn21 1.905 . S
O36 C37 1.182 . S
C37 O35 1.166 . S
C37 O36 1.182 . S
O38 Zn23 2.080 . S
O38 C41 1.305 . S
O39 Zn22 1.920 . S
O39 C41 1.234 . S
C40 O26 1.305 . S
C40 O27 1.234 . S
C41 O38 1.305 . S
C41 O39 1.234 . S
Zn42 O48 1.920 . S
Zn42 O54 1.898 . S
Zn42 O57 1.905 . S
Zn43 O51 1.905 . S
Zn43 O52 1.898 . S
Zn43 O60 1.920 1_556 S
Zn44 O47 2.080 . S
Zn44 O50 2.114 . S
Zn44 O53 2.120 . S
Zn44 O55 2.120 . S
Zn44 O56 2.114 . S
Zn44 O59 2.080 . S
C45 O50 1.166 . S
C45 O51 1.182 . S
C46 O52 1.167 . S
C46 O53 1.299 . S
O47 Zn44 2.080 . S
O47 C61 1.305 . S
O48 Zn42 1.920 . S
O48 C61 1.234 . S
C49 O54 1.167 . S
C49 O55 1.299 . S
O50 Zn44 2.114 . S
O50 C45 1.166 . S
O51 Zn43 1.905 . S
O51 C45 1.182 . S
O52 Zn43 1.898 . S
O52 C46 1.167 . S
O53 Zn44 2.120 . S
O53 C46 1.299 . S
O54 Zn42 1.898 . S
O54 C49 1.167 . S
O55 Zn44 2.120 . S
O55 C49 1.299 . S
O56 Zn44 2.114 . S
O56 C58 1.166 . S
O57 Zn42 1.905 . S
O57 C58 1.182 . S
C58 O56 1.166 . S
C58 O57 1.182 . S
O59 Zn44 2.080 . S
O59 C62 1.305 1_556 S
O60 Zn43 1.920 1_554 S
O60 C62 1.234 . S
C61 O47 1.305 . S
C61 O48 1.234 . S
C62 O59 1.305 1_554 S
C62 O60 1.234 . S
Zn63 O69 1.920 . S
Zn63 O75 1.898 . S
Zn63 O78 1.905 . S
Zn64 O72 1.905 . S
Zn64 O73 1.898 . S
Zn64 O81 1.920 . S
Zn65 O68 2.080 . S
Zn65 O71 2.114 . S
Zn65 O74 2.120 . S
Zn65 O76 2.120 . S
Zn65 O77 2.114 . S
Zn65 O80 2.080 . S
C66 O71 1.166 . S
C66 O72 1.182 . S
C67 O73 1.167 . S
C67 O74 1.299 . S
O68 Zn65 2.080 . S
O68 C82 1.305 . S
O69 Zn63 1.920 . S
O69 C82 1.234 . S
C70 O75 1.167 . S
C70 O76 1.299 . S
O71 Zn65 2.114 . S
O71 C66 1.166 . S
O72 Zn64 1.905 . S
O72 C66 1.182 . S
O73 Zn64 1.898 . S
O73 C67 1.167 . S
O74 Zn65 2.120 . S
O74 C67 1.299 . S
O75 Zn63 1.898 . S
O75 C70 1.167 . S
O76 Zn65 2.120 . S
O76 C70 1.299 . S
O77 Zn65 2.114 . S
O77 C79 1.166 . S
O78 Zn63 1.905 . S
O78 C79 1.182 . S
C79 O77 1.166 . S
C79 O78 1.182 . S
O80 Zn65 2.080 . S
O80 C83 1.305 . S
O81 Zn64 1.920 . S
O81 C83 1.234 . S
C82 O68 1.305 . S
C82 O69 1.234 . S
C83 O80 1.305 . S
C83 O81 1.234 . S
Zn84 O90 1.920 . S
Zn84 O96 1.898 . S
Zn84 O99 1.905 . S
Zn85 O93 1.905 . S
Zn85 O94 1.898 . S
Zn85 O102 1.920 1_556 S
Zn86 O89 2.080 . S
Zn86 O92 2.114 . S
Zn86 O95 2.120 . S
Zn86 O97 2.120 . S
Zn86 O98 2.114 . S
Zn86 O101 2.080 . S
C87 O92 1.166 . S
C87 O93 1.182 . S
C88 O94 1.167 . S
C88 O95 1.299 . S
O89 Zn86 2.080 . S
O89 C103 1.305 . S
O90 Zn84 1.920 . S
O90 C103 1.234 . S
C91 O96 1.167 . S
C91 O97 1.299 . S
O92 Zn86 2.114 . S
O92 C87 1.166 . S
O93 Zn85 1.905 . S
O93 C87 1.182 . S
O94 Zn85 1.898 . S
O94 C88 1.167 . S
O95 Zn86 2.120 . S
O95 C88 1.299 . S
O96 Zn84 1.898 . S
O96 C91 1.167 . S
O97 Zn86 2.120 . S
O97 C91 1.299 . S
O98 Zn86 2.114 . S
O98 C100 1.166 . S
O99 Zn84 1.905 . S
O99 C100 1.182 . S
C100 O98 1.166 . S
C100 O99 1.182 . S
O101 Zn86 2.080 . S
O101 C104 1.305 1_556 S
O102 Zn85 1.920 1_554 S
O102 C104 1.234 . S
C103 O89 1.305 . S
C103 O90 1.234 . S
C104 O101 1.305 1_554 S
C104 O102 1.234 . S
Zn105 O111 1.920 . S
Zn105 O117 1.898 . S
Zn105 O120 1.905 . S
Zn106 O114 1.905 . S
Zn106 O115 1.898 . S
Zn106 O123 1.920 . S
Zn107 O110 2.080 . S
Zn107 O113 2.114 . S
Zn107 O116 2.120 . S
Zn107 O118 2.120 . S
Zn107 O119 2.114 . S
Zn107 O122 2.080 . S
C108 O113 1.166 . S
C108 O114 1.182 . S
C109 O115 1.167 . S
C109 O116 1.299 . S
O110 Zn107 2.080 . S
O110 C124 1.305 . S
O111 Zn105 1.920 . S
O111 C124 1.234 . S
C112 O117 1.167 . S
C112 O118 1.299 . S
O113 Zn107 2.114 . S
O113 C108 1.166 . S
O114 Zn106 1.905 . S
O114 C108 1.182 . S
O115 Zn106 1.898 . S
O115 C109 1.167 . S
O116 Zn107 2.120 . S
O116 C109 1.299 . S
O117 Zn105 1.898 . S
O117 C112 1.167 . S
O118 Zn107 2.120 . S
O118 C112 1.299 . S
O119 Zn107 2.114 . S
O119 C121 1.166 . S
O120 Zn105 1.905 . S
O120 C121 1.182 . S
C121 O119 1.166 . S
C121 O120 1.182 . S
O122 Zn107 2.080 . S
O122 C125 1.305 . S
O123 Zn106 1.920 . S
O123 C125 1.234 . S
C124 O110 1.305 . S
C124 O111 1.234 . S
C125 O122 1.305 . S
C125 O123 1.234 . S
Zn126 O132 1.920 . S
Zn126 O138 1.898 . S
Zn126 O141 1.905 . S
Zn127 O135 1.905 . S
Zn127 O136 1.898 . S
Zn127 O144 1.920 1_554 S
Zn128 O131 2.080 . S
Zn128 O134 2.114 . S
Zn128 O137 2.120 . S
Zn128 O139 2.120 . S
Zn128 O140 2.114 . S
Zn128 O143 2.080 . S
C129 O134 1.166 . S
C129 O135 1.182 . S
C130 O136 1.167 . S
C130 O137 1.299 . S
O131 Zn128 2.080 . S
O131 C145 1.305 . S
O132 Zn126 1.920 . S
O132 C145 1.234 . S
C133 O138 1.167 . S
C133 O139 1.299 . S
O134 Zn128 2.114 . S
O134 C129 1.166 . S
O135 Zn127 1.905 . S
O135 C129 1.182 . S
O136 Zn127 1.898 . S
O136 C130 1.167 . S
O137 Zn128 2.120 . S
O137 C130 1.299 . S
O138 Zn126 1.898 . S
O138 C133 1.167 . S
O139 Zn128 2.120 . S
O139 C133 1.299 . S
O140 Zn128 2.114 . S
O140 C142 1.166 . S
O141 Zn126 1.905 . S
O141 C142 1.182 . S
C142 O140 1.166 . S
C142 O141 1.182 . S
O143 Zn128 2.080 . S
O143 C146 1.305 1_554 S
O144 Zn127 1.920 1_556 S
O144 C146 1.234 . S
C145 O131 1.305 . S
C145 O132 1.234 . S
C146 O143 1.305 1_556 S
C146 O144 1.234 . S
Zn147 O153 1.920 . S
Zn147 O159 1.898 . S
Zn147 O162 1.905 . S
Zn148 O156 1.905 . S
Zn148 O157 1.898 . S
Zn148 O165 1.920 . S
Zn149 O152 2.080 . S
Zn149 O155 2.114 . S
Zn149 O158 2.120 . S
Zn149 O160 2.120 . S
Zn149 O161 2.114 . S
Zn149 O164 2.080 . S
C150 O155 1.166 . S
C150 O156 1.182 . S
C151 O157 1.167 . S
C151 O158 1.299 . S
O152 Zn149 2.080 . S
O152 C166 1.305 . S
O153 Zn147 1.920 . S
O153 C166 1.234 . S
C154 O159 1.167 . S
C154 O160 1.299 . S
O155 Zn149 2.114 . S
O155 C150 1.166 . S
O156 Zn148 1.905 . S
O156 C150 1.182 . S
O157 Zn148 1.898 . S
O157 C151 1.167 . S
O158 Zn149 2.120 . S
O158 C151 1.299 . S
O159 Zn147 1.898 . S
O159 C154 1.167 . S
O160 Zn149 2.120 . S
O160 C154 1.299 . S
O161 Zn149 2.114 . S
O161 C163 1.166 . S
O162 Zn147 1.905 . S
O162 C163 1.182 . S
C163 O161 1.166 . S
C163 O162 1.182 . S
O164 Zn149 2.080 . S
O164 C167 1.305 . S
O165 Zn148 1.920 . S
O165 C167 1.234 . S
C166 O152 1.305 . S
C166 O153 1.234 . S
C167 O164 1.305 . S
C167 O165 1.234 . S
Zn168 O174 1.920 1_554 S
Zn168 O180 1.898 . S
Zn168 O183 1.905 . S
Zn169 O177 1.905 . S
Zn169 O178 1.898 . S
Zn169 O186 1.920 . S
Zn170 O173 2.080 . S
Zn170 O176 2.114 . S
Zn170 O179 2.120 . S
Zn170 O181 2.120 . S
Zn170 O182 2.114 . S
Zn170 O185 2.080 . S
C171 O176 1.166 . S
C171 O177 1.182 . S
C172 O178 1.167 . S
C172 O179 1.299 . S
O173 Zn170 2.080 . S
O173 C187 1.305 1_554 S
O174 Zn168 1.920 1_556 S
O174 C187 1.234 . S
C175 O180 1.167 . S
C175 O181 1.299 . S
O176 Zn170 2.114 . S
O176 C171 1.166 . S
O177 Zn169 1.905 . S
O177 C171 1.182 . S
O178 Zn169 1.898 . S
O178 C172 1.167 . S
O179 Zn170 2.120 . S
O179 C172 1.299 . S
O180 Zn168 1.898 . S
O180 C175 1.167 . S
O181 Zn170 2.120 . S
O181 C175 1.299 . S
O182 Zn170 2.114 . S
O182 C184 1.166 . S
O183 Zn168 1.905 . S
O183 C184 1.182 . S
C184 O182 1.166 . S
C184 O183 1.182 . S
O185 Zn170 2.080 . S
O185 C188 1.305 . S
O186 Zn169 1.920 . S
O186 C188 1.234 . S
C187 O173 1.305 1_556 S
C187 O174 1.234 . S
C188 O185 1.305 . S
C188 O186 1.234 . S
Zn189 O195 1.920 . S
Zn189 O201 1.898 . S
Zn189 O204 1.905 . S
Zn190 O198 1.905 . S
Zn190 O199 1.898 . S
Zn190 O207 1.920 . S
Zn191 O194 2.080 . S
Zn191 O197 2.114 . S
Zn191 O200 2.120 . S
Zn191 O202 2.120 . S
Zn191 O203 2.114 . S
Zn191 O206 2.080 . S
C192 O197 1.166 . S
C192 O198 1.182 . S
C193 O199 1.167 . S
C193 O200 1.299 . S
O194 Zn191 2.080 . S
O194 C208 1.305 . S
O195 Zn189 1.920 . S
O195 C208 1.234 . S
C196 O201 1.167 . S
C196 O202 1.299 . S
O197 Zn191 2.114 . S
O197 C192 1.166 . S
O198 Zn190 1.905 . S
O198 C192 1.182 . S
O199 Zn190 1.898 . S
O199 C193 1.167 . S
O200 Zn191 2.120 . S
O200 C193 1.299 . S
O201 Zn189 1.898 . S
O201 C196 1.167 . S
O202 Zn191 2.120 . S
O202 C196 1.299 . S
O203 Zn191 2.114 . S
O203 C205 1.166 . S
O204 Zn189 1.905 . S
O204 C205 1.182 . S
C205 O203 1.166 . S
C205 O204 1.182 . S
O206 Zn191 2.080 . S
O206 C209 1.305 . S
O207 Zn190 1.920 . S
O207 C209 1.234 . S
C208 O194 1.305 . S
C208 O195 1.234 . S
C209 O206 1.305 . S
C209 O207 1.234 . S
Zn210 O216 1.920 . S
Zn210 O222 1.898 . S
Zn210 O225 1.905 . S
Zn211 O219 1.905 . S
Zn211 O220 1.898 . S
Zn211 O228 1.920 1_556 S
Zn212 O215 2.080 . S
Zn212 O218 2.114 . S
Zn212 O221 2.120 . S
Zn212 O223 2.120 . S
Zn212 O224 2.114 . S
Zn212 O227 2.080 . S
C213 O218 1.166 . S
C213 O219 1.182 . S
C214 O220 1.167 . S
C214 O221 1.299 . S
O215 Zn212 2.080 . S
O215 C229 1.305 . S
O216 Zn210 1.920 . S
O216 C229 1.234 . S
C217 O222 1.167 . S
C217 O223 1.299 . S
O218 Zn212 2.114 . S
O218 C213 1.166 . S
O219 Zn211 1.905 . S
O219 C213 1.182 . S
O220 Zn211 1.898 . S
O220 C214 1.167 . S
O221 Zn212 2.120 . S
O221 C214 1.299 . S
O222 Zn210 1.898 . S
O222 C217 1.167 . S
O223 Zn212 2.120 . S
O223 C217 1.299 . S
O224 Zn212 2.114 . S
O224 C226 1.166 . S
O225 Zn210 1.905 . S
O225 C226 1.182 . S
C226 O224 1.166 . S
C226 O225 1.182 . S
O227 Zn212 2.080 . S
O227 C230 1.305 1_556 S
O228 Zn211 1.920 1_554 S
O228 C230 1.234 . S
C229 O215 1.305 . S
C229 O216 1.234 . S
C230 O227 1.305 1_554 S
C230 O228 1.234 . S
Zn231 O237 1.920 . S
Zn231 O243 1.898 . S
Zn231 O246 1.905 . S
Zn232 O240 1.905 . S
Zn232 O241 1.898 . S
Zn232 O249 1.920 . S
Zn233 O236 2.080 . S
Zn233 O239 2.114 . S
Zn233 O242 2.120 . S
Zn233 O244 2.120 . S
Zn233 O245 2.114 . S
Zn233 O248 2.080 . S
C234 O239 1.166 . S
C234 O240 1.182 . S
C235 O241 1.167 . S
C235 O242 1.299 . S
O236 Zn233 2.080 . S
O236 C250 1.305 . S
O237 Zn231 1.920 . S
O237 C250 1.234 . S
C238 O243 1.167 . S
C238 O244 1.299 . S
O239 Zn233 2.114 . S
O239 C234 1.166 . S
O240 Zn232 1.905 . S
O240 C234 1.182 . S
O241 Zn232 1.898 . S
O241 C235 1.167 . S
O242 Zn233 2.120 . S
O242 C235 1.299 . S
O243 Zn231 1.898 . S
O243 C238 1.167 . S
O244 Zn233 2.120 . S
O244 C238 1.299 . S
O245 Zn233 2.114 . S
O245 C247 1.166 . S
O246 Zn231 1.905 . S
O246 C247 1.182 . S
C247 O245 1.166 . S
C247 O246 1.182 . S
O248 Zn233 2.080 . S
O248 C251 1.305 . S
O249 Zn232 1.920 . S
O249 C251 1.234 . S
C250 O236 1.305 . S
C250 O237 1.234 . S
C251 O248 1.305 . S
C251 O249 1.234 . S
Zn252 O258 1.920 1_556 S
Zn252 O264 1.898 . S
Zn252 O267 1.905 . S
Zn253 O261 1.905 . S
Zn253 O262 1.898 . S
Zn253 O270 1.920 . S
Zn254 O257 2.080 . S
Zn254 O260 2.114 . S
Zn254 O263 2.120 . S
Zn254 O265 2.120 . S
Zn254 O266 2.114 . S
Zn254 O269 2.080 . S
C255 O260 1.166 . S
C255 O261 1.182 . S
C256 O262 1.167 . S
C256 O263 1.299 . S
O257 Zn254 2.080 . S
O257 C271 1.305 1_556 S
O258 Zn252 1.920 1_554 S
O258 C271 1.234 . S
C259 O264 1.167 . S
C259 O265 1.299 . S
O260 Zn254 2.114 . S
O260 C255 1.166 . S
O261 Zn253 1.905 . S
O261 C255 1.182 . S
O262 Zn253 1.898 . S
O262 C256 1.167 . S
O263 Zn254 2.120 . S
O263 C256 1.299 . S
O264 Zn252 1.898 . S
O264 C259 1.167 . S
O265 Zn254 2.120 . S
O265 C259 1.299 . S
O266 Zn254 2.114 . S
O266 C268 1.166 . S
O267 Zn252 1.905 . S
O267 C268 1.182 . S
C268 O266 1.166 . S
C268 O267 1.182 . S
O269 Zn254 2.080 . S
O269 C272 1.305 . S
O270 Zn253 1.920 . S
O270 C272 1.234 . S
C271 O257 1.305 1_554 S
C271 O258 1.234 . S
C272 O269 1.305 . S
C272 O270 1.234 . S
Zn273 O279 1.920 . S
Zn273 O285 1.898 . S
Zn273 O288 1.905 . S
Zn274 O282 1.905 . S
Zn274 O283 1.898 . S
Zn274 O291 1.920 . S
Zn275 O278 2.080 . S
Zn275 O281 2.114 . S
Zn275 O284 2.120 . S
Zn275 O286 2.120 . S
Zn275 O287 2.114 . S
Zn275 O290 2.080 . S
C276 O281 1.166 . S
C276 O282 1.182 . S
C277 O283 1.167 . S
C277 O284 1.299 . S
O278 Zn275 2.080 . S
O278 C292 1.305 . S
O279 Zn273 1.920 . S
O279 C292 1.234 . S
C280 O285 1.167 . S
C280 O286 1.299 . S
O281 Zn275 2.114 . S
O281 C276 1.166 . S
O282 Zn274 1.905 . S
O282 C276 1.182 . S
O283 Zn274 1.898 . S
O283 C277 1.167 . S
O284 Zn275 2.120 . S
O284 C277 1.299 . S
O285 Zn273 1.898 . S
O285 C280 1.167 . S
O286 Zn275 2.120 . S
O286 C280 1.299 . S
O287 Zn275 2.114 . S
O287 C289 1.166 . S
O288 Zn273 1.905 . S
O288 C289 1.182 . S
C289 O287 1.166 . S
C289 O288 1.182 . S
O290 Zn275 2.080 . S
O290 C293 1.305 . S
O291 Zn274 1.920 . S
O291 C293 1.234 . S
C292 O278 1.305 . S
C292 O279 1.234 . S
C293 O290 1.305 . S
C293 O291 1.234 . S
Zn294 O300 1.920 . S
Zn294 O306 1.898 . S
Zn294 O309 1.905 . S
Zn295 O303 1.905 . S
Zn295 O304 1.898 . S
Zn295 O312 1.920 1_554 S
Zn296 O299 2.080 . S
Zn296 O302 2.114 . S
Zn296 O305 2.120 . S
Zn296 O307 2.120 . S
Zn296 O308 2.114 . S
Zn296 O311 2.080 . S
C297 O302 1.166 . S
C297 O303 1.182 . S
C298 O304 1.167 . S
C298 O305 1.299 . S
O299 Zn296 2.080 . S
O299 C313 1.305 . S
O300 Zn294 1.920 . S
O300 C313 1.234 . S
C301 O306 1.167 . S
C301 O307 1.299 . S
O302 Zn296 2.114 . S
O302 C297 1.166 . S
O303 Zn295 1.905 . S
O303 C297 1.182 . S
O304 Zn295 1.898 . S
O304 C298 1.167 . S
O305 Zn296 2.120 . S
O305 C298 1.299 . S
O306 Zn294 1.898 . S
O306 C301 1.167 . S
O307 Zn296 2.120 . S
O307 C301 1.299 . S
O308 Zn296 2.114 . S
O308 C310 1.166 . S
O309 Zn294 1.905 . S
O309 C310 1.182 . S
C310 O308 1.166 . S
C310 O309 1.182 . S
O311 Zn296 2.080 . S
O311 C314 1.305 1_554 S
O312 Zn295 1.920 1_556 S
O312 C314 1.234 . S
C313 O299 1.305 . S
C313 O300 1.234 . S
C314 O311 1.305 1_556 S
C314 O312 1.234 . S
Zn315 O321 1.920 . S
Zn315 O327 1.898 . S
Zn315 O330 1.905 . S
Zn316 O324 1.905 . S
Zn316 O325 1.898 . S
Zn316 O333 1.920 . S
Zn317 O320 2.080 . S
Zn317 O323 2.114 . S
Zn317 O326 2.120 . S
Zn317 O328 2.120 . S
Zn317 O329 2.114 . S
Zn317 O332 2.080 . S
C318 O323 1.166 . S
C318 O324 1.182 . S
C319 O325 1.167 . S
C319 O326 1.299 . S
O320 Zn317 2.080 . S
O320 C334 1.305 . S
O321 Zn315 1.920 . S
O321 C334 1.234 . S
C322 O327 1.167 . S
C322 O328 1.299 . S
O323 Zn317 2.114 . S
O323 C318 1.166 . S
O324 Zn316 1.905 . S
O324 C318 1.182 . S
O325 Zn316 1.898 . S
O325 C319 1.167 . S
O326 Zn317 2.120 . S
O326 C319 1.299 . S
O327 Zn315 1.898 . S
O327 C322 1.167 . S
O328 Zn317 2.120 . S
O328 C322 1.299 . S
O329 Zn317 2.114 . S
O329 C331 1.166 . S
O330 Zn315 1.905 . S
O330 C331 1.182 . S
C331 O329 1.166 . S
C331 O330 1.182 . S
O332 Zn317 2.080 . S
O332 C335 1.305 . S
O333 Zn316 1.920 . S
O333 C335 1.234 . S
C334 O320 1.305 . S
C334 O321 1.234 . S
C335 O332 1.305 . S
C335 O333 1.234 . S
H336 C342 0.930 . S
H337 C345 0.930 . S
H338 C346 0.930 . S
H339 C347 0.930 . S
H340 C350 0.930 . S
H341 C351 0.930 . S
C342 H336 0.930 . S
C342 C343 1.355 . S
C342 C344 1.415 . S
C343 C342 1.355 . S
C343 C345 1.419 . S
C344 C342 1.415 . S
C344 C349 1.425 . S
C344 C351 1.409 . S
C345 H337 0.930 . S
C345 C343 1.419 . S
C345 C346 1.362 . S
C346 H338 0.930 . S
C346 C345 1.362 . S
C346 C349 1.409 . S
C347 H339 0.930 . S
C347 C348 1.355 . S
C347 C349 1.415 . S
C348 C347 1.355 . S
C348 C350 1.419 . S
C349 C344 1.425 . S
C349 C346 1.409 . S
C349 C347 1.415 . S
C350 H340 0.930 . S
C350 C348 1.419 . S
C350 C351 1.362 . S
C351 H341 0.930 . S
C351 C344 1.409 . S
C351 C350 1.362 . S
H352 C358 0.930 . S
H353 C361 0.930 . S
H354 C362 0.930 . S
H355 C363 0.930 . S
H356 C366 0.930 . S
H357 C367 0.930 . S
C358 H352 0.930 . S
C358 C359 1.355 . S
C358 C360 1.415 . S
C359 C358 1.355 . S
C359 C361 1.419 . S
C360 C358 1.415 . S
C360 C365 1.425 . S
C360 C367 1.409 . S
C361 H353 0.930 . S
C361 C359 1.419 . S
C361 C362 1.362 . S
C362 H354 0.930 . S
C362 C361 1.362 . S
C362 C365 1.409 . S
C363 H355 0.930 . S
C363 C364 1.355 . S
C363 C365 1.415 . S
C364 C363 1.355 . S
C364 C366 1.419 . S
C365 C360 1.425 . S
C365 C362 1.409 . S
C365 C363 1.415 . S
C366 H356 0.930 . S
C366 C364 1.419 . S
C366 C367 1.362 . S
C367 H357 0.930 . S
C367 C360 1.409 . S
C367 C366 1.362 . S
H368 C374 0.930 . S
H369 C377 0.930 . S
H370 C378 0.930 . S
H371 C379 0.930 . S
H372 C382 0.930 . S
H373 C383 0.930 . S
C374 H368 0.930 . S
C374 C375 1.355 . S
C374 C376 1.415 . S
C375 C374 1.355 . S
C375 C377 1.419 . S
C376 C374 1.415 . S
C376 C381 1.425 . S
C376 C383 1.409 . S
C377 H369 0.930 . S
C377 C375 1.419 . S
C377 C378 1.362 . S
C378 H370 0.930 . S
C378 C377 1.362 . S
C378 C381 1.409 . S
C379 H371 0.930 . S
C379 C380 1.355 . S
C379 C381 1.415 . S
C380 C379 1.355 . S
C380 C382 1.419 . S
C381 C376 1.425 . S
C381 C378 1.409 . S
C381 C379 1.415 . S
C382 H372 0.930 . S
C382 C380 1.419 . S
C382 C383 1.362 . S
C383 H373 0.930 . S
C383 C376 1.409 . S
C383 C382 1.362 . S
H384 C390 0.930 . S
H385 C393 0.930 . S
H386 C394 0.930 . S
H387 C395 0.930 . S
H388 C398 0.930 . S
H389 C399 0.930 . S
C390 H384 0.930 . S
C390 C391 1.355 . S
C390 C392 1.415 . S
C391 C390 1.355 . S
C391 C393 1.419 . S
C392 C390 1.415 . S
C392 C397 1.425 . S
C392 C399 1.409 . S
C393 H385 0.930 . S
C393 C391 1.419 . S
C393 C394 1.362 . S
C394 H386 0.930 . S
C394 C393 1.362 . S
C394 C397 1.409 . S
C395 H387 0.930 . S
C395 C396 1.355 . S
C395 C397 1.415 . S
C396 C395 1.355 . S
C396 C398 1.419 . S
C397 C392 1.425 . S
C397 C394 1.409 . S
C397 C395 1.415 . S
C398 H388 0.930 . S
C398 C396 1.419 . S
C398 C399 1.362 . S
C399 H389 0.930 . S
C399 C392 1.409 . S
C399 C398 1.362 . S
H400 C406 0.930 . S
H401 C409 0.930 . S
H402 C410 0.930 . S
H403 C411 0.930 . S
H404 C414 0.930 . S
H405 C415 0.930 . S
C406 H400 0.930 . S
C406 C407 1.355 . S
C406 C408 1.415 . S
C407 C406 1.355 . S
C407 C409 1.419 . S
C408 C406 1.415 . S
C408 C413 1.425 . S
C408 C415 1.409 . S
C409 H401 0.930 . S
C409 C407 1.419 . S
C409 C410 1.362 . S
C410 H402 0.930 . S
C410 C409 1.362 . S
C410 C413 1.409 . S
C411 H403 0.930 . S
C411 C412 1.355 . S
C411 C413 1.415 . S
C412 C411 1.355 . S
C412 C414 1.419 . S
C413 C408 1.425 . S
C413 C410 1.409 . S
C413 C411 1.415 . S
C414 H404 0.930 . S
C414 C412 1.419 . S
C414 C415 1.362 . S
C415 H405 0.930 . S
C415 C408 1.409 . S
C415 C414 1.362 . S
H416 C422 0.930 . S
H417 C425 0.930 . S
H418 C426 0.930 . S
H419 C427 0.930 . S
H420 C430 0.930 . S
H421 C431 0.930 . S
C422 H416 0.930 . S
C422 C423 1.355 . S
C422 C424 1.415 . S
C423 C422 1.355 . S
C423 C425 1.419 . S
C424 C422 1.415 . S
C424 C429 1.425 . S
C424 C431 1.409 . S
C425 H417 0.930 . S
C425 C423 1.419 . S
C425 C426 1.362 . S
C426 H418 0.930 . S
C426 C425 1.362 . S
C426 C429 1.409 . S
C427 H419 0.930 . S
C427 C428 1.355 . S
C427 C429 1.415 . S
C428 C427 1.355 . S
C428 C430 1.419 . S
C429 C424 1.425 . S
C429 C426 1.409 . S
C429 C427 1.415 . S
C430 H420 0.930 . S
C430 C428 1.419 . S
C430 C431 1.362 . S
C431 H421 0.930 . S
C431 C424 1.409 . S
C431 C430 1.362 . S
H432 C438 0.930 . S
H433 C441 0.930 . S
H434 C442 0.930 . S
H435 C443 0.930 . S
H436 C446 0.930 . S
H437 C447 0.930 . S
C438 H432 0.930 . S
C438 C439 1.355 . S
C438 C440 1.415 . S
C439 C438 1.355 . S
C439 C441 1.419 . S
C440 C438 1.415 . S
C440 C445 1.425 . S
C440 C447 1.409 . S
C441 H433 0.930 . S
C441 C439 1.419 . S
C441 C442 1.362 . S
C442 H434 0.930 . S
C442 C441 1.362 . S
C442 C445 1.409 . S
C443 H435 0.930 . S
C443 C444 1.355 . S
C443 C445 1.415 . S
C444 C443 1.355 . S
C444 C446 1.419 . S
C445 C440 1.425 . S
C445 C442 1.409 . S
C445 C443 1.415 . S
C446 H436 0.930 . S
C446 C444 1.419 . S
C446 C447 1.362 . S
C447 H437 0.930 . S
C447 C440 1.409 . S
C447 C446 1.362 . S
H448 C454 0.930 . S
H449 C457 0.930 . S
H450 C458 0.930 . S
H451 C459 0.930 . S
H452 C462 0.930 . S
H453 C463 0.930 . S
C454 H448 0.930 . S
C454 C455 1.355 . S
C454 C456 1.415 . S
C455 C454 1.355 . S
C455 C457 1.419 . S
C456 C454 1.415 . S
C456 C461 1.425 . S
C456 C463 1.409 . S
C457 H449 0.930 . S
C457 C455 1.419 . S
C457 C458 1.362 . S
C458 H450 0.930 . S
C458 C457 1.362 . S
C458 C461 1.409 . S
C459 H451 0.930 . S
C459 C460 1.355 . S
C459 C461 1.415 . S
C460 C459 1.355 . S
C460 C462 1.419 . S
C461 C456 1.425 . S
C461 C458 1.409 . S
C461 C459 1.415 . S
C462 H452 0.930 . S
C462 C460 1.419 . S
C462 C463 1.362 . S
C463 H453 0.930 . S
C463 C456 1.409 . S
C463 C462 1.362 . S
H464 C470 0.930 . S
H465 C473 0.930 . S
H466 C474 0.930 . S
H467 C475 0.930 . S
H468 C478 0.930 . S
H469 C479 0.930 . S
C470 H464 0.930 . S
C470 C471 1.355 . S
C470 C472 1.415 . S
C471 C470 1.355 . S
C471 C473 1.419 . S
C472 C470 1.415 . S
C472 C477 1.425 . S
C472 C479 1.409 . S
C473 H465 0.930 . S
C473 C471 1.419 . S
C473 C474 1.362 . S
C474 H466 0.930 . S
C474 C473 1.362 . S
C474 C477 1.409 . S
C475 H467 0.930 . S
C475 C476 1.355 . S
C475 C477 1.415 . S
C476 C475 1.355 . S
C476 C478 1.419 . S
C477 C472 1.425 . S
C477 C474 1.409 . S
C477 C475 1.415 . S
C478 H468 0.930 . S
C478 C476 1.419 . S
C478 C479 1.362 . S
C479 H469 0.930 . S
C479 C472 1.409 . S
C479 C478 1.362 . S
H480 C486 0.930 . S
H481 C489 0.930 . S
H482 C490 0.930 . S
H483 C491 0.930 . S
H484 C494 0.930 . S
H485 C495 0.930 . S
C486 H480 0.930 . S
C486 C487 1.355 . S
C486 C488 1.415 . S
C487 C486 1.355 . S
C487 C489 1.419 . S
C488 C486 1.415 . S
C488 C493 1.425 . S
C488 C495 1.409 . S
C489 H481 0.930 . S
C489 C487 1.419 . S
C489 C490 1.362 . S
C490 H482 0.930 . S
C490 C489 1.362 . S
C490 C493 1.409 . S
C491 H483 0.930 . S
C491 C492 1.355 . S
C491 C493 1.415 . S
C492 C491 1.355 . S
C492 C494 1.419 . S
C493 C488 1.425 . S
C493 C490 1.409 . S
C493 C491 1.415 . S
C494 H484 0.930 . S
C494 C492 1.419 . S
C494 C495 1.362 . S
C495 H485 0.930 . S
C495 C488 1.409 . S
C495 C494 1.362 . S
H496 C502 0.930 . S
H497 C505 0.930 . S
H498 C506 0.930 . S
H499 C507 0.930 . S
H500 C510 0.930 . S
H501 C511 0.930 . S
C502 H496 0.930 . S
C502 C503 1.355 . S
C502 C504 1.415 . S
C503 C502 1.355 . S
C503 C505 1.419 . S
C504 C502 1.415 . S
C504 C509 1.425 . S
C504 C511 1.409 . S
C505 H497 0.930 . S
C505 C503 1.419 . S
C505 C506 1.362 . S
C506 H498 0.930 . S
C506 C505 1.362 . S
C506 C509 1.409 . S
C507 H499 0.930 . S
C507 C508 1.355 . S
C507 C509 1.415 . S
C508 C507 1.355 . S
C508 C510 1.419 . S
C509 C504 1.425 . S
C509 C506 1.409 . S
C509 C507 1.415 . S
C510 H500 0.930 . S
C510 C508 1.419 . S
C510 C511 1.362 . S
C511 H501 0.930 . S
C511 C504 1.409 . S
C511 C510 1.362 . S
H512 C518 0.930 . S
H513 C521 0.930 . S
H514 C522 0.930 . S
H515 C523 0.930 . S
H516 C526 0.930 . S
H517 C527 0.930 . S
C518 H512 0.930 . S
C518 C519 1.355 . S
C518 C520 1.415 . S
C519 C518 1.355 . S
C519 C521 1.419 . S
C520 C518 1.415 . S
C520 C525 1.425 . S
C520 C527 1.409 . S
C521 H513 0.930 . S
C521 C519 1.419 . S
C521 C522 1.362 . S
C522 H514 0.930 . S
C522 C521 1.362 . S
C522 C525 1.409 . S
C523 H515 0.930 . S
C523 C524 1.355 . S
C523 C525 1.415 . S
C524 C523 1.355 . S
C524 C526 1.419 . S
C525 C520 1.425 . S
C525 C522 1.409 . S
C525 C523 1.415 . S
C526 H516 0.930 . S
C526 C524 1.419 . S
C526 C527 1.362 . S
C527 H517 0.930 . S
C527 C520 1.409 . S
C527 C526 1.362 . S
H528 C534 0.930 . S
H529 C537 0.930 . S
H530 C538 0.930 . S
H531 C539 0.930 . S
H532 C542 0.930 . S
H533 C543 0.930 . S
C534 H528 0.930 . S
C534 C535 1.355 . S
C534 C536 1.415 . S
C535 C534 1.355 . S
C535 C537 1.419 . S
C536 C534 1.415 . S
C536 C541 1.425 . S
C536 C543 1.409 . S
C537 H529 0.930 . S
C537 C535 1.419 . S
C537 C538 1.362 . S
C538 H530 0.930 . S
C538 C537 1.362 . S
C538 C541 1.409 . S
C539 H531 0.930 . S
C539 C540 1.355 . S
C539 C541 1.415 . S
C540 C539 1.355 . S
C540 C542 1.419 . S
C541 C536 1.425 . S
C541 C538 1.409 . S
C541 C539 1.415 . S
C542 H532 0.930 . S
C542 C540 1.419 . S
C542 C543 1.362 . S
C543 H533 0.930 . S
C543 C536 1.409 . S
C543 C542 1.362 . S
H544 C550 0.930 . S
H545 C553 0.930 . S
H546 C554 0.930 . S
H547 C555 0.930 . S
H548 C558 0.930 . S
H549 C559 0.930 . S
C550 H544 0.930 . S
C550 C551 1.355 . S
C550 C552 1.415 . S
C551 C550 1.355 . S
C551 C553 1.419 . S
C552 C550 1.415 . S
C552 C557 1.425 . S
C552 C559 1.409 . S
C553 H545 0.930 . S
C553 C551 1.419 . S
C553 C554 1.362 . S
C554 H546 0.930 . S
C554 C553 1.362 . S
C554 C557 1.409 . S
C555 H547 0.930 . S
C555 C556 1.355 . S
C555 C557 1.415 . S
C556 C555 1.355 . S
C556 C558 1.419 . S
C557 C552 1.425 . S
C557 C554 1.409 . S
C557 C555 1.415 . S
C558 H548 0.930 . S
C558 C556 1.419 . S
C558 C559 1.362 . S
C559 H549 0.930 . S
C559 C552 1.409 . S
C559 C558 1.362 . S
H560 C566 0.930 . S
H561 C569 0.930 . S
H562 C570 0.930 . S
H563 C571 0.930 . S
H564 C574 0.930 . S
H565 C575 0.930 . S
C566 H560 0.930 . S
C566 C567 1.355 . S
C566 C568 1.415 . S
C567 C566 1.355 . S
C567 C569 1.419 . S
C568 C566 1.415 . S
C568 C573 1.425 . S
C568 C575 1.409 . S
C569 H561 0.930 . S
C569 C567 1.419 . S
C569 C570 1.362 . S
C570 H562 0.930 . S
C570 C569 1.362 . S
C570 C573 1.409 . S
C571 H563 0.930 . S
C571 C572 1.355 . S
C571 C573 1.415 . S
C572 C571 1.355 . S
C572 C574 1.419 . S
C573 C568 1.425 . S
C573 C570 1.409 . S
C573 C571 1.415 . S
C574 H564 0.930 . S
C574 C572 1.419 . S
C574 C575 1.362 . S
C575 H565 0.930 . S
C575 C568 1.409 . S
C575 C574 1.362 . S
H576 C582 0.930 . S
H577 C585 0.930 . S
H578 C586 0.930 . S
H579 C587 0.930 . S
H580 C590 0.930 . S
H581 C591 0.930 . S
C582 H576 0.930 . S
C582 C583 1.355 . S
C582 C584 1.415 . S
C583 C582 1.355 . S
C583 C585 1.419 . S
C584 C582 1.415 . S
C584 C589 1.425 . S
C584 C591 1.409 . S
C585 H577 0.930 . S
C585 C583 1.419 . S
C585 C586 1.362 . S
C586 H578 0.930 . S
C586 C585 1.362 . S
C586 C589 1.409 . S
C587 H579 0.930 . S
C587 C588 1.355 . S
C587 C589 1.415 . S
C588 C587 1.355 . S
C588 C590 1.419 . S
C589 C584 1.425 . S
C589 C586 1.409 . S
C589 C587 1.415 . S
C590 H580 0.930 . S
C590 C588 1.419 . S
C590 C591 1.362 . S
C591 H581 0.930 . S
C591 C584 1.409 . S
C591 C590 1.362 . S
H592 C598 0.930 . S
H593 C601 0.930 . S
H594 C602 0.930 . S
H595 C603 0.930 . S
H596 C606 0.930 . S
H597 C607 0.930 . S
C598 H592 0.930 . S
C598 C599 1.355 . S
C598 C600 1.415 . S
C599 C598 1.355 . S
C599 C601 1.419 . S
C600 C598 1.415 . S
C600 C605 1.425 . S
C600 C607 1.409 . S
C601 H593 0.930 . S
C601 C599 1.419 . S
C601 C602 1.362 . S
C602 H594 0.930 . S
C602 C601 1.362 . S
C602 C605 1.409 . S
C603 H595 0.930 . S
C603 C604 1.355 . S
C603 C605 1.415 . S
C604 C603 1.355 . S
C604 C606 1.419 . S
C605 C600 1.425 . S
C605 C602 1.409 . S
C605 C603 1.415 . S
C606 H596 0.930 . S
C606 C604 1.419 . S
C606 C607 1.362 . S
C607 H597 0.930 . S
C607 C600 1.409 . S
C607 C606 1.362 . S
H608 C614 0.930 . S
H609 C617 0.930 . S
H610 C618 0.930 . S
H611 C619 0.930 . S
H612 C622 0.930 . S
H613 C623 0.930 . S
C614 H608 0.930 . S
C614 C615 1.355 . S
C614 C616 1.415 . S
C615 C614 1.355 . S
C615 C617 1.419 . S
C616 C614 1.415 . S
C616 C621 1.425 . S
C616 C623 1.409 . S
C617 H609 0.930 . S
C617 C615 1.419 . S
C617 C618 1.362 . S
C618 H610 0.930 . S
C618 C617 1.362 . S
C618 C621 1.409 . S
C619 H611 0.930 . S
C619 C620 1.355 . S
C619 C621 1.415 . S
C620 C619 1.355 . S
C620 C622 1.419 . S
C621 C616 1.425 . S
C621 C618 1.409 . S
C621 C619 1.415 . S
C622 H612 0.930 . S
C622 C620 1.419 . S
C622 C623 1.362 . S
C623 H613 0.930 . S
C623 C616 1.409 . S
C623 C622 1.362 . S
H624 C630 0.930 . S
H625 C633 0.930 . S
H626 C634 0.930 . S
H627 C635 0.930 . S
H628 C638 0.930 . S
H629 C639 0.930 . S
C630 H624 0.930 . S
C630 C631 1.355 . S
C630 C632 1.415 . S
C631 C630 1.355 . S
C631 C633 1.419 . S
C632 C630 1.415 . S
C632 C637 1.425 . S
C632 C639 1.409 . S
C633 H625 0.930 . S
C633 C631 1.419 . S
C633 C634 1.362 . S
C634 H626 0.930 . S
C634 C633 1.362 . S
C634 C637 1.409 . S
C635 H627 0.930 . S
C635 C636 1.355 . S
C635 C637 1.415 . S
C636 C635 1.355 . S
C636 C638 1.419 . S
C637 C632 1.425 . S
C637 C634 1.409 . S
C637 C635 1.415 . S
C638 H628 0.930 . S
C638 C636 1.419 . S
C638 C639 1.362 . S
C639 H629 0.930 . S
C639 C632 1.409 . S
C639 C638 1.362 . S
H640 C646 0.930 . S
H641 C649 0.930 . S
H642 C650 0.930 . S
H643 C651 0.930 . S
H644 C654 0.930 . S
H645 C655 0.930 . S
C646 H640 0.930 . S
C646 C647 1.355 . S
C646 C648 1.415 . S
C647 C646 1.355 . S
C647 C649 1.419 . S
C648 C646 1.415 . S
C648 C653 1.425 . S
C648 C655 1.409 . S
C649 H641 0.930 . S
C649 C647 1.419 . S
C649 C650 1.362 . S
C650 H642 0.930 . S
C650 C649 1.362 . S
C650 C653 1.409 . S
C651 H643 0.930 . S
C651 C652 1.355 . S
C651 C653 1.415 . S
C652 C651 1.355 . S
C652 C654 1.419 . S
C653 C648 1.425 . S
C653 C650 1.409 . S
C653 C651 1.415 . S
C654 H644 0.930 . S
C654 C652 1.419 . S
C654 C655 1.362 . S
C655 H645 0.930 . S
C655 C648 1.409 . S
C655 C654 1.362 . S
H656 C662 0.930 . S
H657 C665 0.930 . S
H658 C666 0.930 . S
H659 C667 0.930 . S
H660 C670 0.930 . S
H661 C671 0.930 . S
C662 H656 0.930 . S
C662 C663 1.355 . S
C662 C664 1.415 . S
C663 C662 1.355 . S
C663 C665 1.419 . S
C664 C662 1.415 . S
C664 C669 1.425 . S
C664 C671 1.409 . S
C665 H657 0.930 . S
C665 C663 1.419 . S
C665 C666 1.362 . S
C666 H658 0.930 . S
C666 C665 1.362 . S
C666 C669 1.409 . S
C667 H659 0.930 . S
C667 C668 1.355 . S
C667 C669 1.415 . S
C668 C667 1.355 . S
C668 C670 1.419 . S
C669 C664 1.425 . S
C669 C666 1.409 . S
C669 C667 1.415 . S
C670 H660 0.930 . S
C670 C668 1.419 . S
C670 C671 1.362 . S
C671 H661 0.930 . S
C671 C664 1.409 . S
C671 C670 1.362 . S
H672 C678 0.930 . S
H673 C681 0.930 . S
H674 C682 0.930 . S
H675 C683 0.930 . S
H676 C686 0.930 . S
H677 C687 0.930 . S
C678 H672 0.930 . S
C678 C679 1.355 . S
C678 C680 1.415 . S
C679 C678 1.355 . S
C679 C681 1.419 . S
C680 C678 1.415 . S
C680 C685 1.425 . S
C680 C687 1.409 . S
C681 H673 0.930 . S
C681 C679 1.419 . S
C681 C682 1.362 . S
C682 H674 0.930 . S
C682 C681 1.362 . S
C682 C685 1.409 . S
C683 H675 0.930 . S
C683 C684 1.355 . S
C683 C685 1.415 . S
C684 C683 1.355 . S
C684 C686 1.419 . S
C685 C680 1.425 . S
C685 C682 1.409 . S
C685 C683 1.415 . S
C686 H676 0.930 . S
C686 C684 1.419 . S
C686 C687 1.362 . S
C687 H677 0.930 . S
C687 C680 1.409 . S
C687 C686 1.362 . S
H688 C694 0.930 . S
H689 C697 0.930 . S
H690 C698 0.930 . S
H691 C699 0.930 . S
H692 C702 0.930 . S
H693 C703 0.930 . S
C694 H688 0.930 . S
C694 C695 1.355 . S
C694 C696 1.415 . S
C695 C694 1.355 . S
C695 C697 1.419 . S
C696 C694 1.415 . S
C696 C701 1.425 . S
C696 C703 1.409 . S
C697 H689 0.930 . S
C697 C695 1.419 . S
C697 C698 1.362 . S
C698 H690 0.930 . S
C698 C697 1.362 . S
C698 C701 1.409 . S
C699 H691 0.930 . S
C699 C700 1.355 . S
C699 C701 1.415 . S
C700 C699 1.355 . S
C700 C702 1.419 . S
C701 C696 1.425 . S
C701 C698 1.409 . S
C701 C699 1.415 . S
C702 H692 0.930 . S
C702 C700 1.419 . S
C702 C703 1.362 . S
C703 H693 0.930 . S
C703 C696 1.409 . S
C703 C702 1.362 . S
H704 C710 0.930 . S
H705 C713 0.930 . S
H706 C714 0.930 . S
H707 C715 0.930 . S
H708 C718 0.930 . S
H709 C719 0.930 . S
C710 H704 0.930 . S
C710 C711 1.355 . S
C710 C712 1.415 . S
C711 C710 1.355 . S
C711 C713 1.419 . S
C712 C710 1.415 . S
C712 C717 1.425 . S
C712 C719 1.409 . S
C713 H705 0.930 . S
C713 C711 1.419 . S
C713 C714 1.362 . S
C714 H706 0.930 . S
C714 C713 1.362 . S
C714 C717 1.409 . S
C715 H707 0.930 . S
C715 C716 1.355 . S
C715 C717 1.415 . S
C716 C715 1.355 . S
C716 C718 1.419 . S
C717 C712 1.425 . S
C717 C714 1.409 . S
C717 C715 1.415 . S
C718 H708 0.930 . S
C718 C716 1.419 . S
C718 C719 1.362 . S
C719 H709 0.930 . S
C719 C712 1.409 . S
C719 C718 1.362 . S
H720 C726 0.930 . S
H721 C729 0.930 . S
H722 C730 0.930 . S
H723 C731 0.930 . S
H724 C734 0.930 . S
H725 C735 0.930 . S
C726 H720 0.930 . S
C726 C727 1.355 . S
C726 C728 1.415 . S
C727 C726 1.355 . S
C727 C729 1.419 . S
C728 C726 1.415 . S
C728 C733 1.425 1_455 S
C728 C735 1.409 1_455 S
C729 H721 0.930 . S
C729 C727 1.419 . S
C729 C730 1.362 . S
C730 H722 0.930 . S
C730 C729 1.362 . S
C730 C733 1.409 1_455 S
C731 H723 0.930 . S
C731 C732 1.355 . S
C731 C733 1.415 . S
C732 C731 1.355 . S
C732 C734 1.419 . S
C733 C728 1.425 1_655 S
C733 C730 1.409 1_655 S
C733 C731 1.415 . S
C734 H724 0.930 . S
C734 C732 1.419 . S
C734 C735 1.362 . S
C735 H725 0.930 . S
C735 C728 1.409 1_655 S
C735 C734 1.362 . S
H736 C742 0.930 . S
H737 C745 0.930 . S
H738 C746 0.930 . S
H739 C747 0.930 . S
H740 C750 0.930 . S
H741 C751 0.930 . S
C742 H736 0.930 . S
C742 C743 1.355 . S
C742 C744 1.415 . S
C743 C742 1.355 . S
C743 C745 1.419 . S
C744 C742 1.415 . S
C744 C749 1.425 . S
C744 C751 1.409 . S
C745 H737 0.930 . S
C745 C743 1.419 . S
C745 C746 1.362 . S
C746 H738 0.930 . S
C746 C745 1.362 . S
C746 C749 1.409 . S
C747 H739 0.930 . S
C747 C748 1.355 . S
C747 C749 1.415 . S
C748 C747 1.355 . S
C748 C750 1.419 . S
C749 C744 1.425 . S
C749 C746 1.409 . S
C749 C747 1.415 . S
C750 H740 0.930 . S
C750 C748 1.419 . S
C750 C751 1.362 . S
C751 H741 0.930 . S
C751 C744 1.409 . S
C751 C750 1.362 . S
H752 C758 0.930 . S
H753 C761 0.930 . S
H754 C762 0.930 . S
H755 C763 0.930 . S
H756 C766 0.930 . S
H757 C767 0.930 . S
C758 H752 0.930 . S
C758 C759 1.355 . S
C758 C760 1.415 . S
C759 C758 1.355 . S
C759 C761 1.419 . S
C760 C758 1.415 . S
C760 C765 1.425 1_655 S
C760 C767 1.409 1_655 S
C761 H753 0.930 . S
C761 C759 1.419 . S
C761 C762 1.362 . S
C762 H754 0.930 . S
C762 C761 1.362 . S
C762 C765 1.409 1_655 S
C763 H755 0.930 . S
C763 C764 1.355 . S
C763 C765 1.415 . S
C764 C763 1.355 . S
C764 C766 1.419 . S
C765 C760 1.425 1_455 S
C765 C762 1.409 1_455 S
C765 C763 1.415 . S
C766 H756 0.930 . S
C766 C764 1.419 . S
C766 C767 1.362 . S
C767 H757 0.930 . S
C767 C760 1.409 1_455 S
C767 C766 1.362 . S
H768 C774 0.930 . S
H769 C777 0.930 . S
H770 C778 0.930 . S
H771 C779 0.930 . S
H772 C782 0.930 . S
H773 C783 0.930 . S
C774 H768 0.930 . S
C774 C775 1.355 . S
C774 C776 1.415 . S
C775 C774 1.355 . S
C775 C777 1.419 . S
C776 C774 1.415 . S
C776 C781 1.425 . S
C776 C783 1.409 . S
C777 H769 0.930 . S
C777 C775 1.419 . S
C777 C778 1.362 . S
C778 H770 0.930 . S
C778 C777 1.362 . S
C778 C781 1.409 . S
C779 H771 0.930 . S
C779 C780 1.355 . S
C779 C781 1.415 . S
C780 C779 1.355 . S
C780 C782 1.419 . S
C781 C776 1.425 . S
C781 C778 1.409 . S
C781 C779 1.415 . S
C782 H772 0.930 . S
C782 C780 1.419 . S
C782 C783 1.362 . S
C783 H773 0.930 . S
C783 C776 1.409 . S
C783 C782 1.362 . S
H784 C790 0.930 . S
H785 C793 0.930 . S
H786 C794 0.930 . S
H787 C795 0.930 . S
H788 C798 0.930 . S
H789 C799 0.930 . S
C790 H784 0.930 . S
C790 C791 1.355 . S
C790 C792 1.415 . S
C791 C790 1.355 . S
C791 C793 1.419 . S
C792 C790 1.415 . S
C792 C797 1.425 . S
C792 C799 1.409 . S
C793 H785 0.930 . S
C793 C791 1.419 . S
C793 C794 1.362 . S
C794 H786 0.930 . S
C794 C793 1.362 . S
C794 C797 1.409 . S
C795 H787 0.930 . S
C795 C796 1.355 . S
C795 C797 1.415 . S
C796 C795 1.355 . S
C796 C798 1.419 . S
C797 C792 1.425 . S
C797 C794 1.409 . S
C797 C795 1.415 . S
C798 H788 0.930 . S
C798 C796 1.419 . S
C798 C799 1.362 . S
C799 H789 0.930 . S
C799 C792 1.409 . S
C799 C798 1.362 . S
H800 C806 0.930 . S
H801 C809 0.930 . S
H802 C810 0.930 . S
H803 C811 0.930 . S
H804 C814 0.930 . S
H805 C815 0.930 . S
C806 H800 0.930 . S
C806 C807 1.355 . S
C806 C808 1.415 . S
C807 C806 1.355 . S
C807 C809 1.419 . S
C808 C806 1.415 . S
C808 C813 1.425 1_655 S
C808 C815 1.409 1_655 S
C809 H801 0.930 . S
C809 C807 1.419 . S
C809 C810 1.362 . S
C810 H802 0.930 . S
C810 C809 1.362 . S
C810 C813 1.409 1_655 S
C811 H803 0.930 . S
C811 C812 1.355 . S
C811 C813 1.415 . S
C812 C811 1.355 . S
C812 C814 1.419 . S
C813 C808 1.425 1_455 S
C813 C810 1.409 1_455 S
C813 C811 1.415 . S
C814 H804 0.930 . S
C814 C812 1.419 . S
C814 C815 1.362 . S
C815 H805 0.930 . S
C815 C808 1.409 1_455 S
C815 C814 1.362 . S
H816 C822 0.930 . S
H817 C825 0.930 . S
H818 C826 0.930 . S
H819 C827 0.930 . S
H820 C830 0.930 . S
H821 C831 0.930 . S
C822 H816 0.930 . S
C822 C823 1.355 . S
C822 C824 1.415 . S
C823 C822 1.355 . S
C823 C825 1.419 . S
C824 C822 1.415 . S
C824 C829 1.425 . S
C824 C831 1.409 . S
C825 H817 0.930 . S
C825 C823 1.419 . S
C825 C826 1.362 . S
C826 H818 0.930 . S
C826 C825 1.362 . S
C826 C829 1.409 . S
C827 H819 0.930 . S
C827 C828 1.355 . S
C827 C829 1.415 . S
C828 C827 1.355 . S
C828 C830 1.419 . S
C829 C824 1.425 . S
C829 C826 1.409 . S
C829 C827 1.415 . S
C830 H820 0.930 . S
C830 C828 1.419 . S
C830 C831 1.362 . S
C831 H821 0.930 . S
C831 C824 1.409 . S
C831 C830 1.362 . S
H832 C838 0.930 . S
H833 C841 0.930 . S
H834 C842 0.930 . S
H835 C843 0.930 . S
H836 C846 0.930 . S
H837 C847 0.930 . S
C838 H832 0.930 . S
C838 C839 1.355 . S
C838 C840 1.415 . S
C839 C838 1.355 . S
C839 C841 1.419 . S
C840 C838 1.415 . S
C840 C845 1.425 1_455 S
C840 C847 1.409 1_455 S
C841 H833 0.930 . S
C841 C839 1.419 . S
C841 C842 1.362 . S
C842 H834 0.930 . S
C842 C841 1.362 . S
C842 C845 1.409 1_455 S
C843 H835 0.930 . S
C843 C844 1.355 . S
C843 C845 1.415 . S
C844 C843 1.355 . S
C844 C846 1.419 . S
C845 C840 1.425 1_655 S
C845 C842 1.409 1_655 S
C845 C843 1.415 . S
C846 H836 0.930 . S
C846 C844 1.419 . S
C846 C847 1.362 . S
C847 H837 0.930 . S
C847 C840 1.409 1_655 S
C847 C846 1.362 . S
H848 C854 0.930 . S
H849 C857 0.930 . S
H850 C858 0.930 1_565 S
H851 C859 0.930 . S
H852 C862 0.930 . S
H853 C863 0.930 1_545 S
C854 H848 0.930 . S
C854 C855 1.355 1_556 S
C854 C856 1.415 . S
C855 C854 1.355 1_554 S
C855 C857 1.419 . S
C856 C854 1.415 . S
C856 C861 1.425 1_546 S
C856 C863 1.409 1_545 S
C857 H849 0.930 . S
C857 C855 1.419 . S
C857 C858 1.362 . S
C858 H850 0.930 1_545 S
C858 C857 1.362 . S
C858 C861 1.409 1_545 S
C859 H851 0.930 . S
C859 C860 1.355 1_554 S
C859 C861 1.415 . S
C860 C859 1.355 1_556 S
C860 C862 1.419 . S
C861 C856 1.425 1_564 S
C861 C858 1.409 1_565 S
C861 C859 1.415 . S
C862 H852 0.930 . S
C862 C860 1.419 . S
C862 C863 1.362 . S
C863 H853 0.930 1_565 S
C863 C856 1.409 1_565 S
C863 C862 1.362 . S
H864 C870 0.930 . S
H865 C873 0.930 . S
H866 C874 0.930 1_545 S
H867 C875 0.930 . S
H868 C878 0.930 . S
H869 C879 0.930 1_565 S
C870 H864 0.930 . S
C870 C871 1.355 . S
C870 C872 1.415 . S
C871 C870 1.355 . S
C871 C873 1.419 . S
C872 C870 1.415 . S
C872 C877 1.425 1_565 S
C872 C879 1.409 1_565 S
C873 H865 0.930 . S
C873 C871 1.419 . S
C873 C874 1.362 . S
C874 H866 0.930 1_565 S
C874 C873 1.362 . S
C874 C877 1.409 1_565 S
C875 H867 0.930 . S
C875 C876 1.355 . S
C875 C877 1.415 . S
C876 C875 1.355 . S
C876 C878 1.419 . S
C877 C872 1.425 1_545 S
C877 C874 1.409 1_545 S
C877 C875 1.415 . S
C878 H868 0.930 . S
C878 C876 1.419 . S
C878 C879 1.362 . S
C879 H869 0.930 1_545 S
C879 C872 1.409 1_545 S
C879 C878 1.362 . S
H880 C886 0.930 . S
H881 C889 0.930 . S
H882 C890 0.930 1_565 S
H883 C891 0.930 . S
H884 C894 0.930 . S
H885 C895 0.930 1_545 S
C886 H880 0.930 . S
C886 C887 1.355 1_556 S
C886 C888 1.415 . S
C887 C886 1.355 1_554 S
C887 C889 1.419 . S
C888 C886 1.415 . S
C888 C893 1.425 1_546 S
C888 C895 1.409 1_545 S
C889 H881 0.930 . S
C889 C887 1.419 . S
C889 C890 1.362 . S
C890 H882 0.930 1_545 S
C890 C889 1.362 . S
C890 C893 1.409 1_545 S
C891 H883 0.930 . S
C891 C892 1.355 1_554 S
C891 C893 1.415 . S
C892 C891 1.355 1_556 S
C892 C894 1.419 . S
C893 C888 1.425 1_564 S
C893 C890 1.409 1_565 S
C893 C891 1.415 . S
C894 H884 0.930 . S
C894 C892 1.419 . S
C894 C895 1.362 . S
C895 H885 0.930 1_565 S
C895 C888 1.409 1_565 S
C895 C894 1.362 . S
H896 C902 0.930 . S
H897 C905 0.930 . S
H898 C906 0.930 . S
H899 C907 0.930 . S
H900 C910 0.930 . S
H901 C911 0.930 . S
C902 H896 0.930 . S
C902 C903 1.355 . S
C902 C904 1.415 . S
C903 C902 1.355 . S
C903 C905 1.419 . S
C904 C902 1.415 . S
C904 C909 1.425 1_545 S
C904 C911 1.409 1_545 S
C905 H897 0.930 . S
C905 C903 1.419 . S
C905 C906 1.362 . S
C906 H898 0.930 . S
C906 C905 1.362 . S
C906 C909 1.409 1_545 S
C907 H899 0.930 . S
C907 C908 1.355 . S
C907 C909 1.415 . S
C908 C907 1.355 . S
C908 C910 1.419 . S
C909 C904 1.425 1_565 S
C909 C906 1.409 1_565 S
C909 C907 1.415 . S
C910 H900 0.930 . S
C910 C908 1.419 . S
C910 C911 1.362 . S
C911 H901 0.930 . S
C911 C904 1.409 1_565 S
C911 C910 1.362 . S
H912 C918 0.930 . S
H913 C921 0.930 . S
H914 C922 0.930 . S
H915 C923 0.930 . S
H916 C926 0.930 . S
H917 C927 0.930 . S
C918 H912 0.930 . S
C918 C919 1.355 . S
C918 C920 1.415 . S
C919 C918 1.355 . S
C919 C921 1.419 . S
C920 C918 1.415 . S
C920 C925 1.425 1_554 S
C920 C927 1.409 . S
C921 H913 0.930 . S
C921 C919 1.419 . S
C921 C922 1.362 1_554 S
C922 H914 0.930 . S
C922 C921 1.362 1_556 S
C922 C925 1.409 . S
C923 H915 0.930 . S
C923 C924 1.355 . S
C923 C925 1.415 . S
C924 C923 1.355 . S
C924 C926 1.419 . S
C925 C920 1.425 1_556 S
C925 C922 1.409 . S
C925 C923 1.415 . S
C926 H916 0.930 . S
C926 C924 1.419 . S
C926 C927 1.362 1_556 S
C927 H917 0.930 . S
C927 C920 1.409 . S
C927 C926 1.362 1_554 S
H928 C934 0.930 . S
H929 C937 0.930 . S
H930 C938 0.930 . S
H931 C939 0.930 . S
H932 C942 0.930 . S
H933 C943 0.930 . S
C934 H928 0.930 . S
C934 C935 1.355 . S
C934 C936 1.415 . S
C935 C934 1.355 . S
C935 C937 1.419 . S
C936 C934 1.415 . S
C936 C941 1.425 . S
C936 C943 1.409 . S
C937 H929 0.930 . S
C937 C935 1.419 . S
C937 C938 1.362 . S
C938 H930 0.930 . S
C938 C937 1.362 . S
C938 C941 1.409 . S
C939 H931 0.930 . S
C939 C940 1.355 . S
C939 C941 1.415 . S
C940 C939 1.355 . S
C940 C942 1.419 . S
C941 C936 1.425 . S
C941 C938 1.409 . S
C941 C939 1.415 . S
C942 H932 0.930 . S
C942 C940 1.419 . S
C942 C943 1.362 . S
C943 H933 0.930 . S
C943 C936 1.409 . S
C943 C942 1.362 . S
H944 C950 0.930 . S
H945 C953 0.930 . S
H946 C954 0.930 . S
H947 C955 0.930 . S
H948 C958 0.930 . S
H949 C959 0.930 . S
C950 H944 0.930 . S
C950 C951 1.355 . S
C950 C952 1.415 . S
C951 C950 1.355 . S
C951 C953 1.419 . S
C952 C950 1.415 . S
C952 C957 1.425 1_556 S
C952 C959 1.409 . S
C953 H945 0.930 . S
C953 C951 1.419 . S
C953 C954 1.362 1_556 S
C954 H946 0.930 . S
C954 C953 1.362 1_554 S
C954 C957 1.409 . S
C955 H947 0.930 . S
C955 C956 1.355 . S
C955 C957 1.415 . S
C956 C955 1.355 . S
C956 C958 1.419 . S
C957 C952 1.425 1_554 S
C957 C954 1.409 . S
C957 C955 1.415 . S
C958 H948 0.930 . S
C958 C956 1.419 . S
C958 C959 1.362 1_554 S
C959 H949 0.930 . S
C959 C952 1.409 . S
C959 C958 1.362 1_556 S
H960 C966 0.930 . S
H961 C969 0.930 . S
H962 C970 0.930 . S
H963 C971 0.930 . S
H964 C974 0.930 . S
H965 C975 0.930 . S
C966 H960 0.930 . S
C966 C967 1.355 . S
C966 C968 1.415 . S
C967 C966 1.355 . S
C967 C969 1.419 . S
C968 C966 1.415 . S
C968 C973 1.425 . S
C968 C975 1.409 . S
C969 H961 0.930 . S
C969 C967 1.419 . S
C969 C970 1.362 . S
C970 H962 0.930 . S
C970 C969 1.362 . S
C970 C973 1.409 . S
C971 H963 0.930 . S
C971 C972 1.355 . S
C971 C973 1.415 . S
C972 C971 1.355 . S
C972 C974 1.419 . S
C973 C968 1.425 . S
C973 C970 1.409 . S
C973 C971 1.415 . S
C974 H964 0.930 . S
C974 C972 1.419 . S
C974 C975 1.362 . S
C975 H965 0.930 . S
C975 C968 1.409 . S
C975 C974 1.362 . S
H976 C982 0.930 . S
H977 C985 0.930 . S
H978 C986 0.930 . S
H979 C987 0.930 . S
H980 C990 0.930 . S
H981 C991 0.930 . S
C982 H976 0.930 . S
C982 C983 1.355 1_556 S
C982 C984 1.415 . S
C983 C982 1.355 1_554 S
C983 C985 1.419 . S
C984 C982 1.415 . S
C984 C989 1.425 1_556 S
C984 C991 1.409 . S
C985 H977 0.930 . S
C985 C983 1.419 . S
C985 C986 1.362 . S
C986 H978 0.930 . S
C986 C985 1.362 . S
C986 C989 1.409 . S
C987 H979 0.930 . S
C987 C988 1.355 1_554 S
C987 C989 1.415 . S
C988 C987 1.355 1_556 S
C988 C990 1.419 . S
C989 C984 1.425 1_554 S
C989 C986 1.409 . S
C989 C987 1.415 . S
C990 H980 0.930 . S
C990 C988 1.419 . S
C990 C991 1.362 . S
C991 H981 0.930 . S
C991 C984 1.409 . S
C991 C990 1.362 . S
H992 C998 0.930 . S
H993 C1001 0.930 . S
H994 C1002 0.930 . S
H995 C1003 0.930 . S
H996 C1006 0.930 . S
H997 C1007 0.930 . S
C998 H992 0.930 . S
C998 C999 1.355 . S
C998 C1000 1.415 . S
C999 C998 1.355 . S
C999 C1001 1.419 . S
C1000 C998 1.415 . S
C1000 C1005 1.425 . S
C1000 C1007 1.409 . S
C1001 H993 0.930 . S
C1001 C999 1.419 . S
C1001 C1002 1.362 . S
C1002 H994 0.930 . S
C1002 C1001 1.362 . S
C1002 C1005 1.409 . S
C1003 H995 0.930 . S
C1003 C1004 1.355 . S
C1003 C1005 1.415 . S
C1004 C1003 1.355 . S
C1004 C1006 1.419 . S
C1005 C1000 1.425 . S
C1005 C1002 1.409 . S
C1005 C1003 1.415 . S
C1006 H996 0.930 . S
C1006 C1004 1.419 . S
C1006 C1007 1.362 . S
C1007 H997 0.930 . S
C1007 C1000 1.409 . S
C1007 C1006 1.362 . S
H1008 C1014 0.930 . S
H1009 C1017 0.930 . S
H1010 C1018 0.930 . S
H1011 C1019 0.930 . S
H1012 C1022 0.930 . S
H1013 C1023 0.930 . S
C1014 H1008 0.930 . S
C1014 C1015 1.355 1_554 S
C1014 C1016 1.415 . S
C1015 C1014 1.355 1_556 S
C1015 C1017 1.419 . S
C1016 C1014 1.415 . S
C1016 C1021 1.425 1_554 S
C1016 C1023 1.409 . S
C1017 H1009 0.930 . S
C1017 C1015 1.419 . S
C1017 C1018 1.362 . S
C1018 H1010 0.930 . S
C1018 C1017 1.362 . S
C1018 C1021 1.409 . S
C1019 H1011 0.930 . S
C1019 C1020 1.355 1_556 S
C1019 C1021 1.415 . S
C1020 C1019 1.355 1_554 S
C1020 C1022 1.419 . S
C1021 C1016 1.425 1_556 S
C1021 C1018 1.409 . S
C1021 C1019 1.415 . S
C1022 H1012 0.930 . S
C1022 C1020 1.419 . S
C1022 C1023 1.362 . S
C1023 H1013 0.930 . S
C1023 C1016 1.409 . S
C1023 C1022 1.362 . S
H1024 C1030 0.930 . S
H1025 C1033 0.930 . S
H1026 C1034 0.930 . S
H1027 C1035 0.930 . S
H1028 C1038 0.930 . S
H1029 C1039 0.930 . S
C1030 H1024 0.930 . S
C1030 C1031 1.355 . S
C1030 C1032 1.415 . S
C1031 C1030 1.355 . S
C1031 C1033 1.419 . S
C1032 C1030 1.415 . S
C1032 C1037 1.425 . S
C1032 C1039 1.409 . S
C1033 H1025 0.930 . S
C1033 C1031 1.419 . S
C1033 C1034 1.362 . S
C1034 H1026 0.930 . S
C1034 C1033 1.362 . S
C1034 C1037 1.409 . S
C1035 H1027 0.930 . S
C1035 C1036 1.355 . S
C1035 C1037 1.415 . S
C1036 C1035 1.355 . S
C1036 C1038 1.419 . S
C1037 C1032 1.425 . S
C1037 C1034 1.409 . S
C1037 C1035 1.415 . S
C1038 H1028 0.930 . S
C1038 C1036 1.419 . S
C1038 C1039 1.362 . S
C1039 H1029 0.930 . S
C1039 C1032 1.409 . S
C1039 C1038 1.362 . S
H1040 C1046 0.930 1_554 S
H1041 C1049 0.930 . S
H1042 C1050 0.930 . S
H1043 C1051 0.930 1_556 S
H1044 C1054 0.930 . S
H1045 C1055 0.930 . S
C1046 H1040 0.930 1_556 S
C1046 C1047 1.355 . S
C1046 C1048 1.415 1_556 S
C1047 C1046 1.355 . S
C1047 C1049 1.419 . S
C1048 C1046 1.415 1_554 S
C1048 C1053 1.425 1_554 S
C1048 C1055 1.409 . S
C1049 H1041 0.930 . S
C1049 C1047 1.419 . S
C1049 C1050 1.362 . S
C1050 H1042 0.930 . S
C1050 C1049 1.362 . S
C1050 C1053 1.409 . S
C1051 H1043 0.930 1_554 S
C1051 C1052 1.355 . S
C1051 C1053 1.415 1_554 S
C1052 C1051 1.355 . S
C1052 C1054 1.419 . S
C1053 C1048 1.425 1_556 S
C1053 C1050 1.409 . S
C1053 C1051 1.415 1_556 S
C1054 H1044 0.930 . S
C1054 C1052 1.419 . S
C1054 C1055 1.362 . S
C1055 H1045 0.930 . S
C1055 C1048 1.409 . S
C1055 C1054 1.362 . S
H1056 C1062 0.930 . S
H1057 C1065 0.930 . S
H1058 C1066 0.930 . S
H1059 C1067 0.930 . S
H1060 C1070 0.930 . S
H1061 C1071 0.930 . S
C1062 H1056 0.930 . S
C1062 C1063 1.355 . S
C1062 C1064 1.415 . S
C1063 C1062 1.355 . S
C1063 C1065 1.419 . S
C1064 C1062 1.415 . S
C1064 C1069 1.425 . S
C1064 C1071 1.409 . S
C1065 H1057 0.930 . S
C1065 C1063 1.419 . S
C1065 C1066 1.362 . S
C1066 H1058 0.930 . S
C1066 C1065 1.362 . S
C1066 C1069 1.409 . S
C1067 H1059 0.930 . S
C1067 C1068 1.355 . S
C1067 C1069 1.415 . S
C1068 C1067 1.355 . S
C1068 C1070 1.419 . S
C1069 C1064 1.425 . S
C1069 C1066 1.409 . S
C1069 C1067 1.415 . S
C1070 H1060 0.930 . S
C1070 C1068 1.419 . S
C1070 C1071 1.362 . S
C1071 H1061 0.930 . S
C1071 C1064 1.409 . S
C1071 C1070 1.362 . S
H1072 C1078 0.930 . S
H1073 C1081 0.930 . S
H1074 C1082 0.930 . S
H1075 C1083 0.930 . S
H1076 C1086 0.930 . S
H1077 C1087 0.930 . S
C1078 H1072 0.930 . S
C1078 C1079 1.355 . S
C1078 C1080 1.415 . S
C1079 C1078 1.355 . S
C1079 C1081 1.419 1_556 S
C1080 C1078 1.415 . S
C1080 C1085 1.425 1_556 S
C1080 C1087 1.409 . S
C1081 H1073 0.930 . S
C1081 C1079 1.419 1_554 S
C1081 C1082 1.362 . S
C1082 H1074 0.930 . S
C1082 C1081 1.362 . S
C1082 C1085 1.409 . S
C1083 H1075 0.930 . S
C1083 C1084 1.355 . S
C1083 C1085 1.415 . S
C1084 C1083 1.355 . S
C1084 C1086 1.419 1_554 S
C1085 C1080 1.425 1_554 S
C1085 C1082 1.409 . S
C1085 C1083 1.415 . S
C1086 H1076 0.930 . S
C1086 C1084 1.419 1_556 S
C1086 C1087 1.362 . S
C1087 H1077 0.930 . S
C1087 C1080 1.409 . S
C1087 C1086 1.362 . S
H1088 C1094 0.930 . S
H1089 C1097 0.930 . S
H1090 C1098 0.930 . S
H1091 C1099 0.930 . S
H1092 C1102 0.930 . S
H1093 C1103 0.930 . S
C1094 H1088 0.930 . S
C1094 C1095 1.355 . S
C1094 C1096 1.415 . S
C1095 C1094 1.355 . S
C1095 C1097 1.419 . S
C1096 C1094 1.415 . S
C1096 C1101 1.425 . S
C1096 C1103 1.409 . S
C1097 H1089 0.930 . S
C1097 C1095 1.419 . S
C1097 C1098 1.362 . S
C1098 H1090 0.930 . S
C1098 C1097 1.362 . S
C1098 C1101 1.409 . S
C1099 H1091 0.930 . S
C1099 C1100 1.355 . S
C1099 C1101 1.415 . S
C1100 C1099 1.355 . S
C1100 C1102 1.419 . S
C1101 C1096 1.425 . S
C1101 C1098 1.409 . S
C1101 C1099 1.415 . S
C1102 H1092 0.930 . S
C1102 C1100 1.419 . S
C1102 C1103 1.362 . S
C1103 H1093 0.930 . S
C1103 C1096 1.409 . S
C1103 C1102 1.362 . S
C343 C3 0.882 . S
C348 C79 1.057 . S
C359 C58 1.025 . S
C364 C37 0.929 . S
C375 C163 1.054 . S
C380 C100 0.858 . S
C391 C108 0.927 . S
C396 C142 1.027 . S
C407 C247 0.988 . S
C412 C171 0.971 . S
C423 C226 0.974 . S
C428 C205 0.986 . S
C439 C255 0.997 . S
C444 C318 0.962 . S
C455 C310 0.965 . S
C460 C289 0.938 . S
C471 C19 1.508 . S
C476 C319 1.333 . S
C487 C41 1.553 . S
C492 C301 1.427 . S
C503 C280 1.426 . S
C508 C62 1.552 . S
C519 C256 1.352 . S
C524 C83 1.560 . S
C535 C104 1.545 . S
C540 C238 1.418 . S
C551 C124 1.574 . S
C556 C217 1.383 . S
C567 C196 1.319 . S
C572 C146 1.508 . S
C583 C172 1.440 . S
C588 C167 1.572 . S
C599 C187 1.583 . S
C604 C154 1.420 . S
C615 C209 1.558 . S
C620 C133 1.432 . S
C631 C230 1.576 . S
C636 C109 1.389 . S
C647 C251 1.513 . S
C652 C91 1.308 . S
C663 C70 1.438 . S
C668 C271 1.579 . S
C679 C49 1.439 . S
C684 C293 1.575 . S
C695 C314 1.531 . S
C700 C28 1.397 . S
C711 C334 1.528 . S
C716 C4 1.391 . S
C727 C16 1.278 . S
C732 C129 1.353 . S
C743 C24 1.287 . S
C748 C150 1.344 . S
C759 C87 1.353 . S
C764 C45 1.278 . S
C775 C66 1.369 . S
C780 C121 1.261 . S
C791 C184 1.369 . S
C796 C297 1.261 . S
C807 C192 1.312 . S
C812 C331 1.320 . S
C823 C213 1.321 . S
C828 C268 1.311 . S
C839 C276 1.300 . S
C844 C234 1.332 . S
C855 C7 1.266 . S
C860 C46 1.358 . S
C871 C25 1.267 . S
C876 C67 1.358 . S
C887 C130 1.293 . S
C892 C88 1.351 . S
C903 C112 1.310 . S
C908 C151 1.244 . S
C919 C175 1.238 . S
C924 C214 1.333 . S
C935 C235 1.243 . S
C940 C193 1.314 . S
C951 C259 1.326 . S
C956 C298 1.239 . S
C967 C277 1.240 . S
C972 C322 1.323 . S
C983 C20 0.790 . S
C988 C272 0.790 . S
C999 C40 0.866 . S
C1004 C292 0.866 . S
C1015 C61 0.810 . S
C1020 C313 0.810 . S
C1031 C82 0.870 . S
C1036 C335 0.870 . S
C1047 C103 0.785 . S
C1052 C188 0.785 . S
C1063 C208 0.776 . S
C1068 C125 0.776 . S
C1079 C229 0.937 . S
C1084 C145 0.937 . S
C1095 C250 0.858 . S
C1100 C166 0.858 . S
