# Generated by pormake.
# Topology wjh, (4)-cn, num edge types: 1
# Building blocks:
#     Node 0, Type 0, BuildingBlock: TATPOV_clean_sbu_0, # of connection points: 4
#     Node 1, Type 0, BuildingBlock: TATPOV_clean_sbu_0, # of connection points: 4
#     Node 2, Type 0, BuildingBlock: TATPOV_clean_sbu_0, # of connection points: 4
#     Node 3, Type 0, BuildingBlock: TATPOV_clean_sbu_0, # of connection points: 4
#     Node 4, Type 0, BuildingBlock: TATPOV_clean_sbu_0, # of connection points: 4
#     Node 5, Type 0, BuildingBlock: TATPOV_clean_sbu_0, # of connection points: 4
#     Node 6, Type 0, BuildingBlock: TATPOV_clean_sbu_0, # of connection points: 4
#     Node 7, Type 0, BuildingBlock: TATPOV_clean_sbu_0, # of connection points: 4
#     Node 8, Type 0, BuildingBlock: TATPOV_clean_sbu_0, # of connection points: 4
#     Node 9, Type 0, BuildingBlock: TATPOV_clean_sbu_0, # of connection points: 4
#     Node 10, Type 0, BuildingBlock: TATPOV_clean_sbu_0, # of connection points: 4
#     Node 11, Type 0, BuildingBlock: TATPOV_clean_sbu_0, # of connection points: 4
#     Edge 12, Type (0, 0), BuildingBlock: CIFDUS_clean_linker_0, # of connection points: 2
#     Edge 13, Type (0, 0), BuildingBlock: CIFDUS_clean_linker_0, # of connection points: 2
#     Edge 14, Type (0, 0), BuildingBlock: CIFDUS_clean_linker_0, # of connection points: 2
#     Edge 15, Type (0, 0), BuildingBlock: CIFDUS_clean_linker_0, # of connection points: 2
#     Edge 16, Type (0, 0), BuildingBlock: CIFDUS_clean_linker_0, # of connection points: 2
#     Edge 17, Type (0, 0), BuildingBlock: CIFDUS_clean_linker_0, # of connection points: 2
#     Edge 18, Type (0, 0), BuildingBlock: CIFDUS_clean_linker_0, # of connection points: 2
#     Edge 19, Type (0, 0), BuildingBlock: CIFDUS_clean_linker_0, # of connection points: 2
#     Edge 20, Type (0, 0), BuildingBlock: CIFDUS_clean_linker_0, # of connection points: 2
#     Edge 21, Type (0, 0), BuildingBlock: CIFDUS_clean_linker_0, # of connection points: 2
#     Edge 22, Type (0, 0), BuildingBlock: CIFDUS_clean_linker_0, # of connection points: 2
#     Edge 23, Type (0, 0), BuildingBlock: CIFDUS_clean_linker_0, # of connection points: 2
#     Edge 24, Type (0, 0), BuildingBlock: CIFDUS_clean_linker_0, # of connection points: 2
#     Edge 25, Type (0, 0), BuildingBlock: CIFDUS_clean_linker_0, # of connection points: 2
#     Edge 26, Type (0, 0), BuildingBlock: CIFDUS_clean_linker_0, # of connection points: 2
#     Edge 27, Type (0, 0), BuildingBlock: CIFDUS_clean_linker_0, # of connection points: 2
#     Edge 28, Type (0, 0), BuildingBlock: CIFDUS_clean_linker_0, # of connection points: 2
#     Edge 29, Type (0, 0), BuildingBlock: CIFDUS_clean_linker_0, # of connection points: 2
#     Edge 30, Type (0, 0), BuildingBlock: CIFDUS_clean_linker_0, # of connection points: 2
#     Edge 31, Type (0, 0), BuildingBlock: CIFDUS_clean_linker_0, # of connection points: 2
#     Edge 32, Type (0, 0), BuildingBlock: CIFDUS_clean_linker_0, # of connection points: 2
#     Edge 33, Type (0, 0), BuildingBlock: CIFDUS_clean_linker_0, # of connection points: 2
#     Edge 34, Type (0, 0), BuildingBlock: CIFDUS_clean_linker_0, # of connection points: 2
#     Edge 35, Type (0, 0), BuildingBlock: CIFDUS_clean_linker_0, # of connection points: 2
# Relax obj value: 0.161
# Max RMSD: 0.152
# Mean RMSD: 0.152
data_MOF--net-wjh--node1-TATPOV_clean_sbu_0--edge1-CIFDUS_clean_linker_0
_symmetry_space_group_name_H-M    P1
_symmetry_Int_Tables_number       1
_symmetry_cell_setting            triclinic
loop_
_symmetry_equiv_pos_as_xyz
'x, y, z'
_cell_length_a     54.183603
_cell_length_b     54.428282
_cell_length_c     21.569952
_cell_angle_alpha  90.126589
_cell_angle_beta   89.855917
_cell_angle_gamma 120.08655
loop_
_atom_site_label
_atom_site_type_symbol
_atom_site_fract_x
_atom_site_fract_y
_atom_site_fract_z
_atom_type_partial_charge
Zn0 Zn 0.48423 0.12883 0.11766 0.0
Zn1 Zn 0.50666 0.1251 0.01803 0.0
O2 O 0.51565 0.1676 0.02081 0.0
O3 O 0.50028 0.16988 0.11411 0.0
O4 O 0.52278 0.12021 0.93524 0.0
O5 O 0.44404 0.10201 0.09681 0.0
O6 O 0.46401 0.09191 0.01959 0.0
C7 C 0.51303 0.18201 0.06473 0.0
C8 C 0.52506 0.11286 0.14149 0.0
O9 O 0.52955 0.11734 0.08346 0.0
O10 O 0.50521 0.11491 0.16726 0.0
C11 C 0.54955 0.13104 0.92648 0.0
O12 O 0.56711 0.14663 0.97071 0.0
C13 C 0.44196 0.08597 0.05233 0.0
Zn14 Zn 0.31476 0.40874 0.33313 0.0
Zn15 Zn 0.33906 0.45334 0.25413 0.0
O16 O 0.29805 0.44589 0.26942 0.0
O17 O 0.27771 0.40797 0.32918 0.0
O18 O 0.35744 0.48339 0.1855 0.0
O19 O 0.32397 0.38362 0.28179 0.0
O20 O 0.34839 0.42273 0.22734 0.0
C21 C 0.27671 0.42789 0.30136 0.0
C22 C 0.36048 0.4614 0.38552 0.0
O23 O 0.36141 0.47164 0.33191 0.0
O24 O 0.3432 0.43544 0.39698 0.0
C25 C 0.35048 0.47706 0.12882 0.0
O26 O 0.33004 0.45124 0.11523 0.0
C27 C 0.34161 0.39719 0.23919 0.0
Zn28 Zn 0.84155 0.31848 0.43373 0.0
Zn29 Zn 0.83067 0.32851 0.33105 0.0
O30 O 0.80969 0.28375 0.33597 0.0
O31 O 0.83189 0.27934 0.4167 0.0
O32 O 0.824 0.34109 0.24574 0.0
O33 O 0.88194 0.34856 0.43762 0.0
O34 O 0.87527 0.34986 0.33759 0.0
C35 C 0.81397 0.26803 0.37352 0.0
C36 C 0.80454 0.3384 0.44762 0.0
O37 O 0.81184 0.34424 0.3909 0.0
O38 O 0.81256 0.3238 0.47773 0.0
C39 C 0.83252 0.36756 0.2414 0.0
O40 O 0.84438 0.38369 0.29025 0.0
C41 C 0.89201 0.35749 0.38429 0.0
Zn42 Zn 0.45732 0.84364 0.74943 0.0
Zn43 Zn 0.43008 0.84432 0.65249 0.0
O44 O 0.42308 0.80279 0.65535 0.0
O45 O 0.44244 0.80252 0.74486 0.0
O46 O 0.4101 0.84663 0.57287 0.0
O47 O 0.4957 0.87147 0.71978 0.0
O48 O 0.47276 0.87563 0.63979 0.0
C49 C 0.42853 0.78953 0.69714 0.0
C50 C 0.41793 0.86001 0.78204 0.0
O51 O 0.41072 0.85421 0.72513 0.0
O52 O 0.43843 0.85789 0.80338 0.0
C53 C 0.42198 0.84905 0.52036 0.0
O54 O 0.44629 0.84919 0.51876 0.0
C55 C 0.49589 0.88341 0.66959 0.0
Zn56 Zn 0.68685 0.5881 0.7555 0.0
Zn57 Zn 0.65977 0.55126 0.66647 0.0
O58 O 0.70228 0.5612 0.6656 0.0
O59 O 0.72545 0.59626 0.73197 0.0
O60 O 0.64094 0.52467 0.59111 0.0
O61 O 0.67062 0.61255 0.73579 0.0
O62 O 0.64779 0.58216 0.66027 0.0
C63 C 0.72532 0.57869 0.69344 0.0
C64 C 0.64686 0.53273 0.80095 0.0
O65 O 0.64095 0.52686 0.74365 0.0
O66 O 0.66612 0.55724 0.81747 0.0
C67 C 0.61426 0.50683 0.59243 0.0
O68 O 0.59968 0.50632 0.64166 0.0
C69 C 0.65293 0.60417 0.69172 0.0
Zn70 Zn 0.09413 0.63006 0.0507 0.0
Zn71 Zn 0.11767 0.61811 0.96202 0.0
O72 O 0.13972 0.66255 0.96713 0.0
O73 O 0.11167 0.67049 0.02758 0.0
O74 O 0.13181 0.60561 0.88626 0.0
O75 O 0.05407 0.60246 0.03 0.0
O76 O 0.07381 0.59661 0.94636 0.0
C77 C 0.1339 0.67991 0.99466 0.0
C78 C 0.12775 0.60731 0.09479 0.0
O79 O 0.12931 0.60288 0.03717 0.0
O80 O 0.11468 0.61987 0.11251 0.0
C81 C 0.12116 0.6045 0.83297 0.0
O82 O 0.10339 0.61414 0.82695 0.0
C83 C 0.05158 0.59116 0.97752 0.0
Zn84 Zn 0.86225 0.49971 0.71636 0.0
Zn85 Zn 0.84017 0.47402 0.82306 0.0
O86 O 0.82385 0.50143 0.81542 0.0
O87 O 0.846 0.52471 0.73034 0.0
O88 O 0.82862 0.45292 0.90637 0.0
O89 O 0.90251 0.51185 0.73749 0.0
O90 O 0.88418 0.49426 0.8289 0.0
C91 C 0.82882 0.52032 0.77435 0.0
C92 C 0.82146 0.44169 0.69977 0.0
O93 O 0.82104 0.4416 0.75888 0.0
O94 O 0.83773 0.46423 0.67052 0.0
C95 C 0.84067 0.466 0.95618 0.0
O96 O 0.8581 0.49358 0.95372 0.0
C97 C 0.90582 0.50736 0.79344 0.0
Zn98 Zn 0.27032 0.88675 0.07219 0.0
Zn99 Zn 0.30002 0.87535 0.14665 0.0
O100 O 0.25843 0.84151 0.13604 0.0
O101 O 0.23122 0.85641 0.09484 0.0
O102 O 0.31615 0.86748 0.22627 0.0
O103 O 0.28507 0.92738 0.09305 0.0
O104 O 0.31425 0.91865 0.14672 0.0
C105 C 0.234 0.83655 0.11736 0.0
C106 C 0.31212 0.87254 1.0166 0.0
O107 O 0.31967 0.87136 0.07194 0.0
O108 O 0.29199 0.87754 1.00606 0.0
C109 C 0.34054 0.86934 0.22991 0.0
O110 O 0.35662 0.87633 0.18003 0.0
C111 C 0.30727 0.9362 0.12549 0.0
Zn112 Zn 0.49596 0.35732 0.07342 0.0
Zn113 Zn 0.53367 0.38735 0.16049 0.0
O114 O 0.53624 0.35022 0.15543 0.0
O115 O 0.50747 0.32832 0.07671 0.0
O116 O 0.55969 0.41198 0.23247 0.0
O117 O 0.46215 0.35331 0.1184 0.0
O118 O 0.49464 0.38346 0.18296 0.0
C119 C 0.52525 0.32975 0.11637 0.0
C120 C 0.54042 0.40935 0.02696 0.0
O121 O 0.55053 0.41156 0.08147 0.0
O122 O 0.51625 0.38859 1.0131 0.0
C123 C 0.54959 0.40976 0.28706 0.0
O124 O 0.5229 0.3903 0.29734 0.0
C125 C 0.46875 0.36956 0.16484 0.0
Zn126 Zn 0.11187 0.44679 0.36176 0.0
Zn127 Zn 0.12272 0.48048 0.44943 0.0
O128 O 0.15047 0.46429 0.45471 0.0
O129 O 0.1274 0.42464 0.40174 0.0
O130 O 0.1295 0.50634 0.52492 0.0
O131 O 0.07047 0.43199 0.36018 0.0
O132 O 0.07839 0.45347 0.45038 0.0
C133 C 0.14816 0.44098 0.43566 0.0
C134 C 0.14109 0.503 0.31957 0.0
O135 O 0.1349 0.50704 0.37435 0.0
O136 O 0.13622 0.47859 0.30358 0.0
C137 C 0.11709 0.52096 0.52203 0.0
O138 O 0.10229 0.51867 0.47199 0.0
C139 C 0.06103 0.43739 0.40873 0.0
Zn140 Zn 0.64917 0.06176 0.42498 0.0
Zn141 Zn 0.63397 0.0822 0.5265 0.0
O142 O 0.67672 0.11131 0.51186 0.0
O143 O 0.68889 0.0943 0.43154 0.0
O144 O 0.62021 0.09445 0.60356 0.0
O145 O 0.63473 0.02385 0.46471 0.0
O146 O 0.62147 0.04043 0.54359 0.0
C147 C 0.6951 0.11349 0.47169 0.0
C148 C 0.60811 0.07904 0.39912 0.0
O149 O 0.61051 0.08526 0.4566 0.0
O150 O 0.62204 0.06845 0.37515 0.0
C151 C 0.63625 0.11122 0.64577 0.0
O152 O 0.66398 0.12209 0.64084 0.0
C153 C 0.6224 0.02003 0.51657 0.0
Zn154 Zn 0.49078 0.64572 0.65505 0.0
Zn155 Zn 0.46402 0.61165 0.74467 0.0
O156 O 0.45159 0.64251 0.74722 0.0
O157 O 0.47336 0.66945 0.6663 0.0
O158 O 0.44375 0.58626 0.82035 0.0
O159 O 0.52952 0.65664 0.68296 0.0
O160 O 0.50717 0.62377 0.75423 0.0
C161 C 0.45625 0.66303 0.71122 0.0
C162 C 0.45461 0.59027 0.61081 0.0
O163 O 0.44769 0.58523 0.66796 0.0
O164 O 0.47327 0.61487 0.59374 0.0
C165 C 0.41782 0.56648 0.81601 0.0
O166 O 0.40465 0.5628 0.7628 0.0
C167 C 0.53018 0.64143 0.72631 0.0
H168 H 0.52486 0.11032 0.26607 0.0
H169 H 0.56525 0.09942 0.1037 0.0
H170 H 0.59412 0.08714 0.16992 0.0
H171 H 0.60778 0.07993 0.27366 0.0
H172 H 0.56786 0.09218 0.43529 0.0
H173 H 0.53854 0.10348 0.36884 0.0
C174 C 0.5399 0.10519 0.2449 0.0
C175 C 0.54288 0.10566 0.18008 0.0
C176 C 0.55637 0.09839 0.28296 0.0
C177 C 0.56263 0.0992 0.15354 0.0
C178 C 0.57906 0.09215 0.1913 0.0
C179 C 0.59255 0.08491 0.29438 0.0
C180 C 0.58988 0.08513 0.35925 0.0
C181 C 0.57606 0.09169 0.25604 0.0
C182 C 0.57029 0.0919 0.38547 0.0
C183 C 0.55355 0.09835 0.34757 0.0
H184 H 0.4048 0.51462 0.37339 0.0
H185 H 0.35537 0.45095 0.51047 0.0
H186 H 0.38094 0.48497 0.59351 0.0
H187 H 0.41517 0.53401 0.62657 0.0
H188 H 0.46383 0.59687 0.48685 0.0
H189 H 0.4406 0.56191 0.40577 0.0
C190 C 0.39972 0.50808 0.42143 0.0
C191 C 0.37807 0.48048 0.43575 0.0
C192 C 0.41419 0.52768 0.46859 0.0
C193 C 0.37199 0.47218 0.49823 0.0
C194 C 0.38648 0.49165 0.54573 0.0
C195 C 0.42073 0.53996 0.5784 0.0
C196 C 0.44097 0.56808 0.56297 0.0
C197 C 0.40724 0.51966 0.5314 0.0
C198 C 0.44817 0.57544 0.5003 0.0
C199 C 0.43493 0.55546 0.45365 0.0
H200 H 0.8055 0.43788 0.58056 0.0
H201 H 0.79995 0.38675 0.73838 0.0
H202 H 0.78471 0.34553 0.67063 0.0
H203 H 0.78544 0.3286 0.56597 0.0
H204 H 0.79731 0.38218 0.40823 0.0
H205 H 0.79633 0.4175 0.47643 0.0
C206 C 0.80036 0.41753 0.60029 0.0
C207 C 0.80483 0.41545 0.66379 0.0
C208 C 0.7929 0.39447 0.5609 0.0
C209 C 0.79717 0.38889 0.68935 0.0
C210 C 0.7886 0.36541 0.65059 0.0
C211 C 0.787 0.34765 0.54626 0.0
C212 C 0.79267 0.3534 0.48258 0.0
C213 C 0.78828 0.36856 0.58604 0.0
C214 C 0.79359 0.37759 0.45731 0.0
C215 C 0.79333 0.39792 0.49638 0.0
H216 H 0.36289 0.84933 0.77452 0.0
H217 H 0.43857 0.88918 0.88844 0.0
H218 H 0.41237 0.89646 0.97079 0.0
H219 H 0.36759 0.88862 1.01395 0.0
H220 H 0.29163 0.85066 0.90172 0.0
H221 H 0.31819 0.84539 0.81538 0.0
C222 C 0.37365 0.86003 0.81695 0.0
C223 C 0.40245 0.86826 0.82575 0.0
C224 C 0.35836 0.86407 0.86483 0.0
C225 C 0.41624 0.8822 0.8809 0.0
C226 C 0.40132 0.88636 0.9282 0.0
C227 C 0.35686 0.87911 0.97061 0.0
C228 C 0.32776 0.86956 0.96423 0.0
C229 C 0.37227 0.87671 0.92131 0.0
C230 C 0.31412 0.85795 0.90752 0.0
C231 C 0.32927 0.85499 0.85825 0.0
H232 H 0.59233 0.45722 0.03797 0.0
H233 H 0.52574 0.40781 0.90578 0.0
H234 H 0.55329 0.44087 0.8237 0.0
H235 H 0.59604 0.48403 0.78915 0.0
H236 H 0.66217 0.53414 0.92146 0.0
H237 H 0.63512 0.50048 1.00339 0.0
C238 C 0.58383 0.45373 0.99126 0.0
C239 C 0.55704 0.43013 0.97822 0.0
C240 C 0.59973 0.47286 0.94406 0.0
C241 C 0.54631 0.42588 0.91733 0.0
C242 C 0.56206 0.44472 0.87015 0.0
C243 C 0.60459 0.48745 0.83582 0.0
C244 C 0.63099 0.51147 0.84921 0.0
C245 C 0.58879 0.46827 0.88296 0.0
C246 C 0.64176 0.5158 0.91 0.0
C247 C 0.62634 0.4966 0.95694 0.0
H248 H 0.14722 0.55526 0.33345 0.0
H249 H 0.15322 0.50009 0.1976 0.0
H250 H 0.15425 0.53077 0.11431 0.0
H251 H 0.1445 0.5681 0.07999 0.0
H252 H 0.13635 0.62171 0.21667 0.0
H253 H 0.14544 0.59701 0.29939 0.0
C254 C 0.14942 0.55028 0.28575 0.0
C255 C 0.14933 0.52507 0.27168 0.0
C256 C 0.14916 0.5675 0.238 0.0
C257 C 0.15271 0.51916 0.20967 0.0
C258 C 0.15318 0.53662 0.16189 0.0
C259 C 0.14534 0.57475 0.12775 0.0
C260 C 0.13899 0.59612 0.1423 0.0
C261 C 0.14996 0.56004 0.17542 0.0
C262 C 0.1405 0.6048 0.20435 0.0
C263 C 0.14573 0.59074 0.25178 0.0
H264 H 0.52675 0.30109 1.01623 0.0
H265 H 0.5396 0.3073 0.21424 0.0
H266 H 0.54148 0.26319 0.21318 0.0
H267 H 0.53193 0.21978 0.15814 0.0
H268 H 0.51737 0.21281 0.9607 0.0
H269 H 0.52428 0.26092 0.95887 0.0
C270 C 0.53039 0.29299 0.05907 0.0
C271 C 0.53241 0.30695 0.11555 0.0
C272 C 0.53095 0.26757 0.05804 0.0
C273 C 0.53781 0.29676 0.17044 0.0
C274 C 0.5387 0.27151 0.16978 0.0
C275 C 0.53076 0.22901 0.11448 0.0
C276 C 0.52358 0.2127 0.05971 0.0
C277 C 0.53415 0.25624 0.11422 0.0
C278 C 0.52274 0.22498 1.00332 0.0
C279 C 0.52646 0.25233 1.00246 0.0
H280 H 0.23118 0.39623 0.37602 0.0
H281 H 0.2704 0.47273 0.26563 0.0
H282 H 0.23663 0.48588 0.3073 0.0
H283 H 0.19573 0.4754 0.37418 0.0
H284 H 0.15461 0.39758 0.47868 0.0
H285 H 0.19039 0.38576 0.44261 0.0
C286 C 0.23223 0.41566 0.36041 0.0
C287 C 0.2533 0.4334 0.3174 0.0
C288 C 0.21309 0.42331 0.38528 0.0
C289 C 0.25427 0.45852 0.29808 0.0
C290 C 0.23522 0.46625 0.32254 0.0
C291 C 0.19533 0.45638 0.39075 0.0
C292 C 0.17339 0.43784 0.43081 0.0
C293 C 0.2148 0.44898 0.36669 0.0
C294 C 0.172 0.41254 0.44962 0.0
C295 C 0.19208 0.40558 0.42801 0.0
H296 H 0.7164 0.13986 0.36334 0.0
H297 H 0.73156 0.1487 0.56049 0.0
H298 H 0.77254 0.19646 0.54474 0.0
H299 H 0.80082 0.23641 0.47649 0.0
H300 H 0.78166 0.23064 0.28104 0.0
H301 H 0.7452 0.1804 0.29424 0.0
C302 C 0.72908 0.15211 0.40268 0.0
C303 C 0.72146 0.14083 0.46299 0.0
C304 C 0.75152 0.17992 0.39342 0.0
C305 C 0.73733 0.15701 0.51383 0.0
C306 C 0.7606 0.18423 0.50474 0.0
C307 C 0.78909 0.22412 0.43629 0.0
C308 C 0.79416 0.23711 0.37753 0.0
C309 C 0.76747 0.196 0.44492 0.0
C310 C 0.77824 0.22103 0.32649 0.0
C311 C 0.75741 0.19242 0.33418 0.0
H312 H 0.42126 0.75201 0.78676 0.0
H313 H 0.42294 0.76156 0.58799 0.0
H314 H 0.42744 0.71928 0.57524 0.0
H315 H 0.43999 0.68584 0.62125 0.0
H316 H 0.44043 0.67746 0.81996 0.0
H317 H 0.42574 0.71313 0.83244 0.0
C318 C 0.42192 0.74441 0.74058 0.0
C319 C 0.42241 0.76014 0.68832 0.0
C320 C 0.42541 0.72074 0.73385 0.0
C321 C 0.42266 0.74985 0.6288 0.0
C322 C 0.42555 0.72589 0.6216 0.0
C323 C 0.43642 0.69152 0.6673 0.0
C324 C 0.44193 0.67972 0.71979 0.0
C325 C 0.42842 0.71216 0.67386 0.0
C326 C 0.43655 0.68655 0.77908 0.0
C327 C 0.42829 0.70698 0.7861 0.0
H328 H 0.7507 0.57507 0.79618 0.0
H329 H 0.75081 0.56678 0.59734 0.0
H330 H 0.78529 0.55019 0.60599 0.0
H331 H 0.81207 0.53478 0.67061 0.0
H332 H 0.8068 0.53688 0.87001 0.0
H333 H 0.7772 0.55917 0.861 0.0
C334 C 0.75883 0.57026 0.75465 0.0
C335 C 0.74892 0.57273 0.69598 0.0
C336 C 0.7772 0.55928 0.76041 0.0
C337 C 0.75862 0.56544 0.64267 0.0
C338 C 0.77809 0.55581 0.64777 0.0
C339 C 0.80475 0.54045 0.71221 0.0
C340 C 0.8118 0.53455 0.77104 0.0
C341 C 0.78704 0.55217 0.70647 0.0
C342 C 0.80164 0.54131 0.82443 0.0
C343 C 0.78482 0.55406 0.81917 0.0
H344 H 0.12585 0.72166 0.04113 0.0
H345 H 0.19096 0.70612 0.96739 0.0
H346 H 0.22789 0.75263 1.00471 0.0
H347 H 0.24163 0.79634 0.06382 0.0
H348 H 0.17661 0.81259 0.13402 0.0
H349 H 0.13945 0.76639 0.09473 0.0
C350 C 0.14811 0.72858 0.03224 0.0
C351 C 0.1556 0.71031 1.00172 0.0
C352 C 0.16916 0.75495 0.05522 0.0
C353 C 0.18454 0.71978 0.99026 0.0
C354 C 0.20569 0.74619 1.0125 0.0
C355 C 0.21929 0.78941 0.07172 0.0
C356 C 0.21169 0.80723 0.10361 0.0
C357 C 0.19823 0.76354 0.04655 0.0
C358 C 0.18279 0.79875 0.1111 0.0
C359 C 0.16165 0.7726 0.08793 0.0
H360 H 0.57981 0.09177 0.67354 0.0
H361 H 0.66515 0.1466 0.74198 0.0
H362 H 0.64599 0.15788 0.83301 0.0
H363 H 0.60525 0.15177 0.89472 0.0
H364 H 0.51968 0.09706 0.82783 0.0
H365 H 0.53869 0.08632 0.73509 0.0
C366 C 0.59424 0.10623 0.70828 0.0
C367 C 0.62398 0.11821 0.70058 0.0
C368 C 0.58303 0.11269 0.76108 0.0
C369 C 0.64223 0.13695 0.74633 0.0
C370 C 0.63128 0.14346 0.79863 0.0
C371 C 0.59066 0.13754 0.85987 0.0
C372 C 0.56099 0.12525 0.86863 0.0
C373 C 0.60174 0.13138 0.80668 0.0
C374 C 0.54258 0.1069 0.82258 0.0
C375 C 0.55346 0.10069 0.76945 0.0
H376 H 0.43247 0.57342 0.93982 0.0
H377 H 0.368 0.5162 0.8117 0.0
H378 H 0.34166 0.48416 0.89637 0.0
H379 H 0.33667 0.47178 1.00645 0.0
H380 H 0.39981 0.52889 0.13668 0.0
H381 H 0.42661 0.56143 0.05204 0.0
C382 C 0.4127 0.55391 0.93047 0.0
C383 C 0.40238 0.54731 0.86912 0.0
C384 C 0.39725 0.5355 0.97993 0.0
C385 C 0.37654 0.52199 0.85819 0.0
C386 C 0.36138 0.50355 0.9067 0.0
C387 C 0.35626 0.49137 1.01655 0.0
C388 C 0.36616 0.49774 0.07808 0.0
C389 C 0.37149 0.51004 0.96771 0.0
C390 C 0.39156 0.52338 0.08993 0.0
C391 C 0.40698 0.542 0.04141 0.0
H392 H 0.81946 0.40868 0.97364 0.0
H393 H 0.85577 0.48854 0.0717 0.0
H394 H 0.85555 0.46499 0.16769 0.0
H395 H 0.84725 0.42256 0.22337 0.0
H396 H 0.81191 0.34233 0.12751 0.0
H397 H 0.80954 0.36514 0.03149 0.0
C398 C 0.827 0.42085 1.01617 0.0
C399 C 0.83764 0.45045 1.01513 0.0
C400 C 0.82722 0.40715 0.07166 0.0
C401 C 0.84754 0.46584 0.07077 0.0
C402 C 0.84747 0.45238 0.12587 0.0
C403 C 0.83892 0.40991 0.18164 0.0
C404 C 0.8299 0.3807 0.1829 0.0
C405 C 0.83776 0.42317 0.12672 0.0
C406 C 0.81908 0.36482 0.1281 0.0
C407 C 0.81772 0.37789 0.07309 0.0
H408 H 0.37103 0.84825 0.50256 0.0
H409 H 0.44506 0.85797 0.40475 0.0
H410 H 0.4265 0.8648 0.30783 0.0
H411 H 0.3898 0.86861 0.24989 0.0
H412 H 0.31521 0.85858 0.34514 0.0
H413 H 0.33336 0.85127 0.44314 0.0
C414 C 0.38307 0.85181 0.46004 0.0
C415 C 0.40953 0.85259 0.46153 0.0
C416 C 0.37218 0.85571 0.4036 0.0
C417 C 0.4247 0.85721 0.4056 0.0
C418 C 0.4141 0.86116 0.34981 0.0
C419 C 0.37741 0.8648 0.29197 0.0
C420 C 0.35113 0.86424 0.28974 0.0
C421 C 0.38794 0.86055 0.34818 0.0
C422 C 0.33548 0.85915 0.34511 0.0
C423 C 0.34588 0.85498 0.40135 0.0
H424 H 0.63513 0.50401 0.47675 0.0
H425 H 0.5594 0.4635 0.59086 0.0
H426 H 0.53357 0.43006 0.50816 0.0
H427 H 0.53162 0.41234 0.40333 0.0
H428 H 0.60611 0.45233 0.28599 0.0
H429 H 0.63306 0.48563 0.36968 0.0
C430 C 0.613 0.48783 0.48352 0.0
C431 C 0.59936 0.4865 0.54041 0.0
C432 C 0.59792 0.46844 0.43504 0.0
C433 C 0.5706 0.46531 0.54793 0.0
C434 C 0.5557 0.44603 0.5005 0.0
C435 C 0.5538 0.42822 0.39582 0.0
C436 C 0.56672 0.42965 0.33811 0.0
C437 C 0.56905 0.44742 0.44386 0.0
C438 C 0.59552 0.4506 0.32974 0.0
C439 C 0.61096 0.46971 0.37769 0.0
H440 H 0.14226 0.52918 0.63748 0.0
H441 H 0.09357 0.55478 0.52367 0.0
H442 H 0.09191 0.58358 0.60785 0.0
H443 H 0.10227 0.60026 0.71479 0.0
H444 H 0.15059 0.57533 0.83112 0.0
H445 H 0.15459 0.54796 0.74522 0.0
C446 C 0.13145 0.54119 0.63103 0.0
C447 C 0.11793 0.53953 0.57401 0.0
C448 C 0.13045 0.55793 0.68025 0.0
C449 C 0.10407 0.55537 0.56677 0.0
C450 C 0.10308 0.57196 0.61505 0.0
C451 C 0.11389 0.58904 0.72149 0.0
C452 C 0.12602 0.58988 0.77967 0.0
C453 C 0.11591 0.5732 0.67213 0.0
C454 C 0.14104 0.57517 0.78697 0.0
C455 C 0.14325 0.55939 0.73782 0.0
H456 H 0.39197 0.06794 0.11409 0.0
H457 H 0.43355 0.04012 0.98355 0.0
H458 H 0.39536 -0.00897 0.99683 0.0
H459 H 0.35254 0.95573 0.05222 0.0
H460 H 0.31006 0.98298 0.18064 0.0
H461 H 0.34677 0.03286 0.16282 0.0
C462 C 0.39248 0.05123 0.08764 0.0
C463 C 0.41581 0.05773 0.04826 0.0
C464 C 0.37078 0.023 0.09656 0.0
C465 C 0.41591 0.0358 1.01403 0.0
C466 C 0.39425 0.00767 0.02217 0.0
C467 C 0.35158 0.9727 0.0766 0.0
C468 C 0.32941 0.96606 0.11903 0.0
C469 C 0.37214 0.00101 0.06471 0.0
C470 C 0.32748 -0.01212 0.14897 0.0
C471 C 0.34826 0.01624 0.13832 0.0
H472 H 0.41134 0.34028 0.14624 0.0
H473 H 0.47814 0.41308 0.24188 0.0
H474 H 0.44438 0.42838 0.27025 0.0
H475 H 0.39683 0.4227 0.26287 0.0
H476 H 0.32883 0.34882 0.1743 0.0
H477 H 0.36232 0.33238 0.14678 0.0
C478 C 0.41842 0.3593 0.17397 0.0
C479 C 0.44729 0.37568 0.19139 0.0
C480 C 0.3989 0.36803 0.19004 0.0
C481 C 0.45608 0.40008 0.22787 0.0
C482 C 0.43686 0.409 0.24365 0.0
C483 C 0.38951 0.40314 0.23693 0.0
C484 C 0.36088 0.3873 0.2187 0.0
C485 C 0.40847 0.3935 0.22376 0.0
C486 C 0.35106 0.3615 0.18733 0.0
C487 C 0.37011 0.35211 0.17215 0.0
H488 H 0.02226 0.41729 0.3165 0.0
H489 H 0.03019 0.43137 0.5143 0.0
H490 H 0.97827 0.40938 0.5232 0.0
H491 H 0.9309 0.38397 0.47527 0.0
H492 H 0.92326 0.3704 0.27722 0.0
H493 H 0.97522 0.39491 0.26778 0.0
C494 C 0.01267 0.41555 0.36168 0.0
C495 C 0.02996 0.4255 0.41491 0.0
C496 C -0.01698 0.40312 0.36625 0.0
C497 C 0.01729 0.42368 0.4728 0.0
C498 C -0.01234 0.41111 0.47784 0.0
C499 C 0.94058 0.38651 0.42991 0.0
C500 C 0.92325 0.37509 0.37703 0.0
C501 C 0.97035 0.40044 0.42495 0.0
C502 C 0.93611 0.37893 0.31858 0.0
C503 C 0.96579 0.39281 0.31323 0.0
H504 H 0.52134 0.89623 0.55631 0.0
H505 H 0.52954 0.9273 0.74345 0.0
H506 H 0.57204 0.9718 0.71469 0.0
H507 H 0.60417 0.00335 0.63414 0.0
H508 H 0.59812 0.97145 0.44819 0.0
H509 H 0.55817 0.92553 0.47896 0.0
C510 C 0.53267 0.91275 0.59055 0.0
C511 C 0.52235 0.90895 0.6514 0.0
C512 C 0.55757 0.93796 0.57412 0.0
C513 C 0.53725 0.93006 0.69612 0.0
C514 C 0.5615 0.95544 0.6798 0.0
C515 C 0.59451 0.98612 0.6008 0.0
C516 C 0.60382 -0.00915 0.53903 0.0
C517 C 0.57154 0.95981 0.61869 0.0
C518 C 0.59136 0.9683 0.49624 0.0
C519 C 0.56828 0.94212 0.51355 0.0
H520 H 0.62954 0.61726 0.78632 0.0
H521 H 0.63257 0.61593 0.58662 0.0
H522 H 0.597 0.63123 0.58117 0.0
H523 H 0.56267 0.64107 0.63333 0.0
H524 H 0.55437 0.63518 0.8324 0.0
H525 H 0.59479 0.62671 0.83857 0.0
C526 C 0.62277 0.62086 0.74161 0.0
C527 C 0.63389 0.61604 0.68679 0.0
C528 C 0.60138 0.62813 0.73909 0.0
C529 C 0.62442 0.61984 0.62917 0.0
C530 C 0.6041 0.62846 0.6262 0.0
C531 C 0.57009 0.63848 0.6782 0.0
C532 C 0.55605 0.63924 0.73259 0.0
C533 C 0.59213 0.63218 0.68086 0.0
C534 C 0.56514 0.63495 0.79021 0.0
C535 C 0.58811 0.63004 0.79357 0.0
H536 H 0.03667 0.57397 0.85806 0.0
H537 H 0.00186 0.56516 0.04232 0.0
H538 H 0.95375 0.53584 1.00212 0.0
H539 H 0.92137 0.51572 0.91418 0.0
H540 H 0.95558 0.52665 0.72889 0.0
H541 H 0.00408 0.5518 0.77005 0.0
C542 C 0.01856 0.5654 0.8894 0.0
C543 C 0.0228 0.57193 0.9529 0.0
C544 C -0.00917 0.54899 0.86584 0.0
C545 C -0.00086 0.56072 0.99305 0.0
C546 C 0.9716 0.54389 0.97019 0.0
C547 C 0.93942 0.52324 0.88285 0.0
C548 C 0.93491 0.51947 0.81865 0.0
C549 C 0.96717 0.53833 0.90658 0.0
C550 C 0.95852 0.52948 0.77858 0.0
C551 C -0.01375 0.54389 0.80202 0.0
loop_
_geom_bond_atom_site_label_1
_geom_bond_atom_site_label_2
_geom_bond_distance
_geom_bond_site_symmetry_2
_ccdc_geom_bond_type
Zn0 O3 2.031 . S
Zn0 O5 2.049 . S
Zn0 O10 2.067 . S
Zn1 O2 1.962 . S
Zn1 O4 1.986 1_554 S
Zn1 O6 1.996 . S
Zn1 O9 1.943 . S
O2 Zn1 1.962 . S
O2 C7 1.254 . S
O3 Zn0 2.031 . S
O3 C7 1.269 . S
O4 Zn1 1.986 1_556 S
O4 C11 1.262 . S
O5 Zn0 2.049 . S
O5 C13 1.260 . S
O6 Zn1 1.996 . S
O6 C13 1.257 . S
C7 O2 1.254 . S
C7 O3 1.269 . S
C8 O9 1.249 . S
C8 O10 1.270 . S
O9 Zn1 1.943 . S
O9 C8 1.249 . S
O10 Zn0 2.067 . S
O10 C8 1.270 . S
C11 O4 1.262 . S
C11 O12 1.232 . S
O12 C11 1.232 . S
C13 O5 1.260 . S
C13 O6 1.257 . S
Zn14 O17 2.031 . S
Zn14 O19 2.049 . S
Zn14 O24 2.067 . S
Zn15 O16 1.962 . S
Zn15 O18 1.986 . S
Zn15 O20 1.996 . S
Zn15 O23 1.943 . S
O16 Zn15 1.962 . S
O16 C21 1.254 . S
O17 Zn14 2.031 . S
O17 C21 1.269 . S
O18 Zn15 1.986 . S
O18 C25 1.262 . S
O19 Zn14 2.049 . S
O19 C27 1.260 . S
O20 Zn15 1.996 . S
O20 C27 1.257 . S
C21 O16 1.254 . S
C21 O17 1.269 . S
C22 O23 1.249 . S
C22 O24 1.270 . S
O23 Zn15 1.943 . S
O23 C22 1.249 . S
O24 Zn14 2.067 . S
O24 C22 1.270 . S
C25 O18 1.262 . S
C25 O26 1.232 . S
O26 C25 1.232 . S
C27 O19 1.260 . S
C27 O20 1.257 . S
Zn28 O31 2.031 . S
Zn28 O33 2.049 . S
Zn28 O38 2.067 . S
Zn29 O30 1.962 . S
Zn29 O32 1.986 . S
Zn29 O34 1.996 . S
Zn29 O37 1.943 . S
O30 Zn29 1.962 . S
O30 C35 1.254 . S
O31 Zn28 2.031 . S
O31 C35 1.269 . S
O32 Zn29 1.986 . S
O32 C39 1.262 . S
O33 Zn28 2.049 . S
O33 C41 1.260 . S
O34 Zn29 1.996 . S
O34 C41 1.257 . S
C35 O30 1.254 . S
C35 O31 1.269 . S
C36 O37 1.249 . S
C36 O38 1.270 . S
O37 Zn29 1.943 . S
O37 C36 1.249 . S
O38 Zn28 2.067 . S
O38 C36 1.270 . S
C39 O32 1.262 . S
C39 O40 1.232 . S
O40 C39 1.232 . S
C41 O33 1.260 . S
C41 O34 1.257 . S
Zn42 O45 2.031 . S
Zn42 O47 2.049 . S
Zn42 O52 2.067 . S
Zn43 O44 1.962 . S
Zn43 O46 1.986 . S
Zn43 O48 1.996 . S
Zn43 O51 1.943 . S
O44 Zn43 1.962 . S
O44 C49 1.254 . S
O45 Zn42 2.031 . S
O45 C49 1.269 . S
O46 Zn43 1.986 . S
O46 C53 1.262 . S
O47 Zn42 2.049 . S
O47 C55 1.260 . S
O48 Zn43 1.996 . S
O48 C55 1.257 . S
C49 O44 1.254 . S
C49 O45 1.269 . S
C50 O51 1.249 . S
C50 O52 1.270 . S
O51 Zn43 1.943 . S
O51 C50 1.249 . S
O52 Zn42 2.067 . S
O52 C50 1.270 . S
C53 O46 1.262 . S
C53 O54 1.232 . S
O54 C53 1.232 . S
C55 O47 1.260 . S
C55 O48 1.257 . S
Zn56 O59 2.031 . S
Zn56 O61 2.049 . S
Zn56 O66 2.067 . S
Zn57 O58 1.962 . S
Zn57 O60 1.986 . S
Zn57 O62 1.996 . S
Zn57 O65 1.943 . S
O58 Zn57 1.962 . S
O58 C63 1.254 . S
O59 Zn56 2.031 . S
O59 C63 1.269 . S
O60 Zn57 1.986 . S
O60 C67 1.262 . S
O61 Zn56 2.049 . S
O61 C69 1.260 . S
O62 Zn57 1.996 . S
O62 C69 1.257 . S
C63 O58 1.254 . S
C63 O59 1.269 . S
C64 O65 1.249 . S
C64 O66 1.270 . S
O65 Zn57 1.943 . S
O65 C64 1.249 . S
O66 Zn56 2.067 . S
O66 C64 1.270 . S
C67 O60 1.262 . S
C67 O68 1.232 . S
O68 C67 1.232 . S
C69 O61 1.260 . S
C69 O62 1.257 . S
Zn70 O73 2.031 . S
Zn70 O75 2.049 . S
Zn70 O80 2.067 1_556 S
Zn71 O72 1.962 . S
Zn71 O74 1.986 . S
Zn71 O76 1.996 . S
Zn71 O79 1.943 . S
O72 Zn71 1.962 . S
O72 C77 1.254 . S
O73 Zn70 2.031 . S
O73 C77 1.269 . S
O74 Zn71 1.986 . S
O74 C81 1.262 . S
O75 Zn70 2.049 . S
O75 C83 1.260 . S
O76 Zn71 1.996 . S
O76 C83 1.257 . S
C77 O72 1.254 . S
C77 O73 1.269 . S
C78 O79 1.249 . S
C78 O80 1.270 1_556 S
O79 Zn71 1.943 . S
O79 C78 1.249 . S
O80 Zn70 2.067 1_554 S
O80 C78 1.270 1_554 S
C81 O74 1.262 . S
C81 O82 1.232 . S
O82 C81 1.232 . S
C83 O75 1.260 . S
C83 O76 1.257 . S
Zn84 O87 2.031 . S
Zn84 O89 2.049 . S
Zn84 O94 2.067 . S
Zn85 O86 1.962 . S
Zn85 O88 1.986 . S
Zn85 O90 1.996 . S
Zn85 O93 1.943 . S
O86 Zn85 1.962 . S
O86 C91 1.254 . S
O87 Zn84 2.031 . S
O87 C91 1.269 . S
O88 Zn85 1.986 . S
O88 C95 1.262 . S
O89 Zn84 2.049 . S
O89 C97 1.260 . S
O90 Zn85 1.996 . S
O90 C97 1.257 . S
C91 O86 1.254 . S
C91 O87 1.269 . S
C92 O93 1.249 . S
C92 O94 1.270 . S
O93 Zn85 1.943 . S
O93 C92 1.249 . S
O94 Zn84 2.067 . S
O94 C92 1.270 . S
C95 O88 1.262 . S
C95 O96 1.232 . S
O96 C95 1.232 . S
C97 O89 1.260 . S
C97 O90 1.257 . S
Zn98 O101 2.031 . S
Zn98 O103 2.049 . S
Zn98 O108 2.067 . S
Zn99 O100 1.962 . S
Zn99 O102 1.986 . S
Zn99 O104 1.996 . S
Zn99 O107 1.943 1_554 S
O100 Zn99 1.962 . S
O100 C105 1.254 . S
O101 Zn98 2.031 . S
O101 C105 1.269 1_556 S
O102 Zn99 1.986 . S
O102 C109 1.262 . S
O103 Zn98 2.049 . S
O103 C111 1.260 1_556 S
O104 Zn99 1.996 . S
O104 C111 1.257 . S
C105 O100 1.254 . S
C105 O101 1.269 1_554 S
C106 O107 1.249 . S
C106 O108 1.270 . S
O107 Zn99 1.943 1_556 S
O107 C106 1.249 . S
O108 Zn98 2.067 . S
O108 C106 1.270 . S
C109 O102 1.262 . S
C109 O110 1.232 . S
O110 C109 1.232 . S
C111 O103 1.260 1_554 S
C111 O104 1.257 . S
Zn112 O115 2.031 . S
Zn112 O117 2.049 . S
Zn112 O122 2.067 . S
Zn113 O114 1.962 . S
Zn113 O116 1.986 . S
Zn113 O118 1.996 . S
Zn113 O121 1.943 . S
O114 Zn113 1.962 . S
O114 C119 1.254 . S
O115 Zn112 2.031 . S
O115 C119 1.269 . S
O116 Zn113 1.986 . S
O116 C123 1.262 . S
O117 Zn112 2.049 . S
O117 C125 1.260 . S
O118 Zn113 1.996 . S
O118 C125 1.257 . S
C119 O114 1.254 . S
C119 O115 1.269 . S
C120 O121 1.249 . S
C120 O122 1.270 . S
O121 Zn113 1.943 . S
O121 C120 1.249 . S
O122 Zn112 2.067 . S
O122 C120 1.270 . S
C123 O116 1.262 . S
C123 O124 1.232 . S
O124 C123 1.232 . S
C125 O117 1.260 . S
C125 O118 1.257 . S
Zn126 O129 2.031 . S
Zn126 O131 2.049 . S
Zn126 O136 2.067 . S
Zn127 O128 1.962 . S
Zn127 O130 1.986 . S
Zn127 O132 1.996 . S
Zn127 O135 1.943 . S
O128 Zn127 1.962 . S
O128 C133 1.254 . S
O129 Zn126 2.031 . S
O129 C133 1.269 . S
O130 Zn127 1.986 . S
O130 C137 1.262 . S
O131 Zn126 2.049 . S
O131 C139 1.260 . S
O132 Zn127 1.996 . S
O132 C139 1.257 . S
C133 O128 1.254 . S
C133 O129 1.269 . S
C134 O135 1.249 . S
C134 O136 1.270 . S
O135 Zn127 1.943 . S
O135 C134 1.249 . S
O136 Zn126 2.067 . S
O136 C134 1.270 . S
C137 O130 1.262 . S
C137 O138 1.232 . S
O138 C137 1.232 . S
C139 O131 1.260 . S
C139 O132 1.257 . S
Zn140 O143 2.031 . S
Zn140 O145 2.049 . S
Zn140 O150 2.067 . S
Zn141 O142 1.962 . S
Zn141 O144 1.986 . S
Zn141 O146 1.996 . S
Zn141 O149 1.943 . S
O142 Zn141 1.962 . S
O142 C147 1.254 . S
O143 Zn140 2.031 . S
O143 C147 1.269 . S
O144 Zn141 1.986 . S
O144 C151 1.262 . S
O145 Zn140 2.049 . S
O145 C153 1.260 . S
O146 Zn141 1.996 . S
O146 C153 1.257 . S
C147 O142 1.254 . S
C147 O143 1.269 . S
C148 O149 1.249 . S
C148 O150 1.270 . S
O149 Zn141 1.943 . S
O149 C148 1.249 . S
O150 Zn140 2.067 . S
O150 C148 1.270 . S
C151 O144 1.262 . S
C151 O152 1.232 . S
O152 C151 1.232 . S
C153 O145 1.260 . S
C153 O146 1.257 . S
Zn154 O157 2.031 . S
Zn154 O159 2.049 . S
Zn154 O164 2.067 . S
Zn155 O156 1.962 . S
Zn155 O158 1.986 . S
Zn155 O160 1.996 . S
Zn155 O163 1.943 . S
O156 Zn155 1.962 . S
O156 C161 1.254 . S
O157 Zn154 2.031 . S
O157 C161 1.269 . S
O158 Zn155 1.986 . S
O158 C165 1.262 . S
O159 Zn154 2.049 . S
O159 C167 1.260 . S
O160 Zn155 1.996 . S
O160 C167 1.257 . S
C161 O156 1.254 . S
C161 O157 1.269 . S
C162 O163 1.249 . S
C162 O164 1.270 . S
O163 Zn155 1.943 . S
O163 C162 1.249 . S
O164 Zn154 2.067 . S
O164 C162 1.270 . S
C165 O158 1.262 . S
C165 O166 1.232 . S
O166 C165 1.232 . S
C167 O159 1.260 . S
C167 O160 1.257 . S
H168 C174 0.930 . S
H169 C177 0.930 . S
H170 C178 0.930 . S
H171 C179 0.930 . S
H172 C182 0.930 . S
H173 C183 0.930 . S
C174 H168 0.930 . S
C174 C175 1.355 . S
C174 C176 1.415 . S
C175 C174 1.355 . S
C175 C177 1.419 . S
C176 C174 1.415 . S
C176 C181 1.425 . S
C176 C183 1.409 . S
C177 H169 0.930 . S
C177 C175 1.419 . S
C177 C178 1.362 . S
C178 H170 0.930 . S
C178 C177 1.362 . S
C178 C181 1.409 . S
C179 H171 0.930 . S
C179 C180 1.355 . S
C179 C181 1.415 . S
C180 C179 1.355 . S
C180 C182 1.419 . S
C181 C176 1.425 . S
C181 C178 1.409 . S
C181 C179 1.415 . S
C182 H172 0.930 . S
C182 C180 1.419 . S
C182 C183 1.362 . S
C183 H173 0.930 . S
C183 C176 1.409 . S
C183 C182 1.362 . S
H184 C190 0.930 . S
H185 C193 0.930 . S
H186 C194 0.930 . S
H187 C195 0.930 . S
H188 C198 0.930 . S
H189 C199 0.930 . S
C190 H184 0.930 . S
C190 C191 1.355 . S
C190 C192 1.415 . S
C191 C190 1.355 . S
C191 C193 1.419 . S
C192 C190 1.415 . S
C192 C197 1.425 . S
C192 C199 1.409 . S
C193 H185 0.930 . S
C193 C191 1.419 . S
C193 C194 1.362 . S
C194 H186 0.930 . S
C194 C193 1.362 . S
C194 C197 1.409 . S
C195 H187 0.930 . S
C195 C196 1.355 . S
C195 C197 1.415 . S
C196 C195 1.355 . S
C196 C198 1.419 . S
C197 C192 1.425 . S
C197 C194 1.409 . S
C197 C195 1.415 . S
C198 H188 0.930 . S
C198 C196 1.419 . S
C198 C199 1.362 . S
C199 H189 0.930 . S
C199 C192 1.409 . S
C199 C198 1.362 . S
H200 C206 0.930 . S
H201 C209 0.930 . S
H202 C210 0.930 . S
H203 C211 0.930 . S
H204 C214 0.930 . S
H205 C215 0.930 . S
C206 H200 0.930 . S
C206 C207 1.355 . S
C206 C208 1.415 . S
C207 C206 1.355 . S
C207 C209 1.419 . S
C208 C206 1.415 . S
C208 C213 1.425 . S
C208 C215 1.409 . S
C209 H201 0.930 . S
C209 C207 1.419 . S
C209 C210 1.362 . S
C210 H202 0.930 . S
C210 C209 1.362 . S
C210 C213 1.409 . S
C211 H203 0.930 . S
C211 C212 1.355 . S
C211 C213 1.415 . S
C212 C211 1.355 . S
C212 C214 1.419 . S
C213 C208 1.425 . S
C213 C210 1.409 . S
C213 C211 1.415 . S
C214 H204 0.930 . S
C214 C212 1.419 . S
C214 C215 1.362 . S
C215 H205 0.930 . S
C215 C208 1.409 . S
C215 C214 1.362 . S
H216 C222 0.930 . S
H217 C225 0.930 . S
H218 C226 0.930 . S
H219 C227 0.930 . S
H220 C230 0.930 . S
H221 C231 0.930 . S
C222 H216 0.930 . S
C222 C223 1.355 . S
C222 C224 1.415 . S
C223 C222 1.355 . S
C223 C225 1.419 . S
C224 C222 1.415 . S
C224 C229 1.425 . S
C224 C231 1.409 . S
C225 H217 0.930 . S
C225 C223 1.419 . S
C225 C226 1.362 . S
C226 H218 0.930 . S
C226 C225 1.362 . S
C226 C229 1.409 . S
C227 H219 0.930 . S
C227 C228 1.355 . S
C227 C229 1.415 . S
C228 C227 1.355 . S
C228 C230 1.419 . S
C229 C224 1.425 . S
C229 C226 1.409 . S
C229 C227 1.415 . S
C230 H220 0.930 . S
C230 C228 1.419 . S
C230 C231 1.362 . S
C231 H221 0.930 . S
C231 C224 1.409 . S
C231 C230 1.362 . S
H232 C238 0.930 . S
H233 C241 0.930 . S
H234 C242 0.930 . S
H235 C243 0.930 . S
H236 C246 0.930 . S
H237 C247 0.930 . S
C238 H232 0.930 . S
C238 C239 1.355 . S
C238 C240 1.415 1_554 S
C239 C238 1.355 . S
C239 C241 1.419 . S
C240 C238 1.415 1_556 S
C240 C245 1.425 . S
C240 C247 1.409 . S
C241 H233 0.930 . S
C241 C239 1.419 . S
C241 C242 1.362 1_554 S
C242 H234 0.930 . S
C242 C241 1.362 1_556 S
C242 C245 1.409 . S
C243 H235 0.930 . S
C243 C244 1.355 . S
C243 C245 1.415 . S
C244 C243 1.355 . S
C244 C246 1.419 . S
C245 C240 1.425 . S
C245 C242 1.409 . S
C245 C243 1.415 . S
C246 H236 0.930 . S
C246 C244 1.419 . S
C246 C247 1.362 . S
C247 H237 0.930 . S
C247 C240 1.409 . S
C247 C246 1.362 . S
H248 C254 0.930 . S
H249 C257 0.930 . S
H250 C258 0.930 . S
H251 C259 0.930 . S
H252 C262 0.930 . S
H253 C263 0.930 . S
C254 H248 0.930 . S
C254 C255 1.355 . S
C254 C256 1.415 . S
C255 C254 1.355 . S
C255 C257 1.419 . S
C256 C254 1.415 . S
C256 C261 1.425 . S
C256 C263 1.409 . S
C257 H249 0.930 . S
C257 C255 1.419 . S
C257 C258 1.362 . S
C258 H250 0.930 . S
C258 C257 1.362 . S
C258 C261 1.409 . S
C259 H251 0.930 . S
C259 C260 1.355 . S
C259 C261 1.415 . S
C260 C259 1.355 . S
C260 C262 1.419 . S
C261 C256 1.425 . S
C261 C258 1.409 . S
C261 C259 1.415 . S
C262 H252 0.930 . S
C262 C260 1.419 . S
C262 C263 1.362 . S
C263 H253 0.930 . S
C263 C256 1.409 . S
C263 C262 1.362 . S
H264 C270 0.930 . S
H265 C273 0.930 . S
H266 C274 0.930 . S
H267 C275 0.930 . S
H268 C278 0.930 . S
H269 C279 0.930 . S
C270 H264 0.930 . S
C270 C271 1.355 . S
C270 C272 1.415 . S
C271 C270 1.355 . S
C271 C273 1.419 . S
C272 C270 1.415 . S
C272 C277 1.425 . S
C272 C279 1.409 . S
C273 H265 0.930 . S
C273 C271 1.419 . S
C273 C274 1.362 . S
C274 H266 0.930 . S
C274 C273 1.362 . S
C274 C277 1.409 . S
C275 H267 0.930 . S
C275 C276 1.355 . S
C275 C277 1.415 . S
C276 C275 1.355 . S
C276 C278 1.419 . S
C277 C272 1.425 . S
C277 C274 1.409 . S
C277 C275 1.415 . S
C278 H268 0.930 . S
C278 C276 1.419 . S
C278 C279 1.362 . S
C279 H269 0.930 . S
C279 C272 1.409 . S
C279 C278 1.362 . S
H280 C286 0.930 . S
H281 C289 0.930 . S
H282 C290 0.930 . S
H283 C291 0.930 . S
H284 C294 0.930 . S
H285 C295 0.930 . S
C286 H280 0.930 . S
C286 C287 1.355 . S
C286 C288 1.415 . S
C287 C286 1.355 . S
C287 C289 1.419 . S
C288 C286 1.415 . S
C288 C293 1.425 . S
C288 C295 1.409 . S
C289 H281 0.930 . S
C289 C287 1.419 . S
C289 C290 1.362 . S
C290 H282 0.930 . S
C290 C289 1.362 . S
C290 C293 1.409 . S
C291 H283 0.930 . S
C291 C292 1.355 . S
C291 C293 1.415 . S
C292 C291 1.355 . S
C292 C294 1.419 . S
C293 C288 1.425 . S
C293 C290 1.409 . S
C293 C291 1.415 . S
C294 H284 0.930 . S
C294 C292 1.419 . S
C294 C295 1.362 . S
C295 H285 0.930 . S
C295 C288 1.409 . S
C295 C294 1.362 . S
H296 C302 0.930 . S
H297 C305 0.930 . S
H298 C306 0.930 . S
H299 C307 0.930 . S
H300 C310 0.930 . S
H301 C311 0.930 . S
C302 H296 0.930 . S
C302 C303 1.355 . S
C302 C304 1.415 . S
C303 C302 1.355 . S
C303 C305 1.419 . S
C304 C302 1.415 . S
C304 C309 1.425 . S
C304 C311 1.409 . S
C305 H297 0.930 . S
C305 C303 1.419 . S
C305 C306 1.362 . S
C306 H298 0.930 . S
C306 C305 1.362 . S
C306 C309 1.409 . S
C307 H299 0.930 . S
C307 C308 1.355 . S
C307 C309 1.415 . S
C308 C307 1.355 . S
C308 C310 1.419 . S
C309 C304 1.425 . S
C309 C306 1.409 . S
C309 C307 1.415 . S
C310 H300 0.930 . S
C310 C308 1.419 . S
C310 C311 1.362 . S
C311 H301 0.930 . S
C311 C304 1.409 . S
C311 C310 1.362 . S
H312 C318 0.930 . S
H313 C321 0.930 . S
H314 C322 0.930 . S
H315 C323 0.930 . S
H316 C326 0.930 . S
H317 C327 0.930 . S
C318 H312 0.930 . S
C318 C319 1.355 . S
C318 C320 1.415 . S
C319 C318 1.355 . S
C319 C321 1.419 . S
C320 C318 1.415 . S
C320 C325 1.425 . S
C320 C327 1.409 . S
C321 H313 0.930 . S
C321 C319 1.419 . S
C321 C322 1.362 . S
C322 H314 0.930 . S
C322 C321 1.362 . S
C322 C325 1.409 . S
C323 H315 0.930 . S
C323 C324 1.355 . S
C323 C325 1.415 . S
C324 C323 1.355 . S
C324 C326 1.419 . S
C325 C320 1.425 . S
C325 C322 1.409 . S
C325 C323 1.415 . S
C326 H316 0.930 . S
C326 C324 1.419 . S
C326 C327 1.362 . S
C327 H317 0.930 . S
C327 C320 1.409 . S
C327 C326 1.362 . S
H328 C334 0.930 . S
H329 C337 0.930 . S
H330 C338 0.930 . S
H331 C339 0.930 . S
H332 C342 0.930 . S
H333 C343 0.930 . S
C334 H328 0.930 . S
C334 C335 1.355 . S
C334 C336 1.415 . S
C335 C334 1.355 . S
C335 C337 1.419 . S
C336 C334 1.415 . S
C336 C341 1.425 . S
C336 C343 1.409 . S
C337 H329 0.930 . S
C337 C335 1.419 . S
C337 C338 1.362 . S
C338 H330 0.930 . S
C338 C337 1.362 . S
C338 C341 1.409 . S
C339 H331 0.930 . S
C339 C340 1.355 . S
C339 C341 1.415 . S
C340 C339 1.355 . S
C340 C342 1.419 . S
C341 C336 1.425 . S
C341 C338 1.409 . S
C341 C339 1.415 . S
C342 H332 0.930 . S
C342 C340 1.419 . S
C342 C343 1.362 . S
C343 H333 0.930 . S
C343 C336 1.409 . S
C343 C342 1.362 . S
H344 C350 0.930 . S
H345 C353 0.930 1_554 S
H346 C354 0.930 . S
H347 C355 0.930 . S
H348 C358 0.930 . S
H349 C359 0.930 . S
C350 H344 0.930 . S
C350 C351 1.355 . S
C350 C352 1.415 . S
C351 C350 1.355 . S
C351 C353 1.419 . S
C352 C350 1.415 . S
C352 C357 1.425 . S
C352 C359 1.409 . S
C353 H345 0.930 1_556 S
C353 C351 1.419 . S
C353 C354 1.362 1_556 S
C354 H346 0.930 . S
C354 C353 1.362 1_554 S
C354 C357 1.409 1_554 S
C355 H347 0.930 . S
C355 C356 1.355 1_554 S
C355 C357 1.415 1_554 S
C356 C355 1.355 1_556 S
C356 C358 1.419 . S
C357 C352 1.425 . S
C357 C354 1.409 1_556 S
C357 C355 1.415 1_556 S
C358 H348 0.930 . S
C358 C356 1.419 . S
C358 C359 1.362 . S
C359 H349 0.930 . S
C359 C352 1.409 . S
C359 C358 1.362 . S
H360 C366 0.930 . S
H361 C369 0.930 . S
H362 C370 0.930 . S
H363 C371 0.930 . S
H364 C374 0.930 . S
H365 C375 0.930 . S
C366 H360 0.930 . S
C366 C367 1.355 . S
C366 C368 1.415 . S
C367 C366 1.355 . S
C367 C369 1.419 . S
C368 C366 1.415 . S
C368 C373 1.425 . S
C368 C375 1.409 . S
C369 H361 0.930 . S
C369 C367 1.419 . S
C369 C370 1.362 . S
C370 H362 0.930 . S
C370 C369 1.362 . S
C370 C373 1.409 . S
C371 H363 0.930 . S
C371 C372 1.355 . S
C371 C373 1.415 . S
C372 C371 1.355 . S
C372 C374 1.419 . S
C373 C368 1.425 . S
C373 C370 1.409 . S
C373 C371 1.415 . S
C374 H364 0.930 . S
C374 C372 1.419 . S
C374 C375 1.362 . S
C375 H365 0.930 . S
C375 C368 1.409 . S
C375 C374 1.362 . S
H376 C382 0.930 . S
H377 C385 0.930 . S
H378 C386 0.930 . S
H379 C387 0.934 . S
H380 C390 0.930 . S
H381 C391 0.930 . S
C382 H376 0.930 . S
C382 C383 1.355 . S
C382 C384 1.415 . S
C383 C382 1.355 . S
C383 C385 1.419 . S
C384 C382 1.415 . S
C384 C389 1.425 . S
C384 C391 1.409 1_556 S
C385 H377 0.930 . S
C385 C383 1.419 . S
C385 C386 1.362 . S
C386 H378 0.930 . S
C386 C385 1.362 . S
C386 C389 1.409 . S
C387 H379 0.934 . S
C387 C388 1.336 1_556 S
C387 C389 1.429 . S
C388 C387 1.336 1_554 S
C388 C390 1.419 . S
C389 C384 1.425 . S
C389 C386 1.409 . S
C389 C387 1.429 . S
C390 H380 0.930 . S
C390 C388 1.419 . S
C390 C391 1.362 . S
C391 H381 0.930 . S
C391 C384 1.409 1_554 S
C391 C390 1.362 . S
H392 C398 0.930 . S
H393 C401 0.930 . S
H394 C402 0.930 . S
H395 C403 0.930 . S
H396 C406 0.930 . S
H397 C407 0.930 . S
C398 H392 0.930 . S
C398 C399 1.355 . S
C398 C400 1.415 . S
C399 C398 1.355 . S
C399 C401 1.419 . S
C400 C398 1.415 . S
C400 C405 1.425 . S
C400 C407 1.409 . S
C401 H393 0.930 . S
C401 C399 1.419 . S
C401 C402 1.362 . S
C402 H394 0.930 . S
C402 C401 1.362 . S
C402 C405 1.409 . S
C403 H395 0.930 . S
C403 C404 1.355 . S
C403 C405 1.415 . S
C404 C403 1.355 . S
C404 C406 1.419 . S
C405 C400 1.425 . S
C405 C402 1.409 . S
C405 C403 1.415 . S
C406 H396 0.930 . S
C406 C404 1.419 . S
C406 C407 1.362 . S
C407 H397 0.930 . S
C407 C400 1.409 . S
C407 C406 1.362 . S
H408 C414 0.930 . S
H409 C417 0.930 . S
H410 C418 0.930 . S
H411 C419 0.930 . S
H412 C422 0.930 . S
H413 C423 0.930 . S
C414 H408 0.930 . S
C414 C415 1.355 . S
C414 C416 1.415 . S
C415 C414 1.355 . S
C415 C417 1.419 . S
C416 C414 1.415 . S
C416 C421 1.425 . S
C416 C423 1.409 . S
C417 H409 0.930 . S
C417 C415 1.419 . S
C417 C418 1.362 . S
C418 H410 0.930 . S
C418 C417 1.362 . S
C418 C421 1.409 . S
C419 H411 0.930 . S
C419 C420 1.355 . S
C419 C421 1.415 . S
C420 C419 1.355 . S
C420 C422 1.419 . S
C421 C416 1.425 . S
C421 C418 1.409 . S
C421 C419 1.415 . S
C422 H412 0.930 . S
C422 C420 1.419 . S
C422 C423 1.362 . S
C423 H413 0.930 . S
C423 C416 1.409 . S
C423 C422 1.362 . S
H424 C430 0.930 . S
H425 C433 0.930 . S
H426 C434 0.930 . S
H427 C435 0.930 . S
H428 C438 0.930 . S
H429 C439 0.930 . S
C430 H424 0.930 . S
C430 C431 1.355 . S
C430 C432 1.415 . S
C431 C430 1.355 . S
C431 C433 1.419 . S
C432 C430 1.415 . S
C432 C437 1.425 . S
C432 C439 1.409 . S
C433 H425 0.930 . S
C433 C431 1.419 . S
C433 C434 1.362 . S
C434 H426 0.930 . S
C434 C433 1.362 . S
C434 C437 1.409 . S
C435 H427 0.930 . S
C435 C436 1.355 . S
C435 C437 1.415 . S
C436 C435 1.355 . S
C436 C438 1.419 . S
C437 C432 1.425 . S
C437 C434 1.409 . S
C437 C435 1.415 . S
C438 H428 0.930 . S
C438 C436 1.419 . S
C438 C439 1.362 . S
C439 H429 0.930 . S
C439 C432 1.409 . S
C439 C438 1.362 . S
H440 C446 0.930 . S
H441 C449 0.930 . S
H442 C450 0.930 . S
H443 C451 0.930 . S
H444 C454 0.930 . S
H445 C455 0.930 . S
C446 H440 0.930 . S
C446 C447 1.355 . S
C446 C448 1.415 . S
C447 C446 1.355 . S
C447 C449 1.419 . S
C448 C446 1.415 . S
C448 C453 1.425 . S
C448 C455 1.409 . S
C449 H441 0.930 . S
C449 C447 1.419 . S
C449 C450 1.362 . S
C450 H442 0.930 . S
C450 C449 1.362 . S
C450 C453 1.409 . S
C451 H443 0.930 . S
C451 C452 1.355 . S
C451 C453 1.415 . S
C452 C451 1.355 . S
C452 C454 1.419 . S
C453 C448 1.425 . S
C453 C450 1.409 . S
C453 C451 1.415 . S
C454 H444 0.930 . S
C454 C452 1.419 . S
C454 C455 1.362 . S
C455 H445 0.930 . S
C455 C448 1.409 . S
C455 C454 1.362 . S
H456 C462 0.938 . S
H457 C465 0.930 . S
H458 C466 0.930 . S
H459 C467 0.930 . S
H460 C470 0.930 . S
H461 C471 0.930 . S
C462 H456 0.938 . S
C462 C463 1.355 . S
C462 C464 1.415 . S
C463 C462 1.355 . S
C463 C465 1.419 . S
C464 C462 1.415 . S
C464 C469 1.425 1_545 S
C464 C471 1.409 1_544 S
C465 H457 0.930 . S
C465 C463 1.419 . S
C465 C466 1.362 . S
C466 H458 0.930 . S
C466 C465 1.362 . S
C466 C469 1.409 1_545 S
C467 H459 0.930 . S
C467 C468 1.355 . S
C467 C469 1.415 . S
C468 C467 1.355 . S
C468 C470 1.419 1_554 S
C469 C464 1.425 1_565 S
C469 C466 1.409 1_565 S
C469 C467 1.415 . S
C470 H460 0.930 . S
C470 C468 1.419 1_556 S
C470 C471 1.362 . S
C471 H461 0.930 . S
C471 C464 1.409 1_566 S
C471 C470 1.362 . S
H472 C478 0.930 . S
H473 C481 0.930 . S
H474 C482 0.930 . S
H475 C483 0.930 . S
H476 C486 0.930 . S
H477 C487 0.930 . S
C478 H472 0.930 . S
C478 C479 1.355 . S
C478 C480 1.415 . S
C479 C478 1.355 . S
C479 C481 1.419 . S
C480 C478 1.415 . S
C480 C485 1.425 . S
C480 C487 1.409 . S
C481 H473 0.930 . S
C481 C479 1.419 . S
C481 C482 1.362 . S
C482 H474 0.930 . S
C482 C481 1.362 . S
C482 C485 1.409 . S
C483 H475 0.930 . S
C483 C484 1.355 . S
C483 C485 1.415 . S
C484 C483 1.355 . S
C484 C486 1.419 . S
C485 C480 1.425 . S
C485 C482 1.409 . S
C485 C483 1.415 . S
C486 H476 0.930 . S
C486 C484 1.419 . S
C486 C487 1.362 . S
C487 H477 0.930 . S
C487 C480 1.409 . S
C487 C486 1.362 . S
H488 C494 0.930 . S
H489 C497 0.930 . S
H490 C498 0.930 . S
H491 C499 0.930 . S
H492 C502 0.930 . S
H493 C503 0.930 . S
C494 H488 0.930 . S
C494 C495 1.355 . S
C494 C496 1.415 . S
C495 C494 1.355 . S
C495 C497 1.419 . S
C496 C494 1.415 . S
C496 C501 1.425 1_455 S
C496 C503 1.409 1_455 S
C497 H489 0.930 . S
C497 C495 1.419 . S
C497 C498 1.362 . S
C498 H490 0.930 . S
C498 C497 1.362 . S
C498 C501 1.409 1_455 S
C499 H491 0.930 . S
C499 C500 1.355 . S
C499 C501 1.415 . S
C500 C499 1.355 . S
C500 C502 1.419 . S
C501 C496 1.425 1_655 S
C501 C498 1.409 1_655 S
C501 C499 1.415 . S
C502 H492 0.930 . S
C502 C500 1.419 . S
C502 C503 1.362 . S
C503 H493 0.930 . S
C503 C496 1.409 1_655 S
C503 C502 1.362 . S
H504 C510 0.930 . S
H505 C513 0.930 . S
H506 C514 0.930 . S
H507 C515 0.930 . S
H508 C518 0.930 . S
H509 C519 0.930 . S
C510 H504 0.930 . S
C510 C511 1.355 . S
C510 C512 1.415 . S
C511 C510 1.355 . S
C511 C513 1.419 . S
C512 C510 1.415 . S
C512 C517 1.425 1_565 S
C512 C519 1.409 1_565 S
C513 H505 0.930 . S
C513 C511 1.419 . S
C513 C514 1.362 . S
C514 H506 0.930 . S
C514 C513 1.362 . S
C514 C517 1.409 1_565 S
C515 H507 0.930 . S
C515 C516 1.355 . S
C515 C517 1.415 . S
C516 C515 1.355 . S
C516 C518 1.419 . S
C517 C512 1.425 1_545 S
C517 C514 1.409 1_545 S
C517 C515 1.415 . S
C518 H508 0.930 . S
C518 C516 1.419 . S
C518 C519 1.362 . S
C519 H509 0.930 . S
C519 C512 1.409 1_545 S
C519 C518 1.362 . S
H520 C526 0.930 . S
H521 C529 0.930 . S
H522 C530 0.930 . S
H523 C531 0.930 . S
H524 C534 0.930 . S
H525 C535 0.930 . S
C526 H520 0.930 . S
C526 C527 1.355 . S
C526 C528 1.415 . S
C527 C526 1.355 . S
C527 C529 1.419 . S
C528 C526 1.415 . S
C528 C533 1.425 . S
C528 C535 1.409 . S
C529 H521 0.930 . S
C529 C527 1.419 . S
C529 C530 1.362 . S
C530 H522 0.930 . S
C530 C529 1.362 . S
C530 C533 1.409 . S
C531 H523 0.930 . S
C531 C532 1.355 . S
C531 C533 1.415 . S
C532 C531 1.355 . S
C532 C534 1.419 . S
C533 C528 1.425 . S
C533 C530 1.409 . S
C533 C531 1.415 . S
C534 H524 0.930 . S
C534 C532 1.419 . S
C534 C535 1.362 . S
C535 H525 0.930 . S
C535 C528 1.409 . S
C535 C534 1.362 . S
H536 C542 0.930 . S
H537 C545 0.930 . S
H538 C546 0.930 . S
H539 C547 0.930 . S
H540 C550 0.930 . S
H541 C551 0.930 . S
C542 H536 0.930 . S
C542 C543 1.355 . S
C542 C544 1.415 . S
C543 C542 1.355 . S
C543 C545 1.419 . S
C544 C542 1.415 . S
C544 C549 1.425 1_455 S
C544 C551 1.409 1_455 S
C545 H537 0.930 . S
C545 C543 1.419 . S
C545 C546 1.362 . S
C546 H538 0.930 . S
C546 C545 1.362 . S
C546 C549 1.409 1_455 S
C547 H539 0.930 . S
C547 C548 1.355 . S
C547 C549 1.415 . S
C548 C547 1.355 . S
C548 C550 1.419 . S
C549 C544 1.425 1_655 S
C549 C546 1.409 1_655 S
C549 C547 1.415 . S
C550 H540 0.930 . S
C550 C548 1.419 . S
C550 C551 1.362 . S
C551 H541 0.930 . S
C551 C544 1.409 1_655 S
C551 C550 1.362 . S
C175 C8 1.565 . S
C180 C148 1.612 . S
C191 C22 1.562 . S
C196 C162 1.570 . S
C207 C92 1.610 . S
C212 C36 1.576 . S
C223 C50 1.551 . S
C228 C106 1.589 . S
C239 C120 1.586 . S
C244 C64 1.552 . S
C255 C134 1.569 . S
C260 C78 1.562 1_554 S
C271 C119 1.105 . S
C276 C7 1.107 . S
C287 C21 1.105 . S
C292 C133 1.108 . S
C303 C147 1.157 . S
C308 C35 1.152 . S
C319 C49 1.142 . S
C324 C161 1.131 . S
C335 C63 1.158 . S
C340 C91 1.154 . S
C351 C77 1.104 . S
C356 C105 1.108 1_556 S
C367 C151 1.400 . S
C372 C11 1.399 . S
C383 C165 1.400 . S
C388 C25 1.400 . S
C399 C95 1.400 1_554 S
C404 C39 1.399 . S
C415 C53 1.400 . S
C420 C109 1.400 . S
C431 C67 1.400 . S
C436 C123 1.400 . S
C447 C137 1.400 . S
C452 C81 1.399 . S
C463 C13 1.222 . S
C468 C111 1.212 . S
C479 C125 1.226 . S
C484 C27 1.214 . S
C495 C139 1.282 . S
C500 C41 1.267 . S
C511 C55 1.215 . S
C516 C153 1.227 . S
C527 C69 1.229 . S
C532 C167 1.215 . S
C543 C83 1.216 . S
C548 C97 1.230 . S
