# Generated by pormake.
# Topology umz, (4)-cn, num edge types: 1
# Building blocks:
#     Node 0, Type 0, BuildingBlock: KUFVIS_clean_sbu_0, # of connection points: 4
#     Node 1, Type 0, BuildingBlock: KUFVIS_clean_sbu_0, # of connection points: 4
#     Node 2, Type 0, BuildingBlock: KUFVIS_clean_sbu_0, # of connection points: 4
#     Node 3, Type 0, BuildingBlock: KUFVIS_clean_sbu_0, # of connection points: 4
#     Node 4, Type 0, BuildingBlock: KUFVIS_clean_sbu_0, # of connection points: 4
#     Node 5, Type 0, BuildingBlock: KUFVIS_clean_sbu_0, # of connection points: 4
#     Node 6, Type 0, BuildingBlock: KUFVIS_clean_sbu_0, # of connection points: 4
#     Node 7, Type 0, BuildingBlock: KUFVIS_clean_sbu_0, # of connection points: 4
#     Node 8, Type 0, BuildingBlock: KUFVIS_clean_sbu_0, # of connection points: 4
#     Node 9, Type 0, BuildingBlock: KUFVIS_clean_sbu_0, # of connection points: 4
#     Node 10, Type 0, BuildingBlock: KUFVIS_clean_sbu_0, # of connection points: 4
#     Node 11, Type 0, BuildingBlock: KUFVIS_clean_sbu_0, # of connection points: 4
#     Node 12, Type 0, BuildingBlock: KUFVIS_clean_sbu_0, # of connection points: 4
#     Node 13, Type 0, BuildingBlock: KUFVIS_clean_sbu_0, # of connection points: 4
#     Node 14, Type 0, BuildingBlock: KUFVIS_clean_sbu_0, # of connection points: 4
#     Node 15, Type 0, BuildingBlock: KUFVIS_clean_sbu_0, # of connection points: 4
#     Edge 16, Type (0, 0), BuildingBlock: AJUNOK_clean_linker_0, # of connection points: 2
#     Edge 17, Type (0, 0), BuildingBlock: AJUNOK_clean_linker_0, # of connection points: 2
#     Edge 18, Type (0, 0), BuildingBlock: AJUNOK_clean_linker_0, # of connection points: 2
#     Edge 19, Type (0, 0), BuildingBlock: AJUNOK_clean_linker_0, # of connection points: 2
#     Edge 20, Type (0, 0), BuildingBlock: AJUNOK_clean_linker_0, # of connection points: 2
#     Edge 21, Type (0, 0), BuildingBlock: AJUNOK_clean_linker_0, # of connection points: 2
#     Edge 22, Type (0, 0), BuildingBlock: AJUNOK_clean_linker_0, # of connection points: 2
#     Edge 23, Type (0, 0), BuildingBlock: AJUNOK_clean_linker_0, # of connection points: 2
#     Edge 24, Type (0, 0), BuildingBlock: AJUNOK_clean_linker_0, # of connection points: 2
#     Edge 25, Type (0, 0), BuildingBlock: AJUNOK_clean_linker_0, # of connection points: 2
#     Edge 26, Type (0, 0), BuildingBlock: AJUNOK_clean_linker_0, # of connection points: 2
#     Edge 27, Type (0, 0), BuildingBlock: AJUNOK_clean_linker_0, # of connection points: 2
#     Edge 28, Type (0, 0), BuildingBlock: AJUNOK_clean_linker_0, # of connection points: 2
#     Edge 29, Type (0, 0), BuildingBlock: AJUNOK_clean_linker_0, # of connection points: 2
#     Edge 30, Type (0, 0), BuildingBlock: AJUNOK_clean_linker_0, # of connection points: 2
#     Edge 31, Type (0, 0), BuildingBlock: AJUNOK_clean_linker_0, # of connection points: 2
#     Edge 32, Type (0, 0), BuildingBlock: AJUNOK_clean_linker_0, # of connection points: 2
#     Edge 33, Type (0, 0), BuildingBlock: AJUNOK_clean_linker_0, # of connection points: 2
#     Edge 34, Type (0, 0), BuildingBlock: AJUNOK_clean_linker_0, # of connection points: 2
#     Edge 35, Type (0, 0), BuildingBlock: AJUNOK_clean_linker_0, # of connection points: 2
#     Edge 36, Type (0, 0), BuildingBlock: AJUNOK_clean_linker_0, # of connection points: 2
#     Edge 37, Type (0, 0), BuildingBlock: AJUNOK_clean_linker_0, # of connection points: 2
#     Edge 38, Type (0, 0), BuildingBlock: AJUNOK_clean_linker_0, # of connection points: 2
#     Edge 39, Type (0, 0), BuildingBlock: AJUNOK_clean_linker_0, # of connection points: 2
#     Edge 40, Type (0, 0), BuildingBlock: AJUNOK_clean_linker_0, # of connection points: 2
#     Edge 41, Type (0, 0), BuildingBlock: AJUNOK_clean_linker_0, # of connection points: 2
#     Edge 42, Type (0, 0), BuildingBlock: AJUNOK_clean_linker_0, # of connection points: 2
#     Edge 43, Type (0, 0), BuildingBlock: AJUNOK_clean_linker_0, # of connection points: 2
#     Edge 44, Type (0, 0), BuildingBlock: AJUNOK_clean_linker_0, # of connection points: 2
#     Edge 45, Type (0, 0), BuildingBlock: AJUNOK_clean_linker_0, # of connection points: 2
#     Edge 46, Type (0, 0), BuildingBlock: AJUNOK_clean_linker_0, # of connection points: 2
#     Edge 47, Type (0, 0), BuildingBlock: AJUNOK_clean_linker_0, # of connection points: 2
# Relax obj value: 0.246
# Max RMSD: 0.163
# Mean RMSD: 0.163
data_MOF--net-umz--node1-KUFVIS_clean_sbu_0--edge1-AJUNOK_clean_linker_0
_symmetry_space_group_name_H-M    P1
_symmetry_Int_Tables_number       1
_symmetry_cell_setting            triclinic
loop_
_symmetry_equiv_pos_as_xyz
'x, y, z'
_cell_length_a     42.785539
_cell_length_b     42.777865
_cell_length_c     16.605665
_cell_angle_alpha  89.984744
_cell_angle_beta   89.943711
_cell_angle_gamma 89.987626
loop_
_atom_site_label
_atom_site_type_symbol
_atom_site_fract_x
_atom_site_fract_y
_atom_site_fract_z
_atom_type_partial_charge
Mn0 Mn 0.02152 0.63456 0.14469 0.0
Mn1 Mn 0.96566 0.62223 1.00608 0.0
C2 C 0.97076 0.62203 0.18445 0.0
C3 C 0.06014 0.61292 0.22721 0.0
C4 C 0.99081 0.68683 0.04772 0.0
O5 O 0.04685 0.62756 0.04116 0.0
O6 O 0.00737 0.61522 0.95702 0.0
C7 C 0.97453 0.55405 0.98378 0.0
N8 N 0.95589 0.57856 1.0049 0.0
C9 C 0.91332 0.54393 0.03713 0.0
C10 C 0.93204 0.51835 0.01565 0.0
C11 C 0.96271 0.52345 0.98846 0.0
C12 C 0.92627 0.5739 0.03061 0.0
H13 H 0.99824 0.55782 0.96359 0.0
C14 C 0.0365 0.61898 0.97225 0.0
O15 O 0.05984 0.64275 0.21206 0.0
O16 O 0.03925 0.59604 0.19193 0.0
N17 N 0.92424 0.6279 0.04719 0.0
C18 C 0.90923 0.65507 0.0656 0.0
C19 C 0.87798 0.65411 0.0915 0.0
C20 C 0.86251 0.62525 0.0982 0.0
C21 C 0.87837 0.59761 0.07828 0.0
C22 C 0.90934 0.60007 0.05169 0.0
H23 H 0.92101 0.6773 0.06052 0.0
O24 O 0.98964 0.63594 0.23373 0.0
O25 O 0.98233 0.6167 0.11366 0.0
O26 O 0.00869 0.67828 0.1054 0.0
O27 O 0.9743 0.66783 1.00594 0.0
C28 C 0.86483 0.56769 0.08508 0.0
C29 C 0.88235 0.54086 0.06493 0.0
H30 H 0.92309 0.4947 0.01961 0.0
H31 H 0.97714 0.50382 0.97106 0.0
H32 H 0.8659 0.67554 0.10669 0.0
H33 H 0.83854 0.62457 0.11913 0.0
H34 H 0.84104 0.56504 0.10634 0.0
H35 H 0.87177 0.51797 0.07094 0.0
Mn36 Mn 0.87104 0.02348 0.64761 0.0
Mn37 Mn 0.882 0.96563 0.51321 0.0
C38 C 0.88269 0.97284 0.69139 0.0
C39 C 0.89231 0.06272 0.72817 0.0
C40 C 0.81786 0.99172 0.55509 0.0
O41 O 0.87882 0.04777 0.54338 0.0
O42 O 0.88772 0.00702 0.46073 0.0
C43 C 0.94967 0.97576 0.48415 0.0
N44 N 0.92587 0.95681 0.50865 0.0
C45 C 0.96177 0.91494 0.53753 0.0
C46 C 0.98662 0.93399 0.51256 0.0
C47 C 0.98051 0.96448 0.48548 0.0
C48 C 0.93151 0.92741 0.53469 0.0
H49 H 0.94516 0.99928 0.46358 0.0
C50 C 0.88573 0.03645 0.47433 0.0
O51 O 0.86262 0.06249 0.71173 0.0
O52 O 0.90936 0.04134 0.69525 0.0
N53 N 0.87782 0.92431 0.55628 0.0
C54 C 0.85118 0.90847 0.57514 0.0
C55 C 0.85309 0.8771 0.5997 0.0
C56 C 0.88236 0.86233 0.60451 0.0
C57 C 0.90943 0.87895 0.58366 0.0
C58 C 0.90602 0.91002 0.55845 0.0
H59 H 0.82866 0.9197 0.57165 0.0
O60 O 0.86872 0.99253 0.73849 0.0
O61 O 0.88856 0.98343 0.61974 0.0
O62 O 0.82739 0.01139 0.60754 0.0
O63 O 0.8361 0.97314 0.51683 0.0
C64 C 0.93967 0.86596 0.58731 0.0
C65 C 0.96584 0.884 0.5647 0.0
H66 H 0.01045 0.92539 0.51351 0.0
H67 H 0.99956 0.97917 0.46536 0.0
H68 H 0.83207 0.8644 0.61537 0.0
H69 H 0.88377 0.83824 0.62431 0.0
H70 H 0.94306 0.84212 0.6075 0.0
H71 H 0.98898 0.87378 0.56783 0.0
Mn72 Mn 0.48416 0.86971 0.1527 0.0
Mn73 Mn 0.53709 0.88392 1.00746 0.0
C74 C 0.53612 0.87999 0.18713 0.0
C75 C 0.44699 0.89019 0.2412 0.0
C76 C 0.51207 0.81891 0.04509 0.0
O77 O 0.4567 0.87928 0.05446 0.0
O78 O 0.49454 0.89226 0.96641 0.0
C79 C 0.5279 0.95251 0.99938 0.0
N80 N 0.54707 0.9275 0.01137 0.0
C81 C 0.59099 0.96113 0.03725 0.0
C82 C 0.57176 0.98725 0.02504 0.0
C83 C 0.54007 0.98291 1.00605 0.0
C84 C 0.57746 0.93143 0.03081 0.0
H85 H 0.5035 0.9493 0.98499 0.0
C86 C 0.46574 0.88899 0.98545 0.0
O87 O 0.44673 0.86067 0.2225 0.0
O88 O 0.46808 0.90745 0.20762 0.0
N89 N 0.57965 0.8771 0.03789 0.0
C90 C 0.59557 0.84953 0.03974 0.0
C91 C 0.62813 0.84976 0.0504 0.0
C92 C 0.64398 0.87832 0.05905 0.0
C93 C 0.62716 0.90643 0.05592 0.0
C94 C 0.59488 0.90474 0.04284 0.0
H95 H 0.5836 0.82753 0.03171 0.0
O96 O 0.51767 0.86559 0.23668 0.0
O97 O 0.52333 0.88731 0.11888 0.0
O98 O 0.49533 0.82677 0.10571 0.0
O99 O 0.52801 0.83837 1.00306 0.0
C100 C 0.64128 0.93605 0.0631 0.0
C101 C 0.62313 0.9634 0.05469 0.0
H102 H 0.5811 0.01073 0.0296 0.0
H103 H 0.52514 0.00296 0.99626 0.0
H104 H 0.64098 0.82797 0.05209 0.0
H105 H 0.66906 0.8784 0.06789 0.0
H106 H 0.66613 0.93807 0.07438 0.0
H107 H 0.63425 0.98605 0.06016 0.0
Mn108 Mn 0.63577 0.4821 0.65523 0.0
Mn109 Mn 0.62344 0.53692 0.51363 0.0
C110 C 0.62314 0.53321 0.69272 0.0
C111 C 0.61461 0.44347 0.7385 0.0
C112 C 0.68797 0.51192 0.55645 0.0
O113 O 0.62866 0.45616 0.55291 0.0
O114 O 0.61535 0.49494 0.46752 0.0
C115 C 0.55496 0.52899 0.49586 0.0
N116 N 0.57996 0.54751 0.51327 0.0
C117 C 0.54639 0.59132 0.54176 0.0
C118 C 0.52032 0.57276 0.52384 0.0
C119 C 0.52464 0.54149 0.50059 0.0
C120 C 0.57605 0.57763 0.53577 0.0
H121 H 0.55814 0.50485 0.47866 0.0
C122 C 0.61901 0.46592 0.48439 0.0
O123 O 0.64441 0.44407 0.72328 0.0
O124 O 0.59747 0.46423 0.70337 0.0
N125 N 0.6301 0.57866 0.55138 0.0
C126 C 0.65765 0.59337 0.56739 0.0
C127 C 0.65747 0.62507 0.58937 0.0
C128 C 0.629 0.64133 0.59454 0.0
C129 C 0.60096 0.62579 0.57703 0.0
C130 C 0.60264 0.59429 0.55433 0.0
H131 H 0.67961 0.58103 0.56323 0.0
O132 O 0.63694 0.51456 0.7429 0.0
O133 O 0.61792 0.52117 0.62243 0.0
O134 O 0.67936 0.49481 0.61559 0.0
O135 O 0.66895 0.52755 0.51254 0.0
C136 C 0.57138 0.64013 0.58274 0.0
C137 C 0.54411 0.62284 0.56567 0.0
H138 H 0.49688 0.58226 0.52771 0.0
H139 H 0.5046 0.52713 0.48626 0.0
H140 H 0.67921 0.63692 0.60264 0.0
H141 H 0.62893 0.66568 0.61244 0.0
H142 H 0.56933 0.66434 0.60104 0.0
H143 H 0.52148 0.63402 0.57107 0.0
Mn144 Mn 0.02041 0.87276 0.87391 0.0
Mn145 Mn 0.96527 0.88364 0.01562 0.0
C146 C 0.96941 0.8857 0.83712 0.0
C147 C 0.0587 0.89464 0.7907 0.0
C148 C 0.98986 0.81947 0.96799 0.0
O149 O 0.04636 0.87884 0.97666 0.0
O150 O 0.00725 0.88974 0.06334 0.0
C151 C 0.97499 0.95144 0.04263 0.0
N152 N 0.95595 0.92737 0.0207 0.0
C153 C 0.91354 0.96278 0.99325 0.0
C154 C 0.93267 0.98792 0.01562 0.0
C155 C 0.96348 0.9822 0.04076 0.0
C156 C 0.92622 0.93262 0.99674 0.0
H157 H 0.99879 0.94721 0.06127 0.0
C158 C 0.03632 0.88641 0.04669 0.0
O159 O 0.05827 0.86474 0.80475 0.0
O160 O 0.03812 0.91149 0.82753 0.0
N161 N 0.92354 0.87885 0.97608 0.0
C162 C 0.90809 0.85204 0.95683 0.0
C163 C 0.87665 0.8536 0.93286 0.0
C164 C 0.86145 0.88269 0.92895 0.0
C165 C 0.87776 0.90995 0.94984 0.0
C166 C 0.90891 0.90688 0.97446 0.0
H167 H 0.91967 0.82964 0.95977 0.0
O168 O 0.98801 0.87218 0.78632 0.0
O169 O 0.98138 0.89045 0.90772 0.0
O170 O 0.00776 0.8288 0.91114 0.0
O171 O 0.97351 0.83792 0.01186 0.0
C172 C 0.86447 0.94006 0.94612 0.0
C173 C 0.8824 0.96647 0.9674 0.0
H174 H 0.92394 0.01169 0.01389 0.0
H175 H 0.97829 1.00148 0.05866 0.0
H176 H 0.86421 0.83247 0.91697 0.0
H177 H 0.83732 0.88384 0.90951 0.0
H178 H 0.84054 0.94319 0.92648 0.0
H179 H 0.87199 0.98952 0.96383 0.0
Mn180 Mn 0.63074 0.01713 0.37974 0.0
Mn181 Mn 0.62239 0.96056 0.51864 0.0
C182 C 0.62245 0.96532 0.33993 0.0
C183 C 0.60666 0.0541 0.29656 0.0
C184 C 0.6853 0.98857 0.47455 0.0
O185 O 0.62139 0.04249 0.4815 0.0
O186 O 0.61593 0.00237 0.56752 0.0
C187 C 0.55446 0.97031 0.54388 0.0
N188 N 0.57865 0.9512 0.52299 0.0
C189 C 0.5434 0.90867 0.49571 0.0
C190 C 0.51814 0.92787 0.51695 0.0
C191 C 0.52372 0.95881 0.54126 0.0
C192 C 0.57349 0.92151 0.49866 0.0
H193 H 0.55855 0.99417 0.56227 0.0
C194 C 0.61616 0.03167 0.55197 0.0
O195 O 0.63636 0.056 0.31248 0.0
O196 O 0.59135 0.03157 0.33006 0.0
N197 N 0.62741 0.91858 0.48104 0.0
C198 C 0.65448 0.90214 0.47256 0.0
C199 C 0.65323 0.86992 0.45666 0.0
C200 C 0.62415 0.85494 0.44948 0.0
C201 C 0.5966 0.87218 0.46011 0.0
C202 C 0.59936 0.90402 0.47837 0.0
H203 H 0.67685 0.91342 0.47926 0.0
O204 O 0.6355 0.98525 0.29176 0.0
O205 O 0.61562 0.97648 0.41041 0.0
O206 O 0.67486 0.00802 0.42246 0.0
O207 O 0.66806 0.96912 0.51313 0.0
C208 C 0.56655 0.85882 0.45589 0.0
C209 C 0.53992 0.87715 0.47276 0.0
H210 H 0.49441 0.91905 0.51539 0.0
H211 H 0.50436 0.97371 0.55825 0.0
H212 H 0.67462 0.85669 0.44958 0.0
H213 H 0.62327 0.83014 0.43645 0.0
H214 H 0.56367 0.83436 0.44069 0.0
H215 H 0.51694 0.8666 0.46969 0.0
Mn216 Mn 0.48342 0.63363 0.86372 0.0
Mn217 Mn 0.53827 0.62274 1.00586 0.0
C218 C 0.53466 0.62131 0.82707 0.0
C219 C 0.44517 0.61161 0.78099 0.0
C220 C 0.51252 0.68673 0.9604 0.0
O221 O 0.45751 0.62673 0.96627 0.0
O222 O 0.49637 0.61448 0.05238 0.0
C223 C 0.53115 0.55432 0.02737 0.0
N224 N 0.54934 0.57939 0.00819 0.0
C225 C 0.5934 0.54608 0.98027 0.0
C226 C 0.57518 0.51994 0.99999 0.0
C227 C 0.54396 0.52409 0.0239 0.0
C228 C 0.57943 0.57563 0.98525 0.0
H229 H 0.50704 0.55735 0.04504 0.0
C230 C 0.46732 0.61763 0.03524 0.0
O231 O 0.44541 0.6415 0.79523 0.0
O232 O 0.46608 0.59488 0.81686 0.0
N233 N 0.57989 0.62961 0.96734 0.0
C234 C 0.59422 0.65719 0.94937 0.0
C235 C 0.62582 0.65717 0.92632 0.0
C236 C 0.64234 0.62883 0.92203 0.0
C237 C 0.62716 0.60076 0.94142 0.0
C238 C 0.59577 0.60228 0.9651 0.0
H239 H 0.58166 0.67904 0.95272 0.0
O240 O 0.516 0.63468 0.77619 0.0
O241 O 0.52258 0.61639 0.89747 0.0
O242 O 0.49554 0.6776 0.90164 0.0
O243 O 0.52839 0.66814 1.00497 0.0
C244 C 0.64177 0.57128 0.93662 0.0
C245 C 0.62484 0.54395 0.95553 0.0
H246 H 0.58491 0.49657 0.99701 0.0
H247 H 0.52987 0.50402 0.0397 0.0
H248 H 0.63737 0.67893 0.91153 0.0
H249 H 0.6666 0.62887 0.90329 0.0
H250 H 0.66592 0.56935 0.91762 0.0
H251 H 0.63623 0.5214 0.95086 0.0
Mn252 Mn 0.87146 0.48394 0.368 0.0
Mn253 Mn 0.88474 0.53873 0.50891 0.0
C254 C 0.88388 0.53496 0.32956 0.0
C255 C 0.89222 0.4453 0.28438 0.0
C256 C 0.81995 0.51348 0.46931 0.0
O257 O 0.87906 0.45804 0.46989 0.0
O258 O 0.89293 0.49671 0.55498 0.0
C259 C 0.95325 0.53095 0.52703 0.0
N260 N 0.92824 0.54929 0.50831 0.0
C261 C 0.96171 0.59319 0.48013 0.0
C262 C 0.9878 0.5748 0.4992 0.0
C263 C 0.98353 0.54359 0.52303 0.0
C264 C 0.9321 0.57938 0.48555 0.0
H265 H 0.9501 0.50689 0.54504 0.0
C266 C 0.88901 0.46772 0.53811 0.0
O267 O 0.86248 0.44589 0.30042 0.0
O268 O 0.9095 0.46609 0.31879 0.0
N269 N 0.87799 0.58046 0.47116 0.0
C270 C 0.85038 0.59524 0.4562 0.0
C271 C 0.8505 0.62695 0.43425 0.0
C272 C 0.87897 0.64316 0.42813 0.0
C273 C 0.90707 0.62755 0.44475 0.0
C274 C 0.90546 0.59604 0.46727 0.0
H275 H 0.82843 0.58294 0.46119 0.0
O276 O 0.86967 0.51627 0.28032 0.0
O277 O 0.88966 0.52302 0.39977 0.0
O278 O 0.82806 0.49657 0.40937 0.0
O279 O 0.83927 0.52939 0.51158 0.0
C280 C 0.93662 0.64193 0.43892 0.0
C281 C 0.96394 0.62471 0.4562 0.0
H282 H 0.0112 0.58443 0.4961 0.0
H283 H 0.00356 0.52941 0.53859 0.0
H284 H 0.82872 0.63886 0.4218 0.0
H285 H 0.87899 0.66753 0.41043 0.0
H286 H 0.93862 0.66618 0.42083 0.0
H287 H 0.98653 0.63598 0.45123 0.0
Mn288 Mn 0.9843 0.37121 0.86823 0.0
Mn289 Mn 0.03863 0.38413 0.01031 0.0
C290 C 0.03538 0.38392 0.83135 0.0
C291 C 0.946 0.3923 0.78422 0.0
C292 C 0.01362 0.31941 0.96915 0.0
O293 O 0.95808 0.37858 0.96981 0.0
O294 O 0.9965 0.39201 0.05617 0.0
C295 C 0.03039 0.45255 0.02873 0.0
N296 N 0.04895 0.42766 0.01032 0.0
C297 C 0.09235 0.46149 0.97999 0.0
C298 C 0.07373 0.48746 0.99881 0.0
C299 C 0.04267 0.48295 0.02365 0.0
C300 C 0.07892 0.43175 0.98675 0.0
H301 H 0.00639 0.44922 0.04708 0.0
C302 C 0.96757 0.38822 0.03854 0.0
O303 O 0.94648 0.3625 0.79962 0.0
O304 O 0.96672 0.40943 0.81941 0.0
N305 N 0.08037 0.37765 0.97226 0.0
C306 C 0.09516 0.35018 0.95572 0.0
C307 C 0.12669 0.35056 0.93211 0.0
C308 C 0.14267 0.37915 0.92574 0.0
C309 C 0.12701 0.40711 0.94363 0.0
C310 C 0.09571 0.40523 0.96797 0.0
H311 H 0.083 0.32814 0.9606 0.0
O312 O 0.01701 0.36977 0.78118 0.0
O313 O 0.02311 0.38928 0.90136 0.0
O314 O 0.99681 0.32769 0.90915 0.0
O315 O 0.02945 0.33862 0.01199 0.0
C316 C 0.14105 0.43679 0.93682 0.0
C317 C 0.12368 0.46397 0.95454 0.0
H318 H 0.08304 0.51095 0.99454 0.0
H319 H 0.02829 0.50289 0.03892 0.0
H320 H 0.13862 0.32888 0.91846 0.0
H321 H 0.16687 0.37938 0.90658 0.0
H322 H 0.16511 0.43899 0.91729 0.0
H323 H 0.13464 0.48667 0.94844 0.0
Mn324 Mn 0.13355 0.98314 0.36889 0.0
Mn325 Mn 0.12078 0.03943 0.50598 0.0
C326 C 0.12136 0.03383 0.32676 0.0
C327 C 0.11218 0.94356 0.28963 0.0
C328 C 0.18534 0.01317 0.4676 0.0
O329 O 0.12598 0.95847 0.473 0.0
O330 O 0.11173 0.99805 0.55479 0.0
C331 C 0.0521 0.03265 0.52111 0.0
N332 N 0.07749 0.05066 0.5038 0.0
C333 C 0.04483 0.09474 0.4716 0.0
C334 C 0.01835 0.07671 0.48943 0.0
C335 C 0.02201 0.04556 0.51446 0.0
C336 C 0.07421 0.08064 0.47947 0.0
H337 H 0.05479 0.0086 0.53968 0.0
C338 C 0.11564 0.96888 0.54018 0.0
O339 O 0.14201 0.94415 0.30439 0.0
O340 O 0.09524 0.96508 0.32225 0.0
N341 N 0.12836 0.08068 0.46585 0.0
C342 C 0.15625 0.09483 0.45029 0.0
C343 C 0.15673 0.12636 0.42671 0.0
C344 C 0.12857 0.14303 0.41956 0.0
C345 C 0.10017 0.12807 0.43672 0.0
C346 C 0.10119 0.09672 0.46104 0.0
H347 H 0.17798 0.08219 0.45608 0.0
O348 O 0.13523 0.01446 0.27854 0.0
O349 O 0.11581 0.02271 0.39797 0.0
O350 O 0.17711 0.99599 0.40832 0.0
O351 O 0.16611 0.02936 0.50963 0.0
C352 C 0.07087 0.14283 0.42916 0.0
C353 C 0.04321 0.1261 0.44601 0.0
H354 H 0.99509 0.08653 0.48412 0.0
H355 H 1.00166 0.0316 0.52869 0.0
H356 H 0.17875 0.13777 0.41378 0.0
H357 H 0.12901 0.16724 0.40046 0.0
H358 H 0.06933 0.16694 0.40959 0.0
H359 H 0.02081 0.1376 0.43916 0.0
Mn360 Mn 0.52109 0.13115 0.87601 0.0
Mn361 Mn 0.46239 0.12043 1.00734 0.0
C362 C 0.47054 0.12093 0.82877 0.0
C363 C 0.56059 0.1079 0.79944 0.0
C364 C 0.49166 0.18401 0.97228 0.0
O365 O 0.54401 0.1228 0.9826 0.0
O366 O 0.50264 0.10969 0.05942 0.0
C367 C 0.46666 0.05147 0.01958 0.0
N368 N 0.4496 0.0776 1.00317 0.0
C369 C 0.40474 0.04671 0.96707 0.0
C370 C 0.42176 0.01948 0.98407 0.0
C371 C 0.45286 0.02188 0.01034 0.0
C372 C 0.41977 0.07553 0.97705 0.0
H373 H 0.49067 0.05322 0.03909 0.0
C374 C 0.53212 0.1129 0.04866 0.0
O375 O 0.56119 0.13775 0.81422 0.0
O376 O 0.53814 0.09202 0.83125 0.0
N377 N 0.42197 0.12968 0.96424 0.0
C378 C 0.40907 0.15813 0.94826 0.0
C379 C 0.37781 0.1599 0.92292 0.0
C380 C 0.36011 0.13242 0.91453 0.0
C381 C 0.37379 0.10342 0.93215 0.0
C382 C 0.4049 0.10316 0.9583 0.0
H383 H 0.4225 0.17934 0.95509 0.0
O384 O 0.49118 0.134 0.78264 0.0
O385 O 0.48039 0.11503 0.90096 0.0
O386 O 0.50933 0.17521 0.91437 0.0
O387 O 0.47418 0.16535 0.01261 0.0
C388 C 0.358 0.07472 0.92308 0.0
C389 C 0.37356 0.04637 0.93984 0.0
H390 H 0.41124 0.99662 0.9768 0.0
H391 H 0.46615 1.00096 0.0233 0.0
H392 H 0.3674 0.18237 0.90964 0.0
H393 H 0.33612 0.13386 0.89403 0.0
H394 H 0.33404 0.07417 0.90211 0.0
H395 H 0.36135 0.02443 0.93147 0.0
Mn396 Mn 0.37065 0.52066 0.36359 0.0
Mn397 Mn 0.38189 0.46553 0.50488 0.0
C398 C 0.38303 0.46949 0.32586 0.0
C399 C 0.39233 0.55923 0.28114 0.0
C400 C 0.31781 0.49153 0.46131 0.0
O401 O 0.3777 0.54632 0.4664 0.0
O402 O 0.39054 0.5073 0.55155 0.0
C403 C 0.45044 0.47229 0.524 0.0
N404 N 0.42519 0.45421 0.50587 0.0
C405 C 0.45812 0.40995 0.47715 0.0
C406 C 0.48444 0.42804 0.49583 0.0
C407 C 0.48057 0.45931 0.51954 0.0
C408 C 0.42867 0.42409 0.48294 0.0
H409 H 0.44761 0.49644 0.54154 0.0
C410 C 0.38718 0.53639 0.53492 0.0
O411 O 0.36249 0.55885 0.2959 0.0
O412 O 0.40922 0.53827 0.31633 0.0
N413 N 0.37465 0.42399 0.46632 0.0
C414 C 0.34693 0.40983 0.4491 0.0
C415 C 0.34667 0.37821 0.42628 0.0
C416 C 0.37488 0.36149 0.42146 0.0
C417 C 0.4031 0.37649 0.44007 0.0
C418 C 0.40186 0.40792 0.46356 0.0
H419 H 0.32517 0.42253 0.45293 0.0
O420 O 0.36951 0.4883 0.27557 0.0
O421 O 0.38802 0.48139 0.39641 0.0
O422 O 0.32681 0.50839 0.40212 0.0
O423 O 0.33651 0.47564 0.50554 0.0
C424 C 0.43246 0.36169 0.43462 0.0
C425 C 0.45996 0.37847 0.45261 0.0
H426 H 0.50773 0.41818 0.49213 0.0
H427 H 0.5008 0.47332 0.53442 0.0
H428 H 0.32479 0.3668 0.41208 0.0
H429 H 0.37461 0.33722 0.40289 0.0
H430 H 0.43417 0.33752 0.41576 0.0
H431 H 0.48242 0.36695 0.44736 0.0
Mn432 Mn 0.98289 0.13392 0.14806 0.0
Mn433 Mn 0.03791 0.12294 1.00636 0.0
C434 C 0.0339 0.12124 0.18523 0.0
C435 C 0.9441 0.11136 0.22834 0.0
C436 C 0.01283 0.18709 0.05275 0.0
O437 O 0.95718 0.12768 0.04541 0.0
O438 O 0.99601 0.11568 0.95884 0.0
C439 C 0.02932 0.05479 0.98356 0.0
N440 N 0.04804 0.07938 1.00329 0.0
C441 C 0.09108 0.04498 0.0325 0.0
C442 C 0.07231 0.01931 0.0121 0.0
C443 C 0.04133 0.02425 0.9873 0.0
C444 C 0.07789 0.07487 0.02718 0.0
H445 H 0.00536 0.05843 0.96539 0.0
C446 C 0.96698 0.119 0.97613 0.0
O447 O 0.94453 0.14138 0.21599 0.0
O448 O 0.96541 0.09496 0.19305 0.0
N449 N 0.07954 0.12879 0.04564 0.0
C450 C 0.09441 0.156 0.06428 0.0
C451 C 0.12586 0.15519 0.08841 0.0
C452 C 0.14166 0.12644 0.09315 0.0
C453 C 0.12593 0.09877 0.07305 0.0
C454 C 0.09474 0.10108 0.04818 0.0
H455 H 0.08238 0.17814 0.06071 0.0
O456 O 0.01515 0.13454 0.23612 0.0
O457 O 0.02199 0.11656 0.11455 0.0
O458 O 0.99542 0.17796 0.11088 0.0
O459 O 0.02883 0.16849 0.00843 0.0
C460 C 0.13976 0.06894 0.07822 0.0
C461 C 0.12229 0.04205 0.05845 0.0
H462 H 0.08142 0.99571 0.01536 0.0
H463 H 0.02676 0.00456 0.97121 0.0
H464 H 0.13785 0.17664 0.10377 0.0
H465 H 0.16579 0.12588 0.11278 0.0
H466 H 0.16373 0.06639 0.09813 0.0
H467 H 0.13309 0.01922 0.06344 0.0
Mn468 Mn 0.36971 0.98335 0.65207 0.0
Mn469 Mn 0.38215 0.03658 0.50654 0.0
C470 C 0.38247 0.03477 0.68517 0.0
C471 C 0.39049 0.94586 0.73897 0.0
C472 C 0.31754 0.01251 0.5516 0.0
O473 O 0.37724 0.95616 0.55208 0.0
O474 O 0.38944 0.99406 0.46284 0.0
C475 C 0.45039 0.02721 0.4874 0.0
N476 N 0.42581 0.04635 0.50461 0.0
C477 C 0.46035 0.08939 0.53261 0.0
C478 C 0.48601 0.07017 0.51487 0.0
C479 C 0.48099 0.03898 0.49194 0.0
C480 C 0.43039 0.07641 0.52664 0.0
H481 H 0.44669 0.00309 0.47073 0.0
C482 C 0.38634 0.96522 0.48236 0.0
O483 O 0.36074 0.94628 0.72314 0.0
O484 O 0.40781 0.96614 0.70249 0.0
N485 N 0.37638 0.07868 0.54267 0.0
C486 C 0.3492 0.09389 0.5599 0.0
C487 C 0.35013 0.12551 0.58255 0.0
C488 C 0.37895 0.14113 0.58737 0.0
C489 C 0.4066 0.12503 0.56893 0.0
C490 C 0.40418 0.09368 0.54548 0.0
H491 H 0.32699 0.08199 0.55641 0.0
O492 O 0.36832 0.01697 0.73678 0.0
O493 O 0.38772 0.02181 0.61602 0.0
O494 O 0.32623 0.99555 0.61089 0.0
O495 O 0.33649 0.02799 0.50707 0.0
C496 C 0.4365 0.13867 0.57449 0.0
C497 C 0.46337 0.12081 0.55677 0.0
H498 H 0.50965 0.0791 0.51876 0.0
H499 H 0.50068 0.02406 0.47798 0.0
H500 H 0.32869 0.13777 0.59676 0.0
H501 H 0.3796 0.1654 0.60588 0.0
H502 H 0.43912 0.16278 0.59322 0.0
H503 H 0.48624 0.13145 0.56213 0.0
Mn504 Mn 0.52294 0.36893 0.15514 0.0
Mn505 Mn 0.46851 0.38047 0.0123 0.0
C506 C 0.47165 0.38143 0.19132 0.0
C507 C 0.56115 0.39061 0.23863 0.0
C508 C 0.49376 0.3162 0.05707 0.0
O509 O 0.54915 0.37593 0.05313 0.0
O510 O 0.51057 0.38857 0.96655 0.0
C511 C 0.47613 0.4489 0.99208 0.0
N512 N 0.45772 0.4239 0.01051 0.0
C513 C 0.4138 0.45742 0.03818 0.0
C514 C 0.43225 0.48349 0.01923 0.0
C515 C 0.4635 0.47919 0.99582 0.0
C516 C 0.4276 0.42779 0.03298 0.0
H517 H 0.50027 0.44575 0.97479 0.0
C518 C 0.53956 0.38521 0.98413 0.0
O519 O 0.56079 0.36075 0.22408 0.0
O520 O 0.54037 0.40749 0.20277 0.0
N521 N 0.42674 0.37378 0.04994 0.0
C522 C 0.41217 0.34624 0.067 0.0
C523 C 0.38049 0.3464 0.08934 0.0
C524 C 0.36414 0.37483 0.09385 0.0
C525 C 0.37957 0.40286 0.07537 0.0
C526 C 0.41103 0.4012 0.05235 0.0
H527 H 0.42459 0.32431 0.06345 0.0
O528 O 0.49016 0.36784 0.24219 0.0
O529 O 0.48391 0.38647 0.12115 0.0
O530 O 0.51065 0.3251 0.11627 0.0
O531 O 0.4781 0.33499 0.01258 0.0
C532 C 0.36514 0.43241 0.0804 0.0
C533 C 0.38231 0.45969 0.06233 0.0
H534 H 0.42266 0.50691 0.02239 0.0
H535 H 0.47776 0.49922 0.9806 0.0
H536 H 0.36875 0.32467 0.10342 0.0
H537 H 0.33983 0.37489 0.11204 0.0
H538 H 0.34094 0.43445 0.09891 0.0
H539 H 0.37105 0.4823 0.06716 0.0
Mn540 Mn 0.13395 0.5227 0.64722 0.0
Mn541 Mn 0.12098 0.467 0.5087 0.0
C542 C 0.12191 0.47183 0.68781 0.0
C543 C 0.11236 0.56186 0.72795 0.0
C544 C 0.18567 0.49284 0.54719 0.0
O545 O 0.1263 0.54785 0.54404 0.0
O546 O 0.11232 0.50865 0.46078 0.0
C547 C 0.05236 0.47427 0.49297 0.0
N548 N 0.07759 0.4561 0.51072 0.0
C549 C 0.04452 0.41233 0.54309 0.0
C550 C 0.0182 0.43054 0.52494 0.0
C551 C 0.02216 0.4616 0.49951 0.0
C552 C 0.07403 0.42617 0.53514 0.0
H553 H 0.05526 0.49826 0.47407 0.0
C554 C 0.1162 0.53776 0.47637 0.0
O555 O 0.14221 0.56145 0.71306 0.0
O556 O 0.09557 0.54039 0.69476 0.0
N557 N 0.12819 0.42557 0.54817 0.0
C558 C 0.15595 0.41117 0.56365 0.0
C559 C 0.15613 0.37966 0.58748 0.0
C560 C 0.12781 0.36329 0.59504 0.0
C561 C 0.09955 0.37853 0.57803 0.0
C562 C 0.10086 0.40983 0.55344 0.0
H563 H 0.17779 0.42359 0.55767 0.0
O564 O 0.13581 0.49096 0.73653 0.0
O565 O 0.11621 0.48331 0.61709 0.0
O566 O 0.17752 0.51003 0.60667 0.0
O567 O 0.16637 0.47672 0.5053 0.0
C568 C 0.07011 0.36406 0.5859 0.0
C569 C 0.0426 0.38102 0.56896 0.0
H570 H 0.99486 0.42091 0.53021 0.0
H571 H 1.00194 0.47566 0.48486 0.0
H572 H 0.17804 0.36804 0.60034 0.0
H573 H 0.12803 0.3391 0.61433 0.0
H574 H 0.06835 0.34 0.60568 0.0
H575 H 0.02009 0.36974 0.57591 0.0
C576 C 0.98911 0.74344 0.08678 0.0
C577 C 0.9897 0.72045 0.02625 0.0
C578 C 0.98829 0.7754 0.06729 0.0
C579 C 0.98895 0.78556 0.9866 0.0
H580 H 0.98902 0.73666 0.14965 0.0
H581 H 0.9879 0.79231 0.11585 0.0
S582 S 0.99087 0.73471 0.80581 0.0
N583 N 0.99061 0.71004 0.88234 0.0
N584 N 0.99013 0.77004 0.84591 0.0
C585 C 0.98969 0.76281 0.92559 0.0
C586 C 0.98976 0.73029 0.94537 0.0
C587 C 0.73694 0.96211 0.49678 0.0
C588 C 0.71903 0.98966 0.49422 0.0
C589 C 0.76896 0.96293 0.51566 0.0
C590 C 0.78399 0.9912 0.53535 0.0
H591 H 0.72629 0.93983 0.48278 0.0
H592 H 0.78188 0.94119 0.5157 0.0
S593 S 0.74719 0.06981 0.53809 0.0
N594 N 0.71856 0.04597 0.51224 0.0
N595 N 0.77832 0.04749 0.55038 0.0
C596 C 0.76616 0.01887 0.53369 0.0
C597 C 0.73382 0.0181 0.51242 0.0
C598 C 0.51292 0.7621 0.08156 0.0
C599 C 0.51288 0.78545 0.02187 0.0
C600 C 0.51349 0.73026 0.06103 0.0
C601 C 0.51317 0.72055 0.98003 0.0
H602 H 0.51281 0.76848 0.1447 0.0
H603 H 0.51352 0.7131 0.10904 0.0
S604 S 0.51287 0.77238 0.80095 0.0
N605 N 0.51291 0.79665 0.87831 0.0
N606 N 0.51299 0.73684 0.83984 0.0
C607 C 0.51298 0.74364 0.91977 0.0
C608 C 0.51315 0.77606 0.94065 0.0
C609 C 0.73121 0.51383 0.45471 0.0
C610 C 0.7217 0.51317 0.53592 0.0
C611 C 0.76301 0.5138 0.43352 0.0
C612 C 0.78649 0.51403 0.49277 0.0
H613 H 0.71393 0.51366 0.40707 0.0
H614 H 0.76926 0.51385 0.37028 0.0
S615 S 0.77396 0.51335 0.71399 0.0
N616 N 0.73834 0.51301 0.67577 0.0
N617 N 0.79802 0.51392 0.63615 0.0
C618 C 0.77728 0.51399 0.57418 0.0
C619 C 0.74494 0.51328 0.5957 0.0
C620 C 0.01442 0.26262 0.93198 0.0
C621 C 0.01423 0.28588 0.99182 0.0
C622 C 0.01466 0.23074 0.95237 0.0
C623 C 0.01382 0.22093 0.03332 0.0
H624 H 0.01466 0.26909 0.8689 0.0
H625 H 0.01483 0.21364 0.90426 0.0
S626 S 0.01282 0.27254 0.21269 0.0
N627 N 0.01347 0.29689 0.13548 0.0
N628 N 0.01294 0.23705 0.17357 0.0
C629 C 0.01346 0.24394 0.09369 0.0
C630 C 0.01396 0.27638 0.073 0.0
C631 C 0.27403 0.01382 0.45079 0.0
C632 C 0.28377 0.01368 0.53177 0.0
C633 C 0.24216 0.01349 0.43041 0.0
C634 C 0.21886 0.0139 0.49024 0.0
H635 H 0.29118 0.01346 0.40274 0.0
H636 H 0.23573 0.01316 0.36733 0.0
S637 S 0.23203 0.01461 0.71111 0.0
N638 N 0.26754 0.01424 0.67202 0.0
N639 N 0.20775 0.01459 0.63386 0.0
C640 C 0.2283 0.01441 0.57139 0.0
C641 C 0.26071 0.014 0.59212 0.0
C642 C 0.49276 0.24085 0.93551 0.0
C643 C 0.49176 0.21752 0.99516 0.0
C644 C 0.4928 0.27271 0.95612 0.0
C645 C 0.49277 0.28241 0.03717 0.0
H646 H 0.49314 0.23445 0.8724 0.0
H647 H 0.49346 0.28989 0.90818 0.0
S648 S 0.4907 0.23053 0.21609 0.0
N649 N 0.49058 0.2063 0.13866 0.0
N650 N 0.4917 0.26608 0.1773 0.0
C651 C 0.49206 0.25931 0.09735 0.0
C652 C 0.49124 0.22691 0.07637 0.0
C653 C 0.2744 0.49094 0.56274 0.0
C654 C 0.28404 0.49103 0.48161 0.0
C655 C 0.24256 0.49182 0.58362 0.0
C656 C 0.21917 0.49191 0.52414 0.0
H657 H 0.29161 0.49088 0.61055 0.0
H658 H 0.23622 0.4921 0.64679 0.0
S659 S 0.23203 0.49145 0.30305 0.0
N660 N 0.26759 0.4911 0.34161 0.0
N661 N 0.20786 0.49175 0.38066 0.0
C662 C 0.2285 0.49144 0.44283 0.0
C663 C 0.26088 0.49129 0.42162 0.0
C664 C 0.08922 0.60009 0.92427 0.0
C665 C 0.05883 0.6109 0.90663 0.0
C666 C 0.1082 0.58673 0.86399 0.0
C667 C 0.09732 0.5838 0.78445 0.0
H668 H 0.09762 0.60007 0.98578 0.0
H669 H 0.13041 0.57653 0.88099 0.0
S670 S 0.02224 0.61329 0.7036 0.0
N671 N 0.02093 0.6217 0.80059 0.0
N672 N 0.05625 0.59598 0.68902 0.0
C673 C 0.06819 0.59669 0.76489 0.0
C674 C 0.04903 0.61043 0.82552 0.0
C675 C 0.91765 0.10759 0.36267 0.0
C676 C 0.92241 0.09576 0.28464 0.0
C677 C 0.90396 0.08895 0.42311 0.0
C678 C 0.89451 0.05795 0.40726 0.0
H679 H 0.92656 0.13046 0.37864 0.0
H680 H 0.9025 0.09831 0.4836 0.0
S681 S 0.89712 0.01852 0.20762 0.0
N682 N 0.91339 0.05295 0.19184 0.0
N683 N 0.88711 0.01821 0.30364 0.0
C684 C 0.89688 0.04703 0.32726 0.0
C685 C 0.911 0.06586 0.26645 0.0
C686 C 0.4521 0.89785 0.8415 0.0
C687 C 0.44262 0.89802 0.92286 0.0
C688 C 0.43371 0.91134 0.78129 0.0
C689 C 0.4048 0.92509 0.79943 0.0
H690 H 0.47467 0.88846 0.82439 0.0
H691 H 0.44287 0.91228 0.72044 0.0
S692 S 0.36802 0.93022 1.00112 0.0
N693 N 0.40143 0.91189 0.01745 0.0
N694 N 0.36656 0.93693 0.90316 0.0
C695 C 0.39393 0.92376 0.87926 0.0
C696 C 0.41289 0.91023 0.94126 0.0
C697 C 0.59381 0.43542 0.28053 0.0
C698 C 0.58221 0.40547 0.29767 0.0
C699 C 0.60755 0.45378 0.34045 0.0
C700 C 0.60985 0.44321 0.42067 0.0
H701 H 0.59098 0.44534 0.22089 0.0
H702 H 0.61517 0.4771 0.32419 0.0
S703 S 0.58413 0.3656 0.49574 0.0
N704 N 0.57523 0.36513 0.39894 0.0
N705 N 0.60072 0.39985 0.51272 0.0
C706 C 0.59986 0.41251 0.43773 0.0
C707 C 0.58608 0.39361 0.37596 0.0
C708 C 0.10809 0.91864 0.15382 0.0
C709 C 0.09735 0.92139 0.23357 0.0
C710 C 0.08911 0.90521 0.09379 0.0
C711 C 0.05886 0.89414 0.11196 0.0
H712 H 0.13016 0.92909 0.13646 0.0
H713 H 0.09735 0.90547 0.0321 0.0
S714 S 0.02275 0.89118 0.31575 0.0
N715 N 0.05664 0.90876 0.32976 0.0
N716 N 0.02132 0.88284 0.21875 0.0
C717 C 0.04927 0.89435 0.19332 0.0
C718 C 0.06842 0.90819 0.25366 0.0
C719 C 0.58644 0.10368 0.66458 0.0
C720 C 0.58202 0.09208 0.743 0.0
C721 C 0.59911 0.08461 0.60354 0.0
C722 C 0.60785 0.05337 0.61913 0.0
H723 H 0.57795 0.12675 0.64885 0.0
H724 H 0.60041 0.0939 0.54294 0.0
S725 S 0.60528 0.0141 0.81928 0.0
N726 N 0.59023 0.04905 0.8355 0.0
N727 N 0.61472 0.01347 0.7229 0.0
C728 C 0.60575 0.04259 0.69943 0.0
C729 C 0.59264 0.06187 0.76077 0.0
C730 C 0.43704 0.59208 0.23924 0.0
C731 C 0.40712 0.58044 0.22225 0.0
C732 C 0.4553 0.60598 0.17927 0.0
C733 C 0.44468 0.60836 0.09912 0.0
H734 H 0.447 0.58917 0.29877 0.0
H735 H 0.47861 0.61363 0.19542 0.0
S736 S 0.36707 0.58258 0.02456 0.0
N737 N 0.3667 0.57353 0.12131 0.0
N738 N 0.40126 0.59927 1.0074 0.0
C739 C 0.41399 0.59832 0.08227 0.0
C740 C 0.39518 0.58441 0.1441 0.0
C741 C 0.91245 0.43643 0.74246 0.0
C742 C 0.92495 0.40688 0.72483 0.0
C743 C 0.89905 0.45494 0.68229 0.0
C744 C 0.89798 0.44488 0.60153 0.0
H745 H 0.91439 0.44597 0.80273 0.0
H746 H 0.8907 0.47798 0.69884 0.0
S747 S 0.9267 0.36861 0.52477 0.0
N748 N 0.93433 0.36756 0.62227 0.0
N749 N 0.9094 0.40253 0.50813 0.0
C750 C 0.90891 0.41457 0.58381 0.0
C751 C 0.92238 0.39554 0.64573 0.0
C752 C 0.95415 0.39729 0.18279 0.0
C753 C 0.94454 0.39707 0.10163 0.0
C754 C 0.93563 0.41074 0.24296 0.0
C755 C 0.90652 0.42411 0.22485 0.0
H756 H 0.97688 0.38827 0.19968 0.0
H757 H 0.94486 0.41207 0.30363 0.0
S758 S 0.86959 0.42844 0.02347 0.0
N759 N 0.90312 0.41032 1.00723 0.0
N760 N 0.86812 0.43533 0.12131 0.0
C761 C 0.8956 0.42242 0.14523 0.0
C762 C 0.91464 0.40891 0.08335 0.0
C763 C 0.0906 0.93968 0.74578 0.0
C764 C 0.07924 0.90951 0.73025 0.0
C765 C 0.10401 0.9578 0.68473 0.0
C766 C 0.10623 0.94673 0.60498 0.0
H767 H 0.08792 0.94992 0.8051 0.0
H768 H 0.11158 0.98125 0.69979 0.0
S769 S 0.08027 0.86875 0.53332 0.0
N770 N 0.07185 0.8687 0.63046 0.0
N771 N 0.09675 0.90292 0.51471 0.0
C772 C 0.09622 0.91593 0.58932 0.0
C773 C 0.08276 0.8973 0.65218 0.0
C774 C 0.60299 0.08147 0.16306 0.0
C775 C 0.59035 0.07499 0.23948 0.0
C776 C 0.58456 0.09518 0.10219 0.0
C777 C 0.55294 0.10294 0.11603 0.0
H778 H 0.62658 0.07415 0.14864 0.0
H779 H 0.59471 0.09824 0.04293 0.0
S780 S 0.51076 0.09494 0.31115 0.0
N781 N 0.54572 0.08016 0.32859 0.0
N782 N 0.51136 0.10649 0.21634 0.0
C783 C 0.54095 0.09852 0.1945 0.0
C784 C 0.55957 0.08438 0.25561 0.0
C785 C 0.39934 0.54809 0.67877 0.0
C786 C 0.39651 0.55893 0.59889 0.0
C787 C 0.4131 0.56641 0.73874 0.0
C788 C 0.42418 0.59659 0.72205 0.0
H789 H 0.39211 0.52462 0.69472 0.0
H790 H 0.41632 0.55632 0.79804 0.0
S791 S 0.42076 0.63721 0.52512 0.0
N792 N 0.4046 0.60279 0.50774 0.0
N793 N 0.43011 0.63743 0.62164 0.0
C794 C 0.4198 0.60869 0.64418 0.0
C795 C 0.40601 0.58983 0.58234 0.0
C796 C 0.93599 0.09671 0.77066 0.0
C797 C 0.90659 0.08381 0.78783 0.0
C798 C 0.95431 0.11 0.83137 0.0
C799 C 0.94423 0.11043 0.91221 0.0
H800 H 0.94558 0.09514 0.71035 0.0
H801 H 0.97727 0.11867 0.81519 0.0
S802 S 0.86845 0.08004 0.98801 0.0
N803 N 0.86746 0.07316 0.89013 0.0
N804 N 0.9021 0.09774 1.00527 0.0
C805 C 0.91408 0.09899 0.92954 0.0
C806 C 0.89523 0.08572 0.86708 0.0
C807 C 0.39638 0.95107 0.339 0.0
C808 C 0.39596 0.94193 0.42058 0.0
C809 C 0.41104 0.93281 0.28019 0.0
C810 C 0.4254 0.90436 0.30003 0.0
H811 H 0.38664 0.97335 0.32076 0.0
H812 H 0.41237 0.94172 0.21916 0.0
S813 S 0.42959 0.86861 0.50293 0.0
N814 N 0.41013 0.90152 0.51713 0.0
N815 N 0.43726 0.86691 0.40546 0.0
C816 C 0.42354 0.89378 0.37998 0.0
C817 C 0.40884 0.91261 0.44054 0.0
C818 C 0.55222 0.39587 0.84001 0.0
C819 C 0.5624 0.39437 0.92066 0.0
C820 C 0.57055 0.40972 0.78005 0.0
C821 C 0.60008 0.42219 0.79764 0.0
H822 H 0.52918 0.38758 0.82342 0.0
H823 H 0.56088 0.41197 0.72001 0.0
S824 S 0.63884 0.42266 0.99708 0.0
N825 N 0.60497 0.40525 0.01369 0.0
N826 N 0.63963 0.43092 0.89988 0.0
C827 C 0.61161 0.41913 0.87646 0.0
C828 C 0.59273 0.40525 0.93824 0.0
C829 C 0.10569 0.54973 0.33177 0.0
C830 C 0.10715 0.56027 0.41209 0.0
C831 C 0.09261 0.56817 0.27092 0.0
C832 C 0.08083 0.59813 0.28729 0.0
H833 H 0.11355 0.52644 0.31608 0.0
H834 H 0.0904 0.55829 0.21108 0.0
S835 S 0.07989 0.63751 0.48604 0.0
N836 N 0.09657 0.60336 0.50387 0.0
N837 N 0.07225 0.63816 0.38853 0.0
C838 C 0.08364 0.60983 0.36603 0.0
C839 C 0.09678 0.59088 0.42865 0.0
C840 C 0.89647 0.58893 0.27772 0.0
C841 C 0.90551 0.55802 0.29439 0.0
C842 C 0.91789 0.61035 0.24425 0.0
C843 C 0.94761 0.6004 0.21892 0.0
H844 H 0.87305 0.5967 0.29185 0.0
H845 H 0.91094 0.63448 0.23644 0.0
S846 S 0.98122 0.52108 0.24203 0.0
N847 N 0.94607 0.51863 0.28254 0.0
N848 N 0.98452 0.55746 0.21019 0.0
C849 C 0.95624 0.56921 0.23207 0.0
C850 C 0.93545 0.54823 0.27108 0.0
C851 C 0.89468 0.91943 0.74802 0.0
C852 C 0.90402 0.95005 0.72903 0.0
C853 C 0.91606 0.89794 0.78122 0.0
C854 C 0.94609 0.90762 0.8046 0.0
H855 H 0.87107 0.91189 0.73561 0.0
H856 H 0.90894 0.87391 0.78983 0.0
S857 S 0.98031 0.98647 0.77759 0.0
N858 N 0.94502 0.98907 0.73815 0.0
N859 N 0.9834 0.95024 0.81073 0.0
C860 C 0.9549 0.93868 0.79031 0.0
C861 C 0.93414 0.95967 0.75117 0.0
C862 C 0.55053 0.93078 0.24551 0.0
C863 C 0.5599 0.9006 0.22278 0.0
C864 C 0.57092 0.95084 0.28595 0.0
C865 C 0.6018 0.94189 0.3028 0.0
H866 H 0.52696 0.93875 0.23331 0.0
H867 H 0.56257 0.97381 0.30307 0.0
S868 S 0.63804 0.86562 0.25441 0.0
N869 N 0.60138 0.86189 0.2245 0.0
N870 N 0.64148 0.90168 0.28912 0.0
C871 C 0.61189 0.91218 0.27809 0.0
C872 C 0.59038 0.8909 0.24141 0.0
C873 C 0.61035 0.58725 0.74377 0.0
C874 C 0.60128 0.55644 0.72602 0.0
C875 C 0.58851 0.60897 0.77405 0.0
C876 C 0.55814 0.59945 0.79498 0.0
H877 H 0.6341 0.59473 0.73253 0.0
H878 H 0.59558 0.63301 0.78267 0.0
S879 S 0.52399 0.52064 0.76654 0.0
N880 N 0.55996 0.51766 0.73154 0.0
N881 N 0.5205 0.55706 0.79799 0.0
C882 C 0.54939 0.56839 0.78053 0.0
C883 C 0.57073 0.54709 0.74476 0.0
C884 C 0.11012 0.41814 0.74291 0.0
C885 C 0.10051 0.44862 0.72326 0.0
C886 C 0.08881 0.39651 0.77598 0.0
C887 C 0.05848 0.40587 0.79779 0.0
H888 H 0.13387 0.41082 0.73098 0.0
H889 H 0.09625 0.37265 0.78592 0.0
S890 S 0.02312 0.48396 0.76545 0.0
N891 N 0.05876 0.48697 0.72824 0.0
N892 N 0.02036 0.44787 0.79979 0.0
C893 C 0.04924 0.43668 0.78159 0.0
C894 C 0.07001 0.45782 0.74303 0.0
C895 C 0.08734 0.10912 0.24083 0.0
C896 C 0.05732 0.09938 0.21747 0.0
C897 C 0.1089 0.0876 0.2732 0.0
C898 C 0.09981 0.05678 0.29075 0.0
H899 H 0.09432 0.13323 0.23281 0.0
H900 H 0.13242 0.09528 0.28634 0.0
S901 S 0.02352 0.02024 0.24272 0.0
N902 N 0.02016 0.05662 0.21089 0.0
N903 N 0.05897 0.01759 0.28115 0.0
C904 C 0.06967 0.04712 0.2689 0.0
C905 C 0.04868 0.06822 0.23101 0.0
C906 C 0.39519 0.08825 0.73991 0.0
C907 C 0.40459 0.05809 0.71663 0.0
C908 C 0.41691 0.10951 0.77266 0.0
C909 C 0.44759 0.1 0.7904 0.0
H910 H 0.37118 0.09553 0.73178 0.0
H911 H 0.40948 0.13308 0.78621 0.0
S912 S 0.48354 0.02364 0.73955 0.0
N913 N 0.44708 0.02066 0.70832 0.0
N914 N 0.48646 0.05893 0.77888 0.0
C915 C 0.45701 0.0699 0.76739 0.0
C916 C 0.43572 0.04919 0.72934 0.0
C917 C 0.41763 0.39388 0.24323 0.0
C918 C 0.44817 0.40328 0.22361 0.0
C919 C 0.39578 0.41558 0.27363 0.0
C920 C 0.40496 0.44623 0.29284 0.0
H921 H 0.41044 0.36994 0.23351 0.0
H922 H 0.37193 0.4082 0.28381 0.0
S923 S 0.48284 0.48156 0.25724 0.0
N924 N 0.48619 0.44535 0.22417 0.0
N925 N 0.44667 0.48463 0.29087 0.0
C926 C 0.43571 0.45541 0.27579 0.0
C927 C 0.45709 0.43416 0.23988 0.0
loop_
_geom_bond_atom_site_label_1
_geom_bond_atom_site_label_2
_geom_bond_distance
_geom_bond_site_symmetry_2
_ccdc_geom_bond_type
Mn0 O5 2.095 . S
Mn0 O15 2.162 . S
Mn0 O16 2.297 . S
Mn0 O24 2.385 1_455 S
Mn0 O25 2.209 1_455 S
Mn0 O26 2.094 . S
Mn1 O6 2.121 1_654 S
Mn1 N8 2.257 1_554 S
Mn1 N17 2.282 . S
Mn1 O25 2.215 . S
Mn1 O27 2.117 . S
C2 O24 1.234 . S
C2 O25 1.283 . S
C3 O15 1.281 . S
C3 O16 1.236 . S
C4 O26 1.240 1_655 S
C4 O27 1.264 . S
O5 Mn0 2.095 . S
O5 C14 1.255 . S
O6 Mn1 2.121 1_456 S
O6 C14 1.256 1_556 S
C7 N8 1.326 . S
C7 C11 1.460 . S
C7 H13 0.929 . S
N8 Mn1 2.257 1_556 S
N8 C7 1.326 . S
N8 C12 1.362 . S
C9 C10 1.258 . S
C9 C12 1.431 . S
C9 C29 1.449 . S
C10 C9 1.258 . S
C10 C11 1.477 . S
C10 H30 0.931 . S
C11 C7 1.460 . S
C11 C10 1.477 . S
C11 H31 0.930 . S
C12 N8 1.362 . S
C12 C9 1.431 . S
C12 C22 1.476 1_556 S
H13 C7 0.929 . S
C14 O5 1.255 . S
C14 O6 1.256 1_554 S
O15 Mn0 2.162 . S
O15 C3 1.281 . S
O16 Mn0 2.297 . S
O16 C3 1.236 . S
N17 Mn1 2.282 . S
N17 C18 1.328 . S
N17 C22 1.318 . S
C18 N17 1.328 . S
C18 C19 1.457 . S
C18 H23 0.929 . S
C19 C18 1.457 . S
C19 C20 1.291 . S
C19 H32 0.931 . S
C20 C19 1.291 . S
C20 C21 1.373 . S
C20 H33 0.929 . S
C21 C20 1.373 . S
C21 C22 1.396 . S
C21 C28 1.403 . S
C22 C12 1.476 1_554 S
C22 N17 1.318 . S
C22 C21 1.396 . S
H23 C18 0.929 . S
O24 Mn0 2.385 1_655 S
O24 C2 1.234 . S
O25 Mn0 2.209 1_655 S
O25 Mn1 2.215 . S
O25 C2 1.283 . S
O26 Mn0 2.094 . S
O26 C4 1.240 1_455 S
O27 Mn1 2.117 . S
O27 C4 1.264 . S
C28 C21 1.403 . S
C28 C29 1.399 1_554 S
C28 H34 0.929 . S
C29 C9 1.449 . S
C29 C28 1.399 1_556 S
C29 H35 0.930 . S
H30 C10 0.931 . S
H31 C11 0.930 . S
H32 C19 0.931 . S
H33 C20 0.929 . S
H34 C28 0.929 . S
H35 C29 0.930 . S
Mn36 O41 2.095 . S
Mn36 O51 2.162 . S
Mn36 O52 2.297 . S
Mn36 O60 2.385 1_545 S
Mn36 O61 2.209 1_545 S
Mn36 O62 2.094 . S
Mn37 O42 2.121 1_565 S
Mn37 N44 2.257 . S
Mn37 N53 2.282 . S
Mn37 O61 2.215 . S
Mn37 O63 2.117 . S
C38 O60 1.234 . S
C38 O61 1.283 . S
C39 O51 1.281 . S
C39 O52 1.236 . S
C40 O62 1.240 1_565 S
C40 O63 1.264 . S
O41 Mn36 2.095 . S
O41 C50 1.250 . S
O42 Mn37 2.121 1_545 S
O42 C50 1.258 . S
C43 N44 1.326 . S
C43 C47 1.460 . S
C43 H49 0.929 . S
N44 Mn37 2.257 . S
N44 C43 1.326 . S
N44 C48 1.362 . S
C45 C46 1.258 . S
C45 C48 1.431 . S
C45 C65 1.449 . S
C46 C45 1.258 . S
C46 C47 1.477 . S
C46 H66 0.931 . S
C47 C43 1.460 . S
C47 C46 1.477 . S
C47 H67 0.930 . S
C48 N44 1.362 . S
C48 C45 1.431 . S
C48 C58 1.476 . S
H49 C43 0.929 . S
C50 O41 1.250 . S
C50 O42 1.258 . S
O51 Mn36 2.162 . S
O51 C39 1.281 . S
O52 Mn36 2.297 . S
O52 C39 1.236 . S
N53 Mn37 2.282 . S
N53 C54 1.328 . S
N53 C58 1.318 . S
C54 N53 1.328 . S
C54 C55 1.457 . S
C54 H59 0.929 . S
C55 C54 1.457 . S
C55 C56 1.291 . S
C55 H68 0.931 . S
C56 C55 1.291 . S
C56 C57 1.373 . S
C56 H69 0.929 . S
C57 C56 1.373 . S
C57 C58 1.396 . S
C57 C64 1.403 . S
C58 C48 1.476 . S
C58 N53 1.318 . S
C58 C57 1.396 . S
H59 C54 0.929 . S
O60 Mn36 2.385 1_565 S
O60 C38 1.234 . S
O61 Mn36 2.209 1_565 S
O61 Mn37 2.215 . S
O61 C38 1.283 . S
O62 Mn36 2.094 . S
O62 C40 1.240 1_545 S
O63 Mn37 2.117 . S
O63 C40 1.264 . S
C64 C57 1.403 . S
C64 C65 1.399 . S
C64 H70 0.929 . S
C65 C45 1.449 . S
C65 C64 1.399 . S
C65 H71 0.930 . S
H66 C46 0.931 . S
H67 C47 0.930 . S
H68 C55 0.931 . S
H69 C56 0.929 . S
H70 C64 0.929 . S
H71 C65 0.930 . S
Mn72 O77 2.095 . S
Mn72 O87 2.162 . S
Mn72 O88 2.297 . S
Mn72 O96 2.385 . S
Mn72 O97 2.209 . S
Mn72 O98 2.094 . S
Mn73 O78 2.121 1_554 S
Mn73 N80 2.257 1_554 S
Mn73 N89 2.282 . S
Mn73 O97 2.215 . S
Mn73 O99 2.117 . S
C74 O96 1.234 . S
C74 O97 1.283 . S
C75 O87 1.281 . S
C75 O88 1.236 . S
C76 O98 1.240 . S
C76 O99 1.264 . S
O77 Mn72 2.095 . S
O77 C86 1.255 . S
O78 Mn73 2.121 1_556 S
O78 C86 1.256 1_556 S
C79 N80 1.326 . S
C79 C83 1.460 . S
C79 H85 0.929 . S
N80 Mn73 2.257 1_556 S
N80 C79 1.326 . S
N80 C84 1.362 . S
C81 C82 1.258 . S
C81 C84 1.431 . S
C81 C101 1.449 . S
C82 C81 1.258 . S
C82 C83 1.477 . S
C82 H102 0.931 . S
C83 C79 1.460 . S
C83 C82 1.477 . S
C83 H103 0.930 . S
C84 N80 1.362 . S
C84 C81 1.431 . S
C84 C94 1.476 1_556 S
H85 C79 0.929 . S
C86 O77 1.255 . S
C86 O78 1.256 1_554 S
O87 Mn72 2.162 . S
O87 C75 1.281 . S
O88 Mn72 2.297 . S
O88 C75 1.236 . S
N89 Mn73 2.282 . S
N89 C90 1.328 . S
N89 C94 1.318 . S
C90 N89 1.328 . S
C90 C91 1.457 . S
C90 H95 0.929 . S
C91 C90 1.457 . S
C91 C92 1.291 . S
C91 H104 0.931 . S
C92 C91 1.291 . S
C92 C93 1.373 . S
C92 H105 0.929 . S
C93 C92 1.373 . S
C93 C94 1.396 . S
C93 C100 1.403 . S
C94 C84 1.476 1_554 S
C94 N89 1.318 . S
C94 C93 1.396 . S
H95 C90 0.929 . S
O96 Mn72 2.385 . S
O96 C74 1.234 . S
O97 Mn72 2.209 . S
O97 Mn73 2.215 . S
O97 C74 1.283 . S
O98 Mn72 2.094 . S
O98 C76 1.240 . S
O99 Mn73 2.117 . S
O99 C76 1.264 . S
C100 C93 1.403 . S
C100 C101 1.399 1_554 S
C100 H106 0.929 . S
C101 C81 1.449 . S
C101 C100 1.399 1_556 S
C101 H107 0.930 . S
H102 C82 0.931 . S
H103 C83 0.930 . S
H104 C91 0.931 . S
H105 C92 0.929 . S
H106 C100 0.929 . S
H107 C101 0.930 . S
Mn108 O113 2.095 . S
Mn108 O123 2.162 . S
Mn108 O124 2.297 . S
Mn108 O132 2.385 . S
Mn108 O133 2.209 . S
Mn108 O134 2.094 . S
Mn109 O114 2.121 . S
Mn109 N116 2.257 . S
Mn109 N125 2.282 . S
Mn109 O133 2.215 . S
Mn109 O135 2.117 . S
C110 O132 1.234 . S
C110 O133 1.283 . S
C111 O123 1.281 . S
C111 O124 1.236 . S
C112 O134 1.240 . S
C112 O135 1.264 . S
O113 Mn108 2.095 . S
O113 C122 1.250 . S
O114 Mn109 2.121 . S
O114 C122 1.258 . S
C115 N116 1.326 . S
C115 C119 1.460 . S
C115 H121 0.929 . S
N116 Mn109 2.257 . S
N116 C115 1.326 . S
N116 C120 1.362 . S
C117 C118 1.258 . S
C117 C120 1.431 . S
C117 C137 1.449 . S
C118 C117 1.258 . S
C118 C119 1.477 . S
C118 H138 0.931 . S
C119 C115 1.460 . S
C119 C118 1.477 . S
C119 H139 0.930 . S
C120 N116 1.362 . S
C120 C117 1.431 . S
C120 C130 1.476 . S
H121 C115 0.929 . S
C122 O113 1.250 . S
C122 O114 1.258 . S
O123 Mn108 2.162 . S
O123 C111 1.281 . S
O124 Mn108 2.297 . S
O124 C111 1.236 . S
N125 Mn109 2.282 . S
N125 C126 1.328 . S
N125 C130 1.318 . S
C126 N125 1.328 . S
C126 C127 1.457 . S
C126 H131 0.929 . S
C127 C126 1.457 . S
C127 C128 1.291 . S
C127 H140 0.931 . S
C128 C127 1.291 . S
C128 C129 1.373 . S
C128 H141 0.929 . S
C129 C128 1.373 . S
C129 C130 1.396 . S
C129 C136 1.403 . S
C130 C120 1.476 . S
C130 N125 1.318 . S
C130 C129 1.396 . S
H131 C126 0.929 . S
O132 Mn108 2.385 . S
O132 C110 1.234 . S
O133 Mn108 2.209 . S
O133 Mn109 2.215 . S
O133 C110 1.283 . S
O134 Mn108 2.094 . S
O134 C112 1.240 . S
O135 Mn109 2.117 . S
O135 C112 1.264 . S
C136 C129 1.403 . S
C136 C137 1.399 . S
C136 H142 0.929 . S
C137 C117 1.449 . S
C137 C136 1.399 . S
C137 H143 0.930 . S
H138 C118 0.931 . S
H139 C119 0.930 . S
H140 C127 0.931 . S
H141 C128 0.929 . S
H142 C136 0.929 . S
H143 C137 0.930 . S
Mn144 O149 2.095 . S
Mn144 O159 2.162 . S
Mn144 O160 2.297 . S
Mn144 O168 2.385 1_455 S
Mn144 O169 2.209 1_455 S
Mn144 O170 2.094 . S
Mn145 O150 2.121 1_656 S
Mn145 N152 2.257 1_556 S
Mn145 N161 2.282 . S
Mn145 O169 2.215 . S
Mn145 O171 2.117 . S
C146 O168 1.234 . S
C146 O169 1.283 . S
C147 O159 1.281 . S
C147 O160 1.236 . S
C148 O170 1.240 1_655 S
C148 O171 1.264 . S
O149 Mn144 2.095 . S
O149 C158 1.254 . S
O150 Mn145 2.121 1_454 S
O150 C158 1.256 1_554 S
C151 N152 1.326 . S
C151 C155 1.460 . S
C151 H157 0.929 . S
N152 Mn145 2.257 1_554 S
N152 C151 1.326 . S
N152 C156 1.362 . S
C153 C154 1.258 . S
C153 C156 1.431 . S
C153 C173 1.449 . S
C154 C153 1.258 . S
C154 C155 1.477 . S
C154 H174 0.931 . S
C155 C151 1.460 . S
C155 C154 1.477 . S
C155 H175 0.930 . S
C156 N152 1.362 . S
C156 C153 1.431 . S
C156 C166 1.476 1_554 S
H157 C151 0.929 . S
C158 O149 1.254 . S
C158 O150 1.256 1_556 S
O159 Mn144 2.162 . S
O159 C147 1.281 . S
O160 Mn144 2.297 . S
O160 C147 1.236 . S
N161 Mn145 2.282 . S
N161 C162 1.328 . S
N161 C166 1.318 . S
C162 N161 1.328 . S
C162 C163 1.457 . S
C162 H167 0.929 . S
C163 C162 1.457 . S
C163 C164 1.291 . S
C163 H176 0.931 . S
C164 C163 1.291 . S
C164 C165 1.373 . S
C164 H177 0.929 . S
C165 C164 1.373 . S
C165 C166 1.396 . S
C165 C172 1.403 . S
C166 C156 1.476 1_556 S
C166 N161 1.318 . S
C166 C165 1.396 . S
H167 C162 0.929 . S
O168 Mn144 2.385 1_655 S
O168 C146 1.234 . S
O169 Mn144 2.209 1_655 S
O169 Mn145 2.215 . S
O169 C146 1.283 . S
O170 Mn144 2.094 . S
O170 C148 1.240 1_455 S
O171 Mn145 2.117 . S
O171 C148 1.264 . S
C172 C165 1.403 . S
C172 C173 1.399 1_556 S
C172 H178 0.929 . S
C173 C153 1.449 . S
C173 C172 1.399 1_554 S
C173 H179 0.930 . S
H174 C154 0.931 . S
H175 C155 0.930 . S
H176 C163 0.931 . S
H177 C164 0.929 . S
H178 C172 0.929 . S
H179 C173 0.930 . S
Mn180 O185 2.095 . S
Mn180 O195 2.162 . S
Mn180 O196 2.297 . S
Mn180 O204 2.385 1_545 S
Mn180 O205 2.209 1_545 S
Mn180 O206 2.094 . S
Mn181 O186 2.121 1_565 S
Mn181 N188 2.257 . S
Mn181 N197 2.282 . S
Mn181 O205 2.215 . S
Mn181 O207 2.117 . S
C182 O204 1.234 . S
C182 O205 1.283 . S
C183 O195 1.281 . S
C183 O196 1.236 . S
C184 O206 1.240 1_565 S
C184 O207 1.264 . S
O185 Mn180 2.095 . S
O185 C194 1.250 . S
O186 Mn181 2.121 1_545 S
O186 C194 1.258 . S
C187 N188 1.326 . S
C187 C191 1.460 . S
C187 H193 0.929 . S
N188 Mn181 2.257 . S
N188 C187 1.326 . S
N188 C192 1.362 . S
C189 C190 1.258 . S
C189 C192 1.431 . S
C189 C209 1.449 . S
C190 C189 1.258 . S
C190 C191 1.477 . S
C190 H210 0.931 . S
C191 C187 1.460 . S
C191 C190 1.477 . S
C191 H211 0.930 . S
C192 N188 1.362 . S
C192 C189 1.431 . S
C192 C202 1.476 . S
H193 C187 0.929 . S
C194 O185 1.250 . S
C194 O186 1.258 . S
O195 Mn180 2.162 . S
O195 C183 1.281 . S
O196 Mn180 2.297 . S
O196 C183 1.236 . S
N197 Mn181 2.282 . S
N197 C198 1.328 . S
N197 C202 1.318 . S
C198 N197 1.328 . S
C198 C199 1.457 . S
C198 H203 0.929 . S
C199 C198 1.457 . S
C199 C200 1.291 . S
C199 H212 0.931 . S
C200 C199 1.291 . S
C200 C201 1.373 . S
C200 H213 0.929 . S
C201 C200 1.373 . S
C201 C202 1.396 . S
C201 C208 1.403 . S
C202 C192 1.476 . S
C202 N197 1.318 . S
C202 C201 1.396 . S
H203 C198 0.929 . S
O204 Mn180 2.385 1_565 S
O204 C182 1.234 . S
O205 Mn180 2.209 1_565 S
O205 Mn181 2.215 . S
O205 C182 1.283 . S
O206 Mn180 2.094 . S
O206 C184 1.240 1_545 S
O207 Mn181 2.117 . S
O207 C184 1.264 . S
C208 C201 1.403 . S
C208 C209 1.399 . S
C208 H214 0.929 . S
C209 C189 1.449 . S
C209 C208 1.399 . S
C209 H215 0.930 . S
H210 C190 0.931 . S
H211 C191 0.930 . S
H212 C199 0.931 . S
H213 C200 0.929 . S
H214 C208 0.929 . S
H215 C209 0.930 . S
Mn216 O221 2.095 . S
Mn216 O231 2.162 . S
Mn216 O232 2.297 . S
Mn216 O240 2.385 . S
Mn216 O241 2.209 . S
Mn216 O242 2.094 . S
Mn217 O222 2.121 1_556 S
Mn217 N224 2.257 1_556 S
Mn217 N233 2.282 . S
Mn217 O241 2.215 . S
Mn217 O243 2.117 . S
C218 O240 1.234 . S
C218 O241 1.283 . S
C219 O231 1.281 . S
C219 O232 1.236 . S
C220 O242 1.240 . S
C220 O243 1.264 . S
O221 Mn216 2.095 . S
O221 C230 1.256 . S
O222 Mn217 2.121 1_554 S
O222 C230 1.255 1_554 S
C223 N224 1.326 . S
C223 C227 1.460 . S
C223 H229 0.929 . S
N224 Mn217 2.257 1_554 S
N224 C223 1.326 . S
N224 C228 1.362 . S
C225 C226 1.258 . S
C225 C228 1.431 . S
C225 C245 1.449 . S
C226 C225 1.258 . S
C226 C227 1.477 . S
C226 H246 0.931 . S
C227 C223 1.460 . S
C227 C226 1.477 . S
C227 H247 0.930 . S
C228 N224 1.362 . S
C228 C225 1.431 . S
C228 C238 1.476 1_554 S
H229 C223 0.929 . S
C230 O221 1.256 . S
C230 O222 1.255 1_556 S
O231 Mn216 2.162 . S
O231 C219 1.281 . S
O232 Mn216 2.297 . S
O232 C219 1.236 . S
N233 Mn217 2.282 . S
N233 C234 1.328 . S
N233 C238 1.318 . S
C234 N233 1.328 . S
C234 C235 1.457 . S
C234 H239 0.929 . S
C235 C234 1.457 . S
C235 C236 1.291 . S
C235 H248 0.931 . S
C236 C235 1.291 . S
C236 C237 1.373 . S
C236 H249 0.929 . S
C237 C236 1.373 . S
C237 C238 1.396 . S
C237 C244 1.403 . S
C238 C228 1.476 1_556 S
C238 N233 1.318 . S
C238 C237 1.396 . S
H239 C234 0.929 . S
O240 Mn216 2.385 . S
O240 C218 1.234 . S
O241 Mn216 2.209 . S
O241 Mn217 2.215 . S
O241 C218 1.283 . S
O242 Mn216 2.094 . S
O242 C220 1.240 . S
O243 Mn217 2.117 . S
O243 C220 1.264 . S
C244 C237 1.403 . S
C244 C245 1.399 1_556 S
C244 H250 0.929 . S
C245 C225 1.449 . S
C245 C244 1.399 1_554 S
C245 H251 0.930 . S
H246 C226 0.931 . S
H247 C227 0.930 . S
H248 C235 0.931 . S
H249 C236 0.929 . S
H250 C244 0.929 . S
H251 C245 0.930 . S
Mn252 O257 2.095 . S
Mn252 O267 2.162 . S
Mn252 O268 2.297 . S
Mn252 O276 2.385 . S
Mn252 O277 2.209 . S
Mn252 O278 2.094 . S
Mn253 O258 2.121 . S
Mn253 N260 2.257 . S
Mn253 N269 2.282 . S
Mn253 O277 2.215 . S
Mn253 O279 2.117 . S
C254 O276 1.234 . S
C254 O277 1.283 . S
C255 O267 1.281 . S
C255 O268 1.236 . S
C256 O278 1.240 . S
C256 O279 1.264 . S
O257 Mn252 2.095 . S
O257 C266 1.250 . S
O258 Mn253 2.121 . S
O258 C266 1.258 . S
C259 N260 1.326 . S
C259 C263 1.460 . S
C259 H265 0.929 . S
N260 Mn253 2.257 . S
N260 C259 1.326 . S
N260 C264 1.362 . S
C261 C262 1.258 . S
C261 C264 1.431 . S
C261 C281 1.449 . S
C262 C261 1.258 . S
C262 C263 1.477 . S
C262 H282 0.931 . S
C263 C259 1.460 . S
C263 C262 1.477 . S
C263 H283 0.930 . S
C264 N260 1.362 . S
C264 C261 1.431 . S
C264 C274 1.476 . S
H265 C259 0.929 . S
C266 O257 1.250 . S
C266 O258 1.258 . S
O267 Mn252 2.162 . S
O267 C255 1.281 . S
O268 Mn252 2.297 . S
O268 C255 1.236 . S
N269 Mn253 2.282 . S
N269 C270 1.328 . S
N269 C274 1.318 . S
C270 N269 1.328 . S
C270 C271 1.457 . S
C270 H275 0.929 . S
C271 C270 1.457 . S
C271 C272 1.291 . S
C271 H284 0.931 . S
C272 C271 1.291 . S
C272 C273 1.373 . S
C272 H285 0.929 . S
C273 C272 1.373 . S
C273 C274 1.396 . S
C273 C280 1.403 . S
C274 C264 1.476 . S
C274 N269 1.318 . S
C274 C273 1.396 . S
H275 C270 0.929 . S
O276 Mn252 2.385 . S
O276 C254 1.234 . S
O277 Mn252 2.209 . S
O277 Mn253 2.215 . S
O277 C254 1.283 . S
O278 Mn252 2.094 . S
O278 C256 1.240 . S
O279 Mn253 2.117 . S
O279 C256 1.264 . S
C280 C273 1.403 . S
C280 C281 1.399 . S
C280 H286 0.929 . S
C281 C261 1.449 . S
C281 C280 1.399 . S
C281 H287 0.930 . S
H282 C262 0.931 . S
H283 C263 0.930 . S
H284 C271 0.931 . S
H285 C272 0.929 . S
H286 C280 0.929 . S
H287 C281 0.930 . S
Mn288 O293 2.095 . S
Mn288 O303 2.162 . S
Mn288 O304 2.297 . S
Mn288 O312 2.385 1_655 S
Mn288 O313 2.209 1_655 S
Mn288 O314 2.094 . S
Mn289 O294 2.121 1_456 S
Mn289 N296 2.257 1_556 S
Mn289 N305 2.282 . S
Mn289 O313 2.215 . S
Mn289 O315 2.117 . S
C290 O312 1.234 . S
C290 O313 1.283 . S
C291 O303 1.281 . S
C291 O304 1.236 . S
C292 O314 1.240 1_455 S
C292 O315 1.264 . S
O293 Mn288 2.095 . S
O293 C302 1.255 . S
O294 Mn289 2.121 1_654 S
O294 C302 1.256 1_554 S
C295 N296 1.326 . S
C295 C299 1.460 . S
C295 H301 0.929 . S
N296 Mn289 2.257 1_554 S
N296 C295 1.326 . S
N296 C300 1.362 . S
C297 C298 1.258 . S
C297 C300 1.431 . S
C297 C317 1.449 . S
C298 C297 1.258 . S
C298 C299 1.477 . S
C298 H318 0.931 . S
C299 C295 1.460 . S
C299 C298 1.477 . S
C299 H319 0.930 . S
C300 N296 1.362 . S
C300 C297 1.431 . S
C300 C310 1.476 1_554 S
H301 C295 0.929 . S
C302 O293 1.255 . S
C302 O294 1.256 1_556 S
O303 Mn288 2.162 . S
O303 C291 1.281 . S
O304 Mn288 2.297 . S
O304 C291 1.236 . S
N305 Mn289 2.282 . S
N305 C306 1.328 . S
N305 C310 1.318 . S
C306 N305 1.328 . S
C306 C307 1.457 . S
C306 H311 0.929 . S
C307 C306 1.457 . S
C307 C308 1.291 . S
C307 H320 0.931 . S
C308 C307 1.291 . S
C308 C309 1.373 . S
C308 H321 0.929 . S
C309 C308 1.373 . S
C309 C310 1.396 . S
C309 C316 1.403 . S
C310 C300 1.476 1_556 S
C310 N305 1.318 . S
C310 C309 1.396 . S
H311 C306 0.929 . S
O312 Mn288 2.385 1_455 S
O312 C290 1.234 . S
O313 Mn288 2.209 1_455 S
O313 Mn289 2.215 . S
O313 C290 1.283 . S
O314 Mn288 2.094 . S
O314 C292 1.240 1_655 S
O315 Mn289 2.117 . S
O315 C292 1.264 . S
C316 C309 1.403 . S
C316 C317 1.399 1_556 S
C316 H322 0.929 . S
C317 C297 1.449 . S
C317 C316 1.399 1_554 S
C317 H323 0.930 . S
H318 C298 0.931 . S
H319 C299 0.930 . S
H320 C307 0.931 . S
H321 C308 0.929 . S
H322 C316 0.929 . S
H323 C317 0.930 . S
Mn324 O329 2.095 . S
Mn324 O339 2.162 . S
Mn324 O340 2.297 . S
Mn324 O348 2.385 1_565 S
Mn324 O349 2.209 1_565 S
Mn324 O350 2.094 . S
Mn325 O330 2.121 1_545 S
Mn325 N332 2.257 . S
Mn325 N341 2.282 . S
Mn325 O349 2.215 . S
Mn325 O351 2.117 . S
C326 O348 1.234 . S
C326 O349 1.283 . S
C327 O339 1.281 . S
C327 O340 1.236 . S
C328 O350 1.240 1_545 S
C328 O351 1.264 . S
O329 Mn324 2.095 . S
O329 C338 1.250 . S
O330 Mn325 2.121 1_565 S
O330 C338 1.258 . S
C331 N332 1.326 . S
C331 C335 1.460 . S
C331 H337 0.929 . S
N332 Mn325 2.257 . S
N332 C331 1.326 . S
N332 C336 1.362 . S
C333 C334 1.258 . S
C333 C336 1.431 . S
C333 C353 1.449 . S
C334 C333 1.258 . S
C334 C335 1.477 . S
C334 H354 0.931 . S
C335 C331 1.460 . S
C335 C334 1.477 . S
C335 H355 0.930 . S
C336 N332 1.362 . S
C336 C333 1.431 . S
C336 C346 1.476 . S
H337 C331 0.929 . S
C338 O329 1.250 . S
C338 O330 1.258 . S
O339 Mn324 2.162 . S
O339 C327 1.281 . S
O340 Mn324 2.297 . S
O340 C327 1.236 . S
N341 Mn325 2.282 . S
N341 C342 1.328 . S
N341 C346 1.318 . S
C342 N341 1.328 . S
C342 C343 1.457 . S
C342 H347 0.929 . S
C343 C342 1.457 . S
C343 C344 1.291 . S
C343 H356 0.931 . S
C344 C343 1.291 . S
C344 C345 1.373 . S
C344 H357 0.929 . S
C345 C344 1.373 . S
C345 C346 1.396 . S
C345 C352 1.403 . S
C346 C336 1.476 . S
C346 N341 1.318 . S
C346 C345 1.396 . S
H347 C342 0.929 . S
O348 Mn324 2.385 1_545 S
O348 C326 1.234 . S
O349 Mn324 2.209 1_545 S
O349 Mn325 2.215 . S
O349 C326 1.283 . S
O350 Mn324 2.094 . S
O350 C328 1.240 1_565 S
O351 Mn325 2.117 . S
O351 C328 1.264 . S
C352 C345 1.403 . S
C352 C353 1.399 . S
C352 H358 0.929 . S
C353 C333 1.449 . S
C353 C352 1.399 . S
C353 H359 0.930 . S
H354 C334 0.931 . S
H355 C335 0.930 . S
H356 C343 0.931 . S
H357 C344 0.929 . S
H358 C352 0.929 . S
H359 C353 0.930 . S
Mn360 O365 2.095 . S
Mn360 O375 2.162 . S
Mn360 O376 2.297 . S
Mn360 O384 2.385 . S
Mn360 O385 2.209 . S
Mn360 O386 2.094 . S
Mn361 O366 2.121 1_556 S
Mn361 N368 2.257 1_556 S
Mn361 N377 2.282 . S
Mn361 O385 2.215 . S
Mn361 O387 2.117 . S
C362 O384 1.234 . S
C362 O385 1.283 . S
C363 O375 1.281 . S
C363 O376 1.236 . S
C364 O386 1.240 . S
C364 O387 1.264 . S
O365 Mn360 2.095 . S
O365 C374 1.255 . S
O366 Mn361 2.121 1_554 S
O366 C374 1.256 1_554 S
C367 N368 1.326 . S
C367 C371 1.460 . S
C367 H373 0.929 . S
N368 Mn361 2.257 1_554 S
N368 C367 1.326 . S
N368 C372 1.362 . S
C369 C370 1.258 . S
C369 C372 1.431 . S
C369 C389 1.449 . S
C370 C369 1.258 . S
C370 C371 1.477 . S
C370 H390 0.931 . S
C371 C367 1.460 . S
C371 C370 1.477 . S
C371 H391 0.930 . S
C372 N368 1.362 . S
C372 C369 1.431 . S
C372 C382 1.476 1_554 S
H373 C367 0.929 . S
C374 O365 1.255 . S
C374 O366 1.256 1_556 S
O375 Mn360 2.162 . S
O375 C363 1.281 . S
O376 Mn360 2.297 . S
O376 C363 1.236 . S
N377 Mn361 2.282 . S
N377 C378 1.328 . S
N377 C382 1.318 . S
C378 N377 1.328 . S
C378 C379 1.457 . S
C378 H383 0.929 . S
C379 C378 1.457 . S
C379 C380 1.291 . S
C379 H392 0.931 . S
C380 C379 1.291 . S
C380 C381 1.373 . S
C380 H393 0.929 . S
C381 C380 1.373 . S
C381 C382 1.396 . S
C381 C388 1.403 . S
C382 C372 1.476 1_556 S
C382 N377 1.318 . S
C382 C381 1.396 . S
H383 C378 0.929 . S
O384 Mn360 2.385 . S
O384 C362 1.234 . S
O385 Mn360 2.209 . S
O385 Mn361 2.215 . S
O385 C362 1.283 . S
O386 Mn360 2.094 . S
O386 C364 1.240 . S
O387 Mn361 2.117 . S
O387 C364 1.264 . S
C388 C381 1.403 . S
C388 C389 1.399 1_556 S
C388 H394 0.929 . S
C389 C369 1.449 . S
C389 C388 1.399 1_554 S
C389 H395 0.930 . S
H390 C370 0.931 . S
H391 C371 0.930 . S
H392 C379 0.931 . S
H393 C380 0.929 . S
H394 C388 0.929 . S
H395 C389 0.930 . S
Mn396 O401 2.095 . S
Mn396 O411 2.162 . S
Mn396 O412 2.297 . S
Mn396 O420 2.385 . S
Mn396 O421 2.209 . S
Mn396 O422 2.094 . S
Mn397 O402 2.121 . S
Mn397 N404 2.257 . S
Mn397 N413 2.282 . S
Mn397 O421 2.215 . S
Mn397 O423 2.117 . S
C398 O420 1.234 . S
C398 O421 1.283 . S
C399 O411 1.281 . S
C399 O412 1.236 . S
C400 O422 1.240 . S
C400 O423 1.264 . S
O401 Mn396 2.095 . S
O401 C410 1.250 . S
O402 Mn397 2.121 . S
O402 C410 1.258 . S
C403 N404 1.326 . S
C403 C407 1.460 . S
C403 H409 0.929 . S
N404 Mn397 2.257 . S
N404 C403 1.326 . S
N404 C408 1.362 . S
C405 C406 1.258 . S
C405 C408 1.431 . S
C405 C425 1.449 . S
C406 C405 1.258 . S
C406 C407 1.477 . S
C406 H426 0.931 . S
C407 C403 1.460 . S
C407 C406 1.477 . S
C407 H427 0.930 . S
C408 N404 1.362 . S
C408 C405 1.431 . S
C408 C418 1.476 . S
H409 C403 0.929 . S
C410 O401 1.250 . S
C410 O402 1.258 . S
O411 Mn396 2.162 . S
O411 C399 1.281 . S
O412 Mn396 2.297 . S
O412 C399 1.236 . S
N413 Mn397 2.282 . S
N413 C414 1.328 . S
N413 C418 1.318 . S
C414 N413 1.328 . S
C414 C415 1.457 . S
C414 H419 0.929 . S
C415 C414 1.457 . S
C415 C416 1.291 . S
C415 H428 0.931 . S
C416 C415 1.291 . S
C416 C417 1.373 . S
C416 H429 0.929 . S
C417 C416 1.373 . S
C417 C418 1.396 . S
C417 C424 1.403 . S
C418 C408 1.476 . S
C418 N413 1.318 . S
C418 C417 1.396 . S
H419 C414 0.929 . S
O420 Mn396 2.385 . S
O420 C398 1.234 . S
O421 Mn396 2.209 . S
O421 Mn397 2.215 . S
O421 C398 1.283 . S
O422 Mn396 2.094 . S
O422 C400 1.240 . S
O423 Mn397 2.117 . S
O423 C400 1.264 . S
C424 C417 1.403 . S
C424 C425 1.399 . S
C424 H430 0.929 . S
C425 C405 1.449 . S
C425 C424 1.399 . S
C425 H431 0.930 . S
H426 C406 0.931 . S
H427 C407 0.930 . S
H428 C415 0.931 . S
H429 C416 0.929 . S
H430 C424 0.929 . S
H431 C425 0.930 . S
Mn432 O437 2.095 . S
Mn432 O447 2.162 . S
Mn432 O448 2.297 . S
Mn432 O456 2.385 1_655 S
Mn432 O457 2.209 1_655 S
Mn432 O458 2.094 . S
Mn433 O438 2.121 1_454 S
Mn433 N440 2.257 1_554 S
Mn433 N449 2.282 . S
Mn433 O457 2.215 . S
Mn433 O459 2.117 . S
C434 O456 1.234 . S
C434 O457 1.283 . S
C435 O447 1.281 . S
C435 O448 1.236 . S
C436 O458 1.240 1_455 S
C436 O459 1.264 . S
O437 Mn432 2.095 . S
O437 C446 1.254 . S
O438 Mn433 2.121 1_656 S
O438 C446 1.256 1_556 S
C439 N440 1.326 . S
C439 C443 1.460 . S
C439 H445 0.929 . S
N440 Mn433 2.257 1_556 S
N440 C439 1.326 . S
N440 C444 1.362 . S
C441 C442 1.258 . S
C441 C444 1.431 . S
C441 C461 1.449 . S
C442 C441 1.258 . S
C442 C443 1.477 . S
C442 H462 0.931 . S
C443 C439 1.460 . S
C443 C442 1.477 . S
C443 H463 0.930 . S
C444 N440 1.362 . S
C444 C441 1.431 . S
C444 C454 1.476 1_556 S
H445 C439 0.929 . S
C446 O437 1.254 . S
C446 O438 1.256 1_554 S
O447 Mn432 2.162 . S
O447 C435 1.281 . S
O448 Mn432 2.297 . S
O448 C435 1.236 . S
N449 Mn433 2.282 . S
N449 C450 1.328 . S
N449 C454 1.318 . S
C450 N449 1.328 . S
C450 C451 1.457 . S
C450 H455 0.929 . S
C451 C450 1.457 . S
C451 C452 1.291 . S
C451 H464 0.931 . S
C452 C451 1.291 . S
C452 C453 1.373 . S
C452 H465 0.929 . S
C453 C452 1.373 . S
C453 C454 1.396 . S
C453 C460 1.403 . S
C454 C444 1.476 1_554 S
C454 N449 1.318 . S
C454 C453 1.396 . S
H455 C450 0.929 . S
O456 Mn432 2.385 1_455 S
O456 C434 1.234 . S
O457 Mn432 2.209 1_455 S
O457 Mn433 2.215 . S
O457 C434 1.283 . S
O458 Mn432 2.094 . S
O458 C436 1.240 1_655 S
O459 Mn433 2.117 . S
O459 C436 1.264 . S
C460 C453 1.403 . S
C460 C461 1.399 1_554 S
C460 H466 0.929 . S
C461 C441 1.449 . S
C461 C460 1.399 1_556 S
C461 H467 0.930 . S
H462 C442 0.931 . S
H463 C443 0.930 . S
H464 C451 0.931 . S
H465 C452 0.929 . S
H466 C460 0.929 . S
H467 C461 0.930 . S
Mn468 O473 2.095 . S
Mn468 O483 2.162 . S
Mn468 O484 2.297 . S
Mn468 O492 2.385 1_565 S
Mn468 O493 2.209 1_565 S
Mn468 O494 2.094 . S
Mn469 O474 2.121 1_545 S
Mn469 N476 2.257 . S
Mn469 N485 2.282 . S
Mn469 O493 2.215 . S
Mn469 O495 2.117 . S
C470 O492 1.234 . S
C470 O493 1.283 . S
C471 O483 1.281 . S
C471 O484 1.236 . S
C472 O494 1.240 1_545 S
C472 O495 1.264 . S
O473 Mn468 2.095 . S
O473 C482 1.250 . S
O474 Mn469 2.121 1_565 S
O474 C482 1.258 . S
C475 N476 1.326 . S
C475 C479 1.460 . S
C475 H481 0.929 . S
N476 Mn469 2.257 . S
N476 C475 1.326 . S
N476 C480 1.362 . S
C477 C478 1.258 . S
C477 C480 1.431 . S
C477 C497 1.449 . S
C478 C477 1.258 . S
C478 C479 1.477 . S
C478 H498 0.931 . S
C479 C475 1.460 . S
C479 C478 1.477 . S
C479 H499 0.930 . S
C480 N476 1.362 . S
C480 C477 1.431 . S
C480 C490 1.476 . S
H481 C475 0.929 . S
C482 O473 1.250 . S
C482 O474 1.258 . S
O483 Mn468 2.162 . S
O483 C471 1.281 . S
O484 Mn468 2.297 . S
O484 C471 1.236 . S
N485 Mn469 2.282 . S
N485 C486 1.328 . S
N485 C490 1.318 . S
C486 N485 1.328 . S
C486 C487 1.457 . S
C486 H491 0.929 . S
C487 C486 1.457 . S
C487 C488 1.291 . S
C487 H500 0.931 . S
C488 C487 1.291 . S
C488 C489 1.373 . S
C488 H501 0.929 . S
C489 C488 1.373 . S
C489 C490 1.396 . S
C489 C496 1.403 . S
C490 C480 1.476 . S
C490 N485 1.318 . S
C490 C489 1.396 . S
H491 C486 0.929 . S
O492 Mn468 2.385 1_545 S
O492 C470 1.234 . S
O493 Mn468 2.209 1_545 S
O493 Mn469 2.215 . S
O493 C470 1.283 . S
O494 Mn468 2.094 . S
O494 C472 1.240 1_565 S
O495 Mn469 2.117 . S
O495 C472 1.264 . S
C496 C489 1.403 . S
C496 C497 1.399 . S
C496 H502 0.929 . S
C497 C477 1.449 . S
C497 C496 1.399 . S
C497 H503 0.930 . S
H498 C478 0.931 . S
H499 C479 0.930 . S
H500 C487 0.931 . S
H501 C488 0.929 . S
H502 C496 0.929 . S
H503 C497 0.930 . S
Mn504 O509 2.095 . S
Mn504 O519 2.162 . S
Mn504 O520 2.297 . S
Mn504 O528 2.385 . S
Mn504 O529 2.209 . S
Mn504 O530 2.094 . S
Mn505 O510 2.121 1_554 S
Mn505 N512 2.257 1_554 S
Mn505 N521 2.282 . S
Mn505 O529 2.215 . S
Mn505 O531 2.117 . S
C506 O528 1.234 . S
C506 O529 1.283 . S
C507 O519 1.281 . S
C507 O520 1.236 . S
C508 O530 1.240 . S
C508 O531 1.264 . S
O509 Mn504 2.095 . S
O509 C518 1.256 . S
O510 Mn505 2.121 1_556 S
O510 C518 1.255 1_556 S
C511 N512 1.326 . S
C511 C515 1.460 . S
C511 H517 0.929 . S
N512 Mn505 2.257 1_556 S
N512 C511 1.326 . S
N512 C516 1.362 . S
C513 C514 1.258 . S
C513 C516 1.431 . S
C513 C533 1.449 . S
C514 C513 1.258 . S
C514 C515 1.477 . S
C514 H534 0.931 . S
C515 C511 1.460 . S
C515 C514 1.477 . S
C515 H535 0.930 . S
C516 N512 1.362 . S
C516 C513 1.431 . S
C516 C526 1.476 1_556 S
H517 C511 0.929 . S
C518 O509 1.256 . S
C518 O510 1.255 1_554 S
O519 Mn504 2.162 . S
O519 C507 1.281 . S
O520 Mn504 2.297 . S
O520 C507 1.236 . S
N521 Mn505 2.282 . S
N521 C522 1.328 . S
N521 C526 1.318 . S
C522 N521 1.328 . S
C522 C523 1.457 . S
C522 H527 0.929 . S
C523 C522 1.457 . S
C523 C524 1.291 . S
C523 H536 0.931 . S
C524 C523 1.291 . S
C524 C525 1.373 . S
C524 H537 0.929 . S
C525 C524 1.373 . S
C525 C526 1.396 . S
C525 C532 1.403 . S
C526 C516 1.476 1_554 S
C526 N521 1.318 . S
C526 C525 1.396 . S
H527 C522 0.929 . S
O528 Mn504 2.385 . S
O528 C506 1.234 . S
O529 Mn504 2.209 . S
O529 Mn505 2.215 . S
O529 C506 1.283 . S
O530 Mn504 2.094 . S
O530 C508 1.240 . S
O531 Mn505 2.117 . S
O531 C508 1.264 . S
C532 C525 1.403 . S
C532 C533 1.399 1_554 S
C532 H538 0.929 . S
C533 C513 1.449 . S
C533 C532 1.399 1_556 S
C533 H539 0.930 . S
H534 C514 0.931 . S
H535 C515 0.930 . S
H536 C523 0.931 . S
H537 C524 0.929 . S
H538 C532 0.929 . S
H539 C533 0.930 . S
Mn540 O545 2.095 . S
Mn540 O555 2.162 . S
Mn540 O556 2.297 . S
Mn540 O564 2.385 . S
Mn540 O565 2.209 . S
Mn540 O566 2.094 . S
Mn541 O546 2.121 . S
Mn541 N548 2.257 . S
Mn541 N557 2.282 . S
Mn541 O565 2.215 . S
Mn541 O567 2.117 . S
C542 O564 1.234 . S
C542 O565 1.283 . S
C543 O555 1.281 . S
C543 O556 1.236 . S
C544 O566 1.240 . S
C544 O567 1.264 . S
O545 Mn540 2.095 . S
O545 C554 1.250 . S
O546 Mn541 2.121 . S
O546 C554 1.258 . S
C547 N548 1.326 . S
C547 C551 1.460 . S
C547 H553 0.929 . S
N548 Mn541 2.257 . S
N548 C547 1.326 . S
N548 C552 1.362 . S
C549 C550 1.258 . S
C549 C552 1.431 . S
C549 C569 1.449 . S
C550 C549 1.258 . S
C550 C551 1.477 . S
C550 H570 0.931 . S
C551 C547 1.460 . S
C551 C550 1.477 . S
C551 H571 0.930 . S
C552 N548 1.362 . S
C552 C549 1.431 . S
C552 C562 1.476 . S
H553 C547 0.929 . S
C554 O545 1.250 . S
C554 O546 1.258 . S
O555 Mn540 2.162 . S
O555 C543 1.281 . S
O556 Mn540 2.297 . S
O556 C543 1.236 . S
N557 Mn541 2.282 . S
N557 C558 1.328 . S
N557 C562 1.318 . S
C558 N557 1.328 . S
C558 C559 1.457 . S
C558 H563 0.929 . S
C559 C558 1.457 . S
C559 C560 1.291 . S
C559 H572 0.931 . S
C560 C559 1.291 . S
C560 C561 1.373 . S
C560 H573 0.929 . S
C561 C560 1.373 . S
C561 C562 1.396 . S
C561 C568 1.403 . S
C562 C552 1.476 . S
C562 N557 1.318 . S
C562 C561 1.396 . S
H563 C558 0.929 . S
O564 Mn540 2.385 . S
O564 C542 1.234 . S
O565 Mn540 2.209 . S
O565 Mn541 2.215 . S
O565 C542 1.283 . S
O566 Mn540 2.094 . S
O566 C544 1.240 . S
O567 Mn541 2.117 . S
O567 C544 1.264 . S
C568 C561 1.403 . S
C568 C569 1.399 . S
C568 H574 0.929 . S
C569 C549 1.449 . S
C569 C568 1.399 . S
C569 H575 0.930 . S
H570 C550 0.931 . S
H571 C551 0.930 . S
H572 C559 0.931 . S
H573 C560 0.929 . S
H574 C568 0.929 . S
H575 C569 0.930 . S
C576 C577 1.369 . S
C576 C578 1.419 . S
C576 H580 0.930 . S
C577 C576 1.369 . S
C577 C586 1.424 1_654 S
C578 C576 1.419 . S
C578 C579 1.363 1_554 S
C578 H581 0.929 . S
C579 C578 1.363 1_556 S
C579 C585 1.425 1_655 S
H580 C576 0.930 . S
H581 C578 0.929 . S
S582 N583 1.613 . S
S582 N584 1.610 . S
N583 S582 1.613 . S
N583 C586 1.357 . S
N584 S582 1.610 . S
N584 C585 1.357 . S
C585 C579 1.425 1_455 S
C585 N584 1.357 . S
C585 C586 1.434 . S
C586 C577 1.424 1_456 S
C586 N583 1.357 . S
C586 C585 1.434 . S
C587 C588 1.369 . S
C587 C589 1.419 . S
C587 H591 0.930 . S
C588 C587 1.369 . S
C588 C597 1.429 1_565 S
C589 C587 1.419 . S
C589 C590 1.363 . S
C589 H592 0.929 . S
C590 C589 1.363 . S
C590 C596 1.428 1_565 S
H591 C587 0.930 . S
H592 C589 0.929 . S
S593 N594 1.613 . S
S593 N595 1.610 . S
N594 S593 1.613 . S
N594 C597 1.350 . S
N595 S593 1.610 . S
N595 C596 1.351 . S
C596 C590 1.428 1_545 S
C596 N595 1.351 . S
C596 C597 1.434 . S
C597 C588 1.429 1_545 S
C597 N594 1.350 . S
C597 C596 1.434 . S
C598 C599 1.369 . S
C598 C600 1.419 . S
C598 H602 0.930 . S
C599 C598 1.369 . S
C599 C608 1.429 1_554 S
C600 C598 1.419 . S
C600 C601 1.363 1_554 S
C600 H603 0.929 . S
C601 C600 1.363 1_556 S
C601 C607 1.428 . S
H602 C598 0.930 . S
H603 C600 0.929 . S
S604 N605 1.613 . S
S604 N606 1.610 . S
N605 S604 1.613 . S
N605 C608 1.350 . S
N606 S604 1.610 . S
N606 C607 1.351 . S
C607 C601 1.428 . S
C607 N606 1.351 . S
C607 C608 1.434 . S
C608 C599 1.429 1_556 S
C608 N605 1.350 . S
C608 C607 1.434 . S
C609 C610 1.369 . S
C609 C611 1.419 . S
C609 H613 0.930 . S
C610 C609 1.369 . S
C610 C619 1.429 . S
C611 C609 1.419 . S
C611 C612 1.363 . S
C611 H614 0.929 . S
C612 C611 1.363 . S
C612 C618 1.428 . S
H613 C609 0.930 . S
H614 C611 0.929 . S
S615 N616 1.613 . S
S615 N617 1.610 . S
N616 S615 1.613 . S
N616 C619 1.350 . S
N617 S615 1.610 . S
N617 C618 1.351 . S
C618 C612 1.428 . S
C618 N617 1.351 . S
C618 C619 1.434 . S
C619 C610 1.429 . S
C619 N616 1.350 . S
C619 C618 1.434 . S
C620 C621 1.369 1_655 S
C620 C622 1.419 1_556 S
C620 H624 0.930 . S
C621 C620 1.369 1_455 S
C621 C630 1.429 . S
C622 C620 1.419 1_554 S
C622 C623 1.363 1_655 S
C622 H625 0.929 . S
C623 C622 1.363 1_455 S
C623 C629 1.428 . S
H624 C620 0.930 . S
H625 C622 0.929 . S
S626 N627 1.613 1_554 S
S626 N628 1.610 . S
N627 S626 1.613 1_556 S
N627 C630 1.350 . S
N628 S626 1.610 . S
N628 C629 1.351 . S
C629 C623 1.428 . S
C629 N628 1.351 . S
C629 C630 1.434 1_554 S
C630 C621 1.429 . S
C630 N627 1.350 . S
C630 C629 1.434 1_556 S
C631 C632 1.369 . S
C631 C633 1.419 . S
C631 H635 0.930 . S
C632 C631 1.369 . S
C632 C641 1.429 1_545 S
C633 C631 1.419 . S
C633 C634 1.363 . S
C633 H636 0.929 . S
C634 C633 1.363 . S
C634 C640 1.428 1_545 S
H635 C631 0.930 . S
H636 C633 0.929 . S
S637 N638 1.613 . S
S637 N639 1.610 . S
N638 S637 1.613 . S
N638 C641 1.350 . S
N639 S637 1.610 . S
N639 C640 1.351 . S
C640 C634 1.428 1_565 S
C640 N639 1.351 . S
C640 C641 1.434 . S
C641 C632 1.429 1_565 S
C641 N638 1.350 . S
C641 C640 1.434 . S
C642 C643 1.369 . S
C642 C644 1.419 . S
C642 H646 0.930 . S
C643 C642 1.369 . S
C643 C652 1.429 1_556 S
C644 C642 1.419 . S
C644 C645 1.363 1_556 S
C644 H647 0.929 . S
C645 C644 1.363 1_554 S
C645 C651 1.428 . S
H646 C642 0.930 . S
H647 C644 0.929 . S
S648 N649 1.613 . S
S648 N650 1.610 . S
N649 S648 1.613 . S
N649 C652 1.350 . S
N650 S648 1.610 . S
N650 C651 1.351 . S
C651 C645 1.428 . S
C651 N650 1.351 . S
C651 C652 1.434 . S
C652 C643 1.429 1_554 S
C652 N649 1.350 . S
C652 C651 1.434 . S
C653 C654 1.369 . S
C653 C655 1.419 . S
C653 H657 0.930 . S
C654 C653 1.369 . S
C654 C663 1.429 . S
C655 C653 1.419 . S
C655 C656 1.363 . S
C655 H658 0.929 . S
C656 C655 1.363 . S
C656 C662 1.428 . S
H657 C653 0.930 . S
H658 C655 0.929 . S
S659 N660 1.613 . S
S659 N661 1.610 . S
N660 S659 1.613 . S
N660 C663 1.350 . S
N661 S659 1.610 . S
N661 C662 1.351 . S
C662 C656 1.428 . S
C662 N661 1.351 . S
C662 C663 1.434 . S
C663 C654 1.429 . S
C663 N660 1.350 . S
C663 C662 1.434 . S
C664 C665 1.369 . S
C664 C666 1.419 . S
C664 H668 0.930 . S
C665 C664 1.369 . S
C665 C674 1.429 . S
C666 C664 1.419 . S
C666 C667 1.363 . S
C666 H669 0.929 . S
C667 C666 1.363 . S
C667 C673 1.428 . S
H668 C664 0.930 . S
H669 C666 0.929 . S
S670 N671 1.613 . S
S670 N672 1.610 . S
N671 S670 1.613 . S
N671 C674 1.350 . S
N672 S670 1.610 . S
N672 C673 1.351 . S
C673 C667 1.428 . S
C673 N672 1.351 . S
C673 C674 1.434 . S
C674 C665 1.429 . S
C674 N671 1.350 . S
C674 C673 1.434 . S
C675 C676 1.369 . S
C675 C677 1.419 . S
C675 H679 0.930 . S
C676 C675 1.369 . S
C676 C685 1.429 . S
C677 C675 1.419 . S
C677 C678 1.363 . S
C677 H680 0.929 . S
C678 C677 1.363 . S
C678 C684 1.428 . S
H679 C675 0.930 . S
H680 C677 0.929 . S
S681 N682 1.613 . S
S681 N683 1.610 . S
N682 S681 1.613 . S
N682 C685 1.350 . S
N683 S681 1.610 . S
N683 C684 1.351 . S
C684 C678 1.428 . S
C684 N683 1.351 . S
C684 C685 1.434 . S
C685 C676 1.429 . S
C685 N682 1.350 . S
C685 C684 1.434 . S
C686 C687 1.369 . S
C686 C688 1.419 . S
C686 H690 0.930 . S
C687 C686 1.369 . S
C687 C696 1.429 . S
C688 C686 1.419 . S
C688 C689 1.363 . S
C688 H691 0.929 . S
C689 C688 1.363 . S
C689 C695 1.428 . S
H690 C686 0.930 . S
H691 C688 0.929 . S
S692 N693 1.613 . S
S692 N694 1.610 1_554 S
N693 S692 1.613 . S
N693 C696 1.350 1_554 S
N694 S692 1.610 1_556 S
N694 C695 1.351 . S
C695 C689 1.428 . S
C695 N694 1.351 . S
C695 C696 1.434 . S
C696 C687 1.429 . S
C696 N693 1.350 1_556 S
C696 C695 1.434 . S
C697 C698 1.369 . S
C697 C699 1.419 . S
C697 H701 0.930 . S
C698 C697 1.369 . S
C698 C707 1.429 . S
C699 C697 1.419 . S
C699 C700 1.363 . S
C699 H702 0.929 . S
C700 C699 1.363 . S
C700 C706 1.428 . S
H701 C697 0.930 . S
H702 C699 0.929 . S
S703 N704 1.613 . S
S703 N705 1.610 . S
N704 S703 1.613 . S
N704 C707 1.350 . S
N705 S703 1.610 . S
N705 C706 1.351 . S
C706 C700 1.428 . S
C706 N705 1.351 . S
C706 C707 1.434 . S
C707 C698 1.429 . S
C707 N704 1.350 . S
C707 C706 1.434 . S
C708 C709 1.369 . S
C708 C710 1.419 . S
C708 H712 0.930 . S
C709 C708 1.369 . S
C709 C718 1.429 . S
C710 C708 1.419 . S
C710 C711 1.363 . S
C710 H713 0.929 1_554 S
C711 C710 1.363 . S
C711 C717 1.428 . S
H712 C708 0.930 . S
H713 C710 0.929 1_556 S
S714 N715 1.613 . S
S714 N716 1.610 . S
N715 S714 1.613 . S
N715 C718 1.350 . S
N716 S714 1.610 . S
N716 C717 1.351 . S
C717 C711 1.428 . S
C717 N716 1.351 . S
C717 C718 1.434 . S
C718 C709 1.429 . S
C718 N715 1.350 . S
C718 C717 1.434 . S
C719 C720 1.369 . S
C719 C721 1.419 . S
C719 H723 0.930 . S
C720 C719 1.369 . S
C720 C729 1.429 . S
C721 C719 1.419 . S
C721 C722 1.363 . S
C721 H724 0.929 . S
C722 C721 1.363 . S
C722 C728 1.428 . S
H723 C719 0.930 . S
H724 C721 0.929 . S
S725 N726 1.613 . S
S725 N727 1.610 . S
N726 S725 1.613 . S
N726 C729 1.350 . S
N727 S725 1.610 . S
N727 C728 1.351 . S
C728 C722 1.428 . S
C728 N727 1.351 . S
C728 C729 1.434 . S
C729 C720 1.429 . S
C729 N726 1.350 . S
C729 C728 1.434 . S
C730 C731 1.369 . S
C730 C732 1.419 . S
C730 H734 0.930 . S
C731 C730 1.369 . S
C731 C740 1.429 . S
C732 C730 1.419 . S
C732 C733 1.363 . S
C732 H735 0.929 . S
C733 C732 1.363 . S
C733 C739 1.428 . S
H734 C730 0.930 . S
H735 C732 0.929 . S
S736 N737 1.613 1_556 S
S736 N738 1.610 . S
N737 S736 1.613 1_554 S
N737 C740 1.350 . S
N738 S736 1.610 . S
N738 C739 1.351 1_556 S
C739 C733 1.428 . S
C739 N738 1.351 1_554 S
C739 C740 1.434 . S
C740 C731 1.429 . S
C740 N737 1.350 . S
C740 C739 1.434 . S
C741 C742 1.369 . S
C741 C743 1.419 . S
C741 H745 0.930 . S
C742 C741 1.369 . S
C742 C751 1.429 . S
C743 C741 1.419 . S
C743 C744 1.363 . S
C743 H746 0.929 . S
C744 C743 1.363 . S
C744 C750 1.428 . S
H745 C741 0.930 . S
H746 C743 0.929 . S
S747 N748 1.613 . S
S747 N749 1.610 . S
N748 S747 1.613 . S
N748 C751 1.350 . S
N749 S747 1.610 . S
N749 C750 1.351 . S
C750 C744 1.428 . S
C750 N749 1.351 . S
C750 C751 1.434 . S
C751 C742 1.429 . S
C751 N748 1.350 . S
C751 C750 1.434 . S
C752 C753 1.369 . S
C752 C754 1.419 . S
C752 H756 0.930 . S
C753 C752 1.369 . S
C753 C762 1.429 . S
C754 C752 1.419 . S
C754 C755 1.363 . S
C754 H757 0.929 . S
C755 C754 1.363 . S
C755 C761 1.428 . S
H756 C752 0.930 . S
H757 C754 0.929 . S
S758 N759 1.613 . S
S758 N760 1.610 1_556 S
N759 S758 1.613 . S
N759 C762 1.350 1_556 S
N760 S758 1.610 1_554 S
N760 C761 1.351 . S
C761 C755 1.428 . S
C761 N760 1.351 . S
C761 C762 1.434 . S
C762 C753 1.429 . S
C762 N759 1.350 1_554 S
C762 C761 1.434 . S
C763 C764 1.369 . S
C763 C765 1.419 . S
C763 H767 0.930 . S
C764 C763 1.369 . S
C764 C773 1.429 . S
C765 C763 1.419 . S
C765 C766 1.363 . S
C765 H768 0.929 . S
C766 C765 1.363 . S
C766 C772 1.428 . S
H767 C763 0.930 . S
H768 C765 0.929 . S
S769 N770 1.613 . S
S769 N771 1.610 . S
N770 S769 1.613 . S
N770 C773 1.350 . S
N771 S769 1.610 . S
N771 C772 1.351 . S
C772 C766 1.428 . S
C772 N771 1.351 . S
C772 C773 1.434 . S
C773 C764 1.429 . S
C773 N770 1.350 . S
C773 C772 1.434 . S
C774 C775 1.369 . S
C774 C776 1.419 . S
C774 H778 0.930 . S
C775 C774 1.369 . S
C775 C784 1.429 . S
C776 C774 1.419 . S
C776 C777 1.363 . S
C776 H779 0.929 . S
C777 C776 1.363 . S
C777 C783 1.428 . S
H778 C774 0.930 . S
H779 C776 0.929 . S
S780 N781 1.613 . S
S780 N782 1.610 . S
N781 S780 1.613 . S
N781 C784 1.350 . S
N782 S780 1.610 . S
N782 C783 1.351 . S
C783 C777 1.428 . S
C783 N782 1.351 . S
C783 C784 1.434 . S
C784 C775 1.429 . S
C784 N781 1.350 . S
C784 C783 1.434 . S
C785 C786 1.369 . S
C785 C787 1.419 . S
C785 H789 0.930 . S
C786 C785 1.369 . S
C786 C795 1.429 . S
C787 C785 1.419 . S
C787 C788 1.363 . S
C787 H790 0.929 . S
C788 C787 1.363 . S
C788 C794 1.428 . S
H789 C785 0.930 . S
H790 C787 0.929 . S
S791 N792 1.613 . S
S791 N793 1.610 . S
N792 S791 1.613 . S
N792 C795 1.350 . S
N793 S791 1.610 . S
N793 C794 1.351 . S
C794 C788 1.428 . S
C794 N793 1.351 . S
C794 C795 1.434 . S
C795 C786 1.429 . S
C795 N792 1.350 . S
C795 C794 1.434 . S
C796 C797 1.369 . S
C796 C798 1.419 . S
C796 H800 0.930 . S
C797 C796 1.369 . S
C797 C806 1.429 . S
C798 C796 1.419 . S
C798 C799 1.363 . S
C798 H801 0.929 . S
C799 C798 1.363 . S
C799 C805 1.428 . S
H800 C796 0.930 . S
H801 C798 0.929 . S
S802 N803 1.613 1_554 S
S802 N804 1.610 . S
N803 S802 1.613 1_556 S
N803 C806 1.350 . S
N804 S802 1.610 . S
N804 C805 1.351 1_554 S
C805 C799 1.428 . S
C805 N804 1.351 1_556 S
C805 C806 1.434 . S
C806 C797 1.429 . S
C806 N803 1.350 . S
C806 C805 1.434 . S
C807 C808 1.369 . S
C807 C809 1.419 . S
C807 H811 0.930 . S
C808 C807 1.369 . S
C808 C817 1.429 . S
C809 C807 1.419 . S
C809 C810 1.363 . S
C809 H812 0.929 . S
C810 C809 1.363 . S
C810 C816 1.428 . S
H811 C807 0.930 . S
H812 C809 0.929 . S
S813 N814 1.613 . S
S813 N815 1.610 . S
N814 S813 1.613 . S
N814 C817 1.350 . S
N815 S813 1.610 . S
N815 C816 1.351 . S
C816 C810 1.428 . S
C816 N815 1.351 . S
C816 C817 1.434 . S
C817 C808 1.429 . S
C817 N814 1.350 . S
C817 C816 1.434 . S
C818 C819 1.369 . S
C818 C820 1.419 . S
C818 H822 0.930 . S
C819 C818 1.369 . S
C819 C828 1.429 . S
C820 C818 1.419 . S
C820 C821 1.363 . S
C820 H823 0.929 . S
C821 C820 1.363 . S
C821 C827 1.428 . S
H822 C818 0.930 . S
H823 C820 0.929 . S
S824 N825 1.613 . S
S824 N826 1.610 1_554 S
N825 S824 1.613 . S
N825 C828 1.350 1_554 S
N826 S824 1.610 1_556 S
N826 C827 1.351 . S
C827 C821 1.428 . S
C827 N826 1.351 . S
C827 C828 1.434 . S
C828 C819 1.429 . S
C828 N825 1.350 1_556 S
C828 C827 1.434 . S
C829 C830 1.369 . S
C829 C831 1.419 . S
C829 H833 0.930 . S
C830 C829 1.369 . S
C830 C839 1.429 . S
C831 C829 1.419 . S
C831 C832 1.363 . S
C831 H834 0.929 . S
C832 C831 1.363 . S
C832 C838 1.428 . S
H833 C829 0.930 . S
H834 C831 0.929 . S
S835 N836 1.613 . S
S835 N837 1.610 . S
N836 S835 1.613 . S
N836 C839 1.350 . S
N837 S835 1.610 . S
N837 C838 1.351 . S
C838 C832 1.428 . S
C838 N837 1.351 . S
C838 C839 1.434 . S
C839 C830 1.429 . S
C839 N836 1.350 . S
C839 C838 1.434 . S
C840 C841 1.369 . S
C840 C842 1.419 . S
C840 H844 0.930 . S
C841 C840 1.369 . S
C841 C850 1.429 . S
C842 C840 1.419 . S
C842 C843 1.363 . S
C842 H845 0.929 . S
C843 C842 1.363 . S
C843 C849 1.428 . S
H844 C840 0.930 . S
H845 C842 0.929 . S
S846 N847 1.613 . S
S846 N848 1.610 . S
N847 S846 1.613 . S
N847 C850 1.350 . S
N848 S846 1.610 . S
N848 C849 1.351 . S
C849 C843 1.428 . S
C849 N848 1.351 . S
C849 C850 1.434 . S
C850 C841 1.429 . S
C850 N847 1.350 . S
C850 C849 1.434 . S
C851 C852 1.369 . S
C851 C853 1.419 . S
C851 H855 0.930 . S
C852 C851 1.369 . S
C852 C861 1.429 . S
C853 C851 1.419 . S
C853 C854 1.363 . S
C853 H856 0.929 . S
C854 C853 1.363 . S
C854 C860 1.428 . S
H855 C851 0.930 . S
H856 C853 0.929 . S
S857 N858 1.613 . S
S857 N859 1.610 . S
N858 S857 1.613 . S
N858 C861 1.350 . S
N859 S857 1.610 . S
N859 C860 1.351 . S
C860 C854 1.428 . S
C860 N859 1.351 . S
C860 C861 1.434 . S
C861 C852 1.429 . S
C861 N858 1.350 . S
C861 C860 1.434 . S
C862 C863 1.369 . S
C862 C864 1.419 . S
C862 H866 0.930 . S
C863 C862 1.369 . S
C863 C872 1.429 . S
C864 C862 1.419 . S
C864 C865 1.363 . S
C864 H867 0.929 . S
C865 C864 1.363 . S
C865 C871 1.428 . S
H866 C862 0.930 . S
H867 C864 0.929 . S
S868 N869 1.613 . S
S868 N870 1.610 . S
N869 S868 1.613 . S
N869 C872 1.350 . S
N870 S868 1.610 . S
N870 C871 1.351 . S
C871 C865 1.428 . S
C871 N870 1.351 . S
C871 C872 1.434 . S
C872 C863 1.429 . S
C872 N869 1.350 . S
C872 C871 1.434 . S
C873 C874 1.369 . S
C873 C875 1.419 . S
C873 H877 0.930 . S
C874 C873 1.369 . S
C874 C883 1.429 . S
C875 C873 1.419 . S
C875 C876 1.363 . S
C875 H878 0.929 . S
C876 C875 1.363 . S
C876 C882 1.428 . S
H877 C873 0.930 . S
H878 C875 0.929 . S
S879 N880 1.613 . S
S879 N881 1.610 . S
N880 S879 1.613 . S
N880 C883 1.350 . S
N881 S879 1.610 . S
N881 C882 1.351 . S
C882 C876 1.428 . S
C882 N881 1.351 . S
C882 C883 1.434 . S
C883 C874 1.429 . S
C883 N880 1.350 . S
C883 C882 1.434 . S
C884 C885 1.369 . S
C884 C886 1.419 . S
C884 H888 0.930 . S
C885 C884 1.369 . S
C885 C894 1.429 . S
C886 C884 1.419 . S
C886 C887 1.363 . S
C886 H889 0.929 . S
C887 C886 1.363 . S
C887 C893 1.428 . S
H888 C884 0.930 . S
H889 C886 0.929 . S
S890 N891 1.613 . S
S890 N892 1.610 . S
N891 S890 1.613 . S
N891 C894 1.350 . S
N892 S890 1.610 . S
N892 C893 1.351 . S
C893 C887 1.428 . S
C893 N892 1.351 . S
C893 C894 1.434 . S
C894 C885 1.429 . S
C894 N891 1.350 . S
C894 C893 1.434 . S
C895 C896 1.369 . S
C895 C897 1.419 . S
C895 H899 0.930 . S
C896 C895 1.369 . S
C896 C905 1.429 . S
C897 C895 1.419 . S
C897 C898 1.363 . S
C897 H900 0.929 . S
C898 C897 1.363 . S
C898 C904 1.428 . S
H899 C895 0.930 . S
H900 C897 0.929 . S
S901 N902 1.613 . S
S901 N903 1.610 . S
N902 S901 1.613 . S
N902 C905 1.350 . S
N903 S901 1.610 . S
N903 C904 1.351 . S
C904 C898 1.428 . S
C904 N903 1.351 . S
C904 C905 1.434 . S
C905 C896 1.429 . S
C905 N902 1.350 . S
C905 C904 1.434 . S
C906 C907 1.369 . S
C906 C908 1.419 . S
C906 H910 0.930 . S
C907 C906 1.369 . S
C907 C916 1.429 . S
C908 C906 1.419 . S
C908 C909 1.363 . S
C908 H911 0.929 . S
C909 C908 1.363 . S
C909 C915 1.428 . S
H910 C906 0.930 . S
H911 C908 0.929 . S
S912 N913 1.613 . S
S912 N914 1.610 . S
N913 S912 1.613 . S
N913 C916 1.350 . S
N914 S912 1.610 . S
N914 C915 1.351 . S
C915 C909 1.428 . S
C915 N914 1.351 . S
C915 C916 1.434 . S
C916 C907 1.429 . S
C916 N913 1.350 . S
C916 C915 1.434 . S
C917 C918 1.369 . S
C917 C919 1.419 . S
C917 H921 0.930 . S
C918 C917 1.369 . S
C918 C927 1.429 . S
C919 C917 1.419 . S
C919 C920 1.363 . S
C919 H922 0.929 . S
C920 C919 1.363 . S
C920 C926 1.428 . S
H921 C917 0.930 . S
H922 C919 0.929 . S
S923 N924 1.613 . S
S923 N925 1.610 . S
N924 S923 1.613 . S
N924 C927 1.350 . S
N925 S923 1.610 . S
N925 C926 1.351 . S
C926 C920 1.428 . S
C926 N925 1.351 . S
C926 C927 1.434 . S
C927 C918 1.429 . S
C927 N924 1.350 . S
C927 C926 1.434 . S
C577 C4 1.275 . S
C579 C148 1.282 . S
C588 C184 1.280 . S
C590 C40 1.278 . S
C599 C76 1.278 . S
C601 C220 1.280 . S
C610 C112 1.283 . S
C612 C256 1.276 . S
C621 C292 1.280 . S
C623 C436 1.280 . S
C632 C472 1.281 . S
C634 C328 1.277 . S
C643 C364 1.275 . S
C645 C508 1.283 . S
C654 C400 1.281 . S
C656 C544 1.277 . S
C665 C14 1.424 1_556 S
C667 C543 1.438 . S
C676 C435 1.440 . S
C678 C50 1.428 . S
C687 C86 1.428 1_556 S
C689 C471 1.440 . S
C698 C507 1.440 . S
C700 C122 1.431 . S
C709 C327 1.439 . S
C711 C158 1.424 1_554 S
C720 C363 1.437 . S
C722 C194 1.426 . S
C731 C399 1.439 . S
C733 C230 1.426 1_554 S
C742 C291 1.441 . S
C744 C266 1.431 . S
C753 C302 1.428 1_554 S
C755 C255 1.440 . S
C764 C147 1.440 . S
C766 C338 1.428 . S
C775 C183 1.438 . S
C777 C374 1.426 1_554 S
C786 C410 1.429 . S
C788 C219 1.440 . S
C797 C39 1.441 . S
C799 C446 1.428 1_556 S
C808 C482 1.430 . S
C810 C75 1.439 . S
C819 C518 1.426 1_556 S
C821 C111 1.439 . S
C830 C554 1.430 . S
C832 C3 1.440 . S
C841 C254 1.230 . S
C843 C2 1.231 . S
C852 C38 1.229 . S
C854 C146 1.232 . S
C863 C74 1.229 . S
C865 C182 1.236 . S
C874 C110 1.229 . S
C876 C218 1.236 . S
C885 C542 1.230 . S
C887 C290 1.236 . S
C896 C434 1.231 . S
C898 C326 1.236 . S
C907 C470 1.232 . S
C909 C362 1.236 . S
C918 C506 1.229 . S
C920 C398 1.234 . S
