# Generated by pormake.
# Topology soi, (5)-cn, num edge types: 1
# Building blocks:
#     Node 0, Type 0, BuildingBlock: BEQFEK_clean_sbu_0, # of connection points: 5
#     Node 1, Type 0, BuildingBlock: BEQFEK_clean_sbu_0, # of connection points: 5
#     Node 2, Type 0, BuildingBlock: BEQFEK_clean_sbu_0, # of connection points: 5
#     Node 3, Type 0, BuildingBlock: BEQFEK_clean_sbu_0, # of connection points: 5
#     Node 4, Type 0, BuildingBlock: BEQFEK_clean_sbu_0, # of connection points: 5
#     Node 5, Type 0, BuildingBlock: BEQFEK_clean_sbu_0, # of connection points: 5
#     Node 6, Type 0, BuildingBlock: BEQFEK_clean_sbu_0, # of connection points: 5
#     Node 7, Type 0, BuildingBlock: BEQFEK_clean_sbu_0, # of connection points: 5
#     Node 8, Type 0, BuildingBlock: BEQFEK_clean_sbu_0, # of connection points: 5
#     Node 9, Type 0, BuildingBlock: BEQFEK_clean_sbu_0, # of connection points: 5
#     Node 10, Type 0, BuildingBlock: BEQFEK_clean_sbu_0, # of connection points: 5
#     Node 11, Type 0, BuildingBlock: BEQFEK_clean_sbu_0, # of connection points: 5
#     Node 12, Type 0, BuildingBlock: BEQFEK_clean_sbu_0, # of connection points: 5
#     Node 13, Type 0, BuildingBlock: BEQFEK_clean_sbu_0, # of connection points: 5
#     Node 14, Type 0, BuildingBlock: BEQFEK_clean_sbu_0, # of connection points: 5
#     Node 15, Type 0, BuildingBlock: BEQFEK_clean_sbu_0, # of connection points: 5
#     Edge 16, Type (0, 0), BuildingBlock: MIFKUJ_clean_linker_0, # of connection points: 2
#     Edge 17, Type (0, 0), BuildingBlock: MIFKUJ_clean_linker_0, # of connection points: 2
#     Edge 18, Type (0, 0), BuildingBlock: MIFKUJ_clean_linker_0, # of connection points: 2
#     Edge 19, Type (0, 0), BuildingBlock: MIFKUJ_clean_linker_0, # of connection points: 2
#     Edge 20, Type (0, 0), BuildingBlock: MIFKUJ_clean_linker_0, # of connection points: 2
#     Edge 21, Type (0, 0), BuildingBlock: MIFKUJ_clean_linker_0, # of connection points: 2
#     Edge 22, Type (0, 0), BuildingBlock: MIFKUJ_clean_linker_0, # of connection points: 2
#     Edge 23, Type (0, 0), BuildingBlock: MIFKUJ_clean_linker_0, # of connection points: 2
#     Edge 24, Type (0, 0), BuildingBlock: MIFKUJ_clean_linker_0, # of connection points: 2
#     Edge 25, Type (0, 0), BuildingBlock: MIFKUJ_clean_linker_0, # of connection points: 2
#     Edge 26, Type (0, 0), BuildingBlock: MIFKUJ_clean_linker_0, # of connection points: 2
#     Edge 27, Type (0, 0), BuildingBlock: MIFKUJ_clean_linker_0, # of connection points: 2
#     Edge 28, Type (0, 0), BuildingBlock: MIFKUJ_clean_linker_0, # of connection points: 2
#     Edge 29, Type (0, 0), BuildingBlock: MIFKUJ_clean_linker_0, # of connection points: 2
#     Edge 30, Type (0, 0), BuildingBlock: MIFKUJ_clean_linker_0, # of connection points: 2
#     Edge 31, Type (0, 0), BuildingBlock: MIFKUJ_clean_linker_0, # of connection points: 2
#     Edge 32, Type (0, 0), BuildingBlock: MIFKUJ_clean_linker_0, # of connection points: 2
#     Edge 33, Type (0, 0), BuildingBlock: MIFKUJ_clean_linker_0, # of connection points: 2
#     Edge 34, Type (0, 0), BuildingBlock: MIFKUJ_clean_linker_0, # of connection points: 2
#     Edge 35, Type (0, 0), BuildingBlock: MIFKUJ_clean_linker_0, # of connection points: 2
#     Edge 36, Type (0, 0), BuildingBlock: MIFKUJ_clean_linker_0, # of connection points: 2
#     Edge 37, Type (0, 0), BuildingBlock: MIFKUJ_clean_linker_0, # of connection points: 2
#     Edge 38, Type (0, 0), BuildingBlock: MIFKUJ_clean_linker_0, # of connection points: 2
#     Edge 39, Type (0, 0), BuildingBlock: MIFKUJ_clean_linker_0, # of connection points: 2
#     Edge 40, Type (0, 0), BuildingBlock: MIFKUJ_clean_linker_0, # of connection points: 2
#     Edge 41, Type (0, 0), BuildingBlock: MIFKUJ_clean_linker_0, # of connection points: 2
#     Edge 42, Type (0, 0), BuildingBlock: MIFKUJ_clean_linker_0, # of connection points: 2
#     Edge 43, Type (0, 0), BuildingBlock: MIFKUJ_clean_linker_0, # of connection points: 2
#     Edge 44, Type (0, 0), BuildingBlock: MIFKUJ_clean_linker_0, # of connection points: 2
#     Edge 45, Type (0, 0), BuildingBlock: MIFKUJ_clean_linker_0, # of connection points: 2
#     Edge 46, Type (0, 0), BuildingBlock: MIFKUJ_clean_linker_0, # of connection points: 2
#     Edge 47, Type (0, 0), BuildingBlock: MIFKUJ_clean_linker_0, # of connection points: 2
#     Edge 48, Type (0, 0), BuildingBlock: MIFKUJ_clean_linker_0, # of connection points: 2
#     Edge 49, Type (0, 0), BuildingBlock: MIFKUJ_clean_linker_0, # of connection points: 2
#     Edge 50, Type (0, 0), BuildingBlock: MIFKUJ_clean_linker_0, # of connection points: 2
#     Edge 51, Type (0, 0), BuildingBlock: MIFKUJ_clean_linker_0, # of connection points: 2
#     Edge 52, Type (0, 0), BuildingBlock: MIFKUJ_clean_linker_0, # of connection points: 2
#     Edge 53, Type (0, 0), BuildingBlock: MIFKUJ_clean_linker_0, # of connection points: 2
#     Edge 54, Type (0, 0), BuildingBlock: MIFKUJ_clean_linker_0, # of connection points: 2
#     Edge 55, Type (0, 0), BuildingBlock: MIFKUJ_clean_linker_0, # of connection points: 2
# Relax obj value: 0.127
# Max RMSD: 0.199
# Mean RMSD: 0.182
data_MOF--net-soi--node1-BEQFEK_clean_sbu_0--edge1-MIFKUJ_clean_linker_0
_symmetry_space_group_name_H-M    P1
_symmetry_Int_Tables_number       1
_symmetry_cell_setting            triclinic
loop_
_symmetry_equiv_pos_as_xyz
'x, y, z'
_cell_length_a     45.976265
_cell_length_b     35.192123
_cell_length_c     92.01535
_cell_angle_alpha  89.977635
_cell_angle_beta   89.997798
_cell_angle_gamma 91.104109
loop_
_atom_site_label
_atom_site_type_symbol
_atom_site_fract_x
_atom_site_fract_y
_atom_site_fract_z
_atom_type_partial_charge
Co0 Co 0.35005 0.05896 0.13783 0.0
Co1 Co 0.34033 0.0593 0.10371 0.0
C2 C 0.30169 0.10185 0.12442 0.0
O3 O 0.31514 0.09065 0.1357 0.0
O4 O 0.30954 0.09196 0.11171 0.0
C5 C 0.34649 0.0673 0.16914 0.0
O6 O 0.32932 0.09557 0.16602 0.0
C7 C 0.30723 0.05213 0.07636 0.0
C8 C 0.34184 0.04084 0.06038 0.0
C9 C 0.31209 0.04534 0.06171 0.0
N10 N 0.33292 0.05182 0.08337 0.0
N11 N 0.35353 0.04525 0.07372 0.0
C12 C 0.27849 0.05646 0.08372 0.0
H13 H 0.27931 0.04462 0.09489 0.0
H14 H 0.26085 0.04197 0.07748 0.0
H15 H 0.27354 0.08712 0.08447 0.0
C16 C 0.34184 0.97676 0.13304 0.0
N17 N 0.34441 0.01247 0.12791 0.0
N18 N 0.34085 0.01217 0.11372 0.0
C19 C 0.33627 0.97603 0.10933 0.0
C20 C 0.33674 0.9524 0.12142 0.0
C21 C 0.34112 0.96712 0.14889 0.0
H22 H 0.32687 0.98721 0.15468 0.0
H23 H 0.33292 0.93776 0.15089 0.0
H24 H 0.36338 0.97035 0.15344 0.0
O25 O 0.38418 0.0873 0.12986 0.0
O26 O 0.3781 0.0867 0.10589 0.0
H27 H 0.33197 0.93315 0.0925 0.0
H28 H 0.31042 0.97519 0.09002 0.0
C29 C 0.33162 0.96446 0.09384 0.0
H30 H 0.34901 0.97733 0.08699 0.0
H31 H 0.37559 0.04347 0.07626 0.0
O32 O 0.35777 0.04856 0.15883 0.0
C33 C 0.39273 0.09628 0.11711 0.0
Co34 Co 0.6536 0.42432 0.14184 0.0
Co35 Co 0.66901 0.42518 0.10821 0.0
C36 C 0.70763 0.38811 0.12983 0.0
O37 O 0.69072 0.39671 0.14025 0.0
O38 O 0.70217 0.39791 0.11679 0.0
C39 C 0.66607 0.44038 0.17161 0.0
O40 O 0.69279 0.44224 0.16657 0.0
C41 C 0.69673 0.42217 0.07899 0.0
C42 C 0.66717 0.45764 0.06612 0.0
C43 C 0.69265 0.43734 0.06515 0.0
N44 N 0.67518 0.43401 0.08773 0.0
N45 N 0.65738 0.45467 0.07986 0.0
C46 C 0.71877 0.39381 0.08355 0.0
H47 H 0.70874 0.37309 0.09121 0.0
H48 H 0.73702 0.40879 0.08915 0.0
H49 H 0.72729 0.37797 0.07409 0.0
C50 C 0.65278 0.50693 0.13676 0.0
N51 N 0.65569 0.47119 0.13186 0.0
N52 N 0.66402 0.47216 0.11817 0.0
C53 C 0.66794 0.50881 0.11415 0.0
C54 C 0.66062 0.53196 0.12576 0.0
C55 C 0.64232 0.51689 0.15167 0.0
H56 H 0.62495 0.49655 0.15513 0.0
H57 H 0.66069 0.51522 0.15944 0.0
H58 H 0.63369 0.54612 0.15195 0.0
O59 O 0.62284 0.39161 0.13359 0.0
O60 O 0.63358 0.39161 0.11003 0.0
H61 H 0.66521 0.52648 0.09199 0.0
H62 H 0.69469 0.54839 0.10188 0.0
C63 C 0.68219 0.52143 0.10029 0.0
H64 H 0.69715 0.49946 0.09628 0.0
H65 H 0.63858 0.46704 0.08392 0.0
O66 O 0.64534 0.43269 0.16287 0.0
C67 C 0.61772 0.38053 0.12065 0.0
Co68 Co 0.33765 0.93102 0.39654 0.0
Co69 Co 0.34169 0.93633 0.36222 0.0
C70 C 0.38375 0.89089 0.37837 0.0
O71 O 0.37065 0.89839 0.39026 0.0
O72 O 0.37597 0.90499 0.36622 0.0
C73 C 0.34919 0.94681 0.42837 0.0
O74 O 0.37282 0.96678 0.42529 0.0
C75 C 0.35484 0.95301 0.3307 0.0
C76 C 0.3108 0.96962 0.32382 0.0
C77 C 0.33904 0.96625 0.31885 0.0
N78 N 0.3366 0.94927 0.34212 0.0
N79 N 0.31033 0.95883 0.33781 0.0
C80 C 0.3869 0.94704 0.33154 0.0
H81 H 0.39444 0.94853 0.34299 0.0
H82 H 0.39879 0.96857 0.32488 0.0
H83 H 0.39178 0.91845 0.3272 0.0
C84 C 0.33917 0.01535 0.39316 0.0
N85 N 0.34018 0.97975 0.38781 0.0
N86 N 0.3436 0.98153 0.37361 0.0
C87 C 0.34629 0.01824 0.3696 0.0
C88 C 0.34342 0.04087 0.38182 0.0
C89 C 0.33051 0.0249 0.40839 0.0
H90 H 0.31727 0.00145 0.41319 0.0
H91 H 0.35034 0.02975 0.41504 0.0
H92 H 0.31773 0.05134 0.40863 0.0
O93 O 0.30162 0.90571 0.3906 0.0
O94 O 0.30634 0.90459 0.36668 0.0
H95 H 0.33257 0.02942 0.34784 0.0
H96 H 0.3611 0.06112 0.35428 0.0
C97 C 0.35273 0.03134 0.35444 0.0
H98 H 0.36925 0.01286 0.3495 0.0
H99 H 0.29212 0.95891 0.34458 0.0
O100 O 0.33414 0.93188 0.41819 0.0
C101 C 0.2924 0.89572 0.37817 0.0
Co102 Co 0.65126 0.57061 0.39961 0.0
Co103 Co 0.65142 0.56408 0.36528 0.0
C104 C 0.60614 0.60815 0.38097 0.0
O105 O 0.61794 0.60128 0.39324 0.0
O106 O 0.61587 0.59446 0.36909 0.0
C107 C 0.63972 0.563 0.4321 0.0
O108 O 0.61206 0.55405 0.4304 0.0
C109 C 0.63996 0.54706 0.33353 0.0
C110 C 0.68565 0.54234 0.32641 0.0
C111 C 0.65731 0.54053 0.32134 0.0
N112 N 0.65754 0.55234 0.34514 0.0
N113 N 0.68473 0.54946 0.34071 0.0
C114 C 0.60759 0.55 0.33411 0.0
H115 H 0.60087 0.56633 0.3438 0.0
H116 H 0.59778 0.52102 0.33488 0.0
H117 H 0.59935 0.56377 0.32411 0.0
C118 C 0.6505 0.48699 0.39697 0.0
N119 N 0.65009 0.52189 0.39103 0.0
N120 N 0.65104 0.51888 0.37677 0.0
C121 C 0.65239 0.48178 0.37319 0.0
C122 C 0.65208 0.46034 0.3859 0.0
C123 C 0.649 0.47956 0.41297 0.0
H124 H 0.66847 0.49232 0.41833 0.0
H125 H 0.62948 0.49329 0.41743 0.0
H126 H 0.64746 0.44879 0.4155 0.0
O127 O 0.68692 0.59785 0.39395 0.0
O128 O 0.68558 0.59717 0.36995 0.0
H129 H 0.67697 0.48101 0.35351 0.0
H130 H 0.65899 0.43649 0.35748 0.0
C131 C 0.65685 0.46775 0.35801 0.0
H132 H 0.63832 0.47644 0.35112 0.0
H133 H 0.7028 0.55241 0.3475 0.0
O134 O 0.65585 0.56915 0.4211 0.0
C135 C 0.69765 0.60738 0.38177 0.0
Co136 Co 0.67452 0.92111 0.91951 0.0
Co137 Co 0.66314 0.92996 0.88563 0.0
C138 C 0.62145 0.88628 0.90445 0.0
O139 O 0.63702 0.89256 0.91578 0.0
O140 O 0.62869 0.89959 0.89201 0.0
C141 C 0.6721 0.93069 0.95209 0.0
O142 O 0.64514 0.94223 0.9513 0.0
C143 C 0.64152 0.95079 0.85567 0.0
C144 C 0.68416 0.96044 0.84507 0.0
C145 C 0.65452 0.96197 0.8426 0.0
N146 N 0.66273 0.94352 0.86537 0.0
N147 N 0.68805 0.94894 0.85883 0.0
C148 C 0.6098 0.94971 0.85922 0.0
H149 H 0.60651 0.95187 0.87115 0.0
H150 H 0.5985 0.97309 0.85358 0.0
H151 H 0.60018 0.92229 0.85545 0.0
C152 C 0.67793 0.00543 0.91714 0.0
N153 N 0.67334 0.97061 0.91137 0.0
N154 N 0.66755 0.97419 0.89741 0.0
C155 C 0.66746 0.01141 0.89399 0.0
C156 C 0.67398 0.03233 0.90635 0.0
C157 C 0.68648 0.0127 0.93258 0.0
H158 H 0.70412 0.99331 0.93577 0.0
H159 H 0.66744 0.00684 0.93968 0.0
H160 H 0.69374 0.04261 0.93429 0.0
O161 O 0.70655 0.89299 0.91075 0.0
O162 O 0.69764 0.89741 0.88719 0.0
H163 H 0.68157 0.01766 0.87198 0.0
H164 H 0.66241 0.05802 0.87875 0.0
C165 C 0.66326 0.02658 0.87894 0.0
H166 H 0.64277 0.01468 0.87434 0.0
H167 H 0.70815 0.94568 0.8639 0.0
O168 O 0.68557 0.92187 0.94054 0.0
C169 C 0.71293 0.88541 0.89767 0.0
Co170 Co 0.33106 0.57696 0.91419 0.0
Co171 Co 0.3418 0.5764 0.87997 0.0
C172 C 0.38336 0.61607 0.90026 0.0
O173 O 0.3687 0.60613 0.9115 0.0
O174 O 0.3754 0.60631 0.88747 0.0
C175 C 0.33086 0.55592 0.94627 0.0
O176 O 0.35504 0.53698 0.94487 0.0
C177 C 0.36477 0.56144 0.84974 0.0
C178 C 0.3241 0.56879 0.83735 0.0
C179 C 0.3532 0.56068 0.83577 0.0
N180 N 0.34326 0.56958 0.85917 0.0
N181 N 0.31912 0.57395 0.85159 0.0
C182 C 0.39585 0.55617 0.85394 0.0
H183 H 0.39886 0.56039 0.8658 0.0
H184 H 0.40266 0.52716 0.85092 0.0
H185 H 0.40986 0.57665 0.84783 0.0
C186 C 0.3249 0.49357 0.90825 0.0
N187 N 0.33156 0.52949 0.9041 0.0
N188 N 0.3376 0.52956 0.89008 0.0
C189 C 0.33584 0.49374 0.88502 0.0
C190 C 0.32756 0.46977 0.8963 0.0
C191 C 0.31244 0.48306 0.92276 0.0
H192 H 0.29914 0.50651 0.927 0.0
H193 H 0.33048 0.4778 0.93045 0.0
H194 H 0.29867 0.45688 0.92207 0.0
O195 O 0.29928 0.60766 0.90649 0.0
O196 O 0.30642 0.60636 0.88273 0.0
H197 H 0.3245 0.49388 0.86247 0.0
H198 H 0.34305 0.45155 0.86826 0.0
C199 C 0.34183 0.48279 0.86961 0.0
H200 H 0.36289 0.49559 0.86621 0.0
H201 H 0.29902 0.58034 0.85614 0.0
O202 O 0.31995 0.57227 0.93526 0.0
C203 C 0.29181 0.61671 0.89369 0.0
Co204 Co 0.66941 0.06633 0.61684 0.0
Co205 Co 0.65872 0.06415 0.65101 0.0
C206 C 0.61901 0.10671 0.63134 0.0
O207 O 0.63378 0.0978 0.62007 0.0
O208 O 0.62584 0.09493 0.64402 0.0
C209 C 0.66812 0.05402 0.58406 0.0
O210 O 0.64039 0.04431 0.58425 0.0
C211 C 0.63791 0.05241 0.68205 0.0
C212 C 0.68089 0.04521 0.69233 0.0
C213 C 0.65149 0.04657 0.6954 0.0
N214 N 0.65858 0.05437 0.67162 0.0
N215 N 0.68409 0.04982 0.67794 0.0
C216 C 0.60618 0.05762 0.67936 0.0
H217 H 0.60269 0.07281 0.66897 0.0
H218 H 0.59525 0.0293 0.67867 0.0
H219 H 0.59625 0.07346 0.68848 0.0
C220 C 0.66878 0.98269 0.62145 0.0
N221 N 0.66578 0.01855 0.62627 0.0
N222 N 0.66052 0.01779 0.64035 0.0
C223 C 0.65912 0.98137 0.64483 0.0
C224 C 0.66451 0.95786 0.63305 0.0
C225 C 0.67862 0.97296 0.60641 0.0
H226 H 0.69526 0.99401 0.6027 0.0
H227 H 0.65977 0.97413 0.59891 0.0
H228 H 0.68799 0.94419 0.60592 0.0
O229 O 0.70315 0.09357 0.62479 0.0
O230 O 0.69478 0.09538 0.64845 0.0
H231 H 0.67122 0.9746 0.66709 0.0
H232 H 0.64567 0.93881 0.66059 0.0
C233 C 0.65199 0.96936 0.66004 0.0
H234 H 0.63377 0.98639 0.66421 0.0
H235 H 0.7039 0.05024 0.67239 0.0
O236 O 0.68099 0.06253 0.59589 0.0
C237 C 0.71044 0.10371 0.6375 0.0
Co238 Co 0.34543 0.42501 0.61285 0.0
Co239 Co 0.34467 0.41846 0.64722 0.0
C240 C 0.39181 0.38351 0.62809 0.0
O241 O 0.38146 0.39597 0.61616 0.0
O242 O 0.37964 0.39048 0.64027 0.0
C243 C 0.33487 0.41167 0.58246 0.0
O244 O 0.34021 0.37638 0.58611 0.0
C245 C 0.36316 0.43783 0.67758 0.0
C246 C 0.33021 0.40496 0.69006 0.0
C247 C 0.3542 0.42892 0.69164 0.0
N248 N 0.34507 0.42001 0.66814 0.0
N249 N 0.3255 0.40044 0.67574 0.0
C250 C 0.38967 0.46029 0.67321 0.0
H251 H 0.39179 0.46123 0.6612 0.0
H252 H 0.3885 0.48961 0.67754 0.0
H253 H 0.40921 0.44716 0.67802 0.0
C254 C 0.34245 0.5062 0.62022 0.0
N255 N 0.34506 0.46978 0.62436 0.0
N256 N 0.34276 0.46753 0.63861 0.0
C257 C 0.33736 0.50245 0.64392 0.0
C258 C 0.33722 0.52821 0.63244 0.0
C259 C 0.34462 0.51928 0.60478 0.0
H260 H 0.36166 0.50319 0.59903 0.0
H261 H 0.34996 0.55012 0.60414 0.0
H262 H 0.32355 0.51362 0.59923 0.0
O263 O 0.31176 0.39178 0.61777 0.0
O264 O 0.30942 0.3889 0.6418 0.0
H265 H 0.31188 0.53308 0.65955 0.0
H266 H 0.3472 0.51938 0.66569 0.0
C267 C 0.32803 0.51006 0.65921 0.0
H268 H 0.31828 0.48413 0.66418 0.0
H269 H 0.3089 0.38375 0.67114 0.0
O270 O 0.33804 0.43769 0.59196 0.0
C271 C 0.2994 0.38018 0.62935 0.0
Co272 Co 0.84599 0.56163 0.63898 0.0
Co273 Co 0.83718 0.56687 0.60492 0.0
C274 C 0.79655 0.60414 0.62595 0.0
O275 O 0.81052 0.59259 0.63702 0.0
O276 O 0.80451 0.59596 0.61308 0.0
C277 C 0.83953 0.56479 0.67019 0.0
O278 O 0.8215 0.59226 0.66726 0.0
C279 C 0.80623 0.56084 0.577 0.0
C280 C 0.84224 0.55516 0.56132 0.0
C281 C 0.81223 0.55669 0.56233 0.0
N282 N 0.83152 0.56193 0.58436 0.0
N283 N 0.85298 0.55865 0.5749 0.0
C284 C 0.7769 0.56121 0.58401 0.0
H285 H 0.77798 0.54927 0.59515 0.0
H286 H 0.76079 0.54469 0.57748 0.0
H287 H 0.7696 0.591 0.58469 0.0
C288 C 0.84302 0.47991 0.63209 0.0
N289 N 0.84277 0.51656 0.62794 0.0
N290 N 0.83912 0.51835 0.61376 0.0
C291 C 0.83682 0.48273 0.60845 0.0
C292 C 0.83943 0.45729 0.61987 0.0
C293 C 0.84427 0.46719 0.64761 0.0
H294 H 0.86591 0.47492 0.65219 0.0
H295 H 0.82758 0.48222 0.65401 0.0
H296 H 0.84049 0.43612 0.64873 0.0
O297 O 0.87965 0.59246 0.6323 0.0
O298 O 0.87381 0.59658 0.60837 0.0
H299 H 0.84963 0.4873 0.58619 0.0
H300 H 0.83282 0.44219 0.59079 0.0
C301 C 0.83231 0.47327 0.59275 0.0
H302 H 0.81105 0.48425 0.58914 0.0
H303 H 0.87495 0.5585 0.57773 0.0
O304 O 0.85246 0.54839 0.65979 0.0
C305 C 0.88804 0.60451 0.61991 0.0
Co306 Co 0.16144 0.92997 0.64042 0.0
Co307 Co 0.1677 0.92441 0.60613 0.0
C308 C 0.21069 0.88932 0.62689 0.0
O309 O 0.19778 0.90126 0.63821 0.0
O310 O 0.20117 0.89646 0.61419 0.0
C311 C 0.17235 0.93521 0.67146 0.0
O312 O 0.19656 0.91797 0.66816 0.0
C313 C 0.19781 0.93345 0.57803 0.0
C314 C 0.16131 0.93088 0.56245 0.0
C315 C 0.19132 0.93494 0.56328 0.0
N316 N 0.17283 0.92865 0.5855 0.0
N317 N 0.15113 0.92696 0.5761 0.0
C318 C 0.22692 0.93876 0.58507 0.0
H319 H 0.22441 0.95136 0.59605 0.0
H320 H 0.24137 0.95727 0.57834 0.0
H321 H 0.23715 0.91065 0.5863 0.0
C322 C 0.16214 0.01174 0.6331 0.0
N323 N 0.16293 0.97498 0.62913 0.0
N324 N 0.16431 0.97281 0.61487 0.0
C325 C 0.16354 0.00813 0.60927 0.0
C326 C 0.16217 0.03406 0.62063 0.0
C327 C 0.16399 0.02494 0.64855 0.0
H328 H 0.17946 0.00715 0.65464 0.0
H329 H 0.17138 0.05504 0.64934 0.0
H330 H 0.14226 0.0217 0.65371 0.0
O331 O 0.12865 0.89628 0.634 0.0
O332 O 0.13222 0.89365 0.60991 0.0
H333 H 0.15612 0.0462 0.59117 0.0
H334 H 0.18454 0.01197 0.58858 0.0
C335 C 0.16271 0.01658 0.59333 0.0
H336 H 0.14697 -0.00302 0.58793 0.0
H337 H 0.12927 0.92336 0.57902 0.0
O338 O 0.15445 0.94281 0.66137 0.0
C339 C 0.11951 0.88428 0.62171 0.0
Co340 Co 0.84066 0.4319 0.89748 0.0
Co341 Co 0.84149 0.43153 0.86313 0.0
C342 C 0.88666 0.3911 0.87994 0.0
O343 O 0.87495 0.4007 0.89198 0.0
O344 O 0.87648 0.4018 0.8677 0.0
C345 C 0.846 0.41905 0.92897 0.0
O346 O 0.86323 0.3908 0.92591 0.0
C347 C 0.85305 0.44511 0.83127 0.0
C348 C 0.80794 0.45677 0.82452 0.0
C349 C 0.8362 0.45575 0.81941 0.0
N350 N 0.83534 0.44073 0.84287 0.0
N351 N 0.80844 0.44721 0.83863 0.0
C352 C 0.88544 0.44248 0.83193 0.0
H353 H 0.89315 0.44492 0.84333 0.0
H354 H 0.89582 0.46501 0.82513 0.0
H355 H 0.89193 0.41448 0.82759 0.0
C356 C 0.84134 0.51471 0.89239 0.0
N357 N 0.8416 0.47866 0.88753 0.0
N358 N 0.84288 0.47872 0.87325 0.0
C359 C 0.84432 0.51501 0.86857 0.0
C360 C 0.84328 0.53903 0.88052 0.0
C361 C 0.83673 0.52514 0.90799 0.0
H362 H 0.81902 0.50709 0.91264 0.0
H363 H 0.8569 0.51959 0.9142 0.0
H364 H 0.83089 0.55536 0.90929 0.0
O365 O 0.80514 0.40345 0.89266 0.0
O366 O 0.80701 0.39981 0.86867 0.0
H367 H 0.82741 0.52118 0.84707 0.0
H368 H 0.85445 0.55689 0.85195 0.0
C369 C 0.84809 0.52645 0.85301 0.0
H370 H 0.86523 0.50915 0.84797 0.0
H371 H 0.79044 0.44633 0.84553 0.0
O372 O 0.83665 0.43992 0.91877 0.0
C373 C 0.79466 0.39187 0.88068 0.0
Co374 Co 0.15005 0.06779 0.89969 0.0
Co375 Co 0.15131 0.0624 0.86523 0.0
C376 C 0.1042 0.10361 0.8807 0.0
O377 O 0.11523 0.09594 0.89311 0.0
O378 O 0.11551 0.09191 0.86884 0.0
C379 C 0.13832 0.05655 0.93208 0.0
O380 O 0.11129 0.04501 0.93005 0.0
C381 C 0.14141 0.04266 0.83356 0.0
C382 C 0.18746 0.03801 0.82702 0.0
C383 C 0.15934 0.03397 0.82181 0.0
N384 N 0.15845 0.05092 0.84514 0.0
N385 N 0.18587 0.04843 0.841 0.0
C386 C 0.10895 0.04051 0.83415 0.0
H387 H 0.10141 0.03751 0.84557 0.0
H388 H 0.10061 0.0163 0.82752 0.0
H389 H 0.10009 0.06712 0.82962 0.0
C390 C 0.15201 0.98422 0.89656 0.0
N391 N 0.15087 0.01941 0.89088 0.0
N392 N 0.15076 0.01701 0.87658 0.0
C393 C 0.15132 0.98005 0.87276 0.0
C394 C 0.15196 0.9582 0.88528 0.0
C395 C 0.15354 0.97582 0.91248 0.0
H396 H 0.17116 0.9933 0.91752 0.0
H397 H 0.13266 0.98352 0.9176 0.0
H398 H 0.15736 0.94531 0.91462 0.0
O399 O 0.18481 0.09754 0.89436 0.0
O400 O 0.18482 0.09594 0.87035 0.0
H401 H 0.17374 0.97779 0.85244 0.0
H402 H 0.15408 0.93461 0.85686 0.0
C403 C 0.15357 0.96606 0.85744 0.0
H404 H 0.13474 0.97617 0.8511 0.0
H405 H 0.20364 0.05297 0.84788 0.0
O406 O 0.15425 0.0654 0.92125 0.0
C407 C 0.19597 0.10708 0.88227 0.0
Co408 Co 0.17207 0.42521 0.41688 0.0
Co409 Co 0.16041 0.42524 0.38272 0.0
C410 C 0.11956 0.3852 0.40284 0.0
O411 O 0.13503 0.39463 0.4139 0.0
O412 O 0.1265 0.3957 0.38998 0.0
C413 C 0.17197 0.44469 0.44921 0.0
O414 O 0.14705 0.46214 0.44823 0.0
C415 C 0.14124 0.43578 0.35127 0.0
C416 C 0.18497 0.44462 0.34176 0.0
C417 C 0.15576 0.44266 0.33814 0.0
N418 N 0.16122 0.43399 0.36202 0.0
N419 N 0.18719 0.4393 0.35614 0.0
C420 C 0.10929 0.42974 0.35352 0.0
H421 H 0.10509 0.41369 0.3637 0.0
H422 H 0.09881 0.45778 0.35443 0.0
H423 H 0.09952 0.41432 0.34414 0.0
C424 C 0.1756 0.50886 0.41097 0.0
N425 N 0.17037 0.47253 0.40689 0.0
N426 N 0.16392 0.47196 0.39293 0.0
C427 C 0.16375 0.50778 0.38787 0.0
C428 C 0.17151 0.53233 0.39903 0.0
C429 C 0.18739 0.52036 0.42551 0.0
H430 H 0.2018 0.49808 0.42978 0.0
H431 H 0.16901 0.52387 0.43317 0.0
H432 H 0.19973 0.54772 0.42484 0.0
O433 O 0.20459 0.39607 0.40923 0.0
O434 O 0.19536 0.39429 0.38567 0.0
H435 H 0.17459 0.5129 0.36535 0.0
H436 H 0.1504 0.54892 0.37183 0.0
C437 C 0.15594 0.51844 0.37263 0.0
H438 H 0.13699 0.50103 0.36898 0.0
H439 H 0.20661 0.4394 0.36201 0.0
O440 O 0.18309 0.42993 0.43792 0.0
C441 C 0.21098 0.38544 0.39648 0.0
Co442 Co 0.83294 0.07194 0.41778 0.0
Co443 Co 0.83981 0.07752 0.38342 0.0
C444 C 0.88408 0.1121 0.40423 0.0
O445 O 0.87071 0.10042 0.41563 0.0
O446 O 0.87431 0.10499 0.3915 0.0
C447 C 0.83036 0.07856 0.44962 0.0
O448 O 0.84919 0.10685 0.44814 0.0
C449 C 0.86259 0.06434 0.35326 0.0
C450 C 0.8246 0.0825 0.34049 0.0
C451 C 0.8524 0.06866 0.33914 0.0
N452 N 0.84156 0.07506 0.36254 0.0
N453 N 0.81901 0.08591 0.35476 0.0
C454 C 0.89227 0.05242 0.3578 0.0
H455 H 0.89399 0.05145 0.36983 0.0
H456 H 0.89698 0.02407 0.35321 0.0
H457 H 0.90871 0.07283 0.35339 0.0
C458 C 0.82828 0.99023 0.41014 0.0
N459 N 0.83283 0.02683 0.40634 0.0
N460 N 0.83541 0.02906 0.3921 0.0
C461 C 0.8322 0.99402 0.38638 0.0
C462 C 0.82774 0.96827 0.39761 0.0
C463 C 0.82166 0.97742 0.42531 0.0
H464 H 0.80149 0.99113 0.42909 0.0
H465 H 0.8396 0.98677 0.43263 0.0
H466 H 0.81869 0.94612 0.42603 0.0
O467 O 0.80142 0.10576 0.41156 0.0
O468 O 0.80497 0.10727 0.38753 0.0
H469 H 0.81695 0.00388 0.36473 0.0
H470 H 0.82746 0.95532 0.36808 0.0
C471 C 0.83265 0.98557 0.37044 0.0
H472 H 0.85466 0.99206 0.36616 0.0
H473 H 0.79965 0.09566 0.35918 0.0
O474 O 0.82252 0.05967 0.43845 0.0
C475 C 0.79238 0.11673 0.39922 0.0
Co476 Co 0.15803 0.55611 0.1104 0.0
Co477 Co 0.15219 0.55341 0.14486 0.0
C478 C 0.11083 0.59762 0.12669 0.0
O479 O 0.12438 0.58943 0.11498 0.0
O480 O 0.11826 0.58451 0.13908 0.0
C481 C 0.17023 0.57659 0.08068 0.0
O482 O 0.16764 0.61128 0.08573 0.0
C483 C 0.13505 0.5361 0.17599 0.0
C484 C 0.17917 0.5341 0.18543 0.0
C485 C 0.15004 0.52924 0.1889 0.0
N486 N 0.15468 0.54411 0.16545 0.0
N487 N 0.1809 0.54324 0.17131 0.0
C488 C 0.10302 0.53249 0.17342 0.0
H489 H 0.09846 0.52843 0.16166 0.0
H490 H 0.09368 0.50838 0.17978 0.0
H491 H 0.09249 0.55894 0.17706 0.0
C492 C 0.15657 0.47307 0.11471 0.0
N493 N 0.15447 0.50858 0.11996 0.0
N494 N 0.15234 0.50709 0.13423 0.0
C495 C 0.15298 0.47043 0.13847 0.0
C496 C 0.15563 0.44768 0.12623 0.0
C497 C 0.16101 0.46392 0.099 0.0
H498 H 0.18293 0.47427 0.0956 0.0
H499 H 0.14467 0.47888 0.09235 0.0
H500 H 0.15904 0.43291 0.09694 0.0
O501 O 0.19336 0.58293 0.11684 0.0
O502 O 0.188 0.58394 0.14072 0.0
H503 H 0.17369 0.47196 0.15927 0.0
H504 H 0.15687 0.4267 0.15503 0.0
C505 C 0.15467 0.4579 0.154 0.0
H506 H 0.13477 0.46666 0.1598 0.0
H507 H 0.20017 0.54797 0.16554 0.0
O508 O 0.16487 0.5486 0.08909 0.0
C509 C 0.20227 0.59287 0.12934 0.0
Co510 Co 0.841 0.92416 0.11704 0.0
Co511 Co 0.84704 0.92037 0.1513 0.0
C512 C 0.88974 0.88262 0.13108 0.0
O513 O 0.87615 0.89265 0.11964 0.0
O514 O 0.88128 0.89236 0.14374 0.0
C515 C 0.83222 0.90885 0.08658 0.0
O516 O 0.84152 0.87499 0.09008 0.0
C517 C 0.86824 0.9419 0.18104 0.0
C518 C 0.83561 0.91119 0.19448 0.0
C519 C 0.85995 0.93478 0.19535 0.0
N520 N 0.84939 0.92347 0.17215 0.0
N521 N 0.8301 0.9051 0.18032 0.0
C522 C 0.89474 0.96326 0.17592 0.0
H523 H 0.89603 0.963 0.16387 0.0
H524 H 0.89439 0.99301 0.17985 0.0
H525 H 0.91439 0.95004 0.18057 0.0
C526 C 0.84028 0.00593 0.12342 0.0
N527 N 0.84362 0.9699 0.12788 0.0
N528 N 0.84395 0.9689 0.1422 0.0
C529 C 0.83975 0.00438 0.14727 0.0
C530 C 0.83755 0.02904 0.13553 0.0
C531 C 0.83873 0.01754 0.10779 0.0
H532 H 0.85504 0.00183 0.10139 0.0
H533 H 0.84282 0.04854 0.10648 0.0
H534 H 0.81682 0.01013 0.10346 0.0
O535 O 0.8066 0.89457 0.12339 0.0
O536 O 0.81141 0.88968 0.14728 0.0
H537 H 0.82397 0.98849 0.1685 0.0
H538 H 0.81755 0.03718 0.16352 0.0
C539 C 0.83322 0.01365 0.1628 0.0
H540 H 0.85355 0.02306 0.16829 0.0
H541 H 0.81298 0.88837 0.17623 0.0
O542 O 0.83216 0.93482 0.0962 0.0
C543 C 0.79751 0.88255 0.13562 0.0
H544 H 0.36682 0.89635 0.13482 0.0
H545 H 0.35167 0.82948 0.13772 0.0
H546 H 0.27465 0.85024 0.11231 0.0
H547 H 0.28916 0.91711 0.10993 0.0
H548 H 0.26091 0.81357 0.13618 0.0
H549 H 0.33308 0.80164 0.09855 0.0
H550 H 0.38185 0.80912 0.08764 0.0
H551 H 0.41822 0.74219 0.12191 0.0
H552 H 0.3697 0.73473 0.13314 0.0
H553 H 0.23738 0.61864 0.10735 0.0
H554 H 0.27043 0.67353 0.10819 0.0
H555 H 0.25764 0.68215 0.15449 0.0
H556 H 0.22416 0.62742 0.15379 0.0
H557 H 0.31958 0.70236 0.12227 0.0
H558 H 0.23931 0.7736 0.16086 0.0
H559 H 0.18842 0.76579 0.1691 0.0
H560 H 0.1651 0.71526 0.12815 0.0
H561 H 0.21571 0.72334 0.11961 0.0
C562 C 0.34675 0.88637 0.12983 0.0
C563 C 0.32914 0.91157 0.12213 0.0
C564 C 0.33822 0.84827 0.13141 0.0
C565 C 0.3121 0.83489 0.12518 0.0
C566 C 0.29486 0.86 0.11723 0.0
C567 C 0.30327 0.89804 0.11575 0.0
C568 C 0.3018 0.79522 0.1274 0.0
C569 C 0.27389 0.78931 0.13323 0.0
C570 C 0.31867 0.76355 0.12352 0.0
C571 C 0.34783 0.768 0.11678 0.0
C572 C 0.35152 0.78879 0.10383 0.0
C573 C 0.37911 0.79297 0.09757 0.0
C574 C 0.40313 0.77624 0.1041 0.0
C575 C 0.3996 0.75519 0.11688 0.0
C576 C 0.37206 0.75096 0.12319 0.0
C577 C 0.24215 0.63151 0.1178 0.0
C578 C 0.2275 0.61934 0.13045 0.0
C579 C 0.26126 0.66273 0.11826 0.0
C580 C 0.26598 0.68222 0.13135 0.0
C581 C 0.25395 0.66763 0.14426 0.0
C582 C 0.23476 0.63642 0.14382 0.0
C583 C 0.27878 0.72102 0.13095 0.0
C584 C 0.307 0.72673 0.12548 0.0
C585 C 0.26198 0.75272 0.1348 0.0
C586 C 0.23133 0.74865 0.13969 0.0
C587 C 0.22327 0.76097 0.15361 0.0
C588 C 0.19449 0.7565 0.15833 0.0
C589 C 0.17357 0.73991 0.14918 0.0
C590 C 0.18134 0.72798 0.13525 0.0
C591 C 0.21006 0.7325 0.13047 0.0
H592 H 0.15132 0.73639 0.15286 0.0
H593 H 0.42447 0.7795 0.09924 0.0
H594 H 0.68857 0.57126 0.1471 0.0
H595 H 0.69753 0.63964 0.14851 0.0
H596 H 0.65162 0.65489 0.10807 0.0
H597 H 0.64238 0.58595 0.1067 0.0
H598 H 0.70396 0.6902 0.108 0.0
H599 H 0.62222 0.68773 0.13942 0.0
H600 H 0.59132 0.66347 0.1594 0.0
H601 H 0.659 0.68988 0.19012 0.0
H602 H 0.69051 0.7138 0.17031 0.0
H603 H 0.75349 0.87792 0.11579 0.0
H604 H 0.71538 0.82866 0.11429 0.0
H605 H 0.74595 0.77976 0.15437 0.0
H606 H 0.78318 0.82989 0.15627 0.0
H607 H 0.68877 0.76879 0.15204 0.0
H608 H 0.77322 0.75306 0.12036 0.0
H609 H 0.80654 0.77441 0.10084 0.0
H610 H 0.73483 0.77943 0.07104 0.0
H611 H 0.70105 0.75856 0.09046 0.0
C612 C 0.67978 0.58928 0.1387 0.0
C613 C 0.66456 0.57355 0.12687 0.0
C614 C 0.68486 0.62834 0.13951 0.0
C615 C 0.67475 0.65241 0.12853 0.0
C616 C 0.65935 0.63679 0.11672 0.0
C617 C 0.65421 0.59756 0.11591 0.0
C618 C 0.6829 0.69326 0.12887 0.0
C619 C 0.6999 0.70781 0.11744 0.0
C620 C 0.67793 0.71594 0.1413 0.0
C621 C 0.65879 0.70249 0.15334 0.0
C622 C 0.63058 0.68825 0.15043 0.0
C623 C 0.61295 0.67455 0.16172 0.0
C624 C 0.6232 0.67509 0.17602 0.0
C625 C 0.65107 0.6895 0.17904 0.0
C626 C 0.66881 0.70323 0.16778 0.0
C627 C 0.75162 0.85714 0.12445 0.0
C628 C 0.77162 0.8572 0.136 0.0
C629 C 0.72985 0.82906 0.12358 0.0
C630 C 0.72834 0.79998 0.13401 0.0
C631 C 0.74679 0.80183 0.14616 0.0
C632 C 0.76817 0.83038 0.1472 0.0
C633 C 0.71064 0.76504 0.1314 0.0
C634 C 0.69194 0.75161 0.1424 0.0
C635 C 0.71422 0.74311 0.11863 0.0
C636 C 0.73461 0.75468 0.10688 0.0
C637 C 0.76458 0.75884 0.10965 0.0
C638 C 0.78353 0.77087 0.09862 0.0
C639 C 0.77279 0.77839 0.08472 0.0
C640 C 0.7431 0.77369 0.08182 0.0
C641 C 0.72405 0.76175 0.09283 0.0
H642 H 0.78749 0.78779 0.0762 0.0
H643 H 0.60955 0.66437 0.18474 0.0
H644 H 0.37009 0.08936 0.40095 0.0
H645 H 0.3622 0.15786 0.40347 0.0
H646 H 0.30453 0.15431 0.36648 0.0
H647 H 0.31183 0.08607 0.36414 0.0
H648 H 0.34019 0.22087 0.36756 0.0
H649 H 0.27678 0.14288 0.39901 0.0
H650 H 0.26894 0.09529 0.41838 0.0
H651 H 0.3183 0.16492 0.44814 0.0
H652 H 0.32678 0.21267 0.42884 0.0
H653 H 0.22338 0.34313 0.37253 0.0
H654 H 0.26028 0.2949 0.3703 0.0
H655 H 0.29249 0.32295 0.41312 0.0
H656 H 0.25475 0.37047 0.41565 0.0
H657 H 0.28302 0.25138 0.41163 0.0
H658 H 0.33492 0.33758 0.38152 0.0
H659 H 0.34289 0.38491 0.36211 0.0
H660 H 0.31705 0.30239 0.33003 0.0
H661 H 0.3085 0.25468 0.34925 0.0
C662 C 0.35599 0.10342 0.39329 0.0
C663 C 0.34146 0.08261 0.38239 0.0
C664 C 0.35171 0.14244 0.39466 0.0
C665 C 0.33279 0.16098 0.38515 0.0
C666 C 0.31947 0.14054 0.37381 0.0
C667 C 0.32362 0.10159 0.3725 0.0
C668 C 0.32363 0.20022 0.38801 0.0
C669 C 0.3278 0.22785 0.3772 0.0
C670 C 0.30832 0.20938 0.40082 0.0
C671 C 0.3027 0.18108 0.41246 0.0
C672 C 0.28609 0.14791 0.40966 0.0
C673 C 0.28152 0.12093 0.42062 0.0
C674 C 0.29319 0.12702 0.43447 0.0
C675 C 0.30934 0.1602 0.4374 0.0
C676 C 0.31403 0.18722 0.42646 0.0
C677 C 0.23864 0.33957 0.38138 0.0
C678 C 0.23594 0.36028 0.39434 0.0
C679 C 0.25997 0.31217 0.38003 0.0
C680 C 0.27942 0.30552 0.39148 0.0
C681 C 0.27774 0.32761 0.40414 0.0
C682 C 0.25613 0.35469 0.40558 0.0
C683 C 0.29863 0.27221 0.39092 0.0
C684 C 0.29626 0.24537 0.40217 0.0
C685 C 0.31571 0.26401 0.37854 0.0
C686 C 0.32098 0.29254 0.36687 0.0
C687 C 0.33076 0.32956 0.37034 0.0
C688 C 0.33541 0.35646 0.35936 0.0
C689 C 0.33046 0.34667 0.34484 0.0
C690 C 0.3209 0.30992 0.34127 0.0
C691 C 0.31621 0.28291 0.35221 0.0
H692 H 0.33405 0.36755 0.33636 0.0
H693 H 0.28966 0.10608 0.44294 0.0
H694 H 0.77816 0.17062 0.41891 0.0
H695 H 0.74209 0.21978 0.41621 0.0
H696 H 0.71447 0.1705 0.37535 0.0
H697 H 0.75222 0.12273 0.3776 0.0
H698 H 0.71958 0.23958 0.37128 0.0
H699 H 0.6695 0.17158 0.40784 0.0
H700 H 0.66191 0.13588 0.43062 0.0
H701 H 0.6865 0.23476 0.45537 0.0
H702 H 0.69468 0.27095 0.43275 0.0
H703 H 0.62325 0.40098 0.37271 0.0
H704 H 0.63466 0.33304 0.37454 0.0
H705 H 0.70334 0.36012 0.40497 0.0
H706 H 0.69311 0.42768 0.40258 0.0
H707 H 0.66317 0.29341 0.41209 0.0
H708 H 0.72343 0.35243 0.37312 0.0
H709 H 0.72738 0.3867 0.34979 0.0
H710 H 0.67639 0.29902 0.32889 0.0
H711 H 0.67174 0.26458 0.35219 0.0
C712 C 0.76405 0.16992 0.40948 0.0
C713 C 0.76794 0.14303 0.39845 0.0
C714 C 0.74317 0.19785 0.40799 0.0
C715 C 0.725 0.19858 0.39569 0.0
C716 C 0.72814 0.17061 0.38494 0.0
C717 C 0.74965 0.14331 0.38623 0.0
C718 C 0.70517 0.23092 0.39343 0.0
C719 C 0.70657 0.25052 0.38012 0.0
C720 C 0.68792 0.24547 0.40485 0.0
C721 C 0.68277 0.22398 0.41856 0.0
C722 C 0.67343 0.18569 0.41813 0.0
C723 C 0.66902 0.16536 0.43103 0.0
C724 C 0.67374 0.18303 0.44443 0.0
C725 C 0.68282 0.22112 0.44498 0.0
C726 C 0.68729 0.24159 0.43212 0.0
C727 C 0.64077 0.39223 0.37975 0.0
C728 C 0.65737 0.41933 0.3875 0.0
C729 C 0.64704 0.3536 0.38089 0.0
C730 C 0.66962 0.34182 0.38999 0.0
C731 C 0.68556 0.36878 0.39805 0.0
C732 C 0.67973 0.40726 0.39668 0.0
C733 C 0.67879 0.30197 0.3903 0.0
C734 C 0.67539 0.28125 0.4032 0.0
C735 C 0.69354 0.28587 0.37843 0.0
C736 C 0.69694 0.30621 0.36441 0.0
C737 C 0.71288 0.34063 0.36357 0.0
C738 C 0.71526 0.36006 0.35036 0.0
C739 C 0.70206 0.34511 0.33787 0.0
C740 C 0.68654 0.31062 0.33857 0.0
C741 C 0.68402 0.29114 0.35178 0.0
H742 H 0.70392 0.3602 0.32765 0.0
H743 H 0.67033 0.16723 0.4544 0.0
H744 H 0.63566 0.08917 0.90254 0.0
H745 H 0.64731 0.15718 0.89974 0.0
H746 H 0.73784 0.13491 0.90802 0.0
H747 H 0.72599 0.06723 0.91114 0.0
H748 H 0.72388 0.20082 0.91964 0.0
H749 H 0.7115 0.1383 0.87353 0.0
H750 H 0.68517 0.09997 0.85516 0.0
H751 H 0.61789 0.18281 0.85352 0.0
H752 H 0.64366 0.22142 0.87205 0.0
H753 H 0.78435 0.33289 0.86219 0.0
H754 H 0.7531 0.27747 0.86706 0.0
H755 H 0.71812 0.33339 0.90478 0.0
H756 H 0.75055 0.38808 0.90038 0.0
H757 H 0.69926 0.2537 0.87123 0.0
H758 H 0.71661 0.27398 0.93253 0.0
H759 H 0.74909 0.31099 0.94884 0.0
H760 H 0.81765 0.30631 0.91723 0.0
H761 H 0.78569 0.26893 0.90084 0.0
C762 C 0.65787 0.09919 0.90409 0.0
C763 C 0.68002 0.07345 0.90702 0.0
C764 C 0.66454 0.13782 0.90243 0.0
C765 C 0.69351 0.15097 0.90345 0.0
C766 C 0.71535 0.1254 0.90721 0.0
C767 C 0.70863 0.08685 0.90898 0.0
C768 C 0.70162 0.19047 0.89937 0.0
C769 C 0.71818 0.21253 0.90913 0.0
C770 C 0.69473 0.20548 0.88552 0.0
C771 C 0.67932 0.18251 0.87429 0.0
C772 C 0.69099 0.14822 0.86932 0.0
C773 C 0.67619 0.12646 0.85887 0.0
C774 C 0.64983 0.13889 0.85321 0.0
C775 C 0.63827 0.17318 0.85795 0.0
C776 C 0.65297 0.19502 0.86842 0.0
C777 C 0.76936 0.33381 0.87127 0.0
C778 C 0.77024 0.36429 0.8811 0.0
C779 C 0.75146 0.30214 0.87403 0.0
C780 C 0.73393 0.3009 0.88652 0.0
C781 C 0.73208 0.3334 0.89529 0.0
C782 C 0.75051 0.36464 0.89275 0.0
C783 C 0.72145 0.26401 0.8915 0.0
C784 C 0.70425 0.24235 0.88188 0.0
C785 C 0.72871 0.24874 0.90526 0.0
C786 C 0.74868 0.269 0.91543 0.0
C787 C 0.7387 0.28057 0.92914 0.0
C788 C 0.75699 0.30169 0.93837 0.0
C789 C 0.78536 0.31116 0.93404 0.0
C790 C 0.79564 0.29907 0.92056 0.0
C791 C 0.77747 0.27789 0.9113 0.0
H792 H 0.7994 0.32783 0.94114 0.0
H793 H 0.63839 0.12199 0.84513 0.0
H794 H 0.29053 0.43881 0.87651 0.0
H795 H 0.27529 0.37241 0.87414 0.0
H796 H 0.32694 0.34378 0.91162 0.0
H797 H 0.34348 0.41053 0.91357 0.0
H798 H 0.33139 0.29014 0.89068 0.0
H799 H 0.25473 0.35232 0.91502 0.0
H800 H 0.21859 0.40177 0.91958 0.0
H801 H 0.17598 0.37443 0.87929 0.0
H802 H 0.21216 0.3252 0.87437 0.0
H803 H 0.23339 0.125 0.90438 0.0
H804 H 0.26475 0.18185 0.90606 0.0
H805 H 0.24262 0.2117 0.86205 0.0
H806 H 0.21174 0.1546 0.86011 0.0
H807 H 0.22529 0.26235 0.88806 0.0
H808 H 0.30499 0.19898 0.86444 0.0
H809 H 0.34073 0.14812 0.8618 0.0
H810 H 0.37639 0.17553 0.90371 0.0
H811 H 0.34054 0.22622 0.9067 0.0
C812 C 0.29901 0.41826 0.8841 0.0
C813 C 0.31836 0.42952 0.89513 0.0
C814 C 0.29009 0.38042 0.88283 0.0
C815 C 0.29973 0.35328 0.89281 0.0
C816 C 0.31928 0.36435 0.90381 0.0
C817 C 0.32849 0.40235 0.90499 0.0
C818 C 0.28849 0.3137 0.89184 0.0
C819 C 0.30819 0.28395 0.89031 0.0
C820 C 0.25822 0.30571 0.89135 0.0
C821 C 0.23632 0.33526 0.89427 0.0
C822 C 0.23779 0.35705 0.90707 0.0
C823 C 0.21728 0.38501 0.90973 0.0
C824 C 0.19504 0.39129 0.89972 0.0
C825 C 0.19324 0.36956 0.88704 0.0
C826 C 0.21373 0.34159 0.88431 0.0
C827 C 0.23593 0.14304 0.89491 0.0
C828 C 0.21982 0.1357 0.88218 0.0
C829 C 0.25393 0.17534 0.89587 0.0
C830 C 0.2558 0.20075 0.88419 0.0
C831 C 0.24146 0.19211 0.87113 0.0
C832 C 0.22386 0.15951 0.87005 0.0
C833 C 0.26813 0.23917 0.88646 0.0
C834 C 0.24849 0.26864 0.88842 0.0
C835 C 0.29831 0.24657 0.88764 0.0
C836 C 0.31983 0.21608 0.88587 0.0
C837 C 0.32022 0.19387 0.87317 0.0
C838 C 0.34056 0.16515 0.87159 0.0
C839 C 0.36076 0.1585 0.8826 0.0
C840 C 0.3607 0.18065 0.8952 0.0
C841 C 0.34039 0.20941 0.89684 0.0
H842 H 0.3765 0.13626 0.88136 0.0
H843 H 0.17917 0.41295 0.9018 0.0
H844 H 0.69713 0.91792 0.65212 0.0
H845 H 0.70769 0.85015 0.65147 0.0
H846 H 0.65343 0.8367 0.6135 0.0
H847 H 0.64219 0.90463 0.61434 0.0
H848 H 0.67359 0.78187 0.6515 0.0
H849 H 0.69305 0.77922 0.59021 0.0
H850 H 0.70334 0.82373 0.57003 0.0
H851 H 0.74763 0.89989 0.59943 0.0
H852 H 0.73806 0.85553 0.6197 0.0
H853 H 0.75364 0.62129 0.60662 0.0
H854 H 0.71903 0.67285 0.60834 0.0
H855 H 0.75156 0.70043 0.65114 0.0
H856 H 0.78545 0.64821 0.64965 0.0
H857 H 0.73288 0.74351 0.60912 0.0
H858 H 0.70438 0.74886 0.67099 0.0
H859 H 0.69294 0.70419 0.69092 0.0
H860 H 0.66488 0.6198 0.66001 0.0
H861 H 0.67574 0.66411 0.63989 0.0
C862 C 0.68685 0.90032 0.64386 0.0
C863 C 0.66889 0.91638 0.63326 0.0
C864 C 0.69289 0.86166 0.64351 0.0
C865 C 0.6814 0.83853 0.63243 0.0
C866 C 0.66257 0.85419 0.62211 0.0
C867 C 0.65633 0.89289 0.62254 0.0
C868 C 0.69165 0.79917 0.63092 0.0
C869 C 0.68657 0.77328 0.64227 0.0
C870 C 0.70782 0.78787 0.61865 0.0
C871 C 0.71449 0.81429 0.60648 0.0
C872 C 0.70509 0.8054 0.59234 0.0
C873 C 0.7108 0.83059 0.58089 0.0
C874 C 0.72602 0.86469 0.58346 0.0
C875 C 0.73575 0.87354 0.59746 0.0
C876 C 0.73018 0.84839 0.60893 0.0
C877 C 0.75298 0.63783 0.61651 0.0
C878 C 0.77247 0.63089 0.62793 0.0
C879 C 0.73317 0.6673 0.61749 0.0
C880 C 0.73258 0.69057 0.62987 0.0
C881 C 0.75109 0.68249 0.64158 0.0
C882 C 0.77063 0.65267 0.64069 0.0
C883 C 0.71537 0.72587 0.62987 0.0
C884 C 0.71929 0.75132 0.61824 0.0
C885 C 0.69796 0.73653 0.64184 0.0
C886 C 0.69108 0.70979 0.65391 0.0
C887 C 0.69562 0.72086 0.66844 0.0
C888 C 0.68927 0.69557 0.67977 0.0
C889 C 0.67826 0.65916 0.67674 0.0
C890 C 0.6735 0.64798 0.66235 0.0
C891 C 0.6798 0.67315 0.65097 0.0
H892 H 0.67337 0.63962 0.68553 0.0
H893 H 0.73035 0.8842 0.57459 0.0
H894 H 0.23736 0.84903 0.60549 0.0
H895 H 0.26745 0.79337 0.60871 0.0
H896 H 0.26836 0.81142 0.65501 0.0
H897 H 0.23769 0.867 0.65201 0.0
H898 H 0.32584 0.77777 0.63368 0.0
H899 H 0.22657 0.75733 0.65546 0.0
H900 H 0.17382 0.76862 0.65399 0.0
H901 H 0.17172 0.72223 0.61083 0.0
H902 H 0.22458 0.71118 0.61201 0.0
H903 H 0.35614 0.58343 0.65127 0.0
H904 H 0.34073 0.64974 0.65233 0.0
H905 H 0.28459 0.63 0.61537 0.0
H906 H 0.29857 0.56359 0.61488 0.0
H907 H 0.25674 0.66759 0.6346 0.0
H908 H 0.35198 0.67901 0.61314 0.0
H909 H 0.40506 0.67079 0.61176 0.0
H910 H 0.41644 0.73561 0.65095 0.0
H911 H 0.36335 0.74379 0.65266 0.0
C912 C 0.24459 0.84197 0.61634 0.0
C913 C 0.23461 0.86206 0.62853 0.0
C914 C 0.26193 0.81023 0.61813 0.0
C915 C 0.26991 0.7984 0.63209 0.0
C916 C 0.26243 0.82038 0.64416 0.0
C917 C 0.24479 0.85198 0.64241 0.0
C918 C 0.28091 0.75967 0.63406 0.0
C919 C 0.31091 0.75356 0.63419 0.0
C920 C 0.26128 0.72838 0.63431 0.0
C921 C 0.22943 0.73367 0.63379 0.0
C922 C 0.21483 0.74968 0.64565 0.0
C923 C 0.18494 0.75604 0.64487 0.0
C924 C 0.16943 0.74622 0.63232 0.0
C925 C 0.18376 0.72985 0.62055 0.0
C926 C 0.21366 0.7235 0.62127 0.0
C927 C 0.34043 0.59336 0.64344 0.0
C928 C 0.32881 0.56857 0.63288 0.0
C929 C 0.33185 0.63128 0.64395 0.0
C930 C 0.31178 0.64504 0.6338 0.0
C931 C 0.30018 0.62014 0.62329 0.0
C932 C 0.30847 0.58227 0.62289 0.0
C933 C 0.30203 0.685 0.63424 0.0
C934 C 0.272 0.69149 0.63443 0.0
C935 C 0.32179 0.71647 0.63414 0.0
C936 C 0.35368 0.71163 0.63312 0.0
C937 C 0.36579 0.69125 0.62152 0.0
C938 C 0.39587 0.68664 0.62067 0.0
C939 C 0.4141 0.70256 0.63128 0.0
C940 C 0.40228 0.72323 0.64275 0.0
C941 C 0.3722 0.72788 0.64366 0.0
H942 H 0.43739 0.69898 0.6306 0.0
H943 H 0.14631 0.75125 0.63172 0.0
H944 H 0.79209 0.4181 0.61025 0.0
H945 H 0.78201 0.34993 0.61284 0.0
H946 H 0.86739 0.33514 0.63132 0.0
H947 H 0.87713 0.40377 0.62904 0.0
H948 H 0.80361 0.28528 0.60377 0.0
H949 H 0.86105 0.27018 0.65885 0.0
H950 H 0.87816 0.31043 0.67922 0.0
H951 H 0.81139 0.3907 0.67009 0.0
H952 H 0.79367 0.35068 0.64981 0.0
H953 H 0.76159 0.1017 0.62274 0.0
H954 H 0.79789 0.15328 0.62098 0.0
H955 H 0.75064 0.21703 0.65304 0.0
H956 H 0.71553 0.16451 0.65549 0.0
H957 H 0.80507 0.23695 0.65446 0.0
H958 H 0.73437 0.22067 0.61515 0.0
H959 H 0.71089 0.18268 0.59572 0.0
H960 H 0.79324 0.17167 0.57427 0.0
H961 H 0.81722 0.20937 0.59365 0.0
C962 C 0.80883 0.40006 0.6146 0.0
C963 C 0.83524 0.41578 0.61954 0.0
C964 C 0.80314 0.36121 0.61604 0.0
C965 C 0.82383 0.33755 0.62243 0.0
C966 C 0.85099 0.35299 0.62655 0.0
C967 C 0.85656 0.39199 0.62523 0.0
C968 C 0.81561 0.29772 0.62592 0.0
C969 C 0.80433 0.2745 0.61481 0.0
C970 C 0.81627 0.2838 0.64036 0.0
C971 C 0.82631 0.30768 0.65272 0.0
C972 C 0.84999 0.29636 0.66123 0.0
C973 C 0.85978 0.31913 0.67276 0.0
C974 C 0.84594 0.35317 0.67591 0.0
C975 C 0.82215 0.36439 0.66761 0.0
C976 C 0.81223 0.34169 0.6561 0.0
C977 C 0.75965 0.12621 0.62977 0.0
C978 C 0.73566 0.1296 0.63909 0.0
C979 C 0.78028 0.15568 0.62872 0.0
C980 C 0.7764 0.18953 0.63649 0.0
C981 C 0.75399 0.19129 0.64685 0.0
C982 C 0.73387 0.16132 0.64823 0.0
C983 C 0.79241 0.22486 0.63237 0.0
C984 C 0.80518 0.24725 0.64334 0.0
C985 C 0.79219 0.23861 0.61788 0.0
C986 C 0.7776 0.21747 0.6059 0.0
C987 C 0.74743 0.21016 0.60627 0.0
C988 C 0.73405 0.18865 0.59528 0.0
C989 C 0.75058 0.17464 0.5838 0.0
C990 C 0.78048 0.18247 0.58319 0.0
C991 C 0.79397 0.20394 0.59416 0.0
H992 H 0.74023 0.15774 0.57537 0.0
H993 H 0.85361 0.3708 0.68481 0.0
H994 H 0.2837 0.33671 0.60616 0.0
H995 H 0.24534 0.28851 0.60499 0.0
H996 H 0.21816 0.31742 0.64848 0.0
H997 H 0.25792 0.36457 0.64999 0.0
H998 H 0.22156 0.24701 0.64735 0.0
H999 H 0.17343 0.332 0.61683 0.0
H1000 H 0.16647 0.37906 0.59736 0.0
H1001 H 0.1888 0.29595 0.5653 0.0
H1002 H 0.19634 0.2485 0.58458 0.0
H1003 H 0.12907 0.08466 0.63546 0.0
H1004 H 0.13675 0.15384 0.63677 0.0
H1005 H 0.20511 0.14669 0.60486 0.0
H1006 H 0.19864 0.07769 0.60408 0.0
H1007 H 0.16511 0.2144 0.60295 0.0
H1008 H 0.22691 0.13988 0.63659 0.0
H1009 H 0.23075 0.09302 0.65642 0.0
H1010 H 0.1761 0.16108 0.68339 0.0
H1011 H 0.17161 0.20805 0.6636 0.0
C1012 C 0.26928 0.33328 0.6154 0.0
C1013 C 0.27391 0.35424 0.6282 0.0
C1014 C 0.24705 0.30592 0.61467 0.0
C1015 C 0.22835 0.29967 0.62654 0.0
C1016 C 0.23221 0.32174 0.63915 0.0
C1017 C 0.25494 0.34862 0.64001 0.0
C1018 C 0.20748 0.26692 0.62631 0.0
C1019 C 0.20847 0.24069 0.63781 0.0
C1020 C 0.19019 0.25832 0.61392 0.0
C1021 C 0.18552 0.28665 0.6022 0.0
C1022 C 0.17702 0.32377 0.60564 0.0
C1023 C 0.17295 0.35054 0.59463 0.0
C1024 C 0.1772 0.34051 0.5801 0.0
C1025 C 0.18547 0.30366 0.57656 0.0
C1026 C 0.18958 0.27678 0.58753 0.0
C1027 C 0.1455 0.09803 0.62862 0.0
C1028 C 0.16348 0.07595 0.61977 0.0
C1029 C 0.14959 0.13743 0.62926 0.0
C1030 C 0.17137 0.15515 0.62085 0.0
C1031 C 0.18793 0.13344 0.61127 0.0
C1032 C 0.18423 0.09407 0.61084 0.0
C1033 C 0.18046 0.19484 0.62365 0.0
C1034 C 0.1773 0.22196 0.61265 0.0
C1035 C 0.19519 0.20476 0.6366 0.0
C1036 C 0.1987 0.17721 0.64861 0.0
C1037 C 0.21562 0.14472 0.64673 0.0
C1038 C 0.21792 0.11817 0.65796 0.0
C1039 C 0.20362 0.12402 0.67115 0.0
C1040 C 0.18712 0.15655 0.67316 0.0
C1041 C 0.18469 0.18314 0.66195 0.0
H1042 H 0.20537 0.10339 0.67981 0.0
H1043 H 0.17406 0.36128 0.57159 0.0
H1044 H 0.87395 0.59001 0.89713 0.0
H1045 H 0.86568 0.65856 0.89919 0.0
H1046 H 0.80018 0.65026 0.86571 0.0
H1047 H 0.80769 0.58186 0.86397 0.0
H1048 H 0.83669 0.71865 0.8645 0.0
H1049 H 0.77864 0.64077 0.89855 0.0
H1050 H 0.77446 0.59372 0.91836 0.0
H1051 H 0.82749 0.66533 0.94581 0.0
H1052 H 0.83238 0.71252 0.92604 0.0
H1053 H 0.72224 0.8439 0.87317 0.0
H1054 H 0.75807 0.79475 0.8697 0.0
H1055 H 0.79522 0.8206 0.91174 0.0
H1056 H 0.75838 0.86877 0.91555 0.0
H1057 H 0.78579 0.74993 0.91039 0.0
H1058 H 0.83384 0.83538 0.87854 0.0
H1059 H 0.83963 0.88253 0.85889 0.0
H1060 H 0.80914 0.80018 0.82774 0.0
H1061 H 0.80273 0.75265 0.84722 0.0
C1062 C 0.85804 0.60304 0.89013 0.0
C1063 C 0.84123 0.58082 0.8805 0.0
C1064 C 0.85354 0.64208 0.89122 0.0
C1065 C 0.83234 0.65928 0.8826 0.0
C1066 C 0.81685 0.63749 0.87234 0.0
C1067 C 0.8211 0.59847 0.87138 0.0
C1068 C 0.82316 0.69847 0.88555 0.0
C1069 C 0.82564 0.72582 0.87452 0.0
C1070 C 0.80967 0.70786 0.89883 0.0
C1071 C 0.80616 0.67991 0.91078 0.0
C1072 C 0.78956 0.64634 0.90878 0.0
C1073 C 0.78705 0.61967 0.92 0.0
C1074 C 0.80077 0.62648 0.93332 0.0
C1075 C 0.81693 0.66005 0.93547 0.0
C1076 C 0.81959 0.68676 0.92427 0.0
C1077 C 0.73838 0.83964 0.88156 0.0
C1078 C 0.73733 0.8599 0.89469 0.0
C1079 C 0.75909 0.8117 0.87951 0.0
C1080 C 0.77964 0.80414 0.89039 0.0
C1081 C 0.77959 0.82586 0.90319 0.0
C1082 C 0.75852 0.85335 0.90536 0.0
C1083 C 0.79844 0.77048 0.88914 0.0
C1084 C 0.79765 0.74379 0.9005 0.0
C1085 C 0.81377 0.76203 0.87621 0.0
C1086 C 0.81769 0.79045 0.86439 0.0
C1087 C 0.82819 0.82736 0.86752 0.0
C1088 C 0.8316 0.85416 0.8564 0.0
C1089 C 0.82473 0.84437 0.84208 0.0
C1090 C 0.81447 0.80772 0.83884 0.0
C1091 C 0.811 0.7808 0.84992 0.0
H1092 H 0.82738 0.86517 0.83349 0.0
H1093 H 0.79882 0.60578 0.94199 0.0
H1094 H 0.19965 0.92472 0.89594 0.0
H1095 H 0.21101 0.85706 0.8952 0.0
H1096 H 0.12743 0.83217 0.87574 0.0
H1097 H 0.11606 0.90034 0.87639 0.0
H1098 H 0.14874 0.77842 0.89918 0.0
H1099 H 0.17322 0.83244 0.85325 0.0
H1100 H 0.1934 0.88212 0.83705 0.0
H1101 H 0.2785 0.86586 0.85496 0.0
H1102 H 0.2587 0.81666 0.87152 0.0
H1103 H 0.2639 0.63254 0.86822 0.0
H1104 H 0.22607 0.67928 0.86434 0.0
H1105 H 0.22585 0.70439 0.91026 0.0
H1106 H 0.26283 0.65701 0.91427 0.0
H1107 H 0.23369 0.75058 0.86792 0.0
H1108 H 0.16487 0.74261 0.92152 0.0
H1109 H 0.1433 0.69334 0.93747 0.0
H1110 H 0.14302 0.61357 0.90218 0.0
H1111 H 0.16419 0.66248 0.88594 0.0
C1112 C 0.18356 0.90465 0.89176 0.0
C1113 C 0.15708 0.91724 0.88622 0.0
C1114 C 0.19002 0.86621 0.89132 0.0
C1115 C 0.17004 0.83992 0.88537 0.0
C1116 C 0.14297 0.85219 0.88041 0.0
C1117 C 0.13659 0.89087 0.88073 0.0
C1118 C 0.17901 0.80036 0.88331 0.0
C1119 C 0.16705 0.77188 0.89225 0.0
C1120 C 0.20219 0.792 0.87386 0.0
C1121 C 0.21442 0.82096 0.86368 0.0
C1122 C 0.1962 0.83962 0.85381 0.0
C1123 C 0.20757 0.8677 0.84456 0.0
C1124 C 0.23721 0.87715 0.84498 0.0
C1125 C 0.25554 0.85849 0.85464 0.0
C1126 C 0.24426 0.83048 0.86396 0.0
C1127 C 0.25536 0.64751 0.87753 0.0
C1128 C 0.26659 0.64143 0.89153 0.0
C1129 C 0.23368 0.6741 0.87529 0.0
C1130 C 0.22296 0.6952 0.887 0.0
C1131 C 0.23324 0.6879 0.90108 0.0
C1132 C 0.25466 0.66102 0.90335 0.0
C1133 C 0.20446 0.7285 0.88437 0.0
C1134 C 0.21476 0.75619 0.87456 0.0
C1135 C 0.17942 0.73571 0.89284 0.0
C1136 C 0.16625 0.70627 0.90251 0.0
C1137 C 0.16001 0.71466 0.91712 0.0
C1138 C 0.14791 0.68675 0.92623 0.0
C1139 C 0.14184 0.65033 0.92085 0.0
C1140 C 0.1478 0.64177 0.90634 0.0
C1141 C 0.1599 0.66956 0.89718 0.0
H1142 H 0.13249 0.62877 0.92792 0.0
H1143 H 0.24598 0.89891 0.83781 0.0
H1144 H 0.20759 0.56348 0.379 0.0
H1145 H 0.22021 0.63041 0.37554 0.0
H1146 H 0.16696 0.65975 0.41235 0.0
H1147 H 0.1535 0.59208 0.4156 0.0
H1148 H 0.16036 0.70953 0.38878 0.0
H1149 H 0.23692 0.65974 0.41708 0.0
H1150 H 0.27451 0.61443 0.42429 0.0
H1151 H 0.32013 0.63528 0.38427 0.0
H1152 H 0.28254 0.68027 0.3767 0.0
H1153 H 0.24948 0.88427 0.39825 0.0
H1154 H 0.2188 0.82705 0.40066 0.0
H1155 H 0.25069 0.78616 0.35961 0.0
H1156 H 0.28103 0.84355 0.35694 0.0
H1157 H 0.26534 0.74485 0.38749 0.0
H1158 H 0.18594 0.7954 0.35962 0.0
H1159 H 0.14831 0.84209 0.35393 0.0
H1160 H 0.10866 0.82255 0.39559 0.0
H1161 H 0.14635 0.77612 0.40162 0.0
C1162 C 0.19833 0.58422 0.38627 0.0
C1163 C 0.17946 0.5729 0.3975 0.0
C1164 C 0.20566 0.62238 0.38433 0.0
C1165 C 0.19464 0.64992 0.39374 0.0
C1166 C 0.17561 0.63881 0.40497 0.0
C1167 C 0.16817 0.60035 0.40689 0.0
C1168 C 0.20408 0.69 0.3919 0.0
C1169 C 0.18327 0.7175 0.38873 0.0
C1170 C 0.23398 0.70017 0.39177 0.0
C1171 C 0.25675 0.67318 0.39628 0.0
C1172 C 0.25483 0.65444 0.40976 0.0
C1173 C 0.27617 0.62884 0.41392 0.0
C1174 C 0.29967 0.62193 0.40473 0.0
C1175 C 0.3019 0.64065 0.39137 0.0
C1176 C 0.2806 0.66624 0.38715 0.0
C1177 C 0.2491 0.86377 0.38946 0.0
C1178 C 0.26797 0.86801 0.37751 0.0
C1179 C 0.23149 0.83122 0.39085 0.0
C1180 C 0.23274 0.8025 0.38036 0.0
C1181 C 0.24946 0.80826 0.36777 0.0
C1182 C 0.26673 0.84107 0.36626 0.0
C1183 C 0.22175 0.76403 0.38389 0.0
C1184 C 0.24241 0.73691 0.38756 0.0
C1185 C 0.1918 0.75464 0.38473 0.0
C1186 C 0.16919 0.78262 0.38114 0.0
C1187 C 0.16941 0.80137 0.36764 0.0
C1188 C 0.14801 0.82771 0.36433 0.0
C1189 C 0.12617 0.83538 0.37441 0.0
C1190 C 0.12563 0.81663 0.3878 0.0
C1191 C 0.14699 0.79028 0.39116 0.0
H1192 H 0.10961 0.85576 0.37183 0.0
H1193 H 0.31617 0.60211 0.40797 0.0
H1194 H 0.78109 0.93924 0.38334 0.0
H1195 H 0.76677 0.87233 0.38067 0.0
H1196 H 0.84066 0.83972 0.40646 0.0
H1197 H 0.85538 0.90711 0.40887 0.0
H1198 H 0.83253 0.79307 0.3824 0.0
H1199 H 0.7766 0.83873 0.42198 0.0
H1200 H 0.74471 0.88254 0.43512 0.0
H1201 H 0.67704 0.8626 0.40372 0.0
H1202 H 0.7087 0.81912 0.39024 0.0
H1203 H 0.73694 0.62182 0.40335 0.0
H1204 H 0.76922 0.67765 0.40534 0.0
H1205 H 0.74452 0.71271 0.36227 0.0
H1206 H 0.71278 0.6565 0.35998 0.0
H1207 H 0.73248 0.75429 0.39722 0.0
H1208 H 0.79657 0.71779 0.3555 0.0
H1209 H 0.82951 0.672 0.34409 0.0
H1210 H 0.88227 0.67165 0.3826 0.0
H1211 H 0.84931 0.71706 0.3943 0.0
C1212 C 0.79431 0.9177 0.38835 0.0
C1213 C 0.81927 0.92792 0.39627 0.0
C1214 C 0.78612 0.87962 0.38687 0.0
C1215 C 0.80256 0.85118 0.39346 0.0
C1216 C 0.82775 0.86131 0.40129 0.0
C1217 C 0.83599 0.89959 0.40275 0.0
C1218 C 0.79265 0.81109 0.39242 0.0
C1219 C 0.81076 0.7845 0.38577 0.0
C1220 C 0.76435 0.79987 0.39693 0.0
C1221 C 0.74513 0.82587 0.40503 0.0
C1222 C 0.755 0.84391 0.41781 0.0
C1223 C 0.73695 0.86865 0.42533 0.0
C1224 C 0.70889 0.8754 0.42024 0.0
C1225 C 0.69879 0.85736 0.40764 0.0
C1226 C 0.71677 0.83263 0.40006 0.0
C1227 C 0.7392 0.64068 0.39409 0.0
C1228 C 0.72214 0.63506 0.38156 0.0
C1229 C 0.75774 0.67239 0.39523 0.0
C1230 C 0.75938 0.69888 0.3839 0.0
C1231 C 0.74398 0.69201 0.37099 0.0
C1232 C 0.72576 0.65998 0.36973 0.0
C1233 C 0.77188 0.73695 0.38672 0.0
C1234 C 0.75425 0.763 0.39387 0.0
C1235 C 0.80059 0.74743 0.38284 0.0
C1236 C 0.82028 0.72026 0.37583 0.0
C1237 C 0.81497 0.70754 0.36159 0.0
C1238 C 0.8337 0.68178 0.35506 0.0
C1239 C 0.8579 0.66879 0.36264 0.0
C1240 C 0.86347 0.68164 0.37676 0.0
C1241 C 0.84479 0.70738 0.38334 0.0
H1242 H 0.87239 0.64887 0.35756 0.0
H1243 H 0.69494 0.89457 0.42608 0.0
H1244 H 0.27582 0.1261 0.14953 0.0
H1245 H 0.24039 0.17664 0.15204 0.0
H1246 H 0.2392 0.19088 0.10546 0.0
H1247 H 0.27391 0.14012 0.10284 0.0
H1248 H 0.2494 0.24757 0.1455 0.0
H1249 H 0.17766 0.22768 0.09367 0.0
H1250 H 0.15607 0.17504 0.07937 0.0
H1251 H 0.15703 0.10286 0.11698 0.0
H1252 H 0.17826 0.15518 0.13157 0.0
H1253 H 0.20542 0.41823 0.11601 0.0
H1254 H 0.22093 0.35221 0.11757 0.0
H1255 H 0.1392 0.32042 0.13762 0.0
H1256 H 0.12358 0.38692 0.13607 0.0
H1257 H 0.16109 0.26724 0.11559 0.0
H1258 H 0.18925 0.33016 0.15945 0.0
H1259 H 0.21024 0.38293 0.17388 0.0
H1260 H 0.29358 0.36617 0.15407 0.0
H1261 H 0.27294 0.31379 0.13928 0.0
C1262 C 0.26759 0.13951 0.1398 0.0
C1263 C 0.27781 0.12914 0.12598 0.0
C1264 C 0.24733 0.16838 0.14126 0.0
C1265 C 0.23693 0.18736 0.12894 0.0
C1266 C 0.24636 0.17613 0.11512 0.0
C1267 C 0.26642 0.14717 0.11364 0.0
C1268 C 0.21892 0.22163 0.1305 0.0
C1269 C 0.22985 0.25155 0.13912 0.0
C1270 C 0.19316 0.22677 0.12233 0.0
C1271 C 0.1797 0.19538 0.11371 0.0
C1272 C 0.17306 0.20068 0.09893 0.0
C1273 C 0.16094 0.17086 0.09076 0.0
C1274 C 0.15524 0.13561 0.09725 0.0
C1275 C 0.16154 0.13014 0.11195 0.0
C1276 C 0.17365 0.15987 0.12018 0.0
C1277 C 0.19061 0.39698 0.12051 0.0
C1278 C 0.16339 0.40729 0.12593 0.0
C1279 C 0.19948 0.35944 0.12144 0.0
C1280 C 0.18124 0.33167 0.12779 0.0
C1281 C 0.15349 0.34156 0.13267 0.0
C1282 C 0.14467 0.37934 0.13183 0.0
C1283 C 0.19234 0.29306 0.13012 0.0
C1284 C 0.18022 0.26263 0.12222 0.0
C1285 C 0.21678 0.28716 0.1391 0.0
C1286 C 0.22949 0.31815 0.14819 0.0
C1287 C 0.21201 0.33787 0.15809 0.0
C1288 C 0.22385 0.36772 0.16634 0.0
C1289 C 0.25322 0.37791 0.16488 0.0
C1290 C 0.27083 0.35823 0.15519 0.0
C1291 C 0.25907 0.32844 0.14688 0.0
H1292 H 0.26235 0.40103 0.17128 0.0
H1293 H 0.14591 0.11254 0.0909 0.0
H1294 H 0.74718 0.36056 0.11037 0.0
H1295 H 0.77747 0.30508 0.11369 0.0
H1296 H 0.7528 0.29958 0.15886 0.0
H1297 H 0.72215 0.35478 0.15565 0.0
H1298 H 0.82198 0.27739 0.13146 0.0
H1299 H 0.72935 0.20837 0.16479 0.0
H1300 H 0.67678 0.21618 0.16904 0.0
H1301 H 0.66728 0.26344 0.12631 0.0
H1302 H 0.71966 0.25531 0.12173 0.0
H1303 H 0.86143 0.08699 0.15153 0.0
H1304 H 0.84571 0.15333 0.15243 0.0
H1305 H 0.77831 0.12719 0.12114 0.0
H1306 H 0.79338 0.06107 0.12057 0.0
H1307 H 0.75734 0.16688 0.14307 0.0
H1308 H 0.84033 0.17491 0.11127 0.0
H1309 H 0.89168 0.16697 0.10436 0.0
H1310 H 0.91872 0.24001 0.13941 0.0
H1311 H 0.86751 0.24796 0.14666 0.0
C1312 C 0.7487 0.34821 0.12111 0.0
C1313 C 0.73155 0.36149 0.13264 0.0
C1314 C 0.76624 0.31662 0.123 0.0
C1315 C 0.76686 0.29786 0.13644 0.0
C1316 C 0.75227 0.31346 0.14835 0.0
C1317 C 0.73472 0.34501 0.14647 0.0
C1318 C 0.7786 0.25908 0.13733 0.0
C1319 C 0.80801 0.25321 0.13416 0.0
C1320 C 0.76012 0.22753 0.14051 0.0
C1321 C 0.72846 0.23166 0.14301 0.0
C1322 C 0.716 0.22028 0.15629 0.0
C1323 C 0.68624 0.22476 0.15875 0.0
C1324 C 0.66872 0.24043 0.14797 0.0
C1325 C 0.68089 0.25144 0.13467 0.0
C1326 C 0.7106 0.2469 0.13214 0.0
C1327 C 0.84329 0.09562 0.14487 0.0
C1328 C 0.82882 0.06922 0.13585 0.0
C1329 C 0.83445 0.13343 0.14532 0.0
C1330 C 0.811 0.14524 0.13675 0.0
C1331 C 0.7965 0.11872 0.12781 0.0
C1332 C 0.8053 0.08106 0.12737 0.0
C1333 C 0.80087 0.18493 0.13725 0.0
C1334 C 0.77159 0.19101 0.14065 0.0
C1335 C 0.81936 0.21641 0.13395 0.0
C1336 C 0.85013 0.21166 0.12961 0.0
C1337 C 0.85724 0.189 0.11759 0.0
C1338 C 0.88631 0.18455 0.11359 0.0
C1339 C 0.90845 0.20288 0.12147 0.0
C1340 C 0.90155 0.22577 0.13334 0.0
C1341 C 0.87251 0.23027 0.13739 0.0
H1342 H 0.93095 0.19941 0.11835 0.0
H1343 H 0.64571 0.24396 0.14991 0.0
H1344 H 0.26947 0.09581 0.05555 0.0
H1345 H 0.23671 0.09535 0.0346 0.0
H1346 H 0.27367 0.9901 0.02 0.0
H1347 H 0.30756 0.99193 0.04051 0.0
H1348 H 0.26873 0.03101 0.99825 0.0
H1349 H 0.2017 -0.0013 0.03615 0.0
H1350 H 0.17726 0.00612 0.05981 0.0
H1351 H 0.14445 0.11388 0.04623 0.0
H1352 H 0.16899 0.10732 0.02254 0.0
H1353 H 0.12123 0.01612 0.95632 0.0
H1354 H 0.1474 0.01161 0.97952 0.0
H1355 H 0.21103 0.09394 0.96418 0.0
H1356 H 0.18573 0.0975 0.94097 0.0
H1357 H 0.16325 0.0572 1.0012 0.0
H1358 H 0.27766 0.07232 0.9747 0.0
H1359 H 0.30142 0.05818 0.95133 0.0
H1360 H 0.23754 0.97038 0.94281 0.0
H1361 H 0.21368 0.98359 0.96622 0.0
C1362 C 0.27027 0.07238 0.04795 0.0
C1363 C 0.29078 0.04369 0.04969 0.0
C1364 C 0.25144 0.07199 0.03599 0.0
C1365 C 0.25219 0.0423 0.02576 0.0
C1366 C 0.27254 0.01337 0.02767 0.0
C1367 C 0.29185 0.01431 0.03941 0.0
C1368 C 0.23296 0.04235 0.01267 0.0
C1369 C 0.24565 0.03656 0.99898 0.0
C1370 C 0.20264 0.04894 0.01348 0.0
C1371 C 0.18736 0.05262 0.0276 0.0
C1372 C 0.18937 0.02405 0.03823 0.0
C1373 C 0.1755 0.0281 0.05165 0.0
C1374 C 0.15936 0.06049 0.05453 0.0
C1375 C 0.15696 0.08881 0.04398 0.0
C1376 C 0.17081 0.08491 0.03055 0.0
C1377 C 0.14065 0.03349 0.95798 0.0
C1378 C 0.15163 0.05677 0.94675 0.0
C1379 C 0.15558 0.03092 0.97124 0.0
C1380 C 0.18158 0.05179 0.9735 0.0
C1381 C 0.19149 0.07676 0.96259 0.0
C1382 C 0.17691 0.07887 0.94932 0.0
C1383 C 0.19925 0.04646 0.9869 0.0
C1384 C 0.18629 0.05135 1.00058 0.0
C1385 C 0.22919 0.03785 0.98616 0.0
C1386 C 0.24375 0.02919 0.97217 0.0
C1387 C 0.26879 0.04986 0.96788 0.0
C1388 C 0.28225 0.04203 0.95462 0.0
C1389 C 0.27095 0.01347 0.94558 0.0
C1390 C 0.24623 0.99257 0.9498 0.0
C1391 C 0.23271 0.00023 0.96306 0.0
H1392 H 0.28138 0.00751 0.9353 0.0
H1393 H 0.14869 0.06361 0.06494 0.0
H1394 H 0.86939 0.39636 0.95494 0.0
H1395 H 0.84737 0.40088 0.97913 0.0
H1396 H 0.77179 0.45255 0.96021 0.0
H1397 H 0.7945 0.4504 0.93635 0.0
H1398 H 0.78127 0.48621 0.98344 0.0
H1399 H 0.77649 0.352 0.97183 0.0
H1400 H 0.79582 0.28926 0.96533 0.0
H1401 H 0.85036 0.29162 1.00317 0.0
H1402 H 0.83135 0.35429 0.00994 0.0
H1403 H 0.6746 0.4404 0.03702 0.0
H1404 H 0.70423 0.43865 0.01496 0.0
H1405 H 0.7815 0.42634 0.04091 0.0
H1406 H 0.7523 0.43007 0.06306 0.0
H1407 H 0.77482 0.37373 0.01586 0.0
H1408 H 0.77346 0.50694 0.02804 0.0
H1409 H 0.7498 0.56697 0.03442 0.0
H1410 H 0.70214 0.56368 0.99429 0.0
H1411 H 0.72519 0.5033 0.98777 0.0
C1412 C 0.8482 0.40899 0.95602 0.0
C1413 C 0.83374 0.42313 0.94376 0.0
C1414 C 0.83545 0.41122 0.96983 0.0
C1415 C 0.80752 0.42636 0.97157 0.0
C1416 C 0.79332 0.44082 0.95928 0.0
C1417 C 0.80636 0.43956 0.9456 0.0
C1418 C 0.79287 0.42746 0.98605 0.0
C1419 C 0.77967 0.46137 0.9904 0.0
C1420 C 0.79117 0.39548 0.99544 0.0
C1421 C 0.80274 0.35798 0.9913 0.0
C1422 C 0.79274 0.33924 0.97871 0.0
C1423 C 0.8036 0.30369 0.97499 0.0
C1424 C 0.82441 0.28662 0.98378 0.0
C1425 C 0.8343 0.30493 0.99636 0.0
C1426 C 0.82344 0.3404 1.00016 0.0
C1427 C 0.69789 0.4372 0.03807 0.0
C1428 C 0.71089 0.43422 0.05186 0.0
C1429 C 0.71477 0.43617 0.02544 0.0
C1430 C 0.74501 0.43211 0.02632 0.0
C1431 C 0.75812 0.42896 0.04002 0.0
C1432 C 0.74129 0.43058 0.05268 0.0
C1433 C 0.76286 0.43199 0.01289 0.0
C1434 C 0.77665 0.39843 0.00883 0.0
C1435 C 0.7646 0.46396 1.00362 0.0
C1436 C 0.75086 0.50041 1.00748 0.0
C1437 C 0.75775 0.51884 0.02063 0.0
C1438 C 0.74448 0.55297 0.02426 0.0
C1439 C 0.72443 0.56909 0.01478 0.0
C1440 C 0.71765 0.55115 1.00163 0.0
C1441 C 0.73083 0.51699 0.99796 0.0
H1442 H 0.71418 0.59551 0.01761 0.0
H1443 H 0.83279 0.25912 0.98086 0.0
H1444 H 0.35569 -0.00126 0.45038 0.0
H1445 H 0.3321 -0.00294 0.47426 0.0
H1446 H 0.29464 0.88668 0.46426 0.0
H1447 H 0.31684 0.88935 0.44019 0.0
H1448 H 0.25517 0.92494 0.47503 0.0
H1449 H 0.35315 0.90344 0.48983 0.0
H1450 H 0.40597 0.91619 0.49158 0.0
H1451 H 0.3901 0.02302 0.51238 0.0
H1452 H 0.33716 0.01111 0.51059 0.0
H1453 H 0.24444 0.90222 0.55907 0.0
H1454 H 0.27456 0.90488 0.53714 0.0
H1455 H 0.21291 0.9793 0.51698 0.0
H1456 H 0.18248 0.97598 0.53875 0.0
H1457 H 0.30312 0.95641 0.52191 0.0
H1458 H 0.20607 0.96032 0.48157 0.0
H1459 H 0.15482 0.93846 0.48026 0.0
H1460 H 0.17201 0.85026 0.51118 0.0
H1461 H 0.22342 0.87127 0.51251 0.0
C1462 C 0.34273 0.97394 0.45339 0.0
C1463 C 0.33809 0.94418 0.44344 0.0
C1464 C 0.3293 0.97291 0.46708 0.0
C1465 C 0.31164 0.94159 0.47121 0.0
C1466 C 0.30791 0.91133 0.46138 0.0
C1467 C 0.32073 0.91277 0.44762 0.0
C1468 C 0.29569 0.94097 0.48536 0.0
C1469 C 0.2658 0.93181 0.48525 0.0
C1470 C 0.30939 0.94932 0.49882 0.0
C1471 C 0.3412 0.95653 0.49995 0.0
C1472 C 0.36093 0.92977 0.49469 0.0
C1473 C 0.39089 0.93683 0.4957 0.0
C1474 C 0.40138 0.97044 0.50205 0.0
C1475 C 0.38194 -0.00298 0.50745 0.0
C1476 C 0.35196 0.99011 0.50645 0.0
C1477 C 0.23761 0.91974 0.55008 0.0
C1478 C 0.21118 0.93911 0.55066 0.0
C1479 C 0.25481 0.92113 0.53751 0.0
C1480 C 0.24587 0.94186 0.52529 0.0
C1481 C 0.22003 0.96245 0.52612 0.0
C1482 C 0.20269 0.96066 0.53859 0.0
C1483 C 0.26275 0.9406 0.51147 0.0
C1484 C 0.29267 0.94955 0.51164 0.0
C1485 C 0.24935 0.93074 0.49809 0.0
C1486 C 0.21851 0.91765 0.49725 0.0
C1487 C 0.19892 0.93619 0.48804 0.0
C1488 C 0.16985 0.92395 0.4873 0.0
C1489 C 0.16014 0.89307 0.49567 0.0
C1490 C 0.17952 0.87427 0.50475 0.0
C1491 C 0.20862 0.88635 0.50551 0.0
H1492 H 0.13762 0.88367 0.49509 0.0
H1493 H 0.42459 0.97585 0.50283 0.0
H1494 H 0.81162 0.50703 0.53973 0.0
H1495 H 0.77882 0.50607 0.51876 0.0
H1496 H 0.73488 0.60377 0.53584 0.0
H1497 H 0.76677 0.60348 0.55713 0.0
H1498 H 0.69645 0.56066 0.52411 0.0
H1499 H 0.78875 0.60983 0.50823 0.0
H1500 H 0.84192 0.61052 0.50462 0.0
H1501 H 0.83471 0.50876 0.47903 0.0
H1502 H 0.78151 0.50721 0.48264 0.0
H1503 H 0.68508 0.6078 0.44059 0.0
H1504 H 0.71062 0.60741 0.46378 0.0
H1505 H 0.65194 0.5192 0.47939 0.0
H1506 H 0.62528 0.52108 0.4563 0.0
H1507 H 0.7411 0.55768 0.47508 0.0
H1508 H 0.64994 0.51818 0.51634 0.0
H1509 H 0.59748 0.5285 0.51992 0.0
H1510 H 0.60331 0.63071 0.4945 0.0
H1511 H 0.65584 0.62125 0.49092 0.0
C1512 C 0.79476 0.52803 0.53902 0.0
C1513 C 0.79159 0.5552 0.55003 0.0
C1514 C 0.7761 0.52762 0.52702 0.0
C1515 C 0.75462 0.5553 0.52553 0.0
C1516 C 0.75115 0.58203 0.53671 0.0
C1517 C 0.76938 0.58188 0.54888 0.0
C1518 C 0.73658 0.55734 0.51211 0.0
C1519 C 0.70621 0.55997 0.51338 0.0
C1520 C 0.74923 0.55732 0.49807 0.0
C1521 C 0.7812 0.5582 0.49583 0.0
C1522 C 0.79854 0.58747 0.50191 0.0
C1523 C 0.82867 0.58803 0.49986 0.0
C1524 C 0.84169 0.55964 0.49164 0.0
C1525 C 0.82459 0.53069 0.48542 0.0
C1526 C 0.79445 0.52997 0.48746 0.0
C1527 C 0.67736 0.5887 0.44905 0.0
C1528 C 0.65318 0.5645 0.44667 0.0
C1529 C 0.69207 0.58835 0.4623 0.0
C1530 C 0.68334 0.56328 0.47342 0.0
C1531 C 0.65887 0.53934 0.47113 0.0
C1532 C 0.64366 0.54032 0.45792 0.0
C1533 C 0.70088 0.56126 0.48702 0.0
C1534 C 0.73122 0.55835 0.48578 0.0
C1535 C 0.68827 0.56265 0.50106 0.0
C1536 C 0.65674 0.56873 0.50323 0.0
C1537 C 0.64003 0.5429 0.51155 0.0
C1538 C 0.61029 0.54859 0.51358 0.0
C1539 C 0.59705 0.58016 0.5074 0.0
C1540 C 0.61356 0.60618 0.49923 0.0
C1541 C 0.6433 0.60064 0.49718 0.0
H1542 H 0.57403 0.58451 0.50897 0.0
H1543 H 0.86502 0.56012 0.49006 0.0
H1544 H 0.72253 0.89431 0.95816 0.0
H1545 H 0.74897 0.8926 0.98117 0.0
H1546 H 0.68401 0.96238 1.00105 0.0
H1547 H 0.65707 0.96392 0.978 0.0
H1548 H 0.74375 0.98603 1.0066 0.0
H1549 H 0.68234 0.87363 0.00926 0.0
H1550 H 0.66147 0.81309 1.00018 0.0
H1551 H 0.74681 0.76587 0.99825 0.0
H1552 H 0.76824 0.82634 1.00713 0.0
H1553 H 0.79289 0.96298 0.07934 0.0
H1554 H 0.76557 0.96842 0.05672 0.0
H1555 H 0.81287 0.87471 0.03868 0.0
H1556 H 0.83904 0.86783 0.06164 0.0
H1557 H 0.76034 0.86428 0.03219 0.0
H1558 H 0.82315 0.97391 0.02832 0.0
H1559 H 0.84661 0.03415 0.03609 0.0
H1560 H 0.76317 0.08648 0.03869 0.0
H1561 H 0.73917 0.02638 0.03111 0.0
C1562 C 0.71375 0.90925 0.96742 0.0
C1563 C 0.6876 0.92917 0.96624 0.0
C1564 C 0.7289 0.90818 0.98057 0.0
C1565 C 0.71841 0.92724 0.99283 0.0
C1566 C 0.69246 0.94747 0.99171 0.0
C1567 C 0.67703 0.94814 0.97856 0.0
C1568 C 0.7347 0.92585 1.00677 0.0
C1569 C 0.74707 0.95955 0.01235 0.0
C1570 C 0.73979 0.89111 0.01398 0.0
C1571 C 0.72691 0.85464 0.00874 0.0
C1572 C 0.69668 0.85044 1.00679 0.0
C1573 C 0.68474 0.81612 1.0017 0.0
C1574 C 0.70281 0.78568 0.99861 0.0
C1575 C 0.73284 0.78948 1.00064 0.0
C1576 C 0.74489 0.82376 1.00571 0.0
C1577 C 0.79774 0.94385 0.07048 0.0
C1578 C 0.81823 0.91504 0.07227 0.0
C1579 C 0.78215 0.94708 0.05749 0.0
C1580 C 0.7873 0.92234 0.0458 0.0
C1581 C 0.80833 0.89415 0.04749 0.0
C1582 C 0.82344 0.89035 0.0606 0.0
C1583 C 0.76989 0.92455 0.0321 0.0
C1584 C 0.75718 0.89093 0.02653 0.0
C1585 C 0.76497 0.95933 0.02476 0.0
C1586 C 0.77935 0.99552 0.02929 0.0
C1587 C 0.80979 -0.00182 0.03065 0.0
C1588 C 0.82319 0.03231 0.035 0.0
C1589 C 0.80639 0.06409 0.03792 0.0
C1590 C 0.77615 0.06183 0.03645 0.0
C1591 C 0.76264 0.02775 0.03211 0.0
H1592 H 0.8168 0.09049 0.04129 0.0
H1593 H 0.69353 0.75913 0.99467 0.0
H1594 H 0.17352 0.62663 0.05797 0.0
H1595 H 0.19946 0.61896 0.03492 0.0
H1596 H 0.22385 0.50609 0.04765 0.0
H1597 H 0.19739 0.51317 0.07061 0.0
H1598 H 0.27137 0.55634 0.03761 0.0
H1599 H 0.17673 0.50996 0.02295 0.0
H1600 H 0.12349 0.51306 0.02023 0.0
H1601 H 0.13322 0.61418 0.99441 0.0
H1602 H 0.18654 0.61201 0.99717 0.0
H1603 H 0.33716 0.50896 0.96989 0.0
H1604 H 0.30902 0.50887 0.99248 0.0
H1605 H 0.26119 0.60539 0.97724 0.0
H1606 H 0.28834 0.60455 0.95447 0.0
H1607 H 0.22491 0.55959 0.98899 0.0
H1608 H 0.31731 0.61063 1.00423 0.0
H1609 H 0.37057 0.61254 1.00743 0.0
H1610 H 0.36568 0.50965 0.03249 0.0
H1611 H 0.31239 0.50687 0.02928 0.0
C1612 C 0.18405 0.59996 0.05579 0.0
C1613 C 0.1833 0.57048 0.06612 0.0
C1614 C 0.19889 0.59564 0.04261 0.0
C1615 C 0.21364 0.56199 0.03958 0.0
C1616 C 0.21264 0.5323 0.04978 0.0
C1617 C 0.19734 0.53632 0.06285 0.0
C1618 C 0.23085 0.55842 0.02597 0.0
C1619 C 0.26124 0.55641 0.02696 0.0
C1620 C 0.21767 0.55972 0.01211 0.0
C1621 C 0.18562 0.56102 0.01039 0.0
C1622 C 0.16751 0.53306 0.01681 0.0
C1623 C 0.13732 0.53461 0.01523 0.0
C1624 C 0.12497 0.56386 1.00718 0.0
C1625 C 0.14281 0.59157 1.00066 0.0
C1626 C 0.17302 0.59017 1.00222 0.0
C1627 C 0.32076 0.53029 0.9714 0.0
C1628 C 0.31508 0.55681 0.96037 0.0
C1629 C 0.30471 0.53032 0.98437 0.0
C1630 C 0.28308 0.55743 0.98674 0.0
C1631 C 0.2776 0.58406 0.97574 0.0
C1632 C 0.29328 0.58365 0.96271 0.0
C1633 C 0.26573 0.55786 1.00051 0.0
C1634 C 0.23522 0.55932 0.99959 0.0
C1635 C 0.27888 0.55677 0.01445 0.0
C1636 C 0.31091 0.55831 0.01637 0.0
C1637 C 0.32762 0.58825 0.01032 0.0
C1638 C 0.35781 0.58952 0.01216 0.0
C1639 C 0.37151 0.56117 0.02012 0.0
C1640 C 0.35504 0.53155 0.0263 0.0
C1641 C 0.32484 0.53012 0.02448 0.0
H1642 H 0.39488 0.56221 0.02153 0.0
H1643 H 0.10159 0.565 1.00597 0.0
H1644 H 0.72416 0.07927 0.57992 0.0
H1645 H 0.75193 0.08155 0.55735 0.0
H1646 H 0.67829 0.03419 0.53412 0.0
H1647 H 0.65024 0.03153 0.55679 0.0
H1648 H 0.7291 0.00046 0.52624 0.0
H1649 H 0.69563 0.12843 0.53206 0.0
H1650 H 0.68908 0.18913 0.54492 0.0
H1651 H 0.78172 0.20527 0.54767 0.0
H1652 H 0.78884 0.14429 0.53507 0.0
H1653 H 0.77953 0.03907 0.45472 0.0
H1654 H 0.75279 0.03334 0.47754 0.0
H1655 H 0.8212 0.09612 0.49959 0.0
H1656 H 0.84737 0.10356 0.47658 0.0
H1657 H 0.77304 0.12151 0.50837 0.0
H1658 H 0.80797 0.99502 0.50341 0.0
H1659 H 0.81641 0.93391 0.49115 0.0
H1660 H 0.72424 0.91395 0.48769 0.0
H1661 H 0.71524 0.97519 0.49976 0.0
C1662 C 0.71376 0.06927 0.57004 0.0
C1663 C 0.68484 0.05527 0.5702 0.0
C1664 C 0.72971 0.07076 0.5571 0.0
C1665 C 0.71716 0.05841 0.54397 0.0
C1666 C 0.68844 0.04396 0.5441 0.0
C1667 C 0.67238 0.04258 0.55707 0.0
C1668 C 0.73409 0.06051 0.53015 0.0
C1669 C 0.7384 0.02701 0.52222 0.0
C1670 C 0.74704 0.09493 0.52512 0.0
C1671 C 0.74276 0.13161 0.53272 0.0
C1672 C 0.71461 0.14476 0.53551 0.0
C1673 C 0.7108 0.17925 0.54274 0.0
C1674 C 0.73497 0.20104 0.54711 0.0
C1675 C 0.76301 0.18838 0.54426 0.0
C1676 C 0.76695 0.15384 0.53709 0.0
C1677 C 0.78908 0.05131 0.46446 0.0
C1678 C 0.81567 0.07172 0.46381 0.0
C1679 C 0.77378 0.04785 0.47757 0.0
C1680 C 0.78503 0.0638 0.49046 0.0
C1681 C 0.81191 0.08355 0.48986 0.0
C1682 C 0.82697 0.08765 0.47669 0.0
C1683 C 0.76826 0.06136 0.50439 0.0
C1684 C 0.76389 0.09485 0.51236 0.0
C1685 C 0.75561 0.02682 0.50956 0.0
C1686 C 0.76095 0.98986 0.50237 0.0
C1687 C 0.78951 0.97772 0.49995 0.0
C1688 C 0.79439 0.94303 0.49304 0.0
C1689 C 0.77088 0.92011 0.48861 0.0
C1690 C 0.74243 0.93176 0.49111 0.0
C1691 C 0.73743 0.96643 0.498 0.0
H1692 H 0.7747 0.89328 0.48326 0.0
H1693 H 0.73197 0.22771 0.55272 0.0
H1694 H 0.33547 0.36819 0.55786 0.0
H1695 H 0.30872 0.37849 0.53521 0.0
H1696 H 0.2752 0.48281 0.55239 0.0
H1697 H 0.30244 0.47319 0.57498 0.0
H1698 H 0.23192 0.42905 0.54022 0.0
H1699 H 0.32204 0.4929 0.52783 0.0
H1700 H 0.37532 0.4984 0.5252 0.0
H1701 H 0.37422 0.4044 0.49545 0.0
H1702 H 0.32095 0.39797 0.49808 0.0
H1703 H 0.16226 0.48496 0.47433 0.0
H1704 H 0.19034 0.48327 0.49694 0.0
H1705 H 0.24567 0.39817 0.47849 0.0
H1706 H 0.21842 0.40069 0.4558 0.0
H1707 H 0.27815 0.4463 0.4919 0.0
H1708 H 0.19076 0.37806 0.50465 0.0
H1709 H 0.13797 0.3671 0.50764 0.0
H1710 H 0.13391 0.46206 0.53681 0.0
H1711 H 0.18666 0.47391 0.53384 0.0
C1712 C 0.32274 0.3936 0.55675 0.0
C1713 C 0.32118 0.41992 0.56821 0.0
C1714 C 0.30744 0.39943 0.5438 0.0
C1715 C 0.28992 0.43137 0.54213 0.0
C1716 C 0.28857 0.45796 0.55347 0.0
C1717 C 0.30432 0.45253 0.56632 0.0
C1718 C 0.27237 0.43626 0.5287 0.0
C1719 C 0.24194 0.43349 0.52966 0.0
C1720 C 0.28552 0.44083 0.51491 0.0
C1721 C 0.31753 0.44473 0.51326 0.0
C1722 C 0.33319 0.47318 0.52083 0.0
C1723 C 0.36338 0.47651 0.51932 0.0
C1724 C 0.37816 0.45171 0.51019 0.0
C1725 C 0.36275 0.42357 0.50253 0.0
C1726 C 0.33255 0.4201 0.50402 0.0
C1727 C 0.18033 0.46578 0.47512 0.0
C1728 C 0.18802 0.44295 0.46323 0.0
C1729 C 0.19635 0.46471 0.4881 0.0
C1730 C 0.22007 0.44028 0.48956 0.0
C1731 C 0.22761 0.41738 0.47769 0.0
C1732 C 0.21188 0.41877 0.4647 0.0
C1733 C 0.23744 0.43879 0.50329 0.0
C1734 C 0.26793 0.44213 0.50242 0.0
C1735 C 0.22433 0.43403 0.51715 0.0
C1736 C 0.19259 0.42716 0.51888 0.0
C1737 C 0.17857 0.39682 0.5116 0.0
C1738 C 0.14866 0.3904 0.51331 0.0
C1739 C 0.13258 0.41394 0.52237 0.0
C1740 C 0.14639 0.4439 0.52977 0.0
C1741 C 0.17629 0.45047 0.52808 0.0
H1742 H 0.10943 0.40891 0.52369 0.0
H1743 H 0.40154 0.45434 0.50903 0.0
H1744 H 0.32395 0.0997 0.19354 0.0
H1745 H 0.33171 0.08149 0.21879 0.0
H1746 H 0.38924 0.99307 0.20499 0.0
H1747 H 0.38107 0.01067 0.17957 0.0
H1748 H 0.35308 0.96683 0.22526 0.0
H1749 H 0.41621 0.07487 0.22114 0.0
H1750 H 0.43073 0.14054 0.2147 0.0
H1751 H 0.36698 0.1837 0.24419 0.0
H1752 H 0.35177 0.11828 0.25066 0.0
H1753 H 0.37965 0.93268 0.30105 0.0
H1754 H 0.3907 0.9492 0.27567 0.0
H1755 H 0.32995 0.04094 0.27783 0.0
H1756 H 0.31935 0.02513 0.30306 0.0
H1757 H 0.37825 0.06232 0.2631 0.0
H1758 H 0.31055 0.95405 0.26381 0.0
H1759 H 0.29566 0.88833 0.27005 0.0
H1760 H 0.36922 0.8458 0.24682 0.0
H1761 H 0.38473 0.91137 0.2406 0.0
C1762 C 0.33838 0.07649 0.19584 0.0
C1763 C 0.35197 0.05677 0.18451 0.0
C1764 C 0.34295 0.06623 0.21032 0.0
C1765 C 0.36146 0.03629 0.21385 0.0
C1766 C 0.37499 0.01639 0.20256 0.0
C1767 C 0.37034 0.02656 0.18803 0.0
C1768 C 0.36572 0.02516 0.22931 0.0
C1769 C 0.35923 0.98755 0.23349 0.0
C1770 C 0.37353 0.05216 0.24011 0.0
C1771 C 0.38274 0.09162 0.23632 0.0
C1772 C 0.40515 0.09835 0.22619 0.0
C1773 C 0.41353 0.13555 0.22254 0.0
C1774 C 0.39976 0.16627 0.22901 0.0
C1775 C 0.37762 0.15987 0.23918 0.0
C1776 C 0.36915 0.12273 0.24286 0.0
C1777 C 0.36925 0.95692 0.29621 0.0
C1778 C 0.34873 0.97771 0.30408 0.0
C1779 C 0.37534 0.9661 0.28166 0.0
C1780 C 0.36097 0.99616 0.2748 0.0
C1781 C 0.34136 0.0177 0.28286 0.0
C1782 C 0.3352 0.00848 0.29728 0.0
C1783 C 0.36473 0.00439 0.25905 0.0
C1784 C 0.37273 0.04147 0.25481 0.0
C1785 C 0.35838 0.97691 0.24821 0.0
C1786 C 0.34899 0.93757 0.2519 0.0
C1787 C 0.32366 0.93068 0.26013 0.0
C1788 C 0.31509 0.89347 0.26365 0.0
C1789 C 0.33154 0.86291 0.25888 0.0
C1790 C 0.35654 0.8695 0.25054 0.0
C1791 C 0.36523 0.90667 0.24701 0.0
H1792 H 0.32487 0.83413 0.26161 0.0
H1793 H 0.40626 0.19505 0.22617 0.0
H1794 H 0.61319 0.44434 0.18538 0.0
H1795 H 0.60406 0.45968 0.21093 0.0
H1796 H 0.69643 0.47189 0.21829 0.0
H1797 H 0.70572 0.4562 0.19292 0.0
H1798 H 0.67168 0.43215 0.23965 0.0
H1799 H 0.65342 0.54922 0.21455 0.0
H1800 H 0.62998 0.59046 0.1965 0.0
H1801 H 0.54647 0.56559 0.21553 0.0
H1802 H 0.56941 0.52382 0.2336 0.0
H1803 H 0.68999 0.5587 0.29783 0.0
H1804 H 0.68241 0.5396 0.27269 0.0
H1805 H 0.6003 0.48677 0.28419 0.0
H1806 H 0.60821 0.5044 0.30971 0.0
H1807 H 0.61176 0.54164 0.2542 0.0
H1808 H 0.63424 0.42529 0.28067 0.0
H1809 H 0.66197 0.38996 0.29904 0.0
H1810 H 0.74173 0.41901 0.27705 0.0
H1811 H 0.71448 0.4551 0.2587 0.0
C1812 C 0.63155 0.45017 0.19246 0.0
C1813 C 0.6602 0.44901 0.1871 0.0
C1814 C 0.62628 0.4591 0.20705 0.0
C1815 C 0.64955 0.46716 0.21652 0.0
C1816 C 0.67812 0.46567 0.21121 0.0
C1817 C 0.6834 0.4568 0.19666 0.0
C1818 C 0.64445 0.47717 0.232 0.0
C1819 C 0.65843 0.45598 0.24279 0.0
C1820 C 0.62691 0.50801 0.23618 0.0
C1821 C 0.61307 0.53301 0.22531 0.0
C1822 C 0.63002 0.55227 0.2148 0.0
C1823 C 0.61684 0.5758 0.20459 0.0
C1824 C 0.58674 0.58053 0.20484 0.0
C1825 C 0.56978 0.56183 0.21533 0.0
C1826 C 0.58286 0.53824 0.22557 0.0
C1827 C 0.67009 0.54338 0.29508 0.0
C1828 C 0.64965 0.53332 0.30587 0.0
C1829 C 0.66577 0.53268 0.28066 0.0
C1830 C 0.64083 0.51188 0.27662 0.0
C1831 C 0.61958 0.50317 0.28713 0.0
C1832 C 0.62406 0.51357 0.30171 0.0
C1833 C 0.63895 0.49656 0.26167 0.0
C1834 C 0.62411 0.51704 0.25101 0.0
C1835 C 0.65596 0.46535 0.25753 0.0
C1836 C 0.67234 0.44317 0.26841 0.0
C1837 C 0.65771 0.42443 0.27984 0.0
C1838 C 0.67333 0.40422 0.29023 0.0
C1839 C 0.7036 0.40232 0.28923 0.0
C1840 C 0.71829 0.42054 0.27782 0.0
C1841 C 0.70276 0.44085 0.26741 0.0
H1842 H 0.71565 0.38667 0.29729 0.0
H1843 H 0.57658 0.59878 0.19693 0.0
H1844 H 0.60561 0.93445 0.82825 0.0
H1845 H 0.5897 0.95162 0.80362 0.0
H1846 H 0.65965 0.03483 0.80091 0.0
H1847 H 0.6751 0.01842 0.82537 0.0
H1848 H 0.61187 0.06165 0.78841 0.0
H1849 H 0.66591 0.94343 0.78746 0.0
H1850 H 0.6738 0.87636 0.7939 0.0
H1851 H 0.59115 0.84493 0.77526 0.0
H1852 H 0.58265 0.91196 0.76886 0.0
H1853 H 0.67419 0.07721 0.71986 0.0
H1854 H 0.65936 0.06568 0.7449 0.0
H1855 H 0.58722 0.99588 0.72998 0.0
H1856 H 0.60231 0.00724 0.70465 0.0
H1857 H 0.61946 0.96062 0.7511 0.0
H1858 H 0.57316 0.07912 0.74643 0.0
H1859 H 0.56827 0.14629 0.7394 0.0
H1860 H 0.63801 0.17799 0.76824 0.0
H1861 H 0.64365 0.11095 0.77529 0.0
C1862 C 0.61702 0.95711 0.82253 0.0
C1863 C 0.64159 0.97512 0.82875 0.0
C1864 C 0.6081 0.96665 0.8084 0.0
C1865 C 0.62365 0.9943 0.80032 0.0
C1866 C 0.64723 0.01348 0.80688 0.0
C1867 C 0.65616 0.0039 0.82086 0.0
C1868 C 0.61732 0.00182 0.78471 0.0
C1869 C 0.61337 0.03955 0.78025 0.0
C1870 C 0.61835 0.97288 0.77403 0.0
C1871 C 0.62347 0.93269 0.77787 0.0
C1872 C 0.64933 0.92224 0.78484 0.0
C1873 C 0.65393 0.88424 0.78847 0.0
C1874 C 0.63294 0.85642 0.78504 0.0
C1875 C 0.60735 0.86652 0.77794 0.0
C1876 C 0.60263 0.9045 0.77432 0.0
C1877 C 0.65483 0.05995 0.72187 0.0
C1878 C 0.63925 0.04345 0.71028 0.0
C1879 C 0.64627 0.05353 0.73621 0.0
C1880 C 0.62195 0.03027 0.73936 0.0
C1881 C 0.6059 0.01422 0.7278 0.0
C1882 C 0.61436 0.02101 0.71334 0.0
C1883 C 0.61529 0.02071 0.75479 0.0
C1884 C 0.61689 0.98263 0.75923 0.0
C1885 C 0.61232 0.04939 0.76545 0.0
C1886 C 0.60886 0.0899 0.76137 0.0
C1887 C 0.58757 0.10037 0.75122 0.0
C1888 C 0.58465 0.13845 0.74723 0.0
C1889 C 0.60283 0.16639 0.75336 0.0
C1890 C 0.62393 0.15632 0.76351 0.0
C1891 C 0.62695 0.11828 0.76753 0.0
H1892 H 0.60055 0.19584 0.75025 0.0
H1893 H 0.63654 0.82701 0.78785 0.0
H1894 H 0.36455 0.50215 0.7004 0.0
H1895 H 0.37496 0.52409 0.72511 0.0
H1896 H 0.37928 0.40762 0.73961 0.0
H1897 H 0.36765 0.38587 0.715 0.0
H1898 H 0.34697 0.44212 0.75696 0.0
H1899 H 0.44097 0.47232 0.73801 0.0
H1900 H 0.47705 0.49998 0.72103 0.0
H1901 H 0.44686 0.61194 0.73057 0.0
H1902 H 0.41029 0.58492 0.74747 0.0
H1903 H 0.38219 0.49598 0.82903 0.0
H1904 H 0.39361 0.47309 0.8045 0.0
H1905 H 0.3641 0.57854 0.78635 0.0
H1906 H 0.35229 0.60117 0.81079 0.0
H1907 H 0.41469 0.54652 0.77175 0.0
H1908 H 0.31708 0.51266 0.78844 0.0
H1909 H 0.28222 0.48382 0.80578 0.0
H1910 H 0.32241 0.37554 0.80053 0.0
H1911 H 0.35784 0.40395 0.78333 0.0
C1912 C 0.36867 0.48132 0.70877 0.0
C1913 C 0.36577 0.44233 0.70577 0.0
C1914 C 0.37458 0.49385 0.72295 0.0
C1915 C 0.37827 0.46758 0.73432 0.0
C1916 C 0.37651 0.42855 0.73111 0.0
C1917 C 0.37004 0.4161 0.71703 0.0
C1918 C 0.38115 0.48057 0.74973 0.0
C1919 C 0.36233 0.46434 0.76017 0.0
C1920 C 0.40071 0.51013 0.75405 0.0
C1921 C 0.42272 0.52654 0.74393 0.0
C1922 C 0.44187 0.50282 0.73641 0.0
C1923 C 0.46244 0.51839 0.72681 0.0
C1924 C 0.4642 0.55768 0.7247 0.0
C1925 C 0.44545 0.5815 0.73221 0.0
C1926 C 0.42482 0.56608 0.74182 0.0
C1927 C 0.37925 0.51478 0.81985 0.0
C1928 C 0.3667 0.5505 0.82177 0.0
C1929 C 0.38555 0.5016 0.80585 0.0
C1930 C 0.37961 0.52411 0.79361 0.0
C1931 C 0.36903 0.56084 0.79563 0.0
C1932 C 0.36227 0.57371 0.80958 0.0
C1933 C 0.38068 0.50787 0.77872 0.0
C1934 C 0.39991 0.52373 0.76844 0.0
C1935 C 0.36178 0.47765 0.77453 0.0
C1936 C 0.34032 0.46051 0.78475 0.0
C1937 C 0.31864 0.48278 0.79109 0.0
C1938 C 0.29876 0.4665 0.80087 0.0
C1939 C 0.30016 0.42789 0.8043 0.0
C1940 C 0.32139 0.40546 0.7979 0.0
C1941 C 0.34138 0.42163 0.78813 0.0
H1942 H 0.28473 0.41534 0.81187 0.0
H1943 H 0.48014 0.56968 0.71726 0.0
H1944 H 0.81416 0.51352 0.80396 0.0
H1945 H 0.82159 0.52805 0.77835 0.0
H1946 H 0.88426 0.43881 0.77526 0.0
H1947 H 0.87691 0.42404 0.80119 0.0
H1948 H 0.89892 0.50624 0.7585 0.0
H1949 H 0.82016 0.41741 0.76425 0.0
H1950 H 0.77509 0.39133 0.7752 0.0
H1951 H 0.72906 0.49054 0.76194 0.0
H1952 H 0.77399 0.51751 0.75111 0.0
H1953 H 0.87701 0.51106 0.68034 0.0
H1954 H 0.88263 0.48912 0.70546 0.0
H1955 H 0.81739 0.56761 0.71942 0.0
H1956 H 0.81166 0.5897 0.69446 0.0
H1957 H 0.8077 0.49525 0.72981 0.0
H1958 H 0.8879 0.58597 0.72603 0.0
H1959 H 0.93321 0.61221 0.71536 0.0
H1960 H 0.97667 0.50803 0.72461 0.0
H1961 H 0.93146 0.48097 0.73516 0.0
C1962 C 0.82986 0.49727 0.79791 0.0
C1963 C 0.84483 0.46749 0.80455 0.0
C1964 C 0.83409 0.50565 0.78328 0.0
C1965 C 0.85308 0.48409 0.77485 0.0
C1966 C 0.86946 0.45572 0.78159 0.0
C1967 C 0.86533 0.44741 0.79639 0.0
C1968 C 0.85359 0.48974 0.75888 0.0
C1969 C 0.87917 0.50311 0.75213 0.0
C1970 C 0.82773 0.4859 0.75061 0.0
C1971 C 0.80052 0.46958 0.75694 0.0
C1972 C 0.80048 0.43378 0.76375 0.0
C1973 C 0.77495 0.41883 0.76992 0.0
C1974 C 0.74924 0.43929 0.76928 0.0
C1975 C 0.749 0.47472 0.76243 0.0
C1976 C 0.77449 0.48984 0.75625 0.0
C1977 C 0.86398 0.52381 0.68878 0.0
C1978 C 0.84387 0.55216 0.68539 0.0
C1979 C 0.8673 0.5113 0.70313 0.0
C1980 C 0.8505 0.52684 0.71431 0.0
C1981 C 0.83055 0.55522 0.71095 0.0
C1982 C 0.82735 0.56788 0.69667 0.0
C1983 C 0.85278 0.51295 0.72949 0.0
C1984 C 0.82762 0.49785 0.73609 0.0
C1985 C 0.87905 0.51501 0.73752 0.0
C1986 C 0.90621 0.53128 0.73121 0.0
C1987 C 0.90704 0.56853 0.72566 0.0
C1988 C 0.93272 0.58358 0.71967 0.0
C1989 C 0.95778 0.56176 0.71927 0.0
C1990 C 0.95723 0.52487 0.7249 0.0
C1991 C 0.93159 0.50967 0.7309 0.0
H1992 H 0.97764 0.57346 0.71462 0.0
H1993 H 0.7295 0.42767 0.77408 0.0
H1994 H 0.18922 0.98383 0.80575 0.0
H1995 H 0.18401 0.96977 0.77998 0.0
H1996 H 0.10915 0.04141 0.7777 0.0
H1997 H 0.11447 0.05619 0.80373 0.0
H1998 H 0.10581 0.96945 0.76041 0.0
H1999 H 0.16612 0.08054 0.76677 0.0
H2000 H 0.2055 0.119 0.77797 0.0
H2001 H 0.26823 0.03796 0.76394 0.0
H2002 H 0.22914 -0.00133 0.75286 0.0
H2003 H 0.12494 0.97238 0.68228 0.0
H2004 H 0.11613 0.99142 0.70752 0.0
H2005 H 0.19741 0.94218 0.72032 0.0
H2006 H 0.20646 0.92342 0.69525 0.0
H2007 H 0.19187 0.01169 0.73165 0.0
H2008 H 0.13171 0.89802 0.72738 0.0
H2009 H 0.09272 0.85785 0.7167 0.0
H2010 H 0.03 0.94275 0.72679 0.0
H2011 H 0.06872 0.98367 0.73737 0.0
C2012 C 0.17135 0.99627 0.79986 0.0
C2013 C 0.15231 0.02125 0.80681 0.0
C2014 C 0.16839 0.98811 0.78512 0.0
C2015 C 0.14643 0.00488 0.77689 0.0
C2016 C 0.12623 0.02813 0.78389 0.0
C2017 C 0.12921 0.0364 0.79878 0.0
C2018 C 0.14668 0.00027 0.76085 0.0
C2019 C 0.12427 0.97935 0.75402 0.0
C2020 C 0.171 0.01276 0.75258 0.0
C2021 C 0.19465 0.03653 0.75907 0.0
C2022 C 0.18828 0.07078 0.76616 0.0
C2023 C 0.21055 0.09274 0.77248 0.0
C2024 C 0.23934 0.0809 0.77169 0.0
C2025 C 0.24592 0.04709 0.76455 0.0
C2026 C 0.22371 0.02498 0.75823 0.0
C2027 C 0.14088 0.96549 0.69049 0.0
C2028 C 0.16641 0.94632 0.68673 0.0
C2029 C 0.13576 0.97629 0.70492 0.0
C2030 C 0.15602 0.96805 0.71585 0.0
C2031 C 0.18147 0.94893 0.71209 0.0
C2032 C 0.18658 0.93812 0.69772 0.0
C2033 C 0.15139 0.97989 0.7312 0.0
C2034 C 0.17309 0.00228 0.73792 0.0
C2035 C 0.12643 0.96871 0.73931 0.0
C2036 C 0.10316 0.9441 0.733 0.0
C2037 C 0.10965 0.90827 0.7272 0.0
C2038 C 0.08759 0.88533 0.72119 0.0
C2039 C 0.05892 0.89779 0.72102 0.0
C2040 C 0.05223 0.93317 0.7269 0.0
C2041 C 0.07422 0.95623 0.73291 0.0
H2042 H 0.04188 0.87999 0.71636 0.0
H2043 H 0.25656 0.09794 0.77658 0.0
H2044 H 0.10459 0.47541 0.32851 0.0
H2045 H 0.09208 0.4911 0.30325 0.0
H2046 H 0.17098 0.43921 0.28855 0.0
H2047 H 0.18317 0.42269 0.31344 0.0
H2048 H 0.16427 0.51614 0.27981 0.0
H2049 H 0.11027 0.3959 0.28183 0.0
H2050 H 0.07218 0.35246 0.29143 0.0
H2051 H 0.00667 0.4327 0.28018 0.0
H2052 H 0.04448 0.47687 0.2707 0.0
H2053 H 0.17657 0.48104 0.20718 0.0
H2054 H 0.16566 0.46874 0.23263 0.0
H2055 H 0.08969 0.53818 0.22969 0.0
H2056 H 0.10076 0.55118 0.20394 0.0
H2057 H 0.08534 0.46469 0.24825 0.0
H2058 H 0.13907 0.58175 0.24341 0.0
H2059 H 0.17743 0.62419 0.23345 0.0
H2060 H 0.24304 0.55111 0.25039 0.0
H2061 H 0.20504 0.50786 0.26024 0.0
C2062 C 0.11876 0.46623 0.31987 0.0
C2063 C 0.14486 0.44762 0.32304 0.0
C2064 C 0.1117 0.47553 0.30544 0.0
C2065 C 0.13073 0.46654 0.29404 0.0
C2066 C 0.15607 0.44665 0.29717 0.0
C2067 C 0.16299 0.43723 0.31145 0.0
C2068 C 0.12603 0.47995 0.27891 0.0
C2069 C 0.1469 0.50503 0.27295 0.0
C2070 C 0.10286 0.46644 0.27006 0.0
C2071 C 0.08022 0.4399 0.27575 0.0
C2072 C 0.08778 0.40446 0.28155 0.0
C2073 C 0.06623 0.37966 0.28693 0.0
C2074 C 0.03703 0.38987 0.28647 0.0
C2075 C 0.02931 0.42486 0.28057 0.0
C2076 C 0.05078 0.44978 0.27519 0.0
C2077 C 0.15723 0.49329 0.21182 0.0
C2078 C 0.13961 0.51722 0.20351 0.0
C2079 C 0.15098 0.48608 0.22638 0.0
C2080 C 0.12702 0.50275 0.23309 0.0
C2081 C 0.10822 0.52489 0.22468 0.0
C2082 C 0.11452 0.53218 0.20996 0.0
C2083 C 0.12418 0.49982 0.24914 0.0
C2084 C 0.10212 0.47672 0.25525 0.0
C2085 C 0.14618 0.51532 0.25824 0.0
C2086 C 0.16918 0.54145 0.25249 0.0
C2087 C 0.16167 0.57457 0.24492 0.0
C2088 C 0.18336 0.5988 0.23931 0.0
C2089 C 0.21266 0.59032 0.24127 0.0
C2090 C 0.22033 0.55763 0.24888 0.0
C2091 C 0.19872 0.53328 0.25449 0.0
H2092 H 0.22942 0.60911 0.23692 0.0
H2093 H 0.02038 0.37063 0.29064 0.0
H2094 H 0.8596 0.11427 0.31572 0.0
H2095 H 0.87176 0.09502 0.29095 0.0
H2096 H 0.88467 0.98027 0.30584 0.0
H2097 H 0.87356 1e-05 0.33078 0.0
H2098 H 0.92092 0.99549 0.28398 0.0
H2099 H 0.81887 0.00825 0.29212 0.0
H2100 H 0.77411 0.04037 0.29964 0.0
H2101 H 0.7892 0.12662 0.26734 0.0
H2102 H 0.83432 0.09529 0.25977 0.0
H2103 H 0.87207 0.89616 0.22002 0.0
H2104 H 0.88177 0.92275 0.24417 0.0
H2105 H 0.88117 0.03589 0.22616 0.0
H2106 H 0.87145 0.00931 0.20197 0.0
H2107 H 0.84218 0.02428 0.24901 0.0
H2108 H 0.94311 0.00333 0.23939 0.0
H2109 H 0.98538 0.96581 0.23204 0.0
H2110 H 0.96915 0.88807 0.26722 0.0
H2111 H 0.92651 0.92482 0.27466 0.0
C2112 C 0.86593 0.08522 0.31375 0.0
C2113 C 0.86589 0.05868 0.32513 0.0
C2114 C 0.87265 0.07414 0.29958 0.0
C2115 C 0.87844 0.03595 0.29643 0.0
C2116 C 0.88024 0.00987 0.30797 0.0
C2117 C 0.87404 0.02118 0.32224 0.0
C2118 C 0.87977 0.02273 0.28106 0.0
C2119 C 0.90363 0.00159 0.27636 0.0
C2120 C 0.85731 0.03082 0.27102 0.0
C2121 C 0.83013 0.04967 0.2755 0.0
C2122 C 0.81275 0.03422 0.2867 0.0
C2123 C 0.78731 0.05226 0.29096 0.0
C2124 C 0.77886 0.08558 0.284 0.0
C2125 C 0.7958 0.10086 0.27274 0.0
C2126 C 0.82131 0.08297 0.26846 0.0
C2127 C 0.87491 0.92665 0.22116 0.0
C2128 C 0.8716 0.95064 0.20909 0.0
C2129 C 0.88048 0.94181 0.23495 0.0
C2130 C 0.88241 0.98131 0.23696 0.0
C2131 C 0.88006 0.00531 0.22482 0.0
C2132 C 0.87487 0.99009 0.21097 0.0
C2133 C 0.88343 -0.00262 0.25189 0.0
C2134 C 0.85975 0.01874 0.25655 0.0
C2135 C 0.90572 0.98873 0.26191 0.0
C2136 C 0.93146 0.96669 0.25752 0.0
C2137 C 0.94841 0.97807 0.24549 0.0
C2138 C 0.97247 0.95697 0.24132 0.0
C2139 C 0.97992 0.92453 0.24914 0.0
C2140 C 0.96335 0.91319 0.26117 0.0
C2141 C 0.93925 0.93418 0.26538 0.0
H2142 H 0.99855 0.90823 0.2459 0.0
H2143 H 0.75915 0.0995 0.28731 0.0
H2144 H 0.59748 0.35191 0.09467 0.0
H2145 H 0.56122 0.3007 0.09116 0.0
H2146 H 0.54925 0.29273 0.13755 0.0
H2147 H 0.58512 0.3436 0.14119 0.0
H2148 H 0.5585 0.22284 0.12432 0.0
H2149 H 0.49951 0.33446 0.11757 0.0
H2150 H 0.48658 0.3948 0.10581 0.0
H2151 H 0.47888 0.33798 0.06466 0.0
H2152 H 0.49216 0.27736 0.07616 0.0
H2153 H 0.42771 0.12516 0.13858 0.0
H2154 H 0.46859 0.16958 0.13604 0.0
H2155 H 0.45905 0.16697 0.0894 0.0
H2156 H 0.41752 0.12286 0.09184 0.0
H2157 H 0.46445 0.23812 0.09876 0.0
H2158 H 0.51703 0.12492 0.1058 0.0
H2159 H 0.53016 0.06424 0.11722 0.0
H2160 H 0.5511 0.12251 0.15696 0.0
H2161 H 0.53769 0.1835 0.14585 0.0
C2162 C 0.58693 0.33947 0.10411 0.0
C2163 C 0.59423 0.35188 0.11821 0.0
C2164 C 0.56625 0.31025 0.10208 0.0
C2165 C 0.55269 0.29294 0.11411 0.0
C2166 C 0.55962 0.30563 0.12814 0.0
C2167 C 0.58003 0.3349 0.13018 0.0
C2168 C 0.53157 0.26106 0.11228 0.0
C2169 C 0.53784 0.22614 0.1188 0.0
C2170 C 0.5052 0.2651 0.10459 0.0
C2171 C 0.49719 0.3015 0.09769 0.0
C2172 C 0.49533 0.33491 0.10599 0.0
C2173 C 0.48788 0.36914 0.09938 0.0
C2174 C 0.48201 0.37025 0.08448 0.0
C2175 C 0.4835 0.33709 0.07619 0.0
C2176 C 0.49097 0.30279 0.08275 0.0
C2177 C 0.43443 0.13361 0.12775 0.0
C2178 C 0.41926 0.12043 0.11542 0.0
C2179 C 0.45796 0.15892 0.12631 0.0
C2180 C 0.4671 0.17129 0.11251 0.0
C2181 C 0.45238 0.15771 0.10015 0.0
C2182 C 0.42872 0.13241 0.10157 0.0
C2183 C 0.49094 0.20007 0.11121 0.0
C2184 C 0.48527 0.23443 0.10407 0.0
C2185 C 0.518 0.19543 0.11826 0.0
C2186 C 0.52616 0.15879 0.125 0.0
C2187 C 0.52423 0.12478 0.11701 0.0
C2188 C 0.53176 0.09032 0.12342 0.0
C2189 C 0.54141 0.08951 0.13781 0.0
C2190 C 0.54361 0.12318 0.14581 0.0
C2191 C 0.53609 0.15772 0.13945 0.0
H2192 H 0.54723 0.0628 0.14276 0.0
H2193 H 0.47624 0.39677 0.07938 0.0
H2194 H 0.38482 0.82565 0.39391 0.0
H2195 H 0.42183 0.77696 0.39353 0.0
H2196 H 0.47292 0.84484 0.36344 0.0
H2197 H 0.43448 0.89217 0.36291 0.0
H2198 H 0.47841 0.77802 0.35578 0.0
H2199 H 0.48815 0.83623 0.40223 0.0
H2200 H 0.47256 0.86035 0.4261 0.0
H2201 H 0.44542 0.74771 0.43878 0.0
H2202 H 0.46052 0.72299 0.41491 0.0
H2203 H 0.60052 0.67008 0.39801 0.0
H2204 H 0.56359 0.71853 0.39673 0.0
H2205 H 0.52022 0.65609 0.36231 0.0
H2206 H 0.55878 0.60888 0.36285 0.0
H2207 H 0.51193 0.72181 0.40212 0.0
H2208 H 0.48055 0.71264 0.34104 0.0
H2209 H 0.50334 0.69744 0.31752 0.0
H2210 H 0.58731 0.72851 0.33471 0.0
H2211 H 0.56497 0.74434 0.35826 0.0
C2212 C 0.40405 0.83018 0.38727 0.0
C2213 C 0.40707 0.86279 0.37858 0.0
C2214 C 0.42531 0.80243 0.38711 0.0
C2215 C 0.4507 0.80749 0.37876 0.0
C2216 C 0.45364 0.84015 0.37001 0.0
C2217 C 0.43181 0.86733 0.36977 0.0
C2218 C 0.47399 0.7786 0.37912 0.0
C2219 C 0.48583 0.76591 0.36594 0.0
C2220 C 0.48427 0.76313 0.39234 0.0
C2221 C 0.47523 0.77783 0.40673 0.0
C2222 C 0.47869 0.81665 0.41008 0.0
C2223 C 0.46996 0.83042 0.42361 0.0
C2224 C 0.45794 0.80559 0.43394 0.0
C2225 C 0.4547 0.76691 0.43077 0.0
C2226 C 0.46337 0.753 0.41724 0.0
C2227 C 0.58309 0.6667 0.39016 0.0
C2228 C 0.58245 0.63578 0.38052 0.0
C2229 C 0.5619 0.69442 0.38945 0.0
C2230 C 0.5391 0.69144 0.37932 0.0
C2231 C 0.53794 0.65979 0.36996 0.0
C2232 C 0.5598 0.6326 0.37034 0.0
C2233 C 0.51665 0.72144 0.3788 0.0
C2234 C 0.50473 0.73411 0.39196 0.0
C2235 C 0.50751 0.73832 0.36562 0.0
C2236 C 0.5211 0.72926 0.35145 0.0
C2237 C 0.50386 0.71634 0.33978 0.0
C2238 C 0.5167 0.7076 0.32645 0.0
C2239 C 0.54676 0.71187 0.32464 0.0
C2240 C 0.56404 0.72506 0.33614 0.0
C2241 C 0.5513 0.7339 0.34949 0.0
H2242 H 0.55667 0.70505 0.31432 0.0
H2243 H 0.45119 0.81631 0.44441 0.0
H2244 H 0.58309 0.86657 0.88287 0.0
H2245 H 0.54207 0.82183 0.88424 0.0
H2246 H 0.55903 0.80404 0.92982 0.0
H2247 H 0.60056 0.84846 0.92852 0.0
H2248 H 0.54985 0.73765 0.91632 0.0
H2249 H 0.50071 0.85513 0.91895 0.0
H2250 H 0.48799 0.92031 0.91189 0.0
H2251 H 0.45747 0.87966 0.87052 0.0
H2252 H 0.4704 0.81426 0.87725 0.0
H2253 H 0.41229 0.6365 0.92532 0.0
H2254 H 0.45267 0.68265 0.92779 0.0
H2255 H 0.45244 0.70067 0.88144 0.0
H2256 H 0.41253 0.65453 0.87882 0.0
H2257 H 0.45165 0.76832 0.89788 0.0
H2258 H 0.50431 0.65114 0.89523 0.0
H2259 H 0.51671 0.58624 0.90283 0.0
H2260 H 0.53963 0.62739 0.94532 0.0
H2261 H 0.52696 0.69251 0.93802 0.0
C2262 C 0.57804 0.85344 0.89324 0.0
C2263 C 0.59519 0.86121 0.90559 0.0
C2264 C 0.55444 0.82791 0.89401 0.0
C2265 C 0.54727 0.80979 0.90717 0.0
C2266 C 0.56414 0.8177 0.91956 0.0
C2267 C 0.58781 0.84326 0.9188 0.0
C2268 C 0.52273 0.78169 0.90778 0.0
C2269 C 0.52823 0.74458 0.91255 0.0
C2270 C 0.4946 0.79051 0.90268 0.0
C2271 C 0.48676 0.82981 0.89857 0.0
C2272 C 0.4915 0.86012 0.9083 0.0
C2273 C 0.48421 0.8971 0.90437 0.0
C2274 C 0.47199 0.90413 0.89075 0.0
C2275 C 0.46696 0.87417 0.88105 0.0
C2276 C 0.47424 0.83713 0.88493 0.0
C2277 C 0.421 0.65004 0.91564 0.0
C2278 C 0.40912 0.64179 0.90187 0.0
C2279 C 0.44407 0.67637 0.91707 0.0
C2280 C 0.45545 0.6951 0.90479 0.0
C2281 C 0.44388 0.68661 0.89105 0.0
C2282 C 0.42114 0.66004 0.88958 0.0
C2283 C 0.47897 0.72431 0.90618 0.0
C2284 C 0.47321 0.76161 0.9018 0.0
C2285 C 0.50674 0.71572 0.91174 0.0
C2286 C 0.51434 0.67661 0.91614 0.0
C2287 C 0.51171 0.64629 0.90624 0.0
C2288 C 0.51885 0.60948 0.91048 0.0
C2289 C 0.52886 0.60267 0.92456 0.0
C2290 C 0.53182 0.63269 0.93442 0.0
C2291 C 0.52467 0.66956 0.93024 0.0
H2292 H 0.53439 0.57416 0.92782 0.0
H2293 H 0.46635 0.93279 0.88772 0.0
H2294 H 0.42513 0.36334 0.60461 0.0
H2295 H 0.46481 0.31805 0.60407 0.0
H2296 H 0.45534 0.30001 0.65022 0.0
H2297 H 0.41628 0.34586 0.65093 0.0
H2298 H 0.51074 0.30356 0.6435 0.0
H2299 H 0.42666 0.23669 0.62433 0.0
H2300 H 0.38527 0.22645 0.60764 0.0
H2301 H 0.44379 0.22497 0.57128 0.0
H2302 H 0.48551 0.2357 0.58775 0.0
H2303 H 0.58173 0.13002 0.65261 0.0
H2304 H 0.54415 0.17774 0.65083 0.0
H2305 H 0.56313 0.1925 0.60526 0.0
H2306 H 0.60067 0.14425 0.60687 0.0
H2307 H 0.50489 0.19253 0.61033 0.0
H2308 H 0.58928 0.25609 0.62994 0.0
H2309 H 0.63035 0.26531 0.64689 0.0
H2310 H 0.5708 0.27233 0.6827 0.0
H2311 H 0.52936 0.26261 0.66598 0.0
C2312 C 0.43163 0.34999 0.61467 0.0
C2313 C 0.41734 0.3582 0.6278 0.0
C2314 C 0.45423 0.32387 0.61433 0.0
C2315 C 0.46278 0.30503 0.62706 0.0
C2316 C 0.44913 0.31404 0.64024 0.0
C2317 C 0.42671 0.3403 0.64061 0.0
C2318 C 0.48563 0.27556 0.62674 0.0
C2319 C 0.50926 0.27911 0.63634 0.0
C2320 C 0.4842 0.24404 0.61716 0.0
C2321 C 0.45916 0.2374 0.60726 0.0
C2322 C 0.43067 0.23445 0.61277 0.0
C2323 C 0.40716 0.22852 0.60335 0.0
C2324 C 0.41189 0.22517 0.58841 0.0
C2325 C 0.44016 0.22764 0.58286 0.0
C2326 C 0.46375 0.23362 0.59223 0.0
C2327 C 0.57786 0.14313 0.64216 0.0
C2328 C 0.59446 0.13338 0.6299 0.0
C2329 C 0.5564 0.17061 0.64118 0.0
C2330 C 0.55117 0.18926 0.62797 0.0
C2331 C 0.5669 0.17864 0.61558 0.0
C2332 C 0.58838 0.15104 0.61654 0.0
C2333 C 0.5297 0.22033 0.62723 0.0
C2334 C 0.5064 0.21711 0.61742 0.0
C2335 C 0.53136 0.25212 0.63666 0.0
C2336 C 0.55623 0.25831 0.64672 0.0
C2337 C 0.58495 0.25935 0.64144 0.0
C2338 C 0.60829 0.2647 0.65101 0.0
C2339 C 0.60319 0.26932 0.66586 0.0
C2340 C 0.57472 0.26871 0.67119 0.0
C2341 C 0.55129 0.26332 0.66167 0.0
H2342 H 0.6213 0.27345 0.67325 0.0
H2343 H 0.39366 0.22058 0.58114 0.0
H2344 H 0.90908 0.64373 0.59624 0.0
H2345 H 0.94886 0.69087 0.5958 0.0
H2346 H 0.96498 0.67087 0.64133 0.0
H2347 H 0.92512 0.62423 0.64195 0.0
H2348 H 0.96165 0.74527 0.63562 0.0
H2349 H 0.01097 0.63824 0.61515 0.0
H2350 H 0.01781 0.58574 0.59782 0.0
H2351 H 0.02045 0.66522 0.5624 0.0
H2352 H 0.01323 0.71818 0.57951 0.0
H2353 H 0.09587 0.84339 0.64416 0.0
H2354 H 0.05668 0.79579 0.64301 0.0
H2355 H 0.04726 0.81636 0.59703 0.0
H2356 H 0.08714 0.86326 0.598 0.0
H2357 H 0.04614 0.74295 0.60213 0.0
H2358 H 0.99775 0.85012 0.6224 0.0
H2359 H 0.99067 0.90294 0.63957 0.0
H2360 H 0.98555 0.82388 0.67507 0.0
H2361 H 0.99298 0.77061 0.65814 0.0
C2362 C 0.9213 0.64903 0.60613 0.0
C2363 C 0.91382 0.63028 0.61915 0.0
C2364 C 0.94407 0.67594 0.60584 0.0
C2365 C 0.95991 0.68428 0.61853 0.0
C2366 C 0.95295 0.66495 0.63143 0.0
C2367 C 0.93019 0.63819 0.63174 0.0
C2368 C 0.98292 0.71432 0.61859 0.0
C2369 C 0.98033 0.74454 0.62843 0.0
C2370 C 0.00678 0.71392 0.60889 0.0
C2371 C 0.01126 0.68213 0.5986 0.0
C2372 C 0.01278 0.64449 0.60366 0.0
C2373 C 0.01677 0.61466 0.59387 0.0
C2374 C 0.01948 0.62213 0.57901 0.0
C2375 C 0.0183 0.65947 0.57391 0.0
C2376 C 0.01429 0.68941 0.58365 0.0
C2377 C 0.08529 0.83808 0.63382 0.0
C2378 C 0.09451 0.85726 0.62118 0.0
C2379 C 0.06284 0.81088 0.63319 0.0
C2380 C 0.04875 0.80287 0.61997 0.0
C2381 C 0.0578 0.82211 0.60734 0.0
C2382 C 0.08052 0.849 0.60793 0.0
C2383 C 0.02502 0.77377 0.61927 0.0
C2384 C 0.02743 0.74378 0.6093 0.0
C2385 C 0.00089 0.77443 0.62882 0.0
C2386 C 0.99616 0.8064 0.63901 0.0
C2387 C 0.9953 0.84402 0.63388 0.0
C2388 C 0.9912 0.87404 0.64357 0.0
C2389 C 0.98773 0.86678 0.65841 0.0
C2390 C 0.98826 0.82947 0.66358 0.0
C2391 C 0.99238 0.79934 0.65394 0.0
H2392 H 0.98458 0.89006 0.66589 0.0
H2393 H 0.02256 0.59899 0.57146 0.0
H2394 H 0.07156 0.12942 0.90338 0.0
H2395 H 0.03397 0.17739 0.90268 0.0
H2396 H 0.04264 0.18503 0.85609 0.0
H2397 H 0.08045 0.13708 0.85666 0.0
H2398 H 0.04442 0.255 0.8692 0.0
H2399 H 0.98343 0.1431 0.87052 0.0
H2400 H 0.96578 0.08115 0.87984 0.0
H2401 H 0.94539 0.13233 0.92086 0.0
H2402 H 0.96331 0.19453 0.91185 0.0
H2403 H 0.91894 0.36661 0.85684 0.0
H2404 H 0.95617 0.31804 0.85692 0.0
H2405 H 0.94729 0.30638 0.90338 0.0
H2406 H 0.90986 0.3547 0.90343 0.0
H2407 H 0.94543 0.23807 0.88996 0.0
H2408 H 0.00682 0.3493 0.88912 0.0
H2409 H 0.02507 0.41144 0.88027 0.0
H2410 H 0.0453 0.36197 0.83893 0.0
H2411 H 0.02678 0.29959 0.84746 0.0
C2412 C 0.06528 0.14091 0.89294 0.0
C2413 C 0.07911 0.12941 0.88008 0.0
C2414 C 0.04371 0.1683 0.89257 0.0
C2415 C 0.03547 0.18471 0.87933 0.0
C2416 C 0.04873 0.17273 0.86643 0.0
C2417 C 0.07022 0.14517 0.86677 0.0
C2418 C 0.01395 0.21555 0.87908 0.0
C2419 C 0.0226 0.25116 0.87352 0.0
C2420 C 0.98581 0.21078 0.88511 0.0
C2421 C 0.97498 0.17341 0.89055 0.0
C2422 C 0.97541 0.14109 0.88157 0.0
C2423 C 0.96531 0.10594 0.88679 0.0
C2424 C 0.95454 0.10278 0.90095 0.0
C2425 C 0.95378 0.1348 0.9099 0.0
C2426 C 0.96388 0.17003 0.90474 0.0
C2427 C 0.92509 0.35405 0.86712 0.0
C2428 C 0.91132 0.36455 0.88013 0.0
C2429 C 0.94646 0.32633 0.86714 0.0
C2430 C 0.95455 0.30865 0.88016 0.0
C2431 C 0.94131 0.31961 0.89321 0.0
C2432 C 0.92001 0.34741 0.89321 0.0
C2433 C 0.9759 0.27757 0.8801 0.0
C2434 C 0.96722 0.24191 0.88561 0.0
C2435 C 0.00405 0.28235 0.87407 0.0
C2436 C 0.01511 0.31985 0.86888 0.0
C2437 C 0.0149 0.35174 0.87809 0.0
C2438 C 0.02535 0.38699 0.87314 0.0
C2439 C 0.03626 0.39068 0.85903 0.0
C2440 C 0.0368 0.35909 0.84985 0.0
C2441 C 0.02635 0.32376 0.85474 0.0
H2442 H 0.04436 0.418 0.85522 0.0
H2443 H 0.94672 0.07554 0.90497 0.0
H2444 H 0.10054 0.35 0.42785 0.0
H2445 H 0.06024 0.30402 0.4304 0.0
H2446 H 0.04056 0.31574 0.38481 0.0
H2447 H 0.08039 0.36191 0.38218 0.0
H2448 H 0.99182 0.31423 0.40063 0.0
H2449 H 0.07886 0.24068 0.39747 0.0
H2450 H 0.12795 0.22095 0.40471 0.0
H2451 H 0.09593 0.19002 0.44701 0.0
H2452 H 0.04668 0.21008 0.44008 0.0
H2453 H 0.91429 0.14806 0.38251 0.0
H2454 H 0.95411 0.19429 0.38488 0.0
H2455 H 0.95356 0.17944 0.43138 0.0
H2456 H 0.91327 0.13303 0.42919 0.0
H2457 H 0.01098 0.18362 0.41812 0.0
H2458 H 0.92234 0.25293 0.41991 0.0
H2459 H 0.87348 0.27083 0.41163 0.0
H2460 H 0.90911 0.30855 0.37085 0.0
H2461 H 0.95815 0.2903 0.37881 0.0
C2462 C 0.08748 0.34307 0.41839 0.0
C2463 C 0.09385 0.35957 0.40479 0.0
C2464 C 0.06454 0.31661 0.41986 0.0
C2465 C 0.04762 0.30607 0.40775 0.0
C2466 C 0.05335 0.32338 0.39429 0.0
C2467 C 0.07623 0.34975 0.39281 0.0
C2468 C 0.02424 0.27652 0.40892 0.0
C2469 C 0.99608 0.28564 0.40438 0.0
C2470 C 0.02961 0.2394 0.41413 0.0
C2471 C 0.05918 0.22732 0.41831 0.0
C2472 C 0.08234 0.22999 0.40836 0.0
C2473 C 0.11018 0.21869 0.4124 0.0
C2474 C 0.11508 0.20436 0.42633 0.0
C2475 C 0.09211 0.2012 0.43624 0.0
C2476 C 0.06423 0.21252 0.43225 0.0
C2477 C 0.92271 0.15421 0.39327 0.0
C2478 C 0.91034 0.13699 0.40568 0.0
C2479 C 0.94548 0.18075 0.39459 0.0
C2480 C 0.95649 0.19059 0.40831 0.0
C2481 C 0.94524 0.17227 0.4207 0.0
C2482 C 0.9222 0.14583 0.41941 0.0
C2483 C 0.97884 0.22129 0.40959 0.0
C2484 C 0.00671 0.21238 0.41457 0.0
C2485 C 0.97331 0.25857 0.4047 0.0
C2486 C 0.94389 0.26996 0.39992 0.0
C2487 C 0.91973 0.26477 0.40914 0.0
C2488 C 0.89201 0.27502 0.40451 0.0
C2489 C 0.88819 0.29074 0.39071 0.0
C2490 C 0.9121 0.29634 0.38153 0.0
C2491 C 0.93987 0.28608 0.3861 0.0
H2492 H 0.8667 0.29866 0.38714 0.0
H2493 H 0.13664 0.19561 0.42944 0.0
H2494 H 0.93494 0.87406 0.15004 0.0
H2495 H 0.97438 0.82857 0.14855 0.0
H2496 H 0.93866 0.78498 0.10834 0.0
H2497 H 0.90033 0.83189 0.10938 0.0
H2498 H 0.97633 0.75836 0.1502 0.0
H2499 H 0.98792 0.74461 0.08724 0.0
H2500 H 0.98478 0.78532 0.06548 0.0
H2501 H 0.00336 0.88415 0.09147 0.0
H2502 H 0.007 0.84402 0.11334 0.0
H2503 H 0.05592 0.59249 0.1379 0.0
H2504 H 0.01878 0.64152 0.13761 0.0
H2505 H 0.07859 0.71756 0.11521 0.0
H2506 H 0.11447 0.66728 0.11436 0.0
H2507 H 0.03109 0.73113 0.1051 0.0
H2508 H 0.06163 0.72015 0.15442 0.0
H2509 H 0.072 0.68773 0.17757 0.0
H2510 H 0.98206 0.65409 0.18144 0.0
H2511 H 0.97121 0.68592 0.15821 0.0
C2512 C 0.93581 0.85513 0.14077 0.0
C2513 C 0.91468 0.85679 0.12976 0.0
C2514 C 0.95828 0.82895 0.13996 0.0
C2515 C 0.95986 0.80337 0.12826 0.0
C2516 C 0.93859 0.80495 0.11729 0.0
C2517 C 0.91655 0.83174 0.11792 0.0
C2518 C 0.98304 0.7742 0.1278 0.0
C2519 C 0.98838 0.7526 0.14034 0.0
C2520 C 0.99942 0.76698 0.11508 0.0
C2521 C 0.99742 0.79131 0.10195 0.0
C2522 C 0.99143 0.77501 0.0883 0.0
C2523 C 0.98955 0.798 0.07595 0.0
C2524 C 0.99377 0.83731 0.0771 0.0
C2525 C 0.99998 0.85372 0.0906 0.0
C2526 C 0.00192 0.83087 0.10298 0.0
C2527 C 0.06082 0.61958 0.13277 0.0
C2528 C 0.08786 0.62621 0.12609 0.0
C2529 C 0.03977 0.64782 0.13275 0.0
C2530 C 0.04593 0.6839 0.12671 0.0
C2531 C 0.07303 0.69015 0.11992 0.0
C2532 C 0.0936 0.66145 0.11945 0.0
C2533 C 0.02442 0.7152 0.12751 0.0
C2534 C 0.01923 0.73705 0.115 0.0
C2535 C 0.0093 0.724 0.14048 0.0
C2536 C 0.01567 0.70513 0.15452 0.0
C2537 C 0.0441 0.70567 0.16017 0.0
C2538 C 0.05006 0.68741 0.17331 0.0
C2539 C 0.02772 0.66878 0.18095 0.0
C2540 C 0.99935 0.66849 0.17549 0.0
C2541 C 0.99327 0.68666 0.16236 0.0
H2542 H 0.03238 0.65464 0.19111 0.0
H2543 H 0.99228 0.85504 0.06753 0.0
loop_
_geom_bond_atom_site_label_1
_geom_bond_atom_site_label_2
_geom_bond_distance
_geom_bond_site_symmetry_2
_ccdc_geom_bond_type
Co0 O3 1.970 . S
Co0 N17 1.989 . S
Co0 O25 1.967 . S
Co0 O32 1.920 . S
Co1 O4 1.966 . S
Co1 N10 2.022 . S
Co1 N18 1.993 . S
Co1 O26 1.941 . S
C2 O3 1.258 . S
C2 O4 1.263 . S
O3 Co0 1.970 . S
O3 C2 1.258 . S
O4 Co1 1.966 . S
O4 C2 1.263 . S
C5 O6 1.235 . S
C5 O32 1.289 . S
O6 C5 1.235 . S
C7 C9 1.400 . S
C7 N10 1.351 . S
C7 C12 1.501 . S
C8 C9 1.387 . S
C8 N11 1.341 . S
C9 C7 1.400 . S
C9 C8 1.387 . S
N10 Co1 2.022 . S
N10 C7 1.351 . S
N10 N11 1.365 . S
N11 C8 1.341 . S
N11 N10 1.365 . S
N11 H31 0.862 . S
C12 C7 1.501 . S
C12 H13 0.961 . S
C12 H14 0.961 . S
C12 H15 0.960 . S
H13 C12 0.961 . S
H14 C12 0.961 . S
H15 C12 0.960 . S
C16 N17 1.342 . S
C16 C20 1.401 1_545 S
C16 C21 1.499 . S
N17 Co0 1.989 . S
N17 C16 1.342 . S
N17 N18 1.388 . S
N18 Co1 1.993 . S
N18 N17 1.388 . S
N18 C19 1.346 . S
C19 N18 1.346 . S
C19 C20 1.396 1_545 S
C19 C29 1.510 . S
C20 C16 1.401 1_565 S
C20 C19 1.396 1_565 S
C21 C16 1.499 . S
C21 H22 0.959 . S
C21 H23 0.960 1_545 S
C21 H24 0.961 1_545 S
H22 C21 0.959 . S
H23 C21 0.960 1_565 S
H24 C21 0.961 1_565 S
O25 Co0 1.967 . S
O25 C33 1.258 . S
O26 Co1 1.941 . S
O26 C33 1.266 . S
H27 C29 0.959 1_565 S
H28 C29 0.961 . S
C29 C19 1.510 . S
C29 H27 0.959 1_545 S
C29 H28 0.961 . S
C29 H30 0.960 . S
H30 C29 0.960 . S
H31 N11 0.862 . S
O32 Co0 1.920 . S
O32 C5 1.289 . S
C33 O25 1.258 . S
C33 O26 1.266 . S
Co34 O37 1.970 . S
Co34 N51 1.989 . S
Co34 O59 1.967 . S
Co34 O66 1.920 . S
Co35 O38 1.966 . S
Co35 N44 2.022 . S
Co35 N52 1.993 . S
Co35 O60 1.941 . S
C36 O37 1.258 . S
C36 O38 1.263 . S
O37 Co34 1.970 . S
O37 C36 1.258 . S
O38 Co35 1.966 . S
O38 C36 1.263 . S
C39 O40 1.235 . S
C39 O66 1.289 . S
O40 C39 1.235 . S
C41 C43 1.400 . S
C41 N44 1.351 . S
C41 C46 1.501 . S
C42 C43 1.387 . S
C42 N45 1.341 . S
C43 C41 1.400 . S
C43 C42 1.387 . S
N44 Co35 2.022 . S
N44 C41 1.351 . S
N44 N45 1.365 . S
N45 C42 1.341 . S
N45 N44 1.365 . S
N45 H65 0.862 . S
C46 C41 1.501 . S
C46 H47 0.961 . S
C46 H48 0.961 . S
C46 H49 0.960 . S
H47 C46 0.961 . S
H48 C46 0.961 . S
H49 C46 0.960 . S
C50 N51 1.342 . S
C50 C54 1.401 . S
C50 C55 1.499 . S
N51 Co34 1.989 . S
N51 C50 1.342 . S
N51 N52 1.388 . S
N52 Co35 1.993 . S
N52 N51 1.388 . S
N52 C53 1.346 . S
C53 N52 1.346 . S
C53 C54 1.396 . S
C53 C63 1.510 . S
C54 C50 1.401 . S
C54 C53 1.396 . S
C55 C50 1.499 . S
C55 H56 0.959 . S
C55 H57 0.960 . S
C55 H58 0.961 . S
H56 C55 0.959 . S
H57 C55 0.960 . S
H58 C55 0.961 . S
O59 Co34 1.967 . S
O59 C67 1.258 . S
O60 Co35 1.941 . S
O60 C67 1.266 . S
H61 C63 0.959 . S
H62 C63 0.961 . S
C63 C53 1.510 . S
C63 H61 0.959 . S
C63 H62 0.961 . S
C63 H64 0.960 . S
H64 C63 0.960 . S
H65 N45 0.862 . S
O66 Co34 1.920 . S
O66 C39 1.289 . S
C67 O59 1.258 . S
C67 O60 1.266 . S
Co68 O71 1.970 . S
Co68 N85 1.989 . S
Co68 O93 1.967 . S
Co68 O100 1.920 . S
Co69 O72 1.966 . S
Co69 N78 2.022 . S
Co69 N86 1.993 . S
Co69 O94 1.941 . S
C70 O71 1.258 . S
C70 O72 1.263 . S
O71 Co68 1.970 . S
O71 C70 1.258 . S
O72 Co69 1.966 . S
O72 C70 1.263 . S
C73 O74 1.235 . S
C73 O100 1.289 . S
O74 C73 1.235 . S
C75 C77 1.400 . S
C75 N78 1.351 . S
C75 C80 1.501 . S
C76 C77 1.387 . S
C76 N79 1.341 . S
C77 C75 1.400 . S
C77 C76 1.387 . S
N78 Co69 2.022 . S
N78 C75 1.351 . S
N78 N79 1.365 . S
N79 C76 1.341 . S
N79 N78 1.365 . S
N79 H99 0.862 . S
C80 C75 1.501 . S
C80 H81 0.961 . S
C80 H82 0.961 . S
C80 H83 0.960 . S
H81 C80 0.961 . S
H82 C80 0.961 . S
H83 C80 0.960 . S
C84 N85 1.342 1_545 S
C84 C88 1.401 . S
C84 C89 1.499 . S
N85 Co68 1.989 . S
N85 C84 1.342 1_565 S
N85 N86 1.388 . S
N86 Co69 1.993 . S
N86 N85 1.388 . S
N86 C87 1.346 1_565 S
C87 N86 1.346 1_545 S
C87 C88 1.396 . S
C87 C97 1.510 . S
C88 C84 1.401 . S
C88 C87 1.396 . S
C89 C84 1.499 . S
C89 H90 0.959 1_545 S
C89 H91 0.960 . S
C89 H92 0.961 . S
H90 C89 0.959 1_565 S
H91 C89 0.960 . S
H92 C89 0.961 . S
O93 Co68 1.967 . S
O93 C101 1.258 . S
O94 Co69 1.941 . S
O94 C101 1.266 . S
H95 C97 0.959 . S
H96 C97 0.961 . S
C97 C87 1.510 . S
C97 H95 0.959 . S
C97 H96 0.961 . S
C97 H98 0.960 . S
H98 C97 0.960 . S
H99 N79 0.862 . S
O100 Co68 1.920 . S
O100 C73 1.289 . S
C101 O93 1.258 . S
C101 O94 1.266 . S
Co102 O105 1.970 . S
Co102 N119 1.989 . S
Co102 O127 1.967 . S
Co102 O134 1.920 . S
Co103 O106 1.966 . S
Co103 N112 2.022 . S
Co103 N120 1.993 . S
Co103 O128 1.941 . S
C104 O105 1.258 . S
C104 O106 1.263 . S
O105 Co102 1.970 . S
O105 C104 1.258 . S
O106 Co103 1.966 . S
O106 C104 1.263 . S
C107 O108 1.235 . S
C107 O134 1.289 . S
O108 C107 1.235 . S
C109 C111 1.400 . S
C109 N112 1.351 . S
C109 C114 1.501 . S
C110 C111 1.387 . S
C110 N113 1.341 . S
C111 C109 1.400 . S
C111 C110 1.387 . S
N112 Co103 2.022 . S
N112 C109 1.351 . S
N112 N113 1.365 . S
N113 C110 1.341 . S
N113 N112 1.365 . S
N113 H133 0.862 . S
C114 C109 1.501 . S
C114 H115 0.961 . S
C114 H116 0.961 . S
C114 H117 0.960 . S
H115 C114 0.961 . S
H116 C114 0.961 . S
H117 C114 0.960 . S
C118 N119 1.342 . S
C118 C122 1.401 . S
C118 C123 1.499 . S
N119 Co102 1.989 . S
N119 C118 1.342 . S
N119 N120 1.388 . S
N120 Co103 1.993 . S
N120 N119 1.388 . S
N120 C121 1.346 . S
C121 N120 1.346 . S
C121 C122 1.396 . S
C121 C131 1.510 . S
C122 C118 1.401 . S
C122 C121 1.396 . S
C123 C118 1.499 . S
C123 H124 0.959 . S
C123 H125 0.960 . S
C123 H126 0.961 . S
H124 C123 0.959 . S
H125 C123 0.960 . S
H126 C123 0.961 . S
O127 Co102 1.967 . S
O127 C135 1.258 . S
O128 Co103 1.941 . S
O128 C135 1.266 . S
H129 C131 0.959 . S
H130 C131 0.961 . S
C131 C121 1.510 . S
C131 H129 0.959 . S
C131 H130 0.961 . S
C131 H132 0.960 . S
H132 C131 0.960 . S
H133 N113 0.862 . S
O134 Co102 1.920 . S
O134 C107 1.289 . S
C135 O127 1.258 . S
C135 O128 1.266 . S
Co136 O139 1.970 . S
Co136 N153 1.989 . S
Co136 O161 1.967 . S
Co136 O168 1.920 . S
Co137 O140 1.966 . S
Co137 N146 2.022 . S
Co137 N154 1.993 . S
Co137 O162 1.941 . S
C138 O139 1.258 . S
C138 O140 1.263 . S
O139 Co136 1.970 . S
O139 C138 1.258 . S
O140 Co137 1.966 . S
O140 C138 1.263 . S
C141 O142 1.235 . S
C141 O168 1.289 . S
O142 C141 1.235 . S
C143 C145 1.400 . S
C143 N146 1.351 . S
C143 C148 1.501 . S
C144 C145 1.387 . S
C144 N147 1.341 . S
C145 C143 1.400 . S
C145 C144 1.387 . S
N146 Co137 2.022 . S
N146 C143 1.351 . S
N146 N147 1.365 . S
N147 C144 1.341 . S
N147 N146 1.365 . S
N147 H167 0.862 . S
C148 C143 1.501 . S
C148 H149 0.961 . S
C148 H150 0.961 . S
C148 H151 0.960 . S
H149 C148 0.961 . S
H150 C148 0.961 . S
H151 C148 0.960 . S
C152 N153 1.342 . S
C152 C156 1.401 1_565 S
C152 C157 1.499 . S
N153 Co136 1.989 . S
N153 C152 1.342 . S
N153 N154 1.388 . S
N154 Co137 1.993 . S
N154 N153 1.388 . S
N154 C155 1.346 . S
C155 N154 1.346 . S
C155 C156 1.396 1_565 S
C155 C165 1.510 1_565 S
C156 C152 1.401 1_545 S
C156 C155 1.396 1_545 S
C157 C152 1.499 . S
C157 H158 0.959 . S
C157 H159 0.960 1_565 S
C157 H160 0.961 . S
H158 C157 0.959 . S
H159 C157 0.960 1_545 S
H160 C157 0.961 . S
O161 Co136 1.967 . S
O161 C169 1.258 . S
O162 Co137 1.941 . S
O162 C169 1.266 . S
H163 C165 0.959 . S
H164 C165 0.961 . S
C165 C155 1.510 1_545 S
C165 H163 0.959 . S
C165 H164 0.961 . S
C165 H166 0.960 1_545 S
H166 C165 0.960 1_565 S
H167 N147 0.862 . S
O168 Co136 1.920 . S
O168 C141 1.289 . S
C169 O161 1.258 . S
C169 O162 1.266 . S
Co170 O173 1.970 . S
Co170 N187 1.989 . S
Co170 O195 1.967 . S
Co170 O202 1.920 . S
Co171 O174 1.966 . S
Co171 N180 2.022 . S
Co171 N188 1.993 . S
Co171 O196 1.941 . S
C172 O173 1.258 . S
C172 O174 1.263 . S
O173 Co170 1.970 . S
O173 C172 1.258 . S
O174 Co171 1.966 . S
O174 C172 1.263 . S
C175 O176 1.235 . S
C175 O202 1.289 . S
O176 C175 1.235 . S
C177 C179 1.400 . S
C177 N180 1.351 . S
C177 C182 1.501 . S
C178 C179 1.387 . S
C178 N181 1.341 . S
C179 C177 1.400 . S
C179 C178 1.387 . S
N180 Co171 2.022 . S
N180 C177 1.351 . S
N180 N181 1.365 . S
N181 C178 1.341 . S
N181 N180 1.365 . S
N181 H201 0.862 . S
C182 C177 1.501 . S
C182 H183 0.961 . S
C182 H184 0.961 . S
C182 H185 0.960 . S
H183 C182 0.961 . S
H184 C182 0.961 . S
H185 C182 0.960 . S
C186 N187 1.342 . S
C186 C190 1.401 . S
C186 C191 1.499 . S
N187 Co170 1.989 . S
N187 C186 1.342 . S
N187 N188 1.388 . S
N188 Co171 1.993 . S
N188 N187 1.388 . S
N188 C189 1.346 . S
C189 N188 1.346 . S
C189 C190 1.396 . S
C189 C199 1.510 . S
C190 C186 1.401 . S
C190 C189 1.396 . S
C191 C186 1.499 . S
C191 H192 0.959 . S
C191 H193 0.960 . S
C191 H194 0.961 . S
H192 C191 0.959 . S
H193 C191 0.960 . S
H194 C191 0.961 . S
O195 Co170 1.967 . S
O195 C203 1.258 . S
O196 Co171 1.941 . S
O196 C203 1.266 . S
H197 C199 0.959 . S
H198 C199 0.961 . S
C199 C189 1.510 . S
C199 H197 0.959 . S
C199 H198 0.961 . S
C199 H200 0.960 . S
H200 C199 0.960 . S
H201 N181 0.862 . S
O202 Co170 1.920 . S
O202 C175 1.289 . S
C203 O195 1.258 . S
C203 O196 1.266 . S
Co204 O207 1.970 . S
Co204 N221 1.989 . S
Co204 O229 1.967 . S
Co204 O236 1.920 . S
Co205 O208 1.966 . S
Co205 N214 2.022 . S
Co205 N222 1.993 . S
Co205 O230 1.941 . S
C206 O207 1.258 . S
C206 O208 1.263 . S
O207 Co204 1.970 . S
O207 C206 1.258 . S
O208 Co205 1.966 . S
O208 C206 1.263 . S
C209 O210 1.235 . S
C209 O236 1.289 . S
O210 C209 1.235 . S
C211 C213 1.400 . S
C211 N214 1.351 . S
C211 C216 1.501 . S
C212 C213 1.387 . S
C212 N215 1.341 . S
C213 C211 1.400 . S
C213 C212 1.387 . S
N214 Co205 2.022 . S
N214 C211 1.351 . S
N214 N215 1.365 . S
N215 C212 1.341 . S
N215 N214 1.365 . S
N215 H235 0.862 . S
C216 C211 1.501 . S
C216 H217 0.961 . S
C216 H218 0.961 . S
C216 H219 0.960 . S
H217 C216 0.961 . S
H218 C216 0.961 . S
H219 C216 0.960 . S
C220 N221 1.342 . S
C220 C224 1.401 . S
C220 C225 1.499 . S
N221 Co204 1.989 . S
N221 C220 1.342 . S
N221 N222 1.388 . S
N222 Co205 1.993 . S
N222 N221 1.388 . S
N222 C223 1.346 . S
C223 N222 1.346 . S
C223 C224 1.396 . S
C223 C233 1.510 . S
C224 C220 1.401 . S
C224 C223 1.396 . S
C225 C220 1.499 . S
C225 H226 0.959 . S
C225 H227 0.949 1_545 S
C225 H228 0.961 . S
H226 C225 0.959 . S
H227 C225 0.949 1_565 S
H228 C225 0.961 . S
O229 Co204 1.967 . S
O229 C237 1.258 . S
O230 Co205 1.941 . S
O230 C237 1.266 . S
H231 C233 0.959 . S
H232 C233 0.961 1_565 S
C233 C223 1.510 . S
C233 H231 0.959 . S
C233 H232 0.961 1_545 S
C233 H234 0.960 . S
H234 C233 0.960 . S
H235 N215 0.862 . S
O236 Co204 1.920 . S
O236 C209 1.289 . S
C237 O229 1.258 . S
C237 O230 1.266 . S
Co238 O241 1.970 . S
Co238 N255 1.989 . S
Co238 O263 1.967 . S
Co238 O270 1.920 . S
Co239 O242 1.966 . S
Co239 N248 2.022 . S
Co239 N256 1.993 . S
Co239 O264 1.941 . S
C240 O241 1.258 . S
C240 O242 1.263 . S
O241 Co238 1.970 . S
O241 C240 1.258 . S
O242 Co239 1.966 . S
O242 C240 1.263 . S
C243 O244 1.235 . S
C243 O270 1.289 . S
O244 C243 1.235 . S
C245 C247 1.400 . S
C245 N248 1.351 . S
C245 C250 1.501 . S
C246 C247 1.387 . S
C246 N249 1.341 . S
C247 C245 1.400 . S
C247 C246 1.387 . S
N248 Co239 2.022 . S
N248 C245 1.351 . S
N248 N249 1.365 . S
N249 C246 1.341 . S
N249 N248 1.365 . S
N249 H269 0.862 . S
C250 C245 1.501 . S
C250 H251 0.961 . S
C250 H252 0.961 . S
C250 H253 0.960 . S
H251 C250 0.961 . S
H252 C250 0.961 . S
H253 C250 0.960 . S
C254 N255 1.342 . S
C254 C258 1.401 . S
C254 C259 1.499 . S
N255 Co238 1.989 . S
N255 C254 1.342 . S
N255 N256 1.388 . S
N256 Co239 1.993 . S
N256 N255 1.388 . S
N256 C257 1.346 . S
C257 N256 1.346 . S
C257 C258 1.396 . S
C257 C267 1.510 . S
C258 C254 1.401 . S
C258 C257 1.396 . S
C259 C254 1.499 . S
C259 H260 0.959 . S
C259 H261 0.960 . S
C259 H262 0.961 . S
H260 C259 0.959 . S
H261 C259 0.960 . S
H262 C259 0.961 . S
O263 Co238 1.967 . S
O263 C271 1.258 . S
O264 Co239 1.941 . S
O264 C271 1.266 . S
H265 C267 0.959 . S
H266 C267 0.961 . S
C267 C257 1.510 . S
C267 H265 0.959 . S
C267 H266 0.961 . S
C267 H268 0.960 . S
H268 C267 0.960 . S
H269 N249 0.862 . S
O270 Co238 1.920 . S
O270 C243 1.289 . S
C271 O263 1.258 . S
C271 O264 1.266 . S
Co272 O275 1.970 . S
Co272 N289 1.989 . S
Co272 O297 1.967 . S
Co272 O304 1.920 . S
Co273 O276 1.966 . S
Co273 N282 2.022 . S
Co273 N290 1.993 . S
Co273 O298 1.941 . S
C274 O275 1.258 . S
C274 O276 1.263 . S
O275 Co272 1.970 . S
O275 C274 1.258 . S
O276 Co273 1.966 . S
O276 C274 1.263 . S
C277 O278 1.235 . S
C277 O304 1.289 . S
O278 C277 1.235 . S
C279 C281 1.400 . S
C279 N282 1.351 . S
C279 C284 1.501 . S
C280 C281 1.387 . S
C280 N283 1.341 . S
C281 C279 1.400 . S
C281 C280 1.387 . S
N282 Co273 2.022 . S
N282 C279 1.351 . S
N282 N283 1.365 . S
N283 C280 1.341 . S
N283 N282 1.365 . S
N283 H303 0.862 . S
C284 C279 1.501 . S
C284 H285 0.961 . S
C284 H286 0.961 . S
C284 H287 0.960 . S
H285 C284 0.961 . S
H286 C284 0.961 . S
H287 C284 0.960 . S
C288 N289 1.342 . S
C288 C292 1.401 . S
C288 C293 1.499 . S
N289 Co272 1.989 . S
N289 C288 1.342 . S
N289 N290 1.388 . S
N290 Co273 1.993 . S
N290 N289 1.388 . S
N290 C291 1.346 . S
C291 N290 1.346 . S
C291 C292 1.396 . S
C291 C301 1.510 . S
C292 C288 1.401 . S
C292 C291 1.396 . S
C293 C288 1.499 . S
C293 H294 0.959 . S
C293 H295 0.960 . S
C293 H296 0.961 . S
H294 C293 0.959 . S
H295 C293 0.960 . S
H296 C293 0.961 . S
O297 Co272 1.967 . S
O297 C305 1.258 . S
O298 Co273 1.941 . S
O298 C305 1.266 . S
H299 C301 0.959 . S
H300 C301 0.961 . S
C301 C291 1.510 . S
C301 H299 0.959 . S
C301 H300 0.961 . S
C301 H302 0.960 . S
H302 C301 0.960 . S
H303 N283 0.862 . S
O304 Co272 1.920 . S
O304 C277 1.289 . S
C305 O297 1.258 . S
C305 O298 1.266 . S
Co306 O309 1.970 . S
Co306 N323 1.989 . S
Co306 O331 1.967 . S
Co306 O338 1.920 . S
Co307 O310 1.966 . S
Co307 N316 2.022 . S
Co307 N324 1.993 . S
Co307 O332 1.941 . S
C308 O309 1.258 . S
C308 O310 1.263 . S
O309 Co306 1.970 . S
O309 C308 1.258 . S
O310 Co307 1.966 . S
O310 C308 1.263 . S
C311 O312 1.235 . S
C311 O338 1.289 . S
O312 C311 1.235 . S
C313 C315 1.400 . S
C313 N316 1.351 . S
C313 C318 1.501 . S
C314 C315 1.387 . S
C314 N317 1.341 . S
C315 C313 1.400 . S
C315 C314 1.387 . S
N316 Co307 2.022 . S
N316 C313 1.351 . S
N316 N317 1.365 . S
N317 C314 1.341 . S
N317 N316 1.365 . S
N317 H337 0.862 . S
C318 C313 1.501 . S
C318 H319 0.961 . S
C318 H320 0.961 . S
C318 H321 0.960 . S
H319 C318 0.961 . S
H320 C318 0.961 . S
H321 C318 0.960 . S
C322 N323 1.342 . S
C322 C326 1.401 1_565 S
C322 C327 1.499 . S
N323 Co306 1.989 . S
N323 C322 1.342 . S
N323 N324 1.388 . S
N324 Co307 1.993 . S
N324 N323 1.388 . S
N324 C325 1.346 . S
C325 N324 1.346 . S
C325 C326 1.396 1_565 S
C325 C335 1.510 . S
C326 C322 1.401 1_545 S
C326 C325 1.396 1_545 S
C327 C322 1.499 . S
C327 H328 0.959 . S
C327 H329 0.960 1_565 S
C327 H330 0.961 1_565 S
H328 C327 0.959 . S
H329 C327 0.960 1_545 S
H330 C327 0.961 1_545 S
O331 Co306 1.967 . S
O331 C339 1.258 . S
O332 Co307 1.941 . S
O332 C339 1.266 . S
H333 C335 0.959 1_545 S
H334 C335 0.961 . S
C335 C325 1.510 . S
C335 H333 0.959 1_565 S
C335 H334 0.961 . S
C335 H336 0.960 . S
H336 C335 0.960 . S
H337 N317 0.862 . S
O338 Co306 1.920 . S
O338 C311 1.289 . S
C339 O331 1.258 . S
C339 O332 1.266 . S
Co340 O343 1.970 . S
Co340 N357 1.989 . S
Co340 O365 1.967 . S
Co340 O372 1.920 . S
Co341 O344 1.966 . S
Co341 N350 2.022 . S
Co341 N358 1.993 . S
Co341 O366 1.941 . S
C342 O343 1.258 . S
C342 O344 1.263 . S
O343 Co340 1.970 . S
O343 C342 1.258 . S
O344 Co341 1.966 . S
O344 C342 1.263 . S
C345 O346 1.235 . S
C345 O372 1.289 . S
O346 C345 1.235 . S
C347 C349 1.400 . S
C347 N350 1.351 . S
C347 C352 1.501 . S
C348 C349 1.387 . S
C348 N351 1.341 . S
C349 C347 1.400 . S
C349 C348 1.387 . S
N350 Co341 2.022 . S
N350 C347 1.351 . S
N350 N351 1.365 . S
N351 C348 1.341 . S
N351 N350 1.365 . S
N351 H371 0.862 . S
C352 C347 1.501 . S
C352 H353 0.961 . S
C352 H354 0.961 . S
C352 H355 0.960 . S
H353 C352 0.961 . S
H354 C352 0.961 . S
H355 C352 0.960 . S
C356 N357 1.342 . S
C356 C360 1.401 . S
C356 C361 1.499 . S
N357 Co340 1.989 . S
N357 C356 1.342 . S
N357 N358 1.388 . S
N358 Co341 1.993 . S
N358 N357 1.388 . S
N358 C359 1.346 . S
C359 N358 1.346 . S
C359 C360 1.396 . S
C359 C369 1.510 . S
C360 C356 1.401 . S
C360 C359 1.396 . S
C361 C356 1.499 . S
C361 H362 0.959 . S
C361 H363 0.960 . S
C361 H364 0.961 . S
H362 C361 0.959 . S
H363 C361 0.960 . S
H364 C361 0.961 . S
O365 Co340 1.967 . S
O365 C373 1.258 . S
O366 Co341 1.941 . S
O366 C373 1.266 . S
H367 C369 0.959 . S
H368 C369 0.961 . S
C369 C359 1.510 . S
C369 H367 0.959 . S
C369 H368 0.961 . S
C369 H370 0.960 . S
H370 C369 0.960 . S
H371 N351 0.862 . S
O372 Co340 1.920 . S
O372 C345 1.289 . S
C373 O365 1.258 . S
C373 O366 1.266 . S
Co374 O377 1.970 . S
Co374 N391 1.989 . S
Co374 O399 1.967 . S
Co374 O406 1.920 . S
Co375 O378 1.966 . S
Co375 N384 2.022 . S
Co375 N392 1.993 . S
Co375 O400 1.941 . S
C376 O377 1.258 . S
C376 O378 1.263 . S
O377 Co374 1.970 . S
O377 C376 1.258 . S
O378 Co375 1.966 . S
O378 C376 1.263 . S
C379 O380 1.235 . S
C379 O406 1.289 . S
O380 C379 1.235 . S
C381 C383 1.400 . S
C381 N384 1.351 . S
C381 C386 1.501 . S
C382 C383 1.387 . S
C382 N385 1.341 . S
C383 C381 1.400 . S
C383 C382 1.387 . S
N384 Co375 2.022 . S
N384 C381 1.351 . S
N384 N385 1.365 . S
N385 C382 1.341 . S
N385 N384 1.365 . S
N385 H405 0.862 . S
C386 C381 1.501 . S
C386 H387 0.961 . S
C386 H388 0.961 . S
C386 H389 0.960 . S
H387 C386 0.961 . S
H388 C386 0.961 . S
H389 C386 0.960 . S
C390 N391 1.342 1_565 S
C390 C394 1.401 . S
C390 C395 1.499 . S
N391 Co374 1.989 . S
N391 C390 1.342 1_545 S
N391 N392 1.388 . S
N392 Co375 1.993 . S
N392 N391 1.388 . S
N392 C393 1.346 1_545 S
C393 N392 1.346 1_565 S
C393 C394 1.396 . S
C393 C403 1.510 . S
C394 C390 1.401 . S
C394 C393 1.396 . S
C395 C390 1.499 . S
C395 H396 0.959 1_565 S
C395 H397 0.960 . S
C395 H398 0.961 . S
H396 C395 0.959 1_545 S
H397 C395 0.960 . S
H398 C395 0.961 . S
O399 Co374 1.967 . S
O399 C407 1.258 . S
O400 Co375 1.941 . S
O400 C407 1.266 . S
H401 C403 0.959 . S
H402 C403 0.961 . S
C403 C393 1.510 . S
C403 H401 0.959 . S
C403 H402 0.961 . S
C403 H404 0.960 . S
H404 C403 0.960 . S
H405 N385 0.862 . S
O406 Co374 1.920 . S
O406 C379 1.289 . S
C407 O399 1.258 . S
C407 O400 1.266 . S
Co408 O411 1.970 . S
Co408 N425 1.989 . S
Co408 O433 1.967 . S
Co408 O440 1.920 . S
Co409 O412 1.966 . S
Co409 N418 2.022 . S
Co409 N426 1.993 . S
Co409 O434 1.941 . S
C410 O411 1.258 . S
C410 O412 1.263 . S
O411 Co408 1.970 . S
O411 C410 1.258 . S
O412 Co409 1.966 . S
O412 C410 1.263 . S
C413 O414 1.235 . S
C413 O440 1.289 . S
O414 C413 1.235 . S
C415 C417 1.400 . S
C415 N418 1.351 . S
C415 C420 1.501 . S
C416 C417 1.387 . S
C416 N419 1.341 . S
C417 C415 1.400 . S
C417 C416 1.387 . S
N418 Co409 2.022 . S
N418 C415 1.351 . S
N418 N419 1.365 . S
N419 C416 1.341 . S
N419 N418 1.365 . S
N419 H439 0.862 . S
C420 C415 1.501 . S
C420 H421 0.961 . S
C420 H422 0.961 . S
C420 H423 0.960 . S
H421 C420 0.961 . S
H422 C420 0.961 . S
H423 C420 0.960 . S
C424 N425 1.342 . S
C424 C428 1.401 . S
C424 C429 1.499 . S
N425 Co408 1.989 . S
N425 C424 1.342 . S
N425 N426 1.388 . S
N426 Co409 1.993 . S
N426 N425 1.388 . S
N426 C427 1.346 . S
C427 N426 1.346 . S
C427 C428 1.396 . S
C427 C437 1.510 . S
C428 C424 1.401 . S
C428 C427 1.396 . S
C429 C424 1.499 . S
C429 H430 0.959 . S
C429 H431 0.960 . S
C429 H432 0.961 . S
H430 C429 0.959 . S
H431 C429 0.960 . S
H432 C429 0.961 . S
O433 Co408 1.967 . S
O433 C441 1.258 . S
O434 Co409 1.941 . S
O434 C441 1.266 . S
H435 C437 0.959 . S
H436 C437 0.961 . S
C437 C427 1.510 . S
C437 H435 0.959 . S
C437 H436 0.961 . S
C437 H438 0.960 . S
H438 C437 0.960 . S
H439 N419 0.862 . S
O440 Co408 1.920 . S
O440 C413 1.289 . S
C441 O433 1.258 . S
C441 O434 1.266 . S
Co442 O445 1.970 . S
Co442 N459 1.989 . S
Co442 O467 1.967 . S
Co442 O474 1.920 . S
Co443 O446 1.966 . S
Co443 N452 2.022 . S
Co443 N460 1.993 . S
Co443 O468 1.941 . S
C444 O445 1.258 . S
C444 O446 1.263 . S
O445 Co442 1.970 . S
O445 C444 1.258 . S
O446 Co443 1.966 . S
O446 C444 1.263 . S
C447 O448 1.235 . S
C447 O474 1.289 . S
O448 C447 1.235 . S
C449 C451 1.400 . S
C449 N452 1.351 . S
C449 C454 1.501 . S
C450 C451 1.387 . S
C450 N453 1.341 . S
C451 C449 1.400 . S
C451 C450 1.387 . S
N452 Co443 2.022 . S
N452 C449 1.351 . S
N452 N453 1.365 . S
N453 C450 1.341 . S
N453 N452 1.365 . S
N453 H473 0.862 . S
C454 C449 1.501 . S
C454 H455 0.961 . S
C454 H456 0.961 . S
C454 H457 0.960 . S
H455 C454 0.961 . S
H456 C454 0.961 . S
H457 C454 0.960 . S
C458 N459 1.342 . S
C458 C462 1.401 1_545 S
C458 C463 1.499 . S
N459 Co442 1.989 . S
N459 C458 1.342 . S
N459 N460 1.388 . S
N460 Co443 1.993 . S
N460 N459 1.388 . S
N460 C461 1.346 . S
C461 N460 1.346 . S
C461 C462 1.396 1_545 S
C461 C471 1.510 1_545 S
C462 C458 1.401 1_565 S
C462 C461 1.396 1_565 S
C463 C458 1.499 . S
C463 H464 0.959 . S
C463 H465 0.960 1_545 S
C463 H466 0.961 . S
H464 C463 0.959 . S
H465 C463 0.960 1_565 S
H466 C463 0.961 . S
O467 Co442 1.967 . S
O467 C475 1.258 . S
O468 Co443 1.941 . S
O468 C475 1.266 . S
H469 C471 0.959 . S
H470 C471 0.961 . S
C471 C461 1.510 1_565 S
C471 H469 0.959 . S
C471 H470 0.961 . S
C471 H472 0.960 1_565 S
H472 C471 0.960 1_545 S
H473 N453 0.862 . S
O474 Co442 1.920 . S
O474 C447 1.289 . S
C475 O467 1.258 . S
C475 O468 1.266 . S
Co476 O479 1.970 . S
Co476 N493 1.989 . S
Co476 O501 1.967 . S
Co476 O508 1.920 . S
Co477 O480 1.966 . S
Co477 N486 2.022 . S
Co477 N494 1.993 . S
Co477 O502 1.941 . S
C478 O479 1.258 . S
C478 O480 1.263 . S
O479 Co476 1.970 . S
O479 C478 1.258 . S
O480 Co477 1.966 . S
O480 C478 1.263 . S
C481 O482 1.235 . S
C481 O508 1.289 . S
O482 C481 1.235 . S
C483 C485 1.400 . S
C483 N486 1.351 . S
C483 C488 1.501 . S
C484 C485 1.387 . S
C484 N487 1.341 . S
C485 C483 1.400 . S
C485 C484 1.387 . S
N486 Co477 2.022 . S
N486 C483 1.351 . S
N486 N487 1.365 . S
N487 C484 1.341 . S
N487 N486 1.365 . S
N487 H507 0.862 . S
C488 C483 1.501 . S
C488 H489 0.961 . S
C488 H490 0.961 . S
C488 H491 0.960 . S
H489 C488 0.961 . S
H490 C488 0.961 . S
H491 C488 0.960 . S
C492 N493 1.342 . S
C492 C496 1.401 . S
C492 C497 1.499 . S
N493 Co476 1.989 . S
N493 C492 1.342 . S
N493 N494 1.388 . S
N494 Co477 1.993 . S
N494 N493 1.388 . S
N494 C495 1.346 . S
C495 N494 1.346 . S
C495 C496 1.396 . S
C495 C505 1.510 . S
C496 C492 1.401 . S
C496 C495 1.396 . S
C497 C492 1.499 . S
C497 H498 0.959 . S
C497 H499 0.960 . S
C497 H500 0.961 . S
H498 C497 0.959 . S
H499 C497 0.960 . S
H500 C497 0.961 . S
O501 Co476 1.967 . S
O501 C509 1.258 . S
O502 Co477 1.941 . S
O502 C509 1.266 . S
H503 C505 0.959 . S
H504 C505 0.961 . S
C505 C495 1.510 . S
C505 H503 0.959 . S
C505 H504 0.961 . S
C505 H506 0.960 . S
H506 C505 0.960 . S
H507 N487 0.862 . S
O508 Co476 1.920 . S
O508 C481 1.289 . S
C509 O501 1.258 . S
C509 O502 1.266 . S
Co510 O513 1.970 . S
Co510 N527 1.989 . S
Co510 O535 1.967 . S
Co510 O542 1.920 . S
Co511 O514 1.966 . S
Co511 N520 2.022 . S
Co511 N528 1.993 . S
Co511 O536 1.941 . S
C512 O513 1.258 . S
C512 O514 1.263 . S
O513 Co510 1.970 . S
O513 C512 1.258 . S
O514 Co511 1.966 . S
O514 C512 1.263 . S
C515 O516 1.235 . S
C515 O542 1.289 . S
O516 C515 1.235 . S
C517 C519 1.400 . S
C517 N520 1.351 . S
C517 C522 1.501 . S
C518 C519 1.387 . S
C518 N521 1.341 . S
C519 C517 1.400 . S
C519 C518 1.387 . S
N520 Co511 2.022 . S
N520 C517 1.351 . S
N520 N521 1.365 . S
N521 C518 1.341 . S
N521 N520 1.365 . S
N521 H541 0.862 . S
C522 C517 1.501 . S
C522 H523 0.961 . S
C522 H524 0.961 . S
C522 H525 0.960 . S
H523 C522 0.961 . S
H524 C522 0.961 . S
H525 C522 0.960 . S
C526 N527 1.342 . S
C526 C530 1.401 . S
C526 C531 1.499 . S
N527 Co510 1.989 . S
N527 C526 1.342 . S
N527 N528 1.388 . S
N528 Co511 1.993 . S
N528 N527 1.388 . S
N528 C529 1.346 . S
C529 N528 1.346 . S
C529 C530 1.396 . S
C529 C539 1.510 . S
C530 C526 1.401 . S
C530 C529 1.396 . S
C531 C526 1.499 . S
C531 H532 0.959 . S
C531 H533 0.949 1_565 S
C531 H534 0.961 . S
H532 C531 0.959 . S
H533 C531 0.949 1_545 S
H534 C531 0.961 . S
O535 Co510 1.967 . S
O535 C543 1.258 . S
O536 Co511 1.941 . S
O536 C543 1.266 . S
H537 C539 0.959 . S
H538 C539 0.961 1_545 S
C539 C529 1.510 . S
C539 H537 0.959 . S
C539 H538 0.961 1_565 S
C539 H540 0.960 . S
H540 C539 0.960 . S
H541 N521 0.862 . S
O542 Co510 1.920 . S
O542 C515 1.289 . S
C543 O535 1.258 . S
C543 O536 1.266 . S
H544 C562 0.951 . S
H545 C564 0.951 . S
H546 C566 0.950 . S
H547 C567 0.950 . S
H548 C569 0.950 . S
H549 C572 0.950 . S
H550 C573 0.950 . S
H551 C575 0.950 . S
H552 C576 0.950 . S
H553 C577 0.951 . S
H554 C579 0.951 . S
H555 C581 0.950 . S
H556 C582 0.950 . S
H557 C584 0.950 . S
H558 C587 0.950 . S
H559 C588 0.950 . S
H560 C590 0.950 . S
H561 C591 0.950 . S
C562 H544 0.951 . S
C562 C563 1.366 . S
C562 C564 1.388 . S
C563 C562 1.366 . S
C563 C567 1.385 . S
C564 H545 0.951 . S
C564 C562 1.388 . S
C564 C565 1.366 . S
C565 C564 1.366 . S
C565 C566 1.414 . S
C565 C568 1.499 . S
C566 H546 0.950 . S
C566 C565 1.414 . S
C566 C567 1.374 . S
C567 H547 0.950 . S
C567 C563 1.385 . S
C567 C566 1.374 . S
C568 C565 1.499 . S
C568 C569 1.373 . S
C568 C570 1.389 . S
C569 H548 0.950 . S
C569 C568 1.373 . S
C569 C585 1.377 . S
C570 C568 1.389 . S
C570 C571 1.524 . S
C570 C584 1.377 . S
C571 C570 1.524 . S
C571 C572 1.397 . S
C571 C576 1.363 . S
C572 H549 0.950 . S
C572 C571 1.397 . S
C572 C573 1.334 . S
C573 H550 0.950 . S
C573 C572 1.334 . S
C573 C574 1.287 . S
C574 C573 1.287 . S
C574 C575 1.524 . S
C574 H593 0.913 . S
C575 H551 0.950 . S
C575 C574 1.524 . S
C575 C576 1.415 . S
C576 H552 0.950 . S
C576 C571 1.363 . S
C576 C575 1.415 . S
C577 H553 0.951 . S
C577 C578 1.366 . S
C577 C579 1.388 . S
C578 C577 1.366 . S
C578 C582 1.385 . S
C579 H554 0.951 . S
C579 C577 1.388 . S
C579 C580 1.366 . S
C580 C579 1.366 . S
C580 C581 1.414 . S
C580 C583 1.499 . S
C581 H555 0.950 . S
C581 C580 1.414 . S
C581 C582 1.374 . S
C582 H556 0.950 . S
C582 C578 1.385 . S
C582 C581 1.374 . S
C583 C580 1.499 . S
C583 C584 1.373 . S
C583 C585 1.389 . S
C584 H557 0.950 . S
C584 C570 1.377 . S
C584 C583 1.373 . S
C585 C569 1.377 . S
C585 C583 1.389 . S
C585 C586 1.524 . S
C586 C585 1.524 . S
C586 C587 1.397 . S
C586 C591 1.363 . S
C587 H558 0.950 . S
C587 C586 1.397 . S
C587 C588 1.334 . S
C588 H559 0.950 . S
C588 C587 1.334 . S
C588 C589 1.287 . S
C589 C588 1.287 . S
C589 C590 1.524 . S
C589 H592 0.999 . S
C590 H560 0.950 . S
C590 C589 1.524 . S
C590 C591 1.415 . S
C591 H561 0.950 . S
C591 C586 1.363 . S
C591 C590 1.415 . S
H592 C589 0.999 . S
H593 C574 0.913 . S
H594 C612 0.951 . S
H595 C614 0.951 . S
H596 C616 0.950 . S
H597 C617 0.950 . S
H598 C619 0.950 . S
H599 C622 0.950 . S
H600 C623 0.950 . S
H601 C625 0.950 . S
H602 C626 0.950 . S
H603 C627 0.951 . S
H604 C629 0.951 . S
H605 C631 0.950 . S
H606 C632 0.950 . S
H607 C634 0.950 . S
H608 C637 0.950 . S
H609 C638 0.950 . S
H610 C640 0.950 . S
H611 C641 0.950 . S
C612 H594 0.951 . S
C612 C613 1.366 . S
C612 C614 1.388 . S
C613 C612 1.366 . S
C613 C617 1.385 . S
C614 H595 0.951 . S
C614 C612 1.388 . S
C614 C615 1.366 . S
C615 C614 1.366 . S
C615 C616 1.414 . S
C615 C618 1.499 . S
C616 H596 0.950 . S
C616 C615 1.414 . S
C616 C617 1.374 . S
C617 H597 0.950 . S
C617 C613 1.385 . S
C617 C616 1.374 . S
C618 C615 1.499 . S
C618 C619 1.373 . S
C618 C620 1.389 . S
C619 H598 0.950 . S
C619 C618 1.373 . S
C619 C635 1.377 . S
C620 C618 1.389 . S
C620 C621 1.524 . S
C620 C634 1.377 . S
C621 C620 1.524 . S
C621 C622 1.397 . S
C621 C626 1.363 . S
C622 H599 0.950 . S
C622 C621 1.397 . S
C622 C623 1.334 . S
C623 H600 0.950 . S
C623 C622 1.334 . S
C623 C624 1.287 . S
C624 C623 1.287 . S
C624 C625 1.524 . S
C624 H643 0.913 . S
C625 H601 0.950 . S
C625 C624 1.524 . S
C625 C626 1.415 . S
C626 H602 0.950 . S
C626 C621 1.363 . S
C626 C625 1.415 . S
C627 H603 0.951 . S
C627 C628 1.366 . S
C627 C629 1.388 . S
C628 C627 1.366 . S
C628 C632 1.385 . S
C629 H604 0.951 . S
C629 C627 1.388 . S
C629 C630 1.366 . S
C630 C629 1.366 . S
C630 C631 1.414 . S
C630 C633 1.499 . S
C631 H605 0.950 . S
C631 C630 1.414 . S
C631 C632 1.374 . S
C632 H606 0.950 . S
C632 C628 1.385 . S
C632 C631 1.374 . S
C633 C630 1.499 . S
C633 C634 1.373 . S
C633 C635 1.389 . S
C634 H607 0.950 . S
C634 C620 1.377 . S
C634 C633 1.373 . S
C635 C619 1.377 . S
C635 C633 1.389 . S
C635 C636 1.524 . S
C636 C635 1.524 . S
C636 C637 1.397 . S
C636 C641 1.363 . S
C637 H608 0.950 . S
C637 C636 1.397 . S
C637 C638 1.334 . S
C638 H609 0.950 . S
C638 C637 1.334 . S
C638 C639 1.287 . S
C639 C638 1.287 . S
C639 C640 1.524 . S
C639 H642 0.999 . S
C640 H610 0.950 . S
C640 C639 1.524 . S
C640 C641 1.415 . S
C641 H611 0.950 . S
C641 C636 1.363 . S
C641 C640 1.415 . S
H642 C639 0.999 . S
H643 C624 0.913 . S
H644 C662 0.951 . S
H645 C664 0.951 . S
H646 C666 0.950 . S
H647 C667 0.950 . S
H648 C669 0.950 . S
H649 C672 0.950 . S
H650 C673 0.950 . S
H651 C675 0.950 . S
H652 C676 0.950 . S
H653 C677 0.951 . S
H654 C679 0.951 . S
H655 C681 0.950 . S
H656 C682 0.950 . S
H657 C684 0.950 . S
H658 C687 0.950 . S
H659 C688 0.950 . S
H660 C690 0.950 . S
H661 C691 0.950 . S
C662 H644 0.951 . S
C662 C663 1.366 . S
C662 C664 1.388 . S
C663 C662 1.366 . S
C663 C667 1.385 . S
C664 H645 0.951 . S
C664 C662 1.388 . S
C664 C665 1.366 . S
C665 C664 1.366 . S
C665 C666 1.414 . S
C665 C668 1.499 . S
C666 H646 0.950 . S
C666 C665 1.414 . S
C666 C667 1.374 . S
C667 H647 0.950 . S
C667 C663 1.385 . S
C667 C666 1.374 . S
C668 C665 1.499 . S
C668 C669 1.373 . S
C668 C670 1.389 . S
C669 H648 0.950 . S
C669 C668 1.373 . S
C669 C685 1.377 . S
C670 C668 1.389 . S
C670 C671 1.524 . S
C670 C684 1.377 . S
C671 C670 1.524 . S
C671 C672 1.397 . S
C671 C676 1.363 . S
C672 H649 0.950 . S
C672 C671 1.397 . S
C672 C673 1.334 . S
C673 H650 0.950 . S
C673 C672 1.334 . S
C673 C674 1.287 . S
C674 C673 1.287 . S
C674 C675 1.524 . S
C674 H693 0.913 . S
C675 H651 0.950 . S
C675 C674 1.524 . S
C675 C676 1.415 . S
C676 H652 0.950 . S
C676 C671 1.363 . S
C676 C675 1.415 . S
C677 H653 0.951 . S
C677 C678 1.366 . S
C677 C679 1.388 . S
C678 C677 1.366 . S
C678 C682 1.385 . S
C679 H654 0.951 . S
C679 C677 1.388 . S
C679 C680 1.366 . S
C680 C679 1.366 . S
C680 C681 1.414 . S
C680 C683 1.499 . S
C681 H655 0.950 . S
C681 C680 1.414 . S
C681 C682 1.374 . S
C682 H656 0.950 . S
C682 C678 1.385 . S
C682 C681 1.374 . S
C683 C680 1.499 . S
C683 C684 1.373 . S
C683 C685 1.389 . S
C684 H657 0.950 . S
C684 C670 1.377 . S
C684 C683 1.373 . S
C685 C669 1.377 . S
C685 C683 1.389 . S
C685 C686 1.524 . S
C686 C685 1.524 . S
C686 C687 1.397 . S
C686 C691 1.363 . S
C687 H658 0.950 . S
C687 C686 1.397 . S
C687 C688 1.334 . S
C688 H659 0.950 . S
C688 C687 1.334 . S
C688 C689 1.287 . S
C689 C688 1.287 . S
C689 C690 1.524 . S
C689 H692 0.999 . S
C690 H660 0.950 . S
C690 C689 1.524 . S
C690 C691 1.415 . S
C691 H661 0.950 . S
C691 C686 1.363 . S
C691 C690 1.415 . S
H692 C689 0.999 . S
H693 C674 0.913 . S
H694 C712 0.951 . S
H695 C714 0.951 . S
H696 C716 0.950 . S
H697 C717 0.950 . S
H698 C719 0.950 . S
H699 C722 0.950 . S
H700 C723 0.950 . S
H701 C725 0.950 . S
H702 C726 0.950 . S
H703 C727 0.951 . S
H704 C729 0.951 . S
H705 C731 0.950 . S
H706 C732 0.950 . S
H707 C734 0.950 . S
H708 C737 0.950 . S
H709 C738 0.950 . S
H710 C740 0.950 . S
H711 C741 0.950 . S
C712 H694 0.951 . S
C712 C713 1.366 . S
C712 C714 1.388 . S
C713 C712 1.366 . S
C713 C717 1.385 . S
C714 H695 0.951 . S
C714 C712 1.388 . S
C714 C715 1.366 . S
C715 C714 1.366 . S
C715 C716 1.414 . S
C715 C718 1.499 . S
C716 H696 0.950 . S
C716 C715 1.414 . S
C716 C717 1.374 . S
C717 H697 0.950 . S
C717 C713 1.385 . S
C717 C716 1.374 . S
C718 C715 1.499 . S
C718 C719 1.373 . S
C718 C720 1.389 . S
C719 H698 0.950 . S
C719 C718 1.373 . S
C719 C735 1.377 . S
C720 C718 1.389 . S
C720 C721 1.524 . S
C720 C734 1.377 . S
C721 C720 1.524 . S
C721 C722 1.397 . S
C721 C726 1.363 . S
C722 H699 0.950 . S
C722 C721 1.397 . S
C722 C723 1.334 . S
C723 H700 0.950 . S
C723 C722 1.334 . S
C723 C724 1.287 . S
C724 C723 1.287 . S
C724 C725 1.524 . S
C724 H743 0.913 . S
C725 H701 0.950 . S
C725 C724 1.524 . S
C725 C726 1.415 . S
C726 H702 0.950 . S
C726 C721 1.363 . S
C726 C725 1.415 . S
C727 H703 0.951 . S
C727 C728 1.366 . S
C727 C729 1.388 . S
C728 C727 1.366 . S
C728 C732 1.385 . S
C729 H704 0.951 . S
C729 C727 1.388 . S
C729 C730 1.366 . S
C730 C729 1.366 . S
C730 C731 1.414 . S
C730 C733 1.499 . S
C731 H705 0.950 . S
C731 C730 1.414 . S
C731 C732 1.374 . S
C732 H706 0.950 . S
C732 C728 1.385 . S
C732 C731 1.374 . S
C733 C730 1.499 . S
C733 C734 1.373 . S
C733 C735 1.389 . S
C734 H707 0.950 . S
C734 C720 1.377 . S
C734 C733 1.373 . S
C735 C719 1.377 . S
C735 C733 1.389 . S
C735 C736 1.524 . S
C736 C735 1.524 . S
C736 C737 1.397 . S
C736 C741 1.363 . S
C737 H708 0.950 . S
C737 C736 1.397 . S
C737 C738 1.334 . S
C738 H709 0.950 . S
C738 C737 1.334 . S
C738 C739 1.287 . S
C739 C738 1.287 . S
C739 C740 1.524 . S
C739 H742 0.999 . S
C740 H710 0.950 . S
C740 C739 1.524 . S
C740 C741 1.415 . S
C741 H711 0.950 . S
C741 C736 1.363 . S
C741 C740 1.415 . S
H742 C739 0.999 . S
H743 C724 0.913 . S
H744 C762 0.951 . S
H745 C764 0.951 . S
H746 C766 0.950 . S
H747 C767 0.950 . S
H748 C769 0.950 . S
H749 C772 0.950 . S
H750 C773 0.950 . S
H751 C775 0.950 . S
H752 C776 0.950 . S
H753 C777 0.951 . S
H754 C779 0.951 . S
H755 C781 0.950 . S
H756 C782 0.950 . S
H757 C784 0.950 . S
H758 C787 0.950 . S
H759 C788 0.950 . S
H760 C790 0.950 . S
H761 C791 0.950 . S
C762 H744 0.951 . S
C762 C763 1.366 . S
C762 C764 1.388 . S
C763 C762 1.366 . S
C763 C767 1.385 . S
C764 H745 0.951 . S
C764 C762 1.388 . S
C764 C765 1.366 . S
C765 C764 1.366 . S
C765 C766 1.414 . S
C765 C768 1.499 . S
C766 H746 0.950 . S
C766 C765 1.414 . S
C766 C767 1.374 . S
C767 H747 0.950 . S
C767 C763 1.385 . S
C767 C766 1.374 . S
C768 C765 1.499 . S
C768 C769 1.373 . S
C768 C770 1.389 . S
C769 H748 0.950 . S
C769 C768 1.373 . S
C769 C785 1.377 . S
C770 C768 1.389 . S
C770 C771 1.524 . S
C770 C784 1.377 . S
C771 C770 1.524 . S
C771 C772 1.397 . S
C771 C776 1.363 . S
C772 H749 0.950 . S
C772 C771 1.397 . S
C772 C773 1.334 . S
C773 H750 0.950 . S
C773 C772 1.334 . S
C773 C774 1.287 . S
C774 C773 1.287 . S
C774 C775 1.524 . S
C774 H793 0.913 . S
C775 H751 0.950 . S
C775 C774 1.524 . S
C775 C776 1.415 . S
C776 H752 0.950 . S
C776 C771 1.363 . S
C776 C775 1.415 . S
C777 H753 0.951 . S
C777 C778 1.366 . S
C777 C779 1.388 . S
C778 C777 1.366 . S
C778 C782 1.385 . S
C779 H754 0.951 . S
C779 C777 1.388 . S
C779 C780 1.366 . S
C780 C779 1.366 . S
C780 C781 1.414 . S
C780 C783 1.499 . S
C781 H755 0.950 . S
C781 C780 1.414 . S
C781 C782 1.374 . S
C782 H756 0.950 . S
C782 C778 1.385 . S
C782 C781 1.374 . S
C783 C780 1.499 . S
C783 C784 1.373 . S
C783 C785 1.389 . S
C784 H757 0.950 . S
C784 C770 1.377 . S
C784 C783 1.373 . S
C785 C769 1.377 . S
C785 C783 1.389 . S
C785 C786 1.524 . S
C786 C785 1.524 . S
C786 C787 1.397 . S
C786 C791 1.363 . S
C787 H758 0.950 . S
C787 C786 1.397 . S
C787 C788 1.334 . S
C788 H759 0.950 . S
C788 C787 1.334 . S
C788 C789 1.287 . S
C789 C788 1.287 . S
C789 C790 1.524 . S
C789 H792 0.999 . S
C790 H760 0.950 . S
C790 C789 1.524 . S
C790 C791 1.415 . S
C791 H761 0.950 . S
C791 C786 1.363 . S
C791 C790 1.415 . S
H792 C789 0.999 . S
H793 C774 0.913 . S
H794 C812 0.951 . S
H795 C814 0.951 . S
H796 C816 0.950 . S
H797 C817 0.950 . S
H798 C819 0.950 . S
H799 C822 0.950 . S
H800 C823 0.950 . S
H801 C825 0.950 . S
H802 C826 0.950 . S
H803 C827 0.951 . S
H804 C829 0.951 . S
H805 C831 0.950 . S
H806 C832 0.950 . S
H807 C834 0.950 . S
H808 C837 0.950 . S
H809 C838 0.950 . S
H810 C840 0.950 . S
H811 C841 0.950 . S
C812 H794 0.951 . S
C812 C813 1.366 . S
C812 C814 1.388 . S
C813 C812 1.366 . S
C813 C817 1.385 . S
C814 H795 0.951 . S
C814 C812 1.388 . S
C814 C815 1.366 . S
C815 C814 1.366 . S
C815 C816 1.414 . S
C815 C818 1.499 . S
C816 H796 0.950 . S
C816 C815 1.414 . S
C816 C817 1.374 . S
C817 H797 0.950 . S
C817 C813 1.385 . S
C817 C816 1.374 . S
C818 C815 1.499 . S
C818 C819 1.373 . S
C818 C820 1.389 . S
C819 H798 0.950 . S
C819 C818 1.373 . S
C819 C835 1.377 . S
C820 C818 1.389 . S
C820 C821 1.524 . S
C820 C834 1.377 . S
C821 C820 1.524 . S
C821 C822 1.397 . S
C821 C826 1.363 . S
C822 H799 0.950 . S
C822 C821 1.397 . S
C822 C823 1.334 . S
C823 H800 0.950 . S
C823 C822 1.334 . S
C823 C824 1.287 . S
C824 C823 1.287 . S
C824 C825 1.524 . S
C824 H843 0.913 . S
C825 H801 0.950 . S
C825 C824 1.524 . S
C825 C826 1.415 . S
C826 H802 0.950 . S
C826 C821 1.363 . S
C826 C825 1.415 . S
C827 H803 0.951 . S
C827 C828 1.366 . S
C827 C829 1.388 . S
C828 C827 1.366 . S
C828 C832 1.385 . S
C829 H804 0.951 . S
C829 C827 1.388 . S
C829 C830 1.366 . S
C830 C829 1.366 . S
C830 C831 1.414 . S
C830 C833 1.499 . S
C831 H805 0.950 . S
C831 C830 1.414 . S
C831 C832 1.374 . S
C832 H806 0.950 . S
C832 C828 1.385 . S
C832 C831 1.374 . S
C833 C830 1.499 . S
C833 C834 1.373 . S
C833 C835 1.389 . S
C834 H807 0.950 . S
C834 C820 1.377 . S
C834 C833 1.373 . S
C835 C819 1.377 . S
C835 C833 1.389 . S
C835 C836 1.524 . S
C836 C835 1.524 . S
C836 C837 1.397 . S
C836 C841 1.363 . S
C837 H808 0.950 . S
C837 C836 1.397 . S
C837 C838 1.334 . S
C838 H809 0.950 . S
C838 C837 1.334 . S
C838 C839 1.287 . S
C839 C838 1.287 . S
C839 C840 1.524 . S
C839 H842 0.999 . S
C840 H810 0.950 . S
C840 C839 1.524 . S
C840 C841 1.415 . S
C841 H811 0.950 . S
C841 C836 1.363 . S
C841 C840 1.415 . S
H842 C839 0.999 . S
H843 C824 0.913 . S
H844 C862 0.951 . S
H845 C864 0.951 . S
H846 C866 0.950 . S
H847 C867 0.950 . S
H848 C869 0.950 . S
H849 C872 0.950 . S
H850 C873 0.950 . S
H851 C875 0.950 . S
H852 C876 0.950 . S
H853 C877 0.951 . S
H854 C879 0.951 . S
H855 C881 0.950 . S
H856 C882 0.950 . S
H857 C884 0.950 . S
H858 C887 0.950 . S
H859 C888 0.950 . S
H860 C890 0.950 . S
H861 C891 0.950 . S
C862 H844 0.951 . S
C862 C863 1.366 . S
C862 C864 1.388 . S
C863 C862 1.366 . S
C863 C867 1.385 . S
C864 H845 0.951 . S
C864 C862 1.388 . S
C864 C865 1.366 . S
C865 C864 1.366 . S
C865 C866 1.414 . S
C865 C868 1.499 . S
C866 H846 0.950 . S
C866 C865 1.414 . S
C866 C867 1.374 . S
C867 H847 0.950 . S
C867 C863 1.385 . S
C867 C866 1.374 . S
C868 C865 1.499 . S
C868 C869 1.373 . S
C868 C870 1.389 . S
C869 H848 0.950 . S
C869 C868 1.373 . S
C869 C885 1.377 . S
C870 C868 1.389 . S
C870 C871 1.524 . S
C870 C884 1.377 . S
C871 C870 1.524 . S
C871 C872 1.397 . S
C871 C876 1.363 . S
C872 H849 0.950 . S
C872 C871 1.397 . S
C872 C873 1.334 . S
C873 H850 0.950 . S
C873 C872 1.334 . S
C873 C874 1.287 . S
C874 C873 1.287 . S
C874 C875 1.524 . S
C874 H893 0.913 . S
C875 H851 0.950 . S
C875 C874 1.524 . S
C875 C876 1.415 . S
C876 H852 0.950 . S
C876 C871 1.363 . S
C876 C875 1.415 . S
C877 H853 0.951 . S
C877 C878 1.366 . S
C877 C879 1.388 . S
C878 C877 1.366 . S
C878 C882 1.385 . S
C879 H854 0.951 . S
C879 C877 1.388 . S
C879 C880 1.366 . S
C880 C879 1.366 . S
C880 C881 1.414 . S
C880 C883 1.499 . S
C881 H855 0.950 . S
C881 C880 1.414 . S
C881 C882 1.374 . S
C882 H856 0.950 . S
C882 C878 1.385 . S
C882 C881 1.374 . S
C883 C880 1.499 . S
C883 C884 1.373 . S
C883 C885 1.389 . S
C884 H857 0.950 . S
C884 C870 1.377 . S
C884 C883 1.373 . S
C885 C869 1.377 . S
C885 C883 1.389 . S
C885 C886 1.524 . S
C886 C885 1.524 . S
C886 C887 1.397 . S
C886 C891 1.363 . S
C887 H858 0.950 . S
C887 C886 1.397 . S
C887 C888 1.334 . S
C888 H859 0.950 . S
C888 C887 1.334 . S
C888 C889 1.287 . S
C889 C888 1.287 . S
C889 C890 1.524 . S
C889 H892 0.999 . S
C890 H860 0.950 . S
C890 C889 1.524 . S
C890 C891 1.415 . S
C891 H861 0.950 . S
C891 C886 1.363 . S
C891 C890 1.415 . S
H892 C889 0.999 . S
H893 C874 0.913 . S
H894 C912 0.951 . S
H895 C914 0.951 . S
H896 C916 0.950 . S
H897 C917 0.950 . S
H898 C919 0.950 . S
H899 C922 0.950 . S
H900 C923 0.950 . S
H901 C925 0.950 . S
H902 C926 0.950 . S
H903 C927 0.951 . S
H904 C929 0.951 . S
H905 C931 0.950 . S
H906 C932 0.950 . S
H907 C934 0.950 . S
H908 C937 0.950 . S
H909 C938 0.950 . S
H910 C940 0.950 . S
H911 C941 0.950 . S
C912 H894 0.951 . S
C912 C913 1.366 . S
C912 C914 1.388 . S
C913 C912 1.366 . S
C913 C917 1.385 . S
C914 H895 0.951 . S
C914 C912 1.388 . S
C914 C915 1.366 . S
C915 C914 1.366 . S
C915 C916 1.414 . S
C915 C918 1.499 . S
C916 H896 0.950 . S
C916 C915 1.414 . S
C916 C917 1.374 . S
C917 H897 0.950 . S
C917 C913 1.385 . S
C917 C916 1.374 . S
C918 C915 1.499 . S
C918 C919 1.373 . S
C918 C920 1.389 . S
C919 H898 0.950 . S
C919 C918 1.373 . S
C919 C935 1.377 . S
C920 C918 1.389 . S
C920 C921 1.524 . S
C920 C934 1.377 . S
C921 C920 1.524 . S
C921 C922 1.397 . S
C921 C926 1.363 . S
C922 H899 0.950 . S
C922 C921 1.397 . S
C922 C923 1.334 . S
C923 H900 0.950 . S
C923 C922 1.334 . S
C923 C924 1.287 . S
C924 C923 1.287 . S
C924 C925 1.524 . S
C924 H943 0.913 . S
C925 H901 0.950 . S
C925 C924 1.524 . S
C925 C926 1.415 . S
C926 H902 0.950 . S
C926 C921 1.363 . S
C926 C925 1.415 . S
C927 H903 0.951 . S
C927 C928 1.366 . S
C927 C929 1.388 . S
C928 C927 1.366 . S
C928 C932 1.385 . S
C929 H904 0.951 . S
C929 C927 1.388 . S
C929 C930 1.366 . S
C930 C929 1.366 . S
C930 C931 1.414 . S
C930 C933 1.499 . S
C931 H905 0.950 . S
C931 C930 1.414 . S
C931 C932 1.374 . S
C932 H906 0.950 . S
C932 C928 1.385 . S
C932 C931 1.374 . S
C933 C930 1.499 . S
C933 C934 1.373 . S
C933 C935 1.389 . S
C934 H907 0.950 . S
C934 C920 1.377 . S
C934 C933 1.373 . S
C935 C919 1.377 . S
C935 C933 1.389 . S
C935 C936 1.524 . S
C936 C935 1.524 . S
C936 C937 1.397 . S
C936 C941 1.363 . S
C937 H908 0.950 . S
C937 C936 1.397 . S
C937 C938 1.334 . S
C938 H909 0.950 . S
C938 C937 1.334 . S
C938 C939 1.287 . S
C939 C938 1.287 . S
C939 C940 1.524 . S
C939 H942 0.999 . S
C940 H910 0.950 . S
C940 C939 1.524 . S
C940 C941 1.415 . S
C941 H911 0.950 . S
C941 C936 1.363 . S
C941 C940 1.415 . S
H942 C939 0.999 . S
H943 C924 0.913 . S
H944 C962 0.951 . S
H945 C964 0.951 . S
H946 C966 0.950 . S
H947 C967 0.950 . S
H948 C969 0.950 . S
H949 C972 0.950 . S
H950 C973 0.950 . S
H951 C975 0.950 . S
H952 C976 0.950 . S
H953 C977 0.951 . S
H954 C979 0.951 . S
H955 C981 0.950 . S
H956 C982 0.950 . S
H957 C984 0.950 . S
H958 C987 0.950 . S
H959 C988 0.950 . S
H960 C990 0.950 . S
H961 C991 0.950 . S
C962 H944 0.951 . S
C962 C963 1.366 . S
C962 C964 1.388 . S
C963 C962 1.366 . S
C963 C967 1.385 . S
C964 H945 0.951 . S
C964 C962 1.388 . S
C964 C965 1.366 . S
C965 C964 1.366 . S
C965 C966 1.414 . S
C965 C968 1.499 . S
C966 H946 0.950 . S
C966 C965 1.414 . S
C966 C967 1.374 . S
C967 H947 0.950 . S
C967 C963 1.385 . S
C967 C966 1.374 . S
C968 C965 1.499 . S
C968 C969 1.373 . S
C968 C970 1.389 . S
C969 H948 0.950 . S
C969 C968 1.373 . S
C969 C985 1.377 . S
C970 C968 1.389 . S
C970 C971 1.524 . S
C970 C984 1.377 . S
C971 C970 1.524 . S
C971 C972 1.397 . S
C971 C976 1.363 . S
C972 H949 0.950 . S
C972 C971 1.397 . S
C972 C973 1.334 . S
C973 H950 0.950 . S
C973 C972 1.334 . S
C973 C974 1.287 . S
C974 C973 1.287 . S
C974 C975 1.524 . S
C974 H993 0.913 . S
C975 H951 0.950 . S
C975 C974 1.524 . S
C975 C976 1.415 . S
C976 H952 0.950 . S
C976 C971 1.363 . S
C976 C975 1.415 . S
C977 H953 0.951 . S
C977 C978 1.366 . S
C977 C979 1.388 . S
C978 C977 1.366 . S
C978 C982 1.385 . S
C979 H954 0.951 . S
C979 C977 1.388 . S
C979 C980 1.366 . S
C980 C979 1.366 . S
C980 C981 1.414 . S
C980 C983 1.499 . S
C981 H955 0.950 . S
C981 C980 1.414 . S
C981 C982 1.374 . S
C982 H956 0.950 . S
C982 C978 1.385 . S
C982 C981 1.374 . S
C983 C980 1.499 . S
C983 C984 1.373 . S
C983 C985 1.389 . S
C984 H957 0.950 . S
C984 C970 1.377 . S
C984 C983 1.373 . S
C985 C969 1.377 . S
C985 C983 1.389 . S
C985 C986 1.524 . S
C986 C985 1.524 . S
C986 C987 1.397 . S
C986 C991 1.363 . S
C987 H958 0.950 . S
C987 C986 1.397 . S
C987 C988 1.334 . S
C988 H959 0.950 . S
C988 C987 1.334 . S
C988 C989 1.287 . S
C989 C988 1.287 . S
C989 C990 1.524 . S
C989 H992 0.999 . S
C990 H960 0.950 . S
C990 C989 1.524 . S
C990 C991 1.415 . S
C991 H961 0.950 . S
C991 C986 1.363 . S
C991 C990 1.415 . S
H992 C989 0.999 . S
H993 C974 0.913 . S
H994 C1012 0.951 . S
H995 C1014 0.951 . S
H996 C1016 0.950 . S
H997 C1017 0.950 . S
H998 C1019 0.950 . S
H999 C1022 0.950 . S
H1000 C1023 0.950 . S
H1001 C1025 0.950 . S
H1002 C1026 0.950 . S
H1003 C1027 0.951 . S
H1004 C1029 0.951 . S
H1005 C1031 0.950 . S
H1006 C1032 0.950 . S
H1007 C1034 0.950 . S
H1008 C1037 0.950 . S
H1009 C1038 0.950 . S
H1010 C1040 0.950 . S
H1011 C1041 0.950 . S
C1012 H994 0.951 . S
C1012 C1013 1.366 . S
C1012 C1014 1.388 . S
C1013 C1012 1.366 . S
C1013 C1017 1.385 . S
C1014 H995 0.951 . S
C1014 C1012 1.388 . S
C1014 C1015 1.366 . S
C1015 C1014 1.366 . S
C1015 C1016 1.414 . S
C1015 C1018 1.499 . S
C1016 H996 0.950 . S
C1016 C1015 1.414 . S
C1016 C1017 1.374 . S
C1017 H997 0.950 . S
C1017 C1013 1.385 . S
C1017 C1016 1.374 . S
C1018 C1015 1.499 . S
C1018 C1019 1.373 . S
C1018 C1020 1.389 . S
C1019 H998 0.950 . S
C1019 C1018 1.373 . S
C1019 C1035 1.377 . S
C1020 C1018 1.389 . S
C1020 C1021 1.524 . S
C1020 C1034 1.377 . S
C1021 C1020 1.524 . S
C1021 C1022 1.397 . S
C1021 C1026 1.363 . S
C1022 H999 0.950 . S
C1022 C1021 1.397 . S
C1022 C1023 1.334 . S
C1023 H1000 0.950 . S
C1023 C1022 1.334 . S
C1023 C1024 1.287 . S
C1024 C1023 1.287 . S
C1024 C1025 1.524 . S
C1024 H1043 0.913 . S
C1025 H1001 0.950 . S
C1025 C1024 1.524 . S
C1025 C1026 1.415 . S
C1026 H1002 0.950 . S
C1026 C1021 1.363 . S
C1026 C1025 1.415 . S
C1027 H1003 0.951 . S
C1027 C1028 1.366 . S
C1027 C1029 1.388 . S
C1028 C1027 1.366 . S
C1028 C1032 1.385 . S
C1029 H1004 0.951 . S
C1029 C1027 1.388 . S
C1029 C1030 1.366 . S
C1030 C1029 1.366 . S
C1030 C1031 1.414 . S
C1030 C1033 1.499 . S
C1031 H1005 0.950 . S
C1031 C1030 1.414 . S
C1031 C1032 1.374 . S
C1032 H1006 0.950 . S
C1032 C1028 1.385 . S
C1032 C1031 1.374 . S
C1033 C1030 1.499 . S
C1033 C1034 1.373 . S
C1033 C1035 1.389 . S
C1034 H1007 0.950 . S
C1034 C1020 1.377 . S
C1034 C1033 1.373 . S
C1035 C1019 1.377 . S
C1035 C1033 1.389 . S
C1035 C1036 1.524 . S
C1036 C1035 1.524 . S
C1036 C1037 1.397 . S
C1036 C1041 1.363 . S
C1037 H1008 0.950 . S
C1037 C1036 1.397 . S
C1037 C1038 1.334 . S
C1038 H1009 0.950 . S
C1038 C1037 1.334 . S
C1038 C1039 1.287 . S
C1039 C1038 1.287 . S
C1039 C1040 1.524 . S
C1039 H1042 0.999 . S
C1040 H1010 0.950 . S
C1040 C1039 1.524 . S
C1040 C1041 1.415 . S
C1041 H1011 0.950 . S
C1041 C1036 1.363 . S
C1041 C1040 1.415 . S
H1042 C1039 0.999 . S
H1043 C1024 0.913 . S
H1044 C1062 0.951 . S
H1045 C1064 0.951 . S
H1046 C1066 0.950 . S
H1047 C1067 0.950 . S
H1048 C1069 0.950 . S
H1049 C1072 0.950 . S
H1050 C1073 0.950 . S
H1051 C1075 0.950 . S
H1052 C1076 0.950 . S
H1053 C1077 0.951 . S
H1054 C1079 0.951 . S
H1055 C1081 0.950 . S
H1056 C1082 0.950 . S
H1057 C1084 0.950 . S
H1058 C1087 0.950 . S
H1059 C1088 0.950 . S
H1060 C1090 0.950 . S
H1061 C1091 0.950 . S
C1062 H1044 0.951 . S
C1062 C1063 1.366 . S
C1062 C1064 1.388 . S
C1063 C1062 1.366 . S
C1063 C1067 1.385 . S
C1064 H1045 0.951 . S
C1064 C1062 1.388 . S
C1064 C1065 1.366 . S
C1065 C1064 1.366 . S
C1065 C1066 1.414 . S
C1065 C1068 1.499 . S
C1066 H1046 0.950 . S
C1066 C1065 1.414 . S
C1066 C1067 1.374 . S
C1067 H1047 0.950 . S
C1067 C1063 1.385 . S
C1067 C1066 1.374 . S
C1068 C1065 1.499 . S
C1068 C1069 1.373 . S
C1068 C1070 1.389 . S
C1069 H1048 0.950 . S
C1069 C1068 1.373 . S
C1069 C1085 1.377 . S
C1070 C1068 1.389 . S
C1070 C1071 1.524 . S
C1070 C1084 1.377 . S
C1071 C1070 1.524 . S
C1071 C1072 1.397 . S
C1071 C1076 1.363 . S
C1072 H1049 0.950 . S
C1072 C1071 1.397 . S
C1072 C1073 1.334 . S
C1073 H1050 0.950 . S
C1073 C1072 1.334 . S
C1073 C1074 1.287 . S
C1074 C1073 1.287 . S
C1074 C1075 1.524 . S
C1074 H1093 0.913 . S
C1075 H1051 0.950 . S
C1075 C1074 1.524 . S
C1075 C1076 1.415 . S
C1076 H1052 0.950 . S
C1076 C1071 1.363 . S
C1076 C1075 1.415 . S
C1077 H1053 0.951 . S
C1077 C1078 1.366 . S
C1077 C1079 1.388 . S
C1078 C1077 1.366 . S
C1078 C1082 1.385 . S
C1079 H1054 0.951 . S
C1079 C1077 1.388 . S
C1079 C1080 1.366 . S
C1080 C1079 1.366 . S
C1080 C1081 1.414 . S
C1080 C1083 1.499 . S
C1081 H1055 0.950 . S
C1081 C1080 1.414 . S
C1081 C1082 1.374 . S
C1082 H1056 0.950 . S
C1082 C1078 1.385 . S
C1082 C1081 1.374 . S
C1083 C1080 1.499 . S
C1083 C1084 1.373 . S
C1083 C1085 1.389 . S
C1084 H1057 0.950 . S
C1084 C1070 1.377 . S
C1084 C1083 1.373 . S
C1085 C1069 1.377 . S
C1085 C1083 1.389 . S
C1085 C1086 1.524 . S
C1086 C1085 1.524 . S
C1086 C1087 1.397 . S
C1086 C1091 1.363 . S
C1087 H1058 0.950 . S
C1087 C1086 1.397 . S
C1087 C1088 1.334 . S
C1088 H1059 0.950 . S
C1088 C1087 1.334 . S
C1088 C1089 1.287 . S
C1089 C1088 1.287 . S
C1089 C1090 1.524 . S
C1089 H1092 0.999 . S
C1090 H1060 0.950 . S
C1090 C1089 1.524 . S
C1090 C1091 1.415 . S
C1091 H1061 0.950 . S
C1091 C1086 1.363 . S
C1091 C1090 1.415 . S
H1092 C1089 0.999 . S
H1093 C1074 0.913 . S
H1094 C1112 0.951 . S
H1095 C1114 0.951 . S
H1096 C1116 0.950 . S
H1097 C1117 0.950 . S
H1098 C1119 0.950 . S
H1099 C1122 0.950 . S
H1100 C1123 0.950 . S
H1101 C1125 0.950 . S
H1102 C1126 0.950 . S
H1103 C1127 0.951 . S
H1104 C1129 0.951 . S
H1105 C1131 0.950 . S
H1106 C1132 0.950 . S
H1107 C1134 0.950 . S
H1108 C1137 0.950 . S
H1109 C1138 0.950 . S
H1110 C1140 0.950 . S
H1111 C1141 0.950 . S
C1112 H1094 0.951 . S
C1112 C1113 1.366 . S
C1112 C1114 1.388 . S
C1113 C1112 1.366 . S
C1113 C1117 1.385 . S
C1114 H1095 0.951 . S
C1114 C1112 1.388 . S
C1114 C1115 1.366 . S
C1115 C1114 1.366 . S
C1115 C1116 1.414 . S
C1115 C1118 1.499 . S
C1116 H1096 0.950 . S
C1116 C1115 1.414 . S
C1116 C1117 1.374 . S
C1117 H1097 0.950 . S
C1117 C1113 1.385 . S
C1117 C1116 1.374 . S
C1118 C1115 1.499 . S
C1118 C1119 1.373 . S
C1118 C1120 1.389 . S
C1119 H1098 0.950 . S
C1119 C1118 1.373 . S
C1119 C1135 1.377 . S
C1120 C1118 1.389 . S
C1120 C1121 1.524 . S
C1120 C1134 1.377 . S
C1121 C1120 1.524 . S
C1121 C1122 1.397 . S
C1121 C1126 1.363 . S
C1122 H1099 0.950 . S
C1122 C1121 1.397 . S
C1122 C1123 1.334 . S
C1123 H1100 0.950 . S
C1123 C1122 1.334 . S
C1123 C1124 1.287 . S
C1124 C1123 1.287 . S
C1124 C1125 1.524 . S
C1124 H1143 0.913 . S
C1125 H1101 0.950 . S
C1125 C1124 1.524 . S
C1125 C1126 1.415 . S
C1126 H1102 0.950 . S
C1126 C1121 1.363 . S
C1126 C1125 1.415 . S
C1127 H1103 0.951 . S
C1127 C1128 1.366 . S
C1127 C1129 1.388 . S
C1128 C1127 1.366 . S
C1128 C1132 1.385 . S
C1129 H1104 0.951 . S
C1129 C1127 1.388 . S
C1129 C1130 1.366 . S
C1130 C1129 1.366 . S
C1130 C1131 1.414 . S
C1130 C1133 1.499 . S
C1131 H1105 0.950 . S
C1131 C1130 1.414 . S
C1131 C1132 1.374 . S
C1132 H1106 0.950 . S
C1132 C1128 1.385 . S
C1132 C1131 1.374 . S
C1133 C1130 1.499 . S
C1133 C1134 1.373 . S
C1133 C1135 1.389 . S
C1134 H1107 0.950 . S
C1134 C1120 1.377 . S
C1134 C1133 1.373 . S
C1135 C1119 1.377 . S
C1135 C1133 1.389 . S
C1135 C1136 1.524 . S
C1136 C1135 1.524 . S
C1136 C1137 1.397 . S
C1136 C1141 1.363 . S
C1137 H1108 0.950 . S
C1137 C1136 1.397 . S
C1137 C1138 1.334 . S
C1138 H1109 0.950 . S
C1138 C1137 1.334 . S
C1138 C1139 1.287 . S
C1139 C1138 1.287 . S
C1139 C1140 1.524 . S
C1139 H1142 0.999 . S
C1140 H1110 0.950 . S
C1140 C1139 1.524 . S
C1140 C1141 1.415 . S
C1141 H1111 0.950 . S
C1141 C1136 1.363 . S
C1141 C1140 1.415 . S
H1142 C1139 0.999 . S
H1143 C1124 0.913 . S
H1144 C1162 0.951 . S
H1145 C1164 0.951 . S
H1146 C1166 0.950 . S
H1147 C1167 0.950 . S
H1148 C1169 0.950 . S
H1149 C1172 0.950 . S
H1150 C1173 0.950 . S
H1151 C1175 0.950 . S
H1152 C1176 0.950 . S
H1153 C1177 0.951 . S
H1154 C1179 0.951 . S
H1155 C1181 0.950 . S
H1156 C1182 0.950 . S
H1157 C1184 0.950 . S
H1158 C1187 0.950 . S
H1159 C1188 0.950 . S
H1160 C1190 0.950 . S
H1161 C1191 0.950 . S
C1162 H1144 0.951 . S
C1162 C1163 1.366 . S
C1162 C1164 1.388 . S
C1163 C1162 1.366 . S
C1163 C1167 1.385 . S
C1164 H1145 0.951 . S
C1164 C1162 1.388 . S
C1164 C1165 1.366 . S
C1165 C1164 1.366 . S
C1165 C1166 1.414 . S
C1165 C1168 1.499 . S
C1166 H1146 0.950 . S
C1166 C1165 1.414 . S
C1166 C1167 1.374 . S
C1167 H1147 0.950 . S
C1167 C1163 1.385 . S
C1167 C1166 1.374 . S
C1168 C1165 1.499 . S
C1168 C1169 1.373 . S
C1168 C1170 1.389 . S
C1169 H1148 0.950 . S
C1169 C1168 1.373 . S
C1169 C1185 1.377 . S
C1170 C1168 1.389 . S
C1170 C1171 1.524 . S
C1170 C1184 1.377 . S
C1171 C1170 1.524 . S
C1171 C1172 1.397 . S
C1171 C1176 1.363 . S
C1172 H1149 0.950 . S
C1172 C1171 1.397 . S
C1172 C1173 1.334 . S
C1173 H1150 0.950 . S
C1173 C1172 1.334 . S
C1173 C1174 1.287 . S
C1174 C1173 1.287 . S
C1174 C1175 1.524 . S
C1174 H1193 0.913 . S
C1175 H1151 0.950 . S
C1175 C1174 1.524 . S
C1175 C1176 1.415 . S
C1176 H1152 0.950 . S
C1176 C1171 1.363 . S
C1176 C1175 1.415 . S
C1177 H1153 0.951 . S
C1177 C1178 1.366 . S
C1177 C1179 1.388 . S
C1178 C1177 1.366 . S
C1178 C1182 1.385 . S
C1179 H1154 0.951 . S
C1179 C1177 1.388 . S
C1179 C1180 1.366 . S
C1180 C1179 1.366 . S
C1180 C1181 1.414 . S
C1180 C1183 1.499 . S
C1181 H1155 0.950 . S
C1181 C1180 1.414 . S
C1181 C1182 1.374 . S
C1182 H1156 0.950 . S
C1182 C1178 1.385 . S
C1182 C1181 1.374 . S
C1183 C1180 1.499 . S
C1183 C1184 1.373 . S
C1183 C1185 1.389 . S
C1184 H1157 0.950 . S
C1184 C1170 1.377 . S
C1184 C1183 1.373 . S
C1185 C1169 1.377 . S
C1185 C1183 1.389 . S
C1185 C1186 1.524 . S
C1186 C1185 1.524 . S
C1186 C1187 1.397 . S
C1186 C1191 1.363 . S
C1187 H1158 0.950 . S
C1187 C1186 1.397 . S
C1187 C1188 1.334 . S
C1188 H1159 0.950 . S
C1188 C1187 1.334 . S
C1188 C1189 1.287 . S
C1189 C1188 1.287 . S
C1189 C1190 1.524 . S
C1189 H1192 0.999 . S
C1190 H1160 0.950 . S
C1190 C1189 1.524 . S
C1190 C1191 1.415 . S
C1191 H1161 0.950 . S
C1191 C1186 1.363 . S
C1191 C1190 1.415 . S
H1192 C1189 0.999 . S
H1193 C1174 0.913 . S
H1194 C1212 0.951 . S
H1195 C1214 0.951 . S
H1196 C1216 0.950 . S
H1197 C1217 0.950 . S
H1198 C1219 0.950 . S
H1199 C1222 0.950 . S
H1200 C1223 0.950 . S
H1201 C1225 0.950 . S
H1202 C1226 0.950 . S
H1203 C1227 0.951 . S
H1204 C1229 0.951 . S
H1205 C1231 0.950 . S
H1206 C1232 0.950 . S
H1207 C1234 0.950 . S
H1208 C1237 0.950 . S
H1209 C1238 0.950 . S
H1210 C1240 0.950 . S
H1211 C1241 0.950 . S
C1212 H1194 0.951 . S
C1212 C1213 1.366 . S
C1212 C1214 1.388 . S
C1213 C1212 1.366 . S
C1213 C1217 1.385 . S
C1214 H1195 0.951 . S
C1214 C1212 1.388 . S
C1214 C1215 1.366 . S
C1215 C1214 1.366 . S
C1215 C1216 1.414 . S
C1215 C1218 1.499 . S
C1216 H1196 0.950 . S
C1216 C1215 1.414 . S
C1216 C1217 1.374 . S
C1217 H1197 0.950 . S
C1217 C1213 1.385 . S
C1217 C1216 1.374 . S
C1218 C1215 1.499 . S
C1218 C1219 1.373 . S
C1218 C1220 1.389 . S
C1219 H1198 0.950 . S
C1219 C1218 1.373 . S
C1219 C1235 1.377 . S
C1220 C1218 1.389 . S
C1220 C1221 1.524 . S
C1220 C1234 1.377 . S
C1221 C1220 1.524 . S
C1221 C1222 1.397 . S
C1221 C1226 1.363 . S
C1222 H1199 0.950 . S
C1222 C1221 1.397 . S
C1222 C1223 1.334 . S
C1223 H1200 0.950 . S
C1223 C1222 1.334 . S
C1223 C1224 1.287 . S
C1224 C1223 1.287 . S
C1224 C1225 1.524 . S
C1224 H1243 0.913 . S
C1225 H1201 0.950 . S
C1225 C1224 1.524 . S
C1225 C1226 1.415 . S
C1226 H1202 0.950 . S
C1226 C1221 1.363 . S
C1226 C1225 1.415 . S
C1227 H1203 0.951 . S
C1227 C1228 1.366 . S
C1227 C1229 1.388 . S
C1228 C1227 1.366 . S
C1228 C1232 1.385 . S
C1229 H1204 0.951 . S
C1229 C1227 1.388 . S
C1229 C1230 1.366 . S
C1230 C1229 1.366 . S
C1230 C1231 1.414 . S
C1230 C1233 1.499 . S
C1231 H1205 0.950 . S
C1231 C1230 1.414 . S
C1231 C1232 1.374 . S
C1232 H1206 0.950 . S
C1232 C1228 1.385 . S
C1232 C1231 1.374 . S
C1233 C1230 1.499 . S
C1233 C1234 1.373 . S
C1233 C1235 1.389 . S
C1234 H1207 0.950 . S
C1234 C1220 1.377 . S
C1234 C1233 1.373 . S
C1235 C1219 1.377 . S
C1235 C1233 1.389 . S
C1235 C1236 1.524 . S
C1236 C1235 1.524 . S
C1236 C1237 1.397 . S
C1236 C1241 1.363 . S
C1237 H1208 0.950 . S
C1237 C1236 1.397 . S
C1237 C1238 1.334 . S
C1238 H1209 0.950 . S
C1238 C1237 1.334 . S
C1238 C1239 1.287 . S
C1239 C1238 1.287 . S
C1239 C1240 1.524 . S
C1239 H1242 0.999 . S
C1240 H1210 0.950 . S
C1240 C1239 1.524 . S
C1240 C1241 1.415 . S
C1241 H1211 0.950 . S
C1241 C1236 1.363 . S
C1241 C1240 1.415 . S
H1242 C1239 0.999 . S
H1243 C1224 0.913 . S
H1244 C1262 0.951 . S
H1245 C1264 0.951 . S
H1246 C1266 0.950 . S
H1247 C1267 0.950 . S
H1248 C1269 0.950 . S
H1249 C1272 0.950 . S
H1250 C1273 0.950 . S
H1251 C1275 0.950 . S
H1252 C1276 0.950 . S
H1253 C1277 0.951 . S
H1254 C1279 0.951 . S
H1255 C1281 0.950 . S
H1256 C1282 0.950 . S
H1257 C1284 0.950 . S
H1258 C1287 0.950 . S
H1259 C1288 0.950 . S
H1260 C1290 0.950 . S
H1261 C1291 0.950 . S
C1262 H1244 0.951 . S
C1262 C1263 1.366 . S
C1262 C1264 1.388 . S
C1263 C1262 1.366 . S
C1263 C1267 1.385 . S
C1264 H1245 0.951 . S
C1264 C1262 1.388 . S
C1264 C1265 1.366 . S
C1265 C1264 1.366 . S
C1265 C1266 1.414 . S
C1265 C1268 1.499 . S
C1266 H1246 0.950 . S
C1266 C1265 1.414 . S
C1266 C1267 1.374 . S
C1267 H1247 0.950 . S
C1267 C1263 1.385 . S
C1267 C1266 1.374 . S
C1268 C1265 1.499 . S
C1268 C1269 1.373 . S
C1268 C1270 1.389 . S
C1269 H1248 0.950 . S
C1269 C1268 1.373 . S
C1269 C1285 1.377 . S
C1270 C1268 1.389 . S
C1270 C1271 1.524 . S
C1270 C1284 1.377 . S
C1271 C1270 1.524 . S
C1271 C1272 1.397 . S
C1271 C1276 1.363 . S
C1272 H1249 0.950 . S
C1272 C1271 1.397 . S
C1272 C1273 1.334 . S
C1273 H1250 0.950 . S
C1273 C1272 1.334 . S
C1273 C1274 1.287 . S
C1274 C1273 1.287 . S
C1274 C1275 1.524 . S
C1274 H1293 0.913 . S
C1275 H1251 0.950 . S
C1275 C1274 1.524 . S
C1275 C1276 1.415 . S
C1276 H1252 0.950 . S
C1276 C1271 1.363 . S
C1276 C1275 1.415 . S
C1277 H1253 0.951 . S
C1277 C1278 1.366 . S
C1277 C1279 1.388 . S
C1278 C1277 1.366 . S
C1278 C1282 1.385 . S
C1279 H1254 0.951 . S
C1279 C1277 1.388 . S
C1279 C1280 1.366 . S
C1280 C1279 1.366 . S
C1280 C1281 1.414 . S
C1280 C1283 1.499 . S
C1281 H1255 0.950 . S
C1281 C1280 1.414 . S
C1281 C1282 1.374 . S
C1282 H1256 0.950 . S
C1282 C1278 1.385 . S
C1282 C1281 1.374 . S
C1283 C1280 1.499 . S
C1283 C1284 1.373 . S
C1283 C1285 1.389 . S
C1284 H1257 0.950 . S
C1284 C1270 1.377 . S
C1284 C1283 1.373 . S
C1285 C1269 1.377 . S
C1285 C1283 1.389 . S
C1285 C1286 1.524 . S
C1286 C1285 1.524 . S
C1286 C1287 1.397 . S
C1286 C1291 1.363 . S
C1287 H1258 0.950 . S
C1287 C1286 1.397 . S
C1287 C1288 1.334 . S
C1288 H1259 0.950 . S
C1288 C1287 1.334 . S
C1288 C1289 1.287 . S
C1289 C1288 1.287 . S
C1289 C1290 1.524 . S
C1289 H1292 0.999 . S
C1290 H1260 0.950 . S
C1290 C1289 1.524 . S
C1290 C1291 1.415 . S
C1291 H1261 0.950 . S
C1291 C1286 1.363 . S
C1291 C1290 1.415 . S
H1292 C1289 0.999 . S
H1293 C1274 0.913 . S
H1294 C1312 0.951 . S
H1295 C1314 0.951 . S
H1296 C1316 0.950 . S
H1297 C1317 0.950 . S
H1298 C1319 0.950 . S
H1299 C1322 0.950 . S
H1300 C1323 0.950 . S
H1301 C1325 0.950 . S
H1302 C1326 0.950 . S
H1303 C1327 0.951 . S
H1304 C1329 0.951 . S
H1305 C1331 0.950 . S
H1306 C1332 0.950 . S
H1307 C1334 0.950 . S
H1308 C1337 0.950 . S
H1309 C1338 0.950 . S
H1310 C1340 0.950 . S
H1311 C1341 0.950 . S
C1312 H1294 0.951 . S
C1312 C1313 1.366 . S
C1312 C1314 1.388 . S
C1313 C1312 1.366 . S
C1313 C1317 1.385 . S
C1314 H1295 0.951 . S
C1314 C1312 1.388 . S
C1314 C1315 1.366 . S
C1315 C1314 1.366 . S
C1315 C1316 1.414 . S
C1315 C1318 1.499 . S
C1316 H1296 0.950 . S
C1316 C1315 1.414 . S
C1316 C1317 1.374 . S
C1317 H1297 0.950 . S
C1317 C1313 1.385 . S
C1317 C1316 1.374 . S
C1318 C1315 1.499 . S
C1318 C1319 1.373 . S
C1318 C1320 1.389 . S
C1319 H1298 0.950 . S
C1319 C1318 1.373 . S
C1319 C1335 1.377 . S
C1320 C1318 1.389 . S
C1320 C1321 1.524 . S
C1320 C1334 1.377 . S
C1321 C1320 1.524 . S
C1321 C1322 1.397 . S
C1321 C1326 1.363 . S
C1322 H1299 0.950 . S
C1322 C1321 1.397 . S
C1322 C1323 1.334 . S
C1323 H1300 0.950 . S
C1323 C1322 1.334 . S
C1323 C1324 1.287 . S
C1324 C1323 1.287 . S
C1324 C1325 1.524 . S
C1324 H1343 0.913 . S
C1325 H1301 0.950 . S
C1325 C1324 1.524 . S
C1325 C1326 1.415 . S
C1326 H1302 0.950 . S
C1326 C1321 1.363 . S
C1326 C1325 1.415 . S
C1327 H1303 0.951 . S
C1327 C1328 1.366 . S
C1327 C1329 1.388 . S
C1328 C1327 1.366 . S
C1328 C1332 1.385 . S
C1329 H1304 0.951 . S
C1329 C1327 1.388 . S
C1329 C1330 1.366 . S
C1330 C1329 1.366 . S
C1330 C1331 1.414 . S
C1330 C1333 1.499 . S
C1331 H1305 0.950 . S
C1331 C1330 1.414 . S
C1331 C1332 1.374 . S
C1332 H1306 0.950 . S
C1332 C1328 1.385 . S
C1332 C1331 1.374 . S
C1333 C1330 1.499 . S
C1333 C1334 1.373 . S
C1333 C1335 1.389 . S
C1334 H1307 0.950 . S
C1334 C1320 1.377 . S
C1334 C1333 1.373 . S
C1335 C1319 1.377 . S
C1335 C1333 1.389 . S
C1335 C1336 1.524 . S
C1336 C1335 1.524 . S
C1336 C1337 1.397 . S
C1336 C1341 1.363 . S
C1337 H1308 0.950 . S
C1337 C1336 1.397 . S
C1337 C1338 1.334 . S
C1338 H1309 0.950 . S
C1338 C1337 1.334 . S
C1338 C1339 1.287 . S
C1339 C1338 1.287 . S
C1339 C1340 1.524 . S
C1339 H1342 0.999 . S
C1340 H1310 0.950 . S
C1340 C1339 1.524 . S
C1340 C1341 1.415 . S
C1341 H1311 0.950 . S
C1341 C1336 1.363 . S
C1341 C1340 1.415 . S
H1342 C1339 0.999 . S
H1343 C1324 0.913 . S
H1344 C1362 0.951 . S
H1345 C1364 0.951 . S
H1346 C1366 0.950 . S
H1347 C1367 0.950 . S
H1348 C1369 0.950 . S
H1349 C1372 0.950 . S
H1350 C1373 0.950 . S
H1351 C1375 0.950 . S
H1352 C1376 0.950 . S
H1353 C1377 0.951 . S
H1354 C1379 0.951 . S
H1355 C1381 0.950 . S
H1356 C1382 0.950 . S
H1357 C1384 0.950 . S
H1358 C1387 0.950 . S
H1359 C1388 0.950 . S
H1360 C1390 0.950 . S
H1361 C1391 0.950 . S
C1362 H1344 0.951 . S
C1362 C1363 1.366 . S
C1362 C1364 1.388 . S
C1363 C1362 1.366 . S
C1363 C1367 1.385 . S
C1364 H1345 0.951 . S
C1364 C1362 1.388 . S
C1364 C1365 1.366 . S
C1365 C1364 1.366 . S
C1365 C1366 1.414 . S
C1365 C1368 1.499 . S
C1366 H1346 0.950 . S
C1366 C1365 1.414 . S
C1366 C1367 1.374 . S
C1367 H1347 0.950 . S
C1367 C1363 1.385 . S
C1367 C1366 1.374 . S
C1368 C1365 1.499 . S
C1368 C1369 1.373 1_554 S
C1368 C1370 1.389 . S
C1369 H1348 0.950 . S
C1369 C1368 1.373 1_556 S
C1369 C1385 1.377 . S
C1370 C1368 1.389 . S
C1370 C1371 1.524 . S
C1370 C1384 1.377 1_554 S
C1371 C1370 1.524 . S
C1371 C1372 1.397 . S
C1371 C1376 1.363 . S
C1372 H1349 0.950 . S
C1372 C1371 1.397 . S
C1372 C1373 1.334 . S
C1373 H1350 0.950 . S
C1373 C1372 1.334 . S
C1373 C1374 1.287 . S
C1374 C1373 1.287 . S
C1374 C1375 1.524 . S
C1374 H1393 0.913 . S
C1375 H1351 0.950 . S
C1375 C1374 1.524 . S
C1375 C1376 1.415 . S
C1376 H1352 0.950 . S
C1376 C1371 1.363 . S
C1376 C1375 1.415 . S
C1377 H1353 0.951 . S
C1377 C1378 1.366 . S
C1377 C1379 1.388 . S
C1378 C1377 1.366 . S
C1378 C1382 1.385 . S
C1379 H1354 0.951 . S
C1379 C1377 1.388 . S
C1379 C1380 1.366 . S
C1380 C1379 1.366 . S
C1380 C1381 1.414 . S
C1380 C1383 1.499 . S
C1381 H1355 0.950 . S
C1381 C1380 1.414 . S
C1381 C1382 1.374 . S
C1382 H1356 0.950 . S
C1382 C1378 1.385 . S
C1382 C1381 1.374 . S
C1383 C1380 1.499 . S
C1383 C1384 1.373 . S
C1383 C1385 1.389 . S
C1384 H1357 0.950 . S
C1384 C1370 1.377 1_556 S
C1384 C1383 1.373 . S
C1385 C1369 1.377 . S
C1385 C1383 1.389 . S
C1385 C1386 1.524 . S
C1386 C1385 1.524 . S
C1386 C1387 1.397 . S
C1386 C1391 1.363 . S
C1387 H1358 0.950 . S
C1387 C1386 1.397 . S
C1387 C1388 1.334 . S
C1388 H1359 0.950 . S
C1388 C1387 1.334 . S
C1388 C1389 1.287 . S
C1389 C1388 1.287 . S
C1389 C1390 1.524 . S
C1389 H1392 0.999 . S
C1390 H1360 0.950 . S
C1390 C1389 1.524 . S
C1390 C1391 1.415 . S
C1391 H1361 0.950 . S
C1391 C1386 1.363 . S
C1391 C1390 1.415 . S
H1392 C1389 0.999 . S
H1393 C1374 0.913 . S
H1394 C1412 0.951 . S
H1395 C1414 0.951 . S
H1396 C1416 0.950 . S
H1397 C1417 0.950 . S
H1398 C1419 0.950 . S
H1399 C1422 0.950 . S
H1400 C1423 0.950 . S
H1401 C1425 0.950 . S
H1402 C1426 0.950 1_554 S
H1403 C1427 0.951 . S
H1404 C1429 0.951 . S
H1405 C1431 0.950 . S
H1406 C1432 0.950 . S
H1407 C1434 0.950 . S
H1408 C1437 0.950 . S
H1409 C1438 0.950 . S
H1410 C1440 0.950 . S
H1411 C1441 0.950 . S
C1412 H1394 0.951 . S
C1412 C1413 1.366 . S
C1412 C1414 1.388 . S
C1413 C1412 1.366 . S
C1413 C1417 1.385 . S
C1414 H1395 0.951 . S
C1414 C1412 1.388 . S
C1414 C1415 1.366 . S
C1415 C1414 1.366 . S
C1415 C1416 1.414 . S
C1415 C1418 1.499 . S
C1416 H1396 0.950 . S
C1416 C1415 1.414 . S
C1416 C1417 1.374 . S
C1417 H1397 0.950 . S
C1417 C1413 1.385 . S
C1417 C1416 1.374 . S
C1418 C1415 1.499 . S
C1418 C1419 1.373 . S
C1418 C1420 1.389 . S
C1419 H1398 0.950 . S
C1419 C1418 1.373 . S
C1419 C1435 1.377 . S
C1420 C1418 1.389 . S
C1420 C1421 1.524 . S
C1420 C1434 1.377 1_556 S
C1421 C1420 1.524 . S
C1421 C1422 1.397 . S
C1421 C1426 1.363 . S
C1422 H1399 0.950 . S
C1422 C1421 1.397 . S
C1422 C1423 1.334 . S
C1423 H1400 0.950 . S
C1423 C1422 1.334 . S
C1423 C1424 1.287 . S
C1424 C1423 1.287 . S
C1424 C1425 1.524 . S
C1424 H1443 0.913 . S
C1425 H1401 0.950 . S
C1425 C1424 1.524 . S
C1425 C1426 1.415 . S
C1426 H1402 0.950 1_556 S
C1426 C1421 1.363 . S
C1426 C1425 1.415 . S
C1427 H1403 0.951 . S
C1427 C1428 1.366 . S
C1427 C1429 1.388 . S
C1428 C1427 1.366 . S
C1428 C1432 1.385 . S
C1429 H1404 0.951 . S
C1429 C1427 1.388 . S
C1429 C1430 1.366 . S
C1430 C1429 1.366 . S
C1430 C1431 1.414 . S
C1430 C1433 1.499 . S
C1431 H1405 0.950 . S
C1431 C1430 1.414 . S
C1431 C1432 1.374 . S
C1432 H1406 0.950 . S
C1432 C1428 1.385 . S
C1432 C1431 1.374 . S
C1433 C1430 1.499 . S
C1433 C1434 1.373 . S
C1433 C1435 1.389 1_554 S
C1434 H1407 0.950 . S
C1434 C1420 1.377 1_554 S
C1434 C1433 1.373 . S
C1435 C1419 1.377 . S
C1435 C1433 1.389 1_556 S
C1435 C1436 1.508 1_556 S
C1436 C1435 1.508 1_554 S
C1436 C1437 1.463 . S
C1436 C1441 1.315 1_554 S
C1437 H1408 0.950 . S
C1437 C1436 1.463 . S
C1437 C1438 1.334 . S
C1438 H1409 0.950 . S
C1438 C1437 1.334 . S
C1438 C1439 1.287 . S
C1439 C1438 1.287 . S
C1439 C1440 1.524 1_554 S
C1439 H1442 0.999 . S
C1440 H1410 0.950 . S
C1440 C1439 1.524 1_556 S
C1440 C1441 1.415 . S
C1441 H1411 0.950 . S
C1441 C1436 1.315 1_556 S
C1441 C1440 1.415 . S
H1442 C1439 0.999 . S
H1443 C1424 0.913 . S
H1444 C1462 0.951 . S
H1445 C1464 0.951 . S
H1446 C1466 0.950 . S
H1447 C1467 0.950 . S
H1448 C1469 0.950 . S
H1449 C1472 0.950 . S
H1450 C1473 0.950 . S
H1451 C1475 0.950 . S
H1452 C1476 0.950 . S
H1453 C1477 0.951 . S
H1454 C1479 0.951 . S
H1455 C1481 0.950 . S
H1456 C1482 0.950 . S
H1457 C1484 0.950 . S
H1458 C1487 0.950 . S
H1459 C1488 0.950 . S
H1460 C1490 0.950 . S
H1461 C1491 0.950 . S
C1462 H1444 0.951 . S
C1462 C1463 1.366 . S
C1462 C1464 1.388 . S
C1463 C1462 1.366 . S
C1463 C1467 1.385 . S
C1464 H1445 0.951 . S
C1464 C1462 1.388 . S
C1464 C1465 1.366 . S
C1465 C1464 1.366 . S
C1465 C1466 1.414 . S
C1465 C1468 1.499 . S
C1466 H1446 0.950 . S
C1466 C1465 1.414 . S
C1466 C1467 1.374 . S
C1467 H1447 0.950 . S
C1467 C1463 1.385 . S
C1467 C1466 1.374 . S
C1468 C1465 1.499 . S
C1468 C1469 1.373 . S
C1468 C1470 1.389 . S
C1469 H1448 0.950 . S
C1469 C1468 1.373 . S
C1469 C1485 1.377 . S
C1470 C1468 1.389 . S
C1470 C1471 1.524 . S
C1470 C1484 1.377 . S
C1471 C1470 1.524 . S
C1471 C1472 1.397 . S
C1471 C1476 1.363 1_565 S
C1472 H1449 0.950 . S
C1472 C1471 1.397 . S
C1472 C1473 1.334 . S
C1473 H1450 0.950 . S
C1473 C1472 1.334 . S
C1473 C1474 1.287 1_565 S
C1474 C1473 1.287 1_545 S
C1474 C1475 1.524 . S
C1474 H1493 0.913 . S
C1475 H1451 0.950 . S
C1475 C1474 1.524 . S
C1475 C1476 1.415 . S
C1476 H1452 0.950 . S
C1476 C1471 1.363 1_545 S
C1476 C1475 1.415 . S
C1477 H1453 0.951 . S
C1477 C1478 1.366 . S
C1477 C1479 1.388 . S
C1478 C1477 1.366 . S
C1478 C1482 1.385 . S
C1479 H1454 0.951 . S
C1479 C1477 1.388 . S
C1479 C1480 1.366 . S
C1480 C1479 1.366 . S
C1480 C1481 1.414 . S
C1480 C1483 1.499 . S
C1481 H1455 0.950 . S
C1481 C1480 1.414 . S
C1481 C1482 1.374 . S
C1482 H1456 0.950 . S
C1482 C1478 1.385 . S
C1482 C1481 1.374 . S
C1483 C1480 1.499 . S
C1483 C1484 1.373 . S
C1483 C1485 1.389 . S
C1484 H1457 0.950 . S
C1484 C1470 1.377 . S
C1484 C1483 1.373 . S
C1485 C1469 1.377 . S
C1485 C1483 1.389 . S
C1485 C1486 1.524 . S
C1486 C1485 1.524 . S
C1486 C1487 1.397 . S
C1486 C1491 1.363 . S
C1487 H1458 0.950 . S
C1487 C1486 1.397 . S
C1487 C1488 1.334 . S
C1488 H1459 0.950 . S
C1488 C1487 1.334 . S
C1488 C1489 1.287 . S
C1489 C1488 1.287 . S
C1489 C1490 1.524 . S
C1489 H1492 0.999 . S
C1490 H1460 0.950 . S
C1490 C1489 1.524 . S
C1490 C1491 1.415 . S
C1491 H1461 0.950 . S
C1491 C1486 1.363 . S
C1491 C1490 1.415 . S
H1492 C1489 0.999 . S
H1493 C1474 0.913 . S
H1494 C1512 0.951 . S
H1495 C1514 0.951 . S
H1496 C1516 0.950 . S
H1497 C1517 0.950 . S
H1498 C1519 0.950 . S
H1499 C1522 0.950 . S
H1500 C1523 0.950 . S
H1501 C1525 0.950 . S
H1502 C1526 0.950 . S
H1503 C1527 0.951 . S
H1504 C1529 0.951 . S
H1505 C1531 0.950 . S
H1506 C1532 0.950 . S
H1507 C1534 0.950 . S
H1508 C1537 0.950 . S
H1509 C1538 0.950 . S
H1510 C1540 0.950 . S
H1511 C1541 0.950 . S
C1512 H1494 0.951 . S
C1512 C1513 1.366 . S
C1512 C1514 1.388 . S
C1513 C1512 1.366 . S
C1513 C1517 1.385 . S
C1514 H1495 0.951 . S
C1514 C1512 1.388 . S
C1514 C1515 1.366 . S
C1515 C1514 1.366 . S
C1515 C1516 1.414 . S
C1515 C1518 1.499 . S
C1516 H1496 0.950 . S
C1516 C1515 1.414 . S
C1516 C1517 1.374 . S
C1517 H1497 0.950 . S
C1517 C1513 1.385 . S
C1517 C1516 1.374 . S
C1518 C1515 1.499 . S
C1518 C1519 1.373 . S
C1518 C1520 1.389 . S
C1519 H1498 0.950 . S
C1519 C1518 1.373 . S
C1519 C1535 1.377 . S
C1520 C1518 1.389 . S
C1520 C1521 1.524 . S
C1520 C1534 1.377 . S
C1521 C1520 1.524 . S
C1521 C1522 1.397 . S
C1521 C1526 1.363 . S
C1522 H1499 0.950 . S
C1522 C1521 1.397 . S
C1522 C1523 1.334 . S
C1523 H1500 0.950 . S
C1523 C1522 1.334 . S
C1523 C1524 1.287 . S
C1524 C1523 1.287 . S
C1524 C1525 1.524 . S
C1524 H1543 0.913 . S
C1525 H1501 0.950 . S
C1525 C1524 1.524 . S
C1525 C1526 1.415 . S
C1526 H1502 0.950 . S
C1526 C1521 1.363 . S
C1526 C1525 1.415 . S
C1527 H1503 0.951 . S
C1527 C1528 1.366 . S
C1527 C1529 1.388 . S
C1528 C1527 1.366 . S
C1528 C1532 1.385 . S
C1529 H1504 0.951 . S
C1529 C1527 1.388 . S
C1529 C1530 1.366 . S
C1530 C1529 1.366 . S
C1530 C1531 1.414 . S
C1530 C1533 1.499 . S
C1531 H1505 0.950 . S
C1531 C1530 1.414 . S
C1531 C1532 1.374 . S
C1532 H1506 0.950 . S
C1532 C1528 1.385 . S
C1532 C1531 1.374 . S
C1533 C1530 1.499 . S
C1533 C1534 1.373 . S
C1533 C1535 1.389 . S
C1534 H1507 0.950 . S
C1534 C1520 1.377 . S
C1534 C1533 1.373 . S
C1535 C1519 1.377 . S
C1535 C1533 1.389 . S
C1535 C1536 1.524 . S
C1536 C1535 1.524 . S
C1536 C1537 1.397 . S
C1536 C1541 1.363 . S
C1537 H1508 0.950 . S
C1537 C1536 1.397 . S
C1537 C1538 1.334 . S
C1538 H1509 0.950 . S
C1538 C1537 1.334 . S
C1538 C1539 1.287 . S
C1539 C1538 1.287 . S
C1539 C1540 1.524 . S
C1539 H1542 0.999 . S
C1540 H1510 0.950 . S
C1540 C1539 1.524 . S
C1540 C1541 1.415 . S
C1541 H1511 0.950 . S
C1541 C1536 1.363 . S
C1541 C1540 1.415 . S
H1542 C1539 0.999 . S
H1543 C1524 0.913 . S
H1544 C1562 0.951 . S
H1545 C1564 0.951 . S
H1546 C1566 0.950 . S
H1547 C1567 0.950 . S
H1548 C1569 0.950 . S
H1549 C1572 0.950 . S
H1550 C1573 0.950 . S
H1551 C1575 0.950 . S
H1552 C1576 0.950 . S
H1553 C1577 0.951 . S
H1554 C1579 0.951 . S
H1555 C1581 0.950 . S
H1556 C1582 0.950 . S
H1557 C1584 0.950 . S
H1558 C1587 0.950 . S
H1559 C1588 0.950 . S
H1560 C1590 0.950 . S
H1561 C1591 0.950 . S
C1562 H1544 0.951 . S
C1562 C1563 1.366 . S
C1562 C1564 1.388 . S
C1563 C1562 1.366 . S
C1563 C1567 1.385 . S
C1564 H1545 0.951 . S
C1564 C1562 1.388 . S
C1564 C1565 1.366 . S
C1565 C1564 1.366 . S
C1565 C1566 1.414 . S
C1565 C1568 1.499 . S
C1566 H1546 0.950 . S
C1566 C1565 1.414 . S
C1566 C1567 1.374 . S
C1567 H1547 0.950 . S
C1567 C1563 1.385 . S
C1567 C1566 1.374 . S
C1568 C1565 1.499 . S
C1568 C1569 1.373 . S
C1568 C1570 1.389 . S
C1569 H1548 0.950 . S
C1569 C1568 1.373 . S
C1569 C1585 1.377 1_556 S
C1570 C1568 1.389 . S
C1570 C1571 1.524 . S
C1570 C1584 1.377 1_556 S
C1571 C1570 1.524 . S
C1571 C1572 1.397 . S
C1571 C1576 1.363 . S
C1572 H1549 0.950 . S
C1572 C1571 1.397 . S
C1572 C1573 1.334 . S
C1573 H1550 0.950 . S
C1573 C1572 1.334 . S
C1573 C1574 1.287 . S
C1574 C1573 1.287 . S
C1574 C1575 1.524 . S
C1574 H1593 0.913 . S
C1575 H1551 0.950 . S
C1575 C1574 1.524 . S
C1575 C1576 1.415 . S
C1576 H1552 0.950 . S
C1576 C1571 1.363 . S
C1576 C1575 1.415 . S
C1577 H1553 0.951 . S
C1577 C1578 1.366 . S
C1577 C1579 1.388 . S
C1578 C1577 1.366 . S
C1578 C1582 1.385 . S
C1579 H1554 0.951 . S
C1579 C1577 1.388 . S
C1579 C1580 1.366 . S
C1580 C1579 1.366 . S
C1580 C1581 1.414 . S
C1580 C1583 1.499 . S
C1581 H1555 0.950 . S
C1581 C1580 1.414 . S
C1581 C1582 1.374 . S
C1582 H1556 0.950 . S
C1582 C1578 1.385 . S
C1582 C1581 1.374 . S
C1583 C1580 1.499 . S
C1583 C1584 1.373 . S
C1583 C1585 1.389 . S
C1584 H1557 0.950 . S
C1584 C1570 1.377 1_554 S
C1584 C1583 1.373 . S
C1585 C1569 1.377 1_554 S
C1585 C1583 1.389 . S
C1585 C1586 1.524 . S
C1586 C1585 1.524 . S
C1586 C1587 1.397 . S
C1586 C1591 1.363 1_565 S
C1587 H1558 0.950 . S
C1587 C1586 1.397 . S
C1587 C1588 1.334 1_565 S
C1588 H1559 0.950 . S
C1588 C1587 1.334 1_545 S
C1588 C1589 1.287 . S
C1589 C1588 1.287 . S
C1589 C1590 1.524 . S
C1589 H1592 0.999 . S
C1590 H1560 0.950 . S
C1590 C1589 1.524 . S
C1590 C1591 1.415 . S
C1591 H1561 0.950 . S
C1591 C1586 1.363 1_545 S
C1591 C1590 1.415 . S
H1592 C1589 0.999 . S
H1593 C1574 0.913 . S
H1594 C1612 0.951 . S
H1595 C1614 0.951 . S
H1596 C1616 0.950 . S
H1597 C1617 0.950 . S
H1598 C1619 0.950 . S
H1599 C1622 0.950 . S
H1600 C1623 0.950 . S
H1601 C1625 0.950 . S
H1602 C1626 0.950 . S
H1603 C1627 0.951 . S
H1604 C1629 0.951 . S
H1605 C1631 0.950 . S
H1606 C1632 0.950 . S
H1607 C1634 0.950 . S
H1608 C1637 0.950 . S
H1609 C1638 0.993 . S
H1610 C1640 0.950 . S
H1611 C1641 0.950 . S
C1612 H1594 0.951 . S
C1612 C1613 1.366 . S
C1612 C1614 1.388 . S
C1613 C1612 1.366 . S
C1613 C1617 1.385 . S
C1614 H1595 0.951 . S
C1614 C1612 1.388 . S
C1614 C1615 1.366 . S
C1615 C1614 1.366 . S
C1615 C1616 1.414 . S
C1615 C1618 1.499 . S
C1616 H1596 0.950 . S
C1616 C1615 1.414 . S
C1616 C1617 1.374 . S
C1617 H1597 0.950 . S
C1617 C1613 1.385 . S
C1617 C1616 1.374 . S
C1618 C1615 1.499 . S
C1618 C1619 1.373 . S
C1618 C1620 1.389 . S
C1619 H1598 0.950 . S
C1619 C1618 1.373 . S
C1619 C1635 1.377 . S
C1620 C1618 1.389 . S
C1620 C1621 1.524 . S
C1620 C1634 1.377 1_554 S
C1621 C1620 1.524 . S
C1621 C1622 1.397 . S
C1621 C1626 1.363 1_554 S
C1622 H1599 0.950 . S
C1622 C1621 1.397 . S
C1622 C1623 1.334 . S
C1623 H1600 0.950 . S
C1623 C1622 1.334 . S
C1623 C1624 1.320 . S
C1624 C1623 1.320 . S
C1624 C1625 1.497 1_554 S
C1624 H1643 0.913 . S
C1625 H1601 0.950 . S
C1625 C1624 1.497 1_556 S
C1625 C1626 1.415 . S
C1626 H1602 0.950 . S
C1626 C1621 1.363 1_556 S
C1626 C1625 1.415 . S
C1627 H1603 0.951 . S
C1627 C1628 1.366 . S
C1627 C1629 1.388 . S
C1628 C1627 1.366 . S
C1628 C1632 1.385 . S
C1629 H1604 0.951 . S
C1629 C1627 1.388 . S
C1629 C1630 1.366 . S
C1630 C1629 1.366 . S
C1630 C1631 1.414 . S
C1630 C1633 1.499 . S
C1631 H1605 0.950 . S
C1631 C1630 1.414 . S
C1631 C1632 1.374 . S
C1632 H1606 0.950 . S
C1632 C1628 1.385 . S
C1632 C1631 1.374 . S
C1633 C1630 1.499 . S
C1633 C1634 1.373 . S
C1633 C1635 1.389 1_556 S
C1634 H1607 0.950 . S
C1634 C1620 1.377 1_556 S
C1634 C1633 1.373 . S
C1635 C1619 1.377 . S
C1635 C1633 1.389 1_554 S
C1635 C1636 1.524 . S
C1636 C1635 1.524 . S
C1636 C1637 1.397 1_554 S
C1636 C1641 1.363 . S
C1637 H1608 0.950 . S
C1637 C1636 1.397 1_556 S
C1637 C1638 1.340 . S
C1638 H1609 0.993 . S
C1638 C1637 1.340 . S
C1638 C1639 1.242 1_556 S
C1639 C1638 1.242 1_554 S
C1639 C1640 1.524 . S
C1639 H1642 0.999 . S
C1640 H1610 0.950 . S
C1640 C1639 1.524 . S
C1640 C1641 1.415 . S
C1641 H1611 0.950 . S
C1641 C1636 1.363 . S
C1641 C1640 1.415 . S
H1642 C1639 0.999 . S
H1643 C1624 0.913 . S
H1644 C1662 0.951 . S
H1645 C1664 0.951 . S
H1646 C1666 0.950 . S
H1647 C1667 0.950 . S
H1648 C1669 0.950 . S
H1649 C1672 0.950 . S
H1650 C1673 0.950 . S
H1651 C1675 0.950 . S
H1652 C1676 0.950 . S
H1653 C1677 0.951 . S
H1654 C1679 0.951 . S
H1655 C1681 0.950 . S
H1656 C1682 0.950 . S
H1657 C1684 0.950 . S
H1658 C1687 0.950 1_545 S
H1659 C1688 0.950 . S
H1660 C1690 0.950 . S
H1661 C1691 0.950 1_545 S
C1662 H1644 0.951 . S
C1662 C1663 1.366 . S
C1662 C1664 1.388 . S
C1663 C1662 1.366 . S
C1663 C1667 1.385 . S
C1664 H1645 0.951 . S
C1664 C1662 1.388 . S
C1664 C1665 1.366 . S
C1665 C1664 1.366 . S
C1665 C1666 1.414 . S
C1665 C1668 1.499 . S
C1666 H1646 0.950 . S
C1666 C1665 1.414 . S
C1666 C1667 1.374 . S
C1667 H1647 0.950 . S
C1667 C1663 1.385 . S
C1667 C1666 1.374 . S
C1668 C1665 1.499 . S
C1668 C1669 1.373 . S
C1668 C1670 1.389 . S
C1669 H1648 0.950 . S
C1669 C1668 1.373 . S
C1669 C1685 1.377 . S
C1670 C1668 1.389 . S
C1670 C1671 1.524 . S
C1670 C1684 1.377 . S
C1671 C1670 1.524 . S
C1671 C1672 1.397 . S
C1671 C1676 1.363 . S
C1672 H1649 0.950 . S
C1672 C1671 1.397 . S
C1672 C1673 1.334 . S
C1673 H1650 0.950 . S
C1673 C1672 1.334 . S
C1673 C1674 1.287 . S
C1674 C1673 1.287 . S
C1674 C1675 1.524 . S
C1674 H1693 0.913 . S
C1675 H1651 0.950 . S
C1675 C1674 1.524 . S
C1675 C1676 1.415 . S
C1676 H1652 0.950 . S
C1676 C1671 1.363 . S
C1676 C1675 1.415 . S
C1677 H1653 0.951 . S
C1677 C1678 1.366 . S
C1677 C1679 1.388 . S
C1678 C1677 1.366 . S
C1678 C1682 1.385 . S
C1679 H1654 0.951 . S
C1679 C1677 1.388 . S
C1679 C1680 1.366 . S
C1680 C1679 1.366 . S
C1680 C1681 1.414 . S
C1680 C1683 1.499 . S
C1681 H1655 0.950 . S
C1681 C1680 1.414 . S
C1681 C1682 1.374 . S
C1682 H1656 0.950 . S
C1682 C1678 1.385 . S
C1682 C1681 1.374 . S
C1683 C1680 1.499 . S
C1683 C1684 1.373 . S
C1683 C1685 1.389 . S
C1684 H1657 0.950 . S
C1684 C1670 1.377 . S
C1684 C1683 1.373 . S
C1685 C1669 1.377 . S
C1685 C1683 1.389 . S
C1685 C1686 1.524 . S
C1686 C1685 1.524 . S
C1686 C1687 1.397 1_545 S
C1686 C1691 1.363 1_545 S
C1687 H1658 0.950 1_565 S
C1687 C1686 1.397 1_565 S
C1687 C1688 1.334 . S
C1688 H1659 0.950 . S
C1688 C1687 1.334 . S
C1688 C1689 1.287 . S
C1689 C1688 1.287 . S
C1689 C1690 1.524 . S
C1689 H1692 0.999 . S
C1690 H1660 0.950 . S
C1690 C1689 1.524 . S
C1690 C1691 1.415 . S
C1691 H1661 0.950 1_565 S
C1691 C1686 1.363 1_565 S
C1691 C1690 1.415 . S
H1692 C1689 0.999 . S
H1693 C1674 0.913 . S
H1694 C1712 0.951 . S
H1695 C1714 0.951 . S
H1696 C1716 0.950 . S
H1697 C1717 0.950 . S
H1698 C1719 0.950 . S
H1699 C1722 0.950 . S
H1700 C1723 0.950 . S
H1701 C1725 0.950 . S
H1702 C1726 0.950 . S
H1703 C1727 0.951 . S
H1704 C1729 0.951 . S
H1705 C1731 0.950 . S
H1706 C1732 0.950 . S
H1707 C1734 0.950 . S
H1708 C1737 0.950 . S
H1709 C1738 0.950 . S
H1710 C1740 0.950 . S
H1711 C1741 0.950 . S
C1712 H1694 0.951 . S
C1712 C1713 1.366 . S
C1712 C1714 1.388 . S
C1713 C1712 1.366 . S
C1713 C1717 1.385 . S
C1714 H1695 0.951 . S
C1714 C1712 1.388 . S
C1714 C1715 1.366 . S
C1715 C1714 1.366 . S
C1715 C1716 1.414 . S
C1715 C1718 1.499 . S
C1716 H1696 0.950 . S
C1716 C1715 1.414 . S
C1716 C1717 1.374 . S
C1717 H1697 0.950 . S
C1717 C1713 1.385 . S
C1717 C1716 1.374 . S
C1718 C1715 1.499 . S
C1718 C1719 1.373 . S
C1718 C1720 1.389 . S
C1719 H1698 0.950 . S
C1719 C1718 1.373 . S
C1719 C1735 1.377 . S
C1720 C1718 1.389 . S
C1720 C1721 1.524 . S
C1720 C1734 1.377 . S
C1721 C1720 1.524 . S
C1721 C1722 1.397 . S
C1721 C1726 1.363 . S
C1722 H1699 0.950 . S
C1722 C1721 1.397 . S
C1722 C1723 1.334 . S
C1723 H1700 0.950 . S
C1723 C1722 1.334 . S
C1723 C1724 1.287 . S
C1724 C1723 1.287 . S
C1724 C1725 1.524 . S
C1724 H1743 0.913 . S
C1725 H1701 0.950 . S
C1725 C1724 1.524 . S
C1725 C1726 1.415 . S
C1726 H1702 0.950 . S
C1726 C1721 1.363 . S
C1726 C1725 1.415 . S
C1727 H1703 0.951 . S
C1727 C1728 1.366 . S
C1727 C1729 1.388 . S
C1728 C1727 1.366 . S
C1728 C1732 1.385 . S
C1729 H1704 0.951 . S
C1729 C1727 1.388 . S
C1729 C1730 1.366 . S
C1730 C1729 1.366 . S
C1730 C1731 1.414 . S
C1730 C1733 1.499 . S
C1731 H1705 0.950 . S
C1731 C1730 1.414 . S
C1731 C1732 1.374 . S
C1732 H1706 0.950 . S
C1732 C1728 1.385 . S
C1732 C1731 1.374 . S
C1733 C1730 1.499 . S
C1733 C1734 1.373 . S
C1733 C1735 1.389 . S
C1734 H1707 0.950 . S
C1734 C1720 1.377 . S
C1734 C1733 1.373 . S
C1735 C1719 1.377 . S
C1735 C1733 1.389 . S
C1735 C1736 1.524 . S
C1736 C1735 1.524 . S
C1736 C1737 1.397 . S
C1736 C1741 1.363 . S
C1737 H1708 0.950 . S
C1737 C1736 1.397 . S
C1737 C1738 1.334 . S
C1738 H1709 0.950 . S
C1738 C1737 1.334 . S
C1738 C1739 1.287 . S
C1739 C1738 1.287 . S
C1739 C1740 1.524 . S
C1739 H1742 0.999 . S
C1740 H1710 0.950 . S
C1740 C1739 1.524 . S
C1740 C1741 1.415 . S
C1741 H1711 0.950 . S
C1741 C1736 1.363 . S
C1741 C1740 1.415 . S
H1742 C1739 0.999 . S
H1743 C1724 0.913 . S
H1744 C1762 0.951 . S
H1745 C1764 0.951 . S
H1746 C1766 0.950 . S
H1747 C1767 0.950 . S
H1748 C1769 0.950 1_565 S
H1749 C1772 0.950 . S
H1750 C1773 0.950 . S
H1751 C1775 0.950 . S
H1752 C1776 0.950 . S
H1753 C1777 0.951 . S
H1754 C1779 0.951 . S
H1755 C1781 0.950 . S
H1756 C1782 0.950 . S
H1757 C1784 0.950 . S
H1758 C1787 0.950 . S
H1759 C1788 0.950 . S
H1760 C1790 0.950 . S
H1761 C1791 0.950 . S
C1762 H1744 0.951 . S
C1762 C1763 1.366 . S
C1762 C1764 1.388 . S
C1763 C1762 1.366 . S
C1763 C1767 1.385 . S
C1764 H1745 0.951 . S
C1764 C1762 1.388 . S
C1764 C1765 1.366 . S
C1765 C1764 1.366 . S
C1765 C1766 1.414 . S
C1765 C1768 1.499 . S
C1766 H1746 0.950 . S
C1766 C1765 1.414 . S
C1766 C1767 1.374 . S
C1767 H1747 0.950 . S
C1767 C1763 1.385 . S
C1767 C1766 1.374 . S
C1768 C1765 1.499 . S
C1768 C1769 1.373 . S
C1768 C1770 1.389 . S
C1769 H1748 0.950 1_545 S
C1769 C1768 1.373 . S
C1769 C1785 1.377 1_545 S
C1770 C1768 1.389 . S
C1770 C1771 1.524 . S
C1770 C1784 1.377 . S
C1771 C1770 1.524 . S
C1771 C1772 1.397 . S
C1771 C1776 1.363 . S
C1772 H1749 0.950 . S
C1772 C1771 1.397 . S
C1772 C1773 1.334 . S
C1773 H1750 0.950 . S
C1773 C1772 1.334 . S
C1773 C1774 1.287 . S
C1774 C1773 1.287 . S
C1774 C1775 1.524 . S
C1774 H1793 0.913 . S
C1775 H1751 0.950 . S
C1775 C1774 1.524 . S
C1775 C1776 1.415 . S
C1776 H1752 0.950 . S
C1776 C1771 1.363 . S
C1776 C1775 1.415 . S
C1777 H1753 0.951 . S
C1777 C1778 1.366 . S
C1777 C1779 1.388 . S
C1778 C1777 1.366 . S
C1778 C1782 1.385 1_565 S
C1779 H1754 0.951 . S
C1779 C1777 1.388 . S
C1779 C1780 1.366 1_565 S
C1780 C1779 1.366 1_545 S
C1780 C1781 1.414 . S
C1780 C1783 1.499 . S
C1781 H1755 0.950 . S
C1781 C1780 1.414 . S
C1781 C1782 1.374 . S
C1782 H1756 0.950 . S
C1782 C1778 1.385 1_545 S
C1782 C1781 1.374 . S
C1783 C1780 1.499 . S
C1783 C1784 1.373 . S
C1783 C1785 1.389 1_545 S
C1784 H1757 0.950 . S
C1784 C1770 1.377 . S
C1784 C1783 1.373 . S
C1785 C1769 1.377 1_565 S
C1785 C1783 1.389 1_565 S
C1785 C1786 1.524 . S
C1786 C1785 1.524 . S
C1786 C1787 1.397 . S
C1786 C1791 1.363 . S
C1787 H1758 0.950 . S
C1787 C1786 1.397 . S
C1787 C1788 1.334 . S
C1788 H1759 0.950 . S
C1788 C1787 1.334 . S
C1788 C1789 1.287 . S
C1789 C1788 1.287 . S
C1789 C1790 1.524 . S
C1789 H1792 0.999 . S
C1790 H1760 0.950 . S
C1790 C1789 1.524 . S
C1790 C1791 1.415 . S
C1791 H1761 0.950 . S
C1791 C1786 1.363 . S
C1791 C1790 1.415 . S
H1792 C1789 0.999 . S
H1793 C1774 0.913 . S
H1794 C1812 0.951 . S
H1795 C1814 0.951 . S
H1796 C1816 0.950 . S
H1797 C1817 0.950 . S
H1798 C1819 0.950 . S
H1799 C1822 0.950 . S
H1800 C1823 0.950 . S
H1801 C1825 0.950 . S
H1802 C1826 0.950 . S
H1803 C1827 0.951 . S
H1804 C1829 0.951 . S
H1805 C1831 0.950 . S
H1806 C1832 0.950 . S
H1807 C1834 0.950 . S
H1808 C1837 0.950 . S
H1809 C1838 0.950 . S
H1810 C1840 0.950 . S
H1811 C1841 0.950 . S
C1812 H1794 0.951 . S
C1812 C1813 1.366 . S
C1812 C1814 1.388 . S
C1813 C1812 1.366 . S
C1813 C1817 1.385 . S
C1814 H1795 0.951 . S
C1814 C1812 1.388 . S
C1814 C1815 1.366 . S
C1815 C1814 1.366 . S
C1815 C1816 1.414 . S
C1815 C1818 1.499 . S
C1816 H1796 0.950 . S
C1816 C1815 1.414 . S
C1816 C1817 1.374 . S
C1817 H1797 0.950 . S
C1817 C1813 1.385 . S
C1817 C1816 1.374 . S
C1818 C1815 1.499 . S
C1818 C1819 1.373 . S
C1818 C1820 1.389 . S
C1819 H1798 0.950 . S
C1819 C1818 1.373 . S
C1819 C1835 1.377 . S
C1820 C1818 1.389 . S
C1820 C1821 1.524 . S
C1820 C1834 1.377 . S
C1821 C1820 1.524 . S
C1821 C1822 1.397 . S
C1821 C1826 1.363 . S
C1822 H1799 0.950 . S
C1822 C1821 1.397 . S
C1822 C1823 1.334 . S
C1823 H1800 0.950 . S
C1823 C1822 1.334 . S
C1823 C1824 1.287 . S
C1824 C1823 1.287 . S
C1824 C1825 1.524 . S
C1824 H1843 0.913 . S
C1825 H1801 0.950 . S
C1825 C1824 1.524 . S
C1825 C1826 1.415 . S
C1826 H1802 0.950 . S
C1826 C1821 1.363 . S
C1826 C1825 1.415 . S
C1827 H1803 0.951 . S
C1827 C1828 1.366 . S
C1827 C1829 1.388 . S
C1828 C1827 1.366 . S
C1828 C1832 1.385 . S
C1829 H1804 0.951 . S
C1829 C1827 1.388 . S
C1829 C1830 1.366 . S
C1830 C1829 1.366 . S
C1830 C1831 1.414 . S
C1830 C1833 1.499 . S
C1831 H1805 0.950 . S
C1831 C1830 1.414 . S
C1831 C1832 1.374 . S
C1832 H1806 0.950 . S
C1832 C1828 1.385 . S
C1832 C1831 1.374 . S
C1833 C1830 1.499 . S
C1833 C1834 1.373 . S
C1833 C1835 1.389 . S
C1834 H1807 0.950 . S
C1834 C1820 1.377 . S
C1834 C1833 1.373 . S
C1835 C1819 1.377 . S
C1835 C1833 1.389 . S
C1835 C1836 1.524 . S
C1836 C1835 1.524 . S
C1836 C1837 1.397 . S
C1836 C1841 1.363 . S
C1837 H1808 0.950 . S
C1837 C1836 1.397 . S
C1837 C1838 1.334 . S
C1838 H1809 0.950 . S
C1838 C1837 1.334 . S
C1838 C1839 1.287 . S
C1839 C1838 1.287 . S
C1839 C1840 1.524 . S
C1839 H1842 0.999 . S
C1840 H1810 0.950 . S
C1840 C1839 1.524 . S
C1840 C1841 1.415 . S
C1841 H1811 0.950 . S
C1841 C1836 1.363 . S
C1841 C1840 1.415 . S
H1842 C1839 0.999 . S
H1843 C1824 0.913 . S
H1844 C1862 0.951 . S
H1845 C1864 0.951 . S
H1846 C1866 0.950 1_545 S
H1847 C1867 0.950 . S
H1848 C1869 0.950 . S
H1849 C1872 0.950 . S
H1850 C1873 0.950 . S
H1851 C1875 0.950 . S
H1852 C1876 0.950 . S
H1853 C1877 0.951 . S
H1854 C1879 0.951 . S
H1855 C1881 0.950 . S
H1856 C1882 0.950 . S
H1857 C1884 0.950 . S
H1858 C1887 0.950 . S
H1859 C1888 0.950 . S
H1860 C1890 0.950 . S
H1861 C1891 0.950 . S
C1862 H1844 0.951 . S
C1862 C1863 1.366 . S
C1862 C1864 1.388 . S
C1863 C1862 1.366 . S
C1863 C1867 1.385 . S
C1864 H1845 0.951 . S
C1864 C1862 1.388 . S
C1864 C1865 1.366 . S
C1865 C1864 1.366 . S
C1865 C1866 1.414 . S
C1865 C1868 1.499 . S
C1866 H1846 0.950 1_565 S
C1866 C1865 1.414 . S
C1866 C1867 1.374 . S
C1867 H1847 0.950 . S
C1867 C1863 1.385 . S
C1867 C1866 1.374 . S
C1868 C1865 1.499 . S
C1868 C1869 1.373 1_565 S
C1868 C1870 1.389 . S
C1869 H1848 0.950 . S
C1869 C1868 1.373 1_545 S
C1869 C1885 1.377 . S
C1870 C1868 1.389 . S
C1870 C1871 1.524 . S
C1870 C1884 1.377 . S
C1871 C1870 1.524 . S
C1871 C1872 1.397 . S
C1871 C1876 1.363 . S
C1872 H1849 0.950 . S
C1872 C1871 1.397 . S
C1872 C1873 1.334 . S
C1873 H1850 0.950 . S
C1873 C1872 1.334 . S
C1873 C1874 1.287 . S
C1874 C1873 1.287 . S
C1874 C1875 1.524 . S
C1874 H1893 0.913 . S
C1875 H1851 0.950 . S
C1875 C1874 1.524 . S
C1875 C1876 1.415 . S
C1876 H1852 0.950 . S
C1876 C1871 1.363 . S
C1876 C1875 1.415 . S
C1877 H1853 0.951 . S
C1877 C1878 1.366 . S
C1877 C1879 1.388 . S
C1878 C1877 1.366 . S
C1878 C1882 1.385 . S
C1879 H1854 0.951 . S
C1879 C1877 1.388 . S
C1879 C1880 1.366 . S
C1880 C1879 1.366 . S
C1880 C1881 1.414 . S
C1880 C1883 1.499 . S
C1881 H1855 0.950 . S
C1881 C1880 1.414 . S
C1881 C1882 1.374 . S
C1882 H1856 0.950 . S
C1882 C1878 1.385 . S
C1882 C1881 1.374 . S
C1883 C1880 1.499 . S
C1883 C1884 1.373 1_545 S
C1883 C1885 1.389 . S
C1884 H1857 0.950 . S
C1884 C1870 1.377 . S
C1884 C1883 1.373 1_565 S
C1885 C1869 1.377 . S
C1885 C1883 1.389 . S
C1885 C1886 1.524 . S
C1886 C1885 1.524 . S
C1886 C1887 1.397 . S
C1886 C1891 1.363 . S
C1887 H1858 0.950 . S
C1887 C1886 1.397 . S
C1887 C1888 1.334 . S
C1888 H1859 0.950 . S
C1888 C1887 1.334 . S
C1888 C1889 1.287 . S
C1889 C1888 1.287 . S
C1889 C1890 1.524 . S
C1889 H1892 0.999 . S
C1890 H1860 0.950 . S
C1890 C1889 1.524 . S
C1890 C1891 1.415 . S
C1891 H1861 0.950 . S
C1891 C1886 1.363 . S
C1891 C1890 1.415 . S
H1892 C1889 0.999 . S
H1893 C1874 0.913 . S
H1894 C1912 0.951 . S
H1895 C1914 0.951 . S
H1896 C1916 0.950 . S
H1897 C1917 0.950 . S
H1898 C1919 0.950 . S
H1899 C1922 0.950 . S
H1900 C1923 0.950 . S
H1901 C1925 0.950 . S
H1902 C1926 0.950 . S
H1903 C1927 0.951 . S
H1904 C1929 0.951 . S
H1905 C1931 0.950 . S
H1906 C1932 0.950 . S
H1907 C1934 0.950 . S
H1908 C1937 0.950 . S
H1909 C1938 0.950 . S
H1910 C1940 0.950 . S
H1911 C1941 0.950 . S
C1912 H1894 0.951 . S
C1912 C1913 1.366 . S
C1912 C1914 1.388 . S
C1913 C1912 1.366 . S
C1913 C1917 1.385 . S
C1914 H1895 0.951 . S
C1914 C1912 1.388 . S
C1914 C1915 1.366 . S
C1915 C1914 1.366 . S
C1915 C1916 1.414 . S
C1915 C1918 1.499 . S
C1916 H1896 0.950 . S
C1916 C1915 1.414 . S
C1916 C1917 1.374 . S
C1917 H1897 0.950 . S
C1917 C1913 1.385 . S
C1917 C1916 1.374 . S
C1918 C1915 1.499 . S
C1918 C1919 1.373 . S
C1918 C1920 1.389 . S
C1919 H1898 0.950 . S
C1919 C1918 1.373 . S
C1919 C1935 1.377 . S
C1920 C1918 1.389 . S
C1920 C1921 1.524 . S
C1920 C1934 1.377 . S
C1921 C1920 1.524 . S
C1921 C1922 1.397 . S
C1921 C1926 1.363 . S
C1922 H1899 0.950 . S
C1922 C1921 1.397 . S
C1922 C1923 1.334 . S
C1923 H1900 0.950 . S
C1923 C1922 1.334 . S
C1923 C1924 1.287 . S
C1924 C1923 1.287 . S
C1924 C1925 1.524 . S
C1924 H1943 0.913 . S
C1925 H1901 0.950 . S
C1925 C1924 1.524 . S
C1925 C1926 1.415 . S
C1926 H1902 0.950 . S
C1926 C1921 1.363 . S
C1926 C1925 1.415 . S
C1927 H1903 0.951 . S
C1927 C1928 1.366 . S
C1927 C1929 1.388 . S
C1928 C1927 1.366 . S
C1928 C1932 1.385 . S
C1929 H1904 0.951 . S
C1929 C1927 1.388 . S
C1929 C1930 1.366 . S
C1930 C1929 1.366 . S
C1930 C1931 1.414 . S
C1930 C1933 1.499 . S
C1931 H1905 0.950 . S
C1931 C1930 1.414 . S
C1931 C1932 1.374 . S
C1932 H1906 0.950 . S
C1932 C1928 1.385 . S
C1932 C1931 1.374 . S
C1933 C1930 1.499 . S
C1933 C1934 1.373 . S
C1933 C1935 1.389 . S
C1934 H1907 0.950 . S
C1934 C1920 1.377 . S
C1934 C1933 1.373 . S
C1935 C1919 1.377 . S
C1935 C1933 1.389 . S
C1935 C1936 1.524 . S
C1936 C1935 1.524 . S
C1936 C1937 1.397 . S
C1936 C1941 1.363 . S
C1937 H1908 0.950 . S
C1937 C1936 1.397 . S
C1937 C1938 1.334 . S
C1938 H1909 0.950 . S
C1938 C1937 1.334 . S
C1938 C1939 1.287 . S
C1939 C1938 1.287 . S
C1939 C1940 1.524 . S
C1939 H1942 0.999 . S
C1940 H1910 0.950 . S
C1940 C1939 1.524 . S
C1940 C1941 1.415 . S
C1941 H1911 0.950 . S
C1941 C1936 1.363 . S
C1941 C1940 1.415 . S
H1942 C1939 0.999 . S
H1943 C1924 0.913 . S
H1944 C1962 0.951 . S
H1945 C1964 0.951 . S
H1946 C1966 0.950 . S
H1947 C1967 0.950 . S
H1948 C1969 0.950 . S
H1949 C1972 0.950 . S
H1950 C1973 0.950 . S
H1951 C1975 0.950 . S
H1952 C1976 0.950 . S
H1953 C1977 0.951 . S
H1954 C1979 0.951 . S
H1955 C1981 0.950 . S
H1956 C1982 0.950 . S
H1957 C1984 0.950 . S
H1958 C1987 0.950 . S
H1959 C1988 0.950 . S
H1960 C1990 0.950 . S
H1961 C1991 0.950 . S
C1962 H1944 0.951 . S
C1962 C1963 1.366 . S
C1962 C1964 1.388 . S
C1963 C1962 1.366 . S
C1963 C1967 1.385 . S
C1964 H1945 0.951 . S
C1964 C1962 1.388 . S
C1964 C1965 1.366 . S
C1965 C1964 1.366 . S
C1965 C1966 1.414 . S
C1965 C1968 1.499 . S
C1966 H1946 0.950 . S
C1966 C1965 1.414 . S
C1966 C1967 1.374 . S
C1967 H1947 0.950 . S
C1967 C1963 1.385 . S
C1967 C1966 1.374 . S
C1968 C1965 1.499 . S
C1968 C1969 1.373 . S
C1968 C1970 1.389 . S
C1969 H1948 0.950 . S
C1969 C1968 1.373 . S
C1969 C1985 1.377 . S
C1970 C1968 1.389 . S
C1970 C1971 1.524 . S
C1970 C1984 1.377 . S
C1971 C1970 1.524 . S
C1971 C1972 1.397 . S
C1971 C1976 1.363 . S
C1972 H1949 0.950 . S
C1972 C1971 1.397 . S
C1972 C1973 1.334 . S
C1973 H1950 0.950 . S
C1973 C1972 1.334 . S
C1973 C1974 1.287 . S
C1974 C1973 1.287 . S
C1974 C1975 1.524 . S
C1974 H1993 0.913 . S
C1975 H1951 0.950 . S
C1975 C1974 1.524 . S
C1975 C1976 1.415 . S
C1976 H1952 0.950 . S
C1976 C1971 1.363 . S
C1976 C1975 1.415 . S
C1977 H1953 0.951 . S
C1977 C1978 1.366 . S
C1977 C1979 1.388 . S
C1978 C1977 1.366 . S
C1978 C1982 1.385 . S
C1979 H1954 0.951 . S
C1979 C1977 1.388 . S
C1979 C1980 1.366 . S
C1980 C1979 1.366 . S
C1980 C1981 1.414 . S
C1980 C1983 1.499 . S
C1981 H1955 0.950 . S
C1981 C1980 1.414 . S
C1981 C1982 1.374 . S
C1982 H1956 0.950 . S
C1982 C1978 1.385 . S
C1982 C1981 1.374 . S
C1983 C1980 1.499 . S
C1983 C1984 1.373 . S
C1983 C1985 1.389 . S
C1984 H1957 0.950 . S
C1984 C1970 1.377 . S
C1984 C1983 1.373 . S
C1985 C1969 1.377 . S
C1985 C1983 1.389 . S
C1985 C1986 1.524 . S
C1986 C1985 1.524 . S
C1986 C1987 1.397 . S
C1986 C1991 1.363 . S
C1987 H1958 0.950 . S
C1987 C1986 1.397 . S
C1987 C1988 1.334 . S
C1988 H1959 0.950 . S
C1988 C1987 1.334 . S
C1988 C1989 1.287 . S
C1989 C1988 1.287 . S
C1989 C1990 1.524 . S
C1989 H1992 0.999 . S
C1990 H1960 0.950 . S
C1990 C1989 1.524 . S
C1990 C1991 1.415 . S
C1991 H1961 0.950 . S
C1991 C1986 1.363 . S
C1991 C1990 1.415 . S
H1992 C1989 0.999 . S
H1993 C1974 0.913 . S
H1994 C2012 0.951 . S
H1995 C2014 0.951 . S
H1996 C2016 0.950 . S
H1997 C2017 0.950 . S
H1998 C2019 0.950 . S
H1999 C2022 0.950 . S
H2000 C2023 0.950 . S
H2001 C2025 0.950 . S
H2002 C2026 0.950 . S
H2003 C2027 0.951 . S
H2004 C2029 0.951 . S
H2005 C2031 0.950 . S
H2006 C2032 0.950 . S
H2007 C2034 0.950 . S
H2008 C2037 0.950 . S
H2009 C2038 0.950 . S
H2010 C2040 0.950 . S
H2011 C2041 0.950 . S
C2012 H1994 0.951 . S
C2012 C2013 1.366 . S
C2012 C2014 1.388 1_545 S
C2013 C2012 1.366 . S
C2013 C2017 1.385 . S
C2014 H1995 0.951 . S
C2014 C2012 1.388 1_565 S
C2014 C2015 1.366 . S
C2015 C2014 1.366 . S
C2015 C2016 1.414 1_565 S
C2015 C2018 1.499 . S
C2016 H1996 0.950 . S
C2016 C2015 1.414 1_545 S
C2016 C2017 1.374 . S
C2017 H1997 0.950 . S
C2017 C2013 1.385 . S
C2017 C2016 1.374 . S
C2018 C2015 1.499 . S
C2018 C2019 1.373 . S
C2018 C2020 1.389 . S
C2019 H1998 0.950 . S
C2019 C2018 1.373 . S
C2019 C2035 1.377 . S
C2020 C2018 1.389 . S
C2020 C2021 1.524 1_565 S
C2020 C2034 1.377 . S
C2021 C2020 1.524 1_545 S
C2021 C2022 1.397 . S
C2021 C2026 1.363 . S
C2022 H1999 0.950 . S
C2022 C2021 1.397 . S
C2022 C2023 1.334 . S
C2023 H2000 0.950 . S
C2023 C2022 1.334 . S
C2023 C2024 1.287 . S
C2024 C2023 1.287 . S
C2024 C2025 1.524 . S
C2024 H2043 0.913 . S
C2025 H2001 0.950 . S
C2025 C2024 1.524 . S
C2025 C2026 1.415 . S
C2026 H2002 0.950 . S
C2026 C2021 1.363 . S
C2026 C2025 1.415 . S
C2027 H2003 0.951 . S
C2027 C2028 1.366 . S
C2027 C2029 1.388 . S
C2028 C2027 1.366 . S
C2028 C2032 1.385 . S
C2029 H2004 0.951 . S
C2029 C2027 1.388 . S
C2029 C2030 1.366 . S
C2030 C2029 1.366 . S
C2030 C2031 1.414 . S
C2030 C2033 1.499 . S
C2031 H2005 0.950 . S
C2031 C2030 1.414 . S
C2031 C2032 1.374 . S
C2032 H2006 0.950 . S
C2032 C2028 1.385 . S
C2032 C2031 1.374 . S
C2033 C2030 1.499 . S
C2033 C2034 1.373 . S
C2033 C2035 1.389 . S
C2034 H2007 0.950 . S
C2034 C2020 1.377 . S
C2034 C2033 1.373 . S
C2035 C2019 1.377 . S
C2035 C2033 1.389 . S
C2035 C2036 1.524 . S
C2036 C2035 1.524 . S
C2036 C2037 1.397 . S
C2036 C2041 1.363 . S
C2037 H2008 0.950 . S
C2037 C2036 1.397 . S
C2037 C2038 1.334 . S
C2038 H2009 0.950 . S
C2038 C2037 1.334 . S
C2038 C2039 1.287 . S
C2039 C2038 1.287 . S
C2039 C2040 1.524 . S
C2039 H2042 0.999 . S
C2040 H2010 0.950 . S
C2040 C2039 1.524 . S
C2040 C2041 1.415 . S
C2041 H2011 0.950 . S
C2041 C2036 1.363 . S
C2041 C2040 1.415 . S
H2042 C2039 0.999 . S
H2043 C2024 0.913 . S
H2044 C2062 0.951 . S
H2045 C2064 0.951 . S
H2046 C2066 0.950 . S
H2047 C2067 0.950 . S
H2048 C2069 0.950 . S
H2049 C2072 0.950 . S
H2050 C2073 0.950 . S
H2051 C2075 0.950 . S
H2052 C2076 0.950 . S
H2053 C2077 0.951 . S
H2054 C2079 0.951 . S
H2055 C2081 0.950 . S
H2056 C2082 0.950 . S
H2057 C2084 0.950 . S
H2058 C2087 0.950 . S
H2059 C2088 0.950 . S
H2060 C2090 0.950 . S
H2061 C2091 0.950 . S
C2062 H2044 0.951 . S
C2062 C2063 1.366 . S
C2062 C2064 1.388 . S
C2063 C2062 1.366 . S
C2063 C2067 1.385 . S
C2064 H2045 0.951 . S
C2064 C2062 1.388 . S
C2064 C2065 1.366 . S
C2065 C2064 1.366 . S
C2065 C2066 1.414 . S
C2065 C2068 1.499 . S
C2066 H2046 0.950 . S
C2066 C2065 1.414 . S
C2066 C2067 1.374 . S
C2067 H2047 0.950 . S
C2067 C2063 1.385 . S
C2067 C2066 1.374 . S
C2068 C2065 1.499 . S
C2068 C2069 1.373 . S
C2068 C2070 1.389 . S
C2069 H2048 0.950 . S
C2069 C2068 1.373 . S
C2069 C2085 1.377 . S
C2070 C2068 1.389 . S
C2070 C2071 1.524 . S
C2070 C2084 1.377 . S
C2071 C2070 1.524 . S
C2071 C2072 1.397 . S
C2071 C2076 1.363 . S
C2072 H2049 0.950 . S
C2072 C2071 1.397 . S
C2072 C2073 1.334 . S
C2073 H2050 0.950 . S
C2073 C2072 1.334 . S
C2073 C2074 1.287 . S
C2074 C2073 1.287 . S
C2074 C2075 1.524 . S
C2074 H2093 0.913 . S
C2075 H2051 0.950 . S
C2075 C2074 1.524 . S
C2075 C2076 1.415 . S
C2076 H2052 0.950 . S
C2076 C2071 1.363 . S
C2076 C2075 1.415 . S
C2077 H2053 0.951 . S
C2077 C2078 1.366 . S
C2077 C2079 1.388 . S
C2078 C2077 1.366 . S
C2078 C2082 1.385 . S
C2079 H2054 0.951 . S
C2079 C2077 1.388 . S
C2079 C2080 1.366 . S
C2080 C2079 1.366 . S
C2080 C2081 1.414 . S
C2080 C2083 1.499 . S
C2081 H2055 0.950 . S
C2081 C2080 1.414 . S
C2081 C2082 1.374 . S
C2082 H2056 0.950 . S
C2082 C2078 1.385 . S
C2082 C2081 1.374 . S
C2083 C2080 1.499 . S
C2083 C2084 1.373 . S
C2083 C2085 1.389 . S
C2084 H2057 0.950 . S
C2084 C2070 1.377 . S
C2084 C2083 1.373 . S
C2085 C2069 1.377 . S
C2085 C2083 1.389 . S
C2085 C2086 1.524 . S
C2086 C2085 1.524 . S
C2086 C2087 1.397 . S
C2086 C2091 1.363 . S
C2087 H2058 0.950 . S
C2087 C2086 1.397 . S
C2087 C2088 1.334 . S
C2088 H2059 0.950 . S
C2088 C2087 1.334 . S
C2088 C2089 1.287 . S
C2089 C2088 1.287 . S
C2089 C2090 1.524 . S
C2089 H2092 0.999 . S
C2090 H2060 0.950 . S
C2090 C2089 1.524 . S
C2090 C2091 1.415 . S
C2091 H2061 0.950 . S
C2091 C2086 1.363 . S
C2091 C2090 1.415 . S
H2092 C2089 0.999 . S
H2093 C2074 0.913 . S
H2094 C2112 0.951 . S
H2095 C2114 0.951 . S
H2096 C2116 0.950 . S
H2097 C2117 0.950 . S
H2098 C2119 0.950 . S
H2099 C2122 0.950 1_565 S
H2100 C2123 0.950 . S
H2101 C2125 0.950 . S
H2102 C2126 0.950 . S
H2103 C2127 0.951 . S
H2104 C2129 0.951 . S
H2105 C2131 0.950 1_545 S
H2106 C2132 0.950 1_545 S
H2107 C2134 0.950 . S
H2108 C2137 0.950 . S
H2109 C2138 0.950 . S
H2110 C2140 0.950 . S
H2111 C2141 0.950 . S
C2112 H2094 0.951 . S
C2112 C2113 1.366 . S
C2112 C2114 1.388 . S
C2113 C2112 1.366 . S
C2113 C2117 1.385 1_545 S
C2114 H2095 0.951 . S
C2114 C2112 1.388 . S
C2114 C2115 1.366 . S
C2115 C2114 1.366 . S
C2115 C2116 1.414 1_545 S
C2115 C2118 1.499 . S
C2116 H2096 0.950 . S
C2116 C2115 1.414 1_565 S
C2116 C2117 1.374 . S
C2117 H2097 0.950 . S
C2117 C2113 1.385 1_565 S
C2117 C2116 1.374 . S
C2118 C2115 1.499 . S
C2118 C2119 1.372 1_545 S
C2118 C2120 1.390 . S
C2119 H2098 0.950 . S
C2119 C2118 1.372 1_565 S
C2119 C2135 1.377 . S
C2120 C2118 1.390 . S
C2120 C2121 1.524 . S
C2120 C2134 1.377 . S
C2121 C2120 1.524 . S
C2121 C2122 1.397 . S
C2121 C2126 1.363 . S
C2122 H2099 0.950 1_545 S
C2122 C2121 1.397 . S
C2122 C2123 1.334 . S
C2123 H2100 0.950 . S
C2123 C2122 1.334 . S
C2123 C2124 1.287 . S
C2124 C2123 1.287 . S
C2124 C2125 1.524 . S
C2124 H2143 0.913 . S
C2125 H2101 0.950 . S
C2125 C2124 1.524 . S
C2125 C2126 1.415 . S
C2126 H2102 0.950 . S
C2126 C2121 1.363 . S
C2126 C2125 1.415 . S
C2127 H2103 0.951 . S
C2127 C2128 1.366 . S
C2127 C2129 1.388 . S
C2128 C2127 1.366 . S
C2128 C2132 1.385 . S
C2129 H2104 0.951 . S
C2129 C2127 1.388 . S
C2129 C2130 1.366 . S
C2130 C2129 1.366 . S
C2130 C2131 1.414 . S
C2130 C2133 1.499 . S
C2131 H2105 0.950 1_565 S
C2131 C2130 1.414 . S
C2131 C2132 1.374 . S
C2132 H2106 0.950 1_565 S
C2132 C2128 1.385 . S
C2132 C2131 1.374 . S
C2133 C2130 1.499 . S
C2133 C2134 1.373 1_565 S
C2133 C2135 1.389 . S
C2134 H2107 0.950 . S
C2134 C2120 1.377 . S
C2134 C2133 1.373 1_545 S
C2135 C2119 1.377 . S
C2135 C2133 1.389 . S
C2135 C2136 1.524 . S
C2136 C2135 1.524 . S
C2136 C2137 1.397 . S
C2136 C2141 1.363 . S
C2137 H2108 0.950 . S
C2137 C2136 1.397 . S
C2137 C2138 1.334 . S
C2138 H2109 0.950 . S
C2138 C2137 1.334 . S
C2138 C2139 1.287 . S
C2139 C2138 1.287 . S
C2139 C2140 1.524 . S
C2139 H2142 0.999 . S
C2140 H2110 0.950 . S
C2140 C2139 1.524 . S
C2140 C2141 1.415 . S
C2141 H2111 0.950 . S
C2141 C2136 1.363 . S
C2141 C2140 1.415 . S
H2142 C2139 0.999 . S
H2143 C2124 0.913 . S
H2144 C2162 0.951 . S
H2145 C2164 0.951 . S
H2146 C2166 0.950 . S
H2147 C2167 0.950 . S
H2148 C2169 0.950 . S
H2149 C2172 0.950 . S
H2150 C2173 0.950 . S
H2151 C2175 0.950 . S
H2152 C2176 0.950 . S
H2153 C2177 0.951 . S
H2154 C2179 0.951 . S
H2155 C2181 0.950 . S
H2156 C2182 0.950 . S
H2157 C2184 0.950 . S
H2158 C2187 0.950 . S
H2159 C2188 0.950 . S
H2160 C2190 0.950 . S
H2161 C2191 0.950 . S
C2162 H2144 0.951 . S
C2162 C2163 1.366 . S
C2162 C2164 1.388 . S
C2163 C2162 1.366 . S
C2163 C2167 1.385 . S
C2164 H2145 0.951 . S
C2164 C2162 1.388 . S
C2164 C2165 1.366 . S
C2165 C2164 1.366 . S
C2165 C2166 1.414 . S
C2165 C2168 1.499 . S
C2166 H2146 0.950 . S
C2166 C2165 1.414 . S
C2166 C2167 1.374 . S
C2167 H2147 0.950 . S
C2167 C2163 1.385 . S
C2167 C2166 1.374 . S
C2168 C2165 1.499 . S
C2168 C2169 1.373 . S
C2168 C2170 1.389 . S
C2169 H2148 0.950 . S
C2169 C2168 1.373 . S
C2169 C2185 1.377 . S
C2170 C2168 1.389 . S
C2170 C2171 1.524 . S
C2170 C2184 1.377 . S
C2171 C2170 1.524 . S
C2171 C2172 1.397 . S
C2171 C2176 1.363 . S
C2172 H2149 0.950 . S
C2172 C2171 1.397 . S
C2172 C2173 1.334 . S
C2173 H2150 0.950 . S
C2173 C2172 1.334 . S
C2173 C2174 1.287 . S
C2174 C2173 1.287 . S
C2174 C2175 1.524 . S
C2174 H2193 0.913 . S
C2175 H2151 0.950 . S
C2175 C2174 1.524 . S
C2175 C2176 1.415 . S
C2176 H2152 0.950 . S
C2176 C2171 1.363 . S
C2176 C2175 1.415 . S
C2177 H2153 0.951 . S
C2177 C2178 1.366 . S
C2177 C2179 1.388 . S
C2178 C2177 1.366 . S
C2178 C2182 1.385 . S
C2179 H2154 0.951 . S
C2179 C2177 1.388 . S
C2179 C2180 1.366 . S
C2180 C2179 1.366 . S
C2180 C2181 1.414 . S
C2180 C2183 1.499 . S
C2181 H2155 0.950 . S
C2181 C2180 1.414 . S
C2181 C2182 1.374 . S
C2182 H2156 0.950 . S
C2182 C2178 1.385 . S
C2182 C2181 1.374 . S
C2183 C2180 1.499 . S
C2183 C2184 1.373 . S
C2183 C2185 1.389 . S
C2184 H2157 0.950 . S
C2184 C2170 1.377 . S
C2184 C2183 1.373 . S
C2185 C2169 1.377 . S
C2185 C2183 1.389 . S
C2185 C2186 1.524 . S
C2186 C2185 1.524 . S
C2186 C2187 1.397 . S
C2186 C2191 1.363 . S
C2187 H2158 0.950 . S
C2187 C2186 1.397 . S
C2187 C2188 1.334 . S
C2188 H2159 0.950 . S
C2188 C2187 1.334 . S
C2188 C2189 1.287 . S
C2189 C2188 1.287 . S
C2189 C2190 1.524 . S
C2189 H2192 0.999 . S
C2190 H2160 0.950 . S
C2190 C2189 1.524 . S
C2190 C2191 1.415 . S
C2191 H2161 0.950 . S
C2191 C2186 1.363 . S
C2191 C2190 1.415 . S
H2192 C2189 0.999 . S
H2193 C2174 0.913 . S
H2194 C2212 0.951 . S
H2195 C2214 0.951 . S
H2196 C2216 0.950 . S
H2197 C2217 0.950 . S
H2198 C2219 0.950 . S
H2199 C2222 0.950 . S
H2200 C2223 0.950 . S
H2201 C2225 0.950 . S
H2202 C2226 0.950 . S
H2203 C2227 0.951 . S
H2204 C2229 0.951 . S
H2205 C2231 0.950 . S
H2206 C2232 0.950 . S
H2207 C2234 0.950 . S
H2208 C2237 0.950 . S
H2209 C2238 0.950 . S
H2210 C2240 0.950 . S
H2211 C2241 0.950 . S
C2212 H2194 0.951 . S
C2212 C2213 1.366 . S
C2212 C2214 1.388 . S
C2213 C2212 1.366 . S
C2213 C2217 1.385 . S
C2214 H2195 0.951 . S
C2214 C2212 1.388 . S
C2214 C2215 1.366 . S
C2215 C2214 1.366 . S
C2215 C2216 1.414 . S
C2215 C2218 1.499 . S
C2216 H2196 0.950 . S
C2216 C2215 1.414 . S
C2216 C2217 1.374 . S
C2217 H2197 0.950 . S
C2217 C2213 1.385 . S
C2217 C2216 1.374 . S
C2218 C2215 1.499 . S
C2218 C2219 1.373 . S
C2218 C2220 1.389 . S
C2219 H2198 0.950 . S
C2219 C2218 1.373 . S
C2219 C2235 1.377 . S
C2220 C2218 1.389 . S
C2220 C2221 1.524 . S
C2220 C2234 1.377 . S
C2221 C2220 1.524 . S
C2221 C2222 1.397 . S
C2221 C2226 1.363 . S
C2222 H2199 0.950 . S
C2222 C2221 1.397 . S
C2222 C2223 1.334 . S
C2223 H2200 0.950 . S
C2223 C2222 1.334 . S
C2223 C2224 1.287 . S
C2224 C2223 1.287 . S
C2224 C2225 1.524 . S
C2224 H2243 0.913 . S
C2225 H2201 0.950 . S
C2225 C2224 1.524 . S
C2225 C2226 1.415 . S
C2226 H2202 0.950 . S
C2226 C2221 1.363 . S
C2226 C2225 1.415 . S
C2227 H2203 0.951 . S
C2227 C2228 1.366 . S
C2227 C2229 1.388 . S
C2228 C2227 1.366 . S
C2228 C2232 1.385 . S
C2229 H2204 0.951 . S
C2229 C2227 1.388 . S
C2229 C2230 1.366 . S
C2230 C2229 1.366 . S
C2230 C2231 1.414 . S
C2230 C2233 1.499 . S
C2231 H2205 0.950 . S
C2231 C2230 1.414 . S
C2231 C2232 1.374 . S
C2232 H2206 0.950 . S
C2232 C2228 1.385 . S
C2232 C2231 1.374 . S
C2233 C2230 1.499 . S
C2233 C2234 1.373 . S
C2233 C2235 1.389 . S
C2234 H2207 0.950 . S
C2234 C2220 1.377 . S
C2234 C2233 1.373 . S
C2235 C2219 1.377 . S
C2235 C2233 1.389 . S
C2235 C2236 1.524 . S
C2236 C2235 1.524 . S
C2236 C2237 1.397 . S
C2236 C2241 1.363 . S
C2237 H2208 0.950 . S
C2237 C2236 1.397 . S
C2237 C2238 1.334 . S
C2238 H2209 0.950 . S
C2238 C2237 1.334 . S
C2238 C2239 1.287 . S
C2239 C2238 1.287 . S
C2239 C2240 1.524 . S
C2239 H2242 0.999 . S
C2240 H2210 0.950 . S
C2240 C2239 1.524 . S
C2240 C2241 1.415 . S
C2241 H2211 0.950 . S
C2241 C2236 1.363 . S
C2241 C2240 1.415 . S
H2242 C2239 0.999 . S
H2243 C2224 0.913 . S
H2244 C2262 0.951 . S
H2245 C2264 0.951 . S
H2246 C2266 0.950 . S
H2247 C2267 0.950 . S
H2248 C2269 0.950 . S
H2249 C2272 0.950 . S
H2250 C2273 0.950 . S
H2251 C2275 0.950 . S
H2252 C2276 0.950 . S
H2253 C2277 0.951 . S
H2254 C2279 0.951 . S
H2255 C2281 0.950 . S
H2256 C2282 0.950 . S
H2257 C2284 0.950 . S
H2258 C2287 0.950 . S
H2259 C2288 0.950 . S
H2260 C2290 0.950 . S
H2261 C2291 0.950 . S
C2262 H2244 0.951 . S
C2262 C2263 1.366 . S
C2262 C2264 1.388 . S
C2263 C2262 1.366 . S
C2263 C2267 1.385 . S
C2264 H2245 0.951 . S
C2264 C2262 1.388 . S
C2264 C2265 1.366 . S
C2265 C2264 1.366 . S
C2265 C2266 1.414 . S
C2265 C2268 1.499 . S
C2266 H2246 0.950 . S
C2266 C2265 1.414 . S
C2266 C2267 1.374 . S
C2267 H2247 0.950 . S
C2267 C2263 1.385 . S
C2267 C2266 1.374 . S
C2268 C2265 1.499 . S
C2268 C2269 1.373 . S
C2268 C2270 1.389 . S
C2269 H2248 0.950 . S
C2269 C2268 1.373 . S
C2269 C2285 1.377 . S
C2270 C2268 1.389 . S
C2270 C2271 1.524 . S
C2270 C2284 1.377 . S
C2271 C2270 1.524 . S
C2271 C2272 1.397 . S
C2271 C2276 1.363 . S
C2272 H2249 0.950 . S
C2272 C2271 1.397 . S
C2272 C2273 1.334 . S
C2273 H2250 0.950 . S
C2273 C2272 1.334 . S
C2273 C2274 1.287 . S
C2274 C2273 1.287 . S
C2274 C2275 1.524 . S
C2274 H2293 0.913 . S
C2275 H2251 0.950 . S
C2275 C2274 1.524 . S
C2275 C2276 1.415 . S
C2276 H2252 0.950 . S
C2276 C2271 1.363 . S
C2276 C2275 1.415 . S
C2277 H2253 0.951 . S
C2277 C2278 1.366 . S
C2277 C2279 1.388 . S
C2278 C2277 1.366 . S
C2278 C2282 1.385 . S
C2279 H2254 0.951 . S
C2279 C2277 1.388 . S
C2279 C2280 1.366 . S
C2280 C2279 1.366 . S
C2280 C2281 1.414 . S
C2280 C2283 1.499 . S
C2281 H2255 0.950 . S
C2281 C2280 1.414 . S
C2281 C2282 1.374 . S
C2282 H2256 0.950 . S
C2282 C2278 1.385 . S
C2282 C2281 1.374 . S
C2283 C2280 1.499 . S
C2283 C2284 1.373 . S
C2283 C2285 1.389 . S
C2284 H2257 0.950 . S
C2284 C2270 1.377 . S
C2284 C2283 1.373 . S
C2285 C2269 1.377 . S
C2285 C2283 1.389 . S
C2285 C2286 1.524 . S
C2286 C2285 1.524 . S
C2286 C2287 1.397 . S
C2286 C2291 1.363 . S
C2287 H2258 0.950 . S
C2287 C2286 1.397 . S
C2287 C2288 1.334 . S
C2288 H2259 0.950 . S
C2288 C2287 1.334 . S
C2288 C2289 1.287 . S
C2289 C2288 1.287 . S
C2289 C2290 1.524 . S
C2289 H2292 0.999 . S
C2290 H2260 0.950 . S
C2290 C2289 1.524 . S
C2290 C2291 1.415 . S
C2291 H2261 0.950 . S
C2291 C2286 1.363 . S
C2291 C2290 1.415 . S
H2292 C2289 0.999 . S
H2293 C2274 0.913 . S
H2294 C2312 0.951 . S
H2295 C2314 0.951 . S
H2296 C2316 0.950 . S
H2297 C2317 0.950 . S
H2298 C2319 0.950 . S
H2299 C2322 0.950 . S
H2300 C2323 0.950 . S
H2301 C2325 0.950 . S
H2302 C2326 0.950 . S
H2303 C2327 0.951 . S
H2304 C2329 0.951 . S
H2305 C2331 0.950 . S
H2306 C2332 0.950 . S
H2307 C2334 0.950 . S
H2308 C2337 0.950 . S
H2309 C2338 0.950 . S
H2310 C2340 0.950 . S
H2311 C2341 0.950 . S
C2312 H2294 0.951 . S
C2312 C2313 1.366 . S
C2312 C2314 1.388 . S
C2313 C2312 1.366 . S
C2313 C2317 1.385 . S
C2314 H2295 0.951 . S
C2314 C2312 1.388 . S
C2314 C2315 1.366 . S
C2315 C2314 1.366 . S
C2315 C2316 1.414 . S
C2315 C2318 1.499 . S
C2316 H2296 0.950 . S
C2316 C2315 1.414 . S
C2316 C2317 1.374 . S
C2317 H2297 0.950 . S
C2317 C2313 1.385 . S
C2317 C2316 1.374 . S
C2318 C2315 1.499 . S
C2318 C2319 1.373 . S
C2318 C2320 1.389 . S
C2319 H2298 0.950 . S
C2319 C2318 1.373 . S
C2319 C2335 1.377 . S
C2320 C2318 1.389 . S
C2320 C2321 1.524 . S
C2320 C2334 1.377 . S
C2321 C2320 1.524 . S
C2321 C2322 1.397 . S
C2321 C2326 1.363 . S
C2322 H2299 0.950 . S
C2322 C2321 1.397 . S
C2322 C2323 1.334 . S
C2323 H2300 0.950 . S
C2323 C2322 1.334 . S
C2323 C2324 1.287 . S
C2324 C2323 1.287 . S
C2324 C2325 1.524 . S
C2324 H2343 0.913 . S
C2325 H2301 0.950 . S
C2325 C2324 1.524 . S
C2325 C2326 1.415 . S
C2326 H2302 0.950 . S
C2326 C2321 1.363 . S
C2326 C2325 1.415 . S
C2327 H2303 0.951 . S
C2327 C2328 1.366 . S
C2327 C2329 1.388 . S
C2328 C2327 1.366 . S
C2328 C2332 1.385 . S
C2329 H2304 0.951 . S
C2329 C2327 1.388 . S
C2329 C2330 1.366 . S
C2330 C2329 1.366 . S
C2330 C2331 1.414 . S
C2330 C2333 1.499 . S
C2331 H2305 0.950 . S
C2331 C2330 1.414 . S
C2331 C2332 1.374 . S
C2332 H2306 0.950 . S
C2332 C2328 1.385 . S
C2332 C2331 1.374 . S
C2333 C2330 1.499 . S
C2333 C2334 1.373 . S
C2333 C2335 1.389 . S
C2334 H2307 0.950 . S
C2334 C2320 1.377 . S
C2334 C2333 1.373 . S
C2335 C2319 1.377 . S
C2335 C2333 1.389 . S
C2335 C2336 1.524 . S
C2336 C2335 1.524 . S
C2336 C2337 1.397 . S
C2336 C2341 1.363 . S
C2337 H2308 0.950 . S
C2337 C2336 1.397 . S
C2337 C2338 1.334 . S
C2338 H2309 0.950 . S
C2338 C2337 1.334 . S
C2338 C2339 1.287 . S
C2339 C2338 1.287 . S
C2339 C2340 1.524 . S
C2339 H2342 0.999 . S
C2340 H2310 0.950 . S
C2340 C2339 1.524 . S
C2340 C2341 1.415 . S
C2341 H2311 0.950 . S
C2341 C2336 1.363 . S
C2341 C2340 1.415 . S
H2342 C2339 0.999 . S
H2343 C2324 0.913 . S
H2344 C2362 0.951 . S
H2345 C2364 0.951 . S
H2346 C2366 0.950 . S
H2347 C2367 0.950 . S
H2348 C2369 0.950 . S
H2349 C2372 0.950 . S
H2350 C2373 0.950 . S
H2351 C2375 0.950 . S
H2352 C2376 0.950 . S
H2353 C2377 0.951 . S
H2354 C2379 0.951 . S
H2355 C2381 0.950 . S
H2356 C2382 0.950 . S
H2357 C2384 0.950 . S
H2358 C2387 0.950 . S
H2359 C2388 0.950 . S
H2360 C2390 0.950 . S
H2361 C2391 0.950 . S
C2362 H2344 0.951 . S
C2362 C2363 1.366 . S
C2362 C2364 1.388 . S
C2363 C2362 1.366 . S
C2363 C2367 1.385 . S
C2364 H2345 0.951 . S
C2364 C2362 1.388 . S
C2364 C2365 1.366 . S
C2365 C2364 1.366 . S
C2365 C2366 1.414 . S
C2365 C2368 1.499 . S
C2366 H2346 0.950 . S
C2366 C2365 1.414 . S
C2366 C2367 1.374 . S
C2367 H2347 0.950 . S
C2367 C2363 1.385 . S
C2367 C2366 1.374 . S
C2368 C2365 1.499 . S
C2368 C2369 1.373 . S
C2368 C2370 1.389 . S
C2369 H2348 0.950 . S
C2369 C2368 1.373 . S
C2369 C2385 1.377 1_655 S
C2370 C2368 1.389 . S
C2370 C2371 1.524 . S
C2370 C2384 1.377 1_655 S
C2371 C2370 1.524 . S
C2371 C2372 1.397 . S
C2371 C2376 1.363 . S
C2372 H2349 0.950 . S
C2372 C2371 1.397 . S
C2372 C2373 1.334 . S
C2373 H2350 0.950 . S
C2373 C2372 1.334 . S
C2373 C2374 1.287 . S
C2374 C2373 1.287 . S
C2374 C2375 1.524 . S
C2374 H2393 0.913 . S
C2375 H2351 0.950 . S
C2375 C2374 1.524 . S
C2375 C2376 1.415 . S
C2376 H2352 0.950 . S
C2376 C2371 1.363 . S
C2376 C2375 1.415 . S
C2377 H2353 0.951 . S
C2377 C2378 1.366 . S
C2377 C2379 1.388 . S
C2378 C2377 1.366 . S
C2378 C2382 1.385 . S
C2379 H2354 0.951 . S
C2379 C2377 1.388 . S
C2379 C2380 1.366 . S
C2380 C2379 1.366 . S
C2380 C2381 1.414 . S
C2380 C2383 1.499 . S
C2381 H2355 0.950 . S
C2381 C2380 1.414 . S
C2381 C2382 1.374 . S
C2382 H2356 0.950 . S
C2382 C2378 1.385 . S
C2382 C2381 1.374 . S
C2383 C2380 1.499 . S
C2383 C2384 1.373 . S
C2383 C2385 1.389 . S
C2384 H2357 0.950 . S
C2384 C2370 1.377 1_455 S
C2384 C2383 1.373 . S
C2385 C2369 1.377 1_455 S
C2385 C2383 1.389 . S
C2385 C2386 1.524 . S
C2386 C2385 1.524 . S
C2386 C2387 1.397 . S
C2386 C2391 1.363 . S
C2387 H2358 0.950 . S
C2387 C2386 1.397 . S
C2387 C2388 1.334 . S
C2388 H2359 0.950 . S
C2388 C2387 1.334 . S
C2388 C2389 1.287 . S
C2389 C2388 1.287 . S
C2389 C2390 1.524 . S
C2389 H2392 0.999 . S
C2390 H2360 0.950 . S
C2390 C2389 1.524 . S
C2390 C2391 1.415 . S
C2391 H2361 0.950 . S
C2391 C2386 1.363 . S
C2391 C2390 1.415 . S
H2392 C2389 0.999 . S
H2393 C2374 0.913 . S
H2394 C2412 0.951 . S
H2395 C2414 0.951 . S
H2396 C2416 0.950 . S
H2397 C2417 0.950 . S
H2398 C2419 0.950 . S
H2399 C2422 0.950 . S
H2400 C2423 0.950 . S
H2401 C2425 0.950 . S
H2402 C2426 0.950 . S
H2403 C2427 0.951 . S
H2404 C2429 0.951 . S
H2405 C2431 0.950 . S
H2406 C2432 0.950 . S
H2407 C2434 0.950 . S
H2408 C2437 0.950 . S
H2409 C2438 0.950 . S
H2410 C2440 0.950 . S
H2411 C2441 0.950 . S
C2412 H2394 0.951 . S
C2412 C2413 1.366 . S
C2412 C2414 1.388 . S
C2413 C2412 1.366 . S
C2413 C2417 1.385 . S
C2414 H2395 0.951 . S
C2414 C2412 1.388 . S
C2414 C2415 1.366 . S
C2415 C2414 1.366 . S
C2415 C2416 1.414 . S
C2415 C2418 1.499 . S
C2416 H2396 0.950 . S
C2416 C2415 1.414 . S
C2416 C2417 1.374 . S
C2417 H2397 0.950 . S
C2417 C2413 1.385 . S
C2417 C2416 1.374 . S
C2418 C2415 1.499 . S
C2418 C2419 1.373 . S
C2418 C2420 1.389 1_455 S
C2419 H2398 0.950 . S
C2419 C2418 1.373 . S
C2419 C2435 1.377 . S
C2420 C2418 1.389 1_655 S
C2420 C2421 1.524 . S
C2420 C2434 1.377 . S
C2421 C2420 1.524 . S
C2421 C2422 1.397 . S
C2421 C2426 1.363 . S
C2422 H2399 0.950 . S
C2422 C2421 1.397 . S
C2422 C2423 1.334 . S
C2423 H2400 0.950 . S
C2423 C2422 1.334 . S
C2423 C2424 1.287 . S
C2424 C2423 1.287 . S
C2424 C2425 1.524 . S
C2424 H2443 0.913 . S
C2425 H2401 0.950 . S
C2425 C2424 1.524 . S
C2425 C2426 1.415 . S
C2426 H2402 0.950 . S
C2426 C2421 1.363 . S
C2426 C2425 1.415 . S
C2427 H2403 0.951 . S
C2427 C2428 1.366 . S
C2427 C2429 1.388 . S
C2428 C2427 1.366 . S
C2428 C2432 1.385 . S
C2429 H2404 0.951 . S
C2429 C2427 1.388 . S
C2429 C2430 1.366 . S
C2430 C2429 1.366 . S
C2430 C2431 1.414 . S
C2430 C2433 1.499 . S
C2431 H2405 0.950 . S
C2431 C2430 1.414 . S
C2431 C2432 1.374 . S
C2432 H2406 0.950 . S
C2432 C2428 1.385 . S
C2432 C2431 1.374 . S
C2433 C2430 1.499 . S
C2433 C2434 1.373 . S
C2433 C2435 1.389 1_655 S
C2434 H2407 0.950 . S
C2434 C2420 1.377 . S
C2434 C2433 1.373 . S
C2435 C2419 1.377 . S
C2435 C2433 1.389 1_455 S
C2435 C2436 1.524 . S
C2436 C2435 1.524 . S
C2436 C2437 1.397 . S
C2436 C2441 1.363 . S
C2437 H2408 0.950 . S
C2437 C2436 1.397 . S
C2437 C2438 1.334 . S
C2438 H2409 0.950 . S
C2438 C2437 1.334 . S
C2438 C2439 1.287 . S
C2439 C2438 1.287 . S
C2439 C2440 1.524 . S
C2439 H2442 0.999 . S
C2440 H2410 0.950 . S
C2440 C2439 1.524 . S
C2440 C2441 1.415 . S
C2441 H2411 0.950 . S
C2441 C2436 1.363 . S
C2441 C2440 1.415 . S
H2442 C2439 0.999 . S
H2443 C2424 0.913 . S
H2444 C2462 0.951 . S
H2445 C2464 0.951 . S
H2446 C2466 0.950 . S
H2447 C2467 0.950 . S
H2448 C2469 0.950 . S
H2449 C2472 0.950 . S
H2450 C2473 0.950 . S
H2451 C2475 0.950 . S
H2452 C2476 0.950 . S
H2453 C2477 0.951 . S
H2454 C2479 0.951 . S
H2455 C2481 0.950 . S
H2456 C2482 0.950 . S
H2457 C2484 0.950 . S
H2458 C2487 0.950 . S
H2459 C2488 0.950 . S
H2460 C2490 0.950 . S
H2461 C2491 0.950 . S
C2462 H2444 0.951 . S
C2462 C2463 1.366 . S
C2462 C2464 1.388 . S
C2463 C2462 1.366 . S
C2463 C2467 1.385 . S
C2464 H2445 0.951 . S
C2464 C2462 1.388 . S
C2464 C2465 1.366 . S
C2465 C2464 1.366 . S
C2465 C2466 1.414 . S
C2465 C2468 1.499 . S
C2466 H2446 0.950 . S
C2466 C2465 1.414 . S
C2466 C2467 1.374 . S
C2467 H2447 0.950 . S
C2467 C2463 1.385 . S
C2467 C2466 1.374 . S
C2468 C2465 1.499 . S
C2468 C2469 1.373 1_455 S
C2468 C2470 1.389 . S
C2469 H2448 0.950 . S
C2469 C2468 1.373 1_655 S
C2469 C2485 1.377 . S
C2470 C2468 1.389 . S
C2470 C2471 1.524 . S
C2470 C2484 1.377 . S
C2471 C2470 1.524 . S
C2471 C2472 1.397 . S
C2471 C2476 1.363 . S
C2472 H2449 0.950 . S
C2472 C2471 1.397 . S
C2472 C2473 1.334 . S
C2473 H2450 0.950 . S
C2473 C2472 1.334 . S
C2473 C2474 1.287 . S
C2474 C2473 1.287 . S
C2474 C2475 1.524 . S
C2474 H2493 0.913 . S
C2475 H2451 0.950 . S
C2475 C2474 1.524 . S
C2475 C2476 1.415 . S
C2476 H2452 0.950 . S
C2476 C2471 1.363 . S
C2476 C2475 1.415 . S
C2477 H2453 0.951 . S
C2477 C2478 1.366 . S
C2477 C2479 1.388 . S
C2478 C2477 1.366 . S
C2478 C2482 1.385 . S
C2479 H2454 0.951 . S
C2479 C2477 1.388 . S
C2479 C2480 1.366 . S
C2480 C2479 1.366 . S
C2480 C2481 1.414 . S
C2480 C2483 1.499 . S
C2481 H2455 0.950 . S
C2481 C2480 1.414 . S
C2481 C2482 1.374 . S
C2482 H2456 0.950 . S
C2482 C2478 1.385 . S
C2482 C2481 1.374 . S
C2483 C2480 1.499 . S
C2483 C2484 1.373 1_655 S
C2483 C2485 1.389 . S
C2484 H2457 0.950 . S
C2484 C2470 1.377 . S
C2484 C2483 1.373 1_455 S
C2485 C2469 1.377 . S
C2485 C2483 1.389 . S
C2485 C2486 1.524 . S
C2486 C2485 1.524 . S
C2486 C2487 1.397 . S
C2486 C2491 1.363 . S
C2487 H2458 0.950 . S
C2487 C2486 1.397 . S
C2487 C2488 1.334 . S
C2488 H2459 0.950 . S
C2488 C2487 1.334 . S
C2488 C2489 1.287 . S
C2489 C2488 1.287 . S
C2489 C2490 1.524 . S
C2489 H2492 0.999 . S
C2490 H2460 0.950 . S
C2490 C2489 1.524 . S
C2490 C2491 1.415 . S
C2491 H2461 0.950 . S
C2491 C2486 1.363 . S
C2491 C2490 1.415 . S
H2492 C2489 0.999 . S
H2493 C2474 0.913 . S
H2494 C2512 0.951 . S
H2495 C2514 0.951 . S
H2496 C2516 0.950 . S
H2497 C2517 0.950 . S
H2498 C2519 0.950 . S
H2499 C2522 0.950 . S
H2500 C2523 0.950 . S
H2501 C2525 0.950 . S
H2502 C2526 0.950 . S
H2503 C2527 0.951 . S
H2504 C2529 0.951 . S
H2505 C2531 0.950 . S
H2506 C2532 0.950 . S
H2507 C2534 0.950 . S
H2508 C2537 0.950 . S
H2509 C2538 0.950 . S
H2510 C2540 0.950 . S
H2511 C2541 0.950 . S
C2512 H2494 0.951 . S
C2512 C2513 1.366 . S
C2512 C2514 1.388 . S
C2513 C2512 1.366 . S
C2513 C2517 1.385 . S
C2514 H2495 0.951 . S
C2514 C2512 1.388 . S
C2514 C2515 1.366 . S
C2515 C2514 1.366 . S
C2515 C2516 1.414 . S
C2515 C2518 1.499 . S
C2516 H2496 0.950 . S
C2516 C2515 1.414 . S
C2516 C2517 1.374 . S
C2517 H2497 0.950 . S
C2517 C2513 1.385 . S
C2517 C2516 1.374 . S
C2518 C2515 1.499 . S
C2518 C2519 1.373 . S
C2518 C2520 1.392 1_655 S
C2519 H2498 0.950 . S
C2519 C2518 1.373 . S
C2519 C2535 1.374 . S
C2520 C2518 1.392 1_455 S
C2520 C2521 1.524 . S
C2520 C2534 1.374 . S
C2521 C2520 1.524 . S
C2521 C2522 1.397 1_455 S
C2521 C2526 1.363 . S
C2522 H2499 0.950 . S
C2522 C2521 1.397 1_655 S
C2522 C2523 1.334 . S
C2523 H2500 0.950 . S
C2523 C2522 1.334 . S
C2523 C2524 1.287 1_655 S
C2524 C2523 1.287 1_455 S
C2524 C2525 1.524 . S
C2524 H2543 0.912 1_455 S
C2525 H2501 0.950 . S
C2525 C2524 1.524 . S
C2525 C2526 1.415 . S
C2526 H2502 0.950 . S
C2526 C2521 1.363 . S
C2526 C2525 1.415 . S
C2527 H2503 0.951 . S
C2527 C2528 1.366 . S
C2527 C2529 1.388 . S
C2528 C2527 1.366 . S
C2528 C2532 1.385 . S
C2529 H2504 0.951 . S
C2529 C2527 1.388 . S
C2529 C2530 1.366 . S
C2530 C2529 1.366 . S
C2530 C2531 1.414 . S
C2530 C2533 1.499 . S
C2531 H2505 0.950 . S
C2531 C2530 1.414 . S
C2531 C2532 1.374 . S
C2532 H2506 0.950 . S
C2532 C2528 1.385 . S
C2532 C2531 1.374 . S
C2533 C2530 1.499 . S
C2533 C2534 1.373 . S
C2533 C2535 1.392 1_455 S
C2534 H2507 0.950 . S
C2534 C2520 1.374 . S
C2534 C2533 1.373 . S
C2535 C2519 1.374 . S
C2535 C2533 1.392 1_655 S
C2535 C2536 1.524 . S
C2536 C2535 1.524 . S
C2536 C2537 1.397 1_655 S
C2536 C2541 1.363 . S
C2537 H2508 0.950 . S
C2537 C2536 1.397 1_455 S
C2537 C2538 1.334 . S
C2538 H2509 0.950 . S
C2538 C2537 1.334 . S
C2538 C2539 1.287 1_455 S
C2539 C2538 1.287 1_655 S
C2539 C2540 1.524 . S
C2539 H2542 0.999 . S
C2540 H2510 0.950 . S
C2540 C2539 1.524 . S
C2540 C2541 1.415 . S
C2541 H2511 0.950 . S
C2541 C2536 1.363 . S
C2541 C2540 1.415 . S
H2542 C2539 0.999 . S
H2543 C2524 0.912 1_655 S
C563 C20 0.559 . S
C578 C509 0.555 . S
C613 C54 0.559 . S
C628 C543 0.555 . S
C663 C88 0.696 . S
C678 C441 0.697 . S
C713 C475 0.697 . S
C728 C122 0.696 . S
C763 C156 0.976 . S
C778 C373 0.972 . S
C813 C190 0.976 . S
C828 C407 0.971 . S
C863 C224 0.736 1_565 S
C878 C274 0.735 . S
C913 C308 0.736 . S
C928 C258 0.736 . S
C963 C292 0.560 . S
C978 C237 0.555 . S
C1013 C271 0.554 . S
C1028 C326 0.561 . S
C1063 C360 0.696 . S
C1078 C169 0.697 . S
C1113 C394 0.696 . S
C1128 C203 0.697 . S
C1163 C428 0.976 . S
C1178 C101 0.971 . S
C1213 C462 0.976 . S
C1228 C135 0.971 . S
C1263 C2 0.735 . S
C1278 C496 0.735 . S
C1313 C36 0.736 . S
C1328 C530 0.736 1_545 S
C1363 C9 1.678 . S
C1378 C379 1.695 . S
C1413 C345 1.694 . S
C1428 C43 1.678 . S
C1463 C73 1.694 . S
C1478 C315 1.678 . S
C1513 C281 1.678 . S
C1528 C107 1.694 . S
C1563 C141 2.050 . S
C1578 C515 2.041 . S
C1613 C481 2.041 . S
C1628 C175 2.050 . S
C1663 C209 2.041 . S
C1678 C447 2.050 . S
C1713 C243 2.041 . S
C1728 C413 2.050 . S
C1763 C5 1.979 . S
C1778 C77 1.829 . S
C1813 C39 1.979 . S
C1828 C111 1.829 . S
C1863 C145 1.405 . S
C1878 C213 1.425 . S
C1913 C247 1.424 . S
C1928 C179 1.406 . S
C1963 C349 1.829 . S
C1978 C277 1.979 . S
C2013 C383 1.829 . S
C2028 C311 1.979 . S
C2063 C417 1.405 . S
C2078 C485 1.425 . S
C2113 C451 1.406 . S
C2128 C519 1.424 . S
C2163 C67 1.174 . S
C2178 C33 1.174 . S
C2213 C70 1.425 . S
C2228 C104 1.425 . S
C2263 C138 1.701 . S
C2278 C172 1.701 . S
C2313 C240 1.754 . S
C2328 C206 1.754 . S
C2363 C305 1.174 . S
C2378 C339 1.174 . S
C2413 C376 1.424 . S
C2428 C342 1.424 . S
C2463 C410 1.701 . S
C2478 C444 1.701 . S
C2513 C512 1.753 . S
C2528 C478 1.753 . S
