# Generated by pormake.
# Topology yfg, (5)-cn, num edge types: 1
# Building blocks:
#     Node 0, Type 0, BuildingBlock: BEQFEK_clean_sbu_0, # of connection points: 5
#     Node 1, Type 0, BuildingBlock: BEQFEK_clean_sbu_0, # of connection points: 5
#     Node 2, Type 0, BuildingBlock: BEQFEK_clean_sbu_0, # of connection points: 5
#     Node 3, Type 0, BuildingBlock: BEQFEK_clean_sbu_0, # of connection points: 5
#     Node 4, Type 0, BuildingBlock: BEQFEK_clean_sbu_0, # of connection points: 5
#     Node 5, Type 0, BuildingBlock: BEQFEK_clean_sbu_0, # of connection points: 5
#     Node 6, Type 0, BuildingBlock: BEQFEK_clean_sbu_0, # of connection points: 5
#     Node 7, Type 0, BuildingBlock: BEQFEK_clean_sbu_0, # of connection points: 5
#     Edge 8, Type (0, 0), BuildingBlock: KIFKEQ_clean_linker_1, # of connection points: 2
#     Edge 9, Type (0, 0), BuildingBlock: KIFKEQ_clean_linker_1, # of connection points: 2
#     Edge 10, Type (0, 0), BuildingBlock: KIFKEQ_clean_linker_1, # of connection points: 2
#     Edge 11, Type (0, 0), BuildingBlock: KIFKEQ_clean_linker_1, # of connection points: 2
#     Edge 12, Type (0, 0), BuildingBlock: KIFKEQ_clean_linker_1, # of connection points: 2
#     Edge 13, Type (0, 0), BuildingBlock: KIFKEQ_clean_linker_1, # of connection points: 2
#     Edge 14, Type (0, 0), BuildingBlock: KIFKEQ_clean_linker_1, # of connection points: 2
#     Edge 15, Type (0, 0), BuildingBlock: KIFKEQ_clean_linker_1, # of connection points: 2
#     Edge 16, Type (0, 0), BuildingBlock: KIFKEQ_clean_linker_1, # of connection points: 2
#     Edge 17, Type (0, 0), BuildingBlock: KIFKEQ_clean_linker_1, # of connection points: 2
#     Edge 18, Type (0, 0), BuildingBlock: KIFKEQ_clean_linker_1, # of connection points: 2
#     Edge 19, Type (0, 0), BuildingBlock: KIFKEQ_clean_linker_1, # of connection points: 2
#     Edge 20, Type (0, 0), BuildingBlock: KIFKEQ_clean_linker_1, # of connection points: 2
#     Edge 21, Type (0, 0), BuildingBlock: KIFKEQ_clean_linker_1, # of connection points: 2
#     Edge 22, Type (0, 0), BuildingBlock: KIFKEQ_clean_linker_1, # of connection points: 2
#     Edge 23, Type (0, 0), BuildingBlock: KIFKEQ_clean_linker_1, # of connection points: 2
#     Edge 24, Type (0, 0), BuildingBlock: KIFKEQ_clean_linker_1, # of connection points: 2
#     Edge 25, Type (0, 0), BuildingBlock: KIFKEQ_clean_linker_1, # of connection points: 2
#     Edge 26, Type (0, 0), BuildingBlock: KIFKEQ_clean_linker_1, # of connection points: 2
#     Edge 27, Type (0, 0), BuildingBlock: KIFKEQ_clean_linker_1, # of connection points: 2
# Relax obj value: 0.514
# Max RMSD: 0.218
# Mean RMSD: 0.218
data_MOF--net-yfg--node1-BEQFEK_clean_sbu_0--edge1-KIFKEQ_clean_linker_1
_symmetry_space_group_name_H-M    P1
_symmetry_Int_Tables_number       1
_symmetry_cell_setting            triclinic
loop_
_symmetry_equiv_pos_as_xyz
'x, y, z'
_cell_length_a     33.807046
_cell_length_b     33.811276
_cell_length_c     45.248883
_cell_angle_alpha  90.024727
_cell_angle_beta   90.023137
_cell_angle_gamma 89.967189
loop_
_atom_site_label
_atom_site_type_symbol
_atom_site_fract_x
_atom_site_fract_y
_atom_site_fract_z
_atom_type_partial_charge
Co0 Co 0.22958 0.46176 0.09363 0.0
Co1 Co 0.26554 0.47094 0.0301 0.0
C2 C 0.28091 0.53119 0.07656 0.0
O3 O 0.26035 0.51126 0.09472 0.0
O4 O 0.28558 0.51964 0.04999 0.0
C5 C 0.18579 0.49303 0.1406 0.0
O6 O 0.18946 0.52508 0.12443 0.0
C7 C 0.28136 0.5062 0.97225 0.0
C8 C 0.2966 0.45427 0.94482 0.0
C9 C 0.29229 0.49499 0.94389 0.0
N10 N 0.27872 0.47355 0.98904 0.0
N11 N 0.2877 0.44257 0.9725 0.0
C12 C 0.27696 0.54727 0.98424 0.0
H13 H 0.2522 0.54829 0.00031 0.0
H14 H 0.272 0.56941 0.96662 0.0
H15 H 0.30446 0.55533 0.99621 0.0
C16 C 0.15564 0.45759 0.06005 0.0
N17 N 0.1952 0.46078 0.06128 0.0
N18 N 0.20937 0.46596 0.03449 0.0
C19 C 0.17878 0.46708 0.01527 0.0
C20 C 0.14372 0.46205 0.03097 0.0
C21 C 0.12992 0.44866 0.08614 0.0
H22 H 0.14529 0.42797 0.10129 0.0
H23 H 0.1236 0.4765 0.09823 0.0
H24 H 0.10145 0.43525 0.07917 0.0
O25 O 0.26663 0.4173 0.09211 0.0
O26 O 0.29466 0.42494 0.04801 0.0
H27 H 0.20098 0.45208 0.97247 0.0
H28 H 0.154 0.47777 0.9717 0.0
C29 C 0.18301 0.47566 0.98298 0.0
H30 H 0.19878 0.5041 0.98011 0.0
H31 H 0.28821 0.41349 0.98022 0.0
O32 O 0.20003 0.46058 0.1312 0.0
C33 C 0.29175 0.40682 0.07267 0.0
Co34 Co 0.53648 0.22517 0.34369 0.0
Co35 Co 0.52617 0.26098 0.28022 0.0
C36 C 0.46624 0.27538 0.3273 0.0
O37 O 0.48642 0.25474 0.34526 0.0
O38 O 0.47757 0.28031 0.30072 0.0
C39 C 0.5074 0.17873 0.38991 0.0
O40 O 0.47637 0.17839 0.3724 0.0
C41 C 0.48909 0.27553 0.22283 0.0
C42 C 0.53979 0.29302 0.19491 0.0
C43 C 0.49922 0.28717 0.19436 0.0
N44 N 0.52221 0.27406 0.23922 0.0
N45 N 0.55245 0.28434 0.22239 0.0
C46 C 0.4486 0.2698 0.23555 0.0
H47 H 0.44091 0.29613 0.24902 0.0
H48 H 0.44864 0.24373 0.25045 0.0
H49 H 0.42555 0.26618 0.21843 0.0
C50 C 0.54491 0.15155 0.30964 0.0
N51 N 0.53846 0.19074 0.31127 0.0
N52 N 0.53304 0.20506 0.28453 0.0
C53 C 0.53501 0.17494 0.26497 0.0
C54 C 0.54277 0.14019 0.28029 0.0
C55 C 0.55136 0.12541 0.33593 0.0
H56 H 0.57164 0.14004 0.35178 0.0
H57 H 0.5226 0.1203 0.34703 0.0
H58 H 0.56368 0.09622 0.32976 0.0
O59 O 0.58 0.26341 0.34179 0.0
O60 O 0.57185 0.29086 0.2975 0.0
H61 H 0.5528 0.20137 0.22419 0.0
H62 H 0.53563 0.15106 0.22052 0.0
C63 C 0.53089 0.1795 0.23224 0.0
H64 H 0.5009 0.19083 0.22704 0.0
H65 H 0.58165 0.28596 0.22979 0.0
O66 O 0.53864 0.19628 0.38143 0.0
C67 C 0.59007 0.28845 0.32216 0.0
Co68 Co 0.76975 0.53228 0.59191 0.0
Co69 Co 0.73345 0.52219 0.52851 0.0
C70 C 0.72171 0.46063 0.57442 0.0
O71 O 0.74137 0.48119 0.59279 0.0
O72 O 0.71639 0.47241 0.54801 0.0
C73 C 0.81456 0.50301 0.63923 0.0
O74 O 0.81127 0.47032 0.62373 0.0
C75 C 0.71897 0.48649 0.47069 0.0
C76 C 0.70212 0.53787 0.44322 0.0
C77 C 0.70788 0.49731 0.44225 0.0
N78 N 0.7203 0.51923 0.48749 0.0
N79 N 0.71038 0.54988 0.47095 0.0
C80 C 0.72448 0.44566 0.48289 0.0
H81 H 0.69832 0.43803 0.49654 0.0
H82 H 0.75084 0.44505 0.4975 0.0
H83 H 0.72749 0.42291 0.46549 0.0
C84 C 0.84293 0.54127 0.55779 0.0
N85 N 0.80362 0.53574 0.55939 0.0
N86 N 0.78923 0.53023 0.53268 0.0
C87 C 0.81948 0.53103 0.51321 0.0
C88 C 0.85428 0.53829 0.52855 0.0
C89 C 0.8694 0.54684 0.58399 0.0
H90 H 0.87311 0.51808 0.59541 0.0
H91 H 0.89905 0.55776 0.57746 0.0
H92 H 0.85579 0.5681 0.59964 0.0
O93 O 0.73054 0.57503 0.59083 0.0
O94 O 0.70175 0.56589 0.54705 0.0
H95 H 0.84416 0.52773 0.46913 0.0
H96 H 0.80375 0.49422 0.47668 0.0
C97 C 0.81539 0.5244 0.48068 0.0
H98 H 0.79399 0.54595 0.47143 0.0
H99 H 0.70884 0.57893 0.47867 0.0
O100 O 0.79968 0.53487 0.62929 0.0
C101 C 0.70447 0.58408 0.5717 0.0
Co102 Co 0.45084 0.77323 0.84862 0.0
Co103 Co 0.47173 0.73914 0.78611 0.0
C104 C 0.52644 0.72771 0.83614 0.0
O105 O 0.50182 0.74483 0.85309 0.0
O106 O 0.51993 0.72452 0.80855 0.0
C107 C 0.47453 0.82362 0.89359 0.0
O108 O 0.50456 0.82705 0.87533 0.0
C109 C 0.51 0.70879 0.7322 0.0
C110 C 0.46877 0.7282 0.69721 0.0
C111 C 0.50512 0.71018 0.70167 0.0
N112 N 0.47878 0.7265 0.74502 0.0
N113 N 0.45387 0.7373 0.72398 0.0
C114 C 0.54192 0.68809 0.74916 0.0
H115 H 0.56413 0.71009 0.75661 0.0
H116 H 0.55671 0.66516 0.73555 0.0
H117 H 0.52912 0.67352 0.76891 0.0
C118 C 0.44369 0.84684 0.81473 0.0
N119 N 0.45072 0.80777 0.81625 0.0
N120 N 0.46248 0.79477 0.79031 0.0
C121 C 0.46565 0.82597 0.77182 0.0
C122 C 0.45352 0.85997 0.78667 0.0
C123 C 0.42533 0.87049 0.83913 0.0
H124 H 0.40615 0.85137 0.85294 0.0
H125 H 0.44893 0.88319 0.85326 0.0
H126 H 0.40742 0.89518 0.83005 0.0
O127 O 0.40932 0.73398 0.8445 0.0
O128 O 0.42647 0.70602 0.80186 0.0
H129 H 0.461 0.8192 0.725 0.0
H130 H 0.49952 0.85237 0.73658 0.0
C131 C 0.4843 0.82416 0.74185 0.0
H132 H 0.50606 0.79967 0.74077 0.0
H133 H 0.42714 0.75186 0.72787 0.0
O134 O 0.44518 0.80243 0.886 0.0
C135 C 0.40436 0.70766 0.82476 0.0
Co136 Co 0.22356 0.53679 0.40331 0.0
Co137 Co 0.26193 0.52683 0.466 0.0
C138 C 0.27751 0.46841 0.41834 0.0
O139 O 0.25598 0.4885 0.4009 0.0
O140 O 0.28247 0.47904 0.4451 0.0
C141 C 0.17948 0.50496 0.35686 0.0
O142 O 0.18379 0.47311 0.37317 0.0
C143 C 0.28019 0.49063 0.52315 0.0
C144 C 0.29461 0.54228 0.55111 0.0
C145 C 0.29135 0.50145 0.55156 0.0
N146 N 0.27643 0.52359 0.50681 0.0
N147 N 0.28496 0.55439 0.52365 0.0
C148 C 0.27651 0.44977 0.51064 0.0
H149 H 0.25073 0.44833 0.49549 0.0
H150 H 0.27364 0.4269 0.52799 0.0
H151 H 0.3034 0.44312 0.49749 0.0
C152 C 0.15073 0.53814 0.43811 0.0
N153 N 0.19028 0.53581 0.43619 0.0
N154 N 0.20545 0.53056 0.46267 0.0
C155 C 0.17549 0.52858 0.4824 0.0
C156 C 0.13985 0.53305 0.46733 0.0
C157 C 0.12403 0.54717 0.41256 0.0
H158 H 0.13858 0.56833 0.39735 0.0
H159 H 0.11771 0.51946 0.40032 0.0
H160 H 0.0956 0.56008 0.42015 0.0
O161 O 0.25896 0.58239 0.405 0.0
O162 O 0.28947 0.57389 0.44812 0.0
H163 H 0.1989 0.54388 0.52479 0.0
H164 H 0.15224 0.51773 0.52638 0.0
C165 C 0.18089 0.5201 0.51461 0.0
H166 H 0.19709 0.49184 0.51722 0.0
H167 H 0.28454 0.58365 0.51632 0.0
O168 O 0.19312 0.53771 0.36613 0.0
C169 C 0.28475 0.59282 0.42395 0.0
Co170 Co 0.45659 0.22549 0.65082 0.0
Co171 Co 0.47283 0.26219 0.71349 0.0
C172 C 0.53014 0.27234 0.66389 0.0
O173 O 0.50837 0.25193 0.64682 0.0
O174 O 0.52009 0.27888 0.69056 0.0
C175 C 0.4786 0.17502 0.60464 0.0
O176 O 0.50998 0.17127 0.62157 0.0
C177 C 0.51319 0.27669 0.77079 0.0
C178 C 0.46408 0.30023 0.79774 0.0
C179 C 0.5041 0.29145 0.79866 0.0
N180 N 0.47997 0.27645 0.7543 0.0
N181 N 0.45071 0.29026 0.7707 0.0
C182 C 0.55334 0.26547 0.75951 0.0
H183 H 0.55285 0.25943 0.73555 0.0
H184 H 0.56354 0.23815 0.77068 0.0
H185 H 0.5749 0.28931 0.76449 0.0
C186 C 0.44825 0.15296 0.68597 0.0
N187 N 0.45506 0.192 0.68378 0.0
N188 N 0.46367 0.20639 0.71002 0.0
C189 C 0.46383 0.17637 0.72972 0.0
C190 C 0.45425 0.14146 0.715 0.0
C191 C 0.4338 0.12758 0.66108 0.0
H192 H 0.41468 0.14506 0.64606 0.0
H193 H 0.45948 0.11625 0.6484 0.0
H194 H 0.41677 0.10192 0.66954 0.0
O195 O 0.41559 0.26602 0.65369 0.0
O196 O 0.4272 0.29394 0.69737 0.0
H197 H 0.45483 0.20057 0.77286 0.0
H198 H 0.47755 0.15206 0.77301 0.0
C199 C 0.476 0.1808 0.76134 0.0
H200 H 0.50559 0.19469 0.76224 0.0
H201 H 0.42171 0.29368 0.76322 0.0
O202 O 0.44988 0.19611 0.6136 0.0
C203 C 0.40767 0.29191 0.67323 0.0
Co204 Co 0.77588 0.46751 0.90169 0.0
Co205 Co 0.73797 0.47606 0.96458 0.0
C206 C 0.72372 0.53663 0.91833 0.0
O207 O 0.7442 0.51647 0.90024 0.0
O208 O 0.71934 0.52554 0.94502 0.0
C209 C 0.81994 0.49938 0.85504 0.0
O210 O 0.81486 0.53165 0.87077 0.0
C211 C 0.72228 0.51072 0.0225 0.0
C212 C 0.70338 0.45921 0.04903 0.0
C213 C 0.70988 0.49963 0.05057 0.0
N214 N 0.72359 0.47828 0.00538 0.0
N215 N 0.71247 0.44753 0.02137 0.0
C216 C 0.72894 0.55163 0.01083 0.0
H217 H 0.70217 0.56104 -0.0015 0.0
H218 H 0.75418 0.55153 0.99515 0.0
H219 H 0.73441 0.57351 0.02853 0.0
C220 C 0.84861 0.46112 0.93681 0.0
N221 N 0.80923 0.46581 0.93468 0.0
N222 N 0.79404 0.47028 0.96125 0.0
C223 C 0.82377 0.46942 0.98119 0.0
C224 C 0.85911 0.46342 0.96627 0.0
C225 C 0.87577 0.45607 0.91096 0.0
H226 H 0.86321 0.4341 0.89537 0.0
H227 H 0.87853 0.48475 0.89926 0.0
H228 H 0.90571 0.4464 0.9179 0.0
O229 O 0.73894 0.42299 0.90212 0.0
O230 O 0.70889 0.43079 0.94548 0.0
H231 H 0.79677 0.45194 0.02187 0.0
H232 H 0.84694 0.46966 0.0258 0.0
C233 C 0.81859 0.47391 0.01384 0.0
H234 H 0.80699 0.50388 0.0187 0.0
H235 H 0.7106 0.41868 0.0133 0.0
O236 O 0.80664 0.4667 0.86469 0.0
C237 C 0.71274 0.41276 0.92082 0.0
Co238 Co 0.54206 0.77314 0.15165 0.0
Co239 Co 0.52931 0.73556 0.21417 0.0
C240 C 0.47057 0.72403 0.16559 0.0
O241 O 0.49129 0.74495 0.14822 0.0
O242 O 0.48146 0.71809 0.19212 0.0
C243 C 0.51512 0.82225 0.10672 0.0
O244 O 0.4846 0.82329 0.12469 0.0
C245 C 0.48584 0.72213 0.26833 0.0
C246 C 0.5304 0.69738 0.29885 0.0
C247 C 0.49061 0.70706 0.29666 0.0
N248 N 0.52086 0.72093 0.2544 0.0
N249 N 0.54752 0.70631 0.27277 0.0
C250 C 0.44927 0.73952 0.2549 0.0
H251 H 0.45728 0.76264 0.23856 0.0
H252 H 0.42988 0.75249 0.27217 0.0
H253 H 0.43273 0.71598 0.24309 0.0
C254 C 0.55091 0.84555 0.18735 0.0
N255 N 0.54391 0.80652 0.18482 0.0
N256 N 0.53767 0.79137 0.2112 0.0
C257 C 0.53968 0.82073 0.23138 0.0
C258 C 0.54819 0.85589 0.21688 0.0
C259 C 0.5584 0.87258 0.16172 0.0
H260 H 0.57787 0.8578 0.1454 0.0
H261 H 0.52983 0.87972 0.15095 0.0
H262 H 0.57221 0.90077 0.16861 0.0
O263 O 0.58447 0.73347 0.15376 0.0
O264 O 0.57505 0.70503 0.19759 0.0
H265 H 0.55374 0.79027 0.27149 0.0
H266 H 0.5431 0.84226 0.27637 0.0
C267 C 0.5349 0.81515 0.26398 0.0
H268 H 0.50366 0.80769 0.2689 0.0
H269 H 0.57722 0.70197 0.26739 0.0
O270 O 0.54583 0.80316 0.11446 0.0
C271 C 0.5937 0.7077 0.17312 0.0
H272 H 0.1457 0.56231 0.32276 0.0
H273 H 0.18207 0.43993 0.3219 0.0
H274 H 0.13265 0.55914 0.26979 0.0
H275 H 0.17195 0.43722 0.26901 0.0
H276 H 0.15213 0.43455 0.17361 0.0
H277 H 0.13576 0.43717 0.22607 0.0
H278 H 0.17203 0.55995 0.22846 0.0
H279 H 0.18547 0.55772 0.17597 0.0
C280 C 0.15054 0.53465 0.31121 0.0
C281 C 0.16533 0.50153 0.32623 0.0
C282 C 0.14339 0.53284 0.28083 0.0
C283 C 0.15202 0.49818 0.26477 0.0
C284 C 0.16441 0.46435 0.28039 0.0
C285 C 0.17055 0.46592 0.31083 0.0
C286 C 0.15568 0.46223 0.18539 0.0
C287 C 0.17049 0.49579 0.17095 0.0
C288 C 0.14658 0.46375 0.21548 0.0
C289 C 0.15323 0.49856 0.23187 0.0
C290 C 0.16589 0.5327 0.21678 0.0
C291 C 0.17399 0.53141 0.18659 0.0
H292 H 0.44382 0.14289 0.41577 0.0
H293 H 0.56411 0.17973 0.43281 0.0
H294 H 0.43525 0.12781 0.46807 0.0
H295 H 0.55526 0.16562 0.48499 0.0
H296 H 0.53685 0.13228 0.57754 0.0
H297 H 0.54335 0.11923 0.52476 0.0
H298 H 0.42877 0.17231 0.50972 0.0
H299 H 0.42185 0.18441 0.56233 0.0
C300 C 0.46863 0.14717 0.43058 0.0
C301 C 0.50441 0.1632 0.42029 0.0
C302 C 0.46367 0.13862 0.46053 0.0
C303 C 0.49438 0.14598 0.48073 0.0
C304 C 0.53108 0.15925 0.47002 0.0
C305 C 0.53607 0.1677 0.44009 0.0
C306 C 0.51267 0.14032 0.56303 0.0
C307 C 0.4792 0.16013 0.57399 0.0
C308 C 0.51647 0.13295 0.53279 0.0
C309 C 0.48689 0.14529 0.51301 0.0
C310 C 0.45202 0.16215 0.52434 0.0
C311 C 0.44818 0.16941 0.55454 0.0
H312 H 0.84765 0.56328 0.67079 0.0
H313 H 0.81662 0.43966 0.67586 0.0
H314 H 0.86446 0.563 0.72321 0.0
H315 H 0.8305 0.43972 0.7283 0.0
H316 H 0.85567 0.44155 0.82256 0.0
H317 H 0.86965 0.443 0.76969 0.0
H318 H 0.82809 0.56407 0.76603 0.0
H319 H 0.81707 0.56315 0.81883 0.0
C320 C 0.84473 0.536 0.68315 0.0
C321 C 0.83036 0.50165 0.66949 0.0
C322 C 0.85409 0.53582 0.71322 0.0
C323 C 0.84814 0.50157 0.73036 0.0
C324 C 0.83606 0.46661 0.71603 0.0
C325 C 0.82771 0.46658 0.68587 0.0
C326 C 0.85055 0.46867 0.8104 0.0
C327 C 0.83479 0.50204 0.82457 0.0
C328 C 0.85824 0.4695 0.78008 0.0
C329 C 0.84917 0.50334 0.76324 0.0
C330 C 0.83595 0.53753 0.77803 0.0
C331 C 0.82928 0.53698 0.80842 0.0
H332 H 0.42029 0.817 0.93795 0.0
H333 H 0.53569 0.86508 0.918 0.0
H334 H 0.43091 0.83032 0.99009 0.0
H335 H 0.546 0.87915 0.9703 0.0
H336 H 0.45241 0.86172 0.0827 0.0
H337 H 0.44165 0.87653 0.03059 0.0
H338 H 0.55863 0.83262 0.01035 0.0
H339 H 0.56969 0.8186 0.06235 0.0
C340 C 0.44751 0.83136 0.9446 0.0
C341 C 0.4775 0.83918 0.92397 0.0
C342 C 0.4535 0.83932 0.97451 0.0
C343 C 0.48954 0.85535 0.98435 0.0
C344 C 0.5182 0.86618 0.9634 0.0
C345 C 0.51222 0.8582 0.93345 0.0
C346 C 0.47616 0.85607 0.0672 0.0
C347 C 0.5116 0.83823 0.07651 0.0
C348 C 0.46993 0.86448 0.03736 0.0
C349 C 0.49903 0.85522 0.01632 0.0
C350 C 0.53568 0.84039 0.02601 0.0
C351 C 0.54193 0.83204 0.05583 0.0
H352 H 0.08442 0.50687 0.05324 0.0
H353 H 0.11027 0.42135 0.98517 0.0
H354 H 0.0149 0.50617 0.03939 0.0
H355 H 0.04095 0.42244 0.96973 0.0
H356 H 0.90854 0.40059 0.96975 0.0
H357 H 0.97779 0.40068 0.98541 0.0
H358 H 0.96981 0.5263 0.0029 0.0
H359 H 0.90014 0.52524 0.9885 0.0
C360 C 0.07513 0.48823 0.03504 0.0
C361 C 0.1025 0.46409 0.02028 0.0
C362 C 0.03537 0.4881 0.02688 0.0
C363 C 0.02216 0.46419 0.00346 0.0
C364 C 0.04992 0.44071 0.9882 0.0
C365 C 0.0897 0.44051 0.99667 0.0
C366 C 0.92174 0.42793 0.97743 0.0
C367 C 0.89947 0.46283 0.97826 0.0
C368 C 0.96141 0.4282 0.98601 0.0
C369 C 0.97959 0.46358 0.99519 0.0
C370 C 0.95675 0.49841 0.99637 0.0
C371 C 0.91694 0.49794 0.98812 0.0
H372 H 0.48665 0.09861 0.25081 0.0
H373 H 0.60584 0.09092 0.28421 0.0
H374 H 0.48929 0.02885 0.23639 0.0
H375 H 0.60835 0.02091 0.27087 0.0
H376 H 0.6102 0.9068 0.21525 0.0
H377 H 0.61 0.97665 0.22917 0.0
H378 H 0.48989 0.96474 0.26075 0.0
H379 H 0.48998 0.89516 0.24575 0.0
C380 C 0.51348 0.0819 0.25479 0.0
C381 C 0.54596 0.09965 0.26868 0.0
C382 C 0.51488 0.04196 0.24694 0.0
C383 C 0.54884 0.01919 0.25288 0.0
C384 C 0.58183 0.0376 0.26588 0.0
C385 C 0.58041 0.07753 0.27361 0.0
C386 C 0.58395 0.91928 0.22535 0.0
C387 C 0.54997 0.89613 0.22922 0.0
C388 C 0.58382 0.95912 0.23343 0.0
C389 C 0.54973 0.97638 0.24571 0.0
C390 C 0.5163 0.95253 0.25074 0.0
C391 C 0.51646 0.91269 0.24257 0.0
H392 H 0.08072 0.48725 0.4462 0.0
H393 H 0.10704 0.57404 0.51325 0.0
H394 H 0.01118 0.48887 0.45986 0.0
H395 H 0.03759 0.57406 0.52845 0.0
H396 H 0.90546 0.59965 0.52487 0.0
H397 H 0.97535 0.59703 0.51104 0.0
H398 H 0.96479 0.47102 0.49618 0.0
H399 H 0.89459 0.47453 0.50878 0.0
C400 C 0.07154 0.50624 0.46423 0.0
C401 C 0.099 0.53063 0.47865 0.0
C402 C 0.03176 0.50694 0.47226 0.0
C403 C 0.01862 0.53175 0.49518 0.0
C404 C 0.04653 0.55515 0.51033 0.0
C405 C 0.08637 0.55472 0.50201 0.0
C406 C 0.91825 0.57167 0.51814 0.0
C407 C 0.89509 0.53737 0.51748 0.0
C408 C 0.95827 0.56995 0.51065 0.0
C409 C 0.97588 0.53373 0.50272 0.0
C410 C 0.95219 0.49949 0.50177 0.0
C411 C 0.91208 0.50138 0.50895 0.0
H412 H 0.41806 0.11296 0.76475 0.0
H413 H 0.48996 0.0776 0.69044 0.0
H414 H 0.41771 0.04432 0.7825 0.0
H415 H 0.48776 0.00901 0.70727 0.0
H416 H 0.42854 0.8876 0.73304 0.0
H417 H 0.4285 0.9563 0.71574 0.0
H418 H 0.47666 0.99421 0.79939 0.0
H419 H 0.47891 0.9256 0.81607 0.0
C420 C 0.43391 0.09058 0.75236 0.0
C421 C 0.45415 0.10048 0.72633 0.0
C422 C 0.43345 0.05145 0.76235 0.0
C423 C 0.45249 0.02163 0.74605 0.0
C424 C 0.47248 0.0315 0.71996 0.0
C425 C 0.47364 0.07064 0.71036 0.0
C426 C 0.43959 0.91055 0.74755 0.0
C427 C 0.45347 0.90131 0.77596 0.0
C428 C 0.4393 0.94975 0.73775 0.0
C429 C 0.45223 0.9803 0.75643 0.0
C430 C 0.46597 0.97112 0.78483 0.0
C431 C 0.46702 0.93193 0.79437 0.0
H432 H 0.43691 0.73267 0.11099 0.0
H433 H 0.42546 0.66739 0.19267 0.0
H434 H 0.38568 0.6918 0.08865 0.0
H435 H 0.37494 0.62598 0.1701 0.0
H436 H 0.26913 0.56979 0.12879 0.0
H437 H 0.30916 0.62222 0.1502 0.0
H438 H 0.38155 0.6243 0.07152 0.0
H439 H 0.34081 0.57243 0.04974 0.0
C440 C 0.42319 0.70987 0.12431 0.0
C441 C 0.43558 0.70307 0.15357 0.0
C442 C 0.39399 0.68627 0.1114 0.0
C443 C 0.37649 0.6553 0.12743 0.0
C444 C 0.3875 0.64979 0.15716 0.0
C445 C 0.41663 0.67347 0.1701 0.0
C446 C 0.29326 0.58178 0.11585 0.0
C447 C 0.30204 0.5666 0.08764 0.0
C448 C 0.31635 0.61172 0.12823 0.0
C449 C 0.3489 0.62715 0.11279 0.0
C450 C 0.35649 0.61335 0.08397 0.0
C451 C 0.33322 0.58347 0.07148 0.0
H452 H 0.42444 0.33503 0.30058 0.0
H453 H 0.42972 0.26537 0.38057 0.0
H454 H 0.37445 0.37734 0.32314 0.0
H455 H 0.37927 0.30716 0.40284 0.0
H456 H 0.26747 0.43363 0.36441 0.0
H457 H 0.30762 0.38209 0.3419 0.0
H458 H 0.37748 0.37419 0.42167 0.0
H459 H 0.33675 0.42531 0.4445 0.0
C460 C 0.41434 0.3282 0.32271 0.0
C461 C 0.43142 0.29707 0.33884 0.0
C462 C 0.38559 0.35242 0.33566 0.0
C463 C 0.37318 0.34591 0.36497 0.0
C464 C 0.38875 0.31348 0.38047 0.0
C465 C 0.41751 0.28937 0.36759 0.0
C466 C 0.29111 0.42062 0.37733 0.0
C467 C 0.29911 0.43387 0.40623 0.0
C468 C 0.31426 0.39119 0.36431 0.0
C469 C 0.34602 0.37427 0.37982 0.0
C470 C 0.353 0.38632 0.40917 0.0
C471 C 0.32974 0.41575 0.42225 0.0
H472 H 0.57806 0.32692 0.69059 0.0
H473 H 0.5627 0.26197 0.60907 0.0
H474 H 0.6301 0.36589 0.66773 0.0
H475 H 0.61561 0.3003 0.58644 0.0
H476 H 0.73515 0.42085 0.62598 0.0
H477 H 0.69535 0.36815 0.64733 0.0
H478 H 0.62183 0.36713 0.56917 0.0
H479 H 0.66233 0.41902 0.54746 0.0
C480 C 0.58633 0.32037 0.66798 0.0
C481 C 0.5658 0.2917 0.65156 0.0
C482 C 0.61641 0.3426 0.65488 0.0
C483 C 0.62685 0.3365 0.62511 0.0
C484 C 0.60781 0.30628 0.60922 0.0
C485 C 0.5776 0.28416 0.62228 0.0
C486 C 0.71089 0.40891 0.61312 0.0
C487 C 0.70159 0.4245 0.58515 0.0
C488 C 0.68794 0.37883 0.62545 0.0
C489 C 0.65499 0.36379 0.61021 0.0
C490 C 0.64716 0.37775 0.58148 0.0
C491 C 0.67031 0.40767 0.56904 0.0
H492 H 0.69131 0.59821 0.94976 0.0
H493 H 0.70595 0.55314 0.86112 0.0
H494 H 0.65013 0.65171 0.93068 0.0
H495 H 0.66311 0.60445 0.84229 0.0
H496 H 0.59625 0.7076 0.80932 0.0
H497 H 0.65029 0.66894 0.83022 0.0
H498 H 0.58704 0.66176 0.9132 0.0
H499 H 0.53479 0.70251 0.89284 0.0
C500 C 0.68575 0.59977 0.92622 0.0
C501 C 0.7017 0.57131 0.90702 0.0
C502 C 0.66188 0.63028 0.91522 0.0
C503 C 0.6527 0.63247 0.88485 0.0
C504 C 0.66985 0.60455 0.86567 0.0
C505 C 0.69431 0.5747 0.87656 0.0
C506 C 0.59435 0.69823 0.83216 0.0
C507 C 0.56118 0.70784 0.84935 0.0
C508 C 0.62518 0.67575 0.84416 0.0
C509 C 0.62304 0.66145 0.87339 0.0
C510 C 0.59037 0.67251 0.89081 0.0
C511 C 0.56008 0.69575 0.87904 0.0
H512 H 0.28479 0.34964 0.11465 0.0
H513 H 0.36675 0.39766 0.05086 0.0
H514 H 0.33829 0.31277 0.13767 0.0
H515 H 0.42055 0.36039 0.07395 0.0
H516 H 0.50026 0.35282 0.16002 0.0
H517 H 0.45173 0.37258 0.12291 0.0
H518 H 0.39054 0.26152 0.13454 0.0
H519 H 0.43971 0.24162 0.17142 0.0
C520 C 0.31407 0.35141 0.10501 0.0
C521 C 0.32166 0.37698 0.08121 0.0
C522 C 0.34475 0.33008 0.11812 0.0
C523 C 0.38376 0.3341 0.10787 0.0
C524 C 0.39083 0.35714 0.08255 0.0
C525 C 0.35997 0.37821 0.06918 0.0
C526 C 0.47681 0.3324 0.15423 0.0
C527 C 0.47269 0.29643 0.16935 0.0
C528 C 0.44916 0.34356 0.13284 0.0
C529 C 0.41699 0.3188 0.12606 0.0
C530 C 0.41458 0.28153 0.13972 0.0
C531 C 0.44241 0.27032 0.161 0.0
H532 H 0.64736 0.2828 0.36421 0.0
H533 H 0.59859 0.36296 0.29938 0.0
H534 H 0.68412 0.33699 0.38635 0.0
H535 H 0.63571 0.41746 0.32162 0.0
H536 H 0.64254 0.49825 0.40753 0.0
H537 H 0.62334 0.44946 0.37043 0.0
H538 H 0.73514 0.38948 0.38216 0.0
H539 H 0.75443 0.43887 0.41906 0.0
C540 C 0.64539 0.31182 0.35417 0.0
C541 C 0.61965 0.31873 0.33033 0.0
C542 C 0.66666 0.34288 0.36676 0.0
C543 C 0.66241 0.3816 0.35595 0.0
C544 C 0.63917 0.38797 0.33061 0.0
C545 C 0.61817 0.35671 0.31776 0.0
C546 C 0.66326 0.47507 0.4017 0.0
C547 C 0.69924 0.47126 0.41687 0.0
C548 C 0.65243 0.44727 0.38033 0.0
C549 C 0.67754 0.4153 0.37368 0.0
C550 C 0.7149 0.41338 0.38725 0.0
C551 C 0.72577 0.44135 0.40851 0.0
H552 H 0.48772 0.68253 0.64643 0.0
H553 H 0.58607 0.71301 0.7028 0.0
H554 H 0.53382 0.66091 0.60817 0.0
H555 H 0.63175 0.68803 0.66641 0.0
H556 H 0.71398 0.6564 0.59678 0.0
H557 H 0.66367 0.69475 0.62256 0.0
H558 H 0.57523 0.60903 0.59636 0.0
H559 H 0.62526 0.57303 0.56859 0.0
C560 C 0.51918 0.68414 0.65079 0.0
C561 C 0.53315 0.69781 0.6782 0.0
C562 C 0.54569 0.67148 0.62895 0.0
C563 C 0.58681 0.67207 0.63408 0.0
C564 C 0.60053 0.68729 0.66119 0.0
C565 C 0.57412 0.7006 0.68266 0.0
C566 C 0.68344 0.64677 0.59575 0.0
C567 C 0.67334 0.61193 0.58078 0.0
C568 C 0.65461 0.66829 0.61093 0.0
C569 C 0.61533 0.65447 0.61252 0.0
C570 C 0.6049 0.62097 0.59567 0.0
C571 C 0.6336 0.60019 0.57968 0.0
H572 H 0.24471 0.55094 0.91905 0.0
H573 H 0.35938 0.49613 0.91108 0.0
H574 H 0.26293 0.59937 0.88129 0.0
H575 H 0.37816 0.54473 0.87376 0.0
H576 H 0.3411 0.71046 0.86168 0.0
H577 H 0.30714 0.65464 0.88358 0.0
H578 H 0.3703 0.57509 0.82554 0.0
H579 H 0.4052 0.63145 0.80392 0.0
C580 C 0.27379 0.54929 0.90906 0.0
C581 C 0.30117 0.52079 0.91848 0.0
C582 C 0.28419 0.57684 0.8874 0.0
C583 C 0.32223 0.57636 0.87477 0.0
C584 C 0.34852 0.54586 0.88278 0.0
C585 C 0.33796 0.5182 0.90433 0.0
C586 C 0.347 0.68118 0.85299 0.0
C587 C 0.3763 0.67532 0.83141 0.0
C588 C 0.3273 0.64906 0.86546 0.0
C589 C 0.33643 0.61023 0.85667 0.0
C590 C 0.36313 0.6046 0.83317 0.0
C591 C 0.38281 0.63691 0.82055 0.0
H592 H 0.27193 0.65534 0.3875 0.0
H593 H 0.36297 0.59777 0.43878 0.0
H594 H 0.32221 0.69243 0.36077 0.0
H595 H 0.41352 0.63398 0.41134 0.0
H596 H 0.41541 0.68067 0.28725 0.0
H597 H 0.36563 0.66443 0.32354 0.0
H598 H 0.44674 0.69474 0.39379 0.0
H599 H 0.49707 0.71182 0.35682 0.0
C600 C 0.30268 0.65144 0.3936 0.0
C601 C 0.3136 0.62324 0.41487 0.0
C602 C 0.3315 0.67245 0.37815 0.0
C603 C 0.37188 0.66525 0.38332 0.0
C604 C 0.38268 0.64015 0.40677 0.0
C605 C 0.3537 0.61942 0.42254 0.0
C606 C 0.42235 0.68539 0.31031 0.0
C607 C 0.45981 0.69881 0.31909 0.0
C608 C 0.39373 0.67586 0.33125 0.0
C609 C 0.40187 0.67903 0.36163 0.0
C610 C 0.43949 0.6922 0.37055 0.0
C611 C 0.46823 0.70195 0.34944 0.0
H612 H 0.24564 0.44316 0.57532 0.0
H613 H 0.35791 0.50219 0.58508 0.0
H614 H 0.26507 0.39484 0.61286 0.0
H615 H 0.37775 0.45387 0.62238 0.0
H616 H 0.4044 0.36817 0.69376 0.0
H617 H 0.36865 0.42319 0.67087 0.0
H618 H 0.31247 0.34138 0.61067 0.0
H619 H 0.34747 0.28685 0.63367 0.0
C620 C 0.27447 0.44572 0.58561 0.0
C621 C 0.30089 0.4754 0.57673 0.0
C622 C 0.28552 0.41828 0.60717 0.0
C623 C 0.32318 0.42013 0.62035 0.0
C624 C 0.34842 0.45169 0.61289 0.0
C625 C 0.33725 0.47919 0.59137 0.0
C626 C 0.38338 0.36189 0.67631 0.0
C627 C 0.37909 0.32327 0.66525 0.0
C628 C 0.36322 0.39343 0.663 0.0
C629 C 0.33816 0.38678 0.63864 0.0
C630 C 0.33131 0.34767 0.62945 0.0
C631 C 0.35158 0.31633 0.64256 0.0
H632 H 0.6374 0.40283 0.94188 0.0
H633 H 0.72008 0.35736 0.87748 0.0
H634 H 0.58403 0.36593 0.91796 0.0
H635 H 0.66698 0.32099 0.85358 0.0
H636 H 0.5665 0.24777 0.82021 0.0
H637 H 0.61617 0.26896 0.85599 0.0
H638 H 0.55172 0.37777 0.86968 0.0
H639 H 0.50255 0.35685 0.83347 0.0
C640 C 0.64442 0.38409 0.92318 0.0
C641 C 0.68286 0.38338 0.91134 0.0
C642 C 0.61379 0.36326 0.90932 0.0
C643 C 0.62118 0.341 0.88364 0.0
C644 C 0.66027 0.33768 0.87339 0.0
C645 C 0.69072 0.35872 0.88703 0.0
C646 C 0.5632 0.2764 0.83055 0.0
C647 C 0.53152 0.30138 0.82311 0.0
C648 C 0.59138 0.2883 0.85136 0.0
C649 C 0.58815 0.32523 0.86543 0.0
C650 C 0.55496 0.349 0.85943 0.0
C651 C 0.52689 0.33713 0.83855 0.0
H652 H 0.65231 0.71348 0.13217 0.0
H653 H 0.59942 0.632 0.19412 0.0
H654 H 0.68804 0.65918 0.10917 0.0
H655 H 0.63548 0.57738 0.17102 0.0
H656 H 0.64307 0.4997 0.08367 0.0
H657 H 0.62375 0.54784 0.12124 0.0
H658 H 0.73745 0.60505 0.11295 0.0
H659 H 0.75686 0.5563 0.07562 0.0
C660 C 0.64922 0.6841 0.14142 0.0
C661 C 0.62267 0.67693 0.16469 0.0
C662 C 0.66987 0.65296 0.12833 0.0
C663 C 0.66416 0.61392 0.13805 0.0
C664 C 0.64006 0.60714 0.16286 0.0
C665 C 0.61968 0.63845 0.17622 0.0
C666 C 0.66414 0.52215 0.09033 0.0
C667 C 0.70079 0.52538 0.07603 0.0
C668 C 0.65323 0.54956 0.11196 0.0
C669 C 0.67892 0.58057 0.11977 0.0
C670 C 0.71678 0.58193 0.10697 0.0
C671 C 0.72772 0.55435 0.08544 0.0
loop_
_geom_bond_atom_site_label_1
_geom_bond_atom_site_label_2
_geom_bond_distance
_geom_bond_site_symmetry_2
_ccdc_geom_bond_type
Co0 O3 1.970 . S
Co0 N17 1.989 . S
Co0 O25 1.967 . S
Co0 O32 1.920 . S
Co1 O4 1.966 . S
Co1 N10 2.022 1_554 S
Co1 N18 1.993 . S
Co1 O26 1.941 . S
C2 O3 1.258 . S
C2 O4 1.263 . S
O3 Co0 1.970 . S
O3 C2 1.258 . S
O4 Co1 1.966 . S
O4 C2 1.263 . S
C5 O6 1.235 . S
C5 O32 1.289 . S
O6 C5 1.235 . S
C7 C9 1.400 . S
C7 N10 1.351 . S
C7 C12 1.501 . S
C8 C9 1.387 . S
C8 N11 1.341 . S
C9 C7 1.400 . S
C9 C8 1.387 . S
N10 Co1 2.022 1_556 S
N10 C7 1.351 . S
N10 N11 1.365 . S
N11 C8 1.341 . S
N11 N10 1.365 . S
N11 H31 0.862 . S
C12 C7 1.501 . S
C12 H13 0.961 1_556 S
C12 H14 0.961 . S
C12 H15 0.960 . S
H13 C12 0.961 1_554 S
H14 C12 0.961 . S
H15 C12 0.960 . S
C16 N17 1.342 . S
C16 C20 1.401 . S
C16 C21 1.499 . S
N17 Co0 1.989 . S
N17 C16 1.342 . S
N17 N18 1.388 . S
N18 Co1 1.993 . S
N18 N17 1.388 . S
N18 C19 1.346 . S
C19 N18 1.346 . S
C19 C20 1.396 . S
C19 C29 1.510 1_554 S
C20 C16 1.401 . S
C20 C19 1.396 . S
C21 C16 1.499 . S
C21 H22 0.959 . S
C21 H23 0.960 . S
C21 H24 0.961 . S
H22 C21 0.959 . S
H23 C21 0.960 . S
H24 C21 0.961 . S
O25 Co0 1.967 . S
O25 C33 1.258 . S
O26 Co1 1.941 . S
O26 C33 1.266 . S
H27 C29 0.959 . S
H28 C29 0.961 . S
C29 C19 1.510 1_556 S
C29 H27 0.959 . S
C29 H28 0.961 . S
C29 H30 0.960 . S
H30 C29 0.960 . S
H31 N11 0.862 . S
O32 Co0 1.920 . S
O32 C5 1.289 . S
C33 O25 1.258 . S
C33 O26 1.266 . S
Co34 O37 1.970 . S
Co34 N51 1.989 . S
Co34 O59 1.967 . S
Co34 O66 1.920 . S
Co35 O38 1.966 . S
Co35 N44 2.022 . S
Co35 N52 1.993 . S
Co35 O60 1.941 . S
C36 O37 1.258 . S
C36 O38 1.263 . S
O37 Co34 1.970 . S
O37 C36 1.258 . S
O38 Co35 1.966 . S
O38 C36 1.263 . S
C39 O40 1.235 . S
C39 O66 1.289 . S
O40 C39 1.235 . S
C41 C43 1.400 . S
C41 N44 1.351 . S
C41 C46 1.501 . S
C42 C43 1.387 . S
C42 N45 1.341 . S
C43 C41 1.400 . S
C43 C42 1.387 . S
N44 Co35 2.022 . S
N44 C41 1.351 . S
N44 N45 1.365 . S
N45 C42 1.341 . S
N45 N44 1.365 . S
N45 H65 0.862 . S
C46 C41 1.501 . S
C46 H47 0.961 . S
C46 H48 0.961 . S
C46 H49 0.960 . S
H47 C46 0.961 . S
H48 C46 0.961 . S
H49 C46 0.960 . S
C50 N51 1.342 . S
C50 C54 1.401 . S
C50 C55 1.499 . S
N51 Co34 1.989 . S
N51 C50 1.342 . S
N51 N52 1.388 . S
N52 Co35 1.993 . S
N52 N51 1.388 . S
N52 C53 1.346 . S
C53 N52 1.346 . S
C53 C54 1.396 . S
C53 C63 1.510 . S
C54 C50 1.401 . S
C54 C53 1.396 . S
C55 C50 1.499 . S
C55 H56 0.959 . S
C55 H57 0.960 . S
C55 H58 0.961 . S
H56 C55 0.959 . S
H57 C55 0.960 . S
H58 C55 0.961 . S
O59 Co34 1.967 . S
O59 C67 1.258 . S
O60 Co35 1.941 . S
O60 C67 1.266 . S
H61 C63 0.959 . S
H62 C63 0.961 . S
C63 C53 1.510 . S
C63 H61 0.959 . S
C63 H62 0.961 . S
C63 H64 0.960 . S
H64 C63 0.960 . S
H65 N45 0.862 . S
O66 Co34 1.920 . S
O66 C39 1.289 . S
C67 O59 1.258 . S
C67 O60 1.266 . S
Co68 O71 1.970 . S
Co68 N85 1.989 . S
Co68 O93 1.967 . S
Co68 O100 1.920 . S
Co69 O72 1.966 . S
Co69 N78 2.022 . S
Co69 N86 1.993 . S
Co69 O94 1.941 . S
C70 O71 1.258 . S
C70 O72 1.263 . S
O71 Co68 1.970 . S
O71 C70 1.258 . S
O72 Co69 1.966 . S
O72 C70 1.263 . S
C73 O74 1.235 . S
C73 O100 1.289 . S
O74 C73 1.235 . S
C75 C77 1.400 . S
C75 N78 1.351 . S
C75 C80 1.501 . S
C76 C77 1.387 . S
C76 N79 1.341 . S
C77 C75 1.400 . S
C77 C76 1.387 . S
N78 Co69 2.022 . S
N78 C75 1.351 . S
N78 N79 1.365 . S
N79 C76 1.341 . S
N79 N78 1.365 . S
N79 H99 0.862 . S
C80 C75 1.501 . S
C80 H81 0.961 . S
C80 H82 0.961 . S
C80 H83 0.960 . S
H81 C80 0.961 . S
H82 C80 0.961 . S
H83 C80 0.960 . S
C84 N85 1.342 . S
C84 C88 1.401 . S
C84 C89 1.499 . S
N85 Co68 1.989 . S
N85 C84 1.342 . S
N85 N86 1.388 . S
N86 Co69 1.993 . S
N86 N85 1.388 . S
N86 C87 1.346 . S
C87 N86 1.346 . S
C87 C88 1.396 . S
C87 C97 1.510 . S
C88 C84 1.401 . S
C88 C87 1.396 . S
C89 C84 1.499 . S
C89 H90 0.959 . S
C89 H91 0.960 . S
C89 H92 0.961 . S
H90 C89 0.959 . S
H91 C89 0.960 . S
H92 C89 0.961 . S
O93 Co68 1.967 . S
O93 C101 1.258 . S
O94 Co69 1.941 . S
O94 C101 1.266 . S
H95 C97 0.959 . S
H96 C97 0.961 . S
C97 C87 1.510 . S
C97 H95 0.959 . S
C97 H96 0.961 . S
C97 H98 0.960 . S
H98 C97 0.960 . S
H99 N79 0.862 . S
O100 Co68 1.920 . S
O100 C73 1.289 . S
C101 O93 1.258 . S
C101 O94 1.266 . S
Co102 O105 1.970 . S
Co102 N119 1.989 . S
Co102 O127 1.967 . S
Co102 O134 1.920 . S
Co103 O106 1.966 . S
Co103 N112 2.022 . S
Co103 N120 1.993 . S
Co103 O128 1.941 . S
C104 O105 1.258 . S
C104 O106 1.263 . S
O105 Co102 1.970 . S
O105 C104 1.258 . S
O106 Co103 1.966 . S
O106 C104 1.263 . S
C107 O108 1.235 . S
C107 O134 1.289 . S
O108 C107 1.235 . S
C109 C111 1.400 . S
C109 N112 1.351 . S
C109 C114 1.501 . S
C110 C111 1.387 . S
C110 N113 1.341 . S
C111 C109 1.400 . S
C111 C110 1.387 . S
N112 Co103 2.022 . S
N112 C109 1.351 . S
N112 N113 1.365 . S
N113 C110 1.341 . S
N113 N112 1.365 . S
N113 H133 0.862 . S
C114 C109 1.501 . S
C114 H115 0.961 . S
C114 H116 0.961 . S
C114 H117 0.960 . S
H115 C114 0.961 . S
H116 C114 0.961 . S
H117 C114 0.960 . S
C118 N119 1.342 . S
C118 C122 1.401 . S
C118 C123 1.499 . S
N119 Co102 1.989 . S
N119 C118 1.342 . S
N119 N120 1.388 . S
N120 Co103 1.993 . S
N120 N119 1.388 . S
N120 C121 1.346 . S
C121 N120 1.346 . S
C121 C122 1.396 . S
C121 C131 1.510 . S
C122 C118 1.401 . S
C122 C121 1.396 . S
C123 C118 1.499 . S
C123 H124 0.959 . S
C123 H125 0.960 . S
C123 H126 0.961 . S
H124 C123 0.959 . S
H125 C123 0.960 . S
H126 C123 0.961 . S
O127 Co102 1.967 . S
O127 C135 1.258 . S
O128 Co103 1.941 . S
O128 C135 1.266 . S
H129 C131 0.959 . S
H130 C131 0.961 . S
C131 C121 1.510 . S
C131 H129 0.959 . S
C131 H130 0.961 . S
C131 H132 0.960 . S
H132 C131 0.960 . S
H133 N113 0.862 . S
O134 Co102 1.920 . S
O134 C107 1.289 . S
C135 O127 1.258 . S
C135 O128 1.266 . S
Co136 O139 1.970 . S
Co136 N153 1.989 . S
Co136 O161 1.967 . S
Co136 O168 1.920 . S
Co137 O140 1.966 . S
Co137 N146 2.022 . S
Co137 N154 1.993 . S
Co137 O162 1.941 . S
C138 O139 1.258 . S
C138 O140 1.263 . S
O139 Co136 1.970 . S
O139 C138 1.258 . S
O140 Co137 1.966 . S
O140 C138 1.263 . S
C141 O142 1.235 . S
C141 O168 1.289 . S
O142 C141 1.235 . S
C143 C145 1.400 . S
C143 N146 1.351 . S
C143 C148 1.501 . S
C144 C145 1.387 . S
C144 N147 1.341 . S
C145 C143 1.400 . S
C145 C144 1.387 . S
N146 Co137 2.022 . S
N146 C143 1.351 . S
N146 N147 1.365 . S
N147 C144 1.341 . S
N147 N146 1.365 . S
N147 H167 0.862 . S
C148 C143 1.501 . S
C148 H149 0.961 . S
C148 H150 0.961 . S
C148 H151 0.960 . S
H149 C148 0.961 . S
H150 C148 0.961 . S
H151 C148 0.960 . S
C152 N153 1.342 . S
C152 C156 1.401 . S
C152 C157 1.499 . S
N153 Co136 1.989 . S
N153 C152 1.342 . S
N153 N154 1.388 . S
N154 Co137 1.993 . S
N154 N153 1.388 . S
N154 C155 1.346 . S
C155 N154 1.346 . S
C155 C156 1.396 . S
C155 C165 1.510 . S
C156 C152 1.401 . S
C156 C155 1.396 . S
C157 C152 1.499 . S
C157 H158 0.959 . S
C157 H159 0.960 . S
C157 H160 0.961 . S
H158 C157 0.959 . S
H159 C157 0.960 . S
H160 C157 0.961 . S
O161 Co136 1.967 . S
O161 C169 1.258 . S
O162 Co137 1.941 . S
O162 C169 1.266 . S
H163 C165 0.959 . S
H164 C165 0.961 . S
C165 C155 1.510 . S
C165 H163 0.959 . S
C165 H164 0.961 . S
C165 H166 0.960 . S
H166 C165 0.960 . S
H167 N147 0.862 . S
O168 Co136 1.920 . S
O168 C141 1.289 . S
C169 O161 1.258 . S
C169 O162 1.266 . S
Co170 O173 1.970 . S
Co170 N187 1.989 . S
Co170 O195 1.967 . S
Co170 O202 1.920 . S
Co171 O174 1.966 . S
Co171 N180 2.022 . S
Co171 N188 1.993 . S
Co171 O196 1.941 . S
C172 O173 1.258 . S
C172 O174 1.263 . S
O173 Co170 1.970 . S
O173 C172 1.258 . S
O174 Co171 1.966 . S
O174 C172 1.263 . S
C175 O176 1.235 . S
C175 O202 1.289 . S
O176 C175 1.235 . S
C177 C179 1.400 . S
C177 N180 1.351 . S
C177 C182 1.501 . S
C178 C179 1.387 . S
C178 N181 1.341 . S
C179 C177 1.400 . S
C179 C178 1.387 . S
N180 Co171 2.022 . S
N180 C177 1.351 . S
N180 N181 1.365 . S
N181 C178 1.341 . S
N181 N180 1.365 . S
N181 H201 0.862 . S
C182 C177 1.501 . S
C182 H183 0.961 . S
C182 H184 0.961 . S
C182 H185 0.960 . S
H183 C182 0.961 . S
H184 C182 0.961 . S
H185 C182 0.960 . S
C186 N187 1.342 . S
C186 C190 1.401 . S
C186 C191 1.499 . S
N187 Co170 1.989 . S
N187 C186 1.342 . S
N187 N188 1.388 . S
N188 Co171 1.993 . S
N188 N187 1.388 . S
N188 C189 1.346 . S
C189 N188 1.346 . S
C189 C190 1.396 . S
C189 C199 1.510 . S
C190 C186 1.401 . S
C190 C189 1.396 . S
C191 C186 1.499 . S
C191 H192 0.959 . S
C191 H193 0.960 . S
C191 H194 0.961 . S
H192 C191 0.959 . S
H193 C191 0.960 . S
H194 C191 0.961 . S
O195 Co170 1.967 . S
O195 C203 1.258 . S
O196 Co171 1.941 . S
O196 C203 1.266 . S
H197 C199 0.959 . S
H198 C199 0.961 . S
C199 C189 1.510 . S
C199 H197 0.959 . S
C199 H198 0.961 . S
C199 H200 0.960 . S
H200 C199 0.960 . S
H201 N181 0.862 . S
O202 Co170 1.920 . S
O202 C175 1.289 . S
C203 O195 1.258 . S
C203 O196 1.266 . S
Co204 O207 1.970 . S
Co204 N221 1.989 . S
Co204 O229 1.967 . S
Co204 O236 1.920 . S
Co205 O208 1.966 . S
Co205 N214 2.022 1_556 S
Co205 N222 1.993 . S
Co205 O230 1.941 . S
C206 O207 1.258 . S
C206 O208 1.263 . S
O207 Co204 1.970 . S
O207 C206 1.258 . S
O208 Co205 1.966 . S
O208 C206 1.263 . S
C209 O210 1.235 . S
C209 O236 1.289 . S
O210 C209 1.235 . S
C211 C213 1.400 . S
C211 N214 1.351 . S
C211 C216 1.501 . S
C212 C213 1.387 . S
C212 N215 1.341 . S
C213 C211 1.400 . S
C213 C212 1.387 . S
N214 Co205 2.022 1_554 S
N214 C211 1.351 . S
N214 N215 1.365 . S
N215 C212 1.341 . S
N215 N214 1.365 . S
N215 H235 0.862 . S
C216 C211 1.501 . S
C216 H217 0.961 1_554 S
C216 H218 0.961 . S
C216 H219 0.960 . S
H217 C216 0.961 1_556 S
H218 C216 0.961 . S
H219 C216 0.960 . S
C220 N221 1.342 . S
C220 C224 1.401 . S
C220 C225 1.499 . S
N221 Co204 1.989 . S
N221 C220 1.342 . S
N221 N222 1.388 . S
N222 Co205 1.993 . S
N222 N221 1.388 . S
N222 C223 1.346 . S
C223 N222 1.346 . S
C223 C224 1.396 . S
C223 C233 1.510 1_556 S
C224 C220 1.401 . S
C224 C223 1.396 . S
C225 C220 1.499 . S
C225 H226 0.959 . S
C225 H227 0.960 . S
C225 H228 0.961 . S
H226 C225 0.959 . S
H227 C225 0.960 . S
H228 C225 0.961 . S
O229 Co204 1.967 . S
O229 C237 1.258 . S
O230 Co205 1.941 . S
O230 C237 1.266 . S
H231 C233 0.959 . S
H232 C233 0.961 . S
C233 C223 1.510 1_554 S
C233 H231 0.959 . S
C233 H232 0.961 . S
C233 H234 0.960 . S
H234 C233 0.960 . S
H235 N215 0.862 . S
O236 Co204 1.920 . S
O236 C209 1.289 . S
C237 O229 1.258 . S
C237 O230 1.266 . S
Co238 O241 1.970 . S
Co238 N255 1.989 . S
Co238 O263 1.967 . S
Co238 O270 1.920 . S
Co239 O242 1.966 . S
Co239 N248 2.022 . S
Co239 N256 1.993 . S
Co239 O264 1.941 . S
C240 O241 1.258 . S
C240 O242 1.263 . S
O241 Co238 1.970 . S
O241 C240 1.258 . S
O242 Co239 1.966 . S
O242 C240 1.263 . S
C243 O244 1.235 . S
C243 O270 1.289 . S
O244 C243 1.235 . S
C245 C247 1.400 . S
C245 N248 1.351 . S
C245 C250 1.501 . S
C246 C247 1.387 . S
C246 N249 1.341 . S
C247 C245 1.400 . S
C247 C246 1.387 . S
N248 Co239 2.022 . S
N248 C245 1.351 . S
N248 N249 1.365 . S
N249 C246 1.341 . S
N249 N248 1.365 . S
N249 H269 0.862 . S
C250 C245 1.501 . S
C250 H251 0.961 . S
C250 H252 0.961 . S
C250 H253 0.960 . S
H251 C250 0.961 . S
H252 C250 0.961 . S
H253 C250 0.960 . S
C254 N255 1.342 . S
C254 C258 1.401 . S
C254 C259 1.499 . S
N255 Co238 1.989 . S
N255 C254 1.342 . S
N255 N256 1.388 . S
N256 Co239 1.993 . S
N256 N255 1.388 . S
N256 C257 1.346 . S
C257 N256 1.346 . S
C257 C258 1.396 . S
C257 C267 1.510 . S
C258 C254 1.401 . S
C258 C257 1.396 . S
C259 C254 1.499 . S
C259 H260 0.959 . S
C259 H261 0.960 . S
C259 H262 0.961 . S
H260 C259 0.959 . S
H261 C259 0.960 . S
H262 C259 0.961 . S
O263 Co238 1.967 . S
O263 C271 1.258 . S
O264 Co239 1.941 . S
O264 C271 1.266 . S
H265 C267 0.959 . S
H266 C267 0.961 . S
C267 C257 1.510 . S
C267 H265 0.959 . S
C267 H266 0.961 . S
C267 H268 0.960 . S
H268 C267 0.960 . S
H269 N249 0.862 . S
O270 Co238 1.920 . S
O270 C243 1.289 . S
C271 O263 1.258 . S
C271 O264 1.266 . S
H272 C280 0.950 . S
H273 C285 0.950 . S
H274 C282 0.950 . S
H275 C284 0.950 . S
H276 C286 0.950 . S
H277 C288 0.950 . S
H278 C290 0.950 . S
H279 C291 0.950 . S
C280 H272 0.950 . S
C280 C281 1.386 . S
C280 C282 1.391 . S
C281 C280 1.386 . S
C281 C285 1.393 . S
C282 H274 0.950 . S
C282 C280 1.391 . S
C282 C283 1.400 . S
C283 C282 1.400 . S
C283 C284 1.398 . S
C283 C289 1.491 . S
C284 H275 0.950 . S
C284 C283 1.398 . S
C284 C285 1.391 . S
C285 H273 0.950 . S
C285 C281 1.393 . S
C285 C284 1.391 . S
C286 H276 0.950 . S
C286 C287 1.386 . S
C286 C288 1.391 . S
C287 C286 1.386 . S
C287 C291 1.393 . S
C288 H277 0.950 . S
C288 C286 1.391 . S
C288 C289 1.400 . S
C289 C283 1.491 . S
C289 C288 1.400 . S
C289 C290 1.398 . S
C290 H278 0.950 . S
C290 C289 1.398 . S
C290 C291 1.391 . S
C291 H279 0.950 . S
C291 C287 1.393 . S
C291 C290 1.391 . S
H292 C300 0.950 . S
H293 C305 0.950 . S
H294 C302 0.950 . S
H295 C304 0.950 . S
H296 C306 0.950 . S
H297 C308 0.950 . S
H298 C310 0.950 . S
H299 C311 0.950 . S
C300 H292 0.950 . S
C300 C301 1.386 . S
C300 C302 1.391 . S
C301 C300 1.386 . S
C301 C305 1.393 . S
C302 H294 0.950 . S
C302 C300 1.391 . S
C302 C303 1.400 . S
C303 C302 1.400 . S
C303 C304 1.398 . S
C303 C309 1.491 . S
C304 H295 0.950 . S
C304 C303 1.398 . S
C304 C305 1.391 . S
C305 H293 0.950 . S
C305 C301 1.393 . S
C305 C304 1.391 . S
C306 H296 0.950 . S
C306 C307 1.386 . S
C306 C308 1.391 . S
C307 C306 1.386 . S
C307 C311 1.393 . S
C308 H297 0.950 . S
C308 C306 1.391 . S
C308 C309 1.400 . S
C309 C303 1.491 . S
C309 C308 1.400 . S
C309 C310 1.398 . S
C310 H298 0.950 . S
C310 C309 1.398 . S
C310 C311 1.391 . S
C311 H299 0.950 . S
C311 C307 1.393 . S
C311 C310 1.391 . S
H312 C320 0.950 . S
H313 C325 0.950 . S
H314 C322 0.950 . S
H315 C324 0.950 . S
H316 C326 0.950 . S
H317 C328 0.950 . S
H318 C330 0.950 . S
H319 C331 0.950 . S
C320 H312 0.950 . S
C320 C321 1.386 . S
C320 C322 1.391 . S
C321 C320 1.386 . S
C321 C325 1.393 . S
C322 H314 0.950 . S
C322 C320 1.391 . S
C322 C323 1.400 . S
C323 C322 1.400 . S
C323 C324 1.398 . S
C323 C329 1.491 . S
C324 H315 0.950 . S
C324 C323 1.398 . S
C324 C325 1.391 . S
C325 H313 0.950 . S
C325 C321 1.393 . S
C325 C324 1.391 . S
C326 H316 0.950 . S
C326 C327 1.386 . S
C326 C328 1.391 . S
C327 C326 1.386 . S
C327 C331 1.393 . S
C328 H317 0.950 . S
C328 C326 1.391 . S
C328 C329 1.400 . S
C329 C323 1.491 . S
C329 C328 1.400 . S
C329 C330 1.398 . S
C330 H318 0.950 . S
C330 C329 1.398 . S
C330 C331 1.391 . S
C331 H319 0.950 . S
C331 C327 1.393 . S
C331 C330 1.391 . S
H332 C340 0.950 . S
H333 C345 0.950 . S
H334 C342 0.950 . S
H335 C344 0.950 . S
H336 C346 0.950 . S
H337 C348 0.950 . S
H338 C350 0.950 . S
H339 C351 0.950 . S
C340 H332 0.950 . S
C340 C341 1.386 . S
C340 C342 1.391 . S
C341 C340 1.386 . S
C341 C345 1.393 . S
C342 H334 0.950 . S
C342 C340 1.391 . S
C342 C343 1.400 . S
C343 C342 1.400 . S
C343 C344 1.398 . S
C343 C349 1.491 1_556 S
C344 H335 0.950 . S
C344 C343 1.398 . S
C344 C345 1.391 . S
C345 H333 0.950 . S
C345 C341 1.393 . S
C345 C344 1.391 . S
C346 H336 0.950 . S
C346 C347 1.386 . S
C346 C348 1.391 . S
C347 C346 1.386 . S
C347 C351 1.393 . S
C348 H337 0.950 . S
C348 C346 1.391 . S
C348 C349 1.400 . S
C349 C343 1.491 1_554 S
C349 C348 1.400 . S
C349 C350 1.398 . S
C350 H338 0.950 . S
C350 C349 1.398 . S
C350 C351 1.391 . S
C351 H339 0.950 . S
C351 C347 1.393 . S
C351 C350 1.391 . S
H352 C360 0.950 . S
H353 C365 0.950 1_556 S
H354 C362 0.950 . S
H355 C364 0.950 . S
H356 C366 0.950 . S
H357 C368 0.950 . S
H358 C370 0.950 . S
H359 C371 0.950 1_554 S
C360 H352 0.950 . S
C360 C361 1.386 . S
C360 C362 1.391 . S
C361 C360 1.386 . S
C361 C365 1.393 . S
C362 H354 0.950 . S
C362 C360 1.391 . S
C362 C363 1.400 . S
C363 C362 1.400 . S
C363 C364 1.398 1_554 S
C363 C369 1.491 1_454 S
C364 H355 0.950 . S
C364 C363 1.398 1_556 S
C364 C365 1.391 1_556 S
C365 H353 0.950 1_554 S
C365 C361 1.393 . S
C365 C364 1.391 1_554 S
C366 H356 0.950 . S
C366 C367 1.386 . S
C366 C368 1.391 . S
C367 C366 1.386 . S
C367 C371 1.393 . S
C368 H357 0.950 . S
C368 C366 1.391 . S
C368 C369 1.400 . S
C369 C363 1.491 1_656 S
C369 C368 1.400 . S
C369 C370 1.398 1_556 S
C370 H358 0.950 . S
C370 C369 1.398 1_554 S
C370 C371 1.391 1_554 S
C371 H359 0.950 1_556 S
C371 C367 1.393 . S
C371 C370 1.391 1_556 S
H372 C380 0.950 . S
H373 C385 0.950 . S
H374 C382 0.950 . S
H375 C384 0.950 . S
H376 C386 0.950 . S
H377 C388 0.950 . S
H378 C390 0.950 . S
H379 C391 0.950 . S
C380 H372 0.950 . S
C380 C381 1.386 . S
C380 C382 1.391 . S
C381 C380 1.386 . S
C381 C385 1.393 . S
C382 H374 0.950 . S
C382 C380 1.391 . S
C382 C383 1.400 . S
C383 C382 1.400 . S
C383 C384 1.398 . S
C383 C389 1.491 1_545 S
C384 H375 0.950 . S
C384 C383 1.398 . S
C384 C385 1.391 . S
C385 H373 0.950 . S
C385 C381 1.393 . S
C385 C384 1.391 . S
C386 H376 0.950 . S
C386 C387 1.386 . S
C386 C388 1.391 . S
C387 C386 1.386 . S
C387 C391 1.393 . S
C388 H377 0.950 . S
C388 C386 1.391 . S
C388 C389 1.400 . S
C389 C383 1.491 1_565 S
C389 C388 1.400 . S
C389 C390 1.398 . S
C390 H378 0.950 . S
C390 C389 1.398 . S
C390 C391 1.391 . S
C391 H379 0.950 . S
C391 C387 1.393 . S
C391 C390 1.391 . S
H392 C400 0.950 . S
H393 C405 0.950 . S
H394 C402 0.950 . S
H395 C404 0.950 . S
H396 C406 0.950 . S
H397 C408 0.950 . S
H398 C410 0.950 . S
H399 C411 0.950 . S
C400 H392 0.950 . S
C400 C401 1.386 . S
C400 C402 1.391 . S
C401 C400 1.386 . S
C401 C405 1.393 . S
C402 H394 0.950 . S
C402 C400 1.391 . S
C402 C403 1.400 . S
C403 C402 1.400 . S
C403 C404 1.398 . S
C403 C409 1.491 1_455 S
C404 H395 0.950 . S
C404 C403 1.398 . S
C404 C405 1.391 . S
C405 H393 0.950 . S
C405 C401 1.393 . S
C405 C404 1.391 . S
C406 H396 0.950 . S
C406 C407 1.386 . S
C406 C408 1.391 . S
C407 C406 1.386 . S
C407 C411 1.393 . S
C408 H397 0.950 . S
C408 C406 1.391 . S
C408 C409 1.400 . S
C409 C403 1.491 1_655 S
C409 C408 1.400 . S
C409 C410 1.398 . S
C410 H398 0.950 . S
C410 C409 1.398 . S
C410 C411 1.391 . S
C411 H399 0.950 . S
C411 C407 1.393 . S
C411 C410 1.391 . S
H412 C420 0.950 . S
H413 C425 0.950 . S
H414 C422 0.950 . S
H415 C424 0.950 . S
H416 C426 0.950 . S
H417 C428 0.950 . S
H418 C430 0.950 . S
H419 C431 0.950 . S
C420 H412 0.950 . S
C420 C421 1.386 . S
C420 C422 1.391 . S
C421 C420 1.386 . S
C421 C425 1.393 . S
C422 H414 0.950 . S
C422 C420 1.391 . S
C422 C423 1.400 . S
C423 C422 1.400 . S
C423 C424 1.398 . S
C423 C429 1.491 1_545 S
C424 H415 0.950 . S
C424 C423 1.398 . S
C424 C425 1.391 . S
C425 H413 0.950 . S
C425 C421 1.393 . S
C425 C424 1.391 . S
C426 H416 0.950 . S
C426 C427 1.386 . S
C426 C428 1.391 . S
C427 C426 1.386 . S
C427 C431 1.393 . S
C428 H417 0.950 . S
C428 C426 1.391 . S
C428 C429 1.400 . S
C429 C423 1.491 1_565 S
C429 C428 1.400 . S
C429 C430 1.398 . S
C430 H418 0.950 . S
C430 C429 1.398 . S
C430 C431 1.391 . S
C431 H419 0.950 . S
C431 C427 1.393 . S
C431 C430 1.391 . S
H432 C440 0.950 . S
H433 C445 0.950 . S
H434 C442 0.950 . S
H435 C444 0.950 . S
H436 C446 0.950 . S
H437 C448 0.950 . S
H438 C450 0.950 . S
H439 C451 0.950 . S
C440 H432 0.950 . S
C440 C441 1.386 . S
C440 C442 1.391 . S
C441 C440 1.386 . S
C441 C445 1.393 . S
C442 H434 0.950 . S
C442 C440 1.391 . S
C442 C443 1.400 . S
C443 C442 1.400 . S
C443 C444 1.398 . S
C443 C449 1.491 . S
C444 H435 0.950 . S
C444 C443 1.398 . S
C444 C445 1.391 . S
C445 H433 0.950 . S
C445 C441 1.393 . S
C445 C444 1.391 . S
C446 H436 0.950 . S
C446 C447 1.386 . S
C446 C448 1.391 . S
C447 C446 1.386 . S
C447 C451 1.393 . S
C448 H437 0.950 . S
C448 C446 1.391 . S
C448 C449 1.400 . S
C449 C443 1.491 . S
C449 C448 1.400 . S
C449 C450 1.398 . S
C450 H438 0.950 . S
C450 C449 1.398 . S
C450 C451 1.391 . S
C451 H439 0.950 . S
C451 C447 1.393 . S
C451 C450 1.391 . S
H452 C460 0.950 . S
H453 C465 0.950 . S
H454 C462 0.950 . S
H455 C464 0.950 . S
H456 C466 0.950 . S
H457 C468 0.950 . S
H458 C470 0.950 . S
H459 C471 0.950 . S
C460 H452 0.950 . S
C460 C461 1.386 . S
C460 C462 1.391 . S
C461 C460 1.386 . S
C461 C465 1.393 . S
C462 H454 0.950 . S
C462 C460 1.391 . S
C462 C463 1.400 . S
C463 C462 1.400 . S
C463 C464 1.398 . S
C463 C469 1.491 . S
C464 H455 0.950 . S
C464 C463 1.398 . S
C464 C465 1.391 . S
C465 H453 0.950 . S
C465 C461 1.393 . S
C465 C464 1.391 . S
C466 H456 0.950 . S
C466 C467 1.386 . S
C466 C468 1.391 . S
C467 C466 1.386 . S
C467 C471 1.393 . S
C468 H457 0.950 . S
C468 C466 1.391 . S
C468 C469 1.400 . S
C469 C463 1.491 . S
C469 C468 1.400 . S
C469 C470 1.398 . S
C470 H458 0.950 . S
C470 C469 1.398 . S
C470 C471 1.391 . S
C471 H459 0.950 . S
C471 C467 1.393 . S
C471 C470 1.391 . S
H472 C480 0.950 . S
H473 C485 0.950 . S
H474 C482 0.950 . S
H475 C484 0.950 . S
H476 C486 0.950 . S
H477 C488 0.950 . S
H478 C490 0.950 . S
H479 C491 0.950 . S
C480 H472 0.950 . S
C480 C481 1.386 . S
C480 C482 1.391 . S
C481 C480 1.386 . S
C481 C485 1.393 . S
C482 H474 0.950 . S
C482 C480 1.391 . S
C482 C483 1.400 . S
C483 C482 1.400 . S
C483 C484 1.398 . S
C483 C489 1.491 . S
C484 H475 0.950 . S
C484 C483 1.398 . S
C484 C485 1.391 . S
C485 H473 0.950 . S
C485 C481 1.393 . S
C485 C484 1.391 . S
C486 H476 0.950 . S
C486 C487 1.386 . S
C486 C488 1.391 . S
C487 C486 1.386 . S
C487 C491 1.393 . S
C488 H477 0.950 . S
C488 C486 1.391 . S
C488 C489 1.400 . S
C489 C483 1.491 . S
C489 C488 1.400 . S
C489 C490 1.398 . S
C490 H478 0.950 . S
C490 C489 1.398 . S
C490 C491 1.391 . S
C491 H479 0.950 . S
C491 C487 1.393 . S
C491 C490 1.391 . S
H492 C500 0.950 . S
H493 C505 0.950 . S
H494 C502 0.950 . S
H495 C504 0.950 . S
H496 C506 0.950 . S
H497 C508 0.950 . S
H498 C510 0.950 . S
H499 C511 0.950 . S
C500 H492 0.950 . S
C500 C501 1.386 . S
C500 C502 1.391 . S
C501 C500 1.386 . S
C501 C505 1.393 . S
C502 H494 0.950 . S
C502 C500 1.391 . S
C502 C503 1.400 . S
C503 C502 1.400 . S
C503 C504 1.398 . S
C503 C509 1.491 . S
C504 H495 0.950 . S
C504 C503 1.398 . S
C504 C505 1.391 . S
C505 H493 0.950 . S
C505 C501 1.393 . S
C505 C504 1.391 . S
C506 H496 0.950 . S
C506 C507 1.386 . S
C506 C508 1.391 . S
C507 C506 1.386 . S
C507 C511 1.393 . S
C508 H497 0.950 . S
C508 C506 1.391 . S
C508 C509 1.400 . S
C509 C503 1.491 . S
C509 C508 1.400 . S
C509 C510 1.398 . S
C510 H498 0.950 . S
C510 C509 1.398 . S
C510 C511 1.391 . S
C511 H499 0.950 . S
C511 C507 1.393 . S
C511 C510 1.391 . S
H512 C520 0.950 . S
H513 C525 0.950 . S
H514 C522 0.950 . S
H515 C524 0.950 . S
H516 C526 0.950 . S
H517 C528 0.950 . S
H518 C530 0.950 . S
H519 C531 0.950 . S
C520 H512 0.950 . S
C520 C521 1.386 . S
C520 C522 1.391 . S
C521 C520 1.386 . S
C521 C525 1.393 . S
C522 H514 0.950 . S
C522 C520 1.391 . S
C522 C523 1.400 . S
C523 C522 1.400 . S
C523 C524 1.398 . S
C523 C529 1.491 . S
C524 H515 0.950 . S
C524 C523 1.398 . S
C524 C525 1.391 . S
C525 H513 0.950 . S
C525 C521 1.393 . S
C525 C524 1.391 . S
C526 H516 0.950 . S
C526 C527 1.386 . S
C526 C528 1.391 . S
C527 C526 1.386 . S
C527 C531 1.393 . S
C528 H517 0.950 . S
C528 C526 1.391 . S
C528 C529 1.400 . S
C529 C523 1.491 . S
C529 C528 1.400 . S
C529 C530 1.398 . S
C530 H518 0.950 . S
C530 C529 1.398 . S
C530 C531 1.391 . S
C531 H519 0.950 . S
C531 C527 1.393 . S
C531 C530 1.391 . S
H532 C540 0.950 . S
H533 C545 0.950 . S
H534 C542 0.950 . S
H535 C544 0.950 . S
H536 C546 0.950 . S
H537 C548 0.950 . S
H538 C550 0.950 . S
H539 C551 0.950 . S
C540 H532 0.950 . S
C540 C541 1.386 . S
C540 C542 1.391 . S
C541 C540 1.386 . S
C541 C545 1.393 . S
C542 H534 0.950 . S
C542 C540 1.391 . S
C542 C543 1.400 . S
C543 C542 1.400 . S
C543 C544 1.398 . S
C543 C549 1.491 . S
C544 H535 0.950 . S
C544 C543 1.398 . S
C544 C545 1.391 . S
C545 H533 0.950 . S
C545 C541 1.393 . S
C545 C544 1.391 . S
C546 H536 0.950 . S
C546 C547 1.386 . S
C546 C548 1.391 . S
C547 C546 1.386 . S
C547 C551 1.393 . S
C548 H537 0.950 . S
C548 C546 1.391 . S
C548 C549 1.400 . S
C549 C543 1.491 . S
C549 C548 1.400 . S
C549 C550 1.398 . S
C550 H538 0.950 . S
C550 C549 1.398 . S
C550 C551 1.391 . S
C551 H539 0.950 . S
C551 C547 1.393 . S
C551 C550 1.391 . S
H552 C560 0.950 . S
H553 C565 0.950 . S
H554 C562 0.950 . S
H555 C564 0.950 . S
H556 C566 0.950 . S
H557 C568 0.950 . S
H558 C570 0.950 . S
H559 C571 0.950 . S
C560 H552 0.950 . S
C560 C561 1.386 . S
C560 C562 1.391 . S
C561 C560 1.386 . S
C561 C565 1.393 . S
C562 H554 0.950 . S
C562 C560 1.391 . S
C562 C563 1.400 . S
C563 C562 1.400 . S
C563 C564 1.398 . S
C563 C569 1.491 . S
C564 H555 0.950 . S
C564 C563 1.398 . S
C564 C565 1.391 . S
C565 H553 0.950 . S
C565 C561 1.393 . S
C565 C564 1.391 . S
C566 H556 0.950 . S
C566 C567 1.386 . S
C566 C568 1.391 . S
C567 C566 1.386 . S
C567 C571 1.393 . S
C568 H557 0.950 . S
C568 C566 1.391 . S
C568 C569 1.400 . S
C569 C563 1.491 . S
C569 C568 1.400 . S
C569 C570 1.398 . S
C570 H558 0.950 . S
C570 C569 1.398 . S
C570 C571 1.391 . S
C571 H559 0.950 . S
C571 C567 1.393 . S
C571 C570 1.391 . S
H572 C580 0.950 . S
H573 C585 0.950 . S
H574 C582 0.950 . S
H575 C584 0.950 . S
H576 C586 0.950 . S
H577 C588 0.950 . S
H578 C590 0.950 . S
H579 C591 0.950 . S
C580 H572 0.950 . S
C580 C581 1.386 . S
C580 C582 1.391 . S
C581 C580 1.386 . S
C581 C585 1.393 . S
C582 H574 0.950 . S
C582 C580 1.391 . S
C582 C583 1.400 . S
C583 C582 1.400 . S
C583 C584 1.398 . S
C583 C589 1.491 . S
C584 H575 0.950 . S
C584 C583 1.398 . S
C584 C585 1.391 . S
C585 H573 0.950 . S
C585 C581 1.393 . S
C585 C584 1.391 . S
C586 H576 0.950 . S
C586 C587 1.386 . S
C586 C588 1.391 . S
C587 C586 1.386 . S
C587 C591 1.393 . S
C588 H577 0.950 . S
C588 C586 1.391 . S
C588 C589 1.400 . S
C589 C583 1.491 . S
C589 C588 1.400 . S
C589 C590 1.398 . S
C590 H578 0.950 . S
C590 C589 1.398 . S
C590 C591 1.391 . S
C591 H579 0.950 . S
C591 C587 1.393 . S
C591 C590 1.391 . S
H592 C600 0.950 . S
H593 C605 0.950 . S
H594 C602 0.950 . S
H595 C604 0.950 . S
H596 C606 0.950 . S
H597 C608 0.950 . S
H598 C610 0.950 . S
H599 C611 0.950 . S
C600 H592 0.950 . S
C600 C601 1.386 . S
C600 C602 1.391 . S
C601 C600 1.386 . S
C601 C605 1.393 . S
C602 H594 0.950 . S
C602 C600 1.391 . S
C602 C603 1.400 . S
C603 C602 1.400 . S
C603 C604 1.398 . S
C603 C609 1.491 . S
C604 H595 0.950 . S
C604 C603 1.398 . S
C604 C605 1.391 . S
C605 H593 0.950 . S
C605 C601 1.393 . S
C605 C604 1.391 . S
C606 H596 0.950 . S
C606 C607 1.386 . S
C606 C608 1.391 . S
C607 C606 1.386 . S
C607 C611 1.393 . S
C608 H597 0.950 . S
C608 C606 1.391 . S
C608 C609 1.400 . S
C609 C603 1.491 . S
C609 C608 1.400 . S
C609 C610 1.398 . S
C610 H598 0.950 . S
C610 C609 1.398 . S
C610 C611 1.391 . S
C611 H599 0.950 . S
C611 C607 1.393 . S
C611 C610 1.391 . S
H612 C620 0.950 . S
H613 C625 0.950 . S
H614 C622 0.950 . S
H615 C624 0.950 . S
H616 C626 0.950 . S
H617 C628 0.950 . S
H618 C630 0.950 . S
H619 C631 0.950 . S
C620 H612 0.950 . S
C620 C621 1.386 . S
C620 C622 1.391 . S
C621 C620 1.386 . S
C621 C625 1.393 . S
C622 H614 0.950 . S
C622 C620 1.391 . S
C622 C623 1.400 . S
C623 C622 1.400 . S
C623 C624 1.398 . S
C623 C629 1.491 . S
C624 H615 0.950 . S
C624 C623 1.398 . S
C624 C625 1.391 . S
C625 H613 0.950 . S
C625 C621 1.393 . S
C625 C624 1.391 . S
C626 H616 0.950 . S
C626 C627 1.386 . S
C626 C628 1.391 . S
C627 C626 1.386 . S
C627 C631 1.393 . S
C628 H617 0.950 . S
C628 C626 1.391 . S
C628 C629 1.400 . S
C629 C623 1.491 . S
C629 C628 1.400 . S
C629 C630 1.398 . S
C630 H618 0.950 . S
C630 C629 1.398 . S
C630 C631 1.391 . S
C631 H619 0.950 . S
C631 C627 1.393 . S
C631 C630 1.391 . S
H632 C640 0.950 . S
H633 C645 0.950 . S
H634 C642 0.950 . S
H635 C644 0.950 . S
H636 C646 0.950 . S
H637 C648 0.950 . S
H638 C650 0.950 . S
H639 C651 0.950 . S
C640 H632 0.950 . S
C640 C641 1.386 . S
C640 C642 1.391 . S
C641 C640 1.386 . S
C641 C645 1.393 . S
C642 H634 0.950 . S
C642 C640 1.391 . S
C642 C643 1.400 . S
C643 C642 1.400 . S
C643 C644 1.398 . S
C643 C649 1.491 . S
C644 H635 0.950 . S
C644 C643 1.398 . S
C644 C645 1.391 . S
C645 H633 0.950 . S
C645 C641 1.393 . S
C645 C644 1.391 . S
C646 H636 0.950 . S
C646 C647 1.386 . S
C646 C648 1.391 . S
C647 C646 1.386 . S
C647 C651 1.393 . S
C648 H637 0.950 . S
C648 C646 1.391 . S
C648 C649 1.400 . S
C649 C643 1.491 . S
C649 C648 1.400 . S
C649 C650 1.398 . S
C650 H638 0.950 . S
C650 C649 1.398 . S
C650 C651 1.391 . S
C651 H639 0.950 . S
C651 C647 1.393 . S
C651 C650 1.391 . S
H652 C660 0.950 . S
H653 C665 0.950 . S
H654 C662 0.950 . S
H655 C664 0.950 . S
H656 C666 0.950 . S
H657 C668 0.950 . S
H658 C670 0.950 . S
H659 C671 0.950 . S
C660 H652 0.950 . S
C660 C661 1.386 . S
C660 C662 1.391 . S
C661 C660 1.386 . S
C661 C665 1.393 . S
C662 H654 0.950 . S
C662 C660 1.391 . S
C662 C663 1.400 . S
C663 C662 1.400 . S
C663 C664 1.398 . S
C663 C669 1.491 . S
C664 H655 0.950 . S
C664 C663 1.398 . S
C664 C665 1.391 . S
C665 H653 0.950 . S
C665 C661 1.393 . S
C665 C664 1.391 . S
C666 H656 0.950 . S
C666 C667 1.386 . S
C666 C668 1.391 . S
C667 C666 1.386 . S
C667 C671 1.393 . S
C668 H657 0.950 . S
C668 C666 1.391 . S
C668 C669 1.400 . S
C669 C663 1.491 . S
C669 C668 1.400 . S
C669 C670 1.398 . S
C670 H658 0.950 . S
C670 C669 1.398 . S
C670 C671 1.391 . S
C671 H659 0.950 . S
C671 C667 1.393 . S
C671 C670 1.391 . S
C281 C141 1.237 . S
C287 C5 1.253 . S
C301 C39 1.253 . S
C307 C175 1.234 . S
C321 C73 1.232 . S
C327 C209 1.238 . S
C341 C107 1.238 . S
C347 C243 1.232 . S
C361 C20 1.181 . S
C367 C224 1.185 . S
C381 C54 1.184 . S
C387 C258 1.181 . S
C401 C156 1.174 . S
C407 C88 1.185 . S
C421 C190 1.181 . S
C427 C122 1.168 . S
C441 C240 0.872 . S
C447 C2 0.874 . S
C461 C36 0.879 . S
C467 C138 0.879 . S
C481 C172 0.878 . S
C487 C70 0.877 . S
C501 C206 0.865 . S
C507 C104 0.863 . S
C521 C33 1.397 . S
C527 C43 1.376 . S
C541 C67 1.398 . S
C547 C77 1.374 . S
C561 C111 1.389 . S
C567 C101 1.381 . S
C581 C9 1.389 . S
C587 C135 1.386 . S
C601 C169 1.385 . S
C607 C247 1.390 . S
C621 C145 1.385 . S
C627 C203 1.390 . S
C641 C237 1.378 . S
C647 C179 1.396 . S
C661 C271 1.394 . S
C667 C213 1.381 . S
