# Generated by pormake.
# Topology pcb, (4)-cn, num edge types: 1
# Building blocks:
#     Node 0, Type 0, BuildingBlock: CEKHIL_clean_sbu_0, # of connection points: 4
#     Node 1, Type 0, BuildingBlock: CEKHIL_clean_sbu_0, # of connection points: 4
#     Node 2, Type 0, BuildingBlock: CEKHIL_clean_sbu_0, # of connection points: 4
#     Node 3, Type 0, BuildingBlock: CEKHIL_clean_sbu_0, # of connection points: 4
#     Node 4, Type 0, BuildingBlock: CEKHIL_clean_sbu_0, # of connection points: 4
#     Node 5, Type 0, BuildingBlock: CEKHIL_clean_sbu_0, # of connection points: 4
#     Node 6, Type 0, BuildingBlock: CEKHIL_clean_sbu_0, # of connection points: 4
#     Node 7, Type 0, BuildingBlock: CEKHIL_clean_sbu_0, # of connection points: 4
#     Node 8, Type 0, BuildingBlock: CEKHIL_clean_sbu_0, # of connection points: 4
#     Node 9, Type 0, BuildingBlock: CEKHIL_clean_sbu_0, # of connection points: 4
#     Node 10, Type 0, BuildingBlock: CEKHIL_clean_sbu_0, # of connection points: 4
#     Node 11, Type 0, BuildingBlock: CEKHIL_clean_sbu_0, # of connection points: 4
#     Node 12, Type 0, BuildingBlock: CEKHIL_clean_sbu_0, # of connection points: 4
#     Node 13, Type 0, BuildingBlock: CEKHIL_clean_sbu_0, # of connection points: 4
#     Node 14, Type 0, BuildingBlock: CEKHIL_clean_sbu_0, # of connection points: 4
#     Node 15, Type 0, BuildingBlock: CEKHIL_clean_sbu_0, # of connection points: 4
#     Edge 16, Type (0, 0), BuildingBlock: OJICUG_clean_linker_0, # of connection points: 2
#     Edge 17, Type (0, 0), BuildingBlock: OJICUG_clean_linker_0, # of connection points: 2
#     Edge 18, Type (0, 0), BuildingBlock: OJICUG_clean_linker_0, # of connection points: 2
#     Edge 19, Type (0, 0), BuildingBlock: OJICUG_clean_linker_0, # of connection points: 2
#     Edge 20, Type (0, 0), BuildingBlock: OJICUG_clean_linker_0, # of connection points: 2
#     Edge 21, Type (0, 0), BuildingBlock: OJICUG_clean_linker_0, # of connection points: 2
#     Edge 22, Type (0, 0), BuildingBlock: OJICUG_clean_linker_0, # of connection points: 2
#     Edge 23, Type (0, 0), BuildingBlock: OJICUG_clean_linker_0, # of connection points: 2
#     Edge 24, Type (0, 0), BuildingBlock: OJICUG_clean_linker_0, # of connection points: 2
#     Edge 25, Type (0, 0), BuildingBlock: OJICUG_clean_linker_0, # of connection points: 2
#     Edge 26, Type (0, 0), BuildingBlock: OJICUG_clean_linker_0, # of connection points: 2
#     Edge 27, Type (0, 0), BuildingBlock: OJICUG_clean_linker_0, # of connection points: 2
#     Edge 28, Type (0, 0), BuildingBlock: OJICUG_clean_linker_0, # of connection points: 2
#     Edge 29, Type (0, 0), BuildingBlock: OJICUG_clean_linker_0, # of connection points: 2
#     Edge 30, Type (0, 0), BuildingBlock: OJICUG_clean_linker_0, # of connection points: 2
#     Edge 31, Type (0, 0), BuildingBlock: OJICUG_clean_linker_0, # of connection points: 2
#     Edge 32, Type (0, 0), BuildingBlock: OJICUG_clean_linker_0, # of connection points: 2
#     Edge 33, Type (0, 0), BuildingBlock: OJICUG_clean_linker_0, # of connection points: 2
#     Edge 34, Type (0, 0), BuildingBlock: OJICUG_clean_linker_0, # of connection points: 2
#     Edge 35, Type (0, 0), BuildingBlock: OJICUG_clean_linker_0, # of connection points: 2
#     Edge 36, Type (0, 0), BuildingBlock: OJICUG_clean_linker_0, # of connection points: 2
#     Edge 37, Type (0, 0), BuildingBlock: OJICUG_clean_linker_0, # of connection points: 2
#     Edge 38, Type (0, 0), BuildingBlock: OJICUG_clean_linker_0, # of connection points: 2
#     Edge 39, Type (0, 0), BuildingBlock: OJICUG_clean_linker_0, # of connection points: 2
#     Edge 40, Type (0, 0), BuildingBlock: OJICUG_clean_linker_0, # of connection points: 2
#     Edge 41, Type (0, 0), BuildingBlock: OJICUG_clean_linker_0, # of connection points: 2
#     Edge 42, Type (0, 0), BuildingBlock: OJICUG_clean_linker_0, # of connection points: 2
#     Edge 43, Type (0, 0), BuildingBlock: OJICUG_clean_linker_0, # of connection points: 2
#     Edge 44, Type (0, 0), BuildingBlock: OJICUG_clean_linker_0, # of connection points: 2
#     Edge 45, Type (0, 0), BuildingBlock: OJICUG_clean_linker_0, # of connection points: 2
#     Edge 46, Type (0, 0), BuildingBlock: OJICUG_clean_linker_0, # of connection points: 2
#     Edge 47, Type (0, 0), BuildingBlock: OJICUG_clean_linker_0, # of connection points: 2
# Relax obj value: 0.229
# Max RMSD: 0.084
# Mean RMSD: 0.084
data_MOF--net-pcb--node1-CEKHIL_clean_sbu_0--edge1-OJICUG_clean_linker_0
_symmetry_space_group_name_H-M    P1
_symmetry_Int_Tables_number       1
_symmetry_cell_setting            triclinic
loop_
_symmetry_equiv_pos_as_xyz
'x, y, z'
_cell_length_a     41.29938
_cell_length_b     26.781588
_cell_length_c     26.779792
_cell_angle_alpha  90.00142
_cell_angle_beta   90.047258
_cell_angle_gamma 90.022356
loop_
_atom_site_label
_atom_site_type_symbol
_atom_site_fract_x
_atom_site_fract_y
_atom_site_fract_z
_atom_type_partial_charge
Co0 Co 0.14786 0.18416 0.2049 0.0
O1 O 0.19405 0.17891 0.19701 0.0
O2 O 0.16816 0.2492 0.21352 0.0
C3 C 0.1448 0.1167 0.25524 0.0
O4 O 0.10005 0.20323 0.2164 0.0
Co5 Co 0.1018 0.09698 0.17416 0.0
O6 O 0.07014 0.13302 0.21606 0.0
C7 C 0.13306 0.16177 0.09717 0.0
C8 C 0.19559 0.22625 0.20648 0.0
C9 C 0.07323 0.17958 0.22426 0.0
O10 O 0.14286 0.19362 0.13007 0.0
O11 O 0.11892 0.12067 0.10843 0.0
O12 O 0.15189 0.15986 0.27444 0.0
O13 O 0.14103 0.11566 0.20768 0.0
Co14 Co 0.87133 0.1972 0.19283 0.0
O15 O 0.82526 0.18802 0.18747 0.0
O16 O 0.85003 0.21827 0.25411 0.0
C17 C 0.87585 0.23335 0.11718 0.0
O18 O 0.91895 0.21234 0.21087 0.0
Co19 Co 0.91846 0.14862 0.11618 0.0
O20 O 0.9491 0.19881 0.14238 0.0
C21 C 0.89096 0.08827 0.19938 0.0
C22 C 0.82297 0.20637 0.23205 0.0
C23 C 0.94586 0.21575 0.18645 0.0
O24 O 0.8762 0.12634 0.21801 0.0
O25 O 0.90746 0.08968 0.15892 0.0
O26 O 0.86774 0.26034 0.15543 0.0
O27 O 0.8793 0.18631 0.12522 0.0
Co28 Co 0.86922 0.80491 0.1891 0.0
O29 O 0.82315 0.80983 0.17883 0.0
O30 O 0.84765 0.74585 0.21482 0.0
C31 C 0.87455 0.88344 0.21882 0.0
O32 O 0.91648 0.78736 0.20675 0.0
Co33 Co 0.91679 0.87653 0.13349 0.0
O34 O 0.94821 0.85147 0.18293 0.0
C35 C 0.88906 0.78836 0.08125 0.0
C36 C 0.82071 0.76677 0.20055 0.0
C37 C 0.94395 0.81041 0.20585 0.0
O38 O 0.87425 0.77346 0.12086 0.0
O39 O 0.90557 0.82876 0.07874 0.0
O40 O 0.86566 0.84782 0.24872 0.0
O41 O 0.87792 0.87131 0.17264 0.0
Co42 Co 0.14555 0.82263 0.19842 0.0
O43 O 0.19168 0.83396 0.19423 0.0
O44 O 0.16789 0.7858 0.25031 0.0
C45 C 0.13892 0.80988 0.11537 0.0
O46 O 0.09875 0.80073 0.21402 0.0
Co47 Co 0.09524 0.88874 0.14287 0.0
O48 O 0.06676 0.83045 0.15312 0.0
C49 C 0.12531 0.92455 0.23722 0.0
C50 C 0.19459 0.80405 0.23207 0.0
C51 C 0.07153 0.80191 0.1903 0.0
O52 O 0.14098 0.88333 0.24314 0.0
O53 O 0.10727 0.9338 0.19943 0.0
O54 O 0.14863 0.77343 0.1437 0.0
O55 O 0.13528 0.85229 0.1373 0.0
Co56 Co 0.14537 0.81343 0.79597 0.0
O57 O 0.19139 0.81786 0.80631 0.0
O58 O 0.16542 0.74829 0.7871 0.0
C59 C 0.14361 0.88155 0.74633 0.0
O60 O 0.09769 0.79535 0.78181 0.0
Co61 Co 0.09944 0.90049 0.82635 0.0
O62 O 0.06852 0.8662 0.78159 0.0
C63 C 0.12466 0.82972 0.90339 0.0
C64 C 0.19285 0.77073 0.79581 0.0
C65 C 0.07124 0.81964 0.77307 0.0
O66 O 0.13847 0.80204 0.87018 0.0
O67 O 0.11017 0.87074 0.89293 0.0
O68 O 0.15093 0.83854 0.72713 0.0
O69 O 0.13909 0.88228 0.79381 0.0
Co70 Co 0.1463 0.17438 0.79883 0.0
O71 O 0.19238 0.1628 0.79989 0.0
O72 O 0.16762 0.21418 0.74786 0.0
C73 C 0.14342 0.18125 0.88304 0.0
O74 O 0.09905 0.19659 0.78706 0.0
Co75 Co 0.09695 0.10762 0.8551 0.0
O76 O 0.06911 0.1673 0.85035 0.0
C77 C 0.12536 0.07431 0.75815 0.0
C78 C 0.19464 0.19476 0.76375 0.0
C79 C 0.07266 0.19583 0.81285 0.0
O80 O 0.14063 0.11585 0.75183 0.0
O81 O 0.10829 0.06429 0.7968 0.0
O82 O 0.15086 0.22021 0.85639 0.0
O83 O 0.1382 0.14091 0.8583 0.0
Co84 Co 0.86872 0.19504 0.8079 0.0
O85 O 0.82257 0.19103 0.8171 0.0
O86 O 0.8478 0.25483 0.78211 0.0
C87 C 0.8733 0.11663 0.7776 0.0
O88 O 0.91647 0.21143 0.79199 0.0
Co89 Co 0.91468 0.12132 0.86415 0.0
O90 O 0.94701 0.14597 0.81597 0.0
C91 C 0.88809 0.21053 0.91607 0.0
C92 C 0.8206 0.23429 0.79573 0.0
C93 C 0.94368 0.18762 0.79375 0.0
O94 O 0.87351 0.22587 0.87642 0.0
O95 O 0.90406 0.16964 0.91869 0.0
O96 O 0.86527 0.15279 0.74779 0.0
O97 O 0.87637 0.12824 0.82396 0.0
Co98 Co 0.86896 0.80285 0.80427 0.0
O99 O 0.82286 0.81165 0.81001 0.0
O100 O 0.84739 0.78136 0.74327 0.0
C101 C 0.87398 0.76696 0.88004 0.0
O102 O 0.91653 0.788 0.78581 0.0
Co103 Co 0.9163 0.85211 0.8804 0.0
O104 O 0.94709 0.80244 0.85381 0.0
C105 C 0.88846 0.91185 0.79698 0.0
C106 C 0.82039 0.79308 0.76554 0.0
C107 C 0.94362 0.78512 0.80992 0.0
O108 O 0.87354 0.87367 0.77877 0.0
O109 O 0.90517 0.91072 0.83729 0.0
O110 O 0.86576 0.73981 0.84194 0.0
O111 O 0.87724 0.81401 0.87181 0.0
Co112 Co 0.64375 0.69618 0.68729 0.0
O113 O 0.68982 0.69024 0.67685 0.0
O114 O 0.66628 0.75238 0.71718 0.0
C115 C 0.63699 0.61582 0.71099 0.0
O116 O 0.59675 0.71441 0.70623 0.0
Co117 Co 0.59469 0.63121 0.62669 0.0
O118 O 0.5639 0.65337 0.67832 0.0
C119 C 0.6249 0.72072 0.58049 0.0
C120 C 0.6929 0.73163 0.70148 0.0
C121 C 0.5689 0.69248 0.70409 0.0
O122 O 0.63947 0.73256 0.62137 0.0
O123 O 0.60766 0.68134 0.57511 0.0
O124 O 0.64659 0.64868 0.74346 0.0
O125 O 0.63375 0.63166 0.66592 0.0
Co126 Co 0.36681 0.69002 0.69688 0.0
O127 O 0.3207 0.67904 0.69367 0.0
O128 O 0.34589 0.71653 0.75613 0.0
C129 C 0.37077 0.71839 0.61756 0.0
O130 O 0.41416 0.70885 0.71283 0.0
Co131 Co 0.41421 0.63466 0.62512 0.0
O132 O 0.44534 0.68561 0.64801 0.0
C133 C 0.38768 0.58281 0.71442 0.0
C134 C 0.31875 0.70159 0.73637 0.0
C135 C 0.44134 0.70878 0.68898 0.0
O136 O 0.37273 0.62233 0.72925 0.0
O137 O 0.40383 0.58023 0.6737 0.0
O138 O 0.36226 0.74877 0.65299 0.0
O139 O 0.37477 0.67253 0.63042 0.0
Co140 Co 0.36949 0.30653 0.6972 0.0
O141 O 0.32335 0.31218 0.68824 0.0
O142 O 0.34809 0.24498 0.7171 0.0
C143 C 0.37427 0.38165 0.73463 0.0
O144 O 0.417 0.28777 0.71218 0.0
Co145 Co 0.41703 0.38359 0.6502 0.0
O146 O 0.4477 0.35593 0.69958 0.0
C147 C 0.38932 0.30164 0.58822 0.0
C148 C 0.32102 0.26727 0.70577 0.0
C149 C 0.44409 0.3117 0.71596 0.0
O150 O 0.37435 0.2825 0.62587 0.0
O151 O 0.40598 0.34194 0.59048 0.0
O152 O 0.36601 0.343 0.76096 0.0
O153 O 0.37773 0.3743 0.68748 0.0
Co154 Co 0.64575 0.30037 0.6893 0.0
O155 O 0.69172 0.31146 0.68453 0.0
O156 O 0.66685 0.2837 0.75208 0.0
C157 C 0.64282 0.25987 0.61557 0.0
O158 O 0.59834 0.28392 0.70728 0.0
Co159 Co 0.59823 0.34144 0.60875 0.0
O160 O 0.56817 0.29203 0.63787 0.0
C161 C 0.62372 0.40828 0.68885 0.0
C162 C 0.69391 0.29548 0.73003 0.0
C163 C 0.57156 0.27798 0.68294 0.0
O164 O 0.63906 0.37226 0.71035 0.0
O165 O 0.6079 0.40332 0.64795 0.0
O166 O 0.65098 0.23541 0.65547 0.0
O167 O 0.63824 0.30704 0.62099 0.0
Co168 Co 0.64665 0.30301 0.31006 0.0
O169 O 0.69268 0.30872 0.32092 0.0
O170 O 0.66904 0.24645 0.28081 0.0
C171 C 0.64026 0.38323 0.2856 0.0
O172 O 0.59968 0.28495 0.2908 0.0
Co173 Co 0.59766 0.36888 0.36961 0.0
O174 O 0.56692 0.34634 0.31799 0.0
C175 C 0.62709 0.27917 0.41668 0.0
C176 C 0.69569 0.26716 0.29657 0.0
C177 C 0.57188 0.30702 0.29255 0.0
O178 O 0.64197 0.2671 0.37618 0.0
O179 O 0.60996 0.3187 0.42156 0.0
O180 O 0.64982 0.35001 0.25351 0.0
O181 O 0.63684 0.36783 0.33079 0.0
Co182 Co 0.64649 0.69892 0.30802 0.0
O183 O 0.69255 0.68918 0.3121 0.0
O184 O 0.66692 0.71667 0.24502 0.0
C185 C 0.64352 0.7389 0.382 0.0
O186 O 0.59874 0.71402 0.291 0.0
Co187 Co 0.6004 0.65523 0.38908 0.0
O188 O 0.56934 0.70371 0.36088 0.0
C189 C 0.62606 0.59017 0.30789 0.0
C190 C 0.69424 0.7054 0.26665 0.0
C191 C 0.57215 0.71868 0.31601 0.0
O192 O 0.64064 0.62698 0.28652 0.0
O193 O 0.61052 0.59405 0.34911 0.0
O194 O 0.65104 0.76384 0.34211 0.0
O195 O 0.63964 0.69159 0.37641 0.0
Co196 Co 0.36908 0.69296 0.3023 0.0
O197 O 0.32285 0.68781 0.30968 0.0
O198 O 0.34823 0.75451 0.28091 0.0
C199 C 0.37414 0.61744 0.26579 0.0
O200 O 0.41686 0.71107 0.28872 0.0
Co201 Co 0.41546 0.61602 0.35223 0.0
O202 O 0.44707 0.64291 0.30392 0.0
C203 C 0.38695 0.6986 0.41218 0.0
C204 C 0.32094 0.73257 0.29162 0.0
C205 C 0.44386 0.68676 0.28638 0.0
O206 O 0.37293 0.71766 0.3736 0.0
O207 O 0.40341 0.65808 0.41116 0.0
O208 O 0.36644 0.65591 0.2388 0.0
O209 O 0.37688 0.6252 0.31301 0.0
Co210 Co 0.37008 0.30883 0.30301 0.0
O211 O 0.32395 0.31948 0.30712 0.0
O212 O 0.34869 0.28194 0.24432 0.0
C213 C 0.3749 0.28085 0.38234 0.0
O214 O 0.41726 0.29014 0.28603 0.0
Co215 Co 0.41828 0.36449 0.37344 0.0
O216 O 0.44915 0.31346 0.35007 0.0
C217 C 0.39042 0.41622 0.28499 0.0
C218 C 0.32168 0.29667 0.26456 0.0
C219 C 0.44468 0.29021 0.30926 0.0
O220 O 0.37551 0.37652 0.2704 0.0
O221 O 0.40702 0.41891 0.32531 0.0
O222 O 0.36604 0.25026 0.34726 0.0
O223 O 0.37875 0.32665 0.36916 0.0
C224 C 0.28633 0.24537 0.20838 0.0
C225 C 0.28957 0.28439 0.24301 0.0
H226 H 0.25386 0.19642 0.16965 0.0
C227 C 0.26145 0.30832 0.26061 0.0
H228 H 0.30748 0.22618 0.19416 0.0
C229 C 0.23068 0.29183 0.24589 0.0
C230 C 0.22746 0.2505 0.21403 0.0
H231 H 0.2632 0.33871 0.28717 0.0
H232 H 0.20947 0.30952 0.26178 0.0
C233 C 0.25559 0.2283 0.19442 0.0
C234 C 0.73189 0.20995 0.24791 0.0
C235 C 0.72816 0.2467 0.28481 0.0
H236 H 0.76487 0.16834 0.20247 0.0
C237 C 0.75602 0.26647 0.30785 0.0
H238 H 0.71096 0.19395 0.22949 0.0
C239 C 0.787 0.25137 0.29278 0.0
C240 C 0.7907 0.2167 0.2539 0.0
H241 H 0.75394 0.29469 0.33665 0.0
H242 H 0.80798 0.26855 0.30997 0.0
C243 C 0.76282 0.19536 0.23241 0.0
C244 C 0.78505 0.70785 0.24813 0.0
C245 C 0.78848 0.74516 0.21173 0.0
H246 H 0.75238 0.66594 0.29391 0.0
C247 C 0.76045 0.76499 0.18925 0.0
H248 H 0.80613 0.69182 0.26609 0.0
C249 C 0.7296 0.7497 0.20471 0.0
C250 C 0.72621 0.71484 0.24346 0.0
H251 H 0.76232 0.79363 0.16083 0.0
H252 H 0.7085 0.76717 0.18821 0.0
C253 C 0.75423 0.69313 0.26409 0.0
C254 C 0.26062 0.73293 0.29995 0.0
C255 C 0.2889 0.75512 0.28081 0.0
H256 H 0.20876 0.73129 0.30012 0.0
C257 C 0.28588 0.79603 0.24834 0.0
H258 H 0.2621 0.70144 0.32523 0.0
C259 C 0.25519 0.81286 0.23355 0.0
C260 C 0.22692 0.78946 0.25137 0.0
H261 H 0.30719 0.81382 0.23287 0.0
H262 H 0.25363 0.8435 0.20727 0.0
C263 C 0.23 0.75006 0.28561 0.0
C264 C 0.28359 0.7519 0.79368 0.0
C265 C 0.28677 0.71327 0.7586 0.0
H266 H 0.25117 0.80026 0.83309 0.0
C267 C 0.25863 0.68923 0.7411 0.0
H268 H 0.30476 0.77112 0.80787 0.0
C269 C 0.22789 0.70538 0.75617 0.0
C270 C 0.2247 0.74645 0.78835 0.0
H271 H 0.26032 0.65909 0.71425 0.0
H272 H 0.20667 0.68771 0.74022 0.0
C273 C 0.25286 0.76859 0.80806 0.0
C274 C 0.22984 0.25153 0.71256 0.0
C275 C 0.22675 0.21 0.74416 0.0
H276 H 0.26207 0.30201 0.67553 0.0
C277 C 0.25498 0.18485 0.75964 0.0
H278 H 0.20862 0.27167 0.69994 0.0
C279 C 0.28566 0.20199 0.74538 0.0
C280 C 0.28879 0.24491 0.71569 0.0
H281 H 0.25344 0.15253 0.78383 0.0
H282 H 0.30692 0.1827 0.75914 0.0
C283 C 0.26052 0.26891 0.69865 0.0
C284 C 0.785 0.29249 0.74687 0.0
C285 C 0.78851 0.25639 0.78445 0.0
H286 H 0.75216 0.33323 0.70021 0.0
C287 C 0.76054 0.23776 0.80807 0.0
H288 H 0.80604 0.30751 0.72797 0.0
C289 C 0.72967 0.25293 0.79266 0.0
C290 C 0.72612 0.28648 0.75279 0.0
H291 H 0.76247 0.21009 0.83743 0.0
H292 H 0.70862 0.23633 0.81018 0.0
C293 C 0.75411 0.30709 0.73094 0.0
C294 C 0.76018 0.80351 0.76564 0.0
C295 C 0.78804 0.78235 0.74401 0.0
H296 H 0.70831 0.8047 0.76874 0.0
C297 C 0.78426 0.74757 0.70522 0.0
H298 H 0.76227 0.83059 0.79552 0.0
C299 C 0.75326 0.7323 0.6903 0.0
C300 C 0.72542 0.752 0.71339 0.0
H301 H 0.80522 0.7305 0.68794 0.0
H302 H 0.75114 0.70407 0.66151 0.0
C303 C 0.72922 0.78876 0.75028 0.0
C304 C 0.14195 0.22263 0.96867 0.0
C305 C 0.14283 0.17973 0.93828 0.0
H306 H 0.13819 0.25105 0.04396 0.0
C307 C 0.1431 0.13258 0.96107 0.0
H308 H 0.142 0.25947 0.95202 0.0
C309 C 0.14126 0.12787 0.01246 0.0
C310 C 0.13886 0.17011 0.04321 0.0
H311 H 0.14452 0.09865 0.93914 0.0
H312 H 0.14123 0.09054 0.02809 0.0
C313 C 0.13995 0.21782 0.02109 0.0
C314 C 0.91265 0.24488 0.99276 0.0
C315 C 0.88498 0.23851 0.96298 0.0
H316 H 0.93122 0.25158 0.06692 0.0
C317 C 0.85428 0.24628 0.98396 0.0
H318 H 0.93658 0.2391 0.97719 0.0
C319 C 0.85125 0.25293 0.03563 0.0
C320 C 0.8789 0.25246 0.0662 0.0
H321 H 0.83263 0.241 0.96168 0.0
H322 H 0.82731 0.25226 0.05214 0.0
C323 C 0.9096 0.25206 0.04409 0.0
C324 C 0.85049 0.74737 0.96236 0.0
C325 C 0.8777 0.74789 0.93096 0.0
H326 H 0.83293 0.75865 0.03695 0.0
C327 C 0.90871 0.74797 0.95213 0.0
H328 H 0.82632 0.74829 0.94658 0.0
C329 C 0.91249 0.75463 0.00343 0.0
C330 C 0.88527 0.76084 0.03414 0.0
H331 H 0.93 0.74843 0.92864 0.0
H332 H 0.93665 0.76012 0.01831 0.0
C333 C 0.85426 0.75347 0.014 0.0
C334 C 0.15213 0.7778 0.02919 0.0
C335 C 0.1319 0.80499 0.06153 0.0
H336 H 0.16605 0.76439 0.95279 0.0
C337 C 0.1071 0.83426 0.04118 0.0
H338 H 0.17159 0.75515 0.04409 0.0
C339 C 0.10373 0.83913 0.98982 0.0
C340 C 0.1255 0.81564 0.95703 0.0
H341 H 0.09094 0.8553 0.06494 0.0
H342 H 0.08477 0.8634 0.97594 0.0
C343 C 0.14903 0.78324 0.97707 0.0
C344 C 0.01834 0.18609 0.26201 0.0
C345 C 0.04256 0.20713 0.23163 0.0
H346 H 0.96744 0.17491 0.27285 0.0
C347 C 0.03373 0.2439 0.19683 0.0
H348 H 0.02451 0.15741 0.28892 0.0
C349 C 1.00094 0.25318 0.18693 0.0
C350 C 0.97663 0.22669 0.21251 0.0
H351 H 0.0518 0.26031 0.17254 0.0
H352 H 0.99469 0.27647 0.15527 0.0
C353 C 0.98558 0.19632 0.25294 0.0
C354 C 0.91078 0.95575 0.22932 0.0
C355 C 0.87974 0.93535 0.23438 0.0
H356 H 0.93871 0.02148 0.21534 0.0
C357 C 0.85305 0.96744 0.23953 0.0
H358 H 0.93169 0.93183 0.22539 0.0
C359 C 0.85706 0.01919 0.23413 0.0
C360 C 0.88774 0.03884 0.22294 0.0
H361 H 0.8288 0.9523 0.24256 0.0
H362 H 0.83584 0.04296 0.23338 0.0
C363 C 0.91477 0.00708 0.22359 0.0
C364 C 0.99397 0.80987 0.25649 0.0
C365 C 0.97404 0.78548 0.22162 0.0
H366 H 0.0424 0.83152 0.27533 0.0
C367 C 0.9883 0.75218 0.18762 0.0
H368 H 0.9836 0.83647 0.28243 0.0
C369 C 0.02204 0.75045 0.18256 0.0
C370 C 0.04186 0.78089 0.21245 0.0
H371 H 0.97352 0.7337 0.15971 0.0
H372 H 0.03228 0.73063 0.15103 0.0
C373 C 0.02774 0.80702 0.25235 0.0
C374 C 0.16841 0.03694 0.28074 0.0
C375 C 0.14197 0.06985 0.28316 0.0
H376 H 0.18363 0.96199 0.2654 0.0
C377 C 0.11079 0.0501 0.28907 0.0
H378 H 0.19268 0.05142 0.27555 0.0
C379 C 0.1055 0.99902 0.28236 0.0
C380 C 0.13148 0.9673 0.2705 0.0
H381 H 0.09003 0.07472 0.29099 0.0
H382 H 0.0808 0.98563 0.27959 0.0
C383 C 0.1632 0.98562 0.27464 0.0
C384 C 0.98344 0.80499 0.74384 0.0
C385 C 0.97425 0.77401 0.78367 0.0
H386 H 0.02265 0.84388 0.70863 0.0
C387 C 0.99836 0.74667 0.80881 0.0
H388 H 0.96544 0.82707 0.72433 0.0
C389 C 0.03121 0.75552 0.7991 0.0
C390 C 0.04034 0.79277 0.765 0.0
H391 H 0.99192 0.72296 0.84006 0.0
H392 H 0.04915 0.73835 0.82315 0.0
C393 C 0.01627 0.81479 0.73498 0.0
C394 C 0.16809 0.96082 0.7203 0.0
C395 C 0.1414 0.92838 0.71821 0.0
H396 H 0.1837 0.03613 0.73245 0.0
C397 C 0.1105 0.94831 0.70995 0.0
H398 H 0.19213 0.94616 0.72726 0.0
C399 C 0.10559 -0.00021 0.71349 0.0
C400 C 0.13162 0.03157 0.72506 0.0
H401 H 0.08958 0.924 0.70817 0.0
H402 H 0.08097 0.01372 0.71465 0.0
C403 C 0.16324 0.01248 0.72327 0.0
C404 C 0.02849 0.19163 0.75078 0.0
C405 C 0.04224 0.21607 0.79211 0.0
H406 H 0.98463 0.16387 0.71796 0.0
C407 C 0.02208 0.24481 0.82304 0.0
H408 H 0.04341 0.16837 0.72698 0.0
C409 C 0.9884 0.24355 0.8168 0.0
C410 C 0.97443 0.21225 0.7806 0.0
H411 H 0.03201 0.26324 0.85566 0.0
H412 H 0.97333 0.26086 0.84503 0.0
C413 C 0.99475 0.18913 0.74548 0.0
C414 C 0.85451 0.98127 0.76324 0.0
C415 C 0.88523 0.96112 0.77311 0.0
H416 H 0.82662 0.04862 0.75597 0.0
C417 C 0.91249 0.9924 0.77117 0.0
H418 H 0.83312 0.95789 0.76507 0.0
C419 C 0.90881 0.0438 0.76544 0.0
C420 C 0.87784 0.0647 0.76173 0.0
H421 H 0.93645 0.97759 0.77848 0.0
H422 H 0.92996 0.06742 0.76845 0.0
C423 C 0.85081 0.03307 0.7579 0.0
C424 C 0.66705 0.75797 0.46423 0.0
C425 C 0.64035 0.76078 0.43185 0.0
H426 H 0.68289 0.7446 0.53935 0.0
C427 C 0.60921 0.76565 0.45193 0.0
H428 H 0.69125 0.75327 0.44933 0.0
C429 C 0.60436 0.75979 0.50316 0.0
C430 C 0.63069 0.7497 0.53479 0.0
H431 H 0.5883 0.76781 0.42765 0.0
H432 H 0.57979 0.75743 0.51716 0.0
C433 C 0.66226 0.75287 0.51573 0.0
C434 C 0.40634 0.73025 0.54458 0.0
C435 C 0.37527 0.73324 0.56524 0.0
H436 H 0.43438 0.71793 0.47863 0.0
C437 C 0.34831 0.73607 0.53332 0.0
H438 H 0.42745 0.72807 0.56835 0.0
C439 C 0.35227 0.73078 0.48153 0.0
C440 C 0.3832 0.72197 0.46163 0.0
H441 H 0.32406 0.73742 0.54865 0.0
H442 H 0.33101 0.72835 0.45793 0.0
C443 C 0.41029 0.72453 0.49321 0.0
C444 C 0.35276 0.26069 0.46626 0.0
C445 C 0.37969 0.26644 0.43473 0.0
H446 H 0.3348 0.26656 0.54142 0.0
C447 C 0.41044 0.27272 0.45584 0.0
H448 H 0.32871 0.25673 0.45058 0.0
C449 C 0.41389 0.27872 0.50723 0.0
C450 C 0.3866 0.27856 0.53843 0.0
H451 H 0.43154 0.27719 0.43242 0.0
H452 H 0.43762 0.28762 0.52212 0.0
C453 C 0.35623 0.26647 0.51811 0.0
C454 C 0.6052 0.24019 0.4931 0.0
C455 C 0.63205 0.24992 0.46248 0.0
H456 H 0.58801 0.2322 0.56793 0.0
C457 C 0.66332 0.24586 0.4826 0.0
H458 H 0.58086 0.24319 0.47825 0.0
C459 C 0.66735 0.2402 0.53423 0.0
C460 C 0.64019 0.23789 0.56566 0.0
H461 H 0.68434 0.25379 0.45975 0.0
H462 H 0.69139 0.24424 0.54999 0.0
C463 C 0.60929 0.2339 0.54443 0.0
C464 C 0.51872 0.69048 0.75423 0.0
C465 C 0.53923 0.7172 0.72198 0.0
H466 H 0.46983 0.66931 0.77066 0.0
C467 C 0.5257 0.75425 0.69128 0.0
H468 H 0.5285 0.66104 0.77753 0.0
C469 C 0.49201 0.75804 0.68632 0.0
C470 C 0.47151 0.72581 0.71306 0.0
H471 H 0.54089 0.77463 0.66534 0.0
H472 H 0.48224 0.78132 0.65685 0.0
C473 C 0.48502 0.69523 0.75022 0.0
C474 C 0.35359 0.51503 0.74989 0.0
C475 C 0.3844 0.53576 0.74226 0.0
H476 H 0.32618 0.44712 0.75489 0.0
C477 C 0.41188 0.50547 0.74808 0.0
H478 H 0.33207 0.53764 0.74502 0.0
C479 C 0.40852 0.45405 0.75441 0.0
C480 C 0.37767 0.43232 0.75459 0.0
H481 H 0.4359 0.52078 0.74238 0.0
H482 H 0.42998 0.43094 0.75343 0.0
C483 C 0.35024 0.46328 0.75572 0.0
C484 C 0.5172 0.23809 0.68574 0.0
C485 C 0.54094 0.26738 0.70953 0.0
H486 H 0.46656 0.22775 0.67156 0.0
C487 C 0.53131 0.29993 0.74785 0.0
H488 H 0.52397 0.21308 0.65569 0.0
C489 C 0.49834 0.30922 0.75608 0.0
C490 C 0.47461 0.28508 0.72708 0.0
H491 H 0.54899 0.32348 0.7663 0.0
H492 H 0.49157 0.33956 0.78072 0.0
C493 C 0.48424 0.24643 0.69494 0.0
C494 C 0.65637 0.53126 0.73642 0.0
C495 C 0.63081 0.56304 0.72254 0.0
H496 H 0.67418 0.45571 0.73686 0.0
C497 C 0.6013 0.54221 0.70746 0.0
H498 H 0.67954 0.5467 0.74746 0.0
C499 C 0.59821 0.49086 0.70155 0.0
C500 C 0.62475 0.4592 0.70994 0.0
H501 H 0.58127 0.56572 0.69658 0.0
H502 H 0.57569 0.47626 0.6867 0.0
C503 C 0.65334 0.47934 0.73019 0.0
C504 C 0.49529 0.24084 0.31075 0.0
C505 C 0.47458 0.27319 0.28451 0.0
H506 H 0.54431 0.22436 0.33102 0.0
C507 C 0.48779 0.30399 0.2473 0.0
H508 H 0.48573 0.21737 0.34022 0.0
C509 C 0.52146 0.30891 0.24289 0.0
C510 C 0.5422 0.28216 0.27478 0.0
H511 H 0.47243 0.32995 0.22722 0.0
H512 H 0.53104 0.33855 0.21963 0.0
C513 C 0.52894 0.24481 0.30537 0.0
C514 C 0.60425 0.45652 0.28634 0.0
C515 C 0.63424 0.43592 0.27346 0.0
H516 H 0.578 0.52229 0.30578 0.0
C517 C 0.66013 0.46789 0.2617 0.0
H518 H 0.58394 0.43285 0.29551 0.0
C519 C 0.65683 0.51975 0.26791 0.0
C520 C 0.62763 0.53962 0.28614 0.0
H521 H 0.68366 0.45262 0.25244 0.0
H522 H 0.67782 0.54352 0.26303 0.0
C523 C 0.60091 0.50784 0.29238 0.0
C524 C 0.51797 0.75903 0.3148 0.0
C525 C 0.5412 0.72939 0.2904 0.0
H526 H 0.46756 0.77018 0.33027 0.0
C527 C 0.53088 0.69671 0.2526 0.0
H528 H 0.52529 0.78405 0.34455 0.0
C529 C 0.49776 0.68784 0.24532 0.0
C530 C 0.47456 0.71257 0.27474 0.0
H531 H 0.54818 0.67282 0.23379 0.0
H532 H 0.49047 0.65748 0.22102 0.0
C533 C 0.48484 0.75113 0.30653 0.0
C534 C 0.35518 0.48321 0.25083 0.0
C535 C 0.38632 0.46342 0.25765 0.0
H536 H 0.32683 0.55023 0.24685 0.0
C537 C 0.41334 0.49468 0.25165 0.0
H538 H 0.334 0.45986 0.2559 0.0
C539 C 0.40924 0.54604 0.24576 0.0
C540 C 0.3781 0.56672 0.24624 0.0
H541 H 0.4376 0.48013 0.25679 0.0
H542 H 0.43039 0.56987 0.24641 0.0
C543 C 0.35108 0.53487 0.24552 0.0
loop_
_geom_bond_atom_site_label_1
_geom_bond_atom_site_label_2
_geom_bond_distance
_geom_bond_site_symmetry_2
_ccdc_geom_bond_type
Co0 O1 2.216 . S
Co0 O2 2.091 . S
Co0 O4 2.004 . S
Co0 O10 2.021 . S
Co0 O12 2.137 . S
Co0 O13 2.244 . S
O1 Co0 2.216 . S
O1 C8 1.247 . S
O2 Co0 2.091 . S
O2 C8 1.261 . S
C3 O12 1.247 . S
C3 O13 1.272 . S
O4 Co0 2.004 . S
O4 C9 1.259 . S
Co5 O6 2.061 . S
Co5 O11 2.052 . S
Co5 O13 2.135 . S
O6 Co5 2.061 . S
O6 C9 1.235 . S
C7 O10 1.238 . S
C7 O11 1.241 . S
C8 O1 1.247 . S
C8 O2 1.261 . S
C9 O4 1.259 . S
C9 O6 1.235 . S
O10 Co0 2.021 . S
O10 C7 1.238 . S
O11 Co5 2.052 . S
O11 C7 1.241 . S
O12 Co0 2.137 . S
O12 C3 1.247 . S
O13 Co0 2.244 . S
O13 C3 1.272 . S
O13 Co5 2.135 . S
Co14 O15 2.216 . S
Co14 O16 2.091 . S
Co14 O18 2.004 . S
Co14 O24 2.021 . S
Co14 O26 2.137 . S
Co14 O27 2.244 . S
O15 Co14 2.216 . S
O15 C22 1.247 . S
O16 Co14 2.091 . S
O16 C22 1.261 . S
C17 O26 1.247 . S
C17 O27 1.272 . S
O18 Co14 2.004 . S
O18 C23 1.259 . S
Co19 O20 2.061 . S
Co19 O25 2.052 . S
Co19 O27 2.135 . S
O20 Co19 2.061 . S
O20 C23 1.235 . S
C21 O24 1.238 . S
C21 O25 1.241 . S
C22 O15 1.247 . S
C22 O16 1.261 . S
C23 O18 1.259 . S
C23 O20 1.235 . S
O24 Co14 2.021 . S
O24 C21 1.238 . S
O25 Co19 2.052 . S
O25 C21 1.241 . S
O26 Co14 2.137 . S
O26 C17 1.247 . S
O27 Co14 2.244 . S
O27 C17 1.272 . S
O27 Co19 2.135 . S
Co28 O29 2.216 . S
Co28 O30 2.091 . S
Co28 O32 2.004 . S
Co28 O38 2.021 . S
Co28 O40 2.137 . S
Co28 O41 2.244 . S
O29 Co28 2.216 . S
O29 C36 1.247 . S
O30 Co28 2.091 . S
O30 C36 1.261 . S
C31 O40 1.247 . S
C31 O41 1.272 . S
O32 Co28 2.004 . S
O32 C37 1.259 . S
Co33 O34 2.061 . S
Co33 O39 2.052 . S
Co33 O41 2.135 . S
O34 Co33 2.061 . S
O34 C37 1.235 . S
C35 O38 1.238 . S
C35 O39 1.241 . S
C36 O29 1.247 . S
C36 O30 1.261 . S
C37 O32 1.259 . S
C37 O34 1.235 . S
O38 Co28 2.021 . S
O38 C35 1.238 . S
O39 Co33 2.052 . S
O39 C35 1.241 . S
O40 Co28 2.137 . S
O40 C31 1.247 . S
O41 Co28 2.244 . S
O41 C31 1.272 . S
O41 Co33 2.135 . S
Co42 O43 2.216 . S
Co42 O44 2.091 . S
Co42 O46 2.004 . S
Co42 O52 2.021 . S
Co42 O54 2.137 . S
Co42 O55 2.244 . S
O43 Co42 2.216 . S
O43 C50 1.247 . S
O44 Co42 2.091 . S
O44 C50 1.261 . S
C45 O54 1.247 . S
C45 O55 1.272 . S
O46 Co42 2.004 . S
O46 C51 1.259 . S
Co47 O48 2.061 . S
Co47 O53 2.052 . S
Co47 O55 2.135 . S
O48 Co47 2.061 . S
O48 C51 1.235 . S
C49 O52 1.238 . S
C49 O53 1.241 . S
C50 O43 1.247 . S
C50 O44 1.261 . S
C51 O46 1.259 . S
C51 O48 1.235 . S
O52 Co42 2.021 . S
O52 C49 1.238 . S
O53 Co47 2.052 . S
O53 C49 1.241 . S
O54 Co42 2.137 . S
O54 C45 1.247 . S
O55 Co42 2.244 . S
O55 C45 1.272 . S
O55 Co47 2.135 . S
Co56 O57 2.216 . S
Co56 O58 2.091 . S
Co56 O60 2.004 . S
Co56 O66 2.021 . S
Co56 O68 2.137 . S
Co56 O69 2.244 . S
O57 Co56 2.216 . S
O57 C64 1.247 . S
O58 Co56 2.091 . S
O58 C64 1.261 . S
C59 O68 1.247 . S
C59 O69 1.272 . S
O60 Co56 2.004 . S
O60 C65 1.259 . S
Co61 O62 2.061 . S
Co61 O67 2.052 . S
Co61 O69 2.135 . S
O62 Co61 2.061 . S
O62 C65 1.235 . S
C63 O66 1.238 . S
C63 O67 1.241 . S
C64 O57 1.247 . S
C64 O58 1.261 . S
C65 O60 1.259 . S
C65 O62 1.235 . S
O66 Co56 2.021 . S
O66 C63 1.238 . S
O67 Co61 2.052 . S
O67 C63 1.241 . S
O68 Co56 2.137 . S
O68 C59 1.247 . S
O69 Co56 2.244 . S
O69 C59 1.272 . S
O69 Co61 2.135 . S
Co70 O71 2.216 . S
Co70 O72 2.091 . S
Co70 O74 2.004 . S
Co70 O80 2.021 . S
Co70 O82 2.137 . S
Co70 O83 2.244 . S
O71 Co70 2.216 . S
O71 C78 1.247 . S
O72 Co70 2.091 . S
O72 C78 1.261 . S
C73 O82 1.247 . S
C73 O83 1.272 . S
O74 Co70 2.004 . S
O74 C79 1.259 . S
Co75 O76 2.061 . S
Co75 O81 2.052 . S
Co75 O83 2.135 . S
O76 Co75 2.061 . S
O76 C79 1.235 . S
C77 O80 1.238 . S
C77 O81 1.241 . S
C78 O71 1.247 . S
C78 O72 1.261 . S
C79 O74 1.259 . S
C79 O76 1.235 . S
O80 Co70 2.021 . S
O80 C77 1.238 . S
O81 Co75 2.052 . S
O81 C77 1.241 . S
O82 Co70 2.137 . S
O82 C73 1.247 . S
O83 Co70 2.244 . S
O83 C73 1.272 . S
O83 Co75 2.135 . S
Co84 O85 2.216 . S
Co84 O86 2.091 . S
Co84 O88 2.004 . S
Co84 O94 2.021 . S
Co84 O96 2.137 . S
Co84 O97 2.244 . S
O85 Co84 2.216 . S
O85 C92 1.247 . S
O86 Co84 2.091 . S
O86 C92 1.261 . S
C87 O96 1.247 . S
C87 O97 1.272 . S
O88 Co84 2.004 . S
O88 C93 1.259 . S
Co89 O90 2.061 . S
Co89 O95 2.052 . S
Co89 O97 2.135 . S
O90 Co89 2.061 . S
O90 C93 1.235 . S
C91 O94 1.238 . S
C91 O95 1.241 . S
C92 O85 1.247 . S
C92 O86 1.261 . S
C93 O88 1.259 . S
C93 O90 1.235 . S
O94 Co84 2.021 . S
O94 C91 1.238 . S
O95 Co89 2.052 . S
O95 C91 1.241 . S
O96 Co84 2.137 . S
O96 C87 1.247 . S
O97 Co84 2.244 . S
O97 C87 1.272 . S
O97 Co89 2.135 . S
Co98 O99 2.216 . S
Co98 O100 2.091 . S
Co98 O102 2.004 . S
Co98 O108 2.021 . S
Co98 O110 2.137 . S
Co98 O111 2.244 . S
O99 Co98 2.216 . S
O99 C106 1.247 . S
O100 Co98 2.091 . S
O100 C106 1.261 . S
C101 O110 1.247 . S
C101 O111 1.272 . S
O102 Co98 2.004 . S
O102 C107 1.259 . S
Co103 O104 2.061 . S
Co103 O109 2.052 . S
Co103 O111 2.135 . S
O104 Co103 2.061 . S
O104 C107 1.235 . S
C105 O108 1.238 . S
C105 O109 1.241 . S
C106 O99 1.247 . S
C106 O100 1.261 . S
C107 O102 1.259 . S
C107 O104 1.235 . S
O108 Co98 2.021 . S
O108 C105 1.238 . S
O109 Co103 2.052 . S
O109 C105 1.241 . S
O110 Co98 2.137 . S
O110 C101 1.247 . S
O111 Co98 2.244 . S
O111 C101 1.272 . S
O111 Co103 2.135 . S
Co112 O113 2.216 . S
Co112 O114 2.091 . S
Co112 O116 2.004 . S
Co112 O122 2.021 . S
Co112 O124 2.137 . S
Co112 O125 2.244 . S
O113 Co112 2.216 . S
O113 C120 1.247 . S
O114 Co112 2.091 . S
O114 C120 1.261 . S
C115 O124 1.247 . S
C115 O125 1.272 . S
O116 Co112 2.004 . S
O116 C121 1.259 . S
Co117 O118 2.061 . S
Co117 O123 2.052 . S
Co117 O125 2.135 . S
O118 Co117 2.061 . S
O118 C121 1.235 . S
C119 O122 1.238 . S
C119 O123 1.241 . S
C120 O113 1.247 . S
C120 O114 1.261 . S
C121 O116 1.259 . S
C121 O118 1.235 . S
O122 Co112 2.021 . S
O122 C119 1.238 . S
O123 Co117 2.052 . S
O123 C119 1.241 . S
O124 Co112 2.137 . S
O124 C115 1.247 . S
O125 Co112 2.244 . S
O125 C115 1.272 . S
O125 Co117 2.135 . S
Co126 O127 2.216 . S
Co126 O128 2.091 . S
Co126 O130 2.004 . S
Co126 O136 2.021 . S
Co126 O138 2.137 . S
Co126 O139 2.244 . S
O127 Co126 2.216 . S
O127 C134 1.247 . S
O128 Co126 2.091 . S
O128 C134 1.261 . S
C129 O138 1.247 . S
C129 O139 1.272 . S
O130 Co126 2.004 . S
O130 C135 1.259 . S
Co131 O132 2.061 . S
Co131 O137 2.052 . S
Co131 O139 2.135 . S
O132 Co131 2.061 . S
O132 C135 1.235 . S
C133 O136 1.238 . S
C133 O137 1.241 . S
C134 O127 1.247 . S
C134 O128 1.261 . S
C135 O130 1.259 . S
C135 O132 1.235 . S
O136 Co126 2.021 . S
O136 C133 1.238 . S
O137 Co131 2.052 . S
O137 C133 1.241 . S
O138 Co126 2.137 . S
O138 C129 1.247 . S
O139 Co126 2.244 . S
O139 C129 1.272 . S
O139 Co131 2.135 . S
Co140 O141 2.216 . S
Co140 O142 2.091 . S
Co140 O144 2.004 . S
Co140 O150 2.021 . S
Co140 O152 2.137 . S
Co140 O153 2.244 . S
O141 Co140 2.216 . S
O141 C148 1.247 . S
O142 Co140 2.091 . S
O142 C148 1.261 . S
C143 O152 1.247 . S
C143 O153 1.272 . S
O144 Co140 2.004 . S
O144 C149 1.259 . S
Co145 O146 2.061 . S
Co145 O151 2.052 . S
Co145 O153 2.135 . S
O146 Co145 2.061 . S
O146 C149 1.235 . S
C147 O150 1.238 . S
C147 O151 1.241 . S
C148 O141 1.247 . S
C148 O142 1.261 . S
C149 O144 1.259 . S
C149 O146 1.235 . S
O150 Co140 2.021 . S
O150 C147 1.238 . S
O151 Co145 2.052 . S
O151 C147 1.241 . S
O152 Co140 2.137 . S
O152 C143 1.247 . S
O153 Co140 2.244 . S
O153 C143 1.272 . S
O153 Co145 2.135 . S
Co154 O155 2.216 . S
Co154 O156 2.091 . S
Co154 O158 2.004 . S
Co154 O164 2.021 . S
Co154 O166 2.137 . S
Co154 O167 2.244 . S
O155 Co154 2.216 . S
O155 C162 1.247 . S
O156 Co154 2.091 . S
O156 C162 1.261 . S
C157 O166 1.247 . S
C157 O167 1.272 . S
O158 Co154 2.004 . S
O158 C163 1.259 . S
Co159 O160 2.061 . S
Co159 O165 2.052 . S
Co159 O167 2.135 . S
O160 Co159 2.061 . S
O160 C163 1.235 . S
C161 O164 1.238 . S
C161 O165 1.241 . S
C162 O155 1.247 . S
C162 O156 1.261 . S
C163 O158 1.259 . S
C163 O160 1.235 . S
O164 Co154 2.021 . S
O164 C161 1.238 . S
O165 Co159 2.052 . S
O165 C161 1.241 . S
O166 Co154 2.137 . S
O166 C157 1.247 . S
O167 Co154 2.244 . S
O167 C157 1.272 . S
O167 Co159 2.135 . S
Co168 O169 2.216 . S
Co168 O170 2.091 . S
Co168 O172 2.004 . S
Co168 O178 2.021 . S
Co168 O180 2.137 . S
Co168 O181 2.244 . S
O169 Co168 2.216 . S
O169 C176 1.247 . S
O170 Co168 2.091 . S
O170 C176 1.261 . S
C171 O180 1.247 . S
C171 O181 1.272 . S
O172 Co168 2.004 . S
O172 C177 1.259 . S
Co173 O174 2.061 . S
Co173 O179 2.052 . S
Co173 O181 2.135 . S
O174 Co173 2.061 . S
O174 C177 1.235 . S
C175 O178 1.238 . S
C175 O179 1.241 . S
C176 O169 1.247 . S
C176 O170 1.261 . S
C177 O172 1.259 . S
C177 O174 1.235 . S
O178 Co168 2.021 . S
O178 C175 1.238 . S
O179 Co173 2.052 . S
O179 C175 1.241 . S
O180 Co168 2.137 . S
O180 C171 1.247 . S
O181 Co168 2.244 . S
O181 C171 1.272 . S
O181 Co173 2.135 . S
Co182 O183 2.216 . S
Co182 O184 2.091 . S
Co182 O186 2.004 . S
Co182 O192 2.021 . S
Co182 O194 2.137 . S
Co182 O195 2.244 . S
O183 Co182 2.216 . S
O183 C190 1.247 . S
O184 Co182 2.091 . S
O184 C190 1.261 . S
C185 O194 1.247 . S
C185 O195 1.272 . S
O186 Co182 2.004 . S
O186 C191 1.259 . S
Co187 O188 2.061 . S
Co187 O193 2.052 . S
Co187 O195 2.135 . S
O188 Co187 2.061 . S
O188 C191 1.235 . S
C189 O192 1.238 . S
C189 O193 1.241 . S
C190 O183 1.247 . S
C190 O184 1.261 . S
C191 O186 1.259 . S
C191 O188 1.235 . S
O192 Co182 2.021 . S
O192 C189 1.238 . S
O193 Co187 2.052 . S
O193 C189 1.241 . S
O194 Co182 2.137 . S
O194 C185 1.247 . S
O195 Co182 2.244 . S
O195 C185 1.272 . S
O195 Co187 2.135 . S
Co196 O197 2.216 . S
Co196 O198 2.091 . S
Co196 O200 2.004 . S
Co196 O206 2.021 . S
Co196 O208 2.137 . S
Co196 O209 2.244 . S
O197 Co196 2.216 . S
O197 C204 1.247 . S
O198 Co196 2.091 . S
O198 C204 1.261 . S
C199 O208 1.247 . S
C199 O209 1.272 . S
O200 Co196 2.004 . S
O200 C205 1.259 . S
Co201 O202 2.061 . S
Co201 O207 2.052 . S
Co201 O209 2.135 . S
O202 Co201 2.061 . S
O202 C205 1.235 . S
C203 O206 1.238 . S
C203 O207 1.241 . S
C204 O197 1.247 . S
C204 O198 1.261 . S
C205 O200 1.259 . S
C205 O202 1.235 . S
O206 Co196 2.021 . S
O206 C203 1.238 . S
O207 Co201 2.052 . S
O207 C203 1.241 . S
O208 Co196 2.137 . S
O208 C199 1.247 . S
O209 Co196 2.244 . S
O209 C199 1.272 . S
O209 Co201 2.135 . S
Co210 O211 2.216 . S
Co210 O212 2.091 . S
Co210 O214 2.004 . S
Co210 O220 2.021 . S
Co210 O222 2.137 . S
Co210 O223 2.244 . S
O211 Co210 2.216 . S
O211 C218 1.247 . S
O212 Co210 2.091 . S
O212 C218 1.261 . S
C213 O222 1.247 . S
C213 O223 1.272 . S
O214 Co210 2.004 . S
O214 C219 1.259 . S
Co215 O216 2.061 . S
Co215 O221 2.052 . S
Co215 O223 2.135 . S
O216 Co215 2.061 . S
O216 C219 1.235 . S
C217 O220 1.238 . S
C217 O221 1.241 . S
C218 O211 1.247 . S
C218 O212 1.261 . S
C219 O214 1.259 . S
C219 O216 1.235 . S
O220 Co210 2.021 . S
O220 C217 1.238 . S
O221 Co215 2.052 . S
O221 C217 1.241 . S
O222 Co210 2.137 . S
O222 C213 1.247 . S
O223 Co210 2.244 . S
O223 C213 1.272 . S
O223 Co215 2.135 . S
C224 C225 1.387 . S
C224 H228 0.950 . S
C224 C233 1.390 . S
C225 C224 1.387 . S
C225 C227 1.387 . S
H226 C233 0.950 . S
C227 C225 1.387 . S
C227 C229 1.390 . S
C227 H231 0.950 . S
H228 C224 0.950 . S
C229 C227 1.390 . S
C229 C230 1.387 . S
C229 H232 0.950 . S
C230 C229 1.387 . S
C230 C233 1.387 . S
H231 C227 0.950 . S
H232 C229 0.950 . S
C233 C224 1.390 . S
C233 H226 0.950 . S
C233 C230 1.387 . S
C234 C235 1.387 . S
C234 H238 0.950 . S
C234 C243 1.390 . S
C235 C234 1.387 . S
C235 C237 1.387 . S
H236 C243 0.950 . S
C237 C235 1.387 . S
C237 C239 1.390 . S
C237 H241 0.950 . S
H238 C234 0.950 . S
C239 C237 1.390 . S
C239 C240 1.387 . S
C239 H242 0.950 . S
C240 C239 1.387 . S
C240 C243 1.387 . S
H241 C237 0.950 . S
H242 C239 0.950 . S
C243 C234 1.390 . S
C243 H236 0.950 . S
C243 C240 1.387 . S
C244 C245 1.387 . S
C244 H248 0.950 . S
C244 C253 1.390 . S
C245 C244 1.387 . S
C245 C247 1.387 . S
H246 C253 0.950 . S
C247 C245 1.387 . S
C247 C249 1.390 . S
C247 H251 0.950 . S
H248 C244 0.950 . S
C249 C247 1.390 . S
C249 C250 1.387 . S
C249 H252 0.950 . S
C250 C249 1.387 . S
C250 C253 1.387 . S
H251 C247 0.950 . S
H252 C249 0.950 . S
C253 C244 1.390 . S
C253 H246 0.950 . S
C253 C250 1.387 . S
C254 C255 1.387 . S
C254 H258 0.950 . S
C254 C263 1.390 . S
C255 C254 1.387 . S
C255 C257 1.387 . S
H256 C263 0.950 . S
C257 C255 1.387 . S
C257 C259 1.390 . S
C257 H261 0.950 . S
H258 C254 0.950 . S
C259 C257 1.390 . S
C259 C260 1.387 . S
C259 H262 0.950 . S
C260 C259 1.387 . S
C260 C263 1.387 . S
H261 C257 0.950 . S
H262 C259 0.950 . S
C263 C254 1.390 . S
C263 H256 0.950 . S
C263 C260 1.387 . S
C264 C265 1.387 . S
C264 H268 0.950 . S
C264 C273 1.390 . S
C265 C264 1.387 . S
C265 C267 1.387 . S
H266 C273 0.950 . S
C267 C265 1.387 . S
C267 C269 1.390 . S
C267 H271 0.950 . S
H268 C264 0.950 . S
C269 C267 1.390 . S
C269 C270 1.387 . S
C269 H272 0.950 . S
C270 C269 1.387 . S
C270 C273 1.387 . S
H271 C267 0.950 . S
H272 C269 0.950 . S
C273 C264 1.390 . S
C273 H266 0.950 . S
C273 C270 1.387 . S
C274 C275 1.387 . S
C274 H278 0.950 . S
C274 C283 1.390 . S
C275 C274 1.387 . S
C275 C277 1.387 . S
H276 C283 0.950 . S
C277 C275 1.387 . S
C277 C279 1.390 . S
C277 H281 0.950 . S
H278 C274 0.950 . S
C279 C277 1.390 . S
C279 C280 1.387 . S
C279 H282 0.950 . S
C280 C279 1.387 . S
C280 C283 1.387 . S
H281 C277 0.950 . S
H282 C279 0.950 . S
C283 C274 1.390 . S
C283 H276 0.950 . S
C283 C280 1.387 . S
C284 C285 1.387 . S
C284 H288 0.950 . S
C284 C293 1.390 . S
C285 C284 1.387 . S
C285 C287 1.387 . S
H286 C293 0.950 . S
C287 C285 1.387 . S
C287 C289 1.390 . S
C287 H291 0.950 . S
H288 C284 0.950 . S
C289 C287 1.390 . S
C289 C290 1.387 . S
C289 H292 0.950 . S
C290 C289 1.387 . S
C290 C293 1.387 . S
H291 C287 0.950 . S
H292 C289 0.950 . S
C293 C284 1.390 . S
C293 H286 0.950 . S
C293 C290 1.387 . S
C294 C295 1.387 . S
C294 H298 0.950 . S
C294 C303 1.390 . S
C295 C294 1.387 . S
C295 C297 1.387 . S
H296 C303 0.950 . S
C297 C295 1.387 . S
C297 C299 1.390 . S
C297 H301 0.950 . S
H298 C294 0.950 . S
C299 C297 1.390 . S
C299 C300 1.387 . S
C299 H302 0.950 . S
C300 C299 1.387 . S
C300 C303 1.387 . S
H301 C297 0.950 . S
H302 C299 0.950 . S
C303 C294 1.390 . S
C303 H296 0.950 . S
C303 C300 1.387 . S
C304 C305 1.387 . S
C304 H308 0.950 . S
C304 C313 1.390 1_556 S
C305 C304 1.387 . S
C305 C307 1.387 . S
H306 C313 0.950 . S
C307 C305 1.387 . S
C307 C309 1.390 1_556 S
C307 H311 0.950 . S
H308 C304 0.950 . S
C309 C307 1.390 1_554 S
C309 C310 1.387 . S
C309 H312 0.950 . S
C310 C309 1.387 . S
C310 C313 1.387 . S
H311 C307 0.950 . S
H312 C309 0.950 . S
C313 C304 1.390 1_554 S
C313 H306 0.950 . S
C313 C310 1.387 . S
C314 C315 1.387 . S
C314 H318 0.950 . S
C314 C323 1.390 1_556 S
C315 C314 1.387 . S
C315 C317 1.387 . S
H316 C323 0.950 . S
C317 C315 1.387 . S
C317 C319 1.390 1_556 S
C317 H321 0.950 . S
H318 C314 0.950 . S
C319 C317 1.390 1_554 S
C319 C320 1.387 . S
C319 H322 0.950 . S
C320 C319 1.387 . S
C320 C323 1.387 . S
H321 C317 0.950 . S
H322 C319 0.950 . S
C323 C314 1.390 1_554 S
C323 H316 0.950 . S
C323 C320 1.387 . S
C324 C325 1.387 . S
C324 H328 0.950 . S
C324 C333 1.390 1_556 S
C325 C324 1.387 . S
C325 C327 1.387 . S
H326 C333 0.950 . S
C327 C325 1.387 . S
C327 C329 1.390 1_556 S
C327 H331 0.950 . S
H328 C324 0.950 . S
C329 C327 1.390 1_554 S
C329 C330 1.387 . S
C329 H332 0.950 . S
C330 C329 1.387 . S
C330 C333 1.387 . S
H331 C327 0.950 . S
H332 C329 0.950 . S
C333 C324 1.390 1_554 S
C333 H326 0.950 . S
C333 C330 1.387 . S
C334 C335 1.387 . S
C334 H338 0.950 . S
C334 C343 1.390 1_554 S
C335 C334 1.387 . S
C335 C337 1.387 . S
H336 C343 0.950 . S
C337 C335 1.387 . S
C337 C339 1.390 1_554 S
C337 H341 0.950 . S
H338 C334 0.950 . S
C339 C337 1.390 1_556 S
C339 C340 1.387 . S
C339 H342 0.950 . S
C340 C339 1.387 . S
C340 C343 1.387 . S
H341 C337 0.950 . S
H342 C339 0.950 . S
C343 C334 1.390 1_556 S
C343 H336 0.950 . S
C343 C340 1.387 . S
C344 C345 1.387 . S
C344 H348 0.950 . S
C344 C353 1.390 1_455 S
C345 C344 1.387 . S
C345 C347 1.387 . S
H346 C353 0.950 . S
C347 C345 1.387 . S
C347 C349 1.390 1_455 S
C347 H351 0.950 . S
H348 C344 0.950 . S
C349 C347 1.390 1_655 S
C349 C350 1.387 . S
C349 H352 0.950 . S
C350 C349 1.387 . S
C350 C353 1.387 . S
H351 C347 0.950 . S
H352 C349 0.950 . S
C353 C344 1.390 1_655 S
C353 H346 0.950 . S
C353 C350 1.387 . S
C354 C355 1.387 . S
C354 H358 0.950 . S
C354 C363 1.390 1_565 S
C355 C354 1.387 . S
C355 C357 1.387 . S
H356 C363 0.950 . S
C357 C355 1.387 . S
C357 C359 1.390 1_565 S
C357 H361 0.950 . S
H358 C354 0.950 . S
C359 C357 1.390 1_545 S
C359 C360 1.387 . S
C359 H362 0.950 . S
C360 C359 1.387 . S
C360 C363 1.387 . S
H361 C357 0.950 . S
H362 C359 0.950 . S
C363 C354 1.390 1_545 S
C363 H356 0.950 . S
C363 C360 1.387 . S
C364 C365 1.387 . S
C364 H368 0.950 . S
C364 C373 1.390 1_655 S
C365 C364 1.387 . S
C365 C367 1.387 . S
H366 C373 0.950 . S
C367 C365 1.387 . S
C367 C369 1.390 1_655 S
C367 H371 0.950 . S
H368 C364 0.950 . S
C369 C367 1.390 1_455 S
C369 C370 1.387 . S
C369 H372 0.950 . S
C370 C369 1.387 . S
C370 C373 1.387 . S
H371 C367 0.950 . S
H372 C369 0.950 . S
C373 C364 1.390 1_455 S
C373 H366 0.950 . S
C373 C370 1.387 . S
C374 C375 1.387 . S
C374 H378 0.950 . S
C374 C383 1.390 1_545 S
C375 C374 1.387 . S
C375 C377 1.387 . S
H376 C383 0.950 . S
C377 C375 1.387 . S
C377 C379 1.390 1_545 S
C377 H381 0.950 . S
H378 C374 0.950 . S
C379 C377 1.390 1_565 S
C379 C380 1.387 . S
C379 H382 0.950 . S
C380 C379 1.387 . S
C380 C383 1.387 . S
H381 C377 0.950 . S
H382 C379 0.950 . S
C383 C374 1.390 1_565 S
C383 H376 0.950 . S
C383 C380 1.387 . S
C384 C385 1.387 . S
C384 H388 0.950 . S
C384 C393 1.390 1_655 S
C385 C384 1.387 . S
C385 C387 1.387 . S
H386 C393 0.950 . S
C387 C385 1.387 . S
C387 C389 1.390 1_655 S
C387 H391 0.950 . S
H388 C384 0.950 . S
C389 C387 1.390 1_455 S
C389 C390 1.387 . S
C389 H392 0.950 . S
C390 C389 1.387 . S
C390 C393 1.387 . S
H391 C387 0.950 . S
H392 C389 0.950 . S
C393 C384 1.390 1_455 S
C393 H386 0.950 . S
C393 C390 1.387 . S
C394 C395 1.387 . S
C394 H398 0.950 . S
C394 C403 1.390 1_565 S
C395 C394 1.387 . S
C395 C397 1.387 . S
H396 C403 0.950 . S
C397 C395 1.387 . S
C397 C399 1.390 1_565 S
C397 H401 0.950 . S
H398 C394 0.950 . S
C399 C397 1.390 1_545 S
C399 C400 1.387 . S
C399 H402 0.950 . S
C400 C399 1.387 . S
C400 C403 1.387 . S
H401 C397 0.950 . S
H402 C399 0.950 . S
C403 C394 1.390 1_545 S
C403 H396 0.950 . S
C403 C400 1.387 . S
C404 C405 1.387 . S
C404 H408 0.950 . S
C404 C413 1.390 1_455 S
C405 C404 1.387 . S
C405 C407 1.387 . S
H406 C413 0.950 . S
C407 C405 1.387 . S
C407 C409 1.390 1_455 S
C407 H411 0.950 . S
H408 C404 0.950 . S
C409 C407 1.390 1_655 S
C409 C410 1.387 . S
C409 H412 0.950 . S
C410 C409 1.387 . S
C410 C413 1.387 . S
H411 C407 0.950 . S
H412 C409 0.950 . S
C413 C404 1.390 1_655 S
C413 H406 0.950 . S
C413 C410 1.387 . S
C414 C415 1.387 . S
C414 H418 0.950 . S
C414 C423 1.390 1_565 S
C415 C414 1.387 . S
C415 C417 1.387 . S
H416 C423 0.950 . S
C417 C415 1.387 . S
C417 C419 1.390 1_565 S
C417 H421 0.950 . S
H418 C414 0.950 . S
C419 C417 1.390 1_545 S
C419 C420 1.387 . S
C419 H422 0.950 . S
C420 C419 1.387 . S
C420 C423 1.387 . S
H421 C417 0.950 . S
H422 C419 0.950 . S
C423 C414 1.390 1_545 S
C423 H416 0.950 . S
C423 C420 1.387 . S
C424 C425 1.387 . S
C424 H428 0.950 . S
C424 C433 1.390 . S
C425 C424 1.387 . S
C425 C427 1.387 . S
H426 C433 0.950 . S
C427 C425 1.387 . S
C427 C429 1.390 . S
C427 H431 0.950 . S
H428 C424 0.950 . S
C429 C427 1.390 . S
C429 C430 1.387 . S
C429 H432 0.950 . S
C430 C429 1.387 . S
C430 C433 1.387 . S
H431 C427 0.950 . S
H432 C429 0.950 . S
C433 C424 1.390 . S
C433 H426 0.950 . S
C433 C430 1.387 . S
C434 C435 1.387 . S
C434 H438 0.950 . S
C434 C443 1.390 . S
C435 C434 1.387 . S
C435 C437 1.387 . S
H436 C443 0.950 . S
C437 C435 1.387 . S
C437 C439 1.390 . S
C437 H441 0.950 . S
H438 C434 0.950 . S
C439 C437 1.390 . S
C439 C440 1.387 . S
C439 H442 0.950 . S
C440 C439 1.387 . S
C440 C443 1.387 . S
H441 C437 0.950 . S
H442 C439 0.950 . S
C443 C434 1.390 . S
C443 H436 0.950 . S
C443 C440 1.387 . S
C444 C445 1.387 . S
C444 H448 0.950 . S
C444 C453 1.390 . S
C445 C444 1.387 . S
C445 C447 1.387 . S
H446 C453 0.950 . S
C447 C445 1.387 . S
C447 C449 1.390 . S
C447 H451 0.950 . S
H448 C444 0.950 . S
C449 C447 1.390 . S
C449 C450 1.387 . S
C449 H452 0.950 . S
C450 C449 1.387 . S
C450 C453 1.387 . S
H451 C447 0.950 . S
H452 C449 0.950 . S
C453 C444 1.390 . S
C453 H446 0.950 . S
C453 C450 1.387 . S
C454 C455 1.387 . S
C454 H458 0.950 . S
C454 C463 1.390 . S
C455 C454 1.387 . S
C455 C457 1.387 . S
H456 C463 0.950 . S
C457 C455 1.387 . S
C457 C459 1.390 . S
C457 H461 0.950 . S
H458 C454 0.950 . S
C459 C457 1.390 . S
C459 C460 1.387 . S
C459 H462 0.950 . S
C460 C459 1.387 . S
C460 C463 1.387 . S
H461 C457 0.950 . S
H462 C459 0.950 . S
C463 C454 1.390 . S
C463 H456 0.950 . S
C463 C460 1.387 . S
C464 C465 1.387 . S
C464 H468 0.950 . S
C464 C473 1.390 . S
C465 C464 1.387 . S
C465 C467 1.387 . S
H466 C473 0.950 . S
C467 C465 1.387 . S
C467 C469 1.390 . S
C467 H471 0.950 . S
H468 C464 0.950 . S
C469 C467 1.390 . S
C469 C470 1.387 . S
C469 H472 0.950 . S
C470 C469 1.387 . S
C470 C473 1.387 . S
H471 C467 0.950 . S
H472 C469 0.950 . S
C473 C464 1.390 . S
C473 H466 0.950 . S
C473 C470 1.387 . S
C474 C475 1.387 . S
C474 H478 0.950 . S
C474 C483 1.390 . S
C475 C474 1.387 . S
C475 C477 1.387 . S
H476 C483 0.950 . S
C477 C475 1.387 . S
C477 C479 1.390 . S
C477 H481 0.950 . S
H478 C474 0.950 . S
C479 C477 1.390 . S
C479 C480 1.387 . S
C479 H482 0.950 . S
C480 C479 1.387 . S
C480 C483 1.387 . S
H481 C477 0.950 . S
H482 C479 0.950 . S
C483 C474 1.390 . S
C483 H476 0.950 . S
C483 C480 1.387 . S
C484 C485 1.387 . S
C484 H488 0.950 . S
C484 C493 1.390 . S
C485 C484 1.387 . S
C485 C487 1.387 . S
H486 C493 0.950 . S
C487 C485 1.387 . S
C487 C489 1.390 . S
C487 H491 0.950 . S
H488 C484 0.950 . S
C489 C487 1.390 . S
C489 C490 1.387 . S
C489 H492 0.950 . S
C490 C489 1.387 . S
C490 C493 1.387 . S
H491 C487 0.950 . S
H492 C489 0.950 . S
C493 C484 1.390 . S
C493 H486 0.950 . S
C493 C490 1.387 . S
C494 C495 1.387 . S
C494 H498 0.950 . S
C494 C503 1.390 . S
C495 C494 1.387 . S
C495 C497 1.387 . S
H496 C503 0.950 . S
C497 C495 1.387 . S
C497 C499 1.390 . S
C497 H501 0.950 . S
H498 C494 0.950 . S
C499 C497 1.390 . S
C499 C500 1.387 . S
C499 H502 0.950 . S
C500 C499 1.387 . S
C500 C503 1.387 . S
H501 C497 0.950 . S
H502 C499 0.950 . S
C503 C494 1.390 . S
C503 H496 0.950 . S
C503 C500 1.387 . S
C504 C505 1.387 . S
C504 H508 0.950 . S
C504 C513 1.390 . S
C505 C504 1.387 . S
C505 C507 1.387 . S
H506 C513 0.950 . S
C507 C505 1.387 . S
C507 C509 1.390 . S
C507 H511 0.950 . S
H508 C504 0.950 . S
C509 C507 1.390 . S
C509 C510 1.387 . S
C509 H512 0.950 . S
C510 C509 1.387 . S
C510 C513 1.387 . S
H511 C507 0.950 . S
H512 C509 0.950 . S
C513 C504 1.390 . S
C513 H506 0.950 . S
C513 C510 1.387 . S
C514 C515 1.387 . S
C514 H518 0.950 . S
C514 C523 1.390 . S
C515 C514 1.387 . S
C515 C517 1.387 . S
H516 C523 0.950 . S
C517 C515 1.387 . S
C517 C519 1.390 . S
C517 H521 0.950 . S
H518 C514 0.950 . S
C519 C517 1.390 . S
C519 C520 1.387 . S
C519 H522 0.950 . S
C520 C519 1.387 . S
C520 C523 1.387 . S
H521 C517 0.950 . S
H522 C519 0.950 . S
C523 C514 1.390 . S
C523 H516 0.950 . S
C523 C520 1.387 . S
C524 C525 1.387 . S
C524 H528 0.950 . S
C524 C533 1.390 . S
C525 C524 1.387 . S
C525 C527 1.387 . S
H526 C533 0.950 . S
C527 C525 1.387 . S
C527 C529 1.390 . S
C527 H531 0.950 . S
H528 C524 0.950 . S
C529 C527 1.390 . S
C529 C530 1.387 . S
C529 H532 0.950 . S
C530 C529 1.387 . S
C530 C533 1.387 . S
H531 C527 0.950 . S
H532 C529 0.950 . S
C533 C524 1.390 . S
C533 H526 0.950 . S
C533 C530 1.387 . S
C534 C535 1.387 . S
C534 H538 0.950 . S
C534 C543 1.390 . S
C535 C534 1.387 . S
C535 C537 1.387 . S
H536 C543 0.950 . S
C537 C535 1.387 . S
C537 C539 1.390 . S
C537 H541 0.950 . S
H538 C534 0.950 . S
C539 C537 1.390 . S
C539 C540 1.387 . S
C539 H542 0.950 . S
C540 C539 1.387 . S
C540 C543 1.387 . S
H541 C537 0.950 . S
H542 C539 0.950 . S
C543 C534 1.390 . S
C543 H536 0.950 . S
C543 C540 1.387 . S
C225 C218 1.384 . S
C230 C8 1.384 . S
C235 C176 1.384 . S
C240 C22 1.384 . S
C245 C36 1.381 . S
C250 C190 1.381 . S
C255 C204 1.384 . S
C260 C50 1.384 . S
C265 C134 1.384 . S
C270 C64 1.384 . S
C275 C78 1.384 . S
C280 C148 1.384 . S
C285 C92 1.384 . S
C290 C162 1.384 . S
C295 C106 1.384 . S
C300 C120 1.384 . S
C305 C73 1.664 . S
C310 C7 1.571 . S
C315 C91 1.570 . S
C320 C17 1.664 . S
C325 C101 1.663 . S
C330 C35 1.573 . S
C335 C45 1.664 . S
C340 C63 1.571 . S
C345 C9 1.334 . S
C350 C23 1.335 . S
C355 C31 1.664 . S
C360 C21 1.571 . S
C365 C37 1.333 . S
C370 C51 1.336 . S
C375 C3 1.664 . S
C380 C49 1.572 . S
C385 C107 1.335 . S
C390 C65 1.334 . S
C395 C59 1.664 . S
C400 C77 1.572 . S
C405 C79 1.336 . S
C410 C93 1.333 . S
C415 C105 1.573 . S
C420 C87 1.663 . S
C425 C185 1.663 . S
C430 C119 1.573 . S
C435 C129 1.664 . S
C440 C203 1.570 . S
C445 C213 1.664 . S
C450 C147 1.571 . S
C455 C175 1.570 . S
C460 C157 1.664 . S
C465 C121 1.335 . S
C470 C135 1.335 . S
C475 C133 1.573 . S
C480 C143 1.663 . S
C485 C163 1.334 . S
C490 C149 1.335 . S
C495 C115 1.664 . S
C500 C161 1.571 . S
C505 C219 1.334 . S
C510 C177 1.335 . S
C515 C171 1.664 . S
C520 C189 1.569 . S
C525 C191 1.335 . S
C530 C205 1.335 . S
C535 C217 1.573 . S
C540 C199 1.663 . S
