# Generated by pormake.
# Topology gme, (4)-cn, num edge types: 1
# Building blocks:
#     Node 0, Type 0, BuildingBlock: UXUYUI_clean_sbu_0, # of connection points: 4
#     Node 1, Type 0, BuildingBlock: UXUYUI_clean_sbu_0, # of connection points: 4
#     Node 2, Type 0, BuildingBlock: UXUYUI_clean_sbu_0, # of connection points: 4
#     Node 3, Type 0, BuildingBlock: UXUYUI_clean_sbu_0, # of connection points: 4
#     Node 4, Type 0, BuildingBlock: UXUYUI_clean_sbu_0, # of connection points: 4
#     Node 5, Type 0, BuildingBlock: UXUYUI_clean_sbu_0, # of connection points: 4
#     Node 6, Type 0, BuildingBlock: UXUYUI_clean_sbu_0, # of connection points: 4
#     Node 7, Type 0, BuildingBlock: UXUYUI_clean_sbu_0, # of connection points: 4
#     Node 8, Type 0, BuildingBlock: UXUYUI_clean_sbu_0, # of connection points: 4
#     Node 9, Type 0, BuildingBlock: UXUYUI_clean_sbu_0, # of connection points: 4
#     Node 10, Type 0, BuildingBlock: UXUYUI_clean_sbu_0, # of connection points: 4
#     Node 11, Type 0, BuildingBlock: UXUYUI_clean_sbu_0, # of connection points: 4
#     Node 12, Type 0, BuildingBlock: UXUYUI_clean_sbu_0, # of connection points: 4
#     Node 13, Type 0, BuildingBlock: UXUYUI_clean_sbu_0, # of connection points: 4
#     Node 14, Type 0, BuildingBlock: UXUYUI_clean_sbu_0, # of connection points: 4
#     Node 15, Type 0, BuildingBlock: UXUYUI_clean_sbu_0, # of connection points: 4
#     Node 16, Type 0, BuildingBlock: UXUYUI_clean_sbu_0, # of connection points: 4
#     Node 17, Type 0, BuildingBlock: UXUYUI_clean_sbu_0, # of connection points: 4
#     Node 18, Type 0, BuildingBlock: UXUYUI_clean_sbu_0, # of connection points: 4
#     Node 19, Type 0, BuildingBlock: UXUYUI_clean_sbu_0, # of connection points: 4
#     Node 20, Type 0, BuildingBlock: UXUYUI_clean_sbu_0, # of connection points: 4
#     Node 21, Type 0, BuildingBlock: UXUYUI_clean_sbu_0, # of connection points: 4
#     Node 22, Type 0, BuildingBlock: UXUYUI_clean_sbu_0, # of connection points: 4
#     Node 23, Type 0, BuildingBlock: UXUYUI_clean_sbu_0, # of connection points: 4
#     Edge 24, Type (0, 0), BuildingBlock: ZUJKAS_clean_linker_0, # of connection points: 2
#     Edge 25, Type (0, 0), BuildingBlock: ZUJKAS_clean_linker_0, # of connection points: 2
#     Edge 26, Type (0, 0), BuildingBlock: ZUJKAS_clean_linker_0, # of connection points: 2
#     Edge 27, Type (0, 0), BuildingBlock: ZUJKAS_clean_linker_0, # of connection points: 2
#     Edge 28, Type (0, 0), BuildingBlock: ZUJKAS_clean_linker_0, # of connection points: 2
#     Edge 29, Type (0, 0), BuildingBlock: ZUJKAS_clean_linker_0, # of connection points: 2
#     Edge 30, Type (0, 0), BuildingBlock: ZUJKAS_clean_linker_0, # of connection points: 2
#     Edge 31, Type (0, 0), BuildingBlock: ZUJKAS_clean_linker_0, # of connection points: 2
#     Edge 32, Type (0, 0), BuildingBlock: ZUJKAS_clean_linker_0, # of connection points: 2
#     Edge 33, Type (0, 0), BuildingBlock: ZUJKAS_clean_linker_0, # of connection points: 2
#     Edge 34, Type (0, 0), BuildingBlock: ZUJKAS_clean_linker_0, # of connection points: 2
#     Edge 35, Type (0, 0), BuildingBlock: ZUJKAS_clean_linker_0, # of connection points: 2
#     Edge 36, Type (0, 0), BuildingBlock: ZUJKAS_clean_linker_0, # of connection points: 2
#     Edge 37, Type (0, 0), BuildingBlock: ZUJKAS_clean_linker_0, # of connection points: 2
#     Edge 38, Type (0, 0), BuildingBlock: ZUJKAS_clean_linker_0, # of connection points: 2
#     Edge 39, Type (0, 0), BuildingBlock: ZUJKAS_clean_linker_0, # of connection points: 2
#     Edge 40, Type (0, 0), BuildingBlock: ZUJKAS_clean_linker_0, # of connection points: 2
#     Edge 41, Type (0, 0), BuildingBlock: ZUJKAS_clean_linker_0, # of connection points: 2
#     Edge 42, Type (0, 0), BuildingBlock: ZUJKAS_clean_linker_0, # of connection points: 2
#     Edge 43, Type (0, 0), BuildingBlock: ZUJKAS_clean_linker_0, # of connection points: 2
#     Edge 44, Type (0, 0), BuildingBlock: ZUJKAS_clean_linker_0, # of connection points: 2
#     Edge 45, Type (0, 0), BuildingBlock: ZUJKAS_clean_linker_0, # of connection points: 2
#     Edge 46, Type (0, 0), BuildingBlock: ZUJKAS_clean_linker_0, # of connection points: 2
#     Edge 47, Type (0, 0), BuildingBlock: ZUJKAS_clean_linker_0, # of connection points: 2
#     Edge 48, Type (0, 0), BuildingBlock: ZUJKAS_clean_linker_0, # of connection points: 2
#     Edge 49, Type (0, 0), BuildingBlock: ZUJKAS_clean_linker_0, # of connection points: 2
#     Edge 50, Type (0, 0), BuildingBlock: ZUJKAS_clean_linker_0, # of connection points: 2
#     Edge 51, Type (0, 0), BuildingBlock: ZUJKAS_clean_linker_0, # of connection points: 2
#     Edge 52, Type (0, 0), BuildingBlock: ZUJKAS_clean_linker_0, # of connection points: 2
#     Edge 53, Type (0, 0), BuildingBlock: ZUJKAS_clean_linker_0, # of connection points: 2
#     Edge 54, Type (0, 0), BuildingBlock: ZUJKAS_clean_linker_0, # of connection points: 2
#     Edge 55, Type (0, 0), BuildingBlock: ZUJKAS_clean_linker_0, # of connection points: 2
#     Edge 56, Type (0, 0), BuildingBlock: ZUJKAS_clean_linker_0, # of connection points: 2
#     Edge 57, Type (0, 0), BuildingBlock: ZUJKAS_clean_linker_0, # of connection points: 2
#     Edge 58, Type (0, 0), BuildingBlock: ZUJKAS_clean_linker_0, # of connection points: 2
#     Edge 59, Type (0, 0), BuildingBlock: ZUJKAS_clean_linker_0, # of connection points: 2
#     Edge 60, Type (0, 0), BuildingBlock: ZUJKAS_clean_linker_0, # of connection points: 2
#     Edge 61, Type (0, 0), BuildingBlock: ZUJKAS_clean_linker_0, # of connection points: 2
#     Edge 62, Type (0, 0), BuildingBlock: ZUJKAS_clean_linker_0, # of connection points: 2
#     Edge 63, Type (0, 0), BuildingBlock: ZUJKAS_clean_linker_0, # of connection points: 2
#     Edge 64, Type (0, 0), BuildingBlock: ZUJKAS_clean_linker_0, # of connection points: 2
#     Edge 65, Type (0, 0), BuildingBlock: ZUJKAS_clean_linker_0, # of connection points: 2
#     Edge 66, Type (0, 0), BuildingBlock: ZUJKAS_clean_linker_0, # of connection points: 2
#     Edge 67, Type (0, 0), BuildingBlock: ZUJKAS_clean_linker_0, # of connection points: 2
#     Edge 68, Type (0, 0), BuildingBlock: ZUJKAS_clean_linker_0, # of connection points: 2
#     Edge 69, Type (0, 0), BuildingBlock: ZUJKAS_clean_linker_0, # of connection points: 2
#     Edge 70, Type (0, 0), BuildingBlock: ZUJKAS_clean_linker_0, # of connection points: 2
#     Edge 71, Type (0, 0), BuildingBlock: ZUJKAS_clean_linker_0, # of connection points: 2
# Relax obj value: 0.245
# Max RMSD: 0.175
# Mean RMSD: 0.174
data_MOF--net-gme--node1-UXUYUI_clean_sbu_0--edge1-ZUJKAS_clean_linker_0
_symmetry_space_group_name_H-M    P1
_symmetry_Int_Tables_number       1
_symmetry_cell_setting            triclinic
loop_
_symmetry_equiv_pos_as_xyz
'x, y, z'
_cell_length_a     113.94987
_cell_length_b     113.96974
_cell_length_c     81.201456
_cell_angle_alpha  90.005321
_cell_angle_beta   89.99236
_cell_angle_gamma 120.00659
loop_
_atom_site_label
_atom_site_type_symbol
_atom_site_fract_x
_atom_site_fract_y
_atom_site_fract_z
_atom_type_partial_charge
Li0 Li 0.43422 0.11552 0.07764 0.0
Li1 Li 0.42984 0.1001 0.10183 0.0
Li2 Li 0.44556 0.10271 0.07841 0.0
Li3 Li 0.42183 0.09144 0.07437 0.0
C4 C 0.45334 0.12971 0.09954 0.0
N5 N 0.46511 0.1566 0.10879 0.0
C6 C 0.45037 0.13317 0.11488 0.0
C7 C 0.46241 0.13993 0.08899 0.0
C8 C 0.4564 0.14682 0.11932 0.0
C9 C 0.46821 0.15346 0.09386 0.0
C10 C 0.40365 0.0976 0.08505 0.0
C11 C 0.38008 0.08209 0.0908 0.0
N12 N 0.3766 0.08656 0.07713 0.0
C13 C 0.39986 0.10209 0.07111 0.0
C14 C 0.39371 0.08756 0.09503 0.0
C15 C 0.38612 0.09636 0.06729 0.0
C16 C 0.43778 0.13647 0.05583 0.0
N17 N 0.43486 0.13183 0.07156 0.0
C18 C 0.43232 0.15057 0.07953 0.0
C19 C 0.43192 0.13845 0.08329 0.0
C20 C 0.43548 0.15576 0.06343 0.0
C21 C 0.43817 0.1485 0.05147 0.0
H22 H 0.43969 0.13077 0.04664 0.0
H23 H 0.42935 0.13434 0.09562 0.0
C24 C 0.4347 0.0942 0.13363 0.0
N25 N 0.42706 0.09802 0.12477 0.0
C26 C 0.43358 0.0933 0.15074 0.0
C27 C 0.41675 0.10027 0.14925 0.0
C28 C 0.41815 0.10098 0.13214 0.0
C29 C 0.42461 0.09649 0.15879 0.0
H30 H 0.44174 0.09197 0.12736 0.0
H31 H 0.41239 0.10422 0.12474 0.0
C32 C 0.44425 0.10547 0.04734 0.0
N33 N 0.4619 0.1064 0.02333 0.0
C34 C 0.44126 0.09382 0.03839 0.0
C35 C 0.45619 0.11761 0.04401 0.0
C36 C 0.45031 0.0945 0.0263 0.0
C37 C 0.465 0.11786 0.03186 0.0
C38 C 0.42462 0.07215 0.08989 0.0
C39 C 0.42471 0.06489 0.07606 0.0
C40 C 0.41717 0.06516 0.1038 0.0
C41 C 0.41727 0.05074 0.07634 0.0
C42 C 0.40988 0.051 0.10361 0.0
N43 N 0.41008 0.04415 0.08999 0.0
C44 C 0.47392 0.11437 0.07934 0.0
C45 C 0.46263 0.09286 0.06643 0.0
C46 C 0.48644 0.11524 0.0769 0.0
N47 N 0.46234 0.10331 0.07411 0.0
C48 C 0.47495 0.09332 0.06368 0.0
C49 C 0.48708 0.1046 0.06903 0.0
H50 H 0.47343 0.12244 0.08567 0.0
H51 H 0.45332 0.08415 0.06245 0.0
C52 C 0.40568 0.08021 0.04651 0.0
N53 N 0.40658 0.07765 0.06266 0.0
C54 C 0.39516 0.07063 0.03681 0.0
C55 C 0.38616 0.05624 0.06075 0.0
C56 C 0.39684 0.06616 0.07002 0.0
C57 C 0.3854 0.05831 0.04382 0.0
H58 H 0.4132 0.08969 0.04111 0.0
H59 H 0.39738 0.0646 0.08304 0.0
O60 O 0.44736 0.1164 0.09487 0.0
O61 O 0.41706 0.10284 0.08873 0.0
O62 O 0.43565 0.10497 0.05945 0.0
O63 O 0.43191 0.086 0.08993 0.0
H64 H 0.44344 0.12544 0.12326 0.0
H65 H 0.46482 0.13747 0.07707 0.0
H66 H 0.45414 0.14964 0.13112 0.0
H67 H 0.47515 0.16147 0.08575 0.0
H68 H 0.37227 0.07425 0.09835 0.0
H69 H 0.40746 0.10981 0.06322 0.0
H70 H 0.39651 0.08391 0.10579 0.0
H71 H 0.38302 0.09967 0.05649 0.0
H72 H 0.43034 0.15588 0.08922 0.0
H73 H 0.44039 0.15198 0.03884 0.0
H74 H 0.43971 0.09016 0.15758 0.0
H75 H 0.40986 0.10302 0.15495 0.0
H76 H 0.43216 0.0843 0.04087 0.0
H77 H 0.45872 0.1267 0.05085 0.0
H78 H 0.44815 0.08554 0.01935 0.0
H79 H 0.47431 0.12716 0.02924 0.0
H80 H 0.43024 0.0701 0.06511 0.0
H81 H 0.41693 0.07058 0.1146 0.0
H82 H 0.41717 0.045 0.06567 0.0
H83 H 0.40405 0.04547 0.11427 0.0
H84 H 0.4955 0.12401 0.08152 0.0
H85 H 0.47497 0.08493 0.05743 0.0
H86 H 0.39476 0.07281 0.0239 0.0
H87 H 0.37885 0.0469 0.06669 0.0
Li88 Li 0.31101 0.43171 0.58218 0.0
Li89 Li 0.32373 0.42893 0.6048 0.0
Li90 Li 0.33604 0.44509 0.58357 0.0
Li91 Li 0.32455 0.42144 0.57823 0.0
C92 C 0.31879 0.44814 0.61366 0.0
N93 N 0.31111 0.45268 0.64421 0.0
C94 C 0.30588 0.43922 0.61986 0.0
C95 C 0.32776 0.45942 0.62296 0.0
C96 C 0.3022 0.44168 0.63533 0.0
C97 C 0.32369 0.46152 0.63839 0.0
C98 C 0.30324 0.40126 0.59127 0.0
C99 C 0.30405 0.38121 0.59877 0.0
N100 N 0.29391 0.37388 0.58788 0.0
C101 C 0.29278 0.39353 0.58022 0.0
C102 C 0.30889 0.39507 0.60069 0.0
C103 C 0.28822 0.3797 0.57865 0.0
C104 C 0.28868 0.42406 0.56171 0.0
N105 N 0.29538 0.43191 0.5749 0.0
C106 C 0.28007 0.44041 0.57636 0.0
C107 C 0.29149 0.4402 0.58206 0.0
C108 C 0.27281 0.43223 0.56294 0.0
C109 C 0.27729 0.42409 0.55544 0.0
H110 H 0.29227 0.41787 0.55599 0.0
H111 H 0.29732 0.44676 0.59208 0.0
C112 C 0.33553 0.43389 0.63602 0.0
N113 N 0.32384 0.42596 0.6277 0.0
C114 C 0.33594 0.4329 0.6531 0.0
C115 C 0.31232 0.41542 0.65266 0.0
C116 C 0.31238 0.41671 0.63557 0.0
C117 C 0.32417 0.42369 0.66168 0.0
H118 H 0.34446 0.44117 0.62937 0.0
H119 H 0.3032 0.41064 0.6286 0.0
C120 C 0.32379 0.4442 0.55328 0.0
N121 N 0.32271 0.46197 0.53099 0.0
C122 C 0.32374 0.44189 0.53637 0.0
C123 C 0.32325 0.45554 0.55886 0.0
C124 C 0.3232 0.451 0.5253 0.0
C125 C 0.32272 0.4644 0.54739 0.0
C126 C 0.35185 0.43341 0.5866 0.0
C127 C 0.35412 0.43538 0.56963 0.0
C128 C 0.36177 0.43341 0.5967 0.0
C129 C 0.36628 0.43729 0.56307 0.0
C130 C 0.3738 0.43535 0.58966 0.0
N131 N 0.37579 0.43723 0.57313 0.0
C132 C 0.35876 0.46933 0.5929 0.0
C133 C 0.35651 0.46654 0.56394 0.0
C134 C 0.37054 0.48186 0.59109 0.0
N135 N 0.35188 0.46208 0.57944 0.0
C136 C 0.36827 0.47901 0.56155 0.0
C137 C 0.37539 0.48689 0.57524 0.0
H138 H 0.35518 0.46526 0.60506 0.0
H139 H 0.35119 0.46039 0.55341 0.0
C140 C 0.31835 0.40421 0.55114 0.0
N141 N 0.32506 0.40767 0.56574 0.0
C142 C 0.31902 0.39471 0.54096 0.0
C143 C 0.33324 0.39234 0.56125 0.0
C144 C 0.33217 0.40177 0.57111 0.0
C145 C 0.32679 0.38886 0.5458 0.0
H146 H 0.31263 0.40898 0.54735 0.0
H147 H 0.33727 0.40462 0.58289 0.0
O148 O 0.3227 0.44564 0.59873 0.0
O149 O 0.30809 0.41488 0.59268 0.0
O150 O 0.32414 0.43523 0.56418 0.0
O151 O 0.34008 0.4316 0.59345 0.0
H152 H 0.29885 0.43036 0.6129 0.0
H153 H 0.33773 0.46651 0.61834 0.0
H154 H 0.29228 0.4348 0.64032 0.0
H155 H 0.33055 0.47019 0.64574 0.0
H156 H 0.30839 0.3763 0.60589 0.0
H157 H 0.2883 0.39817 0.57285 0.0
H158 H 0.31709 0.40095 0.60919 0.0
H159 H 0.28018 0.37359 0.57008 0.0
H160 H 0.27704 0.44702 0.58223 0.0
H161 H 0.27194 0.41769 0.54503 0.0
H162 H 0.34535 0.43933 0.65951 0.0
H163 H 0.30297 0.40832 0.65877 0.0
H164 H 0.32411 0.43315 0.53186 0.0
H165 H 0.32327 0.45753 0.57186 0.0
H166 H 0.32317 0.44934 0.51218 0.0
H167 H 0.32231 0.47321 0.55154 0.0
H168 H 0.3466 0.43542 0.56157 0.0
H169 H 0.36018 0.43192 0.60986 0.0
H170 H 0.36816 0.43881 0.54997 0.0
H171 H 0.38157 0.43536 0.59734 0.0
H172 H 0.37592 0.48744 0.60199 0.0
H173 H 0.37168 0.48248 0.54912 0.0
H174 H 0.31369 0.39216 0.5293 0.0
H175 H 0.33949 0.38826 0.56543 0.0
Li176 Li 0.89432 0.32881 0.10444 0.0
Li177 Li 0.87967 0.31862 0.07947 0.0
Li178 Li 0.90379 0.33172 0.07702 0.0
Li179 Li 0.8911 0.34261 0.08233 0.0
C180 C 0.89825 0.30679 0.08479 0.0
N181 N 0.90954 0.29163 0.07409 0.0
C182 C 0.89434 0.30003 0.06969 0.0
C183 C 0.90783 0.3058 0.0945 0.0
C184 C 0.90019 0.29243 0.06448 0.0
C185 C 0.91344 0.29808 0.08886 0.0
C186 C 0.8642 0.32075 0.10191 0.0
C187 C 0.84038 0.31119 0.09604 0.0
N188 N 0.83734 0.30323 0.10966 0.0
C189 C 0.86083 0.31256 0.11591 0.0
C190 C 0.8539 0.32014 0.09196 0.0
C191 C 0.84719 0.30375 0.1196 0.0
C192 C 0.89984 0.3379 0.13696 0.0
N193 N 0.89638 0.327 0.12716 0.0
C194 C 0.89508 0.31353 0.15035 0.0
C195 C 0.89403 0.31496 0.13342 0.0
C196 C 0.89863 0.32462 0.16082 0.0
C197 C 0.90109 0.33696 0.15392 0.0
H198 H 0.90152 0.3473 0.13158 0.0
H199 H 0.89115 0.30643 0.12529 0.0
C200 C 0.85875 0.30173 0.0571 0.0
N201 N 0.86403 0.30268 0.07237 0.0
C202 C 0.84729 0.28975 0.05214 0.0
C203 C 0.84716 0.27995 0.07861 0.0
C204 C 0.85863 0.29207 0.08301 0.0
C205 C 0.84131 0.27871 0.06302 0.0
H206 H 0.86348 0.31021 0.04873 0.0
H207 H 0.8633 0.29303 0.09491 0.0
C208 C 0.9217 0.35384 0.09358 0.0
N209 N 0.94963 0.3696 0.09297 0.0
C210 C 0.92825 0.36165 0.07971 0.0
C211 C 0.92935 0.35411 0.10718 0.0
C212 C 0.94238 0.36952 0.07962 0.0
C213 C 0.94346 0.36214 0.10663 0.0
C214 C 0.8889 0.34009 0.05081 0.0
C215 C 0.90012 0.34921 0.04151 0.0
C216 C 0.87645 0.33948 0.0485 0.0
C217 C 0.8987 0.35758 0.0301 0.0
C218 C 0.87545 0.34805 0.037 0.0
N219 N 0.8865 0.35685 0.02811 0.0
C220 C 0.91742 0.32987 0.04916 0.0
C221 C 0.92962 0.33347 0.07405 0.0
C222 C 0.92791 0.32997 0.04021 0.0
N223 N 0.91861 0.33199 0.06569 0.0
C224 C 0.94037 0.33368 0.06559 0.0
C225 C 0.93967 0.33211 0.04841 0.0
H226 H 0.9083 0.3281 0.04291 0.0
H227 H 0.93004 0.33444 0.08729 0.0
C228 C 0.87867 0.35833 0.08704 0.0
N229 N 0.88944 0.35838 0.07977 0.0
C230 C 0.87709 0.36969 0.08602 0.0
C231 C 0.89766 0.38093 0.06992 0.0
C232 C 0.89892 0.3694 0.07141 0.0
C233 C 0.88668 0.38118 0.0774 0.0
H234 H 0.87137 0.34954 0.09381 0.0
H235 H 0.9075 0.36932 0.06596 0.0
O236 O 0.8929 0.31457 0.08989 0.0
O237 O 0.87751 0.32923 0.09789 0.0
O238 O 0.90788 0.34604 0.09393 0.0
O239 O 0.89011 0.33189 0.06221 0.0
H240 H 0.887 0.30079 0.06198 0.0
H241 H 0.91105 0.31108 0.10616 0.0
H242 H 0.89733 0.2872 0.05278 0.0
H243 H 0.92093 0.29728 0.09619 0.0
H244 H 0.83232 0.31054 0.08838 0.0
H245 H 0.86863 0.31289 0.12378 0.0
H246 H 0.8563 0.32644 0.08112 0.0
H247 H 0.84444 0.29729 0.13034 0.0
H248 H 0.89317 0.30387 0.15518 0.0
H249 H 0.90364 0.34569 0.16159 0.0
H250 H 0.84307 0.28919 0.04002 0.0
H251 H 0.84302 0.27158 0.08723 0.0
H252 H 0.92253 0.36141 0.06899 0.0
H253 H 0.92447 0.3481 0.11801 0.0
H254 H 0.94758 0.37552 0.0689 0.0
H255 H 0.94951 0.3624 0.11704 0.0
H256 H 0.9099 0.34999 0.04323 0.0
H257 H 0.86768 0.33257 0.05563 0.0
H258 H 0.90732 0.36473 0.02289 0.0
H259 H 0.86588 0.34772 0.03517 0.0
H260 H 0.92695 0.32873 0.02697 0.0
H261 H 0.94913 0.33505 0.07242 0.0
H262 H 0.86845 0.36948 0.0919 0.0
H263 H 0.90538 0.38967 0.06337 0.0
Li264 Li 0.56485 0.89252 0.60421 0.0
Li265 Li 0.56106 0.87839 0.57997 0.0
Li266 Li 0.57247 0.90288 0.57785 0.0
Li267 Li 0.54819 0.8896 0.58329 0.0
C268 C 0.58716 0.89137 0.60092 0.0
N269 N 0.60375 0.88995 0.62469 0.0
C270 C 0.58672 0.8791 0.60403 0.0
C271 C 0.59609 0.90294 0.60982 0.0
C272 C 0.59519 0.87859 0.6161 0.0
C273 C 0.60437 0.902 0.62182 0.0
C274 C 0.53525 0.869 0.60335 0.0
C275 C 0.5114 0.85375 0.59876 0.0
N276 N 0.5087 0.85661 0.61408 0.0
C277 C 0.53224 0.87175 0.61907 0.0
C278 C 0.52477 0.85987 0.59313 0.0
C279 C 0.51874 0.86539 0.62427 0.0
C280 C 0.57038 0.90544 0.6352 0.0
N281 N 0.56829 0.89409 0.62718 0.0
C282 C 0.57041 0.8844 0.65229 0.0
C283 C 0.56817 0.88361 0.63534 0.0
C284 C 0.57254 0.89598 0.66093 0.0
C285 C 0.57253 0.9066 0.65218 0.0
H286 H 0.57022 0.91352 0.62844 0.0
H287 H 0.56619 0.87459 0.62867 0.0
C288 C 0.57136 0.86454 0.56193 0.0
N289 N 0.56103 0.86282 0.57188 0.0
C290 C 0.57182 0.85333 0.55589 0.0
C291 C 0.55113 0.8388 0.57074 0.0
C292 C 0.55101 0.8503 0.57637 0.0
C293 C 0.56166 0.84022 0.56039 0.0
H294 H 0.57929 0.87466 0.55877 0.0
H295 H 0.54306 0.84926 0.58454 0.0
C296 C 0.56645 0.91986 0.59153 0.0
N297 N 0.57656 0.94695 0.58444 0.0
C298 C 0.55892 0.92388 0.5819 0.0
C299 C 0.57909 0.92961 0.59763 0.0
C300 C 0.56421 0.93763 0.57845 0.0
C301 C 0.58404 0.94325 0.59387 0.0
C302 C 0.5574 0.88288 0.54922 0.0
C303 C 0.56859 0.88824 0.53867 0.0
C304 C 0.54587 0.87055 0.54536 0.0
C305 C 0.56807 0.88111 0.52443 0.0
C306 C 0.54576 0.86371 0.53102 0.0
N307 N 0.55677 0.86909 0.52094 0.0
C308 C 0.59927 0.92313 0.5694 0.0
C309 C 0.58156 0.92322 0.55417 0.0
C310 C 0.60899 0.93421 0.56046 0.0
N311 N 0.58588 0.91796 0.56614 0.0
C312 C 0.59089 0.93425 0.54493 0.0
C313 C 0.60482 0.93986 0.548 0.0
H314 H 0.60241 0.91861 0.57885 0.0
H315 H 0.57082 0.9188 0.55181 0.0
C316 C 0.52567 0.89164 0.59298 0.0
N317 N 0.53122 0.88859 0.58002 0.0
C318 C 0.51309 0.89081 0.59136 0.0
C319 C 0.51239 0.88416 0.56293 0.0
C320 C 0.52495 0.88503 0.56514 0.0
C321 C 0.50628 0.887 0.57619 0.0
H322 H 0.53103 0.89469 0.60458 0.0
H323 H 0.52969 0.88287 0.55498 0.0
O324 O 0.57881 0.89204 0.58932 0.0
O325 O 0.54837 0.87533 0.5979 0.0
O326 O 0.5616 0.90642 0.59473 0.0
O327 O 0.55779 0.8896 0.56336 0.0
H328 H 0.57984 0.87003 0.59732 0.0
H329 H 0.59646 0.91249 0.60769 0.0
H330 H 0.59493 0.86915 0.61869 0.0
H331 H 0.61124 0.91084 0.6289 0.0
H332 H 0.50319 0.84676 0.59093 0.0
H333 H 0.5402 0.87882 0.62713 0.0
H334 H 0.52691 0.85769 0.58089 0.0
H335 H 0.51626 0.86748 0.63637 0.0
H336 H 0.57013 0.8759 0.65864 0.0
H337 H 0.57418 0.91571 0.6584 0.0
H338 H 0.58007 0.85492 0.54785 0.0
H339 H 0.54326 0.82893 0.57485 0.0
H340 H 0.54916 0.91647 0.577 0.0
H341 H 0.58511 0.92666 0.60498 0.0
H342 H 0.55851 0.94089 0.57095 0.0
H343 H 0.59385 0.9509 0.5984 0.0
H344 H 0.57764 0.89771 0.54151 0.0
H345 H 0.53717 0.86619 0.55346 0.0
H346 H 0.57667 0.8851 0.51618 0.0
H347 H 0.53694 0.85411 0.52794 0.0
H348 H 0.61964 0.93818 0.56309 0.0
H349 H 0.58723 0.93843 0.53561 0.0
H350 H 0.50885 0.89331 0.60181 0.0
H351 H 0.50744 0.88116 0.55105 0.0
Li352 Li 0.67059 0.57421 0.07555 0.0
Li353 Li 0.65784 0.54985 0.08041 0.0
Li354 Li 0.67301 0.56543 0.10127 0.0
Li355 Li 0.6818 0.5609 0.07622 0.0
C356 C 0.64853 0.56994 0.09017 0.0
N357 N 0.63329 0.5822 0.0841 0.0
C358 C 0.63679 0.56336 0.08059 0.0
C359 C 0.65249 0.58275 0.09671 0.0
C360 C 0.62922 0.56973 0.07767 0.0
C361 C 0.64466 0.58878 0.09347 0.0
C362 C 0.67375 0.55909 0.04606 0.0
C363 C 0.67973 0.54722 0.02619 0.0
N364 N 0.68709 0.55897 0.01768 0.0
C365 C 0.68138 0.57105 0.03712 0.0
C366 C 0.67291 0.54707 0.04055 0.0
C367 C 0.68803 0.57077 0.0228 0.0
C368 C 0.67789 0.60166 0.06861 0.0
N369 N 0.66974 0.58841 0.06457 0.0
C370 C 0.65864 0.59423 0.04396 0.0
C371 C 0.66032 0.58457 0.05245 0.0
C372 C 0.66675 0.60799 0.048 0.0
C373 C 0.67649 0.6117 0.0605 0.0
H374 H 0.6854 0.60443 0.07818 0.0
H375 H 0.654 0.57394 0.04952 0.0
C376 C 0.63232 0.52934 0.09064 0.0
N377 N 0.64085 0.53381 0.0775 0.0
C378 C 0.61984 0.51742 0.08952 0.0
C379 C 0.62506 0.51505 0.06126 0.0
C380 C 0.63744 0.52705 0.06292 0.0
C381 C 0.6161 0.51008 0.0747 0.0
H382 H 0.6353 0.535 0.10204 0.0
H383 H 0.64431 0.53097 0.0526 0.0
C384 C 0.69707 0.58643 0.09811 0.0
N385 N 0.71557 0.60117 0.12247 0.0
C386 C 0.70795 0.58437 0.10132 0.0
C387 C 0.6956 0.596 0.10728 0.0
C388 C 0.71721 0.59194 0.11367 0.0
C389 C 0.70505 0.60334 0.11956 0.0
C390 C 0.66387 0.53508 0.09922 0.0
C391 C 0.65858 0.53236 0.11519 0.0
C392 C 0.66079 0.52433 0.08846 0.0
C393 C 0.65029 0.51892 0.12013 0.0
C394 C 0.65242 0.51104 0.09386 0.0
N395 N 0.64739 0.50863 0.10945 0.0
C396 C 0.66848 0.57276 0.13298 0.0
C397 C 0.68499 0.56593 0.13178 0.0
C398 C 0.67031 0.57477 0.14995 0.0
N399 N 0.67581 0.56846 0.1243 0.0
C400 C 0.68714 0.56778 0.14873 0.0
C401 C 0.6797 0.57221 0.15805 0.0
H402 H 0.66108 0.57445 0.12678 0.0
H403 H 0.69057 0.56237 0.12456 0.0
C404 C 0.70666 0.57098 0.06007 0.0
N405 N 0.69636 0.5596 0.06692 0.0
C406 C 0.71781 0.57078 0.05335 0.0
C407 C 0.70733 0.54702 0.06038 0.0
C408 C 0.69645 0.54773 0.06713 0.0
C409 C 0.71832 0.55871 0.05358 0.0
H410 H 0.70629 0.58028 0.06011 0.0
H411 H 0.68813 0.53885 0.07264 0.0
O412 O 0.65628 0.56404 0.0928 0.0
O413 O 0.66745 0.55923 0.06035 0.0
O414 O 0.68774 0.57894 0.08628 0.0
O415 O 0.67179 0.54818 0.09403 0.0
H416 H 0.63363 0.55353 0.07527 0.0
H417 H 0.66166 0.58809 0.10393 0.0
H418 H 0.62014 0.56478 0.07022 0.0
H419 H 0.64768 0.59873 0.09833 0.0
H420 H 0.67925 0.53801 0.02186 0.0
H421 H 0.68233 0.5805 0.0413 0.0
H422 H 0.6673 0.53778 0.04748 0.0
H423 H 0.69401 0.57996 0.0158 0.0
H424 H 0.65086 0.59094 0.03459 0.0
H425 H 0.68298 0.62222 0.06388 0.0
H426 H 0.6133 0.51388 0.10022 0.0
H427 H 0.62246 0.50979 0.04956 0.0
H428 H 0.70916 0.57688 0.09452 0.0
H429 H 0.6871 0.59756 0.10519 0.0
H430 H 0.72565 0.59041 0.11633 0.0
H431 H 0.70397 0.6107 0.12683 0.0
H432 H 0.66072 0.54052 0.12365 0.0
H433 H 0.66454 0.52623 0.07595 0.0
H434 H 0.64609 0.51668 0.13244 0.0
H435 H 0.64986 0.50264 0.08562 0.0
H436 H 0.66419 0.57796 0.15671 0.0
H437 H 0.69453 0.56577 0.15447 0.0
H438 H 0.72612 0.5801 0.04853 0.0
H439 H 0.70718 0.53745 0.06062 0.0
Li440 Li 0.11512 0.68108 0.57953 0.0
Li441 Li 0.10068 0.67054 0.6034 0.0
Li442 Li 0.10255 0.65616 0.58156 0.0
Li443 Li 0.0897 0.66791 0.57731 0.0
C444 C 0.12941 0.67077 0.59735 0.0
N445 N 0.15475 0.67318 0.59904 0.0
C446 C 0.13736 0.67607 0.61148 0.0
C447 C 0.13427 0.66652 0.5842 0.0
C448 C 0.15017 0.67727 0.61206 0.0
C449 C 0.14712 0.66786 0.58525 0.0
C450 C 0.10078 0.69349 0.60062 0.0
C451 C 0.08794 0.69866 0.61997 0.0
N452 N 0.09951 0.71005 0.62456 0.0
C453 C 0.11252 0.7053 0.60543 0.0
C454 C 0.08837 0.69019 0.60783 0.0
C455 C 0.11168 0.71352 0.61759 0.0
C456 C 0.1317 0.70115 0.55651 0.0
N457 N 0.13109 0.69653 0.5721 0.0
C458 C 0.15309 0.71505 0.57814 0.0
C459 C 0.14145 0.7032 0.5829 0.0
C460 C 0.15402 0.7201 0.56213 0.0
C461 C 0.1432 0.71294 0.55117 0.0
H462 H 0.12316 0.69578 0.5483 0.0
H463 H 0.14054 0.69952 0.59535 0.0
C464 C 0.0882 0.66373 0.6348 0.0
N465 N 0.0996 0.67249 0.62647 0.0
C466 C 0.08747 0.66493 0.65183 0.0
C467 C 0.11025 0.68414 0.65135 0.0
C468 C 0.11052 0.68258 0.63433 0.0
C469 C 0.09863 0.67519 0.66033 0.0
H470 H 0.07974 0.65569 0.62828 0.0
H471 H 0.11945 0.6894 0.62737 0.0
C472 C 0.10619 0.66441 0.54739 0.0
N473 N 0.11153 0.6579 0.51654 0.0
C474 C 0.09564 0.6573 0.5362 0.0
C475 C 0.11949 0.6684 0.54277 0.0
C476 C 0.09853 0.65405 0.52069 0.0
C477 C 0.12197 0.66496 0.52715 0.0
C478 C 0.07273 0.64426 0.59264 0.0
C479 C 0.06836 0.63165 0.58529 0.0
C480 C 0.06318 0.64737 0.59891 0.0
C481 C 0.05448 0.62242 0.58413 0.0
C482 C 0.04939 0.63787 0.59749 0.0
N483 N 0.04537 0.6257 0.59019 0.0
C484 C 0.10615 0.63498 0.59175 0.0
C485 C 0.10089 0.63366 0.56332 0.0
C486 C 0.10671 0.62306 0.5908 0.0
N487 N 0.1033 0.64003 0.57813 0.0
C488 C 0.10142 0.62173 0.56179 0.0
C489 C 0.10431 0.61626 0.57567 0.0
H490 H 0.10794 0.64024 0.60338 0.0
H491 H 0.09837 0.63766 0.55275 0.0
C492 C 0.07342 0.67844 0.56587 0.0
N493 N 0.07463 0.66716 0.56633 0.0
C494 C 0.06241 0.67814 0.55789 0.0
C495 C 0.05416 0.65464 0.55103 0.0
C496 C 0.06538 0.65545 0.55892 0.0
C497 C 0.05257 0.66608 0.55049 0.0
H498 H 0.08103 0.68768 0.57166 0.0
H499 H 0.06674 0.64673 0.55908 0.0
O500 O 0.11684 0.66957 0.59661 0.0
O501 O 0.10144 0.68516 0.58899 0.0
O502 O 0.10352 0.66772 0.5626 0.0
O503 O 0.08627 0.65344 0.59382 0.0
H504 H 0.13372 0.67928 0.62186 0.0
H505 H 0.12814 0.66208 0.57337 0.0
H506 H 0.15647 0.68143 0.62287 0.0
H507 H 0.151 0.66461 0.57514 0.0
H508 H 0.07842 0.69618 0.62573 0.0
H509 H 0.1222 0.70803 0.59993 0.0
H510 H 0.07918 0.68114 0.60417 0.0
H511 H 0.1207 0.72265 0.6215 0.0
H512 H 0.16124 0.72023 0.58693 0.0
H513 H 0.14347 0.71662 0.5388 0.0
H514 H 0.0784 0.65769 0.65831 0.0
H515 H 0.11902 0.69227 0.65739 0.0
H516 H 0.08531 0.65424 0.53945 0.0
H517 H 0.12786 0.67422 0.55103 0.0
H518 H 0.09044 0.64847 0.51197 0.0
H519 H 0.13222 0.66796 0.52345 0.0
H520 H 0.07559 0.62903 0.58044 0.0
H521 H 0.06636 0.65705 0.60468 0.0
H522 H 0.05096 0.61265 0.5784 0.0
H523 H 0.04189 0.64019 0.60219 0.0
H524 H 0.10909 0.61925 0.60176 0.0
H525 H 0.09931 0.61668 0.54996 0.0
H526 H 0.06152 0.68717 0.55766 0.0
H527 H 0.04691 0.64523 0.54516 0.0
Li528 Li 0.8927 0.54944 0.41609 0.0
Li529 Li 0.90418 0.57385 0.42139 0.0
Li530 Li 0.87894 0.56056 0.41867 0.0
Li531 Li 0.89398 0.56606 0.39497 0.0
C532 C 0.88643 0.55222 0.45013 0.0
N533 N 0.87772 0.53881 0.47992 0.0
C534 C 0.89548 0.55559 0.46329 0.0
C535 C 0.87288 0.54218 0.45227 0.0
C536 C 0.8909 0.54866 0.4782 0.0
C537 C 0.86869 0.53548 0.46737 0.0
C538 C 0.9225 0.56959 0.40661 0.0
C539 C 0.94525 0.58842 0.40377 0.0
N540 N 0.9501 0.58102 0.41123 0.0
C541 C 0.9277 0.56213 0.41414 0.0
C542 C 0.93134 0.58281 0.40126 0.0
C543 C 0.94169 0.5681 0.4164 0.0
C544 C 0.8904 0.52504 0.40581 0.0
N545 N 0.89297 0.53306 0.41926 0.0
C546 C 0.89542 0.51724 0.43611 0.0
C547 C 0.89561 0.52951 0.43419 0.0
C548 C 0.89264 0.50867 0.42247 0.0
C549 C 0.89018 0.51273 0.40714 0.0
H550 H 0.88842 0.52819 0.39407 0.0
H551 H 0.89795 0.53619 0.4446 0.0
C552 C 0.92066 0.6008 0.43281 0.0
N553 N 0.91858 0.58797 0.43337 0.0
C554 C 0.93108 0.61108 0.44205 0.0
C555 C 0.93694 0.5947 0.45214 0.0
C556 C 0.92644 0.58478 0.44276 0.0
C557 C 0.9393 0.60804 0.45198 0.0
H558 H 0.91415 0.60301 0.42537 0.0
H559 H 0.92453 0.57449 0.44299 0.0
C560 C 0.86631 0.53642 0.3985 0.0
N561 N 0.84216 0.51261 0.3933 0.0
C562 C 0.85908 0.53446 0.38387 0.0
C563 C 0.86134 0.52615 0.41035 0.0
C564 C 0.84687 0.52239 0.38151 0.0
C565 C 0.84909 0.51422 0.40753 0.0
C566 C 0.89121 0.58744 0.39888 0.0
C567 C 0.87868 0.58624 0.39516 0.0
C568 C 0.90292 0.59736 0.39104 0.0
C569 C 0.87805 0.59491 0.38348 0.0
C570 C 0.90186 0.60582 0.37941 0.0
N571 N 0.88955 0.60442 0.3759 0.0
C572 C 0.86324 0.56507 0.44134 0.0
C573 C 0.85093 0.55247 0.41795 0.0
C574 C 0.85173 0.56477 0.44772 0.0
N575 N 0.86263 0.55897 0.42673 0.0
C576 C 0.83916 0.55185 0.4239 0.0
C577 C 0.8395 0.55813 0.43892 0.0
H578 H 0.87275 0.57028 0.44795 0.0
H579 H 0.85078 0.54804 0.40616 0.0
C580 C 0.90718 0.5734 0.36406 0.0
N581 N 0.89541 0.56992 0.37207 0.0
C582 C 0.90829 0.57603 0.34717 0.0
C583 C 0.88515 0.57143 0.34712 0.0
C584 C 0.88452 0.56897 0.36402 0.0
C585 C 0.89713 0.57494 0.33848 0.0
H586 H 0.91565 0.57397 0.37073 0.0
H587 H 0.87531 0.56626 0.37073 0.0
O588 O 0.89077 0.55898 0.43546 0.0
O589 O 0.90882 0.56396 0.40445 0.0
O590 O 0.87831 0.54821 0.40096 0.0
O591 O 0.892 0.5789 0.41007 0.0
H592 H 0.90594 0.56344 0.462 0.0
H593 H 0.8656 0.53968 0.44249 0.0
H594 H 0.89783 0.55111 0.48843 0.0
H595 H 0.85824 0.52768 0.46915 0.0
H596 H 0.9522 0.59868 0.39982 0.0
H597 H 0.92102 0.55188 0.4183 0.0
H598 H 0.92748 0.58872 0.39541 0.0
H599 H 0.94586 0.56247 0.42229 0.0
H600 H 0.8976 0.51458 0.44807 0.0
H601 H 0.8879 0.50636 0.39635 0.0
H602 H 0.93249 0.62121 0.44169 0.0
H603 H 0.94318 0.59196 0.45938 0.0
H604 H 0.86283 0.54218 0.37444 0.0
H605 H 0.86694 0.52726 0.4215 0.0
H606 H 0.84114 0.52079 0.37029 0.0
H607 H 0.84514 0.50621 0.41663 0.0
H608 H 0.86953 0.57863 0.40113 0.0
H609 H 0.91269 0.59843 0.3938 0.0
H610 H 0.86841 0.59405 0.38042 0.0
H611 H 0.91081 0.61347 0.37316 0.0
H612 H 0.85239 0.56971 0.45935 0.0
H613 H 0.83001 0.5469 0.41655 0.0
H614 H 0.91765 0.57854 0.34092 0.0
H615 H 0.87637 0.57062 0.3409 0.0
Li616 Li 0.32846 0.90556 0.9228 0.0
Li617 Li 0.3412 0.89394 0.91784 0.0
Li618 Li 0.32668 0.89519 0.89658 0.0
Li619 Li 0.31715 0.88104 0.92098 0.0
C620 C 0.35104 0.92373 0.90859 0.0
N621 N 0.36657 0.95125 0.91433 0.0
C622 C 0.36302 0.92888 0.9177 0.0
C623 C 0.34701 0.93259 0.9023 0.0
C624 C 0.37073 0.94283 0.92047 0.0
C625 C 0.35497 0.94646 0.90538 0.0
C626 C 0.32456 0.88638 0.95168 0.0
C627 C 0.31757 0.86755 0.97029 0.0
N628 N 0.31098 0.87234 0.97965 0.0
C629 C 0.31775 0.89115 0.96149 0.0
C630 C 0.32452 0.87451 0.95613 0.0
C631 C 0.31094 0.8839 0.97559 0.0
C632 C 0.31898 0.92355 0.93127 0.0
N633 N 0.32875 0.92025 0.93396 0.0
C634 C 0.34005 0.93848 0.95297 0.0
C635 C 0.33902 0.92728 0.94477 0.0
C636 C 0.33027 0.94232 0.95021 0.0
C637 C 0.31953 0.93463 0.93937 0.0
H638 H 0.3108 0.91763 0.92282 0.0
H639 H 0.34646 0.9242 0.94691 0.0
C640 C 0.36668 0.89825 0.90842 0.0
N641 N 0.35788 0.89437 0.92127 0.0
C642 C 0.3787 0.89793 0.90984 0.0
C643 C 0.37263 0.89012 0.93791 0.0
C644 C 0.36066 0.89052 0.93591 0.0
C645 C 0.38174 0.89369 0.92468 0.0
H646 H 0.36423 0.90141 0.89699 0.0
H647 H 0.35353 0.88761 0.94595 0.0
C648 C 0.30243 0.89218 0.89951 0.0
N649 N 0.2841 0.8894 0.87541 0.0
C650 C 0.29132 0.87943 0.89603 0.0
C651 C 0.30418 0.90352 0.8908 0.0
C652 C 0.28216 0.87824 0.88379 0.0
C653 C 0.29482 0.9019 0.87863 0.0
C654 C 0.33535 0.87356 0.89808 0.0
C655 C 0.34117 0.87661 0.88239 0.0
C656 C 0.33769 0.8652 0.90855 0.0
C657 C 0.34932 0.87129 0.87746 0.0
C658 C 0.34593 0.86012 0.90317 0.0
N659 N 0.35152 0.86325 0.88787 0.0
C660 C 0.333 0.90775 0.86528 0.0
C661 C 0.31494 0.88501 0.86559 0.0
C662 C 0.3319 0.9084 0.84823 0.0
N663 N 0.32458 0.89618 0.87354 0.0
C664 C 0.31341 0.88523 0.84857 0.0
C665 C 0.32204 0.89701 0.83962 0.0
H666 H 0.34075 0.91638 0.87188 0.0
H667 H 0.30853 0.87587 0.87247 0.0
C668 C 0.29245 0.86542 0.9376 0.0
N669 N 0.30223 0.86477 0.92874 0.0
C670 C 0.28081 0.85355 0.94239 0.0
C671 C 0.28965 0.84062 0.92902 0.0
C672 C 0.30112 0.85273 0.92452 0.0
C673 C 0.27921 0.84095 0.93783 0.0
H674 H 0.29354 0.87518 0.94052 0.0
H675 H 0.30897 0.85253 0.91729 0.0
O676 O 0.34323 0.91009 0.90601 0.0
O677 O 0.33108 0.8932 0.93768 0.0
O678 O 0.31163 0.89353 0.91126 0.0
O679 O 0.32758 0.87891 0.90329 0.0
H680 H 0.36627 0.92219 0.92274 0.0
H681 H 0.33772 0.92876 0.89532 0.0
H682 H 0.37999 0.94695 0.92757 0.0
H683 H 0.35192 0.95342 0.90071 0.0
H684 H 0.31737 0.85829 0.97382 0.0
H685 H 0.3176 0.90027 0.9582 0.0
H686 H 0.32961 0.8706 0.94858 0.0
H687 H 0.30558 0.88744 0.98326 0.0
H688 H 0.34835 0.94403 0.96147 0.0
H689 H 0.3118 0.93729 0.93696 0.0
H690 H 0.38556 0.90097 0.89944 0.0
H691 H 0.37457 0.88674 0.94953 0.0
H692 H 0.28984 0.87052 0.90256 0.0
H693 H 0.31278 0.91344 0.89325 0.0
H694 H 0.27355 0.86843 0.88091 0.0
H695 H 0.2961 0.91058 0.87172 0.0
H696 H 0.33954 0.88312 0.87416 0.0
H697 H 0.3334 0.86287 0.9208 0.0
H698 H 0.35393 0.87362 0.86537 0.0
H699 H 0.34793 0.85374 0.91119 0.0
H700 H 0.33896 0.91759 0.84183 0.0
H701 H 0.30558 0.87626 0.84249 0.0
H702 H 0.2729 0.85424 0.94896 0.0
H703 H 0.28885 0.8311 0.92537 0.0
Li704 Li 0.45064 0.34166 0.41464 0.0
Li705 Li 0.4258 0.33006 0.42088 0.0
Li706 Li 0.43731 0.31768 0.41896 0.0
Li707 Li 0.4335 0.32659 0.39422 0.0
C708 C 0.44205 0.32666 0.44905 0.0
N709 N 0.4441 0.31411 0.47711 0.0
C710 C 0.43076 0.31939 0.45919 0.0
C711 C 0.4544 0.32763 0.45321 0.0
C712 C 0.432 0.3131 0.47332 0.0
C713 C 0.45523 0.32119 0.46744 0.0
C714 C 0.43504 0.35506 0.40321 0.0
C715 C 0.42593 0.36824 0.39131 0.0
N716 N 0.43283 0.37814 0.40263 0.0
C717 C 0.44217 0.36545 0.41459 0.0
C718 C 0.42697 0.35653 0.39135 0.0
C719 C 0.44086 0.377 0.41416 0.0
C720 C 0.47407 0.36411 0.40281 0.0
N721 N 0.46753 0.35769 0.41684 0.0
C722 C 0.48497 0.37489 0.43339 0.0
C723 C 0.47268 0.36275 0.43196 0.0
C724 C 0.49192 0.38186 0.4191 0.0
C725 C 0.48635 0.37629 0.40365 0.0
H726 H 0.46966 0.35981 0.39098 0.0
H727 H 0.46713 0.35748 0.4429 0.0
C728 C 0.39931 0.32236 0.43373 0.0
N729 N 0.41258 0.33221 0.43285 0.0
C730 C 0.3901 0.32449 0.44272 0.0
C731 C 0.4085 0.34651 0.4506 0.0
C732 C 0.41731 0.34396 0.44141 0.0
C733 C 0.39467 0.33674 0.45121 0.0
H734 H 0.39581 0.31275 0.42771 0.0
H735 H 0.42799 0.35131 0.44128 0.0
C736 C 0.45273 0.31873 0.39114 0.0
N737 N 0.45692 0.30173 0.37079 0.0
C738 C 0.44235 0.30539 0.38855 0.0
C739 C 0.46523 0.32342 0.38337 0.0
C740 C 0.44467 0.29696 0.37822 0.0
C741 C 0.46716 0.31467 0.37313 0.0
C742 C 0.40705 0.30759 0.40215 0.0
C743 C 0.39795 0.29365 0.40233 0.0
C744 C 0.40333 0.31628 0.39463 0.0
C745 C 0.38521 0.28864 0.39506 0.0
C746 C 0.39051 0.31089 0.3875 0.0
N747 N 0.38178 0.29729 0.38786 0.0
C748 C 0.42587 0.29278 0.43507 0.0
C749 C 0.44891 0.30149 0.42774 0.0
C750 C 0.4251 0.28103 0.44131 0.0
N751 N 0.43758 0.30259 0.42827 0.0
C752 C 0.44854 0.28982 0.43362 0.0
C753 C 0.43645 0.27927 0.44029 0.0
H754 H 0.41708 0.29404 0.43545 0.0
H755 H 0.45811 0.30953 0.42236 0.0
C756 C 0.43556 0.33599 0.36203 0.0
N757 N 0.42999 0.32453 0.37129 0.0
C758 C 0.43346 0.33522 0.34505 0.0
C759 C 0.42001 0.31084 0.34744 0.0
C760 C 0.4223 0.31209 0.3644 0.0
C761 C 0.42563 0.32251 0.33755 0.0
H762 H 0.44172 0.34574 0.36787 0.0
H763 H 0.41797 0.30313 0.37204 0.0
O764 O 0.44094 0.33259 0.43497 0.0
O765 O 0.43635 0.34375 0.40325 0.0
O766 O 0.45073 0.32725 0.40112 0.0
O767 O 0.41965 0.31257 0.40891 0.0
H768 H 0.42111 0.3185 0.45608 0.0
H769 H 0.4632 0.33313 0.4454 0.0
H770 H 0.42334 0.30738 0.48124 0.0
H771 H 0.4647 0.32176 0.47076 0.0
H772 H 0.41969 0.36947 0.38224 0.0
H773 H 0.44851 0.36455 0.42381 0.0
H774 H 0.42161 0.34876 0.38218 0.0
H775 H 0.44623 0.38505 0.42299 0.0
H776 H 0.48882 0.37892 0.44552 0.0
H777 H 0.49146 0.38125 0.39235 0.0
H778 H 0.37957 0.31657 0.44324 0.0
H779 H 0.41246 0.35608 0.45701 0.0
H780 H 0.4326 0.30156 0.39444 0.0
H781 H 0.47336 0.33373 0.38523 0.0
H782 H 0.43673 0.28662 0.37612 0.0
H783 H 0.47678 0.31817 0.36703 0.0
H784 H 0.40072 0.28678 0.40798 0.0
H785 H 0.41025 0.32706 0.3944 0.0
H786 H 0.37805 0.27787 0.39512 0.0
H787 H 0.3875 0.31751 0.38168 0.0
H788 H 0.41565 0.27332 0.44664 0.0
H789 H 0.4575 0.28887 0.43236 0.0
H790 H 0.43812 0.34445 0.33783 0.0
H791 H 0.41383 0.30086 0.34214 0.0
Li792 Li 0.09234 0.42284 0.92097 0.0
Li793 Li 0.10492 0.44713 0.91539 0.0
Li794 Li 0.10237 0.42981 0.89423 0.0
Li795 Li 0.11744 0.43471 0.9179 0.0
C796 C 0.07468 0.42787 0.90611 0.0
N797 N 0.04716 0.41712 0.91076 0.0
C798 C 0.06986 0.4351 0.91498 0.0
C799 C 0.0655 0.41526 0.8994 0.0
C800 C 0.05591 0.42947 0.91725 0.0
C801 C 0.05162 0.40997 0.90195 0.0
C802 C 0.11164 0.44563 0.94847 0.0
C803 C 0.13035 0.46421 0.96255 0.0
N804 N 0.1222 0.46219 0.97574 0.0
C805 C 0.1035 0.44363 0.96226 0.0
C806 C 0.12521 0.45591 0.94869 0.0
C807 C 0.109 0.45215 0.97589 0.0
C808 C 0.07382 0.39604 0.93136 0.0
N809 N 0.0775 0.40932 0.93301 0.0
C810 C 0.05999 0.40381 0.95273 0.0
C811 C 0.07087 0.41334 0.94342 0.0
C812 C 0.05593 0.39002 0.95131 0.0
C813 C 0.06294 0.38614 0.94039 0.0
H814 H 0.07939 0.39314 0.92315 0.0
H815 H 0.07401 0.42396 0.94446 0.0
C816 C 0.11049 0.47288 0.90545 0.0
N817 N 0.10575 0.46407 0.91829 0.0
C818 C 0.11127 0.48546 0.90662 0.0
C819 C 0.10195 0.47955 0.9341 0.0
C820 C 0.10142 0.4671 0.93241 0.0
C821 C 0.10694 0.48894 0.92109 0.0
H822 H 0.11367 0.47012 0.89426 0.0
H823 H 0.09728 0.45976 0.94224 0.0
C824 C 0.10306 0.40694 0.89907 0.0
N825 N 0.10212 0.38752 0.87787 0.0
C826 C 0.11455 0.40571 0.89671 0.0
C827 C 0.09104 0.39817 0.89082 0.0
C828 C 0.11388 0.39585 0.8859 0.0
C829 C 0.09079 0.38846 0.8801 0.0
C830 C 0.13139 0.45731 0.89596 0.0
C831 C 0.13757 0.45618 0.88163 0.0
C832 C 0.13817 0.46897 0.90565 0.0
C833 C 0.15057 0.46655 0.87751 0.0
C834 C 0.15115 0.47912 0.9011 0.0
N835 N 0.15704 0.4777 0.88726 0.0
C836 C 0.09017 0.4264 0.8632 0.0
C837 C 0.10922 0.42325 0.86324 0.0
C838 C 0.08863 0.4242 0.84624 0.0
N839 N 0.10036 0.42594 0.8713 0.0
C840 C 0.10801 0.42091 0.8463 0.0
C841 C 0.09769 0.4215 0.83756 0.0
H842 H 0.08334 0.42868 0.86988 0.0
H843 H 0.11735 0.42312 0.86993 0.0
C844 C 0.13482 0.43305 0.94144 0.0
N845 N 0.13362 0.43555 0.92533 0.0
C846 C 0.14658 0.43342 0.94707 0.0
C847 C 0.15545 0.43855 0.91932 0.0
C848 C 0.14357 0.43815 0.91427 0.0
C849 C 0.15705 0.43615 0.93591 0.0
H850 H 0.1266 0.43068 0.9499 0.0
H851 H 0.14218 0.43962 0.90146 0.0
O852 O 0.08832 0.43311 0.904 0.0
O853 O 0.10637 0.4374 0.93498 0.0
O854 O 0.10356 0.41662 0.9095 0.0
O855 O 0.11861 0.44725 0.9001 0.0
H856 H 0.07681 0.44489 0.9202 0.0
H857 H 0.06903 0.40959 0.89235 0.0
H858 H 0.05205 0.43492 0.92419 0.0
H859 H 0.04441 0.40018 0.89692 0.0
H860 H 0.14083 0.47221 0.96285 0.0
H861 H 0.09303 0.43562 0.96244 0.0
H862 H 0.13178 0.45733 0.9384 0.0
H863 H 0.10278 0.45077 0.98659 0.0
H864 H 0.05472 0.4072 0.96082 0.0
H865 H 0.06018 0.37561 0.93907 0.0
H866 H 0.11531 0.49241 0.89634 0.0
H867 H 0.09823 0.48167 0.94533 0.0
H868 H 0.12388 0.41229 0.90312 0.0
H869 H 0.08204 0.39891 0.89257 0.0
H870 H 0.12272 0.39484 0.8839 0.0
H871 H 0.08159 0.38167 0.87354 0.0
H872 H 0.13244 0.44736 0.87384 0.0
H873 H 0.13341 0.4703 0.91643 0.0
H874 H 0.1555 0.46573 0.86654 0.0
H875 H 0.1565 0.48817 0.90853 0.0
H876 H 0.08047 0.42464 0.83998 0.0
H877 H 0.11532 0.41906 0.84004 0.0
H878 H 0.14736 0.43133 0.95991 0.0
H879 H 0.16331 0.44075 0.91033 0.0
Li880 Li 0.65571 0.1072 0.41481 0.0
Li881 Li 0.66642 0.09351 0.41998 0.0
Li882 Li 0.67959 0.11755 0.41893 0.0
Li883 Li 0.67014 0.10528 0.39428 0.0
C884 C 0.66782 0.11528 0.44774 0.0
N885 N 0.67423 0.13359 0.47321 0.0
C886 C 0.67279 0.11335 0.46261 0.0
C887 C 0.6661 0.12653 0.44583 0.0
C888 C 0.67597 0.12272 0.47534 0.0
C889 C 0.6694 0.13566 0.45885 0.0
C890 C 0.64004 0.08016 0.40665 0.0
C891 C 0.61841 0.0615 0.39827 0.0
N892 N 0.6145 0.05908 0.41432 0.0
C893 C 0.6358 0.07749 0.42307 0.0
C894 C 0.63129 0.07212 0.39414 0.0
C895 C 0.62285 0.06678 0.42668 0.0
C896 C 0.63502 0.11185 0.4045 0.0
N897 N 0.63987 0.10837 0.41777 0.0
C898 C 0.62161 0.10613 0.43447 0.0
C899 C 0.63345 0.1055 0.43257 0.0
C900 C 0.6163 0.10968 0.42096 0.0
C901 C 0.62318 0.11256 0.40581 0.0
H902 H 0.6403 0.11394 0.39285 0.0
H903 H 0.63751 0.10268 0.44289 0.0
C904 C 0.67202 0.07984 0.4444 0.0
N905 N 0.66483 0.07789 0.43034 0.0
C906 C 0.67077 0.06878 0.45322 0.0
C907 C 0.65531 0.05395 0.43237 0.0
C908 C 0.65687 0.0653 0.42397 0.0
C909 C 0.6621 0.0556 0.44738 0.0
H910 H 0.67859 0.09001 0.44886 0.0
H911 H 0.6516 0.06404 0.41247 0.0
C912 C 0.67888 0.13255 0.39198 0.0
N913 N 0.69649 0.15394 0.37229 0.0
C914 C 0.69198 0.1349 0.38903 0.0
C915 C 0.67474 0.14106 0.3849 0.0
C916 C 0.70073 0.14578 0.37905 0.0
C917 C 0.6838 0.15183 0.37499 0.0
C918 C 0.68781 0.09597 0.4018 0.0
C919 C 0.70114 0.09873 0.40366 0.0
C920 C 0.67851 0.08445 0.39308 0.0
C921 C 0.70497 0.08992 0.39676 0.0
C922 C 0.68273 0.07588 0.38637 0.0
N923 N 0.69576 0.07877 0.38833 0.0
C924 C 0.70393 0.12992 0.43636 0.0
C925 C 0.69653 0.14511 0.42809 0.0
C926 C 0.71564 0.14052 0.44329 0.0
N927 N 0.69481 0.13244 0.42874 0.0
C928 C 0.70814 0.15603 0.43472 0.0
C929 C 0.71799 0.15384 0.44225 0.0
H930 H 0.70215 0.11967 0.43687 0.0
H931 H 0.68899 0.14678 0.42216 0.0
C932 C 0.6611 0.10078 0.36179 0.0
N933 N 0.6723 0.10466 0.3712 0.0
C934 C 0.66197 0.10057 0.34467 0.0
C935 C 0.68588 0.10826 0.34726 0.0
C936 C 0.68455 0.10834 0.36434 0.0
C937 C 0.6745 0.10442 0.33719 0.0
H938 H 0.65152 0.09798 0.36762 0.0
H939 H 0.69334 0.11153 0.3721 0.0
O940 O 0.66497 0.10643 0.43495 0.0
O941 O 0.65262 0.09065 0.4027 0.0
O942 O 0.67004 0.12191 0.4016 0.0
O943 O 0.68399 0.10454 0.40859 0.0
H944 H 0.67418 0.10472 0.46435 0.0
H945 H 0.66249 0.12832 0.43431 0.0
H946 H 0.67984 0.12135 0.48691 0.0
H947 H 0.66819 0.14444 0.4575 0.0
H948 H 0.61154 0.05519 0.38871 0.0
H949 H 0.64242 0.08355 0.43293 0.0
H950 H 0.63441 0.07406 0.38138 0.0
H951 H 0.61944 0.0646 0.43933 0.0
H952 H 0.61673 0.10396 0.4464 0.0
H953 H 0.61934 0.1151 0.395 0.0
H954 H 0.67616 0.07051 0.46476 0.0
H955 H 0.64874 0.04397 0.42728 0.0
H956 H 0.69539 0.12844 0.39438 0.0
H957 H 0.66463 0.13934 0.38705 0.0
H958 H 0.71089 0.14772 0.37667 0.0
H959 H 0.68073 0.1585 0.36944 0.0
H960 H 0.70845 0.10761 0.41038 0.0
H961 H 0.66816 0.08213 0.39144 0.0
H962 H 0.71526 0.09194 0.3981 0.0
H963 H 0.67565 0.06694 0.37959 0.0
H964 H 0.72284 0.13832 0.44922 0.0
H965 H 0.70957 0.16612 0.43342 0.0
H966 H 0.65292 0.0974 0.33737 0.0
H967 H 0.69576 0.11147 0.34199 0.0
Li968 Li 0.57423 0.66907 0.92146 0.0
Li969 Li 0.55071 0.65731 0.91527 0.0
Li970 Li 0.56726 0.67038 0.8947 0.0
Li971 Li 0.56364 0.68235 0.91755 0.0
C972 C 0.56303 0.64208 0.91212 0.0
N973 N 0.55938 0.61802 0.92495 0.0
C974 C 0.56068 0.63939 0.92898 0.0
C975 C 0.56351 0.63251 0.90181 0.0
C976 C 0.55886 0.62717 0.93522 0.0
C977 C 0.56165 0.62041 0.90853 0.0
C978 C 0.55066 0.66882 0.94587 0.0
C979 C 0.53014 0.6694 0.95136 0.0
N980 N 0.53224 0.66909 0.9678 0.0
C981 C 0.55263 0.66854 0.96282 0.0
C982 C 0.53933 0.66928 0.94007 0.0
C983 C 0.54319 0.66866 0.97371 0.0
C984 C 0.59099 0.67549 0.94895 0.0
N985 N 0.58791 0.66874 0.93438 0.0
C986 C 0.60391 0.66148 0.93937 0.0
C987 C 0.59427 0.66199 0.9293 0.0
C988 C 0.60712 0.66809 0.95471 0.0
C989 C 0.60067 0.67535 0.95933 0.0
H990 H 0.58587 0.68092 0.95251 0.0
H991 H 0.59171 0.65685 0.91755 0.0
C992 C 0.52721 0.63413 0.90495 0.0
N993 N 0.53385 0.6411 0.91868 0.0
C994 C 0.51498 0.62194 0.90629 0.0
C995 C 0.51682 0.62413 0.93592 0.0
C996 C 0.52903 0.63625 0.934 0.0
C997 C 0.50961 0.61682 0.92195 0.0
H998 H 0.53154 0.63796 0.89295 0.0
H999 H 0.53475 0.6416 0.94477 0.0
C1000 C 0.59444 0.69087 0.90927 0.0
N1001 N 0.62185 0.7006 0.91334 0.0
C1002 C 0.60188 0.70131 0.92047 0.0
C1003 C 0.60095 0.68544 0.90005 0.0
C1004 C 0.61573 0.70607 0.92238 0.0
C1005 C 0.61482 0.69048 0.9023 0.0
C1006 C 0.54768 0.67475 0.88556 0.0
C1007 C 0.55637 0.6878 0.87957 0.0
C1008 C 0.53662 0.66565 0.87604 0.0
C1009 C 0.55394 0.69148 0.86408 0.0
C1010 C 0.53453 0.66972 0.86061 0.0
N1011 N 0.54317 0.68243 0.85499 0.0
C1012 C 0.56296 0.65991 0.86265 0.0
C1013 C 0.5803 0.68292 0.86482 0.0
C1014 C 0.56426 0.66041 0.84554 0.0
N1015 N 0.57082 0.67112 0.87183 0.0
C1016 C 0.58192 0.68388 0.84776 0.0
C1017 C 0.57371 0.67257 0.83787 0.0
H1018 H 0.5554 0.65073 0.86862 0.0
H1019 H 0.5863 0.6917 0.87246 0.0
C1020 C 0.5707 0.70426 0.93849 0.0
N1021 N 0.56306 0.69771 0.9251 0.0
C1022 C 0.57063 0.71563 0.94476 0.0
C1023 C 0.55467 0.71309 0.92348 0.0
C1024 C 0.55491 0.70169 0.91776 0.0
C1025 C 0.56268 0.72025 0.93706 0.0
H1026 H 0.57681 0.70062 0.9443 0.0
H1027 H 0.54854 0.69599 0.90755 0.0
O1028 O 0.56472 0.65389 0.90557 0.0
O1029 O 0.55996 0.66889 0.93515 0.0
O1030 O 0.58081 0.68581 0.90754 0.0
O1031 O 0.55017 0.67084 0.90048 0.0
H1032 H 0.56026 0.64662 0.9372 0.0
H1033 H 0.56528 0.63442 0.88873 0.0
H1034 H 0.55704 0.62497 0.94823 0.0
H1035 H 0.56199 0.61292 0.90068 0.0
H1036 H 0.52134 0.66974 0.94704 0.0
H1037 H 0.56136 0.66823 0.9675 0.0
H1038 H 0.53761 0.66952 0.92703 0.0
H1039 H 0.54459 0.66844 0.98686 0.0
H1040 H 0.60847 0.6556 0.93537 0.0
H1041 H 0.60298 0.68079 0.9709 0.0
H1042 H 0.50976 0.61662 0.89519 0.0
H1043 H 0.51321 0.62037 0.94821 0.0
H1044 H 0.597 0.70563 0.92769 0.0
H1045 H 0.59531 0.67726 0.89144 0.0
H1046 H 0.6216 0.7141 0.93106 0.0
H1047 H 0.61997 0.68631 0.89534 0.0
H1048 H 0.56507 0.69493 0.88671 0.0
H1049 H 0.52971 0.65557 0.8805 0.0
H1050 H 0.56067 0.7015 0.85925 0.0
H1051 H 0.52604 0.66276 0.85309 0.0
H1052 H 0.55761 0.65151 0.83837 0.0
H1053 H 0.5894 0.6934 0.84234 0.0
H1054 H 0.57691 0.7209 0.95529 0.0
H1055 H 0.54821 0.71623 0.91743 0.0
Li1056 Li 0.56993 0.90076 0.91997 0.0
Li1057 Li 0.55711 0.87618 0.91871 0.0
Li1058 Li 0.56147 0.88995 0.89395 0.0
Li1059 Li 0.54551 0.88862 0.91494 0.0
C1060 C 0.58795 0.89365 0.91212 0.0
N1061 N 0.61476 0.90464 0.92128 0.0
C1062 C 0.59167 0.88704 0.92372 0.0
C1063 C 0.59787 0.90579 0.9051 0.0
C1064 C 0.60528 0.89277 0.9282 0.0
C1065 C 0.61137 0.9112 0.90993 0.0
C1066 C 0.5479 0.88934 0.94698 0.0
C1067 C 0.52767 0.88005 0.9636 0.0
N1068 N 0.53224 0.8924 0.97067 0.0
C1069 C 0.55242 0.90194 0.95444 0.0
C1070 C 0.53546 0.87828 0.95163 0.0
C1071 C 0.54435 0.90328 0.96639 0.0
C1072 C 0.58733 0.92838 0.92719 0.0
N1073 N 0.584 0.91555 0.93137 0.0
C1074 C 0.59935 0.92361 0.95408 0.0
C1075 C 0.58979 0.91298 0.94447 0.0
C1076 C 0.60272 0.93699 0.9504 0.0
C1077 C 0.5967 0.93931 0.93658 0.0
H1078 H 0.58232 0.93008 0.91693 0.0
H1079 H 0.58671 0.90263 0.94769 0.0
C1080 C 0.55899 0.85263 0.91727 0.0
N1081 N 0.55602 0.86029 0.92739 0.0
C1082 C 0.55828 0.84082 0.92313 0.0
C1083 C 0.55211 0.84532 0.94994 0.0
C1084 C 0.55274 0.85697 0.94347 0.0
C1085 C 0.5548 0.83705 0.93965 0.0
H1086 H 0.56193 0.85575 0.90466 0.0
H1087 H 0.55069 0.8634 0.9513 0.0
C1088 C 0.56031 0.91228 0.89027 0.0
N1089 N 0.56122 0.92609 0.86191 0.0
C1090 C 0.54838 0.91089 0.88359 0.0
C1091 C 0.57272 0.92076 0.8826 0.0
C1092 C 0.54905 0.91795 0.86923 0.0
C1093 C 0.57296 0.92763 0.86824 0.0
C1094 C 0.53804 0.86045 0.89776 0.0
C1095 C 0.54146 0.85575 0.88368 0.0
C1096 C 0.5286 0.85116 0.90889 0.0
C1097 C 0.53545 0.84181 0.88104 0.0
C1098 C 0.52284 0.8373 0.90583 0.0
N1099 N 0.52636 0.83295 0.89208 0.0
C1100 C 0.57669 0.8931 0.86498 0.0
C1101 C 0.55441 0.8891 0.86072 0.0
C1102 C 0.57895 0.89376 0.84801 0.0
N1103 N 0.56461 0.89088 0.87093 0.0
C1104 C 0.55625 0.8898 0.8437 0.0
C1105 C 0.56865 0.89212 0.83711 0.0
H1106 H 0.58454 0.89424 0.87339 0.0
H1107 H 0.54485 0.88718 0.86584 0.0
C1108 C 0.52963 0.90009 0.92467 0.0
N1109 N 0.52913 0.88877 0.91847 0.0
C1110 C 0.5177 0.90048 0.92712 0.0
C1111 C 0.50502 0.8776 0.91657 0.0
C1112 C 0.51718 0.87765 0.91439 0.0
C1113 C 0.50519 0.88914 0.92295 0.0
H1114 H 0.53933 0.90886 0.92756 0.0
H1115 H 0.51709 0.86885 0.9093 0.0
O1116 O 0.57465 0.88828 0.9077 0.0
O1117 O 0.55552 0.88787 0.93501 0.0
O1118 O 0.55984 0.90526 0.90414 0.0
O1119 O 0.54395 0.87406 0.90069 0.0
H1120 H 0.58413 0.87765 0.9293 0.0
H1121 H 0.59515 0.91106 0.89616 0.0
H1122 H 0.60831 0.8878 0.93721 0.0
H1123 H 0.61914 0.92064 0.90468 0.0
H1124 H 0.51798 0.8716 0.96723 0.0
H1125 H 0.56199 0.91062 0.95095 0.0
H1126 H 0.53178 0.86849 0.94589 0.0
H1127 H 0.54769 0.91298 0.97222 0.0
H1128 H 0.6038 0.92133 0.96449 0.0
H1129 H 0.59872 0.94939 0.93347 0.0
H1130 H 0.56067 0.83481 0.91493 0.0
H1131 H 0.54944 0.84273 0.96276 0.0
H1132 H 0.53868 0.90432 0.88932 0.0
H1133 H 0.58204 0.92192 0.88758 0.0
H1134 H 0.53989 0.91692 0.86388 0.0
H1135 H 0.58247 0.93416 0.86211 0.0
H1136 H 0.54878 0.86278 0.87497 0.0
H1137 H 0.52593 0.85461 0.91992 0.0
H1138 H 0.53805 0.83803 0.87024 0.0
H1139 H 0.51562 0.83 0.9144 0.0
H1140 H 0.58857 0.89533 0.8435 0.0
H1141 H 0.54808 0.88864 0.83581 0.0
H1142 H 0.5183 0.90964 0.93185 0.0
H1143 H 0.49558 0.86862 0.91333 0.0
Li1144 Li 0.66877 0.57603 0.41807 0.0
Li1145 Li 0.6802 0.56277 0.41746 0.0
Li1146 Li 0.67084 0.56697 0.39133 0.0
Li1147 Li 0.65616 0.55104 0.41231 0.0
C1148 C 0.69491 0.59355 0.40416 0.0
N1149 N 0.714 0.62065 0.40034 0.0
C1150 C 0.70662 0.59947 0.41385 0.0
C1151 C 0.69306 0.60137 0.39229 0.0
C1152 C 0.71611 0.6132 0.41181 0.0
C1153 C 0.70279 0.61505 0.39061 0.0
C1154 C 0.66956 0.55917 0.44805 0.0
C1155 C 0.67364 0.54588 0.46793 0.0
N1156 N 0.67789 0.5562 0.47897 0.0
C1157 C 0.67384 0.56959 0.45965 0.0
C1158 C 0.66933 0.54717 0.45227 0.0
C1159 C 0.67806 0.56791 0.47519 0.0
C1160 C 0.65554 0.5891 0.43071 0.0
N1161 N 0.66795 0.59031 0.42898 0.0
C1162 C 0.67817 0.61066 0.44492 0.0
C1163 C 0.67918 0.60081 0.43583 0.0
C1164 C 0.66545 0.6096 0.44705 0.0
C1165 C 0.65405 0.59871 0.43965 0.0
H1166 H 0.64672 0.58046 0.42548 0.0
H1167 H 0.68885 0.6013 0.43479 0.0
C1168 C 0.69857 0.5532 0.41906 0.0
N1169 N 0.69487 0.56153 0.42649 0.0
C1170 C 0.70969 0.55244 0.42485 0.0
C1171 C 0.71286 0.56871 0.446 0.0
C1172 C 0.70176 0.56924 0.43969 0.0
C1173 C 0.71706 0.56032 0.43845 0.0
H1174 H 0.69306 0.54736 0.4084 0.0
H1175 H 0.69876 0.57598 0.44518 0.0
C1176 C 0.64817 0.57086 0.39182 0.0
N1177 N 0.63569 0.58137 0.37242 0.0
C1178 C 0.63553 0.56225 0.38473 0.0
C1179 C 0.65433 0.58483 0.38928 0.0
C1180 C 0.62943 0.56775 0.37489 0.0
C1181 C 0.64789 0.58994 0.37938 0.0
C1182 C 0.66442 0.53682 0.39469 0.0
C1183 C 0.65923 0.5327 0.37881 0.0
C1184 C 0.66335 0.52719 0.40615 0.0
C1185 C 0.65282 0.51895 0.37477 0.0
C1186 C 0.65685 0.51353 0.40164 0.0
N1187 N 0.65174 0.50973 0.38618 0.0
C1188 C 0.68612 0.57748 0.3621 0.0
C1189 C 0.66234 0.56449 0.35831 0.0
C1190 C 0.68812 0.57957 0.34514 0.0
N1191 N 0.67337 0.57014 0.36831 0.0
C1192 C 0.66386 0.5663 0.34131 0.0
C1193 C 0.67689 0.57392 0.3345 0.0
H1194 H 0.69474 0.58163 0.37032 0.0
H1195 H 0.65237 0.55828 0.36349 0.0
C1196 C 0.63549 0.52906 0.43033 0.0
N1197 N 0.63957 0.53454 0.41509 0.0
C1198 C 0.62344 0.51675 0.43227 0.0
C1199 C 0.61998 0.5161 0.40283 0.0
C1200 C 0.63207 0.5284 0.40148 0.0
C1201 C 0.61552 0.5101 0.41839 0.0
H1202 H 0.64156 0.53424 0.44098 0.0
H1203 H 0.63555 0.53302 0.38952 0.0
O1204 O 0.68556 0.58009 0.40597 0.0
O1205 O 0.66547 0.56068 0.43273 0.0
O1206 O 0.6543 0.56561 0.40146 0.0
O1207 O 0.67053 0.55022 0.39897 0.0
H1208 H 0.70834 0.59357 0.42293 0.0
H1209 H 0.68433 0.59689 0.38428 0.0
H1210 H 0.72516 0.61792 0.41932 0.0
H1211 H 0.70145 0.62121 0.3815 0.0
H1212 H 0.67359 0.53668 0.47131 0.0
H1213 H 0.67395 0.57888 0.45669 0.0
H1214 H 0.66592 0.53896 0.44354 0.0
H1215 H 0.68146 0.57592 0.48425 0.0
H1216 H 0.6872 0.61887 0.45045 0.0
H1217 H 0.64401 0.59733 0.4413 0.0
H1218 H 0.71271 0.54606 0.41839 0.0
H1219 H 0.71816 0.57489 0.45657 0.0
H1220 H 0.63052 0.55143 0.38673 0.0
H1221 H 0.66387 0.59167 0.39508 0.0
H1222 H 0.6197 0.56119 0.36923 0.0
H1223 H 0.65257 0.60074 0.37731 0.0
H1224 H 0.66006 0.54002 0.36975 0.0
H1225 H 0.66747 0.53021 0.41839 0.0
H1226 H 0.64867 0.51561 0.36257 0.0
H1227 H 0.65587 0.50596 0.41043 0.0
H1228 H 0.69834 0.58555 0.34043 0.0
H1229 H 0.65494 0.56147 0.33356 0.0
H1230 H 0.62028 0.51259 0.44451 0.0
H1231 H 0.6143 0.51125 0.39177 0.0
Li1232 Li 0.11601 0.67778 0.9177 0.0
Li1233 Li 0.09151 0.66592 0.92 0.0
Li1234 Li 0.10356 0.65365 0.91504 0.0
Li1235 Li 0.10162 0.66764 0.89366 0.0
C1236 C 0.11136 0.67072 0.94852 0.0
N1237 N 0.12582 0.68489 0.976 0.0
C1238 C 0.10659 0.67749 0.9584 0.0
C1239 C 0.12348 0.67114 0.95264 0.0
C1240 C 0.11404 0.68459 0.97225 0.0
C1241 C 0.13065 0.67838 0.96656 0.0
C1242 C 0.1042 0.6917 0.89613 0.0
C1243 C 0.09422 0.69865 0.8748 0.0
N1244 N 0.10661 0.70953 0.87152 0.0
C1245 C 0.11683 0.70296 0.89256 0.0
C1246 C 0.09279 0.68953 0.88721 0.0
C1247 C 0.11783 0.71185 0.88009 0.0
C1248 C 0.14434 0.69435 0.9213 0.0
N1249 N 0.13215 0.69302 0.92522 0.0
C1250 C 0.14287 0.71435 0.9391 0.0
C1251 C 0.13119 0.70267 0.93398 0.0
C1252 C 0.15563 0.71613 0.93499 0.0
C1253 C 0.15628 0.70587 0.92614 0.0
H1254 H 0.14479 0.6866 0.91416 0.0
H1255 H 0.12132 0.7014 0.93668 0.0
C1256 C 0.07138 0.65612 0.94404 0.0
N1257 N 0.07673 0.6652 0.93153 0.0
C1258 C 0.06037 0.65487 0.95294 0.0
C1259 C 0.0606 0.67244 0.93597 0.0
C1260 C 0.07169 0.67339 0.92744 0.0
C1261 C 0.05483 0.66308 0.94891 0.0
H1262 H 0.07567 0.64979 0.94702 0.0
H1263 H 0.07625 0.68064 0.91757 0.0
C1264 C 0.12359 0.65952 0.89495 0.0
N1265 N 0.13385 0.64327 0.88482 0.0
C1266 C 0.11998 0.65311 0.87961 0.0
C1267 C 0.13246 0.65771 0.90511 0.0
C1268 C 0.12528 0.64494 0.87471 0.0
C1269 C 0.13751 0.64943 0.89979 0.0
C1270 C 0.07354 0.64315 0.90682 0.0
C1271 C 0.06896 0.63183 0.91705 0.0
C1272 C 0.06427 0.64657 0.90035 0.0
C1273 C 0.05515 0.62413 0.92069 0.0
C1274 C 0.05055 0.63863 0.90433 0.0
N1275 N 0.04631 0.62767 0.91433 0.0
C1276 C 0.10849 0.63502 0.93287 0.0
C1277 C 0.09874 0.62783 0.90638 0.0
C1278 C 0.10899 0.62312 0.93501 0.0
N1279 N 0.10357 0.63719 0.91865 0.0
C1280 C 0.09898 0.61577 0.90802 0.0
C1281 C 0.10423 0.61334 0.92244 0.0
H1282 H 0.1121 0.64255 0.94251 0.0
H1283 H 0.09485 0.62984 0.89523 0.0
C1284 C 0.11173 0.67911 0.86268 0.0
N1285 N 0.10045 0.66961 0.8706 0.0
C1286 C 0.11145 0.68096 0.84574 0.0
C1287 C 0.08802 0.66303 0.84539 0.0
C1288 C 0.08874 0.66157 0.86237 0.0
C1289 C 0.09949 0.67283 0.83684 0.0
H1290 H 0.12094 0.68525 0.86956 0.0
H1291 H 0.08001 0.65393 0.86894 0.0
O1292 O 0.10434 0.66392 0.93474 0.0
O1293 O 0.10304 0.68273 0.9081 0.0
O1294 O 0.11825 0.66729 0.90015 0.0
O1295 O 0.08706 0.65102 0.90344 0.0
H1296 H 0.09733 0.67742 0.95533 0.0
H1297 H 0.12747 0.66618 0.94499 0.0
H1298 H 0.11049 0.68991 0.97997 0.0
H1299 H 0.1401 0.67887 0.96982 0.0
H1300 H 0.0855 0.69703 0.86771 0.0
H1301 H 0.12579 0.70475 0.89922 0.0
H1302 H 0.08297 0.68077 0.88962 0.0
H1303 H 0.12755 0.72058 0.87716 0.0
H1304 H 0.14193 0.7221 0.94567 0.0
H1305 H 0.16593 0.70681 0.92283 0.0
H1306 H 0.0561 0.6474 0.96267 0.0
H1307 H 0.05667 0.67901 0.9326 0.0
H1308 H 0.11304 0.65429 0.87164 0.0
H1309 H 0.13522 0.66243 0.91712 0.0
H1310 H 0.12253 0.63988 0.8629 0.0
H1311 H 0.14429 0.64785 0.90758 0.0
H1312 H 0.07599 0.6291 0.92229 0.0
H1313 H 0.06766 0.6554 0.89259 0.0
H1314 H 0.05147 0.61537 0.92865 0.0
H1315 H 0.04328 0.64122 0.89952 0.0
H1316 H 0.11295 0.62155 0.9464 0.0
H1317 H 0.09534 0.60855 0.89797 0.0
H1318 H 0.12049 0.68872 0.8397 0.0
H1319 H 0.07867 0.65638 0.83899 0.0
Li1320 Li 0.42214 0.09167 0.41916 0.0
Li1321 Li 0.43494 0.11627 0.41862 0.0
Li1322 Li 0.43186 0.10305 0.39268 0.0
Li1323 Li 0.44736 0.10464 0.4145 0.0
C1324 C 0.40467 0.09895 0.40209 0.0
N1325 N 0.37788 0.08866 0.3931 0.0
C1326 C 0.39708 0.10432 0.40887 0.0
C1327 C 0.39867 0.0885 0.39053 0.0
C1328 C 0.38354 0.09894 0.40424 0.0
C1329 C 0.38512 0.0834 0.38619 0.0
C1330 C 0.43728 0.10971 0.44926 0.0
C1331 C 0.44919 0.12706 0.46969 0.0
N1332 N 0.43778 0.12165 0.47908 0.0
C1333 C 0.4257 0.10426 0.45917 0.0
C1334 C 0.44916 0.12113 0.45462 0.0
C1335 C 0.42615 0.11046 0.47418 0.0
C1336 C 0.41042 0.06628 0.43383 0.0
N1337 N 0.40785 0.0763 0.42959 0.0
C1338 C 0.38592 0.06441 0.44198 0.0
C1339 C 0.39592 0.0756 0.4335 0.0
C1340 C 0.38831 0.05391 0.44663 0.0
C1341 C 0.40075 0.05493 0.44236 0.0
H1342 H 0.42011 0.06724 0.43081 0.0
H1343 H 0.39425 0.08386 0.43042 0.0
C1344 C 0.44568 0.14433 0.42373 0.0
N1345 N 0.43538 0.13179 0.42771 0.0
C1346 C 0.44588 0.15583 0.42992 0.0
C1347 C 0.42492 0.14131 0.44429 0.0
C1348 C 0.42516 0.13008 0.43786 0.0
C1349 C 0.43532 0.15439 0.4402 0.0
H1350 H 0.45357 0.1454 0.41545 0.0
H1351 H 0.4171 0.11998 0.44079 0.0
C1352 C 0.42936 0.07659 0.39426 0.0
N1353 N 0.42146 0.05316 0.37633 0.0
C1354 C 0.43908 0.07386 0.38767 0.0
C1355 C 0.41561 0.06722 0.39204 0.0
C1356 C 0.43489 0.06202 0.37854 0.0
C1357 C 0.41182 0.05549 0.38287 0.0
C1358 C 0.46158 0.12733 0.39686 0.0
C1359 C 0.46583 0.12769 0.38062 0.0
C1360 C 0.47114 0.13484 0.40897 0.0
C1361 C 0.47961 0.13536 0.37684 0.0
C1362 C 0.48483 0.14236 0.40471 0.0
N1363 N 0.48875 0.14245 0.38887 0.0
C1364 C 0.422 0.10703 0.36224 0.0
C1365 C 0.43617 0.09738 0.36034 0.0
C1366 C 0.42048 0.10653 0.34513 0.0
N1367 N 0.42961 0.10232 0.36946 0.0
C1368 C 0.435 0.09675 0.34324 0.0
C1369 C 0.42706 0.10135 0.33542 0.0
H1370 H 0.41717 0.11124 0.36975 0.0
H1371 H 0.44252 0.09414 0.36634 0.0
C1372 C 0.46889 0.10566 0.43342 0.0
N1373 N 0.46402 0.10502 0.41797 0.0
C1374 C 0.48151 0.10663 0.43568 0.0
C1375 C 0.48371 0.10615 0.4061 0.0
C1376 C 0.47104 0.10506 0.40443 0.0
C1377 C 0.48914 0.10704 0.42187 0.0
H1378 H 0.46305 0.10555 0.44397 0.0
H1379 H 0.46687 0.10445 0.3923 0.0
O1380 O 0.41794 0.1041 0.40656 0.0
O1381 O 0.43698 0.10389 0.43441 0.0
O1382 O 0.43332 0.08811 0.40334 0.0
O1383 O 0.44814 0.11969 0.40084 0.0
H1384 H 0.40157 0.11253 0.41766 0.0
H1385 H 0.40448 0.08453 0.38471 0.0
H1386 H 0.37753 0.10295 0.40948 0.0
H1387 H 0.38037 0.07531 0.37725 0.0
H1388 H 0.45829 0.13595 0.47393 0.0
H1389 H 0.41644 0.0954 0.45527 0.0
H1390 H 0.45824 0.12543 0.44718 0.0
H1391 H 0.41724 0.10639 0.48193 0.0
H1392 H 0.37648 0.06403 0.44498 0.0
H1393 H 0.40317 0.04725 0.44601 0.0
H1394 H 0.45395 0.16575 0.42622 0.0
H1395 H 0.41664 0.13977 0.45224 0.0
H1396 H 0.44976 0.08083 0.38948 0.0
H1397 H 0.40791 0.06884 0.39753 0.0
H1398 H 0.44232 0.05987 0.37325 0.0
H1399 H 0.40121 0.04819 0.38103 0.0
H1400 H 0.45858 0.12208 0.37105 0.0
H1401 H 0.46804 0.13473 0.42157 0.0
H1402 H 0.48304 0.13566 0.36435 0.0
H1403 H 0.49234 0.14811 0.414 0.0
H1404 H 0.41445 0.11039 0.33956 0.0
H1405 H 0.44021 0.09265 0.33623 0.0
H1406 H 0.48538 0.10733 0.44804 0.0
H1407 H 0.48918 0.10622 0.39515 0.0
Li1408 Li 0.31994 0.43891 0.92069 0.0
Li1409 Li 0.33017 0.42466 0.92237 0.0
Li1410 Li 0.34402 0.44971 0.91715 0.0
Li1411 Li 0.3298 0.43439 0.89535 0.0
C1412 C 0.32828 0.44123 0.95169 0.0
N1413 N 0.31723 0.44347 0.98101 0.0
C1414 C 0.32176 0.43008 0.96223 0.0
C1415 C 0.32935 0.45357 0.95618 0.0
C1416 C 0.3162 0.43141 0.97697 0.0
C1417 C 0.32364 0.45448 0.97102 0.0
C1418 C 0.30506 0.40808 0.90608 0.0
C1419 C 0.29865 0.38722 0.89163 0.0
N1420 N 0.28664 0.38112 0.89985 0.0
C1421 C 0.29255 0.40164 0.91419 0.0
C1422 C 0.30805 0.40084 0.89455 0.0
C1423 C 0.28342 0.388 0.91095 0.0
C1424 C 0.30403 0.45139 0.92297 0.0
N1425 N 0.30548 0.44101 0.92876 0.0
C1426 C 0.28557 0.43302 0.94527 0.0
C1427 C 0.29661 0.43196 0.93981 0.0
C1428 C 0.28364 0.44349 0.93925 0.0
C1429 C 0.29317 0.45288 0.92814 0.0
H1430 H 0.31115 0.45839 0.9141 0.0
H1431 H 0.29798 0.42377 0.94416 0.0
C1432 C 0.34216 0.41075 0.93581 0.0
N1433 N 0.32995 0.40982 0.93325 0.0
C1434 C 0.34296 0.40043 0.944 0.0
C1435 C 0.31859 0.38851 0.94719 0.0
C1436 C 0.31827 0.39904 0.93881 0.0
C1437 C 0.33107 0.38913 0.94983 0.0
H1438 H 0.35132 0.4196 0.93162 0.0
H1439 H 0.30874 0.39874 0.93711 0.0
C1440 C 0.33762 0.46491 0.89843 0.0
N1441 N 0.35184 0.49199 0.88983 0.0
C1442 C 0.34233 0.46872 0.88233 0.0
C1443 C 0.33996 0.47488 0.91008 0.0
C1444 C 0.34954 0.48246 0.87823 0.0
C1445 C 0.34722 0.48851 0.90552 0.0
C1446 C 0.35208 0.42969 0.89769 0.0
C1447 C 0.36505 0.43841 0.8915 0.0
C1448 C 0.34614 0.41575 0.89502 0.0
C1449 C 0.37168 0.43308 0.88235 0.0
C1450 C 0.35311 0.4108 0.88584 0.0
N1451 N 0.36562 0.4195 0.87971 0.0
C1452 C 0.36486 0.47088 0.93608 0.0
C1453 C 0.36875 0.47188 0.9073 0.0
C1454 C 0.37712 0.48292 0.93842 0.0
N1455 N 0.36092 0.46569 0.92069 0.0
C1456 C 0.38104 0.4839 0.90905 0.0
C1457 C 0.38538 0.48959 0.92477 0.0
H1458 H 0.35847 0.4657 0.94653 0.0
H1459 H 0.36532 0.46755 0.8952 0.0
C1460 C 0.31606 0.4246 0.8649 0.0
N1461 N 0.32842 0.43169 0.8722 0.0
C1462 C 0.31507 0.42274 0.84785 0.0
C1463 C 0.33951 0.43586 0.84614 0.0
C1464 C 0.34002 0.43739 0.86319 0.0
C1465 C 0.32692 0.42845 0.83825 0.0
H1466 H 0.30697 0.42046 0.87232 0.0
H1467 H 0.34968 0.44336 0.86922 0.0
O1468 O 0.33363 0.44007 0.9371 0.0
O1469 O 0.31411 0.42146 0.90912 0.0
O1470 O 0.33072 0.45149 0.90274 0.0
O1471 O 0.34545 0.43478 0.90669 0.0
H1472 H 0.32092 0.42049 0.95903 0.0
H1473 H 0.33446 0.46232 0.94828 0.0
H1474 H 0.31106 0.42284 0.98519 0.0
H1475 H 0.32431 0.46394 0.97458 0.0
H1476 H 0.30087 0.38151 0.88276 0.0
H1477 H 0.28993 0.40709 0.92294 0.0
H1478 H 0.31741 0.40573 0.88769 0.0
H1479 H 0.27377 0.38288 0.91724 0.0
H1480 H 0.27839 0.42545 0.95366 0.0
H1481 H 0.29217 0.4612 0.92332 0.0
H1482 H 0.35281 0.40146 0.94612 0.0
H1483 H 0.30922 0.38 0.95158 0.0
H1484 H 0.34049 0.46116 0.87309 0.0
H1485 H 0.3363 0.47212 0.92255 0.0
H1486 H 0.35331 0.48555 0.86584 0.0
H1487 H 0.3492 0.49633 0.91446 0.0
H1488 H 0.36994 0.44919 0.89366 0.0
H1489 H 0.33638 0.40878 0.90022 0.0
H1490 H 0.38167 0.43974 0.87738 0.0
H1491 H 0.34859 0.40003 0.88367 0.0
H1492 H 0.38016 0.48688 0.95076 0.0
H1493 H 0.38697 0.4888 0.89816 0.0
H1494 H 0.30516 0.41714 0.8422 0.0
H1495 H 0.34889 0.4404 0.8392 0.0
Li1496 Li 0.87837 0.31685 0.42009 0.0
Li1497 Li 0.90298 0.32894 0.42077 0.0
Li1498 Li 0.88975 0.34082 0.4155 0.0
Li1499 Li 0.89164 0.32678 0.39409 0.0
C1500 C 0.88485 0.3264 0.45068 0.0
N1501 N 0.87311 0.3158 0.48085 0.0
C1502 C 0.89062 0.32095 0.46118 0.0
C1503 C 0.87322 0.32663 0.45562 0.0
C1504 C 0.88451 0.3156 0.47636 0.0
C1505 C 0.8674 0.32116 0.47089 0.0
C1506 C 0.89591 0.30388 0.4046 0.0
C1507 C 0.91146 0.29939 0.38944 0.0
N1508 N 0.90621 0.28713 0.39698 0.0
C1509 C 0.89055 0.29115 0.41203 0.0
C1510 C 0.90635 0.30796 0.39308 0.0
C1511 C 0.89594 0.28286 0.40808 0.0
C1512 C 0.85037 0.29866 0.42451 0.0
N1513 N 0.86301 0.3017 0.42929 0.0
C1514 C 0.85397 0.28222 0.44668 0.0
C1515 C 0.86499 0.29384 0.44023 0.0
C1516 C 0.84078 0.27863 0.44172 0.0
C1517 C 0.83904 0.28711 0.43064 0.0
H1518 H 0.8491 0.30499 0.41563 0.0
H1519 H 0.87517 0.29647 0.44372 0.0
C1520 C 0.92855 0.34312 0.43491 0.0
N1521 N 0.91846 0.3304 0.43132 0.0
C1522 C 0.94018 0.34511 0.44304 0.0
C1523 C 0.93075 0.32082 0.44377 0.0
C1524 C 0.91928 0.31931 0.43567 0.0
C1525 C 0.9414 0.33386 0.44757 0.0
H1526 H 0.92749 0.35174 0.43157 0.0
H1527 H 0.91097 0.30929 0.43313 0.0
C1528 C 0.86721 0.33204 0.39766 0.0
N1529 N 0.85203 0.34389 0.38908 0.0
C1530 C 0.86726 0.33614 0.38143 0.0
C1531 C 0.85928 0.33377 0.40947 0.0
C1532 C 0.85956 0.34216 0.37735 0.0
C1533 C 0.85173 0.33984 0.40491 0.0
C1534 C 0.91794 0.35089 0.39551 0.0
C1535 C 0.92071 0.36332 0.3888 0.0
C1536 C 0.92727 0.34645 0.39335 0.0
C1537 C 0.93255 0.37089 0.37965 0.0
C1538 C 0.93901 0.35432 0.38415 0.0
N1539 N 0.94137 0.36626 0.37752 0.0
C1540 C 0.88922 0.36164 0.43413 0.0
C1541 C 0.88973 0.36429 0.40514 0.0
C1542 C 0.88931 0.37384 0.43638 0.0
N1543 N 0.88945 0.35716 0.41869 0.0
C1544 C 0.88979 0.37648 0.4068 0.0
C1545 C 0.88969 0.38148 0.42259 0.0
H1546 H 0.88913 0.35583 0.44469 0.0
H1547 H 0.88997 0.36051 0.39301 0.0
C1548 C 0.88812 0.31252 0.3641 0.0
N1549 N 0.89266 0.32493 0.37097 0.0
C1550 C 0.88916 0.31127 0.34712 0.0
C1551 C 0.89907 0.33554 0.3446 0.0
C1552 C 0.89785 0.33631 0.36159 0.0
C1553 C 0.8948 0.32291 0.33716 0.0
H1554 H 0.88376 0.30359 0.37182 0.0
H1555 H 0.90087 0.34597 0.36726 0.0
O1556 O 0.8906 0.33154 0.43568 0.0
O1557 O 0.89075 0.31212 0.40839 0.0
O1558 O 0.87483 0.32628 0.40193 0.0
O1559 O 0.90639 0.34339 0.40457 0.0
H1560 H 0.89966 0.32075 0.4576 0.0
H1561 H 0.8687 0.33093 0.44773 0.0
H1562 H 0.88881 0.31127 0.48456 0.0
H1563 H 0.85834 0.32119 0.47482 0.0
H1564 H 0.91955 0.30245 0.38056 0.0
H1565 H 0.88235 0.2877 0.42079 0.0
H1566 H 0.91032 0.31754 0.38678 0.0
H1567 H 0.89194 0.27303 0.41383 0.0
H1568 H 0.85575 0.27602 0.45529 0.0
H1569 H 0.82908 0.28459 0.42625 0.0
H1570 H 0.94798 0.35533 0.44606 0.0
H1571 H 0.93127 0.31187 0.44701 0.0
H1572 H 0.87322 0.33476 0.37209 0.0
H1573 H 0.85904 0.33056 0.42204 0.0
H1574 H 0.85957 0.34545 0.36486 0.0
H1575 H 0.84564 0.34134 0.41396 0.0
H1576 H 0.91376 0.36706 0.39053 0.0
H1577 H 0.92561 0.33714 0.39891 0.0
H1578 H 0.93474 0.38046 0.37428 0.0
H1579 H 0.94628 0.35096 0.38237 0.0
H1580 H 0.8894 0.3774 0.44877 0.0
H1581 H 0.88986 0.38191 0.39582 0.0
H1582 H 0.88575 0.30134 0.3419 0.0
H1583 H 0.90312 0.34473 0.33735 0.0
Li1584 Li 0.10447 0.44972 0.58363 0.0
Li1585 Li 0.10294 0.43349 0.60466 0.0
Li1586 Li 0.11741 0.43867 0.57976 0.0
Li1587 Li 0.09318 0.42479 0.57715 0.0
C1588 C 0.12565 0.46381 0.6039 0.0
N1589 N 0.13836 0.49011 0.61554 0.0
C1590 C 0.12471 0.46634 0.62055 0.0
C1591 C 0.13315 0.47465 0.5932 0.0
C1592 C 0.13119 0.47971 0.62619 0.0
C1593 C 0.13946 0.48787 0.59931 0.0
C1594 C 0.07529 0.43019 0.59944 0.0
C1595 C 0.05246 0.41239 0.60528 0.0
N1596 N 0.0495 0.42176 0.61125 0.0
C1597 C 0.07195 0.43964 0.60547 0.0
C1598 C 0.0654 0.41645 0.59921 0.0
C1599 C 0.05889 0.43518 0.61146 0.0
C1600 C 0.10407 0.47071 0.56527 0.0
N1601 N 0.10369 0.46586 0.58067 0.0
C1602 C 0.10296 0.4846 0.59269 0.0
C1603 C 0.10303 0.47246 0.59426 0.0
C1604 C 0.10344 0.48995 0.57696 0.0
C1605 C 0.10396 0.48281 0.56311 0.0
H1606 H 0.10447 0.46518 0.55467 0.0
H1607 H 0.10272 0.46837 0.60636 0.0
C1608 C 0.10885 0.42523 0.63479 0.0
N1609 N 0.10128 0.42999 0.62763 0.0
C1610 C 0.108 0.42283 0.65174 0.0
C1611 C 0.09156 0.43029 0.65355 0.0
C1612 C 0.09278 0.43259 0.63662 0.0
C1613 C 0.09929 0.42542 0.66137 0.0
H1614 H 0.11564 0.42339 0.62732 0.0
H1615 H 0.08705 0.43658 0.6307 0.0
C1616 C 0.11256 0.44205 0.54926 0.0
N1617 N 0.1274 0.44468 0.52121 0.0
C1618 C 0.10916 0.43076 0.53935 0.0
C1619 C 0.12342 0.45469 0.54484 0.0
C1620 C 0.11681 0.4323 0.52523 0.0
C1621 C 0.13082 0.45581 0.53063 0.0
C1622 C 0.09985 0.40765 0.59583 0.0
C1623 C 0.10559 0.39971 0.59166 0.0
C1624 C 0.08844 0.40227 0.60602 0.0
C1625 C 0.09966 0.38643 0.59753 0.0
C1626 C 0.08282 0.38895 0.61166 0.0
N1627 N 0.08849 0.38136 0.60731 0.0
C1628 C 0.14562 0.45225 0.57244 0.0
C1629 C 0.13275 0.42952 0.56326 0.0
C1630 C 0.15738 0.45335 0.56569 0.0
N1631 N 0.13365 0.44045 0.57114 0.0
C1632 C 0.14426 0.43011 0.55647 0.0
C1633 C 0.15683 0.44212 0.55772 0.0
H1634 H 0.14603 0.4608 0.5787 0.0
H1635 H 0.12304 0.42034 0.56224 0.0
C1636 C 0.07094 0.41476 0.55683 0.0
N1637 N 0.07889 0.41089 0.56487 0.0
C1638 C 0.06037 0.4056 0.54686 0.0
C1639 C 0.0663 0.38855 0.55371 0.0
C1640 C 0.07686 0.39811 0.56344 0.0
C1641 C 0.05798 0.39232 0.54519 0.0
H1642 H 0.07288 0.42503 0.55815 0.0
H1643 H 0.0835 0.39534 0.56962 0.0
O1644 O 0.11929 0.45078 0.59814 0.0
O1645 O 0.08804 0.43444 0.59337 0.0
O1646 O 0.10543 0.44067 0.56337 0.0
O1647 O 0.10556 0.42069 0.59017 0.0
H1648 H 0.11902 0.45809 0.62902 0.0
H1649 H 0.13388 0.47289 0.58025 0.0
H1650 H 0.13052 0.48183 0.63904 0.0
H1651 H 0.14519 0.49636 0.59114 0.0
H1652 H 0.04474 0.40179 0.60518 0.0
H1653 H 0.07936 0.4503 0.60566 0.0
H1654 H 0.06759 0.40895 0.59427 0.0
H1655 H 0.05623 0.4424 0.61625 0.0
H1656 H 0.10277 0.48984 0.60373 0.0
H1657 H 0.10416 0.48648 0.55075 0.0
H1658 H 0.11429 0.41927 0.65726 0.0
H1659 H 0.0846 0.43229 0.66043 0.0
H1660 H 0.10082 0.42089 0.54263 0.0
H1661 H 0.1262 0.46352 0.5524 0.0
H1662 H 0.11435 0.42364 0.5175 0.0
H1663 H 0.13932 0.46551 0.52712 0.0
H1664 H 0.11451 0.40373 0.58397 0.0
H1665 H 0.08407 0.40834 0.60973 0.0
H1666 H 0.10397 0.38015 0.59434 0.0
H1667 H 0.07399 0.38468 0.61954 0.0
H1668 H 0.16681 0.46287 0.56676 0.0
H1669 H 0.14334 0.42113 0.55068 0.0
H1670 H 0.05407 0.40883 0.54061 0.0
H1671 H 0.06482 0.37843 0.55258 0.0
Li1672 Li 0.65562 0.10926 0.08229 0.0
Li1673 Li 0.66952 0.10726 0.10376 0.0
Li1674 Li 0.67952 0.11939 0.07699 0.0
Li1675 Li 0.66607 0.09472 0.07783 0.0
C1676 C 0.66587 0.13268 0.09817 0.0
N1677 N 0.65553 0.14958 0.10454 0.0
C1678 C 0.66149 0.1334 0.11402 0.0
C1679 C 0.66517 0.1407 0.08562 0.0
C1680 C 0.65626 0.14198 0.11698 0.0
C1681 C 0.65986 0.14913 0.08906 0.0
C1682 C 0.6453 0.08187 0.1045 0.0
C1683 C 0.64274 0.0618 0.1178 0.0
N1684 N 0.63114 0.05985 0.12506 0.0
C1685 C 0.63325 0.07956 0.11191 0.0
C1686 C 0.65 0.07283 0.10731 0.0
C1687 C 0.62629 0.06842 0.12234 0.0
C1688 C 0.63551 0.11064 0.06332 0.0
N1689 N 0.6398 0.11047 0.07888 0.0
C1690 C 0.62096 0.11138 0.09027 0.0
C1691 C 0.6328 0.11078 0.09225 0.0
C1692 C 0.61622 0.11151 0.07434 0.0
C1693 C 0.62366 0.11116 0.06074 0.0
H1694 H 0.64119 0.11023 0.0529 0.0
H1695 H 0.63635 0.11042 0.10448 0.0
C1696 C 0.6843 0.11091 0.13325 0.0
N1697 N 0.67188 0.10716 0.12688 0.0
C1698 C 0.68607 0.111 0.15028 0.0
C1699 C 0.66232 0.10368 0.15383 0.0
C1700 C 0.66101 0.10368 0.13676 0.0
C1701 C 0.67499 0.10738 0.1608 0.0
H1702 H 0.69286 0.11395 0.12512 0.0
H1703 H 0.65135 0.10113 0.1314 0.0
C1704 C 0.66874 0.11162 0.04662 0.0
N1705 N 0.67791 0.12066 0.01507 0.0
C1706 C 0.6727 0.10434 0.0364 0.0
C1707 C 0.66927 0.12339 0.04071 0.0
C1708 C 0.67734 0.1091 0.02051 0.0
C1709 C 0.67399 0.12783 0.02475 0.0
C1710 C 0.69172 0.10137 0.09161 0.0
C1711 C 0.70328 0.10581 0.08183 0.0
C1712 C 0.68889 0.09168 0.10383 0.0
C1713 C 0.71165 0.10026 0.08421 0.0
C1714 C 0.69751 0.08637 0.10584 0.0
N1715 N 0.70861 0.09073 0.09605 0.0
C1716 C 0.69924 0.14674 0.07389 0.0
C1717 C 0.7015 0.13246 0.0545 0.0
C1718 C 0.71075 0.15801 0.06766 0.0
N1719 N 0.69488 0.13429 0.06728 0.0
C1720 C 0.71302 0.14347 0.04779 0.0
C1721 C 0.71785 0.15646 0.05447 0.0
H1722 H 0.69394 0.14788 0.08425 0.0
H1723 H 0.69798 0.12242 0.04967 0.0
C1724 C 0.64969 0.06943 0.06456 0.0
N1725 N 0.66289 0.07832 0.06799 0.0
C1726 C 0.6461 0.05744 0.05618 0.0
C1727 C 0.66977 0.06382 0.05523 0.0
C1728 C 0.67291 0.07576 0.06357 0.0
C1729 C 0.65622 0.0546 0.05125 0.0
H1730 H 0.64196 0.07182 0.06809 0.0
H1731 H 0.68336 0.08311 0.06599 0.0
O1732 O 0.67084 0.12419 0.09497 0.0
O1733 O 0.65225 0.09276 0.09427 0.0
O1734 O 0.6642 0.10713 0.06224 0.0
O1735 O 0.68343 0.10674 0.08944 0.0
H1736 H 0.66207 0.12737 0.12392 0.0
H1737 H 0.66865 0.14037 0.07334 0.0
H1738 H 0.65276 0.14258 0.12917 0.0
H1739 H 0.65918 0.15532 0.07943 0.0
H1740 H 0.6463 0.05475 0.1201 0.0
H1741 H 0.62936 0.08634 0.10973 0.0
H1742 H 0.65907 0.07422 0.10133 0.0
H1743 H 0.61701 0.06657 0.12826 0.0
H1744 H 0.61541 0.11141 0.10108 0.0
H1745 H 0.62037 0.11131 0.04827 0.0
H1746 H 0.69606 0.11413 0.15517 0.0
H1747 H 0.6535 0.10077 0.16148 0.0
H1748 H 0.67229 0.09517 0.04071 0.0
H1749 H 0.66611 0.12907 0.04836 0.0
H1750 H 0.68052 0.10361 0.01251 0.0
H1751 H 0.67453 0.13697 0.02006 0.0
H1752 H 0.70573 0.11341 0.07244 0.0
H1753 H 0.68023 0.08839 0.11184 0.0
H1754 H 0.72057 0.10355 0.07664 0.0
H1755 H 0.69541 0.07884 0.11522 0.0
H1756 H 0.71427 0.16776 0.07349 0.0
H1757 H 0.71813 0.1418 0.03759 0.0
H1758 H 0.63552 0.05051 0.05346 0.0
H1759 H 0.67787 0.06207 0.05143 0.0
Li1760 Li 0.55873 0.66575 0.60468 0.0
Li1761 Li 0.5427 0.65194 0.58318 0.0
Li1762 Li 0.5678 0.66287 0.57835 0.0
Li1763 Li 0.55616 0.67586 0.57829 0.0
C1764 C 0.55954 0.64122 0.60478 0.0
N1765 N 0.56623 0.62603 0.6252 0.0
C1766 C 0.54938 0.62901 0.61141 0.0
C1767 C 0.57311 0.64554 0.60827 0.0
C1768 C 0.55296 0.62153 0.62179 0.0
C1769 C 0.57629 0.63777 0.61868 0.0
C1770 C 0.52957 0.66166 0.60066 0.0
C1771 C 0.5065 0.65492 0.59346 0.0
N1772 N 0.50263 0.65079 0.60923 0.0
C1773 C 0.52538 0.65749 0.61685 0.0
C1774 C 0.52008 0.6605 0.58891 0.0
C1775 C 0.51171 0.65198 0.62092 0.0
C1776 C 0.57006 0.6805 0.63408 0.0
N1777 N 0.56163 0.66798 0.62781 0.0
C1778 C 0.55726 0.65823 0.65471 0.0
C1779 C 0.5551 0.65697 0.63775 0.0
C1780 C 0.56617 0.67097 0.66154 0.0
C1781 C 0.57254 0.68223 0.651 0.0
H1782 H 0.57493 0.68914 0.62593 0.0
H1783 H 0.54804 0.64723 0.63254 0.0
C1784 C 0.52107 0.63197 0.56416 0.0
N1785 N 0.52565 0.6361 0.57973 0.0
C1786 C 0.50852 0.62033 0.56156 0.0
C1787 C 0.50572 0.61744 0.59107 0.0
C1788 C 0.5183 0.62909 0.59308 0.0
C1789 C 0.50067 0.61291 0.57514 0.0
H1790 H 0.52717 0.63768 0.55376 0.0
H1791 H 0.52226 0.63253 0.60532 0.0
C1792 C 0.58661 0.6879 0.59298 0.0
N1793 N 0.61417 0.704 0.59827 0.0
C1794 C 0.59414 0.69982 0.58393 0.0
C1795 C 0.59309 0.68434 0.60496 0.0
C1796 C 0.60807 0.70777 0.58671 0.0
C1797 C 0.60702 0.69256 0.60739 0.0
C1798 C 0.55256 0.66572 0.54789 0.0
C1799 C 0.5634 0.67019 0.53689 0.0
C1800 C 0.54099 0.66619 0.54326 0.0
C1801 C 0.56258 0.67529 0.52155 0.0
C1802 C 0.54056 0.67137 0.52782 0.0
N1803 N 0.55128 0.67579 0.51739 0.0
C1804 C 0.57982 0.64804 0.56751 0.0
C1805 C 0.59263 0.67148 0.56139 0.0
C1806 C 0.58939 0.64576 0.55971 0.0
N1807 N 0.58163 0.66074 0.56829 0.0
C1808 C 0.60242 0.66965 0.55335 0.0
C1809 C 0.60082 0.65663 0.55235 0.0
H1810 H 0.57084 0.63963 0.5728 0.0
H1811 H 0.59358 0.68139 0.56163 0.0
C1812 C 0.54754 0.69491 0.57445 0.0
N1813 N 0.55646 0.69122 0.56887 0.0
C1814 C 0.54792 0.70653 0.56833 0.0
C1815 C 0.56657 0.71024 0.5507 0.0
C1816 C 0.56581 0.69853 0.55714 0.0
C1817 C 0.55764 0.71444 0.55644 0.0
H1818 H 0.54033 0.68902 0.58394 0.0
H1819 H 0.57282 0.69539 0.55298 0.0
O1820 O 0.55618 0.6487 0.59463 0.0
O1821 O 0.54289 0.66691 0.59639 0.0
O1822 O 0.57295 0.67999 0.59039 0.0
O1823 O 0.55325 0.66083 0.56304 0.0
H1824 H 0.53884 0.62537 0.60867 0.0
H1825 H 0.58113 0.65466 0.60278 0.0
H1826 H 0.54519 0.61213 0.62711 0.0
H1827 H 0.58676 0.64102 0.62149 0.0
H1828 H 0.49905 0.65387 0.58445 0.0
H1829 H 0.53258 0.65844 0.62615 0.0
H1830 H 0.52316 0.66382 0.57639 0.0
H1831 H 0.50831 0.64863 0.63338 0.0
H1832 H 0.55184 0.64934 0.66241 0.0
H1833 H 0.57951 0.69223 0.65574 0.0
H1834 H 0.50497 0.61725 0.54908 0.0
H1835 H 0.50011 0.61191 0.60187 0.0
H1836 H 0.58932 0.70288 0.5748 0.0
H1837 H 0.5874 0.67546 0.61251 0.0
H1838 H 0.61402 0.71695 0.57969 0.0
H1839 H 0.61214 0.68989 0.61661 0.0
H1840 H 0.57238 0.66978 0.54017 0.0
H1841 H 0.53245 0.66263 0.55151 0.0
H1842 H 0.57094 0.67885 0.51297 0.0
H1843 H 0.5317 0.67187 0.52414 0.0
H1844 H 0.58779 0.63556 0.55937 0.0
H1845 H 0.61091 0.67827 0.54754 0.0
H1846 H 0.54101 0.70955 0.57332 0.0
H1847 H 0.57417 0.71601 0.54148 0.0
Li1848 Li 0.89385 0.56685 0.1064 0.0
Li1849 Li 0.88972 0.54955 0.08636 0.0
Li1850 Li 0.90427 0.57353 0.07932 0.0
Li1851 Li 0.88008 0.56333 0.08169 0.0
C1852 C 0.91734 0.56012 0.09227 0.0
N1853 N 0.93735 0.55439 0.08334 0.0
C1854 C 0.9176 0.55554 0.07635 0.0
C1855 C 0.92727 0.56177 0.10363 0.0
C1856 C 0.92779 0.5527 0.07209 0.0
C1857 C 0.93731 0.55883 0.09887 0.0
C1858 C 0.86903 0.53819 0.10691 0.0
C1859 C 0.8518 0.51466 0.10438 0.0
N1860 N 0.85503 0.51224 0.11965 0.0
C1861 C 0.87207 0.53549 0.12265 0.0
C1862 C 0.85872 0.52772 0.09776 0.0
C1863 C 0.86491 0.5223 0.12885 0.0
C1864 C 0.8902 0.57818 0.13557 0.0
N1865 N 0.89615 0.57149 0.12899 0.0
C1866 C 0.90519 0.57057 0.15515 0.0
C1867 C 0.90362 0.56775 0.13832 0.0
C1868 C 0.89906 0.57736 0.16241 0.0
C1869 C 0.89156 0.58128 0.15235 0.0
H1870 H 0.88433 0.58104 0.12779 0.0
H1871 H 0.90808 0.56229 0.13274 0.0
C1872 C 0.88388 0.52518 0.06974 0.0
N1873 N 0.8876 0.53197 0.08429 0.0
C1874 C 0.88289 0.5125 0.06829 0.0
C1875 C 0.88954 0.51407 0.09683 0.0
C1876 C 0.89052 0.52675 0.09768 0.0
C1877 C 0.88577 0.50679 0.08196 0.0
H1878 H 0.88193 0.5297 0.05917 0.0
H1879 H 0.89371 0.5325 0.109 0.0
C1880 C 0.903 0.5934 0.09721 0.0
N1881 N 0.92083 0.61896 0.10914 0.0
C1882 C 0.89983 0.60374 0.09611 0.0
C1883 C 0.91526 0.59607 0.10434 0.0
C1884 C 0.90897 0.61659 0.10223 0.0
C1885 C 0.92413 0.60905 0.11031 0.0
C1886 C 0.88313 0.55645 0.05133 0.0
C1887 C 0.88886 0.56502 0.03777 0.0
C1888 C 0.86994 0.54546 0.05021 0.0
C1889 C 0.88117 0.56265 0.02347 0.0
C1890 C 0.86257 0.54343 0.03571 0.0
N1891 N 0.86828 0.55201 0.02276 0.0
C1892 C 0.93224 0.58968 0.06939 0.0
C1893 C 0.91654 0.59517 0.0577 0.0
C1894 C 0.94273 0.59973 0.06007 0.0
N1895 N 0.91938 0.58734 0.0677 0.0
C1896 C 0.92673 0.60539 0.04821 0.0
C1897 C 0.94 0.60763 0.04912 0.0
H1898 H 0.93444 0.58375 0.07784 0.0
H1899 H 0.90628 0.59335 0.057 0.0
C1900 C 0.85271 0.55624 0.08022 0.0
N1901 N 0.86509 0.56427 0.0734 0.0
C1902 C 0.84147 0.55676 0.07444 0.0
C1903 C 0.85592 0.57372 0.05461 0.0
C1904 C 0.86694 0.57301 0.06095 0.0
C1905 C 0.84303 0.56558 0.06148 0.0
H1906 H 0.85159 0.54949 0.09021 0.0
H1907 H 0.87697 0.5794 0.05594 0.0
O1908 O 0.90734 0.56277 0.0969 0.0
O1909 O 0.87609 0.55101 0.10052 0.0
O1910 O 0.89413 0.5808 0.09117 0.0
O1911 O 0.89045 0.55874 0.06553 0.0
H1912 H 0.91006 0.55421 0.06734 0.0
H1913 H 0.92725 0.56532 0.11598 0.0
H1914 H 0.9281 0.54915 0.05983 0.0
H1915 H 0.94506 0.56008 0.10754 0.0
H1916 H 0.84387 0.50645 0.09738 0.0
H1917 H 0.87994 0.54345 0.12996 0.0
H1918 H 0.85607 0.52962 0.08568 0.0
H1919 H 0.86723 0.52006 0.14096 0.0
H1920 H 0.91084 0.56712 0.16244 0.0
H1921 H 0.88679 0.58666 0.15739 0.0
H1922 H 0.88021 0.5074 0.05649 0.0
H1923 H 0.89171 0.51003 0.10775 0.0
H1924 H 0.89039 0.60183 0.09058 0.0
H1925 H 0.91793 0.58823 0.10526 0.0
H1926 H 0.90665 0.62469 0.10147 0.0
H1927 H 0.93365 0.61125 0.11587 0.0
H1928 H 0.89915 0.57338 0.03823 0.0
H1929 H 0.8654 0.53865 0.06048 0.0
H1930 H 0.88547 0.56925 0.01293 0.0
H1931 H 0.8523 0.53504 0.03476 0.0
H1932 H 0.95278 0.60103 0.06113 0.0
H1933 H 0.92422 0.61141 0.0402 0.0
H1934 H 0.83164 0.55029 0.07998 0.0
H1935 H 0.8575 0.58073 0.04471 0.0
Li1936 Li 0.32809 0.89332 0.60606 0.0
Li1937 Li 0.34181 0.89041 0.58504 0.0
Li1938 Li 0.33086 0.9045 0.58009 0.0
Li1939 Li 0.31718 0.87992 0.58037 0.0
C1940 C 0.35263 0.91541 0.60893 0.0
N1941 N 0.36705 0.93096 0.63566 0.0
C1942 C 0.3642 0.91527 0.61438 0.0
C1943 C 0.34853 0.92362 0.61693 0.0
C1944 C 0.37132 0.92317 0.62795 0.0
C1945 C 0.35591 0.93136 0.63047 0.0
C1946 C 0.32729 0.86466 0.60125 0.0
C1947 C 0.32401 0.84303 0.59229 0.0
N1948 N 0.32804 0.84117 0.60735 0.0
C1949 C 0.33119 0.86242 0.61672 0.0
C1950 C 0.32349 0.85479 0.589 0.0
C1951 C 0.3316 0.85054 0.61953 0.0
C1952 C 0.31548 0.89501 0.63535 0.0
N1953 N 0.32619 0.8943 0.62916 0.0
C1954 C 0.33509 0.89569 0.65615 0.0
C1955 C 0.33582 0.89444 0.63916 0.0
C1956 C 0.32424 0.8966 0.66291 0.0
C1957 C 0.31427 0.89613 0.65232 0.0
H1958 H 0.30791 0.89477 0.6271 0.0
H1959 H 0.34414 0.8937 0.63392 0.0
C1960 C 0.36443 0.89315 0.56725 0.0
N1961 N 0.35751 0.88891 0.58169 0.0
C1962 C 0.37624 0.89251 0.56487 0.0
C1963 C 0.37374 0.88348 0.5924 0.0
C1964 C 0.36195 0.88421 0.5942 0.0
C1965 C 0.38106 0.8877 0.57759 0.0
H1966 H 0.36089 0.89719 0.55766 0.0
H1967 H 0.35653 0.88134 0.60574 0.0
C1968 C 0.30627 0.89929 0.58889 0.0
N1969 N 0.29174 0.91208 0.58159 0.0
C1970 C 0.29606 0.89389 0.57696 0.0
C1971 C 0.30896 0.91109 0.59726 0.0
C1972 C 0.28885 0.90053 0.57342 0.0
C1973 C 0.30155 0.91745 0.59334 0.0
C1974 C 0.3317 0.88566 0.55011 0.0
C1975 C 0.32911 0.89078 0.53577 0.0
C1976 C 0.33402 0.87475 0.54903 0.0
C1977 C 0.32861 0.88471 0.52064 0.0
C1978 C 0.33345 0.86896 0.53367 0.0
N1979 N 0.33075 0.874 0.51991 0.0
C1980 C 0.34285 0.93258 0.57439 0.0
C1981 C 0.32429 0.91876 0.55698 0.0
C1982 C 0.34466 0.94423 0.56648 0.0
N1983 N 0.33281 0.92019 0.56951 0.0
C1984 C 0.32573 0.93014 0.54873 0.0
C1985 C 0.33611 0.94308 0.55337 0.0
H1986 H 0.34956 0.93342 0.58428 0.0
H1987 H 0.31649 0.90876 0.55325 0.0
C1988 C 0.29366 0.85502 0.5833 0.0
N1989 N 0.30138 0.86465 0.57208 0.0
C1990 C 0.28152 0.84371 0.57853 0.0
C1991 C 0.28547 0.85245 0.55071 0.0
C1992 C 0.29753 0.86363 0.55605 0.0
C1993 C 0.27725 0.84238 0.56207 0.0
H1994 H 0.29691 0.8562 0.59601 0.0
H1995 H 0.30361 0.87162 0.54748 0.0
O1996 O 0.34541 0.90759 0.59581 0.0
O1997 O 0.32674 0.87622 0.59836 0.0
O1998 O 0.31356 0.89303 0.59236 0.0
O1999 O 0.33219 0.89149 0.56503 0.0
H2000 H 0.36763 0.90911 0.60825 0.0
H2001 H 0.33966 0.92392 0.61283 0.0
H2002 H 0.38025 0.9231 0.63235 0.0
H2003 H 0.35277 0.93766 0.63685 0.0
H2004 H 0.32113 0.83534 0.58289 0.0
H2005 H 0.33396 0.86982 0.62645 0.0
H2006 H 0.31998 0.85606 0.57715 0.0
H2007 H 0.33471 0.84875 0.63141 0.0
H2008 H 0.34287 0.89581 0.66393 0.0
H2009 H 0.30576 0.89683 0.65709 0.0
H2010 H 0.38172 0.89607 0.55337 0.0
H2011 H 0.3771 0.87969 0.60251 0.0
H2012 H 0.29379 0.88474 0.57041 0.0
H2013 H 0.31672 0.91534 0.60663 0.0
H2014 H 0.28099 0.89651 0.56414 0.0
H2015 H 0.30359 0.92664 0.59964 0.0
H2016 H 0.32746 0.89933 0.53631 0.0
H2017 H 0.33648 0.87093 0.55987 0.0
H2018 H 0.32653 0.88852 0.50947 0.0
H2019 H 0.33521 0.8605 0.53268 0.0
H2020 H 0.35273 0.95403 0.57052 0.0
H2021 H 0.31904 0.92878 0.53852 0.0
H2022 H 0.27553 0.8361 0.58764 0.0
H2023 H 0.28242 0.85188 0.53797 0.0
Li2024 Li 0.43201 0.32989 0.1047 0.0
Li2025 Li 0.44842 0.34442 0.08399 0.0
Li2026 Li 0.42427 0.3314 0.07787 0.0
Li2027 Li 0.43762 0.32032 0.08118 0.0
C2028 C 0.42785 0.35387 0.09107 0.0
N2029 N 0.4156 0.36879 0.08312 0.0
C2030 C 0.4347 0.36553 0.0814 0.0
C2031 C 0.4148 0.34985 0.09678 0.0
C2032 C 0.42833 0.37293 0.07751 0.0
C2033 C 0.40877 0.35751 0.09259 0.0
C2034 C 0.46243 0.33892 0.10498 0.0
C2035 C 0.48661 0.34948 0.1012 0.0
N2036 N 0.48855 0.35537 0.11628 0.0
C2037 C 0.46466 0.34505 0.12046 0.0
C2038 C 0.47348 0.3411 0.09529 0.0
C2039 C 0.47795 0.35333 0.12595 0.0
C2040 C 0.42987 0.31837 0.13584 0.0
N2041 N 0.42824 0.32783 0.12759 0.0
C2042 C 0.42238 0.33485 0.15247 0.0
C2043 C 0.42458 0.33602 0.13548 0.0
C2044 C 0.42398 0.32515 0.16133 0.0
C2045 C 0.42767 0.31677 0.15279 0.0
H2046 H 0.43307 0.3122 0.12926 0.0
H2047 H 0.42356 0.34359 0.12864 0.0
C2048 C 0.47168 0.36379 0.06653 0.0
N2049 N 0.46466 0.36116 0.08087 0.0
C2050 C 0.48393 0.37588 0.06458 0.0
C2051 C 0.48131 0.38242 0.09206 0.0
C2052 C 0.4691 0.37023 0.09346 0.0
C2053 C 0.48894 0.38534 0.0775 0.0
H2054 H 0.46779 0.35649 0.05663 0.0
H2055 H 0.46323 0.36787 0.10468 0.0
C2056 C 0.41119 0.30542 0.1014 0.0
N2057 N 0.39526 0.28706 0.12529 0.0
C2058 C 0.41284 0.29436 0.10516 0.0
C2059 C 0.40138 0.3071 0.10973 0.0
C2060 C 0.40468 0.28519 0.11728 0.0
C2061 C 0.39346 0.29772 0.12179 0.0
C2062 C 0.44089 0.32776 0.05025 0.0
C2063 C 0.42988 0.32105 0.03955 0.0
C2064 C 0.45297 0.32784 0.04691 0.0
C2065 C 0.43113 0.31448 0.0257 0.0
C2066 C 0.4538 0.32112 0.03295 0.0
N2067 N 0.44295 0.31464 0.02273 0.0
C2068 C 0.41399 0.34113 0.05368 0.0
C2069 C 0.39701 0.32244 0.06858 0.0
C2070 C 0.40419 0.342 0.04438 0.0
N2071 N 0.41025 0.33155 0.06558 0.0
C2072 C 0.38684 0.32293 0.05954 0.0
C2073 C 0.39039 0.33283 0.04728 0.0
H2074 H 0.42462 0.34817 0.05153 0.0
H2075 H 0.39435 0.31481 0.07797 0.0
C2076 C 0.45015 0.30441 0.08012 0.0
N2077 N 0.43963 0.30558 0.07423 0.0
C2078 C 0.45144 0.29327 0.07585 0.0
C2079 C 0.43113 0.28483 0.05934 0.0
C2080 C 0.43017 0.29609 0.06406 0.0
C2081 C 0.44179 0.28326 0.06543 0.0
H2082 H 0.45739 0.31199 0.0884 0.0
H2083 H 0.42174 0.29716 0.05987 0.0
O2084 O 0.43379 0.34631 0.0947 0.0
O2085 O 0.4495 0.33102 0.09923 0.0
O2086 O 0.41922 0.31463 0.08977 0.0
O2087 O 0.4398 0.33408 0.064 0.0
H2088 H 0.44477 0.36874 0.07678 0.0
H2089 H 0.40931 0.34079 0.10416 0.0
H2090 H 0.43349 0.38193 0.06997 0.0
H2091 H 0.39863 0.35445 0.09681 0.0
H2092 H 0.49526 0.35133 0.09378 0.0
H2093 H 0.45625 0.34357 0.12809 0.0
H2094 H 0.47195 0.33654 0.08322 0.0
H2095 H 0.47983 0.35819 0.13786 0.0
H2096 H 0.41951 0.34148 0.15861 0.0
H2097 H 0.42923 0.30933 0.15921 0.0
H2098 H 0.48937 0.37782 0.05305 0.0
H2099 H 0.48484 0.38935 0.1024 0.0
H2100 H 0.4204 0.29292 0.09891 0.0
H2101 H 0.40006 0.31567 0.1071 0.0
H2102 H 0.40589 0.27662 0.12036 0.0
H2103 H 0.38591 0.29896 0.12842 0.0
H2104 H 0.42042 0.32078 0.04198 0.0
H2105 H 0.46154 0.33284 0.05515 0.0
H2106 H 0.42267 0.3092 0.01735 0.0
H2107 H 0.46305 0.32102 0.03029 0.0
H2108 H 0.40739 0.34994 0.03523 0.0
H2109 H 0.37633 0.31558 0.06203 0.0
H2110 H 0.45982 0.29241 0.08076 0.0
H2111 H 0.42337 0.27721 0.05151 0.0
H2112 H 0.44716 0.10819 0.31278 0.0
H2113 H 0.44507 0.10671 0.28281 0.0
H2114 H 0.40217 0.09192 0.2869 0.0
H2115 H 0.40418 0.09339 0.31697 0.0
H2116 H 0.4292 0.08358 0.26413 0.0
H2117 H 0.4146 0.12279 0.25345 0.0
H2118 H 0.42167 0.12131 0.27271 0.0
H2119 H 0.40419 0.10977 0.26791 0.0
C2120 C 0.43727 0.1046 0.30731 0.0
C2121 C 0.42583 0.10088 0.31723 0.0
C2122 C 0.43611 0.10381 0.29019 0.0
C2123 C 0.4235 0.09934 0.28265 0.0
C2124 C 0.41205 0.09566 0.29248 0.0
H2125 H 0.40196 0.08754 0.17814 0.0
H2126 H 0.40087 0.08753 0.20828 0.0
C2127 C 0.41321 0.09649 0.30964 0.0
C2128 C 0.42238 0.09812 0.2645 0.0
H2129 H 0.41486 0.11042 0.2302 0.0
C2130 C 0.42605 0.08944 0.25671 0.0
C2131 C 0.41818 0.10571 0.25489 0.0
C2132 C 0.41453 0.11551 0.26261 0.0
C2133 C 0.42575 0.08822 0.23952 0.0
C2134 C 0.42184 0.09602 0.22989 0.0
C2135 C 0.41785 0.10446 0.23767 0.0
C2136 C 0.42244 0.09602 0.21171 0.0
C2137 C 0.42959 0.07857 0.23177 0.0
C2138 C 0.43495 0.10098 0.20375 0.0
C2139 C 0.43563 0.10109 0.18659 0.0
C2140 C 0.4238 0.09627 0.17706 0.0
C2141 C 0.41127 0.09142 0.18511 0.0
C2142 C 0.41062 0.09135 0.20231 0.0
H2143 H 0.42891 0.07088 0.24073 0.0
H2144 H 0.42299 0.07327 0.22107 0.0
H2145 H 0.44021 0.08437 0.22733 0.0
H2146 H 0.44423 0.10489 0.21082 0.0
H2147 H 0.44547 0.10518 0.1808 0.0
H2148 H 0.3117 0.40112 0.68136 0.0
H2149 H 0.31143 0.40026 0.71151 0.0
H2150 H 0.3365 0.44374 0.71342 0.0
H2151 H 0.33659 0.44477 0.68337 0.0
H2152 H 0.34501 0.42782 0.73383 0.0
H2153 H 0.29108 0.41396 0.74244 0.0
H2154 H 0.29451 0.40406 0.72802 0.0
H2155 H 0.30026 0.42153 0.72365 0.0
C2156 C 0.31704 0.41051 0.68819 0.0
C2157 C 0.32417 0.42302 0.67994 0.0
C2158 C 0.3169 0.40999 0.70539 0.0
C2159 C 0.32386 0.42195 0.71461 0.0
C2160 C 0.33108 0.43441 0.70646 0.0
H2161 H 0.3411 0.44794 0.81527 0.0
H2162 H 0.34024 0.44544 0.78535 0.0
C2163 C 0.33119 0.43496 0.6893 0.0
C2164 C 0.3238 0.42154 0.73279 0.0
H2165 H 0.30373 0.41621 0.76636 0.0
C2166 C 0.33599 0.42524 0.74098 0.0
C2167 C 0.31197 0.41806 0.74198 0.0
C2168 C 0.29869 0.41424 0.73366 0.0
C2169 C 0.3367 0.42564 0.75822 0.0
C2170 C 0.32498 0.42259 0.76745 0.0
C2171 C 0.3127 0.41858 0.75924 0.0
C2172 C 0.32538 0.42403 0.78559 0.0
C2173 C 0.34998 0.42923 0.76638 0.0
C2174 C 0.31698 0.41293 0.79561 0.0
C2175 C 0.31738 0.41436 0.81274 0.0
C2176 C 0.3262 0.42692 0.82009 0.0
C2177 C 0.33442 0.43807 0.80997 0.0
C2178 C 0.33396 0.43665 0.79289 0.0
H2179 H 0.35654 0.4272 0.75813 0.0
H2180 H 0.35551 0.44021 0.76937 0.0
H2181 H 0.34833 0.42347 0.77799 0.0
H2182 H 0.31022 0.40313 0.79019 0.0
H2183 H 0.31098 0.40558 0.82023 0.0
H2184 H 0.91792 0.34255 0.18198 0.0
H2185 H 0.91828 0.34106 0.21202 0.0
H2186 H 0.88132 0.3024 0.21054 0.0
H2187 H 0.88092 0.3038 0.1805 0.0
H2188 H 0.89873 0.33967 0.2329 0.0
H2189 H 0.90486 0.29472 0.24134 0.0
H2190 H 0.90803 0.30351 0.22192 0.0
H2191 H 0.89097 0.29173 0.2282 0.0
C2192 C 0.90991 0.3337 0.18806 0.0
C2193 C 0.89939 0.32329 0.1789 0.0
C2194 C 0.91016 0.33283 0.20519 0.0
C2195 C 0.89992 0.32154 0.21348 0.0
C2196 C 0.8895 0.31104 0.20436 0.0
H2197 H 0.87644 0.30384 0.31597 0.0
H2198 H 0.8781 0.30318 0.28594 0.0
C2199 C 0.88927 0.31187 0.18721 0.0
C2200 C 0.89962 0.32126 0.2317 0.0
H2201 H 0.89915 0.30295 0.26526 0.0
C2202 C 0.89893 0.3317 0.23998 0.0
C2203 C 0.8998 0.31079 0.24088 0.0
C2204 C 0.90108 0.29961 0.23266 0.0
C2205 C 0.89821 0.33188 0.25719 0.0
C2206 C 0.89836 0.32141 0.26636 0.0
C2207 C 0.89903 0.31094 0.25813 0.0
C2208 C 0.89783 0.32125 0.28454 0.0
C2209 C 0.89703 0.34311 0.26545 0.0
C2210 C 0.90852 0.33144 0.29363 0.0
C2211 C 0.90765 0.33182 0.31075 0.0
C2212 C 0.89605 0.32197 0.31908 0.0
C2213 C 0.88554 0.31151 0.30994 0.0
C2214 C 0.88644 0.31114 0.2928 0.0
H2215 H 0.89406 0.34861 0.25661 0.0
H2216 H 0.88947 0.33905 0.27557 0.0
H2217 H 0.90697 0.35051 0.27085 0.0
H2218 H 0.91749 0.3392 0.28746 0.0
H2219 H 0.91604 0.33984 0.31745 0.0
H2220 H 0.56026 0.90406 0.68341 0.0
H2221 H 0.56232 0.90444 0.71337 0.0
H2222 H 0.59076 0.89004 0.70937 0.0
H2223 H 0.58854 0.88941 0.67931 0.0
H2224 H 0.57184 0.87609 0.73195 0.0
H2225 H 0.59228 0.93079 0.74288 0.0
H2226 H 0.57686 0.92355 0.73123 0.0
H2227 H 0.59164 0.92398 0.72262 0.0
C2228 C 0.56711 0.90117 0.68891 0.0
C2229 C 0.57429 0.89677 0.67904 0.0
C2230 C 0.56832 0.90145 0.70602 0.0
C2231 C 0.57691 0.89754 0.7136 0.0
C2232 C 0.58414 0.89318 0.70377 0.0
H2233 H 0.59164 0.90912 0.81975 0.0
H2234 H 0.59494 0.91007 0.78992 0.0
C2235 C 0.58284 0.89279 0.68663 0.0
C2236 C 0.57767 0.89722 0.7318 0.0
H2237 H 0.58244 0.91618 0.76632 0.0
C2238 C 0.57433 0.8849 0.73947 0.0
C2239 C 0.58116 0.90878 0.74161 0.0
C2240 C 0.58583 0.92255 0.73415 0.0
C2241 C 0.57382 0.88367 0.75667 0.0
C2242 C 0.57637 0.89499 0.76645 0.0
C2243 C 0.58029 0.90746 0.75881 0.0
C2244 C 0.57457 0.89399 0.78457 0.0
C2245 C 0.57058 0.87027 0.76418 0.0
C2246 C 0.56199 0.88471 0.79145 0.0
C2247 C 0.56013 0.884 0.80848 0.0
C2248 C 0.57075 0.89272 0.819 0.0
C2249 C 0.58332 0.9021 0.81205 0.0
C2250 C 0.5852 0.90273 0.79499 0.0
H2251 H 0.57335 0.86437 0.75574 0.0
H2252 H 0.57598 0.8717 0.77604 0.0
H2253 H 0.55952 0.86417 0.7665 0.0
H2254 H 0.55355 0.87809 0.78362 0.0
H2255 H 0.55037 0.87656 0.81339 0.0
H2256 H 0.66159 0.57861 0.31236 0.0
H2257 H 0.66348 0.57946 0.28233 0.0
H2258 H 0.69815 0.57389 0.28554 0.0
H2259 H 0.69622 0.5728 0.31559 0.0
H2260 H 0.70056 0.59469 0.26242 0.0
H2261 H 0.65355 0.54488 0.25447 0.0
H2262 H 0.65185 0.55694 0.26701 0.0
H2263 H 0.66237 0.55032 0.2739 0.0
C2264 C 0.66959 0.57752 0.30669 0.0
C2265 C 0.67868 0.57551 0.31637 0.0
C2266 C 0.67068 0.57805 0.28955 0.0
C2267 C 0.68084 0.57657 0.28178 0.0
C2268 C 0.69023 0.57504 0.29136 0.0
H2269 H 0.68192 0.5551 0.17973 0.0
H2270 H 0.68343 0.55686 0.20975 0.0
C2271 C 0.68914 0.57448 0.30852 0.0
C2272 C 0.68139 0.57613 0.26362 0.0
H2273 H 0.66379 0.5574 0.23026 0.0
C2274 C 0.69255 0.58654 0.25535 0.0
C2275 C 0.67099 0.56538 0.25453 0.0
C2276 C 0.65905 0.55366 0.26288 0.0
C2277 C 0.69347 0.58661 0.2381 0.0
C2278 C 0.68289 0.57604 0.22899 0.0
C2279 C 0.67184 0.56552 0.2373 0.0
C2280 C 0.68302 0.57562 0.21079 0.0
C2281 C 0.7058 0.59787 0.22977 0.0
C2282 C 0.68231 0.58561 0.20147 0.0
C2283 C 0.68149 0.58465 0.1843 0.0
C2284 C 0.68132 0.57367 0.17619 0.0
C2285 C 0.68222 0.56378 0.18559 0.0
C2286 C 0.683 0.56473 0.20274 0.0
H2287 H 0.71435 0.60331 0.23852 0.0
H2288 H 0.70919 0.59387 0.21947 0.0
H2289 H 0.7032 0.6053 0.2246 0.0
H2290 H 0.68209 0.59398 0.20748 0.0
H2291 H 0.68091 0.59248 0.17739 0.0
H2292 H 0.11874 0.67984 0.68216 0.0
H2293 H 0.11795 0.68064 0.71221 0.0
H2294 H 0.07715 0.67368 0.70971 0.0
H2295 H 0.07785 0.67287 0.6796 0.0
H2296 H 0.1134 0.69756 0.73294 0.0
H2297 H 0.07352 0.64355 0.74041 0.0
H2298 H 0.08249 0.65022 0.72128 0.0
H2299 H 0.06907 0.65332 0.72712 0.0
C2300 C 0.10964 0.67862 0.68799 0.0
C2301 C 0.09833 0.67623 0.67852 0.0
C2302 C 0.10919 0.67902 0.70515 0.0
C2303 C 0.09742 0.67701 0.71316 0.0
C2304 C 0.08622 0.67496 0.70376 0.0
H2305 H 0.07888 0.67174 0.81824 0.0
H2306 H 0.0781 0.67357 0.78826 0.0
C2307 C 0.08664 0.6745 0.68658 0.0
C2308 C 0.09692 0.67698 0.73138 0.0
H2309 H 0.08107 0.65681 0.76457 0.0
C2310 C 0.10631 0.68867 0.73987 0.0
C2311 C 0.08764 0.66536 0.74035 0.0
C2312 C 0.07767 0.65235 0.73187 0.0
C2313 C 0.10671 0.68904 0.75714 0.0
C2314 C 0.0976 0.67735 0.76609 0.0
C2315 C 0.08802 0.66575 0.75762 0.0
C2316 C 0.09824 0.67671 0.78423 0.0
C2317 C 0.11684 0.70194 0.76567 0.0
C2318 C 0.10976 0.67773 0.79183 0.0
C2319 C 0.1102 0.67658 0.8089 0.0
C2320 C 0.09909 0.67434 0.81871 0.0
C2321 C 0.08755 0.67332 0.81103 0.0
C2322 C 0.08711 0.67445 0.79393 0.0
H2323 H 0.1205 0.71087 0.75742 0.0
H2324 H 0.11238 0.70373 0.77689 0.0
H2325 H 0.12573 0.70107 0.76946 0.0
H2326 H 0.11833 0.67917 0.78451 0.0
H2327 H 0.11913 0.67714 0.81437 0.0
H2328 H 0.8792 0.57508 0.18339 0.0
H2329 H 0.88037 0.57744 0.21334 0.0
H2330 H 0.92207 0.58703 0.21239 0.0
H2331 H 0.92112 0.585 0.18237 0.0
H2332 H 0.90458 0.56537 0.23401 0.0
H2333 H 0.90055 0.61153 0.2433 0.0
H2334 H 0.88814 0.59908 0.22966 0.0
H2335 H 0.90572 0.60767 0.22396 0.0
C2336 C 0.88872 0.57801 0.18948 0.0
C2337 C 0.90006 0.57982 0.18046 0.0
C2338 C 0.88936 0.57934 0.20661 0.0
C2339 C 0.90134 0.58252 0.21502 0.0
C2340 C 0.91275 0.5846 0.20608 0.0
H2341 H 0.91772 0.59499 0.3205 0.0
H2342 H 0.91921 0.59748 0.29042 0.0
C2343 C 0.91215 0.58334 0.18895 0.0
C2344 C 0.90161 0.58259 0.23322 0.0
H2345 H 0.89798 0.59823 0.26712 0.0
C2346 C 0.90325 0.57261 0.24126 0.0
C2347 C 0.89993 0.5921 0.24258 0.0
C2348 C 0.89859 0.60329 0.23448 0.0
C2349 C 0.90287 0.57166 0.25848 0.0
C2350 C 0.90076 0.5809 0.26782 0.0
C2351 C 0.89949 0.59112 0.25984 0.0
C2352 C 0.89959 0.57985 0.28592 0.0
C2353 C 0.90464 0.56075 0.26662 0.0
C2354 C 0.88799 0.56922 0.29322 0.0
C2355 C 0.8871 0.56779 0.31032 0.0
C2356 C 0.89783 0.57694 0.32039 0.0
C2357 C 0.90936 0.58772 0.31302 0.0
C2358 C 0.9102 0.5892 0.2959 0.0
H2359 H 0.90846 0.55592 0.25788 0.0
H2360 H 0.91179 0.56499 0.27714 0.0
H2361 H 0.89473 0.55279 0.27152 0.0
H2362 H 0.87971 0.56194 0.28565 0.0
H2363 H 0.87815 0.55931 0.31563 0.0
H2364 H 0.31713 0.87666 0.8179 0.0
H2365 H 0.3166 0.87736 0.7879 0.0
H2366 H 0.32507 0.91869 0.78984 0.0
H2367 H 0.32497 0.91789 0.81995 0.0
H2368 H 0.3056 0.9035 0.76684 0.0
H2369 H 0.35044 0.89705 0.75977 0.0
H2370 H 0.33707 0.88374 0.7715 0.0
H2371 H 0.34554 0.90079 0.77933 0.0
C2372 C 0.31866 0.88584 0.812 0.0
C2373 C 0.32117 0.89726 0.82137 0.0
C2374 C 0.31853 0.88627 0.79483 0.0
C2375 C 0.32108 0.89817 0.78666 0.0
C2376 C 0.3232 0.90945 0.79592 0.0
H2377 H 0.34441 0.91349 0.68375 0.0
H2378 H 0.34332 0.91482 0.71373 0.0
C2379 C 0.32325 0.90901 0.81312 0.0
C2380 C 0.32172 0.89887 0.76845 0.0
H2381 H 0.33805 0.89515 0.7354 0.0
C2382 C 0.31273 0.90175 0.75993 0.0
C2383 C 0.3312 0.89682 0.75952 0.0
C2384 C 0.34171 0.89456 0.76799 0.0
C2385 C 0.31277 0.90232 0.74266 0.0
C2386 C 0.32185 0.89967 0.73371 0.0
C2387 C 0.33101 0.89706 0.74227 0.0
C2388 C 0.32211 0.89953 0.71547 0.0
C2389 C 0.30325 0.90598 0.73419 0.0
C2390 C 0.31053 0.89052 0.70649 0.0
C2391 C 0.31111 0.8898 0.68935 0.0
C2392 C 0.32335 0.89793 0.68094 0.0
C2393 C 0.33488 0.90702 0.68994 0.0
C2394 C 0.33426 0.90782 0.70704 0.0
H2395 H 0.30005 0.91157 0.74257 0.0
H2396 H 0.30801 0.91228 0.72309 0.0
H2397 H 0.29401 0.89656 0.73028 0.0
H2398 H 0.30114 0.88377 0.71276 0.0
H2399 H 0.30212 0.88258 0.68272 0.0
H2400 H 0.41948 0.33804 0.31767 0.0
H2401 H 0.41738 0.33704 0.28761 0.0
H2402 H 0.4251 0.30367 0.28657 0.0
H2403 H 0.4274 0.30471 0.31661 0.0
H2404 H 0.44159 0.32606 0.2649 0.0
H2405 H 0.38651 0.30764 0.25832 0.0
H2406 H 0.39556 0.32172 0.2721 0.0
H2407 H 0.39384 0.30559 0.27707 0.0
C2408 C 0.42069 0.33047 0.31103 0.0
C2409 C 0.42361 0.32145 0.31947 0.0
C2410 C 0.41936 0.32983 0.29391 0.0
C2411 C 0.42094 0.32019 0.28495 0.0
C2412 C 0.42374 0.31111 0.29333 0.0
H2413 H 0.41069 0.30221 0.18004 0.0
H2414 H 0.40947 0.30066 0.2102 0.0
C2415 C 0.42499 0.31168 0.31046 0.0
C2416 C 0.42049 0.32013 0.26677 0.0
H2417 H 0.39982 0.31525 0.23394 0.0
C2418 C 0.43245 0.32363 0.25812 0.0
C2419 C 0.40852 0.31688 0.25802 0.0
C2420 C 0.39532 0.31263 0.2668 0.0
C2421 C 0.43283 0.32426 0.24087 0.0
C2422 C 0.42096 0.32136 0.23215 0.0
C2423 C 0.40891 0.31756 0.24075 0.0
C2424 C 0.42098 0.32232 0.21403 0.0
C2425 C 0.4459 0.32802 0.23205 0.0
C2426 C 0.42767 0.33503 0.20634 0.0
C2427 C 0.42836 0.33595 0.18919 0.0
C2428 C 0.42242 0.32416 0.17947 0.0
C2429 C 0.41547 0.31145 0.18724 0.0
C2430 C 0.4147 0.31054 0.20441 0.0
H2431 H 0.4535 0.32774 0.24038 0.0
H2432 H 0.444 0.32105 0.22155 0.0
H2433 H 0.45028 0.33843 0.22703 0.0
H2434 H 0.43253 0.34422 0.21363 0.0
H2435 H 0.43389 0.34588 0.18355 0.0
H2436 H 0.09945 0.40483 0.67877 0.0
H2437 H 0.09808 0.40165 0.70871 0.0
H2438 H 0.09568 0.43797 0.7148 0.0
H2439 H 0.09738 0.44144 0.68505 0.0
H2440 H 0.11615 0.42118 0.73339 0.0
H2441 H 0.06242 0.40784 0.74053 0.0
H2442 H 0.06944 0.40661 0.72108 0.0
H2443 H 0.07264 0.4228 0.72851 0.0
C2444 C 0.09873 0.4122 0.68648 0.0
C2445 C 0.09843 0.42335 0.67949 0.0
C2446 C 0.09787 0.41031 0.70356 0.0
C2447 C 0.09657 0.41946 0.71387 0.0
C2448 C 0.0964 0.43065 0.70698 0.0
H2449 H 0.09326 0.43673 0.81522 0.0
H2450 H 0.09257 0.43478 0.78523 0.0
C2451 C 0.09733 0.43259 0.68996 0.0
C2452 C 0.09579 0.41765 0.73192 0.0
H2453 H 0.07561 0.41336 0.76504 0.0
C2454 C 0.10725 0.41929 0.74035 0.0
C2455 C 0.08414 0.4152 0.74086 0.0
C2456 C 0.0714 0.41288 0.73231 0.0
C2457 C 0.1076 0.41917 0.75763 0.0
C2458 C 0.09606 0.41707 0.76661 0.0
C2459 C 0.08444 0.415 0.75812 0.0
C2460 C 0.09608 0.41779 0.78481 0.0
C2461 C 0.12052 0.42192 0.7661 0.0
C2462 C 0.09806 0.40874 0.79451 0.0
C2463 C 0.09848 0.40984 0.81168 0.0
C2464 C 0.09675 0.41992 0.81941 0.0
C2465 C 0.09446 0.42877 0.80964 0.0
C2466 C 0.09413 0.4277 0.79251 0.0
H2467 H 0.12931 0.42634 0.75755 0.0
H2468 H 0.12284 0.42896 0.77664 0.0
H2469 H 0.11929 0.41226 0.77093 0.0
H2470 H 0.09929 0.40083 0.78881 0.0
H2471 H 0.10006 0.40277 0.8189 0.0
H2472 H 0.66311 0.11372 0.31492 0.0
H2473 H 0.66502 0.11413 0.28492 0.0
H2474 H 0.69095 0.09674 0.28826 0.0
H2475 H 0.68882 0.09596 0.31832 0.0
H2476 H 0.68925 0.12754 0.26579 0.0
H2477 H 0.66095 0.07179 0.25546 0.0
H2478 H 0.65997 0.07936 0.27457 0.0
H2479 H 0.67466 0.07799 0.27001 0.0
C2480 C 0.66908 0.10982 0.30927 0.0
C2481 C 0.67574 0.10471 0.31898 0.0
C2482 C 0.67024 0.11016 0.29215 0.0
C2483 C 0.678 0.10533 0.28441 0.0
C2484 C 0.68476 0.10033 0.29402 0.0
H2485 H 0.68911 0.09826 0.17888 0.0
H2486 H 0.69134 0.09841 0.20893 0.0
C2487 C 0.68363 0.10001 0.31118 0.0
C2488 C 0.67909 0.10575 0.26625 0.0
H2489 H 0.67005 0.08568 0.23204 0.0
C2490 C 0.68511 0.1184 0.2584 0.0
C2491 C 0.67375 0.09379 0.25669 0.0
C2492 C 0.66687 0.07993 0.26454 0.0
C2493 C 0.68579 0.11943 0.24118 0.0
C2494 C 0.68008 0.10747 0.23161 0.0
C2495 C 0.6744 0.09482 0.23945 0.0
C2496 C 0.67922 0.10783 0.21346 0.0
C2497 C 0.69261 0.1333 0.23337 0.0
C2498 C 0.67158 0.11298 0.20612 0.0
C2499 C 0.67032 0.11294 0.18903 0.0
C2500 C 0.67661 0.10767 0.17894 0.0
C2501 C 0.68428 0.10253 0.18633 0.0
C2502 C 0.68551 0.10254 0.20346 0.0
H2503 H 0.69975 0.1412 0.24204 0.0
H2504 H 0.69826 0.13354 0.22211 0.0
H2505 H 0.68479 0.13592 0.22982 0.0
H2506 H 0.66646 0.1169 0.21365 0.0
H2507 H 0.66446 0.11709 0.18371 0.0
H2508 H 0.56831 0.69127 0.68164 0.0
H2509 H 0.57172 0.69324 0.71149 0.0
H2510 H 0.57241 0.65575 0.71212 0.0
H2511 H 0.5695 0.65394 0.68226 0.0
H2512 H 0.5547 0.67512 0.73486 0.0
H2513 H 0.60584 0.68076 0.73913 0.0
H2514 H 0.59903 0.68299 0.72006 0.0
H2515 H 0.59408 0.66625 0.72739 0.0
C2516 C 0.56945 0.68358 0.68809 0.0
C2517 C 0.56865 0.67245 0.67957 0.0
C2518 C 0.57132 0.68468 0.70515 0.0
C2519 C 0.57251 0.67474 0.71397 0.0
C2520 C 0.57179 0.66367 0.70551 0.0
H2521 H 0.57325 0.65412 0.81591 0.0
H2522 H 0.57335 0.65534 0.78579 0.0
C2523 C 0.56994 0.66257 0.68847 0.0
C2524 C 0.57369 0.6755 0.73214 0.0
H2525 H 0.59324 0.67578 0.76418 0.0
C2526 C 0.56319 0.67541 0.74128 0.0
C2527 C 0.58477 0.67585 0.74045 0.0
C2528 C 0.59664 0.6766 0.73126 0.0
C2529 C 0.56328 0.67525 0.75855 0.0
C2530 C 0.57425 0.67538 0.76685 0.0
C2531 C 0.58483 0.67564 0.75773 0.0
C2532 C 0.57475 0.67497 0.78502 0.0
C2533 C 0.55144 0.67454 0.76778 0.0
C2534 C 0.57573 0.68572 0.79449 0.0
C2535 C 0.57562 0.68503 0.81166 0.0
C2536 C 0.57457 0.67359 0.81966 0.0
C2537 C 0.5739 0.66298 0.8101 0.0
C2538 C 0.57404 0.6637 0.79292 0.0
H2539 H 0.54255 0.67156 0.75963 0.0
H2540 H 0.54833 0.66719 0.77811 0.0
H2541 H 0.55448 0.68465 0.77305 0.0
H2542 H 0.57646 0.69458 0.78858 0.0
H2543 H 0.57602 0.69331 0.81867 0.0
H2544 H 0.45346 0.17598 0.04299 0.0
H2545 H 0.45518 0.1979 0.03766 0.0
H2546 H 0.42109 0.1871 0.06974 0.0
H2547 H 0.41878 0.16491 0.07435 0.0
H2548 H 0.42015 0.20033 0.04249 0.0
H2549 H 0.47123 0.22802 0.07134 0.0
H2550 H 0.4699 0.2177 0.05394 0.0
H2551 H 0.46072 0.20986 0.07251 0.0
C2552 C 0.44616 0.17816 0.04866 0.0
C2553 C 0.43609 0.16875 0.05929 0.0
C2554 C 0.44727 0.19076 0.04575 0.0
C2555 C 0.43846 0.19423 0.0536 0.0
C2556 C 0.42807 0.18466 0.06366 0.0
H2557 H 0.44609 0.26769 0.08717 0.0
H2558 H 0.44596 0.24657 0.08173 0.0
C2559 C 0.42686 0.17204 0.06644 0.0
C2560 C 0.44029 0.20799 0.05208 0.0
H2561 H 0.46185 0.24106 0.06207 0.0
C2562 C 0.42931 0.20928 0.04661 0.0
C2563 C 0.45224 0.2196 0.05758 0.0
C2564 C 0.46416 0.21878 0.06431 0.0
C2565 C 0.42973 0.22179 0.04709 0.0
C2566 C 0.44161 0.23336 0.05281 0.0
C2567 C 0.45279 0.23216 0.05763 0.0
C2568 C 0.44217 0.24646 0.05558 0.0
C2569 C 0.4172 0.22234 0.04234 0.0
C2570 C 0.44027 0.2535 0.04264 0.0
C2571 C 0.44024 0.26555 0.04576 0.0
C2572 C 0.44235 0.27083 0.06182 0.0
C2573 C 0.4446 0.26393 0.07465 0.0
C2574 C 0.44449 0.25186 0.07156 0.0
H2575 H 0.40809 0.21207 0.04162 0.0
H2576 H 0.41518 0.22846 0.05133 0.0
H2577 H 0.41877 0.22717 0.03006 0.0
H2578 H 0.43875 0.24965 0.03016 0.0
H2579 H 0.43863 0.27077 0.03563 0.0
H2580 H 0.18185 0.45468 0.57211 0.0
H2581 H 0.20176 0.45349 0.56392 0.0
H2582 H 0.18015 0.42895 0.52199 0.0
H2583 H 0.16016 0.43044 0.52979 0.0
H2584 H 0.19138 0.41743 0.54331 0.0
H2585 H 0.22962 0.46986 0.52608 0.0
H2586 H 0.22102 0.46914 0.54491 0.0
H2587 H 0.21161 0.46382 0.52594 0.0
C2588 C 0.18141 0.44939 0.56083 0.0
C2589 C 0.16937 0.44262 0.55164 0.0
C2590 C 0.19283 0.44873 0.55617 0.0
C2591 C 0.19246 0.44128 0.54224 0.0
C2592 C 0.18063 0.43483 0.53272 0.0
H2593 H 0.26641 0.43511 0.53129 0.0
H2594 H 0.24633 0.43604 0.52195 0.0
C2595 C 0.1692 0.43559 0.53729 0.0
C2596 C 0.20386 0.4389 0.53911 0.0
H2597 H 0.23834 0.45571 0.53647 0.0
C2598 C 0.20162 0.42573 0.54133 0.0
C2599 C 0.21716 0.44971 0.53636 0.0
C2600 C 0.22 0.46391 0.53302 0.0
C2601 C 0.21249 0.42331 0.54237 0.0
C2602 C 0.22585 0.43434 0.5412 0.0
C2603 C 0.22805 0.4473 0.5375 0.0
C2604 C 0.23753 0.43299 0.54627 0.0
C2605 C 0.2097 0.40911 0.54566 0.0
C2606 C 0.23914 0.43104 0.56298 0.0
C2607 C 0.25055 0.43066 0.56832 0.0
C2608 C 0.26052 0.43214 0.55701 0.0
C2609 C 0.25879 0.43386 0.5402 0.0
C2610 C 0.2474 0.43441 0.53488 0.0
H2611 H 0.19923 0.40141 0.54199 0.0
H2612 H 0.21702 0.40711 0.53896 0.0
H2613 H 0.21083 0.40794 0.55904 0.0
H2614 H 0.23166 0.43008 0.57195 0.0
H2615 H 0.25161 0.42923 0.58131 0.0
H2616 H 0.8189 0.2633 0.08166 0.0
H2617 H 0.79915 0.2416 0.07444 0.0
H2618 H 0.8161 0.24347 0.02636 0.0
H2619 H 0.83602 0.26527 0.03354 0.0
H2620 H 0.78809 0.23526 0.02609 0.0
H2621 H 0.79963 0.20583 0.07088 0.0
H2622 H 0.79962 0.2201 0.08021 0.0
H2623 H 0.81201 0.22282 0.06468 0.0
C2624 C 0.81848 0.25906 0.06959 0.0
C2625 C 0.82907 0.2659 0.05823 0.0
C2626 C 0.8072 0.24668 0.06548 0.0
C2627 C 0.80633 0.24085 0.05 0.0
C2628 C 0.81666 0.24781 0.03841 0.0
H2629 H 0.74118 0.15686 0.04526 0.0
H2630 H 0.76315 0.17668 0.03923 0.0
C2631 C 0.82798 0.26025 0.04251 0.0
C2632 C 0.79457 0.22745 0.04614 0.0
H2633 H 0.77665 0.19536 0.06129 0.0
C2634 C 0.78566 0.22644 0.03356 0.0
C2635 C 0.79162 0.21591 0.05562 0.0
C2636 C 0.8013 0.21615 0.06849 0.0
C2637 C 0.77337 0.21436 0.03101 0.0
C2638 C 0.76987 0.20318 0.04152 0.0
C2639 C 0.77924 0.20396 0.05332 0.0
C2640 C 0.75614 0.19108 0.04177 0.0
C2641 C 0.7642 0.21378 0.01727 0.0
C2642 C 0.74482 0.19255 0.04478 0.0
C2643 C 0.73219 0.18122 0.04799 0.0
C2644 C 0.73069 0.16821 0.04855 0.0
C2645 C 0.74192 0.1667 0.04477 0.0
C2646 C 0.75452 0.17803 0.0414 0.0
H2647 H 0.77015 0.22061 0.00698 0.0
H2648 H 0.75797 0.20333 0.01239 0.0
H2649 H 0.75731 0.21726 0.02197 0.0
H2650 H 0.74585 0.20251 0.04551 0.0
H2651 H 0.72371 0.18272 0.0506 0.0
H2652 H 0.53748 0.71989 0.54861 0.0
H2653 H 0.53982 0.74216 0.54384 0.0
H2654 H 0.58328 0.76077 0.54743 0.0
H2655 H 0.58102 0.73861 0.55258 0.0
H2656 H 0.57146 0.77086 0.56942 0.0
H2657 H 0.55361 0.76971 0.50554 0.0
H2658 H 0.54253 0.75522 0.51782 0.0
H2659 H 0.55916 0.75825 0.51271 0.0
C2660 C 0.54754 0.72871 0.54814 0.0
C2661 C 0.55906 0.72752 0.55107 0.0
C2662 C 0.54887 0.74139 0.54522 0.0
C2663 C 0.56173 0.75306 0.54511 0.0
C2664 C 0.57328 0.75184 0.54731 0.0
H2665 H 0.58428 0.83773 0.55761 0.0
H2666 H 0.58525 0.81728 0.55146 0.0
C2667 C 0.57197 0.73917 0.55019 0.0
C2668 C 0.563 0.76661 0.545 0.0
H2669 H 0.5554 0.78744 0.52296 0.0
C2670 C 0.56814 0.77459 0.55918 0.0
C2671 C 0.5585 0.77131 0.53167 0.0
C2672 C 0.55324 0.76324 0.516 0.0
C2673 C 0.5685 0.78701 0.56066 0.0
C2674 C 0.56391 0.7917 0.54739 0.0
C2675 C 0.55896 0.78382 0.53307 0.0
C2676 C 0.56357 0.80447 0.54863 0.0
C2677 C 0.57326 0.79468 0.5767 0.0
C2678 C 0.55112 0.80416 0.54819 0.0
C2679 C 0.55053 0.8159 0.5514 0.0
C2680 C 0.5624 0.82813 0.55513 0.0
C2681 C 0.57494 0.82852 0.55471 0.0
C2682 C 0.57551 0.81681 0.55137 0.0
H2683 H 0.57326 0.78816 0.58687 0.0
H2684 H 0.58378 0.80321 0.5752 0.0
H2685 H 0.56675 0.79894 0.58036 0.0
H2686 H 0.54179 0.79473 0.54597 0.0
H2687 H 0.54075 0.81532 0.55126 0.0
H2688 H 0.73476 0.57228 0.02724 0.0
H2689 H 0.75651 0.57407 0.02014 0.0
H2690 H 0.75139 0.54662 0.05964 0.0
H2691 H 0.73003 0.54512 0.06718 0.0
H2692 H 0.77838 0.58373 0.04303 0.0
H2693 H 0.764 0.53248 0.0204 0.0
H2694 H 0.75234 0.53889 0.0206 0.0
H2695 H 0.75536 0.53207 0.03907 0.0
C2696 C 0.73823 0.56656 0.03436 0.0
C2697 C 0.73064 0.55858 0.04782 0.0
C2698 C 0.75058 0.56751 0.03018 0.0
C2699 C 0.75541 0.56031 0.03921 0.0
C2700 C 0.74766 0.55199 0.05225 0.0
H2701 H 0.82484 0.56857 0.07994 0.0
H2702 H 0.8047 0.56899 0.07043 0.0
C2703 C 0.73541 0.55113 0.05654 0.0
C2704 C 0.76922 0.56262 0.03654 0.0
H2705 H 0.78644 0.54547 0.03235 0.0
C2706 C 0.7802 0.57547 0.04023 0.0
C2707 C 0.77157 0.55187 0.03272 0.0
C2708 C 0.76019 0.53808 0.0278 0.0
C2709 C 0.79336 0.57753 0.04165 0.0
C2710 C 0.79548 0.56644 0.03938 0.0
C2711 C 0.78472 0.55391 0.03424 0.0
C2712 C 0.80819 0.56713 0.04461 0.0
C2713 C 0.80477 0.59134 0.04644 0.0
C2714 C 0.81672 0.56586 0.03319 0.0
C2715 C 0.82828 0.56567 0.0386 0.0
C2716 C 0.83125 0.56647 0.05551 0.0
C2717 C 0.82271 0.56782 0.06686 0.0
C2718 C 0.81129 0.56818 0.06144 0.0
H2719 H 0.80241 0.59943 0.04332 0.0
H2720 H 0.8064 0.5916 0.05995 0.0
H2721 H 0.81435 0.59356 0.04023 0.0
H2722 H 0.81437 0.56491 0.02016 0.0
H2723 H 0.8347 0.56453 0.02965 0.0
H2724 H 0.27177 0.82665 0.53447 0.0
H2725 H 0.25015 0.80661 0.52695 0.0
H2726 H 0.23177 0.81163 0.57084 0.0
H2727 H 0.25313 0.8317 0.5782 0.0
H2728 H 0.23659 0.78324 0.54596 0.0
H2729 H 0.20384 0.80546 0.53543 0.0
H2730 H 0.22213 0.81552 0.5354 0.0
H2731 H 0.21288 0.81109 0.55453 0.0
C2732 C 0.26303 0.82359 0.54233 0.0
C2733 C 0.26413 0.83068 0.55695 0.0
C2734 C 0.25073 0.81215 0.53804 0.0
C2735 C 0.23933 0.80779 0.5482 0.0
C2736 C 0.24037 0.815 0.56264 0.0
H2737 H 0.16676 0.74345 0.57985 0.0
H2738 H 0.18723 0.76451 0.57251 0.0
C2739 C 0.25263 0.82636 0.56696 0.0
C2740 C 0.22662 0.79504 0.54473 0.0
H2741 H 0.19237 0.78177 0.5435 0.0
C2742 C 0.22692 0.78288 0.54496 0.0
C2743 C 0.21407 0.79465 0.54333 0.0
C2744 C 0.21321 0.8074 0.54198 0.0
C2745 C 0.21489 0.77031 0.54523 0.0
C2746 C 0.20233 0.76998 0.5451 0.0
C2747 C 0.20205 0.7821 0.5437 0.0
C2748 C 0.18952 0.75739 0.54869 0.0
C2749 C 0.21567 0.75753 0.54685 0.0
C2750 C 0.18398 0.7465 0.53759 0.0
C2751 C 0.17228 0.7344 0.5418 0.0
C2752 C 0.16604 0.73304 0.55718 0.0
C2753 C 0.17148 0.74412 0.56805 0.0
C2754 C 0.18309 0.75618 0.56382 0.0
H2755 H 0.22624 0.75967 0.5485 0.0
H2756 H 0.20951 0.75145 0.55749 0.0
H2757 H 0.21145 0.75127 0.5356 0.0
H2758 H 0.18877 0.74733 0.5258 0.0
H2759 H 0.1683 0.726 0.53321 0.0
H2760 H 0.83818 0.57971 0.45131 0.0
H2761 H 0.81778 0.58081 0.45775 0.0
H2762 H 0.79297 0.53849 0.44555 0.0
H2763 H 0.81333 0.53724 0.43938 0.0
H2764 H 0.79817 0.57498 0.43322 0.0
H2765 H 0.77534 0.5424 0.4881 0.0
H2766 H 0.79298 0.54945 0.48261 0.0
H2767 H 0.78013 0.53472 0.4721 0.0
C2768 C 0.8284 0.57055 0.45045 0.0
C2769 C 0.82732 0.55839 0.44478 0.0
C2770 C 0.81677 0.57121 0.45409 0.0
C2771 C 0.80391 0.5597 0.4523 0.0
C2772 C 0.80283 0.54742 0.4473 0.0
H2773 H 0.72153 0.53885 0.4403 0.0
H2774 H 0.74299 0.53963 0.44584 0.0
C2775 C 0.81444 0.54676 0.44359 0.0
C2776 C 0.79163 0.56092 0.45345 0.0
H2777 H 0.76086 0.54776 0.47237 0.0
C2778 C 0.79009 0.56922 0.44195 0.0
C2779 C 0.78111 0.55328 0.46478 0.0
C2780 C 0.78248 0.54454 0.47771 0.0
C2781 C 0.77804 0.56964 0.44095 0.0
C2782 C 0.76738 0.5618 0.45207 0.0
C2783 C 0.76906 0.55378 0.4639 0.0
C2784 C 0.75413 0.56116 0.4508 0.0
C2785 C 0.7766 0.57794 0.42743 0.0
C2786 C 0.75321 0.57293 0.45228 0.0
C2787 C 0.74104 0.57258 0.44879 0.0
C2788 C 0.72952 0.56039 0.444 0.0
C2789 C 0.73029 0.54846 0.44357 0.0
C2790 C 0.7425 0.54885 0.44691 0.0
H2791 H 0.78438 0.58071 0.41767 0.0
H2792 H 0.76642 0.57235 0.42163 0.0
H2793 H 0.77784 0.58747 0.43274 0.0
H2794 H 0.76203 0.58249 0.45558 0.0
H2795 H 0.74087 0.58199 0.44918 0.0
H2796 H 0.17731 0.73066 0.91494 0.0
H2797 H 0.19752 0.75241 0.92064 0.0
H2798 H 0.1824 0.75282 0.96918 0.0
H2799 H 0.16212 0.73079 0.9637 0.0
H2800 H 0.19603 0.77687 0.9308 0.0
H2801 H 0.22308 0.76109 0.97495 0.0
H2802 H 0.21075 0.74924 0.96057 0.0
H2803 H 0.20526 0.75504 0.97785 0.0
C2804 C 0.17837 0.73522 0.92695 0.0
C2805 C 0.16816 0.72898 0.93891 0.0
C2806 C 0.18987 0.74768 0.93014 0.0
C2807 C 0.19142 0.75411 0.94534 0.0
C2808 C 0.18138 0.7479 0.95743 0.0
H2809 H 0.26401 0.83333 0.96616 0.0
H2810 H 0.2419 0.8128 0.97047 0.0
C2811 C 0.1698 0.73541 0.95423 0.0
C2812 C 0.20336 0.76762 0.94798 0.0
H2813 H 0.23479 0.78365 0.96551 0.0
C2814 C 0.20443 0.77844 0.9386 0.0
C2815 C 0.21419 0.76958 0.95828 0.0
C2816 C 0.2134 0.75817 0.96851 0.0
C2817 C 0.21635 0.79105 0.93863 0.0
C2818 C 0.2275 0.79276 0.94808 0.0
C2819 C 0.22618 0.78221 0.95824 0.0
C2820 C 0.24099 0.80487 0.94603 0.0
C2821 C 0.21711 0.80232 0.9281 0.0
C2822 C 0.24779 0.80696 0.93099 0.0
C2823 C 0.26031 0.81856 0.92851 0.0
C2824 C 0.2663 0.82829 0.94105 0.0
C2825 C 0.25957 0.82604 0.95625 0.0
C2826 C 0.24701 0.81434 0.95876 0.0
H2827 H 0.20687 0.80066 0.92518 0.0
H2828 H 0.22306 0.81227 0.93434 0.0
H2829 H 0.22224 0.80272 0.91632 0.0
H2830 H 0.24331 0.79967 0.92109 0.0
H2831 H 0.26514 0.82008 0.91659 0.0
H2832 H 0.45594 0.17846 0.45186 0.0
H2833 H 0.45535 0.19939 0.45673 0.0
H2834 H 0.41272 0.17858 0.44514 0.0
H2835 H 0.41324 0.15771 0.44003 0.0
H2836 H 0.43096 0.20255 0.42537 0.0
H2837 H 0.43702 0.2118 0.49298 0.0
H2838 H 0.44797 0.20679 0.48305 0.0
H2839 H 0.43011 0.19505 0.48419 0.0
C2840 C 0.44641 0.17832 0.4506 0.0
C2841 C 0.43465 0.16648 0.44549 0.0
C2842 C 0.44606 0.19021 0.45354 0.0
C2843 C 0.43396 0.19043 0.45142 0.0
C2844 C 0.4221 0.17852 0.447 0.0
H2845 H 0.41479 0.2538 0.43583 0.0
H2846 H 0.41378 0.23224 0.44063 0.0
C2847 C 0.42242 0.16661 0.44414 0.0
C2848 C 0.43405 0.20341 0.45158 0.0
H2849 H 0.4376 0.22918 0.47636 0.0
C2850 C 0.43233 0.20835 0.43652 0.0
C2851 C 0.43605 0.21097 0.46613 0.0
C2852 C 0.43782 0.20591 0.48257 0.0
C2853 C 0.43265 0.22076 0.43555 0.0
C2854 C 0.43435 0.22823 0.45014 0.0
C2855 C 0.43619 0.22335 0.46523 0.0
C2856 C 0.43431 0.24117 0.44976 0.0
C2857 C 0.43149 0.22589 0.41882 0.0
C2858 C 0.44595 0.2533 0.45421 0.0
C2859 C 0.44648 0.2657 0.45182 0.0
C2860 C 0.43538 0.26616 0.44489 0.0
C2861 C 0.4235 0.25389 0.4413 0.0
C2862 C 0.42294 0.24153 0.44385 0.0
H2863 H 0.434 0.22092 0.40874 0.0
H2864 H 0.42092 0.22363 0.41693 0.0
H2865 H 0.43831 0.23702 0.41784 0.0
H2866 H 0.45479 0.2532 0.45894 0.0
H2867 H 0.45568 0.27494 0.45506 0.0
H2868 H 0.27107 0.43883 0.96938 0.0
H2869 H 0.24975 0.43829 0.97575 0.0
H2870 H 0.24713 0.44892 0.92546 0.0
H2871 H 0.26817 0.44927 0.91892 0.0
H2872 H 0.24149 0.46365 0.95034 0.0
H2873 H 0.21237 0.40754 0.95838 0.0
H2874 H 0.22762 0.41709 0.97025 0.0
H2875 H 0.22868 0.41601 0.94831 0.0
C2876 C 0.26593 0.44104 0.95969 0.0
C2877 C 0.27131 0.44408 0.94363 0.0
C2878 C 0.2538 0.44076 0.96337 0.0
C2879 C 0.24688 0.44349 0.95104 0.0
C2880 C 0.25239 0.44686 0.93516 0.0
H2881 H 0.17018 0.42481 0.92049 0.0
H2882 H 0.19175 0.42665 0.92812 0.0
C2883 C 0.26446 0.44712 0.93147 0.0
C2884 C 0.23358 0.44232 0.95418 0.0
H2885 H 0.19999 0.41889 0.95771 0.0
C2886 C 0.23241 0.45393 0.95232 0.0
C2887 C 0.22182 0.42958 0.95667 0.0
C2888 C 0.22256 0.41679 0.95845 0.0
C2889 C 0.21969 0.45304 0.95197 0.0
C2890 C 0.20789 0.44021 0.9537 0.0
C2891 C 0.2091 0.4287 0.95647 0.0
C2892 C 0.19431 0.43827 0.95025 0.0
C2893 C 0.21891 0.46566 0.94865 0.0
C2894 C 0.18851 0.44399 0.96037 0.0
C2895 C 0.17619 0.44303 0.95596 0.0
C2896 C 0.16956 0.43636 0.94136 0.0
C2897 C 0.17519 0.43023 0.93163 0.0
C2898 C 0.18744 0.43116 0.93605 0.0
H2899 H 0.22895 0.47449 0.94552 0.0
H2900 H 0.21179 0.46391 0.93836 0.0
H2901 H 0.21501 0.46826 0.95976 0.0
H2902 H 0.19363 0.4494 0.97147 0.0
H2903 H 0.17209 0.44787 0.96368 0.0
H2904 H 0.74332 0.157 0.43938 0.0
H2905 H 0.76496 0.17722 0.4452 0.0
H2906 H 0.74405 0.19769 0.46233 0.0
H2907 H 0.7223 0.17722 0.45738 0.0
H2908 H 0.77257 0.20041 0.42896 0.0
H2909 H 0.77409 0.21001 0.49605 0.0
H2910 H 0.76232 0.19386 0.48694 0.0
H2911 H 0.7589 0.20766 0.48638 0.0
C2912 C 0.74327 0.16561 0.44494 0.0
C2913 C 0.73104 0.16549 0.44783 0.0
C2914 C 0.75568 0.1772 0.44816 0.0
C2915 C 0.75612 0.18892 0.45431 0.0
C2916 C 0.74396 0.18868 0.45788 0.0
H2917 H 0.81558 0.27373 0.45089 0.0
H2918 H 0.7954 0.25162 0.45594 0.0
C2919 C 0.73153 0.17704 0.45479 0.0
C2920 C 0.76918 0.20182 0.45481 0.0
H2921 H 0.79005 0.22857 0.47936 0.0
C2922 C 0.77647 0.20647 0.44004 0.0
C2923 C 0.77417 0.20976 0.46925 0.0
C2924 C 0.76703 0.20502 0.48559 0.0
C2925 C 0.78849 0.21896 0.43921 0.0
C2926 C 0.7934 0.22696 0.45358 0.0
C2927 C 0.7862 0.22234 0.4684 0.0
C2928 C 0.80586 0.24031 0.45309 0.0
C2929 C 0.79567 0.22369 0.42287 0.0
C2930 C 0.81841 0.2412 0.45027 0.0
C2931 C 0.82989 0.25374 0.44725 0.0
C2932 C 0.829 0.26561 0.44703 0.0
C2933 C 0.81652 0.26474 0.45074 0.0
C2934 C 0.80504 0.25216 0.45377 0.0
H2935 H 0.78927 0.21748 0.41243 0.0
H2936 H 0.79869 0.23445 0.42062 0.0
H2937 H 0.80502 0.22295 0.42305 0.0
H2938 H 0.8192 0.23211 0.44974 0.0
H2939 H 0.83931 0.25405 0.44429 0.0
H2940 H 0.56616 0.74152 0.91848 0.0
H2941 H 0.56575 0.76175 0.92761 0.0
H2942 H 0.55923 0.74722 0.97768 0.0
H2943 H 0.5597 0.72684 0.96859 0.0
H2944 H 0.54017 0.75574 0.96316 0.0
H2945 H 0.59468 0.79403 0.95719 0.0
H2946 H 0.58798 0.78242 0.94018 0.0
H2947 H 0.58866 0.77619 0.96028 0.0
C2948 C 0.56468 0.74266 0.93144 0.0
C2949 C 0.56292 0.73265 0.94284 0.0
C2950 C 0.56456 0.75423 0.93664 0.0
C2951 C 0.56261 0.75597 0.95331 0.0
C2952 C 0.56088 0.74605 0.96479 0.0
H2953 H 0.56673 0.83436 0.96746 0.0
H2954 H 0.56782 0.81427 0.97618 0.0
C2955 C 0.56117 0.73449 0.9596 0.0
C2956 C 0.56156 0.76786 0.95822 0.0
H2957 H 0.57897 0.80229 0.9554 0.0
C2958 C 0.5487 0.76595 0.96194 0.0
C2959 C 0.57274 0.78111 0.95682 0.0
C2960 C 0.58684 0.78361 0.95355 0.0
C2961 C 0.54653 0.77701 0.96282 0.0
C2962 C 0.55748 0.79018 0.95978 0.0
C2963 C 0.57056 0.79215 0.9576 0.0
C2964 C 0.55531 0.80165 0.95622 0.0
C2965 C 0.53243 0.77447 0.96614 0.0
C2966 C 0.54789 0.80111 0.94217 0.0
C2967 C 0.54737 0.81252 0.93712 0.0
C2968 C 0.55425 0.82466 0.94604 0.0
C2969 C 0.56126 0.82506 0.96047 0.0
C2970 C 0.5619 0.81365 0.96544 0.0
H2971 H 0.52641 0.76501 0.97334 0.0
H2972 H 0.53272 0.78306 0.97295 0.0
H2973 H 0.52716 0.77331 0.95425 0.0
H2974 H 0.54297 0.79202 0.93471 0.0
H2975 H 0.54184 0.81195 0.92601 0.0
H2976 H 0.35276 0.96716 0.95275 0.0
H2977 H 0.35536 0.98671 0.96825 0.0
H2978 H 0.31317 0.9644 0.98198 0.0
H2979 H 0.31047 0.94466 0.96646 0.0
H2980 H 0.3382 0.00077 0.96587 0.0
H2981 H 0.33745 0.97668 0.02602 0.0
H2982 H 0.34159 0.97115 0.00717 0.0
H2983 H 0.32454 0.96738 0.01081 0.0
C2984 C 0.34402 0.96644 0.95903 0.0
C2985 C 0.33145 0.95439 0.95857 0.0
C2986 C 0.34549 0.97761 0.96775 0.0
C2987 C 0.33446 0.97692 0.97625 0.0
C2988 C 0.32177 0.96507 0.97547 0.0
H2989 H 0.35853 0.0407 0.05075 0.0
H2990 H 0.34242 0.02125 0.0342 0.0
C2991 C 0.32026 0.95386 0.9666 0.0
C2992 C 0.33675 0.98844 0.98671 0.0
H2993 H 0.34579 0.0001 0.02594 0.0
C2994 C 0.33953 0.00059 0.97908 0.0
C2995 C 0.3383 0.98807 0.00393 0.0
C2996 C 0.33535 0.97516 0.01259 0.0
C2997 C 0.34476 0.01266 0.98812 0.0
C2998 C 0.34757 0.01255 0.00506 0.0
C2999 C 0.34369 0.00017 0.01293 0.0
C3000 C 0.35645 0.02519 0.01417 0.0
C3001 C 0.34773 0.0255 0.97929 0.0
C3002 C 0.36965 0.03379 0.00842 0.0
C3003 C 0.37885 0.04478 0.01784 0.0
C3004 C 0.37509 0.04736 0.03331 0.0
C3005 C 0.36176 0.0389 0.03893 0.0
C3006 C 0.35252 0.02787 0.02946 0.0
H3007 H 0.34054 0.02328 0.96894 0.0
H3008 H 0.34714 0.03284 0.98776 0.0
H3009 H 0.35809 0.03029 0.974 0.0
H3010 H 0.37306 0.03166 0.99693 0.0
H3011 H 0.38911 0.05087 0.01329 0.0
H3012 H 0.36941 0.33146 0.44191 0.0
H3013 H 0.3545 0.33767 0.45661 0.0
H3014 H 0.38343 0.35419 0.4963 0.0
H3015 H 0.39834 0.34797 0.48179 0.0
H3016 H 0.34299 0.33152 0.48969 0.0
H3017 H 0.37904 0.38617 0.4792 0.0
H3018 H 0.37994 0.37298 0.46797 0.0
H3019 H 0.38655 0.37721 0.48856 0.0
C3020 C 0.37249 0.33623 0.45389 0.0
C3021 C 0.38512 0.33941 0.46062 0.0
C3022 C 0.36398 0.33978 0.46223 0.0
C3023 C 0.368 0.34655 0.47737 0.0
C3024 C 0.3803 0.34917 0.48447 0.0
H3025 H 0.32888 0.36644 0.55315 0.0
H3026 H 0.33673 0.35474 0.53495 0.0
C3027 C 0.3888 0.34566 0.47615 0.0
C3028 C 0.35978 0.35159 0.48542 0.0
H3029 H 0.36126 0.38074 0.4983 0.0
C3030 C 0.34688 0.34227 0.49147 0.0
C3031 C 0.36482 0.36563 0.4874 0.0
C3032 C 0.37829 0.3761 0.48031 0.0
C3033 C 0.33908 0.34666 0.50009 0.0
C3034 C 0.34447 0.36069 0.50285 0.0
C3035 C 0.35716 0.36998 0.49624 0.0
C3036 C 0.33757 0.36611 0.51318 0.0
C3037 C 0.32519 0.33626 0.50614 0.0
C3038 C 0.33539 0.37635 0.507 0.0
C3039 C 0.33125 0.3833 0.51745 0.0
C3040 C 0.32916 0.3801 0.53432 0.0
C3041 C 0.3306 0.3693 0.54028 0.0
C3042 C 0.33487 0.36244 0.52983 0.0
H3043 H 0.32088 0.32684 0.49866 0.0
H3044 H 0.32597 0.33354 0.51905 0.0
H3045 H 0.31808 0.34026 0.50579 0.0
H3046 H 0.3375 0.37939 0.4942 0.0
H3047 H 0.33042 0.39166 0.51245 0.0
H3048 H 0.05083 0.39148 0.98379 0.0
H3049 H 0.03075 0.37581 -0.00057 0.0
H3050 H 0.01497 0.34973 0.95697 0.0
H3051 H 0.03499 0.3656 0.94106 0.0
H3052 H 0.99714 0.35673 0.97025 0.0
H3053 H 0.01754 0.33857 0.01952 0.0
H3054 H 0.0269 0.35668 0.01775 0.0
H3055 H 0.02686 0.34639 0.00089 0.0
C3056 C 0.04314 0.38235 0.97782 0.0
C3057 C 0.04442 0.3798 0.96118 0.0
C3058 C 0.03177 0.37331 0.98684 0.0
C3059 C 0.02149 0.3615 0.97944 0.0
C3060 C 0.02289 0.35872 0.96294 0.0
H3061 H 0.9395 0.31671 0.02236 0.0
H3062 H 0.95878 0.32074 0.005 0.0
C3063 C 0.03431 0.36776 0.9539 0.0
C3064 C 0.00868 0.35307 0.98843 0.0
H3065 H 0.99635 0.33789 0.02558 0.0
C3066 C 0.99684 0.35228 0.98216 0.0
C3067 C 0.00836 0.34728 0.00393 0.0
C3068 C 0.02058 0.34714 0.01084 0.0
C3069 C 0.98494 0.3468 0.99156 0.0
C3070 C 0.98487 0.34179 0.00751 0.0
C3071 C 0.99647 0.3418 0.01336 0.0
C3072 C 0.97347 0.33806 0.01897 0.0
C3073 C 0.97284 0.34729 0.98481 0.0
C3074 C 0.97549 0.34614 0.03288 0.0
C3075 C 0.96456 0.34388 0.04278 0.0
C3076 C 0.9514 0.33346 0.03895 0.0
C3077 C 0.9495 0.32496 0.02543 0.0
C3078 C 0.96048 0.32722 0.01554 0.0
H3079 H 0.97532 0.35346 0.9734 0.0
H3080 H 0.96466 0.33685 0.98188 0.0
H3081 H 0.96885 0.35156 0.99409 0.0
H3082 H 0.98546 0.35458 0.03568 0.0
H3083 H 0.96633 0.35068 0.053 0.0
H3084 H 0.68033 0.05132 0.46472 0.0
H3085 H 0.67523 0.03228 0.48319 0.0
H3086 H 0.63281 0.01409 0.47124 0.0
H3087 H 0.63771 0.03307 0.4531 0.0
H3088 H 0.64143 0.01888 0.50709 0.0
H3089 H 0.66032 0.99042 0.47022 0.0
H3090 H 0.67049 0.0086 0.47195 0.0
H3091 H 0.65499 0.00124 0.46048 0.0
C3092 C 0.66993 0.04322 0.46599 0.0
C3093 C 0.65941 0.04367 0.45744 0.0
C3094 C 0.66707 0.03235 0.47643 0.0
C3095 C 0.65367 0.02183 0.47844 0.0
C3096 C 0.64322 0.02213 0.46972 0.0
H3097 H 0.60481 0.94379 0.51488 0.0
H3098 H 0.61957 0.96438 0.49943 0.0
C3099 C 0.64605 0.03292 0.45929 0.0
C3100 C 0.65021 0.01081 0.49033 0.0
H3101 H 0.64829 0.98012 0.49454 0.0
C3102 C 0.64313 0.0105 0.50458 0.0
C3103 C 0.65247 -3e-05 0.48684 0.0
C3104 C 0.65995 -7e-05 0.47154 0.0
C3105 C 0.63762 -0.00074 0.5151 0.0
C3106 C 0.63942 0.98815 0.51132 0.0
C3107 C 0.64703 0.98873 0.49743 0.0
C3108 C 0.63197 0.97525 0.5204 0.0
C3109 C 0.6292 -0.00098 0.52961 0.0
C3110 C 0.63432 0.97445 0.53721 0.0
C3111 C 0.62579 0.96274 0.54613 0.0
C3112 C 0.61482 0.95167 0.53833 0.0
C3113 C 0.613 0.95226 0.52129 0.0
C3114 C 0.62151 0.96395 0.51241 0.0
H3115 H 0.62707 0.00752 0.52926 0.0
H3116 H 0.6194 0.98933 0.52995 0.0
H3117 H 0.63472 -0.00017 0.54119 0.0
H3118 H 0.64245 0.98305 0.54353 0.0
H3119 H 0.62743 0.96257 0.55925 0.0
H3120 H 0.66504 0.62898 0.06178 0.0
H3121 H 0.65831 0.64389 0.04802 0.0
H3122 H 0.65655 0.62481 0.00154 0.0
H3123 H 0.66339 0.61 0.0151 0.0
H3124 H 0.66981 0.66031 0.01072 0.0
H3125 H 0.61641 0.61921 0.02065 0.0
H3126 H 0.62978 0.62213 0.03489 0.0
H3127 H 0.62895 0.61465 0.0152 0.0
C3128 C 0.66357 0.62822 0.04856 0.0
C3129 C 0.6646 0.61825 0.03951 0.0
C3130 C 0.65973 0.63672 0.04076 0.0
C3131 C 0.65697 0.63538 0.02383 0.0
C3132 C 0.6587 0.62597 0.01462 0.0
H3133 H 0.63045 0.66774 0.94733 0.0
H3134 H 0.64377 0.66204 0.96579 0.0
C3135 C 0.66249 0.61746 0.0224 0.0
C3136 C 0.65067 0.64252 0.01603 0.0
H3137 H 0.6199 0.63741 0.00377 0.0
C3138 C 0.6589 0.65544 0.00932 0.0
C3139 C 0.63646 0.63611 0.01444 0.0
C3140 C 0.62729 0.62227 0.02169 0.0
C3141 C 0.6532 0.66201 0.00055 0.0
C3142 C 0.63898 0.6553 0.99828 0.0
C3143 C 0.63079 0.64256 0.00553 0.0
C3144 C 0.63229 0.66076 0.98764 0.0
C3145 C 0.66243 0.676 0.9938 0.0
C3146 C 0.62138 0.66188 0.99376 0.0
C3147 C 0.61354 0.6648 0.98316 0.0
C3148 C 0.61647 0.66667 0.96622 0.0
C3149 C 0.6278 0.66617 0.96026 0.0
C3150 C 0.63558 0.66314 0.97086 0.0
H3151 H 0.67198 0.68137 0.001 0.0
H3152 H 0.66516 0.67515 0.98091 0.0
H3153 H 0.65741 0.68221 0.99384 0.0
H3154 H 0.6186 0.65996 0.00665 0.0
H3155 H 0.60479 0.66492 0.98816 0.0
H3156 H 0.05251 0.68366 0.52764 0.0
H3157 H 0.0332 0.68069 0.511 0.0
H3158 H 0.00699 0.6437 0.53714 0.0
H3159 H 0.02613 0.64665 0.55377 0.0
H3160 H 0.0188 0.6578 0.49092 0.0
H3161 H 0.98419 0.6624 0.53468 0.0
H3162 H 0.00206 0.66936 0.5388 0.0
H3163 H 0.99029 0.65169 0.54246 0.0
C3164 C 0.04255 0.6751 0.53007 0.0
C3165 C 0.04078 0.66533 0.5419 0.0
C3166 C 0.03156 0.67341 0.52058 0.0
C3167 C 0.01866 0.66209 0.52302 0.0
C3168 C 0.0168 0.65266 0.5353 0.0
H3169 H 0.94584 0.60552 0.48354 0.0
H3170 H 0.96523 0.62194 0.49955 0.0
C3171 C 0.02776 0.65426 0.54466 0.0
C3172 C 0.00747 0.65895 0.51143 0.0
H3173 H 0.97368 0.64824 0.51068 0.0
C3174 C 0.00901 0.65607 0.49504 0.0
C3175 C 0.99476 0.65676 0.51691 0.0
C3176 C 0.99275 0.66035 0.53415 0.0
C3177 C 0.99785 0.64985 0.48438 0.0
C3178 C 0.98491 0.64672 0.49025 0.0
C3179 C 0.9836 0.6506 0.50625 0.0
C3180 C 0.97245 0.63764 0.48096 0.0
C3181 C -0.00018 0.64569 0.46741 0.0
C3182 C 0.96989 0.64115 0.46535 0.0
C3183 C 0.95888 0.63167 0.45603 0.0
C3184 C 0.95025 0.61859 0.46226 0.0
C3185 C 0.95248 0.6154 0.47825 0.0
C3186 C 0.96347 0.62482 0.48749 0.0
H3187 H 0.01011 0.64707 0.46574 0.0
H3188 H 0.99223 0.63491 0.46503 0.0
H3189 H -0.00161 0.65195 0.45804 0.0
H3190 H 0.9766 0.65107 0.46021 0.0
H3191 H 0.95742 0.63443 0.44375 0.0
H3192 H 0.60376 0.93648 0.9841 0.0
H3193 H 0.61583 0.95567 0.00265 0.0
H3194 H 0.63282 0.98249 0.96104 0.0
H3195 H 0.62143 0.96323 0.9423 0.0
H3196 H 0.65088 0.98964 0.98717 0.0
H3197 H 0.60066 0.98103 0.00781 0.0
H3198 H 0.6032 0.96687 0.01098 0.0
H3199 H 0.60256 0.97232 0.99038 0.0
C3200 C 0.61037 0.94637 0.97883 0.0
C3201 C 0.61146 0.94832 0.96165 0.0
C3202 C 0.61714 0.95736 0.98949 0.0
C3203 C 0.62492 0.97051 0.9832 0.0
C3204 C 0.62674 0.97241 0.96613 0.0
H3205 H 0.6393 0.0452 0.02489 0.0
H3206 H 0.63282 0.02474 0.00884 0.0
C3207 C 0.62011 0.96141 0.95544 0.0
C3208 C 0.63016 0.98239 0.99425 0.0
H3209 H 0.61987 -0.00116 0.0205 0.0
C3210 C 0.64414 0.99165 0.99455 0.0
C3211 C 0.62128 0.98504 0.00365 0.0
C3212 C 0.60608 0.97587 0.00312 0.0
C3213 C 0.64948 0.00359 0.00391 0.0
C3214 C 0.64059 0.00615 0.0134 0.0
C3215 C 0.62665 0.99678 0.01327 0.0
C3216 C 0.64528 0.01887 0.02273 0.0
C3217 C 0.66448 0.01358 0.00313 0.0
C3218 C 0.65446 0.02234 0.03583 0.0
C3219 C 0.65821 0.03408 0.04502 0.0
C3220 C 0.65267 0.04237 0.04136 0.0
C3221 C 0.64356 0.03888 0.02815 0.0
C3222 C 0.63991 0.02725 0.01893 0.0
H3223 H 0.66938 0.01155 0.99252 0.0
H3224 H 0.66641 0.02412 0.00215 0.0
H3225 H 0.66937 0.01281 0.01458 0.0
H3226 H 0.6585 0.01586 0.03916 0.0
H3227 H 0.66517 0.03649 0.05523 0.0
H3228 H 0.64958 0.62097 0.44187 0.0
H3229 H 0.64411 0.63365 0.46164 0.0
H3230 H 0.67216 0.63261 0.49647 0.0
H3231 H 0.67733 0.61949 0.47695 0.0
H3232 H 0.64719 0.62274 0.50923 0.0
H3233 H 0.66246 0.67192 0.47954 0.0
H3234 H 0.65244 0.65807 0.46592 0.0
H3235 H 0.66871 0.66095 0.47275 0.0
C3236 C 0.65472 0.6236 0.45365 0.0
C3237 C 0.6638 0.61914 0.4579 0.0
C3238 C 0.65174 0.63103 0.46485 0.0
C3239 C 0.65787 0.63424 0.48044 0.0
C3240 C 0.66742 0.63035 0.48443 0.0
H3241 H 0.62856 0.67256 0.55138 0.0
H3242 H 0.64455 0.66853 0.53553 0.0
C3243 C 0.6704 0.6229 0.47323 0.0
C3244 C 0.65282 0.63985 0.49323 0.0
H3245 H 0.64442 0.66431 0.49989 0.0
C3246 C 0.64687 0.632 0.50737 0.0
C3247 C 0.65253 0.652 0.49091 0.0
C3248 C 0.65952 0.66129 0.47653 0.0
C3249 C 0.63981 0.63548 0.51863 0.0
C3250 C 0.63852 0.64698 0.51553 0.0
C3251 C 0.64529 0.65538 0.50207 0.0
C3252 C 0.62908 0.64958 0.52516 0.0
C3253 C 0.63334 0.62654 0.53345 0.0
C3254 C 0.61514 0.64035 0.52429 0.0
C3255 C 0.60601 0.64265 0.53314 0.0
C3256 C 0.61065 0.65425 0.54306 0.0
C3257 C 0.62466 0.66357 0.54378 0.0
C3258 C 0.63381 0.66128 0.53481 0.0
H3259 H 0.63838 0.62063 0.53658 0.0
H3260 H 0.63375 0.63263 0.54433 0.0
H3261 H 0.62254 0.61926 0.53069 0.0
H3262 H 0.61131 0.6314 0.51661 0.0
H3263 H 0.59529 0.63544 0.53197 0.0
H3264 H 0.96675 0.62475 0.05656 0.0
H3265 H 0.98503 0.63851 0.03744 0.0
H3266 H 0.9561 0.6273 0.99788 0.0
H3267 H 0.93781 0.61293 0.01674 0.0
H3268 H 0.97579 0.62235 0.99025 0.0
H3269 H -0.00087 0.6744 0.01486 0.0
H3270 H 0.99768 0.66269 0.03055 0.0
H3271 H 0.98259 0.66114 0.02131 0.0
C3272 C 0.96425 0.62528 0.04382 0.0
C3273 C 0.95082 0.61762 0.03816 0.0
C3274 C 0.97469 0.63336 0.03295 0.0
C3275 C 0.97191 0.6341 0.01627 0.0
C3276 C 0.95845 0.62697 0.01074 0.0
H3277 H 0.03204 0.66193 0.93623 0.0
H3278 H 0.01137 0.65703 0.95118 0.0
C3279 C 0.948 0.61881 0.02157 0.0
C3280 C 0.98319 0.64074 0.00432 0.0
H3281 H 0.01363 0.66941 0.9978 0.0
C3282 C 0.98391 0.63275 0.99165 0.0
C3283 C 0.99377 0.6543 0.00617 0.0
C3284 C 0.99318 0.66365 0.01886 0.0
C3285 C 0.99531 0.63766 0.98143 0.0
C3286 C 0.0062 0.65096 0.98387 0.0
C3287 C 0.00525 0.6592 0.99602 0.0
C3288 C 0.01915 0.65588 0.97505 0.0
C3289 C 0.99597 0.62833 0.96873 0.0
C3290 C 0.03044 0.65728 0.98367 0.0
C3291 C 0.04221 0.66008 0.97521 0.0
C3292 C 0.04289 0.66158 0.958 0.0
C3293 C 0.0318 0.66086 0.9495 0.0
C3294 C 0.01999 0.65801 0.95798 0.0
H3295 H 0.98748 0.61774 0.96998 0.0
H3296 H 0.9955 0.63199 0.95622 0.0
H3297 H 0.00568 0.62832 0.96977 0.0
H3298 H 0.02995 0.65568 0.99686 0.0
H3299 H 0.05069 0.66081 0.9821 0.0
H3300 H 0.36035 0.96406 0.54331 0.0
H3301 H 0.36441 0.98355 0.52673 0.0
H3302 H 0.32146 0.96902 0.52515 0.0
H3303 H 0.31727 0.94936 0.54186 0.0
H3304 H 0.33323 0.97614 0.49477 0.0
H3305 H 0.36295 0.01724 0.53901 0.0
H3306 H 0.36979 0.00615 0.53715 0.0
H3307 H 0.35295 -0.00026 0.54525 0.0
C3308 C 0.35177 0.96514 0.53975 0.0
C3309 C 0.3385 0.95523 0.544 0.0
C3310 C 0.35411 0.9763 0.53028 0.0
C3311 C 0.34326 0.97787 0.52501 0.0
C3312 C 0.32997 0.96804 0.52923 0.0
H3313 H 0.3728 0.05437 0.47214 0.0
H3314 H 0.35819 0.0357 0.49046 0.0
C3315 C 0.32761 0.95681 0.5387 0.0
C3316 C 0.34592 0.98934 0.51412 0.0
H3317 H 0.3669 0.02339 0.5101 0.0
C3318 C 0.34036 0.98652 0.49821 0.0
C3319 C 0.35494 0.00291 0.51874 0.0
C3320 C 0.36037 0.0067 0.53604 0.0
C3321 C 0.34446 0.99681 0.48638 0.0
C3322 C 0.35459 0.01015 0.49052 0.0
C3323 C 0.3593 0.01312 0.50681 0.0
C3324 C 0.36152 0.02085 0.47793 0.0
C3325 C 0.33813 0.99321 0.46948 0.0
C3326 C 0.36807 0.01866 0.46464 0.0
C3327 C 0.37627 0.02925 0.45403 0.0
C3328 C 0.37828 0.04232 0.45665 0.0
C3329 C 0.37135 0.04439 0.46964 0.0
C3330 C 0.36305 0.03375 0.48019 0.0
H3331 H 0.32756 0.98461 0.47012 0.0
H3332 H 0.33808 0.00195 0.46353 0.0
H3333 H 0.34399 0.98999 0.46162 0.0
H3334 H 0.36733 0.00889 0.46287 0.0
H3335 H 0.38133 0.02727 0.44402 0.0
H3336 H 0.3904 0.33772 0.01436 0.0
H3337 H 0.37451 0.34219 -0.00071 0.0
H3338 H 0.3504 0.33429 0.04322 0.0
H3339 H 0.36657 0.33031 0.0586 0.0
H3340 H 0.34626 0.32708 0.99354 0.0
H3341 H 0.36119 0.37335 0.03119 0.0
H3342 H 0.37063 0.36453 0.0316 0.0
H3343 H 0.35473 0.35767 0.04225 0.0
C3344 C 0.38172 0.33694 0.02083 0.0
C3345 C 0.37987 0.33389 0.03774 0.0
C3346 C 0.37258 0.33935 0.01216 0.0
C3347 C 0.36141 0.33876 0.02022 0.0
C3348 C 0.35909 0.33499 0.03686 0.0
H3349 H 0.318 0.37706 0.97849 0.0
H3350 H 0.32173 0.36167 0.99589 0.0
C3351 C 0.36827 0.33261 0.04558 0.0
C3352 C 0.35295 0.34318 0.01136 0.0
H3353 H 0.34674 0.36945 0.00889 0.0
C3354 C 0.34616 0.33623 0.99702 0.0
C3355 C 0.35283 0.35509 0.01598 0.0
C3356 C 0.36029 0.36319 0.03102 0.0
C3357 C 0.33969 0.34118 0.98679 0.0
C3358 C 0.34023 0.35348 0.99095 0.0
C3359 C 0.34634 0.36 0.00577 0.0
C3360 C 0.33609 0.36071 0.97929 0.0
C3361 C 0.33263 0.33339 0.97145 0.0
C3362 C 0.34279 0.3651 0.96413 0.0
C3363 C 0.34068 0.37386 0.95419 0.0
C3364 C 0.33189 0.37846 0.9593 0.0
C3365 C 0.32473 0.37359 0.97416 0.0
C3366 C 0.32688 0.36484 0.98413 0.0
H3367 H 0.32909 0.32242 0.9729 0.0
H3368 H 0.32381 0.33462 0.96833 0.0
H3369 H 0.33986 0.33722 0.96099 0.0
H3370 H 0.35016 0.3623 0.96032 0.0
H3371 H 0.34624 0.37737 0.94273 0.0
H3372 H 0.03878 0.36623 0.55247 0.0
H3373 H 0.01912 0.35085 0.53564 0.0
H3374 H 0.03239 0.38113 0.49743 0.0
H3375 H 0.05202 0.39644 0.51405 0.0
H3376 H -0.00028 0.35803 0.52534 0.0
H3377 H 0.02201 0.34587 0.47199 0.0
H3378 H 0.03081 0.35194 0.49138 0.0
H3379 H 0.03051 0.36363 0.47675 0.0
C3380 C 0.03762 0.36946 0.54032 0.0
C3381 C 0.04684 0.38253 0.53456 0.0
C3382 C 0.02642 0.3607 0.53077 0.0
C3383 C 0.02444 0.36481 0.51523 0.0
C3384 C 0.03389 0.37768 0.50925 0.0
H3385 H 0.96782 0.35331 0.44254 0.0
H3386 H 0.98738 0.35808 0.45951 0.0
C3387 C 0.04499 0.38646 0.51883 0.0
C3388 C 0.01177 0.35647 0.50599 0.0
H3389 H -9e-05 0.34333 0.46787 0.0
C3390 C -0.00036 0.3545 0.5129 0.0
C3391 C 0.0118 0.35195 0.4898 0.0
C3392 C 0.02446 0.35333 0.48208 0.0
C3393 C 0.98769 0.34901 0.50361 0.0
C3394 C 0.98786 0.34511 0.48711 0.0
C3395 C -0.00017 0.34637 0.48051 0.0
C3396 C 0.97618 0.34115 0.47601 0.0
C3397 C 0.97525 0.34832 0.5112 0.0
C3398 C 0.96349 0.32984 0.47942 0.0
C3399 C 0.95221 0.32722 0.4699 0.0
C3400 C 0.95351 0.33581 0.45672 0.0
C3401 C 0.96642 0.34669 0.45283 0.0
C3402 C 0.97763 0.34935 0.4624 0.0
H3403 H 0.97762 0.35419 0.52285 0.0
H3404 H 0.9705 0.35225 0.50253 0.0
H3405 H 0.96773 0.33761 0.51401 0.0
H3406 H 0.96222 0.32325 0.4897 0.0
H3407 H 0.94242 0.31878 0.47327 0.0
H3408 H 0.51162 0.12638 0.06059 0.0
H3409 H 0.5336 0.12747 0.05961 0.0
H3410 H 0.51433 0.08499 0.07171 0.0
H3411 H 0.4924 0.08391 0.07334 0.0
H3412 H 0.53631 0.10071 0.09115 0.0
H3413 H 0.54946 0.11322 0.02526 0.0
H3414 H 0.5452 0.12451 0.03563 0.0
H3415 H 0.53252 0.10698 0.03309 0.0
C3416 C 0.51206 0.11726 0.06302 0.0
C3417 C 0.50026 0.10506 0.06707 0.0
C3418 C 0.5246 0.11787 0.06225 0.0
C3419 C 0.52556 0.10627 0.06536 0.0
C3420 C 0.51378 0.09403 0.06914 0.0
H3421 H 0.59577 0.09636 0.0527 0.0
H3422 H 0.57389 0.09537 0.05015 0.0
C3423 C 0.50125 0.09341 0.06995 0.0
C3424 C 0.53893 0.10708 0.0658 0.0
H3425 H 0.56712 0.11526 0.04288 0.0
C3426 C 0.54303 0.10382 0.08058 0.0
C3427 C 0.5476 0.11103 0.05194 0.0
C3428 C 0.54345 0.11402 0.03553 0.0
C3429 C 0.55565 0.10459 0.08195 0.0
C3430 C 0.56452 0.10901 0.06827 0.0
C3431 C 0.56035 0.11204 0.0534 0.0
C3432 C 0.57808 0.11028 0.06914 0.0
C3433 C 0.55929 0.10048 0.09797 0.0
C3434 C 0.58779 0.11924 0.08037 0.0
C3435 C 0.60028 0.11982 0.08186 0.0
C3436 C 0.60332 0.11154 0.07202 0.0
C3437 C 0.59376 0.10293 0.06036 0.0
C3438 C 0.58125 0.10232 0.05893 0.0
H3439 H 0.55017 0.09409 0.10559 0.0
H3440 H 0.5647 0.09479 0.09573 0.0
H3441 H 0.56607 0.1097 0.10518 0.0
H3442 H 0.58565 0.12569 0.0881 0.0
H3443 H 0.60754 0.12673 0.09074 0.0
H3444 H 0.47722 0.60481 0.59233 0.0
H3445 H 0.45581 0.58347 0.58966 0.0
H3446 H 0.47253 0.57152 0.54971 0.0
H3447 H 0.49413 0.59268 0.55261 0.0
H3448 H 0.4383 0.57221 0.56206 0.0
H3449 H 0.45948 0.54008 0.58292 0.0
H3450 H 0.46831 0.55821 0.58583 0.0
H3451 H 0.46815 0.55121 0.56595 0.0
C3452 C 0.47637 0.59761 0.58304 0.0
C3453 C 0.48741 0.60037 0.57279 0.0
C3454 C 0.46411 0.58548 0.58145 0.0
C3455 C 0.46268 0.57587 0.56965 0.0
C3456 C 0.47352 0.57874 0.55906 0.0
H3457 H 0.39617 0.49347 0.55354 0.0
H3458 H 0.41704 0.51532 0.5505 0.0
C3459 C 0.4858 0.59089 0.56064 0.0
C3460 C 0.4499 0.56274 0.56872 0.0
H3461 H 0.43652 0.52879 0.57494 0.0
C3462 C 0.43789 0.5627 0.56482 0.0
C3463 C 0.44945 0.55038 0.5723 0.0
C3464 C 0.462 0.54989 0.57712 0.0
C3465 C 0.42539 0.55059 0.56445 0.0
C3466 C 0.4249 0.53827 0.56836 0.0
C3467 C 0.43695 0.53828 0.57193 0.0
C3468 C 0.41195 0.52531 0.56953 0.0
C3469 C 0.41282 0.55108 0.55979 0.0
C3470 C 0.40224 0.52371 0.58129 0.0
C3471 C 0.39031 0.51127 0.58302 0.0
C3472 C 0.38791 0.50019 0.57306 0.0
C3473 C 0.39764 0.50186 0.56124 0.0
C3474 C 0.40959 0.5143 0.55954 0.0
H3475 H 0.41534 0.56041 0.55273 0.0
H3476 H 0.40583 0.54211 0.55232 0.0
H3477 H 0.40742 0.55108 0.57116 0.0
H3478 H 0.40399 0.53201 0.58934 0.0
H3479 H 0.38296 0.51034 0.59215 0.0
H3480 H 0.88976 0.39699 0.05059 0.0
H3481 H 0.88858 0.41787 0.04983 0.0
H3482 H 0.88008 0.41424 0.10194 0.0
H3483 H 0.88101 0.39326 0.10271 0.0
H3484 H 0.86403 0.42129 0.08517 0.0
H3485 H 0.91773 0.45425 0.0667 0.0
H3486 H 0.90813 0.44055 0.0527 0.0
H3487 H 0.91113 0.43698 0.07336 0.0
C3488 C 0.88768 0.40069 0.06187 0.0
C3489 C 0.88554 0.39356 0.07672 0.0
C3490 C 0.88704 0.41261 0.06143 0.0
C3491 C 0.88449 0.41773 0.07589 0.0
C3492 C 0.88209 0.41048 0.09065 0.0
H3493 H 0.90289 0.49928 0.09591 0.0
H3494 H 0.90175 0.47738 0.09416 0.0
C3495 C 0.88259 0.39849 0.09107 0.0
C3496 C 0.88441 0.43069 0.07576 0.0
H3497 H 0.90409 0.46449 0.06774 0.0
C3498 C 0.87277 0.43074 0.08135 0.0
C3499 C 0.8959 0.44303 0.07096 0.0
C3500 C 0.90898 0.44378 0.06574 0.0
C3501 C 0.87233 0.44281 0.08234 0.0
C3502 C 0.88372 0.4551 0.07721 0.0
C3503 C 0.89533 0.45503 0.07154 0.0
C3504 C 0.8841 0.46826 0.07834 0.0
C3505 C 0.85983 0.44232 0.08938 0.0
C3506 C 0.87461 0.47045 0.06994 0.0
C3507 C 0.87508 0.48292 0.07116 0.0
C3508 C 0.88517 0.49349 0.08064 0.0
C3509 C 0.8948 0.4913 0.08879 0.0
C3510 C 0.89425 0.47881 0.08767 0.0
H3511 H 0.85365 0.43296 0.09668 0.0
H3512 H 0.86256 0.45123 0.09738 0.0
H3513 H 0.85344 0.44243 0.07915 0.0
H3514 H 0.86686 0.46254 0.06238 0.0
H3515 H 0.86745 0.48421 0.0648 0.0
H3516 H 0.4016 0.89581 0.59987 0.0
H3517 H 0.42271 0.89534 0.59683 0.0
H3518 H 0.41076 0.87879 0.54796 0.0
H3519 H 0.38946 0.87905 0.55098 0.0
H3520 H 0.42068 0.86512 0.56946 0.0
H3521 H 0.45515 0.92082 0.56645 0.0
H3522 H 0.44338 0.91514 0.58334 0.0
H3523 H 0.43716 0.91291 0.56259 0.0
C3524 C 0.40342 0.892 0.58851 0.0
C3525 C 0.39388 0.88746 0.57566 0.0
C3526 C 0.41553 0.89186 0.58674 0.0
C3527 C 0.41832 0.88719 0.57211 0.0
C3528 C 0.40879 0.88252 0.5593 0.0
H3529 H 0.49767 0.89641 0.55061 0.0
H3530 H 0.47587 0.89565 0.54793 0.0
C3531 C 0.39669 0.88274 0.56101 0.0
C3532 C 0.43109 0.88692 0.57043 0.0
H3533 H 0.46547 0.90731 0.57056 0.0
C3534 C 0.43048 0.87433 0.56954 0.0
C3535 C 0.44382 0.89897 0.57034 0.0
C3536 C 0.44499 0.91275 0.57058 0.0
C3537 C 0.44234 0.87347 0.5692 0.0
C3538 C 0.45507 0.88551 0.56991 0.0
C3539 C 0.45567 0.8981 0.57015 0.0
C3540 C 0.46789 0.88526 0.57105 0.0
C3541 C 0.44117 0.85971 0.56819 0.0
C3542 C 0.47059 0.87971 0.58497 0.0
C3543 C 0.483 0.88013 0.58655 0.0
C3544 C 0.49294 0.88614 0.57422 0.0
C3545 C 0.49015 0.89158 0.56021 0.0
C3546 C 0.47775 0.89121 0.55869 0.0
H3547 H 0.4311 0.85191 0.56348 0.0
H3548 H 0.44916 0.85999 0.56008 0.0
H3549 H 0.44249 0.85658 0.58068 0.0
H3550 H 0.46318 0.87526 0.59476 0.0
H3551 H 0.48482 0.87577 0.59741 0.0
H3552 H 0.61113 0.48631 0.06037 0.0
H3553 H 0.58947 0.46502 0.05881 0.0
H3554 H 0.5699 0.48352 0.08485 0.0
H3555 H 0.59141 0.5049 0.08614 0.0
H3556 H 0.57331 0.44986 0.08603 0.0
H3557 H 0.54545 0.46604 0.0443 0.0
H3558 H 0.56368 0.47538 0.04629 0.0
H3559 H 0.55323 0.477 0.06167 0.0
C3560 C 0.60216 0.48589 0.06553 0.0
C3561 C 0.60295 0.49728 0.07334 0.0
C3562 C 0.58984 0.47372 0.06471 0.0
C3563 C 0.57809 0.47278 0.07153 0.0
C3564 C 0.57882 0.48412 0.07927 0.0
H3565 H 0.49524 0.41072 0.08771 0.0
H3566 H 0.51714 0.43162 0.08588 0.0
C3567 C 0.59114 0.49628 0.08015 0.0
C3568 C 0.56515 0.45976 0.07122 0.0
H3569 H 0.5324 0.44488 0.05791 0.0
C3570 C 0.56438 0.4487 0.07976 0.0
C3571 C 0.55356 0.45836 0.06306 0.0
C3572 C 0.554 0.46978 0.05318 0.0
C3573 C 0.55216 0.43634 0.0808 0.0
C3574 C 0.54052 0.43497 0.07279 0.0
C3575 C 0.54135 0.44599 0.06405 0.0
C3576 C 0.52728 0.42229 0.07366 0.0
C3577 C 0.55172 0.425 0.09089 0.0
C3578 C 0.52571 0.41016 0.0672 0.0
C3579 C 0.51324 0.39818 0.06836 0.0
C3580 C 0.5021 0.39813 0.0759 0.0
C3581 C 0.50367 0.41037 0.08207 0.0
C3582 C 0.51614 0.42233 0.08093 0.0
H3583 H 0.5605 0.42873 0.09941 0.0
H3584 H 0.54223 0.41976 0.09821 0.0
H3585 H 0.55202 0.41746 0.08251 0.0
H3586 H 0.53413 0.40997 0.06129 0.0
H3587 H 0.51239 0.38891 0.06359 0.0
H3588 H 0.11821 0.51064 0.55523 0.0
H3589 H 0.11899 0.53248 0.55327 0.0
H3590 H 0.08996 0.52066 0.59275 0.0
H3591 H 0.08881 0.49871 0.59455 0.0
H3592 H 0.09537 0.53744 0.54912 0.0
H3593 H 0.12474 0.55748 0.60708 0.0
H3594 H 0.12436 0.54368 0.59566 0.0
H3595 H 0.11018 0.54074 0.60823 0.0
C3596 C 0.11184 0.5126 0.56334 0.0
C3597 C 0.10352 0.50296 0.57514 0.0
C3598 C 0.11236 0.5251 0.56225 0.0
C3599 C 0.10466 0.52818 0.57301 0.0
C3600 C 0.09612 0.5185 0.58451 0.0
H3601 H 0.09315 0.59492 0.59699 0.0
H3602 H 0.09367 0.57377 0.59525 0.0
C3603 C 0.09553 0.506 0.58556 0.0
C3604 C 0.10562 0.54157 0.57246 0.0
H3605 H 0.11584 0.5703 0.59503 0.0
C3606 C 0.09994 0.54472 0.55905 0.0
C3607 C 0.11159 0.55095 0.58547 0.0
C3608 C 0.11817 0.54815 0.5999 0.0
C3609 C 0.09963 0.55688 0.5586 0.0
C3610 C 0.10543 0.56619 0.57177 0.0
C3611 C 0.11137 0.56313 0.58499 0.0
C3612 C 0.10501 0.57896 0.57244 0.0
C3613 C 0.09267 0.55941 0.54437 0.0
C3614 C 0.11131 0.58893 0.56025 0.0
C3615 C 0.111 0.60102 0.56121 0.0
C3616 C 0.10455 0.60341 0.57449 0.0
C3617 C 0.09834 0.59343 0.58672 0.0
C3618 C 0.09857 0.58133 0.5857 0.0
H3619 H 0.08593 0.54995 0.53752 0.0
H3620 H 0.08657 0.56394 0.54871 0.0
H3621 H 0.10044 0.56662 0.53566 0.0
H3622 H 0.1166 0.58743 0.55012 0.0
H3623 H 0.11604 0.60861 0.55173 0.0
H3624 H 0.90381 0.49797 0.40186 0.0
H3625 H 0.903 0.47618 0.40444 0.0
H3626 H 0.88028 0.46811 0.44956 0.0
H3627 H 0.88089 0.48984 0.44698 0.0
H3628 H 0.91243 0.46691 0.43309 0.0
H3629 H 0.85751 0.43435 0.41882 0.0
H3630 H 0.86696 0.45203 0.41313 0.0
H3631 H 0.86212 0.44733 0.43417 0.0
C3632 C 0.89855 0.49151 0.41227 0.0
C3633 C 0.89236 0.49558 0.42418 0.0
C3634 C 0.89817 0.47913 0.41376 0.0
C3635 C 0.89149 0.47054 0.4271 0.0
C3636 C 0.88538 0.47458 0.4391 0.0
H3637 H 0.87576 0.38818 0.44468 0.0
H3638 H 0.87663 0.41 0.44757 0.0
C3639 C 0.88583 0.48702 0.43767 0.0
C3640 C 0.891 0.45738 0.42841 0.0
H3641 H 0.86981 0.42329 0.42458 0.0
C3642 C 0.90312 0.45735 0.43131 0.0
C3643 C 0.8788 0.44498 0.42621 0.0
C3644 C 0.86558 0.44456 0.42281 0.0
C3645 C 0.90338 0.44519 0.43192 0.0
C3646 C 0.89127 0.43279 0.42914 0.0
C3647 C 0.87909 0.43282 0.42667 0.0
C3648 C 0.89113 0.41977 0.4279 0.0
C3649 C 0.91663 0.44574 0.43561 0.0
C3650 C 0.89891 0.41802 0.4158 0.0
C3651 C 0.89853 0.40564 0.41421 0.0
C3652 C 0.89023 0.3947 0.42457 0.0
C3653 C 0.8824 0.39646 0.43666 0.0
C3654 C 0.88282 0.40889 0.43826 0.0
H3655 H 0.92367 0.45511 0.44244 0.0
H3656 H 0.91501 0.43683 0.44296 0.0
H3657 H 0.9216 0.44576 0.42385 0.0
H3658 H 0.90518 0.42619 0.40744 0.0
H3659 H 0.9048 0.40468 0.4049 0.0
H3660 H 0.48407 0.8798 0.90131 0.0
H3661 H 0.46307 0.88048 0.90417 0.0
H3662 H 0.47632 0.89983 0.95152 0.0
H3663 H 0.49741 0.89919 0.94877 0.0
H3664 H 0.44322 0.86907 0.92866 0.0
H3665 H 0.46666 0.92516 0.92665 0.0
H3666 H 0.47572 0.91661 0.92064 0.0
H3667 H 0.47333 0.91877 0.94206 0.0
C3668 C 0.48249 0.88412 0.91239 0.0
C3669 C 0.4924 0.88947 0.92481 0.0
C3670 C 0.47051 0.88455 0.91397 0.0
C3671 C 0.46823 0.89036 0.92795 0.0
C3672 C 0.47802 0.89556 0.94048 0.0
H3673 H 0.39957 0.90191 0.95051 0.0
H3674 H 0.42031 0.90053 0.95275 0.0
C3675 C 0.49004 0.89518 0.93889 0.0
C3676 C 0.45553 0.89082 0.92935 0.0
H3677 H 0.44301 0.91247 0.93081 0.0
C3678 C 0.44317 0.87855 0.92918 0.0
C3679 C 0.45551 0.90322 0.93009 0.0
C3680 C 0.46849 0.91671 0.92974 0.0
C3681 C 0.43076 0.87834 0.9296 0.0
C3682 C 0.43075 0.89073 0.92996 0.0
C3683 C 0.44309 0.903 0.93054 0.0
C3684 C 0.41804 0.89121 0.92888 0.0
C3685 C 0.41776 0.86487 0.92966 0.0
C3686 C 0.41002 0.88653 0.91465 0.0
C3687 C 0.39821 0.8873 0.91334 0.0
C3688 C 0.39424 0.8928 0.92622 0.0
C3689 C 0.4023 0.89749 0.94047 0.0
C3690 C 0.41416 0.89676 0.94174 0.0
H3691 H 0.41945 0.85654 0.9338 0.0
H3692 H 0.41008 0.86516 0.93778 0.0
H3693 H 0.41359 0.86249 0.91697 0.0
H3694 H 0.41296 0.8824 0.90449 0.0
H3695 H 0.39214 0.88349 0.90228 0.0
H3696 H 0.49964 0.40473 0.4009 0.0
H3697 H 0.52093 0.42629 0.4026 0.0
H3698 H 0.53441 0.41041 0.44188 0.0
H3699 H 0.51324 0.38867 0.44003 0.0
H3700 H 0.53185 0.44356 0.43102 0.0
H3701 H 0.56564 0.42509 0.40756 0.0
H3702 H 0.54749 0.41575 0.40466 0.0
H3703 H 0.55463 0.41568 0.42434 0.0
C3704 C 0.50719 0.40577 0.40978 0.0
C3705 C 0.5048 0.39497 0.42026 0.0
C3706 C 0.5193 0.41811 0.4108 0.0
C3707 C 0.52927 0.41986 0.42223 0.0
C3708 C 0.5269 0.40918 0.43283 0.0
H3709 H 0.6105 0.48858 0.43814 0.0
H3710 H 0.58939 0.46686 0.44053 0.0
C3711 C 0.51476 0.39682 0.43185 0.0
C3712 C 0.54208 0.43297 0.42312 0.0
H3713 H 0.57607 0.44795 0.41593 0.0
C3714 C 0.54154 0.44454 0.42776 0.0
C3715 C 0.55467 0.43415 0.41894 0.0
C3716 C 0.55572 0.42205 0.41347 0.0
C3717 C 0.5533 0.45733 0.42831 0.0
C3718 C 0.56585 0.45857 0.42375 0.0
C3719 C 0.56642 0.44695 0.41941 0.0
C3720 C 0.57843 0.47191 0.4228 0.0
C3721 C 0.55218 0.46936 0.43391 0.0
C3722 C 0.57927 0.48188 0.41196 0.0
C3723 C 0.59126 0.49432 0.41066 0.0
C3724 C 0.60269 0.49698 0.42007 0.0
C3725 C 0.60182 0.48693 0.4309 0.0
C3726 C 0.58981 0.47449 0.4322 0.0
H3727 H 0.54294 0.46619 0.44147 0.0
H3728 H 0.56119 0.47651 0.44122 0.0
H3729 H 0.55152 0.47482 0.42296 0.0
H3730 H 0.5707 0.47999 0.40435 0.0
H3731 H 0.59154 0.50187 0.40232 0.0
H3732 H 0.10093 0.50212 0.89728 0.0
H3733 H 0.10182 0.52392 0.89943 0.0
H3734 H 0.11441 0.52738 0.95011 0.0
H3735 H 0.11385 0.50567 0.94801 0.0
H3736 H 0.09244 0.53257 0.94386 0.0
H3737 H 0.1366 0.56188 0.90271 0.0
H3738 H 0.12355 0.54617 0.8942 0.0
H3739 H 0.13289 0.54595 0.91191 0.0
C3740 C 0.10409 0.50759 0.90882 0.0
C3741 C 0.10741 0.50217 0.92244 0.0
C3742 C 0.10456 0.52003 0.91003 0.0
C3743 C 0.10835 0.5273 0.92486 0.0
C3744 C 0.11151 0.52191 0.93854 0.0
H3745 H 0.12523 0.61067 0.9343 0.0
H3746 H 0.12646 0.58986 0.93653 0.0
C3747 C 0.11111 0.50947 0.93734 0.0
C3748 C 0.10865 0.54039 0.92612 0.0
H3749 H 0.12368 0.57229 0.90996 0.0
C3750 C 0.09933 0.5413 0.93657 0.0
C3751 C 0.11777 0.55178 0.91672 0.0
C3752 C 0.12837 0.5515 0.90585 0.0
C3753 C 0.09858 0.55321 0.93743 0.0
C3754 C 0.1073 0.56439 0.92748 0.0
C3755 C 0.11694 0.56364 0.91747 0.0
C3756 C 0.10632 0.57683 0.92687 0.0
C3757 C 0.08846 0.55373 0.94895 0.0
C3758 C 0.09461 0.57636 0.92063 0.0
C3759 C 0.09388 0.58819 0.91934 0.0
C3760 C 0.10486 0.60072 0.92427 0.0
C3761 C 0.11655 0.60114 0.93061 0.0
C3762 C 0.1173 0.5893 0.93181 0.0
H3763 H 0.08505 0.54579 0.95863 0.0
H3764 H 0.09284 0.5638 0.95497 0.0
H3765 H 0.07944 0.55201 0.9418 0.0
H3766 H 0.08611 0.56686 0.91651 0.0
H3767 H 0.08471 0.58754 0.91452 0.0
H3768 H 0.59333 0.0923 0.43805 0.0
H3769 H 0.5721 0.09272 0.43981 0.0
H3770 H 0.58905 0.12829 0.40903 0.0
H3771 H 0.61042 0.12817 0.40748 0.0
H3772 H 0.56787 0.11551 0.45039 0.0
H3773 H 0.55338 0.0988 0.38551 0.0
H3774 H 0.56579 0.0964 0.39652 0.0
H3775 H 0.57022 0.11283 0.38869 0.0
C3776 C 0.59263 0.10033 0.43185 0.0
C3777 C 0.60356 0.11016 0.42254 0.0
C3778 C 0.58048 0.10052 0.43282 0.0
C3779 C 0.57902 0.11045 0.42441 0.0
C3780 C 0.58996 0.12044 0.41541 0.0
H3781 H 0.51215 0.12382 0.40487 0.0
H3782 H 0.5342 0.12515 0.40669 0.0
C3783 C 0.60213 0.1203 0.41448 0.0
C3784 C 0.56594 0.1102 0.42471 0.0
H3785 H 0.53934 0.10479 0.40033 0.0
C3786 C 0.56158 0.11314 0.43949 0.0
C3787 C 0.55784 0.10711 0.41044 0.0
C3788 C 0.56193 0.1035 0.39439 0.0
C3789 C 0.54937 0.11336 0.44029 0.0
C3790 C 0.54124 0.11024 0.42599 0.0
C3791 C 0.54561 0.10722 0.41125 0.0
C3792 C 0.52815 0.11006 0.42591 0.0
C3793 C 0.54549 0.11725 0.45628 0.0
C3794 C 0.51745 0.10116 0.43617 0.0
C3795 C 0.50484 0.10042 0.43519 0.0
C3796 C 0.50269 0.10841 0.42376 0.0
C3797 C 0.51348 0.11742 0.41366 0.0
C3798 C 0.52608 0.11823 0.41473 0.0
H3799 H 0.5544 0.12293 0.46447 0.0
H3800 H 0.54073 0.12356 0.45405 0.0
H3801 H 0.53806 0.10793 0.46286 0.0
H3802 H 0.51873 0.09453 0.44461 0.0
H3803 H 0.49666 0.09327 0.44298 0.0
H3804 H 0.5014 0.59337 0.90473 0.0
H3805 H 0.48004 0.57197 0.9075 0.0
H3806 H 0.4675 0.58926 0.94615 0.0
H3807 H 0.48873 0.61083 0.94323 0.0
H3808 H 0.46953 0.55563 0.93682 0.0
H3809 H 0.4357 0.57379 0.9126 0.0
H3810 H 0.45378 0.58287 0.90919 0.0
H3811 H 0.44706 0.58366 0.92889 0.0
C3812 C 0.49404 0.59267 0.9137 0.0
C3813 C 0.49671 0.60381 0.9237 0.0
C3814 C 0.4819 0.58042 0.91534 0.0
C3815 C 0.47218 0.57911 0.9269 0.0
C3816 C 0.47483 0.59015 0.93701 0.0
H3817 H 0.39066 0.51116 0.94455 0.0
H3818 H 0.41195 0.53273 0.94693 0.0
C3819 C 0.48699 0.60241 0.93542 0.0
C3820 C 0.45932 0.56612 0.92843 0.0
H3821 H 0.42526 0.55118 0.92188 0.0
C3822 C 0.45983 0.55464 0.93361 0.0
C3823 C 0.44672 0.56493 0.92433 0.0
C3824 C 0.4457 0.57692 0.91832 0.0
C3825 C 0.44802 0.54192 0.9347 0.0
C3826 C 0.43545 0.54065 0.93017 0.0
C3827 C 0.43492 0.5522 0.92535 0.0
C3828 C 0.42284 0.52733 0.92952 0.0
C3829 C 0.44911 0.53 0.9408 0.0
C3830 C 0.42193 0.5172 0.91891 0.0
C3831 C 0.40985 0.50486 0.91761 0.0
C3832 C 0.39839 0.50247 0.92679 0.0
C3833 C 0.39936 0.51262 0.93749 0.0
C3834 C 0.41147 0.52497 0.93879 0.0
H3835 H 0.45837 0.53331 0.94835 0.0
H3836 H 0.44012 0.52303 0.94826 0.0
H3837 H 0.44971 0.52428 0.93008 0.0
H3838 H 0.4305 0.51891 0.9114 0.0
H3839 H 0.40947 0.49721 0.90937 0.0
loop_
_geom_bond_atom_site_label_1
_geom_bond_atom_site_label_2
_geom_bond_distance
_geom_bond_site_symmetry_2
_ccdc_geom_bond_type
Li0 N17 1.990 . S
Li0 O60 1.956 . S
Li0 O61 1.970 . S
Li0 O62 1.961 . S
Li1 N25 1.990 . S
Li1 O60 1.970 . S
Li1 O61 1.956 . S
Li1 O63 1.961 . S
Li2 N47 1.990 . S
Li2 O60 1.961 . S
Li2 O62 1.956 . S
Li2 O63 1.970 . S
Li3 N53 1.990 . S
Li3 O61 1.961 . S
Li3 O62 1.970 . S
Li3 O63 1.956 . S
C4 C6 1.348 . S
C4 C7 1.356 . S
C4 O60 1.325 . S
N5 C8 1.314 . S
N5 C9 1.279 . S
C6 C4 1.348 . S
C6 C8 1.353 . S
C6 H64 0.929 . S
C7 C4 1.356 . S
C7 C9 1.358 . S
C7 H65 0.930 . S
C8 N5 1.314 . S
C8 C6 1.353 . S
C8 H66 0.930 . S
C9 N5 1.279 . S
C9 C7 1.358 . S
C9 H67 0.930 . S
C10 C13 1.348 . S
C10 C14 1.356 . S
C10 O61 1.325 . S
C11 N12 1.279 . S
C11 C14 1.358 . S
C11 H68 0.930 . S
N12 C11 1.279 . S
N12 C15 1.314 . S
C13 C10 1.348 . S
C13 C15 1.353 . S
C13 H69 0.929 . S
C14 C10 1.356 . S
C14 C11 1.358 . S
C14 H70 0.930 . S
C15 N12 1.314 . S
C15 C13 1.353 . S
C15 H71 0.930 . S
C16 N17 1.314 . S
C16 C21 1.353 . S
C16 H22 0.930 . S
N17 Li0 1.990 . S
N17 C16 1.314 . S
N17 C19 1.279 . S
C18 C19 1.358 . S
C18 C20 1.356 . S
C18 H72 0.930 . S
C19 N17 1.279 . S
C19 C18 1.358 . S
C19 H23 0.930 . S
C20 C18 1.356 . S
C20 C21 1.348 . S
C21 C16 1.353 . S
C21 C20 1.348 . S
C21 H73 0.929 . S
H22 C16 0.930 . S
H23 C19 0.930 . S
C24 N25 1.314 . S
C24 C26 1.353 . S
C24 H30 0.930 . S
N25 Li1 1.990 . S
N25 C24 1.314 . S
N25 C28 1.279 . S
C26 C24 1.353 . S
C26 C29 1.348 . S
C26 H74 0.929 . S
C27 C28 1.358 . S
C27 C29 1.356 . S
C27 H75 0.930 . S
C28 N25 1.279 . S
C28 C27 1.358 . S
C28 H31 0.930 . S
C29 C26 1.348 . S
C29 C27 1.356 . S
H30 C24 0.930 . S
H31 C28 0.930 . S
C32 C34 1.348 . S
C32 C35 1.356 . S
C32 O62 1.325 . S
N33 C36 1.314 . S
N33 C37 1.279 . S
C34 C32 1.348 . S
C34 C36 1.353 . S
C34 H76 0.929 . S
C35 C32 1.356 . S
C35 C37 1.358 . S
C35 H77 0.930 . S
C36 N33 1.314 . S
C36 C34 1.353 . S
C36 H78 0.930 . S
C37 N33 1.279 . S
C37 C35 1.358 . S
C37 H79 0.930 . S
C38 C39 1.348 . S
C38 C40 1.356 . S
C38 O63 1.325 . S
C39 C38 1.348 . S
C39 C41 1.353 . S
C39 H80 0.929 . S
C40 C38 1.356 . S
C40 C42 1.358 . S
C40 H81 0.930 . S
C41 C39 1.353 . S
C41 N43 1.314 . S
C41 H82 0.930 . S
C42 C40 1.358 . S
C42 N43 1.279 . S
C42 H83 0.930 . S
N43 C41 1.314 . S
N43 C42 1.279 . S
C44 C46 1.353 . S
C44 N47 1.314 . S
C44 H50 0.930 . S
C45 N47 1.279 . S
C45 C48 1.358 . S
C45 H51 0.930 . S
C46 C44 1.353 . S
C46 C49 1.348 . S
C46 H84 0.929 . S
N47 Li2 1.990 . S
N47 C44 1.314 . S
N47 C45 1.279 . S
C48 C45 1.358 . S
C48 C49 1.356 . S
C48 H85 0.930 . S
C49 C46 1.348 . S
C49 C48 1.356 . S
H50 C44 0.930 . S
H51 C45 0.930 . S
C52 N53 1.314 . S
C52 C54 1.353 . S
C52 H58 0.930 . S
N53 Li3 1.990 . S
N53 C52 1.314 . S
N53 C56 1.279 . S
C54 C52 1.353 . S
C54 C57 1.348 . S
C54 H86 0.929 . S
C55 C56 1.358 . S
C55 C57 1.356 . S
C55 H87 0.930 . S
C56 N53 1.279 . S
C56 C55 1.358 . S
C56 H59 0.930 . S
C57 C54 1.348 . S
C57 C55 1.356 . S
H58 C52 0.930 . S
H59 C56 0.930 . S
O60 Li0 1.956 . S
O60 Li1 1.970 . S
O60 Li2 1.961 . S
O60 C4 1.325 . S
O61 Li0 1.970 . S
O61 Li1 1.956 . S
O61 Li3 1.961 . S
O61 C10 1.325 . S
O62 Li0 1.961 . S
O62 Li2 1.956 . S
O62 Li3 1.970 . S
O62 C32 1.325 . S
O63 Li1 1.961 . S
O63 Li2 1.970 . S
O63 Li3 1.956 . S
O63 C38 1.325 . S
H64 C6 0.929 . S
H65 C7 0.930 . S
H66 C8 0.930 . S
H67 C9 0.930 . S
H68 C11 0.930 . S
H69 C13 0.929 . S
H70 C14 0.930 . S
H71 C15 0.930 . S
H72 C18 0.930 . S
H73 C21 0.929 . S
H74 C26 0.929 . S
H75 C27 0.930 . S
H76 C34 0.929 . S
H77 C35 0.930 . S
H78 C36 0.930 . S
H79 C37 0.930 . S
H80 C39 0.929 . S
H81 C40 0.930 . S
H82 C41 0.930 . S
H83 C42 0.930 . S
H84 C46 0.929 . S
H85 C48 0.930 . S
H86 C54 0.929 . S
H87 C55 0.930 . S
Li88 N105 1.990 . S
Li88 O148 1.956 . S
Li88 O149 1.970 . S
Li88 O150 1.961 . S
Li89 N113 1.990 . S
Li89 O148 1.970 . S
Li89 O149 1.956 . S
Li89 O151 1.961 . S
Li90 N135 1.990 . S
Li90 O148 1.961 . S
Li90 O150 1.956 . S
Li90 O151 1.970 . S
Li91 N141 1.990 . S
Li91 O149 1.961 . S
Li91 O150 1.970 . S
Li91 O151 1.956 . S
C92 C94 1.348 . S
C92 C95 1.356 . S
C92 O148 1.325 . S
N93 C96 1.314 . S
N93 C97 1.279 . S
C94 C92 1.348 . S
C94 C96 1.353 . S
C94 H152 0.929 . S
C95 C92 1.356 . S
C95 C97 1.358 . S
C95 H153 0.930 . S
C96 N93 1.314 . S
C96 C94 1.353 . S
C96 H154 0.930 . S
C97 N93 1.279 . S
C97 C95 1.358 . S
C97 H155 0.930 . S
C98 C101 1.348 . S
C98 C102 1.356 . S
C98 O149 1.325 . S
C99 N100 1.279 . S
C99 C102 1.358 . S
C99 H156 0.930 . S
N100 C99 1.279 . S
N100 C103 1.314 . S
C101 C98 1.348 . S
C101 C103 1.353 . S
C101 H157 0.929 . S
C102 C98 1.356 . S
C102 C99 1.358 . S
C102 H158 0.930 . S
C103 N100 1.314 . S
C103 C101 1.353 . S
C103 H159 0.930 . S
C104 N105 1.314 . S
C104 C109 1.353 . S
C104 H110 0.930 . S
N105 Li88 1.990 . S
N105 C104 1.314 . S
N105 C107 1.279 . S
C106 C107 1.358 . S
C106 C108 1.356 . S
C106 H160 0.930 . S
C107 N105 1.279 . S
C107 C106 1.358 . S
C107 H111 0.930 . S
C108 C106 1.356 . S
C108 C109 1.348 . S
C109 C104 1.353 . S
C109 C108 1.348 . S
C109 H161 0.929 . S
H110 C104 0.930 . S
H111 C107 0.930 . S
C112 N113 1.314 . S
C112 C114 1.353 . S
C112 H118 0.930 . S
N113 Li89 1.990 . S
N113 C112 1.314 . S
N113 C116 1.279 . S
C114 C112 1.353 . S
C114 C117 1.348 . S
C114 H162 0.929 . S
C115 C116 1.358 . S
C115 C117 1.356 . S
C115 H163 0.930 . S
C116 N113 1.279 . S
C116 C115 1.358 . S
C116 H119 0.930 . S
C117 C114 1.348 . S
C117 C115 1.356 . S
H118 C112 0.930 . S
H119 C116 0.930 . S
C120 C122 1.348 . S
C120 C123 1.356 . S
C120 O150 1.325 . S
N121 C124 1.314 . S
N121 C125 1.279 . S
C122 C120 1.348 . S
C122 C124 1.353 . S
C122 H164 0.929 . S
C123 C120 1.356 . S
C123 C125 1.358 . S
C123 H165 0.930 . S
C124 N121 1.314 . S
C124 C122 1.353 . S
C124 H166 0.930 . S
C125 N121 1.279 . S
C125 C123 1.358 . S
C125 H167 0.930 . S
C126 C127 1.348 . S
C126 C128 1.356 . S
C126 O151 1.325 . S
C127 C126 1.348 . S
C127 C129 1.353 . S
C127 H168 0.929 . S
C128 C126 1.356 . S
C128 C130 1.358 . S
C128 H169 0.930 . S
C129 C127 1.353 . S
C129 N131 1.314 . S
C129 H170 0.930 . S
C130 C128 1.358 . S
C130 N131 1.279 . S
C130 H171 0.930 . S
N131 C129 1.314 . S
N131 C130 1.279 . S
C132 C134 1.353 . S
C132 N135 1.314 . S
C132 H138 0.930 . S
C133 N135 1.279 . S
C133 C136 1.358 . S
C133 H139 0.930 . S
C134 C132 1.353 . S
C134 C137 1.348 . S
C134 H172 0.929 . S
N135 Li90 1.990 . S
N135 C132 1.314 . S
N135 C133 1.279 . S
C136 C133 1.358 . S
C136 C137 1.356 . S
C136 H173 0.930 . S
C137 C134 1.348 . S
C137 C136 1.356 . S
H138 C132 0.930 . S
H139 C133 0.930 . S
C140 N141 1.314 . S
C140 C142 1.353 . S
C140 H146 0.930 . S
N141 Li91 1.990 . S
N141 C140 1.314 . S
N141 C144 1.279 . S
C142 C140 1.353 . S
C142 C145 1.348 . S
C142 H174 0.929 . S
C143 C144 1.358 . S
C143 C145 1.356 . S
C143 H175 0.930 . S
C144 N141 1.279 . S
C144 C143 1.358 . S
C144 H147 0.930 . S
C145 C142 1.348 . S
C145 C143 1.356 . S
H146 C140 0.930 . S
H147 C144 0.930 . S
O148 Li88 1.956 . S
O148 Li89 1.970 . S
O148 Li90 1.961 . S
O148 C92 1.325 . S
O149 Li88 1.970 . S
O149 Li89 1.956 . S
O149 Li91 1.961 . S
O149 C98 1.325 . S
O150 Li88 1.961 . S
O150 Li90 1.956 . S
O150 Li91 1.970 . S
O150 C120 1.325 . S
O151 Li89 1.961 . S
O151 Li90 1.970 . S
O151 Li91 1.956 . S
O151 C126 1.325 . S
H152 C94 0.929 . S
H153 C95 0.930 . S
H154 C96 0.930 . S
H155 C97 0.930 . S
H156 C99 0.930 . S
H157 C101 0.929 . S
H158 C102 0.930 . S
H159 C103 0.930 . S
H160 C106 0.930 . S
H161 C109 0.929 . S
H162 C114 0.929 . S
H163 C115 0.930 . S
H164 C122 0.929 . S
H165 C123 0.930 . S
H166 C124 0.930 . S
H167 C125 0.930 . S
H168 C127 0.929 . S
H169 C128 0.930 . S
H170 C129 0.930 . S
H171 C130 0.930 . S
H172 C134 0.929 . S
H173 C136 0.930 . S
H174 C142 0.929 . S
H175 C143 0.930 . S
Li176 N193 1.990 . S
Li176 O236 1.956 . S
Li176 O237 1.970 . S
Li176 O238 1.961 . S
Li177 N201 1.990 . S
Li177 O236 1.970 . S
Li177 O237 1.956 . S
Li177 O239 1.961 . S
Li178 N223 1.990 . S
Li178 O236 1.961 . S
Li178 O238 1.956 . S
Li178 O239 1.970 . S
Li179 N229 1.990 . S
Li179 O237 1.961 . S
Li179 O238 1.970 . S
Li179 O239 1.956 . S
C180 C182 1.348 . S
C180 C183 1.356 . S
C180 O236 1.325 . S
N181 C184 1.314 . S
N181 C185 1.279 . S
C182 C180 1.348 . S
C182 C184 1.353 . S
C182 H240 0.929 . S
C183 C180 1.356 . S
C183 C185 1.358 . S
C183 H241 0.930 . S
C184 N181 1.314 . S
C184 C182 1.353 . S
C184 H242 0.930 . S
C185 N181 1.279 . S
C185 C183 1.358 . S
C185 H243 0.930 . S
C186 C189 1.348 . S
C186 C190 1.356 . S
C186 O237 1.325 . S
C187 N188 1.279 . S
C187 C190 1.358 . S
C187 H244 0.930 . S
N188 C187 1.279 . S
N188 C191 1.314 . S
C189 C186 1.348 . S
C189 C191 1.353 . S
C189 H245 0.929 . S
C190 C186 1.356 . S
C190 C187 1.358 . S
C190 H246 0.930 . S
C191 N188 1.314 . S
C191 C189 1.353 . S
C191 H247 0.930 . S
C192 N193 1.314 . S
C192 C197 1.353 . S
C192 H198 0.930 . S
N193 Li176 1.990 . S
N193 C192 1.314 . S
N193 C195 1.279 . S
C194 C195 1.358 . S
C194 C196 1.356 . S
C194 H248 0.930 . S
C195 N193 1.279 . S
C195 C194 1.358 . S
C195 H199 0.930 . S
C196 C194 1.356 . S
C196 C197 1.348 . S
C197 C192 1.353 . S
C197 C196 1.348 . S
C197 H249 0.929 . S
H198 C192 0.930 . S
H199 C195 0.930 . S
C200 N201 1.314 . S
C200 C202 1.353 . S
C200 H206 0.930 . S
N201 Li177 1.990 . S
N201 C200 1.314 . S
N201 C204 1.279 . S
C202 C200 1.353 . S
C202 C205 1.348 . S
C202 H250 0.929 . S
C203 C204 1.358 . S
C203 C205 1.356 . S
C203 H251 0.930 . S
C204 N201 1.279 . S
C204 C203 1.358 . S
C204 H207 0.930 . S
C205 C202 1.348 . S
C205 C203 1.356 . S
H206 C200 0.930 . S
H207 C204 0.930 . S
C208 C210 1.348 . S
C208 C211 1.356 . S
C208 O238 1.325 . S
N209 C212 1.314 . S
N209 C213 1.279 . S
C210 C208 1.348 . S
C210 C212 1.353 . S
C210 H252 0.929 . S
C211 C208 1.356 . S
C211 C213 1.358 . S
C211 H253 0.930 . S
C212 N209 1.314 . S
C212 C210 1.353 . S
C212 H254 0.930 . S
C213 N209 1.279 . S
C213 C211 1.358 . S
C213 H255 0.930 . S
C214 C215 1.348 . S
C214 C216 1.356 . S
C214 O239 1.325 . S
C215 C214 1.348 . S
C215 C217 1.353 . S
C215 H256 0.929 . S
C216 C214 1.356 . S
C216 C218 1.358 . S
C216 H257 0.930 . S
C217 C215 1.353 . S
C217 N219 1.314 . S
C217 H258 0.930 . S
C218 C216 1.358 . S
C218 N219 1.279 . S
C218 H259 0.930 . S
N219 C217 1.314 . S
N219 C218 1.279 . S
C220 C222 1.353 . S
C220 N223 1.314 . S
C220 H226 0.930 . S
C221 N223 1.279 . S
C221 C224 1.358 . S
C221 H227 0.930 . S
C222 C220 1.353 . S
C222 C225 1.348 . S
C222 H260 0.929 . S
N223 Li178 1.990 . S
N223 C220 1.314 . S
N223 C221 1.279 . S
C224 C221 1.358 . S
C224 C225 1.356 . S
C224 H261 0.930 . S
C225 C222 1.348 . S
C225 C224 1.356 . S
H226 C220 0.930 . S
H227 C221 0.930 . S
C228 N229 1.314 . S
C228 C230 1.353 . S
C228 H234 0.930 . S
N229 Li179 1.990 . S
N229 C228 1.314 . S
N229 C232 1.279 . S
C230 C228 1.353 . S
C230 C233 1.348 . S
C230 H262 0.929 . S
C231 C232 1.358 . S
C231 C233 1.356 . S
C231 H263 0.930 . S
C232 N229 1.279 . S
C232 C231 1.358 . S
C232 H235 0.930 . S
C233 C230 1.348 . S
C233 C231 1.356 . S
H234 C228 0.930 . S
H235 C232 0.930 . S
O236 Li176 1.956 . S
O236 Li177 1.970 . S
O236 Li178 1.961 . S
O236 C180 1.325 . S
O237 Li176 1.970 . S
O237 Li177 1.956 . S
O237 Li179 1.961 . S
O237 C186 1.325 . S
O238 Li176 1.961 . S
O238 Li178 1.956 . S
O238 Li179 1.970 . S
O238 C208 1.325 . S
O239 Li177 1.961 . S
O239 Li178 1.970 . S
O239 Li179 1.956 . S
O239 C214 1.325 . S
H240 C182 0.929 . S
H241 C183 0.930 . S
H242 C184 0.930 . S
H243 C185 0.930 . S
H244 C187 0.930 . S
H245 C189 0.929 . S
H246 C190 0.930 . S
H247 C191 0.930 . S
H248 C194 0.930 . S
H249 C197 0.929 . S
H250 C202 0.929 . S
H251 C203 0.930 . S
H252 C210 0.929 . S
H253 C211 0.930 . S
H254 C212 0.930 . S
H255 C213 0.930 . S
H256 C215 0.929 . S
H257 C216 0.930 . S
H258 C217 0.930 . S
H259 C218 0.930 . S
H260 C222 0.929 . S
H261 C224 0.930 . S
H262 C230 0.929 . S
H263 C231 0.930 . S
Li264 N281 1.990 . S
Li264 O324 1.956 . S
Li264 O325 1.970 . S
Li264 O326 1.961 . S
Li265 N289 1.990 . S
Li265 O324 1.970 . S
Li265 O325 1.956 . S
Li265 O327 1.961 . S
Li266 N311 1.990 . S
Li266 O324 1.961 . S
Li266 O326 1.956 . S
Li266 O327 1.970 . S
Li267 N317 1.990 . S
Li267 O325 1.961 . S
Li267 O326 1.970 . S
Li267 O327 1.956 . S
C268 C270 1.348 . S
C268 C271 1.356 . S
C268 O324 1.325 . S
N269 C272 1.314 . S
N269 C273 1.279 . S
C270 C268 1.348 . S
C270 C272 1.353 . S
C270 H328 0.929 . S
C271 C268 1.356 . S
C271 C273 1.358 . S
C271 H329 0.930 . S
C272 N269 1.314 . S
C272 C270 1.353 . S
C272 H330 0.930 . S
C273 N269 1.279 . S
C273 C271 1.358 . S
C273 H331 0.930 . S
C274 C277 1.348 . S
C274 C278 1.356 . S
C274 O325 1.325 . S
C275 N276 1.279 . S
C275 C278 1.358 . S
C275 H332 0.930 . S
N276 C275 1.279 . S
N276 C279 1.314 . S
C277 C274 1.348 . S
C277 C279 1.353 . S
C277 H333 0.929 . S
C278 C274 1.356 . S
C278 C275 1.358 . S
C278 H334 0.930 . S
C279 N276 1.314 . S
C279 C277 1.353 . S
C279 H335 0.930 . S
C280 N281 1.314 . S
C280 C285 1.353 . S
C280 H286 0.930 . S
N281 Li264 1.990 . S
N281 C280 1.314 . S
N281 C283 1.279 . S
C282 C283 1.358 . S
C282 C284 1.356 . S
C282 H336 0.930 . S
C283 N281 1.279 . S
C283 C282 1.358 . S
C283 H287 0.930 . S
C284 C282 1.356 . S
C284 C285 1.348 . S
C285 C280 1.353 . S
C285 C284 1.348 . S
C285 H337 0.929 . S
H286 C280 0.930 . S
H287 C283 0.930 . S
C288 N289 1.314 . S
C288 C290 1.353 . S
C288 H294 0.930 . S
N289 Li265 1.990 . S
N289 C288 1.314 . S
N289 C292 1.279 . S
C290 C288 1.353 . S
C290 C293 1.348 . S
C290 H338 0.929 . S
C291 C292 1.358 . S
C291 C293 1.356 . S
C291 H339 0.930 . S
C292 N289 1.279 . S
C292 C291 1.358 . S
C292 H295 0.930 . S
C293 C290 1.348 . S
C293 C291 1.356 . S
H294 C288 0.930 . S
H295 C292 0.930 . S
C296 C298 1.348 . S
C296 C299 1.356 . S
C296 O326 1.325 . S
N297 C300 1.314 . S
N297 C301 1.279 . S
C298 C296 1.348 . S
C298 C300 1.353 . S
C298 H340 0.929 . S
C299 C296 1.356 . S
C299 C301 1.358 . S
C299 H341 0.930 . S
C300 N297 1.314 . S
C300 C298 1.353 . S
C300 H342 0.930 . S
C301 N297 1.279 . S
C301 C299 1.358 . S
C301 H343 0.930 . S
C302 C303 1.348 . S
C302 C304 1.356 . S
C302 O327 1.325 . S
C303 C302 1.348 . S
C303 C305 1.353 . S
C303 H344 0.929 . S
C304 C302 1.356 . S
C304 C306 1.358 . S
C304 H345 0.930 . S
C305 C303 1.353 . S
C305 N307 1.314 . S
C305 H346 0.930 . S
C306 C304 1.358 . S
C306 N307 1.279 . S
C306 H347 0.930 . S
N307 C305 1.314 . S
N307 C306 1.279 . S
C308 C310 1.353 . S
C308 N311 1.314 . S
C308 H314 0.930 . S
C309 N311 1.279 . S
C309 C312 1.358 . S
C309 H315 0.930 . S
C310 C308 1.353 . S
C310 C313 1.348 . S
C310 H348 0.929 . S
N311 Li266 1.990 . S
N311 C308 1.314 . S
N311 C309 1.279 . S
C312 C309 1.358 . S
C312 C313 1.356 . S
C312 H349 0.930 . S
C313 C310 1.348 . S
C313 C312 1.356 . S
H314 C308 0.930 . S
H315 C309 0.930 . S
C316 N317 1.314 . S
C316 C318 1.353 . S
C316 H322 0.930 . S
N317 Li267 1.990 . S
N317 C316 1.314 . S
N317 C320 1.279 . S
C318 C316 1.353 . S
C318 C321 1.348 . S
C318 H350 0.929 . S
C319 C320 1.358 . S
C319 C321 1.356 . S
C319 H351 0.930 . S
C320 N317 1.279 . S
C320 C319 1.358 . S
C320 H323 0.930 . S
C321 C318 1.348 . S
C321 C319 1.356 . S
H322 C316 0.930 . S
H323 C320 0.930 . S
O324 Li264 1.956 . S
O324 Li265 1.970 . S
O324 Li266 1.961 . S
O324 C268 1.325 . S
O325 Li264 1.970 . S
O325 Li265 1.956 . S
O325 Li267 1.961 . S
O325 C274 1.325 . S
O326 Li264 1.961 . S
O326 Li266 1.956 . S
O326 Li267 1.970 . S
O326 C296 1.325 . S
O327 Li265 1.961 . S
O327 Li266 1.970 . S
O327 Li267 1.956 . S
O327 C302 1.325 . S
H328 C270 0.929 . S
H329 C271 0.930 . S
H330 C272 0.930 . S
H331 C273 0.930 . S
H332 C275 0.930 . S
H333 C277 0.929 . S
H334 C278 0.930 . S
H335 C279 0.930 . S
H336 C282 0.930 . S
H337 C285 0.929 . S
H338 C290 0.929 . S
H339 C291 0.930 . S
H340 C298 0.929 . S
H341 C299 0.930 . S
H342 C300 0.930 . S
H343 C301 0.930 . S
H344 C303 0.929 . S
H345 C304 0.930 . S
H346 C305 0.930 . S
H347 C306 0.930 . S
H348 C310 0.929 . S
H349 C312 0.930 . S
H350 C318 0.929 . S
H351 C319 0.930 . S
Li352 N369 1.990 . S
Li352 O412 1.956 . S
Li352 O413 1.970 . S
Li352 O414 1.961 . S
Li353 N377 1.990 . S
Li353 O412 1.970 . S
Li353 O413 1.956 . S
Li353 O415 1.961 . S
Li354 N399 1.990 . S
Li354 O412 1.961 . S
Li354 O414 1.956 . S
Li354 O415 1.970 . S
Li355 N405 1.990 . S
Li355 O413 1.961 . S
Li355 O414 1.970 . S
Li355 O415 1.956 . S
C356 C358 1.348 . S
C356 C359 1.356 . S
C356 O412 1.325 . S
N357 C360 1.314 . S
N357 C361 1.279 . S
C358 C356 1.348 . S
C358 C360 1.353 . S
C358 H416 0.929 . S
C359 C356 1.356 . S
C359 C361 1.358 . S
C359 H417 0.930 . S
C360 N357 1.314 . S
C360 C358 1.353 . S
C360 H418 0.930 . S
C361 N357 1.279 . S
C361 C359 1.358 . S
C361 H419 0.930 . S
C362 C365 1.348 . S
C362 C366 1.356 . S
C362 O413 1.325 . S
C363 N364 1.279 . S
C363 C366 1.358 . S
C363 H420 0.930 . S
N364 C363 1.279 . S
N364 C367 1.314 . S
C365 C362 1.348 . S
C365 C367 1.353 . S
C365 H421 0.929 . S
C366 C362 1.356 . S
C366 C363 1.358 . S
C366 H422 0.930 . S
C367 N364 1.314 . S
C367 C365 1.353 . S
C367 H423 0.930 . S
C368 N369 1.314 . S
C368 C373 1.353 . S
C368 H374 0.930 . S
N369 Li352 1.990 . S
N369 C368 1.314 . S
N369 C371 1.279 . S
C370 C371 1.358 . S
C370 C372 1.356 . S
C370 H424 0.930 . S
C371 N369 1.279 . S
C371 C370 1.358 . S
C371 H375 0.930 . S
C372 C370 1.356 . S
C372 C373 1.348 . S
C373 C368 1.353 . S
C373 C372 1.348 . S
C373 H425 0.929 . S
H374 C368 0.930 . S
H375 C371 0.930 . S
C376 N377 1.314 . S
C376 C378 1.353 . S
C376 H382 0.930 . S
N377 Li353 1.990 . S
N377 C376 1.314 . S
N377 C380 1.279 . S
C378 C376 1.353 . S
C378 C381 1.348 . S
C378 H426 0.929 . S
C379 C380 1.358 . S
C379 C381 1.356 . S
C379 H427 0.930 . S
C380 N377 1.279 . S
C380 C379 1.358 . S
C380 H383 0.930 . S
C381 C378 1.348 . S
C381 C379 1.356 . S
H382 C376 0.930 . S
H383 C380 0.930 . S
C384 C386 1.348 . S
C384 C387 1.356 . S
C384 O414 1.325 . S
N385 C388 1.314 . S
N385 C389 1.279 . S
C386 C384 1.348 . S
C386 C388 1.353 . S
C386 H428 0.929 . S
C387 C384 1.356 . S
C387 C389 1.358 . S
C387 H429 0.930 . S
C388 N385 1.314 . S
C388 C386 1.353 . S
C388 H430 0.930 . S
C389 N385 1.279 . S
C389 C387 1.358 . S
C389 H431 0.930 . S
C390 C391 1.348 . S
C390 C392 1.356 . S
C390 O415 1.325 . S
C391 C390 1.348 . S
C391 C393 1.353 . S
C391 H432 0.929 . S
C392 C390 1.356 . S
C392 C394 1.358 . S
C392 H433 0.930 . S
C393 C391 1.353 . S
C393 N395 1.314 . S
C393 H434 0.930 . S
C394 C392 1.358 . S
C394 N395 1.279 . S
C394 H435 0.930 . S
N395 C393 1.314 . S
N395 C394 1.279 . S
C396 C398 1.353 . S
C396 N399 1.314 . S
C396 H402 0.930 . S
C397 N399 1.279 . S
C397 C400 1.358 . S
C397 H403 0.930 . S
C398 C396 1.353 . S
C398 C401 1.348 . S
C398 H436 0.929 . S
N399 Li354 1.990 . S
N399 C396 1.314 . S
N399 C397 1.279 . S
C400 C397 1.358 . S
C400 C401 1.356 . S
C400 H437 0.930 . S
C401 C398 1.348 . S
C401 C400 1.356 . S
H402 C396 0.930 . S
H403 C397 0.930 . S
C404 N405 1.314 . S
C404 C406 1.353 . S
C404 H410 0.930 . S
N405 Li355 1.990 . S
N405 C404 1.314 . S
N405 C408 1.279 . S
C406 C404 1.353 . S
C406 C409 1.348 . S
C406 H438 0.929 . S
C407 C408 1.358 . S
C407 C409 1.356 . S
C407 H439 0.930 . S
C408 N405 1.279 . S
C408 C407 1.358 . S
C408 H411 0.930 . S
C409 C406 1.348 . S
C409 C407 1.356 . S
H410 C404 0.930 . S
H411 C408 0.930 . S
O412 Li352 1.956 . S
O412 Li353 1.970 . S
O412 Li354 1.961 . S
O412 C356 1.325 . S
O413 Li352 1.970 . S
O413 Li353 1.956 . S
O413 Li355 1.961 . S
O413 C362 1.325 . S
O414 Li352 1.961 . S
O414 Li354 1.956 . S
O414 Li355 1.970 . S
O414 C384 1.325 . S
O415 Li353 1.961 . S
O415 Li354 1.970 . S
O415 Li355 1.956 . S
O415 C390 1.325 . S
H416 C358 0.929 . S
H417 C359 0.930 . S
H418 C360 0.930 . S
H419 C361 0.930 . S
H420 C363 0.930 . S
H421 C365 0.929 . S
H422 C366 0.930 . S
H423 C367 0.930 . S
H424 C370 0.930 . S
H425 C373 0.929 . S
H426 C378 0.929 . S
H427 C379 0.930 . S
H428 C386 0.929 . S
H429 C387 0.930 . S
H430 C388 0.930 . S
H431 C389 0.930 . S
H432 C391 0.929 . S
H433 C392 0.930 . S
H434 C393 0.930 . S
H435 C394 0.930 . S
H436 C398 0.929 . S
H437 C400 0.930 . S
H438 C406 0.929 . S
H439 C407 0.930 . S
Li440 N457 1.990 . S
Li440 O500 1.956 . S
Li440 O501 1.970 . S
Li440 O502 1.961 . S
Li441 N465 1.990 . S
Li441 O500 1.970 . S
Li441 O501 1.956 . S
Li441 O503 1.961 . S
Li442 N487 1.990 . S
Li442 O500 1.961 . S
Li442 O502 1.956 . S
Li442 O503 1.970 . S
Li443 N493 1.990 . S
Li443 O501 1.961 . S
Li443 O502 1.970 . S
Li443 O503 1.956 . S
C444 C446 1.348 . S
C444 C447 1.356 . S
C444 O500 1.325 . S
N445 C448 1.314 . S
N445 C449 1.279 . S
C446 C444 1.348 . S
C446 C448 1.353 . S
C446 H504 0.929 . S
C447 C444 1.356 . S
C447 C449 1.358 . S
C447 H505 0.930 . S
C448 N445 1.314 . S
C448 C446 1.353 . S
C448 H506 0.930 . S
C449 N445 1.279 . S
C449 C447 1.358 . S
C449 H507 0.930 . S
C450 C453 1.348 . S
C450 C454 1.356 . S
C450 O501 1.325 . S
C451 N452 1.279 . S
C451 C454 1.358 . S
C451 H508 0.930 . S
N452 C451 1.279 . S
N452 C455 1.314 . S
C453 C450 1.348 . S
C453 C455 1.353 . S
C453 H509 0.929 . S
C454 C450 1.356 . S
C454 C451 1.358 . S
C454 H510 0.930 . S
C455 N452 1.314 . S
C455 C453 1.353 . S
C455 H511 0.930 . S
C456 N457 1.314 . S
C456 C461 1.353 . S
C456 H462 0.930 . S
N457 Li440 1.990 . S
N457 C456 1.314 . S
N457 C459 1.279 . S
C458 C459 1.358 . S
C458 C460 1.356 . S
C458 H512 0.930 . S
C459 N457 1.279 . S
C459 C458 1.358 . S
C459 H463 0.930 . S
C460 C458 1.356 . S
C460 C461 1.348 . S
C461 C456 1.353 . S
C461 C460 1.348 . S
C461 H513 0.929 . S
H462 C456 0.930 . S
H463 C459 0.930 . S
C464 N465 1.314 . S
C464 C466 1.353 . S
C464 H470 0.930 . S
N465 Li441 1.990 . S
N465 C464 1.314 . S
N465 C468 1.279 . S
C466 C464 1.353 . S
C466 C469 1.348 . S
C466 H514 0.929 . S
C467 C468 1.358 . S
C467 C469 1.356 . S
C467 H515 0.930 . S
C468 N465 1.279 . S
C468 C467 1.358 . S
C468 H471 0.930 . S
C469 C466 1.348 . S
C469 C467 1.356 . S
H470 C464 0.930 . S
H471 C468 0.930 . S
C472 C474 1.348 . S
C472 C475 1.356 . S
C472 O502 1.325 . S
N473 C476 1.314 . S
N473 C477 1.279 . S
C474 C472 1.348 . S
C474 C476 1.353 . S
C474 H516 0.929 . S
C475 C472 1.356 . S
C475 C477 1.358 . S
C475 H517 0.930 . S
C476 N473 1.314 . S
C476 C474 1.353 . S
C476 H518 0.930 . S
C477 N473 1.279 . S
C477 C475 1.358 . S
C477 H519 0.930 . S
C478 C479 1.348 . S
C478 C480 1.356 . S
C478 O503 1.325 . S
C479 C478 1.348 . S
C479 C481 1.353 . S
C479 H520 0.929 . S
C480 C478 1.356 . S
C480 C482 1.358 . S
C480 H521 0.930 . S
C481 C479 1.353 . S
C481 N483 1.314 . S
C481 H522 0.930 . S
C482 C480 1.358 . S
C482 N483 1.279 . S
C482 H523 0.930 . S
N483 C481 1.314 . S
N483 C482 1.279 . S
C484 C486 1.353 . S
C484 N487 1.314 . S
C484 H490 0.930 . S
C485 N487 1.279 . S
C485 C488 1.358 . S
C485 H491 0.930 . S
C486 C484 1.353 . S
C486 C489 1.348 . S
C486 H524 0.929 . S
N487 Li442 1.990 . S
N487 C484 1.314 . S
N487 C485 1.279 . S
C488 C485 1.358 . S
C488 C489 1.356 . S
C488 H525 0.930 . S
C489 C486 1.348 . S
C489 C488 1.356 . S
H490 C484 0.930 . S
H491 C485 0.930 . S
C492 N493 1.314 . S
C492 C494 1.353 . S
C492 H498 0.930 . S
N493 Li443 1.990 . S
N493 C492 1.314 . S
N493 C496 1.279 . S
C494 C492 1.353 . S
C494 C497 1.348 . S
C494 H526 0.929 . S
C495 C496 1.358 . S
C495 C497 1.356 . S
C495 H527 0.930 . S
C496 N493 1.279 . S
C496 C495 1.358 . S
C496 H499 0.930 . S
C497 C494 1.348 . S
C497 C495 1.356 . S
H498 C492 0.930 . S
H499 C496 0.930 . S
O500 Li440 1.956 . S
O500 Li441 1.970 . S
O500 Li442 1.961 . S
O500 C444 1.325 . S
O501 Li440 1.970 . S
O501 Li441 1.956 . S
O501 Li443 1.961 . S
O501 C450 1.325 . S
O502 Li440 1.961 . S
O502 Li442 1.956 . S
O502 Li443 1.970 . S
O502 C472 1.325 . S
O503 Li441 1.961 . S
O503 Li442 1.970 . S
O503 Li443 1.956 . S
O503 C478 1.325 . S
H504 C446 0.929 . S
H505 C447 0.930 . S
H506 C448 0.930 . S
H507 C449 0.930 . S
H508 C451 0.930 . S
H509 C453 0.929 . S
H510 C454 0.930 . S
H511 C455 0.930 . S
H512 C458 0.930 . S
H513 C461 0.929 . S
H514 C466 0.929 . S
H515 C467 0.930 . S
H516 C474 0.929 . S
H517 C475 0.930 . S
H518 C476 0.930 . S
H519 C477 0.930 . S
H520 C479 0.929 . S
H521 C480 0.930 . S
H522 C481 0.930 . S
H523 C482 0.930 . S
H524 C486 0.929 . S
H525 C488 0.930 . S
H526 C494 0.929 . S
H527 C495 0.930 . S
Li528 N545 1.990 . S
Li528 O588 1.956 . S
Li528 O589 1.970 . S
Li528 O590 1.961 . S
Li529 N553 1.990 . S
Li529 O588 1.970 . S
Li529 O589 1.956 . S
Li529 O591 1.961 . S
Li530 N575 1.990 . S
Li530 O588 1.961 . S
Li530 O590 1.956 . S
Li530 O591 1.970 . S
Li531 N581 1.990 . S
Li531 O589 1.961 . S
Li531 O590 1.970 . S
Li531 O591 1.956 . S
C532 C534 1.348 . S
C532 C535 1.356 . S
C532 O588 1.325 . S
N533 C536 1.314 . S
N533 C537 1.279 . S
C534 C532 1.348 . S
C534 C536 1.353 . S
C534 H592 0.929 . S
C535 C532 1.356 . S
C535 C537 1.358 . S
C535 H593 0.930 . S
C536 N533 1.314 . S
C536 C534 1.353 . S
C536 H594 0.930 . S
C537 N533 1.279 . S
C537 C535 1.358 . S
C537 H595 0.930 . S
C538 C541 1.348 . S
C538 C542 1.356 . S
C538 O589 1.325 . S
C539 N540 1.279 . S
C539 C542 1.358 . S
C539 H596 0.930 . S
N540 C539 1.279 . S
N540 C543 1.314 . S
C541 C538 1.348 . S
C541 C543 1.353 . S
C541 H597 0.929 . S
C542 C538 1.356 . S
C542 C539 1.358 . S
C542 H598 0.930 . S
C543 N540 1.314 . S
C543 C541 1.353 . S
C543 H599 0.930 . S
C544 N545 1.314 . S
C544 C549 1.353 . S
C544 H550 0.930 . S
N545 Li528 1.990 . S
N545 C544 1.314 . S
N545 C547 1.279 . S
C546 C547 1.358 . S
C546 C548 1.356 . S
C546 H600 0.930 . S
C547 N545 1.279 . S
C547 C546 1.358 . S
C547 H551 0.930 . S
C548 C546 1.356 . S
C548 C549 1.348 . S
C549 C544 1.353 . S
C549 C548 1.348 . S
C549 H601 0.929 . S
H550 C544 0.930 . S
H551 C547 0.930 . S
C552 N553 1.314 . S
C552 C554 1.353 . S
C552 H558 0.930 . S
N553 Li529 1.990 . S
N553 C552 1.314 . S
N553 C556 1.279 . S
C554 C552 1.353 . S
C554 C557 1.348 . S
C554 H602 0.929 . S
C555 C556 1.358 . S
C555 C557 1.356 . S
C555 H603 0.930 . S
C556 N553 1.279 . S
C556 C555 1.358 . S
C556 H559 0.930 . S
C557 C554 1.348 . S
C557 C555 1.356 . S
H558 C552 0.930 . S
H559 C556 0.930 . S
C560 C562 1.348 . S
C560 C563 1.356 . S
C560 O590 1.325 . S
N561 C564 1.314 . S
N561 C565 1.279 . S
C562 C560 1.348 . S
C562 C564 1.353 . S
C562 H604 0.929 . S
C563 C560 1.356 . S
C563 C565 1.358 . S
C563 H605 0.930 . S
C564 N561 1.314 . S
C564 C562 1.353 . S
C564 H606 0.930 . S
C565 N561 1.279 . S
C565 C563 1.358 . S
C565 H607 0.930 . S
C566 C567 1.348 . S
C566 C568 1.356 . S
C566 O591 1.325 . S
C567 C566 1.348 . S
C567 C569 1.353 . S
C567 H608 0.929 . S
C568 C566 1.356 . S
C568 C570 1.358 . S
C568 H609 0.930 . S
C569 C567 1.353 . S
C569 N571 1.314 . S
C569 H610 0.930 . S
C570 C568 1.358 . S
C570 N571 1.279 . S
C570 H611 0.930 . S
N571 C569 1.314 . S
N571 C570 1.279 . S
C572 C574 1.353 . S
C572 N575 1.314 . S
C572 H578 0.930 . S
C573 N575 1.279 . S
C573 C576 1.358 . S
C573 H579 0.930 . S
C574 C572 1.353 . S
C574 C577 1.348 . S
C574 H612 0.929 . S
N575 Li530 1.990 . S
N575 C572 1.314 . S
N575 C573 1.279 . S
C576 C573 1.358 . S
C576 C577 1.356 . S
C576 H613 0.930 . S
C577 C574 1.348 . S
C577 C576 1.356 . S
H578 C572 0.930 . S
H579 C573 0.930 . S
C580 N581 1.314 . S
C580 C582 1.353 . S
C580 H586 0.930 . S
N581 Li531 1.990 . S
N581 C580 1.314 . S
N581 C584 1.279 . S
C582 C580 1.353 . S
C582 C585 1.348 . S
C582 H614 0.929 . S
C583 C584 1.358 . S
C583 C585 1.356 . S
C583 H615 0.930 . S
C584 N581 1.279 . S
C584 C583 1.358 . S
C584 H587 0.930 . S
C585 C582 1.348 . S
C585 C583 1.356 . S
H586 C580 0.930 . S
H587 C584 0.930 . S
O588 Li528 1.956 . S
O588 Li529 1.970 . S
O588 Li530 1.961 . S
O588 C532 1.325 . S
O589 Li528 1.970 . S
O589 Li529 1.956 . S
O589 Li531 1.961 . S
O589 C538 1.325 . S
O590 Li528 1.961 . S
O590 Li530 1.956 . S
O590 Li531 1.970 . S
O590 C560 1.325 . S
O591 Li529 1.961 . S
O591 Li530 1.970 . S
O591 Li531 1.956 . S
O591 C566 1.325 . S
H592 C534 0.929 . S
H593 C535 0.930 . S
H594 C536 0.930 . S
H595 C537 0.930 . S
H596 C539 0.930 . S
H597 C541 0.929 . S
H598 C542 0.930 . S
H599 C543 0.930 . S
H600 C546 0.930 . S
H601 C549 0.929 . S
H602 C554 0.929 . S
H603 C555 0.930 . S
H604 C562 0.929 . S
H605 C563 0.930 . S
H606 C564 0.930 . S
H607 C565 0.930 . S
H608 C567 0.929 . S
H609 C568 0.930 . S
H610 C569 0.930 . S
H611 C570 0.930 . S
H612 C574 0.929 . S
H613 C576 0.930 . S
H614 C582 0.929 . S
H615 C583 0.930 . S
Li616 N633 1.990 . S
Li616 O676 1.956 . S
Li616 O677 1.970 . S
Li616 O678 1.961 . S
Li617 N641 1.990 . S
Li617 O676 1.970 . S
Li617 O677 1.956 . S
Li617 O679 1.961 . S
Li618 N663 1.990 . S
Li618 O676 1.961 . S
Li618 O678 1.956 . S
Li618 O679 1.970 . S
Li619 N669 1.990 . S
Li619 O677 1.961 . S
Li619 O678 1.970 . S
Li619 O679 1.956 . S
C620 C622 1.348 . S
C620 C623 1.356 . S
C620 O676 1.325 . S
N621 C624 1.314 . S
N621 C625 1.279 . S
C622 C620 1.348 . S
C622 C624 1.353 . S
C622 H680 0.929 . S
C623 C620 1.356 . S
C623 C625 1.358 . S
C623 H681 0.930 . S
C624 N621 1.314 . S
C624 C622 1.353 . S
C624 H682 0.930 . S
C625 N621 1.279 . S
C625 C623 1.358 . S
C625 H683 0.930 . S
C626 C629 1.348 . S
C626 C630 1.356 . S
C626 O677 1.325 . S
C627 N628 1.279 . S
C627 C630 1.358 . S
C627 H684 0.930 . S
N628 C627 1.279 . S
N628 C631 1.314 . S
C629 C626 1.348 . S
C629 C631 1.353 . S
C629 H685 0.929 . S
C630 C626 1.356 . S
C630 C627 1.358 . S
C630 H686 0.930 . S
C631 N628 1.314 . S
C631 C629 1.353 . S
C631 H687 0.930 . S
C632 N633 1.314 . S
C632 C637 1.353 . S
C632 H638 0.930 . S
N633 Li616 1.990 . S
N633 C632 1.314 . S
N633 C635 1.279 . S
C634 C635 1.358 . S
C634 C636 1.356 . S
C634 H688 0.930 . S
C635 N633 1.279 . S
C635 C634 1.358 . S
C635 H639 0.930 . S
C636 C634 1.356 . S
C636 C637 1.348 . S
C637 C632 1.353 . S
C637 C636 1.348 . S
C637 H689 0.929 . S
H638 C632 0.930 . S
H639 C635 0.930 . S
C640 N641 1.314 . S
C640 C642 1.353 . S
C640 H646 0.930 . S
N641 Li617 1.990 . S
N641 C640 1.314 . S
N641 C644 1.279 . S
C642 C640 1.353 . S
C642 C645 1.348 . S
C642 H690 0.929 . S
C643 C644 1.358 . S
C643 C645 1.356 . S
C643 H691 0.930 . S
C644 N641 1.279 . S
C644 C643 1.358 . S
C644 H647 0.930 . S
C645 C642 1.348 . S
C645 C643 1.356 . S
H646 C640 0.930 . S
H647 C644 0.930 . S
C648 C650 1.348 . S
C648 C651 1.356 . S
C648 O678 1.325 . S
N649 C652 1.314 . S
N649 C653 1.279 . S
C650 C648 1.348 . S
C650 C652 1.353 . S
C650 H692 0.929 . S
C651 C648 1.356 . S
C651 C653 1.358 . S
C651 H693 0.930 . S
C652 N649 1.314 . S
C652 C650 1.353 . S
C652 H694 0.930 . S
C653 N649 1.279 . S
C653 C651 1.358 . S
C653 H695 0.930 . S
C654 C655 1.348 . S
C654 C656 1.356 . S
C654 O679 1.325 . S
C655 C654 1.348 . S
C655 C657 1.353 . S
C655 H696 0.929 . S
C656 C654 1.356 . S
C656 C658 1.358 . S
C656 H697 0.930 . S
C657 C655 1.353 . S
C657 N659 1.314 . S
C657 H698 0.930 . S
C658 C656 1.358 . S
C658 N659 1.279 . S
C658 H699 0.930 . S
N659 C657 1.314 . S
N659 C658 1.279 . S
C660 C662 1.353 . S
C660 N663 1.314 . S
C660 H666 0.930 . S
C661 N663 1.279 . S
C661 C664 1.358 . S
C661 H667 0.930 . S
C662 C660 1.353 . S
C662 C665 1.348 . S
C662 H700 0.929 . S
N663 Li618 1.990 . S
N663 C660 1.314 . S
N663 C661 1.279 . S
C664 C661 1.358 . S
C664 C665 1.356 . S
C664 H701 0.930 . S
C665 C662 1.348 . S
C665 C664 1.356 . S
H666 C660 0.930 . S
H667 C661 0.930 . S
C668 N669 1.314 . S
C668 C670 1.353 . S
C668 H674 0.930 . S
N669 Li619 1.990 . S
N669 C668 1.314 . S
N669 C672 1.279 . S
C670 C668 1.353 . S
C670 C673 1.348 . S
C670 H702 0.929 . S
C671 C672 1.358 . S
C671 C673 1.356 . S
C671 H703 0.930 . S
C672 N669 1.279 . S
C672 C671 1.358 . S
C672 H675 0.930 . S
C673 C670 1.348 . S
C673 C671 1.356 . S
H674 C668 0.930 . S
H675 C672 0.930 . S
O676 Li616 1.956 . S
O676 Li617 1.970 . S
O676 Li618 1.961 . S
O676 C620 1.325 . S
O677 Li616 1.970 . S
O677 Li617 1.956 . S
O677 Li619 1.961 . S
O677 C626 1.325 . S
O678 Li616 1.961 . S
O678 Li618 1.956 . S
O678 Li619 1.970 . S
O678 C648 1.325 . S
O679 Li617 1.961 . S
O679 Li618 1.970 . S
O679 Li619 1.956 . S
O679 C654 1.325 . S
H680 C622 0.929 . S
H681 C623 0.930 . S
H682 C624 0.930 . S
H683 C625 0.930 . S
H684 C627 0.930 . S
H685 C629 0.929 . S
H686 C630 0.930 . S
H687 C631 0.930 . S
H688 C634 0.930 . S
H689 C637 0.929 . S
H690 C642 0.929 . S
H691 C643 0.930 . S
H692 C650 0.929 . S
H693 C651 0.930 . S
H694 C652 0.930 . S
H695 C653 0.930 . S
H696 C655 0.929 . S
H697 C656 0.930 . S
H698 C657 0.930 . S
H699 C658 0.930 . S
H700 C662 0.929 . S
H701 C664 0.930 . S
H702 C670 0.929 . S
H703 C671 0.930 . S
Li704 N721 1.990 . S
Li704 O764 1.956 . S
Li704 O765 1.970 . S
Li704 O766 1.961 . S
Li705 N729 1.990 . S
Li705 O764 1.970 . S
Li705 O765 1.956 . S
Li705 O767 1.961 . S
Li706 N751 1.990 . S
Li706 O764 1.961 . S
Li706 O766 1.956 . S
Li706 O767 1.970 . S
Li707 N757 1.990 . S
Li707 O765 1.961 . S
Li707 O766 1.970 . S
Li707 O767 1.956 . S
C708 C710 1.348 . S
C708 C711 1.356 . S
C708 O764 1.325 . S
N709 C712 1.314 . S
N709 C713 1.279 . S
C710 C708 1.348 . S
C710 C712 1.353 . S
C710 H768 0.929 . S
C711 C708 1.356 . S
C711 C713 1.358 . S
C711 H769 0.930 . S
C712 N709 1.314 . S
C712 C710 1.353 . S
C712 H770 0.930 . S
C713 N709 1.279 . S
C713 C711 1.358 . S
C713 H771 0.930 . S
C714 C717 1.348 . S
C714 C718 1.356 . S
C714 O765 1.325 . S
C715 N716 1.279 . S
C715 C718 1.358 . S
C715 H772 0.930 . S
N716 C715 1.279 . S
N716 C719 1.314 . S
C717 C714 1.348 . S
C717 C719 1.353 . S
C717 H773 0.929 . S
C718 C714 1.356 . S
C718 C715 1.358 . S
C718 H774 0.930 . S
C719 N716 1.314 . S
C719 C717 1.353 . S
C719 H775 0.930 . S
C720 N721 1.314 . S
C720 C725 1.353 . S
C720 H726 0.930 . S
N721 Li704 1.990 . S
N721 C720 1.314 . S
N721 C723 1.279 . S
C722 C723 1.358 . S
C722 C724 1.356 . S
C722 H776 0.930 . S
C723 N721 1.279 . S
C723 C722 1.358 . S
C723 H727 0.930 . S
C724 C722 1.356 . S
C724 C725 1.348 . S
C725 C720 1.353 . S
C725 C724 1.348 . S
C725 H777 0.929 . S
H726 C720 0.930 . S
H727 C723 0.930 . S
C728 N729 1.314 . S
C728 C730 1.353 . S
C728 H734 0.930 . S
N729 Li705 1.990 . S
N729 C728 1.314 . S
N729 C732 1.279 . S
C730 C728 1.353 . S
C730 C733 1.348 . S
C730 H778 0.929 . S
C731 C732 1.358 . S
C731 C733 1.356 . S
C731 H779 0.930 . S
C732 N729 1.279 . S
C732 C731 1.358 . S
C732 H735 0.930 . S
C733 C730 1.348 . S
C733 C731 1.356 . S
H734 C728 0.930 . S
H735 C732 0.930 . S
C736 C738 1.348 . S
C736 C739 1.356 . S
C736 O766 1.325 . S
N737 C740 1.314 . S
N737 C741 1.279 . S
C738 C736 1.348 . S
C738 C740 1.353 . S
C738 H780 0.929 . S
C739 C736 1.356 . S
C739 C741 1.358 . S
C739 H781 0.930 . S
C740 N737 1.314 . S
C740 C738 1.353 . S
C740 H782 0.930 . S
C741 N737 1.279 . S
C741 C739 1.358 . S
C741 H783 0.930 . S
C742 C743 1.348 . S
C742 C744 1.356 . S
C742 O767 1.325 . S
C743 C742 1.348 . S
C743 C745 1.353 . S
C743 H784 0.929 . S
C744 C742 1.356 . S
C744 C746 1.358 . S
C744 H785 0.930 . S
C745 C743 1.353 . S
C745 N747 1.314 . S
C745 H786 0.930 . S
C746 C744 1.358 . S
C746 N747 1.279 . S
C746 H787 0.930 . S
N747 C745 1.314 . S
N747 C746 1.279 . S
C748 C750 1.353 . S
C748 N751 1.314 . S
C748 H754 0.930 . S
C749 N751 1.279 . S
C749 C752 1.358 . S
C749 H755 0.930 . S
C750 C748 1.353 . S
C750 C753 1.348 . S
C750 H788 0.929 . S
N751 Li706 1.990 . S
N751 C748 1.314 . S
N751 C749 1.279 . S
C752 C749 1.358 . S
C752 C753 1.356 . S
C752 H789 0.930 . S
C753 C750 1.348 . S
C753 C752 1.356 . S
H754 C748 0.930 . S
H755 C749 0.930 . S
C756 N757 1.314 . S
C756 C758 1.353 . S
C756 H762 0.930 . S
N757 Li707 1.990 . S
N757 C756 1.314 . S
N757 C760 1.279 . S
C758 C756 1.353 . S
C758 C761 1.348 . S
C758 H790 0.929 . S
C759 C760 1.358 . S
C759 C761 1.356 . S
C759 H791 0.930 . S
C760 N757 1.279 . S
C760 C759 1.358 . S
C760 H763 0.930 . S
C761 C758 1.348 . S
C761 C759 1.356 . S
H762 C756 0.930 . S
H763 C760 0.930 . S
O764 Li704 1.956 . S
O764 Li705 1.970 . S
O764 Li706 1.961 . S
O764 C708 1.325 . S
O765 Li704 1.970 . S
O765 Li705 1.956 . S
O765 Li707 1.961 . S
O765 C714 1.325 . S
O766 Li704 1.961 . S
O766 Li706 1.956 . S
O766 Li707 1.970 . S
O766 C736 1.325 . S
O767 Li705 1.961 . S
O767 Li706 1.970 . S
O767 Li707 1.956 . S
O767 C742 1.325 . S
H768 C710 0.929 . S
H769 C711 0.930 . S
H770 C712 0.930 . S
H771 C713 0.930 . S
H772 C715 0.930 . S
H773 C717 0.929 . S
H774 C718 0.930 . S
H775 C719 0.930 . S
H776 C722 0.930 . S
H777 C725 0.929 . S
H778 C730 0.929 . S
H779 C731 0.930 . S
H780 C738 0.929 . S
H781 C739 0.930 . S
H782 C740 0.930 . S
H783 C741 0.930 . S
H784 C743 0.929 . S
H785 C744 0.930 . S
H786 C745 0.930 . S
H787 C746 0.930 . S
H788 C750 0.929 . S
H789 C752 0.930 . S
H790 C758 0.929 . S
H791 C759 0.930 . S
Li792 N809 1.990 . S
Li792 O852 1.956 . S
Li792 O853 1.970 . S
Li792 O854 1.961 . S
Li793 N817 1.990 . S
Li793 O852 1.970 . S
Li793 O853 1.956 . S
Li793 O855 1.961 . S
Li794 N839 1.990 . S
Li794 O852 1.961 . S
Li794 O854 1.956 . S
Li794 O855 1.970 . S
Li795 N845 1.990 . S
Li795 O853 1.961 . S
Li795 O854 1.970 . S
Li795 O855 1.956 . S
C796 C798 1.348 . S
C796 C799 1.356 . S
C796 O852 1.325 . S
N797 C800 1.314 . S
N797 C801 1.279 . S
C798 C796 1.348 . S
C798 C800 1.353 . S
C798 H856 0.929 . S
C799 C796 1.356 . S
C799 C801 1.358 . S
C799 H857 0.930 . S
C800 N797 1.314 . S
C800 C798 1.353 . S
C800 H858 0.930 . S
C801 N797 1.279 . S
C801 C799 1.358 . S
C801 H859 0.930 . S
C802 C805 1.348 . S
C802 C806 1.356 . S
C802 O853 1.325 . S
C803 N804 1.279 . S
C803 C806 1.358 . S
C803 H860 0.930 . S
N804 C803 1.279 . S
N804 C807 1.314 . S
C805 C802 1.348 . S
C805 C807 1.353 . S
C805 H861 0.929 . S
C806 C802 1.356 . S
C806 C803 1.358 . S
C806 H862 0.930 . S
C807 N804 1.314 . S
C807 C805 1.353 . S
C807 H863 0.930 . S
C808 N809 1.314 . S
C808 C813 1.353 . S
C808 H814 0.930 . S
N809 Li792 1.990 . S
N809 C808 1.314 . S
N809 C811 1.279 . S
C810 C811 1.358 . S
C810 C812 1.356 . S
C810 H864 0.930 . S
C811 N809 1.279 . S
C811 C810 1.358 . S
C811 H815 0.930 . S
C812 C810 1.356 . S
C812 C813 1.348 . S
C813 C808 1.353 . S
C813 C812 1.348 . S
C813 H865 0.929 . S
H814 C808 0.930 . S
H815 C811 0.930 . S
C816 N817 1.314 . S
C816 C818 1.353 . S
C816 H822 0.930 . S
N817 Li793 1.990 . S
N817 C816 1.314 . S
N817 C820 1.279 . S
C818 C816 1.353 . S
C818 C821 1.348 . S
C818 H866 0.929 . S
C819 C820 1.358 . S
C819 C821 1.356 . S
C819 H867 0.930 . S
C820 N817 1.279 . S
C820 C819 1.358 . S
C820 H823 0.930 . S
C821 C818 1.348 . S
C821 C819 1.356 . S
H822 C816 0.930 . S
H823 C820 0.930 . S
C824 C826 1.348 . S
C824 C827 1.356 . S
C824 O854 1.325 . S
N825 C828 1.314 . S
N825 C829 1.279 . S
C826 C824 1.348 . S
C826 C828 1.353 . S
C826 H868 0.929 . S
C827 C824 1.356 . S
C827 C829 1.358 . S
C827 H869 0.930 . S
C828 N825 1.314 . S
C828 C826 1.353 . S
C828 H870 0.930 . S
C829 N825 1.279 . S
C829 C827 1.358 . S
C829 H871 0.930 . S
C830 C831 1.348 . S
C830 C832 1.356 . S
C830 O855 1.325 . S
C831 C830 1.348 . S
C831 C833 1.353 . S
C831 H872 0.929 . S
C832 C830 1.356 . S
C832 C834 1.358 . S
C832 H873 0.930 . S
C833 C831 1.353 . S
C833 N835 1.314 . S
C833 H874 0.930 . S
C834 C832 1.358 . S
C834 N835 1.279 . S
C834 H875 0.930 . S
N835 C833 1.314 . S
N835 C834 1.279 . S
C836 C838 1.353 . S
C836 N839 1.314 . S
C836 H842 0.930 . S
C837 N839 1.279 . S
C837 C840 1.358 . S
C837 H843 0.930 . S
C838 C836 1.353 . S
C838 C841 1.348 . S
C838 H876 0.929 . S
N839 Li794 1.990 . S
N839 C836 1.314 . S
N839 C837 1.279 . S
C840 C837 1.358 . S
C840 C841 1.356 . S
C840 H877 0.930 . S
C841 C838 1.348 . S
C841 C840 1.356 . S
H842 C836 0.930 . S
H843 C837 0.930 . S
C844 N845 1.314 . S
C844 C846 1.353 . S
C844 H850 0.930 . S
N845 Li795 1.990 . S
N845 C844 1.314 . S
N845 C848 1.279 . S
C846 C844 1.353 . S
C846 C849 1.348 . S
C846 H878 0.929 . S
C847 C848 1.358 . S
C847 C849 1.356 . S
C847 H879 0.930 . S
C848 N845 1.279 . S
C848 C847 1.358 . S
C848 H851 0.930 . S
C849 C846 1.348 . S
C849 C847 1.356 . S
H850 C844 0.930 . S
H851 C848 0.930 . S
O852 Li792 1.956 . S
O852 Li793 1.970 . S
O852 Li794 1.961 . S
O852 C796 1.325 . S
O853 Li792 1.970 . S
O853 Li793 1.956 . S
O853 Li795 1.961 . S
O853 C802 1.325 . S
O854 Li792 1.961 . S
O854 Li794 1.956 . S
O854 Li795 1.970 . S
O854 C824 1.325 . S
O855 Li793 1.961 . S
O855 Li794 1.970 . S
O855 Li795 1.956 . S
O855 C830 1.325 . S
H856 C798 0.929 . S
H857 C799 0.930 . S
H858 C800 0.930 . S
H859 C801 0.930 . S
H860 C803 0.930 . S
H861 C805 0.929 . S
H862 C806 0.930 . S
H863 C807 0.930 . S
H864 C810 0.930 . S
H865 C813 0.929 . S
H866 C818 0.929 . S
H867 C819 0.930 . S
H868 C826 0.929 . S
H869 C827 0.930 . S
H870 C828 0.930 . S
H871 C829 0.930 . S
H872 C831 0.929 . S
H873 C832 0.930 . S
H874 C833 0.930 . S
H875 C834 0.930 . S
H876 C838 0.929 . S
H877 C840 0.930 . S
H878 C846 0.929 . S
H879 C847 0.930 . S
Li880 N897 1.990 . S
Li880 O940 1.956 . S
Li880 O941 1.970 . S
Li880 O942 1.961 . S
Li881 N905 1.990 . S
Li881 O940 1.970 . S
Li881 O941 1.956 . S
Li881 O943 1.961 . S
Li882 N927 1.990 . S
Li882 O940 1.961 . S
Li882 O942 1.956 . S
Li882 O943 1.970 . S
Li883 N933 1.990 . S
Li883 O941 1.961 . S
Li883 O942 1.970 . S
Li883 O943 1.956 . S
C884 C886 1.348 . S
C884 C887 1.356 . S
C884 O940 1.325 . S
N885 C888 1.314 . S
N885 C889 1.279 . S
C886 C884 1.348 . S
C886 C888 1.353 . S
C886 H944 0.929 . S
C887 C884 1.356 . S
C887 C889 1.358 . S
C887 H945 0.930 . S
C888 N885 1.314 . S
C888 C886 1.353 . S
C888 H946 0.930 . S
C889 N885 1.279 . S
C889 C887 1.358 . S
C889 H947 0.930 . S
C890 C893 1.348 . S
C890 C894 1.356 . S
C890 O941 1.325 . S
C891 N892 1.279 . S
C891 C894 1.358 . S
C891 H948 0.930 . S
N892 C891 1.279 . S
N892 C895 1.314 . S
C893 C890 1.348 . S
C893 C895 1.353 . S
C893 H949 0.929 . S
C894 C890 1.356 . S
C894 C891 1.358 . S
C894 H950 0.930 . S
C895 N892 1.314 . S
C895 C893 1.353 . S
C895 H951 0.930 . S
C896 N897 1.314 . S
C896 C901 1.353 . S
C896 H902 0.930 . S
N897 Li880 1.990 . S
N897 C896 1.314 . S
N897 C899 1.279 . S
C898 C899 1.358 . S
C898 C900 1.356 . S
C898 H952 0.930 . S
C899 N897 1.279 . S
C899 C898 1.358 . S
C899 H903 0.930 . S
C900 C898 1.356 . S
C900 C901 1.348 . S
C901 C896 1.353 . S
C901 C900 1.348 . S
C901 H953 0.929 . S
H902 C896 0.930 . S
H903 C899 0.930 . S
C904 N905 1.314 . S
C904 C906 1.353 . S
C904 H910 0.930 . S
N905 Li881 1.990 . S
N905 C904 1.314 . S
N905 C908 1.279 . S
C906 C904 1.353 . S
C906 C909 1.348 . S
C906 H954 0.929 . S
C907 C908 1.358 . S
C907 C909 1.356 . S
C907 H955 0.930 . S
C908 N905 1.279 . S
C908 C907 1.358 . S
C908 H911 0.930 . S
C909 C906 1.348 . S
C909 C907 1.356 . S
H910 C904 0.930 . S
H911 C908 0.930 . S
C912 C914 1.348 . S
C912 C915 1.356 . S
C912 O942 1.325 . S
N913 C916 1.314 . S
N913 C917 1.279 . S
C914 C912 1.348 . S
C914 C916 1.353 . S
C914 H956 0.929 . S
C915 C912 1.356 . S
C915 C917 1.358 . S
C915 H957 0.930 . S
C916 N913 1.314 . S
C916 C914 1.353 . S
C916 H958 0.930 . S
C917 N913 1.279 . S
C917 C915 1.358 . S
C917 H959 0.930 . S
C918 C919 1.348 . S
C918 C920 1.356 . S
C918 O943 1.325 . S
C919 C918 1.348 . S
C919 C921 1.353 . S
C919 H960 0.929 . S
C920 C918 1.356 . S
C920 C922 1.358 . S
C920 H961 0.930 . S
C921 C919 1.353 . S
C921 N923 1.314 . S
C921 H962 0.930 . S
C922 C920 1.358 . S
C922 N923 1.279 . S
C922 H963 0.930 . S
N923 C921 1.314 . S
N923 C922 1.279 . S
C924 C926 1.353 . S
C924 N927 1.314 . S
C924 H930 0.930 . S
C925 N927 1.279 . S
C925 C928 1.358 . S
C925 H931 0.930 . S
C926 C924 1.353 . S
C926 C929 1.348 . S
C926 H964 0.929 . S
N927 Li882 1.990 . S
N927 C924 1.314 . S
N927 C925 1.279 . S
C928 C925 1.358 . S
C928 C929 1.356 . S
C928 H965 0.930 . S
C929 C926 1.348 . S
C929 C928 1.356 . S
H930 C924 0.930 . S
H931 C925 0.930 . S
C932 N933 1.314 . S
C932 C934 1.353 . S
C932 H938 0.930 . S
N933 Li883 1.990 . S
N933 C932 1.314 . S
N933 C936 1.279 . S
C934 C932 1.353 . S
C934 C937 1.348 . S
C934 H966 0.929 . S
C935 C936 1.358 . S
C935 C937 1.356 . S
C935 H967 0.930 . S
C936 N933 1.279 . S
C936 C935 1.358 . S
C936 H939 0.930 . S
C937 C934 1.348 . S
C937 C935 1.356 . S
H938 C932 0.930 . S
H939 C936 0.930 . S
O940 Li880 1.956 . S
O940 Li881 1.970 . S
O940 Li882 1.961 . S
O940 C884 1.325 . S
O941 Li880 1.970 . S
O941 Li881 1.956 . S
O941 Li883 1.961 . S
O941 C890 1.325 . S
O942 Li880 1.961 . S
O942 Li882 1.956 . S
O942 Li883 1.970 . S
O942 C912 1.325 . S
O943 Li881 1.961 . S
O943 Li882 1.970 . S
O943 Li883 1.956 . S
O943 C918 1.325 . S
H944 C886 0.929 . S
H945 C887 0.930 . S
H946 C888 0.930 . S
H947 C889 0.930 . S
H948 C891 0.930 . S
H949 C893 0.929 . S
H950 C894 0.930 . S
H951 C895 0.930 . S
H952 C898 0.930 . S
H953 C901 0.929 . S
H954 C906 0.929 . S
H955 C907 0.930 . S
H956 C914 0.929 . S
H957 C915 0.930 . S
H958 C916 0.930 . S
H959 C917 0.930 . S
H960 C919 0.929 . S
H961 C920 0.930 . S
H962 C921 0.930 . S
H963 C922 0.930 . S
H964 C926 0.929 . S
H965 C928 0.930 . S
H966 C934 0.929 . S
H967 C935 0.930 . S
Li968 N985 1.990 . S
Li968 O1028 1.956 . S
Li968 O1029 1.970 . S
Li968 O1030 1.961 . S
Li969 N993 1.990 . S
Li969 O1028 1.970 . S
Li969 O1029 1.956 . S
Li969 O1031 1.961 . S
Li970 N1015 1.990 . S
Li970 O1028 1.961 . S
Li970 O1030 1.956 . S
Li970 O1031 1.970 . S
Li971 N1021 1.990 . S
Li971 O1029 1.961 . S
Li971 O1030 1.970 . S
Li971 O1031 1.956 . S
C972 C974 1.348 . S
C972 C975 1.356 . S
C972 O1028 1.325 . S
N973 C976 1.314 . S
N973 C977 1.279 . S
C974 C972 1.348 . S
C974 C976 1.353 . S
C974 H1032 0.929 . S
C975 C972 1.356 . S
C975 C977 1.358 . S
C975 H1033 0.930 . S
C976 N973 1.314 . S
C976 C974 1.353 . S
C976 H1034 0.930 . S
C977 N973 1.279 . S
C977 C975 1.358 . S
C977 H1035 0.930 . S
C978 C981 1.348 . S
C978 C982 1.356 . S
C978 O1029 1.325 . S
C979 N980 1.279 . S
C979 C982 1.358 . S
C979 H1036 0.930 . S
N980 C979 1.279 . S
N980 C983 1.314 . S
C981 C978 1.348 . S
C981 C983 1.353 . S
C981 H1037 0.929 . S
C982 C978 1.356 . S
C982 C979 1.358 . S
C982 H1038 0.930 . S
C983 N980 1.314 . S
C983 C981 1.353 . S
C983 H1039 0.930 . S
C984 N985 1.314 . S
C984 C989 1.353 . S
C984 H990 0.930 . S
N985 Li968 1.990 . S
N985 C984 1.314 . S
N985 C987 1.279 . S
C986 C987 1.358 . S
C986 C988 1.356 . S
C986 H1040 0.930 . S
C987 N985 1.279 . S
C987 C986 1.358 . S
C987 H991 0.930 . S
C988 C986 1.356 . S
C988 C989 1.348 . S
C989 C984 1.353 . S
C989 C988 1.348 . S
C989 H1041 0.929 . S
H990 C984 0.930 . S
H991 C987 0.930 . S
C992 N993 1.314 . S
C992 C994 1.353 . S
C992 H998 0.930 . S
N993 Li969 1.990 . S
N993 C992 1.314 . S
N993 C996 1.279 . S
C994 C992 1.353 . S
C994 C997 1.348 . S
C994 H1042 0.929 . S
C995 C996 1.358 . S
C995 C997 1.356 . S
C995 H1043 0.930 . S
C996 N993 1.279 . S
C996 C995 1.358 . S
C996 H999 0.930 . S
C997 C994 1.348 . S
C997 C995 1.356 . S
H998 C992 0.930 . S
H999 C996 0.930 . S
C1000 C1002 1.348 . S
C1000 C1003 1.356 . S
C1000 O1030 1.325 . S
N1001 C1004 1.314 . S
N1001 C1005 1.279 . S
C1002 C1000 1.348 . S
C1002 C1004 1.353 . S
C1002 H1044 0.929 . S
C1003 C1000 1.356 . S
C1003 C1005 1.358 . S
C1003 H1045 0.930 . S
C1004 N1001 1.314 . S
C1004 C1002 1.353 . S
C1004 H1046 0.930 . S
C1005 N1001 1.279 . S
C1005 C1003 1.358 . S
C1005 H1047 0.930 . S
C1006 C1007 1.348 . S
C1006 C1008 1.356 . S
C1006 O1031 1.325 . S
C1007 C1006 1.348 . S
C1007 C1009 1.353 . S
C1007 H1048 0.929 . S
C1008 C1006 1.356 . S
C1008 C1010 1.358 . S
C1008 H1049 0.930 . S
C1009 C1007 1.353 . S
C1009 N1011 1.314 . S
C1009 H1050 0.930 . S
C1010 C1008 1.358 . S
C1010 N1011 1.279 . S
C1010 H1051 0.930 . S
N1011 C1009 1.314 . S
N1011 C1010 1.279 . S
C1012 C1014 1.353 . S
C1012 N1015 1.314 . S
C1012 H1018 0.930 . S
C1013 N1015 1.279 . S
C1013 C1016 1.358 . S
C1013 H1019 0.930 . S
C1014 C1012 1.353 . S
C1014 C1017 1.348 . S
C1014 H1052 0.929 . S
N1015 Li970 1.990 . S
N1015 C1012 1.314 . S
N1015 C1013 1.279 . S
C1016 C1013 1.358 . S
C1016 C1017 1.356 . S
C1016 H1053 0.930 . S
C1017 C1014 1.348 . S
C1017 C1016 1.356 . S
H1018 C1012 0.930 . S
H1019 C1013 0.930 . S
C1020 N1021 1.314 . S
C1020 C1022 1.353 . S
C1020 H1026 0.930 . S
N1021 Li971 1.990 . S
N1021 C1020 1.314 . S
N1021 C1024 1.279 . S
C1022 C1020 1.353 . S
C1022 C1025 1.348 . S
C1022 H1054 0.929 . S
C1023 C1024 1.358 . S
C1023 C1025 1.356 . S
C1023 H1055 0.930 . S
C1024 N1021 1.279 . S
C1024 C1023 1.358 . S
C1024 H1027 0.930 . S
C1025 C1022 1.348 . S
C1025 C1023 1.356 . S
H1026 C1020 0.930 . S
H1027 C1024 0.930 . S
O1028 Li968 1.956 . S
O1028 Li969 1.970 . S
O1028 Li970 1.961 . S
O1028 C972 1.325 . S
O1029 Li968 1.970 . S
O1029 Li969 1.956 . S
O1029 Li971 1.961 . S
O1029 C978 1.325 . S
O1030 Li968 1.961 . S
O1030 Li970 1.956 . S
O1030 Li971 1.970 . S
O1030 C1000 1.325 . S
O1031 Li969 1.961 . S
O1031 Li970 1.970 . S
O1031 Li971 1.956 . S
O1031 C1006 1.325 . S
H1032 C974 0.929 . S
H1033 C975 0.930 . S
H1034 C976 0.930 . S
H1035 C977 0.930 . S
H1036 C979 0.930 . S
H1037 C981 0.929 . S
H1038 C982 0.930 . S
H1039 C983 0.930 . S
H1040 C986 0.930 . S
H1041 C989 0.929 . S
H1042 C994 0.929 . S
H1043 C995 0.930 . S
H1044 C1002 0.929 . S
H1045 C1003 0.930 . S
H1046 C1004 0.930 . S
H1047 C1005 0.930 . S
H1048 C1007 0.929 . S
H1049 C1008 0.930 . S
H1050 C1009 0.930 . S
H1051 C1010 0.930 . S
H1052 C1014 0.929 . S
H1053 C1016 0.930 . S
H1054 C1022 0.929 . S
H1055 C1023 0.930 . S
Li1056 N1073 1.990 . S
Li1056 O1116 1.956 . S
Li1056 O1117 1.970 . S
Li1056 O1118 1.961 . S
Li1057 N1081 1.990 . S
Li1057 O1116 1.970 . S
Li1057 O1117 1.956 . S
Li1057 O1119 1.961 . S
Li1058 N1103 1.990 . S
Li1058 O1116 1.961 . S
Li1058 O1118 1.956 . S
Li1058 O1119 1.970 . S
Li1059 N1109 1.990 . S
Li1059 O1117 1.961 . S
Li1059 O1118 1.970 . S
Li1059 O1119 1.956 . S
C1060 C1062 1.348 . S
C1060 C1063 1.356 . S
C1060 O1116 1.325 . S
N1061 C1064 1.314 . S
N1061 C1065 1.279 . S
C1062 C1060 1.348 . S
C1062 C1064 1.353 . S
C1062 H1120 0.929 . S
C1063 C1060 1.356 . S
C1063 C1065 1.358 . S
C1063 H1121 0.930 . S
C1064 N1061 1.314 . S
C1064 C1062 1.353 . S
C1064 H1122 0.930 . S
C1065 N1061 1.279 . S
C1065 C1063 1.358 . S
C1065 H1123 0.930 . S
C1066 C1069 1.348 . S
C1066 C1070 1.356 . S
C1066 O1117 1.325 . S
C1067 N1068 1.279 . S
C1067 C1070 1.358 . S
C1067 H1124 0.930 . S
N1068 C1067 1.279 . S
N1068 C1071 1.314 . S
C1069 C1066 1.348 . S
C1069 C1071 1.353 . S
C1069 H1125 0.929 . S
C1070 C1066 1.356 . S
C1070 C1067 1.358 . S
C1070 H1126 0.930 . S
C1071 N1068 1.314 . S
C1071 C1069 1.353 . S
C1071 H1127 0.930 . S
C1072 N1073 1.314 . S
C1072 C1077 1.353 . S
C1072 H1078 0.930 . S
N1073 Li1056 1.990 . S
N1073 C1072 1.314 . S
N1073 C1075 1.279 . S
C1074 C1075 1.358 . S
C1074 C1076 1.356 . S
C1074 H1128 0.930 . S
C1075 N1073 1.279 . S
C1075 C1074 1.358 . S
C1075 H1079 0.930 . S
C1076 C1074 1.356 . S
C1076 C1077 1.348 . S
C1077 C1072 1.353 . S
C1077 C1076 1.348 . S
C1077 H1129 0.929 . S
H1078 C1072 0.930 . S
H1079 C1075 0.930 . S
C1080 N1081 1.314 . S
C1080 C1082 1.353 . S
C1080 H1086 0.930 . S
N1081 Li1057 1.990 . S
N1081 C1080 1.314 . S
N1081 C1084 1.279 . S
C1082 C1080 1.353 . S
C1082 C1085 1.348 . S
C1082 H1130 0.929 . S
C1083 C1084 1.358 . S
C1083 C1085 1.356 . S
C1083 H1131 0.930 . S
C1084 N1081 1.279 . S
C1084 C1083 1.358 . S
C1084 H1087 0.930 . S
C1085 C1082 1.348 . S
C1085 C1083 1.356 . S
H1086 C1080 0.930 . S
H1087 C1084 0.930 . S
C1088 C1090 1.348 . S
C1088 C1091 1.356 . S
C1088 O1118 1.325 . S
N1089 C1092 1.314 . S
N1089 C1093 1.279 . S
C1090 C1088 1.348 . S
C1090 C1092 1.353 . S
C1090 H1132 0.929 . S
C1091 C1088 1.356 . S
C1091 C1093 1.358 . S
C1091 H1133 0.930 . S
C1092 N1089 1.314 . S
C1092 C1090 1.353 . S
C1092 H1134 0.930 . S
C1093 N1089 1.279 . S
C1093 C1091 1.358 . S
C1093 H1135 0.930 . S
C1094 C1095 1.348 . S
C1094 C1096 1.356 . S
C1094 O1119 1.325 . S
C1095 C1094 1.348 . S
C1095 C1097 1.353 . S
C1095 H1136 0.929 . S
C1096 C1094 1.356 . S
C1096 C1098 1.358 . S
C1096 H1137 0.930 . S
C1097 C1095 1.353 . S
C1097 N1099 1.314 . S
C1097 H1138 0.930 . S
C1098 C1096 1.358 . S
C1098 N1099 1.279 . S
C1098 H1139 0.930 . S
N1099 C1097 1.314 . S
N1099 C1098 1.279 . S
C1100 C1102 1.353 . S
C1100 N1103 1.314 . S
C1100 H1106 0.930 . S
C1101 N1103 1.279 . S
C1101 C1104 1.358 . S
C1101 H1107 0.930 . S
C1102 C1100 1.353 . S
C1102 C1105 1.348 . S
C1102 H1140 0.929 . S
N1103 Li1058 1.990 . S
N1103 C1100 1.314 . S
N1103 C1101 1.279 . S
C1104 C1101 1.358 . S
C1104 C1105 1.356 . S
C1104 H1141 0.930 . S
C1105 C1102 1.348 . S
C1105 C1104 1.356 . S
H1106 C1100 0.930 . S
H1107 C1101 0.930 . S
C1108 N1109 1.314 . S
C1108 C1110 1.353 . S
C1108 H1114 0.930 . S
N1109 Li1059 1.990 . S
N1109 C1108 1.314 . S
N1109 C1112 1.279 . S
C1110 C1108 1.353 . S
C1110 C1113 1.348 . S
C1110 H1142 0.929 . S
C1111 C1112 1.358 . S
C1111 C1113 1.356 . S
C1111 H1143 0.930 . S
C1112 N1109 1.279 . S
C1112 C1111 1.358 . S
C1112 H1115 0.930 . S
C1113 C1110 1.348 . S
C1113 C1111 1.356 . S
H1114 C1108 0.930 . S
H1115 C1112 0.930 . S
O1116 Li1056 1.956 . S
O1116 Li1057 1.970 . S
O1116 Li1058 1.961 . S
O1116 C1060 1.325 . S
O1117 Li1056 1.970 . S
O1117 Li1057 1.956 . S
O1117 Li1059 1.961 . S
O1117 C1066 1.325 . S
O1118 Li1056 1.961 . S
O1118 Li1058 1.956 . S
O1118 Li1059 1.970 . S
O1118 C1088 1.325 . S
O1119 Li1057 1.961 . S
O1119 Li1058 1.970 . S
O1119 Li1059 1.956 . S
O1119 C1094 1.325 . S
H1120 C1062 0.929 . S
H1121 C1063 0.930 . S
H1122 C1064 0.930 . S
H1123 C1065 0.930 . S
H1124 C1067 0.930 . S
H1125 C1069 0.929 . S
H1126 C1070 0.930 . S
H1127 C1071 0.930 . S
H1128 C1074 0.930 . S
H1129 C1077 0.929 . S
H1130 C1082 0.929 . S
H1131 C1083 0.930 . S
H1132 C1090 0.929 . S
H1133 C1091 0.930 . S
H1134 C1092 0.930 . S
H1135 C1093 0.930 . S
H1136 C1095 0.929 . S
H1137 C1096 0.930 . S
H1138 C1097 0.930 . S
H1139 C1098 0.930 . S
H1140 C1102 0.929 . S
H1141 C1104 0.930 . S
H1142 C1110 0.929 . S
H1143 C1111 0.930 . S
Li1144 N1161 1.990 . S
Li1144 O1204 1.956 . S
Li1144 O1205 1.970 . S
Li1144 O1206 1.961 . S
Li1145 N1169 1.990 . S
Li1145 O1204 1.970 . S
Li1145 O1205 1.956 . S
Li1145 O1207 1.961 . S
Li1146 N1191 1.990 . S
Li1146 O1204 1.961 . S
Li1146 O1206 1.956 . S
Li1146 O1207 1.970 . S
Li1147 N1197 1.990 . S
Li1147 O1205 1.961 . S
Li1147 O1206 1.970 . S
Li1147 O1207 1.956 . S
C1148 C1150 1.348 . S
C1148 C1151 1.356 . S
C1148 O1204 1.325 . S
N1149 C1152 1.314 . S
N1149 C1153 1.279 . S
C1150 C1148 1.348 . S
C1150 C1152 1.353 . S
C1150 H1208 0.929 . S
C1151 C1148 1.356 . S
C1151 C1153 1.358 . S
C1151 H1209 0.930 . S
C1152 N1149 1.314 . S
C1152 C1150 1.353 . S
C1152 H1210 0.930 . S
C1153 N1149 1.279 . S
C1153 C1151 1.358 . S
C1153 H1211 0.930 . S
C1154 C1157 1.348 . S
C1154 C1158 1.356 . S
C1154 O1205 1.325 . S
C1155 N1156 1.279 . S
C1155 C1158 1.358 . S
C1155 H1212 0.930 . S
N1156 C1155 1.279 . S
N1156 C1159 1.314 . S
C1157 C1154 1.348 . S
C1157 C1159 1.353 . S
C1157 H1213 0.929 . S
C1158 C1154 1.356 . S
C1158 C1155 1.358 . S
C1158 H1214 0.930 . S
C1159 N1156 1.314 . S
C1159 C1157 1.353 . S
C1159 H1215 0.930 . S
C1160 N1161 1.314 . S
C1160 C1165 1.353 . S
C1160 H1166 0.930 . S
N1161 Li1144 1.990 . S
N1161 C1160 1.314 . S
N1161 C1163 1.279 . S
C1162 C1163 1.358 . S
C1162 C1164 1.356 . S
C1162 H1216 0.930 . S
C1163 N1161 1.279 . S
C1163 C1162 1.358 . S
C1163 H1167 0.930 . S
C1164 C1162 1.356 . S
C1164 C1165 1.348 . S
C1165 C1160 1.353 . S
C1165 C1164 1.348 . S
C1165 H1217 0.929 . S
H1166 C1160 0.930 . S
H1167 C1163 0.930 . S
C1168 N1169 1.314 . S
C1168 C1170 1.353 . S
C1168 H1174 0.930 . S
N1169 Li1145 1.990 . S
N1169 C1168 1.314 . S
N1169 C1172 1.279 . S
C1170 C1168 1.353 . S
C1170 C1173 1.348 . S
C1170 H1218 0.929 . S
C1171 C1172 1.358 . S
C1171 C1173 1.356 . S
C1171 H1219 0.930 . S
C1172 N1169 1.279 . S
C1172 C1171 1.358 . S
C1172 H1175 0.930 . S
C1173 C1170 1.348 . S
C1173 C1171 1.356 . S
H1174 C1168 0.930 . S
H1175 C1172 0.930 . S
C1176 C1178 1.348 . S
C1176 C1179 1.356 . S
C1176 O1206 1.325 . S
N1177 C1180 1.314 . S
N1177 C1181 1.279 . S
C1178 C1176 1.348 . S
C1178 C1180 1.353 . S
C1178 H1220 0.929 . S
C1179 C1176 1.356 . S
C1179 C1181 1.358 . S
C1179 H1221 0.930 . S
C1180 N1177 1.314 . S
C1180 C1178 1.353 . S
C1180 H1222 0.930 . S
C1181 N1177 1.279 . S
C1181 C1179 1.358 . S
C1181 H1223 0.930 . S
C1182 C1183 1.348 . S
C1182 C1184 1.356 . S
C1182 O1207 1.325 . S
C1183 C1182 1.348 . S
C1183 C1185 1.353 . S
C1183 H1224 0.929 . S
C1184 C1182 1.356 . S
C1184 C1186 1.358 . S
C1184 H1225 0.930 . S
C1185 C1183 1.353 . S
C1185 N1187 1.314 . S
C1185 H1226 0.930 . S
C1186 C1184 1.358 . S
C1186 N1187 1.279 . S
C1186 H1227 0.930 . S
N1187 C1185 1.314 . S
N1187 C1186 1.279 . S
C1188 C1190 1.353 . S
C1188 N1191 1.314 . S
C1188 H1194 0.930 . S
C1189 N1191 1.279 . S
C1189 C1192 1.358 . S
C1189 H1195 0.930 . S
C1190 C1188 1.353 . S
C1190 C1193 1.348 . S
C1190 H1228 0.929 . S
N1191 Li1146 1.990 . S
N1191 C1188 1.314 . S
N1191 C1189 1.279 . S
C1192 C1189 1.358 . S
C1192 C1193 1.356 . S
C1192 H1229 0.930 . S
C1193 C1190 1.348 . S
C1193 C1192 1.356 . S
H1194 C1188 0.930 . S
H1195 C1189 0.930 . S
C1196 N1197 1.314 . S
C1196 C1198 1.353 . S
C1196 H1202 0.930 . S
N1197 Li1147 1.990 . S
N1197 C1196 1.314 . S
N1197 C1200 1.279 . S
C1198 C1196 1.353 . S
C1198 C1201 1.348 . S
C1198 H1230 0.929 . S
C1199 C1200 1.358 . S
C1199 C1201 1.356 . S
C1199 H1231 0.930 . S
C1200 N1197 1.279 . S
C1200 C1199 1.358 . S
C1200 H1203 0.930 . S
C1201 C1198 1.348 . S
C1201 C1199 1.356 . S
H1202 C1196 0.930 . S
H1203 C1200 0.930 . S
O1204 Li1144 1.956 . S
O1204 Li1145 1.970 . S
O1204 Li1146 1.961 . S
O1204 C1148 1.325 . S
O1205 Li1144 1.970 . S
O1205 Li1145 1.956 . S
O1205 Li1147 1.961 . S
O1205 C1154 1.325 . S
O1206 Li1144 1.961 . S
O1206 Li1146 1.956 . S
O1206 Li1147 1.970 . S
O1206 C1176 1.325 . S
O1207 Li1145 1.961 . S
O1207 Li1146 1.970 . S
O1207 Li1147 1.956 . S
O1207 C1182 1.325 . S
H1208 C1150 0.929 . S
H1209 C1151 0.930 . S
H1210 C1152 0.930 . S
H1211 C1153 0.930 . S
H1212 C1155 0.930 . S
H1213 C1157 0.929 . S
H1214 C1158 0.930 . S
H1215 C1159 0.930 . S
H1216 C1162 0.930 . S
H1217 C1165 0.929 . S
H1218 C1170 0.929 . S
H1219 C1171 0.930 . S
H1220 C1178 0.929 . S
H1221 C1179 0.930 . S
H1222 C1180 0.930 . S
H1223 C1181 0.930 . S
H1224 C1183 0.929 . S
H1225 C1184 0.930 . S
H1226 C1185 0.930 . S
H1227 C1186 0.930 . S
H1228 C1190 0.929 . S
H1229 C1192 0.930 . S
H1230 C1198 0.929 . S
H1231 C1199 0.930 . S
Li1232 N1249 1.990 . S
Li1232 O1292 1.956 . S
Li1232 O1293 1.970 . S
Li1232 O1294 1.961 . S
Li1233 N1257 1.990 . S
Li1233 O1292 1.970 . S
Li1233 O1293 1.956 . S
Li1233 O1295 1.961 . S
Li1234 N1279 1.990 . S
Li1234 O1292 1.961 . S
Li1234 O1294 1.956 . S
Li1234 O1295 1.970 . S
Li1235 N1285 1.990 . S
Li1235 O1293 1.961 . S
Li1235 O1294 1.970 . S
Li1235 O1295 1.956 . S
C1236 C1238 1.348 . S
C1236 C1239 1.356 . S
C1236 O1292 1.325 . S
N1237 C1240 1.314 . S
N1237 C1241 1.279 . S
C1238 C1236 1.348 . S
C1238 C1240 1.353 . S
C1238 H1296 0.929 . S
C1239 C1236 1.356 . S
C1239 C1241 1.358 . S
C1239 H1297 0.930 . S
C1240 N1237 1.314 . S
C1240 C1238 1.353 . S
C1240 H1298 0.930 . S
C1241 N1237 1.279 . S
C1241 C1239 1.358 . S
C1241 H1299 0.930 . S
C1242 C1245 1.348 . S
C1242 C1246 1.356 . S
C1242 O1293 1.325 . S
C1243 N1244 1.279 . S
C1243 C1246 1.358 . S
C1243 H1300 0.930 . S
N1244 C1243 1.279 . S
N1244 C1247 1.314 . S
C1245 C1242 1.348 . S
C1245 C1247 1.353 . S
C1245 H1301 0.929 . S
C1246 C1242 1.356 . S
C1246 C1243 1.358 . S
C1246 H1302 0.930 . S
C1247 N1244 1.314 . S
C1247 C1245 1.353 . S
C1247 H1303 0.930 . S
C1248 N1249 1.314 . S
C1248 C1253 1.353 . S
C1248 H1254 0.930 . S
N1249 Li1232 1.990 . S
N1249 C1248 1.314 . S
N1249 C1251 1.279 . S
C1250 C1251 1.358 . S
C1250 C1252 1.356 . S
C1250 H1304 0.930 . S
C1251 N1249 1.279 . S
C1251 C1250 1.358 . S
C1251 H1255 0.930 . S
C1252 C1250 1.356 . S
C1252 C1253 1.348 . S
C1253 C1248 1.353 . S
C1253 C1252 1.348 . S
C1253 H1305 0.929 . S
H1254 C1248 0.930 . S
H1255 C1251 0.930 . S
C1256 N1257 1.314 . S
C1256 C1258 1.353 . S
C1256 H1262 0.930 . S
N1257 Li1233 1.990 . S
N1257 C1256 1.314 . S
N1257 C1260 1.279 . S
C1258 C1256 1.353 . S
C1258 C1261 1.348 . S
C1258 H1306 0.929 . S
C1259 C1260 1.358 . S
C1259 C1261 1.356 . S
C1259 H1307 0.930 . S
C1260 N1257 1.279 . S
C1260 C1259 1.358 . S
C1260 H1263 0.930 . S
C1261 C1258 1.348 . S
C1261 C1259 1.356 . S
H1262 C1256 0.930 . S
H1263 C1260 0.930 . S
C1264 C1266 1.348 . S
C1264 C1267 1.356 . S
C1264 O1294 1.325 . S
N1265 C1268 1.314 . S
N1265 C1269 1.279 . S
C1266 C1264 1.348 . S
C1266 C1268 1.353 . S
C1266 H1308 0.929 . S
C1267 C1264 1.356 . S
C1267 C1269 1.358 . S
C1267 H1309 0.930 . S
C1268 N1265 1.314 . S
C1268 C1266 1.353 . S
C1268 H1310 0.930 . S
C1269 N1265 1.279 . S
C1269 C1267 1.358 . S
C1269 H1311 0.930 . S
C1270 C1271 1.348 . S
C1270 C1272 1.356 . S
C1270 O1295 1.325 . S
C1271 C1270 1.348 . S
C1271 C1273 1.353 . S
C1271 H1312 0.929 . S
C1272 C1270 1.356 . S
C1272 C1274 1.358 . S
C1272 H1313 0.930 . S
C1273 C1271 1.353 . S
C1273 N1275 1.314 . S
C1273 H1314 0.930 . S
C1274 C1272 1.358 . S
C1274 N1275 1.279 . S
C1274 H1315 0.930 . S
N1275 C1273 1.314 . S
N1275 C1274 1.279 . S
C1276 C1278 1.353 . S
C1276 N1279 1.314 . S
C1276 H1282 0.930 . S
C1277 N1279 1.279 . S
C1277 C1280 1.358 . S
C1277 H1283 0.930 . S
C1278 C1276 1.353 . S
C1278 C1281 1.348 . S
C1278 H1316 0.929 . S
N1279 Li1234 1.990 . S
N1279 C1276 1.314 . S
N1279 C1277 1.279 . S
C1280 C1277 1.358 . S
C1280 C1281 1.356 . S
C1280 H1317 0.930 . S
C1281 C1278 1.348 . S
C1281 C1280 1.356 . S
H1282 C1276 0.930 . S
H1283 C1277 0.930 . S
C1284 N1285 1.314 . S
C1284 C1286 1.353 . S
C1284 H1290 0.930 . S
N1285 Li1235 1.990 . S
N1285 C1284 1.314 . S
N1285 C1288 1.279 . S
C1286 C1284 1.353 . S
C1286 C1289 1.348 . S
C1286 H1318 0.929 . S
C1287 C1288 1.358 . S
C1287 C1289 1.356 . S
C1287 H1319 0.930 . S
C1288 N1285 1.279 . S
C1288 C1287 1.358 . S
C1288 H1291 0.930 . S
C1289 C1286 1.348 . S
C1289 C1287 1.356 . S
H1290 C1284 0.930 . S
H1291 C1288 0.930 . S
O1292 Li1232 1.956 . S
O1292 Li1233 1.970 . S
O1292 Li1234 1.961 . S
O1292 C1236 1.325 . S
O1293 Li1232 1.970 . S
O1293 Li1233 1.956 . S
O1293 Li1235 1.961 . S
O1293 C1242 1.325 . S
O1294 Li1232 1.961 . S
O1294 Li1234 1.956 . S
O1294 Li1235 1.970 . S
O1294 C1264 1.325 . S
O1295 Li1233 1.961 . S
O1295 Li1234 1.970 . S
O1295 Li1235 1.956 . S
O1295 C1270 1.325 . S
H1296 C1238 0.929 . S
H1297 C1239 0.930 . S
H1298 C1240 0.930 . S
H1299 C1241 0.930 . S
H1300 C1243 0.930 . S
H1301 C1245 0.929 . S
H1302 C1246 0.930 . S
H1303 C1247 0.930 . S
H1304 C1250 0.930 . S
H1305 C1253 0.929 . S
H1306 C1258 0.929 . S
H1307 C1259 0.930 . S
H1308 C1266 0.929 . S
H1309 C1267 0.930 . S
H1310 C1268 0.930 . S
H1311 C1269 0.930 . S
H1312 C1271 0.929 . S
H1313 C1272 0.930 . S
H1314 C1273 0.930 . S
H1315 C1274 0.930 . S
H1316 C1278 0.929 . S
H1317 C1280 0.930 . S
H1318 C1286 0.929 . S
H1319 C1287 0.930 . S
Li1320 N1337 1.990 . S
Li1320 O1380 1.956 . S
Li1320 O1381 1.970 . S
Li1320 O1382 1.961 . S
Li1321 N1345 1.990 . S
Li1321 O1380 1.970 . S
Li1321 O1381 1.956 . S
Li1321 O1383 1.961 . S
Li1322 N1367 1.990 . S
Li1322 O1380 1.961 . S
Li1322 O1382 1.956 . S
Li1322 O1383 1.970 . S
Li1323 N1373 1.990 . S
Li1323 O1381 1.961 . S
Li1323 O1382 1.970 . S
Li1323 O1383 1.956 . S
C1324 C1326 1.348 . S
C1324 C1327 1.356 . S
C1324 O1380 1.325 . S
N1325 C1328 1.314 . S
N1325 C1329 1.279 . S
C1326 C1324 1.348 . S
C1326 C1328 1.353 . S
C1326 H1384 0.929 . S
C1327 C1324 1.356 . S
C1327 C1329 1.358 . S
C1327 H1385 0.930 . S
C1328 N1325 1.314 . S
C1328 C1326 1.353 . S
C1328 H1386 0.930 . S
C1329 N1325 1.279 . S
C1329 C1327 1.358 . S
C1329 H1387 0.930 . S
C1330 C1333 1.348 . S
C1330 C1334 1.356 . S
C1330 O1381 1.325 . S
C1331 N1332 1.279 . S
C1331 C1334 1.358 . S
C1331 H1388 0.930 . S
N1332 C1331 1.279 . S
N1332 C1335 1.314 . S
C1333 C1330 1.348 . S
C1333 C1335 1.353 . S
C1333 H1389 0.929 . S
C1334 C1330 1.356 . S
C1334 C1331 1.358 . S
C1334 H1390 0.930 . S
C1335 N1332 1.314 . S
C1335 C1333 1.353 . S
C1335 H1391 0.930 . S
C1336 N1337 1.314 . S
C1336 C1341 1.353 . S
C1336 H1342 0.930 . S
N1337 Li1320 1.990 . S
N1337 C1336 1.314 . S
N1337 C1339 1.279 . S
C1338 C1339 1.358 . S
C1338 C1340 1.356 . S
C1338 H1392 0.930 . S
C1339 N1337 1.279 . S
C1339 C1338 1.358 . S
C1339 H1343 0.930 . S
C1340 C1338 1.356 . S
C1340 C1341 1.348 . S
C1341 C1336 1.353 . S
C1341 C1340 1.348 . S
C1341 H1393 0.929 . S
H1342 C1336 0.930 . S
H1343 C1339 0.930 . S
C1344 N1345 1.314 . S
C1344 C1346 1.353 . S
C1344 H1350 0.930 . S
N1345 Li1321 1.990 . S
N1345 C1344 1.314 . S
N1345 C1348 1.279 . S
C1346 C1344 1.353 . S
C1346 C1349 1.348 . S
C1346 H1394 0.929 . S
C1347 C1348 1.358 . S
C1347 C1349 1.356 . S
C1347 H1395 0.930 . S
C1348 N1345 1.279 . S
C1348 C1347 1.358 . S
C1348 H1351 0.930 . S
C1349 C1346 1.348 . S
C1349 C1347 1.356 . S
H1350 C1344 0.930 . S
H1351 C1348 0.930 . S
C1352 C1354 1.348 . S
C1352 C1355 1.356 . S
C1352 O1382 1.325 . S
N1353 C1356 1.314 . S
N1353 C1357 1.279 . S
C1354 C1352 1.348 . S
C1354 C1356 1.353 . S
C1354 H1396 0.929 . S
C1355 C1352 1.356 . S
C1355 C1357 1.358 . S
C1355 H1397 0.930 . S
C1356 N1353 1.314 . S
C1356 C1354 1.353 . S
C1356 H1398 0.930 . S
C1357 N1353 1.279 . S
C1357 C1355 1.358 . S
C1357 H1399 0.930 . S
C1358 C1359 1.348 . S
C1358 C1360 1.356 . S
C1358 O1383 1.325 . S
C1359 C1358 1.348 . S
C1359 C1361 1.353 . S
C1359 H1400 0.929 . S
C1360 C1358 1.356 . S
C1360 C1362 1.358 . S
C1360 H1401 0.930 . S
C1361 C1359 1.353 . S
C1361 N1363 1.314 . S
C1361 H1402 0.930 . S
C1362 C1360 1.358 . S
C1362 N1363 1.279 . S
C1362 H1403 0.930 . S
N1363 C1361 1.314 . S
N1363 C1362 1.279 . S
C1364 C1366 1.353 . S
C1364 N1367 1.314 . S
C1364 H1370 0.930 . S
C1365 N1367 1.279 . S
C1365 C1368 1.358 . S
C1365 H1371 0.930 . S
C1366 C1364 1.353 . S
C1366 C1369 1.348 . S
C1366 H1404 0.929 . S
N1367 Li1322 1.990 . S
N1367 C1364 1.314 . S
N1367 C1365 1.279 . S
C1368 C1365 1.358 . S
C1368 C1369 1.356 . S
C1368 H1405 0.930 . S
C1369 C1366 1.348 . S
C1369 C1368 1.356 . S
H1370 C1364 0.930 . S
H1371 C1365 0.930 . S
C1372 N1373 1.314 . S
C1372 C1374 1.353 . S
C1372 H1378 0.930 . S
N1373 Li1323 1.990 . S
N1373 C1372 1.314 . S
N1373 C1376 1.279 . S
C1374 C1372 1.353 . S
C1374 C1377 1.348 . S
C1374 H1406 0.929 . S
C1375 C1376 1.358 . S
C1375 C1377 1.356 . S
C1375 H1407 0.930 . S
C1376 N1373 1.279 . S
C1376 C1375 1.358 . S
C1376 H1379 0.930 . S
C1377 C1374 1.348 . S
C1377 C1375 1.356 . S
H1378 C1372 0.930 . S
H1379 C1376 0.930 . S
O1380 Li1320 1.956 . S
O1380 Li1321 1.970 . S
O1380 Li1322 1.961 . S
O1380 C1324 1.325 . S
O1381 Li1320 1.970 . S
O1381 Li1321 1.956 . S
O1381 Li1323 1.961 . S
O1381 C1330 1.325 . S
O1382 Li1320 1.961 . S
O1382 Li1322 1.956 . S
O1382 Li1323 1.970 . S
O1382 C1352 1.325 . S
O1383 Li1321 1.961 . S
O1383 Li1322 1.970 . S
O1383 Li1323 1.956 . S
O1383 C1358 1.325 . S
H1384 C1326 0.929 . S
H1385 C1327 0.930 . S
H1386 C1328 0.930 . S
H1387 C1329 0.930 . S
H1388 C1331 0.930 . S
H1389 C1333 0.929 . S
H1390 C1334 0.930 . S
H1391 C1335 0.930 . S
H1392 C1338 0.930 . S
H1393 C1341 0.929 . S
H1394 C1346 0.929 . S
H1395 C1347 0.930 . S
H1396 C1354 0.929 . S
H1397 C1355 0.930 . S
H1398 C1356 0.930 . S
H1399 C1357 0.930 . S
H1400 C1359 0.929 . S
H1401 C1360 0.930 . S
H1402 C1361 0.930 . S
H1403 C1362 0.930 . S
H1404 C1366 0.929 . S
H1405 C1368 0.930 . S
H1406 C1374 0.929 . S
H1407 C1375 0.930 . S
Li1408 N1425 1.990 . S
Li1408 O1468 1.956 . S
Li1408 O1469 1.970 . S
Li1408 O1470 1.961 . S
Li1409 N1433 1.990 . S
Li1409 O1468 1.970 . S
Li1409 O1469 1.956 . S
Li1409 O1471 1.961 . S
Li1410 N1455 1.990 . S
Li1410 O1468 1.961 . S
Li1410 O1470 1.956 . S
Li1410 O1471 1.970 . S
Li1411 N1461 1.990 . S
Li1411 O1469 1.961 . S
Li1411 O1470 1.970 . S
Li1411 O1471 1.956 . S
C1412 C1414 1.348 . S
C1412 C1415 1.356 . S
C1412 O1468 1.325 . S
N1413 C1416 1.314 . S
N1413 C1417 1.279 . S
C1414 C1412 1.348 . S
C1414 C1416 1.353 . S
C1414 H1472 0.929 . S
C1415 C1412 1.356 . S
C1415 C1417 1.358 . S
C1415 H1473 0.930 . S
C1416 N1413 1.314 . S
C1416 C1414 1.353 . S
C1416 H1474 0.930 . S
C1417 N1413 1.279 . S
C1417 C1415 1.358 . S
C1417 H1475 0.930 . S
C1418 C1421 1.348 . S
C1418 C1422 1.356 . S
C1418 O1469 1.325 . S
C1419 N1420 1.279 . S
C1419 C1422 1.358 . S
C1419 H1476 0.930 . S
N1420 C1419 1.279 . S
N1420 C1423 1.314 . S
C1421 C1418 1.348 . S
C1421 C1423 1.353 . S
C1421 H1477 0.929 . S
C1422 C1418 1.356 . S
C1422 C1419 1.358 . S
C1422 H1478 0.930 . S
C1423 N1420 1.314 . S
C1423 C1421 1.353 . S
C1423 H1479 0.930 . S
C1424 N1425 1.314 . S
C1424 C1429 1.353 . S
C1424 H1430 0.930 . S
N1425 Li1408 1.990 . S
N1425 C1424 1.314 . S
N1425 C1427 1.279 . S
C1426 C1427 1.358 . S
C1426 C1428 1.356 . S
C1426 H1480 0.930 . S
C1427 N1425 1.279 . S
C1427 C1426 1.358 . S
C1427 H1431 0.930 . S
C1428 C1426 1.356 . S
C1428 C1429 1.348 . S
C1429 C1424 1.353 . S
C1429 C1428 1.348 . S
C1429 H1481 0.929 . S
H1430 C1424 0.930 . S
H1431 C1427 0.930 . S
C1432 N1433 1.314 . S
C1432 C1434 1.353 . S
C1432 H1438 0.930 . S
N1433 Li1409 1.990 . S
N1433 C1432 1.314 . S
N1433 C1436 1.279 . S
C1434 C1432 1.353 . S
C1434 C1437 1.348 . S
C1434 H1482 0.929 . S
C1435 C1436 1.358 . S
C1435 C1437 1.356 . S
C1435 H1483 0.930 . S
C1436 N1433 1.279 . S
C1436 C1435 1.358 . S
C1436 H1439 0.930 . S
C1437 C1434 1.348 . S
C1437 C1435 1.356 . S
H1438 C1432 0.930 . S
H1439 C1436 0.930 . S
C1440 C1442 1.348 . S
C1440 C1443 1.356 . S
C1440 O1470 1.325 . S
N1441 C1444 1.314 . S
N1441 C1445 1.279 . S
C1442 C1440 1.348 . S
C1442 C1444 1.353 . S
C1442 H1484 0.929 . S
C1443 C1440 1.356 . S
C1443 C1445 1.358 . S
C1443 H1485 0.930 . S
C1444 N1441 1.314 . S
C1444 C1442 1.353 . S
C1444 H1486 0.930 . S
C1445 N1441 1.279 . S
C1445 C1443 1.358 . S
C1445 H1487 0.930 . S
C1446 C1447 1.348 . S
C1446 C1448 1.356 . S
C1446 O1471 1.325 . S
C1447 C1446 1.348 . S
C1447 C1449 1.353 . S
C1447 H1488 0.929 . S
C1448 C1446 1.356 . S
C1448 C1450 1.358 . S
C1448 H1489 0.930 . S
C1449 C1447 1.353 . S
C1449 N1451 1.314 . S
C1449 H1490 0.930 . S
C1450 C1448 1.358 . S
C1450 N1451 1.279 . S
C1450 H1491 0.930 . S
N1451 C1449 1.314 . S
N1451 C1450 1.279 . S
C1452 C1454 1.353 . S
C1452 N1455 1.314 . S
C1452 H1458 0.930 . S
C1453 N1455 1.279 . S
C1453 C1456 1.358 . S
C1453 H1459 0.930 . S
C1454 C1452 1.353 . S
C1454 C1457 1.348 . S
C1454 H1492 0.929 . S
N1455 Li1410 1.990 . S
N1455 C1452 1.314 . S
N1455 C1453 1.279 . S
C1456 C1453 1.358 . S
C1456 C1457 1.356 . S
C1456 H1493 0.930 . S
C1457 C1454 1.348 . S
C1457 C1456 1.356 . S
H1458 C1452 0.930 . S
H1459 C1453 0.930 . S
C1460 N1461 1.314 . S
C1460 C1462 1.353 . S
C1460 H1466 0.930 . S
N1461 Li1411 1.990 . S
N1461 C1460 1.314 . S
N1461 C1464 1.279 . S
C1462 C1460 1.353 . S
C1462 C1465 1.348 . S
C1462 H1494 0.929 . S
C1463 C1464 1.358 . S
C1463 C1465 1.356 . S
C1463 H1495 0.930 . S
C1464 N1461 1.279 . S
C1464 C1463 1.358 . S
C1464 H1467 0.930 . S
C1465 C1462 1.348 . S
C1465 C1463 1.356 . S
H1466 C1460 0.930 . S
H1467 C1464 0.930 . S
O1468 Li1408 1.956 . S
O1468 Li1409 1.970 . S
O1468 Li1410 1.961 . S
O1468 C1412 1.325 . S
O1469 Li1408 1.970 . S
O1469 Li1409 1.956 . S
O1469 Li1411 1.961 . S
O1469 C1418 1.325 . S
O1470 Li1408 1.961 . S
O1470 Li1410 1.956 . S
O1470 Li1411 1.970 . S
O1470 C1440 1.325 . S
O1471 Li1409 1.961 . S
O1471 Li1410 1.970 . S
O1471 Li1411 1.956 . S
O1471 C1446 1.325 . S
H1472 C1414 0.929 . S
H1473 C1415 0.930 . S
H1474 C1416 0.930 . S
H1475 C1417 0.930 . S
H1476 C1419 0.930 . S
H1477 C1421 0.929 . S
H1478 C1422 0.930 . S
H1479 C1423 0.930 . S
H1480 C1426 0.930 . S
H1481 C1429 0.929 . S
H1482 C1434 0.929 . S
H1483 C1435 0.930 . S
H1484 C1442 0.929 . S
H1485 C1443 0.930 . S
H1486 C1444 0.930 . S
H1487 C1445 0.930 . S
H1488 C1447 0.929 . S
H1489 C1448 0.930 . S
H1490 C1449 0.930 . S
H1491 C1450 0.930 . S
H1492 C1454 0.929 . S
H1493 C1456 0.930 . S
H1494 C1462 0.929 . S
H1495 C1463 0.930 . S
Li1496 N1513 1.990 . S
Li1496 O1556 1.956 . S
Li1496 O1557 1.970 . S
Li1496 O1558 1.961 . S
Li1497 N1521 1.990 . S
Li1497 O1556 1.970 . S
Li1497 O1557 1.956 . S
Li1497 O1559 1.961 . S
Li1498 N1543 1.990 . S
Li1498 O1556 1.961 . S
Li1498 O1558 1.956 . S
Li1498 O1559 1.970 . S
Li1499 N1549 1.990 . S
Li1499 O1557 1.961 . S
Li1499 O1558 1.970 . S
Li1499 O1559 1.956 . S
C1500 C1502 1.348 . S
C1500 C1503 1.356 . S
C1500 O1556 1.325 . S
N1501 C1504 1.314 . S
N1501 C1505 1.279 . S
C1502 C1500 1.348 . S
C1502 C1504 1.353 . S
C1502 H1560 0.929 . S
C1503 C1500 1.356 . S
C1503 C1505 1.358 . S
C1503 H1561 0.930 . S
C1504 N1501 1.314 . S
C1504 C1502 1.353 . S
C1504 H1562 0.930 . S
C1505 N1501 1.279 . S
C1505 C1503 1.358 . S
C1505 H1563 0.930 . S
C1506 C1509 1.348 . S
C1506 C1510 1.356 . S
C1506 O1557 1.325 . S
C1507 N1508 1.279 . S
C1507 C1510 1.358 . S
C1507 H1564 0.930 . S
N1508 C1507 1.279 . S
N1508 C1511 1.314 . S
C1509 C1506 1.348 . S
C1509 C1511 1.353 . S
C1509 H1565 0.929 . S
C1510 C1506 1.356 . S
C1510 C1507 1.358 . S
C1510 H1566 0.930 . S
C1511 N1508 1.314 . S
C1511 C1509 1.353 . S
C1511 H1567 0.930 . S
C1512 N1513 1.314 . S
C1512 C1517 1.353 . S
C1512 H1518 0.930 . S
N1513 Li1496 1.990 . S
N1513 C1512 1.314 . S
N1513 C1515 1.279 . S
C1514 C1515 1.358 . S
C1514 C1516 1.356 . S
C1514 H1568 0.930 . S
C1515 N1513 1.279 . S
C1515 C1514 1.358 . S
C1515 H1519 0.930 . S
C1516 C1514 1.356 . S
C1516 C1517 1.348 . S
C1517 C1512 1.353 . S
C1517 C1516 1.348 . S
C1517 H1569 0.929 . S
H1518 C1512 0.930 . S
H1519 C1515 0.930 . S
C1520 N1521 1.314 . S
C1520 C1522 1.353 . S
C1520 H1526 0.930 . S
N1521 Li1497 1.990 . S
N1521 C1520 1.314 . S
N1521 C1524 1.279 . S
C1522 C1520 1.353 . S
C1522 C1525 1.348 . S
C1522 H1570 0.929 . S
C1523 C1524 1.358 . S
C1523 C1525 1.356 . S
C1523 H1571 0.930 . S
C1524 N1521 1.279 . S
C1524 C1523 1.358 . S
C1524 H1527 0.930 . S
C1525 C1522 1.348 . S
C1525 C1523 1.356 . S
H1526 C1520 0.930 . S
H1527 C1524 0.930 . S
C1528 C1530 1.348 . S
C1528 C1531 1.356 . S
C1528 O1558 1.325 . S
N1529 C1532 1.314 . S
N1529 C1533 1.279 . S
C1530 C1528 1.348 . S
C1530 C1532 1.353 . S
C1530 H1572 0.929 . S
C1531 C1528 1.356 . S
C1531 C1533 1.358 . S
C1531 H1573 0.930 . S
C1532 N1529 1.314 . S
C1532 C1530 1.353 . S
C1532 H1574 0.930 . S
C1533 N1529 1.279 . S
C1533 C1531 1.358 . S
C1533 H1575 0.930 . S
C1534 C1535 1.348 . S
C1534 C1536 1.356 . S
C1534 O1559 1.325 . S
C1535 C1534 1.348 . S
C1535 C1537 1.353 . S
C1535 H1576 0.929 . S
C1536 C1534 1.356 . S
C1536 C1538 1.358 . S
C1536 H1577 0.930 . S
C1537 C1535 1.353 . S
C1537 N1539 1.314 . S
C1537 H1578 0.930 . S
C1538 C1536 1.358 . S
C1538 N1539 1.279 . S
C1538 H1579 0.930 . S
N1539 C1537 1.314 . S
N1539 C1538 1.279 . S
C1540 C1542 1.353 . S
C1540 N1543 1.314 . S
C1540 H1546 0.930 . S
C1541 N1543 1.279 . S
C1541 C1544 1.358 . S
C1541 H1547 0.930 . S
C1542 C1540 1.353 . S
C1542 C1545 1.348 . S
C1542 H1580 0.929 . S
N1543 Li1498 1.990 . S
N1543 C1540 1.314 . S
N1543 C1541 1.279 . S
C1544 C1541 1.358 . S
C1544 C1545 1.356 . S
C1544 H1581 0.930 . S
C1545 C1542 1.348 . S
C1545 C1544 1.356 . S
H1546 C1540 0.930 . S
H1547 C1541 0.930 . S
C1548 N1549 1.314 . S
C1548 C1550 1.353 . S
C1548 H1554 0.930 . S
N1549 Li1499 1.990 . S
N1549 C1548 1.314 . S
N1549 C1552 1.279 . S
C1550 C1548 1.353 . S
C1550 C1553 1.348 . S
C1550 H1582 0.929 . S
C1551 C1552 1.358 . S
C1551 C1553 1.356 . S
C1551 H1583 0.930 . S
C1552 N1549 1.279 . S
C1552 C1551 1.358 . S
C1552 H1555 0.930 . S
C1553 C1550 1.348 . S
C1553 C1551 1.356 . S
H1554 C1548 0.930 . S
H1555 C1552 0.930 . S
O1556 Li1496 1.956 . S
O1556 Li1497 1.970 . S
O1556 Li1498 1.961 . S
O1556 C1500 1.325 . S
O1557 Li1496 1.970 . S
O1557 Li1497 1.956 . S
O1557 Li1499 1.961 . S
O1557 C1506 1.325 . S
O1558 Li1496 1.961 . S
O1558 Li1498 1.956 . S
O1558 Li1499 1.970 . S
O1558 C1528 1.325 . S
O1559 Li1497 1.961 . S
O1559 Li1498 1.970 . S
O1559 Li1499 1.956 . S
O1559 C1534 1.325 . S
H1560 C1502 0.929 . S
H1561 C1503 0.930 . S
H1562 C1504 0.930 . S
H1563 C1505 0.930 . S
H1564 C1507 0.930 . S
H1565 C1509 0.929 . S
H1566 C1510 0.930 . S
H1567 C1511 0.930 . S
H1568 C1514 0.930 . S
H1569 C1517 0.929 . S
H1570 C1522 0.929 . S
H1571 C1523 0.930 . S
H1572 C1530 0.929 . S
H1573 C1531 0.930 . S
H1574 C1532 0.930 . S
H1575 C1533 0.930 . S
H1576 C1535 0.929 . S
H1577 C1536 0.930 . S
H1578 C1537 0.930 . S
H1579 C1538 0.930 . S
H1580 C1542 0.929 . S
H1581 C1544 0.930 . S
H1582 C1550 0.929 . S
H1583 C1551 0.930 . S
Li1584 N1601 1.990 . S
Li1584 O1644 1.956 . S
Li1584 O1645 1.970 . S
Li1584 O1646 1.961 . S
Li1585 N1609 1.990 . S
Li1585 O1644 1.970 . S
Li1585 O1645 1.956 . S
Li1585 O1647 1.961 . S
Li1586 N1631 1.990 . S
Li1586 O1644 1.961 . S
Li1586 O1646 1.956 . S
Li1586 O1647 1.970 . S
Li1587 N1637 1.990 . S
Li1587 O1645 1.961 . S
Li1587 O1646 1.970 . S
Li1587 O1647 1.956 . S
C1588 C1590 1.348 . S
C1588 C1591 1.356 . S
C1588 O1644 1.325 . S
N1589 C1592 1.314 . S
N1589 C1593 1.279 . S
C1590 C1588 1.348 . S
C1590 C1592 1.353 . S
C1590 H1648 0.929 . S
C1591 C1588 1.356 . S
C1591 C1593 1.358 . S
C1591 H1649 0.930 . S
C1592 N1589 1.314 . S
C1592 C1590 1.353 . S
C1592 H1650 0.930 . S
C1593 N1589 1.279 . S
C1593 C1591 1.358 . S
C1593 H1651 0.930 . S
C1594 C1597 1.348 . S
C1594 C1598 1.356 . S
C1594 O1645 1.325 . S
C1595 N1596 1.279 . S
C1595 C1598 1.358 . S
C1595 H1652 0.930 . S
N1596 C1595 1.279 . S
N1596 C1599 1.314 . S
C1597 C1594 1.348 . S
C1597 C1599 1.353 . S
C1597 H1653 0.929 . S
C1598 C1594 1.356 . S
C1598 C1595 1.358 . S
C1598 H1654 0.930 . S
C1599 N1596 1.314 . S
C1599 C1597 1.353 . S
C1599 H1655 0.930 . S
C1600 N1601 1.314 . S
C1600 C1605 1.353 . S
C1600 H1606 0.930 . S
N1601 Li1584 1.990 . S
N1601 C1600 1.314 . S
N1601 C1603 1.279 . S
C1602 C1603 1.358 . S
C1602 C1604 1.356 . S
C1602 H1656 0.930 . S
C1603 N1601 1.279 . S
C1603 C1602 1.358 . S
C1603 H1607 0.930 . S
C1604 C1602 1.356 . S
C1604 C1605 1.348 . S
C1605 C1600 1.353 . S
C1605 C1604 1.348 . S
C1605 H1657 0.929 . S
H1606 C1600 0.930 . S
H1607 C1603 0.930 . S
C1608 N1609 1.314 . S
C1608 C1610 1.353 . S
C1608 H1614 0.930 . S
N1609 Li1585 1.990 . S
N1609 C1608 1.314 . S
N1609 C1612 1.279 . S
C1610 C1608 1.353 . S
C1610 C1613 1.348 . S
C1610 H1658 0.929 . S
C1611 C1612 1.358 . S
C1611 C1613 1.356 . S
C1611 H1659 0.930 . S
C1612 N1609 1.279 . S
C1612 C1611 1.358 . S
C1612 H1615 0.930 . S
C1613 C1610 1.348 . S
C1613 C1611 1.356 . S
H1614 C1608 0.930 . S
H1615 C1612 0.930 . S
C1616 C1618 1.348 . S
C1616 C1619 1.356 . S
C1616 O1646 1.325 . S
N1617 C1620 1.314 . S
N1617 C1621 1.279 . S
C1618 C1616 1.348 . S
C1618 C1620 1.353 . S
C1618 H1660 0.929 . S
C1619 C1616 1.356 . S
C1619 C1621 1.358 . S
C1619 H1661 0.930 . S
C1620 N1617 1.314 . S
C1620 C1618 1.353 . S
C1620 H1662 0.930 . S
C1621 N1617 1.279 . S
C1621 C1619 1.358 . S
C1621 H1663 0.930 . S
C1622 C1623 1.348 . S
C1622 C1624 1.356 . S
C1622 O1647 1.325 . S
C1623 C1622 1.348 . S
C1623 C1625 1.353 . S
C1623 H1664 0.929 . S
C1624 C1622 1.356 . S
C1624 C1626 1.358 . S
C1624 H1665 0.930 . S
C1625 C1623 1.353 . S
C1625 N1627 1.314 . S
C1625 H1666 0.930 . S
C1626 C1624 1.358 . S
C1626 N1627 1.279 . S
C1626 H1667 0.930 . S
N1627 C1625 1.314 . S
N1627 C1626 1.279 . S
C1628 C1630 1.353 . S
C1628 N1631 1.314 . S
C1628 H1634 0.930 . S
C1629 N1631 1.279 . S
C1629 C1632 1.358 . S
C1629 H1635 0.930 . S
C1630 C1628 1.353 . S
C1630 C1633 1.348 . S
C1630 H1668 0.929 . S
N1631 Li1586 1.990 . S
N1631 C1628 1.314 . S
N1631 C1629 1.279 . S
C1632 C1629 1.358 . S
C1632 C1633 1.356 . S
C1632 H1669 0.930 . S
C1633 C1630 1.348 . S
C1633 C1632 1.356 . S
H1634 C1628 0.930 . S
H1635 C1629 0.930 . S
C1636 N1637 1.314 . S
C1636 C1638 1.353 . S
C1636 H1642 0.930 . S
N1637 Li1587 1.990 . S
N1637 C1636 1.314 . S
N1637 C1640 1.279 . S
C1638 C1636 1.353 . S
C1638 C1641 1.348 . S
C1638 H1670 0.929 . S
C1639 C1640 1.358 . S
C1639 C1641 1.356 . S
C1639 H1671 0.930 . S
C1640 N1637 1.279 . S
C1640 C1639 1.358 . S
C1640 H1643 0.930 . S
C1641 C1638 1.348 . S
C1641 C1639 1.356 . S
H1642 C1636 0.930 . S
H1643 C1640 0.930 . S
O1644 Li1584 1.956 . S
O1644 Li1585 1.970 . S
O1644 Li1586 1.961 . S
O1644 C1588 1.325 . S
O1645 Li1584 1.970 . S
O1645 Li1585 1.956 . S
O1645 Li1587 1.961 . S
O1645 C1594 1.325 . S
O1646 Li1584 1.961 . S
O1646 Li1586 1.956 . S
O1646 Li1587 1.970 . S
O1646 C1616 1.325 . S
O1647 Li1585 1.961 . S
O1647 Li1586 1.970 . S
O1647 Li1587 1.956 . S
O1647 C1622 1.325 . S
H1648 C1590 0.929 . S
H1649 C1591 0.930 . S
H1650 C1592 0.930 . S
H1651 C1593 0.930 . S
H1652 C1595 0.930 . S
H1653 C1597 0.929 . S
H1654 C1598 0.930 . S
H1655 C1599 0.930 . S
H1656 C1602 0.930 . S
H1657 C1605 0.929 . S
H1658 C1610 0.929 . S
H1659 C1611 0.930 . S
H1660 C1618 0.929 . S
H1661 C1619 0.930 . S
H1662 C1620 0.930 . S
H1663 C1621 0.930 . S
H1664 C1623 0.929 . S
H1665 C1624 0.930 . S
H1666 C1625 0.930 . S
H1667 C1626 0.930 . S
H1668 C1630 0.929 . S
H1669 C1632 0.930 . S
H1670 C1638 0.929 . S
H1671 C1639 0.930 . S
Li1672 N1689 1.990 . S
Li1672 O1732 1.956 . S
Li1672 O1733 1.970 . S
Li1672 O1734 1.961 . S
Li1673 N1697 1.990 . S
Li1673 O1732 1.970 . S
Li1673 O1733 1.956 . S
Li1673 O1735 1.961 . S
Li1674 N1719 1.990 . S
Li1674 O1732 1.961 . S
Li1674 O1734 1.956 . S
Li1674 O1735 1.970 . S
Li1675 N1725 1.990 . S
Li1675 O1733 1.961 . S
Li1675 O1734 1.970 . S
Li1675 O1735 1.956 . S
C1676 C1678 1.348 . S
C1676 C1679 1.356 . S
C1676 O1732 1.325 . S
N1677 C1680 1.314 . S
N1677 C1681 1.279 . S
C1678 C1676 1.348 . S
C1678 C1680 1.353 . S
C1678 H1736 0.929 . S
C1679 C1676 1.356 . S
C1679 C1681 1.358 . S
C1679 H1737 0.930 . S
C1680 N1677 1.314 . S
C1680 C1678 1.353 . S
C1680 H1738 0.930 . S
C1681 N1677 1.279 . S
C1681 C1679 1.358 . S
C1681 H1739 0.930 . S
C1682 C1685 1.348 . S
C1682 C1686 1.356 . S
C1682 O1733 1.325 . S
C1683 N1684 1.279 . S
C1683 C1686 1.358 . S
C1683 H1740 0.930 . S
N1684 C1683 1.279 . S
N1684 C1687 1.314 . S
C1685 C1682 1.348 . S
C1685 C1687 1.353 . S
C1685 H1741 0.929 . S
C1686 C1682 1.356 . S
C1686 C1683 1.358 . S
C1686 H1742 0.930 . S
C1687 N1684 1.314 . S
C1687 C1685 1.353 . S
C1687 H1743 0.930 . S
C1688 N1689 1.314 . S
C1688 C1693 1.353 . S
C1688 H1694 0.930 . S
N1689 Li1672 1.990 . S
N1689 C1688 1.314 . S
N1689 C1691 1.279 . S
C1690 C1691 1.358 . S
C1690 C1692 1.356 . S
C1690 H1744 0.930 . S
C1691 N1689 1.279 . S
C1691 C1690 1.358 . S
C1691 H1695 0.930 . S
C1692 C1690 1.356 . S
C1692 C1693 1.348 . S
C1693 C1688 1.353 . S
C1693 C1692 1.348 . S
C1693 H1745 0.929 . S
H1694 C1688 0.930 . S
H1695 C1691 0.930 . S
C1696 N1697 1.314 . S
C1696 C1698 1.353 . S
C1696 H1702 0.930 . S
N1697 Li1673 1.990 . S
N1697 C1696 1.314 . S
N1697 C1700 1.279 . S
C1698 C1696 1.353 . S
C1698 C1701 1.348 . S
C1698 H1746 0.929 . S
C1699 C1700 1.358 . S
C1699 C1701 1.356 . S
C1699 H1747 0.930 . S
C1700 N1697 1.279 . S
C1700 C1699 1.358 . S
C1700 H1703 0.930 . S
C1701 C1698 1.348 . S
C1701 C1699 1.356 . S
H1702 C1696 0.930 . S
H1703 C1700 0.930 . S
C1704 C1706 1.348 . S
C1704 C1707 1.356 . S
C1704 O1734 1.325 . S
N1705 C1708 1.314 . S
N1705 C1709 1.279 . S
C1706 C1704 1.348 . S
C1706 C1708 1.353 . S
C1706 H1748 0.929 . S
C1707 C1704 1.356 . S
C1707 C1709 1.358 . S
C1707 H1749 0.930 . S
C1708 N1705 1.314 . S
C1708 C1706 1.353 . S
C1708 H1750 0.930 . S
C1709 N1705 1.279 . S
C1709 C1707 1.358 . S
C1709 H1751 0.930 . S
C1710 C1711 1.348 . S
C1710 C1712 1.356 . S
C1710 O1735 1.325 . S
C1711 C1710 1.348 . S
C1711 C1713 1.353 . S
C1711 H1752 0.929 . S
C1712 C1710 1.356 . S
C1712 C1714 1.358 . S
C1712 H1753 0.930 . S
C1713 C1711 1.353 . S
C1713 N1715 1.314 . S
C1713 H1754 0.930 . S
C1714 C1712 1.358 . S
C1714 N1715 1.279 . S
C1714 H1755 0.930 . S
N1715 C1713 1.314 . S
N1715 C1714 1.279 . S
C1716 C1718 1.353 . S
C1716 N1719 1.314 . S
C1716 H1722 0.930 . S
C1717 N1719 1.279 . S
C1717 C1720 1.358 . S
C1717 H1723 0.930 . S
C1718 C1716 1.353 . S
C1718 C1721 1.348 . S
C1718 H1756 0.929 . S
N1719 Li1674 1.990 . S
N1719 C1716 1.314 . S
N1719 C1717 1.279 . S
C1720 C1717 1.358 . S
C1720 C1721 1.356 . S
C1720 H1757 0.930 . S
C1721 C1718 1.348 . S
C1721 C1720 1.356 . S
H1722 C1716 0.930 . S
H1723 C1717 0.930 . S
C1724 N1725 1.314 . S
C1724 C1726 1.353 . S
C1724 H1730 0.930 . S
N1725 Li1675 1.990 . S
N1725 C1724 1.314 . S
N1725 C1728 1.279 . S
C1726 C1724 1.353 . S
C1726 C1729 1.348 . S
C1726 H1758 0.929 . S
C1727 C1728 1.358 . S
C1727 C1729 1.356 . S
C1727 H1759 0.930 . S
C1728 N1725 1.279 . S
C1728 C1727 1.358 . S
C1728 H1731 0.930 . S
C1729 C1726 1.348 . S
C1729 C1727 1.356 . S
H1730 C1724 0.930 . S
H1731 C1728 0.930 . S
O1732 Li1672 1.956 . S
O1732 Li1673 1.970 . S
O1732 Li1674 1.961 . S
O1732 C1676 1.325 . S
O1733 Li1672 1.970 . S
O1733 Li1673 1.956 . S
O1733 Li1675 1.961 . S
O1733 C1682 1.325 . S
O1734 Li1672 1.961 . S
O1734 Li1674 1.956 . S
O1734 Li1675 1.970 . S
O1734 C1704 1.325 . S
O1735 Li1673 1.961 . S
O1735 Li1674 1.970 . S
O1735 Li1675 1.956 . S
O1735 C1710 1.325 . S
H1736 C1678 0.929 . S
H1737 C1679 0.930 . S
H1738 C1680 0.930 . S
H1739 C1681 0.930 . S
H1740 C1683 0.930 . S
H1741 C1685 0.929 . S
H1742 C1686 0.930 . S
H1743 C1687 0.930 . S
H1744 C1690 0.930 . S
H1745 C1693 0.929 . S
H1746 C1698 0.929 . S
H1747 C1699 0.930 . S
H1748 C1706 0.929 . S
H1749 C1707 0.930 . S
H1750 C1708 0.930 . S
H1751 C1709 0.930 . S
H1752 C1711 0.929 . S
H1753 C1712 0.930 . S
H1754 C1713 0.930 . S
H1755 C1714 0.930 . S
H1756 C1718 0.929 . S
H1757 C1720 0.930 . S
H1758 C1726 0.929 . S
H1759 C1727 0.930 . S
Li1760 N1777 1.990 . S
Li1760 O1820 1.956 . S
Li1760 O1821 1.970 . S
Li1760 O1822 1.961 . S
Li1761 N1785 1.990 . S
Li1761 O1820 1.970 . S
Li1761 O1821 1.956 . S
Li1761 O1823 1.961 . S
Li1762 N1807 1.990 . S
Li1762 O1820 1.961 . S
Li1762 O1822 1.956 . S
Li1762 O1823 1.970 . S
Li1763 N1813 1.990 . S
Li1763 O1821 1.961 . S
Li1763 O1822 1.970 . S
Li1763 O1823 1.956 . S
C1764 C1766 1.348 . S
C1764 C1767 1.356 . S
C1764 O1820 1.325 . S
N1765 C1768 1.314 . S
N1765 C1769 1.279 . S
C1766 C1764 1.348 . S
C1766 C1768 1.353 . S
C1766 H1824 0.929 . S
C1767 C1764 1.356 . S
C1767 C1769 1.358 . S
C1767 H1825 0.930 . S
C1768 N1765 1.314 . S
C1768 C1766 1.353 . S
C1768 H1826 0.930 . S
C1769 N1765 1.279 . S
C1769 C1767 1.358 . S
C1769 H1827 0.930 . S
C1770 C1773 1.348 . S
C1770 C1774 1.356 . S
C1770 O1821 1.325 . S
C1771 N1772 1.279 . S
C1771 C1774 1.358 . S
C1771 H1828 0.930 . S
N1772 C1771 1.279 . S
N1772 C1775 1.314 . S
C1773 C1770 1.348 . S
C1773 C1775 1.353 . S
C1773 H1829 0.929 . S
C1774 C1770 1.356 . S
C1774 C1771 1.358 . S
C1774 H1830 0.930 . S
C1775 N1772 1.314 . S
C1775 C1773 1.353 . S
C1775 H1831 0.930 . S
C1776 N1777 1.314 . S
C1776 C1781 1.353 . S
C1776 H1782 0.930 . S
N1777 Li1760 1.990 . S
N1777 C1776 1.314 . S
N1777 C1779 1.279 . S
C1778 C1779 1.358 . S
C1778 C1780 1.356 . S
C1778 H1832 0.930 . S
C1779 N1777 1.279 . S
C1779 C1778 1.358 . S
C1779 H1783 0.930 . S
C1780 C1778 1.356 . S
C1780 C1781 1.348 . S
C1781 C1776 1.353 . S
C1781 C1780 1.348 . S
C1781 H1833 0.929 . S
H1782 C1776 0.930 . S
H1783 C1779 0.930 . S
C1784 N1785 1.314 . S
C1784 C1786 1.353 . S
C1784 H1790 0.930 . S
N1785 Li1761 1.990 . S
N1785 C1784 1.314 . S
N1785 C1788 1.279 . S
C1786 C1784 1.353 . S
C1786 C1789 1.348 . S
C1786 H1834 0.929 . S
C1787 C1788 1.358 . S
C1787 C1789 1.356 . S
C1787 H1835 0.930 . S
C1788 N1785 1.279 . S
C1788 C1787 1.358 . S
C1788 H1791 0.930 . S
C1789 C1786 1.348 . S
C1789 C1787 1.356 . S
H1790 C1784 0.930 . S
H1791 C1788 0.930 . S
C1792 C1794 1.348 . S
C1792 C1795 1.356 . S
C1792 O1822 1.325 . S
N1793 C1796 1.314 . S
N1793 C1797 1.279 . S
C1794 C1792 1.348 . S
C1794 C1796 1.353 . S
C1794 H1836 0.929 . S
C1795 C1792 1.356 . S
C1795 C1797 1.358 . S
C1795 H1837 0.930 . S
C1796 N1793 1.314 . S
C1796 C1794 1.353 . S
C1796 H1838 0.930 . S
C1797 N1793 1.279 . S
C1797 C1795 1.358 . S
C1797 H1839 0.930 . S
C1798 C1799 1.348 . S
C1798 C1800 1.356 . S
C1798 O1823 1.325 . S
C1799 C1798 1.348 . S
C1799 C1801 1.353 . S
C1799 H1840 0.929 . S
C1800 C1798 1.356 . S
C1800 C1802 1.358 . S
C1800 H1841 0.930 . S
C1801 C1799 1.353 . S
C1801 N1803 1.314 . S
C1801 H1842 0.930 . S
C1802 C1800 1.358 . S
C1802 N1803 1.279 . S
C1802 H1843 0.930 . S
N1803 C1801 1.314 . S
N1803 C1802 1.279 . S
C1804 C1806 1.353 . S
C1804 N1807 1.314 . S
C1804 H1810 0.930 . S
C1805 N1807 1.279 . S
C1805 C1808 1.358 . S
C1805 H1811 0.930 . S
C1806 C1804 1.353 . S
C1806 C1809 1.348 . S
C1806 H1844 0.929 . S
N1807 Li1762 1.990 . S
N1807 C1804 1.314 . S
N1807 C1805 1.279 . S
C1808 C1805 1.358 . S
C1808 C1809 1.356 . S
C1808 H1845 0.930 . S
C1809 C1806 1.348 . S
C1809 C1808 1.356 . S
H1810 C1804 0.930 . S
H1811 C1805 0.930 . S
C1812 N1813 1.314 . S
C1812 C1814 1.353 . S
C1812 H1818 0.930 . S
N1813 Li1763 1.990 . S
N1813 C1812 1.314 . S
N1813 C1816 1.279 . S
C1814 C1812 1.353 . S
C1814 C1817 1.348 . S
C1814 H1846 0.929 . S
C1815 C1816 1.358 . S
C1815 C1817 1.356 . S
C1815 H1847 0.930 . S
C1816 N1813 1.279 . S
C1816 C1815 1.358 . S
C1816 H1819 0.930 . S
C1817 C1814 1.348 . S
C1817 C1815 1.356 . S
H1818 C1812 0.930 . S
H1819 C1816 0.930 . S
O1820 Li1760 1.956 . S
O1820 Li1761 1.970 . S
O1820 Li1762 1.961 . S
O1820 C1764 1.325 . S
O1821 Li1760 1.970 . S
O1821 Li1761 1.956 . S
O1821 Li1763 1.961 . S
O1821 C1770 1.325 . S
O1822 Li1760 1.961 . S
O1822 Li1762 1.956 . S
O1822 Li1763 1.970 . S
O1822 C1792 1.325 . S
O1823 Li1761 1.961 . S
O1823 Li1762 1.970 . S
O1823 Li1763 1.956 . S
O1823 C1798 1.325 . S
H1824 C1766 0.929 . S
H1825 C1767 0.930 . S
H1826 C1768 0.930 . S
H1827 C1769 0.930 . S
H1828 C1771 0.930 . S
H1829 C1773 0.929 . S
H1830 C1774 0.930 . S
H1831 C1775 0.930 . S
H1832 C1778 0.930 . S
H1833 C1781 0.929 . S
H1834 C1786 0.929 . S
H1835 C1787 0.930 . S
H1836 C1794 0.929 . S
H1837 C1795 0.930 . S
H1838 C1796 0.930 . S
H1839 C1797 0.930 . S
H1840 C1799 0.929 . S
H1841 C1800 0.930 . S
H1842 C1801 0.930 . S
H1843 C1802 0.930 . S
H1844 C1806 0.929 . S
H1845 C1808 0.930 . S
H1846 C1814 0.929 . S
H1847 C1815 0.930 . S
Li1848 N1865 1.990 . S
Li1848 O1908 1.956 . S
Li1848 O1909 1.970 . S
Li1848 O1910 1.961 . S
Li1849 N1873 1.990 . S
Li1849 O1908 1.970 . S
Li1849 O1909 1.956 . S
Li1849 O1911 1.961 . S
Li1850 N1895 1.990 . S
Li1850 O1908 1.961 . S
Li1850 O1910 1.956 . S
Li1850 O1911 1.970 . S
Li1851 N1901 1.990 . S
Li1851 O1909 1.961 . S
Li1851 O1910 1.970 . S
Li1851 O1911 1.956 . S
C1852 C1854 1.348 . S
C1852 C1855 1.356 . S
C1852 O1908 1.325 . S
N1853 C1856 1.314 . S
N1853 C1857 1.279 . S
C1854 C1852 1.348 . S
C1854 C1856 1.353 . S
C1854 H1912 0.929 . S
C1855 C1852 1.356 . S
C1855 C1857 1.358 . S
C1855 H1913 0.930 . S
C1856 N1853 1.314 . S
C1856 C1854 1.353 . S
C1856 H1914 0.930 . S
C1857 N1853 1.279 . S
C1857 C1855 1.358 . S
C1857 H1915 0.930 . S
C1858 C1861 1.348 . S
C1858 C1862 1.356 . S
C1858 O1909 1.325 . S
C1859 N1860 1.279 . S
C1859 C1862 1.358 . S
C1859 H1916 0.930 . S
N1860 C1859 1.279 . S
N1860 C1863 1.314 . S
C1861 C1858 1.348 . S
C1861 C1863 1.353 . S
C1861 H1917 0.929 . S
C1862 C1858 1.356 . S
C1862 C1859 1.358 . S
C1862 H1918 0.930 . S
C1863 N1860 1.314 . S
C1863 C1861 1.353 . S
C1863 H1919 0.930 . S
C1864 N1865 1.314 . S
C1864 C1869 1.353 . S
C1864 H1870 0.930 . S
N1865 Li1848 1.990 . S
N1865 C1864 1.314 . S
N1865 C1867 1.279 . S
C1866 C1867 1.358 . S
C1866 C1868 1.356 . S
C1866 H1920 0.930 . S
C1867 N1865 1.279 . S
C1867 C1866 1.358 . S
C1867 H1871 0.930 . S
C1868 C1866 1.356 . S
C1868 C1869 1.348 . S
C1869 C1864 1.353 . S
C1869 C1868 1.348 . S
C1869 H1921 0.929 . S
H1870 C1864 0.930 . S
H1871 C1867 0.930 . S
C1872 N1873 1.314 . S
C1872 C1874 1.353 . S
C1872 H1878 0.930 . S
N1873 Li1849 1.990 . S
N1873 C1872 1.314 . S
N1873 C1876 1.279 . S
C1874 C1872 1.353 . S
C1874 C1877 1.348 . S
C1874 H1922 0.929 . S
C1875 C1876 1.358 . S
C1875 C1877 1.356 . S
C1875 H1923 0.930 . S
C1876 N1873 1.279 . S
C1876 C1875 1.358 . S
C1876 H1879 0.930 . S
C1877 C1874 1.348 . S
C1877 C1875 1.356 . S
H1878 C1872 0.930 . S
H1879 C1876 0.930 . S
C1880 C1882 1.348 . S
C1880 C1883 1.356 . S
C1880 O1910 1.325 . S
N1881 C1884 1.314 . S
N1881 C1885 1.279 . S
C1882 C1880 1.348 . S
C1882 C1884 1.353 . S
C1882 H1924 0.929 . S
C1883 C1880 1.356 . S
C1883 C1885 1.358 . S
C1883 H1925 0.930 . S
C1884 N1881 1.314 . S
C1884 C1882 1.353 . S
C1884 H1926 0.930 . S
C1885 N1881 1.279 . S
C1885 C1883 1.358 . S
C1885 H1927 0.930 . S
C1886 C1887 1.348 . S
C1886 C1888 1.356 . S
C1886 O1911 1.325 . S
C1887 C1886 1.348 . S
C1887 C1889 1.353 . S
C1887 H1928 0.929 . S
C1888 C1886 1.356 . S
C1888 C1890 1.358 . S
C1888 H1929 0.930 . S
C1889 C1887 1.353 . S
C1889 N1891 1.314 . S
C1889 H1930 0.930 . S
C1890 C1888 1.358 . S
C1890 N1891 1.279 . S
C1890 H1931 0.930 . S
N1891 C1889 1.314 . S
N1891 C1890 1.279 . S
C1892 C1894 1.353 . S
C1892 N1895 1.314 . S
C1892 H1898 0.930 . S
C1893 N1895 1.279 . S
C1893 C1896 1.358 . S
C1893 H1899 0.930 . S
C1894 C1892 1.353 . S
C1894 C1897 1.348 . S
C1894 H1932 0.929 . S
N1895 Li1850 1.990 . S
N1895 C1892 1.314 . S
N1895 C1893 1.279 . S
C1896 C1893 1.358 . S
C1896 C1897 1.356 . S
C1896 H1933 0.930 . S
C1897 C1894 1.348 . S
C1897 C1896 1.356 . S
H1898 C1892 0.930 . S
H1899 C1893 0.930 . S
C1900 N1901 1.314 . S
C1900 C1902 1.353 . S
C1900 H1906 0.930 . S
N1901 Li1851 1.990 . S
N1901 C1900 1.314 . S
N1901 C1904 1.279 . S
C1902 C1900 1.353 . S
C1902 C1905 1.348 . S
C1902 H1934 0.929 . S
C1903 C1904 1.358 . S
C1903 C1905 1.356 . S
C1903 H1935 0.930 . S
C1904 N1901 1.279 . S
C1904 C1903 1.358 . S
C1904 H1907 0.930 . S
C1905 C1902 1.348 . S
C1905 C1903 1.356 . S
H1906 C1900 0.930 . S
H1907 C1904 0.930 . S
O1908 Li1848 1.956 . S
O1908 Li1849 1.970 . S
O1908 Li1850 1.961 . S
O1908 C1852 1.325 . S
O1909 Li1848 1.970 . S
O1909 Li1849 1.956 . S
O1909 Li1851 1.961 . S
O1909 C1858 1.325 . S
O1910 Li1848 1.961 . S
O1910 Li1850 1.956 . S
O1910 Li1851 1.970 . S
O1910 C1880 1.325 . S
O1911 Li1849 1.961 . S
O1911 Li1850 1.970 . S
O1911 Li1851 1.956 . S
O1911 C1886 1.325 . S
H1912 C1854 0.929 . S
H1913 C1855 0.930 . S
H1914 C1856 0.930 . S
H1915 C1857 0.930 . S
H1916 C1859 0.930 . S
H1917 C1861 0.929 . S
H1918 C1862 0.930 . S
H1919 C1863 0.930 . S
H1920 C1866 0.930 . S
H1921 C1869 0.929 . S
H1922 C1874 0.929 . S
H1923 C1875 0.930 . S
H1924 C1882 0.929 . S
H1925 C1883 0.930 . S
H1926 C1884 0.930 . S
H1927 C1885 0.930 . S
H1928 C1887 0.929 . S
H1929 C1888 0.930 . S
H1930 C1889 0.930 . S
H1931 C1890 0.930 . S
H1932 C1894 0.929 . S
H1933 C1896 0.930 . S
H1934 C1902 0.929 . S
H1935 C1903 0.930 . S
Li1936 N1953 1.990 . S
Li1936 O1996 1.956 . S
Li1936 O1997 1.970 . S
Li1936 O1998 1.961 . S
Li1937 N1961 1.990 . S
Li1937 O1996 1.970 . S
Li1937 O1997 1.956 . S
Li1937 O1999 1.961 . S
Li1938 N1983 1.990 . S
Li1938 O1996 1.961 . S
Li1938 O1998 1.956 . S
Li1938 O1999 1.970 . S
Li1939 N1989 1.990 . S
Li1939 O1997 1.961 . S
Li1939 O1998 1.970 . S
Li1939 O1999 1.956 . S
C1940 C1942 1.348 . S
C1940 C1943 1.356 . S
C1940 O1996 1.325 . S
N1941 C1944 1.314 . S
N1941 C1945 1.279 . S
C1942 C1940 1.348 . S
C1942 C1944 1.353 . S
C1942 H2000 0.929 . S
C1943 C1940 1.356 . S
C1943 C1945 1.358 . S
C1943 H2001 0.930 . S
C1944 N1941 1.314 . S
C1944 C1942 1.353 . S
C1944 H2002 0.930 . S
C1945 N1941 1.279 . S
C1945 C1943 1.358 . S
C1945 H2003 0.930 . S
C1946 C1949 1.348 . S
C1946 C1950 1.356 . S
C1946 O1997 1.325 . S
C1947 N1948 1.279 . S
C1947 C1950 1.358 . S
C1947 H2004 0.930 . S
N1948 C1947 1.279 . S
N1948 C1951 1.314 . S
C1949 C1946 1.348 . S
C1949 C1951 1.353 . S
C1949 H2005 0.929 . S
C1950 C1946 1.356 . S
C1950 C1947 1.358 . S
C1950 H2006 0.930 . S
C1951 N1948 1.314 . S
C1951 C1949 1.353 . S
C1951 H2007 0.930 . S
C1952 N1953 1.314 . S
C1952 C1957 1.353 . S
C1952 H1958 0.930 . S
N1953 Li1936 1.990 . S
N1953 C1952 1.314 . S
N1953 C1955 1.279 . S
C1954 C1955 1.358 . S
C1954 C1956 1.356 . S
C1954 H2008 0.930 . S
C1955 N1953 1.279 . S
C1955 C1954 1.358 . S
C1955 H1959 0.930 . S
C1956 C1954 1.356 . S
C1956 C1957 1.348 . S
C1957 C1952 1.353 . S
C1957 C1956 1.348 . S
C1957 H2009 0.929 . S
H1958 C1952 0.930 . S
H1959 C1955 0.930 . S
C1960 N1961 1.314 . S
C1960 C1962 1.353 . S
C1960 H1966 0.930 . S
N1961 Li1937 1.990 . S
N1961 C1960 1.314 . S
N1961 C1964 1.279 . S
C1962 C1960 1.353 . S
C1962 C1965 1.348 . S
C1962 H2010 0.929 . S
C1963 C1964 1.358 . S
C1963 C1965 1.356 . S
C1963 H2011 0.930 . S
C1964 N1961 1.279 . S
C1964 C1963 1.358 . S
C1964 H1967 0.930 . S
C1965 C1962 1.348 . S
C1965 C1963 1.356 . S
H1966 C1960 0.930 . S
H1967 C1964 0.930 . S
C1968 C1970 1.348 . S
C1968 C1971 1.356 . S
C1968 O1998 1.325 . S
N1969 C1972 1.314 . S
N1969 C1973 1.279 . S
C1970 C1968 1.348 . S
C1970 C1972 1.353 . S
C1970 H2012 0.929 . S
C1971 C1968 1.356 . S
C1971 C1973 1.358 . S
C1971 H2013 0.930 . S
C1972 N1969 1.314 . S
C1972 C1970 1.353 . S
C1972 H2014 0.930 . S
C1973 N1969 1.279 . S
C1973 C1971 1.358 . S
C1973 H2015 0.930 . S
C1974 C1975 1.348 . S
C1974 C1976 1.356 . S
C1974 O1999 1.325 . S
C1975 C1974 1.348 . S
C1975 C1977 1.353 . S
C1975 H2016 0.929 . S
C1976 C1974 1.356 . S
C1976 C1978 1.358 . S
C1976 H2017 0.930 . S
C1977 C1975 1.353 . S
C1977 N1979 1.314 . S
C1977 H2018 0.930 . S
C1978 C1976 1.358 . S
C1978 N1979 1.279 . S
C1978 H2019 0.930 . S
N1979 C1977 1.314 . S
N1979 C1978 1.279 . S
C1980 C1982 1.353 . S
C1980 N1983 1.314 . S
C1980 H1986 0.930 . S
C1981 N1983 1.279 . S
C1981 C1984 1.358 . S
C1981 H1987 0.930 . S
C1982 C1980 1.353 . S
C1982 C1985 1.348 . S
C1982 H2020 0.929 . S
N1983 Li1938 1.990 . S
N1983 C1980 1.314 . S
N1983 C1981 1.279 . S
C1984 C1981 1.358 . S
C1984 C1985 1.356 . S
C1984 H2021 0.930 . S
C1985 C1982 1.348 . S
C1985 C1984 1.356 . S
H1986 C1980 0.930 . S
H1987 C1981 0.930 . S
C1988 N1989 1.314 . S
C1988 C1990 1.353 . S
C1988 H1994 0.930 . S
N1989 Li1939 1.990 . S
N1989 C1988 1.314 . S
N1989 C1992 1.279 . S
C1990 C1988 1.353 . S
C1990 C1993 1.348 . S
C1990 H2022 0.929 . S
C1991 C1992 1.358 . S
C1991 C1993 1.356 . S
C1991 H2023 0.930 . S
C1992 N1989 1.279 . S
C1992 C1991 1.358 . S
C1992 H1995 0.930 . S
C1993 C1990 1.348 . S
C1993 C1991 1.356 . S
H1994 C1988 0.930 . S
H1995 C1992 0.930 . S
O1996 Li1936 1.956 . S
O1996 Li1937 1.970 . S
O1996 Li1938 1.961 . S
O1996 C1940 1.325 . S
O1997 Li1936 1.970 . S
O1997 Li1937 1.956 . S
O1997 Li1939 1.961 . S
O1997 C1946 1.325 . S
O1998 Li1936 1.961 . S
O1998 Li1938 1.956 . S
O1998 Li1939 1.970 . S
O1998 C1968 1.325 . S
O1999 Li1937 1.961 . S
O1999 Li1938 1.970 . S
O1999 Li1939 1.956 . S
O1999 C1974 1.325 . S
H2000 C1942 0.929 . S
H2001 C1943 0.930 . S
H2002 C1944 0.930 . S
H2003 C1945 0.930 . S
H2004 C1947 0.930 . S
H2005 C1949 0.929 . S
H2006 C1950 0.930 . S
H2007 C1951 0.930 . S
H2008 C1954 0.930 . S
H2009 C1957 0.929 . S
H2010 C1962 0.929 . S
H2011 C1963 0.930 . S
H2012 C1970 0.929 . S
H2013 C1971 0.930 . S
H2014 C1972 0.930 . S
H2015 C1973 0.930 . S
H2016 C1975 0.929 . S
H2017 C1976 0.930 . S
H2018 C1977 0.930 . S
H2019 C1978 0.930 . S
H2020 C1982 0.929 . S
H2021 C1984 0.930 . S
H2022 C1990 0.929 . S
H2023 C1991 0.930 . S
Li2024 N2041 1.990 . S
Li2024 O2084 1.956 . S
Li2024 O2085 1.970 . S
Li2024 O2086 1.961 . S
Li2025 N2049 1.990 . S
Li2025 O2084 1.970 . S
Li2025 O2085 1.956 . S
Li2025 O2087 1.961 . S
Li2026 N2071 1.990 . S
Li2026 O2084 1.961 . S
Li2026 O2086 1.956 . S
Li2026 O2087 1.970 . S
Li2027 N2077 1.990 . S
Li2027 O2085 1.961 . S
Li2027 O2086 1.970 . S
Li2027 O2087 1.956 . S
C2028 C2030 1.348 . S
C2028 C2031 1.356 . S
C2028 O2084 1.325 . S
N2029 C2032 1.314 . S
N2029 C2033 1.279 . S
C2030 C2028 1.348 . S
C2030 C2032 1.353 . S
C2030 H2088 0.929 . S
C2031 C2028 1.356 . S
C2031 C2033 1.358 . S
C2031 H2089 0.930 . S
C2032 N2029 1.314 . S
C2032 C2030 1.353 . S
C2032 H2090 0.930 . S
C2033 N2029 1.279 . S
C2033 C2031 1.358 . S
C2033 H2091 0.930 . S
C2034 C2037 1.348 . S
C2034 C2038 1.356 . S
C2034 O2085 1.325 . S
C2035 N2036 1.279 . S
C2035 C2038 1.358 . S
C2035 H2092 0.930 . S
N2036 C2035 1.279 . S
N2036 C2039 1.314 . S
C2037 C2034 1.348 . S
C2037 C2039 1.353 . S
C2037 H2093 0.929 . S
C2038 C2034 1.356 . S
C2038 C2035 1.358 . S
C2038 H2094 0.930 . S
C2039 N2036 1.314 . S
C2039 C2037 1.353 . S
C2039 H2095 0.930 . S
C2040 N2041 1.314 . S
C2040 C2045 1.353 . S
C2040 H2046 0.930 . S
N2041 Li2024 1.990 . S
N2041 C2040 1.314 . S
N2041 C2043 1.279 . S
C2042 C2043 1.358 . S
C2042 C2044 1.356 . S
C2042 H2096 0.930 . S
C2043 N2041 1.279 . S
C2043 C2042 1.358 . S
C2043 H2047 0.930 . S
C2044 C2042 1.356 . S
C2044 C2045 1.348 . S
C2045 C2040 1.353 . S
C2045 C2044 1.348 . S
C2045 H2097 0.929 . S
H2046 C2040 0.930 . S
H2047 C2043 0.930 . S
C2048 N2049 1.314 . S
C2048 C2050 1.353 . S
C2048 H2054 0.930 . S
N2049 Li2025 1.990 . S
N2049 C2048 1.314 . S
N2049 C2052 1.279 . S
C2050 C2048 1.353 . S
C2050 C2053 1.348 . S
C2050 H2098 0.929 . S
C2051 C2052 1.358 . S
C2051 C2053 1.356 . S
C2051 H2099 0.930 . S
C2052 N2049 1.279 . S
C2052 C2051 1.358 . S
C2052 H2055 0.930 . S
C2053 C2050 1.348 . S
C2053 C2051 1.356 . S
H2054 C2048 0.930 . S
H2055 C2052 0.930 . S
C2056 C2058 1.348 . S
C2056 C2059 1.356 . S
C2056 O2086 1.325 . S
N2057 C2060 1.314 . S
N2057 C2061 1.279 . S
C2058 C2056 1.348 . S
C2058 C2060 1.353 . S
C2058 H2100 0.929 . S
C2059 C2056 1.356 . S
C2059 C2061 1.358 . S
C2059 H2101 0.930 . S
C2060 N2057 1.314 . S
C2060 C2058 1.353 . S
C2060 H2102 0.930 . S
C2061 N2057 1.279 . S
C2061 C2059 1.358 . S
C2061 H2103 0.930 . S
C2062 C2063 1.348 . S
C2062 C2064 1.356 . S
C2062 O2087 1.325 . S
C2063 C2062 1.348 . S
C2063 C2065 1.353 . S
C2063 H2104 0.929 . S
C2064 C2062 1.356 . S
C2064 C2066 1.358 . S
C2064 H2105 0.930 . S
C2065 C2063 1.353 . S
C2065 N2067 1.314 . S
C2065 H2106 0.930 . S
C2066 C2064 1.358 . S
C2066 N2067 1.279 . S
C2066 H2107 0.930 . S
N2067 C2065 1.314 . S
N2067 C2066 1.279 . S
C2068 C2070 1.353 . S
C2068 N2071 1.314 . S
C2068 H2074 0.930 . S
C2069 N2071 1.279 . S
C2069 C2072 1.358 . S
C2069 H2075 0.930 . S
C2070 C2068 1.353 . S
C2070 C2073 1.348 . S
C2070 H2108 0.929 . S
N2071 Li2026 1.990 . S
N2071 C2068 1.314 . S
N2071 C2069 1.279 . S
C2072 C2069 1.358 . S
C2072 C2073 1.356 . S
C2072 H2109 0.930 . S
C2073 C2070 1.348 . S
C2073 C2072 1.356 . S
H2074 C2068 0.930 . S
H2075 C2069 0.930 . S
C2076 N2077 1.314 . S
C2076 C2078 1.353 . S
C2076 H2082 0.930 . S
N2077 Li2027 1.990 . S
N2077 C2076 1.314 . S
N2077 C2080 1.279 . S
C2078 C2076 1.353 . S
C2078 C2081 1.348 . S
C2078 H2110 0.929 . S
C2079 C2080 1.358 . S
C2079 C2081 1.356 . S
C2079 H2111 0.930 . S
C2080 N2077 1.279 . S
C2080 C2079 1.358 . S
C2080 H2083 0.930 . S
C2081 C2078 1.348 . S
C2081 C2079 1.356 . S
H2082 C2076 0.930 . S
H2083 C2080 0.930 . S
O2084 Li2024 1.956 . S
O2084 Li2025 1.970 . S
O2084 Li2026 1.961 . S
O2084 C2028 1.325 . S
O2085 Li2024 1.970 . S
O2085 Li2025 1.956 . S
O2085 Li2027 1.961 . S
O2085 C2034 1.325 . S
O2086 Li2024 1.961 . S
O2086 Li2026 1.956 . S
O2086 Li2027 1.970 . S
O2086 C2056 1.325 . S
O2087 Li2025 1.961 . S
O2087 Li2026 1.970 . S
O2087 Li2027 1.956 . S
O2087 C2062 1.325 . S
H2088 C2030 0.929 . S
H2089 C2031 0.930 . S
H2090 C2032 0.930 . S
H2091 C2033 0.930 . S
H2092 C2035 0.930 . S
H2093 C2037 0.929 . S
H2094 C2038 0.930 . S
H2095 C2039 0.930 . S
H2096 C2042 0.930 . S
H2097 C2045 0.929 . S
H2098 C2050 0.929 . S
H2099 C2051 0.930 . S
H2100 C2058 0.929 . S
H2101 C2059 0.930 . S
H2102 C2060 0.930 . S
H2103 C2061 0.930 . S
H2104 C2063 0.929 . S
H2105 C2064 0.930 . S
H2106 C2065 0.930 . S
H2107 C2066 0.930 . S
H2108 C2070 0.929 . S
H2109 C2072 0.930 . S
H2110 C2078 0.929 . S
H2111 C2079 0.930 . S
H2112 C2120 0.929 . S
H2113 C2122 0.930 . S
H2114 C2124 0.930 . S
H2115 C2127 0.929 . S
H2116 C2130 0.930 . S
H2117 C2132 0.960 . S
H2118 C2132 0.960 . S
H2119 C2132 0.960 . S
C2120 H2112 0.929 . S
C2120 C2121 1.377 . S
C2120 C2122 1.384 . S
C2121 C2120 1.377 . S
C2121 C2127 1.390 . S
C2122 H2113 0.930 . S
C2122 C2120 1.384 . S
C2122 C2123 1.372 . S
C2123 C2122 1.372 . S
C2123 C2124 1.400 . S
C2123 C2128 1.490 . S
C2124 H2114 0.930 . S
C2124 C2123 1.400 . S
C2124 C2127 1.386 . S
H2125 C2141 0.930 . S
H2126 C2142 0.931 . S
C2127 H2115 0.929 . S
C2127 C2121 1.390 . S
C2127 C2124 1.386 . S
C2128 C2123 1.490 . S
C2128 C2130 1.395 . S
C2128 C2131 1.403 . S
H2129 C2135 0.930 . S
C2130 H2116 0.930 . S
C2130 C2128 1.395 . S
C2130 C2133 1.403 . S
C2131 C2128 1.403 . S
C2131 C2132 1.524 . S
C2131 C2135 1.400 . S
C2132 H2117 0.960 . S
C2132 H2118 0.960 . S
C2132 H2119 0.960 . S
C2132 C2131 1.524 . S
C2133 C2130 1.403 . S
C2133 C2134 1.392 . S
C2133 C2137 1.495 . S
C2134 C2133 1.392 . S
C2134 C2135 1.385 . S
C2134 C2136 1.478 . S
C2135 H2129 0.930 . S
C2135 C2131 1.400 . S
C2135 C2134 1.385 . S
C2136 C2134 1.478 . S
C2136 C2138 1.381 . S
C2136 C2142 1.383 . S
C2137 C2133 1.495 . S
C2137 H2143 0.959 . S
C2137 H2144 0.961 . S
C2137 H2145 0.960 . S
C2138 C2136 1.381 . S
C2138 C2139 1.394 . S
C2138 H2146 0.930 . S
C2139 C2138 1.394 . S
C2139 C2140 1.383 . S
C2139 H2147 0.929 . S
C2140 C2139 1.383 . S
C2140 C2141 1.377 . S
C2141 H2125 0.930 . S
C2141 C2140 1.377 . S
C2141 C2142 1.379 . S
C2142 H2126 0.931 . S
C2142 C2136 1.383 . S
C2142 C2141 1.379 . S
H2143 C2137 0.959 . S
H2144 C2137 0.961 . S
H2145 C2137 0.960 . S
H2146 C2138 0.930 . S
H2147 C2139 0.929 . S
H2148 C2156 0.929 . S
H2149 C2158 0.930 . S
H2150 C2160 0.930 . S
H2151 C2163 0.929 . S
H2152 C2166 0.930 . S
H2153 C2168 0.960 . S
H2154 C2168 0.960 . S
H2155 C2168 0.960 . S
C2156 H2148 0.929 . S
C2156 C2157 1.377 . S
C2156 C2158 1.384 . S
C2157 C2156 1.377 . S
C2157 C2163 1.390 . S
C2158 H2149 0.930 . S
C2158 C2156 1.384 . S
C2158 C2159 1.372 . S
C2159 C2158 1.372 . S
C2159 C2160 1.400 . S
C2159 C2164 1.490 . S
C2160 H2150 0.930 . S
C2160 C2159 1.400 . S
C2160 C2163 1.386 . S
H2161 C2177 0.930 . S
H2162 C2178 0.931 . S
C2163 H2151 0.929 . S
C2163 C2157 1.390 . S
C2163 C2160 1.386 . S
C2164 C2159 1.490 . S
C2164 C2166 1.395 . S
C2164 C2167 1.403 . S
H2165 C2171 0.930 . S
C2166 H2152 0.930 . S
C2166 C2164 1.395 . S
C2166 C2169 1.403 . S
C2167 C2164 1.403 . S
C2167 C2168 1.524 . S
C2167 C2171 1.400 . S
C2168 H2153 0.960 . S
C2168 H2154 0.960 . S
C2168 H2155 0.960 . S
C2168 C2167 1.524 . S
C2169 C2166 1.403 . S
C2169 C2170 1.392 . S
C2169 C2173 1.495 . S
C2170 C2169 1.392 . S
C2170 C2171 1.385 . S
C2170 C2172 1.478 . S
C2171 H2165 0.930 . S
C2171 C2167 1.400 . S
C2171 C2170 1.385 . S
C2172 C2170 1.478 . S
C2172 C2174 1.381 . S
C2172 C2178 1.383 . S
C2173 C2169 1.495 . S
C2173 H2179 0.959 . S
C2173 H2180 0.961 . S
C2173 H2181 0.960 . S
C2174 C2172 1.381 . S
C2174 C2175 1.394 . S
C2174 H2182 0.930 . S
C2175 C2174 1.394 . S
C2175 C2176 1.383 . S
C2175 H2183 0.929 . S
C2176 C2175 1.383 . S
C2176 C2177 1.377 . S
C2177 H2161 0.930 . S
C2177 C2176 1.377 . S
C2177 C2178 1.379 . S
C2178 H2162 0.931 . S
C2178 C2172 1.383 . S
C2178 C2177 1.379 . S
H2179 C2173 0.959 . S
H2180 C2173 0.961 . S
H2181 C2173 0.960 . S
H2182 C2174 0.930 . S
H2183 C2175 0.929 . S
H2184 C2192 0.929 . S
H2185 C2194 0.930 . S
H2186 C2196 0.930 . S
H2187 C2199 0.929 . S
H2188 C2202 0.930 . S
H2189 C2204 0.960 . S
H2190 C2204 0.960 . S
H2191 C2204 0.960 . S
C2192 H2184 0.929 . S
C2192 C2193 1.377 . S
C2192 C2194 1.384 . S
C2193 C2192 1.377 . S
C2193 C2199 1.390 . S
C2194 H2185 0.930 . S
C2194 C2192 1.384 . S
C2194 C2195 1.372 . S
C2195 C2194 1.372 . S
C2195 C2196 1.400 . S
C2195 C2200 1.490 . S
C2196 H2186 0.930 . S
C2196 C2195 1.400 . S
C2196 C2199 1.386 . S
H2197 C2213 0.930 . S
H2198 C2214 0.931 . S
C2199 H2187 0.929 . S
C2199 C2193 1.390 . S
C2199 C2196 1.386 . S
C2200 C2195 1.490 . S
C2200 C2202 1.395 . S
C2200 C2203 1.403 . S
H2201 C2207 0.930 . S
C2202 H2188 0.930 . S
C2202 C2200 1.395 . S
C2202 C2205 1.403 . S
C2203 C2200 1.403 . S
C2203 C2204 1.524 . S
C2203 C2207 1.400 . S
C2204 H2189 0.960 . S
C2204 H2190 0.960 . S
C2204 H2191 0.960 . S
C2204 C2203 1.524 . S
C2205 C2202 1.403 . S
C2205 C2206 1.392 . S
C2205 C2209 1.495 . S
C2206 C2205 1.392 . S
C2206 C2207 1.385 . S
C2206 C2208 1.478 . S
C2207 H2201 0.930 . S
C2207 C2203 1.400 . S
C2207 C2206 1.385 . S
C2208 C2206 1.478 . S
C2208 C2210 1.381 . S
C2208 C2214 1.383 . S
C2209 C2205 1.495 . S
C2209 H2215 0.959 . S
C2209 H2216 0.961 . S
C2209 H2217 0.960 . S
C2210 C2208 1.381 . S
C2210 C2211 1.394 . S
C2210 H2218 0.930 . S
C2211 C2210 1.394 . S
C2211 C2212 1.383 . S
C2211 H2219 0.929 . S
C2212 C2211 1.383 . S
C2212 C2213 1.377 . S
C2213 H2197 0.930 . S
C2213 C2212 1.377 . S
C2213 C2214 1.379 . S
C2214 H2198 0.931 . S
C2214 C2208 1.383 . S
C2214 C2213 1.379 . S
H2215 C2209 0.959 . S
H2216 C2209 0.961 . S
H2217 C2209 0.960 . S
H2218 C2210 0.930 . S
H2219 C2211 0.929 . S
H2220 C2228 0.929 . S
H2221 C2230 0.930 . S
H2222 C2232 0.930 . S
H2223 C2235 0.929 . S
H2224 C2238 0.930 . S
H2225 C2240 0.960 . S
H2226 C2240 0.960 . S
H2227 C2240 0.960 . S
C2228 H2220 0.929 . S
C2228 C2229 1.377 . S
C2228 C2230 1.384 . S
C2229 C2228 1.377 . S
C2229 C2235 1.390 . S
C2230 H2221 0.930 . S
C2230 C2228 1.384 . S
C2230 C2231 1.372 . S
C2231 C2230 1.372 . S
C2231 C2232 1.400 . S
C2231 C2236 1.490 . S
C2232 H2222 0.930 . S
C2232 C2231 1.400 . S
C2232 C2235 1.386 . S
H2233 C2249 0.930 . S
H2234 C2250 0.931 . S
C2235 H2223 0.929 . S
C2235 C2229 1.390 . S
C2235 C2232 1.386 . S
C2236 C2231 1.490 . S
C2236 C2238 1.395 . S
C2236 C2239 1.403 . S
H2237 C2243 0.930 . S
C2238 H2224 0.930 . S
C2238 C2236 1.395 . S
C2238 C2241 1.403 . S
C2239 C2236 1.403 . S
C2239 C2240 1.524 . S
C2239 C2243 1.400 . S
C2240 H2225 0.960 . S
C2240 H2226 0.960 . S
C2240 H2227 0.960 . S
C2240 C2239 1.524 . S
C2241 C2238 1.403 . S
C2241 C2242 1.392 . S
C2241 C2245 1.495 . S
C2242 C2241 1.392 . S
C2242 C2243 1.385 . S
C2242 C2244 1.478 . S
C2243 H2237 0.930 . S
C2243 C2239 1.400 . S
C2243 C2242 1.385 . S
C2244 C2242 1.478 . S
C2244 C2246 1.381 . S
C2244 C2250 1.383 . S
C2245 C2241 1.495 . S
C2245 H2251 0.959 . S
C2245 H2252 0.961 . S
C2245 H2253 0.960 . S
C2246 C2244 1.381 . S
C2246 C2247 1.394 . S
C2246 H2254 0.930 . S
C2247 C2246 1.394 . S
C2247 C2248 1.383 . S
C2247 H2255 0.929 . S
C2248 C2247 1.383 . S
C2248 C2249 1.377 . S
C2249 H2233 0.930 . S
C2249 C2248 1.377 . S
C2249 C2250 1.379 . S
C2250 H2234 0.931 . S
C2250 C2244 1.383 . S
C2250 C2249 1.379 . S
H2251 C2245 0.959 . S
H2252 C2245 0.961 . S
H2253 C2245 0.960 . S
H2254 C2246 0.930 . S
H2255 C2247 0.929 . S
H2256 C2264 0.929 . S
H2257 C2266 0.930 . S
H2258 C2268 0.930 . S
H2259 C2271 0.929 . S
H2260 C2274 0.930 . S
H2261 C2276 0.960 . S
H2262 C2276 0.960 . S
H2263 C2276 0.960 . S
C2264 H2256 0.929 . S
C2264 C2265 1.377 . S
C2264 C2266 1.384 . S
C2265 C2264 1.377 . S
C2265 C2271 1.390 . S
C2266 H2257 0.930 . S
C2266 C2264 1.384 . S
C2266 C2267 1.372 . S
C2267 C2266 1.372 . S
C2267 C2268 1.400 . S
C2267 C2272 1.490 . S
C2268 H2258 0.930 . S
C2268 C2267 1.400 . S
C2268 C2271 1.386 . S
H2269 C2285 0.930 . S
H2270 C2286 0.931 . S
C2271 H2259 0.929 . S
C2271 C2265 1.390 . S
C2271 C2268 1.386 . S
C2272 C2267 1.490 . S
C2272 C2274 1.395 . S
C2272 C2275 1.403 . S
H2273 C2279 0.930 . S
C2274 H2260 0.930 . S
C2274 C2272 1.395 . S
C2274 C2277 1.403 . S
C2275 C2272 1.403 . S
C2275 C2276 1.524 . S
C2275 C2279 1.400 . S
C2276 H2261 0.960 . S
C2276 H2262 0.960 . S
C2276 H2263 0.960 . S
C2276 C2275 1.524 . S
C2277 C2274 1.403 . S
C2277 C2278 1.392 . S
C2277 C2281 1.495 . S
C2278 C2277 1.392 . S
C2278 C2279 1.385 . S
C2278 C2280 1.478 . S
C2279 H2273 0.930 . S
C2279 C2275 1.400 . S
C2279 C2278 1.385 . S
C2280 C2278 1.478 . S
C2280 C2282 1.381 . S
C2280 C2286 1.383 . S
C2281 C2277 1.495 . S
C2281 H2287 0.959 . S
C2281 H2288 0.961 . S
C2281 H2289 0.960 . S
C2282 C2280 1.381 . S
C2282 C2283 1.394 . S
C2282 H2290 0.930 . S
C2283 C2282 1.394 . S
C2283 C2284 1.383 . S
C2283 H2291 0.929 . S
C2284 C2283 1.383 . S
C2284 C2285 1.377 . S
C2285 H2269 0.930 . S
C2285 C2284 1.377 . S
C2285 C2286 1.379 . S
C2286 H2270 0.931 . S
C2286 C2280 1.383 . S
C2286 C2285 1.379 . S
H2287 C2281 0.959 . S
H2288 C2281 0.961 . S
H2289 C2281 0.960 . S
H2290 C2282 0.930 . S
H2291 C2283 0.929 . S
H2292 C2300 0.929 . S
H2293 C2302 0.930 . S
H2294 C2304 0.930 . S
H2295 C2307 0.929 . S
H2296 C2310 0.930 . S
H2297 C2312 0.960 . S
H2298 C2312 0.960 . S
H2299 C2312 0.960 . S
C2300 H2292 0.929 . S
C2300 C2301 1.377 . S
C2300 C2302 1.384 . S
C2301 C2300 1.377 . S
C2301 C2307 1.390 . S
C2302 H2293 0.930 . S
C2302 C2300 1.384 . S
C2302 C2303 1.372 . S
C2303 C2302 1.372 . S
C2303 C2304 1.400 . S
C2303 C2308 1.490 . S
C2304 H2294 0.930 . S
C2304 C2303 1.400 . S
C2304 C2307 1.386 . S
H2305 C2321 0.930 . S
H2306 C2322 0.931 . S
C2307 H2295 0.929 . S
C2307 C2301 1.390 . S
C2307 C2304 1.386 . S
C2308 C2303 1.490 . S
C2308 C2310 1.395 . S
C2308 C2311 1.403 . S
H2309 C2315 0.930 . S
C2310 H2296 0.930 . S
C2310 C2308 1.395 . S
C2310 C2313 1.403 . S
C2311 C2308 1.403 . S
C2311 C2312 1.524 . S
C2311 C2315 1.400 . S
C2312 H2297 0.960 . S
C2312 H2298 0.960 . S
C2312 H2299 0.960 . S
C2312 C2311 1.524 . S
C2313 C2310 1.403 . S
C2313 C2314 1.392 . S
C2313 C2317 1.495 . S
C2314 C2313 1.392 . S
C2314 C2315 1.385 . S
C2314 C2316 1.478 . S
C2315 H2309 0.930 . S
C2315 C2311 1.400 . S
C2315 C2314 1.385 . S
C2316 C2314 1.478 . S
C2316 C2318 1.381 . S
C2316 C2322 1.383 . S
C2317 C2313 1.495 . S
C2317 H2323 0.959 . S
C2317 H2324 0.961 . S
C2317 H2325 0.960 . S
C2318 C2316 1.381 . S
C2318 C2319 1.394 . S
C2318 H2326 0.930 . S
C2319 C2318 1.394 . S
C2319 C2320 1.383 . S
C2319 H2327 0.929 . S
C2320 C2319 1.383 . S
C2320 C2321 1.377 . S
C2321 H2305 0.930 . S
C2321 C2320 1.377 . S
C2321 C2322 1.379 . S
C2322 H2306 0.931 . S
C2322 C2316 1.383 . S
C2322 C2321 1.379 . S
H2323 C2317 0.959 . S
H2324 C2317 0.961 . S
H2325 C2317 0.960 . S
H2326 C2318 0.930 . S
H2327 C2319 0.929 . S
H2328 C2336 0.929 . S
H2329 C2338 0.930 . S
H2330 C2340 0.930 . S
H2331 C2343 0.929 . S
H2332 C2346 0.930 . S
H2333 C2348 0.960 . S
H2334 C2348 0.960 . S
H2335 C2348 0.960 . S
C2336 H2328 0.929 . S
C2336 C2337 1.377 . S
C2336 C2338 1.384 . S
C2337 C2336 1.377 . S
C2337 C2343 1.390 . S
C2338 H2329 0.930 . S
C2338 C2336 1.384 . S
C2338 C2339 1.372 . S
C2339 C2338 1.372 . S
C2339 C2340 1.400 . S
C2339 C2344 1.490 . S
C2340 H2330 0.930 . S
C2340 C2339 1.400 . S
C2340 C2343 1.386 . S
H2341 C2357 0.930 . S
H2342 C2358 0.931 . S
C2343 H2331 0.929 . S
C2343 C2337 1.390 . S
C2343 C2340 1.386 . S
C2344 C2339 1.490 . S
C2344 C2346 1.395 . S
C2344 C2347 1.403 . S
H2345 C2351 0.930 . S
C2346 H2332 0.930 . S
C2346 C2344 1.395 . S
C2346 C2349 1.403 . S
C2347 C2344 1.403 . S
C2347 C2348 1.524 . S
C2347 C2351 1.400 . S
C2348 H2333 0.960 . S
C2348 H2334 0.960 . S
C2348 H2335 0.960 . S
C2348 C2347 1.524 . S
C2349 C2346 1.403 . S
C2349 C2350 1.392 . S
C2349 C2353 1.495 . S
C2350 C2349 1.392 . S
C2350 C2351 1.385 . S
C2350 C2352 1.478 . S
C2351 H2345 0.930 . S
C2351 C2347 1.400 . S
C2351 C2350 1.385 . S
C2352 C2350 1.478 . S
C2352 C2354 1.381 . S
C2352 C2358 1.383 . S
C2353 C2349 1.495 . S
C2353 H2359 0.959 . S
C2353 H2360 0.961 . S
C2353 H2361 0.960 . S
C2354 C2352 1.381 . S
C2354 C2355 1.394 . S
C2354 H2362 0.930 . S
C2355 C2354 1.394 . S
C2355 C2356 1.383 . S
C2355 H2363 0.929 . S
C2356 C2355 1.383 . S
C2356 C2357 1.377 . S
C2357 H2341 0.930 . S
C2357 C2356 1.377 . S
C2357 C2358 1.379 . S
C2358 H2342 0.931 . S
C2358 C2352 1.383 . S
C2358 C2357 1.379 . S
H2359 C2353 0.959 . S
H2360 C2353 0.961 . S
H2361 C2353 0.960 . S
H2362 C2354 0.930 . S
H2363 C2355 0.929 . S
H2364 C2372 0.929 . S
H2365 C2374 0.930 . S
H2366 C2376 0.930 . S
H2367 C2379 0.929 . S
H2368 C2382 0.930 . S
H2369 C2384 0.960 . S
H2370 C2384 0.960 . S
H2371 C2384 0.960 . S
C2372 H2364 0.929 . S
C2372 C2373 1.377 . S
C2372 C2374 1.384 . S
C2373 C2372 1.377 . S
C2373 C2379 1.390 . S
C2374 H2365 0.930 . S
C2374 C2372 1.384 . S
C2374 C2375 1.372 . S
C2375 C2374 1.372 . S
C2375 C2376 1.400 . S
C2375 C2380 1.490 . S
C2376 H2366 0.930 . S
C2376 C2375 1.400 . S
C2376 C2379 1.386 . S
H2377 C2393 0.930 . S
H2378 C2394 0.931 . S
C2379 H2367 0.929 . S
C2379 C2373 1.390 . S
C2379 C2376 1.386 . S
C2380 C2375 1.490 . S
C2380 C2382 1.395 . S
C2380 C2383 1.403 . S
H2381 C2387 0.930 . S
C2382 H2368 0.930 . S
C2382 C2380 1.395 . S
C2382 C2385 1.403 . S
C2383 C2380 1.403 . S
C2383 C2384 1.524 . S
C2383 C2387 1.400 . S
C2384 H2369 0.960 . S
C2384 H2370 0.960 . S
C2384 H2371 0.960 . S
C2384 C2383 1.524 . S
C2385 C2382 1.403 . S
C2385 C2386 1.392 . S
C2385 C2389 1.495 . S
C2386 C2385 1.392 . S
C2386 C2387 1.385 . S
C2386 C2388 1.478 . S
C2387 H2381 0.930 . S
C2387 C2383 1.400 . S
C2387 C2386 1.385 . S
C2388 C2386 1.478 . S
C2388 C2390 1.381 . S
C2388 C2394 1.383 . S
C2389 C2385 1.495 . S
C2389 H2395 0.959 . S
C2389 H2396 0.961 . S
C2389 H2397 0.960 . S
C2390 C2388 1.381 . S
C2390 C2391 1.394 . S
C2390 H2398 0.930 . S
C2391 C2390 1.394 . S
C2391 C2392 1.383 . S
C2391 H2399 0.929 . S
C2392 C2391 1.383 . S
C2392 C2393 1.377 . S
C2393 H2377 0.930 . S
C2393 C2392 1.377 . S
C2393 C2394 1.379 . S
C2394 H2378 0.931 . S
C2394 C2388 1.383 . S
C2394 C2393 1.379 . S
H2395 C2389 0.959 . S
H2396 C2389 0.961 . S
H2397 C2389 0.960 . S
H2398 C2390 0.930 . S
H2399 C2391 0.929 . S
H2400 C2408 0.929 . S
H2401 C2410 0.930 . S
H2402 C2412 0.930 . S
H2403 C2415 0.929 . S
H2404 C2418 0.930 . S
H2405 C2420 0.960 . S
H2406 C2420 0.960 . S
H2407 C2420 0.960 . S
C2408 H2400 0.929 . S
C2408 C2409 1.377 . S
C2408 C2410 1.384 . S
C2409 C2408 1.377 . S
C2409 C2415 1.390 . S
C2410 H2401 0.930 . S
C2410 C2408 1.384 . S
C2410 C2411 1.372 . S
C2411 C2410 1.372 . S
C2411 C2412 1.400 . S
C2411 C2416 1.490 . S
C2412 H2402 0.930 . S
C2412 C2411 1.400 . S
C2412 C2415 1.386 . S
H2413 C2429 0.930 . S
H2414 C2430 0.931 . S
C2415 H2403 0.929 . S
C2415 C2409 1.390 . S
C2415 C2412 1.386 . S
C2416 C2411 1.490 . S
C2416 C2418 1.395 . S
C2416 C2419 1.403 . S
H2417 C2423 0.930 . S
C2418 H2404 0.930 . S
C2418 C2416 1.395 . S
C2418 C2421 1.403 . S
C2419 C2416 1.403 . S
C2419 C2420 1.524 . S
C2419 C2423 1.400 . S
C2420 H2405 0.960 . S
C2420 H2406 0.960 . S
C2420 H2407 0.960 . S
C2420 C2419 1.524 . S
C2421 C2418 1.403 . S
C2421 C2422 1.392 . S
C2421 C2425 1.495 . S
C2422 C2421 1.392 . S
C2422 C2423 1.385 . S
C2422 C2424 1.478 . S
C2423 H2417 0.930 . S
C2423 C2419 1.400 . S
C2423 C2422 1.385 . S
C2424 C2422 1.478 . S
C2424 C2426 1.381 . S
C2424 C2430 1.383 . S
C2425 C2421 1.495 . S
C2425 H2431 0.959 . S
C2425 H2432 0.961 . S
C2425 H2433 0.960 . S
C2426 C2424 1.381 . S
C2426 C2427 1.394 . S
C2426 H2434 0.930 . S
C2427 C2426 1.394 . S
C2427 C2428 1.383 . S
C2427 H2435 0.929 . S
C2428 C2427 1.383 . S
C2428 C2429 1.377 . S
C2429 H2413 0.930 . S
C2429 C2428 1.377 . S
C2429 C2430 1.379 . S
C2430 H2414 0.931 . S
C2430 C2424 1.383 . S
C2430 C2429 1.379 . S
H2431 C2425 0.959 . S
H2432 C2425 0.961 . S
H2433 C2425 0.960 . S
H2434 C2426 0.930 . S
H2435 C2427 0.929 . S
H2436 C2444 0.929 . S
H2437 C2446 0.930 . S
H2438 C2448 0.930 . S
H2439 C2451 0.929 . S
H2440 C2454 0.930 . S
H2441 C2456 0.960 . S
H2442 C2456 0.960 . S
H2443 C2456 0.960 . S
C2444 H2436 0.929 . S
C2444 C2445 1.377 . S
C2444 C2446 1.384 . S
C2445 C2444 1.377 . S
C2445 C2451 1.390 . S
C2446 H2437 0.930 . S
C2446 C2444 1.384 . S
C2446 C2447 1.372 . S
C2447 C2446 1.372 . S
C2447 C2448 1.400 . S
C2447 C2452 1.490 . S
C2448 H2438 0.930 . S
C2448 C2447 1.400 . S
C2448 C2451 1.386 . S
H2449 C2465 0.930 . S
H2450 C2466 0.931 . S
C2451 H2439 0.929 . S
C2451 C2445 1.390 . S
C2451 C2448 1.386 . S
C2452 C2447 1.490 . S
C2452 C2454 1.395 . S
C2452 C2455 1.403 . S
H2453 C2459 0.930 . S
C2454 H2440 0.930 . S
C2454 C2452 1.395 . S
C2454 C2457 1.403 . S
C2455 C2452 1.403 . S
C2455 C2456 1.524 . S
C2455 C2459 1.400 . S
C2456 H2441 0.960 . S
C2456 H2442 0.960 . S
C2456 H2443 0.960 . S
C2456 C2455 1.524 . S
C2457 C2454 1.403 . S
C2457 C2458 1.392 . S
C2457 C2461 1.495 . S
C2458 C2457 1.392 . S
C2458 C2459 1.385 . S
C2458 C2460 1.478 . S
C2459 H2453 0.930 . S
C2459 C2455 1.400 . S
C2459 C2458 1.385 . S
C2460 C2458 1.478 . S
C2460 C2462 1.381 . S
C2460 C2466 1.383 . S
C2461 C2457 1.495 . S
C2461 H2467 0.959 . S
C2461 H2468 0.961 . S
C2461 H2469 0.960 . S
C2462 C2460 1.381 . S
C2462 C2463 1.394 . S
C2462 H2470 0.930 . S
C2463 C2462 1.394 . S
C2463 C2464 1.383 . S
C2463 H2471 0.929 . S
C2464 C2463 1.383 . S
C2464 C2465 1.377 . S
C2465 H2449 0.930 . S
C2465 C2464 1.377 . S
C2465 C2466 1.379 . S
C2466 H2450 0.931 . S
C2466 C2460 1.383 . S
C2466 C2465 1.379 . S
H2467 C2461 0.959 . S
H2468 C2461 0.961 . S
H2469 C2461 0.960 . S
H2470 C2462 0.930 . S
H2471 C2463 0.929 . S
H2472 C2480 0.929 . S
H2473 C2482 0.930 . S
H2474 C2484 0.930 . S
H2475 C2487 0.929 . S
H2476 C2490 0.930 . S
H2477 C2492 0.960 . S
H2478 C2492 0.960 . S
H2479 C2492 0.960 . S
C2480 H2472 0.929 . S
C2480 C2481 1.377 . S
C2480 C2482 1.384 . S
C2481 C2480 1.377 . S
C2481 C2487 1.390 . S
C2482 H2473 0.930 . S
C2482 C2480 1.384 . S
C2482 C2483 1.372 . S
C2483 C2482 1.372 . S
C2483 C2484 1.400 . S
C2483 C2488 1.490 . S
C2484 H2474 0.930 . S
C2484 C2483 1.400 . S
C2484 C2487 1.386 . S
H2485 C2501 0.930 . S
H2486 C2502 0.931 . S
C2487 H2475 0.929 . S
C2487 C2481 1.390 . S
C2487 C2484 1.386 . S
C2488 C2483 1.490 . S
C2488 C2490 1.395 . S
C2488 C2491 1.403 . S
H2489 C2495 0.930 . S
C2490 H2476 0.930 . S
C2490 C2488 1.395 . S
C2490 C2493 1.403 . S
C2491 C2488 1.403 . S
C2491 C2492 1.524 . S
C2491 C2495 1.400 . S
C2492 H2477 0.960 . S
C2492 H2478 0.960 . S
C2492 H2479 0.960 . S
C2492 C2491 1.524 . S
C2493 C2490 1.403 . S
C2493 C2494 1.392 . S
C2493 C2497 1.495 . S
C2494 C2493 1.392 . S
C2494 C2495 1.385 . S
C2494 C2496 1.478 . S
C2495 H2489 0.930 . S
C2495 C2491 1.400 . S
C2495 C2494 1.385 . S
C2496 C2494 1.478 . S
C2496 C2498 1.381 . S
C2496 C2502 1.383 . S
C2497 C2493 1.495 . S
C2497 H2503 0.959 . S
C2497 H2504 0.961 . S
C2497 H2505 0.960 . S
C2498 C2496 1.381 . S
C2498 C2499 1.394 . S
C2498 H2506 0.930 . S
C2499 C2498 1.394 . S
C2499 C2500 1.383 . S
C2499 H2507 0.929 . S
C2500 C2499 1.383 . S
C2500 C2501 1.377 . S
C2501 H2485 0.930 . S
C2501 C2500 1.377 . S
C2501 C2502 1.379 . S
C2502 H2486 0.931 . S
C2502 C2496 1.383 . S
C2502 C2501 1.379 . S
H2503 C2497 0.959 . S
H2504 C2497 0.961 . S
H2505 C2497 0.960 . S
H2506 C2498 0.930 . S
H2507 C2499 0.929 . S
H2508 C2516 0.929 . S
H2509 C2518 0.930 . S
H2510 C2520 0.930 . S
H2511 C2523 0.929 . S
H2512 C2526 0.930 . S
H2513 C2528 0.960 . S
H2514 C2528 0.960 . S
H2515 C2528 0.960 . S
C2516 H2508 0.929 . S
C2516 C2517 1.377 . S
C2516 C2518 1.384 . S
C2517 C2516 1.377 . S
C2517 C2523 1.390 . S
C2518 H2509 0.930 . S
C2518 C2516 1.384 . S
C2518 C2519 1.372 . S
C2519 C2518 1.372 . S
C2519 C2520 1.400 . S
C2519 C2524 1.490 . S
C2520 H2510 0.930 . S
C2520 C2519 1.400 . S
C2520 C2523 1.386 . S
H2521 C2537 0.930 . S
H2522 C2538 0.931 . S
C2523 H2511 0.929 . S
C2523 C2517 1.390 . S
C2523 C2520 1.386 . S
C2524 C2519 1.490 . S
C2524 C2526 1.395 . S
C2524 C2527 1.403 . S
H2525 C2531 0.930 . S
C2526 H2512 0.930 . S
C2526 C2524 1.395 . S
C2526 C2529 1.403 . S
C2527 C2524 1.403 . S
C2527 C2528 1.524 . S
C2527 C2531 1.400 . S
C2528 H2513 0.960 . S
C2528 H2514 0.960 . S
C2528 H2515 0.960 . S
C2528 C2527 1.524 . S
C2529 C2526 1.403 . S
C2529 C2530 1.392 . S
C2529 C2533 1.495 . S
C2530 C2529 1.392 . S
C2530 C2531 1.385 . S
C2530 C2532 1.478 . S
C2531 H2525 0.930 . S
C2531 C2527 1.400 . S
C2531 C2530 1.385 . S
C2532 C2530 1.478 . S
C2532 C2534 1.381 . S
C2532 C2538 1.383 . S
C2533 C2529 1.495 . S
C2533 H2539 0.959 . S
C2533 H2540 0.961 . S
C2533 H2541 0.960 . S
C2534 C2532 1.381 . S
C2534 C2535 1.394 . S
C2534 H2542 0.930 . S
C2535 C2534 1.394 . S
C2535 C2536 1.383 . S
C2535 H2543 0.929 . S
C2536 C2535 1.383 . S
C2536 C2537 1.377 . S
C2537 H2521 0.930 . S
C2537 C2536 1.377 . S
C2537 C2538 1.379 . S
C2538 H2522 0.931 . S
C2538 C2532 1.383 . S
C2538 C2537 1.379 . S
H2539 C2533 0.959 . S
H2540 C2533 0.961 . S
H2541 C2533 0.960 . S
H2542 C2534 0.930 . S
H2543 C2535 0.929 . S
H2544 C2552 0.929 . S
H2545 C2554 0.930 . S
H2546 C2556 0.930 . S
H2547 C2559 0.929 . S
H2548 C2562 0.930 . S
H2549 C2564 0.960 . S
H2550 C2564 0.960 . S
H2551 C2564 0.960 . S
C2552 H2544 0.929 . S
C2552 C2553 1.377 . S
C2552 C2554 1.384 . S
C2553 C2552 1.377 . S
C2553 C2559 1.390 . S
C2554 H2545 0.930 . S
C2554 C2552 1.384 . S
C2554 C2555 1.372 . S
C2555 C2554 1.372 . S
C2555 C2556 1.400 . S
C2555 C2560 1.490 . S
C2556 H2546 0.930 . S
C2556 C2555 1.400 . S
C2556 C2559 1.386 . S
H2557 C2573 0.930 . S
H2558 C2574 0.931 . S
C2559 H2547 0.929 . S
C2559 C2553 1.390 . S
C2559 C2556 1.386 . S
C2560 C2555 1.490 . S
C2560 C2562 1.395 . S
C2560 C2563 1.403 . S
H2561 C2567 0.930 . S
C2562 H2548 0.930 . S
C2562 C2560 1.395 . S
C2562 C2565 1.403 . S
C2563 C2560 1.403 . S
C2563 C2564 1.524 . S
C2563 C2567 1.400 . S
C2564 H2549 0.960 . S
C2564 H2550 0.960 . S
C2564 H2551 0.960 . S
C2564 C2563 1.524 . S
C2565 C2562 1.403 . S
C2565 C2566 1.392 . S
C2565 C2569 1.495 . S
C2566 C2565 1.392 . S
C2566 C2567 1.385 . S
C2566 C2568 1.478 . S
C2567 H2561 0.930 . S
C2567 C2563 1.400 . S
C2567 C2566 1.385 . S
C2568 C2566 1.478 . S
C2568 C2570 1.381 . S
C2568 C2574 1.383 . S
C2569 C2565 1.495 . S
C2569 H2575 0.959 . S
C2569 H2576 0.961 . S
C2569 H2577 0.960 . S
C2570 C2568 1.381 . S
C2570 C2571 1.394 . S
C2570 H2578 0.930 . S
C2571 C2570 1.394 . S
C2571 C2572 1.383 . S
C2571 H2579 0.929 . S
C2572 C2571 1.383 . S
C2572 C2573 1.377 . S
C2573 H2557 0.930 . S
C2573 C2572 1.377 . S
C2573 C2574 1.379 . S
C2574 H2558 0.931 . S
C2574 C2568 1.383 . S
C2574 C2573 1.379 . S
H2575 C2569 0.959 . S
H2576 C2569 0.961 . S
H2577 C2569 0.960 . S
H2578 C2570 0.930 . S
H2579 C2571 0.929 . S
H2580 C2588 0.929 . S
H2581 C2590 0.930 . S
H2582 C2592 0.930 . S
H2583 C2595 0.929 . S
H2584 C2598 0.930 . S
H2585 C2600 0.960 . S
H2586 C2600 0.960 . S
H2587 C2600 0.960 . S
C2588 H2580 0.929 . S
C2588 C2589 1.377 . S
C2588 C2590 1.384 . S
C2589 C2588 1.377 . S
C2589 C2595 1.390 . S
C2590 H2581 0.930 . S
C2590 C2588 1.384 . S
C2590 C2591 1.372 . S
C2591 C2590 1.372 . S
C2591 C2592 1.400 . S
C2591 C2596 1.490 . S
C2592 H2582 0.930 . S
C2592 C2591 1.400 . S
C2592 C2595 1.386 . S
H2593 C2609 0.930 . S
H2594 C2610 0.931 . S
C2595 H2583 0.929 . S
C2595 C2589 1.390 . S
C2595 C2592 1.386 . S
C2596 C2591 1.490 . S
C2596 C2598 1.395 . S
C2596 C2599 1.403 . S
H2597 C2603 0.930 . S
C2598 H2584 0.930 . S
C2598 C2596 1.395 . S
C2598 C2601 1.403 . S
C2599 C2596 1.403 . S
C2599 C2600 1.524 . S
C2599 C2603 1.400 . S
C2600 H2585 0.960 . S
C2600 H2586 0.960 . S
C2600 H2587 0.960 . S
C2600 C2599 1.524 . S
C2601 C2598 1.403 . S
C2601 C2602 1.392 . S
C2601 C2605 1.495 . S
C2602 C2601 1.392 . S
C2602 C2603 1.385 . S
C2602 C2604 1.478 . S
C2603 H2597 0.930 . S
C2603 C2599 1.400 . S
C2603 C2602 1.385 . S
C2604 C2602 1.478 . S
C2604 C2606 1.381 . S
C2604 C2610 1.383 . S
C2605 C2601 1.495 . S
C2605 H2611 0.959 . S
C2605 H2612 0.961 . S
C2605 H2613 0.960 . S
C2606 C2604 1.381 . S
C2606 C2607 1.394 . S
C2606 H2614 0.930 . S
C2607 C2606 1.394 . S
C2607 C2608 1.383 . S
C2607 H2615 0.929 . S
C2608 C2607 1.383 . S
C2608 C2609 1.377 . S
C2609 H2593 0.930 . S
C2609 C2608 1.377 . S
C2609 C2610 1.379 . S
C2610 H2594 0.931 . S
C2610 C2604 1.383 . S
C2610 C2609 1.379 . S
H2611 C2605 0.959 . S
H2612 C2605 0.961 . S
H2613 C2605 0.960 . S
H2614 C2606 0.930 . S
H2615 C2607 0.929 . S
H2616 C2624 0.929 . S
H2617 C2626 0.930 . S
H2618 C2628 0.930 . S
H2619 C2631 0.929 . S
H2620 C2634 0.930 . S
H2621 C2636 0.960 . S
H2622 C2636 0.960 . S
H2623 C2636 0.960 . S
C2624 H2616 0.929 . S
C2624 C2625 1.377 . S
C2624 C2626 1.384 . S
C2625 C2624 1.377 . S
C2625 C2631 1.390 . S
C2626 H2617 0.930 . S
C2626 C2624 1.384 . S
C2626 C2627 1.372 . S
C2627 C2626 1.372 . S
C2627 C2628 1.400 . S
C2627 C2632 1.490 . S
C2628 H2618 0.930 . S
C2628 C2627 1.400 . S
C2628 C2631 1.386 . S
H2629 C2645 0.930 . S
H2630 C2646 0.931 . S
C2631 H2619 0.929 . S
C2631 C2625 1.390 . S
C2631 C2628 1.386 . S
C2632 C2627 1.490 . S
C2632 C2634 1.395 . S
C2632 C2635 1.403 . S
H2633 C2639 0.930 . S
C2634 H2620 0.930 . S
C2634 C2632 1.395 . S
C2634 C2637 1.403 . S
C2635 C2632 1.403 . S
C2635 C2636 1.524 . S
C2635 C2639 1.400 . S
C2636 H2621 0.960 . S
C2636 H2622 0.960 . S
C2636 H2623 0.960 . S
C2636 C2635 1.524 . S
C2637 C2634 1.403 . S
C2637 C2638 1.392 . S
C2637 C2641 1.495 . S
C2638 C2637 1.392 . S
C2638 C2639 1.385 . S
C2638 C2640 1.478 . S
C2639 H2633 0.930 . S
C2639 C2635 1.400 . S
C2639 C2638 1.385 . S
C2640 C2638 1.478 . S
C2640 C2642 1.381 . S
C2640 C2646 1.383 . S
C2641 C2637 1.495 . S
C2641 H2647 0.959 . S
C2641 H2648 0.961 . S
C2641 H2649 0.960 . S
C2642 C2640 1.381 . S
C2642 C2643 1.394 . S
C2642 H2650 0.930 . S
C2643 C2642 1.394 . S
C2643 C2644 1.383 . S
C2643 H2651 0.929 . S
C2644 C2643 1.383 . S
C2644 C2645 1.377 . S
C2645 H2629 0.930 . S
C2645 C2644 1.377 . S
C2645 C2646 1.379 . S
C2646 H2630 0.931 . S
C2646 C2640 1.383 . S
C2646 C2645 1.379 . S
H2647 C2641 0.959 . S
H2648 C2641 0.961 . S
H2649 C2641 0.960 . S
H2650 C2642 0.930 . S
H2651 C2643 0.929 . S
H2652 C2660 0.929 . S
H2653 C2662 0.930 . S
H2654 C2664 0.930 . S
H2655 C2667 0.929 . S
H2656 C2670 0.930 . S
H2657 C2672 0.960 . S
H2658 C2672 0.960 . S
H2659 C2672 0.960 . S
C2660 H2652 0.929 . S
C2660 C2661 1.377 . S
C2660 C2662 1.384 . S
C2661 C2660 1.377 . S
C2661 C2667 1.390 . S
C2662 H2653 0.930 . S
C2662 C2660 1.384 . S
C2662 C2663 1.372 . S
C2663 C2662 1.372 . S
C2663 C2664 1.400 . S
C2663 C2668 1.490 . S
C2664 H2654 0.930 . S
C2664 C2663 1.400 . S
C2664 C2667 1.386 . S
H2665 C2681 0.930 . S
H2666 C2682 0.931 . S
C2667 H2655 0.929 . S
C2667 C2661 1.390 . S
C2667 C2664 1.386 . S
C2668 C2663 1.490 . S
C2668 C2670 1.395 . S
C2668 C2671 1.403 . S
H2669 C2675 0.930 . S
C2670 H2656 0.930 . S
C2670 C2668 1.395 . S
C2670 C2673 1.403 . S
C2671 C2668 1.403 . S
C2671 C2672 1.524 . S
C2671 C2675 1.400 . S
C2672 H2657 0.960 . S
C2672 H2658 0.960 . S
C2672 H2659 0.960 . S
C2672 C2671 1.524 . S
C2673 C2670 1.403 . S
C2673 C2674 1.392 . S
C2673 C2677 1.495 . S
C2674 C2673 1.392 . S
C2674 C2675 1.385 . S
C2674 C2676 1.478 . S
C2675 H2669 0.930 . S
C2675 C2671 1.400 . S
C2675 C2674 1.385 . S
C2676 C2674 1.478 . S
C2676 C2678 1.381 . S
C2676 C2682 1.383 . S
C2677 C2673 1.495 . S
C2677 H2683 0.959 . S
C2677 H2684 0.961 . S
C2677 H2685 0.960 . S
C2678 C2676 1.381 . S
C2678 C2679 1.394 . S
C2678 H2686 0.930 . S
C2679 C2678 1.394 . S
C2679 C2680 1.383 . S
C2679 H2687 0.929 . S
C2680 C2679 1.383 . S
C2680 C2681 1.377 . S
C2681 H2665 0.930 . S
C2681 C2680 1.377 . S
C2681 C2682 1.379 . S
C2682 H2666 0.931 . S
C2682 C2676 1.383 . S
C2682 C2681 1.379 . S
H2683 C2677 0.959 . S
H2684 C2677 0.961 . S
H2685 C2677 0.960 . S
H2686 C2678 0.930 . S
H2687 C2679 0.929 . S
H2688 C2696 0.929 . S
H2689 C2698 0.930 . S
H2690 C2700 0.930 . S
H2691 C2703 0.929 . S
H2692 C2706 0.930 . S
H2693 C2708 0.960 . S
H2694 C2708 0.960 . S
H2695 C2708 0.960 . S
C2696 H2688 0.929 . S
C2696 C2697 1.377 . S
C2696 C2698 1.384 . S
C2697 C2696 1.377 . S
C2697 C2703 1.390 . S
C2698 H2689 0.930 . S
C2698 C2696 1.384 . S
C2698 C2699 1.372 . S
C2699 C2698 1.372 . S
C2699 C2700 1.400 . S
C2699 C2704 1.490 . S
C2700 H2690 0.930 . S
C2700 C2699 1.400 . S
C2700 C2703 1.386 . S
H2701 C2717 0.930 . S
H2702 C2718 0.931 . S
C2703 H2691 0.929 . S
C2703 C2697 1.390 . S
C2703 C2700 1.386 . S
C2704 C2699 1.490 . S
C2704 C2706 1.395 . S
C2704 C2707 1.403 . S
H2705 C2711 0.930 . S
C2706 H2692 0.930 . S
C2706 C2704 1.395 . S
C2706 C2709 1.403 . S
C2707 C2704 1.403 . S
C2707 C2708 1.524 . S
C2707 C2711 1.400 . S
C2708 H2693 0.960 . S
C2708 H2694 0.960 . S
C2708 H2695 0.960 . S
C2708 C2707 1.524 . S
C2709 C2706 1.403 . S
C2709 C2710 1.392 . S
C2709 C2713 1.495 . S
C2710 C2709 1.392 . S
C2710 C2711 1.385 . S
C2710 C2712 1.478 . S
C2711 H2705 0.930 . S
C2711 C2707 1.400 . S
C2711 C2710 1.385 . S
C2712 C2710 1.478 . S
C2712 C2714 1.381 . S
C2712 C2718 1.383 . S
C2713 C2709 1.495 . S
C2713 H2719 0.959 . S
C2713 H2720 0.961 . S
C2713 H2721 0.960 . S
C2714 C2712 1.381 . S
C2714 C2715 1.394 . S
C2714 H2722 0.930 . S
C2715 C2714 1.394 . S
C2715 C2716 1.383 . S
C2715 H2723 0.929 . S
C2716 C2715 1.383 . S
C2716 C2717 1.377 . S
C2717 H2701 0.930 . S
C2717 C2716 1.377 . S
C2717 C2718 1.379 . S
C2718 H2702 0.931 . S
C2718 C2712 1.383 . S
C2718 C2717 1.379 . S
H2719 C2713 0.959 . S
H2720 C2713 0.961 . S
H2721 C2713 0.960 . S
H2722 C2714 0.930 . S
H2723 C2715 0.929 . S
H2724 C2732 0.929 . S
H2725 C2734 0.930 . S
H2726 C2736 0.930 . S
H2727 C2739 0.929 . S
H2728 C2742 0.930 . S
H2729 C2744 0.960 . S
H2730 C2744 0.960 . S
H2731 C2744 0.960 . S
C2732 H2724 0.929 . S
C2732 C2733 1.377 . S
C2732 C2734 1.384 . S
C2733 C2732 1.377 . S
C2733 C2739 1.390 . S
C2734 H2725 0.930 . S
C2734 C2732 1.384 . S
C2734 C2735 1.372 . S
C2735 C2734 1.372 . S
C2735 C2736 1.400 . S
C2735 C2740 1.490 . S
C2736 H2726 0.930 . S
C2736 C2735 1.400 . S
C2736 C2739 1.386 . S
H2737 C2753 0.930 . S
H2738 C2754 0.931 . S
C2739 H2727 0.929 . S
C2739 C2733 1.390 . S
C2739 C2736 1.386 . S
C2740 C2735 1.490 . S
C2740 C2742 1.395 . S
C2740 C2743 1.403 . S
H2741 C2747 0.930 . S
C2742 H2728 0.930 . S
C2742 C2740 1.395 . S
C2742 C2745 1.403 . S
C2743 C2740 1.403 . S
C2743 C2744 1.524 . S
C2743 C2747 1.400 . S
C2744 H2729 0.960 . S
C2744 H2730 0.960 . S
C2744 H2731 0.960 . S
C2744 C2743 1.524 . S
C2745 C2742 1.403 . S
C2745 C2746 1.392 . S
C2745 C2749 1.495 . S
C2746 C2745 1.392 . S
C2746 C2747 1.385 . S
C2746 C2748 1.478 . S
C2747 H2741 0.930 . S
C2747 C2743 1.400 . S
C2747 C2746 1.385 . S
C2748 C2746 1.478 . S
C2748 C2750 1.381 . S
C2748 C2754 1.383 . S
C2749 C2745 1.495 . S
C2749 H2755 0.959 . S
C2749 H2756 0.961 . S
C2749 H2757 0.960 . S
C2750 C2748 1.381 . S
C2750 C2751 1.394 . S
C2750 H2758 0.930 . S
C2751 C2750 1.394 . S
C2751 C2752 1.383 . S
C2751 H2759 0.929 . S
C2752 C2751 1.383 . S
C2752 C2753 1.377 . S
C2753 H2737 0.930 . S
C2753 C2752 1.377 . S
C2753 C2754 1.379 . S
C2754 H2738 0.931 . S
C2754 C2748 1.383 . S
C2754 C2753 1.379 . S
H2755 C2749 0.959 . S
H2756 C2749 0.961 . S
H2757 C2749 0.960 . S
H2758 C2750 0.930 . S
H2759 C2751 0.929 . S
H2760 C2768 0.929 . S
H2761 C2770 0.930 . S
H2762 C2772 0.930 . S
H2763 C2775 0.929 . S
H2764 C2778 0.930 . S
H2765 C2780 0.960 . S
H2766 C2780 0.960 . S
H2767 C2780 0.960 . S
C2768 H2760 0.929 . S
C2768 C2769 1.377 . S
C2768 C2770 1.384 . S
C2769 C2768 1.377 . S
C2769 C2775 1.390 . S
C2770 H2761 0.930 . S
C2770 C2768 1.384 . S
C2770 C2771 1.372 . S
C2771 C2770 1.372 . S
C2771 C2772 1.400 . S
C2771 C2776 1.490 . S
C2772 H2762 0.930 . S
C2772 C2771 1.400 . S
C2772 C2775 1.386 . S
H2773 C2789 0.930 . S
H2774 C2790 0.931 . S
C2775 H2763 0.929 . S
C2775 C2769 1.390 . S
C2775 C2772 1.386 . S
C2776 C2771 1.490 . S
C2776 C2778 1.395 . S
C2776 C2779 1.403 . S
H2777 C2783 0.930 . S
C2778 H2764 0.930 . S
C2778 C2776 1.395 . S
C2778 C2781 1.403 . S
C2779 C2776 1.403 . S
C2779 C2780 1.524 . S
C2779 C2783 1.400 . S
C2780 H2765 0.960 . S
C2780 H2766 0.960 . S
C2780 H2767 0.960 . S
C2780 C2779 1.524 . S
C2781 C2778 1.403 . S
C2781 C2782 1.392 . S
C2781 C2785 1.495 . S
C2782 C2781 1.392 . S
C2782 C2783 1.385 . S
C2782 C2784 1.478 . S
C2783 H2777 0.930 . S
C2783 C2779 1.400 . S
C2783 C2782 1.385 . S
C2784 C2782 1.478 . S
C2784 C2786 1.381 . S
C2784 C2790 1.383 . S
C2785 C2781 1.495 . S
C2785 H2791 0.959 . S
C2785 H2792 0.961 . S
C2785 H2793 0.960 . S
C2786 C2784 1.381 . S
C2786 C2787 1.394 . S
C2786 H2794 0.930 . S
C2787 C2786 1.394 . S
C2787 C2788 1.383 . S
C2787 H2795 0.929 . S
C2788 C2787 1.383 . S
C2788 C2789 1.377 . S
C2789 H2773 0.930 . S
C2789 C2788 1.377 . S
C2789 C2790 1.379 . S
C2790 H2774 0.931 . S
C2790 C2784 1.383 . S
C2790 C2789 1.379 . S
H2791 C2785 0.959 . S
H2792 C2785 0.961 . S
H2793 C2785 0.960 . S
H2794 C2786 0.930 . S
H2795 C2787 0.929 . S
H2796 C2804 0.929 . S
H2797 C2806 0.930 . S
H2798 C2808 0.930 . S
H2799 C2811 0.929 . S
H2800 C2814 0.930 . S
H2801 C2816 0.960 . S
H2802 C2816 0.960 . S
H2803 C2816 0.960 . S
C2804 H2796 0.929 . S
C2804 C2805 1.377 . S
C2804 C2806 1.384 . S
C2805 C2804 1.377 . S
C2805 C2811 1.390 . S
C2806 H2797 0.930 . S
C2806 C2804 1.384 . S
C2806 C2807 1.372 . S
C2807 C2806 1.372 . S
C2807 C2808 1.400 . S
C2807 C2812 1.490 . S
C2808 H2798 0.930 . S
C2808 C2807 1.400 . S
C2808 C2811 1.386 . S
H2809 C2825 0.930 . S
H2810 C2826 0.931 . S
C2811 H2799 0.929 . S
C2811 C2805 1.390 . S
C2811 C2808 1.386 . S
C2812 C2807 1.490 . S
C2812 C2814 1.395 . S
C2812 C2815 1.403 . S
H2813 C2819 0.930 . S
C2814 H2800 0.930 . S
C2814 C2812 1.395 . S
C2814 C2817 1.403 . S
C2815 C2812 1.403 . S
C2815 C2816 1.524 . S
C2815 C2819 1.400 . S
C2816 H2801 0.960 . S
C2816 H2802 0.960 . S
C2816 H2803 0.960 . S
C2816 C2815 1.524 . S
C2817 C2814 1.403 . S
C2817 C2818 1.392 . S
C2817 C2821 1.495 . S
C2818 C2817 1.392 . S
C2818 C2819 1.385 . S
C2818 C2820 1.478 . S
C2819 H2813 0.930 . S
C2819 C2815 1.400 . S
C2819 C2818 1.385 . S
C2820 C2818 1.478 . S
C2820 C2822 1.381 . S
C2820 C2826 1.383 . S
C2821 C2817 1.495 . S
C2821 H2827 0.959 . S
C2821 H2828 0.961 . S
C2821 H2829 0.960 . S
C2822 C2820 1.381 . S
C2822 C2823 1.394 . S
C2822 H2830 0.930 . S
C2823 C2822 1.394 . S
C2823 C2824 1.383 . S
C2823 H2831 0.929 . S
C2824 C2823 1.383 . S
C2824 C2825 1.377 . S
C2825 H2809 0.930 . S
C2825 C2824 1.377 . S
C2825 C2826 1.379 . S
C2826 H2810 0.931 . S
C2826 C2820 1.383 . S
C2826 C2825 1.379 . S
H2827 C2821 0.959 . S
H2828 C2821 0.961 . S
H2829 C2821 0.960 . S
H2830 C2822 0.930 . S
H2831 C2823 0.929 . S
H2832 C2840 0.929 . S
H2833 C2842 0.930 . S
H2834 C2844 0.930 . S
H2835 C2847 0.929 . S
H2836 C2850 0.930 . S
H2837 C2852 0.960 . S
H2838 C2852 0.960 . S
H2839 C2852 0.960 . S
C2840 H2832 0.929 . S
C2840 C2841 1.377 . S
C2840 C2842 1.384 . S
C2841 C2840 1.377 . S
C2841 C2847 1.390 . S
C2842 H2833 0.930 . S
C2842 C2840 1.384 . S
C2842 C2843 1.372 . S
C2843 C2842 1.372 . S
C2843 C2844 1.400 . S
C2843 C2848 1.490 . S
C2844 H2834 0.930 . S
C2844 C2843 1.400 . S
C2844 C2847 1.386 . S
H2845 C2861 0.930 . S
H2846 C2862 0.931 . S
C2847 H2835 0.929 . S
C2847 C2841 1.390 . S
C2847 C2844 1.386 . S
C2848 C2843 1.490 . S
C2848 C2850 1.395 . S
C2848 C2851 1.403 . S
H2849 C2855 0.930 . S
C2850 H2836 0.930 . S
C2850 C2848 1.395 . S
C2850 C2853 1.403 . S
C2851 C2848 1.403 . S
C2851 C2852 1.524 . S
C2851 C2855 1.400 . S
C2852 H2837 0.960 . S
C2852 H2838 0.960 . S
C2852 H2839 0.960 . S
C2852 C2851 1.524 . S
C2853 C2850 1.403 . S
C2853 C2854 1.392 . S
C2853 C2857 1.495 . S
C2854 C2853 1.392 . S
C2854 C2855 1.385 . S
C2854 C2856 1.478 . S
C2855 H2849 0.930 . S
C2855 C2851 1.400 . S
C2855 C2854 1.385 . S
C2856 C2854 1.478 . S
C2856 C2858 1.381 . S
C2856 C2862 1.383 . S
C2857 C2853 1.495 . S
C2857 H2863 0.959 . S
C2857 H2864 0.961 . S
C2857 H2865 0.960 . S
C2858 C2856 1.381 . S
C2858 C2859 1.394 . S
C2858 H2866 0.930 . S
C2859 C2858 1.394 . S
C2859 C2860 1.383 . S
C2859 H2867 0.929 . S
C2860 C2859 1.383 . S
C2860 C2861 1.377 . S
C2861 H2845 0.930 . S
C2861 C2860 1.377 . S
C2861 C2862 1.379 . S
C2862 H2846 0.931 . S
C2862 C2856 1.383 . S
C2862 C2861 1.379 . S
H2863 C2857 0.959 . S
H2864 C2857 0.961 . S
H2865 C2857 0.960 . S
H2866 C2858 0.930 . S
H2867 C2859 0.929 . S
H2868 C2876 0.929 . S
H2869 C2878 0.930 . S
H2870 C2880 0.930 . S
H2871 C2883 0.929 . S
H2872 C2886 0.930 . S
H2873 C2888 0.960 . S
H2874 C2888 0.960 . S
H2875 C2888 0.960 . S
C2876 H2868 0.929 . S
C2876 C2877 1.377 . S
C2876 C2878 1.384 . S
C2877 C2876 1.377 . S
C2877 C2883 1.390 . S
C2878 H2869 0.930 . S
C2878 C2876 1.384 . S
C2878 C2879 1.372 . S
C2879 C2878 1.372 . S
C2879 C2880 1.400 . S
C2879 C2884 1.490 . S
C2880 H2870 0.930 . S
C2880 C2879 1.400 . S
C2880 C2883 1.386 . S
H2881 C2897 0.930 . S
H2882 C2898 0.931 . S
C2883 H2871 0.929 . S
C2883 C2877 1.390 . S
C2883 C2880 1.386 . S
C2884 C2879 1.490 . S
C2884 C2886 1.395 . S
C2884 C2887 1.403 . S
H2885 C2891 0.930 . S
C2886 H2872 0.930 . S
C2886 C2884 1.395 . S
C2886 C2889 1.403 . S
C2887 C2884 1.403 . S
C2887 C2888 1.524 . S
C2887 C2891 1.400 . S
C2888 H2873 0.960 . S
C2888 H2874 0.960 . S
C2888 H2875 0.960 . S
C2888 C2887 1.524 . S
C2889 C2886 1.403 . S
C2889 C2890 1.392 . S
C2889 C2893 1.495 . S
C2890 C2889 1.392 . S
C2890 C2891 1.385 . S
C2890 C2892 1.478 . S
C2891 H2885 0.930 . S
C2891 C2887 1.400 . S
C2891 C2890 1.385 . S
C2892 C2890 1.478 . S
C2892 C2894 1.381 . S
C2892 C2898 1.383 . S
C2893 C2889 1.495 . S
C2893 H2899 0.959 . S
C2893 H2900 0.961 . S
C2893 H2901 0.960 . S
C2894 C2892 1.381 . S
C2894 C2895 1.394 . S
C2894 H2902 0.930 . S
C2895 C2894 1.394 . S
C2895 C2896 1.383 . S
C2895 H2903 0.929 . S
C2896 C2895 1.383 . S
C2896 C2897 1.377 . S
C2897 H2881 0.930 . S
C2897 C2896 1.377 . S
C2897 C2898 1.379 . S
C2898 H2882 0.931 . S
C2898 C2892 1.383 . S
C2898 C2897 1.379 . S
H2899 C2893 0.959 . S
H2900 C2893 0.961 . S
H2901 C2893 0.960 . S
H2902 C2894 0.930 . S
H2903 C2895 0.929 . S
H2904 C2912 0.929 . S
H2905 C2914 0.930 . S
H2906 C2916 0.930 . S
H2907 C2919 0.929 . S
H2908 C2922 0.930 . S
H2909 C2924 0.960 . S
H2910 C2924 0.960 . S
H2911 C2924 0.960 . S
C2912 H2904 0.929 . S
C2912 C2913 1.377 . S
C2912 C2914 1.384 . S
C2913 C2912 1.377 . S
C2913 C2919 1.390 . S
C2914 H2905 0.930 . S
C2914 C2912 1.384 . S
C2914 C2915 1.372 . S
C2915 C2914 1.372 . S
C2915 C2916 1.400 . S
C2915 C2920 1.490 . S
C2916 H2906 0.930 . S
C2916 C2915 1.400 . S
C2916 C2919 1.386 . S
H2917 C2933 0.930 . S
H2918 C2934 0.931 . S
C2919 H2907 0.929 . S
C2919 C2913 1.390 . S
C2919 C2916 1.386 . S
C2920 C2915 1.490 . S
C2920 C2922 1.395 . S
C2920 C2923 1.403 . S
H2921 C2927 0.930 . S
C2922 H2908 0.930 . S
C2922 C2920 1.395 . S
C2922 C2925 1.403 . S
C2923 C2920 1.403 . S
C2923 C2924 1.524 . S
C2923 C2927 1.400 . S
C2924 H2909 0.960 . S
C2924 H2910 0.960 . S
C2924 H2911 0.960 . S
C2924 C2923 1.524 . S
C2925 C2922 1.403 . S
C2925 C2926 1.392 . S
C2925 C2929 1.495 . S
C2926 C2925 1.392 . S
C2926 C2927 1.385 . S
C2926 C2928 1.478 . S
C2927 H2921 0.930 . S
C2927 C2923 1.400 . S
C2927 C2926 1.385 . S
C2928 C2926 1.478 . S
C2928 C2930 1.381 . S
C2928 C2934 1.383 . S
C2929 C2925 1.495 . S
C2929 H2935 0.959 . S
C2929 H2936 0.961 . S
C2929 H2937 0.960 . S
C2930 C2928 1.381 . S
C2930 C2931 1.394 . S
C2930 H2938 0.930 . S
C2931 C2930 1.394 . S
C2931 C2932 1.383 . S
C2931 H2939 0.929 . S
C2932 C2931 1.383 . S
C2932 C2933 1.377 . S
C2933 H2917 0.930 . S
C2933 C2932 1.377 . S
C2933 C2934 1.379 . S
C2934 H2918 0.931 . S
C2934 C2928 1.383 . S
C2934 C2933 1.379 . S
H2935 C2929 0.959 . S
H2936 C2929 0.961 . S
H2937 C2929 0.960 . S
H2938 C2930 0.930 . S
H2939 C2931 0.929 . S
H2940 C2948 0.929 . S
H2941 C2950 0.930 . S
H2942 C2952 0.930 . S
H2943 C2955 0.929 . S
H2944 C2958 0.930 . S
H2945 C2960 0.960 . S
H2946 C2960 0.960 . S
H2947 C2960 0.960 . S
C2948 H2940 0.929 . S
C2948 C2949 1.377 . S
C2948 C2950 1.384 . S
C2949 C2948 1.377 . S
C2949 C2955 1.390 . S
C2950 H2941 0.930 . S
C2950 C2948 1.384 . S
C2950 C2951 1.372 . S
C2951 C2950 1.372 . S
C2951 C2952 1.400 . S
C2951 C2956 1.490 . S
C2952 H2942 0.930 . S
C2952 C2951 1.400 . S
C2952 C2955 1.386 . S
H2953 C2969 0.930 . S
H2954 C2970 0.931 . S
C2955 H2943 0.929 . S
C2955 C2949 1.390 . S
C2955 C2952 1.386 . S
C2956 C2951 1.490 . S
C2956 C2958 1.395 . S
C2956 C2959 1.403 . S
H2957 C2963 0.930 . S
C2958 H2944 0.930 . S
C2958 C2956 1.395 . S
C2958 C2961 1.403 . S
C2959 C2956 1.403 . S
C2959 C2960 1.524 . S
C2959 C2963 1.400 . S
C2960 H2945 0.960 . S
C2960 H2946 0.960 . S
C2960 H2947 0.960 . S
C2960 C2959 1.524 . S
C2961 C2958 1.403 . S
C2961 C2962 1.392 . S
C2961 C2965 1.495 . S
C2962 C2961 1.392 . S
C2962 C2963 1.385 . S
C2962 C2964 1.478 . S
C2963 H2957 0.930 . S
C2963 C2959 1.400 . S
C2963 C2962 1.385 . S
C2964 C2962 1.478 . S
C2964 C2966 1.381 . S
C2964 C2970 1.383 . S
C2965 C2961 1.495 . S
C2965 H2971 0.959 . S
C2965 H2972 0.961 . S
C2965 H2973 0.960 . S
C2966 C2964 1.381 . S
C2966 C2967 1.394 . S
C2966 H2974 0.930 . S
C2967 C2966 1.394 . S
C2967 C2968 1.383 . S
C2967 H2975 0.929 . S
C2968 C2967 1.383 . S
C2968 C2969 1.377 . S
C2969 H2953 0.930 . S
C2969 C2968 1.377 . S
C2969 C2970 1.379 . S
C2970 H2954 0.931 . S
C2970 C2964 1.383 . S
C2970 C2969 1.379 . S
H2971 C2965 0.959 . S
H2972 C2965 0.961 . S
H2973 C2965 0.960 . S
H2974 C2966 0.930 . S
H2975 C2967 0.929 . S
H2976 C2984 0.929 . S
H2977 C2986 0.930 . S
H2978 C2988 0.926 . S
H2979 C2991 0.929 . S
H2980 C2994 0.930 . S
H2981 C2996 0.960 . S
H2982 C2996 0.960 1_556 S
H2983 C2996 0.960 . S
C2984 H2976 0.929 . S
C2984 C2985 1.377 . S
C2984 C2986 1.384 . S
C2985 C2984 1.377 . S
C2985 C2991 1.390 . S
C2986 H2977 0.930 . S
C2986 C2984 1.384 . S
C2986 C2987 1.372 . S
C2987 C2986 1.372 . S
C2987 C2988 1.400 . S
C2987 C2992 1.490 . S
C2988 H2978 0.926 . S
C2988 C2987 1.400 . S
C2988 C2991 1.386 . S
H2989 C3005 0.930 . S
H2990 C3006 0.931 . S
C2991 H2979 0.929 . S
C2991 C2985 1.390 . S
C2991 C2988 1.386 . S
C2992 C2987 1.490 . S
C2992 C2994 1.395 . S
C2992 C2995 1.405 . S
H2993 C2999 0.930 . S
C2994 H2980 0.930 . S
C2994 C2992 1.395 . S
C2994 C2997 1.403 1_565 S
C2995 C2992 1.405 . S
C2995 C2996 1.523 1_556 S
C2995 C2999 1.398 1_566 S
C2996 H2981 0.960 . S
C2996 H2982 0.960 1_554 S
C2996 H2983 0.960 . S
C2996 C2995 1.523 1_554 S
C2997 C2994 1.403 1_545 S
C2997 C2998 1.392 1_556 S
C2997 C3001 1.495 . S
C2998 C2997 1.392 1_554 S
C2998 C2999 1.385 . S
C2998 C3000 1.478 . S
C2999 H2993 0.930 . S
C2999 C2995 1.398 1_544 S
C2999 C2998 1.385 . S
C3000 C2998 1.478 . S
C3000 C3002 1.381 . S
C3000 C3006 1.383 . S
C3001 C2997 1.495 . S
C3001 H3007 0.959 . S
C3001 H3008 0.961 1_556 S
C3001 H3009 0.960 . S
C3002 C3000 1.381 . S
C3002 C3003 1.394 . S
C3002 H3010 0.930 1_554 S
C3003 C3002 1.394 . S
C3003 C3004 1.383 . S
C3003 H3011 0.929 . S
C3004 C3003 1.383 . S
C3004 C3005 1.377 . S
C3005 H2989 0.930 . S
C3005 C3004 1.377 . S
C3005 C3006 1.379 . S
C3006 H2990 0.931 . S
C3006 C3000 1.383 . S
C3006 C3005 1.379 . S
H3007 C3001 0.959 . S
H3008 C3001 0.961 1_554 S
H3009 C3001 0.960 . S
H3010 C3002 0.930 1_556 S
H3011 C3003 0.929 . S
H3012 C3020 0.929 . S
H3013 C3022 0.930 . S
H3014 C3024 0.930 . S
H3015 C3027 0.929 . S
H3016 C3030 0.930 . S
H3017 C3032 0.960 . S
H3018 C3032 0.960 . S
H3019 C3032 0.960 . S
C3020 H3012 0.929 . S
C3020 C3021 1.377 . S
C3020 C3022 1.384 . S
C3021 C3020 1.377 . S
C3021 C3027 1.390 . S
C3022 H3013 0.930 . S
C3022 C3020 1.384 . S
C3022 C3023 1.372 . S
C3023 C3022 1.372 . S
C3023 C3024 1.400 . S
C3023 C3028 1.490 . S
C3024 H3014 0.930 . S
C3024 C3023 1.400 . S
C3024 C3027 1.386 . S
H3025 C3041 0.930 . S
H3026 C3042 0.931 . S
C3027 H3015 0.929 . S
C3027 C3021 1.390 . S
C3027 C3024 1.386 . S
C3028 C3023 1.490 . S
C3028 C3030 1.395 . S
C3028 C3031 1.403 . S
H3029 C3035 0.930 . S
C3030 H3016 0.930 . S
C3030 C3028 1.395 . S
C3030 C3033 1.403 . S
C3031 C3028 1.403 . S
C3031 C3032 1.524 . S
C3031 C3035 1.400 . S
C3032 H3017 0.960 . S
C3032 H3018 0.960 . S
C3032 H3019 0.960 . S
C3032 C3031 1.524 . S
C3033 C3030 1.403 . S
C3033 C3034 1.392 . S
C3033 C3037 1.495 . S
C3034 C3033 1.392 . S
C3034 C3035 1.385 . S
C3034 C3036 1.478 . S
C3035 H3029 0.930 . S
C3035 C3031 1.400 . S
C3035 C3034 1.385 . S
C3036 C3034 1.478 . S
C3036 C3038 1.381 . S
C3036 C3042 1.383 . S
C3037 C3033 1.495 . S
C3037 H3043 0.959 . S
C3037 H3044 0.961 . S
C3037 H3045 0.960 . S
C3038 C3036 1.381 . S
C3038 C3039 1.394 . S
C3038 H3046 0.930 . S
C3039 C3038 1.394 . S
C3039 C3040 1.383 . S
C3039 H3047 0.929 . S
C3040 C3039 1.383 . S
C3040 C3041 1.377 . S
C3041 H3025 0.930 . S
C3041 C3040 1.377 . S
C3041 C3042 1.379 . S
C3042 H3026 0.931 . S
C3042 C3036 1.383 . S
C3042 C3041 1.379 . S
H3043 C3037 0.959 . S
H3044 C3037 0.961 . S
H3045 C3037 0.960 . S
H3046 C3038 0.930 . S
H3047 C3039 0.929 . S
H3048 C3056 0.929 . S
H3049 C3058 0.930 . S
H3050 C3060 0.930 . S
H3051 C3063 0.929 . S
H3052 C3066 0.926 . S
H3053 C3068 0.960 . S
H3054 C3068 0.960 . S
H3055 C3068 0.960 . S
C3056 H3048 0.929 . S
C3056 C3057 1.377 . S
C3056 C3058 1.384 . S
C3057 C3056 1.377 . S
C3057 C3063 1.390 . S
C3058 H3049 0.930 . S
C3058 C3056 1.384 . S
C3058 C3059 1.372 . S
C3059 C3058 1.372 . S
C3059 C3060 1.400 . S
C3059 C3064 1.490 . S
C3060 H3050 0.930 . S
C3060 C3059 1.400 . S
C3060 C3063 1.386 . S
H3061 C3077 0.930 . S
H3062 C3078 0.931 . S
C3063 H3051 0.929 . S
C3063 C3057 1.390 . S
C3063 C3060 1.386 . S
C3064 C3059 1.490 . S
C3064 C3066 1.429 . S
C3064 C3067 1.403 1_556 S
H3065 C3071 0.930 . S
C3066 H3052 0.926 . S
C3066 C3064 1.429 . S
C3066 C3069 1.374 1_455 S
C3067 C3064 1.403 1_554 S
C3067 C3068 1.524 . S
C3067 C3071 1.400 1_455 S
C3068 H3053 0.960 . S
C3068 H3054 0.960 . S
C3068 H3055 0.960 . S
C3068 C3067 1.524 . S
C3069 C3066 1.374 1_655 S
C3069 C3070 1.392 1_556 S
C3069 C3073 1.495 . S
C3070 C3069 1.392 1_554 S
C3070 C3071 1.385 . S
C3070 C3072 1.478 . S
C3071 H3065 0.930 . S
C3071 C3067 1.400 1_655 S
C3071 C3070 1.385 . S
C3072 C3070 1.478 . S
C3072 C3074 1.381 . S
C3072 C3078 1.383 . S
C3073 C3069 1.495 . S
C3073 H3079 0.959 . S
C3073 H3080 0.961 . S
C3073 H3081 0.960 . S
C3074 C3072 1.381 . S
C3074 C3075 1.394 . S
C3074 H3082 0.930 . S
C3075 C3074 1.394 . S
C3075 C3076 1.383 . S
C3075 H3083 0.929 . S
C3076 C3075 1.383 . S
C3076 C3077 1.377 . S
C3077 H3061 0.930 . S
C3077 C3076 1.377 . S
C3077 C3078 1.379 . S
C3078 H3062 0.931 . S
C3078 C3072 1.383 . S
C3078 C3077 1.379 . S
H3079 C3073 0.959 . S
H3080 C3073 0.961 . S
H3081 C3073 0.960 . S
H3082 C3074 0.930 . S
H3083 C3075 0.929 . S
H3084 C3092 0.929 . S
H3085 C3094 0.930 . S
H3086 C3096 0.930 . S
H3087 C3099 0.929 . S
H3088 C3102 0.930 . S
H3089 C3104 0.960 . S
H3090 C3104 0.959 1_545 S
H3091 C3104 0.960 1_545 S
C3092 H3084 0.929 . S
C3092 C3093 1.377 . S
C3092 C3094 1.384 . S
C3093 C3092 1.377 . S
C3093 C3099 1.390 . S
C3094 H3085 0.930 . S
C3094 C3092 1.384 . S
C3094 C3095 1.372 . S
C3095 C3094 1.372 . S
C3095 C3096 1.400 . S
C3095 C3100 1.490 . S
C3096 H3086 0.930 . S
C3096 C3095 1.400 . S
C3096 C3099 1.386 . S
H3097 C3113 0.930 . S
H3098 C3114 0.931 . S
C3099 H3087 0.929 . S
C3099 C3093 1.390 . S
C3099 C3096 1.386 . S
C3100 C3095 1.490 . S
C3100 C3102 1.395 . S
C3100 C3103 1.386 1_545 S
H3101 C3107 0.930 . S
C3102 H3088 0.930 . S
C3102 C3100 1.395 . S
C3102 C3105 1.403 . S
C3103 C3100 1.386 1_565 S
C3103 C3104 1.522 . S
C3103 C3107 1.420 . S
C3104 H3089 0.960 . S
C3104 H3090 0.959 1_565 S
C3104 H3091 0.960 1_565 S
C3104 C3103 1.522 . S
C3105 C3102 1.403 . S
C3105 C3106 1.392 1_545 S
C3105 C3109 1.495 . S
C3106 C3105 1.392 1_565 S
C3106 C3107 1.385 . S
C3106 C3108 1.478 . S
C3107 H3101 0.930 . S
C3107 C3103 1.420 . S
C3107 C3106 1.385 . S
C3108 C3106 1.478 . S
C3108 C3110 1.381 . S
C3108 C3114 1.383 . S
C3109 C3105 1.495 . S
C3109 H3115 0.959 . S
C3109 H3116 0.956 . S
C3109 H3117 0.960 1_545 S
C3110 C3108 1.381 . S
C3110 C3111 1.394 . S
C3110 H3118 0.930 . S
C3111 C3110 1.394 . S
C3111 C3112 1.383 . S
C3111 H3119 0.929 . S
C3112 C3111 1.383 . S
C3112 C3113 1.377 . S
C3113 H3097 0.930 . S
C3113 C3112 1.377 . S
C3113 C3114 1.379 . S
C3114 H3098 0.931 . S
C3114 C3108 1.383 . S
C3114 C3113 1.379 . S
H3115 C3109 0.959 . S
H3116 C3109 0.956 . S
H3117 C3109 0.960 1_565 S
H3118 C3110 0.930 . S
H3119 C3111 0.929 . S
H3120 C3128 0.929 . S
H3121 C3130 0.930 . S
H3122 C3132 0.930 . S
H3123 C3135 0.929 . S
H3124 C3138 0.930 . S
H3125 C3140 0.960 . S
H3126 C3140 0.960 . S
H3127 C3140 0.960 . S
C3128 H3120 0.929 . S
C3128 C3129 1.377 . S
C3128 C3130 1.384 . S
C3129 C3128 1.377 . S
C3129 C3135 1.390 . S
C3130 H3121 0.930 . S
C3130 C3128 1.384 . S
C3130 C3131 1.372 . S
C3131 C3130 1.372 . S
C3131 C3132 1.400 . S
C3131 C3136 1.490 . S
C3132 H3122 0.930 . S
C3132 C3131 1.400 . S
C3132 C3135 1.386 . S
H3133 C3149 0.930 . S
H3134 C3150 0.931 . S
C3135 H3123 0.929 . S
C3135 C3129 1.390 . S
C3135 C3132 1.386 . S
C3136 C3131 1.490 . S
C3136 C3138 1.395 . S
C3136 C3139 1.403 . S
H3137 C3143 0.930 . S
C3138 H3124 0.930 . S
C3138 C3136 1.395 . S
C3138 C3141 1.403 1_554 S
C3139 C3136 1.403 . S
C3139 C3140 1.524 . S
C3139 C3143 1.400 1_554 S
C3140 H3125 0.960 . S
C3140 H3126 0.960 . S
C3140 H3127 0.960 . S
C3140 C3139 1.524 . S
C3141 C3138 1.403 1_556 S
C3141 C3142 1.392 . S
C3141 C3145 1.495 . S
C3142 C3141 1.392 . S
C3142 C3143 1.385 . S
C3142 C3144 1.478 . S
C3143 H3137 0.930 . S
C3143 C3139 1.400 1_556 S
C3143 C3142 1.385 . S
C3144 C3142 1.478 . S
C3144 C3146 1.381 . S
C3144 C3150 1.383 . S
C3145 C3141 1.495 . S
C3145 H3151 0.959 . S
C3145 H3152 0.961 . S
C3145 H3153 0.960 . S
C3146 C3144 1.381 . S
C3146 C3147 1.394 . S
C3146 H3154 0.930 . S
C3147 C3146 1.394 . S
C3147 C3148 1.383 . S
C3147 H3155 0.929 . S
C3148 C3147 1.383 . S
C3148 C3149 1.377 . S
C3149 H3133 0.930 . S
C3149 C3148 1.377 . S
C3149 C3150 1.379 . S
C3150 H3134 0.931 . S
C3150 C3144 1.383 . S
C3150 C3149 1.379 . S
H3151 C3145 0.959 . S
H3152 C3145 0.961 . S
H3153 C3145 0.960 . S
H3154 C3146 0.930 . S
H3155 C3147 0.929 . S
H3156 C3164 0.929 . S
H3157 C3166 0.930 . S
H3158 C3168 0.930 . S
H3159 C3171 0.929 . S
H3160 C3174 0.930 . S
H3161 C3176 1.034 . S
H3162 C3176 0.952 1_455 S
H3163 C3176 0.923 1_455 S
C3164 H3156 0.929 . S
C3164 C3165 1.377 . S
C3164 C3166 1.384 . S
C3165 C3164 1.377 . S
C3165 C3171 1.390 . S
C3166 H3157 0.930 . S
C3166 C3164 1.384 . S
C3166 C3167 1.372 . S
C3167 C3166 1.372 . S
C3167 C3168 1.400 . S
C3167 C3172 1.490 . S
C3168 H3158 0.930 . S
C3168 C3167 1.400 . S
C3168 C3171 1.386 . S
H3169 C3185 0.930 . S
H3170 C3186 0.931 . S
C3171 H3159 0.929 . S
C3171 C3165 1.390 . S
C3171 C3168 1.386 . S
C3172 C3167 1.490 . S
C3172 C3174 1.395 . S
C3172 C3175 1.427 . S
H3173 C3179 0.930 . S
C3174 H3160 0.930 . S
C3174 C3172 1.395 . S
C3174 C3177 1.403 . S
C3175 C3172 1.427 . S
C3175 C3176 1.496 1_455 S
C3175 C3179 1.383 1_455 S
C3176 H3161 1.034 . S
C3176 H3162 0.952 1_655 S
C3176 H3163 0.923 1_655 S
C3176 C3175 1.496 1_655 S
C3177 C3174 1.403 . S
C3177 C3178 1.392 1_455 S
C3177 C3181 1.495 . S
C3178 C3177 1.392 1_655 S
C3178 C3179 1.385 . S
C3178 C3180 1.478 . S
C3179 H3173 0.930 . S
C3179 C3175 1.383 1_655 S
C3179 C3178 1.385 . S
C3180 C3178 1.478 . S
C3180 C3182 1.381 . S
C3180 C3186 1.383 . S
C3181 C3177 1.495 . S
C3181 H3187 0.959 . S
C3181 H3188 0.961 1_455 S
C3181 H3189 0.957 1_455 S
C3182 C3180 1.381 . S
C3182 C3183 1.394 . S
C3182 H3190 0.930 . S
C3183 C3182 1.394 . S
C3183 C3184 1.383 . S
C3183 H3191 0.929 . S
C3184 C3183 1.383 . S
C3184 C3185 1.377 . S
C3185 H3169 0.930 . S
C3185 C3184 1.377 . S
C3185 C3186 1.379 . S
C3186 H3170 0.931 . S
C3186 C3180 1.383 . S
C3186 C3185 1.379 . S
H3187 C3181 0.959 . S
H3188 C3181 0.961 1_655 S
H3189 C3181 0.957 1_655 S
H3190 C3182 0.930 . S
H3191 C3183 0.929 . S
H3192 C3200 0.929 . S
H3193 C3202 0.930 . S
H3194 C3204 0.930 . S
H3195 C3207 0.929 . S
H3196 C3210 0.930 . S
H3197 C3212 0.960 . S
H3198 C3212 0.960 . S
H3199 C3212 0.960 1_556 S
C3200 H3192 0.929 . S
C3200 C3201 1.377 . S
C3200 C3202 1.384 . S
C3201 C3200 1.377 . S
C3201 C3207 1.390 . S
C3202 H3193 0.930 . S
C3202 C3200 1.384 . S
C3202 C3203 1.372 . S
C3203 C3202 1.372 . S
C3203 C3204 1.400 . S
C3203 C3208 1.490 . S
C3204 H3194 0.930 . S
C3204 C3203 1.400 . S
C3204 C3207 1.386 . S
H3205 C3221 0.930 . S
H3206 C3222 0.931 . S
C3207 H3195 0.929 . S
C3207 C3201 1.390 . S
C3207 C3204 1.386 . S
C3208 C3203 1.490 . S
C3208 C3210 1.395 . S
C3208 C3211 1.403 1_556 S
H3209 C3215 0.930 . S
C3210 H3196 0.930 . S
C3210 C3208 1.395 . S
C3210 C3213 1.403 1_565 S
C3211 C3208 1.403 1_554 S
C3211 C3212 1.524 . S
C3211 C3215 1.400 1_565 S
C3212 H3197 0.960 . S
C3212 H3198 0.960 . S
C3212 H3199 0.960 1_554 S
C3212 C3211 1.524 . S
C3213 C3210 1.403 1_545 S
C3213 C3214 1.392 1_556 S
C3213 C3217 1.495 . S
C3214 C3213 1.392 1_554 S
C3214 C3215 1.385 . S
C3214 C3216 1.478 . S
C3215 H3209 0.930 . S
C3215 C3211 1.400 1_545 S
C3215 C3214 1.385 . S
C3216 C3214 1.478 . S
C3216 C3218 1.381 . S
C3216 C3222 1.383 . S
C3217 C3213 1.495 . S
C3217 H3223 0.959 . S
C3217 H3224 0.961 . S
C3217 H3225 0.960 1_556 S
C3218 C3216 1.381 . S
C3218 C3219 1.394 . S
C3218 H3226 0.930 . S
C3219 C3218 1.394 . S
C3219 C3220 1.383 . S
C3219 H3227 0.929 . S
C3220 C3219 1.383 . S
C3220 C3221 1.377 . S
C3221 H3205 0.930 . S
C3221 C3220 1.377 . S
C3221 C3222 1.379 . S
C3222 H3206 0.931 . S
C3222 C3216 1.383 . S
C3222 C3221 1.379 . S
H3223 C3217 0.959 . S
H3224 C3217 0.961 . S
H3225 C3217 0.960 1_554 S
H3226 C3218 0.930 . S
H3227 C3219 0.929 . S
H3228 C3236 0.929 . S
H3229 C3238 0.930 . S
H3230 C3240 0.930 . S
H3231 C3243 0.929 . S
H3232 C3246 0.930 . S
H3233 C3248 0.960 . S
H3234 C3248 0.960 . S
H3235 C3248 0.960 . S
C3236 H3228 0.929 . S
C3236 C3237 1.377 . S
C3236 C3238 1.384 . S
C3237 C3236 1.377 . S
C3237 C3243 1.390 . S
C3238 H3229 0.930 . S
C3238 C3236 1.384 . S
C3238 C3239 1.372 . S
C3239 C3238 1.372 . S
C3239 C3240 1.400 . S
C3239 C3244 1.490 . S
C3240 H3230 0.930 . S
C3240 C3239 1.400 . S
C3240 C3243 1.386 . S
H3241 C3257 0.930 . S
H3242 C3258 0.931 . S
C3243 H3231 0.929 . S
C3243 C3237 1.390 . S
C3243 C3240 1.386 . S
C3244 C3239 1.490 . S
C3244 C3246 1.395 . S
C3244 C3247 1.403 . S
H3245 C3251 0.930 . S
C3246 H3232 0.930 . S
C3246 C3244 1.395 . S
C3246 C3249 1.403 . S
C3247 C3244 1.403 . S
C3247 C3248 1.524 . S
C3247 C3251 1.400 . S
C3248 H3233 0.960 . S
C3248 H3234 0.960 . S
C3248 H3235 0.960 . S
C3248 C3247 1.524 . S
C3249 C3246 1.403 . S
C3249 C3250 1.392 . S
C3249 C3253 1.495 . S
C3250 C3249 1.392 . S
C3250 C3251 1.385 . S
C3250 C3252 1.478 . S
C3251 H3245 0.930 . S
C3251 C3247 1.400 . S
C3251 C3250 1.385 . S
C3252 C3250 1.478 . S
C3252 C3254 1.381 . S
C3252 C3258 1.383 . S
C3253 C3249 1.495 . S
C3253 H3259 0.959 . S
C3253 H3260 0.961 . S
C3253 H3261 0.960 . S
C3254 C3252 1.381 . S
C3254 C3255 1.394 . S
C3254 H3262 0.930 . S
C3255 C3254 1.394 . S
C3255 C3256 1.383 . S
C3255 H3263 0.929 . S
C3256 C3255 1.383 . S
C3256 C3257 1.377 . S
C3257 H3241 0.930 . S
C3257 C3256 1.377 . S
C3257 C3258 1.379 . S
C3258 H3242 0.931 . S
C3258 C3252 1.383 . S
C3258 C3257 1.379 . S
H3259 C3253 0.959 . S
H3260 C3253 0.961 . S
H3261 C3253 0.960 . S
H3262 C3254 0.930 . S
H3263 C3255 0.929 . S
H3264 C3272 0.929 . S
H3265 C3274 0.930 . S
H3266 C3276 0.930 . S
H3267 C3279 0.929 . S
H3268 C3282 0.930 . S
H3269 C3284 0.960 1_455 S
H3270 C3284 0.960 . S
H3271 C3284 0.960 . S
C3272 H3264 0.929 . S
C3272 C3273 1.377 . S
C3272 C3274 1.384 . S
C3273 C3272 1.377 . S
C3273 C3279 1.390 . S
C3274 H3265 0.930 . S
C3274 C3272 1.384 . S
C3274 C3275 1.372 . S
C3275 C3274 1.372 . S
C3275 C3276 1.400 . S
C3275 C3280 1.490 . S
C3276 H3266 0.930 . S
C3276 C3275 1.400 . S
C3276 C3279 1.386 . S
H3277 C3293 0.930 . S
H3278 C3294 0.931 . S
C3279 H3267 0.929 . S
C3279 C3273 1.390 . S
C3279 C3276 1.386 . S
C3280 C3275 1.490 . S
C3280 C3282 1.395 . S
C3280 C3283 1.403 . S
H3281 C3287 0.930 . S
C3282 H3268 0.930 . S
C3282 C3280 1.395 . S
C3282 C3285 1.403 1_654 S
C3283 C3280 1.403 . S
C3283 C3284 1.524 . S
C3283 C3287 1.400 1_654 S
C3284 H3269 0.960 1_655 S
C3284 H3270 0.960 . S
C3284 H3271 0.960 . S
C3284 C3283 1.524 . S
C3285 C3282 1.403 1_456 S
C3285 C3286 1.392 . S
C3285 C3289 1.495 . S
C3286 C3285 1.392 . S
C3286 C3287 1.385 . S
C3286 C3288 1.478 . S
C3287 H3281 0.930 . S
C3287 C3283 1.400 1_456 S
C3287 C3286 1.385 . S
C3288 C3286 1.478 . S
C3288 C3290 1.381 . S
C3288 C3294 1.383 . S
C3289 C3285 1.495 . S
C3289 H3295 0.960 1_455 S
C3289 H3296 0.961 . S
C3289 H3297 0.960 . S
C3290 C3288 1.381 . S
C3290 C3291 1.394 . S
C3290 H3298 0.930 . S
C3291 C3290 1.394 . S
C3291 C3292 1.383 . S
C3291 H3299 0.929 . S
C3292 C3291 1.383 . S
C3292 C3293 1.377 . S
C3293 H3277 0.930 . S
C3293 C3292 1.377 . S
C3293 C3294 1.379 . S
C3294 H3278 0.931 . S
C3294 C3288 1.383 . S
C3294 C3293 1.379 . S
H3295 C3289 0.960 1_655 S
H3296 C3289 0.961 . S
H3297 C3289 0.960 . S
H3298 C3290 0.930 . S
H3299 C3291 0.929 . S
H3300 C3308 0.929 . S
H3301 C3310 0.930 . S
H3302 C3312 0.930 . S
H3303 C3315 0.929 . S
H3304 C3318 0.930 . S
H3305 C3320 0.979 . S
H3306 C3320 0.932 1_565 S
H3307 C3320 0.964 1_565 S
C3308 H3300 0.929 . S
C3308 C3309 1.377 . S
C3308 C3310 1.384 . S
C3309 C3308 1.377 . S
C3309 C3315 1.390 . S
C3310 H3301 0.930 . S
C3310 C3308 1.384 . S
C3310 C3311 1.372 . S
C3311 C3310 1.372 . S
C3311 C3312 1.400 . S
C3311 C3316 1.490 . S
C3312 H3302 0.930 . S
C3312 C3311 1.400 . S
C3312 C3315 1.386 . S
H3313 C3329 0.930 . S
H3314 C3330 0.931 . S
C3315 H3303 0.929 . S
C3315 C3309 1.390 . S
C3315 C3312 1.386 . S
C3316 C3311 1.490 . S
C3316 C3318 1.395 . S
C3316 C3319 1.427 . S
H3317 C3323 0.930 . S
C3318 H3304 0.930 . S
C3318 C3316 1.395 . S
C3318 C3321 1.403 . S
C3319 C3316 1.427 . S
C3319 C3320 1.542 1_565 S
C3319 C3323 1.365 1_565 S
C3320 H3305 0.979 . S
C3320 H3306 0.932 1_545 S
C3320 H3307 0.964 1_545 S
C3320 C3319 1.542 1_545 S
C3321 C3318 1.403 . S
C3321 C3322 1.392 1_565 S
C3321 C3325 1.495 . S
C3322 C3321 1.392 1_545 S
C3322 C3323 1.385 . S
C3322 C3324 1.478 . S
C3323 H3317 0.930 . S
C3323 C3319 1.365 1_545 S
C3323 C3322 1.385 . S
C3324 C3322 1.478 . S
C3324 C3326 1.381 . S
C3324 C3330 1.383 . S
C3325 C3321 1.495 . S
C3325 H3331 0.959 . S
C3325 H3332 0.961 1_565 S
C3325 H3333 0.963 1_565 S
C3326 C3324 1.381 . S
C3326 C3327 1.394 . S
C3326 H3334 0.930 . S
C3327 C3326 1.394 . S
C3327 C3328 1.383 . S
C3327 H3335 0.929 . S
C3328 C3327 1.383 . S
C3328 C3329 1.377 . S
C3329 H3313 0.930 . S
C3329 C3328 1.377 . S
C3329 C3330 1.379 . S
C3330 H3314 0.931 . S
C3330 C3324 1.383 . S
C3330 C3329 1.379 . S
H3331 C3325 0.959 . S
H3332 C3325 0.961 1_545 S
H3333 C3325 0.963 1_545 S
H3334 C3326 0.930 . S
H3335 C3327 0.929 . S
H3336 C3344 0.929 . S
H3337 C3346 0.930 . S
H3338 C3348 0.930 . S
H3339 C3351 0.929 . S
H3340 C3354 0.930 . S
H3341 C3356 0.960 . S
H3342 C3356 0.960 . S
H3343 C3356 0.960 . S
C3344 H3336 0.929 . S
C3344 C3345 1.377 . S
C3344 C3346 1.384 . S
C3345 C3344 1.377 . S
C3345 C3351 1.390 . S
C3346 H3337 0.930 . S
C3346 C3344 1.384 . S
C3346 C3347 1.372 . S
C3347 C3346 1.372 . S
C3347 C3348 1.400 . S
C3347 C3352 1.490 . S
C3348 H3338 0.930 . S
C3348 C3347 1.400 . S
C3348 C3351 1.386 . S
H3349 C3365 0.930 . S
H3350 C3366 0.931 . S
C3351 H3339 0.929 . S
C3351 C3345 1.390 . S
C3351 C3348 1.386 . S
C3352 C3347 1.490 . S
C3352 C3354 1.395 1_554 S
C3352 C3355 1.403 . S
H3353 C3359 0.930 . S
C3354 H3340 0.930 . S
C3354 C3352 1.395 1_556 S
C3354 C3357 1.403 . S
C3355 C3352 1.403 . S
C3355 C3356 1.524 . S
C3355 C3359 1.400 . S
C3356 H3341 0.960 . S
C3356 H3342 0.960 . S
C3356 H3343 0.960 . S
C3356 C3355 1.524 . S
C3357 C3354 1.403 . S
C3357 C3358 1.392 . S
C3357 C3361 1.495 . S
C3358 C3357 1.392 . S
C3358 C3359 1.385 1_556 S
C3358 C3360 1.478 . S
C3359 H3353 0.930 . S
C3359 C3355 1.400 . S
C3359 C3358 1.385 1_554 S
C3360 C3358 1.478 . S
C3360 C3362 1.381 . S
C3360 C3366 1.383 . S
C3361 C3357 1.495 . S
C3361 H3367 0.959 . S
C3361 H3368 0.961 . S
C3361 H3369 0.960 . S
C3362 C3360 1.381 . S
C3362 C3363 1.394 . S
C3362 H3370 0.930 . S
C3363 C3362 1.394 . S
C3363 C3364 1.383 . S
C3363 H3371 0.929 . S
C3364 C3363 1.383 . S
C3364 C3365 1.377 . S
C3365 H3349 0.930 . S
C3365 C3364 1.377 . S
C3365 C3366 1.379 . S
C3366 H3350 0.931 . S
C3366 C3360 1.383 . S
C3366 C3365 1.379 . S
H3367 C3361 0.959 . S
H3368 C3361 0.961 . S
H3369 C3361 0.960 . S
H3370 C3362 0.930 . S
H3371 C3363 0.929 . S
H3372 C3380 0.929 . S
H3373 C3382 0.930 . S
H3374 C3384 0.930 . S
H3375 C3387 0.929 . S
H3376 C3390 0.935 . S
H3377 C3392 0.960 . S
H3378 C3392 0.960 . S
H3379 C3392 0.960 . S
C3380 H3372 0.929 . S
C3380 C3381 1.377 . S
C3380 C3382 1.384 . S
C3381 C3380 1.377 . S
C3381 C3387 1.390 . S
C3382 H3373 0.930 . S
C3382 C3380 1.384 . S
C3382 C3383 1.372 . S
C3383 C3382 1.372 . S
C3383 C3384 1.400 . S
C3383 C3388 1.490 . S
C3384 H3374 0.930 . S
C3384 C3383 1.400 . S
C3384 C3387 1.386 . S
H3385 C3401 0.930 . S
H3386 C3402 0.931 . S
C3387 H3375 0.929 . S
C3387 C3381 1.390 . S
C3387 C3384 1.386 . S
C3388 C3383 1.490 . S
C3388 C3390 1.357 1_455 S
C3388 C3391 1.403 . S
H3389 C3395 0.930 . S
C3390 H3376 0.935 . S
C3390 C3388 1.357 1_655 S
C3390 C3393 1.439 . S
C3391 C3388 1.403 . S
C3391 C3392 1.524 . S
C3391 C3395 1.400 1_455 S
C3392 H3377 0.960 . S
C3392 H3378 0.960 . S
C3392 H3379 0.960 . S
C3392 C3391 1.524 . S
C3393 C3390 1.439 . S
C3393 C3394 1.392 . S
C3393 C3397 1.495 . S
C3394 C3393 1.392 . S
C3394 C3395 1.385 . S
C3394 C3396 1.478 . S
C3395 H3389 0.930 . S
C3395 C3391 1.400 1_655 S
C3395 C3394 1.385 . S
C3396 C3394 1.478 . S
C3396 C3398 1.381 . S
C3396 C3402 1.383 . S
C3397 C3393 1.495 . S
C3397 H3403 0.959 . S
C3397 H3404 0.961 . S
C3397 H3405 0.960 . S
C3398 C3396 1.381 . S
C3398 C3399 1.394 . S
C3398 H3406 0.930 . S
C3399 C3398 1.394 . S
C3399 C3400 1.383 . S
C3399 H3407 0.929 . S
C3400 C3399 1.383 . S
C3400 C3401 1.377 . S
C3401 H3385 0.930 . S
C3401 C3400 1.377 . S
C3401 C3402 1.379 . S
C3402 H3386 0.931 . S
C3402 C3396 1.383 . S
C3402 C3401 1.379 . S
H3403 C3397 0.959 . S
H3404 C3397 0.961 . S
H3405 C3397 0.960 . S
H3406 C3398 0.930 . S
H3407 C3399 0.929 . S
H3408 C3416 0.929 . S
H3409 C3418 0.930 . S
H3410 C3420 0.930 . S
H3411 C3423 0.929 . S
H3412 C3426 0.930 . S
H3413 C3428 0.960 . S
H3414 C3428 0.960 . S
H3415 C3428 0.960 . S
C3416 H3408 0.929 . S
C3416 C3417 1.377 . S
C3416 C3418 1.384 . S
C3417 C3416 1.377 . S
C3417 C3423 1.390 . S
C3418 H3409 0.930 . S
C3418 C3416 1.384 . S
C3418 C3419 1.372 . S
C3419 C3418 1.372 . S
C3419 C3420 1.400 . S
C3419 C3424 1.490 . S
C3420 H3410 0.930 . S
C3420 C3419 1.400 . S
C3420 C3423 1.386 . S
H3421 C3437 0.930 . S
H3422 C3438 0.931 . S
C3423 H3411 0.929 . S
C3423 C3417 1.390 . S
C3423 C3420 1.386 . S
C3424 C3419 1.490 . S
C3424 C3426 1.395 . S
C3424 C3427 1.403 . S
H3425 C3431 0.930 . S
C3426 H3412 0.930 . S
C3426 C3424 1.395 . S
C3426 C3429 1.403 . S
C3427 C3424 1.403 . S
C3427 C3428 1.524 . S
C3427 C3431 1.400 . S
C3428 H3413 0.960 . S
C3428 H3414 0.960 . S
C3428 H3415 0.960 . S
C3428 C3427 1.524 . S
C3429 C3426 1.403 . S
C3429 C3430 1.392 . S
C3429 C3433 1.495 . S
C3430 C3429 1.392 . S
C3430 C3431 1.385 . S
C3430 C3432 1.478 . S
C3431 H3425 0.930 . S
C3431 C3427 1.400 . S
C3431 C3430 1.385 . S
C3432 C3430 1.478 . S
C3432 C3434 1.381 . S
C3432 C3438 1.383 . S
C3433 C3429 1.495 . S
C3433 H3439 0.959 . S
C3433 H3440 0.961 . S
C3433 H3441 0.960 . S
C3434 C3432 1.381 . S
C3434 C3435 1.394 . S
C3434 H3442 0.930 . S
C3435 C3434 1.394 . S
C3435 C3436 1.383 . S
C3435 H3443 0.929 . S
C3436 C3435 1.383 . S
C3436 C3437 1.377 . S
C3437 H3421 0.930 . S
C3437 C3436 1.377 . S
C3437 C3438 1.379 . S
C3438 H3422 0.931 . S
C3438 C3432 1.383 . S
C3438 C3437 1.379 . S
H3439 C3433 0.959 . S
H3440 C3433 0.961 . S
H3441 C3433 0.960 . S
H3442 C3434 0.930 . S
H3443 C3435 0.929 . S
H3444 C3452 0.929 . S
H3445 C3454 0.930 . S
H3446 C3456 0.930 . S
H3447 C3459 0.929 . S
H3448 C3462 0.930 . S
H3449 C3464 0.960 . S
H3450 C3464 0.960 . S
H3451 C3464 0.960 . S
C3452 H3444 0.929 . S
C3452 C3453 1.377 . S
C3452 C3454 1.384 . S
C3453 C3452 1.377 . S
C3453 C3459 1.390 . S
C3454 H3445 0.930 . S
C3454 C3452 1.384 . S
C3454 C3455 1.372 . S
C3455 C3454 1.372 . S
C3455 C3456 1.400 . S
C3455 C3460 1.490 . S
C3456 H3446 0.930 . S
C3456 C3455 1.400 . S
C3456 C3459 1.386 . S
H3457 C3473 0.930 . S
H3458 C3474 0.931 . S
C3459 H3447 0.929 . S
C3459 C3453 1.390 . S
C3459 C3456 1.386 . S
C3460 C3455 1.490 . S
C3460 C3462 1.395 . S
C3460 C3463 1.403 . S
H3461 C3467 0.930 . S
C3462 H3448 0.930 . S
C3462 C3460 1.395 . S
C3462 C3465 1.403 . S
C3463 C3460 1.403 . S
C3463 C3464 1.524 . S
C3463 C3467 1.400 . S
C3464 H3449 0.960 . S
C3464 H3450 0.960 . S
C3464 H3451 0.960 . S
C3464 C3463 1.524 . S
C3465 C3462 1.403 . S
C3465 C3466 1.392 . S
C3465 C3469 1.495 . S
C3466 C3465 1.392 . S
C3466 C3467 1.385 . S
C3466 C3468 1.478 . S
C3467 H3461 0.930 . S
C3467 C3463 1.400 . S
C3467 C3466 1.385 . S
C3468 C3466 1.478 . S
C3468 C3470 1.381 . S
C3468 C3474 1.383 . S
C3469 C3465 1.495 . S
C3469 H3475 0.959 . S
C3469 H3476 0.961 . S
C3469 H3477 0.960 . S
C3470 C3468 1.381 . S
C3470 C3471 1.394 . S
C3470 H3478 0.930 . S
C3471 C3470 1.394 . S
C3471 C3472 1.383 . S
C3471 H3479 0.929 . S
C3472 C3471 1.383 . S
C3472 C3473 1.377 . S
C3473 H3457 0.930 . S
C3473 C3472 1.377 . S
C3473 C3474 1.379 . S
C3474 H3458 0.931 . S
C3474 C3468 1.383 . S
C3474 C3473 1.379 . S
H3475 C3469 0.959 . S
H3476 C3469 0.961 . S
H3477 C3469 0.960 . S
H3478 C3470 0.930 . S
H3479 C3471 0.929 . S
H3480 C3488 0.929 . S
H3481 C3490 0.930 . S
H3482 C3492 0.930 . S
H3483 C3495 0.929 . S
H3484 C3498 0.930 . S
H3485 C3500 0.960 . S
H3486 C3500 0.960 . S
H3487 C3500 0.960 . S
C3488 H3480 0.929 . S
C3488 C3489 1.377 . S
C3488 C3490 1.384 . S
C3489 C3488 1.377 . S
C3489 C3495 1.390 . S
C3490 H3481 0.930 . S
C3490 C3488 1.384 . S
C3490 C3491 1.372 . S
C3491 C3490 1.372 . S
C3491 C3492 1.400 . S
C3491 C3496 1.490 . S
C3492 H3482 0.930 . S
C3492 C3491 1.400 . S
C3492 C3495 1.386 . S
H3493 C3509 0.930 . S
H3494 C3510 0.931 . S
C3495 H3483 0.929 . S
C3495 C3489 1.390 . S
C3495 C3492 1.386 . S
C3496 C3491 1.490 . S
C3496 C3498 1.395 . S
C3496 C3499 1.403 . S
H3497 C3503 0.930 . S
C3498 H3484 0.930 . S
C3498 C3496 1.395 . S
C3498 C3501 1.403 . S
C3499 C3496 1.403 . S
C3499 C3500 1.524 . S
C3499 C3503 1.400 . S
C3500 H3485 0.960 . S
C3500 H3486 0.960 . S
C3500 H3487 0.960 . S
C3500 C3499 1.524 . S
C3501 C3498 1.403 . S
C3501 C3502 1.392 . S
C3501 C3505 1.495 . S
C3502 C3501 1.392 . S
C3502 C3503 1.385 . S
C3502 C3504 1.478 . S
C3503 H3497 0.930 . S
C3503 C3499 1.400 . S
C3503 C3502 1.385 . S
C3504 C3502 1.478 . S
C3504 C3506 1.381 . S
C3504 C3510 1.383 . S
C3505 C3501 1.495 . S
C3505 H3511 0.959 . S
C3505 H3512 0.961 . S
C3505 H3513 0.960 . S
C3506 C3504 1.381 . S
C3506 C3507 1.394 . S
C3506 H3514 0.930 . S
C3507 C3506 1.394 . S
C3507 C3508 1.383 . S
C3507 H3515 0.929 . S
C3508 C3507 1.383 . S
C3508 C3509 1.377 . S
C3509 H3493 0.930 . S
C3509 C3508 1.377 . S
C3509 C3510 1.379 . S
C3510 H3494 0.931 . S
C3510 C3504 1.383 . S
C3510 C3509 1.379 . S
H3511 C3505 0.959 . S
H3512 C3505 0.961 . S
H3513 C3505 0.960 . S
H3514 C3506 0.930 . S
H3515 C3507 0.929 . S
H3516 C3524 0.929 . S
H3517 C3526 0.930 . S
H3518 C3528 0.930 . S
H3519 C3531 0.929 . S
H3520 C3534 0.930 . S
H3521 C3536 0.960 . S
H3522 C3536 0.960 . S
H3523 C3536 0.960 . S
C3524 H3516 0.929 . S
C3524 C3525 1.377 . S
C3524 C3526 1.384 . S
C3525 C3524 1.377 . S
C3525 C3531 1.390 . S
C3526 H3517 0.930 . S
C3526 C3524 1.384 . S
C3526 C3527 1.372 . S
C3527 C3526 1.372 . S
C3527 C3528 1.400 . S
C3527 C3532 1.490 . S
C3528 H3518 0.930 . S
C3528 C3527 1.400 . S
C3528 C3531 1.386 . S
H3529 C3545 0.930 . S
H3530 C3546 0.931 . S
C3531 H3519 0.929 . S
C3531 C3525 1.390 . S
C3531 C3528 1.386 . S
C3532 C3527 1.490 . S
C3532 C3534 1.395 . S
C3532 C3535 1.403 . S
H3533 C3539 0.930 . S
C3534 H3520 0.930 . S
C3534 C3532 1.395 . S
C3534 C3537 1.403 . S
C3535 C3532 1.403 . S
C3535 C3536 1.524 . S
C3535 C3539 1.400 . S
C3536 H3521 0.960 . S
C3536 H3522 0.960 . S
C3536 H3523 0.960 . S
C3536 C3535 1.524 . S
C3537 C3534 1.403 . S
C3537 C3538 1.392 . S
C3537 C3541 1.495 . S
C3538 C3537 1.392 . S
C3538 C3539 1.385 . S
C3538 C3540 1.478 . S
C3539 H3533 0.930 . S
C3539 C3535 1.400 . S
C3539 C3538 1.385 . S
C3540 C3538 1.478 . S
C3540 C3542 1.381 . S
C3540 C3546 1.383 . S
C3541 C3537 1.495 . S
C3541 H3547 0.959 . S
C3541 H3548 0.961 . S
C3541 H3549 0.960 . S
C3542 C3540 1.381 . S
C3542 C3543 1.394 . S
C3542 H3550 0.930 . S
C3543 C3542 1.394 . S
C3543 C3544 1.383 . S
C3543 H3551 0.929 . S
C3544 C3543 1.383 . S
C3544 C3545 1.377 . S
C3545 H3529 0.930 . S
C3545 C3544 1.377 . S
C3545 C3546 1.379 . S
C3546 H3530 0.931 . S
C3546 C3540 1.383 . S
C3546 C3545 1.379 . S
H3547 C3541 0.959 . S
H3548 C3541 0.961 . S
H3549 C3541 0.960 . S
H3550 C3542 0.930 . S
H3551 C3543 0.929 . S
H3552 C3560 0.929 . S
H3553 C3562 0.930 . S
H3554 C3564 0.930 . S
H3555 C3567 0.929 . S
H3556 C3570 0.930 . S
H3557 C3572 0.960 . S
H3558 C3572 0.960 . S
H3559 C3572 0.960 . S
C3560 H3552 0.929 . S
C3560 C3561 1.377 . S
C3560 C3562 1.384 . S
C3561 C3560 1.377 . S
C3561 C3567 1.390 . S
C3562 H3553 0.930 . S
C3562 C3560 1.384 . S
C3562 C3563 1.372 . S
C3563 C3562 1.372 . S
C3563 C3564 1.400 . S
C3563 C3568 1.490 . S
C3564 H3554 0.930 . S
C3564 C3563 1.400 . S
C3564 C3567 1.386 . S
H3565 C3581 0.930 . S
H3566 C3582 0.931 . S
C3567 H3555 0.929 . S
C3567 C3561 1.390 . S
C3567 C3564 1.386 . S
C3568 C3563 1.490 . S
C3568 C3570 1.395 . S
C3568 C3571 1.403 . S
H3569 C3575 0.930 . S
C3570 H3556 0.930 . S
C3570 C3568 1.395 . S
C3570 C3573 1.403 . S
C3571 C3568 1.403 . S
C3571 C3572 1.524 . S
C3571 C3575 1.400 . S
C3572 H3557 0.960 . S
C3572 H3558 0.960 . S
C3572 H3559 0.960 . S
C3572 C3571 1.524 . S
C3573 C3570 1.403 . S
C3573 C3574 1.392 . S
C3573 C3577 1.495 . S
C3574 C3573 1.392 . S
C3574 C3575 1.385 . S
C3574 C3576 1.478 . S
C3575 H3569 0.930 . S
C3575 C3571 1.400 . S
C3575 C3574 1.385 . S
C3576 C3574 1.478 . S
C3576 C3578 1.381 . S
C3576 C3582 1.383 . S
C3577 C3573 1.495 . S
C3577 H3583 0.959 . S
C3577 H3584 0.961 . S
C3577 H3585 0.960 . S
C3578 C3576 1.381 . S
C3578 C3579 1.394 . S
C3578 H3586 0.930 . S
C3579 C3578 1.394 . S
C3579 C3580 1.383 . S
C3579 H3587 0.929 . S
C3580 C3579 1.383 . S
C3580 C3581 1.377 . S
C3581 H3565 0.930 . S
C3581 C3580 1.377 . S
C3581 C3582 1.379 . S
C3582 H3566 0.931 . S
C3582 C3576 1.383 . S
C3582 C3581 1.379 . S
H3583 C3577 0.959 . S
H3584 C3577 0.961 . S
H3585 C3577 0.960 . S
H3586 C3578 0.930 . S
H3587 C3579 0.929 . S
H3588 C3596 0.929 . S
H3589 C3598 0.930 . S
H3590 C3600 0.930 . S
H3591 C3603 0.929 . S
H3592 C3606 0.930 . S
H3593 C3608 0.960 . S
H3594 C3608 0.960 . S
H3595 C3608 0.960 . S
C3596 H3588 0.929 . S
C3596 C3597 1.377 . S
C3596 C3598 1.384 . S
C3597 C3596 1.377 . S
C3597 C3603 1.390 . S
C3598 H3589 0.930 . S
C3598 C3596 1.384 . S
C3598 C3599 1.372 . S
C3599 C3598 1.372 . S
C3599 C3600 1.400 . S
C3599 C3604 1.490 . S
C3600 H3590 0.930 . S
C3600 C3599 1.400 . S
C3600 C3603 1.386 . S
H3601 C3617 0.930 . S
H3602 C3618 0.931 . S
C3603 H3591 0.929 . S
C3603 C3597 1.390 . S
C3603 C3600 1.386 . S
C3604 C3599 1.490 . S
C3604 C3606 1.395 . S
C3604 C3607 1.403 . S
H3605 C3611 0.930 . S
C3606 H3592 0.930 . S
C3606 C3604 1.395 . S
C3606 C3609 1.403 . S
C3607 C3604 1.403 . S
C3607 C3608 1.524 . S
C3607 C3611 1.400 . S
C3608 H3593 0.960 . S
C3608 H3594 0.960 . S
C3608 H3595 0.960 . S
C3608 C3607 1.524 . S
C3609 C3606 1.403 . S
C3609 C3610 1.392 . S
C3609 C3613 1.495 . S
C3610 C3609 1.392 . S
C3610 C3611 1.385 . S
C3610 C3612 1.478 . S
C3611 H3605 0.930 . S
C3611 C3607 1.400 . S
C3611 C3610 1.385 . S
C3612 C3610 1.478 . S
C3612 C3614 1.381 . S
C3612 C3618 1.383 . S
C3613 C3609 1.495 . S
C3613 H3619 0.959 . S
C3613 H3620 0.961 . S
C3613 H3621 0.960 . S
C3614 C3612 1.381 . S
C3614 C3615 1.394 . S
C3614 H3622 0.930 . S
C3615 C3614 1.394 . S
C3615 C3616 1.383 . S
C3615 H3623 0.929 . S
C3616 C3615 1.383 . S
C3616 C3617 1.377 . S
C3617 H3601 0.930 . S
C3617 C3616 1.377 . S
C3617 C3618 1.379 . S
C3618 H3602 0.931 . S
C3618 C3612 1.383 . S
C3618 C3617 1.379 . S
H3619 C3613 0.959 . S
H3620 C3613 0.961 . S
H3621 C3613 0.960 . S
H3622 C3614 0.930 . S
H3623 C3615 0.929 . S
H3624 C3632 0.929 . S
H3625 C3634 0.930 . S
H3626 C3636 0.930 . S
H3627 C3639 0.929 . S
H3628 C3642 0.930 . S
H3629 C3644 0.960 . S
H3630 C3644 0.960 . S
H3631 C3644 0.960 . S
C3632 H3624 0.929 . S
C3632 C3633 1.377 . S
C3632 C3634 1.384 . S
C3633 C3632 1.377 . S
C3633 C3639 1.390 . S
C3634 H3625 0.930 . S
C3634 C3632 1.384 . S
C3634 C3635 1.372 . S
C3635 C3634 1.372 . S
C3635 C3636 1.400 . S
C3635 C3640 1.490 . S
C3636 H3626 0.930 . S
C3636 C3635 1.400 . S
C3636 C3639 1.386 . S
H3637 C3653 0.930 . S
H3638 C3654 0.931 . S
C3639 H3627 0.929 . S
C3639 C3633 1.390 . S
C3639 C3636 1.386 . S
C3640 C3635 1.490 . S
C3640 C3642 1.395 . S
C3640 C3643 1.403 . S
H3641 C3647 0.930 . S
C3642 H3628 0.930 . S
C3642 C3640 1.395 . S
C3642 C3645 1.403 . S
C3643 C3640 1.403 . S
C3643 C3644 1.524 . S
C3643 C3647 1.400 . S
C3644 H3629 0.960 . S
C3644 H3630 0.960 . S
C3644 H3631 0.960 . S
C3644 C3643 1.524 . S
C3645 C3642 1.403 . S
C3645 C3646 1.392 . S
C3645 C3649 1.495 . S
C3646 C3645 1.392 . S
C3646 C3647 1.385 . S
C3646 C3648 1.478 . S
C3647 H3641 0.930 . S
C3647 C3643 1.400 . S
C3647 C3646 1.385 . S
C3648 C3646 1.478 . S
C3648 C3650 1.381 . S
C3648 C3654 1.383 . S
C3649 C3645 1.495 . S
C3649 H3655 0.959 . S
C3649 H3656 0.961 . S
C3649 H3657 0.960 . S
C3650 C3648 1.381 . S
C3650 C3651 1.394 . S
C3650 H3658 0.930 . S
C3651 C3650 1.394 . S
C3651 C3652 1.383 . S
C3651 H3659 0.929 . S
C3652 C3651 1.383 . S
C3652 C3653 1.377 . S
C3653 H3637 0.930 . S
C3653 C3652 1.377 . S
C3653 C3654 1.379 . S
C3654 H3638 0.931 . S
C3654 C3648 1.383 . S
C3654 C3653 1.379 . S
H3655 C3649 0.959 . S
H3656 C3649 0.961 . S
H3657 C3649 0.960 . S
H3658 C3650 0.930 . S
H3659 C3651 0.929 . S
H3660 C3668 0.929 . S
H3661 C3670 0.930 . S
H3662 C3672 0.930 . S
H3663 C3675 0.929 . S
H3664 C3678 0.930 . S
H3665 C3680 0.960 . S
H3666 C3680 0.960 . S
H3667 C3680 0.960 . S
C3668 H3660 0.929 . S
C3668 C3669 1.377 . S
C3668 C3670 1.384 . S
C3669 C3668 1.377 . S
C3669 C3675 1.390 . S
C3670 H3661 0.930 . S
C3670 C3668 1.384 . S
C3670 C3671 1.372 . S
C3671 C3670 1.372 . S
C3671 C3672 1.400 . S
C3671 C3676 1.490 . S
C3672 H3662 0.930 . S
C3672 C3671 1.400 . S
C3672 C3675 1.386 . S
H3673 C3689 0.930 . S
H3674 C3690 0.931 . S
C3675 H3663 0.929 . S
C3675 C3669 1.390 . S
C3675 C3672 1.386 . S
C3676 C3671 1.490 . S
C3676 C3678 1.395 . S
C3676 C3679 1.403 . S
H3677 C3683 0.930 . S
C3678 H3664 0.930 . S
C3678 C3676 1.395 . S
C3678 C3681 1.403 . S
C3679 C3676 1.403 . S
C3679 C3680 1.524 . S
C3679 C3683 1.400 . S
C3680 H3665 0.960 . S
C3680 H3666 0.960 . S
C3680 H3667 0.960 . S
C3680 C3679 1.524 . S
C3681 C3678 1.403 . S
C3681 C3682 1.392 . S
C3681 C3685 1.495 . S
C3682 C3681 1.392 . S
C3682 C3683 1.385 . S
C3682 C3684 1.478 . S
C3683 H3677 0.930 . S
C3683 C3679 1.400 . S
C3683 C3682 1.385 . S
C3684 C3682 1.478 . S
C3684 C3686 1.381 . S
C3684 C3690 1.383 . S
C3685 C3681 1.495 . S
C3685 H3691 0.959 . S
C3685 H3692 0.961 . S
C3685 H3693 0.960 . S
C3686 C3684 1.381 . S
C3686 C3687 1.394 . S
C3686 H3694 0.930 . S
C3687 C3686 1.394 . S
C3687 C3688 1.383 . S
C3687 H3695 0.929 . S
C3688 C3687 1.383 . S
C3688 C3689 1.377 . S
C3689 H3673 0.930 . S
C3689 C3688 1.377 . S
C3689 C3690 1.379 . S
C3690 H3674 0.931 . S
C3690 C3684 1.383 . S
C3690 C3689 1.379 . S
H3691 C3685 0.959 . S
H3692 C3685 0.961 . S
H3693 C3685 0.960 . S
H3694 C3686 0.930 . S
H3695 C3687 0.929 . S
H3696 C3704 0.929 . S
H3697 C3706 0.930 . S
H3698 C3708 0.930 . S
H3699 C3711 0.929 . S
H3700 C3714 0.930 . S
H3701 C3716 0.960 . S
H3702 C3716 0.960 . S
H3703 C3716 0.960 . S
C3704 H3696 0.929 . S
C3704 C3705 1.377 . S
C3704 C3706 1.384 . S
C3705 C3704 1.377 . S
C3705 C3711 1.390 . S
C3706 H3697 0.930 . S
C3706 C3704 1.384 . S
C3706 C3707 1.372 . S
C3707 C3706 1.372 . S
C3707 C3708 1.400 . S
C3707 C3712 1.490 . S
C3708 H3698 0.930 . S
C3708 C3707 1.400 . S
C3708 C3711 1.386 . S
H3709 C3725 0.930 . S
H3710 C3726 0.931 . S
C3711 H3699 0.929 . S
C3711 C3705 1.390 . S
C3711 C3708 1.386 . S
C3712 C3707 1.490 . S
C3712 C3714 1.395 . S
C3712 C3715 1.403 . S
H3713 C3719 0.930 . S
C3714 H3700 0.930 . S
C3714 C3712 1.395 . S
C3714 C3717 1.403 . S
C3715 C3712 1.403 . S
C3715 C3716 1.524 . S
C3715 C3719 1.400 . S
C3716 H3701 0.960 . S
C3716 H3702 0.960 . S
C3716 H3703 0.960 . S
C3716 C3715 1.524 . S
C3717 C3714 1.403 . S
C3717 C3718 1.392 . S
C3717 C3721 1.495 . S
C3718 C3717 1.392 . S
C3718 C3719 1.385 . S
C3718 C3720 1.478 . S
C3719 H3713 0.930 . S
C3719 C3715 1.400 . S
C3719 C3718 1.385 . S
C3720 C3718 1.478 . S
C3720 C3722 1.381 . S
C3720 C3726 1.383 . S
C3721 C3717 1.495 . S
C3721 H3727 0.959 . S
C3721 H3728 0.961 . S
C3721 H3729 0.960 . S
C3722 C3720 1.381 . S
C3722 C3723 1.394 . S
C3722 H3730 0.930 . S
C3723 C3722 1.394 . S
C3723 C3724 1.383 . S
C3723 H3731 0.929 . S
C3724 C3723 1.383 . S
C3724 C3725 1.377 . S
C3725 H3709 0.930 . S
C3725 C3724 1.377 . S
C3725 C3726 1.379 . S
C3726 H3710 0.931 . S
C3726 C3720 1.383 . S
C3726 C3725 1.379 . S
H3727 C3721 0.959 . S
H3728 C3721 0.961 . S
H3729 C3721 0.960 . S
H3730 C3722 0.930 . S
H3731 C3723 0.929 . S
H3732 C3740 0.929 . S
H3733 C3742 0.930 . S
H3734 C3744 0.930 . S
H3735 C3747 0.929 . S
H3736 C3750 0.930 . S
H3737 C3752 0.960 . S
H3738 C3752 0.960 . S
H3739 C3752 0.960 . S
C3740 H3732 0.929 . S
C3740 C3741 1.377 . S
C3740 C3742 1.384 . S
C3741 C3740 1.377 . S
C3741 C3747 1.390 . S
C3742 H3733 0.930 . S
C3742 C3740 1.384 . S
C3742 C3743 1.372 . S
C3743 C3742 1.372 . S
C3743 C3744 1.400 . S
C3743 C3748 1.490 . S
C3744 H3734 0.930 . S
C3744 C3743 1.400 . S
C3744 C3747 1.386 . S
H3745 C3761 0.930 . S
H3746 C3762 0.931 . S
C3747 H3735 0.929 . S
C3747 C3741 1.390 . S
C3747 C3744 1.386 . S
C3748 C3743 1.490 . S
C3748 C3750 1.395 . S
C3748 C3751 1.403 . S
H3749 C3755 0.930 . S
C3750 H3736 0.930 . S
C3750 C3748 1.395 . S
C3750 C3753 1.403 . S
C3751 C3748 1.403 . S
C3751 C3752 1.524 . S
C3751 C3755 1.400 . S
C3752 H3737 0.960 . S
C3752 H3738 0.960 . S
C3752 H3739 0.960 . S
C3752 C3751 1.524 . S
C3753 C3750 1.403 . S
C3753 C3754 1.392 . S
C3753 C3757 1.495 . S
C3754 C3753 1.392 . S
C3754 C3755 1.385 . S
C3754 C3756 1.478 . S
C3755 H3749 0.930 . S
C3755 C3751 1.400 . S
C3755 C3754 1.385 . S
C3756 C3754 1.478 . S
C3756 C3758 1.381 . S
C3756 C3762 1.383 . S
C3757 C3753 1.495 . S
C3757 H3763 0.959 . S
C3757 H3764 0.961 . S
C3757 H3765 0.960 . S
C3758 C3756 1.381 . S
C3758 C3759 1.394 . S
C3758 H3766 0.930 . S
C3759 C3758 1.394 . S
C3759 C3760 1.383 . S
C3759 H3767 0.929 . S
C3760 C3759 1.383 . S
C3760 C3761 1.377 . S
C3761 H3745 0.930 . S
C3761 C3760 1.377 . S
C3761 C3762 1.379 . S
C3762 H3746 0.931 . S
C3762 C3756 1.383 . S
C3762 C3761 1.379 . S
H3763 C3757 0.959 . S
H3764 C3757 0.961 . S
H3765 C3757 0.960 . S
H3766 C3758 0.930 . S
H3767 C3759 0.929 . S
H3768 C3776 0.929 . S
H3769 C3778 0.930 . S
H3770 C3780 0.930 . S
H3771 C3783 0.929 . S
H3772 C3786 0.930 . S
H3773 C3788 0.960 . S
H3774 C3788 0.960 . S
H3775 C3788 0.960 . S
C3776 H3768 0.929 . S
C3776 C3777 1.377 . S
C3776 C3778 1.384 . S
C3777 C3776 1.377 . S
C3777 C3783 1.390 . S
C3778 H3769 0.930 . S
C3778 C3776 1.384 . S
C3778 C3779 1.372 . S
C3779 C3778 1.372 . S
C3779 C3780 1.400 . S
C3779 C3784 1.490 . S
C3780 H3770 0.930 . S
C3780 C3779 1.400 . S
C3780 C3783 1.386 . S
H3781 C3797 0.930 . S
H3782 C3798 0.931 . S
C3783 H3771 0.929 . S
C3783 C3777 1.390 . S
C3783 C3780 1.386 . S
C3784 C3779 1.490 . S
C3784 C3786 1.395 . S
C3784 C3787 1.403 . S
H3785 C3791 0.930 . S
C3786 H3772 0.930 . S
C3786 C3784 1.395 . S
C3786 C3789 1.403 . S
C3787 C3784 1.403 . S
C3787 C3788 1.524 . S
C3787 C3791 1.400 . S
C3788 H3773 0.960 . S
C3788 H3774 0.960 . S
C3788 H3775 0.960 . S
C3788 C3787 1.524 . S
C3789 C3786 1.403 . S
C3789 C3790 1.392 . S
C3789 C3793 1.495 . S
C3790 C3789 1.392 . S
C3790 C3791 1.385 . S
C3790 C3792 1.478 . S
C3791 H3785 0.930 . S
C3791 C3787 1.400 . S
C3791 C3790 1.385 . S
C3792 C3790 1.478 . S
C3792 C3794 1.381 . S
C3792 C3798 1.383 . S
C3793 C3789 1.495 . S
C3793 H3799 0.959 . S
C3793 H3800 0.961 . S
C3793 H3801 0.960 . S
C3794 C3792 1.381 . S
C3794 C3795 1.394 . S
C3794 H3802 0.930 . S
C3795 C3794 1.394 . S
C3795 C3796 1.383 . S
C3795 H3803 0.929 . S
C3796 C3795 1.383 . S
C3796 C3797 1.377 . S
C3797 H3781 0.930 . S
C3797 C3796 1.377 . S
C3797 C3798 1.379 . S
C3798 H3782 0.931 . S
C3798 C3792 1.383 . S
C3798 C3797 1.379 . S
H3799 C3793 0.959 . S
H3800 C3793 0.961 . S
H3801 C3793 0.960 . S
H3802 C3794 0.930 . S
H3803 C3795 0.929 . S
H3804 C3812 0.929 . S
H3805 C3814 0.930 . S
H3806 C3816 0.930 . S
H3807 C3819 0.929 . S
H3808 C3822 0.930 . S
H3809 C3824 0.960 . S
H3810 C3824 0.960 . S
H3811 C3824 0.960 . S
C3812 H3804 0.929 . S
C3812 C3813 1.377 . S
C3812 C3814 1.384 . S
C3813 C3812 1.377 . S
C3813 C3819 1.390 . S
C3814 H3805 0.930 . S
C3814 C3812 1.384 . S
C3814 C3815 1.372 . S
C3815 C3814 1.372 . S
C3815 C3816 1.400 . S
C3815 C3820 1.490 . S
C3816 H3806 0.930 . S
C3816 C3815 1.400 . S
C3816 C3819 1.386 . S
H3817 C3833 0.930 . S
H3818 C3834 0.931 . S
C3819 H3807 0.929 . S
C3819 C3813 1.390 . S
C3819 C3816 1.386 . S
C3820 C3815 1.490 . S
C3820 C3822 1.395 . S
C3820 C3823 1.403 . S
H3821 C3827 0.930 . S
C3822 H3808 0.930 . S
C3822 C3820 1.395 . S
C3822 C3825 1.403 . S
C3823 C3820 1.403 . S
C3823 C3824 1.524 . S
C3823 C3827 1.400 . S
C3824 H3809 0.960 . S
C3824 H3810 0.960 . S
C3824 H3811 0.960 . S
C3824 C3823 1.524 . S
C3825 C3822 1.403 . S
C3825 C3826 1.392 . S
C3825 C3829 1.495 . S
C3826 C3825 1.392 . S
C3826 C3827 1.385 . S
C3826 C3828 1.478 . S
C3827 H3821 0.930 . S
C3827 C3823 1.400 . S
C3827 C3826 1.385 . S
C3828 C3826 1.478 . S
C3828 C3830 1.381 . S
C3828 C3834 1.383 . S
C3829 C3825 1.495 . S
C3829 H3835 0.959 . S
C3829 H3836 0.961 . S
C3829 H3837 0.960 . S
C3830 C3828 1.381 . S
C3830 C3831 1.394 . S
C3830 H3838 0.930 . S
C3831 C3830 1.394 . S
C3831 C3832 1.383 . S
C3831 H3839 0.929 . S
C3832 C3831 1.383 . S
C3832 C3833 1.377 . S
C3833 H3817 0.930 . S
C3833 C3832 1.377 . S
C3833 C3834 1.379 . S
C3834 H3818 0.931 . S
C3834 C3828 1.383 . S
C3834 C3833 1.379 . S
H3835 C3829 0.959 . S
H3836 C3829 0.961 . S
H3837 C3829 0.960 . S
H3838 C3830 0.930 . S
H3839 C3831 0.929 . S
C2121 C1369 1.424 . S
C2140 C29 1.426 . S
C2157 C117 1.429 . S
C2176 C1465 1.425 . S
C2193 C196 1.430 . S
C2212 C1553 1.415 . S
C2229 C284 1.428 . S
C2248 C1105 1.413 . S
C2265 C1193 1.425 . S
C2284 C401 1.435 . S
C2301 C469 1.425 . S
C2320 C1289 1.427 . S
C2337 C1868 1.426 . S
C2356 C585 1.417 . S
C2373 C665 1.426 . S
C2392 C1956 1.435 . S
C2409 C761 1.429 . S
C2428 C2044 1.412 . S
C2445 C1613 1.428 . S
C2464 C841 1.427 . S
C2481 C937 1.427 . S
C2500 C1701 1.417 . S
C2517 C1780 1.429 . S
C2536 C1017 1.414 . S
C2553 C20 0.842 . S
C2572 C2081 0.860 . S
C2589 C1633 0.837 . S
C2608 C108 0.844 . S
C2625 C205 0.835 . S
C2644 C1721 0.847 . S
C2661 C1817 0.842 . S
C2680 C293 0.814 . S
C2697 C409 0.843 . S
C2716 C1905 0.854 . S
C2733 C1993 0.846 . S
C2752 C460 0.832 . S
C2769 C577 0.847 . S
C2788 C1173 0.821 . S
C2805 C1252 0.837 . S
C2824 C673 0.837 . S
C2841 C1349 0.840 . S
C2860 C753 0.822 . S
C2877 C1428 0.845 . S
C2896 C849 0.838 . S
C2913 C929 0.846 . S
C2932 C1516 0.820 . S
C2949 C1025 0.837 . S
C2968 C1085 0.835 . S
C2985 C636 0.742 . S
C3004 C57 0.778 . S
C3021 C733 0.747 . S
C3040 C145 0.767 . S
C3057 C812 0.745 . S
C3076 C225 0.744 . S
C3093 C909 0.751 . S
C3112 C313 0.749 . S
C3129 C372 0.744 . S
C3148 C988 0.775 . S
C3165 C497 0.754 . S
C3184 C557 0.723 . S
C3201 C1076 0.745 . S
C3220 C1729 0.770 . S
C3237 C1164 0.738 . S
C3256 C1809 0.717 . S
C3273 C1897 0.741 . S
C3292 C1261 0.714 . S
C3309 C1985 0.737 . S
C3328 C1340 0.753 . S
C3345 C2073 0.736 . S
C3364 C1437 0.739 . S
C3381 C1641 0.749 . S
C3400 C1525 0.741 . S
C3417 C49 1.471 . S
C3436 C1692 1.458 . S
C3453 C1789 1.468 . S
C3472 C137 1.476 . S
C3489 C233 1.472 . S
C3508 C1877 1.467 . S
C3525 C1965 1.467 . S
C3544 C321 1.474 . S
C3561 C381 1.471 . S
C3580 C2053 1.471 . S
C3597 C1604 1.471 . S
C3616 C489 1.471 . S
C3633 C548 1.469 . S
C3652 C1545 1.457 . S
C3669 C1113 1.467 . S
C3688 C645 1.473 . S
C3705 C724 1.469 . S
C3724 C1201 1.465 . S
C3741 C821 1.470 . S
C3760 C1281 1.460 . S
C3777 C900 1.468 . S
C3796 C1377 1.475 . S
C3813 C997 1.469 . S
C3832 C1457 1.464 . S
