# Generated by pormake.
# Topology une, (4)-cn, num edge types: 1
# Building blocks:
#     Node 0, Type 0, BuildingBlock: KUFVIS_clean_sbu_0, # of connection points: 4
#     Node 1, Type 0, BuildingBlock: KUFVIS_clean_sbu_0, # of connection points: 4
#     Node 2, Type 0, BuildingBlock: KUFVIS_clean_sbu_0, # of connection points: 4
#     Node 3, Type 0, BuildingBlock: KUFVIS_clean_sbu_0, # of connection points: 4
#     Node 4, Type 0, BuildingBlock: KUFVIS_clean_sbu_0, # of connection points: 4
#     Node 5, Type 0, BuildingBlock: KUFVIS_clean_sbu_0, # of connection points: 4
#     Node 6, Type 0, BuildingBlock: KUFVIS_clean_sbu_0, # of connection points: 4
#     Node 7, Type 0, BuildingBlock: KUFVIS_clean_sbu_0, # of connection points: 4
#     Node 8, Type 0, BuildingBlock: KUFVIS_clean_sbu_0, # of connection points: 4
#     Node 9, Type 0, BuildingBlock: KUFVIS_clean_sbu_0, # of connection points: 4
#     Node 10, Type 0, BuildingBlock: KUFVIS_clean_sbu_0, # of connection points: 4
#     Node 11, Type 0, BuildingBlock: KUFVIS_clean_sbu_0, # of connection points: 4
#     Node 12, Type 0, BuildingBlock: KUFVIS_clean_sbu_0, # of connection points: 4
#     Node 13, Type 0, BuildingBlock: KUFVIS_clean_sbu_0, # of connection points: 4
#     Node 14, Type 0, BuildingBlock: KUFVIS_clean_sbu_0, # of connection points: 4
#     Node 15, Type 0, BuildingBlock: KUFVIS_clean_sbu_0, # of connection points: 4
#     Node 16, Type 0, BuildingBlock: KUFVIS_clean_sbu_0, # of connection points: 4
#     Node 17, Type 0, BuildingBlock: KUFVIS_clean_sbu_0, # of connection points: 4
#     Edge 18, Type (0, 0), BuildingBlock: TEMPAE_clean_linker_10, # of connection points: 2
#     Edge 19, Type (0, 0), BuildingBlock: TEMPAE_clean_linker_10, # of connection points: 2
#     Edge 20, Type (0, 0), BuildingBlock: TEMPAE_clean_linker_10, # of connection points: 2
#     Edge 21, Type (0, 0), BuildingBlock: TEMPAE_clean_linker_10, # of connection points: 2
#     Edge 22, Type (0, 0), BuildingBlock: TEMPAE_clean_linker_10, # of connection points: 2
#     Edge 23, Type (0, 0), BuildingBlock: TEMPAE_clean_linker_10, # of connection points: 2
#     Edge 24, Type (0, 0), BuildingBlock: TEMPAE_clean_linker_10, # of connection points: 2
#     Edge 25, Type (0, 0), BuildingBlock: TEMPAE_clean_linker_10, # of connection points: 2
#     Edge 26, Type (0, 0), BuildingBlock: TEMPAE_clean_linker_10, # of connection points: 2
#     Edge 27, Type (0, 0), BuildingBlock: TEMPAE_clean_linker_10, # of connection points: 2
#     Edge 28, Type (0, 0), BuildingBlock: TEMPAE_clean_linker_10, # of connection points: 2
#     Edge 29, Type (0, 0), BuildingBlock: TEMPAE_clean_linker_10, # of connection points: 2
#     Edge 30, Type (0, 0), BuildingBlock: TEMPAE_clean_linker_10, # of connection points: 2
#     Edge 31, Type (0, 0), BuildingBlock: TEMPAE_clean_linker_10, # of connection points: 2
#     Edge 32, Type (0, 0), BuildingBlock: TEMPAE_clean_linker_10, # of connection points: 2
#     Edge 33, Type (0, 0), BuildingBlock: TEMPAE_clean_linker_10, # of connection points: 2
#     Edge 34, Type (0, 0), BuildingBlock: TEMPAE_clean_linker_10, # of connection points: 2
#     Edge 35, Type (0, 0), BuildingBlock: TEMPAE_clean_linker_10, # of connection points: 2
#     Edge 36, Type (0, 0), BuildingBlock: TEMPAE_clean_linker_10, # of connection points: 2
#     Edge 37, Type (0, 0), BuildingBlock: TEMPAE_clean_linker_10, # of connection points: 2
#     Edge 38, Type (0, 0), BuildingBlock: TEMPAE_clean_linker_10, # of connection points: 2
#     Edge 39, Type (0, 0), BuildingBlock: TEMPAE_clean_linker_10, # of connection points: 2
#     Edge 40, Type (0, 0), BuildingBlock: TEMPAE_clean_linker_10, # of connection points: 2
#     Edge 41, Type (0, 0), BuildingBlock: TEMPAE_clean_linker_10, # of connection points: 2
#     Edge 42, Type (0, 0), BuildingBlock: TEMPAE_clean_linker_10, # of connection points: 2
#     Edge 43, Type (0, 0), BuildingBlock: TEMPAE_clean_linker_10, # of connection points: 2
#     Edge 44, Type (0, 0), BuildingBlock: TEMPAE_clean_linker_10, # of connection points: 2
#     Edge 45, Type (0, 0), BuildingBlock: TEMPAE_clean_linker_10, # of connection points: 2
#     Edge 46, Type (0, 0), BuildingBlock: TEMPAE_clean_linker_10, # of connection points: 2
#     Edge 47, Type (0, 0), BuildingBlock: TEMPAE_clean_linker_10, # of connection points: 2
#     Edge 48, Type (0, 0), BuildingBlock: TEMPAE_clean_linker_10, # of connection points: 2
#     Edge 49, Type (0, 0), BuildingBlock: TEMPAE_clean_linker_10, # of connection points: 2
#     Edge 50, Type (0, 0), BuildingBlock: TEMPAE_clean_linker_10, # of connection points: 2
#     Edge 51, Type (0, 0), BuildingBlock: TEMPAE_clean_linker_10, # of connection points: 2
#     Edge 52, Type (0, 0), BuildingBlock: TEMPAE_clean_linker_10, # of connection points: 2
#     Edge 53, Type (0, 0), BuildingBlock: TEMPAE_clean_linker_10, # of connection points: 2
# Relax obj value: 0.248
# Max RMSD: 0.168
# Mean RMSD: 0.159
data_MOF--net-une--node1-KUFVIS_clean_sbu_0--edge1-TEMPAE_clean_linker_10
_symmetry_space_group_name_H-M    P1
_symmetry_Int_Tables_number       1
_symmetry_cell_setting            triclinic
loop_
_symmetry_equiv_pos_as_xyz
'x, y, z'
_cell_length_a     38.653409
_cell_length_b     39.433405
_cell_length_c     52.899856
_cell_angle_alpha  89.421991
_cell_angle_beta   89.397983
_cell_angle_gamma 119.3661
loop_
_atom_site_label
_atom_site_type_symbol
_atom_site_fract_x
_atom_site_fract_y
_atom_site_fract_z
_atom_type_partial_charge
Mn0 Mn 0.41167 0.10667 0.05953 0.0
Mn1 Mn 0.41407 0.11655 0.99586 0.0
C2 C 0.37548 0.13153 0.03949 0.0
C3 C 0.42609 0.13009 0.10082 0.0
C4 C 0.36241 0.04054 0.02332 0.0
O5 O 0.46111 0.10095 0.05015 0.0
O6 O 0.45538 0.10537 1.0081 0.0
C7 C 0.49118 0.1897 0.99286 0.0
N8 N 0.452 0.16916 0.98711 0.0
C9 C 0.45617 0.22293 0.96274 0.0
C10 C 0.49663 0.24463 0.9683 0.0
C11 C 0.51416 0.22799 0.98354 0.0
C12 C 0.43469 0.18515 0.97289 0.0
H13 H 0.50477 0.17694 1.00446 0.0
C14 C 0.47207 0.09989 0.02721 0.0
O15 O 0.40974 0.09315 0.09621 0.0
O16 O 0.44077 0.15341 0.08136 0.0
N17 N 0.37585 0.1273 0.98059 0.0
C18 C 0.33653 0.10237 0.977 0.0
C19 C 0.31494 0.11377 0.96125 0.0
C20 C 0.33411 0.15043 0.94913 0.0
C21 C 0.3744 0.17587 0.95344 0.0
C22 C 0.39454 0.16264 0.96898 0.0
H23 H 0.32191 0.07373 0.98573 0.0
O24 O 0.36529 0.11545 0.06167 0.0
O25 O 0.4071 0.1333 0.02929 0.0
O26 O 0.37585 0.05276 0.04525 0.0
O27 O 0.37378 0.06218 1.00345 0.0
C28 C 0.39554 0.21356 0.94262 0.0
C29 C 0.43631 0.23725 0.94752 0.0
H30 H 0.51451 0.27408 0.961 0.0
H31 H 0.54534 0.24458 0.98797 0.0
H32 H 0.28378 0.0941 0.9581 0.0
H33 H 0.3176 0.15862 0.9364 0.0
H34 H 0.38069 0.22469 0.93065 0.0
H35 H 0.45215 0.26633 0.93933 0.0
Mn36 Mn 0.88987 0.30372 0.08531 0.0
Mn37 Mn 0.86276 0.313 0.0262 0.0
C38 C 0.8502 0.24904 0.06223 0.0
C39 C 0.88177 0.2911 0.12896 0.0
C40 C 0.93918 0.31535 0.0365 0.0
O41 O 0.90654 0.36222 0.08422 0.0
O42 O 0.89469 0.36363 0.04282 0.0
C43 C 0.80747 0.33933 0.04494 0.0
N44 N 0.81431 0.31432 0.03096 0.0
C45 C 0.74638 0.28031 0.01768 0.0
C46 C 0.73863 0.30574 0.0319 0.0
C47 C 0.7693 0.33531 0.04565 0.0
C48 C 0.78486 0.28539 0.01802 0.0
H49 H 0.83093 0.36219 0.05547 0.0
C50 C 0.90937 0.38073 0.06351 0.0
O51 O 0.91651 0.3068 0.11798 0.0
O52 O 0.85303 0.28927 0.11543 0.0
N53 N 0.83217 0.26784 1.00656 0.0
C54 C 0.84569 0.24861 0.99172 0.0
C55 C 0.81953 0.22003 0.97529 0.0
C56 C 0.77984 0.21168 0.97414 0.0
C57 C 0.76687 0.23256 0.98905 0.0
C58 C 0.79455 0.26135 1.00464 0.0
H59 H 0.87639 0.25551 0.99215 0.0
O60 O 0.87055 0.24779 0.08101 0.0
O61 O 0.85139 0.28234 0.05784 0.0
O62 O 0.93523 0.31625 0.06044 0.0
O63 O 0.91226 0.31084 0.02084 0.0
C64 C 0.7279 0.22675 0.98848 0.0
C65 C 0.71756 0.25039 1.00297 0.0
H66 H 0.70931 0.30293 0.03232 0.0
H67 H 0.76357 0.35506 0.05667 0.0
H68 H 0.83017 0.20503 0.9632 0.0
H69 H 0.7598 0.18991 0.96126 0.0
H70 H 0.70576 0.20441 0.97679 0.0
H71 H 0.68755 0.24575 1.00233 0.0
Mn72 Mn 0.67232 0.58682 0.06455 0.0
Mn73 Mn 0.67611 0.57195 1.00194 0.0
C74 C 0.73209 0.61448 0.04213 0.0
C75 C 0.68362 0.58014 0.10741 0.0
C76 C 0.65603 0.63116 0.02253 0.0
O77 O 0.61575 0.53932 0.05938 0.0
O78 O 0.62393 0.53705 0.01733 0.0
C79 C 0.6687 0.49388 1.00813 0.0
N80 N 0.68818 0.53071 0.99822 0.0
C81 C 0.73435 0.51733 0.97563 0.0
C82 C 0.71464 0.47915 0.98543 0.0
C83 C 0.68184 0.46747 1.0019 0.0
C84 C 0.72046 0.54257 0.98299 0.0
H85 H 0.64337 0.48476 0.02068 0.0
C86 C 0.60251 0.52523 0.03744 0.0
O87 O 0.66361 0.59706 0.1004 0.0
O88 O 0.69005 0.56068 0.09011 0.0
N89 N 0.72468 0.60349 0.98373 0.0
C90 C 0.73984 0.64109 0.97556 0.0
C91 C 0.77127 0.6567 0.95781 0.0
C92 C 0.78625 0.63329 0.94829 0.0
C93 C 0.77072 0.59492 0.95729 0.0
C94 C 0.73915 0.58084 0.97479 0.0
H95 H 0.72751 0.65882 0.98216 0.0
O96 O 0.72829 0.62974 0.0627 0.0
O97 O 0.70105 0.58305 0.03494 0.0
O98 O 0.65506 0.62137 0.04569 0.0
O99 O 0.66481 0.61544 1.00439 0.0
C100 C 0.78472 0.56981 0.94916 0.0
C101 C 0.76698 0.53123 0.95865 0.0
H102 H 0.72439 0.45857 0.98042 0.0
H103 H 0.66653 0.4381 1.00961 0.0
H104 H 0.78336 0.68644 0.95108 0.0
H105 H 0.80972 0.6451 0.93404 0.0
H106 H 0.80924 0.57993 0.9357 0.0
H107 H 0.77826 0.51233 0.95247 0.0
Mn108 Mn 0.66172 0.92728 0.94868 0.0
Mn109 Mn 0.61509 0.90553 1.006 0.0
C110 C 0.66237 0.88047 0.97522 0.0
C111 C 0.66935 0.9157 0.90579 0.0
C112 C 0.69293 0.97819 0.99575 0.0
O113 O 0.62502 0.95165 0.94535 0.0
O114 O 0.59791 0.93584 0.98485 0.0
C115 C 0.53419 0.85171 0.98828 0.0
N116 N 0.56531 0.85889 1.00334 0.0
C117 C 0.52897 0.79566 0.02329 0.0
C118 C 0.49645 0.78756 1.00803 0.0
C119 C 0.49915 0.81566 0.99036 0.0
C120 C 0.56321 0.83192 0.02018 0.0
H121 H 0.53609 0.87339 0.97484 0.0
C122 C 0.60276 0.95272 0.96331 0.0
O123 O 0.69148 0.94928 0.91593 0.0
O124 O 0.63926 0.89081 0.91945 0.0
N125 N 0.62899 0.87637 0.02876 0.0
C126 C 0.66363 0.88822 0.04119 0.0
C127 C 0.66619 0.86329 0.0593 0.0
C128 C 0.63291 0.82683 0.06474 0.0
C129 C 0.59754 0.81535 0.05173 0.0
C130 C 0.59683 0.84134 0.03382 0.0
H131 H 0.68902 0.91651 0.03734 0.0
O132 O 0.69025 0.8987 0.95844 0.0
O133 O 0.63497 0.89042 0.97644 0.0
O134 O 0.695 0.97153 0.97242 0.0
O135 O 0.66581 0.95405 1.01086 0.0
C136 C 0.56293 0.77917 0.05581 0.0
C137 C 0.52882 0.76917 0.04142 0.0
H138 H 0.46932 0.75986 1.00967 0.0
H139 H 0.4742 0.80961 0.97849 0.0
H140 H 0.69359 0.8723 0.06923 0.0
H141 H 0.63486 0.80791 0.07895 0.0
H142 H 0.56232 0.75865 0.06981 0.0
H143 H 0.50265 0.741 0.04443 0.0
Mn144 Mn 0.06993 0.7089 0.97537 0.0
Mn145 Mn 0.04669 0.77668 0.95459 0.0
C146 C 0.01568 0.71204 0.99161 0.0
C147 C 0.06007 0.64532 0.98005 0.0
C148 C 0.11264 0.7947 0.99063 0.0
O149 O 0.10187 0.7266 0.94139 0.0
O150 O 0.08608 0.77359 0.93236 0.0
C151 C 0.00656 0.73721 0.9077 0.0
N152 N 0.00611 0.75406 0.92995 0.0
C153 C 0.94263 0.74838 0.92095 0.0
C154 C 0.94237 0.73096 0.89792 0.0
C155 C 0.97438 0.72515 0.89134 0.0
C156 C 0.97523 0.75927 0.93663 0.0
H157 H 0.03134 0.73317 0.90243 0.0
C158 C 0.10515 0.75544 0.92782 0.0
O159 O 0.09236 0.67543 0.98747 0.0
O160 O 0.03682 0.65266 0.96631 0.0
N161 N 0.00868 0.7832 0.97423 0.0
C162 C 0.01282 0.79882 0.99759 0.0
C163 C 0.9832 0.8062 1.00718 0.0
C164 C 0.95007 0.79812 0.99245 0.0
C165 C 0.94636 0.78185 0.96851 0.0
C166 C 0.97677 0.77506 0.96 0.0
H167 H 0.03874 0.80592 1.00869 0.0
O168 O 0.03344 0.69778 1.00503 0.0
O169 O 0.03065 0.72527 0.96924 0.0
O170 O 0.11006 0.76126 0.98985 0.0
O171 O 0.08836 0.80296 0.97971 0.0
C172 C 0.9138 0.77223 0.9527 0.0
C173 C 0.91175 0.75517 0.92905 0.0
H174 H 0.91771 0.72182 0.88519 0.0
H175 H 0.9744 0.71172 0.8736 0.0
H176 H 0.98615 0.81861 0.02571 0.0
H177 H 0.92763 0.80447 0.99976 0.0
H178 H 0.88993 0.77744 0.95865 0.0
H179 H 0.88622 0.74726 0.91728 0.0
Mn180 Mn 0.24746 0.34506 0.94967 0.0
Mn181 Mn 0.26098 0.3752 1.01021 0.0
C182 C 0.19438 0.33411 0.97562 0.0
C183 C 0.23138 0.3476 0.90716 0.0
C184 C 0.2615 0.30279 0.99415 0.0
O185 O 0.30815 0.38377 0.94939 0.0
O186 O 0.3114 0.39677 0.99108 0.0
C187 C 0.28642 0.45758 0.99775 0.0
N188 N 0.26194 0.42407 1.01071 0.0
C189 C 0.23017 0.45479 0.03268 0.0
C190 C 0.25504 0.48969 0.01959 0.0
C191 C 0.28315 0.49103 1.00195 0.0
C192 C 0.23432 0.42227 0.02734 0.0
H193 H 0.30829 0.45877 0.98437 0.0
C194 C 0.32776 0.39932 0.96956 0.0
O195 O 0.24567 0.32542 0.91441 0.0
O196 O 0.23331 0.37281 0.92343 0.0
N197 N 0.21505 0.35656 0.03167 0.0
C198 C 0.19351 0.32063 0.04268 0.0
C199 C 0.16535 0.3147 0.06164 0.0
C200 C 0.16009 0.34589 0.06931 0.0
C201 C 0.18212 0.38244 0.05741 0.0
C202 C 0.21005 0.38669 0.03885 0.0
H203 H 0.19836 0.2969 0.03735 0.0
O204 O 0.1897 0.31203 0.95663 0.0
O205 O 0.23018 0.3622 0.97929 0.0
O206 O 0.25871 0.308 0.97057 0.0
O207 O 0.26002 0.32473 1.01125 0.0
C208 C 0.17794 0.41498 0.0635 0.0
C209 C 0.20157 0.451 0.0509 0.0
H210 H 0.25286 0.51563 0.02296 0.0
H211 H 0.30245 0.51784 0.99177 0.0
H212 H 0.14824 0.28636 0.07064 0.0
H213 H 0.139 0.3414 0.08437 0.0
H214 H 0.15648 0.41258 0.07775 0.0
H215 H 0.19778 0.47569 0.05553 0.0
Mn216 Mn 0.06983 0.43231 0.39109 0.0
Mn217 Mn 0.07183 0.43132 0.32711 0.0
C218 C 0.03593 0.45588 0.36723 0.0
C219 C 0.08774 0.46469 0.4299 0.0
C220 C 0.0179 0.36091 0.35938 0.0
O221 O 0.11732 0.42234 0.38417 0.0
O222 O 0.11235 0.42083 0.34169 0.0
C223 C 0.15011 0.5024 0.32053 0.0
N224 N 0.11075 0.48193 0.3152 0.0
C225 C 0.11593 0.53312 0.28758 0.0
C226 C 0.15663 0.55455 0.29251 0.0
C227 C 0.17374 0.5392 0.30917 0.0
C228 C 0.09385 0.49674 0.2996 0.0
H229 H 0.16331 0.49082 0.33343 0.0
C230 C 0.12822 0.41759 0.36197 0.0
O231 O 0.06931 0.42691 0.42906 0.0
O232 O 0.10172 0.48289 0.40849 0.0
N233 N 0.03424 0.44102 0.30986 0.0
C234 C -0.00556 0.41693 0.3075 0.0
C235 C 0.97279 0.42795 0.29149 0.0
C236 C -0.00762 0.46322 0.27774 0.0
C237 C 0.03338 0.48742 0.28035 0.0
C238 C 0.05343 0.4748 0.29647 0.0
H239 H 0.97936 0.38947 0.31771 0.0
O240 O 0.02542 0.44431 0.39036 0.0
O241 O 0.06635 0.4539 0.35847 0.0
O242 O 0.03129 0.37641 0.38072 0.0
O243 O 0.03048 0.37901 0.33818 0.0
C244 C 0.05519 0.5235 0.26754 0.0
C245 C 0.09636 0.5465 0.27134 0.0
H246 H 0.17497 0.58292 0.28375 0.0
H247 H 0.20507 0.55569 0.31323 0.0
H248 H 0.94115 0.40912 0.28955 0.0
H249 H 0.97567 0.47129 0.2651 0.0
H250 H 0.04056 0.53399 0.25485 0.0
H251 H 0.11269 0.57444 0.26168 0.0
Mn252 Mn 0.55807 0.62909 0.41513 0.0
Mn253 Mn 0.52597 0.64077 0.35802 0.0
C254 C 0.51044 0.57597 0.39418 0.0
C255 C 0.55533 0.61951 0.45908 0.0
C256 C 0.59609 0.62947 0.36333 0.0
O257 O 0.58237 0.68894 0.41309 0.0
O258 O 0.56579 0.69058 0.37267 0.0
C259 C 0.48311 0.67839 0.38073 0.0
N260 N 0.48281 0.64962 0.36652 0.0
C261 C 0.41251 0.62105 0.36002 0.0
C262 C 0.41211 0.65036 0.37459 0.0
C263 C 0.44757 0.67912 0.38502 0.0
C264 C 0.44872 0.62147 0.35675 0.0
H265 H 0.51021 0.70061 0.38878 0.0
C266 C 0.58471 0.7074 0.39247 0.0
O267 O 0.58774 0.6301 0.44602 0.0
O268 O 0.52683 0.62121 0.44732 0.0
N269 N 0.48754 0.59653 0.34033 0.0
C270 C 0.49458 0.57521 0.323 0.0
C271 C 0.46303 0.54739 0.30896 0.0
C272 C 0.4246 0.54198 0.31265 0.0
C273 C 0.41852 0.56588 0.32945 0.0
C274 C 0.45137 0.59378 0.3425 0.0
H275 H 0.52422 0.57979 0.31973 0.0
O276 O 0.53048 0.57211 0.41223 0.0
O277 O 0.51608 0.61108 0.3899 0.0
O278 O 0.59728 0.63319 0.38738 0.0
O279 O 0.5694 0.62998 0.34943 0.0
C280 C 0.38161 0.56443 0.33282 0.0
C281 C 0.37854 0.59182 0.34827 0.0
H282 H 0.38482 0.65124 0.37774 0.0
H283 H 0.44753 0.70188 0.39626 0.0
H284 H 0.46854 0.53081 0.29493 0.0
H285 H 0.40031 0.52046 0.30176 0.0
H286 H 0.35559 0.54289 0.3232 0.0
H287 H 0.35012 0.59072 0.35049 0.0
Mn288 Mn 0.33416 0.91221 0.40362 0.0
Mn289 Mn 0.32821 0.88535 0.34262 0.0
C290 C 0.39046 0.92444 0.38086 0.0
C291 C 0.34373 0.91012 0.44717 0.0
C292 C 0.33387 0.96052 0.35736 0.0
O293 O 0.27342 0.87512 0.40078 0.0
O294 O 0.27608 0.86939 0.35863 0.0
C295 C 0.29144 0.80168 0.35673 0.0
N296 N 0.32073 0.83367 0.34453 0.0
C297 C 0.35158 0.7972 0.32971 0.0
C298 C 0.32176 0.7639 0.3421 0.0
C299 C 0.29162 0.7662 0.35573 0.0
C300 C 0.35028 0.83195 0.3318 0.0
H301 H 0.26811 0.80315 0.36716 0.0
C302 C 0.25667 0.86476 0.3792 0.0
O303 O 0.33083 0.93216 0.43754 0.0
O304 O 0.34327 0.88381 0.43234 0.0
N305 N 0.37529 0.89803 0.32347 0.0
C306 C 0.39828 0.93121 0.30972 0.0
C307 C 0.42763 0.93277 0.29318 0.0
C308 C 0.43272 0.90006 0.29065 0.0
C309 C 0.40799 0.86588 0.30439 0.0
C310 C 0.37865 0.86579 0.32017 0.0
H311 H 0.39375 0.95607 0.31108 0.0
O312 O 0.39234 0.94418 0.40058 0.0
O313 O 0.35547 0.89618 0.37508 0.0
O314 O 0.32847 0.95137 0.38088 0.0
O315 O 0.33719 0.93922 0.34043 0.0
C316 C 0.41012 0.83138 0.30214 0.0
C317 C 0.38219 0.79715 0.31503 0.0
H318 H 0.32156 0.73637 0.34114 0.0
H319 H 0.26846 0.74062 0.36534 0.0
H320 H 0.44563 0.95883 0.28197 0.0
H321 H 0.45477 0.90101 0.27744 0.0
H322 H 0.43278 0.83072 0.29027 0.0
H323 H 0.38396 0.77073 0.31306 0.0
Mn324 Mn 0.32455 0.25002 0.28432 0.0
Mn325 Mn 0.2947 0.23209 0.34552 0.0
C326 C 0.33865 0.21014 0.30961 0.0
C327 C 0.32276 0.23245 0.24175 0.0
C328 C 0.36421 0.30693 0.32772 0.0
O329 O 0.28159 0.26705 0.28507 0.0
O330 O 0.26969 0.25821 0.32727 0.0
C331 C 0.21125 0.17299 0.3362 0.0
N332 N 0.24642 0.18354 0.34761 0.0
C333 C 0.21894 0.12215 0.37001 0.0
C334 C 0.18236 0.1106 0.35853 0.0
C335 C 0.17856 0.13608 0.34147 0.0
C336 C 0.25053 0.15909 0.36381 0.0
H337 H 0.20816 0.19265 0.32325 0.0
C338 C 0.26553 0.2705 0.30567 0.0
O339 O 0.34358 0.26845 0.24857 0.0
O340 O 0.29849 0.20839 0.25873 0.0
N341 N 0.31676 0.20722 0.36572 0.0
C342 C 0.35447 0.2223 0.37432 0.0
C343 C 0.36343 0.20048 0.39151 0.0
C344 C 0.33339 0.16372 0.39995 0.0
C345 C 0.29483 0.14873 0.3907 0.0
C346 C 0.28771 0.17181 0.37361 0.0
H347 H 0.37742 0.25088 0.36822 0.0
O348 O 0.3614 0.22916 0.29057 0.0
O349 O 0.30889 0.21601 0.31408 0.0
O350 O 0.35937 0.29895 0.30427 0.0
O351 O 0.34433 0.2824 0.34532 0.0
C352 C 0.26316 0.11186 0.3978 0.0
C353 C 0.22534 0.09842 0.38727 0.0
H354 H 0.15705 0.08223 0.36264 0.0
H355 H 0.15045 0.12737 0.33252 0.0
H356 H 0.39328 0.21214 0.39849 0.0
H357 H 0.34032 0.14725 0.4135 0.0
H358 H 0.26763 0.09343 0.41116 0.0
H359 H 0.20141 0.06978 0.39257 0.0
Mn360 Mn 0.72933 0.03519 0.30803 0.0
Mn361 Mn 0.70172 0.10025 0.28846 0.0
C362 C 0.67177 0.03288 0.32337 0.0
C363 C 0.72444 0.97343 0.31103 0.0
C364 C 0.76599 0.11943 0.32617 0.0
O365 O 0.76334 0.05716 0.27504 0.0
O366 O 0.74405 0.10178 0.26667 0.0
C367 C 0.66603 0.06257 0.24019 0.0
N368 N 0.66297 0.07723 0.26278 0.0
C369 C 0.59816 0.06744 0.25284 0.0
C370 C 0.60058 0.05224 0.22945 0.0
C371 C 0.63458 0.04958 0.22317 0.0
C372 C 0.63014 0.07929 0.26919 0.0
H373 H 0.69233 0.06097 0.23517 0.0
C374 C 0.76542 0.08601 0.26209 0.0
O375 O 0.75485 0.00426 0.31962 0.0
O376 O 0.70043 0.97953 0.29716 0.0
N377 N 0.66078 0.10239 0.30771 0.0
C378 C 0.66264 0.11644 0.33137 0.0
C379 C 0.63103 0.12104 0.34059 0.0
C380 C 0.59829 0.11188 0.32521 0.0
C381 C 0.59692 0.0972 0.30099 0.0
C382 C 0.6292 0.09309 0.29287 0.0
H383 H 0.68829 0.1245 0.34295 0.0
O384 O 0.69033 0.01942 0.33673 0.0
O385 O 0.68783 0.04849 0.30162 0.0
O386 O 0.76551 0.08701 0.3246 0.0
O387 O 0.7414 0.12681 0.31479 0.0
C388 C 0.56494 0.08668 0.2845 0.0
C389 C 0.56532 0.07134 0.26059 0.0
H390 H 0.57651 0.04248 0.2162 0.0
H391 H 0.63668 0.03788 0.20516 0.0
H392 H 0.63218 0.13222 0.35935 0.0
H393 H 0.5743 0.11613 0.33224 0.0
H394 H 0.53965 0.08982 0.29016 0.0
H395 H 0.54024 0.0627 0.24828 0.0
Mn396 Mn 0.90958 0.67903 0.28346 0.0
Mn397 Mn 0.90603 0.68568 0.34696 0.0
C398 C 0.84966 0.64946 0.30576 0.0
C399 C 0.896 0.69194 0.24238 0.0
C400 C 0.9288 0.63155 0.32112 0.0
O401 O 0.9659 0.7259 0.29022 0.0
O402 O 0.95829 0.72407 0.33276 0.0
C403 C 0.91187 0.76337 0.34857 0.0
N404 N 0.89269 0.72494 0.35526 0.0
C405 C 0.84564 0.73267 0.38122 0.0
C406 C 0.86511 0.77243 0.37481 0.0
C407 C 0.8982 0.78779 0.35827 0.0
C408 C 0.86039 0.70973 0.37077 0.0
H409 H 0.93736 0.77525 0.33591 0.0
C410 C 0.97929 0.73793 0.31254 0.0
O411 O 0.91675 0.67452 0.24602 0.0
O412 O 0.89098 0.7086 0.26198 0.0
N413 N 0.85697 0.65012 0.36338 0.0
C414 C 0.84034 0.61084 0.36646 0.0
C415 C 0.8065 0.59072 0.38209 0.0
C416 C 0.7905 0.61127 0.39463 0.0
C417 C 0.8079 0.65166 0.39095 0.0
C418 C 0.84161 0.67011 0.3752 0.0
H419 H 0.85307 0.59508 0.35724 0.0
O420 O 0.85353 0.6359 0.28446 0.0
O421 O 0.88137 0.67919 0.31412 0.0
O422 O 0.92787 0.64269 0.29855 0.0
O423 O 0.91948 0.64448 0.34053 0.0
C424 C 0.79324 0.67436 0.40234 0.0
C425 C 0.81192 0.71479 0.39733 0.0
H426 H 0.85471 0.79137 0.38231 0.0
H427 H 0.91323 0.81839 0.3531 0.0
H428 H 0.79307 0.55952 0.38473 0.0
H429 H 0.76473 0.59569 0.40695 0.0
H430 H 0.76743 0.66102 0.41482 0.0
H431 H 0.79995 0.73181 0.40584 0.0
Mn432 Mn 0.74191 0.76796 0.72598 0.0
Mn433 Mn 0.73764 0.76395 0.66211 0.0
C434 C 0.70026 0.78391 0.70382 0.0
C435 C 0.76078 0.80346 0.76367 0.0
C436 C 0.69351 0.69322 0.69636 0.0
O437 O 0.79267 0.76432 0.71692 0.0
O438 O 0.78346 0.76054 0.67478 0.0
C439 C 0.80986 0.8399 0.6523 0.0
N440 N 0.77049 0.81534 0.6487 0.0
C441 C 0.76593 0.86172 0.62103 0.0
C442 C 0.80654 0.88734 0.62419 0.0
C443 C 0.82854 0.87645 0.64001 0.0
C444 C 0.74889 0.82582 0.63391 0.0
H445 H 0.82681 0.83171 0.66453 0.0
C446 C 0.8027 0.76047 0.69424 0.0
O447 O 0.74618 0.76589 0.76394 0.0
O448 O 0.77089 0.82035 0.74161 0.0
N449 N 0.69464 0.76686 0.64668 0.0
C450 C 0.65559 0.73913 0.64612 0.0
C451 C 0.62941 0.7455 0.63122 0.0
C452 C 0.64378 0.77993 0.6167 0.0
C453 C 0.68413 0.80793 0.61744 0.0
C454 C 0.70882 0.79989 0.63254 0.0
H455 H 0.64453 0.71232 0.65693 0.0
O456 O 0.69325 0.77329 0.72731 0.0
O457 O 0.73182 0.78562 0.69372 0.0
O458 O 0.70739 0.71035 0.71723 0.0
O459 O 0.70246 0.71066 0.6748 0.0
C460 C 0.70085 0.84344 0.60373 0.0
C461 C 0.74163 0.87048 0.60573 0.0
H462 H 0.82107 0.91553 0.6147 0.0
H463 H 0.85984 0.89616 0.64269 0.0
H464 H 0.59831 0.72377 0.63073 0.0
H465 H 0.62359 0.78446 0.60495 0.0
H466 H 0.68258 0.8504 0.59174 0.0
H467 H 0.754 0.89793 0.59541 0.0
Mn468 Mn 0.21784 0.96285 0.74734 0.0
Mn469 Mn 0.18586 0.97182 0.68976 0.0
C470 C 0.17166 0.90824 0.72664 0.0
C471 C 0.21552 0.95331 0.79121 0.0
C472 C 0.25787 0.96451 0.69627 0.0
O473 O 0.23936 0.02231 0.74522 0.0
O474 O 0.22453 0.02233 0.70428 0.0
C475 C 0.14075 0.00799 0.71121 0.0
N476 N 0.14178 0.97974 0.69714 0.0
C477 C 0.07221 0.95124 0.68818 0.0
C478 C 0.07043 0.98004 0.70256 0.0
C479 C 0.10484 0.00847 0.71418 0.0
C480 C 0.10867 0.95185 0.68627 0.0
H481 H 0.16707 0.03001 0.72011 0.0
C482 C 0.24232 0.04006 0.72418 0.0
O483 O 0.24824 0.96574 0.77818 0.0
O484 O 0.18606 0.95327 0.77951 0.0
N485 N 0.14874 0.92692 0.67203 0.0
C486 C 0.15694 0.90497 0.65592 0.0
C487 C 0.12674 0.87758 0.64084 0.0
C488 C 0.08834 0.8729 0.64249 0.0
C489 C 0.08092 0.89677 0.65851 0.0
C490 C 0.11258 0.92445 0.67249 0.0
H491 H 0.18659 0.90897 0.65417 0.0
O492 O 0.19307 0.90604 0.74442 0.0
O493 O 0.17562 0.94269 0.72202 0.0
O494 O 0.2584 0.96929 0.72014 0.0
O495 O 0.23044 0.9624 0.68193 0.0
C496 C 0.04383 0.89531 0.66032 0.0
C497 C 0.03937 0.92231 0.67536 0.0
H498 H 0.04288 0.98074 0.70468 0.0
H499 H 0.10374 0.03083 0.72529 0.0
H500 H 0.13331 0.86077 0.62757 0.0
H501 H 0.06509 0.85174 0.6308 0.0
H502 H 0.01869 0.8739 0.64995 0.0
H503 H 0.01078 0.92109 0.67648 0.0
Mn504 Mn 0.00179 0.25011 0.73294 0.0
Mn505 Mn 0.00185 0.23331 0.67035 0.0
C506 C 0.06048 0.27581 0.70956 0.0
C507 C 0.01406 0.24285 0.77549 0.0
C508 C 0.98481 0.29444 0.69123 0.0
O509 O 0.94435 0.20411 0.72875 0.0
O510 O 0.94965 0.19964 0.68655 0.0
C511 C -0.00774 0.15441 0.67665 0.0
N512 N 0.0124 0.19108 0.66655 0.0
C513 C 0.05792 0.17626 0.64441 0.0
C514 C 0.03748 0.13822 0.65441 0.0
C515 C 0.00464 0.12733 0.67072 0.0
C516 C 0.04457 0.20211 0.65132 0.0
H517 H 0.96701 0.14594 0.68917 0.0
C518 C 0.92944 0.18952 0.70722 0.0
O519 O -0.00487 0.26111 0.769 0.0
O520 O 0.01898 0.22281 0.75792 0.0
N521 N 0.05008 0.26358 0.65148 0.0
C522 C 0.0662 0.30124 0.64325 0.0
C523 C 0.09808 0.31625 0.62583 0.0
C524 C 0.11263 0.29222 0.61678 0.0
C525 C 0.09605 0.25377 0.62581 0.0
C526 C 0.06395 0.24026 0.64288 0.0
H527 H 0.05449 0.31956 0.64968 0.0
O528 O 0.05818 0.29162 0.73028 0.0
O529 O 0.02848 0.24478 0.70283 0.0
O530 O 0.98525 0.28554 0.71444 0.0
O531 O -0.00796 0.27777 0.67295 0.0
C532 C 0.10963 0.2281 0.61823 0.0
C533 C 0.0909 0.18951 0.62778 0.0
H534 H 0.04677 0.11718 0.64973 0.0
H535 H -0.01118 0.09808 0.6786 0.0
H536 H 0.11096 0.34605 0.61906 0.0
H537 H 0.13644 0.30357 0.60276 0.0
H538 H 0.13456 0.23778 0.60514 0.0
H539 H 0.10184 0.17015 0.622 0.0
Mn540 Mn -0.01237 0.58725 0.61453 0.0
Mn541 Mn 0.93158 0.56182 0.66801 0.0
C542 C 0.98437 0.53842 0.64088 0.0
C543 C -0.00242 0.57814 0.57162 0.0
C544 C 0.00945 0.63759 0.66067 0.0
O545 O 0.9536 0.61462 0.61137 0.0
O546 O 0.90875 0.5826 0.64292 0.0
C547 C 0.85591 0.49668 0.65041 0.0
N548 N 0.8871 0.51058 0.66642 0.0
C549 C 0.85878 0.44954 0.68931 0.0
C550 C 0.82626 0.43457 0.67313 0.0
C551 C 0.82493 0.45819 0.65351 0.0
C552 C 0.88886 0.48802 0.6852 0.0
H553 H 0.85471 0.51488 0.63544 0.0
C554 C 0.92378 0.60894 0.62554 0.0
O555 O 0.02019 0.61061 0.58289 0.0
O556 O 0.96603 0.55326 0.58416 0.0
N557 N 0.95078 0.54086 0.69353 0.0
C558 C 0.98564 0.55874 0.70617 0.0
C559 C -0.00749 0.53852 0.72571 0.0
C560 C 0.96328 0.50037 0.73227 0.0
C561 C 0.92761 0.48263 0.71901 0.0
C562 C 0.92258 0.50409 0.6996 0.0
H563 H 0.00801 0.58819 0.70138 0.0
O564 O 0.01325 0.55588 0.62461 0.0
O565 O 0.95775 0.54937 0.64085 0.0
O566 O 0.02006 0.62882 0.63998 0.0
O567 O 0.97662 0.61529 0.67217 0.0
C568 C 0.89694 0.44442 0.7242 0.0
C569 C 0.86273 0.42773 0.7092 0.0
H570 H 0.80229 0.40491 0.67547 0.0
H571 H 0.79999 0.4468 0.64089 0.0
H572 H 0.02017 0.55237 0.73579 0.0
H573 H 0.96865 0.48491 0.74739 0.0
H574 H 0.89954 0.42747 0.73954 0.0
H575 H 0.83977 0.39801 0.71302 0.0
Mn576 Mn 0.39987 0.37283 0.64364 0.0
Mn577 Mn 0.37869 0.4432 0.62579 0.0
C578 C 0.34461 0.37448 0.65964 0.0
C579 C 0.39007 0.30908 0.64567 0.0
C580 C 0.44182 0.45651 0.66317 0.0
O581 O 0.4337 0.39379 0.61047 0.0
O582 O 0.4194 0.44231 0.60357 0.0
C583 C 0.34159 0.40922 0.577 0.0
N584 N 0.33977 0.4236 0.59998 0.0
C585 C 0.27689 0.41899 0.59052 0.0
C586 C 0.27806 0.40414 0.56674 0.0
C587 C 0.31046 0.39904 0.56002 0.0
C588 C 0.30848 0.42808 0.60677 0.0
H589 H 0.36667 0.40572 0.57165 0.0
C590 C 0.43827 0.42422 0.59823 0.0
O591 O 0.42186 0.3384 0.65432 0.0
O592 O 0.36741 0.31769 0.63224 0.0
N593 N 0.33957 0.4478 0.64551 0.0
C594 C 0.34229 0.46092 0.66953 0.0
C595 C 0.31218 0.46744 0.67927 0.0
C596 C 0.28005 0.46112 0.66406 0.0
C597 C 0.27777 0.44738 0.63945 0.0
C598 C 0.30858 0.4413 0.63081 0.0
H599 H 0.36747 0.46671 0.68103 0.0
O600 O 0.36144 0.35875 0.67257 0.0
O601 O 0.36117 0.39013 0.63799 0.0
O602 O 0.43906 0.42319 0.66072 0.0
O603 O 0.41868 0.46637 0.65231 0.0
C604 C 0.24626 0.43965 0.62309 0.0
C605 C 0.24559 0.42505 0.59876 0.0
H606 H 0.25423 0.39649 0.55353 0.0
H607 H 0.31159 0.38758 0.54171 0.0
H608 H 0.31402 0.47788 0.69832 0.0
H609 H 0.25724 0.46684 0.67152 0.0
H610 H 0.22215 0.44442 0.62913 0.0
H611 H 0.22086 0.41855 0.58654 0.0
Mn612 Mn 0.57143 0.00014 0.62064 0.0
Mn613 Mn 0.56934 0.01029 0.68377 0.0
C614 C 0.51201 0.97802 0.6427 0.0
C615 C 0.56081 0.01338 0.57906 0.0
C616 C 0.58002 0.94734 0.66 0.0
O617 O 0.63035 0.04184 0.62675 0.0
O618 O 0.62348 0.04006 0.66927 0.0
C619 C 0.59084 0.09345 0.68248 0.0
N620 N 0.56584 0.0561 0.6902 0.0
C621 C 0.52572 0.07562 0.71441 0.0
C622 C 0.55105 0.11435 0.70677 0.0
C623 C 0.58364 0.12326 0.69063 0.0
C624 C 0.53408 0.04714 0.70539 0.0
H625 H 0.6161 0.10039 0.67028 0.0
C626 C 0.6449 0.05093 0.64908 0.0
O627 O 0.57737 0.99217 0.58362 0.0
O628 O 0.55893 0.03315 0.59793 0.0
N629 N 0.51903 0.98276 0.70079 0.0
C630 C 0.49719 0.94388 0.70597 0.0
C631 C 0.46423 0.9301 0.72248 0.0
C632 C 0.45439 0.95647 0.73365 0.0
C633 C 0.47684 -0.00372 0.72764 0.0
C634 C 0.50965 0.00833 0.71133 0.0
H635 H 0.50531 0.92364 0.69793 0.0
O636 O 0.5137 0.96236 0.62177 0.0
O637 O 0.54543 0.00585 0.65083 0.0
O638 O 0.58261 0.95957 0.63726 0.0
O639 O 0.57245 0.96256 0.67894 0.0
C640 C 0.46829 0.02453 0.73741 0.0
C641 C 0.49248 0.06413 0.73059 0.0
H642 H 0.54574 0.13745 0.71313 0.0
H643 H 0.6033 0.15306 0.68462 0.0
H644 H 0.44683 0.89931 0.7269 0.0
H645 H 0.42948 0.94577 0.74683 0.0
H646 H 0.44301 0.01608 0.75002 0.0
H647 H 0.48532 0.08552 0.73797 0.0
C648 C 0.52081 0.09929 0.99623 0.0
C649 C 0.50256 0.08834 0.0204 0.0
C650 C 0.53985 0.08056 0.98503 0.0
C651 C 0.54255 0.05089 0.99856 0.0
C652 C 0.52774 0.04223 0.02393 0.0
C653 C 0.5074 0.06064 0.03446 0.0
C654 C 0.55486 0.0909 0.95802 0.0
C655 C 0.53192 0.01232 0.03956 0.0
C656 C 0.5481 0.96899 0.9635 0.0
C657 C 0.58892 0.98167 0.96329 0.0
C658 C 0.53289 0.99196 0.97392 0.0
C659 C 0.55887 0.02775 0.98556 0.0
C660 C 0.6003 0.04132 0.98445 0.0
C661 C 0.61472 0.01836 0.97314 0.0
C662 C 0.48872 0.97701 0.97348 0.0
C663 C 0.62948 0.07846 0.99703 0.0
H664 H 0.51787 0.12104 0.98519 0.0
H665 H 0.49346 0.05173 0.05302 0.0
H666 H 0.58674 0.09932 0.95674 0.0
H667 H 0.53847 0.06509 0.94597 0.0
H668 H 0.5512 0.11518 0.95019 0.0
H669 H 0.52351 0.01229 0.05971 0.0
H670 H 0.51265 0.98292 0.03193 0.0
H671 H 0.56299 0.01792 0.03849 0.0
H672 H 0.52784 0.94004 0.95689 0.0
H673 H 0.64612 0.02752 0.9742 0.0
H674 H 0.48261 -2e-05 0.96611 0.0
H675 H 0.47619 0.96939 0.99298 0.0
H676 H 0.47308 0.95083 0.96161 0.0
H677 H 0.62134 0.10163 0.9948 0.0
H678 H 0.65999 0.08941 0.98928 0.0
H679 H 0.62965 0.0726 0.01758 0.0
C680 C 0.92466 0.45042 0.06071 0.0
C681 C 0.93781 0.42301 0.06033 0.0
C682 C 0.94754 0.48775 0.04934 0.0
C683 C 0.9837 0.49744 0.03632 0.0
C684 C -0.00239 0.4702 0.03672 0.0
C685 C 0.97477 0.43369 0.04886 0.0
C686 C 0.93191 0.51607 0.05012 0.0
C687 C 0.03514 0.47831 0.02263 0.0
C688 C 0.014 0.5726 0.98198 0.0
C689 C 0.04495 0.60619 0.99253 0.0
C690 C -0.0052 0.53692 0.99568 0.0
C691 C 0.00562 0.53481 0.021 0.0
C692 C 0.03724 0.56853 0.03159 0.0
C693 C 0.05681 0.60345 0.01716 0.0
C694 C 0.96228 0.5016 0.98317 0.0
C695 C 0.04923 0.56825 0.05862 0.0
H696 H 0.89553 0.44194 0.06867 0.0
H697 H 0.98437 0.41209 0.04762 0.0
H698 H 0.95579 0.54538 0.05542 0.0
H699 H 0.9217 0.51881 0.03108 0.0
H700 H 0.90664 0.50656 0.06374 0.0
H701 H 0.04341 0.45539 0.02617 0.0
H702 H 0.03091 0.47996 1.00202 0.0
H703 H 0.06023 0.50678 0.0281 0.0
H704 H 0.00426 0.5744 0.96312 0.0
H705 H 0.08002 0.62931 0.0258 0.0
H706 H 0.93345 0.49281 0.99285 0.0
H707 H 0.96807 0.47675 0.98484 0.0
H708 H 0.95954 0.50705 0.96284 0.0
H709 H 0.0238 0.56175 0.07151 0.0
H710 H 0.07489 0.59651 0.06398 0.0
H711 H 0.05707 0.54499 0.06165 0.0
C712 C 0.38034 0.38805 0.98601 0.0
C713 C 0.37067 0.41233 0.97165 0.0
C714 C 0.4164 0.40279 0.99889 0.0
C715 C 0.44505 0.44275 0.99625 0.0
C716 C 0.43682 0.4668 0.97997 0.0
C717 C 0.39928 0.45162 0.96853 0.0
C718 C 0.42253 0.37542 0.0161 0.0
C719 C 0.46721 0.50895 0.97526 0.0
C720 C 0.52828 0.49836 0.04378 0.0
C721 C 0.56011 0.49618 0.0325 0.0
C722 C 0.49004 0.47939 0.03297 0.0
C723 C 0.48391 0.45913 1.00985 0.0
C724 C 0.5154 0.45501 0.9994 0.0
C725 C 0.55241 0.47251 1.01117 0.0
C726 C 0.45648 0.48203 0.04584 0.0
C727 C 0.51088 0.43412 0.97484 0.0
H728 H 0.35787 0.35785 0.98917 0.0
H729 H 0.39162 0.47087 0.95824 0.0
H730 H 0.43663 0.36147 1.00515 0.0
H731 H 0.44179 0.39068 0.03226 0.0
H732 H 0.39374 0.35176 0.02372 0.0
H733 H 0.45826 0.52241 0.95996 0.0
H734 H 0.47129 0.52563 0.99278 0.0
H735 H 0.49637 0.51163 0.97006 0.0
H736 H 0.53368 0.5166 0.0601 0.0
H737 H 0.57658 0.47016 1.00234 0.0
H738 H 0.4296 0.45284 0.04706 0.0
H739 H 0.44885 0.50124 0.03459 0.0
H740 H 0.46432 0.49387 0.06519 0.0
H741 H 0.48889 0.40284 0.97735 0.0
H742 H 0.53929 0.43653 0.96798 0.0
H743 H 0.49965 0.44618 0.96 0.0
C744 C 0.18044 0.41615 0.33485 0.0
C745 C 0.15817 0.40458 0.35764 0.0
C746 C 0.1995 0.39636 0.32526 0.0
C747 C 0.19736 0.36442 0.33897 0.0
C748 C 0.17765 0.3544 0.363 0.0
C749 C 0.15797 0.37436 0.37198 0.0
C750 C 0.2199 0.40827 0.29963 0.0
C751 C 0.17605 0.32158 0.37878 0.0
C752 C 0.20962 0.28597 0.30376 0.0
C753 C 0.24978 0.29795 0.30752 0.0
C754 C 0.19241 0.30784 0.31329 0.0
C755 C 0.21545 0.34151 0.32788 0.0
C756 C 0.25616 0.35382 0.33134 0.0
C757 C 0.27282 0.3324 0.32076 0.0
C758 C 0.1492 0.29419 0.30848 0.0
C759 C 0.28203 0.38879 0.34705 0.0
H760 H 0.18083 0.43941 0.32353 0.0
H761 H 0.14049 0.36473 0.38936 0.0
H762 H 0.25124 0.41506 0.301 0.0
H763 H 0.20509 0.38377 0.28638 0.0
H764 H 0.21938 0.43408 0.29146 0.0
H765 H 0.16294 0.31965 0.39789 0.0
H766 H 0.15795 0.29357 0.36914 0.0
H767 H 0.20634 0.32551 0.38085 0.0
H768 H 0.19133 0.25869 0.29438 0.0
H769 H 0.30363 0.34114 0.3244 0.0
H770 H 0.14576 0.31834 0.30021 0.0
H771 H 0.13216 0.28534 0.32662 0.0
H772 H 0.13604 0.26917 0.29548 0.0
H773 H 0.28919 0.41581 0.33632 0.0
H774 H 0.31033 0.38973 0.35203 0.0
H775 H 0.2664 0.38866 0.3648 0.0
C776 C 0.64749 0.75861 0.37312 0.0
C777 C 0.61417 0.74923 0.38862 0.0
C778 C 0.66931 0.79547 0.36125 0.0
C779 C 0.65776 0.8241 0.36494 0.0
C780 C 0.62552 0.81555 0.38183 0.0
C781 C 0.6038 0.77808 0.39317 0.0
C782 C 0.70287 0.80263 0.34324 0.0
C783 C 0.61244 0.84521 0.38674 0.0
C784 C 0.72866 0.93014 0.34479 0.0
C785 C 0.71181 0.9339 0.32221 0.0
C786 C 0.71176 0.89472 0.35872 0.0
C787 C 0.67744 0.86171 0.34977 0.0
C788 C 0.66151 0.8648 0.32634 0.0
C789 C 0.67856 0.90078 0.31304 0.0
C790 C 0.72963 0.89314 0.38363 0.0
C791 C 0.62559 0.8303 0.31563 0.0
H792 H 0.65479 0.73599 0.36881 0.0
H793 H 0.57728 0.77065 0.40436 0.0
H794 H 0.69416 0.80468 0.3236 0.0
H795 H 0.72973 0.83065 0.34732 0.0
H796 H 0.71063 0.779 0.34425 0.0
H797 H 0.59023 0.83599 0.40247 0.0
H798 H 0.63834 0.87369 0.39136 0.0
H799 H 0.59904 0.8496 0.36944 0.0
H800 H 0.75395 0.95552 0.35236 0.0
H801 H 0.66503 0.90325 0.29577 0.0
H802 H 0.73636 0.86884 0.3839 0.0
H803 H 0.70788 0.88745 0.3992 0.0
H804 H 0.75731 0.92065 0.38749 0.0
H805 H 0.63068 0.805 0.3145 0.0
H806 H 0.61834 0.8366 0.2965 0.0
H807 H 0.59951 0.82173 0.32835 0.0
C808 C 0.05296 0.76288 0.30633 0.0
C809 C 0.02183 0.76644 0.31748 0.0
C810 C 0.09129 0.78102 0.31702 0.0
C811 C 0.09851 0.80266 0.3396 0.0
C812 C 0.0677 0.80799 0.35 0.0
C813 C 0.03023 0.79036 0.33871 0.0
C814 C 0.12357 0.77552 0.30479 0.0
C815 C 0.07348 0.83041 0.37403 0.0
C816 C 0.18417 0.81377 0.3816 0.0
C817 C 0.21392 0.8517 0.37536 0.0
C818 C 0.14615 0.79773 0.37064 0.0
C819 C 0.13804 0.81974 0.3525 0.0
C820 C 0.16772 0.85848 0.3469 0.0
C821 C 0.20489 0.87392 0.35849 0.0
C822 C 0.11513 0.75667 0.37772 0.0
C823 C 0.16107 0.88307 0.32758 0.0
H824 H 0.04679 0.74394 0.29032 0.0
H825 H 0.00642 0.79316 0.34766 0.0
H826 H 0.15098 0.80402 0.3021 0.0
H827 H 0.13094 0.75735 0.31735 0.0
H828 H 0.11461 0.7612 0.28619 0.0
H829 H 0.04699 0.83302 0.37929 0.0
H830 H 0.07975 0.81555 0.38981 0.0
H831 H 0.09941 0.86007 0.37198 0.0
H832 H 0.19126 0.79596 0.39391 0.0
H833 H 0.22814 0.90291 0.35303 0.0
H834 H 0.1086 0.73776 0.36105 0.0
H835 H 0.08705 0.75583 0.38355 0.0
H836 H 0.12483 0.7444 0.39335 0.0
H837 H 0.15591 0.86919 0.30882 0.0
H838 H 0.18673 0.91303 0.32584 0.0
H839 H 0.13421 0.88504 0.33265 0.0
C840 C 0.94024 0.67534 0.63804 0.0
C841 C 0.91239 0.63964 0.62795 0.0
C842 C 0.92831 0.69943 0.65054 0.0
C843 C 0.88753 0.6886 0.65202 0.0
C844 C 0.85956 0.654 0.64003 0.0
C845 C 0.87216 0.62948 0.6288 0.0
C846 C 0.95912 0.73485 0.66385 0.0
C847 C 0.81599 0.64195 0.63999 0.0
C848 C 0.83875 0.72248 0.70194 0.0
C849 C 0.83507 0.75126 0.68838 0.0
C850 C 0.8585 0.70375 0.69108 0.0
C851 C 0.87388 0.71325 0.66587 0.0
C852 C 0.87295 0.74442 0.65305 0.0
C853 C 0.8544 0.76339 0.66462 0.0
C854 C 0.86059 0.67204 0.70599 0.0
C855 C 0.88803 0.75537 0.6261 0.0
H856 H 0.97116 0.68272 0.63827 0.0
H857 H 0.85033 0.60141 0.62174 0.0
H858 H 0.95738 0.76109 0.65817 0.0
H859 H 0.95338 0.73068 0.68455 0.0
H860 H -0.01033 0.74018 0.65984 0.0
H861 H 0.79878 0.61666 0.62765 0.0
H862 H 0.80352 0.63401 0.65949 0.0
H863 H 0.81188 0.66655 0.63342 0.0
H864 H 0.82371 0.71251 0.72013 0.0
H865 H 0.85185 0.78563 0.65392 0.0
H866 H 0.89046 0.67477 0.70391 0.0
H867 H 0.83869 0.64326 0.69863 0.0
H868 H 0.85396 0.67277 0.72641 0.0
H869 H 0.91846 0.7596 0.62402 0.0
H870 H 0.88832 0.78237 0.61954 0.0
H871 H 0.86863 0.73133 0.61348 0.0
C872 C 0.39177 0.26279 0.6782 0.0
C873 C 0.37496 0.26876 0.65629 0.0
C874 C 0.37333 0.22692 0.69164 0.0
C875 C 0.33737 0.19565 0.68289 0.0
C876 C 0.32119 0.20096 0.66018 0.0
C877 C 0.33988 0.23737 0.64735 0.0
C878 C 0.39159 0.22296 0.71579 0.0
C879 C 0.28349 0.16835 0.64969 0.0
C880 C 0.30387 0.09053 0.70317 0.0
C881 C 0.27201 0.08179 0.7199 0.0
C882 C 0.32622 0.12766 0.6918 0.0
C883 C 0.31677 0.15732 0.69724 0.0
C884 C 0.28597 0.14929 0.71526 0.0
C885 C 0.26365 0.11151 0.72614 0.0
C886 C 0.35819 0.13423 0.6726 0.0
C887 C 0.27517 0.18004 0.72201 0.0
H888 H 0.41848 0.28683 0.68561 0.0
H889 H 0.32634 0.24156 0.63063 0.0
H890 H 0.37068 0.21717 0.7319 0.0
H891 H 0.39697 0.19784 0.71475 0.0
H892 H 0.42011 0.24953 0.7198 0.0
H893 H 0.27572 0.17637 0.63126 0.0
H894 H 0.28665 0.14209 0.64714 0.0
H895 H 0.25851 0.1604 0.66327 0.0
H896 H 0.30972 0.06734 0.69771 0.0
H897 H 0.23831 0.10468 0.73838 0.0
H898 H 0.38626 0.161 0.6769 0.0
H899 H 0.349 0.13846 0.65355 0.0
H900 H 0.36409 0.10937 0.67194 0.0
H901 H 0.3022 0.20758 0.72674 0.0
H902 H 0.25387 0.17086 0.73826 0.0
H903 H 0.26154 0.18623 0.70551 0.0
C904 C 0.71692 0.10489 0.64414 0.0
C905 C 0.68825 0.06863 0.65401 0.0
C906 C 0.75608 0.12373 0.65365 0.0
C907 C 0.76653 0.10612 0.67363 0.0
C908 C 0.7378 0.06902 0.68296 0.0
C909 C 0.69952 0.05081 0.67294 0.0
C910 C 0.78605 0.16288 0.64274 0.0
C911 C 0.74707 0.04886 0.70413 0.0
C912 C 0.8751 0.13519 0.68412 0.0
C913 C 0.88619 0.16229 0.70372 0.0
C914 C 0.83665 0.11704 0.67424 0.0
C915 C 0.80769 0.12543 0.68434 0.0
C916 C 0.81784 0.15093 0.70518 0.0
C917 C 0.85702 0.16925 0.71454 0.0
C918 C 0.82756 0.09009 0.65217 0.0
C919 C 0.78767 0.15995 0.717 0.0
H920 H 0.70841 0.11914 0.62984 0.0
H921 H 0.67754 0.02272 0.6807 0.0
H922 H 0.79555 0.18514 0.65765 0.0
H923 H 0.8129 0.162 0.63605 0.0
H924 H 0.774 0.1721 0.62674 0.0
H925 H 0.72132 0.02009 0.70936 0.0
H926 H 0.77233 0.04449 0.69856 0.0
H927 H 0.7561 0.06735 0.72112 0.0
H928 H 0.89742 0.12976 0.67544 0.0
H929 H 0.86534 0.1907 0.72923 0.0
H930 H 0.81893 0.1017 0.63567 0.0
H931 H 0.80209 0.06102 0.65697 0.0
H932 H 0.85329 0.08643 0.64654 0.0
H933 H 0.77858 0.17497 0.70291 0.0
H934 H 0.79939 0.1787 0.73379 0.0
H935 H 0.76063 0.13257 0.72278 0.0
C936 C 0.43944 0.18024 0.13439 0.0
C937 C 0.4146 0.14364 0.1241 0.0
C938 C 0.42565 0.19524 0.15387 0.0
C939 C 0.38537 0.17423 0.16231 0.0
C940 C 0.36022 0.13739 0.15176 0.0
C941 C 0.37531 0.1223 0.13332 0.0
C942 C 0.45415 0.23373 0.1653 0.0
C943 C 0.31678 0.11447 0.1592 0.0
C944 C 0.3506 0.19116 0.22657 0.0
C945 C 0.33683 0.21724 0.22064 0.0
C946 C 0.36758 0.17816 0.20804 0.0
C947 C 0.36949 0.19008 0.18246 0.0
C948 C 0.35487 0.21591 0.17622 0.0
C949 C 0.33969 0.23 0.19549 0.0
C950 C 0.38408 0.15208 0.21599 0.0
C951 C 0.3547 0.2282 0.14915 0.0
H952 H 0.46959 0.19723 0.12712 0.0
H953 H 0.35545 0.09453 0.12497 0.0
H954 H 0.44531 0.25578 0.16038 0.0
H955 H 0.45314 0.23092 0.18623 0.0
H956 H 0.48518 0.24458 0.15855 0.0
H957 H 0.30069 0.08718 0.14841 0.0
H958 H 0.31348 0.10687 0.17965 0.0
H959 H 0.30238 0.13249 0.15592 0.0
H960 H 0.34924 0.1818 0.24608 0.0
H961 H 0.32942 0.25038 0.19083 0.0
H962 H 0.41536 0.16471 0.20928 0.0
H963 H 0.36701 0.12318 0.20721 0.0
H964 H 0.383 0.14778 0.23683 0.0
H965 H 0.38555 0.2448 0.1416 0.0
H966 H 0.34039 0.24657 0.14719 0.0
H967 H 0.3387 0.20212 0.13728 0.0
C968 C 0.83786 0.25263 0.16607 0.0
C969 C 0.87304 0.2654 0.15184 0.0
C970 C 0.8259 0.22268 0.18456 0.0
C971 C 0.84874 0.20378 0.18831 0.0
C972 C 0.88467 0.21713 0.17434 0.0
C973 C 0.89665 0.24805 0.15667 0.0
C974 C 0.7882 0.2106 0.19969 0.0
C975 C 0.90956 0.19749 0.17716 0.0
C976 C 0.82768 0.14431 0.24966 0.0
C977 C 0.7967 0.10779 0.24269 0.0
C978 C 0.84635 0.17532 0.232 0.0
C979 C 0.83443 0.16962 0.20644 0.0
C980 C 0.80611 0.13163 0.19879 0.0
C981 C 0.78709 0.10141 0.21706 0.0
C982 C 0.87563 0.21506 0.24149 0.0
C983 C 0.79356 0.12356 0.17162 0.0
H984 H 0.81922 0.26549 0.16236 0.0
H985 H 0.92348 0.25701 0.14547 0.0
H986 H 0.76561 0.18057 0.19475 0.0
H987 H 0.79395 0.21048 0.22019 0.0
H988 H 0.77567 0.23022 0.19616 0.0
H989 H 0.93722 0.21185 0.16543 0.0
H990 H 0.91766 0.19751 0.19722 0.0
H991 H 0.89205 0.16663 0.17151 0.0
H992 H 0.83423 0.14997 0.26957 0.0
H993 H 0.76233 0.07378 0.2116 0.0
H994 H 0.86006 0.23205 0.24454 0.0
H995 H 0.90016 0.23145 0.22764 0.0
H996 H 0.88854 0.21301 0.25971 0.0
H997 H 0.77453 0.1365 0.16699 0.0
H998 H 0.77654 0.09185 0.16796 0.0
H999 H 0.81986 0.13711 0.15869 0.0
C1000 C 0.87508 0.67468 0.19668 0.0
C1001 C 0.8661 0.67919 0.22176 0.0
C1002 C 0.84499 0.65878 0.17828 0.0
C1003 C 0.80455 0.64494 0.18537 0.0
C1004 C 0.79546 0.64877 0.21085 0.0
C1005 C 0.8262 0.66651 0.22841 0.0
C1006 C 0.85649 0.65683 0.15122 0.0
C1007 C 0.75302 0.63305 0.21985 0.0
C1008 C 0.72665 0.63343 0.13674 0.0
C1009 C 0.70986 0.59415 0.12998 0.0
C1010 C 0.75774 0.65029 0.15421 0.0
C1011 C 0.77173 0.62716 0.16627 0.0
C1012 C 0.75369 0.587 0.16036 0.0
C1013 C 0.72383 0.57129 0.14186 0.0
C1014 C 0.77675 0.6934 0.15897 0.0
C1015 C 0.76616 0.56063 0.17342 0.0
H1016 H 0.90561 0.68381 0.19141 0.0
H1017 H 0.81861 0.66874 0.24789 0.0
H1018 H 0.84399 0.62603 0.14569 0.0
H1019 H 0.84394 0.67036 0.13842 0.0
H1020 H 0.88921 0.67178 0.14826 0.0
H1021 H 0.75067 0.63602 0.24058 0.0
H1022 H 0.73956 0.64865 0.21008 0.0
H1023 H 0.73519 0.60182 0.21511 0.0
H1024 H 0.71706 0.65178 0.12721 0.0
H1025 H 0.71161 0.54114 0.13654 0.0
H1026 H 0.80907 0.70758 0.15462 0.0
H1027 H 0.77336 0.69847 0.1792 0.0
H1028 H 0.76364 0.70775 0.14737 0.0
H1029 H 0.79711 0.56914 0.16781 0.0
H1030 H 0.74673 0.52958 0.16869 0.0
H1031 H 0.76548 0.56366 0.19424 0.0
C1032 C 0.65694 0.87049 0.86914 0.0
C1033 C 0.68315 0.90321 0.8829 0.0
C1034 C 0.67085 0.85553 0.84973 0.0
C1035 C 0.71224 0.87263 0.84444 0.0
C1036 C 0.73876 0.90573 0.85827 0.0
C1037 C 0.72393 0.92089 0.87691 0.0
C1038 C 0.6412 0.82112 0.835 0.0
C1039 C 0.78308 0.92442 0.85398 0.0
C1040 C 0.74751 0.80886 0.81023 0.0
C1041 C 0.75421 0.82398 0.78541 0.0
C1042 C 0.7352 0.82515 0.82977 0.0
C1043 C 0.72775 0.85635 0.82427 0.0
C1044 C 0.73475 0.87179 0.79926 0.0
C1045 C 0.74847 0.856 0.78041 0.0
C1046 C 0.7295 0.80847 0.85624 0.0
C1047 C 0.72606 0.90399 0.79208 0.0
H1048 H 0.62546 0.85633 0.87371 0.0
H1049 H 0.74465 0.94564 0.88771 0.0
H1050 H 0.64589 0.82787 0.81442 0.0
H1051 H 0.64558 0.79574 0.8386 0.0
H1052 H 0.61005 0.81278 0.84013 0.0
H1053 H 0.79988 0.94949 0.86655 0.0
H1054 H 0.79287 0.90262 0.85737 0.0
H1055 H 0.79089 0.93469 0.83406 0.0
H1056 H 0.75136 0.78394 0.81433 0.0
H1057 H 0.75261 0.86755 0.76126 0.0
H1058 H 0.6976 0.79406 0.86175 0.0
H1059 H 0.74581 0.83212 0.86985 0.0
H1060 H 0.73992 0.78684 0.85799 0.0
H1061 H 0.69426 0.89436 0.79592 0.0
H1062 H 0.73276 0.9127 0.7718 0.0
H1063 H 0.74371 0.92995 0.80372 0.0
C1064 C 0.16832 0.81074 0.91356 0.0
C1065 C 0.13563 0.77465 0.90762 0.0
C1066 C 0.18643 0.84105 0.89538 0.0
C1067 C 0.17235 0.83491 0.87029 0.0
C1068 C 0.14242 0.79708 0.86353 0.0
C1069 C 0.12397 0.76766 0.88234 0.0
C1070 C 0.21751 0.88076 0.9039 0.0
C1071 C 0.12748 0.78852 0.83685 0.0
C1072 C 0.17497 0.9177 0.83014 0.0
C1073 C 0.20843 0.92872 0.81447 0.0
C1074 C 0.16399 0.88849 0.84906 0.0
C1075 C 0.18607 0.86861 0.85185 0.0
C1076 C 0.22042 0.88031 0.83649 0.0
C1077 C 0.23149 0.9105 0.81837 0.0
C1078 C 0.12799 0.87809 0.86559 0.0
C1079 C 0.24434 0.85952 0.83824 0.0
H1080 H 0.17656 0.81689 0.93322 0.0
H1081 H 0.09798 0.74041 0.87769 0.0
H1082 H 0.24187 0.89518 0.88967 0.0
H1083 H 0.20363 0.89942 0.90627 0.0
H1084 H 0.2304 0.87915 0.92225 0.0
H1085 H 0.1093 0.75675 0.83368 0.0
H1086 H 0.10888 0.8022 0.83301 0.0
H1087 H 0.15267 0.80099 0.82304 0.0
H1088 H 0.15676 0.93126 0.8272 0.0
H1089 H 0.257 0.9181 0.80612 0.0
H1090 H 0.13547 0.87829 0.88581 0.0
H1091 H 0.10417 0.84824 0.86136 0.0
H1092 H 0.11623 0.89849 0.86273 0.0
H1093 H 0.25352 0.8592 0.85799 0.0
H1094 H 0.2713 0.87318 0.82584 0.0
H1095 H 0.22567 0.82876 0.83266 0.0
C1096 C 0.16185 0.3252 0.89415 0.0
C1097 C 0.20069 0.33441 0.88712 0.0
C1098 C 0.13028 0.30838 0.8771 0.0
C1099 C 0.13765 0.30203 0.85176 0.0
C1100 C 0.17713 0.31219 0.84432 0.0
C1101 C 0.20793 0.32721 0.86226 0.0
C1102 C 0.08877 0.29659 0.88644 0.0
C1103 C 0.18692 0.30753 0.81735 0.0
C1104 C 0.05226 0.23106 0.80991 0.0
C1105 C 0.04105 0.25585 0.79767 0.0
C1106 C 0.08273 0.24534 0.82803 0.0
C1107 C 0.10419 0.28582 0.83309 0.0
C1108 C 0.09303 0.3109 0.82061 0.0
C1109 C 0.06126 0.29556 0.80359 0.0
C1110 C 0.09214 0.2171 0.8416 0.0
C1111 C 0.11574 0.35433 0.82443 0.0
H1112 H 0.15575 0.32977 0.91351 0.0
H1113 H 0.2377 0.33381 0.85677 0.0
H1114 H 0.07733 0.31373 0.87634 0.0
H1115 H 0.06852 0.26545 0.88239 0.0
H1116 H 0.08754 0.30099 0.90708 0.0
H1117 H 0.21929 0.31938 0.8141 0.0
H1118 H 0.17134 0.27631 0.81244 0.0
H1119 H 0.17639 0.32262 0.80428 0.0
H1120 H 0.03737 0.2005 0.80518 0.0
H1121 H 0.05378 0.31526 0.79371 0.0
H1122 H 0.09255 0.22138 0.86233 0.0
H1123 H 0.12208 0.22254 0.83575 0.0
H1124 H 0.0703 0.18634 0.83756 0.0
H1125 H 0.11365 0.36099 0.84452 0.0
H1126 H 0.10459 0.37013 0.8125 0.0
H1127 H 0.14766 0.36565 0.81983 0.0
C1128 C 0.07173 0.46848 0.4761 0.0
C1129 C 0.08181 0.48537 0.45175 0.0
C1130 C 0.0598 0.48519 0.49555 0.0
C1131 C 0.05617 0.51876 0.49037 0.0
C1132 C 0.06667 0.53604 0.46587 0.0
C1133 C 0.07995 0.51965 0.44714 0.0
C1134 C 0.05031 0.46642 0.52154 0.0
C1135 C 0.06212 0.5709 0.459 0.0
C1136 C 0.98549 0.53574 0.53347 0.0
C1137 C 0.01191 0.56622 0.54873 0.0
C1138 C -0.0006 0.5208 0.51406 0.0
C1139 C 0.04083 0.53549 0.51033 0.0
C1140 C 0.06758 0.56638 0.52564 0.0
C1141 C 0.05288 0.58171 0.54426 0.0
C1142 C 0.96965 0.48891 0.49771 0.0
C1143 C 0.11184 0.58233 0.52304 0.0
H1144 H 0.07258 0.44184 0.47986 0.0
H1145 H 0.08672 0.53262 0.42831 0.0
H1146 H 0.06655 0.48856 0.53606 0.0
H1147 H 0.01814 0.45381 0.52579 0.0
H1148 H 0.05818 0.44293 0.52324 0.0
H1149 H 0.07153 0.58101 0.43916 0.0
H1150 H 0.0306 0.56342 0.46153 0.0
H1151 H 0.07989 0.59533 0.47176 0.0
H1152 H 0.95384 0.52329 0.53687 0.0
H1153 H 0.07366 0.60466 0.55623 0.0
H1154 H 0.9711 0.46181 0.50096 0.0
H1155 H 0.97689 0.49714 0.47743 0.0
H1156 H 0.93878 0.48268 0.50165 0.0
H1157 H 0.11897 0.55863 0.52644 0.0
H1158 H 0.12876 0.60607 0.5365 0.0
H1159 H 0.1221 0.59366 0.50354 0.0
C1160 C 0.51316 0.58545 0.49778 0.0
C1161 C 0.54705 0.59543 0.48275 0.0
C1162 C 0.50086 0.55665 0.51709 0.0
C1163 C 0.52217 0.53626 0.5211 0.0
C1164 C 0.55702 0.54698 0.50645 0.0
C1165 C 0.56927 0.57665 0.48779 0.0
C1166 C 0.46426 0.54721 0.53274 0.0
C1167 C 0.58026 0.5257 0.50954 0.0
C1168 C 0.50109 0.4806 0.58406 0.0
C1169 C 0.46893 0.44415 0.57815 0.0
C1170 C 0.52011 0.51025 0.56553 0.0
C1171 C 0.50727 0.5032 0.54017 0.0
C1172 C 0.47748 0.46516 0.53365 0.0
C1173 C 0.45827 0.43632 0.55275 0.0
C1174 C 0.55108 0.55021 0.57373 0.0
C1175 C 0.46361 0.45572 0.5068 0.0
H1176 H 0.49556 0.59943 0.49398 0.0
H1177 H 0.59512 0.58346 0.47608 0.0
H1178 H 0.44044 0.51725 0.52873 0.0
H1179 H 0.47083 0.54818 0.55318 0.0
H1180 H 0.4529 0.56768 0.52879 0.0
H1181 H 0.60785 0.53878 0.49772 0.0
H1182 H 0.58831 0.52565 0.5296 0.0
H1183 H 0.56154 0.49487 0.50413 0.0
H1184 H 0.50854 0.48739 0.60377 0.0
H1185 H 0.43262 0.40881 0.5481 0.0
H1186 H 0.53803 0.56979 0.57372 0.0
H1187 H 0.57684 0.56295 0.5604 0.0
H1188 H 0.56184 0.54963 0.59304 0.0
H1189 H 0.44568 0.46975 0.50189 0.0
H1190 H 0.4451 0.42388 0.50407 0.0
H1191 H 0.48936 0.46731 0.49343 0.0
C1192 C 0.53711 0.99257 0.53425 0.0
C1193 C 0.53078 0.00228 0.55865 0.0
C1194 C 0.50627 0.97772 0.51635 0.0
C1195 C 0.46749 0.9703 0.52339 0.0
C1196 C 0.46096 0.97944 0.54819 0.0
C1197 C 0.49265 -0.004 0.56516 0.0
C1198 C 0.51519 0.96994 0.48988 0.0
C1199 C 0.42011 0.97063 0.55718 0.0
C1200 C 0.39306 0.96398 0.47379 0.0
C1201 C 0.37081 0.92381 0.46934 0.0
C1202 C 0.42478 0.97932 0.49083 0.0
C1203 C 0.43391 0.95397 0.50482 0.0
C1204 C 0.4104 0.91319 0.5013 0.0
C1205 C 0.37989 0.8987 0.48321 0.0
C1206 C 0.44957 0.02294 0.49309 0.0
C1207 C 0.41772 0.88481 0.5165 0.0
H1208 H 0.56617 -0.00332 0.52914 0.0
H1209 H 0.48693 0.00224 0.58419 0.0
H1210 H 0.49819 0.93831 0.4862 0.0
H1211 H 0.5057 0.98477 0.47589 0.0
H1212 H 0.54727 0.98003 0.48675 0.0
H1213 H 0.41936 0.97709 0.57751 0.0
H1214 H 0.41 0.98798 0.546 0.0
H1215 H 0.3985 0.93947 0.55422 0.0
H1216 H 0.38721 0.98391 0.46279 0.0
H1217 H 0.36337 0.86774 0.47973 0.0
H1218 H 0.48115 0.03226 0.48866 0.0
H1219 H 0.44813 0.03167 0.51276 0.0
H1220 H 0.43969 0.03882 0.4802 0.0
H1221 H 0.44711 0.8882 0.51125 0.0
H1222 H 0.39469 0.85413 0.51337 0.0
H1223 H 0.41827 0.89096 0.53696 0.0
C1224 C 0.30934 0.97841 0.04296 0.0
C1225 C 0.32927 0.00024 0.02117 0.0
C1226 C 0.27455 0.94243 0.04116 0.0
C1227 C 0.25956 0.92791 0.01703 0.0
C1228 C 0.28059 0.94877 0.99498 0.0
C1229 C 0.31516 0.98474 0.99731 0.0
C1230 C 0.25284 0.92089 0.06505 0.0
C1231 C 0.2657 0.93386 0.96888 0.0
C1232 C 0.18204 0.82322 1.0061 0.0
C1233 C 0.14815 0.82686 1.00207 0.0
C1234 C 0.2183 0.85561 1.01226 0.0
C1235 C 0.22052 0.8923 0.01461 0.0
C1236 C 0.18585 0.89562 1.01233 0.0
C1237 C 0.15005 0.86283 1.00602 0.0
C1238 C 0.25469 0.85101 0.01458 0.0
C1239 C 0.18703 0.93427 0.01503 0.0
H1240 H 0.31996 0.9901 0.06149 0.0
H1241 H 0.33049 0.0012 0.98037 0.0
H1242 H 0.22433 0.92113 0.06675 0.0
H1243 H 0.24563 0.89001 0.06436 0.0
H1244 H 0.27038 0.93414 0.08224 0.0
H1245 H 0.28685 0.95233 0.9537 0.0
H1246 H 0.26047 0.90371 0.96703 0.0
H1247 H 0.2369 0.93298 0.96591 0.0
H1248 H 0.1809 0.79555 1.00306 0.0
H1249 H 0.12391 0.86579 1.0032 0.0
H1250 H 0.27149 0.8657 0.03169 0.0
H1251 H 0.27468 0.86503 0.99798 0.0
H1252 H 0.24707 0.81995 0.0155 0.0
H1253 H 0.20206 0.94849 0.03272 0.0
H1254 H 0.15687 0.93118 0.01519 0.0
H1255 H 0.20441 0.95392 0.99904 0.0
C1256 C 0.98528 0.31985 1.00114 0.0
C1257 C 0.97698 0.31915 0.02707 0.0
C1258 C 0.02139 0.32312 0.9927 0.0
C1259 C 0.0494 0.32555 1.01067 0.0
C1260 C 0.04095 0.32472 0.03673 0.0
C1261 C 0.00513 0.32182 0.04459 0.0
C1262 C 0.02948 0.32364 0.96468 0.0
C1263 C 0.0699 0.32738 0.05647 0.0
C1264 C 0.12555 0.29614 0.99204 0.0
C1265 C 0.15915 0.33237 0.98742 0.0
C1266 C 0.0895 0.29351 0.99956 0.0
C1267 C 0.08726 0.32802 1.00241 0.0
C1268 C 0.12137 0.36476 0.99812 0.0
C1269 C 0.15687 0.36644 0.99022 0.0
C1270 C 0.05377 0.25385 1.00424 0.0
C1271 C 0.12022 0.40218 1.00145 0.0
H1272 H 0.96365 0.3178 0.98748 0.0
H1273 H -0.00075 0.32143 0.0647 0.0
H1274 H 0.05715 0.35069 0.95929 0.0
H1275 H 0.03411 0.2988 0.95992 0.0
H1276 H 0.0048 0.3219 0.95318 0.0
H1277 H 0.05703 0.32195 0.07594 0.0
H1278 H 0.08028 0.3062 0.05269 0.0
H1279 H 0.0959 0.35703 0.05557 0.0
H1280 H 0.12738 0.26983 0.9893 0.0
H1281 H 0.18254 0.39433 0.98553 0.0
H1282 H 0.02924 0.24999 0.99175 0.0
H1283 H 0.04295 0.25136 0.02405 0.0
H1284 H 0.06045 0.22989 1.00081 0.0
H1285 H 0.09826 0.40301 0.9885 0.0
H1286 H 0.14961 0.4283 0.99768 0.0
H1287 H 0.11054 0.40365 0.02103 0.0
C1288 C 0.64269 0.68421 0.03628 0.0
C1289 C 0.65023 0.66484 0.0167 0.0
C1290 C 0.642 0.71889 0.03159 0.0
C1291 C 0.64869 0.7345 1.00671 0.0
C1292 C 0.65492 0.71443 0.98669 0.0
C1293 C 0.65553 0.67979 0.99191 0.0
C1294 C 0.63505 0.73928 0.05335 0.0
C1295 C 0.66241 0.73029 0.95988 0.0
C1296 C 0.62092 0.81022 0.98608 0.0
C1297 C 0.65766 0.84438 0.98679 0.0
C1298 C 0.61702 0.77442 0.9939 0.0
C1299 C 0.65107 0.7727 1.00164 0.0
C1300 C 0.68819 0.80732 1.00271 0.0
C1301 C 0.69103 0.8428 0.99518 0.0
C1302 C 0.57684 0.73828 0.99291 0.0
C1303 C 0.72525 0.80664 1.01067 0.0
H1304 H 0.63838 0.6729 0.0555 0.0
H1305 H 0.66135 0.6651 0.97661 0.0
H1306 H 0.661 0.76876 0.05532 0.0
H1307 H 0.60894 0.74279 0.04942 0.0
H1308 H 0.6298 0.72311 0.07158 0.0
H1309 H 0.6654 0.71048 0.94635 0.0
H1310 H 0.6378 0.73513 0.95374 0.0
H1311 H 0.69006 0.75888 0.95894 0.0
H1312 H 0.59548 0.81131 0.9786 0.0
H1313 H 0.71956 0.86924 0.99523 0.0
H1314 H 0.56943 0.72253 1.01138 0.0
H1315 H 0.57745 0.71833 0.97849 0.0
H1316 H 0.55292 0.74505 0.98817 0.0
H1317 H 0.72033 0.79171 0.02931 0.0
H1318 H 0.75122 0.83635 1.01193 0.0
H1319 H 0.73246 0.78996 0.99683 0.0
C1320 C 0.72264 0.02688 0.03044 0.0
C1321 C 0.72005 0.01801 1.00468 0.0
C1322 C 0.7444 0.06558 0.03847 0.0
C1323 C 0.76337 0.09616 0.02029 0.0
C1324 C 0.76157 0.08717 0.99436 0.0
C1325 C 0.74011 0.04837 0.98691 0.0
C1326 C 0.74681 0.07381 0.0664 0.0
C1327 C 0.7807 0.11843 0.97418 0.0
C1328 C 0.78796 0.19672 0.04335 0.0
C1329 C 0.82868 0.21339 0.04749 0.0
C1330 C 0.76657 0.15923 0.03325 0.0
C1331 C 0.78607 0.13733 0.02855 0.0
C1332 C 0.82727 0.15425 0.03276 0.0
C1333 C 0.84808 0.19217 0.0419 0.0
C1334 C 0.72323 0.14313 0.02757 0.0
C1335 C 0.84912 0.13177 0.02859 0.0
H1336 H 0.70722 0.00365 0.04432 0.0
H1337 H 0.73787 0.04207 0.96691 0.0
H1338 H 0.7326 0.0917 0.07064 0.0
H1339 H 0.73202 0.04673 0.07815 0.0
H1340 H 0.77835 0.0908 0.07197 0.0
H1341 H 0.78345 0.10656 0.95578 0.0
H1342 H 0.76191 0.13213 0.97145 0.0
H1343 H 0.81061 0.1412 0.97981 0.0
H1344 H 0.77273 0.21258 0.04855 0.0
H1345 H 0.87951 0.20485 0.04565 0.0
H1346 H 0.7051 0.11413 0.03675 0.0
H1347 H 0.7193 0.13936 1.00687 0.0
H1348 H 0.71184 0.1627 0.03383 0.0
H1349 H 0.83577 0.10517 0.0408 0.0
H1350 H 0.88121 0.14919 0.03286 0.0
H1351 H 0.8462 0.12224 1.0087 0.0
C1352 C 0.79638 0.66907 0.02781 0.0
C1353 C 0.77169 0.62901 0.03097 0.0
C1354 C 0.83631 0.68435 0.02079 0.0
C1355 C 0.85192 0.65888 0.01731 0.0
C1356 C 0.82677 0.61815 0.02028 0.0
C1357 C 0.78675 0.60366 0.02708 0.0
C1358 C 0.86149 0.72766 0.01691 0.0
C1359 C 0.8424 0.59002 0.01726 0.0
C1360 C 0.94655 0.68968 0.9795 0.0
C1361 C 0.97491 0.70213 0.99839 0.0
C1362 C 0.90683 0.67731 0.98533 0.0
C1363 C 0.89461 0.67479 1.01086 0.0
C1364 C 0.92306 0.68635 0.03022 0.0
C1365 C 0.96314 0.70025 0.02371 0.0
C1366 C 0.87792 0.66634 0.96415 0.0
C1367 C 0.91102 0.6832 0.05775 0.0
H1368 H 0.78442 0.68847 0.03109 0.0
H1369 H 0.76761 0.57268 0.03033 0.0
H1370 H 0.89021 0.73881 0.02664 0.0
H1371 H 0.86782 0.73382 0.99643 0.0
H1372 H 0.84643 0.74375 0.02374 0.0
H1373 H 0.85567 0.59317 0.99811 0.0
H1374 H 0.86623 0.59672 0.03109 0.0
H1375 H 0.81881 0.55926 0.02015 0.0
H1376 H 0.95532 0.68892 0.96009 0.0
H1377 H 0.98513 0.7089 0.03837 0.0
H1378 H 0.86244 0.68366 0.96534 0.0
H1379 H 0.85556 0.63519 0.96617 0.0
H1380 H 0.8924 0.6712 0.94521 0.0
H1381 H 0.89663 0.70113 0.0613 0.0
H1382 H 0.93672 0.69286 0.07049 0.0
H1383 H 0.88892 0.65259 0.06267 0.0
C1384 C 0.28367 0.27024 0.02595 0.0
C1385 C 0.27039 0.27171 1.0016 0.0
C1386 C 0.29784 0.2445 0.03182 0.0
C1387 C 0.29883 0.2199 0.01284 0.0
C1388 C 0.28326 0.21972 0.98877 0.0
C1389 C 0.26927 0.24558 0.98344 0.0
C1390 C 0.31323 0.24477 0.05798 0.0
C1391 C 0.28391 0.19444 0.96786 0.0
C1392 C 0.37807 0.19059 0.02042 0.0
C1393 C 0.35566 0.15234 0.02956 0.0
C1394 C 0.35968 0.21245 0.01395 0.0
C1395 C 0.31817 0.19604 0.01779 0.0
C1396 C 0.29543 0.15735 0.02704 0.0
C1397 C 0.31452 0.13592 0.0328 0.0
C1398 C 0.38475 0.25332 1.00353 0.0
C1399 C 0.25117 0.139 0.03146 0.0
H1400 H 0.28451 0.29023 0.04016 0.0
H1401 H 0.25878 0.24622 0.9646 0.0
H1402 H 0.29984 0.21468 0.06583 0.0
H1403 H 0.34584 0.25659 0.05695 0.0
H1404 H 0.30679 0.26274 0.07122 0.0
H1405 H 0.26197 0.1901 0.95307 0.0
H1406 H 0.31389 0.20924 0.95888 0.0
H1407 H 0.27776 0.16554 0.97516 0.0
H1408 H 0.41009 0.20374 0.01898 0.0
H1409 H 0.29741 0.10651 0.04039 0.0
H1410 H 0.38364 0.27448 0.01672 0.0
H1411 H 0.37277 0.25653 0.98524 0.0
H1412 H 0.41627 0.26099 1.00053 0.0
H1413 H 0.24482 0.1561 0.04545 0.0
H1414 H 0.23777 0.10844 0.0385 0.0
H1415 H 0.23651 0.13943 0.01363 0.0
C1416 C 0.97095 0.30165 0.33607 0.0
C1417 C 0.98335 0.32113 0.35904 0.0
C1418 C 0.93515 0.26666 0.33455 0.0
C1419 C 0.91107 0.25071 0.35654 0.0
C1420 C 0.92423 0.2691 0.38005 0.0
C1421 C 0.96034 0.30414 0.38104 0.0
C1422 C 0.92226 0.2477 0.30914 0.0
C1423 C 0.89933 0.25282 0.40387 0.0
C1424 C 0.80323 0.18869 0.33987 0.0
C1425 C 0.79968 0.15156 0.3392 0.0
C1426 C 0.83863 0.22105 0.34732 0.0
C1427 C 0.87116 0.21609 0.35426 0.0
C1428 C 0.86669 0.17833 0.35567 0.0
C1429 C 0.83094 0.14646 0.34818 0.0
C1430 C 0.84215 0.2609 0.34589 0.0
C1431 C 0.90065 0.17188 0.36314 0.0
H1432 H -0.01134 0.31435 0.31901 0.0
H1433 H 0.9696 0.31901 0.39888 0.0
H1434 H 0.91473 0.21673 0.31042 0.0
H1435 H 0.89513 0.24837 0.30324 0.0
H1436 H 0.94554 0.2625 0.29421 0.0
H1437 H 0.91578 0.26792 0.42102 0.0
H1438 H 0.87245 0.25603 0.40262 0.0
H1439 H 0.88916 0.22129 0.40605 0.0
H1440 H 0.77913 0.19293 0.33329 0.0
H1441 H 0.82847 0.11787 0.34802 0.0
H1442 H 0.86181 0.27758 0.32966 0.0
H1443 H 0.8558 0.27738 0.36325 0.0
H1444 H 0.81289 0.2593 0.34338 0.0
H1445 H 0.92303 0.182 0.3475 0.0
H1446 H 0.89063 0.14068 0.36716 0.0
H1447 H 0.91561 0.18896 0.38006 0.0
C1448 C 0.7774 0.60298 0.31049 0.0
C1449 C 0.80969 0.64013 0.31428 0.0
C1450 C 0.73846 0.59522 0.31549 0.0
C1451 C 0.73213 0.62516 0.32502 0.0
C1452 C 0.76473 0.66275 0.32872 0.0
C1453 C 0.80299 0.67001 0.32251 0.0
C1454 C 0.70422 0.55512 0.31081 0.0
C1455 C 0.75931 0.69529 0.33937 0.0
C1456 C 0.63803 0.6317 0.32616 0.0
C1457 C 0.62671 0.62255 0.35164 0.0
C1458 C 0.67048 0.62902 0.31631 0.0
C1459 C 0.69188 0.61734 0.33249 0.0
C1460 C 0.67778 0.60424 0.3574 0.0
C1461 C 0.64548 0.60714 0.36666 0.0
C1462 C 0.68318 0.64072 0.28909 0.0
C1463 C 0.6978 0.5897 0.37539 0.0
H1464 H 0.78261 0.58023 0.30323 0.0
H1465 H 0.82766 0.69934 0.32368 0.0
H1466 H 0.68976 0.54094 0.32909 0.0
H1467 H 0.68153 0.5572 0.29922 0.0
H1468 H 0.71387 0.53628 0.30103 0.0
H1469 H 0.78794 0.72266 0.34133 0.0
H1470 H 0.74 0.70139 0.32698 0.0
H1471 H 0.74443 0.68642 0.35824 0.0
H1472 H 0.6228 0.64256 0.31427 0.0
H1473 H 0.63575 0.59835 0.38611 0.0
H1474 H 0.69168 0.62042 0.28019 0.0
H1475 H 0.70959 0.67022 0.28821 0.0
H1476 H 0.65931 0.64129 0.27788 0.0
H1477 H 0.71952 0.58309 0.36607 0.0
H1478 H 0.67519 0.56299 0.38548 0.0
H1479 H 0.71311 0.61202 0.38991 0.0
C1480 C 0.37633 0.17644 0.32147 0.0
C1481 C 0.3399 0.17571 0.31939 0.0
C1482 C 0.37781 0.14235 0.32718 0.0
C1483 C 0.34195 0.1069 0.33104 0.0
C1484 C 0.30511 0.10621 0.32925 0.0
C1485 C 0.30456 0.14048 0.32285 0.0
C1486 C 0.41763 0.14411 0.32876 0.0
C1487 C 0.26625 0.06918 0.3338 0.0
C1488 C 0.33761 0.00895 0.32455 0.0
C1489 C 0.33756 -0.00152 0.34998 0.0
C1490 C 0.34015 0.04476 0.31799 0.0
C1491 C 0.34277 0.07052 0.33732 0.0
C1492 C 0.34421 0.06062 0.36286 0.0
C1493 C 0.34135 0.02477 0.36887 0.0
C1494 C 0.33935 0.05478 0.29046 0.0
C1495 C 0.34701 0.08701 0.38409 0.0
H1496 H 0.40365 0.20358 0.31812 0.0
H1497 H 0.2764 0.13951 0.31988 0.0
H1498 H 0.41929 0.1239 0.31497 0.0
H1499 H 0.44272 0.17386 0.32487 0.0
H1500 H 0.42126 0.13451 0.34785 0.0
H1501 H 0.24022 0.07376 0.33194 0.0
H1502 H 0.26335 0.0468 0.32016 0.0
H1503 H 0.26559 0.05745 0.35306 0.0
H1504 H 0.33508 0.989 0.30982 0.0
H1505 H 0.34188 0.01734 0.38859 0.0
H1506 H 0.36511 0.08373 0.28572 0.0
H1507 H 0.3121 0.05659 0.28677 0.0
H1508 H 0.33997 0.03289 0.27769 0.0
H1509 H 0.3688 0.11778 0.37947 0.0
H1510 H 0.3555 0.07877 0.40218 0.0
H1511 H 0.31757 0.08479 0.38688 0.0
C1512 C 0.51129 0.52585 0.36751 0.0
C1513 C 0.48965 0.5426 0.37763 0.0
C1514 C 0.49211 0.48905 0.35666 0.0
C1515 C 0.45018 0.46847 0.35596 0.0
C1516 C 0.42825 0.48625 0.36489 0.0
C1517 C 0.44828 0.52294 0.37617 0.0
C1518 C 0.51669 0.47115 0.34766 0.0
C1519 C 0.3836 0.4658 0.3636 0.0
C1520 C 0.40143 0.37757 0.31623 0.0
C1521 C 0.39009 0.34801 0.33466 0.0
C1522 C 0.42081 0.41685 0.32283 0.0
C1523 C 0.42945 0.42698 0.34846 0.0
C1524 C 0.41928 0.39735 0.36708 0.0
C1525 C 0.39953 0.3582 0.35998 0.0
C1526 C 0.43096 0.44732 0.3024 0.0
C1527 C 0.42884 0.40698 0.39458 0.0
H1528 H 0.54334 0.54089 0.3692 0.0
H1529 H 0.43164 0.53559 0.38461 0.0
H1530 H 0.51154 0.44666 0.36054 0.0
H1531 H 0.50773 0.45911 0.3285 0.0
H1532 H 0.54898 0.49249 0.34717 0.0
H1533 H 0.37144 0.48526 0.36857 0.0
H1534 H 0.37399 0.45472 0.34428 0.0
H1535 H 0.37067 0.44041 0.37685 0.0
H1536 H 0.39386 0.37006 0.29664 0.0
H1537 H 0.39086 0.33555 0.37435 0.0
H1538 H 0.46287 0.46934 0.30308 0.0
H1539 H 0.41341 0.46226 0.30564 0.0
H1540 H 0.42448 0.43477 0.28319 0.0
H1541 H 0.46118 0.42676 0.39663 0.0
H1542 H 0.41989 0.3806 0.40659 0.0
H1543 H 0.41338 0.42243 0.40178 0.0
C1544 C 0.61705 0.01663 0.35461 0.0
C1545 C 0.62995 0.02008 0.32944 0.0
C1546 C 0.57646 -0.00021 0.36069 0.0
C1547 C 0.54833 0.98622 0.34107 0.0
C1548 C 0.56154 0.99027 0.31562 0.0
C1549 C 0.60211 0.00627 0.31018 0.0
C1550 C 0.56366 -0.00392 0.38811 0.0
C1551 C 0.53298 0.97677 0.2941 0.0
C1552 C 0.4432 0.9128 0.36234 0.0
C1553 C 0.42693 0.93722 0.36594 0.0
C1554 C 0.48217 0.92792 0.35276 0.0
C1555 C 0.50527 0.96841 0.3474 0.0
C1556 C 0.48807 0.9926 0.35028 0.0
C1557 C 0.44918 0.97673 0.35954 0.0
C1558 C 0.49928 0.90105 0.34971 0.0
C1559 C 0.5112 0.03557 0.34454 0.0
H1560 H 0.63871 0.02658 0.36953 0.0
H1561 H 0.61199 0.00708 0.29083 0.0
H1562 H 0.54697 0.01195 0.39123 0.0
H1563 H 0.5434 0.96504 0.39316 0.0
H1564 H 0.58925 0.00775 0.40107 0.0
H1565 H 0.54831 0.9858 0.27536 0.0
H1566 H 0.51555 0.94464 0.29488 0.0
H1567 H 0.5123 0.98854 0.2959 0.0
H1568 H 0.4261 0.88237 0.36796 0.0
H1569 H 0.43644 -0.00447 0.36267 0.0
H1570 H 0.52288 0.90827 0.36379 0.0
H1571 H 0.51315 0.90504 0.33067 0.0
H1572 H 0.47637 0.86998 0.35235 0.0
H1573 H 0.49329 0.05032 0.3474 0.0
H1574 H 0.52167 0.03999 0.32465 0.0
H1575 H 0.53762 0.04943 0.35672 0.0
C1576 C 0.95398 0.5978 0.34936 0.0
C1577 C 0.94237 0.60289 0.32523 0.0
C1578 C 0.96837 0.57189 0.3535 0.0
C1579 C 0.97081 0.55023 0.33307 0.0
C1580 C 0.95842 0.55464 0.30878 0.0
C1581 C 0.94458 0.58115 0.30509 0.0
C1582 C 0.98142 0.56806 0.37972 0.0
C1583 C 0.96005 0.53162 0.2867 0.0
C1584 C 0.04399 0.5147 0.34474 0.0
C1585 C 0.01894 0.47725 0.35442 0.0
C1586 C 0.02839 0.53792 0.33588 0.0
C1587 C 0.98688 0.52346 0.33741 0.0
C1588 C 0.96139 0.48501 0.34634 0.0
C1589 C 0.97786 0.46246 0.35504 0.0
C1590 C 0.0565 0.57868 0.32633 0.0
C1591 C 0.91699 0.46853 0.34816 0.0
H1592 H 0.95254 0.61461 0.36502 0.0
H1593 H 0.9354 0.58476 0.28643 0.0
H1594 H 0.96437 0.5374 0.38653 0.0
H1595 H 0.01326 0.57615 0.37922 0.0
H1596 H 0.97725 0.58679 0.39358 0.0
H1597 H 0.94779 0.53725 0.26926 0.0
H1598 H -0.00873 0.53927 0.28284 0.0
H1599 H 0.94314 0.50006 0.29137 0.0
H1600 H 0.07589 0.52639 0.34504 0.0
H1601 H 0.95871 0.43356 0.36292 0.0
H1602 H 0.05683 0.60003 0.33996 0.0
H1603 H 0.04639 0.58424 0.30799 0.0
H1604 H 0.08731 0.58387 0.32381 0.0
H1605 H 0.9098 0.48305 0.36358 0.0
H1606 H 0.90113 0.43669 0.35216 0.0
H1607 H 0.90562 0.4742 0.33036 0.0
C1608 C 0.50577 0.47885 0.68586 0.0
C1609 C 0.47634 0.4867 0.67677 0.0
C1610 C 0.54228 0.50898 0.694 0.0
C1611 C 0.54945 0.54773 0.69294 0.0
C1612 C 0.51868 0.55539 0.68591 0.0
C1613 C 0.48243 0.52476 0.67797 0.0
C1614 C 0.57417 0.49962 0.70179 0.0
C1615 C 0.52508 0.59638 0.68475 0.0
C1616 C 0.63925 0.63528 0.71926 0.0
C1617 C 0.66161 0.6521 0.69702 0.0
C1618 C 0.60366 0.59967 0.71868 0.0
C1619 C 0.59035 0.58072 0.69534 0.0
C1620 C 0.61446 0.59598 0.6733 0.0
C1621 C 0.64984 0.63141 0.67444 0.0
C1622 C 0.579 0.58394 0.74262 0.0
C1623 C 0.60148 0.57645 0.64805 0.0
H1624 H 0.50125 0.44948 0.68535 0.0
H1625 H 0.45973 0.53111 0.67137 0.0
H1626 H 0.59626 0.50767 0.68612 0.0
H1627 H 0.59013 0.51664 0.71851 0.0
H1628 H 0.56179 0.46815 0.70626 0.0
H1629 H 0.49698 0.59697 0.68169 0.0
H1630 H 0.53849 0.61183 0.70247 0.0
H1631 H 0.54607 0.61277 0.66898 0.0
H1632 H 0.64816 0.65099 0.73682 0.0
H1633 H 0.66724 0.64391 0.65725 0.0
H1634 H 0.56628 0.55193 0.74426 0.0
H1635 H 0.55385 0.58999 0.74215 0.0
H1636 H 0.59661 0.59757 0.75972 0.0
H1637 H 0.59257 0.54516 0.64978 0.0
H1638 H 0.62523 0.59012 0.63328 0.0
H1639 H 0.57521 0.5783 0.6416 0.0
C1640 C 0.46931 0.00383 0.65896 0.0
C1641 C 0.47327 0.97205 0.65137 0.0
C1642 C 0.43193 -0.00055 0.6647 0.0
C1643 C 0.39767 0.96289 0.66127 0.0
C1644 C 0.40141 0.93099 0.65266 0.0
C1645 C 0.43934 0.93589 0.64804 0.0
C1646 C 0.42915 0.03383 0.67462 0.0
C1647 C 0.36543 0.89171 0.64867 0.0
C1648 C 0.31023 0.94678 0.70168 0.0
C1649 C 0.29037 0.95965 0.68557 0.0
C1650 C 0.3439 0.94556 0.69351 0.0
C1651 C 0.35827 0.95757 0.66854 0.0
C1652 C 0.33671 0.9678 0.65148 0.0
C1653 C 0.30277 0.96881 0.66025 0.0
C1654 C 0.36546 0.93457 0.71263 0.0
C1655 C 0.35039 0.97912 0.62435 0.0
H1656 H 0.49539 0.03231 0.65996 0.0
H1657 H 0.44249 0.9116 0.64139 0.0
H1658 H 0.4104 0.04059 0.66211 0.0
H1659 H 0.41476 0.02658 0.69366 0.0
H1660 H 0.45872 0.06029 0.67601 0.0
H1661 H 0.37328 0.8709 0.63981 0.0
H1662 H 0.35033 0.87923 0.66711 0.0
H1663 H 0.34388 0.8948 0.63651 0.0
H1664 H 0.30014 0.9386 0.72113 0.0
H1665 H 0.287 0.97814 0.64766 0.0
H1666 H 0.38591 0.96124 0.72284 0.0
H1667 H 0.38284 0.92216 0.70386 0.0
H1668 H 0.34449 0.91323 0.72682 0.0
H1669 H 0.37803 0.0077 0.62366 0.0
H1670 H 0.32773 0.98133 0.61278 0.0
H1671 H 0.35734 0.95757 0.61573 0.0
C1672 C -0.0127 0.34506 0.66123 0.0
C1673 C 0.97824 0.32761 0.68539 0.0
C1674 C 0.98509 0.37888 0.65617 0.0
C1675 C 0.97303 0.39542 0.67565 0.0
C1676 C 0.96259 0.37724 0.69983 0.0
C1677 C 0.96522 0.34351 0.70439 0.0
C1678 C -0.00307 0.39765 0.63016 0.0
C1679 C 0.94826 0.39291 0.72092 0.0
C1680 C 0.01097 0.5032 0.66588 0.0
C1681 C 0.97886 0.50305 0.65388 0.0
C1682 C 0.00856 0.46839 0.67453 0.0
C1683 C 0.97335 0.43271 0.67071 0.0
C1684 C 0.94018 0.43271 0.65967 0.0
C1685 C 0.94361 0.46793 0.65092 0.0
C1686 C 0.04432 0.46957 0.68663 0.0
C1687 C 0.90177 0.39538 0.65606 0.0
H1688 H -0.0027 0.33299 0.64638 0.0
H1689 H 0.9575 0.32989 0.72303 0.0
H1690 H 0.00491 0.3807 0.61699 0.0
H1691 H 0.97226 0.40064 0.62193 0.0
H1692 H 0.02279 0.42735 0.63158 0.0
H1693 H 0.96443 0.42517 0.72089 0.0
H1694 H 0.9163 0.38286 0.71819 0.0
H1695 H 0.95148 0.38213 0.73975 0.0
H1696 H 0.03837 0.53048 0.6678 0.0
H1697 H 0.91927 0.46783 0.64088 0.0
H1698 H 0.06846 0.49981 0.68966 0.0
H1699 H 0.05601 0.45463 0.67441 0.0
H1700 H 0.03572 0.45382 0.70512 0.0
H1701 H 0.87794 0.40068 0.6488 0.0
H1702 H 0.89156 0.379 0.67428 0.0
H1703 H 0.90654 0.37669 0.64253 0.0
C1704 C 0.16442 0.84969 0.70575 0.0
C1705 C 0.14733 0.87261 0.71241 0.0
C1706 C 0.14125 0.81179 0.69702 0.0
C1707 C 0.09993 0.79663 0.69415 0.0
C1708 C 0.08265 0.8202 0.70009 0.0
C1709 C 0.10648 0.85763 0.7098 0.0
C1710 C 0.16086 0.78747 0.69184 0.0
C1711 C 0.03922 0.80614 0.6961 0.0
C1712 C 0.05296 0.70819 0.65212 0.0
C1713 C 0.03374 0.67767 0.6698 0.0
C1714 C 0.07311 0.74699 0.65969 0.0
C1715 C 0.0752 0.75572 0.6857 0.0
C1716 C 0.0563 0.72489 0.70375 0.0
C1717 C 0.03506 0.68622 0.69553 0.0
C1718 C 0.09106 0.77855 0.63965 0.0
C1719 C 0.05919 0.73269 0.73173 0.0
H1720 H 0.19599 0.86103 0.70835 0.0
H1721 H 0.0931 0.87484 0.71585 0.0
H1722 H 0.14632 0.76031 0.7035 0.0
H1723 H 0.15732 0.7789 0.67173 0.0
H1724 H 0.19307 0.80315 0.69602 0.0
H1725 H 0.0295 0.8259 0.70446 0.0
H1726 H 0.03382 0.80468 0.6755 0.0
H1727 H 0.02071 0.77652 0.7043 0.0
H1728 H 0.05098 0.70179 0.63213 0.0
H1729 H 0.01995 0.66264 0.70922 0.0
H1730 H 0.09063 0.7669 0.62055 0.0
H1731 H 0.12217 0.79983 0.64415 0.0
H1732 H 0.07369 0.79403 0.63911 0.0
H1733 H 0.09085 0.74842 0.7372 0.0
H1734 H 0.04351 0.70549 0.74331 0.0
H1735 H 0.04634 0.75164 0.73634 0.0
C1736 C 0.11422 0.26443 0.69297 0.0
C1737 C 0.09949 0.28991 0.69748 0.0
C1738 C 0.154 0.27878 0.68549 0.0
C1739 C 0.17942 0.31952 0.68288 0.0
C1740 C 0.16411 0.3451 0.68699 0.0
C1741 C 0.12436 0.32997 0.69437 0.0
C1742 C 0.16919 0.25048 0.68155 0.0
C1743 C 0.18971 0.38847 0.68382 0.0
C1744 C 0.29027 0.35993 0.69094 0.0
C1745 C 0.3034 0.36407 0.66577 0.0
C1746 C 0.2499 0.34554 0.69682 0.0
C1747 C 0.22236 0.33551 0.67698 0.0
C1748 C 0.23587 0.34022 0.65158 0.0
C1749 C 0.276 0.35339 0.64633 0.0
C1750 C 0.23659 0.34035 0.7242 0.0
C1751 C 0.20791 0.33061 0.62991 0.0
H1752 H 0.09506 0.23347 0.69624 0.0
H1753 H 0.11276 0.34952 0.69821 0.0
H1754 H 0.18379 0.25535 0.66269 0.0
H1755 H 0.19186 0.25535 0.69589 0.0
H1756 H 0.14508 0.21971 0.68305 0.0
H1757 H 0.17404 0.40453 0.68948 0.0
H1758 H 0.21701 0.39904 0.69509 0.0
H1759 H 0.19872 0.39522 0.66369 0.0
H1760 H 0.31149 0.3673 0.706 0.0
H1761 H 0.28584 0.35452 0.62694 0.0
H1762 H 0.21437 0.30943 0.72815 0.0
H1763 H 0.22195 0.35794 0.72818 0.0
H1764 H 0.26168 0.3491 0.73735 0.0
H1765 H 0.18639 0.29905 0.63048 0.0
H1766 H 0.2235 0.33802 0.61124 0.0
H1767 H 0.19118 0.34667 0.63178 0.0
C1768 C 0.63691 0.78241 0.69449 0.0
C1769 C 0.67828 0.80102 0.69196 0.0
C1770 C 0.61591 0.80112 0.68669 0.0
C1771 C 0.63713 0.83953 0.67672 0.0
C1772 C 0.67885 0.85777 0.67325 0.0
C1773 C 0.69902 0.83841 0.68129 0.0
C1774 C 0.57144 0.78072 0.69056 0.0
C1775 C 0.70248 0.89861 0.66247 0.0
C1776 C 0.58893 0.89212 0.64532 0.0
C1777 C 0.58927 0.91585 0.66496 0.0
C1778 C 0.60223 0.86526 0.64922 0.0
C1779 C 0.61687 0.86274 0.67314 0.0
C1780 C 0.61542 0.88524 0.69337 0.0
C1781 C 0.60137 0.91137 0.68907 0.0
C1782 C 0.60238 0.84104 0.62744 0.0
C1783 C 0.63071 0.88331 0.71923 0.0
H1784 H 0.62116 0.7536 0.70316 0.0
H1785 H 0.73118 0.8531 0.68015 0.0
H1786 H 0.56398 0.79372 0.70678 0.0
H1787 H 0.55683 0.78453 0.67368 0.0
H1788 H 0.55893 0.74909 0.69454 0.0
H1789 H 0.73411 0.90709 0.6589 0.0
H1790 H 0.6895 0.90126 0.64446 0.0
H1791 H 0.70127 0.91951 0.67586 0.0
H1792 H 0.5791 0.89513 0.62673 0.0
H1793 H 0.6017 0.92962 0.70436 0.0
H1794 H 0.59053 0.8103 0.6336 0.0
H1795 H 0.63334 0.85222 0.62066 0.0
H1796 H 0.58458 0.84202 0.61137 0.0
H1797 H 0.61683 0.85271 0.72616 0.0
H1798 H 0.62476 0.90057 0.73334 0.0
H1799 H 0.66325 0.89464 0.71801 0.0
loop_
_geom_bond_atom_site_label_1
_geom_bond_atom_site_label_2
_geom_bond_distance
_geom_bond_site_symmetry_2
_ccdc_geom_bond_type
Mn0 O5 2.095 . S
Mn0 O15 2.162 . S
Mn0 O16 2.297 . S
Mn0 O24 2.385 . S
Mn0 O25 2.209 . S
Mn0 O26 2.094 1_545 S
Mn1 O6 2.118 1_556 S
Mn1 N8 2.261 . S
Mn1 N17 2.285 . S
Mn1 O25 2.211 1_556 S
Mn1 O27 2.115 1_546 S
C2 O24 1.234 . S
C2 O25 1.283 . S
C3 O15 1.281 . S
C3 O16 1.236 . S
C4 O26 1.240 . S
C4 O27 1.264 . S
O5 Mn0 2.095 . S
O5 C14 1.250 . S
O6 Mn1 2.118 1_554 S
O6 C14 1.258 . S
C7 N8 1.326 . S
C7 C11 1.460 . S
C7 H13 0.929 . S
N8 Mn1 2.261 . S
N8 C7 1.326 . S
N8 C12 1.362 . S
C9 C10 1.258 . S
C9 C12 1.431 . S
C9 C29 1.449 . S
C10 C9 1.258 . S
C10 C11 1.477 . S
C10 H30 0.931 . S
C11 C7 1.460 . S
C11 C10 1.477 . S
C11 H31 0.930 . S
C12 N8 1.362 . S
C12 C9 1.431 . S
C12 C22 1.476 . S
H13 C7 0.929 . S
C14 O5 1.250 . S
C14 O6 1.258 . S
O15 Mn0 2.162 . S
O15 C3 1.281 . S
O16 Mn0 2.297 . S
O16 C3 1.236 . S
N17 Mn1 2.285 . S
N17 C18 1.328 . S
N17 C22 1.318 . S
C18 N17 1.328 . S
C18 C19 1.457 . S
C18 H23 0.929 . S
C19 C18 1.457 . S
C19 C20 1.291 . S
C19 H32 0.931 . S
C20 C19 1.291 . S
C20 C21 1.373 . S
C20 H33 0.929 . S
C21 C20 1.373 . S
C21 C22 1.396 . S
C21 C28 1.403 . S
C22 C12 1.476 . S
C22 N17 1.318 . S
C22 C21 1.396 . S
H23 C18 0.929 . S
O24 Mn0 2.385 . S
O24 C2 1.234 . S
O25 Mn0 2.209 . S
O25 Mn1 2.211 1_554 S
O25 C2 1.283 . S
O26 Mn0 2.094 1_565 S
O26 C4 1.240 . S
O27 Mn1 2.115 1_564 S
O27 C4 1.264 . S
C28 C21 1.403 . S
C28 C29 1.399 . S
C28 H34 0.929 . S
C29 C9 1.449 . S
C29 C28 1.399 . S
C29 H35 0.930 . S
H30 C10 0.931 . S
H31 C11 0.930 . S
H32 C19 0.931 . S
H33 C20 0.929 . S
H34 C28 0.929 . S
H35 C29 0.930 . S
Mn36 O41 2.095 . S
Mn36 O51 2.162 . S
Mn36 O52 2.297 . S
Mn36 O60 2.385 . S
Mn36 O61 2.209 . S
Mn36 O62 2.094 1_655 S
Mn37 O42 2.115 1_556 S
Mn37 N44 2.265 . S
Mn37 N53 2.290 . S
Mn37 O61 2.205 1_556 S
Mn37 O63 2.112 1_656 S
C38 O60 1.234 . S
C38 O61 1.283 . S
C39 O51 1.281 . S
C39 O52 1.236 . S
C40 O62 1.240 . S
C40 O63 1.264 . S
O41 Mn36 2.095 . S
O41 C50 1.250 . S
O42 Mn37 2.115 1_554 S
O42 C50 1.258 . S
C43 N44 1.326 . S
C43 C47 1.460 . S
C43 H49 0.929 . S
N44 Mn37 2.265 . S
N44 C43 1.326 . S
N44 C48 1.362 . S
C45 C46 1.258 . S
C45 C48 1.431 . S
C45 C65 1.449 . S
C46 C45 1.258 . S
C46 C47 1.477 . S
C46 H66 0.931 . S
C47 C43 1.460 . S
C47 C46 1.477 . S
C47 H67 0.930 . S
C48 N44 1.362 . S
C48 C45 1.431 . S
C48 C58 1.476 . S
H49 C43 0.929 . S
C50 O41 1.250 . S
C50 O42 1.258 . S
O51 Mn36 2.162 . S
O51 C39 1.281 . S
O52 Mn36 2.297 . S
O52 C39 1.236 . S
N53 Mn37 2.290 . S
N53 C54 1.328 . S
N53 C58 1.318 . S
C54 N53 1.328 . S
C54 C55 1.457 . S
C54 H59 0.929 . S
C55 C54 1.457 . S
C55 C56 1.291 . S
C55 H68 0.931 . S
C56 C55 1.291 . S
C56 C57 1.373 . S
C56 H69 0.929 . S
C57 C56 1.373 . S
C57 C58 1.396 . S
C57 C64 1.403 . S
C58 C48 1.476 . S
C58 N53 1.318 . S
C58 C57 1.396 . S
H59 C54 0.929 . S
O60 Mn36 2.385 . S
O60 C38 1.234 . S
O61 Mn36 2.209 . S
O61 Mn37 2.205 1_554 S
O61 C38 1.283 . S
O62 Mn36 2.094 1_455 S
O62 C40 1.240 . S
O63 Mn37 2.112 1_454 S
O63 C40 1.264 . S
C64 C57 1.403 . S
C64 C65 1.399 . S
C64 H70 0.929 . S
C65 C45 1.449 . S
C65 C64 1.399 . S
C65 H71 0.930 . S
H66 C46 0.931 . S
H67 C47 0.930 . S
H68 C55 0.931 . S
H69 C56 0.929 . S
H70 C64 0.929 . S
H71 C65 0.930 . S
Mn72 O77 2.095 . S
Mn72 O87 2.162 . S
Mn72 O88 2.297 . S
Mn72 O96 2.385 . S
Mn72 O97 2.209 . S
Mn72 O98 2.094 . S
Mn73 O78 2.121 1_556 S
Mn73 N80 2.257 . S
Mn73 N89 2.282 . S
Mn73 O97 2.215 1_556 S
Mn73 O99 2.117 1_556 S
C74 O96 1.234 . S
C74 O97 1.283 . S
C75 O87 1.281 . S
C75 O88 1.236 . S
C76 O98 1.240 . S
C76 O99 1.264 . S
O77 Mn72 2.095 . S
O77 C86 1.250 . S
O78 Mn73 2.121 1_554 S
O78 C86 1.258 . S
C79 N80 1.326 . S
C79 C83 1.460 . S
C79 H85 0.929 . S
N80 Mn73 2.257 . S
N80 C79 1.326 . S
N80 C84 1.362 . S
C81 C82 1.258 . S
C81 C84 1.431 . S
C81 C101 1.449 . S
C82 C81 1.258 . S
C82 C83 1.477 . S
C82 H102 0.931 . S
C83 C79 1.460 . S
C83 C82 1.477 . S
C83 H103 0.930 . S
C84 N80 1.362 . S
C84 C81 1.431 . S
C84 C94 1.476 . S
H85 C79 0.929 . S
C86 O77 1.250 . S
C86 O78 1.258 . S
O87 Mn72 2.162 . S
O87 C75 1.281 . S
O88 Mn72 2.297 . S
O88 C75 1.236 . S
N89 Mn73 2.282 . S
N89 C90 1.328 . S
N89 C94 1.318 . S
C90 N89 1.328 . S
C90 C91 1.457 . S
C90 H95 0.929 . S
C91 C90 1.457 . S
C91 C92 1.291 . S
C91 H104 0.931 . S
C92 C91 1.291 . S
C92 C93 1.373 . S
C92 H105 0.929 . S
C93 C92 1.373 . S
C93 C94 1.396 . S
C93 C100 1.403 . S
C94 C84 1.476 . S
C94 N89 1.318 . S
C94 C93 1.396 . S
H95 C90 0.929 . S
O96 Mn72 2.385 . S
O96 C74 1.234 . S
O97 Mn72 2.209 . S
O97 Mn73 2.215 1_554 S
O97 C74 1.283 . S
O98 Mn72 2.094 . S
O98 C76 1.240 . S
O99 Mn73 2.117 1_554 S
O99 C76 1.264 . S
C100 C93 1.403 . S
C100 C101 1.399 . S
C100 H106 0.929 . S
C101 C81 1.449 . S
C101 C100 1.399 . S
C101 H107 0.930 . S
H102 C82 0.931 . S
H103 C83 0.930 . S
H104 C91 0.931 . S
H105 C92 0.929 . S
H106 C100 0.929 . S
H107 C101 0.930 . S
Mn108 O113 2.095 . S
Mn108 O123 2.162 . S
Mn108 O124 2.297 . S
Mn108 O132 2.385 . S
Mn108 O133 2.209 . S
Mn108 O134 2.094 1_565 S
Mn109 O114 2.121 1_554 S
Mn109 N116 2.257 . S
Mn109 N125 2.282 . S
Mn109 O133 2.215 1_554 S
Mn109 O135 2.117 1_564 S
C110 O132 1.234 . S
C110 O133 1.283 . S
C111 O123 1.281 . S
C111 O124 1.236 . S
C112 O134 1.240 . S
C112 O135 1.264 . S
O113 Mn108 2.095 . S
O113 C122 1.250 . S
O114 Mn109 2.121 1_556 S
O114 C122 1.258 . S
C115 N116 1.326 . S
C115 C119 1.460 . S
C115 H121 0.929 . S
N116 Mn109 2.257 . S
N116 C115 1.326 . S
N116 C120 1.362 . S
C117 C118 1.258 . S
C117 C120 1.431 . S
C117 C137 1.449 . S
C118 C117 1.258 . S
C118 C119 1.477 . S
C118 H138 0.931 . S
C119 C115 1.460 . S
C119 C118 1.477 . S
C119 H139 0.930 . S
C120 N116 1.362 . S
C120 C117 1.431 . S
C120 C130 1.476 . S
H121 C115 0.929 . S
C122 O113 1.250 . S
C122 O114 1.258 . S
O123 Mn108 2.162 . S
O123 C111 1.281 . S
O124 Mn108 2.297 . S
O124 C111 1.236 . S
N125 Mn109 2.282 . S
N125 C126 1.328 . S
N125 C130 1.318 . S
C126 N125 1.328 . S
C126 C127 1.457 . S
C126 H131 0.929 . S
C127 C126 1.457 . S
C127 C128 1.291 . S
C127 H140 0.931 . S
C128 C127 1.291 . S
C128 C129 1.373 . S
C128 H141 0.929 . S
C129 C128 1.373 . S
C129 C130 1.396 . S
C129 C136 1.403 . S
C130 C120 1.476 . S
C130 N125 1.318 . S
C130 C129 1.396 . S
H131 C126 0.929 . S
O132 Mn108 2.385 . S
O132 C110 1.234 . S
O133 Mn108 2.209 . S
O133 Mn109 2.215 1_556 S
O133 C110 1.283 . S
O134 Mn108 2.094 1_545 S
O134 C112 1.240 . S
O135 Mn109 2.117 1_546 S
O135 C112 1.264 . S
C136 C129 1.403 . S
C136 C137 1.399 . S
C136 H142 0.929 . S
C137 C117 1.449 . S
C137 C136 1.399 . S
C137 H143 0.930 . S
H138 C118 0.931 . S
H139 C119 0.930 . S
H140 C127 0.931 . S
H141 C128 0.929 . S
H142 C136 0.929 . S
H143 C137 0.930 . S
Mn144 O149 2.095 . S
Mn144 O159 2.162 . S
Mn144 O160 2.297 1_455 S
Mn144 O168 2.385 1_455 S
Mn144 O169 2.209 1_455 S
Mn144 O170 2.094 . S
Mn145 O150 2.121 . S
Mn145 N152 2.257 1_455 S
Mn145 N161 2.282 1_455 S
Mn145 O169 2.215 1_455 S
Mn145 O171 2.117 . S
C146 O168 1.234 . S
C146 O169 1.283 . S
C147 O159 1.281 . S
C147 O160 1.236 1_455 S
C148 O170 1.240 . S
C148 O171 1.264 . S
O149 Mn144 2.095 . S
O149 C158 1.250 . S
O150 Mn145 2.121 . S
O150 C158 1.258 . S
C151 N152 1.326 . S
C151 C155 1.460 . S
C151 H157 0.929 . S
N152 Mn145 2.257 1_655 S
N152 C151 1.326 . S
N152 C156 1.362 . S
C153 C154 1.258 . S
C153 C156 1.431 . S
C153 C173 1.449 . S
C154 C153 1.258 . S
C154 C155 1.477 . S
C154 H174 0.931 . S
C155 C151 1.460 . S
C155 C154 1.477 . S
C155 H175 0.930 . S
C156 N152 1.362 . S
C156 C153 1.431 . S
C156 C166 1.476 . S
H157 C151 0.929 . S
C158 O149 1.250 . S
C158 O150 1.258 . S
O159 Mn144 2.162 . S
O159 C147 1.281 . S
O160 Mn144 2.297 1_655 S
O160 C147 1.236 1_655 S
N161 Mn145 2.282 1_655 S
N161 C162 1.328 . S
N161 C166 1.318 . S
C162 N161 1.328 . S
C162 C163 1.450 1_556 S
C162 H167 0.929 1_655 S
C163 C162 1.450 1_554 S
C163 C164 1.286 1_554 S
C163 H176 0.942 . S
C164 C163 1.286 1_556 S
C164 C165 1.373 . S
C164 H177 0.929 1_556 S
C165 C164 1.373 . S
C165 C166 1.396 . S
C165 C172 1.403 . S
C166 C156 1.476 . S
C166 N161 1.318 . S
C166 C165 1.396 . S
H167 C162 0.929 1_455 S
O168 Mn144 2.385 1_655 S
O168 C146 1.234 . S
O169 Mn144 2.209 1_655 S
O169 Mn145 2.215 1_655 S
O169 C146 1.283 . S
O170 Mn144 2.094 . S
O170 C148 1.240 . S
O171 Mn145 2.117 . S
O171 C148 1.264 . S
C172 C165 1.403 . S
C172 C173 1.399 . S
C172 H178 0.929 . S
C173 C153 1.449 . S
C173 C172 1.399 . S
C173 H179 0.930 . S
H174 C154 0.931 . S
H175 C155 0.930 . S
H176 C163 0.942 . S
H177 C164 0.929 1_554 S
H178 C172 0.929 . S
H179 C173 0.930 . S
Mn180 O185 2.095 . S
Mn180 O195 2.162 . S
Mn180 O196 2.297 . S
Mn180 O204 2.385 . S
Mn180 O205 2.209 . S
Mn180 O206 2.094 . S
Mn181 O186 2.121 . S
Mn181 N188 2.257 1_556 S
Mn181 N197 2.282 1_556 S
Mn181 O205 2.215 . S
Mn181 O207 2.117 . S
C182 O204 1.234 . S
C182 O205 1.283 . S
C183 O195 1.281 . S
C183 O196 1.236 . S
C184 O206 1.240 . S
C184 O207 1.264 . S
O185 Mn180 2.095 . S
O185 C194 1.250 . S
O186 Mn181 2.121 . S
O186 C194 1.258 . S
C187 N188 1.326 . S
C187 C191 1.460 . S
C187 H193 0.929 . S
N188 Mn181 2.257 1_554 S
N188 C187 1.326 . S
N188 C192 1.362 . S
C189 C190 1.258 . S
C189 C192 1.431 . S
C189 C209 1.449 . S
C190 C189 1.258 . S
C190 C191 1.477 . S
C190 H210 0.931 . S
C191 C187 1.460 . S
C191 C190 1.477 . S
C191 H211 0.930 . S
C192 N188 1.362 . S
C192 C189 1.431 . S
C192 C202 1.476 . S
H193 C187 0.929 . S
C194 O185 1.250 . S
C194 O186 1.258 . S
O195 Mn180 2.162 . S
O195 C183 1.281 . S
O196 Mn180 2.297 . S
O196 C183 1.236 . S
N197 Mn181 2.282 1_554 S
N197 C198 1.328 . S
N197 C202 1.318 . S
C198 N197 1.328 . S
C198 C199 1.457 . S
C198 H203 0.929 . S
C199 C198 1.457 . S
C199 C200 1.291 . S
C199 H212 0.931 . S
C200 C199 1.291 . S
C200 C201 1.373 . S
C200 H213 0.929 . S
C201 C200 1.373 . S
C201 C202 1.396 . S
C201 C208 1.403 . S
C202 C192 1.476 . S
C202 N197 1.318 . S
C202 C201 1.396 . S
H203 C198 0.929 . S
O204 Mn180 2.385 . S
O204 C182 1.234 . S
O205 Mn180 2.209 . S
O205 Mn181 2.215 . S
O205 C182 1.283 . S
O206 Mn180 2.094 . S
O206 C184 1.240 . S
O207 Mn181 2.117 . S
O207 C184 1.264 . S
C208 C201 1.403 . S
C208 C209 1.399 . S
C208 H214 0.929 . S
C209 C189 1.449 . S
C209 C208 1.399 . S
C209 H215 0.930 . S
H210 C190 0.931 . S
H211 C191 0.930 . S
H212 C199 0.931 . S
H213 C200 0.929 . S
H214 C208 0.929 . S
H215 C209 0.930 . S
Mn216 O221 2.095 1_655 S
Mn216 O231 2.162 . S
Mn216 O232 2.297 1_655 S
Mn216 O240 2.385 . S
Mn216 O241 2.209 1_655 S
Mn216 O242 2.094 . S
Mn217 O222 2.121 . S
Mn217 N224 2.257 . S
Mn217 N233 2.282 1_455 S
Mn217 O241 2.215 . S
Mn217 O243 2.117 1_455 S
C218 O240 1.234 . S
C218 O241 1.283 1_655 S
C219 O231 1.281 1_455 S
C219 O232 1.236 . S
C220 O242 1.240 . S
C220 O243 1.264 . S
O221 Mn216 2.095 1_455 S
O221 C230 1.250 . S
O222 Mn217 2.121 . S
O222 C230 1.258 . S
C223 N224 1.326 . S
C223 C227 1.460 . S
C223 H229 0.929 . S
N224 Mn217 2.257 . S
N224 C223 1.326 . S
N224 C228 1.362 . S
C225 C226 1.258 . S
C225 C228 1.431 . S
C225 C245 1.449 . S
C226 C225 1.258 . S
C226 C227 1.477 . S
C226 H246 0.931 . S
C227 C223 1.460 . S
C227 C226 1.477 . S
C227 H247 0.930 . S
C228 N224 1.362 . S
C228 C225 1.431 . S
C228 C238 1.476 1_455 S
H229 C223 0.929 . S
C230 O221 1.250 . S
C230 O222 1.258 . S
O231 Mn216 2.162 . S
O231 C219 1.281 1_655 S
O232 Mn216 2.297 1_455 S
O232 C219 1.236 . S
N233 Mn217 2.282 1_655 S
N233 C234 1.328 . S
N233 C238 1.318 . S
C234 N233 1.328 . S
C234 C235 1.457 . S
C234 H239 0.929 . S
C235 C234 1.457 . S
C235 C236 1.291 . S
C235 H248 0.931 . S
C236 C235 1.291 . S
C236 C237 1.373 . S
C236 H249 0.929 . S
C237 C236 1.373 . S
C237 C238 1.396 . S
C237 C244 1.403 . S
C238 C228 1.476 1_655 S
C238 N233 1.318 . S
C238 C237 1.396 . S
H239 C234 0.929 . S
O240 Mn216 2.385 . S
O240 C218 1.234 . S
O241 Mn216 2.209 1_455 S
O241 Mn217 2.215 . S
O241 C218 1.283 1_455 S
O242 Mn216 2.094 . S
O242 C220 1.240 . S
O243 Mn217 2.117 1_655 S
O243 C220 1.264 . S
C244 C237 1.403 . S
C244 C245 1.399 1_655 S
C244 H250 0.929 . S
C245 C225 1.449 . S
C245 C244 1.399 1_455 S
C245 H251 0.930 . S
H246 C226 0.931 . S
H247 C227 0.930 . S
H248 C235 0.931 . S
H249 C236 0.929 . S
H250 C244 0.929 . S
H251 C245 0.930 . S
Mn252 O257 2.095 . S
Mn252 O267 2.162 . S
Mn252 O268 2.297 . S
Mn252 O276 2.385 . S
Mn252 O277 2.209 . S
Mn252 O278 2.094 . S
Mn253 O258 2.121 . S
Mn253 N260 2.257 . S
Mn253 N269 2.282 . S
Mn253 O277 2.215 . S
Mn253 O279 2.117 . S
C254 O276 1.234 . S
C254 O277 1.283 . S
C255 O267 1.281 . S
C255 O268 1.236 . S
C256 O278 1.240 . S
C256 O279 1.264 . S
O257 Mn252 2.095 . S
O257 C266 1.250 . S
O258 Mn253 2.121 . S
O258 C266 1.258 . S
C259 N260 1.326 . S
C259 C263 1.460 . S
C259 H265 0.929 . S
N260 Mn253 2.257 . S
N260 C259 1.326 . S
N260 C264 1.362 . S
C261 C262 1.258 . S
C261 C264 1.431 . S
C261 C281 1.449 . S
C262 C261 1.258 . S
C262 C263 1.477 . S
C262 H282 0.931 . S
C263 C259 1.460 . S
C263 C262 1.477 . S
C263 H283 0.930 . S
C264 N260 1.362 . S
C264 C261 1.431 . S
C264 C274 1.476 . S
H265 C259 0.929 . S
C266 O257 1.250 . S
C266 O258 1.258 . S
O267 Mn252 2.162 . S
O267 C255 1.281 . S
O268 Mn252 2.297 . S
O268 C255 1.236 . S
N269 Mn253 2.282 . S
N269 C270 1.328 . S
N269 C274 1.318 . S
C270 N269 1.328 . S
C270 C271 1.457 . S
C270 H275 0.929 . S
C271 C270 1.457 . S
C271 C272 1.291 . S
C271 H284 0.931 . S
C272 C271 1.291 . S
C272 C273 1.373 . S
C272 H285 0.929 . S
C273 C272 1.373 . S
C273 C274 1.396 . S
C273 C280 1.403 . S
C274 C264 1.476 . S
C274 N269 1.318 . S
C274 C273 1.396 . S
H275 C270 0.929 . S
O276 Mn252 2.385 . S
O276 C254 1.234 . S
O277 Mn252 2.209 . S
O277 Mn253 2.215 . S
O277 C254 1.283 . S
O278 Mn252 2.094 . S
O278 C256 1.240 . S
O279 Mn253 2.117 . S
O279 C256 1.264 . S
C280 C273 1.403 . S
C280 C281 1.399 . S
C280 H286 0.929 . S
C281 C261 1.449 . S
C281 C280 1.399 . S
C281 H287 0.930 . S
H282 C262 0.931 . S
H283 C263 0.930 . S
H284 C271 0.931 . S
H285 C272 0.929 . S
H286 C280 0.929 . S
H287 C281 0.930 . S
Mn288 O293 2.095 1_545 S
Mn288 O303 2.162 . S
Mn288 O304 2.297 1_545 S
Mn288 O312 2.385 . S
Mn288 O313 2.209 1_545 S
Mn288 O314 2.094 . S
Mn289 O294 2.121 . S
Mn289 N296 2.257 . S
Mn289 N305 2.282 1_565 S
Mn289 O313 2.215 . S
Mn289 O315 2.117 1_565 S
C290 O312 1.234 . S
C290 O313 1.283 1_545 S
C291 O303 1.281 1_565 S
C291 O304 1.236 . S
C292 O314 1.240 . S
C292 O315 1.264 . S
O293 Mn288 2.095 1_565 S
O293 C302 1.250 . S
O294 Mn289 2.121 . S
O294 C302 1.258 . S
C295 N296 1.326 . S
C295 C299 1.460 . S
C295 H301 0.929 . S
N296 Mn289 2.257 . S
N296 C295 1.326 . S
N296 C300 1.362 . S
C297 C298 1.258 . S
C297 C300 1.431 . S
C297 C317 1.449 . S
C298 C297 1.258 . S
C298 C299 1.477 . S
C298 H318 0.931 . S
C299 C295 1.460 . S
C299 C298 1.477 . S
C299 H319 0.930 . S
C300 N296 1.362 . S
C300 C297 1.431 . S
C300 C310 1.476 1_565 S
H301 C295 0.929 . S
C302 O293 1.250 . S
C302 O294 1.258 . S
O303 Mn288 2.162 . S
O303 C291 1.281 1_545 S
O304 Mn288 2.297 1_565 S
O304 C291 1.236 . S
N305 Mn289 2.282 1_545 S
N305 C306 1.328 . S
N305 C310 1.318 . S
C306 N305 1.328 . S
C306 C307 1.457 . S
C306 H311 0.929 . S
C307 C306 1.457 . S
C307 C308 1.291 . S
C307 H320 0.931 . S
C308 C307 1.291 . S
C308 C309 1.373 . S
C308 H321 0.929 . S
C309 C308 1.373 . S
C309 C310 1.396 . S
C309 C316 1.403 . S
C310 C300 1.476 1_545 S
C310 N305 1.318 . S
C310 C309 1.396 . S
H311 C306 0.929 . S
O312 Mn288 2.385 . S
O312 C290 1.234 . S
O313 Mn288 2.209 1_565 S
O313 Mn289 2.215 . S
O313 C290 1.283 1_565 S
O314 Mn288 2.094 . S
O314 C292 1.240 . S
O315 Mn289 2.117 1_545 S
O315 C292 1.264 . S
C316 C309 1.403 . S
C316 C317 1.399 1_545 S
C316 H322 0.929 . S
C317 C297 1.449 . S
C317 C316 1.399 1_565 S
C317 H323 0.930 . S
H318 C298 0.931 . S
H319 C299 0.930 . S
H320 C307 0.931 . S
H321 C308 0.929 . S
H322 C316 0.929 . S
H323 C317 0.930 . S
Mn324 O329 2.095 . S
Mn324 O339 2.162 . S
Mn324 O340 2.297 . S
Mn324 O348 2.385 . S
Mn324 O349 2.209 . S
Mn324 O350 2.094 . S
Mn325 O330 2.121 . S
Mn325 N332 2.257 . S
Mn325 N341 2.282 . S
Mn325 O349 2.215 . S
Mn325 O351 2.117 . S
C326 O348 1.234 . S
C326 O349 1.283 . S
C327 O339 1.281 . S
C327 O340 1.236 . S
C328 O350 1.240 . S
C328 O351 1.264 . S
O329 Mn324 2.095 . S
O329 C338 1.250 . S
O330 Mn325 2.121 . S
O330 C338 1.258 . S
C331 N332 1.326 . S
C331 C335 1.460 . S
C331 H337 0.929 . S
N332 Mn325 2.257 . S
N332 C331 1.326 . S
N332 C336 1.362 . S
C333 C334 1.258 . S
C333 C336 1.431 . S
C333 C353 1.449 . S
C334 C333 1.258 . S
C334 C335 1.477 . S
C334 H354 0.931 . S
C335 C331 1.460 . S
C335 C334 1.477 . S
C335 H355 0.930 . S
C336 N332 1.362 . S
C336 C333 1.431 . S
C336 C346 1.476 . S
H337 C331 0.929 . S
C338 O329 1.250 . S
C338 O330 1.258 . S
O339 Mn324 2.162 . S
O339 C327 1.281 . S
O340 Mn324 2.297 . S
O340 C327 1.236 . S
N341 Mn325 2.282 . S
N341 C342 1.328 . S
N341 C346 1.318 . S
C342 N341 1.328 . S
C342 C343 1.457 . S
C342 H347 0.929 . S
C343 C342 1.457 . S
C343 C344 1.291 . S
C343 H356 0.931 . S
C344 C343 1.291 . S
C344 C345 1.373 . S
C344 H357 0.929 . S
C345 C344 1.373 . S
C345 C346 1.396 . S
C345 C352 1.403 . S
C346 C336 1.476 . S
C346 N341 1.318 . S
C346 C345 1.396 . S
H347 C342 0.929 . S
O348 Mn324 2.385 . S
O348 C326 1.234 . S
O349 Mn324 2.209 . S
O349 Mn325 2.215 . S
O349 C326 1.283 . S
O350 Mn324 2.094 . S
O350 C328 1.240 . S
O351 Mn325 2.117 . S
O351 C328 1.264 . S
C352 C345 1.403 . S
C352 C353 1.399 . S
C352 H358 0.929 . S
C353 C333 1.449 . S
C353 C352 1.399 . S
C353 H359 0.930 . S
H354 C334 0.931 . S
H355 C335 0.930 . S
H356 C343 0.931 . S
H357 C344 0.929 . S
H358 C352 0.929 . S
H359 C353 0.930 . S
Mn360 O365 2.095 . S
Mn360 O375 2.162 1_545 S
Mn360 O376 2.297 1_545 S
Mn360 O384 2.385 . S
Mn360 O385 2.209 . S
Mn360 O386 2.094 . S
Mn361 O366 2.121 . S
Mn361 N368 2.257 . S
Mn361 N377 2.282 . S
Mn361 O385 2.215 . S
Mn361 O387 2.117 . S
C362 O384 1.234 . S
C362 O385 1.283 . S
C363 O375 1.281 . S
C363 O376 1.236 . S
C364 O386 1.240 . S
C364 O387 1.264 . S
O365 Mn360 2.095 . S
O365 C374 1.250 . S
O366 Mn361 2.121 . S
O366 C374 1.258 . S
C367 N368 1.326 . S
C367 C371 1.460 . S
C367 H373 0.929 . S
N368 Mn361 2.257 . S
N368 C367 1.326 . S
N368 C372 1.362 . S
C369 C370 1.258 . S
C369 C372 1.431 . S
C369 C389 1.449 . S
C370 C369 1.258 . S
C370 C371 1.477 . S
C370 H390 0.931 . S
C371 C367 1.460 . S
C371 C370 1.477 . S
C371 H391 0.930 . S
C372 N368 1.362 . S
C372 C369 1.431 . S
C372 C382 1.476 . S
H373 C367 0.929 . S
C374 O365 1.250 . S
C374 O366 1.258 . S
O375 Mn360 2.162 1_565 S
O375 C363 1.281 . S
O376 Mn360 2.297 1_565 S
O376 C363 1.236 . S
N377 Mn361 2.282 . S
N377 C378 1.328 . S
N377 C382 1.318 . S
C378 N377 1.328 . S
C378 C379 1.457 . S
C378 H383 0.929 . S
C379 C378 1.457 . S
C379 C380 1.291 . S
C379 H392 0.931 . S
C380 C379 1.291 . S
C380 C381 1.373 . S
C380 H393 0.929 . S
C381 C380 1.373 . S
C381 C382 1.396 . S
C381 C388 1.403 . S
C382 C372 1.476 . S
C382 N377 1.318 . S
C382 C381 1.396 . S
H383 C378 0.929 . S
O384 Mn360 2.385 . S
O384 C362 1.234 . S
O385 Mn360 2.209 . S
O385 Mn361 2.215 . S
O385 C362 1.283 . S
O386 Mn360 2.094 . S
O386 C364 1.240 . S
O387 Mn361 2.117 . S
O387 C364 1.264 . S
C388 C381 1.403 . S
C388 C389 1.399 . S
C388 H394 0.929 . S
C389 C369 1.449 . S
C389 C388 1.399 . S
C389 H395 0.930 . S
H390 C370 0.931 . S
H391 C371 0.930 . S
H392 C379 0.931 . S
H393 C380 0.929 . S
H394 C388 0.929 . S
H395 C389 0.930 . S
Mn396 O401 2.095 1_655 S
Mn396 O411 2.162 . S
Mn396 O412 2.297 . S
Mn396 O420 2.385 . S
Mn396 O421 2.209 . S
Mn396 O422 2.094 . S
Mn397 O402 2.121 1_655 S
Mn397 N404 2.257 . S
Mn397 N413 2.282 . S
Mn397 O421 2.215 . S
Mn397 O423 2.117 . S
C398 O420 1.234 . S
C398 O421 1.283 . S
C399 O411 1.281 . S
C399 O412 1.236 . S
C400 O422 1.240 . S
C400 O423 1.264 . S
O401 Mn396 2.095 1_455 S
O401 C410 1.250 . S
O402 Mn397 2.121 1_455 S
O402 C410 1.258 . S
C403 N404 1.326 . S
C403 C407 1.460 . S
C403 H409 0.921 1_655 S
N404 Mn397 2.257 . S
N404 C403 1.326 . S
N404 C408 1.362 . S
C405 C406 1.258 . S
C405 C408 1.431 . S
C405 C425 1.449 . S
C406 C405 1.258 . S
C406 C407 1.477 . S
C406 H426 0.931 . S
C407 C403 1.460 . S
C407 C406 1.477 . S
C407 H427 0.930 . S
C408 N404 1.362 . S
C408 C405 1.431 . S
C408 C418 1.476 . S
H409 C403 0.921 1_455 S
C410 O401 1.250 . S
C410 O402 1.258 . S
O411 Mn396 2.162 . S
O411 C399 1.281 . S
O412 Mn396 2.297 . S
O412 C399 1.236 . S
N413 Mn397 2.282 . S
N413 C414 1.328 . S
N413 C418 1.318 . S
C414 N413 1.328 . S
C414 C415 1.457 . S
C414 H419 0.929 . S
C415 C414 1.457 . S
C415 C416 1.291 . S
C415 H428 0.931 . S
C416 C415 1.291 . S
C416 C417 1.373 . S
C416 H429 0.929 . S
C417 C416 1.373 . S
C417 C418 1.396 . S
C417 C424 1.403 . S
C418 C408 1.476 . S
C418 N413 1.318 . S
C418 C417 1.396 . S
H419 C414 0.929 . S
O420 Mn396 2.385 . S
O420 C398 1.234 . S
O421 Mn396 2.209 . S
O421 Mn397 2.215 . S
O421 C398 1.283 . S
O422 Mn396 2.094 . S
O422 C400 1.240 . S
O423 Mn397 2.117 . S
O423 C400 1.264 . S
C424 C417 1.403 . S
C424 C425 1.399 . S
C424 H430 0.929 . S
C425 C405 1.449 . S
C425 C424 1.399 . S
C425 H431 0.930 . S
H426 C406 0.931 . S
H427 C407 0.930 . S
H428 C415 0.931 . S
H429 C416 0.929 . S
H430 C424 0.929 . S
H431 C425 0.930 . S
Mn432 O437 2.095 . S
Mn432 O447 2.162 . S
Mn432 O448 2.297 . S
Mn432 O456 2.385 . S
Mn432 O457 2.209 . S
Mn432 O458 2.094 . S
Mn433 O438 2.121 . S
Mn433 N440 2.257 . S
Mn433 N449 2.282 . S
Mn433 O457 2.215 . S
Mn433 O459 2.117 . S
C434 O456 1.234 . S
C434 O457 1.283 . S
C435 O447 1.281 . S
C435 O448 1.236 . S
C436 O458 1.240 . S
C436 O459 1.264 . S
O437 Mn432 2.095 . S
O437 C446 1.250 . S
O438 Mn433 2.121 . S
O438 C446 1.258 . S
C439 N440 1.326 . S
C439 C443 1.460 . S
C439 H445 0.929 . S
N440 Mn433 2.257 . S
N440 C439 1.326 . S
N440 C444 1.362 . S
C441 C442 1.258 . S
C441 C444 1.431 . S
C441 C461 1.449 . S
C442 C441 1.258 . S
C442 C443 1.477 . S
C442 H462 0.931 . S
C443 C439 1.460 . S
C443 C442 1.477 . S
C443 H463 0.930 . S
C444 N440 1.362 . S
C444 C441 1.431 . S
C444 C454 1.476 . S
H445 C439 0.929 . S
C446 O437 1.250 . S
C446 O438 1.258 . S
O447 Mn432 2.162 . S
O447 C435 1.281 . S
O448 Mn432 2.297 . S
O448 C435 1.236 . S
N449 Mn433 2.282 . S
N449 C450 1.328 . S
N449 C454 1.318 . S
C450 N449 1.328 . S
C450 C451 1.457 . S
C450 H455 0.929 . S
C451 C450 1.457 . S
C451 C452 1.291 . S
C451 H464 0.931 . S
C452 C451 1.291 . S
C452 C453 1.373 . S
C452 H465 0.929 . S
C453 C452 1.373 . S
C453 C454 1.396 . S
C453 C460 1.403 . S
C454 C444 1.476 . S
C454 N449 1.318 . S
C454 C453 1.396 . S
H455 C450 0.929 . S
O456 Mn432 2.385 . S
O456 C434 1.234 . S
O457 Mn432 2.209 . S
O457 Mn433 2.215 . S
O457 C434 1.283 . S
O458 Mn432 2.094 . S
O458 C436 1.240 . S
O459 Mn433 2.117 . S
O459 C436 1.264 . S
C460 C453 1.403 . S
C460 C461 1.399 . S
C460 H466 0.929 . S
C461 C441 1.449 . S
C461 C460 1.399 . S
C461 H467 0.930 . S
H462 C442 0.931 . S
H463 C443 0.930 . S
H464 C451 0.931 . S
H465 C452 0.929 . S
H466 C460 0.929 . S
H467 C461 0.930 . S
Mn468 O473 2.095 1_565 S
Mn468 O483 2.162 . S
Mn468 O484 2.297 . S
Mn468 O492 2.385 . S
Mn468 O493 2.209 . S
Mn468 O494 2.094 . S
Mn469 O474 2.121 1_565 S
Mn469 N476 2.257 . S
Mn469 N485 2.282 . S
Mn469 O493 2.215 . S
Mn469 O495 2.117 . S
C470 O492 1.234 . S
C470 O493 1.283 . S
C471 O483 1.281 . S
C471 O484 1.236 . S
C472 O494 1.240 . S
C472 O495 1.264 . S
O473 Mn468 2.095 1_545 S
O473 C482 1.250 . S
O474 Mn469 2.121 1_545 S
O474 C482 1.258 . S
C475 N476 1.326 . S
C475 C479 1.460 . S
C475 H481 0.929 . S
N476 Mn469 2.257 . S
N476 C475 1.326 . S
N476 C480 1.362 . S
C477 C478 1.258 . S
C477 C480 1.431 . S
C477 C497 1.449 . S
C478 C477 1.258 . S
C478 C479 1.477 . S
C478 H498 0.931 . S
C479 C475 1.460 . S
C479 C478 1.477 . S
C479 H499 0.930 . S
C480 N476 1.362 . S
C480 C477 1.431 . S
C480 C490 1.476 . S
H481 C475 0.929 . S
C482 O473 1.250 . S
C482 O474 1.258 . S
O483 Mn468 2.162 . S
O483 C471 1.281 . S
O484 Mn468 2.297 . S
O484 C471 1.236 . S
N485 Mn469 2.282 . S
N485 C486 1.328 . S
N485 C490 1.318 . S
C486 N485 1.328 . S
C486 C487 1.457 . S
C486 H491 0.929 . S
C487 C486 1.457 . S
C487 C488 1.291 . S
C487 H500 0.931 . S
C488 C487 1.291 . S
C488 C489 1.373 . S
C488 H501 0.929 . S
C489 C488 1.373 . S
C489 C490 1.396 . S
C489 C496 1.403 . S
C490 C480 1.476 . S
C490 N485 1.318 . S
C490 C489 1.396 . S
H491 C486 0.929 . S
O492 Mn468 2.385 . S
O492 C470 1.234 . S
O493 Mn468 2.209 . S
O493 Mn469 2.215 . S
O493 C470 1.283 . S
O494 Mn468 2.094 . S
O494 C472 1.240 . S
O495 Mn469 2.117 . S
O495 C472 1.264 . S
C496 C489 1.403 . S
C496 C497 1.399 . S
C496 H502 0.929 . S
C497 C477 1.449 . S
C497 C496 1.399 . S
C497 H503 0.930 . S
H498 C478 0.931 . S
H499 C479 0.930 . S
H500 C487 0.931 . S
H501 C488 0.929 . S
H502 C496 0.929 . S
H503 C497 0.930 . S
Mn504 O509 2.095 1_455 S
Mn504 O519 2.162 . S
Mn504 O520 2.297 . S
Mn504 O528 2.385 . S
Mn504 O529 2.209 . S
Mn504 O530 2.094 . S
Mn505 O510 2.121 1_455 S
Mn505 N512 2.257 . S
Mn505 N521 2.282 . S
Mn505 O529 2.215 . S
Mn505 O531 2.117 . S
C506 O528 1.234 . S
C506 O529 1.283 . S
C507 O519 1.281 . S
C507 O520 1.236 . S
C508 O530 1.240 . S
C508 O531 1.264 . S
O509 Mn504 2.095 1_655 S
O509 C518 1.250 . S
O510 Mn505 2.121 1_655 S
O510 C518 1.258 . S
C511 N512 1.326 . S
C511 C515 1.460 . S
C511 H517 0.929 1_455 S
N512 Mn505 2.257 . S
N512 C511 1.326 . S
N512 C516 1.362 . S
C513 C514 1.258 . S
C513 C516 1.431 . S
C513 C533 1.449 . S
C514 C513 1.258 . S
C514 C515 1.477 . S
C514 H534 0.931 . S
C515 C511 1.460 . S
C515 C514 1.477 . S
C515 H535 0.930 . S
C516 N512 1.362 . S
C516 C513 1.431 . S
C516 C526 1.476 . S
H517 C511 0.929 1_655 S
C518 O509 1.250 . S
C518 O510 1.258 . S
O519 Mn504 2.162 . S
O519 C507 1.281 . S
O520 Mn504 2.297 . S
O520 C507 1.236 . S
N521 Mn505 2.282 . S
N521 C522 1.328 . S
N521 C526 1.318 . S
C522 N521 1.328 . S
C522 C523 1.457 . S
C522 H527 0.929 . S
C523 C522 1.457 . S
C523 C524 1.291 . S
C523 H536 0.931 . S
C524 C523 1.291 . S
C524 C525 1.373 . S
C524 H537 0.929 . S
C525 C524 1.373 . S
C525 C526 1.396 . S
C525 C532 1.403 . S
C526 C516 1.476 . S
C526 N521 1.318 . S
C526 C525 1.396 . S
H527 C522 0.929 . S
O528 Mn504 2.385 . S
O528 C506 1.234 . S
O529 Mn504 2.209 . S
O529 Mn505 2.215 . S
O529 C506 1.283 . S
O530 Mn504 2.094 . S
O530 C508 1.240 . S
O531 Mn505 2.117 . S
O531 C508 1.264 . S
C532 C525 1.403 . S
C532 C533 1.399 . S
C532 H538 0.929 . S
C533 C513 1.449 . S
C533 C532 1.399 . S
C533 H539 0.930 . S
H534 C514 0.931 . S
H535 C515 0.930 . S
H536 C523 0.931 . S
H537 C524 0.929 . S
H538 C532 0.929 . S
H539 C533 0.930 . S
Mn540 O545 2.095 1_455 S
Mn540 O555 2.162 . S
Mn540 O556 2.297 1_455 S
Mn540 O564 2.385 . S
Mn540 O565 2.209 1_455 S
Mn540 O566 2.094 . S
Mn541 O546 2.121 . S
Mn541 N548 2.257 . S
Mn541 N557 2.282 1_655 S
Mn541 O565 2.215 . S
Mn541 O567 2.117 1_655 S
C542 O564 1.234 . S
C542 O565 1.283 1_455 S
C543 O555 1.281 1_655 S
C543 O556 1.236 . S
C544 O566 1.240 . S
C544 O567 1.264 . S
O545 Mn540 2.095 1_655 S
O545 C554 1.250 . S
O546 Mn541 2.121 . S
O546 C554 1.258 . S
C547 N548 1.326 . S
C547 C551 1.460 . S
C547 H553 0.929 . S
N548 Mn541 2.257 . S
N548 C547 1.326 . S
N548 C552 1.362 . S
C549 C550 1.258 . S
C549 C552 1.431 . S
C549 C569 1.449 . S
C550 C549 1.258 . S
C550 C551 1.477 . S
C550 H570 0.931 . S
C551 C547 1.460 . S
C551 C550 1.477 . S
C551 H571 0.930 . S
C552 N548 1.362 . S
C552 C549 1.431 . S
C552 C562 1.476 1_655 S
H553 C547 0.929 . S
C554 O545 1.250 . S
C554 O546 1.258 . S
O555 Mn540 2.162 . S
O555 C543 1.281 1_455 S
O556 Mn540 2.297 1_655 S
O556 C543 1.236 . S
N557 Mn541 2.282 1_455 S
N557 C558 1.328 . S
N557 C562 1.318 . S
C558 N557 1.328 . S
C558 C559 1.457 . S
C558 H563 0.929 . S
C559 C558 1.457 . S
C559 C560 1.291 . S
C559 H572 0.931 . S
C560 C559 1.291 . S
C560 C561 1.373 . S
C560 H573 0.929 . S
C561 C560 1.373 . S
C561 C562 1.396 . S
C561 C568 1.403 . S
C562 C552 1.476 1_455 S
C562 N557 1.318 . S
C562 C561 1.396 . S
H563 C558 0.929 . S
O564 Mn540 2.385 . S
O564 C542 1.234 . S
O565 Mn540 2.209 1_655 S
O565 Mn541 2.215 . S
O565 C542 1.283 1_655 S
O566 Mn540 2.094 . S
O566 C544 1.240 . S
O567 Mn541 2.117 1_455 S
O567 C544 1.264 . S
C568 C561 1.403 . S
C568 C569 1.399 1_455 S
C568 H574 0.929 . S
C569 C549 1.449 . S
C569 C568 1.399 1_655 S
C569 H575 0.930 . S
H570 C550 0.931 . S
H571 C551 0.930 . S
H572 C559 0.931 . S
H573 C560 0.929 . S
H574 C568 0.929 . S
H575 C569 0.930 . S
Mn576 O581 2.095 . S
Mn576 O591 2.162 . S
Mn576 O592 2.297 . S
Mn576 O600 2.385 . S
Mn576 O601 2.209 . S
Mn576 O602 2.094 . S
Mn577 O582 2.121 . S
Mn577 N584 2.257 . S
Mn577 N593 2.282 . S
Mn577 O601 2.215 . S
Mn577 O603 2.117 . S
C578 O600 1.234 . S
C578 O601 1.283 . S
C579 O591 1.281 . S
C579 O592 1.236 . S
C580 O602 1.240 . S
C580 O603 1.264 . S
O581 Mn576 2.095 . S
O581 C590 1.250 . S
O582 Mn577 2.121 . S
O582 C590 1.258 . S
C583 N584 1.326 . S
C583 C587 1.460 . S
C583 H589 0.929 . S
N584 Mn577 2.257 . S
N584 C583 1.326 . S
N584 C588 1.362 . S
C585 C586 1.258 . S
C585 C588 1.431 . S
C585 C605 1.449 . S
C586 C585 1.258 . S
C586 C587 1.477 . S
C586 H606 0.931 . S
C587 C583 1.460 . S
C587 C586 1.477 . S
C587 H607 0.930 . S
C588 N584 1.362 . S
C588 C585 1.431 . S
C588 C598 1.476 . S
H589 C583 0.929 . S
C590 O581 1.250 . S
C590 O582 1.258 . S
O591 Mn576 2.162 . S
O591 C579 1.281 . S
O592 Mn576 2.297 . S
O592 C579 1.236 . S
N593 Mn577 2.282 . S
N593 C594 1.328 . S
N593 C598 1.318 . S
C594 N593 1.328 . S
C594 C595 1.457 . S
C594 H599 0.929 . S
C595 C594 1.457 . S
C595 C596 1.291 . S
C595 H608 0.931 . S
C596 C595 1.291 . S
C596 C597 1.373 . S
C596 H609 0.929 . S
C597 C596 1.373 . S
C597 C598 1.396 . S
C597 C604 1.403 . S
C598 C588 1.476 . S
C598 N593 1.318 . S
C598 C597 1.396 . S
H599 C594 0.929 . S
O600 Mn576 2.385 . S
O600 C578 1.234 . S
O601 Mn576 2.209 . S
O601 Mn577 2.215 . S
O601 C578 1.283 . S
O602 Mn576 2.094 . S
O602 C580 1.240 . S
O603 Mn577 2.117 . S
O603 C580 1.264 . S
C604 C597 1.403 . S
C604 C605 1.399 . S
C604 H610 0.929 . S
C605 C585 1.449 . S
C605 C604 1.399 . S
C605 H611 0.930 . S
H606 C586 0.931 . S
H607 C587 0.930 . S
H608 C595 0.931 . S
H609 C596 0.929 . S
H610 C604 0.929 . S
H611 C605 0.930 . S
Mn612 O617 2.095 1_565 S
Mn612 O627 2.162 . S
Mn612 O628 2.297 1_565 S
Mn612 O636 2.385 . S
Mn612 O637 2.209 1_565 S
Mn612 O638 2.094 . S
Mn613 O618 2.121 . S
Mn613 N620 2.257 . S
Mn613 N629 2.282 1_545 S
Mn613 O637 2.215 . S
Mn613 O639 2.117 1_545 S
C614 O636 1.234 . S
C614 O637 1.283 1_565 S
C615 O627 1.281 1_545 S
C615 O628 1.236 . S
C616 O638 1.240 . S
C616 O639 1.264 . S
O617 Mn612 2.095 1_545 S
O617 C626 1.250 . S
O618 Mn613 2.121 . S
O618 C626 1.258 . S
C619 N620 1.326 . S
C619 C623 1.460 . S
C619 H625 0.929 . S
N620 Mn613 2.257 . S
N620 C619 1.326 . S
N620 C624 1.362 . S
C621 C622 1.258 . S
C621 C624 1.431 . S
C621 C641 1.449 . S
C622 C621 1.258 . S
C622 C623 1.477 . S
C622 H642 0.931 . S
C623 C619 1.460 . S
C623 C622 1.477 . S
C623 H643 0.930 . S
C624 N620 1.362 . S
C624 C621 1.431 . S
C624 C634 1.476 1_545 S
H625 C619 0.929 . S
C626 O617 1.250 . S
C626 O618 1.258 . S
O627 Mn612 2.162 . S
O627 C615 1.281 1_565 S
O628 Mn612 2.297 1_545 S
O628 C615 1.236 . S
N629 Mn613 2.282 1_565 S
N629 C630 1.328 . S
N629 C634 1.318 . S
C630 N629 1.328 . S
C630 C631 1.457 . S
C630 H635 0.929 . S
C631 C630 1.457 . S
C631 C632 1.291 . S
C631 H644 0.931 . S
C632 C631 1.291 . S
C632 C633 1.373 . S
C632 H645 0.929 . S
C633 C632 1.373 . S
C633 C634 1.396 . S
C633 C640 1.403 . S
C634 C624 1.476 1_565 S
C634 N629 1.318 . S
C634 C633 1.396 . S
H635 C630 0.929 . S
O636 Mn612 2.385 . S
O636 C614 1.234 . S
O637 Mn612 2.209 1_545 S
O637 Mn613 2.215 . S
O637 C614 1.283 1_545 S
O638 Mn612 2.094 . S
O638 C616 1.240 . S
O639 Mn613 2.117 1_565 S
O639 C616 1.264 . S
C640 C633 1.403 . S
C640 C641 1.399 1_565 S
C640 H646 0.929 . S
C641 C621 1.449 . S
C641 C640 1.399 1_545 S
C641 H647 0.930 . S
H642 C622 0.931 . S
H643 C623 0.930 . S
H644 C631 0.931 . S
H645 C632 0.929 . S
H646 C640 0.929 . S
H647 C641 0.930 . S
C648 C649 1.391 1_565 S
C648 C650 1.394 . S
C648 H664 0.931 . S
C649 C648 1.391 1_545 S
C649 C653 1.376 . S
C650 C648 1.394 . S
C650 C651 1.369 1_565 S
C650 C654 1.531 1_554 S
C651 C650 1.369 1_545 S
C651 C652 1.410 . S
C651 C659 1.503 1_554 S
C652 C651 1.410 . S
C652 C653 1.392 . S
C652 C655 1.511 . S
C653 C649 1.376 . S
C653 C652 1.392 . S
C653 H665 0.929 . S
C654 C650 1.531 1_556 S
C654 H666 0.960 . S
C654 H667 0.962 . S
C654 H668 0.960 . S
C655 C652 1.511 . S
C655 H669 0.961 . S
C655 H670 0.961 . S
C655 H671 0.961 . S
C656 C657 1.370 . S
C656 C658 1.363 1_556 S
C656 H672 0.931 . S
C657 C656 1.370 . S
C657 C661 1.408 1_565 S
C658 C656 1.363 1_554 S
C658 C659 1.370 1_564 S
C658 C662 1.524 . S
C659 C651 1.503 1_556 S
C659 C658 1.370 1_546 S
C659 C660 1.403 . S
C660 C659 1.403 . S
C660 C661 1.404 . S
C660 C663 1.539 . S
C661 C657 1.408 1_545 S
C661 C660 1.404 . S
C661 H673 0.930 . S
C662 C658 1.524 . S
C662 H674 0.956 . S
C662 H675 0.961 . S
C662 H676 0.961 . S
C663 C660 1.539 . S
C663 H677 0.958 . S
C663 H678 0.961 . S
C663 H679 0.960 . S
H664 C648 0.931 . S
H665 C653 0.929 . S
H666 C654 0.960 . S
H667 C654 0.962 . S
H668 C654 0.960 . S
H669 C655 0.961 . S
H670 C655 0.961 . S
H671 C655 0.961 . S
H672 C656 0.931 . S
H673 C661 0.930 . S
H674 C662 0.956 . S
H675 C662 0.961 . S
H676 C662 0.961 . S
H677 C663 0.958 . S
H678 C663 0.961 . S
H679 C663 0.960 . S
C680 C681 1.391 . S
C680 C682 1.394 . S
C680 H696 0.931 . S
C681 C680 1.391 . S
C681 C685 1.376 . S
C682 C680 1.394 . S
C682 C683 1.369 . S
C682 C686 1.531 . S
C683 C682 1.369 . S
C683 C684 1.410 1_554 S
C683 C691 1.503 1_554 S
C684 C683 1.410 1_556 S
C684 C685 1.392 1_556 S
C684 C687 1.511 1_655 S
C685 C681 1.376 . S
C685 C684 1.392 1_554 S
C685 H697 0.929 . S
C686 C682 1.531 . S
C686 H698 0.960 . S
C686 H699 0.962 . S
C686 H700 0.960 . S
C687 C684 1.511 1_455 S
C687 H701 0.961 . S
C687 H702 0.961 . S
C687 H703 0.961 . S
C688 C689 1.370 1_655 S
C688 C690 1.363 . S
C688 H704 0.931 . S
C689 C688 1.370 1_455 S
C689 C693 1.408 . S
C690 C688 1.363 . S
C690 C691 1.370 . S
C690 C694 1.524 . S
C691 C683 1.503 1_556 S
C691 C690 1.370 . S
C691 C692 1.403 1_655 S
C692 C691 1.403 1_455 S
C692 C693 1.404 . S
C692 C695 1.539 1_556 S
C693 C689 1.408 . S
C693 C692 1.404 . S
C693 H705 0.930 . S
C694 C690 1.524 . S
C694 H706 0.956 1_556 S
C694 H707 0.961 . S
C694 H708 0.961 . S
C695 C692 1.539 1_554 S
C695 H709 0.958 . S
C695 H710 0.961 1_554 S
C695 H711 0.960 . S
H696 C680 0.931 . S
H697 C685 0.929 . S
H698 C686 0.960 . S
H699 C686 0.962 . S
H700 C686 0.960 . S
H701 C687 0.961 . S
H702 C687 0.961 . S
H703 C687 0.961 . S
H704 C688 0.931 . S
H705 C693 0.930 . S
H706 C694 0.956 1_554 S
H707 C694 0.961 . S
H708 C694 0.961 . S
H709 C695 0.958 . S
H710 C695 0.961 1_556 S
H711 C695 0.960 . S
C712 C713 1.391 . S
C712 C714 1.394 . S
C712 H728 0.931 . S
C713 C712 1.391 . S
C713 C717 1.376 . S
C714 C712 1.394 . S
C714 C715 1.369 . S
C714 C718 1.531 1_556 S
C715 C714 1.369 . S
C715 C716 1.410 . S
C715 C723 1.503 1_556 S
C716 C715 1.410 . S
C716 C717 1.392 . S
C716 C719 1.511 . S
C717 C713 1.376 . S
C717 C716 1.392 . S
C717 H729 0.929 . S
C718 C714 1.531 1_554 S
C718 H730 0.960 . S
C718 H731 0.962 . S
C718 H732 0.960 . S
C719 C716 1.511 . S
C719 H733 0.961 . S
C719 H734 0.961 . S
C719 H735 0.961 . S
C720 C721 1.370 . S
C720 C722 1.363 . S
C720 H736 0.931 . S
C721 C720 1.370 . S
C721 C725 1.408 . S
C722 C720 1.363 . S
C722 C723 1.370 . S
C722 C726 1.524 . S
C723 C715 1.503 1_554 S
C723 C722 1.370 . S
C723 C724 1.398 1_554 S
C724 C723 1.398 1_556 S
C724 C725 1.378 1_556 S
C724 C727 1.573 . S
C725 C721 1.408 . S
C725 C724 1.378 1_554 S
C725 H737 0.930 . S
C726 C722 1.524 . S
C726 H738 0.956 . S
C726 H739 0.961 . S
C726 H740 0.961 . S
C727 C724 1.573 . S
C727 H741 0.958 . S
C727 H742 0.961 . S
C727 H743 0.960 . S
H728 C712 0.931 . S
H729 C717 0.929 . S
H730 C718 0.960 . S
H731 C718 0.962 . S
H732 C718 0.960 . S
H733 C719 0.961 . S
H734 C719 0.961 . S
H735 C719 0.961 . S
H736 C720 0.931 . S
H737 C725 0.930 . S
H738 C726 0.956 . S
H739 C726 0.961 . S
H740 C726 0.961 . S
H741 C727 0.958 . S
H742 C727 0.961 . S
H743 C727 0.960 . S
C744 C745 1.391 . S
C744 C746 1.394 . S
C744 H760 0.931 . S
C745 C744 1.391 . S
C745 C749 1.376 . S
C746 C744 1.394 . S
C746 C747 1.369 . S
C746 C750 1.531 . S
C747 C746 1.369 . S
C747 C748 1.410 . S
C747 C755 1.503 . S
C748 C747 1.410 . S
C748 C749 1.392 . S
C748 C751 1.511 . S
C749 C745 1.376 . S
C749 C748 1.392 . S
C749 H761 0.929 . S
C750 C746 1.531 . S
C750 H762 0.960 . S
C750 H763 0.962 . S
C750 H764 0.960 . S
C751 C748 1.511 . S
C751 H765 0.961 . S
C751 H766 0.961 . S
C751 H767 0.961 . S
C752 C753 1.370 . S
C752 C754 1.363 . S
C752 H768 0.931 . S
C753 C752 1.370 . S
C753 C757 1.408 . S
C754 C752 1.363 . S
C754 C755 1.370 . S
C754 C758 1.524 . S
C755 C747 1.503 . S
C755 C754 1.370 . S
C755 C756 1.403 . S
C756 C755 1.403 . S
C756 C757 1.404 . S
C756 C759 1.539 . S
C757 C753 1.408 . S
C757 C756 1.404 . S
C757 H769 0.930 . S
C758 C754 1.524 . S
C758 H770 0.956 . S
C758 H771 0.961 . S
C758 H772 0.961 . S
C759 C756 1.539 . S
C759 H773 0.958 . S
C759 H774 0.961 . S
C759 H775 0.960 . S
H760 C744 0.931 . S
H761 C749 0.929 . S
H762 C750 0.960 . S
H763 C750 0.962 . S
H764 C750 0.960 . S
H765 C751 0.961 . S
H766 C751 0.961 . S
H767 C751 0.961 . S
H768 C752 0.931 . S
H769 C757 0.930 . S
H770 C758 0.956 . S
H771 C758 0.961 . S
H772 C758 0.961 . S
H773 C759 0.958 . S
H774 C759 0.961 . S
H775 C759 0.960 . S
C776 C777 1.391 . S
C776 C778 1.394 . S
C776 H792 0.931 . S
C777 C776 1.391 . S
C777 C781 1.376 . S
C778 C776 1.394 . S
C778 C779 1.369 . S
C778 C782 1.531 . S
C779 C778 1.369 . S
C779 C780 1.410 . S
C779 C787 1.503 . S
C780 C779 1.410 . S
C780 C781 1.392 . S
C780 C783 1.511 . S
C781 C777 1.376 . S
C781 C780 1.392 . S
C781 H793 0.929 . S
C782 C778 1.531 . S
C782 H794 0.960 . S
C782 H795 0.962 . S
C782 H796 0.960 . S
C783 C780 1.511 . S
C783 H797 0.961 . S
C783 H798 0.961 . S
C783 H799 0.961 . S
C784 C785 1.370 . S
C784 C786 1.363 . S
C784 H800 0.931 . S
C785 C784 1.370 . S
C785 C789 1.408 . S
C786 C784 1.363 . S
C786 C787 1.370 . S
C786 C790 1.524 . S
C787 C779 1.503 . S
C787 C786 1.370 . S
C787 C788 1.403 . S
C788 C787 1.403 . S
C788 C789 1.404 . S
C788 C791 1.539 . S
C789 C785 1.408 . S
C789 C788 1.404 . S
C789 H801 0.930 . S
C790 C786 1.524 . S
C790 H802 0.956 . S
C790 H803 0.961 . S
C790 H804 0.961 . S
C791 C788 1.539 . S
C791 H805 0.958 . S
C791 H806 0.961 . S
C791 H807 0.960 . S
H792 C776 0.931 . S
H793 C781 0.929 . S
H794 C782 0.960 . S
H795 C782 0.962 . S
H796 C782 0.960 . S
H797 C783 0.961 . S
H798 C783 0.961 . S
H799 C783 0.961 . S
H800 C784 0.931 . S
H801 C789 0.930 . S
H802 C790 0.956 . S
H803 C790 0.961 . S
H804 C790 0.961 . S
H805 C791 0.958 . S
H806 C791 0.961 . S
H807 C791 0.960 . S
C808 C809 1.391 . S
C808 C810 1.394 . S
C808 H824 0.931 . S
C809 C808 1.391 . S
C809 C813 1.376 . S
C810 C808 1.394 . S
C810 C811 1.369 . S
C810 C814 1.531 . S
C811 C810 1.369 . S
C811 C812 1.410 . S
C811 C819 1.503 . S
C812 C811 1.410 . S
C812 C813 1.392 . S
C812 C815 1.511 . S
C813 C809 1.376 . S
C813 C812 1.392 . S
C813 H825 0.929 . S
C814 C810 1.531 . S
C814 H826 0.960 . S
C814 H827 0.962 . S
C814 H828 0.960 . S
C815 C812 1.511 . S
C815 H829 0.961 . S
C815 H830 0.961 . S
C815 H831 0.961 . S
C816 C817 1.370 . S
C816 C818 1.363 . S
C816 H832 0.931 . S
C817 C816 1.370 . S
C817 C821 1.408 . S
C818 C816 1.363 . S
C818 C819 1.370 . S
C818 C822 1.524 . S
C819 C811 1.503 . S
C819 C818 1.370 . S
C819 C820 1.403 . S
C820 C819 1.403 . S
C820 C821 1.404 . S
C820 C823 1.539 . S
C821 C817 1.408 . S
C821 C820 1.404 . S
C821 H833 0.930 . S
C822 C818 1.524 . S
C822 H834 0.956 . S
C822 H835 0.961 . S
C822 H836 0.961 . S
C823 C820 1.539 . S
C823 H837 0.958 . S
C823 H838 0.961 . S
C823 H839 0.960 . S
H824 C808 0.931 . S
H825 C813 0.929 . S
H826 C814 0.960 . S
H827 C814 0.962 . S
H828 C814 0.960 . S
H829 C815 0.961 . S
H830 C815 0.961 . S
H831 C815 0.961 . S
H832 C816 0.931 . S
H833 C821 0.930 . S
H834 C822 0.956 . S
H835 C822 0.961 . S
H836 C822 0.961 . S
H837 C823 0.958 . S
H838 C823 0.961 . S
H839 C823 0.960 . S
C840 C841 1.391 . S
C840 C842 1.394 . S
C840 H856 0.931 . S
C841 C840 1.391 . S
C841 C845 1.376 . S
C842 C840 1.394 . S
C842 C843 1.369 . S
C842 C846 1.531 . S
C843 C842 1.369 . S
C843 C844 1.410 . S
C843 C851 1.503 . S
C844 C843 1.410 . S
C844 C845 1.392 . S
C844 C847 1.511 . S
C845 C841 1.376 . S
C845 C844 1.392 . S
C845 H857 0.929 . S
C846 C842 1.531 . S
C846 H858 0.960 . S
C846 H859 0.962 . S
C846 H860 0.960 . S
C847 C844 1.511 . S
C847 H861 0.961 . S
C847 H862 0.961 . S
C847 H863 0.961 . S
C848 C849 1.370 . S
C848 C850 1.363 . S
C848 H864 0.931 . S
C849 C848 1.370 . S
C849 C853 1.408 . S
C850 C848 1.363 . S
C850 C851 1.370 . S
C850 C854 1.524 . S
C851 C843 1.503 . S
C851 C850 1.370 . S
C851 C852 1.403 . S
C852 C851 1.403 . S
C852 C853 1.404 . S
C852 C855 1.539 . S
C853 C849 1.408 . S
C853 C852 1.404 . S
C853 H865 0.930 . S
C854 C850 1.524 . S
C854 H866 0.956 . S
C854 H867 0.961 . S
C854 H868 0.961 . S
C855 C852 1.539 . S
C855 H869 0.958 . S
C855 H870 0.961 . S
C855 H871 0.960 . S
H856 C840 0.931 . S
H857 C845 0.929 . S
H858 C846 0.960 . S
H859 C846 0.962 . S
H860 C846 0.960 . S
H861 C847 0.961 . S
H862 C847 0.961 . S
H863 C847 0.961 . S
H864 C848 0.931 . S
H865 C853 0.930 . S
H866 C854 0.956 . S
H867 C854 0.961 . S
H868 C854 0.961 . S
H869 C855 0.958 . S
H870 C855 0.961 . S
H871 C855 0.960 . S
C872 C873 1.391 . S
C872 C874 1.394 . S
C872 H888 0.931 . S
C873 C872 1.391 . S
C873 C877 1.376 . S
C874 C872 1.394 . S
C874 C875 1.369 . S
C874 C878 1.531 . S
C875 C874 1.369 . S
C875 C876 1.410 . S
C875 C883 1.503 . S
C876 C875 1.410 . S
C876 C877 1.392 . S
C876 C879 1.511 . S
C877 C873 1.376 . S
C877 C876 1.392 . S
C877 H889 0.929 . S
C878 C874 1.531 . S
C878 H890 0.960 . S
C878 H891 0.962 . S
C878 H892 0.960 . S
C879 C876 1.511 . S
C879 H893 0.961 . S
C879 H894 0.961 . S
C879 H895 0.961 . S
C880 C881 1.370 . S
C880 C882 1.363 . S
C880 H896 0.931 . S
C881 C880 1.370 . S
C881 C885 1.408 . S
C882 C880 1.363 . S
C882 C883 1.370 . S
C882 C886 1.524 . S
C883 C875 1.503 . S
C883 C882 1.370 . S
C883 C884 1.403 . S
C884 C883 1.403 . S
C884 C885 1.404 . S
C884 C887 1.539 . S
C885 C881 1.408 . S
C885 C884 1.404 . S
C885 H897 0.930 . S
C886 C882 1.524 . S
C886 H898 0.956 . S
C886 H899 0.961 . S
C886 H900 0.961 . S
C887 C884 1.539 . S
C887 H901 0.958 . S
C887 H902 0.961 . S
C887 H903 0.960 . S
H888 C872 0.931 . S
H889 C877 0.929 . S
H890 C878 0.960 . S
H891 C878 0.962 . S
H892 C878 0.960 . S
H893 C879 0.961 . S
H894 C879 0.961 . S
H895 C879 0.961 . S
H896 C880 0.931 . S
H897 C885 0.930 . S
H898 C886 0.956 . S
H899 C886 0.961 . S
H900 C886 0.961 . S
H901 C887 0.958 . S
H902 C887 0.961 . S
H903 C887 0.960 . S
C904 C905 1.391 . S
C904 C906 1.394 . S
C904 H920 0.931 . S
C905 C904 1.391 . S
C905 C909 1.376 . S
C906 C904 1.394 . S
C906 C907 1.369 . S
C906 C910 1.531 . S
C907 C906 1.369 . S
C907 C908 1.410 . S
C907 C915 1.503 . S
C908 C907 1.410 . S
C908 C909 1.392 . S
C908 C911 1.511 . S
C909 C905 1.376 . S
C909 C908 1.392 . S
C909 H921 0.929 . S
C910 C906 1.531 . S
C910 H922 0.960 . S
C910 H923 0.962 . S
C910 H924 0.960 . S
C911 C908 1.511 . S
C911 H925 0.961 . S
C911 H926 0.961 . S
C911 H927 0.961 . S
C912 C913 1.370 . S
C912 C914 1.363 . S
C912 H928 0.931 . S
C913 C912 1.370 . S
C913 C917 1.408 . S
C914 C912 1.363 . S
C914 C915 1.370 . S
C914 C918 1.524 . S
C915 C907 1.503 . S
C915 C914 1.370 . S
C915 C916 1.403 . S
C916 C915 1.403 . S
C916 C917 1.404 . S
C916 C919 1.539 . S
C917 C913 1.408 . S
C917 C916 1.404 . S
C917 H929 0.930 . S
C918 C914 1.524 . S
C918 H930 0.956 . S
C918 H931 0.961 . S
C918 H932 0.961 . S
C919 C916 1.539 . S
C919 H933 0.958 . S
C919 H934 0.961 . S
C919 H935 0.960 . S
H920 C904 0.931 . S
H921 C909 0.929 . S
H922 C910 0.960 . S
H923 C910 0.962 . S
H924 C910 0.960 . S
H925 C911 0.961 . S
H926 C911 0.961 . S
H927 C911 0.961 . S
H928 C912 0.931 . S
H929 C917 0.930 . S
H930 C918 0.956 . S
H931 C918 0.961 . S
H932 C918 0.961 . S
H933 C919 0.958 . S
H934 C919 0.961 . S
H935 C919 0.960 . S
C936 C937 1.391 . S
C936 C938 1.394 . S
C936 H952 0.931 . S
C937 C936 1.391 . S
C937 C941 1.376 . S
C938 C936 1.394 . S
C938 C939 1.369 . S
C938 C942 1.531 . S
C939 C938 1.369 . S
C939 C940 1.410 . S
C939 C947 1.503 . S
C940 C939 1.410 . S
C940 C941 1.392 . S
C940 C943 1.511 . S
C941 C937 1.376 . S
C941 C940 1.392 . S
C941 H953 0.929 . S
C942 C938 1.531 . S
C942 H954 0.960 . S
C942 H955 0.962 . S
C942 H956 0.960 . S
C943 C940 1.511 . S
C943 H957 0.961 . S
C943 H958 0.961 . S
C943 H959 0.961 . S
C944 C945 1.370 . S
C944 C946 1.363 . S
C944 H960 0.931 . S
C945 C944 1.370 . S
C945 C949 1.408 . S
C946 C944 1.363 . S
C946 C947 1.370 . S
C946 C950 1.524 . S
C947 C939 1.503 . S
C947 C946 1.370 . S
C947 C948 1.403 . S
C948 C947 1.403 . S
C948 C949 1.404 . S
C948 C951 1.539 . S
C949 C945 1.408 . S
C949 C948 1.404 . S
C949 H961 0.930 . S
C950 C946 1.524 . S
C950 H962 0.956 . S
C950 H963 0.961 . S
C950 H964 0.961 . S
C951 C948 1.539 . S
C951 H965 0.958 . S
C951 H966 0.961 . S
C951 H967 0.960 . S
H952 C936 0.931 . S
H953 C941 0.929 . S
H954 C942 0.960 . S
H955 C942 0.962 . S
H956 C942 0.960 . S
H957 C943 0.961 . S
H958 C943 0.961 . S
H959 C943 0.961 . S
H960 C944 0.931 . S
H961 C949 0.930 . S
H962 C950 0.956 . S
H963 C950 0.961 . S
H964 C950 0.961 . S
H965 C951 0.958 . S
H966 C951 0.961 . S
H967 C951 0.960 . S
C968 C969 1.391 . S
C968 C970 1.394 . S
C968 H984 0.931 . S
C969 C968 1.391 . S
C969 C973 1.376 . S
C970 C968 1.394 . S
C970 C971 1.369 . S
C970 C974 1.531 . S
C971 C970 1.369 . S
C971 C972 1.410 . S
C971 C979 1.503 . S
C972 C971 1.410 . S
C972 C973 1.392 . S
C972 C975 1.511 . S
C973 C969 1.376 . S
C973 C972 1.392 . S
C973 H985 0.929 . S
C974 C970 1.531 . S
C974 H986 0.960 . S
C974 H987 0.962 . S
C974 H988 0.960 . S
C975 C972 1.511 . S
C975 H989 0.961 . S
C975 H990 0.961 . S
C975 H991 0.961 . S
C976 C977 1.370 . S
C976 C978 1.363 . S
C976 H992 0.931 . S
C977 C976 1.370 . S
C977 C981 1.408 . S
C978 C976 1.363 . S
C978 C979 1.370 . S
C978 C982 1.524 . S
C979 C971 1.503 . S
C979 C978 1.370 . S
C979 C980 1.403 . S
C980 C979 1.403 . S
C980 C981 1.404 . S
C980 C983 1.539 . S
C981 C977 1.408 . S
C981 C980 1.404 . S
C981 H993 0.930 . S
C982 C978 1.524 . S
C982 H994 0.956 . S
C982 H995 0.961 . S
C982 H996 0.961 . S
C983 C980 1.539 . S
C983 H997 0.958 . S
C983 H998 0.961 . S
C983 H999 0.960 . S
H984 C968 0.931 . S
H985 C973 0.929 . S
H986 C974 0.960 . S
H987 C974 0.962 . S
H988 C974 0.960 . S
H989 C975 0.961 . S
H990 C975 0.961 . S
H991 C975 0.961 . S
H992 C976 0.931 . S
H993 C981 0.930 . S
H994 C982 0.956 . S
H995 C982 0.961 . S
H996 C982 0.961 . S
H997 C983 0.958 . S
H998 C983 0.961 . S
H999 C983 0.960 . S
C1000 C1001 1.391 . S
C1000 C1002 1.394 . S
C1000 H1016 0.931 . S
C1001 C1000 1.391 . S
C1001 C1005 1.376 . S
C1002 C1000 1.394 . S
C1002 C1003 1.369 . S
C1002 C1006 1.531 . S
C1003 C1002 1.369 . S
C1003 C1004 1.410 . S
C1003 C1011 1.503 . S
C1004 C1003 1.410 . S
C1004 C1005 1.392 . S
C1004 C1007 1.511 . S
C1005 C1001 1.376 . S
C1005 C1004 1.392 . S
C1005 H1017 0.929 . S
C1006 C1002 1.531 . S
C1006 H1018 0.960 . S
C1006 H1019 0.962 . S
C1006 H1020 0.960 . S
C1007 C1004 1.511 . S
C1007 H1021 0.961 . S
C1007 H1022 0.961 . S
C1007 H1023 0.961 . S
C1008 C1009 1.370 . S
C1008 C1010 1.363 . S
C1008 H1024 0.931 . S
C1009 C1008 1.370 . S
C1009 C1013 1.408 . S
C1010 C1008 1.363 . S
C1010 C1011 1.370 . S
C1010 C1014 1.524 . S
C1011 C1003 1.503 . S
C1011 C1010 1.370 . S
C1011 C1012 1.403 . S
C1012 C1011 1.403 . S
C1012 C1013 1.404 . S
C1012 C1015 1.539 . S
C1013 C1009 1.408 . S
C1013 C1012 1.404 . S
C1013 H1025 0.930 . S
C1014 C1010 1.524 . S
C1014 H1026 0.956 . S
C1014 H1027 0.961 . S
C1014 H1028 0.961 . S
C1015 C1012 1.539 . S
C1015 H1029 0.958 . S
C1015 H1030 0.961 . S
C1015 H1031 0.960 . S
H1016 C1000 0.931 . S
H1017 C1005 0.929 . S
H1018 C1006 0.960 . S
H1019 C1006 0.962 . S
H1020 C1006 0.960 . S
H1021 C1007 0.961 . S
H1022 C1007 0.961 . S
H1023 C1007 0.961 . S
H1024 C1008 0.931 . S
H1025 C1013 0.930 . S
H1026 C1014 0.956 . S
H1027 C1014 0.961 . S
H1028 C1014 0.961 . S
H1029 C1015 0.958 . S
H1030 C1015 0.961 . S
H1031 C1015 0.960 . S
C1032 C1033 1.391 . S
C1032 C1034 1.394 . S
C1032 H1048 0.931 . S
C1033 C1032 1.391 . S
C1033 C1037 1.376 . S
C1034 C1032 1.394 . S
C1034 C1035 1.369 . S
C1034 C1038 1.531 . S
C1035 C1034 1.369 . S
C1035 C1036 1.410 . S
C1035 C1043 1.503 . S
C1036 C1035 1.410 . S
C1036 C1037 1.392 . S
C1036 C1039 1.511 . S
C1037 C1033 1.376 . S
C1037 C1036 1.392 . S
C1037 H1049 0.929 . S
C1038 C1034 1.531 . S
C1038 H1050 0.960 . S
C1038 H1051 0.962 . S
C1038 H1052 0.960 . S
C1039 C1036 1.511 . S
C1039 H1053 0.961 . S
C1039 H1054 0.961 . S
C1039 H1055 0.961 . S
C1040 C1041 1.370 . S
C1040 C1042 1.363 . S
C1040 H1056 0.931 . S
C1041 C1040 1.370 . S
C1041 C1045 1.408 . S
C1042 C1040 1.363 . S
C1042 C1043 1.370 . S
C1042 C1046 1.524 . S
C1043 C1035 1.503 . S
C1043 C1042 1.370 . S
C1043 C1044 1.403 . S
C1044 C1043 1.403 . S
C1044 C1045 1.404 . S
C1044 C1047 1.539 . S
C1045 C1041 1.408 . S
C1045 C1044 1.404 . S
C1045 H1057 0.930 . S
C1046 C1042 1.524 . S
C1046 H1058 0.956 . S
C1046 H1059 0.961 . S
C1046 H1060 0.961 . S
C1047 C1044 1.539 . S
C1047 H1061 0.958 . S
C1047 H1062 0.961 . S
C1047 H1063 0.960 . S
H1048 C1032 0.931 . S
H1049 C1037 0.929 . S
H1050 C1038 0.960 . S
H1051 C1038 0.962 . S
H1052 C1038 0.960 . S
H1053 C1039 0.961 . S
H1054 C1039 0.961 . S
H1055 C1039 0.961 . S
H1056 C1040 0.931 . S
H1057 C1045 0.930 . S
H1058 C1046 0.956 . S
H1059 C1046 0.961 . S
H1060 C1046 0.961 . S
H1061 C1047 0.958 . S
H1062 C1047 0.961 . S
H1063 C1047 0.960 . S
C1064 C1065 1.391 . S
C1064 C1066 1.394 . S
C1064 H1080 0.931 . S
C1065 C1064 1.391 . S
C1065 C1069 1.376 . S
C1066 C1064 1.394 . S
C1066 C1067 1.369 . S
C1066 C1070 1.531 . S
C1067 C1066 1.369 . S
C1067 C1068 1.410 . S
C1067 C1075 1.503 . S
C1068 C1067 1.410 . S
C1068 C1069 1.392 . S
C1068 C1071 1.511 . S
C1069 C1065 1.376 . S
C1069 C1068 1.392 . S
C1069 H1081 0.929 . S
C1070 C1066 1.531 . S
C1070 H1082 0.960 . S
C1070 H1083 0.962 . S
C1070 H1084 0.960 . S
C1071 C1068 1.511 . S
C1071 H1085 0.961 . S
C1071 H1086 0.961 . S
C1071 H1087 0.961 . S
C1072 C1073 1.370 . S
C1072 C1074 1.363 . S
C1072 H1088 0.931 . S
C1073 C1072 1.370 . S
C1073 C1077 1.408 . S
C1074 C1072 1.363 . S
C1074 C1075 1.370 . S
C1074 C1078 1.524 . S
C1075 C1067 1.503 . S
C1075 C1074 1.370 . S
C1075 C1076 1.403 . S
C1076 C1075 1.403 . S
C1076 C1077 1.404 . S
C1076 C1079 1.539 . S
C1077 C1073 1.408 . S
C1077 C1076 1.404 . S
C1077 H1089 0.930 . S
C1078 C1074 1.524 . S
C1078 H1090 0.956 . S
C1078 H1091 0.961 . S
C1078 H1092 0.961 . S
C1079 C1076 1.539 . S
C1079 H1093 0.958 . S
C1079 H1094 0.961 . S
C1079 H1095 0.960 . S
H1080 C1064 0.931 . S
H1081 C1069 0.929 . S
H1082 C1070 0.960 . S
H1083 C1070 0.962 . S
H1084 C1070 0.960 . S
H1085 C1071 0.961 . S
H1086 C1071 0.961 . S
H1087 C1071 0.961 . S
H1088 C1072 0.931 . S
H1089 C1077 0.930 . S
H1090 C1078 0.956 . S
H1091 C1078 0.961 . S
H1092 C1078 0.961 . S
H1093 C1079 0.958 . S
H1094 C1079 0.961 . S
H1095 C1079 0.960 . S
C1096 C1097 1.391 . S
C1096 C1098 1.394 . S
C1096 H1112 0.931 . S
C1097 C1096 1.391 . S
C1097 C1101 1.376 . S
C1098 C1096 1.394 . S
C1098 C1099 1.369 . S
C1098 C1102 1.531 . S
C1099 C1098 1.369 . S
C1099 C1100 1.410 . S
C1099 C1107 1.503 . S
C1100 C1099 1.410 . S
C1100 C1101 1.392 . S
C1100 C1103 1.511 . S
C1101 C1097 1.376 . S
C1101 C1100 1.392 . S
C1101 H1113 0.929 . S
C1102 C1098 1.531 . S
C1102 H1114 0.960 . S
C1102 H1115 0.962 . S
C1102 H1116 0.960 . S
C1103 C1100 1.511 . S
C1103 H1117 0.961 . S
C1103 H1118 0.961 . S
C1103 H1119 0.961 . S
C1104 C1105 1.370 . S
C1104 C1106 1.363 . S
C1104 H1120 0.931 . S
C1105 C1104 1.370 . S
C1105 C1109 1.408 . S
C1106 C1104 1.363 . S
C1106 C1107 1.370 . S
C1106 C1110 1.524 . S
C1107 C1099 1.503 . S
C1107 C1106 1.370 . S
C1107 C1108 1.403 . S
C1108 C1107 1.403 . S
C1108 C1109 1.404 . S
C1108 C1111 1.539 . S
C1109 C1105 1.408 . S
C1109 C1108 1.404 . S
C1109 H1121 0.930 . S
C1110 C1106 1.524 . S
C1110 H1122 0.956 . S
C1110 H1123 0.961 . S
C1110 H1124 0.961 . S
C1111 C1108 1.539 . S
C1111 H1125 0.958 . S
C1111 H1126 0.961 . S
C1111 H1127 0.960 . S
H1112 C1096 0.931 . S
H1113 C1101 0.929 . S
H1114 C1102 0.960 . S
H1115 C1102 0.962 . S
H1116 C1102 0.960 . S
H1117 C1103 0.961 . S
H1118 C1103 0.961 . S
H1119 C1103 0.961 . S
H1120 C1104 0.931 . S
H1121 C1109 0.930 . S
H1122 C1110 0.956 . S
H1123 C1110 0.961 . S
H1124 C1110 0.961 . S
H1125 C1111 0.958 . S
H1126 C1111 0.961 . S
H1127 C1111 0.960 . S
C1128 C1129 1.391 . S
C1128 C1130 1.394 . S
C1128 H1144 0.931 . S
C1129 C1128 1.391 . S
C1129 C1133 1.376 1_455 S
C1130 C1128 1.394 . S
C1130 C1131 1.369 . S
C1130 C1134 1.531 . S
C1131 C1130 1.369 . S
C1131 C1132 1.410 1_455 S
C1131 C1139 1.503 . S
C1132 C1131 1.410 1_655 S
C1132 C1133 1.392 . S
C1132 C1135 1.511 . S
C1133 C1129 1.376 1_655 S
C1133 C1132 1.392 . S
C1133 H1145 0.929 . S
C1134 C1130 1.531 . S
C1134 H1146 0.960 . S
C1134 H1147 0.962 . S
C1134 H1148 0.960 . S
C1135 C1132 1.511 . S
C1135 H1149 0.961 . S
C1135 H1150 0.961 . S
C1135 H1151 0.961 . S
C1136 C1137 1.370 . S
C1136 C1138 1.363 . S
C1136 H1152 0.931 . S
C1137 C1136 1.370 . S
C1137 C1141 1.408 1_655 S
C1138 C1136 1.363 . S
C1138 C1139 1.370 1_655 S
C1138 C1142 1.524 . S
C1139 C1131 1.503 . S
C1139 C1138 1.370 1_455 S
C1139 C1140 1.403 . S
C1140 C1139 1.403 . S
C1140 C1141 1.404 . S
C1140 C1143 1.539 . S
C1141 C1137 1.408 1_455 S
C1141 C1140 1.404 . S
C1141 H1153 0.930 . S
C1142 C1138 1.524 . S
C1142 H1154 0.956 . S
C1142 H1155 0.961 . S
C1142 H1156 0.961 . S
C1143 C1140 1.539 . S
C1143 H1157 0.958 . S
C1143 H1158 0.961 . S
C1143 H1159 0.960 . S
H1144 C1128 0.931 . S
H1145 C1133 0.929 . S
H1146 C1134 0.960 . S
H1147 C1134 0.962 . S
H1148 C1134 0.960 . S
H1149 C1135 0.961 . S
H1150 C1135 0.961 . S
H1151 C1135 0.961 . S
H1152 C1136 0.931 . S
H1153 C1141 0.930 . S
H1154 C1142 0.956 . S
H1155 C1142 0.961 . S
H1156 C1142 0.961 . S
H1157 C1143 0.958 . S
H1158 C1143 0.961 . S
H1159 C1143 0.960 . S
C1160 C1161 1.391 . S
C1160 C1162 1.394 . S
C1160 H1176 0.931 . S
C1161 C1160 1.391 . S
C1161 C1165 1.376 . S
C1162 C1160 1.394 . S
C1162 C1163 1.369 . S
C1162 C1166 1.531 . S
C1163 C1162 1.369 . S
C1163 C1164 1.410 . S
C1163 C1171 1.503 . S
C1164 C1163 1.410 . S
C1164 C1165 1.392 . S
C1164 C1167 1.511 . S
C1165 C1161 1.376 . S
C1165 C1164 1.392 . S
C1165 H1177 0.929 . S
C1166 C1162 1.531 . S
C1166 H1178 0.960 . S
C1166 H1179 0.962 . S
C1166 H1180 0.960 . S
C1167 C1164 1.511 . S
C1167 H1181 0.961 . S
C1167 H1182 0.961 . S
C1167 H1183 0.961 . S
C1168 C1169 1.370 . S
C1168 C1170 1.363 . S
C1168 H1184 0.931 . S
C1169 C1168 1.370 . S
C1169 C1173 1.408 . S
C1170 C1168 1.363 . S
C1170 C1171 1.370 . S
C1170 C1174 1.524 . S
C1171 C1163 1.503 . S
C1171 C1170 1.370 . S
C1171 C1172 1.403 . S
C1172 C1171 1.403 . S
C1172 C1173 1.404 . S
C1172 C1175 1.539 . S
C1173 C1169 1.408 . S
C1173 C1172 1.404 . S
C1173 H1185 0.930 . S
C1174 C1170 1.524 . S
C1174 H1186 0.956 . S
C1174 H1187 0.961 . S
C1174 H1188 0.961 . S
C1175 C1172 1.539 . S
C1175 H1189 0.958 . S
C1175 H1190 0.961 . S
C1175 H1191 0.960 . S
H1176 C1160 0.931 . S
H1177 C1165 0.929 . S
H1178 C1166 0.960 . S
H1179 C1166 0.962 . S
H1180 C1166 0.960 . S
H1181 C1167 0.961 . S
H1182 C1167 0.961 . S
H1183 C1167 0.961 . S
H1184 C1168 0.931 . S
H1185 C1173 0.930 . S
H1186 C1174 0.956 . S
H1187 C1174 0.961 . S
H1188 C1174 0.961 . S
H1189 C1175 0.958 . S
H1190 C1175 0.961 . S
H1191 C1175 0.960 . S
C1192 C1193 1.391 . S
C1192 C1194 1.394 . S
C1192 H1208 0.931 . S
C1193 C1192 1.391 . S
C1193 C1197 1.374 . S
C1194 C1192 1.394 . S
C1194 C1195 1.369 1_545 S
C1194 C1198 1.531 . S
C1195 C1194 1.369 1_565 S
C1195 C1196 1.410 . S
C1195 C1203 1.503 . S
C1196 C1195 1.410 . S
C1196 C1197 1.394 1_565 S
C1196 C1199 1.511 . S
C1197 C1193 1.374 . S
C1197 C1196 1.394 1_545 S
C1197 H1209 0.930 1_545 S
C1198 C1194 1.531 . S
C1198 H1210 0.960 1_545 S
C1198 H1211 0.962 . S
C1198 H1212 0.960 1_545 S
C1199 C1196 1.511 . S
C1199 H1213 0.961 . S
C1199 H1214 0.961 . S
C1199 H1215 0.961 . S
C1200 C1201 1.370 1_545 S
C1200 C1202 1.363 . S
C1200 H1216 0.931 . S
C1201 C1200 1.370 1_565 S
C1201 C1205 1.408 . S
C1202 C1200 1.363 . S
C1202 C1203 1.370 1_545 S
C1202 C1206 1.524 . S
C1203 C1195 1.503 . S
C1203 C1202 1.370 1_565 S
C1203 C1204 1.403 . S
C1204 C1203 1.403 . S
C1204 C1205 1.404 . S
C1204 C1207 1.539 . S
C1205 C1201 1.408 . S
C1205 C1204 1.404 . S
C1205 H1217 0.930 . S
C1206 C1202 1.524 . S
C1206 H1218 0.956 . S
C1206 H1219 0.961 . S
C1206 H1220 0.961 . S
C1207 C1204 1.539 . S
C1207 H1221 0.958 . S
C1207 H1222 0.961 . S
C1207 H1223 0.960 . S
H1208 C1192 0.931 . S
H1209 C1197 0.930 1_565 S
H1210 C1198 0.960 1_565 S
H1211 C1198 0.962 . S
H1212 C1198 0.960 1_565 S
H1213 C1199 0.961 . S
H1214 C1199 0.961 . S
H1215 C1199 0.961 . S
H1216 C1200 0.931 . S
H1217 C1205 0.930 . S
H1218 C1206 0.956 . S
H1219 C1206 0.961 . S
H1220 C1206 0.961 . S
H1221 C1207 0.958 . S
H1222 C1207 0.961 . S
H1223 C1207 0.960 . S
C1224 C1225 1.391 . S
C1224 C1226 1.394 . S
C1224 H1240 0.931 . S
C1225 C1224 1.391 . S
C1225 C1229 1.376 . S
C1226 C1224 1.394 . S
C1226 C1227 1.369 . S
C1226 C1230 1.531 1_554 S
C1227 C1226 1.369 . S
C1227 C1228 1.410 . S
C1227 C1235 1.503 1_554 S
C1228 C1227 1.410 . S
C1228 C1229 1.392 . S
C1228 C1231 1.511 . S
C1229 C1225 1.376 . S
C1229 C1228 1.392 . S
C1229 H1241 0.929 . S
C1230 C1226 1.531 1_556 S
C1230 H1242 0.960 . S
C1230 H1243 0.962 1_556 S
C1230 H1244 0.960 . S
C1231 C1228 1.511 . S
C1231 H1245 0.961 . S
C1231 H1246 0.961 . S
C1231 H1247 0.941 1_554 S
C1232 C1233 1.370 1_554 S
C1232 C1234 1.363 . S
C1232 H1248 0.931 . S
C1233 C1232 1.370 1_556 S
C1233 C1237 1.408 . S
C1234 C1232 1.363 . S
C1234 C1235 1.370 1_554 S
C1234 C1238 1.524 . S
C1235 C1227 1.503 1_556 S
C1235 C1234 1.370 1_556 S
C1235 C1236 1.403 . S
C1236 C1235 1.403 . S
C1236 C1237 1.404 . S
C1236 C1239 1.539 . S
C1237 C1233 1.408 . S
C1237 C1236 1.404 . S
C1237 H1249 0.930 . S
C1238 C1234 1.524 . S
C1238 H1250 0.956 . S
C1238 H1251 0.961 . S
C1238 H1252 0.961 . S
C1239 C1236 1.539 . S
C1239 H1253 0.958 . S
C1239 H1254 0.961 . S
C1239 H1255 0.960 . S
H1240 C1224 0.931 . S
H1241 C1229 0.929 . S
H1242 C1230 0.960 . S
H1243 C1230 0.962 1_554 S
H1244 C1230 0.960 . S
H1245 C1231 0.961 . S
H1246 C1231 0.961 . S
H1247 C1231 0.941 1_556 S
H1248 C1232 0.931 . S
H1249 C1237 0.930 . S
H1250 C1238 0.956 . S
H1251 C1238 0.961 . S
H1252 C1238 0.961 . S
H1253 C1239 0.958 . S
H1254 C1239 0.961 . S
H1255 C1239 0.960 . S
C1256 C1257 1.391 . S
C1256 C1258 1.394 1_554 S
C1256 H1272 0.914 1_554 S
C1257 C1256 1.391 . S
C1257 C1261 1.376 . S
C1258 C1256 1.394 1_556 S
C1258 C1259 1.369 1_556 S
C1258 C1262 1.531 . S
C1259 C1258 1.369 1_554 S
C1259 C1260 1.410 . S
C1259 C1267 1.503 1_554 S
C1260 C1259 1.410 . S
C1260 C1261 1.392 . S
C1260 C1263 1.511 . S
C1261 C1257 1.376 . S
C1261 C1260 1.392 . S
C1261 H1273 0.929 . S
C1262 C1258 1.531 . S
C1262 H1274 0.960 . S
C1262 H1275 0.962 . S
C1262 H1276 0.960 . S
C1263 C1260 1.511 . S
C1263 H1277 0.961 . S
C1263 H1278 0.961 . S
C1263 H1279 0.961 . S
C1264 C1265 1.370 . S
C1264 C1266 1.363 . S
C1264 H1280 0.931 . S
C1265 C1264 1.370 . S
C1265 C1269 1.408 . S
C1266 C1264 1.363 . S
C1266 C1267 1.370 . S
C1266 C1270 1.524 . S
C1267 C1259 1.503 1_556 S
C1267 C1266 1.370 . S
C1267 C1268 1.403 . S
C1268 C1267 1.403 . S
C1268 C1269 1.404 . S
C1268 C1271 1.539 1_556 S
C1269 C1265 1.408 . S
C1269 C1268 1.404 . S
C1269 H1281 0.930 . S
C1270 C1266 1.524 . S
C1270 H1282 0.956 . S
C1270 H1283 0.961 1_556 S
C1270 H1284 0.961 . S
C1271 C1268 1.539 1_554 S
C1271 H1285 0.958 1_554 S
C1271 H1286 0.961 . S
C1271 H1287 0.960 . S
H1272 C1256 0.914 1_556 S
H1273 C1261 0.929 . S
H1274 C1262 0.960 . S
H1275 C1262 0.962 . S
H1276 C1262 0.960 . S
H1277 C1263 0.961 . S
H1278 C1263 0.961 . S
H1279 C1263 0.961 . S
H1280 C1264 0.931 . S
H1281 C1269 0.930 . S
H1282 C1270 0.956 . S
H1283 C1270 0.961 1_554 S
H1284 C1270 0.961 . S
H1285 C1271 0.958 1_556 S
H1286 C1271 0.961 . S
H1287 C1271 0.960 . S
C1288 C1289 1.391 . S
C1288 C1290 1.394 . S
C1288 H1304 0.931 . S
C1289 C1288 1.391 . S
C1289 C1293 1.376 . S
C1290 C1288 1.394 . S
C1290 C1291 1.369 . S
C1290 C1294 1.531 1_554 S
C1291 C1290 1.369 . S
C1291 C1292 1.410 . S
C1291 C1299 1.503 1_554 S
C1292 C1291 1.410 . S
C1292 C1293 1.392 . S
C1292 C1295 1.511 . S
C1293 C1289 1.376 . S
C1293 C1292 1.392 . S
C1293 H1305 0.929 . S
C1294 C1290 1.531 1_556 S
C1294 H1306 0.960 . S
C1294 H1307 0.962 1_556 S
C1294 H1308 0.960 . S
C1295 C1292 1.511 . S
C1295 H1309 0.961 . S
C1295 H1310 0.961 . S
C1295 H1311 0.961 1_554 S
C1296 C1297 1.370 . S
C1296 C1298 1.363 1_556 S
C1296 H1312 0.931 1_556 S
C1297 C1296 1.370 . S
C1297 C1301 1.408 . S
C1298 C1296 1.363 1_554 S
C1298 C1299 1.370 1_554 S
C1298 C1302 1.524 . S
C1299 C1291 1.503 1_556 S
C1299 C1298 1.370 1_556 S
C1299 C1300 1.403 . S
C1300 C1299 1.403 . S
C1300 C1301 1.404 . S
C1300 C1303 1.539 . S
C1301 C1297 1.408 . S
C1301 C1300 1.404 . S
C1301 H1313 0.930 . S
C1302 C1298 1.524 . S
C1302 H1314 0.956 . S
C1302 H1315 0.961 . S
C1302 H1316 0.961 . S
C1303 C1300 1.539 . S
C1303 H1317 0.958 . S
C1303 H1318 0.961 . S
C1303 H1319 0.960 . S
H1304 C1288 0.931 . S
H1305 C1293 0.929 . S
H1306 C1294 0.960 . S
H1307 C1294 0.962 1_554 S
H1308 C1294 0.960 . S
H1309 C1295 0.961 . S
H1310 C1295 0.961 . S
H1311 C1295 0.961 1_556 S
H1312 C1296 0.931 1_554 S
H1313 C1301 0.930 . S
H1314 C1302 0.956 . S
H1315 C1302 0.961 . S
H1316 C1302 0.961 . S
H1317 C1303 0.958 . S
H1318 C1303 0.961 . S
H1319 C1303 0.960 . S
C1320 C1321 1.391 . S
C1320 C1322 1.394 . S
C1320 H1336 0.931 . S
C1321 C1320 1.391 . S
C1321 C1325 1.376 . S
C1322 C1320 1.394 . S
C1322 C1323 1.369 . S
C1322 C1326 1.531 1_556 S
C1323 C1322 1.369 . S
C1323 C1324 1.410 . S
C1323 C1331 1.489 1_556 S
C1324 C1323 1.410 . S
C1324 C1325 1.392 . S
C1324 C1327 1.511 . S
C1325 C1321 1.376 . S
C1325 C1324 1.392 . S
C1325 H1337 0.929 . S
C1326 C1322 1.531 1_554 S
C1326 H1338 0.960 . S
C1326 H1339 0.962 . S
C1326 H1340 0.962 . S
C1327 C1324 1.511 . S
C1327 H1341 0.961 . S
C1327 H1342 0.961 . S
C1327 H1343 0.961 . S
C1328 C1329 1.370 . S
C1328 C1330 1.363 . S
C1328 H1344 0.931 . S
C1329 C1328 1.370 . S
C1329 C1333 1.408 . S
C1330 C1328 1.363 . S
C1330 C1331 1.395 . S
C1330 C1334 1.524 . S
C1331 C1323 1.489 1_554 S
C1331 C1330 1.395 . S
C1331 C1332 1.393 1_554 S
C1332 C1331 1.393 1_556 S
C1332 C1333 1.404 1_556 S
C1332 C1335 1.539 . S
C1333 C1329 1.408 . S
C1333 C1332 1.404 1_554 S
C1333 H1345 0.930 1_554 S
C1334 C1330 1.524 . S
C1334 H1346 0.956 . S
C1334 H1347 0.961 . S
C1334 H1348 0.961 . S
C1335 C1332 1.539 . S
C1335 H1349 0.958 . S
C1335 H1350 0.961 . S
C1335 H1351 0.960 . S
H1336 C1320 0.931 . S
H1337 C1325 0.929 . S
H1338 C1326 0.960 . S
H1339 C1326 0.962 . S
H1340 C1326 0.962 . S
H1341 C1327 0.961 . S
H1342 C1327 0.961 . S
H1343 C1327 0.961 . S
H1344 C1328 0.931 . S
H1345 C1333 0.930 1_556 S
H1346 C1334 0.956 . S
H1347 C1334 0.961 . S
H1348 C1334 0.961 . S
H1349 C1335 0.958 . S
H1350 C1335 0.961 . S
H1351 C1335 0.960 . S
C1352 C1353 1.391 . S
C1352 C1354 1.394 . S
C1352 H1368 0.931 . S
C1353 C1352 1.391 . S
C1353 C1357 1.376 . S
C1354 C1352 1.394 . S
C1354 C1355 1.369 . S
C1354 C1358 1.531 . S
C1355 C1354 1.369 . S
C1355 C1356 1.410 1_554 S
C1355 C1363 1.503 1_554 S
C1356 C1355 1.410 1_556 S
C1356 C1357 1.392 1_556 S
C1356 C1359 1.511 . S
C1357 C1353 1.376 . S
C1357 C1356 1.392 1_554 S
C1357 H1369 0.929 1_554 S
C1358 C1354 1.531 . S
C1358 H1370 0.960 . S
C1358 H1371 0.962 . S
C1358 H1372 0.960 . S
C1359 C1356 1.511 . S
C1359 H1373 0.961 . S
C1359 H1374 0.961 . S
C1359 H1375 0.961 . S
C1360 C1361 1.370 . S
C1360 C1362 1.363 . S
C1360 H1376 0.931 . S
C1361 C1360 1.370 . S
C1361 C1365 1.408 . S
C1362 C1360 1.363 . S
C1362 C1363 1.370 . S
C1362 C1366 1.524 . S
C1363 C1355 1.503 1_556 S
C1363 C1362 1.370 . S
C1363 C1364 1.403 . S
C1364 C1363 1.403 . S
C1364 C1365 1.404 . S
C1364 C1367 1.539 1_556 S
C1365 C1361 1.408 . S
C1365 C1364 1.404 . S
C1365 H1377 0.930 . S
C1366 C1362 1.524 . S
C1366 H1378 0.956 . S
C1366 H1379 0.961 . S
C1366 H1380 0.961 . S
C1367 C1364 1.539 1_554 S
C1367 H1381 0.958 . S
C1367 H1382 0.948 1_554 S
C1367 H1383 0.960 . S
H1368 C1352 0.931 . S
H1369 C1357 0.929 1_556 S
H1370 C1358 0.960 . S
H1371 C1358 0.962 . S
H1372 C1358 0.960 . S
H1373 C1359 0.961 . S
H1374 C1359 0.961 . S
H1375 C1359 0.961 . S
H1376 C1360 0.931 . S
H1377 C1365 0.930 . S
H1378 C1366 0.956 . S
H1379 C1366 0.961 . S
H1380 C1366 0.961 . S
H1381 C1367 0.958 . S
H1382 C1367 0.948 1_556 S
H1383 C1367 0.960 . S
C1384 C1385 1.391 . S
C1384 C1386 1.394 . S
C1384 H1400 0.931 . S
C1385 C1384 1.391 . S
C1385 C1389 1.376 . S
C1386 C1384 1.394 . S
C1386 C1387 1.369 . S
C1386 C1390 1.531 . S
C1387 C1386 1.369 . S
C1387 C1388 1.410 . S
C1387 C1395 1.503 1_556 S
C1388 C1387 1.410 . S
C1388 C1389 1.392 . S
C1388 C1391 1.511 . S
C1389 C1385 1.376 . S
C1389 C1388 1.392 . S
C1389 H1401 0.929 . S
C1390 C1386 1.531 . S
C1390 H1402 0.960 1_556 S
C1390 H1403 0.962 . S
C1390 H1404 0.962 . S
C1391 C1388 1.511 . S
C1391 H1405 0.961 . S
C1391 H1406 0.961 . S
C1391 H1407 0.961 1_556 S
C1392 C1393 1.370 . S
C1392 C1394 1.363 1_554 S
C1392 H1408 0.931 1_554 S
C1393 C1392 1.370 . S
C1393 C1397 1.408 . S
C1394 C1392 1.363 1_556 S
C1394 C1395 1.370 1_556 S
C1394 C1398 1.524 . S
C1395 C1387 1.503 1_554 S
C1395 C1394 1.370 1_554 S
C1395 C1396 1.403 . S
C1396 C1395 1.403 . S
C1396 C1397 1.404 . S
C1396 C1399 1.539 . S
C1397 C1393 1.408 . S
C1397 C1396 1.404 . S
C1397 H1409 0.930 . S
C1398 C1394 1.524 . S
C1398 H1410 0.956 . S
C1398 H1411 0.961 . S
C1398 H1412 0.961 . S
C1399 C1396 1.539 . S
C1399 H1413 0.958 . S
C1399 H1414 0.961 . S
C1399 H1415 0.960 . S
H1400 C1384 0.931 . S
H1401 C1389 0.929 . S
H1402 C1390 0.960 1_554 S
H1403 C1390 0.962 . S
H1404 C1390 0.962 . S
H1405 C1391 0.961 . S
H1406 C1391 0.961 . S
H1407 C1391 0.961 1_554 S
H1408 C1392 0.931 1_556 S
H1409 C1397 0.930 . S
H1410 C1398 0.956 . S
H1411 C1398 0.961 . S
H1412 C1398 0.961 . S
H1413 C1399 0.958 . S
H1414 C1399 0.961 . S
H1415 C1399 0.960 . S
C1416 C1417 1.391 . S
C1416 C1418 1.394 . S
C1416 H1432 0.931 . S
C1417 C1416 1.391 . S
C1417 C1421 1.376 . S
C1418 C1416 1.394 . S
C1418 C1419 1.369 . S
C1418 C1422 1.531 . S
C1419 C1418 1.369 . S
C1419 C1420 1.410 . S
C1419 C1427 1.503 . S
C1420 C1419 1.410 . S
C1420 C1421 1.392 . S
C1420 C1423 1.511 . S
C1421 C1417 1.376 . S
C1421 C1420 1.392 . S
C1421 H1433 0.929 . S
C1422 C1418 1.531 . S
C1422 H1434 0.960 . S
C1422 H1435 0.962 . S
C1422 H1436 0.960 . S
C1423 C1420 1.511 . S
C1423 H1437 0.961 . S
C1423 H1438 0.961 . S
C1423 H1439 0.961 . S
C1424 C1425 1.370 . S
C1424 C1426 1.363 . S
C1424 H1440 0.931 . S
C1425 C1424 1.370 . S
C1425 C1429 1.408 . S
C1426 C1424 1.363 . S
C1426 C1427 1.370 . S
C1426 C1430 1.524 . S
C1427 C1419 1.503 . S
C1427 C1426 1.370 . S
C1427 C1428 1.403 . S
C1428 C1427 1.403 . S
C1428 C1429 1.404 . S
C1428 C1431 1.539 . S
C1429 C1425 1.408 . S
C1429 C1428 1.404 . S
C1429 H1441 0.930 . S
C1430 C1426 1.524 . S
C1430 H1442 0.956 . S
C1430 H1443 0.961 . S
C1430 H1444 0.961 . S
C1431 C1428 1.539 . S
C1431 H1445 0.958 . S
C1431 H1446 0.961 . S
C1431 H1447 0.960 . S
H1432 C1416 0.931 . S
H1433 C1421 0.929 . S
H1434 C1422 0.960 . S
H1435 C1422 0.962 . S
H1436 C1422 0.960 . S
H1437 C1423 0.961 . S
H1438 C1423 0.961 . S
H1439 C1423 0.961 . S
H1440 C1424 0.931 . S
H1441 C1429 0.930 . S
H1442 C1430 0.956 . S
H1443 C1430 0.961 . S
H1444 C1430 0.961 . S
H1445 C1431 0.958 . S
H1446 C1431 0.961 . S
H1447 C1431 0.960 . S
C1448 C1449 1.391 . S
C1448 C1450 1.394 . S
C1448 H1464 0.931 . S
C1449 C1448 1.391 . S
C1449 C1453 1.376 . S
C1450 C1448 1.394 . S
C1450 C1451 1.369 . S
C1450 C1454 1.531 . S
C1451 C1450 1.369 . S
C1451 C1452 1.410 . S
C1451 C1459 1.503 . S
C1452 C1451 1.410 . S
C1452 C1453 1.392 . S
C1452 C1455 1.511 . S
C1453 C1449 1.376 . S
C1453 C1452 1.392 . S
C1453 H1465 0.929 . S
C1454 C1450 1.531 . S
C1454 H1466 0.960 . S
C1454 H1467 0.962 . S
C1454 H1468 0.960 . S
C1455 C1452 1.511 . S
C1455 H1469 0.961 . S
C1455 H1470 0.961 . S
C1455 H1471 0.961 . S
C1456 C1457 1.370 . S
C1456 C1458 1.363 . S
C1456 H1472 0.931 . S
C1457 C1456 1.370 . S
C1457 C1461 1.408 . S
C1458 C1456 1.363 . S
C1458 C1459 1.370 . S
C1458 C1462 1.524 . S
C1459 C1451 1.503 . S
C1459 C1458 1.370 . S
C1459 C1460 1.403 . S
C1460 C1459 1.403 . S
C1460 C1461 1.404 . S
C1460 C1463 1.539 . S
C1461 C1457 1.408 . S
C1461 C1460 1.404 . S
C1461 H1473 0.930 . S
C1462 C1458 1.524 . S
C1462 H1474 0.956 . S
C1462 H1475 0.961 . S
C1462 H1476 0.961 . S
C1463 C1460 1.539 . S
C1463 H1477 0.958 . S
C1463 H1478 0.961 . S
C1463 H1479 0.960 . S
H1464 C1448 0.931 . S
H1465 C1453 0.929 . S
H1466 C1454 0.960 . S
H1467 C1454 0.962 . S
H1468 C1454 0.960 . S
H1469 C1455 0.961 . S
H1470 C1455 0.961 . S
H1471 C1455 0.961 . S
H1472 C1456 0.931 . S
H1473 C1461 0.930 . S
H1474 C1462 0.956 . S
H1475 C1462 0.961 . S
H1476 C1462 0.961 . S
H1477 C1463 0.958 . S
H1478 C1463 0.961 . S
H1479 C1463 0.960 . S
C1480 C1481 1.391 . S
C1480 C1482 1.394 . S
C1480 H1496 0.931 . S
C1481 C1480 1.391 . S
C1481 C1485 1.376 . S
C1482 C1480 1.394 . S
C1482 C1483 1.369 . S
C1482 C1486 1.531 . S
C1483 C1482 1.369 . S
C1483 C1484 1.410 . S
C1483 C1491 1.503 . S
C1484 C1483 1.410 . S
C1484 C1485 1.392 . S
C1484 C1487 1.511 . S
C1485 C1481 1.376 . S
C1485 C1484 1.392 . S
C1485 H1497 0.929 . S
C1486 C1482 1.531 . S
C1486 H1498 0.960 . S
C1486 H1499 0.962 . S
C1486 H1500 0.960 . S
C1487 C1484 1.511 . S
C1487 H1501 0.961 . S
C1487 H1502 0.961 . S
C1487 H1503 0.961 . S
C1488 C1489 1.370 . S
C1488 C1490 1.363 . S
C1488 H1504 0.931 . S
C1489 C1488 1.370 . S
C1489 C1493 1.408 . S
C1490 C1488 1.363 . S
C1490 C1491 1.370 . S
C1490 C1494 1.524 . S
C1491 C1483 1.503 . S
C1491 C1490 1.370 . S
C1491 C1492 1.403 . S
C1492 C1491 1.403 . S
C1492 C1493 1.404 . S
C1492 C1495 1.539 . S
C1493 C1489 1.408 . S
C1493 C1492 1.404 . S
C1493 H1505 0.930 . S
C1494 C1490 1.524 . S
C1494 H1506 0.956 . S
C1494 H1507 0.961 . S
C1494 H1508 0.961 . S
C1495 C1492 1.539 . S
C1495 H1509 0.958 . S
C1495 H1510 0.961 . S
C1495 H1511 0.960 . S
H1496 C1480 0.931 . S
H1497 C1485 0.929 . S
H1498 C1486 0.960 . S
H1499 C1486 0.962 . S
H1500 C1486 0.960 . S
H1501 C1487 0.961 . S
H1502 C1487 0.961 . S
H1503 C1487 0.961 . S
H1504 C1488 0.931 . S
H1505 C1493 0.930 . S
H1506 C1494 0.956 . S
H1507 C1494 0.961 . S
H1508 C1494 0.961 . S
H1509 C1495 0.958 . S
H1510 C1495 0.961 . S
H1511 C1495 0.960 . S
C1512 C1513 1.391 . S
C1512 C1514 1.394 . S
C1512 H1528 0.931 . S
C1513 C1512 1.391 . S
C1513 C1517 1.376 . S
C1514 C1512 1.394 . S
C1514 C1515 1.369 . S
C1514 C1518 1.531 . S
C1515 C1514 1.369 . S
C1515 C1516 1.410 . S
C1515 C1523 1.503 . S
C1516 C1515 1.410 . S
C1516 C1517 1.392 . S
C1516 C1519 1.511 . S
C1517 C1513 1.376 . S
C1517 C1516 1.392 . S
C1517 H1529 0.929 . S
C1518 C1514 1.531 . S
C1518 H1530 0.960 . S
C1518 H1531 0.962 . S
C1518 H1532 0.960 . S
C1519 C1516 1.511 . S
C1519 H1533 0.961 . S
C1519 H1534 0.961 . S
C1519 H1535 0.961 . S
C1520 C1521 1.370 . S
C1520 C1522 1.363 . S
C1520 H1536 0.931 . S
C1521 C1520 1.370 . S
C1521 C1525 1.408 . S
C1522 C1520 1.363 . S
C1522 C1523 1.370 . S
C1522 C1526 1.524 . S
C1523 C1515 1.503 . S
C1523 C1522 1.370 . S
C1523 C1524 1.403 . S
C1524 C1523 1.403 . S
C1524 C1525 1.404 . S
C1524 C1527 1.539 . S
C1525 C1521 1.408 . S
C1525 C1524 1.404 . S
C1525 H1537 0.930 . S
C1526 C1522 1.524 . S
C1526 H1538 0.956 . S
C1526 H1539 0.961 . S
C1526 H1540 0.961 . S
C1527 C1524 1.539 . S
C1527 H1541 0.958 . S
C1527 H1542 0.961 . S
C1527 H1543 0.960 . S
H1528 C1512 0.931 . S
H1529 C1517 0.929 . S
H1530 C1518 0.960 . S
H1531 C1518 0.962 . S
H1532 C1518 0.960 . S
H1533 C1519 0.961 . S
H1534 C1519 0.961 . S
H1535 C1519 0.961 . S
H1536 C1520 0.931 . S
H1537 C1525 0.930 . S
H1538 C1526 0.956 . S
H1539 C1526 0.961 . S
H1540 C1526 0.961 . S
H1541 C1527 0.958 . S
H1542 C1527 0.961 . S
H1543 C1527 0.960 . S
C1544 C1545 1.391 . S
C1544 C1546 1.394 . S
C1544 H1560 0.931 . S
C1545 C1544 1.391 . S
C1545 C1549 1.376 . S
C1546 C1544 1.394 . S
C1546 C1547 1.369 . S
C1546 C1550 1.531 1_545 S
C1547 C1546 1.369 . S
C1547 C1548 1.410 . S
C1547 C1555 1.503 . S
C1548 C1547 1.410 . S
C1548 C1549 1.392 . S
C1548 C1551 1.511 . S
C1549 C1545 1.376 . S
C1549 C1548 1.392 . S
C1549 H1561 0.929 . S
C1550 C1546 1.531 1_565 S
C1550 H1562 0.960 1_565 S
C1550 H1563 0.962 . S
C1550 H1564 0.957 . S
C1551 C1548 1.511 . S
C1551 H1565 0.961 . S
C1551 H1566 0.961 . S
C1551 H1567 0.961 . S
C1552 C1553 1.370 1_565 S
C1552 C1554 1.363 . S
C1552 H1568 0.931 . S
C1553 C1552 1.370 1_545 S
C1553 C1557 1.408 . S
C1554 C1552 1.363 . S
C1554 C1555 1.370 1_565 S
C1554 C1558 1.524 . S
C1555 C1547 1.503 . S
C1555 C1554 1.370 1_545 S
C1555 C1556 1.403 . S
C1556 C1555 1.403 . S
C1556 C1557 1.404 . S
C1556 C1559 1.539 . S
C1557 C1553 1.408 . S
C1557 C1556 1.404 . S
C1557 H1569 0.930 . S
C1558 C1554 1.524 . S
C1558 H1570 0.956 . S
C1558 H1571 0.961 . S
C1558 H1572 0.961 . S
C1559 C1556 1.539 . S
C1559 H1573 0.958 . S
C1559 H1574 0.961 . S
C1559 H1575 0.960 . S
H1560 C1544 0.931 . S
H1561 C1549 0.929 . S
H1562 C1550 0.960 1_545 S
H1563 C1550 0.962 . S
H1564 C1550 0.957 . S
H1565 C1551 0.961 . S
H1566 C1551 0.961 . S
H1567 C1551 0.961 . S
H1568 C1552 0.931 . S
H1569 C1557 0.930 . S
H1570 C1558 0.956 . S
H1571 C1558 0.961 . S
H1572 C1558 0.961 . S
H1573 C1559 0.958 . S
H1574 C1559 0.961 . S
H1575 C1559 0.960 . S
C1576 C1577 1.391 . S
C1576 C1578 1.394 . S
C1576 H1592 0.931 . S
C1577 C1576 1.391 . S
C1577 C1581 1.376 . S
C1578 C1576 1.394 . S
C1578 C1579 1.369 . S
C1578 C1582 1.531 . S
C1579 C1578 1.369 . S
C1579 C1580 1.410 . S
C1579 C1587 1.503 . S
C1580 C1579 1.410 . S
C1580 C1581 1.392 . S
C1580 C1583 1.511 . S
C1581 C1577 1.376 . S
C1581 C1580 1.392 . S
C1581 H1593 0.929 . S
C1582 C1578 1.531 . S
C1582 H1594 0.960 . S
C1582 H1595 0.962 1_655 S
C1582 H1596 0.960 . S
C1583 C1580 1.511 . S
C1583 H1597 0.961 . S
C1583 H1598 0.961 . S
C1583 H1599 0.961 . S
C1584 C1585 1.370 1_455 S
C1584 C1586 1.363 . S
C1584 H1600 0.931 . S
C1585 C1584 1.370 1_655 S
C1585 C1589 1.408 . S
C1586 C1584 1.363 . S
C1586 C1587 1.370 1_455 S
C1586 C1590 1.524 . S
C1587 C1579 1.503 . S
C1587 C1586 1.370 1_655 S
C1587 C1588 1.403 . S
C1588 C1587 1.403 . S
C1588 C1589 1.404 . S
C1588 C1591 1.539 . S
C1589 C1585 1.408 . S
C1589 C1588 1.404 . S
C1589 H1601 0.930 . S
C1590 C1586 1.524 . S
C1590 H1602 0.956 . S
C1590 H1603 0.961 . S
C1590 H1604 0.961 . S
C1591 C1588 1.539 . S
C1591 H1605 0.958 . S
C1591 H1606 0.961 . S
C1591 H1607 0.960 . S
H1592 C1576 0.931 . S
H1593 C1581 0.929 . S
H1594 C1582 0.960 . S
H1595 C1582 0.962 1_455 S
H1596 C1582 0.960 . S
H1597 C1583 0.961 . S
H1598 C1583 0.961 . S
H1599 C1583 0.961 . S
H1600 C1584 0.931 . S
H1601 C1589 0.930 . S
H1602 C1590 0.956 . S
H1603 C1590 0.961 . S
H1604 C1590 0.961 . S
H1605 C1591 0.958 . S
H1606 C1591 0.961 . S
H1607 C1591 0.960 . S
C1608 C1609 1.391 . S
C1608 C1610 1.394 . S
C1608 H1624 0.931 . S
C1609 C1608 1.391 . S
C1609 C1613 1.376 . S
C1610 C1608 1.394 . S
C1610 C1611 1.369 . S
C1610 C1614 1.531 . S
C1611 C1610 1.369 . S
C1611 C1612 1.410 . S
C1611 C1619 1.503 . S
C1612 C1611 1.410 . S
C1612 C1613 1.392 . S
C1612 C1615 1.511 . S
C1613 C1609 1.376 . S
C1613 C1612 1.392 . S
C1613 H1625 0.929 . S
C1614 C1610 1.531 . S
C1614 H1626 0.960 . S
C1614 H1627 0.962 . S
C1614 H1628 0.960 . S
C1615 C1612 1.511 . S
C1615 H1629 0.961 . S
C1615 H1630 0.961 . S
C1615 H1631 0.961 . S
C1616 C1617 1.370 . S
C1616 C1618 1.363 . S
C1616 H1632 0.931 . S
C1617 C1616 1.370 . S
C1617 C1621 1.408 . S
C1618 C1616 1.363 . S
C1618 C1619 1.370 . S
C1618 C1622 1.524 . S
C1619 C1611 1.503 . S
C1619 C1618 1.370 . S
C1619 C1620 1.403 . S
C1620 C1619 1.403 . S
C1620 C1621 1.404 . S
C1620 C1623 1.539 . S
C1621 C1617 1.408 . S
C1621 C1620 1.404 . S
C1621 H1633 0.930 . S
C1622 C1618 1.524 . S
C1622 H1634 0.956 . S
C1622 H1635 0.961 . S
C1622 H1636 0.961 . S
C1623 C1620 1.539 . S
C1623 H1637 0.958 . S
C1623 H1638 0.961 . S
C1623 H1639 0.960 . S
H1624 C1608 0.931 . S
H1625 C1613 0.929 . S
H1626 C1614 0.960 . S
H1627 C1614 0.962 . S
H1628 C1614 0.960 . S
H1629 C1615 0.961 . S
H1630 C1615 0.961 . S
H1631 C1615 0.961 . S
H1632 C1616 0.931 . S
H1633 C1621 0.930 . S
H1634 C1622 0.956 . S
H1635 C1622 0.961 . S
H1636 C1622 0.961 . S
H1637 C1623 0.958 . S
H1638 C1623 0.961 . S
H1639 C1623 0.960 . S
C1640 C1641 1.391 1_545 S
C1640 C1642 1.394 . S
C1640 H1656 0.931 . S
C1641 C1640 1.391 1_565 S
C1641 C1645 1.376 . S
C1642 C1640 1.394 . S
C1642 C1643 1.369 1_545 S
C1642 C1646 1.531 . S
C1643 C1642 1.369 1_565 S
C1643 C1644 1.410 . S
C1643 C1651 1.503 . S
C1644 C1643 1.410 . S
C1644 C1645 1.392 . S
C1644 C1647 1.511 . S
C1645 C1641 1.376 . S
C1645 C1644 1.392 . S
C1645 H1657 0.929 . S
C1646 C1642 1.531 . S
C1646 H1658 0.960 . S
C1646 H1659 0.962 . S
C1646 H1660 0.960 . S
C1647 C1644 1.511 . S
C1647 H1661 0.961 . S
C1647 H1662 0.961 . S
C1647 H1663 0.961 . S
C1648 C1649 1.370 . S
C1648 C1650 1.363 . S
C1648 H1664 0.931 . S
C1649 C1648 1.370 . S
C1649 C1653 1.408 . S
C1650 C1648 1.363 . S
C1650 C1651 1.370 . S
C1650 C1654 1.524 . S
C1651 C1643 1.503 . S
C1651 C1650 1.370 . S
C1651 C1652 1.403 . S
C1652 C1651 1.403 . S
C1652 C1653 1.404 . S
C1652 C1655 1.539 1_565 S
C1653 C1649 1.408 . S
C1653 C1652 1.404 . S
C1653 H1665 0.930 . S
C1654 C1650 1.524 . S
C1654 H1666 0.956 . S
C1654 H1667 0.961 . S
C1654 H1668 0.961 . S
C1655 C1652 1.539 1_545 S
C1655 H1669 0.958 . S
C1655 H1670 0.961 1_545 S
C1655 H1671 0.960 1_545 S
H1656 C1640 0.931 . S
H1657 C1645 0.929 . S
H1658 C1646 0.960 . S
H1659 C1646 0.962 . S
H1660 C1646 0.960 . S
H1661 C1647 0.961 . S
H1662 C1647 0.961 . S
H1663 C1647 0.961 . S
H1664 C1648 0.931 . S
H1665 C1653 0.930 . S
H1666 C1654 0.956 . S
H1667 C1654 0.961 . S
H1668 C1654 0.961 . S
H1669 C1655 0.958 . S
H1670 C1655 0.961 1_565 S
H1671 C1655 0.960 1_565 S
C1672 C1673 1.391 . S
C1672 C1674 1.394 . S
C1672 H1688 0.931 . S
C1673 C1672 1.391 . S
C1673 C1677 1.376 1_455 S
C1674 C1672 1.394 . S
C1674 C1675 1.369 . S
C1674 C1678 1.531 . S
C1675 C1674 1.369 . S
C1675 C1676 1.410 1_455 S
C1675 C1683 1.503 . S
C1676 C1675 1.410 1_655 S
C1676 C1677 1.392 . S
C1676 C1679 1.511 . S
C1677 C1673 1.376 1_655 S
C1677 C1676 1.392 . S
C1677 H1689 0.929 . S
C1678 C1674 1.531 . S
C1678 H1690 0.960 . S
C1678 H1691 0.962 . S
C1678 H1692 0.960 . S
C1679 C1676 1.511 . S
C1679 H1693 0.961 . S
C1679 H1694 0.961 . S
C1679 H1695 0.961 . S
C1680 C1681 1.370 . S
C1680 C1682 1.363 . S
C1680 H1696 0.931 . S
C1681 C1680 1.370 . S
C1681 C1685 1.408 . S
C1682 C1680 1.363 . S
C1682 C1683 1.370 . S
C1682 C1686 1.524 . S
C1683 C1675 1.503 . S
C1683 C1682 1.370 . S
C1683 C1684 1.403 . S
C1684 C1683 1.403 . S
C1684 C1685 1.404 . S
C1684 C1687 1.539 . S
C1685 C1681 1.408 . S
C1685 C1684 1.404 . S
C1685 H1697 0.930 . S
C1686 C1682 1.524 . S
C1686 H1698 0.956 . S
C1686 H1699 0.961 . S
C1686 H1700 0.961 . S
C1687 C1684 1.539 . S
C1687 H1701 0.958 . S
C1687 H1702 0.961 1_455 S
C1687 H1703 0.960 1_455 S
H1688 C1672 0.931 . S
H1689 C1677 0.929 . S
H1690 C1678 0.960 . S
H1691 C1678 0.962 . S
H1692 C1678 0.960 . S
H1693 C1679 0.961 . S
H1694 C1679 0.961 . S
H1695 C1679 0.961 . S
H1696 C1680 0.931 . S
H1697 C1685 0.930 . S
H1698 C1686 0.956 . S
H1699 C1686 0.961 . S
H1700 C1686 0.961 . S
H1701 C1687 0.958 . S
H1702 C1687 0.961 1_655 S
H1703 C1687 0.960 1_655 S
C1704 C1705 1.391 . S
C1704 C1706 1.394 . S
C1704 H1720 0.931 . S
C1705 C1704 1.391 . S
C1705 C1709 1.376 . S
C1706 C1704 1.394 . S
C1706 C1707 1.369 . S
C1706 C1710 1.531 . S
C1707 C1706 1.369 . S
C1707 C1708 1.410 . S
C1707 C1715 1.503 . S
C1708 C1707 1.410 . S
C1708 C1709 1.392 . S
C1708 C1711 1.511 . S
C1709 C1705 1.376 . S
C1709 C1708 1.392 . S
C1709 H1721 0.929 . S
C1710 C1706 1.531 . S
C1710 H1722 0.960 . S
C1710 H1723 0.962 . S
C1710 H1724 0.960 . S
C1711 C1708 1.511 . S
C1711 H1725 0.961 . S
C1711 H1726 0.961 . S
C1711 H1727 0.961 . S
C1712 C1713 1.370 . S
C1712 C1714 1.363 . S
C1712 H1728 0.931 . S
C1713 C1712 1.370 . S
C1713 C1717 1.408 . S
C1714 C1712 1.363 . S
C1714 C1715 1.370 . S
C1714 C1718 1.524 . S
C1715 C1707 1.503 . S
C1715 C1714 1.370 . S
C1715 C1716 1.403 . S
C1716 C1715 1.403 . S
C1716 C1717 1.404 . S
C1716 C1719 1.539 . S
C1717 C1713 1.408 . S
C1717 C1716 1.404 . S
C1717 H1729 0.930 . S
C1718 C1714 1.524 . S
C1718 H1730 0.956 . S
C1718 H1731 0.961 . S
C1718 H1732 0.961 . S
C1719 C1716 1.539 . S
C1719 H1733 0.958 . S
C1719 H1734 0.961 . S
C1719 H1735 0.960 . S
H1720 C1704 0.931 . S
H1721 C1709 0.929 . S
H1722 C1710 0.960 . S
H1723 C1710 0.962 . S
H1724 C1710 0.960 . S
H1725 C1711 0.961 . S
H1726 C1711 0.961 . S
H1727 C1711 0.961 . S
H1728 C1712 0.931 . S
H1729 C1717 0.930 . S
H1730 C1718 0.956 . S
H1731 C1718 0.961 . S
H1732 C1718 0.961 . S
H1733 C1719 0.958 . S
H1734 C1719 0.961 . S
H1735 C1719 0.960 . S
C1736 C1737 1.391 . S
C1736 C1738 1.394 . S
C1736 H1752 0.931 . S
C1737 C1736 1.391 . S
C1737 C1741 1.376 . S
C1738 C1736 1.394 . S
C1738 C1739 1.369 . S
C1738 C1742 1.531 . S
C1739 C1738 1.369 . S
C1739 C1740 1.410 . S
C1739 C1747 1.503 . S
C1740 C1739 1.410 . S
C1740 C1741 1.392 . S
C1740 C1743 1.511 . S
C1741 C1737 1.376 . S
C1741 C1740 1.392 . S
C1741 H1753 0.929 . S
C1742 C1738 1.531 . S
C1742 H1754 0.960 . S
C1742 H1755 0.962 . S
C1742 H1756 0.960 . S
C1743 C1740 1.511 . S
C1743 H1757 0.961 . S
C1743 H1758 0.961 . S
C1743 H1759 0.961 . S
C1744 C1745 1.370 . S
C1744 C1746 1.363 . S
C1744 H1760 0.931 . S
C1745 C1744 1.370 . S
C1745 C1749 1.408 . S
C1746 C1744 1.363 . S
C1746 C1747 1.370 . S
C1746 C1750 1.524 . S
C1747 C1739 1.503 . S
C1747 C1746 1.370 . S
C1747 C1748 1.403 . S
C1748 C1747 1.403 . S
C1748 C1749 1.404 . S
C1748 C1751 1.539 . S
C1749 C1745 1.408 . S
C1749 C1748 1.404 . S
C1749 H1761 0.930 . S
C1750 C1746 1.524 . S
C1750 H1762 0.956 . S
C1750 H1763 0.961 . S
C1750 H1764 0.961 . S
C1751 C1748 1.539 . S
C1751 H1765 0.958 . S
C1751 H1766 0.961 . S
C1751 H1767 0.960 . S
H1752 C1736 0.931 . S
H1753 C1741 0.929 . S
H1754 C1742 0.960 . S
H1755 C1742 0.962 . S
H1756 C1742 0.960 . S
H1757 C1743 0.961 . S
H1758 C1743 0.961 . S
H1759 C1743 0.961 . S
H1760 C1744 0.931 . S
H1761 C1749 0.930 . S
H1762 C1750 0.956 . S
H1763 C1750 0.961 . S
H1764 C1750 0.961 . S
H1765 C1751 0.958 . S
H1766 C1751 0.961 . S
H1767 C1751 0.960 . S
C1768 C1769 1.391 . S
C1768 C1770 1.394 . S
C1768 H1784 0.931 . S
C1769 C1768 1.391 . S
C1769 C1773 1.376 . S
C1770 C1768 1.394 . S
C1770 C1771 1.369 . S
C1770 C1774 1.531 . S
C1771 C1770 1.369 . S
C1771 C1772 1.410 . S
C1771 C1779 1.503 . S
C1772 C1771 1.410 . S
C1772 C1773 1.392 . S
C1772 C1775 1.511 . S
C1773 C1769 1.376 . S
C1773 C1772 1.392 . S
C1773 H1785 0.929 . S
C1774 C1770 1.531 . S
C1774 H1786 0.960 . S
C1774 H1787 0.962 . S
C1774 H1788 0.960 . S
C1775 C1772 1.511 . S
C1775 H1789 0.961 . S
C1775 H1790 0.961 . S
C1775 H1791 0.961 . S
C1776 C1777 1.370 . S
C1776 C1778 1.363 . S
C1776 H1792 0.931 . S
C1777 C1776 1.370 . S
C1777 C1781 1.408 . S
C1778 C1776 1.363 . S
C1778 C1779 1.370 . S
C1778 C1782 1.524 . S
C1779 C1771 1.503 . S
C1779 C1778 1.370 . S
C1779 C1780 1.403 . S
C1780 C1779 1.403 . S
C1780 C1781 1.404 . S
C1780 C1783 1.539 . S
C1781 C1777 1.408 . S
C1781 C1780 1.404 . S
C1781 H1793 0.930 . S
C1782 C1778 1.524 . S
C1782 H1794 0.956 . S
C1782 H1795 0.961 . S
C1782 H1796 0.961 . S
C1783 C1780 1.539 . S
C1783 H1797 0.958 . S
C1783 H1798 0.961 . S
C1783 H1799 0.960 . S
H1784 C1768 0.931 . S
H1785 C1773 0.929 . S
H1786 C1774 0.960 . S
H1787 C1774 0.962 . S
H1788 C1774 0.960 . S
H1789 C1775 0.961 . S
H1790 C1775 0.961 . S
H1791 C1775 0.961 . S
H1792 C1776 0.931 . S
H1793 C1781 0.930 . S
H1794 C1782 0.956 . S
H1795 C1782 0.961 . S
H1796 C1782 0.961 . S
H1797 C1783 0.958 . S
H1798 C1783 0.961 . S
H1799 C1783 0.960 . S
C649 C14 1.762 . S
C657 C122 1.802 . S
C681 C50 1.865 . S
C689 C147 2.014 . S
C713 C194 1.918 . S
C721 C86 1.907 . S
C745 C230 1.808 . S
C753 C338 1.762 . S
C777 C266 1.836 . S
C785 C363 2.016 . S
C809 C410 1.917 . S
C817 C302 1.878 . S
C841 C554 1.797 . S
C849 C446 1.765 . S
C873 C579 1.993 . S
C881 C482 1.877 . S
C905 C626 1.879 . S
C913 C518 1.895 . S
C937 C3 1.633 . S
C945 C327 1.669 . S
C969 C39 1.699 . S
C977 C374 1.565 . S
C1001 C399 1.752 . S
C1009 C75 1.763 . S
C1033 C111 1.679 . S
C1041 C435 1.652 . S
C1065 C158 1.537 . S
C1073 C471 1.721 . S
C1097 C183 1.758 . S
C1105 C507 1.756 . S
C1129 C219 1.666 . S
C1137 C543 1.693 . S
C1161 C255 1.694 . S
C1169 C590 1.573 . S
C1193 C615 1.734 . S
C1201 C291 1.752 . S
C1225 C4 0.485 . S
C1233 C148 0.512 . S
C1257 C40 0.571 . S
C1265 C182 0.554 . S
C1289 C76 0.505 . S
C1297 C110 0.532 . S
C1321 C112 0.515 . S
C1329 C38 0.443 . S
C1353 C74 0.483 . S
C1361 C146 0.489 . S
C1385 C184 0.455 . S
C1393 C2 0.482 . S
C1417 C220 0.581 . S
C1425 C364 0.556 . S
C1449 C398 0.555 . S
C1457 C256 0.569 . S
C1481 C326 0.595 . S
C1489 C292 0.580 . S
C1513 C254 0.409 . S
C1521 C328 0.430 . S
C1545 C362 0.475 . S
C1553 C290 0.470 . S
C1577 C400 0.481 . S
C1585 C218 0.472 . S
C1609 C580 0.499 . S
C1617 C436 0.511 . S
C1641 C614 0.541 . S
C1649 C472 0.535 . S
C1673 C508 0.490 . S
C1681 C542 0.519 . S
C1705 C470 0.455 . S
C1713 C544 0.462 . S
C1737 C506 0.519 . S
C1745 C578 0.526 . S
C1769 C434 0.493 . S
C1777 C616 0.514 . S
