# Generated by pormake.
# Topology svc, (7)-cn, num edge types: 1
# Building blocks:
#     Node 0, Type 0, BuildingBlock: HICVOG_clean_sbu_0, # of connection points: 7
#     Node 1, Type 0, BuildingBlock: HICVOG_clean_sbu_0, # of connection points: 7
#     Node 2, Type 0, BuildingBlock: HICVOG_clean_sbu_0, # of connection points: 7
#     Node 3, Type 0, BuildingBlock: HICVOG_clean_sbu_0, # of connection points: 7
#     Node 4, Type 0, BuildingBlock: HICVOG_clean_sbu_0, # of connection points: 7
#     Node 5, Type 0, BuildingBlock: HICVOG_clean_sbu_0, # of connection points: 7
#     Node 6, Type 0, BuildingBlock: HICVOG_clean_sbu_0, # of connection points: 7
#     Node 7, Type 0, BuildingBlock: HICVOG_clean_sbu_0, # of connection points: 7
#     Node 8, Type 0, BuildingBlock: HICVOG_clean_sbu_0, # of connection points: 7
#     Node 9, Type 0, BuildingBlock: HICVOG_clean_sbu_0, # of connection points: 7
#     Node 10, Type 0, BuildingBlock: HICVOG_clean_sbu_0, # of connection points: 7
#     Node 11, Type 0, BuildingBlock: HICVOG_clean_sbu_0, # of connection points: 7
#     Node 12, Type 0, BuildingBlock: HICVOG_clean_sbu_0, # of connection points: 7
#     Node 13, Type 0, BuildingBlock: HICVOG_clean_sbu_0, # of connection points: 7
#     Node 14, Type 0, BuildingBlock: HICVOG_clean_sbu_0, # of connection points: 7
#     Node 15, Type 0, BuildingBlock: HICVOG_clean_sbu_0, # of connection points: 7
#     Edge 16, Type (0, 0), BuildingBlock: ZUJKAS_clean_linker_0, # of connection points: 2
#     Edge 17, Type (0, 0), BuildingBlock: ZUJKAS_clean_linker_0, # of connection points: 2
#     Edge 18, Type (0, 0), BuildingBlock: ZUJKAS_clean_linker_0, # of connection points: 2
#     Edge 19, Type (0, 0), BuildingBlock: ZUJKAS_clean_linker_0, # of connection points: 2
#     Edge 20, Type (0, 0), BuildingBlock: ZUJKAS_clean_linker_0, # of connection points: 2
#     Edge 21, Type (0, 0), BuildingBlock: ZUJKAS_clean_linker_0, # of connection points: 2
#     Edge 22, Type (0, 0), BuildingBlock: ZUJKAS_clean_linker_0, # of connection points: 2
#     Edge 23, Type (0, 0), BuildingBlock: ZUJKAS_clean_linker_0, # of connection points: 2
#     Edge 24, Type (0, 0), BuildingBlock: ZUJKAS_clean_linker_0, # of connection points: 2
#     Edge 25, Type (0, 0), BuildingBlock: ZUJKAS_clean_linker_0, # of connection points: 2
#     Edge 26, Type (0, 0), BuildingBlock: ZUJKAS_clean_linker_0, # of connection points: 2
#     Edge 27, Type (0, 0), BuildingBlock: ZUJKAS_clean_linker_0, # of connection points: 2
#     Edge 28, Type (0, 0), BuildingBlock: ZUJKAS_clean_linker_0, # of connection points: 2
#     Edge 29, Type (0, 0), BuildingBlock: ZUJKAS_clean_linker_0, # of connection points: 2
#     Edge 30, Type (0, 0), BuildingBlock: ZUJKAS_clean_linker_0, # of connection points: 2
#     Edge 31, Type (0, 0), BuildingBlock: ZUJKAS_clean_linker_0, # of connection points: 2
#     Edge 32, Type (0, 0), BuildingBlock: ZUJKAS_clean_linker_0, # of connection points: 2
#     Edge 33, Type (0, 0), BuildingBlock: ZUJKAS_clean_linker_0, # of connection points: 2
#     Edge 34, Type (0, 0), BuildingBlock: ZUJKAS_clean_linker_0, # of connection points: 2
#     Edge 35, Type (0, 0), BuildingBlock: ZUJKAS_clean_linker_0, # of connection points: 2
#     Edge 36, Type (0, 0), BuildingBlock: ZUJKAS_clean_linker_0, # of connection points: 2
#     Edge 37, Type (0, 0), BuildingBlock: ZUJKAS_clean_linker_0, # of connection points: 2
#     Edge 38, Type (0, 0), BuildingBlock: ZUJKAS_clean_linker_0, # of connection points: 2
#     Edge 39, Type (0, 0), BuildingBlock: ZUJKAS_clean_linker_0, # of connection points: 2
#     Edge 40, Type (0, 0), BuildingBlock: ZUJKAS_clean_linker_0, # of connection points: 2
#     Edge 41, Type (0, 0), BuildingBlock: ZUJKAS_clean_linker_0, # of connection points: 2
#     Edge 42, Type (0, 0), BuildingBlock: ZUJKAS_clean_linker_0, # of connection points: 2
#     Edge 43, Type (0, 0), BuildingBlock: ZUJKAS_clean_linker_0, # of connection points: 2
#     Edge 44, Type (0, 0), BuildingBlock: ZUJKAS_clean_linker_0, # of connection points: 2
#     Edge 45, Type (0, 0), BuildingBlock: ZUJKAS_clean_linker_0, # of connection points: 2
#     Edge 46, Type (0, 0), BuildingBlock: ZUJKAS_clean_linker_0, # of connection points: 2
#     Edge 47, Type (0, 0), BuildingBlock: ZUJKAS_clean_linker_0, # of connection points: 2
#     Edge 48, Type (0, 0), BuildingBlock: ZUJKAS_clean_linker_0, # of connection points: 2
#     Edge 49, Type (0, 0), BuildingBlock: ZUJKAS_clean_linker_0, # of connection points: 2
#     Edge 50, Type (0, 0), BuildingBlock: ZUJKAS_clean_linker_0, # of connection points: 2
#     Edge 51, Type (0, 0), BuildingBlock: ZUJKAS_clean_linker_0, # of connection points: 2
#     Edge 52, Type (0, 0), BuildingBlock: ZUJKAS_clean_linker_0, # of connection points: 2
#     Edge 53, Type (0, 0), BuildingBlock: ZUJKAS_clean_linker_0, # of connection points: 2
#     Edge 54, Type (0, 0), BuildingBlock: ZUJKAS_clean_linker_0, # of connection points: 2
#     Edge 55, Type (0, 0), BuildingBlock: ZUJKAS_clean_linker_0, # of connection points: 2
#     Edge 56, Type (0, 0), BuildingBlock: ZUJKAS_clean_linker_0, # of connection points: 2
#     Edge 57, Type (0, 0), BuildingBlock: ZUJKAS_clean_linker_0, # of connection points: 2
#     Edge 58, Type (0, 0), BuildingBlock: ZUJKAS_clean_linker_0, # of connection points: 2
#     Edge 59, Type (0, 0), BuildingBlock: ZUJKAS_clean_linker_0, # of connection points: 2
#     Edge 60, Type (0, 0), BuildingBlock: ZUJKAS_clean_linker_0, # of connection points: 2
#     Edge 61, Type (0, 0), BuildingBlock: ZUJKAS_clean_linker_0, # of connection points: 2
#     Edge 62, Type (0, 0), BuildingBlock: ZUJKAS_clean_linker_0, # of connection points: 2
#     Edge 63, Type (0, 0), BuildingBlock: ZUJKAS_clean_linker_0, # of connection points: 2
#     Edge 64, Type (0, 0), BuildingBlock: ZUJKAS_clean_linker_0, # of connection points: 2
#     Edge 65, Type (0, 0), BuildingBlock: ZUJKAS_clean_linker_0, # of connection points: 2
#     Edge 66, Type (0, 0), BuildingBlock: ZUJKAS_clean_linker_0, # of connection points: 2
#     Edge 67, Type (0, 0), BuildingBlock: ZUJKAS_clean_linker_0, # of connection points: 2
#     Edge 68, Type (0, 0), BuildingBlock: ZUJKAS_clean_linker_0, # of connection points: 2
#     Edge 69, Type (0, 0), BuildingBlock: ZUJKAS_clean_linker_0, # of connection points: 2
#     Edge 70, Type (0, 0), BuildingBlock: ZUJKAS_clean_linker_0, # of connection points: 2
#     Edge 71, Type (0, 0), BuildingBlock: ZUJKAS_clean_linker_0, # of connection points: 2
# Relax obj value: 0.169
# Max RMSD: 0.247
# Mean RMSD: 0.212
data_MOF--net-svc--node1-HICVOG_clean_sbu_0--edge1-ZUJKAS_clean_linker_0
_symmetry_space_group_name_H-M    P1
_symmetry_Int_Tables_number       1
_symmetry_cell_setting            triclinic
loop_
_symmetry_equiv_pos_as_xyz
'x, y, z'
_cell_length_a     40.240116
_cell_length_b     37.25986
_cell_length_c     96.585659
_cell_angle_alpha  98.241609
_cell_angle_beta   94.691068
_cell_angle_gamma 90.233164
loop_
_atom_site_label
_atom_site_type_symbol
_atom_site_fract_x
_atom_site_fract_y
_atom_site_fract_z
_atom_type_partial_charge
Zn0 Zn 0.20651 0.42232 0.1146 0.0
C1 C 0.13728 0.37522 0.13353 0.0
N2 N 0.15217 0.34436 0.12865 0.0
C3 C 0.18011 0.35629 0.12396 0.0
N4 N 0.18197 0.39306 0.12566 0.0
N5 N 0.15522 0.40483 0.13197 0.0
C6 C 0.09041 0.4738 0.13233 0.0
O7 O 0.10861 0.47235 0.12157 0.0
O8 O 0.25483 0.41042 0.11607 0.0
Zn9 Zn 0.15123 0.45146 0.14357 0.0
N10 N 0.18757 0.4109 0.09533 0.0
C11 C 0.13908 0.39343 0.08003 0.0
C12 C 0.15487 0.40062 0.09351 0.0
C13 C 0.20524 0.41445 0.08414 0.0
N14 N 0.15652 0.39716 0.06888 0.0
C15 C 0.18928 0.40748 0.07044 0.0
O16 O 0.17388 0.49478 0.13737 0.0
C17 C 0.193 0.50277 0.12835 0.0
O18 O 0.20518 0.47801 0.11976 0.0
H19 H 0.14098 0.39846 0.10247 0.0
H20 H 0.231 0.42355 0.08596 0.0
C21 C 0.15702 0.46192 0.17447 0.0
C22 C 0.1725 0.45589 0.18759 0.0
C23 C 0.21186 0.41813 0.17571 0.0
C24 C 0.19653 0.42414 0.16285 0.0
N25 N 0.1696 0.44595 0.16242 0.0
N26 N 0.19959 0.43408 0.18768 0.0
H27 H 0.13571 0.47936 0.17378 0.0
C28 C 0.26964 0.42068 0.12812 0.0
O29 O 0.25179 0.43396 0.1384 0.0
O30 O 0.10324 0.4644 0.1437 0.0
H31 H 0.20601 0.41142 0.15325 0.0
H32 H 0.11306 0.38528 0.07843 0.0
H33 H 0.23338 0.4009 0.17619 0.0
Zn34 Zn 0.86414 0.97947 0.3681 0.0
C35 C 0.91692 0.90783 0.38693 0.0
N36 N 0.94296 0.92501 0.38279 0.0
C37 C 0.92881 0.9543 0.37832 0.0
N38 N 0.89564 0.95491 0.37957 0.0
N39 N 0.88821 0.92591 0.38521 0.0
C40 C 0.81512 0.86575 0.38173 0.0
O41 O 0.81619 0.88871 0.37264 0.0
O42 O 0.8793 0.0304 0.36863 0.0
Zn43 Zn 0.85074 0.92305 0.39632 0.0
N44 N 0.8628 0.9529 0.34924 0.0
C45 C 0.86319 0.89461 0.3355 0.0
C46 C 0.86339 0.91622 0.34849 0.0
C47 C 0.86219 0.96905 0.33742 0.0
N48 N 0.86257 0.91055 0.32373 0.0
C49 C 0.86204 0.94725 0.32418 0.0
O50 O 0.81013 0.95294 0.39164 0.0
C51 C 0.79875 0.97396 0.38316 0.0
O52 O 0.81656 0.98415 0.37408 0.0
H53 H 0.86436 0.90383 0.35794 0.0
H54 H 0.86253 0.99833 0.33843 0.0
C55 C 0.85333 0.92636 0.42675 0.0
C56 C 0.86648 0.9391 0.4406 0.0
C57 C 0.90588 0.97534 0.43154 0.0
C58 C 0.89255 0.96303 0.41794 0.0
N59 N 0.8668 0.93861 0.41577 0.0
N60 N 0.8926 0.96316 0.44248 0.0
H61 H 0.833 0.90676 0.42465 0.0
C62 C 0.87901 0.0482 0.38085 0.0
O63 O 0.87248 0.03081 0.39126 0.0
O64 O 0.83209 0.87289 0.39349 0.0
H65 H 0.90272 0.97291 0.40916 0.0
H66 H 0.8637 0.86538 0.33477 0.0
H67 H 0.92651 0.99459 0.4334 0.0
Zn68 Zn 0.33858 0.59671 0.62321 0.0
C69 C 0.42356 0.56763 0.64254 0.0
N70 N 0.43521 0.59884 0.63922 0.0
C71 C 0.40733 0.61467 0.63461 0.0
N72 N 0.37979 0.59403 0.63492 0.0
N73 N 0.39002 0.56469 0.64019 0.0
C74 C 0.36428 0.46886 0.63285 0.0
O75 O 0.34713 0.48922 0.62491 0.0
O76 O 0.32705 0.64915 0.62331 0.0
Zn77 Zn 0.36285 0.53488 0.64975 0.0
N78 N 0.34809 0.57457 0.60443 0.0
C79 C 0.37893 0.52914 0.59133 0.0
C80 C 0.36904 0.54597 0.60408 0.0
C81 C 0.33652 0.58714 0.59237 0.0
N82 N 0.36764 0.54167 0.57935 0.0
C83 C 0.34663 0.57023 0.57938 0.0
O84 O 0.31235 0.5363 0.64512 0.0
C85 C 0.28987 0.54974 0.6374 0.0
O86 O 0.29743 0.57156 0.62905 0.0
H87 H 0.37845 0.53654 0.61366 0.0
H88 H 0.32047 0.61043 0.59298 0.0
C89 C 0.37121 0.53235 0.68015 0.0
C90 C 0.3756 0.5493 0.69423 0.0
C91 C 0.38036 0.60644 0.6863 0.0
C92 C 0.37555 0.58972 0.67247 0.0
N93 N 0.37116 0.55312 0.66961 0.0
N94 N 0.38007 0.58598 0.6968 0.0
H95 H 0.36684 0.5034 0.67758 0.0
C96 C 0.32014 0.66665 0.63499 0.0
O97 O 0.32179 0.64995 0.64612 0.0
O98 O 0.37573 0.48293 0.64509 0.0
H99 H 0.37487 0.60595 0.66403 0.0
H100 H 0.39568 0.50645 0.59094 0.0
H101 H 0.38386 0.63554 0.6887 0.0
Zn102 Zn 0.65141 0.08417 0.86595 0.0
C103 C 0.69653 0.18224 0.87862 0.0
N104 N 0.66953 0.19289 0.87127 0.0
C105 C 0.65092 0.16245 0.86818 0.0
N106 N 0.66534 0.13426 0.87352 0.0
N107 N 0.69436 0.14658 0.88018 0.0
C108 C 0.78423 0.10416 0.88214 0.0
O109 O 0.76424 0.07989 0.87444 0.0
O110 O 0.60013 0.07616 0.8637 0.0
Zn111 Zn 0.72181 0.1216 0.89357 0.0
N112 N 0.66971 0.0771 0.84776 0.0
C113 C 0.72039 0.08527 0.83746 0.0
C114 C 0.70266 0.08605 0.84922 0.0
C115 C 0.65339 0.06717 0.8348 0.0
N116 N 0.70434 0.07575 0.82459 0.0
C117 C 0.6713 0.06663 0.82277 0.0
O118 O 0.71322 0.06667 0.89206 0.0
C119 C 0.69507 0.04006 0.88583 0.0
O120 O 0.67181 0.0446 0.87648 0.0
H121 H 0.7148 0.09454 0.85953 0.0
H122 H 0.62696 0.06086 0.83387 0.0
C123 C 0.73011 0.14055 0.92431 0.0
C124 C 0.72004 0.1577 0.93728 0.0
C125 C 0.67217 0.17962 0.92529 0.0
C126 C 0.68187 0.16222 0.91259 0.0
N127 N 0.71088 0.14359 0.91223 0.0
N128 N 0.69138 0.17698 0.93727 0.0
H129 H 0.7529 0.1253 0.92378 0.0
C130 C 0.58292 0.07873 0.87432 0.0
O131 O 0.59815 0.08837 0.88687 0.0
O132 O 0.77194 0.12706 0.89138 0.0
H133 H 0.66622 0.16375 0.90308 0.0
H134 H 0.74663 0.09252 0.83853 0.0
H135 H 0.64937 0.19489 0.92566 0.0
Zn136 Zn 0.14696 0.57243 0.37439 0.0
C137 C 0.19395 0.67061 0.3831 0.0
N138 N 0.16448 0.68129 0.37764 0.0
C139 C 0.14534 0.65115 0.37606 0.0
N140 N 0.16205 0.62295 0.38044 0.0
N141 N 0.1927 0.63508 0.38505 0.0
C142 C 0.27989 0.61411 0.38236 0.0
O143 O 0.25681 0.60796 0.37184 0.0
O144 O 0.0953 0.56736 0.37287 0.0
Zn145 Zn 0.2221 0.61046 0.3978 0.0
N146 N 0.16411 0.56059 0.35602 0.0
C147 C 0.2151 0.54882 0.34546 0.0
C148 C 0.19747 0.55484 0.35732 0.0
C149 C 0.14729 0.56014 0.34311 0.0
N150 N 0.19868 0.54882 0.33267 0.0
C151 C 0.16524 0.55422 0.33102 0.0
O152 O 0.21633 0.55458 0.39602 0.0
C153 C 0.1956 0.52827 0.39208 0.0
O154 O 0.16762 0.5331 0.38539 0.0
H155 H 0.21044 0.5557 0.36758 0.0
H156 H 0.12081 0.56532 0.3423 0.0
C157 C 0.22911 0.62199 0.42869 0.0
C158 C 0.21904 0.63657 0.44201 0.0
C159 C 0.17608 0.66841 0.43082 0.0
C160 C 0.18567 0.6535 0.41777 0.0
N161 N 0.21215 0.6309 0.41685 0.0
N162 N 0.19279 0.65953 0.44254 0.0
H163 H 0.24936 0.60305 0.42766 0.0
C164 C 0.08056 0.55468 0.38239 0.0
O165 O 0.09879 0.54553 0.39321 0.0
O166 O 0.27094 0.61875 0.39482 0.0
H167 H 0.17155 0.65974 0.40849 0.0
H168 H 0.24172 0.54453 0.34641 0.0
H169 H 0.15516 0.68652 0.43164 0.0
Zn170 Zn 0.72589 0.89147 0.60995 0.0
C171 C 0.65493 0.84594 0.62876 0.0
N172 N 0.67022 0.81488 0.62447 0.0
C173 C 0.69821 0.82653 0.61972 0.0
N174 N 0.69964 0.86322 0.62077 0.0
N175 N 0.67263 0.87532 0.62678 0.0
C176 C 0.60555 0.94108 0.6267 0.0
O177 O 0.6225 0.93921 0.61556 0.0
O178 O 0.77447 0.8849 0.61515 0.0
Zn179 Zn 0.66825 0.92243 0.63774 0.0
N180 N 0.71363 0.87393 0.59018 0.0
C181 C 0.6732 0.8423 0.57342 0.0
C182 C 0.68431 0.85501 0.58726 0.0
C183 C 0.73207 0.8814 0.57967 0.0
N184 N 0.69143 0.8497 0.56297 0.0
C185 C 0.72061 0.86907 0.56556 0.0
O186 O 0.68951 0.96532 0.63064 0.0
C187 C 0.70764 0.97256 0.62114 0.0
O188 O 0.72033 0.94725 0.61295 0.0
H189 H 0.66926 0.85017 0.59557 0.0
H190 H 0.75468 0.89756 0.58233 0.0
C191 C 0.67405 0.93561 0.66844 0.0
C192 C 0.68921 0.93101 0.68176 0.0
C193 C 0.72932 0.8928 0.67064 0.0
C194 C 0.71415 0.89722 0.65756 0.0
N195 N 0.68713 0.91877 0.65666 0.0
N196 N 0.7166 0.90975 0.68236 0.0
H197 H 0.65249 0.95256 0.6674 0.0
C198 C 0.78345 0.90335 0.62699 0.0
O199 O 0.76056 0.92011 0.63431 0.0
O200 O 0.62004 0.93376 0.63811 0.0
H201 H 0.7238 0.88337 0.64817 0.0
H202 H 0.64999 0.82709 0.57098 0.0
H203 H 0.75097 0.87589 0.67149 0.0
Zn204 Zn 0.30896 0.41651 0.89637 0.0
C205 C 0.35685 0.34492 0.86999 0.0
N206 N 0.33599 0.32112 0.87417 0.0
C207 C 0.31716 0.34281 0.88257 0.0
N208 N 0.32606 0.37797 0.88353 0.0
N209 N 0.35055 0.37953 0.87528 0.0
C210 C 0.42082 0.44734 0.87622 0.0
O211 O 0.40258 0.45419 0.88694 0.0
O212 O 0.25983 0.41003 0.89747 0.0
Zn213 Zn 0.35871 0.41888 0.86471 0.0
N214 N 0.33281 0.41749 0.91466 0.0
C215 C 0.38525 0.41714 0.92785 0.0
C216 C 0.3666 0.41698 0.91506 0.0
C217 C 0.31671 0.41804 0.92655 0.0
N218 N 0.36931 0.41755 0.93972 0.0
C219 C 0.33541 0.41799 0.93957 0.0
O220 O 0.33777 0.46711 0.87133 0.0
C221 C 0.32165 0.48273 0.88123 0.0
O222 O 0.3119 0.46573 0.89068 0.0
H223 H 0.37885 0.41616 0.90548 0.0
H224 H 0.28977 0.41745 0.92569 0.0
C225 C 0.35067 0.41462 0.83415 0.0
C226 C 0.33339 0.40396 0.82088 0.0
C227 C 0.29434 0.37116 0.83158 0.0
C228 C 0.31112 0.38224 0.84466 0.0
N229 N 0.339 0.40353 0.84573 0.0
N230 N 0.30568 0.38241 0.82007 0.0
H231 H 0.37233 0.43244 0.83538 0.0
C232 C 0.2419 0.41039 0.88604 0.0
O233 O 0.25668 0.41037 0.8744 0.0
O234 O 0.40767 0.42973 0.86483 0.0
H235 H 0.30165 0.37431 0.85394 0.0
H236 H 0.4122 0.41672 0.92835 0.0
H237 H 0.27214 0.3542 0.83059 0.0
Zn238 Zn 0.82148 0.1256 0.12126 0.0
C239 C 0.90672 0.09344 0.13966 0.0
N240 N 0.91857 0.12486 0.13661 0.0
C241 C 0.89076 0.14114 0.13219 0.0
N242 N 0.86312 0.1207 0.13243 0.0
N243 N 0.87311 0.09088 0.1374 0.0
C244 C 0.84967 0.99473 0.13197 0.0
O245 O 0.83299 1.01354 0.1233 0.0
O246 O 0.81132 0.17864 0.1223 0.0
Zn247 Zn 0.8456 0.06236 0.14735 0.0
N248 N 0.82971 0.10429 0.10221 0.0
C249 C 0.85779 0.05673 0.08891 0.0
C250 C 0.84831 0.07383 0.10168 0.0
C251 C 0.81995 0.11843 0.09026 0.0
N252 N 0.84841 0.07082 0.07706 0.0
C253 C 0.82969 0.10121 0.07723 0.0
O254 O 0.79536 0.06217 0.14192 0.0
C255 C 0.77283 0.07697 0.13468 0.0
O256 O 0.78019 0.10073 0.12709 0.0
H257 H 0.85624 0.06316 0.11118 0.0
H258 H 0.80566 0.14306 0.09095 0.0
C259 C 0.85078 0.06509 0.17806 0.0
C260 C 0.85386 0.08417 0.19185 0.0
C261 C 0.85946 0.13937 0.18255 0.0
C262 C 0.85604 0.12054 0.16901 0.0
N263 N 0.85192 0.08387 0.16697 0.0
N264 N 0.85816 0.12086 0.19358 0.0
H265 H 0.8466 0.03605 0.1761 0.0
C266 C 0.80465 0.19467 0.13425 0.0
O267 O 0.80542 0.17608 0.14485 0.0
O268 O 0.85973 1.01051 0.14415 0.0
H269 H 0.85622 0.13525 0.16017 0.0
H270 H 0.87274 0.03258 0.08841 0.0
H271 H 0.86275 0.16855 0.1843 0.0
Zn272 Zn 0.86134 0.59698 0.87411 0.0
C273 C 0.83039 0.69209 0.89359 0.0
N274 N 0.85936 0.70406 0.88979 0.0
C275 C 0.87439 0.67329 0.88493 0.0
N276 N 0.85555 0.64365 0.8856 0.0
N277 N 0.82799 0.65529 0.89136 0.0
C278 C 0.73947 0.6235 0.88726 0.0
O279 O 0.75884 0.61192 0.8773 0.0
O280 O 0.90978 0.58485 0.87469 0.0
Zn281 Zn 0.80191 0.62538 0.90173 0.0
N282 N 0.84525 0.60269 0.85501 0.0
C283 C 0.80527 0.63106 0.84083 0.0
C284 C 0.81805 0.6239 0.85393 0.0
C285 C 0.86032 0.58808 0.84338 0.0
N286 N 0.82021 0.61674 0.82926 0.0
C287 C 0.84745 0.5953 0.83002 0.0
O288 O 0.80436 0.57013 0.89626 0.0
C289 C 0.81751 0.54515 0.88812 0.0
O290 O 0.8381 0.55282 0.87959 0.0
H291 H 0.80659 0.63553 0.86323 0.0
H292 H 0.88229 0.57184 0.8446 0.0
C293 C 0.80067 0.63218 0.9323 0.0
C294 C 0.81651 0.63548 0.946 0.0
C295 C 0.86829 0.64574 0.93699 0.0
C296 C 0.8527 0.64193 0.92346 0.0
N297 N 0.81931 0.63509 0.92132 0.0
N298 N 0.84998 0.64208 0.94789 0.0
H299 H 0.77426 0.62592 0.93034 0.0
C300 C 0.92351 0.57753 0.88625 0.0
O301 O 0.90605 0.58058 0.89727 0.0
O302 O 0.75296 0.63522 0.89944 0.0
H303 H 0.86731 0.64354 0.91466 0.0
H304 H 0.78369 0.64802 0.83983 0.0
H305 H 0.89488 0.65091 0.93881 0.0
Zn306 Zn 0.21203 0.09069 0.61986 0.0
C307 C 0.16208 0.16725 0.64278 0.0
N308 N 0.17926 0.1891 0.63589 0.0
C309 C 0.19997 0.16589 0.62912 0.0
N310 N 0.19552 0.13175 0.63165 0.0
N311 N 0.17214 0.13248 0.64054 0.0
C312 C 0.09906 0.0787 0.64328 0.0
O313 O 0.10995 0.08354 0.63123 0.0
O314 O 0.26136 0.09371 0.6189 0.0
Zn315 Zn 0.16635 0.09662 0.65307 0.0
N316 N 0.18938 0.08767 0.60121 0.0
C317 C 0.13816 0.07514 0.58724 0.0
C318 C 0.15657 0.07827 0.60019 0.0
C319 C 0.20482 0.09396 0.58971 0.0
N320 N 0.15343 0.08117 0.57577 0.0
C321 C 0.1864 0.09039 0.57646 0.0
O322 O 0.18584 0.04701 0.64739 0.0
C323 C 0.19839 0.02868 0.63699 0.0
O324 O 0.20621 0.04308 0.62655 0.0
H325 H 0.14494 0.07316 0.60942 0.0
H326 H 0.23088 0.1019 0.59099 0.0
C327 C 0.17853 0.10158 0.68327 0.0
C328 C 0.19396 0.1158 0.6966 0.0
C329 C 0.22445 0.15753 0.68582 0.0
C330 C 0.20923 0.14326 0.67272 0.0
N331 N 0.18648 0.11576 0.67168 0.0
N332 N 0.21655 0.14351 0.69736 0.0
H333 H 0.16098 0.07907 0.68194 0.0
C334 C 0.27824 0.08727 0.62995 0.0
O335 O 0.26259 0.08394 0.64114 0.0
O336 O 0.11837 0.08538 0.65442 0.0
H337 H 0.21571 0.1539 0.66344 0.0
H338 H 0.11196 0.06776 0.58628 0.0
H339 H 0.24258 0.17945 0.68682 0.0
Zn340 Zn 0.67588 0.43569 0.39469 0.0
C341 C 0.59278 0.46024 0.37321 0.0
N342 N 0.57968 0.43218 0.37829 0.0
C343 C 0.60676 0.41629 0.38365 0.0
N344 N 0.63526 0.43439 0.38224 0.0
N345 N 0.62632 0.46154 0.37535 0.0
C346 C 0.63876 0.55754 0.37752 0.0
O347 O 0.65 0.54335 0.38864 0.0
O348 O 0.69313 0.38627 0.39547 0.0
Zn349 Zn 0.65409 0.48783 0.3647 0.0
N350 N 0.66562 0.45777 0.4133 0.0
C351 C 0.63693 0.50457 0.42669 0.0
C352 C 0.64453 0.4862 0.41378 0.0
C353 C 0.679 0.44632 0.42532 0.0
N354 N 0.65061 0.49364 0.43867 0.0
C355 C 0.67137 0.46483 0.43844 0.0
O356 O 0.70404 0.49129 0.37067 0.0
C357 C 0.72494 0.48164 0.38002 0.0
O358 O 0.71579 0.46264 0.38904 0.0
H359 H 0.63383 0.49464 0.40417 0.0
H360 H 0.69588 0.42371 0.42466 0.0
C361 C 0.64942 0.4842 0.33444 0.0
C362 C 0.64467 0.46625 0.3205 0.0
C363 C 0.63841 0.41038 0.32935 0.0
C364 C 0.64304 0.4283 0.34304 0.0
N365 N 0.64836 0.46476 0.34534 0.0
N366 N 0.63934 0.42965 0.31849 0.0
H367 H 0.65439 0.51304 0.33675 0.0
C368 C 0.70797 0.37336 0.3848 0.0
O369 O 0.70691 0.39103 0.37393 0.0
O370 O 0.6375 0.53809 0.36558 0.0
H371 H 0.64243 0.41329 0.35181 0.0
H372 H 0.62038 0.52744 0.42721 0.0
H373 H 0.63413 0.38135 0.32735 0.0
Zn374 Zn 0.35722 0.96365 0.14616 0.0
C375 C 0.30639 0.867 0.13663 0.0
N376 N 0.33213 0.85639 0.14469 0.0
C377 C 0.35237 0.88566 0.14712 0.0
N378 N 0.33992 0.91335 0.14076 0.0
N379 N 0.3107 0.90163 0.13406 0.0
C380 C 0.22254 0.9318 0.13361 0.0
O381 O 0.24395 0.94193 0.14449 0.0
O382 O 0.40876 0.97047 0.14711 0.0
Zn383 Zn 0.28411 0.92536 0.11998 0.0
N384 N 0.34194 0.97797 0.16468 0.0
C385 C 0.29369 0.99586 0.17644 0.0
C386 C 0.30937 0.98756 0.16412 0.0
C387 C 0.35985 0.97667 0.17724 0.0
N388 N 0.31118 0.99412 0.18891 0.0
C389 C 0.34391 0.98486 0.18977 0.0
O390 O 0.2924 0.98002 0.12094 0.0
C391 C 0.31216 1.00621 0.1262 0.0
O392 O 0.33688 1.00154 0.13484 0.0
H393 H 0.29553 0.98812 0.15409 0.0
H394 H 0.3856 0.96832 0.17743 0.0
C395 C 0.27889 0.90794 0.08914 0.0
C396 C 0.29064 0.89204 0.07629 0.0
C397 C 0.33496 0.86578 0.08902 0.0
C398 C 0.32373 0.88207 0.10159 0.0
N399 N 0.2958 0.90252 0.10151 0.0
N400 N 0.31837 0.87128 0.07675 0.0
H401 H 0.25741 0.92531 0.08935 0.0
C402 C 0.42447 0.97053 0.13613 0.0
O403 O 0.40774 0.96354 0.12376 0.0
O404 O 0.23381 0.92078 0.12181 0.0
H405 H 0.33759 0.87866 0.11134 0.0
H406 H 0.2677 1.00325 0.17611 0.0
H407 H 0.35705 0.84932 0.08898 0.0
Zn408 Zn 0.87357 0.43292 0.64499 0.0
C409 C 0.82869 0.33496 0.63087 0.0
N410 N 0.85561 0.32405 0.63821 0.0
C411 C 0.87375 0.3547 0.64181 0.0
N412 N 0.8591 0.38329 0.63687 0.0
N413 N 0.83042 0.37102 0.62986 0.0
C414 C 0.74148 0.41845 0.63081 0.0
O415 O 0.76333 0.4419 0.63784 0.0
O416 O 0.92528 0.43929 0.64697 0.0
Zn417 Zn 0.80122 0.39801 0.61766 0.0
N418 N 0.85491 0.44026 0.66321 0.0
C419 C 0.80414 0.43243 0.67353 0.0
C420 C 0.82269 0.42836 0.66194 0.0
C421 C 0.86977 0.45584 0.6759 0.0
N422 N 0.81852 0.44837 0.68606 0.0
C423 C 0.85083 0.46028 0.68772 0.0
O424 O 0.8116 0.45239 0.61959 0.0
C425 C 0.83055 0.47848 0.62564 0.0
O426 O 0.85413 0.47338 0.63476 0.0
H427 H 0.81137 0.41596 0.65189 0.0
H428 H 0.89539 0.46536 0.6767 0.0
C429 C 0.79058 0.38981 0.58695 0.0
C430 C 0.80051 0.37884 0.57332 0.0
C431 C 0.84485 0.34587 0.58293 0.0
C432 C 0.83559 0.35753 0.59637 0.0
N433 N 0.8086 0.37906 0.59821 0.0
N434 N 0.82742 0.35708 0.57178 0.0
H435 H 0.76994 0.40801 0.58863 0.0
C436 C 0.93953 0.45144 0.6372 0.0
O437 O 0.9209 0.4583 0.6261 0.0
O438 O 0.75161 0.39445 0.62136 0.0
H439 H 0.85057 0.35021 0.60528 0.0
H440 H 0.77841 0.42323 0.67258 0.0
H441 H 0.86629 0.32879 0.58137 0.0
Zn442 Zn 0.3786 0.07904 0.37709 0.0
C443 C 0.33487 0.17482 0.38855 0.0
N444 N 0.36265 0.18753 0.38405 0.0
C445 C 0.38233 0.15848 0.38263 0.0
N446 N 0.36724 0.12857 0.38584 0.0
N447 N 0.33745 0.13897 0.38992 0.0
C448 C 0.24635 0.10048 0.38636 0.0
O449 O 0.26409 0.07837 0.37817 0.0
O450 O 0.42935 0.07086 0.37646 0.0
Zn451 Zn 0.31071 0.11085 0.40089 0.0
N452 N 0.35865 0.07538 0.35786 0.0
C453 C 0.30824 0.08367 0.34409 0.0
C454 C 0.32646 0.08626 0.35705 0.0
C455 C 0.37375 0.06228 0.34604 0.0
N456 N 0.32292 0.07016 0.33236 0.0
C457 C 0.35523 0.05936 0.33284 0.0
O458 O 0.31591 0.05513 0.39747 0.0
C459 C 0.33339 0.02942 0.39177 0.0
O460 O 0.35759 0.03603 0.38468 0.0
H461 H 0.31497 0.09659 0.36647 0.0
H462 H 0.39932 0.05344 0.34693 0.0
C463 C 0.30827 0.11854 0.43151 0.0
C464 C 0.32178 0.12929 0.44548 0.0
C465 C 0.36775 0.15679 0.43687 0.0
C466 C 0.35459 0.14578 0.42316 0.0
N467 N 0.32515 0.12694 0.42066 0.0
N468 N 0.35123 0.14817 0.44763 0.0
H469 H 0.28528 0.10285 0.42927 0.0
C470 C 0.44872 0.06531 0.38705 0.0
O471 O 0.43636 0.06578 0.39925 0.0
O472 O 0.26115 0.11959 0.3971 0.0
H473 H 0.36816 0.15193 0.41459 0.0
H474 H 0.28253 0.09207 0.34334 0.0
H475 H 0.39116 0.17173 0.43896 0.0
Zn476 Zn 0.69675 0.61902 0.12069 0.0
C477 C 0.64487 0.69575 0.14257 0.0
N478 N 0.66318 0.71723 0.13594 0.0
C479 C 0.6841 0.69374 0.1295 0.0
N480 N 0.67897 0.65979 0.13207 0.0
N481 N 0.65487 0.66081 0.14065 0.0
C482 C 0.59045 0.58558 0.13956 0.0
O483 O 0.61221 0.57684 0.13029 0.0
O484 O 0.74613 0.62389 0.12002 0.0
Zn485 Zn 0.64713 0.6238 0.15264 0.0
N486 N 0.675 0.61486 0.10183 0.0
C487 C 0.62454 0.60268 0.08723 0.0
C488 C 0.64163 0.60812 0.10051 0.0
C489 C 0.69201 0.61756 0.09037 0.0
N490 N 0.64151 0.6045 0.07577 0.0
C491 C 0.67483 0.61206 0.07691 0.0
O492 O 0.67237 0.57643 0.14871 0.0
C493 C 0.68617 0.55818 0.13861 0.0
O494 O 0.69266 0.57182 0.12781 0.0
H495 H 0.62849 0.60674 0.10972 0.0
H496 H 0.71862 0.62297 0.09168 0.0
C497 C 0.65174 0.62534 0.18273 0.0
C498 C 0.66137 0.63988 0.1968 0.0
C499 C 0.68543 0.6908 0.18886 0.0
C500 C 0.67646 0.67594 0.175 0.0
N501 N 0.65936 0.64383 0.17217 0.0
N502 N 0.67776 0.67251 0.19938 0.0
H503 H 0.63824 0.59978 0.18013 0.0
C504 C 0.76324 0.61828 0.13113 0.0
O505 O 0.74772 0.61419 0.14228 0.0
O506 O 0.59922 0.60772 0.15053 0.0
H507 H 0.68336 0.6899 0.16659 0.0
H508 H 0.59801 0.59689 0.08602 0.0
H509 H 0.69876 0.7165 0.19126 0.0
Zn510 Zn 0.19427 0.92123 0.89204 0.0
C511 C 0.10538 0.96192 0.88304 0.0
N512 N 0.09444 0.93301 0.88829 0.0
C513 C 0.12192 0.91286 0.88927 0.0
N514 N 0.14867 0.92894 0.88496 0.0
N515 N 0.13806 0.95956 0.88076 0.0
C516 C 0.14628 0.05489 0.88732 0.0
O517 O 0.14836 0.03358 0.89706 0.0
O518 O 0.20239 0.86811 0.89259 0.0
Zn519 Zn 0.16165 0.989 0.8695 0.0
N520 N 0.19985 0.94864 0.9108 0.0
C521 C 0.2073 1.00862 0.92298 0.0
C522 C 0.20278 0.98482 0.91051 0.0
C523 C 0.20145 0.93498 0.92323 0.0
N524 N 0.20919 0.99524 0.93533 0.0
C525 C 0.20651 0.95906 0.93597 0.0
O526 O 0.2127 0.98664 0.87115 0.0
C527 C 0.23667 0.96731 0.87522 0.0
O528 O 0.2316 0.94091 0.8819 0.0
H529 H 0.20179 0.99501 0.90056 0.0
H530 H 0.19963 0.90597 0.92313 0.0
C531 C 0.15074 0.99252 0.83937 0.0
C532 C 0.13916 0.97854 0.82542 0.0
C533 C 0.12009 0.92525 0.8334 0.0
C534 C 0.13189 0.93895 0.84707 0.0
N535 N 0.14658 0.97242 0.84988 0.0
N536 N 0.12396 0.94525 0.82297 0.0
H537 H 0.16255 0.01904 0.8419 0.0
C538 C 0.21 0.84916 0.8813 0.0
O539 O 0.21093 0.86474 0.86996 0.0
O540 O 0.15003 0.04152 0.87468 0.0
H541 H 0.12917 0.92294 0.8554 0.0
H542 H 0.20959 0.03752 0.92286 0.0
H543 H 0.10807 0.89881 0.83107 0.0
H544 H 0.11324 0.34615 0.15485 0.0
H545 H 0.05659 0.32162 0.1545 0.0
H546 H 0.02666 0.37353 0.11846 0.0
H547 H 0.08334 0.39819 0.11886 0.0
H548 H 0.97272 0.36194 0.13944 0.0
H549 H 0.04365 0.24214 0.11759 0.0
H550 H 0.06063 0.26527 0.1343 0.0
H551 H 0.05979 0.2879 0.11906 0.0
C552 C 0.09405 0.35411 0.1474 0.0
C553 C 0.10242 0.37468 0.13708 0.0
C554 C 0.06174 0.33991 0.14714 0.0
C555 C 0.0375 0.34552 0.13638 0.0
C556 C 0.04487 0.36916 0.12693 0.0
H557 H 0.90514 0.16279 0.10772 0.0
H558 H 0.93298 0.2205 0.10623 0.0
C559 C 0.0772 0.38358 0.12725 0.0
C560 C 1.00802 0.3207 0.13321 0.0
H561 H 0.9881 0.23167 0.1221 0.0
C562 C 0.97588 0.33349 0.13555 0.0
C563 C 0.01211 0.28382 0.12778 0.0
C564 C 0.04582 0.26887 0.1244 0.0
C565 C 0.94786 0.30979 0.13315 0.0
C566 C 0.95231 0.27243 0.12844 0.0
C567 C 0.9844 0.26024 0.12563 0.0
C568 C 0.92531 0.24438 0.12751 0.0
C569 C 0.91388 0.32502 0.13568 0.0
C570 C 0.90941 0.23953 0.13955 0.0
C571 C 0.89276 0.20684 0.14023 0.0
C572 C 0.89207 0.17843 0.12897 0.0
C573 C 0.90473 0.18463 0.11642 0.0
C574 C 0.92096 0.2175 0.11564 0.0
H575 H 0.91266 0.3539 0.13402 0.0
H576 H 0.89396 0.30938 0.12868 0.0
H577 H 0.90889 0.32381 0.14673 0.0
H578 H 0.91283 0.25926 0.14895 0.0
H579 H 0.88392 0.20226 0.15014 0.0
H580 H 0.95643 0.88696 0.40818 0.0
H581 H 0.98299 0.82781 0.407 0.0
H582 H 0.91588 0.78695 0.37106 0.0
H583 H 0.88862 0.846 0.37251 0.0
H584 H 0.94242 0.73154 0.38926 0.0
H585 H 0.03782 0.81874 0.37141 0.0
H586 H 0.02493 0.83459 0.38856 0.0
H587 H 0.99554 0.83313 0.37343 0.0
C588 C 0.94598 0.86467 0.40061 0.0
C589 C 0.92041 0.87088 0.39049 0.0
C590 C 0.96138 0.83096 0.39983 0.0
C591 C 0.95189 0.80325 0.38875 0.0
C592 C 0.92361 0.80796 0.3797 0.0
H593 H 0.10956 0.67306 0.35393 0.0
H594 H 0.05536 0.70225 0.35505 0.0
C595 C 0.90781 0.84163 0.38061 0.0
C596 C 0.97538 0.77342 0.38495 0.0
H597 H 0.05322 0.75897 0.37391 0.0
C598 C 0.96661 0.73735 0.38584 0.0
C599 C 1.00661 0.78097 0.38015 0.0
C600 C 0.01679 0.81887 0.37818 0.0
C601 C 0.98882 0.70878 0.38245 0.0
C602 C 0.02064 0.7166 0.37823 0.0
C603 C 0.02886 0.75267 0.37707 0.0
C604 C 0.04688 0.68881 0.37557 0.0
C605 C 0.97775 0.67055 0.38325 0.0
C606 C 0.05912 0.66907 0.38623 0.0
C607 C 0.08977 0.65143 0.38537 0.0
C608 C 0.10881 0.65374 0.37396 0.0
C609 C 0.09506 0.67034 0.36271 0.0
C610 C 0.06422 0.68737 0.36344 0.0
H611 H 0.95014 0.66797 0.38189 0.0
H612 H 0.98847 0.6508 0.37514 0.0
H613 H 0.9861 0.66346 0.39374 0.0
H614 H 0.04676 0.6702 0.39582 0.0
H615 H 0.10026 0.63965 0.39435 0.0
H616 H 0.42707 0.63209 0.61031 0.0
H617 H 0.45724 0.68844 0.60886 0.0
H618 H 0.42641 0.73441 0.64922 0.0
H619 H 0.39569 0.67826 0.65053 0.0
H620 H 0.44121 0.78802 0.62906 0.0
H621 H 0.5397 0.6884 0.63902 0.0
H622 H 0.51194 0.67546 0.62356 0.0
H623 H 0.49619 0.67949 0.64058 0.0
C624 C 0.42485 0.65512 0.6184 0.0
C625 C 0.40885 0.65104 0.63046 0.0
C626 C 0.44238 0.68721 0.61764 0.0
C627 C 0.4446 0.71536 0.62906 0.0
C628 C 0.425 0.7131 0.64029 0.0
H629 H 0.63388 0.82552 0.65241 0.0
H630 H 0.57798 0.80198 0.65464 0.0
C631 C 0.4072 0.68107 0.64098 0.0
C632 C 0.47274 0.74206 0.63077 0.0
H633 H 0.55761 0.7466 0.63601 0.0
C634 C 0.4667 0.77913 0.6306 0.0
C635 C 0.50592 0.73053 0.63315 0.0
C636 C 0.51398 0.69139 0.63423 0.0
C637 C 0.49321 0.80479 0.63235 0.0
C638 C 0.52649 0.79291 0.63422 0.0
C639 C 0.5322 0.75592 0.63465 0.0
C640 C 0.55633 0.81732 0.6351 0.0
C641 C 0.48534 0.84432 0.63234 0.0
C642 C 0.56239 0.83588 0.62385 0.0
C643 C 0.59424 0.85005 0.62277 0.0
C644 C 0.62052 0.84569 0.63285 0.0
C645 C 0.61381 0.82995 0.64468 0.0
C646 C 0.58192 0.81622 0.64587 0.0
H647 H 0.45973 0.85039 0.63542 0.0
H648 H 0.5034 0.86206 0.63957 0.0
H649 H 0.48677 0.85111 0.62158 0.0
H650 H 0.54351 0.83646 0.61524 0.0
H651 H 0.59913 0.861 0.61331 0.0
H652 H 0.3577 0.29476 0.84673 0.0
H653 H 0.40618 0.25942 0.8395 0.0
H654 H 0.46957 0.32876 0.8705 0.0
H655 H 0.4214 0.36507 0.87718 0.0
H656 H 0.50324 0.3047 0.84885 0.0
H657 H 0.43686 0.18795 0.86463 0.0
H658 H 0.41597 0.20579 0.85004 0.0
H659 H 0.42078 0.23325 0.86703 0.0
C660 C 0.38228 0.30329 0.85154 0.0
C661 C 0.38598 0.33263 0.86245 0.0
C662 C 0.40986 0.28275 0.84758 0.0
C663 C 0.44132 0.29046 0.85486 0.0
C664 C 0.44551 0.32197 0.86482 0.0
H665 H 0.5967 0.16059 0.88252 0.0
H666 H 0.54281 0.1865 0.87637 0.0
C667 C 0.41803 0.34302 0.86854 0.0
C668 C 0.46901 0.26415 0.85324 0.0
H669 H 0.49073 0.17749 0.85755 0.0
C670 C 0.50045 0.27677 0.8506 0.0
C671 C 0.46548 0.22776 0.85576 0.0
C672 C 0.43308 0.2129 0.85966 0.0
C673 C 0.52861 0.25461 0.85088 0.0
C674 C 0.52503 0.21818 0.85333 0.0
C675 C 0.49337 0.20518 0.85547 0.0
C676 C 0.55439 0.19485 0.85554 0.0
C677 C 0.5622 0.27127 0.84943 0.0
C678 C 0.57798 0.18843 0.84554 0.0
C679 C 0.60888 0.17357 0.8491 0.0
C680 C 0.61608 0.16379 0.86251 0.0
C681 C 0.59125 0.16676 0.87195 0.0
C682 C 0.5606 0.18204 0.86849 0.0
H683 H 0.56153 0.30138 0.85087 0.0
H684 H 0.58141 0.26299 0.85723 0.0
H685 H 0.56997 0.26194 0.83877 0.0
H686 H 0.57341 0.1971 0.83533 0.0
H687 H 0.62798 0.17214 0.84177 0.0
H688 H 0.89708 0.69297 0.86142 0.0
H689 H 0.95296 0.7176 0.85986 0.0
H690 H 0.98479 0.68558 0.89999 0.0
H691 H 0.92934 0.65981 0.9012 0.0
H692 H 0.972 0.77387 0.87764 0.0
H693 H 0.0706 0.67238 0.88191 0.0
H694 H 0.0273 0.65961 0.87734 0.0
H695 H 0.04263 0.67235 0.89544 0.0
C696 C 0.91665 0.68927 0.86946 0.0
C697 C 0.9092 0.67382 0.88127 0.0
C698 C 0.94853 0.7037 0.86867 0.0
C699 C 0.97339 0.7036 0.87981 0.0
C700 C 0.9666 0.68539 0.89108 0.0
H701 H 0.09718 0.88713 0.91115 0.0
H702 H 0.06719 0.82921 0.90928 0.0
C703 C 0.93481 0.67052 0.89177 0.0
C704 C 1.00313 0.72841 0.88095 0.0
H705 H 0.08775 0.73541 0.88895 0.0
C706 C 0.99731 0.7651 0.87985 0.0
C707 C 0.03634 0.71738 0.88395 0.0
C708 C 0.04464 0.67819 0.88459 0.0
C709 C 0.02326 0.79102 0.88201 0.0
C710 C 0.05615 0.78038 0.88566 0.0
C711 C 0.06245 0.7436 0.88635 0.0
C712 C 0.08348 0.80809 0.88896 0.0
C713 C 0.01517 0.82996 0.88061 0.0
C714 C 0.10468 0.81428 0.87866 0.0
C715 C 0.12238 0.84731 0.87985 0.0
C716 C 0.11886 0.87451 0.89131 0.0
C717 C 0.10081 0.8664 0.90234 0.0
C718 C 0.08344 0.83338 0.90122 0.0
H719 H 0.99006 0.8325 0.87517 0.0
H720 H 0.0157 0.8461 0.89122 0.0
H721 H 0.03396 0.84193 0.87473 0.0
H722 H 0.1049 0.79527 0.86906 0.0
H723 H 0.13535 0.8532 0.87102 0.0
H724 H 0.0976 0.15341 0.63406 0.0
H725 H 0.05093 0.19145 0.64095 0.0
H726 H 0.1149 0.25234 0.67426 0.0
H727 H 0.1621 0.21463 0.66694 0.0
H728 H 0.01672 0.21187 0.66257 0.0
H729 H 0.08864 0.3309 0.65162 0.0
H730 H 0.10347 0.28523 0.64806 0.0
H731 H 0.10703 0.30904 0.6657 0.0
C732 C 0.10129 0.17364 0.6433 0.0
C733 C 0.13314 0.18056 0.6502 0.0
C734 C 0.0747 0.19585 0.64712 0.0
C735 C 0.07953 0.22552 0.65789 0.0
C736 C 0.11073 0.23035 0.66565 0.0
H737 H 0.89202 0.3423 0.66833 0.0
H738 H 0.94597 0.31826 0.67607 0.0
C739 C 0.13752 0.20839 0.66167 0.0
C740 C 0.05263 0.25267 0.65992 0.0
H741 H 0.03347 0.34087 0.65707 0.0
C742 C 0.02044 0.24019 0.66155 0.0
C743 C 0.05743 0.28961 0.65838 0.0
C744 C 0.0909 0.30454 0.65572 0.0
C745 C 0.99274 0.26289 0.661 0.0
C746 C 0.99748 0.29983 0.65943 0.0
C747 C 0.02989 0.31276 0.65845 0.0
C748 C 0.96877 0.32388 0.65693 0.0
C749 C 0.95848 0.24619 0.66109 0.0
C750 C 0.96492 0.33884 0.64434 0.0
C751 C 0.93459 0.35393 0.6402 0.0
C752 C 0.90772 0.35413 0.64857 0.0
C753 C 0.91261 0.3427 0.66179 0.0
C754 C 0.94321 0.32837 0.66609 0.0
H755 H 0.95885 0.21609 0.65897 0.0
H756 H 0.94908 0.25393 0.67157 0.0
H757 H 0.94066 0.25586 0.65309 0.0
H758 H 0.98434 0.3361 0.63714 0.0
H759 H 0.93113 0.36201 0.62984 0.0
H760 H 0.43645 0.1364 0.39788 0.0
H761 H 0.49354 0.16017 0.39876 0.0
H762 H 0.46279 0.22255 0.36567 0.0
H763 H 0.40742 0.195 0.36364 0.0
H764 H 0.52368 0.2104 0.36406 0.0
H765 H 0.5095 0.25556 0.4207 0.0
H766 H 0.51244 0.20752 0.41588 0.0
H767 H 0.47682 0.23118 0.40934 0.0
C768 C 0.44273 0.15287 0.39009 0.0
C769 C 0.41785 0.16277 0.38036 0.0
C770 C 0.47508 0.16772 0.39095 0.0
C771 C 0.48241 0.19454 0.38271 0.0
C772 C 0.4581 0.20218 0.37226 0.0
H773 H 0.56117 0.39979 0.40064 0.0
H774 H 0.54031 0.33933 0.40202 0.0
C775 C 0.42631 0.18632 0.37105 0.0
C776 C 0.51322 0.21799 0.38575 0.0
H777 H 0.55335 0.28066 0.41102 0.0
C778 C 0.53037 0.22557 0.37436 0.0
C779 C 0.5223 0.23773 0.39924 0.0
C780 C 0.50421 0.23289 0.41197 0.0
C781 C 0.55353 0.25452 0.37571 0.0
C782 C 0.5616 0.27522 0.38911 0.0
C783 C 0.5471 0.26506 0.40075 0.0
C784 C 0.57946 0.31115 0.39089 0.0
C785 C 0.56661 0.26436 0.3625 0.0
C786 C 0.60981 0.31607 0.38504 0.0
C787 C 0.62132 0.35111 0.38391 0.0
C788 C 0.60352 0.38168 0.38922 0.0
C789 C 0.5756 0.37671 0.39657 0.0
C790 C 0.56359 0.34195 0.39733 0.0
H791 H 0.55261 0.25019 0.35286 0.0
H792 H 0.56501 0.29399 0.36224 0.0
H793 H 0.59309 0.2564 0.36214 0.0
H794 H 0.62335 0.29294 0.38045 0.0
H795 H 0.64205 0.354 0.37769 0.0
H796 H 0.4087 0.89823 0.13502 0.0
H797 H 0.46283 0.87119 0.13992 0.0
H798 H 0.4259 0.83025 0.17542 0.0
H799 H 0.37273 0.86006 0.17116 0.0
H800 H 0.49275 0.84147 0.17958 0.0
H801 H 0.4593 0.76359 0.12696 0.0
H802 H 0.46439 0.81116 0.12638 0.0
H803 H 0.43136 0.79537 0.13561 0.0
C804 C 0.41309 0.88611 0.14451 0.0
C805 C 0.38697 0.88236 0.15298 0.0
C806 C 0.44368 0.86953 0.14707 0.0
C807 C 0.44805 0.84762 0.15776 0.0
C808 C 0.42309 0.84677 0.16705 0.0
H809 H 0.58229 0.66692 0.14236 0.0
H810 H 0.5329 0.70003 0.14977 0.0
C811 C 0.39277 0.86401 0.16466 0.0
C812 C 0.47616 0.82181 0.15806 0.0
H813 H 0.51268 0.75312 0.13768 0.0
C814 C 0.4971 0.82206 0.17044 0.0
C815 C 0.48106 0.79541 0.14633 0.0
C816 C 0.45763 0.791 0.13313 0.0
C817 C 0.52358 0.79762 0.17122 0.0
C818 C 0.52983 0.77292 0.15916 0.0
C819 C 0.50815 0.77199 0.14695 0.0
C820 C 0.55995 0.74973 0.15838 0.0
C821 C 0.54419 0.7983 0.18502 0.0
C822 C 0.59184 0.76573 0.16141 0.0
C823 C 0.62008 0.74626 0.15765 0.0
C824 C 0.61709 0.71057 0.15058 0.0
C825 C 0.58555 0.69365 0.14838 0.0
C826 C 0.55721 0.71298 0.15235 0.0
H827 H 0.52908 0.80705 0.19399 0.0
H828 H 0.55474 0.77131 0.1862 0.0
H829 H 0.56502 0.81821 0.1856 0.0
H830 H 0.59484 0.79416 0.16567 0.0
H831 H 0.64411 0.76014 0.15928 0.0
H832 H 0.26142 0.02811 0.10853 0.0
H833 H 0.24611 0.09005 0.10533 0.0
H834 H 0.32894 0.13195 0.13435 0.0
H835 H 0.34481 0.07017 0.13741 0.0
H836 H 0.22673 0.14279 0.12481 0.0
H837 H 0.33922 0.19211 0.10343 0.0
H838 H 0.33188 0.14471 0.10433 0.0
H839 H 0.34816 0.17469 0.11969 0.0
C840 C 0.27678 0.05041 0.11407 0.0
C841 C 0.3045 0.04382 0.1232 0.0
C842 C 0.26791 0.08596 0.11224 0.0
C843 C 0.28656 0.11599 0.11943 0.0
C844 C 0.31454 0.10948 0.12838 0.0
H845 H 0.2432 0.34733 0.13547 0.0
H846 H 0.27271 0.28936 0.13314 0.0
C847 C 0.32349 0.07394 0.13019 0.0
C848 C 0.27519 0.1539 0.11835 0.0
H849 H 0.29956 0.23688 0.11084 0.0
C850 C 0.24265 0.16317 0.12163 0.0
C851 C 0.29591 0.18091 0.11433 0.0
C852 C 0.33063 0.17259 0.11012 0.0
C853 C 0.23046 0.1984 0.12121 0.0
C854 C 0.25106 0.22535 0.11712 0.0
C855 C 0.2837 0.2163 0.11392 0.0
C856 C 0.23862 0.26286 0.11624 0.0
C857 C 0.19571 0.20668 0.12545 0.0
C858 C 0.21107 0.2682 0.10689 0.0
C859 C 0.19444 0.30133 0.10815 0.0
C860 C 0.20526 0.3301 0.11862 0.0
C861 C 0.23487 0.32607 0.12702 0.0
C862 C 0.25146 0.2927 0.12582 0.0
H863 H 0.1863 0.18607 0.13148 0.0
H864 H 0.19498 0.23379 0.13191 0.0
H865 H 0.17848 0.20682 0.11588 0.0
H866 H 0.20092 0.24585 0.09927 0.0
H867 H 0.17133 0.30337 0.10174 0.0
H868 H 0.96989 0.9523 0.3574 0.0
H869 H 0.01798 0.99293 0.35733 0.0
H870 H 0.98463 0.06237 0.393 0.0
H871 H 0.93765 0.02086 0.39346 0.0
H872 H 0.03192 0.06964 0.35757 0.0
H873 H 0.07262 0.02005 0.40787 0.0
H874 H 0.03805 0.99967 0.39632 0.0
H875 H 0.03302 0.04209 0.40734 0.0
C876 C 0.97208 0.97715 0.36479 0.0
C877 C 0.94941 0.98423 0.3751 0.0
C878 C 0.9996 1.00025 0.3648 0.0
C879 C 1.00507 0.03047 0.37526 0.0
C880 C 0.98094 0.03915 0.38486 0.0
H881 H 0.20025 0.13334 0.40334 0.0
H882 H 0.13953 0.12425 0.40035 0.0
C883 C 0.95361 1.01589 0.38492 0.0
C884 C 0.0381 0.04926 0.37736 0.0
H885 H 0.1095 0.05864 0.39935 0.0
C886 C 0.04879 0.06763 0.36677 0.0
C887 C 0.06013 0.04651 0.38937 0.0
C888 C 0.05063 0.02581 0.40085 0.0
C889 C 0.0811 0.0829 0.36779 0.0
C890 C 0.10346 0.07907 0.37958 0.0
C891 C 0.09232 0.06178 0.39036 0.0
C892 C 0.1394 0.08934 0.3804 0.0
C893 C 0.09103 0.10278 0.35618 0.0
C894 C 0.15951 0.07312 0.37012 0.0
C895 C 0.19409 0.07824 0.3718 0.0
C896 C 0.20946 0.09946 0.38387 0.0
C897 C 0.18922 0.11688 0.39392 0.0
C898 C 0.15452 0.1117 0.39222 0.0
H899 H 0.06894 0.1142 0.35077 0.0
H900 H 0.10913 0.12514 0.36024 0.0
H901 H 0.10283 0.0835 0.34826 0.0
H902 H 0.14865 0.05505 0.36109 0.0
H903 H 0.20887 0.0644 0.36385 0.0
H904 H 0.31356 0.70912 0.61405 0.0
H905 H 0.29206 0.7708 0.61554 0.0
H906 H 0.27901 0.77135 0.65944 0.0
H907 H 0.30084 0.70997 0.65812 0.0
H908 H 0.22889 0.79304 0.62315 0.0
H909 H 0.32899 0.86715 0.65926 0.0
H910 H 0.33429 0.8219 0.65024 0.0
H911 H 0.31138 0.82882 0.66559 0.0
C912 C 0.30641 0.72248 0.62406 0.0
C913 C 0.30888 0.70462 0.63597 0.0
C914 C 0.2941 0.75769 0.62488 0.0
C915 C 0.28426 0.77576 0.63763 0.0
C916 C 0.28703 0.75816 0.64956 0.0
H917 H 0.1975 0.98981 0.65913 0.0
H918 H 0.21574 0.92724 0.65976 0.0
C919 C 0.29935 0.72298 0.64876 0.0
C920 C 0.26967 0.81234 0.63827 0.0
H921 H 0.28084 0.9004 0.65371 0.0
C922 C 0.24026 0.81653 0.62982 0.0
C923 C 0.28444 0.84286 0.64705 0.0
C924 C 0.31667 0.84018 0.65597 0.0
C925 C 0.22521 0.85045 0.62991 0.0
C926 C 0.24021 0.88104 0.63855 0.0
C927 C 0.26932 0.8768 0.64717 0.0
C928 C 0.22735 0.91805 0.63807 0.0
C929 C 0.19328 0.85328 0.62082 0.0
C930 C 0.22788 0.93345 0.62568 0.0
C931 C 0.21758 0.969 0.62528 0.0
C932 C 0.20661 0.99003 0.6373 0.0
C933 C 0.2056 0.97432 0.64967 0.0
C934 C 0.21612 0.93866 0.65007 0.0
H935 H 0.18031 0.82655 0.61791 0.0
H936 H 0.17604 0.87272 0.62623 0.0
H937 H 0.19914 0.86324 0.61099 0.0
H938 H 0.23699 0.9182 0.61637 0.0
H939 H 0.21878 0.98016 0.61557 0.0
H940 H 0.5458 0.03894 0.85202 0.0
H941 H 0.48705 0.02008 0.85081 0.0
H942 H 0.47852 0.08006 0.89198 0.0
H943 H 0.53736 0.09764 0.89344 0.0
H944 H 0.45062 0.0174 0.89097 0.0
H945 H 0.40269 0.07095 0.84279 0.0
H946 H 0.43628 0.04016 0.83967 0.0
H947 H 0.44378 0.0824 0.8512 0.0
C948 C 0.53129 0.04844 0.86074 0.0
C949 C 0.54644 0.06979 0.87284 0.0
C950 C 0.4975 0.03781 0.86001 0.0
C951 C 0.4778 0.04894 0.87122 0.0
C952 C 0.49288 0.07092 0.88316 0.0
H953 H 0.26012 0.03166 0.86863 0.0
H954 H 0.31807 0.05037 0.86748 0.0
C955 C 0.52666 0.08107 0.88398 0.0
C956 C 0.44213 0.03637 0.87096 0.0
H957 H 0.36636 0.03073 0.85172 0.0
C958 C 0.43225 0.02051 0.88238 0.0
C959 C 0.41766 0.04071 0.8599 0.0
C960 C 0.42551 0.05983 0.84778 0.0
C961 C 0.39911 1.00889 0.88306 0.0
C962 C 0.37495 1.01177 0.87173 0.0
C963 C 0.38472 0.02789 0.86034 0.0
C964 C 0.3393 0.99938 0.87172 0.0
C965 C 0.39025 0.9948 0.89621 0.0
C966 C 0.33134 0.96406 0.87411 0.0
C967 C 0.29813 0.95344 0.87499 0.0
C968 C 0.27178 0.97753 0.87315 0.0
C969 C 0.27963 1.01229 0.8701 0.0
C970 C 0.31291 0.02308 0.86944 0.0
H971 H 0.40809 1.00496 0.90534 0.0
H972 H 0.36475 1.00284 0.89887 0.0
H973 H 0.39136 0.96475 0.89457 0.0
H974 H 0.35088 0.94466 0.87543 0.0
H975 H 0.29312 0.92633 0.8772 0.0
H976 H 0.35715 0.96645 0.37744 0.0
H977 H 0.33861 0.90379 0.37758 0.0
H978 H 0.27024 0.94111 0.40844 0.0
H979 H 0.28786 1.00382 0.40802 0.0
H980 H 0.33898 0.858 0.39641 0.0
H981 H 0.20704 0.88241 0.38012 0.0
H982 H 0.23943 0.91586 0.37996 0.0
H983 H 0.22129 0.91096 0.39605 0.0
C984 C 0.33818 0.96143 0.3843 0.0
C985 C 0.3239 0.99065 0.39263 0.0
C986 C 0.32755 0.92535 0.38437 0.0
C987 C 0.30229 0.91723 0.39276 0.0
C988 C 0.28894 0.94627 0.40149 0.0
H989 H 0.19316 0.72332 0.40544 0.0
H990 H 0.22302 0.7816 0.40863 0.0
C991 C 0.29932 0.98235 0.40134 0.0
C992 C 0.2898 0.87868 0.3923 0.0
H993 H 0.21874 0.82565 0.38776 0.0
C994 C 0.31267 0.85101 0.39445 0.0
C995 C 0.25547 0.86888 0.38963 0.0
C996 C 0.22944 0.89599 0.38616 0.0
C997 C 0.30219 0.8146 0.39437 0.0
C998 C 0.26783 0.80511 0.392 0.0
C999 C 0.24505 0.83266 0.38975 0.0
C1000 C 0.2546 0.767 0.3917 0.0
C1001 C 0.32796 0.78668 0.39714 0.0
C1002 C 0.26306 0.73829 0.38148 0.0
C1003 C 0.24614 0.70445 0.37979 0.0
C1004 C 0.22058 0.69835 0.38833 0.0
C1005 C 0.21359 0.72641 0.39905 0.0
C1006 C 0.23034 0.76013 0.40072 0.0
H1007 H 0.35184 0.79946 0.40209 0.0
H1008 H 0.31878 0.76807 0.40405 0.0
H1009 H 0.33305 0.77023 0.38704 0.0
H1010 H 0.28108 0.74277 0.37415 0.0
H1011 H 0.25111 0.6842 0.37101 0.0
H1012 H 0.56929 0.96396 0.60457 0.0
H1013 H 0.51365 0.99008 0.60442 0.0
H1014 H 0.5082 0.97408 0.64753 0.0
H1015 H 0.56366 0.94748 0.64775 0.0
H1016 H 0.44981 0.95364 0.62992 0.0
H1017 H 0.49446 0.09204 0.62458 0.0
H1018 H 0.50675 0.05648 0.61148 0.0
H1019 H 0.52226 0.05724 0.6295 0.0
C1020 C 0.55619 0.9658 0.614 0.0
C1021 C 0.57099 0.95408 0.62623 0.0
C1022 C 0.52453 0.98094 0.61391 0.0
C1023 C 0.50728 0.98469 0.62605 0.0
C1024 C 0.52138 0.9717 0.6381 0.0
H1025 H 0.3202 0.07093 0.65166 0.0
H1026 H 0.37678 0.04795 0.65051 0.0
C1027 C 0.55303 0.95656 0.63821 0.0
C1028 C 0.47454 1.00234 0.62626 0.0
H1029 H 0.43601 0.08289 0.62373 0.0
C1030 C 0.44675 0.98189 0.62859 0.0
C1031 C 0.4708 0.03919 0.6245 0.0
C1032 C 0.50016 0.0627 0.62249 0.0
C1033 C 0.41512 0.99731 0.62911 0.0
C1034 C 0.41144 0.03423 0.62747 0.0
C1035 C 0.43911 0.05461 0.62499 0.0
C1036 C 0.37894 0.0521 0.62849 0.0
C1037 C 0.3858 0.97389 0.63125 0.0
C1038 C 0.36225 0.06365 0.61664 0.0
C1039 C 0.32992 0.07698 0.61726 0.0
C1040 C 0.31399 0.07895 0.62977 0.0
C1041 C 0.33167 0.06941 0.64183 0.0
C1042 C 0.36391 0.05612 0.64119 0.0
H1043 H 0.39132 0.94453 0.62904 0.0
H1044 H 0.37963 0.97997 0.64233 0.0
H1045 H 0.36348 0.97961 0.62441 0.0
H1046 H 0.37371 0.06099 0.60678 0.0
H1047 H 0.31699 0.08433 0.60781 0.0
H1048 H 0.14649 0.09284 0.91377 0.0
H1049 H 0.15628 0.15803 0.92054 0.0
H1050 H 0.15389 0.17155 0.87685 0.0
H1051 H 0.14365 0.10682 0.87002 0.0
H1052 H 0.21295 0.18607 0.91443 0.0
H1053 H 0.1112 0.2643 0.89259 0.0
H1054 H 0.10559 0.21758 0.89515 0.0
H1055 H 0.12194 0.22843 0.87937 0.0
C1056 C 0.14699 0.10988 0.90559 0.0
C1057 C 0.1449 0.09461 0.89135 0.0
C1058 C 0.15244 0.14717 0.9095 0.0
C1059 C 0.15555 0.16979 0.89922 0.0
C1060 C 0.1508 0.1549 0.88498 0.0
H1061 H 0.26812 0.30269 0.86748 0.0
H1062 H 0.2225 0.27143 0.87613 0.0
C1063 C 0.14537 0.11769 0.88108 0.0
C1064 C 0.17066 0.20658 0.90305 0.0
H1065 H 0.16824 0.28958 0.89212 0.0
C1066 C 0.20272 0.20929 0.91005 0.0
C1067 C 0.15713 0.23697 0.89751 0.0
C1068 C 0.12188 0.23672 0.89088 0.0
C1069 C 0.22333 0.23965 0.90995 0.0
C1070 C 0.21116 0.26826 0.90286 0.0
C1071 C 0.17765 0.26747 0.89742 0.0
C1072 C 0.23453 0.29356 0.89796 0.0
C1073 C 0.25908 0.23893 0.91604 0.0
C1074 C 0.25588 0.31733 0.90732 0.0
C1075 C 0.28239 0.33488 0.90235 0.0
C1076 C 0.28731 0.32922 0.888 0.0
C1077 C 0.26475 0.30729 0.87862 0.0
C1078 C 0.23853 0.28975 0.88354 0.0
H1079 H 0.26514 0.21316 0.92015 0.0
H1080 H 0.27638 0.24253 0.90794 0.0
H1081 H 0.26368 0.26155 0.9248 0.0
H1082 H 0.25304 0.32088 0.91849 0.0
H1083 H 0.2999 0.35124 0.90974 0.0
H1084 H 0.17078 0.92203 0.11276 0.0
H1085 H 0.11243 0.94001 0.11473 0.0
H1086 H 0.13388 0.97444 0.15908 0.0
H1087 H 0.1919 0.95656 0.15729 0.0
H1088 H 0.06149 0.92269 0.1392 0.0
H1089 H 0.09988 0.06473 0.13566 0.0
H1090 H 0.12186 0.02622 0.12748 0.0
H1091 H 0.12646 0.03846 0.14618 0.0
C1092 C 0.16296 0.9328 0.12299 0.0
C1093 C 0.18622 0.93799 0.13485 0.0
C1094 C 0.12957 0.94301 0.12409 0.0
C1095 C 0.11883 0.95856 0.13706 0.0
C1096 C 0.1416 0.96239 0.14899 0.0
H1097 H 0.95594 0.09757 0.16063 0.0
H1098 H 1.00538 0.05959 0.16102 0.0
C1099 C 0.17485 0.95218 0.14791 0.0
C1100 C 0.0849 0.97405 0.13803 0.0
H1101 H 0.04434 0.05469 0.13997 0.0
C1102 C 0.05758 0.95151 0.13931 0.0
C1103 C 0.07994 1.01163 0.13825 0.0
C1104 C 0.10843 0.03689 0.13677 0.0
C1105 C 0.02547 0.9658 0.14106 0.0
C1106 C 0.02053 1.00354 0.14133 0.0
C1107 C 0.04797 0.02584 0.13989 0.0
C1108 C 0.98739 0.02105 0.14299 0.0
C1109 C 0.99738 0.94051 0.14297 0.0
C1110 C 0.95989 1.01119 0.13319 0.0
C1111 C 0.93121 0.0326 0.13317 0.0
C1112 C 0.92964 0.06432 0.1429 0.0
C1113 C 0.95618 0.07279 0.15323 0.0
C1114 C 0.98462 0.05128 0.15335 0.0
H1115 H 1.0069 0.91517 0.14657 0.0
H1116 H 0.98054 0.95372 0.15065 0.0
H1117 H 0.98254 0.93292 0.13276 0.0
H1118 H 0.96151 0.98862 0.12487 0.0
H1119 H 0.91174 0.0263 0.12473 0.0
H1120 H 0.76838 0.69894 0.8805 0.0
H1121 H 0.73805 0.75632 0.88125 0.0
H1122 H 0.80544 0.80402 0.91605 0.0
H1123 H 0.83593 0.74718 0.91513 0.0
H1124 H 0.70759 0.80978 0.90185 0.0
H1125 H 0.82358 0.86159 0.88377 0.0
H1126 H 0.81566 0.81389 0.88377 0.0
H1127 H 0.82963 0.84249 0.89982 0.0
C1128 C 0.77556 0.72106 0.88879 0.0
C1129 C 0.80427 0.71836 0.8979 0.0
C1130 C 0.7585 0.75409 0.88908 0.0
C1131 C 0.76991 0.78492 0.89849 0.0
C1132 C 0.79643 0.78095 0.90853 0.0
H1133 H 0.74365 0.01873 0.90459 0.0
H1134 H 0.75908 0.95706 0.90811 0.0
C1135 C 0.81355 0.74819 0.90816 0.0
C1136 C 0.7571 0.82195 0.89683 0.0
H1137 H 0.78188 0.90448 0.88923 0.0
C1138 C 0.72377 0.83046 0.89905 0.0
C1139 C 0.77808 0.84907 0.89309 0.0
C1140 C 0.81364 0.84135 0.88984 0.0
C1141 C 0.71125 0.86551 0.89803 0.0
C1142 C 0.7324 0.89273 0.89444 0.0
C1143 C 0.7656 0.88396 0.89209 0.0
C1144 C 0.72094 0.93046 0.89297 0.0
C1145 C 0.6757 0.87329 0.90121 0.0
C1146 C 0.69422 0.93654 0.88329 0.0
C1147 C 0.68522 0.97197 0.88127 0.0
C1148 C 0.70286 1.0024 0.8888 0.0
C1149 C 0.72933 0.9962 0.89861 0.0
C1150 C 0.73827 0.96079 0.90063 0.0
H1151 H 0.66605 0.85363 0.9076 0.0
H1152 H 0.67344 0.90114 0.9069 0.0
H1153 H 0.65968 0.87101 0.8912 0.0
H1154 H 0.68086 0.91384 0.87697 0.0
H1155 H 0.66488 0.97543 0.87354 0.0
H1156 H 0.08609 0.02877 0.66003 0.0
H1157 H 0.03667 0.98962 0.65826 0.0
H1158 H 0.99101 0.04605 0.62572 0.0
H1159 H 0.04161 0.08343 0.62677 0.0
H1160 H 0.97673 0.99793 0.66269 0.0
H1161 H 0.97754 0.94627 0.60635 0.0
H1162 H 0.01144 0.97346 0.61586 0.0
H1163 H 0.97502 0.99467 0.60863 0.0
C1164 C 0.06538 0.03287 0.65254 0.0
C1165 C 0.06754 0.05888 0.64346 0.0
C1166 C 0.03721 1.0104 0.6515 0.0
C1167 C 1.01044 1.01407 0.64155 0.0
C1168 C 0.01188 0.04158 0.63304 0.0
H1169 H 0.80851 0.96058 0.64535 0.0
H1170 H 0.86612 0.98085 0.64984 0.0
C1171 C 0.04052 0.0633 0.63378 0.0
C1172 C 0.98076 0.98969 0.64032 0.0
H1173 H 0.92501 0.94061 0.61641 0.0
C1174 C 0.96577 0.98491 0.65257 0.0
C1175 C 0.96701 0.9714 0.62722 0.0
C1176 C 0.9839 0.97137 0.61382 0.0
C1177 C 0.93639 0.96424 0.65199 0.0
C1178 C 0.92059 0.94954 0.63875 0.0
C1179 C 0.93666 0.95241 0.62658 0.0
C1180 C 0.88607 0.93452 0.63713 0.0
C1181 C 0.92275 0.95851 0.66563 0.0
C1182 C 0.87767 0.90202 0.62815 0.0
C1183 C 0.84427 0.89089 0.62515 0.0
C1184 C 0.81891 0.91188 0.63124 0.0
C1185 C 0.82751 0.94351 0.64064 0.0
C1186 C 0.86063 0.95501 0.64335 0.0
H1187 H 0.94334 0.95687 0.6739 0.0
H1188 H 0.90734 0.98204 0.66933 0.0
H1189 H 0.90726 0.93336 0.66445 0.0
H1190 H 0.89684 0.88584 0.62315 0.0
H1191 H 0.83826 0.8664 0.61786 0.0
H1192 H 0.72095 0.33517 0.40667 0.0
H1193 H 0.75991 0.28535 0.40788 0.0
H1194 H 0.78158 0.28944 0.36512 0.0
H1195 H 0.74315 0.33965 0.36386 0.0
H1196 H 0.75732 0.21887 0.39141 0.0
H1197 H 0.87458 0.29226 0.38578 0.0
H1198 H 0.83648 0.31535 0.38992 0.0
H1199 H 0.84234 0.29627 0.37212 0.0
C1200 C 0.73396 0.32543 0.39751 0.0
C1201 C 0.72914 0.34138 0.38519 0.0
C1202 C 0.75631 0.29715 0.39826 0.0
C1203 C 0.77417 0.28449 0.38671 0.0
C1204 C 0.76873 0.29965 0.37427 0.0
H1205 H 0.87653 0.09263 0.36062 0.0
H1206 H 0.85826 0.15551 0.36356 0.0
C1207 C 0.74648 0.32801 0.37352 0.0
C1208 C 0.797 0.25389 0.38739 0.0
H1209 H 0.87714 0.22739 0.38319 0.0
C1210 C 0.7836 0.22083 0.38981 0.0
C1211 C 0.83124 0.25674 0.38527 0.0
C1212 C 0.84713 0.29216 0.38326 0.0
C1213 C 0.8033 0.19002 0.38969 0.0
C1214 C 0.83736 0.19265 0.38728 0.0
C1215 C 0.85102 0.22579 0.38509 0.0
C1216 C 0.85808 0.16017 0.38613 0.0
C1217 C 0.78731 0.15454 0.39167 0.0
C1218 C 0.86599 0.14319 0.39797 0.0
C1219 C 0.8762 0.10726 0.39634 0.0
C1220 C 0.87852 0.08806 0.38283 0.0
C1221 C 0.87455 0.10664 0.37114 0.0
C1222 C 0.86423 0.14257 0.37279 0.0
H1223 H 0.75968 0.15602 0.39125 0.0
H1224 H 0.79416 0.13237 0.38348 0.0
H1225 H 0.79649 0.1473 0.40204 0.0
H1226 H 0.86155 0.15668 0.40835 0.0
H1227 H 0.87967 0.09377 0.40556 0.0
H1228 H 0.7165 0.11559 0.12891 0.0
H1229 H 0.65824 0.09842 0.13043 0.0
H1230 H 0.68978 0.99572 0.14224 0.0
H1231 H 0.74801 1.01366 0.1415 0.0
H1232 H 0.61856 0.05042 0.11715 0.0
H1233 H 0.62871 0.02079 0.17167 0.0
H1234 H 0.66248 0.04156 0.16438 0.0
H1235 H 0.65639 0.99298 0.16133 0.0
C1236 C 0.71104 0.08944 0.13194 0.0
C1237 C 0.73711 0.06622 0.13522 0.0
C1238 C 0.67758 0.07956 0.1328 0.0
C1239 C 0.66913 0.04598 0.1368 0.0
C1240 C 0.69522 0.02234 0.13967 0.0
H1241 H 0.46835 0.9507 0.11639 0.0
H1242 H 0.52709 0.96798 0.11694 0.0
C1243 C 0.72869 0.03253 0.13911 0.0
C1244 C 0.63316 0.03529 0.13745 0.0
H1245 H 0.5791 0.99895 0.15756 0.0
C1246 C 0.61003 0.03944 0.12607 0.0
C1247 C 0.6213 0.02156 0.14915 0.0
C1248 C 0.64347 0.01936 0.16237 0.0
C1249 C 0.57604 0.02981 0.12593 0.0
C1250 C 0.56463 1.0139 0.13723 0.0
C1251 C 0.58758 1.01044 0.14875 0.0
C1252 C 0.52909 1.00109 0.13736 0.0
C1253 C 0.55265 0.03797 0.11378 0.0
C1254 C 0.51062 1.01167 0.14902 0.0
C1255 C 0.47704 1.00074 0.1489 0.0
C1256 C 0.46094 0.97928 0.13705 0.0
C1257 C 0.47972 0.96773 0.12561 0.0
C1258 C 0.51339 0.97799 0.12585 0.0
H1259 H 0.56232 0.06075 0.10892 0.0
H1260 H 0.55035 1.01378 0.10558 0.0
H1261 H 0.52747 0.04509 0.11713 0.0
H1262 H 0.52194 0.02913 0.15813 0.0
H1263 H 0.46337 1.01011 0.15791 0.0
H1264 H 0.7716 0.31788 0.64185 0.0
H1265 H 0.74485 0.25748 0.63765 0.0
H1266 H 0.80348 0.22751 0.60253 0.0
H1267 H 0.83076 0.28726 0.60699 0.0
H1268 H 0.71004 0.20932 0.61566 0.0
H1269 H 0.83576 0.15793 0.62958 0.0
H1270 H 0.82645 0.20562 0.63198 0.0
H1271 H 0.83385 0.18252 0.61487 0.0
C1272 C 0.77743 0.29908 0.63277 0.0
C1273 C 0.80265 0.3079 0.62451 0.0
C1274 C 0.76248 0.26425 0.6305 0.0
C1275 C 0.77268 0.23738 0.61998 0.0
C1276 C 0.79554 0.24735 0.61089 0.0
H1277 H 0.74827 1.00022 0.60339 0.0
H1278 H 0.76196 0.06392 0.6024 0.0
C1279 C 0.81059 0.282 0.61323 0.0
C1280 C 0.76219 0.19839 0.61942 0.0
H1281 H 0.79301 0.11401 0.62254 0.0
C1282 C 0.7282 0.18851 0.61716 0.0
C1283 C 0.78573 0.17096 0.62147 0.0
C1284 C 0.82245 0.17971 0.62475 0.0
C1285 C 0.71728 0.15215 0.61661 0.0
C1286 C 0.74087 0.12475 0.61865 0.0
C1287 C 0.77483 0.1347 0.62089 0.0
C1288 C 0.73104 0.0858 0.6188 0.0
C1289 C 0.68057 0.14336 0.61355 0.0
C1290 C 0.70922 0.07636 0.6284 0.0
C1291 C 0.7013 0.03986 0.62899 0.0
C1292 C 0.71512 1.01155 0.62004 0.0
C1293 C 0.73694 0.02106 0.61041 0.0
C1294 C 0.74487 0.05762 0.60984 0.0
H1295 H 0.66744 0.16431 0.60815 0.0
H1296 H 0.67636 0.11657 0.60692 0.0
H1297 H 0.66921 0.14248 0.62359 0.0
H1298 H 0.69879 0.09724 0.6357 0.0
H1299 H 0.68459 0.03386 0.63662 0.0
H1300 H 0.77121 0.03773 0.37695 0.0
H1301 H 0.71288 0.05624 0.37787 0.0
H1302 H 0.68745 0.95284 0.38972 0.0
H1303 H 0.74589 0.93544 0.38972 0.0
H1304 H 0.65787 0.03585 0.36449 0.0
H1305 H 0.64319 1.01363 0.41888 0.0
H1306 H 0.68319 1.01101 0.41172 0.0
H1307 H 0.655 0.97234 0.40874 0.0
C1308 C 0.75317 0.01915 0.37989 0.0
C1309 C 0.76331 0.98535 0.38348 0.0
C1310 C 0.71972 0.02969 0.38039 0.0
C1311 C 0.69544 1.00645 0.38424 0.0
C1312 C 0.70554 0.97211 0.38731 0.0
H1313 H 0.47995 0.0316 0.3646 0.0
H1314 H 0.53935 0.01823 0.36363 0.0
C1315 C 0.73906 0.96199 0.38719 0.0
C1316 C 0.65962 0.01768 0.38473 0.0
H1317 H 0.5927 0.01882 0.40449 0.0
C1318 C 0.64378 0.03243 0.37333 0.0
C1319 C 0.64096 1.01417 0.39633 0.0
C1320 C 0.65661 1.00233 0.40966 0.0
C1321 C 0.61011 0.043 0.37308 0.0
C1322 C 0.59086 0.03717 0.38427 0.0
C1323 C 0.60689 0.02297 0.39576 0.0
C1324 C 0.55441 0.04603 0.38452 0.0
C1325 C 0.59605 0.06136 0.36099 0.0
C1326 C 0.54225 0.06505 0.3967 0.0
C1327 C 0.50807 0.07144 0.39743 0.0
C1328 C 0.48507 0.05969 0.38591 0.0
C1329 C 0.4971 0.0414 0.3736 0.0
C1330 C 0.53124 0.03404 0.37301 0.0
H1331 H 0.61601 0.07519 0.35633 0.0
H1332 H 0.5842 0.04063 0.35263 0.0
H1333 H 0.57714 0.08172 0.3643 0.0
H1334 H 0.55922 0.0748 0.40576 0.0
H1335 H 0.49964 0.08581 0.40704 0.0
H1336 H 0.81545 0.95227 0.11026 0.0
H1337 H 0.80893 0.88675 0.10711 0.0
H1338 H 0.8832 0.88117 0.14156 0.0
H1339 H 0.88865 0.94756 0.14527 0.0
H1340 H 0.8431 0.82439 0.10295 0.0
H1341 H 0.8011 0.84761 0.15714 0.0
H1342 H 0.81072 0.88464 0.148 0.0
H1343 H 0.84374 0.85923 0.15552 0.0
C1344 C 0.83088 0.93717 0.11704 0.0
C1345 C 0.85174 0.95506 0.12832 0.0
C1346 C 0.82731 0.89958 0.11515 0.0
C1347 C 0.84484 0.87916 0.12437 0.0
C1348 C 0.86867 0.89659 0.13461 0.0
H1349 H 0.74557 0.68766 0.14157 0.0
H1350 H 0.79561 0.72081 0.13781 0.0
C1351 C 0.87177 0.93444 0.13671 0.0
C1352 C 0.83362 0.84135 0.12455 0.0
H1353 H 0.78871 0.792 0.14379 0.0
C1354 C 0.83188 0.81686 0.11198 0.0
C1355 C 0.81886 0.83161 0.13634 0.0
C1356 C 0.81839 0.85712 0.14999 0.0
C1357 C 0.81394 0.78394 0.11063 0.0
C1358 C 0.79747 0.7755 0.12213 0.0
C1359 C 0.80149 0.79856 0.13499 0.0
C1360 C 0.77203 0.74618 0.12083 0.0
C1361 C 0.81169 0.75922 0.09679 0.0
C1362 C 0.74255 0.7481 0.11209 0.0
C1363 C 0.71413 0.72822 0.114 0.0
C1364 C 0.71504 0.70616 0.1246 0.0
C1365 C 0.74495 0.70277 0.13278 0.0
C1366 C 0.77342 0.72208 0.13075 0.0
H1367 H 0.83392 0.76254 0.09096 0.0
H1368 H 0.80928 0.73035 0.09829 0.0
H1369 H 0.78939 0.76624 0.09023 0.0
H1370 H 0.74055 0.76736 0.10468 0.0
H1371 H 0.69094 0.73203 0.1079 0.0
H1372 H 0.082 1.01087 0.90293 0.0
H1373 H 0.03182 0.04707 0.90042 0.0
H1374 H 0.02497 1.01372 0.85565 0.0
H1375 H 0.07547 0.9775 0.85818 0.0
H1376 H 1.0064 0.10273 0.88292 0.0
H1377 H 0.94197 0.968 0.87092 0.0
H1378 H 0.98456 0.97327 0.87844 0.0
H1379 H 0.97486 0.97599 0.86015 0.0
C1380 C 0.07063 1.01265 0.89249 0.0
C1381 C 0.08294 0.99204 0.88071 0.0
C1382 C 0.04187 0.03319 0.89107 0.0
C1383 C 0.02444 0.03284 0.87787 0.0
C1384 C 0.03802 1.01432 0.86594 0.0
H1385 H 0.81443 0.07392 0.85927 0.0
H1386 H 0.87354 0.06184 0.85744 0.0
C1387 C 0.06707 0.99396 0.86736 0.0
C1388 C 0.98999 0.04722 0.87702 0.0
H1389 H 0.90841 0.01928 0.87219 0.0
C1390 C 0.98491 0.08461 0.88044 0.0
C1391 C 0.96199 0.02348 0.87395 0.0
C1392 C 0.96586 0.98291 0.87075 0.0
C1393 C 0.95251 0.09891 0.88072 0.0
C1394 C 0.92448 0.07505 0.87785 0.0
C1395 C 0.92976 0.03769 0.87434 0.0
C1396 C 0.88932 0.0876 0.87849 0.0
C1397 C 0.9487 0.13943 0.88388 0.0
C1398 C 0.87826 0.107 0.89084 0.0
C1399 C 0.84425 0.11444 0.89185 0.0
C1400 C 0.82063 0.10196 0.88063 0.0
C1401 C 0.83194 0.08373 0.86815 0.0
C1402 C 0.8658 0.07678 0.86708 0.0
H1403 H 0.97114 0.15412 0.88148 0.0
H1404 H 0.92655 0.14863 0.87778 0.0
H1405 H 0.94549 0.147 0.89522 0.0
H1406 H 0.89565 0.11496 0.89993 0.0
H1407 H 0.83629 0.12822 0.90164 0.0
H1408 H 0.78186 0.50044 0.60716 0.0
H1409 H 0.76724 0.5623 0.60369 0.0
H1410 H 0.8472 0.60431 0.6342 0.0
H1411 H 0.86238 0.54245 0.63761 0.0
H1412 H 0.74626 0.61499 0.62329 0.0
H1413 H 0.86058 0.66395 0.60302 0.0
H1414 H 0.85264 0.61652 0.60369 0.0
H1415 H 0.86789 0.64614 0.6193 0.0
C1416 C 0.79673 0.52273 0.61301 0.0
C1417 C 0.8234 0.51618 0.62267 0.0
C1418 C 0.78827 0.55822 0.61101 0.0
C1419 C 0.8063 0.58822 0.61853 0.0
C1420 C 0.8333 0.5818 0.62801 0.0
H1421 H 0.76113 0.81954 0.63173 0.0
H1422 H 0.79141 0.76207 0.63033 0.0
C1423 C 0.84183 0.54625 0.63002 0.0
C1424 C 0.79511 0.62599 0.61721 0.0
H1425 H 0.81971 0.70826 0.60913 0.0
C1426 C 0.76233 0.63522 0.6201 0.0
C1427 C 0.81607 0.65275 0.61318 0.0
C1428 C 0.85117 0.64436 0.60949 0.0
C1429 C 0.75004 0.67018 0.6192 0.0
C1430 C 0.77078 0.69682 0.615 0.0
C1431 C 0.80372 0.68787 0.61226 0.0
C1432 C 0.75812 0.73389 0.6135 0.0
C1433 C 0.71498 0.67849 0.62305 0.0
C1434 C 0.73081 0.73805 0.60387 0.0
C1435 C 0.71366 0.77081 0.60463 0.0
C1436 C 0.7238 0.80036 0.61487 0.0
C1437 C 0.75327 0.79754 0.62349 0.0
C1438 C 0.77033 0.76451 0.62282 0.0
H1439 H 0.70548 0.65851 0.62934 0.0
H1440 H 0.71373 0.70604 0.62913 0.0
H1441 H 0.69813 0.67748 0.61331 0.0
H1442 H 0.72118 0.71508 0.59644 0.0
H1443 H 0.69069 0.77201 0.59803 0.0
H1444 H 0.70377 0.59666 0.86273 0.0
H1445 H 0.64735 0.57083 0.85994 0.0
H1446 H 0.63732 0.60338 0.90405 0.0
H1447 H 0.6937 0.62959 0.90696 0.0
H1448 H 0.6307 0.51399 0.8743 0.0
H1449 H 0.54734 0.63107 0.88552 0.0
H1450 H 0.5896 0.6362 0.88098 0.0
H1451 H 0.58175 0.62944 0.89848 0.0
C1452 C 0.68931 0.59915 0.87179 0.0
C1453 C 0.70332 0.61496 0.8851 0.0
C1454 C 0.65708 0.58428 0.87017 0.0
C1455 C 0.63817 0.58523 0.88177 0.0
C1456 C 0.65133 0.60283 0.89492 0.0
H1457 H 0.45557 0.48509 0.89916 0.0
H1458 H 0.50901 0.517 0.9001 0.0
C1459 C 0.6836 0.61774 0.89656 0.0
C1460 C 0.60634 0.56448 0.88042 0.0
H1461 H 0.52331 0.5723 0.88485 0.0
C1462 C 0.60713 0.52674 0.87648 0.0
C1463 C 0.57577 0.58121 0.88337 0.0
C1464 C 0.57336 0.62175 0.88721 0.0
C1465 C 0.57824 0.50511 0.87571 0.0
C1466 C 0.54767 0.5218 0.87872 0.0
C1467 C 0.54683 0.55959 0.88256 0.0
C1468 C 0.51628 0.50055 0.87817 0.0
C1469 C 0.58089 0.4645 0.87209 0.0
C1470 C 0.50283 0.48041 0.86553 0.0
C1471 C 0.47232 0.46191 0.86497 0.0
C1472 C 0.45463 0.46358 0.87701 0.0
C1473 C 0.46854 0.48325 0.88969 0.0
C1474 C 0.49902 0.50161 0.89025 0.0
H1475 H 0.60705 0.45543 0.87358 0.0
H1476 H 0.56527 0.45023 0.87861 0.0
H1477 H 0.57191 0.45627 0.86091 0.0
H1478 H 0.5155 0.47972 0.85603 0.0
H1479 H 0.46217 0.44719 0.85502 0.0
H1480 H 0.68401 0.51966 0.16088 0.0
H1481 H 0.70576 0.45871 0.16243 0.0
H1482 H 0.73432 0.45094 0.12006 0.0
H1483 H 0.71316 0.5113 0.1184 0.0
H1484 H 0.68852 0.3916 0.14526 0.0
H1485 H 0.82099 0.42886 0.14244 0.0
H1486 H 0.78941 0.46225 0.14633 0.0
H1487 H 0.79387 0.44239 0.12849 0.0
C1488 C 0.69484 0.50491 0.15189 0.0
C1489 C 0.69707 0.52057 0.13957 0.0
C1490 C 0.70731 0.47016 0.15281 0.0
C1491 C 0.72232 0.45073 0.14147 0.0
C1492 C 0.72361 0.46586 0.12906 0.0
H1493 H 0.80292 0.24194 0.11496 0.0
H1494 H 0.78357 0.3046 0.11791 0.0
C1495 C 0.71126 0.50037 0.12812 0.0
C1496 C 0.73625 0.41431 0.14233 0.0
H1497 H 0.80729 0.36544 0.13818 0.0
C1498 C 0.71457 0.3859 0.14392 0.0
C1499 C 0.77027 0.40704 0.14057 0.0
C1500 C 0.79507 0.43681 0.1395 0.0
C1501 C 0.72571 0.35004 0.14318 0.0
C1502 C 0.75949 0.34265 0.14098 0.0
C1503 C 0.78137 0.37122 0.13978 0.0
C1504 C 0.77237 0.30524 0.13948 0.0
C1505 C 0.70099 0.32016 0.1442 0.0
C1506 C 0.77317 0.28523 0.15073 0.0
C1507 C 0.78423 0.24949 0.14909 0.0
C1508 C 0.79473 0.23314 0.13615 0.0
C1509 C 0.79476 0.25364 0.12501 0.0
C1510 C 0.78377 0.28944 0.12669 0.0
H1511 H 0.67481 0.32931 0.14297 0.0
H1512 H 0.70432 0.29645 0.13608 0.0
H1513 H 0.70524 0.31109 0.15465 0.0
H1514 H 0.76505 0.29719 0.16076 0.0
H1515 H 0.78411 0.23455 0.15791 0.0
H1516 H 0.7552 0.52042 0.36212 0.0
H1517 H 0.81482 0.53303 0.36149 0.0
H1518 H 0.83665 0.47723 0.39721 0.0
H1519 H 0.7773 0.46402 0.3978 0.0
H1520 H 0.86056 0.57066 0.38091 0.0
H1521 H 0.89919 0.42763 0.36996 0.0
H1522 H 0.85607 0.44072 0.36844 0.0
H1523 H 0.87679 0.43676 0.38537 0.0
C1524 C 0.77263 0.51077 0.36986 0.0
C1525 C 0.76118 0.49098 0.37997 0.0
C1526 C 0.80682 0.51803 0.36948 0.0
C1527 C 0.83053 0.5055 0.37912 0.0
C1528 C 0.81911 0.48644 0.38941 0.0
H1529 H 0.04409 0.52047 0.3994 0.0
H1530 H 0.98395 0.51001 0.39787 0.0
C1531 C 0.78498 0.47916 0.38981 0.0
C1532 C 0.86704 0.51288 0.3786 0.0
H1533 H 0.9428 0.47176 0.37647 0.0
C1534 C 0.87848 0.54899 0.37981 0.0
C1535 C 0.89064 0.48471 0.37713 0.0
C1536 C 0.88008 0.44527 0.37501 0.0
C1537 C 0.91272 0.55768 0.38008 0.0
C1538 C 0.93638 0.52958 0.37886 0.0
C1539 C 0.92486 0.49344 0.37743 0.0
C1540 C 0.97323 0.53698 0.37967 0.0
C1541 C 0.92336 0.597 0.38217 0.0
C1542 C 0.98771 0.55566 0.36991 0.0
C1543 C 0.02245 0.56172 0.37075 0.0
C1544 C 0.04351 0.54918 0.38135 0.0
C1545 C 0.02884 0.53063 0.39109 0.0
C1546 C 0.9943 0.52449 0.39022 0.0
H1547 H 0.90335 0.61516 0.38615 0.0
H1548 H 0.94591 0.60175 0.38967 0.0
H1549 H 0.92953 0.60449 0.37196 0.0
H1550 H 0.97221 0.56516 0.36152 0.0
H1551 H 0.03278 0.57613 0.36307 0.0
H1552 H 0.83844 0.48391 0.87176 0.0
H1553 H 0.82312 0.42048 0.87233 0.0
H1554 H 0.76198 0.45392 0.90634 0.0
H1555 H 0.77659 0.51739 0.90566 0.0
H1556 H 0.83162 0.37603 0.89251 0.0
H1557 H 0.6964 0.39184 0.87934 0.0
H1558 H 0.72664 0.42658 0.87779 0.0
H1559 H 0.71234 0.42194 0.89463 0.0
C1560 C 0.82162 0.47789 0.87935 0.0
C1561 C 0.80858 0.50615 0.88858 0.0
C1562 C 0.81293 0.44142 0.87969 0.0
C1563 C 0.79086 0.43207 0.88922 0.0
C1564 C 0.77838 0.46017 0.89864 0.0
H1565 H 0.69314 0.23147 0.9019 0.0
H1566 H 0.72043 0.29125 0.90598 0.0
C1567 C 0.78695 0.49664 0.89828 0.0
C1568 C 0.78087 0.39311 0.88927 0.0
H1569 H 0.71311 0.33575 0.88625 0.0
C1570 C 0.80569 0.36725 0.89111 0.0
C1571 C 0.74705 0.38125 0.8874 0.0
C1572 C 0.71908 0.40674 0.88454 0.0
C1573 C 0.79763 0.33039 0.89141 0.0
C1574 C 0.7638 0.31865 0.88964 0.0
C1575 C 0.73905 0.34452 0.88777 0.0
C1576 C 0.75312 0.27973 0.88925 0.0
C1577 C 0.82545 0.30449 0.8939 0.0
C1578 C 0.7634 0.25225 0.87897 0.0
C1579 C 0.7482 0.21756 0.87685 0.0
C1580 C 0.7224 0.20951 0.88495 0.0
C1581 C 0.71386 0.23617 0.89587 0.0
C1582 C 0.72905 0.27074 0.89802 0.0
H1583 H 0.84831 0.31902 0.89911 0.0
H1584 H 0.81788 0.2842 0.90046 0.0
H1585 H 0.8318 0.28978 0.88366 0.0
H1586 H 0.78129 0.25837 0.87182 0.0
H1587 H 0.75435 0.19823 0.86798 0.0
H1588 H 0.80595 0.60566 0.15319 0.0
H1589 H 0.86369 0.58649 0.1525 0.0
H1590 H 0.86034 0.59763 0.10858 0.0
H1591 H 0.80218 0.61657 0.1091 0.0
H1592 H 0.88084 0.52951 0.11476 0.0
H1593 H 0.95141 0.6398 0.14977 0.0
H1594 H 0.91634 0.62303 0.15742 0.0
H1595 H 0.90958 0.64553 0.14217 0.0
C1596 C 0.81763 0.60475 0.14343 0.0
C1597 C 0.79946 0.61238 0.13117 0.0
C1598 C 0.85072 0.59398 0.14309 0.0
C1599 C 0.86629 0.59095 0.13052 0.0
C1600 C 0.8487 0.59999 0.11839 0.0
H1601 H 0.0564 0.49628 0.10961 0.0
H1602 H 1.00161 0.52427 0.10859 0.0
C1603 C 0.81554 0.61085 0.11872 0.0
C1604 C 0.89966 0.5748 0.12981 0.0
H1605 H 0.97962 0.58361 0.14471 0.0
C1606 C 0.90259 0.54153 0.12115 0.0
C1607 C 0.92779 0.5905 0.13826 0.0
C1608 C 0.92629 0.62686 0.14734 0.0
C1609 C 0.93278 0.52291 0.12105 0.0
C1610 C 0.96073 0.53831 0.12969 0.0
C1611 C 0.95798 0.57187 0.13817 0.0
C1612 C 0.99313 0.51997 0.13013 0.0
C1613 C 0.93429 0.48641 0.11207 0.0
C1614 C 1.00642 0.50847 0.1426 0.0
C1615 C 0.03773 0.49251 0.14324 0.0
C1616 C 0.05632 0.48814 0.13143 0.0
C1617 C 0.04267 0.49923 0.11888 0.0
C1618 C 0.01135 0.51511 0.11826 0.0
H1619 H 0.90903 0.47488 0.10847 0.0
H1620 H 0.94753 0.48941 0.10265 0.0
H1621 H 0.94829 0.46689 0.11791 0.0
H1622 H 0.99263 0.51208 0.15187 0.0
H1623 H 0.04758 0.48423 0.15305 0.0
H1624 H 0.80261 0.81644 0.3991 0.0
H1625 H 0.75627 0.7726 0.39622 0.0
H1626 H 0.72293 0.80653 0.35661 0.0
H1627 H 0.76938 0.85003 0.35924 0.0
H1628 H 0.68499 0.7885 0.39217 0.0
H1629 H 0.73232 0.69507 0.34792 0.0
H1630 H 0.75902 0.72833 0.359 0.0
H1631 H 0.72917 0.74229 0.34606 0.0
C1632 C 0.78568 0.81425 0.3897 0.0
C1633 C 0.78971 0.83653 0.37937 0.0
C1634 C 0.7591 0.7895 0.38814 0.0
C1635 C 0.73629 0.7866 0.37624 0.0
C1636 C 0.74046 0.80836 0.36582 0.0
H1637 H 0.61218 0.59487 0.35703 0.0
H1638 H 0.62122 0.65932 0.35613 0.0
C1639 C 0.76708 0.83305 0.36734 0.0
C1640 C 0.70866 0.75999 0.37468 0.0
H1641 H 0.68477 0.67679 0.35743 0.0
C1642 C 0.68447 0.76427 0.38444 0.0
C1643 C 0.70784 0.72893 0.36441 0.0
C1644 C 0.7335 0.72305 0.35377 0.0
C1645 C 0.66053 0.73701 0.38472 0.0
C1646 C 0.66141 0.70463 0.37517 0.0
C1647 C 0.68401 0.70172 0.36473 0.0
C1648 C 0.64442 0.67093 0.37733 0.0
C1649 C 0.63535 0.74265 0.39553 0.0
C1650 C 0.6524 0.65672 0.38987 0.0
C1651 C 0.64715 0.62001 0.39043 0.0
C1652 C 0.63443 0.59695 0.37837 0.0
C1653 C 0.62269 0.61199 0.36639 0.0
C1654 C 0.62763 0.64883 0.36588 0.0
H1655 H 0.62845 0.77166 0.39758 0.0
H1656 H 0.61239 0.72598 0.39217 0.0
H1657 H 0.64654 0.73503 0.40556 0.0
H1658 H 0.66589 0.67301 0.39877 0.0
H1659 H 0.65609 0.60923 0.39986 0.0
H1660 H 0.7153 0.46211 0.65209 0.0
H1661 H 0.65701 0.47615 0.65493 0.0
H1662 H 0.62722 0.40011 0.61798 0.0
H1663 H 0.68611 0.38565 0.61503 0.0
H1664 H 0.61622 0.50508 0.63369 0.0
H1665 H 0.56104 0.37886 0.64739 0.0
H1666 H 0.60535 0.38855 0.64984 0.0
H1667 H 0.58579 0.37455 0.63254 0.0
C1668 C 0.69646 0.44788 0.64462 0.0
C1669 C 0.70553 0.42288 0.63325 0.0
C1670 C 0.66303 0.45595 0.6463 0.0
C1671 C 0.63763 0.43914 0.63673 0.0
C1672 C 0.64634 0.41308 0.62563 0.0
H1673 H 0.42796 0.50064 0.62739 0.0
H1674 H 0.47853 0.464 0.62659 0.0
C1675 C 0.68002 0.40492 0.62392 0.0
C1676 C 0.60272 0.45191 0.63777 0.0
H1677 H 0.52471 0.42799 0.64542 0.0
C1678 C 0.59624 0.48815 0.63622 0.0
C1679 C 0.57653 0.42975 0.64095 0.0
C1680 C 0.58231 0.39078 0.64287 0.0
C1681 C 0.56456 0.503 0.6379 0.0
C1682 C 0.53859 0.48133 0.6416 0.0
C1683 C 0.5447 0.44471 0.64277 0.0
C1684 C 0.50527 0.49698 0.6443 0.0
C1685 C 0.55913 0.54185 0.63559 0.0
C1686 C 0.50262 0.52618 0.65509 0.0
C1687 C 0.47374 0.54696 0.65558 0.0
C1688 C 0.44667 0.53848 0.6455 0.0
C1689 C 0.44798 0.50706 0.63559 0.0
C1690 C 0.47709 0.48639 0.63501 0.0
H1691 H 0.57843 0.5515 0.62932 0.0
H1692 H 0.5342 0.54508 0.63011 0.0
H1693 H 0.56054 0.55953 0.6459 0.0
H1694 H 0.52387 0.53461 0.66249 0.0
H1695 H 0.4736 0.57141 0.66315 0.0
H1696 H 0.30891 0.20543 0.41313 0.0
H1697 H 0.2767 0.26173 0.41595 0.0
H1698 H 0.26955 0.26043 0.37108 0.0
H1699 H 0.29965 0.20384 0.36835 0.0
H1700 H 0.29282 0.32458 0.41181 0.0
H1701 H 0.17952 0.29372 0.37638 0.0
H1702 H 0.20679 0.25836 0.38107 0.0
H1703 H 0.21476 0.28213 0.3666 0.0
C1704 C 0.29861 0.21604 0.40386 0.0
C1705 C 0.3058 0.19922 0.39046 0.0
C1706 C 0.28072 0.24881 0.40546 0.0
C1707 C 0.26989 0.26581 0.39372 0.0
C1708 C 0.2761 0.24793 0.38036 0.0
H1709 H 0.2587 0.50093 0.39485 0.0
H1710 H 0.27513 0.43838 0.396 0.0
C1711 C 0.29341 0.21518 0.37877 0.0
C1712 C 0.25547 0.30362 0.39534 0.0
H1713 H 0.19752 0.35689 0.38039 0.0
C1714 C 0.2716 0.33135 0.40506 0.0
C1715 C 0.22728 0.31325 0.38686 0.0
C1716 C 0.20593 0.28513 0.37728 0.0
C1717 C 0.26141 0.36792 0.40611 0.0
C1718 C 0.23513 0.37803 0.39673 0.0
C1719 C 0.21812 0.35004 0.38744 0.0
C1720 C 0.225 0.41711 0.39627 0.0
C1721 C 0.27872 0.395 0.41757 0.0
C1722 C 0.1911 0.42686 0.39537 0.0
C1723 C 0.18155 0.46277 0.39422 0.0
C1724 C 0.20557 0.49037 0.39416 0.0
C1725 C 0.23942 0.48077 0.39518 0.0
C1726 C 0.24893 0.44472 0.39596 0.0
H1727 H 0.28798 0.38171 0.42671 0.0
H1728 H 0.30069 0.40682 0.41353 0.0
H1729 H 0.26189 0.41721 0.4213 0.0
H1730 H 0.17181 0.40659 0.3955 0.0
H1731 H 0.15524 0.46892 0.39337 0.0
H1732 H 0.31387 0.40448 0.10814 0.0
H1733 H 0.3724 0.42384 0.10991 0.0
H1734 H 0.36618 0.46769 0.15343 0.0
H1735 H 0.30808 0.44788 0.15186 0.0
H1736 H 0.38912 0.49567 0.11571 0.0
H1737 H 0.45695 0.42142 0.1547 0.0
H1738 H 0.41651 0.40675 0.14623 0.0
H1739 H 0.41996 0.44231 0.16102 0.0
C1740 C 0.32525 0.41728 0.1182 0.0
C1741 C 0.30627 0.42503 0.12982 0.0
C1742 C 0.35866 0.42836 0.11918 0.0
C1743 C 0.37363 0.44706 0.13181 0.0
C1744 C 0.35533 0.45271 0.14366 0.0
H1745 H 0.54255 0.59007 0.15826 0.0
H1746 H 0.48981 0.55575 0.1558 0.0
C1747 C 0.32199 0.44157 0.1427 0.0
C1748 C 0.40652 0.46511 0.13213 0.0
H1749 H 0.48325 0.47615 0.15017 0.0
C1750 C 0.40989 0.491 0.12309 0.0
C1751 C 0.4334 0.45919 0.14187 0.0
C1752 C 0.43168 0.43065 0.15141 0.0
C1753 C 0.43912 0.51197 0.12382 0.0
C1754 C 0.46569 0.50657 0.13375 0.0
C1755 C 0.46261 0.4803 0.14264 0.0
C1756 C 0.49697 0.52796 0.13503 0.0
C1757 C 0.44102 0.5405 0.11427 0.0
C1758 C 0.51816 0.52367 0.12413 0.0
C1759 C 0.54818 0.54318 0.12548 0.0
C1760 C 0.55752 0.56722 0.1378 0.0
C1761 C 0.53597 0.57184 0.14864 0.0
C1762 C 0.50597 0.55218 0.14728 0.0
H1763 H 0.41611 0.54629 0.1093 0.0
H1764 H 0.45207 0.56613 0.12016 0.0
H1765 H 0.45728 0.53086 0.1058 0.0
H1766 H 0.51169 0.50481 0.11466 0.0
H1767 H 0.56426 0.53897 0.11695 0.0
H1768 H 0.20774 0.80723 0.90235 0.0
H1769 H 0.22675 0.74473 0.90215 0.0
H1770 H 0.25266 0.74182 0.85958 0.0
H1771 H 0.23387 0.80412 0.85965 0.0
H1772 H 0.20538 0.67987 0.88265 0.0
H1773 H 0.33974 0.71411 0.88181 0.0
H1774 H 0.30919 0.7478 0.88689 0.0
H1775 H 0.31213 0.73082 0.86867 0.0
C1776 C 0.21742 0.79326 0.89293 0.0
C1777 C 0.21956 0.81076 0.88105 0.0
C1778 C 0.22822 0.75758 0.89284 0.0
C1779 C 0.24159 0.73896 0.88093 0.0
C1780 C 0.24295 0.75599 0.86895 0.0
H1781 H 0.32941 0.52664 0.86112 0.0
H1782 H 0.30962 0.58868 0.86096 0.0
C1783 C 0.23203 0.79154 0.869 0.0
C1784 C 0.25423 0.70172 0.88101 0.0
H1785 H 0.32515 0.65181 0.87923 0.0
C1786 C 0.23156 0.67367 0.88196 0.0
C1787 C 0.28838 0.69382 0.88003 0.0
C1788 C 0.31391 0.7232 0.8794 0.0
C1789 C 0.24206 0.63771 0.88173 0.0
C1790 C 0.2763 0.62982 0.88086 0.0
C1791 C 0.29894 0.65791 0.87988 0.0
C1792 C 0.28916 0.59266 0.88115 0.0
C1793 C 0.21627 0.60841 0.8821 0.0
C1794 C 0.28502 0.57471 0.89271 0.0
C1795 C 0.29618 0.53932 0.89283 0.0
C1796 C 0.31208 0.5212 0.88143 0.0
C1797 C 0.31724 0.53972 0.87006 0.0
C1798 C 0.3059 0.57516 0.86993 0.0
H1799 H 0.19084 0.61703 0.87872 0.0
H1800 H 0.22211 0.58306 0.87525 0.0
H1801 H 0.21598 0.60234 0.893 0.0
H1802 H 0.27299 0.58804 0.90165 0.0
H1803 H 0.29204 0.52608 0.90183 0.0
H1804 H 0.97389 0.48587 0.61959 0.0
H1805 H 0.03326 0.50051 0.62106 0.0
H1806 H 0.04869 0.45034 0.65855 0.0
H1807 H 0.98875 0.43529 0.65711 0.0
H1808 H 0.0716 0.54366 0.64276 0.0
H1809 H 0.12095 0.40382 0.63416 0.0
H1810 H 0.07755 0.41349 0.63021 0.0
H1811 H 0.09376 0.41319 0.64807 0.0
C1812 C 0.98977 0.47766 0.62814 0.0
C1813 C 0.97627 0.45931 0.63824 0.0
C1814 C 0.02389 0.48619 0.62898 0.0
C1815 C 0.04577 0.47635 0.63983 0.0
C1816 C 0.03254 0.45783 0.64993 0.0
H1817 H 0.26343 0.50801 0.65527 0.0
H1818 H 0.20501 0.49114 0.65646 0.0
C1819 C 0.99816 0.44942 0.64916 0.0
C1820 C 0.08206 0.48664 0.6406 0.0
H1821 H 0.16045 0.45194 0.63826 0.0
C1822 C 0.09101 0.52355 0.64181 0.0
C1823 C 0.1076 0.46058 0.63945 0.0
C1824 C 0.09966 0.42051 0.63779 0.0
C1825 C 0.12447 0.53508 0.64189 0.0
C1826 C 0.14999 0.50901 0.64032 0.0
C1827 C 0.14111 0.47207 0.63938 0.0
C1828 C 0.18587 0.51947 0.63952 0.0
C1829 C 0.1321 0.57528 0.64397 0.0
C1830 C 0.19514 0.54072 0.62948 0.0
C1831 C 0.22865 0.55071 0.62883 0.0
C1832 C 0.25403 0.53932 0.6381 0.0
C1833 C 0.24475 0.51749 0.64798 0.0
C1834 C 0.21121 0.5077 0.64866 0.0
H1835 H 0.11236 0.59102 0.6494 0.0
H1836 H 0.15638 0.58179 0.65017 0.0
H1837 H 0.13329 0.58437 0.63357 0.0
H1838 H 0.17644 0.54941 0.62201 0.0
H1839 H 0.23466 0.56717 0.62098 0.0
H1840 H 0.31055 0.81694 0.11365 0.0
H1841 H 0.28374 0.75712 0.10998 0.0
H1842 H 0.22069 0.79188 0.14319 0.0
H1843 H 0.24785 0.85198 0.14688 0.0
H1844 H 0.25575 0.7326 0.14808 0.0
H1845 H 0.19771 0.70627 0.09361 0.0
H1846 H 0.24019 0.72186 0.09456 0.0
H1847 H 0.20921 0.75139 0.10221 0.0
C1848 C 0.28941 0.8127 0.11952 0.0
C1849 C 0.2805 0.83987 0.13019 0.0
C1850 C 0.27429 0.77809 0.11753 0.0
C1851 C 0.24988 0.7696 0.12623 0.0
C1852 C 0.23926 0.79754 0.13625 0.0
H1853 H 0.1687 0.56297 0.144 0.0
H1854 H 0.18112 0.62683 0.14324 0.0
C1855 C 0.25437 0.83224 0.1382 0.0
C1856 C 0.23918 0.73085 0.12623 0.0
H1857 H 0.2078 0.65419 0.10522 0.0
C1858 C 0.24485 0.71567 0.13873 0.0
C1859 C 0.22539 0.70824 0.11402 0.0
C1860 C 0.21747 0.72283 0.10037 0.0
C1861 C 0.23792 0.67878 0.1393 0.0
C1862 C 0.22417 0.65612 0.1271 0.0
C1863 C 0.21834 0.67128 0.1146 0.0
C1864 C 0.21572 0.61677 0.12717 0.0
C1865 C 0.24655 0.66417 0.15291 0.0
C1866 C 0.2301 0.58931 0.11808 0.0
C1867 C 0.22284 0.55244 0.11842 0.0
C1868 C 0.20083 0.542 0.12781 0.0
C1869 C 0.18603 0.56965 0.13671 0.0
C1870 C 0.19325 0.60641 0.13634 0.0
H1871 H 0.2653 0.6817 0.15987 0.0
H1872 H 0.22373 0.66324 0.15858 0.0
H1873 H 0.25646 0.63629 0.15099 0.0
H1874 H 0.24738 0.59637 0.11084 0.0
H1875 H 0.23465 0.53212 0.11135 0.0
H1876 H 0.20482 0.42084 0.90878 0.0
H1877 H 0.14832 0.44474 0.90945 0.0
H1878 H 0.14184 0.44324 0.86457 0.0
H1879 H 0.19794 0.41897 0.86377 0.0
H1880 H 0.1318 0.51116 0.90112 0.0
H1881 H 0.05136 0.40146 0.87064 0.0
H1882 H 0.09326 0.39366 0.87767 0.0
H1883 H 0.08636 0.41296 0.86166 0.0
C1884 C 0.19106 0.42476 0.89901 0.0
C1885 C 0.20595 0.41824 0.88623 0.0
C1886 C 0.15884 0.43852 0.89942 0.0
C1887 C 0.14087 0.44561 0.88706 0.0
C1888 C 0.15503 0.4374 0.87421 0.0
H1889 H 0.96377 0.56143 0.86479 0.0
H1890 H 0.01737 0.53068 0.86558 0.0
C1891 C 0.18721 0.42365 0.87378 0.0
C1892 C 0.10887 0.46498 0.88771 0.0
H1893 H 0.02738 0.46028 0.87456 0.0
C1894 C 0.10885 0.49989 0.89545 0.0
C1895 C 0.07909 0.45028 0.88022 0.0
C1896 C 0.07734 0.4124 0.87218 0.0
C1897 C 0.08 0.5209 0.89561 0.0
C1898 C 0.05038 0.50638 0.88797 0.0
C1899 C 0.05026 0.47135 0.88035 0.0
C1900 C 0.01912 0.52706 0.88777 0.0
C1901 C 0.08161 0.55884 0.90362 0.0
C1902 C 1.00263 0.53546 0.90004 0.0
C1903 C 0.97202 0.55299 0.89964 0.0
C1904 C 0.95735 0.56228 0.88694 0.0
C1905 C 0.9744 0.55464 0.87474 0.0
C1906 C 1.00495 0.53699 0.87515 0.0
H1907 H 0.10773 0.56873 0.90638 0.0
H1908 H 0.06823 0.57801 0.89741 0.0
H1909 H 0.06931 0.55904 0.9135 0.0
H1910 H 0.01303 0.52762 0.90985 0.0
H1911 H 0.95952 0.55846 0.90921 0.0
H1912 H 0.32685 0.42934 0.61129 0.0
H1913 H 0.31936 0.36386 0.60704 0.0
H1914 H 0.3977 0.35297 0.63939 0.0
H1915 H 0.40415 0.4192 0.64425 0.0
H1916 H 0.35236 0.30159 0.60074 0.0
H1917 H 0.31828 0.3172 0.65612 0.0
H1918 H 0.32675 0.35573 0.6476 0.0
H1919 H 0.36048 0.32902 0.65378 0.0
C1920 C 0.34293 0.41308 0.61737 0.0
C1921 C 0.36535 0.42938 0.62842 0.0
C1922 C 0.33878 0.37553 0.61484 0.0
C1923 C 0.35728 0.35359 0.62317 0.0
C1924 C 0.38244 0.36954 0.63313 0.0
H1925 H 0.26319 0.15757 0.63886 0.0
H1926 H 0.31195 0.19158 0.63427 0.0
C1927 C 0.38613 0.4073 0.63589 0.0
C1928 C 0.3461 0.31553 0.62282 0.0
H1929 H 0.30494 0.2627 0.64208 0.0
C1930 C 0.34264 0.29265 0.60985 0.0
C1931 C 0.33329 0.30396 0.63471 0.0
C1932 C 0.33458 0.32774 0.64882 0.0
C1933 C 0.32495 0.25953 0.60828 0.0
C1934 C 0.31052 0.2492 0.61998 0.0
C1935 C 0.31621 0.27068 0.63313 0.0
C1936 C 0.28538 0.21961 0.61874 0.0
C1937 C 0.32076 0.2366 0.59405 0.0
C1938 C 0.2546 0.22274 0.61103 0.0
C1939 C 0.22687 0.20242 0.6134 0.0
C1940 C 0.22975 0.17866 0.62342 0.0
C1941 C 0.26094 0.17393 0.63045 0.0
C1942 C 0.28869 0.19379 0.62797 0.0
H1943 H 0.34175 0.24116 0.58769 0.0
H1944 H 0.31911 0.2073 0.595 0.0
H1945 H 0.29739 0.2442 0.58833 0.0
H1946 H 0.25118 0.24327 0.60418 0.0
H1947 H 0.20275 0.20721 0.6082 0.0
H1948 H 0.58181 0.52206 0.39011 0.0
H1949 H 0.53194 0.55891 0.38848 0.0
H1950 H 0.50369 0.50078 0.34725 0.0
H1951 H 0.55323 0.46293 0.34916 0.0
H1952 H 0.49821 0.60274 0.37227 0.0
H1953 H 0.4299 0.47163 0.36924 0.0
H1954 H 0.4746 0.47535 0.37234 0.0
H1955 H 0.45492 0.47375 0.35484 0.0
C1956 C 0.56579 0.51839 0.38042 0.0
C1957 C 0.57154 0.49014 0.36966 0.0
C1958 C 0.53707 0.53922 0.37955 0.0
C1959 C 0.5135 0.53195 0.36792 0.0
C1960 C 0.52107 0.50627 0.35649 0.0
H1961 H 0.30578 0.5944 0.35716 0.0
H1962 H 0.36346 0.57926 0.35299 0.0
C1963 C 0.54961 0.48505 0.35747 0.0
C1964 C 0.47955 0.54762 0.36867 0.0
H1965 H 0.39741 0.52381 0.36885 0.0
C1966 C 0.47616 0.58548 0.37144 0.0
C1967 C 0.45072 0.52511 0.36787 0.0
C1968 C 0.45262 0.48423 0.36605 0.0
C1969 C 0.44479 0.6013 0.3733 0.0
C1970 C 0.41616 0.57872 0.37235 0.0
C1971 C 0.41945 0.54102 0.36945 0.0
C1972 C 0.38245 0.59321 0.3747 0.0
C1973 C 0.44229 0.64198 0.37628 0.0
C1974 C 0.37405 0.60655 0.38829 0.0
C1975 C 0.34092 0.61496 0.39077 0.0
C1976 C 0.31563 0.61021 0.37967 0.0
C1977 C 0.32453 0.59842 0.36597 0.0
C1978 C 0.35753 0.58976 0.36354 0.0
H1979 H 0.4658 0.6559 0.37462 0.0
H1980 H 0.42157 0.65149 0.36946 0.0
H1981 H 0.43665 0.64995 0.38735 0.0
H1982 H 0.39287 0.60895 0.39707 0.0
H1983 H 0.33495 0.62394 0.40143 0.0
H1984 H 0.36344 0.39581 0.96351 0.0
H1985 H 0.33922 0.39536 0.98581 0.0
H1986 H 0.24811 0.43879 0.96887 0.0
H1987 H 0.27211 0.44014 0.94657 0.0
H1988 H 0.3129 0.45572 1.00346 0.0
H1989 H 0.21812 0.34684 0.98477 0.0
H1990 H 0.25357 0.35422 0.97515 0.0
H1991 H 0.2184 0.38363 0.9746 0.0
C1992 C 0.33822 0.40533 0.96444 0.0
C1993 C 0.31972 0.41747 0.95302 0.0
C1994 C 0.32443 0.40498 0.97724 0.0
C1995 C 0.29175 0.41656 0.97893 0.0
C1996 C 0.27319 0.42904 0.96768 0.0
H1997 H 0.16136 0.4268 0.0461 0.0
H1998 H 0.18749 0.43051 0.02444 0.0
C1999 C 0.287 0.42957 0.95486 0.0
C2000 C 0.27736 0.41602 0.99256 0.0
H2001 H 0.21618 0.37654 0.008 0.0
C2002 C 0.29179 0.43838 1.00449 0.0
C2003 C 0.24988 0.39333 0.99384 0.0
C2004 C 0.23415 0.36788 0.98146 0.0
C2005 C 0.279 0.43924 0.01765 0.0
C2006 C 0.25152 0.41648 0.01896 0.0
C2007 C 0.23723 0.39399 1.007 0.0
C2008 C 0.23657 0.416 0.03251 0.0
C2009 C 0.29448 0.46521 0.02994 0.0
C2010 C 0.25547 0.40666 0.04433 0.0
C2011 C 0.2406 0.40472 0.05683 0.0
C2012 C 0.20642 0.41172 0.05769 0.0
C2013 C 0.1877 0.42115 0.04582 0.0
C2014 C 0.2026 0.42332 0.03341 0.0
H2015 H 0.30892 0.48726 0.02644 0.0
H2016 H 0.27514 0.47759 0.0366 0.0
H2017 H 0.31185 0.45023 0.03647 0.0
H2018 H 0.28154 0.39999 0.04378 0.0
H2019 H 0.25563 0.39656 0.06563 0.0
H2020 H 0.83135 0.11363 0.2166 0.0
H2021 H 0.83219 0.08792 0.23843 0.0
H2022 H 0.87253 0.9889 0.21814 0.0
H2023 H 0.87251 1.01476 0.19617 0.0
H2024 H 0.80147 0.02454 0.24459 0.0
H2025 H 0.93981 0.02041 0.25245 0.0
H2026 H 0.91848 0.0459 0.23996 0.0
H2027 H 0.92144 0.99751 0.23593 0.0
C2028 C 0.84039 0.08632 0.21671 0.0
C2029 C 0.85192 0.06634 0.20459 0.0
C2030 C 0.84071 0.07164 0.22922 0.0
C2031 C 0.85281 0.03672 0.22996 0.0
C2032 C 0.8635 1.01614 0.21782 0.0
H2033 H 0.88485 0.91512 0.29976 0.0
H2034 H 0.88182 0.93681 0.27709 0.0
C2035 C 0.8631 0.03082 0.20522 0.0
C2036 C 0.85468 0.02255 0.24359 0.0
H2037 H 0.90948 0.99777 0.26931 0.0
C2038 C 0.82506 0.01859 0.25 0.0
C2039 C 0.88551 1.01502 0.25064 0.0
C2040 C 0.91821 0.02015 0.24449 0.0
C2041 C 0.82539 1.00692 0.26321 0.0
C2042 C 0.85626 0.99975 0.27033 0.0
C2043 C 0.88586 1.00345 0.26386 0.0
C2044 C 0.85838 0.98739 0.28432 0.0
C2045 C 0.79265 1.00173 0.2693 0.0
C2046 C 0.84669 1.00891 0.29603 0.0
C2047 C 0.84821 0.99651 0.3091 0.0
C2048 C 0.86176 0.9624 0.3107 0.0
C2049 C 0.87404 0.94139 0.29896 0.0
C2050 C 0.87246 0.95378 0.28595 0.0
H2051 H 0.77136 0.99936 0.26112 0.0
H2052 H 0.79296 0.97709 0.27456 0.0
H2053 H 0.78833 0.02551 0.27724 0.0
H2054 H 0.83624 0.03526 0.29506 0.0
H2055 H 0.83804 1.01333 0.31777 0.0
H2056 H 0.38151 0.56583 0.55633 0.0
H2057 H 0.36281 0.57945 0.53303 0.0
H2058 H 0.26808 0.61373 0.54776 0.0
H2059 H 0.28671 0.6004 0.57123 0.0
H2060 H 0.31085 0.54778 0.51587 0.0
H2061 H 0.29223 0.69617 0.52695 0.0
H2062 H 0.31504 0.67129 0.53925 0.0
H2063 H 0.27019 0.67079 0.53785 0.0
C2064 C 0.35679 0.57667 0.55469 0.0
C2065 C 0.33572 0.58224 0.56572 0.0
C2066 C 0.34616 0.58444 0.54134 0.0
C2067 C 0.31419 0.59796 0.53865 0.0
C2068 C 0.29316 0.6041 0.54966 0.0
H2069 H 0.18993 0.6378 0.46641 0.0
H2070 H 0.21518 0.62762 0.48922 0.0
C2071 C 0.30387 0.5965 0.5631 0.0
C2072 C 0.30239 0.60352 0.52414 0.0
H2073 H 0.27041 0.66653 0.50451 0.0
C2074 C 0.30228 0.57383 0.51336 0.0
C2075 C 0.29135 0.63754 0.52086 0.0
C2076 C 0.29247 0.67087 0.5318 0.0
C2077 C 0.29048 0.57696 0.49949 0.0
C2078 C 0.27882 0.61078 0.49629 0.0
C2079 C 0.27939 0.64061 0.50701 0.0
C2080 C 0.26393 0.61538 0.48209 0.0
C2081 C 0.28952 0.54383 0.48846 0.0
C2082 C 0.28297 0.61166 0.47041 0.0
C2083 C 0.26855 0.61755 0.4572 0.0
C2084 C 0.23486 0.62738 0.45551 0.0
C2085 C 0.21598 0.63054 0.46727 0.0
C2086 C 0.23034 0.6247 0.48037 0.0
H2087 H 0.29358 0.51849 0.49314 0.0
H2088 H 0.26522 0.54152 0.48204 0.0
H2089 H 0.30942 0.54632 0.48133 0.0
H2090 H 0.30912 0.605 0.47157 0.0
H2091 H 0.2841 0.61551 0.44851 0.0
H2092 H 0.62429 0.94747 0.6879 0.0
H2093 H 0.60526 0.97031 0.711 0.0
H2094 H 0.70701 0.97516 0.72912 0.0
H2095 H 0.72613 0.95245 0.70628 0.0
H2096 H 0.66332 0.93819 0.74352 0.0
H2097 H 0.61438 0.07298 0.7341 0.0
H2098 H 0.59913 0.03375 0.72215 0.0
H2099 H 0.64193 0.04778 0.72258 0.0
C2100 C 0.64266 0.95414 0.69674 0.0
C2101 C 0.67682 0.94824 0.6952 0.0
C2102 C 0.6317 0.96708 0.70996 0.0
C2103 C 0.65473 0.97453 0.72179 0.0
C2104 C 0.68877 0.96944 0.72016 0.0
H2105 H 0.68706 0.09532 0.79997 0.0
H2106 H 0.67273 0.07169 0.77542 0.0
C2107 C 0.69966 0.95645 0.70707 0.0
C2108 C 0.64409 0.98635 0.73609 0.0
H2109 H 0.61652 0.05977 0.7572 0.0
C2110 C 0.65247 0.96449 0.74651 0.0
C2111 C 0.62991 0.02063 0.73991 0.0
C2112 C 0.6209 0.0454 0.72917 0.0
C2113 C 0.64918 0.97687 0.76075 0.0
C2114 C 0.63642 1.01189 0.76469 0.0
C2115 C 0.62605 0.03285 0.75416 0.0
C2116 C 0.63944 0.0295 0.77958 0.0
C2117 C 0.6618 0.95342 0.77152 0.0
C2118 C 0.62435 1.0147 0.79019 0.0
C2119 C 0.63275 0.02815 0.8044 0.0
C2120 C 0.65627 0.05665 0.80815 0.0
C2121 C 0.6692 0.07303 0.79745 0.0
C2122 C 0.66086 0.05967 0.78337 0.0
H2123 H 0.67559 0.92957 0.76681 0.0
H2124 H 0.67857 0.96934 0.7799 0.0
H2125 H 0.64036 0.9433 0.77647 0.0
H2126 H 0.60725 0.99178 0.7875 0.0
H2127 H 0.62242 1.01485 0.81238 0.0
H2128 H 0.83375 0.59174 0.96533 0.0
H2129 H 0.80801 0.58681 0.98704 0.0
H2130 H 0.73525 0.66606 0.97705 0.0
H2131 H 0.75991 0.66917 0.95483 0.0
H2132 H 0.80432 0.63316 0.00875 0.0
H2133 H 0.67438 0.59504 0.9887 0.0
H2134 H 0.70741 0.59535 0.9772 0.0
H2135 H 0.68707 0.63687 0.98344 0.0
C2136 C 0.8118 0.60751 0.96765 0.0
C2137 C 0.79852 0.63047 0.95836 0.0
C2138 C 0.79719 0.60486 0.9801 0.0
C2139 C 0.76934 0.62572 0.98372 0.0
C2140 C 0.75601 0.64877 0.97438 0.0
H2141 H 0.71917 0.66358 0.07162 0.0
H2142 H 0.7423 0.66843 0.04924 0.0
C2143 C 0.77017 0.6507 0.9617 0.0
C2144 C 0.7557 0.62448 0.99758 0.0
H2145 H 0.68416 0.61324 0.01334 0.0
C2146 C 0.77804 0.62852 0.00971 0.0
C2147 C 0.72147 0.61809 0.99893 0.0
C2148 C 0.69628 0.61071 0.98636 0.0
C2149 C 0.76731 0.62607 0.02304 0.0
C2150 C 0.73289 0.62111 0.02447 0.0
C2151 C 0.71051 0.61734 0.01235 0.0
C2152 C 0.71954 0.61837 0.03827 0.0
C2153 C 0.79328 0.62748 0.03531 0.0
C2154 C 0.69817 0.58931 0.03956 0.0
C2155 C 0.6842 0.58715 0.0522 0.0
C2156 C 0.69178 0.61358 0.06395 0.0
C2157 C 0.71352 0.64241 0.0628 0.0
C2158 C 0.72686 0.64508 0.05002 0.0
H2159 H 0.81814 0.61943 0.0318 0.0
H2160 H 0.7957 0.65567 0.04088 0.0
H2161 H 0.78639 0.60939 0.04284 0.0
H2162 H 0.69206 0.56831 0.03072 0.0
H2163 H 0.66741 0.56472 0.05279 0.0
H2164 H 0.23404 0.12192 0.72101 0.0
H2165 H 0.22364 0.10044 0.74296 0.0
H2166 H 0.12829 0.05642 0.72457 0.0
H2167 H 0.13809 0.07815 0.70256 0.0
H2168 H 0.17079 0.11786 0.76013 0.0
H2169 H 0.17314 0.97025 0.74067 0.0
H2170 H 0.18913 1.00398 0.73115 0.0
H2171 H 0.14498 0.99582 0.73062 0.0
C2172 C 0.21079 0.10764 0.72154 0.0
C2173 C 0.1872 0.10144 0.7098 0.0
C2174 C 0.20494 0.09535 0.73415 0.0
C2175 C 0.17542 0.07639 0.73537 0.0
C2176 C 0.1516 0.07032 0.72378 0.0
H2177 H 0.09813 0.97452 0.80147 0.0
H2178 H 0.10657 1.00062 0.78025 0.0
C2179 C 0.15738 0.08269 0.71112 0.0
C2180 C 0.16948 0.06359 0.74887 0.0
H2181 H 0.15778 0.98723 0.76378 0.0
C2182 C 0.168 0.08929 0.76096 0.0
C2183 C 0.16593 0.02632 0.74993 0.0
C2184 C 0.16864 0.99739 0.73745 0.0
C2185 C 0.16239 0.07879 0.77401 0.0
C2186 C 0.15883 0.0415 0.77507 0.0
C2187 C 0.16044 1.01582 0.76298 0.0
C2188 C 0.15286 0.0283 0.78852 0.0
C2189 C 0.15948 0.10779 0.78645 0.0
C2190 C 0.17591 0.03542 0.80038 0.0
C2191 C 0.17104 0.02064 0.81265 0.0
C2192 C 0.14315 0.99813 0.81324 0.0
C2193 C 0.11992 0.99164 0.80141 0.0
C2194 C 0.1247 1.00654 0.78923 0.0
H2195 H 0.1538 0.13461 0.78314 0.0
H2196 H 0.13972 0.10066 0.79301 0.0
H2197 H 0.18352 0.11045 0.79304 0.0
H2198 H 0.19825 0.05143 0.8 0.0
H2199 H 0.18985 0.0256 0.8214 0.0
H2200 H 0.83121 0.40624 0.55326 0.0
H2201 H 0.80666 0.42151 0.53096 0.0
H2202 H 0.70907 0.39247 0.54174 0.0
H2203 H 0.73368 0.3789 0.56452 0.0
H2204 H 0.77747 0.37922 0.51013 0.0
H2205 H 0.68711 0.48486 0.52732 0.0
H2206 H 0.71813 0.46878 0.53941 0.0
H2207 H 0.68021 0.44302 0.53387 0.0
C2208 C 0.80441 0.40381 0.55098 0.0
C2209 C 0.7843 0.3917 0.56065 0.0
C2210 C 0.79039 0.41238 0.53819 0.0
C2211 C 0.7559 0.40845 0.5346 0.0
C2212 C 0.7356 0.39668 0.54434 0.0
H2213 H 0.68072 0.39644 0.44562 0.0
H2214 H 0.69979 0.38085 0.46874 0.0
C2215 C 0.74965 0.38882 0.55735 0.0
C2216 C 0.74203 0.41488 0.52036 0.0
H2217 H 0.68408 0.46265 0.50296 0.0
C2218 C 0.75709 0.39759 0.50859 0.0
C2219 C 0.71559 0.43901 0.51827 0.0
C2220 C 0.69953 0.46026 0.53039 0.0
C2221 C 0.74699 0.40416 0.49491 0.0
C2222 C 0.72002 0.42759 0.49279 0.0
C2223 C 0.7046 0.44448 0.50453 0.0
C2224 C 0.70841 0.43647 0.47861 0.0
C2225 C 0.76634 0.38698 0.483 0.0
C2226 C 0.70589 0.47289 0.47645 0.0
C2227 C 0.69433 0.4818 0.46335 0.0
C2228 C 0.68544 0.45454 0.45199 0.0
C2229 C 0.68814 0.41804 0.45407 0.0
C2230 C 0.69912 0.40912 0.4673 0.0
H2231 H 0.79172 0.3792 0.48682 0.0
H2232 H 0.75307 0.36193 0.47772 0.0
H2233 H 0.76884 0.40559 0.47513 0.0
H2234 H 0.71286 0.49456 0.48494 0.0
H2235 H 0.69244 0.51016 0.46208 0.0
H2236 H 0.41783 0.06997 0.32403 0.0
H2237 H 0.43557 0.05196 0.30022 0.0
H2238 H 0.34051 0.99834 0.28758 0.0
H2239 H 0.32283 1.01601 0.31109 0.0
H2240 H 0.39913 0.95888 0.27752 0.0
H2241 H 0.3929 0.10189 0.26666 0.0
H2242 H 0.41766 0.09184 0.28199 0.0
H2243 H 0.37311 0.08779 0.28115 0.0
C2244 C 0.40109 0.05364 0.31624 0.0
C2245 C 0.36888 0.04447 0.31941 0.0
C2246 C 0.41113 0.04364 0.30263 0.0
C2247 C 0.38921 0.02409 0.2921 0.0
C2248 C 0.35782 1.01342 0.29551 0.0
H2249 H 0.31856 0.95639 0.21086 0.0
H2250 H 0.34019 0.96276 0.2354 0.0
C2251 C 0.34771 0.02365 0.30896 0.0
C2252 C 0.39717 1.01649 0.27722 0.0
H2253 H 0.39453 0.05622 0.24739 0.0
C2254 C 0.39902 0.98021 0.27097 0.0
C2255 C 0.39723 0.04433 0.26867 0.0
C2256 C 0.39503 0.08372 0.27485 0.0
C2257 C 0.39871 0.97094 0.25633 0.0
C2258 C 0.39577 0.9986 0.2477 0.0
C2259 C 0.3967 0.03501 0.25401 0.0
C2260 C 0.38592 0.99033 0.23238 0.0
C2261 C 0.40006 0.93146 0.25021 0.0
C2262 C 0.40446 1.00357 0.22239 0.0
C2263 C 0.3921 0.9997 0.20821 0.0
C2264 C 0.36071 0.98324 0.20391 0.0
C2265 C 0.34287 0.96906 0.21386 0.0
C2266 C 0.35534 0.97248 0.22789 0.0
H2267 H 0.41415 0.91569 0.2576 0.0
H2268 H 0.37432 0.92003 0.24827 0.0
H2269 H 0.41185 0.9279 0.24011 0.0
H2270 H 0.42793 0.01783 0.22565 0.0
H2271 H 0.40612 1.01137 0.2008 0.0
H2272 H 0.80195 0.91792 0.44408 0.0
H2273 H 0.78008 0.90462 0.46572 0.0
H2274 H 0.87794 0.92236 0.48746 0.0
H2275 H 0.9001 0.93563 0.46595 0.0
H2276 H 0.79826 0.85225 0.48323 0.0
H2277 H 0.82018 0.99197 0.51155 0.0
H2278 H 0.8218 0.98104 0.4928 0.0
H2279 H 0.85646 0.97099 0.50451 0.0
C2280 C 0.81902 0.9184 0.45337 0.0
C2281 C 0.8529 0.92782 0.45322 0.0
C2282 C 0.80637 0.91105 0.46578 0.0
C2283 C 0.82726 0.91319 0.47826 0.0
C2284 C 0.86121 0.9214 0.47803 0.0
H2285 H 0.78801 0.88389 0.56401 0.0
H2286 H 0.81533 0.89416 0.54312 0.0
C2287 C 0.87384 0.92882 0.46569 0.0
C2288 C 0.81355 0.90704 0.49155 0.0
H2289 H 0.80182 0.94796 0.52477 0.0
C2290 C 0.79899 0.87317 0.4923 0.0
C2291 C 0.81469 0.93436 0.50341 0.0
C2292 C 0.82885 0.97175 0.50305 0.0
C2293 C 0.78567 0.86581 0.50461 0.0
C2294 C 0.78646 0.89325 0.51641 0.0
C2295 C 0.80141 0.92695 0.51574 0.0
C2296 C 0.7701 0.8881 0.52921 0.0
C2297 C 0.77106 0.8286 0.50493 0.0
C2298 C 0.73556 0.88222 0.52838 0.0
C2299 C 0.71984 0.87668 0.54025 0.0
C2300 C 0.73821 0.87711 0.55334 0.0
C2301 C 0.77286 0.88384 0.55422 0.0
C2302 C 0.78861 0.88945 0.54226 0.0
H2303 H 0.78051 0.80809 0.49673 0.0
H2304 H 0.77688 0.81972 0.51534 0.0
H2305 H 0.74355 0.82945 0.50294 0.0
H2306 H 0.72068 0.8819 0.51849 0.0
H2307 H 0.6931 0.87206 0.53914 0.0
H2308 H 0.35133 0.57357 0.71912 0.0
H2309 H 0.3517 0.54374 0.73995 0.0
H2310 H 0.3981 0.45038 0.7182 0.0
H2311 H 0.39728 0.48003 0.69704 0.0
H2312 H 0.34945 0.43054 0.73321 0.0
H2313 H 0.43042 0.53254 0.76724 0.0
H2314 H 0.39506 0.5537 0.7595 0.0
H2315 H 0.42494 0.53122 0.74844 0.0
C2316 C 0.36171 0.54669 0.71873 0.0
C2317 C 0.37437 0.52926 0.70641 0.0
C2318 C 0.36213 0.52977 0.73071 0.0
C2319 C 0.37584 0.49526 0.7308 0.0
C2320 C 0.38774 0.47722 0.71842 0.0
H2321 H 0.39656 0.41844 0.81338 0.0
H2322 H 0.41095 0.43669 0.79116 0.0
C2323 C 0.38704 0.49408 0.7063 0.0
C2324 C 0.37651 0.478 0.74378 0.0
H2325 H 0.39614 0.4954 0.77921 0.0
C2326 C 0.36015 0.44444 0.74323 0.0
C2327 C 0.3912 0.49557 0.75684 0.0
C2328 C 0.41172 0.53004 0.75802 0.0
C2329 C 0.3562 0.42919 0.7555 0.0
C2330 C 0.36812 0.44852 0.7687 0.0
C2331 C 0.38641 0.48087 0.76914 0.0
C2332 C 0.35988 0.437 0.78216 0.0
C2333 C 0.339 0.39265 0.75415 0.0
C2334 C 0.32644 0.43199 0.78464 0.0
C2335 C 0.31821 0.42153 0.79724 0.0
C2336 C 0.34315 0.41652 0.80784 0.0
C2337 C 0.37669 0.42244 0.80552 0.0
C2338 C 0.38496 0.43262 0.79278 0.0
H2339 H 0.34254 0.37619 0.74385 0.0
H2340 H 0.34844 0.37719 0.76263 0.0
H2341 H 0.31182 0.39657 0.75478 0.0
H2342 H 0.30655 0.43645 0.77685 0.0
H2343 H 0.29211 0.4177 0.79874 0.0
H2344 H 0.77175 0.13422 0.06849 0.0
H2345 H 0.75573 0.14825 0.04478 0.0
H2346 H 0.85093 0.11096 0.03151 0.0
H2347 H 0.86721 0.09731 0.05505 0.0
H2348 H 0.82907 0.17636 0.02151 0.0
H2349 H 0.73319 0.06566 0.01128 0.0
H2350 H 0.7297 0.0981 0.02676 0.0
H2351 H 0.765 0.06882 0.02573 0.0
C2352 C 0.78952 0.12975 0.06061 0.0
C2353 C 0.82075 0.11456 0.06366 0.0
C2354 C 0.7802 0.13741 0.04703 0.0
C2355 C 0.802 0.13014 0.03635 0.0
C2356 C 0.83368 0.11662 0.03957 0.0
H2357 H 0.75459 0.09951 0.94564 0.0
H2358 H 0.77763 0.09349 0.96951 0.0
C2359 C 0.84288 0.10875 0.05303 0.0
C2360 C 0.79163 0.135 0.02163 0.0
H2361 H 0.73856 0.10141 0.99326 0.0
C2362 C 0.8092 0.1601 0.01534 0.0
C2363 C 0.76618 0.11319 0.01353 0.0
C2364 C 0.74752 0.08468 0.01957 0.0
C2365 C 0.80162 0.16437 1.00121 0.0
C2366 C 0.77569 0.1431 0.99319 0.0
C2367 C 0.75843 0.11767 0.99943 0.0
C2368 C 0.76507 0.14783 0.97849 0.0
C2369 C 0.82168 0.19125 0.99489 0.0
C2370 C 0.75076 0.18045 0.97561 0.0
C2371 C 0.73765 0.18396 0.96204 0.0
C2372 C 0.73861 0.15495 0.95101 0.0
C2373 C 0.75398 0.12261 0.95381 0.0
C2374 C 0.76689 0.11902 0.96747 0.0
H2375 H 0.84574 0.19851 1.00119 0.0
H2376 H 0.82687 0.18029 0.98399 0.0
H2377 H 0.80722 0.21645 0.99455 0.0
H2378 H 0.74862 0.20282 0.98397 0.0
H2379 H 0.72592 0.2092 0.96025 0.0
H2380 H 0.10611 0.5216 0.31881 0.0
H2381 H 0.08908 0.50964 0.29347 0.0
H2382 H 0.17396 0.57192 0.28522 0.0
H2383 H 0.19065 0.58418 0.31028 0.0
H2384 H 0.1168 0.58039 0.26706 0.0
H2385 H 0.14532 0.43527 0.27013 0.0
H2386 H 0.1138 0.45574 0.28072 0.0
H2387 H 0.15647 0.47064 0.28458 0.0
C2388 C 0.12043 0.53367 0.31159 0.0
C2389 C 0.14985 0.5536 0.31649 0.0
C2390 C 0.11088 0.52655 0.29712 0.0
C2391 C 0.1306 0.53937 0.28742 0.0
C2392 C 0.15839 0.56166 0.29246 0.0
H2393 H 0.21015 0.47079 0.21236 0.0
H2394 H 0.19221 0.49145 0.23555 0.0
C2395 C 0.16797 0.56855 0.3068 0.0
C2396 C 0.12541 0.52655 0.27207 0.0
H2397 H 0.13881 0.45286 0.24785 0.0
C2398 C 0.12069 0.55232 0.26281 0.0
C2399 C 0.13092 0.48996 0.26654 0.0
C2400 C 0.13712 0.4612 0.27594 0.0
C2401 C 0.1231 0.54282 0.24828 0.0
C2402 C 0.13035 0.50668 0.24291 0.0
C2403 C 0.13311 0.48053 0.25203 0.0
C2404 C 0.14036 0.49648 0.22842 0.0
C2405 C 0.12018 0.57182 0.23887 0.0
C2406 C 0.11713 0.49288 0.21661 0.0
C2407 C 0.12734 0.48085 0.20316 0.0
C2408 C 0.16096 0.4722 0.20137 0.0
C2409 C 0.18404 0.47684 0.21327 0.0
C2410 C 0.17387 0.48873 0.22659 0.0
H2411 H 0.11545 0.59894 0.24474 0.0
H2412 H 0.14347 0.57335 0.23354 0.0
H2413 H 0.09945 0.56472 0.2306 0.0
H2414 H 0.09106 0.49846 0.21783 0.0
H2415 H 0.1087 0.47709 0.19432 0.0
H2416 H 0.25273 0.0857 0.57012 0.0
H2417 H 0.27479 0.09192 0.54776 0.0
H2418 H 0.17601 0.11194 0.53005 0.0
H2419 H 0.1536 0.10636 0.55234 0.0
H2420 H 0.2114 0.05884 0.51317 0.0
H2421 H 0.28632 0.18544 0.53003 0.0
H2422 H 0.29408 0.15015 0.54071 0.0
H2423 H 0.25404 0.17127 0.5401 0.0
C2424 C 0.23564 0.09224 0.56164 0.0
C2425 C 0.20125 0.09596 0.56323 0.0
C2426 C 0.24838 0.09561 0.54879 0.0
C2427 C 0.22709 0.10273 0.53726 0.0
C2428 C 0.19291 0.10648 0.53879 0.0
H2429 H 0.25462 0.12421 0.44951 0.0
H2430 H 0.23033 0.11618 0.47137 0.0
C2431 C 0.18017 0.10325 0.5516 0.0
C2432 C 0.24016 0.10535 0.52348 0.0
H2433 H 0.29223 0.15506 0.50715 0.0
C2434 C 0.22901 0.07992 0.51182 0.0
C2435 C 0.26305 0.1329 0.52174 0.0
C2436 C 0.27494 0.16173 0.53376 0.0
C2437 C 0.24076 0.08079 0.49854 0.0
C2438 C 0.26374 0.10833 0.4968 0.0
C2439 C 0.27465 0.13392 0.50846 0.0
C2440 C 0.27776 0.11069 0.48314 0.0
C2441 C 0.2292 0.05159 0.48661 0.0
C2442 C 0.31243 0.11049 0.48245 0.0
C2443 C 0.3263 0.11534 0.47006 0.0
C2444 C 0.3059 0.12041 0.45797 0.0
C2445 C 0.27106 0.11971 0.45852 0.0
C2446 C 0.25713 0.11512 0.47103 0.0
H2447 H 0.2189 0.0275 0.49048 0.0
H2448 H 0.20919 0.06243 0.47984 0.0
H2449 H 0.24993 0.04277 0.48007 0.0
H2450 H 0.32888 0.10707 0.49161 0.0
H2451 H 0.35321 0.11556 0.47001 0.0
H2452 H 0.65198 0.67048 0.22348 0.0
H2453 H 0.64712 0.64028 0.24408 0.0
H2454 H 0.65224 0.53613 0.21843 0.0
H2455 H 0.65768 0.56604 0.19775 0.0
H2456 H 0.59935 0.58683 0.2493 0.0
H2457 H 0.7291 0.53595 0.24993 0.0
H2458 H 0.71508 0.5713 0.23997 0.0
H2459 H 0.70391 0.5248 0.23361 0.0
C2460 C 0.65189 0.64111 0.22216 0.0
C2461 C 0.65511 0.62078 0.20889 0.0
C2462 C 0.64902 0.62392 0.23397 0.0
C2463 C 0.6497 0.58601 0.23283 0.0
C2464 C 0.65202 0.56547 0.21957 0.0
H2465 H 0.65531 0.43631 0.29382 0.0
H2466 H 0.6552 0.4656 0.27286 0.0
C2467 C 0.65472 0.58266 0.2077 0.0
C2468 C 0.64883 0.56821 0.24561 0.0
H2469 H 0.69554 0.51827 0.26678 0.0
C2470 C 0.62035 0.57183 0.25314 0.0
C2471 C 0.6763 0.54875 0.25061 0.0
C2472 C 0.70799 0.54509 0.24321 0.0
C2473 C 0.61836 0.55593 0.26542 0.0
C2474 C 0.64595 0.53665 0.27049 0.0
C2475 C 0.67442 0.53308 0.26293 0.0
C2476 C 0.64565 0.51927 0.28343 0.0
C2477 C 0.5864 0.5592 0.27263 0.0
C2478 C 0.64065 0.53969 0.29648 0.0
C2479 C 0.64039 0.52294 0.30857 0.0
C2480 C 0.64562 0.48535 0.30793 0.0
C2481 C 0.65103 0.46521 0.29482 0.0
C2482 C 0.65111 0.48194 0.28277 0.0
H2483 H 0.565 0.56572 0.26544 0.0
H2484 H 0.58044 0.53373 0.27669 0.0
H2485 H 0.58923 0.58144 0.28162 0.0
H2486 H 0.63701 0.56868 0.29732 0.0
H2487 H 0.63554 0.53956 0.3183 0.0
H2488 H 0.22439 0.90518 0.06802 0.0
H2489 H 0.20063 0.91103 0.0442 0.0
H2490 H 0.29836 0.89806 0.02907 0.0
H2491 H 0.32209 0.89205 0.05255 0.0
H2492 H 0.21306 0.95963 0.02646 0.0
H2493 H 0.24512 0.82267 1.00184 0.0
H2494 H 0.2467 0.8353 0.02064 0.0
H2495 H 0.2812 0.84595 0.01108 0.0
C2496 C 0.24085 0.90386 0.05965 0.0
C2497 C 0.27521 0.89796 0.06225 0.0
C2498 C 0.22718 0.90693 0.04601 0.0
C2499 C 0.24756 0.90395 0.03475 0.0
C2500 C 0.28189 0.89919 0.03745 0.0
H2501 H 0.24223 0.99266 0.95925 0.0
H2502 H 0.24641 0.97689 0.98287 0.0
C2503 C 0.29547 0.89599 0.05096 0.0
C2504 C 0.23377 0.90718 0.0202 0.0
H2505 H 0.23668 0.86764 0.98612 0.0
C2506 C 0.21767 0.93921 0.01766 0.0
C2507 C 0.23899 0.88023 0.00868 0.0
C2508 C 0.25361 0.84395 0.01071 0.0
C2509 C 0.20888 0.9461 1.00391 0.0
C2510 C 0.21709 0.92065 0.99237 0.0
C2511 C 0.23093 0.88748 0.99492 0.0
C2512 C 0.21427 0.92936 0.97775 0.0
C2513 C 0.1914 0.98095 1.00189 0.0
C2514 C 0.19599 0.90696 0.96675 0.0
C2515 C 0.19378 0.91575 0.95302 0.0
C2516 C 0.21002 0.94703 0.95008 0.0
C2517 C 0.22896 0.96868 0.96111 0.0
C2518 C 0.23123 0.95984 0.9747 0.0
H2519 H 0.17671 0.99059 0.01091 0.0
H2520 H 0.21029 1.00227 1.00121 0.0
H2521 H 0.17445 0.97761 0.99211 0.0
H2522 H 0.18298 0.88304 0.96882 0.0
H2523 H 0.17868 0.89862 0.94487 0.0
H2524 H 0.81764 0.50586 0.70577 0.0
H2525 H 0.83281 0.5259 0.73061 0.0
H2526 H 0.92762 0.47336 0.72721 0.0
H2527 H 0.91243 0.45288 0.70202 0.0
H2528 H 0.8528 0.46777 0.74939 0.0
H2529 H 0.94256 0.58281 0.75092 0.0
H2530 H 0.9111 0.57244 0.73642 0.0
H2531 H 0.94505 0.54216 0.73839 0.0
C2532 C 0.84203 0.49907 0.7102 0.0
C2533 C 0.86381 0.47773 0.70193 0.0
C2534 C 0.85063 0.51055 0.72442 0.0
C2535 C 0.88122 0.50098 0.73076 0.0
C2536 C 0.90393 0.48116 0.72246 0.0
H2537 H 0.88182 0.53128 0.82347 0.0
H2538 H 0.89879 0.50544 0.80037 0.0
C2539 C 0.89532 0.46969 0.70809 0.0
C2540 C 0.88726 0.50951 0.74625 0.0
H2541 H 0.9207 0.57462 0.7722 0.0
C2542 C 0.86829 0.49055 0.75448 0.0
C2543 C 0.90727 0.53937 0.75276 0.0
C2544 C 0.92778 0.56059 0.74426 0.0
C2545 C 0.86723 0.50196 0.76894 0.0
C2546 C 0.88607 0.53295 0.77541 0.0
C2547 C 0.90646 0.55074 0.76727 0.0
C2548 C 0.88096 0.55023 0.78994 0.0
C2549 C 0.84404 0.48231 0.77695 0.0
C2550 C 0.86671 0.58466 0.79193 0.0
C2551 C 0.85732 0.59962 0.8051 0.0
C2552 C 0.86202 0.58064 0.81669 0.0
C2553 C 0.87797 0.54689 0.81487 0.0
C2554 C 0.88741 0.53187 0.80161 0.0
H2555 H 0.82726 0.46265 0.7699 0.0
H2556 H 0.85897 0.46711 0.78428 0.0
H2557 H 0.82847 0.50189 0.78324 0.0
H2558 H 0.86151 0.5994 0.78313 0.0
H2559 H 0.84547 0.62581 0.80609 0.0
loop_
_geom_bond_atom_site_label_1
_geom_bond_atom_site_label_2
_geom_bond_distance
_geom_bond_site_symmetry_2
_ccdc_geom_bond_type
Zn0 N4 2.020 . S
Zn0 O8 2.019 . S
Zn0 N10 2.119 . S
Zn0 O18 1.975 . S
C1 N2 1.334 . S
C1 N5 1.336 . S
N2 C1 1.334 . S
N2 C3 1.334 . S
C3 N2 1.334 . S
C3 N4 1.336 . S
N4 Zn0 2.020 . S
N4 C3 1.336 . S
N4 N5 1.354 . S
N5 C1 1.336 . S
N5 N4 1.354 . S
N5 Zn9 2.020 . S
C6 O7 1.244 . S
C6 O30 1.257 . S
O7 C6 1.244 . S
O8 Zn0 2.019 . S
O8 C28 1.257 . S
Zn9 N5 2.020 . S
Zn9 O16 1.975 . S
Zn9 N25 2.119 . S
Zn9 O30 2.019 . S
N10 Zn0 2.119 . S
N10 C12 1.334 . S
N10 C13 1.328 . S
C11 C12 1.391 . S
C11 N14 1.329 . S
C11 H32 0.930 . S
C12 N10 1.334 . S
C12 C11 1.391 . S
C12 H19 0.930 . S
C13 N10 1.328 . S
C13 C15 1.392 . S
C13 H20 0.930 . S
N14 C11 1.329 . S
N14 C15 1.331 . S
C15 C13 1.392 . S
C15 N14 1.331 . S
O16 Zn9 1.975 . S
O16 C17 1.252 . S
C17 O16 1.252 . S
C17 O18 1.252 . S
O18 Zn0 1.975 . S
O18 C17 1.252 . S
H19 C12 0.930 . S
H20 C13 0.930 . S
C21 C22 1.392 . S
C21 N25 1.328 . S
C21 H27 0.930 . S
C22 C21 1.392 . S
C22 N26 1.331 . S
C23 C24 1.391 . S
C23 N26 1.329 . S
C23 H33 0.930 . S
C24 C23 1.391 . S
C24 N25 1.334 . S
C24 H31 0.930 . S
N25 Zn9 2.119 . S
N25 C21 1.328 . S
N25 C24 1.334 . S
N26 C22 1.331 . S
N26 C23 1.329 . S
H27 C21 0.930 . S
C28 O8 1.257 . S
C28 O29 1.244 . S
O29 C28 1.244 . S
O30 C6 1.257 . S
O30 Zn9 2.019 . S
H31 C24 0.930 . S
H32 C11 0.930 . S
H33 C23 0.930 . S
Zn34 N38 2.020 . S
Zn34 O42 2.019 1_565 S
Zn34 N44 2.119 . S
Zn34 O52 1.975 . S
C35 N36 1.334 . S
C35 N39 1.336 . S
N36 C35 1.334 . S
N36 C37 1.334 . S
C37 N36 1.334 . S
C37 N38 1.336 . S
N38 Zn34 2.020 . S
N38 C37 1.336 . S
N38 N39 1.354 . S
N39 C35 1.336 . S
N39 N38 1.354 . S
N39 Zn43 2.020 . S
C40 O41 1.244 . S
C40 O64 1.257 . S
O41 C40 1.244 . S
O42 Zn34 2.019 1_545 S
O42 C62 1.257 . S
Zn43 N39 2.020 . S
Zn43 O50 1.975 . S
Zn43 N59 2.119 . S
Zn43 O64 2.019 . S
N44 Zn34 2.119 . S
N44 C46 1.334 . S
N44 C47 1.328 . S
C45 C46 1.391 . S
C45 N48 1.329 . S
C45 H66 0.930 . S
C46 N44 1.334 . S
C46 C45 1.391 . S
C46 H53 0.930 . S
C47 N44 1.328 . S
C47 C49 1.392 . S
C47 H54 0.930 1_565 S
N48 C45 1.329 . S
N48 C49 1.331 . S
C49 C47 1.392 . S
C49 N48 1.331 . S
O50 Zn43 1.975 . S
O50 C51 1.252 . S
C51 O50 1.252 . S
C51 O52 1.252 . S
O52 Zn34 1.975 . S
O52 C51 1.252 . S
H53 C46 0.930 . S
H54 C47 0.930 1_545 S
C55 C56 1.392 . S
C55 N59 1.328 . S
C55 H61 0.930 . S
C56 C55 1.392 . S
C56 N60 1.331 . S
C57 C58 1.391 . S
C57 N60 1.329 . S
C57 H67 0.930 . S
C58 C57 1.391 . S
C58 N59 1.334 . S
C58 H65 0.930 . S
N59 Zn43 2.119 . S
N59 C55 1.328 . S
N59 C58 1.334 . S
N60 C56 1.331 . S
N60 C57 1.329 . S
H61 C55 0.930 . S
C62 O42 1.257 . S
C62 O63 1.244 . S
O63 C62 1.244 . S
O64 C40 1.257 . S
O64 Zn43 2.019 . S
H65 C58 0.930 . S
H66 C45 0.930 . S
H67 C57 0.930 . S
Zn68 N72 2.020 . S
Zn68 O76 2.019 . S
Zn68 N78 2.119 . S
Zn68 O86 1.975 . S
C69 N70 1.334 . S
C69 N73 1.336 . S
N70 C69 1.334 . S
N70 C71 1.334 . S
C71 N70 1.334 . S
C71 N72 1.336 . S
N72 Zn68 2.020 . S
N72 C71 1.336 . S
N72 N73 1.354 . S
N73 C69 1.336 . S
N73 N72 1.354 . S
N73 Zn77 2.020 . S
C74 O75 1.244 . S
C74 O98 1.257 . S
O75 C74 1.244 . S
O76 Zn68 2.019 . S
O76 C96 1.257 . S
Zn77 N73 2.020 . S
Zn77 O84 1.975 . S
Zn77 N93 2.119 . S
Zn77 O98 2.019 . S
N78 Zn68 2.119 . S
N78 C80 1.334 . S
N78 C81 1.328 . S
C79 C80 1.391 . S
C79 N82 1.329 . S
C79 H100 0.930 . S
C80 N78 1.334 . S
C80 C79 1.391 . S
C80 H87 0.930 . S
C81 N78 1.328 . S
C81 C83 1.392 . S
C81 H88 0.930 . S
N82 C79 1.329 . S
N82 C83 1.331 . S
C83 C81 1.392 . S
C83 N82 1.331 . S
O84 Zn77 1.975 . S
O84 C85 1.252 . S
C85 O84 1.252 . S
C85 O86 1.252 . S
O86 Zn68 1.975 . S
O86 C85 1.252 . S
H87 C80 0.930 . S
H88 C81 0.930 . S
C89 C90 1.392 . S
C89 N93 1.328 . S
C89 H95 0.930 . S
C90 C89 1.392 . S
C90 N94 1.331 . S
C91 C92 1.391 . S
C91 N94 1.329 . S
C91 H101 0.930 . S
C92 C91 1.391 . S
C92 N93 1.334 . S
C92 H99 0.930 . S
N93 Zn77 2.119 . S
N93 C89 1.328 . S
N93 C92 1.334 . S
N94 C90 1.331 . S
N94 C91 1.329 . S
H95 C89 0.930 . S
C96 O76 1.257 . S
C96 O97 1.244 . S
O97 C96 1.244 . S
O98 C74 1.257 . S
O98 Zn77 2.019 . S
H99 C92 0.930 . S
H100 C79 0.930 . S
H101 C91 0.930 . S
Zn102 N106 2.020 . S
Zn102 O110 2.019 . S
Zn102 N112 2.119 . S
Zn102 O120 1.975 . S
C103 N104 1.334 . S
C103 N107 1.336 . S
N104 C103 1.334 . S
N104 C105 1.334 . S
C105 N104 1.334 . S
C105 N106 1.336 . S
N106 Zn102 2.020 . S
N106 C105 1.336 . S
N106 N107 1.354 . S
N107 C103 1.336 . S
N107 N106 1.354 . S
N107 Zn111 2.020 . S
C108 O109 1.244 . S
C108 O132 1.257 . S
O109 C108 1.244 . S
O110 Zn102 2.019 . S
O110 C130 1.257 . S
Zn111 N107 2.020 . S
Zn111 O118 1.975 . S
Zn111 N127 2.119 . S
Zn111 O132 2.019 . S
N112 Zn102 2.119 . S
N112 C114 1.334 . S
N112 C115 1.328 . S
C113 C114 1.391 . S
C113 N116 1.329 . S
C113 H134 0.930 . S
C114 N112 1.334 . S
C114 C113 1.391 . S
C114 H121 0.930 . S
C115 N112 1.328 . S
C115 C117 1.392 . S
C115 H122 0.930 . S
N116 C113 1.329 . S
N116 C117 1.331 . S
C117 C115 1.392 . S
C117 N116 1.331 . S
O118 Zn111 1.975 . S
O118 C119 1.252 . S
C119 O118 1.252 . S
C119 O120 1.252 . S
O120 Zn102 1.975 . S
O120 C119 1.252 . S
H121 C114 0.930 . S
H122 C115 0.930 . S
C123 C124 1.392 . S
C123 N127 1.328 . S
C123 H129 0.930 . S
C124 C123 1.392 . S
C124 N128 1.331 . S
C125 C126 1.391 . S
C125 N128 1.329 . S
C125 H135 0.930 . S
C126 C125 1.391 . S
C126 N127 1.334 . S
C126 H133 0.930 . S
N127 Zn111 2.119 . S
N127 C123 1.328 . S
N127 C126 1.334 . S
N128 C124 1.331 . S
N128 C125 1.329 . S
H129 C123 0.930 . S
C130 O110 1.257 . S
C130 O131 1.244 . S
O131 C130 1.244 . S
O132 C108 1.257 . S
O132 Zn111 2.019 . S
H133 C126 0.930 . S
H134 C113 0.930 . S
H135 C125 0.930 . S
Zn136 N140 2.020 . S
Zn136 O144 2.019 . S
Zn136 N146 2.119 . S
Zn136 O154 1.975 . S
C137 N138 1.334 . S
C137 N141 1.336 . S
N138 C137 1.334 . S
N138 C139 1.334 . S
C139 N138 1.334 . S
C139 N140 1.336 . S
N140 Zn136 2.020 . S
N140 C139 1.336 . S
N140 N141 1.354 . S
N141 C137 1.336 . S
N141 N140 1.354 . S
N141 Zn145 2.020 . S
C142 O143 1.244 . S
C142 O166 1.257 . S
O143 C142 1.244 . S
O144 Zn136 2.019 . S
O144 C164 1.257 . S
Zn145 N141 2.020 . S
Zn145 O152 1.975 . S
Zn145 N161 2.119 . S
Zn145 O166 2.019 . S
N146 Zn136 2.119 . S
N146 C148 1.334 . S
N146 C149 1.328 . S
C147 C148 1.391 . S
C147 N150 1.329 . S
C147 H168 0.930 . S
C148 N146 1.334 . S
C148 C147 1.391 . S
C148 H155 0.930 . S
C149 N146 1.328 . S
C149 C151 1.392 . S
C149 H156 0.930 . S
N150 C147 1.329 . S
N150 C151 1.331 . S
C151 C149 1.392 . S
C151 N150 1.331 . S
O152 Zn145 1.975 . S
O152 C153 1.252 . S
C153 O152 1.252 . S
C153 O154 1.252 . S
O154 Zn136 1.975 . S
O154 C153 1.252 . S
H155 C148 0.930 . S
H156 C149 0.930 . S
C157 C158 1.392 . S
C157 N161 1.328 . S
C157 H163 0.930 . S
C158 C157 1.392 . S
C158 N162 1.331 . S
C159 C160 1.391 . S
C159 N162 1.329 . S
C159 H169 0.930 . S
C160 C159 1.391 . S
C160 N161 1.334 . S
C160 H167 0.930 . S
N161 Zn145 2.119 . S
N161 C157 1.328 . S
N161 C160 1.334 . S
N162 C158 1.331 . S
N162 C159 1.329 . S
H163 C157 0.930 . S
C164 O144 1.257 . S
C164 O165 1.244 . S
O165 C164 1.244 . S
O166 C142 1.257 . S
O166 Zn145 2.019 . S
H167 C160 0.930 . S
H168 C147 0.930 . S
H169 C159 0.930 . S
Zn170 N174 2.020 . S
Zn170 O178 2.019 . S
Zn170 N180 2.119 . S
Zn170 O188 1.975 . S
C171 N172 1.334 . S
C171 N175 1.336 . S
N172 C171 1.334 . S
N172 C173 1.334 . S
C173 N172 1.334 . S
C173 N174 1.336 . S
N174 Zn170 2.020 . S
N174 C173 1.336 . S
N174 N175 1.354 . S
N175 C171 1.336 . S
N175 N174 1.354 . S
N175 Zn179 2.020 . S
C176 O177 1.244 . S
C176 O200 1.257 . S
O177 C176 1.244 . S
O178 Zn170 2.019 . S
O178 C198 1.257 . S
Zn179 N175 2.020 . S
Zn179 O186 1.975 . S
Zn179 N195 2.119 . S
Zn179 O200 2.019 . S
N180 Zn170 2.119 . S
N180 C182 1.334 . S
N180 C183 1.328 . S
C181 C182 1.391 . S
C181 N184 1.329 . S
C181 H202 0.930 . S
C182 N180 1.334 . S
C182 C181 1.391 . S
C182 H189 0.930 . S
C183 N180 1.328 . S
C183 C185 1.392 . S
C183 H190 0.930 . S
N184 C181 1.329 . S
N184 C185 1.331 . S
C185 C183 1.392 . S
C185 N184 1.331 . S
O186 Zn179 1.975 . S
O186 C187 1.252 . S
C187 O186 1.252 . S
C187 O188 1.252 . S
O188 Zn170 1.975 . S
O188 C187 1.252 . S
H189 C182 0.930 . S
H190 C183 0.930 . S
C191 C192 1.392 . S
C191 N195 1.328 . S
C191 H197 0.930 . S
C192 C191 1.392 . S
C192 N196 1.331 . S
C193 C194 1.391 . S
C193 N196 1.329 . S
C193 H203 0.930 . S
C194 C193 1.391 . S
C194 N195 1.334 . S
C194 H201 0.930 . S
N195 Zn179 2.119 . S
N195 C191 1.328 . S
N195 C194 1.334 . S
N196 C192 1.331 . S
N196 C193 1.329 . S
H197 C191 0.930 . S
C198 O178 1.257 . S
C198 O199 1.244 . S
O199 C198 1.244 . S
O200 C176 1.257 . S
O200 Zn179 2.019 . S
H201 C194 0.930 . S
H202 C181 0.930 . S
H203 C193 0.930 . S
Zn204 N208 2.020 . S
Zn204 O212 2.019 . S
Zn204 N214 2.119 . S
Zn204 O222 1.975 . S
C205 N206 1.334 . S
C205 N209 1.336 . S
N206 C205 1.334 . S
N206 C207 1.334 . S
C207 N206 1.334 . S
C207 N208 1.336 . S
N208 Zn204 2.020 . S
N208 C207 1.336 . S
N208 N209 1.354 . S
N209 C205 1.336 . S
N209 N208 1.354 . S
N209 Zn213 2.020 . S
C210 O211 1.244 . S
C210 O234 1.257 . S
O211 C210 1.244 . S
O212 Zn204 2.019 . S
O212 C232 1.257 . S
Zn213 N209 2.020 . S
Zn213 O220 1.975 . S
Zn213 N229 2.119 . S
Zn213 O234 2.019 . S
N214 Zn204 2.119 . S
N214 C216 1.334 . S
N214 C217 1.328 . S
C215 C216 1.391 . S
C215 N218 1.329 . S
C215 H236 0.930 . S
C216 N214 1.334 . S
C216 C215 1.391 . S
C216 H223 0.930 . S
C217 N214 1.328 . S
C217 C219 1.392 . S
C217 H224 0.930 . S
N218 C215 1.329 . S
N218 C219 1.331 . S
C219 C217 1.392 . S
C219 N218 1.331 . S
O220 Zn213 1.975 . S
O220 C221 1.252 . S
C221 O220 1.252 . S
C221 O222 1.252 . S
O222 Zn204 1.975 . S
O222 C221 1.252 . S
H223 C216 0.930 . S
H224 C217 0.930 . S
C225 C226 1.392 . S
C225 N229 1.328 . S
C225 H231 0.930 . S
C226 C225 1.392 . S
C226 N230 1.331 . S
C227 C228 1.391 . S
C227 N230 1.329 . S
C227 H237 0.930 . S
C228 C227 1.391 . S
C228 N229 1.334 . S
C228 H235 0.930 . S
N229 Zn213 2.119 . S
N229 C225 1.328 . S
N229 C228 1.334 . S
N230 C226 1.331 . S
N230 C227 1.329 . S
H231 C225 0.930 . S
C232 O212 1.257 . S
C232 O233 1.244 . S
O233 C232 1.244 . S
O234 C210 1.257 . S
O234 Zn213 2.019 . S
H235 C228 0.930 . S
H236 C215 0.930 . S
H237 C227 0.930 . S
Zn238 N242 2.020 . S
Zn238 O246 2.019 . S
Zn238 N248 2.119 . S
Zn238 O256 1.975 . S
C239 N240 1.334 . S
C239 N243 1.336 . S
N240 C239 1.334 . S
N240 C241 1.334 . S
C241 N240 1.334 . S
C241 N242 1.336 . S
N242 Zn238 2.020 . S
N242 C241 1.336 . S
N242 N243 1.354 . S
N243 C239 1.336 . S
N243 N242 1.354 . S
N243 Zn247 2.020 . S
C244 O245 1.244 . S
C244 O268 1.257 . S
O245 C244 1.244 . S
O246 Zn238 2.019 . S
O246 C266 1.257 . S
Zn247 N243 2.020 . S
Zn247 O254 1.975 . S
Zn247 N263 2.119 . S
Zn247 O268 2.019 1_545 S
N248 Zn238 2.119 . S
N248 C250 1.334 . S
N248 C251 1.328 . S
C249 C250 1.391 . S
C249 N252 1.329 . S
C249 H270 0.930 . S
C250 N248 1.334 . S
C250 C249 1.391 . S
C250 H257 0.930 . S
C251 N248 1.328 . S
C251 C253 1.392 . S
C251 H258 0.930 . S
N252 C249 1.329 . S
N252 C253 1.331 . S
C253 C251 1.392 . S
C253 N252 1.331 . S
O254 Zn247 1.975 . S
O254 C255 1.252 . S
C255 O254 1.252 . S
C255 O256 1.252 . S
O256 Zn238 1.975 . S
O256 C255 1.252 . S
H257 C250 0.930 . S
H258 C251 0.930 . S
C259 C260 1.392 . S
C259 N263 1.328 . S
C259 H265 0.930 . S
C260 C259 1.392 . S
C260 N264 1.331 . S
C261 C262 1.391 . S
C261 N264 1.329 . S
C261 H271 0.930 . S
C262 C261 1.391 . S
C262 N263 1.334 . S
C262 H269 0.930 . S
N263 Zn247 2.119 . S
N263 C259 1.328 . S
N263 C262 1.334 . S
N264 C260 1.331 . S
N264 C261 1.329 . S
H265 C259 0.930 . S
C266 O246 1.257 . S
C266 O267 1.244 . S
O267 C266 1.244 . S
O268 C244 1.257 . S
O268 Zn247 2.019 1_565 S
H269 C262 0.930 . S
H270 C249 0.930 . S
H271 C261 0.930 . S
Zn272 N276 2.020 . S
Zn272 O280 2.019 . S
Zn272 N282 2.119 . S
Zn272 O290 1.975 . S
C273 N274 1.334 . S
C273 N277 1.336 . S
N274 C273 1.334 . S
N274 C275 1.334 . S
C275 N274 1.334 . S
C275 N276 1.336 . S
N276 Zn272 2.020 . S
N276 C275 1.336 . S
N276 N277 1.354 . S
N277 C273 1.336 . S
N277 N276 1.354 . S
N277 Zn281 2.020 . S
C278 O279 1.244 . S
C278 O302 1.257 . S
O279 C278 1.244 . S
O280 Zn272 2.019 . S
O280 C300 1.257 . S
Zn281 N277 2.020 . S
Zn281 O288 1.975 . S
Zn281 N297 2.119 . S
Zn281 O302 2.019 . S
N282 Zn272 2.119 . S
N282 C284 1.334 . S
N282 C285 1.328 . S
C283 C284 1.391 . S
C283 N286 1.329 . S
C283 H304 0.930 . S
C284 N282 1.334 . S
C284 C283 1.391 . S
C284 H291 0.930 . S
C285 N282 1.328 . S
C285 C287 1.392 . S
C285 H292 0.930 . S
N286 C283 1.329 . S
N286 C287 1.331 . S
C287 C285 1.392 . S
C287 N286 1.331 . S
O288 Zn281 1.975 . S
O288 C289 1.252 . S
C289 O288 1.252 . S
C289 O290 1.252 . S
O290 Zn272 1.975 . S
O290 C289 1.252 . S
H291 C284 0.930 . S
H292 C285 0.930 . S
C293 C294 1.392 . S
C293 N297 1.328 . S
C293 H299 0.930 . S
C294 C293 1.392 . S
C294 N298 1.331 . S
C295 C296 1.391 . S
C295 N298 1.329 . S
C295 H305 0.930 . S
C296 C295 1.391 . S
C296 N297 1.334 . S
C296 H303 0.930 . S
N297 Zn281 2.119 . S
N297 C293 1.328 . S
N297 C296 1.334 . S
N298 C294 1.331 . S
N298 C295 1.329 . S
H299 C293 0.930 . S
C300 O280 1.257 . S
C300 O301 1.244 . S
O301 C300 1.244 . S
O302 C278 1.257 . S
O302 Zn281 2.019 . S
H303 C296 0.930 . S
H304 C283 0.930 . S
H305 C295 0.930 . S
Zn306 N310 2.020 . S
Zn306 O314 2.019 . S
Zn306 N316 2.119 . S
Zn306 O324 1.975 . S
C307 N308 1.334 . S
C307 N311 1.336 . S
N308 C307 1.334 . S
N308 C309 1.334 . S
C309 N308 1.334 . S
C309 N310 1.336 . S
N310 Zn306 2.020 . S
N310 C309 1.336 . S
N310 N311 1.354 . S
N311 C307 1.336 . S
N311 N310 1.354 . S
N311 Zn315 2.020 . S
C312 O313 1.244 . S
C312 O336 1.257 . S
O313 C312 1.244 . S
O314 Zn306 2.019 . S
O314 C334 1.257 . S
Zn315 N311 2.020 . S
Zn315 O322 1.975 1_545 S
Zn315 N331 2.119 . S
Zn315 O336 2.019 . S
N316 Zn306 2.119 . S
N316 C318 1.334 . S
N316 C319 1.328 . S
C317 C318 1.391 . S
C317 N320 1.329 . S
C317 H338 0.930 . S
C318 N316 1.334 . S
C318 C317 1.391 . S
C318 H325 0.930 . S
C319 N316 1.328 . S
C319 C321 1.392 . S
C319 H326 0.930 . S
N320 C317 1.329 . S
N320 C321 1.331 . S
C321 C319 1.392 . S
C321 N320 1.331 . S
O322 Zn315 1.975 1_565 S
O322 C323 1.252 . S
C323 O322 1.252 . S
C323 O324 1.252 1_565 S
O324 Zn306 1.975 . S
O324 C323 1.252 1_545 S
H325 C318 0.930 . S
H326 C319 0.930 . S
C327 C328 1.392 . S
C327 N331 1.328 . S
C327 H333 0.930 . S
C328 C327 1.392 . S
C328 N332 1.331 . S
C329 C330 1.391 . S
C329 N332 1.329 . S
C329 H339 0.930 . S
C330 C329 1.391 . S
C330 N331 1.334 . S
C330 H337 0.930 . S
N331 Zn315 2.119 . S
N331 C327 1.328 . S
N331 C330 1.334 . S
N332 C328 1.331 . S
N332 C329 1.329 . S
H333 C327 0.930 . S
C334 O314 1.257 . S
C334 O335 1.244 . S
O335 C334 1.244 . S
O336 C312 1.257 . S
O336 Zn315 2.019 . S
H337 C330 0.930 . S
H338 C317 0.930 . S
H339 C329 0.930 . S
Zn340 N344 2.020 . S
Zn340 O348 2.019 . S
Zn340 N350 2.119 . S
Zn340 O358 1.975 . S
C341 N342 1.334 . S
C341 N345 1.336 . S
N342 C341 1.334 . S
N342 C343 1.334 . S
C343 N342 1.334 . S
C343 N344 1.336 . S
N344 Zn340 2.020 . S
N344 C343 1.336 . S
N344 N345 1.354 . S
N345 C341 1.336 . S
N345 N344 1.354 . S
N345 Zn349 2.020 . S
C346 O347 1.244 . S
C346 O370 1.257 . S
O347 C346 1.244 . S
O348 Zn340 2.019 . S
O348 C368 1.257 . S
Zn349 N345 2.020 . S
Zn349 O356 1.975 . S
Zn349 N365 2.119 . S
Zn349 O370 2.019 . S
N350 Zn340 2.119 . S
N350 C352 1.334 . S
N350 C353 1.328 . S
C351 C352 1.391 . S
C351 N354 1.329 . S
C351 H372 0.930 . S
C352 N350 1.334 . S
C352 C351 1.391 . S
C352 H359 0.930 . S
C353 N350 1.328 . S
C353 C355 1.392 . S
C353 H360 0.930 . S
N354 C351 1.329 . S
N354 C355 1.331 . S
C355 C353 1.392 . S
C355 N354 1.331 . S
O356 Zn349 1.975 . S
O356 C357 1.252 . S
C357 O356 1.252 . S
C357 O358 1.252 . S
O358 Zn340 1.975 . S
O358 C357 1.252 . S
H359 C352 0.930 . S
H360 C353 0.930 . S
C361 C362 1.392 . S
C361 N365 1.328 . S
C361 H367 0.930 . S
C362 C361 1.392 . S
C362 N366 1.331 . S
C363 C364 1.391 . S
C363 N366 1.329 . S
C363 H373 0.930 . S
C364 C363 1.391 . S
C364 N365 1.334 . S
C364 H371 0.930 . S
N365 Zn349 2.119 . S
N365 C361 1.328 . S
N365 C364 1.334 . S
N366 C362 1.331 . S
N366 C363 1.329 . S
H367 C361 0.930 . S
C368 O348 1.257 . S
C368 O369 1.244 . S
O369 C368 1.244 . S
O370 C346 1.257 . S
O370 Zn349 2.019 . S
H371 C364 0.930 . S
H372 C351 0.930 . S
H373 C363 0.930 . S
Zn374 N378 2.020 . S
Zn374 O382 2.019 . S
Zn374 N384 2.119 . S
Zn374 O392 1.975 . S
C375 N376 1.334 . S
C375 N379 1.336 . S
N376 C375 1.334 . S
N376 C377 1.334 . S
C377 N376 1.334 . S
C377 N378 1.336 . S
N378 Zn374 2.020 . S
N378 C377 1.336 . S
N378 N379 1.354 . S
N379 C375 1.336 . S
N379 N378 1.354 . S
N379 Zn383 2.020 . S
C380 O381 1.244 . S
C380 O404 1.257 . S
O381 C380 1.244 . S
O382 Zn374 2.019 . S
O382 C402 1.257 . S
Zn383 N379 2.020 . S
Zn383 O390 1.975 . S
Zn383 N399 2.119 . S
Zn383 O404 2.019 . S
N384 Zn374 2.119 . S
N384 C386 1.334 . S
N384 C387 1.328 . S
C385 C386 1.391 . S
C385 N388 1.329 . S
C385 H406 0.930 . S
C386 N384 1.334 . S
C386 C385 1.391 . S
C386 H393 0.930 . S
C387 N384 1.328 . S
C387 C389 1.392 . S
C387 H394 0.930 . S
N388 C385 1.329 . S
N388 C389 1.331 . S
C389 C387 1.392 . S
C389 N388 1.331 . S
O390 Zn383 1.975 . S
O390 C391 1.252 . S
C391 O390 1.252 . S
C391 O392 1.252 . S
O392 Zn374 1.975 . S
O392 C391 1.252 . S
H393 C386 0.930 . S
H394 C387 0.930 . S
C395 C396 1.392 . S
C395 N399 1.328 . S
C395 H401 0.930 . S
C396 C395 1.392 . S
C396 N400 1.331 . S
C397 C398 1.391 . S
C397 N400 1.329 . S
C397 H407 0.930 . S
C398 C397 1.391 . S
C398 N399 1.334 . S
C398 H405 0.930 . S
N399 Zn383 2.119 . S
N399 C395 1.328 . S
N399 C398 1.334 . S
N400 C396 1.331 . S
N400 C397 1.329 . S
H401 C395 0.930 . S
C402 O382 1.257 . S
C402 O403 1.244 . S
O403 C402 1.244 . S
O404 C380 1.257 . S
O404 Zn383 2.019 . S
H405 C398 0.930 . S
H406 C385 0.930 . S
H407 C397 0.930 . S
Zn408 N412 2.020 . S
Zn408 O416 2.019 . S
Zn408 N418 2.119 . S
Zn408 O426 1.975 . S
C409 N410 1.334 . S
C409 N413 1.336 . S
N410 C409 1.334 . S
N410 C411 1.334 . S
C411 N410 1.334 . S
C411 N412 1.336 . S
N412 Zn408 2.020 . S
N412 C411 1.336 . S
N412 N413 1.354 . S
N413 C409 1.336 . S
N413 N412 1.354 . S
N413 Zn417 2.020 . S
C414 O415 1.244 . S
C414 O438 1.257 . S
O415 C414 1.244 . S
O416 Zn408 2.019 . S
O416 C436 1.257 . S
Zn417 N413 2.020 . S
Zn417 O424 1.975 . S
Zn417 N433 2.119 . S
Zn417 O438 2.019 . S
N418 Zn408 2.119 . S
N418 C420 1.334 . S
N418 C421 1.328 . S
C419 C420 1.391 . S
C419 N422 1.329 . S
C419 H440 0.930 . S
C420 N418 1.334 . S
C420 C419 1.391 . S
C420 H427 0.930 . S
C421 N418 1.328 . S
C421 C423 1.392 . S
C421 H428 0.930 . S
N422 C419 1.329 . S
N422 C423 1.331 . S
C423 C421 1.392 . S
C423 N422 1.331 . S
O424 Zn417 1.975 . S
O424 C425 1.252 . S
C425 O424 1.252 . S
C425 O426 1.252 . S
O426 Zn408 1.975 . S
O426 C425 1.252 . S
H427 C420 0.930 . S
H428 C421 0.930 . S
C429 C430 1.392 . S
C429 N433 1.328 . S
C429 H435 0.930 . S
C430 C429 1.392 . S
C430 N434 1.331 . S
C431 C432 1.391 . S
C431 N434 1.329 . S
C431 H441 0.930 . S
C432 C431 1.391 . S
C432 N433 1.334 . S
C432 H439 0.930 . S
N433 Zn417 2.119 . S
N433 C429 1.328 . S
N433 C432 1.334 . S
N434 C430 1.331 . S
N434 C431 1.329 . S
H435 C429 0.930 . S
C436 O416 1.257 . S
C436 O437 1.244 . S
O437 C436 1.244 . S
O438 C414 1.257 . S
O438 Zn417 2.019 . S
H439 C432 0.930 . S
H440 C419 0.930 . S
H441 C431 0.930 . S
Zn442 N446 2.020 . S
Zn442 O450 2.019 . S
Zn442 N452 2.119 . S
Zn442 O460 1.975 . S
C443 N444 1.334 . S
C443 N447 1.336 . S
N444 C443 1.334 . S
N444 C445 1.334 . S
C445 N444 1.334 . S
C445 N446 1.336 . S
N446 Zn442 2.020 . S
N446 C445 1.336 . S
N446 N447 1.354 . S
N447 C443 1.336 . S
N447 N446 1.354 . S
N447 Zn451 2.020 . S
C448 O449 1.244 . S
C448 O472 1.257 . S
O449 C448 1.244 . S
O450 Zn442 2.019 . S
O450 C470 1.257 . S
Zn451 N447 2.020 . S
Zn451 O458 1.975 . S
Zn451 N467 2.119 . S
Zn451 O472 2.019 . S
N452 Zn442 2.119 . S
N452 C454 1.334 . S
N452 C455 1.328 . S
C453 C454 1.391 . S
C453 N456 1.329 . S
C453 H474 0.930 . S
C454 N452 1.334 . S
C454 C453 1.391 . S
C454 H461 0.930 . S
C455 N452 1.328 . S
C455 C457 1.392 . S
C455 H462 0.930 . S
N456 C453 1.329 . S
N456 C457 1.331 . S
C457 C455 1.392 . S
C457 N456 1.331 . S
O458 Zn451 1.975 . S
O458 C459 1.252 . S
C459 O458 1.252 . S
C459 O460 1.252 . S
O460 Zn442 1.975 . S
O460 C459 1.252 . S
H461 C454 0.930 . S
H462 C455 0.930 . S
C463 C464 1.392 . S
C463 N467 1.328 . S
C463 H469 0.930 . S
C464 C463 1.392 . S
C464 N468 1.331 . S
C465 C466 1.391 . S
C465 N468 1.329 . S
C465 H475 0.930 . S
C466 C465 1.391 . S
C466 N467 1.334 . S
C466 H473 0.930 . S
N467 Zn451 2.119 . S
N467 C463 1.328 . S
N467 C466 1.334 . S
N468 C464 1.331 . S
N468 C465 1.329 . S
H469 C463 0.930 . S
C470 O450 1.257 . S
C470 O471 1.244 . S
O471 C470 1.244 . S
O472 C448 1.257 . S
O472 Zn451 2.019 . S
H473 C466 0.930 . S
H474 C453 0.930 . S
H475 C465 0.930 . S
Zn476 N480 2.020 . S
Zn476 O484 2.019 . S
Zn476 N486 2.119 . S
Zn476 O494 1.975 . S
C477 N478 1.334 . S
C477 N481 1.336 . S
N478 C477 1.334 . S
N478 C479 1.334 . S
C479 N478 1.334 . S
C479 N480 1.336 . S
N480 Zn476 2.020 . S
N480 C479 1.336 . S
N480 N481 1.354 . S
N481 C477 1.336 . S
N481 N480 1.354 . S
N481 Zn485 2.020 . S
C482 O483 1.244 . S
C482 O506 1.257 . S
O483 C482 1.244 . S
O484 Zn476 2.019 . S
O484 C504 1.257 . S
Zn485 N481 2.020 . S
Zn485 O492 1.975 . S
Zn485 N501 2.119 . S
Zn485 O506 2.019 . S
N486 Zn476 2.119 . S
N486 C488 1.334 . S
N486 C489 1.328 . S
C487 C488 1.391 . S
C487 N490 1.329 . S
C487 H508 0.930 . S
C488 N486 1.334 . S
C488 C487 1.391 . S
C488 H495 0.930 . S
C489 N486 1.328 . S
C489 C491 1.392 . S
C489 H496 0.930 . S
N490 C487 1.329 . S
N490 C491 1.331 . S
C491 C489 1.392 . S
C491 N490 1.331 . S
O492 Zn485 1.975 . S
O492 C493 1.252 . S
C493 O492 1.252 . S
C493 O494 1.252 . S
O494 Zn476 1.975 . S
O494 C493 1.252 . S
H495 C488 0.930 . S
H496 C489 0.930 . S
C497 C498 1.392 . S
C497 N501 1.328 . S
C497 H503 0.930 . S
C498 C497 1.392 . S
C498 N502 1.331 . S
C499 C500 1.391 . S
C499 N502 1.329 . S
C499 H509 0.930 . S
C500 C499 1.391 . S
C500 N501 1.334 . S
C500 H507 0.930 . S
N501 Zn485 2.119 . S
N501 C497 1.328 . S
N501 C500 1.334 . S
N502 C498 1.331 . S
N502 C499 1.329 . S
H503 C497 0.930 . S
C504 O484 1.257 . S
C504 O505 1.244 . S
O505 C504 1.244 . S
O506 C482 1.257 . S
O506 Zn485 2.019 . S
H507 C500 0.930 . S
H508 C487 0.930 . S
H509 C499 0.930 . S
Zn510 N514 2.020 . S
Zn510 O518 2.019 . S
Zn510 N520 2.119 . S
Zn510 O528 1.975 . S
C511 N512 1.334 . S
C511 N515 1.336 . S
N512 C511 1.334 . S
N512 C513 1.334 . S
C513 N512 1.334 . S
C513 N514 1.336 . S
N514 Zn510 2.020 . S
N514 C513 1.336 . S
N514 N515 1.354 . S
N515 C511 1.336 . S
N515 N514 1.354 . S
N515 Zn519 2.020 . S
C516 O517 1.244 . S
C516 O540 1.257 . S
O517 C516 1.244 . S
O518 Zn510 2.019 . S
O518 C538 1.257 . S
Zn519 N515 2.020 . S
Zn519 O526 1.975 . S
Zn519 N535 2.119 . S
Zn519 O540 2.019 1_565 S
N520 Zn510 2.119 . S
N520 C522 1.334 . S
N520 C523 1.328 . S
C521 C522 1.391 . S
C521 N524 1.329 . S
C521 H542 0.923 1_565 S
C522 N520 1.334 . S
C522 C521 1.391 . S
C522 H529 0.930 . S
C523 N520 1.328 . S
C523 C525 1.392 . S
C523 H530 0.930 . S
N524 C521 1.329 . S
N524 C525 1.331 . S
C525 C523 1.392 . S
C525 N524 1.331 . S
O526 Zn519 1.975 . S
O526 C527 1.252 . S
C527 O526 1.252 . S
C527 O528 1.252 . S
O528 Zn510 1.975 . S
O528 C527 1.252 . S
H529 C522 0.930 . S
H530 C523 0.930 . S
C531 C532 1.392 . S
C531 N535 1.328 . S
C531 H537 0.930 1_565 S
C532 C531 1.392 . S
C532 N536 1.331 . S
C533 C534 1.391 . S
C533 N536 1.329 . S
C533 H543 0.930 . S
C534 C533 1.391 . S
C534 N535 1.334 . S
C534 H541 0.930 . S
N535 Zn519 2.119 . S
N535 C531 1.328 . S
N535 C534 1.334 . S
N536 C532 1.331 . S
N536 C533 1.329 . S
H537 C531 0.930 1_545 S
C538 O518 1.257 . S
C538 O539 1.244 . S
O539 C538 1.244 . S
O540 C516 1.257 . S
O540 Zn519 2.019 1_545 S
H541 C534 0.930 . S
H542 C521 0.923 1_545 S
H543 C533 0.930 . S
H544 C552 0.929 . S
H545 C554 0.930 . S
H546 C556 0.930 . S
H547 C559 0.929 . S
H548 C562 0.930 . S
H549 C564 0.960 . S
H550 C564 0.960 . S
H551 C564 0.960 . S
C552 H544 0.929 . S
C552 C553 1.377 . S
C552 C554 1.384 . S
C553 C552 1.377 . S
C553 C559 1.390 . S
C554 H545 0.930 . S
C554 C552 1.384 . S
C554 C555 1.372 . S
C555 C554 1.372 . S
C555 C556 1.400 . S
C555 C560 1.490 . S
C556 H546 0.930 . S
C556 C555 1.400 . S
C556 C559 1.386 . S
H557 C573 0.930 . S
H558 C574 0.931 . S
C559 H547 0.929 . S
C559 C553 1.390 . S
C559 C556 1.386 . S
C560 C555 1.490 . S
C560 C562 1.395 1_455 S
C560 C563 1.403 . S
H561 C567 0.930 . S
C562 H548 0.930 . S
C562 C560 1.395 1_655 S
C562 C565 1.403 . S
C563 C560 1.403 . S
C563 C564 1.524 . S
C563 C567 1.400 1_455 S
C564 H549 0.960 . S
C564 H550 0.960 . S
C564 H551 0.960 . S
C564 C563 1.524 . S
C565 C562 1.403 . S
C565 C566 1.392 . S
C565 C569 1.495 . S
C566 C565 1.392 . S
C566 C567 1.385 . S
C566 C568 1.478 . S
C567 H561 0.930 . S
C567 C563 1.400 1_655 S
C567 C566 1.385 . S
C568 C566 1.478 . S
C568 C570 1.381 . S
C568 C574 1.383 . S
C569 C565 1.495 . S
C569 H575 0.959 . S
C569 H576 0.961 . S
C569 H577 0.960 . S
C570 C568 1.381 . S
C570 C571 1.394 . S
C570 H578 0.930 . S
C571 C570 1.394 . S
C571 C572 1.383 . S
C571 H579 0.929 . S
C572 C571 1.383 . S
C572 C573 1.377 . S
C573 H557 0.930 . S
C573 C572 1.377 . S
C573 C574 1.379 . S
C574 H558 0.931 . S
C574 C568 1.383 . S
C574 C573 1.379 . S
H575 C569 0.959 . S
H576 C569 0.961 . S
H577 C569 0.960 . S
H578 C570 0.930 . S
H579 C571 0.929 . S
H580 C588 0.929 . S
H581 C590 0.930 . S
H582 C592 0.930 . S
H583 C595 0.929 . S
H584 C598 0.930 . S
H585 C600 0.960 . S
H586 C600 0.960 . S
H587 C600 0.960 . S
C588 H580 0.929 . S
C588 C589 1.377 . S
C588 C590 1.384 . S
C589 C588 1.377 . S
C589 C595 1.390 . S
C590 H581 0.930 . S
C590 C588 1.384 . S
C590 C591 1.372 . S
C591 C590 1.372 . S
C591 C592 1.400 . S
C591 C596 1.490 . S
C592 H582 0.930 . S
C592 C591 1.400 . S
C592 C595 1.386 . S
H593 C609 0.930 . S
H594 C610 0.931 . S
C595 H583 0.929 . S
C595 C589 1.390 . S
C595 C592 1.386 . S
C596 C591 1.490 . S
C596 C598 1.395 . S
C596 C599 1.403 1_655 S
H597 C603 0.930 . S
C598 H584 0.930 . S
C598 C596 1.395 . S
C598 C601 1.403 . S
C599 C596 1.403 1_455 S
C599 C600 1.524 . S
C599 C603 1.400 . S
C600 H585 0.960 . S
C600 H586 0.960 . S
C600 H587 0.960 . S
C600 C599 1.524 . S
C601 C598 1.403 . S
C601 C602 1.392 1_655 S
C601 C605 1.495 . S
C602 C601 1.392 1_455 S
C602 C603 1.385 . S
C602 C604 1.478 . S
C603 H597 0.930 . S
C603 C599 1.400 . S
C603 C602 1.385 . S
C604 C602 1.478 . S
C604 C606 1.381 . S
C604 C610 1.383 . S
C605 C601 1.495 . S
C605 H611 0.959 . S
C605 H612 0.961 . S
C605 H613 0.960 . S
C606 C604 1.381 . S
C606 C607 1.394 . S
C606 H614 0.930 . S
C607 C606 1.394 . S
C607 C608 1.383 . S
C607 H615 0.929 . S
C608 C607 1.383 . S
C608 C609 1.377 . S
C609 H593 0.930 . S
C609 C608 1.377 . S
C609 C610 1.379 . S
C610 H594 0.931 . S
C610 C604 1.383 . S
C610 C609 1.379 . S
H611 C605 0.959 . S
H612 C605 0.961 . S
H613 C605 0.960 . S
H614 C606 0.930 . S
H615 C607 0.929 . S
H616 C624 0.929 . S
H617 C626 0.930 . S
H618 C628 0.930 . S
H619 C631 0.929 . S
H620 C634 0.930 . S
H621 C636 0.960 . S
H622 C636 0.960 . S
H623 C636 0.960 . S
C624 H616 0.929 . S
C624 C625 1.377 . S
C624 C626 1.384 . S
C625 C624 1.377 . S
C625 C631 1.390 . S
C626 H617 0.930 . S
C626 C624 1.384 . S
C626 C627 1.372 . S
C627 C626 1.372 . S
C627 C628 1.400 . S
C627 C632 1.490 . S
C628 H618 0.930 . S
C628 C627 1.400 . S
C628 C631 1.386 . S
H629 C645 0.930 . S
H630 C646 0.931 . S
C631 H619 0.929 . S
C631 C625 1.390 . S
C631 C628 1.386 . S
C632 C627 1.490 . S
C632 C634 1.395 . S
C632 C635 1.403 . S
H633 C639 0.930 . S
C634 H620 0.930 . S
C634 C632 1.395 . S
C634 C637 1.403 . S
C635 C632 1.403 . S
C635 C636 1.524 . S
C635 C639 1.400 . S
C636 H621 0.960 . S
C636 H622 0.960 . S
C636 H623 0.960 . S
C636 C635 1.524 . S
C637 C634 1.403 . S
C637 C638 1.392 . S
C637 C641 1.495 . S
C638 C637 1.392 . S
C638 C639 1.385 . S
C638 C640 1.478 . S
C639 H633 0.930 . S
C639 C635 1.400 . S
C639 C638 1.385 . S
C640 C638 1.478 . S
C640 C642 1.381 . S
C640 C646 1.383 . S
C641 C637 1.495 . S
C641 H647 0.959 . S
C641 H648 0.961 . S
C641 H649 0.960 . S
C642 C640 1.381 . S
C642 C643 1.394 . S
C642 H650 0.930 . S
C643 C642 1.394 . S
C643 C644 1.383 . S
C643 H651 0.929 . S
C644 C643 1.383 . S
C644 C645 1.377 . S
C645 H629 0.930 . S
C645 C644 1.377 . S
C645 C646 1.379 . S
C646 H630 0.931 . S
C646 C640 1.383 . S
C646 C645 1.379 . S
H647 C641 0.959 . S
H648 C641 0.961 . S
H649 C641 0.960 . S
H650 C642 0.930 . S
H651 C643 0.929 . S
H652 C660 0.929 . S
H653 C662 0.930 . S
H654 C664 0.930 . S
H655 C667 0.929 . S
H656 C670 0.930 . S
H657 C672 0.960 . S
H658 C672 0.960 . S
H659 C672 0.960 . S
C660 H652 0.929 . S
C660 C661 1.377 . S
C660 C662 1.384 . S
C661 C660 1.377 . S
C661 C667 1.390 . S
C662 H653 0.930 . S
C662 C660 1.384 . S
C662 C663 1.372 . S
C663 C662 1.372 . S
C663 C664 1.400 . S
C663 C668 1.490 . S
C664 H654 0.930 . S
C664 C663 1.400 . S
C664 C667 1.386 . S
H665 C681 0.930 . S
H666 C682 0.931 . S
C667 H655 0.929 . S
C667 C661 1.390 . S
C667 C664 1.386 . S
C668 C663 1.490 . S
C668 C670 1.395 . S
C668 C671 1.403 . S
H669 C675 0.930 . S
C670 H656 0.930 . S
C670 C668 1.395 . S
C670 C673 1.403 . S
C671 C668 1.403 . S
C671 C672 1.524 . S
C671 C675 1.400 . S
C672 H657 0.960 . S
C672 H658 0.960 . S
C672 H659 0.960 . S
C672 C671 1.524 . S
C673 C670 1.403 . S
C673 C674 1.392 . S
C673 C677 1.495 . S
C674 C673 1.392 . S
C674 C675 1.385 . S
C674 C676 1.478 . S
C675 H669 0.930 . S
C675 C671 1.400 . S
C675 C674 1.385 . S
C676 C674 1.478 . S
C676 C678 1.381 . S
C676 C682 1.383 . S
C677 C673 1.495 . S
C677 H683 0.959 . S
C677 H684 0.961 . S
C677 H685 0.960 . S
C678 C676 1.381 . S
C678 C679 1.394 . S
C678 H686 0.930 . S
C679 C678 1.394 . S
C679 C680 1.383 . S
C679 H687 0.929 . S
C680 C679 1.383 . S
C680 C681 1.377 . S
C681 H665 0.930 . S
C681 C680 1.377 . S
C681 C682 1.379 . S
C682 H666 0.931 . S
C682 C676 1.383 . S
C682 C681 1.379 . S
H683 C677 0.959 . S
H684 C677 0.961 . S
H685 C677 0.960 . S
H686 C678 0.930 . S
H687 C679 0.929 . S
H688 C696 0.929 . S
H689 C698 0.930 . S
H690 C700 0.930 . S
H691 C703 0.929 . S
H692 C706 0.930 . S
H693 C708 0.960 . S
H694 C708 0.960 . S
H695 C708 0.960 . S
C696 H688 0.929 . S
C696 C697 1.377 . S
C696 C698 1.384 . S
C697 C696 1.377 . S
C697 C703 1.390 . S
C698 H689 0.930 . S
C698 C696 1.384 . S
C698 C699 1.372 . S
C699 C698 1.372 . S
C699 C700 1.400 . S
C699 C704 1.490 . S
C700 H690 0.930 . S
C700 C699 1.400 . S
C700 C703 1.386 . S
H701 C717 0.930 . S
H702 C718 0.931 . S
C703 H691 0.929 . S
C703 C697 1.390 . S
C703 C700 1.386 . S
C704 C699 1.490 . S
C704 C706 1.395 . S
C704 C707 1.421 . S
H705 C711 0.930 . S
C706 H692 0.930 . S
C706 C704 1.395 . S
C706 C709 1.403 . S
C707 C704 1.421 . S
C707 C708 1.516 1_655 S
C707 C711 1.390 1_655 S
C708 H693 0.960 . S
C708 H694 0.960 . S
C708 H695 0.960 . S
C708 C707 1.516 1_455 S
C709 C706 1.403 . S
C709 C710 1.392 1_655 S
C709 C713 1.495 . S
C710 C709 1.392 1_455 S
C710 C711 1.385 . S
C710 C712 1.478 . S
C711 H705 0.930 . S
C711 C707 1.390 1_455 S
C711 C710 1.385 . S
C712 C710 1.478 . S
C712 C714 1.381 . S
C712 C718 1.383 . S
C713 C709 1.495 . S
C713 H719 0.959 . S
C713 H720 0.961 . S
C713 H721 0.960 . S
C714 C712 1.381 . S
C714 C715 1.394 . S
C714 H722 0.930 . S
C715 C714 1.394 . S
C715 C716 1.383 . S
C715 H723 0.929 . S
C716 C715 1.383 . S
C716 C717 1.377 . S
C717 H701 0.930 . S
C717 C716 1.377 . S
C717 C718 1.379 . S
C718 H702 0.931 . S
C718 C712 1.383 . S
C718 C717 1.379 . S
H719 C713 0.959 . S
H720 C713 0.961 . S
H721 C713 0.960 . S
H722 C714 0.930 . S
H723 C715 0.929 . S
H724 C732 0.929 . S
H725 C734 0.930 . S
H726 C736 0.930 . S
H727 C739 0.929 . S
H728 C742 0.930 . S
H729 C744 0.960 . S
H730 C744 0.960 . S
H731 C744 0.960 . S
C732 H724 0.929 . S
C732 C733 1.377 . S
C732 C734 1.384 . S
C733 C732 1.377 . S
C733 C739 1.390 . S
C734 H725 0.930 . S
C734 C732 1.384 . S
C734 C735 1.372 . S
C735 C734 1.372 . S
C735 C736 1.400 . S
C735 C740 1.490 . S
C736 H726 0.930 . S
C736 C735 1.400 . S
C736 C739 1.386 . S
H737 C753 0.930 . S
H738 C754 0.931 . S
C739 H727 0.929 . S
C739 C733 1.390 . S
C739 C736 1.386 . S
C740 C735 1.490 . S
C740 C742 1.395 . S
C740 C743 1.403 . S
H741 C747 0.930 1_655 S
C742 H728 0.930 . S
C742 C740 1.395 . S
C742 C745 1.403 . S
C743 C740 1.403 . S
C743 C744 1.524 . S
C743 C747 1.400 . S
C744 H729 0.960 . S
C744 H730 0.960 . S
C744 H731 0.960 . S
C744 C743 1.524 . S
C745 C742 1.403 . S
C745 C746 1.392 1_455 S
C745 C749 1.495 . S
C746 C745 1.392 1_655 S
C746 C747 1.385 1_655 S
C746 C748 1.478 . S
C747 H741 0.930 1_455 S
C747 C743 1.400 . S
C747 C746 1.385 1_455 S
C748 C746 1.478 . S
C748 C750 1.381 . S
C748 C754 1.383 . S
C749 C745 1.495 . S
C749 H755 0.959 . S
C749 H756 0.961 1_455 S
C749 H757 0.960 . S
C750 C748 1.381 . S
C750 C751 1.394 . S
C750 H758 0.930 . S
C751 C750 1.394 . S
C751 C752 1.383 . S
C751 H759 0.929 . S
C752 C751 1.383 . S
C752 C753 1.377 . S
C753 H737 0.930 . S
C753 C752 1.377 . S
C753 C754 1.379 . S
C754 H738 0.931 . S
C754 C748 1.383 . S
C754 C753 1.379 . S
H755 C749 0.959 . S
H756 C749 0.961 1_655 S
H757 C749 0.960 . S
H758 C750 0.930 . S
H759 C751 0.929 . S
H760 C768 0.929 . S
H761 C770 0.930 . S
H762 C772 0.930 . S
H763 C775 0.929 . S
H764 C778 0.930 . S
H765 C780 0.960 . S
H766 C780 0.960 . S
H767 C780 0.960 . S
C768 H760 0.929 . S
C768 C769 1.377 . S
C768 C770 1.384 . S
C769 C768 1.377 . S
C769 C775 1.390 . S
C770 H761 0.930 . S
C770 C768 1.384 . S
C770 C771 1.372 . S
C771 C770 1.372 . S
C771 C772 1.400 . S
C771 C776 1.490 . S
C772 H762 0.930 . S
C772 C771 1.400 . S
C772 C775 1.386 . S
H773 C789 0.930 . S
H774 C790 0.931 . S
C775 H763 0.929 . S
C775 C769 1.390 . S
C775 C772 1.386 . S
C776 C771 1.490 . S
C776 C778 1.395 . S
C776 C779 1.403 . S
H777 C783 0.930 . S
C778 H764 0.930 . S
C778 C776 1.395 . S
C778 C781 1.403 . S
C779 C776 1.403 . S
C779 C780 1.524 . S
C779 C783 1.400 . S
C780 H765 0.960 . S
C780 H766 0.960 . S
C780 H767 0.960 . S
C780 C779 1.524 . S
C781 C778 1.403 . S
C781 C782 1.392 . S
C781 C785 1.495 . S
C782 C781 1.392 . S
C782 C783 1.385 . S
C782 C784 1.478 . S
C783 H777 0.930 . S
C783 C779 1.400 . S
C783 C782 1.385 . S
C784 C782 1.478 . S
C784 C786 1.381 . S
C784 C790 1.383 . S
C785 C781 1.495 . S
C785 H791 0.959 . S
C785 H792 0.961 . S
C785 H793 0.960 . S
C786 C784 1.381 . S
C786 C787 1.394 . S
C786 H794 0.930 . S
C787 C786 1.394 . S
C787 C788 1.383 . S
C787 H795 0.929 . S
C788 C787 1.383 . S
C788 C789 1.377 . S
C789 H773 0.930 . S
C789 C788 1.377 . S
C789 C790 1.379 . S
C790 H774 0.931 . S
C790 C784 1.383 . S
C790 C789 1.379 . S
H791 C785 0.959 . S
H792 C785 0.961 . S
H793 C785 0.960 . S
H794 C786 0.930 . S
H795 C787 0.929 . S
H796 C804 0.929 . S
H797 C806 0.930 . S
H798 C808 0.930 . S
H799 C811 0.929 . S
H800 C814 0.930 . S
H801 C816 0.960 . S
H802 C816 0.960 . S
H803 C816 0.960 . S
C804 H796 0.929 . S
C804 C805 1.377 . S
C804 C806 1.384 . S
C805 C804 1.377 . S
C805 C811 1.390 . S
C806 H797 0.930 . S
C806 C804 1.384 . S
C806 C807 1.372 . S
C807 C806 1.372 . S
C807 C808 1.400 . S
C807 C812 1.490 . S
C808 H798 0.930 . S
C808 C807 1.400 . S
C808 C811 1.386 . S
H809 C825 0.930 . S
H810 C826 0.931 . S
C811 H799 0.929 . S
C811 C805 1.390 . S
C811 C808 1.386 . S
C812 C807 1.490 . S
C812 C814 1.395 . S
C812 C815 1.403 . S
H813 C819 0.930 . S
C814 H800 0.930 . S
C814 C812 1.395 . S
C814 C817 1.403 . S
C815 C812 1.403 . S
C815 C816 1.524 . S
C815 C819 1.400 . S
C816 H801 0.960 . S
C816 H802 0.960 . S
C816 H803 0.960 . S
C816 C815 1.524 . S
C817 C814 1.403 . S
C817 C818 1.392 . S
C817 C821 1.495 . S
C818 C817 1.392 . S
C818 C819 1.385 . S
C818 C820 1.478 . S
C819 H813 0.930 . S
C819 C815 1.400 . S
C819 C818 1.385 . S
C820 C818 1.478 . S
C820 C822 1.381 . S
C820 C826 1.383 . S
C821 C817 1.495 . S
C821 H827 0.959 . S
C821 H828 0.961 . S
C821 H829 0.960 . S
C822 C820 1.381 . S
C822 C823 1.394 . S
C822 H830 0.930 . S
C823 C822 1.394 . S
C823 C824 1.383 . S
C823 H831 0.929 . S
C824 C823 1.383 . S
C824 C825 1.377 . S
C825 H809 0.930 . S
C825 C824 1.377 . S
C825 C826 1.379 . S
C826 H810 0.931 . S
C826 C820 1.383 . S
C826 C825 1.379 . S
H827 C821 0.959 . S
H828 C821 0.961 . S
H829 C821 0.960 . S
H830 C822 0.930 . S
H831 C823 0.929 . S
H832 C840 0.929 . S
H833 C842 0.930 . S
H834 C844 0.930 . S
H835 C847 0.929 . S
H836 C850 0.930 . S
H837 C852 0.960 . S
H838 C852 0.960 . S
H839 C852 0.960 . S
C840 H832 0.929 . S
C840 C841 1.377 . S
C840 C842 1.384 . S
C841 C840 1.377 . S
C841 C847 1.390 . S
C842 H833 0.930 . S
C842 C840 1.384 . S
C842 C843 1.372 . S
C843 C842 1.372 . S
C843 C844 1.400 . S
C843 C848 1.490 . S
C844 H834 0.930 . S
C844 C843 1.400 . S
C844 C847 1.386 . S
H845 C861 0.930 . S
H846 C862 0.931 . S
C847 H835 0.929 . S
C847 C841 1.390 . S
C847 C844 1.386 . S
C848 C843 1.490 . S
C848 C850 1.395 . S
C848 C851 1.403 . S
H849 C855 0.930 . S
C850 H836 0.930 . S
C850 C848 1.395 . S
C850 C853 1.403 . S
C851 C848 1.403 . S
C851 C852 1.524 . S
C851 C855 1.400 . S
C852 H837 0.960 . S
C852 H838 0.960 . S
C852 H839 0.960 . S
C852 C851 1.524 . S
C853 C850 1.403 . S
C853 C854 1.392 . S
C853 C857 1.495 . S
C854 C853 1.392 . S
C854 C855 1.385 . S
C854 C856 1.478 . S
C855 H849 0.930 . S
C855 C851 1.400 . S
C855 C854 1.385 . S
C856 C854 1.478 . S
C856 C858 1.381 . S
C856 C862 1.383 . S
C857 C853 1.495 . S
C857 H863 0.959 . S
C857 H864 0.961 . S
C857 H865 0.960 . S
C858 C856 1.381 . S
C858 C859 1.394 . S
C858 H866 0.930 . S
C859 C858 1.394 . S
C859 C860 1.383 . S
C859 H867 0.929 . S
C860 C859 1.383 . S
C860 C861 1.377 . S
C861 H845 0.930 . S
C861 C860 1.377 . S
C861 C862 1.379 . S
C862 H846 0.931 . S
C862 C856 1.383 . S
C862 C861 1.379 . S
H863 C857 0.959 . S
H864 C857 0.961 . S
H865 C857 0.960 . S
H866 C858 0.930 . S
H867 C859 0.929 . S
H868 C876 0.929 . S
H869 C878 0.930 . S
H870 C880 0.930 . S
H871 C883 0.929 . S
H872 C886 0.930 . S
H873 C888 0.960 . S
H874 C888 0.960 . S
H875 C888 0.960 . S
C876 H868 0.929 . S
C876 C877 1.377 . S
C876 C878 1.384 . S
C877 C876 1.377 . S
C877 C883 1.390 . S
C878 H869 0.930 . S
C878 C876 1.384 . S
C878 C879 1.372 . S
C879 C878 1.372 . S
C879 C880 1.400 1_565 S
C879 C884 1.490 1_665 S
C880 H870 0.930 . S
C880 C879 1.400 1_545 S
C880 C883 1.386 1_545 S
H881 C897 0.930 . S
H882 C898 0.931 . S
C883 H871 0.929 . S
C883 C877 1.390 . S
C883 C880 1.386 1_565 S
C884 C879 1.490 1_445 S
C884 C886 1.395 . S
C884 C887 1.415 . S
H885 C891 0.930 . S
C886 H872 0.930 . S
C886 C884 1.395 . S
C886 C889 1.403 . S
C887 C884 1.415 . S
C887 C888 1.500 1_545 S
C887 C891 1.413 . S
C888 H873 0.960 . S
C888 H874 0.960 . S
C888 H875 0.960 . S
C888 C887 1.500 1_565 S
C889 C886 1.403 . S
C889 C890 1.392 . S
C889 C893 1.495 . S
C890 C889 1.392 . S
C890 C891 1.385 . S
C890 C892 1.478 . S
C891 H885 0.930 . S
C891 C887 1.413 . S
C891 C890 1.385 . S
C892 C890 1.478 . S
C892 C894 1.381 . S
C892 C898 1.383 . S
C893 C889 1.495 . S
C893 H899 0.959 . S
C893 H900 0.961 . S
C893 H901 0.960 . S
C894 C892 1.381 . S
C894 C895 1.394 . S
C894 H902 0.930 . S
C895 C894 1.394 . S
C895 C896 1.383 . S
C895 H903 0.929 . S
C896 C895 1.383 . S
C896 C897 1.377 . S
C897 H881 0.930 . S
C897 C896 1.377 . S
C897 C898 1.379 . S
C898 H882 0.931 . S
C898 C892 1.383 . S
C898 C897 1.379 . S
H899 C893 0.959 . S
H900 C893 0.961 . S
H901 C893 0.960 . S
H902 C894 0.930 . S
H903 C895 0.929 . S
H904 C912 0.929 . S
H905 C914 0.930 . S
H906 C916 0.930 . S
H907 C919 0.929 . S
H908 C922 0.930 . S
H909 C924 0.960 . S
H910 C924 0.960 . S
H911 C924 0.960 . S
C912 H904 0.929 . S
C912 C913 1.377 . S
C912 C914 1.384 . S
C913 C912 1.377 . S
C913 C919 1.390 . S
C914 H905 0.930 . S
C914 C912 1.384 . S
C914 C915 1.372 . S
C915 C914 1.372 . S
C915 C916 1.400 . S
C915 C920 1.490 . S
C916 H906 0.930 . S
C916 C915 1.400 . S
C916 C919 1.386 . S
H917 C933 0.930 . S
H918 C934 0.931 . S
C919 H907 0.929 . S
C919 C913 1.390 . S
C919 C916 1.386 . S
C920 C915 1.490 . S
C920 C922 1.395 . S
C920 C923 1.403 . S
H921 C927 0.930 . S
C922 H908 0.930 . S
C922 C920 1.395 . S
C922 C925 1.403 . S
C923 C920 1.403 . S
C923 C924 1.524 . S
C923 C927 1.400 . S
C924 H909 0.960 . S
C924 H910 0.960 . S
C924 H911 0.960 . S
C924 C923 1.524 . S
C925 C922 1.403 . S
C925 C926 1.392 . S
C925 C929 1.495 . S
C926 C925 1.392 . S
C926 C927 1.385 . S
C926 C928 1.478 . S
C927 H921 0.930 . S
C927 C923 1.400 . S
C927 C926 1.385 . S
C928 C926 1.478 . S
C928 C930 1.381 . S
C928 C934 1.383 . S
C929 C925 1.495 . S
C929 H935 0.959 . S
C929 H936 0.961 . S
C929 H937 0.960 . S
C930 C928 1.381 . S
C930 C931 1.394 . S
C930 H938 0.930 . S
C931 C930 1.394 . S
C931 C932 1.383 . S
C931 H939 0.929 . S
C932 C931 1.383 . S
C932 C933 1.377 . S
C933 H917 0.930 . S
C933 C932 1.377 . S
C933 C934 1.379 . S
C934 H918 0.931 . S
C934 C928 1.383 . S
C934 C933 1.379 . S
H935 C929 0.959 . S
H936 C929 0.961 . S
H937 C929 0.960 . S
H938 C930 0.930 . S
H939 C931 0.929 . S
H940 C948 0.929 1_565 S
H941 C950 0.930 . S
H942 C952 0.930 . S
H943 C955 0.929 . S
H944 C958 0.930 . S
H945 C960 0.960 . S
H946 C960 0.960 . S
H947 C960 0.960 . S
C948 H940 0.929 1_545 S
C948 C949 1.377 . S
C948 C950 1.384 1_545 S
C949 C948 1.377 . S
C949 C955 1.390 . S
C950 H941 0.930 . S
C950 C948 1.384 1_565 S
C950 C951 1.372 1_565 S
C951 C950 1.372 1_545 S
C951 C952 1.400 . S
C951 C956 1.490 . S
C952 H942 0.930 . S
C952 C951 1.400 . S
C952 C955 1.386 . S
H953 C969 0.930 . S
H954 C970 0.931 1_545 S
C955 H943 0.929 . S
C955 C949 1.390 . S
C955 C952 1.386 . S
C956 C951 1.490 . S
C956 C958 1.395 1_545 S
C956 C959 1.403 . S
H957 C963 0.930 . S
C958 H944 0.930 . S
C958 C956 1.395 1_565 S
C958 C961 1.403 . S
C959 C956 1.403 . S
C959 C960 1.524 . S
C959 C963 1.400 . S
C960 H945 0.960 . S
C960 H946 0.960 . S
C960 H947 0.960 . S
C960 C959 1.524 . S
C961 C958 1.403 . S
C961 C962 1.392 . S
C961 C965 1.495 . S
C962 C961 1.392 . S
C962 C963 1.385 1_565 S
C962 C964 1.478 . S
C963 H957 0.930 . S
C963 C959 1.400 . S
C963 C962 1.385 1_545 S
C964 C962 1.478 . S
C964 C966 1.381 . S
C964 C970 1.383 . S
C965 C961 1.495 . S
C965 H971 0.959 . S
C965 H972 0.961 . S
C965 H973 0.960 . S
C966 C964 1.381 . S
C966 C967 1.394 . S
C966 H974 0.930 . S
C967 C966 1.394 . S
C967 C968 1.383 . S
C967 H975 0.929 . S
C968 C967 1.383 . S
C968 C969 1.377 . S
C969 H953 0.930 . S
C969 C968 1.377 . S
C969 C970 1.379 . S
C970 H954 0.931 1_565 S
C970 C964 1.383 . S
C970 C969 1.379 . S
H971 C965 0.959 . S
H972 C965 0.961 . S
H973 C965 0.960 . S
H974 C966 0.930 . S
H975 C967 0.929 . S
H976 C984 0.929 . S
H977 C986 0.930 . S
H978 C988 0.930 . S
H979 C991 0.929 . S
H980 C994 0.930 . S
H981 C996 0.960 . S
H982 C996 0.960 . S
H983 C996 0.960 . S
C984 H976 0.929 . S
C984 C985 1.377 . S
C984 C986 1.384 . S
C985 C984 1.377 . S
C985 C991 1.390 . S
C986 H977 0.930 . S
C986 C984 1.384 . S
C986 C987 1.372 . S
C987 C986 1.372 . S
C987 C988 1.400 . S
C987 C992 1.490 . S
C988 H978 0.930 . S
C988 C987 1.400 . S
C988 C991 1.386 . S
H989 C1005 0.930 . S
H990 C1006 0.931 . S
C991 H979 0.929 . S
C991 C985 1.390 . S
C991 C988 1.386 . S
C992 C987 1.490 . S
C992 C994 1.395 . S
C992 C995 1.403 . S
H993 C999 0.930 . S
C994 H980 0.930 . S
C994 C992 1.395 . S
C994 C997 1.403 . S
C995 C992 1.403 . S
C995 C996 1.524 . S
C995 C999 1.400 . S
C996 H981 0.960 . S
C996 H982 0.960 . S
C996 H983 0.960 . S
C996 C995 1.524 . S
C997 C994 1.403 . S
C997 C998 1.392 . S
C997 C1001 1.495 . S
C998 C997 1.392 . S
C998 C999 1.385 . S
C998 C1000 1.478 . S
C999 H993 0.930 . S
C999 C995 1.400 . S
C999 C998 1.385 . S
C1000 C998 1.478 . S
C1000 C1002 1.381 . S
C1000 C1006 1.383 . S
C1001 C997 1.495 . S
C1001 H1007 0.959 . S
C1001 H1008 0.961 . S
C1001 H1009 0.960 . S
C1002 C1000 1.381 . S
C1002 C1003 1.394 . S
C1002 H1010 0.930 . S
C1003 C1002 1.394 . S
C1003 C1004 1.383 . S
C1003 H1011 0.929 . S
C1004 C1003 1.383 . S
C1004 C1005 1.377 . S
C1005 H989 0.930 . S
C1005 C1004 1.377 . S
C1005 C1006 1.379 . S
C1006 H990 0.931 . S
C1006 C1000 1.383 . S
C1006 C1005 1.379 . S
H1007 C1001 0.959 . S
H1008 C1001 0.961 . S
H1009 C1001 0.960 . S
H1010 C1002 0.930 . S
H1011 C1003 0.929 . S
H1012 C1020 0.929 . S
H1013 C1022 0.930 . S
H1014 C1024 0.930 . S
H1015 C1027 0.929 . S
H1016 C1030 0.930 . S
H1017 C1032 0.960 . S
H1018 C1032 0.960 . S
H1019 C1032 0.960 . S
C1020 H1012 0.929 . S
C1020 C1021 1.377 . S
C1020 C1022 1.384 . S
C1021 C1020 1.377 . S
C1021 C1027 1.390 . S
C1022 H1013 0.930 . S
C1022 C1020 1.384 . S
C1022 C1023 1.372 . S
C1023 C1022 1.372 . S
C1023 C1024 1.400 . S
C1023 C1028 1.490 . S
C1024 H1014 0.930 . S
C1024 C1023 1.400 . S
C1024 C1027 1.386 . S
H1025 C1041 0.930 . S
H1026 C1042 0.931 . S
C1027 H1015 0.929 . S
C1027 C1021 1.390 . S
C1027 C1024 1.386 . S
C1028 C1023 1.490 . S
C1028 C1030 1.395 . S
C1028 C1031 1.403 1_565 S
H1029 C1035 0.930 . S
C1030 H1016 0.930 . S
C1030 C1028 1.395 . S
C1030 C1033 1.403 . S
C1031 C1028 1.403 1_545 S
C1031 C1032 1.524 . S
C1031 C1035 1.400 . S
C1032 H1017 0.960 . S
C1032 H1018 0.960 . S
C1032 H1019 0.960 . S
C1032 C1031 1.524 . S
C1033 C1030 1.403 . S
C1033 C1034 1.392 1_565 S
C1033 C1037 1.495 . S
C1034 C1033 1.392 1_545 S
C1034 C1035 1.385 . S
C1034 C1036 1.478 . S
C1035 H1029 0.930 . S
C1035 C1031 1.400 . S
C1035 C1034 1.385 . S
C1036 C1034 1.478 . S
C1036 C1038 1.381 . S
C1036 C1042 1.383 . S
C1037 C1033 1.495 . S
C1037 H1043 0.959 . S
C1037 H1044 0.961 . S
C1037 H1045 0.960 . S
C1038 C1036 1.381 . S
C1038 C1039 1.394 . S
C1038 H1046 0.930 . S
C1039 C1038 1.394 . S
C1039 C1040 1.383 . S
C1039 H1047 0.929 . S
C1040 C1039 1.383 . S
C1040 C1041 1.377 . S
C1041 H1025 0.930 . S
C1041 C1040 1.377 . S
C1041 C1042 1.379 . S
C1042 H1026 0.931 . S
C1042 C1036 1.383 . S
C1042 C1041 1.379 . S
H1043 C1037 0.959 . S
H1044 C1037 0.961 . S
H1045 C1037 0.960 . S
H1046 C1038 0.930 . S
H1047 C1039 0.929 . S
H1048 C1056 0.929 . S
H1049 C1058 0.930 . S
H1050 C1060 0.930 . S
H1051 C1063 0.929 . S
H1052 C1066 0.930 . S
H1053 C1068 0.960 . S
H1054 C1068 0.960 . S
H1055 C1068 0.960 . S
C1056 H1048 0.929 . S
C1056 C1057 1.377 . S
C1056 C1058 1.384 . S
C1057 C1056 1.377 . S
C1057 C1063 1.390 . S
C1058 H1049 0.930 . S
C1058 C1056 1.384 . S
C1058 C1059 1.372 . S
C1059 C1058 1.372 . S
C1059 C1060 1.400 . S
C1059 C1064 1.490 . S
C1060 H1050 0.930 . S
C1060 C1059 1.400 . S
C1060 C1063 1.386 . S
H1061 C1077 0.930 . S
H1062 C1078 0.931 . S
C1063 H1051 0.929 . S
C1063 C1057 1.390 . S
C1063 C1060 1.386 . S
C1064 C1059 1.490 . S
C1064 C1066 1.395 . S
C1064 C1067 1.403 . S
H1065 C1071 0.930 . S
C1066 H1052 0.930 . S
C1066 C1064 1.395 . S
C1066 C1069 1.403 . S
C1067 C1064 1.403 . S
C1067 C1068 1.524 . S
C1067 C1071 1.400 . S
C1068 H1053 0.960 . S
C1068 H1054 0.960 . S
C1068 H1055 0.960 . S
C1068 C1067 1.524 . S
C1069 C1066 1.403 . S
C1069 C1070 1.392 . S
C1069 C1073 1.495 . S
C1070 C1069 1.392 . S
C1070 C1071 1.385 . S
C1070 C1072 1.478 . S
C1071 H1065 0.930 . S
C1071 C1067 1.400 . S
C1071 C1070 1.385 . S
C1072 C1070 1.478 . S
C1072 C1074 1.381 . S
C1072 C1078 1.383 . S
C1073 C1069 1.495 . S
C1073 H1079 0.959 . S
C1073 H1080 0.961 . S
C1073 H1081 0.960 . S
C1074 C1072 1.381 . S
C1074 C1075 1.394 . S
C1074 H1082 0.930 . S
C1075 C1074 1.394 . S
C1075 C1076 1.383 . S
C1075 H1083 0.929 . S
C1076 C1075 1.383 . S
C1076 C1077 1.377 . S
C1077 H1061 0.930 . S
C1077 C1076 1.377 . S
C1077 C1078 1.379 . S
C1078 H1062 0.931 . S
C1078 C1072 1.383 . S
C1078 C1077 1.379 . S
H1079 C1073 0.959 . S
H1080 C1073 0.961 . S
H1081 C1073 0.960 . S
H1082 C1074 0.930 . S
H1083 C1075 0.929 . S
H1084 C1092 0.929 . S
H1085 C1094 0.930 . S
H1086 C1096 0.930 . S
H1087 C1099 0.929 . S
H1088 C1102 0.930 . S
H1089 C1104 0.960 1_545 S
H1090 C1104 0.960 1_545 S
H1091 C1104 0.960 . S
C1092 H1084 0.929 . S
C1092 C1093 1.377 . S
C1092 C1094 1.384 . S
C1093 C1092 1.377 . S
C1093 C1099 1.390 . S
C1094 H1085 0.930 . S
C1094 C1092 1.384 . S
C1094 C1095 1.372 . S
C1095 C1094 1.372 . S
C1095 C1096 1.400 . S
C1095 C1100 1.490 . S
C1096 H1086 0.930 . S
C1096 C1095 1.400 . S
C1096 C1099 1.386 . S
H1097 C1113 0.930 . S
H1098 C1114 0.932 1_565 S
C1099 H1087 0.929 . S
C1099 C1093 1.390 . S
C1099 C1096 1.386 . S
C1100 C1095 1.490 . S
C1100 C1102 1.395 . S
C1100 C1103 1.403 . S
H1101 C1107 0.930 . S
C1102 H1088 0.930 . S
C1102 C1100 1.395 . S
C1102 C1105 1.403 . S
C1103 C1100 1.403 . S
C1103 C1104 1.524 . S
C1103 C1107 1.400 1_565 S
C1104 H1089 0.960 1_565 S
C1104 H1090 0.960 1_565 S
C1104 H1091 0.960 . S
C1104 C1103 1.524 . S
C1105 C1102 1.403 . S
C1105 C1106 1.392 1_565 S
C1105 C1109 1.495 . S
C1106 C1105 1.392 1_545 S
C1106 C1107 1.385 . S
C1106 C1108 1.478 1_455 S
C1107 H1101 0.930 . S
C1107 C1103 1.400 1_545 S
C1107 C1106 1.385 . S
C1108 C1106 1.478 1_655 S
C1108 C1110 1.381 . S
C1108 C1114 1.382 . S
C1109 C1105 1.495 . S
C1109 H1115 0.959 . S
C1109 H1116 0.961 1_455 S
C1109 H1117 0.960 1_465 S
C1110 C1108 1.381 . S
C1110 C1111 1.394 . S
C1110 H1118 0.930 . S
C1111 C1110 1.394 . S
C1111 C1112 1.383 . S
C1111 H1119 0.929 . S
C1112 C1111 1.383 . S
C1112 C1113 1.377 . S
C1113 H1097 0.930 . S
C1113 C1112 1.377 . S
C1113 C1114 1.379 . S
C1114 H1098 0.932 1_545 S
C1114 C1108 1.382 . S
C1114 C1113 1.379 . S
H1115 C1109 0.959 . S
H1116 C1109 0.961 1_655 S
H1117 C1109 0.960 1_645 S
H1118 C1110 0.930 . S
H1119 C1111 0.929 . S
H1120 C1128 0.929 . S
H1121 C1130 0.930 . S
H1122 C1132 0.930 . S
H1123 C1135 0.929 . S
H1124 C1138 0.930 . S
H1125 C1140 0.960 . S
H1126 C1140 0.960 . S
H1127 C1140 0.960 . S
C1128 H1120 0.929 . S
C1128 C1129 1.377 . S
C1128 C1130 1.384 . S
C1129 C1128 1.377 . S
C1129 C1135 1.390 . S
C1130 H1121 0.930 . S
C1130 C1128 1.384 . S
C1130 C1131 1.372 . S
C1131 C1130 1.372 . S
C1131 C1132 1.400 . S
C1131 C1136 1.490 . S
C1132 H1122 0.930 . S
C1132 C1131 1.400 . S
C1132 C1135 1.386 . S
H1133 C1149 0.930 . S
H1134 C1150 0.931 . S
C1135 H1123 0.929 . S
C1135 C1129 1.390 . S
C1135 C1132 1.386 . S
C1136 C1131 1.490 . S
C1136 C1138 1.395 . S
C1136 C1139 1.403 . S
H1137 C1143 0.930 . S
C1138 H1124 0.930 . S
C1138 C1136 1.395 . S
C1138 C1141 1.403 . S
C1139 C1136 1.403 . S
C1139 C1140 1.524 . S
C1139 C1143 1.400 . S
C1140 H1125 0.960 . S
C1140 H1126 0.960 . S
C1140 H1127 0.960 . S
C1140 C1139 1.524 . S
C1141 C1138 1.403 . S
C1141 C1142 1.392 . S
C1141 C1145 1.495 . S
C1142 C1141 1.392 . S
C1142 C1143 1.385 . S
C1142 C1144 1.478 . S
C1143 H1137 0.930 . S
C1143 C1139 1.400 . S
C1143 C1142 1.385 . S
C1144 C1142 1.478 . S
C1144 C1146 1.381 . S
C1144 C1150 1.383 . S
C1145 C1141 1.495 . S
C1145 H1151 0.959 . S
C1145 H1152 0.961 . S
C1145 H1153 0.960 . S
C1146 C1144 1.381 . S
C1146 C1147 1.394 . S
C1146 H1154 0.930 . S
C1147 C1146 1.394 . S
C1147 C1148 1.383 . S
C1147 H1155 0.929 . S
C1148 C1147 1.383 . S
C1148 C1149 1.377 . S
C1149 H1133 0.930 . S
C1149 C1148 1.377 . S
C1149 C1150 1.379 . S
C1150 H1134 0.931 . S
C1150 C1144 1.383 . S
C1150 C1149 1.379 . S
H1151 C1145 0.959 . S
H1152 C1145 0.961 . S
H1153 C1145 0.960 . S
H1154 C1146 0.930 . S
H1155 C1147 0.929 . S
H1156 C1164 0.929 . S
H1157 C1166 0.930 . S
H1158 C1168 0.930 1_655 S
H1159 C1171 0.929 . S
H1160 C1174 0.930 . S
H1161 C1176 0.960 . S
H1162 C1176 0.960 . S
H1163 C1176 0.960 1_545 S
C1164 H1156 0.929 . S
C1164 C1165 1.377 1_565 S
C1164 C1166 1.384 . S
C1165 C1164 1.377 1_545 S
C1165 C1171 1.390 . S
C1166 H1157 0.930 . S
C1166 C1164 1.384 . S
C1166 C1167 1.372 . S
C1167 C1166 1.372 . S
C1167 C1168 1.400 1_565 S
C1167 C1172 1.490 1_455 S
C1168 H1158 0.930 1_455 S
C1168 C1167 1.400 1_545 S
C1168 C1171 1.386 . S
H1169 C1185 0.930 . S
H1170 C1186 0.931 . S
C1171 H1159 0.929 . S
C1171 C1165 1.390 . S
C1171 C1168 1.386 . S
C1172 C1167 1.490 1_655 S
C1172 C1174 1.395 . S
C1172 C1175 1.403 . S
H1173 C1179 0.930 . S
C1174 H1160 0.930 . S
C1174 C1172 1.395 . S
C1174 C1177 1.403 . S
C1175 C1172 1.403 . S
C1175 C1176 1.524 . S
C1175 C1179 1.400 . S
C1176 H1161 0.960 . S
C1176 H1162 0.960 . S
C1176 H1163 0.960 1_565 S
C1176 C1175 1.524 . S
C1177 C1174 1.403 . S
C1177 C1178 1.392 . S
C1177 C1181 1.495 . S
C1178 C1177 1.392 . S
C1178 C1179 1.385 . S
C1178 C1180 1.478 . S
C1179 H1173 0.930 . S
C1179 C1175 1.400 . S
C1179 C1178 1.385 . S
C1180 C1178 1.478 . S
C1180 C1182 1.381 . S
C1180 C1186 1.383 . S
C1181 C1177 1.495 . S
C1181 H1187 0.959 . S
C1181 H1188 0.961 . S
C1181 H1189 0.960 . S
C1182 C1180 1.381 . S
C1182 C1183 1.394 . S
C1182 H1190 0.930 . S
C1183 C1182 1.394 . S
C1183 C1184 1.383 . S
C1183 H1191 0.929 . S
C1184 C1183 1.383 . S
C1184 C1185 1.377 . S
C1185 H1169 0.930 . S
C1185 C1184 1.377 . S
C1185 C1186 1.379 . S
C1186 H1170 0.931 . S
C1186 C1180 1.383 . S
C1186 C1185 1.379 . S
H1187 C1181 0.959 . S
H1188 C1181 0.961 . S
H1189 C1181 0.960 . S
H1190 C1182 0.930 . S
H1191 C1183 0.929 . S
H1192 C1200 0.929 . S
H1193 C1202 0.930 . S
H1194 C1204 0.930 . S
H1195 C1207 0.929 . S
H1196 C1210 0.930 . S
H1197 C1212 0.960 . S
H1198 C1212 0.960 . S
H1199 C1212 0.960 . S
C1200 H1192 0.929 . S
C1200 C1201 1.377 . S
C1200 C1202 1.384 . S
C1201 C1200 1.377 . S
C1201 C1207 1.390 . S
C1202 H1193 0.930 . S
C1202 C1200 1.384 . S
C1202 C1203 1.372 . S
C1203 C1202 1.372 . S
C1203 C1204 1.400 . S
C1203 C1208 1.490 . S
C1204 H1194 0.930 . S
C1204 C1203 1.400 . S
C1204 C1207 1.386 . S
H1205 C1221 0.930 . S
H1206 C1222 0.931 . S
C1207 H1195 0.929 . S
C1207 C1201 1.390 . S
C1207 C1204 1.386 . S
C1208 C1203 1.490 . S
C1208 C1210 1.395 . S
C1208 C1211 1.403 . S
H1209 C1215 0.930 . S
C1210 H1196 0.930 . S
C1210 C1208 1.395 . S
C1210 C1213 1.403 . S
C1211 C1208 1.403 . S
C1211 C1212 1.524 . S
C1211 C1215 1.400 . S
C1212 H1197 0.960 . S
C1212 H1198 0.960 . S
C1212 H1199 0.960 . S
C1212 C1211 1.524 . S
C1213 C1210 1.403 . S
C1213 C1214 1.392 . S
C1213 C1217 1.495 . S
C1214 C1213 1.392 . S
C1214 C1215 1.385 . S
C1214 C1216 1.478 . S
C1215 H1209 0.930 . S
C1215 C1211 1.400 . S
C1215 C1214 1.385 . S
C1216 C1214 1.478 . S
C1216 C1218 1.381 . S
C1216 C1222 1.383 . S
C1217 C1213 1.495 . S
C1217 H1223 0.959 . S
C1217 H1224 0.961 . S
C1217 H1225 0.960 . S
C1218 C1216 1.381 . S
C1218 C1219 1.394 . S
C1218 H1226 0.930 . S
C1219 C1218 1.394 . S
C1219 C1220 1.383 . S
C1219 H1227 0.929 . S
C1220 C1219 1.383 . S
C1220 C1221 1.377 . S
C1221 H1205 0.930 . S
C1221 C1220 1.377 . S
C1221 C1222 1.379 . S
C1222 H1206 0.931 . S
C1222 C1216 1.383 . S
C1222 C1221 1.379 . S
H1223 C1217 0.959 . S
H1224 C1217 0.961 . S
H1225 C1217 0.960 . S
H1226 C1218 0.930 . S
H1227 C1219 0.929 . S
H1228 C1236 0.929 . S
H1229 C1238 0.930 . S
H1230 C1240 0.930 . S
H1231 C1243 0.929 . S
H1232 C1246 0.930 . S
H1233 C1248 0.960 . S
H1234 C1248 0.960 . S
H1235 C1248 0.960 . S
C1236 H1228 0.929 . S
C1236 C1237 1.377 . S
C1236 C1238 1.384 . S
C1237 C1236 1.377 . S
C1237 C1243 1.390 . S
C1238 H1229 0.930 . S
C1238 C1236 1.384 . S
C1238 C1239 1.372 . S
C1239 C1238 1.372 . S
C1239 C1240 1.400 . S
C1239 C1244 1.490 . S
C1240 H1230 0.930 . S
C1240 C1239 1.400 . S
C1240 C1243 1.386 . S
H1241 C1257 0.930 . S
H1242 C1258 0.931 . S
C1243 H1231 0.929 . S
C1243 C1237 1.390 . S
C1243 C1240 1.386 . S
C1244 C1239 1.490 . S
C1244 C1246 1.395 . S
C1244 C1247 1.403 1_545 S
H1245 C1251 0.930 . S
C1246 H1232 0.930 . S
C1246 C1244 1.395 . S
C1246 C1249 1.403 . S
C1247 C1244 1.403 1_565 S
C1247 C1248 1.524 . S
C1247 C1251 1.400 . S
C1248 H1233 0.960 . S
C1248 H1234 0.960 . S
C1248 H1235 0.960 . S
C1248 C1247 1.524 . S
C1249 C1246 1.403 . S
C1249 C1250 1.392 . S
C1249 C1253 1.495 . S
C1250 C1249 1.392 . S
C1250 C1251 1.385 1_545 S
C1250 C1252 1.478 . S
C1251 H1245 0.930 . S
C1251 C1247 1.400 . S
C1251 C1250 1.385 1_565 S
C1252 C1250 1.478 . S
C1252 C1254 1.381 . S
C1252 C1258 1.383 1_545 S
C1253 C1249 1.495 . S
C1253 H1259 0.959 . S
C1253 H1260 0.961 . S
C1253 H1261 0.960 . S
C1254 C1252 1.381 . S
C1254 C1255 1.394 . S
C1254 H1262 0.930 . S
C1255 C1254 1.394 . S
C1255 C1256 1.383 1_545 S
C1255 H1263 0.929 . S
C1256 C1255 1.383 1_565 S
C1256 C1257 1.377 . S
C1257 H1241 0.930 . S
C1257 C1256 1.377 . S
C1257 C1258 1.379 . S
C1258 H1242 0.931 . S
C1258 C1252 1.383 1_565 S
C1258 C1257 1.379 . S
H1259 C1253 0.959 . S
H1260 C1253 0.961 . S
H1261 C1253 0.960 . S
H1262 C1254 0.930 . S
H1263 C1255 0.929 . S
H1264 C1272 0.929 . S
H1265 C1274 0.930 . S
H1266 C1276 0.930 . S
H1267 C1279 0.929 . S
H1268 C1282 0.930 . S
H1269 C1284 0.960 . S
H1270 C1284 0.960 . S
H1271 C1284 0.960 . S
C1272 H1264 0.929 . S
C1272 C1273 1.377 . S
C1272 C1274 1.384 . S
C1273 C1272 1.377 . S
C1273 C1279 1.390 . S
C1274 H1265 0.930 . S
C1274 C1272 1.384 . S
C1274 C1275 1.372 . S
C1275 C1274 1.372 . S
C1275 C1276 1.400 . S
C1275 C1280 1.490 . S
C1276 H1266 0.930 . S
C1276 C1275 1.400 . S
C1276 C1279 1.386 . S
H1277 C1293 0.930 . S
H1278 C1294 0.931 . S
C1279 H1267 0.929 . S
C1279 C1273 1.390 . S
C1279 C1276 1.386 . S
C1280 C1275 1.490 . S
C1280 C1282 1.395 . S
C1280 C1283 1.403 . S
H1281 C1287 0.930 . S
C1282 H1268 0.930 . S
C1282 C1280 1.395 . S
C1282 C1285 1.403 . S
C1283 C1280 1.403 . S
C1283 C1284 1.524 . S
C1283 C1287 1.400 . S
C1284 H1269 0.960 . S
C1284 H1270 0.960 . S
C1284 H1271 0.960 . S
C1284 C1283 1.524 . S
C1285 C1282 1.403 . S
C1285 C1286 1.392 . S
C1285 C1289 1.495 . S
C1286 C1285 1.392 . S
C1286 C1287 1.385 . S
C1286 C1288 1.478 . S
C1287 H1281 0.930 . S
C1287 C1283 1.400 . S
C1287 C1286 1.385 . S
C1288 C1286 1.478 . S
C1288 C1290 1.381 . S
C1288 C1294 1.383 . S
C1289 C1285 1.495 . S
C1289 H1295 0.959 . S
C1289 H1296 0.961 . S
C1289 H1297 0.960 . S
C1290 C1288 1.381 . S
C1290 C1291 1.394 . S
C1290 H1298 0.930 . S
C1291 C1290 1.394 . S
C1291 C1292 1.383 . S
C1291 H1299 0.929 . S
C1292 C1291 1.383 . S
C1292 C1293 1.377 . S
C1293 H1277 0.930 . S
C1293 C1292 1.377 . S
C1293 C1294 1.379 . S
C1294 H1278 0.931 . S
C1294 C1288 1.383 . S
C1294 C1293 1.379 . S
H1295 C1289 0.959 . S
H1296 C1289 0.961 . S
H1297 C1289 0.960 . S
H1298 C1290 0.930 . S
H1299 C1291 0.929 . S
H1300 C1308 0.929 . S
H1301 C1310 0.930 1_545 S
H1302 C1312 0.930 . S
H1303 C1315 0.929 . S
H1304 C1318 0.930 . S
H1305 C1320 0.960 . S
H1306 C1320 0.960 . S
H1307 C1320 0.960 . S
C1308 H1300 0.929 . S
C1308 C1309 1.377 . S
C1308 C1310 1.384 . S
C1309 C1308 1.377 . S
C1309 C1315 1.390 . S
C1310 H1301 0.930 1_565 S
C1310 C1308 1.384 . S
C1310 C1311 1.372 . S
C1311 C1310 1.372 . S
C1311 C1312 1.400 . S
C1311 C1316 1.490 . S
C1312 H1302 0.930 . S
C1312 C1311 1.400 . S
C1312 C1315 1.386 . S
H1313 C1329 0.930 . S
H1314 C1330 0.932 1_565 S
C1315 H1303 0.929 . S
C1315 C1309 1.390 . S
C1315 C1312 1.386 . S
C1316 C1311 1.490 . S
C1316 C1318 1.395 1_565 S
C1316 C1319 1.403 . S
H1317 C1323 0.930 . S
C1318 H1304 0.930 . S
C1318 C1316 1.395 1_545 S
C1318 C1321 1.403 . S
C1319 C1316 1.403 . S
C1319 C1320 1.524 . S
C1319 C1323 1.400 . S
C1320 H1305 0.960 . S
C1320 H1306 0.960 . S
C1320 H1307 0.960 . S
C1320 C1319 1.524 . S
C1321 C1318 1.403 . S
C1321 C1322 1.392 . S
C1321 C1325 1.495 . S
C1322 C1321 1.392 . S
C1322 C1323 1.385 1_545 S
C1322 C1324 1.478 . S
C1323 H1317 0.930 . S
C1323 C1319 1.400 . S
C1323 C1322 1.385 1_565 S
C1324 C1322 1.478 . S
C1324 C1326 1.381 . S
C1324 C1330 1.383 . S
C1325 C1321 1.495 . S
C1325 H1331 0.959 . S
C1325 H1332 0.961 . S
C1325 H1333 0.960 . S
C1326 C1324 1.381 . S
C1326 C1327 1.394 . S
C1326 H1334 0.930 . S
C1327 C1326 1.394 . S
C1327 C1328 1.383 . S
C1327 H1335 0.929 . S
C1328 C1327 1.383 . S
C1328 C1329 1.377 . S
C1329 H1313 0.930 . S
C1329 C1328 1.377 . S
C1329 C1330 1.379 . S
C1330 H1314 0.932 1_545 S
C1330 C1324 1.383 . S
C1330 C1329 1.379 . S
H1331 C1325 0.959 . S
H1332 C1325 0.961 . S
H1333 C1325 0.960 . S
H1334 C1326 0.930 . S
H1335 C1327 0.929 . S
H1336 C1344 0.929 . S
H1337 C1346 0.930 . S
H1338 C1348 0.930 . S
H1339 C1351 0.929 . S
H1340 C1354 0.930 . S
H1341 C1356 0.960 . S
H1342 C1356 0.960 . S
H1343 C1356 0.960 . S
C1344 H1336 0.929 . S
C1344 C1345 1.377 . S
C1344 C1346 1.384 . S
C1345 C1344 1.377 . S
C1345 C1351 1.390 . S
C1346 H1337 0.930 . S
C1346 C1344 1.384 . S
C1346 C1347 1.372 . S
C1347 C1346 1.372 . S
C1347 C1348 1.400 . S
C1347 C1352 1.490 . S
C1348 H1338 0.930 . S
C1348 C1347 1.400 . S
C1348 C1351 1.386 . S
H1349 C1365 0.930 . S
H1350 C1366 0.931 . S
C1351 H1339 0.929 . S
C1351 C1345 1.390 . S
C1351 C1348 1.386 . S
C1352 C1347 1.490 . S
C1352 C1354 1.395 . S
C1352 C1355 1.403 . S
H1353 C1359 0.930 . S
C1354 H1340 0.930 . S
C1354 C1352 1.395 . S
C1354 C1357 1.403 . S
C1355 C1352 1.403 . S
C1355 C1356 1.524 . S
C1355 C1359 1.400 . S
C1356 H1341 0.960 . S
C1356 H1342 0.960 . S
C1356 H1343 0.960 . S
C1356 C1355 1.524 . S
C1357 C1354 1.403 . S
C1357 C1358 1.392 . S
C1357 C1361 1.495 . S
C1358 C1357 1.392 . S
C1358 C1359 1.385 . S
C1358 C1360 1.478 . S
C1359 H1353 0.930 . S
C1359 C1355 1.400 . S
C1359 C1358 1.385 . S
C1360 C1358 1.478 . S
C1360 C1362 1.381 . S
C1360 C1366 1.383 . S
C1361 C1357 1.495 . S
C1361 H1367 0.959 . S
C1361 H1368 0.961 . S
C1361 H1369 0.960 . S
C1362 C1360 1.381 . S
C1362 C1363 1.394 . S
C1362 H1370 0.930 . S
C1363 C1362 1.394 . S
C1363 C1364 1.383 . S
C1363 H1371 0.929 . S
C1364 C1363 1.383 . S
C1364 C1365 1.377 . S
C1365 H1349 0.930 . S
C1365 C1364 1.377 . S
C1365 C1366 1.379 . S
C1366 H1350 0.931 . S
C1366 C1360 1.383 . S
C1366 C1365 1.379 . S
H1367 C1361 0.959 . S
H1368 C1361 0.961 . S
H1369 C1361 0.960 . S
H1370 C1362 0.930 . S
H1371 C1363 0.929 . S
H1372 C1380 0.929 . S
H1373 C1382 0.932 . S
H1374 C1384 0.930 1_655 S
H1375 C1387 0.929 . S
H1376 C1390 0.930 . S
H1377 C1392 0.960 . S
H1378 C1392 0.960 . S
H1379 C1392 0.960 . S
C1380 H1372 0.929 . S
C1380 C1381 1.377 . S
C1380 C1382 1.384 . S
C1381 C1380 1.377 . S
C1381 C1387 1.390 . S
C1382 H1373 0.932 . S
C1382 C1380 1.384 . S
C1382 C1383 1.368 1_465 S
C1383 C1382 1.368 1_645 S
C1383 C1384 1.399 1_645 S
C1383 C1388 1.495 . S
C1384 H1374 0.930 1_455 S
C1384 C1383 1.399 1_465 S
C1384 C1387 1.386 . S
H1385 C1401 0.930 . S
H1386 C1402 0.931 . S
C1387 H1375 0.929 . S
C1387 C1381 1.390 . S
C1387 C1384 1.386 . S
C1388 C1383 1.495 . S
C1388 C1390 1.395 . S
C1388 C1391 1.403 1_545 S
H1389 C1395 0.941 . S
C1390 H1376 0.930 . S
C1390 C1388 1.395 . S
C1390 C1393 1.403 . S
C1391 C1388 1.403 1_565 S
C1391 C1392 1.524 . S
C1391 C1395 1.400 1_565 S
C1392 H1377 0.960 . S
C1392 H1378 0.960 . S
C1392 H1379 0.960 . S
C1392 C1391 1.524 . S
C1393 C1390 1.403 . S
C1393 C1394 1.392 . S
C1393 C1397 1.495 . S
C1394 C1393 1.392 . S
C1394 C1395 1.385 . S
C1394 C1396 1.478 . S
C1395 H1389 0.941 . S
C1395 C1391 1.400 1_545 S
C1395 C1394 1.385 . S
C1396 C1394 1.478 . S
C1396 C1398 1.381 . S
C1396 C1402 1.383 . S
C1397 C1393 1.495 . S
C1397 H1403 0.959 . S
C1397 H1404 0.961 . S
C1397 H1405 0.960 . S
C1398 C1396 1.381 . S
C1398 C1399 1.394 . S
C1398 H1406 0.930 . S
C1399 C1398 1.394 . S
C1399 C1400 1.383 . S
C1399 H1407 0.929 . S
C1400 C1399 1.383 . S
C1400 C1401 1.377 . S
C1401 H1385 0.930 . S
C1401 C1400 1.377 . S
C1401 C1402 1.379 . S
C1402 H1386 0.931 . S
C1402 C1396 1.383 . S
C1402 C1401 1.379 . S
H1403 C1397 0.959 . S
H1404 C1397 0.961 . S
H1405 C1397 0.960 . S
H1406 C1398 0.930 . S
H1407 C1399 0.929 . S
H1408 C1416 0.929 . S
H1409 C1418 0.930 . S
H1410 C1420 0.930 . S
H1411 C1423 0.929 . S
H1412 C1426 0.930 . S
H1413 C1428 0.960 . S
H1414 C1428 0.960 . S
H1415 C1428 0.960 . S
C1416 H1408 0.929 . S
C1416 C1417 1.377 . S
C1416 C1418 1.384 . S
C1417 C1416 1.377 . S
C1417 C1423 1.390 . S
C1418 H1409 0.930 . S
C1418 C1416 1.384 . S
C1418 C1419 1.372 . S
C1419 C1418 1.372 . S
C1419 C1420 1.400 . S
C1419 C1424 1.490 . S
C1420 H1410 0.930 . S
C1420 C1419 1.400 . S
C1420 C1423 1.386 . S
H1421 C1437 0.930 . S
H1422 C1438 0.931 . S
C1423 H1411 0.929 . S
C1423 C1417 1.390 . S
C1423 C1420 1.386 . S
C1424 C1419 1.490 . S
C1424 C1426 1.395 . S
C1424 C1427 1.403 . S
H1425 C1431 0.930 . S
C1426 H1412 0.930 . S
C1426 C1424 1.395 . S
C1426 C1429 1.403 . S
C1427 C1424 1.403 . S
C1427 C1428 1.524 . S
C1427 C1431 1.400 . S
C1428 H1413 0.960 . S
C1428 H1414 0.960 . S
C1428 H1415 0.960 . S
C1428 C1427 1.524 . S
C1429 C1426 1.403 . S
C1429 C1430 1.392 . S
C1429 C1433 1.495 . S
C1430 C1429 1.392 . S
C1430 C1431 1.385 . S
C1430 C1432 1.478 . S
C1431 H1425 0.930 . S
C1431 C1427 1.400 . S
C1431 C1430 1.385 . S
C1432 C1430 1.478 . S
C1432 C1434 1.381 . S
C1432 C1438 1.383 . S
C1433 C1429 1.495 . S
C1433 H1439 0.959 . S
C1433 H1440 0.961 . S
C1433 H1441 0.960 . S
C1434 C1432 1.381 . S
C1434 C1435 1.394 . S
C1434 H1442 0.930 . S
C1435 C1434 1.394 . S
C1435 C1436 1.383 . S
C1435 H1443 0.929 . S
C1436 C1435 1.383 . S
C1436 C1437 1.377 . S
C1437 H1421 0.930 . S
C1437 C1436 1.377 . S
C1437 C1438 1.379 . S
C1438 H1422 0.931 . S
C1438 C1432 1.383 . S
C1438 C1437 1.379 . S
H1439 C1433 0.959 . S
H1440 C1433 0.961 . S
H1441 C1433 0.960 . S
H1442 C1434 0.930 . S
H1443 C1435 0.929 . S
H1444 C1452 0.929 . S
H1445 C1454 0.930 . S
H1446 C1456 0.930 . S
H1447 C1459 0.929 . S
H1448 C1462 0.930 . S
H1449 C1464 0.960 . S
H1450 C1464 0.960 . S
H1451 C1464 0.960 . S
C1452 H1444 0.929 . S
C1452 C1453 1.377 . S
C1452 C1454 1.384 . S
C1453 C1452 1.377 . S
C1453 C1459 1.390 . S
C1454 H1445 0.930 . S
C1454 C1452 1.384 . S
C1454 C1455 1.372 . S
C1455 C1454 1.372 . S
C1455 C1456 1.400 . S
C1455 C1460 1.490 . S
C1456 H1446 0.930 . S
C1456 C1455 1.400 . S
C1456 C1459 1.386 . S
H1457 C1473 0.930 . S
H1458 C1474 0.931 . S
C1459 H1447 0.929 . S
C1459 C1453 1.390 . S
C1459 C1456 1.386 . S
C1460 C1455 1.490 . S
C1460 C1462 1.395 . S
C1460 C1463 1.403 . S
H1461 C1467 0.930 . S
C1462 H1448 0.930 . S
C1462 C1460 1.395 . S
C1462 C1465 1.403 . S
C1463 C1460 1.403 . S
C1463 C1464 1.524 . S
C1463 C1467 1.400 . S
C1464 H1449 0.960 . S
C1464 H1450 0.960 . S
C1464 H1451 0.960 . S
C1464 C1463 1.524 . S
C1465 C1462 1.403 . S
C1465 C1466 1.392 . S
C1465 C1469 1.495 . S
C1466 C1465 1.392 . S
C1466 C1467 1.385 . S
C1466 C1468 1.478 . S
C1467 H1461 0.930 . S
C1467 C1463 1.400 . S
C1467 C1466 1.385 . S
C1468 C1466 1.478 . S
C1468 C1470 1.381 . S
C1468 C1474 1.383 . S
C1469 C1465 1.495 . S
C1469 H1475 0.959 . S
C1469 H1476 0.961 . S
C1469 H1477 0.960 . S
C1470 C1468 1.381 . S
C1470 C1471 1.394 . S
C1470 H1478 0.930 . S
C1471 C1470 1.394 . S
C1471 C1472 1.383 . S
C1471 H1479 0.929 . S
C1472 C1471 1.383 . S
C1472 C1473 1.377 . S
C1473 H1457 0.930 . S
C1473 C1472 1.377 . S
C1473 C1474 1.379 . S
C1474 H1458 0.931 . S
C1474 C1468 1.383 . S
C1474 C1473 1.379 . S
H1475 C1469 0.959 . S
H1476 C1469 0.961 . S
H1477 C1469 0.960 . S
H1478 C1470 0.930 . S
H1479 C1471 0.929 . S
H1480 C1488 0.929 . S
H1481 C1490 0.930 . S
H1482 C1492 0.930 . S
H1483 C1495 0.929 . S
H1484 C1498 0.930 . S
H1485 C1500 0.960 . S
H1486 C1500 0.960 . S
H1487 C1500 0.960 . S
C1488 H1480 0.929 . S
C1488 C1489 1.377 . S
C1488 C1490 1.384 . S
C1489 C1488 1.377 . S
C1489 C1495 1.390 . S
C1490 H1481 0.930 . S
C1490 C1488 1.384 . S
C1490 C1491 1.372 . S
C1491 C1490 1.372 . S
C1491 C1492 1.400 . S
C1491 C1496 1.490 . S
C1492 H1482 0.930 . S
C1492 C1491 1.400 . S
C1492 C1495 1.386 . S
H1493 C1509 0.930 . S
H1494 C1510 0.931 . S
C1495 H1483 0.929 . S
C1495 C1489 1.390 . S
C1495 C1492 1.386 . S
C1496 C1491 1.490 . S
C1496 C1498 1.395 . S
C1496 C1499 1.403 . S
H1497 C1503 0.930 . S
C1498 H1484 0.930 . S
C1498 C1496 1.395 . S
C1498 C1501 1.403 . S
C1499 C1496 1.403 . S
C1499 C1500 1.524 . S
C1499 C1503 1.400 . S
C1500 H1485 0.960 . S
C1500 H1486 0.960 . S
C1500 H1487 0.960 . S
C1500 C1499 1.524 . S
C1501 C1498 1.403 . S
C1501 C1502 1.392 . S
C1501 C1505 1.495 . S
C1502 C1501 1.392 . S
C1502 C1503 1.385 . S
C1502 C1504 1.478 . S
C1503 H1497 0.930 . S
C1503 C1499 1.400 . S
C1503 C1502 1.385 . S
C1504 C1502 1.478 . S
C1504 C1506 1.381 . S
C1504 C1510 1.383 . S
C1505 C1501 1.495 . S
C1505 H1511 0.959 . S
C1505 H1512 0.961 . S
C1505 H1513 0.960 . S
C1506 C1504 1.381 . S
C1506 C1507 1.394 . S
C1506 H1514 0.930 . S
C1507 C1506 1.394 . S
C1507 C1508 1.383 . S
C1507 H1515 0.929 . S
C1508 C1507 1.383 . S
C1508 C1509 1.377 . S
C1509 H1493 0.930 . S
C1509 C1508 1.377 . S
C1509 C1510 1.379 . S
C1510 H1494 0.931 . S
C1510 C1504 1.383 . S
C1510 C1509 1.379 . S
H1511 C1505 0.959 . S
H1512 C1505 0.961 . S
H1513 C1505 0.960 . S
H1514 C1506 0.930 . S
H1515 C1507 0.929 . S
H1516 C1524 0.929 . S
H1517 C1526 0.930 . S
H1518 C1528 0.930 . S
H1519 C1531 0.929 . S
H1520 C1534 0.930 . S
H1521 C1536 0.960 . S
H1522 C1536 0.960 . S
H1523 C1536 0.960 . S
C1524 H1516 0.929 . S
C1524 C1525 1.377 . S
C1524 C1526 1.384 . S
C1525 C1524 1.377 . S
C1525 C1531 1.390 . S
C1526 H1517 0.930 . S
C1526 C1524 1.384 . S
C1526 C1527 1.372 . S
C1527 C1526 1.372 . S
C1527 C1528 1.400 . S
C1527 C1532 1.490 . S
C1528 H1518 0.930 . S
C1528 C1527 1.400 . S
C1528 C1531 1.386 . S
H1529 C1545 0.930 . S
H1530 C1546 0.931 . S
C1531 H1519 0.929 . S
C1531 C1525 1.390 . S
C1531 C1528 1.386 . S
C1532 C1527 1.490 . S
C1532 C1534 1.395 . S
C1532 C1535 1.403 . S
H1533 C1539 0.930 . S
C1534 H1520 0.930 . S
C1534 C1532 1.395 . S
C1534 C1537 1.403 . S
C1535 C1532 1.403 . S
C1535 C1536 1.524 . S
C1535 C1539 1.400 . S
C1536 H1521 0.960 . S
C1536 H1522 0.960 . S
C1536 H1523 0.960 . S
C1536 C1535 1.524 . S
C1537 C1534 1.403 . S
C1537 C1538 1.392 . S
C1537 C1541 1.495 . S
C1538 C1537 1.392 . S
C1538 C1539 1.385 . S
C1538 C1540 1.478 . S
C1539 H1533 0.930 . S
C1539 C1535 1.400 . S
C1539 C1538 1.385 . S
C1540 C1538 1.478 . S
C1540 C1542 1.381 . S
C1540 C1546 1.383 . S
C1541 C1537 1.495 . S
C1541 H1547 0.959 . S
C1541 H1548 0.961 . S
C1541 H1549 0.960 . S
C1542 C1540 1.381 . S
C1542 C1543 1.394 1_655 S
C1542 H1550 0.930 . S
C1543 C1542 1.394 1_455 S
C1543 C1544 1.383 . S
C1543 H1551 0.929 . S
C1544 C1543 1.383 . S
C1544 C1545 1.377 . S
C1545 H1529 0.930 . S
C1545 C1544 1.377 . S
C1545 C1546 1.379 1_455 S
C1546 H1530 0.931 . S
C1546 C1540 1.383 . S
C1546 C1545 1.379 1_655 S
H1547 C1541 0.959 . S
H1548 C1541 0.961 . S
H1549 C1541 0.960 . S
H1550 C1542 0.930 . S
H1551 C1543 0.929 . S
H1552 C1560 0.929 . S
H1553 C1562 0.930 . S
H1554 C1564 0.930 . S
H1555 C1567 0.929 . S
H1556 C1570 0.930 . S
H1557 C1572 0.960 . S
H1558 C1572 0.960 . S
H1559 C1572 0.960 . S
C1560 H1552 0.929 . S
C1560 C1561 1.377 . S
C1560 C1562 1.384 . S
C1561 C1560 1.377 . S
C1561 C1567 1.390 . S
C1562 H1553 0.930 . S
C1562 C1560 1.384 . S
C1562 C1563 1.372 . S
C1563 C1562 1.372 . S
C1563 C1564 1.400 . S
C1563 C1568 1.490 . S
C1564 H1554 0.930 . S
C1564 C1563 1.400 . S
C1564 C1567 1.386 . S
H1565 C1581 0.930 . S
H1566 C1582 0.931 . S
C1567 H1555 0.929 . S
C1567 C1561 1.390 . S
C1567 C1564 1.386 . S
C1568 C1563 1.490 . S
C1568 C1570 1.395 . S
C1568 C1571 1.403 . S
H1569 C1575 0.930 . S
C1570 H1556 0.930 . S
C1570 C1568 1.395 . S
C1570 C1573 1.403 . S
C1571 C1568 1.403 . S
C1571 C1572 1.524 . S
C1571 C1575 1.400 . S
C1572 H1557 0.960 . S
C1572 H1558 0.960 . S
C1572 H1559 0.960 . S
C1572 C1571 1.524 . S
C1573 C1570 1.403 . S
C1573 C1574 1.392 . S
C1573 C1577 1.495 . S
C1574 C1573 1.392 . S
C1574 C1575 1.385 . S
C1574 C1576 1.478 . S
C1575 H1569 0.930 . S
C1575 C1571 1.400 . S
C1575 C1574 1.385 . S
C1576 C1574 1.478 . S
C1576 C1578 1.381 . S
C1576 C1582 1.383 . S
C1577 C1573 1.495 . S
C1577 H1583 0.959 . S
C1577 H1584 0.961 . S
C1577 H1585 0.960 . S
C1578 C1576 1.381 . S
C1578 C1579 1.394 . S
C1578 H1586 0.930 . S
C1579 C1578 1.394 . S
C1579 C1580 1.383 . S
C1579 H1587 0.929 . S
C1580 C1579 1.383 . S
C1580 C1581 1.377 . S
C1581 H1565 0.930 . S
C1581 C1580 1.377 . S
C1581 C1582 1.379 . S
C1582 H1566 0.931 . S
C1582 C1576 1.383 . S
C1582 C1581 1.379 . S
H1583 C1577 0.959 . S
H1584 C1577 0.961 . S
H1585 C1577 0.960 . S
H1586 C1578 0.930 . S
H1587 C1579 0.929 . S
H1588 C1596 0.929 . S
H1589 C1598 0.930 . S
H1590 C1600 0.930 . S
H1591 C1603 0.929 . S
H1592 C1606 0.930 . S
H1593 C1608 0.960 . S
H1594 C1608 0.960 . S
H1595 C1608 0.960 . S
C1596 H1588 0.929 . S
C1596 C1597 1.377 . S
C1596 C1598 1.384 . S
C1597 C1596 1.377 . S
C1597 C1603 1.390 . S
C1598 H1589 0.930 . S
C1598 C1596 1.384 . S
C1598 C1599 1.372 . S
C1599 C1598 1.372 . S
C1599 C1600 1.400 . S
C1599 C1604 1.490 . S
C1600 H1590 0.930 . S
C1600 C1599 1.400 . S
C1600 C1603 1.386 . S
H1601 C1617 0.930 . S
H1602 C1618 0.931 . S
C1603 H1591 0.929 . S
C1603 C1597 1.390 . S
C1603 C1600 1.386 . S
C1604 C1599 1.490 . S
C1604 C1606 1.395 . S
C1604 C1607 1.403 . S
H1605 C1611 0.930 . S
C1606 H1592 0.930 . S
C1606 C1604 1.395 . S
C1606 C1609 1.403 . S
C1607 C1604 1.403 . S
C1607 C1608 1.524 . S
C1607 C1611 1.400 . S
C1608 H1593 0.960 . S
C1608 H1594 0.960 . S
C1608 H1595 0.960 . S
C1608 C1607 1.524 . S
C1609 C1606 1.403 . S
C1609 C1610 1.392 . S
C1609 C1613 1.495 . S
C1610 C1609 1.392 . S
C1610 C1611 1.385 . S
C1610 C1612 1.478 . S
C1611 H1605 0.930 . S
C1611 C1607 1.400 . S
C1611 C1610 1.385 . S
C1612 C1610 1.478 . S
C1612 C1614 1.381 . S
C1612 C1618 1.383 . S
C1613 C1609 1.495 . S
C1613 H1619 0.959 . S
C1613 H1620 0.961 . S
C1613 H1621 0.960 . S
C1614 C1612 1.381 . S
C1614 C1615 1.394 1_655 S
C1614 H1622 0.930 . S
C1615 C1614 1.394 1_455 S
C1615 C1616 1.383 . S
C1615 H1623 0.929 . S
C1616 C1615 1.383 . S
C1616 C1617 1.377 . S
C1617 H1601 0.930 . S
C1617 C1616 1.377 . S
C1617 C1618 1.379 1_455 S
C1618 H1602 0.931 . S
C1618 C1612 1.383 . S
C1618 C1617 1.379 1_655 S
H1619 C1613 0.959 . S
H1620 C1613 0.961 . S
H1621 C1613 0.960 . S
H1622 C1614 0.930 . S
H1623 C1615 0.929 . S
H1624 C1632 0.929 . S
H1625 C1634 0.930 . S
H1626 C1636 0.930 . S
H1627 C1639 0.929 . S
H1628 C1642 0.930 . S
H1629 C1644 0.960 . S
H1630 C1644 0.960 . S
H1631 C1644 0.960 . S
C1632 H1624 0.929 . S
C1632 C1633 1.377 . S
C1632 C1634 1.384 . S
C1633 C1632 1.377 . S
C1633 C1639 1.390 . S
C1634 H1625 0.930 . S
C1634 C1632 1.384 . S
C1634 C1635 1.372 . S
C1635 C1634 1.372 . S
C1635 C1636 1.400 . S
C1635 C1640 1.490 . S
C1636 H1626 0.930 . S
C1636 C1635 1.400 . S
C1636 C1639 1.386 . S
H1637 C1653 0.930 . S
H1638 C1654 0.931 . S
C1639 H1627 0.929 . S
C1639 C1633 1.390 . S
C1639 C1636 1.386 . S
C1640 C1635 1.490 . S
C1640 C1642 1.395 . S
C1640 C1643 1.403 . S
H1641 C1647 0.930 . S
C1642 H1628 0.930 . S
C1642 C1640 1.395 . S
C1642 C1645 1.403 . S
C1643 C1640 1.403 . S
C1643 C1644 1.524 . S
C1643 C1647 1.400 . S
C1644 H1629 0.960 . S
C1644 H1630 0.960 . S
C1644 H1631 0.960 . S
C1644 C1643 1.524 . S
C1645 C1642 1.403 . S
C1645 C1646 1.392 . S
C1645 C1649 1.495 . S
C1646 C1645 1.392 . S
C1646 C1647 1.385 . S
C1646 C1648 1.478 . S
C1647 H1641 0.930 . S
C1647 C1643 1.400 . S
C1647 C1646 1.385 . S
C1648 C1646 1.478 . S
C1648 C1650 1.381 . S
C1648 C1654 1.383 . S
C1649 C1645 1.495 . S
C1649 H1655 0.959 . S
C1649 H1656 0.961 . S
C1649 H1657 0.960 . S
C1650 C1648 1.381 . S
C1650 C1651 1.394 . S
C1650 H1658 0.930 . S
C1651 C1650 1.394 . S
C1651 C1652 1.383 . S
C1651 H1659 0.929 . S
C1652 C1651 1.383 . S
C1652 C1653 1.377 . S
C1653 H1637 0.930 . S
C1653 C1652 1.377 . S
C1653 C1654 1.379 . S
C1654 H1638 0.931 . S
C1654 C1648 1.383 . S
C1654 C1653 1.379 . S
H1655 C1649 0.959 . S
H1656 C1649 0.961 . S
H1657 C1649 0.960 . S
H1658 C1650 0.930 . S
H1659 C1651 0.929 . S
H1660 C1668 0.929 . S
H1661 C1670 0.930 . S
H1662 C1672 0.930 . S
H1663 C1675 0.929 . S
H1664 C1678 0.930 . S
H1665 C1680 0.960 . S
H1666 C1680 0.960 . S
H1667 C1680 0.960 . S
C1668 H1660 0.929 . S
C1668 C1669 1.377 . S
C1668 C1670 1.384 . S
C1669 C1668 1.377 . S
C1669 C1675 1.390 . S
C1670 H1661 0.930 . S
C1670 C1668 1.384 . S
C1670 C1671 1.372 . S
C1671 C1670 1.372 . S
C1671 C1672 1.400 . S
C1671 C1676 1.490 . S
C1672 H1662 0.930 . S
C1672 C1671 1.400 . S
C1672 C1675 1.386 . S
H1673 C1689 0.930 . S
H1674 C1690 0.931 . S
C1675 H1663 0.929 . S
C1675 C1669 1.390 . S
C1675 C1672 1.386 . S
C1676 C1671 1.490 . S
C1676 C1678 1.395 . S
C1676 C1679 1.403 . S
H1677 C1683 0.930 . S
C1678 H1664 0.930 . S
C1678 C1676 1.395 . S
C1678 C1681 1.403 . S
C1679 C1676 1.403 . S
C1679 C1680 1.524 . S
C1679 C1683 1.400 . S
C1680 H1665 0.960 . S
C1680 H1666 0.960 . S
C1680 H1667 0.960 . S
C1680 C1679 1.524 . S
C1681 C1678 1.403 . S
C1681 C1682 1.392 . S
C1681 C1685 1.495 . S
C1682 C1681 1.392 . S
C1682 C1683 1.385 . S
C1682 C1684 1.478 . S
C1683 H1677 0.930 . S
C1683 C1679 1.400 . S
C1683 C1682 1.385 . S
C1684 C1682 1.478 . S
C1684 C1686 1.381 . S
C1684 C1690 1.383 . S
C1685 C1681 1.495 . S
C1685 H1691 0.959 . S
C1685 H1692 0.961 . S
C1685 H1693 0.960 . S
C1686 C1684 1.381 . S
C1686 C1687 1.394 . S
C1686 H1694 0.930 . S
C1687 C1686 1.394 . S
C1687 C1688 1.383 . S
C1687 H1695 0.929 . S
C1688 C1687 1.383 . S
C1688 C1689 1.377 . S
C1689 H1673 0.930 . S
C1689 C1688 1.377 . S
C1689 C1690 1.379 . S
C1690 H1674 0.931 . S
C1690 C1684 1.383 . S
C1690 C1689 1.379 . S
H1691 C1685 0.959 . S
H1692 C1685 0.961 . S
H1693 C1685 0.960 . S
H1694 C1686 0.930 . S
H1695 C1687 0.929 . S
H1696 C1704 0.929 . S
H1697 C1706 0.930 . S
H1698 C1708 0.930 . S
H1699 C1711 0.929 . S
H1700 C1714 0.930 . S
H1701 C1716 0.960 . S
H1702 C1716 0.960 . S
H1703 C1716 0.960 . S
C1704 H1696 0.929 . S
C1704 C1705 1.377 . S
C1704 C1706 1.384 . S
C1705 C1704 1.377 . S
C1705 C1711 1.390 . S
C1706 H1697 0.930 . S
C1706 C1704 1.384 . S
C1706 C1707 1.372 . S
C1707 C1706 1.372 . S
C1707 C1708 1.400 . S
C1707 C1712 1.490 . S
C1708 H1698 0.930 . S
C1708 C1707 1.400 . S
C1708 C1711 1.386 . S
H1709 C1725 0.930 . S
H1710 C1726 0.931 . S
C1711 H1699 0.929 . S
C1711 C1705 1.390 . S
C1711 C1708 1.386 . S
C1712 C1707 1.490 . S
C1712 C1714 1.395 . S
C1712 C1715 1.403 . S
H1713 C1719 0.930 . S
C1714 H1700 0.930 . S
C1714 C1712 1.395 . S
C1714 C1717 1.403 . S
C1715 C1712 1.403 . S
C1715 C1716 1.524 . S
C1715 C1719 1.400 . S
C1716 H1701 0.960 . S
C1716 H1702 0.960 . S
C1716 H1703 0.960 . S
C1716 C1715 1.524 . S
C1717 C1714 1.403 . S
C1717 C1718 1.392 . S
C1717 C1721 1.495 . S
C1718 C1717 1.392 . S
C1718 C1719 1.385 . S
C1718 C1720 1.478 . S
C1719 H1713 0.930 . S
C1719 C1715 1.400 . S
C1719 C1718 1.385 . S
C1720 C1718 1.478 . S
C1720 C1722 1.381 . S
C1720 C1726 1.383 . S
C1721 C1717 1.495 . S
C1721 H1727 0.959 . S
C1721 H1728 0.961 . S
C1721 H1729 0.960 . S
C1722 C1720 1.381 . S
C1722 C1723 1.394 . S
C1722 H1730 0.930 . S
C1723 C1722 1.394 . S
C1723 C1724 1.383 . S
C1723 H1731 0.929 . S
C1724 C1723 1.383 . S
C1724 C1725 1.377 . S
C1725 H1709 0.930 . S
C1725 C1724 1.377 . S
C1725 C1726 1.379 . S
C1726 H1710 0.931 . S
C1726 C1720 1.383 . S
C1726 C1725 1.379 . S
H1727 C1721 0.959 . S
H1728 C1721 0.961 . S
H1729 C1721 0.960 . S
H1730 C1722 0.930 . S
H1731 C1723 0.929 . S
H1732 C1740 0.929 . S
H1733 C1742 0.930 . S
H1734 C1744 0.930 . S
H1735 C1747 0.929 . S
H1736 C1750 0.930 . S
H1737 C1752 0.960 . S
H1738 C1752 0.960 . S
H1739 C1752 0.960 . S
C1740 H1732 0.929 . S
C1740 C1741 1.377 . S
C1740 C1742 1.384 . S
C1741 C1740 1.377 . S
C1741 C1747 1.390 . S
C1742 H1733 0.930 . S
C1742 C1740 1.384 . S
C1742 C1743 1.372 . S
C1743 C1742 1.372 . S
C1743 C1744 1.400 . S
C1743 C1748 1.490 . S
C1744 H1734 0.930 . S
C1744 C1743 1.400 . S
C1744 C1747 1.386 . S
H1745 C1761 0.930 . S
H1746 C1762 0.931 . S
C1747 H1735 0.929 . S
C1747 C1741 1.390 . S
C1747 C1744 1.386 . S
C1748 C1743 1.490 . S
C1748 C1750 1.395 . S
C1748 C1751 1.403 . S
H1749 C1755 0.930 . S
C1750 H1736 0.930 . S
C1750 C1748 1.395 . S
C1750 C1753 1.403 . S
C1751 C1748 1.403 . S
C1751 C1752 1.524 . S
C1751 C1755 1.400 . S
C1752 H1737 0.960 . S
C1752 H1738 0.960 . S
C1752 H1739 0.960 . S
C1752 C1751 1.524 . S
C1753 C1750 1.403 . S
C1753 C1754 1.392 . S
C1753 C1757 1.495 . S
C1754 C1753 1.392 . S
C1754 C1755 1.385 . S
C1754 C1756 1.478 . S
C1755 H1749 0.930 . S
C1755 C1751 1.400 . S
C1755 C1754 1.385 . S
C1756 C1754 1.478 . S
C1756 C1758 1.381 . S
C1756 C1762 1.383 . S
C1757 C1753 1.495 . S
C1757 H1763 0.959 . S
C1757 H1764 0.961 . S
C1757 H1765 0.960 . S
C1758 C1756 1.381 . S
C1758 C1759 1.394 . S
C1758 H1766 0.930 . S
C1759 C1758 1.394 . S
C1759 C1760 1.383 . S
C1759 H1767 0.929 . S
C1760 C1759 1.383 . S
C1760 C1761 1.377 . S
C1761 H1745 0.930 . S
C1761 C1760 1.377 . S
C1761 C1762 1.379 . S
C1762 H1746 0.931 . S
C1762 C1756 1.383 . S
C1762 C1761 1.379 . S
H1763 C1757 0.959 . S
H1764 C1757 0.961 . S
H1765 C1757 0.960 . S
H1766 C1758 0.930 . S
H1767 C1759 0.929 . S
H1768 C1776 0.929 . S
H1769 C1778 0.930 . S
H1770 C1780 0.930 . S
H1771 C1783 0.929 . S
H1772 C1786 0.930 . S
H1773 C1788 0.960 . S
H1774 C1788 0.960 . S
H1775 C1788 0.960 . S
C1776 H1768 0.929 . S
C1776 C1777 1.377 . S
C1776 C1778 1.384 . S
C1777 C1776 1.377 . S
C1777 C1783 1.390 . S
C1778 H1769 0.930 . S
C1778 C1776 1.384 . S
C1778 C1779 1.372 . S
C1779 C1778 1.372 . S
C1779 C1780 1.400 . S
C1779 C1784 1.490 . S
C1780 H1770 0.930 . S
C1780 C1779 1.400 . S
C1780 C1783 1.386 . S
H1781 C1797 0.930 . S
H1782 C1798 0.931 . S
C1783 H1771 0.929 . S
C1783 C1777 1.390 . S
C1783 C1780 1.386 . S
C1784 C1779 1.490 . S
C1784 C1786 1.395 . S
C1784 C1787 1.403 . S
H1785 C1791 0.930 . S
C1786 H1772 0.930 . S
C1786 C1784 1.395 . S
C1786 C1789 1.403 . S
C1787 C1784 1.403 . S
C1787 C1788 1.524 . S
C1787 C1791 1.400 . S
C1788 H1773 0.960 . S
C1788 H1774 0.960 . S
C1788 H1775 0.960 . S
C1788 C1787 1.524 . S
C1789 C1786 1.403 . S
C1789 C1790 1.392 . S
C1789 C1793 1.495 . S
C1790 C1789 1.392 . S
C1790 C1791 1.385 . S
C1790 C1792 1.478 . S
C1791 H1785 0.930 . S
C1791 C1787 1.400 . S
C1791 C1790 1.385 . S
C1792 C1790 1.478 . S
C1792 C1794 1.381 . S
C1792 C1798 1.383 . S
C1793 C1789 1.495 . S
C1793 H1799 0.959 . S
C1793 H1800 0.961 . S
C1793 H1801 0.960 . S
C1794 C1792 1.381 . S
C1794 C1795 1.394 . S
C1794 H1802 0.930 . S
C1795 C1794 1.394 . S
C1795 C1796 1.383 . S
C1795 H1803 0.929 . S
C1796 C1795 1.383 . S
C1796 C1797 1.377 . S
C1797 H1781 0.930 . S
C1797 C1796 1.377 . S
C1797 C1798 1.379 . S
C1798 H1782 0.931 . S
C1798 C1792 1.383 . S
C1798 C1797 1.379 . S
H1799 C1793 0.959 . S
H1800 C1793 0.961 . S
H1801 C1793 0.960 . S
H1802 C1794 0.930 . S
H1803 C1795 0.929 . S
H1804 C1812 0.929 1_655 S
H1805 C1814 0.930 . S
H1806 C1816 0.930 . S
H1807 C1819 0.929 . S
H1808 C1822 0.930 . S
H1809 C1824 0.960 . S
H1810 C1824 0.960 . S
H1811 C1824 0.960 . S
C1812 H1804 0.929 1_455 S
C1812 C1813 1.377 1_455 S
C1812 C1814 1.384 . S
C1813 C1812 1.377 1_655 S
C1813 C1819 1.390 1_655 S
C1814 H1805 0.930 . S
C1814 C1812 1.384 . S
C1814 C1815 1.372 . S
C1815 C1814 1.372 . S
C1815 C1816 1.400 . S
C1815 C1820 1.490 . S
C1816 H1806 0.930 . S
C1816 C1815 1.400 . S
C1816 C1819 1.386 . S
H1817 C1833 0.930 . S
H1818 C1834 0.931 . S
C1819 H1807 0.929 . S
C1819 C1813 1.390 1_455 S
C1819 C1816 1.386 . S
C1820 C1815 1.490 . S
C1820 C1822 1.395 . S
C1820 C1823 1.403 . S
H1821 C1827 0.930 . S
C1822 H1808 0.930 . S
C1822 C1820 1.395 . S
C1822 C1825 1.403 . S
C1823 C1820 1.403 . S
C1823 C1824 1.524 . S
C1823 C1827 1.400 . S
C1824 H1809 0.960 . S
C1824 H1810 0.960 . S
C1824 H1811 0.960 . S
C1824 C1823 1.524 . S
C1825 C1822 1.403 . S
C1825 C1826 1.392 . S
C1825 C1829 1.495 . S
C1826 C1825 1.392 . S
C1826 C1827 1.385 . S
C1826 C1828 1.478 . S
C1827 H1821 0.930 . S
C1827 C1823 1.400 . S
C1827 C1826 1.385 . S
C1828 C1826 1.478 . S
C1828 C1830 1.381 . S
C1828 C1834 1.383 . S
C1829 C1825 1.495 . S
C1829 H1835 0.959 . S
C1829 H1836 0.961 . S
C1829 H1837 0.960 . S
C1830 C1828 1.381 . S
C1830 C1831 1.394 . S
C1830 H1838 0.930 . S
C1831 C1830 1.394 . S
C1831 C1832 1.383 . S
C1831 H1839 0.929 . S
C1832 C1831 1.383 . S
C1832 C1833 1.377 . S
C1833 H1817 0.930 . S
C1833 C1832 1.377 . S
C1833 C1834 1.379 . S
C1834 H1818 0.931 . S
C1834 C1828 1.383 . S
C1834 C1833 1.379 . S
H1835 C1829 0.959 . S
H1836 C1829 0.961 . S
H1837 C1829 0.960 . S
H1838 C1830 0.930 . S
H1839 C1831 0.929 . S
H1840 C1848 0.929 . S
H1841 C1850 0.930 . S
H1842 C1852 0.930 . S
H1843 C1855 0.929 . S
H1844 C1858 0.930 . S
H1845 C1860 0.960 . S
H1846 C1860 0.960 . S
H1847 C1860 0.960 . S
C1848 H1840 0.929 . S
C1848 C1849 1.377 . S
C1848 C1850 1.384 . S
C1849 C1848 1.377 . S
C1849 C1855 1.390 . S
C1850 H1841 0.930 . S
C1850 C1848 1.384 . S
C1850 C1851 1.372 . S
C1851 C1850 1.372 . S
C1851 C1852 1.400 . S
C1851 C1856 1.490 . S
C1852 H1842 0.930 . S
C1852 C1851 1.400 . S
C1852 C1855 1.386 . S
H1853 C1869 0.930 . S
H1854 C1870 0.931 . S
C1855 H1843 0.929 . S
C1855 C1849 1.390 . S
C1855 C1852 1.386 . S
C1856 C1851 1.490 . S
C1856 C1858 1.395 . S
C1856 C1859 1.403 . S
H1857 C1863 0.930 . S
C1858 H1844 0.930 . S
C1858 C1856 1.395 . S
C1858 C1861 1.403 . S
C1859 C1856 1.403 . S
C1859 C1860 1.524 . S
C1859 C1863 1.400 . S
C1860 H1845 0.960 . S
C1860 H1846 0.960 . S
C1860 H1847 0.960 . S
C1860 C1859 1.524 . S
C1861 C1858 1.403 . S
C1861 C1862 1.392 . S
C1861 C1865 1.495 . S
C1862 C1861 1.392 . S
C1862 C1863 1.385 . S
C1862 C1864 1.478 . S
C1863 H1857 0.930 . S
C1863 C1859 1.400 . S
C1863 C1862 1.385 . S
C1864 C1862 1.478 . S
C1864 C1866 1.381 . S
C1864 C1870 1.383 . S
C1865 C1861 1.495 . S
C1865 H1871 0.959 . S
C1865 H1872 0.961 . S
C1865 H1873 0.960 . S
C1866 C1864 1.381 . S
C1866 C1867 1.394 . S
C1866 H1874 0.930 . S
C1867 C1866 1.394 . S
C1867 C1868 1.383 . S
C1867 H1875 0.929 . S
C1868 C1867 1.383 . S
C1868 C1869 1.377 . S
C1869 H1853 0.930 . S
C1869 C1868 1.377 . S
C1869 C1870 1.379 . S
C1870 H1854 0.931 . S
C1870 C1864 1.383 . S
C1870 C1869 1.379 . S
H1871 C1865 0.959 . S
H1872 C1865 0.961 . S
H1873 C1865 0.960 . S
H1874 C1866 0.930 . S
H1875 C1867 0.929 . S
H1876 C1884 0.929 . S
H1877 C1886 0.930 . S
H1878 C1888 0.930 . S
H1879 C1891 0.929 . S
H1880 C1894 0.930 . S
H1881 C1896 0.960 . S
H1882 C1896 0.960 . S
H1883 C1896 0.960 . S
C1884 H1876 0.929 . S
C1884 C1885 1.377 . S
C1884 C1886 1.384 . S
C1885 C1884 1.377 . S
C1885 C1891 1.390 . S
C1886 H1877 0.930 . S
C1886 C1884 1.384 . S
C1886 C1887 1.372 . S
C1887 C1886 1.372 . S
C1887 C1888 1.400 . S
C1887 C1892 1.490 . S
C1888 H1878 0.930 . S
C1888 C1887 1.400 . S
C1888 C1891 1.386 . S
H1889 C1905 0.930 . S
H1890 C1906 0.944 . S
C1891 H1879 0.929 . S
C1891 C1885 1.390 . S
C1891 C1888 1.386 . S
C1892 C1887 1.490 . S
C1892 C1894 1.395 . S
C1892 C1895 1.403 . S
H1893 C1899 0.930 . S
C1894 H1880 0.930 . S
C1894 C1892 1.395 . S
C1894 C1897 1.403 . S
C1895 C1892 1.403 . S
C1895 C1896 1.524 . S
C1895 C1899 1.400 . S
C1896 H1881 0.960 . S
C1896 H1882 0.960 . S
C1896 H1883 0.960 . S
C1896 C1895 1.524 . S
C1897 C1894 1.403 . S
C1897 C1898 1.392 . S
C1897 C1901 1.495 . S
C1898 C1897 1.392 . S
C1898 C1899 1.385 . S
C1898 C1900 1.478 . S
C1899 H1893 0.930 . S
C1899 C1895 1.400 . S
C1899 C1898 1.385 . S
C1900 C1898 1.478 . S
C1900 C1902 1.381 . S
C1900 C1906 1.383 1_455 S
C1901 C1897 1.495 . S
C1901 H1907 0.959 . S
C1901 H1908 0.961 . S
C1901 H1909 0.960 . S
C1902 C1900 1.381 . S
C1902 C1903 1.394 1_455 S
C1902 H1910 0.930 . S
C1903 C1902 1.394 1_655 S
C1903 C1904 1.383 . S
C1903 H1911 0.929 . S
C1904 C1903 1.383 . S
C1904 C1905 1.377 . S
C1905 H1889 0.930 . S
C1905 C1904 1.377 . S
C1905 C1906 1.379 . S
C1906 H1890 0.944 . S
C1906 C1900 1.383 1_655 S
C1906 C1905 1.379 . S
H1907 C1901 0.959 . S
H1908 C1901 0.961 . S
H1909 C1901 0.960 . S
H1910 C1902 0.930 . S
H1911 C1903 0.929 . S
H1912 C1920 0.929 . S
H1913 C1922 0.930 . S
H1914 C1924 0.930 . S
H1915 C1927 0.929 . S
H1916 C1930 0.930 . S
H1917 C1932 0.960 . S
H1918 C1932 0.960 . S
H1919 C1932 0.960 . S
C1920 H1912 0.929 . S
C1920 C1921 1.377 . S
C1920 C1922 1.384 . S
C1921 C1920 1.377 . S
C1921 C1927 1.390 . S
C1922 H1913 0.930 . S
C1922 C1920 1.384 . S
C1922 C1923 1.372 . S
C1923 C1922 1.372 . S
C1923 C1924 1.400 . S
C1923 C1928 1.490 . S
C1924 H1914 0.930 . S
C1924 C1923 1.400 . S
C1924 C1927 1.386 . S
H1925 C1941 0.930 . S
H1926 C1942 0.931 . S
C1927 H1915 0.929 . S
C1927 C1921 1.390 . S
C1927 C1924 1.386 . S
C1928 C1923 1.490 . S
C1928 C1930 1.395 . S
C1928 C1931 1.403 . S
H1929 C1935 0.930 . S
C1930 H1916 0.930 . S
C1930 C1928 1.395 . S
C1930 C1933 1.403 . S
C1931 C1928 1.403 . S
C1931 C1932 1.524 . S
C1931 C1935 1.400 . S
C1932 H1917 0.960 . S
C1932 H1918 0.960 . S
C1932 H1919 0.960 . S
C1932 C1931 1.524 . S
C1933 C1930 1.403 . S
C1933 C1934 1.392 . S
C1933 C1937 1.495 . S
C1934 C1933 1.392 . S
C1934 C1935 1.385 . S
C1934 C1936 1.478 . S
C1935 H1929 0.930 . S
C1935 C1931 1.400 . S
C1935 C1934 1.385 . S
C1936 C1934 1.478 . S
C1936 C1938 1.381 . S
C1936 C1942 1.383 . S
C1937 C1933 1.495 . S
C1937 H1943 0.959 . S
C1937 H1944 0.961 . S
C1937 H1945 0.960 . S
C1938 C1936 1.381 . S
C1938 C1939 1.394 . S
C1938 H1946 0.930 . S
C1939 C1938 1.394 . S
C1939 C1940 1.383 . S
C1939 H1947 0.929 . S
C1940 C1939 1.383 . S
C1940 C1941 1.377 . S
C1941 H1925 0.930 . S
C1941 C1940 1.377 . S
C1941 C1942 1.379 . S
C1942 H1926 0.931 . S
C1942 C1936 1.383 . S
C1942 C1941 1.379 . S
H1943 C1937 0.959 . S
H1944 C1937 0.961 . S
H1945 C1937 0.960 . S
H1946 C1938 0.930 . S
H1947 C1939 0.929 . S
H1948 C1956 0.929 . S
H1949 C1958 0.930 . S
H1950 C1960 0.930 . S
H1951 C1963 0.929 . S
H1952 C1966 0.930 . S
H1953 C1968 0.960 . S
H1954 C1968 0.960 . S
H1955 C1968 0.960 . S
C1956 H1948 0.929 . S
C1956 C1957 1.377 . S
C1956 C1958 1.384 . S
C1957 C1956 1.377 . S
C1957 C1963 1.390 . S
C1958 H1949 0.930 . S
C1958 C1956 1.384 . S
C1958 C1959 1.372 . S
C1959 C1958 1.372 . S
C1959 C1960 1.400 . S
C1959 C1964 1.490 . S
C1960 H1950 0.930 . S
C1960 C1959 1.400 . S
C1960 C1963 1.386 . S
H1961 C1977 0.930 . S
H1962 C1978 0.931 . S
C1963 H1951 0.929 . S
C1963 C1957 1.390 . S
C1963 C1960 1.386 . S
C1964 C1959 1.490 . S
C1964 C1966 1.395 . S
C1964 C1967 1.403 . S
H1965 C1971 0.930 . S
C1966 H1952 0.930 . S
C1966 C1964 1.395 . S
C1966 C1969 1.403 . S
C1967 C1964 1.403 . S
C1967 C1968 1.524 . S
C1967 C1971 1.400 . S
C1968 H1953 0.960 . S
C1968 H1954 0.960 . S
C1968 H1955 0.960 . S
C1968 C1967 1.524 . S
C1969 C1966 1.403 . S
C1969 C1970 1.392 . S
C1969 C1973 1.495 . S
C1970 C1969 1.392 . S
C1970 C1971 1.385 . S
C1970 C1972 1.478 . S
C1971 H1965 0.930 . S
C1971 C1967 1.400 . S
C1971 C1970 1.385 . S
C1972 C1970 1.478 . S
C1972 C1974 1.381 . S
C1972 C1978 1.383 . S
C1973 C1969 1.495 . S
C1973 H1979 0.959 . S
C1973 H1980 0.961 . S
C1973 H1981 0.960 . S
C1974 C1972 1.381 . S
C1974 C1975 1.394 . S
C1974 H1982 0.930 . S
C1975 C1974 1.394 . S
C1975 C1976 1.383 . S
C1975 H1983 0.929 . S
C1976 C1975 1.383 . S
C1976 C1977 1.377 . S
C1977 H1961 0.930 . S
C1977 C1976 1.377 . S
C1977 C1978 1.379 . S
C1978 H1962 0.931 . S
C1978 C1972 1.383 . S
C1978 C1977 1.379 . S
H1979 C1973 0.959 . S
H1980 C1973 0.961 . S
H1981 C1973 0.960 . S
H1982 C1974 0.930 . S
H1983 C1975 0.929 . S
H1984 C1992 0.929 . S
H1985 C1994 0.930 . S
H1986 C1996 0.930 . S
H1987 C1999 0.929 . S
H1988 C2002 0.930 . S
H1989 C2004 0.960 . S
H1990 C2004 0.960 . S
H1991 C2004 0.960 . S
C1992 H1984 0.929 . S
C1992 C1993 1.377 . S
C1992 C1994 1.384 . S
C1993 C1992 1.377 . S
C1993 C1999 1.390 . S
C1994 H1985 0.930 . S
C1994 C1992 1.384 . S
C1994 C1995 1.372 . S
C1995 C1994 1.372 . S
C1995 C1996 1.400 . S
C1995 C2000 1.490 . S
C1996 H1986 0.930 . S
C1996 C1995 1.400 . S
C1996 C1999 1.386 . S
H1997 C2013 0.930 . S
H1998 C2014 0.931 . S
C1999 H1987 0.929 . S
C1999 C1993 1.390 . S
C1999 C1996 1.386 . S
C2000 C1995 1.490 . S
C2000 C2002 1.395 . S
C2000 C2003 1.403 . S
H2001 C2007 0.930 . S
C2002 H1988 0.930 . S
C2002 C2000 1.395 . S
C2002 C2005 1.403 1_556 S
C2003 C2000 1.403 . S
C2003 C2004 1.524 . S
C2003 C2007 1.400 . S
C2004 H1989 0.960 . S
C2004 H1990 0.960 . S
C2004 H1991 0.960 . S
C2004 C2003 1.524 . S
C2005 C2002 1.403 1_554 S
C2005 C2006 1.392 . S
C2005 C2009 1.495 . S
C2006 C2005 1.392 . S
C2006 C2007 1.385 1_554 S
C2006 C2008 1.478 . S
C2007 H2001 0.930 . S
C2007 C2003 1.400 . S
C2007 C2006 1.385 1_556 S
C2008 C2006 1.478 . S
C2008 C2010 1.381 . S
C2008 C2014 1.383 . S
C2009 C2005 1.495 . S
C2009 H2015 0.959 . S
C2009 H2016 0.961 . S
C2009 H2017 0.960 . S
C2010 C2008 1.381 . S
C2010 C2011 1.394 . S
C2010 H2018 0.930 . S
C2011 C2010 1.394 . S
C2011 C2012 1.383 . S
C2011 H2019 0.929 . S
C2012 C2011 1.383 . S
C2012 C2013 1.377 . S
C2013 H1997 0.930 . S
C2013 C2012 1.377 . S
C2013 C2014 1.379 . S
C2014 H1998 0.931 . S
C2014 C2008 1.383 . S
C2014 C2013 1.379 . S
H2015 C2009 0.959 . S
H2016 C2009 0.961 . S
H2017 C2009 0.960 . S
H2018 C2010 0.930 . S
H2019 C2011 0.929 . S
H2020 C2028 0.929 . S
H2021 C2030 0.930 . S
H2022 C2032 0.928 . S
H2023 C2035 0.929 1_565 S
H2024 C2038 0.930 . S
H2025 C2040 0.960 . S
H2026 C2040 0.960 . S
H2027 C2040 0.960 1_565 S
C2028 H2020 0.929 . S
C2028 C2029 1.377 . S
C2028 C2030 1.384 . S
C2029 C2028 1.377 . S
C2029 C2035 1.390 . S
C2030 H2021 0.930 . S
C2030 C2028 1.384 . S
C2030 C2031 1.372 . S
C2031 C2030 1.372 . S
C2031 C2032 1.401 1_545 S
C2031 C2036 1.490 . S
C2032 H2022 0.928 . S
C2032 C2031 1.401 1_565 S
C2032 C2035 1.386 1_565 S
H2033 C2049 0.930 . S
H2034 C2050 0.931 . S
C2035 H2023 0.929 1_545 S
C2035 C2029 1.390 . S
C2035 C2032 1.386 1_545 S
C2036 C2031 1.490 . S
C2036 C2038 1.395 . S
C2036 C2039 1.403 . S
H2037 C2043 0.931 . S
C2038 H2024 0.930 . S
C2038 C2036 1.395 . S
C2038 C2041 1.403 . S
C2039 C2036 1.403 . S
C2039 C2040 1.524 . S
C2039 C2043 1.400 . S
C2040 H2025 0.960 . S
C2040 H2026 0.960 . S
C2040 H2027 0.960 1_545 S
C2040 C2039 1.524 . S
C2041 C2038 1.403 . S
C2041 C2042 1.392 . S
C2041 C2045 1.495 . S
C2042 C2041 1.392 . S
C2042 C2043 1.385 . S
C2042 C2044 1.478 1_545 S
C2043 H2037 0.931 . S
C2043 C2039 1.400 . S
C2043 C2042 1.385 . S
C2044 C2042 1.478 1_565 S
C2044 C2046 1.381 1_565 S
C2044 C2050 1.383 . S
C2045 C2041 1.495 . S
C2045 H2051 0.959 . S
C2045 H2052 0.961 1_545 S
C2045 H2053 0.960 . S
C2046 C2044 1.381 1_545 S
C2046 C2047 1.394 . S
C2046 H2054 0.930 . S
C2047 C2046 1.394 . S
C2047 C2048 1.383 1_545 S
C2047 H2055 0.929 . S
C2048 C2047 1.383 1_565 S
C2048 C2049 1.377 . S
C2049 H2033 0.930 . S
C2049 C2048 1.377 . S
C2049 C2050 1.379 . S
C2050 H2034 0.931 . S
C2050 C2044 1.383 . S
C2050 C2049 1.379 . S
H2051 C2045 0.959 . S
H2052 C2045 0.961 1_565 S
H2053 C2045 0.960 . S
H2054 C2046 0.930 . S
H2055 C2047 0.929 . S
H2056 C2064 0.929 . S
H2057 C2066 0.930 . S
H2058 C2068 0.930 . S
H2059 C2071 0.929 . S
H2060 C2074 0.930 . S
H2061 C2076 0.960 . S
H2062 C2076 0.960 . S
H2063 C2076 0.960 . S
C2064 H2056 0.929 . S
C2064 C2065 1.377 . S
C2064 C2066 1.384 . S
C2065 C2064 1.377 . S
C2065 C2071 1.390 . S
C2066 H2057 0.930 . S
C2066 C2064 1.384 . S
C2066 C2067 1.372 . S
C2067 C2066 1.372 . S
C2067 C2068 1.400 . S
C2067 C2072 1.490 . S
C2068 H2058 0.930 . S
C2068 C2067 1.400 . S
C2068 C2071 1.386 . S
H2069 C2085 0.930 . S
H2070 C2086 0.931 . S
C2071 H2059 0.929 . S
C2071 C2065 1.390 . S
C2071 C2068 1.386 . S
C2072 C2067 1.490 . S
C2072 C2074 1.395 . S
C2072 C2075 1.403 . S
H2073 C2079 0.930 . S
C2074 H2060 0.930 . S
C2074 C2072 1.395 . S
C2074 C2077 1.403 . S
C2075 C2072 1.403 . S
C2075 C2076 1.524 . S
C2075 C2079 1.400 . S
C2076 H2061 0.960 . S
C2076 H2062 0.960 . S
C2076 H2063 0.960 . S
C2076 C2075 1.524 . S
C2077 C2074 1.403 . S
C2077 C2078 1.392 . S
C2077 C2081 1.495 . S
C2078 C2077 1.392 . S
C2078 C2079 1.385 . S
C2078 C2080 1.478 . S
C2079 H2073 0.930 . S
C2079 C2075 1.400 . S
C2079 C2078 1.385 . S
C2080 C2078 1.478 . S
C2080 C2082 1.381 . S
C2080 C2086 1.383 . S
C2081 C2077 1.495 . S
C2081 H2087 0.959 . S
C2081 H2088 0.961 . S
C2081 H2089 0.960 . S
C2082 C2080 1.381 . S
C2082 C2083 1.394 . S
C2082 H2090 0.930 . S
C2083 C2082 1.394 . S
C2083 C2084 1.383 . S
C2083 H2091 0.929 . S
C2084 C2083 1.383 . S
C2084 C2085 1.377 . S
C2085 H2069 0.930 . S
C2085 C2084 1.377 . S
C2085 C2086 1.379 . S
C2086 H2070 0.931 . S
C2086 C2080 1.383 . S
C2086 C2085 1.379 . S
H2087 C2081 0.959 . S
H2088 C2081 0.961 . S
H2089 C2081 0.960 . S
H2090 C2082 0.930 . S
H2091 C2083 0.929 . S
H2092 C2100 0.929 . S
H2093 C2102 0.930 . S
H2094 C2104 0.930 . S
H2095 C2107 0.929 . S
H2096 C2110 0.930 . S
H2097 C2112 0.960 . S
H2098 C2112 0.960 . S
H2099 C2112 0.960 . S
C2100 H2092 0.929 . S
C2100 C2101 1.377 . S
C2100 C2102 1.384 . S
C2101 C2100 1.377 . S
C2101 C2107 1.390 . S
C2102 H2093 0.930 . S
C2102 C2100 1.384 . S
C2102 C2103 1.372 . S
C2103 C2102 1.372 . S
C2103 C2104 1.400 . S
C2103 C2108 1.490 . S
C2104 H2094 0.930 . S
C2104 C2103 1.400 . S
C2104 C2107 1.386 . S
H2105 C2121 0.930 . S
H2106 C2122 0.931 . S
C2107 H2095 0.929 . S
C2107 C2101 1.390 . S
C2107 C2104 1.386 . S
C2108 C2103 1.490 . S
C2108 C2110 1.395 . S
C2108 C2111 1.403 1_565 S
H2109 C2115 0.930 . S
C2110 H2096 0.930 . S
C2110 C2108 1.395 . S
C2110 C2113 1.403 . S
C2111 C2108 1.403 1_545 S
C2111 C2112 1.524 . S
C2111 C2115 1.400 . S
C2112 H2097 0.960 . S
C2112 H2098 0.960 . S
C2112 H2099 0.960 . S
C2112 C2111 1.524 . S
C2113 C2110 1.403 . S
C2113 C2114 1.392 . S
C2113 C2117 1.495 . S
C2114 C2113 1.392 . S
C2114 C2115 1.385 1_565 S
C2114 C2116 1.478 . S
C2115 H2109 0.930 . S
C2115 C2111 1.400 . S
C2115 C2114 1.385 1_545 S
C2116 C2114 1.478 . S
C2116 C2118 1.381 . S
C2116 C2122 1.383 1_565 S
C2117 C2113 1.495 . S
C2117 H2123 0.959 . S
C2117 H2124 0.961 . S
C2117 H2125 0.960 . S
C2118 C2116 1.381 . S
C2118 C2119 1.390 1_565 S
C2118 H2126 0.930 . S
C2119 C2118 1.390 1_545 S
C2119 C2120 1.395 . S
C2119 H2127 0.922 1_545 S
C2120 C2119 1.395 . S
C2120 C2121 1.377 . S
C2121 H2105 0.930 . S
C2121 C2120 1.377 . S
C2121 C2122 1.379 . S
C2122 H2106 0.931 . S
C2122 C2116 1.383 1_545 S
C2122 C2121 1.379 . S
H2123 C2117 0.959 . S
H2124 C2117 0.961 . S
H2125 C2117 0.960 . S
H2126 C2118 0.930 . S
H2127 C2119 0.922 1_565 S
H2128 C2136 0.929 . S
H2129 C2138 0.930 . S
H2130 C2140 0.930 . S
H2131 C2143 0.929 . S
H2132 C2146 0.930 . S
H2133 C2148 0.960 . S
H2134 C2148 0.960 . S
H2135 C2148 0.960 . S
C2136 H2128 0.929 . S
C2136 C2137 1.377 . S
C2136 C2138 1.384 . S
C2137 C2136 1.377 . S
C2137 C2143 1.390 . S
C2138 H2129 0.930 . S
C2138 C2136 1.384 . S
C2138 C2139 1.372 . S
C2139 C2138 1.372 . S
C2139 C2140 1.400 . S
C2139 C2144 1.490 . S
C2140 H2130 0.930 . S
C2140 C2139 1.400 . S
C2140 C2143 1.386 . S
H2141 C2157 0.930 . S
H2142 C2158 0.931 . S
C2143 H2131 0.929 . S
C2143 C2137 1.390 . S
C2143 C2140 1.386 . S
C2144 C2139 1.490 . S
C2144 C2146 1.395 1_556 S
C2144 C2147 1.403 . S
H2145 C2151 0.930 . S
C2146 H2132 0.930 . S
C2146 C2144 1.395 1_554 S
C2146 C2149 1.403 . S
C2147 C2144 1.403 . S
C2147 C2148 1.524 . S
C2147 C2151 1.400 1_556 S
C2148 H2133 0.960 . S
C2148 H2134 0.960 . S
C2148 H2135 0.960 . S
C2148 C2147 1.524 . S
C2149 C2146 1.403 . S
C2149 C2150 1.392 . S
C2149 C2153 1.495 . S
C2150 C2149 1.392 . S
C2150 C2151 1.385 . S
C2150 C2152 1.478 . S
C2151 H2145 0.930 . S
C2151 C2147 1.400 1_554 S
C2151 C2150 1.385 . S
C2152 C2150 1.478 . S
C2152 C2154 1.381 . S
C2152 C2158 1.383 . S
C2153 C2149 1.495 . S
C2153 H2159 0.959 . S
C2153 H2160 0.961 . S
C2153 H2161 0.960 . S
C2154 C2152 1.381 . S
C2154 C2155 1.394 . S
C2154 H2162 0.930 . S
C2155 C2154 1.394 . S
C2155 C2156 1.383 . S
C2155 H2163 0.929 . S
C2156 C2155 1.383 . S
C2156 C2157 1.377 . S
C2157 H2141 0.930 . S
C2157 C2156 1.377 . S
C2157 C2158 1.379 . S
C2158 H2142 0.931 . S
C2158 C2152 1.383 . S
C2158 C2157 1.379 . S
H2159 C2153 0.959 . S
H2160 C2153 0.961 . S
H2161 C2153 0.960 . S
H2162 C2154 0.930 . S
H2163 C2155 0.929 . S
H2164 C2172 0.929 . S
H2165 C2174 0.930 . S
H2166 C2176 0.930 . S
H2167 C2179 0.929 1_565 S
H2168 C2182 0.930 . S
H2169 C2184 0.960 . S
H2170 C2184 0.960 . S
H2171 C2184 0.960 . S
C2172 H2164 0.929 . S
C2172 C2173 1.377 . S
C2172 C2174 1.384 . S
C2173 C2172 1.377 . S
C2173 C2179 1.390 . S
C2174 H2165 0.930 . S
C2174 C2172 1.384 . S
C2174 C2175 1.372 . S
C2175 C2174 1.372 . S
C2175 C2176 1.400 1_545 S
C2175 C2180 1.490 . S
C2176 H2166 0.930 . S
C2176 C2175 1.400 1_565 S
C2176 C2179 1.386 1_565 S
H2177 C2193 0.930 . S
H2178 C2194 0.931 . S
C2179 H2167 0.929 1_545 S
C2179 C2173 1.390 . S
C2179 C2176 1.386 1_545 S
C2180 C2175 1.490 . S
C2180 C2182 1.395 . S
C2180 C2183 1.403 1_545 S
H2181 C2187 0.930 . S
C2182 H2168 0.930 . S
C2182 C2180 1.395 . S
C2182 C2185 1.403 . S
C2183 C2180 1.403 1_565 S
C2183 C2184 1.524 . S
C2183 C2187 1.400 . S
C2184 H2169 0.960 . S
C2184 H2170 0.960 . S
C2184 H2171 0.960 . S
C2184 C2183 1.524 . S
C2185 C2182 1.403 . S
C2185 C2186 1.392 . S
C2185 C2189 1.495 . S
C2186 C2185 1.392 . S
C2186 C2187 1.385 1_545 S
C2186 C2188 1.478 . S
C2187 H2181 0.930 . S
C2187 C2183 1.400 . S
C2187 C2186 1.385 1_565 S
C2188 C2186 1.478 . S
C2188 C2190 1.381 . S
C2188 C2194 1.383 1_545 S
C2189 C2185 1.495 . S
C2189 H2195 0.959 . S
C2189 H2196 0.961 . S
C2189 H2197 0.960 . S
C2190 C2188 1.381 . S
C2190 C2191 1.394 . S
C2190 H2198 0.930 . S
C2191 C2190 1.394 . S
C2191 C2192 1.383 1_545 S
C2191 H2199 0.929 . S
C2192 C2191 1.383 1_565 S
C2192 C2193 1.377 . S
C2193 H2177 0.930 . S
C2193 C2192 1.377 . S
C2193 C2194 1.379 . S
C2194 H2178 0.931 . S
C2194 C2188 1.383 1_565 S
C2194 C2193 1.379 . S
H2195 C2189 0.959 . S
H2196 C2189 0.961 . S
H2197 C2189 0.960 . S
H2198 C2190 0.930 . S
H2199 C2191 0.929 . S
H2200 C2208 0.929 . S
H2201 C2210 0.930 . S
H2202 C2212 0.930 . S
H2203 C2215 0.929 . S
H2204 C2218 0.930 . S
H2205 C2220 0.960 . S
H2206 C2220 0.960 . S
H2207 C2220 0.960 . S
C2208 H2200 0.929 . S
C2208 C2209 1.377 . S
C2208 C2210 1.384 . S
C2209 C2208 1.377 . S
C2209 C2215 1.390 . S
C2210 H2201 0.930 . S
C2210 C2208 1.384 . S
C2210 C2211 1.372 . S
C2211 C2210 1.372 . S
C2211 C2212 1.400 . S
C2211 C2216 1.490 . S
C2212 H2202 0.930 . S
C2212 C2211 1.400 . S
C2212 C2215 1.386 . S
H2213 C2229 0.930 . S
H2214 C2230 0.931 . S
C2215 H2203 0.929 . S
C2215 C2209 1.390 . S
C2215 C2212 1.386 . S
C2216 C2211 1.490 . S
C2216 C2218 1.395 . S
C2216 C2219 1.403 . S
H2217 C2223 0.930 . S
C2218 H2204 0.930 . S
C2218 C2216 1.395 . S
C2218 C2221 1.403 . S
C2219 C2216 1.403 . S
C2219 C2220 1.524 . S
C2219 C2223 1.400 . S
C2220 H2205 0.960 . S
C2220 H2206 0.960 . S
C2220 H2207 0.960 . S
C2220 C2219 1.524 . S
C2221 C2218 1.403 . S
C2221 C2222 1.392 . S
C2221 C2225 1.495 . S
C2222 C2221 1.392 . S
C2222 C2223 1.385 . S
C2222 C2224 1.478 . S
C2223 H2217 0.930 . S
C2223 C2219 1.400 . S
C2223 C2222 1.385 . S
C2224 C2222 1.478 . S
C2224 C2226 1.381 . S
C2224 C2230 1.383 . S
C2225 C2221 1.495 . S
C2225 H2231 0.959 . S
C2225 H2232 0.961 . S
C2225 H2233 0.960 . S
C2226 C2224 1.381 . S
C2226 C2227 1.394 . S
C2226 H2234 0.930 . S
C2227 C2226 1.394 . S
C2227 C2228 1.383 . S
C2227 H2235 0.929 . S
C2228 C2227 1.383 . S
C2228 C2229 1.377 . S
C2229 H2213 0.930 . S
C2229 C2228 1.377 . S
C2229 C2230 1.379 . S
C2230 H2214 0.931 . S
C2230 C2224 1.383 . S
C2230 C2229 1.379 . S
H2231 C2225 0.959 . S
H2232 C2225 0.961 . S
H2233 C2225 0.960 . S
H2234 C2226 0.930 . S
H2235 C2227 0.929 . S
H2236 C2244 0.929 . S
H2237 C2246 0.930 . S
H2238 C2248 0.930 1_565 S
H2239 C2251 0.929 . S
H2240 C2254 0.930 . S
H2241 C2256 0.960 . S
H2242 C2256 0.960 . S
H2243 C2256 0.960 . S
C2244 H2236 0.929 . S
C2244 C2245 1.377 . S
C2244 C2246 1.384 . S
C2245 C2244 1.377 . S
C2245 C2251 1.390 . S
C2246 H2237 0.930 . S
C2246 C2244 1.384 . S
C2246 C2247 1.372 . S
C2247 C2246 1.372 . S
C2247 C2248 1.400 . S
C2247 C2252 1.490 . S
C2248 H2238 0.930 1_545 S
C2248 C2247 1.400 . S
C2248 C2251 1.386 . S
H2249 C2265 0.930 . S
H2250 C2266 0.931 . S
C2251 H2239 0.929 . S
C2251 C2245 1.390 . S
C2251 C2248 1.386 . S
C2252 C2247 1.490 . S
C2252 C2254 1.395 1_545 S
C2252 C2255 1.403 . S
H2253 C2259 0.930 . S
C2254 H2240 0.930 . S
C2254 C2252 1.395 1_565 S
C2254 C2257 1.403 . S
C2255 C2252 1.403 . S
C2255 C2256 1.524 . S
C2255 C2259 1.400 . S
C2256 H2241 0.960 . S
C2256 H2242 0.960 . S
C2256 H2243 0.960 . S
C2256 C2255 1.524 . S
C2257 C2254 1.403 . S
C2257 C2258 1.392 . S
C2257 C2261 1.495 . S
C2258 C2257 1.392 . S
C2258 C2259 1.385 1_565 S
C2258 C2260 1.478 . S
C2259 H2253 0.930 . S
C2259 C2255 1.400 . S
C2259 C2258 1.385 1_545 S
C2260 C2258 1.478 . S
C2260 C2262 1.381 1_565 S
C2260 C2266 1.383 . S
C2261 C2257 1.495 . S
C2261 H2267 0.959 . S
C2261 H2268 0.961 . S
C2261 H2269 0.960 . S
C2262 C2260 1.381 1_545 S
C2262 C2263 1.394 . S
C2262 H2270 0.930 . S
C2263 C2262 1.394 . S
C2263 C2264 1.383 1_545 S
C2263 H2271 0.929 . S
C2264 C2263 1.383 1_565 S
C2264 C2265 1.377 . S
C2265 H2249 0.930 . S
C2265 C2264 1.377 . S
C2265 C2266 1.379 . S
C2266 H2250 0.931 . S
C2266 C2260 1.383 . S
C2266 C2265 1.379 . S
H2267 C2261 0.959 . S
H2268 C2261 0.961 . S
H2269 C2261 0.960 . S
H2270 C2262 0.930 . S
H2271 C2263 0.929 . S
H2272 C2280 0.929 . S
H2273 C2282 0.930 . S
H2274 C2284 0.930 . S
H2275 C2287 0.929 . S
H2276 C2290 0.930 . S
H2277 C2292 0.960 . S
H2278 C2292 0.960 . S
H2279 C2292 0.960 . S
C2280 H2272 0.929 . S
C2280 C2281 1.377 . S
C2280 C2282 1.384 . S
C2281 C2280 1.377 . S
C2281 C2287 1.390 . S
C2282 H2273 0.930 . S
C2282 C2280 1.384 . S
C2282 C2283 1.372 . S
C2283 C2282 1.372 . S
C2283 C2284 1.400 . S
C2283 C2288 1.490 . S
C2284 H2274 0.930 . S
C2284 C2283 1.400 . S
C2284 C2287 1.386 . S
H2285 C2301 0.930 . S
H2286 C2302 0.931 . S
C2287 H2275 0.929 . S
C2287 C2281 1.390 . S
C2287 C2284 1.386 . S
C2288 C2283 1.490 . S
C2288 C2290 1.395 . S
C2288 C2291 1.403 . S
H2289 C2295 0.930 . S
C2290 H2276 0.930 . S
C2290 C2288 1.395 . S
C2290 C2293 1.403 . S
C2291 C2288 1.403 . S
C2291 C2292 1.524 . S
C2291 C2295 1.400 . S
C2292 H2277 0.960 . S
C2292 H2278 0.960 . S
C2292 H2279 0.960 . S
C2292 C2291 1.524 . S
C2293 C2290 1.403 . S
C2293 C2294 1.392 . S
C2293 C2297 1.495 . S
C2294 C2293 1.392 . S
C2294 C2295 1.385 . S
C2294 C2296 1.478 . S
C2295 H2289 0.930 . S
C2295 C2291 1.400 . S
C2295 C2294 1.385 . S
C2296 C2294 1.478 . S
C2296 C2298 1.381 . S
C2296 C2302 1.383 . S
C2297 C2293 1.495 . S
C2297 H2303 0.959 . S
C2297 H2304 0.961 . S
C2297 H2305 0.960 . S
C2298 C2296 1.381 . S
C2298 C2299 1.394 . S
C2298 H2306 0.930 . S
C2299 C2298 1.394 . S
C2299 C2300 1.383 . S
C2299 H2307 0.929 . S
C2300 C2299 1.383 . S
C2300 C2301 1.377 . S
C2301 H2285 0.930 . S
C2301 C2300 1.377 . S
C2301 C2302 1.379 . S
C2302 H2286 0.931 . S
C2302 C2296 1.383 . S
C2302 C2301 1.379 . S
H2303 C2297 0.959 . S
H2304 C2297 0.961 . S
H2305 C2297 0.960 . S
H2306 C2298 0.930 . S
H2307 C2299 0.929 . S
H2308 C2316 0.929 . S
H2309 C2318 0.930 . S
H2310 C2320 0.930 . S
H2311 C2323 0.929 . S
H2312 C2326 0.930 . S
H2313 C2328 0.960 . S
H2314 C2328 0.960 . S
H2315 C2328 0.960 . S
C2316 H2308 0.929 . S
C2316 C2317 1.377 . S
C2316 C2318 1.384 . S
C2317 C2316 1.377 . S
C2317 C2323 1.390 . S
C2318 H2309 0.930 . S
C2318 C2316 1.384 . S
C2318 C2319 1.372 . S
C2319 C2318 1.372 . S
C2319 C2320 1.400 . S
C2319 C2324 1.490 . S
C2320 H2310 0.930 . S
C2320 C2319 1.400 . S
C2320 C2323 1.386 . S
H2321 C2337 0.930 . S
H2322 C2338 0.931 . S
C2323 H2311 0.929 . S
C2323 C2317 1.390 . S
C2323 C2320 1.386 . S
C2324 C2319 1.490 . S
C2324 C2326 1.395 . S
C2324 C2327 1.403 . S
H2325 C2331 0.930 . S
C2326 H2312 0.930 . S
C2326 C2324 1.395 . S
C2326 C2329 1.403 . S
C2327 C2324 1.403 . S
C2327 C2328 1.524 . S
C2327 C2331 1.400 . S
C2328 H2313 0.960 . S
C2328 H2314 0.960 . S
C2328 H2315 0.960 . S
C2328 C2327 1.524 . S
C2329 C2326 1.403 . S
C2329 C2330 1.392 . S
C2329 C2333 1.495 . S
C2330 C2329 1.392 . S
C2330 C2331 1.385 . S
C2330 C2332 1.478 . S
C2331 H2325 0.930 . S
C2331 C2327 1.400 . S
C2331 C2330 1.385 . S
C2332 C2330 1.478 . S
C2332 C2334 1.381 . S
C2332 C2338 1.383 . S
C2333 C2329 1.495 . S
C2333 H2339 0.959 . S
C2333 H2340 0.961 . S
C2333 H2341 0.960 . S
C2334 C2332 1.381 . S
C2334 C2335 1.394 . S
C2334 H2342 0.930 . S
C2335 C2334 1.394 . S
C2335 C2336 1.383 . S
C2335 H2343 0.929 . S
C2336 C2335 1.383 . S
C2336 C2337 1.377 . S
C2337 H2321 0.930 . S
C2337 C2336 1.377 . S
C2337 C2338 1.379 . S
C2338 H2322 0.931 . S
C2338 C2332 1.383 . S
C2338 C2337 1.379 . S
H2339 C2333 0.959 . S
H2340 C2333 0.961 . S
H2341 C2333 0.960 . S
H2342 C2334 0.930 . S
H2343 C2335 0.929 . S
H2344 C2352 0.929 . S
H2345 C2354 0.930 . S
H2346 C2356 0.930 . S
H2347 C2359 0.929 . S
H2348 C2362 0.930 . S
H2349 C2364 0.960 . S
H2350 C2364 0.960 . S
H2351 C2364 0.960 . S
C2352 H2344 0.929 . S
C2352 C2353 1.377 . S
C2352 C2354 1.384 . S
C2353 C2352 1.377 . S
C2353 C2359 1.390 . S
C2354 H2345 0.930 . S
C2354 C2352 1.384 . S
C2354 C2355 1.372 . S
C2355 C2354 1.372 . S
C2355 C2356 1.400 . S
C2355 C2360 1.490 . S
C2356 H2346 0.930 . S
C2356 C2355 1.400 . S
C2356 C2359 1.386 . S
H2357 C2373 0.930 . S
H2358 C2374 0.931 . S
C2359 H2347 0.929 . S
C2359 C2353 1.390 . S
C2359 C2356 1.386 . S
C2360 C2355 1.490 . S
C2360 C2362 1.395 . S
C2360 C2363 1.403 . S
H2361 C2367 0.930 . S
C2362 H2348 0.930 . S
C2362 C2360 1.395 . S
C2362 C2365 1.403 1_554 S
C2363 C2360 1.403 . S
C2363 C2364 1.524 . S
C2363 C2367 1.400 1_554 S
C2364 H2349 0.960 . S
C2364 H2350 0.960 . S
C2364 H2351 0.960 . S
C2364 C2363 1.524 . S
C2365 C2362 1.403 1_556 S
C2365 C2366 1.392 . S
C2365 C2369 1.495 . S
C2366 C2365 1.392 . S
C2366 C2367 1.385 . S
C2366 C2368 1.478 . S
C2367 H2361 0.930 . S
C2367 C2363 1.400 1_556 S
C2367 C2366 1.385 . S
C2368 C2366 1.478 . S
C2368 C2370 1.381 . S
C2368 C2374 1.383 . S
C2369 C2365 1.495 . S
C2369 H2375 0.959 . S
C2369 H2376 0.961 . S
C2369 H2377 0.960 . S
C2370 C2368 1.381 . S
C2370 C2371 1.394 . S
C2370 H2378 0.930 . S
C2371 C2370 1.394 . S
C2371 C2372 1.383 . S
C2371 H2379 0.929 . S
C2372 C2371 1.383 . S
C2372 C2373 1.377 . S
C2373 H2357 0.930 . S
C2373 C2372 1.377 . S
C2373 C2374 1.379 . S
C2374 H2358 0.931 . S
C2374 C2368 1.383 . S
C2374 C2373 1.379 . S
H2375 C2369 0.959 . S
H2376 C2369 0.961 . S
H2377 C2369 0.960 . S
H2378 C2370 0.930 . S
H2379 C2371 0.929 . S
H2380 C2388 0.929 . S
H2381 C2390 0.930 . S
H2382 C2392 0.930 . S
H2383 C2395 0.929 . S
H2384 C2398 0.930 . S
H2385 C2400 0.960 . S
H2386 C2400 0.960 . S
H2387 C2400 0.960 . S
C2388 H2380 0.929 . S
C2388 C2389 1.377 . S
C2388 C2390 1.384 . S
C2389 C2388 1.377 . S
C2389 C2395 1.390 . S
C2390 H2381 0.930 . S
C2390 C2388 1.384 . S
C2390 C2391 1.372 . S
C2391 C2390 1.372 . S
C2391 C2392 1.400 . S
C2391 C2396 1.490 . S
C2392 H2382 0.930 . S
C2392 C2391 1.400 . S
C2392 C2395 1.386 . S
H2393 C2409 0.930 . S
H2394 C2410 0.931 . S
C2395 H2383 0.929 . S
C2395 C2389 1.390 . S
C2395 C2392 1.386 . S
C2396 C2391 1.490 . S
C2396 C2398 1.395 . S
C2396 C2399 1.403 . S
H2397 C2403 0.930 . S
C2398 H2384 0.930 . S
C2398 C2396 1.395 . S
C2398 C2401 1.403 . S
C2399 C2396 1.403 . S
C2399 C2400 1.524 . S
C2399 C2403 1.400 . S
C2400 H2385 0.960 . S
C2400 H2386 0.960 . S
C2400 H2387 0.960 . S
C2400 C2399 1.524 . S
C2401 C2398 1.403 . S
C2401 C2402 1.392 . S
C2401 C2405 1.495 . S
C2402 C2401 1.392 . S
C2402 C2403 1.385 . S
C2402 C2404 1.478 . S
C2403 H2397 0.930 . S
C2403 C2399 1.400 . S
C2403 C2402 1.385 . S
C2404 C2402 1.478 . S
C2404 C2406 1.381 . S
C2404 C2410 1.383 . S
C2405 C2401 1.495 . S
C2405 H2411 0.959 . S
C2405 H2412 0.961 . S
C2405 H2413 0.960 . S
C2406 C2404 1.381 . S
C2406 C2407 1.394 . S
C2406 H2414 0.930 . S
C2407 C2406 1.394 . S
C2407 C2408 1.383 . S
C2407 H2415 0.929 . S
C2408 C2407 1.383 . S
C2408 C2409 1.377 . S
C2409 H2393 0.930 . S
C2409 C2408 1.377 . S
C2409 C2410 1.379 . S
C2410 H2394 0.931 . S
C2410 C2404 1.383 . S
C2410 C2409 1.379 . S
H2411 C2405 0.959 . S
H2412 C2405 0.961 . S
H2413 C2405 0.960 . S
H2414 C2406 0.930 . S
H2415 C2407 0.929 . S
H2416 C2424 0.929 1_565 S
H2417 C2426 0.930 1_565 S
H2418 C2428 0.930 . S
H2419 C2431 0.929 . S
H2420 C2434 0.930 . S
H2421 C2436 0.960 . S
H2422 C2436 0.960 . S
H2423 C2436 0.960 . S
C2424 H2416 0.929 1_545 S
C2424 C2425 1.377 . S
C2424 C2426 1.384 . S
C2425 C2424 1.377 . S
C2425 C2431 1.390 . S
C2426 H2417 0.930 1_545 S
C2426 C2424 1.384 . S
C2426 C2427 1.372 . S
C2427 C2426 1.372 . S
C2427 C2428 1.400 . S
C2427 C2432 1.490 . S
C2428 H2418 0.930 . S
C2428 C2427 1.400 . S
C2428 C2431 1.386 . S
H2429 C2445 0.930 . S
H2430 C2446 0.931 . S
C2431 H2419 0.929 . S
C2431 C2425 1.390 . S
C2431 C2428 1.386 . S
C2432 C2427 1.490 . S
C2432 C2434 1.395 . S
C2432 C2435 1.403 . S
H2433 C2439 0.930 . S
C2434 H2420 0.930 . S
C2434 C2432 1.395 . S
C2434 C2437 1.403 . S
C2435 C2432 1.403 . S
C2435 C2436 1.524 . S
C2435 C2439 1.400 . S
C2436 H2421 0.960 . S
C2436 H2422 0.960 . S
C2436 H2423 0.960 . S
C2436 C2435 1.524 . S
C2437 C2434 1.403 . S
C2437 C2438 1.392 . S
C2437 C2441 1.495 . S
C2438 C2437 1.392 . S
C2438 C2439 1.385 . S
C2438 C2440 1.478 . S
C2439 H2433 0.930 . S
C2439 C2435 1.400 . S
C2439 C2438 1.385 . S
C2440 C2438 1.478 . S
C2440 C2442 1.381 . S
C2440 C2446 1.383 . S
C2441 C2437 1.495 . S
C2441 H2447 0.959 1_545 S
C2441 H2448 0.961 . S
C2441 H2449 0.960 1_545 S
C2442 C2440 1.381 . S
C2442 C2443 1.394 . S
C2442 H2450 0.930 . S
C2443 C2442 1.394 . S
C2443 C2444 1.383 . S
C2443 H2451 0.929 . S
C2444 C2443 1.383 . S
C2444 C2445 1.377 . S
C2445 H2429 0.930 . S
C2445 C2444 1.377 . S
C2445 C2446 1.379 . S
C2446 H2430 0.931 . S
C2446 C2440 1.383 . S
C2446 C2445 1.379 . S
H2447 C2441 0.959 1_565 S
H2448 C2441 0.961 . S
H2449 C2441 0.960 1_565 S
H2450 C2442 0.930 . S
H2451 C2443 0.929 . S
H2452 C2460 0.929 . S
H2453 C2462 0.930 . S
H2454 C2464 0.930 . S
H2455 C2467 0.929 . S
H2456 C2470 0.930 . S
H2457 C2472 0.960 . S
H2458 C2472 0.960 . S
H2459 C2472 0.960 . S
C2460 H2452 0.929 . S
C2460 C2461 1.377 . S
C2460 C2462 1.384 . S
C2461 C2460 1.377 . S
C2461 C2467 1.390 . S
C2462 H2453 0.930 . S
C2462 C2460 1.384 . S
C2462 C2463 1.372 . S
C2463 C2462 1.372 . S
C2463 C2464 1.400 . S
C2463 C2468 1.490 . S
C2464 H2454 0.930 . S
C2464 C2463 1.400 . S
C2464 C2467 1.386 . S
H2465 C2481 0.930 . S
H2466 C2482 0.931 . S
C2467 H2455 0.929 . S
C2467 C2461 1.390 . S
C2467 C2464 1.386 . S
C2468 C2463 1.490 . S
C2468 C2470 1.395 . S
C2468 C2471 1.403 . S
H2469 C2475 0.930 . S
C2470 H2456 0.930 . S
C2470 C2468 1.395 . S
C2470 C2473 1.403 . S
C2471 C2468 1.403 . S
C2471 C2472 1.524 . S
C2471 C2475 1.400 . S
C2472 H2457 0.960 . S
C2472 H2458 0.960 . S
C2472 H2459 0.960 . S
C2472 C2471 1.524 . S
C2473 C2470 1.403 . S
C2473 C2474 1.392 . S
C2473 C2477 1.495 . S
C2474 C2473 1.392 . S
C2474 C2475 1.385 . S
C2474 C2476 1.478 . S
C2475 H2469 0.930 . S
C2475 C2471 1.400 . S
C2475 C2474 1.385 . S
C2476 C2474 1.478 . S
C2476 C2478 1.381 . S
C2476 C2482 1.383 . S
C2477 C2473 1.495 . S
C2477 H2483 0.959 . S
C2477 H2484 0.961 . S
C2477 H2485 0.960 . S
C2478 C2476 1.381 . S
C2478 C2479 1.394 . S
C2478 H2486 0.930 . S
C2479 C2478 1.394 . S
C2479 C2480 1.383 . S
C2479 H2487 0.929 . S
C2480 C2479 1.383 . S
C2480 C2481 1.377 . S
C2481 H2465 0.930 . S
C2481 C2480 1.377 . S
C2481 C2482 1.379 . S
C2482 H2466 0.931 . S
C2482 C2476 1.383 . S
C2482 C2481 1.379 . S
H2483 C2477 0.959 . S
H2484 C2477 0.961 . S
H2485 C2477 0.960 . S
H2486 C2478 0.930 . S
H2487 C2479 0.929 . S
H2488 C2496 0.929 . S
H2489 C2498 0.930 . S
H2490 C2500 0.930 . S
H2491 C2503 0.929 . S
H2492 C2506 0.930 . S
H2493 C2508 0.960 . S
H2494 C2508 0.960 . S
H2495 C2508 0.960 . S
C2496 H2488 0.929 . S
C2496 C2497 1.377 . S
C2496 C2498 1.384 . S
C2497 C2496 1.377 . S
C2497 C2503 1.390 . S
C2498 H2489 0.930 . S
C2498 C2496 1.384 . S
C2498 C2499 1.372 . S
C2499 C2498 1.372 . S
C2499 C2500 1.400 . S
C2499 C2504 1.490 . S
C2500 H2490 0.930 . S
C2500 C2499 1.400 . S
C2500 C2503 1.386 . S
H2501 C2517 0.930 . S
H2502 C2518 0.931 . S
C2503 H2491 0.929 . S
C2503 C2497 1.390 . S
C2503 C2500 1.386 . S
C2504 C2499 1.490 . S
C2504 C2506 1.395 . S
C2504 C2507 1.403 . S
H2505 C2511 0.930 . S
C2506 H2492 0.930 . S
C2506 C2504 1.395 . S
C2506 C2509 1.403 1_554 S
C2507 C2504 1.403 . S
C2507 C2508 1.524 . S
C2507 C2511 1.400 1_554 S
C2508 H2493 0.960 . S
C2508 H2494 0.960 . S
C2508 H2495 0.960 . S
C2508 C2507 1.524 . S
C2509 C2506 1.403 1_556 S
C2509 C2510 1.392 . S
C2509 C2513 1.495 . S
C2510 C2509 1.392 . S
C2510 C2511 1.385 . S
C2510 C2512 1.478 . S
C2511 H2505 0.930 . S
C2511 C2507 1.400 1_556 S
C2511 C2510 1.385 . S
C2512 C2510 1.478 . S
C2512 C2514 1.381 . S
C2512 C2518 1.383 . S
C2513 C2509 1.495 . S
C2513 H2519 0.964 . S
C2513 H2520 0.961 . S
C2513 H2521 0.960 . S
C2514 C2512 1.381 . S
C2514 C2515 1.394 . S
C2514 H2522 0.930 . S
C2515 C2514 1.394 . S
C2515 C2516 1.383 . S
C2515 H2523 0.929 . S
C2516 C2515 1.383 . S
C2516 C2517 1.377 . S
C2517 H2501 0.930 . S
C2517 C2516 1.377 . S
C2517 C2518 1.379 . S
C2518 H2502 0.931 . S
C2518 C2512 1.383 . S
C2518 C2517 1.379 . S
H2519 C2513 0.964 . S
H2520 C2513 0.961 . S
H2521 C2513 0.960 . S
H2522 C2514 0.930 . S
H2523 C2515 0.929 . S
H2524 C2532 0.929 . S
H2525 C2534 0.930 . S
H2526 C2536 0.930 . S
H2527 C2539 0.929 . S
H2528 C2542 0.930 . S
H2529 C2544 0.960 . S
H2530 C2544 0.960 . S
H2531 C2544 0.960 . S
C2532 H2524 0.929 . S
C2532 C2533 1.377 . S
C2532 C2534 1.384 . S
C2533 C2532 1.377 . S
C2533 C2539 1.390 . S
C2534 H2525 0.930 . S
C2534 C2532 1.384 . S
C2534 C2535 1.372 . S
C2535 C2534 1.372 . S
C2535 C2536 1.400 . S
C2535 C2540 1.490 . S
C2536 H2526 0.930 . S
C2536 C2535 1.400 . S
C2536 C2539 1.386 . S
H2537 C2553 0.930 . S
H2538 C2554 0.931 . S
C2539 H2527 0.929 . S
C2539 C2533 1.390 . S
C2539 C2536 1.386 . S
C2540 C2535 1.490 . S
C2540 C2542 1.395 . S
C2540 C2543 1.403 . S
H2541 C2547 0.930 . S
C2542 H2528 0.930 . S
C2542 C2540 1.395 . S
C2542 C2545 1.403 . S
C2543 C2540 1.403 . S
C2543 C2544 1.524 . S
C2543 C2547 1.400 . S
C2544 H2529 0.960 . S
C2544 H2530 0.960 . S
C2544 H2531 0.960 . S
C2544 C2543 1.524 . S
C2545 C2542 1.403 . S
C2545 C2546 1.392 . S
C2545 C2549 1.495 . S
C2546 C2545 1.392 . S
C2546 C2547 1.385 . S
C2546 C2548 1.478 . S
C2547 H2541 0.930 . S
C2547 C2543 1.400 . S
C2547 C2546 1.385 . S
C2548 C2546 1.478 . S
C2548 C2550 1.381 . S
C2548 C2554 1.383 . S
C2549 C2545 1.495 . S
C2549 H2555 0.959 . S
C2549 H2556 0.961 . S
C2549 H2557 0.960 . S
C2550 C2548 1.381 . S
C2550 C2551 1.394 . S
C2550 H2558 0.930 . S
C2551 C2550 1.394 . S
C2551 C2552 1.383 . S
C2551 H2559 0.929 . S
C2552 C2551 1.383 . S
C2552 C2553 1.377 . S
C2553 H2537 0.930 . S
C2553 C2552 1.377 . S
C2553 C2554 1.379 . S
C2554 H2538 0.931 . S
C2554 C2548 1.383 . S
C2554 C2553 1.379 . S
H2555 C2549 0.959 . S
H2556 C2549 0.961 . S
H2557 C2549 0.960 . S
H2558 C2550 0.930 . S
H2559 C2551 0.929 . S
C553 C1 1.526 . S
C572 C241 1.558 . S
C589 C35 1.435 . S
C608 C139 1.483 . S
C625 C71 1.381 . S
C644 C171 1.401 . S
C661 C205 1.525 . S
C680 C105 1.487 . S
C697 C275 1.473 . S
C716 C513 1.481 . S
C733 C307 1.497 . S
C752 C411 1.488 . S
C769 C445 1.444 . S
C788 C343 1.439 . S
C805 C377 1.554 . S
C824 C477 1.548 . S
C841 C391 2.536 1_545 S
C860 C3 2.315 . S
C877 C37 1.845 . S
C896 C448 2.001 . S
C913 C96 1.340 . S
C932 C323 1.343 . S
C949 C130 1.803 . S
C968 C527 1.803 . S
C985 C459 1.922 1_565 S
C1004 C137 1.803 . S
C1021 C176 0.722 . S
C1040 C334 0.675 . S
C1057 C516 1.199 . S
C1076 C207 1.157 . S
C1093 C380 1.763 . S
C1112 C239 1.634 . S
C1129 C273 2.389 . S
C1148 C119 2.584 1_565 S
C1165 C312 1.075 . S
C1184 C198 1.058 . S
C1201 C368 0.661 . S
C1220 C62 0.670 . S
C1237 C255 1.629 . S
C1256 C402 1.626 . S
C1273 C409 1.820 . S
C1292 C187 1.971 1_545 S
C1309 C51 1.265 . S
C1328 C470 1.268 . S
C1345 C244 1.192 . S
C1364 C479 1.202 . S
C1381 C511 1.367 . S
C1400 C108 1.504 . S
C1417 C425 2.287 . S
C1436 C173 2.059 . S
C1453 C278 1.083 . S
C1472 C210 1.098 . S
C1489 C493 1.098 . S
C1508 C266 1.096 . S
C1525 C357 1.673 . S
C1544 C164 1.672 . S
C1561 C289 1.827 . S
C1580 C103 1.741 . S
C1597 C504 0.528 . S
C1616 C6 0.521 . S
C1633 C40 0.388 . S
C1652 C346 0.463 . S
C1669 C414 1.533 . S
C1688 C69 1.429 . S
C1705 C443 2.254 . S
C1724 C153 2.420 . S
C1741 C28 1.100 . S
C1760 C482 1.114 . S
C1777 C538 1.384 . S
C1796 C221 1.364 . S
C1813 C436 1.817 . S
C1832 C85 1.818 . S
C1849 C375 1.657 . S
C1868 C17 1.772 . S
C1885 C232 0.501 . S
C1904 C300 0.482 . S
C1921 C74 1.154 . S
C1940 C309 1.171 . S
C1957 C341 1.510 . S
C1976 C142 1.660 . S
C1993 C219 1.600 . S
C2012 C15 1.602 . S
C2029 C260 1.597 . S
C2048 C49 1.599 . S
C2065 C83 1.425 . S
C2084 C158 1.431 . S
C2101 C192 1.834 . S
C2120 C117 1.732 . S
C2137 C294 1.552 . S
C2156 C491 1.578 . S
C2173 C328 1.568 . S
C2192 C532 1.634 . S
C2209 C430 1.795 . S
C2228 C355 1.788 . S
C2245 C457 1.574 . S
C2264 C389 1.568 . S
C2281 C56 1.486 . S
C2300 C185 1.508 . S
C2317 C90 1.606 . S
C2336 C226 1.539 . S
C2353 C253 1.585 . S
C2372 C124 1.626 . S
C2389 C151 1.966 . S
C2408 C22 2.017 . S
C2425 C321 1.664 . S
C2444 C464 1.652 . S
C2461 C498 1.546 . S
C2480 C362 1.645 . S
C2497 C396 1.574 . S
C2516 C525 1.544 . S
C2533 C423 1.785 . S
C2552 C287 1.833 . S
