# Generated by pormake.
# Topology qtz-g, (3)-cn, num edge types: 1
# Building blocks:
#     Node 0, Type 0, BuildingBlock: OLANEW_clean_sbu_2, # of connection points: 3
#     Node 1, Type 0, BuildingBlock: OLANEW_clean_sbu_2, # of connection points: 3
#     Node 2, Type 0, BuildingBlock: OLANEW_clean_sbu_2, # of connection points: 3
#     Node 3, Type 0, BuildingBlock: OLANEW_clean_sbu_2, # of connection points: 3
#     Node 4, Type 0, BuildingBlock: OLANEW_clean_sbu_2, # of connection points: 3
#     Node 5, Type 0, BuildingBlock: OLANEW_clean_sbu_2, # of connection points: 3
#     Node 6, Type 0, BuildingBlock: OLANEW_clean_sbu_2, # of connection points: 3
#     Node 7, Type 0, BuildingBlock: OLANEW_clean_sbu_2, # of connection points: 3
#     Node 8, Type 0, BuildingBlock: OLANEW_clean_sbu_2, # of connection points: 3
#     Node 9, Type 0, BuildingBlock: OLANEW_clean_sbu_2, # of connection points: 3
#     Node 10, Type 0, BuildingBlock: OLANEW_clean_sbu_2, # of connection points: 3
#     Node 11, Type 0, BuildingBlock: OLANEW_clean_sbu_2, # of connection points: 3
#     Edge 12, Type (0, 0), BuildingBlock: MIFKUJ_clean_linker_0, # of connection points: 2
#     Edge 13, Type (0, 0), BuildingBlock: MIFKUJ_clean_linker_0, # of connection points: 2
#     Edge 14, Type (0, 0), BuildingBlock: MIFKUJ_clean_linker_0, # of connection points: 2
#     Edge 15, Type (0, 0), BuildingBlock: MIFKUJ_clean_linker_0, # of connection points: 2
#     Edge 16, Type (0, 0), BuildingBlock: MIFKUJ_clean_linker_0, # of connection points: 2
#     Edge 17, Type (0, 0), BuildingBlock: MIFKUJ_clean_linker_0, # of connection points: 2
#     Edge 18, Type (0, 0), BuildingBlock: MIFKUJ_clean_linker_0, # of connection points: 2
#     Edge 19, Type (0, 0), BuildingBlock: MIFKUJ_clean_linker_0, # of connection points: 2
#     Edge 20, Type (0, 0), BuildingBlock: MIFKUJ_clean_linker_0, # of connection points: 2
#     Edge 21, Type (0, 0), BuildingBlock: MIFKUJ_clean_linker_0, # of connection points: 2
#     Edge 22, Type (0, 0), BuildingBlock: MIFKUJ_clean_linker_0, # of connection points: 2
#     Edge 23, Type (0, 0), BuildingBlock: MIFKUJ_clean_linker_0, # of connection points: 2
#     Edge 24, Type (0, 0), BuildingBlock: MIFKUJ_clean_linker_0, # of connection points: 2
#     Edge 25, Type (0, 0), BuildingBlock: MIFKUJ_clean_linker_0, # of connection points: 2
#     Edge 26, Type (0, 0), BuildingBlock: MIFKUJ_clean_linker_0, # of connection points: 2
#     Edge 27, Type (0, 0), BuildingBlock: MIFKUJ_clean_linker_0, # of connection points: 2
#     Edge 28, Type (0, 0), BuildingBlock: MIFKUJ_clean_linker_0, # of connection points: 2
#     Edge 29, Type (0, 0), BuildingBlock: MIFKUJ_clean_linker_0, # of connection points: 2
# Relax obj value: 0.011
# Max RMSD: 0.032
# Mean RMSD: 0.032
data_MOF--net-qtz-g--node1-OLANEW_clean_sbu_2--edge1-MIFKUJ_clean_linker_0
_symmetry_space_group_name_H-M    P1
_symmetry_Int_Tables_number       1
_symmetry_cell_setting            triclinic
loop_
_symmetry_equiv_pos_as_xyz
'x, y, z'
_cell_length_a     56.736554
_cell_length_b     56.731769
_cell_length_c     106.39485
_cell_angle_alpha  89.995977
_cell_angle_beta   90.000083
_cell_angle_gamma 119.95658
loop_
_atom_site_label
_atom_site_type_symbol
_atom_site_fract_x
_atom_site_fract_y
_atom_site_fract_z
_atom_type_partial_charge
O0 O 0.99377 0.36169 0.03088 0.0
Cd1 Cd 0.99232 0.31818 0.02827 0.0
O2 O 0.00146 0.36084 0.05098 0.0
Cd3 Cd 0.01061 0.37519 0.07045 0.0
O4 O 0.01498 0.38382 0.09058 0.0
C5 C 0.99893 0.38983 0.09623 0.0
O6 O 0.98007 0.39139 0.08972 0.0
C7 C 0.99773 0.37269 0.04166 0.0
C8 C 0.04134 0.32396 0.01958 0.0
O9 O 0.02308 0.32211 0.0119 0.0
O10 O 0.03648 0.32328 0.03138 0.0
O11 O 0.64744 0.99485 0.37438 0.0
Cd12 Cd 0.69256 0.00025 0.37742 0.0
O13 O 0.65314 0.01225 0.39325 0.0
Cd14 Cd 0.63895 0.02213 0.41048 0.0
O15 O 0.62669 0.02519 0.42954 0.0
C16 C 0.61343 0.00333 0.43579 0.0
O17 O 0.60702 0.98007 0.43038 0.0
C18 C 0.63842 0.00248 0.38351 0.0
C19 C 0.73351 0.04488 0.3647 0.0
O20 O 0.72259 0.02095 0.35994 0.0
O21 O 0.7249 0.04774 0.37541 0.0
O22 O 0.62508 0.62571 0.70407 0.0
Cd23 Cd 0.66959 0.6669 0.70244 0.0
O24 O 0.62527 0.63234 0.72435 0.0
Cd25 Cd 0.61099 0.62212 0.74377 0.0
O26 O 0.6046 0.61847 0.76408 0.0
C27 C 0.6161 0.60841 0.77068 0.0
O28 O 0.63089 0.59969 0.76503 0.0
C29 C 0.61343 0.61811 0.71469 0.0
C30 C 0.66674 0.71093 0.6925 0.0
O31 O 0.66944 0.69429 0.68532 0.0
O32 O 0.66521 0.70663 0.70438 0.0
O33 O 0.01167 0.64278 0.0343 0.0
Cd34 Cd 0.01394 0.68684 0.03287 0.0
O35 O 0.00023 0.64055 0.05405 0.0
Cd36 Cd 0.98787 0.62555 0.07327 0.0
O37 O 0.98285 0.61798 0.09348 0.0
C38 C 0.00086 0.6157 0.09959 0.0
O39 O 0.02172 0.61721 0.09349 0.0
C40 C 0.00541 0.62992 0.04467 0.0
C41 C 0.96525 0.68205 0.02434 0.0
O42 O 0.98395 0.68522 0.01661 0.0
O43 O 0.96956 0.68106 0.0361 0.0
O44 O 0.37414 0.99585 0.36231 0.0
Cd45 Cd 0.33305 0.99922 0.36007 0.0
O46 O 0.36697 0.99115 0.38262 0.0
Cd47 Cd 0.37815 0.98952 0.40215 0.0
O48 O 0.38543 0.99155 0.42238 0.0
C49 C 0.36555 0.98617 0.42962 0.0
O50 O 0.34178 0.97925 0.42461 0.0
C51 C 0.38142 0.9927 0.37318 0.0
C52 C 0.28816 0.95091 0.3519 0.0
O53 O 0.30427 0.96885 0.34403 0.0
O54 O 0.29343 0.95575 0.36365 0.0
O55 O 0.34494 0.36204 0.70179 0.0
Cd56 Cd 0.30333 0.31776 0.70129 0.0
O57 O 0.35303 0.3479 0.71952 0.0
Cd58 Cd 0.37399 0.35414 0.73744 0.0
O59 O 0.38704 0.36332 0.75691 0.0
C60 C 0.3792 0.37747 0.76295 0.0
O61 O 0.36449 0.38606 0.7571 0.0
C62 C 0.3601 0.36651 0.71131 0.0
C63 C 0.31066 0.27705 0.69059 0.0
O64 O 0.30119 0.2895 0.6841 0.0
O65 O 0.31688 0.28401 0.70211 0.0
O66 O 0.63974 0.00098 0.63321 0.0
Cd67 Cd 0.68279 0.00116 0.63478 0.0
O68 O 0.6368 0.98982 0.61331 0.0
Cd69 Cd 0.61928 0.98359 0.59445 0.0
O70 O 0.60783 0.98218 0.57476 0.0
C71 C 0.61018 0.00346 0.56961 0.0
O72 O 0.61881 0.02562 0.5764 0.0
C73 C 0.62696 0.9954 0.62284 0.0
C74 C 0.67623 0.95197 0.64367 0.0
O75 O 0.67958 0.97094 0.65126 0.0
O76 O 0.67584 0.95622 0.63185 0.0
O77 O 0.63732 0.64121 0.97241 0.0
Cd78 Cd 0.67874 0.68513 0.97512 0.0
O79 O 0.64188 0.64667 0.95199 0.0
Cd80 Cd 0.6311 0.63339 0.93248 0.0
O81 O 0.62348 0.62354 0.91252 0.0
C82 C 0.63213 0.64316 0.90477 0.0
O83 O 0.64491 0.66819 0.90911 0.0
C84 C 0.62851 0.63254 0.96141 0.0
C85 C 0.72313 0.68022 0.98276 0.0
O86 O 0.70698 0.68143 0.99082 0.0
O87 O 0.71815 0.68114 0.97107 0.0
O88 O 0.99559 0.62767 0.30093 0.0
Cd89 Cd 0.99322 0.66924 0.30348 0.0
O90 O 0.00466 0.63693 0.28092 0.0
Cd91 Cd 0.01024 0.62794 0.26151 0.0
O92 O 0.01179 0.62201 0.24131 0.0
C93 C 0.99258 0.62031 0.23451 0.0
O94 O 0.97257 0.62186 0.23991 0.0
C95 C 0.00073 0.62132 0.29023 0.0
C96 C 0.0426 0.71333 0.31119 0.0
O97 O 0.02507 0.69734 0.31923 0.0
O98 O 0.03682 0.70837 0.29949 0.0
O99 O 0.36601 0.00391 0.6292 0.0
Cd100 Cd 0.32495 0.00696 0.62614 0.0
O101 O 0.37275 0.01413 0.60921 0.0
Cd102 Cd 0.3924 0.01821 0.59102 0.0
O103 O 0.39886 0.0164 0.5709 0.0
C104 C 0.37763 0.00765 0.56416 0.0
O105 O 0.35432 0.00056 0.5697 0.0
C106 C 0.38048 0.00847 0.61941 0.0
C107 C 0.32664 0.05156 0.638 0.0
O108 O 0.31447 0.02795 0.64312 0.0
O109 O 0.33827 0.05414 0.62736 0.0
O110 O 0.36675 0.36662 0.96263 0.0
Cd111 Cd 0.3241 0.32315 0.9626 0.0
O112 O 0.36433 0.36848 0.94215 0.0
Cd113 Cd 0.37885 0.38449 0.92327 0.0
O114 O 0.38645 0.39474 0.90334 0.0
C115 C 0.40134 0.38828 0.89697 0.0
O116 O 0.41283 0.37601 0.90263 0.0
C117 C 0.37682 0.37902 0.95236 0.0
C118 C 0.28043 0.32712 0.97219 0.0
O119 O 0.29568 0.32242 0.97943 0.0
O120 O 0.28596 0.33013 0.96042 0.0
O121 O 0.00647 0.3592 0.29435 0.0
Cd122 Cd 0.00396 0.31517 0.29201 0.0
O123 O 0.99276 0.3537 0.27479 0.0
Cd124 Cd 0.98537 0.36807 0.25695 0.0
O125 O 0.98488 0.37981 0.23747 0.0
C126 C 0.00469 0.38326 0.23061 0.0
O127 O 0.02415 0.38025 0.23566 0.0
C128 C 0.99998 0.36799 0.28474 0.0
C129 C 0.95956 0.27325 0.30443 0.0
O130 O 0.98308 0.28561 0.30962 0.0
O131 O 0.957 0.28085 0.29342 0.0
H132 H 0.00731 0.60206 0.06566 0.0
H133 H 0.00338 0.55743 0.06638 0.0
H134 H 0.00038 0.55378 0.02586 0.0
H135 H 0.00168 0.59731 0.02516 0.0
H136 H 0.9661 0.50702 0.03408 0.0
H137 H 0.05966 0.56986 0.0443 0.0
H138 H 0.09731 0.60681 0.05618 0.0
H139 H 0.06943 0.55936 0.09 0.0
H140 H 0.03142 0.52223 0.07833 0.0
H141 H 0.0098 0.41101 0.02363 0.0
H142 H 0.00958 0.45388 0.02546 0.0
H143 H 0.98651 0.43669 0.06442 0.0
H144 H 0.9851 0.39307 0.06248 0.0
H145 H 0.03209 0.49218 0.0585 0.0
H146 H 0.9397 0.42798 0.04687 0.0
H147 H 0.90412 0.39146 0.03395 0.0
H148 H 0.93295 0.44284 0.00135 0.0
H149 H 0.96899 0.47955 0.01405 0.0
C150 C 0.00479 0.59146 0.05693 0.0
C151 C 0.00392 0.60307 0.04539 0.0
C152 C 0.00326 0.56609 0.05733 0.0
C153 C 0.00187 0.55223 0.04616 0.0
C154 C 0.00131 0.56393 0.03462 0.0
C155 C 0.00224 0.58898 0.03424 0.0
C156 C 0.00093 0.52554 0.0464 0.0
C157 C 0.98077 0.50398 0.03932 0.0
C158 C 0.01963 0.52118 0.05346 0.0
C159 C 0.04255 0.5434 0.06047 0.0
C160 C 0.06147 0.56739 0.05428 0.0
C161 C 0.08288 0.58834 0.06098 0.0
C162 C 0.08571 0.58547 0.07384 0.0
C163 C 0.06718 0.56158 0.08003 0.0
C164 C 0.04572 0.54056 0.07339 0.0
C165 C 0.00471 0.41634 0.03261 0.0
C166 C 0.99831 0.39895 0.04304 0.0
C167 C 0.00465 0.44084 0.03363 0.0
C168 C 0.99825 0.44847 0.0451 0.0
C169 C 0.99192 0.43129 0.05555 0.0
C170 C 0.99157 0.40655 0.05448 0.0
C171 C 0.99766 0.47418 0.04603 0.0
C172 C 0.01744 0.4954 0.05333 0.0
C173 C 0.97894 0.47841 0.03902 0.0
C174 C 0.9572 0.45642 0.03138 0.0
C175 C 0.93861 0.43141 0.03692 0.0
C176 C 0.91833 0.41069 0.02965 0.0
C177 C 0.91632 0.4148 0.01683 0.0
C178 C 0.93455 0.43967 0.01128 0.0
C179 C 0.95489 0.46045 0.01851 0.0
H180 H 0.9006 0.39874 0.01121 0.0
H181 H 0.10229 0.60172 0.07901 0.0
H182 H 0.62223 0.03701 0.39262 0.0
H183 H 0.57681 0.03171 0.39166 0.0
H184 H 0.54739 0.95555 0.37198 0.0
H185 H 0.59309 0.96118 0.37271 0.0
H186 H 0.52823 0.98252 0.36126 0.0
H187 H 0.53175 0.95892 0.40383 0.0
H188 H 0.54975 0.96356 0.42534 0.0
H189 H 0.54565 0.03645 0.43062 0.0
H190 H 0.52786 0.03241 0.40909 0.0
H191 H 0.39149 0.96182 0.38966 0.0
H192 H 0.43356 0.96012 0.39192 0.0
H193 H 0.47052 0.0198 0.36239 0.0
H194 H 0.42833 0.02109 0.35997 0.0
H195 H 0.48287 0.99503 0.39845 0.0
H196 H 0.51461 0.0099 0.34574 0.0
H197 H 0.49277 0.99867 0.32486 0.0
H198 H 0.42096 0.93177 0.3408 0.0
H199 H 0.44249 0.94236 0.36173 0.0
C200 C 0.60594 0.01892 0.38829 0.0
C201 C 0.61097 0.99922 0.38296 0.0
C202 C 0.57998 0.0159 0.38774 0.0
C203 C 0.55847 0.99293 0.38198 0.0
C204 C 0.5636 0.97338 0.37652 0.0
C205 C 0.58967 0.97659 0.37694 0.0
C206 C 0.53094 0.98993 0.38121 0.0
C207 C 0.5183 0.98516 0.36941 0.0
C208 C 0.5176 0.99274 0.39189 0.0
C209 C 0.52865 0.99546 0.4048 0.0
C210 C 0.5349 0.97607 0.40953 0.0
C211 C 0.54502 0.97857 0.42174 0.0
C212 C 0.54888 0.00031 0.42933 0.0
C213 C 0.54265 0.01962 0.42473 0.0
C214 C 0.5325 0.01721 0.41253 0.0
C215 C 0.40873 0.97482 0.38378 0.0
C216 C 0.40681 0.99183 0.37474 0.0
C217 C 0.4327 0.97373 0.38502 0.0
C218 C 0.45516 0.98962 0.37725 0.0
C219 C 0.45332 0.00691 0.36833 0.0
C220 C 0.42926 0.00773 0.36698 0.0
C221 C 0.48053 0.98823 0.37845 0.0
C222 C 0.49277 0.99223 0.39032 0.0
C223 C 0.4931 0.98382 0.36792 0.0
C224 C 0.4801 0.9771 0.35532 0.0
C225 C 0.49421 0.99273 0.34478 0.0
C226 C 0.48187 0.98648 0.33294 0.0
C227 C 0.45547 0.96457 0.33151 0.0
C228 C 0.44138 0.9488 0.34192 0.0
C229 C 0.45362 0.95493 0.35378 0.0
H230 H 0.44595 0.95979 0.32234 0.0
H231 H 0.5566 0.00214 0.4388 0.0
H232 H 0.40863 0.37724 0.72153 0.0
H233 H 0.4497 0.42157 0.72404 0.0
H234 H 0.40872 0.46043 0.70712 0.0
H235 H 0.36764 0.41602 0.70452 0.0
H236 H 0.45559 0.47928 0.69704 0.0
H237 H 0.4242 0.46574 0.73934 0.0
H238 H 0.40866 0.44378 0.76004 0.0
H239 H 0.48369 0.4437 0.76502 0.0
H240 H 0.4996 0.46536 0.74428 0.0
H241 H 0.57127 0.60669 0.73074 0.0
H242 H 0.52685 0.56504 0.73159 0.0
H243 H 0.55104 0.53111 0.7013 0.0
H244 H 0.59538 0.57268 0.70041 0.0
H245 H 0.5101 0.51287 0.73613 0.0
H246 H 0.49818 0.49428 0.68223 0.0
H247 H 0.51229 0.52098 0.66259 0.0
H248 H 0.519 0.59028 0.68215 0.0
H249 H 0.50458 0.5639 0.70185 0.0
C250 C 0.40819 0.39531 0.71863 0.0
C251 C 0.38481 0.39328 0.71304 0.0
C252 C 0.4317 0.42065 0.72005 0.0
C253 C 0.43222 0.44445 0.71597 0.0
C254 C 0.40881 0.44239 0.71039 0.0
C255 C 0.38538 0.41704 0.70888 0.0
C256 C 0.4577 0.4712 0.71669 0.0
C257 C 0.4674 0.4866 0.70562 0.0
C258 C 0.47299 0.48108 0.72792 0.0
C259 C 0.46301 0.467 0.74018 0.0
C260 C 0.43726 0.46073 0.74477 0.0
C261 C 0.42842 0.44841 0.75653 0.0
C262 C 0.44517 0.44232 0.76383 0.0
C263 C 0.47074 0.44841 0.75935 0.0
C264 C 0.47969 0.46074 0.7476 0.0
C265 C 0.56733 0.59012 0.72447 0.0
C266 C 0.58691 0.59276 0.71563 0.0
C267 C 0.54186 0.56642 0.72489 0.0
C268 C 0.53552 0.54505 0.71644 0.0
C269 C 0.5553 0.5475 0.70778 0.0
C270 C 0.58064 0.57122 0.7073 0.0
C271 C 0.50808 0.52042 0.71644 0.0
C272 C 0.49811 0.50546 0.7276 0.0
C273 C 0.49215 0.51121 0.70538 0.0
C274 C 0.50053 0.52716 0.69353 0.0
C275 C 0.50255 0.51517 0.68232 0.0
C276 C 0.51063 0.53026 0.67118 0.0
C277 C 0.51662 0.55733 0.67113 0.0
C278 C 0.51445 0.56935 0.68221 0.0
C279 C 0.50636 0.55434 0.69337 0.0
H280 H 0.52288 0.56898 0.6625 0.0
H281 H 0.43843 0.43304 0.77298 0.0
H282 H 0.61464 0.03038 0.63457 0.0
H283 H 0.57201 0.03124 0.63352 0.0
H284 H 0.53858 0.96214 0.60848 0.0
H285 H 0.58144 0.96163 0.60934 0.0
H286 H 0.52399 0.99638 0.6007 0.0
H287 H 0.52169 0.95554 0.64017 0.0
H288 H 0.5386 0.9514 0.66093 0.0
H289 H 0.54071 0.02453 0.67322 0.0
H290 H 0.52415 0.02931 0.65246 0.0
H291 H 0.38869 0.97218 0.63268 0.0
H292 H 0.42942 0.96762 0.63274 0.0
H293 H 0.46933 0.03647 0.6077 0.0
H294 H 0.42837 0.04043 0.60733 0.0
H295 H 0.47825 0.99768 0.64024 0.0
H296 H 0.51385 0.03126 0.58879 0.0
H297 H 0.49349 0.03002 0.56813 0.0
H298 H 0.41845 0.96052 0.57974 0.0
H299 H 0.43848 0.96105 0.60038 0.0
C300 C 0.5982 0.01547 0.62881 0.0
C301 C 0.6014 0.99616 0.62191 0.0
C302 C 0.57382 0.01589 0.62825 0.0
C303 C 0.55193 0.99653 0.62104 0.0
C304 C 0.55521 0.97736 0.61405 0.0
C305 C 0.57975 0.97717 0.61449 0.0
C306 C 0.52553 0.99611 0.62094 0.0
C307 C 0.51396 0.99662 0.60934 0.0
C308 C 0.51204 0.99574 0.6322 0.0
C309 C 0.5219 0.9929 0.64472 0.0
C310 C 0.52594 0.97084 0.64727 0.0
C311 C 0.53543 0.96836 0.65904 0.0
C312 C 0.54078 0.98772 0.66838 0.0
C313 C 0.53658 0.00956 0.66597 0.0
C314 C 0.52711 0.01215 0.65421 0.0
C315 C 0.40617 0.98622 0.62716 0.0
C316 C 0.40527 0.00627 0.61978 0.0
C317 C 0.42942 0.98365 0.62721 0.0
C318 C 0.45229 0.00134 0.62002 0.0
C319 C 0.45168 0.02202 0.61301 0.0
C320 C 0.42828 0.02427 0.61279 0.0
C321 C 0.47692 0.99845 0.62001 0.0
C322 C 0.48819 0.99734 0.63158 0.0
C323 C 0.48962 0.99738 0.60872 0.0
C324 C 0.47762 0.99638 0.59618 0.0
C325 C 0.49307 0.01561 0.5869 0.0
C326 C 0.48157 0.01504 0.5752 0.0
C327 C 0.45467 0.99526 0.57264 0.0
C328 C 0.43926 0.97589 0.58175 0.0
C329 C 0.45067 0.97632 0.59345 0.0
H330 H 0.44578 0.99491 0.56359 0.0
H331 H 0.54814 0.98578 0.67749 0.0
H332 H 0.41896 0.39393 0.96851 0.0
H333 H 0.46187 0.4371 0.96922 0.0
H334 H 0.43631 0.46612 0.93746 0.0
H335 H 0.39326 0.42297 0.93677 0.0
H336 H 0.48906 0.47952 0.93521 0.0
H337 H 0.43318 0.48697 0.96683 0.0
H338 H 0.40317 0.47277 0.98539 0.0
H339 H 0.46684 0.47477 0.00799 0.0
H340 H 0.49714 0.48863 0.98951 0.0
H341 H 0.5891 0.61929 0.94364 0.0
H342 H 0.54666 0.57609 0.94125 0.0
H343 H 0.56757 0.54391 0.97343 0.0
H344 H 0.61004 0.58721 0.97587 0.0
H345 H 0.51649 0.5327 0.97484 0.0
H346 H 0.57232 0.52509 0.94273 0.0
H347 H 0.60205 0.54026 0.92406 0.0
H348 H 0.53815 0.53974 0.90222 0.0
H349 H 0.50813 0.52488 0.92082 0.0
C350 C 0.42254 0.40949 0.96166 0.0
C351 C 0.40297 0.40491 0.95245 0.0
C352 C 0.44703 0.43415 0.96208 0.0
C353 C 0.45222 0.45492 0.95345 0.0
C354 C 0.43281 0.4503 0.94415 0.0
C355 C 0.40832 0.42554 0.9437 0.0
C356 C 0.47767 0.48159 0.95432 0.0
C357 C 0.49492 0.49134 0.94382 0.0
C358 C 0.48547 0.49682 0.96561 0.0
C359 C 0.46734 0.48859 0.97676 0.0
C360 C 0.44072 0.48418 0.97573 0.0
C361 C 0.42367 0.47623 0.98625 0.0
C362 C 0.43307 0.47281 0.99786 0.0
C363 C 0.45958 0.4774 0.99899 0.0
C364 C 0.47671 0.48533 0.9885 0.0
C365 C 0.58496 0.60278 0.95 0.0
C366 C 0.60316 0.60632 0.95974 0.0
C367 C 0.56061 0.57815 0.94868 0.0
C368 C 0.55413 0.55657 0.95703 0.0
C369 C 0.5722 0.56023 0.96685 0.0
C370 C 0.59644 0.58492 0.96822 0.0
C371 C 0.52814 0.53048 0.9558 0.0
C372 C 0.51069 0.52088 0.96623 0.0
C373 C 0.52015 0.51551 0.94443 0.0
C374 C 0.53806 0.5241 0.9332 0.0
C375 C 0.56466 0.52837 0.93397 0.0
C376 C 0.58156 0.53689 0.9234 0.0
C377 C 0.57201 0.54101 0.91197 0.0
C378 C 0.54552 0.53656 0.91108 0.0
C379 C 0.52854 0.52805 0.92163 0.0
H380 H 0.58511 0.54757 0.9038 0.0
H381 H 0.41984 0.46665 0.00599 0.0
H382 H 0.96949 0.57352 0.30238 0.0
H383 H 0.97145 0.53157 0.30065 0.0
H384 H 0.03637 0.56997 0.27352 0.0
H385 H 0.03408 0.61185 0.27507 0.0
H386 H 0.0032 0.5199 0.26648 0.0
H387 H 0.04918 0.56192 0.3045 0.0
H388 H 0.05567 0.58377 0.32523 0.0
H389 H 0.9873 0.51128 0.33983 0.0
H390 H 0.98017 0.48911 0.31913 0.0
H391 H 0.03793 0.41397 0.29654 0.0
H392 H 0.04119 0.45871 0.29659 0.0
H393 H 0.96795 0.42632 0.27431 0.0
H394 H 0.96512 0.38191 0.27399 0.0
H395 H 0.01112 0.47641 0.3055 0.0
H396 H 0.96838 0.4741 0.25544 0.0
H397 H 0.96738 0.4545 0.23461 0.0
H398 H 0.04007 0.45242 0.24361 0.0
H399 H 0.04182 0.47246 0.2644 0.0
C400 C 0.98407 0.57293 0.296 0.0
C401 C 0.00141 0.5958 0.28875 0.0
C402 C 0.98526 0.54901 0.29505 0.0
C403 C 0.00432 0.5477 0.28708 0.0
C404 C 0.02142 0.57044 0.27969 0.0
C405 C 0.01999 0.5943 0.28053 0.0
C406 C 0.00665 0.52276 0.28666 0.0
C407 C 0.00499 0.51041 0.275 0.0
C408 C 0.00975 0.51074 0.29775 0.0
C409 C 0.01402 0.52394 0.31023 0.0
C410 C 0.03542 0.5507 0.31211 0.0
C411 C 0.03923 0.56313 0.32386 0.0
C412 C 0.02187 0.54894 0.33383 0.0
C413 C 0.00071 0.52225 0.33209 0.0
C414 C 0.9968 0.50974 0.32035 0.0
C415 C 0.02264 0.41653 0.29162 0.0
C416 C 0.00163 0.39474 0.28502 0.0
C417 C 0.02449 0.44204 0.29165 0.0
C418 C 0.00513 0.44608 0.28524 0.0
C419 C 0.98362 0.424 0.27899 0.0
C420 C 0.98202 0.39863 0.2788 0.0
C421 C 0.007 0.47315 0.28534 0.0
C422 C 0.00946 0.48592 0.29695 0.0
C423 C 0.00552 0.48596 0.27417 0.0
C424 C 0.00507 0.47458 0.26153 0.0
C425 C 0.98426 0.46964 0.25295 0.0
C426 C 0.98355 0.45842 0.24115 0.0
C427 C 0.00362 0.45217 0.2378 0.0
C428 C 0.02451 0.45722 0.24623 0.0
C429 C 0.02536 0.4685 0.25802 0.0
H430 H 0.00302 0.44347 0.22867 0.0
H431 H 0.02486 0.5586 0.34292 0.0
H432 H 0.04083 0.38544 0.21311 0.0
H433 H 0.04 0.39164 0.19049 0.0
H434 H 0.969 0.40025 0.19457 0.0
H435 H 0.96928 0.39333 0.21728 0.0
H436 H 0.96204 0.36666 0.17599 0.0
H437 H 0.0323 0.4554 0.18759 0.0
H438 H 0.07458 0.48943 0.19798 0.0
H439 H 0.12037 0.46204 0.17646 0.0
H440 H 0.0783 0.42757 0.16606 0.0
H441 H 0.96655 0.40089 0.11131 0.0
H442 H 0.96794 0.40476 0.13423 0.0
H443 H 0.03606 0.39089 0.13531 0.0
H444 H 0.03505 0.38731 0.11242 0.0
H445 H 0.04313 0.43116 0.15135 0.0
H446 H 0.97204 0.33969 0.14148 0.0
H447 H 0.92963 0.30531 0.13129 0.0
H448 H 0.88537 0.33849 0.14977 0.0
H449 H 0.92761 0.3733 0.15996 0.0
C450 C 0.02515 0.38888 0.20923 0.0
C451 C 0.00509 0.38885 0.217 0.0
C452 C 0.0248 0.39259 0.19628 0.0
C453 C 0.00465 0.39677 0.19083 0.0
C454 C 0.98478 0.39711 0.19858 0.0
C455 C 0.98499 0.3932 0.21155 0.0
C456 C 0.00361 0.39933 0.17697 0.0
C457 C 0.97961 0.38117 0.17063 0.0
C458 C 0.02669 0.4179 0.16994 0.0
C459 C 0.05209 0.43876 0.1761 0.0
C460 C 0.05135 0.45651 0.18513 0.0
C461 C 0.07529 0.4759 0.19101 0.0
C462 C 0.10014 0.47787 0.1879 0.0
C463 C 0.1011 0.46049 0.17886 0.0
C464 C 0.07722 0.44104 0.17296 0.0
C465 C 0.98194 0.39882 0.11641 0.0
C466 C 0.00058 0.39361 0.11004 0.0
C467 C 0.98264 0.40097 0.12952 0.0
C468 C 0.0019 0.3978 0.13648 0.0
C469 C 0.02101 0.39338 0.13012 0.0
C470 C 0.02034 0.39125 0.11703 0.0
C471 C 0.00172 0.39825 0.15042 0.0
C472 C 0.02549 0.41695 0.15676 0.0
C473 C 0.97842 0.38023 0.15746 0.0
C474 C 0.95303 0.35928 0.15136 0.0
C475 C 0.9533 0.33979 0.14329 0.0
C476 C 0.92929 0.3202 0.13753 0.0
C477 C 0.90483 0.31977 0.13985 0.0
C478 C 0.90433 0.33888 0.14797 0.0
C479 C 0.92829 0.35853 0.15374 0.0
H480 H 0.88626 0.30459 0.13538 0.0
H481 H 0.11864 0.49289 0.19246 0.0
H482 H 0.58928 0.9607 0.45218 0.0
H483 H 0.58325 0.96258 0.47478 0.0
H484 H 0.61717 0.04954 0.4725 0.0
H485 H 0.62379 0.04789 0.44987 0.0
H486 H 0.64092 0.03734 0.49054 0.0
H487 H 0.54925 0.00654 0.47883 0.0
H488 H 0.5054 0.97776 0.46821 0.0
H489 H 0.49524 0.90798 0.48861 0.0
H490 H 0.53927 0.93625 0.49921 0.0
H491 H 0.61784 0.04683 0.55533 0.0
H492 H 0.61305 0.04823 0.53255 0.0
H493 H 0.58665 0.96268 0.53021 0.0
H494 H 0.59122 0.96102 0.553 0.0
H495 H 0.55696 0.97745 0.51459 0.0
H496 H 0.6513 0.00816 0.52426 0.0
H497 H 0.69526 0.03729 0.53476 0.0
H498 H 0.69969 0.10817 0.5179 0.0
H499 H 0.65555 0.07946 0.50743 0.0
C500 C 0.59518 0.9802 0.45645 0.0
C501 C 0.60725 0.00418 0.44924 0.0
C502 C 0.59155 0.98123 0.46938 0.0
C503 C 0.59959 0.00619 0.47534 0.0
C504 C 0.61084 0.03006 0.4681 0.0
C505 C 0.61459 0.02907 0.45517 0.0
C506 C 0.59827 0.00757 0.48924 0.0
C507 C 0.62239 0.02466 0.49577 0.0
C508 C 0.57423 0.99062 0.4961 0.0
C509 C 0.5477 0.97351 0.48975 0.0
C510 C 0.53779 0.98501 0.48098 0.0
C511 C 0.51287 0.96879 0.47497 0.0
C512 C 0.49756 0.94105 0.47772 0.0
C513 C 0.50713 0.92947 0.48649 0.0
C514 C 0.53205 0.9456 0.49251 0.0
C515 C 0.61076 0.02824 0.55 0.0
C516 C 0.60517 0.00386 0.55597 0.0
C517 C 0.60807 0.0291 0.53698 0.0
C518 C 0.59978 0.00562 0.52969 0.0
C519 C 0.59309 0.98102 0.53567 0.0
C520 C 0.59584 0.98015 0.54869 0.0
C521 C 0.59962 0.00699 0.51578 0.0
C522 C 0.57531 0.99038 0.50929 0.0
C523 C 0.62343 0.02445 0.50893 0.0
C524 C 0.64999 0.0417 0.51519 0.0
C525 C 0.66155 0.02998 0.52288 0.0
C526 C 0.68651 0.04641 0.52881 0.0
C527 C 0.70022 0.07457 0.52703 0.0
C528 C 0.68903 0.08636 0.51929 0.0
C529 C 0.66404 0.07002 0.51335 0.0
H530 H 0.71955 0.08726 0.53162 0.0
H531 H 0.47827 0.92853 0.47307 0.0
H532 H 0.58801 0.62572 0.78534 0.0
H533 H 0.58851 0.62902 0.80826 0.0
H534 H 0.64075 0.59417 0.81041 0.0
H535 H 0.64061 0.59102 0.7875 0.0
H536 H 0.57378 0.59253 0.82753 0.0
H537 H 0.68766 0.62765 0.83347 0.0
H538 H 0.73039 0.65116 0.82134 0.0
H539 H 0.69834 0.69282 0.7998 0.0
H540 H 0.65559 0.66984 0.8119 0.0
H541 H 0.60667 0.59402 0.89259 0.0
H542 H 0.60181 0.58598 0.86989 0.0
H543 H 0.64423 0.67259 0.86331 0.0
H544 H 0.64948 0.68079 0.88593 0.0
H545 H 0.66323 0.64821 0.84836 0.0
H546 H 0.57536 0.63451 0.86006 0.0
H547 H 0.53253 0.61388 0.87213 0.0
H548 H 0.51202 0.53485 0.85821 0.0
H549 H 0.55493 0.55498 0.84619 0.0
C550 C 0.59945 0.61856 0.79068 0.0
C551 C 0.61449 0.60835 0.78458 0.0
C552 C 0.59961 0.62036 0.80379 0.0
C553 C 0.61491 0.61213 0.81102 0.0
C554 C 0.62909 0.60096 0.80499 0.0
C555 C 0.62894 0.59914 0.79189 0.0
C556 C 0.61712 0.61651 0.82481 0.0
C557 C 0.59333 0.6046 0.83211 0.0
C558 C 0.6426 0.63258 0.83074 0.0
C559 C 0.66834 0.64679 0.8235 0.0
C560 C 0.68979 0.64189 0.82617 0.0
C561 C 0.714 0.65512 0.8193 0.0
C562 C 0.71704 0.6734 0.80978 0.0
C563 C 0.69592 0.67858 0.80714 0.0
C564 C 0.67168 0.66543 0.81399 0.0
C565 C 0.61491 0.61135 0.88631 0.0
C566 C 0.62848 0.63805 0.89107 0.0
C567 C 0.61203 0.60672 0.87334 0.0
C568 C 0.62252 0.6287 0.86491 0.0
C569 C 0.63603 0.65533 0.86965 0.0
C570 C 0.63893 0.65998 0.88259 0.0
C571 C 0.61991 0.6241 0.85113 0.0
C572 C 0.64367 0.63595 0.84382 0.0
C573 C 0.59437 0.60833 0.84519 0.0
C574 C 0.56847 0.59622 0.85233 0.0
C575 C 0.56181 0.61271 0.85965 0.0
C576 C 0.5375 0.60111 0.86647 0.0
C577 C 0.5196 0.57306 0.86597 0.0
C578 C 0.52592 0.55656 0.85861 0.0
C579 C 0.55022 0.56806 0.85178 0.0
H580 H 0.5008 0.56411 0.87125 0.0
H581 H 0.73579 0.6836 0.80446 0.0
H582 H 0.03091 0.61664 0.22031 0.0
H583 H 0.03207 0.61315 0.19743 0.0
H584 H 0.95683 0.61435 0.19457 0.0
H585 H 0.95529 0.61743 0.21742 0.0
H586 H 0.9566 0.57665 0.1792 0.0
H587 H 0.01759 0.67113 0.18843 0.0
H588 H 0.05654 0.7099 0.19878 0.0
H589 H 0.11091 0.68622 0.18256 0.0
H590 H 0.07221 0.64707 0.17224 0.0
H591 H 0.96118 0.61324 0.11508 0.0
H592 H 0.9597 0.61103 0.13801 0.0
H593 H 0.03499 0.60957 0.13845 0.0
H594 H 0.03683 0.61213 0.11549 0.0
H595 H 0.03603 0.64572 0.15507 0.0
H596 H 0.97485 0.55233 0.14491 0.0
H597 H 0.93569 0.51402 0.13444 0.0
H598 H 0.88146 0.53594 0.15228 0.0
H599 H 0.92034 0.57463 0.16273 0.0
C600 C 0.01456 0.61608 0.21482 0.0
C601 C 0.99307 0.61745 0.22069 0.0
C602 C 0.01531 0.61418 0.20174 0.0
C603 C 0.9947 0.61381 0.19428 0.0
C604 C 0.97296 0.61462 0.20014 0.0
C605 C 0.97216 0.61648 0.21321 0.0
C606 C 0.9959 0.61292 0.18037 0.0
C607 C 0.97384 0.5919 0.17391 0.0
C608 C 0.01867 0.63247 0.17349 0.0
C609 C 0.04197 0.65601 0.17967 0.0
C610 C 0.03782 0.67406 0.18715 0.0
C611 C 0.05986 0.69613 0.193 0.0
C612 C 0.08617 0.70047 0.19136 0.0
C613 C 0.09051 0.6828 0.18384 0.0
C614 C 0.06854 0.66068 0.17798 0.0
C615 C 0.97735 0.61226 0.12003 0.0
C616 C 0.99914 0.61288 0.11345 0.0
C617 C 0.9764 0.61088 0.13315 0.0
C618 C 0.99711 0.60989 0.13994 0.0
C619 C 0.01878 0.61029 0.13339 0.0
C620 C 0.01975 0.61168 0.12027 0.0
C621 C 0.99667 0.60951 0.15389 0.0
C622 C 0.01887 0.63034 0.16036 0.0
C623 C 0.97399 0.58982 0.16076 0.0
C624 C 0.95055 0.56653 0.15452 0.0
C625 C 0.9546 0.54911 0.14652 0.0
C626 C 0.93244 0.5273 0.1406 0.0
C627 C 0.90611 0.52258 0.14267 0.0
C628 C 0.90187 0.53963 0.15068 0.0
C629 C 0.92396 0.56149 0.15661 0.0
H630 H 0.88899 0.50568 0.13807 0.0
H631 H 0.10321 0.71757 0.19589 0.0
H632 H 0.32714 0.97662 0.4474 0.0
H633 H 0.3332 0.98192 0.47011 0.0
H634 H 0.41807 0.00663 0.46594 0.0
H635 H 0.41212 0.00104 0.44312 0.0
H636 H 0.39504 0.97151 0.48547 0.0
H637 H 0.40029 0.05385 0.47157 0.0
H638 H 0.386 0.08247 0.46017 0.0
H639 H 0.31197 0.04775 0.48156 0.0
H640 H 0.32563 0.01862 0.49297 0.0
H641 H 0.42197 0.0189 0.54956 0.0
H642 H 0.42364 0.01663 0.52659 0.0
H643 H 0.338 0.99006 0.52462 0.0
H644 H 0.33619 0.99247 0.54744 0.0
H645 H 0.36702 0.03019 0.50796 0.0
H646 H 0.36122 0.94568 0.52086 0.0
H647 H 0.37623 0.91757 0.5322 0.0
H648 H 0.45266 0.95757 0.51268 0.0
H649 H 0.43825 0.98622 0.50135 0.0
C650 C 0.34711 0.98312 0.45128 0.0
C651 C 0.36918 0.98857 0.44343 0.0
C652 C 0.35056 0.98625 0.46428 0.0
C653 C 0.37618 0.99508 0.4697 0.0
C654 C 0.39815 0.99991 0.46194 0.0
C655 C 0.39472 0.99677 0.4489 0.0
C656 C 0.37985 0.99935 0.48348 0.0
C657 C 0.38936 0.9847 0.49039 0.0
C658 C 0.3722 0.01636 0.48988 0.0
C659 C 0.3639 0.03389 0.48306 0.0
C660 C 0.38086 0.05216 0.47378 0.0
C661 C 0.37289 0.0685 0.46733 0.0
C662 C 0.34806 0.06689 0.47012 0.0
C663 C 0.33118 0.04896 0.4794 0.0
C664 C 0.33905 0.03255 0.48587 0.0
C665 C 0.4035 0.01253 0.54423 0.0
C666 C 0.37894 0.00589 0.55033 0.0
C667 C 0.40447 0.01115 0.53111 0.0
C668 C 0.38091 0.00305 0.52391 0.0
C669 C 0.35644 0.99642 0.52999 0.0
C670 C 0.35543 0.99773 0.54306 0.0
C671 C 0.38153 0.00182 0.51 0.0
C672 C 0.37292 0.01717 0.50305 0.0
C673 C 0.39014 0.98557 0.50358 0.0
C674 C 0.39879 0.96833 0.51038 0.0
C675 C 0.38133 0.94866 0.51907 0.0
C676 C 0.38971 0.93259 0.52548 0.0
C677 C 0.41542 0.93585 0.5232 0.0
C678 C 0.43278 0.95512 0.51446 0.0
C679 C 0.42451 0.97127 0.50805 0.0
H680 H 0.42186 0.92338 0.52816 0.0
H681 H 0.34193 0.07956 0.46511 0.0
H682 H 0.38027 0.41311 0.88246 0.0
H683 H 0.38076 0.4163 0.85956 0.0
H684 H 0.42797 0.37594 0.85732 0.0
H685 H 0.42793 0.37299 0.88027 0.0
H686 H 0.44482 0.417 0.83997 0.0
H687 H 0.36054 0.33993 0.85337 0.0
H688 H 0.31791 0.31618 0.86552 0.0
H689 H 0.29008 0.36681 0.8488 0.0
H690 H 0.33273 0.39113 0.83667 0.0
H691 H 0.4094 0.36313 0.77781 0.0
H692 H 0.41704 0.37011 0.80046 0.0
H693 H 0.37047 0.41127 0.80135 0.0
H694 H 0.36263 0.40431 0.77873 0.0
H695 H 0.3543 0.37194 0.81931 0.0
H696 H 0.43777 0.44654 0.8044 0.0
H697 H 0.47964 0.4682 0.79167 0.0
H698 H 0.50887 0.4211 0.81075 0.0
H699 H 0.46689 0.3987 0.82343 0.0
C700 C 0.39101 0.40515 0.87712 0.0
C701 C 0.40379 0.3925 0.88319 0.0
C702 C 0.39124 0.40697 0.86403 0.0
C703 C 0.40405 0.39598 0.85674 0.0
C704 C 0.41792 0.38449 0.86277 0.0
C705 C 0.41777 0.38272 0.87589 0.0
C706 C 0.40144 0.3949 0.84286 0.0
C707 C 0.42506 0.40697 0.83543 0.0
C708 C 0.37563 0.38216 0.83696 0.0
C709 C 0.34994 0.36754 0.84422 0.0
C710 C 0.34542 0.34614 0.85236 0.0
C711 C 0.32124 0.33255 0.85923 0.0
C712 C 0.30133 0.34003 0.85796 0.0
C713 C 0.30554 0.36107 0.84979 0.0
C714 C 0.3297 0.37475 0.84291 0.0
C715 C 0.40092 0.37382 0.78281 0.0
C716 C 0.38524 0.383 0.77649 0.0
C717 C 0.40542 0.37791 0.79574 0.0
C718 C 0.3944 0.3913 0.80256 0.0
C719 C 0.37912 0.40086 0.79625 0.0
C720 C 0.37469 0.39688 0.78332 0.0
C721 C 0.39764 0.39411 0.81639 0.0
C722 C 0.37409 0.38223 0.82382 0.0
C723 C 0.4235 0.4069 0.82224 0.0
C724 C 0.44904 0.42075 0.81481 0.0
C725 C 0.45303 0.44064 0.80583 0.0
C726 C 0.47679 0.45307 0.79862 0.0
C727 C 0.49688 0.446 0.80038 0.0
C728 C 0.49327 0.42654 0.80939 0.0
C729 C 0.46949 0.41397 0.8166 0.0
H730 H 0.51526 0.45563 0.79479 0.0
H731 H 0.28262 0.32948 0.86328 0.0
H732 H 0.2651 0.32417 0.99677 0.0
H733 H 0.22555 0.3254 0.00505 0.0
H734 H 0.20264 0.33408 0.9674 0.0
H735 H 0.24247 0.33341 0.95907 0.0
H736 H 0.19673 0.36734 0.98311 0.0
H737 H 0.17032 0.27273 0.98279 0.0
H738 H 0.17462 0.23252 0.9876 0.0
H739 H 0.17281 0.24686 0.02712 0.0
H740 H 0.16887 0.28739 0.02255 0.0
H741 H 0.0587 0.32885 0.99524 0.0
H742 H 0.10054 0.33139 0.9876 0.0
H743 H 0.12397 0.32692 0.0257 0.0
H744 H 0.08207 0.32422 0.03344 0.0
H745 H 0.13006 0.29222 0.01011 0.0
H746 H 0.15503 0.38644 0.01014 0.0
H747 H 0.14997 0.42607 0.00501 0.0
H748 H 0.15354 0.41171 0.96561 0.0
H749 H 0.15824 0.37174 0.97051 0.0
C750 C 0.25169 0.3264 0.99025 0.0
C751 C 0.25686 0.32855 0.97725 0.0
C752 C 0.22902 0.32699 0.99499 0.0
C753 C 0.2109 0.32944 0.98683 0.0
C754 C 0.21631 0.33212 0.97387 0.0
C755 C 0.23905 0.33166 0.96912 0.0
C756 C 0.18622 0.329 0.99178 0.0
C757 C 0.18198 0.35075 0.98889 0.0
C758 C 0.16725 0.30764 0.99954 0.0
C759 C 0.16959 0.28326 0.00232 0.0
C760 C 0.17106 0.26743 0.99251 0.0
C761 C 0.17339 0.24456 0.99519 0.0
C762 C 0.17407 0.23718 0.00766 0.0
C763 C 0.17233 0.25262 0.01747 0.0
C764 C 0.17003 0.27554 0.01484 0.0
C765 C 0.07279 0.32852 0.00201 0.0
C766 C 0.06706 0.32635 0.01495 0.0
C767 C 0.09676 0.33009 0.99762 0.0
C768 C 0.11547 0.32957 0.00609 0.0
C769 C 0.10981 0.32739 0.01901 0.0
C770 C 0.0859 0.32593 0.02341 0.0
C771 C 0.14058 0.33053 0.00143 0.0
C772 C 0.14486 0.30885 0.00437 0.0
C773 C 0.15949 0.35188 0.99367 0.0
C774 C 0.15672 0.37594 0.99069 0.0
C775 C 0.15451 0.39159 0.00038 0.0
C776 C 0.15175 0.41414 0.99751 0.0
C777 C 0.15136 0.42136 0.98499 0.0
C778 C 0.15381 0.40608 0.97531 0.0
C779 C 0.15654 0.38349 0.97812 0.0
H780 H 0.14923 0.43883 0.98279 0.0
H781 H 0.17586 0.21946 0.00972 0.0
H782 H 0.96064 0.24355 0.32437 0.0
H783 H 0.92209 0.20459 0.33436 0.0
H784 H 0.86699 0.21348 0.30942 0.0
H785 H 0.9056 0.25167 0.29904 0.0
H786 H 0.88126 0.19741 0.34718 0.0
H787 H 0.81146 0.15339 0.30341 0.0
H788 H 0.81569 0.15084 0.28043 0.0
H789 H 0.89478 0.15943 0.28511 0.0
H790 H 0.89088 0.16168 0.30811 0.0
H791 H 0.75096 0.09875 0.36841 0.0
H792 H 0.78864 0.13768 0.35794 0.0
H793 H 0.80501 0.08313 0.33624 0.0
H794 H 0.76649 0.04416 0.34624 0.0
H795 H 0.81111 0.12123 0.32185 0.0
H796 H 0.84381 0.11956 0.36303 0.0
H797 H 0.84346 0.11873 0.38621 0.0
H798 H 0.84555 0.19542 0.38703 0.0
H799 H 0.84556 0.19654 0.36385 0.0
C800 C 0.9403 0.23718 0.32102 0.0
C801 C 0.93614 0.25051 0.31086 0.0
C802 C 0.91826 0.21493 0.32675 0.0
C803 C 0.8916 0.20576 0.32254 0.0
C804 C 0.88738 0.21967 0.31265 0.0
C805 C 0.90945 0.2416 0.30676 0.0
C806 C 0.8683 0.18164 0.32848 0.0
C807 C 0.86593 0.18076 0.34163 0.0
C808 C 0.84853 0.15957 0.32129 0.0
C809 C 0.85097 0.15799 0.30747 0.0
C810 C 0.82971 0.15464 0.29953 0.0
C811 C 0.83206 0.15327 0.2865 0.0
C812 C 0.85553 0.15507 0.28131 0.0
C813 C 0.87666 0.15815 0.28914 0.0
C814 C 0.8744 0.15951 0.30217 0.0
C815 C 0.76255 0.09509 0.36137 0.0
C816 C 0.75587 0.06843 0.35818 0.0
C817 C 0.7842 0.11736 0.35544 0.0
C818 C 0.80009 0.11343 0.34646 0.0
C819 C 0.79312 0.08675 0.34313 0.0
C820 C 0.77113 0.06448 0.34887 0.0
C821 C 0.824 0.13703 0.34055 0.0
C822 C 0.82643 0.13787 0.3274 0.0
C823 C 0.84438 0.15857 0.34777 0.0
C824 C 0.84442 0.158 0.36171 0.0
C825 C 0.84401 0.13615 0.36816 0.0
C826 C 0.8439 0.13564 0.3813 0.0
C827 C 0.84441 0.15697 0.38809 0.0
C828 C 0.84511 0.17889 0.38176 0.0
C829 C 0.84519 0.17949 0.36862 0.0
H830 H 0.84433 0.15654 0.39826 0.0
H831 H 0.85731 0.15402 0.27123 0.0
H832 H 0.66781 0.72448 0.66775 0.0
H833 H 0.6676 0.76431 0.65914 0.0
H834 H 0.664 0.79112 0.69667 0.0
H835 H 0.6637 0.75108 0.70536 0.0
H836 H 0.63006 0.79727 0.68139 0.0
H837 H 0.72368 0.81998 0.6801 0.0
H838 H 0.76226 0.81338 0.67469 0.0
H839 H 0.7447 0.81316 0.63542 0.0
H840 H 0.70577 0.8194 0.6406 0.0
H841 H 0.67299 0.93576 0.66811 0.0
H842 H 0.66929 0.89352 0.67591 0.0
H843 H 0.66922 0.86743 0.63783 0.0
H844 H 0.67306 0.90972 0.62993 0.0
H845 H 0.70408 0.86025 0.65287 0.0
H846 H 0.61114 0.83921 0.65436 0.0
H847 H 0.57313 0.84653 0.66 0.0
H848 H 0.59002 0.84438 0.69919 0.0
H849 H 0.6284 0.83742 0.69378 0.0
C850 C 0.6669 0.7388 0.67418 0.0
C851 C 0.66591 0.73467 0.68725 0.0
C852 C 0.66689 0.76163 0.66924 0.0
C853 C 0.66616 0.7809 0.67727 0.0
C854 C 0.66462 0.77655 0.6903 0.0
C855 C 0.66454 0.75368 0.69525 0.0
C856 C 0.66721 0.80571 0.67209 0.0
C857 C 0.64641 0.81121 0.67527 0.0
C858 C 0.68823 0.8236 0.66389 0.0
C859 C 0.71164 0.81987 0.66075 0.0
C860 C 0.72791 0.8183 0.67031 0.0
C861 C 0.74987 0.81467 0.66729 0.0
C862 C 0.75588 0.81277 0.65472 0.0
C863 C 0.73999 0.81459 0.64515 0.0
C864 C 0.71799 0.81819 0.64813 0.0
C865 C 0.67208 0.92101 0.66138 0.0
C866 C 0.67329 0.92609 0.6484 0.0
C867 C 0.66986 0.89682 0.66586 0.0
C868 C 0.66875 0.87724 0.65744 0.0
C869 C 0.67001 0.88227 0.64448 0.0
C870 C 0.67212 0.90641 0.63999 0.0
C871 C 0.66698 0.85183 0.66219 0.0
C872 C 0.68767 0.84624 0.65895 0.0
C873 C 0.64593 0.83394 0.67037 0.0
C874 C 0.62281 0.83805 0.67366 0.0
C875 C 0.6069 0.84052 0.66418 0.0
C876 C 0.58526 0.84457 0.66733 0.0
C877 C 0.57921 0.84599 0.67994 0.0
C878 C 0.59475 0.84331 0.68943 0.0
C879 C 0.61643 0.83929 0.68632 0.0
H880 H 0.56244 0.84912 0.68237 0.0
H881 H 0.77289 0.80997 0.6524 0.0
H882 H 0.92241 0.67647 0.03841 0.0
H883 H 0.88055 0.67408 0.03093 0.0
H884 H 0.90792 0.68013 0.99261 0.0
H885 H 0.95005 0.68296 3e-05 0.0
H886 H 0.8882 0.71344 0.99661 0.0
H887 H 0.85821 0.61961 0.00461 0.0
H888 H 0.85177 0.58011 0.01702 0.0
H889 H 0.80504 0.59528 0.04424 0.0
H890 H 0.81152 0.63511 0.03208 0.0
H891 H 0.76225 0.67962 0.96796 0.0
H892 H 0.8026 0.67805 0.97476 0.0
H893 H 0.77879 0.67523 0.01348 0.0
H894 H 0.73824 0.67655 0.00676 0.0
H895 H 0.79641 0.63931 0.00881 0.0
H896 H 0.8277 0.73393 0.00103 0.0
H897 H 0.83415 0.77334 0.98854 0.0
H898 H 0.8785 0.75631 0.96075 0.0
H899 H 0.872 0.71655 0.973 0.0
C900 C 0.91949 0.67719 0.02839 0.0
C901 C 0.93956 0.67989 0.01981 0.0
C902 C 0.89549 0.67569 0.02412 0.0
C903 C 0.89097 0.67663 0.0112 0.0
C904 C 0.91097 0.67933 0.00262 0.0
C905 C 0.93501 0.68088 0.00688 0.0
C906 C 0.86573 0.67561 0.00665 0.0
C907 C 0.86813 0.697 0.99912 0.0
C908 C 0.83954 0.65447 0.01016 0.0
C909 C 0.83558 0.63051 0.01749 0.0
C910 C 0.84675 0.61466 0.0133 0.0
C911 C 0.84305 0.59218 0.02028 0.0
C912 C 0.82806 0.58523 0.03143 0.0
C913 C 0.81667 0.60071 0.03561 0.0
C914 C 0.82033 0.62322 0.02867 0.0
C915 C 0.76553 0.67857 0.97792 0.0
C916 C 0.7471 0.67836 0.98682 0.0
C917 C 0.78865 0.67776 0.98179 0.0
C918 C 0.79384 0.67683 0.99463 0.0
C919 C 0.77518 0.67598 0.00352 0.0
C920 C 0.75207 0.67684 0.99967 0.0
C921 C 0.81894 0.67715 0.9988 0.0
C922 C 0.81651 0.65566 0.00627 0.0
C923 C 0.84511 0.69817 0.99522 0.0
C924 C 0.84911 0.7221 0.98786 0.0
C925 C 0.83863 0.73846 0.9922 0.0
C926 C 0.84234 0.76088 0.98518 0.0
C927 C 0.85666 0.76728 0.97384 0.0
C928 C 0.86738 0.7513 0.96952 0.0
C929 C 0.86371 0.72884 0.9765 0.0
H930 H 0.85951 0.78465 0.96842 0.0
H931 H 0.82522 0.56782 0.03682 0.0
H932 H 0.25005 0.90938 0.36629 0.0
H933 H 0.20933 0.86831 0.35912 0.0
H934 H 0.23072 0.89395 0.32062 0.0
H935 H 0.27132 0.93528 0.32771 0.0
H936 H 0.17805 0.87683 0.32495 0.0
H937 H 0.23896 0.84298 0.33283 0.0
H938 H 0.27105 0.83498 0.34521 0.0
H939 H 0.20898 0.79092 0.37274 0.0
H940 H 0.1766 0.79898 0.3606 0.0
H941 H 0.08275 0.75206 0.29644 0.0
H942 H 0.12516 0.79172 0.30328 0.0
H943 H 0.1037 0.76805 0.34198 0.0
H944 H 0.06131 0.72818 0.33522 0.0
H945 H 0.15674 0.78392 0.33734 0.0
H946 H 0.09621 0.81854 0.32968 0.0
H947 H 0.0641 0.82659 0.31734 0.0
H948 H 0.12563 0.86931 0.28941 0.0
H949 H 0.15801 0.86118 0.30151 0.0
C950 C 0.24617 0.90624 0.35629 0.0
C951 C 0.26395 0.92559 0.34757 0.0
C952 C 0.22294 0.88269 0.35221 0.0
C953 C 0.21711 0.87793 0.33933 0.0
C954 C 0.23483 0.8972 0.3306 0.0
C955 C 0.25807 0.92077 0.33468 0.0
C956 C 0.19215 0.85323 0.33497 0.0
C957 C 0.1736 0.8565 0.3275 0.0
C958 C 0.18603 0.82673 0.33855 0.0
C959 C 0.20544 0.82181 0.34586 0.0
C960 C 0.23222 0.83177 0.34157 0.0
C961 C 0.25044 0.8272 0.34854 0.0
C962 C 0.24208 0.81251 0.35977 0.0
C963 C 0.21544 0.80232 0.36404 0.0
C964 C 0.19713 0.80686 0.35712 0.0
C965 C 0.08706 0.75524 0.30641 0.0
C966 C 0.06859 0.73702 0.31529 0.0
C967 C 0.11127 0.77797 0.3103 0.0
C968 C 0.11744 0.78299 0.32314 0.0
C969 C 0.09931 0.76458 0.33202 0.0
C970 C 0.07506 0.74185 0.32814 0.0
C971 C 0.14271 0.80756 0.32732 0.0
C972 C 0.16127 0.80427 0.33476 0.0
C973 C 0.14886 0.83405 0.32371 0.0
C974 C 0.12944 0.839 0.31643 0.0
C975 C 0.10283 0.82945 0.32085 0.0
C976 C 0.08459 0.83407 0.31391 0.0
C977 C 0.0928 0.84838 0.30258 0.0
C978 C 0.11929 0.85818 0.29818 0.0
C979 C 0.1376 0.8536 0.30508 0.0
H980 H 0.07865 0.85194 0.29723 0.0
H981 H 0.25622 0.80899 0.36515 0.0
H982 H 0.285 0.24658 0.66993 0.0
H983 H 0.28816 0.20827 0.66141 0.0
H984 H 0.34747 0.22007 0.6898 0.0
H985 H 0.34322 0.25746 0.69875 0.0
H986 H 0.32449 0.20211 0.65095 0.0
H987 H 0.34497 0.1616 0.69742 0.0
H988 H 0.33411 0.15937 0.72 0.0
H989 H 0.2628 0.1643 0.71126 0.0
H990 H 0.27305 0.16622 0.68863 0.0
H991 H 0.36252 0.10551 0.63431 0.0
H992 H 0.36138 0.14424 0.64371 0.0
H993 H 0.2885 0.08912 0.66406 0.0
H994 H 0.29053 0.05043 0.65522 0.0
H995 H 0.31714 0.12817 0.67849 0.0
H996 H 0.2887 0.12378 0.63586 0.0
H997 H 0.29178 0.12208 0.61278 0.0
H998 H 0.365 0.19993 0.61301 0.0
H999 H 0.36253 0.20193 0.63611 0.0
C1000 C 0.29869 0.24097 0.67435 0.0
C1001 C 0.3137 0.25484 0.68506 0.0
C1002 C 0.30055 0.2191 0.66946 0.0
C1003 C 0.31774 0.21091 0.67506 0.0
C1004 C 0.33349 0.22544 0.6855 0.0
C1005 C 0.33118 0.24693 0.69057 0.0
C1006 C 0.31907 0.18717 0.66997 0.0
C1007 C 0.32287 0.18596 0.65699 0.0
C1008 C 0.31642 0.16572 0.67776 0.0
C1009 C 0.30996 0.16435 0.69135 0.0
C1010 C 0.32693 0.16213 0.70032 0.0
C1011 C 0.32089 0.16093 0.71313 0.0
C1012 C 0.29783 0.16179 0.71707 0.0
C1013 C 0.28071 0.16374 0.7082 0.0
C1014 C 0.28665 0.16492 0.69539 0.0
C1015 C 0.34636 0.10171 0.64085 0.0
C1016 C 0.32654 0.07498 0.644 0.0
C1017 C 0.34561 0.12385 0.64616 0.0
C1018 C 0.3245 0.11969 0.6544 0.0
C1019 C 0.30499 0.09295 0.65772 0.0
C1020 C 0.30612 0.07082 0.65265 0.0
C1021 C 0.32253 0.1431 0.65947 0.0
C1022 C 0.31875 0.14432 0.67245 0.0
C1023 C 0.32404 0.16399 0.65161 0.0
C1024 C 0.32557 0.16288 0.63772 0.0
C1025 C 0.30556 0.14045 0.63099 0.0
C1026 C 0.30718 0.13945 0.61791 0.0
C1027 C 0.32861 0.16085 0.61144 0.0
C1028 C 0.34843 0.18334 0.61804 0.0
C1029 C 0.34692 0.18444 0.63112 0.0
H1030 H 0.32983 0.16003 0.60131 0.0
H1031 H 0.2932 0.16088 0.72698 0.0
loop_
_geom_bond_atom_site_label_1
_geom_bond_atom_site_label_2
_geom_bond_distance
_geom_bond_site_symmetry_2
_ccdc_geom_bond_type
O0 Cd1 2.300 . S
O0 C7 1.275 . S
Cd1 O0 2.300 . S
Cd1 O9 2.381 . S
Cd1 O10 2.378 . S
O2 Cd3 2.385 . S
O2 C7 1.255 . S
Cd3 O2 2.385 . S
Cd3 O4 2.317 . S
O4 Cd3 2.317 . S
O4 C5 1.232 . S
C5 O4 1.232 . S
C5 O6 1.218 . S
O6 C5 1.218 . S
C7 O0 1.275 . S
C7 O2 1.255 . S
C8 O9 1.258 . S
C8 O10 1.256 . S
O9 Cd1 2.381 . S
O9 C8 1.258 . S
O10 Cd1 2.378 . S
O10 C8 1.256 . S
O11 Cd12 2.300 . S
O11 C18 1.275 . S
Cd12 O11 2.300 . S
Cd12 O20 2.381 . S
Cd12 O21 2.378 . S
O13 Cd14 2.385 . S
O13 C18 1.255 . S
Cd14 O13 2.385 . S
Cd14 O15 2.317 . S
O15 Cd14 2.317 . S
O15 C16 1.232 . S
C16 O15 1.232 . S
C16 O17 1.218 . S
O17 C16 1.218 . S
C18 O11 1.275 . S
C18 O13 1.255 . S
C19 O20 1.258 . S
C19 O21 1.256 . S
O20 Cd12 2.381 . S
O20 C19 1.258 . S
O21 Cd12 2.378 . S
O21 C19 1.256 . S
O22 Cd23 2.300 . S
O22 C29 1.275 . S
Cd23 O22 2.300 . S
Cd23 O31 2.381 . S
Cd23 O32 2.378 . S
O24 Cd25 2.385 . S
O24 C29 1.255 . S
Cd25 O24 2.385 . S
Cd25 O26 2.317 . S
O26 Cd25 2.317 . S
O26 C27 1.232 . S
C27 O26 1.232 . S
C27 O28 1.218 . S
O28 C27 1.218 . S
C29 O22 1.275 . S
C29 O24 1.255 . S
C30 O31 1.258 . S
C30 O32 1.256 . S
O31 Cd23 2.381 . S
O31 C30 1.258 . S
O32 Cd23 2.378 . S
O32 C30 1.256 . S
O33 Cd34 2.300 . S
O33 C40 1.275 . S
Cd34 O33 2.300 . S
Cd34 O42 2.381 . S
Cd34 O43 2.378 . S
O35 Cd36 2.385 . S
O35 C40 1.255 . S
Cd36 O35 2.385 . S
Cd36 O37 2.317 . S
O37 Cd36 2.317 . S
O37 C38 1.232 . S
C38 O37 1.232 . S
C38 O39 1.218 . S
O39 C38 1.218 . S
C40 O33 1.275 . S
C40 O35 1.255 . S
C41 O42 1.258 . S
C41 O43 1.256 . S
O42 Cd34 2.381 . S
O42 C41 1.258 . S
O43 Cd34 2.378 . S
O43 C41 1.256 . S
O44 Cd45 2.300 . S
O44 C51 1.275 . S
Cd45 O44 2.300 . S
Cd45 O53 2.381 . S
Cd45 O54 2.378 . S
O46 Cd47 2.385 . S
O46 C51 1.255 . S
Cd47 O46 2.385 . S
Cd47 O48 2.317 . S
O48 Cd47 2.317 . S
O48 C49 1.232 . S
C49 O48 1.232 . S
C49 O50 1.218 . S
O50 C49 1.218 . S
C51 O44 1.275 . S
C51 O46 1.255 . S
C52 O53 1.258 . S
C52 O54 1.256 . S
O53 Cd45 2.381 . S
O53 C52 1.258 . S
O54 Cd45 2.378 . S
O54 C52 1.256 . S
O55 Cd56 2.300 . S
O55 C62 1.275 . S
Cd56 O55 2.300 . S
Cd56 O64 2.381 . S
Cd56 O65 2.378 . S
O57 Cd58 2.385 . S
O57 C62 1.255 . S
Cd58 O57 2.385 . S
Cd58 O59 2.317 . S
O59 Cd58 2.317 . S
O59 C60 1.232 . S
C60 O59 1.232 . S
C60 O61 1.218 . S
O61 C60 1.218 . S
C62 O55 1.275 . S
C62 O57 1.255 . S
C63 O64 1.258 . S
C63 O65 1.256 . S
O64 Cd56 2.381 . S
O64 C63 1.258 . S
O65 Cd56 2.378 . S
O65 C63 1.256 . S
O66 Cd67 2.300 . S
O66 C73 1.275 . S
Cd67 O66 2.300 . S
Cd67 O75 2.381 . S
Cd67 O76 2.378 . S
O68 Cd69 2.385 . S
O68 C73 1.255 . S
Cd69 O68 2.385 . S
Cd69 O70 2.317 . S
O70 Cd69 2.317 . S
O70 C71 1.232 . S
C71 O70 1.232 . S
C71 O72 1.218 . S
O72 C71 1.218 . S
C73 O66 1.275 . S
C73 O68 1.255 . S
C74 O75 1.258 . S
C74 O76 1.256 . S
O75 Cd67 2.381 . S
O75 C74 1.258 . S
O76 Cd67 2.378 . S
O76 C74 1.256 . S
O77 Cd78 2.300 . S
O77 C84 1.275 . S
Cd78 O77 2.300 . S
Cd78 O86 2.381 . S
Cd78 O87 2.378 . S
O79 Cd80 2.385 . S
O79 C84 1.255 . S
Cd80 O79 2.385 . S
Cd80 O81 2.317 . S
O81 Cd80 2.317 . S
O81 C82 1.232 . S
C82 O81 1.232 . S
C82 O83 1.218 . S
O83 C82 1.218 . S
C84 O77 1.275 . S
C84 O79 1.255 . S
C85 O86 1.258 . S
C85 O87 1.256 . S
O86 Cd78 2.381 . S
O86 C85 1.258 . S
O87 Cd78 2.378 . S
O87 C85 1.256 . S
O88 Cd89 2.300 . S
O88 C95 1.275 . S
Cd89 O88 2.300 . S
Cd89 O97 2.381 . S
Cd89 O98 2.378 . S
O90 Cd91 2.385 . S
O90 C95 1.255 . S
Cd91 O90 2.385 . S
Cd91 O92 2.317 . S
O92 Cd91 2.317 . S
O92 C93 1.232 . S
C93 O92 1.232 . S
C93 O94 1.218 . S
O94 C93 1.218 . S
C95 O88 1.275 . S
C95 O90 1.255 . S
C96 O97 1.258 . S
C96 O98 1.256 . S
O97 Cd89 2.381 . S
O97 C96 1.258 . S
O98 Cd89 2.378 . S
O98 C96 1.256 . S
O99 Cd100 2.300 . S
O99 C106 1.275 . S
Cd100 O99 2.300 . S
Cd100 O108 2.381 . S
Cd100 O109 2.378 . S
O101 Cd102 2.385 . S
O101 C106 1.255 . S
Cd102 O101 2.385 . S
Cd102 O103 2.317 . S
O103 Cd102 2.317 . S
O103 C104 1.232 . S
C104 O103 1.232 . S
C104 O105 1.218 . S
O105 C104 1.218 . S
C106 O99 1.275 . S
C106 O101 1.255 . S
C107 O108 1.258 . S
C107 O109 1.256 . S
O108 Cd100 2.381 . S
O108 C107 1.258 . S
O109 Cd100 2.378 . S
O109 C107 1.256 . S
O110 Cd111 2.300 . S
O110 C117 1.275 . S
Cd111 O110 2.300 . S
Cd111 O119 2.381 . S
Cd111 O120 2.378 . S
O112 Cd113 2.385 . S
O112 C117 1.255 . S
Cd113 O112 2.385 . S
Cd113 O114 2.317 . S
O114 Cd113 2.317 . S
O114 C115 1.232 . S
C115 O114 1.232 . S
C115 O116 1.218 . S
O116 C115 1.218 . S
C117 O110 1.275 . S
C117 O112 1.255 . S
C118 O119 1.258 . S
C118 O120 1.256 . S
O119 Cd111 2.381 . S
O119 C118 1.258 . S
O120 Cd111 2.378 . S
O120 C118 1.256 . S
O121 Cd122 2.300 . S
O121 C128 1.275 . S
Cd122 O121 2.300 . S
Cd122 O130 2.381 . S
Cd122 O131 2.378 . S
O123 Cd124 2.385 . S
O123 C128 1.255 . S
Cd124 O123 2.385 . S
Cd124 O125 2.317 . S
O125 Cd124 2.317 . S
O125 C126 1.232 . S
C126 O125 1.232 . S
C126 O127 1.218 . S
O127 C126 1.218 . S
C128 O121 1.275 . S
C128 O123 1.255 . S
C129 O130 1.258 . S
C129 O131 1.256 . S
O130 Cd122 2.381 . S
O130 C129 1.258 . S
O131 Cd122 2.378 . S
O131 C129 1.256 . S
H132 C150 0.951 . S
H133 C152 0.951 . S
H134 C154 0.951 . S
H135 C155 0.950 1_455 S
H136 C157 0.950 . S
H137 C160 0.950 . S
H138 C161 0.950 . S
H139 C163 0.950 . S
H140 C164 0.950 . S
H141 C165 0.951 . S
H142 C167 0.951 . S
H143 C169 0.950 . S
H144 C170 0.949 1_655 S
H145 C172 0.950 . S
H146 C175 0.950 . S
H147 C176 0.950 . S
H148 C178 0.950 . S
H149 C179 0.950 . S
C150 H132 0.951 . S
C150 C151 1.366 . S
C150 C152 1.388 . S
C151 C150 1.366 . S
C151 C155 1.385 . S
C152 H133 0.951 . S
C152 C150 1.388 . S
C152 C153 1.366 . S
C153 C152 1.366 . S
C153 C154 1.414 1_655 S
C153 C156 1.503 . S
C154 H134 0.951 . S
C154 C153 1.414 1_455 S
C154 C155 1.373 1_455 S
C155 H135 0.950 1_655 S
C155 C151 1.385 . S
C155 C154 1.373 1_655 S
C156 C153 1.503 . S
C156 C157 1.375 . S
C156 C158 1.384 1_655 S
C157 H136 0.950 . S
C157 C156 1.375 . S
C157 C173 1.377 . S
C158 C156 1.384 1_455 S
C158 C159 1.524 . S
C158 C172 1.377 . S
C159 C158 1.524 . S
C159 C160 1.397 . S
C159 C164 1.363 . S
C160 H137 0.950 . S
C160 C159 1.397 . S
C160 C161 1.334 . S
C161 H138 0.950 . S
C161 C160 1.334 . S
C161 C162 1.287 . S
C162 C161 1.287 . S
C162 C163 1.524 . S
C162 H181 0.913 . S
C163 H139 0.950 . S
C163 C162 1.524 . S
C163 C164 1.415 . S
C164 H140 0.950 . S
C164 C159 1.363 . S
C164 C163 1.415 . S
C165 H141 0.951 . S
C165 C166 1.366 . S
C165 C167 1.388 . S
C166 C165 1.366 . S
C166 C170 1.385 . S
C167 H142 0.951 . S
C167 C165 1.388 . S
C167 C168 1.366 . S
C168 C167 1.366 . S
C168 C169 1.414 1_455 S
C168 C171 1.505 . S
C169 H143 0.950 . S
C169 C168 1.414 1_655 S
C169 C170 1.375 1_655 S
C170 H144 0.949 1_455 S
C170 C166 1.385 . S
C170 C169 1.375 1_455 S
C171 C168 1.505 . S
C171 C172 1.375 . S
C171 C173 1.382 1_455 S
C172 H145 0.950 . S
C172 C158 1.377 . S
C172 C171 1.375 . S
C173 C157 1.377 . S
C173 C171 1.382 1_655 S
C173 C174 1.524 . S
C174 C173 1.524 . S
C174 C175 1.397 . S
C174 C179 1.363 . S
C175 H146 0.950 . S
C175 C174 1.397 . S
C175 C176 1.334 . S
C176 H147 0.950 . S
C176 C175 1.334 . S
C176 C177 1.287 . S
C177 C176 1.287 . S
C177 C178 1.524 . S
C177 H180 0.999 . S
C178 H148 0.950 . S
C178 C177 1.524 . S
C178 C179 1.415 . S
C179 H149 0.950 . S
C179 C174 1.363 . S
C179 C178 1.415 . S
H180 C177 0.999 . S
H181 C162 0.913 . S
H182 C200 0.951 . S
H183 C202 0.951 . S
H184 C204 0.950 . S
H185 C205 0.950 . S
H186 C207 0.950 . S
H187 C210 0.950 . S
H188 C211 0.950 . S
H189 C213 0.950 . S
H190 C214 0.950 . S
H191 C215 0.951 . S
H192 C217 0.951 . S
H193 C219 0.950 . S
H194 C220 0.950 . S
H195 C222 0.950 . S
H196 C225 0.950 . S
H197 C226 0.950 . S
H198 C228 0.950 . S
H199 C229 0.950 . S
C200 H182 0.951 . S
C200 C201 1.366 . S
C200 C202 1.388 . S
C201 C200 1.366 . S
C201 C205 1.385 1_545 S
C202 H183 0.951 . S
C202 C200 1.388 . S
C202 C203 1.366 . S
C203 C202 1.366 . S
C203 C204 1.414 1_545 S
C203 C206 1.499 . S
C204 H184 0.950 . S
C204 C203 1.414 1_565 S
C204 C205 1.374 . S
C205 H185 0.950 . S
C205 C201 1.385 1_565 S
C205 C204 1.374 . S
C206 C203 1.499 . S
C206 C207 1.373 1_545 S
C206 C208 1.389 . S
C207 H186 0.950 . S
C207 C206 1.373 1_565 S
C207 C223 1.377 . S
C208 C206 1.389 . S
C208 C209 1.524 . S
C208 C222 1.377 . S
C209 C208 1.524 . S
C209 C210 1.397 . S
C209 C214 1.363 . S
C210 H187 0.950 . S
C210 C209 1.397 . S
C210 C211 1.334 . S
C211 H188 0.950 . S
C211 C210 1.334 . S
C211 C212 1.287 . S
C212 C211 1.287 . S
C212 C213 1.524 . S
C212 H231 0.913 . S
C213 H189 0.950 . S
C213 C212 1.524 . S
C213 C214 1.415 . S
C214 H190 0.950 . S
C214 C209 1.363 . S
C214 C213 1.415 . S
C215 H191 0.951 . S
C215 C216 1.366 . S
C215 C217 1.388 . S
C216 C215 1.366 . S
C216 C220 1.385 1_565 S
C217 H192 0.951 . S
C217 C215 1.388 . S
C217 C218 1.366 . S
C218 C217 1.366 . S
C218 C219 1.414 1_565 S
C218 C221 1.499 . S
C219 H193 0.950 . S
C219 C218 1.414 1_545 S
C219 C220 1.374 . S
C220 H194 0.950 . S
C220 C216 1.385 1_545 S
C220 C219 1.374 . S
C221 C218 1.499 . S
C221 C222 1.373 1_565 S
C221 C223 1.389 . S
C222 H195 0.950 . S
C222 C208 1.377 . S
C222 C221 1.373 1_545 S
C223 C207 1.377 . S
C223 C221 1.389 . S
C223 C224 1.524 . S
C224 C223 1.524 . S
C224 C225 1.397 . S
C224 C229 1.363 . S
C225 H196 0.950 . S
C225 C224 1.397 . S
C225 C226 1.334 . S
C226 H197 0.950 . S
C226 C225 1.334 . S
C226 C227 1.287 . S
C227 C226 1.287 . S
C227 C228 1.524 . S
C227 H230 0.999 . S
C228 H198 0.950 . S
C228 C227 1.524 . S
C228 C229 1.415 . S
C229 H199 0.950 . S
C229 C224 1.363 . S
C229 C228 1.415 . S
H230 C227 0.999 . S
H231 C212 0.913 . S
H232 C250 0.951 . S
H233 C252 0.951 . S
H234 C254 0.950 . S
H235 C255 0.950 . S
H236 C257 0.950 . S
H237 C260 0.950 . S
H238 C261 0.950 . S
H239 C263 0.950 . S
H240 C264 0.950 . S
H241 C265 0.951 . S
H242 C267 0.951 . S
H243 C269 0.950 . S
H244 C270 0.950 . S
H245 C272 0.950 . S
H246 C275 0.950 . S
H247 C276 0.950 . S
H248 C278 0.950 . S
H249 C279 0.950 . S
C250 H232 0.951 . S
C250 C251 1.366 . S
C250 C252 1.388 . S
C251 C250 1.366 . S
C251 C255 1.385 . S
C252 H233 0.951 . S
C252 C250 1.388 . S
C252 C253 1.366 . S
C253 C252 1.366 . S
C253 C254 1.414 . S
C253 C256 1.499 . S
C254 H234 0.950 . S
C254 C253 1.414 . S
C254 C255 1.374 . S
C255 H235 0.950 . S
C255 C251 1.385 . S
C255 C254 1.374 . S
C256 C253 1.499 . S
C256 C257 1.373 . S
C256 C258 1.389 . S
C257 H236 0.950 . S
C257 C256 1.373 . S
C257 C273 1.377 . S
C258 C256 1.389 . S
C258 C259 1.524 . S
C258 C272 1.377 . S
C259 C258 1.524 . S
C259 C260 1.397 . S
C259 C264 1.363 . S
C260 H237 0.950 . S
C260 C259 1.397 . S
C260 C261 1.334 . S
C261 H238 0.950 . S
C261 C260 1.334 . S
C261 C262 1.287 . S
C262 C261 1.287 . S
C262 C263 1.524 . S
C262 H281 0.913 . S
C263 H239 0.950 . S
C263 C262 1.524 . S
C263 C264 1.415 . S
C264 H240 0.950 . S
C264 C259 1.363 . S
C264 C263 1.415 . S
C265 H241 0.951 . S
C265 C266 1.366 . S
C265 C267 1.388 . S
C266 C265 1.366 . S
C266 C270 1.385 . S
C267 H242 0.951 . S
C267 C265 1.388 . S
C267 C268 1.366 . S
C268 C267 1.366 . S
C268 C269 1.414 . S
C268 C271 1.499 . S
C269 H243 0.950 . S
C269 C268 1.414 . S
C269 C270 1.374 . S
C270 H244 0.950 . S
C270 C266 1.385 . S
C270 C269 1.374 . S
C271 C268 1.499 . S
C271 C272 1.373 . S
C271 C273 1.389 . S
C272 H245 0.950 . S
C272 C258 1.377 . S
C272 C271 1.373 . S
C273 C257 1.377 . S
C273 C271 1.389 . S
C273 C274 1.524 . S
C274 C273 1.524 . S
C274 C275 1.397 . S
C274 C279 1.363 . S
C275 H246 0.950 . S
C275 C274 1.397 . S
C275 C276 1.334 . S
C276 H247 0.950 . S
C276 C275 1.334 . S
C276 C277 1.287 . S
C277 C276 1.287 . S
C277 C278 1.524 . S
C277 H280 0.999 . S
C278 H248 0.950 . S
C278 C277 1.524 . S
C278 C279 1.415 . S
C279 H249 0.950 . S
C279 C274 1.363 . S
C279 C278 1.415 . S
H280 C277 0.999 . S
H281 C262 0.913 . S
H282 C300 0.951 . S
H283 C302 0.951 . S
H284 C304 0.950 . S
H285 C305 0.950 . S
H286 C307 0.950 . S
H287 C310 0.950 1_565 S
H288 C311 0.950 . S
H289 C313 0.950 . S
H290 C314 0.950 . S
H291 C315 0.951 . S
H292 C317 0.951 . S
H293 C319 0.950 . S
H294 C320 0.950 . S
H295 C322 0.950 . S
H296 C325 0.950 1_545 S
H297 C326 0.950 . S
H298 C328 0.950 . S
H299 C329 0.950 . S
C300 H282 0.951 . S
C300 C301 1.366 1_545 S
C300 C302 1.388 . S
C301 C300 1.366 1_565 S
C301 C305 1.385 . S
C302 H283 0.951 . S
C302 C300 1.388 . S
C302 C303 1.366 1_545 S
C303 C302 1.366 1_565 S
C303 C304 1.414 . S
C303 C306 1.499 . S
C304 H284 0.950 . S
C304 C303 1.414 . S
C304 C305 1.374 . S
C305 H285 0.950 . S
C305 C301 1.385 . S
C305 C304 1.374 . S
C306 C303 1.499 . S
C306 C307 1.373 . S
C306 C308 1.389 1_565 S
C307 H286 0.950 . S
C307 C306 1.373 . S
C307 C323 1.377 . S
C308 C306 1.389 1_545 S
C308 C309 1.524 . S
C308 C322 1.377 . S
C309 C308 1.524 . S
C309 C310 1.397 . S
C309 C314 1.363 . S
C310 H287 0.950 1_545 S
C310 C309 1.397 . S
C310 C311 1.334 . S
C311 H288 0.950 . S
C311 C310 1.334 . S
C311 C312 1.287 . S
C312 C311 1.287 . S
C312 C313 1.524 . S
C312 H331 0.913 . S
C313 H289 0.950 . S
C313 C312 1.524 . S
C313 C314 1.415 . S
C314 H290 0.950 . S
C314 C309 1.363 . S
C314 C313 1.415 . S
C315 H291 0.951 . S
C315 C316 1.366 1_565 S
C315 C317 1.388 . S
C316 C315 1.366 1_545 S
C316 C320 1.385 . S
C317 H292 0.951 . S
C317 C315 1.388 . S
C317 C318 1.366 1_565 S
C318 C317 1.366 1_545 S
C318 C319 1.414 . S
C318 C321 1.499 . S
C319 H293 0.950 . S
C319 C318 1.414 . S
C319 C320 1.374 . S
C320 H294 0.950 . S
C320 C316 1.385 . S
C320 C319 1.374 . S
C321 C318 1.499 . S
C321 C322 1.373 . S
C321 C323 1.389 1_545 S
C322 H295 0.950 . S
C322 C308 1.377 . S
C322 C321 1.373 . S
C323 C307 1.377 . S
C323 C321 1.389 1_565 S
C323 C324 1.524 . S
C324 C323 1.524 . S
C324 C325 1.397 . S
C324 C329 1.363 . S
C325 H296 0.950 1_565 S
C325 C324 1.397 . S
C325 C326 1.334 . S
C326 H297 0.950 . S
C326 C325 1.334 . S
C326 C327 1.287 . S
C327 C326 1.287 . S
C327 C328 1.524 . S
C327 H330 0.999 . S
C328 H298 0.950 . S
C328 C327 1.524 . S
C328 C329 1.415 . S
C329 H299 0.950 . S
C329 C324 1.363 . S
C329 C328 1.415 . S
H330 C327 0.999 . S
H331 C312 0.913 . S
H332 C350 0.951 . S
H333 C352 0.951 . S
H334 C354 0.950 . S
H335 C355 0.950 . S
H336 C357 0.950 . S
H337 C360 0.950 . S
H338 C361 0.950 . S
H339 C363 0.950 . S
H340 C364 0.950 . S
H341 C365 0.951 . S
H342 C367 0.951 . S
H343 C369 0.950 . S
H344 C370 0.950 . S
H345 C372 0.950 . S
H346 C375 0.950 . S
H347 C376 0.950 . S
H348 C378 0.950 . S
H349 C379 0.950 . S
C350 H332 0.951 . S
C350 C351 1.366 . S
C350 C352 1.388 . S
C351 C350 1.366 . S
C351 C355 1.385 . S
C352 H333 0.951 . S
C352 C350 1.388 . S
C352 C353 1.366 . S
C353 C352 1.366 . S
C353 C354 1.414 . S
C353 C356 1.499 . S
C354 H334 0.950 . S
C354 C353 1.414 . S
C354 C355 1.374 . S
C355 H335 0.950 . S
C355 C351 1.385 . S
C355 C354 1.374 . S
C356 C353 1.499 . S
C356 C357 1.373 . S
C356 C358 1.389 . S
C357 H336 0.950 . S
C357 C356 1.373 . S
C357 C373 1.377 . S
C358 C356 1.389 . S
C358 C359 1.524 . S
C358 C372 1.377 . S
C359 C358 1.524 . S
C359 C360 1.397 . S
C359 C364 1.363 . S
C360 H337 0.950 . S
C360 C359 1.397 . S
C360 C361 1.334 . S
C361 H338 0.950 . S
C361 C360 1.334 . S
C361 C362 1.287 . S
C362 C361 1.287 . S
C362 C363 1.524 . S
C362 H381 0.913 . S
C363 H339 0.950 . S
C363 C362 1.524 . S
C363 C364 1.415 . S
C364 H340 0.950 . S
C364 C359 1.363 . S
C364 C363 1.415 . S
C365 H341 0.951 . S
C365 C366 1.366 . S
C365 C367 1.388 . S
C366 C365 1.366 . S
C366 C370 1.385 . S
C367 H342 0.951 . S
C367 C365 1.388 . S
C367 C368 1.366 . S
C368 C367 1.366 . S
C368 C369 1.414 . S
C368 C371 1.499 . S
C369 H343 0.950 . S
C369 C368 1.414 . S
C369 C370 1.374 . S
C370 H344 0.950 . S
C370 C366 1.385 . S
C370 C369 1.374 . S
C371 C368 1.499 . S
C371 C372 1.373 . S
C371 C373 1.389 . S
C372 H345 0.950 . S
C372 C358 1.377 . S
C372 C371 1.373 . S
C373 C357 1.377 . S
C373 C371 1.389 . S
C373 C374 1.524 . S
C374 C373 1.524 . S
C374 C375 1.397 . S
C374 C379 1.363 . S
C375 H346 0.950 . S
C375 C374 1.397 . S
C375 C376 1.334 . S
C376 H347 0.950 . S
C376 C375 1.334 . S
C376 C377 1.287 . S
C377 C376 1.287 . S
C377 C378 1.524 . S
C377 H380 0.999 . S
C378 H348 0.950 . S
C378 C377 1.524 . S
C378 C379 1.415 . S
C379 H349 0.950 . S
C379 C374 1.363 . S
C379 C378 1.415 . S
H380 C377 0.999 . S
H381 C362 0.913 . S
H382 C400 0.951 . S
H383 C402 0.951 . S
H384 C404 0.950 . S
H385 C405 0.950 . S
H386 C407 0.950 . S
H387 C410 0.950 . S
H388 C411 0.950 . S
H389 C413 0.950 . S
H390 C414 0.950 . S
H391 C415 0.951 . S
H392 C417 0.951 . S
H393 C419 0.950 . S
H394 C420 0.950 . S
H395 C422 0.950 . S
H396 C425 0.950 . S
H397 C426 0.950 . S
H398 C428 0.950 . S
H399 C429 0.950 . S
C400 H382 0.951 . S
C400 C401 1.366 1_655 S
C400 C402 1.388 . S
C401 C400 1.366 1_455 S
C401 C405 1.385 . S
C402 H383 0.951 . S
C402 C400 1.388 . S
C402 C403 1.366 1_655 S
C403 C402 1.366 1_455 S
C403 C404 1.414 . S
C403 C406 1.499 . S
C404 H384 0.950 . S
C404 C403 1.414 . S
C404 C405 1.374 . S
C405 H385 0.950 . S
C405 C401 1.385 . S
C405 C404 1.374 . S
C406 C403 1.499 . S
C406 C407 1.373 . S
C406 C408 1.389 1_455 S
C407 H386 0.950 . S
C407 C406 1.373 . S
C407 C423 1.377 . S
C408 C406 1.389 1_655 S
C408 C409 1.524 . S
C408 C422 1.377 . S
C409 C408 1.524 . S
C409 C410 1.397 1_655 S
C409 C414 1.363 . S
C410 H387 0.950 . S
C410 C409 1.397 1_455 S
C410 C411 1.334 . S
C411 H388 0.950 . S
C411 C410 1.334 . S
C411 C412 1.287 1_455 S
C412 C411 1.287 1_655 S
C412 C413 1.524 . S
C412 H431 0.913 . S
C413 H389 0.950 . S
C413 C412 1.524 . S
C413 C414 1.415 . S
C414 H390 0.950 . S
C414 C409 1.363 . S
C414 C413 1.415 . S
C415 H391 0.951 . S
C415 C416 1.366 1_455 S
C415 C417 1.388 . S
C416 C415 1.366 1_655 S
C416 C420 1.385 . S
C417 H392 0.951 . S
C417 C415 1.388 . S
C417 C418 1.366 1_455 S
C418 C417 1.366 1_655 S
C418 C419 1.414 . S
C418 C421 1.499 . S
C419 H393 0.950 . S
C419 C418 1.414 . S
C419 C420 1.374 . S
C420 H394 0.950 . S
C420 C416 1.385 . S
C420 C419 1.374 . S
C421 C418 1.499 . S
C421 C422 1.373 . S
C421 C423 1.389 1_655 S
C422 H395 0.950 . S
C422 C408 1.377 . S
C422 C421 1.373 . S
C423 C407 1.377 . S
C423 C421 1.389 1_455 S
C423 C424 1.524 . S
C424 C423 1.524 . S
C424 C425 1.397 1_455 S
C424 C429 1.363 . S
C425 H396 0.950 . S
C425 C424 1.397 1_655 S
C425 C426 1.334 . S
C426 H397 0.950 . S
C426 C425 1.334 . S
C426 C427 1.287 1_655 S
C427 C426 1.287 1_455 S
C427 C428 1.524 . S
C427 H430 0.999 . S
C428 H398 0.950 . S
C428 C427 1.524 . S
C428 C429 1.415 . S
C429 H399 0.950 . S
C429 C424 1.363 . S
C429 C428 1.415 . S
H430 C427 0.999 . S
H431 C412 0.913 . S
H432 C450 0.951 . S
H433 C452 0.951 . S
H434 C454 0.950 . S
H435 C455 0.950 . S
H436 C457 0.950 . S
H437 C460 0.950 . S
H438 C461 0.950 . S
H439 C463 0.950 . S
H440 C464 0.950 . S
H441 C465 0.951 . S
H442 C467 0.951 . S
H443 C469 0.950 . S
H444 C470 0.950 . S
H445 C472 0.950 . S
H446 C475 0.950 . S
H447 C476 0.950 . S
H448 C478 0.950 . S
H449 C479 0.950 . S
C450 H432 0.951 . S
C450 C451 1.366 1_455 S
C450 C452 1.388 . S
C451 C450 1.366 1_655 S
C451 C455 1.385 . S
C452 H433 0.951 . S
C452 C450 1.388 . S
C452 C453 1.366 1_455 S
C453 C452 1.366 1_655 S
C453 C454 1.414 . S
C453 C456 1.499 . S
C454 H434 0.950 . S
C454 C453 1.414 . S
C454 C455 1.374 . S
C455 H435 0.950 . S
C455 C451 1.385 . S
C455 C454 1.374 . S
C456 C453 1.499 . S
C456 C457 1.379 . S
C456 C458 1.383 1_655 S
C457 H436 0.950 . S
C457 C456 1.379 . S
C457 C473 1.377 . S
C458 C456 1.383 1_455 S
C458 C459 1.524 . S
C458 C472 1.377 . S
C459 C458 1.524 . S
C459 C460 1.397 . S
C459 C464 1.363 . S
C460 H437 0.950 . S
C460 C459 1.397 . S
C460 C461 1.334 . S
C461 H438 0.950 . S
C461 C460 1.334 . S
C461 C462 1.287 . S
C462 C461 1.287 . S
C462 C463 1.524 . S
C462 H481 0.913 . S
C463 H439 0.950 . S
C463 C462 1.524 . S
C463 C464 1.415 . S
C464 H440 0.950 . S
C464 C459 1.363 . S
C464 C463 1.415 . S
C465 H441 0.951 . S
C465 C466 1.366 1_655 S
C465 C467 1.388 . S
C466 C465 1.366 1_455 S
C466 C470 1.385 . S
C467 H442 0.951 . S
C467 C465 1.388 . S
C467 C468 1.366 1_655 S
C468 C467 1.366 1_455 S
C468 C469 1.414 . S
C468 C471 1.499 . S
C469 H443 0.950 . S
C469 C468 1.414 . S
C469 C470 1.374 . S
C470 H444 0.950 . S
C470 C466 1.385 . S
C470 C469 1.374 . S
C471 C468 1.499 . S
C471 C472 1.387 . S
C471 C473 1.375 1_455 S
C472 H445 0.950 . S
C472 C458 1.377 . S
C472 C471 1.387 . S
C473 C457 1.377 . S
C473 C471 1.375 1_655 S
C473 C474 1.524 . S
C474 C473 1.524 . S
C474 C475 1.397 . S
C474 C479 1.363 . S
C475 H446 0.950 . S
C475 C474 1.397 . S
C475 C476 1.334 . S
C476 H447 0.950 . S
C476 C475 1.334 . S
C476 C477 1.287 . S
C477 C476 1.287 . S
C477 C478 1.524 . S
C477 H480 0.999 . S
C478 H448 0.950 . S
C478 C477 1.524 . S
C478 C479 1.415 . S
C479 H449 0.950 . S
C479 C474 1.363 . S
C479 C478 1.415 . S
H480 C477 0.999 . S
H481 C462 0.913 . S
H482 C500 0.951 . S
H483 C502 0.951 . S
H484 C504 0.950 . S
H485 C505 0.950 . S
H486 C507 0.950 . S
H487 C510 0.950 . S
H488 C511 0.950 . S
H489 C513 0.950 . S
H490 C514 0.950 . S
H491 C515 0.951 . S
H492 C517 0.951 . S
H493 C519 0.950 . S
H494 C520 0.950 . S
H495 C522 0.950 . S
H496 C525 0.950 . S
H497 C526 0.950 . S
H498 C528 0.950 . S
H499 C529 0.950 . S
C500 H482 0.951 . S
C500 C501 1.366 1_565 S
C500 C502 1.388 . S
C501 C500 1.366 1_545 S
C501 C505 1.385 . S
C502 H483 0.951 . S
C502 C500 1.388 . S
C502 C503 1.366 1_565 S
C503 C502 1.366 1_545 S
C503 C504 1.414 . S
C503 C506 1.499 . S
C504 H484 0.950 . S
C504 C503 1.414 . S
C504 C505 1.374 . S
C505 H485 0.950 . S
C505 C501 1.385 . S
C505 C504 1.374 . S
C506 C503 1.499 . S
C506 C507 1.373 . S
C506 C508 1.389 1_545 S
C507 H486 0.950 . S
C507 C506 1.373 . S
C507 C523 1.377 . S
C508 C506 1.389 1_565 S
C508 C509 1.524 . S
C508 C522 1.377 . S
C509 C508 1.524 . S
C509 C510 1.397 . S
C509 C514 1.363 . S
C510 H487 0.950 . S
C510 C509 1.397 . S
C510 C511 1.334 . S
C511 H488 0.950 . S
C511 C510 1.334 . S
C511 C512 1.287 . S
C512 C511 1.287 . S
C512 C513 1.524 . S
C512 H531 0.913 . S
C513 H489 0.950 . S
C513 C512 1.524 . S
C513 C514 1.415 . S
C514 H490 0.950 . S
C514 C509 1.363 . S
C514 C513 1.415 . S
C515 H491 0.951 . S
C515 C516 1.366 1_545 S
C515 C517 1.388 . S
C516 C515 1.366 1_565 S
C516 C520 1.385 . S
C517 H492 0.951 . S
C517 C515 1.388 . S
C517 C518 1.366 1_545 S
C518 C517 1.366 1_565 S
C518 C519 1.414 . S
C518 C521 1.499 . S
C519 H493 0.950 . S
C519 C518 1.414 . S
C519 C520 1.374 . S
C520 H494 0.950 . S
C520 C516 1.385 . S
C520 C519 1.374 . S
C521 C518 1.499 . S
C521 C522 1.373 . S
C521 C523 1.389 1_565 S
C522 H495 0.950 . S
C522 C508 1.377 . S
C522 C521 1.373 . S
C523 C507 1.377 . S
C523 C521 1.389 1_545 S
C523 C524 1.524 . S
C524 C523 1.524 . S
C524 C525 1.397 . S
C524 C529 1.363 . S
C525 H496 0.950 . S
C525 C524 1.397 . S
C525 C526 1.334 . S
C526 H497 0.950 . S
C526 C525 1.334 . S
C526 C527 1.287 . S
C527 C526 1.287 . S
C527 C528 1.524 . S
C527 H530 0.999 . S
C528 H498 0.950 . S
C528 C527 1.524 . S
C528 C529 1.415 . S
C529 H499 0.950 . S
C529 C524 1.363 . S
C529 C528 1.415 . S
H530 C527 0.999 . S
H531 C512 0.913 . S
H532 C550 0.951 . S
H533 C552 0.951 . S
H534 C554 0.950 . S
H535 C555 0.950 . S
H536 C557 0.950 . S
H537 C560 0.950 . S
H538 C561 0.950 . S
H539 C563 0.950 . S
H540 C564 0.950 . S
H541 C565 0.951 . S
H542 C567 0.951 . S
H543 C569 0.950 . S
H544 C570 0.950 . S
H545 C572 0.950 . S
H546 C575 0.950 . S
H547 C576 0.950 . S
H548 C578 0.950 . S
H549 C579 0.950 . S
C550 H532 0.951 . S
C550 C551 1.366 . S
C550 C552 1.388 . S
C551 C550 1.366 . S
C551 C555 1.385 . S
C552 H533 0.951 . S
C552 C550 1.388 . S
C552 C553 1.366 . S
C553 C552 1.366 . S
C553 C554 1.414 . S
C553 C556 1.499 . S
C554 H534 0.950 . S
C554 C553 1.414 . S
C554 C555 1.374 . S
C555 H535 0.950 . S
C555 C551 1.385 . S
C555 C554 1.374 . S
C556 C553 1.499 . S
C556 C557 1.373 . S
C556 C558 1.389 . S
C557 H536 0.950 . S
C557 C556 1.373 . S
C557 C573 1.377 . S
C558 C556 1.389 . S
C558 C559 1.524 . S
C558 C572 1.377 . S
C559 C558 1.524 . S
C559 C560 1.397 . S
C559 C564 1.363 . S
C560 H537 0.950 . S
C560 C559 1.397 . S
C560 C561 1.334 . S
C561 H538 0.950 . S
C561 C560 1.334 . S
C561 C562 1.287 . S
C562 C561 1.287 . S
C562 C563 1.524 . S
C562 H581 0.913 . S
C563 H539 0.950 . S
C563 C562 1.524 . S
C563 C564 1.415 . S
C564 H540 0.950 . S
C564 C559 1.363 . S
C564 C563 1.415 . S
C565 H541 0.951 . S
C565 C566 1.366 . S
C565 C567 1.388 . S
C566 C565 1.366 . S
C566 C570 1.385 . S
C567 H542 0.951 . S
C567 C565 1.388 . S
C567 C568 1.366 . S
C568 C567 1.366 . S
C568 C569 1.414 . S
C568 C571 1.499 . S
C569 H543 0.950 . S
C569 C568 1.414 . S
C569 C570 1.374 . S
C570 H544 0.950 . S
C570 C566 1.385 . S
C570 C569 1.374 . S
C571 C568 1.499 . S
C571 C572 1.373 . S
C571 C573 1.389 . S
C572 H545 0.950 . S
C572 C558 1.377 . S
C572 C571 1.373 . S
C573 C557 1.377 . S
C573 C571 1.389 . S
C573 C574 1.524 . S
C574 C573 1.524 . S
C574 C575 1.397 . S
C574 C579 1.363 . S
C575 H546 0.950 . S
C575 C574 1.397 . S
C575 C576 1.334 . S
C576 H547 0.950 . S
C576 C575 1.334 . S
C576 C577 1.287 . S
C577 C576 1.287 . S
C577 C578 1.524 . S
C577 H580 0.999 . S
C578 H548 0.950 . S
C578 C577 1.524 . S
C578 C579 1.415 . S
C579 H549 0.950 . S
C579 C574 1.363 . S
C579 C578 1.415 . S
H580 C577 0.999 . S
H581 C562 0.913 . S
H582 C600 0.951 . S
H583 C602 0.951 . S
H584 C604 0.950 . S
H585 C605 0.950 . S
H586 C607 0.950 . S
H587 C610 0.950 . S
H588 C611 0.950 . S
H589 C613 0.950 . S
H590 C614 0.950 . S
H591 C615 0.951 . S
H592 C617 0.951 . S
H593 C619 0.950 . S
H594 C620 0.950 . S
H595 C622 0.950 . S
H596 C625 0.950 . S
H597 C626 0.950 . S
H598 C628 0.950 . S
H599 C629 0.950 . S
C600 H582 0.951 . S
C600 C601 1.366 . S
C600 C602 1.388 . S
C601 C600 1.366 . S
C601 C605 1.385 1_455 S
C602 H583 0.951 . S
C602 C600 1.388 . S
C602 C603 1.366 . S
C603 C602 1.366 . S
C603 C604 1.414 1_455 S
C603 C606 1.499 . S
C604 H584 0.950 . S
C604 C603 1.414 1_655 S
C604 C605 1.374 . S
C605 H585 0.950 . S
C605 C601 1.385 1_655 S
C605 C604 1.374 . S
C606 C603 1.499 . S
C606 C607 1.373 1_455 S
C606 C608 1.389 . S
C607 H586 0.950 . S
C607 C606 1.373 1_655 S
C607 C623 1.377 . S
C608 C606 1.389 . S
C608 C609 1.524 . S
C608 C622 1.377 . S
C609 C608 1.524 . S
C609 C610 1.397 . S
C609 C614 1.363 . S
C610 H587 0.950 . S
C610 C609 1.397 . S
C610 C611 1.334 . S
C611 H588 0.950 . S
C611 C610 1.334 . S
C611 C612 1.287 . S
C612 C611 1.287 . S
C612 C613 1.524 . S
C612 H631 0.913 . S
C613 H589 0.950 . S
C613 C612 1.524 . S
C613 C614 1.415 . S
C614 H590 0.950 . S
C614 C609 1.363 . S
C614 C613 1.415 . S
C615 H591 0.951 . S
C615 C616 1.366 . S
C615 C617 1.388 . S
C616 C615 1.366 . S
C616 C620 1.385 1_655 S
C617 H592 0.951 . S
C617 C615 1.388 . S
C617 C618 1.366 . S
C618 C617 1.366 . S
C618 C619 1.414 1_655 S
C618 C621 1.499 . S
C619 H593 0.950 . S
C619 C618 1.414 1_455 S
C619 C620 1.374 . S
C620 H594 0.950 . S
C620 C616 1.385 1_455 S
C620 C619 1.374 . S
C621 C618 1.499 . S
C621 C622 1.373 1_655 S
C621 C623 1.389 . S
C622 H595 0.950 . S
C622 C608 1.377 . S
C622 C621 1.373 1_455 S
C623 C607 1.377 . S
C623 C621 1.389 . S
C623 C624 1.524 . S
C624 C623 1.524 . S
C624 C625 1.397 . S
C624 C629 1.363 . S
C625 H596 0.950 . S
C625 C624 1.397 . S
C625 C626 1.334 . S
C626 H597 0.950 . S
C626 C625 1.334 . S
C626 C627 1.287 . S
C627 C626 1.287 . S
C627 C628 1.524 . S
C627 H630 0.999 . S
C628 H598 0.950 . S
C628 C627 1.524 . S
C628 C629 1.415 . S
C629 H599 0.950 . S
C629 C624 1.363 . S
C629 C628 1.415 . S
H630 C627 0.999 . S
H631 C612 0.913 . S
H632 C650 0.951 . S
H633 C652 0.951 . S
H634 C654 0.952 . S
H635 C655 0.942 . S
H636 C657 0.950 . S
H637 C660 0.950 . S
H638 C661 0.950 . S
H639 C663 0.950 . S
H640 C664 0.950 . S
H641 C665 0.951 . S
H642 C667 0.951 . S
H643 C669 0.951 1_565 S
H644 C670 0.940 . S
H645 C672 0.950 . S
H646 C675 0.950 . S
H647 C676 0.950 . S
H648 C678 0.950 . S
H649 C679 0.950 . S
C650 H632 0.951 . S
C650 C651 1.366 . S
C650 C652 1.388 . S
C651 C650 1.366 . S
C651 C655 1.385 . S
C652 H633 0.951 . S
C652 C650 1.388 . S
C652 C653 1.352 . S
C653 C652 1.352 . S
C653 C654 1.430 1_565 S
C653 C656 1.498 1_565 S
C654 H634 0.952 . S
C654 C653 1.430 1_545 S
C654 C655 1.374 1_545 S
C655 H635 0.942 . S
C655 C651 1.385 . S
C655 C654 1.374 1_565 S
C656 C653 1.498 1_545 S
C656 C657 1.352 1_545 S
C656 C658 1.411 . S
C657 H636 0.950 . S
C657 C656 1.352 1_565 S
C657 C673 1.377 . S
C658 C656 1.411 . S
C658 C659 1.524 . S
C658 C672 1.377 . S
C659 C658 1.524 . S
C659 C660 1.397 . S
C659 C664 1.363 . S
C660 H637 0.950 . S
C660 C659 1.397 . S
C660 C661 1.334 . S
C661 H638 0.950 . S
C661 C660 1.334 . S
C661 C662 1.287 . S
C662 C661 1.287 . S
C662 C663 1.524 . S
C662 H681 0.913 . S
C663 H639 0.950 . S
C663 C662 1.524 . S
C663 C664 1.415 . S
C664 H640 0.950 . S
C664 C659 1.363 . S
C664 C663 1.415 . S
C665 H641 0.951 . S
C665 C666 1.366 . S
C665 C667 1.388 . S
C666 C665 1.366 . S
C666 C670 1.385 . S
C667 H642 0.951 . S
C667 C665 1.388 . S
C667 C668 1.350 . S
C668 C667 1.350 . S
C668 C669 1.435 . S
C668 C671 1.498 1_545 S
C669 H643 0.951 1_545 S
C669 C668 1.435 . S
C669 C670 1.374 . S
C670 H644 0.940 . S
C670 C666 1.385 . S
C670 C669 1.374 . S
C671 C668 1.498 1_565 S
C671 C672 1.357 1_565 S
C671 C673 1.405 . S
C672 H645 0.950 . S
C672 C658 1.377 . S
C672 C671 1.357 1_545 S
C673 C657 1.377 . S
C673 C671 1.405 . S
C673 C674 1.524 . S
C674 C673 1.524 . S
C674 C675 1.397 . S
C674 C679 1.363 . S
C675 H646 0.950 . S
C675 C674 1.397 . S
C675 C676 1.334 . S
C676 H647 0.950 . S
C676 C675 1.334 . S
C676 C677 1.287 . S
C677 C676 1.287 . S
C677 C678 1.524 . S
C677 H680 0.999 . S
C678 H648 0.950 . S
C678 C677 1.524 . S
C678 C679 1.415 . S
C679 H649 0.950 . S
C679 C674 1.363 . S
C679 C678 1.415 . S
H680 C677 0.999 . S
H681 C662 0.913 . S
H682 C700 0.951 . S
H683 C702 0.951 . S
H684 C704 0.950 . S
H685 C705 0.950 . S
H686 C707 0.950 . S
H687 C710 0.950 . S
H688 C711 0.950 . S
H689 C713 0.950 . S
H690 C714 0.950 . S
H691 C715 0.951 . S
H692 C717 0.951 . S
H693 C719 0.950 . S
H694 C720 0.950 . S
H695 C722 0.950 . S
H696 C725 0.950 . S
H697 C726 0.950 . S
H698 C728 0.950 . S
H699 C729 0.950 . S
C700 H682 0.951 . S
C700 C701 1.366 . S
C700 C702 1.388 . S
C701 C700 1.366 . S
C701 C705 1.385 . S
C702 H683 0.951 . S
C702 C700 1.388 . S
C702 C703 1.366 . S
C703 C702 1.366 . S
C703 C704 1.414 . S
C703 C706 1.499 . S
C704 H684 0.950 . S
C704 C703 1.414 . S
C704 C705 1.374 . S
C705 H685 0.950 . S
C705 C701 1.385 . S
C705 C704 1.374 . S
C706 C703 1.499 . S
C706 C707 1.373 . S
C706 C708 1.389 . S
C707 H686 0.950 . S
C707 C706 1.373 . S
C707 C723 1.377 . S
C708 C706 1.389 . S
C708 C709 1.524 . S
C708 C722 1.377 . S
C709 C708 1.524 . S
C709 C710 1.397 . S
C709 C714 1.363 . S
C710 H687 0.950 . S
C710 C709 1.397 . S
C710 C711 1.334 . S
C711 H688 0.950 . S
C711 C710 1.334 . S
C711 C712 1.287 . S
C712 C711 1.287 . S
C712 C713 1.524 . S
C712 H731 0.913 . S
C713 H689 0.950 . S
C713 C712 1.524 . S
C713 C714 1.415 . S
C714 H690 0.950 . S
C714 C709 1.363 . S
C714 C713 1.415 . S
C715 H691 0.951 . S
C715 C716 1.366 . S
C715 C717 1.388 . S
C716 C715 1.366 . S
C716 C720 1.385 . S
C717 H692 0.951 . S
C717 C715 1.388 . S
C717 C718 1.366 . S
C718 C717 1.366 . S
C718 C719 1.414 . S
C718 C721 1.499 . S
C719 H693 0.950 . S
C719 C718 1.414 . S
C719 C720 1.374 . S
C720 H694 0.950 . S
C720 C716 1.385 . S
C720 C719 1.374 . S
C721 C718 1.499 . S
C721 C722 1.373 . S
C721 C723 1.389 . S
C722 H695 0.950 . S
C722 C708 1.377 . S
C722 C721 1.373 . S
C723 C707 1.377 . S
C723 C721 1.389 . S
C723 C724 1.524 . S
C724 C723 1.524 . S
C724 C725 1.397 . S
C724 C729 1.363 . S
C725 H696 0.950 . S
C725 C724 1.397 . S
C725 C726 1.334 . S
C726 H697 0.950 . S
C726 C725 1.334 . S
C726 C727 1.287 . S
C727 C726 1.287 . S
C727 C728 1.524 . S
C727 H730 0.999 . S
C728 H698 0.950 . S
C728 C727 1.524 . S
C728 C729 1.415 . S
C729 H699 0.950 . S
C729 C724 1.363 . S
C729 C728 1.415 . S
H730 C727 0.999 . S
H731 C712 0.913 . S
H732 C750 0.951 . S
H733 C752 0.951 . S
H734 C754 0.950 . S
H735 C755 0.950 . S
H736 C757 0.950 . S
H737 C760 0.950 . S
H738 C761 0.950 . S
H739 C763 0.950 . S
H740 C764 0.950 . S
H741 C765 0.951 . S
H742 C767 0.951 . S
H743 C769 0.950 . S
H744 C770 0.950 . S
H745 C772 0.950 . S
H746 C775 0.950 . S
H747 C776 0.950 . S
H748 C778 0.950 . S
H749 C779 0.950 . S
C750 H732 0.951 . S
C750 C751 1.366 . S
C750 C752 1.388 . S
C751 C750 1.366 . S
C751 C755 1.385 . S
C752 H733 0.951 . S
C752 C750 1.388 . S
C752 C753 1.366 . S
C753 C752 1.366 . S
C753 C754 1.414 . S
C753 C756 1.499 . S
C754 H734 0.950 . S
C754 C753 1.414 . S
C754 C755 1.374 . S
C755 H735 0.950 . S
C755 C751 1.385 . S
C755 C754 1.374 . S
C756 C753 1.499 . S
C756 C757 1.373 . S
C756 C758 1.394 . S
C757 H736 0.950 . S
C757 C756 1.373 . S
C757 C773 1.367 1_556 S
C758 C756 1.394 . S
C758 C759 1.524 . S
C758 C772 1.372 1_556 S
C759 C758 1.524 . S
C759 C760 1.424 . S
C759 C764 1.337 1_556 S
C760 H737 0.950 . S
C760 C759 1.424 . S
C760 C761 1.334 . S
C761 H738 0.950 . S
C761 C760 1.334 . S
C761 C762 1.287 . S
C762 C761 1.287 . S
C762 C763 1.524 1_556 S
C762 H781 0.913 . S
C763 H739 0.950 . S
C763 C762 1.524 1_554 S
C763 C764 1.415 . S
C764 H740 0.950 . S
C764 C759 1.337 1_554 S
C764 C763 1.415 . S
C765 H741 0.951 . S
C765 C766 1.366 . S
C765 C767 1.388 . S
C766 C765 1.366 . S
C766 C770 1.385 . S
C767 H742 0.951 . S
C767 C765 1.388 . S
C767 C768 1.366 . S
C768 C767 1.366 . S
C768 C769 1.414 . S
C768 C771 1.499 . S
C769 H743 0.950 . S
C769 C768 1.414 . S
C769 C770 1.374 . S
C770 H744 0.950 . S
C770 C766 1.385 . S
C770 C769 1.374 . S
C771 C768 1.499 . S
C771 C772 1.373 . S
C771 C773 1.399 . S
C772 H745 0.950 . S
C772 C758 1.372 1_554 S
C772 C771 1.373 . S
C773 C757 1.367 1_554 S
C773 C771 1.399 . S
C773 C774 1.524 . S
C774 C773 1.524 . S
C774 C775 1.430 . S
C774 C779 1.331 1_554 S
C775 H746 0.950 . S
C775 C774 1.430 . S
C775 C776 1.334 . S
C776 H747 0.950 . S
C776 C775 1.334 . S
C776 C777 1.287 . S
C777 C776 1.287 . S
C777 C778 1.524 1_554 S
C777 H780 0.999 . S
C778 H748 0.950 . S
C778 C777 1.524 1_556 S
C778 C779 1.415 . S
C779 H749 0.950 . S
C779 C774 1.331 1_556 S
C779 C778 1.415 . S
H780 C777 0.999 . S
H781 C762 0.913 . S
H782 C800 0.951 . S
H783 C802 0.951 . S
H784 C804 0.950 . S
H785 C805 0.950 . S
H786 C807 0.950 . S
H787 C810 0.950 . S
H788 C811 0.950 . S
H789 C813 0.950 . S
H790 C814 0.950 . S
H791 C815 0.951 . S
H792 C817 0.951 . S
H793 C819 0.950 . S
H794 C820 0.950 . S
H795 C822 0.950 . S
H796 C825 0.950 . S
H797 C826 0.950 . S
H798 C828 0.950 . S
H799 C829 0.950 . S
C800 H782 0.951 . S
C800 C801 1.366 . S
C800 C802 1.388 . S
C801 C800 1.366 . S
C801 C805 1.385 . S
C802 H783 0.951 . S
C802 C800 1.388 . S
C802 C803 1.366 . S
C803 C802 1.366 . S
C803 C804 1.414 . S
C803 C806 1.499 . S
C804 H784 0.950 . S
C804 C803 1.414 . S
C804 C805 1.374 . S
C805 H785 0.950 . S
C805 C801 1.385 . S
C805 C804 1.374 . S
C806 C803 1.499 . S
C806 C807 1.373 . S
C806 C808 1.389 . S
C807 H786 0.950 . S
C807 C806 1.373 . S
C807 C823 1.377 . S
C808 C806 1.389 . S
C808 C809 1.524 . S
C808 C822 1.377 . S
C809 C808 1.524 . S
C809 C810 1.397 . S
C809 C814 1.363 . S
C810 H787 0.950 . S
C810 C809 1.397 . S
C810 C811 1.334 . S
C811 H788 0.950 . S
C811 C810 1.334 . S
C811 C812 1.287 . S
C812 C811 1.287 . S
C812 C813 1.524 . S
C812 H831 0.913 . S
C813 H789 0.950 . S
C813 C812 1.524 . S
C813 C814 1.415 . S
C814 H790 0.950 . S
C814 C809 1.363 . S
C814 C813 1.415 . S
C815 H791 0.951 . S
C815 C816 1.366 . S
C815 C817 1.388 . S
C816 C815 1.366 . S
C816 C820 1.385 . S
C817 H792 0.951 . S
C817 C815 1.388 . S
C817 C818 1.366 . S
C818 C817 1.366 . S
C818 C819 1.414 . S
C818 C821 1.499 . S
C819 H793 0.950 . S
C819 C818 1.414 . S
C819 C820 1.374 . S
C820 H794 0.950 . S
C820 C816 1.385 . S
C820 C819 1.374 . S
C821 C818 1.499 . S
C821 C822 1.373 . S
C821 C823 1.389 . S
C822 H795 0.950 . S
C822 C808 1.377 . S
C822 C821 1.373 . S
C823 C807 1.377 . S
C823 C821 1.389 . S
C823 C824 1.524 . S
C824 C823 1.524 . S
C824 C825 1.397 . S
C824 C829 1.363 . S
C825 H796 0.950 . S
C825 C824 1.397 . S
C825 C826 1.334 . S
C826 H797 0.950 . S
C826 C825 1.334 . S
C826 C827 1.287 . S
C827 C826 1.287 . S
C827 C828 1.524 . S
C827 H830 0.999 . S
C828 H798 0.950 . S
C828 C827 1.524 . S
C828 C829 1.415 . S
C829 H799 0.950 . S
C829 C824 1.363 . S
C829 C828 1.415 . S
H830 C827 0.999 . S
H831 C812 0.913 . S
H832 C850 0.951 . S
H833 C852 0.951 . S
H834 C854 0.950 . S
H835 C855 0.950 . S
H836 C857 0.950 . S
H837 C860 0.950 . S
H838 C861 0.950 . S
H839 C863 0.950 . S
H840 C864 0.950 . S
H841 C865 0.951 . S
H842 C867 0.951 . S
H843 C869 0.950 . S
H844 C870 0.950 . S
H845 C872 0.950 . S
H846 C875 0.950 . S
H847 C876 0.950 . S
H848 C878 0.950 . S
H849 C879 0.950 . S
C850 H832 0.951 . S
C850 C851 1.366 . S
C850 C852 1.388 . S
C851 C850 1.366 . S
C851 C855 1.385 . S
C852 H833 0.951 . S
C852 C850 1.388 . S
C852 C853 1.366 . S
C853 C852 1.366 . S
C853 C854 1.414 . S
C853 C856 1.499 . S
C854 H834 0.950 . S
C854 C853 1.414 . S
C854 C855 1.374 . S
C855 H835 0.950 . S
C855 C851 1.385 . S
C855 C854 1.374 . S
C856 C853 1.499 . S
C856 C857 1.373 . S
C856 C858 1.389 . S
C857 H836 0.950 . S
C857 C856 1.373 . S
C857 C873 1.377 . S
C858 C856 1.389 . S
C858 C859 1.524 . S
C858 C872 1.377 . S
C859 C858 1.524 . S
C859 C860 1.397 . S
C859 C864 1.363 . S
C860 H837 0.950 . S
C860 C859 1.397 . S
C860 C861 1.334 . S
C861 H838 0.950 . S
C861 C860 1.334 . S
C861 C862 1.287 . S
C862 C861 1.287 . S
C862 C863 1.524 . S
C862 H881 0.913 . S
C863 H839 0.950 . S
C863 C862 1.524 . S
C863 C864 1.415 . S
C864 H840 0.950 . S
C864 C859 1.363 . S
C864 C863 1.415 . S
C865 H841 0.951 . S
C865 C866 1.366 . S
C865 C867 1.388 . S
C866 C865 1.366 . S
C866 C870 1.385 . S
C867 H842 0.951 . S
C867 C865 1.388 . S
C867 C868 1.366 . S
C868 C867 1.366 . S
C868 C869 1.414 . S
C868 C871 1.499 . S
C869 H843 0.950 . S
C869 C868 1.414 . S
C869 C870 1.374 . S
C870 H844 0.950 . S
C870 C866 1.385 . S
C870 C869 1.374 . S
C871 C868 1.499 . S
C871 C872 1.373 . S
C871 C873 1.389 . S
C872 H845 0.950 . S
C872 C858 1.377 . S
C872 C871 1.373 . S
C873 C857 1.377 . S
C873 C871 1.389 . S
C873 C874 1.524 . S
C874 C873 1.524 . S
C874 C875 1.397 . S
C874 C879 1.363 . S
C875 H846 0.950 . S
C875 C874 1.397 . S
C875 C876 1.334 . S
C876 H847 0.950 . S
C876 C875 1.334 . S
C876 C877 1.287 . S
C877 C876 1.287 . S
C877 C878 1.524 . S
C877 H880 0.999 . S
C878 H848 0.950 . S
C878 C877 1.524 . S
C878 C879 1.415 . S
C879 H849 0.950 . S
C879 C874 1.363 . S
C879 C878 1.415 . S
H880 C877 0.999 . S
H881 C862 0.913 . S
H882 C900 0.951 . S
H883 C902 0.951 . S
H884 C904 0.950 . S
H885 C905 0.950 . S
H886 C907 0.950 . S
H887 C910 0.936 1_556 S
H888 C911 0.935 1_556 S
H889 C913 0.950 . S
H890 C914 0.950 . S
H891 C915 0.951 . S
H892 C917 0.951 . S
H893 C919 0.950 . S
H894 C920 0.950 . S
H895 C922 0.950 . S
H896 C925 0.938 1_554 S
H897 C926 0.935 1_554 S
H898 C928 0.950 . S
H899 C929 0.950 . S
C900 H882 0.951 . S
C900 C901 1.366 . S
C900 C902 1.388 . S
C901 C900 1.366 . S
C901 C905 1.385 . S
C902 H883 0.951 . S
C902 C900 1.388 . S
C902 C903 1.366 . S
C903 C902 1.366 . S
C903 C904 1.414 . S
C903 C906 1.499 . S
C904 H884 0.950 . S
C904 C903 1.414 . S
C904 C905 1.374 . S
C905 H885 0.950 . S
C905 C901 1.385 . S
C905 C904 1.374 . S
C906 C903 1.499 . S
C906 C907 1.373 . S
C906 C908 1.389 . S
C907 H886 0.950 . S
C907 C906 1.373 . S
C907 C923 1.377 1_554 S
C908 C906 1.389 . S
C908 C909 1.524 . S
C908 C922 1.377 1_554 S
C909 C908 1.524 . S
C909 C910 1.409 . S
C909 C914 1.363 . S
C910 H887 0.936 1_554 S
C910 C909 1.409 . S
C910 C911 1.337 . S
C911 H888 0.935 1_554 S
C911 C910 1.337 . S
C911 C912 1.287 . S
C912 C911 1.287 . S
C912 C913 1.524 . S
C912 H931 0.913 . S
C913 H889 0.950 . S
C913 C912 1.524 . S
C913 C914 1.415 . S
C914 H890 0.950 . S
C914 C909 1.363 . S
C914 C913 1.415 . S
C915 H891 0.951 . S
C915 C916 1.366 . S
C915 C917 1.388 . S
C916 C915 1.366 . S
C916 C920 1.385 . S
C917 H892 0.951 . S
C917 C915 1.388 . S
C917 C918 1.366 . S
C918 C917 1.366 . S
C918 C919 1.414 . S
C918 C921 1.499 . S
C919 H893 0.950 . S
C919 C918 1.414 . S
C919 C920 1.374 . S
C920 H894 0.950 . S
C920 C916 1.385 . S
C920 C919 1.374 . S
C921 C918 1.499 . S
C921 C922 1.373 . S
C921 C923 1.389 . S
C922 H895 0.950 . S
C922 C908 1.377 1_556 S
C922 C921 1.373 . S
C923 C907 1.377 1_556 S
C923 C921 1.389 . S
C923 C924 1.524 . S
C924 C923 1.524 . S
C924 C925 1.407 . S
C924 C929 1.363 . S
C925 H896 0.938 1_556 S
C925 C924 1.407 . S
C925 C926 1.336 . S
C926 H897 0.935 1_556 S
C926 C925 1.336 . S
C926 C927 1.287 . S
C927 C926 1.287 . S
C927 C928 1.524 . S
C927 H930 0.999 . S
C928 H898 0.950 . S
C928 C927 1.524 . S
C928 C929 1.415 . S
C929 H899 0.950 . S
C929 C924 1.363 . S
C929 C928 1.415 . S
H930 C927 0.999 . S
H931 C912 0.913 . S
H932 C950 0.951 . S
H933 C952 0.951 . S
H934 C954 0.950 . S
H935 C955 0.950 . S
H936 C957 0.950 . S
H937 C960 0.950 . S
H938 C961 0.950 . S
H939 C963 0.950 . S
H940 C964 0.950 . S
H941 C965 0.951 . S
H942 C967 0.951 . S
H943 C969 0.950 . S
H944 C970 0.950 . S
H945 C972 0.950 . S
H946 C975 0.950 . S
H947 C976 0.950 . S
H948 C978 0.950 . S
H949 C979 0.950 . S
C950 H932 0.951 . S
C950 C951 1.366 . S
C950 C952 1.388 . S
C951 C950 1.366 . S
C951 C955 1.385 . S
C952 H933 0.951 . S
C952 C950 1.388 . S
C952 C953 1.366 . S
C953 C952 1.366 . S
C953 C954 1.414 . S
C953 C956 1.499 . S
C954 H934 0.950 . S
C954 C953 1.414 . S
C954 C955 1.374 . S
C955 H935 0.950 . S
C955 C951 1.385 . S
C955 C954 1.374 . S
C956 C953 1.499 . S
C956 C957 1.373 . S
C956 C958 1.389 . S
C957 H936 0.950 . S
C957 C956 1.373 . S
C957 C973 1.377 . S
C958 C956 1.389 . S
C958 C959 1.524 . S
C958 C972 1.377 . S
C959 C958 1.524 . S
C959 C960 1.397 . S
C959 C964 1.363 . S
C960 H937 0.950 . S
C960 C959 1.397 . S
C960 C961 1.334 . S
C961 H938 0.950 . S
C961 C960 1.334 . S
C961 C962 1.287 . S
C962 C961 1.287 . S
C962 C963 1.524 . S
C962 H981 0.913 . S
C963 H939 0.950 . S
C963 C962 1.524 . S
C963 C964 1.415 . S
C964 H940 0.950 . S
C964 C959 1.363 . S
C964 C963 1.415 . S
C965 H941 0.951 . S
C965 C966 1.366 . S
C965 C967 1.388 . S
C966 C965 1.366 . S
C966 C970 1.385 . S
C967 H942 0.951 . S
C967 C965 1.388 . S
C967 C968 1.366 . S
C968 C967 1.366 . S
C968 C969 1.414 . S
C968 C971 1.499 . S
C969 H943 0.950 . S
C969 C968 1.414 . S
C969 C970 1.374 . S
C970 H944 0.950 . S
C970 C966 1.385 . S
C970 C969 1.374 . S
C971 C968 1.499 . S
C971 C972 1.373 . S
C971 C973 1.389 . S
C972 H945 0.950 . S
C972 C958 1.377 . S
C972 C971 1.373 . S
C973 C957 1.377 . S
C973 C971 1.389 . S
C973 C974 1.524 . S
C974 C973 1.524 . S
C974 C975 1.397 . S
C974 C979 1.363 . S
C975 H946 0.950 . S
C975 C974 1.397 . S
C975 C976 1.334 . S
C976 H947 0.950 . S
C976 C975 1.334 . S
C976 C977 1.287 . S
C977 C976 1.287 . S
C977 C978 1.524 . S
C977 H980 0.999 . S
C978 H948 0.950 . S
C978 C977 1.524 . S
C978 C979 1.415 . S
C979 H949 0.950 . S
C979 C974 1.363 . S
C979 C978 1.415 . S
H980 C977 0.999 . S
H981 C962 0.913 . S
H982 C1000 0.951 . S
H983 C1002 0.951 . S
H984 C1004 0.950 . S
H985 C1005 0.950 . S
H986 C1007 0.950 . S
H987 C1010 0.950 . S
H988 C1011 0.950 . S
H989 C1013 0.950 . S
H990 C1014 0.950 . S
H991 C1015 0.951 . S
H992 C1017 0.951 . S
H993 C1019 0.950 . S
H994 C1020 0.950 . S
H995 C1022 0.950 . S
H996 C1025 0.950 . S
H997 C1026 0.950 . S
H998 C1028 0.950 . S
H999 C1029 0.950 . S
C1000 H982 0.951 . S
C1000 C1001 1.366 . S
C1000 C1002 1.388 . S
C1001 C1000 1.366 . S
C1001 C1005 1.385 . S
C1002 H983 0.951 . S
C1002 C1000 1.388 . S
C1002 C1003 1.366 . S
C1003 C1002 1.366 . S
C1003 C1004 1.414 . S
C1003 C1006 1.499 . S
C1004 H984 0.950 . S
C1004 C1003 1.414 . S
C1004 C1005 1.374 . S
C1005 H985 0.950 . S
C1005 C1001 1.385 . S
C1005 C1004 1.374 . S
C1006 C1003 1.499 . S
C1006 C1007 1.373 . S
C1006 C1008 1.389 . S
C1007 H986 0.950 . S
C1007 C1006 1.373 . S
C1007 C1023 1.377 . S
C1008 C1006 1.389 . S
C1008 C1009 1.524 . S
C1008 C1022 1.377 . S
C1009 C1008 1.524 . S
C1009 C1010 1.397 . S
C1009 C1014 1.363 . S
C1010 H987 0.950 . S
C1010 C1009 1.397 . S
C1010 C1011 1.334 . S
C1011 H988 0.950 . S
C1011 C1010 1.334 . S
C1011 C1012 1.287 . S
C1012 C1011 1.287 . S
C1012 C1013 1.524 . S
C1012 H1031 0.913 . S
C1013 H989 0.950 . S
C1013 C1012 1.524 . S
C1013 C1014 1.415 . S
C1014 H990 0.950 . S
C1014 C1009 1.363 . S
C1014 C1013 1.415 . S
C1015 H991 0.951 . S
C1015 C1016 1.366 . S
C1015 C1017 1.388 . S
C1016 C1015 1.366 . S
C1016 C1020 1.385 . S
C1017 H992 0.951 . S
C1017 C1015 1.388 . S
C1017 C1018 1.366 . S
C1018 C1017 1.366 . S
C1018 C1019 1.414 . S
C1018 C1021 1.499 . S
C1019 H993 0.950 . S
C1019 C1018 1.414 . S
C1019 C1020 1.374 . S
C1020 H994 0.950 . S
C1020 C1016 1.385 . S
C1020 C1019 1.374 . S
C1021 C1018 1.499 . S
C1021 C1022 1.373 . S
C1021 C1023 1.389 . S
C1022 H995 0.950 . S
C1022 C1008 1.377 . S
C1022 C1021 1.373 . S
C1023 C1007 1.377 . S
C1023 C1021 1.389 . S
C1023 C1024 1.524 . S
C1024 C1023 1.524 . S
C1024 C1025 1.397 . S
C1024 C1029 1.363 . S
C1025 H996 0.950 . S
C1025 C1024 1.397 . S
C1025 C1026 1.334 . S
C1026 H997 0.950 . S
C1026 C1025 1.334 . S
C1026 C1027 1.287 . S
C1027 C1026 1.287 . S
C1027 C1028 1.524 . S
C1027 H1030 0.999 . S
C1028 H998 0.950 . S
C1028 C1027 1.524 . S
C1028 C1029 1.415 . S
C1029 H999 0.950 . S
C1029 C1024 1.363 . S
C1029 C1028 1.415 . S
H1030 C1027 0.999 . S
H1031 C1012 0.913 . S
C151 C40 1.552 . S
C166 C7 1.552 . S
C201 C18 1.554 . S
C216 C51 1.554 . S
C251 C62 1.554 . S
C266 C29 1.554 . S
C301 C73 1.552 . S
C316 C106 1.552 . S
C351 C117 1.554 . S
C366 C84 1.553 . S
C401 C95 1.553 . S
C416 C128 1.553 . S
C451 C126 1.312 . S
C466 C5 1.311 . S
C501 C16 1.312 . S
C516 C71 1.311 . S
C551 C27 1.312 . S
C566 C82 1.313 . S
C601 C93 1.313 . S
C616 C38 1.314 . S
C651 C49 1.312 . S
C666 C104 1.313 . S
C701 C115 1.312 . S
C716 C60 1.313 . S
C751 C118 1.643 . S
C766 C8 1.644 . S
C801 C129 1.645 . S
C816 C19 1.645 . S
C851 C30 1.643 . S
C866 C74 1.644 . S
C901 C41 1.644 . S
C916 C85 1.643 . S
C951 C52 1.645 . S
C966 C96 1.644 . S
C1001 C63 1.644 . S
C1016 C107 1.645 . S
