# Generated by pormake.
# Topology mon, (4)-cn, num edge types: 1
# Building blocks:
#     Node 0, Type 0, BuildingBlock: UXUYUI_clean_sbu_0, # of connection points: 4
#     Node 1, Type 0, BuildingBlock: UXUYUI_clean_sbu_0, # of connection points: 4
#     Node 2, Type 0, BuildingBlock: UXUYUI_clean_sbu_0, # of connection points: 4
#     Node 3, Type 0, BuildingBlock: UXUYUI_clean_sbu_0, # of connection points: 4
#     Node 4, Type 0, BuildingBlock: UXUYUI_clean_sbu_0, # of connection points: 4
#     Node 5, Type 0, BuildingBlock: UXUYUI_clean_sbu_0, # of connection points: 4
#     Node 6, Type 0, BuildingBlock: UXUYUI_clean_sbu_0, # of connection points: 4
#     Node 7, Type 0, BuildingBlock: UXUYUI_clean_sbu_0, # of connection points: 4
#     Node 8, Type 0, BuildingBlock: UXUYUI_clean_sbu_0, # of connection points: 4
#     Node 9, Type 0, BuildingBlock: UXUYUI_clean_sbu_0, # of connection points: 4
#     Node 10, Type 0, BuildingBlock: UXUYUI_clean_sbu_0, # of connection points: 4
#     Node 11, Type 0, BuildingBlock: UXUYUI_clean_sbu_0, # of connection points: 4
#     Node 12, Type 0, BuildingBlock: UXUYUI_clean_sbu_0, # of connection points: 4
#     Node 13, Type 0, BuildingBlock: UXUYUI_clean_sbu_0, # of connection points: 4
#     Node 14, Type 0, BuildingBlock: UXUYUI_clean_sbu_0, # of connection points: 4
#     Node 15, Type 0, BuildingBlock: UXUYUI_clean_sbu_0, # of connection points: 4
#     Edge 16, Type (0, 0), BuildingBlock: XIVTED_clean_linker_0, # of connection points: 2
#     Edge 17, Type (0, 0), BuildingBlock: XIVTED_clean_linker_0, # of connection points: 2
#     Edge 18, Type (0, 0), BuildingBlock: XIVTED_clean_linker_0, # of connection points: 2
#     Edge 19, Type (0, 0), BuildingBlock: XIVTED_clean_linker_0, # of connection points: 2
#     Edge 20, Type (0, 0), BuildingBlock: XIVTED_clean_linker_0, # of connection points: 2
#     Edge 21, Type (0, 0), BuildingBlock: XIVTED_clean_linker_0, # of connection points: 2
#     Edge 22, Type (0, 0), BuildingBlock: XIVTED_clean_linker_0, # of connection points: 2
#     Edge 23, Type (0, 0), BuildingBlock: XIVTED_clean_linker_0, # of connection points: 2
#     Edge 24, Type (0, 0), BuildingBlock: XIVTED_clean_linker_0, # of connection points: 2
#     Edge 25, Type (0, 0), BuildingBlock: XIVTED_clean_linker_0, # of connection points: 2
#     Edge 26, Type (0, 0), BuildingBlock: XIVTED_clean_linker_0, # of connection points: 2
#     Edge 27, Type (0, 0), BuildingBlock: XIVTED_clean_linker_0, # of connection points: 2
#     Edge 28, Type (0, 0), BuildingBlock: XIVTED_clean_linker_0, # of connection points: 2
#     Edge 29, Type (0, 0), BuildingBlock: XIVTED_clean_linker_0, # of connection points: 2
#     Edge 30, Type (0, 0), BuildingBlock: XIVTED_clean_linker_0, # of connection points: 2
#     Edge 31, Type (0, 0), BuildingBlock: XIVTED_clean_linker_0, # of connection points: 2
#     Edge 32, Type (0, 0), BuildingBlock: XIVTED_clean_linker_0, # of connection points: 2
#     Edge 33, Type (0, 0), BuildingBlock: XIVTED_clean_linker_0, # of connection points: 2
#     Edge 34, Type (0, 0), BuildingBlock: XIVTED_clean_linker_0, # of connection points: 2
#     Edge 35, Type (0, 0), BuildingBlock: XIVTED_clean_linker_0, # of connection points: 2
#     Edge 36, Type (0, 0), BuildingBlock: XIVTED_clean_linker_0, # of connection points: 2
#     Edge 37, Type (0, 0), BuildingBlock: XIVTED_clean_linker_0, # of connection points: 2
#     Edge 38, Type (0, 0), BuildingBlock: XIVTED_clean_linker_0, # of connection points: 2
#     Edge 39, Type (0, 0), BuildingBlock: XIVTED_clean_linker_0, # of connection points: 2
#     Edge 40, Type (0, 0), BuildingBlock: XIVTED_clean_linker_0, # of connection points: 2
#     Edge 41, Type (0, 0), BuildingBlock: XIVTED_clean_linker_0, # of connection points: 2
#     Edge 42, Type (0, 0), BuildingBlock: XIVTED_clean_linker_0, # of connection points: 2
#     Edge 43, Type (0, 0), BuildingBlock: XIVTED_clean_linker_0, # of connection points: 2
#     Edge 44, Type (0, 0), BuildingBlock: XIVTED_clean_linker_0, # of connection points: 2
#     Edge 45, Type (0, 0), BuildingBlock: XIVTED_clean_linker_0, # of connection points: 2
#     Edge 46, Type (0, 0), BuildingBlock: XIVTED_clean_linker_0, # of connection points: 2
#     Edge 47, Type (0, 0), BuildingBlock: XIVTED_clean_linker_0, # of connection points: 2
# Relax obj value: 0.204
# Max RMSD: 0.157
# Mean RMSD: 0.156
data_MOF--net-mon--node1-UXUYUI_clean_sbu_0--edge1-XIVTED_clean_linker_0
_symmetry_space_group_name_H-M    P1
_symmetry_Int_Tables_number       1
_symmetry_cell_setting            triclinic
loop_
_symmetry_equiv_pos_as_xyz
'x, y, z'
_cell_length_a     50.003539
_cell_length_b     49.891029
_cell_length_c     123.40839
_cell_angle_alpha  89.973368
_cell_angle_beta   90.019028
_cell_angle_gamma 90.021919
loop_
_atom_site_label
_atom_site_type_symbol
_atom_site_fract_x
_atom_site_fract_y
_atom_site_fract_z
_atom_type_partial_charge
Li0 Li 0.01075 0.01886 0.57499 0.0
Li1 Li 0.00361 0.05251 0.58958 0.0
Li2 Li 0.03667 0.01732 0.59222 0.0
Li3 Li 0.99038 0.00791 0.5924 0.0
C4 C 0.06165 0.05531 0.58165 0.0
N5 N 0.11383 0.07241 0.58423 0.0
C6 C 0.06743 0.0769 0.58847 0.0
C7 C 0.08241 0.04238 0.57616 0.0
C8 C 0.09394 0.08527 0.58965 0.0
C9 C 0.10865 0.05132 0.57757 0.0
C10 C 0.95936 0.0515 0.57789 0.0
C11 C 0.92354 0.08236 0.58182 0.0
N12 N 0.92546 0.09237 0.57159 0.0
C13 C 0.96087 0.06198 0.5674 0.0
C14 C 0.94044 0.06163 0.58514 0.0
C15 C 0.94358 0.08267 0.56438 0.0
C16 C 0.99094 -0.00203 0.5555 0.0
N17 N 0.01104 0.01268 0.55991 0.0
C18 C 0.03107 0.01895 0.54254 0.0
C19 C 0.03076 0.02338 0.5537 0.0
C20 C 0.01072 0.00359 0.53773 0.0
C21 C 0.99039 0.99311 0.54437 0.0
H22 H 0.97515 0.99031 0.56062 0.0
H23 H 0.04618 0.03545 0.5574 0.0
C24 C 0.99287 0.09818 0.60229 0.0
N25 N -0.00343 0.08914 0.59202 0.0
C26 C 0.98898 0.12543 0.60422 0.0
C27 C 0.99273 0.13344 0.58494 0.0
C28 C -0.00322 0.10608 0.5834 0.0
C29 C 0.98896 0.14339 0.59547 0.0
H30 H 0.9935 0.08435 0.60902 0.0
H31 H 0.00058 0.09836 0.57537 0.0
C32 C 0.01367 0.96175 0.58685 0.0
N33 N 0.00181 0.9091 0.59189 0.0
C34 C 0.02712 0.94882 0.59531 0.0
C35 C 0.99431 0.94785 0.58093 0.0
C36 C 0.02083 0.9222 0.59773 0.0
C37 C 0.98854 0.92127 0.58362 0.0
C38 C -0.00018 0.02429 0.61241 0.0
C39 C 0.01435 0.00829 0.61962 0.0
C40 C 0.97424 0.03309 0.61528 0.0
C41 C 0.00293 0.00119 0.62955 0.0
C42 C 0.9635 0.0255 0.62527 0.0
N43 N 0.97795 0.00985 0.63214 0.0
C44 C 0.07872 0.02311 0.60713 0.0
C45 C 0.08592 0.99037 0.59351 0.0
C46 C 0.10234 0.01577 0.61235 0.0
N47 N 0.07065 0.00976 0.59811 0.0
C48 C 0.10978 0.98251 0.59841 0.0
C49 C 0.11779 0.99474 0.60813 0.0
H50 H 0.06625 0.03876 0.61048 0.0
H51 H 0.07901 0.98032 0.58626 0.0
C52 C 0.93783 0.98852 0.59464 0.0
N53 N 0.96306 0.9859 0.5986 0.0
C54 C 0.91695 0.97338 0.59898 0.0
C55 C 0.94846 0.95285 0.6113 0.0
C56 C 0.96869 0.96834 0.60671 0.0
C57 C 0.92216 0.95535 0.60746 0.0
H58 H 0.93387 0.00242 0.58812 0.0
H59 H 0.98889 0.96633 0.60967 0.0
O60 O 0.03591 0.04634 0.58062 0.0
O61 O 0.97636 0.0315 0.58106 0.0
O62 O 0.01946 0.98785 0.58439 0.0
O63 O 0.01066 0.03146 0.60265 0.0
H64 H 0.05168 0.08695 0.59289 0.0
H65 H 0.07838 0.02525 0.57103 0.0
H66 H 0.09871 0.10192 0.59492 0.0
H67 H 0.12492 0.0414 0.57342 0.0
H68 H 0.90891 0.0905 0.58737 0.0
H69 H 0.97543 0.05447 0.56168 0.0
H70 H 0.93891 0.05367 0.59327 0.0
H71 H 0.94464 0.09108 0.55631 0.0
H72 H 0.04724 0.02726 0.53777 0.0
H73 H 0.97401 0.98164 0.54098 0.0
H74 H 0.98619 0.13239 0.61245 0.0
H75 H 0.9934 0.14675 0.57801 0.0
H76 H 0.04189 0.95933 0.60009 0.0
H77 H 0.98365 0.95756 0.5744 0.0
H78 H 0.03095 0.91201 0.60429 0.0
H79 H 0.97349 0.91032 0.57914 0.0
H80 H 0.03404 0.00103 0.61752 0.0
H81 H 0.96269 0.04542 0.6098 0.0
H82 H 0.01388 0.98869 0.63517 0.0
H83 H 0.94366 0.03203 0.62756 0.0
H84 H 0.10802 0.02582 0.61978 0.0
H85 H 0.12099 0.96603 0.59495 0.0
H86 H 0.89691 0.97603 0.59582 0.0
H87 H 0.95345 0.93884 0.61769 0.0
Li88 Li 0.24044 0.75031 0.8424 0.0
Li89 Li 0.19696 0.77095 0.83919 0.0
Li90 Li 0.23306 0.77138 0.82512 0.0
Li91 Li 0.23605 0.80036 0.84101 0.0
C92 C 0.21315 0.71293 0.8316 0.0
N93 N 0.21312 0.65756 0.83252 0.0
C94 C 0.19077 0.69921 0.83552 0.0
C95 C 0.23536 0.69844 0.828 0.0
C96 C 0.19118 0.67123 0.83595 0.0
C97 C 0.23502 0.67048 0.82858 0.0
C98 C 0.20745 0.77985 0.86141 0.0
C99 C 0.18439 0.80961 0.87365 0.0
N100 N 0.181 0.78898 0.88073 0.0
C101 C 0.20412 0.75906 0.86888 0.0
C102 C 0.19784 0.80543 0.86388 0.0
C103 C 0.19053 0.76402 0.87857 0.0
C104 C 0.28566 0.72291 0.84982 0.0
N105 N 0.2585 0.72236 0.84979 0.0
C106 C 0.25826 0.68164 0.85998 0.0
C107 C 0.24466 0.70247 0.85482 0.0
C108 C 0.28633 0.6816 0.86007 0.0
C109 C 0.30006 0.70264 0.85495 0.0
H110 H 0.29614 0.7391 0.84584 0.0
H111 H 0.22305 0.7027 0.85478 0.0
C112 C 0.14254 0.77997 0.83482 0.0
N113 N 0.15977 0.7676 0.84171 0.0
C114 C 0.11502 0.77744 0.83628 0.0
C115 C 0.12347 0.74876 0.85172 0.0
C116 C 0.15083 0.75208 0.85001 0.0
C117 C 0.10522 0.76158 0.8448 0.0
H118 H 0.15017 0.7915 0.82808 0.0
H119 H 0.16494 0.7417 0.85513 0.0
C120 C 0.28495 0.77989 0.82794 0.0
N121 N 0.32636 0.787 0.81339 0.0
C122 C 0.29458 0.80561 0.82572 0.0
C123 C 0.29663 0.75775 0.82287 0.0
C124 C 0.31548 0.8088 0.81832 0.0
C125 C 0.31746 0.76177 0.8155 0.0
C126 C 0.19748 0.82577 0.82814 0.0
C127 C 0.20291 0.84072 0.81881 0.0
C128 C 0.18053 0.83632 0.83606 0.0
C129 C 0.19174 0.86623 0.81768 0.0
C130 C 0.16973 0.8619 0.83463 0.0
N131 N 0.17555 0.87622 0.82556 0.0
C132 C 0.23476 0.74543 0.80494 0.0
C133 C 0.25157 0.78983 0.80467 0.0
C134 C 0.24057 0.74229 0.79397 0.0
N135 N 0.24048 0.76884 0.81006 0.0
C136 C 0.2576 0.78763 0.79366 0.0
C137 C 0.25212 0.76357 0.78817 0.0
H138 H 0.22567 0.72915 0.80936 0.0
H139 H 0.25581 0.80828 0.80892 0.0
C140 C 0.25976 0.83053 0.85704 0.0
N141 N 0.2493 0.8328 0.84693 0.0
C142 C 0.27176 0.8525 0.86201 0.0
C143 C 0.26201 0.87893 0.84607 0.0
C144 C 0.2501 0.85639 0.8414 0.0
C145 C 0.27327 0.87705 0.85648 0.0
H146 H 0.25934 0.81138 0.86114 0.0
H147 H 0.24233 0.85755 0.83326 0.0
O148 O 0.2132 0.74036 0.83121 0.0
O149 O 0.22085 0.77532 0.8519 0.0
O150 O 0.26424 0.77641 0.83505 0.0
O151 O 0.20837 0.80078 0.82939 0.0
H152 H 0.17326 0.71002 0.83818 0.0
H153 H 0.25278 0.70868 0.82489 0.0
H154 H 0.17403 0.66038 0.83901 0.0
H155 H 0.25217 0.65905 0.82591 0.0
H156 H 0.17679 0.8293 0.87564 0.0
H157 H 0.21175 0.73924 0.8672 0.0
H158 H 0.20102 0.822 0.8584 0.0
H159 H 0.1876 0.74804 0.88437 0.0
H160 H 0.24697 0.66593 0.86395 0.0
H161 H 0.32171 0.70322 0.85477 0.0
H162 H 0.10156 0.78717 0.83064 0.0
H163 H 0.11666 0.73627 0.85834 0.0
H164 H 0.28587 0.82296 0.82959 0.0
H165 H 0.28962 0.73769 0.82456 0.0
H166 H 0.32301 0.82861 0.81647 0.0
H167 H 0.32655 0.74483 0.81147 0.0
H168 H 0.21567 0.83278 0.81253 0.0
H169 H 0.17544 0.82476 0.84316 0.0
H170 H 0.19592 0.87808 0.81053 0.0
H171 H 0.15662 0.8703 0.84072 0.0
H172 H 0.23628 0.72326 0.79013 0.0
H173 H 0.26611 0.80471 0.78948 0.0
H174 H 0.28072 0.84993 0.86994 0.0
H175 H 0.2628 0.89748 0.84152 0.0
Li176 Li 0.54313 0.97651 0.09178 0.0
Li177 Li 0.49455 0.97974 0.09052 0.0
Li178 Li 0.51727 0.93684 0.08956 0.0
Li179 Li 0.52003 0.96866 0.07465 0.0
C180 C 0.5113 0.9454 0.11022 0.0
N181 N 0.50047 0.90917 0.12658 0.0
C182 C 0.48512 0.94205 0.11394 0.0
C183 C 0.532 0.93045 0.11485 0.0
C184 C 0.48005 0.92362 0.12222 0.0
C185 C 0.5261 0.91219 0.1231 0.0
C186 C 0.51191 0.02707 0.08458 0.0
C187 C 0.48034 0.06191 0.08011 0.0
N188 N 0.49024 0.07715 0.08832 0.0
C189 C 0.52188 0.04313 0.09293 0.0
C190 C 0.49108 0.03657 0.07807 0.0
C191 C 0.51062 0.06838 0.09471 0.0
C192 C 0.59024 0.00735 0.092 0.0
N193 N 0.57286 0.99336 0.0983 0.0
C194 C 0.59299 0.01051 0.11439 0.0
C195 C 0.57409 0.9943 0.10929 0.0
C196 C 0.61073 0.02574 0.10809 0.0
C197 C 0.60972 0.02352 0.09676 0.0
H198 H 0.58814 0.00694 0.08328 0.0
H199 H 0.55956 0.98353 0.11409 0.0
C200 C 0.43993 0.99576 0.09186 0.0
N201 N 0.46472 -0.00208 0.09629 0.0
C202 C 0.41833 0.00916 0.09655 0.0
C203 C 0.44828 0.02644 0.11027 0.0
C204 C 0.46921 0.01268 0.10535 0.0
C205 C 0.4224 0.02471 0.1059 0.0
H206 H 0.43687 0.98343 0.08478 0.0
H207 H 0.48913 0.0137 0.10874 0.0
C208 C 0.57629 0.94743 0.08022 0.0
N209 N 0.63133 0.94979 0.07858 0.0
C210 C 0.58823 0.95782 0.07088 0.0
C211 C 0.59232 0.93804 0.08869 0.0
C212 C 0.61611 0.95887 0.07022 0.0
C213 C 0.62012 0.93949 0.08772 0.0
C214 C 0.47402 0.94278 0.07137 0.0
C215 C 0.47397 0.91595 0.06811 0.0
C216 C 0.46065 0.96191 0.06511 0.0
C217 C 0.46063 0.90873 0.0586 0.0
C218 C 0.44761 0.9539 0.05563 0.0
N219 N 0.44786 0.9277 0.0526 0.0
C220 C 0.48875 0.89122 0.09551 0.0
C221 C 0.53519 0.88372 0.093 0.0
C222 C 0.48456 0.86412 0.09762 0.0
N223 N 0.51368 0.90032 0.09315 0.0
C224 C 0.53194 0.85644 0.09511 0.0
C225 C 0.50628 0.84632 0.09728 0.0
H226 H 0.47205 0.90499 0.09552 0.0
H227 H 0.55473 0.89156 0.09102 0.0
C228 C 0.5254 -0.00206 0.05533 0.0
N229 N 0.52239 0.97284 0.05943 0.0
C230 C 0.52664 0.00186 0.04415 0.0
C231 C 0.52172 0.954 0.04166 0.0
C232 C 0.52124 0.95095 0.05289 0.0
C233 C 0.52439 0.97972 0.03722 0.0
H234 H 0.52681 0.01492 0.06073 0.0
H235 H 0.51972 0.93117 0.0564 0.0
O236 O 0.5166 0.96288 0.10196 0.0
O237 O 0.52224 0.00204 0.08286 0.0
O238 O 0.54904 0.94641 0.08106 0.0
O239 O 0.48715 0.95029 0.08061 0.0
H240 H 0.46883 0.95332 0.1104 0.0
H241 H 0.55235 0.93271 0.11202 0.0
H242 H 0.45987 0.92071 0.12515 0.0
H243 H 0.54189 0.90036 0.12671 0.0
H244 H 0.4641 0.06943 0.07519 0.0
H245 H 0.5379 0.0361 0.09808 0.0
H246 H 0.48315 0.02441 0.07157 0.0
H247 H 0.51803 0.08096 0.10118 0.0
H248 H 0.59321 0.0118 0.12315 0.0
H249 H 0.6228 0.03535 0.09165 0.0
H250 H 0.39863 0.007 0.09301 0.0
H251 H 0.45241 0.0385 0.11737 0.0
H252 H 0.57614 0.96513 0.06424 0.0
H253 H 0.58339 0.93006 0.09599 0.0
H254 H 0.62563 0.96696 0.06306 0.0
H255 H 0.63277 0.93248 0.09424 0.0
H256 H 0.48437 0.90088 0.07279 0.0
H257 H 0.46062 0.98278 0.06746 0.0
H258 H 0.46053 0.88806 0.05596 0.0
H259 H 0.43734 0.96853 0.05068 0.0
H260 H 0.46451 0.85711 0.09936 0.0
H261 H 0.54913 0.84329 0.09463 0.0
H262 H 0.5288 0.02196 0.04094 0.0
H263 H 0.52029 0.9365 0.0365 0.0
Li264 Li 0.27265 0.27403 0.34276 0.0
Li265 Li 0.31259 0.24784 0.33884 0.0
Li266 Li 0.27688 0.25257 0.32598 0.0
Li267 Li 0.27023 0.22565 0.34224 0.0
C268 C 0.3032 0.29682 0.32264 0.0
N269 N 0.30832 0.3269 0.30392 0.0
C270 C 0.32761 0.29774 0.31714 0.0
C271 C 0.28159 0.31172 0.31873 0.0
C272 C 0.32976 0.31293 0.30767 0.0
C273 C 0.28449 0.32664 0.30923 0.0
C274 C 0.30344 0.26096 0.36078 0.0
C275 C 0.31559 0.26446 0.37965 0.0
N276 N 0.32841 0.28792 0.37753 0.0
C277 C 0.31674 0.28515 0.3588 0.0
C278 C 0.30282 0.25055 0.37129 0.0
C279 C 0.32923 0.29846 0.36737 0.0
C280 C 0.24481 0.29971 0.35943 0.0
N281 N 0.25975 0.3043 0.35043 0.0
C282 C 0.25547 0.3516 0.3527 0.0
C283 C 0.26569 0.32957 0.34711 0.0
C284 C 0.23907 0.34749 0.3618 0.0
C285 C 0.23401 0.32109 0.36521 0.0
H286 H 0.24094 0.27935 0.362 0.0
H287 H 0.27836 0.33265 0.34013 0.0
C288 C 0.36336 0.24143 0.3304 0.0
N289 N 0.35024 0.24352 0.34 0.0
C290 C 0.39116 0.23978 0.33017 0.0
C291 C 0.39136 0.24028 0.34975 0.0
C292 C 0.36353 0.24205 0.3496 0.0
C293 C 0.40551 0.23972 0.33994 0.0
H294 H 0.35214 0.24128 0.32291 0.0
H295 H 0.35275 0.24237 0.35715 0.0
C296 C 0.22172 0.26183 0.33933 0.0
N297 N 0.17497 0.28335 0.34758 0.0
C298 C 0.20751 0.24832 0.34742 0.0
C299 C 0.21184 0.28613 0.33533 0.0
C300 C 0.18399 0.25954 0.3515 0.0
C301 C 0.18828 0.29674 0.33964 0.0
C302 C 0.30904 0.19566 0.3319 0.0
C303 C 0.31452 0.17866 0.32319 0.0
C304 C 0.31715 0.18837 0.34234 0.0
C305 C 0.32804 0.1546 0.32506 0.0
C306 C 0.33063 0.16415 0.34388 0.0
N307 N 0.33575 0.1479 0.33528 0.0
C308 C 0.28768 0.24204 0.3042 0.0
C309 C 0.24591 0.26329 0.30725 0.0
C310 C 0.28245 0.24043 0.29312 0.0
N311 N 0.26939 0.25314 0.31098 0.0
C312 C 0.24004 0.26249 0.2962 0.0
C313 C 0.25832 0.25063 0.28904 0.0
H314 H 0.30617 0.23413 0.30744 0.0
H315 H 0.23165 0.27173 0.31286 0.0
C316 C 0.25006 0.19144 0.35853 0.0
N317 N 0.25432 0.19424 0.34773 0.0
C318 C 0.23652 0.16902 0.36248 0.0
C319 C 0.23314 0.15235 0.34412 0.0
C320 C 0.24649 0.17522 0.34053 0.0
C321 C 0.22752 0.14925 0.35521 0.0
H322 H 0.25634 0.20709 0.36403 0.0
H323 H 0.25027 0.17807 0.33198 0.0
O324 O 0.30052 0.28166 0.33185 0.0
O325 O 0.2906 0.24771 0.35258 0.0
O326 O 0.24503 0.25129 0.33533 0.0
O327 O 0.29589 0.21932 0.33014 0.0
H328 H 0.34483 0.28711 0.32018 0.0
H329 H 0.26268 0.31154 0.32293 0.0
H330 H 0.34852 0.31369 0.30331 0.0
H331 H 0.2678 0.338 0.30607 0.0
H332 H 0.31528 0.2566 0.38782 0.0
H333 H 0.31752 0.29359 0.35074 0.0
H334 H 0.29261 0.23189 0.37299 0.0
H335 H 0.3396 0.31717 0.36595 0.0
H336 H 0.26035 0.3716 0.34992 0.0
H337 H 0.22127 0.3169 0.37209 0.0
H338 H 0.40132 0.23863 0.32243 0.0
H339 H 0.4017 0.24007 0.35747 0.0
H340 H 0.21454 0.22943 0.35057 0.0
H341 H 0.22231 0.29688 0.32905 0.0
H342 H 0.17293 0.24934 0.35781 0.0
H343 H 0.1806 0.31564 0.33668 0.0
H344 H 0.30838 0.18401 0.31506 0.0
H345 H 0.31314 0.20124 0.3492 0.0
H346 H 0.33241 0.14124 0.31839 0.0
H347 H 0.33702 0.15827 0.35191 0.0
H348 H 0.29708 0.23131 0.2878 0.0
H349 H 0.22113 0.27035 0.29334 0.0
H350 H 0.23228 0.16773 0.37106 0.0
H351 H 0.22701 0.13744 0.33825 0.0
Li352 Li 0.97777 0.97402 0.40435 0.0
Li353 Li 0.0275 0.97326 0.40322 0.0
Li354 Li 0.00319 0.93112 0.40497 0.0
Li355 Li 0.00672 0.9616 0.41955 0.0
C356 C -0.00402 0.94444 0.38397 0.0
N357 N 0.98596 0.91406 0.36572 0.0
C358 C 0.01668 0.9386 0.37674 0.0
C359 C 0.97017 0.93499 0.38191 0.0
C360 C 0.01121 0.92318 0.36756 0.0
C361 C 0.96552 0.91961 0.37264 0.0
C362 C 0.0173 0.02026 0.41158 0.0
C363 C 0.05551 0.04767 0.41601 0.0
N364 N 0.04577 0.06747 0.40955 0.0
C365 C 0.00753 0.04097 0.40506 0.0
C366 C 0.04134 0.0237 0.41719 0.0
C367 C 0.02226 0.06466 0.40411 0.0
C368 C 0.92234 0.98714 0.40303 0.0
N369 N 0.94705 0.99058 0.39865 0.0
C370 C 0.92931 0.01802 0.38456 0.0
C371 C 0.95086 0.00541 0.38956 0.0
C372 C 0.90354 0.0152 0.38895 0.0
C373 C 0.90015 -0.0005 0.3983 0.0
H374 H 0.91982 0.97464 0.4101 0.0
H375 H 0.97075 0.0074 0.3862 0.0
C376 C 0.08194 0.98541 0.39942 0.0
N377 N 0.0564 0.99023 0.39622 0.0
C378 C 0.1031 -0.00092 0.39455 0.0
C379 C 0.0712 0.0219 0.38305 0.0
C380 C 0.0507 0.0077 0.3881 0.0
C381 C 0.09783 0.01782 0.38631 0.0
H382 H 0.08583 0.97114 0.40582 0.0
H383 H 0.03013 0.01098 0.38573 0.0
C384 C 0.96206 0.93687 0.42399 0.0
N385 N 0.9406 0.92551 0.44411 0.0
C386 C 0.96501 0.91132 0.42849 0.0
C387 C 0.94821 0.95664 0.42972 0.0
C388 C 0.95396 0.90596 0.43866 0.0
C389 C 0.93754 0.95051 0.43989 0.0
C390 C 0.05051 0.93002 0.42032 0.0
C391 C 0.04704 0.9027 0.42243 0.0
C392 C 0.06879 0.94481 0.42647 0.0
C393 C 0.06173 0.89069 0.43075 0.0
C394 C 0.08305 0.93207 0.43473 0.0
N395 N 0.07925 0.90551 0.43669 0.0
C396 C 0.02326 0.88603 0.39423 0.0
C397 C 0.97936 0.881 0.4012 0.0
C398 C 0.02279 0.85999 0.39014 0.0
N399 N 0.00184 0.89578 0.39971 0.0
C400 C 0.97822 0.85468 0.39745 0.0
C401 C 0.00022 0.84371 0.3919 0.0
H402 H 0.04068 0.89854 0.39304 0.0
H403 H 0.96243 0.88958 0.40539 0.0
C404 C 0.00532 0.99045 0.43904 0.0
N405 N 0.00916 0.9654 0.43501 0.0
C406 C 0.00595 0.99496 0.45018 0.0
C407 C 0.01419 0.94773 0.4529 0.0
C408 C 0.01326 0.94412 0.4417 0.0
C409 C 0.01052 0.97345 0.45728 0.0
H410 H 0.00128 0.00694 0.43361 0.0
H411 H 0.01546 0.92425 0.43839 0.0
O412 O 0.00109 0.9589 0.39313 0.0
O413 O 0.00355 -0.00337 0.4124 0.0
O414 O 0.97311 0.94265 0.41412 0.0
O415 O 0.03655 0.94206 0.41212 0.0
H416 H 0.03678 0.94574 0.37827 0.0
H417 H 0.95399 0.93922 0.38747 0.0
H418 H 0.02704 0.91839 0.36191 0.0
H419 H 0.94568 0.91202 0.37096 0.0
H420 H 0.07426 0.0505 0.42023 0.0
H421 H 0.98887 0.03874 0.40073 0.0
H422 H 0.0491 0.00792 0.4223 0.0
H423 H 0.01503 0.08079 0.39904 0.0
H424 H 0.93287 0.03021 0.37744 0.0
H425 H 0.88056 -0.00345 0.40184 0.0
H426 H 0.12335 0.99502 0.3972 0.0
H427 H 0.06613 0.03642 0.37686 0.0
H428 H 0.97609 0.89591 0.42428 0.0
H429 H 0.94621 0.97667 0.42645 0.0
H430 H 0.9562 0.88632 0.44227 0.0
H431 H 0.92695 0.96567 0.44444 0.0
H432 H 0.03299 0.89092 0.41778 0.0
H433 H 0.07182 0.96592 0.42493 0.0
H434 H 0.05914 0.86961 0.43251 0.0
H435 H 0.09713 0.94331 0.4396 0.0
H436 H 0.04 0.85272 0.38571 0.0
H437 H 0.96053 0.84294 0.39918 0.0
H438 H 0.00237 0.01502 0.45319 0.0
H439 H 0.01788 0.93056 0.45806 0.0
Li440 Li 0.27406 0.78367 0.65466 0.0
Li441 Li 0.28453 0.7553 0.67018 0.0
Li442 Li 0.31315 0.75642 0.6542 0.0
Li443 Li 0.26962 0.73484 0.6537 0.0
C444 C 0.3073 0.81227 0.66666 0.0
N445 N 0.30886 0.86659 0.67097 0.0
C446 C 0.29891 0.82196 0.67673 0.0
C447 C 0.31665 0.83019 0.65881 0.0
C448 C 0.29984 0.8495 0.67875 0.0
C449 C 0.31721 0.85758 0.66114 0.0
C450 C 0.22392 0.75223 0.66185 0.0
C451 C 0.18886 0.71993 0.66499 0.0
N452 N 0.17209 0.73468 0.65868 0.0
C453 C 0.20631 0.76713 0.65543 0.0
C454 C 0.21511 0.72851 0.66672 0.0
C455 C 0.18019 0.7579 0.65392 0.0
C456 C 0.25926 0.82341 0.6397 0.0
N457 N 0.25895 0.81671 0.65035 0.0
C458 C 0.23679 0.85757 0.65487 0.0
C459 C 0.24783 0.83304 0.65792 0.0
C460 C 0.23666 0.86505 0.64388 0.0
C461 C 0.24814 0.84756 0.63626 0.0
H462 H 0.26776 0.80978 0.63383 0.0
H463 H 0.24753 0.82694 0.66633 0.0
C464 C 0.30628 0.75476 0.69144 0.0
N465 N 0.28342 0.75333 0.6855 0.0
C466 C 0.30518 0.75359 0.70273 0.0
C467 C 0.25703 0.75002 0.70154 0.0
C468 C 0.25909 0.75117 0.6903 0.0
C469 C 0.28027 0.75118 0.70792 0.0
H470 H 0.32534 0.7569 0.68738 0.0
H471 H 0.24121 0.7507 0.6854 0.0
C472 C 0.29939 0.75651 0.63361 0.0
N473 N 0.33008 0.74946 0.61522 0.0
C474 C 0.2988 0.7321 0.62806 0.0
C475 C 0.31542 0.77741 0.62976 0.0
C476 C 0.31449 0.72892 0.61878 0.0
C477 C 0.33086 0.77341 0.62046 0.0
C478 C 0.31103 0.71005 0.67072 0.0
C479 C 0.33826 0.7115 0.6732 0.0
C480 C 0.2941 0.69428 0.67709 0.0
C481 C 0.3481 0.69723 0.68209 0.0
C482 C 0.30471 0.68037 0.68593 0.0
N483 N 0.33126 0.68212 0.68822 0.0
C484 C 0.36581 0.77434 0.6513 0.0
C485 C 0.35653 0.73163 0.64375 0.0
C486 C 0.39224 0.77288 0.64781 0.0
N487 N 0.34865 0.75392 0.6492 0.0
C488 C 0.38276 0.7294 0.64003 0.0
C489 C 0.40105 0.75016 0.6421 0.0
H490 H 0.35911 0.79155 0.65585 0.0
H491 H 0.34242 0.71557 0.64234 0.0
C492 C 0.22955 0.71091 0.6408 0.0
N493 N 0.2502 0.70592 0.64767 0.0
C494 C 0.21434 0.68978 0.63671 0.0
C495 C 0.24304 0.65874 0.64629 0.0
C496 C 0.2574 0.6805 0.65034 0.0
C497 C 0.221 0.66335 0.63951 0.0
H498 H 0.22473 0.73133 0.63861 0.0
H499 H 0.27423 0.67712 0.65567 0.0
O500 O 0.30629 0.7854 0.66449 0.0
O501 O 0.24967 0.76078 0.66332 0.0
O502 O 0.28447 0.75989 0.64279 0.0
O503 O 0.30093 0.72418 0.66215 0.0
H504 H 0.29154 0.80843 0.68289 0.0
H505 H 0.32303 0.82305 0.65095 0.0
H506 H 0.29331 0.8573 0.68648 0.0
H507 H 0.32419 0.87169 0.65511 0.0
H508 H 0.18184 0.70151 0.66864 0.0
H509 H 0.21278 0.7855 0.65158 0.0
H510 H 0.22854 0.71664 0.67165 0.0
H511 H 0.16638 0.76916 0.64894 0.0
H512 H 0.22837 0.87044 0.66105 0.0
H513 H 0.24788 0.85205 0.62768 0.0
H514 H 0.32359 0.75444 0.70734 0.0
H515 H 0.23737 0.74881 0.70518 0.0
H516 H 0.28655 0.7157 0.63093 0.0
H517 H 0.3162 0.79639 0.63398 0.0
H518 H 0.31433 0.7101 0.61444 0.0
H519 H 0.34351 0.78934 0.61744 0.0
H520 H 0.35163 0.72368 0.66837 0.0
H521 H 0.27294 0.69307 0.67531 0.0
H522 H 0.36912 0.69824 0.68413 0.0
H523 H 0.29181 0.66823 0.69098 0.0
H524 H 0.40578 0.78906 0.64984 0.0
H525 H 0.38865 0.71159 0.63562 0.0
H526 H 0.19766 0.69402 0.63137 0.0
H527 H 0.24871 0.63859 0.64861 0.0
Li528 Li 0.52549 0.05459 0.9046 0.0
Li529 Li 0.52331 0.02064 0.9198 0.0
Li530 Li 0.5461 0.0119 0.90285 0.0
Li531 Li 0.49787 0.01563 0.90301 0.0
C532 C 0.58209 0.03774 0.91491 0.0
N533 N 0.63687 0.03243 0.91714 0.0
C534 C 0.59272 0.01953 0.92236 0.0
C535 C 0.59938 0.05369 0.90877 0.0
C536 C 0.62044 0.017 0.92332 0.0
C537 C 0.62699 0.05059 0.90996 0.0
C538 C 0.46826 0.0445 0.91619 0.0
C539 C 0.42964 0.02423 0.92455 0.0
N540 N 0.4139 0.04361 0.92013 0.0
C541 C 0.45174 0.06424 0.91176 0.0
C542 C 0.45718 0.02435 0.92267 0.0
C543 C 0.42429 0.06343 0.91384 0.0
C544 C 0.50799 0.10235 0.89489 0.0
N545 N 0.52633 0.09163 0.90176 0.0
C546 C 0.54283 0.13501 0.90632 0.0
C547 C 0.54377 0.10721 0.90736 0.0
C548 C 0.52364 0.14675 0.89949 0.0
C549 C 0.5064 0.13006 0.89356 0.0
H550 H 0.49403 0.0894 0.89071 0.0
H551 H 0.55783 0.09808 0.91291 0.0
C552 C 0.53438 0.99275 0.93903 0.0
N553 N 0.5228 0.01516 0.93489 0.0
C554 C 0.53456 0.98841 0.95019 0.0
C555 C 0.50977 0.02967 0.95253 0.0
C556 C 0.51061 0.03352 0.94134 0.0
C557 C 0.52208 0.007 0.95704 0.0
H558 H 0.54362 0.97836 0.93365 0.0
H559 H 0.50149 0.05109 0.93778 0.0
C560 C 0.52797 0.04462 0.88299 0.0
N561 N 0.5379 0.07556 0.86484 0.0
C562 C 0.50958 0.04521 0.87446 0.0
C563 C 0.55163 0.05937 0.88217 0.0
C564 C 0.51489 0.06107 0.86538 0.0
C565 C 0.55623 0.075 0.87297 0.0
C566 C 0.51891 0.96371 0.90609 0.0
C567 C 0.5169 0.96115 0.89483 0.0
C568 C 0.52022 0.94074 0.91255 0.0
C569 C 0.5162 0.93559 0.89023 0.0
C570 C 0.51945 0.91553 0.90763 0.0
N571 N 0.51748 0.9135 0.89667 0.0
C572 C 0.58477 0.97218 0.90407 0.0
C573 C 0.58405 0.99408 0.88702 0.0
C574 C 0.60392 0.95411 0.90039 0.0
N575 N 0.57509 0.99148 0.89737 0.0
C576 C 0.60327 0.97639 0.88299 0.0
C577 C 0.61303 0.95576 0.88966 0.0
H578 H 0.57693 0.97029 0.9122 0.0
H579 H 0.57562 0.00917 0.88177 0.0
C580 C 0.45093 0.01987 0.89061 0.0
N581 N 0.46425 0.00375 0.89766 0.0
C582 C 0.42628 0.01195 0.88639 0.0
C583 C 0.42887 0.97166 0.89724 0.0
C584 C 0.4535 0.98032 0.90121 0.0
C585 C 0.41511 0.98739 0.88962 0.0
H586 H 0.4594 0.039 0.88834 0.0
H587 H 0.46401 0.96833 0.90712 0.0
O588 O 0.55494 0.04024 0.91379 0.0
O589 O 0.49507 0.04453 0.91404 0.0
O590 O 0.52287 0.02958 0.89205 0.0
O591 O 0.52017 0.9885 0.91081 0.0
H592 H 0.57974 0.00722 0.92726 0.0
H593 H 0.59166 0.06851 0.90321 0.0
H594 H 0.62889 0.00276 0.92898 0.0
H595 H 0.64057 0.06272 0.90522 0.0
H596 H 0.42076 0.00868 0.92949 0.0
H597 H 0.46002 0.07991 0.9067 0.0
H598 H 0.46966 0.00874 0.92605 0.0
H599 H 0.41124 0.07853 0.91043 0.0
H600 H 0.55657 0.14722 0.91098 0.0
H601 H 0.49108 0.13836 0.88834 0.0
H602 H 0.54404 0.97061 0.95344 0.0
H603 H 0.50005 0.04441 0.95763 0.0
H604 H 0.49151 0.03336 0.87477 0.0
H605 H 0.56621 0.05879 0.8886 0.0
H606 H 0.50077 0.06178 0.85874 0.0
H607 H 0.5744 0.08666 0.87229 0.0
H608 H 0.51594 0.97865 0.88968 0.0
H609 H 0.52187 0.94238 0.92127 0.0
H610 H 0.51466 0.93332 0.88154 0.0
H611 H 0.52046 0.89757 0.91253 0.0
H612 H 0.6111 0.93866 0.90583 0.0
H613 H 0.6095 0.9781 0.87461 0.0
H614 H 0.41603 0.02491 0.8807 0.0
H615 H 0.42102 0.95254 0.89992 0.0
Li616 Li 0.2186 0.23233 0.17176 0.0
Li617 Li 0.23384 0.21122 0.15579 0.0
Li618 Li 0.23137 0.25922 0.15659 0.0
Li619 Li 0.19003 0.23108 0.15495 0.0
C620 C 0.26968 0.23604 0.17441 0.0
N621 N 0.29871 0.23702 0.19349 0.0
C622 C 0.28238 0.21283 0.17815 0.0
C623 C 0.27186 0.25975 0.18038 0.0
C624 C 0.29697 0.21375 0.1878 0.0
C625 C 0.28655 0.25983 0.19001 0.0
C626 C 0.2015 0.17378 0.16374 0.0
C627 C 0.18159 0.13282 0.15719 0.0
N628 N 0.2011 0.11851 0.16223 0.0
C629 C 0.22129 0.15864 0.1689 0.0
C630 C 0.18143 0.16078 0.15785 0.0
C631 C 0.22078 0.13073 0.16802 0.0
C632 C 0.20596 0.25348 0.19228 0.0
N633 N 0.21683 0.23195 0.18719 0.0
C634 C 0.22939 0.21266 0.20415 0.0
C635 C 0.22763 0.21132 0.19289 0.0
C636 C 0.21935 0.23521 0.20964 0.0
C637 C 0.20691 0.2555 0.20354 0.0
H638 H 0.19698 0.26937 0.18758 0.0
H639 H 0.23589 0.19429 0.18869 0.0
C640 C 0.28148 0.18436 0.15082 0.0
N641 N 0.25453 0.18307 0.14952 0.0
C642 C 0.2979 0.16486 0.14626 0.0
C643 C 0.2587 0.14374 0.1386 0.0
C644 C 0.24299 0.16355 0.1434 0.0
C645 C 0.2865 0.14418 0.1401 0.0
H646 H 0.29029 0.20085 0.15522 0.0
H647 H 0.22163 0.16357 0.14211 0.0
C648 C 0.19142 0.28845 0.16429 0.0
N649 N 0.18004 0.34247 0.16236 0.0
C650 C 0.17089 0.29709 0.15743 0.0
C651 C 0.20595 0.30731 0.17026 0.0
C652 C 0.16549 0.32447 0.15655 0.0
C653 C 0.19997 0.33452 0.16914 0.0
C654 C 0.23128 0.22792 0.13532 0.0
C655 C 0.25781 0.23518 0.13331 0.0
C656 C 0.21767 0.21163 0.12794 0.0
C657 C 0.27041 0.22576 0.12395 0.0
C658 C 0.23097 0.20265 0.11868 0.0
N659 N 0.25685 0.20982 0.1169 0.0
C660 C 0.2731 0.29646 0.15472 0.0
C661 C 0.23428 0.30764 0.14466 0.0
C662 C 0.28627 0.31912 0.15086 0.0
N663 N 0.24753 0.29131 0.15165 0.0
C664 C 0.24668 0.33064 0.14061 0.0
C665 C 0.27309 0.33656 0.14369 0.0
H666 H 0.28356 0.28258 0.15992 0.0
H667 H 0.21421 0.30261 0.14211 0.0
C668 C 0.13608 0.22008 0.15657 0.0
N669 N 0.15505 0.22899 0.14959 0.0
C670 C 0.10944 0.21899 0.15336 0.0
C671 C 0.12237 0.2365 0.13583 0.0
C672 C 0.1489 0.23701 0.13936 0.0
C673 C 0.10229 0.22745 0.1429 0.0
H674 H 0.14171 0.21413 0.16469 0.0
H675 H 0.1645 0.24429 0.13406 0.0
O676 O 0.25492 0.2355 0.16505 0.0
O677 O 0.20161 0.20115 0.1645 0.0
O678 O 0.19721 0.26171 0.16516 0.0
O679 O 0.21885 0.23633 0.14457 0.0
H680 H 0.28059 0.19413 0.17379 0.0
H681 H 0.2621 0.27787 0.17767 0.0
H682 H 0.30674 0.19589 0.19081 0.0
H683 H 0.28823 0.27802 0.19473 0.0
H684 H 0.16624 0.12251 0.15263 0.0
H685 H 0.23721 0.16833 0.17333 0.0
H686 H 0.16603 0.17212 0.15376 0.0
H687 H 0.2361 0.1188 0.1719 0.0
H688 H 0.23943 0.19663 0.20844 0.0
H689 H 0.19825 0.27293 0.20741 0.0
H690 H 0.31935 0.16629 0.14734 0.0
H691 H 0.24922 0.12821 0.13382 0.0
H692 H 0.15932 0.28286 0.15279 0.0
H693 H 0.2218 0.30105 0.17564 0.0
H694 H 0.14974 0.33142 0.15123 0.0
H695 H 0.21118 0.34931 0.17366 0.0
H696 H 0.26866 0.24763 0.13898 0.0
H697 H 0.19718 0.20567 0.12944 0.0
H698 H 0.291 0.23106 0.12232 0.0
H699 H 0.22076 0.18988 0.11292 0.0
H700 H 0.30688 0.32244 0.1532 0.0
H701 H 0.2358 0.34352 0.1351 0.0
H702 H 0.09448 0.21237 0.15912 0.0
H703 H 0.11758 0.24321 0.12771 0.0
Li704 Li 0.78793 0.26861 0.16837 0.0
Li705 Li 0.77854 0.2915 0.15027 0.0
Li706 Li 0.77537 0.24317 0.15248 0.0
Li707 Li 0.81761 0.2642 0.15283 0.0
C708 C 0.72813 0.26233 0.15912 0.0
N709 N 0.6764 0.24347 0.157 0.0
C710 C 0.71065 0.27416 0.15169 0.0
C711 C 0.71914 0.24119 0.16561 0.0
C712 C 0.68462 0.26428 0.15071 0.0
C713 C 0.69297 0.23185 0.16437 0.0
C714 C 0.83203 0.31071 0.16003 0.0
C715 C 0.86314 0.338 0.14998 0.0
N716 N 0.88148 0.33488 0.15802 0.0
C717 C 0.8511 0.30786 0.16823 0.0
C718 C 0.838 0.32596 0.15084 0.0
C719 C 0.87602 0.3202 0.16705 0.0
C720 C 0.80579 0.26505 0.18997 0.0
N721 N 0.78465 0.27133 0.18353 0.0
C722 C 0.75629 0.27677 0.19891 0.0
C723 C 0.76032 0.27748 0.18773 0.0
C724 C 0.77756 0.26973 0.20578 0.0
C725 C 0.8027 0.26424 0.2012 0.0
H726 H 0.82476 0.25978 0.18634 0.0
H727 H 0.74387 0.28225 0.18238 0.0
C728 C 0.75355 0.31955 0.13353 0.0
N729 N 0.76434 0.32215 0.14357 0.0
C730 C 0.74154 0.34148 0.12851 0.0
C731 C 0.75282 0.36853 0.14413 0.0
C732 C 0.7645 0.34599 0.14888 0.0
C733 C 0.74079 0.36635 0.13387 0.0
H734 H 0.75362 0.30021 0.12958 0.0
H735 H 0.77342 0.34737 0.15685 0.0
C736 C 0.80672 0.21271 0.16832 0.0
N737 N 0.81014 0.16491 0.17958 0.0
C738 C 0.82668 0.19411 0.16578 0.0
C739 C 0.78856 0.20697 0.17661 0.0
C740 C 0.82805 0.17006 0.17155 0.0
C741 C 0.79062 0.18272 0.18221 0.0
C742 C 0.80081 0.24658 0.13254 0.0
C743 C 0.81227 0.22191 0.13523 0.0
C744 C 0.79803 0.25375 0.12165 0.0
C745 C 0.82076 0.20479 0.12697 0.0
C746 C 0.80677 0.23607 0.11362 0.0
N747 N 0.81786 0.21216 0.11642 0.0
C748 C 0.7373 0.2185 0.13929 0.0
C749 C 0.75996 0.18749 0.15057 0.0
C750 C 0.72177 0.198 0.13487 0.0
N751 N 0.75561 0.21304 0.14713 0.0
C752 C 0.74525 0.16633 0.14624 0.0
C753 C 0.72574 0.17155 0.13836 0.0
H754 H 0.7348 0.23885 0.13645 0.0
H755 H 0.77489 0.18325 0.15659 0.0
C756 C 0.87014 0.2483 0.15631 0.0
N757 N 0.85392 0.26041 0.14897 0.0
C758 C 0.89671 0.24309 0.15373 0.0
C759 C 0.88972 0.26399 0.13626 0.0
C760 C 0.86313 0.26862 0.13915 0.0
C761 C 0.90668 0.25067 0.14355 0.0
H762 H 0.8623 0.24251 0.16413 0.0
H763 H 0.84975 0.27846 0.13353 0.0
O764 O 0.75384 0.2715 0.16007 0.0
O765 O 0.80786 0.29809 0.16085 0.0
O766 O 0.80524 0.23642 0.16275 0.0
O767 O 0.79228 0.26375 0.14046 0.0
H768 H 0.71714 0.29069 0.14667 0.0
H769 H 0.73223 0.23194 0.17147 0.0
H770 H 0.67095 0.27314 0.14493 0.0
H771 H 0.68584 0.21535 0.16928 0.0
H772 H 0.86812 0.34973 0.14288 0.0
H773 H 0.8468 0.29602 0.17536 0.0
H774 H 0.82351 0.32817 0.14439 0.0
H775 H 0.89104 0.31805 0.1733 0.0
H776 H 0.73669 0.2814 0.20213 0.0
H777 H 0.8195 0.25839 0.20621 0.0
H778 H 0.7321 0.33869 0.1207 0.0
H779 H 0.75297 0.38736 0.14849 0.0
H780 H 0.84086 0.19807 0.15936 0.0
H781 H 0.77301 0.221 0.17872 0.0
H782 H 0.84334 0.15547 0.16964 0.0
H783 H 0.77667 0.17805 0.18864 0.0
H784 H 0.8146 0.216 0.14358 0.0
H785 H 0.78924 0.27279 0.11942 0.0
H786 H 0.82965 0.18563 0.12894 0.0
H787 H 0.80475 0.24137 0.10515 0.0
H788 H 0.7071 0.20269 0.12869 0.0
H789 H 0.74881 0.14613 0.14912 0.0
H790 H 0.90937 0.23332 0.15966 0.0
H791 H 0.89675 0.27019 0.12835 0.0
Li792 Li 0.71733 0.73803 0.66905 0.0
Li793 Li 0.72745 0.71463 0.65207 0.0
Li794 Li 0.73112 0.76343 0.65301 0.0
Li795 Li 0.68818 0.74198 0.65241 0.0
C796 C 0.77285 0.74812 0.66635 0.0
N797 N 0.81566 0.77267 0.67643 0.0
C798 C 0.79888 0.73927 0.66434 0.0
C799 C 0.76857 0.76946 0.67348 0.0
C800 C 0.82027 0.75194 0.66952 0.0
C801 C 0.79048 0.78161 0.67849 0.0
C802 C 0.69259 0.68292 0.66213 0.0
C803 C 0.67917 0.64114 0.65394 0.0
N804 N 0.68688 0.62788 0.66305 0.0
C805 C 0.70009 0.66892 0.67146 0.0
C806 C 0.68178 0.66898 0.65334 0.0
C807 C 0.69715 0.64108 0.67175 0.0
C808 C 0.70066 0.74639 0.69078 0.0
N809 N 0.7192 0.73473 0.68427 0.0
C810 C 0.7427 0.71734 0.69955 0.0
C811 C 0.73981 0.72023 0.68839 0.0
C812 C 0.72411 0.72942 0.70654 0.0
C813 C 0.70281 0.74406 0.70203 0.0
H814 H 0.68427 0.75748 0.68724 0.0
H815 H 0.75409 0.71097 0.68298 0.0
C816 C 0.74738 0.68027 0.63587 0.0
N817 N 0.7441 0.68346 0.64671 0.0
C818 C 0.76168 0.65842 0.63188 0.0
C819 C 0.76843 0.6433 0.6503 0.0
C820 C 0.75432 0.66564 0.65393 0.0
C821 C 0.77271 0.6397 0.63914 0.0
H822 H 0.73972 0.69518 0.63033 0.0
H823 H 0.75202 0.66912 0.66252 0.0
C824 C 0.69562 0.79743 0.6631 0.0
N825 N 0.68726 0.85214 0.6638 0.0
C826 C 0.68954 0.81149 0.65363 0.0
C827 C 0.69753 0.8112 0.67294 0.0
C828 C 0.68537 0.83914 0.65414 0.0
C829 C 0.69319 0.83886 0.67312 0.0
C830 C 0.70339 0.74426 0.63151 0.0
C831 C 0.70379 0.76891 0.62611 0.0
C832 C 0.68962 0.72265 0.62694 0.0
C833 C 0.6901 0.77159 0.61629 0.0
C834 C 0.67614 0.72615 0.61713 0.0
N835 N 0.67664 0.75035 0.61205 0.0
C836 C 0.76553 0.78786 0.63861 0.0
C837 C 0.75674 0.81525 0.65389 0.0
C838 C 0.78237 0.8073 0.63425 0.0
N839 N 0.7528 0.79229 0.64816 0.0
C840 C 0.77348 0.83527 0.64983 0.0
C841 C 0.78645 0.83143 0.63985 0.0
H842 H 0.76264 0.76908 0.63439 0.0
H843 H 0.74716 0.818 0.66164 0.0
C844 C 0.63497 0.72584 0.65236 0.0
N845 N 0.65195 0.74388 0.64782 0.0
C846 C 0.60809 0.72541 0.64941 0.0
C847 C 0.61652 0.76228 0.63716 0.0
C848 C 0.64322 0.7621 0.64042 0.0
C849 C 0.59855 0.74377 0.64169 0.0
H850 H 0.64223 0.7119 0.65838 0.0
H851 H 0.65686 0.77651 0.637 0.0
O852 O 0.75175 0.73604 0.66127 0.0
O853 O 0.69559 0.71016 0.66164 0.0
O854 O 0.69997 0.77038 0.66277 0.0
O855 O 0.71672 0.74121 0.64113 0.0
H856 H 0.80249 0.7228 0.65882 0.0
H857 H 0.74857 0.77667 0.67507 0.0
H858 H 0.84054 0.74531 0.66805 0.0
H859 H 0.78746 0.79818 0.68401 0.0
H860 H 0.67098 0.63009 0.64717 0.0
H861 H 0.70825 0.67939 0.67838 0.0
H862 H 0.67547 0.67954 0.64614 0.0
H863 H 0.70305 0.62997 0.67889 0.0
H864 H 0.75958 0.70615 0.70267 0.0
H865 H 0.68786 0.7534 0.70713 0.0
H866 H 0.76498 0.65688 0.62323 0.0
H867 H 0.77631 0.62931 0.6562 0.0
H868 H 0.68863 0.80126 0.64594 0.0
H869 H 0.70247 0.80069 0.68034 0.0
H870 H 0.68079 0.85029 0.64685 0.0
H871 H 0.69463 0.84978 0.68067 0.0
H872 H 0.71423 0.78592 0.6295 0.0
H873 H 0.68932 0.70338 0.63093 0.0
H874 H 0.6901 0.79059 0.61207 0.0
H875 H 0.6653 0.70962 0.61354 0.0
H876 H 0.79249 0.80324 0.62667 0.0
H877 H 0.77613 0.85356 0.65442 0.0
H878 H 0.59484 0.71124 0.65332 0.0
H879 H 0.61008 0.77671 0.63115 0.0
Li880 Li 0.69859 0.24373 0.33682 0.0
Li881 Li 0.73693 0.21754 0.33968 0.0
Li882 Li 0.74247 0.26478 0.34002 0.0
Li883 Li 0.73333 0.24009 0.32279 0.0
C884 C 0.71021 0.25918 0.35794 0.0
N885 N 0.68862 0.29252 0.37352 0.0
C886 C 0.70929 0.25102 0.36876 0.0
C887 C 0.70017 0.28435 0.35504 0.0
C888 C 0.69828 0.26814 0.37652 0.0
C889 C 0.68934 0.30089 0.36304 0.0
C890 C 0.69273 0.19099 0.33094 0.0
C891 C 0.6645 0.15417 0.32549 0.0
N892 N 0.65815 0.14966 0.33605 0.0
C893 C 0.68592 0.18598 0.34174 0.0
C894 C 0.68194 0.17498 0.32274 0.0
C895 C 0.66841 0.165 0.34416 0.0
C896 C 0.64719 0.25132 0.32914 0.0
N897 N 0.66117 0.2464 0.33836 0.0
C898 C 0.62083 0.24206 0.34852 0.0
C899 C 0.64866 0.24165 0.34794 0.0
C900 C 0.6058 0.24709 0.33912 0.0
C901 C 0.61934 0.25187 0.32933 0.0
H902 H 0.65777 0.25435 0.32159 0.0
H903 H 0.66021 0.23699 0.3551 0.0
C904 C 0.75915 0.18779 0.35659 0.0
N905 N 0.74977 0.18581 0.3463 0.0
C906 C 0.77095 0.16571 0.36159 0.0
C907 C 0.76238 0.13975 0.3454 0.0
C908 C 0.75077 0.16238 0.34071 0.0
C909 C 0.77304 0.14139 0.35591 0.0
H910 H 0.75824 0.20682 0.36078 0.0
H911 H 0.74325 0.16149 0.3325 0.0
C912 C 0.71202 0.29462 0.32221 0.0
N913 N 0.70465 0.33885 0.30906 0.0
C914 C 0.73208 0.3025 0.31499 0.0
C915 C 0.68826 0.3093 0.32277 0.0
C916 C 0.72795 0.32489 0.3084 0.0
C917 C 0.68492 0.3316 0.31606 0.0
C918 C 0.78661 0.22262 0.33383 0.0
C919 C 0.80342 0.22667 0.34273 0.0
C920 C 0.79128 0.20108 0.32684 0.0
C921 C 0.82451 0.20888 0.34456 0.0
C922 C 0.8126 0.18374 0.32895 0.0
N923 N 0.82861 0.18794 0.3377 0.0
C924 C 0.77183 0.28981 0.35636 0.0
C925 C 0.76411 0.31755 0.34108 0.0
C926 C 0.78712 0.30978 0.36126 0.0
N927 N 0.76097 0.29391 0.3464 0.0
C928 C 0.77926 0.33807 0.34567 0.0
C929 C 0.79129 0.33418 0.35583 0.0
H930 H 0.76904 0.27075 0.36039 0.0
H931 H 0.75524 0.32042 0.33322 0.0
C932 C 0.71757 0.24163 0.30105 0.0
N933 N 0.73915 0.24058 0.30772 0.0
C934 C 0.72109 0.24401 0.28987 0.0
C935 C 0.76897 0.24376 0.29269 0.0
C936 C 0.76451 0.24153 0.3038 0.0
C937 C 0.74709 0.24528 0.28556 0.0
H938 H 0.69764 0.24121 0.30446 0.0
H939 H 0.78127 0.2411 0.30933 0.0
O940 O 0.72106 0.24246 0.35032 0.0
O941 O 0.70961 0.21158 0.3283 0.0
O942 O 0.71541 0.27252 0.32864 0.0
O943 O 0.76538 0.23936 0.33208 0.0
H944 H 0.71699 0.2316 0.37114 0.0
H945 H 0.70069 0.29114 0.34674 0.0
H946 H 0.69743 0.26206 0.38493 0.0
H947 H 0.6815 0.32041 0.36091 0.0
H948 H 0.65599 0.14163 0.31923 0.0
H949 H 0.69401 0.19814 0.34821 0.0
H950 H 0.68696 0.17866 0.31434 0.0
H951 H 0.66297 0.16092 0.35248 0.0
H952 H 0.6112 0.23841 0.35624 0.0
H953 H 0.60856 0.25528 0.32185 0.0
H954 H 0.7793 0.168 0.36963 0.0
H955 H 0.76337 0.12133 0.34078 0.0
H956 H 0.75078 0.29166 0.31459 0.0
H957 H 0.67263 0.30364 0.32838 0.0
H958 H 0.74331 0.33121 0.30278 0.0
H959 H 0.66663 0.34315 0.31642 0.0
H960 H 0.80007 0.24321 0.34821 0.0
H961 H 0.77827 0.19749 0.31999 0.0
H962 H 0.83758 0.21166 0.35146 0.0
H963 H 0.81631 0.16684 0.32368 0.0
H964 H 0.79628 0.30582 0.36905 0.0
H965 H 0.78167 0.35672 0.34128 0.0
H966 H 0.70364 0.24554 0.28471 0.0
H967 H 0.78934 0.24434 0.28972 0.0
Li968 Li 0.77322 0.74228 0.83989 0.0
Li969 Li 0.8166 0.72072 0.83772 0.0
Li970 Li 0.78145 0.71852 0.82326 0.0
Li971 Li 0.77704 0.69201 0.83982 0.0
C972 C 0.80157 0.77765 0.82851 0.0
N973 N 0.80201 0.83305 0.82813 0.0
C974 C 0.82355 0.79175 0.83257 0.0
C975 C 0.77998 0.79175 0.82411 0.0
C976 C 0.82336 0.81975 0.83234 0.0
C977 C 0.78052 0.81974 0.82403 0.0
C978 C 0.8043 0.71495 0.86001 0.0
C979 C 0.82573 0.6864 0.87319 0.0
N980 N 0.82887 0.70784 0.87987 0.0
C981 C 0.80735 0.7366 0.86709 0.0
C982 C 0.81323 0.68956 0.86315 0.0
C983 C 0.81998 0.73264 0.87706 0.0
C984 C 0.72779 0.77086 0.84622 0.0
N985 N 0.75494 0.77138 0.84642 0.0
C986 C 0.75472 0.81286 0.85608 0.0
C987 C 0.76856 0.7917 0.85126 0.0
C988 C 0.72664 0.8128 0.85603 0.0
C989 C 0.71316 0.79147 0.85099 0.0
H990 H 0.71747 0.75432 0.84242 0.0
H991 H 0.79016 0.79142 0.85144 0.0
C992 C 0.87121 0.71075 0.83414 0.0
N993 N 0.85363 0.72403 0.84059 0.0
C994 C 0.89865 0.7133 0.83586 0.0
C995 C 0.8894 0.74378 0.85062 0.0
C996 C 0.86213 0.74042 0.84868 0.0
C997 C 0.908 0.7301 0.84416 0.0
H998 H 0.86394 0.69849 0.82755 0.0
H999 H 0.84778 0.75147 0.85344 0.0
C1000 C 0.72897 0.71126 0.82589 0.0
N1001 N 0.68761 0.70285 0.81143 0.0
C1002 C 0.7185 0.68553 0.82443 0.0
C1003 C 0.71814 0.73277 0.8201 0.0
C1004 C 0.69764 0.68168 0.81706 0.0
C1005 C 0.69733 0.72809 0.81279 0.0
C1006 C 0.8164 0.66451 0.82795 0.0
C1007 C 0.81163 0.64845 0.81887 0.0
C1008 C 0.83272 0.65492 0.83628 0.0
C1009 C 0.82285 0.62284 0.81839 0.0
C1010 C 0.84359 0.6292 0.8355 0.0
N1011 N 0.83844 0.61381 0.82665 0.0
C1012 C 0.78106 0.74069 0.80227 0.0
C1013 C 0.76289 0.6969 0.80344 0.0
C1014 C 0.77484 0.74201 0.79127 0.0
N1015 N 0.77471 0.71852 0.80813 0.0
C1016 C 0.75628 0.69735 0.79246 0.0
C1017 C 0.76205 0.72023 0.78625 0.0
H1018 H 0.79086 0.75743 0.80615 0.0
H1019 H 0.75817 0.67948 0.80828 0.0
C1020 C 0.75116 0.66423 0.85607 0.0
N1021 N 0.76284 0.66058 0.84625 0.0
C1022 C 0.73823 0.64304 0.86123 0.0
C1023 C 0.7497 0.61453 0.84609 0.0
C1024 C 0.76245 0.63634 0.84122 0.0
C1025 C 0.73711 0.61783 0.85618 0.0
H1026 H 0.75132 0.68388 0.85977 0.0
H1027 H 0.77119 0.63407 0.83329 0.0
O1028 O 0.80129 0.75022 0.82877 0.0
O1029 O 0.7918 0.71849 0.85023 0.0
O1030 O 0.74964 0.71536 0.83297 0.0
O1031 O 0.80545 0.68961 0.82855 0.0
H1032 H 0.84059 0.78122 0.83586 0.0
H1033 H 0.76291 0.78119 0.82085 0.0
H1034 H 0.84019 0.8309 0.8355 0.0
H1035 H 0.76385 0.83089 0.82073 0.0
H1036 H 0.8328 0.66687 0.8757 0.0
H1037 H 0.80023 0.75631 0.86488 0.0
H1038 H 0.81024 0.67238 0.85797 0.0
H1039 H 0.82269 0.74929 0.88257 0.0
H1040 H 0.76584 0.82878 0.86 0.0
H1041 H 0.69152 0.7908 0.8507 0.0
H1042 H 0.9124 0.70287 0.83055 0.0
H1043 H 0.89586 0.75699 0.85708 0.0
H1044 H 0.72652 0.66868 0.82887 0.0
H1045 H 0.72579 0.75284 0.82121 0.0
H1046 H 0.68947 0.66185 0.8158 0.0
H1047 H 0.6889 0.74452 0.8082 0.0
H1048 H 0.79934 0.65564 0.81227 0.0
H1049 H 0.83729 0.66732 0.8432 0.0
H1050 H 0.81919 0.61015 0.81144 0.0
H1051 H 0.85623 0.62154 0.84191 0.0
H1052 H 0.78014 0.75982 0.78673 0.0
H1053 H 0.74625 0.68019 0.78894 0.0
H1054 H 0.72829 0.6467 0.86888 0.0
H1055 H 0.74933 0.59544 0.84192 0.0
Li1056 Li 0.48932 0.52123 0.07604 0.0
Li1057 Li 0.4903 0.55453 0.09064 0.0
Li1058 Li 0.51762 0.51474 0.09192 0.0
Li1059 Li 0.46893 0.51349 0.09345 0.0
C1060 C 0.54223 0.53975 0.07477 0.0
N1061 N 0.58723 0.5323 0.06215 0.0
C1062 C 0.5596 0.56114 0.07279 0.0
C1063 C 0.54778 0.51455 0.07036 0.0
C1064 C 0.58224 0.55698 0.06638 0.0
C1065 C 0.57062 0.5112 0.064 0.0
C1066 C 0.43206 0.53638 0.08181 0.0
C1067 C 0.38732 0.5409 0.08891 0.0
N1068 N 0.37795 0.52517 0.08075 0.0
C1069 C 0.42192 0.52044 0.07345 0.0
C1070 C 0.41457 0.54689 0.08956 0.0
C1071 C 0.39453 0.51496 0.07307 0.0
C1072 C 0.47982 0.49213 0.05681 0.0
N1073 N 0.488 0.51605 0.06088 0.0
C1074 C 0.49671 0.53276 0.04311 0.0
C1075 C 0.49618 0.5363 0.05432 0.0
C1076 C 0.4883 0.50826 0.03861 0.0
C1077 C 0.47959 0.48785 0.04564 0.0
H1078 H 0.4733 0.47646 0.06226 0.0
H1079 H 0.50271 0.55507 0.05782 0.0
C1080 C 0.51386 0.60355 0.09627 0.0
N1081 N 0.49057 0.59168 0.09327 0.0
C1082 C 0.51479 0.63116 0.09802 0.0
C1083 C 0.46762 0.63352 0.09374 0.0
C1084 C 0.46769 0.60595 0.09197 0.0
C1085 C 0.49147 0.64655 0.09668 0.0
H1086 H 0.53174 0.59155 0.09719 0.0
H1087 H 0.44952 0.59593 0.08953 0.0
C1088 C 0.49326 0.46408 0.08989 0.0
N1089 N 0.49489 0.41444 0.09983 0.0
C1090 C 0.49625 0.46219 0.10114 0.0
C1091 C 0.49106 0.44071 0.08372 0.0
C1092 C 0.49704 0.43692 0.106 0.0
C1093 C 0.49195 0.41581 0.08889 0.0
C1094 C 0.49503 0.5479 0.11198 0.0
C1095 C 0.51693 0.54875 0.11902 0.0
C1096 C 0.47314 0.56467 0.1139 0.0
C1097 C 0.51697 0.56699 0.1276 0.0
C1098 C 0.47394 0.58269 0.12255 0.0
N1099 N 0.49568 0.58351 0.12916 0.0
C1100 C 0.56845 0.51835 0.10155 0.0
C1101 C 0.55965 0.4764 0.09329 0.0
C1102 C 0.5935 0.50945 0.10503 0.0
N1103 N 0.55178 0.50151 0.09613 0.0
C1104 C 0.58456 0.46677 0.09649 0.0
C1105 C 0.60164 0.48321 0.1026 0.0
H1106 H 0.56226 0.53872 0.10317 0.0
H1107 H 0.5467 0.46378 0.08851 0.0
C1108 C 0.42743 0.47567 0.09473 0.0
N1109 N 0.43997 0.49557 0.10027 0.0
C1110 C 0.40646 0.46155 0.09951 0.0
C1111 C 0.41148 0.48893 0.11554 0.0
C1112 C 0.43247 0.50239 0.11048 0.0
C1113 C 0.39831 0.46803 0.11009 0.0
H1114 H 0.43394 0.47061 0.08663 0.0
H1115 H 0.44286 0.51815 0.11473 0.0
O1116 O 0.52012 0.54355 0.08111 0.0
O1117 O 0.45896 0.54142 0.08245 0.0
O1118 O 0.49212 0.48858 0.0849 0.0
O1119 O 0.49472 0.53023 0.10348 0.0
H1120 H 0.55561 0.58075 0.07618 0.0
H1121 H 0.53463 0.49772 0.07185 0.0
H1122 H 0.59585 0.57335 0.06477 0.0
H1123 H 0.57515 0.49181 0.06054 0.0
H1124 H 0.37363 0.54871 0.09491 0.0
H1125 H 0.43502 0.51219 0.06736 0.0
H1126 H 0.42191 0.55926 0.09609 0.0
H1127 H 0.38648 0.50251 0.06667 0.0
H1128 H 0.50407 0.54893 0.03808 0.0
H1129 H 0.47244 0.46883 0.04258 0.0
H1130 H 0.5337 0.64037 0.10012 0.0
H1131 H 0.44908 0.64447 0.09278 0.0
H1132 H 0.49799 0.47995 0.10609 0.0
H1133 H 0.48873 0.44178 0.07501 0.0
H1134 H 0.49936 0.43517 0.11469 0.0
H1135 H 0.4903 0.39757 0.0842 0.0
H1136 H 0.53355 0.53519 0.11799 0.0
H1137 H 0.45585 0.56401 0.10867 0.0
H1138 H 0.53386 0.56791 0.13307 0.0
H1139 H 0.45727 0.59602 0.12401 0.0
H1140 H 0.60635 0.5229 0.10953 0.0
H1141 H 0.5901 0.44641 0.09444 0.0
H1142 H 0.39723 0.4453 0.09505 0.0
H1143 H 0.40568 0.49481 0.12365 0.0
Li1144 Li 0.98531 0.47625 0.59277 0.0
Li1145 Li 0.03396 0.47237 0.59383 0.0
Li1146 Li 0.01055 0.46687 0.57662 0.0
Li1147 Li 0.00757 0.43338 0.59094 0.0
C1148 C 0.00342 0.52423 0.58759 0.0
N1149 N 0.98316 0.57456 0.59202 0.0
C1150 C 0.01435 0.53962 0.59596 0.0
C1151 C 0.98234 0.53453 0.58142 0.0
C1152 C 0.0038 0.56501 0.59808 0.0
C1153 C 0.97232 0.55998 0.58381 0.0
C1154 C 0.00185 0.43958 0.61175 0.0
C1155 C 0.01616 0.40454 0.6239 0.0
N1156 N 0.99049 0.40148 0.62733 0.0
C1157 C 0.97563 0.43617 0.61541 0.0
C1158 C 0.02233 0.42375 0.61605 0.0
C1159 C 0.97029 0.41677 0.62329 0.0
C1160 C 0.93043 0.48934 0.59471 0.0
N1161 N 0.95532 0.49364 0.59877 0.0
C1162 C 0.938 0.52271 0.61239 0.0
C1163 C 0.95943 0.5096 0.60752 0.0
C1164 C 0.912 0.51891 0.60834 0.0
C1165 C 0.90834 0.50188 0.59939 0.0
H1166 H 0.92769 0.47594 0.58794 0.0
H1167 H 0.97942 0.51212 0.61071 0.0
C1168 C 0.08118 0.50273 0.59424 0.0
N1169 N 0.0642 0.48803 0.60045 0.0
C1170 C 0.10138 0.51783 0.59908 0.0
C1171 C 0.08622 0.50227 0.61661 0.0
C1172 C 0.06653 0.4872 0.61142 0.0
C1173 C 0.1036 0.51821 0.61041 0.0
H1174 H 0.07826 0.50368 0.58557 0.0
H1175 H 0.05233 0.47584 0.61616 0.0
C1176 C 0.96415 0.44188 0.57298 0.0
N1177 N 0.9372 0.42933 0.5541 0.0
C1178 C 0.96404 0.41554 0.56912 0.0
C1179 C 0.95044 0.4618 0.56727 0.0
C1180 C 0.9503 0.40961 0.55955 0.0
C1181 C 0.93699 0.45507 0.55772 0.0
C1182 C 0.06657 0.44427 0.58161 0.0
C1183 C 0.07847 0.45553 0.57243 0.0
C1184 C 0.08265 0.43382 0.58986 0.0
C1185 C 0.10634 0.45636 0.5717 0.0
C1186 C 0.11044 0.43508 0.58883 0.0
N1187 N 0.12161 0.44623 0.57985 0.0
C1188 C 0.01577 0.49871 0.558 0.0
C1189 C 0.01096 0.4523 0.55446 0.0
C1190 C 0.01654 0.5043 0.54694 0.0
N1191 N 0.0126 0.47312 0.56151 0.0
C1192 C 0.01101 0.45701 0.54332 0.0
C1193 C 0.01369 0.48336 0.53939 0.0
H1194 H 0.01775 0.51481 0.5638 0.0
H1195 H 0.00921 0.43205 0.55749 0.0
C1196 C 0.97822 0.38757 0.59592 0.0
N1197 N 0.00336 0.39661 0.59389 0.0
C1198 C 0.97373 0.36041 0.5978 0.0
C1199 C 0.0212 0.35255 0.59569 0.0
C1200 C 0.02475 0.37986 0.59379 0.0
C1201 C -0.00463 0.34252 0.5976 0.0
H1202 H 0.96164 0.40149 0.59594 0.0
H1203 H 0.04446 0.38766 0.59208 0.0
O1204 O 0.01315 0.49914 0.58549 0.0
O1205 O 0.00738 0.45799 0.60385 0.0
O1206 O 0.97764 0.44814 0.58229 0.0
O1207 O 0.03933 0.44347 0.58252 0.0
H1208 H 0.0306 0.53197 0.60084 0.0
H1209 H 0.9737 0.52291 0.57491 0.0
H1210 H 0.01197 0.57708 0.60456 0.0
H1211 H 0.95591 0.56813 0.57915 0.0
H1212 H 0.03178 0.39202 0.62724 0.0
H1213 H 0.95952 0.44814 0.61213 0.0
H1214 H 0.0427 0.42604 0.61325 0.0
H1215 H 0.95007 0.41381 0.62617 0.0
H1216 H 0.94185 0.5359 0.61918 0.0
H1217 H 0.88862 0.49797 0.59613 0.0
H1218 H 0.1141 0.53026 0.59405 0.0
H1219 H 0.08735 0.50211 0.62537 0.0
H1220 H 0.9747 0.3999 0.57337 0.0
H1221 H 0.95038 0.48229 0.57011 0.0
H1222 H 0.95015 0.38934 0.55645 0.0
H1223 H 0.92643 0.47031 0.55319 0.0
H1224 H 0.06634 0.46368 0.56596 0.0
H1225 H 0.07376 0.42518 0.59705 0.0
H1226 H 0.11583 0.46511 0.56466 0.0
H1227 H 0.12313 0.42725 0.59519 0.0
H1228 H 0.01948 0.52483 0.54436 0.0
H1229 H 0.00848 0.44016 0.5379 0.0
H1230 H 0.95356 0.35345 0.59933 0.0
H1231 H 0.03834 0.33931 0.59532 0.0
Li1232 Li 0.46522 0.47827 0.90421 0.0
Li1233 Li 0.51402 0.47629 0.90383 0.0
Li1234 Li 0.48679 0.43635 0.90525 0.0
Li1235 Li 0.48929 0.46806 0.92057 0.0
C1236 C 0.48404 0.44721 0.88388 0.0
N1237 N 0.47554 0.4161 0.86567 0.0
C1238 C 0.50283 0.44698 0.8755 0.0
C1239 C 0.46071 0.43201 0.88289 0.0
C1240 C 0.49823 0.43103 0.86638 0.0
C1241 C 0.45683 0.41629 0.87366 0.0
C1242 C 0.49147 0.52679 0.90785 0.0
C1243 C 0.49108 0.57485 0.90995 0.0
N1244 N 0.4917 0.57768 0.89899 0.0
C1245 C 0.49212 0.53018 0.8966 0.0
C1246 C 0.49095 0.5493 0.91458 0.0
C1247 C 0.49222 0.55607 0.89228 0.0
C1248 C 0.4257 0.51703 0.90619 0.0
N1249 N 0.43548 0.49837 0.89922 0.0
C1250 C 0.40663 0.51395 0.88515 0.0
C1251 C 0.42621 0.49629 0.88891 0.0
C1252 C 0.39683 0.53402 0.89207 0.0
C1253 C 0.4062 0.53507 0.90278 0.0
H1254 H 0.43379 0.51852 0.91429 0.0
H1255 H 0.43473 0.48168 0.88346 0.0
C1256 C 0.56119 0.4739 0.89158 0.0
N1257 N 0.54707 0.48962 0.89851 0.0
C1258 C 0.58554 0.4828 0.88737 0.0
C1259 C 0.5811 0.52316 0.89806 0.0
C1260 C 0.55679 0.51357 0.90199 0.0
C1261 C 0.59563 0.50785 0.89055 0.0
H1262 H 0.55357 0.45437 0.88937 0.0
H1263 H 0.54578 0.52524 0.90784 0.0
C1264 C 0.43063 0.45143 0.91632 0.0
N1265 N 0.37614 0.45721 0.91933 0.0
C1266 C 0.42086 0.4684 0.92441 0.0
C1267 C 0.41263 0.43701 0.9099 0.0
C1268 C 0.39326 0.47117 0.92577 0.0
C1269 C 0.38518 0.4403 0.91151 0.0
C1270 C 0.54226 0.44882 0.91942 0.0
C1271 C 0.56009 0.42729 0.91982 0.0
C1272 C 0.549 0.47305 0.92441 0.0
C1273 C 0.58439 0.43031 0.92528 0.0
C1274 C 0.57349 0.47527 0.92979 0.0
N1275 N 0.59053 0.45404 0.93011 0.0
C1276 C 0.50625 0.38967 0.89538 0.0
C1277 C 0.46885 0.38329 0.90693 0.0
C1278 C 0.5085 0.3621 0.89376 0.0
N1279 N 0.48677 0.39957 0.90193 0.0
C1280 C 0.47048 0.3556 0.90561 0.0
C1281 C 0.4908 0.34471 0.89911 0.0
H1282 H 0.52055 0.40317 0.8917 0.0
H1283 H 0.4539 0.39176 0.91224 0.0
C1284 C 0.48082 0.49508 0.9401 0.0
N1285 N 0.49031 0.47195 0.93578 0.0
C1286 C 0.48098 0.49889 0.95128 0.0
C1287 C 0.50141 0.45525 0.95334 0.0
C1288 C 0.50044 0.45212 0.94211 0.0
C1289 C 0.49146 0.47887 0.95809 0.0
H1290 H 0.47275 0.51041 0.93484 0.0
H1291 H 0.50793 0.43396 0.93841 0.0
O1292 O 0.48835 0.46248 0.89294 0.0
O1293 O 0.49088 0.50165 0.91231 0.0
O1294 O 0.45763 0.44874 0.91479 0.0
O1295 O 0.51857 0.44622 0.91398 0.0
H1296 H 0.52065 0.45918 0.87595 0.0
H1297 H 0.44583 0.43228 0.88921 0.0
H1298 H 0.51266 0.4306 0.85985 0.0
H1299 H 0.43893 0.40427 0.87285 0.0
H1300 H 0.49068 0.59244 0.91507 0.0
H1301 H 0.49251 0.5131 0.89123 0.0
H1302 H 0.49044 0.54706 0.9233 0.0
H1303 H 0.49269 0.55897 0.8836 0.0
H1304 H 0.40019 0.51272 0.87678 0.0
H1305 H 0.399 0.55009 0.9084 0.0
H1306 H 0.59642 0.47018 0.88176 0.0
H1307 H 0.58815 0.54262 0.90071 0.0
H1308 H 0.4344 0.47959 0.9295 0.0
H1309 H 0.4197 0.42323 0.90379 0.0
H1310 H 0.38547 0.48445 0.93193 0.0
H1311 H 0.37105 0.42934 0.90656 0.0
H1312 H 0.55519 0.40846 0.91594 0.0
H1313 H 0.53554 0.49 0.92411 0.0
H1314 H 0.59838 0.41381 0.92566 0.0
H1315 H 0.57897 0.4939 0.93369 0.0
H1316 H 0.52466 0.35443 0.88882 0.0
H1317 H 0.4564 0.34281 0.90982 0.0
H1318 H 0.47257 0.51719 0.95453 0.0
H1319 H 0.51009 0.43944 0.95821 0.0
Li1320 Li 0.00711 0.55983 0.40659 0.0
Li1321 Li 0.00709 0.53024 0.42155 0.0
Li1322 Li 0.03714 0.52028 0.40646 0.0
Li1323 Li 0.98753 0.51529 0.40524 0.0
C1324 C 0.04524 0.56476 0.42546 0.0
N1325 N 0.0587 0.58886 0.44487 0.0
C1326 C 0.03238 0.5883 0.42872 0.0
C1327 C 0.06496 0.55351 0.43207 0.0
C1328 C 0.0395 0.60019 0.43855 0.0
C1329 C 0.07145 0.56596 0.44187 0.0
C1330 C 0.95864 0.55438 0.422 0.0
C1331 C 0.92722 0.54515 0.43635 0.0
N1332 N 0.92453 0.57193 0.43811 0.0
C1333 C 0.95547 0.58181 0.42391 0.0
C1334 C 0.94432 0.53588 0.42822 0.0
C1335 C 0.93815 0.59028 0.43211 0.0
C1336 C 0.98165 0.60387 0.39664 0.0
N1337 N 0.00476 0.59508 0.40121 0.0
C1338 C 0.02622 0.63678 0.39762 0.0
C1339 C 0.02694 0.61071 0.40163 0.0
C1340 C 0.00256 0.64669 0.39293 0.0
C1341 C 0.98013 0.62971 0.39237 0.0
H1342 H 0.96446 0.59072 0.3963 0.0
H1343 H 0.04515 0.60295 0.40517 0.0
C1344 C 0.01791 0.50369 0.44079 0.0
N1345 N 0.0063 0.52643 0.43698 0.0
C1346 C 0.01928 0.49881 0.45189 0.0
C1347 C -0.00332 0.54087 0.45502 0.0
C1348 C -0.00374 0.54519 0.44386 0.0
C1349 C 0.00829 0.51737 0.45921 0.0
H1350 H 0.02652 0.48945 0.4352 0.0
H1351 H 0.98803 0.5636 0.44073 0.0
C1352 C 0.01019 0.54701 0.38573 0.0
N1353 N 0.0052 0.57897 0.36757 0.0
C1354 C 0.98565 0.54883 0.38036 0.0
C1355 C 0.03224 0.5613 0.38184 0.0
C1356 C 0.98354 0.56511 0.37119 0.0
C1357 C 0.02929 0.57741 0.37266 0.0
C1358 C 0.00528 0.46986 0.41334 0.0
C1359 C 0.01821 0.45287 0.40603 0.0
C1360 C 0.98334 0.46048 0.41924 0.0
C1361 C 0.0087 0.42676 0.40463 0.0
C1362 C 0.97441 0.43426 0.41759 0.0
N1363 N 0.98716 0.41809 0.41038 0.0
C1364 C 0.08851 0.49781 0.40906 0.0
C1365 C 0.07322 0.50179 0.39094 0.0
C1366 C 0.11192 0.48526 0.40557 0.0
N1367 N 0.06982 0.5057 0.40174 0.0
C1368 C 0.0962 0.48921 0.3871 0.0
C1369 C 0.11585 0.48052 0.39446 0.0
H1370 H 0.08496 0.50067 0.41761 0.0
H1371 H 0.05769 0.5077 0.38534 0.0
C1372 C 0.93488 0.49632 0.40214 0.0
N1373 N 0.96054 0.4945 0.39862 0.0
C1374 C 0.91504 0.48039 0.3975 0.0
C1375 C 0.94837 0.46151 0.38552 0.0
C1376 C 0.96755 0.47784 0.39039 0.0
C1377 C 0.92173 0.46256 0.38912 0.0
H1378 H 0.9298 0.51014 0.40853 0.0
H1379 H 0.98813 0.47706 0.38771 0.0
O1380 O 0.03808 0.55249 0.41597 0.0
O1381 O 0.97519 0.54577 0.4139 0.0
O1382 O 0.01249 0.53175 0.39488 0.0
O1383 O 0.01387 0.49567 0.41465 0.0
H1384 H 0.01677 0.59707 0.42381 0.0
H1385 H 0.07495 0.53521 0.42974 0.0
H1386 H 0.02962 0.61833 0.44119 0.0
H1387 H 0.08657 0.55738 0.44709 0.0
H1388 H 0.91615 0.53106 0.44128 0.0
H1389 H 0.96631 0.59642 0.41915 0.0
H1390 H 0.94661 0.51459 0.42688 0.0
H1391 H 0.93558 0.61144 0.4337 0.0
H1392 H 0.04388 0.64917 0.39844 0.0
H1393 H 0.96162 0.63627 0.38867 0.0
H1394 H 0.02921 0.4808 0.45467 0.0
H1395 H 0.98777 0.55576 0.46028 0.0
H1396 H 0.96836 0.53802 0.38331 0.0
H1397 H 0.05131 0.56025 0.38597 0.0
H1398 H 0.96464 0.56683 0.36697 0.0
H1399 H 0.04612 0.58874 0.3696 0.0
H1400 H 0.03522 0.45984 0.4014 0.0
H1401 H 0.97321 0.47338 0.42496 0.0
H1402 H 0.01839 0.41342 0.39895 0.0
H1403 H 0.95733 0.42677 0.42204 0.0
H1404 H 0.12656 0.47901 0.41152 0.0
H1405 H 0.09803 0.48542 0.37849 0.0
H1406 H 0.89466 0.48217 0.40038 0.0
H1407 H 0.95443 0.44788 0.37915 0.0
H1408 H 0.01414 0.17367 0.61083 0.0
H1409 H 0.95639 0.31215 0.58816 0.0
H1410 H 0.95837 0.17933 0.58423 0.0
H1411 H 0.02435 0.30667 0.60961 0.0
H1412 H 0.95146 0.26348 0.58899 0.0
H1413 H 0.01263 0.22241 0.61279 0.0
C1414 C 0.00129 0.18517 0.6055 0.0
C1415 C 0.98647 0.17254 0.59731 0.0
C1416 C 0.96734 0.27294 0.59358 0.0
C1417 C 0.98485 0.22817 0.59944 0.0
C1418 C 0.97005 0.30071 0.59316 0.0
C1419 C 0.99092 0.31338 0.59877 0.0
C1420 C 0.98557 0.25777 0.59967 0.0
C1421 C 0.00823 0.2976 0.60504 0.0
C1422 C 0.00058 0.21296 0.60658 0.0
C1423 C 0.97038 0.18837 0.59055 0.0
N1424 N 0.00524 0.27056 0.60529 0.0
N1425 N 0.97007 0.21541 0.59174 0.0
H1426 H 0.94749 0.69221 0.84453 0.0
H1427 H 0.06572 0.79939 0.8441 0.0
H1428 H 0.93444 0.77745 0.84717 0.0
H1429 H 0.07865 0.71456 0.84842 0.0
H1430 H 0.01747 0.79182 0.84513 0.0
H1431 H -0.00431 0.69989 0.84588 0.0
C1432 C 0.95481 0.71253 0.84543 0.0
C1433 C 0.93703 0.73424 0.8457 0.0
C1434 C 0.03086 0.77488 0.84595 0.0
C1435 C 0.99201 0.74319 0.84723 0.0
C1436 C 0.05835 0.77919 0.8453 0.0
C1437 C 0.07612 0.75755 0.84613 0.0
C1438 C 0.02108 0.74871 0.84731 0.0
C1439 C 0.06561 0.73181 0.84781 0.0
C1440 C 0.98228 0.71689 0.84625 0.0
C1441 C 0.94749 0.76014 0.84701 0.0
N1442 N 0.03874 0.72806 0.84825 0.0
N1443 N 0.97433 0.76392 0.84763 0.0
H1444 H 0.5198 0.67661 0.11145 0.0
H1445 H 0.46668 0.81629 0.08817 0.0
H1446 H 0.46498 0.68404 0.08455 0.0
H1447 H 0.53611 0.80998 0.1088 0.0
H1448 H 0.46125 0.76777 0.08904 0.0
H1449 H 0.52207 0.72553 0.11256 0.0
C1450 C 0.50826 0.68847 0.10578 0.0
C1451 C 0.49221 0.67613 0.09788 0.0
C1452 C 0.47761 0.77699 0.09342 0.0
C1453 C 0.49442 0.732 0.09924 0.0
C1454 C 0.48059 0.8047 0.093 0.0
C1455 C 0.50191 0.81714 0.09841 0.0
C1456 C 0.49603 0.76157 0.09932 0.0
C1457 C 0.51958 0.8011 0.10442 0.0
C1458 C 0.50947 0.71636 0.10646 0.0
C1459 C 0.47731 0.69256 0.09088 0.0
N1460 N 0.51628 0.77407 0.1047 0.0
N1461 N 0.47881 0.71961 0.09172 0.0
H1462 H 0.57091 0.28048 0.3286 0.0
H1463 H 0.43978 0.21066 0.3527 0.0
H1464 H 0.57321 0.21259 0.3503 0.0
H1465 H 0.43843 0.26968 0.32712 0.0
H1466 H 0.48867 0.21271 0.35276 0.0
H1467 H 0.52216 0.27841 0.32873 0.0
C1468 C 0.56117 0.26507 0.33336 0.0
C1469 C 0.57618 0.24664 0.33942 0.0
C1470 C 0.47766 0.22515 0.34711 0.0
C1471 C 0.52037 0.24434 0.3397 0.0
C1472 C 0.44979 0.22406 0.34711 0.0
C1473 C 0.43508 0.23998 0.33988 0.0
C1474 C 0.49086 0.24243 0.33989 0.0
C1475 C 0.44903 0.25681 0.33273 0.0
C1476 C 0.53333 0.26396 0.33346 0.0
C1477 C 0.56246 0.22742 0.34561 0.0
N1478 N 0.47614 0.25766 0.33294 0.0
N1479 N 0.53532 0.22676 0.34558 0.0
H1480 H 0.95777 0.81281 0.38496 0.0
H1481 H 0.04184 0.67723 0.38335 0.0
H1482 H 0.04268 0.80876 0.39142 0.0
H1483 H 0.95973 0.68106 0.39419 0.0
H1484 H 0.04093 0.72559 0.38024 0.0
H1485 H 0.95736 0.76423 0.38238 0.0
C1486 C 0.97636 0.80187 0.38577 0.0
C1487 C 0.00021 0.81501 0.38865 0.0
C1488 C 0.02305 0.71564 0.38314 0.0
C1489 C -0.00013 0.75965 0.38532 0.0
C1490 C 0.02356 0.6881 0.38501 0.0
C1491 C 0.00101 0.67503 0.38929 0.0
C1492 C -0.00027 0.73014 0.38541 0.0
C1493 C 0.97761 0.69013 0.39088 0.0
C1494 C 0.97608 0.7742 0.3842 0.0
C1495 C 0.02381 0.79975 0.38917 0.0
N1496 N 0.97765 0.71695 0.38903 0.0
N1497 N 0.02299 0.77285 0.38761 0.0
H1498 H 0.4325 0.70522 0.64286 0.0
H1499 H 0.56688 0.7877 0.63802 0.0
H1500 H 0.43473 0.78921 0.63441 0.0
H1501 H 0.56451 0.70119 0.63889 0.0
H1502 H 0.51864 0.78835 0.63527 0.0
H1503 H 0.48061 0.70269 0.63999 0.0
C1504 C 0.44299 0.72303 0.6402 0.0
C1505 C 0.42957 0.74757 0.63902 0.0
C1506 C 0.52871 0.7692 0.63592 0.0
C1507 C 0.48482 0.74492 0.63596 0.0
C1508 C 0.55632 0.76881 0.63745 0.0
C1509 C 0.56976 0.74435 0.63883 0.0
C1510 C 0.51439 0.74499 0.6359 0.0
C1511 C 0.55489 0.72053 0.63814 0.0
C1512 C 0.47054 0.7216 0.63862 0.0
C1513 C 0.44436 0.77003 0.63568 0.0
N1514 N 0.52795 0.72146 0.63686 0.0
N1515 N 0.47125 0.76825 0.63441 0.0
H1516 H 0.50128 0.31347 0.88131 0.0
H1517 H 0.52353 0.18113 0.91663 0.0
H1518 H 0.49025 0.30948 0.91595 0.0
H1519 H 0.51538 0.1792 0.88182 0.0
H1520 H 0.51573 0.22932 0.91632 0.0
H1521 H 0.51014 0.26508 0.88111 0.0
C1522 C 0.50067 0.30237 0.88885 0.0
C1523 C 0.49489 0.31539 0.89865 0.0
C1524 C 0.51567 0.2184 0.90874 0.0
C1525 C 0.50516 0.26039 0.8985 0.0
C1526 C 0.52039 0.19093 0.9089 0.0
C1527 C 0.52021 0.17619 0.89923 0.0
C1528 C 0.51084 0.23133 0.89882 0.0
C1529 C 0.51551 0.18984 0.88946 0.0
C1530 C 0.50564 0.27483 0.88873 0.0
C1531 C 0.49423 0.30015 0.9082 0.0
N1532 N 0.51105 0.21672 0.8895 0.0
N1533 N 0.49943 0.2735 0.90789 0.0
H1534 H 0.07537 0.26787 0.1326 0.0
H1535 H 0.9335 0.20371 0.1465 0.0
H1536 H 0.06436 0.18892 0.14617 0.0
H1537 H 0.94349 0.28392 0.13406 0.0
H1538 H 0.98102 0.19545 0.14359 0.0
H1539 H 0.02697 0.27143 0.13006 0.0
C1540 C 0.0628 0.25108 0.13484 0.0
C1541 C 0.07378 0.22821 0.13975 0.0
C1542 C 0.97284 0.21479 0.14139 0.0
C1543 C 0.01853 0.23228 0.13702 0.0
C1544 C 0.94575 0.21954 0.1431 0.0
C1545 C 0.93473 0.24467 0.14068 0.0
C1546 C 0.98911 0.23541 0.13732 0.0
C1547 C 0.95128 0.26429 0.13606 0.0
C1548 C 0.03518 0.25318 0.13346 0.0
C1549 C 0.05661 0.20711 0.14256 0.0
N1550 N 0.97778 0.25937 0.13466 0.0
N1551 N 0.02981 0.20977 0.14126 0.0
H1552 H 0.03215 0.01587 0.46837 0.0
H1553 H -0.00283 0.95739 0.52697 0.0
H1554 H 0.99034 0.94111 0.47333 0.0
H1555 H 0.02405 0.03852 0.52143 0.0
H1556 H -0.00288 0.94982 0.50742 0.0
H1557 H 0.03207 0.02325 0.4879 0.0
C1558 C 0.02282 0.00105 0.47355 0.0
C1559 C 0.01115 0.97786 0.46917 0.0
C1560 C 0.003 0.96928 0.51049 0.0
C1561 C 0.01137 0.98603 0.49159 0.0
C1562 C 0.00291 0.97368 0.52165 0.0
C1563 C 0.01062 -0.00135 0.52587 0.0
C1564 C 0.01097 0.98996 0.50348 0.0
C1565 C 0.01833 0.01883 0.51857 0.0
C1566 C 0.02291 0.00523 0.48472 0.0
C1567 C -0.00013 0.95911 0.47634 0.0
N1568 N 0.01833 0.01403 0.50774 0.0
N1569 N 0.00026 0.96361 0.48719 0.0
H1570 H 0.29523 0.78301 0.77677 0.0
H1571 H 0.247 0.72043 0.72042 0.0
H1572 H 0.22226 0.73773 0.77274 0.0
H1573 H 0.30881 0.78062 0.72276 0.0
H1574 H 0.24132 0.72229 0.74002 0.0
H1575 H 0.30379 0.77858 0.75734 0.0
C1576 C 0.28096 0.77223 0.77182 0.0
C1577 C 0.25795 0.76076 0.77642 0.0
C1578 C 0.25618 0.73505 0.73625 0.0
C1579 C 0.2679 0.75526 0.75423 0.0
C1580 C 0.25938 0.73407 0.72505 0.0
C1581 C 0.27821 0.75061 0.71991 0.0
C1582 C 0.27199 0.75263 0.7424 0.0
C1583 C 0.29415 0.76739 0.72638 0.0
C1584 C 0.28596 0.76958 0.76074 0.0
C1585 C 0.24045 0.74657 0.76961 0.0
N1586 N 0.29059 0.76806 0.73729 0.0
N1587 N 0.24579 0.74424 0.75888 0.0
H1588 H 0.56305 0.00338 0.02497 0.0
H1589 H 0.47903 0.00504 0.97055 0.0
H1590 H 0.48606 0.96484 0.02278 0.0
H1591 H 0.56508 -0.00035 0.97024 0.0
H1592 H 0.47954 -0.00206 0.99026 0.0
H1593 H 0.56268 0.00985 0.00522 0.0
C1594 C 0.5461 -0.00365 0.02029 0.0
C1595 C 0.52459 0.98351 0.02539 0.0
C1596 C 0.49827 -0.00173 0.98585 0.0
C1597 C 0.52382 0.99116 0.00304 0.0
C1598 C 0.49798 0.00243 0.97467 0.0
C1599 C 0.52205 0.00283 0.96886 0.0
C1600 C 0.52281 0.99513 0.99121 0.0
C1601 C 0.54613 -0.00072 0.97449 0.0
C1602 C 0.54593 -7e-05 0.00909 0.0
C1603 C 0.50306 0.97467 0.01906 0.0
N1604 N 0.54595 0.9958 0.9854 0.0
N1605 N 0.50308 0.97888 0.00819 0.0
H1606 H 0.22932 0.28114 0.22124 0.0
H1607 H 0.26172 0.20601 0.27638 0.0
H1608 H 0.21803 0.19581 0.22526 0.0
H1609 H 0.24016 0.28968 0.27535 0.0
H1610 H 0.25065 0.20221 0.2571 0.0
H1611 H 0.23733 0.28508 0.24067 0.0
C1612 C 0.22816 0.26325 0.22619 0.0
C1613 C 0.22296 0.23806 0.22154 0.0
C1614 C 0.24827 0.22137 0.26111 0.0
C1615 C 0.23293 0.24247 0.24377 0.0
C1616 C 0.25476 0.22359 0.27205 0.0
C1617 C 0.25188 0.24821 0.2774 0.0
C1618 C 0.23925 0.24403 0.25545 0.0
C1619 C 0.2425 0.27032 0.2715 0.0
C1620 C 0.23293 0.26554 0.23728 0.0
C1621 C 0.22243 0.21557 0.2284 0.0
N1622 N 0.23669 0.26777 0.26079 0.0
N1623 N 0.22756 0.21829 0.23915 0.0
H1624 H 0.80986 0.28702 0.22231 0.0
H1625 H 0.71894 0.22249 0.26883 0.0
H1626 H 0.73553 0.24581 0.2161 0.0
H1627 H 0.78495 0.27599 0.27531 0.0
H1628 H 0.72604 0.22895 0.24944 0.0
H1629 H 0.80262 0.28107 0.24178 0.0
C1630 C 0.79204 0.2767 0.22505 0.0
C1631 C 0.77323 0.26697 0.21759 0.0
C1632 C 0.73896 0.23929 0.25511 0.0
C1633 C 0.7648 0.26009 0.23981 0.0
C1634 C 0.73484 0.2357 0.26619 0.0
C1635 C 0.75137 0.24871 0.27373 0.0
C1636 C 0.75983 0.25591 0.25152 0.0
C1637 C 0.77197 0.26522 0.2698 0.0
C1638 C 0.78785 0.27342 0.23615 0.0
C1639 C 0.75036 0.25395 0.22158 0.0
N1640 N 0.77562 0.26832 0.25897 0.0
N1641 N 0.74684 0.25081 0.23241 0.0
H1642 H 0.73865 0.68513 0.71826 0.0
H1643 H 0.74116 0.7627 0.775 0.0
H1644 H 0.71709 0.7684 0.72193 0.0
H1645 H 0.76623 0.68051 0.77099 0.0
H1646 H 0.73022 0.76462 0.75573 0.0
H1647 H 0.7466 0.68241 0.73774 0.0
C1648 C 0.7356 0.70286 0.72317 0.0
C1649 C 0.72736 0.72708 0.71844 0.0
C1650 C 0.73806 0.74614 0.75907 0.0
C1651 C 0.73624 0.72407 0.74078 0.0
C1652 C 0.74447 0.74508 0.77006 0.0
C1653 C 0.75477 0.72145 0.77461 0.0
C1654 C 0.74198 0.7234 0.75256 0.0
C1655 C 0.75812 0.69907 0.76785 0.0
C1656 C 0.74004 0.70126 0.7343 0.0
C1657 C 0.72323 0.74927 0.72523 0.0
N1658 N 0.75183 0.70064 0.75716 0.0
N1659 N 0.72785 0.74726 0.73605 0.0
H1660 H 0.48416 0.44083 0.974 0.0
H1661 H 0.47806 0.54495 0.02248 0.0
H1662 H 0.49938 0.52543 0.96959 0.0
H1663 H 0.49952 0.4619 0.0274 0.0
H1664 H 0.47984 0.53774 0.00296 0.0
H1665 H 0.48409 0.44772 0.99359 0.0
C1666 C 0.48772 0.46081 0.9771 0.0
C1667 C 0.49176 0.48258 0.97006 0.0
C1668 C 0.4842 0.52115 0.00834 0.0
C1669 C 0.49094 0.4906 0.99249 0.0
C1670 C 0.48333 0.52524 0.0195 0.0
C1671 C 0.48876 0.50404 0.02668 0.0
C1672 C 0.49012 0.49559 0.00428 0.0
C1673 C 0.49476 0.47878 0.02224 0.0
C1674 C 0.4875 0.4647 0.98829 0.0
C1675 C 0.49564 0.50809 0.97463 0.0
N1676 N 0.49517 0.47524 0.01133 0.0
N1677 N 0.49497 0.51141 0.98555 0.0
H1678 H 0.99378 0.52782 0.52889 0.0
H1679 H 0.005 0.46894 0.46982 0.0
H1680 H 0.03241 0.4518 0.5227 0.0
H1681 H 0.01323 0.55393 0.47585 0.0
H1682 H 0.00735 0.46088 0.48928 0.0
H1683 H 0.99325 0.53653 0.50944 0.0
C1684 C 0.00238 0.51302 0.52351 0.0
C1685 C 0.01325 0.489 0.52754 0.0
C1686 C 0.00868 0.48125 0.48629 0.0
C1687 C 0.01174 0.49864 0.50523 0.0
C1688 C 0.00751 0.48593 0.47517 0.0
C1689 C 0.00908 0.51221 0.47109 0.0
C1690 C 0.01084 0.50297 0.49342 0.0
C1691 C 0.01147 0.53338 0.47855 0.0
C1692 C 0.00187 0.51801 0.5124 0.0
C1693 C 0.02335 0.47036 0.52004 0.0
N1694 N 0.01212 0.5283 0.48937 0.0
N1695 N 0.02217 0.47549 0.50925 0.0
H1696 H 0.19092 0.8878 0.65201 0.0
H1697 H 0.16715 0.97898 0.60082 0.0
H1698 H 0.25132 0.89924 0.62741 0.0
H1699 H 0.11893 0.9837 0.62975 0.0
H1700 H 0.20018 0.95257 0.61084 0.0
H1701 H 0.16627 0.92562 0.64465 0.0
C1702 C 0.19933 0.89853 0.64519 0.0
C1703 C 0.22314 0.89 0.64025 0.0
C1704 C 0.18262 0.95983 0.61505 0.0
C1705 C 0.19448 0.93306 0.63159 0.0
C1706 C 0.16377 0.97482 0.60933 0.0
C1707 C 0.1402 0.98328 0.61444 0.0
C1708 C 0.1776 0.95293 0.6259 0.0
C1709 C 0.13687 0.97764 0.6255 0.0
C1710 C 0.1851 0.92011 0.64095 0.0
C1711 C 0.2327 0.9046 0.63131 0.0
N1712 N 0.15515 0.96243 0.63081 0.0
N1713 N 0.21813 0.92517 0.62716 0.0
H1714 H 0.27362 0.89421 0.87759 0.0
H1715 H 0.4 0.98936 0.86833 0.0
H1716 H 0.30805 0.91111 0.84624 0.0
H1717 H 0.37297 0.96278 0.89975 0.0
H1718 H 0.36083 0.9683 0.8601 0.0
H1719 H 0.30434 0.92654 0.88573 0.0
C1720 C 0.28747 0.90492 0.8724 0.0
C1721 C 0.28855 0.89964 0.86124 0.0
C1722 C 0.36332 0.96732 0.86881 0.0
C1723 C 0.32368 0.93669 0.8705 0.0
C1724 C 0.38559 0.97948 0.87352 0.0
C1725 C 0.38991 0.97752 0.88473 0.0
C1726 C 0.34524 0.95311 0.87536 0.0
C1727 C 0.37068 0.96429 0.89105 0.0
C1728 C 0.30494 0.92341 0.87705 0.0
C1729 C 0.30646 0.91454 0.85488 0.0
N1730 N 0.3493 0.95238 0.88627 0.0
N1731 N 0.32355 0.93215 0.85962 0.0
H1732 H 0.41227 0.03027 0.12757 0.0
H1733 H 0.28491 0.12509 0.11932 0.0
H1734 H 0.38125 0.05194 0.0961 0.0
H1735 H 0.32739 0.11662 0.14956 0.0
H1736 H 0.3158 0.09303 0.11098 0.0
H1737 H 0.3771 0.0568 0.13603 0.0
C1738 C 0.39808 0.04064 0.12243 0.0
C1739 C 0.39993 0.03916 0.1111 0.0
C1740 C 0.31825 0.0981 0.11945 0.0
C1741 C 0.35937 0.06932 0.12076 0.0
C1742 C 0.30057 0.11624 0.12422 0.0
C1743 C 0.30378 0.12359 0.13511 0.0
C1744 C 0.3391 0.08715 0.12566 0.0
C1745 C 0.32449 0.11175 0.14109 0.0
C1746 C 0.37792 0.05568 0.12728 0.0
C1747 C 0.38052 0.05244 0.10487 0.0
N1748 N 0.3414 0.09415 0.13628 0.0
N1749 N 0.36112 0.06711 0.10978 0.0
H1750 H 0.14169 0.03952 0.39639 0.0
H1751 H 0.18436 0.12621 0.34518 0.0
H1752 H 0.10391 0.03256 0.36504 0.0
H1753 H 0.23252 0.12057 0.37416 0.0
H1754 H 0.15539 0.09108 0.35219 0.0
H1755 H 0.17582 0.06831 0.38835 0.0
C1756 C 0.14075 0.04373 0.38778 0.0
C1757 C 0.11975 0.03373 0.38139 0.0
C1758 C 0.17243 0.09735 0.35698 0.0
C1759 C 0.15852 0.0671 0.3722 0.0
C1760 C 0.18914 0.11733 0.35295 0.0
C1761 C 0.21095 0.12649 0.35909 0.0
C1762 C 0.17731 0.08657 0.3673 0.0
C1763 C 0.21569 0.11451 0.36922 0.0
C1764 C 0.16019 0.0603 0.38322 0.0
C1765 C 0.11939 0.04023 0.37033 0.0
N1766 N 0.19888 0.09532 0.37304 0.0
N1767 N 0.13835 0.05666 0.3661 0.0
H1768 H 0.89216 0.02018 0.36735 0.0
H1769 H 0.77225 0.12339 0.37694 0.0
H1770 H 0.86273 0.04213 0.399 0.0
H1771 H 0.80808 0.10762 0.34576 0.0
H1772 H 0.80083 0.0889 0.38495 0.0
H1773 H 0.85697 0.04724 0.3591 0.0
C1774 C 0.87822 0.03064 0.37256 0.0
C1775 C 0.8806 0.0292 0.38388 0.0
C1776 C 0.80223 0.09282 0.37634 0.0
C1777 C 0.84016 0.0601 0.3745 0.0
C1778 C 0.78601 0.11256 0.37177 0.0
C1779 C 0.78793 0.11856 0.36068 0.0
C1780 C 0.82055 0.07901 0.36977 0.0
C1781 C 0.80574 0.10355 0.35433 0.0
C1782 C 0.85806 0.04599 0.36785 0.0
C1783 C 0.86161 0.04264 0.39024 0.0
N1784 N 0.82151 0.08464 0.35898 0.0
N1785 N 0.84233 0.05775 0.38546 0.0
H1786 H 0.59697 0.06315 0.1231 0.0
H1787 H 0.74321 0.12387 0.13013 0.0
H1788 H 0.66415 0.03431 0.10454 0.0
H1789 H 0.67149 0.16915 0.13656 0.0
H1790 H 0.71563 0.08714 0.12304 0.0
H1791 H 0.62538 0.09836 0.13069 0.0
C1792 C 0.61782 0.06406 0.12074 0.0
C1793 C 0.62834 0.04582 0.11323 0.0
C1794 C 0.70599 0.10515 0.12599 0.0
C1795 C 0.66079 0.08602 0.1218 0.0
C1796 C 0.72165 0.12599 0.13006 0.0
C1797 C 0.7095 0.14948 0.13389 0.0
C1798 C 0.67805 0.10772 0.12595 0.0
C1799 C 0.68156 0.15141 0.13358 0.0
C1800 C 0.63392 0.08426 0.12499 0.0
C1801 C 0.65534 0.0481 0.11029 0.0
N1802 N 0.66673 0.1307 0.12974 0.0
N1803 N 0.67073 0.06783 0.11463 0.0
H1804 H 0.73571 0.867 0.85516 0.0
H1805 H 0.61046 0.90177 0.89297 0.0
H1806 H 0.6829 0.80788 0.86909 0.0
H1807 H 0.65641 0.96219 0.87622 0.0
H1808 H 0.63931 0.86733 0.88534 0.0
H1809 H 0.7093 0.90239 0.86382 0.0
C1810 C 0.71866 0.86149 0.86009 0.0
C1811 C 0.71137 0.8345 0.86137 0.0
C1812 C 0.64319 0.88811 0.88334 0.0
C1813 C 0.6811 0.87475 0.87123 0.0
C1814 C 0.62684 0.90782 0.88777 0.0
C1815 C 0.63112 0.93492 0.88526 0.0
C1816 C 0.66405 0.89545 0.87633 0.0
C1817 C 0.6523 0.94151 0.87829 0.0
C1818 C 0.70353 0.88167 0.86497 0.0
C1819 C 0.68898 0.82845 0.86776 0.0
N1820 N 0.66802 0.92189 0.87406 0.0
N1821 N 0.67466 0.8484 0.87244 0.0
H1822 H 0.8234 0.86177 0.65075 0.0
H1823 H 0.88132 0.92969 0.59691 0.0
H1824 H 0.79108 0.84802 0.61879 0.0
H1825 H 0.91347 0.94385 0.62887 0.0
H1826 H 0.84649 0.90166 0.60491 0.0
H1827 H 0.85487 0.89399 0.64303 0.0
C1828 C 0.82274 0.86574 0.64213 0.0
C1829 C 0.80469 0.85208 0.6354 0.0
C1830 C 0.8611 0.91097 0.61018 0.0
C1831 C 0.84087 0.88866 0.62649 0.0
C1832 C 0.88091 0.92709 0.60562 0.0
C1833 C 0.90039 0.93902 0.61223 0.0
C1834 C 0.86077 0.90674 0.62143 0.0
C1835 C 0.89909 0.93468 0.62345 0.0
C1836 C 0.84082 0.88401 0.63771 0.0
C1837 C 0.80496 0.85777 0.62425 0.0
N1838 N 0.87967 0.91883 0.6277 0.0
N1839 N 0.82283 0.87555 0.62015 0.0
H1840 H 0.73849 0.38177 0.11251 0.0
H1841 H 0.622 0.48821 0.12305 0.0
H1842 H 0.70889 0.4029 0.14425 0.0
H1843 H 0.63899 0.45327 0.09183 0.0
H1844 H 0.66085 0.46493 0.13056 0.0
H1845 H 0.70888 0.4154 0.10456 0.0
C1846 C 0.72592 0.39359 0.11782 0.0
C1847 C 0.7259 0.38918 0.12906 0.0
C1848 C 0.65626 0.46262 0.12204 0.0
C1849 C 0.6922 0.42787 0.12001 0.0
C1850 C 0.63422 0.47604 0.11773 0.0
C1851 C 0.62712 0.47236 0.10684 0.0
C1852 C 0.67133 0.44551 0.11539 0.0
C1853 C 0.64352 0.45622 0.10032 0.0
C1854 C 0.70912 0.41286 0.11327 0.0
C1855 C 0.70969 0.40561 0.13555 0.0
N1856 N 0.66475 0.4432 0.10472 0.0
N1857 N 0.69329 0.42403 0.13092 0.0
H1858 H 0.82851 0.3649 0.34535 0.0
H1859 H 0.88173 0.43513 0.39946 0.0
H1860 H 0.7947 0.35056 0.37701 0.0
H1861 H 0.9148 0.44989 0.3677 0.0
H1862 H 0.84847 0.40551 0.39131 0.0
H1863 H 0.85895 0.39763 0.35331 0.0
C1864 C 0.82728 0.36885 0.35396 0.0
C1865 C 0.80903 0.35495 0.36053 0.0
C1866 C 0.86295 0.41528 0.38612 0.0
C1867 C 0.84414 0.39213 0.36973 0.0
C1868 C 0.88186 0.43231 0.39076 0.0
C1869 C 0.90111 0.44496 0.38425 0.0
C1870 C 0.86328 0.41084 0.37489 0.0
C1871 C 0.90058 0.44024 0.37304 0.0
C1872 C 0.84481 0.38742 0.35852 0.0
C1873 C 0.80868 0.36056 0.37167 0.0
N1874 N 0.88199 0.42353 0.36872 0.0
N1875 N 0.82603 0.37868 0.37593 0.0
H1876 H 0.90314 0.52865 0.62991 0.0
H1877 H 0.76761 0.61002 0.62044 0.0
H1878 H 0.86823 0.54097 0.59827 0.0
H1879 H 0.81809 0.61963 0.64861 0.0
H1880 H 0.79946 0.57741 0.61322 0.0
H1881 H 0.86693 0.5548 0.63789 0.0
C1882 C 0.88789 0.53685 0.62463 0.0
C1883 C 0.88898 0.53291 0.61337 0.0
C1884 C 0.80336 0.58655 0.62102 0.0
C1885 C 0.84721 0.5624 0.6225 0.0
C1886 C 0.78528 0.60524 0.62514 0.0
C1887 C 0.79022 0.61782 0.63513 0.0
C1888 C 0.82641 0.58022 0.62698 0.0
C1889 C 0.81318 0.6103 0.64095 0.0
C1890 C 0.86716 0.55163 0.6292 0.0
C1891 C 0.86818 0.54336 0.60699 0.0
N1892 N 0.83045 0.5921 0.63676 0.0
N1893 N 0.84821 0.55776 0.61164 0.0
H1894 H 0.70386 0.58229 0.84591 0.0
H1895 H 0.63672 0.53345 0.90095 0.0
H1896 H 0.73344 0.60369 0.87762 0.0
H1897 H 0.61127 0.50686 0.86932 0.0
H1898 H 0.67518 0.55554 0.89263 0.0
H1899 H 0.67324 0.55044 0.85433 0.0
C1900 C 0.7043 0.57994 0.85463 0.0
C1901 C 0.72106 0.59593 0.86108 0.0
C1902 C 0.66136 0.54463 0.88751 0.0
C1903 C 0.6856 0.55986 0.87079 0.0
C1904 C 0.63935 0.53213 0.89226 0.0
C1905 C 0.62063 0.51859 0.8858 0.0
C1906 C 0.66456 0.54381 0.87621 0.0
C1907 C 0.62525 0.51705 0.8746 0.0
C1908 C 0.68664 0.56186 0.85944 0.0
C1909 C 0.72046 0.59221 0.87235 0.0
N1910 N 0.64658 0.5298 0.87014 0.0
N1911 N 0.70281 0.57478 0.87685 0.0
H1912 H 0.35315 0.52817 0.87876 0.0
H1913 H 0.32979 0.68619 0.87334 0.0
H1914 H 0.39935 0.58782 0.89583 0.0
H1915 H 0.27701 0.62753 0.85908 0.0
H1916 H 0.35549 0.65003 0.88161 0.0
H1917 H 0.32487 0.56392 0.87139 0.0
C1918 C 0.35728 0.54877 0.88097 0.0
C1919 C 0.37856 0.55504 0.88794 0.0
C1920 C 0.33823 0.64501 0.87671 0.0
C1921 C 0.34642 0.59593 0.87957 0.0
C1922 C 0.32365 0.66565 0.87194 0.0
C1923 C 0.30134 0.65981 0.86548 0.0
C1924 C 0.33058 0.61827 0.87496 0.0
C1925 C 0.294 0.63288 0.86408 0.0
C1926 C 0.34109 0.56913 0.87681 0.0
C1927 C 0.38292 0.58202 0.89062 0.0
N1928 N 0.30869 0.61305 0.86873 0.0
N1929 N 0.36708 0.60145 0.88639 0.0
H1930 H 0.09237 0.55257 0.62692 0.0
H1931 H 0.23821 0.6171 0.62989 0.0
H1932 H 0.15643 0.52755 0.60581 0.0
H1933 H 0.16683 0.65822 0.64028 0.0
H1934 H 0.21042 0.57978 0.62343 0.0
H1935 H 0.1217 0.58687 0.63458 0.0
C1936 C 0.11277 0.55405 0.62402 0.0
C1937 C 0.12206 0.53723 0.61574 0.0
C1938 C 0.20091 0.59699 0.62713 0.0
C1939 C 0.15556 0.57652 0.62438 0.0
C1940 C 0.21669 0.61816 0.63083 0.0
C1941 C 0.20468 0.64071 0.63555 0.0
C1942 C 0.17303 0.59827 0.62834 0.0
C1943 C 0.17678 0.64127 0.63657 0.0
C1944 C 0.12938 0.57377 0.62832 0.0
C1945 C 0.14851 0.54027 0.61215 0.0
N1946 N 0.16187 0.62029 0.63303 0.0
N1947 N 0.16441 0.55957 0.6165 0.0
H1948 H 0.14534 0.48835 0.37595 0.0
H1949 H 0.2304 0.35407 0.38362 0.0
H1950 H 0.13953 0.43694 0.40402 0.0
H1951 H 0.21832 0.3932 0.35278 0.0
H1952 H 0.20466 0.3896 0.39238 0.0
H1953 H 0.17982 0.45885 0.36858 0.0
C1954 C 0.1514 0.47097 0.3806 0.0
C1955 C 0.13922 0.46494 0.39056 0.0
C1956 C 0.20789 0.39049 0.3837 0.0
C1957 C 0.17887 0.43133 0.38223 0.0
C1958 C 0.22245 0.37016 0.37869 0.0
C1959 C 0.22624 0.37042 0.36741 0.0
C1960 C 0.19713 0.41131 0.37742 0.0
C1961 C 0.21607 0.39219 0.36149 0.0
C1962 C 0.17116 0.45422 0.37641 0.0
C1963 C 0.14841 0.44252 0.39635 0.0
N1964 N 0.2018 0.41165 0.36655 0.0
N1965 N 0.16752 0.4264 0.39205 0.0
H1966 H 0.39624 0.45214 0.13133 0.0
H1967 H 0.27165 0.35527 0.12279 0.0
H1968 H 0.35198 0.44774 0.10132 0.0
H1969 H 0.30767 0.37075 0.15397 0.0
H1970 H 0.2992 0.39069 0.11493 0.0
H1971 H 0.36265 0.42394 0.13992 0.0
C1972 C 0.37927 0.44557 0.12657 0.0
C1973 C 0.37705 0.45227 0.11555 0.0
C1974 C 0.30089 0.38651 0.12351 0.0
C1975 C 0.33869 0.41941 0.12532 0.0
C1976 C 0.28503 0.36639 0.12803 0.0
C1977 C 0.28754 0.35983 0.13905 0.0
C1978 C 0.3195 0.40005 0.13004 0.0
C1979 C 0.30548 0.37473 0.14539 0.0
C1980 C 0.36014 0.42931 0.13147 0.0
C1981 C 0.3548 0.44269 0.10977 0.0
N1982 N 0.32094 0.39396 0.14078 0.0
N1983 N 0.33659 0.42658 0.1147 0.0
loop_
_geom_bond_atom_site_label_1
_geom_bond_atom_site_label_2
_geom_bond_distance
_geom_bond_site_symmetry_2
_ccdc_geom_bond_type
Li0 N17 1.990 . S
Li0 O60 1.956 . S
Li0 O61 1.970 1_455 S
Li0 O62 1.961 . S
Li1 N25 1.990 . S
Li1 O60 1.970 . S
Li1 O61 1.956 1_455 S
Li1 O63 1.961 . S
Li2 N47 1.990 . S
Li2 O60 1.961 . S
Li2 O62 1.956 . S
Li2 O63 1.970 . S
Li3 N53 1.990 . S
Li3 O61 1.961 . S
Li3 O62 1.970 1_655 S
Li3 O63 1.956 1_655 S
C4 C6 1.348 . S
C4 C7 1.356 . S
C4 O60 1.325 . S
N5 C8 1.314 . S
N5 C9 1.279 . S
C6 C4 1.348 . S
C6 C8 1.353 . S
C6 H64 0.929 . S
C7 C4 1.356 . S
C7 C9 1.358 . S
C7 H65 0.930 . S
C8 N5 1.314 . S
C8 C6 1.353 . S
C8 H66 0.930 . S
C9 N5 1.279 . S
C9 C7 1.358 . S
C9 H67 0.930 . S
C10 C13 1.348 . S
C10 C14 1.356 . S
C10 O61 1.325 . S
C11 N12 1.279 . S
C11 C14 1.358 . S
C11 H68 0.930 . S
N12 C11 1.279 . S
N12 C15 1.314 . S
C13 C10 1.348 . S
C13 C15 1.353 . S
C13 H69 0.929 . S
C14 C10 1.356 . S
C14 C11 1.358 . S
C14 H70 0.930 . S
C15 N12 1.314 . S
C15 C13 1.353 . S
C15 H71 0.930 . S
C16 N17 1.314 1_655 S
C16 C21 1.353 . S
C16 H22 0.948 . S
N17 Li0 1.990 . S
N17 C16 1.314 1_455 S
N17 C19 1.279 . S
C18 C19 1.358 . S
C18 C20 1.356 . S
C18 H72 0.930 . S
C19 N17 1.279 . S
C19 C18 1.358 . S
C19 H23 0.930 . S
C20 C18 1.356 . S
C20 C21 1.348 1_455 S
C21 C16 1.353 . S
C21 C20 1.348 1_655 S
C21 H73 0.929 1_545 S
H22 C16 0.948 . S
H23 C19 0.930 . S
C24 N25 1.314 . S
C24 C26 1.353 . S
C24 H30 0.930 . S
N25 Li1 1.990 . S
N25 C24 1.314 . S
N25 C28 1.279 1_455 S
C26 C24 1.353 . S
C26 C29 1.348 . S
C26 H74 0.929 . S
C27 C28 1.358 . S
C27 C29 1.356 1_655 S
C27 H75 0.930 . S
C28 N25 1.279 1_655 S
C28 C27 1.358 . S
C28 H31 0.930 . S
C29 C26 1.348 . S
C29 C27 1.356 1_455 S
H30 C24 0.930 . S
H31 C28 0.930 . S
C32 C34 1.348 1_455 S
C32 C35 1.356 . S
C32 O62 1.325 1_565 S
N33 C36 1.314 1_455 S
N33 C37 1.279 . S
C34 C32 1.348 1_655 S
C34 C36 1.353 . S
C34 H76 0.929 . S
C35 C32 1.356 . S
C35 C37 1.358 . S
C35 H77 0.930 . S
C36 N33 1.314 1_655 S
C36 C34 1.353 . S
C36 H78 0.930 . S
C37 N33 1.279 . S
C37 C35 1.358 . S
C37 H79 0.930 . S
C38 C39 1.348 . S
C38 C40 1.356 1_455 S
C38 O63 1.325 . S
C39 C38 1.348 . S
C39 C41 1.353 . S
C39 H80 0.929 . S
C40 C38 1.356 1_655 S
C40 C42 1.358 . S
C40 H81 0.930 . S
C41 C39 1.353 . S
C41 N43 1.314 . S
C41 H82 0.930 . S
C42 C40 1.358 . S
C42 N43 1.279 1_655 S
C42 H83 0.930 . S
N43 C41 1.314 . S
N43 C42 1.279 1_455 S
C44 C46 1.353 . S
C44 N47 1.314 . S
C44 H50 0.930 . S
C45 N47 1.279 1_565 S
C45 C48 1.358 . S
C45 H51 0.930 . S
C46 C44 1.353 . S
C46 C49 1.348 1_545 S
C46 H84 0.929 . S
N47 Li2 1.990 . S
N47 C44 1.314 . S
N47 C45 1.279 1_545 S
C48 C45 1.358 . S
C48 C49 1.356 . S
C48 H85 0.930 . S
C49 C46 1.348 1_565 S
C49 C48 1.356 . S
H50 C44 0.930 . S
H51 C45 0.930 . S
C52 N53 1.314 . S
C52 C54 1.353 1_545 S
C52 H58 0.930 . S
N53 Li3 1.990 . S
N53 C52 1.314 . S
N53 C56 1.279 . S
C54 C52 1.353 1_565 S
C54 C57 1.348 . S
C54 H86 0.929 . S
C55 C56 1.358 1_565 S
C55 C57 1.356 . S
C55 H87 0.930 . S
C56 N53 1.279 . S
C56 C55 1.358 1_545 S
C56 H59 0.930 . S
C57 C54 1.348 . S
C57 C55 1.356 . S
H58 C52 0.930 . S
H59 C56 0.930 . S
O60 Li0 1.956 . S
O60 Li1 1.970 . S
O60 Li2 1.961 . S
O60 C4 1.325 . S
O61 Li0 1.970 1_655 S
O61 Li1 1.956 1_655 S
O61 Li3 1.961 . S
O61 C10 1.325 . S
O62 Li0 1.961 . S
O62 Li2 1.956 . S
O62 Li3 1.970 1_455 S
O62 C32 1.325 1_545 S
O63 Li1 1.961 . S
O63 Li2 1.970 . S
O63 Li3 1.956 1_455 S
O63 C38 1.325 . S
H64 C6 0.929 . S
H65 C7 0.930 . S
H66 C8 0.930 . S
H67 C9 0.930 . S
H68 C11 0.930 . S
H69 C13 0.929 . S
H70 C14 0.930 . S
H71 C15 0.930 . S
H72 C18 0.930 . S
H73 C21 0.929 1_565 S
H74 C26 0.929 . S
H75 C27 0.930 . S
H76 C34 0.929 . S
H77 C35 0.930 . S
H78 C36 0.930 . S
H79 C37 0.930 . S
H80 C39 0.929 . S
H81 C40 0.930 . S
H82 C41 0.930 . S
H83 C42 0.930 . S
H84 C46 0.929 . S
H85 C48 0.930 . S
H86 C54 0.929 . S
H87 C55 0.930 . S
Li88 N105 1.990 . S
Li88 O148 1.956 . S
Li88 O149 1.970 . S
Li88 O150 1.961 . S
Li89 N113 1.990 . S
Li89 O148 1.970 . S
Li89 O149 1.956 . S
Li89 O151 1.961 . S
Li90 N135 1.990 . S
Li90 O148 1.961 . S
Li90 O150 1.956 . S
Li90 O151 1.970 . S
Li91 N141 1.990 . S
Li91 O149 1.961 . S
Li91 O150 1.970 . S
Li91 O151 1.956 . S
C92 C94 1.348 . S
C92 C95 1.356 . S
C92 O148 1.325 . S
N93 C96 1.314 . S
N93 C97 1.279 . S
C94 C92 1.348 . S
C94 C96 1.353 . S
C94 H152 0.929 . S
C95 C92 1.356 . S
C95 C97 1.358 . S
C95 H153 0.930 . S
C96 N93 1.314 . S
C96 C94 1.353 . S
C96 H154 0.930 . S
C97 N93 1.279 . S
C97 C95 1.358 . S
C97 H155 0.930 . S
C98 C101 1.348 . S
C98 C102 1.356 . S
C98 O149 1.325 . S
C99 N100 1.279 . S
C99 C102 1.358 . S
C99 H156 0.930 . S
N100 C99 1.279 . S
N100 C103 1.314 . S
C101 C98 1.348 . S
C101 C103 1.353 . S
C101 H157 0.929 . S
C102 C98 1.356 . S
C102 C99 1.358 . S
C102 H158 0.930 . S
C103 N100 1.314 . S
C103 C101 1.353 . S
C103 H159 0.930 . S
C104 N105 1.314 . S
C104 C109 1.353 . S
C104 H110 0.930 . S
N105 Li88 1.990 . S
N105 C104 1.314 . S
N105 C107 1.279 . S
C106 C107 1.358 . S
C106 C108 1.356 . S
C106 H160 0.930 . S
C107 N105 1.279 . S
C107 C106 1.358 . S
C107 H111 0.930 . S
C108 C106 1.356 . S
C108 C109 1.348 . S
C109 C104 1.353 . S
C109 C108 1.348 . S
C109 H161 0.929 . S
H110 C104 0.930 . S
H111 C107 0.930 . S
C112 N113 1.314 . S
C112 C114 1.353 . S
C112 H118 0.930 . S
N113 Li89 1.990 . S
N113 C112 1.314 . S
N113 C116 1.279 . S
C114 C112 1.353 . S
C114 C117 1.348 . S
C114 H162 0.929 . S
C115 C116 1.358 . S
C115 C117 1.356 . S
C115 H163 0.930 . S
C116 N113 1.279 . S
C116 C115 1.358 . S
C116 H119 0.930 . S
C117 C114 1.348 . S
C117 C115 1.356 . S
H118 C112 0.930 . S
H119 C116 0.930 . S
C120 C122 1.348 . S
C120 C123 1.356 . S
C120 O150 1.325 . S
N121 C124 1.314 . S
N121 C125 1.279 . S
C122 C120 1.348 . S
C122 C124 1.353 . S
C122 H164 0.929 . S
C123 C120 1.356 . S
C123 C125 1.358 . S
C123 H165 0.930 . S
C124 N121 1.314 . S
C124 C122 1.353 . S
C124 H166 0.930 . S
C125 N121 1.279 . S
C125 C123 1.358 . S
C125 H167 0.930 . S
C126 C127 1.348 . S
C126 C128 1.356 . S
C126 O151 1.325 . S
C127 C126 1.348 . S
C127 C129 1.353 . S
C127 H168 0.929 . S
C128 C126 1.356 . S
C128 C130 1.358 . S
C128 H169 0.930 . S
C129 C127 1.353 . S
C129 N131 1.314 . S
C129 H170 0.930 . S
C130 C128 1.358 . S
C130 N131 1.279 . S
C130 H171 0.930 . S
N131 C129 1.314 . S
N131 C130 1.279 . S
C132 C134 1.353 . S
C132 N135 1.314 . S
C132 H138 0.930 . S
C133 N135 1.279 . S
C133 C136 1.358 . S
C133 H139 0.930 . S
C134 C132 1.353 . S
C134 C137 1.348 . S
C134 H172 0.929 . S
N135 Li90 1.990 . S
N135 C132 1.314 . S
N135 C133 1.279 . S
C136 C133 1.358 . S
C136 C137 1.356 . S
C136 H173 0.930 . S
C137 C134 1.348 . S
C137 C136 1.356 . S
H138 C132 0.930 . S
H139 C133 0.930 . S
C140 N141 1.314 . S
C140 C142 1.353 . S
C140 H146 0.930 . S
N141 Li91 1.990 . S
N141 C140 1.314 . S
N141 C144 1.279 . S
C142 C140 1.353 . S
C142 C145 1.348 . S
C142 H174 0.929 . S
C143 C144 1.358 . S
C143 C145 1.356 . S
C143 H175 0.930 . S
C144 N141 1.279 . S
C144 C143 1.358 . S
C144 H147 0.930 . S
C145 C142 1.348 . S
C145 C143 1.356 . S
H146 C140 0.930 . S
H147 C144 0.930 . S
O148 Li88 1.956 . S
O148 Li89 1.970 . S
O148 Li90 1.961 . S
O148 C92 1.325 . S
O149 Li88 1.970 . S
O149 Li89 1.956 . S
O149 Li91 1.961 . S
O149 C98 1.325 . S
O150 Li88 1.961 . S
O150 Li90 1.956 . S
O150 Li91 1.970 . S
O150 C120 1.325 . S
O151 Li89 1.961 . S
O151 Li90 1.970 . S
O151 Li91 1.956 . S
O151 C126 1.325 . S
H152 C94 0.929 . S
H153 C95 0.930 . S
H154 C96 0.930 . S
H155 C97 0.930 . S
H156 C99 0.930 . S
H157 C101 0.929 . S
H158 C102 0.930 . S
H159 C103 0.930 . S
H160 C106 0.930 . S
H161 C109 0.929 . S
H162 C114 0.929 . S
H163 C115 0.930 . S
H164 C122 0.929 . S
H165 C123 0.930 . S
H166 C124 0.930 . S
H167 C125 0.930 . S
H168 C127 0.929 . S
H169 C128 0.930 . S
H170 C129 0.930 . S
H171 C130 0.930 . S
H172 C134 0.929 . S
H173 C136 0.930 . S
H174 C142 0.929 . S
H175 C143 0.930 . S
Li176 N193 1.990 . S
Li176 O236 1.956 . S
Li176 O237 1.970 . S
Li176 O238 1.961 . S
Li177 N201 1.990 . S
Li177 O236 1.970 . S
Li177 O237 1.956 . S
Li177 O239 1.961 . S
Li178 N223 1.990 . S
Li178 O236 1.961 . S
Li178 O238 1.956 . S
Li178 O239 1.970 . S
Li179 N229 1.990 . S
Li179 O237 1.961 . S
Li179 O238 1.970 . S
Li179 O239 1.956 . S
C180 C182 1.348 . S
C180 C183 1.356 . S
C180 O236 1.325 . S
N181 C184 1.314 . S
N181 C185 1.279 . S
C182 C180 1.348 . S
C182 C184 1.353 . S
C182 H240 0.929 . S
C183 C180 1.356 . S
C183 C185 1.358 . S
C183 H241 0.930 . S
C184 N181 1.314 . S
C184 C182 1.353 . S
C184 H242 0.930 . S
C185 N181 1.279 . S
C185 C183 1.358 . S
C185 H243 0.930 . S
C186 C189 1.348 . S
C186 C190 1.356 . S
C186 O237 1.325 1_545 S
C187 N188 1.279 . S
C187 C190 1.358 . S
C187 H244 0.930 . S
N188 C187 1.279 . S
N188 C191 1.314 . S
C189 C186 1.348 . S
C189 C191 1.353 . S
C189 H245 0.929 . S
C190 C186 1.356 . S
C190 C187 1.358 . S
C190 H246 0.930 . S
C191 N188 1.314 . S
C191 C189 1.353 . S
C191 H247 0.930 . S
C192 N193 1.314 . S
C192 C197 1.353 1_565 S
C192 H198 0.930 . S
N193 Li176 1.990 . S
N193 C192 1.314 . S
N193 C195 1.279 . S
C194 C195 1.358 1_545 S
C194 C196 1.356 . S
C194 H248 0.930 . S
C195 N193 1.279 . S
C195 C194 1.358 1_565 S
C195 H199 0.930 . S
C196 C194 1.356 . S
C196 C197 1.348 . S
C197 C192 1.353 1_545 S
C197 C196 1.348 . S
C197 H249 0.929 . S
H198 C192 0.930 . S
H199 C195 0.930 . S
C200 N201 1.314 . S
C200 C202 1.353 . S
C200 H206 0.930 . S
N201 Li177 1.990 . S
N201 C200 1.314 . S
N201 C204 1.279 1_565 S
C202 C200 1.353 . S
C202 C205 1.348 1_565 S
C202 H250 0.929 . S
C203 C204 1.358 . S
C203 C205 1.356 . S
C203 H251 0.930 . S
C204 N201 1.279 1_545 S
C204 C203 1.358 . S
C204 H207 0.930 . S
C205 C202 1.348 1_545 S
C205 C203 1.356 . S
H206 C200 0.930 . S
H207 C204 0.930 . S
C208 C210 1.348 . S
C208 C211 1.356 . S
C208 O238 1.325 . S
N209 C212 1.314 . S
N209 C213 1.279 . S
C210 C208 1.348 . S
C210 C212 1.353 . S
C210 H252 0.929 . S
C211 C208 1.356 . S
C211 C213 1.358 . S
C211 H253 0.930 . S
C212 N209 1.314 . S
C212 C210 1.353 . S
C212 H254 0.930 . S
C213 N209 1.279 . S
C213 C211 1.358 . S
C213 H255 0.930 . S
C214 C215 1.348 . S
C214 C216 1.356 . S
C214 O239 1.325 . S
C215 C214 1.348 . S
C215 C217 1.353 . S
C215 H256 0.929 . S
C216 C214 1.356 . S
C216 C218 1.358 . S
C216 H257 0.930 . S
C217 C215 1.353 . S
C217 N219 1.314 . S
C217 H258 0.930 . S
C218 C216 1.358 . S
C218 N219 1.279 . S
C218 H259 0.930 . S
N219 C217 1.314 . S
N219 C218 1.279 . S
C220 C222 1.353 . S
C220 N223 1.314 . S
C220 H226 0.930 . S
C221 N223 1.279 . S
C221 C224 1.358 . S
C221 H227 0.930 . S
C222 C220 1.353 . S
C222 C225 1.348 . S
C222 H260 0.929 . S
N223 Li178 1.990 . S
N223 C220 1.314 . S
N223 C221 1.279 . S
C224 C221 1.358 . S
C224 C225 1.356 . S
C224 H261 0.930 . S
C225 C222 1.348 . S
C225 C224 1.356 . S
H226 C220 0.930 . S
H227 C221 0.930 . S
C228 N229 1.314 . S
C228 C230 1.353 . S
C228 H234 0.949 . S
N229 Li179 1.990 . S
N229 C228 1.314 . S
N229 C232 1.279 . S
C230 C228 1.353 . S
C230 C233 1.348 . S
C230 H262 0.929 1_565 S
C231 C232 1.358 . S
C231 C233 1.356 . S
C231 H263 0.930 . S
C232 N229 1.279 . S
C232 C231 1.358 . S
C232 H235 0.930 . S
C233 C230 1.348 . S
C233 C231 1.356 . S
H234 C228 0.949 . S
H235 C232 0.930 . S
O236 Li176 1.956 . S
O236 Li177 1.970 . S
O236 Li178 1.961 . S
O236 C180 1.325 . S
O237 Li176 1.970 . S
O237 Li177 1.956 . S
O237 Li179 1.961 . S
O237 C186 1.325 1_565 S
O238 Li176 1.961 . S
O238 Li178 1.956 . S
O238 Li179 1.970 . S
O238 C208 1.325 . S
O239 Li177 1.961 . S
O239 Li178 1.970 . S
O239 Li179 1.956 . S
O239 C214 1.325 . S
H240 C182 0.929 . S
H241 C183 0.930 . S
H242 C184 0.930 . S
H243 C185 0.930 . S
H244 C187 0.930 . S
H245 C189 0.929 . S
H246 C190 0.930 . S
H247 C191 0.930 . S
H248 C194 0.930 . S
H249 C197 0.929 . S
H250 C202 0.929 . S
H251 C203 0.930 . S
H252 C210 0.929 . S
H253 C211 0.930 . S
H254 C212 0.930 . S
H255 C213 0.930 . S
H256 C215 0.929 . S
H257 C216 0.930 . S
H258 C217 0.930 . S
H259 C218 0.930 . S
H260 C222 0.929 . S
H261 C224 0.930 . S
H262 C230 0.929 1_545 S
H263 C231 0.930 . S
Li264 N281 1.990 . S
Li264 O324 1.956 . S
Li264 O325 1.970 . S
Li264 O326 1.961 . S
Li265 N289 1.990 . S
Li265 O324 1.970 . S
Li265 O325 1.956 . S
Li265 O327 1.961 . S
Li266 N311 1.990 . S
Li266 O324 1.961 . S
Li266 O326 1.956 . S
Li266 O327 1.970 . S
Li267 N317 1.990 . S
Li267 O325 1.961 . S
Li267 O326 1.970 . S
Li267 O327 1.956 . S
C268 C270 1.348 . S
C268 C271 1.356 . S
C268 O324 1.325 . S
N269 C272 1.314 . S
N269 C273 1.279 . S
C270 C268 1.348 . S
C270 C272 1.353 . S
C270 H328 0.929 . S
C271 C268 1.356 . S
C271 C273 1.358 . S
C271 H329 0.930 . S
C272 N269 1.314 . S
C272 C270 1.353 . S
C272 H330 0.930 . S
C273 N269 1.279 . S
C273 C271 1.358 . S
C273 H331 0.930 . S
C274 C277 1.348 . S
C274 C278 1.356 . S
C274 O325 1.325 . S
C275 N276 1.279 . S
C275 C278 1.358 . S
C275 H332 0.930 . S
N276 C275 1.279 . S
N276 C279 1.314 . S
C277 C274 1.348 . S
C277 C279 1.353 . S
C277 H333 0.929 . S
C278 C274 1.356 . S
C278 C275 1.358 . S
C278 H334 0.930 . S
C279 N276 1.314 . S
C279 C277 1.353 . S
C279 H335 0.930 . S
C280 N281 1.314 . S
C280 C285 1.353 . S
C280 H286 0.930 . S
N281 Li264 1.990 . S
N281 C280 1.314 . S
N281 C283 1.279 . S
C282 C283 1.358 . S
C282 C284 1.356 . S
C282 H336 0.930 . S
C283 N281 1.279 . S
C283 C282 1.358 . S
C283 H287 0.930 . S
C284 C282 1.356 . S
C284 C285 1.348 . S
C285 C280 1.353 . S
C285 C284 1.348 . S
C285 H337 0.929 . S
H286 C280 0.930 . S
H287 C283 0.930 . S
C288 N289 1.314 . S
C288 C290 1.353 . S
C288 H294 0.930 . S
N289 Li265 1.990 . S
N289 C288 1.314 . S
N289 C292 1.279 . S
C290 C288 1.353 . S
C290 C293 1.348 . S
C290 H338 0.929 . S
C291 C292 1.358 . S
C291 C293 1.356 . S
C291 H339 0.930 . S
C292 N289 1.279 . S
C292 C291 1.358 . S
C292 H295 0.930 . S
C293 C290 1.348 . S
C293 C291 1.356 . S
H294 C288 0.930 . S
H295 C292 0.930 . S
C296 C298 1.348 . S
C296 C299 1.356 . S
C296 O326 1.325 . S
N297 C300 1.314 . S
N297 C301 1.279 . S
C298 C296 1.348 . S
C298 C300 1.353 . S
C298 H340 0.929 . S
C299 C296 1.356 . S
C299 C301 1.358 . S
C299 H341 0.930 . S
C300 N297 1.314 . S
C300 C298 1.353 . S
C300 H342 0.930 . S
C301 N297 1.279 . S
C301 C299 1.358 . S
C301 H343 0.930 . S
C302 C303 1.348 . S
C302 C304 1.356 . S
C302 O327 1.325 . S
C303 C302 1.348 . S
C303 C305 1.353 . S
C303 H344 0.929 . S
C304 C302 1.356 . S
C304 C306 1.358 . S
C304 H345 0.930 . S
C305 C303 1.353 . S
C305 N307 1.314 . S
C305 H346 0.930 . S
C306 C304 1.358 . S
C306 N307 1.279 . S
C306 H347 0.930 . S
N307 C305 1.314 . S
N307 C306 1.279 . S
C308 C310 1.353 . S
C308 N311 1.314 . S
C308 H314 0.930 . S
C309 N311 1.279 . S
C309 C312 1.358 . S
C309 H315 0.930 . S
C310 C308 1.353 . S
C310 C313 1.348 . S
C310 H348 0.929 . S
N311 Li266 1.990 . S
N311 C308 1.314 . S
N311 C309 1.279 . S
C312 C309 1.358 . S
C312 C313 1.356 . S
C312 H349 0.930 . S
C313 C310 1.348 . S
C313 C312 1.356 . S
H314 C308 0.930 . S
H315 C309 0.930 . S
C316 N317 1.314 . S
C316 C318 1.353 . S
C316 H322 0.930 . S
N317 Li267 1.990 . S
N317 C316 1.314 . S
N317 C320 1.279 . S
C318 C316 1.353 . S
C318 C321 1.348 . S
C318 H350 0.929 . S
C319 C320 1.358 . S
C319 C321 1.356 . S
C319 H351 0.930 . S
C320 N317 1.279 . S
C320 C319 1.358 . S
C320 H323 0.930 . S
C321 C318 1.348 . S
C321 C319 1.356 . S
H322 C316 0.930 . S
H323 C320 0.930 . S
O324 Li264 1.956 . S
O324 Li265 1.970 . S
O324 Li266 1.961 . S
O324 C268 1.325 . S
O325 Li264 1.970 . S
O325 Li265 1.956 . S
O325 Li267 1.961 . S
O325 C274 1.325 . S
O326 Li264 1.961 . S
O326 Li266 1.956 . S
O326 Li267 1.970 . S
O326 C296 1.325 . S
O327 Li265 1.961 . S
O327 Li266 1.970 . S
O327 Li267 1.956 . S
O327 C302 1.325 . S
H328 C270 0.929 . S
H329 C271 0.930 . S
H330 C272 0.930 . S
H331 C273 0.930 . S
H332 C275 0.930 . S
H333 C277 0.929 . S
H334 C278 0.930 . S
H335 C279 0.930 . S
H336 C282 0.930 . S
H337 C285 0.929 . S
H338 C290 0.929 . S
H339 C291 0.930 . S
H340 C298 0.929 . S
H341 C299 0.930 . S
H342 C300 0.930 . S
H343 C301 0.930 . S
H344 C303 0.929 . S
H345 C304 0.930 . S
H346 C305 0.930 . S
H347 C306 0.930 . S
H348 C310 0.929 . S
H349 C312 0.930 . S
H350 C318 0.929 . S
H351 C319 0.930 . S
Li352 N369 1.990 . S
Li352 O412 1.956 1_655 S
Li352 O413 1.970 1_655 S
Li352 O414 1.961 . S
Li353 N377 1.990 . S
Li353 O412 1.970 . S
Li353 O413 1.956 . S
Li353 O415 1.961 . S
Li354 N399 1.990 . S
Li354 O412 1.961 . S
Li354 O414 1.956 1_455 S
Li354 O415 1.970 . S
Li355 N405 1.990 . S
Li355 O413 1.961 . S
Li355 O414 1.970 1_455 S
Li355 O415 1.956 . S
C356 C358 1.348 . S
C356 C359 1.356 1_455 S
C356 O412 1.325 . S
N357 C360 1.314 . S
N357 C361 1.279 1_455 S
C358 C356 1.348 . S
C358 C360 1.353 . S
C358 H416 0.929 . S
C359 C356 1.356 1_655 S
C359 C361 1.358 . S
C359 H417 0.930 . S
C360 N357 1.314 . S
C360 C358 1.353 . S
C360 H418 0.930 . S
C361 N357 1.279 1_655 S
C361 C359 1.358 . S
C361 H419 0.930 . S
C362 C365 1.348 1_455 S
C362 C366 1.356 . S
C362 O413 1.325 1_545 S
C363 N364 1.279 . S
C363 C366 1.358 . S
C363 H420 0.930 . S
N364 C363 1.279 . S
N364 C367 1.314 1_455 S
C365 C362 1.348 1_655 S
C365 C367 1.353 . S
C365 H421 0.929 . S
C366 C362 1.356 . S
C366 C363 1.358 . S
C366 H422 0.930 . S
C367 N364 1.314 1_655 S
C367 C365 1.353 . S
C367 H423 0.930 . S
C368 N369 1.314 . S
C368 C373 1.353 1_565 S
C368 H374 0.930 . S
N369 Li352 1.990 . S
N369 C368 1.314 . S
N369 C371 1.279 . S
C370 C371 1.358 1_545 S
C370 C372 1.356 . S
C370 H424 0.930 . S
C371 N369 1.279 . S
C371 C370 1.358 1_565 S
C371 H375 0.930 . S
C372 C370 1.356 . S
C372 C373 1.348 . S
C373 C368 1.353 1_545 S
C373 C372 1.348 . S
C373 H425 0.929 . S
H374 C368 0.930 . S
H375 C371 0.930 . S
C376 N377 1.314 . S
C376 C378 1.353 . S
C376 H382 0.930 . S
N377 Li353 1.990 . S
N377 C376 1.314 . S
N377 C380 1.279 1_565 S
C378 C376 1.353 . S
C378 C381 1.348 1_565 S
C378 H426 0.929 . S
C379 C380 1.358 . S
C379 C381 1.356 . S
C379 H427 0.930 . S
C380 N377 1.279 1_545 S
C380 C379 1.358 . S
C380 H383 0.930 . S
C381 C378 1.348 1_545 S
C381 C379 1.356 . S
H382 C376 0.930 . S
H383 C380 0.930 . S
C384 C386 1.348 . S
C384 C387 1.356 . S
C384 O414 1.325 . S
N385 C388 1.314 . S
N385 C389 1.279 . S
C386 C384 1.348 . S
C386 C388 1.353 . S
C386 H428 0.929 . S
C387 C384 1.356 . S
C387 C389 1.358 . S
C387 H429 0.930 . S
C388 N385 1.314 . S
C388 C386 1.353 . S
C388 H430 0.930 . S
C389 N385 1.279 . S
C389 C387 1.358 . S
C389 H431 0.930 . S
C390 C391 1.348 . S
C390 C392 1.356 . S
C390 O415 1.325 . S
C391 C390 1.348 . S
C391 C393 1.353 . S
C391 H432 0.929 . S
C392 C390 1.356 . S
C392 C394 1.358 . S
C392 H433 0.930 . S
C393 C391 1.353 . S
C393 N395 1.314 . S
C393 H434 0.930 . S
C394 C392 1.358 . S
C394 N395 1.279 . S
C394 H435 0.930 . S
N395 C393 1.314 . S
N395 C394 1.279 . S
C396 C398 1.353 . S
C396 N399 1.314 . S
C396 H402 0.930 . S
C397 N399 1.279 1_655 S
C397 C400 1.358 . S
C397 H403 0.930 . S
C398 C396 1.353 . S
C398 C401 1.348 . S
C398 H436 0.929 . S
N399 Li354 1.990 . S
N399 C396 1.314 . S
N399 C397 1.279 1_455 S
C400 C397 1.358 . S
C400 C401 1.356 1_655 S
C400 H437 0.930 . S
C401 C398 1.348 . S
C401 C400 1.356 1_455 S
H402 C396 0.930 . S
H403 C397 0.930 . S
C404 N405 1.314 1_655 S
C404 C406 1.353 . S
C404 H410 0.948 . S
N405 Li355 1.990 . S
N405 C404 1.314 1_455 S
N405 C408 1.279 . S
C406 C404 1.353 . S
C406 C409 1.348 1_655 S
C406 H438 0.929 1_565 S
C407 C408 1.358 . S
C407 C409 1.356 . S
C407 H439 0.930 . S
C408 N405 1.279 . S
C408 C407 1.358 . S
C408 H411 0.930 . S
C409 C406 1.348 1_455 S
C409 C407 1.356 . S
H410 C404 0.948 . S
H411 C408 0.930 . S
O412 Li352 1.956 1_455 S
O412 Li353 1.970 . S
O412 Li354 1.961 . S
O412 C356 1.325 . S
O413 Li352 1.970 1_455 S
O413 Li353 1.956 . S
O413 Li355 1.961 . S
O413 C362 1.325 1_565 S
O414 Li352 1.961 . S
O414 Li354 1.956 1_655 S
O414 Li355 1.970 1_655 S
O414 C384 1.325 . S
O415 Li353 1.961 . S
O415 Li354 1.970 . S
O415 Li355 1.956 . S
O415 C390 1.325 . S
H416 C358 0.929 . S
H417 C359 0.930 . S
H418 C360 0.930 . S
H419 C361 0.930 . S
H420 C363 0.930 . S
H421 C365 0.929 . S
H422 C366 0.930 . S
H423 C367 0.930 . S
H424 C370 0.930 . S
H425 C373 0.929 . S
H426 C378 0.929 . S
H427 C379 0.930 . S
H428 C386 0.929 . S
H429 C387 0.930 . S
H430 C388 0.930 . S
H431 C389 0.930 . S
H432 C391 0.929 . S
H433 C392 0.930 . S
H434 C393 0.930 . S
H435 C394 0.930 . S
H436 C398 0.929 . S
H437 C400 0.930 . S
H438 C406 0.929 1_545 S
H439 C407 0.930 . S
Li440 N457 1.990 . S
Li440 O500 1.956 . S
Li440 O501 1.970 . S
Li440 O502 1.961 . S
Li441 N465 1.990 . S
Li441 O500 1.970 . S
Li441 O501 1.956 . S
Li441 O503 1.961 . S
Li442 N487 1.990 . S
Li442 O500 1.961 . S
Li442 O502 1.956 . S
Li442 O503 1.970 . S
Li443 N493 1.990 . S
Li443 O501 1.961 . S
Li443 O502 1.970 . S
Li443 O503 1.956 . S
C444 C446 1.348 . S
C444 C447 1.356 . S
C444 O500 1.325 . S
N445 C448 1.314 . S
N445 C449 1.279 . S
C446 C444 1.348 . S
C446 C448 1.353 . S
C446 H504 0.929 . S
C447 C444 1.356 . S
C447 C449 1.358 . S
C447 H505 0.930 . S
C448 N445 1.314 . S
C448 C446 1.353 . S
C448 H506 0.930 . S
C449 N445 1.279 . S
C449 C447 1.358 . S
C449 H507 0.930 . S
C450 C453 1.348 . S
C450 C454 1.356 . S
C450 O501 1.325 . S
C451 N452 1.279 . S
C451 C454 1.358 . S
C451 H508 0.930 . S
N452 C451 1.279 . S
N452 C455 1.314 . S
C453 C450 1.348 . S
C453 C455 1.353 . S
C453 H509 0.929 . S
C454 C450 1.356 . S
C454 C451 1.358 . S
C454 H510 0.930 . S
C455 N452 1.314 . S
C455 C453 1.353 . S
C455 H511 0.930 . S
C456 N457 1.314 . S
C456 C461 1.353 . S
C456 H462 0.930 . S
N457 Li440 1.990 . S
N457 C456 1.314 . S
N457 C459 1.279 . S
C458 C459 1.358 . S
C458 C460 1.356 . S
C458 H512 0.930 . S
C459 N457 1.279 . S
C459 C458 1.358 . S
C459 H463 0.930 . S
C460 C458 1.356 . S
C460 C461 1.348 . S
C461 C456 1.353 . S
C461 C460 1.348 . S
C461 H513 0.929 . S
H462 C456 0.930 . S
H463 C459 0.930 . S
C464 N465 1.314 . S
C464 C466 1.353 . S
C464 H470 0.930 . S
N465 Li441 1.990 . S
N465 C464 1.314 . S
N465 C468 1.279 . S
C466 C464 1.353 . S
C466 C469 1.348 . S
C466 H514 0.929 . S
C467 C468 1.358 . S
C467 C469 1.356 . S
C467 H515 0.930 . S
C468 N465 1.279 . S
C468 C467 1.358 . S
C468 H471 0.930 . S
C469 C466 1.348 . S
C469 C467 1.356 . S
H470 C464 0.930 . S
H471 C468 0.930 . S
C472 C474 1.348 . S
C472 C475 1.356 . S
C472 O502 1.325 . S
N473 C476 1.314 . S
N473 C477 1.279 . S
C474 C472 1.348 . S
C474 C476 1.353 . S
C474 H516 0.929 . S
C475 C472 1.356 . S
C475 C477 1.358 . S
C475 H517 0.930 . S
C476 N473 1.314 . S
C476 C474 1.353 . S
C476 H518 0.930 . S
C477 N473 1.279 . S
C477 C475 1.358 . S
C477 H519 0.930 . S
C478 C479 1.348 . S
C478 C480 1.356 . S
C478 O503 1.325 . S
C479 C478 1.348 . S
C479 C481 1.353 . S
C479 H520 0.929 . S
C480 C478 1.356 . S
C480 C482 1.358 . S
C480 H521 0.930 . S
C481 C479 1.353 . S
C481 N483 1.314 . S
C481 H522 0.930 . S
C482 C480 1.358 . S
C482 N483 1.279 . S
C482 H523 0.930 . S
N483 C481 1.314 . S
N483 C482 1.279 . S
C484 C486 1.353 . S
C484 N487 1.314 . S
C484 H490 0.930 . S
C485 N487 1.279 . S
C485 C488 1.358 . S
C485 H491 0.930 . S
C486 C484 1.353 . S
C486 C489 1.348 . S
C486 H524 0.929 . S
N487 Li442 1.990 . S
N487 C484 1.314 . S
N487 C485 1.279 . S
C488 C485 1.358 . S
C488 C489 1.356 . S
C488 H525 0.930 . S
C489 C486 1.348 . S
C489 C488 1.356 . S
H490 C484 0.930 . S
H491 C485 0.930 . S
C492 N493 1.314 . S
C492 C494 1.353 . S
C492 H498 0.930 . S
N493 Li443 1.990 . S
N493 C492 1.314 . S
N493 C496 1.279 . S
C494 C492 1.353 . S
C494 C497 1.348 . S
C494 H526 0.929 . S
C495 C496 1.358 . S
C495 C497 1.356 . S
C495 H527 0.930 . S
C496 N493 1.279 . S
C496 C495 1.358 . S
C496 H499 0.930 . S
C497 C494 1.348 . S
C497 C495 1.356 . S
H498 C492 0.930 . S
H499 C496 0.930 . S
O500 Li440 1.956 . S
O500 Li441 1.970 . S
O500 Li442 1.961 . S
O500 C444 1.325 . S
O501 Li440 1.970 . S
O501 Li441 1.956 . S
O501 Li443 1.961 . S
O501 C450 1.325 . S
O502 Li440 1.961 . S
O502 Li442 1.956 . S
O502 Li443 1.970 . S
O502 C472 1.325 . S
O503 Li441 1.961 . S
O503 Li442 1.970 . S
O503 Li443 1.956 . S
O503 C478 1.325 . S
H504 C446 0.929 . S
H505 C447 0.930 . S
H506 C448 0.930 . S
H507 C449 0.930 . S
H508 C451 0.930 . S
H509 C453 0.929 . S
H510 C454 0.930 . S
H511 C455 0.930 . S
H512 C458 0.930 . S
H513 C461 0.929 . S
H514 C466 0.929 . S
H515 C467 0.930 . S
H516 C474 0.929 . S
H517 C475 0.930 . S
H518 C476 0.930 . S
H519 C477 0.930 . S
H520 C479 0.929 . S
H521 C480 0.930 . S
H522 C481 0.930 . S
H523 C482 0.930 . S
H524 C486 0.929 . S
H525 C488 0.930 . S
H526 C494 0.929 . S
H527 C495 0.930 . S
Li528 N545 1.990 . S
Li528 O588 1.956 . S
Li528 O589 1.970 . S
Li528 O590 1.961 . S
Li529 N553 1.990 . S
Li529 O588 1.970 . S
Li529 O589 1.956 . S
Li529 O591 1.961 . S
Li530 N575 1.990 . S
Li530 O588 1.961 . S
Li530 O590 1.956 . S
Li530 O591 1.970 . S
Li531 N581 1.990 . S
Li531 O589 1.961 . S
Li531 O590 1.970 . S
Li531 O591 1.956 . S
C532 C534 1.348 . S
C532 C535 1.356 . S
C532 O588 1.325 . S
N533 C536 1.314 . S
N533 C537 1.279 . S
C534 C532 1.348 . S
C534 C536 1.353 . S
C534 H592 0.929 . S
C535 C532 1.356 . S
C535 C537 1.358 . S
C535 H593 0.930 . S
C536 N533 1.314 . S
C536 C534 1.353 . S
C536 H594 0.930 . S
C537 N533 1.279 . S
C537 C535 1.358 . S
C537 H595 0.930 . S
C538 C541 1.348 . S
C538 C542 1.356 . S
C538 O589 1.325 . S
C539 N540 1.279 . S
C539 C542 1.358 . S
C539 H596 0.930 . S
N540 C539 1.279 . S
N540 C543 1.314 . S
C541 C538 1.348 . S
C541 C543 1.353 . S
C541 H597 0.929 . S
C542 C538 1.356 . S
C542 C539 1.358 . S
C542 H598 0.930 . S
C543 N540 1.314 . S
C543 C541 1.353 . S
C543 H599 0.930 . S
C544 N545 1.314 . S
C544 C549 1.353 . S
C544 H550 0.930 . S
N545 Li528 1.990 . S
N545 C544 1.314 . S
N545 C547 1.279 . S
C546 C547 1.358 . S
C546 C548 1.356 . S
C546 H600 0.930 . S
C547 N545 1.279 . S
C547 C546 1.358 . S
C547 H551 0.930 . S
C548 C546 1.356 . S
C548 C549 1.348 . S
C549 C544 1.353 . S
C549 C548 1.348 . S
C549 H601 0.929 . S
H550 C544 0.930 . S
H551 C547 0.930 . S
C552 N553 1.314 . S
C552 C554 1.353 . S
C552 H558 0.949 . S
N553 Li529 1.990 . S
N553 C552 1.314 . S
N553 C556 1.279 . S
C554 C552 1.353 . S
C554 C557 1.348 . S
C554 H602 0.929 1_545 S
C555 C556 1.358 . S
C555 C557 1.356 . S
C555 H603 0.930 . S
C556 N553 1.279 . S
C556 C555 1.358 . S
C556 H559 0.930 . S
C557 C554 1.348 . S
C557 C555 1.356 . S
H558 C552 0.949 . S
H559 C556 0.930 . S
C560 C562 1.348 . S
C560 C563 1.356 . S
C560 O590 1.325 . S
N561 C564 1.314 . S
N561 C565 1.279 . S
C562 C560 1.348 . S
C562 C564 1.353 . S
C562 H604 0.929 . S
C563 C560 1.356 . S
C563 C565 1.358 . S
C563 H605 0.930 . S
C564 N561 1.314 . S
C564 C562 1.353 . S
C564 H606 0.930 . S
C565 N561 1.279 . S
C565 C563 1.358 . S
C565 H607 0.930 . S
C566 C567 1.348 . S
C566 C568 1.356 . S
C566 O591 1.325 1_565 S
C567 C566 1.348 . S
C567 C569 1.353 . S
C567 H608 0.929 . S
C568 C566 1.356 . S
C568 C570 1.358 . S
C568 H609 0.930 . S
C569 C567 1.353 . S
C569 N571 1.314 . S
C569 H610 0.930 . S
C570 C568 1.358 . S
C570 N571 1.279 . S
C570 H611 0.930 . S
N571 C569 1.314 . S
N571 C570 1.279 . S
C572 C574 1.353 1_545 S
C572 N575 1.314 . S
C572 H578 0.930 . S
C573 N575 1.279 . S
C573 C576 1.358 1_545 S
C573 H579 0.930 . S
C574 C572 1.353 1_565 S
C574 C577 1.348 . S
C574 H612 0.929 . S
N575 Li530 1.990 . S
N575 C572 1.314 . S
N575 C573 1.279 . S
C576 C573 1.358 1_565 S
C576 C577 1.356 . S
C576 H613 0.930 . S
C577 C574 1.348 . S
C577 C576 1.356 . S
H578 C572 0.930 . S
H579 C573 0.930 . S
C580 N581 1.314 . S
C580 C582 1.353 . S
C580 H586 0.930 . S
N581 Li531 1.990 . S
N581 C580 1.314 . S
N581 C584 1.279 1_545 S
C582 C580 1.353 . S
C582 C585 1.348 1_545 S
C582 H614 0.929 . S
C583 C584 1.358 . S
C583 C585 1.356 . S
C583 H615 0.930 . S
C584 N581 1.279 1_565 S
C584 C583 1.358 . S
C584 H587 0.930 . S
C585 C582 1.348 1_565 S
C585 C583 1.356 . S
H586 C580 0.930 . S
H587 C584 0.930 . S
O588 Li528 1.956 . S
O588 Li529 1.970 . S
O588 Li530 1.961 . S
O588 C532 1.325 . S
O589 Li528 1.970 . S
O589 Li529 1.956 . S
O589 Li531 1.961 . S
O589 C538 1.325 . S
O590 Li528 1.961 . S
O590 Li530 1.956 . S
O590 Li531 1.970 . S
O590 C560 1.325 . S
O591 Li529 1.961 . S
O591 Li530 1.970 . S
O591 Li531 1.956 . S
O591 C566 1.325 1_545 S
H592 C534 0.929 . S
H593 C535 0.930 . S
H594 C536 0.930 . S
H595 C537 0.930 . S
H596 C539 0.930 . S
H597 C541 0.929 . S
H598 C542 0.930 . S
H599 C543 0.930 . S
H600 C546 0.930 . S
H601 C549 0.929 . S
H602 C554 0.929 1_565 S
H603 C555 0.930 . S
H604 C562 0.929 . S
H605 C563 0.930 . S
H606 C564 0.930 . S
H607 C565 0.930 . S
H608 C567 0.929 . S
H609 C568 0.930 . S
H610 C569 0.930 . S
H611 C570 0.930 . S
H612 C574 0.929 . S
H613 C576 0.930 . S
H614 C582 0.929 . S
H615 C583 0.930 . S
Li616 N633 1.990 . S
Li616 O676 1.956 . S
Li616 O677 1.970 . S
Li616 O678 1.961 . S
Li617 N641 1.990 . S
Li617 O676 1.970 . S
Li617 O677 1.956 . S
Li617 O679 1.961 . S
Li618 N663 1.990 . S
Li618 O676 1.961 . S
Li618 O678 1.956 . S
Li618 O679 1.970 . S
Li619 N669 1.990 . S
Li619 O677 1.961 . S
Li619 O678 1.970 . S
Li619 O679 1.956 . S
C620 C622 1.348 . S
C620 C623 1.356 . S
C620 O676 1.325 . S
N621 C624 1.314 . S
N621 C625 1.279 . S
C622 C620 1.348 . S
C622 C624 1.353 . S
C622 H680 0.929 . S
C623 C620 1.356 . S
C623 C625 1.358 . S
C623 H681 0.930 . S
C624 N621 1.314 . S
C624 C622 1.353 . S
C624 H682 0.930 . S
C625 N621 1.279 . S
C625 C623 1.358 . S
C625 H683 0.930 . S
C626 C629 1.348 . S
C626 C630 1.356 . S
C626 O677 1.325 . S
C627 N628 1.279 . S
C627 C630 1.358 . S
C627 H684 0.930 . S
N628 C627 1.279 . S
N628 C631 1.314 . S
C629 C626 1.348 . S
C629 C631 1.353 . S
C629 H685 0.929 . S
C630 C626 1.356 . S
C630 C627 1.358 . S
C630 H686 0.930 . S
C631 N628 1.314 . S
C631 C629 1.353 . S
C631 H687 0.930 . S
C632 N633 1.314 . S
C632 C637 1.353 . S
C632 H638 0.930 . S
N633 Li616 1.990 . S
N633 C632 1.314 . S
N633 C635 1.279 . S
C634 C635 1.358 . S
C634 C636 1.356 . S
C634 H688 0.930 . S
C635 N633 1.279 . S
C635 C634 1.358 . S
C635 H639 0.930 . S
C636 C634 1.356 . S
C636 C637 1.348 . S
C637 C632 1.353 . S
C637 C636 1.348 . S
C637 H689 0.929 . S
H638 C632 0.930 . S
H639 C635 0.930 . S
C640 N641 1.314 . S
C640 C642 1.353 . S
C640 H646 0.930 . S
N641 Li617 1.990 . S
N641 C640 1.314 . S
N641 C644 1.279 . S
C642 C640 1.353 . S
C642 C645 1.348 . S
C642 H690 0.929 . S
C643 C644 1.358 . S
C643 C645 1.356 . S
C643 H691 0.930 . S
C644 N641 1.279 . S
C644 C643 1.358 . S
C644 H647 0.930 . S
C645 C642 1.348 . S
C645 C643 1.356 . S
H646 C640 0.930 . S
H647 C644 0.930 . S
C648 C650 1.348 . S
C648 C651 1.356 . S
C648 O678 1.325 . S
N649 C652 1.314 . S
N649 C653 1.279 . S
C650 C648 1.348 . S
C650 C652 1.353 . S
C650 H692 0.929 . S
C651 C648 1.356 . S
C651 C653 1.358 . S
C651 H693 0.930 . S
C652 N649 1.314 . S
C652 C650 1.353 . S
C652 H694 0.930 . S
C653 N649 1.279 . S
C653 C651 1.358 . S
C653 H695 0.930 . S
C654 C655 1.348 . S
C654 C656 1.356 . S
C654 O679 1.325 . S
C655 C654 1.348 . S
C655 C657 1.353 . S
C655 H696 0.929 . S
C656 C654 1.356 . S
C656 C658 1.358 . S
C656 H697 0.930 . S
C657 C655 1.353 . S
C657 N659 1.314 . S
C657 H698 0.930 . S
C658 C656 1.358 . S
C658 N659 1.279 . S
C658 H699 0.930 . S
N659 C657 1.314 . S
N659 C658 1.279 . S
C660 C662 1.353 . S
C660 N663 1.314 . S
C660 H666 0.930 . S
C661 N663 1.279 . S
C661 C664 1.358 . S
C661 H667 0.930 . S
C662 C660 1.353 . S
C662 C665 1.348 . S
C662 H700 0.929 . S
N663 Li618 1.990 . S
N663 C660 1.314 . S
N663 C661 1.279 . S
C664 C661 1.358 . S
C664 C665 1.356 . S
C664 H701 0.930 . S
C665 C662 1.348 . S
C665 C664 1.356 . S
H666 C660 0.930 . S
H667 C661 0.930 . S
C668 N669 1.314 . S
C668 C670 1.353 . S
C668 H674 0.930 . S
N669 Li619 1.990 . S
N669 C668 1.314 . S
N669 C672 1.279 . S
C670 C668 1.353 . S
C670 C673 1.348 . S
C670 H702 0.929 . S
C671 C672 1.358 . S
C671 C673 1.356 . S
C671 H703 0.930 . S
C672 N669 1.279 . S
C672 C671 1.358 . S
C672 H675 0.930 . S
C673 C670 1.348 . S
C673 C671 1.356 . S
H674 C668 0.930 . S
H675 C672 0.930 . S
O676 Li616 1.956 . S
O676 Li617 1.970 . S
O676 Li618 1.961 . S
O676 C620 1.325 . S
O677 Li616 1.970 . S
O677 Li617 1.956 . S
O677 Li619 1.961 . S
O677 C626 1.325 . S
O678 Li616 1.961 . S
O678 Li618 1.956 . S
O678 Li619 1.970 . S
O678 C648 1.325 . S
O679 Li617 1.961 . S
O679 Li618 1.970 . S
O679 Li619 1.956 . S
O679 C654 1.325 . S
H680 C622 0.929 . S
H681 C623 0.930 . S
H682 C624 0.930 . S
H683 C625 0.930 . S
H684 C627 0.930 . S
H685 C629 0.929 . S
H686 C630 0.930 . S
H687 C631 0.930 . S
H688 C634 0.930 . S
H689 C637 0.929 . S
H690 C642 0.929 . S
H691 C643 0.930 . S
H692 C650 0.929 . S
H693 C651 0.930 . S
H694 C652 0.930 . S
H695 C653 0.930 . S
H696 C655 0.929 . S
H697 C656 0.930 . S
H698 C657 0.930 . S
H699 C658 0.930 . S
H700 C662 0.929 . S
H701 C664 0.930 . S
H702 C670 0.929 . S
H703 C671 0.930 . S
Li704 N721 1.990 . S
Li704 O764 1.956 . S
Li704 O765 1.970 . S
Li704 O766 1.961 . S
Li705 N729 1.990 . S
Li705 O764 1.970 . S
Li705 O765 1.956 . S
Li705 O767 1.961 . S
Li706 N751 1.990 . S
Li706 O764 1.961 . S
Li706 O766 1.956 . S
Li706 O767 1.970 . S
Li707 N757 1.990 . S
Li707 O765 1.961 . S
Li707 O766 1.970 . S
Li707 O767 1.956 . S
C708 C710 1.348 . S
C708 C711 1.356 . S
C708 O764 1.325 . S
N709 C712 1.314 . S
N709 C713 1.279 . S
C710 C708 1.348 . S
C710 C712 1.353 . S
C710 H768 0.929 . S
C711 C708 1.356 . S
C711 C713 1.358 . S
C711 H769 0.930 . S
C712 N709 1.314 . S
C712 C710 1.353 . S
C712 H770 0.930 . S
C713 N709 1.279 . S
C713 C711 1.358 . S
C713 H771 0.930 . S
C714 C717 1.348 . S
C714 C718 1.356 . S
C714 O765 1.325 . S
C715 N716 1.279 . S
C715 C718 1.358 . S
C715 H772 0.930 . S
N716 C715 1.279 . S
N716 C719 1.314 . S
C717 C714 1.348 . S
C717 C719 1.353 . S
C717 H773 0.929 . S
C718 C714 1.356 . S
C718 C715 1.358 . S
C718 H774 0.930 . S
C719 N716 1.314 . S
C719 C717 1.353 . S
C719 H775 0.930 . S
C720 N721 1.314 . S
C720 C725 1.353 . S
C720 H726 0.930 . S
N721 Li704 1.990 . S
N721 C720 1.314 . S
N721 C723 1.279 . S
C722 C723 1.358 . S
C722 C724 1.356 . S
C722 H776 0.930 . S
C723 N721 1.279 . S
C723 C722 1.358 . S
C723 H727 0.930 . S
C724 C722 1.356 . S
C724 C725 1.348 . S
C725 C720 1.353 . S
C725 C724 1.348 . S
C725 H777 0.929 . S
H726 C720 0.930 . S
H727 C723 0.930 . S
C728 N729 1.314 . S
C728 C730 1.353 . S
C728 H734 0.930 . S
N729 Li705 1.990 . S
N729 C728 1.314 . S
N729 C732 1.279 . S
C730 C728 1.353 . S
C730 C733 1.348 . S
C730 H778 0.929 . S
C731 C732 1.358 . S
C731 C733 1.356 . S
C731 H779 0.930 . S
C732 N729 1.279 . S
C732 C731 1.358 . S
C732 H735 0.930 . S
C733 C730 1.348 . S
C733 C731 1.356 . S
H734 C728 0.930 . S
H735 C732 0.930 . S
C736 C738 1.348 . S
C736 C739 1.356 . S
C736 O766 1.325 . S
N737 C740 1.314 . S
N737 C741 1.279 . S
C738 C736 1.348 . S
C738 C740 1.353 . S
C738 H780 0.929 . S
C739 C736 1.356 . S
C739 C741 1.358 . S
C739 H781 0.930 . S
C740 N737 1.314 . S
C740 C738 1.353 . S
C740 H782 0.930 . S
C741 N737 1.279 . S
C741 C739 1.358 . S
C741 H783 0.930 . S
C742 C743 1.348 . S
C742 C744 1.356 . S
C742 O767 1.325 . S
C743 C742 1.348 . S
C743 C745 1.353 . S
C743 H784 0.929 . S
C744 C742 1.356 . S
C744 C746 1.358 . S
C744 H785 0.930 . S
C745 C743 1.353 . S
C745 N747 1.314 . S
C745 H786 0.930 . S
C746 C744 1.358 . S
C746 N747 1.279 . S
C746 H787 0.930 . S
N747 C745 1.314 . S
N747 C746 1.279 . S
C748 C750 1.353 . S
C748 N751 1.314 . S
C748 H754 0.930 . S
C749 N751 1.279 . S
C749 C752 1.358 . S
C749 H755 0.930 . S
C750 C748 1.353 . S
C750 C753 1.348 . S
C750 H788 0.929 . S
N751 Li706 1.990 . S
N751 C748 1.314 . S
N751 C749 1.279 . S
C752 C749 1.358 . S
C752 C753 1.356 . S
C752 H789 0.930 . S
C753 C750 1.348 . S
C753 C752 1.356 . S
H754 C748 0.930 . S
H755 C749 0.930 . S
C756 N757 1.314 . S
C756 C758 1.353 . S
C756 H762 0.930 . S
N757 Li707 1.990 . S
N757 C756 1.314 . S
N757 C760 1.279 . S
C758 C756 1.353 . S
C758 C761 1.348 . S
C758 H790 0.929 . S
C759 C760 1.358 . S
C759 C761 1.356 . S
C759 H791 0.930 . S
C760 N757 1.279 . S
C760 C759 1.358 . S
C760 H763 0.930 . S
C761 C758 1.348 . S
C761 C759 1.356 . S
H762 C756 0.930 . S
H763 C760 0.930 . S
O764 Li704 1.956 . S
O764 Li705 1.970 . S
O764 Li706 1.961 . S
O764 C708 1.325 . S
O765 Li704 1.970 . S
O765 Li705 1.956 . S
O765 Li707 1.961 . S
O765 C714 1.325 . S
O766 Li704 1.961 . S
O766 Li706 1.956 . S
O766 Li707 1.970 . S
O766 C736 1.325 . S
O767 Li705 1.961 . S
O767 Li706 1.970 . S
O767 Li707 1.956 . S
O767 C742 1.325 . S
H768 C710 0.929 . S
H769 C711 0.930 . S
H770 C712 0.930 . S
H771 C713 0.930 . S
H772 C715 0.930 . S
H773 C717 0.929 . S
H774 C718 0.930 . S
H775 C719 0.930 . S
H776 C722 0.930 . S
H777 C725 0.929 . S
H778 C730 0.929 . S
H779 C731 0.930 . S
H780 C738 0.929 . S
H781 C739 0.930 . S
H782 C740 0.930 . S
H783 C741 0.930 . S
H784 C743 0.929 . S
H785 C744 0.930 . S
H786 C745 0.930 . S
H787 C746 0.930 . S
H788 C750 0.929 . S
H789 C752 0.930 . S
H790 C758 0.929 . S
H791 C759 0.930 . S
Li792 N809 1.990 . S
Li792 O852 1.956 . S
Li792 O853 1.970 . S
Li792 O854 1.961 . S
Li793 N817 1.990 . S
Li793 O852 1.970 . S
Li793 O853 1.956 . S
Li793 O855 1.961 . S
Li794 N839 1.990 . S
Li794 O852 1.961 . S
Li794 O854 1.956 . S
Li794 O855 1.970 . S
Li795 N845 1.990 . S
Li795 O853 1.961 . S
Li795 O854 1.970 . S
Li795 O855 1.956 . S
C796 C798 1.348 . S
C796 C799 1.356 . S
C796 O852 1.325 . S
N797 C800 1.314 . S
N797 C801 1.279 . S
C798 C796 1.348 . S
C798 C800 1.353 . S
C798 H856 0.929 . S
C799 C796 1.356 . S
C799 C801 1.358 . S
C799 H857 0.930 . S
C800 N797 1.314 . S
C800 C798 1.353 . S
C800 H858 0.930 . S
C801 N797 1.279 . S
C801 C799 1.358 . S
C801 H859 0.930 . S
C802 C805 1.348 . S
C802 C806 1.356 . S
C802 O853 1.325 . S
C803 N804 1.279 . S
C803 C806 1.358 . S
C803 H860 0.930 . S
N804 C803 1.279 . S
N804 C807 1.314 . S
C805 C802 1.348 . S
C805 C807 1.353 . S
C805 H861 0.929 . S
C806 C802 1.356 . S
C806 C803 1.358 . S
C806 H862 0.930 . S
C807 N804 1.314 . S
C807 C805 1.353 . S
C807 H863 0.930 . S
C808 N809 1.314 . S
C808 C813 1.353 . S
C808 H814 0.930 . S
N809 Li792 1.990 . S
N809 C808 1.314 . S
N809 C811 1.279 . S
C810 C811 1.358 . S
C810 C812 1.356 . S
C810 H864 0.930 . S
C811 N809 1.279 . S
C811 C810 1.358 . S
C811 H815 0.930 . S
C812 C810 1.356 . S
C812 C813 1.348 . S
C813 C808 1.353 . S
C813 C812 1.348 . S
C813 H865 0.929 . S
H814 C808 0.930 . S
H815 C811 0.930 . S
C816 N817 1.314 . S
C816 C818 1.353 . S
C816 H822 0.930 . S
N817 Li793 1.990 . S
N817 C816 1.314 . S
N817 C820 1.279 . S
C818 C816 1.353 . S
C818 C821 1.348 . S
C818 H866 0.929 . S
C819 C820 1.358 . S
C819 C821 1.356 . S
C819 H867 0.930 . S
C820 N817 1.279 . S
C820 C819 1.358 . S
C820 H823 0.930 . S
C821 C818 1.348 . S
C821 C819 1.356 . S
H822 C816 0.930 . S
H823 C820 0.930 . S
C824 C826 1.348 . S
C824 C827 1.356 . S
C824 O854 1.325 . S
N825 C828 1.314 . S
N825 C829 1.279 . S
C826 C824 1.348 . S
C826 C828 1.353 . S
C826 H868 0.929 . S
C827 C824 1.356 . S
C827 C829 1.358 . S
C827 H869 0.930 . S
C828 N825 1.314 . S
C828 C826 1.353 . S
C828 H870 0.930 . S
C829 N825 1.279 . S
C829 C827 1.358 . S
C829 H871 0.930 . S
C830 C831 1.348 . S
C830 C832 1.356 . S
C830 O855 1.325 . S
C831 C830 1.348 . S
C831 C833 1.353 . S
C831 H872 0.929 . S
C832 C830 1.356 . S
C832 C834 1.358 . S
C832 H873 0.930 . S
C833 C831 1.353 . S
C833 N835 1.314 . S
C833 H874 0.930 . S
C834 C832 1.358 . S
C834 N835 1.279 . S
C834 H875 0.930 . S
N835 C833 1.314 . S
N835 C834 1.279 . S
C836 C838 1.353 . S
C836 N839 1.314 . S
C836 H842 0.930 . S
C837 N839 1.279 . S
C837 C840 1.358 . S
C837 H843 0.930 . S
C838 C836 1.353 . S
C838 C841 1.348 . S
C838 H876 0.929 . S
N839 Li794 1.990 . S
N839 C836 1.314 . S
N839 C837 1.279 . S
C840 C837 1.358 . S
C840 C841 1.356 . S
C840 H877 0.930 . S
C841 C838 1.348 . S
C841 C840 1.356 . S
H842 C836 0.930 . S
H843 C837 0.930 . S
C844 N845 1.314 . S
C844 C846 1.353 . S
C844 H850 0.930 . S
N845 Li795 1.990 . S
N845 C844 1.314 . S
N845 C848 1.279 . S
C846 C844 1.353 . S
C846 C849 1.348 . S
C846 H878 0.929 . S
C847 C848 1.358 . S
C847 C849 1.356 . S
C847 H879 0.930 . S
C848 N845 1.279 . S
C848 C847 1.358 . S
C848 H851 0.930 . S
C849 C846 1.348 . S
C849 C847 1.356 . S
H850 C844 0.930 . S
H851 C848 0.930 . S
O852 Li792 1.956 . S
O852 Li793 1.970 . S
O852 Li794 1.961 . S
O852 C796 1.325 . S
O853 Li792 1.970 . S
O853 Li793 1.956 . S
O853 Li795 1.961 . S
O853 C802 1.325 . S
O854 Li792 1.961 . S
O854 Li794 1.956 . S
O854 Li795 1.970 . S
O854 C824 1.325 . S
O855 Li793 1.961 . S
O855 Li794 1.970 . S
O855 Li795 1.956 . S
O855 C830 1.325 . S
H856 C798 0.929 . S
H857 C799 0.930 . S
H858 C800 0.930 . S
H859 C801 0.930 . S
H860 C803 0.930 . S
H861 C805 0.929 . S
H862 C806 0.930 . S
H863 C807 0.930 . S
H864 C810 0.930 . S
H865 C813 0.929 . S
H866 C818 0.929 . S
H867 C819 0.930 . S
H868 C826 0.929 . S
H869 C827 0.930 . S
H870 C828 0.930 . S
H871 C829 0.930 . S
H872 C831 0.929 . S
H873 C832 0.930 . S
H874 C833 0.930 . S
H875 C834 0.930 . S
H876 C838 0.929 . S
H877 C840 0.930 . S
H878 C846 0.929 . S
H879 C847 0.930 . S
Li880 N897 1.990 . S
Li880 O940 1.956 . S
Li880 O941 1.970 . S
Li880 O942 1.961 . S
Li881 N905 1.990 . S
Li881 O940 1.970 . S
Li881 O941 1.956 . S
Li881 O943 1.961 . S
Li882 N927 1.990 . S
Li882 O940 1.961 . S
Li882 O942 1.956 . S
Li882 O943 1.970 . S
Li883 N933 1.990 . S
Li883 O941 1.961 . S
Li883 O942 1.970 . S
Li883 O943 1.956 . S
C884 C886 1.348 . S
C884 C887 1.356 . S
C884 O940 1.325 . S
N885 C888 1.314 . S
N885 C889 1.279 . S
C886 C884 1.348 . S
C886 C888 1.353 . S
C886 H944 0.929 . S
C887 C884 1.356 . S
C887 C889 1.358 . S
C887 H945 0.930 . S
C888 N885 1.314 . S
C888 C886 1.353 . S
C888 H946 0.930 . S
C889 N885 1.279 . S
C889 C887 1.358 . S
C889 H947 0.930 . S
C890 C893 1.348 . S
C890 C894 1.356 . S
C890 O941 1.325 . S
C891 N892 1.279 . S
C891 C894 1.358 . S
C891 H948 0.930 . S
N892 C891 1.279 . S
N892 C895 1.314 . S
C893 C890 1.348 . S
C893 C895 1.353 . S
C893 H949 0.929 . S
C894 C890 1.356 . S
C894 C891 1.358 . S
C894 H950 0.930 . S
C895 N892 1.314 . S
C895 C893 1.353 . S
C895 H951 0.930 . S
C896 N897 1.314 . S
C896 C901 1.353 . S
C896 H902 0.930 . S
N897 Li880 1.990 . S
N897 C896 1.314 . S
N897 C899 1.279 . S
C898 C899 1.358 . S
C898 C900 1.356 . S
C898 H952 0.930 . S
C899 N897 1.279 . S
C899 C898 1.358 . S
C899 H903 0.930 . S
C900 C898 1.356 . S
C900 C901 1.348 . S
C901 C896 1.353 . S
C901 C900 1.348 . S
C901 H953 0.929 . S
H902 C896 0.930 . S
H903 C899 0.930 . S
C904 N905 1.314 . S
C904 C906 1.353 . S
C904 H910 0.930 . S
N905 Li881 1.990 . S
N905 C904 1.314 . S
N905 C908 1.279 . S
C906 C904 1.353 . S
C906 C909 1.348 . S
C906 H954 0.929 . S
C907 C908 1.358 . S
C907 C909 1.356 . S
C907 H955 0.930 . S
C908 N905 1.279 . S
C908 C907 1.358 . S
C908 H911 0.930 . S
C909 C906 1.348 . S
C909 C907 1.356 . S
H910 C904 0.930 . S
H911 C908 0.930 . S
C912 C914 1.348 . S
C912 C915 1.356 . S
C912 O942 1.325 . S
N913 C916 1.314 . S
N913 C917 1.279 . S
C914 C912 1.348 . S
C914 C916 1.353 . S
C914 H956 0.929 . S
C915 C912 1.356 . S
C915 C917 1.358 . S
C915 H957 0.930 . S
C916 N913 1.314 . S
C916 C914 1.353 . S
C916 H958 0.930 . S
C917 N913 1.279 . S
C917 C915 1.358 . S
C917 H959 0.930 . S
C918 C919 1.348 . S
C918 C920 1.356 . S
C918 O943 1.325 . S
C919 C918 1.348 . S
C919 C921 1.353 . S
C919 H960 0.929 . S
C920 C918 1.356 . S
C920 C922 1.358 . S
C920 H961 0.930 . S
C921 C919 1.353 . S
C921 N923 1.314 . S
C921 H962 0.930 . S
C922 C920 1.358 . S
C922 N923 1.279 . S
C922 H963 0.930 . S
N923 C921 1.314 . S
N923 C922 1.279 . S
C924 C926 1.353 . S
C924 N927 1.314 . S
C924 H930 0.930 . S
C925 N927 1.279 . S
C925 C928 1.358 . S
C925 H931 0.930 . S
C926 C924 1.353 . S
C926 C929 1.348 . S
C926 H964 0.929 . S
N927 Li882 1.990 . S
N927 C924 1.314 . S
N927 C925 1.279 . S
C928 C925 1.358 . S
C928 C929 1.356 . S
C928 H965 0.930 . S
C929 C926 1.348 . S
C929 C928 1.356 . S
H930 C924 0.930 . S
H931 C925 0.930 . S
C932 N933 1.314 . S
C932 C934 1.353 . S
C932 H938 0.930 . S
N933 Li883 1.990 . S
N933 C932 1.314 . S
N933 C936 1.279 . S
C934 C932 1.353 . S
C934 C937 1.348 . S
C934 H966 0.929 . S
C935 C936 1.358 . S
C935 C937 1.356 . S
C935 H967 0.930 . S
C936 N933 1.279 . S
C936 C935 1.358 . S
C936 H939 0.930 . S
C937 C934 1.348 . S
C937 C935 1.356 . S
H938 C932 0.930 . S
H939 C936 0.930 . S
O940 Li880 1.956 . S
O940 Li881 1.970 . S
O940 Li882 1.961 . S
O940 C884 1.325 . S
O941 Li880 1.970 . S
O941 Li881 1.956 . S
O941 Li883 1.961 . S
O941 C890 1.325 . S
O942 Li880 1.961 . S
O942 Li882 1.956 . S
O942 Li883 1.970 . S
O942 C912 1.325 . S
O943 Li881 1.961 . S
O943 Li882 1.970 . S
O943 Li883 1.956 . S
O943 C918 1.325 . S
H944 C886 0.929 . S
H945 C887 0.930 . S
H946 C888 0.930 . S
H947 C889 0.930 . S
H948 C891 0.930 . S
H949 C893 0.929 . S
H950 C894 0.930 . S
H951 C895 0.930 . S
H952 C898 0.930 . S
H953 C901 0.929 . S
H954 C906 0.929 . S
H955 C907 0.930 . S
H956 C914 0.929 . S
H957 C915 0.930 . S
H958 C916 0.930 . S
H959 C917 0.930 . S
H960 C919 0.929 . S
H961 C920 0.930 . S
H962 C921 0.930 . S
H963 C922 0.930 . S
H964 C926 0.929 . S
H965 C928 0.930 . S
H966 C934 0.929 . S
H967 C935 0.930 . S
Li968 N985 1.990 . S
Li968 O1028 1.956 . S
Li968 O1029 1.970 . S
Li968 O1030 1.961 . S
Li969 N993 1.990 . S
Li969 O1028 1.970 . S
Li969 O1029 1.956 . S
Li969 O1031 1.961 . S
Li970 N1015 1.990 . S
Li970 O1028 1.961 . S
Li970 O1030 1.956 . S
Li970 O1031 1.970 . S
Li971 N1021 1.990 . S
Li971 O1029 1.961 . S
Li971 O1030 1.970 . S
Li971 O1031 1.956 . S
C972 C974 1.348 . S
C972 C975 1.356 . S
C972 O1028 1.325 . S
N973 C976 1.314 . S
N973 C977 1.279 . S
C974 C972 1.348 . S
C974 C976 1.353 . S
C974 H1032 0.929 . S
C975 C972 1.356 . S
C975 C977 1.358 . S
C975 H1033 0.930 . S
C976 N973 1.314 . S
C976 C974 1.353 . S
C976 H1034 0.930 . S
C977 N973 1.279 . S
C977 C975 1.358 . S
C977 H1035 0.930 . S
C978 C981 1.348 . S
C978 C982 1.356 . S
C978 O1029 1.325 . S
C979 N980 1.279 . S
C979 C982 1.358 . S
C979 H1036 0.930 . S
N980 C979 1.279 . S
N980 C983 1.314 . S
C981 C978 1.348 . S
C981 C983 1.353 . S
C981 H1037 0.929 . S
C982 C978 1.356 . S
C982 C979 1.358 . S
C982 H1038 0.930 . S
C983 N980 1.314 . S
C983 C981 1.353 . S
C983 H1039 0.930 . S
C984 N985 1.314 . S
C984 C989 1.353 . S
C984 H990 0.930 . S
N985 Li968 1.990 . S
N985 C984 1.314 . S
N985 C987 1.279 . S
C986 C987 1.358 . S
C986 C988 1.356 . S
C986 H1040 0.930 . S
C987 N985 1.279 . S
C987 C986 1.358 . S
C987 H991 0.930 . S
C988 C986 1.356 . S
C988 C989 1.348 . S
C989 C984 1.353 . S
C989 C988 1.348 . S
C989 H1041 0.929 . S
H990 C984 0.930 . S
H991 C987 0.930 . S
C992 N993 1.314 . S
C992 C994 1.353 . S
C992 H998 0.930 . S
N993 Li969 1.990 . S
N993 C992 1.314 . S
N993 C996 1.279 . S
C994 C992 1.353 . S
C994 C997 1.348 . S
C994 H1042 0.929 . S
C995 C996 1.358 . S
C995 C997 1.356 . S
C995 H1043 0.930 . S
C996 N993 1.279 . S
C996 C995 1.358 . S
C996 H999 0.930 . S
C997 C994 1.348 . S
C997 C995 1.356 . S
H998 C992 0.930 . S
H999 C996 0.930 . S
C1000 C1002 1.348 . S
C1000 C1003 1.356 . S
C1000 O1030 1.325 . S
N1001 C1004 1.314 . S
N1001 C1005 1.279 . S
C1002 C1000 1.348 . S
C1002 C1004 1.353 . S
C1002 H1044 0.929 . S
C1003 C1000 1.356 . S
C1003 C1005 1.358 . S
C1003 H1045 0.930 . S
C1004 N1001 1.314 . S
C1004 C1002 1.353 . S
C1004 H1046 0.930 . S
C1005 N1001 1.279 . S
C1005 C1003 1.358 . S
C1005 H1047 0.930 . S
C1006 C1007 1.348 . S
C1006 C1008 1.356 . S
C1006 O1031 1.325 . S
C1007 C1006 1.348 . S
C1007 C1009 1.353 . S
C1007 H1048 0.929 . S
C1008 C1006 1.356 . S
C1008 C1010 1.358 . S
C1008 H1049 0.930 . S
C1009 C1007 1.353 . S
C1009 N1011 1.314 . S
C1009 H1050 0.930 . S
C1010 C1008 1.358 . S
C1010 N1011 1.279 . S
C1010 H1051 0.930 . S
N1011 C1009 1.314 . S
N1011 C1010 1.279 . S
C1012 C1014 1.353 . S
C1012 N1015 1.314 . S
C1012 H1018 0.930 . S
C1013 N1015 1.279 . S
C1013 C1016 1.358 . S
C1013 H1019 0.930 . S
C1014 C1012 1.353 . S
C1014 C1017 1.348 . S
C1014 H1052 0.929 . S
N1015 Li970 1.990 . S
N1015 C1012 1.314 . S
N1015 C1013 1.279 . S
C1016 C1013 1.358 . S
C1016 C1017 1.356 . S
C1016 H1053 0.930 . S
C1017 C1014 1.348 . S
C1017 C1016 1.356 . S
H1018 C1012 0.930 . S
H1019 C1013 0.930 . S
C1020 N1021 1.314 . S
C1020 C1022 1.353 . S
C1020 H1026 0.930 . S
N1021 Li971 1.990 . S
N1021 C1020 1.314 . S
N1021 C1024 1.279 . S
C1022 C1020 1.353 . S
C1022 C1025 1.348 . S
C1022 H1054 0.929 . S
C1023 C1024 1.358 . S
C1023 C1025 1.356 . S
C1023 H1055 0.930 . S
C1024 N1021 1.279 . S
C1024 C1023 1.358 . S
C1024 H1027 0.930 . S
C1025 C1022 1.348 . S
C1025 C1023 1.356 . S
H1026 C1020 0.930 . S
H1027 C1024 0.930 . S
O1028 Li968 1.956 . S
O1028 Li969 1.970 . S
O1028 Li970 1.961 . S
O1028 C972 1.325 . S
O1029 Li968 1.970 . S
O1029 Li969 1.956 . S
O1029 Li971 1.961 . S
O1029 C978 1.325 . S
O1030 Li968 1.961 . S
O1030 Li970 1.956 . S
O1030 Li971 1.970 . S
O1030 C1000 1.325 . S
O1031 Li969 1.961 . S
O1031 Li970 1.970 . S
O1031 Li971 1.956 . S
O1031 C1006 1.325 . S
H1032 C974 0.929 . S
H1033 C975 0.930 . S
H1034 C976 0.930 . S
H1035 C977 0.930 . S
H1036 C979 0.930 . S
H1037 C981 0.929 . S
H1038 C982 0.930 . S
H1039 C983 0.930 . S
H1040 C986 0.930 . S
H1041 C989 0.929 . S
H1042 C994 0.929 . S
H1043 C995 0.930 . S
H1044 C1002 0.929 . S
H1045 C1003 0.930 . S
H1046 C1004 0.930 . S
H1047 C1005 0.930 . S
H1048 C1007 0.929 . S
H1049 C1008 0.930 . S
H1050 C1009 0.930 . S
H1051 C1010 0.930 . S
H1052 C1014 0.929 . S
H1053 C1016 0.930 . S
H1054 C1022 0.929 . S
H1055 C1023 0.930 . S
Li1056 N1073 1.990 . S
Li1056 O1116 1.956 . S
Li1056 O1117 1.970 . S
Li1056 O1118 1.961 . S
Li1057 N1081 1.990 . S
Li1057 O1116 1.970 . S
Li1057 O1117 1.956 . S
Li1057 O1119 1.961 . S
Li1058 N1103 1.990 . S
Li1058 O1116 1.961 . S
Li1058 O1118 1.956 . S
Li1058 O1119 1.970 . S
Li1059 N1109 1.990 . S
Li1059 O1117 1.961 . S
Li1059 O1118 1.970 . S
Li1059 O1119 1.956 . S
C1060 C1062 1.348 . S
C1060 C1063 1.356 . S
C1060 O1116 1.325 . S
N1061 C1064 1.314 . S
N1061 C1065 1.279 . S
C1062 C1060 1.348 . S
C1062 C1064 1.353 . S
C1062 H1120 0.929 . S
C1063 C1060 1.356 . S
C1063 C1065 1.358 . S
C1063 H1121 0.930 . S
C1064 N1061 1.314 . S
C1064 C1062 1.353 . S
C1064 H1122 0.930 . S
C1065 N1061 1.279 . S
C1065 C1063 1.358 . S
C1065 H1123 0.930 . S
C1066 C1069 1.348 . S
C1066 C1070 1.356 . S
C1066 O1117 1.325 . S
C1067 N1068 1.279 . S
C1067 C1070 1.358 . S
C1067 H1124 0.930 . S
N1068 C1067 1.279 . S
N1068 C1071 1.314 . S
C1069 C1066 1.348 . S
C1069 C1071 1.353 . S
C1069 H1125 0.929 . S
C1070 C1066 1.356 . S
C1070 C1067 1.358 . S
C1070 H1126 0.930 . S
C1071 N1068 1.314 . S
C1071 C1069 1.353 . S
C1071 H1127 0.930 . S
C1072 N1073 1.314 . S
C1072 C1077 1.353 . S
C1072 H1078 0.930 . S
N1073 Li1056 1.990 . S
N1073 C1072 1.314 . S
N1073 C1075 1.279 . S
C1074 C1075 1.358 . S
C1074 C1076 1.356 . S
C1074 H1128 0.930 . S
C1075 N1073 1.279 . S
C1075 C1074 1.358 . S
C1075 H1079 0.930 . S
C1076 C1074 1.356 . S
C1076 C1077 1.348 . S
C1077 C1072 1.353 . S
C1077 C1076 1.348 . S
C1077 H1129 0.929 . S
H1078 C1072 0.930 . S
H1079 C1075 0.930 . S
C1080 N1081 1.314 . S
C1080 C1082 1.353 . S
C1080 H1086 0.930 . S
N1081 Li1057 1.990 . S
N1081 C1080 1.314 . S
N1081 C1084 1.279 . S
C1082 C1080 1.353 . S
C1082 C1085 1.348 . S
C1082 H1130 0.929 . S
C1083 C1084 1.358 . S
C1083 C1085 1.356 . S
C1083 H1131 0.930 . S
C1084 N1081 1.279 . S
C1084 C1083 1.358 . S
C1084 H1087 0.930 . S
C1085 C1082 1.348 . S
C1085 C1083 1.356 . S
H1086 C1080 0.930 . S
H1087 C1084 0.930 . S
C1088 C1090 1.348 . S
C1088 C1091 1.356 . S
C1088 O1118 1.325 . S
N1089 C1092 1.314 . S
N1089 C1093 1.279 . S
C1090 C1088 1.348 . S
C1090 C1092 1.353 . S
C1090 H1132 0.929 . S
C1091 C1088 1.356 . S
C1091 C1093 1.358 . S
C1091 H1133 0.930 . S
C1092 N1089 1.314 . S
C1092 C1090 1.353 . S
C1092 H1134 0.930 . S
C1093 N1089 1.279 . S
C1093 C1091 1.358 . S
C1093 H1135 0.930 . S
C1094 C1095 1.348 . S
C1094 C1096 1.356 . S
C1094 O1119 1.325 . S
C1095 C1094 1.348 . S
C1095 C1097 1.353 . S
C1095 H1136 0.929 . S
C1096 C1094 1.356 . S
C1096 C1098 1.358 . S
C1096 H1137 0.930 . S
C1097 C1095 1.353 . S
C1097 N1099 1.314 . S
C1097 H1138 0.930 . S
C1098 C1096 1.358 . S
C1098 N1099 1.279 . S
C1098 H1139 0.930 . S
N1099 C1097 1.314 . S
N1099 C1098 1.279 . S
C1100 C1102 1.353 . S
C1100 N1103 1.314 . S
C1100 H1106 0.930 . S
C1101 N1103 1.279 . S
C1101 C1104 1.358 . S
C1101 H1107 0.930 . S
C1102 C1100 1.353 . S
C1102 C1105 1.348 . S
C1102 H1140 0.929 . S
N1103 Li1058 1.990 . S
N1103 C1100 1.314 . S
N1103 C1101 1.279 . S
C1104 C1101 1.358 . S
C1104 C1105 1.356 . S
C1104 H1141 0.930 . S
C1105 C1102 1.348 . S
C1105 C1104 1.356 . S
H1106 C1100 0.930 . S
H1107 C1101 0.930 . S
C1108 N1109 1.314 . S
C1108 C1110 1.353 . S
C1108 H1114 0.930 . S
N1109 Li1059 1.990 . S
N1109 C1108 1.314 . S
N1109 C1112 1.279 . S
C1110 C1108 1.353 . S
C1110 C1113 1.348 . S
C1110 H1142 0.929 . S
C1111 C1112 1.358 . S
C1111 C1113 1.356 . S
C1111 H1143 0.930 . S
C1112 N1109 1.279 . S
C1112 C1111 1.358 . S
C1112 H1115 0.930 . S
C1113 C1110 1.348 . S
C1113 C1111 1.356 . S
H1114 C1108 0.930 . S
H1115 C1112 0.930 . S
O1116 Li1056 1.956 . S
O1116 Li1057 1.970 . S
O1116 Li1058 1.961 . S
O1116 C1060 1.325 . S
O1117 Li1056 1.970 . S
O1117 Li1057 1.956 . S
O1117 Li1059 1.961 . S
O1117 C1066 1.325 . S
O1118 Li1056 1.961 . S
O1118 Li1058 1.956 . S
O1118 Li1059 1.970 . S
O1118 C1088 1.325 . S
O1119 Li1057 1.961 . S
O1119 Li1058 1.970 . S
O1119 Li1059 1.956 . S
O1119 C1094 1.325 . S
H1120 C1062 0.929 . S
H1121 C1063 0.930 . S
H1122 C1064 0.930 . S
H1123 C1065 0.930 . S
H1124 C1067 0.930 . S
H1125 C1069 0.929 . S
H1126 C1070 0.930 . S
H1127 C1071 0.930 . S
H1128 C1074 0.930 . S
H1129 C1077 0.929 . S
H1130 C1082 0.929 . S
H1131 C1083 0.930 . S
H1132 C1090 0.929 . S
H1133 C1091 0.930 . S
H1134 C1092 0.930 . S
H1135 C1093 0.930 . S
H1136 C1095 0.929 . S
H1137 C1096 0.930 . S
H1138 C1097 0.930 . S
H1139 C1098 0.930 . S
H1140 C1102 0.929 . S
H1141 C1104 0.930 . S
H1142 C1110 0.929 . S
H1143 C1111 0.930 . S
Li1144 N1161 1.990 . S
Li1144 O1204 1.956 1_655 S
Li1144 O1205 1.970 1_655 S
Li1144 O1206 1.961 . S
Li1145 N1169 1.990 . S
Li1145 O1204 1.970 . S
Li1145 O1205 1.956 . S
Li1145 O1207 1.961 . S
Li1146 N1191 1.990 . S
Li1146 O1204 1.961 . S
Li1146 O1206 1.956 1_455 S
Li1146 O1207 1.970 . S
Li1147 N1197 1.990 . S
Li1147 O1205 1.961 . S
Li1147 O1206 1.970 1_455 S
Li1147 O1207 1.956 . S
C1148 C1150 1.348 . S
C1148 C1151 1.356 1_455 S
C1148 O1204 1.325 . S
N1149 C1152 1.314 . S
N1149 C1153 1.279 1_455 S
C1150 C1148 1.348 . S
C1150 C1152 1.353 . S
C1150 H1208 0.929 . S
C1151 C1148 1.356 1_655 S
C1151 C1153 1.358 . S
C1151 H1209 0.930 . S
C1152 N1149 1.314 . S
C1152 C1150 1.353 . S
C1152 H1210 0.930 . S
C1153 N1149 1.279 1_655 S
C1153 C1151 1.358 . S
C1153 H1211 0.930 . S
C1154 C1157 1.348 1_455 S
C1154 C1158 1.356 . S
C1154 O1205 1.325 . S
C1155 N1156 1.279 . S
C1155 C1158 1.358 . S
C1155 H1212 0.930 . S
N1156 C1155 1.279 . S
N1156 C1159 1.316 1_455 S
C1157 C1154 1.348 1_655 S
C1157 C1159 1.353 . S
C1157 H1213 0.929 . S
C1158 C1154 1.356 . S
C1158 C1155 1.358 . S
C1158 H1214 0.930 . S
C1159 N1156 1.316 1_655 S
C1159 C1157 1.353 . S
C1159 H1215 0.928 . S
C1160 N1161 1.314 . S
C1160 C1165 1.353 . S
C1160 H1166 0.930 . S
N1161 Li1144 1.990 . S
N1161 C1160 1.314 . S
N1161 C1163 1.279 . S
C1162 C1163 1.358 . S
C1162 C1164 1.356 . S
C1162 H1216 0.930 . S
C1163 N1161 1.279 . S
C1163 C1162 1.358 . S
C1163 H1167 0.930 . S
C1164 C1162 1.356 . S
C1164 C1165 1.348 . S
C1165 C1160 1.353 . S
C1165 C1164 1.348 . S
C1165 H1217 0.929 . S
H1166 C1160 0.930 . S
H1167 C1163 0.930 . S
C1168 N1169 1.314 . S
C1168 C1170 1.353 . S
C1168 H1174 0.930 . S
N1169 Li1145 1.990 . S
N1169 C1168 1.314 . S
N1169 C1172 1.279 . S
C1170 C1168 1.353 . S
C1170 C1173 1.348 . S
C1170 H1218 0.929 . S
C1171 C1172 1.358 . S
C1171 C1173 1.356 . S
C1171 H1219 0.930 . S
C1172 N1169 1.279 . S
C1172 C1171 1.358 . S
C1172 H1175 0.930 . S
C1173 C1170 1.348 . S
C1173 C1171 1.356 . S
H1174 C1168 0.930 . S
H1175 C1172 0.930 . S
C1176 C1178 1.348 . S
C1176 C1179 1.356 . S
C1176 O1206 1.325 . S
N1177 C1180 1.314 . S
N1177 C1181 1.279 . S
C1178 C1176 1.348 . S
C1178 C1180 1.353 . S
C1178 H1220 0.929 . S
C1179 C1176 1.356 . S
C1179 C1181 1.358 . S
C1179 H1221 0.930 . S
C1180 N1177 1.314 . S
C1180 C1178 1.353 . S
C1180 H1222 0.930 . S
C1181 N1177 1.279 . S
C1181 C1179 1.358 . S
C1181 H1223 0.930 . S
C1182 C1183 1.348 . S
C1182 C1184 1.356 . S
C1182 O1207 1.325 . S
C1183 C1182 1.348 . S
C1183 C1185 1.353 . S
C1183 H1224 0.929 . S
C1184 C1182 1.356 . S
C1184 C1186 1.358 . S
C1184 H1225 0.930 . S
C1185 C1183 1.353 . S
C1185 N1187 1.314 . S
C1185 H1226 0.930 . S
C1186 C1184 1.358 . S
C1186 N1187 1.279 . S
C1186 H1227 0.930 . S
N1187 C1185 1.314 . S
N1187 C1186 1.279 . S
C1188 C1190 1.353 . S
C1188 N1191 1.314 . S
C1188 H1194 0.930 . S
C1189 N1191 1.279 1_655 S
C1189 C1192 1.358 . S
C1189 H1195 0.930 . S
C1190 C1188 1.353 . S
C1190 C1193 1.348 . S
C1190 H1228 0.929 . S
N1191 Li1146 1.990 . S
N1191 C1188 1.314 . S
N1191 C1189 1.279 1_455 S
C1192 C1189 1.358 . S
C1192 C1193 1.356 1_655 S
C1192 H1229 0.930 . S
C1193 C1190 1.348 . S
C1193 C1192 1.356 1_455 S
H1194 C1188 0.930 . S
H1195 C1189 0.930 . S
C1196 N1197 1.317 . S
C1196 C1198 1.353 1_455 S
C1196 H1202 0.926 1_455 S
N1197 Li1147 1.990 . S
N1197 C1196 1.317 . S
N1197 C1200 1.279 . S
C1198 C1196 1.353 1_655 S
C1198 C1201 1.348 1_655 S
C1198 H1230 0.929 . S
C1199 C1200 1.358 . S
C1199 C1201 1.356 . S
C1199 H1231 0.930 . S
C1200 N1197 1.279 . S
C1200 C1199 1.358 . S
C1200 H1203 0.930 . S
C1201 C1198 1.348 1_455 S
C1201 C1199 1.356 . S
H1202 C1196 0.926 1_655 S
H1203 C1200 0.930 . S
O1204 Li1144 1.956 1_455 S
O1204 Li1145 1.970 . S
O1204 Li1146 1.961 . S
O1204 C1148 1.325 . S
O1205 Li1144 1.970 1_455 S
O1205 Li1145 1.956 . S
O1205 Li1147 1.961 . S
O1205 C1154 1.325 . S
O1206 Li1144 1.961 . S
O1206 Li1146 1.956 1_655 S
O1206 Li1147 1.970 1_655 S
O1206 C1176 1.325 . S
O1207 Li1145 1.961 . S
O1207 Li1146 1.970 . S
O1207 Li1147 1.956 . S
O1207 C1182 1.325 . S
H1208 C1150 0.929 . S
H1209 C1151 0.930 . S
H1210 C1152 0.930 . S
H1211 C1153 0.930 . S
H1212 C1155 0.930 . S
H1213 C1157 0.929 . S
H1214 C1158 0.930 . S
H1215 C1159 0.928 . S
H1216 C1162 0.930 . S
H1217 C1165 0.929 . S
H1218 C1170 0.929 . S
H1219 C1171 0.930 . S
H1220 C1178 0.929 . S
H1221 C1179 0.930 . S
H1222 C1180 0.930 . S
H1223 C1181 0.930 . S
H1224 C1183 0.929 . S
H1225 C1184 0.930 . S
H1226 C1185 0.930 . S
H1227 C1186 0.930 . S
H1228 C1190 0.929 . S
H1229 C1192 0.930 . S
H1230 C1198 0.929 . S
H1231 C1199 0.930 . S
Li1232 N1249 1.990 . S
Li1232 O1292 1.956 . S
Li1232 O1293 1.970 . S
Li1232 O1294 1.961 . S
Li1233 N1257 1.990 . S
Li1233 O1292 1.970 . S
Li1233 O1293 1.956 . S
Li1233 O1295 1.961 . S
Li1234 N1279 1.990 . S
Li1234 O1292 1.961 . S
Li1234 O1294 1.956 . S
Li1234 O1295 1.970 . S
Li1235 N1285 1.990 . S
Li1235 O1293 1.961 . S
Li1235 O1294 1.970 . S
Li1235 O1295 1.956 . S
C1236 C1238 1.348 . S
C1236 C1239 1.356 . S
C1236 O1292 1.325 . S
N1237 C1240 1.314 . S
N1237 C1241 1.279 . S
C1238 C1236 1.348 . S
C1238 C1240 1.353 . S
C1238 H1296 0.929 . S
C1239 C1236 1.356 . S
C1239 C1241 1.358 . S
C1239 H1297 0.930 . S
C1240 N1237 1.314 . S
C1240 C1238 1.353 . S
C1240 H1298 0.930 . S
C1241 N1237 1.279 . S
C1241 C1239 1.358 . S
C1241 H1299 0.930 . S
C1242 C1245 1.348 . S
C1242 C1246 1.356 . S
C1242 O1293 1.325 . S
C1243 N1244 1.279 . S
C1243 C1246 1.358 . S
C1243 H1300 0.930 . S
N1244 C1243 1.279 . S
N1244 C1247 1.314 . S
C1245 C1242 1.348 . S
C1245 C1247 1.353 . S
C1245 H1301 0.929 . S
C1246 C1242 1.356 . S
C1246 C1243 1.358 . S
C1246 H1302 0.930 . S
C1247 N1244 1.314 . S
C1247 C1245 1.353 . S
C1247 H1303 0.930 . S
C1248 N1249 1.314 . S
C1248 C1253 1.353 . S
C1248 H1254 0.930 . S
N1249 Li1232 1.990 . S
N1249 C1248 1.314 . S
N1249 C1251 1.279 . S
C1250 C1251 1.358 . S
C1250 C1252 1.356 . S
C1250 H1304 0.930 . S
C1251 N1249 1.279 . S
C1251 C1250 1.358 . S
C1251 H1255 0.930 . S
C1252 C1250 1.356 . S
C1252 C1253 1.348 . S
C1253 C1248 1.353 . S
C1253 C1252 1.348 . S
C1253 H1305 0.929 . S
H1254 C1248 0.930 . S
H1255 C1251 0.930 . S
C1256 N1257 1.314 . S
C1256 C1258 1.353 . S
C1256 H1262 0.930 . S
N1257 Li1233 1.990 . S
N1257 C1256 1.314 . S
N1257 C1260 1.279 . S
C1258 C1256 1.353 . S
C1258 C1261 1.348 . S
C1258 H1306 0.929 . S
C1259 C1260 1.358 . S
C1259 C1261 1.356 . S
C1259 H1307 0.930 . S
C1260 N1257 1.279 . S
C1260 C1259 1.358 . S
C1260 H1263 0.930 . S
C1261 C1258 1.348 . S
C1261 C1259 1.356 . S
H1262 C1256 0.930 . S
H1263 C1260 0.930 . S
C1264 C1266 1.348 . S
C1264 C1267 1.356 . S
C1264 O1294 1.325 . S
N1265 C1268 1.314 . S
N1265 C1269 1.279 . S
C1266 C1264 1.348 . S
C1266 C1268 1.353 . S
C1266 H1308 0.929 . S
C1267 C1264 1.356 . S
C1267 C1269 1.358 . S
C1267 H1309 0.930 . S
C1268 N1265 1.314 . S
C1268 C1266 1.353 . S
C1268 H1310 0.930 . S
C1269 N1265 1.279 . S
C1269 C1267 1.358 . S
C1269 H1311 0.930 . S
C1270 C1271 1.348 . S
C1270 C1272 1.356 . S
C1270 O1295 1.325 . S
C1271 C1270 1.348 . S
C1271 C1273 1.353 . S
C1271 H1312 0.929 . S
C1272 C1270 1.356 . S
C1272 C1274 1.358 . S
C1272 H1313 0.930 . S
C1273 C1271 1.353 . S
C1273 N1275 1.314 . S
C1273 H1314 0.930 . S
C1274 C1272 1.358 . S
C1274 N1275 1.279 . S
C1274 H1315 0.930 . S
N1275 C1273 1.314 . S
N1275 C1274 1.279 . S
C1276 C1278 1.353 . S
C1276 N1279 1.314 . S
C1276 H1282 0.930 . S
C1277 N1279 1.279 . S
C1277 C1280 1.358 . S
C1277 H1283 0.930 . S
C1278 C1276 1.353 . S
C1278 C1281 1.348 . S
C1278 H1316 0.929 . S
N1279 Li1234 1.990 . S
N1279 C1276 1.314 . S
N1279 C1277 1.279 . S
C1280 C1277 1.358 . S
C1280 C1281 1.356 . S
C1280 H1317 0.930 . S
C1281 C1278 1.348 . S
C1281 C1280 1.356 . S
H1282 C1276 0.930 . S
H1283 C1277 0.930 . S
C1284 N1285 1.314 . S
C1284 C1286 1.353 . S
C1284 H1290 0.930 . S
N1285 Li1235 1.990 . S
N1285 C1284 1.314 . S
N1285 C1288 1.279 . S
C1286 C1284 1.353 . S
C1286 C1289 1.348 . S
C1286 H1318 0.929 . S
C1287 C1288 1.358 . S
C1287 C1289 1.356 . S
C1287 H1319 0.930 . S
C1288 N1285 1.279 . S
C1288 C1287 1.358 . S
C1288 H1291 0.930 . S
C1289 C1286 1.348 . S
C1289 C1287 1.356 . S
H1290 C1284 0.930 . S
H1291 C1288 0.930 . S
O1292 Li1232 1.956 . S
O1292 Li1233 1.970 . S
O1292 Li1234 1.961 . S
O1292 C1236 1.325 . S
O1293 Li1232 1.970 . S
O1293 Li1233 1.956 . S
O1293 Li1235 1.961 . S
O1293 C1242 1.325 . S
O1294 Li1232 1.961 . S
O1294 Li1234 1.956 . S
O1294 Li1235 1.970 . S
O1294 C1264 1.325 . S
O1295 Li1233 1.961 . S
O1295 Li1234 1.970 . S
O1295 Li1235 1.956 . S
O1295 C1270 1.325 . S
H1296 C1238 0.929 . S
H1297 C1239 0.930 . S
H1298 C1240 0.930 . S
H1299 C1241 0.930 . S
H1300 C1243 0.930 . S
H1301 C1245 0.929 . S
H1302 C1246 0.930 . S
H1303 C1247 0.930 . S
H1304 C1250 0.930 . S
H1305 C1253 0.929 . S
H1306 C1258 0.929 . S
H1307 C1259 0.930 . S
H1308 C1266 0.929 . S
H1309 C1267 0.930 . S
H1310 C1268 0.930 . S
H1311 C1269 0.930 . S
H1312 C1271 0.929 . S
H1313 C1272 0.930 . S
H1314 C1273 0.930 . S
H1315 C1274 0.930 . S
H1316 C1278 0.929 . S
H1317 C1280 0.930 . S
H1318 C1286 0.929 . S
H1319 C1287 0.930 . S
Li1320 N1337 1.990 . S
Li1320 O1380 1.956 . S
Li1320 O1381 1.970 1_455 S
Li1320 O1382 1.961 . S
Li1321 N1345 1.990 . S
Li1321 O1380 1.970 . S
Li1321 O1381 1.956 1_455 S
Li1321 O1383 1.961 . S
Li1322 N1367 1.990 . S
Li1322 O1380 1.961 . S
Li1322 O1382 1.956 . S
Li1322 O1383 1.970 . S
Li1323 N1373 1.990 . S
Li1323 O1381 1.961 . S
Li1323 O1382 1.970 1_655 S
Li1323 O1383 1.956 1_655 S
C1324 C1326 1.348 . S
C1324 C1327 1.356 . S
C1324 O1380 1.325 . S
N1325 C1328 1.314 . S
N1325 C1329 1.279 . S
C1326 C1324 1.348 . S
C1326 C1328 1.353 . S
C1326 H1384 0.929 . S
C1327 C1324 1.356 . S
C1327 C1329 1.358 . S
C1327 H1385 0.930 . S
C1328 N1325 1.314 . S
C1328 C1326 1.353 . S
C1328 H1386 0.930 . S
C1329 N1325 1.279 . S
C1329 C1327 1.358 . S
C1329 H1387 0.930 . S
C1330 C1333 1.348 . S
C1330 C1334 1.356 . S
C1330 O1381 1.325 . S
C1331 N1332 1.279 . S
C1331 C1334 1.358 . S
C1331 H1388 0.930 . S
N1332 C1331 1.279 . S
N1332 C1335 1.314 . S
C1333 C1330 1.348 . S
C1333 C1335 1.353 . S
C1333 H1389 0.929 . S
C1334 C1330 1.356 . S
C1334 C1331 1.358 . S
C1334 H1390 0.930 . S
C1335 N1332 1.314 . S
C1335 C1333 1.353 . S
C1335 H1391 0.930 . S
C1336 N1337 1.317 . S
C1336 C1341 1.353 1_455 S
C1336 H1342 0.926 1_455 S
N1337 Li1320 1.990 . S
N1337 C1336 1.317 . S
N1337 C1339 1.279 . S
C1338 C1339 1.358 . S
C1338 C1340 1.356 . S
C1338 H1392 0.930 . S
C1339 N1337 1.279 . S
C1339 C1338 1.358 . S
C1339 H1343 0.930 . S
C1340 C1338 1.356 . S
C1340 C1341 1.348 1_455 S
C1341 C1336 1.353 1_655 S
C1341 C1340 1.348 1_655 S
C1341 H1393 0.929 . S
H1342 C1336 0.926 1_655 S
H1343 C1339 0.930 . S
C1344 N1345 1.314 . S
C1344 C1346 1.353 . S
C1344 H1350 0.930 . S
N1345 Li1321 1.990 . S
N1345 C1344 1.314 . S
N1345 C1348 1.279 1_455 S
C1346 C1344 1.353 . S
C1346 C1349 1.348 . S
C1346 H1394 0.929 . S
C1347 C1348 1.358 . S
C1347 C1349 1.356 1_655 S
C1347 H1395 0.930 . S
C1348 N1345 1.279 1_655 S
C1348 C1347 1.358 . S
C1348 H1351 0.930 . S
C1349 C1346 1.348 . S
C1349 C1347 1.356 1_455 S
H1350 C1344 0.930 . S
H1351 C1348 0.930 . S
C1352 C1354 1.348 1_455 S
C1352 C1355 1.356 . S
C1352 O1382 1.325 . S
N1353 C1356 1.316 1_455 S
N1353 C1357 1.279 . S
C1354 C1352 1.348 1_655 S
C1354 C1356 1.353 . S
C1354 H1396 0.929 . S
C1355 C1352 1.356 . S
C1355 C1357 1.358 . S
C1355 H1397 0.930 . S
C1356 N1353 1.316 1_655 S
C1356 C1354 1.353 . S
C1356 H1398 0.928 . S
C1357 N1353 1.279 . S
C1357 C1355 1.358 . S
C1357 H1399 0.930 . S
C1358 C1359 1.348 . S
C1358 C1360 1.356 1_455 S
C1358 O1383 1.325 . S
C1359 C1358 1.348 . S
C1359 C1361 1.353 . S
C1359 H1400 0.929 . S
C1360 C1358 1.356 1_655 S
C1360 C1362 1.358 . S
C1360 H1401 0.930 . S
C1361 C1359 1.353 . S
C1361 N1363 1.314 . S
C1361 H1402 0.930 . S
C1362 C1360 1.358 . S
C1362 N1363 1.279 1_655 S
C1362 H1403 0.930 . S
N1363 C1361 1.314 . S
N1363 C1362 1.279 1_455 S
C1364 C1366 1.353 . S
C1364 N1367 1.314 . S
C1364 H1370 0.930 . S
C1365 N1367 1.279 . S
C1365 C1368 1.358 . S
C1365 H1371 0.930 . S
C1366 C1364 1.353 . S
C1366 C1369 1.348 . S
C1366 H1404 0.929 . S
N1367 Li1322 1.990 . S
N1367 C1364 1.314 . S
N1367 C1365 1.279 . S
C1368 C1365 1.358 . S
C1368 C1369 1.356 . S
C1368 H1405 0.930 . S
C1369 C1366 1.348 . S
C1369 C1368 1.356 . S
H1370 C1364 0.930 . S
H1371 C1365 0.930 . S
C1372 N1373 1.314 . S
C1372 C1374 1.353 . S
C1372 H1378 0.930 . S
N1373 Li1323 1.990 . S
N1373 C1372 1.314 . S
N1373 C1376 1.279 . S
C1374 C1372 1.353 . S
C1374 C1377 1.348 . S
C1374 H1406 0.929 . S
C1375 C1376 1.358 . S
C1375 C1377 1.356 . S
C1375 H1407 0.930 . S
C1376 N1373 1.279 . S
C1376 C1375 1.358 . S
C1376 H1379 0.930 . S
C1377 C1374 1.348 . S
C1377 C1375 1.356 . S
H1378 C1372 0.930 . S
H1379 C1376 0.930 . S
O1380 Li1320 1.956 . S
O1380 Li1321 1.970 . S
O1380 Li1322 1.961 . S
O1380 C1324 1.325 . S
O1381 Li1320 1.970 1_655 S
O1381 Li1321 1.956 1_655 S
O1381 Li1323 1.961 . S
O1381 C1330 1.325 . S
O1382 Li1320 1.961 . S
O1382 Li1322 1.956 . S
O1382 Li1323 1.970 1_455 S
O1382 C1352 1.325 . S
O1383 Li1321 1.961 . S
O1383 Li1322 1.970 . S
O1383 Li1323 1.956 1_455 S
O1383 C1358 1.325 . S
H1384 C1326 0.929 . S
H1385 C1327 0.930 . S
H1386 C1328 0.930 . S
H1387 C1329 0.930 . S
H1388 C1331 0.930 . S
H1389 C1333 0.929 . S
H1390 C1334 0.930 . S
H1391 C1335 0.930 . S
H1392 C1338 0.930 . S
H1393 C1341 0.929 . S
H1394 C1346 0.929 . S
H1395 C1347 0.930 . S
H1396 C1354 0.929 . S
H1397 C1355 0.930 . S
H1398 C1356 0.928 . S
H1399 C1357 0.930 . S
H1400 C1359 0.929 . S
H1401 C1360 0.930 . S
H1402 C1361 0.930 . S
H1403 C1362 0.930 . S
H1404 C1366 0.929 . S
H1405 C1368 0.930 . S
H1406 C1374 0.929 . S
H1407 C1375 0.930 . S
H1408 C1414 0.930 . S
H1409 C1418 0.930 . S
H1410 C1423 0.929 . S
H1411 C1421 0.929 . S
H1412 C1416 0.929 . S
H1413 C1422 0.929 . S
C1414 H1408 0.930 . S
C1414 C1415 1.367 . S
C1414 C1422 1.378 . S
C1415 C1414 1.367 . S
C1415 C1423 1.433 1_455 S
C1416 H1412 0.929 . S
C1416 C1418 1.378 . S
C1416 C1420 1.350 1_655 S
C1417 C1420 1.463 . S
C1417 C1422 1.350 . S
C1417 N1425 1.427 1_455 S
C1418 H1409 0.930 . S
C1418 C1416 1.378 . S
C1418 C1419 1.367 1_655 S
C1419 C1418 1.367 1_455 S
C1419 C1421 1.433 . S
C1420 C1416 1.350 1_455 S
C1420 C1417 1.463 . S
C1420 N1424 1.427 . S
C1421 H1411 0.929 . S
C1421 C1419 1.433 . S
C1421 N1424 1.384 . S
C1422 H1413 0.929 . S
C1422 C1414 1.378 . S
C1422 C1417 1.350 . S
C1423 H1410 0.929 . S
C1423 C1415 1.433 1_655 S
C1423 N1425 1.384 . S
N1424 C1420 1.427 . S
N1424 C1421 1.384 . S
N1425 C1417 1.427 1_655 S
N1425 C1423 1.384 . S
H1426 C1432 0.930 . S
H1427 C1436 0.930 . S
H1428 C1441 0.929 . S
H1429 C1439 0.929 . S
H1430 C1434 0.929 . S
H1431 C1440 0.929 . S
C1432 H1426 0.930 . S
C1432 C1433 1.367 . S
C1432 C1440 1.378 . S
C1433 C1432 1.367 . S
C1433 C1441 1.433 . S
C1434 H1430 0.929 . S
C1434 C1436 1.378 . S
C1434 C1438 1.350 . S
C1435 C1438 1.463 1_655 S
C1435 C1440 1.350 . S
C1435 N1443 1.427 . S
C1436 H1427 0.930 . S
C1436 C1434 1.378 . S
C1436 C1437 1.367 . S
C1437 C1436 1.367 . S
C1437 C1439 1.433 . S
C1438 C1434 1.350 . S
C1438 C1435 1.463 1_455 S
C1438 N1442 1.427 . S
C1439 H1429 0.929 . S
C1439 C1437 1.433 . S
C1439 N1442 1.384 . S
C1440 H1431 0.929 . S
C1440 C1432 1.378 . S
C1440 C1435 1.350 . S
C1441 H1428 0.929 . S
C1441 C1433 1.433 . S
C1441 N1443 1.384 . S
N1442 C1438 1.427 . S
N1442 C1439 1.384 . S
N1443 C1435 1.427 . S
N1443 C1441 1.384 . S
H1444 C1450 0.930 . S
H1445 C1454 0.930 . S
H1446 C1459 0.929 . S
H1447 C1457 0.929 . S
H1448 C1452 0.929 . S
H1449 C1458 0.929 . S
C1450 H1444 0.930 . S
C1450 C1451 1.367 . S
C1450 C1458 1.378 . S
C1451 C1450 1.367 . S
C1451 C1459 1.433 . S
C1452 H1448 0.929 . S
C1452 C1454 1.378 . S
C1452 C1456 1.350 . S
C1453 C1456 1.463 . S
C1453 C1458 1.350 . S
C1453 N1461 1.427 . S
C1454 H1445 0.930 . S
C1454 C1452 1.378 . S
C1454 C1455 1.367 . S
C1455 C1454 1.367 . S
C1455 C1457 1.433 . S
C1456 C1452 1.350 . S
C1456 C1453 1.463 . S
C1456 N1460 1.427 . S
C1457 H1447 0.929 . S
C1457 C1455 1.433 . S
C1457 N1460 1.384 . S
C1458 H1449 0.929 . S
C1458 C1450 1.378 . S
C1458 C1453 1.350 . S
C1459 H1446 0.929 . S
C1459 C1451 1.433 . S
C1459 N1461 1.384 . S
N1460 C1456 1.427 . S
N1460 C1457 1.384 . S
N1461 C1453 1.427 . S
N1461 C1459 1.384 . S
H1462 C1468 0.930 . S
H1463 C1472 0.930 . S
H1464 C1477 0.929 . S
H1465 C1475 0.929 . S
H1466 C1470 0.929 . S
H1467 C1476 0.929 . S
C1468 H1462 0.930 . S
C1468 C1469 1.367 . S
C1468 C1476 1.378 . S
C1469 C1468 1.367 . S
C1469 C1477 1.433 . S
C1470 H1466 0.929 . S
C1470 C1472 1.378 . S
C1470 C1474 1.350 . S
C1471 C1474 1.463 . S
C1471 C1476 1.350 . S
C1471 N1479 1.427 . S
C1472 H1463 0.930 . S
C1472 C1470 1.378 . S
C1472 C1473 1.367 . S
C1473 C1472 1.367 . S
C1473 C1475 1.433 . S
C1474 C1470 1.350 . S
C1474 C1471 1.463 . S
C1474 N1478 1.427 . S
C1475 H1465 0.929 . S
C1475 C1473 1.433 . S
C1475 N1478 1.384 . S
C1476 H1467 0.929 . S
C1476 C1468 1.378 . S
C1476 C1471 1.350 . S
C1477 H1464 0.929 . S
C1477 C1469 1.433 . S
C1477 N1479 1.384 . S
N1478 C1474 1.427 . S
N1478 C1475 1.384 . S
N1479 C1471 1.427 . S
N1479 C1477 1.384 . S
H1480 C1486 0.930 . S
H1481 C1490 0.930 . S
H1482 C1495 0.929 . S
H1483 C1493 0.929 . S
H1484 C1488 0.929 . S
H1485 C1494 0.929 . S
C1486 H1480 0.930 . S
C1486 C1487 1.367 1_655 S
C1486 C1494 1.378 . S
C1487 C1486 1.367 1_455 S
C1487 C1495 1.433 . S
C1488 H1484 0.929 . S
C1488 C1490 1.378 . S
C1488 C1492 1.350 . S
C1489 C1492 1.463 . S
C1489 C1494 1.350 1_455 S
C1489 N1497 1.427 . S
C1490 H1481 0.930 . S
C1490 C1488 1.378 . S
C1490 C1491 1.367 . S
C1491 C1490 1.367 . S
C1491 C1493 1.433 1_455 S
C1492 C1488 1.350 . S
C1492 C1489 1.463 . S
C1492 N1496 1.427 1_455 S
C1493 H1483 0.929 . S
C1493 C1491 1.433 1_655 S
C1493 N1496 1.384 . S
C1494 H1485 0.929 . S
C1494 C1486 1.378 . S
C1494 C1489 1.350 1_655 S
C1495 H1482 0.929 . S
C1495 C1487 1.433 . S
C1495 N1497 1.384 . S
N1496 C1492 1.427 1_655 S
N1496 C1493 1.384 . S
N1497 C1489 1.427 . S
N1497 C1495 1.384 . S
H1498 C1504 0.930 . S
H1499 C1508 0.930 . S
H1500 C1513 0.929 . S
H1501 C1511 0.929 . S
H1502 C1506 0.929 . S
H1503 C1512 0.929 . S
C1504 H1498 0.930 . S
C1504 C1505 1.367 . S
C1504 C1512 1.378 . S
C1505 C1504 1.367 . S
C1505 C1513 1.433 . S
C1506 H1502 0.929 . S
C1506 C1508 1.378 . S
C1506 C1510 1.350 . S
C1507 C1510 1.463 . S
C1507 C1512 1.350 . S
C1507 N1515 1.427 . S
C1508 H1499 0.930 . S
C1508 C1506 1.378 . S
C1508 C1509 1.367 . S
C1509 C1508 1.367 . S
C1509 C1511 1.433 . S
C1510 C1506 1.350 . S
C1510 C1507 1.463 . S
C1510 N1514 1.427 . S
C1511 H1501 0.929 . S
C1511 C1509 1.433 . S
C1511 N1514 1.384 . S
C1512 H1503 0.929 . S
C1512 C1504 1.378 . S
C1512 C1507 1.350 . S
C1513 H1500 0.929 . S
C1513 C1505 1.433 . S
C1513 N1515 1.384 . S
N1514 C1510 1.427 . S
N1514 C1511 1.384 . S
N1515 C1507 1.427 . S
N1515 C1513 1.384 . S
H1516 C1522 0.930 . S
H1517 C1526 0.930 . S
H1518 C1531 0.929 . S
H1519 C1529 0.929 . S
H1520 C1524 0.929 . S
H1521 C1530 0.929 . S
C1522 H1516 0.930 . S
C1522 C1523 1.367 . S
C1522 C1530 1.378 . S
C1523 C1522 1.367 . S
C1523 C1531 1.433 . S
C1524 H1520 0.929 . S
C1524 C1526 1.378 . S
C1524 C1528 1.350 . S
C1525 C1528 1.463 . S
C1525 C1530 1.350 . S
C1525 N1533 1.427 . S
C1526 H1517 0.930 . S
C1526 C1524 1.378 . S
C1526 C1527 1.367 . S
C1527 C1526 1.367 . S
C1527 C1529 1.433 . S
C1528 C1524 1.350 . S
C1528 C1525 1.463 . S
C1528 N1532 1.427 . S
C1529 H1519 0.929 . S
C1529 C1527 1.433 . S
C1529 N1532 1.384 . S
C1530 H1521 0.929 . S
C1530 C1522 1.378 . S
C1530 C1525 1.350 . S
C1531 H1518 0.929 . S
C1531 C1523 1.433 . S
C1531 N1533 1.384 . S
N1532 C1528 1.427 . S
N1532 C1529 1.384 . S
N1533 C1525 1.427 . S
N1533 C1531 1.384 . S
H1534 C1540 0.930 . S
H1535 C1544 0.930 . S
H1536 C1549 0.929 . S
H1537 C1547 0.929 . S
H1538 C1542 0.929 . S
H1539 C1548 0.929 . S
C1540 H1534 0.930 . S
C1540 C1541 1.367 . S
C1540 C1548 1.378 . S
C1541 C1540 1.367 . S
C1541 C1549 1.433 . S
C1542 H1538 0.929 . S
C1542 C1544 1.378 . S
C1542 C1546 1.350 . S
C1543 C1546 1.463 1_455 S
C1543 C1548 1.350 . S
C1543 N1551 1.427 . S
C1544 H1535 0.930 . S
C1544 C1542 1.378 . S
C1544 C1545 1.367 . S
C1545 C1544 1.367 . S
C1545 C1547 1.433 . S
C1546 C1542 1.350 . S
C1546 C1543 1.463 1_655 S
C1546 N1550 1.427 . S
C1547 H1537 0.929 . S
C1547 C1545 1.433 . S
C1547 N1550 1.384 . S
C1548 H1539 0.929 . S
C1548 C1540 1.378 . S
C1548 C1543 1.350 . S
C1549 H1536 0.929 . S
C1549 C1541 1.433 . S
C1549 N1551 1.384 . S
N1550 C1546 1.427 . S
N1550 C1547 1.384 . S
N1551 C1543 1.427 . S
N1551 C1549 1.384 . S
H1552 C1558 0.930 . S
H1553 C1562 0.930 . S
H1554 C1567 0.929 . S
H1555 C1565 0.929 . S
H1556 C1560 0.929 . S
H1557 C1566 0.929 . S
C1558 H1552 0.930 . S
C1558 C1559 1.367 1_645 S
C1558 C1566 1.378 . S
C1559 C1558 1.367 1_465 S
C1559 C1567 1.433 . S
C1560 H1556 0.929 . S
C1560 C1562 1.378 . S
C1560 C1564 1.350 1_565 S
C1561 C1564 1.463 1_565 S
C1561 C1566 1.350 1_465 S
C1561 N1569 1.427 . S
C1562 H1553 0.930 . S
C1562 C1560 1.378 . S
C1562 C1563 1.367 1_565 S
C1563 C1562 1.367 1_545 S
C1563 C1565 1.433 1_455 S
C1564 C1560 1.350 1_545 S
C1564 C1561 1.463 1_545 S
C1564 N1568 1.427 1_455 S
C1565 H1555 0.929 . S
C1565 C1563 1.433 1_655 S
C1565 N1568 1.384 . S
C1566 H1557 0.929 . S
C1566 C1558 1.378 . S
C1566 C1561 1.350 1_645 S
C1567 H1554 0.929 . S
C1567 C1559 1.433 . S
C1567 N1569 1.384 . S
N1568 C1564 1.427 1_655 S
N1568 C1565 1.384 . S
N1569 C1561 1.427 . S
N1569 C1567 1.384 . S
H1570 C1576 0.930 . S
H1571 C1580 0.930 . S
H1572 C1585 0.929 . S
H1573 C1583 0.929 . S
H1574 C1578 0.929 . S
H1575 C1584 0.929 . S
C1576 H1570 0.930 . S
C1576 C1577 1.367 . S
C1576 C1584 1.378 . S
C1577 C1576 1.367 . S
C1577 C1585 1.433 . S
C1578 H1574 0.929 . S
C1578 C1580 1.378 . S
C1578 C1582 1.350 . S
C1579 C1582 1.463 . S
C1579 C1584 1.350 . S
C1579 N1587 1.427 . S
C1580 H1571 0.930 . S
C1580 C1578 1.378 . S
C1580 C1581 1.367 . S
C1581 C1580 1.367 . S
C1581 C1583 1.433 . S
C1582 C1578 1.350 . S
C1582 C1579 1.463 . S
C1582 N1586 1.427 . S
C1583 H1573 0.929 . S
C1583 C1581 1.433 . S
C1583 N1586 1.384 . S
C1584 H1575 0.929 . S
C1584 C1576 1.378 . S
C1584 C1579 1.350 . S
C1585 H1572 0.929 . S
C1585 C1577 1.433 . S
C1585 N1587 1.384 . S
N1586 C1582 1.427 . S
N1586 C1583 1.384 . S
N1587 C1579 1.427 . S
N1587 C1585 1.384 . S
H1588 C1594 0.930 . S
H1589 C1598 0.930 . S
H1590 C1603 0.929 . S
H1591 C1601 0.929 . S
H1592 C1596 0.929 . S
H1593 C1602 0.929 . S
C1594 H1588 0.930 . S
C1594 C1595 1.367 . S
C1594 C1602 1.378 . S
C1595 C1594 1.367 . S
C1595 C1603 1.433 . S
C1596 H1592 0.929 . S
C1596 C1598 1.378 . S
C1596 C1600 1.350 . S
C1597 C1600 1.463 1_564 S
C1597 C1602 1.350 . S
C1597 N1605 1.427 . S
C1598 H1589 0.930 . S
C1598 C1596 1.378 . S
C1598 C1599 1.367 . S
C1599 C1598 1.367 . S
C1599 C1601 1.433 . S
C1600 C1596 1.350 . S
C1600 C1597 1.463 1_546 S
C1600 N1604 1.427 . S
C1601 H1591 0.929 . S
C1601 C1599 1.433 . S
C1601 N1604 1.384 . S
C1602 H1593 0.929 . S
C1602 C1594 1.378 . S
C1602 C1597 1.350 . S
C1603 H1590 0.929 . S
C1603 C1595 1.433 . S
C1603 N1605 1.384 . S
N1604 C1600 1.427 . S
N1604 C1601 1.384 . S
N1605 C1597 1.427 . S
N1605 C1603 1.384 . S
H1606 C1612 0.930 . S
H1607 C1616 0.930 . S
H1608 C1621 0.929 . S
H1609 C1619 0.929 . S
H1610 C1614 0.929 . S
H1611 C1620 0.929 . S
C1612 H1606 0.930 . S
C1612 C1613 1.367 . S
C1612 C1620 1.378 . S
C1613 C1612 1.367 . S
C1613 C1621 1.433 . S
C1614 H1610 0.929 . S
C1614 C1616 1.378 . S
C1614 C1618 1.350 . S
C1615 C1618 1.463 . S
C1615 C1620 1.350 . S
C1615 N1623 1.427 . S
C1616 H1607 0.930 . S
C1616 C1614 1.378 . S
C1616 C1617 1.367 . S
C1617 C1616 1.367 . S
C1617 C1619 1.433 . S
C1618 C1614 1.350 . S
C1618 C1615 1.463 . S
C1618 N1622 1.427 . S
C1619 H1609 0.929 . S
C1619 C1617 1.433 . S
C1619 N1622 1.384 . S
C1620 H1611 0.929 . S
C1620 C1612 1.378 . S
C1620 C1615 1.350 . S
C1621 H1608 0.929 . S
C1621 C1613 1.433 . S
C1621 N1623 1.384 . S
N1622 C1618 1.427 . S
N1622 C1619 1.384 . S
N1623 C1615 1.427 . S
N1623 C1621 1.384 . S
H1624 C1630 0.930 . S
H1625 C1634 0.930 . S
H1626 C1639 0.929 . S
H1627 C1637 0.929 . S
H1628 C1632 0.929 . S
H1629 C1638 0.929 . S
C1630 H1624 0.930 . S
C1630 C1631 1.367 . S
C1630 C1638 1.378 . S
C1631 C1630 1.367 . S
C1631 C1639 1.433 . S
C1632 H1628 0.929 . S
C1632 C1634 1.378 . S
C1632 C1636 1.350 . S
C1633 C1636 1.463 . S
C1633 C1638 1.350 . S
C1633 N1641 1.427 . S
C1634 H1625 0.930 . S
C1634 C1632 1.378 . S
C1634 C1635 1.367 . S
C1635 C1634 1.367 . S
C1635 C1637 1.433 . S
C1636 C1632 1.350 . S
C1636 C1633 1.463 . S
C1636 N1640 1.427 . S
C1637 H1627 0.929 . S
C1637 C1635 1.433 . S
C1637 N1640 1.384 . S
C1638 H1629 0.929 . S
C1638 C1630 1.378 . S
C1638 C1633 1.350 . S
C1639 H1626 0.929 . S
C1639 C1631 1.433 . S
C1639 N1641 1.384 . S
N1640 C1636 1.427 . S
N1640 C1637 1.384 . S
N1641 C1633 1.427 . S
N1641 C1639 1.384 . S
H1642 C1648 0.930 . S
H1643 C1652 0.930 . S
H1644 C1657 0.929 . S
H1645 C1655 0.929 . S
H1646 C1650 0.929 . S
H1647 C1656 0.929 . S
C1648 H1642 0.930 . S
C1648 C1649 1.367 . S
C1648 C1656 1.378 . S
C1649 C1648 1.367 . S
C1649 C1657 1.433 . S
C1650 H1646 0.929 . S
C1650 C1652 1.378 . S
C1650 C1654 1.350 . S
C1651 C1654 1.463 . S
C1651 C1656 1.350 . S
C1651 N1659 1.427 . S
C1652 H1643 0.930 . S
C1652 C1650 1.378 . S
C1652 C1653 1.367 . S
C1653 C1652 1.367 . S
C1653 C1655 1.433 . S
C1654 C1650 1.350 . S
C1654 C1651 1.463 . S
C1654 N1658 1.427 . S
C1655 H1645 0.929 . S
C1655 C1653 1.433 . S
C1655 N1658 1.384 . S
C1656 H1647 0.929 . S
C1656 C1648 1.378 . S
C1656 C1651 1.350 . S
C1657 H1644 0.929 . S
C1657 C1649 1.433 . S
C1657 N1659 1.384 . S
N1658 C1654 1.427 . S
N1658 C1655 1.384 . S
N1659 C1651 1.427 . S
N1659 C1657 1.384 . S
H1660 C1666 0.930 . S
H1661 C1670 0.930 . S
H1662 C1675 0.929 . S
H1663 C1673 0.929 . S
H1664 C1668 0.929 . S
H1665 C1674 0.929 . S
C1666 H1660 0.930 . S
C1666 C1667 1.367 . S
C1666 C1674 1.378 . S
C1667 C1666 1.367 . S
C1667 C1675 1.433 . S
C1668 H1664 0.929 . S
C1668 C1670 1.378 . S
C1668 C1672 1.350 . S
C1669 C1672 1.463 1_556 S
C1669 C1674 1.350 . S
C1669 N1677 1.427 . S
C1670 H1661 0.930 . S
C1670 C1668 1.378 . S
C1670 C1671 1.367 . S
C1671 C1670 1.367 . S
C1671 C1673 1.433 . S
C1672 C1668 1.350 . S
C1672 C1669 1.463 1_554 S
C1672 N1676 1.427 . S
C1673 H1663 0.929 . S
C1673 C1671 1.433 . S
C1673 N1676 1.384 . S
C1674 H1665 0.929 . S
C1674 C1666 1.378 . S
C1674 C1669 1.350 . S
C1675 H1662 0.929 . S
C1675 C1667 1.433 . S
C1675 N1677 1.384 . S
N1676 C1672 1.427 . S
N1676 C1673 1.384 . S
N1677 C1669 1.427 . S
N1677 C1675 1.384 . S
H1678 C1684 0.930 . S
H1679 C1688 0.933 . S
H1680 C1693 0.930 . S
H1681 C1691 0.929 . S
H1682 C1686 0.931 . S
H1683 C1692 0.929 . S
C1684 H1678 0.930 . S
C1684 C1685 1.367 . S
C1684 C1692 1.378 . S
C1685 C1684 1.367 . S
C1685 C1693 1.433 . S
C1686 H1682 0.931 . S
C1686 C1688 1.378 . S
C1686 C1690 1.350 . S
C1687 C1690 1.463 . S
C1687 C1692 1.350 . S
C1687 N1695 1.427 . S
C1688 H1679 0.933 . S
C1688 C1686 1.378 . S
C1688 C1689 1.367 . S
C1689 C1688 1.367 . S
C1689 C1691 1.433 . S
C1690 C1686 1.350 . S
C1690 C1687 1.463 . S
C1690 N1694 1.427 . S
C1691 H1681 0.929 . S
C1691 C1689 1.433 . S
C1691 N1694 1.384 . S
C1692 H1683 0.929 . S
C1692 C1684 1.378 . S
C1692 C1687 1.350 . S
C1693 H1680 0.930 . S
C1693 C1685 1.433 . S
C1693 N1695 1.384 . S
N1694 C1690 1.427 . S
N1694 C1691 1.384 . S
N1695 C1687 1.427 . S
N1695 C1693 1.384 . S
H1696 C1702 0.930 . S
H1697 C1706 0.930 . S
H1698 C1711 0.929 . S
H1699 C1709 0.929 . S
H1700 C1704 0.929 . S
H1701 C1710 0.929 . S
C1702 H1696 0.930 . S
C1702 C1703 1.367 . S
C1702 C1710 1.378 . S
C1703 C1702 1.367 . S
C1703 C1711 1.433 . S
C1704 H1700 0.929 . S
C1704 C1706 1.378 . S
C1704 C1708 1.350 . S
C1705 C1708 1.463 . S
C1705 C1710 1.350 . S
C1705 N1713 1.427 . S
C1706 H1697 0.930 . S
C1706 C1704 1.378 . S
C1706 C1707 1.367 . S
C1707 C1706 1.367 . S
C1707 C1709 1.433 . S
C1708 C1704 1.350 . S
C1708 C1705 1.463 . S
C1708 N1712 1.427 . S
C1709 H1699 0.929 . S
C1709 C1707 1.433 . S
C1709 N1712 1.384 . S
C1710 H1701 0.929 . S
C1710 C1702 1.378 . S
C1710 C1705 1.350 . S
C1711 H1698 0.929 . S
C1711 C1703 1.433 . S
C1711 N1713 1.384 . S
N1712 C1708 1.427 . S
N1712 C1709 1.384 . S
N1713 C1705 1.427 . S
N1713 C1711 1.384 . S
H1714 C1720 0.930 . S
H1715 C1724 0.930 . S
H1716 C1729 0.929 . S
H1717 C1727 0.929 . S
H1718 C1722 0.929 . S
H1719 C1728 0.929 . S
C1720 H1714 0.930 . S
C1720 C1721 1.367 . S
C1720 C1728 1.378 . S
C1721 C1720 1.367 . S
C1721 C1729 1.433 . S
C1722 H1718 0.929 . S
C1722 C1724 1.378 . S
C1722 C1726 1.350 . S
C1723 C1726 1.463 . S
C1723 C1728 1.350 . S
C1723 N1731 1.427 . S
C1724 H1715 0.930 . S
C1724 C1722 1.378 . S
C1724 C1725 1.367 . S
C1725 C1724 1.367 . S
C1725 C1727 1.433 . S
C1726 C1722 1.350 . S
C1726 C1723 1.463 . S
C1726 N1730 1.427 . S
C1727 H1717 0.929 . S
C1727 C1725 1.433 . S
C1727 N1730 1.384 . S
C1728 H1719 0.929 . S
C1728 C1720 1.378 . S
C1728 C1723 1.350 . S
C1729 H1716 0.929 . S
C1729 C1721 1.433 . S
C1729 N1731 1.384 . S
N1730 C1726 1.427 . S
N1730 C1727 1.384 . S
N1731 C1723 1.427 . S
N1731 C1729 1.384 . S
H1732 C1738 0.930 . S
H1733 C1742 0.930 . S
H1734 C1747 0.929 . S
H1735 C1745 0.929 . S
H1736 C1740 0.929 . S
H1737 C1746 0.929 . S
C1738 H1732 0.930 . S
C1738 C1739 1.367 . S
C1738 C1746 1.378 . S
C1739 C1738 1.367 . S
C1739 C1747 1.433 . S
C1740 H1736 0.929 . S
C1740 C1742 1.378 . S
C1740 C1744 1.350 . S
C1741 C1744 1.463 . S
C1741 C1746 1.350 . S
C1741 N1749 1.427 . S
C1742 H1733 0.930 . S
C1742 C1740 1.378 . S
C1742 C1743 1.367 . S
C1743 C1742 1.367 . S
C1743 C1745 1.433 . S
C1744 C1740 1.350 . S
C1744 C1741 1.463 . S
C1744 N1748 1.427 . S
C1745 H1735 0.929 . S
C1745 C1743 1.433 . S
C1745 N1748 1.384 . S
C1746 H1737 0.929 . S
C1746 C1738 1.378 . S
C1746 C1741 1.350 . S
C1747 H1734 0.929 . S
C1747 C1739 1.433 . S
C1747 N1749 1.384 . S
N1748 C1744 1.427 . S
N1748 C1745 1.384 . S
N1749 C1741 1.427 . S
N1749 C1747 1.384 . S
H1750 C1756 0.930 . S
H1751 C1760 0.930 . S
H1752 C1765 0.929 . S
H1753 C1763 0.929 . S
H1754 C1758 0.929 . S
H1755 C1764 0.929 . S
C1756 H1750 0.930 . S
C1756 C1757 1.367 . S
C1756 C1764 1.378 . S
C1757 C1756 1.367 . S
C1757 C1765 1.433 . S
C1758 H1754 0.929 . S
C1758 C1760 1.378 . S
C1758 C1762 1.350 . S
C1759 C1762 1.463 . S
C1759 C1764 1.350 . S
C1759 N1767 1.427 . S
C1760 H1751 0.930 . S
C1760 C1758 1.378 . S
C1760 C1761 1.367 . S
C1761 C1760 1.367 . S
C1761 C1763 1.433 . S
C1762 C1758 1.350 . S
C1762 C1759 1.463 . S
C1762 N1766 1.427 . S
C1763 H1753 0.929 . S
C1763 C1761 1.433 . S
C1763 N1766 1.384 . S
C1764 H1755 0.929 . S
C1764 C1756 1.378 . S
C1764 C1759 1.350 . S
C1765 H1752 0.929 . S
C1765 C1757 1.433 . S
C1765 N1767 1.384 . S
N1766 C1762 1.427 . S
N1766 C1763 1.384 . S
N1767 C1759 1.427 . S
N1767 C1765 1.384 . S
H1768 C1774 0.930 . S
H1769 C1778 0.930 . S
H1770 C1783 0.929 . S
H1771 C1781 0.929 . S
H1772 C1776 0.929 . S
H1773 C1782 0.929 . S
C1774 H1768 0.930 . S
C1774 C1775 1.367 . S
C1774 C1782 1.378 . S
C1775 C1774 1.367 . S
C1775 C1783 1.433 . S
C1776 H1772 0.929 . S
C1776 C1778 1.378 . S
C1776 C1780 1.350 . S
C1777 C1780 1.463 . S
C1777 C1782 1.350 . S
C1777 N1785 1.427 . S
C1778 H1769 0.930 . S
C1778 C1776 1.378 . S
C1778 C1779 1.367 . S
C1779 C1778 1.367 . S
C1779 C1781 1.433 . S
C1780 C1776 1.350 . S
C1780 C1777 1.463 . S
C1780 N1784 1.427 . S
C1781 H1771 0.929 . S
C1781 C1779 1.433 . S
C1781 N1784 1.384 . S
C1782 H1773 0.929 . S
C1782 C1774 1.378 . S
C1782 C1777 1.350 . S
C1783 H1770 0.929 . S
C1783 C1775 1.433 . S
C1783 N1785 1.384 . S
N1784 C1780 1.427 . S
N1784 C1781 1.384 . S
N1785 C1777 1.427 . S
N1785 C1783 1.384 . S
H1786 C1792 0.930 . S
H1787 C1796 0.930 . S
H1788 C1801 0.929 . S
H1789 C1799 0.929 . S
H1790 C1794 0.929 . S
H1791 C1800 0.929 . S
C1792 H1786 0.930 . S
C1792 C1793 1.367 . S
C1792 C1800 1.378 . S
C1793 C1792 1.367 . S
C1793 C1801 1.433 . S
C1794 H1790 0.929 . S
C1794 C1796 1.378 . S
C1794 C1798 1.350 . S
C1795 C1798 1.463 . S
C1795 C1800 1.350 . S
C1795 N1803 1.427 . S
C1796 H1787 0.930 . S
C1796 C1794 1.378 . S
C1796 C1797 1.367 . S
C1797 C1796 1.367 . S
C1797 C1799 1.433 . S
C1798 C1794 1.350 . S
C1798 C1795 1.463 . S
C1798 N1802 1.427 . S
C1799 H1789 0.929 . S
C1799 C1797 1.433 . S
C1799 N1802 1.384 . S
C1800 H1791 0.929 . S
C1800 C1792 1.378 . S
C1800 C1795 1.350 . S
C1801 H1788 0.929 . S
C1801 C1793 1.433 . S
C1801 N1803 1.384 . S
N1802 C1798 1.427 . S
N1802 C1799 1.384 . S
N1803 C1795 1.427 . S
N1803 C1801 1.384 . S
H1804 C1810 0.930 . S
H1805 C1814 0.930 . S
H1806 C1819 0.929 . S
H1807 C1817 0.929 . S
H1808 C1812 0.929 . S
H1809 C1818 0.929 . S
C1810 H1804 0.930 . S
C1810 C1811 1.367 . S
C1810 C1818 1.378 . S
C1811 C1810 1.367 . S
C1811 C1819 1.433 . S
C1812 H1808 0.929 . S
C1812 C1814 1.378 . S
C1812 C1816 1.350 . S
C1813 C1816 1.463 . S
C1813 C1818 1.350 . S
C1813 N1821 1.427 . S
C1814 H1805 0.930 . S
C1814 C1812 1.378 . S
C1814 C1815 1.367 . S
C1815 C1814 1.367 . S
C1815 C1817 1.433 . S
C1816 C1812 1.350 . S
C1816 C1813 1.463 . S
C1816 N1820 1.427 . S
C1817 H1807 0.929 . S
C1817 C1815 1.433 . S
C1817 N1820 1.384 . S
C1818 H1809 0.929 . S
C1818 C1810 1.378 . S
C1818 C1813 1.350 . S
C1819 H1806 0.929 . S
C1819 C1811 1.433 . S
C1819 N1821 1.384 . S
N1820 C1816 1.427 . S
N1820 C1817 1.384 . S
N1821 C1813 1.427 . S
N1821 C1819 1.384 . S
H1822 C1828 0.930 . S
H1823 C1832 0.930 . S
H1824 C1837 0.929 . S
H1825 C1835 0.929 . S
H1826 C1830 0.929 . S
H1827 C1836 0.929 . S
C1828 H1822 0.930 . S
C1828 C1829 1.367 . S
C1828 C1836 1.378 . S
C1829 C1828 1.367 . S
C1829 C1837 1.433 . S
C1830 H1826 0.929 . S
C1830 C1832 1.378 . S
C1830 C1834 1.350 . S
C1831 C1834 1.463 . S
C1831 C1836 1.350 . S
C1831 N1839 1.427 . S
C1832 H1823 0.930 . S
C1832 C1830 1.378 . S
C1832 C1833 1.367 . S
C1833 C1832 1.367 . S
C1833 C1835 1.433 . S
C1834 C1830 1.350 . S
C1834 C1831 1.463 . S
C1834 N1838 1.427 . S
C1835 H1825 0.929 . S
C1835 C1833 1.433 . S
C1835 N1838 1.384 . S
C1836 H1827 0.929 . S
C1836 C1828 1.378 . S
C1836 C1831 1.350 . S
C1837 H1824 0.929 . S
C1837 C1829 1.433 . S
C1837 N1839 1.384 . S
N1838 C1834 1.427 . S
N1838 C1835 1.384 . S
N1839 C1831 1.427 . S
N1839 C1837 1.384 . S
H1840 C1846 0.930 . S
H1841 C1850 0.930 . S
H1842 C1855 0.929 . S
H1843 C1853 0.929 . S
H1844 C1848 0.929 . S
H1845 C1854 0.929 . S
C1846 H1840 0.930 . S
C1846 C1847 1.367 . S
C1846 C1854 1.378 . S
C1847 C1846 1.367 . S
C1847 C1855 1.433 . S
C1848 H1844 0.929 . S
C1848 C1850 1.378 . S
C1848 C1852 1.350 . S
C1849 C1852 1.463 . S
C1849 C1854 1.350 . S
C1849 N1857 1.427 . S
C1850 H1841 0.930 . S
C1850 C1848 1.378 . S
C1850 C1851 1.367 . S
C1851 C1850 1.367 . S
C1851 C1853 1.433 . S
C1852 C1848 1.350 . S
C1852 C1849 1.463 . S
C1852 N1856 1.427 . S
C1853 H1843 0.929 . S
C1853 C1851 1.433 . S
C1853 N1856 1.384 . S
C1854 H1845 0.929 . S
C1854 C1846 1.378 . S
C1854 C1849 1.350 . S
C1855 H1842 0.929 . S
C1855 C1847 1.433 . S
C1855 N1857 1.384 . S
N1856 C1852 1.427 . S
N1856 C1853 1.384 . S
N1857 C1849 1.427 . S
N1857 C1855 1.384 . S
H1858 C1864 0.930 . S
H1859 C1868 0.930 . S
H1860 C1873 0.929 . S
H1861 C1871 0.929 . S
H1862 C1866 0.929 . S
H1863 C1872 0.929 . S
C1864 H1858 0.930 . S
C1864 C1865 1.367 . S
C1864 C1872 1.378 . S
C1865 C1864 1.367 . S
C1865 C1873 1.433 . S
C1866 H1862 0.929 . S
C1866 C1868 1.378 . S
C1866 C1870 1.350 . S
C1867 C1870 1.463 . S
C1867 C1872 1.350 . S
C1867 N1875 1.427 . S
C1868 H1859 0.930 . S
C1868 C1866 1.378 . S
C1868 C1869 1.367 . S
C1869 C1868 1.367 . S
C1869 C1871 1.433 . S
C1870 C1866 1.350 . S
C1870 C1867 1.463 . S
C1870 N1874 1.427 . S
C1871 H1861 0.929 . S
C1871 C1869 1.433 . S
C1871 N1874 1.384 . S
C1872 H1863 0.929 . S
C1872 C1864 1.378 . S
C1872 C1867 1.350 . S
C1873 H1860 0.929 . S
C1873 C1865 1.433 . S
C1873 N1875 1.384 . S
N1874 C1870 1.427 . S
N1874 C1871 1.384 . S
N1875 C1867 1.427 . S
N1875 C1873 1.384 . S
H1876 C1882 0.930 . S
H1877 C1886 0.930 . S
H1878 C1891 0.929 . S
H1879 C1889 0.929 . S
H1880 C1884 0.929 . S
H1881 C1890 0.929 . S
C1882 H1876 0.930 . S
C1882 C1883 1.367 . S
C1882 C1890 1.378 . S
C1883 C1882 1.367 . S
C1883 C1891 1.433 . S
C1884 H1880 0.929 . S
C1884 C1886 1.378 . S
C1884 C1888 1.350 . S
C1885 C1888 1.463 . S
C1885 C1890 1.350 . S
C1885 N1893 1.427 . S
C1886 H1877 0.930 . S
C1886 C1884 1.378 . S
C1886 C1887 1.367 . S
C1887 C1886 1.367 . S
C1887 C1889 1.433 . S
C1888 C1884 1.350 . S
C1888 C1885 1.463 . S
C1888 N1892 1.427 . S
C1889 H1879 0.929 . S
C1889 C1887 1.433 . S
C1889 N1892 1.384 . S
C1890 H1881 0.929 . S
C1890 C1882 1.378 . S
C1890 C1885 1.350 . S
C1891 H1878 0.929 . S
C1891 C1883 1.433 . S
C1891 N1893 1.384 . S
N1892 C1888 1.427 . S
N1892 C1889 1.384 . S
N1893 C1885 1.427 . S
N1893 C1891 1.384 . S
H1894 C1900 0.930 . S
H1895 C1904 0.930 . S
H1896 C1909 0.929 . S
H1897 C1907 0.929 . S
H1898 C1902 0.929 . S
H1899 C1908 0.929 . S
C1900 H1894 0.930 . S
C1900 C1901 1.367 . S
C1900 C1908 1.378 . S
C1901 C1900 1.367 . S
C1901 C1909 1.433 . S
C1902 H1898 0.929 . S
C1902 C1904 1.378 . S
C1902 C1906 1.350 . S
C1903 C1906 1.463 . S
C1903 C1908 1.350 . S
C1903 N1911 1.427 . S
C1904 H1895 0.930 . S
C1904 C1902 1.378 . S
C1904 C1905 1.367 . S
C1905 C1904 1.367 . S
C1905 C1907 1.433 . S
C1906 C1902 1.350 . S
C1906 C1903 1.463 . S
C1906 N1910 1.427 . S
C1907 H1897 0.929 . S
C1907 C1905 1.433 . S
C1907 N1910 1.384 . S
C1908 H1899 0.929 . S
C1908 C1900 1.378 . S
C1908 C1903 1.350 . S
C1909 H1896 0.929 . S
C1909 C1901 1.433 . S
C1909 N1911 1.384 . S
N1910 C1906 1.427 . S
N1910 C1907 1.384 . S
N1911 C1903 1.427 . S
N1911 C1909 1.384 . S
H1912 C1918 0.930 . S
H1913 C1922 0.930 . S
H1914 C1927 0.929 . S
H1915 C1925 0.929 . S
H1916 C1920 0.929 . S
H1917 C1926 0.929 . S
C1918 H1912 0.930 . S
C1918 C1919 1.367 . S
C1918 C1926 1.378 . S
C1919 C1918 1.367 . S
C1919 C1927 1.433 . S
C1920 H1916 0.929 . S
C1920 C1922 1.378 . S
C1920 C1924 1.350 . S
C1921 C1924 1.463 . S
C1921 C1926 1.350 . S
C1921 N1929 1.427 . S
C1922 H1913 0.930 . S
C1922 C1920 1.378 . S
C1922 C1923 1.367 . S
C1923 C1922 1.367 . S
C1923 C1925 1.433 . S
C1924 C1920 1.350 . S
C1924 C1921 1.463 . S
C1924 N1928 1.427 . S
C1925 H1915 0.929 . S
C1925 C1923 1.433 . S
C1925 N1928 1.384 . S
C1926 H1917 0.929 . S
C1926 C1918 1.378 . S
C1926 C1921 1.350 . S
C1927 H1914 0.929 . S
C1927 C1919 1.433 . S
C1927 N1929 1.384 . S
N1928 C1924 1.427 . S
N1928 C1925 1.384 . S
N1929 C1921 1.427 . S
N1929 C1927 1.384 . S
H1930 C1936 0.930 . S
H1931 C1940 0.930 . S
H1932 C1945 0.929 . S
H1933 C1943 0.929 . S
H1934 C1938 0.929 . S
H1935 C1944 0.929 . S
C1936 H1930 0.930 . S
C1936 C1937 1.367 . S
C1936 C1944 1.378 . S
C1937 C1936 1.367 . S
C1937 C1945 1.433 . S
C1938 H1934 0.929 . S
C1938 C1940 1.378 . S
C1938 C1942 1.350 . S
C1939 C1942 1.463 . S
C1939 C1944 1.350 . S
C1939 N1947 1.427 . S
C1940 H1931 0.930 . S
C1940 C1938 1.378 . S
C1940 C1941 1.367 . S
C1941 C1940 1.367 . S
C1941 C1943 1.433 . S
C1942 C1938 1.350 . S
C1942 C1939 1.463 . S
C1942 N1946 1.427 . S
C1943 H1933 0.929 . S
C1943 C1941 1.433 . S
C1943 N1946 1.384 . S
C1944 H1935 0.929 . S
C1944 C1936 1.378 . S
C1944 C1939 1.350 . S
C1945 H1932 0.929 . S
C1945 C1937 1.433 . S
C1945 N1947 1.384 . S
N1946 C1942 1.427 . S
N1946 C1943 1.384 . S
N1947 C1939 1.427 . S
N1947 C1945 1.384 . S
H1948 C1954 0.930 . S
H1949 C1958 0.930 . S
H1950 C1963 0.929 . S
H1951 C1961 0.929 . S
H1952 C1956 0.929 . S
H1953 C1962 0.929 . S
C1954 H1948 0.930 . S
C1954 C1955 1.367 . S
C1954 C1962 1.378 . S
C1955 C1954 1.367 . S
C1955 C1963 1.433 . S
C1956 H1952 0.929 . S
C1956 C1958 1.378 . S
C1956 C1960 1.350 . S
C1957 C1960 1.463 . S
C1957 C1962 1.350 . S
C1957 N1965 1.427 . S
C1958 H1949 0.930 . S
C1958 C1956 1.378 . S
C1958 C1959 1.367 . S
C1959 C1958 1.367 . S
C1959 C1961 1.433 . S
C1960 C1956 1.350 . S
C1960 C1957 1.463 . S
C1960 N1964 1.427 . S
C1961 H1951 0.929 . S
C1961 C1959 1.433 . S
C1961 N1964 1.384 . S
C1962 H1953 0.929 . S
C1962 C1954 1.378 . S
C1962 C1957 1.350 . S
C1963 H1950 0.929 . S
C1963 C1955 1.433 . S
C1963 N1965 1.384 . S
N1964 C1960 1.427 . S
N1964 C1961 1.384 . S
N1965 C1957 1.427 . S
N1965 C1963 1.384 . S
H1966 C1972 0.930 . S
H1967 C1976 0.930 . S
H1968 C1981 0.929 . S
H1969 C1979 0.929 . S
H1970 C1974 0.929 . S
H1971 C1980 0.929 . S
C1972 H1966 0.930 . S
C1972 C1973 1.367 . S
C1972 C1980 1.378 . S
C1973 C1972 1.367 . S
C1973 C1981 1.433 . S
C1974 H1970 0.929 . S
C1974 C1976 1.378 . S
C1974 C1978 1.350 . S
C1975 C1978 1.463 . S
C1975 C1980 1.350 . S
C1975 N1983 1.427 . S
C1976 H1967 0.930 . S
C1976 C1974 1.378 . S
C1976 C1977 1.367 . S
C1977 C1976 1.367 . S
C1977 C1979 1.433 . S
C1978 C1974 1.350 . S
C1978 C1975 1.463 . S
C1978 N1982 1.427 . S
C1979 H1969 0.929 . S
C1979 C1977 1.433 . S
C1979 N1982 1.384 . S
C1980 H1971 0.929 . S
C1980 C1972 1.378 . S
C1980 C1975 1.350 . S
C1981 H1968 0.929 . S
C1981 C1973 1.433 . S
C1981 N1983 1.384 . S
N1982 C1978 1.427 . S
N1982 C1979 1.384 . S
N1983 C1975 1.427 . S
N1983 C1981 1.384 . S
C1415 C29 0.714 . S
C1419 C1201 0.706 . S
C1433 C997 0.715 . S
C1437 C117 0.720 . S
C1451 C1085 0.714 . S
C1455 C225 0.705 . S
C1469 C900 0.712 . S
C1473 C293 0.721 . S
C1487 C401 0.707 . S
C1491 C1340 0.711 . S
C1505 C489 0.715 . S
C1509 C849 0.718 . S
C1523 C1281 0.715 . S
C1527 C548 0.703 . S
C1541 C673 0.721 . S
C1545 C761 0.713 . S
C1559 C409 1.690 . S
C1563 C20 1.690 . S
C1577 C137 1.693 . S
C1581 C469 1.693 . S
C1595 C233 1.692 . S
C1599 C557 1.691 . S
C1613 C636 1.695 . S
C1617 C313 1.695 . S
C1631 C724 1.696 . S
C1635 C937 1.695 . S
C1649 C812 1.695 . S
C1653 C1017 1.694 . S
C1667 C1289 1.692 . S
C1671 C1076 1.692 . S
C1685 C1193 1.690 . S
C1689 C1349 1.690 . S
C1703 C460 1.277 . S
C1707 C49 1.271 . S
C1721 C145 1.279 . S
C1725 C585 1.278 . S
C1739 C205 1.270 . S
C1743 C645 1.283 . S
C1757 C381 1.272 . S
C1761 C321 1.275 . S
C1775 C372 1.280 . S
C1779 C909 1.271 . S
C1793 C196 1.272 . S
C1797 C753 1.279 . S
C1811 C988 1.275 . S
C1815 C577 1.271 . S
C1829 C841 1.272 . S
C1833 C57 1.273 . S
C1847 C733 1.280 . S
C1851 C1105 1.278 . S
C1865 C929 1.274 . S
C1869 C1377 1.275 . S
C1883 C1164 1.274 . S
C1887 C821 1.282 . S
C1901 C1025 1.279 . S
C1905 C1261 1.269 . S
C1919 C1252 1.280 . S
C1923 C108 1.271 . S
C1937 C1173 1.271 . S
C1941 C497 1.278 . S
C1955 C1369 1.279 . S
C1959 C284 1.275 . S
C1973 C1113 1.273 . S
C1977 C665 1.279 . S
