# Generated by pormake.
# Topology wjd, (6)-cn, num edge types: 1
# Building blocks:
#     Node 0, Type 0, BuildingBlock: LEVNOQ01_clean_sbu_1, # of connection points: 6
#     Node 1, Type 0, BuildingBlock: LEVNOQ01_clean_sbu_1, # of connection points: 6
#     Node 2, Type 0, BuildingBlock: LEVNOQ01_clean_sbu_1, # of connection points: 6
#     Node 3, Type 0, BuildingBlock: LEVNOQ01_clean_sbu_1, # of connection points: 6
#     Node 4, Type 0, BuildingBlock: LEVNOQ01_clean_sbu_1, # of connection points: 6
#     Node 5, Type 0, BuildingBlock: LEVNOQ01_clean_sbu_1, # of connection points: 6
#     Node 6, Type 0, BuildingBlock: LEVNOQ01_clean_sbu_1, # of connection points: 6
#     Node 7, Type 0, BuildingBlock: LEVNOQ01_clean_sbu_1, # of connection points: 6
#     Node 8, Type 0, BuildingBlock: LEVNOQ01_clean_sbu_1, # of connection points: 6
#     Node 9, Type 0, BuildingBlock: LEVNOQ01_clean_sbu_1, # of connection points: 6
#     Node 10, Type 0, BuildingBlock: LEVNOQ01_clean_sbu_1, # of connection points: 6
#     Node 11, Type 0, BuildingBlock: LEVNOQ01_clean_sbu_1, # of connection points: 6
#     Edge 12, Type (0, 0), None
#     Edge 13, Type (0, 0), None
#     Edge 14, Type (0, 0), None
#     Edge 15, Type (0, 0), None
#     Edge 16, Type (0, 0), None
#     Edge 17, Type (0, 0), None
#     Edge 18, Type (0, 0), None
#     Edge 19, Type (0, 0), None
#     Edge 20, Type (0, 0), None
#     Edge 21, Type (0, 0), None
#     Edge 22, Type (0, 0), None
#     Edge 23, Type (0, 0), None
#     Edge 24, Type (0, 0), None
#     Edge 25, Type (0, 0), None
#     Edge 26, Type (0, 0), None
#     Edge 27, Type (0, 0), None
#     Edge 28, Type (0, 0), None
#     Edge 29, Type (0, 0), None
#     Edge 30, Type (0, 0), None
#     Edge 31, Type (0, 0), None
#     Edge 32, Type (0, 0), None
#     Edge 33, Type (0, 0), None
#     Edge 34, Type (0, 0), None
#     Edge 35, Type (0, 0), None
#     Edge 36, Type (0, 0), None
#     Edge 37, Type (0, 0), None
#     Edge 38, Type (0, 0), None
#     Edge 39, Type (0, 0), None
#     Edge 40, Type (0, 0), None
#     Edge 41, Type (0, 0), None
#     Edge 42, Type (0, 0), None
#     Edge 43, Type (0, 0), None
#     Edge 44, Type (0, 0), None
#     Edge 45, Type (0, 0), None
#     Edge 46, Type (0, 0), None
#     Edge 47, Type (0, 0), None
# Relax obj value: 0.151
# Max RMSD: 0.190
# Mean RMSD: 0.190
data_MOF--net-wjd--node1-LEVNOQ01_clean_sbu_1--edge1-none
_symmetry_space_group_name_H-M    P1
_symmetry_Int_Tables_number       1
_symmetry_cell_setting            triclinic
loop_
_symmetry_equiv_pos_as_xyz
'x, y, z'
_cell_length_a     14.503852
_cell_length_b     14.472885
_cell_length_c     27.236249
_cell_angle_alpha  90.188071
_cell_angle_beta   90.015197
_cell_angle_gamma 119.5765
loop_
_atom_site_label
_atom_site_type_symbol
_atom_site_fract_x
_atom_site_fract_y
_atom_site_fract_z
_atom_type_partial_charge
O0 O 0.21998 0.93837 0.18215 0.0
Mg1 Mg 0.30953 0.09772 0.15434 0.0
O2 O 0.15808 0.97627 0.11855 0.0
Mg3 Mg 0.32127 0.14902 0.11067 0.0
O4 O 0.37987 0.20938 0.20091 0.0
O5 O 0.44441 0.10555 0.19342 0.0
O6 O 0.46468 0.3137 0.09563 0.0
O7 O 0.44207 0.08699 0.09756 0.0
Mg8 Mg 0.39362 0.20374 -0.00547 0.0
O9 O 0.26876 0.09947 0.03173 0.0
O10 O 0.42958 0.35444 0.02286 0.0
O11 O 0.49889 0.15265 0.02174 0.0
O12 O 0.26407 0.09154 0.95169 0.0
C13 C 0.16619 0.19813 0.14744 0.0
C14 C 0.14589 0.91041 0.15184 0.0
C15 C 0.43248 0.17005 0.22082 0.0
C16 C 0.48205 0.38215 0.06256 0.0
C17 C 0.50426 0.10641 0.06062 0.0
C18 C 0.22343 0.04546 0.99258 0.0
O19 O 0.17917 0.13562 0.17562 0.0
O20 O 0.22208 0.22782 0.10962 0.0
O21 O 0.62637 0.48212 0.47576 0.0
Mg22 Mg 0.78336 0.5773 0.50233 0.0
O23 O 0.62746 0.52366 0.39631 0.0
Mg24 Mg 0.81284 0.64543 0.38325 0.0
O25 O 0.82317 0.7033 0.46168 0.0
O26 O 0.81821 0.71646 0.54147 0.0
O27 O -0.00812 0.74981 0.38188 0.0
O28 O 0.79853 0.80645 0.37075 0.0
Mg29 Mg 0.76399 0.648 0.34037 0.0
O30 O 0.81266 0.58359 0.29393 0.0
O31 O 0.92724 0.77906 0.31661 0.0
O32 O 0.6844 0.73089 0.31321 0.0
O33 O 0.64455 0.50929 0.30063 0.0
C34 C 0.8717 0.47405 0.43858 0.0
C35 C 0.57911 0.47056 0.43479 0.0
C36 C 0.81602 0.75425 0.49922 0.0
C37 C 0.00797 0.80121 0.34293 0.0
C38 C 0.73543 0.81078 0.33995 0.0
C39 C 0.72286 0.53178 0.27261 0.0
O40 O 0.88018 0.51547 0.48058 0.0
O41 O 0.83771 0.50269 0.40172 0.0
O42 O 0.05464 0.25727 0.1857 0.0
Mg43 Mg 0.9 0.2197 0.15766 0.0
O44 O 0.00642 0.17792 0.11527 0.0
Mg45 Mg 0.8334 0.17075 0.11002 0.0
O46 O 0.77341 0.17361 0.19752 0.0
O47 O 0.89231 0.33884 0.2018 0.0
O48 O 0.66577 0.14683 0.09671 0.0
O49 O 0.89326 0.35447 0.09833 0.0
Mg50 Mg 0.77423 0.19041 -0.00472 0.0
O51 O 0.88 0.16792 0.03086 0.0
O52 O 0.62752 0.07075 0.0243 0.0
O53 O 0.82616 0.34787 0.02303 0.0
O54 O 0.88631 0.17421 0.95099 0.0
C55 C 0.80005 0.97511 0.15124 0.0
C56 C 0.07317 0.21291 0.15014 0.0
C57 C 0.81496 0.25983 0.22267 0.0
C58 C 0.59749 0.09336 0.06395 0.0
C59 C 0.87411 0.39904 0.06185 0.0
C60 C 0.93348 0.17806 0.99148 0.0
O61 O 0.85871 0.05542 0.17747 0.0
O62 O 0.76199 -0.00959 0.11262 0.0
O63 O 0.46933 0.12813 0.47701 0.0
Mg64 Mg 0.36992 0.19136 0.49863 0.0
O65 O 0.43503 0.08632 0.39717 0.0
Mg66 Mg 0.30847 0.13874 0.379 0.0
O67 O 0.24561 0.10221 0.45753 0.0
O68 O 0.22992 0.09208 0.53772 0.0
O69 O 0.1866 0.19071 0.36348 0.0
O70 O 0.16615 0.96377 0.36193 0.0
Mg71 Mg 0.25106 0.05707 0.26446 0.0
O72 O 0.37318 0.18532 0.29937 0.0
O73 O 0.1517 0.11971 0.28844 0.0
O74 O 0.13965 0.90372 0.28588 0.0
O75 O 0.3934 0.05019 0.28358 0.0
C76 C 0.47145 0.37837 0.43274 0.0
C77 C 0.48524 0.09203 0.43698 0.0
C78 C 0.19333 0.04909 0.49562 0.0
C79 C 0.1324 0.16501 0.32406 0.0
C80 C 0.11344 0.89038 0.33039 0.0
C81 C 0.42122 0.14687 0.27442 0.0
O82 O 0.42725 0.34734 0.47416 0.0
O83 O 0.44458 0.31361 0.3966 0.0
O84 O 0.84612 0.87318 0.19981 0.0
Mg85 Mg 0.85197 0.74221 0.22666 0.0
O86 O 0.75581 0.79535 0.13236 0.0
Mg87 Mg 0.80063 0.66134 0.1155 0.0
O88 O 0.79199 0.59521 0.1938 0.0
O89 O 0.68199 0.63582 0.22592 0.0
O90 O 0.8442 0.52887 0.09881 0.0
O91 O 0.62786 0.53175 0.09961 0.0
Mg92 Mg 0.79794 0.59785 -0.00088 0.0
O93 O 0.81116 0.72086 0.03736 0.0
O94 O 0.9129 0.55923 0.02515 0.0
O95 O 0.63971 0.48731 0.0215 0.0
O96 O 0.81806 0.72938 0.95721 0.0
C97 C 0.0412 0.81858 0.16043 0.0
C98 C 0.79487 0.87353 0.16254 0.0
C99 C 0.7147 0.56913 0.22327 0.0
C100 C 0.89193 0.50826 0.06505 0.0
C101 C 0.5871 0.47548 0.06084 0.0
C102 C 0.80507 0.76679 -0.00214 0.0
O103 O 0.01188 0.79009 0.20441 0.0
O104 O 0.97459 0.78703 0.12536 0.0
O105 O 0.83698 0.32034 0.47896 0.0
Mg106 Mg 0.77469 0.15902 0.49896 0.0
O107 O 0.86248 0.32445 0.39742 0.0
Mg108 Mg 0.81451 0.15034 0.37803 0.0
O109 O 0.86038 0.12428 0.45453 0.0
O110 O 0.8759 0.11456 0.53415 0.0
O111 O 0.76656 0.97758 0.36606 0.0
O112 O -0.00817 0.19212 0.35609 0.0
Mg113 Mg 0.8364 0.10634 0.26587 0.0
O114 O 0.75763 0.17187 0.29983 0.0
O115 O 0.74112 0.94183 0.28695 0.0
O116 O 0.97613 0.11499 0.28365 0.0
O117 O 0.92155 0.27687 0.28626 0.0
C118 C 0.58001 0.07941 0.43691 0.0
C119 C 0.86382 0.36972 0.43817 0.0
C120 C 0.91823 0.1279 0.49146 0.0
C121 C 0.73887 0.91196 0.33083 0.0
C122 C 0.03063 0.16268 0.32093 0.0
C123 C 0.82698 0.25256 0.27629 0.0
O124 O 0.61445 0.07359 0.47892 0.0
O125 O 0.64084 0.10858 0.39948 0.0
O126 O 0.88818 0.20374 0.68941 0.0
Mg127 Mg 0.04532 0.27267 0.71105 0.0
O128 O 0.95667 0.17802 0.62303 0.0
Mg129 Mg 0.13118 0.31782 0.60451 0.0
O130 O 0.18788 0.38517 0.68403 0.0
O131 O 0.06975 0.43171 0.69562 0.0
O132 O 0.30388 0.44778 0.5857 0.0
O133 O 0.083 0.44826 0.58705 0.0
Mg134 Mg 0.17227 0.3743 0.48461 0.0
O135 O 0.08565 0.25092 0.52665 0.0
O136 O 0.33058 0.43914 0.50625 0.0
O137 O 0.11086 0.47463 0.506 0.0
O138 O 0.07437 0.23248 0.44641 0.0
C139 C 0.13984 0.13328 0.65618 0.0
C140 C 0.87793 0.14869 0.65203 0.0
C141 C 0.15655 0.43867 0.70967 0.0
C142 C 0.36512 0.47725 0.54859 0.0
C143 C 0.08331 0.49571 0.54716 0.0
C144 C 0.03346 0.19591 0.48868 0.0
O145 O 0.08745 0.15094 0.68928 0.0
O146 O 0.18022 0.1949 0.61973 0.0
O147 O 0.23344 0.0406 0.79839 0.0
Mg148 Mg 0.18767 0.88661 0.82832 0.0
O149 O 0.16009 0.0023 0.87007 0.0
Mg150 Mg 0.15276 0.82892 0.87493 0.0
O151 O 0.15682 0.76973 0.78603 0.0
O152 O 0.32047 0.88849 0.79086 0.0
O153 O 0.13559 0.66418 0.88751 0.0
O154 O 0.33276 0.89327 0.88789 0.0
Mg155 Mg 0.16776 0.76625 0.9901 0.0
O156 O 0.14773 0.87304 0.95432 0.0
O157 O 0.05327 0.61931 0.95809 0.0
O158 O 0.32454 0.82154 0.96232 0.0
O159 O 0.15196 0.87996 0.03419 0.0
C160 C 0.94795 0.78319 0.83792 0.0
C161 C 0.19699 0.06646 0.83446 0.0
C162 C 0.24728 0.81622 0.76496 0.0
C163 C 0.08234 0.59336 0.91908 0.0
C164 C 0.37594 0.87284 0.92434 0.0
C165 C 0.16013 0.92813 0.99354 0.0
O166 O 0.02058 0.84439 0.80885 0.0
O167 O 0.97563 0.75171 0.87493 0.0
O168 O 0.8277 0.79466 0.70314 0.0
Mg169 Mg 0.71053 0.82925 0.71975 0.0
O170 O 0.76644 0.75066 0.62759 0.0
Mg171 Mg 0.6378 0.8024 0.60753 0.0
O172 O 0.56952 0.79329 0.68649 0.0
O173 O 0.59327 0.66228 0.70339 0.0
O174 O 0.50942 0.84954 0.58636 0.0
O175 O 0.50707 0.6264 0.59008 0.0
Mg176 Mg 0.58647 0.78871 0.48738 0.0
O177 O 0.70564 0.81936 0.53162 0.0
O178 O 0.51904 0.88254 0.5067 0.0
O179 O 0.48568 0.62933 0.50848 0.0
O180 O 0.72919 0.82536 0.45237 0.0
C181 C 0.79969 0.03525 0.65566 0.0
C182 C 0.82822 0.75479 0.66215 0.0
C183 C 0.54544 0.7132 0.71393 0.0
C184 C 0.48 0.88039 0.54861 0.0
C185 C 0.46263 0.58053 0.54942 0.0
C186 C 0.76029 0.81548 0.4951 0.0
O187 O 0.78295 -0.00652 0.69807 0.0
O188 O 0.76155 0.97872 0.6174 0.0
O189 O 0.92783 0.19299 0.80004 0.0
Mg190 Mg 0.08553 0.30076 0.82709 0.0
O191 O 0.97478 0.15735 0.86954 0.0
Mg192 Mg 0.14756 0.32311 0.87361 0.0
O193 O 0.20341 0.38052 0.78373 0.0
O194 O 0.08894 0.43306 0.78884 0.0
O195 O 0.31368 0.47029 0.88746 0.0
O196 O 0.08344 0.44096 0.88635 0.0
Mg197 Mg 0.2095 0.40333 0.98931 0.0
O198 O 0.10482 0.27627 0.95318 0.0
O199 O 0.35701 0.43445 0.95921 0.0
O200 O 0.15364 0.50479 0.9611 0.0
O201 O 0.09814 0.27542 0.03308 0.0
C202 C 0.18953 0.16307 0.83567 0.0
C203 C 0.90656 0.13021 0.83549 0.0
C204 C 0.16303 0.43247 0.76406 0.0
C205 C 0.3834 0.48909 0.9203 0.0
C206 C 0.10295 0.50492 0.92271 0.0
C207 C 0.05061 0.23407 0.9924 0.0
O208 O 0.12723 0.17533 0.80723 0.0
O209 O 0.22345 0.22209 0.87275 0.0
O210 O 0.07742 0.96704 0.69016 0.0
Mg211 Mg 0.09813 0.84503 0.71661 0.0
O212 O 0.19311 0.00603 0.62978 0.0
Mg213 Mg 0.15367 0.82997 0.6067 0.0
O214 O 0.17689 0.77652 0.68434 0.0
O215 O 0.27022 0.93822 0.70796 0.0
O216 O 0.10975 0.65521 0.58532 0.0
O217 O 0.3305 0.8771 0.5886 0.0
Mg218 Mg 0.16581 0.78928 0.48697 0.0
O219 O 0.13211 0.87791 0.53039 0.0
O220 O 0.07159 0.62977 0.50611 0.0
O221 O 0.32675 0.84746 0.50752 0.0
O222 O 0.12384 0.89069 0.45069 0.0
C223 C 0.91524 0.73253 0.65407 0.0
C224 C 0.13915 0.0316 0.6587 0.0
C225 C 0.2501 0.84285 0.71256 0.0
C226 C 0.07684 0.59409 0.54784 0.0
C227 C 0.37619 0.87552 0.54841 0.0
C228 C 0.13295 0.93318 0.49307 0.0
O229 O 0.95252 0.71321 0.6923 0.0
O230 O 0.97762 0.78124 0.61887 0.0
O231 O 0.7791 0.73359 0.80223 0.0
Mg232 Mg 0.67301 0.78524 0.83042 0.0
O233 O 0.81723 0.81547 0.87201 0.0
Mg234 Mg 0.65165 0.82389 0.87671 0.0
O235 O 0.58783 0.8176 0.78749 0.0
O236 O 0.54127 0.65278 0.79369 0.0
O237 O 0.50513 0.84338 0.88923 0.0
O238 O 0.53547 0.64272 0.88922 0.0
Mg239 Mg 0.57014 0.80588 0.99163 0.0
O240 O 0.69989 0.83009 0.95701 0.0
O241 O 0.53671 0.92102 0.96128 0.0
O242 O 0.46995 0.64822 0.96345 0.0
O243 O 0.69845 0.82701 0.03726 0.0
C244 C 0.81049 0.02598 0.83766 0.0
C245 C 0.84324 0.7746 0.83725 0.0
C246 C 0.53957 0.72501 0.76793 0.0
C247 C 0.48478 0.89426 0.92151 0.0
C248 C 0.47066 0.59803 0.92485 0.0
C249 C 0.74276 0.82221 -0.00278 0.0
O250 O 0.79728 0.95079 0.80928 0.0
O251 O 0.75288 0.00163 0.87511 0.0
loop_
_geom_bond_atom_site_label_1
_geom_bond_atom_site_label_2
_geom_bond_distance
_geom_bond_site_symmetry_2
_ccdc_geom_bond_type
O0 Mg1 1.990 1_565 S
O0 C14 1.253 . S
Mg1 O0 1.990 1_545 S
Mg1 O4 2.180 . S
Mg1 O5 2.117 . S
Mg1 O19 2.030 . S
O2 Mg3 2.072 1_565 S
O2 C14 1.260 . S
Mg3 O2 2.072 1_545 S
Mg3 O4 2.099 . S
Mg3 O6 2.079 . S
Mg3 O7 2.072 . S
Mg3 O9 2.099 . S
Mg3 O20 2.079 . S
O4 Mg1 2.180 . S
O4 Mg3 2.099 . S
O4 C15 1.279 . S
O5 Mg1 2.117 . S
O5 C15 1.250 . S
O6 Mg3 2.079 . S
O6 C16 1.264 . S
O7 Mg3 2.072 . S
O7 C17 1.260 . S
Mg8 O9 2.180 . S
Mg8 O10 2.030 . S
Mg8 O11 1.990 . S
Mg8 O12 2.117 1_554 S
O9 Mg3 2.099 . S
O9 Mg8 2.180 . S
O9 C18 1.279 . S
O10 Mg8 2.030 . S
O10 C16 1.248 . S
O11 Mg8 1.990 . S
O11 C17 1.253 . S
O12 Mg8 2.117 1_556 S
O12 C18 1.250 1_556 S
C13 O19 1.248 . S
C13 O20 1.264 . S
C14 O0 1.253 . S
C14 O2 1.260 . S
C15 O4 1.279 . S
C15 O5 1.250 . S
C16 O6 1.264 . S
C16 O10 1.248 . S
C17 O7 1.260 . S
C17 O11 1.253 . S
C18 O9 1.279 . S
C18 O12 1.250 1_554 S
O19 Mg1 2.030 . S
O19 C13 1.248 . S
O20 Mg3 2.079 . S
O20 C13 1.264 . S
O21 Mg22 1.990 . S
O21 C35 1.253 . S
Mg22 O21 1.990 . S
Mg22 O25 2.180 . S
Mg22 O26 2.117 . S
Mg22 O40 2.030 . S
O23 Mg24 2.072 . S
O23 C35 1.260 . S
Mg24 O23 2.072 . S
Mg24 O25 2.099 . S
Mg24 O27 2.079 . S
Mg24 O28 2.072 . S
Mg24 O30 2.099 . S
Mg24 O41 2.079 . S
O25 Mg22 2.180 . S
O25 Mg24 2.099 . S
O25 C36 1.279 . S
O26 Mg22 2.117 . S
O26 C36 1.250 . S
O27 Mg24 2.079 . S
O27 C37 1.264 1_655 S
O28 Mg24 2.072 . S
O28 C38 1.260 . S
Mg29 O30 2.180 . S
Mg29 O31 2.030 1_655 S
Mg29 O32 1.990 . S
Mg29 O33 2.117 . S
O30 Mg24 2.099 . S
O30 Mg29 2.180 . S
O30 C39 1.279 . S
O31 Mg29 2.030 1_455 S
O31 C37 1.248 . S
O32 Mg29 1.990 . S
O32 C38 1.253 . S
O33 Mg29 2.117 . S
O33 C39 1.250 . S
C34 O40 1.248 . S
C34 O41 1.264 . S
C35 O21 1.253 . S
C35 O23 1.260 . S
C36 O25 1.279 . S
C36 O26 1.250 . S
C37 O27 1.264 1_455 S
C37 O31 1.248 . S
C38 O28 1.260 . S
C38 O32 1.253 . S
C39 O30 1.279 . S
C39 O33 1.250 . S
O40 Mg22 2.030 . S
O40 C34 1.248 . S
O41 Mg24 2.079 . S
O41 C34 1.264 . S
O42 Mg43 1.990 1_455 S
O42 C56 1.253 . S
Mg43 O42 1.990 1_655 S
Mg43 O46 2.180 . S
Mg43 O47 2.117 . S
Mg43 O61 2.030 1_545 S
O44 Mg45 2.072 1_455 S
O44 C56 1.260 . S
Mg45 O44 2.072 1_655 S
Mg45 O46 2.099 . S
Mg45 O48 2.079 . S
Mg45 O49 2.072 . S
Mg45 O51 2.099 . S
Mg45 O62 2.079 . S
O46 Mg43 2.180 . S
O46 Mg45 2.099 . S
O46 C57 1.279 . S
O47 Mg43 2.117 . S
O47 C57 1.250 . S
O48 Mg45 2.079 . S
O48 C58 1.264 . S
O49 Mg45 2.072 . S
O49 C59 1.260 . S
Mg50 O51 2.180 . S
Mg50 O52 2.030 . S
Mg50 O53 1.990 . S
Mg50 O54 2.117 1_554 S
O51 Mg45 2.099 . S
O51 Mg50 2.180 . S
O51 C60 1.279 . S
O52 Mg50 2.030 . S
O52 C58 1.248 . S
O53 Mg50 1.990 . S
O53 C59 1.253 . S
O54 Mg50 2.117 1_556 S
O54 C60 1.250 1_556 S
C55 O61 1.248 . S
C55 O62 1.264 1_565 S
C56 O42 1.253 . S
C56 O44 1.260 . S
C57 O46 1.279 . S
C57 O47 1.250 . S
C58 O48 1.264 . S
C58 O52 1.248 . S
C59 O49 1.260 . S
C59 O53 1.253 . S
C60 O51 1.279 . S
C60 O54 1.250 1_554 S
O61 Mg43 2.030 1_565 S
O61 C55 1.248 . S
O62 Mg45 2.079 . S
O62 C55 1.264 1_545 S
O63 Mg64 1.990 . S
O63 C77 1.253 . S
Mg64 O63 1.990 . S
Mg64 O67 2.180 . S
Mg64 O68 2.117 . S
Mg64 O82 2.030 . S
O65 Mg66 2.072 . S
O65 C77 1.260 . S
Mg66 O65 2.072 . S
Mg66 O67 2.099 . S
Mg66 O69 2.079 . S
Mg66 O70 2.072 1_545 S
Mg66 O72 2.099 . S
Mg66 O83 2.079 . S
O67 Mg64 2.180 . S
O67 Mg66 2.099 . S
O67 C78 1.279 . S
O68 Mg64 2.117 . S
O68 C78 1.250 . S
O69 Mg66 2.079 . S
O69 C79 1.264 . S
O70 Mg66 2.072 1_565 S
O70 C80 1.260 . S
Mg71 O72 2.180 . S
Mg71 O73 2.030 . S
Mg71 O74 1.990 1_545 S
Mg71 O75 2.117 . S
O72 Mg66 2.099 . S
O72 Mg71 2.180 . S
O72 C81 1.279 . S
O73 Mg71 2.030 . S
O73 C79 1.248 . S
O74 Mg71 1.990 1_565 S
O74 C80 1.253 . S
O75 Mg71 2.117 . S
O75 C81 1.250 . S
C76 O82 1.248 . S
C76 O83 1.264 . S
C77 O63 1.253 . S
C77 O65 1.260 . S
C78 O67 1.279 . S
C78 O68 1.250 . S
C79 O69 1.264 . S
C79 O73 1.248 . S
C80 O70 1.260 . S
C80 O74 1.253 . S
C81 O72 1.279 . S
C81 O75 1.250 . S
O82 Mg64 2.030 . S
O82 C76 1.248 . S
O83 Mg66 2.079 . S
O83 C76 1.264 . S
O84 Mg85 1.990 . S
O84 C98 1.253 . S
Mg85 O84 1.990 . S
Mg85 O88 2.180 . S
Mg85 O89 2.117 . S
Mg85 O103 2.030 1_655 S
O86 Mg87 2.072 . S
O86 C98 1.260 . S
Mg87 O86 2.072 . S
Mg87 O88 2.099 . S
Mg87 O90 2.079 . S
Mg87 O91 2.072 . S
Mg87 O93 2.099 . S
Mg87 O104 2.079 . S
O88 Mg85 2.180 . S
O88 Mg87 2.099 . S
O88 C99 1.279 . S
O89 Mg85 2.117 . S
O89 C99 1.250 . S
O90 Mg87 2.079 . S
O90 C100 1.264 . S
O91 Mg87 2.072 . S
O91 C101 1.260 . S
Mg92 O93 2.180 . S
Mg92 O94 2.030 . S
Mg92 O95 1.990 . S
Mg92 O96 2.117 1_554 S
O93 Mg87 2.099 . S
O93 Mg92 2.180 . S
O93 C102 1.279 . S
O94 Mg92 2.030 . S
O94 C100 1.248 . S
O95 Mg92 1.990 . S
O95 C101 1.253 . S
O96 Mg92 2.117 1_556 S
O96 C102 1.250 1_556 S
C97 O103 1.248 . S
C97 O104 1.264 1_455 S
C98 O84 1.253 . S
C98 O86 1.260 . S
C99 O88 1.279 . S
C99 O89 1.250 . S
C100 O90 1.264 . S
C100 O94 1.248 . S
C101 O91 1.260 . S
C101 O95 1.253 . S
C102 O93 1.279 . S
C102 O96 1.250 1_554 S
O103 Mg85 2.030 1_455 S
O103 C97 1.248 . S
O104 Mg87 2.079 . S
O104 C97 1.264 1_655 S
O105 Mg106 1.990 . S
O105 C119 1.253 . S
Mg106 O105 1.990 . S
Mg106 O109 2.180 . S
Mg106 O110 2.117 . S
Mg106 O124 2.030 . S
O107 Mg108 2.072 . S
O107 C119 1.260 . S
Mg108 O107 2.072 . S
Mg108 O109 2.099 . S
Mg108 O111 2.079 . S
Mg108 O112 2.072 1_655 S
Mg108 O114 2.099 . S
Mg108 O125 2.079 . S
O109 Mg106 2.180 . S
O109 Mg108 2.099 . S
O109 C120 1.279 . S
O110 Mg106 2.117 . S
O110 C120 1.250 . S
O111 Mg108 2.079 . S
O111 C121 1.264 1_545 S
O112 Mg108 2.072 1_455 S
O112 C122 1.260 . S
Mg113 O114 2.180 . S
Mg113 O115 2.030 1_545 S
Mg113 O116 1.990 1_655 S
Mg113 O117 2.117 . S
O114 Mg108 2.099 . S
O114 Mg113 2.180 . S
O114 C123 1.279 . S
O115 Mg113 2.030 1_565 S
O115 C121 1.248 . S
O116 Mg113 1.990 1_455 S
O116 C122 1.253 . S
O117 Mg113 2.117 . S
O117 C123 1.250 . S
C118 O124 1.248 . S
C118 O125 1.264 . S
C119 O105 1.253 . S
C119 O107 1.260 . S
C120 O109 1.279 . S
C120 O110 1.250 . S
C121 O111 1.264 1_565 S
C121 O115 1.248 . S
C122 O112 1.260 . S
C122 O116 1.253 . S
C123 O114 1.279 . S
C123 O117 1.250 . S
O124 Mg106 2.030 . S
O124 C118 1.248 . S
O125 Mg108 2.079 . S
O125 C118 1.264 . S
O126 Mg127 1.990 1_655 S
O126 C140 1.253 . S
Mg127 O126 1.990 1_455 S
Mg127 O130 2.180 . S
Mg127 O131 2.117 . S
Mg127 O145 2.030 . S
O128 Mg129 2.072 1_655 S
O128 C140 1.260 . S
Mg129 O128 2.072 1_455 S
Mg129 O130 2.099 . S
Mg129 O132 2.079 . S
Mg129 O133 2.072 . S
Mg129 O135 2.099 . S
Mg129 O146 2.079 . S
O130 Mg127 2.180 . S
O130 Mg129 2.099 . S
O130 C141 1.279 . S
O131 Mg127 2.117 . S
O131 C141 1.250 . S
O132 Mg129 2.079 . S
O132 C142 1.264 . S
O133 Mg129 2.072 . S
O133 C143 1.260 . S
Mg134 O135 2.180 . S
Mg134 O136 2.030 . S
Mg134 O137 1.990 . S
Mg134 O138 2.117 . S
O135 Mg129 2.099 . S
O135 Mg134 2.180 . S
O135 C144 1.279 . S
O136 Mg134 2.030 . S
O136 C142 1.248 . S
O137 Mg134 1.990 . S
O137 C143 1.253 . S
O138 Mg134 2.117 . S
O138 C144 1.250 . S
C139 O145 1.248 . S
C139 O146 1.264 . S
C140 O126 1.253 . S
C140 O128 1.260 . S
C141 O130 1.279 . S
C141 O131 1.250 . S
C142 O132 1.264 . S
C142 O136 1.248 . S
C143 O133 1.260 . S
C143 O137 1.253 . S
C144 O135 1.279 . S
C144 O138 1.250 . S
O145 Mg127 2.030 . S
O145 C139 1.248 . S
O146 Mg129 2.079 . S
O146 C139 1.264 . S
O147 Mg148 1.990 1_545 S
O147 C161 1.253 . S
Mg148 O147 1.990 1_565 S
Mg148 O151 2.180 . S
Mg148 O152 2.117 . S
Mg148 O166 2.030 1_455 S
O149 Mg150 2.072 1_545 S
O149 C161 1.260 . S
Mg150 O149 2.072 1_565 S
Mg150 O151 2.099 . S
Mg150 O153 2.079 . S
Mg150 O154 2.072 . S
Mg150 O156 2.099 . S
Mg150 O167 2.079 . S
O151 Mg148 2.180 . S
O151 Mg150 2.099 . S
O151 C162 1.279 . S
O152 Mg148 2.117 . S
O152 C162 1.250 . S
O153 Mg150 2.079 . S
O153 C163 1.264 . S
O154 Mg150 2.072 . S
O154 C164 1.260 . S
Mg155 O156 2.180 . S
Mg155 O157 2.030 . S
Mg155 O158 1.990 . S
Mg155 O159 2.117 1_556 S
O156 Mg150 2.099 . S
O156 Mg155 2.180 . S
O156 C165 1.279 . S
O157 Mg155 2.030 . S
O157 C163 1.248 . S
O158 Mg155 1.990 . S
O158 C164 1.253 . S
O159 Mg155 2.117 1_554 S
O159 C165 1.250 1_554 S
C160 O166 1.248 . S
C160 O167 1.264 1_655 S
C161 O147 1.253 . S
C161 O149 1.260 . S
C162 O151 1.279 . S
C162 O152 1.250 . S
C163 O153 1.264 . S
C163 O157 1.248 . S
C164 O154 1.260 . S
C164 O158 1.253 . S
C165 O156 1.279 . S
C165 O159 1.250 1_556 S
O166 Mg148 2.030 1_655 S
O166 C160 1.248 . S
O167 Mg150 2.079 . S
O167 C160 1.264 1_455 S
O168 Mg169 1.990 . S
O168 C182 1.253 . S
Mg169 O168 1.990 . S
Mg169 O172 2.180 . S
Mg169 O173 2.117 . S
Mg169 O187 2.030 1_565 S
O170 Mg171 2.072 . S
O170 C182 1.260 . S
Mg171 O170 2.072 . S
Mg171 O172 2.099 . S
Mg171 O174 2.079 . S
Mg171 O175 2.072 . S
Mg171 O177 2.099 . S
Mg171 O188 2.079 . S
O172 Mg169 2.180 . S
O172 Mg171 2.099 . S
O172 C183 1.279 . S
O173 Mg169 2.117 . S
O173 C183 1.250 . S
O174 Mg171 2.079 . S
O174 C184 1.264 . S
O175 Mg171 2.072 . S
O175 C185 1.260 . S
Mg176 O177 2.180 . S
Mg176 O178 2.030 . S
Mg176 O179 1.990 . S
Mg176 O180 2.117 . S
O177 Mg171 2.099 . S
O177 Mg176 2.180 . S
O177 C186 1.279 . S
O178 Mg176 2.030 . S
O178 C184 1.248 . S
O179 Mg176 1.990 . S
O179 C185 1.253 . S
O180 Mg176 2.117 . S
O180 C186 1.250 . S
C181 O187 1.248 . S
C181 O188 1.264 1_545 S
C182 O168 1.253 . S
C182 O170 1.260 . S
C183 O172 1.279 . S
C183 O173 1.250 . S
C184 O174 1.264 . S
C184 O178 1.248 . S
C185 O175 1.260 . S
C185 O179 1.253 . S
C186 O177 1.279 . S
C186 O180 1.250 . S
O187 Mg169 2.030 1_545 S
O187 C181 1.248 . S
O188 Mg171 2.079 . S
O188 C181 1.264 1_565 S
O189 Mg190 1.990 1_655 S
O189 C203 1.253 . S
Mg190 O189 1.990 1_455 S
Mg190 O193 2.180 . S
Mg190 O194 2.117 . S
Mg190 O208 2.030 . S
O191 Mg192 2.072 1_655 S
O191 C203 1.260 . S
Mg192 O191 2.072 1_455 S
Mg192 O193 2.099 . S
Mg192 O195 2.079 . S
Mg192 O196 2.072 . S
Mg192 O198 2.099 . S
Mg192 O209 2.079 . S
O193 Mg190 2.180 . S
O193 Mg192 2.099 . S
O193 C204 1.279 . S
O194 Mg190 2.117 . S
O194 C204 1.250 . S
O195 Mg192 2.079 . S
O195 C205 1.264 . S
O196 Mg192 2.072 . S
O196 C206 1.260 . S
Mg197 O198 2.180 . S
Mg197 O199 2.030 . S
Mg197 O200 1.990 . S
Mg197 O201 2.117 1_556 S
O198 Mg192 2.099 . S
O198 Mg197 2.180 . S
O198 C207 1.279 . S
O199 Mg197 2.030 . S
O199 C205 1.248 . S
O200 Mg197 1.990 . S
O200 C206 1.253 . S
O201 Mg197 2.117 1_554 S
O201 C207 1.250 1_554 S
C202 O208 1.248 . S
C202 O209 1.264 . S
C203 O189 1.253 . S
C203 O191 1.260 . S
C204 O193 1.279 . S
C204 O194 1.250 . S
C205 O195 1.264 . S
C205 O199 1.248 . S
C206 O196 1.260 . S
C206 O200 1.253 . S
C207 O198 1.279 . S
C207 O201 1.250 1_556 S
O208 Mg190 2.030 . S
O208 C202 1.248 . S
O209 Mg192 2.079 . S
O209 C202 1.264 . S
O210 Mg211 1.990 1_545 S
O210 C224 1.253 . S
Mg211 O210 1.990 1_565 S
Mg211 O214 2.180 . S
Mg211 O215 2.117 . S
Mg211 O229 2.030 1_455 S
O212 Mg213 2.072 1_545 S
O212 C224 1.260 . S
Mg213 O212 2.072 1_565 S
Mg213 O214 2.099 . S
Mg213 O216 2.079 . S
Mg213 O217 2.072 . S
Mg213 O219 2.099 . S
Mg213 O230 2.079 . S
O214 Mg211 2.180 . S
O214 Mg213 2.099 . S
O214 C225 1.279 . S
O215 Mg211 2.117 . S
O215 C225 1.250 . S
O216 Mg213 2.079 . S
O216 C226 1.264 . S
O217 Mg213 2.072 . S
O217 C227 1.260 . S
Mg218 O219 2.180 . S
Mg218 O220 2.030 . S
Mg218 O221 1.990 . S
Mg218 O222 2.117 . S
O219 Mg213 2.099 . S
O219 Mg218 2.180 . S
O219 C228 1.279 . S
O220 Mg218 2.030 . S
O220 C226 1.248 . S
O221 Mg218 1.990 . S
O221 C227 1.253 . S
O222 Mg218 2.117 . S
O222 C228 1.250 . S
C223 O229 1.248 . S
C223 O230 1.264 1_655 S
C224 O210 1.253 . S
C224 O212 1.260 . S
C225 O214 1.279 . S
C225 O215 1.250 . S
C226 O216 1.264 . S
C226 O220 1.248 . S
C227 O217 1.260 . S
C227 O221 1.253 . S
C228 O219 1.279 . S
C228 O222 1.250 . S
O229 Mg211 2.030 1_655 S
O229 C223 1.248 . S
O230 Mg213 2.079 . S
O230 C223 1.264 1_455 S
O231 Mg232 1.990 . S
O231 C245 1.253 . S
Mg232 O231 1.990 . S
Mg232 O235 2.180 . S
Mg232 O236 2.117 . S
Mg232 O250 2.030 1_565 S
O233 Mg234 2.072 . S
O233 C245 1.260 . S
Mg234 O233 2.072 . S
Mg234 O235 2.099 . S
Mg234 O237 2.079 . S
Mg234 O238 2.072 . S
Mg234 O240 2.099 . S
Mg234 O251 2.079 . S
O235 Mg232 2.180 . S
O235 Mg234 2.099 . S
O235 C246 1.279 . S
O236 Mg232 2.117 . S
O236 C246 1.250 . S
O237 Mg234 2.079 . S
O237 C247 1.264 . S
O238 Mg234 2.072 . S
O238 C248 1.260 . S
Mg239 O240 2.180 . S
Mg239 O241 2.030 . S
Mg239 O242 1.990 . S
Mg239 O243 2.117 1_556 S
O240 Mg234 2.099 . S
O240 Mg239 2.180 . S
O240 C249 1.279 . S
O241 Mg239 2.030 . S
O241 C247 1.248 . S
O242 Mg239 1.990 . S
O242 C248 1.253 . S
O243 Mg239 2.117 1_554 S
O243 C249 1.250 1_554 S
C244 O250 1.248 . S
C244 O251 1.264 1_545 S
C245 O231 1.253 . S
C245 O233 1.260 . S
C246 O235 1.279 . S
C246 O236 1.250 . S
C247 O237 1.264 . S
C247 O241 1.248 . S
C248 O238 1.260 . S
C248 O242 1.253 . S
C249 O240 1.279 . S
C249 O243 1.250 1_556 S
O250 Mg232 2.030 1_545 S
O250 C244 1.248 . S
O251 Mg234 2.079 . S
O251 C244 1.264 1_565 S
C56 C13 1.066 . S
C80 C37 1.066 . S
C55 C98 1.066 . S
C79 C122 1.066 . S
C14 C97 1.066 . S
C38 C121 1.066 . S
C224 C139 1.066 . S
C160 C245 1.066 . S
C181 C140 1.066 . S
C202 C161 1.066 . S
C223 C182 1.066 . S
C203 C244 1.066 . S
C81 C15 0.765 . S
C39 C99 0.765 . S
C57 C123 0.765 . S
C141 C204 0.765 . S
C162 C225 0.765 . S
C183 C246 0.765 . S
C165 C18 2.313 1_566 S
C36 C186 2.313 . S
C207 C60 2.313 1_456 S
C78 C228 2.313 1_545 S
C102 C249 2.313 1_554 S
C144 C120 2.313 1_455 S
C58 C17 1.261 . S
C35 C76 1.261 . S
C59 C100 1.261 . S
C77 C118 1.261 . S
C16 C101 1.261 . S
C34 C119 1.261 . S
C226 C143 1.261 . S
C164 C247 1.261 . S
C185 C142 1.261 . S
C163 C206 1.261 . S
C227 C184 1.261 . S
C248 C205 1.261 . S
