# Generated by pormake.
# Topology afw, (4)-cn, num edge types: 1
# Building blocks:
#     Node 0, Type 0, BuildingBlock: KUFVIS_clean_sbu_0, # of connection points: 4
#     Node 1, Type 0, BuildingBlock: KUFVIS_clean_sbu_0, # of connection points: 4
#     Node 2, Type 0, BuildingBlock: KUFVIS_clean_sbu_0, # of connection points: 4
#     Node 3, Type 0, BuildingBlock: KUFVIS_clean_sbu_0, # of connection points: 4
#     Node 4, Type 0, BuildingBlock: KUFVIS_clean_sbu_0, # of connection points: 4
#     Node 5, Type 0, BuildingBlock: KUFVIS_clean_sbu_0, # of connection points: 4
#     Node 6, Type 0, BuildingBlock: KUFVIS_clean_sbu_0, # of connection points: 4
#     Node 7, Type 0, BuildingBlock: KUFVIS_clean_sbu_0, # of connection points: 4
#     Node 8, Type 0, BuildingBlock: KUFVIS_clean_sbu_0, # of connection points: 4
#     Edge 9, Type (0, 0), BuildingBlock: UVAHIK_clean_linker_0, # of connection points: 2
#     Edge 10, Type (0, 0), BuildingBlock: UVAHIK_clean_linker_0, # of connection points: 2
#     Edge 11, Type (0, 0), BuildingBlock: UVAHIK_clean_linker_0, # of connection points: 2
#     Edge 12, Type (0, 0), BuildingBlock: UVAHIK_clean_linker_0, # of connection points: 2
#     Edge 13, Type (0, 0), BuildingBlock: UVAHIK_clean_linker_0, # of connection points: 2
#     Edge 14, Type (0, 0), BuildingBlock: UVAHIK_clean_linker_0, # of connection points: 2
#     Edge 15, Type (0, 0), BuildingBlock: UVAHIK_clean_linker_0, # of connection points: 2
#     Edge 16, Type (0, 0), BuildingBlock: UVAHIK_clean_linker_0, # of connection points: 2
#     Edge 17, Type (0, 0), BuildingBlock: UVAHIK_clean_linker_0, # of connection points: 2
#     Edge 18, Type (0, 0), BuildingBlock: UVAHIK_clean_linker_0, # of connection points: 2
#     Edge 19, Type (0, 0), BuildingBlock: UVAHIK_clean_linker_0, # of connection points: 2
#     Edge 20, Type (0, 0), BuildingBlock: UVAHIK_clean_linker_0, # of connection points: 2
#     Edge 21, Type (0, 0), BuildingBlock: UVAHIK_clean_linker_0, # of connection points: 2
#     Edge 22, Type (0, 0), BuildingBlock: UVAHIK_clean_linker_0, # of connection points: 2
#     Edge 23, Type (0, 0), BuildingBlock: UVAHIK_clean_linker_0, # of connection points: 2
#     Edge 24, Type (0, 0), BuildingBlock: UVAHIK_clean_linker_0, # of connection points: 2
#     Edge 25, Type (0, 0), BuildingBlock: UVAHIK_clean_linker_0, # of connection points: 2
#     Edge 26, Type (0, 0), BuildingBlock: UVAHIK_clean_linker_0, # of connection points: 2
# Relax obj value: 0.208
# Max RMSD: 0.224
# Mean RMSD: 0.211
data_MOF--net-afw--node1-KUFVIS_clean_sbu_0--edge1-UVAHIK_clean_linker_0
_symmetry_space_group_name_H-M    P1
_symmetry_Int_Tables_number       1
_symmetry_cell_setting            triclinic
loop_
_symmetry_equiv_pos_as_xyz
'x, y, z'
_cell_length_a     53.746258
_cell_length_b     55.343066
_cell_length_c     41.889423
_cell_angle_alpha  90.968598
_cell_angle_beta   90.297182
_cell_angle_gamma 119.55672
loop_
_atom_site_label
_atom_site_type_symbol
_atom_site_fract_x
_atom_site_fract_y
_atom_site_fract_z
_atom_type_partial_charge
Mn0 Mn 0.02823 0.20565 0.02568 0.0
Mn1 Mn 0.09153 0.25315 0.05861 0.0
C2 C 0.06968 0.20533 0.01216 0.0
C3 C 0.98614 0.16319 0.02793 0.0
C4 C 0.06048 0.26621 0.00678 0.0
O5 O 0.01688 0.22139 0.06368 0.0
O6 O 0.06016 0.24796 0.0873 0.0
C7 C 0.09312 0.22259 0.1152 0.0
N8 N 0.10527 0.23612 0.08786 0.0
C9 C 0.14606 0.22981 0.09581 0.0
C10 C 0.13411 0.21603 0.12422 0.0
C11 C 0.10747 0.21232 0.13389 0.0
C12 C 0.1308 0.23966 0.07822 0.0
H13 H 0.0726 0.21959 0.12263 0.0
C14 C 0.03283 0.23667 0.08676 0.0
O15 O 0.9878 0.18312 0.01054 0.0
O16 O 0.00874 0.16805 0.04436 0.0
N17 N 0.12365 0.25966 0.03318 0.0
C18 C 0.13125 0.27166 0.00409 0.0
C19 C 0.15681 0.27582 0.99033 0.0
C20 C 0.17437 0.26782 0.00669 0.0
C21 C 0.16621 0.25572 0.0367 0.0
C22 C 0.14057 0.25218 0.04929 0.0
H23 H 0.11789 0.27792 0.99143 0.0
O24 O 0.04721 0.19303 0.99364 0.0
O25 O 0.06696 0.2169 0.03809 0.0
O26 O 0.04054 0.24134 0.00154 0.0
O27 O 0.07974 0.27294 0.02844 0.0
C28 C 0.18229 0.24661 0.05438 0.0
C29 C 0.1722 0.23364 0.0839 0.0
H30 H 0.14504 0.20796 0.13862 0.0
H31 H 0.09801 0.20153 0.15567 0.0
H32 H 0.16294 0.28515 0.96714 0.0
H33 H 0.19397 0.2709 0.9959 0.0
H34 H 0.2022 0.24905 0.04525 0.0
H35 H 0.1845 0.22628 0.097 0.0
Mn36 Mn 0.80481 0.83537 0.00838 0.0
Mn37 Mn 0.81841 0.78554 0.98013 0.0
C38 C 0.85016 0.84103 0.01247 0.0
C39 C 0.80312 0.87628 0.00242 0.0
C40 C 0.78783 0.78088 0.04206 0.0
O41 O 0.77055 0.81237 0.97888 0.0
O42 O 0.7826 0.78089 0.96063 0.0
C43 C 0.82996 0.80295 0.91292 0.0
N44 N 0.83862 0.79712 0.94095 0.0
C45 C 0.88361 0.80658 0.91859 0.0
C46 C 0.87511 0.81251 0.88941 0.0
C47 C 0.84819 0.81073 0.88659 0.0
C48 C 0.86445 0.79871 0.94392 0.0
H49 H 0.80933 0.8017 0.91072 0.0
C50 C 0.76586 0.7912 0.96167 0.0
O51 O 0.78878 0.85883 0.02452 0.0
O52 O 0.8168 0.86902 0.98253 0.0
N53 N 0.85267 0.78787 -0.00288 0.0
C54 C 0.85833 0.7832 0.02744 0.0
C55 C 0.88483 0.78517 0.03462 0.0
C56 C 0.90514 0.79174 0.01054 0.0
C57 C 0.89871 0.79616 0.97944 0.0
C58 C 0.87186 0.7937 0.97365 0.0
H59 H 0.84282 0.77825 0.04606 0.0
O60 O 0.84238 0.85468 0.03158 0.0
O61 O 0.83116 0.82439 0.99166 0.0
O62 O 0.78908 0.80447 0.04117 0.0
O63 O 0.79808 0.77185 0.02053 0.0
C64 C 0.91813 0.80355 0.95414 0.0
C65 C 0.91059 0.80876 0.92374 0.0
H66 H 0.88919 0.81872 0.86911 0.0
H67 H 0.84154 0.81542 0.8642 0.0
H68 H 0.88965 0.78178 0.05869 0.0
H69 H 0.92568 0.79356 0.01626 0.0
H70 H 0.9391 0.80572 0.95794 0.0
H71 H 0.92587 0.81483 0.90461 0.0
Mn72 Mn 0.1986 0.00854 0.99329 0.0
Mn73 Mn 0.18189 0.94613 0.02315 0.0
C74 C 0.15257 0.9722 0.98865 0.0
C75 C 0.20489 0.05292 -0.00086 0.0
C76 C 0.21328 0.96743 0.96114 0.0
O77 O 0.2319 0.01765 0.02316 0.0
O78 O 0.21764 0.97563 0.04413 0.0
C79 C 0.16889 0.95515 0.08945 0.0
N80 N 0.16064 0.94023 0.06144 0.0
C81 C 0.11443 0.90851 0.08238 0.0
C82 C 0.12251 0.92343 0.11152 0.0
C83 C 0.14984 0.94687 0.11504 0.0
C84 C 0.1344 0.91762 0.05781 0.0
H85 H 0.18982 0.97326 0.09222 0.0
C86 C 0.2351 0.00179 0.04246 0.0
O87 O 0.21775 0.04689 0.97686 0.0
O88 O 0.18892 0.03332 0.01845 0.0
N89 N 0.14751 0.9159 0.00531 0.0
C90 C 0.14238 0.9049 0.97506 0.0
C91 C 0.11561 0.88191 0.96723 0.0
C92 C 0.09448 0.87036 0.9906 0.0
C93 C 0.10035 0.88186 0.02164 0.0
C94 C 0.12749 0.90466 0.02811 0.0
H95 H 0.1585 0.91373 0.95696 0.0
O96 O 0.16155 0.99303 0.96959 0.0
O97 O 0.17072 0.97342 0.01016 0.0
O98 O 0.21274 0.99015 0.96145 0.0
O99 O 0.20307 0.94978 0.98339 0.0
C100 C 0.08013 0.87198 0.04623 0.0
C101 C 0.08714 0.88533 0.07655 0.0
H102 H 0.10782 0.91723 0.13125 0.0
H103 H 0.15618 0.95858 0.13739 0.0
H104 H 0.11122 0.87317 0.9432 0.0
H105 H 0.07376 0.8528 0.98438 0.0
H106 H 0.05897 0.85439 0.04192 0.0
H107 H 0.07126 0.87781 0.09511 0.0
Mn108 Mn 0.6784 0.53411 0.32172 0.0
Mn109 Mn 0.73947 0.58646 0.35354 0.0
C110 C 0.7214 0.53593 0.31181 0.0
C111 C 0.63834 0.49047 0.327 0.0
C112 C 0.70791 0.59293 0.2969 0.0
O113 O 0.66463 0.55084 0.35615 0.0
O114 O 0.70663 0.58154 0.37965 0.0
C115 C 0.74162 0.56179 0.41491 0.0
N116 N 0.75392 0.57328 0.38672 0.0
C117 C 0.79571 0.56975 0.39945 0.0
C118 C 0.78357 0.55803 0.42871 0.0
C119 C 0.75638 0.554 0.43644 0.0
C120 C 0.78009 0.57731 0.37907 0.0
H121 H 0.72068 0.55856 0.42088 0.0
C122 C 0.67922 0.56853 0.37819 0.0
O123 O 0.63849 0.50801 0.30667 0.0
O124 O 0.66118 0.49841 0.34443 0.0
N125 N 0.77282 0.59295 0.33055 0.0
C126 C 0.78056 0.60256 0.30043 0.0
C127 C 0.80669 0.60667 0.28847 0.0
C128 C 0.82465 0.601 0.30762 0.0
C129 C 0.81632 0.5913 0.33861 0.0
C130 C 0.79013 0.58778 0.34933 0.0
H131 H 0.76682 0.6069 0.28557 0.0
O132 O 0.6994 0.52123 0.29326 0.0
O133 O 0.71734 0.5486 0.33591 0.0
O134 O 0.68899 0.5674 0.29338 0.0
O135 O 0.72678 0.60221 0.31929 0.0
C136 C 0.8327 0.58442 0.35902 0.0
C137 C 0.82239 0.57361 0.3894 0.0
H138 H 0.79479 0.5518 0.44528 0.0
H139 H 0.74681 0.54483 0.4589 0.0
H140 H 0.81293 0.61409 0.2645 0.0
H141 H 0.84467 0.60395 0.2982 0.0
H142 H 0.85305 0.58692 0.35137 0.0
H143 H 0.83495 0.56794 0.40464 0.0
Mn144 Mn 0.49348 0.15942 0.33325 0.0
Mn145 Mn 0.50542 0.10922 0.30262 0.0
C146 C 0.53871 0.16455 0.33514 0.0
C147 C 0.49104 0.2 0.32764 0.0
C148 C 0.47668 0.10462 0.36597 0.0
O149 O 0.45834 0.13665 0.30492 0.0
O150 O 0.46974 0.10554 0.28391 0.0
C151 C 0.51656 0.12766 0.23575 0.0
N152 N 0.5253 0.1212 0.2633 0.0
C153 C 0.57006 0.13081 0.24012 0.0
C154 C 0.56146 0.13739 0.21142 0.0
C155 C 0.53461 0.13585 0.20926 0.0
C156 C 0.55108 0.1226 0.26565 0.0
H157 H 0.49601 0.12664 0.23404 0.0
C158 C 0.45328 0.11609 0.2864 0.0
O159 O 0.47789 0.18294 0.3505 0.0
O160 O 0.50455 0.19289 0.30735 0.0
N161 N 0.53957 0.11072 0.31869 0.0
C162 C 0.54525 0.10513 0.34857 0.0
C163 C 0.57161 0.10654 0.35502 0.0
C164 C 0.59177 0.11353 0.33069 0.0
C165 C 0.58531 0.11889 0.30005 0.0
C166 C 0.55858 0.11691 0.29495 0.0
H167 H 0.52988 0.09984 0.36738 0.0
O168 O 0.53188 0.17859 0.35483 0.0
O169 O 0.51894 0.14804 0.31498 0.0
O170 O 0.47878 0.1286 0.3661 0.0
O171 O 0.48547 0.09523 0.34324 0.0
C172 C 0.60457 0.12668 0.27455 0.0
C173 C 0.59695 0.13265 0.24461 0.0
H174 H 0.5754 0.1439 0.19101 0.0
H175 H 0.52789 0.14104 0.18724 0.0
H176 H 0.57645 0.1024 0.37874 0.0
H177 H 0.61221 0.11492 0.33586 0.0
H178 H 0.62545 0.12852 0.27783 0.0
H179 H 0.6121 0.13899 0.22532 0.0
Mn180 Mn 0.87699 0.35735 0.34062 0.0
Mn181 Mn 0.93487 0.41707 0.31887 0.0
C182 C 0.87385 0.39705 0.33582 0.0
C183 C 0.83643 0.31531 0.32824 0.0
C184 C 0.9267 0.39452 0.38565 0.0
O185 O 0.90309 0.34411 0.32275 0.0
O186 O 0.93978 0.38469 0.30684 0.0
C187 C 0.92789 0.40821 0.24875 0.0
N188 N 0.93055 0.424 0.27521 0.0
C189 C 0.92802 0.4586 0.24349 0.0
C190 C 0.92548 0.44281 0.21588 0.0
C191 C 0.92536 0.41748 0.21854 0.0
C192 C 0.93066 0.44839 0.27293 0.0
H193 H 0.92765 0.38866 0.25067 0.0
C194 C 0.92716 0.35821 0.3094 0.0
O195 O 0.84976 0.31961 0.35547 0.0
O196 O 0.84722 0.33519 0.30781 0.0
N197 N 0.93293 0.45004 0.32848 0.0
C198 C 0.93402 0.46206 0.35751 0.0
C199 C 0.93351 0.48718 0.35908 0.0
C200 C 0.93211 0.49979 0.33082 0.0
C201 C 0.93137 0.48722 0.30122 0.0
C202 C 0.93216 0.4623 0.30113 0.0
H203 H 0.9349 0.45239 0.37931 0.0
O204 O 0.85563 0.37676 0.35294 0.0
O205 O 0.89318 0.39338 0.32146 0.0
O206 O 0.90247 0.37307 0.38021 0.0
O207 O 0.94093 0.41218 0.36439 0.0
C208 C 0.92923 0.49813 0.27183 0.0
C209 C 0.92752 0.48381 0.243 0.0
H210 H 0.92336 0.4498 0.19255 0.0
H211 H 0.92325 0.4051 0.19736 0.0
H212 H 0.93403 0.49671 0.38202 0.0
H213 H 0.93138 0.51899 0.33215 0.0
H214 H 0.92846 0.51731 0.27117 0.0
H215 H 0.92549 0.49221 0.22058 0.0
Mn216 Mn 0.354 0.8662 0.66012 0.0
Mn217 Mn 0.4147 0.91582 0.69558 0.0
C218 C 0.3946 0.86204 0.66013 0.0
C219 C 0.3104 0.82536 0.66401 0.0
C220 C 0.39235 0.92273 0.63164 0.0
O221 O 0.34042 0.88764 0.68799 0.0
O222 O 0.38141 0.91691 0.7144 0.0
C223 C 0.4065 0.89417 0.76108 0.0
N224 N 0.42225 0.90229 0.73403 0.0
C225 C 0.45748 0.89239 0.75646 0.0
C226 C 0.44173 0.88409 0.78464 0.0
C227 C 0.41612 0.88497 0.78694 0.0
C228 C 0.44701 0.90166 0.73161 0.0
H229 H 0.3867 0.89463 0.76287 0.0
C230 C 0.35441 0.90628 0.70942 0.0
O231 O 0.315 0.84251 0.64105 0.0
O232 O 0.33084 0.83221 0.68483 0.0
N233 N 0.4482 0.91622 0.67956 0.0
C234 C 0.45975 0.92304 0.64997 0.0
C235 C 0.48487 0.92216 0.64329 0.0
C236 C 0.49785 0.91432 0.66707 0.0
C237 C 0.48564 0.90751 0.69738 0.0
C238 C 0.46075 0.90904 0.70276 0.0
H239 H 0.44977 0.9289 0.63154 0.0
O240 O 0.3743 0.84828 0.63924 0.0
O241 O 0.3903 0.87757 0.68037 0.0
O242 O 0.37131 0.89808 0.6288 0.0
O243 O 0.40914 0.93163 0.65599 0.0
C244 C 0.49682 0.89867 0.72222 0.0
C245 C 0.48277 0.89114 0.75175 0.0
H246 H 0.44893 0.87672 0.80452 0.0
H247 H 0.40375 0.87845 0.80854 0.0
H248 H 0.49412 0.92736 0.61981 0.0
H249 H 0.51705 0.91337 0.6617 0.0
H250 H 0.51599 0.8972 0.71872 0.0
H251 H 0.49135 0.88399 0.77051 0.0
Mn252 Mn 0.13576 0.49481 0.71012 0.0
Mn253 Mn 0.12854 0.4331 0.68588 0.0
C254 C 0.17529 0.48895 0.70803 0.0
C255 C 0.14243 0.5385 0.69805 0.0
C256 C 0.11139 0.44346 0.75133 0.0
O257 O 0.09672 0.4755 0.68819 0.0
O258 O 0.09569 0.43647 0.66955 0.0
C259 C 0.13495 0.44189 0.61624 0.0
N260 N 0.14368 0.43587 0.6441 0.0
C261 C 0.18043 0.43081 0.61737 0.0
C262 C 0.1717 0.43676 0.58835 0.0
C263 C 0.14889 0.44236 0.5878 0.0
C264 C 0.16555 0.43037 0.64489 0.0
H265 H 0.11752 0.44633 0.61575 0.0
C266 C 0.08501 0.45261 0.67224 0.0
O267 O 0.13068 0.52658 0.72455 0.0
O268 O 0.14975 0.52482 0.67839 0.0
N269 N 0.15923 0.42749 0.69989 0.0
C270 C 0.16629 0.42408 0.73013 0.0
C271 C 0.18944 0.41942 0.73501 0.0
C272 C 0.20497 0.41817 0.70879 0.0
C273 C 0.19716 0.42149 0.67788 0.0
C274 C 0.17375 0.42586 0.67445 0.0
H275 H 0.15449 0.42514 0.75039 0.0
O276 O 0.17572 0.50863 0.72572 0.0
O277 O 0.15184 0.47349 0.69181 0.0
O278 O 0.12011 0.46931 0.74844 0.0
O279 O 0.11285 0.42812 0.72917 0.0
C280 C 0.2121 0.42131 0.65041 0.0
C281 C 0.20373 0.42596 0.62018 0.0
H282 H 0.18255 0.43738 0.5664 0.0
H283 H 0.14214 0.44713 0.56552 0.0
H284 H 0.19538 0.41694 0.75895 0.0
H285 H 0.22301 0.41488 0.71269 0.0
H286 H 0.23033 0.41806 0.65234 0.0
H287 H 0.21566 0.4262 0.59932 0.0
Mn288 Mn 0.50861 0.64154 0.6737 0.0
Mn289 Mn 0.5021 0.58306 0.70519 0.0
C290 C 0.46592 0.6007 0.66864 0.0
C291 C 0.50751 0.6827 0.67976 0.0
C292 C 0.53341 0.60773 0.6438 0.0
O293 O 0.54247 0.65567 0.70404 0.0
O294 O 0.53401 0.61602 0.7275 0.0
C295 C 0.48366 0.58803 0.77028 0.0
N296 N 0.47875 0.57348 0.74222 0.0
C297 C 0.43387 0.53677 0.76083 0.0
C298 C 0.43856 0.55126 0.79001 0.0
C299 C 0.46355 0.57701 0.79474 0.0
C300 C 0.45483 0.54862 0.73746 0.0
H301 H 0.50274 0.60793 0.77395 0.0
C302 C 0.54813 0.64253 0.72492 0.0
O303 O 0.52233 0.67948 0.65739 0.0
O304 O 0.49342 0.66203 0.69858 0.0
N305 N 0.4716 0.54988 0.68606 0.0
C306 C 0.46936 0.5395 0.65579 0.0
C307 C 0.44504 0.51434 0.64677 0.0
C308 C 0.42334 0.50009 0.66893 0.0
C309 C 0.42621 0.51108 0.69999 0.0
C310 C 0.45107 0.53609 0.70773 0.0
H311 H 0.48586 0.55043 0.63857 0.0
O312 O 0.47179 0.62096 0.64947 0.0
O313 O 0.48504 0.60522 0.69057 0.0
O314 O 0.52765 0.62742 0.64263 0.0
O315 O 0.52585 0.59066 0.66669 0.0
C316 C 0.40506 0.49855 0.72332 0.0
C317 C 0.40889 0.51138 0.75372 0.0
H318 H 0.42297 0.54297 0.80883 0.0
H319 H 0.46723 0.58841 0.81713 0.0
H320 H 0.44295 0.50603 0.62272 0.0
H321 H 0.40447 0.48085 0.66175 0.0
H322 H 0.38557 0.47926 0.71798 0.0
H323 H 0.39228 0.50175 0.77129 0.0
C324 C 0.19516 0.08728 0.0273 0.0
C325 C 0.20605 0.08006 0.00069 0.0
C326 C 0.19172 0.11063 0.02677 0.0
C327 C 0.17351 0.14745 0.96972 0.0
H328 H 0.17758 0.19115 0.04484 0.0
C329 C 0.10801 0.20453 0.97943 0.0
C330 C 0.09325 0.19948 0.00822 0.0
C331 C 0.12995 0.198 0.97612 0.0
C332 C 0.17654 0.17936 0.02352 0.0
H333 H 0.22374 0.09255 0.9535 0.0
H334 H 0.21728 0.13331 0.95243 0.0
H335 H 0.20428 0.16613 0.04398 0.0
H336 H 0.08789 0.18197 0.05513 0.0
H337 H 0.12576 0.1703 0.04947 0.0
H338 H 0.14431 0.15919 0.95005 0.0
C339 C 0.21144 0.12086 0.97365 0.0
C340 C 0.19184 0.16507 0.02304 0.0
C341 C 0.21519 0.09761 0.97433 0.0
C342 C 0.09979 0.18693 0.03314 0.0
C343 C 0.12155 0.18039 0.0299 0.0
C344 C 0.15815 0.16174 0.97022 0.0
C345 C 0.19888 0.12709 -0.0005 0.0
C346 C 0.18936 0.14792 -0.00325 0.0
C347 C 0.13697 0.18593 0.00143 0.0
C348 C 0.15842 0.17671 -0.00224 0.0
H349 H 0.1881 0.07421 0.04801 0.0
H350 H 0.18168 0.1147 0.04693 0.0
H351 H 0.17103 0.13424 0.94919 0.0
H352 H 0.10278 0.21376 0.95974 0.0
H353 H 0.14133 0.20229 0.95384 0.0
C354 C 0.80613 0.91691 0.03256 0.0
C355 C 0.80843 0.90514 0.0035 0.0
C356 C 0.81842 0.94572 0.03625 0.0
C357 C 0.8478 0.01279 -0.00132 0.0
H358 H 0.91216 0.03682 0.05728 0.0
C359 C 0.94316 0.12502 0.0001 0.0
C360 C 0.96019 0.13563 0.02782 0.0
C361 C 0.92036 0.09772 -0.00112 0.0
C362 C 0.89395 0.03082 0.0415 0.0
H363 H 0.82278 0.91394 0.95465 0.0
H364 H 0.84341 0.96432 0.96089 0.0
H365 H 0.87735 0.98785 0.05175 0.0
H366 H 0.9658 0.12696 0.07668 0.0
H367 H 0.92494 0.08016 0.07555 0.0
H368 H 0.86386 0.05569 0.98877 0.0
C369 C 0.83247 0.95124 0.98084 0.0
C370 C 0.87408 0.0026 0.03822 0.0
C371 C 0.82072 0.92246 0.97732 0.0
C372 C 0.95318 0.11907 0.05486 0.0
C373 C 0.92986 0.0921 0.05401 0.0
C374 C 0.86731 0.04122 0.00255 0.0
C375 C 0.83254 0.96313 0.01072 0.0
C376 C 0.85114 0.99331 0.01645 0.0
C377 C 0.9136 0.08064 0.0257 0.0
C378 C 0.89106 0.05065 0.02359 0.0
H379 H 0.79692 0.90413 0.05321 0.0
H380 H 0.81828 0.95452 0.05951 0.0
H381 H 0.83022 0.00599 0.9817 0.0
H382 H 0.94828 0.13738 0.97884 0.0
H383 H 0.90886 0.0898 0.97644 0.0
C384 C 0.8978 0.85376 0.03607 0.0
C385 C 0.8806 0.85012 0.0092 0.0
C386 C 0.92708 0.86362 0.03266 0.0
C387 C 0.98598 0.90254 0.97634 0.0
H388 H 0.02703 0.87771 0.03098 0.0
C389 C 0.10592 0.94038 0.96217 0.0
C390 C 0.12186 0.95263 0.99021 0.0
C391 C 0.07619 0.92411 0.96334 0.0
C392 C 0.01571 0.88463 0.01549 0.0
H393 H 0.88028 0.85583 0.95827 0.0
H394 H 0.93094 0.87168 0.95184 0.0
H395 H 0.97504 0.85621 0.03481 0.0
H396 H 0.11968 0.95917 0.04097 0.0
H397 H 0.06767 0.92998 0.04326 0.0
H398 H 0.02665 0.93066 0.95681 0.0
C399 C 0.9222 0.86705 0.9756 0.0
C400 C 0.98604 0.87257 0.01784 0.0
C401 C 0.89309 0.85751 0.97913 0.0
C402 C 0.10779 0.94882 0.01932 0.0
C403 C 0.07815 0.9323 0.02059 0.0
C404 C 0.01549 0.91417 0.97361 0.0
C405 C 0.93961 0.8703 0.00232 0.0
C406 C 0.97088 0.88171 -0.00137 0.0
C407 C 0.0621 0.92012 0.99254 0.0
C408 C 0.03062 0.90561 0.99346 0.0
H409 H 0.88856 0.84888 0.05961 0.0
H410 H 0.93993 0.86655 0.05388 0.0
H411 H 0.97522 0.91056 0.96162 0.0
H412 H 0.11643 0.94367 0.93938 0.0
H413 H 0.06414 0.91505 0.94139 0.0
C414 C 0.866 0.42622 0.29715 0.0
C415 C 0.86866 0.42001 0.32884 0.0
C416 C 0.85852 0.44646 0.29046 0.0
C417 C 0.84803 0.50211 0.32906 0.0
H418 H 0.78884 0.48016 0.26386 0.0
C419 C 0.75454 0.52278 0.33697 0.0
C420 C 0.74628 0.53185 0.30999 0.0
C421 C 0.77664 0.51659 0.33518 0.0
C422 C 0.80583 0.48697 0.28163 0.0
H423 H 0.86427 0.42856 0.3784 0.0
H424 H 0.85038 0.46335 0.36701 0.0
H425 H 0.81493 0.45482 0.26816 0.0
H426 H 0.75308 0.54011 0.25956 0.0
H427 H 0.79167 0.52845 0.25609 0.0
H428 H 0.837 0.53278 0.34408 0.0
C429 C 0.85541 0.45377 0.34719 0.0
C430 C 0.82086 0.47249 0.28411 0.0
C431 C 0.86305 0.43368 0.35379 0.0
C432 C 0.75975 0.5338 0.28081 0.0
C433 C 0.78171 0.52722 0.27887 0.0
C434 C 0.83268 0.51631 0.32686 0.0
C435 C 0.85282 0.46027 0.31542 0.0
C436 C 0.84132 0.47918 0.30868 0.0
C437 C 0.79025 0.5185 0.30608 0.0
C438 C 0.81077 0.50816 0.30385 0.0
H439 H 0.86926 0.41509 0.27756 0.0
H440 H 0.85679 0.45097 0.26575 0.0
H441 H 0.8642 0.50826 0.34771 0.0
H442 H 0.74347 0.51992 0.35933 0.0
H443 H 0.78227 0.50916 0.35628 0.0
C444 C 0.50348 0.24389 0.2994 0.0
C445 C 0.49379 0.22789 0.32698 0.0
C446 C 0.51112 0.27198 0.30039 0.0
C447 C 0.54528 0.32966 0.35452 0.0
H448 H 0.52583 0.37046 0.29442 0.0
C449 C 0.60776 0.4485 0.35846 0.0
C450 C 0.61408 0.46202 0.32918 0.0
C451 C 0.58717 0.42044 0.36007 0.0
C452 C 0.53179 0.35948 0.31122 0.0
H453 H 0.48299 0.2283 0.37671 0.0
H454 H 0.49719 0.27766 0.37862 0.0
H455 H 0.49969 0.31965 0.29256 0.0
H456 H 0.60343 0.45731 0.27875 0.0
H457 H 0.5688 0.40793 0.28095 0.0
H458 H 0.57869 0.36871 0.37174 0.0
C459 C 0.49851 0.26831 0.35622 0.0
C460 C 0.51658 0.33038 0.31027 0.0
C461 C 0.49032 0.24009 0.35507 0.0
C462 C 0.59876 0.44732 0.30167 0.0
C463 C 0.57874 0.41898 0.30306 0.0
C464 C 0.5609 0.35862 0.355 0.0
C465 C 0.5097 0.28464 0.32912 0.0
C466 C 0.52337 0.31526 0.3318 0.0
C467 C 0.57313 0.40494 0.3322 0.0
C468 C 0.55463 0.37405 0.33317 0.0
H469 H 0.5063 0.235 0.27741 0.0
H470 H 0.51987 0.2842 0.27925 0.0
H471 H 0.55126 0.31845 0.371 0.0
H472 H 0.61909 0.45956 0.38009 0.0
H473 H 0.58284 0.41082 0.38316 0.0
C474 C 0.58649 0.17494 0.35618 0.0
C475 C 0.56888 0.17312 0.33044 0.0
C476 C 0.61557 0.18446 0.35148 0.0
C477 C 0.67343 0.22989 0.29937 0.0
H478 H 0.71541 0.19845 0.34062 0.0
C479 C 0.79463 0.28578 0.29241 0.0
C480 C 0.8084 0.29033 0.32226 0.0
C481 C 0.76597 0.26541 0.28855 0.0
C482 C 0.70395 0.20742 0.32891 0.0
H483 H 0.56754 0.18125 0.28029 0.0
H484 H 0.61825 0.19768 0.27186 0.0
H485 H 0.66319 0.1748 0.34391 0.0
H486 H 0.80382 0.27564 0.37071 0.0
H487 H 0.75369 0.24067 0.36426 0.0
H488 H 0.71382 0.26301 0.28544 0.0
C489 C 0.60971 0.19136 0.29552 0.0
C490 C 0.67413 0.19393 0.33086 0.0
C491 C 0.58072 0.18175 0.30023 0.0
C492 C 0.79371 0.27269 0.34745 0.0
C493 C 0.76497 0.25249 0.34367 0.0
C494 C 0.70312 0.24336 0.29749 0.0
C495 C 0.62747 0.19292 0.3211 0.0
C496 C 0.65867 0.20537 0.31662 0.0
C497 C 0.75047 0.24943 0.31456 0.0
C498 C 0.71881 0.23262 0.31275 0.0
H499 H 0.57773 0.16892 0.37981 0.0
H500 H 0.62888 0.18599 0.37176 0.0
H501 H 0.66215 0.23944 0.28853 0.0
H502 H 0.80556 0.29882 0.27243 0.0
H503 H 0.75557 0.26309 0.26559 0.0
C504 C 0.43162 0.85055 0.64165 0.0
C505 C 0.41556 0.85303 0.66643 0.0
C506 C 0.44848 0.8382 0.64715 0.0
C507 C 0.44735 0.78491 0.69756 0.0
H508 H 0.52124 0.80572 0.66117 0.0
C509 C 0.49483 0.71369 0.71095 0.0
C510 C 0.50556 0.70825 0.68293 0.0
C511 C 0.48989 0.73614 0.71281 0.0
C512 C 0.50057 0.79965 0.67141 0.0
H513 H 0.40368 0.84421 0.71592 0.0
H514 H 0.43361 0.82335 0.72587 0.0
H515 H 0.50152 0.83716 0.65706 0.0
H516 H 0.52104 0.72278 0.63549 0.0
H517 H 0.51141 0.76146 0.63823 0.0
H518 H 0.4455 0.7471 0.71076 0.0
C519 C 0.4335 0.83106 0.7023 0.0
C520 C 0.48935 0.81764 0.66909 0.0
C521 C 0.41665 0.84326 0.69674 0.0
C522 C 0.51267 0.72649 0.65737 0.0
C523 C 0.50734 0.74877 0.65904 0.0
C524 C 0.45843 0.76698 0.69974 0.0
C525 C 0.44896 0.82769 0.67736 0.0
C526 C 0.46248 0.81026 0.6819 0.0
C527 C 0.49511 0.75334 0.68647 0.0
C528 C 0.48503 0.77394 0.68644 0.0
H529 H 0.43052 0.8575 0.61793 0.0
H530 H 0.45986 0.83552 0.62737 0.0
H531 H 0.4263 0.77833 0.70704 0.0
H532 H 0.48962 0.70021 0.73123 0.0
H533 H 0.48113 0.7395 0.73458 0.0
C534 C 0.26801 0.78505 0.6376 0.0
C535 C 0.28399 0.79819 0.66546 0.0
C536 C 0.24568 0.75753 0.63833 0.0
C537 C 0.19672 0.70153 0.69042 0.0
H538 H 0.21043 0.653 0.63442 0.0
C539 C 0.15324 0.58588 0.71659 0.0
C540 C 0.14929 0.56722 0.69142 0.0
C541 C 0.16375 0.61404 0.7107 0.0
C542 C 0.20559 0.66605 0.6497 0.0
H543 H 0.28805 0.7937 0.71623 0.0
H544 H 0.24863 0.74594 0.71762 0.0
H545 H 0.23851 0.70296 0.62877 0.0
H546 H 0.1511 0.5628 0.64015 0.0
H547 H 0.16797 0.61156 0.62956 0.0
H548 H 0.16381 0.66475 0.71146 0.0
C549 C 0.25349 0.75676 0.69523 0.0
C550 C 0.22186 0.69479 0.64647 0.0
C551 C 0.27614 0.78401 0.69438 0.0
C552 C 0.15432 0.57685 0.66005 0.0
C553 C 0.16422 0.60488 0.65406 0.0
C554 C 0.18002 0.67272 0.69329 0.0
C555 C 0.23861 0.743 0.66706 0.0
C556 C 0.21811 0.71279 0.66733 0.0
C557 C 0.17003 0.62408 0.67939 0.0
C558 C 0.1848 0.65457 0.67358 0.0
H559 H 0.27369 0.7955 0.61498 0.0
H560 H 0.23446 0.74733 0.61632 0.0
H561 H 0.19332 0.71503 0.70666 0.0
H562 H 0.14966 0.57902 0.74104 0.0
H563 H 0.16825 0.62806 0.73096 0.0
C564 C 0.22089 0.49196 0.72606 0.0
C565 C 0.20221 0.48939 0.70117 0.0
C566 C 0.24785 0.49536 0.71931 0.0
C567 C 0.30114 0.52173 0.65531 0.0
H568 H 0.34271 0.49979 0.71308 0.0
C569 C 0.42144 0.56374 0.64236 0.0
C570 C 0.43638 0.57791 0.67027 0.0
C571 C 0.3921 0.54498 0.64333 0.0
C572 C 0.33119 0.50573 0.69655 0.0
H573 H 0.1971 0.48967 0.64996 0.0
H574 H 0.24336 0.49396 0.63788 0.0
H575 H 0.29118 0.48076 0.71935 0.0
H576 H 0.43271 0.58472 0.72062 0.0
H577 H 0.38163 0.55148 0.7226 0.0
H578 H 0.34118 0.54702 0.63291 0.0
C579 C 0.23754 0.4935 0.66265 0.0
C580 C 0.30179 0.49507 0.70026 0.0
C581 C 0.21084 0.49056 0.66948 0.0
C582 C 0.42177 0.57306 0.69912 0.0
C583 C 0.39259 0.55412 0.70021 0.0
C584 C 0.33034 0.53198 0.65132 0.0
C585 C 0.25666 0.49651 0.68748 0.0
C586 C 0.28661 0.50376 0.6804 0.0
C587 C 0.37737 0.54039 0.67219 0.0
C588 C 0.3458 0.52484 0.67255 0.0
H589 H 0.21482 0.49182 0.75071 0.0
H590 H 0.26217 0.4983 0.7391 0.0
H591 H 0.29044 0.52933 0.63982 0.0
H592 H 0.43231 0.56773 0.61974 0.0
H593 H 0.38073 0.5348 0.62138 0.0
C594 C 0.0808 0.31648 0.99346 0.0
C595 C 0.06182 0.28829 0.98616 0.0
C596 C 0.08288 0.33717 0.97318 0.0
C597 C 0.04683 0.3494 0.90389 0.0
H598 H 0.12373 0.40713 0.88462 0.0
C599 C 0.08056 0.40185 0.7832 0.0
C600 C 0.10021 0.43043 0.78228 0.0
C601 C 0.07248 0.38846 0.81229 0.0
C602 C 0.10208 0.39152 0.89022 0.0
H603 H 0.02981 0.25985 0.95199 0.0
H604 H 0.03403 0.2957 0.91632 0.0
H605 H 0.11633 0.3758 0.92817 0.0
H606 H 0.12602 0.46765 0.81103 0.0
H607 H 0.1123 0.44392 0.86221 0.0
H608 H 0.03293 0.36421 0.86448 0.0
C609 C 0.04683 0.30198 0.93809 0.0
C610 C 0.09779 0.37353 0.9152 0.0
C611 C 0.04458 0.28133 0.95846 0.0
C612 C 0.11075 0.44562 0.8111 0.0
C613 C 0.10303 0.43207 0.8403 0.0
C614 C 0.05117 0.3672 0.8787 0.0
C615 C 0.0662 0.33015 0.94501 0.0
C616 C 0.0702 0.35173 0.92173 0.0
C617 C 0.0842 0.40327 0.84106 0.0
C618 C 0.07892 0.38792 0.8711 0.0
H619 H 0.09423 0.32261 0.01476 0.0
H620 H 0.09774 0.35868 0.97947 0.0
H621 H 0.02522 0.33327 0.90876 0.0
H622 H 0.072 0.38967 0.76134 0.0
H623 H 0.05818 0.3662 0.81215 0.0
C624 C 0.72769 0.79221 0.92786 0.0
C625 C 0.73976 0.77729 0.94156 0.0
C626 C 0.70464 0.77896 0.90625 0.0
C627 C 0.64676 0.71032 0.87957 0.0
H628 H 0.65734 0.74262 0.7959 0.0
C629 C 0.57994 0.64607 0.77087 0.0
C630 C 0.5708 0.65909 0.74892 0.0
C631 C 0.59966 0.6616 0.79507 0.0
C632 C 0.65378 0.7335 0.81926 0.0
H633 H 0.73641 0.73669 0.94485 0.0
H634 H 0.69611 0.71365 0.90774 0.0
H635 H 0.69157 0.76841 0.83889 0.0
H636 H 0.5755 0.69879 0.73506 0.0
H637 H 0.60937 0.72564 0.7775 0.0
H638 H 0.60909 0.6754 0.86015 0.0
C639 C 0.70446 0.7355 0.9134 0.0
C640 C 0.67336 0.74832 0.84386 0.0
C641 C 0.72766 0.74876 0.93445 0.0
C642 C 0.58221 0.68806 0.75139 0.0
C643 C 0.60173 0.70352 0.77572 0.0
C644 C 0.62705 0.69561 0.8551 0.0
C645 C 0.69305 0.75053 0.89867 0.0
C646 C 0.67031 0.73661 0.87403 0.0
C647 C 0.61048 0.69046 0.79804 0.0
C648 C 0.63063 0.70679 0.82447 0.0
H649 H 0.73671 0.81424 0.93291 0.0
H650 H 0.69609 0.79093 0.8952 0.0
H651 H 0.64383 0.70097 0.90275 0.0
H652 H 0.57169 0.62383 0.76959 0.0
H653 H 0.60642 0.65096 0.81146 0.0
C654 C 0.30848 0.90235 0.72885 0.0
C655 C 0.33846 0.91495 0.73108 0.0
C656 C 0.29338 0.90891 0.75117 0.0
C657 C 0.2675 0.91197 0.81448 0.0
H658 H 0.29721 0.98724 0.84751 0.0
C659 C 0.22903 0.93732 0.93219 0.0
C660 C 0.22598 0.96112 0.93319 0.0
C661 C 0.24117 0.93163 0.90573 0.0
C662 C 0.28843 0.96614 0.83832 0.0
H663 H 0.37608 0.94497 0.75806 0.0
H664 H 0.34976 0.95611 0.79692 0.0
H665 H 0.32086 0.9784 0.80309 0.0
H666 H 0.23274 0.99729 0.90676 0.0
H667 H 0.2535 0.98714 0.86067 0.0
H668 H 0.2349 0.89976 0.84959 0.0
C669 C 0.33794 0.94139 0.77777 0.0
C670 C 0.30216 0.96106 0.81309 0.0
C671 C 0.35302 0.93486 0.75553 0.0
C672 C 0.23499 0.97889 0.90699 0.0
C673 C 0.24701 0.97315 0.88055 0.0
C674 C 0.25372 0.91707 0.83971 0.0
C675 C 0.30795 0.92823 0.77609 0.0
C676 C 0.29205 0.93388 0.80116 0.0
C677 C 0.25041 0.94958 0.87971 0.0
C678 C 0.26423 0.94418 0.8521 0.0
H679 H 0.29657 0.88697 0.7103 0.0
H680 H 0.27028 0.8987 0.74907 0.0
H681 H 0.25936 0.89076 0.806 0.0
H682 H 0.22229 0.92317 0.95193 0.0
H683 H 0.24382 0.91347 0.90593 0.0
C684 C 0.41705 0.12086 0.25331 0.0
C685 C 0.42781 0.10422 0.26525 0.0
C686 C 0.39552 0.11029 0.22972 0.0
C687 C 0.36517 0.05469 0.16732 0.0
H688 H 0.3049 0.07375 0.16189 0.0
C689 C 0.26706 -0.00208 0.08325 0.0
C690 C 0.25915 0.01457 0.06572 0.0
C691 C 0.28831 0.00976 0.10694 0.0
C692 C 0.32181 0.06849 0.16302 0.0
H693 H 0.42323 0.06304 0.26377 0.0
H694 H 0.3851 0.04433 0.22374 0.0
H695 H 0.33936 0.09218 0.20635 0.0
H696 H 0.26758 0.05679 0.05913 0.0
H697 H 0.30458 0.07735 0.10078 0.0
H698 H 0.34721 0.03054 0.12439 0.0
C699 C 0.39393 0.06581 0.23148 0.0
C700 C 0.34154 0.07905 0.18842 0.0
C701 C 0.41562 0.07646 0.25461 0.0
C702 C 0.27327 0.04339 0.07208 0.0
C703 C 0.29426 0.05516 0.09607 0.0
C704 C 0.34531 0.04394 0.1422 0.0
C705 C 0.38422 0.08281 0.21802 0.0
C706 C 0.36333 0.07209 0.19097 0.0
C707 C 0.30182 0.03841 0.11383 0.0
C708 C 0.32339 0.05063 0.1399 0.0
H709 H 0.42621 0.1424 0.26102 0.0
H710 H 0.38862 0.12398 0.21977 0.0
H711 H 0.38212 0.04948 0.16804 0.0
H712 H 0.25661 0.97567 0.07894 0.0
H713 H 0.29366 0.99639 0.12046 0.0
C714 C 0.03423 0.25026 0.14399 0.0
C715 C 0.01951 0.24228 0.11449 0.0
C716 C 0.02327 0.25819 0.16962 0.0
C717 C 0.95895 0.25987 0.19879 0.0
H718 H 0.01569 0.32648 0.24374 0.0
C719 C 0.96404 0.35697 0.2743 0.0
C720 C 0.9401 0.34295 0.29384 0.0
C721 C 0.9743 0.34223 0.25669 0.0
C722 C -0.00042 0.3079 0.23141 0.0
H723 H 0.98116 0.23514 0.08908 0.0
H724 H 0.96239 0.24996 0.13364 0.0
H725 H 0.03095 0.3042 0.20413 0.0
H726 H 0.90905 0.30248 0.31137 0.0
H727 H 0.92735 0.27684 0.28091 0.0
H728 H 0.92748 0.2646 0.22492 0.0
C729 C 0.98215 0.24955 0.13715 0.0
C730 C 0.00833 0.29487 0.20898 0.0
C731 C -0.00704 0.24121 0.11155 0.0
C732 C 0.92742 0.31394 0.29638 0.0
C733 C 0.93777 0.2992 0.2788 0.0
C734 C 0.95017 0.27303 0.22115 0.0
C735 C -0.00244 0.25875 0.16624 0.0
C736 C 0.98811 0.27095 0.19204 0.0
C737 C 0.96099 0.31314 0.25831 0.0
C738 C 0.97039 0.29748 0.23726 0.0
H739 H 0.05452 0.25083 0.14718 0.0
H740 H 0.03531 0.26448 0.19193 0.0
H741 H 0.94288 0.24128 0.18644 0.0
H742 H 0.97429 0.37927 0.27166 0.0
H743 H 0.992 0.35358 0.2408 0.0
C744 C 0.72172 0.64125 0.28134 0.0
C745 C 0.70917 0.61288 0.27315 0.0
C746 C 0.7253 0.66057 0.25828 0.0
C747 C 0.70565 0.66704 0.17432 0.0
H748 H 0.77818 0.73581 0.17876 0.0
C749 C 0.76248 0.734 0.06617 0.0
C750 C 0.774 0.7629 0.06946 0.0
C751 C 0.75048 0.7169 0.09223 0.0
C752 C 0.75766 0.7169 0.17748 0.0
H753 H 0.6899 0.58236 0.23462 0.0
H754 H 0.69719 0.6161 0.19404 0.0
H755 H 0.7647 0.70339 0.2223 0.0
H756 H 0.78161 0.79654 0.10251 0.0
H757 H 0.76123 0.7665 0.14851 0.0
H758 H 0.69969 0.68013 0.12839 0.0
C759 C 0.70354 0.62348 0.21843 0.0
C760 C 0.74981 0.6983 0.20248 0.0
C761 C 0.69948 0.60409 0.24166 0.0
C762 C 0.77284 0.77433 0.09927 0.0
C763 C 0.76128 0.75722 0.12555 0.0
C764 C 0.71375 0.68547 0.14907 0.0
C765 C 0.71694 0.65204 0.22634 0.0
C766 C 0.72389 0.67291 0.20104 0.0
C767 C 0.75016 0.72839 0.12224 0.0
C768 C 0.74 0.71036 0.15028 0.0
H769 H 0.72906 0.64858 0.30556 0.0
H770 H 0.73504 0.68227 0.26547 0.0
H771 H 0.68528 0.648 0.17264 0.0
H772 H 0.76289 0.72458 0.04344 0.0
H773 H 0.74229 0.69476 0.08917 0.0
C774 C 0.05725 0.46646 0.63658 0.0
C775 C 0.05946 0.44555 0.65263 0.0
C776 C 0.03681 0.45949 0.61226 0.0
C777 C -0.00361 0.40135 0.55501 0.0
H778 H 0.96738 0.44892 0.52546 0.0
C779 C 0.92774 0.37763 0.44036 0.0
C780 C 0.93848 0.39942 0.41854 0.0
C781 C 0.93856 0.3822 0.47155 0.0
C782 C 0.97533 0.43547 0.53358 0.0
H783 H 0.04042 0.40114 0.65847 0.0
H784 H 0.00363 0.38889 0.61739 0.0
H785 H 0.99084 0.45798 0.5779 0.0
H786 H 0.96872 0.44319 0.41255 0.0
H787 H 0.98731 0.45118 0.46734 0.0
H788 H 0.98071 0.37882 0.51072 0.0
C789 C 0.01845 0.41066 0.62234 0.0
C790 C 0.98883 0.44066 0.5635 0.0
C791 C 0.03932 0.41763 0.64609 0.0
C792 C 0.96005 0.42596 0.42872 0.0
C793 C 0.97052 0.43061 0.46011 0.0
C794 C 0.98249 0.39592 0.52543 0.0
C795 C 0.01786 0.43146 0.60402 0.0
C796 C 8e-05 0.424 0.57432 0.0
C797 C 0.95998 0.40872 0.48168 0.0
C798 C 0.97237 0.41324 0.5142 0.0
H799 H 0.0727 0.48817 0.64106 0.0
H800 H 0.03725 0.47613 0.59861 0.0
H801 H 0.00531 0.38842 0.56201 0.0
H802 H 0.91116 0.35693 0.43327 0.0
H803 H 0.93013 0.36502 0.48782 0.0
C804 C 0.63374 0.55954 0.4047 0.0
C805 C 0.66381 0.57363 0.40428 0.0
C806 C 0.61939 0.56355 0.43017 0.0
C807 C 0.59611 0.56261 0.49644 0.0
H808 H 0.62361 0.63643 0.53312 0.0
C809 C 0.55447 0.58178 0.6156 0.0
C810 C 0.54899 0.60413 0.61677 0.0
C811 C 0.56847 0.57809 0.58955 0.0
C812 C 0.61555 0.61571 0.52302 0.0
H813 H 0.70233 0.60315 0.43033 0.0
H814 H 0.6773 0.60987 0.47465 0.0
H815 H 0.64727 0.63024 0.48679 0.0
H816 H 0.55406 0.64019 0.59139 0.0
H817 H 0.57817 0.63356 0.54603 0.0
H818 H 0.56407 0.54817 0.53238 0.0
C819 C 0.66482 0.59601 0.45512 0.0
C820 C 0.62927 0.61214 0.49668 0.0
C821 C 0.67916 0.59203 0.42972 0.0
C822 C 0.55798 0.62278 0.5914 0.0
C823 C 0.57196 0.61909 0.56542 0.0
C824 C 0.58238 0.56619 0.52281 0.0
C825 C 0.6348 0.58172 0.45571 0.0
C826 C 0.61974 0.58555 0.48316 0.0
C827 C 0.5773 0.59669 0.56417 0.0
C828 C 0.59198 0.59278 0.53637 0.0
H829 H 0.62122 0.54524 0.3855 0.0
H830 H 0.59622 0.5525 0.4298 0.0
H831 H 0.58847 0.54183 0.48674 0.0
H832 H 0.54784 0.56701 0.6347 0.0
H833 H 0.5726 0.56081 0.5894 0.0
C834 C 0.38823 0.93208 0.57412 0.0
C835 C 0.3979 0.94212 0.60532 0.0
C836 C 0.39449 0.9505 0.54911 0.0
C837 C 0.44442 0.02369 0.5279 0.0
H838 H 0.3921 0.00536 0.45583 0.0
C839 C 0.46466 0.09854 0.42406 0.0
C840 C 0.46404 0.08681 0.39383 0.0
C841 C 0.45441 0.08169 0.45071 0.0
C842 C 0.40685 0.0107 0.47588 0.0
H843 H 0.42083 0.97934 0.63504 0.0
H844 H 0.43077 0.01146 0.59177 0.0
H845 H 0.37801 0.97458 0.50132 0.0
H846 H 0.45123 0.0482 0.3676 0.0
H847 H 0.4328 0.01879 0.41408 0.0
H848 H 0.47302 0.06005 0.50242 0.0
C849 C 0.41921 0.98938 0.58626 0.0
C850 C 0.39892 0.99301 0.50184 0.0
C851 C 0.41337 0.97096 0.61115 0.0
C852 C 0.45213 0.05786 0.39061 0.0
C853 C 0.44142 0.041 0.41713 0.0
C854 C 0.45212 0.04157 0.50217 0.0
C855 C 0.41016 0.97942 0.55482 0.0
C856 C 0.41778 -0.00095 0.528 0.0
C857 C 0.44285 0.0528 0.44746 0.0
C858 C 0.43358 0.03503 0.47576 0.0
H859 H 0.37643 0.90995 0.56886 0.0
H860 H 0.38759 0.94199 0.52518 0.0
H861 H 0.45976 0.02884 0.54725 0.0
H862 H 0.4738 0.1208 0.42728 0.0
H863 H 0.45564 0.09122 0.4739 0.0
loop_
_geom_bond_atom_site_label_1
_geom_bond_atom_site_label_2
_geom_bond_distance
_geom_bond_site_symmetry_2
_ccdc_geom_bond_type
Mn0 O5 2.095 1_455 S
Mn0 O15 2.162 1_454 S
Mn0 O16 2.297 1_455 S
Mn0 O24 2.385 1_554 S
Mn0 O25 2.209 . S
Mn0 O26 2.094 1_554 S
Mn1 O6 2.121 . S
Mn1 N8 2.257 . S
Mn1 N17 2.282 . S
Mn1 O25 2.215 . S
Mn1 O27 2.117 1_554 S
C2 O24 1.234 1_554 S
C2 O25 1.283 . S
C3 O15 1.281 1_554 S
C3 O16 1.236 . S
C4 O26 1.240 . S
C4 O27 1.264 . S
O5 Mn0 2.095 1_655 S
O5 C14 1.250 1_655 S
O6 Mn1 2.121 . S
O6 C14 1.258 . S
C7 N8 1.326 . S
C7 C11 1.460 . S
C7 H13 0.929 . S
N8 Mn1 2.257 . S
N8 C7 1.326 . S
N8 C12 1.362 . S
C9 C10 1.258 . S
C9 C12 1.431 . S
C9 C29 1.449 . S
C10 C9 1.258 . S
C10 C11 1.477 . S
C10 H30 0.931 . S
C11 C7 1.460 . S
C11 C10 1.477 . S
C11 H31 0.930 . S
C12 N8 1.362 . S
C12 C9 1.431 . S
C12 C22 1.476 . S
H13 C7 0.929 . S
C14 O5 1.250 1_455 S
C14 O6 1.258 . S
O15 Mn0 2.162 1_656 S
O15 C3 1.281 1_556 S
O16 Mn0 2.297 1_655 S
O16 C3 1.236 . S
N17 Mn1 2.282 . S
N17 C18 1.328 1_554 S
N17 C22 1.318 . S
C18 N17 1.328 1_556 S
C18 C19 1.457 . S
C18 H23 0.929 . S
C19 C18 1.457 . S
C19 C20 1.291 . S
C19 H32 0.931 . S
C20 C19 1.291 . S
C20 C21 1.373 1_556 S
C20 H33 0.929 . S
C21 C20 1.373 1_554 S
C21 C22 1.396 . S
C21 C28 1.403 . S
C22 C12 1.476 . S
C22 N17 1.318 . S
C22 C21 1.396 . S
H23 C18 0.929 . S
O24 Mn0 2.385 1_556 S
O24 C2 1.234 1_556 S
O25 Mn0 2.209 . S
O25 Mn1 2.215 . S
O25 C2 1.283 . S
O26 Mn0 2.094 1_556 S
O26 C4 1.240 . S
O27 Mn1 2.117 1_556 S
O27 C4 1.264 . S
C28 C21 1.403 . S
C28 C29 1.399 . S
C28 H34 0.929 . S
C29 C9 1.449 . S
C29 C28 1.399 . S
C29 H35 0.930 . S
H30 C10 0.931 . S
H31 C11 0.930 . S
H32 C19 0.931 . S
H33 C20 0.929 . S
H34 C28 0.929 . S
H35 C29 0.930 . S
Mn36 O41 2.095 1_554 S
Mn36 O51 2.162 . S
Mn36 O52 2.297 1_554 S
Mn36 O60 2.385 . S
Mn36 O61 2.209 1_554 S
Mn36 O62 2.094 . S
Mn37 O42 2.121 . S
Mn37 N44 2.257 . S
Mn37 N53 2.282 1_556 S
Mn37 O61 2.215 . S
Mn37 O63 2.117 1_556 S
C38 O60 1.234 . S
C38 O61 1.283 1_554 S
C39 O51 1.281 . S
C39 O52 1.236 1_554 S
C40 O62 1.240 . S
C40 O63 1.264 . S
O41 Mn36 2.095 1_556 S
O41 C50 1.250 . S
O42 Mn37 2.121 . S
O42 C50 1.258 . S
C43 N44 1.326 . S
C43 C47 1.460 . S
C43 H49 0.929 . S
N44 Mn37 2.257 . S
N44 C43 1.326 . S
N44 C48 1.362 . S
C45 C46 1.258 . S
C45 C48 1.431 . S
C45 C65 1.449 . S
C46 C45 1.258 . S
C46 C47 1.477 . S
C46 H66 0.931 . S
C47 C43 1.460 . S
C47 C46 1.477 . S
C47 H67 0.930 . S
C48 N44 1.362 . S
C48 C45 1.431 . S
C48 C58 1.476 . S
H49 C43 0.929 . S
C50 O41 1.250 . S
C50 O42 1.258 . S
O51 Mn36 2.162 . S
O51 C39 1.281 . S
O52 Mn36 2.297 1_556 S
O52 C39 1.236 1_556 S
N53 Mn37 2.282 1_554 S
N53 C54 1.328 . S
N53 C58 1.318 1_554 S
C54 N53 1.328 . S
C54 C55 1.457 . S
C54 H59 0.929 . S
C55 C54 1.457 . S
C55 C56 1.291 . S
C55 H68 0.931 . S
C56 C55 1.291 . S
C56 C57 1.373 1_554 S
C56 H69 0.929 . S
C57 C56 1.373 1_556 S
C57 C58 1.396 . S
C57 C64 1.403 . S
C58 C48 1.476 . S
C58 N53 1.318 1_556 S
C58 C57 1.396 . S
H59 C54 0.929 . S
O60 Mn36 2.385 . S
O60 C38 1.234 . S
O61 Mn36 2.209 1_556 S
O61 Mn37 2.215 . S
O61 C38 1.283 1_556 S
O62 Mn36 2.094 . S
O62 C40 1.240 . S
O63 Mn37 2.117 1_554 S
O63 C40 1.264 . S
C64 C57 1.403 . S
C64 C65 1.399 . S
C64 H70 0.929 . S
C65 C45 1.449 . S
C65 C64 1.399 . S
C65 H71 0.930 . S
H66 C46 0.931 . S
H67 C47 0.930 . S
H68 C55 0.931 . S
H69 C56 0.929 . S
H70 C64 0.929 . S
H71 C65 0.930 . S
Mn72 O77 2.095 . S
Mn72 O87 2.162 1_554 S
Mn72 O88 2.297 . S
Mn72 O96 2.385 1_544 S
Mn72 O97 2.209 1_545 S
Mn72 O98 2.094 1_554 S
Mn73 O78 2.121 . S
Mn73 N80 2.257 . S
Mn73 N89 2.282 . S
Mn73 O97 2.215 . S
Mn73 O99 2.117 1_554 S
C74 O96 1.234 1_554 S
C74 O97 1.283 . S
C75 O87 1.281 1_554 S
C75 O88 1.236 . S
C76 O98 1.240 1_565 S
C76 O99 1.264 . S
O77 Mn72 2.095 . S
O77 C86 1.250 . S
O78 Mn73 2.121 . S
O78 C86 1.258 1_565 S
C79 N80 1.326 . S
C79 C83 1.460 . S
C79 H85 0.929 . S
N80 Mn73 2.257 . S
N80 C79 1.326 . S
N80 C84 1.362 . S
C81 C82 1.258 . S
C81 C84 1.431 . S
C81 C101 1.449 . S
C82 C81 1.258 . S
C82 C83 1.477 . S
C82 H102 0.931 . S
C83 C79 1.460 . S
C83 C82 1.477 . S
C83 H103 0.930 . S
C84 N80 1.362 . S
C84 C81 1.431 . S
C84 C94 1.476 . S
H85 C79 0.929 . S
C86 O77 1.250 . S
C86 O78 1.258 1_545 S
O87 Mn72 2.162 1_556 S
O87 C75 1.281 1_556 S
O88 Mn72 2.297 . S
O88 C75 1.236 . S
N89 Mn73 2.282 . S
N89 C90 1.328 1_554 S
N89 C94 1.318 . S
C90 N89 1.328 1_556 S
C90 C91 1.457 . S
C90 H95 0.929 . S
C91 C90 1.457 . S
C91 C92 1.291 . S
C91 H104 0.931 . S
C92 C91 1.291 . S
C92 C93 1.373 1_556 S
C92 H105 0.929 . S
C93 C92 1.373 1_554 S
C93 C94 1.396 . S
C93 C100 1.403 . S
C94 C84 1.476 . S
C94 N89 1.318 . S
C94 C93 1.396 . S
H95 C90 0.929 . S
O96 Mn72 2.385 1_566 S
O96 C74 1.234 1_556 S
O97 Mn72 2.209 1_565 S
O97 Mn73 2.215 . S
O97 C74 1.283 . S
O98 Mn72 2.094 1_556 S
O98 C76 1.240 1_545 S
O99 Mn73 2.117 1_556 S
O99 C76 1.264 . S
C100 C93 1.403 . S
C100 C101 1.399 . S
C100 H106 0.929 . S
C101 C81 1.449 . S
C101 C100 1.399 . S
C101 H107 0.930 . S
H102 C82 0.931 . S
H103 C83 0.930 . S
H104 C91 0.931 . S
H105 C92 0.929 . S
H106 C100 0.929 . S
H107 C101 0.930 . S
Mn108 O113 2.095 . S
Mn108 O123 2.162 . S
Mn108 O124 2.297 . S
Mn108 O132 2.385 . S
Mn108 O133 2.209 . S
Mn108 O134 2.094 . S
Mn109 O114 2.121 . S
Mn109 N116 2.257 . S
Mn109 N125 2.282 . S
Mn109 O133 2.215 . S
Mn109 O135 2.117 . S
C110 O132 1.234 . S
C110 O133 1.283 . S
C111 O123 1.281 . S
C111 O124 1.236 . S
C112 O134 1.240 . S
C112 O135 1.264 . S
O113 Mn108 2.095 . S
O113 C122 1.250 . S
O114 Mn109 2.121 . S
O114 C122 1.258 . S
C115 N116 1.326 . S
C115 C119 1.460 . S
C115 H121 0.929 . S
N116 Mn109 2.257 . S
N116 C115 1.326 . S
N116 C120 1.362 . S
C117 C118 1.258 . S
C117 C120 1.431 . S
C117 C137 1.449 . S
C118 C117 1.258 . S
C118 C119 1.477 . S
C118 H138 0.931 . S
C119 C115 1.460 . S
C119 C118 1.477 . S
C119 H139 0.930 . S
C120 N116 1.362 . S
C120 C117 1.431 . S
C120 C130 1.476 . S
H121 C115 0.929 . S
C122 O113 1.250 . S
C122 O114 1.258 . S
O123 Mn108 2.162 . S
O123 C111 1.281 . S
O124 Mn108 2.297 . S
O124 C111 1.236 . S
N125 Mn109 2.282 . S
N125 C126 1.328 . S
N125 C130 1.318 . S
C126 N125 1.328 . S
C126 C127 1.457 . S
C126 H131 0.929 . S
C127 C126 1.457 . S
C127 C128 1.291 . S
C127 H140 0.931 . S
C128 C127 1.291 . S
C128 C129 1.373 . S
C128 H141 0.929 . S
C129 C128 1.373 . S
C129 C130 1.396 . S
C129 C136 1.403 . S
C130 C120 1.476 . S
C130 N125 1.318 . S
C130 C129 1.396 . S
H131 C126 0.929 . S
O132 Mn108 2.385 . S
O132 C110 1.234 . S
O133 Mn108 2.209 . S
O133 Mn109 2.215 . S
O133 C110 1.283 . S
O134 Mn108 2.094 . S
O134 C112 1.240 . S
O135 Mn109 2.117 . S
O135 C112 1.264 . S
C136 C129 1.403 . S
C136 C137 1.399 . S
C136 H142 0.929 . S
C137 C117 1.449 . S
C137 C136 1.399 . S
C137 H143 0.930 . S
H138 C118 0.931 . S
H139 C119 0.930 . S
H140 C127 0.931 . S
H141 C128 0.929 . S
H142 C136 0.929 . S
H143 C137 0.930 . S
Mn144 O149 2.095 . S
Mn144 O159 2.162 . S
Mn144 O160 2.297 . S
Mn144 O168 2.385 . S
Mn144 O169 2.209 . S
Mn144 O170 2.094 . S
Mn145 O150 2.121 . S
Mn145 N152 2.257 . S
Mn145 N161 2.282 . S
Mn145 O169 2.215 . S
Mn145 O171 2.117 . S
C146 O168 1.234 . S
C146 O169 1.283 . S
C147 O159 1.281 . S
C147 O160 1.236 . S
C148 O170 1.240 . S
C148 O171 1.264 . S
O149 Mn144 2.095 . S
O149 C158 1.250 . S
O150 Mn145 2.121 . S
O150 C158 1.258 . S
C151 N152 1.326 . S
C151 C155 1.460 . S
C151 H157 0.929 . S
N152 Mn145 2.257 . S
N152 C151 1.326 . S
N152 C156 1.362 . S
C153 C154 1.258 . S
C153 C156 1.431 . S
C153 C173 1.449 . S
C154 C153 1.258 . S
C154 C155 1.477 . S
C154 H174 0.931 . S
C155 C151 1.460 . S
C155 C154 1.477 . S
C155 H175 0.930 . S
C156 N152 1.362 . S
C156 C153 1.431 . S
C156 C166 1.476 . S
H157 C151 0.929 . S
C158 O149 1.250 . S
C158 O150 1.258 . S
O159 Mn144 2.162 . S
O159 C147 1.281 . S
O160 Mn144 2.297 . S
O160 C147 1.236 . S
N161 Mn145 2.282 . S
N161 C162 1.328 . S
N161 C166 1.318 . S
C162 N161 1.328 . S
C162 C163 1.457 . S
C162 H167 0.929 . S
C163 C162 1.457 . S
C163 C164 1.291 . S
C163 H176 0.931 . S
C164 C163 1.291 . S
C164 C165 1.373 . S
C164 H177 0.929 . S
C165 C164 1.373 . S
C165 C166 1.396 . S
C165 C172 1.403 . S
C166 C156 1.476 . S
C166 N161 1.318 . S
C166 C165 1.396 . S
H167 C162 0.929 . S
O168 Mn144 2.385 . S
O168 C146 1.234 . S
O169 Mn144 2.209 . S
O169 Mn145 2.215 . S
O169 C146 1.283 . S
O170 Mn144 2.094 . S
O170 C148 1.240 . S
O171 Mn145 2.117 . S
O171 C148 1.264 . S
C172 C165 1.403 . S
C172 C173 1.399 . S
C172 H178 0.929 . S
C173 C153 1.449 . S
C173 C172 1.399 . S
C173 H179 0.930 . S
H174 C154 0.931 . S
H175 C155 0.930 . S
H176 C163 0.931 . S
H177 C164 0.929 . S
H178 C172 0.929 . S
H179 C173 0.930 . S
Mn180 O185 2.095 . S
Mn180 O195 2.162 . S
Mn180 O196 2.297 . S
Mn180 O204 2.385 . S
Mn180 O205 2.209 . S
Mn180 O206 2.094 . S
Mn181 O186 2.121 . S
Mn181 N188 2.257 . S
Mn181 N197 2.282 . S
Mn181 O205 2.215 . S
Mn181 O207 2.117 . S
C182 O204 1.234 . S
C182 O205 1.283 . S
C183 O195 1.281 . S
C183 O196 1.236 . S
C184 O206 1.240 . S
C184 O207 1.264 . S
O185 Mn180 2.095 . S
O185 C194 1.250 . S
O186 Mn181 2.121 . S
O186 C194 1.258 . S
C187 N188 1.326 . S
C187 C191 1.460 . S
C187 H193 0.929 . S
N188 Mn181 2.257 . S
N188 C187 1.326 . S
N188 C192 1.362 . S
C189 C190 1.258 . S
C189 C192 1.431 . S
C189 C209 1.449 . S
C190 C189 1.258 . S
C190 C191 1.477 . S
C190 H210 0.931 . S
C191 C187 1.460 . S
C191 C190 1.477 . S
C191 H211 0.930 . S
C192 N188 1.362 . S
C192 C189 1.431 . S
C192 C202 1.476 . S
H193 C187 0.929 . S
C194 O185 1.250 . S
C194 O186 1.258 . S
O195 Mn180 2.162 . S
O195 C183 1.281 . S
O196 Mn180 2.297 . S
O196 C183 1.236 . S
N197 Mn181 2.282 . S
N197 C198 1.328 . S
N197 C202 1.318 . S
C198 N197 1.328 . S
C198 C199 1.457 . S
C198 H203 0.929 . S
C199 C198 1.457 . S
C199 C200 1.291 . S
C199 H212 0.931 . S
C200 C199 1.291 . S
C200 C201 1.373 . S
C200 H213 0.929 . S
C201 C200 1.373 . S
C201 C202 1.396 . S
C201 C208 1.403 . S
C202 C192 1.476 . S
C202 N197 1.318 . S
C202 C201 1.396 . S
H203 C198 0.929 . S
O204 Mn180 2.385 . S
O204 C182 1.234 . S
O205 Mn180 2.209 . S
O205 Mn181 2.215 . S
O205 C182 1.283 . S
O206 Mn180 2.094 . S
O206 C184 1.240 . S
O207 Mn181 2.117 . S
O207 C184 1.264 . S
C208 C201 1.403 . S
C208 C209 1.399 . S
C208 H214 0.929 . S
C209 C189 1.449 . S
C209 C208 1.399 . S
C209 H215 0.930 . S
H210 C190 0.931 . S
H211 C191 0.930 . S
H212 C199 0.931 . S
H213 C200 0.929 . S
H214 C208 0.929 . S
H215 C209 0.930 . S
Mn216 O221 2.095 . S
Mn216 O231 2.162 . S
Mn216 O232 2.297 . S
Mn216 O240 2.385 . S
Mn216 O241 2.209 . S
Mn216 O242 2.094 . S
Mn217 O222 2.121 . S
Mn217 N224 2.257 . S
Mn217 N233 2.282 . S
Mn217 O241 2.215 . S
Mn217 O243 2.117 . S
C218 O240 1.234 . S
C218 O241 1.283 . S
C219 O231 1.281 . S
C219 O232 1.236 . S
C220 O242 1.240 . S
C220 O243 1.264 . S
O221 Mn216 2.095 . S
O221 C230 1.250 . S
O222 Mn217 2.121 . S
O222 C230 1.258 . S
C223 N224 1.326 . S
C223 C227 1.460 . S
C223 H229 0.929 . S
N224 Mn217 2.257 . S
N224 C223 1.326 . S
N224 C228 1.362 . S
C225 C226 1.258 . S
C225 C228 1.431 . S
C225 C245 1.449 . S
C226 C225 1.258 . S
C226 C227 1.477 . S
C226 H246 0.931 . S
C227 C223 1.460 . S
C227 C226 1.477 . S
C227 H247 0.930 . S
C228 N224 1.362 . S
C228 C225 1.431 . S
C228 C238 1.476 . S
H229 C223 0.929 . S
C230 O221 1.250 . S
C230 O222 1.258 . S
O231 Mn216 2.162 . S
O231 C219 1.281 . S
O232 Mn216 2.297 . S
O232 C219 1.236 . S
N233 Mn217 2.282 . S
N233 C234 1.328 . S
N233 C238 1.318 . S
C234 N233 1.328 . S
C234 C235 1.457 . S
C234 H239 0.929 . S
C235 C234 1.457 . S
C235 C236 1.291 . S
C235 H248 0.931 . S
C236 C235 1.291 . S
C236 C237 1.373 . S
C236 H249 0.929 . S
C237 C236 1.373 . S
C237 C238 1.396 . S
C237 C244 1.403 . S
C238 C228 1.476 . S
C238 N233 1.318 . S
C238 C237 1.396 . S
H239 C234 0.929 . S
O240 Mn216 2.385 . S
O240 C218 1.234 . S
O241 Mn216 2.209 . S
O241 Mn217 2.215 . S
O241 C218 1.283 . S
O242 Mn216 2.094 . S
O242 C220 1.240 . S
O243 Mn217 2.117 . S
O243 C220 1.264 . S
C244 C237 1.403 . S
C244 C245 1.399 . S
C244 H250 0.929 . S
C245 C225 1.449 . S
C245 C244 1.399 . S
C245 H251 0.930 . S
H246 C226 0.931 . S
H247 C227 0.930 . S
H248 C235 0.931 . S
H249 C236 0.929 . S
H250 C244 0.929 . S
H251 C245 0.930 . S
Mn252 O257 2.095 . S
Mn252 O267 2.162 . S
Mn252 O268 2.297 . S
Mn252 O276 2.385 . S
Mn252 O277 2.209 . S
Mn252 O278 2.094 . S
Mn253 O258 2.121 . S
Mn253 N260 2.257 . S
Mn253 N269 2.282 . S
Mn253 O277 2.215 . S
Mn253 O279 2.117 . S
C254 O276 1.234 . S
C254 O277 1.283 . S
C255 O267 1.281 . S
C255 O268 1.236 . S
C256 O278 1.240 . S
C256 O279 1.264 . S
O257 Mn252 2.095 . S
O257 C266 1.250 . S
O258 Mn253 2.121 . S
O258 C266 1.258 . S
C259 N260 1.326 . S
C259 C263 1.460 . S
C259 H265 0.929 . S
N260 Mn253 2.257 . S
N260 C259 1.326 . S
N260 C264 1.362 . S
C261 C262 1.258 . S
C261 C264 1.431 . S
C261 C281 1.449 . S
C262 C261 1.258 . S
C262 C263 1.477 . S
C262 H282 0.931 . S
C263 C259 1.460 . S
C263 C262 1.477 . S
C263 H283 0.930 . S
C264 N260 1.362 . S
C264 C261 1.431 . S
C264 C274 1.476 . S
H265 C259 0.929 . S
C266 O257 1.250 . S
C266 O258 1.258 . S
O267 Mn252 2.162 . S
O267 C255 1.281 . S
O268 Mn252 2.297 . S
O268 C255 1.236 . S
N269 Mn253 2.282 . S
N269 C270 1.328 . S
N269 C274 1.318 . S
C270 N269 1.328 . S
C270 C271 1.457 . S
C270 H275 0.929 . S
C271 C270 1.457 . S
C271 C272 1.291 . S
C271 H284 0.931 . S
C272 C271 1.291 . S
C272 C273 1.373 . S
C272 H285 0.929 . S
C273 C272 1.373 . S
C273 C274 1.396 . S
C273 C280 1.403 . S
C274 C264 1.476 . S
C274 N269 1.318 . S
C274 C273 1.396 . S
H275 C270 0.929 . S
O276 Mn252 2.385 . S
O276 C254 1.234 . S
O277 Mn252 2.209 . S
O277 Mn253 2.215 . S
O277 C254 1.283 . S
O278 Mn252 2.094 . S
O278 C256 1.240 . S
O279 Mn253 2.117 . S
O279 C256 1.264 . S
C280 C273 1.403 . S
C280 C281 1.399 . S
C280 H286 0.929 . S
C281 C261 1.449 . S
C281 C280 1.399 . S
C281 H287 0.930 . S
H282 C262 0.931 . S
H283 C263 0.930 . S
H284 C271 0.931 . S
H285 C272 0.929 . S
H286 C280 0.929 . S
H287 C281 0.930 . S
Mn288 O293 2.095 . S
Mn288 O303 2.162 . S
Mn288 O304 2.297 . S
Mn288 O312 2.385 . S
Mn288 O313 2.209 . S
Mn288 O314 2.094 . S
Mn289 O294 2.121 . S
Mn289 N296 2.257 . S
Mn289 N305 2.282 . S
Mn289 O313 2.215 . S
Mn289 O315 2.117 . S
C290 O312 1.234 . S
C290 O313 1.283 . S
C291 O303 1.281 . S
C291 O304 1.236 . S
C292 O314 1.240 . S
C292 O315 1.264 . S
O293 Mn288 2.095 . S
O293 C302 1.250 . S
O294 Mn289 2.121 . S
O294 C302 1.258 . S
C295 N296 1.326 . S
C295 C299 1.460 . S
C295 H301 0.929 . S
N296 Mn289 2.257 . S
N296 C295 1.326 . S
N296 C300 1.362 . S
C297 C298 1.258 . S
C297 C300 1.431 . S
C297 C317 1.449 . S
C298 C297 1.258 . S
C298 C299 1.477 . S
C298 H318 0.931 . S
C299 C295 1.460 . S
C299 C298 1.477 . S
C299 H319 0.930 . S
C300 N296 1.362 . S
C300 C297 1.431 . S
C300 C310 1.476 . S
H301 C295 0.929 . S
C302 O293 1.250 . S
C302 O294 1.258 . S
O303 Mn288 2.162 . S
O303 C291 1.281 . S
O304 Mn288 2.297 . S
O304 C291 1.236 . S
N305 Mn289 2.282 . S
N305 C306 1.328 . S
N305 C310 1.318 . S
C306 N305 1.328 . S
C306 C307 1.457 . S
C306 H311 0.929 . S
C307 C306 1.457 . S
C307 C308 1.291 . S
C307 H320 0.931 . S
C308 C307 1.291 . S
C308 C309 1.373 . S
C308 H321 0.929 . S
C309 C308 1.373 . S
C309 C310 1.396 . S
C309 C316 1.403 . S
C310 C300 1.476 . S
C310 N305 1.318 . S
C310 C309 1.396 . S
H311 C306 0.929 . S
O312 Mn288 2.385 . S
O312 C290 1.234 . S
O313 Mn288 2.209 . S
O313 Mn289 2.215 . S
O313 C290 1.283 . S
O314 Mn288 2.094 . S
O314 C292 1.240 . S
O315 Mn289 2.117 . S
O315 C292 1.264 . S
C316 C309 1.403 . S
C316 C317 1.399 . S
C316 H322 0.929 . S
C317 C297 1.449 . S
C317 C316 1.399 . S
C317 H323 0.930 . S
H318 C298 0.931 . S
H319 C299 0.930 . S
H320 C307 0.931 . S
H321 C308 0.929 . S
H322 C316 0.929 . S
H323 C317 0.930 . S
C324 C325 1.349 . S
C324 C326 1.327 . S
C324 H349 0.950 . S
C325 C324 1.349 . S
C325 C341 1.349 1_554 S
C326 C324 1.327 . S
C326 C345 1.429 . S
C326 H350 0.950 . S
C327 C344 1.574 . S
C327 C346 1.368 1_556 S
C327 H351 0.949 . S
H328 C332 0.949 . S
C329 C330 1.349 1_556 S
C329 C331 1.327 . S
C329 H352 0.950 . S
C330 C329 1.349 1_554 S
C330 C342 1.349 . S
C331 C329 1.327 . S
C331 C347 1.429 1_556 S
C331 H353 0.950 . S
C332 H328 0.949 . S
C332 C340 1.574 . S
C332 C348 1.368 . S
H333 C341 0.950 . S
H334 C339 0.950 . S
H335 C340 0.949 . S
H336 C342 0.950 . S
H337 C343 0.950 . S
H338 C344 0.949 . S
C339 H334 0.950 . S
C339 C341 1.327 . S
C339 C345 1.429 1_556 S
C340 C332 1.574 . S
C340 H335 0.949 . S
C340 C346 1.368 . S
C341 C325 1.349 1_556 S
C341 H333 0.950 . S
C341 C339 1.327 . S
C342 C330 1.349 . S
C342 H336 0.950 . S
C342 C343 1.327 . S
C343 H337 0.950 . S
C343 C342 1.327 . S
C343 C347 1.429 . S
C344 C327 1.574 . S
C344 H338 0.949 . S
C344 C348 1.368 1_556 S
C345 C326 1.429 . S
C345 C339 1.429 1_554 S
C345 C346 1.523 . S
C346 C327 1.368 1_554 S
C346 C340 1.368 . S
C346 C345 1.523 . S
C347 C331 1.429 1_554 S
C347 C343 1.429 . S
C347 C348 1.523 . S
C348 C332 1.368 . S
C348 C344 1.368 1_554 S
C348 C347 1.523 . S
H349 C324 0.950 . S
H350 C326 0.950 . S
H351 C327 0.949 . S
H352 C329 0.950 . S
H353 C331 0.950 . S
C354 C355 1.349 . S
C354 C356 1.327 . S
C354 H379 0.950 . S
C355 C354 1.349 . S
C355 C371 1.349 1_554 S
C356 C354 1.327 . S
C356 C375 1.429 . S
C356 H380 0.950 . S
C357 C374 1.574 1_565 S
C357 C376 1.368 1_556 S
C357 H381 0.949 . S
H358 C362 0.949 . S
C359 C360 1.349 1_556 S
C359 C361 1.327 . S
C359 H382 0.950 . S
C360 C359 1.349 1_554 S
C360 C372 1.349 . S
C361 C359 1.327 . S
C361 C377 1.429 1_556 S
C361 H383 0.950 . S
C362 H358 0.949 . S
C362 C370 1.562 1_545 S
C362 C378 1.368 . S
H363 C371 0.950 . S
H364 C369 0.950 . S
H365 C370 0.958 . S
H366 C372 0.950 . S
H367 C373 0.950 . S
H368 C374 0.949 . S
C369 H364 0.950 . S
C369 C371 1.327 . S
C369 C375 1.429 1_556 S
C370 C362 1.562 1_565 S
C370 H365 0.958 . S
C370 C376 1.370 . S
C371 C355 1.349 1_556 S
C371 H363 0.950 . S
C371 C369 1.327 . S
C372 C360 1.349 . S
C372 H366 0.950 . S
C372 C373 1.327 . S
C373 H367 0.950 . S
C373 C372 1.327 . S
C373 C377 1.429 . S
C374 C357 1.574 1_545 S
C374 H368 0.949 . S
C374 C378 1.368 1_556 S
C375 C356 1.429 . S
C375 C369 1.429 1_554 S
C375 C376 1.523 . S
C376 C357 1.368 1_554 S
C376 C370 1.370 . S
C376 C375 1.523 . S
C377 C361 1.429 1_554 S
C377 C373 1.429 . S
C377 C378 1.523 . S
C378 C362 1.368 . S
C378 C374 1.368 1_554 S
C378 C377 1.523 . S
H379 C354 0.950 . S
H380 C356 0.950 . S
H381 C357 0.949 . S
H382 C359 0.950 . S
H383 C361 0.950 . S
C384 C385 1.349 . S
C384 C386 1.327 . S
C384 H409 0.950 . S
C385 C384 1.349 . S
C385 C401 1.349 1_554 S
C386 C384 1.327 . S
C386 C405 1.429 . S
C386 H410 0.950 . S
C387 C404 1.574 1_655 S
C387 C406 1.368 1_556 S
C387 H411 0.949 . S
H388 C392 0.949 . S
C389 C390 1.349 1_556 S
C389 C391 1.327 . S
C389 H412 0.950 . S
C390 C389 1.349 1_554 S
C390 C402 1.349 . S
C391 C389 1.327 . S
C391 C407 1.429 1_556 S
C391 H413 0.950 . S
C392 H388 0.949 . S
C392 C400 1.552 1_455 S
C392 C408 1.368 . S
H393 C401 0.950 . S
H394 C399 0.950 . S
H395 C400 0.955 . S
H396 C402 0.950 . S
H397 C403 0.950 . S
H398 C404 0.949 . S
C399 H394 0.950 . S
C399 C401 1.327 . S
C399 C405 1.429 1_556 S
C400 C392 1.552 1_655 S
C400 H395 0.955 . S
C400 C406 1.384 . S
C401 C385 1.349 1_556 S
C401 H393 0.950 . S
C401 C399 1.327 . S
C402 C390 1.349 . S
C402 H396 0.950 . S
C402 C403 1.327 . S
C403 H397 0.950 . S
C403 C402 1.327 . S
C403 C407 1.429 . S
C404 C387 1.574 1_455 S
C404 H398 0.949 . S
C404 C408 1.368 1_556 S
C405 C386 1.429 . S
C405 C399 1.429 1_554 S
C405 C406 1.523 . S
C406 C387 1.368 1_554 S
C406 C400 1.384 . S
C406 C405 1.523 . S
C407 C391 1.429 1_554 S
C407 C403 1.429 . S
C407 C408 1.523 . S
C408 C392 1.368 . S
C408 C404 1.368 1_554 S
C408 C407 1.523 . S
H409 C384 0.950 . S
H410 C386 0.950 . S
H411 C387 0.949 . S
H412 C389 0.950 . S
H413 C391 0.950 . S
C414 C415 1.349 . S
C414 C416 1.327 . S
C414 H439 0.950 . S
C415 C414 1.349 . S
C415 C431 1.349 . S
C416 C414 1.327 . S
C416 C435 1.429 . S
C416 H440 0.950 . S
C417 C434 1.574 . S
C417 C436 1.368 . S
C417 H441 0.949 . S
H418 C422 0.949 . S
C419 C420 1.349 . S
C419 C421 1.327 . S
C419 H442 0.950 . S
C420 C419 1.349 . S
C420 C432 1.349 . S
C421 C419 1.327 . S
C421 C437 1.429 . S
C421 H443 0.950 . S
C422 H418 0.949 . S
C422 C430 1.574 . S
C422 C438 1.368 . S
H423 C431 0.950 . S
H424 C429 0.950 . S
H425 C430 0.949 . S
H426 C432 0.950 . S
H427 C433 0.950 . S
H428 C434 0.949 . S
C429 H424 0.950 . S
C429 C431 1.327 . S
C429 C435 1.429 . S
C430 C422 1.574 . S
C430 H425 0.949 . S
C430 C436 1.368 . S
C431 C415 1.349 . S
C431 H423 0.950 . S
C431 C429 1.327 . S
C432 C420 1.349 . S
C432 H426 0.950 . S
C432 C433 1.327 . S
C433 H427 0.950 . S
C433 C432 1.327 . S
C433 C437 1.429 . S
C434 C417 1.574 . S
C434 H428 0.949 . S
C434 C438 1.368 . S
C435 C416 1.429 . S
C435 C429 1.429 . S
C435 C436 1.523 . S
C436 C417 1.368 . S
C436 C430 1.368 . S
C436 C435 1.523 . S
C437 C421 1.429 . S
C437 C433 1.429 . S
C437 C438 1.523 . S
C438 C422 1.368 . S
C438 C434 1.368 . S
C438 C437 1.523 . S
H439 C414 0.950 . S
H440 C416 0.950 . S
H441 C417 0.949 . S
H442 C419 0.950 . S
H443 C421 0.950 . S
C444 C445 1.349 . S
C444 C446 1.327 . S
C444 H469 0.950 . S
C445 C444 1.349 . S
C445 C461 1.349 . S
C446 C444 1.327 . S
C446 C465 1.429 . S
C446 H470 0.950 . S
C447 C464 1.574 . S
C447 C466 1.368 . S
C447 H471 0.949 . S
H448 C452 0.949 . S
C449 C450 1.349 . S
C449 C451 1.327 . S
C449 H472 0.950 . S
C450 C449 1.349 . S
C450 C462 1.349 . S
C451 C449 1.327 . S
C451 C467 1.429 . S
C451 H473 0.950 . S
C452 H448 0.949 . S
C452 C460 1.574 . S
C452 C468 1.368 . S
H453 C461 0.950 . S
H454 C459 0.950 . S
H455 C460 0.949 . S
H456 C462 0.950 . S
H457 C463 0.950 . S
H458 C464 0.949 . S
C459 H454 0.950 . S
C459 C461 1.327 . S
C459 C465 1.429 . S
C460 C452 1.574 . S
C460 H455 0.949 . S
C460 C466 1.368 . S
C461 C445 1.349 . S
C461 H453 0.950 . S
C461 C459 1.327 . S
C462 C450 1.349 . S
C462 H456 0.950 . S
C462 C463 1.327 . S
C463 H457 0.950 . S
C463 C462 1.327 . S
C463 C467 1.429 . S
C464 C447 1.574 . S
C464 H458 0.949 . S
C464 C468 1.368 . S
C465 C446 1.429 . S
C465 C459 1.429 . S
C465 C466 1.523 . S
C466 C447 1.368 . S
C466 C460 1.368 . S
C466 C465 1.523 . S
C467 C451 1.429 . S
C467 C463 1.429 . S
C467 C468 1.523 . S
C468 C452 1.368 . S
C468 C464 1.368 . S
C468 C467 1.523 . S
H469 C444 0.950 . S
H470 C446 0.950 . S
H471 C447 0.949 . S
H472 C449 0.950 . S
H473 C451 0.950 . S
C474 C475 1.349 . S
C474 C476 1.327 . S
C474 H499 0.950 . S
C475 C474 1.349 . S
C475 C491 1.349 . S
C476 C474 1.327 . S
C476 C495 1.429 . S
C476 H500 0.950 . S
C477 C494 1.574 . S
C477 C496 1.368 . S
C477 H501 0.949 . S
H478 C482 0.949 . S
C479 C480 1.349 . S
C479 C481 1.327 . S
C479 H502 0.950 . S
C480 C479 1.349 . S
C480 C492 1.349 . S
C481 C479 1.327 . S
C481 C497 1.429 . S
C481 H503 0.950 . S
C482 H478 0.949 . S
C482 C490 1.574 . S
C482 C498 1.368 . S
H483 C491 0.950 . S
H484 C489 0.950 . S
H485 C490 0.949 . S
H486 C492 0.950 . S
H487 C493 0.950 . S
H488 C494 0.949 . S
C489 H484 0.950 . S
C489 C491 1.327 . S
C489 C495 1.429 . S
C490 C482 1.574 . S
C490 H485 0.949 . S
C490 C496 1.368 . S
C491 C475 1.349 . S
C491 H483 0.950 . S
C491 C489 1.327 . S
C492 C480 1.349 . S
C492 H486 0.950 . S
C492 C493 1.327 . S
C493 H487 0.950 . S
C493 C492 1.327 . S
C493 C497 1.429 . S
C494 C477 1.574 . S
C494 H488 0.949 . S
C494 C498 1.368 . S
C495 C476 1.429 . S
C495 C489 1.429 . S
C495 C496 1.523 . S
C496 C477 1.368 . S
C496 C490 1.368 . S
C496 C495 1.523 . S
C497 C481 1.429 . S
C497 C493 1.429 . S
C497 C498 1.523 . S
C498 C482 1.368 . S
C498 C494 1.368 . S
C498 C497 1.523 . S
H499 C474 0.950 . S
H500 C476 0.950 . S
H501 C477 0.949 . S
H502 C479 0.950 . S
H503 C481 0.950 . S
C504 C505 1.349 . S
C504 C506 1.327 . S
C504 H529 0.950 . S
C505 C504 1.349 . S
C505 C521 1.349 . S
C506 C504 1.327 . S
C506 C525 1.429 . S
C506 H530 0.950 . S
C507 C524 1.574 . S
C507 C526 1.368 . S
C507 H531 0.949 . S
H508 C512 0.949 . S
C509 C510 1.349 . S
C509 C511 1.327 . S
C509 H532 0.950 . S
C510 C509 1.349 . S
C510 C522 1.349 . S
C511 C509 1.327 . S
C511 C527 1.429 . S
C511 H533 0.950 . S
C512 H508 0.949 . S
C512 C520 1.574 . S
C512 C528 1.368 . S
H513 C521 0.950 . S
H514 C519 0.950 . S
H515 C520 0.949 . S
H516 C522 0.950 . S
H517 C523 0.950 . S
H518 C524 0.949 . S
C519 H514 0.950 . S
C519 C521 1.327 . S
C519 C525 1.429 . S
C520 C512 1.574 . S
C520 H515 0.949 . S
C520 C526 1.368 . S
C521 C505 1.349 . S
C521 H513 0.950 . S
C521 C519 1.327 . S
C522 C510 1.349 . S
C522 H516 0.950 . S
C522 C523 1.327 . S
C523 H517 0.950 . S
C523 C522 1.327 . S
C523 C527 1.429 . S
C524 C507 1.574 . S
C524 H518 0.949 . S
C524 C528 1.368 . S
C525 C506 1.429 . S
C525 C519 1.429 . S
C525 C526 1.523 . S
C526 C507 1.368 . S
C526 C520 1.368 . S
C526 C525 1.523 . S
C527 C511 1.429 . S
C527 C523 1.429 . S
C527 C528 1.523 . S
C528 C512 1.368 . S
C528 C524 1.368 . S
C528 C527 1.523 . S
H529 C504 0.950 . S
H530 C506 0.950 . S
H531 C507 0.949 . S
H532 C509 0.950 . S
H533 C511 0.950 . S
C534 C535 1.349 . S
C534 C536 1.327 . S
C534 H559 0.950 . S
C535 C534 1.349 . S
C535 C551 1.349 . S
C536 C534 1.327 . S
C536 C555 1.429 . S
C536 H560 0.950 . S
C537 C554 1.574 . S
C537 C556 1.368 . S
C537 H561 0.949 . S
H538 C542 0.949 . S
C539 C540 1.349 . S
C539 C541 1.327 . S
C539 H562 0.950 . S
C540 C539 1.349 . S
C540 C552 1.349 . S
C541 C539 1.327 . S
C541 C557 1.429 . S
C541 H563 0.950 . S
C542 H538 0.949 . S
C542 C550 1.574 . S
C542 C558 1.368 . S
H543 C551 0.950 . S
H544 C549 0.950 . S
H545 C550 0.949 . S
H546 C552 0.950 . S
H547 C553 0.950 . S
H548 C554 0.949 . S
C549 H544 0.950 . S
C549 C551 1.327 . S
C549 C555 1.429 . S
C550 C542 1.574 . S
C550 H545 0.949 . S
C550 C556 1.368 . S
C551 C535 1.349 . S
C551 H543 0.950 . S
C551 C549 1.327 . S
C552 C540 1.349 . S
C552 H546 0.950 . S
C552 C553 1.327 . S
C553 H547 0.950 . S
C553 C552 1.327 . S
C553 C557 1.429 . S
C554 C537 1.574 . S
C554 H548 0.949 . S
C554 C558 1.368 . S
C555 C536 1.429 . S
C555 C549 1.429 . S
C555 C556 1.523 . S
C556 C537 1.368 . S
C556 C550 1.368 . S
C556 C555 1.523 . S
C557 C541 1.429 . S
C557 C553 1.429 . S
C557 C558 1.523 . S
C558 C542 1.368 . S
C558 C554 1.368 . S
C558 C557 1.523 . S
H559 C534 0.950 . S
H560 C536 0.950 . S
H561 C537 0.949 . S
H562 C539 0.950 . S
H563 C541 0.950 . S
C564 C565 1.349 . S
C564 C566 1.327 . S
C564 H589 0.950 . S
C565 C564 1.349 . S
C565 C581 1.349 . S
C566 C564 1.327 . S
C566 C585 1.429 . S
C566 H590 0.950 . S
C567 C584 1.574 . S
C567 C586 1.368 . S
C567 H591 0.949 . S
H568 C572 0.949 . S
C569 C570 1.349 . S
C569 C571 1.327 . S
C569 H592 0.950 . S
C570 C569 1.349 . S
C570 C582 1.349 . S
C571 C569 1.327 . S
C571 C587 1.429 . S
C571 H593 0.950 . S
C572 H568 0.949 . S
C572 C580 1.574 . S
C572 C588 1.368 . S
H573 C581 0.950 . S
H574 C579 0.950 . S
H575 C580 0.949 . S
H576 C582 0.950 . S
H577 C583 0.950 . S
H578 C584 0.949 . S
C579 H574 0.950 . S
C579 C581 1.327 . S
C579 C585 1.429 . S
C580 C572 1.574 . S
C580 H575 0.949 . S
C580 C586 1.368 . S
C581 C565 1.349 . S
C581 H573 0.950 . S
C581 C579 1.327 . S
C582 C570 1.349 . S
C582 H576 0.950 . S
C582 C583 1.327 . S
C583 H577 0.950 . S
C583 C582 1.327 . S
C583 C587 1.429 . S
C584 C567 1.574 . S
C584 H578 0.949 . S
C584 C588 1.368 . S
C585 C566 1.429 . S
C585 C579 1.429 . S
C585 C586 1.523 . S
C586 C567 1.368 . S
C586 C580 1.368 . S
C586 C585 1.523 . S
C587 C571 1.429 . S
C587 C583 1.429 . S
C587 C588 1.523 . S
C588 C572 1.368 . S
C588 C584 1.368 . S
C588 C587 1.523 . S
H589 C564 0.950 . S
H590 C566 0.950 . S
H591 C567 0.949 . S
H592 C569 0.950 . S
H593 C571 0.950 . S
C594 C595 1.349 . S
C594 C596 1.327 . S
C594 H619 0.950 . S
C595 C594 1.349 . S
C595 C611 1.349 . S
C596 C594 1.327 . S
C596 C615 1.429 . S
C596 H620 0.950 . S
C597 C614 1.574 . S
C597 C616 1.368 . S
C597 H621 0.949 . S
H598 C602 0.949 . S
C599 C600 1.349 . S
C599 C601 1.327 . S
C599 H622 0.950 . S
C600 C599 1.349 . S
C600 C612 1.349 . S
C601 C599 1.327 . S
C601 C617 1.429 . S
C601 H623 0.950 . S
C602 H598 0.949 . S
C602 C610 1.574 . S
C602 C618 1.368 . S
H603 C611 0.950 . S
H604 C609 0.950 . S
H605 C610 0.949 . S
H606 C612 0.950 . S
H607 C613 0.950 . S
H608 C614 0.949 . S
C609 H604 0.950 . S
C609 C611 1.327 . S
C609 C615 1.429 . S
C610 C602 1.574 . S
C610 H605 0.949 . S
C610 C616 1.368 . S
C611 C595 1.349 . S
C611 H603 0.950 . S
C611 C609 1.327 . S
C612 C600 1.349 . S
C612 H606 0.950 . S
C612 C613 1.327 . S
C613 H607 0.950 . S
C613 C612 1.327 . S
C613 C617 1.429 . S
C614 C597 1.574 . S
C614 H608 0.949 . S
C614 C618 1.368 . S
C615 C596 1.429 . S
C615 C609 1.429 . S
C615 C616 1.523 . S
C616 C597 1.368 . S
C616 C610 1.368 . S
C616 C615 1.523 . S
C617 C601 1.429 . S
C617 C613 1.429 . S
C617 C618 1.523 . S
C618 C602 1.368 . S
C618 C614 1.368 . S
C618 C617 1.523 . S
H619 C594 0.950 . S
H620 C596 0.950 . S
H621 C597 0.949 . S
H622 C599 0.950 . S
H623 C601 0.950 . S
C624 C625 1.349 . S
C624 C626 1.327 . S
C624 H649 0.950 . S
C625 C624 1.349 . S
C625 C641 1.349 . S
C626 C624 1.327 . S
C626 C645 1.429 . S
C626 H650 0.950 . S
C627 C644 1.574 . S
C627 C646 1.368 . S
C627 H651 0.949 . S
H628 C632 0.949 . S
C629 C630 1.349 . S
C629 C631 1.327 . S
C629 H652 0.950 . S
C630 C629 1.349 . S
C630 C642 1.349 . S
C631 C629 1.327 . S
C631 C647 1.429 . S
C631 H653 0.950 . S
C632 H628 0.949 . S
C632 C640 1.574 . S
C632 C648 1.368 . S
H633 C641 0.950 . S
H634 C639 0.950 . S
H635 C640 0.949 . S
H636 C642 0.950 . S
H637 C643 0.950 . S
H638 C644 0.949 . S
C639 H634 0.950 . S
C639 C641 1.327 . S
C639 C645 1.429 . S
C640 C632 1.574 . S
C640 H635 0.949 . S
C640 C646 1.368 . S
C641 C625 1.349 . S
C641 H633 0.950 . S
C641 C639 1.327 . S
C642 C630 1.349 . S
C642 H636 0.950 . S
C642 C643 1.327 . S
C643 H637 0.950 . S
C643 C642 1.327 . S
C643 C647 1.429 . S
C644 C627 1.574 . S
C644 H638 0.949 . S
C644 C648 1.368 . S
C645 C626 1.429 . S
C645 C639 1.429 . S
C645 C646 1.523 . S
C646 C627 1.368 . S
C646 C640 1.368 . S
C646 C645 1.523 . S
C647 C631 1.429 . S
C647 C643 1.429 . S
C647 C648 1.523 . S
C648 C632 1.368 . S
C648 C644 1.368 . S
C648 C647 1.523 . S
H649 C624 0.950 . S
H650 C626 0.950 . S
H651 C627 0.949 . S
H652 C629 0.950 . S
H653 C631 0.950 . S
C654 C655 1.349 . S
C654 C656 1.327 . S
C654 H679 0.950 . S
C655 C654 1.349 . S
C655 C671 1.349 . S
C656 C654 1.327 . S
C656 C675 1.429 . S
C656 H680 0.950 . S
C657 C674 1.574 . S
C657 C676 1.368 . S
C657 H681 0.949 . S
H658 C662 0.949 . S
C659 C660 1.349 . S
C659 C661 1.327 . S
C659 H682 0.950 . S
C660 C659 1.349 . S
C660 C672 1.349 . S
C661 C659 1.327 . S
C661 C677 1.429 . S
C661 H683 0.950 . S
C662 H658 0.949 . S
C662 C670 1.574 . S
C662 C678 1.368 . S
H663 C671 0.950 . S
H664 C669 0.950 . S
H665 C670 0.949 . S
H666 C672 0.950 1_545 S
H667 C673 0.950 . S
H668 C674 0.949 . S
C669 H664 0.950 . S
C669 C671 1.327 . S
C669 C675 1.429 . S
C670 C662 1.574 . S
C670 H665 0.949 . S
C670 C676 1.368 . S
C671 C655 1.349 . S
C671 H663 0.950 . S
C671 C669 1.327 . S
C672 C660 1.349 . S
C672 H666 0.950 1_565 S
C672 C673 1.327 . S
C673 H667 0.950 . S
C673 C672 1.327 . S
C673 C677 1.429 . S
C674 C657 1.574 . S
C674 H668 0.949 . S
C674 C678 1.368 . S
C675 C656 1.429 . S
C675 C669 1.429 . S
C675 C676 1.523 . S
C676 C657 1.368 . S
C676 C670 1.368 . S
C676 C675 1.523 . S
C677 C661 1.429 . S
C677 C673 1.429 . S
C677 C678 1.523 . S
C678 C662 1.368 . S
C678 C674 1.368 . S
C678 C677 1.523 . S
H679 C654 0.950 . S
H680 C656 0.950 . S
H681 C657 0.949 . S
H682 C659 0.950 . S
H683 C661 0.950 . S
C684 C685 1.349 . S
C684 C686 1.327 . S
C684 H709 0.950 . S
C685 C684 1.349 . S
C685 C701 1.349 . S
C686 C684 1.327 . S
C686 C705 1.429 . S
C686 H710 0.950 . S
C687 C704 1.574 . S
C687 C706 1.368 . S
C687 H711 0.949 . S
H688 C692 0.949 . S
C689 C690 1.349 . S
C689 C691 1.327 . S
C689 H712 0.950 . S
C690 C689 1.349 . S
C690 C702 1.349 . S
C691 C689 1.327 . S
C691 C707 1.429 . S
C691 H713 0.950 . S
C692 H688 0.949 . S
C692 C700 1.574 . S
C692 C708 1.368 . S
H693 C701 0.950 . S
H694 C699 0.950 . S
H695 C700 0.949 . S
H696 C702 0.950 . S
H697 C703 0.950 . S
H698 C704 0.949 . S
C699 H694 0.950 . S
C699 C701 1.327 . S
C699 C705 1.429 . S
C700 C692 1.574 . S
C700 H695 0.949 . S
C700 C706 1.368 . S
C701 C685 1.349 . S
C701 H693 0.950 . S
C701 C699 1.327 . S
C702 C690 1.349 . S
C702 H696 0.950 . S
C702 C703 1.327 . S
C703 H697 0.950 . S
C703 C702 1.327 . S
C703 C707 1.429 . S
C704 C687 1.574 . S
C704 H698 0.949 . S
C704 C708 1.368 . S
C705 C686 1.429 . S
C705 C699 1.429 . S
C705 C706 1.523 . S
C706 C687 1.368 . S
C706 C700 1.368 . S
C706 C705 1.523 . S
C707 C691 1.429 . S
C707 C703 1.429 . S
C707 C708 1.523 . S
C708 C692 1.368 . S
C708 C704 1.368 . S
C708 C707 1.523 . S
H709 C684 0.950 . S
H710 C686 0.950 . S
H711 C687 0.949 . S
H712 C689 0.950 . S
H713 C691 0.950 . S
C714 C715 1.349 . S
C714 C716 1.327 . S
C714 H739 0.950 1_655 S
C715 C714 1.349 . S
C715 C731 1.349 . S
C716 C714 1.327 . S
C716 C735 1.429 . S
C716 H740 0.950 . S
C717 C734 1.574 . S
C717 C736 1.368 . S
C717 H741 0.949 . S
H718 C722 0.949 . S
C719 C720 1.349 . S
C719 C721 1.327 . S
C719 H742 0.950 . S
C720 C719 1.349 . S
C720 C732 1.349 . S
C721 C719 1.327 . S
C721 C737 1.429 . S
C721 H743 0.950 . S
C722 H718 0.949 . S
C722 C730 1.574 . S
C722 C738 1.368 . S
H723 C731 0.950 . S
H724 C729 0.950 . S
H725 C730 0.949 . S
H726 C732 0.950 . S
H727 C733 0.950 . S
H728 C734 0.949 . S
C729 H724 0.950 . S
C729 C731 1.327 . S
C729 C735 1.429 . S
C730 C722 1.574 . S
C730 H725 0.949 . S
C730 C736 1.368 . S
C731 C715 1.349 . S
C731 H723 0.950 . S
C731 C729 1.327 . S
C732 C720 1.349 . S
C732 H726 0.950 . S
C732 C733 1.327 . S
C733 H727 0.950 . S
C733 C732 1.327 . S
C733 C737 1.429 . S
C734 C717 1.574 . S
C734 H728 0.949 . S
C734 C738 1.368 . S
C735 C716 1.429 . S
C735 C729 1.429 . S
C735 C736 1.523 . S
C736 C717 1.368 . S
C736 C730 1.368 . S
C736 C735 1.523 . S
C737 C721 1.429 . S
C737 C733 1.429 . S
C737 C738 1.523 . S
C738 C722 1.368 . S
C738 C734 1.368 . S
C738 C737 1.523 . S
H739 C714 0.950 1_455 S
H740 C716 0.950 . S
H741 C717 0.949 . S
H742 C719 0.950 . S
H743 C721 0.950 . S
C744 C745 1.349 . S
C744 C746 1.327 . S
C744 H769 0.950 . S
C745 C744 1.349 . S
C745 C761 1.349 . S
C746 C744 1.327 . S
C746 C765 1.429 . S
C746 H770 0.950 . S
C747 C764 1.574 . S
C747 C766 1.368 . S
C747 H771 0.949 . S
H748 C752 0.949 . S
C749 C750 1.349 . S
C749 C751 1.327 . S
C749 H772 0.950 . S
C750 C749 1.349 . S
C750 C762 1.349 . S
C751 C749 1.327 . S
C751 C767 1.429 . S
C751 H773 0.950 . S
C752 H748 0.949 . S
C752 C760 1.574 . S
C752 C768 1.368 . S
H753 C761 0.950 . S
H754 C759 0.950 . S
H755 C760 0.949 . S
H756 C762 0.950 . S
H757 C763 0.950 . S
H758 C764 0.949 . S
C759 H754 0.950 . S
C759 C761 1.327 . S
C759 C765 1.429 . S
C760 C752 1.574 . S
C760 H755 0.949 . S
C760 C766 1.368 . S
C761 C745 1.349 . S
C761 H753 0.950 . S
C761 C759 1.327 . S
C762 C750 1.349 . S
C762 H756 0.950 . S
C762 C763 1.327 . S
C763 H757 0.950 . S
C763 C762 1.327 . S
C763 C767 1.429 . S
C764 C747 1.574 . S
C764 H758 0.949 . S
C764 C768 1.368 . S
C765 C746 1.429 . S
C765 C759 1.429 . S
C765 C766 1.523 . S
C766 C747 1.368 . S
C766 C760 1.368 . S
C766 C765 1.523 . S
C767 C751 1.429 . S
C767 C763 1.429 . S
C767 C768 1.523 . S
C768 C752 1.368 . S
C768 C764 1.368 . S
C768 C767 1.523 . S
H769 C744 0.950 . S
H770 C746 0.950 . S
H771 C747 0.949 . S
H772 C749 0.950 . S
H773 C751 0.950 . S
C774 C775 1.349 . S
C774 C776 1.327 . S
C774 H799 0.950 . S
C775 C774 1.349 . S
C775 C791 1.349 . S
C776 C774 1.327 . S
C776 C795 1.429 . S
C776 H800 0.950 . S
C777 C794 1.574 1_455 S
C777 C796 1.368 . S
C777 H801 0.949 . S
H778 C782 0.949 . S
C779 C780 1.349 . S
C779 C781 1.327 . S
C779 H802 0.950 . S
C780 C779 1.349 . S
C780 C792 1.349 . S
C781 C779 1.327 . S
C781 C797 1.429 . S
C781 H803 0.950 . S
C782 H778 0.949 . S
C782 C790 1.574 . S
C782 C798 1.368 . S
H783 C791 0.950 . S
H784 C789 0.950 . S
H785 C790 0.949 . S
H786 C792 0.950 . S
H787 C793 0.950 . S
H788 C794 0.949 . S
C789 H784 0.950 . S
C789 C791 1.327 . S
C789 C795 1.429 . S
C790 C782 1.574 . S
C790 H785 0.949 . S
C790 C796 1.368 . S
C791 C775 1.349 . S
C791 H783 0.950 . S
C791 C789 1.327 . S
C792 C780 1.349 . S
C792 H786 0.950 . S
C792 C793 1.327 . S
C793 H787 0.950 . S
C793 C792 1.327 . S
C793 C797 1.429 . S
C794 C777 1.574 1_655 S
C794 H788 0.949 . S
C794 C798 1.368 1_655 S
C795 C776 1.429 . S
C795 C789 1.429 . S
C795 C796 1.523 . S
C796 C777 1.368 . S
C796 C790 1.368 . S
C796 C795 1.523 . S
C797 C781 1.429 . S
C797 C793 1.429 . S
C797 C798 1.523 1_655 S
C798 C782 1.368 . S
C798 C794 1.368 1_455 S
C798 C797 1.523 1_455 S
H799 C774 0.950 . S
H800 C776 0.950 . S
H801 C777 0.949 . S
H802 C779 0.950 . S
H803 C781 0.950 . S
C804 C805 1.349 . S
C804 C806 1.327 . S
C804 H829 0.950 . S
C805 C804 1.349 . S
C805 C821 1.349 . S
C806 C804 1.327 . S
C806 C825 1.429 . S
C806 H830 0.950 . S
C807 C824 1.574 . S
C807 C826 1.368 . S
C807 H831 0.949 . S
H808 C812 0.949 . S
C809 C810 1.349 . S
C809 C811 1.327 . S
C809 H832 0.950 . S
C810 C809 1.349 . S
C810 C822 1.349 . S
C811 C809 1.327 . S
C811 C827 1.429 . S
C811 H833 0.950 . S
C812 H808 0.949 . S
C812 C820 1.574 . S
C812 C828 1.368 . S
H813 C821 0.950 . S
H814 C819 0.950 . S
H815 C820 0.949 . S
H816 C822 0.950 . S
H817 C823 0.950 . S
H818 C824 0.949 . S
C819 H814 0.950 . S
C819 C821 1.327 . S
C819 C825 1.429 . S
C820 C812 1.574 . S
C820 H815 0.949 . S
C820 C826 1.368 . S
C821 C805 1.349 . S
C821 H813 0.950 . S
C821 C819 1.327 . S
C822 C810 1.349 . S
C822 H816 0.950 . S
C822 C823 1.327 . S
C823 H817 0.950 . S
C823 C822 1.327 . S
C823 C827 1.429 . S
C824 C807 1.574 . S
C824 H818 0.949 . S
C824 C828 1.368 . S
C825 C806 1.429 . S
C825 C819 1.429 . S
C825 C826 1.523 . S
C826 C807 1.368 . S
C826 C820 1.368 . S
C826 C825 1.523 . S
C827 C811 1.429 . S
C827 C823 1.429 . S
C827 C828 1.523 . S
C828 C812 1.368 . S
C828 C824 1.368 . S
C828 C827 1.523 . S
H829 C804 0.950 . S
H830 C806 0.950 . S
H831 C807 0.949 . S
H832 C809 0.950 . S
H833 C811 0.950 . S
C834 C835 1.349 . S
C834 C836 1.327 . S
C834 H859 0.950 . S
C835 C834 1.349 . S
C835 C851 1.349 . S
C836 C834 1.327 . S
C836 C855 1.429 . S
C836 H860 0.950 . S
C837 C854 1.574 . S
C837 C856 1.368 1_545 S
C837 H861 0.949 . S
H838 C842 0.949 . S
C839 C840 1.349 . S
C839 C841 1.327 . S
C839 H862 0.950 . S
C840 C839 1.349 . S
C840 C852 1.349 . S
C841 C839 1.327 . S
C841 C857 1.429 . S
C841 H863 0.950 . S
C842 H838 0.949 . S
C842 C850 1.574 1_545 S
C842 C858 1.368 . S
H843 C851 0.950 . S
H844 C849 0.950 . S
H845 C850 0.949 . S
H846 C852 0.950 . S
H847 C853 0.950 . S
H848 C854 0.949 . S
C849 H844 0.950 . S
C849 C851 1.327 . S
C849 C855 1.429 . S
C850 C842 1.574 1_565 S
C850 H845 0.949 . S
C850 C856 1.368 . S
C851 C835 1.349 . S
C851 H843 0.950 . S
C851 C849 1.327 . S
C852 C840 1.349 . S
C852 H846 0.950 . S
C852 C853 1.327 . S
C853 H847 0.950 . S
C853 C852 1.327 . S
C853 C857 1.429 . S
C854 C837 1.574 . S
C854 H848 0.949 . S
C854 C858 1.368 . S
C855 C836 1.429 . S
C855 C849 1.429 . S
C855 C856 1.523 . S
C856 C837 1.368 1_565 S
C856 C850 1.368 . S
C856 C855 1.523 . S
C857 C841 1.429 . S
C857 C853 1.429 . S
C857 C858 1.523 . S
C858 C842 1.368 . S
C858 C854 1.368 . S
C858 C857 1.523 . S
H859 C834 0.950 . S
H860 C836 0.950 . S
H861 C837 0.949 . S
H862 C839 0.950 . S
H863 C841 0.950 . S
C325 C75 0.802 . S
C330 C2 0.796 . S
C355 C39 0.829 . S
C360 C3 0.828 . S
C385 C38 0.852 . S
C390 C74 0.854 . S
C415 C182 0.871 . S
C420 C110 0.869 . S
C445 C147 0.777 . S
C450 C111 0.778 . S
C475 C146 0.803 . S
C480 C183 0.810 . S
C505 C218 0.819 . S
C510 C291 0.827 . S
C535 C219 0.724 . S
C540 C255 0.723 . S
C565 C254 0.874 . S
C570 C290 0.876 . S
C595 C4 1.351 . S
C600 C256 1.354 . S
C625 C50 1.337 . S
C630 C302 1.334 . S
C655 C230 1.287 . S
C660 C76 1.310 . S
C685 C158 1.270 . S
C690 C86 1.269 . S
C715 C14 1.300 1_655 S
C720 C194 1.299 . S
C745 C112 1.369 . S
C750 C40 1.368 . S
C775 C266 1.324 . S
C780 C184 1.346 . S
C805 C122 1.353 . S
C810 C292 1.377 . S
C835 C220 1.336 . S
C840 C148 1.334 . S
