# Generated by pormake.
# Topology wjx, (5)-cn, num edge types: 1
# Building blocks:
#     Node 0, Type 0, BuildingBlock: XOMCOT_clean_sbu_1, # of connection points: 5
#     Node 1, Type 0, BuildingBlock: XOMCOT_clean_sbu_1, # of connection points: 5
#     Node 2, Type 0, BuildingBlock: XOMCOT_clean_sbu_1, # of connection points: 5
#     Node 3, Type 0, BuildingBlock: XOMCOT_clean_sbu_1, # of connection points: 5
#     Node 4, Type 0, BuildingBlock: XOMCOT_clean_sbu_1, # of connection points: 5
#     Node 5, Type 0, BuildingBlock: XOMCOT_clean_sbu_1, # of connection points: 5
#     Node 6, Type 0, BuildingBlock: XOMCOT_clean_sbu_1, # of connection points: 5
#     Node 7, Type 0, BuildingBlock: XOMCOT_clean_sbu_1, # of connection points: 5
#     Node 8, Type 0, BuildingBlock: XOMCOT_clean_sbu_1, # of connection points: 5
#     Node 9, Type 0, BuildingBlock: XOMCOT_clean_sbu_1, # of connection points: 5
#     Node 10, Type 0, BuildingBlock: XOMCOT_clean_sbu_1, # of connection points: 5
#     Node 11, Type 0, BuildingBlock: XOMCOT_clean_sbu_1, # of connection points: 5
#     Edge 12, Type (0, 0), BuildingBlock: XUDNAN_clean_linker_2, # of connection points: 2
#     Edge 13, Type (0, 0), BuildingBlock: XUDNAN_clean_linker_2, # of connection points: 2
#     Edge 14, Type (0, 0), BuildingBlock: XUDNAN_clean_linker_2, # of connection points: 2
#     Edge 15, Type (0, 0), BuildingBlock: XUDNAN_clean_linker_2, # of connection points: 2
#     Edge 16, Type (0, 0), BuildingBlock: XUDNAN_clean_linker_2, # of connection points: 2
#     Edge 17, Type (0, 0), BuildingBlock: XUDNAN_clean_linker_2, # of connection points: 2
#     Edge 18, Type (0, 0), BuildingBlock: XUDNAN_clean_linker_2, # of connection points: 2
#     Edge 19, Type (0, 0), BuildingBlock: XUDNAN_clean_linker_2, # of connection points: 2
#     Edge 20, Type (0, 0), BuildingBlock: XUDNAN_clean_linker_2, # of connection points: 2
#     Edge 21, Type (0, 0), BuildingBlock: XUDNAN_clean_linker_2, # of connection points: 2
#     Edge 22, Type (0, 0), BuildingBlock: XUDNAN_clean_linker_2, # of connection points: 2
#     Edge 23, Type (0, 0), BuildingBlock: XUDNAN_clean_linker_2, # of connection points: 2
#     Edge 24, Type (0, 0), BuildingBlock: XUDNAN_clean_linker_2, # of connection points: 2
#     Edge 25, Type (0, 0), BuildingBlock: XUDNAN_clean_linker_2, # of connection points: 2
#     Edge 26, Type (0, 0), BuildingBlock: XUDNAN_clean_linker_2, # of connection points: 2
#     Edge 27, Type (0, 0), BuildingBlock: XUDNAN_clean_linker_2, # of connection points: 2
#     Edge 28, Type (0, 0), BuildingBlock: XUDNAN_clean_linker_2, # of connection points: 2
#     Edge 29, Type (0, 0), BuildingBlock: XUDNAN_clean_linker_2, # of connection points: 2
#     Edge 30, Type (0, 0), BuildingBlock: XUDNAN_clean_linker_2, # of connection points: 2
#     Edge 31, Type (0, 0), BuildingBlock: XUDNAN_clean_linker_2, # of connection points: 2
#     Edge 32, Type (0, 0), BuildingBlock: XUDNAN_clean_linker_2, # of connection points: 2
#     Edge 33, Type (0, 0), BuildingBlock: XUDNAN_clean_linker_2, # of connection points: 2
#     Edge 34, Type (0, 0), BuildingBlock: XUDNAN_clean_linker_2, # of connection points: 2
#     Edge 35, Type (0, 0), BuildingBlock: XUDNAN_clean_linker_2, # of connection points: 2
#     Edge 36, Type (0, 0), BuildingBlock: XUDNAN_clean_linker_2, # of connection points: 2
#     Edge 37, Type (0, 0), BuildingBlock: XUDNAN_clean_linker_2, # of connection points: 2
#     Edge 38, Type (0, 0), BuildingBlock: XUDNAN_clean_linker_2, # of connection points: 2
#     Edge 39, Type (0, 0), BuildingBlock: XUDNAN_clean_linker_2, # of connection points: 2
#     Edge 40, Type (0, 0), BuildingBlock: XUDNAN_clean_linker_2, # of connection points: 2
#     Edge 41, Type (0, 0), BuildingBlock: XUDNAN_clean_linker_2, # of connection points: 2
# Relax obj value: 0.118
# Max RMSD: 0.106
# Mean RMSD: 0.106
data_MOF--net-wjx--node1-XOMCOT_clean_sbu_1--edge1-XUDNAN_clean_linker_2
_symmetry_space_group_name_H-M    P1
_symmetry_Int_Tables_number       1
_symmetry_cell_setting            triclinic
loop_
_symmetry_equiv_pos_as_xyz
'x, y, z'
_cell_length_a     72.723081
_cell_length_b     72.761064
_cell_length_c     17.593576
_cell_angle_alpha  89.885496
_cell_angle_beta   90.024505
_cell_angle_gamma 120.0367
loop_
_atom_site_label
_atom_site_type_symbol
_atom_site_fract_x
_atom_site_fract_y
_atom_site_fract_z
_atom_type_partial_charge
C0 C 0.14537 0.4652 0.21086 0.0
C1 C 0.14761 0.4653 0.28845 0.0
N2 N 0.13627 0.44517 0.31346 0.0
N3 N 0.13238 0.44513 0.18722 0.0
C4 C 0.12723 0.43317 0.25116 0.0
H5 H 0.15209 0.47899 0.17413 0.0
Co6 Co 0.12266 0.43827 0.08729 0.0
C7 C 0.08624 0.39481 0.09941 0.0
O8 O 0.09462 0.38861 0.04629 0.0
N9 N 0.11295 0.43174 0.98639 0.0
C10 C 0.09277 0.42548 0.8838 0.0
C11 C 0.0936 0.4274 0.96155 0.0
C12 C 0.12355 0.43214 0.92257 0.0
N13 N 0.11158 0.42841 0.85949 0.0
O14 O 0.13681 0.42181 0.07811 0.0
H15 H 0.08102 0.42625 0.99763 0.0
H16 H 0.13994 0.43589 0.92184 0.0
O17 O 0.09631 0.41399 0.12262 0.0
C18 C 0.15663 0.43452 0.06786 0.0
O19 O 0.16326 0.45494 0.06347 0.0
N20 N 0.11077 0.45594 0.09543 0.0
C21 C 0.09913 0.487 0.10851 0.0
C22 C 0.09051 0.4694 0.15762 0.0
C23 C 0.09649 0.45393 0.14994 0.0
C24 C 0.11944 0.47305 0.0479 0.0
C25 C 0.11362 0.48859 0.05272 0.0
H26 H 0.09024 0.44079 0.1895 0.0
H27 H 0.1313 0.47482 1.00683 0.0
H28 H 0.11632 0.41622 0.25265 0.0
H29 H 0.15647 0.4791 0.32413 0.0
H30 H 0.07946 0.42236 0.8477 0.0
H31 H 0.07938 0.4677 0.20174 0.0
H32 H 0.12095 0.50212 1.01469 0.0
C33 C 0.71331 0.15029 0.52293 0.0
C34 C 0.71559 0.15045 0.60049 0.0
N35 N 0.70425 0.13035 0.626 0.0
N36 N 0.70055 0.13018 0.49934 0.0
C37 C 0.69529 0.11831 0.5636 0.0
H38 H 0.71969 0.16413 0.48657 0.0
Co39 Co 0.68997 0.12326 0.40049 0.0
C40 C 0.67427 0.07649 0.38243 0.0
O41 O 0.66272 0.07502 0.3229 0.0
N42 N 0.6794 0.11715 0.29912 0.0
C43 C 0.66198 0.11653 0.19398 0.0
C44 C 0.66279 0.11858 0.27155 0.0
C45 C 0.68836 0.11406 0.2362 0.0
N46 N 0.67806 0.11372 0.17176 0.0
O47 O 0.71864 0.13365 0.36377 0.0
H48 H 0.65226 0.12186 0.30451 0.0
H49 H 0.70277 0.11315 0.23706 0.0
O50 O 0.68538 0.09444 0.41548 0.0
C51 C 0.72577 0.15235 0.33703 0.0
O52 O 0.7126 0.15976 0.33283 0.0
N53 N 0.663 0.11592 0.43853 0.0
C54 C 0.62727 0.11471 0.50296 0.0
C55 C 0.6281 0.09596 0.49344 0.0
C56 C 0.64627 0.0969 0.46148 0.0
C57 C 0.66229 0.13414 0.44699 0.0
C58 C 0.64461 0.13389 0.47808 0.0
H59 H 0.64688 0.08246 0.45736 0.0
H60 H 0.67573 0.14907 0.42909 0.0
H61 H 0.68404 0.10144 0.56534 0.0
H62 H 0.72437 0.16435 0.63581 0.0
H63 H 0.65081 0.11769 0.15635 0.0
H64 H 0.61515 0.08084 0.51267 0.0
H65 H 0.64461 0.14873 0.48281 0.0
C66 C 0.54809 0.68316 0.81379 0.0
C67 C 0.54491 0.68464 0.88977 0.0
N68 N 0.56307 0.68994 0.92722 0.0
N69 N 0.56814 0.6874 0.8025 0.0
C70 C 0.57698 0.69145 0.87282 0.0
H71 H 0.53648 0.67918 0.76913 0.0
Co72 Co 0.57778 0.68718 0.70425 0.0
C73 C 0.6076 0.67133 0.72247 0.0
O74 O 0.59784 0.65855 0.6652 0.0
N75 N 0.58729 0.68799 0.60203 0.0
C76 C 0.6083 0.69668 0.4996 0.0
C77 C 0.60746 0.69529 0.5777 0.0
C78 C 0.5766 0.68653 0.53697 0.0
N79 N 0.58884 0.69125 0.47399 0.0
O80 O 0.59438 0.71778 0.70547 0.0
H81 H 0.62114 0.70072 0.61425 0.0
H82 H 0.56053 0.68363 0.53562 0.0
O83 O 0.60165 0.68427 0.74553 0.0
C84 C 0.58262 0.72461 0.67832 0.0
O85 O 0.56322 0.71048 0.65764 0.0
N86 N 0.55948 0.65712 0.7031 0.0
C87 C 0.52671 0.61476 0.71431 0.0
C88 C 0.54355 0.62312 0.76632 0.0
C89 C 0.55965 0.64436 0.76023 0.0
C90 C 0.54274 0.6493 0.65399 0.0
C91 C 0.52654 0.62812 0.65726 0.0
H92 H 0.57162 0.65079 0.8041 0.0
H93 H 0.54086 0.65972 0.61564 0.0
H94 H 0.5933 0.69576 0.88373 0.0
H95 H 0.5302 0.6818 0.91554 0.0
H96 H 0.62245 0.70276 0.46485 0.0
H97 H 0.54401 0.61347 0.81246 0.0
H98 H 0.5133 0.62259 0.61819 0.0
C99 C 0.86473 0.57106 0.2674 0.0
C100 C 0.86516 0.57351 0.34466 0.0
N101 N 0.88543 0.5823 0.36794 0.0
N102 N 0.88466 0.57826 0.24162 0.0
C103 C 0.89704 0.58512 0.30451 0.0
H104 H 0.85054 0.56327 0.23314 0.0
Co105 Co 0.89061 0.57411 0.14206 0.0
C106 C 0.93574 0.60967 0.11045 0.0
O107 O 0.93661 0.60184 0.04433 0.0
N108 N 0.89529 0.5689 0.04084 0.0
C109 C 0.89448 0.55087 0.93759 0.0
C110 C 0.89307 0.55038 0.01538 0.0
C111 C 0.89747 0.58018 0.97666 0.0
N112 N 0.89734 0.56965 0.91337 0.0
O113 O 0.87735 0.58993 0.10591 0.0
H114 H 0.88971 0.53686 0.05053 0.0
H115 H 0.89858 0.59559 0.97619 0.0
O116 O 0.91876 0.60027 0.15059 0.0
C117 C 0.85827 0.57685 0.08609 0.0
O118 O 0.85219 0.55651 0.08595 0.0
N119 N 0.90145 0.55696 0.179 0.0
C120 C 0.91091 0.52566 0.22424 0.0
C121 C 0.92666 0.54499 0.19315 0.0
C122 C 0.92163 0.56044 0.17095 0.0
C123 C 0.88606 0.53847 0.21051 0.0
C124 C 0.89046 0.52274 0.23407 0.0
H125 H 0.93384 0.57459 0.14436 0.0
H126 H 0.87003 0.53565 0.2154 0.0
H127 H 0.91389 0.59059 0.30455 0.0
H128 H 0.85152 0.56833 0.38156 0.0
H129 H 0.89314 0.53824 0.90141 0.0
H130 H 0.94258 0.5479 0.18307 0.0
H131 H 0.8778 0.50829 0.25882 0.0
C132 C 0.32401 0.86304 0.53442 0.0
C133 C 0.32726 0.86286 0.6111 0.0
N134 N 0.32727 0.87976 0.64186 0.0
N135 N 0.32221 0.88011 0.51667 0.0
C136 C 0.32404 0.88996 0.5837 0.0
H137 H 0.3239 0.85192 0.49346 0.0
Co138 Co 0.32101 0.88733 0.41623 0.0
C139 C 0.34027 0.9334 0.40858 0.0
O140 O 0.35056 0.93193 0.34966 0.0
N141 N 0.31896 0.89383 0.31295 0.0
C142 C 0.30794 0.90456 0.21282 0.0
C143 C 0.30662 0.90185 0.29028 0.0
C144 C 0.32733 0.89149 0.24735 0.0
N145 N 0.32102 0.89805 0.18571 0.0
O146 O 0.29069 0.87575 0.42592 0.0
H147 H 0.29736 0.90576 0.32808 0.0
H148 H 0.33758 0.88483 0.24379 0.0
O149 O 0.32749 0.91651 0.44562 0.0
C150 C 0.28233 0.85609 0.40921 0.0
O151 O 0.29501 0.84893 0.38926 0.0
N152 N 0.35017 0.89578 0.40821 0.0
C153 C 0.38831 0.8955 0.4283 0.0
C154 C 0.38501 0.91082 0.46427 0.0
C155 C 0.36574 0.91053 0.45433 0.0
C156 C 0.35331 0.881 0.37238 0.0
C157 C 0.37242 0.88105 0.37929 0.0
H158 H 0.36271 0.92084 0.48961 0.0
H159 H 0.34022 0.86785 0.34364 0.0
H160 H 0.32415 0.90483 0.5894 0.0
H161 H 0.32992 0.85149 0.64185 0.0
H162 H 0.30004 0.91107 0.17944 0.0
H163 H 0.39643 0.92184 0.50465 0.0
H164 H 0.37409 0.86886 0.35022 0.0
C165 C 0.46026 0.31729 0.82608 0.0
C166 C 0.46266 0.31496 0.90227 0.0
N167 N 0.44483 0.31128 0.93875 0.0
N168 N 0.44102 0.31518 0.81377 0.0
C169 C 0.4319 0.31153 0.88366 0.0
H170 H 0.47178 0.32025 0.78196 0.0
Co171 Co 0.43153 0.31614 0.71529 0.0
C172 C 0.40731 0.33817 0.74061 0.0
O173 O 0.419 0.35151 0.68694 0.0
N174 N 0.42173 0.31573 0.61316 0.0
C175 C 0.40198 0.31195 0.51035 0.0
C176 C 0.40342 0.31427 0.58821 0.0
C177 C 0.43022 0.31265 0.54894 0.0
N178 N 0.41892 0.31095 0.48551 0.0
O179 O 0.4123 0.28587 0.72046 0.0
H180 H 0.39104 0.3136 0.62387 0.0
H181 H 0.4443 0.3112 0.54884 0.0
O182 O 0.41006 0.32256 0.75778 0.0
C183 C 0.4225 0.27715 0.69465 0.0
O184 O 0.44223 0.2896 0.67253 0.0
N185 N 0.45258 0.34581 0.70986 0.0
C186 C 0.48998 0.3858 0.71304 0.0
C187 C 0.47553 0.37893 0.77401 0.0
C188 C 0.45689 0.35902 0.771 0.0
C189 C 0.46621 0.35265 0.64959 0.0
C190 C 0.48432 0.37269 0.64874 0.0
H191 H 0.44657 0.35371 0.8201 0.0
H192 H 0.46415 0.34235 0.60317 0.0
H193 H 0.41597 0.30859 0.89372 0.0
H194 H 0.47655 0.31596 0.92887 0.0
H195 H 0.38889 0.31001 0.47533 0.0
H196 H 0.47901 0.38819 0.8255 0.0
H197 H 0.49432 0.37729 0.59875 0.0
C198 C 0.55059 0.86539 0.50154 0.0
C199 C 0.54691 0.86466 0.4248 0.0
N200 N 0.56361 0.88146 0.39226 0.0
N201 N 0.56943 0.88271 0.51764 0.0
C202 C 0.57716 0.89215 0.44952 0.0
H203 H 0.53977 0.85449 0.54356 0.0
Co204 Co 0.57834 0.89094 0.61744 0.0
C205 C 0.60759 0.93707 0.61493 0.0
O206 O 0.59823 0.93817 0.67719 0.0
N207 N 0.58729 0.8985 0.71991 0.0
C208 C 0.60878 0.90899 0.82067 0.0
C209 C 0.60759 0.9064 0.74312 0.0
C210 C 0.57643 0.89607 0.78526 0.0
N211 N 0.58911 0.90244 0.8474 0.0
O212 O 0.59647 0.87866 0.61042 0.0
H213 H 0.6208 0.91006 0.70575 0.0
H214 H 0.55946 0.88915 0.78827 0.0
O215 O 0.60124 0.91912 0.58251 0.0
C216 C 0.585 0.85929 0.63064 0.0
O217 O 0.56537 0.85272 0.65225 0.0
N218 N 0.55834 0.90019 0.62344 0.0
C219 C 0.51983 0.89911 0.59686 0.0
C220 C 0.53873 0.91489 0.56342 0.0
C221 C 0.55783 0.91503 0.57675 0.0
C222 C 0.5402 0.88532 0.65823 0.0
C223 C 0.52104 0.88492 0.64785 0.0
H224 H 0.57147 0.92557 0.54291 0.0
H225 H 0.54005 0.87224 0.68795 0.0
H226 H 0.59179 0.90709 0.44229 0.0
H227 H 0.53282 0.85298 0.39525 0.0
H228 H 0.6231 0.91522 0.85443 0.0
H229 H 0.53847 0.92581 0.52209 0.0
H230 H 0.50693 0.87244 0.67506 0.0
C231 C 0.71237 0.56541 0.81617 0.0
C232 C 0.71458 0.56761 0.73865 0.0
N233 N 0.70281 0.57591 0.71346 0.0
N234 N 0.69922 0.57226 0.84013 0.0
C235 C 0.69368 0.57867 0.77607 0.0
H236 H 0.71905 0.5582 0.85219 0.0
Co237 Co 0.68864 0.56828 0.93915 0.0
C238 C 0.67379 0.59995 0.96023 0.0
O239 O 0.66218 0.58981 0.01964 0.0
N240 N 0.67813 0.56348 0.04038 0.0
C241 C 0.66115 0.54607 0.14533 0.0
C242 C 0.66203 0.54501 0.0677 0.0
C243 C 0.68679 0.57554 0.10342 0.0
N244 N 0.67671 0.56524 0.16776 0.0
O245 O 0.71736 0.58605 0.9762 0.0
H246 H 0.65203 0.53108 0.03439 0.0
H247 H 0.70084 0.59114 0.10261 0.0
O248 O 0.68454 0.59288 0.9261 0.0
C249 C 0.72401 0.57399 1.00198 0.0
O250 O 0.71048 0.55346 1.00439 0.0
N251 N 0.6615 0.54906 0.90101 0.0
C252 C 0.625 0.51496 0.83876 0.0
C253 C 0.62584 0.53434 0.8535 0.0
C254 C 0.6444 0.55137 0.88426 0.0
C255 C 0.66077 0.5303 0.88752 0.0
C256 C 0.64275 0.51309 0.85706 0.0
H257 H 0.64488 0.56622 0.89306 0.0
H258 H 0.67443 0.52871 0.9011 0.0
H259 H 0.68211 0.5839 0.77468 0.0
H260 H 0.72359 0.56282 0.7031 0.0
H261 H 0.65032 0.53345 0.18284 0.0
H262 H 0.61253 0.5365 0.83956 0.0
H263 H 0.64276 0.49837 0.84804 0.0
C264 C 0.14634 0.69387 0.18354 0.0
C265 C 0.14961 0.69742 0.10678 0.0
N266 N 0.13223 0.69653 0.0763 0.0
N267 N 0.12714 0.69116 0.20203 0.0
C268 C 0.11873 0.6926 0.13495 0.0
H269 H 0.15722 0.693 0.22323 0.0
Co270 Co 0.11677 0.68574 0.30173 0.0
C271 C 0.08144 0.6947 0.29778 0.0
O272 O 0.0898 0.7078 0.35533 0.0
N273 N 0.10658 0.67999 0.4029 0.0
C274 C 0.08565 0.66691 0.50458 0.0
C275 C 0.08669 0.66603 0.42651 0.0
C276 C 0.11734 0.68883 0.46788 0.0
N277 N 0.10499 0.68138 0.5307 0.0
O278 O 0.13146 0.71612 0.32118 0.0
H279 H 0.07366 0.65603 0.3892 0.0
H280 H 0.13404 0.70038 0.46947 0.0
O281 O 0.09113 0.68569 0.27009 0.0
C282 C 0.15057 0.72292 0.34261 0.0
O283 O 0.15695 0.70902 0.35078 0.0
N284 N 0.10435 0.65657 0.28257 0.0
C285 C 0.09406 0.6155 0.2398 0.0
C286 C 0.08212 0.62456 0.21334 0.0
C287 C 0.08763 0.64518 0.23478 0.0
C288 C 0.11553 0.64776 0.31169 0.0
C289 C 0.11065 0.62725 0.29121 0.0
H290 H 0.079 0.65217 0.20985 0.0
H291 H 0.12902 0.65716 0.34813 0.0
H292 H 0.10316 0.69095 0.129 0.0
H293 H 0.16354 0.70011 0.07535 0.0
H294 H 0.07158 0.65788 0.53898 0.0
H295 H 0.06901 0.61605 0.17437 0.0
H296 H 0.12056 0.62117 0.31235 0.0
C297 C 0.4591 0.1422 0.53713 0.0
C298 C 0.4581 0.14379 0.45927 0.0
N299 N 0.4382 0.12985 0.43576 0.0
N300 N 0.44 0.12721 0.56333 0.0
C301 C 0.42754 0.12035 0.50069 0.0
H302 H 0.47313 0.15071 0.57203 0.0
Co303 Co 0.43342 0.11635 0.66355 0.0
C304 C 0.3944 0.07369 0.63896 0.0
O305 O 0.38454 0.07522 0.69903 0.0
N306 N 0.42686 0.10544 0.76408 0.0
C307 C 0.41996 0.08379 0.86297 0.0
C308 C 0.42361 0.08622 0.78605 0.0
C309 C 0.42576 0.11468 0.82964 0.0
N310 N 0.42141 0.10169 0.89046 0.0
O311 O 0.41258 0.12532 0.66975 0.0
H312 H 0.42407 0.07472 0.74846 0.0
H313 H 0.42803 0.13054 0.83281 0.0
O314 O 0.41299 0.08869 0.62181 0.0
C315 C 0.42276 0.14529 0.68201 0.0
O316 O 0.44346 0.15471 0.691 0.0
N317 N 0.45527 0.10967 0.65874 0.0
C318 C 0.49349 0.10919 0.64816 0.0
C319 C 0.47741 0.09898 0.59318 0.0
C320 C 0.45826 0.09919 0.60001 0.0
C321 C 0.47034 0.11905 0.7136 0.0
C322 C 0.4891 0.11835 0.71084 0.0
H323 H 0.44649 0.09219 0.55554 0.0
H324 H 0.46814 0.12779 0.7589 0.0
H325 H 0.41101 0.10822 0.50307 0.0
H326 H 0.47139 0.15386 0.42298 0.0
H327 H 0.41682 0.07003 0.89657 0.0
H328 H 0.47988 0.09181 0.5433 0.0
H329 H 0.50035 0.1257 0.75671 0.0
C330 C 0.31063 0.45324 0.80217 0.0
C331 C 0.30837 0.45194 0.72424 0.0
N332 N 0.31367 0.43777 0.69842 0.0
N333 N 0.31719 0.43986 0.82606 0.0
C334 C 0.31891 0.4307 0.76155 0.0
H335 H 0.30817 0.46374 0.83869 0.0
Co336 Co 0.32481 0.43726 0.92602 0.0
C337 C 0.31748 0.39329 0.92934 0.0
O338 O 0.30519 0.38872 0.98938 0.0
N339 N 0.33288 0.43472 0.0265 0.0
C340 C 0.34952 0.42787 0.11909 0.0
C341 C 0.34876 0.43074 0.04233 0.0
C342 C 0.32448 0.43458 0.09564 0.0
N343 N 0.33426 0.43026 0.15265 0.0
O344 O 0.295 0.4213 0.95325 0.0
H345 H 0.35872 0.42917 1.00028 0.0
H346 H 0.31091 0.43663 0.10429 0.0
O347 O 0.32527 0.41159 0.89856 0.0
C348 C 0.28894 0.43401 0.97677 0.0
O349 O 0.30335 0.45421 0.98294 0.0
N350 N 0.35353 0.45452 0.89912 0.0
C351 C 0.39415 0.4851 0.85064 0.0
C352 C 0.38534 0.46376 0.82906 0.0
C353 C 0.36498 0.44873 0.85357 0.0
C354 C 0.36204 0.475 0.92269 0.0
C355 C 0.38235 0.49056 0.89938 0.0
H356 H 0.35836 0.43267 0.83377 0.0
H357 H 0.35265 0.47941 0.95778 0.0
H358 H 0.32478 0.4197 0.76057 0.0
H359 H 0.3034 0.46097 0.68955 0.0
H360 H 0.36021 0.42388 0.14801 0.0
H361 H 0.39394 0.45875 0.79227 0.0
H362 H 0.38833 0.50684 0.91675 0.0
C363 C 0.86817 0.31857 0.16404 0.0
C364 C 0.86791 0.32043 0.08641 0.0
N365 N 0.88754 0.32668 0.06029 0.0
N366 N 0.88778 0.32326 0.18646 0.0
C367 C 0.89936 0.32837 0.12179 0.0
H368 H 0.85481 0.31391 0.2017 0.0
Co369 Co 0.89457 0.32135 0.28663 0.0
C370 C 0.94029 0.33501 0.29004 0.0
O371 O 0.94143 0.34485 0.35392 0.0
N372 N 0.90065 0.31863 0.38911 0.0
C373 C 0.90694 0.30423 0.49069 0.0
C374 C 0.90477 0.30336 0.41312 0.0
C375 C 0.90065 0.32875 0.45371 0.0
N376 N 0.90447 0.32026 0.51568 0.0
O377 O 0.88048 0.29075 0.27628 0.0
H378 H 0.90598 0.29211 0.37647 0.0
H379 H 0.89741 0.34167 0.45649 0.0
O380 O 0.92236 0.32466 0.2557 0.0
C381 C 0.86129 0.28264 0.29898 0.0
O382 O 0.85506 0.29536 0.32704 0.0
N383 N 0.9058 0.35095 0.29535 0.0
C384 C 0.91389 0.3928 0.29494 0.0
C385 C 0.92806 0.38763 0.26036 0.0
C386 C 0.92342 0.3665 0.25915 0.0
C387 C 0.89161 0.35569 0.32729 0.0
C388 C 0.89542 0.37651 0.32853 0.0
H389 H 0.93345 0.36274 0.22544 0.0
H390 H 0.87687 0.34305 0.35028 0.0
H391 H 0.91593 0.33275 0.11928 0.0
H392 H 0.85441 0.31747 0.05169 0.0
H393 H 0.91002 0.29389 0.52617 0.0
H394 H 0.94204 0.39963 0.23095 0.0
H395 H 0.88386 0.37976 0.35454 0.0
H396 H 0.06516 0.40069 0.2178 0.0
H397 H 0.05633 0.35755 0.03326 0.0
H398 H 0.01806 0.33649 0.06383 0.0
H399 H 0.02709 0.36049 0.34865 0.0
H400 H 0.01831 0.37797 0.38497 0.0
H401 H 0.04511 0.38876 0.35072 0.0
H402 H 0.03941 0.41311 0.25763 0.0
H403 H 0.01258 0.40233 0.29127 0.0
H404 H 0.01759 0.40146 0.1914 0.0
H405 H 0.97971 0.32193 0.10843 0.0
H406 H 0.94569 0.31388 0.16948 0.0
H407 H 0.98048 0.36588 0.32679 0.0
C408 C 0.05526 0.38666 0.18436 0.0
C409 C 0.06381 0.38081 0.1231 0.0
C410 C 0.05023 0.36232 0.08081 0.0
C411 C 0.02842 0.35028 0.09756 0.0
C412 C 0.02043 0.35677 0.15736 0.0
C413 C 0.03354 0.37438 0.2007 0.0
C414 C 0.02106 0.37831 0.26097 0.0
C415 C 0.02832 0.37625 0.34107 0.0
C416 C 0.02276 0.40009 0.2496 0.0
C417 C 0.99884 0.36033 0.24425 0.0
C418 C 0.99869 0.34809 0.18412 0.0
C419 C 0.97971 0.33124 0.15631 0.0
C420 C 0.96046 0.32679 0.19115 0.0
C421 C 0.96038 0.33902 0.25353 0.0
C422 C 0.97992 0.35593 0.28012 0.0
H423 H 0.64785 0.03527 0.33705 0.0
H424 H 0.6929 0.07282 0.51309 0.0
H425 H 0.68407 0.03998 0.58298 0.0
H426 H 0.60871 0.99954 0.45673 0.0
H427 H 0.60019 0.97656 0.3971 0.0
H428 H 0.61229 1.00259 0.35516 0.0
H429 H 0.64064 0.99619 0.29087 0.0
H430 H 0.62857 0.97006 0.33271 0.0
H431 H 0.65635 0.98864 0.34821 0.0
H432 H 0.6666 0.00403 0.64286 0.0
H433 H 0.64221 0.96743 0.68715 0.0
H434 H 0.60932 0.9525 0.47116 0.0
C435 C 0.6563 0.0366 0.3893 0.0
C436 C 0.67116 0.05672 0.41933 0.0
C437 C 0.68155 0.05768 0.4886 0.0
C438 C 0.67667 0.03907 0.52867 0.0
C439 C 0.66155 0.01956 0.49843 0.0
C440 C 0.65165 0.01816 0.42992 0.0
C441 C 0.63468 0.9954 0.41314 0.0
C442 C 0.61268 0.99342 0.4051 0.0
C443 C 0.64041 0.98708 0.342 0.0
C444 C 0.63601 0.98431 0.48429 0.0
C445 C 0.65179 0.99855 0.53236 0.0
C446 C 0.65462 0.99264 0.60489 0.0
C447 C 0.64073 0.97184 0.62956 0.0
C448 C 0.62437 0.95711 0.58171 0.0
C449 C 0.62227 0.96328 0.50755 0.0
H450 H 0.64656 0.61388 1.00367 0.0
H451 H 0.69403 0.62386 0.83401 0.0
H452 H 0.686 0.64869 0.76574 0.0
H453 H 0.60908 0.61118 0.87868 0.0
H454 H 0.5992 0.6245 0.93812 0.0
H455 H 0.61119 0.61057 0.98067 0.0
H456 H 0.63799 0.64483 0.0516 0.0
H457 H 0.62603 0.65889 1.00898 0.0
H458 H 0.65412 0.66885 0.99837 0.0
H459 H 0.6691 0.66764 0.70554 0.0
H460 H 0.64431 0.6789 0.65743 0.0
H461 H 0.60824 0.65763 0.8665 0.0
C462 C 0.65573 0.62174 0.95338 0.0
C463 C 0.67107 0.61699 0.92461 0.0
C464 C 0.68234 0.62731 0.8576 0.0
C465 C 0.67792 0.64152 0.81852 0.0
C466 C 0.66234 0.64543 0.84741 0.0
C467 C 0.65149 0.63594 0.91364 0.0
C468 C 0.63393 0.64102 0.92825 0.0
C469 C 0.61207 0.62061 0.93157 0.0
C470 C 0.63829 0.65418 1.00113 0.0
C471 C 0.63602 0.65415 0.85831 0.0
C472 C 0.65273 0.65676 0.81301 0.0
C473 C 0.65639 0.66625 0.74149 0.0
C474 C 0.64231 0.67266 0.7147 0.0
C475 C 0.62491 0.66976 0.75945 0.0
C476 C 0.62202 0.66087 0.83283 0.0
H477 H 0.06092 0.67198 0.17032 0.0
H478 H 0.05137 0.69994 0.37335 0.0
H479 H 0.01314 0.68333 0.34321 0.0
H480 H 0.02189 0.67659 0.05017 0.0
H481 H 0.01366 0.65154 1.00415 0.0
H482 H 0.0405 0.66727 0.03835 0.0
H483 H 0.03602 0.63535 0.11828 0.0
H484 H 0.00919 0.61953 0.0846 0.0
H485 H 0.01442 0.62289 0.18526 0.0
H486 H 0.97497 0.6599 0.29834 0.0
H487 H 0.94099 0.63393 0.23763 0.0
H488 H 0.97616 0.62274 0.06217 0.0
C489 C 0.05088 0.67491 0.20788 0.0
C490 C 0.05919 0.68727 0.27428 0.0
C491 C 0.04545 0.69068 0.32183 0.0
C492 C 0.02366 0.68124 0.3053 0.0
C493 C 0.01588 0.66865 0.24046 0.0
C494 C 0.02918 0.66576 0.19194 0.0
C495 C 0.01683 0.65082 0.12772 0.0
C496 C 0.02363 0.66224 0.05053 0.0
C497 C 0.01926 0.63098 0.1291 0.0
C498 C 0.99445 0.64541 0.14838 0.0
C499 C 0.99415 0.65579 0.21362 0.0
C500 C 0.97506 0.65201 0.24638 0.0
C501 C 0.95583 0.63722 0.21162 0.0
C502 C 0.95585 0.62652 0.14448 0.0
C503 C 0.97551 0.63095 0.11245 0.0
H504 H 0.36944 0.03205 0.68563 0.0
H505 H 0.39802 0.07138 0.48641 0.0
H506 H 0.38308 0.03949 0.40612 0.0
H507 H 0.38203 0.99271 0.63115 0.0
H508 H 0.3582 0.97047 0.66878 0.0
H509 H 0.36845 0.99639 0.71022 0.0
H510 H 0.33226 0.99431 0.68777 0.0
H511 H 0.32193 0.96838 0.646 0.0
H512 H 0.3211 0.98924 0.59344 0.0
H513 H 0.36696 0.00425 0.34801 0.0
H514 H 0.35393 0.96704 0.31495 0.0
H515 H 0.33739 0.94871 0.55112 0.0
C516 C 0.37209 0.03387 0.62484 0.0
C517 C 0.38445 0.05426 0.59178 0.0
C518 C 0.38832 0.05602 0.51262 0.0
C519 C 0.37984 0.03796 0.46653 0.0
C520 C 0.36783 0.01813 0.50058 0.0
C521 C 0.36416 0.01583 0.57796 0.0
C522 C 0.35268 0.99245 0.60034 0.0
C523 C 0.36615 0.98773 0.6559 0.0
C524 C 0.33068 0.9857 0.63388 0.0
C525 C 0.35076 0.98207 0.52349 0.0
C526 C 0.3593 0.99733 0.46695 0.0
C527 C 0.3602 0.99215 0.39165 0.0
C528 C 0.35277 0.9709 0.37355 0.0
C529 C 0.34468 0.95492 0.4304 0.0
C530 C 0.34321 0.96052 0.50632 0.0
H531 H 0.34103 0.39674 0.80292 0.0
H532 H 0.31306 0.35797 1.00386 0.0
H533 H 0.33117 0.33773 0.97393 0.0
H534 H 0.34043 0.35575 0.68143 0.0
H535 H 0.36575 0.37402 0.63948 0.0
H536 H 0.34852 0.38348 0.67249 0.0
H537 H 0.37883 0.41109 0.75768 0.0
H538 H 0.3961 0.40165 0.72548 0.0
H539 H 0.39127 0.40221 0.82569 0.0
H540 H 0.35527 0.32367 0.92634 0.0
H541 H 0.38213 0.31707 0.8648 0.0
H542 H 0.39471 0.36632 0.69932 0.0
C543 C 0.33851 0.3839 0.84048 0.0
C544 C 0.32568 0.37909 0.90605 0.0
C545 C 0.3227 0.36193 0.953 0.0
C546 C 0.333 0.35038 0.93659 0.0
C547 C 0.34618 0.35611 0.87289 0.0
C548 C 0.3488 0.37242 0.8254 0.0
C549 C 0.36476 0.37648 0.76327 0.0
C550 C 0.35423 0.37216 0.68451 0.0
C551 C 0.38386 0.3992 0.76838 0.0
C552 C 0.371 0.36011 0.78359 0.0
C553 C 0.36005 0.34835 0.84655 0.0
C554 C 0.36377 0.3327 0.8766 0.0
C555 C 0.37906 0.32905 0.84135 0.0
C556 C 0.39055 0.34112 0.77717 0.0
C557 C 0.38625 0.35674 0.74819 0.0
H558 H 0.10539 0.44886 0.7431 0.0
H559 H 0.13138 0.40856 0.80034 0.0
H560 H 0.13942 0.40703 0.66387 0.0
H561 H 0.08144 0.42502 0.56574 0.0
H562 H 0.08851 0.44983 0.51955 0.0
H563 H 0.08449 0.44723 0.62089 0.0
H564 H 0.12213 0.47956 0.64202 0.0
H565 H 0.12618 0.48237 0.54074 0.0
H566 H 0.14478 0.47956 0.60041 0.0
H567 H 0.14256 0.40855 0.51843 0.0
H568 H 0.14528 0.41715 0.38039 0.0
H569 H 0.11995 0.45876 0.42218 0.0
C570 C 0.11278 0.43974 0.7266 0.0
C571 C 0.11764 0.42866 0.78153 0.0
C572 C 0.12762 0.41715 0.75865 0.0
C573 C 0.13209 0.41611 0.68144 0.0
C574 C 0.12681 0.42702 0.62833 0.0
C575 C 0.11775 0.43896 0.65033 0.0
C576 C 0.11452 0.45006 0.58316 0.0
C577 C 0.09083 0.44258 0.57169 0.0
C578 C 0.12769 0.47433 0.59213 0.0
C579 C 0.123 0.44242 0.51958 0.0
C580 C 0.12971 0.42885 0.54631 0.0
C581 C 0.13754 0.41931 0.49716 0.0
C582 C 0.13892 0.42413 0.4191 0.0
C583 C 0.13289 0.43861 0.39163 0.0
C584 C 0.12474 0.44772 0.44244 0.0
H585 H 0.69641 0.15009 0.74046 0.0
H586 H 0.70353 0.09586 0.68858 0.0
H587 H 0.69911 0.08604 0.82565 0.0
H588 H 0.72359 0.16402 0.91899 0.0
H589 H 0.70543 0.17093 0.96251 0.0
H590 H 0.70971 0.17369 0.86132 0.0
H591 H 0.66927 0.14963 0.83836 0.0
H592 H 0.66486 0.14693 0.93946 0.0
H593 H 0.65548 0.1236 0.88108 0.0
H594 H 0.69548 0.08359 0.97192 0.0
H595 H 0.6883 0.086 0.10887 0.0
H596 H 0.6813 0.14047 0.05985 0.0
C597 C 0.69713 0.13621 0.75814 0.0
C598 C 0.70057 0.12384 0.70452 0.0
C599 C 0.70093 0.1055 0.72917 0.0
C600 C 0.69856 0.09992 0.80677 0.0
C601 C 0.69547 0.11269 0.85852 0.0
C602 C 0.69438 0.13024 0.83471 0.0
C603 C 0.68992 0.14084 0.90031 0.0
C604 C 0.70826 0.16372 0.91141 0.0
C605 C 0.66862 0.1402 0.88912 0.0
C606 C 0.68878 0.12665 0.96517 0.0
C607 C 0.69232 0.11065 0.94056 0.0
C608 C 0.69252 0.09597 0.99146 0.0
C609 C 0.68858 0.09749 0.06898 0.0
C610 C 0.68413 0.1133 0.09423 0.0
C611 C 0.68445 0.12811 0.04159 0.0
H612 H 0.6038 0.68303 0.34381 0.0
H613 H 0.56107 0.70364 0.42869 0.0
H614 H 0.55138 0.707 0.29717 0.0
H615 H 0.62217 0.71728 0.17683 0.0
H616 H 0.6228 0.69759 0.11657 0.0
H617 H 0.62701 0.69732 0.21743 0.0
H618 H 0.59626 0.65836 0.22503 0.0
H619 H 0.59208 0.65854 0.12419 0.0
H620 H 0.57041 0.65165 0.18918 0.0
H621 H 0.54623 0.70824 0.15814 0.0
H622 H 0.54402 0.70517 0.01895 0.0
H623 H 0.58928 0.68282 0.01999 0.0
C624 C 0.59251 0.68838 0.33447 0.0
C625 C 0.58313 0.69302 0.39672 0.0
C626 C 0.56823 0.69972 0.38225 0.0
C627 C 0.56276 0.70185 0.30762 0.0
C628 C 0.57225 0.69713 0.24772 0.0
C629 C 0.5867 0.69039 0.26001 0.0
C630 C 0.5939 0.68564 0.18502 0.0
C631 C 0.6179 0.70034 0.17329 0.0
C632 C 0.58779 0.66215 0.18061 0.0
C633 C 0.58116 0.69072 0.12881 0.0
C634 C 0.56894 0.69747 0.16661 0.0
C635 C 0.55564 0.70288 0.12795 0.0
C636 C 0.55442 0.70096 0.04872 0.0
C637 C 0.56628 0.69354 1.00823 0.0
C638 C 0.58013 0.68869 0.04906 0.0
H639 H 0.8741 0.5453 0.79623 0.0
H640 H 0.92371 0.60875 0.85487 0.0
H641 H 0.9276 0.61909 0.71846 0.0
H642 H 0.89604 0.54037 0.62101 0.0
H643 H 0.87069 0.52624 0.57385 0.0
H644 H 0.87228 0.52409 0.67534 0.0
H645 H 0.84486 0.53657 0.69455 0.0
H646 H 0.84303 0.53854 0.59313 0.0
H647 H 0.84976 0.56122 0.65242 0.0
H648 H 0.92672 0.62147 0.5724 0.0
H649 H 0.91794 0.61695 0.43432 0.0
H650 H 0.86777 0.55251 0.4766 0.0
C651 C 0.88581 0.56135 0.7802 0.0
C652 C 0.89875 0.57623 0.83546 0.0
C653 C 0.91364 0.59721 0.81295 0.0
C654 C 0.91602 0.60312 0.73577 0.0
C655 C 0.90317 0.5879 0.68235 0.0
C656 C 0.88812 0.56754 0.70406 0.0
C657 C 0.87562 0.55429 0.63683 0.0
C658 C 0.87886 0.53512 0.62615 0.0
C659 C 0.85192 0.54725 0.64471 0.0
C660 C 0.88598 0.57028 0.57353 0.0
C661 C 0.90206 0.58952 0.60027 0.0
C662 C 0.91406 0.60651 0.55111 0.0
C663 C 0.90911 0.60383 0.47303 0.0
C664 C 0.89215 0.58448 0.44573 0.0
C665 C 0.88069 0.56751 0.49659 0.0
H666 H 0.2993 0.89808 0.05897 0.0
H667 H 0.35603 0.89759 0.13329 0.0
H668 H 0.36507 0.89555 1.00002 0.0
H669 H 0.2858 0.86176 0.90993 0.0
H670 H 0.27691 0.87515 0.84618 0.0
H671 H 0.27547 0.87786 0.9473 0.0
H672 H 0.29777 0.91879 0.93419 0.0
H673 H 0.29929 0.9162 0.83284 0.0
H674 H 0.32328 0.93068 0.88772 0.0
H675 H 0.36647 0.89055 0.86045 0.0
H676 H 0.3603 0.88353 0.72255 0.0
H677 H 0.30408 0.88944 0.73686 0.0
C678 C 0.31385 0.89797 0.04751 0.0
C679 C 0.32685 0.89787 0.10731 0.0
C680 C 0.34555 0.89729 0.08911 0.0
C681 C 0.35096 0.89636 1.01335 0.0
C682 C 0.33769 0.89627 0.95613 0.0
C683 C 0.3196 0.89721 0.97213 0.0
C684 C 0.30762 0.89608 0.90003 0.0
C685 C 0.28513 0.87655 0.90095 0.0
C686 C 0.30696 0.91667 0.888 0.0
C687 C 0.32156 0.89382 0.84113 0.0
C688 C 0.33886 0.89405 0.87487 0.0
C689 C 0.35319 0.8907 0.83322 0.0
C690 C 0.34958 0.88669 0.75526 0.0
C691 C 0.33191 0.88624 0.71972 0.0
C692 C 0.31795 0.89023 0.76286 0.0
H693 H 0.42207 0.32283 0.03179 0.0
H694 H 0.45881 0.2908 0.0292 0.0
H695 H 0.45512 0.28634 0.16817 0.0
H696 H 0.44396 0.35152 0.20326 0.0
H697 H 0.4195 0.34908 0.23783 0.0
H698 H 0.42375 0.3487 0.13715 0.0
H699 H 0.38899 0.3125 0.12596 0.0
H700 H 0.38457 0.31282 0.22664 0.0
H701 H 0.38531 0.2906 0.18482 0.0
H702 H 0.44921 0.28682 0.30786 0.0
H703 H 0.44062 0.29149 0.43941 0.0
H704 H 0.40767 0.32328 0.35486 0.0
C705 C 0.42899 0.31456 0.06048 0.0
C706 C 0.44082 0.30724 0.01938 0.0
C707 C 0.44992 0.29678 0.05932 0.0
C708 C 0.44782 0.29407 0.13835 0.0
C709 C 0.43651 0.30185 0.17739 0.0
C710 C 0.42713 0.3118 0.14002 0.0
C711 C 0.41649 0.31931 0.19656 0.0
C712 C 0.42653 0.34359 0.1935 0.0
C713 C 0.39241 0.30814 0.18265 0.0
C714 C 0.42154 0.31218 0.2712 0.0
C715 C 0.43307 0.30211 0.2586 0.0
C716 C 0.44012 0.29462 0.31844 0.0
C717 C 0.43528 0.29749 0.3932 0.0
C718 C 0.42349 0.30778 0.408 0.0
C719 C 0.41647 0.3151 0.34568 0.0
H720 H 0.61111 0.90308 0.97487 0.0
H721 H 0.55258 0.89981 0.9 0.0
H722 H 0.54084 0.89625 0.03288 0.0
H723 H 0.58927 0.86566 0.12217 0.0
H724 H 0.61118 0.87966 0.18686 0.0
H725 H 0.61563 0.88305 0.08591 0.0
H726 H 0.63232 0.92374 0.1009 0.0
H727 H 0.62794 0.92048 0.20208 0.0
H728 H 0.61745 0.93418 0.14773 0.0
H729 H 0.53404 0.89017 0.1723 0.0
H730 H 0.53331 0.88311 0.31019 0.0
H731 H 0.59692 0.89258 0.297 0.0
C732 C 0.59599 0.90201 0.98603 0.0
C733 C 0.58276 0.90156 0.92595 0.0
C734 C 0.56293 0.89979 0.94411 0.0
C735 C 0.55616 0.89796 0.01976 0.0
C736 C 0.56947 0.89821 0.07713 0.0
C737 C 0.58906 0.90039 0.06137 0.0
C738 C 0.60004 0.89959 0.13368 0.0
C739 C 0.60427 0.88087 0.13202 0.0
C740 C 0.62066 0.92076 0.14686 0.0
C741 C 0.58333 0.89611 0.19236 0.0
C742 C 0.56584 0.89542 0.15833 0.0
C743 C 0.54776 0.891 0.19972 0.0
C744 C 0.54744 0.88696 0.27774 0.0
C745 C 0.56512 0.88753 0.31375 0.0
C746 C 0.58342 0.89251 0.27074 0.0
H747 H 0.69562 0.5484 0.59947 0.0
H748 H 0.70091 0.60903 0.65053 0.0
H749 H 0.69619 0.61405 0.51337 0.0
H750 H 0.72287 0.56225 0.42115 0.0
H751 H 0.7053 0.53697 0.37783 0.0
H752 H 0.70954 0.53866 0.47904 0.0
H753 H 0.66897 0.52118 0.50184 0.0
H754 H 0.6646 0.51927 0.40073 0.0
H755 H 0.65455 0.53269 0.45879 0.0
H756 H 0.69257 0.61265 0.36708 0.0
H757 H 0.68573 0.60291 0.2302 0.0
H758 H 0.68065 0.54229 0.28017 0.0
C759 C 0.69586 0.56277 0.58161 0.0
C760 C 0.69887 0.57848 0.635 0.0
C761 C 0.69863 0.59686 0.61011 0.0
C762 C 0.69609 0.59986 0.53247 0.0
C763 C 0.69347 0.58412 0.48094 0.0
C764 C 0.69297 0.56578 0.50502 0.0
C765 C 0.68898 0.55077 0.43964 0.0
C766 C 0.7078 0.54695 0.4288 0.0
C767 C 0.66803 0.52974 0.45094 0.0
C768 C 0.68742 0.56352 0.37457 0.0
C769 C 0.69034 0.58286 0.3989 0.0
C770 C 0.69009 0.59746 0.34776 0.0
C771 C 0.68634 0.59191 0.27029 0.0
C772 C 0.68253 0.57184 0.24531 0.0
C773 C 0.68329 0.55764 0.2982 0.0
H774 H 0.08488 0.65987 0.66103 0.0
H775 H 0.13917 0.71824 0.57924 0.0
H776 H 0.15046 0.72917 0.71089 0.0
H777 H 0.07441 0.6837 0.82752 0.0
H778 H 0.06695 0.66083 0.88699 0.0
H779 H 0.06246 0.65761 0.78589 0.0
H780 H 0.08406 0.63817 0.77831 0.0
H781 H 0.08854 0.64126 0.87929 0.0
H782 H 0.11078 0.65097 0.815 0.0
H783 H 0.15748 0.73294 0.8502 0.0
H784 H 0.15929 0.72929 0.98944 0.0
H785 H 0.09967 0.66989 0.98425 0.0
C786 C 0.09897 0.67509 0.67051 0.0
C787 C 0.11117 0.68803 0.60872 0.0
C788 C 0.12968 0.70773 0.62462 0.0
C789 C 0.13616 0.71423 0.6996 0.0
C790 C 0.1239 0.70106 0.75874 0.0
C791 C 0.10562 0.68195 0.74531 0.0
C792 C 0.09568 0.67056 0.81956 0.0
C793 C 0.07356 0.66803 0.83063 0.0
C794 C 0.09472 0.64897 0.82323 0.0
C795 C 0.11147 0.68609 0.8766 0.0
C796 C 0.12759 0.70359 0.84 0.0
C797 C 0.14478 0.71949 0.87958 0.0
C798 C 0.1457 0.71733 0.95843 0.0
C799 C 0.12947 0.69955 0.99718 0.0
C800 C 0.11196 0.68389 0.9559 0.0
H801 H 0.45904 0.15025 0.30375 0.0
H802 H 0.40005 0.09687 0.38693 0.0
H803 H 0.38847 0.08618 0.25592 0.0
H804 H 0.43618 0.16149 0.1357 0.0
H805 H 0.45892 0.16789 0.07692 0.0
H806 H 0.46219 0.17267 0.17786 0.0
H807 H 0.48023 0.1498 0.18791 0.0
H808 H 0.47706 0.145 0.08715 0.0
H809 H 0.46654 0.12295 0.1526 0.0
H810 H 0.38432 0.07891 0.11641 0.0
H811 H 0.38797 0.07623 0.97768 0.0
H812 H 0.4488 0.13433 0.98141 0.0
C813 C 0.44361 0.1364 0.29519 0.0
C814 C 0.43066 0.1245 0.35769 0.0
C815 C 0.4105 0.10651 0.34183 0.0
C816 C 0.40366 0.10021 0.26686 0.0
C817 C 0.41696 0.11207 0.20732 0.0
C818 C 0.43646 0.12986 0.22042 0.0
C819 C 0.44807 0.13922 0.14589 0.0
C820 C 0.45154 0.16165 0.13337 0.0
C821 C 0.46922 0.13924 0.14326 0.0
C822 C 0.43222 0.12361 0.08905 0.0
C823 C 0.41434 0.10813 0.126 0.0
C824 C 0.39807 0.09114 0.0868 0.0
C825 C 0.40024 0.08972 1.00815 0.0
C826 C 0.41842 0.10525 0.96896 0.0
C827 C 0.43448 0.1226 1.00984 0.0
H828 H 0.31492 0.45975 0.56941 0.0
H829 H 0.31487 0.40299 0.64734 0.0
H830 H 0.31843 0.39433 0.51527 0.0
H831 H 0.28411 0.43608 0.39592 0.0
H832 H 0.29899 0.46002 0.3409 0.0
H833 H 0.29575 0.46161 0.44181 0.0
H834 H 0.33658 0.48382 0.4578 0.0
H835 H 0.33995 0.4823 0.35708 0.0
H836 H 0.35289 0.47344 0.42302 0.0
H837 H 0.32415 0.39272 0.37604 0.0
H838 H 0.33088 0.398 0.2379 0.0
H839 H 0.32546 0.45458 0.24702 0.0
C840 C 0.31531 0.44531 0.5591 0.0
C841 C 0.31472 0.43218 0.62001 0.0
C842 C 0.31562 0.41359 0.60279 0.0
C843 C 0.31748 0.4084 0.52751 0.0
C844 C 0.3182 0.42177 0.46937 0.0
C845 C 0.317 0.43977 0.48404 0.0
C846 C 0.31864 0.45167 0.41091 0.0
C847 C 0.29815 0.45238 0.39655 0.0
C848 C 0.33818 0.47414 0.41232 0.0
C849 C 0.32128 0.43771 0.353 0.0
C850 C 0.32096 0.42054 0.38824 0.0
C851 C 0.32419 0.40597 0.34776 0.0
C852 C 0.32807 0.40911 0.26947 0.0
C853 C 0.32855 0.42659 0.23196 0.0
C854 C 0.32479 0.4409 0.27421 0.0
H855 H 0.87826 0.29524 0.62548 0.0
H856 H 0.93112 0.35802 0.58001 0.0
H857 H 0.9333 0.36679 0.71758 0.0
H858 H 0.85344 0.3121 0.76795 0.0
H859 H 0.84437 0.28837 0.82422 0.0
H860 H 0.8474 0.28747 0.72293 0.0
H861 H 0.87233 0.27205 0.7443 0.0
H862 H 0.86955 0.27311 0.84564 0.0
H863 H 0.89559 0.28632 0.80298 0.0
H864 H 0.93106 0.36716 0.86227 0.0
H865 H 0.9214 0.36105 0.99932 0.0
H866 H 0.86807 0.29919 0.94613 0.0
C867 C 0.89014 0.31085 0.64494 0.0
C868 C 0.90461 0.32602 0.59345 0.0
C869 C 0.91993 0.34636 0.61953 0.0
C870 C 0.92131 0.35136 0.6972 0.0
C871 C 0.90694 0.3359 0.74712 0.0
C872 C 0.89136 0.31621 0.72165 0.0
C873 C 0.87739 0.30261 0.78604 0.0
C874 C 0.85428 0.29734 0.77459 0.0
C875 C 0.87882 0.28232 0.79526 0.0
C876 C 0.88768 0.31757 0.85208 0.0
C877 C 0.90489 0.33659 0.8289 0.0
C878 C 0.91744 0.35245 0.88085 0.0
C879 C 0.91199 0.34885 0.95825 0.0
C880 C 0.89397 0.32978 0.98218 0.0
C881 C 0.88176 0.31399 0.9285 0.0
H882 H 0.09968 0.50829 0.23815 0.0
H883 H 0.08742 0.50487 0.99588 0.0
H884 H 0.08195 0.53568 1.00549 0.0
H885 H 0.0618 0.52576 0.29575 0.0
H886 H 0.07937 0.54337 0.36788 0.0
H887 H 0.08004 0.51966 0.34353 0.0
H888 H 0.12034 0.54235 0.31562 0.0
H889 H 0.11978 0.5661 0.33941 0.0
H890 H 0.12965 0.56383 0.24801 0.0
H891 H 0.08062 0.56833 0.03907 0.0
H892 H 0.08398 0.601 0.09346 0.0
H893 H 0.09692 0.58353 0.31505 0.0
C894 C 0.09532 0.51374 0.18758 0.0
C895 C 0.0938 0.50412 0.11629 0.0
C896 C 0.08865 0.51203 0.05095 0.0
C897 C 0.08544 0.52945 0.05594 0.0
C898 C 0.08747 0.53885 0.12672 0.0
C899 C 0.09224 0.53128 0.19147 0.0
C900 C 0.09497 0.54523 0.25946 0.0
C901 C 0.07803 0.53276 0.32025 0.0
C902 C 0.11753 0.55495 0.29254 0.0
C903 C 0.0914 0.56203 0.22246 0.0
C904 C 0.08686 0.55789 0.14606 0.0
C905 C 0.08383 0.57157 0.0991 0.0
C906 C 0.08563 0.59007 0.1308 0.0
C907 C 0.09049 0.59486 0.20893 0.0
C908 C 0.09321 0.58044 0.25521 0.0
H909 H 0.58404 0.08664 0.48518 0.0
H910 H 0.62929 0.14332 0.60696 0.0
H911 H 0.59997 0.14698 0.65909 0.0
H912 H 0.54823 0.10386 0.4352 0.0
H913 H 0.52431 0.07878 0.45052 0.0
H914 H 0.54861 0.07938 0.42546 0.0
H915 H 0.54568 0.0575 0.54572 0.0
H916 H 0.52121 0.05662 0.57076 0.0
H917 H 0.54289 0.06678 0.63759 0.0
H918 H 0.56707 0.14742 0.68509 0.0
H919 H 0.5315 0.14247 0.69757 0.0
H920 H 0.50564 0.08313 0.57203 0.0
C921 C 0.58771 0.09955 0.52404 0.0
C922 C 0.60905 0.11491 0.54085 0.0
C923 C 0.61316 0.13165 0.59165 0.0
C924 C 0.5966 0.13381 0.62203 0.0
C925 C 0.57587 0.1189 0.60236 0.0
C926 C 0.57123 0.10185 0.55582 0.0
C927 C 0.54737 0.0884 0.54335 0.0
C928 C 0.54181 0.08757 0.45859 0.0
C929 C 0.53878 0.066 0.57634 0.0
C930 C 0.53954 0.10093 0.58866 0.0
C931 C 0.55636 0.11846 0.62177 0.0
C932 C 0.55364 0.13337 0.66166 0.0
C933 C 0.53312 0.1302 0.66912 0.0
C934 C 0.51523 0.11193 0.63843 0.0
C935 C 0.51869 0.09717 0.59712 0.0
H936 H 0.50411 0.5954 0.84365 0.0
H937 H 0.50769 0.58503 0.60277 0.0
H938 H 0.47539 0.54969 0.61346 0.0
H939 H 0.48364 0.54005 0.90576 0.0
H940 H 0.4664 0.5414 0.97634 0.0
H941 H 0.49088 0.56496 0.95115 0.0
H942 H 0.47 0.58421 0.9192 0.0
H943 H 0.44546 0.5607 0.94378 0.0
H944 H 0.44861 0.57258 0.8512 0.0
H945 H 0.44166 0.51659 0.64852 0.0
H946 H 0.40842 0.48823 0.70455 0.0
H947 H 0.42645 0.52002 0.92315 0.0
C948 C 0.49836 0.58545 0.7936 0.0
C949 C 0.5085 0.59282 0.72245 0.0
C950 C 0.50017 0.57964 0.65776 0.0
C951 C 0.48189 0.55954 0.66337 0.0
C952 C 0.47208 0.55288 0.73405 0.0
C953 C 0.48001 0.56541 0.79809 0.0
C954 C 0.46567 0.55506 0.86617 0.0
C955 C 0.47735 0.55007 0.92854 0.0
C956 C 0.45692 0.56897 0.89686 0.0
C957 C 0.44827 0.5349 0.83013 0.0
C958 C 0.45241 0.53388 0.75409 0.0
C959 C 0.43837 0.51709 0.70823 0.0
C960 C 0.41956 0.50098 0.74077 0.0
C961 C 0.41482 0.50174 0.8185 0.0
C962 C 0.42953 0.51895 0.86359 0.0
H963 H 0.88598 0.40557 0.25025 0.0
H964 H 0.95037 0.42963 0.33069 0.0
H965 H 0.95662 0.46635 0.32419 0.0
H966 H 0.89877 0.44758 0.11632 0.0
H967 H 0.87449 0.44798 0.13213 0.0
H968 H 0.87507 0.42374 0.14565 0.0
H969 H 0.86112 0.42084 0.28323 0.0
H970 H 0.86055 0.44512 0.27018 0.0
H971 H 0.87532 0.44266 0.34801 0.0
H972 H 0.95544 0.50048 0.31013 0.0
H973 H 0.94764 0.52925 0.28404 0.0
H974 H 0.88456 0.48258 0.20625 0.0
C975 C 0.90132 0.41857 0.26725 0.0
C976 C 0.91765 0.41481 0.29173 0.0
C977 C 0.93768 0.43222 0.31183 0.0
C978 C 0.94132 0.45309 0.30854 0.0
C979 C 0.92485 0.45625 0.28422 0.0
C980 C 0.9053 0.43946 0.26333 0.0
C981 C 0.8905 0.44712 0.2365 0.0
C982 C 0.88436 0.44126 0.15268 0.0
C983 C 0.8707 0.43842 0.28755 0.0
C984 C 0.90466 0.47085 0.24627 0.0
C985 C 0.92438 0.47582 0.27409 0.0
C986 C 0.94008 0.49676 0.28789 0.0
C987 C 0.93553 0.51302 0.27244 0.0
C988 C 0.91547 0.50832 0.24297 0.0
C989 C 0.89992 0.48684 0.22995 0.0
H990 H 0.50684 0.92837 0.56403 0.0
H991 H 0.48496 0.86077 0.56671 0.0
H992 H 0.44976 0.85315 0.52399 0.0
H993 H 0.45792 0.92442 0.62887 0.0
H994 H 0.45966 0.94505 0.56725 0.0
H995 H 0.48353 0.94567 0.59892 0.0
H996 H 0.49534 0.94719 0.45909 0.0
H997 H 0.4715 0.94658 0.427 0.0
H998 H 0.47781 0.927 0.39338 0.0
H999 H 0.41692 0.85219 0.48482 0.0
H1000 H 0.38775 0.85794 0.44754 0.0
H1001 H 0.4301 0.92622 0.46119 0.0
C1002 C 0.49463 0.91199 0.5555 0.0
C1003 C 0.49865 0.89517 0.57064 0.0
C1004 C 0.48222 0.87395 0.55817 0.0
C1005 C 0.46216 0.86942 0.53307 0.0
C1006 C 0.45865 0.88624 0.51968 0.0
C1007 C 0.47435 0.90711 0.52997 0.0
C1008 C 0.46606 0.92205 0.51067 0.0
C1009 C 0.46684 0.93506 0.5806 0.0
C1010 C 0.47841 0.93656 0.44353 0.0
C1011 C 0.44329 0.90622 0.48849 0.0
C1012 C 0.43951 0.88569 0.49426 0.0
C1013 C 0.41972 0.8682 0.47891 0.0
C1014 C 0.40326 0.87169 0.45687 0.0
C1015 C 0.40658 0.89257 0.4494 0.0
C1016 C 0.42697 0.91007 0.46585 0.0
H1017 H 0.58222 0.49873 0.87065 0.0
H1018 H 0.62537 0.48983 0.7252 0.0
H1019 H 0.59534 0.45704 0.67476 0.0
H1020 H 0.54865 0.44506 0.91819 0.0
H1021 H 0.52412 0.44554 0.91496 0.0
H1022 H 0.54863 0.46941 0.93664 0.0
H1023 H 0.54231 0.48897 0.8255 0.0
H1024 H 0.51763 0.4652 0.80393 0.0
H1025 H 0.53762 0.47782 0.73128 0.0
H1026 H 0.56231 0.42356 0.65188 0.0
H1027 H 0.52695 0.39234 0.64606 0.0
H1028 H 0.503 0.42324 0.79563 0.0
C1029 C 0.58524 0.4901 0.82698 0.0
C1030 C 0.60623 0.49674 0.80261 0.0
C1031 C 0.60953 0.48488 0.74588 0.0
C1032 C 0.59255 0.46627 0.71651 0.0
C1033 C 0.57222 0.45979 0.74343 0.0
C1034 C 0.56832 0.47142 0.79635 0.0
C1035 C 0.54483 0.46031 0.81649 0.0
C1036 C 0.54136 0.45475 0.90163 0.0
C1037 C 0.53502 0.47389 0.79287 0.0
C1038 C 0.53636 0.44043 0.76795 0.0
C1039 C 0.55256 0.44058 0.7266 0.0
C1040 C 0.54931 0.42351 0.68195 0.0
C1041 C 0.5289 0.40582 0.67844 0.0
C1042 C 0.51158 0.40527 0.71802 0.0
C1043 C 0.51558 0.42297 0.76378 0.0
H1044 H 0.27467 0.45764 0.04654 0.0
H1045 H 0.25231 0.39543 0.94805 0.0
H1046 H 0.215 0.38679 0.97012 0.0
H1047 H 0.23341 0.44191 0.19104 0.0
H1048 H 0.23266 0.46615 0.17963 0.0
H1049 H 0.25701 0.46599 0.16273 0.0
H1050 H 0.25925 0.48122 0.02744 0.0
H1051 H 0.23493 0.48138 0.0438 0.0
H1052 H 0.2372 0.46741 0.96311 0.0
H1053 H 0.17938 0.38671 0.99647 0.0
H1054 H 0.15092 0.39556 0.02041 0.0
H1055 H 0.19853 0.45799 0.09829 0.0
C1056 C 0.26202 0.44203 0.03035 0.0
C1057 C 0.26647 0.4272 0.99557 0.0
C1058 C 0.24931 0.40701 0.97527 0.0
C1059 C 0.22808 0.402 0.98756 0.0
C1060 C 0.22432 0.4173 0.0207 0.0
C1061 C 0.24099 0.43687 0.04204 0.0
C1062 C 0.2333 0.45124 0.07242 0.0
C1063 C 0.23946 0.45663 0.15644 0.0
C1064 C 0.24166 0.47149 0.02377 0.0
C1065 C 0.20962 0.43701 0.06344 0.0
C1066 C 0.2045 0.41736 0.03452 0.0
C1067 C 0.18334 0.40203 0.01966 0.0
C1068 C 0.16725 0.40712 0.03361 0.0
C1069 C 0.17251 0.42747 0.06103 0.0
C1070 C 0.19395 0.44231 0.07707 0.0
H1071 H 0.82117 0.26683 0.25031 0.0
H1072 H 0.86504 0.24742 0.33175 0.0
H1073 H 0.8354 0.20993 0.33799 0.0
H1074 H 0.77951 0.23537 0.36668 0.0
H1075 H 0.759 0.22948 0.29755 0.0
H1076 H 0.78408 0.25365 0.28999 0.0
H1077 H 0.78887 0.24368 0.15291 0.0
H1078 H 0.76365 0.21947 0.15983 0.0
H1079 H 0.78722 0.21848 0.13563 0.0
H1080 H 0.79873 0.17502 0.3523 0.0
H1081 H 0.76067 0.14746 0.3669 0.0
H1082 H 0.74261 0.19096 0.26982 0.0
C1083 C 0.82465 0.25459 0.26757 0.0
C1084 C 0.84532 0.25989 0.2902 0.0
C1085 C 0.84931 0.24356 0.3131 0.0
C1086 C 0.83254 0.22228 0.31709 0.0
C1087 C 0.81207 0.21766 0.29641 0.0
C1088 C 0.8083 0.23346 0.27068 0.0
C1089 C 0.78498 0.2251 0.25586 0.0
C1090 C 0.7764 0.23658 0.30549 0.0
C1091 C 0.78095 0.22678 0.17101 0.0
C1092 C 0.77591 0.20224 0.27994 0.0
C1093 C 0.79161 0.198 0.30279 0.0
C1094 C 0.78643 0.17816 0.33302 0.0
C1095 C 0.76477 0.16255 0.34102 0.0
C1096 C 0.74859 0.16695 0.31918 0.0
C1097 C 0.75448 0.18691 0.28665 0.0
H1098 H 0.56154 0.81879 0.58596 0.0
H1099 H 0.62394 0.86386 0.67162 0.0
H1100 H 0.632 0.83453 0.68691 0.0
H1101 H 0.55064 0.77825 0.71073 0.0
H1102 H 0.53671 0.75715 0.64311 0.0
H1103 H 0.53737 0.78199 0.63063 0.0
H1104 H 0.55327 0.78599 0.49561 0.0
H1105 H 0.55238 0.76095 0.50722 0.0
H1106 H 0.57706 0.78444 0.48314 0.0
H1107 H 0.63068 0.79801 0.70624 0.0
H1108 H 0.62107 0.76012 0.71904 0.0
H1109 H 0.55971 0.74105 0.61788 0.0
C1110 C 0.57712 0.82261 0.6063 0.0
C1111 C 0.59217 0.84353 0.62732 0.0
C1112 C 0.61232 0.84793 0.65414 0.0
C1113 C 0.61693 0.83133 0.66341 0.0
C1114 C 0.60131 0.81061 0.64439 0.0
C1115 C 0.58195 0.80644 0.61505 0.0
C1116 C 0.56726 0.78302 0.60197 0.0
C1117 C 0.5468 0.77462 0.64946 0.0
C1118 C 0.56221 0.77833 0.51693 0.0
C1119 C 0.58101 0.77437 0.63042 0.0
C1120 C 0.60066 0.79032 0.65451 0.0
C1121 C 0.61541 0.78551 0.68646 0.0
C1122 C 0.60982 0.76396 0.69373 0.0
C1123 C 0.58964 0.74754 0.66943 0.0
C1124 C 0.57531 0.75308 0.63691 0.0
H1125 H 0.81636 0.5523 0.11335 0.0
H1126 H 0.86293 0.61534 0.03629 0.0
H1127 H 0.83384 0.62345 1.01413 0.0
H1128 H 0.7766 0.54243 0.98202 0.0
H1129 H 0.75517 0.52822 0.0485 0.0
H1130 H 0.77987 0.52858 0.06129 0.0
H1131 H 0.78308 0.54348 0.19754 0.0
H1132 H 0.75837 0.54323 0.18504 0.0
H1133 H 0.78201 0.56747 0.21133 0.0
H1134 H 0.79757 0.62262 0.99101 0.0
H1135 H 0.7599 0.61324 0.97267 0.0
H1136 H 0.73935 0.55139 0.07225 0.0
C1137 C 0.82058 0.5679 0.09199 0.0
C1138 C 0.84189 0.58312 0.07574 0.0
C1139 C 0.84667 0.60343 0.04905 0.0
C1140 C 0.83024 0.60813 0.03635 0.0
C1141 C 0.80925 0.59248 0.05216 0.0
C1142 C 0.8046 0.57286 0.08033 0.0
C1143 C 0.78106 0.55839 0.0919 0.0
C1144 C 0.7727 0.53823 0.043 0.0
C1145 C 0.77583 0.55283 0.17648 0.0
C1146 C 0.77287 0.57257 0.06399 0.0
C1147 C 0.78916 0.59225 0.04139 0.0
C1148 C 0.78481 0.60733 1.00961 0.0
C1149 C 0.76337 0.60193 0.99963 0.0
C1150 C 0.74662 0.5816 0.02122 0.0
C1151 C 0.75168 0.5671 0.05528 0.0
H1152 H 0.26428 0.81569 0.45684 0.0
H1153 H 0.24862 0.86143 0.3654 0.0
H1154 H 0.21108 0.83257 0.34866 0.0
H1155 H 0.23553 0.77586 0.33132 0.0
H1156 H 0.2274 0.75443 0.39852 0.0
H1157 H 0.25159 0.77907 0.41382 0.0
H1158 H 0.2383 0.78263 0.54675 0.0
H1159 H 0.21409 0.75778 0.53228 0.0
H1160 H 0.21297 0.78132 0.55542 0.0
H1161 H 0.1758 0.79645 0.3267 0.0
H1162 H 0.14777 0.75875 0.30724 0.0
H1163 H 0.18829 0.73849 0.41511 0.0
C1164 C 0.25282 0.81978 0.43524 0.0
C1165 C 0.25924 0.84075 0.41287 0.0
C1166 C 0.24389 0.84548 0.3841 0.0
C1167 C 0.22259 0.82914 0.37404 0.0
C1168 C 0.21696 0.80833 0.39424 0.0
C1169 C 0.23173 0.80384 0.42553 0.0
C1170 C 0.2226 0.78032 0.43802 0.0
C1171 C 0.23502 0.77194 0.3927 0.0
C1172 C 0.22195 0.77522 0.52318 0.0
C1173 C 0.20054 0.77198 0.40653 0.0
C1174 C 0.19727 0.78819 0.38205 0.0
C1175 C 0.1782 0.78375 0.34686 0.0
C1176 C 0.16235 0.7623 0.33599 0.0
C1177 C 0.16579 0.74562 0.35955 0.0
C1178 C 0.18504 0.75076 0.39634 0.0
H1179 H 0.43597 0.2568 0.60216 0.0
H1180 H 0.38977 0.24496 0.77857 0.0
H1181 H 0.38011 0.20695 0.78148 0.0
H1182 H 0.40665 0.20455 0.5052 0.0
H1183 H 0.43096 0.20439 0.48703 0.0
H1184 H 0.43109 0.22921 0.49065 0.0
H1185 H 0.46038 0.24285 0.59412 0.0
H1186 H 0.46035 0.21818 0.59083 0.0
H1187 H 0.45585 0.22753 0.67984 0.0
H1188 H 0.37962 0.17087 0.77558 0.0
H1189 H 0.38908 0.14247 0.76431 0.0
H1190 H 0.43597 0.17961 0.59357 0.0
C1191 C 0.42343 0.24616 0.64032 0.0
C1192 C 0.41359 0.25382 0.69007 0.0
C1193 C 0.39735 0.23937 0.73931 0.0
C1194 C 0.39182 0.21777 0.74132 0.0
C1195 C 0.40248 0.21091 0.69297 0.0
C1196 C 0.41783 0.22481 0.64288 0.0
C1197 C 0.42863 0.21457 0.60186 0.0
C1198 C 0.42405 0.21309 0.5161 0.0
C1199 C 0.45271 0.22648 0.61768 0.0
C1200 C 0.41766 0.19288 0.63851 0.0
C1201 C 0.4023 0.19072 0.68994 0.0
C1202 C 0.39132 0.17234 0.73433 0.0
C1203 C 0.39665 0.15622 0.72734 0.0
C1204 C 0.41299 0.15881 0.6772 0.0
C1205 C 0.42313 0.17712 0.63126 0.0
loop_
_geom_bond_atom_site_label_1
_geom_bond_atom_site_label_2
_geom_bond_distance
_geom_bond_site_symmetry_2
_ccdc_geom_bond_type
C0 C1 1.351 . S
C0 N3 1.368 . S
C0 H5 0.931 . S
C1 C0 1.351 . S
C1 N2 1.373 . S
C1 H29 0.930 . S
N2 C1 1.373 . S
N2 C4 1.340 . S
N3 C0 1.368 . S
N3 C4 1.321 . S
N3 Co6 2.135 . S
C4 N2 1.340 . S
C4 N3 1.321 . S
C4 H28 0.930 . S
H5 C0 0.931 . S
Co6 N3 2.135 . S
Co6 N9 2.121 . S
Co6 O14 2.055 . S
Co6 O17 2.039 . S
Co6 N20 2.140 . S
C7 O8 1.227 . S
C7 O17 1.265 . S
O8 C7 1.227 . S
N9 Co6 2.121 . S
N9 C11 1.375 1_554 S
N9 C12 1.313 1_554 S
C10 C11 1.338 . S
C10 N13 1.377 . S
C10 H30 0.930 . S
C11 N9 1.375 1_556 S
C11 C10 1.338 . S
C11 H15 0.931 1_556 S
C12 N9 1.313 1_556 S
C12 N13 1.344 . S
C12 H16 0.930 . S
N13 C10 1.377 . S
N13 C12 1.344 . S
O14 Co6 2.055 . S
O14 C18 1.253 . S
H15 C11 0.931 1_554 S
H16 C12 0.930 . S
O17 Co6 2.039 . S
O17 C7 1.265 . S
C18 O14 1.253 . S
C18 O19 1.227 . S
O19 C18 1.227 . S
N20 Co6 2.140 . S
N20 C23 1.346 . S
N20 C24 1.345 . S
C21 C22 1.387 . S
C21 C25 1.391 . S
C22 C21 1.387 . S
C22 C23 1.369 . S
C22 H31 0.929 . S
C23 N20 1.346 . S
C23 C22 1.369 . S
C23 H26 0.928 . S
C24 N20 1.345 . S
C24 C25 1.371 . S
C24 H27 0.931 . S
C25 C21 1.391 . S
C25 C24 1.371 . S
C25 H32 0.930 . S
H26 C23 0.928 . S
H27 C24 0.931 . S
H28 C4 0.930 . S
H29 C1 0.930 . S
H30 C10 0.930 . S
H31 C22 0.929 . S
H32 C25 0.930 . S
C33 C34 1.351 . S
C33 N36 1.368 . S
C33 H38 0.931 . S
C34 C33 1.351 . S
C34 N35 1.373 . S
C34 H62 0.930 . S
N35 C34 1.373 . S
N35 C37 1.340 . S
N36 C33 1.368 . S
N36 C37 1.321 . S
N36 Co39 2.135 . S
C37 N35 1.340 . S
C37 N36 1.321 . S
C37 H61 0.930 . S
H38 C33 0.931 . S
Co39 N36 2.135 . S
Co39 N42 2.121 . S
Co39 O47 2.055 . S
Co39 O50 2.039 . S
Co39 N53 2.140 . S
C40 O41 1.227 . S
C40 O50 1.265 . S
O41 C40 1.227 . S
N42 Co39 2.121 . S
N42 C44 1.375 . S
N42 C45 1.313 . S
C43 C44 1.338 . S
C43 N46 1.377 . S
C43 H63 0.930 . S
C44 N42 1.375 . S
C44 C43 1.338 . S
C44 H48 0.931 . S
C45 N42 1.313 . S
C45 N46 1.344 . S
C45 H49 0.930 . S
N46 C43 1.377 . S
N46 C45 1.344 . S
O47 Co39 2.055 . S
O47 C51 1.253 . S
H48 C44 0.931 . S
H49 C45 0.930 . S
O50 Co39 2.039 . S
O50 C40 1.265 . S
C51 O47 1.253 . S
C51 O52 1.227 . S
O52 C51 1.227 . S
N53 Co39 2.140 . S
N53 C56 1.346 . S
N53 C57 1.345 . S
C54 C55 1.387 . S
C54 C58 1.391 . S
C55 C54 1.387 . S
C55 C56 1.369 . S
C55 H64 0.929 . S
C56 N53 1.346 . S
C56 C55 1.369 . S
C56 H59 0.928 . S
C57 N53 1.345 . S
C57 C58 1.371 . S
C57 H60 0.931 . S
C58 C54 1.391 . S
C58 C57 1.371 . S
C58 H65 0.930 . S
H59 C56 0.928 . S
H60 C57 0.931 . S
H61 C37 0.930 . S
H62 C34 0.930 . S
H63 C43 0.930 . S
H64 C55 0.929 . S
H65 C58 0.930 . S
C66 C67 1.351 1_556 S
C66 N69 1.368 . S
C66 H71 0.931 . S
C67 C66 1.351 1_554 S
C67 N68 1.373 . S
C67 H95 0.930 . S
N68 C67 1.373 . S
N68 C70 1.340 1_554 S
N69 C66 1.368 . S
N69 C70 1.321 . S
N69 Co72 2.135 . S
C70 N68 1.340 1_556 S
C70 N69 1.321 . S
C70 H94 0.930 . S
H71 C66 0.931 . S
Co72 N69 2.135 . S
Co72 N75 2.121 . S
Co72 O80 2.055 . S
Co72 O83 2.039 . S
Co72 N86 2.140 . S
C73 O74 1.227 . S
C73 O83 1.265 . S
O74 C73 1.227 . S
N75 Co72 2.121 . S
N75 C77 1.375 . S
N75 C78 1.313 . S
C76 C77 1.338 . S
C76 N79 1.377 . S
C76 H96 0.930 . S
C77 N75 1.375 . S
C77 C76 1.338 . S
C77 H81 0.931 . S
C78 N75 1.313 . S
C78 N79 1.344 . S
C78 H82 0.930 . S
N79 C76 1.377 . S
N79 C78 1.344 . S
O80 Co72 2.055 . S
O80 C84 1.253 . S
H81 C77 0.931 . S
H82 C78 0.930 . S
O83 Co72 2.039 . S
O83 C73 1.265 . S
C84 O80 1.253 . S
C84 O85 1.227 . S
O85 C84 1.227 . S
N86 Co72 2.140 . S
N86 C89 1.346 . S
N86 C90 1.345 . S
C87 C88 1.387 . S
C87 C91 1.391 . S
C88 C87 1.387 . S
C88 C89 1.369 . S
C88 H97 0.929 . S
C89 N86 1.346 . S
C89 C88 1.369 . S
C89 H92 0.928 . S
C90 N86 1.345 . S
C90 C91 1.371 . S
C90 H93 0.931 . S
C91 C87 1.391 . S
C91 C90 1.371 . S
C91 H98 0.930 . S
H92 C89 0.928 . S
H93 C90 0.931 . S
H94 C70 0.930 . S
H95 C67 0.930 . S
H96 C76 0.930 . S
H97 C88 0.929 . S
H98 C91 0.930 . S
C99 C100 1.351 . S
C99 N102 1.368 . S
C99 H104 0.931 . S
C100 C99 1.351 . S
C100 N101 1.373 . S
C100 H128 0.930 . S
N101 C100 1.373 . S
N101 C103 1.340 . S
N102 C99 1.368 . S
N102 C103 1.321 . S
N102 Co105 2.135 . S
C103 N101 1.340 . S
C103 N102 1.321 . S
C103 H127 0.930 . S
H104 C99 0.931 . S
Co105 N102 2.135 . S
Co105 N108 2.121 . S
Co105 O113 2.055 . S
Co105 O116 2.039 . S
Co105 N119 2.140 . S
C106 O107 1.227 . S
C106 O116 1.265 . S
O107 C106 1.227 . S
N108 Co105 2.121 . S
N108 C110 1.375 1_554 S
N108 C111 1.313 1_554 S
C109 C110 1.338 . S
C109 N112 1.377 . S
C109 H129 0.930 . S
C110 N108 1.375 1_556 S
C110 C109 1.338 . S
C110 H114 0.931 1_556 S
C111 N108 1.313 1_556 S
C111 N112 1.344 . S
C111 H115 0.930 . S
N112 C109 1.377 . S
N112 C111 1.344 . S
O113 Co105 2.055 . S
O113 C117 1.253 . S
H114 C110 0.931 1_554 S
H115 C111 0.930 . S
O116 Co105 2.039 . S
O116 C106 1.265 . S
C117 O113 1.253 . S
C117 O118 1.227 . S
O118 C117 1.227 . S
N119 Co105 2.140 . S
N119 C122 1.346 . S
N119 C123 1.345 . S
C120 C121 1.387 . S
C120 C124 1.391 . S
C121 C120 1.387 . S
C121 C122 1.369 . S
C121 H130 0.929 . S
C122 N119 1.346 . S
C122 C121 1.369 . S
C122 H125 0.928 . S
C123 N119 1.345 . S
C123 C124 1.371 . S
C123 H126 0.931 . S
C124 C120 1.391 . S
C124 C123 1.371 . S
C124 H131 0.930 . S
H125 C122 0.928 . S
H126 C123 0.931 . S
H127 C103 0.930 . S
H128 C100 0.930 . S
H129 C109 0.930 . S
H130 C121 0.929 . S
H131 C124 0.930 . S
C132 C133 1.351 . S
C132 N135 1.368 . S
C132 H137 0.931 . S
C133 C132 1.351 . S
C133 N134 1.373 . S
C133 H161 0.930 . S
N134 C133 1.373 . S
N134 C136 1.340 . S
N135 C132 1.368 . S
N135 C136 1.321 . S
N135 Co138 2.135 . S
C136 N134 1.340 . S
C136 N135 1.321 . S
C136 H160 0.930 . S
H137 C132 0.931 . S
Co138 N135 2.135 . S
Co138 N141 2.121 . S
Co138 O146 2.055 . S
Co138 O149 2.039 . S
Co138 N152 2.140 . S
C139 O140 1.227 . S
C139 O149 1.265 . S
O140 C139 1.227 . S
N141 Co138 2.121 . S
N141 C143 1.375 . S
N141 C144 1.313 . S
C142 C143 1.338 . S
C142 N145 1.377 . S
C142 H162 0.930 . S
C143 N141 1.375 . S
C143 C142 1.338 . S
C143 H147 0.931 . S
C144 N141 1.313 . S
C144 N145 1.344 . S
C144 H148 0.930 . S
N145 C142 1.377 . S
N145 C144 1.344 . S
O146 Co138 2.055 . S
O146 C150 1.253 . S
H147 C143 0.931 . S
H148 C144 0.930 . S
O149 Co138 2.039 . S
O149 C139 1.265 . S
C150 O146 1.253 . S
C150 O151 1.227 . S
O151 C150 1.227 . S
N152 Co138 2.140 . S
N152 C155 1.346 . S
N152 C156 1.345 . S
C153 C154 1.387 . S
C153 C157 1.391 . S
C154 C153 1.387 . S
C154 C155 1.369 . S
C154 H163 0.929 . S
C155 N152 1.346 . S
C155 C154 1.369 . S
C155 H158 0.928 . S
C156 N152 1.345 . S
C156 C157 1.371 . S
C156 H159 0.931 . S
C157 C153 1.391 . S
C157 C156 1.371 . S
C157 H164 0.930 . S
H158 C155 0.928 . S
H159 C156 0.931 . S
H160 C136 0.930 . S
H161 C133 0.930 . S
H162 C142 0.930 . S
H163 C154 0.929 . S
H164 C157 0.930 . S
C165 C166 1.351 1_556 S
C165 N168 1.368 . S
C165 H170 0.931 . S
C166 C165 1.351 1_554 S
C166 N167 1.373 . S
C166 H194 0.930 . S
N167 C166 1.373 . S
N167 C169 1.340 1_554 S
N168 C165 1.368 . S
N168 C169 1.321 . S
N168 Co171 2.135 . S
C169 N167 1.340 1_556 S
C169 N168 1.321 . S
C169 H193 0.930 . S
H170 C165 0.931 . S
Co171 N168 2.135 . S
Co171 N174 2.121 . S
Co171 O179 2.055 . S
Co171 O182 2.039 . S
Co171 N185 2.140 . S
C172 O173 1.227 . S
C172 O182 1.265 . S
O173 C172 1.227 . S
N174 Co171 2.121 . S
N174 C176 1.375 . S
N174 C177 1.313 . S
C175 C176 1.338 . S
C175 N178 1.377 . S
C175 H195 0.930 . S
C176 N174 1.375 . S
C176 C175 1.338 . S
C176 H180 0.931 . S
C177 N174 1.313 . S
C177 N178 1.344 . S
C177 H181 0.930 . S
N178 C175 1.377 . S
N178 C177 1.344 . S
O179 Co171 2.055 . S
O179 C183 1.253 . S
H180 C176 0.931 . S
H181 C177 0.930 . S
O182 Co171 2.039 . S
O182 C172 1.265 . S
C183 O179 1.253 . S
C183 O184 1.227 . S
O184 C183 1.227 . S
N185 Co171 2.140 . S
N185 C188 1.346 . S
N185 C189 1.345 . S
C186 C187 1.387 . S
C186 C190 1.391 . S
C187 C186 1.387 . S
C187 C188 1.369 . S
C187 H196 0.929 . S
C188 N185 1.346 . S
C188 C187 1.369 . S
C188 H191 0.928 . S
C189 N185 1.345 . S
C189 C190 1.371 . S
C189 H192 0.931 . S
C190 C186 1.391 . S
C190 C189 1.371 . S
C190 H197 0.930 . S
H191 C188 0.928 . S
H192 C189 0.931 . S
H193 C169 0.930 . S
H194 C166 0.930 . S
H195 C175 0.930 . S
H196 C187 0.929 . S
H197 C190 0.930 . S
C198 C199 1.351 . S
C198 N201 1.368 . S
C198 H203 0.931 . S
C199 C198 1.351 . S
C199 N200 1.373 . S
C199 H227 0.930 . S
N200 C199 1.373 . S
N200 C202 1.340 . S
N201 C198 1.368 . S
N201 C202 1.321 . S
N201 Co204 2.135 . S
C202 N200 1.340 . S
C202 N201 1.321 . S
C202 H226 0.930 . S
H203 C198 0.931 . S
Co204 N201 2.135 . S
Co204 N207 2.121 . S
Co204 O212 2.055 . S
Co204 O215 2.039 . S
Co204 N218 2.140 . S
C205 O206 1.227 . S
C205 O215 1.265 . S
O206 C205 1.227 . S
N207 Co204 2.121 . S
N207 C209 1.375 . S
N207 C210 1.313 . S
C208 C209 1.338 . S
C208 N211 1.377 . S
C208 H228 0.930 . S
C209 N207 1.375 . S
C209 C208 1.338 . S
C209 H213 0.931 . S
C210 N207 1.313 . S
C210 N211 1.344 . S
C210 H214 0.930 . S
N211 C208 1.377 . S
N211 C210 1.344 . S
O212 Co204 2.055 . S
O212 C216 1.253 . S
H213 C209 0.931 . S
H214 C210 0.930 . S
O215 Co204 2.039 . S
O215 C205 1.265 . S
C216 O212 1.253 . S
C216 O217 1.227 . S
O217 C216 1.227 . S
N218 Co204 2.140 . S
N218 C221 1.346 . S
N218 C222 1.345 . S
C219 C220 1.387 . S
C219 C223 1.391 . S
C220 C219 1.387 . S
C220 C221 1.369 . S
C220 H229 0.929 . S
C221 N218 1.346 . S
C221 C220 1.369 . S
C221 H224 0.928 . S
C222 N218 1.345 . S
C222 C223 1.371 . S
C222 H225 0.931 . S
C223 C219 1.391 . S
C223 C222 1.371 . S
C223 H230 0.930 . S
H224 C221 0.928 . S
H225 C222 0.931 . S
H226 C202 0.930 . S
H227 C199 0.930 . S
H228 C208 0.930 . S
H229 C220 0.929 . S
H230 C223 0.930 . S
C231 C232 1.351 . S
C231 N234 1.368 . S
C231 H236 0.931 . S
C232 C231 1.351 . S
C232 N233 1.373 . S
C232 H260 0.930 . S
N233 C232 1.373 . S
N233 C235 1.340 . S
N234 C231 1.368 . S
N234 C235 1.321 . S
N234 Co237 2.135 . S
C235 N233 1.340 . S
C235 N234 1.321 . S
C235 H259 0.930 . S
H236 C231 0.931 . S
Co237 N234 2.135 . S
Co237 N240 2.121 . S
Co237 O245 2.055 . S
Co237 O248 2.039 . S
Co237 N251 2.140 . S
C238 O239 1.227 . S
C238 O248 1.265 . S
O239 C238 1.227 . S
N240 Co237 2.121 . S
N240 C242 1.375 1_556 S
N240 C243 1.313 1_556 S
C241 C242 1.338 . S
C241 N244 1.377 . S
C241 H261 0.930 . S
C242 N240 1.375 1_554 S
C242 C241 1.338 . S
C242 H246 0.931 1_554 S
C243 N240 1.313 1_554 S
C243 N244 1.344 . S
C243 H247 0.930 . S
N244 C241 1.377 . S
N244 C243 1.344 . S
O245 Co237 2.055 . S
O245 C249 1.253 . S
H246 C242 0.931 1_556 S
H247 C243 0.930 . S
O248 Co237 2.039 . S
O248 C238 1.265 . S
C249 O245 1.253 . S
C249 O250 1.227 . S
O250 C249 1.227 . S
N251 Co237 2.140 . S
N251 C254 1.346 . S
N251 C255 1.345 . S
C252 C253 1.387 . S
C252 C256 1.391 . S
C253 C252 1.387 . S
C253 C254 1.369 . S
C253 H262 0.929 . S
C254 N251 1.346 . S
C254 C253 1.369 . S
C254 H257 0.928 . S
C255 N251 1.345 . S
C255 C256 1.371 . S
C255 H258 0.931 . S
C256 C252 1.391 . S
C256 C255 1.371 . S
C256 H263 0.930 . S
H257 C254 0.928 . S
H258 C255 0.931 . S
H259 C235 0.930 . S
H260 C232 0.930 . S
H261 C241 0.930 . S
H262 C253 0.929 . S
H263 C256 0.930 . S
C264 C265 1.351 1_554 S
C264 N267 1.368 . S
C264 H269 0.931 . S
C265 C264 1.351 1_556 S
C265 N266 1.373 . S
C265 H293 0.930 . S
N266 C265 1.373 . S
N266 C268 1.340 1_556 S
N267 C264 1.368 . S
N267 C268 1.321 . S
N267 Co270 2.135 . S
C268 N266 1.340 1_554 S
C268 N267 1.321 . S
C268 H292 0.930 . S
H269 C264 0.931 . S
Co270 N267 2.135 . S
Co270 N273 2.121 . S
Co270 O278 2.055 . S
Co270 O281 2.039 . S
Co270 N284 2.140 . S
C271 O272 1.227 . S
C271 O281 1.265 . S
O272 C271 1.227 . S
N273 Co270 2.121 . S
N273 C275 1.375 . S
N273 C276 1.313 . S
C274 C275 1.338 . S
C274 N277 1.377 . S
C274 H294 0.930 . S
C275 N273 1.375 . S
C275 C274 1.338 . S
C275 H279 0.931 . S
C276 N273 1.313 . S
C276 N277 1.344 . S
C276 H280 0.930 . S
N277 C274 1.377 . S
N277 C276 1.344 . S
O278 Co270 2.055 . S
O278 C282 1.253 . S
H279 C275 0.931 . S
H280 C276 0.930 . S
O281 Co270 2.039 . S
O281 C271 1.265 . S
C282 O278 1.253 . S
C282 O283 1.227 . S
O283 C282 1.227 . S
N284 Co270 2.140 . S
N284 C287 1.346 . S
N284 C288 1.345 . S
C285 C286 1.387 . S
C285 C289 1.391 . S
C286 C285 1.387 . S
C286 C287 1.369 . S
C286 H295 0.929 . S
C287 N284 1.346 . S
C287 C286 1.369 . S
C287 H290 0.928 . S
C288 N284 1.345 . S
C288 C289 1.371 . S
C288 H291 0.931 . S
C289 C285 1.391 . S
C289 C288 1.371 . S
C289 H296 0.930 . S
H290 C287 0.928 . S
H291 C288 0.931 . S
H292 C268 0.930 . S
H293 C265 0.930 . S
H294 C274 0.930 . S
H295 C286 0.929 . S
H296 C289 0.930 . S
C297 C298 1.351 . S
C297 N300 1.368 . S
C297 H302 0.931 . S
C298 C297 1.351 . S
C298 N299 1.373 . S
C298 H326 0.930 . S
N299 C298 1.373 . S
N299 C301 1.340 . S
N300 C297 1.368 . S
N300 C301 1.321 . S
N300 Co303 2.135 . S
C301 N299 1.340 . S
C301 N300 1.321 . S
C301 H325 0.930 . S
H302 C297 0.931 . S
Co303 N300 2.135 . S
Co303 N306 2.121 . S
Co303 O311 2.055 . S
Co303 O314 2.039 . S
Co303 N317 2.140 . S
C304 O305 1.227 . S
C304 O314 1.265 . S
O305 C304 1.227 . S
N306 Co303 2.121 . S
N306 C308 1.375 . S
N306 C309 1.313 . S
C307 C308 1.338 . S
C307 N310 1.377 . S
C307 H327 0.930 . S
C308 N306 1.375 . S
C308 C307 1.338 . S
C308 H312 0.931 . S
C309 N306 1.313 . S
C309 N310 1.344 . S
C309 H313 0.930 . S
N310 C307 1.377 . S
N310 C309 1.344 . S
O311 Co303 2.055 . S
O311 C315 1.253 . S
H312 C308 0.931 . S
H313 C309 0.930 . S
O314 Co303 2.039 . S
O314 C304 1.265 . S
C315 O311 1.253 . S
C315 O316 1.227 . S
O316 C315 1.227 . S
N317 Co303 2.140 . S
N317 C320 1.346 . S
N317 C321 1.345 . S
C318 C319 1.387 . S
C318 C322 1.391 . S
C319 C318 1.387 . S
C319 C320 1.369 . S
C319 H328 0.929 . S
C320 N317 1.346 . S
C320 C319 1.369 . S
C320 H323 0.928 . S
C321 N317 1.345 . S
C321 C322 1.371 . S
C321 H324 0.931 . S
C322 C318 1.391 . S
C322 C321 1.371 . S
C322 H329 0.930 . S
H323 C320 0.928 . S
H324 C321 0.931 . S
H325 C301 0.930 . S
H326 C298 0.930 . S
H327 C307 0.930 . S
H328 C319 0.929 . S
H329 C322 0.930 . S
C330 C331 1.351 . S
C330 N333 1.368 . S
C330 H335 0.931 . S
C331 C330 1.351 . S
C331 N332 1.373 . S
C331 H359 0.930 . S
N332 C331 1.373 . S
N332 C334 1.340 . S
N333 C330 1.368 . S
N333 C334 1.321 . S
N333 Co336 2.135 . S
C334 N332 1.340 . S
C334 N333 1.321 . S
C334 H358 0.930 . S
H335 C330 0.931 . S
Co336 N333 2.135 . S
Co336 N339 2.121 . S
Co336 O344 2.055 . S
Co336 O347 2.039 . S
Co336 N350 2.140 . S
C337 O338 1.227 . S
C337 O347 1.265 . S
O338 C337 1.227 . S
N339 Co336 2.121 . S
N339 C341 1.375 1_556 S
N339 C342 1.313 1_556 S
C340 C341 1.338 . S
C340 N343 1.377 . S
C340 H360 0.930 . S
C341 N339 1.375 1_554 S
C341 C340 1.338 . S
C341 H345 0.931 1_554 S
C342 N339 1.313 1_554 S
C342 N343 1.344 . S
C342 H346 0.930 . S
N343 C340 1.377 . S
N343 C342 1.344 . S
O344 Co336 2.055 . S
O344 C348 1.253 . S
H345 C341 0.931 1_556 S
H346 C342 0.930 . S
O347 Co336 2.039 . S
O347 C337 1.265 . S
C348 O344 1.253 . S
C348 O349 1.227 . S
O349 C348 1.227 . S
N350 Co336 2.140 . S
N350 C353 1.346 . S
N350 C354 1.345 . S
C351 C352 1.387 . S
C351 C355 1.391 . S
C352 C351 1.387 . S
C352 C353 1.369 . S
C352 H361 0.929 . S
C353 N350 1.346 . S
C353 C352 1.369 . S
C353 H356 0.928 . S
C354 N350 1.345 . S
C354 C355 1.371 . S
C354 H357 0.931 . S
C355 C351 1.391 . S
C355 C354 1.371 . S
C355 H362 0.930 . S
H356 C353 0.928 . S
H357 C354 0.931 . S
H358 C334 0.930 . S
H359 C331 0.930 . S
H360 C340 0.930 . S
H361 C352 0.929 . S
H362 C355 0.930 . S
C363 C364 1.351 1_554 S
C363 N366 1.368 . S
C363 H368 0.931 . S
C364 C363 1.351 1_556 S
C364 N365 1.373 . S
C364 H392 0.930 . S
N365 C364 1.373 . S
N365 C367 1.340 1_556 S
N366 C363 1.368 . S
N366 C367 1.321 . S
N366 Co369 2.135 . S
C367 N365 1.340 1_554 S
C367 N366 1.321 . S
C367 H391 0.930 . S
H368 C363 0.931 . S
Co369 N366 2.135 . S
Co369 N372 2.121 . S
Co369 O377 2.055 . S
Co369 O380 2.039 . S
Co369 N383 2.140 . S
C370 O371 1.227 . S
C370 O380 1.265 . S
O371 C370 1.227 . S
N372 Co369 2.121 . S
N372 C374 1.375 . S
N372 C375 1.313 . S
C373 C374 1.338 . S
C373 N376 1.377 . S
C373 H393 0.930 . S
C374 N372 1.375 . S
C374 C373 1.338 . S
C374 H378 0.931 . S
C375 N372 1.313 . S
C375 N376 1.344 . S
C375 H379 0.930 . S
N376 C373 1.377 . S
N376 C375 1.344 . S
O377 Co369 2.055 . S
O377 C381 1.253 . S
H378 C374 0.931 . S
H379 C375 0.930 . S
O380 Co369 2.039 . S
O380 C370 1.265 . S
C381 O377 1.253 . S
C381 O382 1.227 . S
O382 C381 1.227 . S
N383 Co369 2.140 . S
N383 C386 1.346 . S
N383 C387 1.345 . S
C384 C385 1.387 . S
C384 C388 1.391 . S
C385 C384 1.387 . S
C385 C386 1.369 . S
C385 H394 0.929 . S
C386 N383 1.346 . S
C386 C385 1.369 . S
C386 H389 0.928 . S
C387 N383 1.345 . S
C387 C388 1.371 . S
C387 H390 0.931 . S
C388 C384 1.391 . S
C388 C387 1.371 . S
C388 H395 0.930 . S
H389 C386 0.928 . S
H390 C387 0.931 . S
H391 C367 0.930 . S
H392 C364 0.930 . S
H393 C373 0.930 . S
H394 C385 0.929 . S
H395 C388 0.930 . S
H396 C408 0.930 . S
H397 C410 0.930 . S
H398 C411 0.930 . S
H399 C415 0.959 . S
H400 C415 0.959 1_655 S
H401 C415 0.961 . S
H402 C416 0.960 . S
H403 C416 0.961 1_655 S
H404 C416 0.959 1_655 S
H405 C419 0.929 . S
H406 C420 0.931 . S
H407 C422 0.930 . S
C408 H396 0.930 . S
C408 C409 1.399 . S
C408 C413 1.399 . S
C409 C408 1.399 . S
C409 C410 1.376 . S
C410 H397 0.930 . S
C410 C409 1.376 . S
C410 C411 1.388 . S
C411 H398 0.930 . S
C411 C410 1.388 . S
C411 C412 1.390 . S
C412 C411 1.390 . S
C412 C413 1.394 . S
C412 C418 1.465 1_455 S
C413 C408 1.399 . S
C413 C412 1.394 . S
C413 C414 1.516 . S
C414 C413 1.516 . S
C414 C415 1.502 . S
C414 C416 1.561 . S
C414 C417 1.526 1_455 S
C415 H399 0.959 . S
C415 H400 0.959 1_455 S
C415 H401 0.961 . S
C415 C414 1.502 . S
C416 H402 0.960 . S
C416 H403 0.961 1_455 S
C416 H404 0.959 1_455 S
C416 C414 1.561 . S
C417 C414 1.526 1_655 S
C417 C418 1.396 . S
C417 C422 1.390 . S
C418 C412 1.465 1_655 S
C418 C417 1.396 . S
C418 C419 1.399 . S
C419 H405 0.929 . S
C419 C418 1.399 . S
C419 C420 1.385 . S
C420 H406 0.931 . S
C420 C419 1.385 . S
C420 C421 1.389 . S
C421 C420 1.389 . S
C421 C422 1.387 . S
C422 H407 0.930 . S
C422 C417 1.390 . S
C422 C421 1.387 . S
H423 C435 0.930 . S
H424 C437 0.930 . S
H425 C438 0.930 . S
H426 C442 0.959 . S
H427 C442 0.959 . S
H428 C442 0.961 1_545 S
H429 C443 0.960 1_545 S
H430 C443 0.961 . S
H431 C443 0.959 . S
H432 C446 0.929 . S
H433 C447 0.931 . S
H434 C449 0.930 . S
C435 H423 0.930 . S
C435 C436 1.399 . S
C435 C440 1.399 . S
C436 C435 1.399 . S
C436 C437 1.376 . S
C437 H424 0.930 . S
C437 C436 1.376 . S
C437 C438 1.388 . S
C438 H425 0.930 . S
C438 C437 1.388 . S
C438 C439 1.390 . S
C439 C438 1.390 . S
C439 C440 1.394 . S
C439 C445 1.465 1_545 S
C440 C435 1.399 . S
C440 C439 1.394 . S
C440 C441 1.516 1_545 S
C441 C440 1.516 1_565 S
C441 C442 1.502 . S
C441 C443 1.561 . S
C441 C444 1.526 . S
C442 H426 0.959 . S
C442 H427 0.959 . S
C442 H428 0.961 1_565 S
C442 C441 1.502 . S
C443 H429 0.960 1_565 S
C443 H430 0.961 . S
C443 H431 0.959 . S
C443 C441 1.561 . S
C444 C441 1.526 . S
C444 C445 1.396 . S
C444 C449 1.390 . S
C445 C439 1.465 1_565 S
C445 C444 1.396 . S
C445 C446 1.399 . S
C446 H432 0.929 . S
C446 C445 1.399 . S
C446 C447 1.385 . S
C447 H433 0.931 . S
C447 C446 1.385 . S
C447 C448 1.389 . S
C448 C447 1.389 . S
C448 C449 1.387 . S
C449 H434 0.930 . S
C449 C444 1.390 . S
C449 C448 1.387 . S
H450 C462 0.930 . S
H451 C464 0.930 . S
H452 C465 0.930 . S
H453 C469 0.959 . S
H454 C469 0.959 . S
H455 C469 0.961 . S
H456 C470 0.960 1_554 S
H457 C470 0.961 1_554 S
H458 C470 0.959 . S
H459 C473 0.929 . S
H460 C474 0.931 . S
H461 C476 0.930 . S
C462 H450 0.930 . S
C462 C463 1.399 . S
C462 C467 1.399 . S
C463 C462 1.399 . S
C463 C464 1.376 . S
C464 H451 0.930 . S
C464 C463 1.376 . S
C464 C465 1.388 . S
C465 H452 0.930 . S
C465 C464 1.388 . S
C465 C466 1.390 . S
C466 C465 1.390 . S
C466 C467 1.394 . S
C466 C472 1.465 . S
C467 C462 1.399 . S
C467 C466 1.394 . S
C467 C468 1.516 . S
C468 C467 1.516 . S
C468 C469 1.502 . S
C468 C470 1.561 . S
C468 C471 1.526 . S
C469 H453 0.959 . S
C469 H454 0.959 . S
C469 H455 0.961 . S
C469 C468 1.502 . S
C470 H456 0.960 1_556 S
C470 H457 0.961 1_556 S
C470 H458 0.959 . S
C470 C468 1.561 . S
C471 C468 1.526 . S
C471 C472 1.396 . S
C471 C476 1.390 . S
C472 C466 1.465 . S
C472 C471 1.396 . S
C472 C473 1.399 . S
C473 H459 0.929 . S
C473 C472 1.399 . S
C473 C474 1.385 . S
C474 H460 0.931 . S
C474 C473 1.385 . S
C474 C475 1.389 . S
C475 C474 1.389 . S
C475 C476 1.387 . S
C476 H461 0.930 . S
C476 C471 1.390 . S
C476 C475 1.387 . S
H477 C489 0.930 . S
H478 C491 0.930 . S
H479 C492 0.930 . S
H480 C496 0.959 . S
H481 C496 0.959 1_656 S
H482 C496 0.961 1_556 S
H483 C497 0.960 . S
H484 C497 0.961 1_655 S
H485 C497 0.960 1_655 S
H486 C500 0.929 . S
H487 C501 0.931 . S
H488 C503 0.930 . S
C489 H477 0.930 . S
C489 C490 1.399 . S
C489 C494 1.399 . S
C490 C489 1.399 . S
C490 C491 1.376 . S
C491 H478 0.930 . S
C491 C490 1.376 . S
C491 C492 1.388 . S
C492 H479 0.930 . S
C492 C491 1.388 . S
C492 C493 1.390 . S
C493 C492 1.390 . S
C493 C494 1.394 . S
C493 C499 1.465 1_455 S
C494 C489 1.399 . S
C494 C493 1.394 . S
C494 C495 1.516 . S
C495 C494 1.516 . S
C495 C496 1.502 . S
C495 C497 1.561 . S
C495 C498 1.526 1_455 S
C496 H480 0.959 . S
C496 H481 0.959 1_454 S
C496 H482 0.961 1_554 S
C496 C495 1.502 . S
C497 H483 0.960 . S
C497 H484 0.961 1_455 S
C497 H485 0.960 1_455 S
C497 C495 1.561 . S
C498 C495 1.526 1_655 S
C498 C499 1.396 . S
C498 C503 1.390 . S
C499 C493 1.465 1_655 S
C499 C498 1.396 . S
C499 C500 1.399 . S
C500 H486 0.929 . S
C500 C499 1.399 . S
C500 C501 1.385 . S
C501 H487 0.931 . S
C501 C500 1.385 . S
C501 C502 1.389 . S
C502 C501 1.389 . S
C502 C503 1.387 . S
C503 H488 0.930 . S
C503 C498 1.390 . S
C503 C502 1.387 . S
H504 C516 0.930 . S
H505 C518 0.930 . S
H506 C519 0.930 . S
H507 C523 0.959 . S
H508 C523 0.959 . S
H509 C523 0.961 1_545 S
H510 C524 0.960 1_545 S
H511 C524 0.961 . S
H512 C524 0.959 . S
H513 C527 0.929 . S
H514 C528 0.931 . S
H515 C530 0.930 . S
C516 H504 0.930 . S
C516 C517 1.399 . S
C516 C521 1.399 . S
C517 C516 1.399 . S
C517 C518 1.376 . S
C518 H505 0.930 . S
C518 C517 1.376 . S
C518 C519 1.388 . S
C519 H506 0.930 . S
C519 C518 1.388 . S
C519 C520 1.390 . S
C520 C519 1.390 . S
C520 C521 1.394 . S
C520 C526 1.465 1_545 S
C521 C516 1.399 . S
C521 C520 1.394 . S
C521 C522 1.516 1_545 S
C522 C521 1.516 1_565 S
C522 C523 1.502 . S
C522 C524 1.561 . S
C522 C525 1.526 . S
C523 H507 0.959 . S
C523 H508 0.959 . S
C523 H509 0.961 1_565 S
C523 C522 1.502 . S
C524 H510 0.960 1_565 S
C524 H511 0.961 . S
C524 H512 0.959 . S
C524 C522 1.561 . S
C525 C522 1.526 . S
C525 C526 1.396 . S
C525 C530 1.390 . S
C526 C520 1.465 1_565 S
C526 C525 1.396 . S
C526 C527 1.399 . S
C527 H513 0.929 . S
C527 C526 1.399 . S
C527 C528 1.385 . S
C528 H514 0.931 . S
C528 C527 1.385 . S
C528 C529 1.389 . S
C529 C528 1.389 . S
C529 C530 1.387 . S
C530 H515 0.930 . S
C530 C525 1.390 . S
C530 C529 1.387 . S
H531 C543 0.930 . S
H532 C545 0.930 . S
H533 C546 0.930 . S
H534 C550 0.959 . S
H535 C550 0.959 1_554 S
H536 C550 0.961 1_554 S
H537 C551 0.960 . S
H538 C551 0.961 . S
H539 C551 0.959 . S
H540 C554 0.929 . S
H541 C555 0.931 . S
H542 C557 0.930 . S
C543 H531 0.930 . S
C543 C544 1.399 . S
C543 C548 1.399 . S
C544 C543 1.399 . S
C544 C545 1.376 . S
C545 H532 0.930 . S
C545 C544 1.376 . S
C545 C546 1.388 . S
C546 H533 0.930 . S
C546 C545 1.388 . S
C546 C547 1.390 . S
C547 C546 1.390 . S
C547 C548 1.394 . S
C547 C553 1.465 . S
C548 C543 1.399 . S
C548 C547 1.394 . S
C548 C549 1.516 . S
C549 C548 1.516 . S
C549 C550 1.502 . S
C549 C551 1.561 . S
C549 C552 1.526 . S
C550 H534 0.959 . S
C550 H535 0.959 1_556 S
C550 H536 0.961 1_556 S
C550 C549 1.502 . S
C551 H537 0.960 . S
C551 H538 0.961 . S
C551 H539 0.959 . S
C551 C549 1.561 . S
C552 C549 1.526 . S
C552 C553 1.396 . S
C552 C557 1.390 . S
C553 C547 1.465 . S
C553 C552 1.396 . S
C553 C554 1.399 . S
C554 H540 0.929 . S
C554 C553 1.399 . S
C554 C555 1.385 . S
C555 H541 0.931 . S
C555 C554 1.385 . S
C555 C556 1.389 . S
C556 C555 1.389 . S
C556 C557 1.387 . S
C557 H542 0.930 . S
C557 C552 1.390 . S
C557 C556 1.387 . S
H558 C570 0.930 . S
H559 C572 0.930 . S
H560 C573 0.930 . S
H561 C577 0.959 . S
H562 C577 0.959 . S
H563 C577 0.961 . S
H564 C578 0.960 . S
H565 C578 0.961 . S
H566 C578 0.959 . S
H567 C581 0.929 . S
H568 C582 0.931 . S
H569 C584 0.930 . S
C570 H558 0.930 . S
C570 C571 1.399 . S
C570 C575 1.399 . S
C571 C570 1.399 . S
C571 C572 1.376 . S
C572 H559 0.930 . S
C572 C571 1.376 . S
C572 C573 1.388 . S
C573 H560 0.930 . S
C573 C572 1.388 . S
C573 C574 1.390 . S
C574 C573 1.390 . S
C574 C575 1.394 . S
C574 C580 1.465 . S
C575 C570 1.399 . S
C575 C574 1.394 . S
C575 C576 1.516 . S
C576 C575 1.516 . S
C576 C577 1.502 . S
C576 C578 1.561 . S
C576 C579 1.526 . S
C577 H561 0.959 . S
C577 H562 0.959 . S
C577 H563 0.961 . S
C577 C576 1.502 . S
C578 H564 0.960 . S
C578 H565 0.961 . S
C578 H566 0.959 . S
C578 C576 1.561 . S
C579 C576 1.526 . S
C579 C580 1.396 . S
C579 C584 1.390 . S
C580 C574 1.465 . S
C580 C579 1.396 . S
C580 C581 1.399 . S
C581 H567 0.929 . S
C581 C580 1.399 . S
C581 C582 1.385 . S
C582 H568 0.931 . S
C582 C581 1.385 . S
C582 C583 1.389 . S
C583 C582 1.389 . S
C583 C584 1.387 . S
C584 H569 0.930 . S
C584 C579 1.390 . S
C584 C583 1.387 . S
H585 C597 0.930 . S
H586 C599 0.930 . S
H587 C600 0.930 . S
H588 C604 0.959 . S
H589 C604 0.960 . S
H590 C604 0.961 . S
H591 C605 0.960 . S
H592 C605 0.961 . S
H593 C605 0.959 . S
H594 C608 0.929 . S
H595 C609 0.931 . S
H596 C611 0.930 . S
C597 H585 0.930 . S
C597 C598 1.399 . S
C597 C602 1.399 . S
C598 C597 1.399 . S
C598 C599 1.376 . S
C599 H586 0.930 . S
C599 C598 1.376 . S
C599 C600 1.388 . S
C600 H587 0.930 . S
C600 C599 1.388 . S
C600 C601 1.390 . S
C601 C600 1.390 . S
C601 C602 1.394 . S
C601 C607 1.465 . S
C602 C597 1.399 . S
C602 C601 1.394 . S
C602 C603 1.516 . S
C603 C602 1.516 . S
C603 C604 1.502 . S
C603 C605 1.561 . S
C603 C606 1.526 1_556 S
C604 H588 0.959 . S
C604 H589 0.960 . S
C604 H590 0.961 . S
C604 C603 1.502 . S
C605 H591 0.960 . S
C605 H592 0.961 . S
C605 H593 0.959 . S
C605 C603 1.561 . S
C606 C603 1.526 1_554 S
C606 C607 1.396 1_554 S
C606 C611 1.390 . S
C607 C601 1.465 . S
C607 C606 1.396 1_556 S
C607 C608 1.399 1_556 S
C608 H594 0.929 . S
C608 C607 1.399 1_554 S
C608 C609 1.385 . S
C609 H595 0.931 . S
C609 C608 1.385 . S
C609 C610 1.389 . S
C610 C609 1.389 . S
C610 C611 1.387 . S
C611 H596 0.930 . S
C611 C606 1.390 . S
C611 C610 1.387 . S
H612 C624 0.930 . S
H613 C626 0.930 . S
H614 C627 0.930 . S
H615 C631 0.959 . S
H616 C631 0.959 . S
H617 C631 0.961 . S
H618 C632 0.960 . S
H619 C632 0.961 . S
H620 C632 0.959 . S
H621 C635 0.929 . S
H622 C636 0.931 . S
H623 C638 0.930 . S
C624 H612 0.930 . S
C624 C625 1.399 . S
C624 C629 1.399 . S
C625 C624 1.399 . S
C625 C626 1.376 . S
C626 H613 0.930 . S
C626 C625 1.376 . S
C626 C627 1.388 . S
C627 H614 0.930 . S
C627 C626 1.388 . S
C627 C628 1.390 . S
C628 C627 1.390 . S
C628 C629 1.394 . S
C628 C634 1.465 . S
C629 C624 1.399 . S
C629 C628 1.394 . S
C629 C630 1.516 . S
C630 C629 1.516 . S
C630 C631 1.502 . S
C630 C632 1.561 . S
C630 C633 1.526 . S
C631 H615 0.959 . S
C631 H616 0.959 . S
C631 H617 0.961 . S
C631 C630 1.502 . S
C632 H618 0.960 . S
C632 H619 0.961 . S
C632 H620 0.959 . S
C632 C630 1.561 . S
C633 C630 1.526 . S
C633 C634 1.396 . S
C633 C638 1.390 . S
C634 C628 1.465 . S
C634 C633 1.396 . S
C634 C635 1.399 . S
C635 H621 0.929 . S
C635 C634 1.399 . S
C635 C636 1.385 . S
C636 H622 0.931 . S
C636 C635 1.385 . S
C636 C637 1.389 . S
C637 C636 1.389 . S
C637 C638 1.387 . S
C638 H623 0.930 . S
C638 C633 1.390 . S
C638 C637 1.387 . S
H639 C651 0.930 . S
H640 C653 0.930 . S
H641 C654 0.930 . S
H642 C658 0.959 . S
H643 C658 0.959 . S
H644 C658 0.961 . S
H645 C659 0.960 . S
H646 C659 0.961 . S
H647 C659 0.959 . S
H648 C662 0.929 . S
H649 C663 0.931 . S
H650 C665 0.930 . S
C651 H639 0.930 . S
C651 C652 1.399 . S
C651 C656 1.399 . S
C652 C651 1.399 . S
C652 C653 1.376 . S
C653 H640 0.930 . S
C653 C652 1.376 . S
C653 C654 1.388 . S
C654 H641 0.930 . S
C654 C653 1.388 . S
C654 C655 1.390 . S
C655 C654 1.390 . S
C655 C656 1.394 . S
C655 C661 1.465 . S
C656 C651 1.399 . S
C656 C655 1.394 . S
C656 C657 1.516 . S
C657 C656 1.516 . S
C657 C658 1.502 . S
C657 C659 1.561 . S
C657 C660 1.526 . S
C658 H642 0.959 . S
C658 H643 0.959 . S
C658 H644 0.961 . S
C658 C657 1.502 . S
C659 H645 0.960 . S
C659 H646 0.961 . S
C659 H647 0.959 . S
C659 C657 1.561 . S
C660 C657 1.526 . S
C660 C661 1.396 . S
C660 C665 1.390 . S
C661 C655 1.465 . S
C661 C660 1.396 . S
C661 C662 1.399 . S
C662 H648 0.929 . S
C662 C661 1.399 . S
C662 C663 1.385 . S
C663 H649 0.931 . S
C663 C662 1.385 . S
C663 C664 1.389 . S
C664 C663 1.389 . S
C664 C665 1.387 . S
C665 H650 0.930 . S
C665 C660 1.390 . S
C665 C664 1.387 . S
H666 C678 0.930 . S
H667 C680 0.930 . S
H668 C681 0.930 . S
H669 C685 0.959 . S
H670 C685 0.959 . S
H671 C685 0.975 . S
H672 C686 0.960 . S
H673 C686 0.961 . S
H674 C686 0.959 . S
H675 C689 0.929 . S
H676 C690 0.931 . S
H677 C692 0.930 . S
C678 H666 0.930 . S
C678 C679 1.399 . S
C678 C683 1.399 . S
C679 C678 1.399 . S
C679 C680 1.376 . S
C680 H667 0.930 . S
C680 C679 1.376 . S
C680 C681 1.388 . S
C681 H668 0.930 . S
C681 C680 1.388 . S
C681 C682 1.390 1_554 S
C682 C681 1.390 1_556 S
C682 C683 1.394 1_556 S
C682 C688 1.465 . S
C683 C678 1.399 . S
C683 C682 1.394 1_554 S
C683 C684 1.516 1_554 S
C684 C683 1.516 1_556 S
C684 C685 1.502 . S
C684 C686 1.561 . S
C684 C687 1.526 . S
C685 H669 0.959 . S
C685 H670 0.959 . S
C685 H671 0.975 . S
C685 C684 1.502 . S
C686 H672 0.960 . S
C686 H673 0.961 . S
C686 H674 0.959 . S
C686 C684 1.561 . S
C687 C684 1.526 . S
C687 C688 1.396 . S
C687 C692 1.390 . S
C688 C682 1.465 . S
C688 C687 1.396 . S
C688 C689 1.399 . S
C689 H675 0.929 . S
C689 C688 1.399 . S
C689 C690 1.385 . S
C690 H676 0.931 . S
C690 C689 1.385 . S
C690 C691 1.389 . S
C691 C690 1.389 . S
C691 C692 1.387 . S
C692 H677 0.930 . S
C692 C687 1.390 . S
C692 C691 1.387 . S
H693 C705 0.930 . S
H694 C707 0.930 . S
H695 C708 0.930 . S
H696 C712 0.959 . S
H697 C712 0.959 . S
H698 C712 0.961 . S
H699 C713 0.960 . S
H700 C713 0.961 . S
H701 C713 0.959 . S
H702 C716 0.929 . S
H703 C717 0.931 . S
H704 C719 0.930 . S
C705 H693 0.930 . S
C705 C706 1.399 . S
C705 C710 1.399 . S
C706 C705 1.399 . S
C706 C707 1.376 . S
C707 H694 0.930 . S
C707 C706 1.376 . S
C707 C708 1.388 . S
C708 H695 0.930 . S
C708 C707 1.388 . S
C708 C709 1.390 . S
C709 C708 1.390 . S
C709 C710 1.394 . S
C709 C715 1.465 . S
C710 C705 1.399 . S
C710 C709 1.394 . S
C710 C711 1.516 . S
C711 C710 1.516 . S
C711 C712 1.502 . S
C711 C713 1.561 . S
C711 C714 1.526 . S
C712 H696 0.959 . S
C712 H697 0.959 . S
C712 H698 0.961 . S
C712 C711 1.502 . S
C713 H699 0.960 . S
C713 H700 0.961 . S
C713 H701 0.959 . S
C713 C711 1.561 . S
C714 C711 1.526 . S
C714 C715 1.396 . S
C714 C719 1.390 . S
C715 C709 1.465 . S
C715 C714 1.396 . S
C715 C716 1.399 . S
C716 H702 0.929 . S
C716 C715 1.399 . S
C716 C717 1.385 . S
C717 H703 0.931 . S
C717 C716 1.385 . S
C717 C718 1.389 . S
C718 C717 1.389 . S
C718 C719 1.387 . S
C719 H704 0.930 . S
C719 C714 1.390 . S
C719 C718 1.387 . S
H720 C732 0.930 . S
H721 C734 0.930 . S
H722 C735 0.930 . S
H723 C739 0.959 . S
H724 C739 0.959 . S
H725 C739 0.961 . S
H726 C740 0.960 . S
H727 C740 0.961 . S
H728 C740 0.959 . S
H729 C743 0.929 . S
H730 C744 0.931 . S
H731 C746 0.930 . S
C732 H720 0.930 . S
C732 C733 1.399 . S
C732 C737 1.399 . S
C733 C732 1.399 . S
C733 C734 1.376 . S
C734 H721 0.930 . S
C734 C733 1.376 . S
C734 C735 1.388 . S
C735 H722 0.930 . S
C735 C734 1.388 . S
C735 C736 1.390 1_556 S
C736 C735 1.390 1_554 S
C736 C737 1.394 1_554 S
C736 C742 1.465 . S
C737 C732 1.399 . S
C737 C736 1.394 1_556 S
C737 C738 1.516 1_556 S
C738 C737 1.516 1_554 S
C738 C739 1.502 . S
C738 C740 1.561 . S
C738 C741 1.526 . S
C739 H723 0.959 . S
C739 H724 0.959 . S
C739 H725 0.961 . S
C739 C738 1.502 . S
C740 H726 0.960 . S
C740 H727 0.961 . S
C740 H728 0.959 . S
C740 C738 1.561 . S
C741 C738 1.526 . S
C741 C742 1.396 . S
C741 C746 1.390 . S
C742 C736 1.465 . S
C742 C741 1.396 . S
C742 C743 1.399 . S
C743 H729 0.929 . S
C743 C742 1.399 . S
C743 C744 1.385 . S
C744 H730 0.931 . S
C744 C743 1.385 . S
C744 C745 1.389 . S
C745 C744 1.389 . S
C745 C746 1.387 . S
C746 H731 0.930 . S
C746 C741 1.390 . S
C746 C745 1.387 . S
H747 C759 0.930 . S
H748 C761 0.930 . S
H749 C762 0.930 . S
H750 C766 0.959 . S
H751 C766 0.959 . S
H752 C766 0.961 . S
H753 C767 0.960 . S
H754 C767 0.961 . S
H755 C767 0.959 . S
H756 C770 0.929 . S
H757 C771 0.931 . S
H758 C773 0.930 . S
C759 H747 0.930 . S
C759 C760 1.399 . S
C759 C764 1.399 . S
C760 C759 1.399 . S
C760 C761 1.376 . S
C761 H748 0.930 . S
C761 C760 1.376 . S
C761 C762 1.388 . S
C762 H749 0.930 . S
C762 C761 1.388 . S
C762 C763 1.390 . S
C763 C762 1.390 . S
C763 C764 1.394 . S
C763 C769 1.465 . S
C764 C759 1.399 . S
C764 C763 1.394 . S
C764 C765 1.516 . S
C765 C764 1.516 . S
C765 C766 1.502 . S
C765 C767 1.561 . S
C765 C768 1.526 . S
C766 H750 0.959 . S
C766 H751 0.959 . S
C766 H752 0.961 . S
C766 C765 1.502 . S
C767 H753 0.960 . S
C767 H754 0.961 . S
C767 H755 0.959 . S
C767 C765 1.561 . S
C768 C765 1.526 . S
C768 C769 1.396 . S
C768 C773 1.390 . S
C769 C763 1.465 . S
C769 C768 1.396 . S
C769 C770 1.399 . S
C770 H756 0.929 . S
C770 C769 1.399 . S
C770 C771 1.385 . S
C771 H757 0.931 . S
C771 C770 1.385 . S
C771 C772 1.389 . S
C772 C771 1.389 . S
C772 C773 1.387 . S
C773 H758 0.930 . S
C773 C768 1.390 . S
C773 C772 1.387 . S
H774 C786 0.930 . S
H775 C788 0.930 . S
H776 C789 0.930 . S
H777 C793 0.959 . S
H778 C793 0.959 . S
H779 C793 0.961 . S
H780 C794 0.960 . S
H781 C794 0.961 . S
H782 C794 0.959 . S
H783 C797 0.929 . S
H784 C798 0.931 . S
H785 C800 0.930 . S
C786 H774 0.930 . S
C786 C787 1.399 . S
C786 C791 1.399 . S
C787 C786 1.399 . S
C787 C788 1.376 . S
C788 H775 0.930 . S
C788 C787 1.376 . S
C788 C789 1.388 . S
C789 H776 0.930 . S
C789 C788 1.388 . S
C789 C790 1.390 . S
C790 C789 1.390 . S
C790 C791 1.394 . S
C790 C796 1.465 . S
C791 C786 1.399 . S
C791 C790 1.394 . S
C791 C792 1.516 . S
C792 C791 1.516 . S
C792 C793 1.502 . S
C792 C794 1.561 . S
C792 C795 1.526 . S
C793 H777 0.959 . S
C793 H778 0.959 . S
C793 H779 0.961 . S
C793 C792 1.502 . S
C794 H780 0.960 . S
C794 H781 0.961 . S
C794 H782 0.959 . S
C794 C792 1.561 . S
C795 C792 1.526 . S
C795 C796 1.396 . S
C795 C800 1.390 . S
C796 C790 1.465 . S
C796 C795 1.396 . S
C796 C797 1.399 . S
C797 H783 0.929 . S
C797 C796 1.399 . S
C797 C798 1.385 . S
C798 H784 0.931 . S
C798 C797 1.385 . S
C798 C799 1.389 . S
C799 C798 1.389 . S
C799 C800 1.387 . S
C800 H785 0.930 . S
C800 C795 1.390 . S
C800 C799 1.387 . S
H801 C813 0.930 . S
H802 C815 0.930 . S
H803 C816 0.930 . S
H804 C820 0.959 . S
H805 C820 0.953 1_556 S
H806 C820 0.961 . S
H807 C821 0.960 . S
H808 C821 0.961 . S
H809 C821 0.959 . S
H810 C824 0.929 . S
H811 C825 0.931 . S
H812 C827 0.930 . S
C813 H801 0.930 . S
C813 C814 1.399 . S
C813 C818 1.399 . S
C814 C813 1.399 . S
C814 C815 1.376 . S
C815 H802 0.930 . S
C815 C814 1.376 . S
C815 C816 1.388 . S
C816 H803 0.930 . S
C816 C815 1.388 . S
C816 C817 1.390 . S
C817 C816 1.390 . S
C817 C818 1.394 . S
C817 C823 1.465 . S
C818 C813 1.399 . S
C818 C817 1.394 . S
C818 C819 1.516 . S
C819 C818 1.516 . S
C819 C820 1.502 . S
C819 C821 1.561 . S
C819 C822 1.526 1_554 S
C820 H804 0.959 . S
C820 H805 0.953 1_554 S
C820 H806 0.961 . S
C820 C819 1.502 . S
C821 H807 0.960 . S
C821 H808 0.961 . S
C821 H809 0.959 . S
C821 C819 1.561 . S
C822 C819 1.526 1_556 S
C822 C823 1.396 1_556 S
C822 C827 1.390 . S
C823 C817 1.465 . S
C823 C822 1.396 1_554 S
C823 C824 1.399 1_554 S
C824 H810 0.929 . S
C824 C823 1.399 1_556 S
C824 C825 1.385 . S
C825 H811 0.931 . S
C825 C824 1.385 . S
C825 C826 1.389 . S
C826 C825 1.389 . S
C826 C827 1.387 . S
C827 H812 0.930 . S
C827 C822 1.390 . S
C827 C826 1.387 . S
H828 C840 0.930 . S
H829 C842 0.930 . S
H830 C843 0.930 . S
H831 C847 0.959 . S
H832 C847 0.959 . S
H833 C847 0.961 . S
H834 C848 0.960 . S
H835 C848 0.961 . S
H836 C848 0.959 . S
H837 C851 0.929 . S
H838 C852 0.931 . S
H839 C854 0.930 . S
C840 H828 0.930 . S
C840 C841 1.399 . S
C840 C845 1.399 . S
C841 C840 1.399 . S
C841 C842 1.376 . S
C842 H829 0.930 . S
C842 C841 1.376 . S
C842 C843 1.388 . S
C843 H830 0.930 . S
C843 C842 1.388 . S
C843 C844 1.390 . S
C844 C843 1.390 . S
C844 C845 1.394 . S
C844 C850 1.465 . S
C845 C840 1.399 . S
C845 C844 1.394 . S
C845 C846 1.516 . S
C846 C845 1.516 . S
C846 C847 1.502 . S
C846 C848 1.561 . S
C846 C849 1.526 . S
C847 H831 0.959 . S
C847 H832 0.959 . S
C847 H833 0.961 . S
C847 C846 1.502 . S
C848 H834 0.960 . S
C848 H835 0.961 . S
C848 H836 0.959 . S
C848 C846 1.561 . S
C849 C846 1.526 . S
C849 C850 1.396 . S
C849 C854 1.390 . S
C850 C844 1.465 . S
C850 C849 1.396 . S
C850 C851 1.399 . S
C851 H837 0.929 . S
C851 C850 1.399 . S
C851 C852 1.385 . S
C852 H838 0.931 . S
C852 C851 1.385 . S
C852 C853 1.389 . S
C853 C852 1.389 . S
C853 C854 1.387 . S
C854 H839 0.930 . S
C854 C849 1.390 . S
C854 C853 1.387 . S
H855 C867 0.930 . S
H856 C869 0.930 . S
H857 C870 0.930 . S
H858 C874 0.959 . S
H859 C874 0.959 . S
H860 C874 0.961 . S
H861 C875 0.960 . S
H862 C875 0.961 . S
H863 C875 0.959 . S
H864 C878 0.929 . S
H865 C879 0.931 . S
H866 C881 0.930 . S
C867 H855 0.930 . S
C867 C868 1.399 . S
C867 C872 1.399 . S
C868 C867 1.399 . S
C868 C869 1.376 . S
C869 H856 0.930 . S
C869 C868 1.376 . S
C869 C870 1.388 . S
C870 H857 0.930 . S
C870 C869 1.388 . S
C870 C871 1.390 . S
C871 C870 1.390 . S
C871 C872 1.394 . S
C871 C877 1.465 . S
C872 C867 1.399 . S
C872 C871 1.394 . S
C872 C873 1.516 . S
C873 C872 1.516 . S
C873 C874 1.502 . S
C873 C875 1.561 . S
C873 C876 1.526 . S
C874 H858 0.959 . S
C874 H859 0.959 . S
C874 H860 0.961 . S
C874 C873 1.502 . S
C875 H861 0.960 . S
C875 H862 0.961 . S
C875 H863 0.959 . S
C875 C873 1.561 . S
C876 C873 1.526 . S
C876 C877 1.396 . S
C876 C881 1.390 . S
C877 C871 1.465 . S
C877 C876 1.396 . S
C877 C878 1.399 . S
C878 H864 0.929 . S
C878 C877 1.399 . S
C878 C879 1.385 . S
C879 H865 0.931 . S
C879 C878 1.385 . S
C879 C880 1.389 . S
C880 C879 1.389 . S
C880 C881 1.387 . S
C881 H866 0.930 . S
C881 C876 1.390 . S
C881 C880 1.387 . S
H882 C894 0.930 . S
H883 C896 0.930 . S
H884 C897 0.930 . S
H885 C901 0.959 . S
H886 C901 0.959 . S
H887 C901 0.961 . S
H888 C902 0.960 . S
H889 C902 0.961 . S
H890 C902 0.959 . S
H891 C905 0.929 . S
H892 C906 0.931 . S
H893 C908 0.930 . S
C894 H882 0.930 . S
C894 C895 1.399 . S
C894 C899 1.399 . S
C895 C894 1.399 . S
C895 C896 1.376 . S
C896 H883 0.930 . S
C896 C895 1.376 . S
C896 C897 1.388 . S
C897 H884 0.930 . S
C897 C896 1.388 . S
C897 C898 1.390 . S
C898 C897 1.390 . S
C898 C899 1.394 . S
C898 C904 1.465 . S
C899 C894 1.399 . S
C899 C898 1.394 . S
C899 C900 1.516 . S
C900 C899 1.516 . S
C900 C901 1.502 . S
C900 C902 1.561 . S
C900 C903 1.526 . S
C901 H885 0.959 . S
C901 H886 0.959 . S
C901 H887 0.961 . S
C901 C900 1.502 . S
C902 H888 0.960 . S
C902 H889 0.961 . S
C902 H890 0.959 . S
C902 C900 1.561 . S
C903 C900 1.526 . S
C903 C904 1.396 . S
C903 C908 1.390 . S
C904 C898 1.465 . S
C904 C903 1.396 . S
C904 C905 1.399 . S
C905 H891 0.929 . S
C905 C904 1.399 . S
C905 C906 1.385 . S
C906 H892 0.931 . S
C906 C905 1.385 . S
C906 C907 1.389 . S
C907 C906 1.389 . S
C907 C908 1.387 . S
C908 H893 0.930 . S
C908 C903 1.390 . S
C908 C907 1.387 . S
H909 C921 0.930 . S
H910 C923 0.930 . S
H911 C924 0.930 . S
H912 C928 0.959 . S
H913 C928 0.959 . S
H914 C928 0.961 . S
H915 C929 0.960 . S
H916 C929 0.961 . S
H917 C929 0.959 . S
H918 C932 0.929 . S
H919 C933 0.931 . S
H920 C935 0.930 . S
C921 H909 0.930 . S
C921 C922 1.399 . S
C921 C926 1.399 . S
C922 C921 1.399 . S
C922 C923 1.376 . S
C923 H910 0.930 . S
C923 C922 1.376 . S
C923 C924 1.388 . S
C924 H911 0.930 . S
C924 C923 1.388 . S
C924 C925 1.390 . S
C925 C924 1.390 . S
C925 C926 1.394 . S
C925 C931 1.465 . S
C926 C921 1.399 . S
C926 C925 1.394 . S
C926 C927 1.516 . S
C927 C926 1.516 . S
C927 C928 1.502 . S
C927 C929 1.561 . S
C927 C930 1.526 . S
C928 H912 0.959 . S
C928 H913 0.959 . S
C928 H914 0.961 . S
C928 C927 1.502 . S
C929 H915 0.960 . S
C929 H916 0.961 . S
C929 H917 0.959 . S
C929 C927 1.561 . S
C930 C927 1.526 . S
C930 C931 1.396 . S
C930 C935 1.390 . S
C931 C925 1.465 . S
C931 C930 1.396 . S
C931 C932 1.399 . S
C932 H918 0.929 . S
C932 C931 1.399 . S
C932 C933 1.385 . S
C933 H919 0.931 . S
C933 C932 1.385 . S
C933 C934 1.389 . S
C934 C933 1.389 . S
C934 C935 1.387 . S
C935 H920 0.930 . S
C935 C930 1.390 . S
C935 C934 1.387 . S
H936 C948 0.930 . S
H937 C950 0.930 . S
H938 C951 0.930 . S
H939 C955 0.959 . S
H940 C955 0.959 . S
H941 C955 0.961 . S
H942 C956 0.955 1_554 S
H943 C956 0.961 1_554 S
H944 C956 0.959 . S
H945 C959 0.929 . S
H946 C960 0.931 . S
H947 C962 0.930 . S
C948 H936 0.930 . S
C948 C949 1.399 . S
C948 C953 1.399 . S
C949 C948 1.399 . S
C949 C950 1.376 . S
C950 H937 0.930 . S
C950 C949 1.376 . S
C950 C951 1.388 . S
C951 H938 0.930 . S
C951 C950 1.388 . S
C951 C952 1.390 . S
C952 C951 1.390 . S
C952 C953 1.394 . S
C952 C958 1.465 . S
C953 C948 1.399 . S
C953 C952 1.394 . S
C953 C954 1.516 . S
C954 C953 1.516 . S
C954 C955 1.502 . S
C954 C956 1.561 . S
C954 C957 1.526 . S
C955 H939 0.959 . S
C955 H940 0.959 . S
C955 H941 0.961 . S
C955 C954 1.502 . S
C956 H942 0.955 1_556 S
C956 H943 0.961 1_556 S
C956 H944 0.959 . S
C956 C954 1.561 . S
C957 C954 1.526 . S
C957 C958 1.396 . S
C957 C962 1.390 . S
C958 C952 1.465 . S
C958 C957 1.396 . S
C958 C959 1.399 . S
C959 H945 0.929 . S
C959 C958 1.399 . S
C959 C960 1.385 . S
C960 H946 0.931 . S
C960 C959 1.385 . S
C960 C961 1.389 . S
C961 C960 1.389 . S
C961 C962 1.387 . S
C962 H947 0.930 . S
C962 C957 1.390 . S
C962 C961 1.387 . S
H963 C975 0.930 . S
H964 C977 0.930 . S
H965 C978 0.930 . S
H966 C982 0.959 . S
H967 C982 0.959 . S
H968 C982 0.961 . S
H969 C983 0.960 1_556 S
H970 C983 0.961 1_556 S
H971 C983 0.959 . S
H972 C986 0.929 . S
H973 C987 0.931 . S
H974 C989 0.930 . S
C975 H963 0.930 . S
C975 C976 1.399 . S
C975 C980 1.399 . S
C976 C975 1.399 . S
C976 C977 1.376 . S
C977 H964 0.930 . S
C977 C976 1.376 . S
C977 C978 1.388 . S
C978 H965 0.930 . S
C978 C977 1.388 . S
C978 C979 1.390 . S
C979 C978 1.390 . S
C979 C980 1.394 . S
C979 C985 1.465 . S
C980 C975 1.399 . S
C980 C979 1.394 . S
C980 C981 1.516 . S
C981 C980 1.516 . S
C981 C982 1.502 . S
C981 C983 1.561 . S
C981 C984 1.526 . S
C982 H966 0.959 . S
C982 H967 0.959 . S
C982 H968 0.961 . S
C982 C981 1.502 . S
C983 H969 0.960 1_554 S
C983 H970 0.961 1_554 S
C983 H971 0.959 . S
C983 C981 1.561 . S
C984 C981 1.526 . S
C984 C985 1.396 . S
C984 C989 1.390 . S
C985 C979 1.465 . S
C985 C984 1.396 . S
C985 C986 1.399 . S
C986 H972 0.929 . S
C986 C985 1.399 . S
C986 C987 1.385 . S
C987 H973 0.931 . S
C987 C986 1.385 . S
C987 C988 1.389 . S
C988 C987 1.389 . S
C988 C989 1.387 . S
C989 H974 0.930 . S
C989 C984 1.390 . S
C989 C988 1.387 . S
H990 C1002 0.930 . S
H991 C1004 0.930 . S
H992 C1005 0.930 . S
H993 C1009 0.959 . S
H994 C1009 0.959 . S
H995 C1009 0.961 . S
H996 C1010 0.960 . S
H997 C1010 0.961 . S
H998 C1010 0.959 . S
H999 C1013 0.929 . S
H1000 C1014 0.931 . S
H1001 C1016 0.930 . S
C1002 H990 0.930 . S
C1002 C1003 1.399 . S
C1002 C1007 1.399 . S
C1003 C1002 1.399 . S
C1003 C1004 1.376 . S
C1004 H991 0.930 . S
C1004 C1003 1.376 . S
C1004 C1005 1.388 . S
C1005 H992 0.930 . S
C1005 C1004 1.388 . S
C1005 C1006 1.390 . S
C1006 C1005 1.390 . S
C1006 C1007 1.394 . S
C1006 C1012 1.465 . S
C1007 C1002 1.399 . S
C1007 C1006 1.394 . S
C1007 C1008 1.516 . S
C1008 C1007 1.516 . S
C1008 C1009 1.502 . S
C1008 C1010 1.561 . S
C1008 C1011 1.526 . S
C1009 H993 0.959 . S
C1009 H994 0.959 . S
C1009 H995 0.961 . S
C1009 C1008 1.502 . S
C1010 H996 0.960 . S
C1010 H997 0.961 . S
C1010 H998 0.959 . S
C1010 C1008 1.561 . S
C1011 C1008 1.526 . S
C1011 C1012 1.396 . S
C1011 C1016 1.390 . S
C1012 C1006 1.465 . S
C1012 C1011 1.396 . S
C1012 C1013 1.399 . S
C1013 H999 0.929 . S
C1013 C1012 1.399 . S
C1013 C1014 1.385 . S
C1014 H1000 0.931 . S
C1014 C1013 1.385 . S
C1014 C1015 1.389 . S
C1015 C1014 1.389 . S
C1015 C1016 1.387 . S
C1016 H1001 0.930 . S
C1016 C1011 1.390 . S
C1016 C1015 1.387 . S
H1017 C1029 0.930 . S
H1018 C1031 0.930 . S
H1019 C1032 0.930 . S
H1020 C1036 0.959 . S
H1021 C1036 0.959 . S
H1022 C1036 0.961 . S
H1023 C1037 0.960 . S
H1024 C1037 0.961 . S
H1025 C1037 0.959 . S
H1026 C1040 0.929 . S
H1027 C1041 0.931 . S
H1028 C1043 0.930 . S
C1029 H1017 0.930 . S
C1029 C1030 1.399 . S
C1029 C1034 1.399 . S
C1030 C1029 1.399 . S
C1030 C1031 1.376 . S
C1031 H1018 0.930 . S
C1031 C1030 1.376 . S
C1031 C1032 1.388 . S
C1032 H1019 0.930 . S
C1032 C1031 1.388 . S
C1032 C1033 1.390 . S
C1033 C1032 1.390 . S
C1033 C1034 1.394 . S
C1033 C1039 1.465 . S
C1034 C1029 1.399 . S
C1034 C1033 1.394 . S
C1034 C1035 1.516 . S
C1035 C1034 1.516 . S
C1035 C1036 1.502 . S
C1035 C1037 1.561 . S
C1035 C1038 1.526 . S
C1036 H1020 0.959 . S
C1036 H1021 0.959 . S
C1036 H1022 0.961 . S
C1036 C1035 1.502 . S
C1037 H1023 0.960 . S
C1037 H1024 0.961 . S
C1037 H1025 0.959 . S
C1037 C1035 1.561 . S
C1038 C1035 1.526 . S
C1038 C1039 1.396 . S
C1038 C1043 1.390 . S
C1039 C1033 1.465 . S
C1039 C1038 1.396 . S
C1039 C1040 1.399 . S
C1040 H1026 0.929 . S
C1040 C1039 1.399 . S
C1040 C1041 1.385 . S
C1041 H1027 0.931 . S
C1041 C1040 1.385 . S
C1041 C1042 1.389 . S
C1042 C1041 1.389 . S
C1042 C1043 1.387 . S
C1043 H1028 0.930 . S
C1043 C1038 1.390 . S
C1043 C1042 1.387 . S
H1044 C1056 0.930 1_554 S
H1045 C1058 0.930 . S
H1046 C1059 0.930 . S
H1047 C1063 0.959 . S
H1048 C1063 0.959 . S
H1049 C1063 0.961 . S
H1050 C1064 0.960 . S
H1051 C1064 0.961 . S
H1052 C1064 0.959 . S
H1053 C1067 0.929 . S
H1054 C1068 0.931 . S
H1055 C1070 0.930 . S
C1056 H1044 0.930 1_556 S
C1056 C1057 1.399 . S
C1056 C1061 1.399 1_556 S
C1057 C1056 1.399 . S
C1057 C1058 1.376 . S
C1058 H1045 0.930 . S
C1058 C1057 1.376 . S
C1058 C1059 1.388 . S
C1059 H1046 0.930 . S
C1059 C1058 1.388 . S
C1059 C1060 1.390 . S
C1060 C1059 1.390 . S
C1060 C1061 1.394 1_556 S
C1060 C1066 1.465 . S
C1061 C1056 1.399 1_554 S
C1061 C1060 1.394 1_554 S
C1061 C1062 1.516 . S
C1062 C1061 1.516 . S
C1062 C1063 1.502 . S
C1062 C1064 1.561 . S
C1062 C1065 1.526 . S
C1063 H1047 0.959 . S
C1063 H1048 0.959 . S
C1063 H1049 0.961 . S
C1063 C1062 1.502 . S
C1064 H1050 0.960 . S
C1064 H1051 0.961 . S
C1064 H1052 0.959 . S
C1064 C1062 1.561 . S
C1065 C1062 1.526 . S
C1065 C1066 1.396 1_554 S
C1065 C1070 1.390 . S
C1066 C1060 1.465 . S
C1066 C1065 1.396 1_556 S
C1066 C1067 1.399 . S
C1067 H1053 0.929 . S
C1067 C1066 1.399 . S
C1067 C1068 1.385 . S
C1068 H1054 0.931 . S
C1068 C1067 1.385 . S
C1068 C1069 1.389 1_556 S
C1069 C1068 1.389 1_554 S
C1069 C1070 1.387 . S
C1070 H1055 0.930 . S
C1070 C1065 1.390 . S
C1070 C1069 1.387 . S
H1071 C1083 0.930 . S
H1072 C1085 0.930 . S
H1073 C1086 0.930 . S
H1074 C1090 0.959 . S
H1075 C1090 0.959 . S
H1076 C1090 0.961 . S
H1077 C1091 0.960 . S
H1078 C1091 0.961 . S
H1079 C1091 0.959 . S
H1080 C1094 0.929 . S
H1081 C1095 0.931 . S
H1082 C1097 0.930 . S
C1083 H1071 0.930 . S
C1083 C1084 1.399 . S
C1083 C1088 1.399 . S
C1084 C1083 1.399 . S
C1084 C1085 1.376 . S
C1085 H1072 0.930 . S
C1085 C1084 1.376 . S
C1085 C1086 1.388 . S
C1086 H1073 0.930 . S
C1086 C1085 1.388 . S
C1086 C1087 1.390 . S
C1087 C1086 1.390 . S
C1087 C1088 1.394 . S
C1087 C1093 1.465 . S
C1088 C1083 1.399 . S
C1088 C1087 1.394 . S
C1088 C1089 1.516 . S
C1089 C1088 1.516 . S
C1089 C1090 1.502 . S
C1089 C1091 1.561 . S
C1089 C1092 1.526 . S
C1090 H1074 0.959 . S
C1090 H1075 0.959 . S
C1090 H1076 0.961 . S
C1090 C1089 1.502 . S
C1091 H1077 0.960 . S
C1091 H1078 0.961 . S
C1091 H1079 0.959 . S
C1091 C1089 1.561 . S
C1092 C1089 1.526 . S
C1092 C1093 1.396 . S
C1092 C1097 1.390 . S
C1093 C1087 1.465 . S
C1093 C1092 1.396 . S
C1093 C1094 1.399 . S
C1094 H1080 0.929 . S
C1094 C1093 1.399 . S
C1094 C1095 1.385 . S
C1095 H1081 0.931 . S
C1095 C1094 1.385 . S
C1095 C1096 1.389 . S
C1096 C1095 1.389 . S
C1096 C1097 1.387 . S
C1097 H1082 0.930 . S
C1097 C1092 1.390 . S
C1097 C1096 1.387 . S
H1098 C1110 0.930 . S
H1099 C1112 0.930 . S
H1100 C1113 0.930 . S
H1101 C1117 0.959 . S
H1102 C1117 0.959 . S
H1103 C1117 0.961 . S
H1104 C1118 0.960 . S
H1105 C1118 0.961 . S
H1106 C1118 0.959 . S
H1107 C1121 0.929 . S
H1108 C1122 0.931 . S
H1109 C1124 0.930 . S
C1110 H1098 0.930 . S
C1110 C1111 1.399 . S
C1110 C1115 1.399 . S
C1111 C1110 1.399 . S
C1111 C1112 1.376 . S
C1112 H1099 0.930 . S
C1112 C1111 1.376 . S
C1112 C1113 1.388 . S
C1113 H1100 0.930 . S
C1113 C1112 1.388 . S
C1113 C1114 1.390 . S
C1114 C1113 1.390 . S
C1114 C1115 1.394 . S
C1114 C1120 1.465 . S
C1115 C1110 1.399 . S
C1115 C1114 1.394 . S
C1115 C1116 1.516 . S
C1116 C1115 1.516 . S
C1116 C1117 1.502 . S
C1116 C1118 1.561 . S
C1116 C1119 1.526 . S
C1117 H1101 0.959 . S
C1117 H1102 0.959 . S
C1117 H1103 0.961 . S
C1117 C1116 1.502 . S
C1118 H1104 0.960 . S
C1118 H1105 0.961 . S
C1118 H1106 0.959 . S
C1118 C1116 1.561 . S
C1119 C1116 1.526 . S
C1119 C1120 1.396 . S
C1119 C1124 1.390 . S
C1120 C1114 1.465 . S
C1120 C1119 1.396 . S
C1120 C1121 1.399 . S
C1121 H1107 0.929 . S
C1121 C1120 1.399 . S
C1121 C1122 1.385 . S
C1122 H1108 0.931 . S
C1122 C1121 1.385 . S
C1122 C1123 1.389 . S
C1123 C1122 1.389 . S
C1123 C1124 1.387 . S
C1124 H1109 0.930 . S
C1124 C1119 1.390 . S
C1124 C1123 1.387 . S
H1125 C1137 0.930 . S
H1126 C1139 0.930 . S
H1127 C1140 0.930 . S
H1128 C1144 0.959 . S
H1129 C1144 0.959 . S
H1130 C1144 0.961 . S
H1131 C1145 0.960 1_554 S
H1132 C1145 0.961 . S
H1133 C1145 0.959 . S
H1134 C1148 0.929 . S
H1135 C1149 0.931 . S
H1136 C1151 0.930 . S
C1137 H1125 0.930 . S
C1137 C1138 1.399 . S
C1137 C1142 1.399 . S
C1138 C1137 1.399 . S
C1138 C1139 1.376 . S
C1139 H1126 0.930 . S
C1139 C1138 1.376 . S
C1139 C1140 1.388 1_554 S
C1140 H1127 0.930 . S
C1140 C1139 1.388 1_556 S
C1140 C1141 1.390 . S
C1141 C1140 1.390 . S
C1141 C1142 1.394 1_556 S
C1141 C1147 1.465 . S
C1142 C1137 1.399 . S
C1142 C1141 1.394 1_554 S
C1142 C1143 1.516 . S
C1143 C1142 1.516 . S
C1143 C1144 1.502 . S
C1143 C1145 1.561 1_554 S
C1143 C1146 1.526 1_554 S
C1144 H1128 0.959 . S
C1144 H1129 0.959 . S
C1144 H1130 0.961 . S
C1144 C1143 1.502 . S
C1145 H1131 0.960 1_556 S
C1145 H1132 0.961 . S
C1145 H1133 0.959 . S
C1145 C1143 1.561 1_556 S
C1146 C1143 1.526 1_556 S
C1146 C1147 1.396 . S
C1146 C1151 1.390 . S
C1147 C1141 1.465 . S
C1147 C1146 1.396 . S
C1147 C1148 1.399 . S
C1148 H1134 0.929 . S
C1148 C1147 1.399 . S
C1148 C1149 1.385 . S
C1149 H1135 0.931 . S
C1149 C1148 1.385 . S
C1149 C1150 1.389 . S
C1150 C1149 1.389 . S
C1150 C1151 1.387 . S
C1151 H1136 0.930 . S
C1151 C1146 1.390 . S
C1151 C1150 1.387 . S
H1152 C1164 0.930 . S
H1153 C1166 0.930 . S
H1154 C1167 0.930 . S
H1155 C1171 0.959 . S
H1156 C1171 0.959 . S
H1157 C1171 0.961 . S
H1158 C1172 0.960 . S
H1159 C1172 0.961 . S
H1160 C1172 0.959 . S
H1161 C1175 0.929 . S
H1162 C1176 0.931 . S
H1163 C1178 0.930 . S
C1164 H1152 0.930 . S
C1164 C1165 1.399 . S
C1164 C1169 1.399 . S
C1165 C1164 1.399 . S
C1165 C1166 1.376 . S
C1166 H1153 0.930 . S
C1166 C1165 1.376 . S
C1166 C1167 1.388 . S
C1167 H1154 0.930 . S
C1167 C1166 1.388 . S
C1167 C1168 1.390 . S
C1168 C1167 1.390 . S
C1168 C1169 1.394 . S
C1168 C1174 1.465 . S
C1169 C1164 1.399 . S
C1169 C1168 1.394 . S
C1169 C1170 1.516 . S
C1170 C1169 1.516 . S
C1170 C1171 1.502 . S
C1170 C1172 1.561 . S
C1170 C1173 1.526 . S
C1171 H1155 0.959 . S
C1171 H1156 0.959 . S
C1171 H1157 0.961 . S
C1171 C1170 1.502 . S
C1172 H1158 0.960 . S
C1172 H1159 0.961 . S
C1172 H1160 0.959 . S
C1172 C1170 1.561 . S
C1173 C1170 1.526 . S
C1173 C1174 1.396 . S
C1173 C1178 1.390 . S
C1174 C1168 1.465 . S
C1174 C1173 1.396 . S
C1174 C1175 1.399 . S
C1175 H1161 0.929 . S
C1175 C1174 1.399 . S
C1175 C1176 1.385 . S
C1176 H1162 0.931 . S
C1176 C1175 1.385 . S
C1176 C1177 1.389 . S
C1177 C1176 1.389 . S
C1177 C1178 1.387 . S
C1178 H1163 0.930 . S
C1178 C1173 1.390 . S
C1178 C1177 1.387 . S
H1179 C1191 0.930 . S
H1180 C1193 0.930 . S
H1181 C1194 0.930 . S
H1182 C1198 0.959 . S
H1183 C1198 0.959 . S
H1184 C1198 0.961 . S
H1185 C1199 0.960 . S
H1186 C1199 0.961 . S
H1187 C1199 0.959 . S
H1188 C1202 0.929 . S
H1189 C1203 0.931 . S
H1190 C1205 0.930 . S
C1191 H1179 0.930 . S
C1191 C1192 1.399 . S
C1191 C1196 1.399 . S
C1192 C1191 1.399 . S
C1192 C1193 1.376 . S
C1193 H1180 0.930 . S
C1193 C1192 1.376 . S
C1193 C1194 1.388 . S
C1194 H1181 0.930 . S
C1194 C1193 1.388 . S
C1194 C1195 1.390 . S
C1195 C1194 1.390 . S
C1195 C1196 1.394 . S
C1195 C1201 1.465 . S
C1196 C1191 1.399 . S
C1196 C1195 1.394 . S
C1196 C1197 1.516 . S
C1197 C1196 1.516 . S
C1197 C1198 1.502 . S
C1197 C1199 1.561 . S
C1197 C1200 1.526 . S
C1198 H1182 0.959 . S
C1198 H1183 0.959 . S
C1198 H1184 0.961 . S
C1198 C1197 1.502 . S
C1199 H1185 0.960 . S
C1199 H1186 0.961 . S
C1199 H1187 0.959 . S
C1199 C1197 1.561 . S
C1200 C1197 1.526 . S
C1200 C1201 1.396 . S
C1200 C1205 1.390 . S
C1201 C1195 1.465 . S
C1201 C1200 1.396 . S
C1201 C1202 1.399 . S
C1202 H1188 0.929 . S
C1202 C1201 1.399 . S
C1202 C1203 1.385 . S
C1203 H1189 0.931 . S
C1203 C1202 1.385 . S
C1203 C1204 1.389 . S
C1204 C1203 1.389 . S
C1204 C1205 1.387 . S
C1205 H1190 0.930 . S
C1205 C1200 1.390 . S
C1205 C1204 1.387 . S
C409 C7 1.263 . S
C421 C370 1.254 . S
C436 C40 1.266 . S
C448 C205 1.273 . S
C463 C238 1.275 . S
C475 C73 1.280 . S
C490 C271 1.256 . S
C502 C106 1.246 . S
C517 C304 1.267 . S
C529 C139 1.274 . S
C544 C337 1.250 . S
C556 C172 1.259 . S
C571 N13 1.399 . S
C583 N2 1.382 . S
C598 N35 1.410 . S
C610 N46 1.360 . S
C625 N79 1.417 . S
C637 N68 1.357 . S
C652 N112 1.402 . S
C664 N101 1.379 . S
C679 N145 1.401 . S
C691 N134 1.364 . S
C706 N167 1.386 . S
C718 N178 1.395 . S
C733 N211 1.406 . S
C745 N200 1.360 . S
C760 N233 1.415 . S
C772 N244 1.363 . S
C787 N277 1.417 . S
C799 N266 1.357 . S
C814 N299 1.408 . S
C826 N310 1.361 . S
C841 N332 1.412 . S
C853 N343 1.367 . S
C868 N376 1.358 . S
C880 N365 1.412 . S
C895 C21 1.581 . S
C907 C285 1.573 . S
C922 C54 1.578 . S
C934 C318 1.582 . S
C949 C87 1.581 . S
C961 C351 1.572 . S
C976 C384 1.581 . S
C988 C120 1.572 . S
C1003 C219 1.580 . S
C1015 C153 1.581 . S
C1030 C252 1.579 . S
C1042 C186 1.582 . S
C1057 C348 1.219 . S
C1069 C18 1.186 . S
C1084 C381 1.227 . S
C1096 C51 1.216 . S
C1111 C216 1.198 . S
C1123 C84 1.228 . S
C1138 C117 1.180 . S
C1150 C249 1.205 . S
C1165 C150 1.206 . S
C1177 C282 1.229 . S
C1192 C183 1.205 . S
C1204 C315 1.180 . S
