# Generated by pormake.
# Topology bcg, (8)-cn, num edge types: 1
# Building blocks:
#     Node 0, Type 0, BuildingBlock: TAGTUT_clean_sbu_3, # of connection points: 8
#     Node 1, Type 0, BuildingBlock: TAGTUT_clean_sbu_3, # of connection points: 8
#     Node 2, Type 0, BuildingBlock: TAGTUT_clean_sbu_3, # of connection points: 8
#     Node 3, Type 0, BuildingBlock: TAGTUT_clean_sbu_3, # of connection points: 8
#     Edge 4, Type (0, 0), BuildingBlock: CIFDUS_clean_linker_0, # of connection points: 2
#     Edge 5, Type (0, 0), BuildingBlock: CIFDUS_clean_linker_0, # of connection points: 2
#     Edge 6, Type (0, 0), BuildingBlock: CIFDUS_clean_linker_0, # of connection points: 2
#     Edge 7, Type (0, 0), BuildingBlock: CIFDUS_clean_linker_0, # of connection points: 2
#     Edge 8, Type (0, 0), BuildingBlock: CIFDUS_clean_linker_0, # of connection points: 2
#     Edge 9, Type (0, 0), BuildingBlock: CIFDUS_clean_linker_0, # of connection points: 2
#     Edge 10, Type (0, 0), BuildingBlock: CIFDUS_clean_linker_0, # of connection points: 2
#     Edge 11, Type (0, 0), BuildingBlock: CIFDUS_clean_linker_0, # of connection points: 2
#     Edge 12, Type (0, 0), BuildingBlock: CIFDUS_clean_linker_0, # of connection points: 2
#     Edge 13, Type (0, 0), BuildingBlock: CIFDUS_clean_linker_0, # of connection points: 2
#     Edge 14, Type (0, 0), BuildingBlock: CIFDUS_clean_linker_0, # of connection points: 2
#     Edge 15, Type (0, 0), BuildingBlock: CIFDUS_clean_linker_0, # of connection points: 2
#     Edge 16, Type (0, 0), BuildingBlock: CIFDUS_clean_linker_0, # of connection points: 2
#     Edge 17, Type (0, 0), BuildingBlock: CIFDUS_clean_linker_0, # of connection points: 2
#     Edge 18, Type (0, 0), BuildingBlock: CIFDUS_clean_linker_0, # of connection points: 2
#     Edge 19, Type (0, 0), BuildingBlock: CIFDUS_clean_linker_0, # of connection points: 2
# Relax obj value: 0.117
# Max RMSD: 0.250
# Mean RMSD: 0.250
data_MOF--net-bcg--node1-TAGTUT_clean_sbu_3--edge1-CIFDUS_clean_linker_0
_symmetry_space_group_name_H-M    P1
_symmetry_Int_Tables_number       1
_symmetry_cell_setting            triclinic
loop_
_symmetry_equiv_pos_as_xyz
'x, y, z'
_cell_length_a     13.298387
_cell_length_b     23.803114
_cell_length_c     30.397658
_cell_angle_alpha  91.790951
_cell_angle_beta   90.311056
_cell_angle_gamma 89.343713
loop_
_atom_site_label
_atom_site_type_symbol
_atom_site_fract_x
_atom_site_fract_y
_atom_site_fract_z
_atom_type_partial_charge
C0 C 0.46871 0.19347 0.0064 0.0
C1 C 0.31025 0.2851 0.15343 0.0
C2 C 0.03796 0.24513 0.09154 0.0
Mg3 Mg 0.35159 0.17116 0.91036 0.0
Mg4 Mg 0.1896 0.27011 0.8774 0.0
O5 O 0.22736 0.21799 0.91955 0.0
Mg6 Mg 0.25271 0.24493 0.98138 0.0
O7 O 0.28162 0.26666 0.0441 0.0
Mg8 Mg 0.26974 0.19106 0.07038 0.0
Mg9 Mg 0.20354 0.32493 0.06851 0.0
C10 C 0.02619 0.28996 0.95277 0.0
O11 O 0.30317 0.33462 0.96494 0.0
O12 O 0.27856 0.13934 0.84353 0.0
O13 O 0.25091 0.38788 0.02325 0.0
O14 O 0.42798 0.2423 0.87621 0.0
O15 O 0.16934 0.20831 0.82541 0.0
O16 O 0.32633 0.31542 0.86312 0.0
O17 O 0.21074 0.1592 0.0028 0.0
O18 O 0.26537 0.10422 0.94741 0.0
C19 C 0.21714 0.11093 0.98357 0.0
C20 C 0.21116 0.16024 0.81805 0.0
O21 O 0.08877 0.27294 0.98181 0.0
O22 O 0.3181 0.2347 0.13695 0.0
O23 O 0.0518 0.29821 0.91265 0.0
O24 O 0.10663 0.20711 0.0927 0.0
O25 O 0.27139 0.32586 0.13248 0.0
O26 O 0.05467 0.2935 0.07621 0.0
O27 O 0.4093 0.21168 0.97677 0.0
O28 O 0.43534 0.18179 0.04468 0.0
C29 C 0.41374 0.29223 0.8631 0.0
C30 C 0.2969 0.38204 0.98628 0.0
C31 C 0.95486 0.69575 0.00949 0.0
C32 C 0.79121 0.75804 0.1628 0.0
C33 C 0.52408 0.73781 0.09609 0.0
Mg34 Mg 0.85591 0.6899 0.91051 0.0
Mg35 Mg 0.68142 0.78164 0.88059 0.0
O36 O 0.72495 0.72982 0.92096 0.0
Mg37 Mg 0.73938 0.74964 0.98522 0.0
O38 O 0.76265 0.76204 0.05024 0.0
Mg39 Mg 0.75153 0.68257 0.0687 0.0
Mg40 Mg 0.69612 0.81799 0.08287 0.0
C41 C 0.51018 0.78956 0.95255 0.0
O42 O 0.78411 0.84274 0.97831 0.0
O43 O 0.8007 0.66406 0.83957 0.0
O44 O 0.74775 0.88662 0.04342 0.0
O45 O 0.92427 0.77035 0.88131 0.0
O46 O 0.67691 0.72583 0.82392 0.0
O47 O 0.80541 0.83604 0.87095 0.0
O48 O 0.7023 0.66065 -0.00254 0.0
O49 O 0.77224 0.61446 0.94024 0.0
C50 C 0.71806 0.61512 0.97513 0.0
C51 C 0.73193 0.68291 0.81394 0.0
O52 O 0.57001 0.77332 0.98321 0.0
O53 O 0.79565 0.71231 0.13924 0.0
O54 O 0.54105 0.80125 0.9139 0.0
O55 O 0.58736 0.69698 0.09174 0.0
O56 O 0.75991 0.80458 0.14733 0.0
O57 O 0.54644 0.78799 0.08624 0.0
O58 O 0.89941 0.7206 0.98144 0.0
O59 O 0.91767 0.67767 0.04528 0.0
C60 C 0.89726 0.81974 0.86966 0.0
C61 C 0.78403 0.88657 0.00428 0.0
C62 C 0.46153 0.81313 0.48376 0.0
C63 C 0.28888 0.76272 0.32834 0.0
C64 C 0.02587 0.78355 0.39679 0.0
Mg65 Mg 0.36148 0.81283 0.5815 0.0
Mg66 Mg 0.19031 0.71706 0.60492 0.0
O67 O 0.23137 0.77393 0.56861 0.0
Mg68 Mg 0.24839 0.75969 0.50395 0.0
O69 O 0.27167 0.75191 0.43905 0.0
Mg70 Mg 0.25683 0.83309 0.42469 0.0
Mg71 Mg 0.19542 0.70014 0.40672 0.0
C72 C 0.02354 0.71354 0.52997 0.0
O73 O 0.2971 0.6664 0.50678 0.0
O74 O 0.30222 0.83343 0.6522 0.0
O75 O 0.24531 0.62674 0.44228 0.0
O76 O 0.43223 0.73075 0.60731 0.0
O77 O 0.18218 0.76934 0.66388 0.0
O78 O 0.31919 0.66235 0.61209 0.0
O79 O 0.20584 0.85026 0.49632 0.0
O80 O 0.27935 0.8911 0.55485 0.0
C81 C 0.22225 0.89385 0.52081 0.0
C82 C 0.23377 0.81228 0.67605 0.0
O83 O 0.08434 0.73464 0.50256 0.0
O84 O 0.29929 0.80693 0.3533 0.0
O85 O 0.05084 0.69876 0.56866 0.0
O86 O 0.09183 0.82232 0.40052 0.0
O87 O 0.25349 0.71671 0.34231 0.0
O88 O 0.04586 0.73316 0.40749 0.0
O89 O 0.40541 0.7874 0.51015 0.0
O90 O 0.42479 0.83513 0.44893 0.0
C91 C 0.40948 0.67998 0.61573 0.0
C92 C 0.28955 0.62381 0.47987 0.0
C93 C 0.96572 0.31882 0.47883 0.0
C94 C 0.80208 0.26421 0.32361 0.0
C95 C 0.53481 0.27805 0.38898 0.0
Mg96 Mg 0.86765 0.31814 0.57616 0.0
Mg97 Mg 0.69959 0.22267 0.60269 0.0
O98 O 0.73935 0.27746 0.56426 0.0
Mg99 Mg 0.75339 0.26208 0.49989 0.0
O100 O 0.77629 0.25351 0.43495 0.0
Mg101 Mg 0.7596 0.334 0.41946 0.0
Mg102 Mg 0.71015 0.19926 0.40095 0.0
C103 C 0.52671 0.2199 0.53063 0.0
O104 O 0.80391 0.16871 0.50375 0.0
O105 O 0.80456 0.34349 0.64538 0.0
O106 O 0.76045 0.12785 0.4384 0.0
O107 O 0.9399 0.23644 0.6036 0.0
O108 O 0.68735 0.27861 0.65884 0.0
O109 O 0.82754 0.16827 0.61213 0.0
O110 O 0.70747 0.35223 0.49091 0.0
O111 O 0.78413 0.3946 0.54794 0.0
C112 C 0.7245 0.39635 0.51472 0.0
C113 C 0.73513 0.32347 0.66927 0.0
O114 O 0.58545 0.23795 0.50078 0.0
O115 O 0.80605 0.30845 0.34881 0.0
O116 O 0.55905 0.20489 0.5685 0.0
O117 O 0.59634 0.31894 0.39418 0.0
O118 O 0.77155 0.21688 0.33714 0.0
O119 O 0.55901 0.22791 0.39881 0.0
O120 O 0.91276 0.2909 0.50521 0.0
O121 O 0.92632 0.33951 0.44405 0.0
C122 C 0.91787 0.186 0.61359 0.0
C123 C 0.80014 0.12576 0.47698 0.0
H124 H 0.55371 0.27461 0.95889 0.0
H125 H 0.62805 0.13856 0.04428 0.0
H126 H 0.80716 0.16072 0.03841 0.0
H127 H 0.94149 0.21618 0.00659 0.0
H128 H 0.86749 0.35196 0.92092 0.0
H129 H 0.688 0.3345 0.93143 0.0
C130 C 0.60911 0.24916 0.97573 0.0
C131 C 0.57777 0.20379 0.00103 0.0
C132 C 0.71132 0.26292 0.97288 0.0
C133 C 0.65034 0.17283 0.02397 0.0
C134 C 0.75252 0.18577 0.02081 0.0
C135 C 0.88616 0.24269 -0.00926 0.0
C136 C 0.91787 0.2859 0.96336 0.0
C137 C 0.78371 0.23054 -0.0048 0.0
C138 C 0.8451 0.31872 0.94222 0.0
C139 C 0.74263 0.30812 0.94773 0.0
H140 H 0.06117 0.71151 0.9354 0.0
H141 H 0.09436 0.69936 0.07604 0.0
H142 H 0.26634 0.73346 0.07174 0.0
H143 H 0.40529 0.77063 0.02797 0.0
H144 H 0.3703 0.78062 0.88728 0.0
H145 H 0.20327 0.74162 0.89181 0.0
C146 C 0.10662 0.71541 0.96505 0.0
C147 C 0.06479 0.70299 0.00591 0.0
C148 C 0.20474 0.73593 0.96252 0.0
C149 C 0.12489 0.70802 0.04402 0.0
C150 C 0.22297 0.72834 0.0417 0.0
C151 C 0.36028 0.76576 -0.0015 0.0
C152 C 0.40083 0.77958 0.95759 0.0
C153 C 0.26289 0.74367 0.0012 0.0
C154 C 0.34091 0.77224 0.91954 0.0
C155 C 0.2449 0.7498 0.92194 0.0
H156 H 0.55324 0.73151 0.52939 0.0
H157 H 0.61574 0.87001 0.44552 0.0
H158 H 0.79593 0.84708 0.44915 0.0
H159 H 0.93399 0.79058 0.47918 0.0
H160 H 0.86963 0.65126 0.56173 0.0
H161 H 0.68955 0.67142 0.5548 0.0
C162 C 0.60597 0.75744 0.5123 0.0
C163 C 0.57117 0.80336 0.48795 0.0
C164 C 0.70827 0.74339 0.51385 0.0
C165 C 0.64073 0.83512 0.46501 0.0
C166 C 0.74345 0.82183 0.46692 0.0
C167 C 0.8806 0.76338 0.49452 0.0
C168 C 0.91506 0.71869 0.52025 0.0
C169 C 0.7778 0.77613 0.49133 0.0
C170 C 0.84493 0.68549 0.54148 0.0
C171 C 0.74222 0.6974 0.53791 0.0
H172 H 0.07235 0.29287 0.5518 0.0
H173 H 0.10818 0.33116 0.41499 0.0
H174 H 0.28363 0.30009 0.41805 0.0
H175 H 0.42272 0.25466 0.45822 0.0
H176 H 0.38482 0.21735 0.59503 0.0
H177 H 0.21656 0.25746 0.59345 0.0
C178 C 0.11875 0.29502 0.5227 0.0
C179 C 0.0765 0.31362 0.4831 0.0
C180 C 0.21861 0.27553 0.52424 0.0
C181 C 0.13843 0.31703 0.44596 0.0
C182 C 0.23849 0.29827 0.44745 0.0
C183 C 0.37672 0.25336 0.48721 0.0
C184 C 0.41692 0.23142 0.52618 0.0
C185 C 0.27825 0.27552 0.486 0.0
C186 C 0.35598 0.23189 0.56395 0.0
C187 C 0.25905 0.2548 0.56319 0.0
H188 H 0.63696 0.53929 0.91634 0.0
H189 H 0.64697 0.58657 0.05453 0.0
H190 H 0.51002 0.52266 0.0689 0.0
H191 H 0.38475 0.45621 0.04238 0.0
H192 H 0.37261 0.40644 0.90489 0.0
H193 H 0.51219 0.46921 0.88979 0.0
C194 C 0.61083 0.53441 0.94973 0.0
C195 C 0.65261 0.56729 0.98443 0.0
C196 C 0.53013 0.49837 0.95764 0.0
C197 C 0.61647 0.56149 0.02736 0.0
C198 C 0.53749 0.5254 0.03553 0.0
C199 C 0.41089 0.4598 0.00884 0.0
C200 C 0.36722 0.42702 0.97463 0.0
C201 C 0.49248 0.49462 0.00082 0.0
C202 C 0.40451 0.43125 0.93172 0.0
C203 C 0.48477 0.4669 0.92319 0.0
H204 H 0.54851 0.40129 0.46896 0.0
H205 H 0.74317 0.50102 0.5537 0.0
H206 H 0.61896 0.57747 0.55504 0.0
H207 H 0.45789 0.61706 0.53037 0.0
H208 H 0.2639 0.51747 0.44535 0.0
H209 H 0.38472 0.43935 0.4467 0.0
C210 C 0.56483 0.44007 0.48716 0.0
C211 C 0.65601 0.44558 0.51069 0.0
C212 C 0.49253 0.48355 0.48834 0.0
C213 C 0.67437 0.49581 0.53484 0.0
C214 C 0.60308 0.53946 0.53586 0.0
C215 C 0.44067 0.57781 0.51302 0.0
C216 C 0.35137 0.573 0.48808 0.0
C217 C 0.51182 0.53372 0.51285 0.0
C218 C 0.3317 0.52219 0.46498 0.0
C219 C 0.40123 0.47772 0.46537 0.0
H220 H 0.11322 0.04264 0.92782 0.0
H221 H 0.14838 0.08829 0.06543 0.0
H222 H 0.008 0.02756 0.08361 0.0
H223 H 0.87843 0.96009 0.06025 0.0
H224 H 0.83757 0.91902 0.92223 0.0
H225 H 0.9762 0.98038 0.90405 0.0
C226 C 0.09152 0.03836 0.9619 0.0
C227 C 0.14285 0.06852 -0.00454 0.0
C228 C 0.00871 0.00514 0.97182 0.0
C229 C 0.11128 0.06444 0.03923 0.0
C230 C 0.03047 0.03025 0.04952 0.0
C231 C 0.8981 0.96549 0.02607 0.0
C232 C 0.84858 0.93411 -0.00746 0.0
C233 C 0.9784 1.0006 0.01604 0.0
C234 C 0.87579 0.94161 0.94857 0.0
C235 C 0.95523 0.97664 0.93824 0.0
H236 H 0.96705 0.1195 0.5286 0.0
H237 H 0.77093 0.01869 0.44549 0.0
H238 H 0.8878 0.93915 0.44983 0.0
H239 H 0.04774 0.89958 0.47457 0.0
H240 H 0.24572 0.99976 0.55734 0.0
H241 H 0.12655 0.07872 0.55501 0.0
C242 C 0.94856 0.07968 0.5124 0.0
C243 C 0.85978 0.07487 0.4871 0.0
C244 C 0.01744 0.03453 0.51406 0.0
C245 C 0.83831 0.02336 0.46541 0.0
C246 C 0.90548 0.97801 0.46758 0.0
C247 C 0.06578 0.93887 0.4917 0.0
C248 C 0.15643 0.94392 0.51562 0.0
C249 C -0.00391 0.98352 0.49105 0.0
C250 C 0.17705 0.99488 0.53834 0.0
C251 C 0.10849 0.03988 0.53736 0.0
H252 H 0.50075 0.36352 0.33354 0.0
H253 H 0.38135 0.20465 0.37226 0.0
H254 H 0.29629 0.1935 0.30132 0.0
H255 H 0.2838 0.22015 0.22374 0.0
H256 H 0.40522 0.37819 0.18497 0.0
H257 H 0.46414 0.39767 0.26019 0.0
C258 C 0.45333 0.32735 0.3272 0.0
C259 C 0.45027 0.2841 0.35763 0.0
C260 C 0.40874 0.31986 0.28559 0.0
C261 C 0.38676 0.23808 0.34902 0.0
C262 C 0.33925 0.23122 0.30819 0.0
C263 C 0.32322 0.25877 0.23195 0.0
C264 C 0.34332 0.2969 0.19893 0.0
C265 C 0.3552 0.27009 0.27534 0.0
C266 C 0.39097 0.3478 0.20994 0.0
C267 C 0.42395 0.3591 0.2529 0.0
H268 H 0.41601 0.82052 0.13724 0.0
H269 H 0.44446 0.6398 0.12566 0.0
H270 H 0.36228 0.63139 0.19687 0.0
H271 H 0.316 0.67629 0.26828 0.0
H272 H 0.30983 0.85754 0.28176 0.0
H273 H 0.35303 0.86472 0.2045 0.0
C274 C 0.402 0.77905 0.14954 0.0
C275 C 0.43939 0.73094 0.12675 0.0
C276 C 0.36265 0.77476 0.19184 0.0
C277 C 0.41802 0.67764 0.14288 0.0
C278 C 0.3725 0.67285 0.18395 0.0
C279 C 0.32352 0.71734 0.25422 0.0
C280 C 0.31228 0.76628 0.28107 0.0
C281 C 0.35062 0.72127 0.20985 0.0
C282 C 0.32081 0.81916 0.26219 0.0
C283 C 0.34446 0.82336 0.21786 0.0
H284 H 0.61056 0.69671 0.62302 0.0
H285 H 0.37379 0.59034 0.66761 0.0
H286 H 0.47221 0.56863 0.73284 0.0
H287 H 0.59925 0.60429 0.78614 0.0
H288 H 0.83215 0.71301 0.74208 0.0
H289 H 0.76342 0.70833 0.66736 0.0
C290 C 0.58249 0.66658 0.64584 0.0
C291 C 0.48344 0.64702 0.64127 0.0
C292 C 0.63817 0.65574 0.68403 0.0
C293 C 0.4489 0.60718 0.67075 0.0
C294 C 0.50478 0.59518 0.70846 0.0
C295 C 0.63771 0.62434 0.75954 0.0
C296 C 0.7199 0.65914 0.7692 0.0
C297 C 0.59567 0.62287 0.717 0.0
C298 C 0.76902 0.68571 0.73498 0.0
C299 C 0.72895 0.6836 0.69243 0.0
H300 H 0.41347 0.37549 0.80294 0.0
H301 H 0.61009 0.26786 0.877 0.0
H302 H 0.74776 0.28547 0.82768 0.0
H303 H 0.79285 0.30584 0.75212 0.0
H304 H 0.59304 0.40514 0.6736 0.0
H305 H 0.47784 0.41781 0.73565 0.0
C306 C 0.48751 0.3578 0.80919 0.0
C307 C 0.5008 0.31935 0.84292 0.0
C308 C 0.56566 0.36572 0.77905 0.0
C309 C 0.59744 0.29711 0.85093 0.0
C310 C 0.67636 0.30675 0.82245 0.0
C311 C 0.72695 0.33293 0.74963 0.0
C312 C 0.70045 0.35423 0.70879 0.0
C313 C 0.65889 0.33728 0.7846 0.0
C314 C 0.61459 0.38867 0.70517 0.0
C315 C 0.54794 0.39507 0.74042 0.0
H316 H 0.91413 0.70291 0.35616 0.0
H317 H 0.9518 0.8828 0.36477 0.0
H318 H 0.87234 0.89139 0.29249 0.0
H319 H 0.82437 0.84569 0.22137 0.0
H320 H 0.80813 0.66452 0.21153 0.0
H321 H 0.85042 0.65859 0.28912 0.0
C322 C 0.90266 0.74435 0.34299 0.0
C323 C 0.94187 0.79196 0.36536 0.0
C324 C 0.86475 0.74847 0.30016 0.0
C325 C 0.92387 0.84527 0.34797 0.0
C326 C 0.87996 0.85011 0.30627 0.0
C327 C 0.82967 0.80496 0.23628 0.0
C328 C 0.81554 0.75558 0.21029 0.0
C329 C 0.85606 0.80164 0.281 0.0
C330 C 0.82122 0.70318 0.23033 0.0
C331 C 0.84435 0.6997 0.2749 0.0
H332 H 0.82336 0.18021 0.26082 0.0
H333 H 0.83201 0.36077 0.28009 0.0
H334 H 0.87733 0.37087 0.20347 0.0
H335 H 0.93886 0.32858 0.1351 0.0
H336 H 0.94968 0.14813 0.11728 0.0
H337 H 0.86636 0.138 0.18813 0.0
C338 C 0.83463 0.22177 0.2482 0.0
C339 C 0.8269 0.2695 0.27657 0.0
C340 C 0.86244 0.22738 0.20406 0.0
C341 C 0.84006 0.32312 0.25941 0.0
C342 C 0.86501 0.32907 0.21541 0.0
C343 C 0.91973 0.287 0.14584 0.0
C344 C 0.95211 0.23915 0.12144 0.0
C345 C 0.8794 0.28148 0.18786 0.0
C346 C 0.92623 0.18563 0.13578 0.0
C347 C 0.88021 0.17983 0.17661 0.0
H348 H 0.2788 0.16011 0.73447 0.0
H349 H 0.05017 0.09295 0.81689 0.0
H350 H 0.93897 0.07981 0.75329 0.0
H351 H 0.89199 0.11477 0.68065 0.0
H352 H 0.11828 0.18212 0.5977 0.0
H353 H 0.24698 0.16684 0.65442 0.0
C354 C 0.20691 0.13962 0.73787 0.0
C355 C 0.17204 0.1277 0.78003 0.0
C356 C 0.14212 0.13412 0.70131 0.0
C357 C 0.07837 0.102 0.78451 0.0
C358 C 0.01424 0.09528 0.74823 0.0
C359 C 0.97025 0.12365 0.67415 0.0
C360 C -0.00417 0.15285 0.63638 0.0
C361 C 0.04269 0.11519 0.70723 0.0
C362 C 0.0974 0.16292 0.62795 0.0
C363 C 0.17047 0.15384 0.66023 0.0
H364 H 0.09042 0.888 0.69915 0.0
H365 H 0.32857 0.78511 0.75106 0.0
H366 H 0.25475 0.79341 0.82439 0.0
H367 H 0.09985 0.80842 0.86707 0.0
H368 H 0.8553 0.90441 0.813 0.0
H369 H 0.9559 0.92383 0.7486 0.0
C370 C 0.12836 0.86986 0.72713 0.0
C371 C 0.21407 0.8359 0.72021 0.0
C372 C 0.08331 0.87314 0.7688 0.0
C373 C 0.26272 0.81174 0.7561 0.0
C374 C 0.21995 0.81608 0.79791 0.0
C375 C 0.07019 0.83492 0.8418 0.0
C376 C 0.96904 0.85223 0.8437 0.0
C377 C 0.12672 0.84336 0.80383 0.0
C378 C 0.93221 0.88899 0.81185 0.0
C379 C 0.98937 0.89962 0.77463 0.0
loop_
_geom_bond_atom_site_label_1
_geom_bond_atom_site_label_2
_geom_bond_distance
_geom_bond_site_symmetry_2
_ccdc_geom_bond_type
C0 O27 1.312 1_554 S
C0 O28 1.208 . S
C1 O22 1.331 . S
C1 O25 1.244 . S
C2 O24 1.264 . S
C2 O26 1.273 . S
Mg3 O5 1.936 . S
Mg3 O12 2.081 . S
Mg3 O14 2.023 . S
Mg3 O18 2.031 . S
Mg3 O27 2.291 . S
Mg4 O5 1.963 . S
Mg4 O15 1.942 . S
Mg4 O16 1.955 . S
Mg4 O23 1.986 . S
O5 Mg3 1.936 . S
O5 Mg4 1.963 . S
O5 Mg6 1.915 1_556 S
Mg6 O5 1.915 1_554 S
Mg6 O7 1.915 . S
Mg6 O11 2.013 1_554 S
Mg6 O17 2.114 . S
Mg6 O21 2.013 . S
Mg6 O27 2.114 1_554 S
O7 Mg6 1.915 . S
O7 Mg8 1.936 . S
O7 Mg9 1.963 . S
Mg8 O7 1.936 . S
Mg8 O17 2.291 . S
Mg8 O22 2.081 . S
Mg8 O24 2.023 . S
Mg8 O28 2.031 . S
Mg9 O7 1.963 . S
Mg9 O13 1.986 . S
Mg9 O25 1.942 . S
Mg9 O26 1.955 . S
C10 O21 1.191 1_556 S
C10 O23 1.307 . S
O11 Mg6 2.013 1_556 S
O11 C30 1.191 1_556 S
O12 Mg3 2.081 . S
O12 C20 1.331 . S
O13 Mg9 1.986 . S
O13 C30 1.307 . S
O14 Mg3 2.023 . S
O14 C29 1.264 . S
O15 Mg4 1.942 . S
O15 C20 1.244 . S
O16 Mg4 1.955 . S
O16 C29 1.273 . S
O17 Mg6 2.114 . S
O17 Mg8 2.291 . S
O17 C19 1.312 1_554 S
O18 Mg3 2.031 . S
O18 C19 1.208 . S
C19 O17 1.312 1_556 S
C19 O18 1.208 . S
C20 O12 1.331 . S
C20 O15 1.244 . S
O21 Mg6 2.013 . S
O21 C10 1.191 1_554 S
O22 C1 1.331 . S
O22 Mg8 2.081 . S
O23 Mg4 1.986 . S
O23 C10 1.307 . S
O24 C2 1.264 . S
O24 Mg8 2.023 . S
O25 C1 1.244 . S
O25 Mg9 1.942 . S
O26 C2 1.273 . S
O26 Mg9 1.955 . S
O27 C0 1.312 1_556 S
O27 Mg3 2.291 . S
O27 Mg6 2.114 1_556 S
O28 C0 1.208 . S
O28 Mg8 2.031 . S
C29 O14 1.264 . S
C29 O16 1.273 . S
C30 O11 1.191 1_554 S
C30 O13 1.307 . S
C31 O58 1.312 1_554 S
C31 O59 1.208 . S
C32 O53 1.331 . S
C32 O56 1.244 . S
C33 O55 1.264 . S
C33 O57 1.273 . S
Mg34 O36 1.936 . S
Mg34 O43 2.081 . S
Mg34 O45 2.023 . S
Mg34 O49 2.031 . S
Mg34 O58 2.291 . S
Mg35 O36 1.963 . S
Mg35 O46 1.942 . S
Mg35 O47 1.955 . S
Mg35 O54 1.986 . S
O36 Mg34 1.936 . S
O36 Mg35 1.963 . S
O36 Mg37 1.915 1_556 S
Mg37 O36 1.915 1_554 S
Mg37 O38 1.915 . S
Mg37 O42 2.013 1_554 S
Mg37 O48 2.114 . S
Mg37 O52 2.013 . S
Mg37 O58 2.114 1_554 S
O38 Mg37 1.915 . S
O38 Mg39 1.936 . S
O38 Mg40 1.963 . S
Mg39 O38 1.936 . S
Mg39 O48 2.291 . S
Mg39 O53 2.081 . S
Mg39 O55 2.023 . S
Mg39 O59 2.031 . S
Mg40 O38 1.963 . S
Mg40 O44 1.986 . S
Mg40 O56 1.942 . S
Mg40 O57 1.955 . S
C41 O52 1.191 1_556 S
C41 O54 1.307 . S
O42 Mg37 2.013 1_556 S
O42 C61 1.191 1_556 S
O43 Mg34 2.081 . S
O43 C51 1.331 . S
O44 Mg40 1.986 . S
O44 C61 1.307 . S
O45 Mg34 2.023 . S
O45 C60 1.264 . S
O46 Mg35 1.942 . S
O46 C51 1.244 . S
O47 Mg35 1.955 . S
O47 C60 1.273 . S
O48 Mg37 2.114 . S
O48 Mg39 2.291 . S
O48 C50 1.312 1_554 S
O49 Mg34 2.031 . S
O49 C50 1.208 . S
C50 O48 1.312 1_556 S
C50 O49 1.208 . S
C51 O43 1.331 . S
C51 O46 1.244 . S
O52 Mg37 2.013 . S
O52 C41 1.191 1_554 S
O53 C32 1.331 . S
O53 Mg39 2.081 . S
O54 Mg35 1.986 . S
O54 C41 1.307 . S
O55 C33 1.264 . S
O55 Mg39 2.023 . S
O56 C32 1.244 . S
O56 Mg40 1.942 . S
O57 C33 1.273 . S
O57 Mg40 1.955 . S
O58 C31 1.312 1_556 S
O58 Mg34 2.291 . S
O58 Mg37 2.114 1_556 S
O59 C31 1.208 . S
O59 Mg39 2.031 . S
C60 O45 1.264 . S
C60 O47 1.273 . S
C61 O42 1.191 1_554 S
C61 O44 1.307 . S
C62 O89 1.312 . S
C62 O90 1.208 . S
C63 O84 1.331 . S
C63 O87 1.244 . S
C64 O86 1.264 . S
C64 O88 1.273 . S
Mg65 O67 1.936 . S
Mg65 O74 2.081 . S
Mg65 O76 2.023 . S
Mg65 O80 2.031 . S
Mg65 O89 2.291 . S
Mg66 O67 1.963 . S
Mg66 O77 1.942 . S
Mg66 O78 1.955 . S
Mg66 O85 1.986 . S
O67 Mg65 1.936 . S
O67 Mg66 1.963 . S
O67 Mg68 1.915 . S
Mg68 O67 1.915 . S
Mg68 O69 1.915 . S
Mg68 O73 2.013 . S
Mg68 O79 2.114 . S
Mg68 O83 2.013 . S
Mg68 O89 2.114 . S
O69 Mg68 1.915 . S
O69 Mg70 1.936 . S
O69 Mg71 1.963 . S
Mg70 O69 1.936 . S
Mg70 O79 2.291 . S
Mg70 O84 2.081 . S
Mg70 O86 2.023 . S
Mg70 O90 2.031 . S
Mg71 O69 1.963 . S
Mg71 O75 1.986 . S
Mg71 O87 1.942 . S
Mg71 O88 1.955 . S
C72 O83 1.191 . S
C72 O85 1.307 . S
O73 Mg68 2.013 . S
O73 C92 1.191 . S
O74 Mg65 2.081 . S
O74 C82 1.331 . S
O75 Mg71 1.986 . S
O75 C92 1.307 . S
O76 Mg65 2.023 . S
O76 C91 1.264 . S
O77 Mg66 1.942 . S
O77 C82 1.244 . S
O78 Mg66 1.955 . S
O78 C91 1.273 . S
O79 Mg68 2.114 . S
O79 Mg70 2.291 . S
O79 C81 1.312 . S
O80 Mg65 2.031 . S
O80 C81 1.208 . S
C81 O79 1.312 . S
C81 O80 1.208 . S
C82 O74 1.331 . S
C82 O77 1.244 . S
O83 Mg68 2.013 . S
O83 C72 1.191 . S
O84 C63 1.331 . S
O84 Mg70 2.081 . S
O85 Mg66 1.986 . S
O85 C72 1.307 . S
O86 C64 1.264 . S
O86 Mg70 2.023 . S
O87 C63 1.244 . S
O87 Mg71 1.942 . S
O88 C64 1.273 . S
O88 Mg71 1.955 . S
O89 C62 1.312 . S
O89 Mg65 2.291 . S
O89 Mg68 2.114 . S
O90 C62 1.208 . S
O90 Mg70 2.031 . S
C91 O76 1.264 . S
C91 O78 1.273 . S
C92 O73 1.191 . S
C92 O75 1.307 . S
C93 O120 1.312 . S
C93 O121 1.208 . S
C94 O115 1.331 . S
C94 O118 1.244 . S
C95 O117 1.264 . S
C95 O119 1.273 . S
Mg96 O98 1.936 . S
Mg96 O105 2.081 . S
Mg96 O107 2.023 . S
Mg96 O111 2.031 . S
Mg96 O120 2.291 . S
Mg97 O98 1.963 . S
Mg97 O108 1.942 . S
Mg97 O109 1.955 . S
Mg97 O116 1.986 . S
O98 Mg96 1.936 . S
O98 Mg97 1.963 . S
O98 Mg99 1.915 . S
Mg99 O98 1.915 . S
Mg99 O100 1.915 . S
Mg99 O104 2.013 . S
Mg99 O110 2.114 . S
Mg99 O114 2.013 . S
Mg99 O120 2.114 . S
O100 Mg99 1.915 . S
O100 Mg101 1.936 . S
O100 Mg102 1.963 . S
Mg101 O100 1.936 . S
Mg101 O110 2.291 . S
Mg101 O115 2.081 . S
Mg101 O117 2.023 . S
Mg101 O121 2.031 . S
Mg102 O100 1.963 . S
Mg102 O106 1.986 . S
Mg102 O118 1.942 . S
Mg102 O119 1.955 . S
C103 O114 1.191 . S
C103 O116 1.307 . S
O104 Mg99 2.013 . S
O104 C123 1.191 . S
O105 Mg96 2.081 . S
O105 C113 1.331 . S
O106 Mg102 1.986 . S
O106 C123 1.307 . S
O107 Mg96 2.023 . S
O107 C122 1.264 . S
O108 Mg97 1.942 . S
O108 C113 1.244 . S
O109 Mg97 1.955 . S
O109 C122 1.273 . S
O110 Mg99 2.114 . S
O110 Mg101 2.291 . S
O110 C112 1.312 . S
O111 Mg96 2.031 . S
O111 C112 1.208 . S
C112 O110 1.312 . S
C112 O111 1.208 . S
C113 O105 1.331 . S
C113 O108 1.244 . S
O114 Mg99 2.013 . S
O114 C103 1.191 . S
O115 C94 1.331 . S
O115 Mg101 2.081 . S
O116 Mg97 1.986 . S
O116 C103 1.307 . S
O117 C95 1.264 . S
O117 Mg101 2.023 . S
O118 C94 1.244 . S
O118 Mg102 1.942 . S
O119 C95 1.273 . S
O119 Mg102 1.955 . S
O120 C93 1.312 . S
O120 Mg96 2.291 . S
O120 Mg99 2.114 . S
O121 C93 1.208 . S
O121 Mg101 2.031 . S
C122 O107 1.264 . S
C122 O109 1.273 . S
C123 O104 1.191 . S
C123 O106 1.307 . S
H124 C130 0.930 . S
H125 C133 0.930 . S
H126 C134 0.930 . S
H127 C135 0.930 . S
H128 C138 0.930 . S
H129 C139 0.930 . S
C130 H124 0.930 . S
C130 C131 1.355 . S
C130 C132 1.415 . S
C131 C130 1.355 . S
C131 C133 1.419 1_556 S
C132 C130 1.415 . S
C132 C137 1.425 1_556 S
C132 C139 1.409 . S
C133 H125 0.930 . S
C133 C131 1.419 1_554 S
C133 C134 1.362 . S
C134 H126 0.930 . S
C134 C133 1.362 . S
C134 C137 1.409 . S
C135 H127 0.930 . S
C135 C136 1.355 . S
C135 C137 1.415 . S
C136 C135 1.355 . S
C136 C138 1.419 1_554 S
C137 C132 1.425 1_554 S
C137 C134 1.409 . S
C137 C135 1.415 . S
C138 H128 0.930 . S
C138 C136 1.419 1_556 S
C138 C139 1.362 . S
C139 H129 0.930 . S
C139 C132 1.409 . S
C139 C138 1.362 . S
H140 C146 0.930 . S
H141 C149 0.921 1_655 S
H142 C150 0.930 . S
H143 C151 0.929 . S
H144 C154 0.930 . S
H145 C155 0.930 . S
C146 H140 0.930 . S
C146 C147 1.355 . S
C146 C148 1.415 1_554 S
C147 C146 1.355 . S
C147 C149 1.419 . S
C148 C146 1.415 1_556 S
C148 C153 1.425 1_556 S
C148 C155 1.409 . S
C149 H141 0.921 1_455 S
C149 C147 1.419 . S
C149 C150 1.362 . S
C150 H142 0.930 . S
C150 C149 1.362 . S
C150 C153 1.410 . S
C151 H143 0.929 . S
C151 C152 1.355 . S
C151 C153 1.414 1_556 S
C152 C151 1.355 . S
C152 C154 1.419 . S
C153 C148 1.425 1_554 S
C153 C150 1.410 . S
C153 C151 1.414 1_554 S
C154 H144 0.930 . S
C154 C152 1.419 . S
C154 C155 1.362 . S
C155 H145 0.930 . S
C155 C148 1.409 . S
C155 C154 1.362 . S
H156 C162 0.930 . S
H157 C165 0.930 . S
H158 C166 0.930 . S
H159 C167 0.930 . S
H160 C170 0.930 . S
H161 C171 0.930 . S
C162 H156 0.930 . S
C162 C163 1.355 . S
C162 C164 1.415 . S
C163 C162 1.355 . S
C163 C165 1.419 . S
C164 C162 1.415 . S
C164 C169 1.425 . S
C164 C171 1.409 . S
C165 H157 0.930 . S
C165 C163 1.419 . S
C165 C166 1.362 . S
C166 H158 0.930 . S
C166 C165 1.362 . S
C166 C169 1.409 . S
C167 H159 0.930 . S
C167 C168 1.355 . S
C167 C169 1.415 . S
C168 C167 1.355 . S
C168 C170 1.419 . S
C169 C164 1.425 . S
C169 C166 1.409 . S
C169 C167 1.415 . S
C170 H160 0.930 . S
C170 C168 1.419 . S
C170 C171 1.362 . S
C171 H161 0.930 . S
C171 C164 1.409 . S
C171 C170 1.362 . S
H172 C178 0.930 . S
H173 C181 0.930 . S
H174 C182 0.930 . S
H175 C183 0.930 . S
H176 C186 0.930 . S
H177 C187 0.930 . S
C178 H172 0.930 . S
C178 C179 1.355 . S
C178 C180 1.415 . S
C179 C178 1.355 . S
C179 C181 1.419 . S
C180 C178 1.415 . S
C180 C185 1.425 . S
C180 C187 1.409 . S
C181 H173 0.930 . S
C181 C179 1.419 . S
C181 C182 1.362 . S
C182 H174 0.930 . S
C182 C181 1.362 . S
C182 C185 1.409 . S
C183 H175 0.930 . S
C183 C184 1.355 . S
C183 C185 1.415 . S
C184 C183 1.355 . S
C184 C186 1.419 . S
C185 C180 1.425 . S
C185 C182 1.409 . S
C185 C183 1.415 . S
C186 H176 0.930 . S
C186 C184 1.419 . S
C186 C187 1.362 . S
C187 H177 0.930 . S
C187 C180 1.409 . S
C187 C186 1.362 . S
H188 C194 0.930 . S
H189 C197 0.930 . S
H190 C198 0.930 . S
H191 C199 0.930 . S
H192 C202 0.930 . S
H193 C203 0.930 . S
C194 H188 0.930 . S
C194 C195 1.355 1_556 S
C194 C196 1.415 . S
C195 C194 1.355 1_554 S
C195 C197 1.419 . S
C196 C194 1.415 . S
C196 C201 1.423 1_556 S
C196 C203 1.410 . S
C197 H189 0.930 . S
C197 C195 1.419 . S
C197 C198 1.362 . S
C198 H190 0.930 . S
C198 C197 1.362 . S
C198 C201 1.409 . S
C199 H191 0.930 . S
C199 C200 1.355 . S
C199 C201 1.415 . S
C200 C199 1.355 . S
C200 C202 1.419 1_554 S
C201 C196 1.423 1_554 S
C201 C198 1.409 . S
C201 C199 1.415 . S
C202 H192 0.930 . S
C202 C200 1.419 1_556 S
C202 C203 1.362 . S
C203 H193 0.930 . S
C203 C196 1.410 . S
C203 C202 1.362 . S
H204 C210 0.930 . S
H205 C213 0.930 . S
H206 C214 0.930 . S
H207 C215 0.930 . S
H208 C218 0.930 . S
H209 C219 0.930 . S
C210 H204 0.930 . S
C210 C211 1.355 . S
C210 C212 1.415 . S
C211 C210 1.355 . S
C211 C213 1.419 . S
C212 C210 1.415 . S
C212 C217 1.425 . S
C212 C219 1.409 . S
C213 H205 0.930 . S
C213 C211 1.419 . S
C213 C214 1.362 . S
C214 H206 0.930 . S
C214 C213 1.362 . S
C214 C217 1.409 . S
C215 H207 0.930 . S
C215 C216 1.355 . S
C215 C217 1.415 . S
C216 C215 1.355 . S
C216 C218 1.419 . S
C217 C212 1.425 . S
C217 C214 1.409 . S
C217 C215 1.415 . S
C218 H208 0.930 . S
C218 C216 1.419 . S
C218 C219 1.362 . S
C219 H209 0.930 . S
C219 C212 1.409 . S
C219 C218 1.362 . S
H220 C226 0.930 . S
H221 C229 0.930 . S
H222 C230 0.930 . S
H223 C231 0.930 . S
H224 C234 0.930 . S
H225 C235 0.930 1_545 S
C226 H220 0.930 . S
C226 C227 1.355 1_556 S
C226 C228 1.415 . S
C227 C226 1.355 1_554 S
C227 C229 1.419 . S
C228 C226 1.415 . S
C228 C233 1.425 1_446 S
C228 C235 1.409 1_445 S
C229 H221 0.930 . S
C229 C227 1.419 . S
C229 C230 1.362 . S
C230 H222 0.930 . S
C230 C229 1.362 . S
C230 C233 1.409 1_445 S
C231 H223 0.930 . S
C231 C232 1.357 . S
C231 C233 1.415 . S
C232 C231 1.357 . S
C232 C234 1.416 1_554 S
C233 C228 1.425 1_664 S
C233 C230 1.409 1_665 S
C233 C231 1.415 . S
C234 H224 0.930 . S
C234 C232 1.416 1_556 S
C234 C235 1.362 . S
C235 H225 0.930 1_565 S
C235 C228 1.409 1_665 S
C235 C234 1.362 . S
H236 C242 0.926 1_455 S
H237 C245 0.930 . S
H238 C246 0.930 . S
H239 C247 0.930 . S
H240 C250 0.930 . S
H241 C251 0.930 . S
C242 H236 0.926 1_655 S
C242 C243 1.355 . S
C242 C244 1.415 1_655 S
C243 C242 1.355 . S
C243 C245 1.419 . S
C244 C242 1.415 1_455 S
C244 C249 1.425 1_445 S
C244 C251 1.409 . S
C245 H237 0.930 . S
C245 C243 1.419 . S
C245 C246 1.362 1_545 S
C246 H238 0.930 . S
C246 C245 1.362 1_565 S
C246 C249 1.409 . S
C247 H239 0.930 . S
C247 C248 1.355 . S
C247 C249 1.415 1_455 S
C248 C247 1.355 . S
C248 C250 1.419 . S
C249 C244 1.425 1_665 S
C249 C246 1.409 . S
C249 C247 1.415 1_655 S
C250 H240 0.930 . S
C250 C248 1.419 . S
C250 C251 1.362 1_565 S
C251 H241 0.930 . S
C251 C244 1.409 . S
C251 C250 1.362 1_545 S
H252 C258 0.930 . S
H253 C261 0.930 . S
H254 C262 0.930 . S
H255 C263 0.930 . S
H256 C266 0.930 . S
H257 C267 0.930 . S
C258 H252 0.930 . S
C258 C259 1.355 . S
C258 C260 1.415 . S
C259 C258 1.355 . S
C259 C261 1.419 . S
C260 C258 1.415 . S
C260 C265 1.425 . S
C260 C267 1.409 . S
C261 H253 0.930 . S
C261 C259 1.419 . S
C261 C262 1.362 . S
C262 H254 0.930 . S
C262 C261 1.362 . S
C262 C265 1.409 . S
C263 H255 0.930 . S
C263 C264 1.355 . S
C263 C265 1.415 . S
C264 C263 1.355 . S
C264 C266 1.419 . S
C265 C260 1.425 . S
C265 C262 1.409 . S
C265 C263 1.415 . S
C266 H256 0.930 . S
C266 C264 1.419 . S
C266 C267 1.362 . S
C267 H257 0.930 . S
C267 C260 1.409 . S
C267 C266 1.362 . S
H268 C274 0.930 . S
H269 C277 0.930 . S
H270 C278 0.930 . S
H271 C279 0.930 . S
H272 C282 0.930 . S
H273 C283 0.930 . S
C274 H268 0.930 . S
C274 C275 1.355 . S
C274 C276 1.415 . S
C275 C274 1.355 . S
C275 C277 1.419 . S
C276 C274 1.415 . S
C276 C281 1.425 . S
C276 C283 1.409 . S
C277 H269 0.930 . S
C277 C275 1.419 . S
C277 C278 1.362 . S
C278 H270 0.930 . S
C278 C277 1.362 . S
C278 C281 1.409 . S
C279 H271 0.930 . S
C279 C280 1.355 . S
C279 C281 1.415 . S
C280 C279 1.355 . S
C280 C282 1.419 . S
C281 C276 1.425 . S
C281 C278 1.409 . S
C281 C279 1.415 . S
C282 H272 0.930 . S
C282 C280 1.419 . S
C282 C283 1.362 . S
C283 H273 0.930 . S
C283 C276 1.409 . S
C283 C282 1.362 . S
H284 C290 0.930 . S
H285 C293 0.930 . S
H286 C294 0.930 . S
H287 C295 0.930 . S
H288 C298 0.930 . S
H289 C299 0.930 . S
C290 H284 0.930 . S
C290 C291 1.355 . S
C290 C292 1.415 . S
C291 C290 1.355 . S
C291 C293 1.419 . S
C292 C290 1.415 . S
C292 C297 1.425 . S
C292 C299 1.409 . S
C293 H285 0.930 . S
C293 C291 1.419 . S
C293 C294 1.362 . S
C294 H286 0.930 . S
C294 C293 1.362 . S
C294 C297 1.409 . S
C295 H287 0.930 . S
C295 C296 1.355 . S
C295 C297 1.415 . S
C296 C295 1.355 . S
C296 C298 1.419 . S
C297 C292 1.425 . S
C297 C294 1.409 . S
C297 C295 1.415 . S
C298 H288 0.930 . S
C298 C296 1.419 . S
C298 C299 1.362 . S
C299 H289 0.930 . S
C299 C292 1.409 . S
C299 C298 1.362 . S
H300 C306 0.930 . S
H301 C309 0.930 . S
H302 C310 0.930 . S
H303 C311 0.930 . S
H304 C314 0.930 . S
H305 C315 0.930 . S
C306 H300 0.930 . S
C306 C307 1.355 . S
C306 C308 1.415 . S
C307 C306 1.355 . S
C307 C309 1.419 . S
C308 C306 1.415 . S
C308 C313 1.425 . S
C308 C315 1.409 . S
C309 H301 0.930 . S
C309 C307 1.419 . S
C309 C310 1.362 . S
C310 H302 0.930 . S
C310 C309 1.362 . S
C310 C313 1.409 . S
C311 H303 0.930 . S
C311 C312 1.355 . S
C311 C313 1.415 . S
C312 C311 1.355 . S
C312 C314 1.419 . S
C313 C308 1.425 . S
C313 C310 1.409 . S
C313 C311 1.415 . S
C314 H304 0.930 . S
C314 C312 1.419 . S
C314 C315 1.362 . S
C315 H305 0.930 . S
C315 C308 1.409 . S
C315 C314 1.362 . S
H316 C322 0.930 . S
H317 C325 0.930 . S
H318 C326 0.930 . S
H319 C327 0.930 . S
H320 C330 0.930 . S
H321 C331 0.930 . S
C322 H316 0.930 . S
C322 C323 1.355 1_655 S
C322 C324 1.415 . S
C323 C322 1.355 1_455 S
C323 C325 1.419 . S
C324 C322 1.415 . S
C324 C329 1.425 1_655 S
C324 C331 1.409 . S
C325 H317 0.930 . S
C325 C323 1.419 . S
C325 C326 1.362 . S
C326 H318 0.930 . S
C326 C325 1.362 . S
C326 C329 1.409 . S
C327 H319 0.930 . S
C327 C328 1.355 1_455 S
C327 C329 1.415 . S
C328 C327 1.355 1_655 S
C328 C330 1.419 . S
C329 C324 1.425 1_455 S
C329 C326 1.409 . S
C329 C327 1.415 . S
C330 H320 0.930 . S
C330 C328 1.419 . S
C330 C331 1.362 . S
C331 H321 0.930 . S
C331 C324 1.409 . S
C331 C330 1.362 . S
H332 C338 0.930 . S
H333 C341 0.930 . S
H334 C342 0.930 . S
H335 C343 0.930 . S
H336 C346 0.930 . S
H337 C347 0.930 . S
C338 H332 0.930 . S
C338 C339 1.355 . S
C338 C340 1.415 . S
C339 C338 1.355 . S
C339 C341 1.419 1_655 S
C340 C338 1.415 . S
C340 C345 1.425 1_655 S
C340 C347 1.409 . S
C341 H333 0.930 . S
C341 C339 1.419 1_455 S
C341 C342 1.362 . S
C342 H334 0.930 . S
C342 C341 1.362 . S
C342 C345 1.409 . S
C343 H335 0.930 . S
C343 C344 1.355 . S
C343 C345 1.415 . S
C344 C343 1.355 . S
C344 C346 1.419 1_455 S
C345 C340 1.425 1_455 S
C345 C342 1.409 . S
C345 C343 1.415 . S
C346 H336 0.930 . S
C346 C344 1.419 1_655 S
C346 C347 1.362 . S
C347 H337 0.930 . S
C347 C340 1.409 . S
C347 C346 1.362 . S
H348 C354 0.930 . S
H349 C357 0.930 . S
H350 C358 0.930 . S
H351 C359 0.930 . S
H352 C362 0.930 . S
H353 C363 0.930 . S
C354 H348 0.930 . S
C354 C355 1.355 . S
C354 C356 1.415 . S
C355 C354 1.355 . S
C355 C357 1.419 1_455 S
C356 C354 1.415 . S
C356 C361 1.425 1_455 S
C356 C363 1.409 . S
C357 H349 0.930 . S
C357 C355 1.419 1_655 S
C357 C358 1.362 . S
C358 H350 0.930 . S
C358 C357 1.362 . S
C358 C361 1.409 . S
C359 H351 0.930 . S
C359 C360 1.355 . S
C359 C361 1.415 . S
C360 C359 1.355 . S
C360 C362 1.419 1_655 S
C361 C356 1.425 1_655 S
C361 C358 1.409 . S
C361 C359 1.415 . S
C362 H352 0.930 . S
C362 C360 1.419 1_455 S
C362 C363 1.362 . S
C363 H353 0.930 . S
C363 C356 1.409 . S
C363 C362 1.362 . S
H364 C370 0.930 1_655 S
H365 C373 0.930 . S
H366 C374 0.930 . S
H367 C375 0.930 1_455 S
H368 C378 0.930 . S
H369 C379 0.930 . S
C370 H364 0.930 1_455 S
C370 C371 1.355 . S
C370 C372 1.415 1_455 S
C371 C370 1.355 . S
C371 C373 1.419 . S
C372 C370 1.415 1_655 S
C372 C377 1.425 1_655 S
C372 C379 1.409 . S
C373 H365 0.930 . S
C373 C371 1.419 . S
C373 C374 1.362 . S
C374 H366 0.930 . S
C374 C373 1.362 . S
C374 C377 1.409 . S
C375 H367 0.930 1_655 S
C375 C376 1.355 . S
C375 C377 1.415 1_655 S
C376 C375 1.355 . S
C376 C378 1.419 . S
C377 C372 1.425 1_455 S
C377 C374 1.409 . S
C377 C375 1.415 1_455 S
C378 H368 0.930 . S
C378 C376 1.419 . S
C378 C379 1.362 . S
C379 H369 0.930 . S
C379 C372 1.409 . S
C379 C378 1.362 . S
C131 C0 1.625 1_556 S
C136 C10 1.610 1_654 S
C147 C31 1.579 1_455 S
C152 C41 1.546 . S
C163 C62 1.599 . S
C168 C72 1.580 1_655 S
C179 C93 1.578 1_455 S
C184 C103 1.551 . S
C195 C50 1.569 1_554 S
C200 C30 1.558 . S
C211 C112 1.568 . S
C216 C92 1.576 . S
C227 C19 1.589 1_554 S
C232 C61 1.587 . S
C243 C123 1.576 . S
C248 C81 1.567 . S
C259 C95 1.109 . S
C264 C1 1.126 . S
C275 C33 1.230 . S
C280 C63 1.207 . S
C291 C91 1.202 . S
C296 C51 1.233 . S
C307 C29 1.259 . S
C312 C113 1.303 . S
C323 C64 1.128 . S
C328 C32 1.110 . S
C339 C94 1.223 . S
C344 C2 1.229 . S
C355 C20 1.223 . S
C360 C122 1.302 . S
C371 C82 1.283 . S
C376 C60 1.218 . S
