# Generated by pormake.
# Topology sml, (6)-cn, num edge types: 1
# Building blocks:
#     Node 0, Type 0, BuildingBlock: JUFBIX_clean_sbu_0, # of connection points: 6
#     Node 1, Type 0, BuildingBlock: JUFBIX_clean_sbu_0, # of connection points: 6
#     Node 2, Type 0, BuildingBlock: JUFBIX_clean_sbu_0, # of connection points: 6
#     Node 3, Type 0, BuildingBlock: JUFBIX_clean_sbu_0, # of connection points: 6
#     Node 4, Type 0, BuildingBlock: JUFBIX_clean_sbu_0, # of connection points: 6
#     Node 5, Type 0, BuildingBlock: JUFBIX_clean_sbu_0, # of connection points: 6
#     Edge 6, Type (0, 0), BuildingBlock: FUNLAD_clean_linker_0, # of connection points: 2
#     Edge 7, Type (0, 0), BuildingBlock: FUNLAD_clean_linker_0, # of connection points: 2
#     Edge 8, Type (0, 0), BuildingBlock: FUNLAD_clean_linker_0, # of connection points: 2
#     Edge 9, Type (0, 0), BuildingBlock: FUNLAD_clean_linker_0, # of connection points: 2
#     Edge 10, Type (0, 0), BuildingBlock: FUNLAD_clean_linker_0, # of connection points: 2
#     Edge 11, Type (0, 0), BuildingBlock: FUNLAD_clean_linker_0, # of connection points: 2
#     Edge 12, Type (0, 0), BuildingBlock: FUNLAD_clean_linker_0, # of connection points: 2
#     Edge 13, Type (0, 0), BuildingBlock: FUNLAD_clean_linker_0, # of connection points: 2
#     Edge 14, Type (0, 0), BuildingBlock: FUNLAD_clean_linker_0, # of connection points: 2
#     Edge 15, Type (0, 0), BuildingBlock: FUNLAD_clean_linker_0, # of connection points: 2
#     Edge 16, Type (0, 0), BuildingBlock: FUNLAD_clean_linker_0, # of connection points: 2
#     Edge 17, Type (0, 0), BuildingBlock: FUNLAD_clean_linker_0, # of connection points: 2
#     Edge 18, Type (0, 0), BuildingBlock: FUNLAD_clean_linker_0, # of connection points: 2
#     Edge 19, Type (0, 0), BuildingBlock: FUNLAD_clean_linker_0, # of connection points: 2
#     Edge 20, Type (0, 0), BuildingBlock: FUNLAD_clean_linker_0, # of connection points: 2
#     Edge 21, Type (0, 0), BuildingBlock: FUNLAD_clean_linker_0, # of connection points: 2
#     Edge 22, Type (0, 0), BuildingBlock: FUNLAD_clean_linker_0, # of connection points: 2
#     Edge 23, Type (0, 0), BuildingBlock: FUNLAD_clean_linker_0, # of connection points: 2
# Relax obj value: 0.285
# Max RMSD: 0.197
# Mean RMSD: 0.197
data_MOF--net-sml--node1-JUFBIX_clean_sbu_0--edge1-FUNLAD_clean_linker_0
_symmetry_space_group_name_H-M    P1
_symmetry_Int_Tables_number       1
_symmetry_cell_setting            triclinic
loop_
_symmetry_equiv_pos_as_xyz
'x, y, z'
_cell_length_a     51.091816
_cell_length_b     51.039416
_cell_length_c     17.07932
_cell_angle_alpha  89.634331
_cell_angle_beta   90.006061
_cell_angle_gamma 120.13989
loop_
_atom_site_label
_atom_site_type_symbol
_atom_site_fract_x
_atom_site_fract_y
_atom_site_fract_z
_atom_type_partial_charge
Co0 Co 0.29282 0.47428 0.03448 0.0
C1 C 0.25113 0.49227 0.07061 0.0
Co2 Co 0.24535 0.43663 0.03808 0.0
C3 C 0.35416 0.51784 -0.01864 0.0
C4 C 0.34492 0.52498 0.09909 0.0
N5 N 0.33241 0.50649 0.03732 0.0
N6 N 0.37974 0.54258 0.00625 0.0
C7 C 0.37386 0.54698 0.08038 0.0
H8 H 0.35112 0.50839 0.92328 0.0
H9 H 0.33341 0.52319 0.15373 0.0
C10 C 0.28785 0.41929 0.00199 0.0
N11 N 0.20575 0.40482 0.03638 0.0
C12 C 0.18283 0.39904 0.08592 0.0
C13 C 0.19356 0.38241 -0.01674 0.0
N14 N 0.15678 0.37385 0.06588 0.0
C15 C 0.16354 0.36336 0.00123 0.0
C16 C 0.26521 0.46396 0.8919 0.0
O17 O 0.30651 0.44742 0.00961 0.0
O18 O 0.25974 0.4094 0.01265 0.0
O19 O 0.24291 0.4436 0.9304 0.0
O20 O 0.29002 0.48089 0.92674 0.0
O21 O 0.23171 0.46428 0.06353 0.0
H22 H 0.20569 0.38023 0.93416 0.0
H23 H 0.18535 0.41296 0.13608 0.0
O24 O 0.27892 0.50115 0.05938 0.0
O25 O 0.29504 0.46699 0.14222 0.0
O26 O 0.24795 0.42992 0.14583 0.0
C27 C 0.27274 0.44672 0.18072 0.0
H28 H 0.38889 0.56565 0.11747 0.0
H29 H 0.14781 0.34366 0.96819 0.0
Co30 Co 0.77186 0.21035 0.39711 0.0
C31 C 0.81559 0.26953 0.36629 0.0
Co32 Co 0.81815 0.21734 0.40391 0.0
C33 C 0.71849 0.21405 0.43475 0.0
C34 C 0.7105 0.18246 0.34334 0.0
N35 N 0.73243 0.20291 0.39014 0.0
N36 N 0.68868 0.20115 0.41825 0.0
C37 C 0.68368 0.18139 0.3603 0.0
H38 H 0.72976 0.23038 0.48078 0.0
H39 H 0.71355 0.16848 0.30121 0.0
C40 C 0.77346 0.15806 0.43521 0.0
N41 N 0.85721 0.22403 0.41145 0.0
C42 C 0.88094 0.24 0.36276 0.0
C43 C 0.86786 0.21334 0.46797 0.0
N44 N 0.90596 0.23956 0.38649 0.0
C45 C 0.89774 0.22278 0.45277 0.0
C46 C 0.79611 0.22499 0.54466 0.0
O47 O 0.75658 0.16913 0.4209 0.0
O48 O 0.80204 0.17521 0.4305 0.0
O49 O 0.8189 0.22635 0.511 0.0
O50 O 0.7726 0.21833 0.505 0.0
O51 O 0.83349 0.25926 0.37738 0.0
H52 H 0.85469 0.19951 0.51709 0.0
H53 H 0.87967 0.25125 0.31016 0.0
O54 O 0.78724 0.25172 0.37353 0.0
O55 O 0.77178 0.20251 0.28932 0.0
O56 O 0.81724 0.20835 0.29679 0.0
C57 C 0.7942 0.20282 0.25639 0.0
H58 H 0.66212 0.16684 0.33265 0.0
H59 H 0.91235 0.2179 0.48829 0.0
Co60 Co 0.59432 0.84154 0.71449 0.0
C61 C 0.57659 0.78167 0.74838 0.0
Co62 Co 0.63175 0.83159 0.70728 0.0
C63 C 0.5496 0.8583 0.66845 0.0
C64 C 0.54582 0.8449 0.78879 0.0
N65 N 0.56247 0.84925 0.72357 0.0
N66 N 0.52568 0.85979 0.69697 0.0
C67 C 0.52339 0.85145 0.77277 0.0
H68 H 0.55734 0.86325 0.60833 0.0
H69 H 0.54908 0.83649 0.84404 0.0
C70 C 0.64877 0.89177 0.6734 0.0
N71 N 0.66318 0.82337 0.6998 0.0
C72 C 0.66918 0.80601 0.74822 0.0
C73 C 0.68502 0.83346 0.64461 0.0
N74 N 0.69396 0.80488 0.72563 0.0
C75 C 0.70398 0.8222 0.66035 0.0
C76 C 0.60173 0.82468 0.56721 0.0
O77 O 0.62085 0.8821 0.68585 0.0
O78 O 0.65893 0.87362 0.68134 0.0
O79 O 0.6232 0.82308 0.60004 0.0
O80 O 0.58529 0.83169 0.60761 0.0
O81 O 0.60403 0.78985 0.73296 0.0
H82 H 0.68697 0.84799 0.5959 0.0
H83 H 0.6558 0.79476 0.79976 0.0
O84 O 0.56788 0.80093 0.74332 0.0
O85 O 0.60401 0.85133 0.8211 0.0
O86 O 0.6401 0.84014 0.81479 0.0
C87 C 0.62461 0.84847 0.85458 0.0
H88 H 0.50586 0.84888 0.81298 0.0
H89 H 0.72336 0.82614 0.62564 0.0
Co90 Co 0.86999 0.5978 0.09722 0.0
C91 C 0.80917 0.57557 0.06714 0.0
Co92 Co 0.85685 0.63305 0.10017 0.0
C93 C 0.86656 0.54112 0.13485 0.0
C94 C 0.90447 0.56862 0.06067 0.0
N95 N 0.8806 0.56793 0.0963 0.0
N96 N 0.88076 0.52502 0.12529 0.0
C97 C 0.90462 0.5423 0.07825 0.0
H98 H 0.84625 0.53365 0.1694 0.0
H99 H 0.921 0.5873 0.02535 0.0
C100 C 0.91797 0.65489 0.12996 0.0
N101 N 0.84626 0.66297 0.10238 0.0
C102 C 0.83045 0.66926 0.04946 0.0
C103 C 0.85444 0.68439 0.1577 0.0
N104 N 0.82871 0.69396 0.06934 0.0
C105 C 0.84375 0.70343 0.13759 0.0
C106 C 0.8525 0.60612 0.2434 0.0
O107 O 0.91042 0.62737 0.11931 0.0
O108 O 0.89794 0.66264 0.1242 0.0
O109 O 0.8482 0.62561 0.20816 0.0
O110 O 0.86201 0.59131 0.20522 0.0
O111 O 0.81599 0.60305 0.07587 0.0
H112 H 0.86773 0.68629 0.20892 0.0
H113 H 0.82119 0.6565 -0.00376 0.0
O114 O 0.8296 0.56854 0.07521 0.0
O115 O 0.87782 0.60461 -0.01116 0.0
O116 O 0.86561 0.64016 -0.00738 0.0
C117 C 0.87427 0.62468 0.95401 0.0
H118 H 0.92148 0.53677 0.05944 0.0
H119 H 0.84685 0.72279 0.17073 0.0
Co120 Co 0.23012 0.77911 0.38882 0.0
C121 C 0.29068 0.81922 0.41374 0.0
Co122 Co 0.24055 0.82671 0.39219 0.0
C123 C 0.23137 0.72545 0.34069 0.0
C124 C 0.19793 0.71601 0.42874 0.0
N125 N 0.22015 0.73886 0.38695 0.0
N126 N 0.21691 0.69509 0.3516 0.0
C127 C 0.19591 0.68916 0.4073 0.0
H128 H 0.2496 0.73779 0.29924 0.0
H129 H 0.18349 0.71861 0.47051 0.0
C130 C 0.17975 0.78543 0.36749 0.0
N131 N 0.24982 0.86681 0.39358 0.0
C132 C 0.26842 0.88928 0.44223 0.0
C133 C 0.23914 0.8798 0.34384 0.0
N134 N 0.26982 0.91586 0.42469 0.0
C135 C 0.2513 0.90982 0.36276 0.0
C136 C 0.24456 0.80723 0.24525 0.0
O137 O 0.18925 0.76687 0.37384 0.0
O138 O 0.19853 0.8137 0.37234 0.0
O139 O 0.24815 0.82986 0.2842 0.0
O140 O 0.23616 0.78216 0.27988 0.0
O141 O 0.28224 0.83886 0.41179 0.0
H142 H 0.22345 0.86814 0.29675 0.0
H143 H 0.28094 0.88618 0.48895 0.0
O144 O 0.27117 0.79144 0.40401 0.0
O145 O 0.22419 0.7766 0.49755 0.0
O146 O 0.23297 0.82332 0.50044 0.0
C147 C 0.22617 0.79875 0.53576 0.0
H148 H 0.17948 0.6669 0.42912 0.0
H149 H 0.24642 0.92577 0.33368 0.0
Co150 Co 0.49007 0.30879 0.75285 0.0
C151 C 0.51104 0.27027 0.71617 0.0
Co152 Co 0.45334 0.26093 0.74941 0.0
C153 C 0.54477 0.36337 0.79918 0.0
C154 C 0.51941 0.37191 0.71333 0.0
N155 N 0.51975 0.34939 0.75424 0.0
N156 N 0.55994 0.39376 0.78838 0.0
C157 C 0.54404 0.39911 0.73399 0.0
H158 H 0.55112 0.35153 0.84096 0.0
H159 H 0.50197 0.36882 0.67232 0.0
C160 C 0.43343 0.30069 0.78761 0.0
N161 N 0.42317 0.22048 0.74854 0.0
C162 C 0.41938 0.19842 0.69863 0.0
C163 C 0.40021 0.20671 0.80028 0.0
N164 N 0.39496 0.17132 0.71731 0.0
C165 C 0.38286 0.17661 0.78128 0.0
C166 C 0.47937 0.27996 0.89545 0.0
O167 O 0.46126 0.31974 0.77761 0.0
O168 O 0.42403 0.2727 0.77669 0.0
O169 O 0.45984 0.25744 0.85678 0.0
O170 O 0.49561 0.30515 0.86076 0.0
O171 O 0.48319 0.25007 0.72248 0.0
H172 H 0.39637 0.21785 0.84894 0.0
H173 H 0.43458 0.20217 0.65028 0.0
O174 O 0.51905 0.2978 0.72851 0.0
O175 O 0.48403 0.3118 0.64482 0.0
O176 O 0.44706 0.26457 0.6421 0.0
C177 C 0.46388 0.28948 0.60678 0.0
H178 H 0.54965 0.42112 0.71085 0.0
H179 H 0.36267 0.16007 0.81188 0.0
C180 C 0.38188 0.29347 0.82051 0.0
C181 C 0.41362 0.31156 0.81914 0.0
C182 C 0.36416 0.30456 0.8537 0.0
C183 C 0.37814 0.33364 0.88711 0.0
C184 C 0.40975 0.35134 0.88606 0.0
C185 C 0.42722 0.34065 0.85195 0.0
C186 C 0.36136 0.34694 0.92453 0.0
C187 C 0.33375 0.34146 0.90279 0.0
C188 C 0.32177 0.36104 0.93035 0.0
C189 C 0.29049 0.34918 0.93958 0.0
C190 C 0.27921 0.36785 0.96407 0.0
C191 C 0.29909 0.39879 -0.02133 0.0
H192 H 0.36559 0.40248 0.93419 0.0
C193 C 0.3303 0.41061 0.9682 0.0
C194 C 0.34146 0.39209 0.94396 0.0
H195 H 0.34627 0.43439 -0.02223 0.0
H196 H 0.37082 0.27088 0.79617 0.0
H197 H 0.33979 0.2902 0.8546 0.0
H198 H 0.4211 0.3738 0.91134 0.0
H199 H 0.4516 0.35517 0.85279 0.0
H200 H 0.37382 0.36442 0.96766 0.0
H201 H 0.32038 0.32356 0.86154 0.0
H202 H 0.27481 0.32547 0.92823 0.0
H203 H 0.255 0.35813 0.97085 0.0
C204 C 0.1065 0.32988 0.09739 0.0
C205 C 0.1277 0.36093 0.10438 0.0
C206 C 0.0781 0.31734 0.13322 0.0
C207 C 0.07022 0.33553 0.17755 0.0
C208 C 0.09128 0.3666 0.18398 0.0
C209 C 0.11977 0.37915 0.14825 0.0
C210 C 0.04 0.32303 0.21557 0.0
C211 C 0.02302 0.29375 0.23761 0.0
C212 C 0.99287 0.28077 0.27613 0.0
C213 C 0.98235 0.25426 0.32123 0.0
C214 C 0.95399 0.24088 0.35742 0.0
C215 C 0.9352 0.25348 0.34868 0.0
H216 H 0.9809 0.31327 0.23065 0.0
C217 C 0.94547 0.27979 0.30259 0.0
C218 C 0.97401 0.29333 0.26668 0.0
H219 H 0.93159 0.2901 0.29486 0.0
H220 H 0.11185 0.31514 0.06443 0.0
H221 H 0.06227 0.2935 0.12467 0.0
H222 H 0.08573 0.38123 0.217 0.0
H223 H 0.13532 0.40321 0.15384 0.0
H224 H 0.03231 0.33884 0.22902 0.0
H225 H 0.03211 0.27869 0.23084 0.0
H226 H 0.99619 0.24387 0.32877 0.0
H227 H 0.9466 0.22035 0.39133 0.0
C228 C 0.77672 0.11244 0.48033 0.0
C229 C 0.7594 0.12614 0.46251 0.0
C230 C 0.7628 0.08287 0.51143 0.0
C231 C 0.73137 0.06671 0.52574 0.0
C232 C 0.71427 0.08039 0.50695 0.0
C233 C 0.72797 0.10952 0.4753 0.0
C234 C 0.71521 0.03618 0.56302 0.0
C235 C 0.72389 0.01524 0.55931 0.0
C236 C 0.70461 0.98373 0.59032 0.0
C237 C 0.71781 0.96612 0.60989 0.0
C238 C 0.69994 0.93628 0.63768 0.0
C239 C 0.66846 0.92347 0.64627 0.0
H240 H 0.66144 0.98242 0.57981 0.0
C241 C 0.65531 0.941 0.62585 0.0
C242 C 0.67299 0.9705 0.59761 0.0
H243 H 0.63107 0.93174 0.63016 0.0
H244 H 0.80101 0.12472 0.47158 0.0
H245 H 0.77678 0.0732 0.52634 0.0
H246 H 0.69005 0.06852 0.51723 0.0
H247 H 0.71383 0.11923 0.46253 0.0
H248 H 0.69419 0.03049 0.59256 0.0
H249 H 0.74528 0.02094 0.53177 0.0
H250 H 0.74201 0.97548 0.60381 0.0
H251 H 0.71074 0.92327 0.65223 0.0
C252 C 0.73805 0.79865 0.75458 0.0
C253 C 0.70707 0.78872 0.76326 0.0
C254 C 0.75084 0.7831 0.79101 0.0
C255 C 0.73294 0.75722 0.83742 0.0
C256 C 0.70189 0.747 0.84498 0.0
C257 C 0.68913 0.76265 0.80882 0.0
C258 C 0.74576 0.74011 0.87736 0.0
C259 C 0.77494 0.75311 0.89989 0.0
C260 C 0.78797 0.73685 0.94295 0.0
C261 C 0.81362 0.75381 -0.01045 0.0
C262 C 0.82684 0.73973 0.03081 0.0
C263 C 0.81502 0.70829 0.02575 0.0
H264 H 0.75697 0.6916 0.90007 0.0
C265 C 0.7897 0.69127 -0.02215 0.0
C266 C 0.77622 0.70536 0.93699 0.0
H267 H 0.78007 0.66702 0.97275 0.0
H268 H 0.75259 0.81866 0.72019 0.0
H269 H 0.77466 0.79125 0.78167 0.0
H270 H 0.68747 0.72696 0.87958 0.0
H271 H 0.66511 0.75405 0.81573 0.0
H272 H 0.7302 0.7166 0.89281 0.0
H273 H 0.78971 0.7773 0.89093 0.0
H274 H 0.8234 0.77811 -0.00544 0.0
H275 H 0.84664 0.75361 0.06596 0.0
C276 C 0.13636 0.78997 0.31244 0.0
C277 C 0.14714 0.77334 0.3534 0.0
C278 C 0.10573 0.77619 0.29094 0.0
C279 C 0.08543 0.74566 0.31114 0.0
C280 C 0.0962 0.72988 0.35574 0.0
C281 C 0.12658 0.74342 0.37618 0.0
C282 C 0.05347 0.7282 0.2839 0.0
C283 C 0.0396 0.73849 0.23592 0.0
C284 C 1.00881 0.71758 0.20498 0.0
C285 C 0.98793 0.72754 0.19452 0.0
C286 C 0.95843 0.70742 0.16888 0.0
C287 C 0.94951 0.67709 0.15219 0.0
H288 H 1.01601 0.67944 0.18964 0.0
C289 C 0.97091 0.66762 0.15947 0.0
C290 C 1.00016 0.68759 0.18526 0.0
H291 H 0.96501 0.64458 0.14611 0.0
H292 H 0.15179 0.8131 0.29412 0.0
H293 H 0.09846 0.78933 0.25705 0.0
H294 H 0.08123 0.70647 0.37278 0.0
H295 H 0.13412 0.73009 0.40855 0.0
H296 H 0.04072 0.70464 0.30281 0.0
H297 H 0.05042 0.76221 0.21933 0.0
H298 H 0.99419 0.75066 0.20817 0.0
H299 H 0.94253 0.71548 0.16335 0.0
C300 C 0.36505 0.11521 0.71697 0.0
C301 C 0.38389 0.14273 0.67767 0.0
C302 C 0.35333 0.08754 0.67821 0.0
C303 C 0.36043 0.08657 0.599 0.0
C304 C 0.37946 0.11405 0.55993 0.0
C305 C 0.3911 0.14176 0.59868 0.0
C306 C 0.34722 0.05776 0.55387 0.0
C307 C 0.33401 0.02987 0.58697 0.0
C308 C 0.31888 1.00101 0.54196 0.0
C309 C 0.31202 0.97385 0.5804 0.0
C310 C 0.29638 0.94602 0.54192 0.0
C311 C 0.28704 0.94462 0.46385 0.0
H312 H 0.31366 0.01967 0.43185 0.0
C313 C 0.29416 0.97184 0.42512 0.0
C314 C 0.30969 0.99961 0.46362 0.0
H315 H 0.28768 0.97179 0.36482 0.0
H316 H 0.35919 0.11492 0.77794 0.0
H317 H 0.33819 0.06719 0.71053 0.0
H318 H 0.38513 0.11414 0.49876 0.0
H319 H 0.40519 0.16241 0.56606 0.0
H320 H 0.34899 0.05997 0.49063 0.0
H321 H 0.33449 0.02773 0.65009 0.0
H322 H 0.3185 0.97408 0.64092 0.0
H323 H 0.29102 0.9256 0.57411 0.0
C324 C 0.2893 0.48199 0.76065 0.0
C325 C 0.26306 0.46549 0.80626 0.0
C326 C 0.2878 0.47961 0.67927 0.0
C327 C 0.25999 0.4607 0.64232 0.0
C328 C 0.23353 0.44591 0.68756 0.0
C329 C 0.23505 0.44807 0.76892 0.0
C330 C 0.25787 0.45547 0.55705 0.0
C331 C 0.28014 0.45529 0.51557 0.0
C332 C 0.278 0.45002 0.4303 0.0
C333 C 0.30446 0.46472 0.38504 0.0
C334 C 0.30293 0.46253 0.30368 0.0
C335 C 0.27489 0.44518 0.26636 0.0
H336 H 0.22951 0.41854 0.42697 0.0
C337 C 0.24865 0.42877 0.312 0.0
C338 C 0.25018 0.43116 0.39337 0.0
H339 H 0.22677 0.415 0.28486 0.0
H340 H 0.31117 0.49582 0.78781 0.0
H341 H 0.30846 0.49228 0.64569 0.0
H342 H 0.21181 0.43163 0.66015 0.0
H343 H 0.21439 0.43532 0.80259 0.0
H344 H 0.23686 0.45048 0.5286 0.0
H345 H 0.30115 0.46028 0.54403 0.0
H346 H 0.3262 0.47896 0.41242 0.0
H347 H 0.32359 0.47522 0.26999 0.0
C348 C 0.76976 0.1958 0.12614 0.0
C349 C 0.7946 0.19991 0.17085 0.0
C350 C 0.77163 0.1974 0.04477 0.0
C351 C 0.79844 0.20326 0.00673 0.0
C352 C 0.82249 0.20532 0.05104 0.0
C353 C 0.82069 0.20383 0.13259 0.0
C354 C 0.80216 0.20784 0.92118 0.0
C355 C 0.78882 0.22047 0.87995 0.0
C356 C 0.79242 0.22495 0.79436 0.0
C357 C 0.76835 0.223 0.75033 0.0
C358 C 0.76998 0.22434 0.66877 0.0
C359 C 0.79591 0.22803 0.63019 0.0
H360 H 0.83857 0.23351 0.78846 0.0
C361 C 0.82079 0.23204 0.67458 0.0
C362 C 0.81909 0.23058 0.75598 0.0
H363 H 0.84126 0.23535 0.6465 0.0
H364 H 0.74917 0.19226 0.15396 0.0
H365 H 0.75217 0.19437 0.01204 0.0
H366 H 0.84317 0.20933 0.02271 0.0
H367 H 0.84012 0.20685 0.16555 0.0
H368 H 0.8171 0.20154 0.89223 0.0
H369 H 0.77389 0.22677 0.90896 0.0
H370 H 0.74778 0.21918 0.77892 0.0
H371 H 0.75055 0.22146 0.63606 0.0
C372 C 0.61824 0.81659 0.43676 0.0
C373 C 0.59838 0.82199 0.48149 0.0
C374 C 0.61842 0.8187 0.35538 0.0
C375 C 0.59881 0.8264 0.3172 0.0
C376 C 0.57758 0.82977 0.36149 0.0
C377 C 0.57744 0.82775 0.44305 0.0
C378 C 0.60022 0.83146 0.2316 0.0
C379 C 0.6261 0.84225 0.19028 0.0
C380 C 0.62749 0.84713 0.10464 0.0
C381 C 0.64852 0.84338 0.06054 0.0
C382 C 0.64863 0.84522 -0.02103 0.0
C383 C 0.62792 0.85124 0.9403 0.0
H384 H 0.59246 0.85936 0.09872 0.0
C385 C 0.60827 0.85703 -0.01518 0.0
C386 C 0.60806 0.85503 0.06624 0.0
H387 H 0.59231 0.86212 0.95679 0.0
H388 H 0.63438 0.81169 0.46462 0.0
H389 H 0.63417 0.8146 0.3228 0.0
H390 H 0.56189 0.83518 0.33315 0.0
H391 H 0.56171 0.83182 0.47594 0.0
H392 H 0.57948 0.82701 0.20261 0.0
H393 H 0.64685 0.84671 0.21923 0.0
H394 H 0.66405 0.83779 0.08906 0.0
H395 H 0.66419 0.84085 0.94625 0.0
C396 C 0.88143 0.6074 0.82378 0.0
C397 C 0.87721 0.628 0.86839 0.0
C398 C 0.87988 0.60783 0.74239 0.0
C399 C 0.87406 0.62889 0.70441 0.0
C400 C 0.87191 0.65075 0.74863 0.0
C401 C 0.87325 0.65021 0.83007 0.0
C402 C 0.86954 0.62826 0.61905 0.0
C403 C 0.85659 0.6023 0.57834 0.0
C404 C 0.85214 0.60169 0.49294 0.0
C405 C 0.85426 0.57978 0.44879 0.0
C406 C 0.85308 0.58039 0.36733 0.0
C407 C 0.84934 0.60272 0.32894 0.0
H408 H 0.8435 0.63925 0.48755 0.0
C409 C 0.84512 0.62335 0.37341 0.0
C410 C 0.84649 0.62284 0.45482 0.0
H411 H 0.84184 0.64059 0.34539 0.0
H412 H 0.88489 0.59026 0.85169 0.0
H413 H 0.88289 0.59145 0.70957 0.0
H414 H 0.86792 0.66749 0.72034 0.0
H415 H 0.87023 0.66659 0.86296 0.0
H416 H 0.87605 0.64965 0.58984 0.0
H417 H 0.85009 0.58092 0.60757 0.0
H418 H 0.85809 0.56296 0.47718 0.0
H419 H 0.85605 0.56397 0.33449 0.0
C420 C 0.22994 0.82231 0.66528 0.0
C421 C 0.22243 0.79642 0.62101 0.0
C422 C 0.22968 0.82078 0.74663 0.0
C423 C 0.22196 0.79333 0.78469 0.0
C424 C 0.21254 0.76708 0.74063 0.0
C425 C 0.21296 0.76862 0.65924 0.0
C426 C 0.22435 0.7916 0.87005 0.0
C427 C 0.24614 0.81456 0.91098 0.0
C428 C 0.24857 0.8128 -0.00369 0.0
C429 C 0.25797 0.83902 0.04049 0.0
C430 C 0.25763 0.83744 0.12188 0.0
C431 C 0.24825 0.80962 0.15997 0.0
H432 H 0.23477 0.765 0.00129 0.0
C433 C 0.24075 0.78377 0.11554 0.0
C434 C 0.24094 0.78535 0.03421 0.0
H435 H 0.2339 0.76214 0.14344 0.0
H436 H 0.23692 0.84395 0.63725 0.0
H437 H 0.23589 0.84115 0.77943 0.0
H438 H 0.20605 0.74562 0.76913 0.0
H439 H 0.20664 0.7482 0.6264 0.0
H440 H 0.20858 0.77043 0.89905 0.0
H441 H 0.26191 0.83573 0.88199 0.0
H442 H 0.26439 0.86048 0.01211 0.0
H443 H 0.26389 0.85782 0.1548 0.0
C444 C 0.4453 0.26533 0.4767 0.0
C445 C 0.4624 0.29159 0.5211 0.0
C446 C 0.4475 0.26658 0.39526 0.0
C447 C 0.46688 0.29415 0.35696 0.0
C448 C 0.48233 0.3207 0.40099 0.0
C449 C 0.48031 0.31943 0.48247 0.0
C450 C 0.4719 0.2959 0.2715 0.0
C451 C 0.47103 0.27303 0.23065 0.0
C452 C 0.4761 0.27485 0.14521 0.0
C453 C 0.46051 0.2484 0.10089 0.0
C454 C 0.46262 0.24979 0.01943 0.0
C455 C 0.48074 0.27766 -0.01889 0.0
H456 H 0.50902 0.32302 0.14006 0.0
C457 C 0.49799 0.3038 0.02582 0.0
C458 C 0.4957 0.30242 0.10724 0.0
H459 H 0.51243 0.32555 -0.00204 0.0
H460 H 0.43106 0.24359 0.50483 0.0
H461 H 0.4343 0.24589 0.3627 0.0
H462 H 0.49699 0.34227 0.37252 0.0
H463 H 0.49352 0.34011 0.51518 0.0
H464 H 0.47758 0.31708 0.24228 0.0
H465 H 0.46533 0.25183 0.25979 0.0
H466 H 0.44568 0.22683 0.12913 0.0
H467 H 0.44927 0.2292 -0.01351 0.0
C468 C 0.26415 0.54527 0.10023 0.0
C469 C 0.24222 0.51435 0.09608 0.0
C470 C 0.25686 0.56614 0.13036 0.0
C471 C 0.22731 0.55666 0.15669 0.0
C472 C 0.20525 0.52582 0.15151 0.0
C473 C 0.21256 0.50486 0.12112 0.0
C474 C 0.2195 0.57793 0.1951 0.0
C475 C 0.23519 0.60817 0.18322 0.0
C476 C 0.22938 0.62983 0.22696 0.0
C477 C 0.23866 0.65845 0.19398 0.0
C478 C 0.23466 0.67987 0.23467 0.0
C479 C 0.22155 0.67325 0.30983 0.0
H480 H 0.21013 0.60192 0.33122 0.0
C481 C 0.21263 0.6447 0.34323 0.0
C482 C 0.21653 0.62326 0.30244 0.0
H483 H 0.20308 0.63904 0.40159 0.0
H484 H 0.28729 0.55336 0.08196 0.0
H485 H 0.27482 0.58944 0.13549 0.0
H486 H 0.18239 0.51784 0.17205 0.0
H487 H 0.19519 0.48116 0.11916 0.0
H488 H 0.19999 0.56817 0.23397 0.0
H489 H 0.25274 0.61766 0.13863 0.0
H490 H 0.2489 0.66423 0.13626 0.0
H491 H 0.2415 0.70144 0.20665 0.0
C492 C 0.67503 0.23296 0.49776 0.0
C493 C 0.66643 0.2058 0.45805 0.0
C494 C 0.65349 0.23732 0.53688 0.0
C495 C 0.6227 0.21464 0.53664 0.0
C496 C 0.61423 0.18734 0.4981 0.0
C497 C 0.63576 0.18298 0.45905 0.0
C498 C 0.59885 0.2183 0.57662 0.0
C499 C 0.60168 0.24552 0.59133 0.0
C500 C 0.57783 0.24996 0.62839 0.0
C501 C 0.58627 0.2788 0.6573 0.0
C502 C 0.56467 0.285 0.68795 0.0
C503 C 0.53393 0.2625 0.6902 0.0
H504 H 0.53933 0.20478 0.60896 0.0
C505 C 0.52539 0.23337 0.66293 0.0
C506 C 0.54708 0.22715 0.63204 0.0
H507 H 0.50184 0.21562 0.66328 0.0
H508 H 0.69841 0.25102 0.49825 0.0
H509 H 0.66127 0.25833 0.56798 0.0
H510 H 0.59078 0.16933 0.49768 0.0
H511 H 0.62833 0.16151 0.43062 0.0
H512 H 0.57807 0.19774 0.59203 0.0
H513 H 0.62243 0.26594 0.57475 0.0
H514 H 0.6097 0.29684 0.65524 0.0
H515 H 0.57209 0.3077 0.70855 0.0
C516 C 0.43407 0.58085 0.00123 0.0
C517 C 0.40662 0.56264 0.96207 0.0
C518 C 0.45886 0.604 0.96167 0.0
C519 C 0.45684 0.60943 0.8818 0.0
C520 C 0.4304 0.58966 0.84088 0.0
C521 C 0.40538 0.56651 0.88075 0.0
C522 C 0.48102 0.6371 0.84262 0.0
C523 C 0.49372 0.66396 0.87935 0.0
C524 C 0.51461 0.69326 0.84105 0.0
C525 C 0.51172 0.71838 0.85961 0.0
C526 C 0.53151 0.74678 0.82769 0.0
C527 C 0.55527 0.75093 0.7782 0.0
H528 H 0.54096 0.67805 0.77626 0.0
C529 C 0.55849 0.72587 0.75998 0.0
C530 C 0.53801 0.69706 0.79043 0.0
H531 H 0.57669 0.72852 0.72215 0.0
H532 H 0.4361 0.57785 0.06328 0.0
H533 H 0.47933 0.6183 -0.00578 0.0
H534 H 0.42844 0.59326 0.77908 0.0
H535 H 0.38463 0.55286 0.84877 0.0
H536 H 0.48579 0.63613 0.78103 0.0
H537 H 0.48611 0.66501 0.93811 0.0
H538 H 0.49399 0.71601 0.89889 0.0
H539 H 0.52861 0.76571 0.84346 0.0
C540 C 0.80717 0.31248 0.33158 0.0
C541 C 0.82725 0.30144 0.34164 0.0
C542 C 0.81753 0.34193 0.30406 0.0
C543 C 0.84836 0.36126 0.28629 0.0
C544 C 0.86845 0.35026 0.2966 0.0
C545 C 0.85807 0.32074 0.32434 0.0
C546 C 0.85993 0.39226 0.25302 0.0
C547 C 0.84594 0.40847 0.2635 0.0
C548 C 0.85637 0.43889 0.22791 0.0
C549 C 0.84669 0.45763 0.26152 0.0
C550 C 0.85482 0.48584 0.22837 0.0
C551 C 0.87265 0.49597 0.16002 0.0
H552 H 0.88141 0.43487 0.13024 0.0
C553 C 0.88231 0.47717 0.12617 0.0
C554 C 0.87424 0.44896 0.15952 0.0
H555 H 0.8956 0.48393 0.07285 0.0
H556 H 0.78323 0.29817 0.34367 0.0
H557 H 0.80106 0.34901 0.2947 0.0
H558 H 0.89226 0.3645 0.28274 0.0
H559 H 0.87412 0.31291 0.33091 0.0
H560 H 0.88111 0.40222 0.22071 0.0
H561 H 0.82636 0.39961 0.30194 0.0
H562 H 0.83279 0.45046 0.31391 0.0
H563 H 0.84728 0.49975 0.25694 0.0
C564 C 0.34376 0.85718 0.45501 0.0
C565 C 0.32261 0.82801 0.42887 0.0
C566 C 0.37336 0.86439 0.4738 0.0
C567 C 0.38232 0.8425 0.46658 0.0
C568 C 0.36145 0.81383 0.43749 0.0
C569 C 0.33195 0.80659 0.41934 0.0
C570 C 0.41274 0.84806 0.4902 0.0
C571 C 0.43008 0.86839 0.5447 0.0
C572 C 0.45737 0.86935 0.5789 0.0
C573 C 0.46524 0.87916 0.65635 0.0
C574 C 0.48843 0.87712 0.69399 0.0
C575 C 0.50457 0.86551 0.65477 0.0
H576 H 0.4701 0.85269 0.47728 0.0
C577 C 0.49809 0.85755 0.57557 0.0
C578 C 0.47474 0.85945 0.53793 0.0
H579 H 0.51018 0.84864 0.5436 0.0
H580 H 0.33731 0.87426 0.46235 0.0
H581 H 0.38902 0.88704 0.49389 0.0
H582 H 0.36772 0.7966 0.43065 0.0
H583 H 0.31636 0.78398 0.39858 0.0
H584 H 0.4194 0.83236 0.46803 0.0
H585 H 0.42221 0.88232 0.57215 0.0
H586 H 0.45259 0.88731 0.68903 0.0
H587 H 0.49331 0.88404 0.75451 0.0
C588 C 0.75639 0.55952 0.02211 0.0
C589 C 0.77837 0.552 0.04363 0.0
C590 C 0.72821 0.53726 -0.00627 0.0
C591 C 0.72143 0.50696 -0.01316 0.0
C592 C 0.74326 0.49952 0.00993 0.0
C593 C 0.77131 0.52167 0.03814 0.0
C594 C 0.69286 0.48269 0.95186 0.0
C595 C 0.66733 0.48407 0.94435 0.0
C596 C 0.63953 0.45999 0.90584 0.0
C597 C 0.61893 0.46769 0.87416 0.0
C598 C 0.59289 0.44604 0.83587 0.0
C599 C 0.58668 0.416 0.82877 0.0
H600 H 0.64762 0.42249 0.92636 0.0
C601 C 0.60693 0.40808 0.8621 0.0
C602 C 0.63298 0.42975 0.90047 0.0
H603 H 0.60288 0.3852 0.85784 0.0
H604 H 0.76125 0.58273 0.02507 0.0
H605 H 0.71241 0.54424 0.97498 0.0
H606 H 0.73877 0.47646 0.00518 0.0
H607 H 0.78767 0.51503 0.05431 0.0
H608 H 0.69332 0.46293 0.93065 0.0
H609 H 0.66677 0.50387 0.96465 0.0
H610 H 0.62313 0.49067 0.87827 0.0
H611 H 0.57752 0.45286 0.81253 0.0
loop_
_geom_bond_atom_site_label_1
_geom_bond_atom_site_label_2
_geom_bond_distance
_geom_bond_site_symmetry_2
_ccdc_geom_bond_type
Co0 N5 2.057 . S
Co0 O17 2.021 . S
Co0 O20 2.062 . S
Co0 O24 2.117 1_556 S
Co0 O25 2.020 1_556 S
C1 O21 1.259 . S
C1 O24 1.258 . S
Co2 N11 2.057 . S
Co2 O18 2.117 1_554 S
Co2 O19 2.020 1_554 S
Co2 O21 2.021 . S
Co2 O26 2.062 . S
C3 N5 1.316 . S
C3 N6 1.347 . S
C3 H8 0.931 . S
C4 N5 1.375 . S
C4 C7 1.350 . S
C4 H9 0.931 . S
N5 Co0 2.057 . S
N5 C3 1.316 . S
N5 C4 1.375 . S
N6 C3 1.347 . S
N6 C7 1.373 . S
C7 C4 1.350 . S
C7 N6 1.373 . S
C7 H28 0.931 . S
H8 C3 0.931 . S
H9 C4 0.931 . S
C10 O17 1.259 . S
C10 O18 1.258 . S
N11 Co2 2.057 . S
N11 C12 1.316 . S
N11 C13 1.375 . S
C12 N11 1.316 . S
C12 N14 1.347 . S
C12 H23 0.931 . S
C13 N11 1.375 . S
C13 C15 1.350 . S
C13 H22 0.932 . S
N14 C12 1.347 . S
N14 C15 1.373 . S
C15 C13 1.350 . S
C15 N14 1.373 . S
C15 H29 0.931 . S
C16 O19 1.256 . S
C16 O20 1.255 . S
O17 Co0 2.021 . S
O17 C10 1.259 . S
O18 Co2 2.117 1_556 S
O18 C10 1.258 . S
O19 Co2 2.020 1_556 S
O19 C16 1.256 . S
O20 Co0 2.062 . S
O20 C16 1.255 . S
O21 C1 1.259 . S
O21 Co2 2.021 . S
H22 C13 0.932 . S
H23 C12 0.931 . S
O24 Co0 2.117 1_554 S
O24 C1 1.258 . S
O25 Co0 2.020 1_554 S
O25 C27 1.256 . S
O26 Co2 2.062 . S
O26 C27 1.255 . S
C27 O25 1.256 . S
C27 O26 1.255 . S
H28 C7 0.931 . S
H29 C15 0.931 . S
Co30 N35 2.057 . S
Co30 O47 2.021 . S
Co30 O50 2.062 . S
Co30 O54 2.117 . S
Co30 O55 2.020 . S
C31 O51 1.259 . S
C31 O54 1.258 . S
Co32 N41 2.057 . S
Co32 O48 2.117 . S
Co32 O49 2.020 . S
Co32 O51 2.021 . S
Co32 O56 2.062 . S
C33 N35 1.316 . S
C33 N36 1.347 . S
C33 H38 0.931 . S
C34 N35 1.375 . S
C34 C37 1.350 . S
C34 H39 0.930 . S
N35 Co30 2.057 . S
N35 C33 1.316 . S
N35 C34 1.375 . S
N36 C33 1.347 . S
N36 C37 1.373 . S
C37 C34 1.350 . S
C37 N36 1.373 . S
C37 H58 0.931 . S
H38 C33 0.931 . S
H39 C34 0.930 . S
C40 O47 1.259 . S
C40 O48 1.258 . S
N41 Co32 2.057 . S
N41 C42 1.316 . S
N41 C43 1.375 . S
C42 N41 1.316 . S
C42 N44 1.347 . S
C42 H53 0.931 . S
C43 N41 1.375 . S
C43 C45 1.350 . S
C43 H52 0.930 . S
N44 C42 1.347 . S
N44 C45 1.373 . S
C45 C43 1.350 . S
C45 N44 1.373 . S
C45 H59 0.931 . S
C46 O49 1.256 . S
C46 O50 1.255 . S
O47 Co30 2.021 . S
O47 C40 1.259 . S
O48 Co32 2.117 . S
O48 C40 1.258 . S
O49 Co32 2.020 . S
O49 C46 1.256 . S
O50 Co30 2.062 . S
O50 C46 1.255 . S
O51 C31 1.259 . S
O51 Co32 2.021 . S
H52 C43 0.930 . S
H53 C42 0.931 . S
O54 Co30 2.117 . S
O54 C31 1.258 . S
O55 Co30 2.020 . S
O55 C57 1.256 . S
O56 Co32 2.062 . S
O56 C57 1.255 . S
C57 O55 1.256 . S
C57 O56 1.255 . S
H58 C37 0.931 . S
H59 C45 0.931 . S
Co60 N65 2.057 . S
Co60 O77 2.021 . S
Co60 O80 2.062 . S
Co60 O84 2.117 . S
Co60 O85 2.020 . S
C61 O81 1.259 . S
C61 O84 1.258 . S
Co62 N71 2.057 . S
Co62 O78 2.117 . S
Co62 O79 2.020 . S
Co62 O81 2.021 . S
Co62 O86 2.062 . S
C63 N65 1.316 . S
C63 N66 1.347 . S
C63 H68 0.931 . S
C64 N65 1.375 . S
C64 C67 1.350 . S
C64 H69 0.930 . S
N65 Co60 2.057 . S
N65 C63 1.316 . S
N65 C64 1.375 . S
N66 C63 1.347 . S
N66 C67 1.373 . S
C67 C64 1.350 . S
C67 N66 1.373 . S
C67 H88 0.931 . S
H68 C63 0.931 . S
H69 C64 0.930 . S
C70 O77 1.259 . S
C70 O78 1.258 . S
N71 Co62 2.057 . S
N71 C72 1.316 . S
N71 C73 1.375 . S
C72 N71 1.316 . S
C72 N74 1.347 . S
C72 H83 0.931 . S
C73 N71 1.375 . S
C73 C75 1.350 . S
C73 H82 0.930 . S
N74 C72 1.347 . S
N74 C75 1.373 . S
C75 C73 1.350 . S
C75 N74 1.373 . S
C75 H89 0.931 . S
C76 O79 1.256 . S
C76 O80 1.255 . S
O77 Co60 2.021 . S
O77 C70 1.259 . S
O78 Co62 2.117 . S
O78 C70 1.258 . S
O79 Co62 2.020 . S
O79 C76 1.256 . S
O80 Co60 2.062 . S
O80 C76 1.255 . S
O81 C61 1.259 . S
O81 Co62 2.021 . S
H82 C73 0.930 . S
H83 C72 0.931 . S
O84 Co60 2.117 . S
O84 C61 1.258 . S
O85 Co60 2.020 . S
O85 C87 1.256 . S
O86 Co62 2.062 . S
O86 C87 1.255 . S
C87 O85 1.256 . S
C87 O86 1.255 . S
H88 C67 0.931 . S
H89 C75 0.931 . S
Co90 N95 2.057 . S
Co90 O107 2.021 . S
Co90 O110 2.062 . S
Co90 O114 2.117 . S
Co90 O115 2.020 . S
C91 O111 1.259 . S
C91 O114 1.258 . S
Co92 N101 2.057 . S
Co92 O108 2.117 . S
Co92 O109 2.020 . S
Co92 O111 2.021 . S
Co92 O116 2.062 . S
C93 N95 1.316 . S
C93 N96 1.347 . S
C93 H98 0.931 . S
C94 N95 1.375 . S
C94 C97 1.350 . S
C94 H99 0.930 . S
N95 Co90 2.057 . S
N95 C93 1.316 . S
N95 C94 1.375 . S
N96 C93 1.347 . S
N96 C97 1.373 . S
C97 C94 1.350 . S
C97 N96 1.373 . S
C97 H118 0.931 . S
H98 C93 0.931 . S
H99 C94 0.930 . S
C100 O107 1.259 . S
C100 O108 1.258 . S
N101 Co92 2.057 . S
N101 C102 1.316 . S
N101 C103 1.375 . S
C102 N101 1.316 . S
C102 N104 1.347 . S
C102 H113 0.931 . S
C103 N101 1.375 . S
C103 C105 1.350 . S
C103 H112 0.930 . S
N104 C102 1.347 . S
N104 C105 1.373 . S
C105 C103 1.350 . S
C105 N104 1.373 . S
C105 H119 0.931 . S
C106 O109 1.256 . S
C106 O110 1.255 . S
O107 Co90 2.021 . S
O107 C100 1.259 . S
O108 Co92 2.117 . S
O108 C100 1.258 . S
O109 Co92 2.020 . S
O109 C106 1.256 . S
O110 Co90 2.062 . S
O110 C106 1.255 . S
O111 C91 1.259 . S
O111 Co92 2.021 . S
H112 C103 0.930 . S
H113 C102 0.931 . S
O114 Co90 2.117 . S
O114 C91 1.258 . S
O115 Co90 2.020 . S
O115 C117 1.256 . S
O116 Co92 2.062 . S
O116 C117 1.255 . S
C117 O115 1.256 . S
C117 O116 1.255 . S
H118 C97 0.931 . S
H119 C105 0.931 . S
Co120 N125 2.057 . S
Co120 O137 2.021 . S
Co120 O140 2.062 . S
Co120 O144 2.117 . S
Co120 O145 2.020 . S
C121 O141 1.259 . S
C121 O144 1.258 . S
Co122 N131 2.057 . S
Co122 O138 2.117 . S
Co122 O139 2.020 . S
Co122 O141 2.021 . S
Co122 O146 2.062 . S
C123 N125 1.316 . S
C123 N126 1.347 . S
C123 H128 0.931 . S
C124 N125 1.375 . S
C124 C127 1.350 . S
C124 H129 0.930 . S
N125 Co120 2.057 . S
N125 C123 1.316 . S
N125 C124 1.375 . S
N126 C123 1.347 . S
N126 C127 1.373 . S
C127 C124 1.350 . S
C127 N126 1.373 . S
C127 H148 0.931 . S
H128 C123 0.931 . S
H129 C124 0.930 . S
C130 O137 1.259 . S
C130 O138 1.258 . S
N131 Co122 2.057 . S
N131 C132 1.316 . S
N131 C133 1.375 . S
C132 N131 1.316 . S
C132 N134 1.347 . S
C132 H143 0.931 . S
C133 N131 1.375 . S
C133 C135 1.350 . S
C133 H142 0.930 . S
N134 C132 1.347 . S
N134 C135 1.373 . S
C135 C133 1.350 . S
C135 N134 1.373 . S
C135 H149 0.931 . S
C136 O139 1.256 . S
C136 O140 1.255 . S
O137 Co120 2.021 . S
O137 C130 1.259 . S
O138 Co122 2.117 . S
O138 C130 1.258 . S
O139 Co122 2.020 . S
O139 C136 1.256 . S
O140 Co120 2.062 . S
O140 C136 1.255 . S
O141 C121 1.259 . S
O141 Co122 2.021 . S
H142 C133 0.930 . S
H143 C132 0.931 . S
O144 Co120 2.117 . S
O144 C121 1.258 . S
O145 Co120 2.020 . S
O145 C147 1.256 . S
O146 Co122 2.062 . S
O146 C147 1.255 . S
C147 O145 1.256 . S
C147 O146 1.255 . S
H148 C127 0.931 . S
H149 C135 0.931 . S
Co150 N155 2.057 . S
Co150 O167 2.021 . S
Co150 O170 2.062 . S
Co150 O174 2.117 . S
Co150 O175 2.020 . S
C151 O171 1.259 . S
C151 O174 1.258 . S
Co152 N161 2.057 . S
Co152 O168 2.117 . S
Co152 O169 2.020 . S
Co152 O171 2.021 . S
Co152 O176 2.062 . S
C153 N155 1.316 . S
C153 N156 1.347 . S
C153 H158 0.931 . S
C154 N155 1.375 . S
C154 C157 1.350 . S
C154 H159 0.930 . S
N155 Co150 2.057 . S
N155 C153 1.316 . S
N155 C154 1.375 . S
N156 C153 1.347 . S
N156 C157 1.373 . S
C157 C154 1.350 . S
C157 N156 1.373 . S
C157 H178 0.931 . S
H158 C153 0.931 . S
H159 C154 0.930 . S
C160 O167 1.259 . S
C160 O168 1.258 . S
N161 Co152 2.057 . S
N161 C162 1.316 . S
N161 C163 1.375 . S
C162 N161 1.316 . S
C162 N164 1.347 . S
C162 H173 0.931 . S
C163 N161 1.375 . S
C163 C165 1.350 . S
C163 H172 0.930 . S
N164 C162 1.347 . S
N164 C165 1.373 . S
C165 C163 1.350 . S
C165 N164 1.373 . S
C165 H179 0.931 . S
C166 O169 1.256 . S
C166 O170 1.255 . S
O167 Co150 2.021 . S
O167 C160 1.259 . S
O168 Co152 2.117 . S
O168 C160 1.258 . S
O169 Co152 2.020 . S
O169 C166 1.256 . S
O170 Co150 2.062 . S
O170 C166 1.255 . S
O171 C151 1.259 . S
O171 Co152 2.021 . S
H172 C163 0.930 . S
H173 C162 0.931 . S
O174 Co150 2.117 . S
O174 C151 1.258 . S
O175 Co150 2.020 . S
O175 C177 1.256 . S
O176 Co152 2.062 . S
O176 C177 1.255 . S
C177 O175 1.256 . S
C177 O176 1.255 . S
H178 C157 0.931 . S
H179 C165 0.931 . S
C180 C181 1.386 . S
C180 C182 1.383 . S
C180 H196 0.951 . S
C181 C180 1.386 . S
C181 C185 1.383 . S
C182 C180 1.383 . S
C182 C183 1.402 . S
C182 H197 0.951 . S
C183 C182 1.402 . S
C183 C184 1.375 . S
C183 C186 1.481 . S
C184 C183 1.375 . S
C184 C185 1.367 . S
C184 H198 0.951 . S
C185 C181 1.383 . S
C185 C184 1.367 . S
C185 H199 0.950 . S
C186 C183 1.481 . S
C186 C187 1.297 . S
C186 H200 0.950 . S
C187 C186 1.297 . S
C187 C188 1.479 . S
C187 H201 0.950 . S
C188 C187 1.479 . S
C188 C189 1.375 . S
C188 C194 1.404 . S
C189 C188 1.375 . S
C189 C190 1.369 . S
C189 H202 0.950 . S
C190 C189 1.369 . S
C190 C191 1.392 . S
C190 H203 0.951 . S
C191 C190 1.392 . S
C191 C193 1.384 . S
H192 C194 0.949 . S
C193 C191 1.384 . S
C193 C194 1.385 . S
C193 H195 0.950 . S
C194 C188 1.404 . S
C194 H192 0.949 . S
C194 C193 1.385 . S
H195 C193 0.950 . S
H196 C180 0.951 . S
H197 C182 0.951 . S
H198 C184 0.951 . S
H199 C185 0.950 . S
H200 C186 0.950 . S
H201 C187 0.950 . S
H202 C189 0.950 . S
H203 C190 0.951 . S
C204 C205 1.386 . S
C204 C206 1.383 . S
C204 H220 0.951 . S
C205 C204 1.386 . S
C205 C209 1.383 . S
C206 C204 1.383 . S
C206 C207 1.402 . S
C206 H221 0.951 . S
C207 C206 1.402 . S
C207 C208 1.375 . S
C207 C210 1.481 . S
C208 C207 1.375 . S
C208 C209 1.367 . S
C208 H222 0.951 . S
C209 C205 1.383 . S
C209 C208 1.367 . S
C209 H223 0.950 . S
C210 C207 1.481 . S
C210 C211 1.297 . S
C210 H224 0.950 . S
C211 C210 1.297 . S
C211 C212 1.479 1_455 S
C211 H225 0.950 . S
C212 C211 1.479 1_655 S
C212 C213 1.375 . S
C212 C218 1.404 . S
C213 C212 1.375 . S
C213 C214 1.369 . S
C213 H226 0.950 . S
C214 C213 1.369 . S
C214 C215 1.392 . S
C214 H227 0.951 . S
C215 C214 1.392 . S
C215 C217 1.384 . S
H216 C218 0.948 1_455 S
C217 C215 1.384 . S
C217 C218 1.385 . S
C217 H219 0.950 . S
C218 C212 1.404 . S
C218 H216 0.948 1_655 S
C218 C217 1.385 . S
H219 C217 0.950 . S
H220 C204 0.951 . S
H221 C206 0.951 . S
H222 C208 0.951 . S
H223 C209 0.950 . S
H224 C210 0.950 . S
H225 C211 0.950 . S
H226 C213 0.950 . S
H227 C214 0.951 . S
C228 C229 1.386 . S
C228 C230 1.383 . S
C228 H244 0.951 . S
C229 C228 1.386 . S
C229 C233 1.383 . S
C230 C228 1.383 . S
C230 C231 1.402 . S
C230 H245 0.951 . S
C231 C230 1.402 . S
C231 C232 1.375 . S
C231 C234 1.481 . S
C232 C231 1.375 . S
C232 C233 1.367 . S
C232 H246 0.951 . S
C233 C229 1.383 . S
C233 C232 1.367 . S
C233 H247 0.950 . S
C234 C231 1.481 . S
C234 C235 1.297 . S
C234 H248 0.950 . S
C235 C234 1.297 . S
C235 C236 1.479 1_545 S
C235 H249 0.950 . S
C236 C235 1.479 1_565 S
C236 C237 1.375 . S
C236 C242 1.404 . S
C237 C236 1.375 . S
C237 C238 1.369 . S
C237 H250 0.950 . S
C238 C237 1.369 . S
C238 C239 1.392 . S
C238 H251 0.951 . S
C239 C238 1.392 . S
C239 C241 1.384 . S
H240 C242 0.949 . S
C241 C239 1.384 . S
C241 C242 1.385 . S
C241 H243 0.950 . S
C242 C236 1.404 . S
C242 H240 0.949 . S
C242 C241 1.385 . S
H243 C241 0.950 . S
H244 C228 0.951 . S
H245 C230 0.951 . S
H246 C232 0.951 . S
H247 C233 0.950 . S
H248 C234 0.950 . S
H249 C235 0.950 . S
H250 C237 0.950 . S
H251 C238 0.951 . S
C252 C253 1.386 . S
C252 C254 1.383 . S
C252 H268 0.951 . S
C253 C252 1.386 . S
C253 C257 1.383 . S
C254 C252 1.383 . S
C254 C255 1.402 . S
C254 H269 0.951 . S
C255 C254 1.402 . S
C255 C256 1.375 . S
C255 C258 1.481 . S
C256 C255 1.375 . S
C256 C257 1.367 . S
C256 H270 0.951 . S
C257 C253 1.383 . S
C257 C256 1.367 . S
C257 H271 0.950 . S
C258 C255 1.481 . S
C258 C259 1.297 . S
C258 H272 0.950 . S
C259 C258 1.297 . S
C259 C260 1.479 1_556 S
C259 H273 0.956 . S
C260 C259 1.479 1_554 S
C260 C261 1.375 . S
C260 C266 1.404 1_554 S
C261 C260 1.375 . S
C261 C262 1.369 . S
C261 H274 0.950 . S
C262 C261 1.369 . S
C262 C263 1.392 . S
C262 H275 0.951 . S
C263 C262 1.392 . S
C263 C265 1.384 . S
H264 C266 0.949 . S
C265 C263 1.384 . S
C265 C266 1.385 1_554 S
C265 H267 0.950 1_554 S
C266 C260 1.404 1_556 S
C266 H264 0.949 . S
C266 C265 1.385 1_556 S
H267 C265 0.950 1_556 S
H268 C252 0.951 . S
H269 C254 0.951 . S
H270 C256 0.951 . S
H271 C257 0.950 . S
H272 C258 0.950 . S
H273 C259 0.956 . S
H274 C261 0.950 . S
H275 C262 0.951 . S
C276 C277 1.386 . S
C276 C278 1.383 . S
C276 H292 0.951 . S
C277 C276 1.386 . S
C277 C281 1.383 . S
C278 C276 1.383 . S
C278 C279 1.402 . S
C278 H293 0.951 . S
C279 C278 1.402 . S
C279 C280 1.375 . S
C279 C282 1.481 . S
C280 C279 1.375 . S
C280 C281 1.367 . S
C280 H294 0.951 . S
C281 C277 1.383 . S
C281 C280 1.367 . S
C281 H295 0.950 . S
C282 C279 1.481 . S
C282 C283 1.297 . S
C282 H296 0.950 . S
C283 C282 1.297 . S
C283 C284 1.479 1_455 S
C283 H297 0.950 . S
C284 C283 1.479 1_655 S
C284 C285 1.375 . S
C284 C290 1.404 . S
C285 C284 1.375 . S
C285 C286 1.369 . S
C285 H298 0.950 . S
C286 C285 1.369 . S
C286 C287 1.392 . S
C286 H299 0.951 . S
C287 C286 1.392 . S
C287 C289 1.384 . S
H288 C290 0.949 . S
C289 C287 1.384 . S
C289 C290 1.385 . S
C289 H291 0.950 . S
C290 C284 1.404 . S
C290 H288 0.949 . S
C290 C289 1.385 . S
H291 C289 0.950 . S
H292 C276 0.951 . S
H293 C278 0.951 . S
H294 C280 0.951 . S
H295 C281 0.950 . S
H296 C282 0.950 . S
H297 C283 0.950 . S
H298 C285 0.950 . S
H299 C286 0.951 . S
C300 C301 1.386 . S
C300 C302 1.383 . S
C300 H316 0.951 . S
C301 C300 1.386 . S
C301 C305 1.383 . S
C302 C300 1.383 . S
C302 C303 1.402 . S
C302 H317 0.951 . S
C303 C302 1.402 . S
C303 C304 1.375 . S
C303 C306 1.481 . S
C304 C303 1.375 . S
C304 C305 1.367 . S
C304 H318 0.951 . S
C305 C301 1.383 . S
C305 C304 1.367 . S
C305 H319 0.950 . S
C306 C303 1.481 . S
C306 C307 1.297 . S
C306 H320 0.950 . S
C307 C306 1.297 . S
C307 C308 1.479 1_545 S
C307 H321 0.950 . S
C308 C307 1.479 1_565 S
C308 C309 1.375 . S
C308 C314 1.404 . S
C309 C308 1.375 . S
C309 C310 1.369 . S
C309 H322 0.950 . S
C310 C309 1.369 . S
C310 C311 1.392 . S
C310 H323 0.951 . S
C311 C310 1.392 . S
C311 C313 1.384 . S
H312 C314 0.964 . S
C313 C311 1.384 . S
C313 C314 1.385 . S
C313 H315 0.950 . S
C314 C308 1.404 . S
C314 H312 0.964 . S
C314 C313 1.385 . S
H315 C313 0.950 . S
H316 C300 0.951 . S
H317 C302 0.951 . S
H318 C304 0.951 . S
H319 C305 0.950 . S
H320 C306 0.950 . S
H321 C307 0.950 . S
H322 C309 0.950 . S
H323 C310 0.951 . S
C324 C325 1.386 . S
C324 C326 1.383 . S
C324 H340 0.951 . S
C325 C324 1.386 . S
C325 C329 1.383 . S
C326 C324 1.383 . S
C326 C327 1.402 . S
C326 H341 0.951 . S
C327 C326 1.402 . S
C327 C328 1.375 . S
C327 C330 1.481 . S
C328 C327 1.375 . S
C328 C329 1.367 . S
C328 H342 0.951 . S
C329 C325 1.383 . S
C329 C328 1.367 . S
C329 H343 0.950 . S
C330 C327 1.481 . S
C330 C331 1.297 . S
C330 H344 0.950 . S
C331 C330 1.297 . S
C331 C332 1.479 . S
C331 H345 0.950 . S
C332 C331 1.479 . S
C332 C333 1.375 . S
C332 C338 1.404 . S
C333 C332 1.375 . S
C333 C334 1.369 . S
C333 H346 0.950 . S
C334 C333 1.369 . S
C334 C335 1.392 . S
C334 H347 0.951 . S
C335 C334 1.392 . S
C335 C337 1.384 . S
H336 C338 0.949 . S
C337 C335 1.384 . S
C337 C338 1.385 . S
C337 H339 0.950 . S
C338 C332 1.404 . S
C338 H336 0.949 . S
C338 C337 1.385 . S
H339 C337 0.950 . S
H340 C324 0.951 . S
H341 C326 0.951 . S
H342 C328 0.951 . S
H343 C329 0.950 . S
H344 C330 0.950 . S
H345 C331 0.950 . S
H346 C333 0.950 . S
H347 C334 0.951 . S
C348 C349 1.386 . S
C348 C350 1.383 . S
C348 H364 0.951 . S
C349 C348 1.386 . S
C349 C353 1.383 . S
C350 C348 1.383 . S
C350 C351 1.402 . S
C350 H365 0.951 . S
C351 C350 1.402 . S
C351 C352 1.375 . S
C351 C354 1.481 . S
C352 C351 1.375 . S
C352 C353 1.367 . S
C352 H366 0.951 . S
C353 C349 1.383 . S
C353 C352 1.367 . S
C353 H367 0.950 . S
C354 C351 1.481 . S
C354 C355 1.297 1_554 S
C354 H368 0.950 . S
C355 C354 1.297 1_556 S
C355 C356 1.479 . S
C355 H369 0.950 . S
C356 C355 1.479 . S
C356 C357 1.375 . S
C356 C362 1.404 . S
C357 C356 1.375 . S
C357 C358 1.369 . S
C357 H370 0.950 . S
C358 C357 1.369 . S
C358 C359 1.392 . S
C358 H371 0.951 . S
C359 C358 1.392 . S
C359 C361 1.384 . S
H360 C362 0.949 . S
C361 C359 1.384 . S
C361 C362 1.385 . S
C361 H363 0.950 . S
C362 C356 1.404 . S
C362 H360 0.949 . S
C362 C361 1.385 . S
H363 C361 0.950 . S
H364 C348 0.951 . S
H365 C350 0.951 . S
H366 C352 0.951 . S
H367 C353 0.950 . S
H368 C354 0.950 . S
H369 C355 0.950 . S
H370 C357 0.950 . S
H371 C358 0.951 . S
C372 C373 1.386 . S
C372 C374 1.383 . S
C372 H388 0.951 . S
C373 C372 1.386 . S
C373 C377 1.383 . S
C374 C372 1.383 . S
C374 C375 1.402 . S
C374 H389 0.951 . S
C375 C374 1.402 . S
C375 C376 1.375 . S
C375 C378 1.481 . S
C376 C375 1.375 . S
C376 C377 1.367 . S
C376 H390 0.951 . S
C377 C373 1.383 . S
C377 C376 1.367 . S
C377 H391 0.950 . S
C378 C375 1.481 . S
C378 C379 1.297 . S
C378 H392 0.950 . S
C379 C378 1.297 . S
C379 C380 1.479 . S
C379 H393 0.950 . S
C380 C379 1.479 . S
C380 C381 1.375 . S
C380 C386 1.404 . S
C381 C380 1.375 . S
C381 C382 1.369 1_554 S
C381 H394 0.950 . S
C382 C381 1.369 1_556 S
C382 C383 1.392 . S
C382 H395 0.951 . S
C383 C382 1.392 . S
C383 C385 1.384 . S
H384 C386 0.949 . S
C385 C383 1.384 . S
C385 C386 1.385 1_556 S
C385 H387 0.950 . S
C386 C380 1.404 . S
C386 H384 0.949 . S
C386 C385 1.385 1_554 S
H387 C385 0.950 . S
H388 C372 0.951 . S
H389 C374 0.951 . S
H390 C376 0.951 . S
H391 C377 0.950 . S
H392 C378 0.950 . S
H393 C379 0.950 . S
H394 C381 0.950 . S
H395 C382 0.951 . S
C396 C397 1.386 . S
C396 C398 1.383 . S
C396 H412 0.951 . S
C397 C396 1.386 . S
C397 C401 1.383 . S
C398 C396 1.383 . S
C398 C399 1.402 . S
C398 H413 0.951 . S
C399 C398 1.402 . S
C399 C400 1.375 . S
C399 C402 1.481 . S
C400 C399 1.375 . S
C400 C401 1.367 . S
C400 H414 0.951 . S
C401 C397 1.383 . S
C401 C400 1.367 . S
C401 H415 0.950 . S
C402 C399 1.481 . S
C402 C403 1.297 . S
C402 H416 0.950 . S
C403 C402 1.297 . S
C403 C404 1.479 . S
C403 H417 0.950 . S
C404 C403 1.479 . S
C404 C405 1.375 . S
C404 C410 1.404 . S
C405 C404 1.375 . S
C405 C406 1.369 . S
C405 H418 0.950 . S
C406 C405 1.369 . S
C406 C407 1.392 . S
C406 H419 0.951 . S
C407 C406 1.392 . S
C407 C409 1.384 . S
H408 C410 0.949 . S
C409 C407 1.384 . S
C409 C410 1.385 . S
C409 H411 0.950 . S
C410 C404 1.404 . S
C410 H408 0.949 . S
C410 C409 1.385 . S
H411 C409 0.950 . S
H412 C396 0.951 . S
H413 C398 0.951 . S
H414 C400 0.951 . S
H415 C401 0.950 . S
H416 C402 0.950 . S
H417 C403 0.950 . S
H418 C405 0.950 . S
H419 C406 0.951 . S
C420 C421 1.386 . S
C420 C422 1.383 . S
C420 H436 0.951 . S
C421 C420 1.386 . S
C421 C425 1.383 . S
C422 C420 1.383 . S
C422 C423 1.402 . S
C422 H437 0.951 . S
C423 C422 1.402 . S
C423 C424 1.375 . S
C423 C426 1.481 . S
C424 C423 1.375 . S
C424 C425 1.367 . S
C424 H438 0.951 . S
C425 C421 1.383 . S
C425 C424 1.367 . S
C425 H439 0.950 . S
C426 C423 1.481 . S
C426 C427 1.297 . S
C426 H440 0.950 . S
C427 C426 1.297 . S
C427 C428 1.479 . S
C427 H441 0.950 . S
C428 C427 1.479 . S
C428 C429 1.375 . S
C428 C434 1.404 . S
C429 C428 1.375 . S
C429 C430 1.369 1_556 S
C429 H442 0.950 . S
C430 C429 1.369 1_554 S
C430 C431 1.392 . S
C430 H443 0.951 . S
C431 C430 1.392 . S
C431 C433 1.384 . S
H432 C434 0.949 . S
C433 C431 1.384 . S
C433 C434 1.385 1_554 S
C433 H435 0.950 . S
C434 C428 1.404 . S
C434 H432 0.949 . S
C434 C433 1.385 1_556 S
H435 C433 0.950 . S
H436 C420 0.951 . S
H437 C422 0.951 . S
H438 C424 0.951 . S
H439 C425 0.950 . S
H440 C426 0.950 . S
H441 C427 0.950 . S
H442 C429 0.950 . S
H443 C430 0.951 . S
C444 C445 1.386 . S
C444 C446 1.383 . S
C444 H460 0.951 . S
C445 C444 1.386 . S
C445 C449 1.383 . S
C446 C444 1.383 . S
C446 C447 1.402 . S
C446 H461 0.951 . S
C447 C446 1.402 . S
C447 C448 1.375 . S
C447 C450 1.481 . S
C448 C447 1.375 . S
C448 C449 1.367 . S
C448 H462 0.951 . S
C449 C445 1.383 . S
C449 C448 1.367 . S
C449 H463 0.950 . S
C450 C447 1.481 . S
C450 C451 1.297 . S
C450 H464 0.950 . S
C451 C450 1.297 . S
C451 C452 1.479 . S
C451 H465 0.950 . S
C452 C451 1.479 . S
C452 C453 1.375 . S
C452 C458 1.404 . S
C453 C452 1.375 . S
C453 C454 1.369 . S
C453 H466 0.950 . S
C454 C453 1.369 . S
C454 C455 1.392 . S
C454 H467 0.951 . S
C455 C454 1.392 . S
C455 C457 1.384 . S
H456 C458 0.949 . S
C457 C455 1.384 . S
C457 C458 1.385 . S
C457 H459 0.950 . S
C458 C452 1.404 . S
C458 H456 0.949 . S
C458 C457 1.385 . S
H459 C457 0.950 . S
H460 C444 0.951 . S
H461 C446 0.951 . S
H462 C448 0.951 . S
H463 C449 0.950 . S
H464 C450 0.950 . S
H465 C451 0.950 . S
H466 C453 0.950 . S
H467 C454 0.951 . S
C468 C469 1.386 . S
C468 C470 1.383 . S
C468 H484 0.951 1_554 S
C469 C468 1.386 . S
C469 C473 1.383 . S
C470 C468 1.383 . S
C470 C471 1.402 . S
C470 H485 0.951 . S
C471 C470 1.402 . S
C471 C472 1.375 . S
C471 C474 1.481 . S
C472 C471 1.375 . S
C472 C473 1.367 . S
C472 H486 0.951 . S
C473 C469 1.383 . S
C473 C472 1.367 . S
C473 H487 0.950 . S
C474 C471 1.481 . S
C474 C475 1.297 . S
C474 H488 0.950 . S
C475 C474 1.297 . S
C475 C476 1.479 . S
C475 H489 0.950 . S
C476 C475 1.479 . S
C476 C477 1.375 . S
C476 C482 1.404 . S
C477 C476 1.375 . S
C477 C478 1.369 . S
C477 H490 0.950 . S
C478 C477 1.369 . S
C478 C479 1.392 . S
C478 H491 0.951 . S
C479 C478 1.392 . S
C479 C481 1.384 . S
H480 C482 0.949 . S
C481 C479 1.384 . S
C481 C482 1.385 . S
C481 H483 0.950 . S
C482 C476 1.404 . S
C482 H480 0.949 . S
C482 C481 1.385 . S
H483 C481 0.950 . S
H484 C468 0.951 1_556 S
H485 C470 0.951 . S
H486 C472 0.951 . S
H487 C473 0.950 . S
H488 C474 0.950 . S
H489 C475 0.950 . S
H490 C477 0.950 . S
H491 C478 0.951 . S
C492 C493 1.386 . S
C492 C494 1.383 . S
C492 H508 0.951 . S
C493 C492 1.386 . S
C493 C497 1.383 . S
C494 C492 1.383 . S
C494 C495 1.402 . S
C494 H509 0.951 . S
C495 C494 1.402 . S
C495 C496 1.375 . S
C495 C498 1.481 . S
C496 C495 1.375 . S
C496 C497 1.367 . S
C496 H510 0.951 . S
C497 C493 1.383 . S
C497 C496 1.367 . S
C497 H511 0.950 . S
C498 C495 1.481 . S
C498 C499 1.297 . S
C498 H512 0.950 . S
C499 C498 1.297 . S
C499 C500 1.479 . S
C499 H513 0.950 . S
C500 C499 1.479 . S
C500 C501 1.375 . S
C500 C506 1.404 . S
C501 C500 1.375 . S
C501 C502 1.369 . S
C501 H514 0.950 . S
C502 C501 1.369 . S
C502 C503 1.392 . S
C502 H515 0.951 . S
C503 C502 1.392 . S
C503 C505 1.384 . S
H504 C506 0.949 . S
C505 C503 1.384 . S
C505 C506 1.385 . S
C505 H507 0.950 . S
C506 C500 1.404 . S
C506 H504 0.949 . S
C506 C505 1.385 . S
H507 C505 0.950 . S
H508 C492 0.951 . S
H509 C494 0.951 . S
H510 C496 0.951 . S
H511 C497 0.950 . S
H512 C498 0.950 . S
H513 C499 0.950 . S
H514 C501 0.950 . S
H515 C502 0.951 . S
C516 C517 1.386 . S
C516 C518 1.383 . S
C516 H532 0.951 . S
C517 C516 1.386 . S
C517 C521 1.383 . S
C518 C516 1.383 . S
C518 C519 1.402 . S
C518 H533 0.951 . S
C519 C518 1.402 . S
C519 C520 1.375 . S
C519 C522 1.481 . S
C520 C519 1.375 . S
C520 C521 1.367 . S
C520 H534 0.951 . S
C521 C517 1.383 . S
C521 C520 1.367 . S
C521 H535 0.950 . S
C522 C519 1.481 . S
C522 C523 1.297 . S
C522 H536 0.950 . S
C523 C522 1.297 . S
C523 C524 1.479 . S
C523 H537 0.950 . S
C524 C523 1.479 . S
C524 C525 1.375 . S
C524 C530 1.404 . S
C525 C524 1.375 . S
C525 C526 1.369 . S
C525 H538 0.950 . S
C526 C525 1.369 . S
C526 C527 1.392 . S
C526 H539 0.951 . S
C527 C526 1.392 . S
C527 C529 1.384 . S
H528 C530 0.949 . S
C529 C527 1.384 . S
C529 C530 1.385 . S
C529 H531 0.950 . S
C530 C524 1.404 . S
C530 H528 0.949 . S
C530 C529 1.385 . S
H531 C529 0.950 . S
H532 C516 0.951 . S
H533 C518 0.951 . S
H534 C520 0.951 . S
H535 C521 0.950 . S
H536 C522 0.950 . S
H537 C523 0.950 . S
H538 C525 0.950 . S
H539 C526 0.951 . S
C540 C541 1.386 . S
C540 C542 1.383 . S
C540 H556 0.951 . S
C541 C540 1.386 . S
C541 C545 1.383 . S
C542 C540 1.383 . S
C542 C543 1.402 . S
C542 H557 0.951 . S
C543 C542 1.402 . S
C543 C544 1.375 . S
C543 C546 1.481 . S
C544 C543 1.375 . S
C544 C545 1.367 . S
C544 H558 0.951 . S
C545 C541 1.383 . S
C545 C544 1.367 . S
C545 H559 0.950 . S
C546 C543 1.481 . S
C546 C547 1.297 . S
C546 H560 0.950 . S
C547 C546 1.297 . S
C547 C548 1.479 . S
C547 H561 0.950 . S
C548 C547 1.479 . S
C548 C549 1.375 . S
C548 C554 1.404 . S
C549 C548 1.375 . S
C549 C550 1.369 . S
C549 H562 0.950 . S
C550 C549 1.369 . S
C550 C551 1.392 . S
C550 H563 0.951 . S
C551 C550 1.392 . S
C551 C553 1.384 . S
H552 C554 0.949 . S
C553 C551 1.384 . S
C553 C554 1.385 . S
C553 H555 0.950 . S
C554 C548 1.404 . S
C554 H552 0.949 . S
C554 C553 1.385 . S
H555 C553 0.950 . S
H556 C540 0.951 . S
H557 C542 0.951 . S
H558 C544 0.951 . S
H559 C545 0.950 . S
H560 C546 0.950 . S
H561 C547 0.950 . S
H562 C549 0.950 . S
H563 C550 0.951 . S
C564 C565 1.386 . S
C564 C566 1.383 . S
C564 H580 0.951 . S
C565 C564 1.386 . S
C565 C569 1.383 . S
C566 C564 1.383 . S
C566 C567 1.402 . S
C566 H581 0.951 . S
C567 C566 1.402 . S
C567 C568 1.375 . S
C567 C570 1.481 . S
C568 C567 1.375 . S
C568 C569 1.367 . S
C568 H582 0.951 . S
C569 C565 1.383 . S
C569 C568 1.367 . S
C569 H583 0.950 . S
C570 C567 1.481 . S
C570 C571 1.297 . S
C570 H584 0.950 . S
C571 C570 1.297 . S
C571 C572 1.479 . S
C571 H585 0.950 . S
C572 C571 1.479 . S
C572 C573 1.375 . S
C572 C578 1.404 . S
C573 C572 1.375 . S
C573 C574 1.369 . S
C573 H586 0.950 . S
C574 C573 1.369 . S
C574 C575 1.392 . S
C574 H587 0.951 . S
C575 C574 1.392 . S
C575 C577 1.384 . S
H576 C578 0.949 . S
C577 C575 1.384 . S
C577 C578 1.385 . S
C577 H579 0.950 . S
C578 C572 1.404 . S
C578 H576 0.949 . S
C578 C577 1.385 . S
H579 C577 0.950 . S
H580 C564 0.951 . S
H581 C566 0.951 . S
H582 C568 0.951 . S
H583 C569 0.950 . S
H584 C570 0.950 . S
H585 C571 0.950 . S
H586 C573 0.950 . S
H587 C574 0.951 . S
C588 C589 1.386 . S
C588 C590 1.383 . S
C588 H604 0.951 . S
C589 C588 1.386 . S
C589 C593 1.383 . S
C590 C588 1.383 . S
C590 C591 1.402 . S
C590 H605 0.951 . S
C591 C590 1.402 . S
C591 C592 1.375 . S
C591 C594 1.481 . S
C592 C591 1.375 . S
C592 C593 1.367 . S
C592 H606 0.951 . S
C593 C589 1.383 . S
C593 C592 1.367 . S
C593 H607 0.950 . S
C594 C591 1.481 . S
C594 C595 1.297 1_554 S
C594 H608 0.950 . S
C595 C594 1.297 1_556 S
C595 C596 1.479 . S
C595 H609 0.950 . S
C596 C595 1.479 . S
C596 C597 1.375 . S
C596 C602 1.403 1_556 S
C597 C596 1.375 . S
C597 C598 1.369 . S
C597 H610 0.950 . S
C598 C597 1.369 . S
C598 C599 1.392 . S
C598 H611 0.951 . S
C599 C598 1.392 . S
C599 C601 1.384 . S
H600 C602 0.950 . S
C601 C599 1.384 . S
C601 C602 1.384 1_556 S
C601 H603 0.950 1_556 S
C602 C596 1.403 1_554 S
C602 H600 0.950 . S
C602 C601 1.384 1_554 S
H603 C601 0.950 1_554 S
H604 C588 0.951 . S
H605 C590 0.951 . S
H606 C592 0.951 . S
H607 C593 0.950 . S
H608 C594 0.950 . S
H609 C595 0.950 . S
H610 C597 0.950 . S
H611 C598 0.951 . S
C181 C160 1.565 . S
C191 C10 1.565 . S
C205 N14 1.435 . S
C215 N44 1.422 . S
C229 C40 1.582 . S
C239 C70 1.596 . S
C253 N74 1.440 . S
C263 N104 1.435 . S
C277 C130 1.563 . S
C287 C100 1.543 . S
C301 N164 1.431 . S
C311 N134 1.420 . S
C325 C16 0.916 . S
C335 C27 0.958 . S
C349 C57 0.920 . S
C359 C46 0.931 . S
C373 C76 0.955 . S
C383 C87 0.905 . S
C397 C117 0.932 1_556 S
C407 C106 0.965 . S
C421 C147 0.952 . S
C431 C136 0.900 . S
C445 C177 0.952 . S
C455 C166 0.900 1_554 S
C469 C1 1.566 . S
C479 N126 1.512 . S
C493 N36 1.477 . S
C503 C151 1.554 . S
C517 N6 1.497 . S
C527 C61 1.557 . S
C541 C31 1.569 . S
C551 N96 1.513 . S
C565 C121 1.574 . S
C575 N66 1.408 . S
C589 C91 1.576 . S
C599 N156 1.397 . S
