# Generated by pormake.
# Topology ecd, (8)-cn, num edge types: 1
# Building blocks:
#     Node 0, Type 0, BuildingBlock: TAGTUT_clean_sbu_3, # of connection points: 8
#     Node 1, Type 0, BuildingBlock: TAGTUT_clean_sbu_3, # of connection points: 8
#     Node 2, Type 0, BuildingBlock: TAGTUT_clean_sbu_3, # of connection points: 8
#     Node 3, Type 0, BuildingBlock: TAGTUT_clean_sbu_3, # of connection points: 8
#     Node 4, Type 0, BuildingBlock: TAGTUT_clean_sbu_3, # of connection points: 8
#     Node 5, Type 0, BuildingBlock: TAGTUT_clean_sbu_3, # of connection points: 8
#     Node 6, Type 0, BuildingBlock: TAGTUT_clean_sbu_3, # of connection points: 8
#     Node 7, Type 0, BuildingBlock: TAGTUT_clean_sbu_3, # of connection points: 8
#     Node 8, Type 0, BuildingBlock: TAGTUT_clean_sbu_3, # of connection points: 8
#     Node 9, Type 0, BuildingBlock: TAGTUT_clean_sbu_3, # of connection points: 8
#     Node 10, Type 0, BuildingBlock: TAGTUT_clean_sbu_3, # of connection points: 8
#     Node 11, Type 0, BuildingBlock: TAGTUT_clean_sbu_3, # of connection points: 8
#     Node 12, Type 0, BuildingBlock: TAGTUT_clean_sbu_3, # of connection points: 8
#     Node 13, Type 0, BuildingBlock: TAGTUT_clean_sbu_3, # of connection points: 8
#     Node 14, Type 0, BuildingBlock: TAGTUT_clean_sbu_3, # of connection points: 8
#     Node 15, Type 0, BuildingBlock: TAGTUT_clean_sbu_3, # of connection points: 8
#     Node 16, Type 0, BuildingBlock: TAGTUT_clean_sbu_3, # of connection points: 8
#     Node 17, Type 0, BuildingBlock: TAGTUT_clean_sbu_3, # of connection points: 8
#     Edge 18, Type (0, 0), BuildingBlock: AJUNOK_clean_linker_0, # of connection points: 2
#     Edge 19, Type (0, 0), BuildingBlock: AJUNOK_clean_linker_0, # of connection points: 2
#     Edge 20, Type (0, 0), BuildingBlock: AJUNOK_clean_linker_0, # of connection points: 2
#     Edge 21, Type (0, 0), BuildingBlock: AJUNOK_clean_linker_0, # of connection points: 2
#     Edge 22, Type (0, 0), BuildingBlock: AJUNOK_clean_linker_0, # of connection points: 2
#     Edge 23, Type (0, 0), BuildingBlock: AJUNOK_clean_linker_0, # of connection points: 2
#     Edge 24, Type (0, 0), BuildingBlock: AJUNOK_clean_linker_0, # of connection points: 2
#     Edge 25, Type (0, 0), BuildingBlock: AJUNOK_clean_linker_0, # of connection points: 2
#     Edge 26, Type (0, 0), BuildingBlock: AJUNOK_clean_linker_0, # of connection points: 2
#     Edge 27, Type (0, 0), BuildingBlock: AJUNOK_clean_linker_0, # of connection points: 2
#     Edge 28, Type (0, 0), BuildingBlock: AJUNOK_clean_linker_0, # of connection points: 2
#     Edge 29, Type (0, 0), BuildingBlock: AJUNOK_clean_linker_0, # of connection points: 2
#     Edge 30, Type (0, 0), BuildingBlock: AJUNOK_clean_linker_0, # of connection points: 2
#     Edge 31, Type (0, 0), BuildingBlock: AJUNOK_clean_linker_0, # of connection points: 2
#     Edge 32, Type (0, 0), BuildingBlock: AJUNOK_clean_linker_0, # of connection points: 2
#     Edge 33, Type (0, 0), BuildingBlock: AJUNOK_clean_linker_0, # of connection points: 2
#     Edge 34, Type (0, 0), BuildingBlock: AJUNOK_clean_linker_0, # of connection points: 2
#     Edge 35, Type (0, 0), BuildingBlock: AJUNOK_clean_linker_0, # of connection points: 2
#     Edge 36, Type (0, 0), BuildingBlock: AJUNOK_clean_linker_0, # of connection points: 2
#     Edge 37, Type (0, 0), BuildingBlock: AJUNOK_clean_linker_0, # of connection points: 2
#     Edge 38, Type (0, 0), BuildingBlock: AJUNOK_clean_linker_0, # of connection points: 2
#     Edge 39, Type (0, 0), BuildingBlock: AJUNOK_clean_linker_0, # of connection points: 2
#     Edge 40, Type (0, 0), BuildingBlock: AJUNOK_clean_linker_0, # of connection points: 2
#     Edge 41, Type (0, 0), BuildingBlock: AJUNOK_clean_linker_0, # of connection points: 2
#     Edge 42, Type (0, 0), BuildingBlock: AJUNOK_clean_linker_0, # of connection points: 2
#     Edge 43, Type (0, 0), BuildingBlock: AJUNOK_clean_linker_0, # of connection points: 2
#     Edge 44, Type (0, 0), BuildingBlock: AJUNOK_clean_linker_0, # of connection points: 2
#     Edge 45, Type (0, 0), BuildingBlock: AJUNOK_clean_linker_0, # of connection points: 2
#     Edge 46, Type (0, 0), BuildingBlock: AJUNOK_clean_linker_0, # of connection points: 2
#     Edge 47, Type (0, 0), BuildingBlock: AJUNOK_clean_linker_0, # of connection points: 2
#     Edge 48, Type (0, 0), BuildingBlock: AJUNOK_clean_linker_0, # of connection points: 2
#     Edge 49, Type (0, 0), BuildingBlock: AJUNOK_clean_linker_0, # of connection points: 2
#     Edge 50, Type (0, 0), BuildingBlock: AJUNOK_clean_linker_0, # of connection points: 2
#     Edge 51, Type (0, 0), BuildingBlock: AJUNOK_clean_linker_0, # of connection points: 2
#     Edge 52, Type (0, 0), BuildingBlock: AJUNOK_clean_linker_0, # of connection points: 2
#     Edge 53, Type (0, 0), BuildingBlock: AJUNOK_clean_linker_0, # of connection points: 2
#     Edge 54, Type (0, 0), BuildingBlock: AJUNOK_clean_linker_0, # of connection points: 2
#     Edge 55, Type (0, 0), BuildingBlock: AJUNOK_clean_linker_0, # of connection points: 2
#     Edge 56, Type (0, 0), BuildingBlock: AJUNOK_clean_linker_0, # of connection points: 2
#     Edge 57, Type (0, 0), BuildingBlock: AJUNOK_clean_linker_0, # of connection points: 2
#     Edge 58, Type (0, 0), BuildingBlock: AJUNOK_clean_linker_0, # of connection points: 2
#     Edge 59, Type (0, 0), BuildingBlock: AJUNOK_clean_linker_0, # of connection points: 2
#     Edge 60, Type (0, 0), BuildingBlock: AJUNOK_clean_linker_0, # of connection points: 2
#     Edge 61, Type (0, 0), BuildingBlock: AJUNOK_clean_linker_0, # of connection points: 2
#     Edge 62, Type (0, 0), BuildingBlock: AJUNOK_clean_linker_0, # of connection points: 2
#     Edge 63, Type (0, 0), BuildingBlock: AJUNOK_clean_linker_0, # of connection points: 2
#     Edge 64, Type (0, 0), BuildingBlock: AJUNOK_clean_linker_0, # of connection points: 2
#     Edge 65, Type (0, 0), BuildingBlock: AJUNOK_clean_linker_0, # of connection points: 2
#     Edge 66, Type (0, 0), BuildingBlock: AJUNOK_clean_linker_0, # of connection points: 2
#     Edge 67, Type (0, 0), BuildingBlock: AJUNOK_clean_linker_0, # of connection points: 2
#     Edge 68, Type (0, 0), BuildingBlock: AJUNOK_clean_linker_0, # of connection points: 2
#     Edge 69, Type (0, 0), BuildingBlock: AJUNOK_clean_linker_0, # of connection points: 2
#     Edge 70, Type (0, 0), BuildingBlock: AJUNOK_clean_linker_0, # of connection points: 2
#     Edge 71, Type (0, 0), BuildingBlock: AJUNOK_clean_linker_0, # of connection points: 2
#     Edge 72, Type (0, 0), BuildingBlock: AJUNOK_clean_linker_0, # of connection points: 2
#     Edge 73, Type (0, 0), BuildingBlock: AJUNOK_clean_linker_0, # of connection points: 2
#     Edge 74, Type (0, 0), BuildingBlock: AJUNOK_clean_linker_0, # of connection points: 2
#     Edge 75, Type (0, 0), BuildingBlock: AJUNOK_clean_linker_0, # of connection points: 2
#     Edge 76, Type (0, 0), BuildingBlock: AJUNOK_clean_linker_0, # of connection points: 2
#     Edge 77, Type (0, 0), BuildingBlock: AJUNOK_clean_linker_0, # of connection points: 2
#     Edge 78, Type (0, 0), BuildingBlock: AJUNOK_clean_linker_0, # of connection points: 2
#     Edge 79, Type (0, 0), BuildingBlock: AJUNOK_clean_linker_0, # of connection points: 2
#     Edge 80, Type (0, 0), BuildingBlock: AJUNOK_clean_linker_0, # of connection points: 2
#     Edge 81, Type (0, 0), BuildingBlock: AJUNOK_clean_linker_0, # of connection points: 2
#     Edge 82, Type (0, 0), BuildingBlock: AJUNOK_clean_linker_0, # of connection points: 2
#     Edge 83, Type (0, 0), BuildingBlock: AJUNOK_clean_linker_0, # of connection points: 2
#     Edge 84, Type (0, 0), BuildingBlock: AJUNOK_clean_linker_0, # of connection points: 2
#     Edge 85, Type (0, 0), BuildingBlock: AJUNOK_clean_linker_0, # of connection points: 2
#     Edge 86, Type (0, 0), BuildingBlock: AJUNOK_clean_linker_0, # of connection points: 2
#     Edge 87, Type (0, 0), BuildingBlock: AJUNOK_clean_linker_0, # of connection points: 2
#     Edge 88, Type (0, 0), BuildingBlock: AJUNOK_clean_linker_0, # of connection points: 2
#     Edge 89, Type (0, 0), BuildingBlock: AJUNOK_clean_linker_0, # of connection points: 2
# Relax obj value: 0.306
# Max RMSD: 0.284
# Mean RMSD: 0.281
data_MOF--net-ecd--node1-TAGTUT_clean_sbu_3--edge1-AJUNOK_clean_linker_0
_symmetry_space_group_name_H-M    P1
_symmetry_Int_Tables_number       1
_symmetry_cell_setting            triclinic
loop_
_symmetry_equiv_pos_as_xyz
'x, y, z'
_cell_length_a     37.830309
_cell_length_b     37.942013
_cell_length_c     27.514163
_cell_angle_alpha  89.877956
_cell_angle_beta   89.370162
_cell_angle_gamma 119.87133
loop_
_atom_site_label
_atom_site_type_symbol
_atom_site_fract_x
_atom_site_fract_y
_atom_site_fract_z
_atom_type_partial_charge
C0 C 0.09436 0.51547 0.20452 0.0
C1 C 0.97488 0.46039 0.09814 0.0
C2 C 0.94119 0.53247 0.15381 0.0
Mg3 Mg 0.08935 0.55163 0.31397 0.0
Mg4 Mg 0.99665 0.51213 0.36305 0.0
O5 O 0.03214 0.54237 0.31146 0.0
Mg6 Mg 0.01376 0.5131 0.25056 0.0
O7 O 0.99718 0.4855 0.18539 0.0
Mg8 Mg 0.03514 0.5411 0.1459 0.0
Mg9 Mg 0.93685 0.45124 0.17931 0.0
C10 C 0.93502 0.51481 0.29922 0.0
O11 O 0.97453 0.44822 0.28775 0.0
O12 O 0.09348 0.59386 0.37546 0.0
O13 O 0.91875 0.41156 0.2432 0.0
O14 O 0.07304 0.50502 0.38213 0.0
O15 O 0.02951 0.56523 0.40787 0.0
O16 O 1.0091 0.46444 0.37195 0.0
O17 O 0.05063 0.57554 0.21426 0.0
O18 O 0.10819 0.6034 0.25547 0.0
C19 C 0.08691 0.60506 0.2206 0.0
C20 C 0.06705 0.59338 0.4057 0.0
O21 O 0.95889 0.52515 0.2619 0.0
O22 O 0.99603 0.4738 0.13649 0.0
O23 O 0.93803 0.49362 0.33308 0.0
O24 O 0.97862 0.54843 0.13991 0.0
O25 O 0.93784 0.43279 0.10449 0.0
O26 O 0.92111 0.49736 0.17372 0.0
O27 O 0.07279 0.50709 0.24453 0.0
O28 O 0.08621 0.52978 0.16659 0.0
C29 C 0.03807 0.48014 0.40102 0.0
C30 C 0.93996 0.41591 0.28106 0.0
C31 C 0.5893 0.52355 0.28261 0.0
C32 C 0.52535 0.57117 0.39444 0.0
C33 C 0.41779 0.49363 0.35737 0.0
Mg34 Mg 0.54961 0.48669 0.17744 0.0
Mg35 Mg 0.48473 0.50906 0.1253 0.0
O36 O 0.49681 0.48839 0.18017 0.0
Mg37 Mg 0.50518 0.51826 0.24077 0.0
O38 O 0.51516 0.54472 0.30669 0.0
Mg39 Mg 0.50613 0.49169 0.34679 0.0
Mg40 Mg 0.48665 0.57558 0.3193 0.0
C41 C 0.41797 0.50631 0.19102 0.0
O42 O 0.52607 0.58185 0.20482 0.0
O43 O 0.51893 0.44261 0.11953 0.0
O44 O 0.50438 0.61456 0.25412 0.0
O45 O 0.57565 0.53257 0.10787 0.0
O46 O 0.47247 0.4551 0.08484 0.0
O47 O 0.5409 0.56247 0.11811 0.0
O48 O 0.48438 0.45755 0.27781 0.0
O49 O 0.5179 0.43409 0.23465 0.0
C50 C 0.49288 0.42946 0.26913 0.0
C51 C 0.49031 0.43404 0.08961 0.0
O52 O 0.43544 0.50238 0.22936 0.0
O53 O 0.53097 0.55843 0.35382 0.0
O54 O 0.43604 0.51657 0.14984 0.0
O55 O 0.44292 0.48092 0.36462 0.0
O56 O 0.5121 0.59608 0.39179 0.0
O57 O 0.42675 0.52669 0.33488 0.0
O58 O 0.57352 0.53118 0.24504 0.0
O59 O 0.56837 0.50683 0.32119 0.0
C60 C 0.55818 0.55072 0.08869 0.0
C61 C 0.52148 0.6125 0.21441 0.0
C62 C 0.44506 0.9465 0.21579 0.0
C63 C 0.5022 0.03703 0.06971 0.0
C64 C 0.61342 0.08924 0.13419 0.0
Mg65 Mg 0.48406 0.94682 0.32288 0.0
Mg66 Mg 0.54531 0.03462 0.37527 0.0
O67 O 0.53668 1.00156 0.32166 0.0
Mg68 Mg 0.53003 0.02306 0.25982 0.0
O69 O 0.52069 0.03759 0.19289 0.0
Mg70 Mg 0.53199 0.99798 0.15722 0.0
Mg71 Mg 0.53437 0.08778 0.16457 0.0
C72 C 0.61696 0.09733 0.31424 0.0
O73 O 0.50774 0.06636 0.28913 0.0
O74 O 0.5144 0.93391 0.38584 0.0
O75 O 0.51452 0.11009 0.22872 0.0
O76 O 0.4553 0.96767 0.38793 0.0
O77 O 0.55409 0.99417 0.42214 0.0
O78 O 0.48902 0.0326 0.37791 0.0
O79 O 0.55211 0.98294 0.22591 0.0
O80 O 0.51511 0.92439 0.26514 0.0
C81 C 0.54125 0.94555 0.23189 0.0
C82 C 0.53954 0.95571 0.41881 0.0
O83 O 0.60045 0.07707 0.27478 0.0
O84 O 0.51024 0.01202 0.0904 0.0
O85 O 0.59732 0.08941 0.35434 0.0
O86 O 0.59494 0.05032 0.13636 0.0
O87 O 0.50723 0.06939 0.09094 0.0
O88 O 0.59721 0.11004 0.14868 0.0
O89 O 0.46095 0.96812 0.25447 0.0
O90 O 0.4673 0.95101 0.17834 0.0
C91 C 0.47026 1.00314 0.40671 0.0
C92 C 0.50481 0.09666 0.27292 0.0
C93 C 0.93346 0.42308 0.74855 0.0
C94 C 0.99022 0.44135 0.60645 0.0
C95 C 0.99379 0.54293 0.57345 0.0
Mg96 Mg 0.98203 0.48101 0.82887 0.0
Mg97 Mg 0.0721 0.56809 0.82602 0.0
O98 O 0.02117 0.53465 0.79829 0.0
Mg99 Mg 1.01108 0.51523 0.73008 0.0
O100 O 0.99654 0.49453 0.66367 0.0
Mg101 Mg 0.93464 0.48254 0.66091 0.0
Mg102 Mg 0.04539 0.51983 0.61797 0.0
C103 C 0.08581 0.61317 0.72252 0.0
O104 O 0.06533 0.49926 0.72225 0.0
O105 O 0.99428 0.51349 0.8988 0.0
O106 O 0.09758 0.54232 0.66263 0.0
O107 O 0.03476 0.4694 0.84698 0.0
O108 O 0.05264 0.57319 0.90036 0.0
O109 O 0.09448 0.52711 0.83569 0.0
O110 O 0.95478 0.52718 0.73385 0.0
O111 O 0.93535 0.49944 0.80902 0.0
C112 C 0.93258 0.51999 0.77373 0.0
C113 C 0.01962 0.5455 0.92083 0.0
O114 O 0.05516 0.58148 0.70499 0.0
O115 O 0.98005 0.4653 0.6272 0.0
O116 O 0.0981 0.61412 0.76636 0.0
O117 O 0.95748 0.52816 0.5917 0.0
O118 O 0.02635 0.45852 0.58904 0.0
O119 O 0.02304 0.56015 0.60245 0.0
O120 O 0.96997 0.45049 0.75724 0.0
O121 O 0.91319 0.42908 0.71602 0.0
C122 C 0.07383 0.48964 0.84797 0.0
C123 C 0.09542 0.51537 0.69171 0.0
C124 C 0.43928 0.51267 0.71582 0.0
C125 C 0.49946 0.48334 0.56861 0.0
C126 C 0.61001 0.54232 0.63261 0.0
Mg127 Mg 0.47709 0.54831 0.82408 0.0
Mg128 Mg 0.53505 0.51674 0.87776 0.0
O129 O 0.52658 0.54078 0.82345 0.0
Mg130 Mg 0.52172 0.51545 0.76055 0.0
O131 O 0.51525 0.49525 0.692 0.0
Mg132 Mg 0.5269 0.54789 0.65947 0.0
Mg133 Mg 0.53228 0.46171 0.66172 0.0
C134 C 0.60467 0.52374 0.81873 0.0
O135 O 0.49687 0.44686 0.7859 0.0
O136 O 0.51038 0.59152 0.88583 0.0
O137 O 0.50914 0.41524 0.72335 0.0
O138 O 0.44599 0.49972 0.88994 0.0
O139 O 0.55093 0.57086 0.92056 0.0
O140 O 0.47687 0.46518 0.88464 0.0
O141 O 0.5466 0.57977 0.72932 0.0
O142 O 0.50978 0.60204 0.76703 0.0
C143 C 0.53663 0.60701 0.73493 0.0
C144 C 0.53733 0.59574 0.91684 0.0
O145 O 0.5915 0.531 0.77852 0.0
O146 O 0.50603 0.5151 0.5911 0.0
O147 O 0.58013 0.50375 0.85315 0.0
O148 O 0.58936 0.56027 0.63797 0.0
O149 O 0.50569 0.456 0.58801 0.0
O150 O 0.59582 0.50493 0.64489 0.0
O151 O 0.453 0.50415 0.75462 0.0
O152 O 0.46289 0.53081 0.67972 0.0
C153 C 0.46064 0.47991 0.91171 0.0
C154 C 0.49572 0.41504 0.76706 0.0
C155 C 0.49444 0.09088 0.76655 0.0
C156 C 0.49146 0.07978 0.57847 0.0
C157 C 0.56348 0.03555 0.58753 0.0
Mg158 Mg 0.51031 0.04362 0.84335 0.0
Mg159 Mg 0.48848 0.93966 0.81649 0.0
O160 O 0.51818 0.99876 0.8032 0.0
Mg161 Mg 0.50732 0.01426 0.73683 0.0
O162 O 0.4978 0.03542 0.67594 0.0
Mg163 Mg 0.54956 0.09047 0.67217 0.0
Mg164 Mg 0.48967 1.00259 0.62251 0.0
C165 C 0.52294 0.93461 0.71235 0.0
O166 O 0.43781 0.95956 0.72538 0.0
O167 O 0.53423 1.00066 0.85103 0.0
O168 O 0.44076 0.9465 0.6461 0.0
O169 O 0.44872 0.99213 0.86599 0.0
O170 O 0.51528 0.94355 0.88767 0.0
O171 O 0.4292 0.9299 0.83623 0.0
O172 O 0.57566 0.07029 0.73928 0.0
O173 O 0.57207 0.09013 0.81546 0.0
C174 C 0.59239 0.09321 0.77675 0.0
C175 C 0.52815 0.98147 0.89124 0.0
O176 O 0.52867 0.97026 0.7017 0.0
O177 O 0.517 0.10232 0.6107 0.0
O178 O 0.50481 0.91628 0.75207 0.0
O179 O 0.57789 0.0714 0.60482 0.0
O180 O 0.4779 0.04141 0.57582 0.0
O181 O 0.54707 1.00723 0.61801 0.0
O182 O 0.48607 0.05426 0.77474 0.0
O183 O 0.51792 0.11079 0.73063 0.0
C184 C 0.42254 0.95448 0.86141 0.0
C185 C 0.42168 0.93819 0.68666 0.0
C186 C 0.75543 0.92902 0.54849 0.0
C187 C 0.75074 0.91953 0.72627 0.0
C188 C 0.6961 0.79323 0.71283 0.0
Mg189 Mg 0.69918 0.86482 0.47446 0.0
Mg190 Mg 0.60581 0.78614 0.48832 0.0
O191 O 0.66077 0.81284 0.50935 0.0
Mg192 Mg 0.67769 0.83877 0.5748 0.0
O193 O 0.70018 0.86688 0.63647 0.0
Mg194 Mg 0.75461 0.86752 0.63404 0.0
Mg195 Mg 0.66803 0.84509 0.69242 0.0
C196 C 0.60082 0.74073 0.59033 0.0
O197 O 0.62495 0.85603 0.59114 0.0
O198 O 0.6807 0.82482 0.41052 0.0
O199 O 0.61497 0.84718 0.67201 0.0
O200 O 0.64677 0.87954 0.46872 0.0
O201 O 0.61483 0.80106 0.40716 0.0
O202 O 0.5899 0.83026 0.50451 0.0
O203 O 0.73258 0.82499 0.56569 0.0
O204 O 0.74743 0.84843 0.48892 0.0
C205 C 0.75442 0.83286 0.52623 0.0
C206 C 0.65041 0.82021 0.38687 0.0
O207 O 0.63303 0.77322 0.60396 0.0
O208 O 0.77083 0.9112 0.69523 0.0
O209 O 0.58429 0.73837 0.54846 0.0
O210 O 0.73251 0.81578 0.6962 0.0
O211 O 0.7122 0.89696 0.73343 0.0
O212 O 0.66775 0.78954 0.68641 0.0
O213 O 0.71837 0.90177 0.54156 0.0
O214 O 0.77635 0.92306 0.58042 0.0
C215 C 0.61093 0.86606 0.487 0.0
C216 C 0.60596 0.85578 0.63078 0.0
C217 C 0.18616 0.93511 0.52209 0.0
C218 C 0.19888 0.83727 0.38681 0.0
C219 C 0.14133 0.75389 0.47901 0.0
Mg220 Mg 0.14628 0.89952 0.63089 0.0
Mg221 Mg 0.1793 0.84421 0.68185 0.0
O222 O 0.14723 0.84624 0.632 0.0
Mg223 Mg 0.17575 0.85117 0.57031 0.0
O224 O 0.20245 0.858 0.50536 0.0
Mg225 Mg 0.15251 0.84764 0.46827 0.0
Mg226 Mg 0.22408 0.82384 0.48827 0.0
C227 C 0.16694 0.76925 0.62715 0.0
O228 O 0.24007 0.86851 0.60048 0.0
O229 O 0.10474 0.87016 0.69692 0.0
O230 O 0.26979 0.84524 0.54768 0.0
O231 O 0.19632 0.92941 0.69401 0.0
O232 O 0.1341 0.83779 0.73368 0.0
O233 O 0.23189 0.90142 0.6764 0.0
O234 O 0.11348 0.83119 0.53478 0.0
O235 O 0.09159 0.86722 0.57474 0.0
C236 C 0.08673 0.84203 0.54074 0.0
C237 C 0.10714 0.84876 0.73171 0.0
O238 O 0.15876 0.78293 0.58828 0.0
O239 O 0.19811 0.86625 0.40826 0.0
O240 O 0.18263 0.79168 0.66413 0.0
O241 O 0.13251 0.77952 0.46049 0.0
O242 O 0.21678 0.82017 0.40754 0.0
O243 O 0.1746 0.76524 0.50127 0.0
O244 O 0.19094 0.91986 0.56196 0.0
O245 O 0.17266 0.91357 0.48378 0.0
C246 C 0.22237 0.91929 0.70751 0.0
C247 C 0.26968 0.86261 0.58807 0.0
C248 C 0.2017 0.27178 0.56889 0.0
C249 C 0.18638 0.28334 0.75701 0.0
C250 C 0.11118 0.32874 0.72023 0.0
Mg251 Mg 0.19135 0.32045 0.49181 0.0
Mg252 Mg 0.20391 0.41292 0.49376 0.0
O253 O 0.17873 0.36123 0.52297 0.0
Mg254 Mg 0.18761 0.34917 0.5915 0.0
O255 O 0.1916 0.32825 0.65604 0.0
Mg256 Mg 0.13901 0.27279 0.65397 0.0
Mg257 Mg 0.19158 0.36037 0.70693 0.0
C258 C 0.16557 0.42642 0.59338 0.0
O259 O 0.25632 0.40301 0.61078 0.0
O260 O 0.16526 0.33102 0.42631 0.0
O261 O 0.24679 0.41386 0.68932 0.0
O262 O 0.25508 0.37223 0.47232 0.0
O263 O 0.20076 0.39717 0.41359 0.0
O264 O 0.26503 0.43014 0.50485 0.0
O265 O 0.12035 0.2941 0.58421 0.0
O266 O 0.12833 0.27234 0.51178 0.0
C267 C 0.10598 0.26979 0.54796 0.0
C268 C 0.18456 0.36054 0.39754 0.0
O269 O 0.1654 0.39548 0.61342 0.0
O270 O 0.16538 0.26057 0.72185 0.0
O271 O 0.17912 0.43837 0.54946 0.0
O272 O 0.10327 0.29272 0.70957 0.0
O273 O 0.1968 0.32101 0.76004 0.0
O274 O 0.13498 0.35638 0.69173 0.0
O275 O 0.21195 0.30886 0.56178 0.0
O276 O 0.17463 0.25091 0.60152 0.0
C277 C 0.27827 0.40982 0.48203 0.0
C278 C 0.26982 0.42171 0.6519 0.0
C279 C 0.7537 0.93784 0.02224 0.0
C280 C 0.64888 0.84591 0.88484 0.0
C281 C 0.61268 0.75926 0.98148 0.0
Mg282 Mg 0.75475 0.90343 0.13011 0.0
Mg283 Mg 0.66804 0.84045 0.18683 0.0
O284 O 0.70112 0.84943 0.13204 0.0
Mg285 Mg 0.67875 0.8547 0.07012 0.0
O286 O 0.66086 0.86277 0.00527 0.0
Mg287 Mg 0.69997 0.85051 0.96985 0.0
Mg288 Mg 0.60546 0.83318 0.98556 0.0
C289 C 0.60607 0.76881 0.12519 0.0
O290 O 0.63359 0.87433 0.09912 0.0
O291 O 0.77047 0.8765 0.1918 0.0
O292 O 0.58321 0.85846 0.04519 0.0
O293 O 0.73168 0.93178 0.19354 0.0
O294 O 0.71149 0.83305 0.23009 0.0
O295 O 0.66715 0.89536 0.18216 0.0
O296 O 0.72071 0.83306 0.0366 0.0
O297 O 0.77808 0.87038 0.07621 0.0
C298 C 0.75802 0.84355 0.04396 0.0
C299 C 0.75015 0.84897 0.22363 0.0
O300 O 0.62655 0.78613 0.08594 0.0
O301 O 0.6784 0.87226 0.90864 0.0
O302 O 0.61453 0.78681 0.16604 0.0
O303 O 0.64852 0.78239 0.96353 0.0
O304 O 0.61317 0.82874 0.90463 0.0
O305 O 0.59126 0.77332 2e-05 0.0
O306 O 0.73203 0.92322 0.06156 0.0
O307 O 0.74722 0.91572 0.98468 0.0
C308 C 0.69519 0.91802 0.20999 0.0
C309 C 0.60053 0.87341 0.08633 0.0
C310 C 0.11077 0.84725 0.0403 0.0
C311 C 0.1958 0.84581 0.90084 0.0
C312 C 0.28963 0.88689 -0.00253 0.0
Mg313 Mg 0.12634 0.86694 0.15268 0.0
Mg314 Mg 0.18562 0.84307 0.21827 0.0
O315 O 0.18122 0.86895 0.16328 0.0
Mg316 Mg 0.18797 0.85098 0.09835 0.0
O317 O 0.19032 0.8382 0.02812 0.0
Mg318 Mg 0.2051 0.89398 0.00358 0.0
Mg319 Mg 0.20834 0.80617 0.99653 0.0
C320 C 0.26955 0.867 0.16895 0.0
O321 O 0.16518 0.78214 0.1143 0.0
O322 O 0.14073 0.90329 0.22097 0.0
O323 O 0.17854 0.75306 0.05031 0.0
O324 O 0.09054 0.80778 0.20352 0.0
O325 O 0.18564 0.89158 0.26033 0.0
O326 O 0.13454 0.78787 0.19605 0.0
O327 O 0.21072 0.91673 0.07831 0.0
O328 O 0.16243 0.92756 0.10869 0.0
C329 C 0.1955 0.93985 0.08415 0.0
C330 C 0.16833 0.9128 0.25278 0.0
O331 O 0.25649 0.86872 0.12586 0.0
O332 O 0.19819 0.87312 0.92899 0.0
O333 O 0.24539 0.85293 0.20558 0.0
O334 O 0.2703 0.90668 -0.002 0.0
O335 O 0.19715 0.81452 0.91716 0.0
O336 O 0.27181 0.84821 0.0028 0.0
O337 O 0.12119 0.83515 0.07875 0.0
O338 O 0.13738 0.87173 0.00955 0.0
C339 C 0.10468 0.78547 0.21914 0.0
C340 C 0.16378 0.75102 0.0937 0.0
C341 C 0.18039 0.27348 0.02561 0.0
C342 C 0.2045 0.38211 0.89167 0.0
C343 C 0.14413 0.41458 0.96607 0.0
Mg344 Mg 0.141 0.26766 0.13247 0.0
Mg345 Mg 0.17464 0.35226 0.1888 0.0
O346 O 0.14237 0.32215 0.13728 0.0
Mg347 Mg 0.17159 0.34765 0.07549 0.0
O348 O 0.19827 0.36802 0.01095 0.0
Mg349 Mg 0.1504 0.32855 0.97132 0.0
Mg350 Mg 0.22267 0.42351 0.99137 0.0
C351 C 0.16415 0.4185 0.13848 0.0
O352 O 0.23613 0.39243 0.10541 0.0
O353 O 0.10023 0.25288 0.20085 0.0
O354 O 0.26682 0.44567 0.05282 0.0
O355 O 0.19247 0.28371 0.19147 0.0
O356 O 0.13102 0.31215 0.24183 0.0
O357 O 0.22714 0.34776 0.17784 0.0
O358 O 0.10966 0.30827 0.03808 0.0
O359 O 0.08699 0.24946 0.07718 0.0
C360 C 0.08263 0.27094 0.04407 0.0
C361 C 0.1035 0.27468 0.23827 0.0
O362 O 0.15715 0.40026 0.09692 0.0
O363 O 0.20142 0.35334 0.91754 0.0
O364 O 0.1779 0.40828 0.17472 0.0
O365 O 0.13493 0.37854 0.95389 0.0
O366 O 0.22152 0.41779 0.91011 0.0
O367 O 0.17362 0.43552 0.99458 0.0
O368 O 0.18546 0.29359 0.06505 0.0
O369 O 0.1663 0.28109 0.98788 0.0
C370 C 0.21945 0.31882 0.20594 0.0
C371 C 0.26623 0.42746 0.09295 0.0
C372 C 0.41913 0.26401 0.88684 0.0
C373 C 0.41697 0.2643 0.06396 0.0
C374 C 0.36292 0.14449 0.07085 0.0
Mg375 Mg 0.35935 0.20264 0.81656 0.0
Mg376 Mg 0.25852 0.11905 0.85072 0.0
O377 O 0.31879 0.14838 0.85616 0.0
Mg378 Mg 0.34048 0.17566 0.92072 0.0
O379 O 0.36539 0.20637 0.97922 0.0
Mg380 Mg 0.41914 0.20694 0.97771 0.0
Mg381 Mg 0.3348 0.18791 0.03663 0.0
C382 C 0.26251 0.08018 0.95095 0.0
O383 O 0.28815 0.19213 0.9379 0.0
O384 O 0.316 0.13725 0.80516 0.0
O385 O 0.27925 0.18373 0.01883 0.0
O386 O 0.30593 0.21734 0.81363 0.0
O387 O 0.25667 0.104 0.7731 0.0
O388 O 0.24799 0.16905 0.84997 0.0
O389 O 0.39484 0.16074 0.91013 0.0
O390 O 0.40696 0.18363 0.83224 0.0
C391 C 0.41446 0.16722 0.86875 0.0
C392 C 0.29474 0.12813 0.767 0.0
O393 O 0.29786 0.11156 0.9579 0.0
O394 O 0.43605 0.2546 0.03311 0.0
O395 O 0.24112 0.07762 0.91373 0.0
O396 O 0.39883 0.1643 0.05154 0.0
O397 O 0.37878 0.2419 0.07351 0.0
O398 O 0.33418 0.13304 0.0419 0.0
O399 O 0.38095 0.23818 0.88379 0.0
O400 O 0.44086 0.25777 0.91731 0.0
C401 C 0.26925 0.20396 0.82972 0.0
C402 C 0.26908 0.19098 0.97776 0.0
C403 C 0.93009 0.1925 0.94069 0.0
C404 C 0.86542 0.23208 0.07227 0.0
C405 C 0.75416 0.1597 0.00663 0.0
Mg406 Mg 0.89594 0.15109 0.83661 0.0
Mg407 Mg 0.83223 0.17079 0.77865 0.0
O408 O 0.84113 0.15013 0.83459 0.0
Mg409 Mg 0.84572 0.18117 0.89269 0.0
O410 O 0.85257 0.20778 0.95591 0.0
Mg411 Mg 0.84191 0.15835 0.9947 0.0
Mg412 Mg 0.82963 0.23932 0.97649 0.0
C413 C 0.76035 0.16618 0.83587 0.0
O414 O 0.86498 0.2456 0.85909 0.0
O415 O 0.86754 0.10254 0.78127 0.0
O416 O 0.84887 0.28035 0.91328 0.0
O417 O 0.92271 0.19614 0.76715 0.0
O418 O 0.82152 0.11441 0.74456 0.0
O419 O 0.88891 0.22581 0.78287 0.0
O420 O 0.82461 0.11942 0.93033 0.0
O421 O 0.86633 0.10121 0.89649 0.0
C422 C 0.83827 0.09474 0.92753 0.0
C423 C 0.83752 0.09204 0.75279 0.0
O424 O 0.77611 0.16372 0.87654 0.0
O425 O 0.86072 0.19907 0.05528 0.0
O426 O 0.7801 0.17479 0.79584 0.0
O427 O 0.777 0.1439 0.01025 0.0
O428 O 0.8555 0.25515 0.04908 0.0
O429 O 0.76721 0.19532 0.98912 0.0
O430 O 0.91567 0.19816 0.90073 0.0
O431 O 0.90724 0.17658 0.97808 0.0
C432 C 0.9067 0.21662 0.75131 0.0
C433 C 0.8628 0.2772 0.87163 0.0
C434 C 0.87044 0.60637 0.89577 0.0
C435 C 0.86704 0.61858 0.08164 0.0
C436 C 0.79959 0.66737 0.06964 0.0
Mg437 Mg 0.86752 0.66513 0.82726 0.0
Mg438 Mg 0.87221 0.75577 0.83675 0.0
O439 O 0.851 0.70208 0.86012 0.0
Mg440 Mg 0.85875 0.6858 0.92507 0.0
O441 O 0.86518 0.6637 0.98572 0.0
Mg442 Mg 0.81262 0.60901 0.98634 0.0
Mg443 Mg 0.87243 0.69763 0.03756 0.0
C444 C 0.83395 0.76231 0.93724 0.0
O445 O 0.92731 0.73868 0.93823 0.0
O446 O 0.85144 0.68478 0.76363 0.0
O447 O 0.92377 0.75289 0.01661 0.0
O448 O 0.9319 0.71781 0.81905 0.0
O449 O 0.85257 0.74412 0.76104 0.0
O450 O 0.93589 0.7775 0.83559 0.0
O451 O 0.79039 0.63073 0.91712 0.0
O452 O 0.80212 0.61746 0.8409 0.0
C453 C 0.77748 0.611 0.87647 0.0
C454 C 0.84596 0.71077 0.74161 0.0
O455 O 0.83599 0.73154 0.95453 0.0
O456 O 0.84207 0.59602 0.04906 0.0
O457 O 0.84632 0.77619 0.89396 0.0
O458 O 0.78576 0.63104 0.0537 0.0
O459 O 0.88198 0.65719 0.08371 0.0
O460 O 0.81543 0.69492 0.03809 0.0
O461 O 0.88267 0.64445 0.89281 0.0
O462 O 0.84306 0.58502 0.92789 0.0
C463 C 0.95238 0.75635 0.8241 0.0
C464 C 0.94358 0.75973 0.97679 0.0
C465 C 0.26246 0.09427 0.43226 0.0
C466 C 0.26563 0.08674 0.26342 0.0
C467 C 0.32731 0.20989 0.24885 0.0
Mg468 Mg 0.31795 0.15227 0.50423 0.0
Mg469 Mg 0.40739 0.23989 0.49789 0.0
O470 O 0.35574 0.2061 0.47163 0.0
Mg471 Mg 0.34255 0.18244 0.40505 0.0
O472 O 0.32107 0.15298 0.34424 0.0
Mg473 Mg 0.2668 0.15174 0.34167 0.0
Mg474 Mg 0.35131 0.16291 0.28724 0.0
C475 C 0.41657 0.28231 0.39296 0.0
O476 O 0.39729 0.16715 0.39512 0.0
O477 O 0.33275 0.18515 0.57305 0.0
O478 O 0.40387 0.16488 0.31379 0.0
O479 O 0.37133 0.14037 0.51221 0.0
O480 O 0.39065 0.24482 0.57452 0.0
O481 O 0.43001 0.19835 0.49756 0.0
O482 O 0.2879 0.19716 0.4103 0.0
O483 O 0.27113 0.17078 0.48665 0.0
C484 C 0.2664 0.18949 0.45056 0.0
C485 C 0.35774 0.21707 0.59505 0.0
O486 O 0.38793 0.24883 0.37504 0.0
O487 O 0.24801 0.10184 0.28852 0.0
O488 O 0.42776 0.28532 0.43767 0.0
O489 O 0.29136 0.1941 0.26822 0.0
O490 O 0.30446 0.10515 0.25658 0.0
O491 O 0.35609 0.22008 0.27775 0.0
O492 O 0.30063 0.11886 0.4366 0.0
O493 O 0.24229 0.10171 0.40096 0.0
C494 C 0.41008 0.16005 0.50578 0.0
C495 C 0.41566 0.16402 0.35668 0.0
C496 C 0.78014 0.18872 0.39205 0.0
C497 C 0.85108 0.16578 0.25102 0.0
C498 C 0.95319 0.20886 0.34175 0.0
Mg499 Mg 0.81455 0.21946 0.5042 0.0
Mg500 Mg 0.87394 0.18626 0.5542 0.0
O501 O 0.86356 0.21087 0.50254 0.0
Mg502 Mg 0.85731 0.18676 0.43975 0.0
O503 O 0.85007 0.16784 0.37196 0.0
Mg504 Mg 0.8726 0.22459 0.34535 0.0
Mg505 Mg 0.86777 0.13397 0.34496 0.0
C506 C 0.9394 0.18914 0.48782 0.0
O507 O 0.83117 0.1178 0.46381 0.0
O508 O 0.84974 0.26272 0.56481 0.0
O509 O 0.83853 0.08513 0.39915 0.0
O510 O 0.78231 0.16853 0.56647 0.0
O511 O 0.89417 0.24398 0.59177 0.0
O512 O 0.81398 0.13542 0.5557 0.0
O513 O 0.88584 0.25318 0.41524 0.0
O514 O 0.84749 0.27399 0.45165 0.0
C515 C 0.87564 0.28024 0.42121 0.0
C516 C 0.88097 0.26933 0.58958 0.0
O517 O 0.92372 0.19764 0.45144 0.0
O518 O 0.85804 0.19632 0.276 0.0
O519 O 0.91983 0.17485 0.52751 0.0
O520 O 0.93724 0.23176 0.33799 0.0
O521 O 0.8526 0.13515 0.26834 0.0
O522 O 0.93172 0.17066 0.34895 0.0
O523 O 0.79087 0.17824 0.43202 0.0
O524 O 0.80632 0.2094 0.35846 0.0
C525 C 0.79803 0.14866 0.58531 0.0
C526 C 0.82709 0.08537 0.44334 0.0
C527 C 0.83945 0.76452 0.42403 0.0
C528 C 0.83924 0.76592 0.24839 0.0
C529 C 0.90393 0.70864 0.24286 0.0
Mg530 Mg 0.83906 0.70348 0.49122 0.0
Mg531 Mg 0.8228 0.61029 0.47436 0.0
O532 O 0.85052 0.66482 0.4542 0.0
Mg533 Mg 0.84628 0.68539 0.38985 0.0
O534 O 0.84322 0.71183 0.33137 0.0
Mg535 Mg 0.89714 0.76488 0.33312 0.0
Mg536 Mg 0.8332 0.6824 0.27519 0.0
C537 C 0.85993 0.60523 0.37249 0.0
O538 O 0.77639 0.63489 0.37288 0.0
O539 O 0.85471 0.68046 0.5529 0.0
O540 O 0.78009 0.62837 0.29203 0.0
O541 O 0.77225 0.65386 0.50607 0.0
O542 O 0.84465 0.61725 0.54872 0.0
O543 O 0.76073 0.59293 0.48159 0.0
O544 O 0.91724 0.73816 0.3992 0.0
O545 O 0.90584 0.74922 0.47642 0.0
C546 C 0.93029 0.75709 0.4403 0.0
C547 C 0.85618 0.65066 0.5713 0.0
O548 O 0.86546 0.6399 0.35756 0.0
O549 O 0.86835 0.78482 0.27809 0.0
O550 O 0.84257 0.58891 0.41331 0.0
O551 O 0.92042 0.74444 0.26115 0.0
O552 O 0.82385 0.72797 0.23916 0.0
O553 O 0.88778 0.67994 0.27294 0.0
O554 O 0.82513 0.7262 0.42543 0.0
O555 O 0.86826 0.7864 0.39386 0.0
C556 C 0.74855 0.6156 0.50065 0.0
C557 C 0.76012 0.61815 0.33189 0.0
C558 C 0.12717 0.68262 0.48567 0.0
C559 C 0.11545 0.71033 0.46859 0.0
C560 C 0.10954 0.64328 0.46733 0.0
C561 C 0.0788 0.63022 0.4328 0.0
H562 H 0.15193 0.69203 0.51102 0.0
H563 H 0.12127 0.62368 0.47843 0.0
S564 S 0.03369 0.68842 0.37998 0.0
N565 N 0.06847 0.72019 0.41782 0.0
N566 N 0.03505 0.64572 0.38431 0.0
C567 C 0.06442 0.65612 0.41825 0.0
C568 C 0.08269 0.69637 0.43618 0.0
C569 C 0.35885 0.43082 0.38759 0.0
C570 C 0.38015 0.47329 0.38527 0.0
C571 C 0.32713 0.4105 0.421 0.0
C572 C 0.31647 0.43206 0.45408 0.0
H573 H 0.36696 0.41326 0.36358 0.0
H574 H 0.31031 0.37765 0.41985 0.0
S575 S 0.36629 0.5444 0.4645 0.0
N576 N 0.39029 0.53677 0.41889 0.0
N577 N 0.33166 0.49871 0.4838 0.0
C578 C 0.33867 0.47485 0.4529 0.0
C579 C 0.37016 0.49545 0.41775 0.0
C580 C 0.54952 0.87181 0.47519 0.0
C581 C 0.59166 0.89101 0.48287 0.0
C582 C 0.53178 0.89398 0.45861 0.0
C583 C 0.55555 0.936 0.45023 0.0
H584 H 0.53068 0.83905 0.47785 0.0
H585 H 0.49985 0.87767 0.44904 0.0
S586 S 0.66532 1.00155 0.47716 0.0
N587 N 0.65537 0.9549 0.4898 0.0
N588 N 0.62174 0.99712 0.45937 0.0
C589 C 0.59667 0.95628 0.46391 0.0
C590 C 0.6149 0.93353 0.47998 0.0
C591 C 0.70518 0.10507 0.06212 0.0
C592 C 0.71521 0.13996 0.03398 0.0
C593 C 0.67352 0.09021 0.09631 0.0
C594 C 0.65046 0.10942 0.10372 0.0
H595 H 0.72261 0.08956 0.05891 0.0
H596 H 0.66688 0.06328 0.11694 0.0
S597 S 0.66097 0.19895 0.03569 0.0
N598 N 0.69733 0.19154 0.0132 0.0
N599 N 0.63745 0.1633 0.07756 0.0
C600 C 0.65915 0.14358 0.07487 0.0
C601 C 0.69139 0.15871 0.03975 0.0
C602 C 0.9257 0.61931 0.11906 0.0
C603 C 0.88341 0.59985 0.1134 0.0
C604 C 0.94398 0.59738 0.13447 0.0
C605 C 0.92047 0.55577 0.1457 0.0
H606 H 0.94507 0.65053 0.10718 0.0
H607 H 0.97687 0.61254 0.13471 0.0
S608 S 0.80746 0.49389 0.14683 0.0
N609 N 0.81774 0.53919 0.1271 0.0
N610 N 0.85206 0.49756 0.15725 0.0
C611 C 0.87769 0.53718 0.14518 0.0
C612 C 0.85914 0.55948 0.12888 0.0
C613 C 0.41234 0.3256 0.08181 0.0
C614 C 0.43673 0.3075 0.07548 0.0
C615 C 0.42944 0.36769 0.07973 0.0
C616 C 0.47142 0.39286 0.07155 0.0
H617 H 0.37964 0.30723 0.08714 0.0
H618 H 0.41009 0.38059 0.08753 0.0
S619 S 0.54849 0.36102 0.05221 0.0
N620 N 0.50513 0.31824 0.06111 0.0
N621 N 0.53685 0.39748 0.05535 0.0
C622 C 0.49593 0.37525 0.06378 0.0
C623 C 0.47883 0.33261 0.06702 0.0
C624 C 0.97695 0.37016 0.60217 0.0
C625 C 0.96185 0.39725 0.60473 0.0
C626 C 0.95039 0.32803 0.60268 0.0
C627 C 0.9078 0.31162 0.60519 0.0
H628 H 1.00948 0.38155 0.59945 0.0
H629 H 0.96333 0.30839 0.59801 0.0
S630 S 0.85326 0.36991 0.61593 0.0
N631 N 0.90191 0.40489 0.61232 0.0
N632 N 0.8521 0.3259 0.61377 0.0
C633 C 0.89257 0.33852 0.6102 0.0
C634 C 0.91955 0.38129 0.6096 0.0
C635 C 0.66724 0.54197 0.58701 0.0
C636 C 0.64676 0.5628 0.60082 0.0
C637 C 0.69832 0.55809 0.55179 0.0
C638 C 0.71039 0.59583 0.52921 0.0
H639 H 0.65911 0.51281 0.60321 0.0
H640 H 0.71407 0.54147 0.54371 0.0
S641 S 0.66462 0.66114 0.54814 0.0
N642 N 0.63941 0.6225 0.586 0.0
N643 N 0.69838 0.65249 0.52044 0.0
C644 C 0.68983 0.61664 0.54162 0.0
C645 C 0.65802 0.60031 0.57733 0.0
C646 C 0.49442 0.14092 0.54209 0.0
C647 C 0.47397 0.09841 0.54712 0.0
C648 C 0.47431 0.16064 0.52473 0.0
C649 C 0.43297 0.13846 0.51226 0.0
H650 H 0.5254 0.15933 0.55462 0.0
H651 H 0.49051 0.19357 0.52462 0.0
S652 S 0.36886 0.02614 0.50733 0.0
N653 N 0.41265 0.03433 0.52954 0.0
N654 N 0.37457 0.07159 0.49719 0.0
C655 C 0.41362 0.09578 0.51171 0.0
C656 C 0.43428 0.07564 0.52895 0.0
C657 C 0.37126 0.89724 0.91171 0.0
C658 C 0.38833 0.9378 0.89616 0.0
C659 C 0.34277 0.88208 0.94969 0.0
C660 C 0.32971 0.90674 0.97293 0.0
H661 H 0.38014 0.87701 0.89481 0.0
H662 H 0.32912 0.85006 0.9586 0.0
S663 S 0.36927 0.01657 0.94972 0.0
N664 N 0.39304 1.0034 0.9095 0.0
N665 N 0.33979 0.97495 0.98148 0.0
C666 C 0.34869 0.94808 0.95988 0.0
C667 C 0.37749 0.96345 0.92098 0.0
C668 C 0.07809 0.42938 0.87525 0.0
C669 C 0.09477 0.47167 0.87424 0.0
C670 C 0.09382 0.41128 0.90584 0.0
C671 C 0.12587 0.43458 0.93791 0.0
H672 H 0.05261 0.41012 0.85232 0.0
H673 H 0.08096 0.3787 0.90372 0.0
S674 S 0.18152 0.54713 0.94729 0.0
N675 N 0.14643 0.53688 0.90607 0.0
N676 N 0.17506 0.50267 0.96477 0.0
C677 C 0.14315 0.47708 0.93678 0.0
C678 C 0.12786 0.49564 0.90462 0.0
C679 C 0.53256 0.65232 0.95419 0.0
C680 C 0.55555 0.6331 0.94561 0.0
C681 C 0.5511 0.69248 0.96948 0.0
C682 C 0.59346 0.71509 0.97576 0.0
H683 H 0.50031 0.63704 0.94621 0.0
H684 H 0.53242 0.70665 0.97288 0.0
S685 S 0.66614 0.67662 0.96719 0.0
N686 N 0.62187 0.63764 0.95152 0.0
N687 N 0.65703 0.71393 0.97983 0.0
C688 C 0.61632 0.69529 0.97168 0.0
C689 C 0.59723 0.65396 0.95681 0.0
C690 C 0.81372 0.98386 0.74292 0.0
C691 C 0.77094 0.96213 0.74146 0.0
C692 C 0.83518 0.0262 0.7425 0.0
C693 C 0.81474 0.04861 0.74094 0.0
H694 H 0.83086 0.96795 0.74261 0.0
H695 H 0.86814 0.04154 0.74428 0.0
S696 S 0.70261 1.00623 0.73786 0.0
N697 N 0.70861 0.96603 0.73869 0.0
N698 N 0.74906 0.04594 0.73909 0.0
C699 C 0.77186 0.02733 0.73994 0.0
C700 C 0.74993 0.98404 0.74051 0.0
C701 C 0.05873 0.84171 0.79767 0.0
C702 C 0.07092 0.82469 0.76071 0.0
C703 C 0.02101 0.81825 0.82103 0.0
C704 C 0.99483 0.77767 0.80727 0.0
H705 H 0.0778 0.8733 0.80748 0.0
H706 H 0.01153 0.83243 0.84838 0.0
S707 S 0.01429 0.72098 0.71035 0.0
N708 N 0.05574 0.7661 0.71126 0.0
N709 N 0.98422 0.72221 0.75339 0.0
C710 C 1.00778 0.76038 0.77095 0.0
C711 C 0.04611 0.78403 0.74793 0.0
C712 C 0.20575 0.20757 0.82056 0.0
C713 C 0.24872 0.22774 0.82081 0.0
C714 C 0.18509 0.22705 0.80392 0.0
C715 C 0.20658 0.26766 0.78835 0.0
H716 H 0.18781 0.17563 0.8301 0.0
H717 H 0.15224 0.20956 0.8005 0.0
S718 S 0.31873 0.33605 0.78912 0.0
N719 N 0.31178 0.29191 0.80893 0.0
N720 N 0.27268 0.32901 0.77925 0.0
C721 C 0.24925 0.28937 0.79274 0.0
C722 C 0.27043 0.26923 0.80843 0.0
C723 C 0.02178 0.2678 0.3228 0.0
C724 C 0.9966 0.22559 0.32856 0.0
C725 C 0.05864 0.28381 0.29699 0.0
C726 C 0.0711 0.25807 0.27554 0.0
H727 H 0.01173 0.28848 0.33532 0.0
H728 H 0.07567 0.31633 0.29046 0.0
S729 S 0.02168 0.14645 0.2903 0.0
N730 N 0.99105 0.15896 0.31906 0.0
N731 N 0.05982 0.1895 0.26905 0.0
C732 C 0.04868 0.21636 0.28556 0.0
C733 C 0.01154 0.2 0.31268 0.0
C734 C 0.81302 0.84865 0.24334 0.0
C735 C 0.77035 0.827 0.24016 0.0
C736 C 0.83542 0.82868 0.24137 0.0
C737 C 0.81598 0.78618 0.23701 0.0
H738 H 0.82937 0.88156 0.24492 0.0
H739 H 0.86828 0.84667 0.24424 0.0
S740 S 0.70446 0.71522 0.22916 0.0
N741 N 0.70916 0.76075 0.23309 0.0
N742 N 0.75133 0.72281 0.23092 0.0
C743 C 0.77317 0.76398 0.23462 0.0
C744 C 0.75031 0.78442 0.23659 0.0
C745 C 0.2585 0.0181 0.26178 0.0
C746 C 0.24085 0.0427 0.25509 0.0
C747 C 0.23426 0.97585 0.26659 0.0
C748 C 0.19138 0.95649 0.26449 0.0
H749 H 0.29124 0.0316 0.26489 0.0
H750 H 0.24953 0.95822 0.26972 0.0
S751 S 0.13015 1.00748 0.24904 0.0
N752 N 0.17792 0.04484 0.24741 0.0
N753 N 0.13237 0.96551 0.25706 0.0
C754 C 0.17339 0.98092 0.25887 0.0
C755 C 0.19805 0.02384 0.25355 0.0
C756 C 0.97385 0.52368 0.99196 0.0
C757 C 0.01424 0.54157 0.97383 0.0
C758 C 0.96085 0.49689 0.03185 0.0
C759 C 0.98807 0.48785 0.05556 0.0
H760 H 0.95112 0.52688 0.97183 0.0
H761 H 0.92918 0.48251 0.04341 0.0
S762 S 0.09841 0.53249 0.02834 0.0
N763 N 0.08232 0.55256 0.98685 0.0
N764 N 0.0582 0.50298 0.06259 0.0
C765 C 0.02935 0.50887 0.04111 0.0
C766 C 0.04251 0.53602 0.00045 0.0
C767 C 0.51312 0.48693 0.97381 0.0
C768 C 0.48251 0.49602 0.95934 0.0
C769 C 0.53929 0.50649 0.01306 0.0
C770 C 0.53531 0.53507 0.04153 0.0
H771 H 0.51792 0.46514 0.95367 0.0
H772 H 0.56188 0.49802 0.0221 0.0
S773 S 0.45824 0.56788 0.02216 0.0
N774 N 0.44863 0.53417 0.97916 0.0
N775 N 0.49745 0.57139 0.05194 0.0
C776 C 0.50443 0.54413 0.02783 0.0
C777 C 0.47772 0.52399 0.98793 0.0
C778 C 0.47195 0.9906 0.0016 0.0
C779 C 0.49781 0.03091 0.01687 0.0
C780 C 0.48237 0.97432 0.96183 0.0
C781 C 0.51813 0.99825 0.93445 0.0
H782 H 0.44597 0.97011 0.02405 0.0
H783 H 0.46259 0.94264 0.95298 0.0
S784 S 0.59257 0.10718 0.95397 0.0
N785 N 0.55845 0.09533 -0.00185 0.0
N786 N 0.57678 0.0655 0.9216 0.0
C787 C 0.54191 0.03964 0.94612 0.0
C788 C 0.53171 0.05597 0.98725 0.0
C789 C 0.54626 0.05782 0.50854 0.0
C790 C 0.54167 0.02629 0.53953 0.0
C791 C 0.52064 0.05012 0.46851 0.0
C792 C 0.48998 0.01023 0.45584 0.0
H793 H 0.56884 0.08901 0.51621 0.0
H794 H 0.52596 0.07597 0.44632 0.0
S795 S 0.46431 0.91642 0.5253 0.0
N796 N 0.50341 0.95279 0.55417 0.0
N797 N 0.45526 0.93915 0.47988 0.0
C798 C 0.48446 0.97845 0.48696 0.0
C799 C 0.5108 0.98612 0.52761 0.0
C800 C 0.05589 0.52298 0.47724 0.0
C801 C 0.02678 0.49048 0.44982 0.0
C802 C 0.04423 0.53952 0.51579 0.0
C803 C 1.00295 0.52366 0.53065 0.0
H804 H 0.08785 0.53765 0.46699 0.0
H805 H 0.06825 0.56568 0.5339 0.0
S806 S 0.91505 0.43318 0.47738 0.0
N807 N 0.95464 0.43924 0.44481 0.0
N808 N 0.93337 0.47008 0.51769 0.0
C809 C 0.97369 0.48929 0.50587 0.0
C810 C 0.98548 0.47253 0.46606 0.0
C811 C 0.47939 0.52915 0.46314 0.0
C812 C 0.51619 0.54387 0.43699 0.0
C813 C 0.46929 0.50094 0.50127 0.0
C814 C 0.49634 0.48755 0.51594 0.0
H815 H 0.45857 0.53997 0.45465 0.0
H816 H 0.4423 0.4932 0.52307 0.0
S817 S 0.59516 0.51478 0.4565 0.0
N818 N 0.57791 0.5401 0.42508 0.0
N819 N 0.55999 0.48889 0.49849 0.0
C820 C 0.53172 0.49972 0.4876 0.0
C821 C 0.54168 0.52791 0.44824 0.0
C822 C 0.71423 0.89883 0.28902 0.0
C823 C 0.68564 0.90324 0.26164 0.0
C824 C 0.70189 0.8713 0.32821 0.0
C825 C 0.66047 0.84775 0.34338 0.0
H826 H 0.74601 0.9141 0.27783 0.0
H827 H 0.72546 0.86807 0.34616 0.0
S828 S 0.575 0.85638 0.29166 0.0
N829 N 0.61487 0.88728 0.25765 0.0
N830 N 0.59208 0.83666 0.33243 0.0
C831 C 0.63217 0.85516 0.31955 0.0
C832 C 0.64471 0.88294 0.27902 0.0
C833 C 0.11192 0.8149 0.30142 0.0
C834 C 0.11 0.78372 0.27237 0.0
C835 C 0.13957 0.8305 0.33962 0.0
C836 C 0.16583 0.81511 0.35091 0.0
H837 H 0.09625 0.83101 0.2909 0.0
H838 H 0.14214 0.85685 0.35807 0.0
S839 S 0.15865 0.72172 0.29905 0.0
N840 N 0.12623 0.72932 0.26721 0.0
N841 N 0.17846 0.7588 0.33914 0.0
C842 C 0.15841 0.77907 0.32805 0.0
C843 C 0.12984 0.76292 0.28934 0.0
C844 C 0.23362 0.36959 0.27247 0.0
C845 C 0.21788 0.32851 0.25839 0.0
C846 C 0.22229 0.38001 0.31669 0.0
C847 C 0.19504 0.34989 0.34913 0.0
H848 H 0.25326 0.39415 0.24789 0.0
H849 H 0.23464 0.41185 0.32515 0.0
S850 S 0.15184 0.23783 0.33424 0.0
N851 N 0.17908 0.25802 0.2843 0.0
N852 N 0.15668 0.27659 0.36631 0.0
C853 C 0.18162 0.30864 0.33706 0.0
C854 C 0.1937 0.29827 0.29241 0.0
C855 C 0.14717 0.32761 0.84481 0.0
C856 C 0.1734 0.36968 0.85291 0.0
C857 C 0.12047 0.31351 0.80575 0.0
C858 C 0.11963 0.34087 0.77217 0.0
H859 H 0.14871 0.30484 0.86706 0.0
H860 H 0.10428 0.28113 0.79887 0.0
S861 S 0.16957 0.45297 0.78719 0.0
N862 N 0.18785 0.43784 0.83186 0.0
N863 N 0.13751 0.41135 0.758 0.0
C864 C 0.14011 0.38258 0.78467 0.0
C865 C 0.16754 0.39705 0.82462 0.0
C866 C 0.70175 0.84671 0.82867 0.0
C867 C 0.66029 0.82758 0.84383 0.0
C868 C 0.71514 0.83151 0.79074 0.0
C869 C 0.68747 0.79718 0.76488 0.0
H870 H 0.72437 0.87472 0.84519 0.0
H871 H 0.74664 0.84919 0.77878 0.0
S872 S 0.57803 0.72961 0.79711 0.0
N873 N 0.59347 0.76756 0.83582 0.0
N874 N 0.61831 0.7396 0.7632 0.0
C875 C 0.64693 0.77507 0.78308 0.0
C876 C 0.63329 0.79038 0.82224 0.0
C877 C 0.18011 0.88092 0.83531 0.0
C878 C 0.19787 0.85713 0.84859 0.0
C879 C 0.19077 0.90385 0.792 0.0
C880 C 0.2185 0.90284 0.75841 0.0
H881 H 0.15868 0.88313 0.85982 0.0
H882 H 0.17571 0.92107 0.78398 0.0
S883 S 0.27667 0.84837 0.77737 0.0
N884 N 0.24718 0.83681 0.8263 0.0
N885 N 0.26596 0.87782 0.74371 0.0
C886 C 0.23709 0.87962 0.77167 0.0
C887 C 0.22665 0.85685 0.81642 0.0
C888 C 0.37232 0.20117 0.67545 0.0
C889 C 0.34994 0.21411 0.64765 0.0
C890 C 0.35368 0.1731 0.71365 0.0
C891 C 0.3121 0.15714 0.72572 0.0
H892 H 0.40286 0.20887 0.66401 0.0
H893 H 0.37157 0.1624 0.73258 0.0
S894 S 0.24342 0.18969 0.67211 0.0
N895 N 0.28639 0.21484 0.64045 0.0
N896 N 0.2515 0.16249 0.71285 0.0
C897 C 0.29074 0.17336 0.70188 0.0
C898 C 0.30989 0.20224 0.66325 0.0
C899 C 0.85095 0.15176 0.64275 0.0
C900 C 0.82242 0.16438 0.63098 0.0
C901 C 0.88149 0.1719 0.67733 0.0
C902 C 0.88351 0.20405 0.70453 0.0
H903 H 0.85082 0.12681 0.62351 0.0
H904 H 0.90198 0.1604 0.68478 0.0
S905 S 0.81373 0.24661 0.69241 0.0
N906 N 0.79666 0.2095 0.6525 0.0
N907 N 0.85375 0.24772 0.71728 0.0
C908 C 0.85477 0.21674 0.69369 0.0
C909 C 0.82362 0.19606 0.65837 0.0
C910 C 0.88333 0.71601 0.67017 0.0
C911 C 0.84449 0.70386 0.69014 0.0
C912 C 0.88989 0.69007 0.64016 0.0
C913 C 0.85693 0.65354 0.62349 0.0
H914 H 0.90973 0.74363 0.6825 0.0
H915 H 0.92006 0.70132 0.62438 0.0
S916 S 0.74943 0.60773 0.66516 0.0
N917 N 0.77311 0.65188 0.69315 0.0
N918 N 0.78471 0.60486 0.63228 0.0
C919 C 0.81822 0.64059 0.64405 0.0
C920 C 0.81169 0.66652 0.67558 0.0
C921 C 0.82049 0.64894 0.14922 0.0
C922 C 0.82197 0.67879 0.11764 0.0
C923 C 0.84936 0.65896 0.18628 0.0
C924 C 0.87992 0.69974 0.1962 0.0
H925 H 0.79868 0.61717 0.14329 0.0
H926 H 0.84692 0.63411 0.20828 0.0
S927 S 0.8935 0.79046 0.12884 0.0
N928 N 0.85448 0.75195 0.10242 0.0
N929 N 0.90801 0.77019 0.17181 0.0
C930 C 0.88079 0.73006 0.16606 0.0
C931 C 0.85145 0.71989 0.12806 0.0
C932 C 0.38456 0.18862 0.14684 0.0
C933 C 0.35381 0.15743 0.11947 0.0
C934 C 0.37506 0.20643 0.18619 0.0
C935 C 0.33436 0.19375 0.20141 0.0
H936 H 0.41627 0.20065 0.13665 0.0
H937 H 0.40033 0.23041 0.20541 0.0
S938 S 0.24197 0.11115 0.14408 0.0
N939 N 0.28017 0.11269 0.11277 0.0
N940 N 0.26307 0.14712 0.18525 0.0
C941 C 0.30327 0.16221 0.17479 0.0
C942 C 0.31282 0.14358 0.13498 0.0
C943 C 0.83047 0.21252 0.14817 0.0
C944 C 0.86864 0.23241 0.12443 0.0
C945 C 0.82212 0.18336 0.18429 0.0
C946 C 0.85229 0.1747 0.19987 0.0
H947 H 0.80549 0.21604 0.13495 0.0
H948 H 0.79257 0.16929 0.20243 0.0
S949 S 0.95938 0.22435 0.15555 0.0
N950 N 0.93815 0.2451 0.12258 0.0
N951 N 0.92308 0.19166 0.19259 0.0
C952 C 0.8913 0.19635 0.17854 0.0
C953 C 0.89977 0.22604 0.14186 0.0
C954 C 0.10528 0.45619 0.21216 0.0
C955 C 0.1182 0.49507 0.19305 0.0
C956 C 0.11922 0.43138 0.19206 0.0
C957 C 0.14662 0.44425 0.15204 0.0
H958 H 0.0827 0.44393 0.24124 0.0
H959 H 0.10831 0.40152 0.20807 0.0
S960 S 0.19298 0.54476 0.09143 0.0
N961 N 0.16236 0.54647 0.13352 0.0
N962 N 0.18846 0.49927 0.09628 0.0
C963 C 0.1609 0.48337 0.13343 0.0
C964 C 0.14686 0.50893 0.15398 0.0
C965 C 0.54041 0.71085 0.15381 0.0
C966 C 0.57765 0.72446 0.12864 0.0
C967 C 0.52111 0.67336 0.17873 0.0
C968 C 0.53844 0.64802 0.18006 0.0
H969 H 0.52798 0.73099 0.15788 0.0
H970 H 0.49359 0.66533 0.19953 0.0
S971 S 0.63464 0.66889 0.1174 0.0
N972 N 0.62945 0.70835 0.10321 0.0
N973 N 0.59463 0.639 0.15181 0.0
C974 C 0.57432 0.6601 0.15222 0.0
C975 C 0.59343 0.69794 0.12594 0.0
C976 C 0.34322 0.88678 0.14846 0.0
C977 C 0.31424 0.8865 0.18092 0.0
C978 C 0.38467 0.90429 0.16136 0.0
C979 C 0.3996 0.92319 0.20707 0.0
H980 H 0.33384 0.87311 0.11299 0.0
H981 H 0.4054 0.90365 0.1344 0.0
S982 S 0.33641 0.93252 0.30457 0.0
N983 N 0.30382 0.90788 0.26095 0.0
N984 N 0.3811 0.94077 0.28417 0.0
C985 C 0.37084 0.92312 0.23975 0.0
C986 C 0.32858 0.905 0.22691 0.0
C987 C 0.50312 0.15761 0.30639 0.0
C988 C 0.48712 0.11527 0.30593 0.0
C989 C 0.48327 0.17506 0.33202 0.0
C990 C 0.44646 0.15091 0.35795 0.0
H991 H 0.52997 0.17722 0.2847 0.0
H992 H 0.49438 0.20727 0.3271 0.0
S993 S 0.39268 0.03877 0.36983 0.0
N994 N 0.43289 0.04982 0.33526 0.0
N995 N 0.39649 0.0828 0.38393 0.0
C996 C 0.43218 0.10898 0.3611 0.0
C997 C 0.45204 0.09108 0.33463 0.0
C998 C 0.93286 0.33511 0.37064 0.0
C999 C 0.8919 0.3158 0.38692 0.0
C1000 C 0.9486 0.36824 0.33766 0.0
C1001 C 0.92368 0.38255 0.31834 0.0
H1002 H 0.95301 0.32467 0.38374 0.0
H1003 H 0.98025 0.38204 0.32621 0.0
S1004 S 0.81441 0.34272 0.34877 0.0
N1005 N 0.82706 0.31423 0.38147 0.0
N1006 N 0.8561 0.37505 0.31843 0.0
C1007 C 0.88274 0.36348 0.33422 0.0
C1008 C 0.86702 0.33056 0.36874 0.0
C1009 C 0.69838 0.6088 0.29069 0.0
C1010 C 0.71557 0.59397 0.32489 0.0
C1011 C 0.65855 0.58475 0.27379 0.0
C1012 C 0.63404 0.54466 0.29039 0.0
H1013 H 0.71634 0.63942 0.27625 0.0
H1014 H 0.64644 0.59825 0.24906 0.0
S1015 S 0.6652 0.49041 0.37781 0.0
N1016 N 0.70573 0.53622 0.37296 0.0
N1017 N 0.63045 0.49061 0.3421 0.0
C1018 C 0.65112 0.52919 0.32414 0.0
C1019 C 0.69184 0.5539 0.3413 0.0
C1020 C 0.86045 0.54505 0.84529 0.0
C1021 C 0.88506 0.5863 0.85825 0.0
C1022 C 0.87435 0.52523 0.81278 0.0
C1023 C 0.91367 0.54525 0.79065 0.0
H1024 H 0.83032 0.5274 0.86147 0.0
H1025 H 0.8548 0.49292 0.80713 0.0
S1026 S 0.99195 0.6523 0.81487 0.0
N1027 N 0.95186 0.64604 0.84661 0.0
N1028 N 0.97766 0.60883 0.787 0.0
C1029 C 0.93831 0.58668 0.80259 0.0
C1030 C 0.92417 0.60702 0.83568 0.0
C1031 C 0.4373 0.36035 0.8176 0.0
C1032 C 0.47658 0.376 0.79653 0.0
C1033 C 0.41853 0.32362 0.84504 0.0
C1034 C 0.43865 0.30142 0.85434 0.0
H1035 H 0.42066 0.37643 0.81239 0.0
H1036 H 0.38836 0.31314 0.86028 0.0
S1037 S 0.54221 0.32948 0.8085 0.0
N1038 N 0.53457 0.3657 0.78663 0.0
N1039 N 0.50064 0.29859 0.84007 0.0
C1040 C 0.47811 0.31705 0.83392 0.0
C1041 C 0.49663 0.35366 0.80462 0.0
C1042 C 0.66369 0.15261 0.77925 0.0
C1043 C 0.63646 0.11095 0.78666 0.0
C1044 C 0.70304 0.17155 0.79936 0.0
C1045 C 0.71602 0.15005 0.82955 0.0
H1046 H 0.65444 0.17071 0.75815 0.0
H1047 H 0.72397 0.20312 0.79023 0.0
S1048 S 0.65524 0.04076 0.86206 0.0
N1049 N 0.62484 0.04904 0.82711 0.0
N1050 N 0.69792 0.08483 0.86586 0.0
C1051 C 0.68851 0.10874 0.83837 0.0
C1052 C 0.64906 0.08923 0.81675 0.0
C1053 C 0.54114 0.8518 0.65897 0.0
C1054 C 0.57859 0.87357 0.63363 0.0
C1055 C 0.52207 0.87159 0.6812 0.0
C1056 C 0.5398 0.91429 0.6799 0.0
H1057 H 0.52801 0.8194 0.66493 0.0
H1058 H 0.49427 0.85331 0.70201 0.0
S1059 S 0.63744 0.98545 0.61711 0.0
N1060 N 0.6317 0.94008 0.60652 0.0
N1061 N 0.59703 0.97746 0.64945 0.0
C1062 C 0.57616 0.93625 0.65228 0.0
C1063 C 0.59518 0.91588 0.6289 0.0
C1064 C 0.14969 0.67667 0.69651 0.0
C1065 C 0.10775 0.64996 0.69064 0.0
C1066 C 0.1703 0.71331 0.67007 0.0
C1067 C 0.14985 0.72512 0.63686 0.0
H1068 H 0.16652 0.66992 0.723 0.0
H1069 H 0.20193 0.73411 0.67849 0.0
S1070 S 0.04069 0.66468 0.60508 0.0
N1071 N 0.04699 0.63678 0.6465 0.0
N1072 N 0.0859 0.70549 0.59684 0.0
C1073 C 0.10865 0.69734 0.6279 0.0
C1074 C 0.08753 0.65996 0.65496 0.0
C1075 C 0.36743 0.45299 0.72124 0.0
C1076 C 0.39478 0.49219 0.7036 0.0
C1077 C 0.32806 0.43008 0.70184 0.0
C1078 C 0.3141 0.44493 0.66364 0.0
H1079 H 0.37687 0.43928 0.74908 0.0
H1080 H 0.30798 0.40022 0.71722 0.0
S1081 S 0.37237 0.54666 0.60638 0.0
N1082 N 0.40395 0.54564 0.64662 0.0
N1083 N 0.33012 0.50213 0.61082 0.0
C1084 C 0.34065 0.48418 0.64616 0.0
C1085 C 0.38075 0.50781 0.66603 0.0
C1086 C 0.76787 0.77505 0.51544 0.0
C1087 C 0.78296 0.81722 0.51669 0.0
C1088 C 0.78754 0.7585 0.48747 0.0
C1089 C 0.82307 0.78335 0.45935 0.0
H1090 H 0.73875 0.75452 0.53254 0.0
H1091 H 0.77323 0.72575 0.48561 0.0
S1092 S 0.87813 0.89622 0.45668 0.0
N1093 N 0.83795 0.88366 0.49201 0.0
N1094 N 0.87505 0.85295 0.44023 0.0
C1095 C 0.84021 0.82573 0.46378 0.0
C1096 C 0.82019 0.84247 0.49224 0.0
C1097 C 0.26371 0.0449 0.49382 0.0
C1098 C 0.24117 0.05713 0.46448 0.0
C1099 C 0.24497 1.00681 0.51807 0.0
C1100 C 0.20285 0.97953 0.51426 0.0
H1101 H 0.29648 0.06379 0.49582 0.0
H1102 H 0.2641 0.99738 0.53649 0.0
S1103 S 0.12881 0.99861 0.44863 0.0
N1104 N 0.17318 0.04001 0.43836 0.0
N1105 N 0.13861 0.96906 0.48335 0.0
C1106 C 0.1796 0.99271 0.48843 0.0
C1107 C 0.19851 0.03123 0.46373 0.0
C1108 C 1.00212 0.18712 0.50902 0.0
C1109 C 0.98384 0.20957 0.4934 0.0
C1110 C 0.04122 0.20655 0.52933 0.0
C1111 C 0.06224 0.24873 0.53723 0.0
H1112 H 0.98565 0.15427 0.50654 0.0
H1113 H 0.0551 0.18853 0.53902 0.0
S1114 S 0.02753 0.32107 0.50337 0.0
N1115 N 0.98996 0.27626 0.48681 0.0
N1116 N 0.06263 0.31244 0.52659 0.0
C1117 C 0.04429 0.27142 0.52183 0.0
C1118 C 1.0053 0.25192 0.49957 0.0
C1119 C 0.0988 0.4507 0.67826 0.0
C1120 C 0.11752 0.49347 0.67549 0.0
C1121 C 0.1148 0.42929 0.65252 0.0
C1122 C 0.15002 0.44957 0.62255 0.0
H1123 H 0.07041 0.43341 0.69834 0.0
H1124 H 0.09845 0.39641 0.65461 0.0
S1125 S 0.21292 0.56135 0.60649 0.0
N1126 N 0.17532 0.55521 0.64304 0.0
N1127 N 0.2046 0.51518 0.59482 0.0
C1128 C 0.16979 0.49226 0.62105 0.0
C1129 C 0.15387 0.51404 0.64751 0.0
C1130 C 0.54184 0.68323 0.63795 0.0
C1131 C 0.58362 0.70496 0.62493 0.0
C1132 C 0.52673 0.65243 0.67445 0.0
C1133 C 0.55264 0.64146 0.69866 0.0
H1134 H 0.52083 0.69078 0.62072 0.0
H1135 H 0.49444 0.63664 0.6832 0.0
S1136 S 0.66426 0.68861 0.6783 0.0
N1137 N 0.6504 0.71289 0.63991 0.0
N1138 N 0.62205 0.65498 0.70664 0.0
C1139 C 0.5942 0.66252 0.68537 0.0
C1140 C 0.60963 0.6942 0.64916 0.0
C1141 C 0.35305 0.92965 0.67761 0.0
C1142 C 0.37714 0.91104 0.68094 0.0
C1143 C 0.31822 0.91346 0.6482 0.0
C1144 C 0.30518 0.87734 0.62169 0.0
H1145 H 0.36365 0.95933 0.69344 0.0
H1146 H 0.30305 0.931 0.64374 0.0
S1147 S 0.35516 0.81447 0.62198 0.0
N1148 N 0.38398 0.85312 0.65748 0.0
N1149 N 0.31764 0.82171 0.60429 0.0
C1150 C 0.32739 0.85694 0.62739 0.0
C1151 C 0.36318 0.87375 0.65684 0.0
C1152 C 0.54335 0.87149 0.13797 0.0
C1153 C 0.584 0.89245 0.1206 0.0
C1154 C 0.52967 0.88799 0.175 0.0
C1155 C 0.55597 0.92633 0.19539 0.0
H1156 H 0.52232 0.84174 0.12383 0.0
H1157 H 0.49819 0.8709 0.18722 0.0
S1158 S 0.66526 0.99293 0.16313 0.0
N1159 N 0.6502 0.95338 0.12715 0.0
N1160 N 0.62469 0.98417 0.19561 0.0
C1161 C 0.59646 0.94749 0.17791 0.0
C1162 C 0.61038 0.93063 0.14092 0.0
C1163 C 0.16232 0.68899 0.13238 0.0
C1164 C 0.14263 0.71133 0.12163 0.0
C1165 C 0.14428 0.6547 0.16414 0.0
C1166 C 0.10533 0.64061 0.18558 0.0
H1167 H 0.19252 0.69894 0.11759 0.0
H1168 H 0.16102 0.63912 0.17204 0.0
S1169 S 0.0411 0.68825 0.1695 0.0
N1170 N 0.08183 0.71637 0.13526 0.0
N1171 N 0.04813 0.65234 0.19368 0.0
C1172 C 0.0851 0.66217 0.1742 0.0
C1173 C 0.10367 0.69732 0.14272 0.0
C1174 C 0.321 0.48887 0.13621 0.0
C1175 C 0.30175 0.44698 0.12639 0.0
C1176 C 0.35611 0.50792 0.16522 0.0
C1177 C 0.3731 0.48581 0.18622 0.0
H1178 H 0.30982 0.50736 0.1198 0.0
H1179 H 0.37214 0.54076 0.16778 0.0
S1180 S 0.33529 0.37583 0.17046 0.0
N1181 N 0.30358 0.3845 0.13873 0.0
N1182 N 0.36732 0.41963 0.19554 0.0
C1183 C 0.35254 0.44355 0.17911 0.0
C1184 C 0.31769 0.42438 0.14839 0.0
C1185 C 0.18988 0.21269 0.0317 0.0
C1186 C 0.20352 0.25245 0.01523 0.0
C1187 C 0.20883 0.19096 0.01524 0.0
C1188 C 0.24146 0.20794 0.98107 0.0
H1189 H 0.1645 0.19835 0.0572 0.0
H1190 H 0.19895 0.16116 0.03076 0.0
S1191 S 0.28798 0.31127 0.92708 0.0
N1192 N 0.25098 0.30787 0.9627 0.0
N1193 N 0.28642 0.26713 0.93205 0.0
C1194 C 0.25441 0.24726 0.96347 0.0
C1195 C 0.23556 0.26948 0.98061 0.0
C1196 C 0.76613 1.00914 0.01486 0.0
C1197 C 0.78149 0.98212 0.01362 0.0
C1198 C 0.78588 0.04658 0.98922 0.0
C1199 C 0.82166 0.0584 0.96107 0.0
H1200 H 0.73693 0.99987 0.03225 0.0
H1201 H 0.77155 0.06517 0.98916 0.0
S1202 S 0.87715 1.00072 0.95236 0.0
N1203 N 0.83675 0.97168 0.98662 0.0
N1204 N 0.87397 0.04151 0.93918 0.0
C1205 C 0.8389 0.03293 0.96304 0.0
C1206 C 0.81883 0.99505 0.98909 0.0
C1207 C 0.04298 0.7844 0.03282 0.0
C1208 C 0.06777 0.82627 0.02416 0.0
C1209 C 1.00411 0.76264 0.01263 0.0
C1210 C 0.98809 0.7818 0.98342 0.0
H1211 H 0.05389 0.76811 0.05476 0.0
H1212 H 0.98555 0.73063 0.02171 0.0
S1213 S 0.04014 0.89092 0.95031 0.0
N1214 N 0.0737 0.88613 0.98349 0.0
N1215 N 0.99946 0.84511 0.94784 0.0
C1216 C 0.01236 0.82353 0.97434 0.0
C1217 C 0.05246 0.84574 0.99412 0.0
C1218 C 0.44349 0.08831 0.83016 0.0
C1219 C 0.47849 0.11134 0.80048 0.0
C1220 C 0.425 0.10681 0.85724 0.0
C1221 C 0.44096 0.14926 0.85638 0.0
H1222 H 0.42877 0.05547 0.83018 0.0
H1223 H 0.39629 0.08751 0.87584 0.0
S1224 S 0.53481 0.22405 0.79013 0.0
N1225 N 0.53037 0.1797 0.77641 0.0
N1226 N 0.49588 0.21383 0.82662 0.0
C1227 C 0.47735 0.17265 0.82952 0.0
C1228 C 0.496 0.15397 0.80186 0.0
C1229 C 0.9388 0.37524 0.80764 0.0
C1230 C 0.91414 0.38494 0.77873 0.0
C1231 C 0.92197 0.33983 0.8366 0.0
C1232 C 0.87976 0.31275 0.83824 0.0
H1233 H 0.97154 0.39511 0.80791 0.0
H1234 H 0.94212 0.33389 0.85847 0.0
S1235 S 0.80142 0.32252 0.7695 0.0
N1236 N 0.84481 0.3631 0.75317 0.0
N1237 N 0.81353 0.29713 0.80841 0.0
C1238 C 0.85465 0.32153 0.8095 0.0
C1239 C 0.87174 0.35739 0.7795 0.0
C1240 C 0.72155 0.57502 0.81472 0.0
C1241 C 0.73297 0.58703 0.86373 0.0
C1242 C 0.68058 0.55532 0.79966 0.0
C1243 C 0.64881 0.54592 0.83299 0.0
H1244 H 0.74455 0.58139 0.78701 0.0
H1245 H 0.6738 0.54703 0.76185 0.0
S1246 S 0.66138 0.57162 0.96516 0.0
N1247 N 0.70836 0.58857 0.94486 0.0
N1248 N 0.63186 0.55173 0.91765 0.0
C1249 C 0.65974 0.55791 0.88214 0.0
C1250 C 0.70147 0.57825 0.89722 0.0
C1251 C 0.81009 0.81959 0.03614 0.0
C1252 C 0.77755 0.82301 0.01622 0.0
C1253 C 0.82754 0.79889 0.0116 0.0
C1254 C 0.81355 0.78106 0.96582 0.0
H1255 H 0.82203 0.83271 0.07126 0.0
H1256 H 0.85291 0.79787 0.02789 0.0
S1257 S 0.73027 0.78158 0.89654 0.0
N1258 N 0.73289 0.80638 0.94679 0.0
N1259 N 0.76567 0.76852 0.90138 0.0
C1260 C 0.78142 0.78441 0.94544 0.0
C1261 C 0.76341 0.80494 0.97041 0.0
C1262 C 0.20336 0.02022 0.9936 0.0
C1263 C 0.24588 0.04548 0.98683 0.0
C1264 C 0.187 0.98711 0.02664 0.0
C1265 C 0.21248 0.97765 0.05397 0.0
H1266 H 0.18246 0.02599 0.9731 0.0
H1267 H 0.15419 0.96806 0.02965 0.0
S1268 S 0.32536 0.03466 0.0525 0.0
N1269 N 0.31277 0.05786 0.01107 0.0
N1270 N 0.28199 0.99736 0.07438 0.0
C1271 C 0.2548 1.00294 0.04838 0.0
C1272 C 0.27148 0.03635 0.01461 0.0
C1273 C 0.99098 0.19135 0.9727 0.0
C1274 C 0.97441 0.21385 0.95178 0.0
C1275 C 0.02647 0.21 0.00113 0.0
C1276 C 0.0469 0.25207 0.01039 0.0
H1277 H 0.9748 0.15853 0.96969 0.0
H1278 H 0.03716 0.19103 0.01731 0.0
S1279 S 0.01432 0.3242 0.96701 0.0
N1280 N 0.98061 0.28024 0.9437 0.0
N1281 N 0.04698 0.31547 0.99661 0.0
C1282 C 0.0313 0.27512 0.98843 0.0
C1283 C 0.99525 0.25603 0.95934 0.0
C1284 C 0.19292 0.21025 0.52194 0.0
C1285 C 0.21665 0.25183 0.53307 0.0
C1286 C 0.20716 0.19116 0.48932 0.0
C1287 C 0.24571 0.21263 0.46587 0.0
H1288 H 0.16344 0.19197 0.53945 0.0
H1289 H 0.1889 0.15855 0.48486 0.0
S1290 S 0.32074 0.32154 0.48383 0.0
N1291 N 0.28119 0.31376 0.51785 0.0
N1292 N 0.30757 0.27777 0.45738 0.0
C1293 C 0.26912 0.25444 0.47544 0.0
C1294 C 0.25476 0.27396 0.50874 0.0
C1295 C 0.82012 0.04301 0.51797 0.0
C1296 C 0.80761 0.04606 0.47085 0.0
C1297 C 0.80384 1.00505 0.54221 0.0
C1298 C 0.77365 0.96872 0.52088 0.0
H1299 H 0.84331 0.06998 0.53576 0.0
H1300 H 0.81461 1.00429 0.5783 0.0
S1301 S 0.72912 0.96134 0.39878 0.0
N1302 N 0.76273 1.01003 0.40434 0.0
N1303 N 0.73153 0.93961 0.44968 0.0
C1304 C 0.7604 0.97195 0.47414 0.0
C1305 C 0.77753 0.0103 0.44924 0.0
C1306 C 0.03948 0.79034 0.47839 0.0
C1307 C 0.04975 0.82471 0.50786 0.0
C1308 C 1.00277 0.77079 0.45153 0.0
C1309 C 0.97459 0.78487 0.45229 0.0
H1310 H 0.05895 0.777 0.478 0.0
H1311 H 0.99512 0.74278 0.43296 0.0
S1312 S 0.98833 0.87625 0.51805 0.0
N1313 N 0.02946 0.87379 0.53167 0.0
N1314 N 0.96141 0.83746 0.48193 0.0
C1315 C 0.98574 0.8206 0.47904 0.0
C1316 C 0.02284 0.84032 0.50648 0.0
C1317 C 0.87592 0.57272 0.30132 0.0
C1318 C 0.88255 0.58729 0.34934 0.0
C1319 C 0.89365 0.54987 0.28394 0.0
C1320 C 0.91786 0.54083 0.31438 0.0
H1321 H 0.85582 0.57756 0.27798 0.0
H1322 H 0.88712 0.53791 0.24753 0.0
S1323 S 0.94799 0.57705 0.44104 0.0
N1324 N 0.91818 0.59504 0.42477 0.0
N1325 N 0.95021 0.55195 0.39339 0.0
C1326 C 0.92602 0.55733 0.36154 0.0
C1327 C 0.90871 0.58063 0.37864 0.0
C1328 C 0.45902 0.39168 0.34759 0.0
C1329 C 0.4748 0.39184 0.30076 0.0
C1330 C 0.44108 0.35652 0.37734 0.0
C1331 C 0.43685 0.31944 0.36115 0.0
H1332 H 0.46053 0.41893 0.36173 0.0
H1333 H 0.42957 0.35817 0.413 0.0
S1334 S 0.47301 0.30278 0.24217 0.0
N1335 N 0.48533 0.35109 0.24036 0.0
N1336 N 0.45047 0.28508 0.2955 0.0
C1337 C 0.45217 0.31891 0.31449 0.0
C1338 C 0.4714 0.35497 0.28461 0.0
C1339 C 0.67934 0.16394 0.33265 0.0
C1340 C 0.66186 0.12239 0.3211 0.0
C1341 C 0.71692 0.18506 0.35714 0.0
C1342 C 0.73747 0.16499 0.37386 0.0
H1343 H 0.66307 0.17991 0.32422 0.0
H1344 H 0.7297 0.21725 0.36376 0.0
S1345 S 0.70519 0.05657 0.35292 0.0
N1346 N 0.66902 0.06245 0.32764 0.0
N1347 N 0.73834 0.10147 0.37479 0.0
C1348 C 0.72058 0.12365 0.36215 0.0
C1349 C 0.68319 0.10259 0.33577 0.0
loop_
_geom_bond_atom_site_label_1
_geom_bond_atom_site_label_2
_geom_bond_distance
_geom_bond_site_symmetry_2
_ccdc_geom_bond_type
C0 O27 1.312 . S
C0 O28 1.208 . S
C1 O22 1.331 1_655 S
C1 O25 1.244 . S
C2 O24 1.264 . S
C2 O26 1.273 . S
Mg3 O5 1.936 . S
Mg3 O12 2.081 . S
Mg3 O14 2.023 . S
Mg3 O18 2.031 . S
Mg3 O27 2.291 . S
Mg4 O5 1.963 1_655 S
Mg4 O15 1.942 1_655 S
Mg4 O16 1.955 1_655 S
Mg4 O23 1.986 . S
O5 Mg3 1.936 . S
O5 Mg4 1.963 1_455 S
O5 Mg6 1.915 . S
Mg6 O5 1.915 . S
Mg6 O7 1.915 1_455 S
Mg6 O11 2.013 1_455 S
Mg6 O17 2.114 . S
Mg6 O21 2.013 1_455 S
Mg6 O27 2.114 . S
O7 Mg6 1.915 1_655 S
O7 Mg8 1.936 1_655 S
O7 Mg9 1.963 . S
Mg8 O7 1.936 1_455 S
Mg8 O17 2.291 . S
Mg8 O22 2.081 . S
Mg8 O24 2.023 1_455 S
Mg8 O28 2.031 . S
Mg9 O7 1.963 . S
Mg9 O13 1.986 . S
Mg9 O25 1.942 . S
Mg9 O26 1.955 . S
C10 O21 1.191 . S
C10 O23 1.307 . S
O11 Mg6 2.013 1_655 S
O11 C30 1.191 . S
O12 Mg3 2.081 . S
O12 C20 1.331 . S
O13 Mg9 1.986 . S
O13 C30 1.307 . S
O14 Mg3 2.023 . S
O14 C29 1.264 . S
O15 Mg4 1.942 1_455 S
O15 C20 1.244 . S
O16 Mg4 1.955 1_455 S
O16 C29 1.273 . S
O17 Mg6 2.114 . S
O17 Mg8 2.291 . S
O17 C19 1.312 . S
O18 Mg3 2.031 . S
O18 C19 1.208 . S
C19 O17 1.312 . S
C19 O18 1.208 . S
C20 O12 1.331 . S
C20 O15 1.244 . S
O21 Mg6 2.013 1_655 S
O21 C10 1.191 . S
O22 C1 1.331 1_455 S
O22 Mg8 2.081 . S
O23 Mg4 1.986 . S
O23 C10 1.307 . S
O24 C2 1.264 . S
O24 Mg8 2.023 1_655 S
O25 C1 1.244 . S
O25 Mg9 1.942 . S
O26 C2 1.273 . S
O26 Mg9 1.955 . S
O27 C0 1.312 . S
O27 Mg3 2.291 . S
O27 Mg6 2.114 . S
O28 C0 1.208 . S
O28 Mg8 2.031 . S
C29 O14 1.264 . S
C29 O16 1.273 . S
C30 O11 1.191 . S
C30 O13 1.307 . S
C31 O58 1.312 . S
C31 O59 1.208 . S
C32 O53 1.331 . S
C32 O56 1.244 . S
C33 O55 1.264 . S
C33 O57 1.273 . S
Mg34 O36 1.936 . S
Mg34 O43 2.081 . S
Mg34 O45 2.023 . S
Mg34 O49 2.031 . S
Mg34 O58 2.291 . S
Mg35 O36 1.963 . S
Mg35 O46 1.942 . S
Mg35 O47 1.955 . S
Mg35 O54 1.986 . S
O36 Mg34 1.936 . S
O36 Mg35 1.963 . S
O36 Mg37 1.915 . S
Mg37 O36 1.915 . S
Mg37 O38 1.915 . S
Mg37 O42 2.013 . S
Mg37 O48 2.114 . S
Mg37 O52 2.013 . S
Mg37 O58 2.114 . S
O38 Mg37 1.915 . S
O38 Mg39 1.936 . S
O38 Mg40 1.963 . S
Mg39 O38 1.936 . S
Mg39 O48 2.291 . S
Mg39 O53 2.081 . S
Mg39 O55 2.023 . S
Mg39 O59 2.031 . S
Mg40 O38 1.963 . S
Mg40 O44 1.986 . S
Mg40 O56 1.942 . S
Mg40 O57 1.955 . S
C41 O52 1.191 . S
C41 O54 1.307 . S
O42 Mg37 2.013 . S
O42 C61 1.191 . S
O43 Mg34 2.081 . S
O43 C51 1.331 . S
O44 Mg40 1.986 . S
O44 C61 1.307 . S
O45 Mg34 2.023 . S
O45 C60 1.264 . S
O46 Mg35 1.942 . S
O46 C51 1.244 . S
O47 Mg35 1.955 . S
O47 C60 1.273 . S
O48 Mg37 2.114 . S
O48 Mg39 2.291 . S
O48 C50 1.312 . S
O49 Mg34 2.031 . S
O49 C50 1.208 . S
C50 O48 1.312 . S
C50 O49 1.208 . S
C51 O43 1.331 . S
C51 O46 1.244 . S
O52 Mg37 2.013 . S
O52 C41 1.191 . S
O53 C32 1.331 . S
O53 Mg39 2.081 . S
O54 Mg35 1.986 . S
O54 C41 1.307 . S
O55 C33 1.264 . S
O55 Mg39 2.023 . S
O56 C32 1.244 . S
O56 Mg40 1.942 . S
O57 C33 1.273 . S
O57 Mg40 1.955 . S
O58 C31 1.312 . S
O58 Mg34 2.291 . S
O58 Mg37 2.114 . S
O59 C31 1.208 . S
O59 Mg39 2.031 . S
C60 O45 1.264 . S
C60 O47 1.273 . S
C61 O42 1.191 . S
C61 O44 1.307 . S
C62 O89 1.312 . S
C62 O90 1.208 . S
C63 O84 1.331 . S
C63 O87 1.244 . S
C64 O86 1.264 . S
C64 O88 1.273 . S
Mg65 O67 1.936 . S
Mg65 O74 2.081 . S
Mg65 O76 2.023 . S
Mg65 O80 2.031 . S
Mg65 O89 2.291 . S
Mg66 O67 1.963 1_545 S
Mg66 O77 1.942 1_545 S
Mg66 O78 1.955 . S
Mg66 O85 1.986 . S
O67 Mg65 1.936 . S
O67 Mg66 1.963 1_565 S
O67 Mg68 1.915 1_565 S
Mg68 O67 1.915 1_545 S
Mg68 O69 1.915 . S
Mg68 O73 2.013 . S
Mg68 O79 2.114 1_545 S
Mg68 O83 2.013 . S
Mg68 O89 2.114 1_545 S
O69 Mg68 1.915 . S
O69 Mg70 1.936 1_545 S
O69 Mg71 1.963 . S
Mg70 O69 1.936 1_565 S
Mg70 O79 2.291 . S
Mg70 O84 2.081 1_565 S
Mg70 O86 2.023 1_565 S
Mg70 O90 2.031 . S
Mg71 O69 1.963 . S
Mg71 O75 1.986 . S
Mg71 O87 1.942 . S
Mg71 O88 1.955 . S
C72 O83 1.191 . S
C72 O85 1.307 . S
O73 Mg68 2.013 . S
O73 C92 1.191 . S
O74 Mg65 2.081 . S
O74 C82 1.331 . S
O75 Mg71 1.986 . S
O75 C92 1.307 . S
O76 Mg65 2.023 . S
O76 C91 1.264 . S
O77 Mg66 1.942 1_565 S
O77 C82 1.244 . S
O78 Mg66 1.955 . S
O78 C91 1.273 1_545 S
O79 Mg68 2.114 1_565 S
O79 Mg70 2.291 . S
O79 C81 1.312 . S
O80 Mg65 2.031 . S
O80 C81 1.208 . S
C81 O79 1.312 . S
C81 O80 1.208 . S
C82 O74 1.331 . S
C82 O77 1.244 . S
O83 Mg68 2.013 . S
O83 C72 1.191 . S
O84 C63 1.331 . S
O84 Mg70 2.081 1_545 S
O85 Mg66 1.986 . S
O85 C72 1.307 . S
O86 C64 1.264 . S
O86 Mg70 2.023 1_545 S
O87 C63 1.244 . S
O87 Mg71 1.942 . S
O88 C64 1.273 . S
O88 Mg71 1.955 . S
O89 C62 1.312 . S
O89 Mg65 2.291 . S
O89 Mg68 2.114 1_565 S
O90 C62 1.208 . S
O90 Mg70 2.031 . S
C91 O76 1.264 . S
C91 O78 1.273 1_565 S
C92 O73 1.191 . S
C92 O75 1.307 . S
C93 O120 1.312 . S
C93 O121 1.208 . S
C94 O115 1.331 . S
C94 O118 1.244 . S
C95 O117 1.264 . S
C95 O119 1.273 1_655 S
Mg96 O98 1.936 1_655 S
Mg96 O105 2.081 1_655 S
Mg96 O107 2.023 1_655 S
Mg96 O111 2.031 . S
Mg96 O120 2.291 . S
Mg97 O98 1.963 . S
Mg97 O108 1.942 . S
Mg97 O109 1.955 . S
Mg97 O116 1.986 . S
O98 Mg96 1.936 1_455 S
O98 Mg97 1.963 . S
O98 Mg99 1.915 . S
Mg99 O98 1.915 . S
Mg99 O100 1.915 1_455 S
Mg99 O104 2.013 . S
Mg99 O110 2.114 1_455 S
Mg99 O114 2.013 . S
Mg99 O120 2.114 1_455 S
O100 Mg99 1.915 1_655 S
O100 Mg101 1.936 . S
O100 Mg102 1.963 1_655 S
Mg101 O100 1.936 . S
Mg101 O110 2.291 . S
Mg101 O115 2.081 . S
Mg101 O117 2.023 . S
Mg101 O121 2.031 . S
Mg102 O100 1.963 1_455 S
Mg102 O106 1.986 . S
Mg102 O118 1.942 1_455 S
Mg102 O119 1.955 . S
C103 O114 1.191 . S
C103 O116 1.307 . S
O104 Mg99 2.013 . S
O104 C123 1.191 . S
O105 Mg96 2.081 1_455 S
O105 C113 1.331 . S
O106 Mg102 1.986 . S
O106 C123 1.307 . S
O107 Mg96 2.023 1_455 S
O107 C122 1.264 . S
O108 Mg97 1.942 . S
O108 C113 1.244 . S
O109 Mg97 1.955 . S
O109 C122 1.273 . S
O110 Mg99 2.114 1_655 S
O110 Mg101 2.291 . S
O110 C112 1.312 . S
O111 Mg96 2.031 . S
O111 C112 1.208 . S
C112 O110 1.312 . S
C112 O111 1.208 . S
C113 O105 1.331 . S
C113 O108 1.244 . S
O114 Mg99 2.013 . S
O114 C103 1.191 . S
O115 C94 1.331 . S
O115 Mg101 2.081 . S
O116 Mg97 1.986 . S
O116 C103 1.307 . S
O117 C95 1.264 . S
O117 Mg101 2.023 . S
O118 C94 1.244 . S
O118 Mg102 1.942 1_655 S
O119 C95 1.273 1_455 S
O119 Mg102 1.955 . S
O120 C93 1.312 . S
O120 Mg96 2.291 . S
O120 Mg99 2.114 1_655 S
O121 C93 1.208 . S
O121 Mg101 2.031 . S
C122 O107 1.264 . S
C122 O109 1.273 . S
C123 O104 1.191 . S
C123 O106 1.307 . S
C124 O151 1.312 . S
C124 O152 1.208 . S
C125 O146 1.331 . S
C125 O149 1.244 . S
C126 O148 1.264 . S
C126 O150 1.273 . S
Mg127 O129 1.936 . S
Mg127 O136 2.081 . S
Mg127 O138 2.023 . S
Mg127 O142 2.031 . S
Mg127 O151 2.291 . S
Mg128 O129 1.963 . S
Mg128 O139 1.942 . S
Mg128 O140 1.955 . S
Mg128 O147 1.986 . S
O129 Mg127 1.936 . S
O129 Mg128 1.963 . S
O129 Mg130 1.915 . S
Mg130 O129 1.915 . S
Mg130 O131 1.915 . S
Mg130 O135 2.013 . S
Mg130 O141 2.114 . S
Mg130 O145 2.013 . S
Mg130 O151 2.114 . S
O131 Mg130 1.915 . S
O131 Mg132 1.936 . S
O131 Mg133 1.963 . S
Mg132 O131 1.936 . S
Mg132 O141 2.291 . S
Mg132 O146 2.081 . S
Mg132 O148 2.023 . S
Mg132 O152 2.031 . S
Mg133 O131 1.963 . S
Mg133 O137 1.986 . S
Mg133 O149 1.942 . S
Mg133 O150 1.955 . S
C134 O145 1.191 . S
C134 O147 1.307 . S
O135 Mg130 2.013 . S
O135 C154 1.191 . S
O136 Mg127 2.081 . S
O136 C144 1.331 . S
O137 Mg133 1.986 . S
O137 C154 1.307 . S
O138 Mg127 2.023 . S
O138 C153 1.264 . S
O139 Mg128 1.942 . S
O139 C144 1.244 . S
O140 Mg128 1.955 . S
O140 C153 1.273 . S
O141 Mg130 2.114 . S
O141 Mg132 2.291 . S
O141 C143 1.312 . S
O142 Mg127 2.031 . S
O142 C143 1.208 . S
C143 O141 1.312 . S
C143 O142 1.208 . S
C144 O136 1.331 . S
C144 O139 1.244 . S
O145 Mg130 2.013 . S
O145 C134 1.191 . S
O146 C125 1.331 . S
O146 Mg132 2.081 . S
O147 Mg128 1.986 . S
O147 C134 1.307 . S
O148 C126 1.264 . S
O148 Mg132 2.023 . S
O149 C125 1.244 . S
O149 Mg133 1.942 . S
O150 C126 1.273 . S
O150 Mg133 1.955 . S
O151 C124 1.312 . S
O151 Mg127 2.291 . S
O151 Mg130 2.114 . S
O152 C124 1.208 . S
O152 Mg132 2.031 . S
C153 O138 1.264 . S
C153 O140 1.273 . S
C154 O135 1.191 . S
C154 O137 1.307 . S
C155 O182 1.312 . S
C155 O183 1.208 . S
C156 O177 1.331 . S
C156 O180 1.244 . S
C157 O179 1.264 . S
C157 O181 1.273 . S
Mg158 O160 1.936 1_545 S
Mg158 O167 2.081 . S
Mg158 O169 2.023 1_545 S
Mg158 O173 2.031 . S
Mg158 O182 2.291 . S
Mg159 O160 1.963 . S
Mg159 O170 1.942 . S
Mg159 O171 1.955 . S
Mg159 O178 1.986 . S
O160 Mg158 1.936 1_565 S
O160 Mg159 1.963 . S
O160 Mg161 1.915 1_565 S
Mg161 O160 1.915 1_545 S
Mg161 O162 1.915 . S
Mg161 O166 2.013 1_545 S
Mg161 O172 2.114 . S
Mg161 O176 2.013 1_545 S
Mg161 O182 2.114 . S
O162 Mg161 1.915 . S
O162 Mg163 1.936 . S
O162 Mg164 1.963 1_545 S
Mg163 O162 1.936 . S
Mg163 O172 2.291 . S
Mg163 O177 2.081 . S
Mg163 O179 2.023 . S
Mg163 O183 2.031 . S
Mg164 O162 1.963 1_565 S
Mg164 O168 1.986 . S
Mg164 O180 1.942 1_565 S
Mg164 O181 1.955 1_565 S
C165 O176 1.191 . S
C165 O178 1.307 . S
O166 Mg161 2.013 1_565 S
O166 C185 1.191 . S
O167 Mg158 2.081 . S
O167 C175 1.331 1_545 S
O168 Mg164 1.986 . S
O168 C185 1.307 . S
O169 Mg158 2.023 1_565 S
O169 C184 1.264 . S
O170 Mg159 1.942 . S
O170 C175 1.244 . S
O171 Mg159 1.955 . S
O171 C184 1.273 . S
O172 Mg161 2.114 . S
O172 Mg163 2.291 . S
O172 C174 1.312 . S
O173 Mg158 2.031 . S
O173 C174 1.208 . S
C174 O172 1.312 . S
C174 O173 1.208 . S
C175 O167 1.331 1_565 S
C175 O170 1.244 . S
O176 Mg161 2.013 1_565 S
O176 C165 1.191 . S
O177 C156 1.331 . S
O177 Mg163 2.081 . S
O178 Mg159 1.986 . S
O178 C165 1.307 . S
O179 C157 1.264 . S
O179 Mg163 2.023 . S
O180 C156 1.244 . S
O180 Mg164 1.942 1_545 S
O181 C157 1.273 . S
O181 Mg164 1.955 1_545 S
O182 C155 1.312 . S
O182 Mg158 2.291 . S
O182 Mg161 2.114 . S
O183 C155 1.208 . S
O183 Mg163 2.031 . S
C184 O169 1.264 . S
C184 O171 1.273 . S
C185 O166 1.191 . S
C185 O168 1.307 . S
C186 O213 1.312 . S
C186 O214 1.208 . S
C187 O208 1.331 . S
C187 O211 1.244 . S
C188 O210 1.264 . S
C188 O212 1.273 . S
Mg189 O191 1.936 . S
Mg189 O198 2.081 . S
Mg189 O200 2.023 . S
Mg189 O204 2.031 . S
Mg189 O213 2.291 . S
Mg190 O191 1.963 . S
Mg190 O201 1.942 . S
Mg190 O202 1.955 . S
Mg190 O209 1.986 . S
O191 Mg189 1.936 . S
O191 Mg190 1.963 . S
O191 Mg192 1.915 . S
Mg192 O191 1.915 . S
Mg192 O193 1.915 . S
Mg192 O197 2.013 . S
Mg192 O203 2.114 . S
Mg192 O207 2.013 . S
Mg192 O213 2.114 . S
O193 Mg192 1.915 . S
O193 Mg194 1.936 . S
O193 Mg195 1.963 . S
Mg194 O193 1.936 . S
Mg194 O203 2.291 . S
Mg194 O208 2.081 . S
Mg194 O210 2.023 . S
Mg194 O214 2.031 . S
Mg195 O193 1.963 . S
Mg195 O199 1.986 . S
Mg195 O211 1.942 . S
Mg195 O212 1.955 . S
C196 O207 1.191 . S
C196 O209 1.307 . S
O197 Mg192 2.013 . S
O197 C216 1.191 . S
O198 Mg189 2.081 . S
O198 C206 1.331 . S
O199 Mg195 1.986 . S
O199 C216 1.307 . S
O200 Mg189 2.023 . S
O200 C215 1.264 . S
O201 Mg190 1.942 . S
O201 C206 1.244 . S
O202 Mg190 1.955 . S
O202 C215 1.273 . S
O203 Mg192 2.114 . S
O203 Mg194 2.291 . S
O203 C205 1.312 . S
O204 Mg189 2.031 . S
O204 C205 1.208 . S
C205 O203 1.312 . S
C205 O204 1.208 . S
C206 O198 1.331 . S
C206 O201 1.244 . S
O207 Mg192 2.013 . S
O207 C196 1.191 . S
O208 C187 1.331 . S
O208 Mg194 2.081 . S
O209 Mg190 1.986 . S
O209 C196 1.307 . S
O210 C188 1.264 . S
O210 Mg194 2.023 . S
O211 C187 1.244 . S
O211 Mg195 1.942 . S
O212 C188 1.273 . S
O212 Mg195 1.955 . S
O213 C186 1.312 . S
O213 Mg189 2.291 . S
O213 Mg192 2.114 . S
O214 C186 1.208 . S
O214 Mg194 2.031 . S
C215 O200 1.264 . S
C215 O202 1.273 . S
C216 O197 1.191 . S
C216 O199 1.307 . S
C217 O244 1.312 . S
C217 O245 1.208 . S
C218 O239 1.331 . S
C218 O242 1.244 . S
C219 O241 1.264 . S
C219 O243 1.273 . S
Mg220 O222 1.936 . S
Mg220 O229 2.081 . S
Mg220 O231 2.023 . S
Mg220 O235 2.031 . S
Mg220 O244 2.291 . S
Mg221 O222 1.963 . S
Mg221 O232 1.942 . S
Mg221 O233 1.955 . S
Mg221 O240 1.986 . S
O222 Mg220 1.936 . S
O222 Mg221 1.963 . S
O222 Mg223 1.915 . S
Mg223 O222 1.915 . S
Mg223 O224 1.915 . S
Mg223 O228 2.013 . S
Mg223 O234 2.114 . S
Mg223 O238 2.013 . S
Mg223 O244 2.114 . S
O224 Mg223 1.915 . S
O224 Mg225 1.936 . S
O224 Mg226 1.963 . S
Mg225 O224 1.936 . S
Mg225 O234 2.291 . S
Mg225 O239 2.081 . S
Mg225 O241 2.023 . S
Mg225 O245 2.031 . S
Mg226 O224 1.963 . S
Mg226 O230 1.986 . S
Mg226 O242 1.942 . S
Mg226 O243 1.955 . S
C227 O238 1.191 . S
C227 O240 1.307 . S
O228 Mg223 2.013 . S
O228 C247 1.191 . S
O229 Mg220 2.081 . S
O229 C237 1.331 . S
O230 Mg226 1.986 . S
O230 C247 1.307 . S
O231 Mg220 2.023 . S
O231 C246 1.264 . S
O232 Mg221 1.942 . S
O232 C237 1.244 . S
O233 Mg221 1.955 . S
O233 C246 1.273 . S
O234 Mg223 2.114 . S
O234 Mg225 2.291 . S
O234 C236 1.312 . S
O235 Mg220 2.031 . S
O235 C236 1.208 . S
C236 O234 1.312 . S
C236 O235 1.208 . S
C237 O229 1.331 . S
C237 O232 1.244 . S
O238 Mg223 2.013 . S
O238 C227 1.191 . S
O239 C218 1.331 . S
O239 Mg225 2.081 . S
O240 Mg221 1.986 . S
O240 C227 1.307 . S
O241 C219 1.264 . S
O241 Mg225 2.023 . S
O242 C218 1.244 . S
O242 Mg226 1.942 . S
O243 C219 1.273 . S
O243 Mg226 1.955 . S
O244 C217 1.312 . S
O244 Mg220 2.291 . S
O244 Mg223 2.114 . S
O245 C217 1.208 . S
O245 Mg225 2.031 . S
C246 O231 1.264 . S
C246 O233 1.273 . S
C247 O228 1.191 . S
C247 O230 1.307 . S
C248 O275 1.312 . S
C248 O276 1.208 . S
C249 O270 1.331 . S
C249 O273 1.244 . S
C250 O272 1.264 . S
C250 O274 1.273 . S
Mg251 O253 1.936 . S
Mg251 O260 2.081 . S
Mg251 O262 2.023 . S
Mg251 O266 2.031 . S
Mg251 O275 2.291 . S
Mg252 O253 1.963 . S
Mg252 O263 1.942 . S
Mg252 O264 1.955 . S
Mg252 O271 1.986 . S
O253 Mg251 1.936 . S
O253 Mg252 1.963 . S
O253 Mg254 1.915 . S
Mg254 O253 1.915 . S
Mg254 O255 1.915 . S
Mg254 O259 2.013 . S
Mg254 O265 2.114 . S
Mg254 O269 2.013 . S
Mg254 O275 2.114 . S
O255 Mg254 1.915 . S
O255 Mg256 1.936 . S
O255 Mg257 1.963 . S
Mg256 O255 1.936 . S
Mg256 O265 2.291 . S
Mg256 O270 2.081 . S
Mg256 O272 2.023 . S
Mg256 O276 2.031 . S
Mg257 O255 1.963 . S
Mg257 O261 1.986 . S
Mg257 O273 1.942 . S
Mg257 O274 1.955 . S
C258 O269 1.191 . S
C258 O271 1.307 . S
O259 Mg254 2.013 . S
O259 C278 1.191 . S
O260 Mg251 2.081 . S
O260 C268 1.331 . S
O261 Mg257 1.986 . S
O261 C278 1.307 . S
O262 Mg251 2.023 . S
O262 C277 1.264 . S
O263 Mg252 1.942 . S
O263 C268 1.244 . S
O264 Mg252 1.955 . S
O264 C277 1.273 . S
O265 Mg254 2.114 . S
O265 Mg256 2.291 . S
O265 C267 1.312 . S
O266 Mg251 2.031 . S
O266 C267 1.208 . S
C267 O265 1.312 . S
C267 O266 1.208 . S
C268 O260 1.331 . S
C268 O263 1.244 . S
O269 Mg254 2.013 . S
O269 C258 1.191 . S
O270 C249 1.331 . S
O270 Mg256 2.081 . S
O271 Mg252 1.986 . S
O271 C258 1.307 . S
O272 C250 1.264 . S
O272 Mg256 2.023 . S
O273 C249 1.244 . S
O273 Mg257 1.942 . S
O274 C250 1.273 . S
O274 Mg257 1.955 . S
O275 C248 1.312 . S
O275 Mg251 2.291 . S
O275 Mg254 2.114 . S
O276 C248 1.208 . S
O276 Mg256 2.031 . S
C277 O262 1.264 . S
C277 O264 1.273 . S
C278 O259 1.191 . S
C278 O261 1.307 . S
C279 O306 1.312 . S
C279 O307 1.208 . S
C280 O301 1.331 . S
C280 O304 1.244 . S
C281 O303 1.264 . S
C281 O305 1.273 . S
Mg282 O284 1.936 . S
Mg282 O291 2.081 . S
Mg282 O293 2.023 . S
Mg282 O297 2.031 . S
Mg282 O306 2.291 . S
Mg283 O284 1.963 . S
Mg283 O294 1.942 . S
Mg283 O295 1.955 . S
Mg283 O302 1.986 . S
O284 Mg282 1.936 . S
O284 Mg283 1.963 . S
O284 Mg285 1.915 . S
Mg285 O284 1.915 . S
Mg285 O286 1.915 . S
Mg285 O290 2.013 . S
Mg285 O296 2.114 . S
Mg285 O300 2.013 . S
Mg285 O306 2.114 . S
O286 Mg285 1.915 . S
O286 Mg287 1.936 1_554 S
O286 Mg288 1.963 . S
Mg287 O286 1.936 1_556 S
Mg287 O296 2.291 1_556 S
Mg287 O301 2.081 . S
Mg287 O303 2.023 . S
Mg287 O307 2.031 1_556 S
Mg288 O286 1.963 . S
Mg288 O292 1.986 . S
Mg288 O304 1.942 1_554 S
Mg288 O305 1.955 1_554 S
C289 O300 1.191 . S
C289 O302 1.307 . S
O290 Mg285 2.013 . S
O290 C309 1.191 . S
O291 Mg282 2.081 . S
O291 C299 1.331 . S
O292 Mg288 1.986 . S
O292 C309 1.307 . S
O293 Mg282 2.023 . S
O293 C308 1.264 . S
O294 Mg283 1.942 . S
O294 C299 1.244 . S
O295 Mg283 1.955 . S
O295 C308 1.273 . S
O296 Mg285 2.114 . S
O296 Mg287 2.291 1_554 S
O296 C298 1.312 . S
O297 Mg282 2.031 . S
O297 C298 1.208 . S
C298 O296 1.312 . S
C298 O297 1.208 . S
C299 O291 1.331 . S
C299 O294 1.244 . S
O300 Mg285 2.013 . S
O300 C289 1.191 . S
O301 C280 1.331 . S
O301 Mg287 2.081 . S
O302 Mg283 1.986 . S
O302 C289 1.307 . S
O303 C281 1.264 . S
O303 Mg287 2.023 . S
O304 C280 1.244 . S
O304 Mg288 1.942 1_556 S
O305 C281 1.273 . S
O305 Mg288 1.955 1_556 S
O306 C279 1.312 . S
O306 Mg282 2.291 . S
O306 Mg285 2.114 . S
O307 C279 1.208 . S
O307 Mg287 2.031 1_554 S
C308 O293 1.264 . S
C308 O295 1.273 . S
C309 O290 1.191 . S
C309 O292 1.307 . S
C310 O337 1.312 . S
C310 O338 1.208 . S
C311 O332 1.331 . S
C311 O335 1.244 . S
C312 O334 1.264 . S
C312 O336 1.273 . S
Mg313 O315 1.936 . S
Mg313 O322 2.081 . S
Mg313 O324 2.023 . S
Mg313 O328 2.031 . S
Mg313 O337 2.291 . S
Mg314 O315 1.963 . S
Mg314 O325 1.942 . S
Mg314 O326 1.955 . S
Mg314 O333 1.986 . S
O315 Mg313 1.936 . S
O315 Mg314 1.963 . S
O315 Mg316 1.915 . S
Mg316 O315 1.915 . S
Mg316 O317 1.915 . S
Mg316 O321 2.013 . S
Mg316 O327 2.114 . S
Mg316 O331 2.013 . S
Mg316 O337 2.114 . S
O317 Mg316 1.915 . S
O317 Mg318 1.936 1_554 S
O317 Mg319 1.963 . S
Mg318 O317 1.936 1_556 S
Mg318 O327 2.291 1_556 S
Mg318 O332 2.081 . S
Mg318 O334 2.023 . S
Mg318 O338 2.031 1_556 S
Mg319 O317 1.963 . S
Mg319 O323 1.986 . S
Mg319 O335 1.942 1_554 S
Mg319 O336 1.955 1_554 S
C320 O331 1.191 . S
C320 O333 1.307 . S
O321 Mg316 2.013 . S
O321 C340 1.191 . S
O322 Mg313 2.081 . S
O322 C330 1.331 . S
O323 Mg319 1.986 . S
O323 C340 1.307 . S
O324 Mg313 2.023 . S
O324 C339 1.264 . S
O325 Mg314 1.942 . S
O325 C330 1.244 . S
O326 Mg314 1.955 . S
O326 C339 1.273 . S
O327 Mg316 2.114 . S
O327 Mg318 2.291 1_554 S
O327 C329 1.312 . S
O328 Mg313 2.031 . S
O328 C329 1.208 . S
C329 O327 1.312 . S
C329 O328 1.208 . S
C330 O322 1.331 . S
C330 O325 1.244 . S
O331 Mg316 2.013 . S
O331 C320 1.191 . S
O332 C311 1.331 . S
O332 Mg318 2.081 . S
O333 Mg314 1.986 . S
O333 C320 1.307 . S
O334 C312 1.264 . S
O334 Mg318 2.023 . S
O335 C311 1.244 . S
O335 Mg319 1.942 1_556 S
O336 C312 1.273 . S
O336 Mg319 1.955 1_556 S
O337 C310 1.312 . S
O337 Mg313 2.291 . S
O337 Mg316 2.114 . S
O338 C310 1.208 . S
O338 Mg318 2.031 1_554 S
C339 O324 1.264 . S
C339 O326 1.273 . S
C340 O321 1.191 . S
C340 O323 1.307 . S
C341 O368 1.312 . S
C341 O369 1.208 . S
C342 O363 1.331 . S
C342 O366 1.244 . S
C343 O365 1.264 . S
C343 O367 1.273 . S
Mg344 O346 1.936 . S
Mg344 O353 2.081 . S
Mg344 O355 2.023 . S
Mg344 O359 2.031 . S
Mg344 O368 2.291 . S
Mg345 O346 1.963 . S
Mg345 O356 1.942 . S
Mg345 O357 1.955 . S
Mg345 O364 1.986 . S
O346 Mg344 1.936 . S
O346 Mg345 1.963 . S
O346 Mg347 1.915 . S
Mg347 O346 1.915 . S
Mg347 O348 1.915 . S
Mg347 O352 2.013 . S
Mg347 O358 2.114 . S
Mg347 O362 2.013 . S
Mg347 O368 2.114 . S
O348 Mg347 1.915 . S
O348 Mg349 1.936 1_554 S
O348 Mg350 1.963 . S
Mg349 O348 1.936 1_556 S
Mg349 O358 2.291 1_556 S
Mg349 O363 2.081 . S
Mg349 O365 2.023 . S
Mg349 O369 2.031 1_556 S
Mg350 O348 1.963 . S
Mg350 O354 1.986 . S
Mg350 O366 1.942 1_554 S
Mg350 O367 1.955 1_554 S
C351 O362 1.191 . S
C351 O364 1.307 . S
O352 Mg347 2.013 . S
O352 C371 1.191 . S
O353 Mg344 2.081 . S
O353 C361 1.331 . S
O354 Mg350 1.986 . S
O354 C371 1.307 . S
O355 Mg344 2.023 . S
O355 C370 1.264 . S
O356 Mg345 1.942 . S
O356 C361 1.244 . S
O357 Mg345 1.955 . S
O357 C370 1.273 . S
O358 Mg347 2.114 . S
O358 Mg349 2.291 1_554 S
O358 C360 1.312 . S
O359 Mg344 2.031 . S
O359 C360 1.208 . S
C360 O358 1.312 . S
C360 O359 1.208 . S
C361 O353 1.331 . S
C361 O356 1.244 . S
O362 Mg347 2.013 . S
O362 C351 1.191 . S
O363 C342 1.331 . S
O363 Mg349 2.081 . S
O364 Mg345 1.986 . S
O364 C351 1.307 . S
O365 C343 1.264 . S
O365 Mg349 2.023 . S
O366 C342 1.244 . S
O366 Mg350 1.942 1_556 S
O367 C343 1.273 . S
O367 Mg350 1.955 1_556 S
O368 C341 1.312 . S
O368 Mg344 2.291 . S
O368 Mg347 2.114 . S
O369 C341 1.208 . S
O369 Mg349 2.031 1_554 S
C370 O355 1.264 . S
C370 O357 1.273 . S
C371 O352 1.191 . S
C371 O354 1.307 . S
C372 O399 1.312 . S
C372 O400 1.208 . S
C373 O394 1.331 . S
C373 O397 1.244 . S
C374 O396 1.264 . S
C374 O398 1.273 . S
Mg375 O377 1.936 . S
Mg375 O384 2.081 . S
Mg375 O386 2.023 . S
Mg375 O390 2.031 . S
Mg375 O399 2.291 . S
Mg376 O377 1.963 . S
Mg376 O387 1.942 . S
Mg376 O388 1.955 . S
Mg376 O395 1.986 . S
O377 Mg375 1.936 . S
O377 Mg376 1.963 . S
O377 Mg378 1.915 . S
Mg378 O377 1.915 . S
Mg378 O379 1.915 . S
Mg378 O383 2.013 . S
Mg378 O389 2.114 . S
Mg378 O393 2.013 . S
Mg378 O399 2.114 . S
O379 Mg378 1.915 . S
O379 Mg380 1.936 . S
O379 Mg381 1.963 1_556 S
Mg380 O379 1.936 . S
Mg380 O389 2.291 . S
Mg380 O394 2.081 1_556 S
Mg380 O396 2.023 1_556 S
Mg380 O400 2.031 . S
Mg381 O379 1.963 1_554 S
Mg381 O385 1.986 . S
Mg381 O397 1.942 . S
Mg381 O398 1.955 . S
C382 O393 1.191 . S
C382 O395 1.307 . S
O383 Mg378 2.013 . S
O383 C402 1.191 . S
O384 Mg375 2.081 . S
O384 C392 1.331 . S
O385 Mg381 1.986 . S
O385 C402 1.307 1_554 S
O386 Mg375 2.023 . S
O386 C401 1.264 . S
O387 Mg376 1.942 . S
O387 C392 1.244 . S
O388 Mg376 1.955 . S
O388 C401 1.273 . S
O389 Mg378 2.114 . S
O389 Mg380 2.291 . S
O389 C391 1.312 . S
O390 Mg375 2.031 . S
O390 C391 1.208 . S
C391 O389 1.312 . S
C391 O390 1.208 . S
C392 O384 1.331 . S
C392 O387 1.244 . S
O393 Mg378 2.013 . S
O393 C382 1.191 . S
O394 C373 1.331 . S
O394 Mg380 2.081 1_554 S
O395 Mg376 1.986 . S
O395 C382 1.307 . S
O396 C374 1.264 . S
O396 Mg380 2.023 1_554 S
O397 C373 1.244 . S
O397 Mg381 1.942 . S
O398 C374 1.273 . S
O398 Mg381 1.955 . S
O399 C372 1.312 . S
O399 Mg375 2.291 . S
O399 Mg378 2.114 . S
O400 C372 1.208 . S
O400 Mg380 2.031 . S
C401 O386 1.264 . S
C401 O388 1.273 . S
C402 O383 1.191 . S
C402 O385 1.307 1_556 S
C403 O430 1.312 . S
C403 O431 1.208 . S
C404 O425 1.331 . S
C404 O428 1.244 . S
C405 O427 1.264 . S
C405 O429 1.273 . S
Mg406 O408 1.936 . S
Mg406 O415 2.081 . S
Mg406 O417 2.023 . S
Mg406 O421 2.031 . S
Mg406 O430 2.291 . S
Mg407 O408 1.963 . S
Mg407 O418 1.942 . S
Mg407 O419 1.955 . S
Mg407 O426 1.986 . S
O408 Mg406 1.936 . S
O408 Mg407 1.963 . S
O408 Mg409 1.915 . S
Mg409 O408 1.915 . S
Mg409 O410 1.915 . S
Mg409 O414 2.013 . S
Mg409 O420 2.114 . S
Mg409 O424 2.013 . S
Mg409 O430 2.114 . S
O410 Mg409 1.915 . S
O410 Mg411 1.936 1_556 S
O410 Mg412 1.963 . S
Mg411 O410 1.936 1_554 S
Mg411 O420 2.291 1_554 S
Mg411 O425 2.081 . S
Mg411 O427 2.023 . S
Mg411 O431 2.031 1_554 S
Mg412 O410 1.963 . S
Mg412 O416 1.986 . S
Mg412 O428 1.942 1_556 S
Mg412 O429 1.955 1_556 S
C413 O424 1.191 . S
C413 O426 1.307 . S
O414 Mg409 2.013 . S
O414 C433 1.191 . S
O415 Mg406 2.081 . S
O415 C423 1.331 . S
O416 Mg412 1.986 . S
O416 C433 1.307 . S
O417 Mg406 2.023 . S
O417 C432 1.264 . S
O418 Mg407 1.942 . S
O418 C423 1.244 . S
O419 Mg407 1.955 . S
O419 C432 1.273 . S
O420 Mg409 2.114 . S
O420 Mg411 2.291 1_556 S
O420 C422 1.312 . S
O421 Mg406 2.031 . S
O421 C422 1.208 . S
C422 O420 1.312 . S
C422 O421 1.208 . S
C423 O415 1.331 . S
C423 O418 1.244 . S
O424 Mg409 2.013 . S
O424 C413 1.191 . S
O425 C404 1.331 . S
O425 Mg411 2.081 . S
O426 Mg407 1.986 . S
O426 C413 1.307 . S
O427 C405 1.264 . S
O427 Mg411 2.023 . S
O428 C404 1.244 . S
O428 Mg412 1.942 1_554 S
O429 C405 1.273 . S
O429 Mg412 1.955 1_554 S
O430 C403 1.312 . S
O430 Mg406 2.291 . S
O430 Mg409 2.114 . S
O431 C403 1.208 . S
O431 Mg411 2.031 1_556 S
C432 O417 1.264 . S
C432 O419 1.273 . S
C433 O414 1.191 . S
C433 O416 1.307 . S
C434 O461 1.312 . S
C434 O462 1.208 . S
C435 O456 1.331 . S
C435 O459 1.244 . S
C436 O458 1.264 . S
C436 O460 1.273 . S
Mg437 O439 1.936 . S
Mg437 O446 2.081 . S
Mg437 O448 2.023 . S
Mg437 O452 2.031 . S
Mg437 O461 2.291 . S
Mg438 O439 1.963 . S
Mg438 O449 1.942 . S
Mg438 O450 1.955 . S
Mg438 O457 1.986 . S
O439 Mg437 1.936 . S
O439 Mg438 1.963 . S
O439 Mg440 1.915 . S
Mg440 O439 1.915 . S
Mg440 O441 1.915 . S
Mg440 O445 2.013 . S
Mg440 O451 2.114 . S
Mg440 O455 2.013 . S
Mg440 O461 2.114 . S
O441 Mg440 1.915 . S
O441 Mg442 1.936 . S
O441 Mg443 1.963 1_556 S
Mg442 O441 1.936 . S
Mg442 O451 2.291 . S
Mg442 O456 2.081 1_556 S
Mg442 O458 2.023 1_556 S
Mg442 O462 2.031 . S
Mg443 O441 1.963 1_554 S
Mg443 O447 1.986 . S
Mg443 O459 1.942 . S
Mg443 O460 1.955 . S
C444 O455 1.191 . S
C444 O457 1.307 . S
O445 Mg440 2.013 . S
O445 C464 1.191 . S
O446 Mg437 2.081 . S
O446 C454 1.331 . S
O447 Mg443 1.986 . S
O447 C464 1.307 1_554 S
O448 Mg437 2.023 . S
O448 C463 1.264 . S
O449 Mg438 1.942 . S
O449 C454 1.244 . S
O450 Mg438 1.955 . S
O450 C463 1.273 . S
O451 Mg440 2.114 . S
O451 Mg442 2.291 . S
O451 C453 1.312 . S
O452 Mg437 2.031 . S
O452 C453 1.208 . S
C453 O451 1.312 . S
C453 O452 1.208 . S
C454 O446 1.331 . S
C454 O449 1.244 . S
O455 Mg440 2.013 . S
O455 C444 1.191 . S
O456 C435 1.331 . S
O456 Mg442 2.081 1_554 S
O457 Mg438 1.986 . S
O457 C444 1.307 . S
O458 C436 1.264 . S
O458 Mg442 2.023 1_554 S
O459 C435 1.244 . S
O459 Mg443 1.942 . S
O460 C436 1.273 . S
O460 Mg443 1.955 . S
O461 C434 1.312 . S
O461 Mg437 2.291 . S
O461 Mg440 2.114 . S
O462 C434 1.208 . S
O462 Mg442 2.031 . S
C463 O448 1.264 . S
C463 O450 1.273 . S
C464 O445 1.191 . S
C464 O447 1.307 1_556 S
C465 O492 1.312 . S
C465 O493 1.208 . S
C466 O487 1.331 . S
C466 O490 1.244 . S
C467 O489 1.264 . S
C467 O491 1.273 . S
Mg468 O470 1.936 . S
Mg468 O477 2.081 . S
Mg468 O479 2.023 . S
Mg468 O483 2.031 . S
Mg468 O492 2.291 . S
Mg469 O470 1.963 . S
Mg469 O480 1.942 . S
Mg469 O481 1.955 . S
Mg469 O488 1.986 . S
O470 Mg468 1.936 . S
O470 Mg469 1.963 . S
O470 Mg471 1.915 . S
Mg471 O470 1.915 . S
Mg471 O472 1.915 . S
Mg471 O476 2.013 . S
Mg471 O482 2.114 . S
Mg471 O486 2.013 . S
Mg471 O492 2.114 . S
O472 Mg471 1.915 . S
O472 Mg473 1.936 . S
O472 Mg474 1.963 . S
Mg473 O472 1.936 . S
Mg473 O482 2.291 . S
Mg473 O487 2.081 . S
Mg473 O489 2.023 . S
Mg473 O493 2.031 . S
Mg474 O472 1.963 . S
Mg474 O478 1.986 . S
Mg474 O490 1.942 . S
Mg474 O491 1.955 . S
C475 O486 1.191 . S
C475 O488 1.307 . S
O476 Mg471 2.013 . S
O476 C495 1.191 . S
O477 Mg468 2.081 . S
O477 C485 1.331 . S
O478 Mg474 1.986 . S
O478 C495 1.307 . S
O479 Mg468 2.023 . S
O479 C494 1.264 . S
O480 Mg469 1.942 . S
O480 C485 1.244 . S
O481 Mg469 1.955 . S
O481 C494 1.273 . S
O482 Mg471 2.114 . S
O482 Mg473 2.291 . S
O482 C484 1.312 . S
O483 Mg468 2.031 . S
O483 C484 1.208 . S
C484 O482 1.312 . S
C484 O483 1.208 . S
C485 O477 1.331 . S
C485 O480 1.244 . S
O486 Mg471 2.013 . S
O486 C475 1.191 . S
O487 C466 1.331 . S
O487 Mg473 2.081 . S
O488 Mg469 1.986 . S
O488 C475 1.307 . S
O489 C467 1.264 . S
O489 Mg473 2.023 . S
O490 C466 1.244 . S
O490 Mg474 1.942 . S
O491 C467 1.273 . S
O491 Mg474 1.955 . S
O492 C465 1.312 . S
O492 Mg468 2.291 . S
O492 Mg471 2.114 . S
O493 C465 1.208 . S
O493 Mg473 2.031 . S
C494 O479 1.264 . S
C494 O481 1.273 . S
C495 O476 1.191 . S
C495 O478 1.307 . S
C496 O523 1.312 . S
C496 O524 1.208 . S
C497 O518 1.331 . S
C497 O521 1.244 . S
C498 O520 1.264 . S
C498 O522 1.273 . S
Mg499 O501 1.936 . S
Mg499 O508 2.081 . S
Mg499 O510 2.023 . S
Mg499 O514 2.031 . S
Mg499 O523 2.291 . S
Mg500 O501 1.963 . S
Mg500 O511 1.942 . S
Mg500 O512 1.955 . S
Mg500 O519 1.986 . S
O501 Mg499 1.936 . S
O501 Mg500 1.963 . S
O501 Mg502 1.915 . S
Mg502 O501 1.915 . S
Mg502 O503 1.915 . S
Mg502 O507 2.013 . S
Mg502 O513 2.114 . S
Mg502 O517 2.013 . S
Mg502 O523 2.114 . S
O503 Mg502 1.915 . S
O503 Mg504 1.936 . S
O503 Mg505 1.963 . S
Mg504 O503 1.936 . S
Mg504 O513 2.291 . S
Mg504 O518 2.081 . S
Mg504 O520 2.023 . S
Mg504 O524 2.031 . S
Mg505 O503 1.963 . S
Mg505 O509 1.986 . S
Mg505 O521 1.942 . S
Mg505 O522 1.955 . S
C506 O517 1.191 . S
C506 O519 1.307 . S
O507 Mg502 2.013 . S
O507 C526 1.191 . S
O508 Mg499 2.081 . S
O508 C516 1.331 . S
O509 Mg505 1.986 . S
O509 C526 1.307 . S
O510 Mg499 2.023 . S
O510 C525 1.264 . S
O511 Mg500 1.942 . S
O511 C516 1.244 . S
O512 Mg500 1.955 . S
O512 C525 1.273 . S
O513 Mg502 2.114 . S
O513 Mg504 2.291 . S
O513 C515 1.312 . S
O514 Mg499 2.031 . S
O514 C515 1.208 . S
C515 O513 1.312 . S
C515 O514 1.208 . S
C516 O508 1.331 . S
C516 O511 1.244 . S
O517 Mg502 2.013 . S
O517 C506 1.191 . S
O518 C497 1.331 . S
O518 Mg504 2.081 . S
O519 Mg500 1.986 . S
O519 C506 1.307 . S
O520 C498 1.264 . S
O520 Mg504 2.023 . S
O521 C497 1.244 . S
O521 Mg505 1.942 . S
O522 C498 1.273 . S
O522 Mg505 1.955 . S
O523 C496 1.312 . S
O523 Mg499 2.291 . S
O523 Mg502 2.114 . S
O524 C496 1.208 . S
O524 Mg504 2.031 . S
C525 O510 1.264 . S
C525 O512 1.273 . S
C526 O507 1.191 . S
C526 O509 1.307 . S
C527 O554 1.312 . S
C527 O555 1.208 . S
C528 O549 1.331 . S
C528 O552 1.244 . S
C529 O551 1.264 . S
C529 O553 1.273 . S
Mg530 O532 1.936 . S
Mg530 O539 2.081 . S
Mg530 O541 2.023 . S
Mg530 O545 2.031 . S
Mg530 O554 2.291 . S
Mg531 O532 1.963 . S
Mg531 O542 1.942 . S
Mg531 O543 1.955 . S
Mg531 O550 1.986 . S
O532 Mg530 1.936 . S
O532 Mg531 1.963 . S
O532 Mg533 1.915 . S
Mg533 O532 1.915 . S
Mg533 O534 1.915 . S
Mg533 O538 2.013 . S
Mg533 O544 2.114 . S
Mg533 O548 2.013 . S
Mg533 O554 2.114 . S
O534 Mg533 1.915 . S
O534 Mg535 1.936 . S
O534 Mg536 1.963 . S
Mg535 O534 1.936 . S
Mg535 O544 2.291 . S
Mg535 O549 2.081 . S
Mg535 O551 2.023 . S
Mg535 O555 2.031 . S
Mg536 O534 1.963 . S
Mg536 O540 1.986 . S
Mg536 O552 1.942 . S
Mg536 O553 1.955 . S
C537 O548 1.191 . S
C537 O550 1.307 . S
O538 Mg533 2.013 . S
O538 C557 1.191 . S
O539 Mg530 2.081 . S
O539 C547 1.331 . S
O540 Mg536 1.986 . S
O540 C557 1.307 . S
O541 Mg530 2.023 . S
O541 C556 1.264 . S
O542 Mg531 1.942 . S
O542 C547 1.244 . S
O543 Mg531 1.955 . S
O543 C556 1.273 . S
O544 Mg533 2.114 . S
O544 Mg535 2.291 . S
O544 C546 1.312 . S
O545 Mg530 2.031 . S
O545 C546 1.208 . S
C546 O544 1.312 . S
C546 O545 1.208 . S
C547 O539 1.331 . S
C547 O542 1.244 . S
O548 Mg533 2.013 . S
O548 C537 1.191 . S
O549 C528 1.331 . S
O549 Mg535 2.081 . S
O550 Mg531 1.986 . S
O550 C537 1.307 . S
O551 C529 1.264 . S
O551 Mg535 2.023 . S
O552 C528 1.244 . S
O552 Mg536 1.942 . S
O553 C529 1.273 . S
O553 Mg536 1.955 . S
O554 C527 1.312 . S
O554 Mg530 2.291 . S
O554 Mg533 2.114 . S
O555 C527 1.208 . S
O555 Mg535 2.031 . S
C556 O541 1.264 . S
C556 O543 1.273 . S
C557 O538 1.191 . S
C557 O540 1.307 . S
C558 C559 1.369 . S
C558 C560 1.419 . S
C558 H562 0.930 . S
C559 C558 1.369 . S
C559 C568 1.429 . S
C560 C558 1.419 . S
C560 C561 1.363 . S
C560 H563 0.929 . S
C561 C560 1.363 . S
C561 C567 1.428 . S
H562 C558 0.930 . S
H563 C560 0.929 . S
S564 N565 1.613 1_655 S
S564 N566 1.610 . S
N565 S564 1.613 1_455 S
N565 C568 1.350 . S
N566 S564 1.610 . S
N566 C567 1.351 1_655 S
C567 C561 1.428 . S
C567 N566 1.351 1_455 S
C567 C568 1.434 . S
C568 C559 1.429 . S
C568 N565 1.350 . S
C568 C567 1.434 . S
C569 C570 1.369 . S
C569 C571 1.419 . S
C569 H573 0.930 . S
C570 C569 1.369 . S
C570 C579 1.429 . S
C571 C569 1.419 . S
C571 C572 1.363 . S
C571 H574 0.929 . S
C572 C571 1.363 . S
C572 C578 1.428 . S
H573 C569 0.930 . S
H574 C571 0.929 . S
S575 N576 1.613 . S
S575 N577 1.610 . S
N576 S575 1.613 . S
N576 C579 1.350 . S
N577 S575 1.610 . S
N577 C578 1.351 . S
C578 C572 1.428 . S
C578 N577 1.351 . S
C578 C579 1.434 . S
C579 C570 1.429 . S
C579 N576 1.350 . S
C579 C578 1.434 . S
C580 C581 1.369 . S
C580 C582 1.419 . S
C580 H584 0.930 . S
C581 C580 1.369 . S
C581 C590 1.429 . S
C582 C580 1.419 . S
C582 C583 1.363 . S
C582 H585 0.929 . S
C583 C582 1.363 . S
C583 C589 1.428 . S
H584 C580 0.930 . S
H585 C582 0.929 . S
S586 N587 1.613 1_545 S
S586 N588 1.610 . S
N587 S586 1.613 1_565 S
N587 C590 1.350 . S
N588 S586 1.610 . S
N588 C589 1.351 1_545 S
C589 C583 1.428 . S
C589 N588 1.351 1_565 S
C589 C590 1.434 . S
C590 C581 1.429 . S
C590 N587 1.350 . S
C590 C589 1.434 . S
C591 C592 1.369 . S
C591 C593 1.419 . S
C591 H595 0.930 . S
C592 C591 1.369 . S
C592 C601 1.429 . S
C593 C591 1.419 . S
C593 C594 1.363 . S
C593 H596 0.929 . S
C594 C593 1.363 . S
C594 C600 1.428 . S
H595 C591 0.930 . S
H596 C593 0.929 . S
S597 N598 1.613 . S
S597 N599 1.610 . S
N598 S597 1.613 . S
N598 C601 1.350 . S
N599 S597 1.610 . S
N599 C600 1.351 . S
C600 C594 1.428 . S
C600 N599 1.351 . S
C600 C601 1.434 . S
C601 C592 1.429 . S
C601 N598 1.350 . S
C601 C600 1.434 . S
C602 C603 1.369 . S
C602 C604 1.419 . S
C602 H606 0.930 . S
C603 C602 1.369 . S
C603 C612 1.429 . S
C604 C602 1.419 . S
C604 C605 1.363 . S
C604 H607 0.929 . S
C605 C604 1.363 . S
C605 C611 1.428 . S
H606 C602 0.930 . S
H607 C604 0.929 . S
S608 N609 1.613 1_455 S
S608 N610 1.610 . S
N609 S608 1.613 1_655 S
N609 C612 1.350 . S
N610 S608 1.610 . S
N610 C611 1.351 1_455 S
C611 C605 1.428 . S
C611 N610 1.351 1_655 S
C611 C612 1.434 . S
C612 C603 1.429 . S
C612 N609 1.350 . S
C612 C611 1.434 . S
C613 C614 1.369 . S
C613 C615 1.419 . S
C613 H617 0.930 . S
C614 C613 1.369 . S
C614 C623 1.429 . S
C615 C613 1.419 . S
C615 C616 1.363 . S
C615 H618 0.929 . S
C616 C615 1.363 . S
C616 C622 1.428 . S
H617 C613 0.930 . S
H618 C615 0.929 . S
S619 N620 1.613 . S
S619 N621 1.610 . S
N620 S619 1.613 . S
N620 C623 1.350 . S
N621 S619 1.610 . S
N621 C622 1.351 . S
C622 C616 1.428 . S
C622 N621 1.351 . S
C622 C623 1.434 . S
C623 C614 1.429 . S
C623 N620 1.350 . S
C623 C622 1.434 . S
C624 C625 1.369 . S
C624 C626 1.419 . S
C624 H628 0.930 1_655 S
C625 C624 1.369 . S
C625 C634 1.429 . S
C626 C624 1.419 . S
C626 C627 1.363 . S
C626 H629 0.929 . S
C627 C626 1.363 . S
C627 C633 1.428 . S
H628 C624 0.930 1_455 S
H629 C626 0.929 . S
S630 N631 1.613 . S
S630 N632 1.610 . S
N631 S630 1.613 . S
N631 C634 1.350 . S
N632 S630 1.610 . S
N632 C633 1.351 . S
C633 C627 1.428 . S
C633 N632 1.351 . S
C633 C634 1.434 . S
C634 C625 1.429 . S
C634 N631 1.350 . S
C634 C633 1.434 . S
C635 C636 1.369 . S
C635 C637 1.419 . S
C635 H639 0.930 . S
C636 C635 1.369 . S
C636 C645 1.429 . S
C637 C635 1.419 . S
C637 C638 1.363 . S
C637 H640 0.929 . S
C638 C637 1.363 . S
C638 C644 1.428 . S
H639 C635 0.930 . S
H640 C637 0.929 . S
S641 N642 1.613 . S
S641 N643 1.610 . S
N642 S641 1.613 . S
N642 C645 1.350 . S
N643 S641 1.610 . S
N643 C644 1.351 . S
C644 C638 1.428 . S
C644 N643 1.351 . S
C644 C645 1.434 . S
C645 C636 1.429 . S
C645 N642 1.350 . S
C645 C644 1.434 . S
C646 C647 1.369 . S
C646 C648 1.419 . S
C646 H650 0.930 . S
C647 C646 1.369 . S
C647 C656 1.429 . S
C648 C646 1.419 . S
C648 C649 1.363 . S
C648 H651 0.929 . S
C649 C648 1.363 . S
C649 C655 1.428 . S
H650 C646 0.930 . S
H651 C648 0.929 . S
S652 N653 1.613 . S
S652 N654 1.610 . S
N653 S652 1.613 . S
N653 C656 1.350 . S
N654 S652 1.610 . S
N654 C655 1.351 . S
C655 C649 1.428 . S
C655 N654 1.351 . S
C655 C656 1.434 . S
C656 C647 1.429 . S
C656 N653 1.350 . S
C656 C655 1.434 . S
C657 C658 1.369 . S
C657 C659 1.419 . S
C657 H661 0.930 . S
C658 C657 1.369 . S
C658 C667 1.429 . S
C659 C657 1.419 . S
C659 C660 1.363 . S
C659 H662 0.929 . S
C660 C659 1.363 . S
C660 C666 1.428 . S
H661 C657 0.930 . S
H662 C659 0.929 . S
S663 N664 1.613 1_554 S
S663 N665 1.610 . S
N664 S663 1.613 1_556 S
N664 C667 1.350 . S
N665 S663 1.610 . S
N665 C666 1.351 1_554 S
C666 C660 1.428 . S
C666 N665 1.351 1_556 S
C666 C667 1.434 . S
C667 C658 1.429 . S
C667 N664 1.350 . S
C667 C666 1.434 . S
C668 C669 1.369 . S
C668 C670 1.419 . S
C668 H672 0.930 . S
C669 C668 1.369 . S
C669 C678 1.429 . S
C670 C668 1.419 . S
C670 C671 1.363 . S
C670 H673 0.929 . S
C671 C670 1.363 . S
C671 C677 1.428 . S
H672 C668 0.930 . S
H673 C670 0.929 . S
S674 N675 1.613 . S
S674 N676 1.610 . S
N675 S674 1.613 . S
N675 C678 1.350 . S
N676 S674 1.610 . S
N676 C677 1.351 . S
C677 C671 1.428 . S
C677 N676 1.351 . S
C677 C678 1.434 . S
C678 C669 1.429 . S
C678 N675 1.350 . S
C678 C677 1.434 . S
C679 C680 1.369 . S
C679 C681 1.419 . S
C679 H683 0.930 . S
C680 C679 1.369 . S
C680 C689 1.429 . S
C681 C679 1.419 . S
C681 C682 1.363 . S
C681 H684 0.929 . S
C682 C681 1.363 . S
C682 C688 1.428 . S
H683 C679 0.930 . S
H684 C681 0.929 . S
S685 N686 1.613 . S
S685 N687 1.610 . S
N686 S685 1.613 . S
N686 C689 1.350 . S
N687 S685 1.610 . S
N687 C688 1.351 . S
C688 C682 1.428 . S
C688 N687 1.351 . S
C688 C689 1.434 . S
C689 C680 1.429 . S
C689 N686 1.350 . S
C689 C688 1.434 . S
C690 C691 1.369 . S
C690 C692 1.419 1_565 S
C690 H694 0.930 . S
C691 C690 1.369 . S
C691 C700 1.429 . S
C692 C690 1.419 1_545 S
C692 C693 1.363 . S
C692 H695 0.929 . S
C693 C692 1.363 . S
C693 C699 1.428 . S
H694 C690 0.930 . S
H695 C692 0.929 . S
S696 N697 1.613 1_545 S
S696 N698 1.610 . S
N697 S696 1.613 1_565 S
N697 C700 1.350 . S
N698 S696 1.610 . S
N698 C699 1.351 . S
C699 C693 1.428 . S
C699 N698 1.351 . S
C699 C700 1.434 1_545 S
C700 C691 1.429 . S
C700 N697 1.350 . S
C700 C699 1.434 1_565 S
C701 C702 1.369 . S
C701 C703 1.403 1_455 S
C701 H705 0.930 . S
C702 C701 1.369 . S
C702 C711 1.429 1_455 S
C703 C701 1.403 1_655 S
C703 C704 1.380 . S
C703 H706 0.929 1_655 S
C704 C703 1.380 . S
C704 C710 1.428 . S
H705 C701 0.930 . S
H706 C703 0.929 1_455 S
S707 N708 1.613 . S
S707 N709 1.610 . S
N708 S707 1.613 . S
N708 C711 1.350 . S
N709 S707 1.610 . S
N709 C710 1.351 . S
C710 C704 1.428 . S
C710 N709 1.351 . S
C710 C711 1.434 . S
C711 C702 1.429 1_655 S
C711 N708 1.350 . S
C711 C710 1.434 . S
C712 C713 1.369 . S
C712 C714 1.419 . S
C712 H716 0.930 . S
C713 C712 1.369 . S
C713 C722 1.429 . S
C714 C712 1.419 . S
C714 C715 1.363 . S
C714 H717 0.929 . S
C715 C714 1.363 . S
C715 C721 1.428 . S
H716 C712 0.930 . S
H717 C714 0.929 . S
S718 N719 1.613 . S
S718 N720 1.610 . S
N719 S718 1.613 . S
N719 C722 1.350 . S
N720 S718 1.610 . S
N720 C721 1.351 . S
C721 C715 1.428 . S
C721 N720 1.351 . S
C721 C722 1.434 . S
C722 C713 1.429 . S
C722 N719 1.350 . S
C722 C721 1.434 . S
C723 C724 1.369 . S
C723 C725 1.419 1_655 S
C723 H727 0.930 . S
C724 C723 1.369 . S
C724 C733 1.429 . S
C725 C723 1.419 1_455 S
C725 C726 1.363 . S
C725 H728 0.929 . S
C726 C725 1.363 . S
C726 C732 1.428 . S
H727 C723 0.930 . S
H728 C725 0.929 . S
S729 N730 1.613 1_455 S
S729 N731 1.610 . S
N730 S729 1.613 1_655 S
N730 C733 1.350 . S
N731 S729 1.610 . S
N731 C732 1.351 . S
C732 C726 1.428 . S
C732 N731 1.351 . S
C732 C733 1.434 1_455 S
C733 C724 1.429 . S
C733 N730 1.350 . S
C733 C732 1.434 1_655 S
C734 C735 1.369 . S
C734 C736 1.419 . S
C734 H738 0.930 . S
C735 C734 1.369 . S
C735 C744 1.429 . S
C736 C734 1.419 . S
C736 C737 1.363 . S
C736 H739 0.929 . S
C737 C736 1.363 . S
C737 C743 1.428 . S
H738 C734 0.930 . S
H739 C736 0.929 . S
S740 N741 1.613 . S
S740 N742 1.610 . S
N741 S740 1.613 . S
N741 C744 1.350 . S
N742 S740 1.610 . S
N742 C743 1.351 . S
C743 C737 1.428 . S
C743 N742 1.351 . S
C743 C744 1.434 . S
C744 C735 1.429 . S
C744 N741 1.350 . S
C744 C743 1.434 . S
C745 C746 1.369 . S
C745 C747 1.419 1_545 S
C745 H749 0.930 . S
C746 C745 1.369 . S
C746 C755 1.429 . S
C747 C745 1.419 1_565 S
C747 C748 1.363 . S
C747 H750 0.929 . S
C748 C747 1.363 . S
C748 C754 1.428 . S
H749 C745 0.930 . S
H750 C747 0.929 . S
S751 N752 1.613 1_565 S
S751 N753 1.610 . S
N752 S751 1.613 1_545 S
N752 C755 1.350 . S
N753 S751 1.610 . S
N753 C754 1.351 . S
C754 C748 1.428 . S
C754 N753 1.351 . S
C754 C755 1.434 1_565 S
C755 C746 1.429 . S
C755 N752 1.350 . S
C755 C754 1.434 1_545 S
C756 C757 1.369 1_554 S
C756 C758 1.419 . S
C756 H760 0.930 . S
C757 C756 1.369 1_556 S
C757 C766 1.429 1_455 S
C758 C756 1.419 . S
C758 C759 1.363 1_455 S
C758 H761 0.929 . S
C759 C758 1.363 1_655 S
C759 C765 1.428 . S
H760 C756 0.930 . S
H761 C758 0.929 . S
S762 N763 1.613 . S
S762 N764 1.608 1_556 S
N763 S762 1.613 . S
N763 C766 1.350 . S
N764 S762 1.608 1_554 S
N764 C765 1.351 . S
C765 C759 1.428 . S
C765 N764 1.351 . S
C765 C766 1.434 1_554 S
C766 C757 1.429 1_655 S
C766 N763 1.350 . S
C766 C765 1.434 1_556 S
C767 C768 1.369 . S
C767 C769 1.419 1_556 S
C767 H771 0.930 . S
C768 C767 1.369 . S
C768 C777 1.427 1_556 S
C769 C767 1.419 1_554 S
C769 C770 1.363 . S
C769 H772 0.929 . S
C770 C769 1.363 . S
C770 C776 1.428 . S
H771 C767 0.930 . S
H772 C769 0.929 . S
S773 N774 1.613 . S
S773 N775 1.610 . S
N774 S773 1.613 . S
N774 C777 1.350 . S
N775 S773 1.610 . S
N775 C776 1.351 . S
C776 C770 1.428 . S
C776 N775 1.351 . S
C776 C777 1.436 . S
C777 C768 1.427 1_554 S
C777 N774 1.350 . S
C777 C776 1.436 . S
C778 C779 1.369 1_565 S
C778 C780 1.419 1_554 S
C778 H782 0.930 . S
C779 C778 1.369 1_545 S
C779 C788 1.429 1_554 S
C780 C778 1.419 1_556 S
C780 C781 1.363 . S
C780 H783 0.929 1_556 S
C781 C780 1.363 . S
C781 C787 1.428 1_565 S
H782 C778 0.930 . S
H783 C780 0.929 1_554 S
S784 N785 1.613 . S
S784 N786 1.610 . S
N785 S784 1.613 . S
N785 C788 1.350 . S
N786 S784 1.610 . S
N786 C787 1.351 . S
C787 C781 1.428 1_545 S
C787 N786 1.351 . S
C787 C788 1.434 . S
C788 C779 1.429 1_556 S
C788 N785 1.350 . S
C788 C787 1.434 . S
C789 C790 1.369 . S
C789 C791 1.419 . S
C789 H793 0.930 . S
C790 C789 1.369 . S
C790 C799 1.429 1_545 S
C791 C789 1.419 . S
C791 C792 1.363 1_545 S
C791 H794 0.929 . S
C792 C791 1.363 1_565 S
C792 C798 1.428 . S
H793 C789 0.930 . S
H794 C791 0.929 . S
S795 N796 1.613 . S
S795 N797 1.610 . S
N796 S795 1.613 . S
N796 C799 1.350 . S
N797 S795 1.610 . S
N797 C798 1.351 . S
C798 C792 1.428 . S
C798 N797 1.351 . S
C798 C799 1.434 . S
C799 C790 1.429 1_565 S
C799 N796 1.350 . S
C799 C798 1.434 . S
C800 C801 1.369 . S
C800 C802 1.419 . S
C800 H804 0.930 . S
C801 C800 1.369 . S
C801 C810 1.429 1_455 S
C802 C800 1.419 . S
C802 C803 1.363 1_455 S
C802 H805 0.929 . S
C803 C802 1.363 1_655 S
C803 C809 1.428 . S
H804 C800 0.930 . S
H805 C802 0.929 . S
S806 N807 1.613 . S
S806 N808 1.610 . S
N807 S806 1.613 . S
N807 C810 1.350 . S
N808 S806 1.610 . S
N808 C809 1.351 . S
C809 C803 1.428 . S
C809 N808 1.351 . S
C809 C810 1.434 . S
C810 C801 1.429 1_655 S
C810 N807 1.350 . S
C810 C809 1.434 . S
C811 C812 1.369 . S
C811 C813 1.419 . S
C811 H815 0.930 . S
C812 C811 1.369 . S
C812 C821 1.429 . S
C813 C811 1.419 . S
C813 C814 1.363 . S
C813 H816 0.929 . S
C814 C813 1.363 . S
C814 C820 1.428 . S
H815 C811 0.930 . S
H816 C813 0.929 . S
S817 N818 1.613 . S
S817 N819 1.610 . S
N818 S817 1.613 . S
N818 C821 1.350 . S
N819 S817 1.610 . S
N819 C820 1.351 . S
C820 C814 1.428 . S
C820 N819 1.351 . S
C820 C821 1.434 . S
C821 C812 1.429 . S
C821 N818 1.350 . S
C821 C820 1.434 . S
C822 C823 1.369 . S
C822 C824 1.419 . S
C822 H826 0.930 . S
C823 C822 1.369 . S
C823 C832 1.429 . S
C824 C822 1.419 . S
C824 C825 1.363 . S
C824 H827 0.929 . S
C825 C824 1.363 . S
C825 C831 1.428 . S
H826 C822 0.930 . S
H827 C824 0.929 . S
S828 N829 1.613 . S
S828 N830 1.610 . S
N829 S828 1.613 . S
N829 C832 1.350 . S
N830 S828 1.610 . S
N830 C831 1.351 . S
C831 C825 1.428 . S
C831 N830 1.351 . S
C831 C832 1.434 . S
C832 C823 1.429 . S
C832 N829 1.350 . S
C832 C831 1.434 . S
C833 C834 1.369 . S
C833 C835 1.419 . S
C833 H837 0.930 . S
C834 C833 1.369 . S
C834 C843 1.429 . S
C835 C833 1.419 . S
C835 C836 1.363 . S
C835 H838 0.929 . S
C836 C835 1.363 . S
C836 C842 1.428 . S
H837 C833 0.930 . S
H838 C835 0.929 . S
S839 N840 1.613 . S
S839 N841 1.610 . S
N840 S839 1.613 . S
N840 C843 1.350 . S
N841 S839 1.610 . S
N841 C842 1.351 . S
C842 C836 1.428 . S
C842 N841 1.351 . S
C842 C843 1.434 . S
C843 C834 1.429 . S
C843 N840 1.350 . S
C843 C842 1.434 . S
C844 C845 1.369 . S
C844 C846 1.419 . S
C844 H848 0.930 . S
C845 C844 1.369 . S
C845 C854 1.429 . S
C846 C844 1.419 . S
C846 C847 1.363 . S
C846 H849 0.929 . S
C847 C846 1.363 . S
C847 C853 1.428 . S
H848 C844 0.930 . S
H849 C846 0.929 . S
S850 N851 1.613 . S
S850 N852 1.610 . S
N851 S850 1.613 . S
N851 C854 1.350 . S
N852 S850 1.610 . S
N852 C853 1.351 . S
C853 C847 1.428 . S
C853 N852 1.351 . S
C853 C854 1.434 . S
C854 C845 1.429 . S
C854 N851 1.350 . S
C854 C853 1.434 . S
C855 C856 1.369 . S
C855 C857 1.419 . S
C855 H859 0.930 . S
C856 C855 1.369 . S
C856 C865 1.429 . S
C857 C855 1.419 . S
C857 C858 1.363 . S
C857 H860 0.929 . S
C858 C857 1.363 . S
C858 C864 1.428 . S
H859 C855 0.930 . S
H860 C857 0.929 . S
S861 N862 1.613 . S
S861 N863 1.610 . S
N862 S861 1.613 . S
N862 C865 1.350 . S
N863 S861 1.610 . S
N863 C864 1.351 . S
C864 C858 1.428 . S
C864 N863 1.351 . S
C864 C865 1.434 . S
C865 C856 1.429 . S
C865 N862 1.350 . S
C865 C864 1.434 . S
C866 C867 1.369 . S
C866 C868 1.419 . S
C866 H870 0.930 . S
C867 C866 1.369 . S
C867 C876 1.429 . S
C868 C866 1.419 . S
C868 C869 1.363 . S
C868 H871 0.929 . S
C869 C868 1.363 . S
C869 C875 1.428 . S
H870 C866 0.930 . S
H871 C868 0.929 . S
S872 N873 1.613 . S
S872 N874 1.610 . S
N873 S872 1.613 . S
N873 C876 1.350 . S
N874 S872 1.610 . S
N874 C875 1.351 . S
C875 C869 1.428 . S
C875 N874 1.351 . S
C875 C876 1.434 . S
C876 C867 1.429 . S
C876 N873 1.350 . S
C876 C875 1.434 . S
C877 C878 1.369 . S
C877 C879 1.419 . S
C877 H881 0.930 . S
C878 C877 1.369 . S
C878 C887 1.429 . S
C879 C877 1.419 . S
C879 C880 1.363 . S
C879 H882 0.929 . S
C880 C879 1.363 . S
C880 C886 1.428 . S
H881 C877 0.930 . S
H882 C879 0.929 . S
S883 N884 1.613 . S
S883 N885 1.610 . S
N884 S883 1.613 . S
N884 C887 1.350 . S
N885 S883 1.610 . S
N885 C886 1.351 . S
C886 C880 1.428 . S
C886 N885 1.351 . S
C886 C887 1.434 . S
C887 C878 1.429 . S
C887 N884 1.350 . S
C887 C886 1.434 . S
C888 C889 1.369 . S
C888 C890 1.419 . S
C888 H892 0.930 . S
C889 C888 1.369 . S
C889 C898 1.429 . S
C890 C888 1.419 . S
C890 C891 1.363 . S
C890 H893 0.929 . S
C891 C890 1.363 . S
C891 C897 1.428 . S
H892 C888 0.930 . S
H893 C890 0.929 . S
S894 N895 1.613 . S
S894 N896 1.610 . S
N895 S894 1.613 . S
N895 C898 1.350 . S
N896 S894 1.610 . S
N896 C897 1.351 . S
C897 C891 1.428 . S
C897 N896 1.351 . S
C897 C898 1.434 . S
C898 C889 1.429 . S
C898 N895 1.350 . S
C898 C897 1.434 . S
C899 C900 1.369 . S
C899 C901 1.419 . S
C899 H903 0.930 . S
C900 C899 1.369 . S
C900 C909 1.429 . S
C901 C899 1.419 . S
C901 C902 1.363 . S
C901 H904 0.929 . S
C902 C901 1.363 . S
C902 C908 1.428 . S
H903 C899 0.930 . S
H904 C901 0.929 . S
S905 N906 1.613 . S
S905 N907 1.610 . S
N906 S905 1.613 . S
N906 C909 1.350 . S
N907 S905 1.610 . S
N907 C908 1.351 . S
C908 C902 1.428 . S
C908 N907 1.351 . S
C908 C909 1.434 . S
C909 C900 1.429 . S
C909 N906 1.350 . S
C909 C908 1.434 . S
C910 C911 1.369 . S
C910 C912 1.419 . S
C910 H914 0.930 . S
C911 C910 1.369 . S
C911 C920 1.429 . S
C912 C910 1.419 . S
C912 C913 1.363 . S
C912 H915 0.929 . S
C913 C912 1.363 . S
C913 C919 1.428 . S
H914 C910 0.930 . S
H915 C912 0.929 . S
S916 N917 1.613 . S
S916 N918 1.610 . S
N917 S916 1.613 . S
N917 C920 1.350 . S
N918 S916 1.610 . S
N918 C919 1.351 . S
C919 C913 1.428 . S
C919 N918 1.351 . S
C919 C920 1.434 . S
C920 C911 1.429 . S
C920 N917 1.350 . S
C920 C919 1.434 . S
C921 C922 1.369 . S
C921 C923 1.419 . S
C921 H925 0.930 . S
C922 C921 1.369 . S
C922 C931 1.429 . S
C923 C921 1.419 . S
C923 C924 1.363 . S
C923 H926 0.929 . S
C924 C923 1.363 . S
C924 C930 1.428 . S
H925 C921 0.930 . S
H926 C923 0.929 . S
S927 N928 1.613 . S
S927 N929 1.610 . S
N928 S927 1.613 . S
N928 C931 1.350 . S
N929 S927 1.610 . S
N929 C930 1.351 . S
C930 C924 1.428 . S
C930 N929 1.351 . S
C930 C931 1.434 . S
C931 C922 1.429 . S
C931 N928 1.350 . S
C931 C930 1.434 . S
C932 C933 1.369 . S
C932 C934 1.419 . S
C932 H936 0.930 . S
C933 C932 1.369 . S
C933 C942 1.429 . S
C934 C932 1.419 . S
C934 C935 1.363 . S
C934 H937 0.929 . S
C935 C934 1.363 . S
C935 C941 1.428 . S
H936 C932 0.930 . S
H937 C934 0.929 . S
S938 N939 1.613 . S
S938 N940 1.610 . S
N939 S938 1.613 . S
N939 C942 1.350 . S
N940 S938 1.610 . S
N940 C941 1.351 . S
C941 C935 1.428 . S
C941 N940 1.351 . S
C941 C942 1.434 . S
C942 C933 1.429 . S
C942 N939 1.350 . S
C942 C941 1.434 . S
C943 C944 1.369 . S
C943 C945 1.419 . S
C943 H947 0.930 . S
C944 C943 1.369 . S
C944 C953 1.429 . S
C945 C943 1.419 . S
C945 C946 1.363 . S
C945 H948 0.929 . S
C946 C945 1.363 . S
C946 C952 1.428 . S
H947 C943 0.930 . S
H948 C945 0.929 . S
S949 N950 1.613 . S
S949 N951 1.610 . S
N950 S949 1.613 . S
N950 C953 1.350 . S
N951 S949 1.610 . S
N951 C952 1.351 . S
C952 C946 1.428 . S
C952 N951 1.351 . S
C952 C953 1.434 . S
C953 C944 1.429 . S
C953 N950 1.350 . S
C953 C952 1.434 . S
C954 C955 1.369 . S
C954 C956 1.419 . S
C954 H958 0.930 . S
C955 C954 1.369 . S
C955 C964 1.429 . S
C956 C954 1.419 . S
C956 C957 1.363 . S
C956 H959 0.929 . S
C957 C956 1.363 . S
C957 C963 1.428 . S
H958 C954 0.930 . S
H959 C956 0.929 . S
S960 N961 1.613 . S
S960 N962 1.610 . S
N961 S960 1.613 . S
N961 C964 1.350 . S
N962 S960 1.610 . S
N962 C963 1.351 . S
C963 C957 1.428 . S
C963 N962 1.351 . S
C963 C964 1.434 . S
C964 C955 1.429 . S
C964 N961 1.350 . S
C964 C963 1.434 . S
C965 C966 1.369 . S
C965 C967 1.419 . S
C965 H969 0.930 . S
C966 C965 1.369 . S
C966 C975 1.429 . S
C967 C965 1.419 . S
C967 C968 1.363 . S
C967 H970 0.929 . S
C968 C967 1.363 . S
C968 C974 1.428 . S
H969 C965 0.930 . S
H970 C967 0.929 . S
S971 N972 1.613 . S
S971 N973 1.610 . S
N972 S971 1.613 . S
N972 C975 1.350 . S
N973 S971 1.610 . S
N973 C974 1.351 . S
C974 C968 1.428 . S
C974 N973 1.351 . S
C974 C975 1.434 . S
C975 C966 1.429 . S
C975 N972 1.350 . S
C975 C974 1.434 . S
C976 C977 1.369 . S
C976 C978 1.419 . S
C976 H980 0.930 . S
C977 C976 1.369 . S
C977 C986 1.429 . S
C978 C976 1.419 . S
C978 C979 1.363 . S
C978 H981 0.929 . S
C979 C978 1.363 . S
C979 C985 1.428 . S
H980 C976 0.930 . S
H981 C978 0.929 . S
S982 N983 1.613 . S
S982 N984 1.610 . S
N983 S982 1.613 . S
N983 C986 1.350 . S
N984 S982 1.610 . S
N984 C985 1.351 . S
C985 C979 1.428 . S
C985 N984 1.351 . S
C985 C986 1.434 . S
C986 C977 1.429 . S
C986 N983 1.350 . S
C986 C985 1.434 . S
C987 C988 1.369 . S
C987 C989 1.419 . S
C987 H991 0.930 . S
C988 C987 1.369 . S
C988 C997 1.429 . S
C989 C987 1.419 . S
C989 C990 1.363 . S
C989 H992 0.929 . S
C990 C989 1.363 . S
C990 C996 1.428 . S
H991 C987 0.930 . S
H992 C989 0.929 . S
S993 N994 1.613 . S
S993 N995 1.610 . S
N994 S993 1.613 . S
N994 C997 1.350 . S
N995 S993 1.610 . S
N995 C996 1.351 . S
C996 C990 1.428 . S
C996 N995 1.351 . S
C996 C997 1.434 . S
C997 C988 1.429 . S
C997 N994 1.350 . S
C997 C996 1.434 . S
C998 C999 1.369 . S
C998 C1000 1.419 . S
C998 H1002 0.930 . S
C999 C998 1.369 . S
C999 C1008 1.429 . S
C1000 C998 1.419 . S
C1000 C1001 1.363 . S
C1000 H1003 0.929 . S
C1001 C1000 1.363 . S
C1001 C1007 1.428 . S
H1002 C998 0.930 . S
H1003 C1000 0.929 . S
S1004 N1005 1.613 . S
S1004 N1006 1.610 . S
N1005 S1004 1.613 . S
N1005 C1008 1.350 . S
N1006 S1004 1.610 . S
N1006 C1007 1.351 . S
C1007 C1001 1.428 . S
C1007 N1006 1.351 . S
C1007 C1008 1.434 . S
C1008 C999 1.429 . S
C1008 N1005 1.350 . S
C1008 C1007 1.434 . S
C1009 C1010 1.369 . S
C1009 C1011 1.419 . S
C1009 H1013 0.930 . S
C1010 C1009 1.369 . S
C1010 C1019 1.429 . S
C1011 C1009 1.419 . S
C1011 C1012 1.363 . S
C1011 H1014 0.929 . S
C1012 C1011 1.363 . S
C1012 C1018 1.428 . S
H1013 C1009 0.930 . S
H1014 C1011 0.929 . S
S1015 N1016 1.613 . S
S1015 N1017 1.610 . S
N1016 S1015 1.613 . S
N1016 C1019 1.350 . S
N1017 S1015 1.610 . S
N1017 C1018 1.351 . S
C1018 C1012 1.428 . S
C1018 N1017 1.351 . S
C1018 C1019 1.434 . S
C1019 C1010 1.429 . S
C1019 N1016 1.350 . S
C1019 C1018 1.434 . S
C1020 C1021 1.369 . S
C1020 C1022 1.419 . S
C1020 H1024 0.930 . S
C1021 C1020 1.369 . S
C1021 C1030 1.429 . S
C1022 C1020 1.419 . S
C1022 C1023 1.363 . S
C1022 H1025 0.929 . S
C1023 C1022 1.363 . S
C1023 C1029 1.428 . S
H1024 C1020 0.930 . S
H1025 C1022 0.929 . S
S1026 N1027 1.613 1_455 S
S1026 N1028 1.610 1_455 S
N1027 S1026 1.613 1_655 S
N1027 C1030 1.350 . S
N1028 S1026 1.610 1_655 S
N1028 C1029 1.351 . S
C1029 C1023 1.428 . S
C1029 N1028 1.351 . S
C1029 C1030 1.434 . S
C1030 C1021 1.429 . S
C1030 N1027 1.350 . S
C1030 C1029 1.434 . S
C1031 C1032 1.369 . S
C1031 C1033 1.419 . S
C1031 H1035 0.930 . S
C1032 C1031 1.369 . S
C1032 C1041 1.429 . S
C1033 C1031 1.419 . S
C1033 C1034 1.363 . S
C1033 H1036 0.929 . S
C1034 C1033 1.363 . S
C1034 C1040 1.428 . S
H1035 C1031 0.930 . S
H1036 C1033 0.929 . S
S1037 N1038 1.613 . S
S1037 N1039 1.610 . S
N1038 S1037 1.613 . S
N1038 C1041 1.350 . S
N1039 S1037 1.610 . S
N1039 C1040 1.351 . S
C1040 C1034 1.428 . S
C1040 N1039 1.351 . S
C1040 C1041 1.434 . S
C1041 C1032 1.429 . S
C1041 N1038 1.350 . S
C1041 C1040 1.434 . S
C1042 C1043 1.369 . S
C1042 C1044 1.419 . S
C1042 H1046 0.930 . S
C1043 C1042 1.369 . S
C1043 C1052 1.429 . S
C1044 C1042 1.419 . S
C1044 C1045 1.363 . S
C1044 H1047 0.929 . S
C1045 C1044 1.363 . S
C1045 C1051 1.428 . S
H1046 C1042 0.930 . S
H1047 C1044 0.929 . S
S1048 N1049 1.613 1_565 S
S1048 N1050 1.610 1_565 S
N1049 S1048 1.613 1_545 S
N1049 C1052 1.350 . S
N1050 S1048 1.610 1_545 S
N1050 C1051 1.351 . S
C1051 C1045 1.428 . S
C1051 N1050 1.351 . S
C1051 C1052 1.434 . S
C1052 C1043 1.429 . S
C1052 N1049 1.350 . S
C1052 C1051 1.434 . S
C1053 C1054 1.369 . S
C1053 C1055 1.419 . S
C1053 H1057 0.930 . S
C1054 C1053 1.369 . S
C1054 C1063 1.429 . S
C1055 C1053 1.419 . S
C1055 C1056 1.363 . S
C1055 H1058 0.929 . S
C1056 C1055 1.363 . S
C1056 C1062 1.428 . S
H1057 C1053 0.930 . S
H1058 C1055 0.929 . S
S1059 N1060 1.613 1_545 S
S1059 N1061 1.610 . S
N1060 S1059 1.613 1_565 S
N1060 C1063 1.350 . S
N1061 S1059 1.610 . S
N1061 C1062 1.351 1_545 S
C1062 C1056 1.428 . S
C1062 N1061 1.351 1_565 S
C1062 C1063 1.434 . S
C1063 C1054 1.429 . S
C1063 N1060 1.350 . S
C1063 C1062 1.434 . S
C1064 C1065 1.369 . S
C1064 C1066 1.419 . S
C1064 H1068 0.930 . S
C1065 C1064 1.369 . S
C1065 C1074 1.429 . S
C1066 C1064 1.419 . S
C1066 C1067 1.363 . S
C1066 H1069 0.929 . S
C1067 C1066 1.363 . S
C1067 C1073 1.428 . S
H1068 C1064 0.930 . S
H1069 C1066 0.929 . S
S1070 N1071 1.613 1_655 S
S1070 N1072 1.610 1_655 S
N1071 S1070 1.613 1_455 S
N1071 C1074 1.350 . S
N1072 S1070 1.610 1_455 S
N1072 C1073 1.351 . S
C1073 C1067 1.428 . S
C1073 N1072 1.351 . S
C1073 C1074 1.434 . S
C1074 C1065 1.429 . S
C1074 N1071 1.350 . S
C1074 C1073 1.434 . S
C1075 C1076 1.369 . S
C1075 C1077 1.419 . S
C1075 H1079 0.930 . S
C1076 C1075 1.369 . S
C1076 C1085 1.429 . S
C1077 C1075 1.419 . S
C1077 C1078 1.363 . S
C1077 H1080 0.929 . S
C1078 C1077 1.363 . S
C1078 C1084 1.428 . S
H1079 C1075 0.930 . S
H1080 C1077 0.929 . S
S1081 N1082 1.613 . S
S1081 N1083 1.610 . S
N1082 S1081 1.613 . S
N1082 C1085 1.350 . S
N1083 S1081 1.610 . S
N1083 C1084 1.351 . S
C1084 C1078 1.428 . S
C1084 N1083 1.351 . S
C1084 C1085 1.434 . S
C1085 C1076 1.429 . S
C1085 N1082 1.350 . S
C1085 C1084 1.434 . S
C1086 C1087 1.369 . S
C1086 C1088 1.419 . S
C1086 H1090 0.930 . S
C1087 C1086 1.369 . S
C1087 C1096 1.429 . S
C1088 C1086 1.419 . S
C1088 C1089 1.363 . S
C1088 H1091 0.929 . S
C1089 C1088 1.363 . S
C1089 C1095 1.428 . S
H1090 C1086 0.930 . S
H1091 C1088 0.929 . S
S1092 N1093 1.613 . S
S1092 N1094 1.610 . S
N1093 S1092 1.613 . S
N1093 C1096 1.350 . S
N1094 S1092 1.610 . S
N1094 C1095 1.351 . S
C1095 C1089 1.428 . S
C1095 N1094 1.351 . S
C1095 C1096 1.434 . S
C1096 C1087 1.429 . S
C1096 N1093 1.350 . S
C1096 C1095 1.434 . S
C1097 C1098 1.369 . S
C1097 C1099 1.419 . S
C1097 H1101 0.930 . S
C1098 C1097 1.369 . S
C1098 C1107 1.429 . S
C1099 C1097 1.419 . S
C1099 C1100 1.363 . S
C1099 H1102 0.929 . S
C1100 C1099 1.363 . S
C1100 C1106 1.428 . S
H1101 C1097 0.930 . S
H1102 C1099 0.929 . S
S1103 N1104 1.613 1_565 S
S1103 N1105 1.610 . S
N1104 S1103 1.613 1_545 S
N1104 C1107 1.350 1_545 S
N1105 S1103 1.610 . S
N1105 C1106 1.351 . S
C1106 C1100 1.428 . S
C1106 N1105 1.351 . S
C1106 C1107 1.434 . S
C1107 C1098 1.429 . S
C1107 N1104 1.350 1_565 S
C1107 C1106 1.434 . S
C1108 C1109 1.369 . S
C1108 C1110 1.419 . S
C1108 H1112 0.930 . S
C1109 C1108 1.369 . S
C1109 C1118 1.429 . S
C1110 C1108 1.419 . S
C1110 C1111 1.363 . S
C1110 H1113 0.929 . S
C1111 C1110 1.363 . S
C1111 C1117 1.428 . S
H1112 C1108 0.930 . S
H1113 C1110 0.929 . S
S1114 N1115 1.613 . S
S1114 N1116 1.610 . S
N1115 S1114 1.613 . S
N1115 C1118 1.350 . S
N1116 S1114 1.610 . S
N1116 C1117 1.351 . S
C1117 C1111 1.428 . S
C1117 N1116 1.351 . S
C1117 C1118 1.434 . S
C1118 C1109 1.429 . S
C1118 N1115 1.350 . S
C1118 C1117 1.434 . S
C1119 C1120 1.369 . S
C1119 C1121 1.419 . S
C1119 H1123 0.930 . S
C1120 C1119 1.369 . S
C1120 C1129 1.429 . S
C1121 C1119 1.419 . S
C1121 C1122 1.363 . S
C1121 H1124 0.929 . S
C1122 C1121 1.363 . S
C1122 C1128 1.428 . S
H1123 C1119 0.930 . S
H1124 C1121 0.929 . S
S1125 N1126 1.613 . S
S1125 N1127 1.610 . S
N1126 S1125 1.613 . S
N1126 C1129 1.350 . S
N1127 S1125 1.610 . S
N1127 C1128 1.351 . S
C1128 C1122 1.428 . S
C1128 N1127 1.351 . S
C1128 C1129 1.434 . S
C1129 C1120 1.429 . S
C1129 N1126 1.350 . S
C1129 C1128 1.434 . S
C1130 C1131 1.369 . S
C1130 C1132 1.419 . S
C1130 H1134 0.930 . S
C1131 C1130 1.369 . S
C1131 C1140 1.429 . S
C1132 C1130 1.419 . S
C1132 C1133 1.363 . S
C1132 H1135 0.929 . S
C1133 C1132 1.363 . S
C1133 C1139 1.428 . S
H1134 C1130 0.930 . S
H1135 C1132 0.929 . S
S1136 N1137 1.613 . S
S1136 N1138 1.610 . S
N1137 S1136 1.613 . S
N1137 C1140 1.350 . S
N1138 S1136 1.610 . S
N1138 C1139 1.351 . S
C1139 C1133 1.428 . S
C1139 N1138 1.351 . S
C1139 C1140 1.434 . S
C1140 C1131 1.429 . S
C1140 N1137 1.350 . S
C1140 C1139 1.434 . S
C1141 C1142 1.369 . S
C1141 C1143 1.419 . S
C1141 H1145 0.930 . S
C1142 C1141 1.369 . S
C1142 C1151 1.429 . S
C1143 C1141 1.419 . S
C1143 C1144 1.363 . S
C1143 H1146 0.929 . S
C1144 C1143 1.363 . S
C1144 C1150 1.428 . S
H1145 C1141 0.930 . S
H1146 C1143 0.929 . S
S1147 N1148 1.613 . S
S1147 N1149 1.610 . S
N1148 S1147 1.613 . S
N1148 C1151 1.350 . S
N1149 S1147 1.610 . S
N1149 C1150 1.351 . S
C1150 C1144 1.428 . S
C1150 N1149 1.351 . S
C1150 C1151 1.434 . S
C1151 C1142 1.429 . S
C1151 N1148 1.350 . S
C1151 C1150 1.434 . S
C1152 C1153 1.369 . S
C1152 C1154 1.419 . S
C1152 H1156 0.930 . S
C1153 C1152 1.369 . S
C1153 C1162 1.429 . S
C1154 C1152 1.419 . S
C1154 C1155 1.363 . S
C1154 H1157 0.929 . S
C1155 C1154 1.363 . S
C1155 C1161 1.428 . S
H1156 C1152 0.930 . S
H1157 C1154 0.929 . S
S1158 N1159 1.613 . S
S1158 N1160 1.610 . S
N1159 S1158 1.613 . S
N1159 C1162 1.350 . S
N1160 S1158 1.610 . S
N1160 C1161 1.351 . S
C1161 C1155 1.428 . S
C1161 N1160 1.351 . S
C1161 C1162 1.434 . S
C1162 C1153 1.429 . S
C1162 N1159 1.350 . S
C1162 C1161 1.434 . S
C1163 C1164 1.369 . S
C1163 C1165 1.419 . S
C1163 H1167 0.930 . S
C1164 C1163 1.369 . S
C1164 C1173 1.429 . S
C1165 C1163 1.419 . S
C1165 C1166 1.363 . S
C1165 H1168 0.929 . S
C1166 C1165 1.363 . S
C1166 C1172 1.428 . S
H1167 C1163 0.930 . S
H1168 C1165 0.929 . S
S1169 N1170 1.613 . S
S1169 N1171 1.610 . S
N1170 S1169 1.613 . S
N1170 C1173 1.350 . S
N1171 S1169 1.610 . S
N1171 C1172 1.351 . S
C1172 C1166 1.428 . S
C1172 N1171 1.351 . S
C1172 C1173 1.434 . S
C1173 C1164 1.429 . S
C1173 N1170 1.350 . S
C1173 C1172 1.434 . S
C1174 C1175 1.369 . S
C1174 C1176 1.419 . S
C1174 H1178 0.930 . S
C1175 C1174 1.369 . S
C1175 C1184 1.429 . S
C1176 C1174 1.419 . S
C1176 C1177 1.363 . S
C1176 H1179 0.929 . S
C1177 C1176 1.363 . S
C1177 C1183 1.428 . S
H1178 C1174 0.930 . S
H1179 C1176 0.929 . S
S1180 N1181 1.613 . S
S1180 N1182 1.610 . S
N1181 S1180 1.613 . S
N1181 C1184 1.350 . S
N1182 S1180 1.610 . S
N1182 C1183 1.351 . S
C1183 C1177 1.428 . S
C1183 N1182 1.351 . S
C1183 C1184 1.434 . S
C1184 C1175 1.429 . S
C1184 N1181 1.350 . S
C1184 C1183 1.434 . S
C1185 C1186 1.369 . S
C1185 C1187 1.419 . S
C1185 H1189 0.930 . S
C1186 C1185 1.369 . S
C1186 C1195 1.429 1_554 S
C1187 C1185 1.419 . S
C1187 C1188 1.363 1_554 S
C1187 H1190 0.929 . S
C1188 C1187 1.363 1_556 S
C1188 C1194 1.428 . S
H1189 C1185 0.930 . S
H1190 C1187 0.929 . S
S1191 N1192 1.613 . S
S1191 N1193 1.610 . S
N1192 S1191 1.613 . S
N1192 C1195 1.350 . S
N1193 S1191 1.610 . S
N1193 C1194 1.351 . S
C1194 C1188 1.428 . S
C1194 N1193 1.351 . S
C1194 C1195 1.434 . S
C1195 C1186 1.429 1_556 S
C1195 N1192 1.350 . S
C1195 C1194 1.434 . S
C1196 C1197 1.369 . S
C1196 C1198 1.419 . S
C1196 H1200 0.930 . S
C1197 C1196 1.369 . S
C1197 C1206 1.429 1_554 S
C1198 C1196 1.419 . S
C1198 C1199 1.363 1_554 S
C1198 H1201 0.929 . S
C1199 C1198 1.363 1_556 S
C1199 C1205 1.428 . S
H1200 C1196 0.930 . S
H1201 C1198 0.929 . S
S1202 N1203 1.613 . S
S1202 N1204 1.610 . S
N1203 S1202 1.613 . S
N1203 C1206 1.350 . S
N1204 S1202 1.610 . S
N1204 C1205 1.351 . S
C1205 C1199 1.428 . S
C1205 N1204 1.351 . S
C1205 C1206 1.434 . S
C1206 C1197 1.429 1_556 S
C1206 N1203 1.350 . S
C1206 C1205 1.434 . S
C1207 C1208 1.369 . S
C1207 C1209 1.419 . S
C1207 H1211 0.930 . S
C1208 C1207 1.369 . S
C1208 C1217 1.429 1_554 S
C1209 C1207 1.419 . S
C1209 C1210 1.363 1_554 S
C1209 H1212 0.929 . S
C1210 C1209 1.363 1_556 S
C1210 C1216 1.428 . S
H1211 C1207 0.930 . S
H1212 C1209 0.929 . S
S1213 N1214 1.613 . S
S1213 N1215 1.610 . S
N1214 S1213 1.613 . S
N1214 C1217 1.350 . S
N1215 S1213 1.610 . S
N1215 C1216 1.351 . S
C1216 C1210 1.428 . S
C1216 N1215 1.351 . S
C1216 C1217 1.434 . S
C1217 C1208 1.429 1_556 S
C1217 N1214 1.350 . S
C1217 C1216 1.434 . S
C1218 C1219 1.369 . S
C1218 C1220 1.419 . S
C1218 H1222 0.930 . S
C1219 C1218 1.369 . S
C1219 C1228 1.429 . S
C1220 C1218 1.419 . S
C1220 C1221 1.363 . S
C1220 H1223 0.929 . S
C1221 C1220 1.363 . S
C1221 C1227 1.428 . S
H1222 C1218 0.930 . S
H1223 C1220 0.929 . S
S1224 N1225 1.613 . S
S1224 N1226 1.610 . S
N1225 S1224 1.613 . S
N1225 C1228 1.350 . S
N1226 S1224 1.610 . S
N1226 C1227 1.351 . S
C1227 C1221 1.428 . S
C1227 N1226 1.351 . S
C1227 C1228 1.434 . S
C1228 C1219 1.429 . S
C1228 N1225 1.350 . S
C1228 C1227 1.434 . S
C1229 C1230 1.369 . S
C1229 C1231 1.419 . S
C1229 H1233 0.930 . S
C1230 C1229 1.369 . S
C1230 C1239 1.429 . S
C1231 C1229 1.419 . S
C1231 C1232 1.363 . S
C1231 H1234 0.929 . S
C1232 C1231 1.363 . S
C1232 C1238 1.428 . S
H1233 C1229 0.930 . S
H1234 C1231 0.929 . S
S1235 N1236 1.613 . S
S1235 N1237 1.610 . S
N1236 S1235 1.613 . S
N1236 C1239 1.350 . S
N1237 S1235 1.610 . S
N1237 C1238 1.351 . S
C1238 C1232 1.428 . S
C1238 N1237 1.351 . S
C1238 C1239 1.434 . S
C1239 C1230 1.429 . S
C1239 N1236 1.350 . S
C1239 C1238 1.434 . S
C1240 C1241 1.369 . S
C1240 C1242 1.419 . S
C1240 H1244 0.930 . S
C1241 C1240 1.369 . S
C1241 C1250 1.429 . S
C1242 C1240 1.419 . S
C1242 C1243 1.363 . S
C1242 H1245 0.929 . S
C1243 C1242 1.363 . S
C1243 C1249 1.428 . S
H1244 C1240 0.930 . S
H1245 C1242 0.929 . S
S1246 N1247 1.613 . S
S1246 N1248 1.610 . S
N1247 S1246 1.613 . S
N1247 C1250 1.350 . S
N1248 S1246 1.610 . S
N1248 C1249 1.351 . S
C1249 C1243 1.428 . S
C1249 N1248 1.351 . S
C1249 C1250 1.434 . S
C1250 C1241 1.429 . S
C1250 N1247 1.350 . S
C1250 C1249 1.434 . S
C1251 C1252 1.369 . S
C1251 C1253 1.419 . S
C1251 H1255 0.930 . S
C1252 C1251 1.369 . S
C1252 C1261 1.429 1_554 S
C1253 C1251 1.419 . S
C1253 C1254 1.363 1_554 S
C1253 H1256 0.929 . S
C1254 C1253 1.363 1_556 S
C1254 C1260 1.428 . S
H1255 C1251 0.930 . S
H1256 C1253 0.929 . S
S1257 N1258 1.613 . S
S1257 N1259 1.610 . S
N1258 S1257 1.613 . S
N1258 C1261 1.350 . S
N1259 S1257 1.610 . S
N1259 C1260 1.351 . S
C1260 C1254 1.428 . S
C1260 N1259 1.351 . S
C1260 C1261 1.434 . S
C1261 C1252 1.429 1_556 S
C1261 N1258 1.350 . S
C1261 C1260 1.434 . S
C1262 C1263 1.369 . S
C1262 C1264 1.419 1_556 S
C1262 H1266 0.930 1_556 S
C1263 C1262 1.369 . S
C1263 C1272 1.429 . S
C1264 C1262 1.419 1_554 S
C1264 C1265 1.363 . S
C1264 H1267 0.929 . S
C1265 C1264 1.363 . S
C1265 C1271 1.428 1_554 S
H1266 C1262 0.930 1_554 S
H1267 C1264 0.929 . S
S1268 N1269 1.613 . S
S1268 N1270 1.610 . S
N1269 S1268 1.613 . S
N1269 C1272 1.350 . S
N1270 S1268 1.610 . S
N1270 C1271 1.351 . S
C1271 C1265 1.428 1_556 S
C1271 N1270 1.351 . S
C1271 C1272 1.434 . S
C1272 C1263 1.429 . S
C1272 N1269 1.350 . S
C1272 C1271 1.434 . S
C1273 C1274 1.369 . S
C1273 C1275 1.419 . S
C1273 H1277 0.930 . S
C1274 C1273 1.369 . S
C1274 C1283 1.429 1_556 S
C1275 C1273 1.419 . S
C1275 C1276 1.363 1_556 S
C1275 H1278 0.929 1_655 S
C1276 C1275 1.363 1_554 S
C1276 C1282 1.428 . S
H1277 C1273 0.930 . S
H1278 C1275 0.929 1_455 S
S1279 N1280 1.613 . S
S1279 N1281 1.610 . S
N1280 S1279 1.613 . S
N1280 C1283 1.350 . S
N1281 S1279 1.610 . S
N1281 C1282 1.351 . S
C1282 C1276 1.428 . S
C1282 N1281 1.351 . S
C1282 C1283 1.434 . S
C1283 C1274 1.429 1_554 S
C1283 N1280 1.350 . S
C1283 C1282 1.434 . S
C1284 C1285 1.369 . S
C1284 C1286 1.419 . S
C1284 H1288 0.930 . S
C1285 C1284 1.369 . S
C1285 C1294 1.429 . S
C1286 C1284 1.419 . S
C1286 C1287 1.363 . S
C1286 H1289 0.929 . S
C1287 C1286 1.363 . S
C1287 C1293 1.428 . S
H1288 C1284 0.930 . S
H1289 C1286 0.929 . S
S1290 N1291 1.613 . S
S1290 N1292 1.610 . S
N1291 S1290 1.613 . S
N1291 C1294 1.350 . S
N1292 S1290 1.610 . S
N1292 C1293 1.351 . S
C1293 C1287 1.428 . S
C1293 N1292 1.351 . S
C1293 C1294 1.434 . S
C1294 C1285 1.429 . S
C1294 N1291 1.350 . S
C1294 C1293 1.434 . S
C1295 C1296 1.369 . S
C1295 C1297 1.419 . S
C1295 H1299 0.930 . S
C1296 C1295 1.369 . S
C1296 C1305 1.429 . S
C1297 C1295 1.419 . S
C1297 C1298 1.363 . S
C1297 H1300 0.929 . S
C1298 C1297 1.363 . S
C1298 C1304 1.428 . S
H1299 C1295 0.930 . S
H1300 C1297 0.929 . S
S1301 N1302 1.613 1_565 S
S1301 N1303 1.610 . S
N1302 S1301 1.613 1_545 S
N1302 C1305 1.350 . S
N1303 S1301 1.610 . S
N1303 C1304 1.351 1_565 S
C1304 C1298 1.428 . S
C1304 N1303 1.351 1_545 S
C1304 C1305 1.434 . S
C1305 C1296 1.429 . S
C1305 N1302 1.350 . S
C1305 C1304 1.434 . S
C1306 C1307 1.369 . S
C1306 C1308 1.419 . S
C1306 H1310 0.930 . S
C1307 C1306 1.369 . S
C1307 C1316 1.429 . S
C1308 C1306 1.419 . S
C1308 C1309 1.363 . S
C1308 H1311 0.929 . S
C1309 C1308 1.363 . S
C1309 C1315 1.428 . S
H1310 C1306 0.930 . S
H1311 C1308 0.929 . S
S1312 N1313 1.613 . S
S1312 N1314 1.610 . S
N1313 S1312 1.613 . S
N1313 C1316 1.350 . S
N1314 S1312 1.610 . S
N1314 C1315 1.351 . S
C1315 C1309 1.428 . S
C1315 N1314 1.351 . S
C1315 C1316 1.434 . S
C1316 C1307 1.429 . S
C1316 N1313 1.350 . S
C1316 C1315 1.434 . S
C1317 C1318 1.369 . S
C1317 C1319 1.419 . S
C1317 H1321 0.930 . S
C1318 C1317 1.369 . S
C1318 C1327 1.429 . S
C1319 C1317 1.419 . S
C1319 C1320 1.363 . S
C1319 H1322 0.929 . S
C1320 C1319 1.363 . S
C1320 C1326 1.428 . S
H1321 C1317 0.930 . S
H1322 C1319 0.929 . S
S1323 N1324 1.613 . S
S1323 N1325 1.610 . S
N1324 S1323 1.613 . S
N1324 C1327 1.350 . S
N1325 S1323 1.610 . S
N1325 C1326 1.351 . S
C1326 C1320 1.428 . S
C1326 N1325 1.351 . S
C1326 C1327 1.434 . S
C1327 C1318 1.429 . S
C1327 N1324 1.350 . S
C1327 C1326 1.434 . S
C1328 C1329 1.369 . S
C1328 C1330 1.419 . S
C1328 H1332 0.930 . S
C1329 C1328 1.369 . S
C1329 C1338 1.429 . S
C1330 C1328 1.419 . S
C1330 C1331 1.363 . S
C1330 H1333 0.929 . S
C1331 C1330 1.363 . S
C1331 C1337 1.428 . S
H1332 C1328 0.930 . S
H1333 C1330 0.929 . S
S1334 N1335 1.613 . S
S1334 N1336 1.610 . S
N1335 S1334 1.613 . S
N1335 C1338 1.350 . S
N1336 S1334 1.610 . S
N1336 C1337 1.351 . S
C1337 C1331 1.428 . S
C1337 N1336 1.351 . S
C1337 C1338 1.434 . S
C1338 C1329 1.429 . S
C1338 N1335 1.350 . S
C1338 C1337 1.434 . S
C1339 C1340 1.369 . S
C1339 C1341 1.419 . S
C1339 H1343 0.930 . S
C1340 C1339 1.369 . S
C1340 C1349 1.429 . S
C1341 C1339 1.419 . S
C1341 C1342 1.363 . S
C1341 H1344 0.929 . S
C1342 C1341 1.363 . S
C1342 C1348 1.428 . S
H1343 C1339 0.930 . S
H1344 C1341 0.929 . S
S1345 N1346 1.613 . S
S1345 N1347 1.610 . S
N1346 S1345 1.613 . S
N1346 C1349 1.350 . S
N1347 S1345 1.610 . S
N1347 C1348 1.351 . S
C1348 C1342 1.428 . S
C1348 N1347 1.351 . S
C1348 C1349 1.434 . S
C1349 C1340 1.429 . S
C1349 N1346 1.350 . S
C1349 C1348 1.434 . S
C559 C219 0.289 . S
C561 C20 0.100 . S
C570 C33 0.253 . S
C572 C277 0.278 . S
C581 C215 0.200 . S
C583 C82 0.125 . S
C592 C405 0.286 . S
C594 C64 0.283 . S
C603 C435 0.129 . S
C605 C2 0.271 . S
C614 C373 0.145 . S
C616 C51 0.120 . S
C625 C94 0.133 . S
C627 C516 0.120 . S
C636 C126 0.310 . S
C638 C556 0.294 . S
C647 C156 0.131 . S
C649 C494 0.269 . S
C658 C184 0.312 . S
C660 C312 0.273 . S
C669 C122 0.283 . S
C671 C343 0.289 . S
C680 C144 0.161 . S
C682 C281 0.215 . S
C691 C187 0.107 . S
C693 C423 0.146 . S
C702 C237 0.194 . S
C704 C463 0.304 . S
C713 C401 0.242 . S
C715 C249 0.199 . S
C724 C498 0.224 . S
C726 C361 0.172 . S
C735 C299 0.117 . S
C737 C528 0.155 . S
C746 C466 0.055 . S
C748 C330 0.213 . S
C757 C113 1.654 . S
C759 C1 1.660 . S
C768 C153 1.837 . S
C770 C60 1.834 . S
C779 C63 1.698 . S
C781 C175 1.685 . S
C790 C157 1.876 . S
C792 C91 1.871 . S
C801 C29 1.841 . S
C803 C95 1.834 . S
C812 C32 1.700 . S
C814 C125 1.685 . S
C823 C308 1.702 . S
C825 C206 1.754 . S
C834 C339 1.716 . S
C836 C218 1.753 . S
C845 C370 1.771 . S
C847 C268 1.809 . S
C856 C342 1.798 . S
C858 C250 1.748 . S
C867 C280 1.729 . S
C869 C188 1.694 . S
C878 C311 1.797 . S
C880 C246 1.743 . S
C889 C485 1.638 . S
C891 C392 1.635 . S
C900 C525 1.815 . S
C902 C432 1.812 . S
C911 C454 1.667 . S
C913 C547 1.667 . S
C922 C436 1.852 . S
C924 C529 1.847 . S
C933 C374 1.808 . S
C935 C467 1.822 . S
C944 C404 1.665 . S
C946 C497 1.671 . S
C955 C0 1.928 . S
C957 C351 1.965 . S
C966 C289 1.834 . S
C968 C61 1.927 . S
C977 C320 1.939 . S
C979 C62 1.925 . S
C988 C92 1.964 . S
C990 C495 1.873 . S
C999 C515 1.921 . S
C1001 C30 1.993 . S
C1010 C557 1.956 . S
C1012 C31 1.924 . S
C1021 C434 2.041 . S
C1023 C112 1.972 . S
C1032 C154 2.006 . S
C1034 C372 1.930 . S
C1043 C174 1.933 . S
C1045 C413 1.970 . S
C1054 C216 1.874 . S
C1056 C165 1.971 . S
C1065 C103 1.987 . S
C1067 C227 1.894 . S
C1076 C124 1.979 . S
C1078 C278 1.998 . S
C1087 C205 1.942 . S
C1089 C527 1.984 . S
C1098 C465 1.995 1_565 S
C1100 C217 1.945 . S
C1109 C506 1.928 1_455 S
C1111 C267 1.905 . S
C1120 C123 1.887 . S
C1122 C258 1.996 . S
C1131 C196 2.031 . S
C1133 C143 1.958 . S
C1142 C185 1.882 . S
C1144 C247 1.993 . S
C1153 C309 2.054 . S
C1155 C81 1.980 . S
C1164 C340 2.061 . S
C1166 C19 1.990 . S
C1175 C371 2.018 . S
C1177 C41 1.911 . S
C1186 C341 1.881 . S
C1188 C402 1.913 . S
C1197 C279 1.922 . S
C1199 C422 1.962 1_565 S
C1208 C310 1.880 . S
C1210 C464 1.908 1_455 S
C1219 C155 2.019 . S
C1221 C391 1.955 . S
C1230 C93 1.911 . S
C1232 C433 1.990 . S
C1241 C453 1.928 . S
C1243 C134 1.952 . S
C1252 C298 1.918 . S
C1254 C444 1.981 . S
C1263 C382 1.998 . S
C1265 C329 1.929 1_545 S
C1274 C403 1.991 . S
C1276 C360 2.056 1_655 S
C1285 C248 2.014 . S
C1287 C484 1.947 . S
C1296 C526 1.937 . S
C1298 C186 1.869 1_545 S
C1307 C236 1.998 1_655 S
C1309 C546 1.936 . S
C1318 C537 1.950 . S
C1320 C10 1.858 . S
C1329 C50 1.907 . S
C1331 C475 1.975 . S
C1340 C72 1.936 . S
C1342 C496 1.915 . S
