# Generated by pormake.
# Topology loh, (5)-cn, num edge types: 1
# Building blocks:
#     Node 0, Type 0, BuildingBlock: XOMCOT_clean_sbu_1, # of connection points: 5
#     Node 1, Type 0, BuildingBlock: XOMCOT_clean_sbu_1, # of connection points: 5
#     Node 2, Type 0, BuildingBlock: XOMCOT_clean_sbu_1, # of connection points: 5
#     Node 3, Type 0, BuildingBlock: XOMCOT_clean_sbu_1, # of connection points: 5
#     Node 4, Type 0, BuildingBlock: XOMCOT_clean_sbu_1, # of connection points: 5
#     Node 5, Type 0, BuildingBlock: XOMCOT_clean_sbu_1, # of connection points: 5
#     Node 6, Type 0, BuildingBlock: XOMCOT_clean_sbu_1, # of connection points: 5
#     Node 7, Type 0, BuildingBlock: XOMCOT_clean_sbu_1, # of connection points: 5
#     Edge 8, Type (0, 0), BuildingBlock: MIFKUJ_clean_linker_0, # of connection points: 2
#     Edge 9, Type (0, 0), BuildingBlock: MIFKUJ_clean_linker_0, # of connection points: 2
#     Edge 10, Type (0, 0), BuildingBlock: MIFKUJ_clean_linker_0, # of connection points: 2
#     Edge 11, Type (0, 0), BuildingBlock: MIFKUJ_clean_linker_0, # of connection points: 2
#     Edge 12, Type (0, 0), BuildingBlock: MIFKUJ_clean_linker_0, # of connection points: 2
#     Edge 13, Type (0, 0), BuildingBlock: MIFKUJ_clean_linker_0, # of connection points: 2
#     Edge 14, Type (0, 0), BuildingBlock: MIFKUJ_clean_linker_0, # of connection points: 2
#     Edge 15, Type (0, 0), BuildingBlock: MIFKUJ_clean_linker_0, # of connection points: 2
#     Edge 16, Type (0, 0), BuildingBlock: MIFKUJ_clean_linker_0, # of connection points: 2
#     Edge 17, Type (0, 0), BuildingBlock: MIFKUJ_clean_linker_0, # of connection points: 2
#     Edge 18, Type (0, 0), BuildingBlock: MIFKUJ_clean_linker_0, # of connection points: 2
#     Edge 19, Type (0, 0), BuildingBlock: MIFKUJ_clean_linker_0, # of connection points: 2
#     Edge 20, Type (0, 0), BuildingBlock: MIFKUJ_clean_linker_0, # of connection points: 2
#     Edge 21, Type (0, 0), BuildingBlock: MIFKUJ_clean_linker_0, # of connection points: 2
#     Edge 22, Type (0, 0), BuildingBlock: MIFKUJ_clean_linker_0, # of connection points: 2
#     Edge 23, Type (0, 0), BuildingBlock: MIFKUJ_clean_linker_0, # of connection points: 2
#     Edge 24, Type (0, 0), BuildingBlock: MIFKUJ_clean_linker_0, # of connection points: 2
#     Edge 25, Type (0, 0), BuildingBlock: MIFKUJ_clean_linker_0, # of connection points: 2
#     Edge 26, Type (0, 0), BuildingBlock: MIFKUJ_clean_linker_0, # of connection points: 2
#     Edge 27, Type (0, 0), BuildingBlock: MIFKUJ_clean_linker_0, # of connection points: 2
# Relax obj value: 0.196
# Max RMSD: 0.135
# Mean RMSD: 0.135
data_MOF--net-loh--node1-XOMCOT_clean_sbu_1--edge1-MIFKUJ_clean_linker_0
_symmetry_space_group_name_H-M    P1
_symmetry_Int_Tables_number       1
_symmetry_cell_setting            triclinic
loop_
_symmetry_equiv_pos_as_xyz
'x, y, z'
_cell_length_a     34.810765
_cell_length_b     31.60953
_cell_length_c     51.295408
_cell_angle_alpha  90.240614
_cell_angle_beta   90.005959
_cell_angle_gamma 90.051502
loop_
_atom_site_label
_atom_site_type_symbol
_atom_site_fract_x
_atom_site_fract_y
_atom_site_fract_z
_atom_type_partial_charge
C0 C 1.02186 0.14624 0.13943 0.0
C1 C 1.02755 0.10866 0.15214 0.0
N2 N 1.02911 0.1165 0.17789 0.0
N3 N 1.02035 0.17837 0.15688 0.0
C4 C 1.02445 0.15886 0.18027 0.0
H5 H 1.01633 0.14888 0.11888 0.0
Co6 Co 1.00966 0.23654 0.15072 0.0
C7 C 1.02242 0.26176 0.20072 0.0
O8 O 0.98603 0.25075 0.20182 0.0
N9 N 0.99846 0.29333 0.14581 0.0
C10 C 0.96488 0.35288 0.1455 0.0
C11 C 0.96546 0.31155 0.15369 0.0
C12 C 1.01782 0.32418 0.13326 0.0
N13 N 0.99775 0.36067 0.1325 0.0
O14 O 0.05587 0.2411 0.12815 0.0
H15 H 0.94266 0.29521 0.16384 0.0
H16 H 0.04543 0.31963 0.12401 0.0
O17 O 0.04107 0.25334 0.17993 0.0
C18 C 0.06711 0.2264 0.10612 0.0
O19 O 0.04466 0.20127 0.09256 0.0
N20 N 0.97564 0.22293 0.1227 0.0
C21 C 0.91289 0.21804 0.08845 0.0
C22 C 0.9137 0.19399 0.11137 0.0
C23 C 0.94502 0.19755 0.12847 0.0
C24 C 0.97565 0.24554 0.1 0.0
C25 C 0.94477 0.24337 0.08264 0.0
H26 H 0.94384 0.18166 0.14708 0.0
H27 H 0.99869 0.26729 0.0957 0.0
H28 H 1.02338 0.17514 0.19881 0.0
H29 H 1.02831 0.07762 0.14316 0.0
H30 H 0.94118 0.37476 0.1477 0.0
H31 H 0.88929 0.1747 0.11684 0.0
H32 H 0.94522 0.26265 0.06523 0.0
C33 C 0.51725 0.84284 0.65782 0.0
C34 C 0.51329 0.88122 0.6701 0.0
N35 N 0.54777 0.89307 0.67943 0.0
N36 N 0.55444 0.83058 0.65836 0.0
C37 C 0.57209 0.86154 0.67243 0.0
H38 H 0.4936 0.82383 0.65082 0.0
Co39 Co 0.57308 0.77604 0.64922 0.0
C40 C 0.55802 0.74815 0.69829 0.0
O41 O 0.59014 0.76887 0.70269 0.0
N42 N 0.59152 0.72247 0.642 0.0
C43 C 0.62814 0.66517 0.64359 0.0
C44 C 0.62233 0.70507 0.65365 0.0
C45 C 0.57879 0.6927 0.62521 0.0
N46 N 0.6007 0.65751 0.62562 0.0
O47 O 0.52974 0.76757 0.62452 0.0
H48 H 0.63964 0.72068 0.66832 0.0
H49 H 0.55482 0.69733 0.61215 0.0
O50 O 0.54227 0.75165 0.67602 0.0
C51 C 0.51571 0.78985 0.60601 0.0
O52 O 0.53149 0.82648 0.60033 0.0
N53 N 0.60684 0.79755 0.62305 0.0
C54 C 0.67227 0.80535 0.59096 0.0
C55 C 0.67174 0.82214 0.61638 0.0
C56 C 0.63909 0.8173 0.63213 0.0
C57 C 0.60645 0.78228 0.59801 0.0
C58 C 0.63846 0.7863 0.58169 0.0
H59 H 0.64119 0.82586 0.65242 0.0
H60 H 0.58297 0.76311 0.59105 0.0
H61 H 0.60162 0.86002 0.67876 0.0
H62 H 0.48648 0.89768 0.67349 0.0
H63 H 0.65103 0.64377 0.64894 0.0
H64 H 0.69703 0.837 0.62461 0.0
H65 H 0.63755 0.77145 0.56263 0.0
C66 C 0.09221 0.84188 0.87984 0.0
C67 C 0.09546 0.87956 0.86683 0.0
N68 N 0.06007 0.8958 0.86375 0.0
N69 N 0.05499 0.83455 0.88579 0.0
C70 C 1.03598 0.86775 0.87514 0.0
H71 H 0.11556 0.82027 0.88373 0.0
Co72 Co 1.03654 0.78334 0.90005 0.0
C73 C 0.04647 0.74765 0.85215 0.0
O74 O 1.01379 0.76767 0.84873 0.0
N75 N 1.018 0.73284 0.91297 0.0
C76 C 0.97788 0.67985 0.92064 0.0
C77 C 0.98558 0.71377 0.90475 0.0
C78 C 1.02977 0.70997 0.93361 0.0
N79 N 1.00565 0.67771 0.93892 0.0
O80 O 0.08204 0.77942 0.92298 0.0
H81 H 0.96785 0.725 0.88891 0.0
H82 H 0.05493 0.71754 0.94505 0.0
O83 O 0.06394 0.75229 0.87379 0.0
C84 C 0.10067 0.80644 0.93669 0.0
O85 O 0.08892 0.84594 0.93757 0.0
N86 N 1.00602 0.81156 0.92534 0.0
C87 C 0.94265 0.82224 0.9586 0.0
C88 C 0.93921 0.8284 0.93163 0.0
C89 C 0.97111 0.82259 0.9154 0.0
C90 C 1.01035 0.80746 0.95176 0.0
C91 C 0.97921 0.81344 0.96869 0.0
H92 H 0.96676 0.82217 0.89455 0.0
H93 H 1.03632 0.79485 0.96001 0.0
H94 H 1.0051 0.87088 0.87492 0.0
H95 H 0.12168 0.89291 0.85902 0.0
H96 H 0.95281 0.65965 0.91951 0.0
H97 H 0.91151 0.83487 0.92291 0.0
H98 H 0.98304 0.80718 0.98927 0.0
C99 C 0.52756 0.17064 0.39432 0.0
C100 C 0.52442 0.1317 0.38254 0.0
N101 N 0.55756 0.12322 0.37011 0.0
N102 N 0.56312 0.18655 0.39029 0.0
C103 C 0.58019 0.15732 0.37467 0.0
H104 H 0.50407 0.18712 0.40355 0.0
Co105 Co 0.5819 0.24156 0.39786 0.0
C106 C 0.56806 0.26914 0.34873 0.0
O107 O 0.60162 0.25084 0.3455 0.0
N108 N 0.60093 0.2954 0.4034 0.0
C109 C 0.64298 0.34799 0.40543 0.0
C110 C 0.63615 0.30803 0.39581 0.0
C111 C 0.58632 0.3284 0.41683 0.0
N112 N 0.61159 0.36058 0.4187 0.0
O113 O 0.53901 0.25202 0.42274 0.0
H114 H 0.65624 0.28845 0.38514 0.0
H115 H 0.55899 0.32767 0.42686 0.0
O116 O 0.55092 0.26423 0.37044 0.0
C117 C 0.52758 0.23211 0.44305 0.0
O118 O 0.54519 0.19722 0.45011 0.0
N119 N 0.61557 0.22167 0.42481 0.0
C120 C 0.67927 0.21214 0.45829 0.0
C121 C 0.67676 0.18964 0.43463 0.0
C122 C 0.64508 0.19538 0.41807 0.0
C123 C 0.61701 0.24257 0.44826 0.0
C124 C 0.64817 0.23807 0.46518 0.0
H125 H 0.64593 0.18111 0.39901 0.0
H126 H 0.59555 0.26576 0.45334 0.0
H127 H 0.60804 0.1618 0.36578 0.0
H128 H 0.49875 0.11236 0.38179 0.0
H129 H 0.66956 0.3656 0.40386 0.0
H130 H 0.69985 0.16911 0.4283 0.0
H131 H 0.64885 0.2573 0.48268 0.0
C132 C 0.5656 0.65315 0.13952 0.0
C133 C 0.56916 0.61624 0.15325 0.0
N134 N 0.55714 0.62317 0.17779 0.0
N135 N 0.5517 0.68398 0.15519 0.0
C136 C 0.54646 0.66436 0.17843 0.0
H137 H 0.57177 0.65604 0.11916 0.0
Co138 Co 0.53917 0.74089 0.14708 0.0
C139 C 0.54967 0.77015 0.19607 0.0
O140 O 0.51345 0.75838 0.19653 0.0
N141 N 0.5262 0.79658 0.14038 0.0
C142 C 0.49006 0.85324 0.1345 0.0
C143 C 0.49126 0.81323 0.14478 0.0
C144 C 0.54622 0.8273 0.12828 0.0
N145 N 0.52461 0.86202 0.12378 0.0
O146 O 0.58551 0.74558 0.12407 0.0
H147 H 0.46753 0.79627 0.15348 0.0
H148 H 0.57546 0.82331 0.12172 0.0
O149 O 0.56957 0.76124 0.17589 0.0
C150 C 0.59624 0.73269 0.10144 0.0
O151 O 0.57328 0.7089 0.08731 0.0
N152 N 0.50562 0.72336 0.11956 0.0
C153 C 0.44128 0.71438 0.08681 0.0
C154 C 0.44435 0.69116 0.11003 0.0
C155 C 0.47662 0.6963 0.12616 0.0
C156 C 0.50329 0.74549 0.09672 0.0
C157 C 0.47189 0.74096 0.08001 0.0
H158 H 0.47709 0.68066 0.14486 0.0
H159 H 0.52471 0.7689 0.09188 0.0
H160 H 0.5349 0.67984 0.19552 0.0
H161 H 0.57871 0.58616 0.14545 0.0
H162 H 0.4647 0.87289 0.1335 0.0
H163 H 0.42135 0.67039 0.11619 0.0
H164 H 0.47053 0.76047 0.06272 0.0
C165 C 1.02699 0.34632 0.66105 0.0
C166 C 1.02418 0.3855 0.67249 0.0
N167 N 0.05982 0.39925 0.67804 0.0
N168 N 0.06436 0.33553 0.65844 0.0
C169 C 0.08362 0.36819 0.66967 0.0
H170 H 1.00296 0.32593 0.65647 0.0
Co171 Co 0.08193 0.28122 0.64866 0.0
C172 C 0.0694 0.25147 0.69732 0.0
O173 O 0.10371 0.26839 0.69989 0.0
N174 N 0.09915 0.22772 0.64058 0.0
C175 C 0.13682 0.17184 0.63617 0.0
C176 C 0.13532 0.21363 0.64352 0.0
C177 C 0.07896 0.19403 0.63205 0.0
N178 N 0.10124 0.15939 0.6289 0.0
O179 O 0.03795 0.27421 0.62431 0.0
H180 H 0.15909 0.23266 0.65044 0.0
H181 H 0.04842 0.19508 0.62843 0.0
O182 O 0.0516 0.25682 0.6759 0.0
C183 C 1.02265 0.29915 0.60765 0.0
O184 O 1.03754 0.33693 0.60407 0.0
N185 N 0.11517 0.30296 0.62232 0.0
C186 C 0.17884 0.31194 0.58869 0.0
C187 C 0.18093 0.32409 0.61507 0.0
C188 C 0.14899 0.3191 0.63145 0.0
C189 C 0.11244 0.29141 0.59663 0.0
C190 C 0.1433 0.29692 0.57947 0.0
H191 H 0.1528 0.32389 0.65212 0.0
H192 H 0.08783 0.27431 0.58945 0.0
H193 H 0.11423 0.36848 0.67296 0.0
H194 H 0.99779 0.40133 0.67794 0.0
H195 H 0.16253 0.15272 0.63569 0.0
H196 H 0.20779 0.33435 0.62363 0.0
H197 H 0.13971 0.2871 0.55938 0.0
C198 C 0.51354 0.36772 0.90689 0.0
C199 C 0.521 0.40441 0.89372 0.0
N200 N 0.53018 0.39437 0.86906 0.0
N201 N 0.51885 0.33393 0.89097 0.0
C202 C 0.52837 0.35165 0.86776 0.0
H203 H 0.50249 0.36662 0.92653 0.0
Co204 Co 0.50849 0.27583 0.89825 0.0
C205 C 0.52125 0.24751 0.84879 0.0
O206 O 0.48492 0.25844 0.84709 0.0
N207 N 0.49717 0.21967 0.90433 0.0
C208 C 0.46301 0.16075 0.90808 0.0
C209 C 0.46356 0.20105 0.89806 0.0
C210 C 0.51698 0.19004 0.91749 0.0
N211 N 0.4967 0.15409 0.92028 0.0
O212 O 0.55488 0.2721 0.92086 0.0
H213 H 0.4402 0.21669 0.88809 0.0
H214 H 0.54441 0.1956 0.92671 0.0
O215 O 0.53967 0.25751 0.86941 0.0
C216 C 0.56911 0.29361 0.93976 0.0
O217 O 0.55051 0.32651 0.94887 0.0
N218 N 0.47503 0.29048 0.92597 0.0
C219 C 0.41338 0.29756 0.96101 0.0
C220 C 0.41102 0.31436 0.93574 0.0
C221 C 0.44188 0.30991 0.91847 0.0
C222 C 0.4782 0.27439 0.95058 0.0
C223 C 0.44793 0.27806 0.96845 0.0
H224 H 0.43883 0.32064 0.89858 0.0
H225 H 0.50311 0.25619 0.95608 0.0
H226 H 0.53297 0.33388 0.84999 0.0
H227 H 0.51764 0.43624 0.90126 0.0
H228 H 0.43906 0.13889 0.90763 0.0
H229 H 0.38512 0.32982 0.92903 0.0
H230 H 0.45084 0.26348 0.98741 0.0
C231 C 1.01901 0.67799 0.38164 0.0
C232 C 1.01325 0.64021 0.369 0.0
N233 N 0.0473 0.62044 0.36676 0.0
N234 N 0.05646 0.68217 0.38804 0.0
C235 C 0.07314 0.64668 0.3782 0.0
H236 H 0.99718 0.70159 0.38533 0.0
Co237 Co 0.07663 0.73201 0.40344 0.0
C238 C 0.06746 0.77262 0.35727 0.0
O239 O 0.10003 0.75264 0.35323 0.0
N240 N 0.09632 0.78122 0.41771 0.0
C241 C 0.13785 0.83013 0.43091 0.0
C242 C 0.1325 0.79567 0.41477 0.0
C243 C 0.07996 0.80769 0.43511 0.0
N244 N 0.10465 0.83745 0.44364 0.0
O245 O 1.03169 0.73527 0.42697 0.0
H246 H 0.15399 0.78099 0.4025 0.0
H247 H 0.05115 0.80408 0.44259 0.0
O248 O 0.04943 0.76571 0.37844 0.0
C249 C 1.01277 0.70812 0.44024 0.0
O250 O 1.02383 0.66837 0.44023 0.0
N251 N 0.10714 0.70149 0.42746 0.0
C252 C 0.17253 0.69046 0.4588 0.0
C253 C 0.17396 0.68319 0.43181 0.0
C254 C 0.14112 0.68924 0.41655 0.0
C255 C 0.10456 0.7062 0.45396 0.0
C256 C 0.13678 0.70018 0.46997 0.0
H257 H 0.14422 0.68934 0.3956 0.0
H258 H 0.07927 0.71961 0.46282 0.0
H259 H 0.10357 0.64024 0.3789 0.0
H260 H 0.98626 0.62895 0.3611 0.0
H261 H 0.16424 0.84779 0.4335 0.0
H262 H 0.20092 0.67592 0.42227 0.0
H263 H 0.13447 0.70719 0.4906 0.0
H264 H 0.41108 0.30872 1.01436 0.0
H265 H 0.35512 0.30405 0.04316 0.0
H266 H 0.28223 0.28096 0.97663 0.0
H267 H 0.33779 0.28516 0.94784 0.0
H268 H 0.24797 0.33463 1.00983 0.0
H269 H 0.31363 0.20033 1.01603 0.0
H270 H 0.36912 0.15402 1.02471 0.0
H271 H 0.37443 0.19989 0.10354 0.0
H272 H 0.31925 0.24694 0.09521 0.0
H273 H 0.08918 0.21988 0.05542 0.0
H274 H 0.15046 0.23954 0.03596 0.0
H275 H 0.19221 0.28045 0.11106 0.0
H276 H 0.1301 0.26135 0.13086 0.0
H277 H 0.24502 0.2262 0.0795 0.0
H278 H 0.17121 0.35218 0.07423 0.0
H279 H 0.11264 0.39299 0.0651 0.0
H280 H 0.12162 0.3618 0.98379 0.0
H281 H 0.17944 0.31915 0.99259 0.0
C282 C 0.38316 0.30259 1.00584 0.0
C283 C 0.37914 0.29735 0.97868 0.0
C284 C 0.35112 0.30001 1.02236 0.0
C285 C 0.31436 0.29181 1.01214 0.0
C286 C 0.31017 0.28755 0.98503 0.0
C287 C 0.34209 0.29014 0.96853 0.0
C288 C 0.2803 0.28624 0.02951 0.0
C289 C 0.24735 0.31084 1.025 0.0
C290 C 0.27963 0.25595 0.04984 0.0
C291 C 0.31263 0.22752 0.05491 0.0
C292 C 0.32682 0.20078 0.03516 0.0
C293 C 0.35819 0.17436 0.04002 0.0
C294 C 0.37538 0.17411 0.06464 0.0
C295 C 0.36114 0.20019 0.08447 0.0
C296 C 0.32982 0.22672 0.07969 0.0
C297 C 0.11129 0.23302 0.06793 0.0
C298 C 0.10467 0.23902 0.09475 0.0
C299 C 0.14635 0.24429 0.05671 0.0
C300 C 0.17589 0.26149 0.07202 0.0
C301 C 0.16977 0.26713 0.0989 0.0
C302 C 0.13425 0.25644 0.11015 0.0
C303 C 0.21267 0.27397 0.05939 0.0
C304 C 0.24598 0.25059 0.0647 0.0
C305 C 0.21365 0.30526 0.03974 0.0
C306 C 0.17955 0.33203 0.03414 0.0
C307 C 0.1605 0.35356 0.05443 0.0
C308 C 0.12732 0.37694 0.04933 0.0
C309 C 0.11335 0.37996 1.02388 0.0
C310 C 0.13247 0.35942 1.0035 0.0
C311 C 0.1654 0.33549 1.00856 0.0
H312 H 0.08779 0.39833 1.01994 0.0
H313 H 0.39965 0.15364 0.06837 0.0
H314 H 0.46415 0.72756 0.61929 0.0
H315 H 0.40551 0.70695 0.59605 0.0
H316 H 0.431 0.79794 0.53599 0.0
H317 H 0.48855 0.81977 0.55967 0.0
H318 H 0.35947 0.80323 0.54617 0.0
H319 H 0.44386 0.68563 0.53014 0.0
H320 H 0.48675 0.62703 0.54245 0.0
H321 H 0.39411 0.56632 0.58293 0.0
H322 H 0.35082 0.62513 0.57149 0.0
H323 H 0.23912 0.7302 0.445 0.0
H324 H 0.29657 0.74196 0.47136 0.0
H325 H 0.2456 0.6725 0.53468 0.0
H326 H 0.18758 0.66046 0.50823 0.0
H327 H 0.32695 0.65411 0.52511 0.0
H328 H 0.24267 0.7723 0.53949 0.0
H329 H 0.20032 0.83049 0.52556 0.0
H330 H 0.29466 0.88921 0.4857 0.0
H331 H 0.33744 0.83096 0.49901 0.0
C332 C 0.45732 0.74303 0.60107 0.0
C333 C 0.4811 0.77538 0.59138 0.0
C334 C 0.42379 0.73107 0.58769 0.0
C335 C 0.41372 0.75047 0.56397 0.0
C336 C 0.43777 0.78248 0.55423 0.0
C337 C 0.47088 0.79487 0.56778 0.0
C338 C 0.37791 0.73834 0.54946 0.0
C339 C 0.35278 0.77059 0.54138 0.0
C340 C 0.36824 0.69568 0.54358 0.0
C341 C 0.39417 0.66004 0.55018 0.0
C342 C 0.43267 0.65995 0.54183 0.0
C343 C 0.45707 0.62667 0.54864 0.0
C344 C 0.44318 0.59297 0.56344 0.0
C345 C 0.40484 0.59247 0.57148 0.0
C346 C 0.38037 0.6258 0.56487 0.0
C347 C 0.24029 0.71662 0.46433 0.0
C348 C 0.20871 0.6941 0.4744 0.0
C349 C 0.27313 0.72368 0.47947 0.0
C350 C 0.27541 0.70829 0.50506 0.0
C351 C 0.24452 0.68462 0.51497 0.0
C352 C 0.21133 0.67794 0.49989 0.0
C353 C 0.30928 0.71902 0.52166 0.0
C354 C 0.33385 0.68663 0.53009 0.0
C355 C 0.31871 0.76153 0.52768 0.0
C356 C 0.2932 0.79705 0.52007 0.0
C357 C 0.25434 0.79746 0.5276 0.0
C358 C 0.23025 0.83047 0.51983 0.0
C359 C 0.24477 0.86348 0.50471 0.0
C360 C 0.28344 0.8636 0.4974 0.0
C361 C 0.30763 0.83061 0.50506 0.0
H362 H 0.22608 0.889 0.49872 0.0
H363 H 0.46208 0.56719 0.56865 0.0
H364 H 0.43398 0.71483 0.03348 0.0
H365 H 0.3754 0.72485 1.00792 0.0
H366 H 0.30824 0.72528 0.07854 0.0
H367 H 0.3667 0.71527 0.10424 0.0
H368 H 0.27013 0.68462 0.0406 0.0
H369 H 0.33505 0.81758 0.04979 0.0
H370 H 0.38985 0.86684 0.04688 0.0
H371 H 0.39408 0.84871 0.96392 0.0
H372 H 0.33964 0.79881 0.9664 0.0
H373 H 0.14277 0.85454 0.97068 0.0
H374 H 0.19856 0.83357 0.99628 0.0
H375 H 0.19236 0.70788 0.96345 0.0
H376 H 0.13572 0.72846 0.93815 0.0
H377 H 0.2668 0.81045 0.98319 0.0
H378 H 0.23055 0.63585 1.00798 0.0
H379 H 0.17409 0.59041 1.01589 0.0
H380 H 0.10761 0.69937 0.0375 0.0
H381 H 0.16384 0.74537 0.03027 0.0
C382 C 0.40672 0.71674 0.04359 0.0
C383 C 0.40521 0.71454 0.07098 0.0
C384 C 0.3732 0.72248 0.02893 0.0
C385 C 0.33735 0.72656 0.04129 0.0
C386 C 0.33549 0.72225 0.06851 0.0
C387 C 0.36901 0.71636 0.0832 0.0
C388 C 0.30225 0.7377 1.02604 0.0
C389 C 0.26944 0.71199 0.02792 0.0
C390 C 0.30094 0.77394 1.00989 0.0
C391 C 0.33353 0.80413 1.00832 0.0
C392 C 0.34785 0.82386 0.03095 0.0
C393 C 0.37882 0.85192 0.02938 0.0
C394 C 0.3955 0.86081 1.00524 0.0
C395 C 0.38117 0.84173 0.98261 0.0
C396 C 0.35025 0.81357 0.98409 0.0
C397 C 0.1531 0.82235 0.96892 0.0
C398 C 0.13463 0.79322 0.95231 0.0
C399 C 0.18518 0.8104 0.98357 0.0
C400 C 0.19975 0.76902 0.98203 0.0
C401 C 0.18145 0.73981 0.96537 0.0
C402 C 0.14913 0.75171 0.95078 0.0
C403 C 0.23454 0.75713 0.99746 0.0
C404 C 0.26743 0.78279 0.99563 0.0
C405 C 0.23553 0.72136 1.01407 0.0
C406 C 0.20134 0.69411 1.01826 0.0
C407 C 0.2039 0.65011 1.01445 0.0
C408 C 0.17196 0.62426 1.01885 0.0
C409 C 0.13731 0.64203 0.02713 0.0
C410 C 0.13447 0.68569 0.03101 0.0
C411 C 0.16637 0.71167 0.02674 0.0
H412 H 0.11274 0.62194 0.03069 0.0
H413 H 0.41947 0.88255 1.00406 0.0
H414 H 0.46793 0.28284 0.42706 0.0
H415 H 0.41009 0.3018 0.45176 0.0
H416 H 0.45424 0.2352 0.51865 0.0
H417 H 0.51087 0.21462 0.49368 0.0
H418 H 0.38545 0.21524 0.51478 0.0
H419 H 0.44903 0.34811 0.51355 0.0
H420 H 0.48212 0.40929 0.49403 0.0
H421 H 0.38047 0.43996 0.45065 0.0
H422 H 0.34692 0.37854 0.46959 0.0
H423 H 0.24296 0.36415 0.58981 0.0
H424 H 0.30309 0.3557 0.56571 0.0
H425 H 0.25475 0.24964 0.52397 0.0
H426 H 0.19615 0.25549 0.5492 0.0
H427 H 0.32817 0.35877 0.51814 0.0
H428 H 0.31884 0.17501 0.51169 0.0
H429 H 0.29215 0.11573 0.53709 0.0
H430 H 0.29716 0.19107 0.60686 0.0
H431 H 0.32437 0.25055 0.58196 0.0
C432 C 0.46534 0.27255 0.4471 0.0
C433 C 0.49389 0.247 0.45834 0.0
C434 C 0.4323 0.28358 0.46131 0.0
C435 C 0.42757 0.27024 0.4873 0.0
C436 C 0.45674 0.2457 0.49865 0.0
C437 C 0.48928 0.23401 0.48434 0.0
C438 C 0.39169 0.27994 0.50238 0.0
C439 C 0.37309 0.24671 0.51544 0.0
C440 C 0.37568 0.32115 0.50401 0.0
C441 C 0.39556 0.35847 0.49282 0.0
C442 C 0.43379 0.36774 0.49972 0.0
C443 C 0.45264 0.40247 0.48877 0.0
C444 C 0.43344 0.42843 0.47107 0.0
C445 C 0.39531 0.41979 0.46434 0.0
C446 C 0.37636 0.38503 0.4752 0.0
C447 C 0.24511 0.33872 0.57569 0.0
C448 C 0.21426 0.31036 0.57187 0.0
C449 C 0.27953 0.33426 0.56164 0.0
C450 C 0.28401 0.30148 0.54328 0.0
C451 C 0.2526 0.27464 0.5384 0.0
C452 C 0.21854 0.27858 0.55269 0.0
C453 C 0.32182 0.29386 0.53007 0.0
C454 C 0.34069 0.32738 0.5174 0.0
C455 C 0.33911 0.25325 0.52968 0.0
C456 C 0.32328 0.21736 0.54488 0.0
C457 C 0.3144 0.17885 0.53247 0.0
C458 C 0.29916 0.14522 0.54678 0.0
C459 C 0.29284 0.14968 0.57355 0.0
C460 C 0.30193 0.18771 0.5861 0.0
C461 C 0.31724 0.22139 0.5719 0.0
H462 H 0.28099 0.12364 0.58458 0.0
H463 H 0.44809 0.45528 0.46259 0.0
H464 H 0.62693 0.70661 0.05527 0.0
H465 H 0.6885 0.72497 0.03622 0.0
H466 H 0.71485 0.80323 0.10293 0.0
H467 H 0.65219 0.7853 0.12224 0.0
H468 H 0.73513 0.8425 0.05828 0.0
H469 H 0.75905 0.70765 0.09475 0.0
H470 H 0.74884 0.63229 0.1048 0.0
H471 H 0.75722 0.60101 1.02347 0.0
H472 H 0.76683 0.67628 1.01285 0.0
H473 H 0.93096 0.85444 1.00804 0.0
H474 H 0.87508 0.84312 0.03653 0.0
H475 H 0.82053 0.76952 0.97602 0.0
H476 H 0.87589 0.78058 0.94765 0.0
H477 H 0.8205 0.72946 1.02425 0.0
H478 H 0.79005 0.86716 0.98856 0.0
H479 H 0.80224 0.9426 0.9797 0.0
H480 H 0.80937 0.9679 0.06187 0.0
H481 H 0.79772 0.89244 0.07121 0.0
C482 C 0.64567 0.72767 0.0661 0.0
C483 C 0.63449 0.74423 0.09047 0.0
C484 C 0.68116 0.73798 0.05515 0.0
C485 C 0.70682 0.76492 0.06826 0.0
C486 C 0.6957 0.78213 0.09247 0.0
C487 C 0.65993 0.77175 0.10354 0.0
C488 C 0.7447 0.77524 0.0561 0.0
C489 C 0.75417 0.81776 0.05133 0.0
C490 C 0.76962 0.74309 0.04675 0.0
C491 C 0.76334 0.69775 0.05299 0.0
C492 C 0.75833 0.68478 0.07897 0.0
C493 C 0.75272 0.64205 0.08478 0.0
C494 C 0.75229 0.61189 0.06478 0.0
C495 C 0.75747 0.62442 0.03894 0.0
C496 C 0.76304 0.66712 0.03301 0.0
C497 C 0.90688 0.83617 1.00077 0.0
C498 C 0.90779 0.8188 0.97545 0.0
C499 C 0.87494 0.82981 1.01704 0.0
C500 C 0.84351 0.80553 1.0084 0.0
C501 C 0.84435 0.78842 0.98312 0.0
C502 C 0.87593 0.79515 0.9668 0.0
C503 C 0.81013 0.79649 1.02575 0.0
C504 C 0.80165 0.75415 0.03152 0.0
C505 C 0.78645 0.82878 0.03619 0.0
C506 C 0.79351 0.87408 0.03057 0.0
C507 C 0.7946 0.88873 1.00474 0.0
C508 C 0.80132 0.93151 0.99963 0.0
C509 C 0.80671 0.96 1.02021 0.0
C510 C 0.80527 0.94578 0.04595 0.0
C511 C 0.79859 0.90302 0.05116 0.0
H512 H 0.81189 0.99312 1.01621 0.0
H513 H 0.74802 0.57882 0.06933 0.0
H514 H 0.97934 0.22652 0.61233 0.0
H515 H 0.92179 0.20684 0.58752 0.0
H516 H 0.93137 0.3218 0.54294 0.0
H517 H 0.98802 0.34203 0.56797 0.0
H518 H 0.86052 0.31182 0.55556 0.0
H519 H 0.95656 0.22155 0.51808 0.0
H520 H 1.00787 0.16776 0.51792 0.0
H521 H 0.92985 0.07637 0.54983 0.0
H522 H 0.87815 0.12977 0.55049 0.0
H523 H 0.75448 0.20591 0.44169 0.0
H524 H 0.81292 0.21413 0.4675 0.0
H525 H 0.74504 0.22951 0.53711 0.0
H526 H 0.68633 0.21943 0.51176 0.0
H527 H 0.84519 0.17314 0.51109 0.0
H528 H 0.78692 0.31635 0.57038 0.0
H529 H 0.73949 0.3738 0.56562 0.0
H530 H 0.74801 0.36464 0.4823 0.0
H531 H 0.79622 0.30804 0.48654 0.0
C532 C 0.96924 0.24754 0.59719 0.0
C533 C 0.98839 0.28592 0.59222 0.0
C534 C 0.93636 0.23616 0.58291 0.0
C535 C 0.92217 0.26265 0.56312 0.0
C536 C 0.94146 0.30081 0.55811 0.0
C537 C 0.97406 0.31231 0.57245 0.0
C538 C 0.88692 0.25137 0.54787 0.0
C539 C 0.85722 0.28136 0.54599 0.0
C540 C 0.88256 0.21193 0.53489 0.0
C541 C 0.91359 0.17979 0.53458 0.0
C542 C 0.95042 0.19008 0.52526 0.0
C543 C 0.97955 0.15965 0.52504 0.0
C544 C 0.97212 0.11873 0.53391 0.0
C545 C 0.93555 0.10811 0.54299 0.0
C546 C 0.90631 0.13843 0.54327 0.0
C547 C 0.75174 0.20976 0.46258 0.0
C548 C 0.71524 0.21222 0.47445 0.0
C549 C 0.78538 0.21471 0.47732 0.0
C550 C 0.78342 0.22287 0.5042 0.0
C551 C 0.74728 0.2237 0.51633 0.0
C552 C 0.71364 0.21821 0.50169 0.0
C553 C 0.8189 0.23337 0.5192 0.0
C554 C 0.8485 0.20334 0.52097 0.0
C555 C 0.82364 0.27317 0.53157 0.0
C556 C 0.79479 0.30746 0.52882 0.0
C557 C 0.77875 0.32668 0.55105 0.0
C558 C 0.7518 0.35917 0.54843 0.0
C559 C 0.74064 0.37273 0.52367 0.0
C560 C 0.75655 0.35399 0.50146 0.0
C561 C 0.78371 0.3217 0.50397 0.0
H562 H 0.71976 0.39787 0.52167 0.0
H563 H 0.99466 0.09523 0.53367 0.0
H564 H 0.87053 0.15248 0.06772 0.0
H565 H 0.81189 0.15752 0.04096 0.0
H566 H 0.81672 0.29353 0.04637 0.0
H567 H 0.87543 0.28874 0.07245 0.0
H568 H 0.74205 0.25197 0.05925 0.0
H569 H 0.84289 0.25617 0.99316 0.0
H570 H 0.89906 0.22657 0.97019 0.0
H571 H 0.83408 0.11556 0.95016 0.0
H572 H 0.77766 0.14429 0.97337 0.0
H573 H 0.61271 0.34094 0.97278 0.0
H574 H 0.67015 0.32039 0.99645 0.0
H575 H 0.66563 0.19648 0.96102 0.0
H576 H 0.60856 0.21771 0.93615 0.0
H577 H 0.73757 0.21994 0.9645 0.0
H578 H 0.63602 0.21371 1.02547 0.0
H579 H 0.57852 0.23709 0.04958 0.0
H580 H 0.64165 0.34194 0.0815 0.0
H581 H 0.69943 0.31953 0.05731 0.0
C582 C 0.85907 0.18338 0.06307 0.0
C583 C 0.87768 0.22022 0.07202 0.0
C584 C 0.8257 0.18623 0.04777 0.0
C585 C 0.81002 0.22593 0.04165 0.0
C586 C 0.82837 0.26262 0.05082 0.0
C587 C 0.86201 0.25983 0.0656 0.0
C588 C 0.7741 0.22977 1.02611 0.0
C589 C 0.74106 0.24524 0.0385 0.0
C590 C 0.7724 0.21921 0.9993 0.0
C591 C 0.80623 0.20213 0.98527 0.0
C592 C 0.8407 0.22527 0.98409 0.0
C593 C 0.87255 0.2087 0.97097 0.0
C594 C 0.87018 0.16915 0.95879 0.0
C595 C 0.8359 0.14615 0.95964 0.0
C596 C 0.80398 0.16257 0.97276 0.0
C597 C 0.62383 0.30926 0.9699 0.0
C598 C 0.60547 0.28077 0.95282 0.0
C599 C 0.6567 0.29743 0.98364 0.0
C600 C 0.67179 0.25639 0.98123 0.0
C601 C 0.6544 0.22819 0.96349 0.0
C602 C 0.62163 0.24031 0.94933 0.0
C603 C 0.70553 0.24358 0.99746 0.0
C604 C 0.73818 0.22626 0.9853 0.0
C605 C 0.70665 0.25146 1.02471 0.0
C606 C 0.67201 0.26508 0.03942 0.0
C607 C 0.63759 0.24191 0.0375 0.0
C608 C 0.60494 0.25497 0.0512 0.0
C609 C 0.60641 0.29102 0.06702 0.0
C610 C 0.64056 0.31403 0.06923 0.0
C611 C 0.67329 0.30113 0.05555 0.0
H612 H 0.5811 0.30108 0.07761 0.0
H613 H 0.89487 0.15638 0.94864 0.0
H614 H 0.68129 0.81203 0.53766 0.0
H615 H 0.73961 0.8003 0.51206 0.0
H616 H 0.80438 0.78239 0.58275 0.0
H617 H 0.74623 0.79304 0.6085 0.0
H618 H 0.84559 0.82825 0.54685 0.0
H619 H 0.77274 0.69867 0.5492 0.0
H620 H 0.71522 0.65411 0.54293 0.0
H621 H 0.71576 0.6819 0.46107 0.0
H622 H 0.77288 0.72725 0.46693 0.0
H623 H 0.96847 0.65925 0.47236 0.0
H624 H 0.91235 0.68039 0.49781 0.0
H625 H 0.9227 0.80769 0.46871 0.0
H626 H 0.97932 0.78688 0.44343 0.0
H627 H 0.84423 0.70819 0.48426 0.0
H628 H 0.88833 0.8775 0.51457 0.0
H629 H 0.94727 0.91892 0.52292 0.0
H630 H 1.00743 0.80538 0.54352 0.0
H631 H 0.94879 0.76336 0.53559 0.0
C632 C 0.70789 0.80567 0.54785 0.0
C633 C 0.70867 0.80333 0.57529 0.0
C634 C 0.74133 0.79913 0.53313 0.0
C635 C 0.77645 0.79004 0.54542 0.0
C636 C 0.77774 0.7895 0.57277 0.0
C637 C 0.7443 0.79585 0.58751 0.0
C638 C 0.81125 0.77861 0.52983 0.0
C639 C 0.84523 0.80216 0.53306 0.0
C640 C 0.81115 0.74412 0.51209 0.0
C641 C 0.77688 0.7167 0.50855 0.0
C642 C 0.76041 0.69556 0.5299 0.0
C643 C 0.7279 0.67013 0.52642 0.0
C644 C 0.71184 0.66524 0.50162 0.0
C645 C 0.72823 0.68577 0.48027 0.0
C646 C 0.76066 0.71133 0.48366 0.0
C647 C 0.95897 0.69182 0.47139 0.0
C648 C 0.97866 0.72135 0.45586 0.0
C649 C 0.9267 0.70386 0.48594 0.0
C650 C 0.91325 0.74576 0.48545 0.0
C651 C 0.93272 0.77532 0.46983 0.0
C652 C 0.96511 0.76331 0.45528 0.0
C653 C 0.87863 0.75804 0.50103 0.0
C654 C 0.8446 0.73457 0.49785 0.0
C655 C 0.87891 0.79224 0.51904 0.0
C656 C 0.91422 0.81726 0.52425 0.0
C657 C 0.9141 0.86141 0.52098 0.0
C658 C 0.94746 0.88498 0.52562 0.0
C659 C 0.98107 0.86478 0.53371 0.0
C660 C 0.98139 0.82097 0.53719 0.0
C661 C 0.94812 0.79725 0.53259 0.0
H662 H 1.00682 0.88308 0.53736 0.0
H663 H 0.68678 0.64542 0.49892 0.0
H664 H 0.99251 0.2776 0.24869 0.0
H665 H 1.00823 0.33607 0.27793 0.0
H666 H 0.1021 0.37208 0.22793 0.0
H667 H 0.08634 0.3133 0.1982 0.0
H668 H 0.11497 0.38273 0.28607 0.0
H669 H 1.02953 0.42327 0.2171 0.0
H670 H 0.97361 0.414 0.18825 0.0
H671 H 0.89824 0.4159 0.25448 0.0
H672 H 0.95391 0.42465 0.28384 0.0
H673 H 0.10952 0.59787 0.33768 0.0
H674 H 0.11592 0.53401 0.31048 0.0
H675 H 1.00594 0.48994 0.33812 0.0
H676 H 0.99941 0.55351 0.36484 0.0
H677 H 1.00785 0.48622 0.28718 0.0
H678 H 0.09383 0.44432 0.35644 0.0
H679 H 0.15008 0.45194 0.38532 0.0
H680 H 0.22491 0.45285 0.31877 0.0
H681 H 0.16901 0.44579 0.28947 0.0
C682 C 1.0171 0.29725 0.24413 0.0
C683 C 0.03791 0.29096 0.22093 0.0
C684 C 1.02608 0.33069 0.26093 0.0
C685 C 0.05605 0.35872 0.25498 0.0
C686 C 0.07889 0.35075 0.23291 0.0
C687 C 0.06984 0.31712 0.21595 0.0
C688 C 0.05976 0.39883 0.27009 0.0
C689 C 0.09192 0.4058 0.28606 0.0
C690 C 1.02954 0.42871 0.27024 0.0
C691 C 0.9959 0.42425 0.25267 0.0
C692 C 1.00106 0.42142 0.22553 0.0
C693 C 0.9694 0.41628 0.20908 0.0
C694 C 0.93238 0.41421 0.2195 0.0
C695 C 0.92694 0.41746 0.24643 0.0
C696 C 0.95854 0.42257 0.26299 0.0
C697 C 0.08712 0.57412 0.33826 0.0
C698 C 0.05379 0.58089 0.35323 0.0
C699 C 0.09076 0.53762 0.3227 0.0
C700 C 0.06134 0.50702 0.32212 0.0
C701 C 1.02888 0.51313 0.33795 0.0
C702 C 1.02514 0.54953 0.35324 0.0
C703 C 0.06261 0.46992 0.30399 0.0
C704 C 1.03123 0.46354 0.28721 0.0
C705 C 0.09364 0.44086 0.30317 0.0
C706 C 0.12721 0.44502 0.32076 0.0
C707 C 0.12225 0.44651 0.34796 0.0
C708 C 0.15407 0.45065 0.3644 0.0
C709 C 0.19104 0.45301 0.35388 0.0
C710 C 0.19626 0.4511 0.32689 0.0
C711 C 0.16452 0.447 0.31036 0.0
H712 H 0.21564 0.45621 0.36665 0.0
H713 H 0.90791 0.41018 0.2067 0.0
H714 H 0.58347 0.7346 0.74779 0.0
H715 H 0.5755 0.67077 0.77382 0.0
H716 H 0.50072 0.61802 0.71505 0.0
H717 H 0.50827 0.68222 0.68886 0.0
H718 H 0.47673 0.59734 0.76461 0.0
H719 H 0.59178 0.58941 0.71517 0.0
H720 H 0.65357 0.61445 0.69754 0.0
H721 H 0.70043 0.6205 0.7749 0.0
H722 H 0.63865 0.59618 0.79307 0.0
H723 H 0.50258 0.39001 0.81964 0.0
H724 H 0.50509 0.44654 0.78679 0.0
H725 H 0.57271 0.52319 0.83931 0.0
H726 H 0.56993 0.46713 0.87203 0.0
H727 H 0.59895 0.52565 0.78746 0.0
H728 H 0.47974 0.53929 0.83611 0.0
H729 H 0.41741 0.51348 0.85248 0.0
H730 H 0.37848 0.4937 0.77392 0.0
H731 H 0.44086 0.51885 0.7571 0.0
C732 C 0.5647 0.70983 0.74058 0.0
C733 C 0.54677 0.71344 0.71613 0.0
C734 C 0.56034 0.67321 0.75544 0.0
C735 C 0.53822 0.63919 0.74611 0.0
C736 C 0.51813 0.64375 0.72255 0.0
C737 C 0.52239 0.68056 0.70765 0.0
C738 C 0.53826 0.59821 0.76031 0.0
C739 C 0.50339 0.58128 0.76922 0.0
C740 C 0.57304 0.57712 0.76634 0.0
C741 C 0.61046 0.59128 0.75551 0.0
C742 C 0.61517 0.59636 0.72845 0.0
C743 C 0.6502 0.61041 0.71835 0.0
C744 C 0.68088 0.61915 0.73509 0.0
C745 C 0.67661 0.61375 0.76196 0.0
C746 C 0.6416 0.5998 0.77217 0.0
C747 C 0.51859 0.41861 0.82386 0.0
C748 C 0.53601 0.42435 0.84835 0.0
C749 C 0.51977 0.45096 0.80522 0.0
C750 C 0.53881 0.48924 0.81071 0.0
C751 C 0.55782 0.494 0.83465 0.0
C752 C 0.55616 0.46206 0.85334 0.0
C753 C 0.53755 0.52543 0.7923 0.0
C754 C 0.57227 0.54143 0.78255 0.0
C755 C 0.50262 0.54529 0.78526 0.0
C756 C 0.46509 0.53044 0.79536 0.0
C757 C 0.45801 0.52909 0.82234 0.0
C758 C 0.42265 0.51465 0.83169 0.0
C759 C 0.39404 0.50183 0.81425 0.0
C760 C 0.4007 0.50355 0.78741 0.0
C761 C 0.43603 0.51791 0.77795 0.0
H762 H 0.36668 0.49067 0.82153 0.0
H763 H 0.70799 0.63002 0.72724 0.0
H764 H 0.11752 0.4095 0.7133 0.0
H765 H 0.12819 0.47116 0.74169 0.0
H766 H 1.03304 0.53513 0.70521 0.0
H767 H 1.02267 0.474 0.67673 0.0
H768 H 0.09323 0.58898 0.71402 0.0
H769 H 1.02103 0.48367 0.76208 0.0
H770 H 1.01052 0.4131 0.78113 0.0
H771 H 0.11306 0.42677 0.82695 0.0
H772 H 0.12445 0.49726 0.80787 0.0
H773 H 1.01644 0.73387 0.80383 0.0
H774 H 1.0317 0.67718 0.77333 0.0
H775 H 0.12065 0.63271 0.82494 0.0
H776 H 0.10494 0.68939 0.85602 0.0
H777 H 0.07662 0.56862 0.8092 0.0
H778 H 0.14311 0.67926 0.76604 0.0
H779 H 0.1528 0.75013 0.74725 0.0
H780 H 0.06196 0.72724 0.69233 0.0
H781 H 0.05132 0.65645 0.71103 0.0
C782 C 0.0994 0.43703 0.71102 0.0
C783 C 0.06908 0.43681 0.69288 0.0
C784 C 0.10532 0.47212 0.72738 0.0
C785 C 0.08114 0.50764 0.72578 0.0
C786 C 0.05202 0.50813 0.70686 0.0
C787 C 0.04595 0.47307 0.6907 0.0
C788 C 0.08446 0.54352 0.74455 0.0
C789 C 0.08952 0.5846 0.73483 0.0
C790 C 0.08075 0.53772 0.7718 0.0
C791 C 0.07386 0.49546 0.78331 0.0
C792 C 0.04151 0.47147 0.77605 0.0
C793 C 1.03536 0.43152 0.78688 0.0
C794 C 0.06118 0.4154 0.80517 0.0
C795 C 0.09314 0.43926 0.81273 0.0
C796 C 0.09945 0.4792 0.80192 0.0
C797 C 0.03964 0.71247 0.80862 0.0
C798 C 0.05945 0.71624 0.83242 0.0
C799 C 0.0485 0.68008 0.79103 0.0
C800 C 0.07764 0.65079 0.79662 0.0
C801 C 0.09814 0.65498 0.82012 0.0
C802 C 0.08926 0.68753 0.83781 0.0
C803 C 0.08452 0.61438 0.77863 0.0
C804 C 0.08123 0.57313 0.78848 0.0
C805 C 0.08991 0.62005 0.75149 0.0
C806 C 0.09628 0.66258 0.74006 0.0
C807 C 0.12502 0.68943 0.75007 0.0
C808 C 0.1307 0.72958 0.73942 0.0
C809 C 0.10797 0.7432 0.71864 0.0
C810 C 0.07955 0.71665 0.70843 0.0
C811 C 0.07372 0.67647 0.71903 0.0
H812 H 0.11242 0.7743 0.71042 0.0
H813 H 0.05636 0.38447 0.81354 0.0
H814 H 0.59967 0.28765 0.30159 0.0
H815 H 0.58994 0.3512 0.27568 0.0
H816 H 0.50078 0.39216 0.32828 0.0
H817 H 0.51055 0.32838 0.3547 0.0
H818 H 0.4864 0.40933 0.27254 0.0
H819 H 0.57946 0.43499 0.33887 0.0
H820 H 0.63596 0.41838 0.36588 0.0
H821 H 0.70754 0.41809 0.2977 0.0
H822 H 0.65129 0.43424 0.2702 0.0
H823 H 0.50558 0.61859 0.21767 0.0
H824 H 0.50052 0.56203 0.25028 0.0
H825 H 0.59921 0.5003 0.21648 0.0
H826 H 0.60471 0.55668 0.18443 0.0
H827 H 0.60297 0.4997 0.26895 0.0
H828 H 0.50723 0.46805 0.20263 0.0
H829 H 0.44982 0.48359 0.17616 0.0
H830 H 0.38218 0.49625 0.24576 0.0
H831 H 0.43935 0.4813 0.27265 0.0
C832 C 0.57741 0.30963 0.30746 0.0
C833 C 0.55615 0.303 0.3304 0.0
C834 C 0.57195 0.34605 0.29261 0.0
C835 C 0.54504 0.3767 0.30025 0.0
C836 C 0.52176 0.36892 0.32207 0.0
C837 C 0.52736 0.33241 0.33712 0.0
C838 C 0.54412 0.41811 0.28658 0.0
C839 C 0.51156 0.42958 0.27213 0.0
C840 C 0.57699 0.44446 0.28599 0.0
C841 C 0.6111 0.43552 0.30245 0.0
C842 C 0.60721 0.43111 0.3296 0.0
C843 C 0.63919 0.42179 0.34501 0.0
C844 C 0.67531 0.41702 0.33351 0.0
C845 C 0.67953 0.42175 0.30658 0.0
C846 C 0.64761 0.43107 0.29107 0.0
C847 C 0.52644 0.59323 0.21746 0.0
C848 C 0.55536 0.59197 0.19829 0.0
C849 C 0.52335 0.56074 0.23596 0.0
C850 C 0.54923 0.52656 0.23568 0.0
C851 C 0.57881 0.52615 0.21709 0.0
C852 C 0.58176 0.55831 0.19862 0.0
C853 C 0.54561 0.49052 0.25419 0.0
C854 C 0.57748 0.47997 0.26964 0.0
C855 C 0.51197 0.46532 0.2558 0.0
C856 C 0.47763 0.47407 0.23964 0.0
C857 C 0.48017 0.47447 0.21228 0.0
C858 C 0.44767 0.48311 0.19721 0.0
C859 C 0.4124 0.49104 0.20927 0.0
C860 C 0.40953 0.49019 0.23644 0.0
C861 C 0.44196 0.48162 0.25161 0.0
H862 H 0.38727 0.49772 0.19757 0.0
H863 H 0.70004 0.40975 0.34546 0.0
H864 H 0.6036 0.83332 0.19107 0.0
H865 H 0.61371 0.89301 0.22112 0.0
H866 H 0.53509 0.83645 0.27589 0.0
H867 H 0.52438 0.77762 0.24583 0.0
H868 H 0.51458 0.91457 0.26638 0.0
H869 H 0.63442 0.8457 0.28722 0.0
H870 H 0.69761 0.81428 0.27733 0.0
H871 H 0.73593 0.93233 0.24534 0.0
H872 H 0.67276 0.96431 0.25473 0.0
H873 H 0.52896 0.04442 0.37608 0.0
H874 H 0.53625 0.98422 0.34659 0.0
H875 H 0.61025 0.05833 0.29716 0.0
H876 H 0.60314 0.11899 0.32688 0.0
H877 H 0.63562 0.97599 0.30083 0.0
H878 H 0.51752 0.04538 0.28068 0.0
H879 H 0.45453 0.07772 0.28995 0.0
H880 H 0.4129 0.95914 0.3192 0.0
H881 H 0.47585 0.92623 0.31045 0.0
C882 C 0.58943 0.83305 0.20987 0.0
C883 C 0.56317 0.80076 0.21609 0.0
C884 C 0.59512 0.86729 0.22703 0.0
C885 C 0.57502 0.86949 0.25082 0.0
C886 C 0.5507 0.83581 0.25762 0.0
C887 C 0.54476 0.80199 0.24046 0.0
C888 C 0.57617 0.90819 0.26767 0.0
C889 C 0.5411 0.92752 0.27417 0.0
C890 C 0.61076 0.92644 0.27703 0.0
C891 C 0.64873 0.90726 0.27142 0.0
C892 C 0.65621 0.86486 0.27787 0.0
C893 C 0.69205 0.84697 0.2724 0.0
C894 C 0.72073 0.87126 0.26065 0.0
C895 C 0.71366 0.91353 0.25441 0.0
C896 C 0.67787 0.93156 0.25982 0.0
C897 C 0.54683 0.04799 0.35896 0.0
C898 C 0.56501 0.08678 0.3537 0.0
C899 C 0.55106 0.01346 0.34211 0.0
C900 C 0.57322 0.01687 0.31933 0.0
C901 C 0.5929 0.05493 0.31455 0.0
C902 C 0.58884 0.08959 0.33158 0.0
C903 C 0.57396 0.98126 0.30012 0.0
C904 C 0.60921 0.96287 0.293 0.0
C905 C 0.53954 0.96382 0.28998 0.0
C906 C 0.50152 0.98343 0.2951 0.0
C907 C 0.49502 0.02627 0.28925 0.0
C908 C 0.45931 0.0447 0.2944 0.0
C909 C 0.42976 0.02052 0.30521 0.0
C910 C 0.43583 0.97784 0.31085 0.0
C911 C 0.47151 0.95927 0.30577 0.0
H912 H 0.40213 0.03485 0.30918 0.0
H913 H 0.74845 0.85735 0.25643 0.0
H914 H 0.10105 0.96804 0.86227 0.0
H915 H 0.08916 0.02997 0.83508 0.0
H916 H 0.98681 0.97102 0.80447 0.0
H917 H 0.9987 0.90862 0.83192 0.0
H918 H 1.03583 1.00566 0.76543 0.0
H919 H 0.97477 0.05045 0.84397 0.0
H920 H 0.9686 0.06262 0.89129 0.0
H921 H 0.06516 0.14717 0.88952 0.0
H922 H 0.07228 0.13504 0.84223 0.0
H923 H 1.00808 0.19655 0.69393 0.0
H924 H 0.9929 0.1382 0.72359 0.0
H925 H 0.08627 0.17631 0.77379 0.0
H926 H 0.10085 0.23494 0.74479 0.0
H927 H 1.02797 0.15072 0.80239 0.0
H928 H 0.09565 0.09683 0.72629 0.0
H929 H 0.10341 0.08574 0.67892 0.0
H930 H 0.99604 0.01894 0.67617 0.0
H931 H 0.98747 0.02998 0.7235 0.0
C932 C 0.07588 0.96838 0.84988 0.0
C933 C 0.0508 0.93351 0.84926 0.0
C934 C 0.06901 1.00385 0.83441 0.0
C935 C 1.03701 1.00527 0.81778 0.0
C936 C 1.01164 0.97064 0.81719 0.0
C937 C 1.01826 0.93521 0.83302 0.0
C938 C 1.03121 0.04268 0.80065 0.0
C939 C 1.03322 0.03732 0.77347 0.0
C940 C 1.02841 0.08407 0.81111 0.0
C941 C 1.02419 0.09161 0.83956 0.0
C942 C 0.99488 0.07139 0.8537 0.0
C943 C 0.99117 0.07833 0.88051 0.0
C944 C 1.01651 0.1056 0.89341 0.0
C945 C 0.04556 0.12605 0.8795 0.0
C946 C 0.04941 0.1192 0.85268 0.0
C947 C 1.02483 0.19301 0.71157 0.0
C948 C 0.05587 0.22029 0.71687 0.0
C949 C 1.01633 0.1594 0.72842 0.0
C950 C 0.0389 0.15226 0.75073 0.0
C951 C 0.06847 0.18093 0.75671 0.0
C952 C 0.07686 0.21448 0.74001 0.0
C953 C 1.03369 0.11388 0.7672 0.0
C954 C 1.02976 0.11903 0.79428 0.0
C955 C 1.03502 0.07235 0.75665 0.0
C956 C 0.04074 0.06458 0.72837 0.0
C957 C 0.07365 0.07988 0.71555 0.0
C958 C 0.0782 0.0736 0.68872 0.0
C959 C 0.05019 0.05173 0.67454 0.0
C960 C 1.01768 0.03591 0.68719 0.0
C961 C 1.01299 0.04211 0.71401 0.0
H962 H 0.0537 0.04695 0.65378 0.0
H963 H 1.01359 0.11093 0.91417 0.0
H964 H 0.51134 0.96831 0.67733 0.0
H965 H 0.5194 0.02878 0.70644 0.0
H966 H 0.60884 0.96269 0.74774 0.0
H967 H 0.60023 0.90123 0.71873 0.0
H968 H 0.55826 1.00121 0.78152 0.0
H969 H 0.63251 0.0436 0.70843 0.0
H970 H 0.64712 0.05547 0.662 0.0
H971 H 0.55376 0.14371 0.65679 0.0
H972 H 0.53821 0.13192 0.70311 0.0
H973 H 0.58263 0.19351 0.8546 0.0
H974 H 0.60018 0.1343 0.82584 0.0
H975 H 0.5118 0.17154 0.77168 0.0
H976 H 0.49445 0.2306 0.80006 0.0
H977 H 0.57548 0.1459 0.74621 0.0
H978 H 0.49729 0.09624 0.81828 0.0
H979 H 0.48347 0.08512 0.86491 0.0
H980 H 0.58566 0.01019 0.87233 0.0
H981 H 0.6006 0.02173 0.82584 0.0
C982 C 0.53276 0.96652 0.69257 0.0
C983 C 0.55509 0.92981 0.69565 0.0
C984 C 0.53756 1.00133 0.70914 0.0
C985 C 0.56498 1.00061 0.72922 0.0
C986 C 0.58757 0.9641 0.73235 0.0
C987 C 0.58288 0.92913 0.7156 0.0
C988 C 0.56902 0.03793 0.74699 0.0
C989 C 0.56289 0.03275 0.77389 0.0
C990 C 0.57472 0.07925 0.73709 0.0
C991 C 0.58406 0.08667 0.70923 0.0
C992 C 0.61493 0.06533 0.69735 0.0
C993 C 0.6234 0.07208 0.67105 0.0
C994 C 0.60135 0.10028 0.65645 0.0
C995 C 0.57082 0.12187 0.66813 0.0
C996 C 0.56219 0.11521 0.69442 0.0
C997 C 0.56761 0.18967 0.83625 0.0
C998 C 0.53705 0.21674 0.82965 0.0
C999 C 0.57743 0.15556 0.81994 0.0
C1000 C 0.55692 0.14799 0.79674 0.0
C1001 C 0.528 0.17654 0.78947 0.0
C1002 C 0.51807 0.21035 0.80576 0.0
C1003 C 0.56357 0.10933 0.78057 0.0
C1004 C 0.57163 0.11428 0.75394 0.0
C1005 C 0.55974 0.06789 0.79078 0.0
C1006 C 0.55035 0.06033 0.81863 0.0
C1007 C 0.517 0.07769 0.82989 0.0
C1008 C 0.50896 0.07132 0.8563 0.0
C1009 C 0.53374 0.04709 0.8716 0.0
C1010 C 0.56656 0.02908 0.86048 0.0
C1011 C 0.57485 0.03556 0.8341 0.0
H1012 H 0.52747 0.04218 0.89204 0.0
H1013 H 0.60795 0.10545 0.63609 0.0
H1014 H 0.99686 0.11875 0.22623 0.0
H1015 H 0.99741 0.06202 0.25875 0.0
H1016 H 0.06851 0.9863 0.2079 0.0
H1017 H 0.06753 0.04245 0.17542 0.0
H1018 H 1.01263 0.93981 0.22569 0.0
H1019 H 0.10292 0.03755 0.26449 0.0
H1020 H 0.12428 0.10615 0.28244 0.0
H1021 H 1.03577 0.10059 0.34063 0.0
H1022 H 1.01354 0.03219 0.32279 0.0
H1023 H 0.09347 0.78588 0.30795 0.0
H1024 H 0.07999 0.84557 0.27944 0.0
H1025 H 1.00177 0.89679 0.33658 0.0
H1026 H 1.01532 0.83677 0.36547 0.0
H1027 H 0.05223 0.95708 0.318 0.0
H1028 H 0.96645 0.85526 0.28132 0.0
H1029 H 0.94684 0.78593 0.26358 0.0
H1030 H 1.02842 0.79874 0.20132 0.0
H1031 H 0.04893 0.86791 0.2189 0.0
C1032 C 1.01305 0.09025 0.2222 0.0
C1033 C 1.03202 0.08505 0.19817 0.0
C1034 C 1.01332 0.05775 0.24079 0.0
C1035 C 1.03307 0.0197 0.23588 0.0
C1036 C 0.05276 0.01507 0.21214 0.0
C1037 C 0.05221 0.04725 0.19355 0.0
C1038 C 1.03252 0.98395 0.25485 0.0
C1039 C 1.02164 0.94363 0.24581 0.0
C1040 C 0.04296 0.98891 0.2814 0.0
C1041 C 0.05627 0.03003 0.29211 0.0
C1042 C 0.0878 0.05114 0.28097 0.0
C1043 C 0.1001 0.08995 0.29115 0.0
C1044 C 0.08131 0.10779 0.31261 0.0
C1045 C 0.05024 0.08678 0.32398 0.0
C1046 C 0.03779 0.04799 0.31385 0.0
C1047 C 0.07299 0.80949 0.31439 0.0
C1048 C 0.05538 0.80642 0.33898 0.0
C1049 C 0.06525 0.84364 0.298 0.0
C1050 C 0.03969 0.87564 0.30575 0.0
C1051 C 1.02155 0.87246 0.33015 0.0
C1052 C 1.02909 0.83798 0.34655 0.0
C1053 C 1.03336 0.91294 0.28858 0.0
C1054 C 0.04282 0.95346 0.29795 0.0
C1055 C 1.0218 0.90821 0.26227 0.0
C1056 C 1.00941 0.86668 0.25155 0.0
C1057 C 0.98041 0.84317 0.26395 0.0
C1058 C 0.9691 0.80391 0.2539 0.0
C1059 C 0.98642 0.78791 0.23136 0.0
C1060 C 1.01504 0.81117 0.21879 0.0
C1061 C 1.02648 0.85044 0.22877 0.0
H1062 H 0.97762 0.7575 0.22362 0.0
H1063 H 0.09089 0.13783 0.32047 0.0
H1064 H 0.97228 0.60042 0.94309 0.0
H1065 H 0.97417 0.55334 0.98071 0.0
H1066 H 0.045 0.64307 1.02215 0.0
H1067 H 0.04272 0.69076 0.98501 0.0
H1068 H 0.07244 0.55968 1.02421 0.0
H1069 H 0.95838 0.63752 0.04026 0.0
H1070 H 0.8954 0.66909 0.03014 0.0
H1071 H 0.84786 0.54538 1.01732 0.0
H1072 H 0.91076 0.51304 0.02692 0.0
H1073 H 0.97589 0.441 0.14301 0.0
H1074 H 0.98353 0.50249 0.11475 0.0
H1075 H 0.04504 0.42569 0.059 0.0
H1076 H 0.03805 0.36436 0.08734 0.0
H1077 H 0.95381 0.51211 0.0689 0.0
H1078 H 0.10713 0.4907 1.02225 0.0
H1079 H 0.172 0.46787 0.03516 0.0
H1080 H 0.14422 0.48955 0.11564 0.0
H1081 H 0.07965 0.51404 0.10322 0.0
C1082 C 0.98803 0.61037 0.96023 0.0
C1083 C 1.00742 0.64942 0.96087 0.0
C1084 C 0.98917 0.58336 0.98168 0.0
C1085 C 1.00976 0.59484 1.00411 0.0
C1086 C 1.02934 0.63354 1.00485 0.0
C1087 C 1.02807 0.66068 0.98349 0.0
C1088 C 1.01111 0.56607 0.0267 0.0
C1089 C 0.04667 0.54928 0.03418 0.0
C1090 C 0.97739 0.55363 0.03992 0.0
C1091 C 0.93945 0.57287 0.03406 0.0
C1092 C 0.93461 0.61704 0.03503 0.0
C1093 C 0.8989 0.63508 0.02944 0.0
C1094 C 0.86769 0.60926 1.02302 0.0
C1095 C 0.87209 0.56533 1.02225 0.0
C1096 C 0.90777 0.54713 0.02778 0.0
C1097 C 0.99153 0.4374 0.12492 0.0
C1098 C 1.0063 0.39782 0.11742 0.0
C1099 C 0.9959 0.47254 0.10879 0.0
C1100 C 1.01503 0.46876 0.08481 0.0
C1101 C 1.03089 0.42958 0.07765 0.0
C1102 C 1.02683 0.3945 0.09389 0.0
C1103 C 1.0153 0.50458 0.06623 0.0
C1104 C 0.97987 0.52266 0.05932 0.0
C1105 C 0.04939 0.51894 0.054 0.0
C1106 C 0.08816 0.5037 0.06178 0.0
C1107 C 0.11486 0.49089 0.04271 0.0
C1108 C 0.1517 0.47784 0.04993 0.0
C1109 C 0.16218 0.47711 0.07621 0.0
C1110 C 0.13597 0.48987 0.0953 0.0
C1111 C 0.09923 0.5034 0.08816 0.0
H1112 H 0.19062 0.46669 0.08177 0.0
H1113 H 0.8401 0.62329 1.01866 0.0
H1114 H 0.65756 0.60316 0.61154 0.0
H1115 H 0.6543 0.54906 0.57754 0.0
H1116 H 0.53457 0.57713 0.56539 0.0
H1117 H 0.53698 0.63042 0.5999 0.0
H1118 H 0.60473 0.47591 0.56747 0.0
H1119 H 0.52687 0.58893 0.49784 0.0
H1120 H 0.51671 0.66567 0.49246 0.0
H1121 H 0.6258 0.69089 0.52845 0.0
H1122 H 0.63682 0.61437 0.53366 0.0
H1123 H 0.54833 0.40654 0.42975 0.0
H1124 H 0.54138 0.45802 0.46549 0.0
H1125 H 0.66127 0.4428 0.48451 0.0
H1126 H 0.66836 0.39185 0.44889 0.0
H1127 H 0.58485 0.53631 0.47921 0.0
H1128 H 0.65894 0.42211 0.55222 0.0
H1129 H 0.66795 0.34516 0.55749 0.0
H1130 H 0.5646 0.32144 0.51417 0.0
H1131 H 0.55421 0.39809 0.50944 0.0
C1132 C 0.63022 0.59717 0.60221 0.0
C1133 C 0.5977 0.62179 0.6082 0.0
C1134 C 0.62846 0.56621 0.58276 0.0
C1135 C 0.59431 0.55968 0.56886 0.0
C1136 C 0.56124 0.58224 0.5758 0.0
C1137 C 0.56284 0.61293 0.59536 0.0
C1138 C 0.59431 0.53256 0.54541 0.0
C1139 C 0.60064 0.48904 0.54816 0.0
C1140 C 0.58806 0.54986 0.52035 0.0
C1141 C 0.58241 0.59593 0.51641 0.0
C1142 C 0.54879 0.61086 0.50443 0.0
C1143 C 0.54287 0.65433 0.50142 0.0
C1144 C 0.57052 0.68315 0.51019 0.0
C1145 C 0.60429 0.66856 0.52179 0.0
C1146 C 0.61036 0.62514 0.5248 0.0
C1147 C 0.57326 0.41497 0.44129 0.0
C1148 C 0.60885 0.3954 0.43662 0.0
C1149 C 0.56931 0.44433 0.46153 0.0
C1150 C 0.60077 0.45374 0.4776 0.0
C1151 C 0.63671 0.43573 0.47225 0.0
C1152 C 0.64078 0.40692 0.45182 0.0
C1153 C 0.59576 0.47976 0.50124 0.0
C1154 C 0.58854 0.52309 0.49853 0.0
C1155 C 0.60095 0.46221 0.52633 0.0
C1156 C 0.60617 0.41596 0.5301 0.0
C1157 C 0.638 0.40051 0.54397 0.0
C1158 C 0.64335 0.35692 0.54686 0.0
C1159 C 0.61709 0.32845 0.53596 0.0
C1160 C 0.58509 0.3435 0.52246 0.0
C1161 C 0.57944 0.38702 0.51969 0.0
H1162 H 0.62145 0.29474 0.53809 0.0
H1163 H 0.56582 0.71678 0.50793 0.0
H1164 H 0.56556 0.11709 0.92751 0.0
H1165 H 0.58266 0.06804 0.96282 0.0
H1166 H 0.46535 0.07012 0.98982 0.0
H1167 H 0.44815 0.11833 0.95449 0.0
H1168 H 0.53015 0.09089 0.0282 0.0
H1169 H 0.48675 0.98899 0.96146 0.0
H1170 H 0.49203 0.9586 0.91724 0.0
H1171 H 0.6099 0.92633 0.93168 0.0
H1172 H 0.60547 0.95725 0.97586 0.0
H1173 H 0.4845 0.93526 0.11793 0.0
H1174 H 0.49264 0.98709 0.08381 0.0
H1175 H 0.5947 0.92273 0.05717 0.0
H1176 H 0.58531 0.86882 0.09003 0.0
H1177 H 0.55341 0.93694 1.01772 0.0
H1178 H 0.59704 0.02504 0.08563 0.0
H1179 H 0.59922 0.06007 0.12862 0.0
H1180 H 0.49274 0.12304 0.11224 0.0
H1181 H 0.48956 0.08792 0.0693 0.0
C1182 C 0.54347 0.10637 0.9408 0.0
C1183 C 0.50557 0.12106 0.93833 0.0
C1184 C 0.55322 0.07866 0.96088 0.0
C1185 C 0.52524 0.06601 0.97888 0.0
C1186 C 0.48724 0.07984 0.97607 0.0
C1187 C 0.47738 0.10685 0.95577 0.0
C1188 C 0.53532 0.03906 1.00116 0.0
C1189 C 0.53513 0.05716 1.02612 0.0
C1190 C 0.54377 0.99575 0.99799 0.0
C1191 C 0.5459 0.97582 0.97183 0.0
C1192 C 0.51386 0.97566 0.95513 0.0
C1193 C 0.51668 0.95832 0.93009 0.0
C1194 C 0.55131 0.94067 0.92162 0.0
C1195 C 0.58311 0.94009 0.93825 0.0
C1196 C 0.58046 0.95749 0.96329 0.0
C1197 C 0.50876 0.93185 0.10495 0.0
C1198 C 0.5336 0.89689 0.10666 0.0
C1199 C 0.51378 0.96215 0.08559 0.0
C1200 C 0.54447 0.95907 0.06793 0.0
C1201 C 0.57071 0.92573 0.0705 0.0
C1202 C 0.56534 0.89493 0.0896 0.0
C1203 C 0.54661 0.98823 0.04537 0.0
C1204 C 0.54925 0.97073 1.02016 0.0
C1205 C 0.54142 0.03244 0.04833 0.0
C1206 C 0.54298 0.05359 0.07424 0.0
C1207 C 0.57392 0.04609 0.09125 0.0
C1208 C 0.57535 0.06602 0.11562 0.0
C1209 C 0.54611 0.09372 0.12317 0.0
C1210 C 0.51538 0.10158 0.10636 0.0
C1211 C 0.51377 0.08171 0.08198 0.0
H1212 H 0.54729 0.10913 0.14203 0.0
H1213 H 0.55348 0.92737 0.9022 0.0
H1214 H 1.03745 0.87597 0.45485 0.0
H1215 H 1.02453 0.92398 0.49136 0.0
H1216 H 0.1427 0.91363 0.51592 0.0
H1217 H 0.15564 0.86521 0.47959 0.0
H1218 H 0.0886 0.9071 0.55723 0.0
H1219 H 0.11546 0.99682 0.48177 0.0
H1220 H 0.10355 0.02272 0.43719 0.0
H1221 H 0.98786 0.0553 0.45825 0.0
H1222 H 0.99893 0.0289 0.50283 0.0
H1223 H 0.1438 0.08704 0.62682 0.0
H1224 H 0.13044 0.02484 0.60076 0.0
H1225 H 1.01932 0.07524 0.58045 0.0
H1226 H 1.03324 0.13896 0.60508 0.0
H1227 H 0.05546 0.05652 0.53876 0.0
H1228 H 1.02916 0.97961 0.61547 0.0
H1229 H 1.03748 0.95326 0.66028 0.0
H1230 H 0.14475 0.89612 0.63877 0.0
H1231 H 0.13717 0.92207 0.5938 0.0
C1232 C 0.0606 0.88387 0.4681 0.0
C1233 C 0.09762 0.8672 0.46432 0.0
C1234 C 0.05319 0.91124 0.48889 0.0
C1235 C 0.08267 0.92222 0.50625 0.0
C1236 C 0.11957 0.90533 0.5027 0.0
C1237 C 0.12706 0.87821 0.48179 0.0
C1238 C 0.07569 0.95281 0.52752 0.0
C1239 C 0.08139 0.93986 0.55335 0.0
C1240 C 0.0645 0.99488 0.52235 0.0
C1241 C 0.05788 0.01047 0.49551 0.0
C1242 C 0.08738 1.00914 0.4768 0.0
C1243 C 0.08079 0.02396 0.45155 0.0
C1244 C 0.04493 0.04052 0.44486 0.0
C1245 C 1.01559 0.04237 0.46343 0.0
C1246 C 1.022 0.02749 0.48868 0.0
C1247 C 0.11643 0.08522 0.61696 0.0
C1248 C 0.09031 0.1192 0.61756 0.0
C1249 C 0.10847 0.04894 0.6024 0.0
C1250 C 0.07384 0.04529 0.58858 0.0
C1251 C 0.04637 0.0775 0.59082 0.0
C1252 C 0.0545 0.11411 0.60508 0.0
C1253 C 0.06922 0.01139 0.56879 0.0
C1254 C 0.06144 0.02361 0.54304 0.0
C1255 C 0.07776 0.96854 0.57417 0.0
C1256 C 0.08266 0.953 0.60125 0.0
C1257 C 0.05466 0.96165 0.62031 0.0
C1258 C 0.05921 0.94673 0.64574 0.0
C1259 C 0.0917 0.92323 0.6524 0.0
C1260 C 0.11961 0.91437 0.63359 0.0
C1261 C 0.11513 0.92903 0.6081 0.0
H1262 H 0.09518 0.91178 0.67211 0.0
H1263 H 0.0399 0.05202 0.42531 0.0
loop_
_geom_bond_atom_site_label_1
_geom_bond_atom_site_label_2
_geom_bond_distance
_geom_bond_site_symmetry_2
_ccdc_geom_bond_type
C0 C1 1.351 . S
C0 N3 1.368 . S
C0 H5 0.931 . S
C1 C0 1.351 . S
C1 N2 1.373 . S
C1 H29 0.930 . S
N2 C1 1.373 . S
N2 C4 1.340 . S
N3 C0 1.368 . S
N3 C4 1.321 . S
N3 Co6 2.135 . S
C4 N2 1.340 . S
C4 N3 1.321 . S
C4 H28 0.930 . S
H5 C0 0.931 . S
Co6 N3 2.135 . S
Co6 N9 2.121 . S
Co6 O14 2.055 . S
Co6 O17 2.039 . S
Co6 N20 2.140 1_455 S
C7 O8 1.227 1_455 S
C7 O17 1.265 . S
O8 C7 1.227 1_655 S
N9 Co6 2.121 . S
N9 C11 1.375 . S
N9 C12 1.313 . S
C10 C11 1.338 . S
C10 N13 1.377 . S
C10 H30 0.930 . S
C11 N9 1.375 . S
C11 C10 1.338 . S
C11 H15 0.931 1_455 S
C12 N9 1.313 . S
C12 N13 1.344 . S
C12 H16 0.930 . S
N13 C10 1.377 . S
N13 C12 1.344 . S
O14 Co6 2.055 . S
O14 C18 1.253 . S
H15 C11 0.931 1_655 S
H16 C12 0.930 . S
O17 Co6 2.039 . S
O17 C7 1.265 . S
C18 O14 1.253 . S
C18 O19 1.227 . S
O19 C18 1.227 . S
N20 Co6 2.140 1_655 S
N20 C23 1.346 . S
N20 C24 1.345 . S
C21 C22 1.387 . S
C21 C25 1.391 . S
C22 C21 1.387 . S
C22 C23 1.369 . S
C22 H31 0.929 . S
C23 N20 1.346 . S
C23 C22 1.369 . S
C23 H26 0.928 . S
C24 N20 1.345 . S
C24 C25 1.371 . S
C24 H27 0.924 1_655 S
C25 C21 1.391 . S
C25 C24 1.371 . S
C25 H32 0.930 . S
H26 C23 0.928 . S
H27 C24 0.924 1_455 S
H28 C4 0.930 . S
H29 C1 0.930 . S
H30 C10 0.930 . S
H31 C22 0.929 . S
H32 C25 0.930 . S
C33 C34 1.351 . S
C33 N36 1.368 . S
C33 H38 0.931 . S
C34 C33 1.351 . S
C34 N35 1.373 . S
C34 H62 0.930 . S
N35 C34 1.373 . S
N35 C37 1.340 . S
N36 C33 1.368 . S
N36 C37 1.321 . S
N36 Co39 2.135 . S
C37 N35 1.340 . S
C37 N36 1.321 . S
C37 H61 0.930 . S
H38 C33 0.931 . S
Co39 N36 2.135 . S
Co39 N42 2.121 . S
Co39 O47 2.055 . S
Co39 O50 2.039 . S
Co39 N53 2.140 . S
C40 O41 1.227 . S
C40 O50 1.265 . S
O41 C40 1.227 . S
N42 Co39 2.121 . S
N42 C44 1.375 . S
N42 C45 1.313 . S
C43 C44 1.338 . S
C43 N46 1.377 . S
C43 H63 0.930 . S
C44 N42 1.375 . S
C44 C43 1.338 . S
C44 H48 0.931 . S
C45 N42 1.313 . S
C45 N46 1.344 . S
C45 H49 0.930 . S
N46 C43 1.377 . S
N46 C45 1.344 . S
O47 Co39 2.055 . S
O47 C51 1.253 . S
H48 C44 0.931 . S
H49 C45 0.930 . S
O50 Co39 2.039 . S
O50 C40 1.265 . S
C51 O47 1.253 . S
C51 O52 1.227 . S
O52 C51 1.227 . S
N53 Co39 2.140 . S
N53 C56 1.346 . S
N53 C57 1.345 . S
C54 C55 1.387 . S
C54 C58 1.391 . S
C55 C54 1.387 . S
C55 C56 1.369 . S
C55 H64 0.929 . S
C56 N53 1.346 . S
C56 C55 1.369 . S
C56 H59 0.928 . S
C57 N53 1.345 . S
C57 C58 1.371 . S
C57 H60 0.931 . S
C58 C54 1.391 . S
C58 C57 1.371 . S
C58 H65 0.930 . S
H59 C56 0.928 . S
H60 C57 0.931 . S
H61 C37 0.930 . S
H62 C34 0.930 . S
H63 C43 0.930 . S
H64 C55 0.929 . S
H65 C58 0.930 . S
C66 C67 1.351 . S
C66 N69 1.368 . S
C66 H71 0.931 . S
C67 C66 1.351 . S
C67 N68 1.373 . S
C67 H95 0.930 . S
N68 C67 1.373 . S
N68 C70 1.340 . S
N69 C66 1.368 . S
N69 C70 1.321 . S
N69 Co72 2.135 . S
C70 N68 1.340 . S
C70 N69 1.321 . S
C70 H94 0.930 . S
H71 C66 0.931 . S
Co72 N69 2.135 . S
Co72 N75 2.121 . S
Co72 O80 2.055 . S
Co72 O83 2.039 . S
Co72 N86 2.140 1_455 S
C73 O74 1.227 1_455 S
C73 O83 1.265 . S
O74 C73 1.227 1_655 S
N75 Co72 2.121 . S
N75 C77 1.375 . S
N75 C78 1.313 . S
C76 C77 1.338 . S
C76 N79 1.377 . S
C76 H96 0.930 . S
C77 N75 1.375 . S
C77 C76 1.338 . S
C77 H81 0.931 1_455 S
C78 N75 1.313 . S
C78 N79 1.344 . S
C78 H82 0.930 . S
N79 C76 1.377 . S
N79 C78 1.344 . S
O80 Co72 2.055 . S
O80 C84 1.253 . S
H81 C77 0.931 1_655 S
H82 C78 0.930 . S
O83 Co72 2.039 . S
O83 C73 1.265 . S
C84 O80 1.253 . S
C84 O85 1.227 . S
O85 C84 1.227 . S
N86 Co72 2.140 1_655 S
N86 C89 1.346 . S
N86 C90 1.345 . S
C87 C88 1.387 . S
C87 C91 1.391 . S
C88 C87 1.387 . S
C88 C89 1.369 . S
C88 H97 0.929 . S
C89 N86 1.346 . S
C89 C88 1.369 . S
C89 H92 0.928 . S
C90 N86 1.345 . S
C90 C91 1.371 . S
C90 H93 0.924 1_655 S
C91 C87 1.391 . S
C91 C90 1.371 . S
C91 H98 0.930 . S
H92 C89 0.928 . S
H93 C90 0.924 1_455 S
H94 C70 0.930 . S
H95 C67 0.930 . S
H96 C76 0.930 . S
H97 C88 0.929 . S
H98 C91 0.930 . S
C99 C100 1.351 . S
C99 N102 1.368 . S
C99 H104 0.931 . S
C100 C99 1.351 . S
C100 N101 1.373 . S
C100 H128 0.930 . S
N101 C100 1.373 . S
N101 C103 1.340 . S
N102 C99 1.368 . S
N102 C103 1.321 . S
N102 Co105 2.135 . S
C103 N101 1.340 . S
C103 N102 1.321 . S
C103 H127 0.930 . S
H104 C99 0.931 . S
Co105 N102 2.135 . S
Co105 N108 2.121 . S
Co105 O113 2.055 . S
Co105 O116 2.039 . S
Co105 N119 2.140 . S
C106 O107 1.227 . S
C106 O116 1.265 . S
O107 C106 1.227 . S
N108 Co105 2.121 . S
N108 C110 1.375 . S
N108 C111 1.313 . S
C109 C110 1.338 . S
C109 N112 1.377 . S
C109 H129 0.930 . S
C110 N108 1.375 . S
C110 C109 1.338 . S
C110 H114 0.931 . S
C111 N108 1.313 . S
C111 N112 1.344 . S
C111 H115 0.930 . S
N112 C109 1.377 . S
N112 C111 1.344 . S
O113 Co105 2.055 . S
O113 C117 1.253 . S
H114 C110 0.931 . S
H115 C111 0.930 . S
O116 Co105 2.039 . S
O116 C106 1.265 . S
C117 O113 1.253 . S
C117 O118 1.227 . S
O118 C117 1.227 . S
N119 Co105 2.140 . S
N119 C122 1.346 . S
N119 C123 1.345 . S
C120 C121 1.387 . S
C120 C124 1.391 . S
C121 C120 1.387 . S
C121 C122 1.369 . S
C121 H130 0.929 . S
C122 N119 1.346 . S
C122 C121 1.369 . S
C122 H125 0.928 . S
C123 N119 1.345 . S
C123 C124 1.371 . S
C123 H126 0.931 . S
C124 C120 1.391 . S
C124 C123 1.371 . S
C124 H131 0.930 . S
H125 C122 0.928 . S
H126 C123 0.931 . S
H127 C103 0.930 . S
H128 C100 0.930 . S
H129 C109 0.930 . S
H130 C121 0.929 . S
H131 C124 0.930 . S
C132 C133 1.351 . S
C132 N135 1.368 . S
C132 H137 0.931 . S
C133 C132 1.351 . S
C133 N134 1.373 . S
C133 H161 0.930 . S
N134 C133 1.373 . S
N134 C136 1.340 . S
N135 C132 1.368 . S
N135 C136 1.321 . S
N135 Co138 2.135 . S
C136 N134 1.340 . S
C136 N135 1.321 . S
C136 H160 0.930 . S
H137 C132 0.931 . S
Co138 N135 2.135 . S
Co138 N141 2.121 . S
Co138 O146 2.055 . S
Co138 O149 2.039 . S
Co138 N152 2.140 . S
C139 O140 1.227 . S
C139 O149 1.265 . S
O140 C139 1.227 . S
N141 Co138 2.121 . S
N141 C143 1.375 . S
N141 C144 1.313 . S
C142 C143 1.338 . S
C142 N145 1.377 . S
C142 H162 0.930 . S
C143 N141 1.375 . S
C143 C142 1.338 . S
C143 H147 0.931 . S
C144 N141 1.313 . S
C144 N145 1.344 . S
C144 H148 0.930 . S
N145 C142 1.377 . S
N145 C144 1.344 . S
O146 Co138 2.055 . S
O146 C150 1.253 . S
H147 C143 0.931 . S
H148 C144 0.930 . S
O149 Co138 2.039 . S
O149 C139 1.265 . S
C150 O146 1.253 . S
C150 O151 1.227 . S
O151 C150 1.227 . S
N152 Co138 2.140 . S
N152 C155 1.346 . S
N152 C156 1.345 . S
C153 C154 1.387 . S
C153 C157 1.391 . S
C154 C153 1.387 . S
C154 C155 1.369 . S
C154 H163 0.929 . S
C155 N152 1.346 . S
C155 C154 1.369 . S
C155 H158 0.928 . S
C156 N152 1.345 . S
C156 C157 1.371 . S
C156 H159 0.931 . S
C157 C153 1.391 . S
C157 C156 1.371 . S
C157 H164 0.930 . S
H158 C155 0.928 . S
H159 C156 0.931 . S
H160 C136 0.930 . S
H161 C133 0.930 . S
H162 C142 0.930 . S
H163 C154 0.929 . S
H164 C157 0.930 . S
C165 C166 1.351 . S
C165 N168 1.368 . S
C165 H170 0.931 . S
C166 C165 1.351 . S
C166 N167 1.373 . S
C166 H194 0.930 . S
N167 C166 1.373 . S
N167 C169 1.340 . S
N168 C165 1.368 . S
N168 C169 1.321 . S
N168 Co171 2.135 . S
C169 N167 1.340 . S
C169 N168 1.321 . S
C169 H193 0.930 1_655 S
H170 C165 0.931 . S
Co171 N168 2.135 . S
Co171 N174 2.121 . S
Co171 O179 2.055 . S
Co171 O182 2.039 . S
Co171 N185 2.140 1_655 S
C172 O173 1.227 . S
C172 O182 1.265 1_455 S
O173 C172 1.227 . S
N174 Co171 2.121 . S
N174 C176 1.375 1_655 S
N174 C177 1.313 . S
C175 C176 1.338 . S
C175 N178 1.377 1_455 S
C175 H195 0.930 . S
C176 N174 1.375 1_455 S
C176 C175 1.338 . S
C176 H180 0.931 . S
C177 N174 1.313 . S
C177 N178 1.344 . S
C177 H181 0.930 . S
N178 C175 1.377 1_655 S
N178 C177 1.344 . S
O179 Co171 2.055 . S
O179 C183 1.253 . S
H180 C176 0.931 . S
H181 C177 0.930 . S
O182 Co171 2.039 . S
O182 C172 1.265 1_655 S
C183 O179 1.253 . S
C183 O184 1.227 . S
O184 C183 1.227 . S
N185 Co171 2.140 1_455 S
N185 C188 1.346 . S
N185 C189 1.345 . S
C186 C187 1.387 . S
C186 C190 1.391 . S
C187 C186 1.387 . S
C187 C188 1.369 . S
C187 H196 0.929 . S
C188 N185 1.346 . S
C188 C187 1.369 . S
C188 H191 0.928 . S
C189 N185 1.345 . S
C189 C190 1.371 . S
C189 H192 0.931 . S
C190 C186 1.391 . S
C190 C189 1.371 . S
C190 H197 0.930 . S
H191 C188 0.928 . S
H192 C189 0.931 . S
H193 C169 0.930 1_455 S
H194 C166 0.930 . S
H195 C175 0.930 . S
H196 C187 0.929 . S
H197 C190 0.930 . S
C198 C199 1.351 . S
C198 N201 1.368 . S
C198 H203 0.931 . S
C199 C198 1.351 . S
C199 N200 1.373 . S
C199 H227 0.930 . S
N200 C199 1.373 . S
N200 C202 1.340 . S
N201 C198 1.368 . S
N201 C202 1.321 . S
N201 Co204 2.135 . S
C202 N200 1.340 . S
C202 N201 1.321 . S
C202 H226 0.930 . S
H203 C198 0.931 . S
Co204 N201 2.135 . S
Co204 N207 2.121 . S
Co204 O212 2.055 . S
Co204 O215 2.039 . S
Co204 N218 2.140 . S
C205 O206 1.227 . S
C205 O215 1.265 . S
O206 C205 1.227 . S
N207 Co204 2.121 . S
N207 C209 1.375 . S
N207 C210 1.313 . S
C208 C209 1.338 . S
C208 N211 1.377 . S
C208 H228 0.930 . S
C209 N207 1.375 . S
C209 C208 1.338 . S
C209 H213 0.931 . S
C210 N207 1.313 . S
C210 N211 1.344 . S
C210 H214 0.930 . S
N211 C208 1.377 . S
N211 C210 1.344 . S
O212 Co204 2.055 . S
O212 C216 1.253 . S
H213 C209 0.931 . S
H214 C210 0.930 . S
O215 Co204 2.039 . S
O215 C205 1.265 . S
C216 O212 1.253 . S
C216 O217 1.227 . S
O217 C216 1.227 . S
N218 Co204 2.140 . S
N218 C221 1.346 . S
N218 C222 1.345 . S
C219 C220 1.387 . S
C219 C223 1.391 . S
C220 C219 1.387 . S
C220 C221 1.369 . S
C220 H229 0.929 . S
C221 N218 1.346 . S
C221 C220 1.369 . S
C221 H224 0.928 . S
C222 N218 1.345 . S
C222 C223 1.371 . S
C222 H225 0.931 . S
C223 C219 1.391 . S
C223 C222 1.371 . S
C223 H230 0.930 . S
H224 C221 0.928 . S
H225 C222 0.931 . S
H226 C202 0.930 . S
H227 C199 0.930 . S
H228 C208 0.930 . S
H229 C220 0.929 . S
H230 C223 0.930 . S
C231 C232 1.351 . S
C231 N234 1.368 . S
C231 H236 0.931 . S
C232 C231 1.351 . S
C232 N233 1.373 . S
C232 H260 0.930 . S
N233 C232 1.373 . S
N233 C235 1.340 . S
N234 C231 1.368 . S
N234 C235 1.321 . S
N234 Co237 2.135 . S
C235 N233 1.340 . S
C235 N234 1.321 . S
C235 H259 0.930 1_655 S
H236 C231 0.931 . S
Co237 N234 2.135 . S
Co237 N240 2.121 . S
Co237 O245 2.055 . S
Co237 O248 2.039 . S
Co237 N251 2.140 1_655 S
C238 O239 1.227 . S
C238 O248 1.265 1_455 S
O239 C238 1.227 . S
N240 Co237 2.121 . S
N240 C242 1.375 1_655 S
N240 C243 1.313 . S
C241 C242 1.338 . S
C241 N244 1.377 1_455 S
C241 H261 0.930 . S
C242 N240 1.375 1_455 S
C242 C241 1.338 . S
C242 H246 0.931 . S
C243 N240 1.313 . S
C243 N244 1.344 . S
C243 H247 0.930 . S
N244 C241 1.377 1_655 S
N244 C243 1.344 . S
O245 Co237 2.055 . S
O245 C249 1.253 . S
H246 C242 0.931 . S
H247 C243 0.930 . S
O248 Co237 2.039 . S
O248 C238 1.265 1_655 S
C249 O245 1.253 . S
C249 O250 1.227 . S
O250 C249 1.227 . S
N251 Co237 2.140 1_455 S
N251 C254 1.346 . S
N251 C255 1.345 . S
C252 C253 1.387 . S
C252 C256 1.391 . S
C253 C252 1.387 . S
C253 C254 1.369 . S
C253 H262 0.929 . S
C254 N251 1.346 . S
C254 C253 1.369 . S
C254 H257 0.928 . S
C255 N251 1.345 . S
C255 C256 1.371 . S
C255 H258 0.931 . S
C256 C252 1.391 . S
C256 C255 1.371 . S
C256 H263 0.930 . S
H257 C254 0.928 . S
H258 C255 0.931 . S
H259 C235 0.930 1_455 S
H260 C232 0.930 . S
H261 C241 0.930 . S
H262 C253 0.929 . S
H263 C256 0.930 . S
H264 C282 0.951 . S
H265 C284 0.951 . S
H266 C286 0.950 . S
H267 C287 0.950 . S
H268 C289 0.950 . S
H269 C292 0.950 . S
H270 C293 0.950 1_556 S
H271 C295 0.950 . S
H272 C296 0.950 . S
H273 C297 0.951 . S
H274 C299 0.951 . S
H275 C301 0.950 . S
H276 C302 0.950 . S
H277 C304 0.950 . S
H278 C307 0.950 . S
H279 C308 0.950 1_554 S
H280 C310 0.950 . S
H281 C311 0.950 . S
C282 H264 0.951 . S
C282 C283 1.366 . S
C282 C284 1.388 . S
C283 C282 1.366 . S
C283 C287 1.385 . S
C284 H265 0.951 . S
C284 C282 1.388 . S
C284 C285 1.366 . S
C285 C284 1.366 . S
C285 C286 1.414 . S
C285 C288 1.499 . S
C286 H266 0.950 . S
C286 C285 1.414 . S
C286 C287 1.374 . S
C287 H267 0.950 . S
C287 C283 1.385 . S
C287 C286 1.374 . S
C288 C285 1.499 . S
C288 C289 1.373 . S
C288 C290 1.389 1_556 S
C289 H268 0.950 . S
C289 C288 1.373 . S
C289 C305 1.377 . S
C290 C288 1.389 1_554 S
C290 C291 1.524 . S
C290 C304 1.377 . S
C291 C290 1.524 . S
C291 C292 1.397 1_554 S
C291 C296 1.363 . S
C292 H269 0.950 . S
C292 C291 1.397 1_556 S
C292 C293 1.334 1_556 S
C293 H270 0.950 1_554 S
C293 C292 1.334 1_554 S
C293 C294 1.287 . S
C294 C293 1.287 . S
C294 C295 1.524 . S
C294 H313 0.913 . S
C295 H271 0.950 . S
C295 C294 1.524 . S
C295 C296 1.415 . S
C296 H272 0.950 . S
C296 C291 1.363 . S
C296 C295 1.415 . S
C297 H273 0.951 . S
C297 C298 1.366 . S
C297 C299 1.388 . S
C298 C297 1.366 . S
C298 C302 1.385 . S
C299 H274 0.951 . S
C299 C297 1.388 . S
C299 C300 1.366 . S
C300 C299 1.366 . S
C300 C301 1.414 . S
C300 C303 1.499 . S
C301 H275 0.950 . S
C301 C300 1.414 . S
C301 C302 1.374 . S
C302 H276 0.950 . S
C302 C298 1.385 . S
C302 C301 1.374 . S
C303 C300 1.499 . S
C303 C304 1.373 . S
C303 C305 1.389 1_554 S
C304 H277 0.950 . S
C304 C290 1.377 . S
C304 C303 1.373 . S
C305 C289 1.377 . S
C305 C303 1.389 1_556 S
C305 C306 1.524 . S
C306 C305 1.524 . S
C306 C307 1.397 1_556 S
C306 C311 1.363 . S
C307 H278 0.950 . S
C307 C306 1.397 1_554 S
C307 C308 1.334 1_554 S
C308 H279 0.950 1_556 S
C308 C307 1.334 1_556 S
C308 C309 1.287 . S
C309 C308 1.287 . S
C309 C310 1.524 . S
C309 H312 0.999 . S
C310 H280 0.950 . S
C310 C309 1.524 . S
C310 C311 1.415 . S
C311 H281 0.950 . S
C311 C306 1.363 . S
C311 C310 1.415 . S
H312 C309 0.999 . S
H313 C294 0.913 . S
H314 C332 0.951 . S
H315 C334 0.951 . S
H316 C336 0.950 . S
H317 C337 0.950 . S
H318 C339 0.950 . S
H319 C342 0.950 . S
H320 C343 0.950 . S
H321 C345 0.950 . S
H322 C346 0.950 . S
H323 C347 0.951 . S
H324 C349 0.951 . S
H325 C351 0.950 . S
H326 C352 0.950 . S
H327 C354 0.950 . S
H328 C357 0.950 . S
H329 C358 0.950 . S
H330 C360 0.950 . S
H331 C361 0.950 . S
C332 H314 0.951 . S
C332 C333 1.366 . S
C332 C334 1.388 . S
C333 C332 1.366 . S
C333 C337 1.385 . S
C334 H315 0.951 . S
C334 C332 1.388 . S
C334 C335 1.366 . S
C335 C334 1.366 . S
C335 C336 1.414 . S
C335 C338 1.499 . S
C336 H316 0.950 . S
C336 C335 1.414 . S
C336 C337 1.374 . S
C337 H317 0.950 . S
C337 C333 1.385 . S
C337 C336 1.374 . S
C338 C335 1.499 . S
C338 C339 1.373 . S
C338 C340 1.389 . S
C339 H318 0.950 . S
C339 C338 1.373 . S
C339 C355 1.377 . S
C340 C338 1.389 . S
C340 C341 1.524 . S
C340 C354 1.377 . S
C341 C340 1.524 . S
C341 C342 1.397 . S
C341 C346 1.363 . S
C342 H319 0.950 . S
C342 C341 1.397 . S
C342 C343 1.334 . S
C343 H320 0.950 . S
C343 C342 1.334 . S
C343 C344 1.287 . S
C344 C343 1.287 . S
C344 C345 1.524 . S
C344 H363 0.913 . S
C345 H321 0.950 . S
C345 C344 1.524 . S
C345 C346 1.415 . S
C346 H322 0.950 . S
C346 C341 1.363 . S
C346 C345 1.415 . S
C347 H323 0.951 . S
C347 C348 1.366 . S
C347 C349 1.388 . S
C348 C347 1.366 . S
C348 C352 1.385 . S
C349 H324 0.951 . S
C349 C347 1.388 . S
C349 C350 1.366 . S
C350 C349 1.366 . S
C350 C351 1.414 . S
C350 C353 1.499 . S
C351 H325 0.950 . S
C351 C350 1.414 . S
C351 C352 1.374 . S
C352 H326 0.950 . S
C352 C348 1.385 . S
C352 C351 1.374 . S
C353 C350 1.499 . S
C353 C354 1.373 . S
C353 C355 1.389 . S
C354 H327 0.950 . S
C354 C340 1.377 . S
C354 C353 1.373 . S
C355 C339 1.377 . S
C355 C353 1.389 . S
C355 C356 1.524 . S
C356 C355 1.524 . S
C356 C357 1.397 . S
C356 C361 1.363 . S
C357 H328 0.950 . S
C357 C356 1.397 . S
C357 C358 1.334 . S
C358 H329 0.950 . S
C358 C357 1.334 . S
C358 C359 1.287 . S
C359 C358 1.287 . S
C359 C360 1.524 . S
C359 H362 0.999 . S
C360 H330 0.950 . S
C360 C359 1.524 . S
C360 C361 1.415 . S
C361 H331 0.950 . S
C361 C356 1.363 . S
C361 C360 1.415 . S
H362 C359 0.999 . S
H363 C344 0.913 . S
H364 C382 0.951 . S
H365 C384 0.951 . S
H366 C386 0.950 . S
H367 C387 0.950 . S
H368 C389 0.950 . S
H369 C392 0.950 . S
H370 C393 0.950 . S
H371 C395 0.950 . S
H372 C396 0.950 . S
H373 C397 0.951 . S
H374 C399 0.951 . S
H375 C401 0.950 . S
H376 C402 0.950 . S
H377 C404 0.950 . S
H378 C407 0.950 . S
H379 C408 0.950 . S
H380 C410 0.950 . S
H381 C411 0.950 . S
C382 H364 0.951 . S
C382 C383 1.366 . S
C382 C384 1.388 . S
C383 C382 1.366 . S
C383 C387 1.385 . S
C384 H365 0.951 . S
C384 C382 1.388 . S
C384 C385 1.366 . S
C385 C384 1.366 . S
C385 C386 1.414 . S
C385 C388 1.499 . S
C386 H366 0.950 . S
C386 C385 1.414 . S
C386 C387 1.374 . S
C387 H367 0.950 . S
C387 C383 1.385 . S
C387 C386 1.374 . S
C388 C385 1.499 . S
C388 C389 1.373 . S
C388 C390 1.389 1_554 S
C389 H368 0.950 . S
C389 C388 1.373 . S
C389 C405 1.350 1_554 S
C390 C388 1.389 1_556 S
C390 C391 1.524 . S
C390 C404 1.377 . S
C391 C390 1.524 . S
C391 C392 1.397 1_556 S
C391 C396 1.363 . S
C392 H369 0.950 . S
C392 C391 1.397 1_554 S
C392 C393 1.334 . S
C393 H370 0.950 . S
C393 C392 1.334 . S
C393 C394 1.287 . S
C394 C393 1.287 . S
C394 C395 1.524 1_554 S
C394 H413 0.913 . S
C395 H371 0.950 . S
C395 C394 1.524 1_556 S
C395 C396 1.415 . S
C396 H372 0.950 . S
C396 C391 1.363 . S
C396 C395 1.415 . S
C397 H373 0.951 . S
C397 C398 1.366 . S
C397 C399 1.388 . S
C398 C397 1.366 . S
C398 C402 1.385 . S
C399 H374 0.951 . S
C399 C397 1.388 . S
C399 C400 1.366 . S
C400 C399 1.366 . S
C400 C401 1.414 . S
C400 C403 1.499 . S
C401 H375 0.950 . S
C401 C400 1.414 . S
C401 C402 1.374 . S
C402 H376 0.950 . S
C402 C398 1.385 . S
C402 C401 1.374 . S
C403 C400 1.499 . S
C403 C404 1.373 . S
C403 C405 1.417 . S
C404 H377 0.950 . S
C404 C390 1.377 . S
C404 C403 1.373 . S
C405 C389 1.350 1_556 S
C405 C403 1.417 . S
C405 C406 1.524 . S
C406 C405 1.524 . S
C406 C407 1.423 . S
C406 C411 1.337 1_556 S
C407 H378 0.950 . S
C407 C406 1.423 . S
C407 C408 1.334 . S
C408 H379 0.950 . S
C408 C407 1.334 . S
C408 C409 1.287 . S
C409 C408 1.287 . S
C409 C410 1.524 1_556 S
C409 H412 0.999 . S
C410 H380 0.950 . S
C410 C409 1.524 1_554 S
C410 C411 1.415 . S
C411 H381 0.950 . S
C411 C406 1.337 1_554 S
C411 C410 1.415 . S
H412 C409 0.999 . S
H413 C394 0.913 . S
H414 C432 0.951 . S
H415 C434 0.951 . S
H416 C436 0.950 . S
H417 C437 0.950 . S
H418 C439 0.950 . S
H419 C442 0.950 . S
H420 C443 0.950 . S
H421 C445 0.950 . S
H422 C446 0.950 . S
H423 C447 0.951 . S
H424 C449 0.951 . S
H425 C451 0.950 . S
H426 C452 0.950 . S
H427 C454 0.950 . S
H428 C457 0.950 . S
H429 C458 0.950 . S
H430 C460 0.950 . S
H431 C461 0.950 . S
C432 H414 0.951 . S
C432 C433 1.366 . S
C432 C434 1.388 . S
C433 C432 1.366 . S
C433 C437 1.385 . S
C434 H415 0.951 . S
C434 C432 1.388 . S
C434 C435 1.366 . S
C435 C434 1.366 . S
C435 C436 1.414 . S
C435 C438 1.499 . S
C436 H416 0.950 . S
C436 C435 1.414 . S
C436 C437 1.374 . S
C437 H417 0.950 . S
C437 C433 1.385 . S
C437 C436 1.374 . S
C438 C435 1.499 . S
C438 C439 1.373 . S
C438 C440 1.389 . S
C439 H418 0.950 . S
C439 C438 1.373 . S
C439 C455 1.377 . S
C440 C438 1.389 . S
C440 C441 1.524 . S
C440 C454 1.377 . S
C441 C440 1.524 . S
C441 C442 1.397 . S
C441 C446 1.363 . S
C442 H419 0.950 . S
C442 C441 1.397 . S
C442 C443 1.334 . S
C443 H420 0.950 . S
C443 C442 1.334 . S
C443 C444 1.287 . S
C444 C443 1.287 . S
C444 C445 1.524 . S
C444 H463 0.913 . S
C445 H421 0.950 . S
C445 C444 1.524 . S
C445 C446 1.415 . S
C446 H422 0.950 . S
C446 C441 1.363 . S
C446 C445 1.415 . S
C447 H423 0.951 . S
C447 C448 1.366 . S
C447 C449 1.388 . S
C448 C447 1.366 . S
C448 C452 1.385 . S
C449 H424 0.951 . S
C449 C447 1.388 . S
C449 C450 1.366 . S
C450 C449 1.366 . S
C450 C451 1.414 . S
C450 C453 1.499 . S
C451 H425 0.950 . S
C451 C450 1.414 . S
C451 C452 1.374 . S
C452 H426 0.950 . S
C452 C448 1.385 . S
C452 C451 1.374 . S
C453 C450 1.499 . S
C453 C454 1.373 . S
C453 C455 1.389 . S
C454 H427 0.950 . S
C454 C440 1.377 . S
C454 C453 1.373 . S
C455 C439 1.377 . S
C455 C453 1.389 . S
C455 C456 1.524 . S
C456 C455 1.524 . S
C456 C457 1.397 . S
C456 C461 1.363 . S
C457 H428 0.950 . S
C457 C456 1.397 . S
C457 C458 1.334 . S
C458 H429 0.950 . S
C458 C457 1.334 . S
C458 C459 1.287 . S
C459 C458 1.287 . S
C459 C460 1.524 . S
C459 H462 0.999 . S
C460 H430 0.950 . S
C460 C459 1.524 . S
C460 C461 1.415 . S
C461 H431 0.950 . S
C461 C456 1.363 . S
C461 C460 1.415 . S
H462 C459 0.999 . S
H463 C444 0.913 . S
H464 C482 0.951 . S
H465 C484 0.951 . S
H466 C486 0.950 . S
H467 C487 0.950 . S
H468 C489 0.950 . S
H469 C492 0.950 . S
H470 C493 0.950 . S
H471 C495 0.950 . S
H472 C496 0.950 . S
H473 C497 0.951 . S
H474 C499 0.951 . S
H475 C501 0.950 . S
H476 C502 0.950 . S
H477 C504 0.950 . S
H478 C507 0.950 . S
H479 C508 0.950 . S
H480 C510 0.950 . S
H481 C511 0.950 . S
C482 H464 0.951 . S
C482 C483 1.366 . S
C482 C484 1.388 . S
C483 C482 1.366 . S
C483 C487 1.385 . S
C484 H465 0.951 . S
C484 C482 1.388 . S
C484 C485 1.366 . S
C485 C484 1.366 . S
C485 C486 1.414 . S
C485 C488 1.499 . S
C486 H466 0.950 . S
C486 C485 1.414 . S
C486 C487 1.374 . S
C487 H467 0.950 . S
C487 C483 1.385 . S
C487 C486 1.374 . S
C488 C485 1.499 . S
C488 C489 1.373 . S
C488 C490 1.389 . S
C489 H468 0.950 . S
C489 C488 1.373 . S
C489 C505 1.377 1_554 S
C490 C488 1.389 . S
C490 C491 1.524 . S
C490 C504 1.377 1_554 S
C491 C490 1.524 . S
C491 C492 1.397 . S
C491 C496 1.363 1_554 S
C492 H469 0.950 . S
C492 C491 1.397 . S
C492 C493 1.334 . S
C493 H470 0.950 . S
C493 C492 1.334 . S
C493 C494 1.287 . S
C494 C493 1.287 . S
C494 C495 1.524 1_554 S
C494 H513 0.913 . S
C495 H471 0.950 . S
C495 C494 1.524 1_556 S
C495 C496 1.415 . S
C496 H472 0.950 . S
C496 C491 1.363 1_556 S
C496 C495 1.415 . S
C497 H473 0.951 . S
C497 C498 1.366 . S
C497 C499 1.388 . S
C498 C497 1.366 . S
C498 C502 1.385 . S
C499 H474 0.951 . S
C499 C497 1.388 . S
C499 C500 1.366 . S
C500 C499 1.366 . S
C500 C501 1.414 . S
C500 C503 1.499 . S
C501 H475 0.950 . S
C501 C500 1.414 . S
C501 C502 1.374 . S
C502 H476 0.950 . S
C502 C498 1.385 . S
C502 C501 1.374 . S
C503 C500 1.499 . S
C503 C504 1.373 . S
C503 C505 1.389 . S
C504 H477 0.950 . S
C504 C490 1.377 1_556 S
C504 C503 1.373 . S
C505 C489 1.377 1_556 S
C505 C503 1.389 . S
C505 C506 1.524 . S
C506 C505 1.524 . S
C506 C507 1.397 . S
C506 C511 1.363 1_556 S
C507 H478 0.950 . S
C507 C506 1.397 . S
C507 C508 1.334 . S
C508 H479 0.950 . S
C508 C507 1.334 . S
C508 C509 1.287 . S
C509 C508 1.287 . S
C509 C510 1.524 1_556 S
C509 H512 0.999 . S
C510 H480 0.950 . S
C510 C509 1.524 1_554 S
C510 C511 1.415 . S
C511 H481 0.950 . S
C511 C506 1.363 1_554 S
C511 C510 1.415 . S
H512 C509 0.999 . S
H513 C494 0.913 . S
H514 C532 0.951 . S
H515 C534 0.951 . S
H516 C536 0.950 . S
H517 C537 0.950 . S
H518 C539 0.950 . S
H519 C542 0.950 . S
H520 C543 0.950 . S
H521 C545 0.950 . S
H522 C546 0.950 . S
H523 C547 0.951 . S
H524 C549 0.951 . S
H525 C551 0.950 . S
H526 C552 0.950 . S
H527 C554 0.950 . S
H528 C557 0.950 . S
H529 C558 0.950 . S
H530 C560 0.950 . S
H531 C561 0.950 . S
C532 H514 0.951 . S
C532 C533 1.366 . S
C532 C534 1.388 . S
C533 C532 1.366 . S
C533 C537 1.385 . S
C534 H515 0.951 . S
C534 C532 1.388 . S
C534 C535 1.366 . S
C535 C534 1.366 . S
C535 C536 1.414 . S
C535 C538 1.499 . S
C536 H516 0.950 . S
C536 C535 1.414 . S
C536 C537 1.374 . S
C537 H517 0.950 . S
C537 C533 1.385 . S
C537 C536 1.374 . S
C538 C535 1.499 . S
C538 C539 1.373 . S
C538 C540 1.389 . S
C539 H518 0.950 . S
C539 C538 1.373 . S
C539 C555 1.377 . S
C540 C538 1.389 . S
C540 C541 1.524 . S
C540 C554 1.377 . S
C541 C540 1.524 . S
C541 C542 1.397 . S
C541 C546 1.363 . S
C542 H519 0.950 . S
C542 C541 1.397 . S
C542 C543 1.334 . S
C543 H520 0.950 . S
C543 C542 1.334 . S
C543 C544 1.287 . S
C544 C543 1.287 . S
C544 C545 1.524 . S
C544 H563 0.913 . S
C545 H521 0.950 . S
C545 C544 1.524 . S
C545 C546 1.415 . S
C546 H522 0.950 . S
C546 C541 1.363 . S
C546 C545 1.415 . S
C547 H523 0.951 . S
C547 C548 1.366 . S
C547 C549 1.388 . S
C548 C547 1.366 . S
C548 C552 1.385 . S
C549 H524 0.951 . S
C549 C547 1.388 . S
C549 C550 1.366 . S
C550 C549 1.366 . S
C550 C551 1.414 . S
C550 C553 1.499 . S
C551 H525 0.950 . S
C551 C550 1.414 . S
C551 C552 1.374 . S
C552 H526 0.950 . S
C552 C548 1.385 . S
C552 C551 1.374 . S
C553 C550 1.499 . S
C553 C554 1.373 . S
C553 C555 1.389 . S
C554 H527 0.950 . S
C554 C540 1.377 . S
C554 C553 1.373 . S
C555 C539 1.377 . S
C555 C553 1.389 . S
C555 C556 1.524 . S
C556 C555 1.524 . S
C556 C557 1.397 . S
C556 C561 1.363 . S
C557 H528 0.950 . S
C557 C556 1.397 . S
C557 C558 1.334 . S
C558 H529 0.950 . S
C558 C557 1.334 . S
C558 C559 1.287 . S
C559 C558 1.287 . S
C559 C560 1.524 . S
C559 H562 0.999 . S
C560 H530 0.950 . S
C560 C559 1.524 . S
C560 C561 1.415 . S
C561 H531 0.950 . S
C561 C556 1.363 . S
C561 C560 1.415 . S
H562 C559 0.999 . S
H563 C544 0.913 . S
H564 C582 0.951 . S
H565 C584 0.951 . S
H566 C586 0.950 . S
H567 C587 0.950 . S
H568 C589 0.950 . S
H569 C592 0.950 . S
H570 C593 0.950 . S
H571 C595 0.950 . S
H572 C596 0.950 . S
H573 C597 0.951 . S
H574 C599 0.951 . S
H575 C601 0.950 . S
H576 C602 0.950 . S
H577 C604 0.950 . S
H578 C607 0.950 . S
H579 C608 0.950 . S
H580 C610 0.950 . S
H581 C611 0.950 . S
C582 H564 0.951 . S
C582 C583 1.366 . S
C582 C584 1.388 . S
C583 C582 1.366 . S
C583 C587 1.385 . S
C584 H565 0.951 . S
C584 C582 1.388 . S
C584 C585 1.366 . S
C585 C584 1.366 . S
C585 C586 1.414 . S
C585 C588 1.499 . S
C586 H566 0.950 . S
C586 C585 1.414 . S
C586 C587 1.374 . S
C587 H567 0.950 . S
C587 C583 1.385 . S
C587 C586 1.374 . S
C588 C585 1.499 . S
C588 C589 1.373 . S
C588 C590 1.389 1_554 S
C589 H568 0.950 . S
C589 C588 1.373 . S
C589 C605 1.377 . S
C590 C588 1.389 1_556 S
C590 C591 1.524 . S
C590 C604 1.377 . S
C591 C590 1.524 . S
C591 C592 1.397 . S
C591 C596 1.363 . S
C592 H569 0.950 . S
C592 C591 1.397 . S
C592 C593 1.334 . S
C593 H570 0.950 . S
C593 C592 1.334 . S
C593 C594 1.287 . S
C594 C593 1.287 . S
C594 C595 1.524 . S
C594 H613 0.913 . S
C595 H571 0.950 . S
C595 C594 1.524 . S
C595 C596 1.415 . S
C596 H572 0.950 . S
C596 C591 1.363 . S
C596 C595 1.415 . S
C597 H573 0.951 . S
C597 C598 1.366 . S
C597 C599 1.388 . S
C598 C597 1.366 . S
C598 C602 1.385 . S
C599 H574 0.951 . S
C599 C597 1.388 . S
C599 C600 1.366 . S
C600 C599 1.366 . S
C600 C601 1.414 . S
C600 C603 1.499 . S
C601 H575 0.950 . S
C601 C600 1.414 . S
C601 C602 1.374 . S
C602 H576 0.950 . S
C602 C598 1.385 . S
C602 C601 1.374 . S
C603 C600 1.499 . S
C603 C604 1.373 . S
C603 C605 1.389 1_556 S
C604 H577 0.950 . S
C604 C590 1.377 . S
C604 C603 1.373 . S
C605 C589 1.377 . S
C605 C603 1.389 1_554 S
C605 C606 1.524 . S
C606 C605 1.524 . S
C606 C607 1.397 . S
C606 C611 1.363 . S
C607 H578 0.950 . S
C607 C606 1.397 . S
C607 C608 1.334 . S
C608 H579 0.950 . S
C608 C607 1.334 . S
C608 C609 1.287 . S
C609 C608 1.287 . S
C609 C610 1.524 . S
C609 H612 0.999 . S
C610 H580 0.950 . S
C610 C609 1.524 . S
C610 C611 1.415 . S
C611 H581 0.950 . S
C611 C606 1.363 . S
C611 C610 1.415 . S
H612 C609 0.999 . S
H613 C594 0.913 . S
H614 C632 0.951 . S
H615 C634 0.951 . S
H616 C636 0.950 . S
H617 C637 0.950 . S
H618 C639 0.950 . S
H619 C642 0.950 . S
H620 C643 0.950 . S
H621 C645 0.950 . S
H622 C646 0.950 . S
H623 C647 0.951 . S
H624 C649 0.951 . S
H625 C651 0.950 . S
H626 C652 0.950 . S
H627 C654 0.950 . S
H628 C657 0.950 . S
H629 C658 0.950 . S
H630 C660 0.950 . S
H631 C661 0.950 . S
C632 H614 0.951 . S
C632 C633 1.366 . S
C632 C634 1.388 . S
C633 C632 1.366 . S
C633 C637 1.385 . S
C634 H615 0.951 . S
C634 C632 1.388 . S
C634 C635 1.366 . S
C635 C634 1.366 . S
C635 C636 1.414 . S
C635 C638 1.499 . S
C636 H616 0.950 . S
C636 C635 1.414 . S
C636 C637 1.374 . S
C637 H617 0.950 . S
C637 C633 1.385 . S
C637 C636 1.374 . S
C638 C635 1.499 . S
C638 C639 1.373 . S
C638 C640 1.389 . S
C639 H618 0.950 . S
C639 C638 1.373 . S
C639 C655 1.377 . S
C640 C638 1.389 . S
C640 C641 1.524 . S
C640 C654 1.377 . S
C641 C640 1.524 . S
C641 C642 1.397 . S
C641 C646 1.363 . S
C642 H619 0.950 . S
C642 C641 1.397 . S
C642 C643 1.334 . S
C643 H620 0.950 . S
C643 C642 1.334 . S
C643 C644 1.287 . S
C644 C643 1.287 . S
C644 C645 1.524 . S
C644 H663 0.913 . S
C645 H621 0.950 . S
C645 C644 1.524 . S
C645 C646 1.415 . S
C646 H622 0.950 . S
C646 C641 1.363 . S
C646 C645 1.415 . S
C647 H623 0.951 . S
C647 C648 1.366 . S
C647 C649 1.388 . S
C648 C647 1.366 . S
C648 C652 1.385 . S
C649 H624 0.951 . S
C649 C647 1.388 . S
C649 C650 1.366 . S
C650 C649 1.366 . S
C650 C651 1.414 . S
C650 C653 1.499 . S
C651 H625 0.950 . S
C651 C650 1.414 . S
C651 C652 1.374 . S
C652 H626 0.950 . S
C652 C648 1.385 . S
C652 C651 1.374 . S
C653 C650 1.499 . S
C653 C654 1.373 . S
C653 C655 1.389 . S
C654 H627 0.950 . S
C654 C640 1.377 . S
C654 C653 1.373 . S
C655 C639 1.377 . S
C655 C653 1.389 . S
C655 C656 1.524 . S
C656 C655 1.524 . S
C656 C657 1.397 . S
C656 C661 1.363 . S
C657 H628 0.950 . S
C657 C656 1.397 . S
C657 C658 1.334 . S
C658 H629 0.950 . S
C658 C657 1.334 . S
C658 C659 1.287 . S
C659 C658 1.287 . S
C659 C660 1.524 . S
C659 H662 0.999 . S
C660 H630 0.950 . S
C660 C659 1.524 . S
C660 C661 1.415 . S
C661 H631 0.950 . S
C661 C656 1.363 . S
C661 C660 1.415 . S
H662 C659 0.999 . S
H663 C644 0.913 . S
H664 C682 0.951 . S
H665 C684 0.951 . S
H666 C686 0.950 . S
H667 C687 0.950 . S
H668 C689 0.950 . S
H669 C692 0.950 . S
H670 C693 0.950 . S
H671 C695 0.950 . S
H672 C696 0.950 . S
H673 C697 0.951 . S
H674 C699 0.951 . S
H675 C701 0.952 . S
H676 C702 0.950 . S
H677 C704 0.950 . S
H678 C707 0.950 . S
H679 C708 0.950 . S
H680 C710 0.950 . S
H681 C711 0.950 . S
C682 H664 0.951 . S
C682 C683 1.366 . S
C682 C684 1.388 . S
C683 C682 1.366 . S
C683 C687 1.385 . S
C684 H665 0.951 . S
C684 C682 1.388 . S
C684 C685 1.366 . S
C685 C684 1.366 . S
C685 C686 1.414 . S
C685 C688 1.499 . S
C686 H666 0.950 . S
C686 C685 1.414 . S
C686 C687 1.374 . S
C687 H667 0.950 . S
C687 C683 1.385 . S
C687 C686 1.374 . S
C688 C685 1.499 . S
C688 C689 1.373 . S
C688 C690 1.389 1_455 S
C689 H668 0.950 . S
C689 C688 1.373 . S
C689 C705 1.377 . S
C690 C688 1.389 1_655 S
C690 C691 1.524 . S
C690 C704 1.377 . S
C691 C690 1.524 . S
C691 C692 1.397 . S
C691 C696 1.363 . S
C692 H669 0.950 . S
C692 C691 1.397 . S
C692 C693 1.334 . S
C693 H670 0.950 . S
C693 C692 1.334 . S
C693 C694 1.287 . S
C694 C693 1.287 . S
C694 C695 1.524 . S
C694 H713 0.913 . S
C695 H671 0.950 . S
C695 C694 1.524 . S
C695 C696 1.415 . S
C696 H672 0.950 . S
C696 C691 1.363 . S
C696 C695 1.415 . S
C697 H673 0.951 . S
C697 C698 1.366 . S
C697 C699 1.388 . S
C698 C697 1.366 . S
C698 C702 1.385 1_455 S
C699 H674 0.951 . S
C699 C697 1.388 . S
C699 C700 1.366 . S
C700 C699 1.366 . S
C700 C701 1.414 . S
C700 C703 1.499 . S
C701 H675 0.952 . S
C701 C700 1.414 . S
C701 C702 1.374 1_455 S
C702 H676 0.950 . S
C702 C698 1.385 1_655 S
C702 C701 1.374 1_655 S
C703 C700 1.499 . S
C703 C704 1.373 1_455 S
C703 C705 1.389 . S
C704 H677 0.950 . S
C704 C690 1.377 . S
C704 C703 1.373 1_655 S
C705 C689 1.377 . S
C705 C703 1.389 . S
C705 C706 1.524 . S
C706 C705 1.524 . S
C706 C707 1.397 . S
C706 C711 1.363 . S
C707 H678 0.950 . S
C707 C706 1.397 . S
C707 C708 1.334 . S
C708 H679 0.950 . S
C708 C707 1.334 . S
C708 C709 1.287 . S
C709 C708 1.287 . S
C709 C710 1.524 . S
C709 H712 0.999 . S
C710 H680 0.950 . S
C710 C709 1.524 . S
C710 C711 1.415 . S
C711 H681 0.950 . S
C711 C706 1.363 . S
C711 C710 1.415 . S
H712 C709 0.999 . S
H713 C694 0.913 . S
H714 C732 0.951 . S
H715 C734 0.951 . S
H716 C736 0.950 . S
H717 C737 0.950 . S
H718 C739 0.950 . S
H719 C742 0.950 . S
H720 C743 0.950 . S
H721 C745 0.950 . S
H722 C746 0.950 . S
H723 C747 0.951 . S
H724 C749 0.951 . S
H725 C751 0.950 . S
H726 C752 0.950 . S
H727 C754 0.950 . S
H728 C757 0.950 . S
H729 C758 0.950 . S
H730 C760 0.950 . S
H731 C761 0.950 . S
C732 H714 0.951 . S
C732 C733 1.366 . S
C732 C734 1.388 . S
C733 C732 1.366 . S
C733 C737 1.385 . S
C734 H715 0.951 . S
C734 C732 1.388 . S
C734 C735 1.366 . S
C735 C734 1.366 . S
C735 C736 1.414 . S
C735 C738 1.499 . S
C736 H716 0.950 . S
C736 C735 1.414 . S
C736 C737 1.374 . S
C737 H717 0.950 . S
C737 C733 1.385 . S
C737 C736 1.374 . S
C738 C735 1.499 . S
C738 C739 1.373 . S
C738 C740 1.389 . S
C739 H718 0.950 . S
C739 C738 1.373 . S
C739 C755 1.377 . S
C740 C738 1.389 . S
C740 C741 1.524 . S
C740 C754 1.377 . S
C741 C740 1.524 . S
C741 C742 1.397 . S
C741 C746 1.363 . S
C742 H719 0.950 . S
C742 C741 1.397 . S
C742 C743 1.334 . S
C743 H720 0.950 . S
C743 C742 1.334 . S
C743 C744 1.287 . S
C744 C743 1.287 . S
C744 C745 1.524 . S
C744 H763 0.913 . S
C745 H721 0.950 . S
C745 C744 1.524 . S
C745 C746 1.415 . S
C746 H722 0.950 . S
C746 C741 1.363 . S
C746 C745 1.415 . S
C747 H723 0.951 . S
C747 C748 1.366 . S
C747 C749 1.388 . S
C748 C747 1.366 . S
C748 C752 1.385 . S
C749 H724 0.951 . S
C749 C747 1.388 . S
C749 C750 1.366 . S
C750 C749 1.366 . S
C750 C751 1.414 . S
C750 C753 1.499 . S
C751 H725 0.950 . S
C751 C750 1.414 . S
C751 C752 1.374 . S
C752 H726 0.950 . S
C752 C748 1.385 . S
C752 C751 1.374 . S
C753 C750 1.499 . S
C753 C754 1.373 . S
C753 C755 1.389 . S
C754 H727 0.950 . S
C754 C740 1.377 . S
C754 C753 1.373 . S
C755 C739 1.377 . S
C755 C753 1.389 . S
C755 C756 1.524 . S
C756 C755 1.524 . S
C756 C757 1.397 . S
C756 C761 1.363 . S
C757 H728 0.950 . S
C757 C756 1.397 . S
C757 C758 1.334 . S
C758 H729 0.950 . S
C758 C757 1.334 . S
C758 C759 1.287 . S
C759 C758 1.287 . S
C759 C760 1.524 . S
C759 H762 0.999 . S
C760 H730 0.950 . S
C760 C759 1.524 . S
C760 C761 1.415 . S
C761 H731 0.950 . S
C761 C756 1.363 . S
C761 C760 1.415 . S
H762 C759 0.999 . S
H763 C744 0.913 . S
H764 C782 0.951 . S
H765 C784 0.951 . S
H766 C786 0.950 . S
H767 C787 0.950 . S
H768 C789 0.950 . S
H769 C792 0.950 . S
H770 C793 0.950 . S
H771 C795 0.950 . S
H772 C796 0.950 . S
H773 C797 0.951 . S
H774 C799 0.951 . S
H775 C801 0.950 . S
H776 C802 0.950 . S
H777 C804 0.950 . S
H778 C807 0.950 1_455 S
H779 C808 0.950 . S
H780 C810 0.950 . S
H781 C811 0.950 . S
C782 H764 0.951 . S
C782 C783 1.366 . S
C782 C784 1.388 . S
C783 C782 1.366 . S
C783 C787 1.385 1_455 S
C784 H765 0.951 . S
C784 C782 1.388 . S
C784 C785 1.366 . S
C785 C784 1.366 . S
C785 C786 1.414 1_455 S
C785 C788 1.499 . S
C786 H766 0.950 . S
C786 C785 1.414 1_655 S
C786 C787 1.374 . S
C787 H767 0.950 . S
C787 C783 1.385 1_655 S
C787 C786 1.374 . S
C788 C785 1.499 . S
C788 C789 1.373 1_455 S
C788 C790 1.389 . S
C789 H768 0.950 . S
C789 C788 1.373 1_655 S
C789 C805 1.377 . S
C790 C788 1.389 . S
C790 C791 1.524 . S
C790 C804 1.377 . S
C791 C790 1.524 . S
C791 C792 1.397 . S
C791 C796 1.363 . S
C792 H769 0.950 . S
C792 C791 1.397 . S
C792 C793 1.334 . S
C793 H770 0.950 . S
C793 C792 1.334 . S
C793 C794 1.287 . S
C794 C793 1.287 . S
C794 C795 1.524 . S
C794 H813 0.913 . S
C795 H771 0.950 . S
C795 C794 1.524 . S
C795 C796 1.415 . S
C796 H772 0.950 . S
C796 C791 1.363 . S
C796 C795 1.415 . S
C797 H773 0.951 . S
C797 C798 1.366 1_655 S
C797 C799 1.388 . S
C798 C797 1.366 1_455 S
C798 C802 1.385 . S
C799 H774 0.951 . S
C799 C797 1.388 . S
C799 C800 1.366 1_655 S
C800 C799 1.366 1_455 S
C800 C801 1.414 . S
C800 C803 1.499 . S
C801 H775 0.950 . S
C801 C800 1.414 . S
C801 C802 1.374 . S
C802 H776 0.950 . S
C802 C798 1.385 . S
C802 C801 1.374 . S
C803 C800 1.499 . S
C803 C804 1.373 . S
C803 C805 1.389 1_455 S
C804 H777 0.950 . S
C804 C790 1.377 . S
C804 C803 1.373 . S
C805 C789 1.377 . S
C805 C803 1.389 1_655 S
C805 C806 1.524 . S
C806 C805 1.524 . S
C806 C807 1.397 . S
C806 C811 1.363 . S
C807 H778 0.950 1_655 S
C807 C806 1.397 . S
C807 C808 1.334 . S
C808 H779 0.950 . S
C808 C807 1.334 . S
C808 C809 1.287 . S
C809 C808 1.287 . S
C809 C810 1.524 . S
C809 H812 0.999 . S
C810 H780 0.950 . S
C810 C809 1.524 . S
C810 C811 1.415 . S
C811 H781 0.950 . S
C811 C806 1.363 . S
C811 C810 1.415 . S
H812 C809 0.999 . S
H813 C794 0.913 . S
H814 C832 0.951 . S
H815 C834 0.951 . S
H816 C836 0.950 . S
H817 C837 0.950 . S
H818 C839 0.950 . S
H819 C842 0.950 . S
H820 C843 0.950 . S
H821 C845 0.950 . S
H822 C846 0.950 . S
H823 C847 0.951 . S
H824 C849 0.951 . S
H825 C851 0.950 . S
H826 C852 0.950 . S
H827 C854 0.950 . S
H828 C857 0.950 . S
H829 C858 0.950 . S
H830 C860 0.950 . S
H831 C861 0.950 . S
C832 H814 0.951 . S
C832 C833 1.366 . S
C832 C834 1.388 . S
C833 C832 1.366 . S
C833 C837 1.385 . S
C834 H815 0.951 . S
C834 C832 1.388 . S
C834 C835 1.366 . S
C835 C834 1.366 . S
C835 C836 1.414 . S
C835 C838 1.499 . S
C836 H816 0.950 . S
C836 C835 1.414 . S
C836 C837 1.374 . S
C837 H817 0.950 . S
C837 C833 1.385 . S
C837 C836 1.374 . S
C838 C835 1.499 . S
C838 C839 1.373 . S
C838 C840 1.389 . S
C839 H818 0.950 . S
C839 C838 1.373 . S
C839 C855 1.377 . S
C840 C838 1.389 . S
C840 C841 1.524 . S
C840 C854 1.377 . S
C841 C840 1.524 . S
C841 C842 1.397 . S
C841 C846 1.363 . S
C842 H819 0.950 . S
C842 C841 1.397 . S
C842 C843 1.334 . S
C843 H820 0.950 . S
C843 C842 1.334 . S
C843 C844 1.287 . S
C844 C843 1.287 . S
C844 C845 1.524 . S
C844 H863 0.913 . S
C845 H821 0.950 . S
C845 C844 1.524 . S
C845 C846 1.415 . S
C846 H822 0.950 . S
C846 C841 1.363 . S
C846 C845 1.415 . S
C847 H823 0.951 . S
C847 C848 1.366 . S
C847 C849 1.388 . S
C848 C847 1.366 . S
C848 C852 1.385 . S
C849 H824 0.951 . S
C849 C847 1.388 . S
C849 C850 1.366 . S
C850 C849 1.366 . S
C850 C851 1.414 . S
C850 C853 1.499 . S
C851 H825 0.950 . S
C851 C850 1.414 . S
C851 C852 1.374 . S
C852 H826 0.950 . S
C852 C848 1.385 . S
C852 C851 1.374 . S
C853 C850 1.499 . S
C853 C854 1.373 . S
C853 C855 1.389 . S
C854 H827 0.950 . S
C854 C840 1.377 . S
C854 C853 1.373 . S
C855 C839 1.377 . S
C855 C853 1.389 . S
C855 C856 1.524 . S
C856 C855 1.524 . S
C856 C857 1.397 . S
C856 C861 1.363 . S
C857 H828 0.950 . S
C857 C856 1.397 . S
C857 C858 1.334 . S
C858 H829 0.950 . S
C858 C857 1.334 . S
C858 C859 1.287 . S
C859 C858 1.287 . S
C859 C860 1.524 . S
C859 H862 0.999 . S
C860 H830 0.950 . S
C860 C859 1.524 . S
C860 C861 1.415 . S
C861 H831 0.950 . S
C861 C856 1.363 . S
C861 C860 1.415 . S
H862 C859 0.999 . S
H863 C844 0.913 . S
H864 C882 0.951 . S
H865 C884 0.951 . S
H866 C886 0.950 . S
H867 C887 0.950 . S
H868 C889 0.950 . S
H869 C892 0.950 . S
H870 C893 0.950 . S
H871 C895 0.950 . S
H872 C896 0.950 . S
H873 C897 0.951 . S
H874 C899 0.951 . S
H875 C901 0.950 . S
H876 C902 0.950 . S
H877 C904 0.950 . S
H878 C907 0.950 . S
H879 C908 0.950 . S
H880 C910 0.950 . S
H881 C911 0.950 . S
C882 H864 0.951 . S
C882 C883 1.366 . S
C882 C884 1.388 . S
C883 C882 1.366 . S
C883 C887 1.385 . S
C884 H865 0.951 . S
C884 C882 1.388 . S
C884 C885 1.366 . S
C885 C884 1.366 . S
C885 C886 1.414 . S
C885 C888 1.499 . S
C886 H866 0.950 . S
C886 C885 1.414 . S
C886 C887 1.374 . S
C887 H867 0.950 . S
C887 C883 1.385 . S
C887 C886 1.374 . S
C888 C885 1.499 . S
C888 C889 1.373 . S
C888 C890 1.389 1_565 S
C889 H868 0.950 . S
C889 C888 1.373 . S
C889 C905 1.377 1_565 S
C890 C888 1.389 1_545 S
C890 C891 1.524 . S
C890 C904 1.377 . S
C891 C890 1.524 . S
C891 C892 1.397 1_545 S
C891 C896 1.363 . S
C892 H869 0.950 . S
C892 C891 1.397 1_565 S
C892 C893 1.334 . S
C893 H870 0.950 . S
C893 C892 1.334 . S
C893 C894 1.287 1_565 S
C894 C893 1.287 1_545 S
C894 C895 1.524 . S
C894 H913 0.913 . S
C895 H871 0.950 . S
C895 C894 1.524 . S
C895 C896 1.415 . S
C896 H872 0.950 . S
C896 C891 1.363 . S
C896 C895 1.415 . S
C897 H873 0.951 . S
C897 C898 1.366 . S
C897 C899 1.388 . S
C898 C897 1.366 . S
C898 C902 1.385 . S
C899 H874 0.951 . S
C899 C897 1.388 . S
C899 C900 1.366 . S
C900 C899 1.366 . S
C900 C901 1.414 . S
C900 C903 1.499 . S
C901 H875 0.950 . S
C901 C900 1.414 . S
C901 C902 1.374 . S
C902 H876 0.950 . S
C902 C898 1.385 . S
C902 C901 1.374 . S
C903 C900 1.499 . S
C903 C904 1.373 . S
C903 C905 1.389 . S
C904 H877 0.950 . S
C904 C890 1.377 . S
C904 C903 1.373 . S
C905 C889 1.377 1_545 S
C905 C903 1.389 . S
C905 C906 1.524 1_545 S
C906 C905 1.524 1_565 S
C906 C907 1.397 1_565 S
C906 C911 1.363 . S
C907 H878 0.950 . S
C907 C906 1.397 1_545 S
C907 C908 1.334 . S
C908 H879 0.950 . S
C908 C907 1.334 . S
C908 C909 1.287 1_545 S
C909 C908 1.287 1_565 S
C909 C910 1.524 . S
C909 H912 0.999 . S
C910 H880 0.950 . S
C910 C909 1.524 . S
C910 C911 1.415 . S
C911 H881 0.950 . S
C911 C906 1.363 . S
C911 C910 1.415 . S
H912 C909 0.999 . S
H913 C894 0.913 . S
H914 C932 0.951 . S
H915 C934 0.951 . S
H916 C936 0.950 . S
H917 C937 0.950 . S
H918 C939 0.950 . S
H919 C942 0.950 . S
H920 C943 0.950 . S
H921 C945 0.950 . S
H922 C946 0.950 . S
H923 C947 0.951 . S
H924 C949 0.951 . S
H925 C951 0.950 . S
H926 C952 0.950 . S
H927 C954 0.950 . S
H928 C957 0.950 . S
H929 C958 0.950 . S
H930 C960 0.950 . S
H931 C961 0.950 . S
C932 H914 0.951 . S
C932 C933 1.366 . S
C932 C934 1.388 . S
C933 C932 1.366 . S
C933 C937 1.385 . S
C934 H915 0.951 . S
C934 C932 1.388 . S
C934 C935 1.366 . S
C935 C934 1.366 . S
C935 C936 1.414 . S
C935 C938 1.499 . S
C936 H916 0.950 . S
C936 C935 1.414 . S
C936 C937 1.374 . S
C937 H917 0.950 . S
C937 C933 1.385 . S
C937 C936 1.374 . S
C938 C935 1.499 . S
C938 C939 1.373 . S
C938 C940 1.389 1_455 S
C939 H918 0.950 . S
C939 C938 1.373 . S
C939 C955 1.377 . S
C940 C938 1.389 1_655 S
C940 C941 1.524 . S
C940 C954 1.377 1_565 S
C941 C940 1.524 . S
C941 C942 1.397 . S
C941 C946 1.363 1_565 S
C942 H919 0.950 . S
C942 C941 1.397 . S
C942 C943 1.334 . S
C943 H920 0.950 . S
C943 C942 1.334 . S
C943 C944 1.287 . S
C944 C943 1.287 . S
C944 C945 1.524 1_565 S
C944 H963 0.913 . S
C945 H921 0.950 . S
C945 C944 1.524 1_545 S
C945 C946 1.415 . S
C946 H922 0.950 . S
C946 C941 1.363 1_545 S
C946 C945 1.415 . S
C947 H923 0.951 . S
C947 C948 1.366 . S
C947 C949 1.388 . S
C948 C947 1.366 . S
C948 C952 1.385 . S
C949 H924 0.951 . S
C949 C947 1.388 . S
C949 C950 1.366 . S
C950 C949 1.366 . S
C950 C951 1.414 . S
C950 C953 1.499 . S
C951 H925 0.950 . S
C951 C950 1.414 . S
C951 C952 1.374 . S
C952 H926 0.950 . S
C952 C948 1.385 . S
C952 C951 1.374 . S
C953 C950 1.499 . S
C953 C954 1.373 1_455 S
C953 C955 1.389 1_545 S
C954 H927 0.950 . S
C954 C940 1.377 1_545 S
C954 C953 1.373 1_655 S
C955 C939 1.377 . S
C955 C953 1.389 1_565 S
C955 C956 1.524 . S
C956 C955 1.524 . S
C956 C957 1.397 1_565 S
C956 C961 1.363 . S
C957 H928 0.950 . S
C957 C956 1.397 1_545 S
C957 C958 1.334 . S
C958 H929 0.950 . S
C958 C957 1.334 . S
C958 C959 1.287 . S
C959 C958 1.287 . S
C959 C960 1.524 1_545 S
C959 H962 0.999 . S
C960 H930 0.950 . S
C960 C959 1.524 1_565 S
C960 C961 1.415 . S
C961 H931 0.950 . S
C961 C956 1.363 . S
C961 C960 1.415 . S
H962 C959 0.999 . S
H963 C944 0.913 . S
H964 C982 0.951 . S
H965 C984 0.951 . S
H966 C986 0.950 . S
H967 C987 0.950 . S
H968 C989 0.950 . S
H969 C992 0.950 . S
H970 C993 0.950 . S
H971 C995 0.950 . S
H972 C996 0.950 . S
H973 C997 0.951 . S
H974 C999 0.951 . S
H975 C1001 0.950 . S
H976 C1002 0.950 . S
H977 C1004 0.950 . S
H978 C1007 0.950 . S
H979 C1008 0.950 . S
H980 C1010 0.950 . S
H981 C1011 0.950 . S
C982 H964 0.951 . S
C982 C983 1.366 . S
C982 C984 1.388 . S
C983 C982 1.366 . S
C983 C987 1.385 . S
C984 H965 0.951 . S
C984 C982 1.388 . S
C984 C985 1.366 . S
C985 C984 1.366 . S
C985 C986 1.414 . S
C985 C988 1.499 . S
C986 H966 0.950 . S
C986 C985 1.414 . S
C986 C987 1.374 . S
C987 H967 0.950 . S
C987 C983 1.385 . S
C987 C986 1.374 . S
C988 C985 1.499 . S
C988 C989 1.373 . S
C988 C990 1.389 . S
C989 H968 0.950 . S
C989 C988 1.373 . S
C989 C1005 1.377 . S
C990 C988 1.389 . S
C990 C991 1.524 . S
C990 C1004 1.377 1_565 S
C991 C990 1.524 . S
C991 C992 1.397 . S
C991 C996 1.363 . S
C992 H969 0.950 . S
C992 C991 1.397 . S
C992 C993 1.334 . S
C993 H970 0.950 . S
C993 C992 1.334 . S
C993 C994 1.288 . S
C994 C993 1.288 . S
C994 C995 1.526 . S
C994 H1013 0.913 1_565 S
C995 H971 0.950 . S
C995 C994 1.526 . S
C995 C996 1.415 . S
C996 H972 0.950 . S
C996 C991 1.363 . S
C996 C995 1.415 . S
C997 H973 0.951 . S
C997 C998 1.366 . S
C997 C999 1.388 . S
C998 C997 1.366 . S
C998 C1002 1.385 . S
C999 H974 0.951 . S
C999 C997 1.388 . S
C999 C1000 1.366 . S
C1000 C999 1.366 . S
C1000 C1001 1.414 . S
C1000 C1003 1.499 . S
C1001 H975 0.950 . S
C1001 C1000 1.414 . S
C1001 C1002 1.374 . S
C1002 H976 0.950 . S
C1002 C998 1.385 . S
C1002 C1001 1.374 . S
C1003 C1000 1.499 . S
C1003 C1004 1.373 . S
C1003 C1005 1.389 1_545 S
C1004 H977 0.950 . S
C1004 C990 1.377 1_545 S
C1004 C1003 1.373 . S
C1005 C989 1.377 . S
C1005 C1003 1.389 1_565 S
C1005 C1006 1.524 . S
C1006 C1005 1.524 . S
C1006 C1007 1.397 . S
C1006 C1011 1.363 . S
C1007 H978 0.950 . S
C1007 C1006 1.397 . S
C1007 C1008 1.334 . S
C1008 H979 0.950 . S
C1008 C1007 1.334 . S
C1008 C1009 1.287 . S
C1009 C1008 1.287 . S
C1009 C1010 1.524 . S
C1009 H1012 0.999 . S
C1010 H980 0.950 . S
C1010 C1009 1.524 . S
C1010 C1011 1.415 . S
C1011 H981 0.950 . S
C1011 C1006 1.363 . S
C1011 C1010 1.415 . S
H1012 C1009 0.999 . S
H1013 C994 0.913 1_545 S
H1014 C1032 0.951 . S
H1015 C1034 0.951 . S
H1016 C1036 0.950 . S
H1017 C1037 0.950 . S
H1018 C1039 0.950 . S
H1019 C1042 0.950 1_455 S
H1020 C1043 0.950 . S
H1021 C1045 0.950 . S
H1022 C1046 0.950 . S
H1023 C1047 0.951 . S
H1024 C1049 0.951 . S
H1025 C1051 0.950 . S
H1026 C1052 0.950 . S
H1027 C1054 0.950 . S
H1028 C1057 0.950 . S
H1029 C1058 0.950 . S
H1030 C1060 0.950 . S
H1031 C1061 0.950 . S
C1032 H1014 0.951 . S
C1032 C1033 1.366 1_655 S
C1032 C1034 1.388 . S
C1033 C1032 1.366 1_455 S
C1033 C1037 1.385 . S
C1034 H1015 0.951 . S
C1034 C1032 1.388 . S
C1034 C1035 1.366 1_655 S
C1035 C1034 1.366 1_455 S
C1035 C1036 1.414 . S
C1035 C1038 1.499 . S
C1036 H1016 0.950 . S
C1036 C1035 1.414 . S
C1036 C1037 1.374 . S
C1037 H1017 0.950 . S
C1037 C1033 1.385 . S
C1037 C1036 1.374 . S
C1038 C1035 1.499 . S
C1038 C1039 1.373 . S
C1038 C1040 1.389 1_455 S
C1039 H1018 0.950 . S
C1039 C1038 1.373 . S
C1039 C1055 1.377 1_545 S
C1040 C1038 1.389 1_655 S
C1040 C1041 1.524 . S
C1040 C1054 1.377 . S
C1041 C1040 1.524 . S
C1041 C1042 1.397 . S
C1041 C1046 1.363 . S
C1042 H1019 0.950 1_655 S
C1042 C1041 1.397 . S
C1042 C1043 1.334 . S
C1043 H1020 0.950 . S
C1043 C1042 1.334 . S
C1043 C1044 1.287 . S
C1044 C1043 1.287 . S
C1044 C1045 1.524 . S
C1044 H1063 0.913 . S
C1045 H1021 0.950 . S
C1045 C1044 1.524 . S
C1045 C1046 1.415 . S
C1046 H1022 0.950 . S
C1046 C1041 1.363 . S
C1046 C1045 1.415 . S
C1047 H1023 0.951 . S
C1047 C1048 1.366 . S
C1047 C1049 1.388 . S
C1048 C1047 1.366 . S
C1048 C1052 1.385 1_455 S
C1049 H1024 0.951 . S
C1049 C1047 1.388 . S
C1049 C1050 1.366 . S
C1050 C1049 1.366 . S
C1050 C1051 1.414 1_455 S
C1050 C1053 1.499 . S
C1051 H1025 0.950 . S
C1051 C1050 1.414 1_655 S
C1051 C1052 1.374 . S
C1052 H1026 0.950 . S
C1052 C1048 1.385 1_655 S
C1052 C1051 1.374 . S
C1053 C1050 1.499 . S
C1053 C1054 1.373 1_465 S
C1053 C1055 1.389 . S
C1054 H1027 0.950 . S
C1054 C1040 1.377 . S
C1054 C1053 1.373 1_645 S
C1055 C1039 1.377 1_565 S
C1055 C1053 1.389 . S
C1055 C1056 1.524 . S
C1056 C1055 1.524 . S
C1056 C1057 1.397 . S
C1056 C1061 1.363 . S
C1057 H1028 0.950 . S
C1057 C1056 1.397 . S
C1057 C1058 1.334 . S
C1058 H1029 0.950 . S
C1058 C1057 1.334 . S
C1058 C1059 1.287 . S
C1059 C1058 1.287 . S
C1059 C1060 1.524 . S
C1059 H1062 0.999 . S
C1060 H1030 0.950 . S
C1060 C1059 1.524 . S
C1060 C1061 1.415 . S
C1061 H1031 0.950 . S
C1061 C1056 1.363 . S
C1061 C1060 1.415 . S
H1062 C1059 0.999 . S
H1063 C1044 0.913 . S
H1064 C1082 0.951 . S
H1065 C1084 0.951 . S
H1066 C1086 0.950 . S
H1067 C1087 0.950 . S
H1068 C1089 0.950 . S
H1069 C1092 0.950 . S
H1070 C1093 0.950 . S
H1071 C1095 0.950 . S
H1072 C1096 0.950 . S
H1073 C1097 0.951 . S
H1074 C1099 0.951 . S
H1075 C1101 0.950 . S
H1076 C1102 0.950 . S
H1077 C1104 0.950 . S
H1078 C1107 0.950 . S
H1079 C1108 0.950 . S
H1080 C1110 0.950 . S
H1081 C1111 0.950 . S
C1082 H1064 0.951 . S
C1082 C1083 1.366 . S
C1082 C1084 1.388 . S
C1083 C1082 1.366 . S
C1083 C1087 1.385 . S
C1084 H1065 0.951 . S
C1084 C1082 1.388 . S
C1084 C1085 1.366 . S
C1085 C1084 1.366 . S
C1085 C1086 1.414 . S
C1085 C1088 1.499 . S
C1086 H1066 0.950 . S
C1086 C1085 1.414 . S
C1086 C1087 1.374 . S
C1087 H1067 0.950 . S
C1087 C1083 1.385 . S
C1087 C1086 1.374 . S
C1088 C1085 1.499 . S
C1088 C1089 1.388 . S
C1088 C1090 1.389 . S
C1089 H1068 0.950 . S
C1089 C1088 1.388 . S
C1089 C1105 1.362 1_556 S
C1090 C1088 1.389 . S
C1090 C1091 1.524 1_455 S
C1090 C1104 1.362 1_556 S
C1091 C1090 1.524 1_655 S
C1091 C1092 1.397 . S
C1091 C1096 1.363 . S
C1092 H1069 0.950 . S
C1092 C1091 1.397 . S
C1092 C1093 1.334 . S
C1093 H1070 0.950 . S
C1093 C1092 1.334 . S
C1093 C1094 1.287 . S
C1094 C1093 1.287 . S
C1094 C1095 1.524 . S
C1094 H1113 0.913 . S
C1095 H1071 0.950 . S
C1095 C1094 1.524 . S
C1095 C1096 1.415 . S
C1096 H1072 0.950 . S
C1096 C1091 1.363 . S
C1096 C1095 1.415 . S
C1097 H1073 0.951 . S
C1097 C1098 1.366 . S
C1097 C1099 1.388 . S
C1098 C1097 1.366 . S
C1098 C1102 1.385 . S
C1099 H1074 0.951 . S
C1099 C1097 1.388 . S
C1099 C1100 1.366 . S
C1100 C1099 1.366 . S
C1100 C1101 1.414 . S
C1100 C1103 1.499 . S
C1101 H1075 0.950 . S
C1101 C1100 1.414 . S
C1101 C1102 1.374 . S
C1102 H1076 0.950 . S
C1102 C1098 1.385 . S
C1102 C1101 1.374 . S
C1103 C1100 1.499 . S
C1103 C1104 1.388 . S
C1103 C1105 1.389 . S
C1104 H1077 0.950 . S
C1104 C1090 1.362 1_554 S
C1104 C1103 1.388 . S
C1105 C1089 1.362 1_554 S
C1105 C1103 1.389 . S
C1105 C1106 1.524 . S
C1106 C1105 1.524 . S
C1106 C1107 1.397 . S
C1106 C1111 1.363 . S
C1107 H1078 0.950 . S
C1107 C1106 1.397 . S
C1107 C1108 1.334 . S
C1108 H1079 0.950 . S
C1108 C1107 1.334 . S
C1108 C1109 1.287 . S
C1109 C1108 1.287 . S
C1109 C1110 1.524 . S
C1109 H1112 0.999 . S
C1110 H1080 0.950 . S
C1110 C1109 1.524 . S
C1110 C1111 1.415 . S
C1111 H1081 0.950 . S
C1111 C1106 1.363 . S
C1111 C1110 1.415 . S
H1112 C1109 0.999 . S
H1113 C1094 0.913 . S
H1114 C1132 0.951 . S
H1115 C1134 0.951 . S
H1116 C1136 0.950 . S
H1117 C1137 0.950 . S
H1118 C1139 0.950 . S
H1119 C1142 0.950 . S
H1120 C1143 0.950 . S
H1121 C1145 0.950 . S
H1122 C1146 0.950 . S
H1123 C1147 0.951 . S
H1124 C1149 0.951 . S
H1125 C1151 0.950 . S
H1126 C1152 0.950 . S
H1127 C1154 0.950 . S
H1128 C1157 0.950 . S
H1129 C1158 0.950 . S
H1130 C1160 0.950 . S
H1131 C1161 0.950 . S
C1132 H1114 0.951 . S
C1132 C1133 1.366 . S
C1132 C1134 1.388 . S
C1133 C1132 1.366 . S
C1133 C1137 1.385 . S
C1134 H1115 0.951 . S
C1134 C1132 1.388 . S
C1134 C1135 1.366 . S
C1135 C1134 1.366 . S
C1135 C1136 1.414 . S
C1135 C1138 1.499 . S
C1136 H1116 0.950 . S
C1136 C1135 1.414 . S
C1136 C1137 1.374 . S
C1137 H1117 0.950 . S
C1137 C1133 1.385 . S
C1137 C1136 1.374 . S
C1138 C1135 1.499 . S
C1138 C1139 1.373 . S
C1138 C1140 1.389 . S
C1139 H1118 0.950 . S
C1139 C1138 1.373 . S
C1139 C1155 1.377 . S
C1140 C1138 1.389 . S
C1140 C1141 1.524 . S
C1140 C1154 1.377 . S
C1141 C1140 1.524 . S
C1141 C1142 1.397 . S
C1141 C1146 1.363 . S
C1142 H1119 0.950 . S
C1142 C1141 1.397 . S
C1142 C1143 1.334 . S
C1143 H1120 0.950 . S
C1143 C1142 1.334 . S
C1143 C1144 1.287 . S
C1144 C1143 1.287 . S
C1144 C1145 1.524 . S
C1144 H1163 0.913 . S
C1145 H1121 0.950 . S
C1145 C1144 1.524 . S
C1145 C1146 1.415 . S
C1146 H1122 0.950 . S
C1146 C1141 1.363 . S
C1146 C1145 1.415 . S
C1147 H1123 0.951 . S
C1147 C1148 1.366 . S
C1147 C1149 1.388 . S
C1148 C1147 1.366 . S
C1148 C1152 1.385 . S
C1149 H1124 0.951 . S
C1149 C1147 1.388 . S
C1149 C1150 1.366 . S
C1150 C1149 1.366 . S
C1150 C1151 1.414 . S
C1150 C1153 1.499 . S
C1151 H1125 0.950 . S
C1151 C1150 1.414 . S
C1151 C1152 1.374 . S
C1152 H1126 0.950 . S
C1152 C1148 1.385 . S
C1152 C1151 1.374 . S
C1153 C1150 1.499 . S
C1153 C1154 1.373 . S
C1153 C1155 1.389 . S
C1154 H1127 0.950 . S
C1154 C1140 1.377 . S
C1154 C1153 1.373 . S
C1155 C1139 1.377 . S
C1155 C1153 1.389 . S
C1155 C1156 1.524 . S
C1156 C1155 1.524 . S
C1156 C1157 1.397 . S
C1156 C1161 1.363 . S
C1157 H1128 0.950 . S
C1157 C1156 1.397 . S
C1157 C1158 1.334 . S
C1158 H1129 0.950 . S
C1158 C1157 1.334 . S
C1158 C1159 1.287 . S
C1159 C1158 1.287 . S
C1159 C1160 1.524 . S
C1159 H1162 0.999 . S
C1160 H1130 0.950 . S
C1160 C1159 1.524 . S
C1160 C1161 1.415 . S
C1161 H1131 0.950 . S
C1161 C1156 1.363 . S
C1161 C1160 1.415 . S
H1162 C1159 0.999 . S
H1163 C1144 0.913 . S
H1164 C1182 0.951 . S
H1165 C1184 0.951 . S
H1166 C1186 0.950 . S
H1167 C1187 0.950 . S
H1168 C1189 0.950 . S
H1169 C1192 0.950 1_545 S
H1170 C1193 0.950 . S
H1171 C1195 0.950 . S
H1172 C1196 0.950 . S
H1173 C1197 0.951 . S
H1174 C1199 0.951 . S
H1175 C1201 0.950 . S
H1176 C1202 0.950 . S
H1177 C1204 0.950 . S
H1178 C1207 0.950 1_565 S
H1179 C1208 0.950 . S
H1180 C1210 0.950 . S
H1181 C1211 0.950 . S
C1182 H1164 0.951 . S
C1182 C1183 1.366 . S
C1182 C1184 1.388 . S
C1183 C1182 1.366 . S
C1183 C1187 1.385 . S
C1184 H1165 0.951 . S
C1184 C1182 1.388 . S
C1184 C1185 1.366 . S
C1185 C1184 1.366 . S
C1185 C1186 1.414 . S
C1185 C1188 1.499 . S
C1186 H1166 0.950 . S
C1186 C1185 1.414 . S
C1186 C1187 1.374 . S
C1187 H1167 0.950 . S
C1187 C1183 1.385 . S
C1187 C1186 1.374 . S
C1188 C1185 1.499 . S
C1188 C1189 1.373 1_556 S
C1188 C1190 1.389 1_545 S
C1189 H1168 0.950 . S
C1189 C1188 1.373 1_554 S
C1189 C1205 1.377 . S
C1190 C1188 1.389 1_565 S
C1190 C1191 1.524 . S
C1190 C1204 1.377 . S
C1191 C1190 1.524 . S
C1191 C1192 1.397 . S
C1191 C1196 1.363 . S
C1192 H1169 0.950 1_565 S
C1192 C1191 1.397 . S
C1192 C1193 1.334 . S
C1193 H1170 0.950 . S
C1193 C1192 1.334 . S
C1193 C1194 1.287 . S
C1194 C1193 1.287 . S
C1194 C1195 1.524 . S
C1194 H1213 0.913 . S
C1195 H1171 0.950 . S
C1195 C1194 1.524 . S
C1195 C1196 1.415 . S
C1196 H1172 0.950 . S
C1196 C1191 1.363 . S
C1196 C1195 1.415 . S
C1197 H1173 0.951 . S
C1197 C1198 1.366 . S
C1197 C1199 1.388 . S
C1198 C1197 1.366 . S
C1198 C1202 1.385 . S
C1199 H1174 0.951 . S
C1199 C1197 1.388 . S
C1199 C1200 1.366 . S
C1200 C1199 1.366 . S
C1200 C1201 1.414 . S
C1200 C1203 1.499 . S
C1201 H1175 0.950 . S
C1201 C1200 1.414 . S
C1201 C1202 1.374 . S
C1202 H1176 0.950 . S
C1202 C1198 1.385 . S
C1202 C1201 1.374 . S
C1203 C1200 1.499 . S
C1203 C1204 1.373 1_554 S
C1203 C1205 1.389 1_565 S
C1204 H1177 0.950 . S
C1204 C1190 1.377 . S
C1204 C1203 1.373 1_556 S
C1205 C1189 1.377 . S
C1205 C1203 1.389 1_545 S
C1205 C1206 1.524 . S
C1206 C1205 1.524 . S
C1206 C1207 1.397 . S
C1206 C1211 1.363 . S
C1207 H1178 0.950 1_545 S
C1207 C1206 1.397 . S
C1207 C1208 1.334 . S
C1208 H1179 0.950 . S
C1208 C1207 1.334 . S
C1208 C1209 1.287 . S
C1209 C1208 1.287 . S
C1209 C1210 1.524 . S
C1209 H1212 0.999 . S
C1210 H1180 0.950 . S
C1210 C1209 1.524 . S
C1210 C1211 1.415 . S
C1211 H1181 0.950 . S
C1211 C1206 1.363 . S
C1211 C1210 1.415 . S
H1212 C1209 0.999 . S
H1213 C1194 0.913 . S
H1214 C1232 0.951 . S
H1215 C1234 0.951 . S
H1216 C1236 0.950 . S
H1217 C1237 0.950 . S
H1218 C1239 0.950 . S
H1219 C1242 0.950 . S
H1220 C1243 0.950 . S
H1221 C1245 0.950 . S
H1222 C1246 0.950 . S
H1223 C1247 0.951 . S
H1224 C1249 0.951 . S
H1225 C1251 0.950 . S
H1226 C1252 0.950 . S
H1227 C1254 0.963 . S
H1228 C1257 0.950 . S
H1229 C1258 0.950 . S
H1230 C1260 0.950 . S
H1231 C1261 0.950 . S
C1232 H1214 0.951 . S
C1232 C1233 1.366 . S
C1232 C1234 1.388 . S
C1233 C1232 1.366 . S
C1233 C1237 1.385 . S
C1234 H1215 0.951 . S
C1234 C1232 1.388 . S
C1234 C1235 1.366 . S
C1235 C1234 1.366 . S
C1235 C1236 1.414 . S
C1235 C1238 1.499 . S
C1236 H1216 0.950 . S
C1236 C1235 1.414 . S
C1236 C1237 1.374 . S
C1237 H1217 0.950 . S
C1237 C1233 1.385 . S
C1237 C1236 1.374 . S
C1238 C1235 1.499 . S
C1238 C1239 1.373 . S
C1238 C1240 1.389 1_665 S
C1239 H1218 0.950 . S
C1239 C1238 1.373 . S
C1239 C1255 1.377 . S
C1240 C1238 1.389 1_445 S
C1240 C1241 1.524 . S
C1240 C1254 1.379 . S
C1241 C1240 1.524 . S
C1241 C1242 1.397 1_545 S
C1241 C1246 1.363 . S
C1242 H1219 0.950 . S
C1242 C1241 1.397 1_565 S
C1242 C1243 1.334 . S
C1243 H1220 0.950 . S
C1243 C1242 1.334 . S
C1243 C1244 1.287 1_565 S
C1244 C1243 1.287 1_545 S
C1244 C1245 1.524 . S
C1244 H1263 0.913 . S
C1245 H1221 0.950 . S
C1245 C1244 1.524 . S
C1245 C1246 1.415 . S
C1246 H1222 0.950 . S
C1246 C1241 1.363 . S
C1246 C1245 1.415 . S
C1247 H1223 0.951 . S
C1247 C1248 1.366 . S
C1247 C1249 1.388 . S
C1248 C1247 1.366 . S
C1248 C1252 1.385 . S
C1249 H1224 0.951 . S
C1249 C1247 1.388 . S
C1249 C1250 1.366 . S
C1250 C1249 1.366 . S
C1250 C1251 1.414 . S
C1250 C1253 1.499 . S
C1251 H1225 0.950 . S
C1251 C1250 1.414 . S
C1251 C1252 1.374 . S
C1252 H1226 0.950 . S
C1252 C1248 1.385 . S
C1252 C1251 1.374 . S
C1253 C1250 1.499 . S
C1253 C1254 1.359 1_655 S
C1253 C1255 1.389 1_545 S
C1254 H1227 0.963 . S
C1254 C1240 1.379 . S
C1254 C1253 1.359 1_455 S
C1255 C1239 1.377 . S
C1255 C1253 1.389 1_565 S
C1255 C1256 1.524 . S
C1256 C1255 1.524 . S
C1256 C1257 1.397 1_565 S
C1256 C1261 1.363 . S
C1257 H1228 0.950 . S
C1257 C1256 1.397 1_545 S
C1257 C1258 1.334 . S
C1258 H1229 0.950 . S
C1258 C1257 1.334 . S
C1258 C1259 1.287 1_545 S
C1259 C1258 1.287 1_565 S
C1259 C1260 1.524 . S
C1259 H1262 0.999 . S
C1260 H1230 0.950 . S
C1260 C1259 1.524 . S
C1260 C1261 1.415 . S
C1261 H1231 0.950 . S
C1261 C1256 1.363 . S
C1261 C1260 1.415 . S
H1262 C1259 0.999 . S
H1263 C1244 0.913 . S
C283 C219 1.777 . S
C298 C18 1.784 . S
C333 C51 1.784 . S
C348 C252 1.777 . S
C383 C153 1.777 . S
C398 C84 1.784 . S
C433 C117 1.784 . S
C448 C186 1.776 . S
C483 C150 1.783 . S
C498 C87 1.776 . S
C533 C183 1.784 . S
C548 C120 1.777 . S
C583 C21 1.776 . S
C598 C216 1.783 . S
C633 C54 1.777 . S
C648 C249 1.784 . S
C683 C7 2.069 . S
C698 N233 2.026 1_455 S
C733 C40 2.069 . S
C748 N200 2.026 . S
C783 N167 2.026 1_455 S
C798 C73 2.069 . S
C833 C106 2.069 . S
C848 N134 2.026 . S
C883 C139 2.069 . S
C898 N101 2.027 . S
C933 N68 2.026 . S
C948 C172 2.070 . S
C983 N35 2.027 . S
C998 C205 2.069 . S
C1033 N2 2.026 . S
C1048 C238 2.069 . S
C1083 N79 1.049 . S
C1098 N13 1.048 . S
C1133 N46 1.048 . S
C1148 N112 1.049 . S
C1183 N211 1.050 . S
C1198 N145 1.050 . S
C1233 N244 1.050 . S
C1248 N178 1.049 . S
