# Generated by pormake.
# Topology vce, (5)-cn, num edge types: 1
# Building blocks:
#     Node 0, Type 0, BuildingBlock: BEQFEK_clean_sbu_0, # of connection points: 5
#     Node 1, Type 0, BuildingBlock: BEQFEK_clean_sbu_0, # of connection points: 5
#     Node 2, Type 0, BuildingBlock: BEQFEK_clean_sbu_0, # of connection points: 5
#     Node 3, Type 0, BuildingBlock: BEQFEK_clean_sbu_0, # of connection points: 5
#     Node 4, Type 0, BuildingBlock: BEQFEK_clean_sbu_0, # of connection points: 5
#     Node 5, Type 0, BuildingBlock: BEQFEK_clean_sbu_0, # of connection points: 5
#     Node 6, Type 0, BuildingBlock: BEQFEK_clean_sbu_0, # of connection points: 5
#     Node 7, Type 0, BuildingBlock: BEQFEK_clean_sbu_0, # of connection points: 5
#     Node 8, Type 0, BuildingBlock: BEQFEK_clean_sbu_0, # of connection points: 5
#     Node 9, Type 0, BuildingBlock: BEQFEK_clean_sbu_0, # of connection points: 5
#     Node 10, Type 0, BuildingBlock: BEQFEK_clean_sbu_0, # of connection points: 5
#     Node 11, Type 0, BuildingBlock: BEQFEK_clean_sbu_0, # of connection points: 5
#     Node 12, Type 0, BuildingBlock: BEQFEK_clean_sbu_0, # of connection points: 5
#     Node 13, Type 0, BuildingBlock: BEQFEK_clean_sbu_0, # of connection points: 5
#     Node 14, Type 0, BuildingBlock: BEQFEK_clean_sbu_0, # of connection points: 5
#     Node 15, Type 0, BuildingBlock: BEQFEK_clean_sbu_0, # of connection points: 5
#     Node 16, Type 0, BuildingBlock: BEQFEK_clean_sbu_0, # of connection points: 5
#     Node 17, Type 0, BuildingBlock: BEQFEK_clean_sbu_0, # of connection points: 5
#     Node 18, Type 0, BuildingBlock: BEQFEK_clean_sbu_0, # of connection points: 5
#     Node 19, Type 0, BuildingBlock: BEQFEK_clean_sbu_0, # of connection points: 5
#     Node 20, Type 0, BuildingBlock: BEQFEK_clean_sbu_0, # of connection points: 5
#     Node 21, Type 0, BuildingBlock: BEQFEK_clean_sbu_0, # of connection points: 5
#     Node 22, Type 0, BuildingBlock: BEQFEK_clean_sbu_0, # of connection points: 5
#     Node 23, Type 0, BuildingBlock: BEQFEK_clean_sbu_0, # of connection points: 5
#     Node 24, Type 0, BuildingBlock: BEQFEK_clean_sbu_0, # of connection points: 5
#     Node 25, Type 0, BuildingBlock: BEQFEK_clean_sbu_0, # of connection points: 5
#     Node 26, Type 0, BuildingBlock: BEQFEK_clean_sbu_0, # of connection points: 5
#     Node 27, Type 0, BuildingBlock: BEQFEK_clean_sbu_0, # of connection points: 5
#     Node 28, Type 0, BuildingBlock: BEQFEK_clean_sbu_0, # of connection points: 5
#     Node 29, Type 0, BuildingBlock: BEQFEK_clean_sbu_0, # of connection points: 5
#     Node 30, Type 0, BuildingBlock: BEQFEK_clean_sbu_0, # of connection points: 5
#     Node 31, Type 0, BuildingBlock: BEQFEK_clean_sbu_0, # of connection points: 5
#     Edge 32, Type (0, 0), None
#     Edge 33, Type (0, 0), None
#     Edge 34, Type (0, 0), None
#     Edge 35, Type (0, 0), None
#     Edge 36, Type (0, 0), None
#     Edge 37, Type (0, 0), None
#     Edge 38, Type (0, 0), None
#     Edge 39, Type (0, 0), None
#     Edge 40, Type (0, 0), None
#     Edge 41, Type (0, 0), None
#     Edge 42, Type (0, 0), None
#     Edge 43, Type (0, 0), None
#     Edge 44, Type (0, 0), None
#     Edge 45, Type (0, 0), None
#     Edge 46, Type (0, 0), None
#     Edge 47, Type (0, 0), None
#     Edge 48, Type (0, 0), None
#     Edge 49, Type (0, 0), None
#     Edge 50, Type (0, 0), None
#     Edge 51, Type (0, 0), None
#     Edge 52, Type (0, 0), None
#     Edge 53, Type (0, 0), None
#     Edge 54, Type (0, 0), None
#     Edge 55, Type (0, 0), None
#     Edge 56, Type (0, 0), None
#     Edge 57, Type (0, 0), None
#     Edge 58, Type (0, 0), None
#     Edge 59, Type (0, 0), None
#     Edge 60, Type (0, 0), None
#     Edge 61, Type (0, 0), None
#     Edge 62, Type (0, 0), None
#     Edge 63, Type (0, 0), None
#     Edge 64, Type (0, 0), None
#     Edge 65, Type (0, 0), None
#     Edge 66, Type (0, 0), None
#     Edge 67, Type (0, 0), None
#     Edge 68, Type (0, 0), None
#     Edge 69, Type (0, 0), None
#     Edge 70, Type (0, 0), None
#     Edge 71, Type (0, 0), None
#     Edge 72, Type (0, 0), None
#     Edge 73, Type (0, 0), None
#     Edge 74, Type (0, 0), None
#     Edge 75, Type (0, 0), None
#     Edge 76, Type (0, 0), None
#     Edge 77, Type (0, 0), None
#     Edge 78, Type (0, 0), None
#     Edge 79, Type (0, 0), None
#     Edge 80, Type (0, 0), None
#     Edge 81, Type (0, 0), None
#     Edge 82, Type (0, 0), None
#     Edge 83, Type (0, 0), None
#     Edge 84, Type (0, 0), None
#     Edge 85, Type (0, 0), None
#     Edge 86, Type (0, 0), None
#     Edge 87, Type (0, 0), None
#     Edge 88, Type (0, 0), None
#     Edge 89, Type (0, 0), None
#     Edge 90, Type (0, 0), None
#     Edge 91, Type (0, 0), None
#     Edge 92, Type (0, 0), None
#     Edge 93, Type (0, 0), None
#     Edge 94, Type (0, 0), None
#     Edge 95, Type (0, 0), None
#     Edge 96, Type (0, 0), None
#     Edge 97, Type (0, 0), None
#     Edge 98, Type (0, 0), None
#     Edge 99, Type (0, 0), None
#     Edge 100, Type (0, 0), None
#     Edge 101, Type (0, 0), None
#     Edge 102, Type (0, 0), None
#     Edge 103, Type (0, 0), None
#     Edge 104, Type (0, 0), None
#     Edge 105, Type (0, 0), None
#     Edge 106, Type (0, 0), None
#     Edge 107, Type (0, 0), None
#     Edge 108, Type (0, 0), None
#     Edge 109, Type (0, 0), None
#     Edge 110, Type (0, 0), None
#     Edge 111, Type (0, 0), None
# Relax obj value: 0.160
# Max RMSD: 0.155
# Mean RMSD: 0.155
data_MOF--net-vce--node1-BEQFEK_clean_sbu_0--edge1-none
_symmetry_space_group_name_H-M    P1
_symmetry_Int_Tables_number       1
_symmetry_cell_setting            triclinic
loop_
_symmetry_equiv_pos_as_xyz
'x, y, z'
_cell_length_a     19.170911
_cell_length_b     85.463138
_cell_length_c     13.621913
_cell_angle_alpha  89.998437
_cell_angle_beta   89.995432
_cell_angle_gamma 89.907347
loop_
_atom_site_label
_atom_site_type_symbol
_atom_site_fract_x
_atom_site_fract_y
_atom_site_fract_z
_atom_type_partial_charge
Co0 Co 0.01611 0.22094 0.3965 0.0
Co1 Co 0.03882 0.18465 0.42612 0.0
C2 C 0.0969 0.20841 0.57047 0.0
O3 O 0.07937 0.22065 0.52139 0.0
O4 O 0.07803 0.19479 0.54285 0.0
C5 C 0.01436 0.25007 0.26546 0.0
O6 O 0.07526 0.24615 0.22893 0.0
C7 C 0.11083 0.15395 0.45219 0.0
C8 C 0.02497 0.13771 0.41688 0.0
C9 C 0.09454 0.13816 0.44337 0.0
N10 N 0.05352 0.16243 0.43094 0.0
N11 N 0.00229 0.15259 0.411 0.0
C12 C 0.17883 0.16081 0.48442 0.0
H13 H 0.17525 0.17374 0.48971 0.0
H14 H 0.22049 0.15761 0.43159 0.0
H15 H 0.19362 0.15584 0.55679 0.0
C16 C 0.04057 0.20793 0.19962 0.0
N17 N 0.05034 0.20738 0.29689 0.0
N18 N 0.0809 0.19399 0.31839 0.0
C19 C 0.09996 0.1868 0.23492 0.0
C20 C 0.075 0.1955 0.15699 0.0
C21 C 0.98785 0.21802 0.14856 0.0
H22 H 0.94941 0.22276 0.20161 0.0
H23 H 0.014 0.22767 0.10901 0.0
H24 H 0.95971 0.21103 0.09244 0.0
O25 O 0.92361 0.21292 0.42051 0.0
O26 O 0.9375 0.18741 0.39714 0.0
H27 H 0.11507 0.16203 0.23624 0.0
H28 H 0.17716 0.17249 0.16166 0.0
C29 C 0.14693 0.17283 0.23102 0.0
H30 H 0.1837 0.17312 0.2936 0.0
H31 H 0.95182 0.15602 0.39195 0.0
O32 O 0.98935 0.24232 0.3376 0.0
C33 C 0.89983 0.19964 0.39563 0.0
Co34 Co 0.22086 0.04185 0.39649 0.0
Co35 Co 0.19814 0.07814 0.42608 0.0
C36 C 0.14006 0.05438 0.57045 0.0
O37 O 0.1576 0.04214 0.52137 0.0
O38 O 0.15893 0.068 0.54282 0.0
C39 C 0.22262 0.01272 0.26548 0.0
O40 O 0.16173 0.01664 0.22895 0.0
C41 C 0.12609 0.10883 0.45209 0.0
C42 C 0.21194 0.12508 0.41682 0.0
C43 C 0.14235 0.12462 0.4432 0.0
N44 N 0.18342 0.10036 0.43088 0.0
N45 N 0.23464 0.11021 0.41096 0.0
C46 C 0.0581 0.10197 0.48437 0.0
H47 H 0.06169 0.08904 0.48962 0.0
H48 H 0.01642 0.10517 0.43159 0.0
H49 H 0.04334 0.10693 0.55677 0.0
C50 C 0.19644 0.05486 0.1996 0.0
N51 N 0.18665 0.05541 0.29687 0.0
N52 N 0.15608 0.0688 0.31836 0.0
C53 C 0.13703 0.07599 0.23488 0.0
C54 C 0.16201 0.06729 0.15696 0.0
C55 C 0.24917 0.04477 0.14855 0.0
H56 H 0.28759 0.04003 0.2016 0.0
H57 H 0.22301 0.03512 0.10901 0.0
H58 H 0.27731 0.05176 0.09242 0.0
O59 O 0.31336 0.04987 0.42052 0.0
O60 O 0.29947 0.07539 0.39713 0.0
H61 H 0.12189 0.10075 0.23617 0.0
H62 H 0.05981 0.09029 0.16163 0.0
C63 C 0.09005 0.08996 0.23098 0.0
H64 H 0.05328 0.08966 0.29357 0.0
H65 H 0.28513 0.10678 0.39197 0.0
O66 O 0.24763 0.02047 0.33761 0.0
C67 C 0.33714 0.06315 0.39563 0.0
Co68 Co 0.02935 0.04259 0.84379 0.0
Co69 Co 0.04 0.07883 0.80631 0.0
C70 C 0.09517 0.05418 0.66017 0.0
O71 O 0.0826 0.04188 0.71145 0.0
O72 O 0.07528 0.06769 0.68913 0.0
C73 C 0.01823 0.01058 0.95919 0.0
O74 O 0.08403 1.00633 0.9549 0.0
C75 C 0.10967 0.1089 0.76215 0.0
C76 C 0.02511 0.1256 0.79636 0.0
C77 C 0.09401 0.12477 0.76671 0.0
N78 N 0.05282 0.10079 0.78934 0.0
N79 N 0.00213 0.11086 0.80792 0.0
C80 C 0.17678 0.10156 0.72969 0.0
H81 H 0.1734 0.08861 0.73255 0.0
H82 H 0.2204 0.1055 0.77689 0.0
H83 H 0.18876 0.10536 0.65367 0.0
C84 C 0.09842 0.05307 0.02411 0.0
N85 N 0.07722 0.056 0.93247 0.0
N86 N 0.09028 0.07079 0.91174 0.0
C87 C 0.12498 0.07737 0.98707 0.0
C88 C 0.13181 0.06618 0.05944 0.0
C89 C 0.07132 0.03982 0.08506 0.0
H90 H 0.01579 0.03773 0.06736 0.0
H91 H 0.10263 0.02923 0.06992 0.0
H92 H 0.07359 0.04233 0.16478 0.0
O93 O 0.93528 0.05053 0.83355 0.0
O94 O 0.94126 0.07625 0.8467 0.0
H95 H 0.10076 0.10182 0.98233 0.0
H96 H 0.1731 0.09687 0.06249 0.0
C97 C 0.1469 0.09413 -0.00798 0.0
H98 H 0.18402 0.09653 0.93187 0.0
H99 H 0.95223 0.10771 0.83108 0.0
O100 O -0.00196 0.02296 0.91569 0.0
C101 C 0.9081 0.06354 0.85627 0.0
Co102 Co 0.20764 0.2202 0.84377 0.0
Co103 Co 0.19698 0.18396 0.80631 0.0
C104 C 0.1418 0.20861 0.66017 0.0
O105 O 0.15437 0.22091 0.71145 0.0
O106 O 0.16169 0.1951 0.68913 0.0
C107 C 0.21876 0.25221 0.95917 0.0
O108 O 0.15295 0.25645 0.95491 0.0
C109 C 0.12726 0.15389 0.76225 0.0
C110 C 0.2118 0.13719 0.79641 0.0
C111 C 0.14288 0.13803 0.76693 0.0
N112 N 0.18414 0.162 0.78938 0.0
N113 N 0.23482 0.15192 0.80792 0.0
C114 C 0.06017 0.16125 0.72977 0.0
H115 H 0.06355 0.17419 0.7327 0.0
H116 H 0.01652 0.15729 0.77691 0.0
H117 H 0.04824 0.15746 0.65372 0.0
C118 C 0.1386 0.20972 0.02413 0.0
N119 N 0.15979 0.20679 0.93248 0.0
N120 N 0.14671 0.19201 0.91174 0.0
C121 C 0.11201 0.18542 0.98709 0.0
C122 C 0.10521 0.19661 0.05947 0.0
C123 C 0.16571 0.22297 0.08508 0.0
H124 H 0.22124 0.22505 0.06734 0.0
H125 H 0.1344 0.23355 0.06998 0.0
H126 H 0.16346 0.22045 0.1648 0.0
O127 O 0.30171 0.21226 0.83347 0.0
O128 O 0.29572 0.18654 0.8467 0.0
H129 H 0.1362 0.16097 0.98233 0.0
H130 H 0.06389 0.16592 0.06254 0.0
C131 C 0.09007 0.16866 -0.00795 0.0
H132 H 0.05294 0.16627 0.93192 0.0
H133 H 0.28474 0.15508 0.83099 0.0
O134 O 0.23896 0.23983 0.91565 0.0
C135 C 0.32889 0.19925 0.85624 0.0
Co136 Co 0.97087 0.79185 0.58743 0.0
Co137 Co 0.94815 0.82814 0.55781 0.0
C138 C 0.89008 0.80438 0.41346 0.0
O139 O 0.90761 0.79214 0.46254 0.0
O140 O 0.90895 0.818 0.44108 0.0
C141 C 0.97262 0.76272 0.71847 0.0
O142 O 0.91172 0.76663 0.755 0.0
C143 C 0.87614 0.85884 0.53175 0.0
C144 C 0.962 0.87508 0.56706 0.0
C145 C 0.89244 0.87463 0.54056 0.0
N146 N 0.93345 0.85036 0.55299 0.0
N147 N 0.98469 0.8602 0.57293 0.0
C148 C 0.80814 0.85198 0.49951 0.0
H149 H 0.81173 0.83905 0.49422 0.0
H150 H 0.76649 0.85517 0.55234 0.0
H151 H 0.79336 0.85694 0.42714 0.0
C152 C 0.94641 0.80486 0.78431 0.0
N153 N 0.93664 0.80541 0.68704 0.0
N154 N 0.90607 0.8188 0.66554 0.0
C155 C 0.88702 0.82599 0.74901 0.0
C156 C 0.91198 0.81729 0.82694 0.0
C157 C -0.00087 0.79477 0.83537 0.0
H158 H 0.03756 0.79003 0.78233 0.0
H159 H 0.97297 0.78511 0.87492 0.0
H160 H 0.02727 0.80176 0.89149 0.0
O161 O 0.06337 0.79987 0.56342 0.0
O162 O 0.04947 0.82538 0.58679 0.0
H163 H 0.87191 0.85075 0.74769 0.0
H164 H 0.80982 0.8403 0.82227 0.0
C165 C 0.84005 0.83996 0.75291 0.0
H166 H 0.80328 0.83966 0.69033 0.0
H167 H 0.03515 0.85677 0.59198 0.0
O168 O -0.00237 0.77047 0.64633 0.0
C169 C 0.08715 0.81315 0.5883 0.0
Co170 Co 0.76611 0.97093 0.58744 0.0
Co171 Co 0.78884 0.93465 0.55785 0.0
C172 C 0.84692 0.9584 0.41348 0.0
O173 O 0.82938 0.97065 0.46255 0.0
O174 O 0.82805 0.94479 0.44111 0.0
C175 C 0.76436 1.00007 0.71845 0.0
O176 O 0.82525 0.99615 0.75498 0.0
C177 C 0.86089 0.90396 0.53184 0.0
C178 C 0.77504 0.88771 0.56711 0.0
C179 C 0.84463 0.88817 0.54073 0.0
N180 N 0.80356 0.91243 0.55305 0.0
N181 N 0.75233 0.90258 0.57297 0.0
C182 C 0.92888 0.91082 0.49956 0.0
H183 H 0.92528 0.92375 0.49431 0.0
H184 H 0.97056 0.90762 0.55234 0.0
H185 H 0.94364 0.90586 0.42716 0.0
C186 C 0.79053 0.95792 0.78433 0.0
N187 N 0.80032 0.95738 0.68706 0.0
N188 N 0.8309 0.94399 0.66557 0.0
C189 C 0.84995 0.9368 0.74905 0.0
C190 C 0.82496 0.9455 0.82697 0.0
C191 C 0.73781 0.96802 0.83538 0.0
H192 H 0.69939 0.97276 0.78233 0.0
H193 H 0.76396 0.97767 0.87492 0.0
H194 H 0.70966 0.96103 0.89151 0.0
O195 O 0.67362 0.96291 0.56341 0.0
O196 O 0.68751 0.9374 0.5868 0.0
H197 H 0.86509 0.91204 0.74776 0.0
H198 H 0.92717 0.9225 0.8223 0.0
C199 C 0.89693 0.92283 0.75295 0.0
H200 H 0.9337 0.92313 0.69036 0.0
H201 H 0.70185 0.90601 0.59196 0.0
O202 O 0.73935 0.99232 0.64632 0.0
C203 C 0.64983 0.94964 0.58829 0.0
Co204 Co 0.95763 0.9702 0.14013 0.0
Co205 Co 0.94697 0.93396 0.17762 0.0
C206 C 0.89181 0.95861 0.32376 0.0
O207 O 0.90438 0.97091 0.27248 0.0
O208 O 0.91169 0.9451 0.2948 0.0
C209 C 0.96874 1.00221 0.02474 0.0
O210 O 0.90294 0.00646 0.02903 0.0
C211 C 0.87731 0.90388 0.22178 0.0
C212 C 0.96187 0.88719 0.18757 0.0
C213 C 0.89297 0.88802 0.21722 0.0
N214 N 0.93416 0.912 0.19458 0.0
N215 N 0.98485 0.90192 0.17601 0.0
C216 C 0.8102 0.91123 0.25424 0.0
H217 H 0.81358 0.92418 0.25138 0.0
H218 H 0.76658 0.90729 0.20704 0.0
H219 H 0.79822 0.90743 0.33026 0.0
C220 C 0.88856 0.95972 0.95982 0.0
N221 N 0.90976 0.95679 0.05146 0.0
N222 N 0.8967 0.942 0.07219 0.0
C223 C 0.86199 0.93542 -0.00314 0.0
C224 C 0.85517 0.94661 0.92449 0.0
C225 C 0.91565 0.97297 0.89886 0.0
H226 H 0.97118 0.97505 0.91657 0.0
H227 H 0.88435 0.98356 0.91401 0.0
H228 H 0.91339 0.97046 0.81915 0.0
O229 O 0.05169 0.96226 0.15037 0.0
O230 O 0.04571 0.93654 0.13722 0.0
H231 H 0.88621 0.91097 0.00159 0.0
H232 H 0.81388 0.91592 0.92144 0.0
C233 C 0.84008 0.91866 0.99191 0.0
H234 H 0.80296 0.91626 0.05206 0.0
H235 H 0.03475 0.90508 0.15285 0.0
O236 O 0.98893 0.98983 0.06824 0.0
C237 C 0.07888 0.94925 0.12766 0.0
Co238 Co 0.77933 0.79259 0.14016 0.0
Co239 Co 0.79 0.82883 0.17762 0.0
C240 C 0.84518 0.80418 0.32376 0.0
O241 O 0.83261 0.79188 0.27248 0.0
O242 O 0.82529 0.81769 0.2948 0.0
C243 C 0.76822 0.76058 0.02476 0.0
O244 O 0.83403 0.75634 0.02902 0.0
C245 C 0.85972 0.8589 0.22168 0.0
C246 C 0.77517 0.8756 0.18752 0.0
C247 C 0.8441 0.87476 0.21699 0.0
N248 N 0.80284 0.85079 0.19455 0.0
N249 N 0.75216 0.86087 0.17601 0.0
C250 C 0.92681 0.85154 0.25416 0.0
H251 H 0.92342 0.8386 0.25123 0.0
H252 H 0.97046 0.8555 0.20702 0.0
H253 H 0.93874 0.85533 0.33021 0.0
C254 C 0.84837 0.80307 0.9598 0.0
N255 N 0.82719 0.806 0.05145 0.0
N256 N 0.84027 0.82078 0.07219 0.0
C257 C 0.87497 0.82737 -0.00316 0.0
C258 C 0.88177 0.81618 0.92446 0.0
C259 C 0.82127 0.78982 0.89885 0.0
H260 H 0.76574 0.78774 0.91659 0.0
H261 H 0.85257 0.77924 0.91396 0.0
H262 H 0.82351 0.79233 0.81913 0.0
O263 O 0.68527 0.80053 0.15046 0.0
O264 O 0.69126 0.82625 0.13723 0.0
H265 H 0.85078 0.85182 0.0016 0.0
H266 H 0.92309 0.84687 0.92139 0.0
C267 C 0.8969 0.84412 0.99188 0.0
H268 H 0.93404 0.84652 0.05201 0.0
H269 H 0.70224 0.85771 0.15294 0.0
O270 O 0.74802 0.77296 0.06828 0.0
C271 C 0.65809 0.81354 0.12769 0.0
Co272 Co 0.01611 0.72094 0.89656 0.0
Co273 Co 0.03882 0.68465 0.92617 0.0
C274 C 0.0969 0.70841 0.07053 0.0
O275 O 0.07937 0.72065 0.02144 0.0
O276 O 0.07803 0.69479 0.04291 0.0
C277 C 0.01435 0.75007 0.76551 0.0
O278 O 0.07526 0.74615 0.72899 0.0
C279 C 0.11083 0.65395 0.95223 0.0
C280 C 0.02497 0.63771 0.91691 0.0
C281 C 0.09453 0.63816 0.94341 0.0
N282 N 0.05352 0.66243 0.93099 0.0
N283 N 0.00229 0.65259 0.91105 0.0
C284 C 0.17883 0.66081 0.98447 0.0
H285 H 0.17525 0.67374 0.98976 0.0
H286 H 0.22049 0.65761 0.93164 0.0
H287 H 0.19362 0.65584 0.05683 0.0
C288 C 0.04056 0.70793 0.69968 0.0
N289 N 0.05033 0.70738 0.79695 0.0
N290 N 0.0809 0.69399 0.81845 0.0
C291 C 0.09996 0.6868 0.73497 0.0
C292 C 0.07498 0.6955 0.65704 0.0
C293 C 0.98783 0.71802 0.64862 0.0
H294 H 0.9494 0.72276 0.70167 0.0
H295 H 0.01399 0.72767 0.60907 0.0
H296 H 0.95969 0.71103 0.5925 0.0
O297 O 0.9236 0.71292 0.92058 0.0
O298 O 0.9375 0.68741 0.8972 0.0
H299 H 0.11507 0.66203 0.73629 0.0
H300 H 0.17716 0.67249 0.66171 0.0
C301 C 0.14692 0.67283 0.73107 0.0
H302 H 0.1837 0.67313 0.79365 0.0
H303 H 0.95182 0.65602 0.892 0.0
O304 O 0.98935 0.74232 0.83766 0.0
C305 C 0.89982 0.69964 0.89569 0.0
Co306 Co 0.22086 0.54185 0.89649 0.0
Co307 Co 0.19814 0.57814 0.92608 0.0
C308 C 0.14006 0.55438 0.07046 0.0
O309 O 0.15759 0.54214 0.02138 0.0
O310 O 0.15893 0.568 0.04283 0.0
C311 C 0.22262 0.51272 0.76547 0.0
O312 O 0.16172 0.51664 0.72895 0.0
C313 C 0.12608 0.60883 0.95211 0.0
C314 C 0.21194 0.62508 0.91684 0.0
C315 C 0.14235 0.62462 0.94322 0.0
N316 N 0.18342 0.60036 0.93089 0.0
N317 N 0.23464 0.61021 0.91098 0.0
C318 C 0.0581 0.60197 0.98438 0.0
H319 H 0.06169 0.58904 0.98962 0.0
H320 H 0.01642 0.60517 0.93161 0.0
H321 H 0.04334 0.60693 0.05678 0.0
C322 C 0.19644 0.55486 0.6996 0.0
N323 N 0.18665 0.55541 0.79687 0.0
N324 N 0.15607 0.5688 0.81837 0.0
C325 C 0.13702 0.57599 0.73489 0.0
C326 C 0.16201 0.56729 0.65696 0.0
C327 C 0.24916 0.54477 0.64855 0.0
H328 H 0.28759 0.54003 0.70159 0.0
H329 H 0.22301 0.53512 0.60901 0.0
H330 H 0.27731 0.55176 0.59242 0.0
O331 O 0.31336 0.54987 0.92052 0.0
O332 O 0.29946 0.57539 0.89713 0.0
H333 H 0.12189 0.60075 0.73618 0.0
H334 H 0.05981 0.59029 0.66164 0.0
C335 C 0.09004 0.58996 0.73098 0.0
H336 H 0.05327 0.58966 0.79357 0.0
H337 H 0.28513 0.60678 0.89198 0.0
O338 O 0.24763 0.52047 0.83761 0.0
C339 C 0.33714 0.56315 0.89563 0.0
Co340 Co 0.02934 0.54259 0.3438 0.0
Co341 Co 0.04 0.57883 0.30631 0.0
C342 C 0.09517 0.55418 0.16017 0.0
O343 O 0.0826 0.54188 0.21146 0.0
O344 O 0.07528 0.56769 0.18913 0.0
C345 C 0.01823 0.51058 0.45919 0.0
O346 O 0.08403 0.50633 0.4549 0.0
C347 C 0.10967 0.6089 0.26216 0.0
C348 C 0.02511 0.6256 0.29638 0.0
C349 C 0.09401 0.62477 0.26673 0.0
N350 N 0.05282 0.60079 0.28935 0.0
N351 N 0.00212 0.61086 0.30792 0.0
C352 C 0.17678 0.60156 0.2297 0.0
H353 H 0.1734 0.58861 0.23255 0.0
H354 H 0.2204 0.6055 0.2769 0.0
H355 H 0.18875 0.60536 0.15368 0.0
C356 C 0.09841 0.55307 0.52412 0.0
N357 N 0.07721 0.556 0.43247 0.0
N358 N 0.09027 0.57079 0.41174 0.0
C359 C 0.12498 0.57737 0.48707 0.0
C360 C 0.1318 0.56618 0.55945 0.0
C361 C 0.07132 0.53982 0.58507 0.0
H362 H 0.01578 0.53773 0.56736 0.0
H363 H 0.10262 0.52923 0.56993 0.0
H364 H 0.07358 0.54233 0.66479 0.0
O365 O 0.93528 0.55053 0.33355 0.0
O366 O 0.94126 0.57625 0.34671 0.0
H367 H 0.10076 0.60182 0.48233 0.0
H368 H 0.17309 0.59687 0.5625 0.0
C369 C 0.1469 0.59413 0.49203 0.0
H370 H 0.18402 0.59653 0.43187 0.0
H371 H 0.95222 0.6077 0.33108 0.0
O372 O -0.00196 0.52296 0.41569 0.0
C373 C 0.90809 0.56354 0.35627 0.0
Co374 Co 0.20764 0.7202 0.34383 0.0
Co375 Co 0.19698 0.68396 0.30636 0.0
C376 C 0.1418 0.70861 0.16023 0.0
O377 O 0.15437 0.72091 0.21151 0.0
O378 O 0.16169 0.6951 0.18919 0.0
C379 C 0.21875 0.75221 0.45923 0.0
O380 O 0.15294 0.75645 0.45497 0.0
C381 C 0.12726 0.65389 0.26229 0.0
C382 C 0.2118 0.63719 0.29645 0.0
C383 C 0.14287 0.63803 0.26697 0.0
N384 N 0.18414 0.662 0.28943 0.0
N385 N 0.23482 0.65192 0.30797 0.0
C386 C 0.06017 0.66125 0.22982 0.0
H387 H 0.06355 0.67419 0.23276 0.0
H388 H 0.01652 0.65729 0.27696 0.0
H389 H 0.04823 0.65746 0.15377 0.0
C390 C 0.13859 0.70972 0.52419 0.0
N391 N 0.15978 0.70679 0.43253 0.0
N392 N 0.1467 0.69201 0.4118 0.0
C393 C 0.112 0.68542 0.48714 0.0
C394 C 0.1052 0.69661 0.55952 0.0
C395 C 0.1657 0.72297 0.58514 0.0
H396 H 0.22123 0.72505 0.56739 0.0
H397 H 0.13439 0.73355 0.57003 0.0
H398 H 0.16345 0.72046 0.66485 0.0
O399 O 0.3017 0.71226 0.33354 0.0
O400 O 0.29571 0.68654 0.34676 0.0
H401 H 0.1362 0.66097 0.48239 0.0
H402 H 0.06388 0.66592 0.56259 0.0
C403 C 0.09007 0.66866 0.49211 0.0
H404 H 0.05294 0.66627 0.43197 0.0
H405 H 0.28474 0.65508 0.33104 0.0
O406 O 0.23895 0.73983 0.41571 0.0
C407 C 0.32888 0.69925 0.3563 0.0
Co408 Co 0.97087 0.29185 0.08737 0.0
Co409 Co 0.94816 0.32814 0.05776 0.0
C410 C 0.89008 0.30438 0.9134 0.0
O411 O 0.90761 0.29214 0.96249 0.0
O412 O 0.90894 0.318 0.94102 0.0
C413 C 0.97262 0.26272 0.21842 0.0
O414 O 0.91172 0.26663 0.25494 0.0
C415 C 0.87614 0.35884 0.0317 0.0
C416 C 0.96201 0.37508 0.06702 0.0
C417 C 0.89244 0.37463 0.04052 0.0
N418 N 0.93345 0.35036 0.05294 0.0
N419 N 0.98469 0.3602 0.07288 0.0
C420 C 0.80814 0.35198 -0.00054 0.0
H421 H 0.81173 0.33905 -0.00583 0.0
H422 H 0.76649 0.35517 0.05229 0.0
H423 H 0.79336 0.35695 0.9271 0.0
C424 C 0.94642 0.30486 0.28425 0.0
N425 N 0.93665 0.30541 0.18698 0.0
N426 N 0.90608 0.3188 0.16548 0.0
C427 C 0.88702 0.32599 0.24896 0.0
C428 C 0.91199 0.31729 0.32689 0.0
C429 C -0.00086 0.29477 0.33531 0.0
H430 H 0.03757 0.29003 0.28227 0.0
H431 H 0.97299 0.28511 0.37486 0.0
H432 H 0.02728 0.30176 0.39143 0.0
O433 O 0.06337 0.29987 0.06335 0.0
O434 O 0.04947 0.32538 0.08673 0.0
H435 H 0.87191 0.35075 0.24764 0.0
H436 H 0.80982 0.3403 0.32222 0.0
C437 C 0.84005 0.33996 0.25286 0.0
H438 H 0.80328 0.33966 0.19028 0.0
H439 H 0.03516 0.35677 0.09193 0.0
O440 O -0.00237 0.27047 0.14627 0.0
C441 C 0.08715 0.31315 0.08824 0.0
Co442 Co 0.76612 0.47093 0.08744 0.0
Co443 Co 0.78884 0.43465 0.05784 0.0
C444 C 0.84692 0.4584 0.91347 0.0
O445 O 0.82938 0.47065 0.96255 0.0
O446 O 0.82805 0.44479 0.9411 0.0
C447 C 0.76436 0.50007 0.21845 0.0
O448 O 0.82525 0.49615 0.25498 0.0
C449 C 0.86089 0.40396 0.03182 0.0
C450 C 0.77504 0.38771 0.06708 0.0
C451 C 0.84463 0.38817 0.04071 0.0
N452 N 0.80356 0.41243 0.05304 0.0
N453 N 0.75233 0.40258 0.07295 0.0
C454 C 0.92888 0.41082 -0.00045 0.0
H455 H 0.92528 0.42375 -0.0057 0.0
H456 H 0.97056 0.40762 0.05232 0.0
H457 H 0.94364 0.40586 0.92715 0.0
C458 C 0.79054 0.45792 0.28432 0.0
N459 N 0.80033 0.45738 0.18706 0.0
N460 N 0.8309 0.44399 0.16556 0.0
C461 C 0.84995 0.4368 0.24904 0.0
C462 C 0.82497 0.4455 0.32697 0.0
C463 C 0.73782 0.46802 0.33538 0.0
H464 H 0.69939 0.47276 0.28233 0.0
H465 H 0.76397 0.47767 0.37492 0.0
H466 H 0.70967 0.46103 0.3915 0.0
O467 O 0.67362 0.46291 0.06341 0.0
O468 O 0.68751 0.4374 0.0868 0.0
H469 H 0.86509 0.41204 0.24775 0.0
H470 H 0.92717 0.4225 0.32229 0.0
C471 C 0.89693 0.42283 0.25294 0.0
H472 H 0.9337 0.42313 0.19035 0.0
H473 H 0.70185 0.40601 0.09195 0.0
O474 O 0.73935 0.49232 0.14632 0.0
C475 C 0.64984 0.44964 0.08829 0.0
Co476 Co 0.95763 0.4702 0.64013 0.0
Co477 Co 0.94698 0.43396 0.67761 0.0
C478 C 0.89181 0.45861 0.82375 0.0
O479 O 0.90438 0.47091 0.77247 0.0
O480 O 0.91169 0.4451 0.79479 0.0
C481 C 0.96874 0.50221 0.52474 0.0
O482 O 0.90294 0.50646 0.52902 0.0
C483 C 0.87731 0.40388 0.72177 0.0
C484 C 0.96187 0.38719 0.68755 0.0
C485 C 0.89297 0.38802 0.7172 0.0
N486 N 0.93416 0.412 0.69458 0.0
N487 N 0.98485 0.40192 0.676 0.0
C488 C 0.8102 0.41123 0.75423 0.0
H489 H 0.81358 0.42418 0.75137 0.0
H490 H 0.76658 0.40729 0.70703 0.0
H491 H 0.79822 0.40743 0.83025 0.0
C492 C 0.88857 0.45972 0.45981 0.0
N493 N 0.90976 0.45679 0.55145 0.0
N494 N 0.8967 0.442 0.57219 0.0
C495 C 0.862 0.43542 0.49686 0.0
C496 C 0.85518 0.44661 0.42448 0.0
C497 C 0.91566 0.47297 0.39886 0.0
H498 H 0.97119 0.47505 0.41657 0.0
H499 H 0.88436 0.48356 0.414 0.0
H500 H 0.9134 0.47046 0.31914 0.0
O501 O 0.05169 0.46226 0.65037 0.0
O502 O 0.04572 0.43654 0.63722 0.0
H503 H 0.88622 0.41097 0.50159 0.0
H504 H 0.81388 0.41592 0.42143 0.0
C505 C 0.84008 0.41866 0.4919 0.0
H506 H 0.80296 0.41626 0.55206 0.0
H507 H 0.03475 0.40508 0.65284 0.0
O508 O 0.98894 0.48983 0.56823 0.0
C509 C 0.07888 0.44925 0.62766 0.0
Co510 Co 0.77934 0.29259 0.6401 0.0
Co511 Co 0.79 0.32883 0.67757 0.0
C512 C 0.84517 0.30418 0.8237 0.0
O513 O 0.83261 0.29188 0.77242 0.0
O514 O 0.82529 0.31769 0.79475 0.0
C515 C 0.76823 0.26058 0.5247 0.0
O516 O 0.83403 0.25634 0.52896 0.0
C517 C 0.85972 0.35889 0.72164 0.0
C518 C 0.77518 0.3756 0.68748 0.0
C519 C 0.8441 0.37476 0.71696 0.0
N520 N 0.80284 0.35079 0.6945 0.0
N521 N 0.75216 0.36087 0.67596 0.0
C522 C 0.92681 0.35154 0.75411 0.0
H523 H 0.92343 0.3386 0.75117 0.0
H524 H 0.97046 0.35549 0.70697 0.0
H525 H 0.93874 0.35533 0.83016 0.0
C526 C 0.84838 0.30307 0.45975 0.0
N527 N 0.8272 0.306 0.5514 0.0
N528 N 0.84027 0.32078 0.57213 0.0
C529 C 0.87497 0.32737 0.49679 0.0
C530 C 0.88178 0.31618 0.42441 0.0
C531 C 0.82128 0.28982 0.3988 0.0
H532 H 0.76575 0.28774 0.41654 0.0
H533 H 0.85259 0.27924 0.4139 0.0
H534 H 0.82353 0.29233 0.31908 0.0
O535 O 0.68527 0.30053 0.65039 0.0
O536 O 0.69126 0.32625 0.63717 0.0
H537 H 0.85078 0.35182 0.50154 0.0
H538 H 0.92309 0.34687 0.42134 0.0
C539 C 0.89691 0.34413 0.49183 0.0
H540 H 0.93404 0.34652 0.55196 0.0
H541 H 0.70224 0.35771 0.65289 0.0
O542 O 0.74802 0.27296 0.56822 0.0
C543 C 0.6581 0.31354 0.62763 0.0
Co544 Co 0.51611 0.22094 0.8965 0.0
Co545 Co 0.53882 0.18465 0.92612 0.0
C546 C 0.5969 0.20841 0.07047 0.0
O547 O 0.57936 0.22065 0.02139 0.0
O548 O 0.57803 0.19479 0.04285 0.0
C549 C 0.51436 0.25007 0.76546 0.0
O550 O 0.57526 0.24615 0.72893 0.0
C551 C 0.61084 0.15395 0.95218 0.0
C552 C 0.52497 0.13771 0.91687 0.0
C553 C 0.59454 0.13816 0.94337 0.0
N554 N 0.55353 0.16243 0.93094 0.0
N555 N 0.50229 0.15259 0.911 0.0
C556 C 0.67884 0.16081 0.98442 0.0
H557 H 0.67525 0.17374 0.98971 0.0
H558 H 0.72049 0.15762 0.93159 0.0
H559 H 0.69362 0.15584 0.05678 0.0
C560 C 0.54056 0.20793 0.69962 0.0
N561 N 0.55033 0.20738 0.79689 0.0
N562 N 0.5809 0.19399 0.81839 0.0
C563 C 0.59996 0.1868 0.73492 0.0
C564 C 0.57499 0.1955 0.65699 0.0
C565 C 0.48784 0.21802 0.64857 0.0
H566 H 0.44941 0.22276 0.70161 0.0
H567 H 0.51399 0.22767 0.60901 0.0
H568 H 0.4597 0.21103 0.59245 0.0
O569 O 0.4236 0.21292 0.92052 0.0
O570 O 0.4375 0.18741 0.89715 0.0
H571 H 0.61507 0.16204 0.73624 0.0
H572 H 0.67716 0.17249 0.66166 0.0
C573 C 0.64693 0.17283 0.73102 0.0
H574 H 0.6837 0.17313 0.7936 0.0
H575 H 0.45182 0.15602 0.89194 0.0
O576 O 0.48935 0.24232 0.8376 0.0
C577 C 0.39982 0.19964 0.89565 0.0
Co578 Co 0.72087 0.04185 0.89649 0.0
Co579 Co 0.69814 0.07814 0.92608 0.0
C580 C 0.64006 0.05438 0.07045 0.0
O581 O 0.6576 0.04214 0.02137 0.0
O582 O 0.65893 0.068 0.04282 0.0
C583 C 0.72263 0.01272 0.76547 0.0
O584 O 0.66173 0.01664 0.72894 0.0
C585 C 0.62609 0.10883 0.95209 0.0
C586 C 0.71194 0.12508 0.91682 0.0
C587 C 0.64235 0.12462 0.94319 0.0
N588 N 0.68342 0.10036 0.93087 0.0
N589 N 0.73465 0.11021 0.91096 0.0
C590 C 0.5581 0.10197 0.98437 0.0
H591 H 0.5617 0.08904 0.98962 0.0
H592 H 0.51642 0.10517 0.93159 0.0
H593 H 0.54334 0.10693 0.05676 0.0
C594 C 0.69645 0.05486 0.6996 0.0
N595 N 0.68666 0.05541 0.79687 0.0
N596 N 0.65608 0.0688 0.81836 0.0
C597 C 0.63703 0.07599 0.73488 0.0
C598 C 0.66202 0.06729 0.65695 0.0
C599 C 0.74918 0.04477 0.64855 0.0
H600 H 0.7876 0.04003 0.7016 0.0
H601 H 0.72302 0.03512 0.60901 0.0
H602 H 0.77732 0.05176 0.59242 0.0
O603 O 0.81336 0.04987 0.92052 0.0
O604 O 0.79947 0.07539 0.89713 0.0
H605 H 0.62188 0.10075 0.73616 0.0
H606 H 0.55981 0.09029 0.66163 0.0
C607 C 0.59004 0.08996 0.73097 0.0
H608 H 0.55328 0.08966 0.79357 0.0
H609 H 0.78513 0.10678 0.89197 0.0
O610 O 0.74763 0.02047 0.83761 0.0
C611 C 0.83715 0.06315 0.89566 0.0
Co612 Co 0.52935 0.04259 0.3438 0.0
Co613 Co 0.54 0.07883 0.30631 0.0
C614 C 0.59517 0.05418 0.16017 0.0
O615 O 0.5826 0.04188 0.21145 0.0
O616 O 0.57529 0.06769 0.18913 0.0
C617 C 0.51823 0.01058 0.45919 0.0
O618 O 0.58403 1.00633 0.45489 0.0
C619 C 0.60967 0.1089 0.26215 0.0
C620 C 0.52511 0.1256 0.29636 0.0
C621 C 0.59401 0.12477 0.26671 0.0
N622 N 0.55282 0.10079 0.28934 0.0
N623 N 0.50213 0.11087 0.30791 0.0
C624 C 0.67678 0.10156 0.22969 0.0
H625 H 0.6734 0.08861 0.23255 0.0
H626 H 0.7204 0.1055 0.27689 0.0
H627 H 0.68875 0.10536 0.15367 0.0
C628 C 0.59843 0.05307 0.52411 0.0
N629 N 0.57722 0.056 0.43247 0.0
N630 N 0.59028 0.07079 0.41174 0.0
C631 C 0.62498 0.07737 0.48707 0.0
C632 C 0.63182 0.06618 0.55944 0.0
C633 C 0.57134 0.03982 0.58506 0.0
H634 H 0.51581 0.03773 0.56736 0.0
H635 H 0.60264 0.02923 0.5699 0.0
H636 H 0.57361 0.04233 0.66478 0.0
O637 O 0.43529 0.05053 0.33356 0.0
O638 O 0.44126 0.07625 0.34669 0.0
H639 H 0.60076 0.10182 0.48234 0.0
H640 H 0.67309 0.09687 0.56249 0.0
C641 C 0.6469 0.09413 0.49202 0.0
H642 H 0.68401 0.09653 0.43187 0.0
H643 H 0.45223 0.10771 0.33108 0.0
O644 O 0.49805 0.02296 0.4157 0.0
C645 C 0.4081 0.06354 0.35626 0.0
Co646 Co 0.70764 0.2202 0.34377 0.0
Co647 Co 0.69698 0.18396 0.30631 0.0
C648 C 0.6418 0.20861 0.16018 0.0
O649 O 0.65437 0.22091 0.21145 0.0
O650 O 0.66169 0.1951 0.18913 0.0
C651 C 0.71874 0.25221 0.45917 0.0
O652 O 0.65294 0.25645 0.45492 0.0
C653 C 0.62726 0.15389 0.26225 0.0
C654 C 0.7118 0.13719 0.29641 0.0
C655 C 0.64287 0.13803 0.26694 0.0
N656 N 0.68414 0.162 0.28938 0.0
N657 N 0.73482 0.15192 0.30792 0.0
C658 C 0.56017 0.16125 0.22977 0.0
H659 H 0.56355 0.17419 0.2327 0.0
H660 H 0.51652 0.15729 0.27691 0.0
H661 H 0.54824 0.15746 0.15372 0.0
C662 C 0.63859 0.20972 0.52413 0.0
N663 N 0.65978 0.20679 0.43248 0.0
N664 N 0.64671 0.19201 0.41174 0.0
C665 C 0.61201 0.18542 0.48709 0.0
C666 C 0.6052 0.19661 0.55947 0.0
C667 C 0.6657 0.22297 0.58508 0.0
H668 H 0.72123 0.22506 0.56734 0.0
H669 H 0.63439 0.23355 0.56997 0.0
H670 H 0.66345 0.22046 0.6648 0.0
O671 O 0.8017 0.21226 0.33349 0.0
O672 O 0.79572 0.18654 0.34669 0.0
H673 H 0.6362 0.16097 0.48234 0.0
H674 H 0.56389 0.16592 0.56254 0.0
C675 C 0.59008 0.16866 0.49205 0.0
H676 H 0.55294 0.16627 0.43192 0.0
H677 H 0.78474 0.15508 0.33099 0.0
O678 O 0.73895 0.23983 0.41565 0.0
C679 C 0.82889 0.19925 0.35623 0.0
Co680 Co 0.47087 0.79185 0.08743 0.0
Co681 Co 0.44815 0.82814 0.05781 0.0
C682 C 0.39008 0.80438 0.91346 0.0
O683 O 0.40761 0.79214 0.96254 0.0
O684 O 0.40894 0.818 0.94108 0.0
C685 C 0.47262 0.76272 0.21848 0.0
O686 O 0.41172 0.76664 0.255 0.0
C687 C 0.37614 0.85884 0.03175 0.0
C688 C 0.462 0.87507 0.06706 0.0
C689 C 0.39244 0.87463 0.04056 0.0
N690 N 0.43345 0.85036 0.05299 0.0
N691 N 0.48469 0.8602 0.07293 0.0
C692 C 0.30814 0.85198 -0.00049 0.0
H693 H 0.31173 0.83905 -0.00578 0.0
H694 H 0.26648 0.85517 0.05234 0.0
H695 H 0.29336 0.85694 0.92715 0.0
C696 C 0.44642 0.80486 0.28431 0.0
N697 N 0.43665 0.80541 0.18704 0.0
N698 N 0.40608 0.81879 0.16554 0.0
C699 C 0.38702 0.82599 0.24901 0.0
C700 C 0.41199 0.81729 0.32694 0.0
C701 C 0.49914 0.79477 0.33536 0.0
H702 H 0.53757 0.79003 0.28232 0.0
H703 H 0.47299 0.78511 0.37492 0.0
H704 H 0.52728 0.80176 0.39148 0.0
O705 O 0.56338 0.79987 0.06342 0.0
O706 O 0.54947 0.82538 0.08678 0.0
H707 H 0.3719 0.85075 0.2477 0.0
H708 H 0.30982 0.8403 0.32227 0.0
C709 C 0.34005 0.83996 0.25291 0.0
H710 H 0.30328 0.83966 0.19033 0.0
H711 H 0.53515 0.85677 0.09199 0.0
O712 O 0.49763 0.77047 0.14633 0.0
C713 C 0.58715 0.81315 0.08828 0.0
Co714 Co 0.26611 0.97093 0.08744 0.0
Co715 Co 0.28884 0.93465 0.05785 0.0
C716 C 0.34692 0.9584 0.91348 0.0
O717 O 0.32938 0.97065 0.96256 0.0
O718 O 0.32805 0.94479 0.94111 0.0
C719 C 0.26435 1.00007 0.21846 0.0
O720 O 0.32525 0.99615 0.25498 0.0
C721 C 0.36089 0.90396 0.03184 0.0
C722 C 0.27504 0.88771 0.06711 0.0
C723 C 0.34463 0.88817 0.04074 0.0
N724 N 0.30356 0.91243 0.05306 0.0
N725 N 0.25233 0.90258 0.07297 0.0
C726 C 0.42888 0.91082 -0.00044 0.0
H727 H 0.42528 0.92375 -0.00569 0.0
H728 H 0.47055 0.90762 0.05234 0.0
H729 H 0.44363 0.90586 0.92717 0.0
C730 C 0.29053 0.95792 0.28433 0.0
N731 N 0.30032 0.95737 0.18706 0.0
N732 N 0.3309 0.94399 0.16557 0.0
C733 C 0.34994 0.9368 0.24905 0.0
C734 C 0.32496 0.9455 0.32697 0.0
C735 C 0.2378 0.96802 0.33538 0.0
H736 H 0.19938 0.97276 0.28233 0.0
H737 H 0.26395 0.97767 0.37492 0.0
H738 H 0.20965 0.96103 0.39151 0.0
O739 O 0.17362 0.96291 0.0634 0.0
O740 O 0.18751 0.9374 0.0868 0.0
H741 H 0.36509 0.91204 0.24777 0.0
H742 H 0.42717 0.9225 0.3223 0.0
C743 C 0.39693 0.92283 0.25295 0.0
H744 H 0.4337 0.92313 0.19036 0.0
H745 H 0.20185 0.90601 0.09196 0.0
O746 O 0.23934 0.99232 0.14632 0.0
C747 C 0.14983 0.94964 0.08827 0.0
Co748 Co 0.45762 0.9702 0.64013 0.0
Co749 Co 0.44697 0.93396 0.67762 0.0
C750 C 0.39181 0.95861 0.82376 0.0
O751 O 0.40438 0.97091 0.77248 0.0
O752 O 0.41169 0.9451 0.7948 0.0
C753 C 0.46874 1.00221 0.52474 0.0
O754 O 0.40294 0.00646 0.52903 0.0
C755 C 0.37731 0.90388 0.72178 0.0
C756 C 0.46187 0.88719 0.68757 0.0
C757 C 0.39297 0.88802 0.71722 0.0
N758 N 0.43416 0.912 0.69459 0.0
N759 N 0.48485 0.90192 0.67601 0.0
C760 C 0.3102 0.91123 0.75424 0.0
H761 H 0.31358 0.92418 0.75138 0.0
H762 H 0.26658 0.90729 0.70704 0.0
H763 H 0.29822 0.90743 0.83026 0.0
C764 C 0.38855 0.95972 0.45982 0.0
N765 N 0.40975 0.95679 0.55146 0.0
N766 N 0.3967 0.942 0.57219 0.0
C767 C 0.36199 0.93542 0.49686 0.0
C768 C 0.35516 0.94661 0.42449 0.0
C769 C 0.41564 0.97297 0.39887 0.0
H770 H 0.47117 0.97506 0.41657 0.0
H771 H 0.38433 0.98356 0.41403 0.0
H772 H 0.41337 0.97046 0.31915 0.0
O773 O 0.55169 0.96226 0.65036 0.0
O774 O 0.54572 0.93654 0.63723 0.0
H775 H 0.38622 0.91097 0.50159 0.0
H776 H 0.31388 0.91591 0.42143 0.0
C777 C 0.34008 0.91866 0.49191 0.0
H778 H 0.30296 0.91626 0.55206 0.0
H779 H 0.53475 0.90508 0.65285 0.0
O780 O 0.48893 0.98983 0.56823 0.0
C781 C 0.57888 0.94925 0.62767 0.0
Co782 Co 0.27934 0.79259 0.64016 0.0
Co783 Co 0.29 0.82883 0.67762 0.0
C784 C 0.34518 0.80418 0.82376 0.0
O785 O 0.33261 0.79188 0.77248 0.0
O786 O 0.32529 0.81769 0.7948 0.0
C787 C 0.26823 0.76058 0.52476 0.0
O788 O 0.33404 0.75633 0.52902 0.0
C789 C 0.35972 0.85889 0.72168 0.0
C790 C 0.27517 0.8756 0.68752 0.0
C791 C 0.3441 0.87476 0.71699 0.0
N792 N 0.30284 0.85079 0.69455 0.0
N793 N 0.25216 0.86087 0.67601 0.0
C794 C 0.42681 0.85154 0.75416 0.0
H795 H 0.42343 0.8386 0.75123 0.0
H796 H 0.47046 0.8555 0.70702 0.0
H797 H 0.43874 0.85533 0.83021 0.0
C798 C 0.34838 0.80307 0.4598 0.0
N799 N 0.3272 0.806 0.55145 0.0
N800 N 0.34027 0.82078 0.57219 0.0
C801 C 0.37497 0.82737 0.49684 0.0
C802 C 0.38178 0.81618 0.42446 0.0
C803 C 0.32128 0.78982 0.39885 0.0
H804 H 0.26575 0.78773 0.41659 0.0
H805 H 0.35259 0.77923 0.41396 0.0
H806 H 0.32353 0.79233 0.31913 0.0
O807 O 0.18528 0.80053 0.65044 0.0
O808 O 0.19126 0.82625 0.63724 0.0
H809 H 0.35077 0.85182 0.50159 0.0
H810 H 0.42309 0.84687 0.42139 0.0
C811 C 0.3969 0.84412 0.49188 0.0
H812 H 0.43404 0.84652 0.55201 0.0
H813 H 0.20224 0.85771 0.65294 0.0
O814 O 0.24803 0.77296 0.56828 0.0
C815 C 0.15809 0.81353 0.6277 0.0
Co816 Co 0.5161 0.72094 0.39656 0.0
Co817 Co 0.53882 0.68465 0.42618 0.0
C818 C 0.5969 0.70841 0.57053 0.0
O819 O 0.57936 0.72065 0.52145 0.0
O820 O 0.57803 0.69479 0.54291 0.0
C821 C 0.51435 0.75007 0.26552 0.0
O822 O 0.57526 0.74615 0.229 0.0
C823 C 0.61083 0.65395 0.45224 0.0
C824 C 0.52497 0.63771 0.41692 0.0
C825 C 0.59454 0.63816 0.44341 0.0
N826 N 0.55352 0.66243 0.43099 0.0
N827 N 0.50229 0.65259 0.41105 0.0
C828 C 0.67883 0.66081 0.48447 0.0
H829 H 0.67525 0.67374 0.48977 0.0
H830 H 0.72049 0.65762 0.43164 0.0
H831 H 0.69362 0.65584 0.55684 0.0
C832 C 0.54055 0.70793 0.19969 0.0
N833 N 0.55033 0.70738 0.29695 0.0
N834 N 0.5809 0.69399 0.31845 0.0
C835 C 0.59996 0.6868 0.23498 0.0
C836 C 0.57498 0.6955 0.15705 0.0
C837 C 0.48783 0.71802 0.14863 0.0
H838 H 0.4494 0.72276 0.20167 0.0
H839 H 0.51399 0.72767 0.10908 0.0
H840 H 0.45969 0.71103 0.09251 0.0
O841 O 0.4236 0.71292 0.42058 0.0
O842 O 0.4375 0.68741 0.39721 0.0
H843 H 0.61507 0.66204 0.2363 0.0
H844 H 0.67716 0.67249 0.16172 0.0
C845 C 0.64692 0.67283 0.23108 0.0
H846 H 0.68369 0.67313 0.29366 0.0
H847 H 0.45182 0.65602 0.392 0.0
O848 O 0.48934 0.74232 0.33766 0.0
C849 C 0.39982 0.69964 0.39572 0.0
Co850 Co 0.72086 0.54185 0.39649 0.0
Co851 Co 0.69814 0.57814 0.42609 0.0
C852 C 0.64006 0.55438 0.57046 0.0
O853 O 0.6576 0.54214 0.52138 0.0
O854 O 0.65893 0.568 0.54283 0.0
C855 C 0.72263 0.51272 0.26548 0.0
O856 O 0.66173 0.51664 0.22895 0.0
C857 C 0.62609 0.60883 0.45211 0.0
C858 C 0.71194 0.62508 0.41685 0.0
C859 C 0.64235 0.62462 0.44323 0.0
N860 N 0.68342 0.60036 0.43089 0.0
N861 N 0.73464 0.61021 0.41098 0.0
C862 C 0.5581 0.60197 0.48439 0.0
H863 H 0.5617 0.58904 0.48963 0.0
H864 H 0.51642 0.60517 0.43161 0.0
H865 H 0.54334 0.60693 0.55679 0.0
C866 C 0.69644 0.55486 0.19961 0.0
N867 N 0.68665 0.55541 0.29688 0.0
N868 N 0.65608 0.5688 0.31837 0.0
C869 C 0.63703 0.57599 0.23489 0.0
C870 C 0.66201 0.56729 0.15697 0.0
C871 C 0.74916 0.54477 0.14855 0.0
H872 H 0.78759 0.54003 0.2016 0.0
H873 H 0.72301 0.53512 0.10901 0.0
H874 H 0.77731 0.55176 0.09243 0.0
O875 O 0.81336 0.54987 0.42052 0.0
O876 O 0.79947 0.57539 0.39714 0.0
H877 H 0.62189 0.60075 0.23619 0.0
H878 H 0.55981 0.59029 0.16165 0.0
C879 C 0.59004 0.58996 0.23099 0.0
H880 H 0.55327 0.58966 0.29358 0.0
H881 H 0.78513 0.60678 0.39199 0.0
O882 O 0.74763 0.52047 0.33761 0.0
C883 C 0.83715 0.56315 0.39566 0.0
Co884 Co 0.52935 0.54259 0.8438 0.0
Co885 Co 0.54 0.57883 0.80632 0.0
C886 C 0.59517 0.55418 0.66018 0.0
O887 O 0.5826 0.54188 0.71146 0.0
O888 O 0.57529 0.56769 0.68914 0.0
C889 C 0.51823 0.51058 0.95919 0.0
O890 O 0.58403 0.50633 0.9549 0.0
C891 C 0.60967 0.60891 0.76217 0.0
C892 C 0.5251 0.6256 0.79638 0.0
C893 C 0.59401 0.62477 0.76674 0.0
N894 N 0.55282 0.60079 0.78935 0.0
N895 N 0.50212 0.61086 0.80793 0.0
C896 C 0.67678 0.60156 0.7297 0.0
H897 H 0.6734 0.58861 0.73256 0.0
H898 H 0.7204 0.6055 0.77691 0.0
H899 H 0.68876 0.60536 0.65369 0.0
C900 C 0.59841 0.55307 0.02412 0.0
N901 N 0.57721 0.556 0.93248 0.0
N902 N 0.59027 0.57079 0.91175 0.0
C903 C 0.62497 0.57737 0.98708 0.0
C904 C 0.6318 0.56618 0.05945 0.0
C905 C 0.57132 0.53982 0.08507 0.0
H906 H 0.51579 0.53773 0.06737 0.0
H907 H 0.60263 0.52923 0.06992 0.0
H908 H 0.57359 0.54233 0.16479 0.0
O909 O 0.43529 0.55053 0.83356 0.0
O910 O 0.44126 0.57625 0.8467 0.0
H911 H 0.60076 0.60182 0.98234 0.0
H912 H 0.67309 0.59687 0.06251 0.0
C913 C 0.64689 0.59413 -0.00797 0.0
H914 H 0.68401 0.59653 0.93188 0.0
H915 H 0.45222 0.6077 0.83109 0.0
O916 O 0.49804 0.52296 0.9157 0.0
C917 C 0.40809 0.56354 0.85626 0.0
Co918 Co 0.70763 0.7202 0.84384 0.0
Co919 Co 0.69698 0.68396 0.80637 0.0
C920 C 0.6418 0.70861 0.66024 0.0
O921 O 0.65437 0.72091 0.71151 0.0
O922 O 0.66169 0.6951 0.68919 0.0
C923 C 0.71874 0.75221 0.95923 0.0
O924 O 0.65293 0.75645 0.95498 0.0
C925 C 0.62726 0.65389 0.7623 0.0
C926 C 0.7118 0.63719 0.79646 0.0
C927 C 0.64287 0.63803 0.76698 0.0
N928 N 0.68413 0.662 0.78944 0.0
N929 N 0.73481 0.65192 0.80797 0.0
C930 C 0.56016 0.66125 0.72983 0.0
H931 H 0.56355 0.67419 0.73276 0.0
H932 H 0.51652 0.65729 0.77697 0.0
H933 H 0.54823 0.65746 0.65377 0.0
C934 C 0.63859 0.70972 0.02419 0.0
N935 N 0.65978 0.70679 0.93254 0.0
N936 N 0.64671 0.69201 0.91181 0.0
C937 C 0.61201 0.68542 0.98715 0.0
C938 C 0.6052 0.69661 0.05953 0.0
C939 C 0.66569 0.72297 0.08514 0.0
H940 H 0.72122 0.72506 0.0674 0.0
H941 H 0.63438 0.73355 0.07003 0.0
H942 H 0.66345 0.72046 0.16486 0.0
O943 O 0.8017 0.71226 0.83356 0.0
O944 O 0.79572 0.68654 0.84675 0.0
H945 H 0.6362 0.66097 0.9824 0.0
H946 H 0.56389 0.66592 0.0626 0.0
C947 C 0.59007 0.66866 -0.00789 0.0
H948 H 0.55294 0.66627 0.93198 0.0
H949 H 0.78474 0.65508 0.83105 0.0
O950 O 0.73894 0.73983 0.91572 0.0
C951 C 0.82888 0.69925 0.8563 0.0
Co952 Co 0.47087 0.29185 0.58737 0.0
Co953 Co 0.44816 0.32814 0.55775 0.0
C954 C 0.39008 0.30438 0.4134 0.0
O955 O 0.40762 0.29214 0.46248 0.0
O956 O 0.40895 0.318 0.44102 0.0
C957 C 0.47262 0.26272 0.71841 0.0
O958 O 0.41172 0.26664 0.75493 0.0
C959 C 0.37614 0.35884 0.53169 0.0
C960 C 0.46201 0.37507 0.56701 0.0
C961 C 0.39244 0.37463 0.54052 0.0
N962 N 0.43346 0.35036 0.55294 0.0
N963 N 0.48469 0.3602 0.57288 0.0
C964 C 0.30814 0.35198 0.49946 0.0
H965 H 0.31173 0.33905 0.49416 0.0
H966 H 0.26649 0.35517 0.55229 0.0
H967 H 0.29336 0.35695 0.42709 0.0
C968 C 0.44642 0.30486 0.78424 0.0
N969 N 0.43665 0.30541 0.68698 0.0
N970 N 0.40608 0.31879 0.66548 0.0
C971 C 0.38702 0.32599 0.74895 0.0
C972 C 0.41199 0.31729 0.82688 0.0
C973 C 0.49915 0.29477 0.8353 0.0
H974 H 0.53758 0.29003 0.78226 0.0
H975 H 0.47299 0.28511 0.87486 0.0
H976 H 0.52729 0.30176 0.89142 0.0
O977 O 0.56338 0.29987 0.56335 0.0
O978 O 0.54948 0.32538 0.58672 0.0
H979 H 0.37191 0.35075 0.74764 0.0
H980 H 0.30982 0.3403 0.82221 0.0
C981 C 0.34005 0.33996 0.75285 0.0
H982 H 0.30328 0.33966 0.69027 0.0
H983 H 0.53516 0.35677 0.59193 0.0
O984 O 0.49763 0.27047 0.64627 0.0
C985 C 0.58716 0.31315 0.58822 0.0
Co986 Co 0.26611 0.47093 0.58743 0.0
Co987 Co 0.28883 0.43465 0.55784 0.0
C988 C 0.34691 0.4584 0.41347 0.0
O989 O 0.32938 0.47065 0.46255 0.0
O990 O 0.32805 0.44479 0.4411 0.0
C991 C 0.26435 0.50007 0.71845 0.0
O992 O 0.32525 0.49615 0.75498 0.0
C993 C 0.36089 0.40396 0.53182 0.0
C994 C 0.27504 0.38771 0.56708 0.0
C995 C 0.34463 0.38817 0.5407 0.0
N996 N 0.30356 0.41243 0.55304 0.0
N997 N 0.25233 0.40258 0.57295 0.0
C998 C 0.42888 0.41082 0.49954 0.0
H999 H 0.42528 0.42375 0.4943 0.0
H1000 H 0.47055 0.40762 0.55231 0.0
H1001 H 0.44363 0.40586 0.42714 0.0
C1002 C 0.29054 0.45792 0.78432 0.0
N1003 N 0.30032 0.45737 0.68705 0.0
N1004 N 0.3309 0.44399 0.66555 0.0
C1005 C 0.34995 0.4368 0.74903 0.0
C1006 C 0.32497 0.4455 0.82696 0.0
C1007 C 0.23781 0.46802 0.83537 0.0
H1008 H 0.19939 0.47276 0.78233 0.0
H1009 H 0.26397 0.47767 0.87492 0.0
H1010 H 0.20967 0.46103 0.8915 0.0
O1011 O 0.17362 0.46291 0.5634 0.0
O1012 O 0.18751 0.4374 0.58679 0.0
H1013 H 0.36509 0.41203 0.74774 0.0
H1014 H 0.42717 0.4225 0.82228 0.0
C1015 C 0.39693 0.42283 0.75294 0.0
H1016 H 0.4337 0.42313 0.69034 0.0
H1017 H 0.20185 0.40601 0.59194 0.0
O1018 O 0.23935 0.49232 0.64631 0.0
C1019 C 0.14983 0.44964 0.58827 0.0
Co1020 Co 0.45763 0.4702 0.14013 0.0
Co1021 Co 0.44698 0.43396 0.17761 0.0
C1022 C 0.39181 0.45861 0.32375 0.0
O1023 O 0.40438 0.47091 0.27247 0.0
O1024 O 0.41169 0.4451 0.29479 0.0
C1025 C 0.46874 0.50221 0.02474 0.0
O1026 O 0.40294 0.50646 0.02902 0.0
C1027 C 0.37731 0.40388 0.22176 0.0
C1028 C 0.46187 0.38719 0.18754 0.0
C1029 C 0.39297 0.38802 0.21719 0.0
N1030 N 0.43416 0.412 0.19457 0.0
N1031 N 0.48485 0.40192 0.176 0.0
C1032 C 0.3102 0.41123 0.25422 0.0
H1033 H 0.31358 0.42418 0.25136 0.0
H1034 H 0.26658 0.40729 0.20702 0.0
H1035 H 0.29822 0.40743 0.33024 0.0
C1036 C 0.38856 0.45972 0.95981 0.0
N1037 N 0.40976 0.45679 0.05145 0.0
N1038 N 0.39671 0.442 0.07218 0.0
C1039 C 0.362 0.43542 -0.00315 0.0
C1040 C 0.35517 0.44661 0.92447 0.0
C1041 C 0.41565 0.47297 0.89886 0.0
H1042 H 0.47119 0.47506 0.91656 0.0
H1043 H 0.38435 0.48356 0.91401 0.0
H1044 H 0.41339 0.47046 0.81914 0.0
O1045 O 0.55169 0.46226 0.15037 0.0
O1046 O 0.54572 0.43654 0.13723 0.0
H1047 H 0.38622 0.41097 0.00158 0.0
H1048 H 0.31389 0.41591 0.92142 0.0
C1049 C 0.34008 0.41866 0.99189 0.0
H1050 H 0.30296 0.41626 0.05205 0.0
H1051 H 0.53475 0.40508 0.15284 0.0
O1052 O 0.48893 0.48983 0.06823 0.0
C1053 C 0.57888 0.44925 0.12767 0.0
Co1054 Co 0.27934 0.29259 0.14009 0.0
Co1055 Co 0.29 0.32883 0.17756 0.0
C1056 C 0.34518 0.30418 0.32369 0.0
O1057 O 0.33261 0.29188 0.27242 0.0
O1058 O 0.32529 0.31769 0.29474 0.0
C1059 C 0.26824 0.26058 0.0247 0.0
O1060 O 0.33405 0.25634 0.02895 0.0
C1061 C 0.35972 0.35889 0.22163 0.0
C1062 C 0.27518 0.3756 0.18747 0.0
C1063 C 0.34411 0.37476 0.21695 0.0
N1064 N 0.30284 0.35079 0.19449 0.0
N1065 N 0.25216 0.36087 0.17596 0.0
C1066 C 0.42681 0.35154 0.2541 0.0
H1067 H 0.42343 0.3386 0.25117 0.0
H1068 H 0.47046 0.35549 0.20696 0.0
H1069 H 0.43874 0.35533 0.33016 0.0
C1070 C 0.34839 0.30307 0.95974 0.0
N1071 N 0.3272 0.306 0.05139 0.0
N1072 N 0.34027 0.32078 0.07213 0.0
C1073 C 0.37497 0.32737 -0.00322 0.0
C1074 C 0.38178 0.31618 0.9244 0.0
C1075 C 0.32128 0.28982 0.89879 0.0
H1076 H 0.26575 0.28773 0.91653 0.0
H1077 H 0.35259 0.27923 0.9139 0.0
H1078 H 0.32353 0.29233 0.81907 0.0
O1079 O 0.18528 0.30053 0.15037 0.0
O1080 O 0.19126 0.32625 0.13718 0.0
H1081 H 0.35078 0.35182 0.00153 0.0
H1082 H 0.42309 0.34687 0.92133 0.0
C1083 C 0.3969 0.34412 0.99182 0.0
H1084 H 0.43404 0.34652 0.05195 0.0
H1085 H 0.20224 0.35771 0.15288 0.0
O1086 O 0.24803 0.27296 0.06822 0.0
C1087 C 0.15809 0.31353 0.12763 0.0
loop_
_geom_bond_atom_site_label_1
_geom_bond_atom_site_label_2
_geom_bond_distance
_geom_bond_site_symmetry_2
_ccdc_geom_bond_type
Co0 O3 1.970 . S
Co0 N17 1.989 . S
Co0 O25 1.967 1_455 S
Co0 O32 1.920 . S
Co1 O4 1.966 . S
Co1 N10 2.022 . S
Co1 N18 1.993 . S
Co1 O26 1.941 1_455 S
C2 O3 1.258 . S
C2 O4 1.263 . S
O3 Co0 1.970 . S
O3 C2 1.258 . S
O4 Co1 1.966 . S
O4 C2 1.263 . S
C5 O6 1.235 . S
C5 O32 1.289 . S
O6 C5 1.235 . S
C7 C9 1.400 . S
C7 N10 1.351 . S
C7 C12 1.501 . S
C8 C9 1.387 . S
C8 N11 1.341 . S
C9 C7 1.400 . S
C9 C8 1.387 . S
N10 Co1 2.022 . S
N10 C7 1.351 . S
N10 N11 1.365 . S
N11 C8 1.341 . S
N11 N10 1.365 . S
N11 H31 0.862 1_455 S
C12 C7 1.501 . S
C12 H13 0.961 . S
C12 H14 0.961 . S
C12 H15 0.960 . S
H13 C12 0.961 . S
H14 C12 0.961 . S
H15 C12 0.960 . S
C16 N17 1.342 . S
C16 C20 1.401 . S
C16 C21 1.499 . S
N17 Co0 1.989 . S
N17 C16 1.342 . S
N17 N18 1.388 . S
N18 Co1 1.993 . S
N18 N17 1.388 . S
N18 C19 1.346 . S
C19 N18 1.346 . S
C19 C20 1.396 . S
C19 C29 1.510 . S
C20 C16 1.401 . S
C20 C19 1.396 . S
C21 C16 1.499 . S
C21 H22 0.959 . S
C21 H23 0.960 . S
C21 H24 0.961 . S
H22 C21 0.959 . S
H23 C21 0.960 . S
H24 C21 0.961 . S
O25 Co0 1.967 1_655 S
O25 C33 1.258 . S
O26 Co1 1.941 1_655 S
O26 C33 1.266 . S
H27 C29 0.959 . S
H28 C29 0.961 . S
C29 C19 1.510 . S
C29 H27 0.959 . S
C29 H28 0.961 . S
C29 H30 0.960 . S
H30 C29 0.960 . S
H31 N11 0.862 1_655 S
O32 Co0 1.920 . S
O32 C5 1.289 . S
C33 O25 1.258 . S
C33 O26 1.266 . S
Co34 O37 1.970 . S
Co34 N51 1.989 . S
Co34 O59 1.967 . S
Co34 O66 1.920 . S
Co35 O38 1.966 . S
Co35 N44 2.022 . S
Co35 N52 1.993 . S
Co35 O60 1.941 . S
C36 O37 1.258 . S
C36 O38 1.263 . S
O37 Co34 1.970 . S
O37 C36 1.258 . S
O38 Co35 1.966 . S
O38 C36 1.263 . S
C39 O40 1.235 . S
C39 O66 1.289 . S
O40 C39 1.235 . S
C41 C43 1.400 . S
C41 N44 1.351 . S
C41 C46 1.501 . S
C42 C43 1.387 . S
C42 N45 1.341 . S
C43 C41 1.400 . S
C43 C42 1.387 . S
N44 Co35 2.022 . S
N44 C41 1.351 . S
N44 N45 1.365 . S
N45 C42 1.341 . S
N45 N44 1.365 . S
N45 H65 0.862 . S
C46 C41 1.501 . S
C46 H47 0.961 . S
C46 H48 0.961 . S
C46 H49 0.960 . S
H47 C46 0.961 . S
H48 C46 0.961 . S
H49 C46 0.960 . S
C50 N51 1.342 . S
C50 C54 1.401 . S
C50 C55 1.499 . S
N51 Co34 1.989 . S
N51 C50 1.342 . S
N51 N52 1.388 . S
N52 Co35 1.993 . S
N52 N51 1.388 . S
N52 C53 1.346 . S
C53 N52 1.346 . S
C53 C54 1.396 . S
C53 C63 1.510 . S
C54 C50 1.401 . S
C54 C53 1.396 . S
C55 C50 1.499 . S
C55 H56 0.959 . S
C55 H57 0.960 . S
C55 H58 0.961 . S
H56 C55 0.959 . S
H57 C55 0.960 . S
H58 C55 0.961 . S
O59 Co34 1.967 . S
O59 C67 1.258 . S
O60 Co35 1.941 . S
O60 C67 1.266 . S
H61 C63 0.959 . S
H62 C63 0.961 . S
C63 C53 1.510 . S
C63 H61 0.959 . S
C63 H62 0.961 . S
C63 H64 0.960 . S
H64 C63 0.960 . S
H65 N45 0.862 . S
O66 Co34 1.920 . S
O66 C39 1.289 . S
C67 O59 1.258 . S
C67 O60 1.266 . S
Co68 O71 1.970 . S
Co68 N85 1.989 . S
Co68 O93 1.967 1_455 S
Co68 O100 1.920 . S
Co69 O72 1.966 . S
Co69 N78 2.022 . S
Co69 N86 1.993 . S
Co69 O94 1.941 1_455 S
C70 O71 1.258 . S
C70 O72 1.263 . S
O71 Co68 1.970 . S
O71 C70 1.258 . S
O72 Co69 1.966 . S
O72 C70 1.263 . S
C73 O74 1.235 . S
C73 O100 1.289 . S
O74 C73 1.235 . S
C75 C77 1.400 . S
C75 N78 1.351 . S
C75 C80 1.501 . S
C76 C77 1.387 . S
C76 N79 1.341 . S
C77 C75 1.400 . S
C77 C76 1.387 . S
N78 Co69 2.022 . S
N78 C75 1.351 . S
N78 N79 1.365 . S
N79 C76 1.341 . S
N79 N78 1.365 . S
N79 H99 0.862 1_455 S
C80 C75 1.501 . S
C80 H81 0.961 . S
C80 H82 0.961 . S
C80 H83 0.960 . S
H81 C80 0.961 . S
H82 C80 0.961 . S
H83 C80 0.960 . S
C84 N85 1.342 1_554 S
C84 C88 1.401 . S
C84 C89 1.499 . S
N85 Co68 1.989 . S
N85 C84 1.342 1_556 S
N85 N86 1.388 . S
N86 Co69 1.993 . S
N86 N85 1.388 . S
N86 C87 1.346 1_556 S
C87 N86 1.346 1_554 S
C87 C88 1.396 . S
C87 C97 1.510 . S
C88 C84 1.401 . S
C88 C87 1.396 . S
C89 C84 1.499 . S
C89 H90 0.959 . S
C89 H91 0.960 . S
C89 H92 0.961 . S
H90 C89 0.959 . S
H91 C89 0.960 . S
H92 C89 0.961 . S
O93 Co68 1.967 1_655 S
O93 C101 1.258 . S
O94 Co69 1.941 1_655 S
O94 C101 1.266 . S
H95 C97 0.959 . S
H96 C97 0.961 . S
C97 C87 1.510 . S
C97 H95 0.959 . S
C97 H96 0.961 . S
C97 H98 0.960 . S
H98 C97 0.960 . S
H99 N79 0.862 1_655 S
O100 Co68 1.920 . S
O100 C73 1.289 . S
C101 O93 1.258 . S
C101 O94 1.266 . S
Co102 O105 1.970 . S
Co102 N119 1.989 . S
Co102 O127 1.967 . S
Co102 O134 1.920 . S
Co103 O106 1.966 . S
Co103 N112 2.022 . S
Co103 N120 1.993 . S
Co103 O128 1.941 . S
C104 O105 1.258 . S
C104 O106 1.263 . S
O105 Co102 1.970 . S
O105 C104 1.258 . S
O106 Co103 1.966 . S
O106 C104 1.263 . S
C107 O108 1.235 . S
C107 O134 1.289 . S
O108 C107 1.235 . S
C109 C111 1.400 . S
C109 N112 1.351 . S
C109 C114 1.501 . S
C110 C111 1.387 . S
C110 N113 1.341 . S
C111 C109 1.400 . S
C111 C110 1.387 . S
N112 Co103 2.022 . S
N112 C109 1.351 . S
N112 N113 1.365 . S
N113 C110 1.341 . S
N113 N112 1.365 . S
N113 H133 0.862 . S
C114 C109 1.501 . S
C114 H115 0.961 . S
C114 H116 0.961 . S
C114 H117 0.960 . S
H115 C114 0.961 . S
H116 C114 0.961 . S
H117 C114 0.960 . S
C118 N119 1.342 1_554 S
C118 C122 1.401 . S
C118 C123 1.499 . S
N119 Co102 1.989 . S
N119 C118 1.342 1_556 S
N119 N120 1.388 . S
N120 Co103 1.993 . S
N120 N119 1.388 . S
N120 C121 1.346 1_556 S
C121 N120 1.346 1_554 S
C121 C122 1.396 . S
C121 C131 1.510 . S
C122 C118 1.401 . S
C122 C121 1.396 . S
C123 C118 1.499 . S
C123 H124 0.959 . S
C123 H125 0.960 . S
C123 H126 0.961 . S
H124 C123 0.959 . S
H125 C123 0.960 . S
H126 C123 0.961 . S
O127 Co102 1.967 . S
O127 C135 1.258 . S
O128 Co103 1.941 . S
O128 C135 1.266 . S
H129 C131 0.959 . S
H130 C131 0.961 . S
C131 C121 1.510 . S
C131 H129 0.959 . S
C131 H130 0.961 . S
C131 H132 0.960 . S
H132 C131 0.960 . S
H133 N113 0.862 . S
O134 Co102 1.920 . S
O134 C107 1.289 . S
C135 O127 1.258 . S
C135 O128 1.266 . S
Co136 O139 1.970 . S
Co136 N153 1.989 . S
Co136 O161 1.967 1_655 S
Co136 O168 1.920 . S
Co137 O140 1.966 . S
Co137 N146 2.022 . S
Co137 N154 1.993 . S
Co137 O162 1.941 1_655 S
C138 O139 1.258 . S
C138 O140 1.263 . S
O139 Co136 1.970 . S
O139 C138 1.258 . S
O140 Co137 1.966 . S
O140 C138 1.263 . S
C141 O142 1.235 . S
C141 O168 1.289 . S
O142 C141 1.235 . S
C143 C145 1.400 . S
C143 N146 1.351 . S
C143 C148 1.501 . S
C144 C145 1.387 . S
C144 N147 1.341 . S
C145 C143 1.400 . S
C145 C144 1.387 . S
N146 Co137 2.022 . S
N146 C143 1.351 . S
N146 N147 1.365 . S
N147 C144 1.341 . S
N147 N146 1.365 . S
N147 H167 0.862 1_655 S
C148 C143 1.501 . S
C148 H149 0.961 . S
C148 H150 0.961 . S
C148 H151 0.960 . S
H149 C148 0.961 . S
H150 C148 0.961 . S
H151 C148 0.960 . S
C152 N153 1.342 . S
C152 C156 1.401 . S
C152 C157 1.499 . S
N153 Co136 1.989 . S
N153 C152 1.342 . S
N153 N154 1.388 . S
N154 Co137 1.993 . S
N154 N153 1.388 . S
N154 C155 1.346 . S
C155 N154 1.346 . S
C155 C156 1.396 . S
C155 C165 1.510 . S
C156 C152 1.401 . S
C156 C155 1.396 . S
C157 C152 1.499 . S
C157 H158 0.959 . S
C157 H159 0.960 . S
C157 H160 0.961 . S
H158 C157 0.959 . S
H159 C157 0.960 . S
H160 C157 0.961 . S
O161 Co136 1.967 1_455 S
O161 C169 1.258 . S
O162 Co137 1.941 1_455 S
O162 C169 1.266 . S
H163 C165 0.959 . S
H164 C165 0.961 . S
C165 C155 1.510 . S
C165 H163 0.959 . S
C165 H164 0.961 . S
C165 H166 0.960 . S
H166 C165 0.960 . S
H167 N147 0.862 1_455 S
O168 Co136 1.920 . S
O168 C141 1.289 . S
C169 O161 1.258 . S
C169 O162 1.266 . S
Co170 O173 1.970 . S
Co170 N187 1.989 . S
Co170 O195 1.967 . S
Co170 O202 1.920 . S
Co171 O174 1.966 . S
Co171 N180 2.022 . S
Co171 N188 1.993 . S
Co171 O196 1.941 . S
C172 O173 1.258 . S
C172 O174 1.263 . S
O173 Co170 1.970 . S
O173 C172 1.258 . S
O174 Co171 1.966 . S
O174 C172 1.263 . S
C175 O176 1.235 . S
C175 O202 1.289 . S
O176 C175 1.235 . S
C177 C179 1.400 . S
C177 N180 1.351 . S
C177 C182 1.501 . S
C178 C179 1.387 . S
C178 N181 1.341 . S
C179 C177 1.400 . S
C179 C178 1.387 . S
N180 Co171 2.022 . S
N180 C177 1.351 . S
N180 N181 1.365 . S
N181 C178 1.341 . S
N181 N180 1.365 . S
N181 H201 0.862 . S
C182 C177 1.501 . S
C182 H183 0.961 . S
C182 H184 0.961 . S
C182 H185 0.960 . S
H183 C182 0.961 . S
H184 C182 0.961 . S
H185 C182 0.960 . S
C186 N187 1.342 . S
C186 C190 1.401 . S
C186 C191 1.499 . S
N187 Co170 1.989 . S
N187 C186 1.342 . S
N187 N188 1.388 . S
N188 Co171 1.993 . S
N188 N187 1.388 . S
N188 C189 1.346 . S
C189 N188 1.346 . S
C189 C190 1.396 . S
C189 C199 1.510 . S
C190 C186 1.401 . S
C190 C189 1.396 . S
C191 C186 1.499 . S
C191 H192 0.959 . S
C191 H193 0.960 . S
C191 H194 0.961 . S
H192 C191 0.959 . S
H193 C191 0.960 . S
H194 C191 0.961 . S
O195 Co170 1.967 . S
O195 C203 1.258 . S
O196 Co171 1.941 . S
O196 C203 1.266 . S
H197 C199 0.959 . S
H198 C199 0.961 . S
C199 C189 1.510 . S
C199 H197 0.959 . S
C199 H198 0.961 . S
C199 H200 0.960 . S
H200 C199 0.960 . S
H201 N181 0.862 . S
O202 Co170 1.920 . S
O202 C175 1.289 . S
C203 O195 1.258 . S
C203 O196 1.266 . S
Co204 O207 1.970 . S
Co204 N221 1.989 . S
Co204 O229 1.967 1_655 S
Co204 O236 1.920 . S
Co205 O208 1.966 . S
Co205 N214 2.022 . S
Co205 N222 1.993 . S
Co205 O230 1.941 1_655 S
C206 O207 1.258 . S
C206 O208 1.263 . S
O207 Co204 1.970 . S
O207 C206 1.258 . S
O208 Co205 1.966 . S
O208 C206 1.263 . S
C209 O210 1.235 . S
C209 O236 1.289 . S
O210 C209 1.235 . S
C211 C213 1.400 . S
C211 N214 1.351 . S
C211 C216 1.501 . S
C212 C213 1.387 . S
C212 N215 1.341 . S
C213 C211 1.400 . S
C213 C212 1.387 . S
N214 Co205 2.022 . S
N214 C211 1.351 . S
N214 N215 1.365 . S
N215 C212 1.341 . S
N215 N214 1.365 . S
N215 H235 0.862 1_655 S
C216 C211 1.501 . S
C216 H217 0.961 . S
C216 H218 0.961 . S
C216 H219 0.960 . S
H217 C216 0.961 . S
H218 C216 0.961 . S
H219 C216 0.960 . S
C220 N221 1.342 1_556 S
C220 C224 1.401 . S
C220 C225 1.499 . S
N221 Co204 1.989 . S
N221 C220 1.342 1_554 S
N221 N222 1.388 . S
N222 Co205 1.993 . S
N222 N221 1.388 . S
N222 C223 1.346 1_554 S
C223 N222 1.346 1_556 S
C223 C224 1.396 . S
C223 C233 1.510 . S
C224 C220 1.401 . S
C224 C223 1.396 . S
C225 C220 1.499 . S
C225 H226 0.959 . S
C225 H227 0.960 . S
C225 H228 0.961 . S
H226 C225 0.959 . S
H227 C225 0.960 . S
H228 C225 0.961 . S
O229 Co204 1.967 1_455 S
O229 C237 1.258 . S
O230 Co205 1.941 1_455 S
O230 C237 1.266 . S
H231 C233 0.959 . S
H232 C233 0.961 . S
C233 C223 1.510 . S
C233 H231 0.959 . S
C233 H232 0.961 . S
C233 H234 0.960 . S
H234 C233 0.960 . S
H235 N215 0.862 1_455 S
O236 Co204 1.920 . S
O236 C209 1.289 . S
C237 O229 1.258 . S
C237 O230 1.266 . S
Co238 O241 1.970 . S
Co238 N255 1.989 . S
Co238 O263 1.967 . S
Co238 O270 1.920 . S
Co239 O242 1.966 . S
Co239 N248 2.022 . S
Co239 N256 1.993 . S
Co239 O264 1.941 . S
C240 O241 1.258 . S
C240 O242 1.263 . S
O241 Co238 1.970 . S
O241 C240 1.258 . S
O242 Co239 1.966 . S
O242 C240 1.263 . S
C243 O244 1.235 . S
C243 O270 1.289 . S
O244 C243 1.235 . S
C245 C247 1.400 . S
C245 N248 1.351 . S
C245 C250 1.501 . S
C246 C247 1.387 . S
C246 N249 1.341 . S
C247 C245 1.400 . S
C247 C246 1.387 . S
N248 Co239 2.022 . S
N248 C245 1.351 . S
N248 N249 1.365 . S
N249 C246 1.341 . S
N249 N248 1.365 . S
N249 H269 0.862 . S
C250 C245 1.501 . S
C250 H251 0.961 . S
C250 H252 0.961 . S
C250 H253 0.960 . S
H251 C250 0.961 . S
H252 C250 0.961 . S
H253 C250 0.960 . S
C254 N255 1.342 1_556 S
C254 C258 1.401 . S
C254 C259 1.499 . S
N255 Co238 1.989 . S
N255 C254 1.342 1_554 S
N255 N256 1.388 . S
N256 Co239 1.993 . S
N256 N255 1.388 . S
N256 C257 1.346 1_554 S
C257 N256 1.346 1_556 S
C257 C258 1.396 . S
C257 C267 1.510 . S
C258 C254 1.401 . S
C258 C257 1.396 . S
C259 C254 1.499 . S
C259 H260 0.959 . S
C259 H261 0.960 . S
C259 H262 0.961 . S
H260 C259 0.959 . S
H261 C259 0.960 . S
H262 C259 0.961 . S
O263 Co238 1.967 . S
O263 C271 1.258 . S
O264 Co239 1.941 . S
O264 C271 1.266 . S
H265 C267 0.959 . S
H266 C267 0.961 . S
C267 C257 1.510 . S
C267 H265 0.959 . S
C267 H266 0.961 . S
C267 H268 0.960 . S
H268 C267 0.960 . S
H269 N249 0.862 . S
O270 Co238 1.920 . S
O270 C243 1.289 . S
C271 O263 1.258 . S
C271 O264 1.266 . S
Co272 O275 1.970 1_556 S
Co272 N289 1.989 . S
Co272 O297 1.967 1_455 S
Co272 O304 1.920 . S
Co273 O276 1.966 1_556 S
Co273 N282 2.022 . S
Co273 N290 1.993 . S
Co273 O298 1.941 1_455 S
C274 O275 1.258 . S
C274 O276 1.263 . S
O275 Co272 1.970 1_554 S
O275 C274 1.258 . S
O276 Co273 1.966 1_554 S
O276 C274 1.263 . S
C277 O278 1.235 . S
C277 O304 1.289 . S
O278 C277 1.235 . S
C279 C281 1.400 . S
C279 N282 1.351 . S
C279 C284 1.501 1_556 S
C280 C281 1.387 . S
C280 N283 1.341 . S
C281 C279 1.400 . S
C281 C280 1.387 . S
N282 Co273 2.022 . S
N282 C279 1.351 . S
N282 N283 1.365 . S
N283 C280 1.341 . S
N283 N282 1.365 . S
N283 H303 0.862 1_455 S
C284 C279 1.501 1_554 S
C284 H285 0.961 . S
C284 H286 0.962 . S
C284 H287 0.960 . S
H285 C284 0.961 . S
H286 C284 0.962 . S
H287 C284 0.960 . S
C288 N289 1.342 . S
C288 C292 1.401 . S
C288 C293 1.499 . S
N289 Co272 1.989 . S
N289 C288 1.342 . S
N289 N290 1.388 . S
N290 Co273 1.993 . S
N290 N289 1.388 . S
N290 C291 1.346 . S
C291 N290 1.346 . S
C291 C292 1.396 . S
C291 C301 1.510 . S
C292 C288 1.401 . S
C292 C291 1.396 . S
C293 C288 1.499 . S
C293 H294 0.959 . S
C293 H295 0.960 . S
C293 H296 0.961 . S
H294 C293 0.959 . S
H295 C293 0.960 . S
H296 C293 0.961 . S
O297 Co272 1.967 1_655 S
O297 C305 1.258 . S
O298 Co273 1.941 1_655 S
O298 C305 1.266 . S
H299 C301 0.959 . S
H300 C301 0.961 . S
C301 C291 1.510 . S
C301 H299 0.959 . S
C301 H300 0.961 . S
C301 H302 0.960 . S
H302 C301 0.960 . S
H303 N283 0.862 1_655 S
O304 Co272 1.920 . S
O304 C277 1.289 . S
C305 O297 1.258 . S
C305 O298 1.266 . S
Co306 O309 1.970 1_556 S
Co306 N323 1.989 . S
Co306 O331 1.967 . S
Co306 O338 1.920 . S
Co307 O310 1.966 1_556 S
Co307 N316 2.022 . S
Co307 N324 1.993 . S
Co307 O332 1.941 . S
C308 O309 1.258 . S
C308 O310 1.263 . S
O309 Co306 1.970 1_554 S
O309 C308 1.258 . S
O310 Co307 1.966 1_554 S
O310 C308 1.263 . S
C311 O312 1.235 . S
C311 O338 1.289 . S
O312 C311 1.235 . S
C313 C315 1.400 . S
C313 N316 1.351 . S
C313 C318 1.501 1_556 S
C314 C315 1.387 . S
C314 N317 1.341 . S
C315 C313 1.400 . S
C315 C314 1.387 . S
N316 Co307 2.022 . S
N316 C313 1.351 . S
N316 N317 1.365 . S
N317 C314 1.341 . S
N317 N316 1.365 . S
N317 H337 0.862 . S
C318 C313 1.501 1_554 S
C318 H319 0.961 . S
C318 H320 0.962 . S
C318 H321 0.960 . S
H319 C318 0.961 . S
H320 C318 0.962 . S
H321 C318 0.960 . S
C322 N323 1.342 . S
C322 C326 1.401 . S
C322 C327 1.499 . S
N323 Co306 1.989 . S
N323 C322 1.342 . S
N323 N324 1.388 . S
N324 Co307 1.993 . S
N324 N323 1.388 . S
N324 C325 1.346 . S
C325 N324 1.346 . S
C325 C326 1.396 . S
C325 C335 1.510 . S
C326 C322 1.401 . S
C326 C325 1.396 . S
C327 C322 1.499 . S
C327 H328 0.959 . S
C327 H329 0.960 . S
C327 H330 0.961 . S
H328 C327 0.959 . S
H329 C327 0.960 . S
H330 C327 0.961 . S
O331 Co306 1.967 . S
O331 C339 1.258 . S
O332 Co307 1.941 . S
O332 C339 1.266 . S
H333 C335 0.959 . S
H334 C335 0.961 . S
C335 C325 1.510 . S
C335 H333 0.959 . S
C335 H334 0.961 . S
C335 H336 0.960 . S
H336 C335 0.960 . S
H337 N317 0.862 . S
O338 Co306 1.920 . S
O338 C311 1.289 . S
C339 O331 1.258 . S
C339 O332 1.266 . S
Co340 O343 1.970 . S
Co340 N357 1.989 . S
Co340 O365 1.967 1_455 S
Co340 O372 1.920 . S
Co341 O344 1.966 . S
Co341 N350 2.022 . S
Co341 N358 1.993 . S
Co341 O366 1.941 1_455 S
C342 O343 1.258 . S
C342 O344 1.263 . S
O343 Co340 1.970 . S
O343 C342 1.258 . S
O344 Co341 1.966 . S
O344 C342 1.263 . S
C345 O346 1.235 . S
C345 O372 1.289 . S
O346 C345 1.235 . S
C347 C349 1.400 . S
C347 N350 1.351 . S
C347 C352 1.501 . S
C348 C349 1.387 . S
C348 N351 1.341 . S
C349 C347 1.400 . S
C349 C348 1.387 . S
N350 Co341 2.022 . S
N350 C347 1.351 . S
N350 N351 1.365 . S
N351 C348 1.341 . S
N351 N350 1.365 . S
N351 H371 0.862 1_455 S
C352 C347 1.501 . S
C352 H353 0.961 . S
C352 H354 0.961 . S
C352 H355 0.960 . S
H353 C352 0.961 . S
H354 C352 0.961 . S
H355 C352 0.960 . S
C356 N357 1.342 . S
C356 C360 1.401 . S
C356 C361 1.499 . S
N357 Co340 1.989 . S
N357 C356 1.342 . S
N357 N358 1.388 . S
N358 Co341 1.993 . S
N358 N357 1.388 . S
N358 C359 1.346 . S
C359 N358 1.346 . S
C359 C360 1.396 . S
C359 C369 1.510 . S
C360 C356 1.401 . S
C360 C359 1.396 . S
C361 C356 1.499 . S
C361 H362 0.959 . S
C361 H363 0.960 . S
C361 H364 0.961 . S
H362 C361 0.959 . S
H363 C361 0.960 . S
H364 C361 0.961 . S
O365 Co340 1.967 1_655 S
O365 C373 1.258 . S
O366 Co341 1.941 1_655 S
O366 C373 1.266 . S
H367 C369 0.959 . S
H368 C369 0.961 . S
C369 C359 1.510 . S
C369 H367 0.959 . S
C369 H368 0.961 . S
C369 H370 0.960 . S
H370 C369 0.960 . S
H371 N351 0.862 1_655 S
O372 Co340 1.920 . S
O372 C345 1.289 . S
C373 O365 1.258 . S
C373 O366 1.266 . S
Co374 O377 1.970 . S
Co374 N391 1.989 . S
Co374 O399 1.967 . S
Co374 O406 1.920 . S
Co375 O378 1.966 . S
Co375 N384 2.022 . S
Co375 N392 1.993 . S
Co375 O400 1.941 . S
C376 O377 1.258 . S
C376 O378 1.263 . S
O377 Co374 1.970 . S
O377 C376 1.258 . S
O378 Co375 1.966 . S
O378 C376 1.263 . S
C379 O380 1.235 . S
C379 O406 1.289 . S
O380 C379 1.235 . S
C381 C383 1.400 . S
C381 N384 1.351 . S
C381 C386 1.501 . S
C382 C383 1.387 . S
C382 N385 1.341 . S
C383 C381 1.400 . S
C383 C382 1.387 . S
N384 Co375 2.022 . S
N384 C381 1.351 . S
N384 N385 1.365 . S
N385 C382 1.341 . S
N385 N384 1.365 . S
N385 H405 0.862 . S
C386 C381 1.501 . S
C386 H387 0.961 . S
C386 H388 0.961 . S
C386 H389 0.960 . S
H387 C386 0.961 . S
H388 C386 0.961 . S
H389 C386 0.960 . S
C390 N391 1.342 . S
C390 C394 1.401 . S
C390 C395 1.499 . S
N391 Co374 1.989 . S
N391 C390 1.342 . S
N391 N392 1.388 . S
N392 Co375 1.993 . S
N392 N391 1.388 . S
N392 C393 1.346 . S
C393 N392 1.346 . S
C393 C394 1.396 . S
C393 C403 1.510 . S
C394 C390 1.401 . S
C394 C393 1.396 . S
C395 C390 1.499 . S
C395 H396 0.959 . S
C395 H397 0.960 . S
C395 H398 0.961 . S
H396 C395 0.959 . S
H397 C395 0.960 . S
H398 C395 0.961 . S
O399 Co374 1.967 . S
O399 C407 1.258 . S
O400 Co375 1.941 . S
O400 C407 1.266 . S
H401 C403 0.959 . S
H402 C403 0.961 . S
C403 C393 1.510 . S
C403 H401 0.959 . S
C403 H402 0.961 . S
C403 H404 0.960 . S
H404 C403 0.960 . S
H405 N385 0.862 . S
O406 Co374 1.920 . S
O406 C379 1.289 . S
C407 O399 1.258 . S
C407 O400 1.266 . S
Co408 O411 1.970 1_554 S
Co408 N425 1.989 . S
Co408 O433 1.967 1_655 S
Co408 O440 1.920 . S
Co409 O412 1.966 1_554 S
Co409 N418 2.022 . S
Co409 N426 1.993 . S
Co409 O434 1.941 1_655 S
C410 O411 1.258 . S
C410 O412 1.263 . S
O411 Co408 1.970 1_556 S
O411 C410 1.258 . S
O412 Co409 1.966 1_556 S
O412 C410 1.263 . S
C413 O414 1.235 . S
C413 O440 1.289 . S
O414 C413 1.235 . S
C415 C417 1.400 . S
C415 N418 1.351 . S
C415 C420 1.501 1_554 S
C416 C417 1.387 . S
C416 N419 1.341 . S
C417 C415 1.400 . S
C417 C416 1.387 . S
N418 Co409 2.022 . S
N418 C415 1.351 . S
N418 N419 1.365 . S
N419 C416 1.341 . S
N419 N418 1.365 . S
N419 H439 0.862 1_655 S
C420 C415 1.501 1_556 S
C420 H421 0.961 . S
C420 H422 0.962 . S
C420 H423 0.960 . S
H421 C420 0.961 . S
H422 C420 0.962 . S
H423 C420 0.960 . S
C424 N425 1.342 . S
C424 C428 1.401 . S
C424 C429 1.499 . S
N425 Co408 1.989 . S
N425 C424 1.342 . S
N425 N426 1.388 . S
N426 Co409 1.993 . S
N426 N425 1.388 . S
N426 C427 1.346 . S
C427 N426 1.346 . S
C427 C428 1.396 . S
C427 C437 1.510 . S
C428 C424 1.401 . S
C428 C427 1.396 . S
C429 C424 1.499 . S
C429 H430 0.959 . S
C429 H431 0.960 . S
C429 H432 0.961 . S
H430 C429 0.959 . S
H431 C429 0.960 . S
H432 C429 0.961 . S
O433 Co408 1.967 1_455 S
O433 C441 1.258 . S
O434 Co409 1.941 1_455 S
O434 C441 1.266 . S
H435 C437 0.959 . S
H436 C437 0.961 . S
C437 C427 1.510 . S
C437 H435 0.959 . S
C437 H436 0.961 . S
C437 H438 0.960 . S
H438 C437 0.960 . S
H439 N419 0.862 1_455 S
O440 Co408 1.920 . S
O440 C413 1.289 . S
C441 O433 1.258 . S
C441 O434 1.266 . S
Co442 O445 1.970 1_554 S
Co442 N459 1.989 . S
Co442 O467 1.967 . S
Co442 O474 1.920 . S
Co443 O446 1.966 1_554 S
Co443 N452 2.022 . S
Co443 N460 1.993 . S
Co443 O468 1.941 . S
C444 O445 1.258 . S
C444 O446 1.263 . S
O445 Co442 1.970 1_556 S
O445 C444 1.258 . S
O446 Co443 1.966 1_556 S
O446 C444 1.263 . S
C447 O448 1.235 . S
C447 O474 1.289 . S
O448 C447 1.235 . S
C449 C451 1.400 . S
C449 N452 1.351 . S
C449 C454 1.501 1_554 S
C450 C451 1.387 . S
C450 N453 1.341 . S
C451 C449 1.400 . S
C451 C450 1.387 . S
N452 Co443 2.022 . S
N452 C449 1.351 . S
N452 N453 1.365 . S
N453 C450 1.341 . S
N453 N452 1.365 . S
N453 H473 0.862 . S
C454 C449 1.501 1_556 S
C454 H455 0.961 . S
C454 H456 0.962 . S
C454 H457 0.960 . S
H455 C454 0.961 . S
H456 C454 0.962 . S
H457 C454 0.960 . S
C458 N459 1.342 . S
C458 C462 1.401 . S
C458 C463 1.499 . S
N459 Co442 1.989 . S
N459 C458 1.342 . S
N459 N460 1.388 . S
N460 Co443 1.993 . S
N460 N459 1.388 . S
N460 C461 1.346 . S
C461 N460 1.346 . S
C461 C462 1.396 . S
C461 C471 1.510 . S
C462 C458 1.401 . S
C462 C461 1.396 . S
C463 C458 1.499 . S
C463 H464 0.959 . S
C463 H465 0.960 . S
C463 H466 0.961 . S
H464 C463 0.959 . S
H465 C463 0.960 . S
H466 C463 0.961 . S
O467 Co442 1.967 . S
O467 C475 1.258 . S
O468 Co443 1.941 . S
O468 C475 1.266 . S
H469 C471 0.959 . S
H470 C471 0.961 . S
C471 C461 1.510 . S
C471 H469 0.959 . S
C471 H470 0.961 . S
C471 H472 0.960 . S
H472 C471 0.960 . S
H473 N453 0.862 . S
O474 Co442 1.920 . S
O474 C447 1.289 . S
C475 O467 1.258 . S
C475 O468 1.266 . S
Co476 O479 1.970 . S
Co476 N493 1.989 . S
Co476 O501 1.967 1_655 S
Co476 O508 1.920 . S
Co477 O480 1.966 . S
Co477 N486 2.022 . S
Co477 N494 1.993 . S
Co477 O502 1.941 1_655 S
C478 O479 1.258 . S
C478 O480 1.263 . S
O479 Co476 1.970 . S
O479 C478 1.258 . S
O480 Co477 1.966 . S
O480 C478 1.263 . S
C481 O482 1.235 . S
C481 O508 1.289 . S
O482 C481 1.235 . S
C483 C485 1.400 . S
C483 N486 1.351 . S
C483 C488 1.501 . S
C484 C485 1.387 . S
C484 N487 1.341 . S
C485 C483 1.400 . S
C485 C484 1.387 . S
N486 Co477 2.022 . S
N486 C483 1.351 . S
N486 N487 1.365 . S
N487 C484 1.341 . S
N487 N486 1.365 . S
N487 H507 0.862 1_655 S
C488 C483 1.501 . S
C488 H489 0.961 . S
C488 H490 0.961 . S
C488 H491 0.960 . S
H489 C488 0.961 . S
H490 C488 0.961 . S
H491 C488 0.960 . S
C492 N493 1.342 . S
C492 C496 1.401 . S
C492 C497 1.499 . S
N493 Co476 1.989 . S
N493 C492 1.342 . S
N493 N494 1.388 . S
N494 Co477 1.993 . S
N494 N493 1.388 . S
N494 C495 1.346 . S
C495 N494 1.346 . S
C495 C496 1.396 . S
C495 C505 1.510 . S
C496 C492 1.401 . S
C496 C495 1.396 . S
C497 C492 1.499 . S
C497 H498 0.959 . S
C497 H499 0.960 . S
C497 H500 0.961 . S
H498 C497 0.959 . S
H499 C497 0.960 . S
H500 C497 0.961 . S
O501 Co476 1.967 1_455 S
O501 C509 1.258 . S
O502 Co477 1.941 1_455 S
O502 C509 1.266 . S
H503 C505 0.959 . S
H504 C505 0.961 . S
C505 C495 1.510 . S
C505 H503 0.959 . S
C505 H504 0.961 . S
C505 H506 0.960 . S
H506 C505 0.960 . S
H507 N487 0.862 1_455 S
O508 Co476 1.920 . S
O508 C481 1.289 . S
C509 O501 1.258 . S
C509 O502 1.266 . S
Co510 O513 1.970 . S
Co510 N527 1.989 . S
Co510 O535 1.967 . S
Co510 O542 1.920 . S
Co511 O514 1.966 . S
Co511 N520 2.022 . S
Co511 N528 1.993 . S
Co511 O536 1.941 . S
C512 O513 1.258 . S
C512 O514 1.263 . S
O513 Co510 1.970 . S
O513 C512 1.258 . S
O514 Co511 1.966 . S
O514 C512 1.263 . S
C515 O516 1.235 . S
C515 O542 1.289 . S
O516 C515 1.235 . S
C517 C519 1.400 . S
C517 N520 1.351 . S
C517 C522 1.501 . S
C518 C519 1.387 . S
C518 N521 1.341 . S
C519 C517 1.400 . S
C519 C518 1.387 . S
N520 Co511 2.022 . S
N520 C517 1.351 . S
N520 N521 1.365 . S
N521 C518 1.341 . S
N521 N520 1.365 . S
N521 H541 0.862 . S
C522 C517 1.501 . S
C522 H523 0.961 . S
C522 H524 0.961 . S
C522 H525 0.960 . S
H523 C522 0.961 . S
H524 C522 0.961 . S
H525 C522 0.960 . S
C526 N527 1.342 . S
C526 C530 1.401 . S
C526 C531 1.499 . S
N527 Co510 1.989 . S
N527 C526 1.342 . S
N527 N528 1.388 . S
N528 Co511 1.993 . S
N528 N527 1.388 . S
N528 C529 1.346 . S
C529 N528 1.346 . S
C529 C530 1.396 . S
C529 C539 1.510 . S
C530 C526 1.401 . S
C530 C529 1.396 . S
C531 C526 1.499 . S
C531 H532 0.959 . S
C531 H533 0.960 . S
C531 H534 0.961 . S
H532 C531 0.959 . S
H533 C531 0.960 . S
H534 C531 0.961 . S
O535 Co510 1.967 . S
O535 C543 1.258 . S
O536 Co511 1.941 . S
O536 C543 1.266 . S
H537 C539 0.959 . S
H538 C539 0.961 . S
C539 C529 1.510 . S
C539 H537 0.959 . S
C539 H538 0.961 . S
C539 H540 0.960 . S
H540 C539 0.960 . S
H541 N521 0.862 . S
O542 Co510 1.920 . S
O542 C515 1.289 . S
C543 O535 1.258 . S
C543 O536 1.266 . S
Co544 O547 1.970 1_556 S
Co544 N561 1.989 . S
Co544 O569 1.967 . S
Co544 O576 1.920 . S
Co545 O548 1.966 1_556 S
Co545 N554 2.022 . S
Co545 N562 1.993 . S
Co545 O570 1.941 . S
C546 O547 1.258 . S
C546 O548 1.263 . S
O547 Co544 1.970 1_554 S
O547 C546 1.258 . S
O548 Co545 1.966 1_554 S
O548 C546 1.263 . S
C549 O550 1.235 . S
C549 O576 1.289 . S
O550 C549 1.235 . S
C551 C553 1.400 . S
C551 N554 1.351 . S
C551 C556 1.501 1_556 S
C552 C553 1.387 . S
C552 N555 1.341 . S
C553 C551 1.400 . S
C553 C552 1.387 . S
N554 Co545 2.022 . S
N554 C551 1.351 . S
N554 N555 1.365 . S
N555 C552 1.341 . S
N555 N554 1.365 . S
N555 H575 0.862 . S
C556 C551 1.501 1_554 S
C556 H557 0.961 . S
C556 H558 0.962 . S
C556 H559 0.960 . S
H557 C556 0.961 . S
H558 C556 0.962 . S
H559 C556 0.960 . S
C560 N561 1.342 . S
C560 C564 1.401 . S
C560 C565 1.499 . S
N561 Co544 1.989 . S
N561 C560 1.342 . S
N561 N562 1.388 . S
N562 Co545 1.993 . S
N562 N561 1.388 . S
N562 C563 1.346 . S
C563 N562 1.346 . S
C563 C564 1.396 . S
C563 C573 1.510 . S
C564 C560 1.401 . S
C564 C563 1.396 . S
C565 C560 1.499 . S
C565 H566 0.959 . S
C565 H567 0.960 . S
C565 H568 0.961 . S
H566 C565 0.959 . S
H567 C565 0.960 . S
H568 C565 0.961 . S
O569 Co544 1.967 . S
O569 C577 1.258 . S
O570 Co545 1.941 . S
O570 C577 1.266 . S
H571 C573 0.959 . S
H572 C573 0.961 . S
C573 C563 1.510 . S
C573 H571 0.959 . S
C573 H572 0.961 . S
C573 H574 0.960 . S
H574 C573 0.960 . S
H575 N555 0.862 . S
O576 Co544 1.920 . S
O576 C549 1.289 . S
C577 O569 1.258 . S
C577 O570 1.266 . S
Co578 O581 1.970 1_556 S
Co578 N595 1.989 . S
Co578 O603 1.967 . S
Co578 O610 1.920 . S
Co579 O582 1.966 1_556 S
Co579 N588 2.022 . S
Co579 N596 1.993 . S
Co579 O604 1.941 . S
C580 O581 1.258 . S
C580 O582 1.263 . S
O581 Co578 1.970 1_554 S
O581 C580 1.258 . S
O582 Co579 1.966 1_554 S
O582 C580 1.263 . S
C583 O584 1.235 . S
C583 O610 1.289 . S
O584 C583 1.235 . S
C585 C587 1.400 . S
C585 N588 1.351 . S
C585 C590 1.501 1_556 S
C586 C587 1.387 . S
C586 N589 1.341 . S
C587 C585 1.400 . S
C587 C586 1.387 . S
N588 Co579 2.022 . S
N588 C585 1.351 . S
N588 N589 1.365 . S
N589 C586 1.341 . S
N589 N588 1.365 . S
N589 H609 0.862 . S
C590 C585 1.501 1_554 S
C590 H591 0.961 . S
C590 H592 0.962 . S
C590 H593 0.960 . S
H591 C590 0.961 . S
H592 C590 0.962 . S
H593 C590 0.960 . S
C594 N595 1.342 . S
C594 C598 1.401 . S
C594 C599 1.499 . S
N595 Co578 1.989 . S
N595 C594 1.342 . S
N595 N596 1.388 . S
N596 Co579 1.993 . S
N596 N595 1.388 . S
N596 C597 1.346 . S
C597 N596 1.346 . S
C597 C598 1.396 . S
C597 C607 1.510 . S
C598 C594 1.401 . S
C598 C597 1.396 . S
C599 C594 1.499 . S
C599 H600 0.959 . S
C599 H601 0.960 . S
C599 H602 0.961 . S
H600 C599 0.959 . S
H601 C599 0.960 . S
H602 C599 0.961 . S
O603 Co578 1.967 . S
O603 C611 1.258 . S
O604 Co579 1.941 . S
O604 C611 1.266 . S
H605 C607 0.959 . S
H606 C607 0.961 . S
C607 C597 1.510 . S
C607 H605 0.959 . S
C607 H606 0.961 . S
C607 H608 0.960 . S
H608 C607 0.960 . S
H609 N589 0.862 . S
O610 Co578 1.920 . S
O610 C583 1.289 . S
C611 O603 1.258 . S
C611 O604 1.266 . S
Co612 O615 1.970 . S
Co612 N629 1.989 . S
Co612 O637 1.967 . S
Co612 O644 1.920 . S
Co613 O616 1.966 . S
Co613 N622 2.022 . S
Co613 N630 1.993 . S
Co613 O638 1.941 . S
C614 O615 1.258 . S
C614 O616 1.263 . S
O615 Co612 1.970 . S
O615 C614 1.258 . S
O616 Co613 1.966 . S
O616 C614 1.263 . S
C617 O618 1.235 . S
C617 O644 1.289 . S
O618 C617 1.235 . S
C619 C621 1.400 . S
C619 N622 1.351 . S
C619 C624 1.501 . S
C620 C621 1.387 . S
C620 N623 1.341 . S
C621 C619 1.400 . S
C621 C620 1.387 . S
N622 Co613 2.022 . S
N622 C619 1.351 . S
N622 N623 1.365 . S
N623 C620 1.341 . S
N623 N622 1.365 . S
N623 H643 0.862 . S
C624 C619 1.501 . S
C624 H625 0.961 . S
C624 H626 0.961 . S
C624 H627 0.960 . S
H625 C624 0.961 . S
H626 C624 0.961 . S
H627 C624 0.960 . S
C628 N629 1.342 . S
C628 C632 1.401 . S
C628 C633 1.499 . S
N629 Co612 1.989 . S
N629 C628 1.342 . S
N629 N630 1.388 . S
N630 Co613 1.993 . S
N630 N629 1.388 . S
N630 C631 1.346 . S
C631 N630 1.346 . S
C631 C632 1.396 . S
C631 C641 1.510 . S
C632 C628 1.401 . S
C632 C631 1.396 . S
C633 C628 1.499 . S
C633 H634 0.959 . S
C633 H635 0.960 . S
C633 H636 0.961 . S
H634 C633 0.959 . S
H635 C633 0.960 . S
H636 C633 0.961 . S
O637 Co612 1.967 . S
O637 C645 1.258 . S
O638 Co613 1.941 . S
O638 C645 1.266 . S
H639 C641 0.959 . S
H640 C641 0.961 . S
C641 C631 1.510 . S
C641 H639 0.959 . S
C641 H640 0.961 . S
C641 H642 0.960 . S
H642 C641 0.960 . S
H643 N623 0.862 . S
O644 Co612 1.920 . S
O644 C617 1.289 . S
C645 O637 1.258 . S
C645 O638 1.266 . S
Co646 O649 1.970 . S
Co646 N663 1.989 . S
Co646 O671 1.967 . S
Co646 O678 1.920 . S
Co647 O650 1.966 . S
Co647 N656 2.022 . S
Co647 N664 1.993 . S
Co647 O672 1.941 . S
C648 O649 1.258 . S
C648 O650 1.263 . S
O649 Co646 1.970 . S
O649 C648 1.258 . S
O650 Co647 1.966 . S
O650 C648 1.263 . S
C651 O652 1.235 . S
C651 O678 1.289 . S
O652 C651 1.235 . S
C653 C655 1.400 . S
C653 N656 1.351 . S
C653 C658 1.501 . S
C654 C655 1.387 . S
C654 N657 1.341 . S
C655 C653 1.400 . S
C655 C654 1.387 . S
N656 Co647 2.022 . S
N656 C653 1.351 . S
N656 N657 1.365 . S
N657 C654 1.341 . S
N657 N656 1.365 . S
N657 H677 0.862 . S
C658 C653 1.501 . S
C658 H659 0.961 . S
C658 H660 0.961 . S
C658 H661 0.960 . S
H659 C658 0.961 . S
H660 C658 0.961 . S
H661 C658 0.960 . S
C662 N663 1.342 . S
C662 C666 1.401 . S
C662 C667 1.499 . S
N663 Co646 1.989 . S
N663 C662 1.342 . S
N663 N664 1.388 . S
N664 Co647 1.993 . S
N664 N663 1.388 . S
N664 C665 1.346 . S
C665 N664 1.346 . S
C665 C666 1.396 . S
C665 C675 1.510 . S
C666 C662 1.401 . S
C666 C665 1.396 . S
C667 C662 1.499 . S
C667 H668 0.959 . S
C667 H669 0.960 . S
C667 H670 0.961 . S
H668 C667 0.959 . S
H669 C667 0.960 . S
H670 C667 0.961 . S
O671 Co646 1.967 . S
O671 C679 1.258 . S
O672 Co647 1.941 . S
O672 C679 1.266 . S
H673 C675 0.959 . S
H674 C675 0.961 . S
C675 C665 1.510 . S
C675 H673 0.959 . S
C675 H674 0.961 . S
C675 H676 0.960 . S
H676 C675 0.960 . S
H677 N657 0.862 . S
O678 Co646 1.920 . S
O678 C651 1.289 . S
C679 O671 1.258 . S
C679 O672 1.266 . S
Co680 O683 1.970 1_554 S
Co680 N697 1.989 . S
Co680 O705 1.967 . S
Co680 O712 1.920 . S
Co681 O684 1.966 1_554 S
Co681 N690 2.022 . S
Co681 N698 1.993 . S
Co681 O706 1.941 . S
C682 O683 1.258 . S
C682 O684 1.263 . S
O683 Co680 1.970 1_556 S
O683 C682 1.258 . S
O684 Co681 1.966 1_556 S
O684 C682 1.263 . S
C685 O686 1.235 . S
C685 O712 1.289 . S
O686 C685 1.235 . S
C687 C689 1.400 . S
C687 N690 1.351 . S
C687 C692 1.501 1_554 S
C688 C689 1.387 . S
C688 N691 1.341 . S
C689 C687 1.400 . S
C689 C688 1.387 . S
N690 Co681 2.022 . S
N690 C687 1.351 . S
N690 N691 1.365 . S
N691 C688 1.341 . S
N691 N690 1.365 . S
N691 H711 0.862 . S
C692 C687 1.501 1_556 S
C692 H693 0.961 . S
C692 H694 0.962 . S
C692 H695 0.960 . S
H693 C692 0.961 . S
H694 C692 0.962 . S
H695 C692 0.960 . S
C696 N697 1.342 . S
C696 C700 1.401 . S
C696 C701 1.499 . S
N697 Co680 1.989 . S
N697 C696 1.342 . S
N697 N698 1.388 . S
N698 Co681 1.993 . S
N698 N697 1.388 . S
N698 C699 1.346 . S
C699 N698 1.346 . S
C699 C700 1.396 . S
C699 C709 1.510 . S
C700 C696 1.401 . S
C700 C699 1.396 . S
C701 C696 1.499 . S
C701 H702 0.959 . S
C701 H703 0.960 . S
C701 H704 0.961 . S
H702 C701 0.959 . S
H703 C701 0.960 . S
H704 C701 0.961 . S
O705 Co680 1.967 . S
O705 C713 1.258 . S
O706 Co681 1.941 . S
O706 C713 1.266 . S
H707 C709 0.959 . S
H708 C709 0.961 . S
C709 C699 1.510 . S
C709 H707 0.959 . S
C709 H708 0.961 . S
C709 H710 0.960 . S
H710 C709 0.960 . S
H711 N691 0.862 . S
O712 Co680 1.920 . S
O712 C685 1.289 . S
C713 O705 1.258 . S
C713 O706 1.266 . S
Co714 O717 1.970 1_554 S
Co714 N731 1.989 . S
Co714 O739 1.967 . S
Co714 O746 1.920 . S
Co715 O718 1.966 1_554 S
Co715 N724 2.022 . S
Co715 N732 1.993 . S
Co715 O740 1.941 . S
C716 O717 1.258 . S
C716 O718 1.263 . S
O717 Co714 1.970 1_556 S
O717 C716 1.258 . S
O718 Co715 1.966 1_556 S
O718 C716 1.263 . S
C719 O720 1.235 . S
C719 O746 1.289 . S
O720 C719 1.235 . S
C721 C723 1.400 . S
C721 N724 1.351 . S
C721 C726 1.501 1_554 S
C722 C723 1.387 . S
C722 N725 1.341 . S
C723 C721 1.400 . S
C723 C722 1.387 . S
N724 Co715 2.022 . S
N724 C721 1.351 . S
N724 N725 1.365 . S
N725 C722 1.341 . S
N725 N724 1.365 . S
N725 H745 0.862 . S
C726 C721 1.501 1_556 S
C726 H727 0.961 . S
C726 H728 0.962 . S
C726 H729 0.960 . S
H727 C726 0.961 . S
H728 C726 0.962 . S
H729 C726 0.960 . S
C730 N731 1.342 . S
C730 C734 1.401 . S
C730 C735 1.499 . S
N731 Co714 1.989 . S
N731 C730 1.342 . S
N731 N732 1.388 . S
N732 Co715 1.993 . S
N732 N731 1.388 . S
N732 C733 1.346 . S
C733 N732 1.346 . S
C733 C734 1.396 . S
C733 C743 1.510 . S
C734 C730 1.401 . S
C734 C733 1.396 . S
C735 C730 1.499 . S
C735 H736 0.959 . S
C735 H737 0.960 . S
C735 H738 0.961 . S
H736 C735 0.959 . S
H737 C735 0.960 . S
H738 C735 0.961 . S
O739 Co714 1.967 . S
O739 C747 1.258 . S
O740 Co715 1.941 . S
O740 C747 1.266 . S
H741 C743 0.959 . S
H742 C743 0.961 . S
C743 C733 1.510 . S
C743 H741 0.959 . S
C743 H742 0.961 . S
C743 H744 0.960 . S
H744 C743 0.960 . S
H745 N725 0.862 . S
O746 Co714 1.920 . S
O746 C719 1.289 . S
C747 O739 1.258 . S
C747 O740 1.266 . S
Co748 O751 1.970 . S
Co748 N765 1.989 . S
Co748 O773 1.967 . S
Co748 O780 1.920 . S
Co749 O752 1.966 . S
Co749 N758 2.022 . S
Co749 N766 1.993 . S
Co749 O774 1.941 . S
C750 O751 1.258 . S
C750 O752 1.263 . S
O751 Co748 1.970 . S
O751 C750 1.258 . S
O752 Co749 1.966 . S
O752 C750 1.263 . S
C753 O754 1.235 . S
C753 O780 1.289 . S
O754 C753 1.235 . S
C755 C757 1.400 . S
C755 N758 1.351 . S
C755 C760 1.501 . S
C756 C757 1.387 . S
C756 N759 1.341 . S
C757 C755 1.400 . S
C757 C756 1.387 . S
N758 Co749 2.022 . S
N758 C755 1.351 . S
N758 N759 1.365 . S
N759 C756 1.341 . S
N759 N758 1.365 . S
N759 H779 0.862 . S
C760 C755 1.501 . S
C760 H761 0.961 . S
C760 H762 0.961 . S
C760 H763 0.960 . S
H761 C760 0.961 . S
H762 C760 0.961 . S
H763 C760 0.960 . S
C764 N765 1.342 . S
C764 C768 1.401 . S
C764 C769 1.499 . S
N765 Co748 1.989 . S
N765 C764 1.342 . S
N765 N766 1.388 . S
N766 Co749 1.993 . S
N766 N765 1.388 . S
N766 C767 1.346 . S
C767 N766 1.346 . S
C767 C768 1.396 . S
C767 C777 1.510 . S
C768 C764 1.401 . S
C768 C767 1.396 . S
C769 C764 1.499 . S
C769 H770 0.959 . S
C769 H771 0.960 . S
C769 H772 0.961 . S
H770 C769 0.959 . S
H771 C769 0.960 . S
H772 C769 0.961 . S
O773 Co748 1.967 . S
O773 C781 1.258 . S
O774 Co749 1.941 . S
O774 C781 1.266 . S
H775 C777 0.959 . S
H776 C777 0.961 . S
C777 C767 1.510 . S
C777 H775 0.959 . S
C777 H776 0.961 . S
C777 H778 0.960 . S
H778 C777 0.960 . S
H779 N759 0.862 . S
O780 Co748 1.920 . S
O780 C753 1.289 . S
C781 O773 1.258 . S
C781 O774 1.266 . S
Co782 O785 1.970 . S
Co782 N799 1.989 . S
Co782 O807 1.967 . S
Co782 O814 1.920 . S
Co783 O786 1.966 . S
Co783 N792 2.022 . S
Co783 N800 1.993 . S
Co783 O808 1.941 . S
C784 O785 1.258 . S
C784 O786 1.263 . S
O785 Co782 1.970 . S
O785 C784 1.258 . S
O786 Co783 1.966 . S
O786 C784 1.263 . S
C787 O788 1.235 . S
C787 O814 1.289 . S
O788 C787 1.235 . S
C789 C791 1.400 . S
C789 N792 1.351 . S
C789 C794 1.501 . S
C790 C791 1.387 . S
C790 N793 1.341 . S
C791 C789 1.400 . S
C791 C790 1.387 . S
N792 Co783 2.022 . S
N792 C789 1.351 . S
N792 N793 1.365 . S
N793 C790 1.341 . S
N793 N792 1.365 . S
N793 H813 0.862 . S
C794 C789 1.501 . S
C794 H795 0.961 . S
C794 H796 0.961 . S
C794 H797 0.960 . S
H795 C794 0.961 . S
H796 C794 0.961 . S
H797 C794 0.960 . S
C798 N799 1.342 . S
C798 C802 1.401 . S
C798 C803 1.499 . S
N799 Co782 1.989 . S
N799 C798 1.342 . S
N799 N800 1.388 . S
N800 Co783 1.993 . S
N800 N799 1.388 . S
N800 C801 1.346 . S
C801 N800 1.346 . S
C801 C802 1.396 . S
C801 C811 1.510 . S
C802 C798 1.401 . S
C802 C801 1.396 . S
C803 C798 1.499 . S
C803 H804 0.959 . S
C803 H805 0.960 . S
C803 H806 0.961 . S
H804 C803 0.959 . S
H805 C803 0.960 . S
H806 C803 0.961 . S
O807 Co782 1.967 . S
O807 C815 1.258 . S
O808 Co783 1.941 . S
O808 C815 1.266 . S
H809 C811 0.959 . S
H810 C811 0.961 . S
C811 C801 1.510 . S
C811 H809 0.959 . S
C811 H810 0.961 . S
C811 H812 0.960 . S
H812 C811 0.960 . S
H813 N793 0.862 . S
O814 Co782 1.920 . S
O814 C787 1.289 . S
C815 O807 1.258 . S
C815 O808 1.266 . S
Co816 O819 1.970 . S
Co816 N833 1.989 . S
Co816 O841 1.967 . S
Co816 O848 1.920 . S
Co817 O820 1.966 . S
Co817 N826 2.022 . S
Co817 N834 1.993 . S
Co817 O842 1.941 . S
C818 O819 1.258 . S
C818 O820 1.263 . S
O819 Co816 1.970 . S
O819 C818 1.258 . S
O820 Co817 1.966 . S
O820 C818 1.263 . S
C821 O822 1.235 . S
C821 O848 1.289 . S
O822 C821 1.235 . S
C823 C825 1.400 . S
C823 N826 1.351 . S
C823 C828 1.501 . S
C824 C825 1.387 . S
C824 N827 1.341 . S
C825 C823 1.400 . S
C825 C824 1.387 . S
N826 Co817 2.022 . S
N826 C823 1.351 . S
N826 N827 1.365 . S
N827 C824 1.341 . S
N827 N826 1.365 . S
N827 H847 0.862 . S
C828 C823 1.501 . S
C828 H829 0.961 . S
C828 H830 0.961 . S
C828 H831 0.960 . S
H829 C828 0.961 . S
H830 C828 0.961 . S
H831 C828 0.960 . S
C832 N833 1.342 . S
C832 C836 1.401 . S
C832 C837 1.499 . S
N833 Co816 1.989 . S
N833 C832 1.342 . S
N833 N834 1.388 . S
N834 Co817 1.993 . S
N834 N833 1.388 . S
N834 C835 1.346 . S
C835 N834 1.346 . S
C835 C836 1.396 . S
C835 C845 1.510 . S
C836 C832 1.401 . S
C836 C835 1.396 . S
C837 C832 1.499 . S
C837 H838 0.959 . S
C837 H839 0.960 . S
C837 H840 0.961 . S
H838 C837 0.959 . S
H839 C837 0.960 . S
H840 C837 0.961 . S
O841 Co816 1.967 . S
O841 C849 1.258 . S
O842 Co817 1.941 . S
O842 C849 1.266 . S
H843 C845 0.959 . S
H844 C845 0.961 . S
C845 C835 1.510 . S
C845 H843 0.959 . S
C845 H844 0.961 . S
C845 H846 0.960 . S
H846 C845 0.960 . S
H847 N827 0.862 . S
O848 Co816 1.920 . S
O848 C821 1.289 . S
C849 O841 1.258 . S
C849 O842 1.266 . S
Co850 O853 1.970 . S
Co850 N867 1.989 . S
Co850 O875 1.967 . S
Co850 O882 1.920 . S
Co851 O854 1.966 . S
Co851 N860 2.022 . S
Co851 N868 1.993 . S
Co851 O876 1.941 . S
C852 O853 1.258 . S
C852 O854 1.263 . S
O853 Co850 1.970 . S
O853 C852 1.258 . S
O854 Co851 1.966 . S
O854 C852 1.263 . S
C855 O856 1.235 . S
C855 O882 1.289 . S
O856 C855 1.235 . S
C857 C859 1.400 . S
C857 N860 1.351 . S
C857 C862 1.501 . S
C858 C859 1.387 . S
C858 N861 1.341 . S
C859 C857 1.400 . S
C859 C858 1.387 . S
N860 Co851 2.022 . S
N860 C857 1.351 . S
N860 N861 1.365 . S
N861 C858 1.341 . S
N861 N860 1.365 . S
N861 H881 0.862 . S
C862 C857 1.501 . S
C862 H863 0.961 . S
C862 H864 0.961 . S
C862 H865 0.960 . S
H863 C862 0.961 . S
H864 C862 0.961 . S
H865 C862 0.960 . S
C866 N867 1.342 . S
C866 C870 1.401 . S
C866 C871 1.499 . S
N867 Co850 1.989 . S
N867 C866 1.342 . S
N867 N868 1.388 . S
N868 Co851 1.993 . S
N868 N867 1.388 . S
N868 C869 1.346 . S
C869 N868 1.346 . S
C869 C870 1.396 . S
C869 C879 1.510 . S
C870 C866 1.401 . S
C870 C869 1.396 . S
C871 C866 1.499 . S
C871 H872 0.959 . S
C871 H873 0.960 . S
C871 H874 0.961 . S
H872 C871 0.959 . S
H873 C871 0.960 . S
H874 C871 0.961 . S
O875 Co850 1.967 . S
O875 C883 1.258 . S
O876 Co851 1.941 . S
O876 C883 1.266 . S
H877 C879 0.959 . S
H878 C879 0.961 . S
C879 C869 1.510 . S
C879 H877 0.959 . S
C879 H878 0.961 . S
C879 H880 0.960 . S
H880 C879 0.960 . S
H881 N861 0.862 . S
O882 Co850 1.920 . S
O882 C855 1.289 . S
C883 O875 1.258 . S
C883 O876 1.266 . S
Co884 O887 1.970 . S
Co884 N901 1.989 . S
Co884 O909 1.967 . S
Co884 O916 1.920 . S
Co885 O888 1.966 . S
Co885 N894 2.022 . S
Co885 N902 1.993 . S
Co885 O910 1.941 . S
C886 O887 1.258 . S
C886 O888 1.263 . S
O887 Co884 1.970 . S
O887 C886 1.258 . S
O888 Co885 1.966 . S
O888 C886 1.263 . S
C889 O890 1.235 . S
C889 O916 1.289 . S
O890 C889 1.235 . S
C891 C893 1.400 . S
C891 N894 1.351 . S
C891 C896 1.501 . S
C892 C893 1.387 . S
C892 N895 1.341 . S
C893 C891 1.400 . S
C893 C892 1.387 . S
N894 Co885 2.022 . S
N894 C891 1.351 . S
N894 N895 1.365 . S
N895 C892 1.341 . S
N895 N894 1.365 . S
N895 H915 0.862 . S
C896 C891 1.501 . S
C896 H897 0.961 . S
C896 H898 0.961 . S
C896 H899 0.960 . S
H897 C896 0.961 . S
H898 C896 0.961 . S
H899 C896 0.960 . S
C900 N901 1.342 1_554 S
C900 C904 1.401 . S
C900 C905 1.499 . S
N901 Co884 1.989 . S
N901 C900 1.342 1_556 S
N901 N902 1.388 . S
N902 Co885 1.993 . S
N902 N901 1.388 . S
N902 C903 1.346 1_556 S
C903 N902 1.346 1_554 S
C903 C904 1.396 . S
C903 C913 1.510 . S
C904 C900 1.401 . S
C904 C903 1.396 . S
C905 C900 1.499 . S
C905 H906 0.959 . S
C905 H907 0.960 . S
C905 H908 0.961 . S
H906 C905 0.959 . S
H907 C905 0.960 . S
H908 C905 0.961 . S
O909 Co884 1.967 . S
O909 C917 1.258 . S
O910 Co885 1.941 . S
O910 C917 1.266 . S
H911 C913 0.959 . S
H912 C913 0.961 . S
C913 C903 1.510 . S
C913 H911 0.959 . S
C913 H912 0.961 . S
C913 H914 0.960 . S
H914 C913 0.960 . S
H915 N895 0.862 . S
O916 Co884 1.920 . S
O916 C889 1.289 . S
C917 O909 1.258 . S
C917 O910 1.266 . S
Co918 O921 1.970 . S
Co918 N935 1.989 . S
Co918 O943 1.967 . S
Co918 O950 1.920 . S
Co919 O922 1.966 . S
Co919 N928 2.022 . S
Co919 N936 1.993 . S
Co919 O944 1.941 . S
C920 O921 1.258 . S
C920 O922 1.263 . S
O921 Co918 1.970 . S
O921 C920 1.258 . S
O922 Co919 1.966 . S
O922 C920 1.263 . S
C923 O924 1.235 . S
C923 O950 1.289 . S
O924 C923 1.235 . S
C925 C927 1.400 . S
C925 N928 1.351 . S
C925 C930 1.501 . S
C926 C927 1.387 . S
C926 N929 1.341 . S
C927 C925 1.400 . S
C927 C926 1.387 . S
N928 Co919 2.022 . S
N928 C925 1.351 . S
N928 N929 1.365 . S
N929 C926 1.341 . S
N929 N928 1.365 . S
N929 H949 0.862 . S
C930 C925 1.501 . S
C930 H931 0.961 . S
C930 H932 0.961 . S
C930 H933 0.960 . S
H931 C930 0.961 . S
H932 C930 0.961 . S
H933 C930 0.960 . S
C934 N935 1.342 1_554 S
C934 C938 1.401 . S
C934 C939 1.499 . S
N935 Co918 1.989 . S
N935 C934 1.342 1_556 S
N935 N936 1.388 . S
N936 Co919 1.993 . S
N936 N935 1.388 . S
N936 C937 1.346 1_556 S
C937 N936 1.346 1_554 S
C937 C938 1.396 . S
C937 C947 1.510 . S
C938 C934 1.401 . S
C938 C937 1.396 . S
C939 C934 1.499 . S
C939 H940 0.959 . S
C939 H941 0.960 . S
C939 H942 0.961 . S
H940 C939 0.959 . S
H941 C939 0.960 . S
H942 C939 0.961 . S
O943 Co918 1.967 . S
O943 C951 1.258 . S
O944 Co919 1.941 . S
O944 C951 1.266 . S
H945 C947 0.959 . S
H946 C947 0.961 . S
C947 C937 1.510 . S
C947 H945 0.959 . S
C947 H946 0.961 . S
C947 H948 0.960 . S
H948 C947 0.960 . S
H949 N929 0.862 . S
O950 Co918 1.920 . S
O950 C923 1.289 . S
C951 O943 1.258 . S
C951 O944 1.266 . S
Co952 O955 1.970 . S
Co952 N969 1.989 . S
Co952 O977 1.967 . S
Co952 O984 1.920 . S
Co953 O956 1.966 . S
Co953 N962 2.022 . S
Co953 N970 1.993 . S
Co953 O978 1.941 . S
C954 O955 1.258 . S
C954 O956 1.263 . S
O955 Co952 1.970 . S
O955 C954 1.258 . S
O956 Co953 1.966 . S
O956 C954 1.263 . S
C957 O958 1.235 . S
C957 O984 1.289 . S
O958 C957 1.235 . S
C959 C961 1.400 . S
C959 N962 1.351 . S
C959 C964 1.501 . S
C960 C961 1.387 . S
C960 N963 1.341 . S
C961 C959 1.400 . S
C961 C960 1.387 . S
N962 Co953 2.022 . S
N962 C959 1.351 . S
N962 N963 1.365 . S
N963 C960 1.341 . S
N963 N962 1.365 . S
N963 H983 0.862 . S
C964 C959 1.501 . S
C964 H965 0.961 . S
C964 H966 0.961 . S
C964 H967 0.960 . S
H965 C964 0.961 . S
H966 C964 0.961 . S
H967 C964 0.960 . S
C968 N969 1.342 . S
C968 C972 1.401 . S
C968 C973 1.499 . S
N969 Co952 1.989 . S
N969 C968 1.342 . S
N969 N970 1.388 . S
N970 Co953 1.993 . S
N970 N969 1.388 . S
N970 C971 1.346 . S
C971 N970 1.346 . S
C971 C972 1.396 . S
C971 C981 1.510 . S
C972 C968 1.401 . S
C972 C971 1.396 . S
C973 C968 1.499 . S
C973 H974 0.959 . S
C973 H975 0.960 . S
C973 H976 0.961 . S
H974 C973 0.959 . S
H975 C973 0.960 . S
H976 C973 0.961 . S
O977 Co952 1.967 . S
O977 C985 1.258 . S
O978 Co953 1.941 . S
O978 C985 1.266 . S
H979 C981 0.959 . S
H980 C981 0.961 . S
C981 C971 1.510 . S
C981 H979 0.959 . S
C981 H980 0.961 . S
C981 H982 0.960 . S
H982 C981 0.960 . S
H983 N963 0.862 . S
O984 Co952 1.920 . S
O984 C957 1.289 . S
C985 O977 1.258 . S
C985 O978 1.266 . S
Co986 O989 1.970 . S
Co986 N1003 1.989 . S
Co986 O1011 1.967 . S
Co986 O1018 1.920 . S
Co987 O990 1.966 . S
Co987 N996 2.022 . S
Co987 N1004 1.993 . S
Co987 O1012 1.941 . S
C988 O989 1.258 . S
C988 O990 1.263 . S
O989 Co986 1.970 . S
O989 C988 1.258 . S
O990 Co987 1.966 . S
O990 C988 1.263 . S
C991 O992 1.235 . S
C991 O1018 1.289 . S
O992 C991 1.235 . S
C993 C995 1.400 . S
C993 N996 1.351 . S
C993 C998 1.501 . S
C994 C995 1.387 . S
C994 N997 1.341 . S
C995 C993 1.400 . S
C995 C994 1.387 . S
N996 Co987 2.022 . S
N996 C993 1.351 . S
N996 N997 1.365 . S
N997 C994 1.341 . S
N997 N996 1.365 . S
N997 H1017 0.862 . S
C998 C993 1.501 . S
C998 H999 0.961 . S
C998 H1000 0.961 . S
C998 H1001 0.960 . S
H999 C998 0.961 . S
H1000 C998 0.961 . S
H1001 C998 0.960 . S
C1002 N1003 1.342 . S
C1002 C1006 1.401 . S
C1002 C1007 1.499 . S
N1003 Co986 1.989 . S
N1003 C1002 1.342 . S
N1003 N1004 1.388 . S
N1004 Co987 1.993 . S
N1004 N1003 1.388 . S
N1004 C1005 1.346 . S
C1005 N1004 1.346 . S
C1005 C1006 1.396 . S
C1005 C1015 1.510 . S
C1006 C1002 1.401 . S
C1006 C1005 1.396 . S
C1007 C1002 1.499 . S
C1007 H1008 0.959 . S
C1007 H1009 0.960 . S
C1007 H1010 0.961 . S
H1008 C1007 0.959 . S
H1009 C1007 0.960 . S
H1010 C1007 0.961 . S
O1011 Co986 1.967 . S
O1011 C1019 1.258 . S
O1012 Co987 1.941 . S
O1012 C1019 1.266 . S
H1013 C1015 0.959 . S
H1014 C1015 0.961 . S
C1015 C1005 1.510 . S
C1015 H1013 0.959 . S
C1015 H1014 0.961 . S
C1015 H1016 0.960 . S
H1016 C1015 0.960 . S
H1017 N997 0.862 . S
O1018 Co986 1.920 . S
O1018 C991 1.289 . S
C1019 O1011 1.258 . S
C1019 O1012 1.266 . S
Co1020 O1023 1.970 . S
Co1020 N1037 1.989 . S
Co1020 O1045 1.967 . S
Co1020 O1052 1.920 . S
Co1021 O1024 1.966 . S
Co1021 N1030 2.022 . S
Co1021 N1038 1.993 . S
Co1021 O1046 1.941 . S
C1022 O1023 1.258 . S
C1022 O1024 1.263 . S
O1023 Co1020 1.970 . S
O1023 C1022 1.258 . S
O1024 Co1021 1.966 . S
O1024 C1022 1.263 . S
C1025 O1026 1.235 . S
C1025 O1052 1.289 . S
O1026 C1025 1.235 . S
C1027 C1029 1.400 . S
C1027 N1030 1.351 . S
C1027 C1032 1.501 . S
C1028 C1029 1.387 . S
C1028 N1031 1.341 . S
C1029 C1027 1.400 . S
C1029 C1028 1.387 . S
N1030 Co1021 2.022 . S
N1030 C1027 1.351 . S
N1030 N1031 1.365 . S
N1031 C1028 1.341 . S
N1031 N1030 1.365 . S
N1031 H1051 0.862 . S
C1032 C1027 1.501 . S
C1032 H1033 0.961 . S
C1032 H1034 0.961 . S
C1032 H1035 0.960 . S
H1033 C1032 0.961 . S
H1034 C1032 0.961 . S
H1035 C1032 0.960 . S
C1036 N1037 1.342 1_556 S
C1036 C1040 1.401 . S
C1036 C1041 1.499 . S
N1037 Co1020 1.989 . S
N1037 C1036 1.342 1_554 S
N1037 N1038 1.388 . S
N1038 Co1021 1.993 . S
N1038 N1037 1.388 . S
N1038 C1039 1.346 1_554 S
C1039 N1038 1.346 1_556 S
C1039 C1040 1.396 . S
C1039 C1049 1.510 . S
C1040 C1036 1.401 . S
C1040 C1039 1.396 . S
C1041 C1036 1.499 . S
C1041 H1042 0.959 . S
C1041 H1043 0.960 . S
C1041 H1044 0.961 . S
H1042 C1041 0.959 . S
H1043 C1041 0.960 . S
H1044 C1041 0.961 . S
O1045 Co1020 1.967 . S
O1045 C1053 1.258 . S
O1046 Co1021 1.941 . S
O1046 C1053 1.266 . S
H1047 C1049 0.959 . S
H1048 C1049 0.961 . S
C1049 C1039 1.510 . S
C1049 H1047 0.959 . S
C1049 H1048 0.961 . S
C1049 H1050 0.960 . S
H1050 C1049 0.960 . S
H1051 N1031 0.862 . S
O1052 Co1020 1.920 . S
O1052 C1025 1.289 . S
C1053 O1045 1.258 . S
C1053 O1046 1.266 . S
Co1054 O1057 1.970 . S
Co1054 N1071 1.989 . S
Co1054 O1079 1.967 . S
Co1054 O1086 1.920 . S
Co1055 O1058 1.966 . S
Co1055 N1064 2.022 . S
Co1055 N1072 1.993 . S
Co1055 O1080 1.941 . S
C1056 O1057 1.258 . S
C1056 O1058 1.263 . S
O1057 Co1054 1.970 . S
O1057 C1056 1.258 . S
O1058 Co1055 1.966 . S
O1058 C1056 1.263 . S
C1059 O1060 1.235 . S
C1059 O1086 1.289 . S
O1060 C1059 1.235 . S
C1061 C1063 1.400 . S
C1061 N1064 1.351 . S
C1061 C1066 1.501 . S
C1062 C1063 1.387 . S
C1062 N1065 1.341 . S
C1063 C1061 1.400 . S
C1063 C1062 1.387 . S
N1064 Co1055 2.022 . S
N1064 C1061 1.351 . S
N1064 N1065 1.365 . S
N1065 C1062 1.341 . S
N1065 N1064 1.365 . S
N1065 H1085 0.862 . S
C1066 C1061 1.501 . S
C1066 H1067 0.961 . S
C1066 H1068 0.961 . S
C1066 H1069 0.960 . S
H1067 C1066 0.961 . S
H1068 C1066 0.961 . S
H1069 C1066 0.960 . S
C1070 N1071 1.342 1_556 S
C1070 C1074 1.401 . S
C1070 C1075 1.499 . S
N1071 Co1054 1.989 . S
N1071 C1070 1.342 1_554 S
N1071 N1072 1.388 . S
N1072 Co1055 1.993 . S
N1072 N1071 1.388 . S
N1072 C1073 1.346 1_554 S
C1073 N1072 1.346 1_556 S
C1073 C1074 1.396 . S
C1073 C1083 1.510 . S
C1074 C1070 1.401 . S
C1074 C1073 1.396 . S
C1075 C1070 1.499 . S
C1075 H1076 0.959 . S
C1075 H1077 0.960 . S
C1075 H1078 0.961 . S
H1076 C1075 0.959 . S
H1077 C1075 0.960 . S
H1078 C1075 0.961 . S
O1079 Co1054 1.967 . S
O1079 C1087 1.258 . S
O1080 Co1055 1.941 . S
O1080 C1087 1.266 . S
H1081 C1083 0.959 . S
H1082 C1083 0.961 . S
C1083 C1073 1.510 . S
C1083 H1081 0.959 . S
C1083 H1082 0.961 . S
C1083 H1084 0.960 . S
H1084 C1083 0.960 . S
H1085 N1065 0.862 . S
O1086 Co1054 1.920 . S
O1086 C1059 1.289 . S
C1087 O1079 1.258 . S
C1087 O1080 1.266 . S
C122 C20 0.212 . S
C54 C88 0.212 . S
C156 C258 0.212 . S
C190 C224 0.212 . S
C394 C292 0.211 . S
C326 C360 0.212 . S
C530 C428 0.211 . S
C462 C496 0.212 . S
C564 C666 0.212 . S
C632 C598 0.213 . S
C802 C700 0.212 . S
C768 C734 0.213 . S
C938 C836 0.211 . S
C904 C870 0.212 . S
C1074 C972 0.211 . S
C1040 C1006 0.212 . S
C679 C33 1.403 . S
C645 C67 1.402 . S
C611 C101 1.402 . S
C577 C135 1.402 . S
C815 C169 1.403 . S
C781 C203 1.402 . S
C237 C747 1.402 . S
C713 C271 1.402 . S
C951 C305 1.403 . S
C917 C339 1.402 . S
C373 C883 1.402 . S
C407 C849 1.403 . S
C1087 C441 1.403 . S
C1053 C475 1.402 . S
C509 C1019 1.402 . S
C985 C543 1.403 . S
C9 C43 1.291 . S
C77 C111 1.291 . S
C145 C179 1.291 . S
C213 C247 1.291 . S
C281 C315 1.291 . S
C383 C349 1.291 . S
C451 C417 1.291 . S
C485 C519 1.291 . S
C587 C553 1.291 . S
C655 C621 1.291 . S
C689 C723 1.291 . S
C791 C757 1.291 . S
C825 C859 1.291 . S
C927 C893 1.291 . S
C961 C995 1.291 . S
C1029 C1063 1.291 . S
C413 C5 3.573 1_655 S
C719 C39 3.572 1_565 S
C73 C209 3.572 1_446 S
C1059 C107 3.573 1_554 S
C277 C141 3.573 1_455 S
C583 C175 3.572 1_545 S
C923 C243 3.573 1_556 S
C311 C991 3.572 . S
C481 C345 3.573 1_655 S
C787 C379 3.573 . S
C447 C855 3.572 . S
C515 C651 3.573 . S
C957 C549 3.572 . S
C617 C753 3.573 1_545 S
C685 C821 3.572 . S
C1025 C889 3.573 1_554 S
C2 C104 2.518 . S
C36 C70 2.517 . S
C240 C138 2.518 . S
C172 C206 2.517 . S
C274 C376 2.517 . S
C342 C308 2.517 . S
C410 C512 2.517 . S
C444 C478 2.517 . S
C546 C648 2.518 . S
C580 C614 2.517 . S
C682 C784 2.518 . S
C716 C750 2.517 . S
C818 C920 2.517 . S
C886 C852 2.517 . S
C954 C1056 2.517 . S
C988 C1022 2.517 . S
