# Generated by pormake.
# Topology umr, (4)-cn, num edge types: 1
# Building blocks:
#     Node 0, Type 0, BuildingBlock: QUQFOY_clean_sbu_3, # of connection points: 4
#     Node 1, Type 0, BuildingBlock: QUQFOY_clean_sbu_3, # of connection points: 4
#     Node 2, Type 0, BuildingBlock: QUQFOY_clean_sbu_3, # of connection points: 4
#     Node 3, Type 0, BuildingBlock: QUQFOY_clean_sbu_3, # of connection points: 4
#     Node 4, Type 0, BuildingBlock: QUQFOY_clean_sbu_3, # of connection points: 4
#     Node 5, Type 0, BuildingBlock: QUQFOY_clean_sbu_3, # of connection points: 4
#     Node 6, Type 0, BuildingBlock: QUQFOY_clean_sbu_3, # of connection points: 4
#     Node 7, Type 0, BuildingBlock: QUQFOY_clean_sbu_3, # of connection points: 4
#     Node 8, Type 0, BuildingBlock: QUQFOY_clean_sbu_3, # of connection points: 4
#     Node 9, Type 0, BuildingBlock: QUQFOY_clean_sbu_3, # of connection points: 4
#     Node 10, Type 0, BuildingBlock: QUQFOY_clean_sbu_3, # of connection points: 4
#     Node 11, Type 0, BuildingBlock: QUQFOY_clean_sbu_3, # of connection points: 4
#     Node 12, Type 0, BuildingBlock: QUQFOY_clean_sbu_3, # of connection points: 4
#     Node 13, Type 0, BuildingBlock: QUQFOY_clean_sbu_3, # of connection points: 4
#     Node 14, Type 0, BuildingBlock: QUQFOY_clean_sbu_3, # of connection points: 4
#     Node 15, Type 0, BuildingBlock: QUQFOY_clean_sbu_3, # of connection points: 4
#     Node 16, Type 0, BuildingBlock: QUQFOY_clean_sbu_3, # of connection points: 4
#     Node 17, Type 0, BuildingBlock: QUQFOY_clean_sbu_3, # of connection points: 4
#     Node 18, Type 0, BuildingBlock: QUQFOY_clean_sbu_3, # of connection points: 4
#     Node 19, Type 0, BuildingBlock: QUQFOY_clean_sbu_3, # of connection points: 4
#     Node 20, Type 0, BuildingBlock: QUQFOY_clean_sbu_3, # of connection points: 4
#     Node 21, Type 0, BuildingBlock: QUQFOY_clean_sbu_3, # of connection points: 4
#     Node 22, Type 0, BuildingBlock: QUQFOY_clean_sbu_3, # of connection points: 4
#     Node 23, Type 0, BuildingBlock: QUQFOY_clean_sbu_3, # of connection points: 4
#     Node 24, Type 0, BuildingBlock: QUQFOY_clean_sbu_3, # of connection points: 4
#     Node 25, Type 0, BuildingBlock: QUQFOY_clean_sbu_3, # of connection points: 4
#     Node 26, Type 0, BuildingBlock: QUQFOY_clean_sbu_3, # of connection points: 4
#     Node 27, Type 0, BuildingBlock: QUQFOY_clean_sbu_3, # of connection points: 4
#     Node 28, Type 0, BuildingBlock: QUQFOY_clean_sbu_3, # of connection points: 4
#     Node 29, Type 0, BuildingBlock: QUQFOY_clean_sbu_3, # of connection points: 4
#     Node 30, Type 0, BuildingBlock: QUQFOY_clean_sbu_3, # of connection points: 4
#     Node 31, Type 0, BuildingBlock: QUQFOY_clean_sbu_3, # of connection points: 4
#     Edge 32, Type (0, 0), BuildingBlock: EZIPEK_clean_linker_0, # of connection points: 2
#     Edge 33, Type (0, 0), BuildingBlock: EZIPEK_clean_linker_0, # of connection points: 2
#     Edge 34, Type (0, 0), BuildingBlock: EZIPEK_clean_linker_0, # of connection points: 2
#     Edge 35, Type (0, 0), BuildingBlock: EZIPEK_clean_linker_0, # of connection points: 2
#     Edge 36, Type (0, 0), BuildingBlock: EZIPEK_clean_linker_0, # of connection points: 2
#     Edge 37, Type (0, 0), BuildingBlock: EZIPEK_clean_linker_0, # of connection points: 2
#     Edge 38, Type (0, 0), BuildingBlock: EZIPEK_clean_linker_0, # of connection points: 2
#     Edge 39, Type (0, 0), BuildingBlock: EZIPEK_clean_linker_0, # of connection points: 2
#     Edge 40, Type (0, 0), BuildingBlock: EZIPEK_clean_linker_0, # of connection points: 2
#     Edge 41, Type (0, 0), BuildingBlock: EZIPEK_clean_linker_0, # of connection points: 2
#     Edge 42, Type (0, 0), BuildingBlock: EZIPEK_clean_linker_0, # of connection points: 2
#     Edge 43, Type (0, 0), BuildingBlock: EZIPEK_clean_linker_0, # of connection points: 2
#     Edge 44, Type (0, 0), BuildingBlock: EZIPEK_clean_linker_0, # of connection points: 2
#     Edge 45, Type (0, 0), BuildingBlock: EZIPEK_clean_linker_0, # of connection points: 2
#     Edge 46, Type (0, 0), BuildingBlock: EZIPEK_clean_linker_0, # of connection points: 2
#     Edge 47, Type (0, 0), BuildingBlock: EZIPEK_clean_linker_0, # of connection points: 2
#     Edge 48, Type (0, 0), BuildingBlock: EZIPEK_clean_linker_0, # of connection points: 2
#     Edge 49, Type (0, 0), BuildingBlock: EZIPEK_clean_linker_0, # of connection points: 2
#     Edge 50, Type (0, 0), BuildingBlock: EZIPEK_clean_linker_0, # of connection points: 2
#     Edge 51, Type (0, 0), BuildingBlock: EZIPEK_clean_linker_0, # of connection points: 2
#     Edge 52, Type (0, 0), BuildingBlock: EZIPEK_clean_linker_0, # of connection points: 2
#     Edge 53, Type (0, 0), BuildingBlock: EZIPEK_clean_linker_0, # of connection points: 2
#     Edge 54, Type (0, 0), BuildingBlock: EZIPEK_clean_linker_0, # of connection points: 2
#     Edge 55, Type (0, 0), BuildingBlock: EZIPEK_clean_linker_0, # of connection points: 2
#     Edge 56, Type (0, 0), BuildingBlock: EZIPEK_clean_linker_0, # of connection points: 2
#     Edge 57, Type (0, 0), BuildingBlock: EZIPEK_clean_linker_0, # of connection points: 2
#     Edge 58, Type (0, 0), BuildingBlock: EZIPEK_clean_linker_0, # of connection points: 2
#     Edge 59, Type (0, 0), BuildingBlock: EZIPEK_clean_linker_0, # of connection points: 2
#     Edge 60, Type (0, 0), BuildingBlock: EZIPEK_clean_linker_0, # of connection points: 2
#     Edge 61, Type (0, 0), BuildingBlock: EZIPEK_clean_linker_0, # of connection points: 2
#     Edge 62, Type (0, 0), BuildingBlock: EZIPEK_clean_linker_0, # of connection points: 2
#     Edge 63, Type (0, 0), BuildingBlock: EZIPEK_clean_linker_0, # of connection points: 2
#     Edge 64, Type (0, 0), BuildingBlock: EZIPEK_clean_linker_0, # of connection points: 2
#     Edge 65, Type (0, 0), BuildingBlock: EZIPEK_clean_linker_0, # of connection points: 2
#     Edge 66, Type (0, 0), BuildingBlock: EZIPEK_clean_linker_0, # of connection points: 2
#     Edge 67, Type (0, 0), BuildingBlock: EZIPEK_clean_linker_0, # of connection points: 2
#     Edge 68, Type (0, 0), BuildingBlock: EZIPEK_clean_linker_0, # of connection points: 2
#     Edge 69, Type (0, 0), BuildingBlock: EZIPEK_clean_linker_0, # of connection points: 2
#     Edge 70, Type (0, 0), BuildingBlock: EZIPEK_clean_linker_0, # of connection points: 2
#     Edge 71, Type (0, 0), BuildingBlock: EZIPEK_clean_linker_0, # of connection points: 2
#     Edge 72, Type (0, 0), BuildingBlock: EZIPEK_clean_linker_0, # of connection points: 2
#     Edge 73, Type (0, 0), BuildingBlock: EZIPEK_clean_linker_0, # of connection points: 2
#     Edge 74, Type (0, 0), BuildingBlock: EZIPEK_clean_linker_0, # of connection points: 2
#     Edge 75, Type (0, 0), BuildingBlock: EZIPEK_clean_linker_0, # of connection points: 2
#     Edge 76, Type (0, 0), BuildingBlock: EZIPEK_clean_linker_0, # of connection points: 2
#     Edge 77, Type (0, 0), BuildingBlock: EZIPEK_clean_linker_0, # of connection points: 2
#     Edge 78, Type (0, 0), BuildingBlock: EZIPEK_clean_linker_0, # of connection points: 2
#     Edge 79, Type (0, 0), BuildingBlock: EZIPEK_clean_linker_0, # of connection points: 2
#     Edge 80, Type (0, 0), BuildingBlock: EZIPEK_clean_linker_0, # of connection points: 2
#     Edge 81, Type (0, 0), BuildingBlock: EZIPEK_clean_linker_0, # of connection points: 2
#     Edge 82, Type (0, 0), BuildingBlock: EZIPEK_clean_linker_0, # of connection points: 2
#     Edge 83, Type (0, 0), BuildingBlock: EZIPEK_clean_linker_0, # of connection points: 2
#     Edge 84, Type (0, 0), BuildingBlock: EZIPEK_clean_linker_0, # of connection points: 2
#     Edge 85, Type (0, 0), BuildingBlock: EZIPEK_clean_linker_0, # of connection points: 2
#     Edge 86, Type (0, 0), BuildingBlock: EZIPEK_clean_linker_0, # of connection points: 2
#     Edge 87, Type (0, 0), BuildingBlock: EZIPEK_clean_linker_0, # of connection points: 2
#     Edge 88, Type (0, 0), BuildingBlock: EZIPEK_clean_linker_0, # of connection points: 2
#     Edge 89, Type (0, 0), BuildingBlock: EZIPEK_clean_linker_0, # of connection points: 2
#     Edge 90, Type (0, 0), BuildingBlock: EZIPEK_clean_linker_0, # of connection points: 2
#     Edge 91, Type (0, 0), BuildingBlock: EZIPEK_clean_linker_0, # of connection points: 2
#     Edge 92, Type (0, 0), BuildingBlock: EZIPEK_clean_linker_0, # of connection points: 2
#     Edge 93, Type (0, 0), BuildingBlock: EZIPEK_clean_linker_0, # of connection points: 2
#     Edge 94, Type (0, 0), BuildingBlock: EZIPEK_clean_linker_0, # of connection points: 2
#     Edge 95, Type (0, 0), BuildingBlock: EZIPEK_clean_linker_0, # of connection points: 2
# Relax obj value: 0.086
# Max RMSD: 0.108
# Mean RMSD: 0.108
data_MOF--net-umr--node1-QUQFOY_clean_sbu_3--edge1-EZIPEK_clean_linker_0
_symmetry_space_group_name_H-M    P1
_symmetry_Int_Tables_number       1
_symmetry_cell_setting            triclinic
loop_
_symmetry_equiv_pos_as_xyz
'x, y, z'
_cell_length_a     64.1309
_cell_length_b     63.907469
_cell_length_c     20.109824
_cell_angle_alpha  89.889246
_cell_angle_beta   90.006731
_cell_angle_gamma 89.93442
loop_
_atom_site_label
_atom_site_type_symbol
_atom_site_fract_x
_atom_site_fract_y
_atom_site_fract_z
_atom_type_partial_charge
C0 C 0.15648 0.22349 0.01846 0.0
O1 O 0.16179 0.21314 0.06961 0.0
Cd2 Cd 0.17586 0.23447 0.15554 0.0
O3 O 0.15266 0.24302 0.02219 0.0
Cd4 Cd 0.14943 0.27212 0.10286 0.0
C5 C 0.19792 0.27139 0.04839 0.0
O6 O 0.1481 0.25352 0.20677 0.0
O7 O 0.16175 0.28448 0.21084 0.0
O8 O 0.1124 0.27939 0.08574 0.0
C9 C 0.15484 0.26857 0.24156 0.0
O10 O 0.1998 0.25531 0.08553 0.0
C11 C 0.11541 0.29883 0.07608 0.0
O12 O 0.18097 0.28163 0.04576 0.0
O13 O 0.13408 0.30539 0.07598 0.0
C14 C -0.00128 0.91346 0.20757 0.0
O15 O 0.00984 0.92035 0.25483 0.0
Cd16 Cd -0.00622 0.93291 0.35216 0.0
O17 O 0.97923 0.91007 0.21472 0.0
Cd18 Cd 0.95219 0.91053 0.30365 0.0
C19 C 0.95518 0.9611 0.26881 0.0
O20 O 0.97567 0.90315 0.39385 0.0
O21 O 0.94675 0.91809 0.42126 0.0
O22 O 0.93934 0.87602 0.27179 0.0
C23 C 0.96321 0.90867 0.43918 0.0
O24 O 0.97246 0.96049 0.30006 0.0
C25 C 0.92066 0.88 0.28885 0.0
O26 O 0.9438 0.94496 0.2631 0.0
O27 O 0.91655 0.89865 0.30586 0.0
C28 C 0.32343 0.73279 0.52148 0.0
O29 O 0.31929 0.74542 0.56824 0.0
Cd30 Cd 0.3027 0.73257 0.66476 0.0
O31 O 0.32208 0.71305 0.52936 0.0
Cd32 Cd 0.31578 0.68664 0.61713 0.0
C33 C 0.26714 0.70073 0.58115 0.0
O34 O 0.32659 0.70773 0.70841 0.0
O35 O 0.30704 0.68156 0.73516 0.0
O36 O 0.34912 0.67124 0.59273 0.0
C37 C 0.31887 0.69635 0.75347 0.0
O38 O 0.2715 0.71739 0.61297 0.0
C39 C 0.34279 0.6525 0.5976 0.0
O40 O 0.2804 0.68606 0.57456 0.0
O41 O 0.32339 0.64947 0.60612 0.0
C42 C 0.49663 0.08054 0.77925 0.0
O43 O 0.48355 0.07315 0.82039 0.0
Cd44 Cd 0.49482 0.05131 0.90943 0.0
O45 O 0.51603 0.07785 0.7897 0.0
Cd46 Cd 0.54042 0.06413 0.87451 0.0
C47 C 0.52451 0.01907 0.80963 0.0
O48 O 0.5197 0.07128 0.97198 0.0
O49 O 0.54457 0.0487 -0.01469 0.0
O50 O 0.55856 0.09685 0.86541 0.0
C51 C 0.53093 0.06057 0.01108 0.0
O52 O 0.50796 0.02185 0.84344 0.0
C53 C 0.57663 0.08877 0.86376 0.0
O54 O 0.53938 0.03216 0.81121 0.0
O55 O 0.57804 0.06895 0.86477 0.0
C56 C 0.12983 0.73169 0.55296 0.0
O57 O 0.13829 0.74817 0.53026 0.0
Cd58 Cd 0.15366 0.75234 0.42502 0.0
O59 O 0.12821 0.71518 0.51808 0.0
Cd60 Cd 0.13834 0.70516 0.40429 0.0
C61 C 0.18867 0.71278 0.45045 0.0
O62 O 0.12681 0.73792 0.35839 0.0
O63 O 0.14429 0.71827 0.29103 0.0
O64 O 0.1061 0.68575 0.39966 0.0
C65 C 0.13275 0.73415 0.29993 0.0
O66 O 0.1856 0.73226 0.44204 0.0
C67 C 0.11415 0.66906 0.37716 0.0
O68 O 0.17407 0.69957 0.44256 0.0
O69 O 0.13376 0.66888 0.36819 0.0
C70 C 0.47476 0.90409 0.66313 0.0
O71 O 0.46358 0.90998 0.6145 0.0
Cd72 Cd 0.48154 0.92553 0.52401 0.0
O73 O 0.49438 0.90154 0.65677 0.0
Cd74 Cd 0.52219 0.90228 0.57056 0.0
C75 C 0.51798 0.95115 0.62312 0.0
O76 O 0.50134 0.89838 0.4725 0.0
O77 O 0.53046 0.91492 0.45875 0.0
O78 O 0.53343 0.86616 0.58694 0.0
C79 C 0.51477 0.90594 0.43317 0.0
O80 O 0.5013 0.95165 0.58873 0.0
C81 C 0.55268 0.87087 0.58885 0.0
O82 O 0.52948 0.93496 0.62455 0.0
O83 O 0.5575 0.8901 0.58563 0.0
C84 C 0.32261 0.24468 0.93792 0.0
O85 O 0.31704 0.23085 0.89644 0.0
Cd86 Cd 0.30212 0.24189 0.79607 0.0
O87 O 0.32258 0.26411 0.92327 0.0
Cd88 Cd 0.31612 0.2871 0.82534 0.0
C89 C 0.26758 0.27616 0.87029 0.0
O90 O 0.33085 0.2618 0.75239 0.0
O91 O 0.31267 0.28552 0.70273 0.0
O92 O 0.34774 0.30565 0.85249 0.0
C93 C 0.32616 0.271 0.69892 0.0
O94 O 0.27137 0.25807 0.84701 0.0
C95 C 0.34068 0.32364 0.83784 0.0
O96 O 0.28085 0.29078 0.8654 0.0
O97 O 0.32161 0.32494 0.82154 0.0
C98 C 0.97399 0.09649 0.21778 0.0
O99 O 0.9886 0.09343 0.17653 0.0
Cd100 Cd 0.98143 0.07805 0.07426 0.0
O101 O 0.95484 0.09448 0.20155 0.0
Cd102 Cd 0.93351 0.08858 0.09907 0.0
C103 C 0.94753 0.03979 0.13396 0.0
O104 O 0.95881 0.10324 0.0257 0.0
O105 O 0.93567 0.08416 0.97728 0.0
O106 O 0.91313 0.11936 0.12454 0.0
C107 C 0.95062 0.09703 0.97232 0.0
O108 O 0.96563 0.04553 0.11535 0.0
C109 C 0.89583 0.11128 0.10795 0.0
O110 O 0.93202 0.05211 0.13025 0.0
O111 O 0.89579 0.09223 0.09032 0.0
C112 C 0.85436 0.72871 0.04035 0.0
O113 O 0.85232 0.74673 0.01443 0.0
Cd114 Cd 0.83528 0.75319 0.91255 0.0
O115 O 0.84912 0.71242 0.0084 0.0
Cd116 Cd 0.83716 0.70363 0.8963 0.0
C117 C 0.79153 0.7236 0.94647 0.0
O118 O 0.85382 0.73183 0.83681 0.0
O119 O 0.8289 0.71567 0.78532 0.0
O120 O 0.86533 0.67914 0.89043 0.0
C121 C 0.84391 0.72854 0.78357 0.0
O122 O 0.79964 0.74155 0.93711 0.0
C123 C 0.85438 0.66394 0.87004 0.0
O124 O 0.80188 0.70685 0.93751 0.0
O125 O 0.83489 0.66683 0.86326 0.0
C126 C 0.98988 0.10419 0.72307 0.0
O127 O 0.97595 0.09617 0.68625 0.0
Cd128 Cd 0.98113 0.08129 0.58022 0.0
O129 O 0.00871 0.10573 0.70361 0.0
Cd130 Cd 0.02866 0.09564 0.60361 0.0
C131 C 0.01625 0.04536 0.63871 0.0
O132 O 0.00239 0.10657 0.52633 0.0
O133 O 0.02662 0.08717 0.48505 0.0
O134 O 0.05006 0.12677 0.61234 0.0
C135 C 0.01083 0.09874 0.47554 0.0
O136 O -0.00151 0.04865 0.61247 0.0
C137 C 0.06715 0.11711 0.60338 0.0
O138 O 0.02964 0.0599 0.64452 0.0
O139 O 0.06644 0.09737 0.59693 0.0
C140 C 0.66077 0.24412 0.48828 0.0
O141 O 0.67124 0.23004 0.4589 0.0
Cd142 Cd 0.68538 0.23519 0.35162 0.0
O143 O 0.65735 0.26175 0.46087 0.0
Cd144 Cd 0.66759 0.27921 0.35669 0.0
C145 C 0.718 0.27379 0.40192 0.0
O146 O 0.65549 0.24973 0.29527 0.0
O147 O 0.67254 0.27232 0.23682 0.0
O148 O 0.63468 0.29654 0.37721 0.0
C149 C 0.65945 0.25745 0.23888 0.0
O150 O 0.71652 0.25511 0.381 0.0
C151 C 0.63964 0.31351 0.3487 0.0
O152 O 0.70241 0.28606 0.40031 0.0
O153 O 0.65813 0.31514 0.32671 0.0
C154 C 0.48708 0.91169 0.16279 0.0
O155 O 0.49801 0.91922 0.11598 0.0
Cd156 Cd 0.47881 0.93432 0.02835 0.0
O157 O 0.4675 0.90884 0.15611 0.0
Cd158 Cd 0.4389 0.91086 0.07192 0.0
C159 C 0.44187 0.95833 0.13181 0.0
O160 O 0.46168 0.90484 0.97914 0.0
O161 O 0.43298 0.92104 0.95584 0.0
O162 O 0.42805 0.87628 0.11093 0.0
C163 C 0.4488 0.91095 0.93567 0.0
O164 O 0.45897 0.95856 0.09966 0.0
C165 C 0.40956 0.8779 0.08886 0.0
O166 O 0.42951 0.94289 0.12764 0.0
O167 O 0.40469 0.89521 0.06213 0.0
C168 C 0.8383 0.24005 0.52929 0.0
O169 O 0.83617 0.22859 0.58038 0.0
Cd170 Cd 0.81927 0.24704 0.66742 0.0
O171 O 0.83846 0.25991 0.53412 0.0
Cd172 Cd 0.83912 0.28904 0.61501 0.0
C173 C 0.79106 0.28154 0.5643 0.0
O174 O 0.84367 0.27025 0.71702 0.0
O175 O 0.82646 0.29932 0.72464 0.0
O176 O 0.87514 0.29803 0.59292 0.0
C177 C 0.8353 0.28403 0.75353 0.0
O178 O 0.79243 0.26507 0.6 0.0
C179 C 0.87143 0.31751 0.58794 0.0
O180 O 0.80596 0.2946 0.56097 0.0
O181 O 0.8526 0.32355 0.5923 0.0
C182 C 0.50487 0.06109 0.28447 0.0
O183 O 0.51272 0.04927 0.32895 0.0
Cd184 Cd 0.49458 0.03519 0.42406 0.0
O185 O 0.48706 0.06968 0.29176 0.0
Cd186 Cd 0.45875 0.07189 0.37438 0.0
C187 C 0.45165 0.02072 0.33095 0.0
O188 O 0.47771 0.06369 0.47582 0.0
O189 O 0.45705 0.08993 0.48246 0.0
O190 O 0.45049 0.10579 0.32738 0.0
C191 C 0.47024 0.0783 0.51073 0.0
O192 O 0.46901 0.01621 0.35821 0.0
C193 C 0.43107 0.10403 0.33977 0.0
O194 O 0.4435 0.03882 0.33658 0.0
O195 O 0.4245 0.08668 0.36283 0.0
C196 C 0.6427 0.74118 0.00981 0.0
O197 O 0.64908 0.75541 0.04875 0.0
Cd198 Cd 0.66999 0.74775 0.14368 0.0
O199 O 0.64726 0.72214 0.02182 0.0
Cd200 Cd 0.66389 0.69926 0.10438 0.0
C201 C 0.70955 0.72123 0.06306 0.0
O202 O 0.65215 0.71961 0.19701 0.0
O203 O 0.67604 0.69663 0.21862 0.0
O204 O 0.6346 0.67612 0.09177 0.0
C205 C 0.66293 0.70989 0.23966 0.0
O206 O 0.70351 0.73735 0.09487 0.0
C207 C 0.64529 0.65942 0.092 0.0
O208 O 0.6979 0.7053 0.05596 0.0
O209 O 0.66501 0.66111 0.09397 0.0
C210 C -0.00697 0.90885 0.70825 0.0
O211 O 0.98066 0.91235 0.75617 0.0
Cd212 Cd -0.00684 0.92894 0.85324 0.0
O213 O 0.01273 0.91045 0.71505 0.0
Cd214 Cd 0.0389 0.91706 0.80311 0.0
C215 C 0.02362 0.96555 0.76937 0.0
O216 O 0.01884 0.90606 0.89724 0.0
O217 O 0.04345 0.92806 0.91889 0.0
O218 O 0.05771 0.88469 0.78891 0.0
C219 C 0.02971 0.91546 0.94016 0.0
O220 O 0.0073 0.96092 0.80239 0.0
C221 C 0.07561 0.89316 0.78873 0.0
O222 O 0.0383 0.95242 0.76116 0.0
O223 O 0.0764 0.91302 0.78764 0.0
C224 C 0.66011 0.73816 0.50954 0.0
O225 O 0.66758 0.72669 0.55516 0.0
Cd226 Cd 0.67726 0.74336 0.6538 0.0
O227 O 0.65515 0.75721 0.52002 0.0
Cd228 Cd 0.6529 0.78233 0.61405 0.0
C229 C 0.70314 0.7846 0.57854 0.0
O230 O 0.64444 0.75621 0.69429 0.0
O231 O 0.65832 0.78387 0.73592 0.0
O232 O 0.61742 0.79135 0.58169 0.0
C233 C 0.64819 0.76705 0.74521 0.0
O234 O 0.70366 0.76676 0.60659 0.0
C235 C 0.61954 0.81068 0.59424 0.0
O236 O 0.68633 0.79505 0.57557 0.0
O237 O 0.63736 0.81697 0.61288 0.0
C238 C 0.48954 0.39294 0.73485 0.0
O239 O 0.5026 0.39932 0.77759 0.0
Cd240 Cd 0.49441 0.41234 0.88454 0.0
O241 O 0.47015 0.39162 0.74802 0.0
Cd242 Cd 0.44738 0.40107 0.84188 0.0
C243 C 0.46458 0.45026 0.8122 0.0
O244 O 0.46955 0.38853 0.9291 0.0
O245 O 0.44509 0.40962 0.9599 0.0
O246 O 0.4257 0.37077 0.82445 0.0
C247 C 0.45951 0.39698 0.97592 0.0
O248 O 0.48061 0.44599 0.84703 0.0
C249 C 0.40863 0.38079 0.8282 0.0
O250 O 0.45058 0.43665 0.80072 0.0
O251 O 0.40951 0.40052 0.83488 0.0
C252 C 0.82258 0.25676 0.02243 0.0
O253 O 0.8171 0.26966 0.06705 0.0
Cd254 Cd 0.80319 0.25879 0.17199 0.0
O255 O 0.82218 0.23711 0.03276 0.0
Cd256 Cd 0.81284 0.21291 0.12278 0.0
C257 C 0.7638 0.23112 0.10053 0.0
O258 O 0.82659 0.23275 0.21483 0.0
O259 O 0.80593 0.2071 0.23978 0.0
O260 O 0.84327 0.19266 0.09491 0.0
C261 C 0.81896 0.22074 0.2587 0.0
O262 O 0.76868 0.2467 0.13666 0.0
C263 C 0.8341 0.17511 0.09825 0.0
O264 O 0.77702 0.21697 0.08638 0.0
O265 O 0.81455 0.17507 0.10858 0.0
C266 C 0.98543 0.56329 0.2358 0.0
O267 O 0.97355 0.55626 0.28095 0.0
Cd268 Cd 0.99037 0.54397 0.37702 0.0
O269 O 0.00473 0.56673 0.24664 0.0
Cd270 Cd 0.03017 0.5663 0.34055 0.0
C271 C 0.02933 0.51725 0.29228 0.0
O272 O 0.00508 0.5756 0.42212 0.0
O273 O 0.03147 0.55895 0.46192 0.0
O274 O 0.04058 0.60185 0.31215 0.0
C275 C 0.016 0.57094 0.47223 0.0
O276 O 0.01138 0.5174 0.31922 0.0
C277 C 0.05956 0.59914 0.32783 0.0
O278 O 0.04121 0.53307 0.29623 0.0
O279 O 0.06516 0.58086 0.34492 0.0
C280 C 0.62637 0.23294 -0.00436 0.0
O281 O 0.62432 0.24796 0.95478 0.0
Cd282 Cd 0.64703 0.24694 0.86242 0.0
O283 O 0.63528 0.21613 0.97693 0.0
Cd284 Cd 0.64895 0.19743 0.87945 0.0
C285 C 0.68884 0.22267 0.9446 0.0
O286 O 0.63542 0.21931 0.7928 0.0
O287 O 0.66326 0.2015 0.76893 0.0
O288 O 0.62084 0.17286 0.88336 0.0
C289 C 0.64851 0.2133 0.74977 0.0
O290 O 0.67934 0.23895 0.92374 0.0
C291 C 0.63234 0.15674 0.87951 0.0
O292 O 0.68179 0.20444 0.93303 0.0
O293 O 0.65197 0.15936 0.87763 0.0
C294 C 0.98544 0.40795 0.11752 0.0
O295 O 0.97509 0.41437 0.06774 0.0
Cd296 Cd -0.00325 0.43066 -0.01351 0.0
O297 O 0.00498 0.40479 0.11333 0.0
Cd298 Cd 0.03444 0.40388 0.03495 0.0
C299 C 0.03239 0.45092 0.10132 0.0
O300 O 0.01651 0.40433 0.93026 0.0
O301 O 0.04753 0.4179 0.92971 0.0
O302 O 0.03811 0.36615 0.04459 0.0
C303 C 0.03183 0.41138 0.89739 0.0
O304 O 0.01651 0.45301 0.06379 0.0
C305 C 0.0576 0.36686 0.05536 0.0
O306 O 0.04333 0.43432 0.10044 0.0
O307 O 0.06614 0.38476 0.05883 0.0
C308 C 0.83873 0.75906 0.53038 0.0
O309 O 0.82824 0.74329 0.51172 0.0
Cd310 Cd 0.81066 0.74111 0.40982 0.0
O311 O 0.84058 0.77529 0.49414 0.0
Cd312 Cd 0.82818 0.78684 0.38392 0.0
C313 C 0.77869 0.78368 0.43701 0.0
O314 O 0.83901 0.75292 0.34402 0.0
O315 O 0.82364 0.77273 0.27198 0.0
O316 O 0.85895 0.80824 0.40174 0.0
C317 C 0.83439 0.75654 0.28425 0.0
O318 O 0.78122 0.76401 0.43253 0.0
C319 C 0.85645 0.81964 0.35068 0.0
O320 O 0.79331 0.79634 0.42283 0.0
O321 O 0.83993 0.81672 0.3173 0.0
C322 C 0.48754 0.58627 0.76529 0.0
O323 O 0.50336 0.5844 0.72807 0.0
Cd324 Cd 0.50008 0.56888 0.62443 0.0
O325 O 0.46903 0.58351 0.7435 0.0
Cd326 Cd 0.45145 0.57747 0.63408 0.0
C327 C 0.46571 0.52939 0.67374 0.0
O328 O 0.47832 0.59364 0.57018 0.0
O329 O 0.45835 0.57297 0.5146 0.0
O330 O 0.42819 0.60686 0.65138 0.0
C331 C 0.47246 0.58683 0.51452 0.0
O332 O 0.4841 0.53601 0.66237 0.0
C333 C 0.41226 0.59751 0.6287 0.0
O334 O 0.44997 0.54094 0.66286 0.0
O335 O 0.41428 0.57856 0.61127 0.0
C336 C 0.34964 0.24839 0.44235 0.0
O337 O 0.34082 0.26127 0.40329 0.0
Cd338 Cd 0.32173 0.24949 0.30929 0.0
O339 O 0.35029 0.22905 0.42729 0.0
Cd340 Cd 0.34179 0.20428 0.33794 0.0
C341 C 0.29344 0.21204 0.39608 0.0
O342 O 0.3453 0.22836 0.24727 0.0
O343 O 0.32737 0.20038 0.22702 0.0
O344 O 0.37702 0.1906 0.34007 0.0
C345 C 0.33616 0.21681 0.20547 0.0
O346 O 0.29423 0.22966 0.36644 0.0
C347 C 0.37147 0.17155 0.34114 0.0
O348 O 0.30877 0.19938 0.39499 0.0
O349 O 0.35206 0.16766 0.34313 0.0
C350 C 0.51172 0.59184 0.26948 0.0
O351 O 0.49571 0.58652 0.23649 0.0
Cd352 Cd 0.49612 0.56983 0.13259 0.0
O353 O 0.53 0.58976 0.24576 0.0
Cd354 Cd 0.54587 0.5773 0.14149 0.0
C355 C 0.5281 0.52985 0.1867 0.0
O356 O 0.51913 0.59168 0.07232 0.0
O357 O 0.53892 0.56892 0.02478 0.0
O358 O 0.56908 0.60676 0.14554 0.0
C359 C 0.52483 0.58275 0.0196 0.0
O360 O 0.51023 0.53587 0.16682 0.0
C361 C 0.58527 0.59656 0.1293 0.0
O362 O 0.54383 0.54193 0.18543 0.0
O363 O 0.58352 0.57694 0.12122 0.0
C364 C 0.12844 0.76877 0.05682 0.0
O365 O 0.13038 0.75025 0.035 0.0
Cd366 Cd 0.14748 0.7414 0.93638 0.0
O367 O 0.13388 0.78452 0.02207 0.0
Cd368 Cd 0.14677 0.79007 0.9072 0.0
C369 C 0.19153 0.7713 0.96709 0.0
O370 O 0.12792 0.76123 0.85908 0.0
O371 O 0.15329 0.77355 0.79999 0.0
O372 O 0.12007 0.81615 0.89313 0.0
C373 C 0.13706 0.76231 0.80372 0.0
O374 O 0.18256 0.75357 0.96381 0.0
C375 C 0.13162 0.82933 0.86376 0.0
O376 O 0.18226 0.78792 0.94865 0.0
O377 O 0.15079 0.82485 0.85694 0.0
C378 C 0.01007 0.41789 0.62316 0.0
O379 O 0.02003 0.42569 0.5746 0.0
Cd380 Cd 0.00125 0.43658 0.47762 0.0
O381 O 0.99089 0.41312 0.61794 0.0
Cd382 Cd 0.96297 0.41306 0.53385 0.0
C383 C 0.963 0.46461 0.55954 0.0
O384 O 0.98239 0.40738 0.43241 0.0
O385 O 0.95183 0.42157 0.42176 0.0
O386 O 0.95382 0.37706 0.55943 0.0
C387 C 0.96741 0.41277 0.39493 0.0
O388 O 0.9794 0.4646 0.52376 0.0
C389 C 0.93445 0.38094 0.56419 0.0
O390 O 0.95436 0.44736 0.57433 0.0
O391 O 0.92855 0.3998 0.55799 0.0
C392 C 0.32288 0.73042 0.01647 0.0
O393 O 0.31516 0.71869 0.06107 0.0
Cd394 Cd 0.30512 0.73047 0.16818 0.0
O395 O 0.32713 0.74955 0.02785 0.0
Cd396 Cd 0.32291 0.77502 0.11871 0.0
C397 C 0.27147 0.76576 0.09709 0.0
O398 O 0.33319 0.7516 0.20669 0.0
O399 O 0.31735 0.77978 0.23721 0.0
O400 O 0.35442 0.79105 0.07381 0.0
C401 C 0.32728 0.7634 0.25343 0.0
O402 O 0.27392 0.74944 0.13272 0.0
C403 C 0.35031 0.80921 0.09573 0.0
O404 O 0.28673 0.77762 0.08228 0.0
O405 O 0.33282 0.81156 0.12426 0.0
C406 C -0.00752 0.58746 0.735 0.0
O407 O 0.0057 0.57927 0.77419 0.0
Cd408 Cd -0.00662 0.55637 0.85856 0.0
O409 O 0.97309 0.58565 0.74761 0.0
Cd410 Cd 0.94784 0.57279 0.8303 0.0
C411 C 0.96084 0.5287 0.75323 0.0
O412 O 0.9701 0.57714 0.92458 0.0
O413 O 0.94428 0.55572 0.93854 0.0
O414 O 0.93029 0.60618 0.82844 0.0
C415 C 0.95896 0.56641 0.96364 0.0
O416 O 0.97805 0.52978 0.78466 0.0
C417 C 0.91207 0.59845 0.82637 0.0
O418 O 0.94669 0.54236 0.76096 0.0
O419 O 0.91041 0.57868 0.82322 0.0
C420 C 0.16719 0.24668 0.51498 0.0
O421 O 0.17375 0.25822 0.56176 0.0
Cd422 Cd 0.18995 0.24122 0.65393 0.0
O423 O 0.16608 0.22691 0.52173 0.0
Cd424 Cd 0.1712 0.19924 0.60596 0.0
C425 C 0.22015 0.20753 0.55931 0.0
O426 O 0.16418 0.21919 0.70511 0.0
O427 O 0.18193 0.19059 0.71911 0.0
O428 O 0.13577 0.18831 0.58625 0.0
C429 C 0.17134 0.20537 0.74421 0.0
O430 O 0.21866 0.22404 0.59432 0.0
C431 C 0.13995 0.16891 0.58551 0.0
O432 O 0.20502 0.19479 0.5544 0.0
O433 O 0.15898 0.16351 0.5896 0.0
C434 C 0.49235 0.39491 0.24108 0.0
O435 O 0.47979 0.39962 0.28741 0.0
Cd436 Cd 0.49187 0.41381 0.3882 0.0
O437 O 0.51205 0.39474 0.25004 0.0
Cd438 Cd 0.53781 0.39894 0.34141 0.0
C439 C 0.52612 0.44928 0.3151 0.0
O440 O 0.51519 0.38778 0.42793 0.0
O441 O 0.54192 0.40524 0.46147 0.0
O442 O 0.55535 0.36599 0.32385 0.0
C443 C 0.5262 0.39409 0.47579 0.0
O444 O 0.50874 0.44536 0.34319 0.0
C445 C 0.57353 0.37385 0.32195 0.0
O446 O 0.54009 0.43528 0.30914 0.0
O447 O 0.57496 0.39366 0.3232 0.0
C448 C 0.22899 0.27561 0.88766 0.0
C449 C 0.2492 0.27886 0.91392 0.0
C450 C 0.23448 0.28264 0.02599 0.0
C451 C 0.21486 0.27634 0.00113 0.0
N452 N 0.19335 0.26514 0.90901 0.0
N453 N 0.27179 0.28313 0.00963 0.0
C454 C 0.21198 0.27262 0.93196 0.0
C455 C 0.25213 0.28206 -0.01659 0.0
N456 N 0.22611 0.2756 0.8203 0.0
N457 N 0.23616 0.28937 0.09026 0.0
H458 H 0.28533 0.28253 -0.01888 0.0
H459 H 0.27482 0.28277 0.06049 0.0
H460 H 0.22346 0.28992 0.12263 0.0
H461 H 0.24959 0.29625 0.1095 0.0
H462 H 0.2115 0.27532 0.79773 0.0
H463 H 0.23834 0.27782 0.78678 0.0
H464 H 0.19108 0.25983 0.86065 0.0
H465 H 0.18042 0.26275 0.93935 0.0
C466 C 0.95116 0.98114 0.16252 0.0
C467 C 0.94946 0.98048 0.23302 0.0
C468 C 0.941 0.01788 0.23549 0.0
C469 C 0.94527 0.01905 0.16609 0.0
N470 N 0.95412 0.00237 0.06262 0.0
N471 N 0.94322 -0.00238 0.3376 0.0
C472 C 0.95005 0.00077 0.12925 0.0
C473 C 0.94428 -0.00134 0.26969 0.0
N474 N 0.95401 0.96302 0.12748 0.0
N475 N 0.93399 0.03514 0.26893 0.0
H476 H 0.94417 0.98357 0.36392 0.0
H477 H 0.94241 0.01066 0.36839 0.0
H478 H 0.93258 0.0499 0.24747 0.0
H479 H 0.92831 0.03473 0.31736 0.0
H480 H 0.95316 0.96203 0.07593 0.0
H481 H 0.95615 0.94845 0.1498 0.0
H482 H 0.96048 0.99039 0.03411 0.0
H483 H 0.95184 0.01617 0.03576 0.0
C484 C 0.22629 0.70251 0.44381 0.0
C485 C 0.20826 0.7061 0.48266 0.0
C486 C 0.22831 0.70018 0.5848 0.0
C487 C 0.24683 0.6996 0.54655 0.0
N488 N 0.26405 0.70166 0.43974 0.0
N489 N 0.19184 0.70991 0.59 0.0
C490 C 0.246 0.70082 0.4759 0.0
C491 C 0.20914 0.70514 0.55319 0.0
N492 N 0.2245 0.7007 0.37634 0.0
N493 N 0.2291 0.69568 0.65126 0.0
H494 H 0.17738 0.71323 0.56876 0.0
H495 H 0.19209 0.712 0.64133 0.0
H496 H 0.24297 0.69184 0.67558 0.0
H497 H 0.21592 0.69384 0.6809 0.0
H498 H 0.23669 0.69603 0.34553 0.0
H499 H 0.21025 0.70218 0.35166 0.0
H500 H 0.26453 0.70519 0.38921 0.0
H501 H 0.27882 0.70031 0.46092 0.0
C502 C 0.52482 0.00585 0.69237 0.0
C503 C 0.52526 0.00159 0.76181 0.0
C504 C 0.52097 0.96424 0.74017 0.0
C505 C 0.52204 0.9683 0.6706 0.0
N506 N 0.5288 0.99224 0.58057 0.0
N507 N 0.52791 0.97678 0.85164 0.0
C508 C 0.52517 0.98891 0.64672 0.0
C509 C 0.52465 0.98077 0.78563 0.0
N510 N 0.52287 0.026 0.67001 0.0
N511 N 0.51519 0.94492 0.76304 0.0
H512 H 0.53065 0.98859 0.88632 0.0
H513 H 0.52983 0.96175 0.87089 0.0
H514 H 0.51198 0.93231 0.73198 0.0
H515 H 0.51165 0.94188 0.81266 0.0
H516 H 0.52003 0.02983 0.62046 0.0
H517 H 0.52228 0.03892 0.70152 0.0
H518 H 0.53329 0.00666 0.56107 0.0
H519 H 0.52918 0.98011 0.54589 0.0
C520 C 0.73284 0.72863 0.96628 0.0
C521 C 0.7304 0.72124 0.03241 0.0
C522 C 0.76809 0.71623 0.04276 0.0
C523 C 0.77042 0.72233 0.97521 0.0
N524 N 0.75531 0.73164 0.86953 0.0
N525 N 0.74471 0.70519 0.13089 0.0
C526 C 0.75286 0.72782 0.93602 0.0
C527 C 0.74775 0.71417 0.06985 0.0
N528 N 0.71607 0.7368 0.93306 0.0
N529 N 0.78534 0.71336 0.08183 0.0
H530 H 0.73006 0.70394 0.15307 0.0
H531 H 0.75642 0.69758 0.15747 0.0
H532 H 0.80055 0.71475 0.06402 0.0
H533 H 0.78469 0.71128 0.13313 0.0
H534 H 0.71718 0.74456 0.88766 0.0
H535 H 0.70105 0.73705 0.95297 0.0
H536 H 0.74295 0.73361 0.8366 0.0
H537 H 0.76981 0.7313 0.846 0.0
C538 C 0.02371 0.987 0.66467 0.0
C539 C 0.02447 0.98602 0.73533 0.0
C540 C 0.01978 0.02391 0.74202 0.0
C541 C 0.02017 0.02506 0.67152 0.0
N542 N 0.02604 0.00863 0.56556 0.0
N543 N 0.02768 0.00355 0.84071 0.0
C544 C 0.02325 0.00686 0.63273 0.0
C545 C 0.0239 0.00451 0.77384 0.0
N546 N 0.02228 0.96901 0.62818 0.0
N547 N 0.01437 0.04109 0.77852 0.0
H548 H 0.03087 0.98955 0.86548 0.0
H549 H 0.02959 0.01674 0.87042 0.0
H550 H 0.01087 0.05554 0.75709 0.0
H551 H 0.01152 0.04058 0.82944 0.0
H552 H 0.01907 0.96881 0.57743 0.0
H553 H 0.02266 0.9541 0.64923 0.0
H554 H 0.03054 -0.00379 0.53534 0.0
H555 H 0.02555 0.02297 0.5407 0.0
C556 C 0.73474 0.28078 0.51205 0.0
C557 C 0.73656 0.27952 0.44169 0.0
C558 C 0.77457 0.282 0.45071 0.0
C559 C 0.77257 0.28399 0.52096 0.0
N560 N 0.75093 0.29054 0.61635 0.0
N561 N 0.75741 0.28285 0.34289 0.0
C562 C 0.75266 0.28516 0.55082 0.0
C563 C 0.75627 0.28148 0.41063 0.0
N564 N 0.71619 0.27631 0.54238 0.0
N565 N 0.79381 0.27931 0.42265 0.0
H566 H 0.74422 0.28232 0.31254 0.0
H567 H 0.77108 0.28627 0.31719 0.0
H568 H 0.80763 0.27943 0.44988 0.0
H569 H 0.79609 0.27547 0.37292 0.0
H570 H 0.71459 0.27455 0.59364 0.0
H571 H 0.70275 0.27239 0.5162 0.0
H572 H 0.73672 0.29366 0.63939 0.0
H573 H 0.76387 0.29392 0.64594 0.0
C574 C 0.43855 -0.0042 0.1643 0.0
C575 C 0.43858 0.97451 0.18341 0.0
C576 C 0.43939 0.98497 0.30078 0.0
C577 C 0.44333 0.00585 0.28111 0.0
N578 N 0.44943 0.03083 0.19209 0.0
N579 N 0.4416 0.94848 0.27081 0.0
C580 C 0.44327 0.01135 0.21235 0.0
C581 C 0.43929 0.96893 0.25201 0.0
N582 N 0.43424 0.0011 0.0999 0.0
N583 N 0.43596 0.9805 0.36633 0.0
H584 H 0.44204 0.93606 0.23744 0.0
H585 H 0.44493 0.94394 0.31945 0.0
H586 H 0.4359 0.99206 0.40295 0.0
H587 H 0.43112 0.96586 0.38314 0.0
H588 H 0.43207 0.0165 0.08418 0.0
H589 H 0.43073 0.98994 0.06377 0.0
H590 H 0.4522 0.03463 0.14247 0.0
H591 H 0.45367 0.04276 0.2245 0.0
C592 C 0.72154 0.79039 0.46986 0.0
C593 C 0.72171 0.7914 0.54062 0.0
C594 C 0.75977 0.79349 0.54078 0.0
C595 C 0.75963 0.79118 0.47056 0.0
N596 N 0.74127 0.79331 0.36691 0.0
N597 N 0.73984 0.79972 0.64163 0.0
C598 C 0.74072 0.79175 0.43466 0.0
C599 C 0.74052 0.79498 0.57542 0.0
N600 N 0.70332 0.78661 0.43663 0.0
N601 N 0.77827 0.79296 0.5745 0.0
H602 H 0.72579 0.80098 0.6676 0.0
H603 H 0.7528 0.80422 0.66922 0.0
H604 H 0.79266 0.79269 0.55042 0.0
H605 H 0.77942 0.79186 0.62601 0.0
H606 H 0.70258 0.78306 0.3862 0.0
H607 H 0.68886 0.7857 0.46 0.0
H608 H 0.72811 0.79562 0.33749 0.0
H609 H 0.75527 0.79424 0.3406 0.0
C610 C 0.47689 0.47314 0.71946 0.0
C611 C 0.46386 0.47031 0.77583 0.0
C612 C 0.45114 0.50624 0.76491 0.0
C613 C 0.46307 0.50856 0.7054 0.0
N614 N 0.48258 0.49222 0.61708 0.0
N615 N 0.43566 0.48242 0.84489 0.0
C616 C 0.47456 0.49139 0.68003 0.0
C617 C 0.44992 0.48625 0.79585 0.0
N618 N 0.49175 0.45859 0.70397 0.0
N619 N 0.44217 0.52321 0.79481 0.0
H620 H 0.435 0.46829 0.87089 0.0
H621 H 0.42349 0.49263 0.85617 0.0
H622 H 0.44293 0.53837 0.77609 0.0
H623 H 0.43557 0.52265 0.8421 0.0
H624 H 0.50317 0.46105 0.66792 0.0
H625 H 0.49372 0.44465 0.73022 0.0
H626 H 0.48936 0.4794 0.59356 0.0
H627 H 0.48037 0.50503 0.58556 0.0
C628 C 0.72355 0.23933 0.96669 0.0
C629 C 0.70767 0.22522 -0.01343 0.0
C630 C 0.72837 0.21538 0.08445 0.0
C631 C 0.74334 0.23068 0.06693 0.0
N632 N 0.7521 0.26127 0.00168 0.0
N633 N 0.69247 0.20425 0.07449 0.0
C634 C 0.73988 0.24404 0.0116 0.0
C635 C 0.70934 0.21441 0.04833 0.0
N636 N 0.7238 0.24731 0.90355 0.0
N637 N 0.73225 0.20185 0.13569 0.0
H638 H 0.67779 0.20436 0.05226 0.0
H639 H 0.69243 0.19766 0.12188 0.0
H640 H 0.74545 0.20297 0.16581 0.0
H641 H 0.723 0.18882 0.14564 0.0
H642 H 0.73622 0.256 0.88473 0.0
H643 H 0.71281 0.24333 0.8675 0.0
H644 H 0.74877 0.27259 0.96581 0.0
H645 H 0.76446 0.26528 0.03271 0.0
C646 C 0.04001 0.48793 0.13111 0.0
C647 C 0.03626 0.46717 0.15219 0.0
C648 C 0.03405 0.47913 0.26798 0.0
C649 C 0.03443 0.50013 0.2454 0.0
N650 N 0.03435 0.52459 0.15292 0.0
N651 N 0.02737 0.44292 0.24033 0.0
C652 C 0.03681 0.50463 0.17637 0.0
C653 C 0.03294 0.46264 0.22072 0.0
N654 N 0.0466 0.49167 0.06756 0.0
N655 N 0.0348 0.47499 0.33465 0.0
H656 H 0.0262 0.43033 0.20773 0.0
H657 H 0.02232 0.43933 0.2882 0.0
H658 H 0.03572 0.4868 0.37029 0.0
H659 H 0.03653 0.45999 0.35421 0.0
H660 H 0.05156 0.50632 0.05113 0.0
H661 H 0.04911 0.47968 0.03332 0.0
H662 H 0.03334 0.52817 0.10246 0.0
H663 H 0.03122 0.53742 0.18311 0.0
C664 C 0.2551 0.20608 0.40652 0.0
C665 C 0.27493 0.20725 0.43723 0.0
C666 C 0.25864 0.20293 0.54677 0.0
C667 C 0.23877 0.20489 0.51675 0.0
N668 N 0.21791 0.21108 0.41832 0.0
N669 N 0.29568 0.20943 0.53739 0.0
C670 C 0.23689 0.20695 0.44656 0.0
C671 C 0.27681 0.20611 0.50759 0.0
N672 N 0.25372 0.20394 0.33903 0.0
N673 N 0.26011 0.19786 0.61268 0.0
H674 H 0.30942 0.2121 0.51102 0.0
H675 H 0.29742 0.21128 0.58849 0.0
H676 H 0.24702 0.19541 0.64254 0.0
H677 H 0.27413 0.19415 0.63605 0.0
H678 H 0.23978 0.20092 0.31428 0.0
H679 H 0.26683 0.20318 0.30836 0.0
H680 H 0.21607 0.21532 0.36862 0.0
H681 H 0.20409 0.21206 0.4454 0.0
C682 C 0.52657 0.48834 0.32179 0.0
C683 C 0.52914 0.46997 0.2833 0.0
C684 C 0.53501 0.49137 0.18346 0.0
C685 C 0.52978 0.50942 0.22041 0.0
N686 N 0.51832 0.52532 0.32284 0.0
N687 N 0.53273 0.45371 0.17509 0.0
C688 C 0.52499 0.508 0.28915 0.0
C689 C 0.53278 0.47135 0.21352 0.0
N690 N 0.52629 0.48706 0.38967 0.0
N691 N 0.54209 0.49336 0.11965 0.0
H692 H 0.53074 0.43868 0.19413 0.0
H693 H 0.53275 0.45405 0.12332 0.0
H694 H 0.5434 0.50781 0.09574 0.0
H695 H 0.5483 0.48097 0.0925 0.0
H696 H 0.52653 0.50009 0.42066 0.0
H697 H 0.52786 0.47292 0.41526 0.0
H698 H 0.51201 0.52468 0.37049 0.0
H699 H 0.51759 0.54017 0.30137 0.0
C700 C 0.24657 0.75497 0.0081 0.0
C701 C 0.25144 0.76851 0.06186 0.0
C702 C 0.21703 0.78485 0.05257 0.0
C703 C 0.2128 0.77229 -0.00428 0.0
N704 N 0.22572 0.74961 0.90937 0.0
N705 N 0.24312 0.79879 0.12789 0.0
C706 C 0.22826 0.75862 0.97046 0.0
C707 C 0.2373 0.78437 0.08136 0.0
N708 N 0.25913 0.73827 -0.00626 0.0
N709 N 0.20142 0.79612 0.08191 0.0
H710 H 0.25753 0.79833 0.15192 0.0
H711 H 0.23431 0.81205 0.13888 0.0
H712 H 0.18621 0.79658 0.06386 0.0
H713 H 0.20306 0.80357 0.12762 0.0
H714 H 0.255 0.72661 0.96011 0.0
H715 H 0.27302 0.73513 0.0187 0.0
H716 H 0.23743 0.74118 0.88545 0.0
H717 H 0.21273 0.75248 0.8794 0.0
C718 C 0.94183 0.48338 0.64728 0.0
C719 C 0.95659 0.48422 0.59482 0.0
C720 C 0.97044 0.51701 0.63883 0.0
C721 C 0.95869 0.51373 0.69795 0.0
N722 N 0.93279 0.49429 0.75906 0.0
N723 N 0.97549 0.50758 0.52313 0.0
C724 C 0.94397 0.49725 0.70197 0.0
C725 C 0.96816 0.50282 0.58513 0.0
N726 N 0.92497 0.47045 0.64219 0.0
N727 N 0.98407 0.53339 0.63449 0.0
H728 H 0.9717 0.49855 0.48165 0.0
H729 H 0.98278 0.52163 0.51106 0.0
H730 H 0.98525 0.54499 0.67065 0.0
H731 H -0.00496 0.53492 0.59661 0.0
H732 H 0.91284 0.47013 0.67655 0.0
H733 H 0.92169 0.46226 0.59858 0.0
H734 H 0.9236 0.48114 0.76777 0.0
H735 H 0.93388 0.50426 0.79991 0.0
C736 C 0.14326 0.21049 0.90897 0.0
C737 C 0.16024 0.21462 0.95189 0.0
C738 C 0.1848 0.2115 0.85898 0.0
C739 C 0.16785 0.20693 0.81639 0.0
N740 N 0.13174 0.19757 0.80167 0.0
N741 N 0.19751 0.2151 0.97153 0.0
C742 C 0.14728 0.20503 0.8417 0.0
C743 C 0.18113 0.21363 0.92818 0.0
N744 N 0.12331 0.21231 0.93223 0.0
N745 N 0.20415 0.21524 0.83279 0.0
H746 H 0.19575 0.2176 0.02233 0.0
H747 H 0.21292 0.21219 0.9581 0.0
H748 H 0.20752 0.21385 0.78226 0.0
H749 H 0.2165 0.22141 0.86002 0.0
H750 H 0.11019 0.21198 0.90178 0.0
H751 H 0.11994 0.21521 -0.01785 0.0
H752 H 0.11686 0.19391 0.81872 0.0
H753 H 0.13422 0.19333 0.75221 0.0
C754 C 0.01402 0.93347 0.03789 0.0
C755 C 0.02319 0.9153 0.01012 0.0
C756 C 0.0153 0.89531 0.11103 0.0
C757 C 0.00752 0.91387 0.14026 0.0
N758 N 0.00259 0.95138 0.13714 0.0
N759 N 0.03554 0.87983 0.02179 0.0
C760 C 0.00791 0.93321 0.10546 0.0
C761 C 0.02467 0.89643 0.04713 0.0
N762 N 0.01001 0.95058 -0.00118 0.0
N763 N 0.0134 0.87667 0.14393 0.0
H764 H 0.04268 0.8802 0.97515 0.0
H765 H 0.03894 0.86634 0.04876 0.0
H766 H 0.00714 0.87552 0.19168 0.0
H767 H 0.01673 0.86223 0.12249 0.0
H768 H 0.00102 0.96323 0.01442 0.0
H769 H 0.01403 0.95146 0.94868 0.0
H770 H 0.00496 0.96617 0.11663 0.0
H771 H -0.00283 0.9519 0.18595 0.0
C772 C 0.34454 0.7432 0.42223 0.0
C773 C 0.3249 0.74107 0.45365 0.0
C774 C 0.30698 0.75137 0.35161 0.0
C775 C 0.32661 0.75555 0.32206 0.0
N776 N 0.36407 0.75778 0.32977 0.0
N777 N 0.28748 0.74585 0.45277 0.0
C778 C 0.34545 0.75203 0.35739 0.0
C779 C 0.30614 0.74605 0.41976 0.0
N780 N 0.36218 0.73656 0.45409 0.0
N781 N 0.28925 0.7513 0.31374 0.0
H782 H 0.28586 0.74109 0.5021 0.0
H783 H 0.27373 0.75182 0.43267 0.0
H784 H 0.28915 0.7546 0.26298 0.0
H785 H 0.2749 0.74593 0.331 0.0
H786 H 0.37672 0.7356 0.4313 0.0
H787 H 0.36202 0.73066 0.50253 0.0
H788 H 0.37815 0.75763 0.35554 0.0
H789 H 0.36528 0.7642 0.28219 0.0
C790 C 0.50385 0.09169 0.66088 0.0
C791 C 0.4893 0.08812 0.7127 0.0
C792 C 0.46161 0.08247 0.63137 0.0
C793 C 0.47681 0.08232 0.57998 0.0
N794 N 0.51226 0.08825 0.54381 0.0
N795 N 0.45346 0.09273 0.74432 0.0
C796 C 0.49791 0.08752 0.59404 0.0
C797 C 0.46781 0.08742 0.69712 0.0
N798 N 0.5226 0.10071 0.67539 0.0
N799 N 0.44152 0.07658 0.61838 0.0
H800 H 0.45791 0.09859 0.79061 0.0
H801 H 0.43756 0.09415 0.73464 0.0
H802 H 0.43634 0.07223 0.57125 0.0
H803 H 0.43044 0.07418 0.65548 0.0
H804 H 0.53355 0.10506 0.6398 0.0
H805 H 0.52598 0.10645 0.72272 0.0
H806 H 0.52826 0.08925 0.55178 0.0
H807 H 0.50829 0.08691 0.49373 0.0
C808 C 0.1131 0.7569 0.70833 0.0
C809 C 0.13004 0.74967 0.74744 0.0
C810 C 0.13653 0.72139 0.66903 0.0
C811 C 0.12357 0.73191 0.62311 0.0
N812 N 0.09626 0.75644 0.59989 0.0
N813 N 0.15673 0.72406 0.77054 0.0
C814 C 0.11037 0.74836 0.64392 0.0
C815 C 0.14117 0.73132 0.73012 0.0
N816 N 0.10028 0.77229 0.73199 0.0
N817 N 0.14459 0.70225 0.65339 0.0
H818 H 0.15992 0.73058 0.81696 0.0
H819 H 0.16705 0.71222 0.75704 0.0
H820 H 0.14088 0.69459 0.60926 0.0
H821 H 0.15316 0.6931 0.68646 0.0
H822 H 0.08693 0.77748 0.70763 0.0
H823 H 0.10228 0.77911 0.77863 0.0
H824 H 0.08746 0.76986 0.60819 0.0
H825 H 0.09366 0.7495 0.55363 0.0
C826 C 0.4544 0.88917 0.83427 0.0
C827 C 0.45387 0.90922 0.86455 0.0
C828 C 0.46361 0.92574 0.75952 0.0
C829 C 0.4661 0.90557 0.7308 0.0
N830 N 0.46596 0.86803 0.74099 0.0
N831 N 0.46146 0.94616 0.86051 0.0
C832 C 0.46209 0.88723 0.76824 0.0
C833 C 0.45925 0.92744 0.82834 0.0
N834 N 0.44704 0.87214 0.86815 0.0
N835 N 0.46553 0.94335 0.7212 0.0
H836 H 0.45851 0.9481 0.91112 0.0
H837 H 0.468 0.95939 0.83858 0.0
H838 H 0.46979 0.9431 0.67127 0.0
H839 H 0.46145 0.95825 0.73762 0.0
H840 H 0.44506 0.85746 0.84675 0.0
H841 H 0.44131 0.87303 0.91663 0.0
H842 H 0.46564 0.85412 0.76798 0.0
H843 H 0.47075 0.86612 0.69178 0.0
C844 C 0.34695 0.23519 0.02978 0.0
C845 C 0.32632 0.23826 0.00685 0.0
C846 C 0.31236 0.22948 0.11637 0.0
C847 C 0.3328 0.22421 0.13726 0.0
N848 N 0.3694 0.21963 0.11341 0.0
N849 N 0.28908 0.23609 0.02407 0.0
C850 C 0.35012 0.22651 0.09399 0.0
C851 C 0.30891 0.23474 0.04889 0.0
N852 N 0.36344 0.24071 -0.00963 0.0
N853 N 0.29645 0.23043 0.16162 0.0
H854 H 0.28579 0.24067 0.97538 0.0
H855 H 0.27591 0.23133 0.05031 0.0
H856 H 0.2984 0.22702 0.21197 0.0
H857 H 0.28175 0.23647 0.15067 0.0
H858 H 0.37882 0.24093 0.00682 0.0
H859 H 0.36158 0.24658 0.94226 0.0
H860 H 0.38219 0.21883 0.08169 0.0
H861 H 0.37229 0.21315 0.16016 0.0
C862 C -0.00287 0.11751 0.3758 0.0
C863 C -0.00042 0.0986 0.41209 0.0
C864 C 0.98255 0.07883 0.32396 0.0
C865 C 0.97982 0.09775 0.288 0.0
N866 N 0.9805 0.13531 0.28293 0.0
N867 N 0.99008 0.06243 0.42968 0.0
C868 C 0.98578 0.11722 0.31519 0.0
C869 C 0.99089 0.07959 0.38894 0.0
N870 N 0.00643 0.13545 0.39783 0.0
N871 N 0.97808 0.06004 0.29476 0.0
H872 H -0.00393 0.0623 0.47785 0.0
H873 H 0.98181 0.04891 0.4181 0.0
H874 H 0.97145 0.05879 0.24763 0.0
H875 H 0.9822 0.04564 0.31524 0.0
H876 H 0.00709 0.14924 0.37026 0.0
H877 H 0.01484 0.13623 0.44218 0.0
H878 H 0.98271 0.15017 0.30281 0.0
H879 H 0.97222 0.13536 0.23822 0.0
C880 C 0.86985 0.74453 0.14006 0.0
C881 C 0.85864 0.7277 0.11245 0.0
C882 C 0.83667 0.72527 0.21062 0.0
C883 C 0.84467 0.7449 0.23089 0.0
N884 N 0.87142 0.77139 0.22518 0.0
N885 N 0.84057 0.69563 0.13613 0.0
C886 C 0.86245 0.75375 0.19958 0.0
C887 C 0.84508 0.7158 0.15287 0.0
N888 N 0.88694 0.75183 0.10696 0.0
N889 N 0.82044 0.71635 0.24434 0.0
H890 H 0.84817 0.68809 0.09704 0.0
H891 H 0.83152 0.68571 0.16528 0.0
H892 H 0.81428 0.72277 0.28779 0.0
H893 H 0.81246 0.70319 0.22775 0.0
H894 H 0.89646 0.76391 0.12359 0.0
H895 H 0.89221 0.74457 0.06358 0.0
H896 H 0.88365 0.77946 0.203 0.0
H897 H 0.86638 0.77821 0.26943 0.0
C898 C 0.97975 0.08911 0.89565 0.0
C899 C 0.9614 0.10063 0.9091 0.0
C900 C 0.96561 0.12003 0.80524 0.0
C901 C 0.98411 0.10851 0.79266 0.0
N902 N 0.01291 0.08894 0.83927 0.0
N903 N 0.9389 0.12992 0.88489 0.0
C904 C -0.00735 0.09542 0.84251 0.0
C905 C 0.95498 0.11712 0.86656 0.0
N906 N 0.98425 0.07144 0.9312 0.0
N907 N 0.95807 0.13326 0.75754 0.0
H908 H 0.93047 0.12774 0.92874 0.0
H909 H 0.93474 0.1434 0.85893 0.0
H910 H 0.96647 0.13667 0.71438 0.0
H911 H 0.94343 0.1403 0.75976 0.0
H912 H -0.00328 0.0616 0.92001 0.0
H913 H 0.97409 0.06528 0.96663 0.0
H914 H 0.02011 0.08059 0.87748 0.0
H915 H 0.02322 0.09405 0.80278 0.0
C916 C 0.66102 0.25088 0.61042 0.0
C917 C 0.65286 0.23965 0.55558 0.0
C918 C 0.63738 0.21396 0.63132 0.0
C919 C 0.64897 0.223 0.68383 0.0
N920 N 0.67311 0.24901 0.72414 0.0
N921 N 0.63181 0.21161 0.5122 0.0
C922 C 0.661 0.24129 0.67385 0.0
C923 C 0.6404 0.22158 0.56569 0.0
N924 N 0.66859 0.2707 0.60236 0.0
N925 N 0.62356 0.1982 0.64445 0.0
H926 H 0.63228 0.21787 0.46425 0.0
H927 H 0.62476 0.19697 0.51474 0.0
H928 H 0.62134 0.19207 0.69205 0.0
H929 H 0.61324 0.19217 0.60949 0.0
H930 H 0.67294 0.28022 0.64197 0.0
H931 H 0.66841 0.27862 0.55717 0.0
H932 H 0.68413 0.26077 0.71727 0.0
H933 H 0.67344 0.24251 0.77173 0.0
C934 C 0.49724 0.92884 0.26869 0.0
C935 C 0.49619 0.91035 0.22973 0.0
C936 C 0.511 0.88988 0.3211 0.0
C937 C 0.50996 0.9079 0.36201 0.0
N938 N 0.49988 0.94391 0.37873 0.0
N939 N 0.50041 0.8731 0.21824 0.0
C940 C 0.50266 0.92729 0.33682 0.0
C941 C 0.50267 0.89079 0.25567 0.0
N942 N 0.49311 0.9479 0.24046 0.0
N943 N 0.52034 0.87209 0.34458 0.0
H944 H 0.49505 0.87341 0.16924 0.0
H945 H 0.50266 0.85803 0.23665 0.0
H946 H 0.52658 0.87097 0.3924 0.0
H947 H 0.52342 0.85902 0.31537 0.0
H948 H 0.49583 0.96211 0.26418 0.0
H949 H 0.48838 0.94974 0.19124 0.0
H950 H 0.49201 0.95754 0.36535 0.0
H951 H 0.50409 0.9436 0.42881 0.0
C952 C 0.84524 0.22289 0.35037 0.0
C953 C 0.82408 0.22352 0.32949 0.0
C954 C 0.81284 0.22857 0.44421 0.0
C955 C 0.83401 0.23115 0.46334 0.0
N956 N 0.87045 0.23228 0.4352 0.0
N957 N 0.78788 0.23054 0.35443 0.0
C958 C 0.85028 0.22869 0.41659 0.0
C959 C 0.80785 0.2271 0.37587 0.0
N960 N 0.86037 0.2161 0.30764 0.0
N961 N 0.79746 0.22776 0.49121 0.0
H962 H 0.78361 0.2306 0.30442 0.0
H963 H 0.7759 0.23554 0.38557 0.0
H964 H 0.80033 0.22891 0.54202 0.0
H965 H 0.78206 0.22389 0.48034 0.0
H966 H 0.87575 0.21345 0.32199 0.0
H967 H 0.85718 0.21122 0.25922 0.0
H968 H 0.88277 0.23315 0.40159 0.0
H969 H 0.87466 0.23555 0.48424 0.0
C970 C 0.52471 0.07763 0.19054 0.0
C971 C 0.5137 0.06029 0.21679 0.0
C972 C 0.5144 0.04289 0.10819 0.0
C973 C 0.52616 0.05983 0.08266 0.0
N974 N 0.54545 0.09169 0.09976 0.0
N975 N 0.50045 0.02504 0.20457 0.0
C976 C 0.5322 0.07675 0.12398 0.0
C977 C 0.5094 0.04244 0.17687 0.0
N978 N 0.52758 0.09504 0.22883 0.0
N979 N 0.50708 0.02778 0.06604 0.0
H980 H 0.49537 0.02432 0.25369 0.0
H981 H 0.49923 0.01073 0.18024 0.0
H982 H 0.51075 0.02731 0.01553 0.0
H983 H 0.49615 0.01654 0.0797 0.0
H984 H 0.53342 0.10912 0.21068 0.0
H985 H 0.52299 0.09577 0.27857 0.0
H986 H 0.5521 0.10335 0.12887 0.0
H987 H 0.55112 0.0915 0.05111 0.0
C988 C 0.63066 0.76818 0.9259 0.0
C989 C 0.63412 0.74695 0.94329 0.0
C990 C 0.64291 0.73829 0.82973 0.0
C991 C 0.64179 0.75988 0.81227 0.0
N992 N 0.62653 0.79364 0.83701 0.0
N993 N 0.62926 0.71181 0.90351 0.0
C994 C 0.63315 0.77442 0.85833 0.0
C995 C 0.63531 0.73196 0.89225 0.0
N996 N 0.6248 0.78212 0.9737 0.0
N997 N 0.65254 0.72396 0.78989 0.0
H998 H 0.62203 0.70737 0.94788 0.0
H999 H 0.62879 0.70057 0.86599 0.0
H1000 H 0.66036 0.72782 0.74639 0.0
H1001 H 0.65495 0.70849 0.80463 0.0
H1002 H 0.62473 0.79827 0.96682 0.0
H1003 H 0.61987 0.7772 0.02067 0.0
H1004 H 0.61873 0.8043 0.86717 0.0
H1005 H 0.62693 0.79818 0.78722 0.0
C1006 C 0.97378 0.8891 0.54136 0.0
C1007 C 0.96997 0.90849 0.50896 0.0
C1008 C 0.97872 0.92752 0.61018 0.0
C1009 C 0.98439 0.90828 0.64072 0.0
N1010 N 0.98966 0.87103 0.63495 0.0
N1011 N 0.97302 0.94617 0.50717 0.0
C1012 C 0.98263 0.8891 0.60616 0.0
C1013 C 0.97346 0.92774 0.54192 0.0
N1014 N 0.96834 0.87078 0.51094 0.0
N1015 N 0.97831 0.94563 0.64637 0.0
H1016 H 0.96977 0.9471 0.45647 0.0
H1017 H 0.97791 0.96039 0.52699 0.0
H1018 H 0.98305 0.94655 0.69584 0.0
H1019 H 0.97188 0.95954 0.62869 0.0
H1020 H 0.96878 0.85626 0.53444 0.0
H1021 H 0.96177 0.87024 0.4635 0.0
H1022 H 0.99091 0.85688 0.60972 0.0
H1023 H -0.00447 0.87049 0.68333 0.0
C1024 C 0.64254 0.72206 0.41163 0.0
C1025 C 0.66072 0.73043 0.44113 0.0
C1026 C 0.68008 0.72628 0.33745 0.0
C1027 C 0.66243 0.71631 0.30951 0.0
N1028 N 0.62792 0.70178 0.32118 0.0
N1029 N 0.6977 0.73764 0.43727 0.0
C1030 C 0.64389 0.7134 0.34687 0.0
C1031 C 0.6798 0.73162 0.40564 0.0
N1032 N 0.624 0.72266 0.44519 0.0
N1033 N 0.69664 0.73169 0.29809 0.0
H1034 H 0.6981 0.74251 0.48671 0.0
H1035 H 0.71245 0.73646 0.41592 0.0
H1036 H 0.69738 0.72835 0.24742 0.0
H1037 H 0.70883 0.74118 0.31417 0.0
H1038 H 0.60974 0.71887 0.42369 0.0
H1039 H 0.62268 0.72834 0.49363 0.0
H1040 H 0.61486 0.69731 0.34844 0.0
H1041 H 0.62846 0.69508 0.27393 0.0
C1042 C 0.4915 0.40727 0.62015 0.0
C1043 C 0.49673 0.39106 0.66569 0.0
C1044 C 0.52104 0.37612 0.58477 0.0
C1045 C 0.51751 0.39368 0.54313 0.0
N1046 N 0.50254 0.42788 0.52568 0.0
N1047 N 0.5171 0.36066 0.69442 0.0
C1048 C 0.50361 0.40979 0.56201 0.0
C1049 C 0.5117 0.37561 0.64884 0.0
N1050 N 0.47495 0.42026 0.63195 0.0
N1051 N 0.53305 0.35988 0.5626 0.0
H1052 H 0.50952 0.35907 0.74007 0.0
H1053 H 0.52961 0.35044 0.68836 0.0
H1054 H 0.54079 0.36019 0.51694 0.0
H1055 H 0.53443 0.34564 0.58748 0.0
H1056 H 0.46905 0.43059 0.59649 0.0
H1057 H 0.46596 0.41982 0.67497 0.0
H1058 H 0.49443 0.44113 0.54127 0.0
H1059 H 0.51143 0.43049 0.48307 0.0
C1060 C 0.84583 0.28466 0.8728 0.0
C1061 C 0.83096 0.27925 0.82365 0.0
C1062 C 0.81012 0.26024 0.90566 0.0
C1063 C 0.82575 0.2644 0.95404 0.0
N1064 N 0.85901 0.27893 -0.01527 0.0
N1065 N 0.79888 0.2627 0.79065 0.0
C1066 C 0.84369 0.27635 0.9381 0.0
C1067 C 0.813 0.26737 0.83948 0.0
N1068 N 0.86174 0.298 0.85686 0.0
N1069 N 0.79227 0.24995 0.92367 0.0
H1070 H 0.79936 0.26943 0.74342 0.0
H1071 H 0.78692 0.25184 0.79557 0.0
H1072 H 0.78977 0.24383 0.97103 0.0
H1073 H 0.7793 0.24819 0.89322 0.0
H1074 H 0.87216 0.30416 0.89127 0.0
H1075 H 0.86366 0.30421 0.80922 0.0
H1076 H 0.87342 0.28572 0.97501 0.0
H1077 H 0.85784 0.27302 0.03298 0.0
C1078 C 0.97816 0.54541 0.12876 0.0
C1079 C 0.97765 0.56401 0.16724 0.0
C1080 C 0.96188 0.58315 0.07484 0.0
C1081 C 0.96427 0.56511 0.03451 0.0
N1082 N 0.97743 0.53008 0.0188 0.0
N1083 N 0.97119 0.601 0.17703 0.0
C1084 C 0.97303 0.54643 0.06033 0.0
C1085 C 0.97011 0.58304 0.14036 0.0
N1086 N 0.98335 0.52674 0.15783 0.0
N1087 N 0.95119 0.60012 0.05098 0.0
H1088 H 0.97657 0.60127 0.226 0.0
H1089 H 0.9681 0.61581 0.15778 0.0
H1090 H 0.94483 0.60066 0.00322 0.0
H1091 H 0.94709 0.61294 0.07999 0.0
H1092 H 0.98177 0.51233 0.13426 0.0
H1093 H 0.98788 0.52539 0.20743 0.0
H1094 H 0.98613 0.51706 0.03312 0.0
H1095 H 0.97385 0.53018 0.9682 0.0
C1096 C 0.63558 0.2654 0.14274 0.0
C1097 C 0.64745 0.25058 0.1801 0.0
C1098 C 0.63289 0.22221 0.11292 0.0
C1099 C 0.62504 0.23731 0.06821 0.0
N1100 N 0.60841 0.27072 0.06004 0.0
N1101 N 0.6577 0.21462 0.20016 0.0
C1102 C 0.62305 0.25822 0.08932 0.0
C1103 C 0.64579 0.22881 0.16613 0.0
N1104 N 0.63662 0.28629 0.15681 0.0
N1105 N 0.62763 0.20171 0.10438 0.0
H1106 H 0.66845 0.21885 0.2366 0.0
H1107 H 0.65841 0.1988 0.18813 0.0
H1108 H 0.61721 0.19714 0.06721 0.0
H1109 H 0.63149 0.18989 0.13791 0.0
H1110 H 0.63045 0.29784 0.12597 0.0
H1111 H 0.64439 0.29239 0.19784 0.0
H1112 H 0.60477 0.28574 0.07626 0.0
H1113 H 0.59813 0.26484 0.02438 0.0
C1114 C 0.968 0.39196 0.29013 0.0
C1115 C 0.9694 0.41165 0.32225 0.0
C1116 C 0.97515 0.42907 0.21562 0.0
C1117 C 0.97637 0.40913 0.18462 0.0
N1118 N 0.97504 0.37155 0.1909 0.0
N1119 N 0.97661 0.44867 0.3185 0.0
C1120 C 0.97295 0.39053 0.22141 0.0
C1121 C 0.97333 0.4302 0.28575 0.0
N1122 N 0.9616 0.37478 0.32522 0.0
N1123 N 0.97608 0.44695 0.17819 0.0
H1124 H 0.97536 0.45019 0.36996 0.0
H1125 H 0.98227 0.46214 0.29561 0.0
H1126 H 0.97818 0.44698 0.12685 0.0
H1127 H 0.97309 0.4618 0.19707 0.0
H1128 H 0.95827 0.3604 0.30347 0.0
H1129 H 0.95808 0.3753 0.37584 0.0
H1130 H 0.97525 0.35735 0.21629 0.0
H1131 H 0.97755 0.37009 0.13982 0.0
C1132 C 0.83534 0.75894 0.71114 0.0
C1133 C 0.84786 0.74112 0.72417 0.0
C1134 C 0.86197 0.74204 0.61185 0.0
C1135 C 0.84777 0.75835 0.5972 0.0
N1136 N 0.82785 0.78772 0.63608 0.0
N1137 N 0.87727 0.71938 0.69589 0.0
C1138 C 0.83695 0.76879 0.64836 0.0
C1139 C 0.86282 0.73404 0.67756 0.0
N1140 N 0.8211 0.76561 0.75702 0.0
N1141 N 0.8736 0.73362 0.56168 0.0
H1142 H 0.87796 0.71317 0.74387 0.0
H1143 H 0.88945 0.71448 0.66548 0.0
H1144 H 0.87374 0.74015 0.51401 0.0
H1145 H 0.88264 0.72018 0.56653 0.0
H1146 H 0.8099 0.77701 0.74724 0.0
H1147 H 0.81964 0.75879 0.8039 0.0
H1148 H 0.82088 0.79684 0.67275 0.0
H1149 H 0.82932 0.79529 0.59036 0.0
C1150 C 0.50057 0.56726 0.93711 0.0
C1151 C 0.51218 0.58473 0.95926 0.0
C1152 C 0.4999 0.60538 0.86458 0.0
C1153 C 0.49155 0.5869 0.8369 0.0
N1154 N 0.48502 0.5497 0.84341 0.0
N1155 N 0.52345 0.62051 0.94558 0.0
C1156 C 0.4918 0.56774 0.87271 0.0
C1157 C 0.51172 0.60399 0.92406 0.0
N1158 N 0.4977 0.55036 0.97792 0.0
N1159 N 0.49658 0.6241 0.83335 0.0
H1160 H 0.5323 0.62005 -0.01091 0.0
H1161 H 0.52553 0.63421 0.91834 0.0
H1162 H 0.48786 0.62527 0.78965 0.0
H1163 H 0.50076 0.63849 0.85345 0.0
H1164 H 0.48751 0.53816 0.96693 0.0
H1165 H 0.50396 0.54942 0.02568 0.0
H1166 H 0.48734 0.53488 0.86375 0.0
H1167 H 0.4783 0.54935 0.79633 0.0
C1168 C 0.35239 0.23956 0.56241 0.0
C1169 C 0.35389 0.25491 0.51219 0.0
C1170 C 0.3452 0.2816 0.59478 0.0
C1171 C 0.33684 0.26552 0.63602 0.0
N1172 N 0.33208 0.22831 0.6562 0.0
N1173 N 0.35814 0.29129 0.48531 0.0
C1174 C 0.34064 0.2442 0.61984 0.0
C1175 C 0.35248 0.27628 0.53014 0.0
N1176 N 0.36222 0.22076 0.55533 0.0
N1177 N 0.34707 0.30153 0.61848 0.0
H1178 H 0.36592 0.2875 0.44131 0.0
H1179 H 0.35506 0.30717 0.49139 0.0
H1180 H 0.34326 0.30552 0.66718 0.0
H1181 H 0.35436 0.31359 0.5926 0.0
H1182 H 0.36254 0.20948 0.59283 0.0
H1183 H 0.37239 0.21788 0.51585 0.0
H1184 H 0.3334 0.21265 0.64246 0.0
H1185 H 0.32171 0.23074 0.69521 0.0
C1186 C 0.50224 0.57744 0.44147 0.0
C1187 C 0.4852 0.59085 0.45557 0.0
C1188 C 0.49232 0.61132 0.35565 0.0
C1189 C 0.50849 0.59707 0.33992 0.0
N1190 N 0.53455 0.57312 0.38104 0.0
N1191 N 0.46703 0.62342 0.43689 0.0
C1192 C 0.51549 0.58241 0.38762 0.0
C1193 C 0.48132 0.6089 0.4164 0.0
N1194 N 0.5052 0.5595 0.47743 0.0
N1195 N 0.48703 0.62644 0.3106 0.0
H1196 H 0.45827 0.62167 0.48029 0.0
H1197 H 0.46475 0.63775 0.41338 0.0
H1198 H 0.49585 0.62903 0.26772 0.0
H1199 H 0.47388 0.63592 0.31465 0.0
H1200 H 0.51641 0.54831 0.4657 0.0
H1201 H 0.4952 0.55479 0.51545 0.0
H1202 H 0.54099 0.5633 0.41703 0.0
H1203 H 0.54506 0.57731 0.34389 0.0
C1204 C 0.14351 0.76391 0.22725 0.0
C1205 C 0.12825 0.74903 0.24625 0.0
C1206 C 0.10654 0.75861 0.15144 0.0
C1207 C 0.12325 0.77089 0.12764 0.0
N1208 N 0.15195 0.79326 0.15529 0.0
N1209 N 0.09277 0.73666 0.23984 0.0
C1210 C 0.13976 0.77643 0.17035 0.0
C1211 C 0.10873 0.74808 0.21322 0.0
N1212 N 0.16183 0.76538 0.2616 0.0
N1213 N 0.08948 0.75594 0.11177 0.0
H1214 H 0.0942 0.72841 0.28444 0.0
H1215 H 0.07775 0.73634 0.22029 0.0
H1216 H 0.0878 0.76428 0.06732 0.0
H1217 H 0.07742 0.74552 0.12174 0.0
H1218 H 0.17444 0.77432 0.24561 0.0
H1219 H 0.16485 0.75671 0.30453 0.0
H1220 H 0.16359 0.79891 0.18654 0.0
H1221 H 0.1487 0.80296 0.11482 0.0
C1222 C 0.02185 0.43519 0.72755 0.0
C1223 C 0.01987 0.41662 0.68934 0.0
C1224 C 0.0311 0.39552 0.78455 0.0
C1225 C 0.03029 0.4137 0.82473 0.0
N1226 N 0.02403 0.45067 0.83744 0.0
N1227 N 0.02215 0.37914 0.67953 0.0
C1228 C 0.0258 0.43358 0.79689 0.0
C1229 C 0.02456 0.39678 0.71716 0.0
N1230 N 0.01958 0.45433 0.69777 0.0
N1231 N 0.03839 0.37718 0.81093 0.0
H1232 H 0.01849 0.37966 0.62897 0.0
H1233 H 0.02283 0.36402 0.69867 0.0
H1234 H 0.04328 0.37584 0.86024 0.0
H1235 H 0.04122 0.36376 0.78307 0.0
H1236 H 0.02305 0.46843 0.72107 0.0
H1237 H 0.01562 0.45623 0.64785 0.0
H1238 H 0.01822 0.46508 0.82191 0.0
H1239 H 0.02718 0.45018 0.8883 0.0
C1240 C 0.33644 0.7054 0.93104 0.0
C1241 C 0.32338 0.72255 0.94772 0.0
C1242 C 0.30506 0.71935 0.84167 0.0
C1243 C 0.31928 0.7036 0.82253 0.0
N1244 N 0.3498 0.68266 0.84417 0.0
N1245 N 0.29792 0.74858 0.91354 0.0
C1246 C 0.33536 0.69685 0.8659 0.0
C1247 C 0.30857 0.73043 0.90134 0.0
N1248 N 0.34978 0.69732 0.9775 0.0
N1249 N 0.28771 0.7232 0.80393 0.0
H1250 H 0.29903 0.75702 0.95756 0.0
H1251 H 0.28896 0.7562 0.87768 0.0
H1252 H 0.28436 0.71499 0.76046 0.0
H1253 H 0.27557 0.7329 0.81922 0.0
H1254 H 0.35796 0.68338 0.97118 0.0
H1255 H 0.35198 0.70411 0.02412 0.0
H1256 H 0.36323 0.67877 0.87052 0.0
H1257 H 0.34891 0.67554 0.7976 0.0
C1258 C 0.02048 0.5929 0.64854 0.0
C1259 C -0.00089 0.59333 0.66627 0.0
C1260 C 0.98913 0.58128 0.55678 0.0
C1261 C 0.0105 0.57906 0.5391 0.0
N1262 N 0.04623 0.58947 0.56081 0.0
N1263 N 0.96483 0.60091 0.62386 0.0
C1264 C 0.02621 0.58692 0.58272 0.0
C1265 C 0.98401 0.59206 0.61556 0.0
N1266 N 0.03512 0.59825 0.69472 0.0
N1267 N 0.97371 0.57181 0.52095 0.0
H1268 H 0.96142 0.61024 0.66503 0.0
H1269 H 0.95366 0.60124 0.58617 0.0
H1270 H 0.97663 0.56163 0.48168 0.0
H1271 H 0.95816 0.5719 0.53612 0.0
H1272 H 0.05104 0.59563 0.68893 0.0
H1273 H 0.03099 0.60535 0.73956 0.0
H1274 H 0.05783 0.59683 0.58833 0.0
H1275 H 0.05099 0.58597 0.51264 0.0
C1276 C 0.14051 0.2644 0.35609 0.0
C1277 C 0.15809 0.26581 0.31353 0.0
C1278 C 0.18149 0.25955 0.40756 0.0
C1279 C 0.16385 0.25565 0.44835 0.0
N1280 N 0.12666 0.25302 0.46254 0.0
N1281 N 0.19515 0.26218 0.29561 0.0
C1282 C 0.14335 0.2578 0.42301 0.0
C1283 C 0.17859 0.26298 0.33847 0.0
N1284 N 0.12121 0.26978 0.33266 0.0
N1285 N 0.20106 0.25972 0.4347 0.0
H1286 H 0.19375 0.26452 0.24448 0.0
H1287 H 0.21007 0.25751 0.30967 0.0
H1288 H 0.20405 0.25627 0.48447 0.0
H1289 H 0.21425 0.26477 0.40913 0.0
H1290 H 0.10804 0.27104 0.36261 0.0
H1291 H 0.11866 0.27469 0.2838 0.0
H1292 H 0.11144 0.25184 0.44504 0.0
H1293 H 0.12822 0.24914 0.51273 0.0
C1294 C 0.48248 0.41445 0.13944 0.0
C1295 C 0.48427 0.39498 0.17294 0.0
C1296 C 0.46804 0.37703 0.07923 0.0
C1297 C 0.46778 0.39628 0.0439 0.0
N1298 N 0.47904 0.43224 0.03399 0.0
N1299 N 0.48145 0.35743 0.17367 0.0
C1300 C 0.47615 0.41473 0.07219 0.0
C1301 C 0.47788 0.37612 0.14247 0.0
N1302 N 0.48638 0.43276 0.17232 0.0
N1303 N 0.45826 0.35988 0.05326 0.0
H1304 H 0.48824 0.35641 0.22075 0.0
H1305 H 0.4791 0.34296 0.15126 0.0
H1306 H 0.45085 0.36004 0.00706 0.0
H1307 H 0.45606 0.34598 0.0794 0.0
H1308 H 0.48293 0.44746 0.15267 0.0
H1309 H 0.4916 0.43335 0.22137 0.0
H1310 H 0.48732 0.44529 0.05016 0.0
H1311 H 0.47499 0.43307 -0.01614 0.0
C1312 C 0.0847 0.31838 0.12154 0.0
C1313 C 0.09804 0.31369 0.06718 0.0
C1314 C 0.08362 0.34294 0.00334 0.0
C1315 C 0.07029 0.34764 0.05766 0.0
N1316 N 0.05478 0.33779 0.16231 0.0
N1317 N 0.10713 0.31797 0.95188 0.0
C1318 C 0.06964 0.33458 0.11464 0.0
C1319 C 0.09655 0.32493 0.00662 0.0
N1320 N 0.08731 0.30827 0.18101 0.0
N1321 N 0.08413 0.35589 0.94909 0.0
H1322 H 0.11649 0.3046 0.95271 0.0
H1323 H 0.10526 0.3242 0.90441 0.0
H1324 H 0.07394 0.36847 0.94283 0.0
H1325 H 0.09528 0.35485 0.91164 0.0
H1326 H 0.07986 0.31271 0.22476 0.0
H1327 H 0.09804 0.29621 0.1881 0.0
H1328 H 0.05202 0.32745 0.20136 0.0
H1329 H 0.04408 0.35008 0.16024 0.0
C1330 C 0.86762 0.85457 0.30296 0.0
C1331 C 0.87285 0.83454 0.32892 0.0
C1332 C 0.90969 0.84427 0.32879 0.0
C1333 C 0.90471 0.86338 0.29621 0.0
N1334 N 0.87924 0.88376 0.23581 0.0
N1335 N 0.8998 0.80826 0.34361 0.0
C1336 C 0.88375 0.86758 0.27789 0.0
C1337 C 0.89416 0.8287 0.33459 0.0
N1338 N 0.84758 0.86181 0.30562 0.0
N1339 N 0.92863 0.84129 0.35858 0.0
H1340 H 0.88913 0.79599 0.34434 0.0
H1341 H 0.91529 0.80331 0.3421 0.0
H1342 H 0.94018 0.85269 0.36109 0.0
H1343 H 0.93189 0.82825 0.38808 0.0
H1344 H 0.84353 0.87709 0.29275 0.0
H1345 H 0.83543 0.85351 0.32764 0.0
H1346 H 0.86435 0.88634 0.21658 0.0
H1347 H 0.89077 0.89307 0.21426 0.0
C1348 C 0.37032 0.63031 0.54622 0.0
C1349 C 0.35799 0.6353 0.60235 0.0
C1350 C 0.3786 0.61143 0.67158 0.0
C1351 C 0.3926 0.60883 0.61793 0.0
N1352 N 0.40284 0.61599 0.50469 0.0
N1353 N 0.35101 0.63224 0.72016 0.0
C1354 C 0.38865 0.61814 0.55503 0.0
C1355 C 0.36206 0.62606 0.66539 0.0
N1356 N 0.36428 0.63704 0.48458 0.0
N1357 N 0.38111 0.59982 0.72821 0.0
H1358 H 0.3386 0.64277 0.71806 0.0
H1359 H 0.35501 0.62808 0.76859 0.0
H1360 H 0.39331 0.58917 0.73441 0.0
H1361 H 0.37021 0.59938 0.76654 0.0
H1362 H 0.37146 0.63239 0.44061 0.0
H1363 H 0.35081 0.64593 0.47697 0.0
H1364 H 0.40213 0.62434 0.46027 0.0
H1365 H 0.41616 0.60667 0.50872 0.0
C1366 C 0.62052 0.12275 0.92699 0.0
C1367 C 0.6228 0.13602 0.87111 0.0
C1368 C 0.60022 0.11333 0.80494 0.0
C1369 C 0.59515 0.10227 0.86372 0.0
N1370 N 0.60021 0.09549 0.98061 0.0
N1371 N 0.61646 0.14394 0.75565 0.0
C1372 C 0.60557 0.10638 0.92455 0.0
C1373 C 0.61336 0.13111 0.80929 0.0
N1374 N 0.63243 0.12605 -0.01766 0.0
N1375 N 0.59243 0.10668 0.74531 0.0
H1376 H 0.62703 0.15635 0.75628 0.0
H1377 H 0.60819 0.14282 0.7113 0.0
H1378 H 0.58281 0.09357 0.74122 0.0
H1379 H 0.5967 0.11295 0.69954 0.0
H1380 H 0.63289 0.11591 0.02287 0.0
H1381 H 0.64325 0.13819 -0.0145 0.0
H1382 H 0.60531 0.09934 0.02816 0.0
H1383 H 0.58975 0.08301 0.98014 0.0
C1384 C 0.07208 0.62822 0.39927 0.0
C1385 C 0.07351 0.61713 0.33845 0.0
C1386 C 0.10114 0.6407 0.30067 0.0
C1387 C 0.10105 0.65047 0.36417 0.0
N1388 N 0.08996 0.65004 0.47893 0.0
N1389 N 0.09108 0.61054 0.23478 0.0
C1390 C 0.08749 0.64327 0.41492 0.0
C1391 C 0.08864 0.62261 0.29026 0.0
N1392 N 0.05584 0.62463 0.44184 0.0
N1393 N 0.11221 0.6493 0.24939 0.0
H1394 H 0.08161 0.59767 0.22461 0.0
H1395 H 0.10336 0.6124 0.2014 0.0
H1396 H 0.1211 0.66286 0.25431 0.0
H1397 H 0.11112 0.64411 0.20047 0.0
H1398 H 0.05285 0.63388 0.48337 0.0
H1399 H 0.04423 0.6136 0.43273 0.0
H1400 H 0.08188 0.64366 0.51908 0.0
H1401 H 0.10169 0.66039 0.49322 0.0
C1402 C 0.58661 0.825 0.64249 0.0
C1403 C 0.60172 0.8252 0.59085 0.0
C1404 C 0.58284 0.85329 0.53405 0.0
C1405 C 0.56902 0.85461 0.58904 0.0
N1406 N 0.55883 0.84364 0.69907 0.0
N1407 N 0.61579 0.84057 0.49092 0.0
C1408 C 0.57106 0.84086 0.64405 0.0
C1409 C 0.60031 0.83968 0.53765 0.0
N1410 N 0.58717 0.80967 0.69006 0.0
N1411 N 0.57872 0.86434 0.47717 0.0
H1412 H 0.62829 0.83012 0.48994 0.0
H1413 H 0.61697 0.85246 0.45565 0.0
H1414 H 0.56578 0.87411 0.4719 0.0
H1415 H 0.58695 0.86237 0.433 0.0
H1416 H 0.57532 0.80726 0.72458 0.0
H1417 H 0.59885 0.79834 0.69243 0.0
H1418 H 0.56109 0.8357 0.74374 0.0
H1419 H 0.54731 0.85513 0.70204 0.0
C1420 C 0.37537 0.36804 0.77793 0.0
C1421 C 0.38873 0.36948 0.83368 0.0
C1422 C 0.3658 0.34641 0.89757 0.0
C1423 C 0.35461 0.34203 0.83856 0.0
N1424 N 0.34839 0.34841 0.72159 0.0
N1425 N 0.397 0.36085 0.94756 0.0
C1426 C 0.35896 0.3531 0.77868 0.0
C1427 C 0.38393 0.35905 0.89409 0.0
N1428 N 0.37849 0.38083 0.72429 0.0
N1429 N 0.35872 0.3388 0.95701 0.0
H1430 H 0.40976 0.37096 0.9483 0.0
H1431 H 0.39585 0.35162 -0.00989 0.0
H1432 H 0.34514 0.32989 0.96093 0.0
H1433 H 0.36502 0.34289 0.00288 0.0
H1434 H 0.36806 0.38211 0.68482 0.0
H1435 H 0.39075 0.39152 0.72174 0.0
H1436 H 0.35276 0.35379 0.67474 0.0
H1437 H 0.33579 0.33818 0.72004 0.0
C1438 C 0.85559 0.14875 0.0383 0.0
C1439 C 0.84636 0.15564 0.09827 0.0
C1440 C 0.86548 0.1289 0.16097 0.0
C1441 C 0.87699 0.12431 0.10285 0.0
N1442 N 0.88364 0.12937 -0.01415 0.0
N1443 N 0.84261 0.15324 0.21758 0.0
C1444 C 0.87203 0.13387 0.04106 0.0
C1445 C 0.85103 0.14574 0.15983 0.0
N1446 N 0.84845 0.15639 0.97895 0.0
N1447 N 0.86839 0.11708 0.21695 0.0
H1448 H 0.83164 0.1653 0.21886 0.0
H1449 H 0.84735 0.14843 0.26468 0.0
H1450 H 0.87903 0.10473 0.21898 0.0
H1451 H 0.8591 0.11826 0.25922 0.0
H1452 H 0.85316 0.15072 0.93286 0.0
H1453 H 0.83637 0.16731 0.97591 0.0
H1454 H 0.88254 0.1376 0.94127 0.0
H1455 H 0.89528 0.11795 -0.01454 0.0
C1456 C 0.87659 0.64406 0.79099 0.0
C1457 C 0.86462 0.64434 0.85025 0.0
C1458 C 0.881 0.61196 0.88828 0.0
C1459 C 0.89363 0.61214 0.83025 0.0
N1460 N 0.90003 0.62462 0.71913 0.0
N1461 N 0.85104 0.62644 0.94615 0.0
C1462 C 0.89027 0.62702 0.7791 0.0
C1463 C 0.86526 0.62743 0.89563 0.0
N1464 N 0.87533 0.66048 0.74742 0.0
N1465 N 0.88502 0.59801 0.93836 0.0
H1466 H 0.83959 0.63783 0.9531 0.0
H1467 H 0.84939 0.61354 0.97741 0.0
H1468 H 0.89639 0.58639 0.9351 0.0
H1469 H 0.87805 0.59873 -0.01496 0.0
H1470 H 0.88546 0.66262 0.70756 0.0
H1471 H 0.86449 0.67256 0.75274 0.0
H1472 H 0.89696 0.63387 0.67764 0.0
H1473 H 0.90999 0.61208 0.70909 0.0
C1474 C 0.11912 0.14183 0.64572 0.0
C1475 C 0.12298 0.1534 0.58659 0.0
C1476 C 0.09052 0.14053 0.53766 0.0
C1477 C 0.08691 0.12861 0.5962 0.0
N1478 N 0.09921 0.11454 0.70043 0.0
N1479 N 0.11499 0.16094 0.47213 0.0
C1480 C 0.10177 0.12808 0.64831 0.0
C1481 C 0.10943 0.15191 0.53124 0.0
N1482 N 0.13124 0.14498 0.70083 0.0
N1483 N 0.07572 0.14115 0.48864 0.0
H1484 H 0.12888 0.16922 0.46596 0.0
H1485 H 0.10687 0.15881 0.42786 0.0
H1486 H 0.06226 0.13202 0.48955 0.0
H1487 H 0.0762 0.15147 0.44856 0.0
H1488 H 0.12765 0.13904 0.74767 0.0
H1489 H 0.14414 0.15489 0.70136 0.0
H1490 H 0.11068 0.11169 0.73598 0.0
H1491 H 0.08619 0.10492 0.70563 0.0
C1492 C 0.59302 0.34289 0.27929 0.0
C1493 C 0.59216 0.36019 0.32307 0.0
C1494 C 0.62502 0.34891 0.37438 0.0
C1495 C 0.62396 0.33005 0.33774 0.0
N1496 N 0.60509 0.30751 0.26224 0.0
N1497 N 0.60548 0.37763 0.42125 0.0
C1498 C 0.60743 0.32656 0.29211 0.0
C1499 C 0.6078 0.36289 0.37258 0.0
N1500 N 0.58045 0.34233 0.22442 0.0
N1501 N 0.64219 0.35326 0.41216 0.0
H1502 H 0.59266 0.38757 0.42473 0.0
H1503 H 0.61528 0.37862 0.46245 0.0
H1504 H 0.65466 0.3429 0.41752 0.0
H1505 H 0.64476 0.36781 0.43392 0.0
H1506 H 0.58183 0.33104 0.18736 0.0
H1507 H 0.57019 0.35444 0.21228 0.0
H1508 H 0.59207 0.30353 0.23403 0.0
H1509 H 0.61523 0.29501 0.27019 0.0
C1510 C 0.35856 0.84768 0.08625 0.0
C1511 C 0.36561 0.82667 0.09174 0.0
C1512 C 0.40151 0.83923 0.08417 0.0
C1513 C 0.39452 0.86021 0.09143 0.0
N1514 N 0.36567 0.88319 0.11904 0.0
N1515 N 0.39481 0.80376 0.11774 0.0
C1516 C 0.37281 0.86415 0.09828 0.0
C1517 C 0.38738 0.82272 0.09703 0.0
N1518 N 0.3386 0.85211 0.06709 0.0
N1519 N 0.42115 0.8348 0.06205 0.0
H1520 H 0.38528 0.79173 0.13493 0.0
H1521 H 0.41063 0.8011 0.12647 0.0
H1522 H 0.43151 0.8462 0.04533 0.0
H1523 H 0.42603 0.81956 0.05186 0.0
H1524 H 0.33349 0.86735 0.05804 0.0
H1525 H 0.3281 0.84065 0.05181 0.0
H1526 H 0.34995 0.88599 0.12911 0.0
H1527 H 0.37552 0.89518 0.13459 0.0
C1528 C 0.90695 0.35873 0.51334 0.0
C1529 C 0.91912 0.36395 0.56983 0.0
C1530 C 0.90183 0.33676 0.63544 0.0
C1531 C 0.88843 0.33279 0.5806 0.0
N1532 N 0.87674 0.34066 0.46931 0.0
N1533 N 0.92744 0.3598 0.68585 0.0
C1534 C 0.89055 0.34399 0.52007 0.0
C1535 C 0.91651 0.35335 0.63115 0.0
N1536 N 0.91162 0.36731 0.45273 0.0
N1537 N 0.90041 0.32475 0.69167 0.0
H1538 H 0.93851 0.37173 0.68409 0.0
H1539 H 0.92467 0.35439 0.73386 0.0
H1540 H 0.88901 0.31333 0.69859 0.0
H1541 H 0.91121 0.32518 0.73025 0.0
H1542 H 0.90492 0.36247 0.40821 0.0
H1543 H 0.92351 0.37822 0.4458 0.0
H1544 H 0.87577 0.35012 0.42724 0.0
H1545 H 0.86535 0.32903 0.47069 0.0
C1546 C 0.38694 0.14003 0.2859 0.0
C1547 C 0.38707 0.15456 0.33925 0.0
C1548 C 0.41839 0.13806 0.38507 0.0
C1549 C 0.41693 0.12221 0.33584 0.0
N1550 N 0.39892 0.10664 0.24316 0.0
N1551 N 0.40065 0.16559 0.44541 0.0
C1552 C 0.40089 0.12274 0.2874 0.0
C1553 C 0.40228 0.15321 0.3902 0.0
N1554 N 0.37417 0.14329 0.23239 0.0
N1555 N 0.43511 0.13863 0.42726 0.0
H1556 H 0.3888 0.1766 0.45183 0.0
H1557 H 0.40982 0.16369 0.48769 0.0
H1558 H 0.44686 0.12736 0.42756 0.0
H1559 H 0.43825 0.15117 0.45865 0.0
H1560 H 0.37492 0.1345 0.18891 0.0
H1561 H 0.36401 0.156 0.22879 0.0
H1562 H 0.38609 0.10482 0.21197 0.0
H1563 H 0.40959 0.09434 0.24029 0.0
C1564 C 0.6229 0.63226 0.04049 0.0
C1565 C 0.63474 0.63901 0.09575 0.0
C1566 C 0.61913 0.61171 0.16526 0.0
C1567 C 0.60468 0.60777 0.11378 0.0
N1568 N 0.5929 0.61277 0.00108 0.0
N1569 N 0.64493 0.63539 0.21078 0.0
C1570 C 0.60683 0.61733 0.05045 0.0
C1571 C 0.63349 0.62846 0.15785 0.0
N1572 N 0.62713 0.64025 0.97884 0.0
N1573 N 0.61885 0.59957 0.22128 0.0
H1574 H 0.65595 0.64732 0.20695 0.0
H1575 H 0.64285 0.6301 0.2593 0.0
H1576 H 0.60828 0.58732 0.22763 0.0
H1577 H 0.63008 0.60037 0.25855 0.0
H1578 H 0.62025 0.63491 0.93521 0.0
H1579 H 0.63899 0.65115 0.97078 0.0
H1580 H 0.59197 0.62092 0.95633 0.0
H1581 H 0.58156 0.60116 0.00598 0.0
C1582 C 0.09825 0.86354 0.75342 0.0
C1583 C 0.09444 0.88017 0.79825 0.0
C1584 C 0.12174 0.86681 0.87243 0.0
C1585 C 0.12238 0.84829 0.83441 0.0
N1586 N 0.11237 0.82866 0.7374 0.0
N1587 N 0.10169 0.89729 0.90326 0.0
C1588 C 0.1112 0.84667 0.77383 0.0
C1589 C 0.10631 0.88207 0.85782 0.0
N1590 N 0.08951 0.86405 0.69147 0.0
N1591 N 0.1356 0.86954 0.92327 0.0
H1592 H 0.09036 0.90873 0.8959 0.0
H1593 H 0.10803 0.8977 0.95091 0.0
H1594 H 0.14685 0.85834 0.93538 0.0
H1595 H 0.13728 0.88357 0.94895 0.0
H1596 H 0.09294 0.85329 0.65424 0.0
H1597 H 0.08018 0.87647 0.67537 0.0
H1598 H 0.1027 0.82539 0.6972 0.0
H1599 H 0.12259 0.81649 0.74931 0.0
loop_
_geom_bond_atom_site_label_1
_geom_bond_atom_site_label_2
_geom_bond_distance
_geom_bond_site_symmetry_2
_ccdc_geom_bond_type
C0 O1 1.306 . S
C0 O3 1.160 . S
O1 C0 1.306 . S
O1 Cd2 2.228 1_556 S
Cd2 O1 2.228 1_554 S
Cd2 O6 2.273 . S
Cd2 O10 2.277 . S
O3 C0 1.160 . S
O3 Cd4 2.203 1_556 S
Cd4 O3 2.203 1_554 S
Cd4 O6 2.411 . S
Cd4 O7 2.333 . S
Cd4 O8 2.352 . S
Cd4 O12 2.277 . S
Cd4 O13 2.356 . S
C5 O10 1.209 . S
C5 O12 1.226 . S
O6 Cd2 2.273 . S
O6 Cd4 2.411 . S
O6 C9 1.320 . S
O7 Cd4 2.333 . S
O7 C9 1.214 . S
O8 Cd4 2.352 . S
O8 C11 1.258 . S
C9 O6 1.320 . S
C9 O7 1.214 . S
O10 Cd2 2.277 . S
O10 C5 1.209 . S
C11 O8 1.258 . S
C11 O13 1.282 . S
O12 Cd4 2.277 . S
O12 C5 1.226 . S
O13 Cd4 2.356 . S
O13 C11 1.282 . S
C14 O15 1.319 . S
C14 O17 1.160 . S
O15 C14 1.319 . S
O15 Cd16 2.223 1_655 S
Cd16 O15 2.223 1_455 S
Cd16 O20 2.273 1_455 S
Cd16 O24 2.277 1_455 S
O17 C14 1.160 . S
O17 Cd18 2.203 . S
Cd18 O17 2.203 . S
Cd18 O20 2.411 . S
Cd18 O21 2.333 . S
Cd18 O22 2.352 . S
Cd18 O26 2.277 . S
Cd18 O27 2.356 . S
C19 O24 1.209 . S
C19 O26 1.226 . S
O20 Cd16 2.273 1_655 S
O20 Cd18 2.411 . S
O20 C23 1.320 . S
O21 Cd18 2.333 . S
O21 C23 1.214 . S
O22 Cd18 2.352 . S
O22 C25 1.258 . S
C23 O20 1.320 . S
C23 O21 1.214 . S
O24 Cd16 2.277 1_655 S
O24 C19 1.209 . S
C25 O22 1.258 . S
C25 O27 1.282 . S
O26 Cd18 2.277 . S
O26 C19 1.226 . S
O27 Cd18 2.356 . S
O27 C25 1.282 . S
C28 O29 1.306 . S
C28 O31 1.160 . S
O29 C28 1.306 . S
O29 Cd30 2.228 . S
Cd30 O29 2.228 . S
Cd30 O34 2.273 . S
Cd30 O38 2.277 . S
O31 C28 1.160 . S
O31 Cd32 2.203 . S
Cd32 O31 2.203 . S
Cd32 O34 2.411 . S
Cd32 O35 2.333 . S
Cd32 O36 2.352 . S
Cd32 O40 2.277 . S
Cd32 O41 2.356 . S
C33 O38 1.209 . S
C33 O40 1.226 . S
O34 Cd30 2.273 . S
O34 Cd32 2.411 . S
O34 C37 1.320 . S
O35 Cd32 2.333 . S
O35 C37 1.214 . S
O36 Cd32 2.352 . S
O36 C39 1.258 . S
C37 O34 1.320 . S
C37 O35 1.214 . S
O38 Cd30 2.277 . S
O38 C33 1.209 . S
C39 O36 1.258 . S
C39 O41 1.282 . S
O40 Cd32 2.277 . S
O40 C33 1.226 . S
O41 Cd32 2.356 . S
O41 C39 1.282 . S
C42 O43 1.306 . S
C42 O45 1.160 . S
O43 C42 1.306 . S
O43 Cd44 2.228 . S
Cd44 O43 2.228 . S
Cd44 O48 2.273 . S
Cd44 O52 2.277 . S
O45 C42 1.160 . S
O45 Cd46 2.203 . S
Cd46 O45 2.203 . S
Cd46 O48 2.411 . S
Cd46 O49 2.333 . S
Cd46 O50 2.352 . S
Cd46 O54 2.277 . S
Cd46 O55 2.356 . S
C47 O52 1.209 . S
C47 O54 1.226 . S
O48 Cd44 2.273 . S
O48 Cd46 2.411 . S
O48 C51 1.320 . S
O49 Cd46 2.333 . S
O49 C51 1.214 . S
O50 Cd46 2.352 . S
O50 C53 1.258 . S
C51 O48 1.320 . S
C51 O49 1.214 . S
O52 Cd44 2.277 . S
O52 C47 1.209 . S
C53 O50 1.258 . S
C53 O55 1.282 . S
O54 Cd46 2.277 . S
O54 C47 1.226 . S
O55 Cd46 2.356 . S
O55 C53 1.282 . S
C56 O57 1.306 . S
C56 O59 1.160 . S
O57 C56 1.306 . S
O57 Cd58 2.228 . S
Cd58 O57 2.228 . S
Cd58 O62 2.273 . S
Cd58 O66 2.277 . S
O59 C56 1.160 . S
O59 Cd60 2.203 . S
Cd60 O59 2.203 . S
Cd60 O62 2.411 . S
Cd60 O63 2.333 . S
Cd60 O64 2.352 . S
Cd60 O68 2.277 . S
Cd60 O69 2.356 . S
C61 O66 1.209 . S
C61 O68 1.226 . S
O62 Cd58 2.273 . S
O62 Cd60 2.411 . S
O62 C65 1.320 . S
O63 Cd60 2.333 . S
O63 C65 1.214 . S
O64 Cd60 2.352 . S
O64 C67 1.258 . S
C65 O62 1.320 . S
C65 O63 1.214 . S
O66 Cd58 2.277 . S
O66 C61 1.209 . S
C67 O64 1.258 . S
C67 O69 1.282 . S
O68 Cd60 2.277 . S
O68 C61 1.226 . S
O69 Cd60 2.356 . S
O69 C67 1.282 . S
C70 O71 1.306 . S
C70 O73 1.160 . S
O71 C70 1.306 . S
O71 Cd72 2.228 . S
Cd72 O71 2.228 . S
Cd72 O76 2.273 . S
Cd72 O80 2.277 . S
O73 C70 1.160 . S
O73 Cd74 2.203 . S
Cd74 O73 2.203 . S
Cd74 O76 2.411 . S
Cd74 O77 2.333 . S
Cd74 O78 2.352 . S
Cd74 O82 2.277 . S
Cd74 O83 2.356 . S
C75 O80 1.209 . S
C75 O82 1.226 . S
O76 Cd72 2.273 . S
O76 Cd74 2.411 . S
O76 C79 1.320 . S
O77 Cd74 2.333 . S
O77 C79 1.214 . S
O78 Cd74 2.352 . S
O78 C81 1.258 . S
C79 O76 1.320 . S
C79 O77 1.214 . S
O80 Cd72 2.277 . S
O80 C75 1.209 . S
C81 O78 1.258 . S
C81 O83 1.282 . S
O82 Cd74 2.277 . S
O82 C75 1.226 . S
O83 Cd74 2.356 . S
O83 C81 1.282 . S
C84 O85 1.306 . S
C84 O87 1.160 . S
O85 C84 1.306 . S
O85 Cd86 2.228 1_554 S
Cd86 O85 2.228 1_556 S
Cd86 O90 2.273 . S
Cd86 O94 2.277 . S
O87 C84 1.160 . S
O87 Cd88 2.203 1_554 S
Cd88 O87 2.203 1_556 S
Cd88 O90 2.411 . S
Cd88 O91 2.333 . S
Cd88 O92 2.352 . S
Cd88 O96 2.277 . S
Cd88 O97 2.356 . S
C89 O94 1.209 . S
C89 O96 1.226 . S
O90 Cd86 2.273 . S
O90 Cd88 2.411 . S
O90 C93 1.320 . S
O91 Cd88 2.333 . S
O91 C93 1.214 . S
O92 Cd88 2.352 . S
O92 C95 1.258 . S
C93 O90 1.320 . S
C93 O91 1.214 . S
O94 Cd86 2.277 . S
O94 C89 1.209 . S
C95 O92 1.258 . S
C95 O97 1.282 . S
O96 Cd88 2.277 . S
O96 C89 1.226 . S
O97 Cd88 2.356 . S
O97 C95 1.282 . S
C98 O99 1.320 . S
C98 O101 1.160 . S
O99 C98 1.320 . S
O99 Cd100 2.223 1_655 S
Cd100 O99 2.223 1_455 S
Cd100 O104 2.273 1_455 S
Cd100 O108 2.277 1_455 S
O101 C98 1.160 . S
O101 Cd102 2.203 . S
Cd102 O101 2.203 . S
Cd102 O104 2.411 . S
Cd102 O105 2.333 . S
Cd102 O106 2.352 . S
Cd102 O110 2.277 . S
Cd102 O111 2.356 . S
C103 O108 1.209 . S
C103 O110 1.226 . S
O104 Cd100 2.273 1_655 S
O104 Cd102 2.411 . S
O104 C107 1.320 . S
O105 Cd102 2.333 . S
O105 C107 1.214 . S
O106 Cd102 2.352 . S
O106 C109 1.258 . S
C107 O104 1.320 . S
C107 O105 1.214 . S
O108 Cd100 2.277 1_655 S
O108 C103 1.209 . S
C109 O106 1.258 . S
C109 O111 1.282 . S
O110 Cd102 2.277 . S
O110 C103 1.226 . S
O111 Cd102 2.356 . S
O111 C109 1.282 . S
C112 O113 1.306 . S
C112 O115 1.160 . S
O113 C112 1.306 . S
O113 Cd114 2.228 1_554 S
Cd114 O113 2.228 1_556 S
Cd114 O118 2.273 . S
Cd114 O122 2.277 . S
O115 C112 1.160 . S
O115 Cd116 2.203 1_554 S
Cd116 O115 2.203 1_556 S
Cd116 O118 2.411 . S
Cd116 O119 2.333 . S
Cd116 O120 2.352 . S
Cd116 O124 2.277 . S
Cd116 O125 2.356 . S
C117 O122 1.209 . S
C117 O124 1.226 . S
O118 Cd114 2.273 . S
O118 Cd116 2.411 . S
O118 C121 1.320 . S
O119 Cd116 2.333 . S
O119 C121 1.214 . S
O120 Cd116 2.352 . S
O120 C123 1.258 . S
C121 O118 1.320 . S
C121 O119 1.214 . S
O122 Cd114 2.277 . S
O122 C117 1.209 . S
C123 O120 1.258 . S
C123 O125 1.282 . S
O124 Cd116 2.277 . S
O124 C117 1.226 . S
O125 Cd116 2.356 . S
O125 C123 1.282 . S
C126 O127 1.319 . S
C126 O129 1.160 . S
O127 C126 1.319 . S
O127 Cd128 2.223 1_455 S
Cd128 O127 2.223 1_655 S
Cd128 O132 2.273 1_655 S
Cd128 O136 2.277 1_655 S
O129 C126 1.160 . S
O129 Cd130 2.203 . S
Cd130 O129 2.203 . S
Cd130 O132 2.411 . S
Cd130 O133 2.333 . S
Cd130 O134 2.352 . S
Cd130 O138 2.277 . S
Cd130 O139 2.356 . S
C131 O136 1.209 . S
C131 O138 1.226 . S
O132 Cd128 2.273 1_455 S
O132 Cd130 2.411 . S
O132 C135 1.320 . S
O133 Cd130 2.333 . S
O133 C135 1.214 . S
O134 Cd130 2.352 . S
O134 C137 1.258 . S
C135 O132 1.320 . S
C135 O133 1.214 . S
O136 Cd128 2.277 1_455 S
O136 C131 1.209 . S
C137 O134 1.258 . S
C137 O139 1.282 . S
O138 Cd130 2.277 . S
O138 C131 1.226 . S
O139 Cd130 2.356 . S
O139 C137 1.282 . S
C140 O141 1.306 . S
C140 O143 1.160 . S
O141 C140 1.306 . S
O141 Cd142 2.228 . S
Cd142 O141 2.228 . S
Cd142 O146 2.273 . S
Cd142 O150 2.277 . S
O143 C140 1.160 . S
O143 Cd144 2.203 . S
Cd144 O143 2.203 . S
Cd144 O146 2.411 . S
Cd144 O147 2.333 . S
Cd144 O148 2.352 . S
Cd144 O152 2.277 . S
Cd144 O153 2.356 . S
C145 O150 1.209 . S
C145 O152 1.226 . S
O146 Cd142 2.273 . S
O146 Cd144 2.411 . S
O146 C149 1.320 . S
O147 Cd144 2.333 . S
O147 C149 1.214 . S
O148 Cd144 2.352 . S
O148 C151 1.258 . S
C149 O146 1.320 . S
C149 O147 1.214 . S
O150 Cd142 2.277 . S
O150 C145 1.209 . S
C151 O148 1.258 . S
C151 O153 1.282 . S
O152 Cd144 2.277 . S
O152 C145 1.226 . S
O153 Cd144 2.356 . S
O153 C151 1.282 . S
C154 O155 1.306 . S
C154 O157 1.160 . S
O155 C154 1.306 . S
O155 Cd156 2.228 . S
Cd156 O155 2.228 . S
Cd156 O160 2.273 . S
Cd156 O164 2.277 . S
O157 C154 1.160 . S
O157 Cd158 2.203 . S
Cd158 O157 2.203 . S
Cd158 O160 2.411 . S
Cd158 O161 2.333 . S
Cd158 O162 2.352 . S
Cd158 O166 2.277 . S
Cd158 O167 2.356 . S
C159 O164 1.209 . S
C159 O166 1.226 . S
O160 Cd156 2.273 . S
O160 Cd158 2.411 . S
O160 C163 1.320 . S
O161 Cd158 2.333 . S
O161 C163 1.214 . S
O162 Cd158 2.352 . S
O162 C165 1.258 . S
C163 O160 1.320 . S
C163 O161 1.214 . S
O164 Cd156 2.277 . S
O164 C159 1.209 . S
C165 O162 1.258 . S
C165 O167 1.282 . S
O166 Cd158 2.277 . S
O166 C159 1.226 . S
O167 Cd158 2.356 . S
O167 C165 1.282 . S
C168 O169 1.306 . S
C168 O171 1.160 . S
O169 C168 1.306 . S
O169 Cd170 2.228 . S
Cd170 O169 2.228 . S
Cd170 O174 2.273 . S
Cd170 O178 2.277 . S
O171 C168 1.160 . S
O171 Cd172 2.203 . S
Cd172 O171 2.203 . S
Cd172 O174 2.411 . S
Cd172 O175 2.333 . S
Cd172 O176 2.352 . S
Cd172 O180 2.277 . S
Cd172 O181 2.356 . S
C173 O178 1.209 . S
C173 O180 1.226 . S
O174 Cd170 2.273 . S
O174 Cd172 2.411 . S
O174 C177 1.320 . S
O175 Cd172 2.333 . S
O175 C177 1.214 . S
O176 Cd172 2.352 . S
O176 C179 1.258 . S
C177 O174 1.320 . S
C177 O175 1.214 . S
O178 Cd170 2.277 . S
O178 C173 1.209 . S
C179 O176 1.258 . S
C179 O181 1.282 . S
O180 Cd172 2.277 . S
O180 C173 1.226 . S
O181 Cd172 2.356 . S
O181 C179 1.282 . S
C182 O183 1.306 . S
C182 O185 1.160 . S
O183 C182 1.306 . S
O183 Cd184 2.228 . S
Cd184 O183 2.228 . S
Cd184 O188 2.273 . S
Cd184 O192 2.277 . S
O185 C182 1.160 . S
O185 Cd186 2.203 . S
Cd186 O185 2.203 . S
Cd186 O188 2.411 . S
Cd186 O189 2.333 . S
Cd186 O190 2.352 . S
Cd186 O194 2.277 . S
Cd186 O195 2.356 . S
C187 O192 1.209 . S
C187 O194 1.226 . S
O188 Cd184 2.273 . S
O188 Cd186 2.411 . S
O188 C191 1.320 . S
O189 Cd186 2.333 . S
O189 C191 1.214 . S
O190 Cd186 2.352 . S
O190 C193 1.258 . S
C191 O188 1.320 . S
C191 O189 1.214 . S
O192 Cd184 2.277 . S
O192 C187 1.209 . S
C193 O190 1.258 . S
C193 O195 1.282 . S
O194 Cd186 2.277 . S
O194 C187 1.226 . S
O195 Cd186 2.356 . S
O195 C193 1.282 . S
C196 O197 1.306 . S
C196 O199 1.160 . S
O197 C196 1.306 . S
O197 Cd198 2.228 1_556 S
Cd198 O197 2.228 1_554 S
Cd198 O202 2.273 . S
Cd198 O206 2.277 . S
O199 C196 1.160 . S
O199 Cd200 2.203 1_556 S
Cd200 O199 2.203 1_554 S
Cd200 O202 2.411 . S
Cd200 O203 2.333 . S
Cd200 O204 2.352 . S
Cd200 O208 2.277 . S
Cd200 O209 2.356 . S
C201 O206 1.209 . S
C201 O208 1.226 . S
O202 Cd198 2.273 . S
O202 Cd200 2.411 . S
O202 C205 1.320 . S
O203 Cd200 2.333 . S
O203 C205 1.214 . S
O204 Cd200 2.352 . S
O204 C207 1.258 . S
C205 O202 1.320 . S
C205 O203 1.214 . S
O206 Cd198 2.277 . S
O206 C201 1.209 . S
C207 O204 1.258 . S
C207 O209 1.282 . S
O208 Cd200 2.277 . S
O208 C201 1.226 . S
O209 Cd200 2.356 . S
O209 C207 1.282 . S
C210 O211 1.320 . S
C210 O213 1.160 . S
O211 C210 1.320 . S
O211 Cd212 2.223 1_455 S
Cd212 O211 2.223 1_655 S
Cd212 O216 2.273 1_655 S
Cd212 O220 2.277 1_655 S
O213 C210 1.160 . S
O213 Cd214 2.203 . S
Cd214 O213 2.203 . S
Cd214 O216 2.411 . S
Cd214 O217 2.333 . S
Cd214 O218 2.352 . S
Cd214 O222 2.277 . S
Cd214 O223 2.356 . S
C215 O220 1.209 . S
C215 O222 1.226 . S
O216 Cd212 2.273 1_455 S
O216 Cd214 2.411 . S
O216 C219 1.320 . S
O217 Cd214 2.333 . S
O217 C219 1.214 . S
O218 Cd214 2.352 . S
O218 C221 1.258 . S
C219 O216 1.320 . S
C219 O217 1.214 . S
O220 Cd212 2.277 1_455 S
O220 C215 1.209 . S
C221 O218 1.258 . S
C221 O223 1.282 . S
O222 Cd214 2.277 . S
O222 C215 1.226 . S
O223 Cd214 2.356 . S
O223 C221 1.282 . S
C224 O225 1.306 . S
C224 O227 1.160 . S
O225 C224 1.306 . S
O225 Cd226 2.228 . S
Cd226 O225 2.228 . S
Cd226 O230 2.273 . S
Cd226 O234 2.277 . S
O227 C224 1.160 . S
O227 Cd228 2.203 . S
Cd228 O227 2.203 . S
Cd228 O230 2.411 . S
Cd228 O231 2.333 . S
Cd228 O232 2.352 . S
Cd228 O236 2.277 . S
Cd228 O237 2.356 . S
C229 O234 1.209 . S
C229 O236 1.226 . S
O230 Cd226 2.273 . S
O230 Cd228 2.411 . S
O230 C233 1.320 . S
O231 Cd228 2.333 . S
O231 C233 1.214 . S
O232 Cd228 2.352 . S
O232 C235 1.258 . S
C233 O230 1.320 . S
C233 O231 1.214 . S
O234 Cd226 2.277 . S
O234 C229 1.209 . S
C235 O232 1.258 . S
C235 O237 1.282 . S
O236 Cd228 2.277 . S
O236 C229 1.226 . S
O237 Cd228 2.356 . S
O237 C235 1.282 . S
C238 O239 1.306 . S
C238 O241 1.160 . S
O239 C238 1.306 . S
O239 Cd240 2.228 . S
Cd240 O239 2.228 . S
Cd240 O244 2.273 . S
Cd240 O248 2.277 . S
O241 C238 1.160 . S
O241 Cd242 2.203 . S
Cd242 O241 2.203 . S
Cd242 O244 2.411 . S
Cd242 O245 2.333 . S
Cd242 O246 2.352 . S
Cd242 O250 2.277 . S
Cd242 O251 2.356 . S
C243 O248 1.209 . S
C243 O250 1.226 . S
O244 Cd240 2.273 . S
O244 Cd242 2.411 . S
O244 C247 1.320 . S
O245 Cd242 2.333 . S
O245 C247 1.214 . S
O246 Cd242 2.352 . S
O246 C249 1.258 . S
C247 O244 1.320 . S
C247 O245 1.214 . S
O248 Cd240 2.277 . S
O248 C243 1.209 . S
C249 O246 1.258 . S
C249 O251 1.282 . S
O250 Cd242 2.277 . S
O250 C243 1.226 . S
O251 Cd242 2.356 . S
O251 C249 1.282 . S
C252 O253 1.306 . S
C252 O255 1.160 . S
O253 C252 1.306 . S
O253 Cd254 2.228 1_556 S
Cd254 O253 2.228 1_554 S
Cd254 O258 2.273 . S
Cd254 O262 2.277 . S
O255 C252 1.160 . S
O255 Cd256 2.203 1_556 S
Cd256 O255 2.203 1_554 S
Cd256 O258 2.411 . S
Cd256 O259 2.333 . S
Cd256 O260 2.352 . S
Cd256 O264 2.277 . S
Cd256 O265 2.356 . S
C257 O262 1.209 . S
C257 O264 1.226 . S
O258 Cd254 2.273 . S
O258 Cd256 2.411 . S
O258 C261 1.320 . S
O259 Cd256 2.333 . S
O259 C261 1.214 . S
O260 Cd256 2.352 . S
O260 C263 1.258 . S
C261 O258 1.320 . S
C261 O259 1.214 . S
O262 Cd254 2.277 . S
O262 C257 1.209 . S
C263 O260 1.258 . S
C263 O265 1.282 . S
O264 Cd256 2.277 . S
O264 C257 1.226 . S
O265 Cd256 2.356 . S
O265 C263 1.282 . S
C266 O267 1.319 . S
C266 O269 1.160 . S
O267 C266 1.319 . S
O267 Cd268 2.223 1_455 S
Cd268 O267 2.223 1_655 S
Cd268 O272 2.273 1_655 S
Cd268 O276 2.277 1_655 S
O269 C266 1.160 . S
O269 Cd270 2.203 . S
Cd270 O269 2.203 . S
Cd270 O272 2.411 . S
Cd270 O273 2.333 . S
Cd270 O274 2.352 . S
Cd270 O278 2.277 . S
Cd270 O279 2.356 . S
C271 O276 1.209 . S
C271 O278 1.226 . S
O272 Cd268 2.273 1_455 S
O272 Cd270 2.411 . S
O272 C275 1.320 . S
O273 Cd270 2.333 . S
O273 C275 1.214 . S
O274 Cd270 2.352 . S
O274 C277 1.258 . S
C275 O272 1.320 . S
C275 O273 1.214 . S
O276 Cd268 2.277 1_455 S
O276 C271 1.209 . S
C277 O274 1.258 . S
C277 O279 1.282 . S
O278 Cd270 2.277 . S
O278 C271 1.226 . S
O279 Cd270 2.356 . S
O279 C277 1.282 . S
C280 O281 1.306 . S
C280 O283 1.160 . S
O281 C280 1.306 . S
O281 Cd282 2.228 1_554 S
Cd282 O281 2.228 1_556 S
Cd282 O286 2.273 . S
Cd282 O290 2.277 . S
O283 C280 1.160 . S
O283 Cd284 2.203 1_554 S
Cd284 O283 2.203 1_556 S
Cd284 O286 2.411 . S
Cd284 O287 2.333 . S
Cd284 O288 2.352 . S
Cd284 O292 2.277 . S
Cd284 O293 2.356 . S
C285 O290 1.209 . S
C285 O292 1.226 . S
O286 Cd282 2.273 . S
O286 Cd284 2.411 . S
O286 C289 1.320 . S
O287 Cd284 2.333 . S
O287 C289 1.214 . S
O288 Cd284 2.352 . S
O288 C291 1.258 . S
C289 O286 1.320 . S
C289 O287 1.214 . S
O290 Cd282 2.277 . S
O290 C285 1.209 . S
C291 O288 1.258 . S
C291 O293 1.282 . S
O292 Cd284 2.277 . S
O292 C285 1.226 . S
O293 Cd284 2.356 . S
O293 C291 1.282 . S
C294 O295 1.319 . S
C294 O297 1.160 . S
O295 C294 1.319 . S
O295 Cd296 2.223 1_455 S
Cd296 O295 2.223 1_655 S
Cd296 O300 2.273 1_655 S
Cd296 O304 2.277 1_655 S
O297 C294 1.160 . S
O297 Cd298 2.203 . S
Cd298 O297 2.203 . S
Cd298 O300 2.411 . S
Cd298 O301 2.333 . S
Cd298 O302 2.352 . S
Cd298 O306 2.277 . S
Cd298 O307 2.356 . S
C299 O304 1.209 . S
C299 O306 1.226 . S
O300 Cd296 2.273 1_455 S
O300 Cd298 2.411 . S
O300 C303 1.320 . S
O301 Cd298 2.333 . S
O301 C303 1.214 . S
O302 Cd298 2.352 . S
O302 C305 1.258 . S
C303 O300 1.320 . S
C303 O301 1.214 . S
O304 Cd296 2.277 1_455 S
O304 C299 1.209 . S
C305 O302 1.258 . S
C305 O307 1.282 . S
O306 Cd298 2.277 . S
O306 C299 1.226 . S
O307 Cd298 2.356 . S
O307 C305 1.282 . S
C308 O309 1.306 . S
C308 O311 1.160 . S
O309 C308 1.306 . S
O309 Cd310 2.228 . S
Cd310 O309 2.228 . S
Cd310 O314 2.273 . S
Cd310 O318 2.277 . S
O311 C308 1.160 . S
O311 Cd312 2.203 . S
Cd312 O311 2.203 . S
Cd312 O314 2.411 . S
Cd312 O315 2.333 . S
Cd312 O316 2.352 . S
Cd312 O320 2.277 . S
Cd312 O321 2.356 . S
C313 O318 1.209 . S
C313 O320 1.226 . S
O314 Cd310 2.273 . S
O314 Cd312 2.411 . S
O314 C317 1.320 . S
O315 Cd312 2.333 . S
O315 C317 1.214 . S
O316 Cd312 2.352 . S
O316 C319 1.258 . S
C317 O314 1.320 . S
C317 O315 1.214 . S
O318 Cd310 2.277 . S
O318 C313 1.209 . S
C319 O316 1.258 . S
C319 O321 1.282 . S
O320 Cd312 2.277 . S
O320 C313 1.226 . S
O321 Cd312 2.356 . S
O321 C319 1.282 . S
C322 O323 1.306 . S
C322 O325 1.160 . S
O323 C322 1.306 . S
O323 Cd324 2.228 . S
Cd324 O323 2.228 . S
Cd324 O328 2.273 . S
Cd324 O332 2.277 . S
O325 C322 1.160 . S
O325 Cd326 2.203 . S
Cd326 O325 2.203 . S
Cd326 O328 2.411 . S
Cd326 O329 2.333 . S
Cd326 O330 2.352 . S
Cd326 O334 2.277 . S
Cd326 O335 2.356 . S
C327 O332 1.209 . S
C327 O334 1.226 . S
O328 Cd324 2.273 . S
O328 Cd326 2.411 . S
O328 C331 1.320 . S
O329 Cd326 2.333 . S
O329 C331 1.214 . S
O330 Cd326 2.352 . S
O330 C333 1.258 . S
C331 O328 1.320 . S
C331 O329 1.214 . S
O332 Cd324 2.277 . S
O332 C327 1.209 . S
C333 O330 1.258 . S
C333 O335 1.282 . S
O334 Cd326 2.277 . S
O334 C327 1.226 . S
O335 Cd326 2.356 . S
O335 C333 1.282 . S
C336 O337 1.306 . S
C336 O339 1.160 . S
O337 C336 1.306 . S
O337 Cd338 2.228 . S
Cd338 O337 2.228 . S
Cd338 O342 2.273 . S
Cd338 O346 2.277 . S
O339 C336 1.160 . S
O339 Cd340 2.203 . S
Cd340 O339 2.203 . S
Cd340 O342 2.411 . S
Cd340 O343 2.333 . S
Cd340 O344 2.352 . S
Cd340 O348 2.277 . S
Cd340 O349 2.356 . S
C341 O346 1.209 . S
C341 O348 1.226 . S
O342 Cd338 2.273 . S
O342 Cd340 2.411 . S
O342 C345 1.320 . S
O343 Cd340 2.333 . S
O343 C345 1.214 . S
O344 Cd340 2.352 . S
O344 C347 1.258 . S
C345 O342 1.320 . S
C345 O343 1.214 . S
O346 Cd338 2.277 . S
O346 C341 1.209 . S
C347 O344 1.258 . S
C347 O349 1.282 . S
O348 Cd340 2.277 . S
O348 C341 1.226 . S
O349 Cd340 2.356 . S
O349 C347 1.282 . S
C350 O351 1.306 . S
C350 O353 1.160 . S
O351 C350 1.306 . S
O351 Cd352 2.228 . S
Cd352 O351 2.228 . S
Cd352 O356 2.273 . S
Cd352 O360 2.277 . S
O353 C350 1.160 . S
O353 Cd354 2.203 . S
Cd354 O353 2.203 . S
Cd354 O356 2.411 . S
Cd354 O357 2.333 . S
Cd354 O358 2.352 . S
Cd354 O362 2.277 . S
Cd354 O363 2.356 . S
C355 O360 1.209 . S
C355 O362 1.226 . S
O356 Cd352 2.273 . S
O356 Cd354 2.411 . S
O356 C359 1.320 . S
O357 Cd354 2.333 . S
O357 C359 1.214 . S
O358 Cd354 2.352 . S
O358 C361 1.258 . S
C359 O356 1.320 . S
C359 O357 1.214 . S
O360 Cd352 2.277 . S
O360 C355 1.209 . S
C361 O358 1.258 . S
C361 O363 1.282 . S
O362 Cd354 2.277 . S
O362 C355 1.226 . S
O363 Cd354 2.356 . S
O363 C361 1.282 . S
C364 O365 1.306 . S
C364 O367 1.160 . S
O365 C364 1.306 . S
O365 Cd366 2.228 1_554 S
Cd366 O365 2.228 1_556 S
Cd366 O370 2.273 . S
Cd366 O374 2.277 . S
O367 C364 1.160 . S
O367 Cd368 2.203 1_554 S
Cd368 O367 2.203 1_556 S
Cd368 O370 2.411 . S
Cd368 O371 2.333 . S
Cd368 O372 2.352 . S
Cd368 O376 2.277 . S
Cd368 O377 2.356 . S
C369 O374 1.209 . S
C369 O376 1.226 . S
O370 Cd366 2.273 . S
O370 Cd368 2.411 . S
O370 C373 1.320 . S
O371 Cd368 2.333 . S
O371 C373 1.214 . S
O372 Cd368 2.352 . S
O372 C375 1.258 . S
C373 O370 1.320 . S
C373 O371 1.214 . S
O374 Cd366 2.277 . S
O374 C369 1.209 . S
C375 O372 1.258 . S
C375 O377 1.282 . S
O376 Cd368 2.277 . S
O376 C369 1.226 . S
O377 Cd368 2.356 . S
O377 C375 1.282 . S
C378 O379 1.319 . S
C378 O381 1.160 . S
O379 C378 1.319 . S
O379 Cd380 2.223 1_655 S
Cd380 O379 2.223 1_455 S
Cd380 O384 2.273 1_455 S
Cd380 O388 2.277 1_455 S
O381 C378 1.160 . S
O381 Cd382 2.203 . S
Cd382 O381 2.203 . S
Cd382 O384 2.411 . S
Cd382 O385 2.333 . S
Cd382 O386 2.352 . S
Cd382 O390 2.277 . S
Cd382 O391 2.356 . S
C383 O388 1.209 . S
C383 O390 1.226 . S
O384 Cd380 2.273 1_655 S
O384 Cd382 2.411 . S
O384 C387 1.320 . S
O385 Cd382 2.333 . S
O385 C387 1.214 . S
O386 Cd382 2.352 . S
O386 C389 1.258 . S
C387 O384 1.320 . S
C387 O385 1.214 . S
O388 Cd380 2.277 1_655 S
O388 C383 1.209 . S
C389 O386 1.258 . S
C389 O391 1.282 . S
O390 Cd382 2.277 . S
O390 C383 1.226 . S
O391 Cd382 2.356 . S
O391 C389 1.282 . S
C392 O393 1.306 . S
C392 O395 1.160 . S
O393 C392 1.306 . S
O393 Cd394 2.228 1_556 S
Cd394 O393 2.228 1_554 S
Cd394 O398 2.273 . S
Cd394 O402 2.277 . S
O395 C392 1.160 . S
O395 Cd396 2.203 1_556 S
Cd396 O395 2.203 1_554 S
Cd396 O398 2.411 . S
Cd396 O399 2.333 . S
Cd396 O400 2.352 . S
Cd396 O404 2.277 . S
Cd396 O405 2.356 . S
C397 O402 1.209 . S
C397 O404 1.226 . S
O398 Cd394 2.273 . S
O398 Cd396 2.411 . S
O398 C401 1.320 . S
O399 Cd396 2.333 . S
O399 C401 1.214 . S
O400 Cd396 2.352 . S
O400 C403 1.258 . S
C401 O398 1.320 . S
C401 O399 1.214 . S
O402 Cd394 2.277 . S
O402 C397 1.209 . S
C403 O400 1.258 . S
C403 O405 1.282 . S
O404 Cd396 2.277 . S
O404 C397 1.226 . S
O405 Cd396 2.356 . S
O405 C403 1.282 . S
C406 O407 1.320 . S
C406 O409 1.160 . S
O407 C406 1.320 . S
O407 Cd408 2.223 1_655 S
Cd408 O407 2.223 1_455 S
Cd408 O412 2.273 1_455 S
Cd408 O416 2.277 1_455 S
O409 C406 1.160 . S
O409 Cd410 2.203 . S
Cd410 O409 2.203 . S
Cd410 O412 2.411 . S
Cd410 O413 2.333 . S
Cd410 O414 2.352 . S
Cd410 O418 2.277 . S
Cd410 O419 2.356 . S
C411 O416 1.209 . S
C411 O418 1.226 . S
O412 Cd408 2.273 1_655 S
O412 Cd410 2.411 . S
O412 C415 1.320 . S
O413 Cd410 2.333 . S
O413 C415 1.214 . S
O414 Cd410 2.352 . S
O414 C417 1.258 . S
C415 O412 1.320 . S
C415 O413 1.214 . S
O416 Cd408 2.277 1_655 S
O416 C411 1.209 . S
C417 O414 1.258 . S
C417 O419 1.282 . S
O418 Cd410 2.277 . S
O418 C411 1.226 . S
O419 Cd410 2.356 . S
O419 C417 1.282 . S
C420 O421 1.306 . S
C420 O423 1.160 . S
O421 C420 1.306 . S
O421 Cd422 2.228 . S
Cd422 O421 2.228 . S
Cd422 O426 2.273 . S
Cd422 O430 2.277 . S
O423 C420 1.160 . S
O423 Cd424 2.203 . S
Cd424 O423 2.203 . S
Cd424 O426 2.411 . S
Cd424 O427 2.333 . S
Cd424 O428 2.352 . S
Cd424 O432 2.277 . S
Cd424 O433 2.356 . S
C425 O430 1.209 . S
C425 O432 1.226 . S
O426 Cd422 2.273 . S
O426 Cd424 2.411 . S
O426 C429 1.320 . S
O427 Cd424 2.333 . S
O427 C429 1.214 . S
O428 Cd424 2.352 . S
O428 C431 1.258 . S
C429 O426 1.320 . S
C429 O427 1.214 . S
O430 Cd422 2.277 . S
O430 C425 1.209 . S
C431 O428 1.258 . S
C431 O433 1.282 . S
O432 Cd424 2.277 . S
O432 C425 1.226 . S
O433 Cd424 2.356 . S
O433 C431 1.282 . S
C434 O435 1.306 . S
C434 O437 1.160 . S
O435 C434 1.306 . S
O435 Cd436 2.228 . S
Cd436 O435 2.228 . S
Cd436 O440 2.273 . S
Cd436 O444 2.277 . S
O437 C434 1.160 . S
O437 Cd438 2.203 . S
Cd438 O437 2.203 . S
Cd438 O440 2.411 . S
Cd438 O441 2.333 . S
Cd438 O442 2.352 . S
Cd438 O446 2.277 . S
Cd438 O447 2.356 . S
C439 O444 1.209 . S
C439 O446 1.226 . S
O440 Cd436 2.273 . S
O440 Cd438 2.411 . S
O440 C443 1.320 . S
O441 Cd438 2.333 . S
O441 C443 1.214 . S
O442 Cd438 2.352 . S
O442 C445 1.258 . S
C443 O440 1.320 . S
C443 O441 1.214 . S
O444 Cd436 2.277 . S
O444 C439 1.209 . S
C445 O442 1.258 . S
C445 O447 1.282 . S
O446 Cd438 2.277 . S
O446 C439 1.226 . S
O447 Cd438 2.356 . S
O447 C445 1.282 . S
C448 C449 1.363 . S
C448 C454 1.379 . S
C448 N456 1.356 . S
C449 C448 1.363 . S
C449 C455 1.363 1_556 S
C450 C451 1.363 . S
C450 C455 1.379 . S
C450 N457 1.356 . S
C451 C450 1.363 . S
C451 C454 1.363 1_554 S
N452 C454 1.356 . S
N452 H464 0.984 . S
N452 H465 0.985 . S
N453 C455 1.356 . S
N453 H458 0.984 . S
N453 H459 0.985 . S
C454 C448 1.379 . S
C454 C451 1.363 1_556 S
C454 N452 1.356 . S
C455 C449 1.363 1_554 S
C455 C450 1.379 . S
C455 N453 1.356 . S
N456 C448 1.356 . S
N456 H462 0.984 . S
N456 H463 0.984 . S
N457 C450 1.356 . S
N457 H460 0.984 . S
N457 H461 0.985 . S
H458 N453 0.984 . S
H459 N453 0.985 . S
H460 N457 0.984 . S
H461 N457 0.985 . S
H462 N456 0.984 . S
H463 N456 0.984 . S
H464 N452 0.984 . S
H465 N452 0.985 . S
C466 C467 1.363 . S
C466 C472 1.379 1_565 S
C466 N474 1.356 . S
C467 C466 1.363 . S
C467 C473 1.363 . S
C468 C469 1.363 . S
C468 C473 1.379 1_545 S
C468 N475 1.356 . S
C469 C468 1.363 . S
C469 C472 1.363 . S
N470 C472 1.356 . S
N470 H482 0.984 . S
N470 H483 0.985 . S
N471 C473 1.356 . S
N471 H476 0.984 . S
N471 H477 0.985 . S
C472 C466 1.379 1_545 S
C472 C469 1.363 . S
C472 N470 1.356 . S
C473 C467 1.363 . S
C473 C468 1.379 1_565 S
C473 N471 1.356 . S
N474 C466 1.356 . S
N474 H480 0.984 . S
N474 H481 0.984 . S
N475 C468 1.356 . S
N475 H478 0.984 . S
N475 H479 0.985 . S
H476 N471 0.984 . S
H477 N471 0.985 . S
H478 N475 0.984 . S
H479 N475 0.985 . S
H480 N474 0.984 . S
H481 N474 0.984 . S
H482 N470 0.984 . S
H483 N470 0.985 . S
C484 C485 1.363 . S
C484 C490 1.379 . S
C484 N492 1.356 . S
C485 C484 1.363 . S
C485 C491 1.363 . S
C486 C487 1.363 . S
C486 C491 1.379 . S
C486 N493 1.356 . S
C487 C486 1.363 . S
C487 C490 1.363 . S
N488 C490 1.356 . S
N488 H500 0.984 . S
N488 H501 0.985 . S
N489 C491 1.356 . S
N489 H494 0.984 . S
N489 H495 0.985 . S
C490 C484 1.379 . S
C490 C487 1.363 . S
C490 N488 1.356 . S
C491 C485 1.363 . S
C491 C486 1.379 . S
C491 N489 1.356 . S
N492 C484 1.356 . S
N492 H498 0.984 . S
N492 H499 0.984 . S
N493 C486 1.356 . S
N493 H496 0.984 . S
N493 H497 0.985 . S
H494 N489 0.984 . S
H495 N489 0.985 . S
H496 N493 0.984 . S
H497 N493 0.985 . S
H498 N492 0.984 . S
H499 N492 0.984 . S
H500 N488 0.984 . S
H501 N488 0.985 . S
C502 C503 1.363 . S
C502 C508 1.379 1_545 S
C502 N510 1.356 . S
C503 C502 1.363 . S
C503 C509 1.363 . S
C504 C505 1.363 . S
C504 C509 1.379 1_565 S
C504 N511 1.356 . S
C505 C504 1.363 . S
C505 C508 1.363 . S
N506 C508 1.356 . S
N506 H518 0.984 . S
N506 H519 0.985 . S
N507 C509 1.356 . S
N507 H512 0.984 . S
N507 H513 0.985 . S
C508 C502 1.379 1_565 S
C508 C505 1.363 . S
C508 N506 1.356 . S
C509 C503 1.363 . S
C509 C504 1.379 1_545 S
C509 N507 1.356 . S
N510 C502 1.356 . S
N510 H516 0.984 . S
N510 H517 0.984 . S
N511 C504 1.356 . S
N511 H514 0.984 . S
N511 H515 0.985 . S
H512 N507 0.984 . S
H513 N507 0.985 . S
H514 N511 0.984 . S
H515 N511 0.985 . S
H516 N510 0.984 . S
H517 N510 0.984 . S
H518 N506 0.984 . S
H519 N506 0.985 . S
C520 C521 1.363 1_556 S
C520 C526 1.379 . S
C520 N528 1.356 . S
C521 C520 1.363 1_554 S
C521 C527 1.363 . S
C522 C523 1.363 1_554 S
C522 C527 1.379 . S
C522 N529 1.356 . S
C523 C522 1.363 1_556 S
C523 C526 1.363 . S
N524 C526 1.356 . S
N524 H536 0.984 . S
N524 H537 0.985 . S
N525 C527 1.356 . S
N525 H530 0.984 . S
N525 H531 0.985 . S
C526 C520 1.379 . S
C526 C523 1.363 . S
C526 N524 1.356 . S
C527 C521 1.363 . S
C527 C522 1.379 . S
C527 N525 1.356 . S
N528 C520 1.356 . S
N528 H534 0.984 . S
N528 H535 0.984 . S
N529 C522 1.356 . S
N529 H532 0.984 . S
N529 H533 0.985 . S
H530 N525 0.984 . S
H531 N525 0.985 . S
H532 N529 0.984 . S
H533 N529 0.985 . S
H534 N528 0.984 . S
H535 N528 0.984 . S
H536 N524 0.984 . S
H537 N524 0.985 . S
C538 C539 1.363 . S
C538 C544 1.379 1_565 S
C538 N546 1.356 . S
C539 C538 1.363 . S
C539 C545 1.363 . S
C540 C541 1.363 . S
C540 C545 1.379 1_545 S
C540 N547 1.356 . S
C541 C540 1.363 . S
C541 C544 1.363 . S
N542 C544 1.356 . S
N542 H554 0.984 . S
N542 H555 0.985 . S
N543 C545 1.356 . S
N543 H548 0.984 . S
N543 H549 0.985 . S
C544 C538 1.379 1_545 S
C544 C541 1.363 . S
C544 N542 1.356 . S
C545 C539 1.363 . S
C545 C540 1.379 1_565 S
C545 N543 1.356 . S
N546 C538 1.356 . S
N546 H552 0.984 . S
N546 H553 0.984 . S
N547 C540 1.356 . S
N547 H550 0.984 . S
N547 H551 0.985 . S
H548 N543 0.984 . S
H549 N543 0.985 . S
H550 N547 0.984 . S
H551 N547 0.985 . S
H552 N546 0.984 . S
H553 N546 0.984 . S
H554 N542 0.984 . S
H555 N542 0.985 . S
C556 C557 1.363 . S
C556 C562 1.379 . S
C556 N564 1.356 . S
C557 C556 1.363 . S
C557 C563 1.363 . S
C558 C559 1.363 . S
C558 C563 1.379 . S
C558 N565 1.356 . S
C559 C558 1.363 . S
C559 C562 1.363 . S
N560 C562 1.356 . S
N560 H572 0.984 . S
N560 H573 0.985 . S
N561 C563 1.356 . S
N561 H566 0.984 . S
N561 H567 0.985 . S
C562 C556 1.379 . S
C562 C559 1.363 . S
C562 N560 1.356 . S
C563 C557 1.363 . S
C563 C558 1.379 . S
C563 N561 1.356 . S
N564 C556 1.356 . S
N564 H570 0.984 . S
N564 H571 0.984 . S
N565 C558 1.356 . S
N565 H568 0.984 . S
N565 H569 0.985 . S
H566 N561 0.984 . S
H567 N561 0.985 . S
H568 N565 0.984 . S
H569 N565 0.985 . S
H570 N564 0.984 . S
H571 N564 0.984 . S
H572 N560 0.984 . S
H573 N560 0.985 . S
C574 C575 1.363 . S
C574 C580 1.379 1_565 S
C574 N582 1.356 . S
C575 C574 1.363 . S
C575 C581 1.363 . S
C576 C577 1.363 . S
C576 C581 1.379 1_545 S
C576 N583 1.356 . S
C577 C576 1.363 . S
C577 C580 1.363 . S
N578 C580 1.356 . S
N578 H590 0.984 . S
N578 H591 0.985 . S
N579 C581 1.356 . S
N579 H584 0.984 . S
N579 H585 0.985 . S
C580 C574 1.379 1_545 S
C580 C577 1.363 . S
C580 N578 1.356 . S
C581 C575 1.363 . S
C581 C576 1.379 1_565 S
C581 N579 1.356 . S
N582 C574 1.356 . S
N582 H588 0.984 . S
N582 H589 0.984 . S
N583 C576 1.356 . S
N583 H586 0.984 . S
N583 H587 0.985 . S
H584 N579 0.984 . S
H585 N579 0.985 . S
H586 N583 0.984 . S
H587 N583 0.985 . S
H588 N582 0.984 . S
H589 N582 0.984 . S
H590 N578 0.984 . S
H591 N578 0.985 . S
C592 C593 1.363 . S
C592 C598 1.379 . S
C592 N600 1.356 . S
C593 C592 1.363 . S
C593 C599 1.363 . S
C594 C595 1.363 . S
C594 C599 1.379 . S
C594 N601 1.356 . S
C595 C594 1.363 . S
C595 C598 1.363 . S
N596 C598 1.356 . S
N596 H608 0.984 . S
N596 H609 0.985 . S
N597 C599 1.356 . S
N597 H602 0.984 . S
N597 H603 0.985 . S
C598 C592 1.379 . S
C598 C595 1.363 . S
C598 N596 1.356 . S
C599 C593 1.363 . S
C599 C594 1.379 . S
C599 N597 1.356 . S
N600 C592 1.356 . S
N600 H606 0.984 . S
N600 H607 0.984 . S
N601 C594 1.356 . S
N601 H604 0.984 . S
N601 H605 0.985 . S
H602 N597 0.984 . S
H603 N597 0.985 . S
H604 N601 0.984 . S
H605 N601 0.985 . S
H606 N600 0.984 . S
H607 N600 0.984 . S
H608 N596 0.984 . S
H609 N596 0.985 . S
C610 C611 1.363 . S
C610 C616 1.379 . S
C610 N618 1.356 . S
C611 C610 1.363 . S
C611 C617 1.363 . S
C612 C613 1.363 . S
C612 C617 1.379 . S
C612 N619 1.356 . S
C613 C612 1.363 . S
C613 C616 1.363 . S
N614 C616 1.356 . S
N614 H626 0.984 . S
N614 H627 0.985 . S
N615 C617 1.356 . S
N615 H620 0.984 . S
N615 H621 0.985 . S
C616 C610 1.379 . S
C616 C613 1.363 . S
C616 N614 1.356 . S
C617 C611 1.363 . S
C617 C612 1.379 . S
C617 N615 1.356 . S
N618 C610 1.356 . S
N618 H624 0.984 . S
N618 H625 0.984 . S
N619 C612 1.356 . S
N619 H622 0.984 . S
N619 H623 0.985 . S
H620 N615 0.984 . S
H621 N615 0.985 . S
H622 N619 0.984 . S
H623 N619 0.985 . S
H624 N618 0.984 . S
H625 N618 0.984 . S
H626 N614 0.984 . S
H627 N614 0.985 . S
C628 C629 1.363 . S
C628 C634 1.379 . S
C628 N636 1.356 . S
C629 C628 1.363 . S
C629 C635 1.363 1_556 S
C630 C631 1.363 . S
C630 C635 1.379 . S
C630 N637 1.356 . S
C631 C630 1.363 . S
C631 C634 1.363 1_554 S
N632 C634 1.356 . S
N632 H644 0.984 . S
N632 H645 0.985 . S
N633 C635 1.356 . S
N633 H638 0.984 . S
N633 H639 0.985 . S
C634 C628 1.379 . S
C634 C631 1.363 1_556 S
C634 N632 1.356 . S
C635 C629 1.363 1_554 S
C635 C630 1.379 . S
C635 N633 1.356 . S
N636 C628 1.356 . S
N636 H642 0.984 . S
N636 H643 0.984 . S
N637 C630 1.356 . S
N637 H640 0.984 . S
N637 H641 0.985 . S
H638 N633 0.984 . S
H639 N633 0.985 . S
H640 N637 0.984 . S
H641 N637 0.985 . S
H642 N636 0.984 . S
H643 N636 0.984 . S
H644 N632 0.984 . S
H645 N632 0.985 . S
C646 C647 1.363 . S
C646 C652 1.379 . S
C646 N654 1.356 . S
C647 C646 1.363 . S
C647 C653 1.363 . S
C648 C649 1.363 . S
C648 C653 1.379 . S
C648 N655 1.356 . S
C649 C648 1.363 . S
C649 C652 1.363 . S
N650 C652 1.356 . S
N650 H662 0.984 . S
N650 H663 0.985 . S
N651 C653 1.356 . S
N651 H656 0.984 . S
N651 H657 0.985 . S
C652 C646 1.379 . S
C652 C649 1.363 . S
C652 N650 1.356 . S
C653 C647 1.363 . S
C653 C648 1.379 . S
C653 N651 1.356 . S
N654 C646 1.356 . S
N654 H660 0.984 . S
N654 H661 0.984 . S
N655 C648 1.356 . S
N655 H658 0.984 . S
N655 H659 0.985 . S
H656 N651 0.984 . S
H657 N651 0.985 . S
H658 N655 0.984 . S
H659 N655 0.985 . S
H660 N654 0.984 . S
H661 N654 0.984 . S
H662 N650 0.984 . S
H663 N650 0.985 . S
C664 C665 1.363 . S
C664 C670 1.379 . S
C664 N672 1.356 . S
C665 C664 1.363 . S
C665 C671 1.363 . S
C666 C667 1.363 . S
C666 C671 1.379 . S
C666 N673 1.356 . S
C667 C666 1.363 . S
C667 C670 1.363 . S
N668 C670 1.356 . S
N668 H680 0.984 . S
N668 H681 0.985 . S
N669 C671 1.356 . S
N669 H674 0.984 . S
N669 H675 0.985 . S
C670 C664 1.379 . S
C670 C667 1.363 . S
C670 N668 1.356 . S
C671 C665 1.363 . S
C671 C666 1.379 . S
C671 N669 1.356 . S
N672 C664 1.356 . S
N672 H678 0.984 . S
N672 H679 0.984 . S
N673 C666 1.356 . S
N673 H676 0.984 . S
N673 H677 0.985 . S
H674 N669 0.984 . S
H675 N669 0.985 . S
H676 N673 0.984 . S
H677 N673 0.985 . S
H678 N672 0.984 . S
H679 N672 0.984 . S
H680 N668 0.984 . S
H681 N668 0.985 . S
C682 C683 1.363 . S
C682 C688 1.379 . S
C682 N690 1.356 . S
C683 C682 1.363 . S
C683 C689 1.363 . S
C684 C685 1.363 . S
C684 C689 1.379 . S
C684 N691 1.356 . S
C685 C684 1.363 . S
C685 C688 1.363 . S
N686 C688 1.356 . S
N686 H698 0.984 . S
N686 H699 0.985 . S
N687 C689 1.356 . S
N687 H692 0.984 . S
N687 H693 0.985 . S
C688 C682 1.379 . S
C688 C685 1.363 . S
C688 N686 1.356 . S
C689 C683 1.363 . S
C689 C684 1.379 . S
C689 N687 1.356 . S
N690 C682 1.356 . S
N690 H696 0.984 . S
N690 H697 0.984 . S
N691 C684 1.356 . S
N691 H694 0.984 . S
N691 H695 0.985 . S
H692 N687 0.984 . S
H693 N687 0.985 . S
H694 N691 0.984 . S
H695 N691 0.985 . S
H696 N690 0.984 . S
H697 N690 0.984 . S
H698 N686 0.984 . S
H699 N686 0.985 . S
C700 C701 1.363 1_556 S
C700 C706 1.379 . S
C700 N708 1.356 . S
C701 C700 1.363 1_554 S
C701 C707 1.363 . S
C702 C703 1.363 1_554 S
C702 C707 1.379 . S
C702 N709 1.356 . S
C703 C702 1.363 1_556 S
C703 C706 1.363 . S
N704 C706 1.356 . S
N704 H716 0.984 . S
N704 H717 0.985 . S
N705 C707 1.356 . S
N705 H710 0.984 . S
N705 H711 0.985 . S
C706 C700 1.379 . S
C706 C703 1.363 . S
C706 N704 1.356 . S
C707 C701 1.363 . S
C707 C702 1.379 . S
C707 N705 1.356 . S
N708 C700 1.356 . S
N708 H714 0.984 . S
N708 H715 0.984 . S
N709 C702 1.356 . S
N709 H712 0.984 . S
N709 H713 0.985 . S
H710 N705 0.984 . S
H711 N705 0.985 . S
H712 N709 0.984 . S
H713 N709 0.985 . S
H714 N708 0.984 . S
H715 N708 0.984 . S
H716 N704 0.984 . S
H717 N704 0.985 . S
C718 C719 1.363 . S
C718 C724 1.379 . S
C718 N726 1.356 . S
C719 C718 1.363 . S
C719 C725 1.363 . S
C720 C721 1.363 . S
C720 C725 1.379 . S
C720 N727 1.356 . S
C721 C720 1.363 . S
C721 C724 1.363 . S
N722 C724 1.356 . S
N722 H734 0.984 . S
N722 H735 0.985 . S
N723 C725 1.356 . S
N723 H728 0.984 . S
N723 H729 0.985 1_655 S
C724 C718 1.379 . S
C724 C721 1.363 . S
C724 N722 1.356 . S
C725 C719 1.363 . S
C725 C720 1.379 . S
C725 N723 1.356 . S
N726 C718 1.356 . S
N726 H732 0.984 . S
N726 H733 0.984 . S
N727 C720 1.356 . S
N727 H730 0.984 . S
N727 H731 0.985 1_655 S
H728 N723 0.984 . S
H729 N723 0.985 1_455 S
H730 N727 0.984 . S
H731 N727 0.985 1_455 S
H732 N726 0.984 . S
H733 N726 0.984 . S
H734 N722 0.984 . S
H735 N722 0.985 . S
C736 C737 1.363 . S
C736 C742 1.379 . S
C736 N744 1.356 . S
C737 C736 1.363 . S
C737 C743 1.363 . S
C738 C739 1.363 . S
C738 C743 1.379 . S
C738 N745 1.356 . S
C739 C738 1.363 . S
C739 C742 1.363 . S
N740 C742 1.356 . S
N740 H752 0.984 . S
N740 H753 0.985 . S
N741 C743 1.356 . S
N741 H746 0.984 . S
N741 H747 0.985 . S
C742 C736 1.379 . S
C742 C739 1.363 . S
C742 N740 1.356 . S
C743 C737 1.363 . S
C743 C738 1.379 . S
C743 N741 1.356 . S
N744 C736 1.356 . S
N744 H750 0.984 . S
N744 H751 0.984 . S
N745 C738 1.356 . S
N745 H748 0.984 . S
N745 H749 0.985 . S
H746 N741 0.984 . S
H747 N741 0.985 . S
H748 N745 0.984 . S
H749 N745 0.985 . S
H750 N744 0.984 . S
H751 N744 0.984 . S
H752 N740 0.984 . S
H753 N740 0.985 . S
C754 C755 1.363 1_554 S
C754 C760 1.379 . S
C754 N762 1.356 . S
C755 C754 1.363 1_556 S
C755 C761 1.363 1_456 S
C756 C757 1.363 . S
C756 C761 1.379 . S
C756 N763 1.356 . S
C757 C756 1.363 . S
C757 C760 1.363 1_655 S
N758 C760 1.356 . S
N758 H770 0.984 . S
N758 H771 0.985 1_455 S
N759 C761 1.356 1_556 S
N759 H764 0.984 1_655 S
N759 H765 0.985 . S
C760 C754 1.379 . S
C760 C757 1.363 1_455 S
C760 N758 1.356 . S
C761 C755 1.363 1_654 S
C761 C756 1.379 . S
C761 N759 1.356 1_554 S
N762 C754 1.356 . S
N762 H768 0.984 . S
N762 H769 0.984 1_554 S
N763 C756 1.356 . S
N763 H766 0.984 . S
N763 H767 0.985 . S
H764 N759 0.984 1_455 S
H765 N759 0.985 . S
H766 N763 0.984 . S
H767 N763 0.985 . S
H768 N762 0.984 . S
H769 N762 0.984 1_556 S
H770 N758 0.984 . S
H771 N758 0.985 1_655 S
C772 C773 1.363 . S
C772 C778 1.379 . S
C772 N780 1.356 . S
C773 C772 1.363 . S
C773 C779 1.363 . S
C774 C775 1.363 . S
C774 C779 1.379 . S
C774 N781 1.356 . S
C775 C774 1.363 . S
C775 C778 1.363 . S
N776 C778 1.356 . S
N776 H788 0.984 . S
N776 H789 0.985 . S
N777 C779 1.356 . S
N777 H782 0.984 . S
N777 H783 0.985 . S
C778 C772 1.379 . S
C778 C775 1.363 . S
C778 N776 1.356 . S
C779 C773 1.363 . S
C779 C774 1.379 . S
C779 N777 1.356 . S
N780 C772 1.356 . S
N780 H786 0.984 . S
N780 H787 0.984 . S
N781 C774 1.356 . S
N781 H784 0.984 . S
N781 H785 0.985 . S
H782 N777 0.984 . S
H783 N777 0.985 . S
H784 N781 0.984 . S
H785 N781 0.985 . S
H786 N780 0.984 . S
H787 N780 0.984 . S
H788 N776 0.984 . S
H789 N776 0.985 . S
C790 C791 1.363 . S
C790 C796 1.379 . S
C790 N798 1.356 . S
C791 C790 1.363 . S
C791 C797 1.363 . S
C792 C793 1.363 . S
C792 C797 1.379 . S
C792 N799 1.356 . S
C793 C792 1.363 . S
C793 C796 1.363 . S
N794 C796 1.356 . S
N794 H806 0.984 . S
N794 H807 0.985 . S
N795 C797 1.356 . S
N795 H800 0.984 . S
N795 H801 0.985 . S
C796 C790 1.379 . S
C796 C793 1.363 . S
C796 N794 1.356 . S
C797 C791 1.363 . S
C797 C792 1.379 . S
C797 N795 1.356 . S
N798 C790 1.356 . S
N798 H804 0.984 . S
N798 H805 0.984 . S
N799 C792 1.356 . S
N799 H802 0.984 . S
N799 H803 0.985 . S
H800 N795 0.984 . S
H801 N795 0.985 . S
H802 N799 0.984 . S
H803 N799 0.985 . S
H804 N798 0.984 . S
H805 N798 0.984 . S
H806 N794 0.984 . S
H807 N794 0.985 . S
C808 C809 1.363 . S
C808 C814 1.379 . S
C808 N816 1.356 . S
C809 C808 1.363 . S
C809 C815 1.363 . S
C810 C811 1.363 . S
C810 C815 1.379 . S
C810 N817 1.356 . S
C811 C810 1.363 . S
C811 C814 1.363 . S
N812 C814 1.356 . S
N812 H824 0.984 . S
N812 H825 0.985 . S
N813 C815 1.356 . S
N813 H818 0.984 . S
N813 H819 0.985 . S
C814 C808 1.379 . S
C814 C811 1.363 . S
C814 N812 1.356 . S
C815 C809 1.363 . S
C815 C810 1.379 . S
C815 N813 1.356 . S
N816 C808 1.356 . S
N816 H822 0.984 . S
N816 H823 0.984 . S
N817 C810 1.356 . S
N817 H820 0.984 . S
N817 H821 0.985 . S
H818 N813 0.984 . S
H819 N813 0.985 . S
H820 N817 0.984 . S
H821 N817 0.985 . S
H822 N816 0.984 . S
H823 N816 0.984 . S
H824 N812 0.984 . S
H825 N812 0.985 . S
C826 C827 1.363 1_556 S
C826 C832 1.379 . S
C826 N834 1.356 1_556 S
C827 C826 1.363 1_554 S
C827 C833 1.363 1_554 S
C828 C829 1.363 . S
C828 C833 1.379 . S
C828 N835 1.356 . S
C829 C828 1.363 . S
C829 C832 1.363 . S
N830 C832 1.356 . S
N830 H842 0.984 . S
N830 H843 0.985 . S
N831 C833 1.356 . S
N831 H836 0.984 1_556 S
N831 H837 0.985 . S
C832 C826 1.379 . S
C832 C829 1.363 . S
C832 N830 1.356 . S
C833 C827 1.363 1_556 S
C833 C828 1.379 . S
C833 N831 1.356 . S
N834 C826 1.356 1_554 S
N834 H840 0.984 . S
N834 H841 0.984 . S
N835 C828 1.356 . S
N835 H838 0.984 . S
N835 H839 0.985 . S
H836 N831 0.984 1_554 S
H837 N831 0.985 . S
H838 N835 0.984 . S
H839 N835 0.985 . S
H840 N834 0.984 . S
H841 N834 0.984 . S
H842 N830 0.984 . S
H843 N830 0.985 . S
C844 C845 1.363 . S
C844 C850 1.379 . S
C844 N852 1.356 . S
C845 C844 1.363 . S
C845 C851 1.363 . S
C846 C847 1.363 . S
C846 C851 1.379 . S
C846 N853 1.356 . S
C847 C846 1.363 . S
C847 C850 1.363 . S
N848 C850 1.356 . S
N848 H860 0.984 . S
N848 H861 0.985 . S
N849 C851 1.356 . S
N849 H854 0.984 . S
N849 H855 0.985 . S
C850 C844 1.379 . S
C850 C847 1.363 . S
C850 N848 1.356 . S
C851 C845 1.363 . S
C851 C846 1.379 . S
C851 N849 1.356 . S
N852 C844 1.356 . S
N852 H858 0.984 . S
N852 H859 0.984 . S
N853 C846 1.356 . S
N853 H856 0.984 . S
N853 H857 0.985 . S
H854 N849 0.984 . S
H855 N849 0.985 . S
H856 N853 0.984 . S
H857 N853 0.985 . S
H858 N852 0.984 . S
H859 N852 0.984 . S
H860 N848 0.984 . S
H861 N848 0.985 . S
C862 C863 1.363 1_655 S
C862 C868 1.379 . S
C862 N870 1.356 . S
C863 C862 1.363 1_455 S
C863 C869 1.363 . S
C864 C865 1.363 1_455 S
C864 C869 1.379 . S
C864 N871 1.356 . S
C865 C864 1.363 1_655 S
C865 C868 1.363 . S
N866 C868 1.356 . S
N866 H878 0.984 . S
N866 H879 0.985 . S
N867 C869 1.356 . S
N867 H872 0.984 . S
N867 H873 0.985 . S
C868 C862 1.379 . S
C868 C865 1.363 . S
C868 N866 1.356 . S
C869 C863 1.363 . S
C869 C864 1.379 . S
C869 N867 1.356 . S
N870 C862 1.356 . S
N870 H876 0.984 . S
N870 H877 0.984 1_655 S
N871 C864 1.356 . S
N871 H874 0.984 1_455 S
N871 H875 0.985 . S
H872 N867 0.984 . S
H873 N867 0.985 . S
H874 N871 0.984 1_655 S
H875 N871 0.985 . S
H876 N870 0.984 . S
H877 N870 0.984 1_455 S
H878 N866 0.984 . S
H879 N866 0.985 . S
C880 C881 1.363 . S
C880 C886 1.379 . S
C880 N888 1.356 . S
C881 C880 1.363 . S
C881 C887 1.363 . S
C882 C883 1.363 . S
C882 C887 1.379 . S
C882 N889 1.356 . S
C883 C882 1.363 . S
C883 C886 1.363 . S
N884 C886 1.356 . S
N884 H896 0.984 . S
N884 H897 0.985 . S
N885 C887 1.356 . S
N885 H890 0.984 . S
N885 H891 0.985 . S
C886 C880 1.379 . S
C886 C883 1.363 . S
C886 N884 1.356 . S
C887 C881 1.363 . S
C887 C882 1.379 . S
C887 N885 1.356 . S
N888 C880 1.356 . S
N888 H894 0.984 . S
N888 H895 0.984 . S
N889 C882 1.356 . S
N889 H892 0.984 . S
N889 H893 0.985 . S
H890 N885 0.984 . S
H891 N885 0.985 . S
H892 N889 0.984 . S
H893 N889 0.985 . S
H894 N888 0.984 . S
H895 N888 0.984 . S
H896 N884 0.984 . S
H897 N884 0.985 . S
C898 C899 1.363 1_456 S
C898 C904 1.379 . S
C898 N906 1.356 1_556 S
C899 C898 1.363 1_654 S
C899 C905 1.363 1_554 S
C900 C901 1.363 1_655 S
C900 C905 1.379 . S
C900 N907 1.356 . S
C901 C900 1.363 1_455 S
C901 C904 1.363 . S
N902 C904 1.356 . S
N902 H914 0.984 . S
N902 H915 0.985 . S
N903 C905 1.356 1_554 S
N903 H908 0.984 . S
N903 H909 0.985 . S
C904 C898 1.379 . S
C904 C901 1.363 . S
C904 N902 1.356 . S
C905 C899 1.363 1_556 S
C905 C900 1.379 . S
C905 N903 1.356 1_556 S
N906 C898 1.356 1_554 S
N906 H912 0.984 . S
N906 H913 0.984 1_455 S
N907 C900 1.356 . S
N907 H910 0.984 1_655 S
N907 H911 0.985 . S
H908 N903 0.984 . S
H909 N903 0.985 . S
H910 N907 0.984 1_455 S
H911 N907 0.985 . S
H912 N906 0.984 . S
H913 N906 0.984 1_655 S
H914 N902 0.984 . S
H915 N902 0.985 . S
C916 C917 1.363 . S
C916 C922 1.379 . S
C916 N924 1.356 . S
C917 C916 1.363 . S
C917 C923 1.363 . S
C918 C919 1.363 . S
C918 C923 1.379 . S
C918 N925 1.356 . S
C919 C918 1.363 . S
C919 C922 1.363 . S
N920 C922 1.356 . S
N920 H932 0.984 . S
N920 H933 0.985 . S
N921 C923 1.356 . S
N921 H926 0.984 . S
N921 H927 0.985 . S
C922 C916 1.379 . S
C922 C919 1.363 . S
C922 N920 1.356 . S
C923 C917 1.363 . S
C923 C918 1.379 . S
C923 N921 1.356 . S
N924 C916 1.356 . S
N924 H930 0.984 . S
N924 H931 0.984 . S
N925 C918 1.356 . S
N925 H928 0.984 . S
N925 H929 0.985 . S
H926 N921 0.984 . S
H927 N921 0.985 . S
H928 N925 0.984 . S
H929 N925 0.985 . S
H930 N924 0.984 . S
H931 N924 0.984 . S
H932 N920 0.984 . S
H933 N920 0.985 . S
C934 C935 1.363 . S
C934 C940 1.379 . S
C934 N942 1.356 . S
C935 C934 1.363 . S
C935 C941 1.363 . S
C936 C937 1.363 . S
C936 C941 1.379 . S
C936 N943 1.356 . S
C937 C936 1.363 . S
C937 C940 1.363 . S
N938 C940 1.356 . S
N938 H950 0.984 . S
N938 H951 0.985 . S
N939 C941 1.356 . S
N939 H944 0.984 . S
N939 H945 0.985 . S
C940 C934 1.379 . S
C940 C937 1.363 . S
C940 N938 1.356 . S
C941 C935 1.363 . S
C941 C936 1.379 . S
C941 N939 1.356 . S
N942 C934 1.356 . S
N942 H948 0.984 . S
N942 H949 0.984 . S
N943 C936 1.356 . S
N943 H946 0.984 . S
N943 H947 0.985 . S
H944 N939 0.984 . S
H945 N939 0.985 . S
H946 N943 0.984 . S
H947 N943 0.985 . S
H948 N942 0.984 . S
H949 N942 0.984 . S
H950 N938 0.984 . S
H951 N938 0.985 . S
C952 C953 1.363 . S
C952 C958 1.379 . S
C952 N960 1.356 . S
C953 C952 1.363 . S
C953 C959 1.363 . S
C954 C955 1.363 . S
C954 C959 1.379 . S
C954 N961 1.356 . S
C955 C954 1.363 . S
C955 C958 1.363 . S
N956 C958 1.356 . S
N956 H968 0.984 . S
N956 H969 0.985 . S
N957 C959 1.356 . S
N957 H962 0.984 . S
N957 H963 0.985 . S
C958 C952 1.379 . S
C958 C955 1.363 . S
C958 N956 1.356 . S
C959 C953 1.363 . S
C959 C954 1.379 . S
C959 N957 1.356 . S
N960 C952 1.356 . S
N960 H966 0.984 . S
N960 H967 0.984 . S
N961 C954 1.356 . S
N961 H964 0.984 . S
N961 H965 0.985 . S
H962 N957 0.984 . S
H963 N957 0.985 . S
H964 N961 0.984 . S
H965 N961 0.985 . S
H966 N960 0.984 . S
H967 N960 0.984 . S
H968 N956 0.984 . S
H969 N956 0.985 . S
C970 C971 1.363 . S
C970 C976 1.379 . S
C970 N978 1.356 . S
C971 C970 1.363 . S
C971 C977 1.363 . S
C972 C973 1.363 1_554 S
C972 C977 1.379 . S
C972 N979 1.356 . S
C973 C972 1.363 1_556 S
C973 C976 1.363 1_556 S
N974 C976 1.356 1_556 S
N974 H986 0.984 . S
N974 H987 0.985 . S
N975 C977 1.356 . S
N975 H980 0.984 . S
N975 H981 0.985 . S
C976 C970 1.379 . S
C976 C973 1.363 1_554 S
C976 N974 1.356 1_554 S
C977 C971 1.363 . S
C977 C972 1.379 . S
C977 N975 1.356 . S
N978 C970 1.356 . S
N978 H984 0.984 . S
N978 H985 0.984 . S
N979 C972 1.356 . S
N979 H982 0.984 1_554 S
N979 H983 0.985 . S
H980 N975 0.984 . S
H981 N975 0.985 . S
H982 N979 0.984 1_556 S
H983 N979 0.985 . S
H984 N978 0.984 . S
H985 N978 0.984 . S
H986 N974 0.984 . S
H987 N974 0.985 . S
C988 C989 1.363 . S
C988 C994 1.379 . S
C988 N996 1.356 . S
C989 C988 1.363 . S
C989 C995 1.363 . S
C990 C991 1.363 . S
C990 C995 1.379 . S
C990 N997 1.356 . S
C991 C990 1.363 . S
C991 C994 1.363 . S
N992 C994 1.356 . S
N992 H1004 0.984 . S
N992 H1005 0.985 . S
N993 C995 1.356 . S
N993 H998 0.984 . S
N993 H999 0.985 . S
C994 C988 1.379 . S
C994 C991 1.363 . S
C994 N992 1.356 . S
C995 C989 1.363 . S
C995 C990 1.379 . S
C995 N993 1.356 . S
N996 C988 1.356 . S
N996 H1002 0.984 . S
N996 H1003 0.984 . S
N997 C990 1.356 . S
N997 H1000 0.984 . S
N997 H1001 0.985 . S
H998 N993 0.984 . S
H999 N993 0.985 . S
H1000 N997 0.984 . S
H1001 N997 0.985 . S
H1002 N996 0.984 . S
H1003 N996 0.984 . S
H1004 N992 0.984 . S
H1005 N992 0.985 . S
C1006 C1007 1.363 . S
C1006 C1012 1.379 . S
C1006 N1014 1.356 . S
C1007 C1006 1.363 . S
C1007 C1013 1.363 1_655 S
C1008 C1009 1.363 . S
C1008 C1013 1.379 . S
C1008 N1015 1.356 . S
C1009 C1008 1.363 . S
C1009 C1012 1.363 1_455 S
N1010 C1012 1.356 . S
N1010 H1022 0.984 . S
N1010 H1023 0.985 1_655 S
N1011 C1013 1.356 . S
N1011 H1016 0.956 1_455 S
N1011 H1017 0.985 . S
C1012 C1006 1.379 . S
C1012 C1009 1.363 1_655 S
C1012 N1010 1.356 . S
C1013 C1007 1.363 1_455 S
C1013 C1008 1.379 . S
C1013 N1011 1.356 . S
N1014 C1006 1.356 . S
N1014 H1020 0.984 . S
N1014 H1021 0.984 . S
N1015 C1008 1.356 . S
N1015 H1018 0.984 . S
N1015 H1019 0.985 . S
H1016 N1011 0.956 1_655 S
H1017 N1011 0.985 . S
H1018 N1015 0.984 . S
H1019 N1015 0.985 . S
H1020 N1014 0.984 . S
H1021 N1014 0.984 . S
H1022 N1010 0.984 . S
H1023 N1010 0.985 1_455 S
C1024 C1025 1.363 . S
C1024 C1030 1.379 . S
C1024 N1032 1.356 . S
C1025 C1024 1.363 . S
C1025 C1031 1.363 . S
C1026 C1027 1.363 . S
C1026 C1031 1.379 . S
C1026 N1033 1.356 . S
C1027 C1026 1.363 . S
C1027 C1030 1.363 . S
N1028 C1030 1.356 . S
N1028 H1040 0.984 . S
N1028 H1041 0.985 . S
N1029 C1031 1.356 . S
N1029 H1034 0.984 . S
N1029 H1035 0.985 . S
C1030 C1024 1.379 . S
C1030 C1027 1.363 . S
C1030 N1028 1.356 . S
C1031 C1025 1.363 . S
C1031 C1026 1.379 . S
C1031 N1029 1.356 . S
N1032 C1024 1.356 . S
N1032 H1038 0.984 . S
N1032 H1039 0.984 . S
N1033 C1026 1.356 . S
N1033 H1036 0.984 . S
N1033 H1037 0.985 . S
H1034 N1029 0.984 . S
H1035 N1029 0.985 . S
H1036 N1033 0.984 . S
H1037 N1033 0.985 . S
H1038 N1032 0.984 . S
H1039 N1032 0.984 . S
H1040 N1028 0.984 . S
H1041 N1028 0.985 . S
C1042 C1043 1.363 . S
C1042 C1048 1.379 . S
C1042 N1050 1.356 . S
C1043 C1042 1.363 . S
C1043 C1049 1.363 . S
C1044 C1045 1.363 . S
C1044 C1049 1.379 . S
C1044 N1051 1.356 . S
C1045 C1044 1.363 . S
C1045 C1048 1.363 . S
N1046 C1048 1.356 . S
N1046 H1058 0.984 . S
N1046 H1059 0.985 . S
N1047 C1049 1.356 . S
N1047 H1052 0.984 . S
N1047 H1053 0.985 . S
C1048 C1042 1.379 . S
C1048 C1045 1.363 . S
C1048 N1046 1.356 . S
C1049 C1043 1.363 . S
C1049 C1044 1.379 . S
C1049 N1047 1.356 . S
N1050 C1042 1.356 . S
N1050 H1056 0.984 . S
N1050 H1057 0.984 . S
N1051 C1044 1.356 . S
N1051 H1054 0.984 . S
N1051 H1055 0.985 . S
H1052 N1047 0.984 . S
H1053 N1047 0.985 . S
H1054 N1051 0.984 . S
H1055 N1051 0.985 . S
H1056 N1050 0.984 . S
H1057 N1050 0.984 . S
H1058 N1046 0.984 . S
H1059 N1046 0.985 . S
C1060 C1061 1.363 . S
C1060 C1066 1.379 . S
C1060 N1068 1.356 . S
C1061 C1060 1.363 . S
C1061 C1067 1.363 . S
C1062 C1063 1.363 . S
C1062 C1067 1.379 . S
C1062 N1069 1.356 . S
C1063 C1062 1.363 . S
C1063 C1066 1.363 . S
N1064 C1066 1.356 . S
N1064 H1076 0.984 . S
N1064 H1077 0.985 . S
N1065 C1067 1.356 . S
N1065 H1070 0.984 . S
N1065 H1071 0.985 . S
C1066 C1060 1.379 . S
C1066 C1063 1.363 . S
C1066 N1064 1.356 . S
C1067 C1061 1.363 . S
C1067 C1062 1.379 . S
C1067 N1065 1.356 . S
N1068 C1060 1.356 . S
N1068 H1074 0.984 . S
N1068 H1075 0.984 . S
N1069 C1062 1.356 . S
N1069 H1072 0.984 . S
N1069 H1073 0.985 . S
H1070 N1065 0.984 . S
H1071 N1065 0.985 . S
H1072 N1069 0.984 . S
H1073 N1069 0.985 . S
H1074 N1068 0.984 . S
H1075 N1068 0.984 . S
H1076 N1064 0.984 . S
H1077 N1064 0.985 . S
C1078 C1079 1.363 . S
C1078 C1084 1.383 . S
C1078 N1086 1.356 . S
C1079 C1078 1.363 . S
C1079 C1085 1.363 . S
C1080 C1081 1.363 1_554 S
C1080 C1085 1.379 1_655 S
C1080 N1087 1.356 1_554 S
C1081 C1080 1.363 1_556 S
C1081 C1084 1.360 1_656 S
N1082 C1084 1.355 1_656 S
N1082 H1094 0.973 1_656 S
N1082 H1095 0.985 . S
N1083 C1085 1.356 . S
N1083 H1088 0.984 . S
N1083 H1089 0.985 . S
C1084 C1078 1.383 . S
C1084 C1081 1.360 1_454 S
C1084 N1082 1.355 1_454 S
C1085 C1079 1.363 . S
C1085 C1080 1.379 1_455 S
C1085 N1083 1.356 . S
N1086 C1078 1.356 . S
N1086 H1092 0.984 . S
N1086 H1093 0.984 . S
N1087 C1080 1.356 1_556 S
N1087 H1090 0.984 . S
N1087 H1091 0.985 . S
H1088 N1083 0.984 . S
H1089 N1083 0.985 . S
H1090 N1087 0.984 . S
H1091 N1087 0.985 . S
H1092 N1086 0.984 . S
H1093 N1086 0.984 . S
H1094 N1082 0.973 1_454 S
H1095 N1082 0.985 . S
C1096 C1097 1.363 . S
C1096 C1102 1.379 . S
C1096 N1104 1.356 . S
C1097 C1096 1.363 . S
C1097 C1103 1.363 . S
C1098 C1099 1.363 . S
C1098 C1103 1.379 . S
C1098 N1105 1.356 . S
C1099 C1098 1.363 . S
C1099 C1102 1.363 . S
N1100 C1102 1.356 . S
N1100 H1112 0.984 . S
N1100 H1113 0.985 . S
N1101 C1103 1.356 . S
N1101 H1106 0.984 . S
N1101 H1107 0.985 . S
C1102 C1096 1.379 . S
C1102 C1099 1.363 . S
C1102 N1100 1.356 . S
C1103 C1097 1.363 . S
C1103 C1098 1.379 . S
C1103 N1101 1.356 . S
N1104 C1096 1.356 . S
N1104 H1110 0.984 . S
N1104 H1111 0.984 . S
N1105 C1098 1.356 . S
N1105 H1108 0.984 . S
N1105 H1109 0.985 . S
H1106 N1101 0.984 . S
H1107 N1101 0.985 . S
H1108 N1105 0.984 . S
H1109 N1105 0.985 . S
H1110 N1104 0.984 . S
H1111 N1104 0.984 . S
H1112 N1100 0.984 . S
H1113 N1100 0.985 . S
C1114 C1115 1.363 1_455 S
C1114 C1120 1.379 . S
C1114 N1122 1.356 . S
C1115 C1114 1.363 1_655 S
C1115 C1121 1.363 . S
C1116 C1117 1.363 1_655 S
C1116 C1121 1.379 . S
C1116 N1123 1.356 . S
C1117 C1116 1.363 1_455 S
C1117 C1120 1.363 . S
N1118 C1120 1.356 . S
N1118 H1130 0.984 . S
N1118 H1131 0.985 . S
N1119 C1121 1.356 . S
N1119 H1124 0.984 . S
N1119 H1125 0.985 . S
C1120 C1114 1.379 . S
C1120 C1117 1.363 . S
C1120 N1118 1.356 . S
C1121 C1115 1.363 . S
C1121 C1116 1.379 . S
C1121 N1119 1.356 . S
N1122 C1114 1.356 . S
N1122 H1128 0.984 . S
N1122 H1129 0.984 . S
N1123 C1116 1.356 . S
N1123 H1126 0.999 . S
N1123 H1127 0.985 . S
H1124 N1119 0.984 . S
H1125 N1119 0.985 . S
H1126 N1123 0.999 . S
H1127 N1123 0.985 . S
H1128 N1122 0.984 . S
H1129 N1122 0.984 . S
H1130 N1118 0.984 . S
H1131 N1118 0.985 . S
C1132 C1133 1.363 . S
C1132 C1138 1.379 . S
C1132 N1140 1.356 . S
C1133 C1132 1.363 . S
C1133 C1139 1.363 . S
C1134 C1135 1.363 . S
C1134 C1139 1.379 . S
C1134 N1141 1.356 . S
C1135 C1134 1.363 . S
C1135 C1138 1.363 . S
N1136 C1138 1.356 . S
N1136 H1148 0.984 . S
N1136 H1149 0.985 . S
N1137 C1139 1.356 . S
N1137 H1142 0.984 . S
N1137 H1143 0.985 . S
C1138 C1132 1.379 . S
C1138 C1135 1.363 . S
C1138 N1136 1.356 . S
C1139 C1133 1.363 . S
C1139 C1134 1.379 . S
C1139 N1137 1.356 . S
N1140 C1132 1.356 . S
N1140 H1146 0.984 . S
N1140 H1147 0.984 . S
N1141 C1134 1.356 . S
N1141 H1144 0.984 . S
N1141 H1145 0.985 . S
H1142 N1137 0.984 . S
H1143 N1137 0.985 . S
H1144 N1141 0.984 . S
H1145 N1141 0.985 . S
H1146 N1140 0.984 . S
H1147 N1140 0.984 . S
H1148 N1136 0.984 . S
H1149 N1136 0.985 . S
C1150 C1151 1.363 1_556 S
C1150 C1156 1.379 . S
C1150 N1158 1.356 . S
C1151 C1150 1.363 1_554 S
C1151 C1157 1.363 1_554 S
C1152 C1153 1.363 . S
C1152 C1157 1.379 . S
C1152 N1159 1.356 . S
C1153 C1152 1.363 . S
C1153 C1156 1.363 . S
N1154 C1156 1.356 . S
N1154 H1166 0.984 . S
N1154 H1167 0.985 . S
N1155 C1157 1.356 1_554 S
N1155 H1160 0.984 . S
N1155 H1161 0.985 . S
C1156 C1150 1.379 . S
C1156 C1153 1.363 . S
C1156 N1154 1.356 . S
C1157 C1151 1.363 1_556 S
C1157 C1152 1.379 . S
C1157 N1155 1.356 1_556 S
N1158 C1150 1.356 . S
N1158 H1164 0.984 . S
N1158 H1165 0.984 1_556 S
N1159 C1152 1.356 . S
N1159 H1162 0.984 . S
N1159 H1163 0.985 . S
H1160 N1155 0.984 . S
H1161 N1155 0.985 . S
H1162 N1159 0.984 . S
H1163 N1159 0.985 . S
H1164 N1158 0.984 . S
H1165 N1158 0.984 1_554 S
H1166 N1154 0.984 . S
H1167 N1154 0.985 . S
C1168 C1169 1.363 . S
C1168 C1174 1.379 . S
C1168 N1176 1.356 . S
C1169 C1168 1.363 . S
C1169 C1175 1.363 . S
C1170 C1171 1.363 . S
C1170 C1175 1.379 . S
C1170 N1177 1.356 . S
C1171 C1170 1.363 . S
C1171 C1174 1.363 . S
N1172 C1174 1.356 . S
N1172 H1184 0.984 . S
N1172 H1185 0.985 . S
N1173 C1175 1.356 . S
N1173 H1178 0.984 . S
N1173 H1179 0.985 . S
C1174 C1168 1.379 . S
C1174 C1171 1.363 . S
C1174 N1172 1.356 . S
C1175 C1169 1.363 . S
C1175 C1170 1.379 . S
C1175 N1173 1.356 . S
N1176 C1168 1.356 . S
N1176 H1182 0.984 . S
N1176 H1183 0.984 . S
N1177 C1170 1.356 . S
N1177 H1180 0.984 . S
N1177 H1181 0.985 . S
H1178 N1173 0.984 . S
H1179 N1173 0.985 . S
H1180 N1177 0.984 . S
H1181 N1177 0.985 . S
H1182 N1176 0.984 . S
H1183 N1176 0.984 . S
H1184 N1172 0.984 . S
H1185 N1172 0.985 . S
C1186 C1187 1.363 . S
C1186 C1192 1.379 . S
C1186 N1194 1.356 . S
C1187 C1186 1.363 . S
C1187 C1193 1.363 . S
C1188 C1189 1.363 . S
C1188 C1193 1.379 . S
C1188 N1195 1.356 . S
C1189 C1188 1.363 . S
C1189 C1192 1.363 . S
N1190 C1192 1.356 . S
N1190 H1202 0.984 . S
N1190 H1203 0.985 . S
N1191 C1193 1.356 . S
N1191 H1196 0.984 . S
N1191 H1197 0.985 . S
C1192 C1186 1.379 . S
C1192 C1189 1.363 . S
C1192 N1190 1.356 . S
C1193 C1187 1.363 . S
C1193 C1188 1.379 . S
C1193 N1191 1.356 . S
N1194 C1186 1.356 . S
N1194 H1200 0.984 . S
N1194 H1201 0.984 . S
N1195 C1188 1.356 . S
N1195 H1198 0.984 . S
N1195 H1199 0.985 . S
H1196 N1191 0.984 . S
H1197 N1191 0.985 . S
H1198 N1195 0.984 . S
H1199 N1195 0.985 . S
H1200 N1194 0.984 . S
H1201 N1194 0.984 . S
H1202 N1190 0.984 . S
H1203 N1190 0.985 . S
C1204 C1205 1.363 . S
C1204 C1210 1.379 . S
C1204 N1212 1.356 . S
C1205 C1204 1.363 . S
C1205 C1211 1.363 . S
C1206 C1207 1.363 . S
C1206 C1211 1.379 . S
C1206 N1213 1.356 . S
C1207 C1206 1.363 . S
C1207 C1210 1.363 . S
N1208 C1210 1.356 . S
N1208 H1220 0.984 . S
N1208 H1221 0.985 . S
N1209 C1211 1.356 . S
N1209 H1214 0.984 . S
N1209 H1215 0.985 . S
C1210 C1204 1.379 . S
C1210 C1207 1.363 . S
C1210 N1208 1.356 . S
C1211 C1205 1.363 . S
C1211 C1206 1.379 . S
C1211 N1209 1.356 . S
N1212 C1204 1.356 . S
N1212 H1218 0.984 . S
N1212 H1219 0.984 . S
N1213 C1206 1.356 . S
N1213 H1216 0.984 . S
N1213 H1217 0.985 . S
H1214 N1209 0.984 . S
H1215 N1209 0.985 . S
H1216 N1213 0.984 . S
H1217 N1213 0.985 . S
H1218 N1212 0.984 . S
H1219 N1212 0.984 . S
H1220 N1208 0.984 . S
H1221 N1208 0.985 . S
C1222 C1223 1.363 1_455 S
C1222 C1228 1.379 . S
C1222 N1230 1.356 . S
C1223 C1222 1.363 1_655 S
C1223 C1229 1.363 . S
C1224 C1225 1.362 1_656 S
C1224 C1229 1.388 . S
C1224 N1231 1.347 1_556 S
C1225 C1224 1.362 1_454 S
C1225 C1228 1.363 1_554 S
N1226 C1228 1.356 . S
N1226 H1238 0.984 . S
N1226 H1239 0.985 1_556 S
N1227 C1229 1.356 . S
N1227 H1232 0.984 . S
N1227 H1233 0.985 . S
C1228 C1222 1.379 . S
C1228 C1225 1.363 1_556 S
C1228 N1226 1.356 . S
C1229 C1223 1.363 . S
C1229 C1224 1.388 . S
C1229 N1227 1.356 . S
N1230 C1222 1.356 . S
N1230 H1236 0.984 . S
N1230 H1237 0.956 1_455 S
N1231 C1224 1.347 1_554 S
N1231 H1234 0.984 . S
N1231 H1235 0.985 . S
H1232 N1227 0.984 . S
H1233 N1227 0.985 . S
H1234 N1231 0.984 . S
H1235 N1231 0.985 . S
H1236 N1230 0.984 . S
H1237 N1230 0.956 1_655 S
H1238 N1226 0.984 . S
H1239 N1226 0.985 1_554 S
C1240 C1241 1.363 . S
C1240 C1246 1.379 . S
C1240 N1248 1.356 . S
C1241 C1240 1.363 . S
C1241 C1247 1.363 . S
C1242 C1243 1.363 . S
C1242 C1247 1.379 . S
C1242 N1249 1.356 . S
C1243 C1242 1.363 . S
C1243 C1246 1.363 . S
N1244 C1246 1.356 . S
N1244 H1256 0.984 . S
N1244 H1257 0.985 . S
N1245 C1247 1.356 . S
N1245 H1250 0.984 . S
N1245 H1251 0.985 . S
C1246 C1240 1.379 . S
C1246 C1243 1.363 . S
C1246 N1244 1.356 . S
C1247 C1241 1.363 . S
C1247 C1242 1.379 . S
C1247 N1245 1.356 . S
N1248 C1240 1.356 . S
N1248 H1254 0.984 . S
N1248 H1255 0.984 . S
N1249 C1242 1.356 . S
N1249 H1252 0.984 . S
N1249 H1253 0.985 . S
H1250 N1245 0.984 . S
H1251 N1245 0.985 . S
H1252 N1249 0.984 . S
H1253 N1249 0.985 . S
H1254 N1248 0.984 . S
H1255 N1248 0.984 . S
H1256 N1244 0.984 . S
H1257 N1244 0.985 . S
C1258 C1259 1.363 1_455 S
C1258 C1264 1.379 . S
C1258 N1266 1.356 . S
C1259 C1258 1.363 1_655 S
C1259 C1265 1.363 . S
C1260 C1261 1.363 1_655 S
C1260 C1265 1.379 . S
C1260 N1267 1.356 . S
C1261 C1260 1.363 1_455 S
C1261 C1264 1.363 . S
N1262 C1264 1.356 . S
N1262 H1274 0.984 . S
N1262 H1275 0.985 . S
N1263 C1265 1.356 . S
N1263 H1268 0.984 . S
N1263 H1269 0.985 . S
C1264 C1258 1.379 . S
C1264 C1261 1.363 . S
C1264 N1262 1.356 . S
C1265 C1259 1.363 . S
C1265 C1260 1.379 . S
C1265 N1263 1.356 . S
N1266 C1258 1.356 . S
N1266 H1272 0.984 . S
N1266 H1273 0.984 . S
N1267 C1260 1.356 . S
N1267 H1270 0.984 . S
N1267 H1271 0.985 . S
H1268 N1263 0.984 . S
H1269 N1263 0.985 . S
H1270 N1267 0.984 . S
H1271 N1267 0.985 . S
H1272 N1266 0.984 . S
H1273 N1266 0.984 . S
H1274 N1262 0.984 . S
H1275 N1262 0.985 . S
C1276 C1277 1.363 . S
C1276 C1282 1.379 . S
C1276 N1284 1.356 . S
C1277 C1276 1.363 . S
C1277 C1283 1.363 . S
C1278 C1279 1.363 . S
C1278 C1283 1.379 . S
C1278 N1285 1.356 . S
C1279 C1278 1.363 . S
C1279 C1282 1.363 . S
N1280 C1282 1.356 . S
N1280 H1292 0.984 . S
N1280 H1293 0.985 . S
N1281 C1283 1.356 . S
N1281 H1286 0.984 . S
N1281 H1287 0.985 . S
C1282 C1276 1.379 . S
C1282 C1279 1.363 . S
C1282 N1280 1.356 . S
C1283 C1277 1.363 . S
C1283 C1278 1.379 . S
C1283 N1281 1.356 . S
N1284 C1276 1.356 . S
N1284 H1290 0.984 . S
N1284 H1291 0.984 . S
N1285 C1278 1.356 . S
N1285 H1288 0.984 . S
N1285 H1289 0.985 . S
H1286 N1281 0.984 . S
H1287 N1281 0.985 . S
H1288 N1285 0.984 . S
H1289 N1285 0.985 . S
H1290 N1284 0.984 . S
H1291 N1284 0.984 . S
H1292 N1280 0.984 . S
H1293 N1280 0.985 . S
C1294 C1295 1.363 . S
C1294 C1300 1.379 . S
C1294 N1302 1.356 . S
C1295 C1294 1.363 . S
C1295 C1301 1.363 . S
C1296 C1297 1.363 1_554 S
C1296 C1301 1.379 . S
C1296 N1303 1.356 1_554 S
C1297 C1296 1.363 1_556 S
C1297 C1300 1.363 1_556 S
N1298 C1300 1.356 . S
N1298 H1310 0.984 . S
N1298 H1311 0.985 1_554 S
N1299 C1301 1.356 . S
N1299 H1304 0.984 . S
N1299 H1305 0.985 . S
C1300 C1294 1.379 . S
C1300 C1297 1.363 1_554 S
C1300 N1298 1.356 . S
C1301 C1295 1.363 . S
C1301 C1296 1.379 . S
C1301 N1299 1.356 . S
N1302 C1294 1.356 . S
N1302 H1308 0.984 . S
N1302 H1309 0.984 . S
N1303 C1296 1.356 1_556 S
N1303 H1306 0.984 . S
N1303 H1307 0.985 . S
H1304 N1299 0.984 . S
H1305 N1299 0.985 . S
H1306 N1303 0.984 . S
H1307 N1303 0.985 . S
H1308 N1302 0.984 . S
H1309 N1302 0.984 . S
H1310 N1298 0.984 . S
H1311 N1298 0.985 1_556 S
C1312 C1313 1.363 . S
C1312 C1318 1.379 . S
C1312 N1320 1.356 . S
C1313 C1312 1.363 . S
C1313 C1319 1.363 . S
C1314 C1315 1.363 . S
C1314 C1319 1.379 . S
C1314 N1321 1.356 . S
C1315 C1314 1.363 . S
C1315 C1318 1.363 . S
N1316 C1318 1.356 . S
N1316 H1328 0.984 . S
N1316 H1329 0.985 . S
N1317 C1319 1.356 . S
N1317 H1322 0.984 . S
N1317 H1323 0.985 . S
C1318 C1312 1.379 . S
C1318 C1315 1.363 . S
C1318 N1316 1.356 . S
C1319 C1313 1.363 . S
C1319 C1314 1.379 . S
C1319 N1317 1.356 . S
N1320 C1312 1.356 . S
N1320 H1326 0.984 . S
N1320 H1327 0.984 . S
N1321 C1314 1.356 . S
N1321 H1324 0.984 . S
N1321 H1325 0.985 . S
H1322 N1317 0.984 . S
H1323 N1317 0.985 . S
H1324 N1321 0.984 . S
H1325 N1321 0.985 . S
H1326 N1320 0.984 . S
H1327 N1320 0.984 . S
H1328 N1316 0.984 . S
H1329 N1316 0.985 . S
C1330 C1331 1.363 . S
C1330 C1336 1.379 . S
C1330 N1338 1.356 . S
C1331 C1330 1.363 . S
C1331 C1337 1.363 . S
C1332 C1333 1.363 . S
C1332 C1337 1.379 . S
C1332 N1339 1.356 . S
C1333 C1332 1.363 . S
C1333 C1336 1.363 . S
N1334 C1336 1.356 . S
N1334 H1346 0.984 . S
N1334 H1347 0.985 . S
N1335 C1337 1.356 . S
N1335 H1340 0.984 . S
N1335 H1341 0.985 . S
C1336 C1330 1.379 . S
C1336 C1333 1.363 . S
C1336 N1334 1.356 . S
C1337 C1331 1.363 . S
C1337 C1332 1.379 . S
C1337 N1335 1.356 . S
N1338 C1330 1.356 . S
N1338 H1344 0.984 . S
N1338 H1345 0.984 . S
N1339 C1332 1.356 . S
N1339 H1342 0.984 . S
N1339 H1343 0.985 . S
H1340 N1335 0.984 . S
H1341 N1335 0.985 . S
H1342 N1339 0.984 . S
H1343 N1339 0.985 . S
H1344 N1338 0.984 . S
H1345 N1338 0.984 . S
H1346 N1334 0.984 . S
H1347 N1334 0.985 . S
C1348 C1349 1.363 . S
C1348 C1354 1.379 . S
C1348 N1356 1.356 . S
C1349 C1348 1.363 . S
C1349 C1355 1.363 . S
C1350 C1351 1.363 . S
C1350 C1355 1.379 . S
C1350 N1357 1.356 . S
C1351 C1350 1.363 . S
C1351 C1354 1.363 . S
N1352 C1354 1.356 . S
N1352 H1364 0.984 . S
N1352 H1365 0.985 . S
N1353 C1355 1.356 . S
N1353 H1358 0.984 . S
N1353 H1359 0.985 . S
C1354 C1348 1.379 . S
C1354 C1351 1.363 . S
C1354 N1352 1.356 . S
C1355 C1349 1.363 . S
C1355 C1350 1.379 . S
C1355 N1353 1.356 . S
N1356 C1348 1.356 . S
N1356 H1362 0.984 . S
N1356 H1363 0.984 . S
N1357 C1350 1.356 . S
N1357 H1360 0.984 . S
N1357 H1361 0.985 . S
H1358 N1353 0.984 . S
H1359 N1353 0.985 . S
H1360 N1357 0.984 . S
H1361 N1357 0.985 . S
H1362 N1356 0.984 . S
H1363 N1356 0.984 . S
H1364 N1352 0.984 . S
H1365 N1352 0.985 . S
C1366 C1367 1.363 . S
C1366 C1372 1.379 . S
C1366 N1374 1.356 . S
C1367 C1366 1.363 . S
C1367 C1373 1.363 . S
C1368 C1369 1.363 . S
C1368 C1373 1.379 . S
C1368 N1375 1.356 . S
C1369 C1368 1.363 . S
C1369 C1372 1.363 . S
N1370 C1372 1.356 . S
N1370 H1382 0.984 . S
N1370 H1383 0.985 . S
N1371 C1373 1.356 . S
N1371 H1376 0.984 . S
N1371 H1377 0.985 . S
C1372 C1366 1.379 . S
C1372 C1369 1.363 . S
C1372 N1370 1.356 . S
C1373 C1367 1.363 . S
C1373 C1368 1.379 . S
C1373 N1371 1.356 . S
N1374 C1366 1.356 . S
N1374 H1380 0.984 1_556 S
N1374 H1381 0.984 1_556 S
N1375 C1368 1.356 . S
N1375 H1378 0.984 . S
N1375 H1379 0.985 . S
H1376 N1371 0.984 . S
H1377 N1371 0.985 . S
H1378 N1375 0.984 . S
H1379 N1375 0.985 . S
H1380 N1374 0.984 1_554 S
H1381 N1374 0.984 1_554 S
H1382 N1370 0.984 . S
H1383 N1370 0.985 . S
C1384 C1385 1.363 . S
C1384 C1390 1.379 . S
C1384 N1392 1.356 . S
C1385 C1384 1.363 . S
C1385 C1391 1.363 . S
C1386 C1387 1.363 . S
C1386 C1391 1.379 . S
C1386 N1393 1.356 . S
C1387 C1386 1.363 . S
C1387 C1390 1.363 . S
N1388 C1390 1.356 . S
N1388 H1400 0.984 . S
N1388 H1401 0.985 . S
N1389 C1391 1.356 . S
N1389 H1394 0.984 . S
N1389 H1395 0.985 . S
C1390 C1384 1.379 . S
C1390 C1387 1.363 . S
C1390 N1388 1.356 . S
C1391 C1385 1.363 . S
C1391 C1386 1.379 . S
C1391 N1389 1.356 . S
N1392 C1384 1.356 . S
N1392 H1398 0.984 . S
N1392 H1399 0.984 . S
N1393 C1386 1.356 . S
N1393 H1396 0.984 . S
N1393 H1397 0.985 . S
H1394 N1389 0.984 . S
H1395 N1389 0.985 . S
H1396 N1393 0.984 . S
H1397 N1393 0.985 . S
H1398 N1392 0.984 . S
H1399 N1392 0.984 . S
H1400 N1388 0.984 . S
H1401 N1388 0.985 . S
C1402 C1403 1.363 . S
C1402 C1408 1.379 . S
C1402 N1410 1.356 . S
C1403 C1402 1.363 . S
C1403 C1409 1.363 . S
C1404 C1405 1.363 . S
C1404 C1409 1.379 . S
C1404 N1411 1.356 . S
C1405 C1404 1.363 . S
C1405 C1408 1.363 . S
N1406 C1408 1.356 . S
N1406 H1418 0.984 . S
N1406 H1419 0.985 . S
N1407 C1409 1.356 . S
N1407 H1412 0.984 . S
N1407 H1413 0.985 . S
C1408 C1402 1.379 . S
C1408 C1405 1.363 . S
C1408 N1406 1.356 . S
C1409 C1403 1.363 . S
C1409 C1404 1.379 . S
C1409 N1407 1.356 . S
N1410 C1402 1.356 . S
N1410 H1416 0.984 . S
N1410 H1417 0.984 . S
N1411 C1404 1.356 . S
N1411 H1414 0.984 . S
N1411 H1415 0.985 . S
H1412 N1407 0.984 . S
H1413 N1407 0.985 . S
H1414 N1411 0.984 . S
H1415 N1411 0.985 . S
H1416 N1410 0.984 . S
H1417 N1410 0.984 . S
H1418 N1406 0.984 . S
H1419 N1406 0.985 . S
C1420 C1421 1.363 . S
C1420 C1426 1.379 . S
C1420 N1428 1.356 . S
C1421 C1420 1.363 . S
C1421 C1427 1.363 . S
C1422 C1423 1.363 . S
C1422 C1427 1.379 . S
C1422 N1429 1.356 1_556 S
C1423 C1422 1.363 . S
C1423 C1426 1.363 . S
N1424 C1426 1.356 . S
N1424 H1436 0.984 . S
N1424 H1437 0.985 . S
N1425 C1427 1.356 . S
N1425 H1430 0.984 . S
N1425 H1431 0.985 . S
C1426 C1420 1.379 . S
C1426 C1423 1.363 . S
C1426 N1424 1.356 . S
C1427 C1421 1.363 . S
C1427 C1422 1.379 . S
C1427 N1425 1.356 . S
N1428 C1420 1.356 . S
N1428 H1434 0.984 . S
N1428 H1435 0.984 . S
N1429 C1422 1.356 1_554 S
N1429 H1432 0.984 . S
N1429 H1433 0.985 . S
H1430 N1425 0.984 . S
H1431 N1425 0.985 . S
H1432 N1429 0.984 . S
H1433 N1429 0.985 . S
H1434 N1428 0.984 . S
H1435 N1428 0.984 . S
H1436 N1424 0.984 . S
H1437 N1424 0.985 . S
C1438 C1439 1.363 . S
C1438 C1444 1.379 . S
C1438 N1446 1.356 . S
C1439 C1438 1.363 . S
C1439 C1445 1.363 . S
C1440 C1441 1.363 . S
C1440 C1445 1.379 . S
C1440 N1447 1.356 . S
C1441 C1440 1.363 . S
C1441 C1444 1.363 . S
N1442 C1444 1.356 . S
N1442 H1454 0.984 . S
N1442 H1455 0.985 . S
N1443 C1445 1.356 . S
N1443 H1448 0.984 . S
N1443 H1449 0.985 . S
C1444 C1438 1.379 . S
C1444 C1441 1.363 . S
C1444 N1442 1.356 . S
C1445 C1439 1.363 . S
C1445 C1440 1.379 . S
C1445 N1443 1.356 . S
N1446 C1438 1.356 . S
N1446 H1452 0.984 . S
N1446 H1453 0.984 . S
N1447 C1440 1.356 . S
N1447 H1450 0.984 . S
N1447 H1451 0.985 . S
H1448 N1443 0.984 . S
H1449 N1443 0.985 . S
H1450 N1447 0.984 . S
H1451 N1447 0.985 . S
H1452 N1446 0.984 . S
H1453 N1446 0.984 . S
H1454 N1442 0.984 . S
H1455 N1442 0.985 . S
C1456 C1457 1.363 . S
C1456 C1462 1.379 . S
C1456 N1464 1.356 . S
C1457 C1456 1.363 . S
C1457 C1463 1.363 . S
C1458 C1459 1.363 . S
C1458 C1463 1.379 . S
C1458 N1465 1.356 . S
C1459 C1458 1.363 . S
C1459 C1462 1.363 . S
N1460 C1462 1.356 . S
N1460 H1472 0.984 . S
N1460 H1473 0.985 . S
N1461 C1463 1.356 . S
N1461 H1466 0.984 . S
N1461 H1467 0.985 1_556 S
C1462 C1456 1.379 . S
C1462 C1459 1.363 . S
C1462 N1460 1.356 . S
C1463 C1457 1.363 . S
C1463 C1458 1.379 . S
C1463 N1461 1.356 . S
N1464 C1456 1.356 . S
N1464 H1470 0.984 . S
N1464 H1471 0.984 . S
N1465 C1458 1.356 . S
N1465 H1468 0.984 . S
N1465 H1469 0.985 . S
H1466 N1461 0.984 . S
H1467 N1461 0.985 1_554 S
H1468 N1465 0.984 . S
H1469 N1465 0.985 . S
H1470 N1464 0.984 . S
H1471 N1464 0.984 . S
H1472 N1460 0.984 . S
H1473 N1460 0.985 . S
C1474 C1475 1.363 . S
C1474 C1480 1.379 . S
C1474 N1482 1.356 . S
C1475 C1474 1.363 . S
C1475 C1481 1.363 . S
C1476 C1477 1.363 . S
C1476 C1481 1.379 . S
C1476 N1483 1.356 . S
C1477 C1476 1.363 . S
C1477 C1480 1.363 . S
N1478 C1480 1.356 . S
N1478 H1490 0.984 . S
N1478 H1491 0.985 . S
N1479 C1481 1.356 . S
N1479 H1484 0.984 . S
N1479 H1485 0.985 . S
C1480 C1474 1.379 . S
C1480 C1477 1.363 . S
C1480 N1478 1.356 . S
C1481 C1475 1.363 . S
C1481 C1476 1.379 . S
C1481 N1479 1.356 . S
N1482 C1474 1.356 . S
N1482 H1488 0.984 . S
N1482 H1489 0.984 . S
N1483 C1476 1.356 . S
N1483 H1486 0.984 . S
N1483 H1487 0.985 . S
H1484 N1479 0.984 . S
H1485 N1479 0.985 . S
H1486 N1483 0.984 . S
H1487 N1483 0.985 . S
H1488 N1482 0.984 . S
H1489 N1482 0.984 . S
H1490 N1478 0.984 . S
H1491 N1478 0.985 . S
C1492 C1493 1.363 . S
C1492 C1498 1.379 . S
C1492 N1500 1.356 . S
C1493 C1492 1.363 . S
C1493 C1499 1.363 . S
C1494 C1495 1.363 . S
C1494 C1499 1.379 . S
C1494 N1501 1.356 . S
C1495 C1494 1.363 . S
C1495 C1498 1.363 . S
N1496 C1498 1.356 . S
N1496 H1508 0.984 . S
N1496 H1509 0.985 . S
N1497 C1499 1.356 . S
N1497 H1502 0.984 . S
N1497 H1503 0.985 . S
C1498 C1492 1.379 . S
C1498 C1495 1.363 . S
C1498 N1496 1.356 . S
C1499 C1493 1.363 . S
C1499 C1494 1.379 . S
C1499 N1497 1.356 . S
N1500 C1492 1.356 . S
N1500 H1506 0.984 . S
N1500 H1507 0.984 . S
N1501 C1494 1.356 . S
N1501 H1504 0.984 . S
N1501 H1505 0.985 . S
H1502 N1497 0.984 . S
H1503 N1497 0.985 . S
H1504 N1501 0.984 . S
H1505 N1501 0.985 . S
H1506 N1500 0.984 . S
H1507 N1500 0.984 . S
H1508 N1496 0.984 . S
H1509 N1496 0.985 . S
C1510 C1511 1.363 . S
C1510 C1516 1.379 . S
C1510 N1518 1.356 . S
C1511 C1510 1.363 . S
C1511 C1517 1.363 . S
C1512 C1513 1.363 . S
C1512 C1517 1.379 . S
C1512 N1519 1.356 . S
C1513 C1512 1.363 . S
C1513 C1516 1.363 . S
N1514 C1516 1.356 . S
N1514 H1526 0.984 . S
N1514 H1527 0.985 . S
N1515 C1517 1.356 . S
N1515 H1520 0.984 . S
N1515 H1521 0.985 . S
C1516 C1510 1.379 . S
C1516 C1513 1.363 . S
C1516 N1514 1.356 . S
C1517 C1511 1.363 . S
C1517 C1512 1.379 . S
C1517 N1515 1.356 . S
N1518 C1510 1.356 . S
N1518 H1524 0.984 . S
N1518 H1525 0.984 . S
N1519 C1512 1.356 . S
N1519 H1522 0.984 . S
N1519 H1523 0.985 . S
H1520 N1515 0.984 . S
H1521 N1515 0.985 . S
H1522 N1519 0.984 . S
H1523 N1519 0.985 . S
H1524 N1518 0.984 . S
H1525 N1518 0.984 . S
H1526 N1514 0.984 . S
H1527 N1514 0.985 . S
C1528 C1529 1.363 . S
C1528 C1534 1.379 . S
C1528 N1536 1.356 . S
C1529 C1528 1.363 . S
C1529 C1535 1.363 . S
C1530 C1531 1.363 . S
C1530 C1535 1.379 . S
C1530 N1537 1.356 . S
C1531 C1530 1.363 . S
C1531 C1534 1.363 . S
N1532 C1534 1.356 . S
N1532 H1544 0.984 . S
N1532 H1545 0.985 . S
N1533 C1535 1.356 . S
N1533 H1538 0.984 . S
N1533 H1539 0.985 . S
C1534 C1528 1.379 . S
C1534 C1531 1.363 . S
C1534 N1532 1.356 . S
C1535 C1529 1.363 . S
C1535 C1530 1.379 . S
C1535 N1533 1.356 . S
N1536 C1528 1.356 . S
N1536 H1542 0.984 . S
N1536 H1543 0.984 . S
N1537 C1530 1.356 . S
N1537 H1540 0.984 . S
N1537 H1541 0.985 . S
H1538 N1533 0.984 . S
H1539 N1533 0.985 . S
H1540 N1537 0.984 . S
H1541 N1537 0.985 . S
H1542 N1536 0.984 . S
H1543 N1536 0.984 . S
H1544 N1532 0.984 . S
H1545 N1532 0.985 . S
C1546 C1547 1.363 . S
C1546 C1552 1.379 . S
C1546 N1554 1.356 . S
C1547 C1546 1.363 . S
C1547 C1553 1.363 . S
C1548 C1549 1.363 . S
C1548 C1553 1.379 . S
C1548 N1555 1.356 . S
C1549 C1548 1.363 . S
C1549 C1552 1.363 . S
N1550 C1552 1.356 . S
N1550 H1562 0.984 . S
N1550 H1563 0.985 . S
N1551 C1553 1.356 . S
N1551 H1556 0.984 . S
N1551 H1557 0.985 . S
C1552 C1546 1.379 . S
C1552 C1549 1.363 . S
C1552 N1550 1.356 . S
C1553 C1547 1.363 . S
C1553 C1548 1.379 . S
C1553 N1551 1.356 . S
N1554 C1546 1.356 . S
N1554 H1560 0.984 . S
N1554 H1561 0.984 . S
N1555 C1548 1.356 . S
N1555 H1558 0.984 . S
N1555 H1559 0.985 . S
H1556 N1551 0.984 . S
H1557 N1551 0.985 . S
H1558 N1555 0.984 . S
H1559 N1555 0.985 . S
H1560 N1554 0.984 . S
H1561 N1554 0.984 . S
H1562 N1550 0.984 . S
H1563 N1550 0.985 . S
C1564 C1565 1.363 . S
C1564 C1570 1.379 . S
C1564 N1572 1.356 1_554 S
C1565 C1564 1.363 . S
C1565 C1571 1.363 . S
C1566 C1567 1.363 . S
C1566 C1571 1.379 . S
C1566 N1573 1.356 . S
C1567 C1566 1.363 . S
C1567 C1570 1.363 . S
N1568 C1570 1.356 . S
N1568 H1580 0.984 . S
N1568 H1581 0.985 . S
N1569 C1571 1.356 . S
N1569 H1574 0.984 . S
N1569 H1575 0.985 . S
C1570 C1564 1.379 . S
C1570 C1567 1.363 . S
C1570 N1568 1.356 . S
C1571 C1565 1.363 . S
C1571 C1566 1.379 . S
C1571 N1569 1.356 . S
N1572 C1564 1.356 1_556 S
N1572 H1578 0.984 . S
N1572 H1579 0.984 . S
N1573 C1566 1.356 . S
N1573 H1576 0.984 . S
N1573 H1577 0.985 . S
H1574 N1569 0.984 . S
H1575 N1569 0.985 . S
H1576 N1573 0.984 . S
H1577 N1573 0.985 . S
H1578 N1572 0.984 . S
H1579 N1572 0.984 . S
H1580 N1568 0.984 . S
H1581 N1568 0.985 . S
C1582 C1583 1.363 . S
C1582 C1588 1.379 . S
C1582 N1590 1.356 . S
C1583 C1582 1.363 . S
C1583 C1589 1.363 . S
C1584 C1585 1.363 . S
C1584 C1589 1.379 . S
C1584 N1591 1.356 . S
C1585 C1584 1.363 . S
C1585 C1588 1.363 . S
N1586 C1588 1.356 . S
N1586 H1598 0.984 . S
N1586 H1599 0.985 . S
N1587 C1589 1.356 . S
N1587 H1592 0.984 . S
N1587 H1593 0.985 . S
C1588 C1582 1.379 . S
C1588 C1585 1.363 . S
C1588 N1586 1.356 . S
C1589 C1583 1.363 . S
C1589 C1584 1.379 . S
C1589 N1587 1.356 . S
N1590 C1582 1.356 . S
N1590 H1596 0.984 . S
N1590 H1597 0.984 . S
N1591 C1584 1.356 . S
N1591 H1594 0.984 . S
N1591 H1595 0.985 1_556 S
H1592 N1587 0.984 . S
H1593 N1587 0.985 . S
H1594 N1591 0.984 . S
H1595 N1591 0.985 1_554 S
H1596 N1590 0.984 . S
H1597 N1590 0.984 . S
H1598 N1586 0.984 . S
H1599 N1586 0.985 . S
C449 C89 1.497 . S
C451 C5 1.497 . S
C467 C19 1.497 . S
C469 C103 1.497 . S
C485 C61 1.497 . S
C487 C33 1.497 . S
C503 C47 1.497 . S
C505 C75 1.497 . S
C521 C201 1.497 . S
C523 C117 1.497 . S
C539 C215 1.497 . S
C541 C131 1.497 . S
C557 C145 1.497 . S
C559 C173 1.497 . S
C575 C159 1.497 . S
C577 C187 1.497 . S
C593 C229 1.497 . S
C595 C313 1.497 . S
C611 C243 1.497 . S
C613 C327 1.497 . S
C629 C285 1.497 . S
C631 C257 1.497 . S
C647 C299 1.497 . S
C649 C271 1.497 . S
C665 C341 1.497 . S
C667 C425 1.497 . S
C683 C439 1.497 . S
C685 C355 1.497 . S
C701 C397 1.497 . S
C703 C369 1.497 . S
C719 C383 1.497 . S
C721 C411 1.497 . S
C737 C0 1.308 . S
C739 C429 1.342 . S
C755 C219 1.342 . S
C757 C14 1.308 . S
C773 C28 1.309 . S
C775 C401 1.342 . S
C791 C42 1.308 . S
C793 C191 1.342 . S
C809 C373 1.342 . S
C811 C56 1.309 . S
C827 C163 1.342 . S
C829 C70 1.309 . S
C845 C84 1.308 . S
C847 C345 1.342 . S
C863 C135 1.342 . S
C865 C98 1.309 . S
C881 C112 1.308 . S
C883 C317 1.342 . S
C899 C107 1.342 . S
C901 C126 1.308 . S
C917 C140 1.309 . S
C919 C289 1.342 . S
C935 C154 1.308 . S
C937 C79 1.342 . S
C953 C261 1.342 . S
C955 C168 1.309 . S
C971 C182 1.309 . S
C973 C51 1.342 . S
C989 C196 1.308 . S
C991 C233 1.342 . S
C1007 C23 1.342 . S
C1009 C210 1.309 . S
C1025 C224 1.309 . S
C1027 C205 1.342 . S
C1043 C238 1.308 . S
C1045 C443 1.342 . S
C1061 C177 1.342 . S
C1063 C252 1.308 . S
C1079 C266 1.308 . S
C1081 C415 1.342 . S
C1097 C149 1.342 . S
C1099 C280 1.308 . S
C1115 C387 1.342 . S
C1117 C294 1.309 . S
C1133 C121 1.342 . S
C1135 C308 1.309 . S
C1151 C359 1.342 . S
C1153 C322 1.309 . S
C1169 C336 1.309 . S
C1171 C93 1.342 . S
C1187 C331 1.342 . S
C1189 C350 1.308 . S
C1205 C65 1.342 . S
C1207 C364 1.308 . S
C1223 C378 1.308 . S
C1225 C303 1.342 . S
C1241 C392 1.308 . S
C1243 C37 1.342 . S
C1259 C406 1.309 . S
C1261 C275 1.342 . S
C1277 C9 1.342 . S
C1279 C420 1.309 . S
C1295 C434 1.309 . S
C1297 C247 1.342 . S
C1313 C11 1.443 . S
C1315 C305 1.443 . S
C1331 C319 1.443 . S
C1333 C25 1.443 . S
C1349 C39 1.443 . S
C1351 C333 1.443 . S
C1367 C291 1.443 . S
C1369 C53 1.443 . S
C1385 C277 1.443 . S
C1387 C67 1.443 . S
C1403 C235 1.443 . S
C1405 C81 1.443 . S
C1421 C249 1.443 . S
C1423 C95 1.443 . S
C1439 C263 1.443 . S
C1441 C109 1.443 . S
C1457 C123 1.443 . S
C1459 C417 1.443 . S
C1475 C431 1.443 . S
C1477 C137 1.443 . S
C1493 C445 1.443 . S
C1495 C151 1.443 . S
C1511 C403 1.443 . S
C1513 C165 1.443 . S
C1529 C389 1.443 . S
C1531 C179 1.443 . S
C1547 C347 1.443 . S
C1549 C193 1.443 . S
C1565 C207 1.443 . S
C1567 C361 1.443 . S
C1583 C221 1.443 . S
C1585 C375 1.443 . S
