# Generated by pormake.
# Topology ecs, (8)-cn, num edge types: 1
# Building blocks:
#     Node 0, Type 0, BuildingBlock: TAGTUT_clean_sbu_1, # of connection points: 8
#     Node 1, Type 0, BuildingBlock: TAGTUT_clean_sbu_1, # of connection points: 8
#     Node 2, Type 0, BuildingBlock: TAGTUT_clean_sbu_1, # of connection points: 8
#     Node 3, Type 0, BuildingBlock: TAGTUT_clean_sbu_1, # of connection points: 8
#     Node 4, Type 0, BuildingBlock: TAGTUT_clean_sbu_1, # of connection points: 8
#     Node 5, Type 0, BuildingBlock: TAGTUT_clean_sbu_1, # of connection points: 8
#     Node 6, Type 0, BuildingBlock: TAGTUT_clean_sbu_1, # of connection points: 8
#     Node 7, Type 0, BuildingBlock: TAGTUT_clean_sbu_1, # of connection points: 8
#     Node 8, Type 0, BuildingBlock: TAGTUT_clean_sbu_1, # of connection points: 8
#     Node 9, Type 0, BuildingBlock: TAGTUT_clean_sbu_1, # of connection points: 8
#     Node 10, Type 0, BuildingBlock: TAGTUT_clean_sbu_1, # of connection points: 8
#     Node 11, Type 0, BuildingBlock: TAGTUT_clean_sbu_1, # of connection points: 8
#     Edge 12, Type (0, 0), BuildingBlock: UVAHIK_clean_linker_0, # of connection points: 2
#     Edge 13, Type (0, 0), BuildingBlock: UVAHIK_clean_linker_0, # of connection points: 2
#     Edge 14, Type (0, 0), BuildingBlock: UVAHIK_clean_linker_0, # of connection points: 2
#     Edge 15, Type (0, 0), BuildingBlock: UVAHIK_clean_linker_0, # of connection points: 2
#     Edge 16, Type (0, 0), BuildingBlock: UVAHIK_clean_linker_0, # of connection points: 2
#     Edge 17, Type (0, 0), BuildingBlock: UVAHIK_clean_linker_0, # of connection points: 2
#     Edge 18, Type (0, 0), BuildingBlock: UVAHIK_clean_linker_0, # of connection points: 2
#     Edge 19, Type (0, 0), BuildingBlock: UVAHIK_clean_linker_0, # of connection points: 2
#     Edge 20, Type (0, 0), BuildingBlock: UVAHIK_clean_linker_0, # of connection points: 2
#     Edge 21, Type (0, 0), BuildingBlock: UVAHIK_clean_linker_0, # of connection points: 2
#     Edge 22, Type (0, 0), BuildingBlock: UVAHIK_clean_linker_0, # of connection points: 2
#     Edge 23, Type (0, 0), BuildingBlock: UVAHIK_clean_linker_0, # of connection points: 2
#     Edge 24, Type (0, 0), BuildingBlock: UVAHIK_clean_linker_0, # of connection points: 2
#     Edge 25, Type (0, 0), BuildingBlock: UVAHIK_clean_linker_0, # of connection points: 2
#     Edge 26, Type (0, 0), BuildingBlock: UVAHIK_clean_linker_0, # of connection points: 2
#     Edge 27, Type (0, 0), BuildingBlock: UVAHIK_clean_linker_0, # of connection points: 2
#     Edge 28, Type (0, 0), BuildingBlock: UVAHIK_clean_linker_0, # of connection points: 2
#     Edge 29, Type (0, 0), BuildingBlock: UVAHIK_clean_linker_0, # of connection points: 2
#     Edge 30, Type (0, 0), BuildingBlock: UVAHIK_clean_linker_0, # of connection points: 2
#     Edge 31, Type (0, 0), BuildingBlock: UVAHIK_clean_linker_0, # of connection points: 2
#     Edge 32, Type (0, 0), BuildingBlock: UVAHIK_clean_linker_0, # of connection points: 2
#     Edge 33, Type (0, 0), BuildingBlock: UVAHIK_clean_linker_0, # of connection points: 2
#     Edge 34, Type (0, 0), BuildingBlock: UVAHIK_clean_linker_0, # of connection points: 2
#     Edge 35, Type (0, 0), BuildingBlock: UVAHIK_clean_linker_0, # of connection points: 2
#     Edge 36, Type (0, 0), BuildingBlock: UVAHIK_clean_linker_0, # of connection points: 2
#     Edge 37, Type (0, 0), BuildingBlock: UVAHIK_clean_linker_0, # of connection points: 2
#     Edge 38, Type (0, 0), BuildingBlock: UVAHIK_clean_linker_0, # of connection points: 2
#     Edge 39, Type (0, 0), BuildingBlock: UVAHIK_clean_linker_0, # of connection points: 2
#     Edge 40, Type (0, 0), BuildingBlock: UVAHIK_clean_linker_0, # of connection points: 2
#     Edge 41, Type (0, 0), BuildingBlock: UVAHIK_clean_linker_0, # of connection points: 2
#     Edge 42, Type (0, 0), BuildingBlock: UVAHIK_clean_linker_0, # of connection points: 2
#     Edge 43, Type (0, 0), BuildingBlock: UVAHIK_clean_linker_0, # of connection points: 2
#     Edge 44, Type (0, 0), BuildingBlock: UVAHIK_clean_linker_0, # of connection points: 2
#     Edge 45, Type (0, 0), BuildingBlock: UVAHIK_clean_linker_0, # of connection points: 2
#     Edge 46, Type (0, 0), BuildingBlock: UVAHIK_clean_linker_0, # of connection points: 2
#     Edge 47, Type (0, 0), BuildingBlock: UVAHIK_clean_linker_0, # of connection points: 2
#     Edge 48, Type (0, 0), BuildingBlock: UVAHIK_clean_linker_0, # of connection points: 2
#     Edge 49, Type (0, 0), BuildingBlock: UVAHIK_clean_linker_0, # of connection points: 2
#     Edge 50, Type (0, 0), BuildingBlock: UVAHIK_clean_linker_0, # of connection points: 2
#     Edge 51, Type (0, 0), BuildingBlock: UVAHIK_clean_linker_0, # of connection points: 2
#     Edge 52, Type (0, 0), BuildingBlock: UVAHIK_clean_linker_0, # of connection points: 2
#     Edge 53, Type (0, 0), BuildingBlock: UVAHIK_clean_linker_0, # of connection points: 2
#     Edge 54, Type (0, 0), BuildingBlock: UVAHIK_clean_linker_0, # of connection points: 2
#     Edge 55, Type (0, 0), BuildingBlock: UVAHIK_clean_linker_0, # of connection points: 2
#     Edge 56, Type (0, 0), BuildingBlock: UVAHIK_clean_linker_0, # of connection points: 2
#     Edge 57, Type (0, 0), BuildingBlock: UVAHIK_clean_linker_0, # of connection points: 2
#     Edge 58, Type (0, 0), BuildingBlock: UVAHIK_clean_linker_0, # of connection points: 2
#     Edge 59, Type (0, 0), BuildingBlock: UVAHIK_clean_linker_0, # of connection points: 2
# Relax obj value: 0.341
# Max RMSD: 0.278
# Mean RMSD: 0.278
data_MOF--net-ecs--node1-TAGTUT_clean_sbu_1--edge1-UVAHIK_clean_linker_0
_symmetry_space_group_name_H-M    P1
_symmetry_Int_Tables_number       1
_symmetry_cell_setting            triclinic
loop_
_symmetry_equiv_pos_as_xyz
'x, y, z'
_cell_length_a     66.294503
_cell_length_b     66.30573
_cell_length_c     33.673432
_cell_angle_alpha  89.997187
_cell_angle_beta   89.988554
_cell_angle_gamma 120.00462
loop_
_atom_site_label
_atom_site_type_symbol
_atom_site_fract_x
_atom_site_fract_y
_atom_site_fract_z
_atom_type_partial_charge
C0 C 0.46585 0.39533 0.09979 0.0
C1 C 0.51356 0.37329 0.06973 0.0
C2 C 0.44494 0.28587 0.10011 0.0
Mg3 Mg 0.49576 0.38185 0.14989 0.0
O4 O 0.4693 0.3525 0.14783 0.0
Mg5 Mg 0.45683 0.34006 0.09306 0.0
Mg6 Mg 0.47272 0.32611 0.16756 0.0
O7 O 0.47688 0.30002 0.18642 0.0
Mg8 Mg 0.4543 0.26864 0.18293 0.0
Mg9 Mg 0.49335 0.31208 0.23807 0.0
C10 C 0.50155 0.3645 0.23609 0.0
C11 C 0.52888 0.34513 0.16993 0.0
O12 O 0.45657 0.3751 0.08319 0.0
O13 O 0.48002 0.40101 0.12906 0.0
O14 O 0.49274 0.35736 0.06167 0.0
O15 O 0.51856 0.38426 0.10257 0.0
O16 O 0.50675 0.38086 0.21063 0.0
O17 O 0.48616 0.34313 0.22893 0.0
C18 C 0.41825 0.31278 0.16284 0.0
O19 O 0.43347 0.31065 0.18365 0.0
O20 O 0.42316 0.32279 0.12867 0.0
O21 O 0.50168 0.28187 0.23565 0.0
O22 O 0.47725 0.25502 0.19204 0.0
O23 O 0.45958 0.28815 0.27383 0.0
C24 C 0.49485 0.2631 0.2154 0.0
O25 O 0.43288 0.26073 0.23436 0.0
O26 O 0.44094 0.26938 0.1245 0.0
C27 C 0.43945 0.27014 0.26848 0.0
O28 O 0.45925 0.30743 0.1081 0.0
O29 O 0.51191 0.3444 0.15042 0.0
O30 O 0.52578 0.3343 0.20266 0.0
C31 C 0.60741 0.06954 0.10087 0.0
C32 C 0.62736 0.13913 0.07358 0.0
C33 C 0.71584 0.15995 0.10059 0.0
Mg34 Mg 0.62 0.11212 0.1528 0.0
O35 O 0.64978 0.11626 0.14924 0.0
Mg36 Mg 0.66201 0.11681 0.09412 0.0
Mg37 Mg 0.67584 0.14631 0.16903 0.0
O38 O 0.70166 0.17672 0.18794 0.0
Mg39 Mg 0.73323 0.18636 0.18354 0.0
Mg40 Mg 0.68972 0.18053 0.2401 0.0
C41 C 0.63746 0.13349 0.24011 0.0
C42 C 0.65596 0.1827 0.173 0.0
O43 O 0.62748 0.08109 0.08394 0.0
O44 O 0.60161 0.07743 0.13083 0.0
O45 O 0.6436 0.13484 0.06459 0.0
O46 O 0.61663 0.13269 0.10667 0.0
O47 O 0.62095 0.12184 0.21511 0.0
O48 O 0.65911 0.14197 0.23099 0.0
C49 C 0.69023 0.10597 0.16276 0.0
O50 O 0.69209 0.1231 0.18387 0.0
O51 O 0.68013 0.10086 0.12865 0.0
O52 O 0.7193 0.21934 0.23788 0.0
O53 O 0.7461 0.22276 0.19322 0.0
O54 O 0.7144 0.17119 0.27468 0.0
C55 C 0.73781 0.23176 0.21727 0.0
O56 O 0.74196 0.17299 0.23423 0.0
O57 O 0.7324 0.17263 0.12474 0.0
C58 C 0.73268 0.16965 0.26856 0.0
O59 O 0.69425 0.15218 0.10914 0.0
O60 O 0.65682 0.16667 0.15301 0.0
O61 O 0.66688 0.19033 0.20566 0.0
C62 C 0.92914 0.5326 0.09684 0.0
C63 C 0.85864 0.48578 0.0706 0.0
C64 C 0.84205 0.55599 0.09766 0.0
Mg65 Mg 0.88628 0.50448 0.14934 0.0
O66 O 0.88391 0.53118 0.14604 0.0
Mg67 Mg 0.88378 0.54305 0.09094 0.0
Mg68 Mg 0.85442 0.52856 0.16596 0.0
O69 O 0.82454 0.5252 0.18515 0.0
Mg70 Mg 0.81588 0.54786 0.18078 0.0
Mg71 Mg 0.82008 0.50913 0.2372 0.0
C72 C 0.86596 0.50202 0.23697 0.0
C73 C 0.81649 0.47268 0.16995 0.0
O74 O 0.9185 0.54219 0.08022 0.0
O75 O 0.92071 0.51894 0.12675 0.0
O76 O 0.86417 0.50667 0.06156 0.0
O77 O 0.86456 0.48093 0.10369 0.0
O78 O 0.87687 0.49633 0.21181 0.0
O79 O 0.8582 0.5158 0.22793 0.0
C80 C 0.89646 0.58253 0.15972 0.0
O81 O 0.87882 0.56781 0.18057 0.0
O82 O 0.90127 0.57712 0.12569 0.0
O83 O 0.78167 0.50115 0.2349 0.0
O84 O 0.77927 0.52512 0.19024 0.0
O85 O 0.83034 0.54328 0.27199 0.0
C86 C 0.76975 0.50782 0.21422 0.0
O87 O 0.82953 0.56967 0.2318 0.0
O88 O 0.82981 0.56045 0.1219 0.0
C89 C 0.83245 0.56337 0.26611 0.0
O90 O 0.84918 0.54165 0.10623 0.0
O91 O 0.83281 0.48926 0.1499 0.0
O92 O 0.80923 0.47632 0.20271 0.0
C93 C 0.39704 0.46979 0.39293 0.0
C94 C 0.37355 0.51651 0.42106 0.0
C95 C 0.28665 0.44675 0.39293 0.0
Mg96 Mg 0.38232 0.49829 0.3415 0.0
O97 O 0.35336 0.47134 0.3444 0.0
Mg98 Mg 0.34129 0.45941 0.39955 0.0
Mg99 Mg 0.32648 0.47377 0.32426 0.0
O100 O 0.29997 0.47708 0.30491 0.0
Mg101 Mg 0.26862 0.45459 0.30959 0.0
Mg102 Mg 0.31164 0.49287 0.25265 0.0
C103 C 0.36435 0.50211 0.25463 0.0
C104 C 0.3445 0.5296 0.31959 0.0
O105 O 0.37683 0.46019 0.40968 0.0
O106 O 0.40232 0.48364 0.36326 0.0
O107 O 0.35805 0.49563 0.42984 0.0
O108 O 0.38427 0.52139 0.38795 0.0
O109 O 0.38087 0.50819 0.2801 0.0
O110 O 0.34314 0.4865 0.26237 0.0
C111 C 0.31448 0.41981 0.33092 0.0
O112 O 0.3116 0.43446 0.30981 0.0
O113 O 0.3247 0.42537 0.3649 0.0
O114 O 0.28122 0.5008 0.25429 0.0
O115 O 0.25487 0.47738 0.29946 0.0
O116 O 0.28781 0.45844 0.21847 0.0
C117 C 0.26269 0.49445 0.27498 0.0
O118 O 0.26054 0.43244 0.25908 0.0
O119 O 0.26994 0.4423 0.36874 0.0
C120 C 0.26983 0.4384 0.22475 0.0
O121 O 0.30815 0.46089 0.38415 0.0
O122 O 0.34413 0.51306 0.33991 0.0
O123 O 0.33363 0.52589 0.28677 0.0
C124 C 0.53617 0.9313 0.40099 0.0
C125 C 0.48839 0.86114 0.4295 0.0
C126 C 0.55742 0.84284 0.39926 0.0
Mg127 Mg 0.5067 0.88823 0.35004 0.0
O128 O 0.53313 0.88537 0.35229 0.0
Mg129 Mg 0.54534 0.88513 0.40714 0.0
Mg130 Mg 0.52991 0.85575 0.33198 0.0
O131 O 0.52598 0.82571 0.31243 0.0
Mg132 Mg 0.54855 0.81681 0.31565 0.0
Mg133 Mg 0.50981 0.82187 0.26065 0.0
C134 C 0.50121 0.86557 0.26374 0.0
C135 C 0.47379 0.81852 0.32839 0.0
O136 O 0.5454 0.9203 0.41758 0.0
O137 O 0.52215 0.92294 0.37151 0.0
O138 O 0.50917 0.86615 0.4383 0.0
O139 O 0.48371 0.86724 0.3965 0.0
O140 O 0.49578 0.87646 0.28934 0.0
O141 O 0.51682 0.85986 0.27062 0.0
C142 C 0.58419 0.89716 0.3373 0.0
O143 O 0.56915 0.87966 0.31659 0.0
O144 O 0.57911 0.90206 0.37153 0.0
O145 O 0.50163 0.78348 0.26173 0.0
O146 O 0.52544 0.78026 0.30566 0.0
O147 O 0.54366 0.83213 0.22549 0.0
C148 C 0.5081 0.77116 0.28169 0.0
O149 O 0.57019 0.8306 0.26423 0.0
O150 O 0.56155 0.83056 0.37456 0.0
C151 C 0.56368 0.83396 0.23041 0.0
O152 O 0.54315 0.85017 0.3914 0.0
O153 O 0.4906 0.83462 0.34842 0.0
O154 O 0.47716 0.81115 0.29551 0.0
C155 C 0.07402 0.60531 0.3973 0.0
C156 C 0.14444 0.63003 0.42604 0.0
C157 C 0.16068 0.71615 0.39622 0.0
Mg158 Mg 0.11751 0.62042 0.34638 0.0
O159 O 0.11908 0.64918 0.34832 0.0
Mg160 Mg 0.11894 0.66145 0.40325 0.0
Mg161 Mg 0.14844 0.6761 0.32814 0.0
O162 O 0.17825 0.70268 0.3089 0.0
Mg163 Mg 0.18681 0.73397 0.31306 0.0
Mg164 Mg 0.18283 0.69097 0.25704 0.0
C165 C 0.13969 0.63807 0.25964 0.0
C166 C 0.18662 0.65846 0.32473 0.0
O167 O 0.0843 0.62564 0.41368 0.0
O168 O 0.08288 0.60009 0.36798 0.0
O169 O 0.13868 0.64529 0.43438 0.0
O170 O 0.1388 0.61913 0.39312 0.0
O171 O 0.12936 0.62175 0.28549 0.0
O172 O 0.14495 0.65927 0.26646 0.0
C173 C 0.10629 0.6879 0.33376 0.0
O174 O 0.12381 0.69062 0.31279 0.0
O175 O 0.10148 0.67781 0.36787 0.0
O176 O 0.22114 0.72161 0.25911 0.0
O177 O 0.22345 0.74804 0.30352 0.0
O178 O 0.17223 0.71455 0.222 0.0
C179 C 0.23302 0.74027 0.27963 0.0
O180 O 0.17289 0.74175 0.26202 0.0
O181 O 0.17295 0.7328 0.37192 0.0
C182 C 0.16994 0.73243 0.22779 0.0
O183 O 0.15348 0.69465 0.38772 0.0
O184 O 0.17027 0.65872 0.3447 0.0
O185 O 0.19387 0.66929 0.29189 0.0
C186 C 0.50919 0.73952 0.78 0.0
C187 C 0.56611 0.73412 0.72926 0.0
C188 C 0.50558 0.63868 0.75421 0.0
Mg189 Mg 0.54934 0.73387 0.81427 0.0
O190 O 0.52721 0.70247 0.80837 0.0
Mg191 Mg 0.51179 0.69133 0.75574 0.0
Mg192 Mg 0.53074 0.67596 0.82701 0.0
O193 O 0.53356 0.64912 0.84638 0.0
Mg194 Mg 0.50735 0.61979 0.84134 0.0
Mg195 Mg 0.54445 0.66046 0.90214 0.0
C196 C 0.55652 0.71485 0.89721 0.0
C197 C 0.5849 0.68879 0.83538 0.0
O198 O 0.50321 0.72133 0.75857 0.0
O199 O 0.52613 0.74722 0.80473 0.0
O200 O 0.54628 0.71598 0.72247 0.0
O201 O 0.57181 0.74305 0.76388 0.0
O202 O 0.56116 0.73185 0.87354 0.0
O203 O 0.54255 0.69346 0.88762 0.0
C204 C 0.47483 0.65746 0.82143 0.0
O205 O 0.4913 0.65769 0.84172 0.0
O206 O 0.47865 0.66866 0.78897 0.0
O207 O 0.54448 0.62535 0.9117 0.0
O208 O 0.5222 0.60016 0.86407 0.0
O209 O 0.50749 0.64229 0.93015 0.0
C210 C 0.53553 0.60534 0.89442 0.0
O211 O 0.48284 0.61672 0.88616 0.0
O212 O 0.49991 0.62174 0.77864 0.0
C213 C 0.48689 0.62673 0.9199 0.0
O214 O 0.5189 0.66012 0.76439 0.0
O215 O 0.57027 0.69143 0.81375 0.0
O216 O 0.57913 0.67829 0.86914 0.0
C217 C 0.26208 0.76827 0.78383 0.0
C218 C 0.27004 0.83085 0.72978 0.0
C219 C 0.36418 0.86159 0.76118 0.0
Mg220 Mg 0.26861 0.81488 0.81557 0.0
O221 O 0.29983 0.82309 0.81179 0.0
Mg222 Mg 0.31144 0.81814 0.76008 0.0
Mg223 Mg 0.32639 0.85313 0.83027 0.0
O224 O 0.35329 0.88272 0.84947 0.0
Mg225 Mg 0.38227 0.88473 0.84706 0.0
Mg226 Mg 0.3413 0.88322 0.9044 0.0
C227 C 0.28664 0.8417 0.89813 0.0
C228 C 0.31416 0.89504 0.83516 0.0
O229 O 0.28077 0.77984 0.76319 0.0
O230 O 0.25438 0.77817 0.80714 0.0
O231 O 0.28783 0.82838 0.72441 0.0
O232 O 0.26077 0.82834 0.76396 0.0
O233 O 0.26999 0.82942 0.87385 0.0
O234 O 0.3081 0.84845 0.89009 0.0
C235 C 0.3444 0.81517 0.82781 0.0
O236 O 0.34415 0.83167 0.84729 0.0
O237 O 0.33334 0.8075 0.79527 0.0
O238 O 0.37689 0.91811 0.91361 0.0
O239 O 0.40229 0.91963 0.86748 0.0
O240 O 0.35806 0.86408 0.93548 0.0
C241 C 0.39706 0.92854 0.8967 0.0
O242 O 0.38432 0.86407 0.89429 0.0
O243 O 0.38075 0.87251 0.78637 0.0
C244 C 0.37351 0.85855 0.92731 0.0
O245 O 0.34299 0.85615 0.7687 0.0
O246 O 0.31154 0.87749 0.81438 0.0
O247 O 0.32442 0.9001 0.86911 0.0
C248 C 0.2327 0.49617 0.78218 0.0
C249 C 0.17147 0.43999 0.72808 0.0
C250 C 0.13412 0.49756 0.75807 0.0
Mg251 Mg 0.18711 0.45471 0.81397 0.0
O252 O 0.17741 0.47664 0.8107 0.0
Mg253 Mg 0.18156 0.4931 0.75917 0.0
Mg254 Mg 0.1465 0.47124 0.8286 0.0
O255 O 0.11585 0.46623 0.84709 0.0
Mg256 Mg 0.11097 0.49141 0.84421 0.0
Mg257 Mg 0.11542 0.45336 0.90152 0.0
C258 C 0.15939 0.44375 0.89598 0.0
C259 C 0.10672 0.41629 0.83031 0.0
O260 O 0.22034 0.50251 0.76199 0.0
O261 O 0.22361 0.47852 0.80546 0.0
O262 O 0.17293 0.45984 0.72289 0.0
O263 O 0.17442 0.43349 0.76217 0.0
O264 O 0.17262 0.44063 0.8719 0.0
O265 O 0.15146 0.45752 0.88804 0.0
C266 C 0.18243 0.52761 0.82796 0.0
O267 O 0.16619 0.51031 0.84692 0.0
O268 O 0.19059 0.52499 0.79531 0.0
O269 O 0.0792 0.45141 0.91056 0.0
O270 O 0.0759 0.47418 0.86437 0.0
O271 O 0.13248 0.48926 0.93312 0.0
C272 C 0.06769 0.45997 0.89361 0.0
O273 O 0.13053 0.51453 0.89179 0.0
O274 O 0.12167 0.50157 0.78264 0.0
C275 C 0.13661 0.50984 0.92487 0.0
O276 O 0.14287 0.48465 0.76732 0.0
O277 O 0.12421 0.43238 0.81103 0.0
O278 O 0.10052 0.41993 0.86458 0.0
C279 C 0.73936 0.50689 0.71308 0.0
C280 C 0.73304 0.56283 0.76548 0.0
C281 C 0.63832 0.50031 0.73497 0.0
Mg282 Mg 0.73386 0.54732 0.68003 0.0
O283 O 0.70243 0.52498 0.68441 0.0
Mg284 Mg 0.69071 0.50886 0.73644 0.0
Mg285 Mg 0.67621 0.52904 0.66591 0.0
O286 O 0.64962 0.53228 0.6466 0.0
Mg287 Mg 0.62036 0.5058 0.64919 0.0
Mg288 Mg 0.6616 0.54466 0.5916 0.0
C289 C 0.71599 0.55639 0.59743 0.0
C290 C 0.68905 0.58333 0.66144 0.0
O291 O 0.72083 0.50049 0.73382 0.0
O292 O 0.74732 0.52419 0.68907 0.0
O293 O 0.71491 0.54285 0.77136 0.0
O294 O 0.7423 0.56906 0.73118 0.0
O295 O 0.73261 0.56034 0.62151 0.0
O296 O 0.69444 0.54225 0.60585 0.0
C297 C 0.65721 0.4729 0.66924 0.0
O298 O 0.65782 0.48975 0.64946 0.0
O299 O 0.66826 0.47622 0.70178 0.0
O300 O 0.62643 0.5448 0.58263 0.0
O301 O 0.60087 0.5213 0.6289 0.0
O302 O 0.64412 0.5087 0.55999 0.0
C303 C 0.60631 0.53546 0.59965 0.0
O304 O 0.61791 0.48299 0.60195 0.0
O305 O 0.62182 0.49483 0.7097 0.0
C306 C 0.62841 0.48788 0.56864 0.0
O307 O 0.65958 0.51592 0.72769 0.0
O308 O 0.69172 0.56826 0.68165 0.0
O309 O 0.67879 0.57833 0.62747 0.0
C310 C 0.49255 0.23285 0.7187 0.0
C311 C 0.43716 0.16967 0.77044 0.0
C312 C 0.50111 0.1395 0.73891 0.0
Mg313 Mg 0.45253 0.18671 0.68526 0.0
O314 O 0.47527 0.17816 0.68929 0.0
Mg315 Mg 0.49153 0.18262 0.74117 0.0
Mg316 Mg 0.47186 0.14826 0.6702 0.0
O317 O 0.46933 0.11888 0.65032 0.0
Mg318 Mg 0.49628 0.11687 0.65259 0.0
Mg319 Mg 0.45685 0.11853 0.59548 0.0
C320 C 0.44409 0.16044 0.60215 0.0
C321 C 0.4179 0.10611 0.66521 0.0
O322 O 0.49928 0.22091 0.73917 0.0
O323 O 0.47519 0.22334 0.69483 0.0
O324 O 0.45736 0.17202 0.77623 0.0
O325 O 0.43081 0.17268 0.73624 0.0
O326 O 0.43979 0.17274 0.62649 0.0
O327 O 0.45846 0.15329 0.61043 0.0
C328 C 0.52774 0.18625 0.67336 0.0
O329 O 0.51106 0.16991 0.65351 0.0
O330 O 0.52425 0.19358 0.7062 0.0
O331 O 0.45756 0.08369 0.58586 0.0
O332 O 0.48133 0.08201 0.632 0.0
O333 O 0.49274 0.13777 0.56398 0.0
C334 C 0.46723 0.07318 0.60272 0.0
O335 O 0.51884 0.13751 0.60524 0.0
O336 O 0.50706 0.12902 0.71331 0.0
C337 C 0.51368 0.14314 0.57221 0.0
O338 O 0.48519 0.14475 0.73181 0.0
O339 O 0.4327 0.12381 0.68582 0.0
O340 O 0.42317 0.10129 0.63111 0.0
C341 C 0.76843 0.26195 0.71533 0.0
C342 C 0.83088 0.26882 0.76821 0.0
C343 C 0.86257 0.36311 0.73555 0.0
Mg344 Mg 0.81429 0.26715 0.68257 0.0
O345 O 0.82346 0.29863 0.68616 0.0
Mg346 Mg 0.81905 0.31075 0.73773 0.0
Mg347 Mg 0.85377 0.32478 0.66757 0.0
O348 O 0.88371 0.35124 0.64834 0.0
Mg349 Mg 0.8862 0.38041 0.64987 0.0
Mg350 Mg 0.88443 0.33875 0.59395 0.0
C351 C 0.84163 0.28443 0.60023 0.0
C352 C 0.89506 0.31177 0.66529 0.0
O353 O 0.78065 0.28058 0.73571 0.0
O354 O 0.77766 0.25379 0.69148 0.0
O355 O 0.82903 0.28698 0.77362 0.0
O356 O 0.82768 0.25924 0.73416 0.0
O357 O 0.82872 0.26794 0.62437 0.0
O358 O 0.84915 0.30604 0.60828 0.0
C359 C 0.81632 0.34332 0.66885 0.0
O360 O 0.83271 0.34275 0.64949 0.0
O361 O 0.80872 0.33265 0.70176 0.0
O362 O 0.9197 0.3741 0.58451 0.0
O363 O 0.92118 0.40001 0.62951 0.0
O364 O 0.86578 0.35572 0.56135 0.0
C365 C 0.93016 0.39444 0.60084 0.0
O366 O 0.86576 0.38215 0.60214 0.0
O367 O 0.8736 0.37951 0.71011 0.0
C368 C 0.86033 0.37128 0.56919 0.0
O369 O 0.85707 0.34187 0.72866 0.0
O370 O 0.87736 0.30965 0.68486 0.0
O371 O 0.90081 0.32166 0.63101 0.0
C372 C 0.50126 0.23 0.19805 0.0
C373 C 0.50971 0.25233 0.21436 0.0
C374 C 0.51637 0.22145 0.19072 0.0
C375 C 0.57706 0.24199 0.16667 0.0
H376 H 0.5643 0.18054 0.19843 0.0
C377 C 0.64681 0.21456 0.16655 0.0
C378 C 0.63988 0.19095 0.16176 0.0
C379 C 0.63033 0.2218 0.16624 0.0
C380 C 0.56793 0.19756 0.18844 0.0
H381 H 0.54049 0.28281 0.23719 0.0
H382 H 0.56681 0.26786 0.22411 0.0
H383 H 0.53643 0.19308 0.21443 0.0
H384 H 0.61027 0.15647 0.15351 0.0
H385 H 0.58175 0.16914 0.14928 0.0
H386 H 0.60839 0.24649 0.14026 0.0
C387 C 0.54852 0.25708 0.21691 0.0
C388 C 0.55202 0.20477 0.19799 0.0
C389 C 0.53338 0.26549 0.22479 0.0
C390 C 0.61634 0.17488 0.15469 0.0
C391 C 0.59987 0.18213 0.15373 0.0
C392 C 0.59284 0.23468 0.15662 0.0
C393 C 0.54023 0.23521 0.19904 0.0
C394 C 0.55663 0.22718 0.18776 0.0
C395 C 0.60652 0.20552 0.16115 0.0
C396 C 0.58866 0.21249 0.1679 0.0
H397 H 0.48312 0.21944 0.18971 0.0
H398 H 0.50957 0.20451 0.17695 0.0
H399 H 0.5808 0.25924 0.15782 0.0
H400 H 0.66483 0.22721 0.17295 0.0
H401 H 0.63614 0.23989 0.17261 0.0
C402 C 0.82305 0.43984 0.15377 0.0
C403 C 0.80754 0.44822 0.1589 0.0
C404 C 0.81495 0.41592 0.15428 0.0
C405 C 0.77108 0.36552 0.20548 0.0
H406 H 0.78785 0.32952 0.13627 0.0
C407 C 0.7342 0.2671 0.22776 0.0
C408 C 0.74789 0.25732 0.21664 0.0
C409 C 0.74188 0.29056 0.2204 0.0
C410 C 0.78334 0.33943 0.1563 0.0
H411 H 0.77141 0.43836 0.16772 0.0
H412 H 0.75721 0.39646 0.16913 0.0
H413 H 0.79948 0.36967 0.11881 0.0
H414 H 0.78102 0.26482 0.19139 0.0
H415 H 0.79492 0.30603 0.18022 0.0
H416 H 0.75581 0.33595 0.24387 0.0
C417 C 0.77557 0.40838 0.16399 0.0
C418 C 0.7898 0.36231 0.146 0.0
C419 C 0.78364 0.43227 0.16289 0.0
C420 C 0.77001 0.27182 0.20009 0.0
C421 C 0.77784 0.29539 0.19325 0.0
C422 C 0.76495 0.34283 0.21611 0.0
C423 C 0.79128 0.40007 0.16108 0.0
C424 C 0.78359 0.37548 0.1704 0.0
C425 C 0.7636 0.30492 0.2023 0.0
C426 C 0.77089 0.32942 0.1916 0.0
H427 H 0.84162 0.45166 0.15343 0.0
H428 H 0.82746 0.40997 0.15271 0.0
H429 H 0.76655 0.37552 0.22529 0.0
H430 H 0.71695 0.25638 0.24015 0.0
H431 H 0.73026 0.29713 0.22737 0.0
C432 C 0.73368 0.46931 0.22393 0.0
C433 C 0.74411 0.49294 0.21329 0.0
C434 C 0.71017 0.45407 0.21597 0.0
C435 C 0.65419 0.44991 0.19687 0.0
H436 H 0.64042 0.39425 0.13768 0.0
C437 C 0.56032 0.38502 0.15258 0.0
C438 C 0.55314 0.36146 0.15867 0.0
C439 C 0.58396 0.40174 0.15201 0.0
C440 C 0.6439 0.40959 0.15447 0.0
H441 H 0.73772 0.51938 0.18825 0.0
H442 H 0.69635 0.49275 0.17545 0.0
H443 H 0.6806 0.4221 0.15571 0.0
H444 H 0.56488 0.33675 0.16872 0.0
H445 H 0.60614 0.36586 0.16904 0.0
H446 H 0.61757 0.43713 0.19738 0.0
C447 C 0.70655 0.48606 0.18939 0.0
C448 C 0.6669 0.42551 0.16476 0.0
C449 C 0.73018 0.50127 0.19675 0.0
C450 C 0.57003 0.35478 0.16296 0.0
C451 C 0.59369 0.37151 0.16306 0.0
C452 C 0.63114 0.43382 0.18714 0.0
C453 C 0.69654 0.46223 0.19785 0.0
C454 C 0.67221 0.44569 0.18634 0.0
C455 C 0.60092 0.39531 0.15892 0.0
C456 C 0.62566 0.41335 0.16605 0.0
H457 H 0.74393 0.46228 0.23648 0.0
H458 H 0.70272 0.4358 0.22324 0.0
H459 H 0.65786 0.46531 0.21369 0.0
H460 H 0.54779 0.39086 0.15192 0.0
H461 H 0.58886 0.41984 0.14829 0.0
C462 C 0.17941 0.61888 0.34128 0.0
C463 C 0.19526 0.64264 0.33551 0.0
C464 C 0.18695 0.60263 0.34014 0.0
C465 C 0.22867 0.59434 0.28593 0.0
H466 H 0.21365 0.5427 0.35691 0.0
C467 C 0.26531 0.53281 0.26257 0.0
C468 C 0.25219 0.50957 0.27533 0.0
C469 C 0.25752 0.5485 0.26976 0.0
C470 C 0.21763 0.55678 0.33639 0.0
H471 H 0.23144 0.66823 0.32496 0.0
H472 H 0.24464 0.63975 0.3224 0.0
H473 H 0.2028 0.57172 0.37502 0.0
H474 H 0.21984 0.48421 0.30323 0.0
H475 H 0.20571 0.51136 0.31419 0.0
H476 H 0.24262 0.57922 0.24648 0.0
C477 C 0.22646 0.63377 0.32856 0.0
C478 C 0.21163 0.57349 0.34705 0.0
C479 C 0.21897 0.65003 0.33031 0.0
C480 C 0.23042 0.50204 0.29326 0.0
C481 C 0.22246 0.51769 0.29996 0.0
C482 C 0.23431 0.57748 0.27495 0.0
C483 C 0.21037 0.60988 0.33208 0.0
C484 C 0.21732 0.59252 0.32206 0.0
C485 C 0.23623 0.54128 0.28934 0.0
C486 C 0.22905 0.55856 0.30015 0.0
H487 H 0.16093 0.61252 0.34246 0.0
H488 H 0.17415 0.58426 0.34216 0.0
H489 H 0.23274 0.60859 0.26571 0.0
H490 H 0.28227 0.53928 0.24903 0.0
H491 H 0.26878 0.56655 0.26156 0.0
C492 C 0.38407 0.56197 0.33617 0.0
C493 C 0.36031 0.55405 0.33028 0.0
C494 C 0.40024 0.58578 0.33612 0.0
C495 C 0.40885 0.63684 0.28511 0.0
H496 H 0.45938 0.67212 0.35881 0.0
C497 C 0.46984 0.73552 0.26824 0.0
C498 C 0.49299 0.74554 0.28143 0.0
C499 C 0.45422 0.71189 0.27418 0.0
C500 C 0.44562 0.66241 0.33755 0.0
H501 H 0.33467 0.56461 0.32016 0.0
H502 H 0.36304 0.60637 0.31941 0.0
H503 H 0.4304 0.63175 0.37408 0.0
H504 H 0.51826 0.73831 0.30899 0.0
H505 H 0.49122 0.69678 0.31779 0.0
H506 H 0.42427 0.66683 0.24771 0.0
C507 C 0.36906 0.59414 0.32494 0.0
C508 C 0.42893 0.63941 0.34659 0.0
C509 C 0.35287 0.57035 0.32563 0.0
C510 C 0.5005 0.73113 0.2987 0.0
C511 C 0.48491 0.70737 0.30415 0.0
C512 C 0.42569 0.65964 0.27574 0.0
C513 C 0.39294 0.60199 0.32896 0.0
C514 C 0.4103 0.62655 0.3206 0.0
C515 C 0.46142 0.69758 0.29289 0.0
C516 C 0.44421 0.67283 0.30197 0.0
H517 H 0.39047 0.54987 0.3369 0.0
H518 H 0.41861 0.59141 0.33846 0.0
H519 H 0.39491 0.62705 0.26414 0.0
H520 H 0.46338 0.74613 0.25519 0.0
H521 H 0.43623 0.70513 0.26558 0.0
C522 C 0.27257 0.77334 0.29715 0.0
C523 C 0.25867 0.7511 0.28054 0.0
C524 C 0.29621 0.7818 0.30458 0.0
C525 C 0.33571 0.76084 0.32966 0.0
H526 H 0.38526 0.82178 0.29754 0.0
C527 C 0.4326 0.78698 0.33429 0.0
C528 C 0.44943 0.81054 0.33899 0.0
C529 C 0.40895 0.78006 0.33325 0.0
C530 C 0.37163 0.80491 0.30763 0.0
H531 H 0.25895 0.7207 0.25722 0.0
H532 H 0.30014 0.73545 0.27061 0.0
H533 H 0.34507 0.80974 0.28056 0.0
H534 H 0.45473 0.84528 0.34548 0.0
H535 H 0.4136 0.83319 0.34728 0.0
H536 H 0.36202 0.75601 0.35732 0.0
C537 C 0.29267 0.74626 0.27787 0.0
C538 C 0.34864 0.79798 0.29751 0.0
C539 C 0.26916 0.73795 0.26984 0.0
C540 C 0.44218 0.8269 0.34443 0.0
C541 C 0.41854 0.81998 0.34398 0.0
C542 C 0.35865 0.76788 0.34034 0.0
C543 C 0.30626 0.76801 0.29612 0.0
C544 C 0.33054 0.77575 0.30789 0.0
C545 C 0.40166 0.79661 0.33679 0.0
C546 C 0.37698 0.78989 0.32898 0.0
H547 H 0.265 0.78388 0.30569 0.0
H548 H 0.30637 0.79866 0.31861 0.0
H549 H 0.32196 0.74373 0.33858 0.0
H550 H 0.43783 0.77413 0.32893 0.0
H551 H 0.39657 0.76196 0.32705 0.0
C552 C 0.47057 0.73648 0.76828 0.0
C553 C 0.49386 0.74979 0.78067 0.0
C554 C 0.4548 0.74419 0.77544 0.0
C555 C 0.44659 0.78475 0.84074 0.0
H556 H 0.39444 0.76864 0.77031 0.0
C557 C 0.38426 0.82284 0.84355 0.0
C558 C 0.36045 0.80681 0.83869 0.0
C559 C 0.4006 0.8154 0.84264 0.0
C560 C 0.40879 0.77301 0.79047 0.0
H561 H 0.51919 0.78231 0.80806 0.0
H562 H 0.49192 0.79632 0.81886 0.0
H563 H 0.42377 0.75855 0.75178 0.0
H564 H 0.33492 0.77045 0.82978 0.0
H565 H 0.36355 0.75742 0.82758 0.0
H566 H 0.43181 0.80011 0.87853 0.0
C567 C 0.4856 0.77949 0.80498 0.0
C568 C 0.42562 0.76723 0.7799 0.0
C569 C 0.50132 0.7716 0.79835 0.0
C570 C 0.35316 0.78307 0.83447 0.0
C571 C 0.3695 0.77567 0.83292 0.0
C572 C 0.42992 0.7909 0.85097 0.0
C573 C 0.46198 0.7656 0.79459 0.0
C574 C 0.44467 0.77284 0.80501 0.0
C575 C 0.3934 0.79189 0.83566 0.0
C576 C 0.41077 0.78486 0.82607 0.0
H577 H 0.46414 0.71947 0.75501 0.0
H578 H 0.43673 0.73281 0.76747 0.0
H579 H 0.46076 0.78902 0.86122 0.0
H580 H 0.39052 0.84132 0.84398 0.0
H581 H 0.41896 0.82829 0.84406 0.0
C582 C 0.17413 0.55889 0.84785 0.0
C583 C 0.19039 0.55172 0.84035 0.0
C584 C 0.18114 0.58255 0.84939 0.0
C585 C 0.23336 0.64244 0.84662 0.0
H586 H 0.19151 0.65669 0.78837 0.0
C587 C 0.26398 0.73183 0.77532 0.0
C588 C 0.25106 0.74262 0.78557 0.0
C589 C 0.25547 0.70836 0.78405 0.0
C590 C 0.20326 0.65295 0.80495 0.0
H591 H 0.22678 0.56351 0.82936 0.0
H592 H 0.23904 0.60474 0.83071 0.0
H593 H 0.17913 0.61641 0.80511 0.0
H594 H 0.21847 0.73689 0.81073 0.0
H595 H 0.20334 0.69561 0.82492 0.0
H596 H 0.25784 0.67905 0.84467 0.0
C597 C 0.22097 0.59228 0.83691 0.0
C598 C 0.19614 0.6299 0.81493 0.0
C599 C 0.21397 0.56862 0.83601 0.0
C600 C 0.22884 0.72908 0.80251 0.0
C601 C 0.22018 0.70549 0.81068 0.0
C602 C 0.24058 0.66545 0.83612 0.0
C603 C 0.20449 0.59953 0.84218 0.0
C604 C 0.2112 0.6243 0.83552 0.0
C605 C 0.23374 0.69513 0.8026 0.0
C606 C 0.22569 0.67085 0.81478 0.0
H607 H 0.15576 0.5464 0.84884 0.0
H608 H 0.16801 0.58747 0.85401 0.0
H609 H 0.24526 0.63887 0.86305 0.0
H610 H 0.2812 0.74176 0.76245 0.0
H611 H 0.26608 0.70064 0.77701 0.0
C612 C 0.26808 0.53508 0.77174 0.0
C613 C 0.25826 0.5116 0.78281 0.0
C614 C 0.29166 0.55071 0.77828 0.0
C615 C 0.34144 0.55787 0.83942 0.0
H616 H 0.37663 0.61015 0.76875 0.0
C617 C 0.44196 0.61792 0.83654 0.0
C618 C 0.45035 0.64185 0.83213 0.0
C619 C 0.41804 0.60218 0.8368 0.0
C620 C 0.36689 0.59578 0.789 0.0
H621 H 0.26573 0.4858 0.80737 0.0
H622 H 0.30716 0.51287 0.81712 0.0
H623 H 0.33661 0.58149 0.75233 0.0
H624 H 0.44057 0.66827 0.82488 0.0
H625 H 0.3986 0.64068 0.82471 0.0
H626 H 0.37239 0.57194 0.87511 0.0
C627 C 0.29647 0.51942 0.80473 0.0
C628 C 0.34394 0.57933 0.77964 0.0
C629 C 0.27277 0.50383 0.79872 0.0
C630 C 0.43445 0.64991 0.8292 0.0
C631 C 0.41054 0.63416 0.82884 0.0
C632 C 0.36458 0.57417 0.84844 0.0
C633 C 0.3061 0.54317 0.79547 0.0
C634 C 0.33085 0.56021 0.8048 0.0
C635 C 0.40218 0.61012 0.83143 0.0
C636 C 0.37741 0.59333 0.82341 0.0
H637 H 0.25734 0.54172 0.75985 0.0
H638 H 0.29829 0.56889 0.77126 0.0
H639 H 0.33181 0.54363 0.8599 0.0
H640 H 0.45376 0.61114 0.83606 0.0
H641 H 0.41202 0.58369 0.83803 0.0
C642 C 0.77165 0.49938 0.69463 0.0
C643 C 0.74983 0.49175 0.71243 0.0
C644 C 0.77977 0.48383 0.68817 0.0
C645 C 0.76838 0.42437 0.7144 0.0
H646 H 0.8004 0.42986 0.615 0.0
C647 C 0.78411 0.35177 0.66161 0.0
C648 C 0.80783 0.3591 0.65704 0.0
C649 C 0.77663 0.36805 0.6625 0.0
C650 C 0.79144 0.42818 0.64278 0.0
H651 H 0.71976 0.46197 0.73855 0.0
H652 H 0.73351 0.43486 0.72643 0.0
H653 H 0.78916 0.45876 0.632 0.0
H654 H 0.84222 0.38911 0.64989 0.0
H655 H 0.82904 0.41744 0.64889 0.0
H656 H 0.7702 0.39348 0.72458 0.0
C657 C 0.74471 0.45291 0.71818 0.0
C658 C 0.78521 0.44481 0.65281 0.0
C659 C 0.73676 0.46851 0.72513 0.0
C660 C 0.82374 0.38281 0.65084 0.0
C661 C 0.81622 0.39909 0.65116 0.0
C662 C 0.77425 0.40759 0.70406 0.0
C663 C 0.76611 0.46025 0.69892 0.0
C664 C 0.77357 0.4431 0.68878 0.0
C665 C 0.79277 0.39191 0.65874 0.0
C666 C 0.78577 0.40931 0.66816 0.0
H667 H 0.7822 0.51722 0.68469 0.0
H668 H 0.79658 0.49023 0.67414 0.0
H669 H 0.75994 0.42272 0.7427 0.0
H670 H 0.77158 0.33361 0.6672 0.0
H671 H 0.75842 0.36212 0.66825 0.0
C672 C 0.64701 0.43153 0.66352 0.0
C673 C 0.64057 0.44858 0.65886 0.0
C674 C 0.63005 0.40796 0.6646 0.0
C675 C 0.56778 0.37133 0.69028 0.0
H676 H 0.57842 0.32109 0.6594 0.0
C677 C 0.49939 0.27248 0.70082 0.0
C678 C 0.50752 0.25847 0.71773 0.0
C679 C 0.51476 0.29607 0.69329 0.0
C680 C 0.57531 0.33501 0.66829 0.0
H681 H 0.61139 0.45433 0.65261 0.0
H682 H 0.58199 0.41337 0.65069 0.0
H683 H 0.60662 0.36102 0.6406 0.0
H684 H 0.53799 0.25851 0.74151 0.0
H685 H 0.56475 0.29959 0.72793 0.0
H686 H 0.53621 0.34505 0.71737 0.0
C687 C 0.60007 0.41806 0.65394 0.0
C688 C 0.59144 0.35787 0.65758 0.0
C689 C 0.61702 0.44162 0.6535 0.0
C690 C 0.5311 0.2688 0.72864 0.0
C691 C 0.5465 0.29225 0.72051 0.0
C692 C 0.55147 0.34841 0.70042 0.0
C693 C 0.60627 0.40097 0.66109 0.0
C694 C 0.58807 0.37639 0.66894 0.0
C695 C 0.53856 0.30593 0.70195 0.0
C696 C 0.5553 0.33012 0.69006 0.0
H697 H 0.66504 0.43653 0.6688 0.0
H698 H 0.63554 0.3954 0.67077 0.0
H699 H 0.56478 0.38511 0.70037 0.0
H700 H 0.48132 0.26504 0.6921 0.0
H701 H 0.50824 0.30633 0.67902 0.0
C702 C 0.56855 0.21851 0.66734 0.0
C703 C 0.55214 0.19482 0.66229 0.0
C704 C 0.59232 0.22595 0.66818 0.0
C705 C 0.63745 0.21109 0.64688 0.0
H706 H 0.66406 0.24198 0.74695 0.0
C707 C 0.72845 0.22993 0.69685 0.0
C708 C 0.74282 0.25162 0.7149 0.0
C709 C 0.70478 0.222 0.69077 0.0
C710 C 0.65711 0.23371 0.7186 0.0
H711 H 0.54776 0.16046 0.65489 0.0
H712 H 0.58923 0.17359 0.65357 0.0
H713 H 0.62455 0.23209 0.72961 0.0
H714 H 0.74341 0.28166 0.74183 0.0
H715 H 0.70259 0.26825 0.73035 0.0
H716 H 0.67015 0.21317 0.63527 0.0
C717 C 0.58372 0.18641 0.65614 0.0
C718 C 0.63446 0.22805 0.7087 0.0
C719 C 0.55994 0.17893 0.65592 0.0
C720 C 0.73283 0.26475 0.72819 0.0
C721 C 0.7093 0.257 0.72162 0.0
C722 C 0.66032 0.21711 0.65645 0.0
C723 C 0.60002 0.20982 0.66389 0.0
C724 C 0.62445 0.21675 0.67278 0.0
C725 C 0.69505 0.23574 0.70216 0.0
C726 C 0.67044 0.22851 0.69248 0.0
H727 H 0.56292 0.23101 0.67314 0.0
H728 H 0.60462 0.24412 0.67415 0.0
H729 H 0.63001 0.20229 0.61906 0.0
H730 H 0.7356 0.21934 0.68645 0.0
H731 H 0.69423 0.20529 0.67655 0.0
C732 C 0.53926 0.58621 0.9557 0.0
C733 C 0.53638 0.58591 0.91431 0.0
C734 C 0.53265 0.5655 0.97626 0.0
C735 C 0.51424 0.5029 0.96463 0.0
H736 H 0.47408 0.4951 0.05412 0.0
C737 C 0.461 0.4139 0.0388 0.0
C738 C 0.46431 0.41442 0.08008 0.0
C739 C 0.46717 0.43448 0.01811 0.0
C740 C 0.4853 0.49704 0.02929 0.0
H741 H 0.52697 0.56423 0.86162 0.0
H742 H 0.51562 0.52828 0.89735 0.0
H743 H 0.49461 0.53258 0.02024 0.0
H744 H 0.47394 0.43626 0.13257 0.0
H745 H 0.48449 0.47197 0.09664 0.0
H746 H 0.50495 0.46737 0.97369 0.0
C747 C 0.52271 0.54436 0.91407 0.0
C748 C 0.49724 0.51856 0.0101 0.0
C749 C 0.52921 0.565 0.89356 0.0
C750 C 0.47137 0.43535 0.1007 0.0
C751 C 0.47741 0.45585 0.08008 0.0
C752 C 0.5023 0.48138 0.9838 0.0
C753 C 0.52326 0.5442 0.95576 0.0
C754 C 0.51188 0.52175 0.97759 0.0
C755 C 0.47652 0.45583 0.03841 0.0
C756 C 0.48769 0.4782 0.01635 0.0
H757 H 0.54475 0.60202 0.97258 0.0
H758 H 0.53379 0.56597 0.00837 0.0
H759 H 0.5255 0.50485 0.93984 0.0
H760 H 0.45559 0.39807 0.02203 0.0
H761 H 0.46579 0.43387 0.98603 0.0
C762 C 0.56791 0.03431 0.10196 0.0
C763 C 0.58845 0.04893 0.0809 0.0
C764 C 0.54724 0.01992 0.08172 0.0
C765 C 0.52109 0.99623 0.98343 0.0
H766 H 0.47068 0.0043 0.02366 0.0
C767 C 0.43716 0.96287 0.8944 0.0
C768 C 0.41658 0.94903 0.91592 0.0
C769 C 0.45802 0.97721 0.91416 0.0
C770 C 0.48451 0.00175 0.0122 0.0
H771 H 0.60401 0.05801 0.02226 0.0
H772 H 0.56791 0.03277 0.9869 0.0
H773 H 0.50752 0.0213 0.05951 0.0
H774 H 0.40126 0.94114 0.97478 0.0
H775 H 0.43769 0.96615 0.00932 0.0
H776 H 0.49807 0.9766 0.9362 0.0
C777 C 0.56775 0.03253 0.01906 0.0
C778 C 0.50558 0.01135 0.03284 0.0
C779 C 0.5885 0.04691 0.03936 0.0
C780 C 0.4168 0.95167 0.95734 0.0
C781 C 0.43774 0.96594 0.97717 0.0
C782 C 0.5 0.98658 0.96282 0.0
C783 C 0.54671 0.01985 0.04004 0.0
C784 C 0.52408 0.00865 0.01875 0.0
C785 C 0.45876 0.97794 0.95585 0.0
C786 C 0.48148 0.98925 0.97694 0.0
H787 H 0.56739 0.03527 0.13404 0.0
H788 H 0.53142 0.0098 0.0987 0.0
H789 H 0.53496 0.99375 0.97197 0.0
H790 H 0.43747 0.9614 0.86238 0.0
H791 H 0.4738 0.98682 0.89684 0.0
C792 C 0.95077 0.53441 0.035 0.0
C793 C 0.94911 0.53298 0.07662 0.0
C794 C 0.96441 0.52706 0.0148 0.0
C795 C 0.98493 0.48539 0.02988 0.0
H796 H 0.01835 0.5108 0.93142 0.0
C797 C 0.04473 0.4562 0.95467 0.0
C798 C 0.04677 0.45791 0.91311 0.0
C799 C 0.03024 0.46262 0.97448 0.0
C800 C 0.00873 0.50326 0.95857 0.0
H801 H 0.96253 0.52544 0.12986 0.0
H802 H 0.98683 0.51334 0.09471 0.0
H803 H 0.00181 0.53127 0.96664 0.0
H804 H 0.03302 0.46467 0.85948 0.0
H805 H 0.00729 0.47519 0.89396 0.0
H806 H 0.99196 0.45743 0.02187 0.0
C807 C 0.97696 0.51928 0.07759 0.0
C808 C 0.9994 0.5151 0.97886 0.0
C809 C 0.96327 0.52649 0.09773 0.0
C810 C 0.03202 0.46345 0.89158 0.0
C811 C 0.01749 0.46975 0.91133 0.0
C812 C 0.99428 0.47356 0.0096 0.0
C813 C 0.97673 0.51834 0.03591 0.0
C814 C 0.98746 0.50635 0.01482 0.0
C815 C 0.01745 0.47067 0.953 0.0
C816 C 0.00628 0.48235 0.9737 0.0
H817 H 0.93996 0.53918 0.01787 0.0
H818 H 0.96389 0.52662 0.98265 0.0
H819 H 0.97536 0.47788 0.05707 0.0
H820 H 0.05595 0.45212 0.97212 0.0
H821 H 0.03054 0.46305 0.00663 0.0
C822 C 0.41616 0.46581 0.454 0.0
C823 C 0.41646 0.46886 0.41266 0.0
C824 C 0.43685 0.47217 0.47447 0.0
C825 C 0.49919 0.51399 0.46317 0.0
H826 H 0.50587 0.48418 0.55721 0.0
C827 C 0.58722 0.54029 0.53934 0.0
C828 C 0.58707 0.53702 0.58059 0.0
C829 C 0.5665 0.53434 0.5193 0.0
C830 C 0.50416 0.49293 0.53134 0.0
H831 H 0.43807 0.47828 0.35988 0.0
H832 H 0.47396 0.48875 0.39545 0.0
H833 H 0.46929 0.46542 0.52047 0.0
H834 H 0.56578 0.52774 0.63376 0.0
H835 H 0.52984 0.51798 0.59893 0.0
H836 H 0.53407 0.54148 0.47401 0.0
C837 C 0.45795 0.48226 0.41221 0.0
C838 C 0.48325 0.48208 0.51018 0.0
C839 C 0.43734 0.47602 0.39181 0.0
C840 C 0.56638 0.53015 0.60187 0.0
C841 C 0.54574 0.52432 0.58189 0.0
C842 C 0.5201 0.52484 0.48434 0.0
C843 C 0.45812 0.48152 0.45388 0.0
C844 C 0.48055 0.49245 0.47578 0.0
C845 C 0.54536 0.52519 0.54024 0.0
C846 C 0.52282 0.51444 0.51868 0.0
H847 H 0.40039 0.46044 0.47095 0.0
H848 H 0.43639 0.47133 0.5066 0.0
H849 H 0.49749 0.52271 0.43726 0.0
H850 H 0.60285 0.54546 0.52208 0.0
H851 H 0.5668 0.53527 0.48718 0.0
C852 C 0.54068 0.95456 0.46205 0.0
C853 C 0.53768 0.95191 0.4207 0.0
C854 C 0.53455 0.96906 0.48251 0.0
C855 C 0.51701 0.01392 0.47042 0.0
H856 H 0.47635 0.98191 0.55957 0.0
C857 C 0.46314 0.04974 0.54213 0.0
C858 C 0.46613 0.05265 0.58344 0.0
C859 C 0.46961 0.03539 0.52202 0.0
C860 C 0.48772 0.9911 0.53484 0.0
H861 H 0.52863 0.96442 0.36792 0.0
H862 H 0.5181 0.9897 0.40345 0.0
H863 H 0.49682 0.96467 0.52639 0.0
H864 H 0.47558 0.04078 0.63656 0.0
H865 H 0.48664 0.0157 0.60162 0.0
H866 H 0.50786 0.04032 0.47881 0.0
C867 C 0.52493 0.98049 0.42024 0.0
C868 C 0.49963 0.98135 0.51607 0.0
C869 C 0.53095 0.96596 0.39985 0.0
C870 C 0.47324 0.03901 0.60465 0.0
C871 C 0.47958 0.02461 0.58461 0.0
C872 C 0.50508 0.02365 0.48917 0.0
C873 C 0.52552 0.98128 0.46193 0.0
C874 C 0.51441 0.99265 0.48363 0.0
C875 C 0.47895 0.02358 0.54294 0.0
C876 C 0.49027 0.01232 0.52154 0.0
H877 H 0.54583 0.94398 0.47898 0.0
H878 H 0.5357 0.96976 0.51462 0.0
H879 H 0.52838 0.02312 0.44569 0.0
H880 H 0.45772 0.06001 0.52493 0.0
H881 H 0.46845 0.0345 0.48992 0.0
C882 C 0.96446 0.43462 0.60243 0.0
C883 C 0.95088 0.41372 0.58153 0.0
C884 C 0.97916 0.4552 0.58215 0.0
C885 C 0.98167 0.48121 0.48528 0.0
H886 H 0.04018 0.53193 0.52413 0.0
C887 C 0.04025 0.56481 0.39614 0.0
C888 C 0.05372 0.58574 0.41699 0.0
C889 C 0.02586 0.54416 0.41646 0.0
C890 C 0.02364 0.51806 0.51328 0.0
H891 H 0.94387 0.39758 0.52336 0.0
H892 H 0.96991 0.43351 0.48796 0.0
H893 H 0.02222 0.49438 0.55793 0.0
H894 H 0.06093 0.60182 0.47523 0.0
H895 H 0.03541 0.56574 0.51074 0.0
H896 H 0.98306 0.50489 0.44068 0.0
C897 C 0.96875 0.43403 0.51999 0.0
C898 C 0.01347 0.49648 0.53246 0.0
C899 C 0.9541 0.41337 0.54034 0.0
C900 C 0.05077 0.586 0.45828 0.0
C901 C 0.03642 0.56527 0.47868 0.0
C902 C 0.99183 0.50279 0.46612 0.0
C903 C 0.98058 0.45532 0.54052 0.0
C904 C 0.99236 0.4778 0.51867 0.0
C905 C 0.02463 0.54398 0.45812 0.0
C906 C 0.01293 0.52147 0.4799 0.0
H907 H 0.96246 0.43543 0.63422 0.0
H908 H 0.98804 0.47126 0.59891 0.0
H909 H 0.96512 0.46735 0.47444 0.0
H910 H 0.04205 0.56406 0.36427 0.0
H911 H 0.01702 0.5281 0.39967 0.0
C912 C 0.52685 0.37 0.00151 0.0
C913 C 0.53173 0.38127 0.0385 0.0
C914 C 0.54228 0.38004 0.96973 0.0
C915 C 0.60125 0.42841 0.94022 0.0
H916 H 0.56817 0.42736 0.84468 0.0
C917 C 0.64129 0.49398 0.80796 0.0
C918 C 0.63259 0.48509 0.77005 0.0
C919 C 0.63235 0.47955 0.84148 0.0
C920 C 0.57778 0.42756 0.87082 0.0
H921 H 0.5577 0.41095 0.07199 0.0
H922 H 0.58423 0.42865 0.01644 0.0
H923 H 0.54648 0.40445 0.90145 0.0
H924 H 0.6098 0.45383 0.73679 0.0
H925 H 0.59488 0.42873 0.79456 0.0
H926 H 0.6326 0.45231 0.9093 0.0
C927 C 0.56859 0.41199 0.01193 0.0
C928 C 0.5653 0.4143 0.90346 0.0
C929 C 0.55325 0.40186 0.04381 0.0
C930 C 0.6164 0.46127 0.76581 0.0
C931 C 0.60779 0.4469 0.79894 0.0
C932 C 0.61382 0.44181 0.90734 0.0
C933 C 0.56286 0.40167 0.97411 0.0
C934 C 0.57679 0.41455 0.93867 0.0
C935 C 0.61485 0.45604 0.83729 0.0
C936 C 0.60217 0.44152 0.87228 0.0
H937 H 0.51062 0.35394 0.99652 0.0
H938 H 0.53763 0.37128 0.94125 0.0
H939 H 0.61066 0.42893 0.96684 0.0
H940 H 0.65388 0.51228 0.81186 0.0
H941 H 0.63817 0.48709 0.87068 0.0
C942 C 0.59766 0.14897 0.04858 0.0
C943 C 0.61884 0.14923 0.04308 0.0
C944 C 0.58728 0.15421 0.01711 0.0
C945 C 0.58619 0.1512 0.90823 0.0
H946 H 0.54627 0.17827 0.91621 0.0
C947 C 0.5399 0.15699 0.77084 0.0
C948 C 0.51591 0.14864 0.77454 0.0
C949 C 0.55392 0.16229 0.80437 0.0
C950 C 0.5573 0.1706 0.91363 0.0
H951 H 0.64683 0.1575 0.0013 0.0
H952 H 0.62906 0.16721 0.94683 0.0
H953 H 0.56927 0.17905 0.97384 0.0
H954 H 0.48799 0.14095 0.81591 0.0
H955 H 0.51256 0.14964 0.87534 0.0
H956 H 0.57405 0.14226 0.8487 0.0
C957 C 0.62005 0.16217 0.97507 0.0
C958 C 0.57049 0.17107 0.94658 0.0
C959 C 0.63033 0.15675 0.0064 0.0
C960 C 0.50644 0.14725 0.81241 0.0
C961 C 0.52052 0.15229 0.8463 0.0
C962 C 0.57314 0.15079 0.87552 0.0
C963 C 0.59793 0.16 0.97952 0.0
C964 C 0.58506 0.16129 0.94425 0.0
C965 C 0.54425 0.15903 0.84257 0.0
C966 C 0.55851 0.16044 0.87771 0.0
H967 H 0.58836 0.14341 0.07651 0.0
H968 H 0.57025 0.15232 0.02166 0.0
H969 H 0.59662 0.14288 0.90555 0.0
H970 H 0.54775 0.15874 0.74188 0.0
H971 H 0.57224 0.16813 0.80038 0.0
C972 C 0.8528 0.35982 0.8083 0.0
C973 C 0.85299 0.36883 0.7705 0.0
C974 C 0.8469 0.36841 0.84179 0.0
C975 C 0.84846 0.42244 0.8719 0.0
H976 H 0.81705 0.38856 0.96731 0.0
C977 C 0.84085 0.47197 0.00336 0.0
C978 C 0.84788 0.46733 0.03996 0.0
C979 C 0.8353 0.45654 0.97159 0.0
C980 C 0.82587 0.39824 0.94084 0.0
H981 H 0.84477 0.3918 0.73726 0.0
H982 H 0.83386 0.40614 0.79498 0.0
H983 H 0.81907 0.3673 0.90925 0.0
H984 H 0.8524 0.44172 0.07293 0.0
H985 H 0.8433 0.41516 0.01727 0.0
H986 H 0.85598 0.45334 0.90322 0.0
C987 C 0.83918 0.39328 0.79935 0.0
C988 C 0.82706 0.38607 0.90767 0.0
C989 C 0.84538 0.38502 0.76625 0.0
C990 C 0.84727 0.44596 0.04503 0.0
C991 C 0.84192 0.43062 0.01311 0.0
C992 C 0.8473 0.43452 0.90482 0.0
C993 C 0.84082 0.38587 0.83768 0.0
C994 C 0.83843 0.39809 0.87284 0.0
C995 C 0.83686 0.43623 0.97555 0.0
C996 C 0.83608 0.42266 0.9398 0.0
H997 H 0.85845 0.34718 0.81219 0.0
H998 H 0.84832 0.36233 0.87093 0.0
H999 H 0.85791 0.43237 0.84601 0.0
H1000 H 0.84072 0.48807 -0.00139 0.0
H1001 H 0.83081 0.46107 0.94333 0.0
C1002 C 0.4853 0.64506 0.69622 0.0
C1003 C 0.49452 0.6324 0.7146 0.0
C1004 C 0.47086 0.63597 0.66276 0.0
C1005 C 0.43197 0.57873 0.61749 0.0
H1006 H 0.43303 0.61324 0.52389 0.0
C1007 C 0.37083 0.53014 0.48935 0.0
C1008 C 0.38171 0.53486 0.452 0.0
C1009 C 0.38144 0.54549 0.52107 0.0
C1010 C 0.43249 0.60336 0.54988 0.0
H1011 H 0.49746 0.60135 0.71071 0.0
H1012 H 0.47308 0.58595 0.65216 0.0
H1013 H 0.45991 0.63355 0.57873 0.0
H1014 H 0.41116 0.5606 0.41777 0.0
H1015 H 0.4299 0.58683 0.47311 0.0
H1016 H 0.40561 0.54842 0.58854 0.0
C1017 C 0.47622 0.60244 0.66409 0.0
C1018 C 0.44778 0.61505 0.58138 0.0
C1019 C 0.49037 0.61137 0.69745 0.0
C1020 C 0.40236 0.55625 0.44624 0.0
C1021 C 0.4131 0.57145 0.47806 0.0
C1022 C 0.41684 0.5671 0.58617 0.0
C1023 C 0.46556 0.61415 0.64723 0.0
C1024 C 0.44809 0.6027 0.61507 0.0
C1025 C 0.40329 0.56576 0.5163 0.0
C1026 C 0.41717 0.57911 0.55154 0.0
H1027 H 0.48798 0.66117 0.70892 0.0
H1028 H 0.46295 0.64543 0.65034 0.0
H1029 H 0.43138 0.56877 0.64341 0.0
H1030 H 0.35471 0.51404 0.49468 0.0
H1031 H 0.37301 0.54089 0.54984 0.0
C1032 C 0.35634 0.84736 0.69036 0.0
C1033 C 0.36973 0.85255 0.72514 0.0
C1034 C 0.36332 0.84073 0.65574 0.0
C1035 C 0.40367 0.82099 0.61845 0.0
H1036 H 0.40878 0.85785 0.52573 0.0
C1037 C 0.47456 0.84701 0.4989 0.0
C1038 C 0.4696 0.85028 0.45963 0.0
C1039 C 0.45766 0.84057 0.52861 0.0
C1040 C 0.40707 0.84699 0.55097 0.0
H1041 H 0.39989 0.85319 0.75178 0.0
H1042 H 0.41199 0.84194 0.69202 0.0
H1043 H 0.38656 0.85825 0.58287 0.0
H1044 H 0.44237 0.84766 0.42043 0.0
H1045 H 0.41296 0.83601 0.47188 0.0
H1046 H 0.42509 0.81055 0.5871 0.0
C1047 C 0.39619 0.84295 0.69106 0.0
C1048 C 0.39426 0.8472 0.58376 0.0
C1049 C 0.38939 0.84975 0.72527 0.0
C1050 C 0.4469 0.84542 0.45031 0.0
C1051 C 0.43003 0.83891 0.47991 0.0
C1052 C 0.41651 0.82079 0.58566 0.0
C1053 C 0.38357 0.83883 0.65564 0.0
C1054 C 0.39306 0.83483 0.61837 0.0
C1055 C 0.43543 0.83719 0.51963 0.0
C1056 C 0.41894 0.83435 0.552 0.0
H1057 H 0.34099 0.84918 0.68953 0.0
H1058 H 0.35315 0.8375 0.62891 0.0
H1059 H 0.40274 0.81095 0.64447 0.0
H1060 H 0.49183 0.85057 0.50715 0.0
H1061 H 0.46247 0.83956 0.55896 0.0
C1062 C 0.1231 0.51523 0.70349 0.0
C1063 C 0.13946 0.50998 0.71963 0.0
C1064 C 0.12872 0.52997 0.67085 0.0
C1065 C 0.1499 0.57413 0.62399 0.0
H1066 H 0.18265 0.57203 0.53017 0.0
C1067 C 0.16136 0.63377 0.49411 0.0
C1068 C 0.15498 0.62242 0.45719 0.0
C1069 C 0.16651 0.62367 0.52611 0.0
C1070 C 0.17351 0.57287 0.55621 0.0
H1071 H 0.17432 0.51537 0.71279 0.0
H1072 H 0.1843 0.54141 0.65567 0.0
H1073 H 0.17586 0.54529 0.5852 0.0
H1074 H 0.15129 0.59269 0.42392 0.0
H1075 H 0.15936 0.57477 0.47974 0.0
H1076 H 0.14621 0.60056 0.59474 0.0
C1077 C 0.16701 0.5339 0.66833 0.0
C1078 C 0.1698 0.55767 0.58786 0.0
C1079 C 0.16126 0.51889 0.70103 0.0
C1080 C 0.15589 0.60183 0.45206 0.0
C1081 C 0.16071 0.59158 0.48417 0.0
C1082 C 0.15345 0.58915 0.59245 0.0
C1083 C 0.15099 0.54012 0.65367 0.0
C1084 C 0.15734 0.55769 0.62161 0.0
C1085 C 0.16506 0.60184 0.52205 0.0
C1086 C 0.16481 0.58839 0.5577 0.0
H1087 H 0.10602 0.50838 0.7168 0.0
H1088 H 0.11569 0.53378 0.65954 0.0
H1089 H 0.14075 0.57502 0.64998 0.0
H1090 H 0.16125 0.64988 0.49889 0.0
H1091 H 0.17052 0.63246 0.55456 0.0
C1092 C 0.38956 0.53852 0.2169 0.0
C1093 C 0.36994 0.51602 0.2177 0.0
C1094 C 0.39616 0.55158 0.18205 0.0
C1095 C 0.39408 0.54448 0.07492 0.0
H1096 H 0.42222 0.61175 0.07615 0.0
C1097 C 0.44553 0.59926 0.94015 0.0
C1098 C 0.46774 0.61803 0.94951 0.0
C1099 C 0.42868 0.58831 0.96972 0.0
C1100 C 0.41441 0.59298 0.07526 0.0
H1101 H 0.34126 0.48995 0.18287 0.0
H1102 H 0.35316 0.51281 0.12112 0.0
H1103 H 0.40083 0.5891 0.13422 0.0
H1104 H 0.48898 0.64094 0.99698 0.0
H1105 H 0.45978 0.62169 0.0485 0.0
H1106 H 0.40852 0.54837 0.01676 0.0
C1107 C 0.36338 0.52022 0.14776 0.0
C1108 C 0.40211 0.58 0.10848 0.0
C1109 C 0.35655 0.50717 0.18303 0.0
C1110 C 0.47212 0.62651 0.98866 0.0
C1111 C 0.45527 0.61552 0.01825 0.0
C1112 C 0.40641 0.55746 0.0417 0.0
C1113 C 0.38343 0.54248 0.14687 0.0
C1114 C 0.39247 0.55568 0.10918 0.0
C1115 C 0.43361 0.59582 0.00937 0.0
C1116 C 0.41736 0.58194 0.04195 0.0
H1117 H 0.40008 0.54605 0.24322 0.0
H1118 H 0.41184 0.56851 0.18237 0.0
H1119 H 0.38706 0.52581 0.07463 0.0
H1120 H 0.44145 0.59228 0.91033 0.0
H1121 H 0.41203 0.57346 0.96173 0.0
C1122 C 0.40177 0.84717 0.95374 0.0
C1123 C 0.38126 0.84829 0.95873 0.0
C1124 C 0.41191 0.84229 0.986 0.0
C1125 C 0.4147 0.85011 0.09379 0.0
H1126 H 0.4525 0.82053 0.09139 0.0
C1127 C 0.4622 0.84905 0.23292 0.0
C1128 C 0.4859 0.85612 0.22876 0.0
C1129 C 0.44772 0.84275 0.19987 0.0
C1130 C 0.44207 0.82891 0.09237 0.0
H1131 H 0.35396 0.84254 0.00047 0.0
H1132 H 0.37132 0.83345 0.0564 0.0
H1133 H 0.42887 0.8178 0.03338 0.0
H1134 H 0.51275 0.86051 0.18728 0.0
H1135 H 0.48741 0.8502 0.12855 0.0
H1136 H 0.42812 0.86177 0.15194 0.0
C1137 C 0.38001 0.83717 0.02787 0.0
C1138 C 0.42851 0.82732 0.05925 0.0
C1139 C 0.36998 0.84224 0.99574 0.0
C1140 C 0.49456 0.85532 0.1911 0.0
C1141 C 0.48003 0.84931 0.15764 0.0
C1142 C 0.42813 0.85167 0.12665 0.0
C1143 C 0.40166 0.83823 0.02384 0.0
C1144 C 0.4147 0.83798 0.0596 0.0
C1145 C 0.45664 0.84375 0.16165 0.0
C1146 C 0.44201 0.84114 0.12644 0.0
H1147 H 0.41085 0.85152 0.92553 0.0
H1148 H 0.42857 0.84326 0.98177 0.0
H1149 H 0.40489 0.85915 0.09478 0.0
H1150 H 0.4549 0.8489 0.26178 0.0
H1151 H 0.42964 0.83784 0.20417 0.0
C1152 C 0.15365 0.5239 0.99262 0.0
C1153 C 0.14642 0.52816 0.95591 0.0
C1154 C 0.15927 0.53961 0.02403 0.0
C1155 C 0.16954 0.59864 0.05212 0.0
H1156 H 0.14099 0.56704 0.15067 0.0
C1157 C 0.14703 0.64009 0.18605 0.0
C1158 C 0.14865 0.63223 0.22398 0.0
C1159 C 0.15177 0.63078 0.15219 0.0
C1160 C 0.14944 0.57626 0.12364 0.0
H1161 H 0.14112 0.55319 0.9226 0.0
H1162 H 0.15035 0.58018 0.97751 0.0
H1163 H 0.14081 0.54455 0.09399 0.0
H1164 H 0.15886 0.61061 0.25673 0.0
H1165 H 0.1677 0.59502 0.19826 0.0
H1166 H 0.17742 0.63037 0.08208 0.0
C1167 C 0.15192 0.56486 0.98205 0.0
C1168 C 0.14941 0.56331 0.09103 0.0
C1169 C 0.14648 0.54924 0.95054 0.0
C1170 C 0.15694 0.61656 0.22774 0.0
C1171 C 0.16194 0.60756 0.19423 0.0
C1172 C 0.1695 0.61166 0.08493 0.0
C1173 C 0.15759 0.55983 0.01959 0.0
C1174 C 0.15938 0.57426 0.05478 0.0
C1175 C 0.15842 0.61373 0.15603 0.0
C1176 C 0.15943 0.60057 0.12106 0.0
H1177 H 0.15414 0.50801 0.99764 0.0
H1178 H 0.16418 0.53549 0.05225 0.0
H1179 H 0.17749 0.60765 0.02469 0.0
H1180 H 0.14076 0.65226 0.1825 0.0
H1181 H 0.14895 0.63592 0.12313 0.0
C1182 C 0.50858 0.35697 0.30676 0.0
C1183 C 0.51626 0.37055 0.27209 0.0
C1184 C 0.52235 0.36416 0.34119 0.0
C1185 C 0.58239 0.40509 0.37746 0.0
H1186 H 0.55116 0.40881 0.47208 0.0
C1187 C 0.62805 0.47467 0.49857 0.0
C1188 C 0.62018 0.46934 0.538 0.0
C1189 C 0.61732 0.45808 0.46851 0.0
C1190 C 0.56018 0.40749 0.44628 0.0
H1191 H 0.54503 0.40142 0.24554 0.0
H1192 H 0.56867 0.41384 0.30498 0.0
H1193 H 0.52819 0.38698 0.4149 0.0
H1194 H 0.5959 0.44175 0.57703 0.0
H1195 H 0.57763 0.41285 0.52489 0.0
H1196 H 0.61444 0.42639 0.40834 0.0
C1197 C 0.55213 0.39772 0.30595 0.0
C1198 C 0.54696 0.39493 0.41346 0.0
C1199 C 0.53837 0.39073 0.27194 0.0
C1200 C 0.60238 0.44657 0.54702 0.0
C1201 C 0.59174 0.42999 0.51704 0.0
C1202 C 0.59562 0.41765 0.41028 0.0
C1203 C 0.54417 0.3848 0.34121 0.0
C1204 C 0.55794 0.39422 0.37824 0.0
C1205 C 0.59854 0.43578 0.47725 0.0
C1206 C 0.58469 0.41958 0.44466 0.0
H1207 H 0.49169 0.34124 0.30763 0.0
H1208 H 0.51582 0.35377 0.36791 0.0
H1209 H 0.59135 0.40453 0.35093 0.0
H1210 H 0.64171 0.49201 0.49052 0.0
H1211 H 0.6229 0.46321 0.43814 0.0
C1212 C 0.52679 0.15889 0.50339 0.0
C1213 C 0.5318 0.15314 0.54085 0.0
C1214 C 0.54203 0.16357 0.4715 0.0
C1215 C 0.60017 0.17099 0.44268 0.0
H1216 H 0.5658 0.13733 0.34912 0.0
C1217 C 0.64292 0.16001 0.29788 0.0
C1218 C 0.63041 0.13824 0.27908 0.0
C1219 C 0.63342 0.16529 0.33084 0.0
C1220 C 0.57571 0.14672 0.37507 0.0
H1221 H 0.55791 0.15002 0.57499 0.0
H1222 H 0.58392 0.15734 0.51944 0.0
H1223 H 0.54526 0.14255 0.40392 0.0
H1224 H 0.5991 0.10438 0.28174 0.0
H1225 H 0.583 0.11321 0.3395 0.0
H1226 H 0.63048 0.17393 0.41405 0.0
C1227 C 0.56841 0.15853 0.5145 0.0
C1228 C 0.56396 0.15012 0.40634 0.0
C1229 C 0.55333 0.15415 0.54646 0.0
C1230 C 0.60902 0.12143 0.29529 0.0
C1231 C 0.59969 0.12657 0.32819 0.0
C1232 C 0.61196 0.16745 0.41128 0.0
C1233 C 0.56249 0.16231 0.47622 0.0
C1234 C 0.57589 0.16187 0.44097 0.0
C1235 C 0.61134 0.14881 0.34554 0.0
C1236 C 0.5997 0.15472 0.37758 0.0
H1237 H 0.51055 0.15866 0.49816 0.0
H1238 H 0.53723 0.16712 0.4427 0.0
H1239 H 0.61001 0.18041 0.46863 0.0
H1240 H 0.65932 0.17341 0.28597 0.0
H1241 H 0.64285 0.18258 0.3436 0.0
C1242 C 0.83945 0.48096 0.29464 0.0
C1243 C 0.86138 0.49068 0.27624 0.0
C1244 C 0.83435 0.46627 0.3277 0.0
C1245 C 0.85391 0.42801 0.37181 0.0
H1246 H 0.82028 0.42795 0.46595 0.0
C1247 C 0.84424 0.36804 0.50047 0.0
C1248 C 0.85008 0.37905 0.53772 0.0
C1249 C 0.83892 0.37812 0.46863 0.0
C1250 C 0.82968 0.42772 0.43981 0.0
H1251 H 0.89564 0.49422 0.27954 0.0
H1252 H 0.8871 0.46945 0.33748 0.0
H1253 H 0.82591 0.45464 0.41133 0.0
H1254 H 0.85278 0.40819 0.57158 0.0
H1255 H 0.84434 0.42604 0.51611 0.0
H1256 H 0.85893 0.40223 0.40047 0.0
C1257 C 0.87352 0.47237 0.32587 0.0
C1258 C 0.83273 0.44289 0.40842 0.0
C1259 C 0.8785 0.48675 0.2929 0.0
C1260 C 0.8486 0.39931 0.54321 0.0
C1261 C 0.84355 0.40951 0.51131 0.0
C1262 C 0.85099 0.41301 0.40306 0.0
C1263 C 0.85115 0.46123 0.34276 0.0
C1264 C 0.84549 0.44365 0.37458 0.0
C1265 C 0.83959 0.39957 0.47321 0.0
C1266 C 0.83931 0.41301 0.43791 0.0
H1267 H 0.82585 0.48349 0.28223 0.0
H1268 H 0.81697 0.45799 0.34016 0.0
H1269 H 0.86334 0.42774 0.34573 0.0
H1270 H 0.84482 0.35221 0.49536 0.0
H1271 H 0.83528 0.3696 0.43997 0.0
C1272 C 0.31417 0.38209 0.33644 0.0
C1273 C 0.30978 0.39725 0.31356 0.0
C1274 C 0.31638 0.36432 0.31852 0.0
C1275 C 0.33327 0.35242 0.22051 0.0
H1276 H 0.33121 0.30066 0.27782 0.0
C1277 C 0.39349 0.30929 0.22176 0.0
C1278 C 0.39566 0.30753 0.18055 0.0
C1279 C 0.37534 0.31207 0.23708 0.0
C1280 C 0.33171 0.31494 0.26136 0.0
H1281 H 0.30125 0.40358 0.25443 0.0
H1282 H 0.30398 0.3718 0.22329 0.0
H1283 H 0.31113 0.32014 0.30469 0.0
H1284 H 0.37883 0.30417 0.12373 0.0
H1285 H 0.34732 0.30893 0.15045 0.0
H1286 H 0.35397 0.34734 0.17743 0.0
C1287 C 0.30686 0.37438 0.25497 0.0
C1288 C 0.32033 0.32625 0.27679 0.0
C1289 C 0.30498 0.39247 0.27291 0.0
C1290 C 0.37786 0.30585 0.15558 0.0
C1291 C 0.35984 0.30867 0.17082 0.0
C1292 C 0.34422 0.34088 0.20481 0.0
C1293 C 0.31387 0.36088 0.2772 0.0
C1294 C 0.32166 0.34573 0.25729 0.0
C1295 C 0.35912 0.3131 0.2114 0.0
C1296 C 0.34418 0.32247 0.22558 0.0
H1297 H 0.31767 0.38497 0.36797 0.0
H1298 H 0.32183 0.35453 0.33694 0.0
H1299 H 0.33521 0.36752 0.20475 0.0
H1300 H 0.40692 0.31068 0.24179 0.0
H1301 H 0.37522 0.31543 0.26853 0.0
C1302 C 0.62206 0.93458 0.34119 0.0
C1303 C 0.60662 0.91476 0.31913 0.0
C1304 C 0.63972 0.95428 0.32241 0.0
C1305 C 0.65078 0.9818 0.22341 0.0
H1306 H 0.70339 0.03199 0.27832 0.0
C1307 C 0.69677 0.07223 0.15547 0.0
C1308 C 0.69566 0.08871 0.18033 0.0
C1309 C 0.69406 0.05151 0.17106 0.0
C1310 C 0.68887 0.01807 0.26252 0.0
H1311 H 0.59968 0.89913 0.26056 0.0
H1312 H 0.63125 0.93315 0.22793 0.0
H1313 H 0.68396 0.99279 0.30667 0.0
H1314 H 0.69367 0.09756 0.24164 0.0
H1315 H 0.68909 0.06133 0.26894 0.0
H1316 H 0.65554 0.0071 0.17958 0.0
C1317 C 0.62898 0.93388 0.25964 0.0
C1318 C 0.6776 0.99559 0.2788 0.0
C1319 C 0.61101 0.91419 0.27843 0.0
C1320 C 0.6946 0.08524 0.22166 0.0
C1321 C 0.69192 0.06443 0.23731 0.0
C1322 C 0.66228 0.0041 0.20688 0.0
C1323 C 0.64277 0.95465 0.28103 0.0
C1324 C 0.65783 0.97729 0.26019 0.0
C1325 C 0.6903 0.04683 0.21188 0.0
C1326 C 0.681 0.02265 0.22678 0.0
H1327 H 0.61948 0.93563 0.37273 0.0
H1328 H 0.64975 0.96974 0.3402 0.0
H1329 H 0.63546 0.96852 0.20833 0.0
H1330 H 0.69792 0.07451 0.12353 0.0
H1331 H 0.69336 0.03846 0.15083 0.0
C1332 C 0.07194 0.69346 0.34123 0.0
C1333 C 0.08859 0.69272 0.31628 0.0
C1334 C 0.0512 0.69071 0.32567 0.0
C1335 C 0.00381 0.65952 0.28957 0.0
H1336 H 0.99296 0.68165 0.18986 0.0
C1337 C 0.91379 0.60952 0.21825 0.0
C1338 C 0.91429 0.60493 0.17762 0.0
C1339 C 0.93362 0.62734 0.23693 0.0
C1340 C 0.99564 0.67518 0.21772 0.0
H1341 H 0.09763 0.69118 0.25493 0.0
H1342 H 0.06132 0.68644 0.22766 0.0
H1343 H 0.03213 0.70065 0.2183 0.0
H1344 H 0.9352 0.61732 0.12399 0.0
H1345 H 0.96957 0.64736 0.15635 0.0
H1346 H 0.96808 0.63306 0.28806 0.0
C1347 C 0.06433 0.68907 0.25934 0.0
C1348 C 0.0181 0.68619 0.23404 0.0
C1349 C 0.08518 0.69182 0.27496 0.0
C1350 C 0.93421 0.62006 0.15547 0.0
C1351 C 0.95405 0.63758 0.17415 0.0
C1352 C 0.98151 0.64831 0.27303 0.0
C1353 C 0.04663 0.68723 0.28478 0.0
C1354 C 0.02251 0.67814 0.26975 0.0
C1355 C 0.95446 0.64077 0.21549 0.0
C1356 C 0.97716 0.65554 0.2363 0.0
H1357 H 0.07418 0.69449 0.37318 0.0
H1358 H 0.03809 0.68985 0.34593 0.0
H1359 H 0.00666 0.65263 0.31684 0.0
H1360 H 0.89866 0.59843 0.23618 0.0
H1361 H 0.93296 0.62974 0.26861 0.0
C1362 C 0.62461 0.694 0.84418 0.0
C1363 C 0.60769 0.69383 0.81873 0.0
C1364 C 0.64264 0.69114 0.82907 0.0
C1365 C 0.65864 0.65983 0.79262 0.0
H1366 H 0.6931 0.68287 0.69439 0.0
C1367 C 0.69837 0.60957 0.72096 0.0
C1368 C 0.69387 0.60564 0.68007 0.0
C1369 C 0.69639 0.62731 0.7401 0.0
C1370 C 0.68353 0.67614 0.72182 0.0
H1371 H 0.59806 0.69325 0.75704 0.0
H1372 H 0.6297 0.68836 0.73059 0.0
H1373 H 0.67308 0.70203 0.72278 0.0
H1374 H 0.68649 0.6191 0.62657 0.0
H1375 H 0.68226 0.64901 0.65966 0.0
H1376 H 0.66734 0.63297 0.79065 0.0
C1377 C 0.62891 0.6906 0.7623 0.0
C1378 C 0.67216 0.68724 0.73813 0.0
C1379 C 0.61078 0.69345 0.77747 0.0
C1380 C 0.68975 0.62133 0.65824 0.0
C1381 C 0.68749 0.63878 0.67735 0.0
C1382 C 0.66964 0.64852 0.77607 0.0
C1383 C 0.64423 0.68813 0.78814 0.0
C1384 C 0.65918 0.67889 0.7733 0.0
C1385 C 0.68964 0.64132 0.71885 0.0
C1386 C 0.68175 0.65609 0.73984 0.0
H1387 H 0.62295 0.6946 0.87611 0.0
H1388 H 0.65447 0.68979 0.84965 0.0
H1389 H 0.6485 0.6527 0.81945 0.0
H1390 H 0.70186 0.59803 0.73869 0.0
H1391 H 0.69898 0.62919 0.77193 0.0
C1392 C 0.3077 0.92877 0.84296 0.0
C1393 C 0.30901 0.91252 0.81777 0.0
C1394 C 0.31036 0.94956 0.82782 0.0
C1395 C 0.3151 0.98352 0.73757 0.0
H1396 H 0.36825 0.03308 0.79227 0.0
C1397 C 0.38022 0.06857 0.6608 0.0
C1398 C 0.39561 0.08819 0.68333 0.0
C1399 C 0.3629 0.04848 0.67921 0.0
C1400 C 0.35299 0.01979 0.77708 0.0
H1401 H 0.31144 0.90421 0.75634 0.0
H1402 H 0.31592 0.94059 0.72977 0.0
H1403 H 0.34889 0.99419 0.81981 0.0
H1404 H 0.40275 0.10304 0.7425 0.0
H1405 H 0.37172 0.06835 0.77455 0.0
H1406 H 0.31927 0.0091 0.6946 0.0
C1407 C 0.31296 0.93722 0.76132 0.0
C1408 C 0.34192 0.99731 0.79289 0.0
C1409 C 0.31033 0.91633 0.77653 0.0
C1410 C 0.39144 0.08816 0.72426 0.0
C1411 C 0.3738 0.06808 0.7427 0.0
C1412 C 0.32592 0.00617 0.72204 0.0
C1413 C 0.31427 0.95455 0.78712 0.0
C1414 C 0.32329 0.97879 0.77279 0.0
C1415 C 0.36014 0.04751 0.7207 0.0
C1416 C 0.34557 0.02451 0.74085 0.0
H1417 H 0.30635 0.92621 0.87484 0.0
H1418 H 0.31085 0.9624 0.84831 0.0
H1419 H 0.30064 0.96961 0.72165 0.0
H1420 H 0.38263 0.06799 0.62908 0.0
H1421 H 0.35297 0.03321 0.66094 0.0
C1422 C 0.9263 0.30115 0.66302 0.0
C1423 C 0.91208 0.30701 0.68534 0.0
C1424 C 0.94655 0.30305 0.67956 0.0
C1425 C 0.98255 0.32041 0.77387 0.0
H1426 H 0.03344 0.34553 0.69837 0.0
C1427 C 0.07577 0.3743 0.83143 0.0
C1428 C 0.09011 0.39458 0.80962 0.0
C1429 C 0.05552 0.35617 0.81447 0.0
C1430 C 0.01955 0.3388 0.72009 0.0
H1431 H 0.90702 0.31795 0.74323 0.0
H1432 H 0.94261 0.32254 0.77145 0.0
H1433 H 0.99391 0.32755 0.67456 0.0
H1434 H 0.09547 0.41105 0.75208 0.0
H1435 H 0.05993 0.38042 0.72318 0.0
H1436 H 0.00822 0.33396 0.81944 0.0
C1437 C 0.9381 0.31567 0.74162 0.0
C1438 C 0.99657 0.3279 0.70629 0.0
C1439 C 0.91752 0.31308 0.7254 0.0
C1440 C 0.08488 0.39553 0.76954 0.0
C1441 C 0.0643 0.37776 0.75293 0.0
C1442 C 0.00554 0.33195 0.78768 0.0
C1443 C 0.9535 0.31167 0.71843 0.0
C1444 C 0.97766 0.31924 0.73298 0.0
C1445 C 0.0487 0.35825 0.77571 0.0
C1446 C 0.02446 0.34209 0.76101 0.0
H1447 H 0.92239 0.29624 0.63208 0.0
H1448 H 0.95729 0.29885 0.66105 0.0
H1449 H 0.96866 0.31329 0.79558 0.0
H1450 H 0.07951 0.37304 0.86236 0.0
H1451 H 0.04463 0.34112 0.83264 0.0
C1452 C 0.43193 0.17028 0.84399 0.0
C1453 C 0.42375 0.17009 0.80538 0.0
C1454 C 0.42515 0.17921 0.87565 0.0
C1455 C 0.41307 0.22581 0.88935 0.0
H1456 H 0.40361 0.20643 -0.00047 0.0
C1457 C 0.41103 0.25911 0.05936 0.0
C1458 C 0.43356 0.27859 0.06108 0.0
C1459 C 0.40297 0.24607 0.0246 0.0
C1460 C 0.40584 0.21197 0.9688 0.0
H1461 H 0.39942 0.17602 0.77102 0.0
H1462 H 0.38795 0.19181 0.8262 0.0
H1463 H 0.40037 0.17903 0.9481 0.0
H1464 H 0.46427 0.30142 0.02685 0.0
H1465 H 0.45013 0.2786 0.96561 0.0
H1466 H 0.41989 0.25921 0.91035 0.0
C1467 C 0.39988 0.18542 0.83172 0.0
C1468 C 0.40412 0.19631 0.93947 0.0
C1469 C 0.40637 0.17619 0.8002 0.0
C1470 C 0.44678 0.28655 0.02614 0.0
C1471 C 0.4387 0.2734 0.99119 0.0
C1472 C 0.41514 0.24162 0.91879 0.0
C1473 C 0.41016 0.18815 0.86918 0.0
C1474 C 0.40815 0.20321 0.89956 0.0
C1475 C 0.41733 0.25227 0.99096 0.0
C1476 C 0.41195 0.23497 0.95888 0.0
H1477 H 0.44515 0.16553 0.84918 0.0
H1478 H 0.43326 0.18101 0.90436 0.0
H1479 H 0.41657 0.23168 0.85879 0.0
H1480 H 0.40045 0.25276 0.08594 0.0
H1481 H 0.38624 0.23014 0.02498 0.0
C1482 C 0.71473 0.16129 0.02667 0.0
C1483 C 0.72304 0.15613 0.06128 0.0
C1484 C 0.72769 0.16659 0.99145 0.0
C1485 C 0.7591 0.17516 0.91827 0.0
H1486 H 0.82172 0.22346 0.94641 0.0
C1487 C 0.82399 0.23151 0.79852 0.0
C1488 C 0.83022 0.25503 0.80339 0.0
C1489 C 0.81477 0.21593 0.83025 0.0
C1490 C 0.80443 0.20981 0.93811 0.0
H1491 H 0.74936 0.14931 0.08529 0.0
H1492 H 0.77165 0.15812 0.02386 0.0
H1493 H 0.79474 0.19929 -0.00165 0.0
H1494 H 0.83487 0.2812 0.84681 0.0
H1495 H 0.8194 0.25408 0.90236 0.0
H1496 H 0.76861 0.18638 0.85809 0.0
C1497 C 0.75558 0.15865 0.02395 0.0
C1498 C 0.789 0.19586 0.96773 0.0
C1499 C 0.74273 0.15344 0.05897 0.0
C1500 C 0.83005 0.26319 0.84187 0.0
C1501 C 0.82113 0.24763 0.87373 0.0
C1502 C 0.77467 0.1889 0.88854 0.0
C1503 C 0.74899 0.1667 0.99063 0.0
C1504 C 0.76601 0.17877 0.95823 0.0
C1505 C 0.81215 0.22367 0.86761 0.0
C1506 C 0.79728 0.20674 0.89832 0.0
H1507 H 0.6997 0.16364 0.02785 0.0
H1508 H 0.72218 0.17272 0.96613 0.0
H1509 H 0.7415 0.16215 0.91017 0.0
H1510 H 0.82412 0.22458 0.76946 0.0
H1511 H 0.80835 0.19759 0.82499 0.0
C1512 C 0.84896 0.58928 0.05537 0.0
C1513 C 0.84586 0.56676 0.05812 0.0
C1514 C 0.84377 0.59684 0.02024 0.0
C1515 C 0.82667 0.58329 0.91486 0.0
H1516 H 0.77954 0.5993 0.94283 0.0
C1517 C 0.73906 0.56804 0.83902 0.0
C1518 C 0.74718 0.57599 0.80036 0.0
C1519 C 0.75473 0.57449 0.87069 0.0
C1520 C 0.79286 0.59518 0.93456 0.0
H1521 H 0.83762 0.53552 0.02529 0.0
H1522 H 0.82859 0.54878 0.96339 0.0
H1523 H 0.80351 0.59618 0.99476 0.0
H1524 H 0.77777 0.59949 0.76585 0.0
H1525 H 0.80494 0.6104 0.82106 0.0
H1526 H 0.81531 0.58145 0.85473 0.0
C1527 C 0.83501 0.56059 0.98845 0.0
C1528 C 0.8067 0.59352 0.96418 0.0
C1529 C 0.8403 0.55301 0.02378 0.0
C1530 C 0.77086 0.59276 0.79508 0.0
C1531 C 0.78654 0.59892 0.82662 0.0
C1532 C 0.81304 0.5853 0.88512 0.0
C1533 C 0.83534 0.58199 0.98723 0.0
C1534 C 0.82337 0.58703 0.95477 0.0
C1535 C 0.77876 0.5889 0.8642 0.0
C1536 C 0.79561 0.59069 0.89485 0.0
H1537 H 0.85341 0.60027 0.08146 0.0
H1538 H 0.84465 0.6136 0.01985 0.0
H1539 H 0.83935 0.57825 0.9068 0.0
H1540 H 0.72095 0.55526 0.84427 0.0
H1541 H 0.74825 0.56659 0.89948 0.0
C1542 C 0.26011 0.4138 0.43573 0.0
C1543 C 0.27971 0.43618 0.43263 0.0
C1544 C 0.24752 0.40649 0.47105 0.0
C1545 C 0.24478 0.4204 0.57649 0.0
H1546 H 0.18163 0.40487 0.54973 0.0
C1547 C 0.17273 0.4356 0.65437 0.0
C1548 C 0.17285 0.42734 0.69279 0.0
C1549 C 0.182 0.42943 0.62239 0.0
C1550 C 0.19909 0.40888 0.55766 0.0
H1551 H 0.30318 0.46744 0.46503 0.0
H1552 H 0.28115 0.45461 0.52729 0.0
H1553 H 0.20836 0.4078 0.49724 0.0
H1554 H 0.18006 0.40369 0.72655 0.0
H1555 H 0.19641 0.39327 0.67082 0.0
H1556 H 0.23564 0.42228 0.63686 0.0
C1557 C 0.27551 0.44272 0.50233 0.0
C1558 C 0.21437 0.41042 0.52772 0.0
C1559 C 0.2882 0.45004 0.4668 0.0
C1560 C 0.1799 0.41064 0.69752 0.0
C1561 C 0.18946 0.40476 0.66569 0.0
C1562 C 0.22936 0.41851 0.60655 0.0
C1563 C 0.25429 0.42147 0.50393 0.0
C1564 C 0.23753 0.4167 0.5367 0.0
C1565 C 0.19164 0.415 0.62833 0.0
C1566 C 0.20654 0.41327 0.59727 0.0
H1567 H 0.25333 0.40272 0.40978 0.0
H1568 H 0.23152 0.38984 0.47173 0.0
H1569 H 0.26251 0.42528 0.58421 0.0
H1570 H 0.1673 0.44834 0.64954 0.0
H1571 H 0.18337 0.4375 0.59379 0.0
C1572 C 0.57235 0.74072 0.65598 0.0
C1573 C 0.57964 0.74864 0.69495 0.0
C1574 C 0.57893 0.75657 0.62457 0.0
C1575 C 0.59915 0.7949 0.56132 0.0
H1576 H 0.58132 0.84067 0.58926 0.0
C1577 C 0.59117 0.84972 0.4403 0.0
C1578 C 0.56863 0.84663 0.43841 0.0
C1579 C 0.5992 0.84479 0.47516 0.0
C1580 C 0.5866 0.82819 0.58113 0.0
H1581 H 0.60221 0.77915 0.73039 0.0
H1582 H 0.61341 0.80665 0.67559 0.0
H1583 H 0.58496 0.81689 0.64123 0.0
H1584 H 0.53781 0.83861 0.47241 0.0
H1585 H 0.55185 0.82995 0.53377 0.0
H1586 H 0.59983 0.80539 0.50112 0.0
C1587 C 0.6023 0.78824 0.66958 0.0
C1588 C 0.58888 0.81471 0.61084 0.0
C1589 C 0.59599 0.77238 0.70089 0.0
C1590 C 0.55531 0.84126 0.47325 0.0
C1591 C 0.56334 0.8362 0.50828 0.0
C1592 C 0.59717 0.80856 0.53172 0.0
C1593 C 0.59284 0.7806 0.63161 0.0
C1594 C 0.59457 0.7975 0.60106 0.0
C1595 C 0.58478 0.83658 0.50875 0.0
C1596 C 0.5903 0.82494 0.54117 0.0
H1597 H 0.55993 0.72256 0.65023 0.0
H1598 H 0.57146 0.75017 0.59551 0.0
H1599 H 0.60353 0.78176 0.55298 0.0
H1600 H 0.60183 0.85403 0.4138 0.0
H1601 H 0.61599 0.84573 0.47493 0.0
C1602 C 0.23256 0.82349 0.69946 0.0
C1603 C 0.25616 0.82999 0.69459 0.0
C1604 C 0.217 0.81413 0.66773 0.0
C1605 C 0.21101 0.80409 0.55983 0.0
H1606 H 0.16357 0.74097 0.58723 0.0
C1607 C 0.16236 0.71475 0.4701 0.0
C1608 C 0.15703 0.72318 0.43582 0.0
C1609 C 0.16782 0.72756 0.5055 0.0
C1610 C 0.17653 0.75862 0.57928 0.0
H1611 H 0.28244 0.83491 0.65119 0.0
H1612 H 0.25536 0.81923 0.59562 0.0
H1613 H 0.18776 0.76793 0.63951 0.0
H1614 H 0.15006 0.74957 0.41266 0.0
H1615 H 0.15915 0.7716 0.47438 0.0
H1616 H 0.20045 0.79463 0.49954 0.0
C1617 C 0.24884 0.82084 0.62425 0.0
C1618 C 0.19025 0.77409 0.60913 0.0
C1619 C 0.26438 0.82989 0.65612 0.0
C1620 C 0.15433 0.74284 0.4387 0.0
C1621 C 0.1597 0.75555 0.47389 0.0
C1622 C 0.19708 0.78876 0.53011 0.0
C1623 C 0.22483 0.81165 0.63036 0.0
C1624 C 0.20799 0.79679 0.59954 0.0
C1625 C 0.16791 0.74884 0.50685 0.0
C1626 C 0.18006 0.7657 0.5394 0.0
H1627 H 0.22558 0.82352 0.72853 0.0
H1628 H 0.19862 0.80753 0.67298 0.0
H1629 H 0.22459 0.82144 0.55167 0.0
H1630 H 0.16472 0.69973 0.46851 0.0
H1631 H 0.17406 0.72196 0.53053 0.0
C1632 C 0.58726 0.74188 0.94337 0.0
C1633 C 0.5659 0.72125 0.93779 0.0
C1634 C 0.5927 0.75328 0.97992 0.0
C1635 C 0.60067 0.77538 0.06196 0.0
H1636 H 0.54578 0.77821 0.0926 0.0
C1637 C 0.5921 0.82475 0.19821 0.0
C1638 C 0.57606 0.83272 0.19461 0.0
C1639 C 0.59623 0.81387 0.16617 0.0
C1640 C 0.56135 0.77782 0.08414 0.0
H1641 H 0.53489 0.69468 0.96714 0.0
H1642 H 0.54449 0.71448 0.03152 0.0
H1643 H 0.54231 0.74967 0.04404 0.0
H1644 H 0.55527 0.8394 0.15263 0.0
H1645 H 0.56295 0.82099 0.09669 0.0
H1646 H 0.61971 0.80408 0.10186 0.0
C1647 C 0.55684 0.72209 0.00735 0.0
C1648 C 0.55926 0.76107 0.05692 0.0
C1649 C 0.55144 0.71059 0.97068 0.0
C1650 C 0.56729 0.833 0.15674 0.0
C1651 C 0.57149 0.82221 0.12474 0.0
C1652 C 0.60274 0.79214 0.08956 0.0
C1653 C 0.57679 0.74428 0.01152 0.0
C1654 C 0.57891 0.75978 0.04507 0.0
C1655 C 0.58461 0.81106 0.12998 0.0
C1656 C 0.58313 0.7938 0.10033 0.0
H1657 H 0.5988 0.75034 0.91845 0.0
H1658 H 0.60822 0.77026 0.98204 0.0
H1659 H 0.61614 0.77483 0.05341 0.0
H1660 H 0.59948 0.82452 0.22679 0.0
H1661 H 0.60669 0.80573 0.17098 0.0
C1662 C 0.26019 0.84899 0.93956 0.0
C1663 C 0.27956 0.84577 0.93739 0.0
C1664 C 0.24718 0.84384 0.9744 0.0
C1665 C 0.24269 0.82658 0.07983 0.0
H1666 H 0.18001 0.77905 0.05033 0.0
C1667 C 0.17084 0.73843 0.15423 0.0
C1668 C 0.17058 0.74637 0.19285 0.0
C1669 C 0.17996 0.75418 0.12266 0.0
C1670 C 0.19731 0.7925 0.05902 0.0
H1671 H 0.30228 0.83747 0.97101 0.0
H1672 H 0.27956 0.82856 0.03242 0.0
H1673 H 0.20746 0.80336 -0.00097 0.0
H1674 H 0.17665 0.77666 0.22729 0.0
H1675 H 0.19277 0.80399 0.17226 0.0
H1676 H 0.23271 0.81501 0.13975 0.0
C1677 C 0.27439 0.83501 0.00711 0.0
C1678 C 0.21301 0.80652 0.02976 0.0
C1679 C 0.28749 0.84023 0.97206 0.0
C1680 C 0.17685 0.76989 0.1981 0.0
C1681 C 0.18628 0.78566 0.16667 0.0
C1682 C 0.22685 0.81277 0.1092 0.0
C1683 C 0.25333 0.83537 0.00771 0.0
C1684 C 0.23604 0.82331 0.03975 0.0
C1685 C 0.18904 0.77812 0.12921 0.0
C1686 C 0.2042 0.7952 0.09892 0.0
H1687 H 0.25385 0.85343 0.9132 0.0
H1688 H 0.23131 0.84473 0.97432 0.0
H1689 H 0.26031 0.83935 0.08831 0.0
H1690 H 0.16598 0.72044 0.14899 0.0
H1691 H 0.18178 0.74789 0.09395 0.0
C1692 C 0.16019 0.44519 0.96995 0.0
C1693 C 0.1554 0.4322 0.93484 0.0
C1694 C 0.16554 0.43727 0.00482 0.0
C1695 C 0.17467 0.41436 0.07703 0.0
H1696 H 0.22328 0.40072 0.04778 0.0
C1697 C 0.23239 0.40736 0.19573 0.0
C1698 C 0.25583 0.42474 0.19012 0.0
C1699 C 0.21652 0.40057 0.16438 0.0
C1700 C 0.20955 0.40416 0.0564 0.0
H1701 H 0.14923 0.39956 0.90956 0.0
H1702 H 0.15804 0.38557 0.97041 0.0
H1703 H 0.19879 0.40335 0.99634 0.0
H1704 H 0.28154 0.44589 0.14579 0.0
H1705 H 0.25393 0.43352 0.09097 0.0
H1706 H 0.18619 0.41614 0.13701 0.0
C1707 C 0.1583 0.40204 0.97098 0.0
C1708 C 0.1954 0.40553 0.02706 0.0
C1709 C 0.15307 0.40995 0.93629 0.0
C1710 C 0.26361 0.43267 0.15132 0.0
C1711 C 0.24776 0.4256 0.11985 0.0
C1712 C 0.18863 0.41267 0.10648 0.0
C1713 C 0.16603 0.41627 0.00482 0.0
C1714 C 0.1782 0.41123 0.03693 0.0
C1715 C 0.22386 0.41057 0.12667 0.0
C1716 C 0.20662 0.40818 0.0963 0.0
H1717 H 0.16228 0.46247 0.96945 0.0
H1718 H 0.17141 0.44861 0.03053 0.0
H1719 H 0.16157 0.41876 0.08546 0.0
H1720 H 0.22575 0.4006 0.22507 0.0
H1721 H 0.19824 0.3886 0.1702 0.0
C1722 C 0.82478 0.59344 0.29571 0.0
C1723 C 0.83155 0.57657 0.301 0.0
C1724 C 0.81527 0.59964 0.32722 0.0
C1725 C 0.77509 0.58625 0.38552 0.0
H1726 H 0.79515 0.59658 0.49534 0.0
C1727 C 0.71497 0.55386 0.52351 0.0
C1728 C 0.72315 0.5674 0.55808 0.0
C1729 C 0.728 0.56152 0.48834 0.0
C1730 C 0.7894 0.59408 0.46471 0.0
H1731 H 0.83682 0.5557 0.34491 0.0
H1732 H 0.82085 0.56708 0.40006 0.0
H1733 H 0.82231 0.59965 0.44357 0.0
H1734 H 0.7493 0.60064 0.58201 0.0
H1735 H 0.77167 0.61413 0.52066 0.0
H1736 H 0.74175 0.57942 0.40698 0.0
C1737 C 0.82237 0.57504 0.37129 0.0
C1738 C 0.80493 0.59571 0.43518 0.0
C1739 C 0.83159 0.56855 0.33965 0.0
C1740 C 0.74275 0.58983 0.55572 0.0
C1741 C 0.75566 0.59746 0.52075 0.0
C1742 C 0.75941 0.58428 0.41517 0.0
C1743 C 0.81288 0.58955 0.36479 0.0
C1744 C 0.79781 0.5914 0.39538 0.0
C1745 C 0.74922 0.58279 0.4875 0.0
C1746 C 0.76631 0.58782 0.45514 0.0
H1747 H 0.8247 0.60023 0.26649 0.0
H1748 H 0.80846 0.61121 0.32165 0.0
H1749 H 0.76905 0.58254 0.35507 0.0
H1750 H 0.70002 0.53644 0.52471 0.0
H1751 H 0.72259 0.54984 0.46309 0.0
C1752 C 0.40923 0.23272 0.29883 0.0
C1753 C 0.42642 0.25629 0.30368 0.0
C1754 C 0.40294 0.21716 0.33057 0.0
C1755 C 0.40691 0.21116 0.4385 0.0
H1756 H 0.42211 0.16338 0.41118 0.0
C1757 C 0.44708 0.16203 0.52825 0.0
C1758 C 0.43337 0.15684 0.56259 0.0
C1759 C 0.43977 0.16754 0.49285 0.0
C1760 C 0.41755 0.17643 0.41911 0.0
H1761 H 0.44786 0.28252 0.34707 0.0
H1762 H 0.43631 0.25543 0.40266 0.0
H1763 H 0.41956 0.18767 0.35886 0.0
H1764 H 0.40012 0.15017 0.58585 0.0
H1765 H 0.38724 0.15934 0.52413 0.0
H1766 H 0.40574 0.2006 0.49881 0.0
C1767 C 0.42817 0.24894 0.37403 0.0
C1768 C 0.41591 0.19021 0.38924 0.0
C1769 C 0.43475 0.26448 0.34215 0.0
C1770 C 0.41108 0.15433 0.55977 0.0
C1771 C 0.40379 0.15975 0.52458 0.0
C1772 C 0.40819 0.19718 0.46825 0.0
C1773 C 0.41326 0.22496 0.36795 0.0
C1774 C 0.41114 0.20808 0.3988 0.0
C1775 C 0.41867 0.16781 0.49156 0.0
C1776 C 0.41405 0.18002 0.45899 0.0
H1777 H 0.4022 0.22577 0.26976 0.0
H1778 H 0.39107 0.19881 0.32534 0.0
H1779 H 0.40327 0.22483 0.44663 0.0
H1780 H 0.4644 0.16424 0.52978 0.0
H1781 H 0.45158 0.17366 0.46777 0.0
C1782 C 0.73884 0.17023 0.34203 0.0
C1783 C 0.74684 0.17042 0.30327 0.0
C1784 C 0.75457 0.17909 0.37367 0.0
C1785 C 0.79252 0.19581 0.43752 0.0
H1786 H 0.84013 0.25884 0.41009 0.0
C1787 C 0.84811 0.25728 0.55922 0.0
C1788 C 0.84564 0.27711 0.56116 0.0
C1789 C 0.84308 0.24444 0.52422 0.0
C1790 C 0.82713 0.24121 0.41807 0.0
H1791 H 0.77723 0.17718 0.26847 0.0
H1792 H 0.80451 0.1928 0.32364 0.0
H1793 H 0.81593 0.23193 0.35784 0.0
H1794 H 0.83872 0.30067 0.52712 0.0
H1795 H 0.82992 0.27818 0.46551 0.0
H1796 H 0.80295 0.20528 0.49783 0.0
C1797 C 0.78616 0.18615 0.32931 0.0
C1798 C 0.8134 0.22575 0.38822 0.0
C1799 C 0.77042 0.17701 0.29779 0.0
C1800 C 0.84089 0.28553 0.52625 0.0
C1801 C 0.83575 0.27256 0.49107 0.0
C1802 C 0.80643 0.21114 0.46727 0.0
C1803 C 0.77855 0.18838 0.36706 0.0
C1804 C 0.79555 0.20311 0.39781 0.0
C1805 C 0.83542 0.25115 0.49054 0.0
C1806 C 0.82349 0.23419 0.45799 0.0
H1807 H 0.7208 0.16512 0.34745 0.0
H1808 H 0.7482 0.1805 0.40257 0.0
H1809 H 0.77888 0.17849 0.4457 0.0
H1810 H 0.85193 0.25056 0.58577 0.0
H1811 H 0.84347 0.2283 0.5244 0.0
loop_
_geom_bond_atom_site_label_1
_geom_bond_atom_site_label_2
_geom_bond_distance
_geom_bond_site_symmetry_2
_ccdc_geom_bond_type
C0 O12 1.241 . S
C0 O13 1.280 . S
C1 O14 1.277 . S
C1 O15 1.245 . S
C2 O26 1.247 . S
C2 O28 1.289 . S
Mg3 O4 1.926 . S
Mg3 O13 1.984 . S
Mg3 O15 1.988 . S
Mg3 O16 2.061 . S
O4 Mg3 1.926 . S
O4 Mg5 1.986 . S
O4 Mg6 1.917 . S
Mg5 O4 1.986 . S
Mg5 O12 2.042 . S
Mg5 O14 2.041 . S
Mg5 O20 2.038 . S
Mg5 O28 2.238 . S
Mg6 O4 1.917 . S
Mg6 O7 1.917 . S
Mg6 O17 2.106 . S
Mg6 O19 2.079 . S
Mg6 O28 2.106 . S
Mg6 O29 2.079 . S
O7 Mg6 1.917 . S
O7 Mg8 1.926 . S
O7 Mg9 1.986 . S
Mg8 O7 1.926 . S
Mg8 O22 1.984 . S
Mg8 O25 1.988 . S
Mg8 O26 2.061 . S
Mg9 O7 1.986 . S
Mg9 O17 2.238 . S
Mg9 O21 2.042 . S
Mg9 O23 2.041 . S
Mg9 O30 2.038 . S
C10 O16 1.247 . S
C10 O17 1.289 . S
C11 O29 1.245 . S
C11 O30 1.274 . S
O12 C0 1.241 . S
O12 Mg5 2.042 . S
O13 C0 1.280 . S
O13 Mg3 1.984 . S
O14 C1 1.277 . S
O14 Mg5 2.041 . S
O15 C1 1.245 . S
O15 Mg3 1.988 . S
O16 Mg3 2.061 . S
O16 C10 1.247 . S
O17 Mg6 2.106 . S
O17 Mg9 2.238 . S
O17 C10 1.289 . S
C18 O19 1.245 . S
C18 O20 1.274 . S
O19 Mg6 2.079 . S
O19 C18 1.245 . S
O20 Mg5 2.038 . S
O20 C18 1.274 . S
O21 Mg9 2.042 . S
O21 C24 1.241 . S
O22 Mg8 1.984 . S
O22 C24 1.280 . S
O23 Mg9 2.041 . S
O23 C27 1.277 . S
C24 O21 1.241 . S
C24 O22 1.280 . S
O25 Mg8 1.988 . S
O25 C27 1.245 . S
O26 C2 1.247 . S
O26 Mg8 2.061 . S
C27 O23 1.277 . S
C27 O25 1.245 . S
O28 C2 1.289 . S
O28 Mg5 2.238 . S
O28 Mg6 2.106 . S
O29 Mg6 2.079 . S
O29 C11 1.245 . S
O30 Mg9 2.038 . S
O30 C11 1.274 . S
C31 O43 1.241 . S
C31 O44 1.280 . S
C32 O45 1.277 . S
C32 O46 1.245 . S
C33 O57 1.247 . S
C33 O59 1.289 . S
Mg34 O35 1.926 . S
Mg34 O44 1.984 . S
Mg34 O46 1.988 . S
Mg34 O47 2.061 . S
O35 Mg34 1.926 . S
O35 Mg36 1.986 . S
O35 Mg37 1.917 . S
Mg36 O35 1.986 . S
Mg36 O43 2.042 . S
Mg36 O45 2.041 . S
Mg36 O51 2.038 . S
Mg36 O59 2.238 . S
Mg37 O35 1.917 . S
Mg37 O38 1.917 . S
Mg37 O48 2.106 . S
Mg37 O50 2.079 . S
Mg37 O59 2.106 . S
Mg37 O60 2.079 . S
O38 Mg37 1.917 . S
O38 Mg39 1.926 . S
O38 Mg40 1.986 . S
Mg39 O38 1.926 . S
Mg39 O53 1.984 . S
Mg39 O56 1.988 . S
Mg39 O57 2.061 . S
Mg40 O38 1.986 . S
Mg40 O48 2.238 . S
Mg40 O52 2.042 . S
Mg40 O54 2.041 . S
Mg40 O61 2.038 . S
C41 O47 1.247 . S
C41 O48 1.289 . S
C42 O60 1.245 . S
C42 O61 1.274 . S
O43 C31 1.241 . S
O43 Mg36 2.042 . S
O44 C31 1.280 . S
O44 Mg34 1.984 . S
O45 C32 1.277 . S
O45 Mg36 2.041 . S
O46 C32 1.245 . S
O46 Mg34 1.988 . S
O47 Mg34 2.061 . S
O47 C41 1.247 . S
O48 Mg37 2.106 . S
O48 Mg40 2.238 . S
O48 C41 1.289 . S
C49 O50 1.245 . S
C49 O51 1.274 . S
O50 Mg37 2.079 . S
O50 C49 1.245 . S
O51 Mg36 2.038 . S
O51 C49 1.274 . S
O52 Mg40 2.042 . S
O52 C55 1.241 . S
O53 Mg39 1.984 . S
O53 C55 1.280 . S
O54 Mg40 2.041 . S
O54 C58 1.277 . S
C55 O52 1.241 . S
C55 O53 1.280 . S
O56 Mg39 1.988 . S
O56 C58 1.245 . S
O57 C33 1.247 . S
O57 Mg39 2.061 . S
C58 O54 1.277 . S
C58 O56 1.245 . S
O59 C33 1.289 . S
O59 Mg36 2.238 . S
O59 Mg37 2.106 . S
O60 Mg37 2.079 . S
O60 C42 1.245 . S
O61 Mg40 2.038 . S
O61 C42 1.274 . S
C62 O74 1.241 . S
C62 O75 1.280 . S
C63 O76 1.277 . S
C63 O77 1.245 . S
C64 O88 1.247 . S
C64 O90 1.289 . S
Mg65 O66 1.926 . S
Mg65 O75 1.984 . S
Mg65 O77 1.988 . S
Mg65 O78 2.061 . S
O66 Mg65 1.926 . S
O66 Mg67 1.986 . S
O66 Mg68 1.917 . S
Mg67 O66 1.986 . S
Mg67 O74 2.042 . S
Mg67 O76 2.041 . S
Mg67 O82 2.038 . S
Mg67 O90 2.238 . S
Mg68 O66 1.917 . S
Mg68 O69 1.917 . S
Mg68 O79 2.106 . S
Mg68 O81 2.079 . S
Mg68 O90 2.106 . S
Mg68 O91 2.079 . S
O69 Mg68 1.917 . S
O69 Mg70 1.926 . S
O69 Mg71 1.986 . S
Mg70 O69 1.926 . S
Mg70 O84 1.984 . S
Mg70 O87 1.988 . S
Mg70 O88 2.061 . S
Mg71 O69 1.986 . S
Mg71 O79 2.238 . S
Mg71 O83 2.042 . S
Mg71 O85 2.041 . S
Mg71 O92 2.038 . S
C72 O78 1.247 . S
C72 O79 1.289 . S
C73 O91 1.245 . S
C73 O92 1.274 . S
O74 C62 1.241 . S
O74 Mg67 2.042 . S
O75 C62 1.280 . S
O75 Mg65 1.984 . S
O76 C63 1.277 . S
O76 Mg67 2.041 . S
O77 C63 1.245 . S
O77 Mg65 1.988 . S
O78 Mg65 2.061 . S
O78 C72 1.247 . S
O79 Mg68 2.106 . S
O79 Mg71 2.238 . S
O79 C72 1.289 . S
C80 O81 1.245 . S
C80 O82 1.274 . S
O81 Mg68 2.079 . S
O81 C80 1.245 . S
O82 Mg67 2.038 . S
O82 C80 1.274 . S
O83 Mg71 2.042 . S
O83 C86 1.241 . S
O84 Mg70 1.984 . S
O84 C86 1.280 . S
O85 Mg71 2.041 . S
O85 C89 1.277 . S
C86 O83 1.241 . S
C86 O84 1.280 . S
O87 Mg70 1.988 . S
O87 C89 1.245 . S
O88 C64 1.247 . S
O88 Mg70 2.061 . S
C89 O85 1.277 . S
C89 O87 1.245 . S
O90 C64 1.289 . S
O90 Mg67 2.238 . S
O90 Mg68 2.106 . S
O91 Mg68 2.079 . S
O91 C73 1.245 . S
O92 Mg71 2.038 . S
O92 C73 1.274 . S
C93 O105 1.241 . S
C93 O106 1.280 . S
C94 O107 1.277 . S
C94 O108 1.245 . S
C95 O119 1.247 . S
C95 O121 1.289 . S
Mg96 O97 1.926 . S
Mg96 O106 1.984 . S
Mg96 O108 1.988 . S
Mg96 O109 2.061 . S
O97 Mg96 1.926 . S
O97 Mg98 1.986 . S
O97 Mg99 1.917 . S
Mg98 O97 1.986 . S
Mg98 O105 2.042 . S
Mg98 O107 2.041 . S
Mg98 O113 2.038 . S
Mg98 O121 2.238 . S
Mg99 O97 1.917 . S
Mg99 O100 1.917 . S
Mg99 O110 2.106 . S
Mg99 O112 2.079 . S
Mg99 O121 2.106 . S
Mg99 O122 2.079 . S
O100 Mg99 1.917 . S
O100 Mg101 1.926 . S
O100 Mg102 1.986 . S
Mg101 O100 1.926 . S
Mg101 O115 1.984 . S
Mg101 O118 1.988 . S
Mg101 O119 2.061 . S
Mg102 O100 1.986 . S
Mg102 O110 2.238 . S
Mg102 O114 2.042 . S
Mg102 O116 2.041 . S
Mg102 O123 2.038 . S
C103 O109 1.247 . S
C103 O110 1.289 . S
C104 O122 1.245 . S
C104 O123 1.274 . S
O105 C93 1.241 . S
O105 Mg98 2.042 . S
O106 C93 1.280 . S
O106 Mg96 1.984 . S
O107 C94 1.277 . S
O107 Mg98 2.041 . S
O108 C94 1.245 . S
O108 Mg96 1.988 . S
O109 Mg96 2.061 . S
O109 C103 1.247 . S
O110 Mg99 2.106 . S
O110 Mg102 2.238 . S
O110 C103 1.289 . S
C111 O112 1.245 . S
C111 O113 1.274 . S
O112 Mg99 2.079 . S
O112 C111 1.245 . S
O113 Mg98 2.038 . S
O113 C111 1.274 . S
O114 Mg102 2.042 . S
O114 C117 1.241 . S
O115 Mg101 1.984 . S
O115 C117 1.280 . S
O116 Mg102 2.041 . S
O116 C120 1.277 . S
C117 O114 1.241 . S
C117 O115 1.280 . S
O118 Mg101 1.988 . S
O118 C120 1.245 . S
O119 C95 1.247 . S
O119 Mg101 2.061 . S
C120 O116 1.277 . S
C120 O118 1.245 . S
O121 C95 1.289 . S
O121 Mg98 2.238 . S
O121 Mg99 2.106 . S
O122 Mg99 2.079 . S
O122 C104 1.245 . S
O123 Mg102 2.038 . S
O123 C104 1.274 . S
C124 O136 1.241 . S
C124 O137 1.280 . S
C125 O138 1.277 . S
C125 O139 1.245 . S
C126 O150 1.247 . S
C126 O152 1.289 . S
Mg127 O128 1.926 . S
Mg127 O137 1.984 . S
Mg127 O139 1.988 . S
Mg127 O140 2.061 . S
O128 Mg127 1.926 . S
O128 Mg129 1.986 . S
O128 Mg130 1.917 . S
Mg129 O128 1.986 . S
Mg129 O136 2.042 . S
Mg129 O138 2.041 . S
Mg129 O144 2.038 . S
Mg129 O152 2.238 . S
Mg130 O128 1.917 . S
Mg130 O131 1.917 . S
Mg130 O141 2.106 . S
Mg130 O143 2.079 . S
Mg130 O152 2.106 . S
Mg130 O153 2.079 . S
O131 Mg130 1.917 . S
O131 Mg132 1.926 . S
O131 Mg133 1.986 . S
Mg132 O131 1.926 . S
Mg132 O146 1.984 . S
Mg132 O149 1.988 . S
Mg132 O150 2.061 . S
Mg133 O131 1.986 . S
Mg133 O141 2.238 . S
Mg133 O145 2.042 . S
Mg133 O147 2.041 . S
Mg133 O154 2.038 . S
C134 O140 1.247 . S
C134 O141 1.289 . S
C135 O153 1.245 . S
C135 O154 1.274 . S
O136 C124 1.241 . S
O136 Mg129 2.042 . S
O137 C124 1.280 . S
O137 Mg127 1.984 . S
O138 C125 1.277 . S
O138 Mg129 2.041 . S
O139 C125 1.245 . S
O139 Mg127 1.988 . S
O140 Mg127 2.061 . S
O140 C134 1.247 . S
O141 Mg130 2.106 . S
O141 Mg133 2.238 . S
O141 C134 1.289 . S
C142 O143 1.245 . S
C142 O144 1.274 . S
O143 Mg130 2.079 . S
O143 C142 1.245 . S
O144 Mg129 2.038 . S
O144 C142 1.274 . S
O145 Mg133 2.042 . S
O145 C148 1.241 . S
O146 Mg132 1.984 . S
O146 C148 1.280 . S
O147 Mg133 2.041 . S
O147 C151 1.277 . S
C148 O145 1.241 . S
C148 O146 1.280 . S
O149 Mg132 1.988 . S
O149 C151 1.245 . S
O150 C126 1.247 . S
O150 Mg132 2.061 . S
C151 O147 1.277 . S
C151 O149 1.245 . S
O152 C126 1.289 . S
O152 Mg129 2.238 . S
O152 Mg130 2.106 . S
O153 Mg130 2.079 . S
O153 C135 1.245 . S
O154 Mg133 2.038 . S
O154 C135 1.274 . S
C155 O167 1.241 . S
C155 O168 1.280 . S
C156 O169 1.277 . S
C156 O170 1.245 . S
C157 O181 1.247 . S
C157 O183 1.289 . S
Mg158 O159 1.926 . S
Mg158 O168 1.984 . S
Mg158 O170 1.988 . S
Mg158 O171 2.061 . S
O159 Mg158 1.926 . S
O159 Mg160 1.986 . S
O159 Mg161 1.917 . S
Mg160 O159 1.986 . S
Mg160 O167 2.042 . S
Mg160 O169 2.041 . S
Mg160 O175 2.038 . S
Mg160 O183 2.238 . S
Mg161 O159 1.917 . S
Mg161 O162 1.917 . S
Mg161 O172 2.106 . S
Mg161 O174 2.079 . S
Mg161 O183 2.106 . S
Mg161 O184 2.079 . S
O162 Mg161 1.917 . S
O162 Mg163 1.926 . S
O162 Mg164 1.986 . S
Mg163 O162 1.926 . S
Mg163 O177 1.984 . S
Mg163 O180 1.988 . S
Mg163 O181 2.061 . S
Mg164 O162 1.986 . S
Mg164 O172 2.238 . S
Mg164 O176 2.042 . S
Mg164 O178 2.041 . S
Mg164 O185 2.038 . S
C165 O171 1.247 . S
C165 O172 1.289 . S
C166 O184 1.245 . S
C166 O185 1.274 . S
O167 C155 1.241 . S
O167 Mg160 2.042 . S
O168 C155 1.280 . S
O168 Mg158 1.984 . S
O169 C156 1.277 . S
O169 Mg160 2.041 . S
O170 C156 1.245 . S
O170 Mg158 1.988 . S
O171 Mg158 2.061 . S
O171 C165 1.247 . S
O172 Mg161 2.106 . S
O172 Mg164 2.238 . S
O172 C165 1.289 . S
C173 O174 1.245 . S
C173 O175 1.274 . S
O174 Mg161 2.079 . S
O174 C173 1.245 . S
O175 Mg160 2.038 . S
O175 C173 1.274 . S
O176 Mg164 2.042 . S
O176 C179 1.241 . S
O177 Mg163 1.984 . S
O177 C179 1.280 . S
O178 Mg164 2.041 . S
O178 C182 1.277 . S
C179 O176 1.241 . S
C179 O177 1.280 . S
O180 Mg163 1.988 . S
O180 C182 1.245 . S
O181 C157 1.247 . S
O181 Mg163 2.061 . S
C182 O178 1.277 . S
C182 O180 1.245 . S
O183 C157 1.289 . S
O183 Mg160 2.238 . S
O183 Mg161 2.106 . S
O184 Mg161 2.079 . S
O184 C166 1.245 . S
O185 Mg164 2.038 . S
O185 C166 1.274 . S
C186 O198 1.241 . S
C186 O199 1.280 . S
C187 O200 1.277 . S
C187 O201 1.245 . S
C188 O212 1.247 . S
C188 O214 1.289 . S
Mg189 O190 1.926 . S
Mg189 O199 1.984 . S
Mg189 O201 1.988 . S
Mg189 O202 2.061 . S
O190 Mg189 1.926 . S
O190 Mg191 1.986 . S
O190 Mg192 1.917 . S
Mg191 O190 1.986 . S
Mg191 O198 2.042 . S
Mg191 O200 2.041 . S
Mg191 O206 2.038 . S
Mg191 O214 2.238 . S
Mg192 O190 1.917 . S
Mg192 O193 1.917 . S
Mg192 O203 2.106 . S
Mg192 O205 2.079 . S
Mg192 O214 2.106 . S
Mg192 O215 2.079 . S
O193 Mg192 1.917 . S
O193 Mg194 1.926 . S
O193 Mg195 1.986 . S
Mg194 O193 1.926 . S
Mg194 O208 1.984 . S
Mg194 O211 1.988 . S
Mg194 O212 2.061 . S
Mg195 O193 1.986 . S
Mg195 O203 2.238 . S
Mg195 O207 2.042 . S
Mg195 O209 2.041 . S
Mg195 O216 2.038 . S
C196 O202 1.247 . S
C196 O203 1.289 . S
C197 O215 1.245 . S
C197 O216 1.274 . S
O198 C186 1.241 . S
O198 Mg191 2.042 . S
O199 C186 1.280 . S
O199 Mg189 1.984 . S
O200 C187 1.277 . S
O200 Mg191 2.041 . S
O201 C187 1.245 . S
O201 Mg189 1.988 . S
O202 Mg189 2.061 . S
O202 C196 1.247 . S
O203 Mg192 2.106 . S
O203 Mg195 2.238 . S
O203 C196 1.289 . S
C204 O205 1.245 . S
C204 O206 1.274 . S
O205 Mg192 2.079 . S
O205 C204 1.245 . S
O206 Mg191 2.038 . S
O206 C204 1.274 . S
O207 Mg195 2.042 . S
O207 C210 1.241 . S
O208 Mg194 1.984 . S
O208 C210 1.280 . S
O209 Mg195 2.041 . S
O209 C213 1.277 . S
C210 O207 1.241 . S
C210 O208 1.280 . S
O211 Mg194 1.988 . S
O211 C213 1.245 . S
O212 C188 1.247 . S
O212 Mg194 2.061 . S
C213 O209 1.277 . S
C213 O211 1.245 . S
O214 C188 1.289 . S
O214 Mg191 2.238 . S
O214 Mg192 2.106 . S
O215 Mg192 2.079 . S
O215 C197 1.245 . S
O216 Mg195 2.038 . S
O216 C197 1.274 . S
C217 O229 1.241 . S
C217 O230 1.280 . S
C218 O231 1.277 . S
C218 O232 1.245 . S
C219 O243 1.247 . S
C219 O245 1.289 . S
Mg220 O221 1.926 . S
Mg220 O230 1.984 . S
Mg220 O232 1.988 . S
Mg220 O233 2.061 . S
O221 Mg220 1.926 . S
O221 Mg222 1.986 . S
O221 Mg223 1.917 . S
Mg222 O221 1.986 . S
Mg222 O229 2.042 . S
Mg222 O231 2.041 . S
Mg222 O237 2.038 . S
Mg222 O245 2.238 . S
Mg223 O221 1.917 . S
Mg223 O224 1.917 . S
Mg223 O234 2.106 . S
Mg223 O236 2.079 . S
Mg223 O245 2.106 . S
Mg223 O246 2.079 . S
O224 Mg223 1.917 . S
O224 Mg225 1.926 . S
O224 Mg226 1.986 . S
Mg225 O224 1.926 . S
Mg225 O239 1.984 . S
Mg225 O242 1.988 . S
Mg225 O243 2.061 . S
Mg226 O224 1.986 . S
Mg226 O234 2.238 . S
Mg226 O238 2.042 . S
Mg226 O240 2.041 . S
Mg226 O247 2.038 . S
C227 O233 1.247 . S
C227 O234 1.289 . S
C228 O246 1.245 . S
C228 O247 1.274 . S
O229 C217 1.241 . S
O229 Mg222 2.042 . S
O230 C217 1.280 . S
O230 Mg220 1.984 . S
O231 C218 1.277 . S
O231 Mg222 2.041 . S
O232 C218 1.245 . S
O232 Mg220 1.988 . S
O233 Mg220 2.061 . S
O233 C227 1.247 . S
O234 Mg223 2.106 . S
O234 Mg226 2.238 . S
O234 C227 1.289 . S
C235 O236 1.245 . S
C235 O237 1.274 . S
O236 Mg223 2.079 . S
O236 C235 1.245 . S
O237 Mg222 2.038 . S
O237 C235 1.274 . S
O238 Mg226 2.042 . S
O238 C241 1.241 . S
O239 Mg225 1.984 . S
O239 C241 1.280 . S
O240 Mg226 2.041 . S
O240 C244 1.277 . S
C241 O238 1.241 . S
C241 O239 1.280 . S
O242 Mg225 1.988 . S
O242 C244 1.245 . S
O243 C219 1.247 . S
O243 Mg225 2.061 . S
C244 O240 1.277 . S
C244 O242 1.245 . S
O245 C219 1.289 . S
O245 Mg222 2.238 . S
O245 Mg223 2.106 . S
O246 Mg223 2.079 . S
O246 C228 1.245 . S
O247 Mg226 2.038 . S
O247 C228 1.274 . S
C248 O260 1.241 . S
C248 O261 1.280 . S
C249 O262 1.277 . S
C249 O263 1.245 . S
C250 O274 1.247 . S
C250 O276 1.289 . S
Mg251 O252 1.926 . S
Mg251 O261 1.984 . S
Mg251 O263 1.988 . S
Mg251 O264 2.061 . S
O252 Mg251 1.926 . S
O252 Mg253 1.986 . S
O252 Mg254 1.917 . S
Mg253 O252 1.986 . S
Mg253 O260 2.042 . S
Mg253 O262 2.041 . S
Mg253 O268 2.038 . S
Mg253 O276 2.238 . S
Mg254 O252 1.917 . S
Mg254 O255 1.917 . S
Mg254 O265 2.106 . S
Mg254 O267 2.079 . S
Mg254 O276 2.106 . S
Mg254 O277 2.079 . S
O255 Mg254 1.917 . S
O255 Mg256 1.926 . S
O255 Mg257 1.986 . S
Mg256 O255 1.926 . S
Mg256 O270 1.984 . S
Mg256 O273 1.988 . S
Mg256 O274 2.061 . S
Mg257 O255 1.986 . S
Mg257 O265 2.238 . S
Mg257 O269 2.042 . S
Mg257 O271 2.041 . S
Mg257 O278 2.038 . S
C258 O264 1.247 . S
C258 O265 1.289 . S
C259 O277 1.245 . S
C259 O278 1.274 . S
O260 C248 1.241 . S
O260 Mg253 2.042 . S
O261 C248 1.280 . S
O261 Mg251 1.984 . S
O262 C249 1.277 . S
O262 Mg253 2.041 . S
O263 C249 1.245 . S
O263 Mg251 1.988 . S
O264 Mg251 2.061 . S
O264 C258 1.247 . S
O265 Mg254 2.106 . S
O265 Mg257 2.238 . S
O265 C258 1.289 . S
C266 O267 1.245 . S
C266 O268 1.274 . S
O267 Mg254 2.079 . S
O267 C266 1.245 . S
O268 Mg253 2.038 . S
O268 C266 1.274 . S
O269 Mg257 2.042 . S
O269 C272 1.241 . S
O270 Mg256 1.984 . S
O270 C272 1.280 . S
O271 Mg257 2.041 . S
O271 C275 1.277 . S
C272 O269 1.241 . S
C272 O270 1.280 . S
O273 Mg256 1.988 . S
O273 C275 1.245 . S
O274 C250 1.247 . S
O274 Mg256 2.061 . S
C275 O271 1.277 . S
C275 O273 1.245 . S
O276 C250 1.289 . S
O276 Mg253 2.238 . S
O276 Mg254 2.106 . S
O277 Mg254 2.079 . S
O277 C259 1.245 . S
O278 Mg257 2.038 . S
O278 C259 1.274 . S
C279 O291 1.241 . S
C279 O292 1.280 . S
C280 O293 1.277 . S
C280 O294 1.245 . S
C281 O305 1.247 . S
C281 O307 1.289 . S
Mg282 O283 1.926 . S
Mg282 O292 1.984 . S
Mg282 O294 1.988 . S
Mg282 O295 2.061 . S
O283 Mg282 1.926 . S
O283 Mg284 1.986 . S
O283 Mg285 1.917 . S
Mg284 O283 1.986 . S
Mg284 O291 2.042 . S
Mg284 O293 2.041 . S
Mg284 O299 2.038 . S
Mg284 O307 2.238 . S
Mg285 O283 1.917 . S
Mg285 O286 1.917 . S
Mg285 O296 2.106 . S
Mg285 O298 2.079 . S
Mg285 O307 2.106 . S
Mg285 O308 2.079 . S
O286 Mg285 1.917 . S
O286 Mg287 1.926 . S
O286 Mg288 1.986 . S
Mg287 O286 1.926 . S
Mg287 O301 1.984 . S
Mg287 O304 1.988 . S
Mg287 O305 2.061 . S
Mg288 O286 1.986 . S
Mg288 O296 2.238 . S
Mg288 O300 2.042 . S
Mg288 O302 2.041 . S
Mg288 O309 2.038 . S
C289 O295 1.247 . S
C289 O296 1.289 . S
C290 O308 1.245 . S
C290 O309 1.274 . S
O291 C279 1.241 . S
O291 Mg284 2.042 . S
O292 C279 1.280 . S
O292 Mg282 1.984 . S
O293 C280 1.277 . S
O293 Mg284 2.041 . S
O294 C280 1.245 . S
O294 Mg282 1.988 . S
O295 Mg282 2.061 . S
O295 C289 1.247 . S
O296 Mg285 2.106 . S
O296 Mg288 2.238 . S
O296 C289 1.289 . S
C297 O298 1.245 . S
C297 O299 1.274 . S
O298 Mg285 2.079 . S
O298 C297 1.245 . S
O299 Mg284 2.038 . S
O299 C297 1.274 . S
O300 Mg288 2.042 . S
O300 C303 1.241 . S
O301 Mg287 1.984 . S
O301 C303 1.280 . S
O302 Mg288 2.041 . S
O302 C306 1.277 . S
C303 O300 1.241 . S
C303 O301 1.280 . S
O304 Mg287 1.988 . S
O304 C306 1.245 . S
O305 C281 1.247 . S
O305 Mg287 2.061 . S
C306 O302 1.277 . S
C306 O304 1.245 . S
O307 C281 1.289 . S
O307 Mg284 2.238 . S
O307 Mg285 2.106 . S
O308 Mg285 2.079 . S
O308 C290 1.245 . S
O309 Mg288 2.038 . S
O309 C290 1.274 . S
C310 O322 1.241 . S
C310 O323 1.280 . S
C311 O324 1.277 . S
C311 O325 1.245 . S
C312 O336 1.247 . S
C312 O338 1.289 . S
Mg313 O314 1.926 . S
Mg313 O323 1.984 . S
Mg313 O325 1.988 . S
Mg313 O326 2.061 . S
O314 Mg313 1.926 . S
O314 Mg315 1.986 . S
O314 Mg316 1.917 . S
Mg315 O314 1.986 . S
Mg315 O322 2.042 . S
Mg315 O324 2.041 . S
Mg315 O330 2.038 . S
Mg315 O338 2.238 . S
Mg316 O314 1.917 . S
Mg316 O317 1.917 . S
Mg316 O327 2.106 . S
Mg316 O329 2.079 . S
Mg316 O338 2.106 . S
Mg316 O339 2.079 . S
O317 Mg316 1.917 . S
O317 Mg318 1.926 . S
O317 Mg319 1.986 . S
Mg318 O317 1.926 . S
Mg318 O332 1.984 . S
Mg318 O335 1.988 . S
Mg318 O336 2.061 . S
Mg319 O317 1.986 . S
Mg319 O327 2.238 . S
Mg319 O331 2.042 . S
Mg319 O333 2.041 . S
Mg319 O340 2.038 . S
C320 O326 1.247 . S
C320 O327 1.289 . S
C321 O339 1.245 . S
C321 O340 1.274 . S
O322 C310 1.241 . S
O322 Mg315 2.042 . S
O323 C310 1.280 . S
O323 Mg313 1.984 . S
O324 C311 1.277 . S
O324 Mg315 2.041 . S
O325 C311 1.245 . S
O325 Mg313 1.988 . S
O326 Mg313 2.061 . S
O326 C320 1.247 . S
O327 Mg316 2.106 . S
O327 Mg319 2.238 . S
O327 C320 1.289 . S
C328 O329 1.245 . S
C328 O330 1.274 . S
O329 Mg316 2.079 . S
O329 C328 1.245 . S
O330 Mg315 2.038 . S
O330 C328 1.274 . S
O331 Mg319 2.042 . S
O331 C334 1.241 . S
O332 Mg318 1.984 . S
O332 C334 1.280 . S
O333 Mg319 2.041 . S
O333 C337 1.277 . S
C334 O331 1.241 . S
C334 O332 1.280 . S
O335 Mg318 1.988 . S
O335 C337 1.245 . S
O336 C312 1.247 . S
O336 Mg318 2.061 . S
C337 O333 1.277 . S
C337 O335 1.245 . S
O338 C312 1.289 . S
O338 Mg315 2.238 . S
O338 Mg316 2.106 . S
O339 Mg316 2.079 . S
O339 C321 1.245 . S
O340 Mg319 2.038 . S
O340 C321 1.274 . S
C341 O353 1.241 . S
C341 O354 1.280 . S
C342 O355 1.277 . S
C342 O356 1.245 . S
C343 O367 1.247 . S
C343 O369 1.289 . S
Mg344 O345 1.926 . S
Mg344 O354 1.984 . S
Mg344 O356 1.988 . S
Mg344 O357 2.061 . S
O345 Mg344 1.926 . S
O345 Mg346 1.986 . S
O345 Mg347 1.917 . S
Mg346 O345 1.986 . S
Mg346 O353 2.042 . S
Mg346 O355 2.041 . S
Mg346 O361 2.038 . S
Mg346 O369 2.238 . S
Mg347 O345 1.917 . S
Mg347 O348 1.917 . S
Mg347 O358 2.106 . S
Mg347 O360 2.079 . S
Mg347 O369 2.106 . S
Mg347 O370 2.079 . S
O348 Mg347 1.917 . S
O348 Mg349 1.926 . S
O348 Mg350 1.986 . S
Mg349 O348 1.926 . S
Mg349 O363 1.984 . S
Mg349 O366 1.988 . S
Mg349 O367 2.061 . S
Mg350 O348 1.986 . S
Mg350 O358 2.238 . S
Mg350 O362 2.042 . S
Mg350 O364 2.041 . S
Mg350 O371 2.038 . S
C351 O357 1.247 . S
C351 O358 1.289 . S
C352 O370 1.245 . S
C352 O371 1.274 . S
O353 C341 1.241 . S
O353 Mg346 2.042 . S
O354 C341 1.280 . S
O354 Mg344 1.984 . S
O355 C342 1.277 . S
O355 Mg346 2.041 . S
O356 C342 1.245 . S
O356 Mg344 1.988 . S
O357 Mg344 2.061 . S
O357 C351 1.247 . S
O358 Mg347 2.106 . S
O358 Mg350 2.238 . S
O358 C351 1.289 . S
C359 O360 1.245 . S
C359 O361 1.274 . S
O360 Mg347 2.079 . S
O360 C359 1.245 . S
O361 Mg346 2.038 . S
O361 C359 1.274 . S
O362 Mg350 2.042 . S
O362 C365 1.241 . S
O363 Mg349 1.984 . S
O363 C365 1.280 . S
O364 Mg350 2.041 . S
O364 C368 1.277 . S
C365 O362 1.241 . S
C365 O363 1.280 . S
O366 Mg349 1.988 . S
O366 C368 1.245 . S
O367 C343 1.247 . S
O367 Mg349 2.061 . S
C368 O364 1.277 . S
C368 O366 1.245 . S
O369 C343 1.289 . S
O369 Mg346 2.238 . S
O369 Mg347 2.106 . S
O370 Mg347 2.079 . S
O370 C352 1.245 . S
O371 Mg350 2.038 . S
O371 C352 1.274 . S
C372 C373 1.349 . S
C372 C374 1.327 . S
C372 H397 0.950 . S
C373 C372 1.349 . S
C373 C389 1.349 . S
C374 C372 1.327 . S
C374 C393 1.429 . S
C374 H398 0.950 . S
C375 C392 1.574 . S
C375 C394 1.368 . S
C375 H399 0.949 . S
H376 C380 0.949 . S
C377 C378 1.349 . S
C377 C379 1.327 . S
C377 H400 0.950 . S
C378 C377 1.349 . S
C378 C390 1.349 . S
C379 C377 1.327 . S
C379 C395 1.429 . S
C379 H401 0.950 . S
C380 H376 0.949 . S
C380 C388 1.574 . S
C380 C396 1.368 . S
H381 C389 0.950 . S
H382 C387 0.950 . S
H383 C388 0.949 . S
H384 C390 0.950 . S
H385 C391 0.950 . S
H386 C392 0.949 . S
C387 H382 0.950 . S
C387 C389 1.327 . S
C387 C393 1.429 . S
C388 C380 1.574 . S
C388 H383 0.949 . S
C388 C394 1.368 . S
C389 C373 1.349 . S
C389 H381 0.950 . S
C389 C387 1.327 . S
C390 C378 1.349 . S
C390 H384 0.950 . S
C390 C391 1.327 . S
C391 H385 0.950 . S
C391 C390 1.327 . S
C391 C395 1.429 . S
C392 C375 1.574 . S
C392 H386 0.949 . S
C392 C396 1.368 . S
C393 C374 1.429 . S
C393 C387 1.429 . S
C393 C394 1.523 . S
C394 C375 1.368 . S
C394 C388 1.368 . S
C394 C393 1.523 . S
C395 C379 1.429 . S
C395 C391 1.429 . S
C395 C396 1.523 . S
C396 C380 1.368 . S
C396 C392 1.368 . S
C396 C395 1.523 . S
H397 C372 0.950 . S
H398 C374 0.950 . S
H399 C375 0.949 . S
H400 C377 0.950 . S
H401 C379 0.950 . S
C402 C403 1.349 . S
C402 C404 1.327 . S
C402 H427 0.950 . S
C403 C402 1.349 . S
C403 C419 1.349 . S
C404 C402 1.327 . S
C404 C423 1.429 . S
C404 H428 0.950 . S
C405 C422 1.574 . S
C405 C424 1.368 . S
C405 H429 0.949 . S
H406 C410 0.949 . S
C407 C408 1.349 . S
C407 C409 1.327 . S
C407 H430 0.950 . S
C408 C407 1.349 . S
C408 C420 1.349 . S
C409 C407 1.327 . S
C409 C425 1.429 . S
C409 H431 0.950 . S
C410 H406 0.949 . S
C410 C418 1.574 . S
C410 C426 1.368 . S
H411 C419 0.950 . S
H412 C417 0.950 . S
H413 C418 0.949 . S
H414 C420 0.950 . S
H415 C421 0.950 . S
H416 C422 0.949 . S
C417 H412 0.950 . S
C417 C419 1.327 . S
C417 C423 1.429 . S
C418 C410 1.574 . S
C418 H413 0.949 . S
C418 C424 1.368 . S
C419 C403 1.349 . S
C419 H411 0.950 . S
C419 C417 1.327 . S
C420 C408 1.349 . S
C420 H414 0.950 . S
C420 C421 1.327 . S
C421 H415 0.950 . S
C421 C420 1.327 . S
C421 C425 1.429 . S
C422 C405 1.574 . S
C422 H416 0.949 . S
C422 C426 1.368 . S
C423 C404 1.429 . S
C423 C417 1.429 . S
C423 C424 1.523 . S
C424 C405 1.368 . S
C424 C418 1.368 . S
C424 C423 1.523 . S
C425 C409 1.429 . S
C425 C421 1.429 . S
C425 C426 1.523 . S
C426 C410 1.368 . S
C426 C422 1.368 . S
C426 C425 1.523 . S
H427 C402 0.950 . S
H428 C404 0.950 . S
H429 C405 0.949 . S
H430 C407 0.950 . S
H431 C409 0.950 . S
C432 C433 1.349 . S
C432 C434 1.327 . S
C432 H457 0.950 . S
C433 C432 1.349 . S
C433 C449 1.349 . S
C434 C432 1.327 . S
C434 C453 1.429 . S
C434 H458 0.950 . S
C435 C452 1.574 . S
C435 C454 1.368 . S
C435 H459 0.949 . S
H436 C440 0.949 . S
C437 C438 1.349 . S
C437 C439 1.327 . S
C437 H460 0.950 . S
C438 C437 1.349 . S
C438 C450 1.349 . S
C439 C437 1.327 . S
C439 C455 1.429 . S
C439 H461 0.950 . S
C440 H436 0.949 . S
C440 C448 1.574 . S
C440 C456 1.368 . S
H441 C449 0.950 . S
H442 C447 0.950 . S
H443 C448 0.949 . S
H444 C450 0.950 . S
H445 C451 0.950 . S
H446 C452 0.949 . S
C447 H442 0.950 . S
C447 C449 1.327 . S
C447 C453 1.429 . S
C448 C440 1.574 . S
C448 H443 0.949 . S
C448 C454 1.368 . S
C449 C433 1.349 . S
C449 H441 0.950 . S
C449 C447 1.327 . S
C450 C438 1.349 . S
C450 H444 0.950 . S
C450 C451 1.327 . S
C451 H445 0.950 . S
C451 C450 1.327 . S
C451 C455 1.429 . S
C452 C435 1.574 . S
C452 H446 0.949 . S
C452 C456 1.368 . S
C453 C434 1.429 . S
C453 C447 1.429 . S
C453 C454 1.523 . S
C454 C435 1.368 . S
C454 C448 1.368 . S
C454 C453 1.523 . S
C455 C439 1.429 . S
C455 C451 1.429 . S
C455 C456 1.523 . S
C456 C440 1.368 . S
C456 C452 1.368 . S
C456 C455 1.523 . S
H457 C432 0.950 . S
H458 C434 0.950 . S
H459 C435 0.949 . S
H460 C437 0.950 . S
H461 C439 0.950 . S
C462 C463 1.349 . S
C462 C464 1.327 . S
C462 H487 0.950 . S
C463 C462 1.349 . S
C463 C479 1.349 . S
C464 C462 1.327 . S
C464 C483 1.429 . S
C464 H488 0.950 . S
C465 C482 1.574 . S
C465 C484 1.368 . S
C465 H489 0.949 . S
H466 C470 0.949 . S
C467 C468 1.349 . S
C467 C469 1.327 . S
C467 H490 0.950 . S
C468 C467 1.349 . S
C468 C480 1.349 . S
C469 C467 1.327 . S
C469 C485 1.429 . S
C469 H491 0.950 . S
C470 H466 0.949 . S
C470 C478 1.574 . S
C470 C486 1.368 . S
H471 C479 0.950 . S
H472 C477 0.950 . S
H473 C478 0.949 . S
H474 C480 0.950 . S
H475 C481 0.950 . S
H476 C482 0.949 . S
C477 H472 0.950 . S
C477 C479 1.327 . S
C477 C483 1.429 . S
C478 C470 1.574 . S
C478 H473 0.949 . S
C478 C484 1.368 . S
C479 C463 1.349 . S
C479 H471 0.950 . S
C479 C477 1.327 . S
C480 C468 1.349 . S
C480 H474 0.950 . S
C480 C481 1.327 . S
C481 H475 0.950 . S
C481 C480 1.327 . S
C481 C485 1.429 . S
C482 C465 1.574 . S
C482 H476 0.949 . S
C482 C486 1.368 . S
C483 C464 1.429 . S
C483 C477 1.429 . S
C483 C484 1.523 . S
C484 C465 1.368 . S
C484 C478 1.368 . S
C484 C483 1.523 . S
C485 C469 1.429 . S
C485 C481 1.429 . S
C485 C486 1.523 . S
C486 C470 1.368 . S
C486 C482 1.368 . S
C486 C485 1.523 . S
H487 C462 0.950 . S
H488 C464 0.950 . S
H489 C465 0.949 . S
H490 C467 0.950 . S
H491 C469 0.950 . S
C492 C493 1.349 . S
C492 C494 1.327 . S
C492 H517 0.950 . S
C493 C492 1.349 . S
C493 C509 1.349 . S
C494 C492 1.327 . S
C494 C513 1.429 . S
C494 H518 0.950 . S
C495 C512 1.574 . S
C495 C514 1.368 . S
C495 H519 0.949 . S
H496 C500 0.949 . S
C497 C498 1.349 . S
C497 C499 1.327 . S
C497 H520 0.950 . S
C498 C497 1.349 . S
C498 C510 1.349 . S
C499 C497 1.327 . S
C499 C515 1.429 . S
C499 H521 0.950 . S
C500 H496 0.949 . S
C500 C508 1.574 . S
C500 C516 1.368 . S
H501 C509 0.950 . S
H502 C507 0.950 . S
H503 C508 0.949 . S
H504 C510 0.950 . S
H505 C511 0.950 . S
H506 C512 0.949 . S
C507 H502 0.950 . S
C507 C509 1.327 . S
C507 C513 1.429 . S
C508 C500 1.574 . S
C508 H503 0.949 . S
C508 C514 1.368 . S
C509 C493 1.349 . S
C509 H501 0.950 . S
C509 C507 1.327 . S
C510 C498 1.349 . S
C510 H504 0.950 . S
C510 C511 1.327 . S
C511 H505 0.950 . S
C511 C510 1.327 . S
C511 C515 1.429 . S
C512 C495 1.574 . S
C512 H506 0.949 . S
C512 C516 1.368 . S
C513 C494 1.429 . S
C513 C507 1.429 . S
C513 C514 1.523 . S
C514 C495 1.368 . S
C514 C508 1.368 . S
C514 C513 1.523 . S
C515 C499 1.429 . S
C515 C511 1.429 . S
C515 C516 1.523 . S
C516 C500 1.368 . S
C516 C512 1.368 . S
C516 C515 1.523 . S
H517 C492 0.950 . S
H518 C494 0.950 . S
H519 C495 0.949 . S
H520 C497 0.950 . S
H521 C499 0.950 . S
C522 C523 1.349 . S
C522 C524 1.327 . S
C522 H547 0.950 . S
C523 C522 1.349 . S
C523 C539 1.349 . S
C524 C522 1.327 . S
C524 C543 1.429 . S
C524 H548 0.950 . S
C525 C542 1.574 . S
C525 C544 1.368 . S
C525 H549 0.949 . S
H526 C530 0.949 . S
C527 C528 1.349 . S
C527 C529 1.327 . S
C527 H550 0.950 . S
C528 C527 1.349 . S
C528 C540 1.349 . S
C529 C527 1.327 . S
C529 C545 1.429 . S
C529 H551 0.950 . S
C530 H526 0.949 . S
C530 C538 1.574 . S
C530 C546 1.368 . S
H531 C539 0.950 . S
H532 C537 0.950 . S
H533 C538 0.949 . S
H534 C540 0.950 . S
H535 C541 0.950 . S
H536 C542 0.949 . S
C537 H532 0.950 . S
C537 C539 1.327 . S
C537 C543 1.429 . S
C538 C530 1.574 . S
C538 H533 0.949 . S
C538 C544 1.368 . S
C539 C523 1.349 . S
C539 H531 0.950 . S
C539 C537 1.327 . S
C540 C528 1.349 . S
C540 H534 0.950 . S
C540 C541 1.327 . S
C541 H535 0.950 . S
C541 C540 1.327 . S
C541 C545 1.429 . S
C542 C525 1.574 . S
C542 H536 0.949 . S
C542 C546 1.368 . S
C543 C524 1.429 . S
C543 C537 1.429 . S
C543 C544 1.523 . S
C544 C525 1.368 . S
C544 C538 1.368 . S
C544 C543 1.523 . S
C545 C529 1.429 . S
C545 C541 1.429 . S
C545 C546 1.523 . S
C546 C530 1.368 . S
C546 C542 1.368 . S
C546 C545 1.523 . S
H547 C522 0.950 . S
H548 C524 0.950 . S
H549 C525 0.949 . S
H550 C527 0.950 . S
H551 C529 0.950 . S
C552 C553 1.349 . S
C552 C554 1.327 . S
C552 H577 0.950 . S
C553 C552 1.349 . S
C553 C569 1.349 . S
C554 C552 1.327 . S
C554 C573 1.429 . S
C554 H578 0.950 . S
C555 C572 1.574 . S
C555 C574 1.368 . S
C555 H579 0.949 . S
H556 C560 0.949 . S
C557 C558 1.349 . S
C557 C559 1.327 . S
C557 H580 0.950 . S
C558 C557 1.349 . S
C558 C570 1.349 . S
C559 C557 1.327 . S
C559 C575 1.429 . S
C559 H581 0.950 . S
C560 H556 0.949 . S
C560 C568 1.574 . S
C560 C576 1.368 . S
H561 C569 0.950 . S
H562 C567 0.950 . S
H563 C568 0.949 . S
H564 C570 0.950 . S
H565 C571 0.950 . S
H566 C572 0.949 . S
C567 H562 0.950 . S
C567 C569 1.327 . S
C567 C573 1.429 . S
C568 C560 1.574 . S
C568 H563 0.949 . S
C568 C574 1.368 . S
C569 C553 1.349 . S
C569 H561 0.950 . S
C569 C567 1.327 . S
C570 C558 1.349 . S
C570 H564 0.950 . S
C570 C571 1.327 . S
C571 H565 0.950 . S
C571 C570 1.327 . S
C571 C575 1.429 . S
C572 C555 1.574 . S
C572 H566 0.949 . S
C572 C576 1.368 . S
C573 C554 1.429 . S
C573 C567 1.429 . S
C573 C574 1.523 . S
C574 C555 1.368 . S
C574 C568 1.368 . S
C574 C573 1.523 . S
C575 C559 1.429 . S
C575 C571 1.429 . S
C575 C576 1.523 . S
C576 C560 1.368 . S
C576 C572 1.368 . S
C576 C575 1.523 . S
H577 C552 0.950 . S
H578 C554 0.950 . S
H579 C555 0.949 . S
H580 C557 0.950 . S
H581 C559 0.950 . S
C582 C583 1.349 . S
C582 C584 1.327 . S
C582 H607 0.950 . S
C583 C582 1.349 . S
C583 C599 1.349 . S
C584 C582 1.327 . S
C584 C603 1.429 . S
C584 H608 0.950 . S
C585 C602 1.574 . S
C585 C604 1.368 . S
C585 H609 0.949 . S
H586 C590 0.949 . S
C587 C588 1.349 . S
C587 C589 1.327 . S
C587 H610 0.950 . S
C588 C587 1.349 . S
C588 C600 1.349 . S
C589 C587 1.327 . S
C589 C605 1.429 . S
C589 H611 0.950 . S
C590 H586 0.949 . S
C590 C598 1.574 . S
C590 C606 1.368 . S
H591 C599 0.950 . S
H592 C597 0.950 . S
H593 C598 0.949 . S
H594 C600 0.950 . S
H595 C601 0.950 . S
H596 C602 0.949 . S
C597 H592 0.950 . S
C597 C599 1.327 . S
C597 C603 1.429 . S
C598 C590 1.574 . S
C598 H593 0.949 . S
C598 C604 1.368 . S
C599 C583 1.349 . S
C599 H591 0.950 . S
C599 C597 1.327 . S
C600 C588 1.349 . S
C600 H594 0.950 . S
C600 C601 1.327 . S
C601 H595 0.950 . S
C601 C600 1.327 . S
C601 C605 1.429 . S
C602 C585 1.574 . S
C602 H596 0.949 . S
C602 C606 1.368 . S
C603 C584 1.429 . S
C603 C597 1.429 . S
C603 C604 1.523 . S
C604 C585 1.368 . S
C604 C598 1.368 . S
C604 C603 1.523 . S
C605 C589 1.429 . S
C605 C601 1.429 . S
C605 C606 1.523 . S
C606 C590 1.368 . S
C606 C602 1.368 . S
C606 C605 1.523 . S
H607 C582 0.950 . S
H608 C584 0.950 . S
H609 C585 0.949 . S
H610 C587 0.950 . S
H611 C589 0.950 . S
C612 C613 1.349 . S
C612 C614 1.327 . S
C612 H637 0.950 . S
C613 C612 1.349 . S
C613 C629 1.349 . S
C614 C612 1.327 . S
C614 C633 1.429 . S
C614 H638 0.950 . S
C615 C632 1.574 . S
C615 C634 1.368 . S
C615 H639 0.949 . S
H616 C620 0.949 . S
C617 C618 1.349 . S
C617 C619 1.327 . S
C617 H640 0.950 . S
C618 C617 1.349 . S
C618 C630 1.349 . S
C619 C617 1.327 . S
C619 C635 1.429 . S
C619 H641 0.950 . S
C620 H616 0.949 . S
C620 C628 1.574 . S
C620 C636 1.368 . S
H621 C629 0.950 . S
H622 C627 0.950 . S
H623 C628 0.949 . S
H624 C630 0.950 . S
H625 C631 0.950 . S
H626 C632 0.949 . S
C627 H622 0.950 . S
C627 C629 1.327 . S
C627 C633 1.429 . S
C628 C620 1.574 . S
C628 H623 0.949 . S
C628 C634 1.368 . S
C629 C613 1.349 . S
C629 H621 0.950 . S
C629 C627 1.327 . S
C630 C618 1.349 . S
C630 H624 0.950 . S
C630 C631 1.327 . S
C631 H625 0.950 . S
C631 C630 1.327 . S
C631 C635 1.429 . S
C632 C615 1.574 . S
C632 H626 0.949 . S
C632 C636 1.368 . S
C633 C614 1.429 . S
C633 C627 1.429 . S
C633 C634 1.523 . S
C634 C615 1.368 . S
C634 C628 1.368 . S
C634 C633 1.523 . S
C635 C619 1.429 . S
C635 C631 1.429 . S
C635 C636 1.523 . S
C636 C620 1.368 . S
C636 C632 1.368 . S
C636 C635 1.523 . S
H637 C612 0.950 . S
H638 C614 0.950 . S
H639 C615 0.949 . S
H640 C617 0.950 . S
H641 C619 0.950 . S
C642 C643 1.349 . S
C642 C644 1.327 . S
C642 H667 0.950 . S
C643 C642 1.349 . S
C643 C659 1.349 . S
C644 C642 1.327 . S
C644 C663 1.429 . S
C644 H668 0.950 . S
C645 C662 1.574 . S
C645 C664 1.368 . S
C645 H669 0.949 . S
H646 C650 0.949 . S
C647 C648 1.349 . S
C647 C649 1.327 . S
C647 H670 0.950 . S
C648 C647 1.349 . S
C648 C660 1.349 . S
C649 C647 1.327 . S
C649 C665 1.429 . S
C649 H671 0.950 . S
C650 H646 0.949 . S
C650 C658 1.574 . S
C650 C666 1.368 . S
H651 C659 0.950 . S
H652 C657 0.950 . S
H653 C658 0.949 . S
H654 C660 0.950 . S
H655 C661 0.950 . S
H656 C662 0.949 . S
C657 H652 0.950 . S
C657 C659 1.327 . S
C657 C663 1.429 . S
C658 C650 1.574 . S
C658 H653 0.949 . S
C658 C664 1.368 . S
C659 C643 1.349 . S
C659 H651 0.950 . S
C659 C657 1.327 . S
C660 C648 1.349 . S
C660 H654 0.950 . S
C660 C661 1.327 . S
C661 H655 0.950 . S
C661 C660 1.327 . S
C661 C665 1.429 . S
C662 C645 1.574 . S
C662 H656 0.949 . S
C662 C666 1.368 . S
C663 C644 1.429 . S
C663 C657 1.429 . S
C663 C664 1.523 . S
C664 C645 1.368 . S
C664 C658 1.368 . S
C664 C663 1.523 . S
C665 C649 1.429 . S
C665 C661 1.429 . S
C665 C666 1.523 . S
C666 C650 1.368 . S
C666 C662 1.368 . S
C666 C665 1.523 . S
H667 C642 0.950 . S
H668 C644 0.950 . S
H669 C645 0.949 . S
H670 C647 0.950 . S
H671 C649 0.950 . S
C672 C673 1.349 . S
C672 C674 1.327 . S
C672 H697 0.950 . S
C673 C672 1.349 . S
C673 C689 1.349 . S
C674 C672 1.327 . S
C674 C693 1.429 . S
C674 H698 0.950 . S
C675 C692 1.574 . S
C675 C694 1.368 . S
C675 H699 0.949 . S
H676 C680 0.949 . S
C677 C678 1.349 . S
C677 C679 1.327 . S
C677 H700 0.950 . S
C678 C677 1.349 . S
C678 C690 1.349 . S
C679 C677 1.327 . S
C679 C695 1.429 . S
C679 H701 0.950 . S
C680 H676 0.949 . S
C680 C688 1.574 . S
C680 C696 1.368 . S
H681 C689 0.950 . S
H682 C687 0.950 . S
H683 C688 0.949 . S
H684 C690 0.950 . S
H685 C691 0.950 . S
H686 C692 0.949 . S
C687 H682 0.950 . S
C687 C689 1.327 . S
C687 C693 1.429 . S
C688 C680 1.574 . S
C688 H683 0.949 . S
C688 C694 1.368 . S
C689 C673 1.349 . S
C689 H681 0.950 . S
C689 C687 1.327 . S
C690 C678 1.349 . S
C690 H684 0.950 . S
C690 C691 1.327 . S
C691 H685 0.950 . S
C691 C690 1.327 . S
C691 C695 1.429 . S
C692 C675 1.574 . S
C692 H686 0.949 . S
C692 C696 1.368 . S
C693 C674 1.429 . S
C693 C687 1.429 . S
C693 C694 1.523 . S
C694 C675 1.368 . S
C694 C688 1.368 . S
C694 C693 1.523 . S
C695 C679 1.429 . S
C695 C691 1.429 . S
C695 C696 1.523 . S
C696 C680 1.368 . S
C696 C692 1.368 . S
C696 C695 1.523 . S
H697 C672 0.950 . S
H698 C674 0.950 . S
H699 C675 0.949 . S
H700 C677 0.950 . S
H701 C679 0.950 . S
C702 C703 1.349 . S
C702 C704 1.327 . S
C702 H727 0.950 . S
C703 C702 1.349 . S
C703 C719 1.349 . S
C704 C702 1.327 . S
C704 C723 1.429 . S
C704 H728 0.950 . S
C705 C722 1.574 . S
C705 C724 1.368 . S
C705 H729 0.949 . S
H706 C710 0.949 . S
C707 C708 1.349 . S
C707 C709 1.327 . S
C707 H730 0.950 . S
C708 C707 1.349 . S
C708 C720 1.349 . S
C709 C707 1.327 . S
C709 C725 1.429 . S
C709 H731 0.950 . S
C710 H706 0.949 . S
C710 C718 1.574 . S
C710 C726 1.368 . S
H711 C719 0.950 . S
H712 C717 0.950 . S
H713 C718 0.949 . S
H714 C720 0.950 . S
H715 C721 0.950 . S
H716 C722 0.949 . S
C717 H712 0.950 . S
C717 C719 1.327 . S
C717 C723 1.429 . S
C718 C710 1.574 . S
C718 H713 0.949 . S
C718 C724 1.368 . S
C719 C703 1.349 . S
C719 H711 0.950 . S
C719 C717 1.327 . S
C720 C708 1.349 . S
C720 H714 0.950 . S
C720 C721 1.327 . S
C721 H715 0.950 . S
C721 C720 1.327 . S
C721 C725 1.429 . S
C722 C705 1.574 . S
C722 H716 0.949 . S
C722 C726 1.368 . S
C723 C704 1.429 . S
C723 C717 1.429 . S
C723 C724 1.523 . S
C724 C705 1.368 . S
C724 C718 1.368 . S
C724 C723 1.523 . S
C725 C709 1.429 . S
C725 C721 1.429 . S
C725 C726 1.523 . S
C726 C710 1.368 . S
C726 C722 1.368 . S
C726 C725 1.523 . S
H727 C702 0.950 . S
H728 C704 0.950 . S
H729 C705 0.949 . S
H730 C707 0.950 . S
H731 C709 0.950 . S
C732 C733 1.349 . S
C732 C734 1.327 . S
C732 H757 0.950 . S
C733 C732 1.349 . S
C733 C749 1.349 . S
C734 C732 1.327 . S
C734 C753 1.429 . S
C734 H758 0.973 . S
C735 C752 1.574 . S
C735 C754 1.368 . S
C735 H759 0.949 . S
H736 C740 0.949 . S
C737 C738 1.349 . S
C737 C739 1.327 . S
C737 H760 0.950 . S
C738 C737 1.349 . S
C738 C750 1.349 . S
C739 C737 1.327 . S
C739 C755 1.429 . S
C739 H761 0.973 . S
C740 H736 0.949 . S
C740 C748 1.574 . S
C740 C756 1.368 . S
H741 C749 0.950 . S
H742 C747 0.950 . S
H743 C748 0.949 . S
H744 C750 0.950 . S
H745 C751 0.950 . S
H746 C752 0.949 . S
C747 H742 0.950 . S
C747 C749 1.327 . S
C747 C753 1.429 . S
C748 C740 1.574 . S
C748 H743 0.949 . S
C748 C754 1.368 1_554 S
C749 C733 1.349 . S
C749 H741 0.950 . S
C749 C747 1.327 . S
C750 C738 1.349 . S
C750 H744 0.950 . S
C750 C751 1.327 . S
C751 H745 0.950 . S
C751 C750 1.327 . S
C751 C755 1.429 . S
C752 C735 1.574 . S
C752 H746 0.949 . S
C752 C756 1.368 1_556 S
C753 C734 1.429 . S
C753 C747 1.429 . S
C753 C754 1.523 . S
C754 C735 1.368 . S
C754 C748 1.368 1_556 S
C754 C753 1.523 . S
C755 C739 1.429 . S
C755 C751 1.429 . S
C755 C756 1.523 . S
C756 C740 1.368 . S
C756 C752 1.368 1_554 S
C756 C755 1.523 . S
H757 C732 0.950 . S
H758 C734 0.973 . S
H759 C735 0.949 . S
H760 C737 0.950 . S
H761 C739 0.973 . S
C762 C763 1.349 . S
C762 C764 1.327 . S
C762 H787 0.950 . S
C763 C762 1.349 . S
C763 C779 1.349 . S
C764 C762 1.327 . S
C764 C783 1.429 . S
C764 H788 0.950 . S
C765 C782 1.573 1_545 S
C765 C784 1.372 1_556 S
C765 H789 0.963 . S
H766 C770 0.963 . S
C767 C768 1.349 . S
C767 C769 1.327 . S
C767 H790 0.950 . S
C768 C767 1.349 . S
C768 C780 1.349 . S
C769 C767 1.327 . S
C769 C785 1.429 . S
C769 H791 0.950 . S
C770 H766 0.963 . S
C770 C778 1.573 1_565 S
C770 C786 1.372 1_554 S
H771 C779 0.950 . S
H772 C777 0.950 . S
H773 C778 0.949 . S
H774 C780 0.950 . S
H775 C781 0.950 . S
H776 C782 0.949 . S
C777 H772 0.950 . S
C777 C779 1.327 . S
C777 C783 1.429 . S
C778 C770 1.573 1_545 S
C778 H773 0.949 . S
C778 C784 1.368 . S
C779 C763 1.349 . S
C779 H771 0.950 . S
C779 C777 1.327 . S
C780 C768 1.349 . S
C780 H774 0.950 . S
C780 C781 1.327 . S
C781 H775 0.950 . S
C781 C780 1.327 . S
C781 C785 1.429 . S
C782 C765 1.573 1_565 S
C782 H776 0.949 . S
C782 C786 1.368 . S
C783 C764 1.429 . S
C783 C777 1.429 . S
C783 C784 1.523 . S
C784 C765 1.372 1_554 S
C784 C778 1.368 . S
C784 C783 1.523 . S
C785 C769 1.429 . S
C785 C781 1.429 . S
C785 C786 1.523 . S
C786 C770 1.372 1_556 S
C786 C782 1.368 . S
C786 C785 1.523 . S
H787 C762 0.950 . S
H788 C764 0.950 . S
H789 C765 0.963 . S
H790 C767 0.950 . S
H791 C769 0.950 . S
C792 C793 1.349 . S
C792 C794 1.327 . S
C792 H817 0.950 . S
C793 C792 1.349 . S
C793 C809 1.349 . S
C794 C792 1.327 . S
C794 C813 1.429 . S
C794 H818 0.950 . S
C795 C812 1.574 1_554 S
C795 C814 1.368 . S
C795 H819 0.949 . S
H796 C800 0.949 . S
C797 C798 1.349 . S
C797 C799 1.327 . S
C797 H820 0.950 . S
C798 C797 1.349 . S
C798 C810 1.349 . S
C799 C797 1.327 . S
C799 C815 1.429 . S
C799 H821 0.950 . S
C800 H796 0.949 . S
C800 C808 1.574 1_556 S
C800 C816 1.368 . S
H801 C809 0.950 . S
H802 C807 0.950 . S
H803 C808 0.949 . S
H804 C810 0.950 . S
H805 C811 0.950 . S
H806 C812 0.949 . S
C807 H802 0.950 . S
C807 C809 1.327 . S
C807 C813 1.429 . S
C808 C800 1.574 1_554 S
C808 H803 0.949 . S
C808 C814 1.368 1_455 S
C809 C793 1.349 . S
C809 H801 0.950 . S
C809 C807 1.327 . S
C810 C798 1.349 . S
C810 H804 0.950 . S
C810 C811 1.327 . S
C811 H805 0.950 . S
C811 C810 1.327 . S
C811 C815 1.429 . S
C812 C795 1.574 1_556 S
C812 H806 0.949 . S
C812 C816 1.368 1_655 S
C813 C794 1.429 . S
C813 C807 1.429 . S
C813 C814 1.523 . S
C814 C795 1.368 . S
C814 C808 1.368 1_655 S
C814 C813 1.523 . S
C815 C799 1.429 . S
C815 C811 1.429 . S
C815 C816 1.523 . S
C816 C800 1.368 . S
C816 C812 1.368 1_455 S
C816 C815 1.523 . S
H817 C792 0.950 . S
H818 C794 0.950 . S
H819 C795 0.949 . S
H820 C797 0.950 . S
H821 C799 0.950 . S
C822 C823 1.349 . S
C822 C824 1.327 . S
C822 H847 0.950 . S
C823 C822 1.349 . S
C823 C839 1.349 . S
C824 C822 1.327 . S
C824 C843 1.429 . S
C824 H848 0.950 . S
C825 C842 1.574 . S
C825 C844 1.368 . S
C825 H849 0.949 . S
H826 C830 0.949 . S
C827 C828 1.349 . S
C827 C829 1.327 . S
C827 H850 0.950 . S
C828 C827 1.349 . S
C828 C840 1.349 . S
C829 C827 1.327 . S
C829 C845 1.429 . S
C829 H851 0.950 . S
C830 H826 0.949 . S
C830 C838 1.574 . S
C830 C846 1.368 . S
H831 C839 0.950 . S
H832 C837 0.950 . S
H833 C838 0.949 . S
H834 C840 0.950 . S
H835 C841 0.950 . S
H836 C842 0.949 . S
C837 H832 0.950 . S
C837 C839 1.327 . S
C837 C843 1.429 . S
C838 C830 1.574 . S
C838 H833 0.949 . S
C838 C844 1.368 . S
C839 C823 1.349 . S
C839 H831 0.950 . S
C839 C837 1.327 . S
C840 C828 1.349 . S
C840 H834 0.950 . S
C840 C841 1.327 . S
C841 H835 0.950 . S
C841 C840 1.327 . S
C841 C845 1.429 . S
C842 C825 1.574 . S
C842 H836 0.949 . S
C842 C846 1.368 . S
C843 C824 1.429 . S
C843 C837 1.429 . S
C843 C844 1.523 . S
C844 C825 1.368 . S
C844 C838 1.368 . S
C844 C843 1.523 . S
C845 C829 1.429 . S
C845 C841 1.429 . S
C845 C846 1.523 . S
C846 C830 1.368 . S
C846 C842 1.368 . S
C846 C845 1.523 . S
H847 C822 0.950 . S
H848 C824 0.950 . S
H849 C825 0.949 . S
H850 C827 0.950 . S
H851 C829 0.950 . S
C852 C853 1.349 . S
C852 C854 1.327 . S
C852 H877 0.950 . S
C853 C852 1.349 . S
C853 C869 1.349 . S
C854 C852 1.327 . S
C854 C873 1.429 . S
C854 H878 0.950 . S
C855 C872 1.574 . S
C855 C874 1.368 1_545 S
C855 H879 0.949 . S
H856 C860 0.949 . S
C857 C858 1.349 . S
C857 C859 1.327 . S
C857 H880 0.950 . S
C858 C857 1.349 . S
C858 C870 1.349 . S
C859 C857 1.327 . S
C859 C875 1.429 . S
C859 H881 0.950 . S
C860 H856 0.949 . S
C860 C868 1.574 . S
C860 C876 1.368 1_565 S
H861 C869 0.950 . S
H862 C867 0.950 . S
H863 C868 0.949 . S
H864 C870 0.950 . S
H865 C871 0.950 . S
H866 C872 0.949 . S
C867 H862 0.950 . S
C867 C869 1.327 . S
C867 C873 1.429 . S
C868 C860 1.574 . S
C868 H863 0.949 . S
C868 C874 1.368 . S
C869 C853 1.349 . S
C869 H861 0.950 . S
C869 C867 1.327 . S
C870 C858 1.349 . S
C870 H864 0.950 . S
C870 C871 1.327 . S
C871 H865 0.950 . S
C871 C870 1.327 . S
C871 C875 1.429 . S
C872 C855 1.574 . S
C872 H866 0.949 . S
C872 C876 1.368 . S
C873 C854 1.429 . S
C873 C867 1.429 . S
C873 C874 1.523 . S
C874 C855 1.368 1_565 S
C874 C868 1.368 . S
C874 C873 1.523 . S
C875 C859 1.429 . S
C875 C871 1.429 . S
C875 C876 1.523 . S
C876 C860 1.368 1_545 S
C876 C872 1.368 . S
C876 C875 1.523 . S
H877 C852 0.950 . S
H878 C854 0.950 . S
H879 C855 0.949 . S
H880 C857 0.950 . S
H881 C859 0.950 . S
C882 C883 1.349 . S
C882 C884 1.327 . S
C882 H907 0.950 . S
C883 C882 1.349 . S
C883 C899 1.349 . S
C884 C882 1.327 . S
C884 C903 1.429 . S
C884 H908 0.950 . S
C885 C902 1.574 1_655 S
C885 C904 1.368 . S
C885 H909 0.949 . S
H886 C890 0.949 . S
C887 C888 1.349 . S
C887 C889 1.327 . S
C887 H910 0.950 . S
C888 C887 1.349 . S
C888 C900 1.349 . S
C889 C887 1.327 . S
C889 C905 1.429 . S
C889 H911 0.950 . S
C890 H886 0.949 . S
C890 C898 1.574 1_455 S
C890 C906 1.368 . S
H891 C899 0.950 . S
H892 C897 0.950 . S
H893 C898 0.949 . S
H894 C900 0.950 . S
H895 C901 0.950 . S
H896 C902 0.949 . S
C897 H892 0.950 . S
C897 C899 1.327 . S
C897 C903 1.429 . S
C898 C890 1.574 1_655 S
C898 H893 0.949 . S
C898 C904 1.368 . S
C899 C883 1.349 . S
C899 H891 0.950 . S
C899 C897 1.327 . S
C900 C888 1.349 . S
C900 H894 0.950 . S
C900 C901 1.327 . S
C901 H895 0.950 . S
C901 C900 1.327 . S
C901 C905 1.429 . S
C902 C885 1.574 1_455 S
C902 H896 0.949 . S
C902 C906 1.368 . S
C903 C884 1.429 . S
C903 C897 1.429 . S
C903 C904 1.523 . S
C904 C885 1.368 . S
C904 C898 1.368 . S
C904 C903 1.523 . S
C905 C889 1.429 . S
C905 C901 1.429 . S
C905 C906 1.523 . S
C906 C890 1.368 . S
C906 C902 1.368 . S
C906 C905 1.523 . S
H907 C882 0.950 . S
H908 C884 0.950 . S
H909 C885 0.949 . S
H910 C887 0.950 . S
H911 C889 0.950 . S
C912 C913 1.349 . S
C912 C914 1.327 . S
C912 H937 0.950 . S
C913 C912 1.349 . S
C913 C929 1.349 . S
C914 C912 1.327 . S
C914 C933 1.429 . S
C914 H938 0.950 . S
C915 C932 1.574 . S
C915 C934 1.368 . S
C915 H939 0.949 . S
H916 C920 0.949 . S
C917 C918 1.349 . S
C917 C919 1.327 . S
C917 H940 0.950 . S
C918 C917 1.349 . S
C918 C930 1.349 . S
C919 C917 1.327 . S
C919 C935 1.429 . S
C919 H941 0.950 . S
C920 H916 0.949 . S
C920 C928 1.574 . S
C920 C936 1.368 . S
H921 C929 0.950 1_554 S
H922 C927 0.950 . S
H923 C928 0.949 . S
H924 C930 0.950 . S
H925 C931 0.950 . S
H926 C932 0.949 . S
C927 H922 0.950 . S
C927 C929 1.327 . S
C927 C933 1.429 . S
C928 C920 1.574 . S
C928 H923 0.949 . S
C928 C934 1.368 . S
C929 C913 1.349 . S
C929 H921 0.950 1_556 S
C929 C927 1.327 . S
C930 C918 1.349 . S
C930 H924 0.950 . S
C930 C931 1.327 . S
C931 H925 0.950 . S
C931 C930 1.327 . S
C931 C935 1.429 . S
C932 C915 1.574 . S
C932 H926 0.949 . S
C932 C936 1.368 . S
C933 C914 1.429 . S
C933 C927 1.429 . S
C933 C934 1.523 . S
C934 C915 1.368 . S
C934 C928 1.368 . S
C934 C933 1.523 . S
C935 C919 1.429 . S
C935 C931 1.429 . S
C935 C936 1.523 . S
C936 C920 1.368 . S
C936 C932 1.368 . S
C936 C935 1.523 . S
H937 C912 0.950 . S
H938 C914 0.950 . S
H939 C915 0.949 . S
H940 C917 0.950 . S
H941 C919 0.950 . S
C942 C943 1.349 . S
C942 C944 1.327 . S
C942 H967 0.950 1_556 S
C943 C942 1.349 . S
C943 C959 1.349 . S
C944 C942 1.327 . S
C944 C963 1.429 . S
C944 H968 0.950 . S
C945 C962 1.574 . S
C945 C964 1.368 . S
C945 H969 0.949 . S
H946 C950 0.949 . S
C947 C948 1.349 . S
C947 C949 1.327 . S
C947 H970 0.950 . S
C948 C947 1.349 . S
C948 C960 1.349 . S
C949 C947 1.327 . S
C949 C965 1.429 . S
C949 H971 0.950 . S
C950 H946 0.949 . S
C950 C958 1.574 . S
C950 C966 1.368 . S
H951 C959 0.950 . S
H952 C957 0.950 . S
H953 C958 0.949 . S
H954 C960 0.950 . S
H955 C961 0.950 . S
H956 C962 0.949 . S
C957 H952 0.950 . S
C957 C959 1.327 . S
C957 C963 1.429 . S
C958 C950 1.574 . S
C958 H953 0.949 . S
C958 C964 1.368 . S
C959 C943 1.349 . S
C959 H951 0.950 . S
C959 C957 1.327 . S
C960 C948 1.349 . S
C960 H954 0.950 . S
C960 C961 1.327 . S
C961 H955 0.950 . S
C961 C960 1.327 . S
C961 C965 1.429 . S
C962 C945 1.574 . S
C962 H956 0.949 . S
C962 C966 1.368 . S
C963 C944 1.429 . S
C963 C957 1.429 . S
C963 C964 1.523 . S
C964 C945 1.368 . S
C964 C958 1.368 . S
C964 C963 1.523 . S
C965 C949 1.429 . S
C965 C961 1.429 . S
C965 C966 1.523 . S
C966 C950 1.368 . S
C966 C962 1.368 . S
C966 C965 1.523 . S
H967 C942 0.950 1_554 S
H968 C944 0.950 . S
H969 C945 0.949 . S
H970 C947 0.950 . S
H971 C949 0.950 . S
C972 C973 1.349 . S
C972 C974 1.327 . S
C972 H997 0.950 . S
C973 C972 1.349 . S
C973 C989 1.349 . S
C974 C972 1.327 . S
C974 C993 1.429 . S
C974 H998 0.950 . S
C975 C992 1.574 . S
C975 C994 1.368 . S
C975 H999 0.949 . S
H976 C980 0.949 . S
C977 C978 1.349 . S
C977 C979 1.327 . S
C977 H1000 0.950 . S
C978 C977 1.349 . S
C978 C990 1.349 . S
C979 C977 1.327 . S
C979 C995 1.429 . S
C979 H1001 0.950 . S
C980 H976 0.949 . S
C980 C988 1.574 . S
C980 C996 1.368 . S
H981 C989 0.950 . S
H982 C987 0.950 . S
H983 C988 0.949 . S
H984 C990 0.950 1_554 S
H985 C991 0.950 . S
H986 C992 0.949 . S
C987 H982 0.950 . S
C987 C989 1.327 . S
C987 C993 1.429 . S
C988 C980 1.574 . S
C988 H983 0.949 . S
C988 C994 1.368 . S
C989 C973 1.349 . S
C989 H981 0.950 . S
C989 C987 1.327 . S
C990 C978 1.349 . S
C990 H984 0.950 1_556 S
C990 C991 1.327 . S
C991 H985 0.950 . S
C991 C990 1.327 . S
C991 C995 1.429 . S
C992 C975 1.574 . S
C992 H986 0.949 . S
C992 C996 1.368 . S
C993 C974 1.429 . S
C993 C987 1.429 . S
C993 C994 1.523 . S
C994 C975 1.368 . S
C994 C988 1.368 . S
C994 C993 1.523 . S
C995 C979 1.429 . S
C995 C991 1.429 . S
C995 C996 1.523 . S
C996 C980 1.368 . S
C996 C992 1.368 . S
C996 C995 1.523 . S
H997 C972 0.950 . S
H998 C974 0.950 . S
H999 C975 0.949 . S
H1000 C977 0.950 . S
H1001 C979 0.950 . S
C1002 C1003 1.349 . S
C1002 C1004 1.327 . S
C1002 H1027 0.950 . S
C1003 C1002 1.349 . S
C1003 C1019 1.349 . S
C1004 C1002 1.327 . S
C1004 C1023 1.429 . S
C1004 H1028 0.950 . S
C1005 C1022 1.574 . S
C1005 C1024 1.368 . S
C1005 H1029 0.949 . S
H1006 C1010 0.949 . S
C1007 C1008 1.349 . S
C1007 C1009 1.327 . S
C1007 H1030 0.950 . S
C1008 C1007 1.349 . S
C1008 C1020 1.349 . S
C1009 C1007 1.327 . S
C1009 C1025 1.429 . S
C1009 H1031 0.950 . S
C1010 H1006 0.949 . S
C1010 C1018 1.574 . S
C1010 C1026 1.368 . S
H1011 C1019 0.950 . S
H1012 C1017 0.950 . S
H1013 C1018 0.949 . S
H1014 C1020 0.950 . S
H1015 C1021 0.950 . S
H1016 C1022 0.949 . S
C1017 H1012 0.950 . S
C1017 C1019 1.327 . S
C1017 C1023 1.429 . S
C1018 C1010 1.574 . S
C1018 H1013 0.949 . S
C1018 C1024 1.368 . S
C1019 C1003 1.349 . S
C1019 H1011 0.950 . S
C1019 C1017 1.327 . S
C1020 C1008 1.349 . S
C1020 H1014 0.950 . S
C1020 C1021 1.327 . S
C1021 H1015 0.950 . S
C1021 C1020 1.327 . S
C1021 C1025 1.429 . S
C1022 C1005 1.574 . S
C1022 H1016 0.949 . S
C1022 C1026 1.368 . S
C1023 C1004 1.429 . S
C1023 C1017 1.429 . S
C1023 C1024 1.523 . S
C1024 C1005 1.368 . S
C1024 C1018 1.368 . S
C1024 C1023 1.523 . S
C1025 C1009 1.429 . S
C1025 C1021 1.429 . S
C1025 C1026 1.523 . S
C1026 C1010 1.368 . S
C1026 C1022 1.368 . S
C1026 C1025 1.523 . S
H1027 C1002 0.950 . S
H1028 C1004 0.950 . S
H1029 C1005 0.949 . S
H1030 C1007 0.950 . S
H1031 C1009 0.950 . S
C1032 C1033 1.349 . S
C1032 C1034 1.327 . S
C1032 H1057 0.950 . S
C1033 C1032 1.349 . S
C1033 C1049 1.349 . S
C1034 C1032 1.327 . S
C1034 C1053 1.429 . S
C1034 H1058 0.950 . S
C1035 C1052 1.574 . S
C1035 C1054 1.368 . S
C1035 H1059 0.949 . S
H1036 C1040 0.949 . S
C1037 C1038 1.349 . S
C1037 C1039 1.327 . S
C1037 H1060 0.950 . S
C1038 C1037 1.349 . S
C1038 C1050 1.349 . S
C1039 C1037 1.327 . S
C1039 C1055 1.429 . S
C1039 H1061 0.950 . S
C1040 H1036 0.949 . S
C1040 C1048 1.574 . S
C1040 C1056 1.368 . S
H1041 C1049 0.950 . S
H1042 C1047 0.950 . S
H1043 C1048 0.949 . S
H1044 C1050 0.950 . S
H1045 C1051 0.950 . S
H1046 C1052 0.949 . S
C1047 H1042 0.950 . S
C1047 C1049 1.327 . S
C1047 C1053 1.429 . S
C1048 C1040 1.574 . S
C1048 H1043 0.949 . S
C1048 C1054 1.368 . S
C1049 C1033 1.349 . S
C1049 H1041 0.950 . S
C1049 C1047 1.327 . S
C1050 C1038 1.349 . S
C1050 H1044 0.950 . S
C1050 C1051 1.327 . S
C1051 H1045 0.950 . S
C1051 C1050 1.327 . S
C1051 C1055 1.429 . S
C1052 C1035 1.574 . S
C1052 H1046 0.949 . S
C1052 C1056 1.368 . S
C1053 C1034 1.429 . S
C1053 C1047 1.429 . S
C1053 C1054 1.523 . S
C1054 C1035 1.368 . S
C1054 C1048 1.368 . S
C1054 C1053 1.523 . S
C1055 C1039 1.429 . S
C1055 C1051 1.429 . S
C1055 C1056 1.523 . S
C1056 C1040 1.368 . S
C1056 C1052 1.368 . S
C1056 C1055 1.523 . S
H1057 C1032 0.950 . S
H1058 C1034 0.950 . S
H1059 C1035 0.949 . S
H1060 C1037 0.950 . S
H1061 C1039 0.950 . S
C1062 C1063 1.349 . S
C1062 C1064 1.327 . S
C1062 H1087 0.950 . S
C1063 C1062 1.349 . S
C1063 C1079 1.349 . S
C1064 C1062 1.327 . S
C1064 C1083 1.429 . S
C1064 H1088 0.950 . S
C1065 C1082 1.574 . S
C1065 C1084 1.368 . S
C1065 H1089 0.949 . S
H1066 C1070 0.949 . S
C1067 C1068 1.349 . S
C1067 C1069 1.327 . S
C1067 H1090 0.950 . S
C1068 C1067 1.349 . S
C1068 C1080 1.349 . S
C1069 C1067 1.327 . S
C1069 C1085 1.429 . S
C1069 H1091 0.950 . S
C1070 H1066 0.949 . S
C1070 C1078 1.574 . S
C1070 C1086 1.368 . S
H1071 C1079 0.950 . S
H1072 C1077 0.950 . S
H1073 C1078 0.949 . S
H1074 C1080 0.950 . S
H1075 C1081 0.950 . S
H1076 C1082 0.949 . S
C1077 H1072 0.950 . S
C1077 C1079 1.327 . S
C1077 C1083 1.429 . S
C1078 C1070 1.574 . S
C1078 H1073 0.949 . S
C1078 C1084 1.368 . S
C1079 C1063 1.349 . S
C1079 H1071 0.950 . S
C1079 C1077 1.327 . S
C1080 C1068 1.349 . S
C1080 H1074 0.950 . S
C1080 C1081 1.327 . S
C1081 H1075 0.950 . S
C1081 C1080 1.327 . S
C1081 C1085 1.429 . S
C1082 C1065 1.574 . S
C1082 H1076 0.949 . S
C1082 C1086 1.368 . S
C1083 C1064 1.429 . S
C1083 C1077 1.429 . S
C1083 C1084 1.523 . S
C1084 C1065 1.368 . S
C1084 C1078 1.368 . S
C1084 C1083 1.523 . S
C1085 C1069 1.429 . S
C1085 C1081 1.429 . S
C1085 C1086 1.523 . S
C1086 C1070 1.368 . S
C1086 C1082 1.368 . S
C1086 C1085 1.523 . S
H1087 C1062 0.950 . S
H1088 C1064 0.950 . S
H1089 C1065 0.949 . S
H1090 C1067 0.950 . S
H1091 C1069 0.950 . S
C1092 C1093 1.349 . S
C1092 C1094 1.327 . S
C1092 H1117 0.950 . S
C1093 C1092 1.349 . S
C1093 C1109 1.349 . S
C1094 C1092 1.327 . S
C1094 C1113 1.429 . S
C1094 H1118 0.950 . S
C1095 C1112 1.574 . S
C1095 C1114 1.368 . S
C1095 H1119 0.949 . S
H1096 C1100 0.949 . S
C1097 C1098 1.349 . S
C1097 C1099 1.327 . S
C1097 H1120 0.950 . S
C1098 C1097 1.349 . S
C1098 C1110 1.349 . S
C1099 C1097 1.327 . S
C1099 C1115 1.429 . S
C1099 H1121 0.950 . S
C1100 H1096 0.949 . S
C1100 C1108 1.574 . S
C1100 C1116 1.368 . S
H1101 C1109 0.950 . S
H1102 C1107 0.950 . S
H1103 C1108 0.949 . S
H1104 C1110 0.950 . S
H1105 C1111 0.950 . S
H1106 C1112 0.949 . S
C1107 H1102 0.950 . S
C1107 C1109 1.327 . S
C1107 C1113 1.429 . S
C1108 C1100 1.574 . S
C1108 H1103 0.949 . S
C1108 C1114 1.368 . S
C1109 C1093 1.349 . S
C1109 H1101 0.950 . S
C1109 C1107 1.327 . S
C1110 C1098 1.349 . S
C1110 H1104 0.950 . S
C1110 C1111 1.327 . S
C1111 H1105 0.950 . S
C1111 C1110 1.327 . S
C1111 C1115 1.429 . S
C1112 C1095 1.574 . S
C1112 H1106 0.949 . S
C1112 C1116 1.368 . S
C1113 C1094 1.429 . S
C1113 C1107 1.429 . S
C1113 C1114 1.523 . S
C1114 C1095 1.368 . S
C1114 C1108 1.368 . S
C1114 C1113 1.523 . S
C1115 C1099 1.429 . S
C1115 C1111 1.429 . S
C1115 C1116 1.523 . S
C1116 C1100 1.368 . S
C1116 C1112 1.368 . S
C1116 C1115 1.523 . S
H1117 C1092 0.950 . S
H1118 C1094 0.950 . S
H1119 C1095 0.949 . S
H1120 C1097 0.950 . S
H1121 C1099 0.950 . S
C1122 C1123 1.349 . S
C1122 C1124 1.327 . S
C1122 H1147 0.950 1_554 S
C1123 C1122 1.349 . S
C1123 C1139 1.349 . S
C1124 C1122 1.327 . S
C1124 C1143 1.429 . S
C1124 H1148 0.950 . S
C1125 C1142 1.574 . S
C1125 C1144 1.368 . S
C1125 H1149 0.949 . S
H1126 C1130 0.949 . S
C1127 C1128 1.349 . S
C1127 C1129 1.327 . S
C1127 H1150 0.950 . S
C1128 C1127 1.349 . S
C1128 C1140 1.349 . S
C1129 C1127 1.327 . S
C1129 C1145 1.429 . S
C1129 H1151 0.950 . S
C1130 H1126 0.949 . S
C1130 C1138 1.574 . S
C1130 C1146 1.368 . S
H1131 C1139 0.950 . S
H1132 C1137 0.950 . S
H1133 C1138 0.949 . S
H1134 C1140 0.950 . S
H1135 C1141 0.950 . S
H1136 C1142 0.949 . S
C1137 H1132 0.950 . S
C1137 C1139 1.327 . S
C1137 C1143 1.429 . S
C1138 C1130 1.574 . S
C1138 H1133 0.949 . S
C1138 C1144 1.368 . S
C1139 C1123 1.349 . S
C1139 H1131 0.950 . S
C1139 C1137 1.327 . S
C1140 C1128 1.349 . S
C1140 H1134 0.950 . S
C1140 C1141 1.327 . S
C1141 H1135 0.950 . S
C1141 C1140 1.327 . S
C1141 C1145 1.429 . S
C1142 C1125 1.574 . S
C1142 H1136 0.949 . S
C1142 C1146 1.368 . S
C1143 C1124 1.429 . S
C1143 C1137 1.429 . S
C1143 C1144 1.523 . S
C1144 C1125 1.368 . S
C1144 C1138 1.368 . S
C1144 C1143 1.523 . S
C1145 C1129 1.429 . S
C1145 C1141 1.429 . S
C1145 C1146 1.523 . S
C1146 C1130 1.368 . S
C1146 C1142 1.368 . S
C1146 C1145 1.523 . S
H1147 C1122 0.950 1_556 S
H1148 C1124 0.950 . S
H1149 C1125 0.949 . S
H1150 C1127 0.950 . S
H1151 C1129 0.950 . S
C1152 C1153 1.349 . S
C1152 C1154 1.327 . S
C1152 H1177 0.950 . S
C1153 C1152 1.349 . S
C1153 C1169 1.349 . S
C1154 C1152 1.327 . S
C1154 C1173 1.429 . S
C1154 H1178 0.950 . S
C1155 C1172 1.574 . S
C1155 C1174 1.368 . S
C1155 H1179 0.949 . S
H1156 C1160 0.949 . S
C1157 C1158 1.349 . S
C1157 C1159 1.327 . S
C1157 H1180 0.950 . S
C1158 C1157 1.349 . S
C1158 C1170 1.349 . S
C1159 C1157 1.327 . S
C1159 C1175 1.429 . S
C1159 H1181 0.950 . S
C1160 H1156 0.949 . S
C1160 C1168 1.574 . S
C1160 C1176 1.368 . S
H1161 C1169 0.950 1_556 S
H1162 C1167 0.950 . S
H1163 C1168 0.949 . S
H1164 C1170 0.950 . S
H1165 C1171 0.950 . S
H1166 C1172 0.949 . S
C1167 H1162 0.950 . S
C1167 C1169 1.327 . S
C1167 C1173 1.429 . S
C1168 C1160 1.574 . S
C1168 H1163 0.949 . S
C1168 C1174 1.368 . S
C1169 C1153 1.349 . S
C1169 H1161 0.950 1_554 S
C1169 C1167 1.327 . S
C1170 C1158 1.349 . S
C1170 H1164 0.950 . S
C1170 C1171 1.327 . S
C1171 H1165 0.950 . S
C1171 C1170 1.327 . S
C1171 C1175 1.429 . S
C1172 C1155 1.574 . S
C1172 H1166 0.949 . S
C1172 C1176 1.368 . S
C1173 C1154 1.429 . S
C1173 C1167 1.429 . S
C1173 C1174 1.523 . S
C1174 C1155 1.368 . S
C1174 C1168 1.368 . S
C1174 C1173 1.523 . S
C1175 C1159 1.429 . S
C1175 C1171 1.429 . S
C1175 C1176 1.523 . S
C1176 C1160 1.368 . S
C1176 C1172 1.368 . S
C1176 C1175 1.523 . S
H1177 C1152 0.950 . S
H1178 C1154 0.950 . S
H1179 C1155 0.949 . S
H1180 C1157 0.950 . S
H1181 C1159 0.950 . S
C1182 C1183 1.349 . S
C1182 C1184 1.327 . S
C1182 H1207 0.950 . S
C1183 C1182 1.349 . S
C1183 C1199 1.349 . S
C1184 C1182 1.327 . S
C1184 C1203 1.429 . S
C1184 H1208 0.950 . S
C1185 C1202 1.574 . S
C1185 C1204 1.368 . S
C1185 H1209 0.949 . S
H1186 C1190 0.949 . S
C1187 C1188 1.349 . S
C1187 C1189 1.327 . S
C1187 H1210 0.950 . S
C1188 C1187 1.349 . S
C1188 C1200 1.349 . S
C1189 C1187 1.327 . S
C1189 C1205 1.429 . S
C1189 H1211 0.950 . S
C1190 H1186 0.949 . S
C1190 C1198 1.574 . S
C1190 C1206 1.368 . S
H1191 C1199 0.950 . S
H1192 C1197 0.950 . S
H1193 C1198 0.949 . S
H1194 C1200 0.950 . S
H1195 C1201 0.950 . S
H1196 C1202 0.949 . S
C1197 H1192 0.950 . S
C1197 C1199 1.327 . S
C1197 C1203 1.429 . S
C1198 C1190 1.574 . S
C1198 H1193 0.949 . S
C1198 C1204 1.368 . S
C1199 C1183 1.349 . S
C1199 H1191 0.950 . S
C1199 C1197 1.327 . S
C1200 C1188 1.349 . S
C1200 H1194 0.950 . S
C1200 C1201 1.327 . S
C1201 H1195 0.950 . S
C1201 C1200 1.327 . S
C1201 C1205 1.429 . S
C1202 C1185 1.574 . S
C1202 H1196 0.949 . S
C1202 C1206 1.368 . S
C1203 C1184 1.429 . S
C1203 C1197 1.429 . S
C1203 C1204 1.523 . S
C1204 C1185 1.368 . S
C1204 C1198 1.368 . S
C1204 C1203 1.523 . S
C1205 C1189 1.429 . S
C1205 C1201 1.429 . S
C1205 C1206 1.523 . S
C1206 C1190 1.368 . S
C1206 C1202 1.368 . S
C1206 C1205 1.523 . S
H1207 C1182 0.950 . S
H1208 C1184 0.950 . S
H1209 C1185 0.949 . S
H1210 C1187 0.950 . S
H1211 C1189 0.950 . S
C1212 C1213 1.349 . S
C1212 C1214 1.327 . S
C1212 H1237 0.950 . S
C1213 C1212 1.349 . S
C1213 C1229 1.349 . S
C1214 C1212 1.327 . S
C1214 C1233 1.429 . S
C1214 H1238 0.950 . S
C1215 C1232 1.574 . S
C1215 C1234 1.368 . S
C1215 H1239 0.949 . S
H1216 C1220 0.949 . S
C1217 C1218 1.349 . S
C1217 C1219 1.327 . S
C1217 H1240 0.950 . S
C1218 C1217 1.349 . S
C1218 C1230 1.349 . S
C1219 C1217 1.327 . S
C1219 C1235 1.429 . S
C1219 H1241 0.950 . S
C1220 H1216 0.949 . S
C1220 C1228 1.574 . S
C1220 C1236 1.368 . S
H1221 C1229 0.950 . S
H1222 C1227 0.950 . S
H1223 C1228 0.949 . S
H1224 C1230 0.950 . S
H1225 C1231 0.950 . S
H1226 C1232 0.949 . S
C1227 H1222 0.950 . S
C1227 C1229 1.327 . S
C1227 C1233 1.429 . S
C1228 C1220 1.574 . S
C1228 H1223 0.949 . S
C1228 C1234 1.368 . S
C1229 C1213 1.349 . S
C1229 H1221 0.950 . S
C1229 C1227 1.327 . S
C1230 C1218 1.349 . S
C1230 H1224 0.950 . S
C1230 C1231 1.327 . S
C1231 H1225 0.950 . S
C1231 C1230 1.327 . S
C1231 C1235 1.429 . S
C1232 C1215 1.574 . S
C1232 H1226 0.949 . S
C1232 C1236 1.368 . S
C1233 C1214 1.429 . S
C1233 C1227 1.429 . S
C1233 C1234 1.523 . S
C1234 C1215 1.368 . S
C1234 C1228 1.368 . S
C1234 C1233 1.523 . S
C1235 C1219 1.429 . S
C1235 C1231 1.429 . S
C1235 C1236 1.523 . S
C1236 C1220 1.368 . S
C1236 C1232 1.368 . S
C1236 C1235 1.523 . S
H1237 C1212 0.950 . S
H1238 C1214 0.950 . S
H1239 C1215 0.949 . S
H1240 C1217 0.950 . S
H1241 C1219 0.950 . S
C1242 C1243 1.349 . S
C1242 C1244 1.327 . S
C1242 H1267 0.950 . S
C1243 C1242 1.349 . S
C1243 C1259 1.349 . S
C1244 C1242 1.327 . S
C1244 C1263 1.429 . S
C1244 H1268 0.950 . S
C1245 C1262 1.574 . S
C1245 C1264 1.368 . S
C1245 H1269 0.949 . S
H1246 C1250 0.949 . S
C1247 C1248 1.349 . S
C1247 C1249 1.327 . S
C1247 H1270 0.950 . S
C1248 C1247 1.349 . S
C1248 C1260 1.349 . S
C1249 C1247 1.327 . S
C1249 C1265 1.429 . S
C1249 H1271 0.950 . S
C1250 H1246 0.949 . S
C1250 C1258 1.574 . S
C1250 C1266 1.368 . S
H1251 C1259 0.950 . S
H1252 C1257 0.950 . S
H1253 C1258 0.949 . S
H1254 C1260 0.950 . S
H1255 C1261 0.950 . S
H1256 C1262 0.949 . S
C1257 H1252 0.950 . S
C1257 C1259 1.327 . S
C1257 C1263 1.429 . S
C1258 C1250 1.574 . S
C1258 H1253 0.949 . S
C1258 C1264 1.368 . S
C1259 C1243 1.349 . S
C1259 H1251 0.950 . S
C1259 C1257 1.327 . S
C1260 C1248 1.349 . S
C1260 H1254 0.950 . S
C1260 C1261 1.327 . S
C1261 H1255 0.950 . S
C1261 C1260 1.327 . S
C1261 C1265 1.429 . S
C1262 C1245 1.574 . S
C1262 H1256 0.949 . S
C1262 C1266 1.368 . S
C1263 C1244 1.429 . S
C1263 C1257 1.429 . S
C1263 C1264 1.523 . S
C1264 C1245 1.368 . S
C1264 C1258 1.368 . S
C1264 C1263 1.523 . S
C1265 C1249 1.429 . S
C1265 C1261 1.429 . S
C1265 C1266 1.523 . S
C1266 C1250 1.368 . S
C1266 C1262 1.368 . S
C1266 C1265 1.523 . S
H1267 C1242 0.950 . S
H1268 C1244 0.950 . S
H1269 C1245 0.949 . S
H1270 C1247 0.950 . S
H1271 C1249 0.950 . S
C1272 C1273 1.349 . S
C1272 C1274 1.327 . S
C1272 H1297 0.950 . S
C1273 C1272 1.349 . S
C1273 C1289 1.349 . S
C1274 C1272 1.327 . S
C1274 C1293 1.429 . S
C1274 H1298 0.950 . S
C1275 C1292 1.574 . S
C1275 C1294 1.368 . S
C1275 H1299 0.949 . S
H1276 C1280 0.949 . S
C1277 C1278 1.349 . S
C1277 C1279 1.327 . S
C1277 H1300 0.950 . S
C1278 C1277 1.349 . S
C1278 C1290 1.349 . S
C1279 C1277 1.327 . S
C1279 C1295 1.429 . S
C1279 H1301 0.950 . S
C1280 H1276 0.949 . S
C1280 C1288 1.574 . S
C1280 C1296 1.368 . S
H1281 C1289 0.950 . S
H1282 C1287 0.950 . S
H1283 C1288 0.949 . S
H1284 C1290 0.950 . S
H1285 C1291 0.950 . S
H1286 C1292 0.949 . S
C1287 H1282 0.950 . S
C1287 C1289 1.327 . S
C1287 C1293 1.429 . S
C1288 C1280 1.574 . S
C1288 H1283 0.949 . S
C1288 C1294 1.368 . S
C1289 C1273 1.349 . S
C1289 H1281 0.950 . S
C1289 C1287 1.327 . S
C1290 C1278 1.349 . S
C1290 H1284 0.950 . S
C1290 C1291 1.327 . S
C1291 H1285 0.950 . S
C1291 C1290 1.327 . S
C1291 C1295 1.429 . S
C1292 C1275 1.574 . S
C1292 H1286 0.949 . S
C1292 C1296 1.368 . S
C1293 C1274 1.429 . S
C1293 C1287 1.429 . S
C1293 C1294 1.523 . S
C1294 C1275 1.368 . S
C1294 C1288 1.368 . S
C1294 C1293 1.523 . S
C1295 C1279 1.429 . S
C1295 C1291 1.429 . S
C1295 C1296 1.523 . S
C1296 C1280 1.368 . S
C1296 C1292 1.368 . S
C1296 C1295 1.523 . S
H1297 C1272 0.950 . S
H1298 C1274 0.950 . S
H1299 C1275 0.949 . S
H1300 C1277 0.950 . S
H1301 C1279 0.950 . S
C1302 C1303 1.349 . S
C1302 C1304 1.327 . S
C1302 H1327 0.950 . S
C1303 C1302 1.349 . S
C1303 C1319 1.349 . S
C1304 C1302 1.327 . S
C1304 C1323 1.429 . S
C1304 H1328 0.950 . S
C1305 C1322 1.574 1_565 S
C1305 C1324 1.368 . S
C1305 H1329 0.949 . S
H1306 C1310 0.949 . S
C1307 C1308 1.349 . S
C1307 C1309 1.327 . S
C1307 H1330 0.950 . S
C1308 C1307 1.349 . S
C1308 C1320 1.349 . S
C1309 C1307 1.327 . S
C1309 C1325 1.429 . S
C1309 H1331 0.950 . S
C1310 H1306 0.949 . S
C1310 C1318 1.574 1_545 S
C1310 C1326 1.368 . S
H1311 C1319 0.950 . S
H1312 C1317 0.950 . S
H1313 C1318 0.949 . S
H1314 C1320 0.950 . S
H1315 C1321 0.950 . S
H1316 C1322 0.949 . S
C1317 H1312 0.950 . S
C1317 C1319 1.327 . S
C1317 C1323 1.429 . S
C1318 C1310 1.574 1_565 S
C1318 H1313 0.949 . S
C1318 C1324 1.368 . S
C1319 C1303 1.349 . S
C1319 H1311 0.950 . S
C1319 C1317 1.327 . S
C1320 C1308 1.349 . S
C1320 H1314 0.950 . S
C1320 C1321 1.327 . S
C1321 H1315 0.950 . S
C1321 C1320 1.327 . S
C1321 C1325 1.429 . S
C1322 C1305 1.574 1_545 S
C1322 H1316 0.949 . S
C1322 C1326 1.368 . S
C1323 C1304 1.429 . S
C1323 C1317 1.429 . S
C1323 C1324 1.523 . S
C1324 C1305 1.368 . S
C1324 C1318 1.368 . S
C1324 C1323 1.523 . S
C1325 C1309 1.429 . S
C1325 C1321 1.429 . S
C1325 C1326 1.523 . S
C1326 C1310 1.368 . S
C1326 C1322 1.368 . S
C1326 C1325 1.523 . S
H1327 C1302 0.950 . S
H1328 C1304 0.950 . S
H1329 C1305 0.949 . S
H1330 C1307 0.950 . S
H1331 C1309 0.950 . S
C1332 C1333 1.349 . S
C1332 C1334 1.327 . S
C1332 H1357 0.950 . S
C1333 C1332 1.349 . S
C1333 C1349 1.349 . S
C1334 C1332 1.327 . S
C1334 C1353 1.429 . S
C1334 H1358 0.950 . S
C1335 C1352 1.574 1_455 S
C1335 C1354 1.368 . S
C1335 H1359 0.949 . S
H1336 C1340 0.949 . S
C1337 C1338 1.349 . S
C1337 C1339 1.327 . S
C1337 H1360 0.950 . S
C1338 C1337 1.349 . S
C1338 C1350 1.349 . S
C1339 C1337 1.327 . S
C1339 C1355 1.429 . S
C1339 H1361 0.950 . S
C1340 H1336 0.949 . S
C1340 C1348 1.574 1_655 S
C1340 C1356 1.368 . S
H1341 C1349 0.950 . S
H1342 C1347 0.950 . S
H1343 C1348 0.949 . S
H1344 C1350 0.950 . S
H1345 C1351 0.950 . S
H1346 C1352 0.949 . S
C1347 H1342 0.950 . S
C1347 C1349 1.327 . S
C1347 C1353 1.429 . S
C1348 C1340 1.574 1_455 S
C1348 H1343 0.949 . S
C1348 C1354 1.368 . S
C1349 C1333 1.349 . S
C1349 H1341 0.950 . S
C1349 C1347 1.327 . S
C1350 C1338 1.349 . S
C1350 H1344 0.950 . S
C1350 C1351 1.327 . S
C1351 H1345 0.950 . S
C1351 C1350 1.327 . S
C1351 C1355 1.429 . S
C1352 C1335 1.574 1_655 S
C1352 H1346 0.949 . S
C1352 C1356 1.368 . S
C1353 C1334 1.429 . S
C1353 C1347 1.429 . S
C1353 C1354 1.523 . S
C1354 C1335 1.368 . S
C1354 C1348 1.368 . S
C1354 C1353 1.523 . S
C1355 C1339 1.429 . S
C1355 C1351 1.429 . S
C1355 C1356 1.523 . S
C1356 C1340 1.368 . S
C1356 C1352 1.368 . S
C1356 C1355 1.523 . S
H1357 C1332 0.950 . S
H1358 C1334 0.950 . S
H1359 C1335 0.949 . S
H1360 C1337 0.950 . S
H1361 C1339 0.950 . S
C1362 C1363 1.349 . S
C1362 C1364 1.327 . S
C1362 H1387 0.950 . S
C1363 C1362 1.349 . S
C1363 C1379 1.349 . S
C1364 C1362 1.327 . S
C1364 C1383 1.429 . S
C1364 H1388 0.950 . S
C1365 C1382 1.574 . S
C1365 C1384 1.368 . S
C1365 H1389 0.949 . S
H1366 C1370 0.949 . S
C1367 C1368 1.349 . S
C1367 C1369 1.327 . S
C1367 H1390 0.950 . S
C1368 C1367 1.349 . S
C1368 C1380 1.349 . S
C1369 C1367 1.327 . S
C1369 C1385 1.429 . S
C1369 H1391 0.950 . S
C1370 H1366 0.949 . S
C1370 C1378 1.574 . S
C1370 C1386 1.368 . S
H1371 C1379 0.950 . S
H1372 C1377 0.950 . S
H1373 C1378 0.949 . S
H1374 C1380 0.950 . S
H1375 C1381 0.950 . S
H1376 C1382 0.949 . S
C1377 H1372 0.950 . S
C1377 C1379 1.327 . S
C1377 C1383 1.429 . S
C1378 C1370 1.574 . S
C1378 H1373 0.949 . S
C1378 C1384 1.368 . S
C1379 C1363 1.349 . S
C1379 H1371 0.950 . S
C1379 C1377 1.327 . S
C1380 C1368 1.349 . S
C1380 H1374 0.950 . S
C1380 C1381 1.327 . S
C1381 H1375 0.950 . S
C1381 C1380 1.327 . S
C1381 C1385 1.429 . S
C1382 C1365 1.574 . S
C1382 H1376 0.949 . S
C1382 C1386 1.368 . S
C1383 C1364 1.429 . S
C1383 C1377 1.429 . S
C1383 C1384 1.523 . S
C1384 C1365 1.368 . S
C1384 C1378 1.368 . S
C1384 C1383 1.523 . S
C1385 C1369 1.429 . S
C1385 C1381 1.429 . S
C1385 C1386 1.523 . S
C1386 C1370 1.368 . S
C1386 C1382 1.368 . S
C1386 C1385 1.523 . S
H1387 C1362 0.950 . S
H1388 C1364 0.950 . S
H1389 C1365 0.949 . S
H1390 C1367 0.950 . S
H1391 C1369 0.950 . S
C1392 C1393 1.349 . S
C1392 C1394 1.327 . S
C1392 H1417 0.950 . S
C1393 C1392 1.349 . S
C1393 C1409 1.349 . S
C1394 C1392 1.327 . S
C1394 C1413 1.429 . S
C1394 H1418 0.950 . S
C1395 C1412 1.574 1_565 S
C1395 C1414 1.368 . S
C1395 H1419 0.949 . S
H1396 C1400 0.949 . S
C1397 C1398 1.349 . S
C1397 C1399 1.327 . S
C1397 H1420 0.950 . S
C1398 C1397 1.349 . S
C1398 C1410 1.349 . S
C1399 C1397 1.327 . S
C1399 C1415 1.429 . S
C1399 H1421 0.950 . S
C1400 H1396 0.949 . S
C1400 C1408 1.574 1_545 S
C1400 C1416 1.368 . S
H1401 C1409 0.950 . S
H1402 C1407 0.950 . S
H1403 C1408 0.949 . S
H1404 C1410 0.950 . S
H1405 C1411 0.950 . S
H1406 C1412 0.949 . S
C1407 H1402 0.950 . S
C1407 C1409 1.327 . S
C1407 C1413 1.429 . S
C1408 C1400 1.574 1_565 S
C1408 H1403 0.949 . S
C1408 C1414 1.368 . S
C1409 C1393 1.349 . S
C1409 H1401 0.950 . S
C1409 C1407 1.327 . S
C1410 C1398 1.349 . S
C1410 H1404 0.950 . S
C1410 C1411 1.327 . S
C1411 H1405 0.950 . S
C1411 C1410 1.327 . S
C1411 C1415 1.429 . S
C1412 C1395 1.574 1_545 S
C1412 H1406 0.949 . S
C1412 C1416 1.368 . S
C1413 C1394 1.429 . S
C1413 C1407 1.429 . S
C1413 C1414 1.523 . S
C1414 C1395 1.368 . S
C1414 C1408 1.368 . S
C1414 C1413 1.523 . S
C1415 C1399 1.429 . S
C1415 C1411 1.429 . S
C1415 C1416 1.523 . S
C1416 C1400 1.368 . S
C1416 C1412 1.368 . S
C1416 C1415 1.523 . S
H1417 C1392 0.950 . S
H1418 C1394 0.950 . S
H1419 C1395 0.949 . S
H1420 C1397 0.950 . S
H1421 C1399 0.950 . S
C1422 C1423 1.349 . S
C1422 C1424 1.327 . S
C1422 H1447 0.950 . S
C1423 C1422 1.349 . S
C1423 C1439 1.349 . S
C1424 C1422 1.327 . S
C1424 C1443 1.429 . S
C1424 H1448 0.950 . S
C1425 C1442 1.574 1_655 S
C1425 C1444 1.368 . S
C1425 H1449 0.949 . S
H1426 C1430 0.949 . S
C1427 C1428 1.349 . S
C1427 C1429 1.327 . S
C1427 H1450 0.950 . S
C1428 C1427 1.349 . S
C1428 C1440 1.349 . S
C1429 C1427 1.327 . S
C1429 C1445 1.429 . S
C1429 H1451 0.950 . S
C1430 H1426 0.949 . S
C1430 C1438 1.574 1_455 S
C1430 C1446 1.368 . S
H1431 C1439 0.950 . S
H1432 C1437 0.950 . S
H1433 C1438 0.949 . S
H1434 C1440 0.950 . S
H1435 C1441 0.950 . S
H1436 C1442 0.949 . S
C1437 H1432 0.950 . S
C1437 C1439 1.327 . S
C1437 C1443 1.429 . S
C1438 C1430 1.574 1_655 S
C1438 H1433 0.949 . S
C1438 C1444 1.368 . S
C1439 C1423 1.349 . S
C1439 H1431 0.950 . S
C1439 C1437 1.327 . S
C1440 C1428 1.349 . S
C1440 H1434 0.950 . S
C1440 C1441 1.327 . S
C1441 H1435 0.950 . S
C1441 C1440 1.327 . S
C1441 C1445 1.429 . S
C1442 C1425 1.574 1_455 S
C1442 H1436 0.949 . S
C1442 C1446 1.368 . S
C1443 C1424 1.429 . S
C1443 C1437 1.429 . S
C1443 C1444 1.523 . S
C1444 C1425 1.368 . S
C1444 C1438 1.368 . S
C1444 C1443 1.523 . S
C1445 C1429 1.429 . S
C1445 C1441 1.429 . S
C1445 C1446 1.523 . S
C1446 C1430 1.368 . S
C1446 C1442 1.368 . S
C1446 C1445 1.523 . S
H1447 C1422 0.950 . S
H1448 C1424 0.950 . S
H1449 C1425 0.949 . S
H1450 C1427 0.950 . S
H1451 C1429 0.950 . S
C1452 C1453 1.349 . S
C1452 C1454 1.327 . S
C1452 H1477 0.950 . S
C1453 C1452 1.349 . S
C1453 C1469 1.349 . S
C1454 C1452 1.327 . S
C1454 C1473 1.429 . S
C1454 H1478 0.950 . S
C1455 C1472 1.574 . S
C1455 C1474 1.368 . S
C1455 H1479 0.949 . S
H1456 C1460 0.949 . S
C1457 C1458 1.349 1_556 S
C1457 C1459 1.327 . S
C1457 H1480 0.950 . S
C1458 C1457 1.349 1_554 S
C1458 C1470 1.349 . S
C1459 C1457 1.327 . S
C1459 C1475 1.429 . S
C1459 H1481 0.950 . S
C1460 H1456 0.949 . S
C1460 C1468 1.574 . S
C1460 C1476 1.368 . S
H1461 C1469 0.950 . S
H1462 C1467 0.950 . S
H1463 C1468 0.949 . S
H1464 C1470 0.950 . S
H1465 C1471 0.950 . S
H1466 C1472 0.949 . S
C1467 H1462 0.950 . S
C1467 C1469 1.327 . S
C1467 C1473 1.429 . S
C1468 C1460 1.574 . S
C1468 H1463 0.949 . S
C1468 C1474 1.368 . S
C1469 C1453 1.349 . S
C1469 H1461 0.950 . S
C1469 C1467 1.327 . S
C1470 C1458 1.349 . S
C1470 H1464 0.950 . S
C1470 C1471 1.327 1_554 S
C1471 H1465 0.950 . S
C1471 C1470 1.327 1_556 S
C1471 C1475 1.429 . S
C1472 C1455 1.574 . S
C1472 H1466 0.949 . S
C1472 C1476 1.368 . S
C1473 C1454 1.429 . S
C1473 C1467 1.429 . S
C1473 C1474 1.523 . S
C1474 C1455 1.368 . S
C1474 C1468 1.368 . S
C1474 C1473 1.523 . S
C1475 C1459 1.429 . S
C1475 C1471 1.429 . S
C1475 C1476 1.523 . S
C1476 C1460 1.368 . S
C1476 C1472 1.368 . S
C1476 C1475 1.523 . S
H1477 C1452 0.950 . S
H1478 C1454 0.950 . S
H1479 C1455 0.949 . S
H1480 C1457 0.950 . S
H1481 C1459 0.950 . S
C1482 C1483 1.349 . S
C1482 C1484 1.327 1_554 S
C1482 H1507 0.950 . S
C1483 C1482 1.349 . S
C1483 C1499 1.349 1_554 S
C1484 C1482 1.327 1_556 S
C1484 C1503 1.429 . S
C1484 H1508 0.950 . S
C1485 C1502 1.574 . S
C1485 C1504 1.368 . S
C1485 H1509 0.949 . S
H1486 C1490 0.949 . S
C1487 C1488 1.349 . S
C1487 C1489 1.327 . S
C1487 H1510 0.950 . S
C1488 C1487 1.349 . S
C1488 C1500 1.349 . S
C1489 C1487 1.327 . S
C1489 C1505 1.429 . S
C1489 H1511 0.950 . S
C1490 H1486 0.949 . S
C1490 C1498 1.574 . S
C1490 C1506 1.368 . S
H1491 C1499 0.950 . S
H1492 C1497 0.950 . S
H1493 C1498 0.949 . S
H1494 C1500 0.950 . S
H1495 C1501 0.950 . S
H1496 C1502 0.949 . S
C1497 H1492 0.950 . S
C1497 C1499 1.327 . S
C1497 C1503 1.429 . S
C1498 C1490 1.574 . S
C1498 H1493 0.949 . S
C1498 C1504 1.368 . S
C1499 C1483 1.349 1_556 S
C1499 H1491 0.950 . S
C1499 C1497 1.327 . S
C1500 C1488 1.349 . S
C1500 H1494 0.950 . S
C1500 C1501 1.327 . S
C1501 H1495 0.950 . S
C1501 C1500 1.327 . S
C1501 C1505 1.429 . S
C1502 C1485 1.574 . S
C1502 H1496 0.949 . S
C1502 C1506 1.368 . S
C1503 C1484 1.429 . S
C1503 C1497 1.429 . S
C1503 C1504 1.523 . S
C1504 C1485 1.368 . S
C1504 C1498 1.368 . S
C1504 C1503 1.523 . S
C1505 C1489 1.429 . S
C1505 C1501 1.429 . S
C1505 C1506 1.523 . S
C1506 C1490 1.368 . S
C1506 C1502 1.368 . S
C1506 C1505 1.523 . S
H1507 C1482 0.950 . S
H1508 C1484 0.950 . S
H1509 C1485 0.949 . S
H1510 C1487 0.950 . S
H1511 C1489 0.950 . S
C1512 C1513 1.349 1_556 S
C1512 C1514 1.327 . S
C1512 H1537 0.950 . S
C1513 C1512 1.349 1_554 S
C1513 C1529 1.349 . S
C1514 C1512 1.327 . S
C1514 C1533 1.429 . S
C1514 H1538 0.950 . S
C1515 C1532 1.574 . S
C1515 C1534 1.368 . S
C1515 H1539 0.949 . S
H1516 C1520 0.949 . S
C1517 C1518 1.349 . S
C1517 C1519 1.327 . S
C1517 H1540 0.950 . S
C1518 C1517 1.349 . S
C1518 C1530 1.349 . S
C1519 C1517 1.327 . S
C1519 C1535 1.429 . S
C1519 H1541 0.950 . S
C1520 H1516 0.949 . S
C1520 C1528 1.574 . S
C1520 C1536 1.368 . S
H1521 C1529 0.950 . S
H1522 C1527 0.950 . S
H1523 C1528 0.949 . S
H1524 C1530 0.950 . S
H1525 C1531 0.950 . S
H1526 C1532 0.949 . S
C1527 H1522 0.950 . S
C1527 C1529 1.327 1_556 S
C1527 C1533 1.429 . S
C1528 C1520 1.574 . S
C1528 H1523 0.949 . S
C1528 C1534 1.368 . S
C1529 C1513 1.349 . S
C1529 H1521 0.950 . S
C1529 C1527 1.327 1_554 S
C1530 C1518 1.349 . S
C1530 H1524 0.950 . S
C1530 C1531 1.327 . S
C1531 H1525 0.950 . S
C1531 C1530 1.327 . S
C1531 C1535 1.429 . S
C1532 C1515 1.574 . S
C1532 H1526 0.949 . S
C1532 C1536 1.368 . S
C1533 C1514 1.429 . S
C1533 C1527 1.429 . S
C1533 C1534 1.523 . S
C1534 C1515 1.368 . S
C1534 C1528 1.368 . S
C1534 C1533 1.523 . S
C1535 C1519 1.429 . S
C1535 C1531 1.429 . S
C1535 C1536 1.523 . S
C1536 C1520 1.368 . S
C1536 C1532 1.368 . S
C1536 C1535 1.523 . S
H1537 C1512 0.950 . S
H1538 C1514 0.950 . S
H1539 C1515 0.949 . S
H1540 C1517 0.950 . S
H1541 C1519 0.950 . S
C1542 C1543 1.349 . S
C1542 C1544 1.327 . S
C1542 H1567 0.950 . S
C1543 C1542 1.349 . S
C1543 C1559 1.349 . S
C1544 C1542 1.327 . S
C1544 C1563 1.429 . S
C1544 H1568 0.950 . S
C1545 C1562 1.574 . S
C1545 C1564 1.368 . S
C1545 H1569 0.949 . S
H1546 C1550 0.949 . S
C1547 C1548 1.349 . S
C1547 C1549 1.327 . S
C1547 H1570 0.950 . S
C1548 C1547 1.349 . S
C1548 C1560 1.349 . S
C1549 C1547 1.327 . S
C1549 C1565 1.429 . S
C1549 H1571 0.950 . S
C1550 H1546 0.949 . S
C1550 C1558 1.574 . S
C1550 C1566 1.368 . S
H1551 C1559 0.950 . S
H1552 C1557 0.950 . S
H1553 C1558 0.949 . S
H1554 C1560 0.950 . S
H1555 C1561 0.950 . S
H1556 C1562 0.949 . S
C1557 H1552 0.950 . S
C1557 C1559 1.327 . S
C1557 C1563 1.429 . S
C1558 C1550 1.574 . S
C1558 H1553 0.949 . S
C1558 C1564 1.368 . S
C1559 C1543 1.349 . S
C1559 H1551 0.950 . S
C1559 C1557 1.327 . S
C1560 C1548 1.349 . S
C1560 H1554 0.950 . S
C1560 C1561 1.327 . S
C1561 H1555 0.950 . S
C1561 C1560 1.327 . S
C1561 C1565 1.429 . S
C1562 C1545 1.574 . S
C1562 H1556 0.949 . S
C1562 C1566 1.368 . S
C1563 C1544 1.429 . S
C1563 C1557 1.429 . S
C1563 C1564 1.523 . S
C1564 C1545 1.368 . S
C1564 C1558 1.368 . S
C1564 C1563 1.523 . S
C1565 C1549 1.429 . S
C1565 C1561 1.429 . S
C1565 C1566 1.523 . S
C1566 C1550 1.368 . S
C1566 C1562 1.368 . S
C1566 C1565 1.523 . S
H1567 C1542 0.950 . S
H1568 C1544 0.950 . S
H1569 C1545 0.949 . S
H1570 C1547 0.950 . S
H1571 C1549 0.950 . S
C1572 C1573 1.349 . S
C1572 C1574 1.327 . S
C1572 H1597 0.950 . S
C1573 C1572 1.349 . S
C1573 C1589 1.349 . S
C1574 C1572 1.327 . S
C1574 C1593 1.429 . S
C1574 H1598 0.950 . S
C1575 C1592 1.574 . S
C1575 C1594 1.368 . S
C1575 H1599 0.949 . S
H1576 C1580 0.949 . S
C1577 C1578 1.349 . S
C1577 C1579 1.327 . S
C1577 H1600 0.950 . S
C1578 C1577 1.349 . S
C1578 C1590 1.349 . S
C1579 C1577 1.327 . S
C1579 C1595 1.429 . S
C1579 H1601 0.950 . S
C1580 H1576 0.949 . S
C1580 C1588 1.574 . S
C1580 C1596 1.368 . S
H1581 C1589 0.950 . S
H1582 C1587 0.950 . S
H1583 C1588 0.949 . S
H1584 C1590 0.950 . S
H1585 C1591 0.950 . S
H1586 C1592 0.949 . S
C1587 H1582 0.950 . S
C1587 C1589 1.327 . S
C1587 C1593 1.429 . S
C1588 C1580 1.574 . S
C1588 H1583 0.949 . S
C1588 C1594 1.368 . S
C1589 C1573 1.349 . S
C1589 H1581 0.950 . S
C1589 C1587 1.327 . S
C1590 C1578 1.349 . S
C1590 H1584 0.950 . S
C1590 C1591 1.327 . S
C1591 H1585 0.950 . S
C1591 C1590 1.327 . S
C1591 C1595 1.429 . S
C1592 C1575 1.574 . S
C1592 H1586 0.949 . S
C1592 C1596 1.368 . S
C1593 C1574 1.429 . S
C1593 C1587 1.429 . S
C1593 C1594 1.523 . S
C1594 C1575 1.368 . S
C1594 C1588 1.368 . S
C1594 C1593 1.523 . S
C1595 C1579 1.429 . S
C1595 C1591 1.429 . S
C1595 C1596 1.523 . S
C1596 C1580 1.368 . S
C1596 C1592 1.368 . S
C1596 C1595 1.523 . S
H1597 C1572 0.950 . S
H1598 C1574 0.950 . S
H1599 C1575 0.949 . S
H1600 C1577 0.950 . S
H1601 C1579 0.950 . S
C1602 C1603 1.349 . S
C1602 C1604 1.327 . S
C1602 H1627 0.950 . S
C1603 C1602 1.349 . S
C1603 C1619 1.349 . S
C1604 C1602 1.327 . S
C1604 C1623 1.429 . S
C1604 H1628 0.950 . S
C1605 C1622 1.574 . S
C1605 C1624 1.368 . S
C1605 H1629 0.949 . S
H1606 C1610 0.949 . S
C1607 C1608 1.349 . S
C1607 C1609 1.327 . S
C1607 H1630 0.950 . S
C1608 C1607 1.349 . S
C1608 C1620 1.349 . S
C1609 C1607 1.327 . S
C1609 C1625 1.429 . S
C1609 H1631 0.950 . S
C1610 H1606 0.949 . S
C1610 C1618 1.574 . S
C1610 C1626 1.368 . S
H1611 C1619 0.950 . S
H1612 C1617 0.950 . S
H1613 C1618 0.949 . S
H1614 C1620 0.950 . S
H1615 C1621 0.950 . S
H1616 C1622 0.949 . S
C1617 H1612 0.950 . S
C1617 C1619 1.327 . S
C1617 C1623 1.429 . S
C1618 C1610 1.574 . S
C1618 H1613 0.949 . S
C1618 C1624 1.368 . S
C1619 C1603 1.349 . S
C1619 H1611 0.950 . S
C1619 C1617 1.327 . S
C1620 C1608 1.349 . S
C1620 H1614 0.950 . S
C1620 C1621 1.327 . S
C1621 H1615 0.950 . S
C1621 C1620 1.327 . S
C1621 C1625 1.429 . S
C1622 C1605 1.574 . S
C1622 H1616 0.949 . S
C1622 C1626 1.368 . S
C1623 C1604 1.429 . S
C1623 C1617 1.429 . S
C1623 C1624 1.523 . S
C1624 C1605 1.368 . S
C1624 C1618 1.368 . S
C1624 C1623 1.523 . S
C1625 C1609 1.429 . S
C1625 C1621 1.429 . S
C1625 C1626 1.523 . S
C1626 C1610 1.368 . S
C1626 C1622 1.368 . S
C1626 C1625 1.523 . S
H1627 C1602 0.950 . S
H1628 C1604 0.950 . S
H1629 C1605 0.949 . S
H1630 C1607 0.950 . S
H1631 C1609 0.950 . S
C1632 C1633 1.349 . S
C1632 C1634 1.327 1_556 S
C1632 H1657 0.950 . S
C1633 C1632 1.349 . S
C1633 C1649 1.349 1_556 S
C1634 C1632 1.327 1_554 S
C1634 C1653 1.429 . S
C1634 H1658 0.950 . S
C1635 C1652 1.574 . S
C1635 C1654 1.368 . S
C1635 H1659 0.949 . S
H1636 C1640 0.949 . S
C1637 C1638 1.349 . S
C1637 C1639 1.327 . S
C1637 H1660 0.950 . S
C1638 C1637 1.349 . S
C1638 C1650 1.349 . S
C1639 C1637 1.327 . S
C1639 C1655 1.429 . S
C1639 H1661 0.950 . S
C1640 H1636 0.949 . S
C1640 C1648 1.574 . S
C1640 C1656 1.368 . S
H1641 C1649 0.950 . S
H1642 C1647 0.950 . S
H1643 C1648 0.949 . S
H1644 C1650 0.950 . S
H1645 C1651 0.950 . S
H1646 C1652 0.949 . S
C1647 H1642 0.950 . S
C1647 C1649 1.327 . S
C1647 C1653 1.429 . S
C1648 C1640 1.574 . S
C1648 H1643 0.949 . S
C1648 C1654 1.368 . S
C1649 C1633 1.349 1_554 S
C1649 H1641 0.950 . S
C1649 C1647 1.327 . S
C1650 C1638 1.349 . S
C1650 H1644 0.950 . S
C1650 C1651 1.327 . S
C1651 H1645 0.950 . S
C1651 C1650 1.327 . S
C1651 C1655 1.429 . S
C1652 C1635 1.574 . S
C1652 H1646 0.949 . S
C1652 C1656 1.368 . S
C1653 C1634 1.429 . S
C1653 C1647 1.429 . S
C1653 C1654 1.523 . S
C1654 C1635 1.368 . S
C1654 C1648 1.368 . S
C1654 C1653 1.523 . S
C1655 C1639 1.429 . S
C1655 C1651 1.429 . S
C1655 C1656 1.523 . S
C1656 C1640 1.368 . S
C1656 C1652 1.368 . S
C1656 C1655 1.523 . S
H1657 C1632 0.950 . S
H1658 C1634 0.950 . S
H1659 C1635 0.949 . S
H1660 C1637 0.950 . S
H1661 C1639 0.950 . S
C1662 C1663 1.349 1_554 S
C1662 C1664 1.327 . S
C1662 H1687 0.950 1_554 S
C1663 C1662 1.349 1_556 S
C1663 C1679 1.349 . S
C1664 C1662 1.327 . S
C1664 C1683 1.429 . S
C1664 H1688 0.950 . S
C1665 C1682 1.574 . S
C1665 C1684 1.368 . S
C1665 H1689 0.949 . S
H1666 C1670 0.949 . S
C1667 C1668 1.349 . S
C1667 C1669 1.327 . S
C1667 H1690 0.950 . S
C1668 C1667 1.349 . S
C1668 C1680 1.349 . S
C1669 C1667 1.327 . S
C1669 C1685 1.429 . S
C1669 H1691 0.950 . S
C1670 H1666 0.949 . S
C1670 C1678 1.574 . S
C1670 C1686 1.368 . S
H1671 C1679 0.950 . S
H1672 C1677 0.950 . S
H1673 C1678 0.949 . S
H1674 C1680 0.950 . S
H1675 C1681 0.950 . S
H1676 C1682 0.949 . S
C1677 H1672 0.950 . S
C1677 C1679 1.327 1_554 S
C1677 C1683 1.429 . S
C1678 C1670 1.574 . S
C1678 H1673 0.949 . S
C1678 C1684 1.368 . S
C1679 C1663 1.349 . S
C1679 H1671 0.950 . S
C1679 C1677 1.327 1_556 S
C1680 C1668 1.349 . S
C1680 H1674 0.950 . S
C1680 C1681 1.327 . S
C1681 H1675 0.950 . S
C1681 C1680 1.327 . S
C1681 C1685 1.429 . S
C1682 C1665 1.574 . S
C1682 H1676 0.949 . S
C1682 C1686 1.368 . S
C1683 C1664 1.429 . S
C1683 C1677 1.429 . S
C1683 C1684 1.523 . S
C1684 C1665 1.368 . S
C1684 C1678 1.368 . S
C1684 C1683 1.523 . S
C1685 C1669 1.429 . S
C1685 C1681 1.429 . S
C1685 C1686 1.523 . S
C1686 C1670 1.368 . S
C1686 C1682 1.368 . S
C1686 C1685 1.523 . S
H1687 C1662 0.950 1_556 S
H1688 C1664 0.950 . S
H1689 C1665 0.949 . S
H1690 C1667 0.950 . S
H1691 C1669 0.950 . S
C1692 C1693 1.349 . S
C1692 C1694 1.327 1_556 S
C1692 H1717 0.950 . S
C1693 C1692 1.349 . S
C1693 C1709 1.349 1_556 S
C1694 C1692 1.327 1_554 S
C1694 C1713 1.429 . S
C1694 H1718 0.950 . S
C1695 C1712 1.574 . S
C1695 C1714 1.368 . S
C1695 H1719 0.949 . S
H1696 C1700 0.949 . S
C1697 C1698 1.349 . S
C1697 C1699 1.327 . S
C1697 H1720 0.950 . S
C1698 C1697 1.349 . S
C1698 C1710 1.349 . S
C1699 C1697 1.327 . S
C1699 C1715 1.429 . S
C1699 H1721 0.950 . S
C1700 H1696 0.949 . S
C1700 C1708 1.574 . S
C1700 C1716 1.368 . S
H1701 C1709 0.950 . S
H1702 C1707 0.950 . S
H1703 C1708 0.949 . S
H1704 C1710 0.950 . S
H1705 C1711 0.950 . S
H1706 C1712 0.949 . S
C1707 H1702 0.950 . S
C1707 C1709 1.327 . S
C1707 C1713 1.429 . S
C1708 C1700 1.574 . S
C1708 H1703 0.949 . S
C1708 C1714 1.368 . S
C1709 C1693 1.349 1_554 S
C1709 H1701 0.950 . S
C1709 C1707 1.327 . S
C1710 C1698 1.349 . S
C1710 H1704 0.950 . S
C1710 C1711 1.327 . S
C1711 H1705 0.950 . S
C1711 C1710 1.327 . S
C1711 C1715 1.429 . S
C1712 C1695 1.574 . S
C1712 H1706 0.949 . S
C1712 C1716 1.368 . S
C1713 C1694 1.429 . S
C1713 C1707 1.429 . S
C1713 C1714 1.523 . S
C1714 C1695 1.368 . S
C1714 C1708 1.368 . S
C1714 C1713 1.523 . S
C1715 C1699 1.429 . S
C1715 C1711 1.429 . S
C1715 C1716 1.523 . S
C1716 C1700 1.368 . S
C1716 C1712 1.368 . S
C1716 C1715 1.523 . S
H1717 C1692 0.950 . S
H1718 C1694 0.950 . S
H1719 C1695 0.949 . S
H1720 C1697 0.950 . S
H1721 C1699 0.950 . S
C1722 C1723 1.349 . S
C1722 C1724 1.327 . S
C1722 H1747 0.950 . S
C1723 C1722 1.349 . S
C1723 C1739 1.349 . S
C1724 C1722 1.327 . S
C1724 C1743 1.429 . S
C1724 H1748 0.950 . S
C1725 C1742 1.574 . S
C1725 C1744 1.368 . S
C1725 H1749 0.949 . S
H1726 C1730 0.949 . S
C1727 C1728 1.349 . S
C1727 C1729 1.327 . S
C1727 H1750 0.950 . S
C1728 C1727 1.349 . S
C1728 C1740 1.349 . S
C1729 C1727 1.327 . S
C1729 C1745 1.429 . S
C1729 H1751 0.950 . S
C1730 H1726 0.949 . S
C1730 C1738 1.574 . S
C1730 C1746 1.368 . S
H1731 C1739 0.950 . S
H1732 C1737 0.950 . S
H1733 C1738 0.949 . S
H1734 C1740 0.950 . S
H1735 C1741 0.950 . S
H1736 C1742 0.949 . S
C1737 H1732 0.950 . S
C1737 C1739 1.327 . S
C1737 C1743 1.429 . S
C1738 C1730 1.574 . S
C1738 H1733 0.949 . S
C1738 C1744 1.368 . S
C1739 C1723 1.349 . S
C1739 H1731 0.950 . S
C1739 C1737 1.327 . S
C1740 C1728 1.349 . S
C1740 H1734 0.950 . S
C1740 C1741 1.327 . S
C1741 H1735 0.950 . S
C1741 C1740 1.327 . S
C1741 C1745 1.429 . S
C1742 C1725 1.574 . S
C1742 H1736 0.949 . S
C1742 C1746 1.368 . S
C1743 C1724 1.429 . S
C1743 C1737 1.429 . S
C1743 C1744 1.523 . S
C1744 C1725 1.368 . S
C1744 C1738 1.368 . S
C1744 C1743 1.523 . S
C1745 C1729 1.429 . S
C1745 C1741 1.429 . S
C1745 C1746 1.523 . S
C1746 C1730 1.368 . S
C1746 C1742 1.368 . S
C1746 C1745 1.523 . S
H1747 C1722 0.950 . S
H1748 C1724 0.950 . S
H1749 C1725 0.949 . S
H1750 C1727 0.950 . S
H1751 C1729 0.950 . S
C1752 C1753 1.349 . S
C1752 C1754 1.327 . S
C1752 H1777 0.950 . S
C1753 C1752 1.349 . S
C1753 C1769 1.349 . S
C1754 C1752 1.327 . S
C1754 C1773 1.429 . S
C1754 H1778 0.950 . S
C1755 C1772 1.574 . S
C1755 C1774 1.368 . S
C1755 H1779 0.949 . S
H1756 C1760 0.949 . S
C1757 C1758 1.349 . S
C1757 C1759 1.327 . S
C1757 H1780 0.950 . S
C1758 C1757 1.349 . S
C1758 C1770 1.349 . S
C1759 C1757 1.327 . S
C1759 C1775 1.429 . S
C1759 H1781 0.950 . S
C1760 H1756 0.949 . S
C1760 C1768 1.574 . S
C1760 C1776 1.368 . S
H1761 C1769 0.950 . S
H1762 C1767 0.950 . S
H1763 C1768 0.949 . S
H1764 C1770 0.950 . S
H1765 C1771 0.950 . S
H1766 C1772 0.949 . S
C1767 H1762 0.950 . S
C1767 C1769 1.327 . S
C1767 C1773 1.429 . S
C1768 C1760 1.574 . S
C1768 H1763 0.949 . S
C1768 C1774 1.368 . S
C1769 C1753 1.349 . S
C1769 H1761 0.950 . S
C1769 C1767 1.327 . S
C1770 C1758 1.349 . S
C1770 H1764 0.950 . S
C1770 C1771 1.327 . S
C1771 H1765 0.950 . S
C1771 C1770 1.327 . S
C1771 C1775 1.429 . S
C1772 C1755 1.574 . S
C1772 H1766 0.949 . S
C1772 C1776 1.368 . S
C1773 C1754 1.429 . S
C1773 C1767 1.429 . S
C1773 C1774 1.523 . S
C1774 C1755 1.368 . S
C1774 C1768 1.368 . S
C1774 C1773 1.523 . S
C1775 C1759 1.429 . S
C1775 C1771 1.429 . S
C1775 C1776 1.523 . S
C1776 C1760 1.368 . S
C1776 C1772 1.368 . S
C1776 C1775 1.523 . S
H1777 C1752 0.950 . S
H1778 C1754 0.950 . S
H1779 C1755 0.949 . S
H1780 C1757 0.950 . S
H1781 C1759 0.950 . S
C1782 C1783 1.349 . S
C1782 C1784 1.327 . S
C1782 H1807 0.950 . S
C1783 C1782 1.349 . S
C1783 C1799 1.349 . S
C1784 C1782 1.327 . S
C1784 C1803 1.429 . S
C1784 H1808 0.950 . S
C1785 C1802 1.574 . S
C1785 C1804 1.368 . S
C1785 H1809 0.949 . S
H1786 C1790 0.949 . S
C1787 C1788 1.349 . S
C1787 C1789 1.327 . S
C1787 H1810 0.950 . S
C1788 C1787 1.349 . S
C1788 C1800 1.349 . S
C1789 C1787 1.327 . S
C1789 C1805 1.429 . S
C1789 H1811 0.950 . S
C1790 H1786 0.949 . S
C1790 C1798 1.574 . S
C1790 C1806 1.368 . S
H1791 C1799 0.950 . S
H1792 C1797 0.950 . S
H1793 C1798 0.949 . S
H1794 C1800 0.950 . S
H1795 C1801 0.950 . S
H1796 C1802 0.949 . S
C1797 H1792 0.950 . S
C1797 C1799 1.327 . S
C1797 C1803 1.429 . S
C1798 C1790 1.574 . S
C1798 H1793 0.949 . S
C1798 C1804 1.368 . S
C1799 C1783 1.349 . S
C1799 H1791 0.950 . S
C1799 C1797 1.327 . S
C1800 C1788 1.349 . S
C1800 H1794 0.950 . S
C1800 C1801 1.327 . S
C1801 H1795 0.950 . S
C1801 C1800 1.327 . S
C1801 C1805 1.429 . S
C1802 C1785 1.574 . S
C1802 H1796 0.949 . S
C1802 C1806 1.368 . S
C1803 C1784 1.429 . S
C1803 C1797 1.429 . S
C1803 C1804 1.523 . S
C1804 C1785 1.368 . S
C1804 C1798 1.368 . S
C1804 C1803 1.523 . S
C1805 C1789 1.429 . S
C1805 C1801 1.429 . S
C1805 C1806 1.523 . S
C1806 C1790 1.368 . S
C1806 C1802 1.368 . S
C1806 C1805 1.523 . S
H1807 C1782 0.950 . S
H1808 C1784 0.950 . S
H1809 C1785 0.949 . S
H1810 C1787 0.950 . S
H1811 C1789 0.950 . S
C373 C24 1.020 . S
C378 C42 0.942 . S
C403 C73 0.942 . S
C408 C55 1.020 . S
C433 C86 1.020 . S
C438 C11 0.943 . S
C463 C166 0.942 . S
C468 C117 1.020 . S
C493 C104 0.943 . S
C498 C148 1.020 . S
C523 C179 1.020 . S
C528 C135 0.942 . S
C553 C186 1.020 . S
C558 C235 0.942 . S
C583 C266 0.942 . S
C588 C217 1.020 . S
C613 C248 1.020 . S
C618 C204 0.943 . S
C643 C279 1.020 . S
C648 C359 0.942 . S
C673 C297 0.943 . S
C678 C310 1.020 . S
C703 C328 0.942 . S
C708 C341 1.020 . S
C733 C210 1.137 . S
C738 C0 1.137 . S
C763 C31 1.136 . S
C768 C241 1.136 . S
C793 C62 1.136 . S
C798 C272 1.136 . S
C823 C93 1.137 . S
C828 C303 1.137 . S
C853 C124 1.136 . S
C858 C334 1.136 . S
C883 C365 1.136 . S
C888 C155 1.136 . S
C913 C1 0.905 1_556 S
C918 C281 0.895 . S
C943 C32 0.905 1_556 S
C948 C312 0.895 . S
C973 C343 0.895 . S
C978 C63 0.905 1_556 S
C1003 C188 0.895 . S
C1008 C94 0.905 . S
C1033 C219 0.895 . S
C1038 C125 0.905 . S
C1063 C250 0.895 . S
C1068 C156 0.905 . S
C1093 C103 0.895 . S
C1098 C213 0.905 1_554 S
C1123 C244 0.905 1_554 S
C1128 C134 0.895 . S
C1153 C275 0.905 1_554 S
C1158 C165 0.895 . S
C1183 C10 0.895 . S
C1188 C306 0.905 . S
C1213 C337 0.905 . S
C1218 C41 0.895 . S
C1243 C72 0.895 . S
C1248 C368 0.905 . S
C1273 C111 2.122 . S
C1278 C18 2.122 . S
C1303 C142 2.122 . S
C1308 C49 2.122 . S
C1333 C173 2.122 . S
C1338 C80 2.122 . S
C1363 C197 2.122 . S
C1368 C290 2.122 . S
C1393 C228 2.122 . S
C1398 C321 2.122 . S
C1423 C352 2.122 . S
C1428 C259 2.122 . S
C1453 C311 1.435 . S
C1458 C2 1.563 . S
C1483 C33 1.563 . S
C1488 C342 1.435 . S
C1513 C64 1.564 . S
C1518 C280 1.436 . S
C1543 C95 1.563 . S
C1548 C249 1.435 . S
C1573 C187 1.436 . S
C1578 C126 1.564 . S
C1603 C218 1.435 . S
C1608 C157 1.563 . S
C1633 C196 1.563 . S
C1638 C151 1.435 . S
C1663 C227 1.563 . S
C1668 C182 1.435 . S
C1693 C258 1.564 . S
C1698 C120 1.436 . S
C1723 C89 1.435 . S
C1728 C289 1.563 . S
C1753 C27 1.436 . S
C1758 C320 1.564 . S
C1783 C58 1.435 . S
C1788 C351 1.563 . S
