# Generated by pormake.
# Topology neb, (4)-cn, num edge types: 1
# Building blocks:
#     Node 0, Type 0, BuildingBlock: NAHDIM_clean_sbu_0, # of connection points: 4
#     Node 1, Type 0, BuildingBlock: NAHDIM_clean_sbu_0, # of connection points: 4
#     Node 2, Type 0, BuildingBlock: NAHDIM_clean_sbu_0, # of connection points: 4
#     Node 3, Type 0, BuildingBlock: NAHDIM_clean_sbu_0, # of connection points: 4
#     Node 4, Type 0, BuildingBlock: NAHDIM_clean_sbu_0, # of connection points: 4
#     Node 5, Type 0, BuildingBlock: NAHDIM_clean_sbu_0, # of connection points: 4
#     Node 6, Type 0, BuildingBlock: NAHDIM_clean_sbu_0, # of connection points: 4
#     Node 7, Type 0, BuildingBlock: NAHDIM_clean_sbu_0, # of connection points: 4
#     Node 8, Type 0, BuildingBlock: NAHDIM_clean_sbu_0, # of connection points: 4
#     Node 9, Type 0, BuildingBlock: NAHDIM_clean_sbu_0, # of connection points: 4
#     Node 10, Type 0, BuildingBlock: NAHDIM_clean_sbu_0, # of connection points: 4
#     Node 11, Type 0, BuildingBlock: NAHDIM_clean_sbu_0, # of connection points: 4
#     Node 12, Type 0, BuildingBlock: NAHDIM_clean_sbu_0, # of connection points: 4
#     Node 13, Type 0, BuildingBlock: NAHDIM_clean_sbu_0, # of connection points: 4
#     Node 14, Type 0, BuildingBlock: NAHDIM_clean_sbu_0, # of connection points: 4
#     Node 15, Type 0, BuildingBlock: NAHDIM_clean_sbu_0, # of connection points: 4
#     Edge 16, Type (0, 0), BuildingBlock: XUDNAN_clean_linker_2, # of connection points: 2
#     Edge 17, Type (0, 0), BuildingBlock: XUDNAN_clean_linker_2, # of connection points: 2
#     Edge 18, Type (0, 0), BuildingBlock: XUDNAN_clean_linker_2, # of connection points: 2
#     Edge 19, Type (0, 0), BuildingBlock: XUDNAN_clean_linker_2, # of connection points: 2
#     Edge 20, Type (0, 0), BuildingBlock: XUDNAN_clean_linker_2, # of connection points: 2
#     Edge 21, Type (0, 0), BuildingBlock: XUDNAN_clean_linker_2, # of connection points: 2
#     Edge 22, Type (0, 0), BuildingBlock: XUDNAN_clean_linker_2, # of connection points: 2
#     Edge 23, Type (0, 0), BuildingBlock: XUDNAN_clean_linker_2, # of connection points: 2
#     Edge 24, Type (0, 0), BuildingBlock: XUDNAN_clean_linker_2, # of connection points: 2
#     Edge 25, Type (0, 0), BuildingBlock: XUDNAN_clean_linker_2, # of connection points: 2
#     Edge 26, Type (0, 0), BuildingBlock: XUDNAN_clean_linker_2, # of connection points: 2
#     Edge 27, Type (0, 0), BuildingBlock: XUDNAN_clean_linker_2, # of connection points: 2
#     Edge 28, Type (0, 0), BuildingBlock: XUDNAN_clean_linker_2, # of connection points: 2
#     Edge 29, Type (0, 0), BuildingBlock: XUDNAN_clean_linker_2, # of connection points: 2
#     Edge 30, Type (0, 0), BuildingBlock: XUDNAN_clean_linker_2, # of connection points: 2
#     Edge 31, Type (0, 0), BuildingBlock: XUDNAN_clean_linker_2, # of connection points: 2
#     Edge 32, Type (0, 0), BuildingBlock: XUDNAN_clean_linker_2, # of connection points: 2
#     Edge 33, Type (0, 0), BuildingBlock: XUDNAN_clean_linker_2, # of connection points: 2
#     Edge 34, Type (0, 0), BuildingBlock: XUDNAN_clean_linker_2, # of connection points: 2
#     Edge 35, Type (0, 0), BuildingBlock: XUDNAN_clean_linker_2, # of connection points: 2
#     Edge 36, Type (0, 0), BuildingBlock: XUDNAN_clean_linker_2, # of connection points: 2
#     Edge 37, Type (0, 0), BuildingBlock: XUDNAN_clean_linker_2, # of connection points: 2
#     Edge 38, Type (0, 0), BuildingBlock: XUDNAN_clean_linker_2, # of connection points: 2
#     Edge 39, Type (0, 0), BuildingBlock: XUDNAN_clean_linker_2, # of connection points: 2
#     Edge 40, Type (0, 0), BuildingBlock: XUDNAN_clean_linker_2, # of connection points: 2
#     Edge 41, Type (0, 0), BuildingBlock: XUDNAN_clean_linker_2, # of connection points: 2
#     Edge 42, Type (0, 0), BuildingBlock: XUDNAN_clean_linker_2, # of connection points: 2
#     Edge 43, Type (0, 0), BuildingBlock: XUDNAN_clean_linker_2, # of connection points: 2
#     Edge 44, Type (0, 0), BuildingBlock: XUDNAN_clean_linker_2, # of connection points: 2
#     Edge 45, Type (0, 0), BuildingBlock: XUDNAN_clean_linker_2, # of connection points: 2
#     Edge 46, Type (0, 0), BuildingBlock: XUDNAN_clean_linker_2, # of connection points: 2
#     Edge 47, Type (0, 0), BuildingBlock: XUDNAN_clean_linker_2, # of connection points: 2
# Relax obj value: 0.078
# Max RMSD: 0.133
# Mean RMSD: 0.133
data_MOF--net-neb--node1-NAHDIM_clean_sbu_0--edge1-XUDNAN_clean_linker_2
_symmetry_space_group_name_H-M    P1
_symmetry_Int_Tables_number       1
_symmetry_cell_setting            triclinic
loop_
_symmetry_equiv_pos_as_xyz
'x, y, z'
_cell_length_a     45.987865
_cell_length_b     22.044503
_cell_length_c     72.002459
_cell_angle_alpha  90.037413
_cell_angle_beta   94.067013
_cell_angle_gamma 90.027714
loop_
_atom_site_label
_atom_site_type_symbol
_atom_site_fract_x
_atom_site_fract_y
_atom_site_fract_z
_atom_type_partial_charge
C0 C 0.10869 0.05786 0.46102 0.0
O1 O 0.13407 0.0341 0.45786 0.0
O2 O 0.16628 0.17646 0.45386 0.0
Zn3 Zn 0.13104 0.14759 0.43797 0.0
O4 O 0.14316 0.08514 0.41953 0.0
C5 C 0.09456 0.25518 0.42792 0.0
O6 O 0.08306 0.24896 0.444 0.0
O7 O 0.10189 0.10919 0.45395 0.0
C8 C 0.14996 0.10059 0.40338 0.0
O9 O 0.1494 0.15819 0.39873 0.0
C10 C 0.18655 0.20343 0.446 0.0
O11 O 0.18387 0.21153 0.4279 0.0
O12 O 0.11392 0.21808 0.42335 0.0
C13 C 0.15277 0.07543 0.78243 0.0
O14 O 0.13455 0.04117 0.79098 0.0
O15 O 0.08514 0.18511 0.78701 0.0
Zn16 Zn 0.12306 0.16679 0.8018 0.0
O17 O 0.11681 0.10608 0.82208 0.0
C18 C 0.12074 0.26795 0.8252 0.0
O19 O 0.09481 0.24404 0.82653 0.0
O20 O 0.1524 0.13252 0.78497 0.0
C21 C 0.09247 0.09469 0.82867 0.0
O22 O 0.06894 0.12328 0.82202 0.0
C23 C 0.06967 0.14328 0.7792 0.0
O24 O 0.0787 0.08688 0.78063 0.0
O25 O 0.13801 0.24315 0.81445 0.0
C26 C 0.9497 0.89877 0.53142 0.0
O27 O 0.92841 0.93851 0.53136 0.0
O28 O 0.8823 0.78602 0.5399 0.0
Zn29 Zn 0.91311 0.83211 0.55531 0.0
O30 O 0.8976 0.90952 0.56587 0.0
C31 C 0.90477 0.76054 0.58665 0.0
O32 O 0.87827 0.78083 0.58243 0.0
O33 O 0.94772 0.84979 0.54056 0.0
C34 C 0.87076 0.92168 0.56705 0.0
O35 O 0.8509 0.88314 0.56035 0.0
C36 C 0.86679 0.80531 0.52585 0.0
O37 O 0.87054 0.86095 0.51994 0.0
O38 O 0.9252 0.77752 0.57685 0.0
C39 C 0.81365 0.888 0.21894 0.0
O40 O 0.83325 0.8722 0.23221 0.0
O41 O 0.88329 0.81031 0.21215 0.0
Zn42 Zn 0.85238 0.83324 0.1922 0.0
O43 O 0.86863 0.89382 0.17477 0.0
C44 C 0.86035 0.7283 0.17056 0.0
O45 O 0.88759 0.74394 0.17476 0.0
O46 O 0.81741 0.8739 0.20216 0.0
C47 C 0.89484 0.8996 0.17046 0.0
O48 O 0.91506 0.86303 0.17779 0.0
C49 C 0.89936 0.85081 0.22015 0.0
O50 O 0.89422 0.90812 0.21612 0.0
O51 O 0.84018 0.75955 0.17703 0.0
C52 C 0.08247 0.59037 0.9668 0.0
O53 O 0.10068 0.54734 0.96266 0.0
O54 O 0.15533 0.68536 0.95949 0.0
Zn55 Zn 0.11789 0.66687 0.94432 0.0
O56 O 0.12369 0.6002 0.92582 0.0
C57 C 0.12274 0.77754 0.92342 0.0
O58 O 0.15078 0.76831 0.92703 0.0
O59 O 0.08615 0.64382 0.96078 0.0
C60 C 0.14514 0.6004 0.9156 0.0
O61 O 0.16459 0.64398 0.9176 0.0
C62 C 0.1744 0.6449 0.96354 0.0
O63 O 0.16922 0.5886 0.95829 0.0
O64 O 0.10463 0.74074 0.92975 0.0
C65 C 0.1587 0.5654 0.28616 0.0
O66 O 0.13695 0.52664 0.28574 0.0
O67 O 0.09152 0.67987 0.29381 0.0
Zn68 Zn 0.12382 0.6416 0.30998 0.0
O69 O 0.10957 0.57406 0.32567 0.0
C70 C 0.15122 0.75296 0.3196 0.0
O71 O 0.1549 0.75157 0.30167 0.0
O72 O 0.15696 0.61473 0.29516 0.0
C73 C 0.0906 0.5852 0.33722 0.0
O74 O 0.07963 0.64012 0.33791 0.0
C75 C 0.0674 0.65652 0.28783 0.0
O76 O 0.0621 0.5992 0.29127 0.0
O77 O 0.1388 0.70839 0.32693 0.0
C78 C 0.92379 0.42269 0.03581 0.0
O79 O 0.89922 0.44792 0.04 0.0
O80 O 0.86781 0.289 0.04041 0.0
Zn81 Zn 0.89956 0.32949 0.05671 0.0
O82 O 0.88412 0.39317 0.07365 0.0
C83 C 0.89732 0.23703 0.08204 0.0
O84 O 0.87021 0.25538 0.07913 0.0
O85 O 0.92937 0.36883 0.04128 0.0
C86 C 0.85803 0.40138 0.07789 0.0
O87 O 0.83714 0.36637 0.07056 0.0
C88 C 0.84688 0.31262 0.03047 0.0
O89 O 0.8445 0.37194 0.02953 0.0
O90 O 0.91689 0.26346 0.07339 0.0
C91 C 0.80934 0.40305 0.70774 0.0
O92 O 0.83153 0.44074 0.70921 0.0
O93 O 0.87682 0.2925 0.70215 0.0
Zn94 Zn 0.84729 0.33563 0.68496 0.0
O95 O 0.86374 0.41221 0.67451 0.0
C96 C 0.85823 0.25584 0.65553 0.0
O97 O 0.88494 0.27098 0.66142 0.0
O98 O 0.81125 0.35492 0.69817 0.0
C99 C 0.89065 0.42132 0.6725 0.0
O100 O 0.9098 0.3798 0.67805 0.0
C101 C 0.89367 0.31668 0.7148 0.0
O102 O 0.892 0.37528 0.71788 0.0
O103 O 0.83705 0.27867 0.66356 0.0
C104 C 0.58671 0.1234 0.98017 0.0
O105 O 0.60716 0.15905 0.98774 0.0
O106 O 0.65604 0.15484 0.96349 0.0
Zn107 Zn 0.61956 0.13585 0.94743 0.0
O108 O 0.62762 0.06852 0.92969 0.0
C109 C 0.6269 0.24945 0.92908 0.0
O110 O 0.65322 0.24392 0.93723 0.0
O111 O 0.58731 0.10883 0.96312 0.0
C112 C 0.6486 0.0713 0.91914 0.0
O113 O 0.666 0.11865 0.92019 0.0
C114 C 0.67409 0.11448 0.96938 0.0
O115 O 0.66839 0.05719 0.96562 0.0
O116 O 0.60787 0.20922 0.93189 0.0
C117 C 0.66164 0.14179 0.26909 0.0
O118 O 0.64016 0.17205 0.2604 0.0
O119 O 0.593 0.17917 0.28353 0.0
Zn120 Zn 0.62906 0.16854 0.3008 0.0
O121 O 0.62031 0.10902 0.32064 0.0
C122 C 0.61515 0.27565 0.31855 0.0
O123 O 0.58947 0.25181 0.31393 0.0
O124 O 0.66228 0.13647 0.28669 0.0
C125 C 0.64095 0.0913 0.33198 0.0
O126 O 0.66751 0.11115 0.33002 0.0
C127 C 0.57481 0.13671 0.27986 0.0
O128 O 0.58018 0.08239 0.28678 0.0
O129 O 0.63785 0.24806 0.31395 0.0
C130 C 0.43081 0.89593 0.03584 0.0
O131 O 0.41476 0.86708 0.02284 0.0
O132 O 0.36641 0.80381 0.04053 0.0
Zn133 Zn 0.392 0.84003 0.06152 0.0
O134 O 0.3679 0.89128 0.07776 0.0
C135 C 0.38797 0.74615 0.08703 0.0
O136 O 0.36133 0.76802 0.08564 0.0
O137 O 0.42514 0.89003 0.05276 0.0
C138 C 0.36593 0.94868 0.07712 0.0
O139 O 0.37984 0.97873 0.06472 0.0
C140 C 0.34236 0.82726 0.03446 0.0
O141 O 0.33454 0.87987 0.04108 0.0
O142 O 0.40708 0.77019 0.07744 0.0
C143 C 0.31338 0.94668 0.70867 0.0
O144 O 0.33373 0.98862 0.70911 0.0
O145 O 0.38431 0.84814 0.71198 0.0
Zn146 Zn 0.35607 0.87331 0.69093 0.0
O147 O 0.37216 0.94268 0.67664 0.0
C148 C 0.33457 0.75647 0.67872 0.0
O149 O 0.32322 0.75698 0.69496 0.0
O150 O 0.31816 0.89555 0.70133 0.0
C151 C 0.36579 0.94643 0.65921 0.0
O152 O 0.34838 0.90562 0.65106 0.0
C153 C 0.41081 0.83686 0.70943 0.0
O154 O 0.42019 0.84419 0.69276 0.0
O155 O 0.34951 0.80166 0.674 0.0
C156 C 0.59616 0.59049 0.46712 0.0
O157 O 0.60675 0.54861 0.45651 0.0
O158 O 0.67358 0.67137 0.45818 0.0
Zn159 Zn 0.63273 0.66691 0.4464 0.0
O160 O 0.62838 0.60818 0.42506 0.0
C161 C 0.64281 0.77408 0.42669 0.0
O162 O 0.66862 0.74847 0.42691 0.0
O163 O 0.60439 0.64519 0.46548 0.0
C164 C 0.64778 0.57801 0.41738 0.0
O165 O 0.67511 0.58138 0.42395 0.0
C166 C 0.68678 0.63015 0.46775 0.0
O167 O 0.67357 0.57829 0.47033 0.0
O168 O 0.62281 0.74811 0.43506 0.0
C169 C 0.64896 0.56083 0.7772 0.0
O170 O 0.62326 0.53745 0.77975 0.0
O171 O 0.59095 0.6715 0.7875 0.0
Zn172 Zn 0.62748 0.64443 0.80244 0.0
O173 O 0.61733 0.57888 0.82031 0.0
C174 C 0.62993 0.73156 0.83113 0.0
O175 O 0.60655 0.70075 0.83474 0.0
O176 O 0.65637 0.60994 0.78551 0.0
C177 C 0.6354 0.5638 0.83366 0.0
O178 O 0.66099 0.59054 0.83535 0.0
C179 C 0.56621 0.66441 0.79405 0.0
O180 O 0.56476 0.6377 0.81025 0.0
O181 O 0.64394 0.71589 0.81729 0.0
C182 C 0.44114 0.41434 0.5371 0.0
O183 O 0.43531 0.35904 0.53111 0.0
O184 O 0.36369 0.36879 0.53654 0.0
Zn185 Zn 0.39099 0.39428 0.55835 0.0
O186 O 0.37089 0.45167 0.57502 0.0
C187 C 0.39862 0.26783 0.57011 0.0
O188 O 0.38525 0.25467 0.55388 0.0
O189 O 0.42532 0.438 0.54892 0.0
C190 C 0.35736 0.43193 0.58859 0.0
O191 O 0.35543 0.37313 0.5912 0.0
C192 C 0.33843 0.34729 0.53848 0.0
O193 O 0.32946 0.3411 0.55528 0.0
O194 O 0.40432 0.32285 0.57417 0.0
C195 C 0.32065 0.4101 0.21749 0.0
O196 O 0.3467 0.43321 0.21595 0.0
O197 O 0.376 0.28547 0.20814 0.0
Zn198 Zn 0.34445 0.32911 0.19259 0.0
O199 O 0.36096 0.39854 0.17867 0.0
C200 C 0.31888 0.21836 0.17683 0.0
O201 O 0.31643 0.20292 0.19427 0.0
O202 O 0.31369 0.36179 0.20859 0.0
C203 C 0.38281 0.39342 0.16892 0.0
O204 O 0.39638 0.34109 0.16834 0.0
C205 C 0.39946 0.31038 0.21468 0.0
O206 O 0.40347 0.3686 0.21193 0.0
O207 O 0.32853 0.27065 0.17317 0.0
H208 H 0.28418 0.29507 0.53788 0.0
H209 H 0.35005 0.35638 0.5018 0.0
H210 H 0.31857 0.32486 0.4743 0.0
H211 H 0.26166 0.16311 0.51099 0.0
H212 H 0.22372 0.17114 0.51529 0.0
H213 H 0.25147 0.19831 0.53218 0.0
H214 H 0.22798 0.30521 0.53081 0.0
H215 H 0.20015 0.27837 0.51393 0.0
H216 H 0.22209 0.34306 0.50867 0.0
H217 H 0.27971 0.2886 0.45075 0.0
H218 H 0.23625 0.24891 0.43268 0.0
H219 H 0.19594 0.20976 0.4841 0.0
C220 C 0.29203 0.30187 0.5242 0.0
C221 C 0.31959 0.3283 0.522 0.0
C222 C 0.32903 0.33628 0.50385 0.0
C223 C 0.31131 0.31851 0.48813 0.0
C224 C 0.28428 0.29269 0.49081 0.0
C225 C 0.27468 0.28426 0.50838 0.0
C226 C 0.24465 0.25564 0.5074 0.0
C227 C 0.24544 0.19335 0.51703 0.0
C228 C 0.22241 0.29812 0.51569 0.0
C229 C 0.23884 0.24944 0.48653 0.0
C230 C 0.26197 0.27118 0.47723 0.0
C231 C 0.2615 0.27128 0.45787 0.0
C232 C 0.23668 0.24871 0.44774 0.0
C233 C 0.21271 0.22613 0.45697 0.0
C234 C 0.21397 0.22637 0.47664 0.0
H235 H 0.96149 0.00021 0.5111 0.0
H236 H 0.99766 0.82627 0.52917 0.0
H237 H 0.04209 0.84823 0.51309 0.0
H238 H 0.98983 -0.00011 0.46559 0.0
H239 H 0.99725 0.08019 0.46579 0.0
H240 H 0.9681 0.05056 0.47857 0.0
H241 H 0.99096 0.10075 0.50873 0.0
H242 H 0.02021 0.1304 0.49605 0.0
H243 H 0.02827 0.0842 0.51641 0.0
H244 H 0.08278 0.88937 0.49548 0.0
H245 H 0.11684 0.94629 0.47708 0.0
H246 H 0.05426 0.09357 0.47038 0.0
C247 C 0.9787 0.96662 0.51164 0.0
C248 C 0.97606 0.91148 0.52141 0.0
C249 C 0.99914 0.86881 0.52178 0.0
C250 C 0.02449 0.88087 0.5127 0.0
C251 C 0.02643 0.93574 0.50329 0.0
C252 C 0.00415 0.97789 0.50265 0.0
C253 C 0.01183 0.03347 0.49162 0.0
C254 C 0.99048 0.04146 0.47437 0.0
C255 C 0.01288 0.09057 0.50394 0.0
C256 C 0.04194 0.01602 0.48622 0.0
C257 C 0.04992 0.95947 0.49309 0.0
C258 C 0.07677 0.93366 0.49 0.0
C259 C 0.09598 0.96643 0.47954 0.0
C260 C 0.08825 0.02443 0.47228 0.0
C261 C 0.06084 0.04938 0.47573 0.0
H262 H 0.29538 0.05086 0.72555 0.0
H263 H 0.26923 0.86549 0.71234 0.0
H264 H 0.22462 0.88 0.72882 0.0
H265 H 0.27108 0.05376 0.77115 0.0
H266 H 0.25825 0.13099 0.76986 0.0
H267 H 0.28756 0.10747 0.7562 0.0
H268 H 0.25851 0.14427 0.72616 0.0
H269 H 0.22913 0.16814 0.73975 0.0
H270 H 0.22211 0.11609 0.72063 0.0
H271 H 0.18462 0.91179 0.74824 0.0
H272 H 0.15038 0.96056 0.76842 0.0
H273 H 0.20142 0.12639 0.76854 0.0
C274 C 0.28014 0.0135 0.72596 0.0
C275 C 0.28584 0.95701 0.71765 0.0
C276 C 0.26536 0.90922 0.71857 0.0
C277 C 0.23993 0.91697 0.72791 0.0
C278 C 0.23516 0.9729 0.73614 0.0
C279 C 0.25453 0.02053 0.73516 0.0
C280 C 0.24438 0.07556 0.74556 0.0
C281 C 0.26664 0.09293 0.76165 0.0
C282 C 0.23816 0.12918 0.73223 0.0
C283 C 0.21653 0.05101 0.75276 0.0
C284 C 0.21167 0.99169 0.74714 0.0
C285 C 0.18801 0.95841 0.75259 0.0
C286 C 0.16874 0.98648 0.76411 0.0
C287 C 0.17316 0.04733 0.76999 0.0
C288 C 0.19731 0.08002 0.76412 0.0
H289 H 0.04353 0.25487 0.77461 0.0
H290 H 0.03175 0.064 0.76103 0.0
H291 H 0.98445 0.08739 0.74427 0.0
H292 H 0.96792 0.28696 0.78185 0.0
H293 H 0.96876 0.36136 0.77152 0.0
H294 H 0.00146 0.32961 0.78287 0.0
H295 H 0.02839 0.34489 0.7528 0.0
H296 H 0.99584 0.37686 0.74139 0.0
H297 H 0.0132 0.31287 0.7312 0.0
H298 H 0.93932 0.1314 0.72831 0.0
H299 H 0.89941 0.19343 0.71372 0.0
H300 H 0.94016 0.3558 0.73787 0.0
C301 C 0.03099 0.21793 0.76816 0.0
C302 C 0.04136 0.15756 0.76914 0.0
C303 C 0.02427 0.11059 0.76048 0.0
C304 C 0.99735 0.12338 0.75096 0.0
C305 C 0.98778 0.18331 0.75027 0.0
C306 C 0.00404 0.22985 0.75862 0.0
C307 C 0.989 0.29049 0.75547 0.0
C308 C 0.98133 0.31875 0.77404 0.0
C309 C 0.00772 0.33381 0.74456 0.0
C310 C 0.96186 0.27078 0.74389 0.0
C311 C 0.96157 0.20874 0.74112 0.0
C312 C 0.9392 0.17999 0.73046 0.0
C313 C 0.91664 0.21568 0.72222 0.0
C314 C 0.9166 0.27948 0.72469 0.0
C315 C 0.93941 0.30713 0.73585 0.0
H316 H 0.82352 0.83691 0.49934 0.0
H317 H 0.85659 0.68582 0.53325 0.0
H318 H 0.81569 0.62233 0.52062 0.0
H319 H 0.74931 0.81143 0.50552 0.0
H320 H 0.73659 0.83255 0.48216 0.0
H321 H 0.76981 0.86467 0.49263 0.0
H322 H 0.79786 0.8263 0.46494 0.0
H323 H 0.76466 0.79418 0.45435 0.0
H324 H 0.79638 0.74699 0.45881 0.0
H325 H 0.76952 0.57705 0.50579 0.0
H326 H 0.72141 0.55384 0.48984 0.0
H327 H 0.71864 0.73454 0.46578 0.0
C328 C 0.82243 0.79021 0.50389 0.0
C329 C 0.84334 0.76634 0.51723 0.0
C330 C 0.84087 0.70517 0.52301 0.0
C331 C 0.81774 0.66863 0.51589 0.0
C332 C 0.79728 0.69382 0.50297 0.0
C333 C 0.79943 0.75313 0.49697 0.0
C334 C 0.77376 0.7701 0.48368 0.0
C335 C 0.75634 0.82279 0.49147 0.0
C336 C 0.78377 0.78527 0.46429 0.0
C337 C 0.75662 0.71142 0.4834 0.0
C338 C 0.77062 0.66781 0.4945 0.0
C339 C 0.75845 0.61066 0.49692 0.0
C340 C 0.73111 0.59792 0.48783 0.0
C341 C 0.71626 0.64226 0.47654 0.0
C342 C 0.72945 0.69947 0.47423 0.0
H343 H 0.70886 0.07397 0.2825 0.0
H344 H 0.66294 0.13627 0.23124 0.0
H345 H 0.69656 0.07747 0.21306 0.0
H346 H 0.78147 0.07783 0.26553 0.0
H347 H 0.79341 0.01057 0.27808 0.0
H348 H 0.76608 0.05869 0.28712 0.0
H349 H 0.7312 0.96663 0.28822 0.0
H350 H 0.75832 0.91832 0.27904 0.0
H351 H 0.72245 0.92327 0.26733 0.0
H352 H 0.73358 0.0091 0.20042 0.0
H353 H 0.77385 0.94047 0.19393 0.0
H354 H 0.7967 0.92343 0.25329 0.0
C355 C 0.70601 0.07566 0.26746 0.0
C356 C 0.6832 0.10977 0.25831 0.0
C357 C 0.68023 0.11062 0.23859 0.0
C358 C 0.69918 0.07723 0.22812 0.0
C359 C 0.72111 0.04343 0.23756 0.0
C360 C 0.72483 0.04276 0.25676 0.0
C361 C 0.75021 0.00252 0.26341 0.0
C362 C 0.77422 0.03963 0.27417 0.0
C363 C 0.73992 0.94955 0.27519 0.0
C364 C 0.76004 0.98045 0.24492 0.0
C365 C 0.74284 0.00445 0.23022 0.0
C366 C 0.74731 0.99023 0.2118 0.0
C367 C 0.77021 0.95097 0.20828 0.0
C368 C 0.78852 0.92653 0.2231 0.0
C369 C 0.78317 0.94139 0.24166 0.0
H370 H 0.91627 0.73619 0.23132 0.0
H371 H 0.94161 0.92575 0.23593 0.0
H372 H 0.98706 0.89623 0.25388 0.0
H373 H 0.94553 0.69144 0.27773 0.0
H374 H 0.95737 0.61822 0.27006 0.0
H375 H 0.92627 0.65448 0.25817 0.0
H376 H 0.95076 0.64554 0.22697 0.0
H377 H 0.98204 0.60973 0.23876 0.0
H378 H 0.98661 0.67711 0.22511 0.0
H379 H 0.03075 0.84632 0.26967 0.0
H380 H 0.06876 0.77974 0.28427 0.0
H381 H 0.01486 0.62219 0.27009 0.0
C382 C 0.93122 0.77158 0.23627 0.0
C383 C 0.92537 0.83334 0.23221 0.0
C384 C 0.94555 0.87819 0.2389 0.0
C385 C 0.97147 0.86188 0.24907 0.0
C386 C 0.97679 0.80058 0.25254 0.0
C387 C 0.95714 0.75613 0.24652 0.0
C388 C 0.96833 0.6935 0.25199 0.0
C389 C 0.94818 0.6626 0.26528 0.0
C390 C 0.97216 0.65417 0.23467 0.0
C391 C 0.99748 0.7097 0.26186 0.0
C392 C 0.00191 0.77172 0.26194 0.0
C393 C 0.02746 0.79772 0.26982 0.0
C394 C 0.04898 0.75939 0.27801 0.0
C395 C 0.04479 0.69566 0.27837 0.0
C396 C 0.01867 0.67067 0.27012 0.0
H397 H 0.28828 0.86199 0.01967 0.0
H398 H 0.34998 0.7127 0.02088 0.0
H399 H 0.31409 0.65054 0.00223 0.0
H400 H 0.22545 0.77396 0.02475 0.0
H401 H 0.20183 0.81895 0.00919 0.0
H402 H 0.23298 0.8534 0.02156 0.0
H403 H 0.25189 0.88985 0.99039 0.0
H404 H 0.22063 0.85596 0.97791 0.0
H405 H 0.25685 0.8355 0.97216 0.0
H406 H 0.27034 0.60221 0.98534 0.0
H407 H 0.22277 0.57331 0.96976 0.0
H408 H 0.19 0.75464 0.97922 0.0
C409 C 0.29443 0.81654 0.0158 0.0
C410 C 0.32196 0.79227 0.02174 0.0
C411 C 0.32905 0.73241 0.01646 0.0
C412 C 0.3088 0.69665 0.00589 0.0
C413 C 0.28164 0.72154 0.00061 0.0
C414 C 0.27453 0.7803 0.00521 0.0
C415 C 0.24361 0.79568 0.99817 0.0
C416 C 0.22487 0.81141 0.01439 0.0
C417 C 0.24323 0.8473 0.9838 0.0
C418 C 0.2343 0.73608 0.98915 0.0
C419 C 0.25655 0.6939 0.9907 0.0
C420 C 0.25283 0.63501 0.9839 0.0
C421 C 0.22569 0.61896 0.97514 0.0
C422 C 0.20269 0.66171 0.97323 0.0
C423 C 0.20718 0.72098 0.98036 0.0
H424 H 0.06799 0.48132 0.98235 0.0
H425 H 0.03921 0.66818 0.97551 0.0
H426 H 0.99581 0.64512 0.99242 0.0
H427 H 0.99734 0.413 0.97613 0.0
H428 H 0.00483 0.35511 0.99348 0.0
H429 H 0.0341 0.38617 0.98111 0.0
H430 H 0.06195 0.41507 0.01242 0.0
H431 H 0.03281 0.38388 0.02489 0.0
H432 H 0.04418 0.46134 0.02889 0.0
H433 H 0.95503 0.60192 0.00917 0.0
H434 H 0.91999 0.54193 0.02586 0.0
H435 H 0.97519 0.38302 0.02241 0.0
C436 C 0.05263 0.51747 0.98448 0.0
C437 C 0.05703 0.57658 0.97758 0.0
C438 C 0.03638 0.62256 0.98066 0.0
C439 C 0.01161 0.60993 0.99024 0.0
C440 C 0.00783 0.55117 0.99671 0.0
C441 C 0.02779 0.50571 0.99408 0.0
C442 C 0.0184 0.44639 0.00247 0.0
C443 C 0.01337 0.39728 0.9874 0.0
C444 C 0.04066 0.42546 0.0181 0.0
C445 C 0.98997 0.46565 0.01015 0.0
C446 C 0.98432 0.52626 0.00661 0.0
C447 C 0.95925 0.55446 0.01209 0.0
C448 C 0.93944 0.51989 0.02154 0.0
C449 C 0.94484 0.45776 0.02548 0.0
C450 C 0.97048 0.43042 0.01966 0.0
H451 H 0.26508 0.37419 0.22485 0.0
H452 H 0.32894 0.51736 0.23595 0.0
H453 H 0.29436 0.57195 0.25446 0.0
H454 H 0.20203 0.47079 0.22025 0.0
H455 H 0.1788 0.41901 0.2317 0.0
H456 H 0.2086 0.39026 0.21934 0.0
H457 H 0.22903 0.33429 0.24909 0.0
H458 H 0.19925 0.36274 0.26153 0.0
H459 H 0.23633 0.37651 0.27037 0.0
H460 H 0.2532 0.61211 0.27127 0.0
H461 H 0.20798 0.6345 0.28626 0.0
H462 H 0.17033 0.46536 0.26483 0.0
C463 C 0.2718 0.41695 0.23121 0.0
C464 C 0.29975 0.44148 0.22892 0.0
C465 C 0.30769 0.49754 0.23749 0.0
C466 C 0.28819 0.52902 0.24803 0.0
C467 C 0.26082 0.50382 0.24994 0.0
C468 C 0.25258 0.44902 0.24187 0.0
C469 C 0.22181 0.43218 0.24623 0.0
C470 C 0.20162 0.42782 0.22831 0.0
C471 C 0.22161 0.37292 0.25747 0.0
C472 C 0.21409 0.48624 0.25795 0.0
C473 C 0.23695 0.52696 0.25986 0.0
C474 C 0.23514 0.58055 0.26993 0.0
C475 C 0.2093 0.59285 0.27838 0.0
C476 C 0.18555 0.55169 0.27676 0.0
C477 C 0.18807 0.49771 0.26636 0.0
H478 H 0.6938 0.22979 0.97717 0.0
H479 H 0.7175 0.04003 0.9841 0.0
H480 H 0.76468 0.07044 -9e-05 0.0
H481 H 0.76479 0.28382 0.96768 0.0
H482 H 0.76144 0.35391 0.98025 0.0
H483 H 0.72939 0.31733 0.96965 0.0
H484 H 0.7064 0.31575 0.00149 0.0
H485 H 0.73831 0.3526 0.01217 0.0
H486 H 0.72618 0.28156 0.02131 0.0
H487 H 0.80909 0.12129 0.01488 0.0
H488 H 0.8475 0.18882 0.02865 0.0
H489 H 0.79503 0.34579 0.01174 0.0
C490 C 0.70883 0.19453 0.98207 0.0
C491 C 0.70193 0.13245 0.97942 0.0
C492 C 0.72228 0.08783 0.98599 0.0
C493 C 0.74915 0.10466 0.99496 0.0
C494 C 0.75531 0.16624 0.99721 0.0
C495 C 0.73573 0.21049 0.991 0.0
C496 C 0.74769 0.27348 0.99518 0.0
C497 C 0.75103 0.30922 0.97711 0.0
C498 C 0.7285 0.30785 0.00832 0.0
C499 C 0.77707 0.25773 0.00477 0.0
C500 C 0.78102 0.19562 0.00576 0.0
C501 C 0.80627 0.16999 0.01417 0.0
C502 C 0.82798 0.20883 0.02194 0.0
C503 C 0.82434 0.2727 0.02125 0.0
C504 C 0.79857 0.29726 0.0124 0.0
H505 H 0.70464 0.5943 0.76973 0.0
H506 H 0.63904 0.45506 0.75798 0.0
H507 H 0.67284 0.4 0.73891 0.0
H508 H 0.73333 0.59374 0.72424 0.0
H509 H 0.77051 0.6051 0.73324 0.0
H510 H 0.741 0.63415 0.74581 0.0
H511 H 0.7606 0.5752 0.77521 0.0
H512 H 0.79011 0.54584 0.76272 0.0
H513 H 0.7662 0.49444 0.77376 0.0
H514 H 0.71383 0.35906 0.72155 0.0
H515 H 0.75917 0.33579 0.70661 0.0
H516 H 0.79818 0.5016 0.72953 0.0
C517 C 0.69733 0.55238 0.76309 0.0
C518 C 0.66915 0.52905 0.76536 0.0
C519 C 0.66049 0.47392 0.75646 0.0
C520 C 0.67953 0.44224 0.74559 0.0
C521 C 0.70717 0.46627 0.74373 0.0
C522 C 0.71607 0.52012 0.75218 0.0
C523 C 0.74703 0.53576 0.74801 0.0
C524 C 0.74801 0.59574 0.73718 0.0
C525 C 0.76717 0.53792 0.766 0.0
C526 C 0.75414 0.48218 0.73596 0.0
C527 C 0.73085 0.44265 0.73367 0.0
C528 C 0.73222 0.38971 0.7232 0.0
C529 C 0.75809 0.37688 0.71478 0.0
C530 C 0.78225 0.41685 0.71687 0.0
C531 C 0.78013 0.47013 0.72764 0.0
H532 H 0.5419 0.04631 0.96892 0.0
H533 H 0.58064 0.14179 0.01733 0.0
H534 H 0.54445 0.09531 0.0367 0.0
H535 H 0.46675 0.05866 0.98093 0.0
H536 H 0.45706 0.98414 0.97222 0.0
H537 H 0.48544 0.0265 0.96207 0.0
H538 H 0.52125 0.93708 0.96866 0.0
H539 H 0.49303 0.89456 0.9789 0.0
H540 H 0.5272 0.9084 0.99207 0.0
H541 H 0.50521 0.03568 0.05102 0.0
H542 H 0.46491 0.96908 0.05915 0.0
H543 H 0.45156 0.91297 0.00134 0.0
C544 C 0.54268 0.05786 0.98356 0.0
C545 C 0.56414 0.09778 0.9916 0.0
C546 C 0.56441 0.11144 0.01084 0.0
C547 C 0.54395 0.08524 0.02197 0.0
C548 C 0.52331 0.04563 0.01364 0.0
C549 C 0.52242 0.0322 0.99486 0.0
C550 C 0.49827 0.98749 0.98941 0.0
C551 C 0.47553 0.01591 0.97532 0.0
C552 C 0.51069 0.92839 0.98182 0.0
C553 C 0.48586 0.97747 0.00809 0.0
C554 C 0.5006 0.01147 0.02188 0.0
C555 C 0.49342 0.00904 0.04033 0.0
C556 C 0.47052 0.97094 0.04481 0.0
C557 C 0.45503 0.93577 0.03089 0.0
C558 C 0.46288 0.93936 0.0123 0.0
H559 H 0.45319 0.34827 0.22918 0.0
H560 H 0.39829 0.18843 0.22195 0.0
H561 H 0.43758 0.12594 0.2372 0.0
H562 H 0.52053 0.27542 0.22029 0.0
H563 H 0.54192 0.31872 0.23755 0.0
H564 H 0.50941 0.35104 0.22617 0.0
H565 H 0.48888 0.37081 0.25824 0.0
H566 H 0.5214 0.33886 0.26972 0.0
H567 H 0.48618 0.30877 0.27433 0.0
H568 H 0.483 0.08078 0.25325 0.0
H569 H 0.53068 0.05706 0.26964 0.0
H570 H 0.55564 0.24651 0.2661 0.0
C571 C 0.44935 0.30017 0.23084 0.0
C572 C 0.42264 0.27329 0.22437 0.0
C573 C 0.41856 0.21011 0.22681 0.0
C574 C 0.44076 0.17417 0.23542 0.0
C575 C 0.4669 0.20207 0.24152 0.0
C576 C 0.47125 0.26365 0.23939 0.0
C577 C 0.5013 0.28253 0.24723 0.0
C578 C 0.51935 0.30844 0.23189 0.0
C579 C 0.4993 0.32791 0.26334 0.0
C580 C 0.51314 0.22198 0.25414 0.0
C581 C 0.49301 0.17608 0.25069 0.0
C582 C 0.49896 0.11633 0.25601 0.0
C583 C 0.5261 0.1033 0.26529 0.0
C584 C 0.54692 0.14985 0.26913 0.0
C585 C 0.54029 0.20979 0.26331 0.0
H586 H 0.46963 0.81459 0.7096 0.0
H587 H 0.39602 0.80307 0.74406 0.0
H588 H 0.42786 0.75782 0.76934 0.0
H589 H 0.50302 0.67445 0.72389 0.0
H590 H 0.53979 0.70276 0.72384 0.0
H591 H 0.51142 0.73545 0.70847 0.0
H592 H 0.52342 0.84205 0.72216 0.0
H593 H 0.55193 0.80972 0.73751 0.0
H594 H 0.52345 0.85381 0.74695 0.0
H595 H 0.467 0.71081 0.79042 0.0
H596 H 0.51163 0.66936 0.80664 0.0
H597 H 0.56019 0.7131 0.75881 0.0
C598 C 0.46022 0.80281 0.72249 0.0
C599 C 0.43031 0.81232 0.72484 0.0
C600 C 0.41887 0.79635 0.74194 0.0
C601 C 0.43676 0.7705 0.75638 0.0
C602 C 0.46606 0.76125 0.75354 0.0
C603 C 0.4778 0.77727 0.7371 0.0
C604 C 0.51003 0.76253 0.73769 0.0
C605 C 0.51643 0.71603 0.72258 0.0
C606 C 0.52828 0.82048 0.73598 0.0
C607 C 0.51449 0.73528 0.75699 0.0
C608 C 0.48881 0.73486 0.76585 0.0
C609 C 0.48729 0.71114 0.78367 0.0
C610 C 0.51276 0.68755 0.79274 0.0
C611 C 0.53943 0.68807 0.78402 0.0
C612 C 0.54018 0.71224 0.76588 0.0
H613 H 0.47875 0.37825 0.51127 0.0
H614 H 0.45741 0.531 0.54591 0.0
H615 H 0.49589 0.59169 0.53256 0.0
H616 H 0.55713 0.40317 0.51404 0.0
H617 H 0.56067 0.38097 0.4902 0.0
H618 H 0.53218 0.34878 0.50303 0.0
H619 H 0.49356 0.38467 0.47742 0.0
H620 H 0.52191 0.41704 0.46454 0.0
H621 H 0.49205 0.46368 0.47098 0.0
H622 H 0.53524 0.6373 0.51443 0.0
H623 H 0.57315 0.66377 0.49316 0.0
H624 H 0.56905 0.48084 0.4707 0.0
C625 C 0.48229 0.42429 0.51617 0.0
C626 C 0.46505 0.44981 0.52965 0.0
C627 C 0.47035 0.51037 0.53561 0.0
C628 C 0.49217 0.54525 0.52812 0.0
C629 C 0.50859 0.51887 0.51474 0.0
C630 C 0.50401 0.45971 0.50887 0.0
C631 C 0.52424 0.4426 0.49402 0.0
C632 C 0.54477 0.39082 0.50073 0.0
C633 C 0.5069 0.42604 0.47566 0.0
C634 C 0.5407 0.50159 0.49232 0.0
C635 C 0.5314 0.54499 0.50441 0.0
C636 C 0.54285 0.60356 0.50499 0.0
C637 C 0.56434 0.61819 0.49283 0.0
C638 C 0.57415 0.57436 0.4803 0.0
C639 C 0.5622 0.51527 0.48019 0.0
H640 H 0.14168 0.77459 0.35618 0.0
H641 H 0.17666 0.85678 0.3077 0.0
H642 H 0.18416 0.95278 0.325 0.0
H643 H 0.10171 0.89937 0.36903 0.0
H644 H 0.10854 0.88916 0.3938 0.0
H645 H 0.10916 0.82479 0.37847 0.0
H646 H 0.16149 0.79849 0.39175 0.0
H647 H 0.16098 0.86271 0.40723 0.0
H648 H 0.18972 0.85523 0.39162 0.0
H649 H 0.18282 0.0424 0.3462 0.0
H650 H 0.17418 0.11878 0.37026 0.0
H651 H 0.1408 0.9779 0.40512 0.0
C652 C 0.15149 0.81235 0.34931 0.0
C653 C 0.15863 0.80815 0.33059 0.0
C654 C 0.17108 0.85887 0.32204 0.0
C655 C 0.17548 0.91358 0.33176 0.0
C656 C 0.16755 0.91663 0.35005 0.0
C657 C 0.15606 0.86724 0.35881 0.0
C658 C 0.14764 0.88355 0.37814 0.0
C659 C 0.11482 0.87364 0.37995 0.0
C660 C 0.16607 0.84787 0.39306 0.0
C661 C 0.1554 0.95027 0.37867 0.0
C662 C 0.16705 0.96834 0.36239 0.0
C663 C 0.17415 0.02865 0.35913 0.0
C664 C 0.16905 0.07171 0.37285 0.0
C665 C 0.15698 0.0542 0.3896 0.0
C666 C 0.15045 0.99252 0.39258 0.0
H667 H 0.1155 0.2797 0.39419 0.0
H668 H 0.05573 0.34741 0.4334 0.0
H669 H 0.04491 0.43609 0.41299 0.0
H670 H 0.14585 0.41964 0.38372 0.0
H671 H 0.14941 0.40266 0.3595 0.0
H672 H 0.15015 0.34223 0.3763 0.0
H673 H 0.10748 0.28888 0.3573 0.0
H674 H 0.1066 0.34922 0.3404 0.0
H675 H 0.07409 0.3298 0.35166 0.0
H676 H 0.04357 0.52106 0.38925 0.0
H677 H 0.05221 0.59536 0.36455 0.0
H678 H 0.11291 0.47048 0.34125 0.0
C679 C 0.09981 0.31264 0.39843 0.0
C680 C 0.0864 0.30654 0.41539 0.0
C681 C 0.06619 0.35104 0.42044 0.0
C682 C 0.05988 0.40147 0.40892 0.0
C683 C 0.07383 0.40639 0.3924 0.0
C684 C 0.09329 0.36297 0.38716 0.0
C685 C 0.10665 0.38015 0.3693 0.0
C686 C 0.13998 0.38657 0.3724 0.0
C687 C 0.09819 0.33428 0.35375 0.0
C688 C 0.09217 0.44083 0.36547 0.0
C689 C 0.0731 0.45502 0.37883 0.0
C690 C 0.05823 0.51011 0.37862 0.0
C691 C 0.0633 0.55204 0.36454 0.0
C692 C 0.08319 0.53872 0.35093 0.0
C693 C 0.09739 0.48192 0.35133 0.0
H694 H 0.09077 0.32134 0.8522 0.0
H695 H 0.17158 0.33346 0.82469 0.0
H696 H 0.187 0.42001 0.84498 0.0
H697 H 0.0799 0.48128 0.85811 0.0
H698 H 0.06557 0.47281 0.88063 0.0
H699 H 0.06098 0.41276 0.86371 0.0
H700 H 0.0856 0.33721 0.88751 0.0
H701 H 0.09038 0.39708 0.90448 0.0
H702 H 0.12142 0.35391 0.89808 0.0
H703 H 0.19333 0.5055 0.86846 0.0
H704 H 0.19013 0.58272 0.89314 0.0
H705 H 0.10545 0.51188 0.90533 0.0
C706 C 0.11167 0.34228 0.85033 0.0
C707 C 0.12995 0.32079 0.83682 0.0
C708 C 0.1572 0.34927 0.83494 0.0
C709 C 0.16614 0.39839 0.8464 0.0
C710 C 0.14761 0.41815 0.85967 0.0
C711 C 0.12095 0.39091 0.86167 0.0
C712 C 0.10516 0.42007 0.87709 0.0
C713 C 0.07619 0.44842 0.86942 0.0
C714 C 0.10037 0.37434 0.89271 0.0
C715 C 0.12706 0.46818 0.88347 0.0
C716 C 0.15139 0.46651 0.87326 0.0
C717 C 0.1744 0.50715 0.87656 0.0
C718 C 0.17238 0.55081 0.8906 0.0
C719 C 0.14757 0.55326 0.90119 0.0
C720 C 0.12476 0.51108 0.89756 0.0
H721 H 0.15554 0.85177 0.90273 0.0
H722 H 0.06645 0.81579 0.91585 0.0
H723 H 0.04899 0.89576 0.89379 0.0
H724 H 0.14818 0.0153 0.89712 0.0
H725 H 0.17144 0.01773 0.87801 0.0
H726 H 0.17694 0.96029 0.89569 0.0
H727 H 0.17215 0.87677 0.8703 0.0
H728 H 0.16649 0.93388 0.85256 0.0
H729 H 0.13998 0.87438 0.85447 0.0
H730 H 0.04116 0.97718 0.86939 0.0
H731 H 0.0436 0.05347 0.84441 0.0
H732 H 0.13778 0.03409 0.84706 0.0
C733 C 0.13238 0.86116 0.90116 0.0
C734 C 0.11236 0.82771 0.91107 0.0
C735 C 0.0822 0.84094 0.90843 0.0
C736 C 0.07207 0.8863 0.89595 0.0
C737 C 0.09238 0.91789 0.88622 0.0
C738 C 0.1219 0.90595 0.88871 0.0
C739 C 0.1391 0.94463 0.87603 0.0
C740 C 0.16015 0.98701 0.8874 0.0
C741 C 0.15538 0.90504 0.86254 0.0
C742 C 0.11462 0.97979 0.86589 0.0
C743 C 0.08785 0.96406 0.87203 0.0
C744 C 0.06202 0.99005 0.86452 0.0
C745 C 0.06362 0.03328 0.85033 0.0
C746 C 0.09086 0.04972 0.84377 0.0
C747 C 0.11661 0.02254 0.85175 0.0
H748 H 0.89949 0.19864 0.63642 0.0
H749 H 0.80595 0.2105 0.64059 0.0
H750 H 0.79851 0.131 0.61645 0.0
H751 H 0.89741 0.17088 0.58624 0.0
H752 H 0.92767 0.11885 0.58848 0.0
H753 H 0.92527 0.17991 0.60494 0.0
H754 H 0.92861 0.10251 0.63211 0.0
H755 H 0.93101 0.04131 0.61575 0.0
H756 H 0.90292 0.04067 0.63199 0.0
H757 H 0.80179 0.04503 0.59331 0.0
H758 H 0.81548 0.95956 0.57348 0.0
H759 H 0.90685 0.00555 0.58473 0.0
C760 C 0.87737 0.18518 0.63213 0.0
C761 C 0.85328 0.21087 0.64038 0.0
C762 C 0.82474 0.19155 0.63443 0.0
C763 C 0.8203 0.14652 0.6207 0.0
C764 C 0.84462 0.12164 0.61302 0.0
C765 C 0.87258 0.14051 0.6185 0.0
C766 C 0.89515 0.1047 0.60883 0.0
C767 C 0.91239 0.14606 0.59638 0.0
C768 C 0.91561 0.07026 0.62302 0.0
C769 C 0.87558 0.06175 0.59733 0.0
C770 C 0.8465 0.07246 0.59979 0.0
C771 C 0.82449 0.03663 0.59116 0.0
C772 C 0.83249 0.98817 0.57992 0.0
C773 C 0.86223 0.97589 0.57751 0.0
C774 C 0.88391 0.0139 0.58616 0.0
H775 H 0.85604 0.51297 0.65795 0.0
H776 H 0.94599 0.45214 0.664 0.0
H777 H 0.96042 0.53829 0.64472 0.0
H778 H 0.85557 0.55303 0.61129 0.0
H779 H 0.83246 0.6185 0.61306 0.0
H780 H 0.82985 0.55639 0.62904 0.0
H781 H 0.83948 0.62985 0.65694 0.0
H782 H 0.84199 0.69238 0.64102 0.0
H783 H 0.87155 0.67713 0.65817 0.0
H784 H 0.96411 0.62567 0.62229 0.0
H785 H 0.95671 0.70737 0.5989 0.0
H786 H 0.86438 0.71005 0.60796 0.0
C787 C 0.87888 0.51826 0.65553 0.0
C788 C 0.89989 0.47584 0.66251 0.0
C789 C 0.9295 0.48418 0.65884 0.0
C790 C 0.93793 0.53302 0.64793 0.0
C791 C 0.91651 0.57329 0.64093 0.0
C792 C 0.88763 0.5666 0.6447 0.0
C793 C 0.86853 0.61366 0.63463 0.0
C794 C 0.84525 0.58358 0.62121 0.0
C795 C 0.85457 0.65575 0.64852 0.0
C796 C 0.89103 0.64691 0.62418 0.0
C797 C 0.91864 0.62345 0.62811 0.0
C798 C 0.94265 0.64493 0.6193 0.0
C799 C 0.93823 0.69124 0.60601 0.0
C800 C 0.90999 0.71522 0.60164 0.0
C801 C 0.88628 0.69312 0.61108 0.0
H802 H 0.89726 0.47493 0.09727 0.0
H803 H 0.80472 0.43497 0.0896 0.0
H804 H 0.79491 0.51345 0.11294 0.0
H805 H 0.89972 0.49912 0.14653 0.0
H806 H 0.92606 0.55963 0.14619 0.0
H807 H 0.92553 0.50076 0.12882 0.0
H808 H 0.92001 0.5817 0.10269 0.0
H809 H 0.92064 0.64082 0.11998 0.0
H810 H 0.89052 0.63557 0.10261 0.0
H811 H 0.79554 0.59768 0.13712 0.0
H812 H 0.80655 0.68018 0.15988 0.0
H813 H 0.89873 0.66203 0.1516 0.0
C814 C 0.87488 0.4826 0.10043 0.0
C815 C 0.85174 0.44882 0.09158 0.0
C816 C 0.82281 0.46031 0.0962 0.0
C817 C 0.81703 0.50475 0.10944 0.0
C818 C 0.84043 0.53702 0.11795 0.0
C819 C 0.86877 0.52638 0.1136 0.0
C820 C 0.89012 0.56695 0.12466 0.0
C821 C 0.91162 0.52936 0.1373 0.0
C822 C 0.90626 0.60874 0.11171 0.0
C823 C 0.86939 0.60235 0.13592 0.0
C824 C 0.84082 0.5846 0.13188 0.0
C825 C 0.81786 0.61178 0.14042 0.0
C826 C 0.82432 0.65855 0.15333 0.0
C827 C 0.8535 0.67744 0.15757 0.0
C828 C 0.87621 0.6485 0.14877 0.0
H829 H 0.85753 0.98097 0.1531 0.0
H830 H 0.94858 0.92743 0.15804 0.0
H831 H 0.95993 0.00878 0.13595 0.0
H832 H 0.85341 0.01452 0.10455 0.0
H833 H 0.8292 0.07803 0.1067 0.0
H834 H 0.82877 0.01604 0.12293 0.0
H835 H 0.83831 0.09117 0.15044 0.0
H836 H 0.83879 0.1534 0.13429 0.0
H837 H 0.86947 0.14094 0.15084 0.0
H838 H 0.96072 0.09736 0.11291 0.0
H839 H 0.9507 0.18346 0.09122 0.0
H840 H 0.85917 0.17571 0.10221 0.0
C841 C 0.87991 0.98615 0.1496 0.0
C842 C 0.90217 0.94782 0.15731 0.0
C843 C 0.93115 0.95631 0.1523 0.0
C844 C 0.9378 0.00238 0.13978 0.0
C845 C 0.91523 0.03938 0.13245 0.0
C846 C 0.88688 0.03156 0.13722 0.0
C847 C 0.8664 0.07671 0.12748 0.0
C848 C 0.84308 0.04438 0.11465 0.0
C849 C 0.85243 0.11799 0.1416 0.0
C850 C 0.88758 0.11133 0.11641 0.0
C851 C 0.91567 0.08946 0.11939 0.0
C852 C 0.93879 0.1148 0.11049 0.0
C853 C 0.93291 0.16363 0.09822 0.0
C854 C 0.90417 0.18629 0.09502 0.0
C855 C 0.8814 0.15959 0.10431 0.0
H856 H 0.60376 0.77445 0.86131 0.0
H857 H 0.6768 0.80747 0.82763 0.0
H858 H 0.69089 0.89653 0.84723 0.0
H859 H 0.58464 0.92839 0.86754 0.0
H860 H 0.57482 0.91803 0.89113 0.0
H861 H 0.57146 0.85586 0.8749 0.0
H862 H 0.60438 0.78963 0.89749 0.0
H863 H 0.60784 0.85164 0.91379 0.0
H864 H 0.64001 0.81692 0.90558 0.0
H865 H 0.69577 0.98429 0.87015 0.0
H866 H 0.69096 0.06307 0.89421 0.0
H867 H 0.61465 0.9706 0.91249 0.0
C868 C 0.62285 0.80007 0.85806 0.0
C869 C 0.6392 0.78398 0.84294 0.0
C870 C 0.66396 0.81895 0.83917 0.0
C871 C 0.67214 0.86953 0.85023 0.0
C872 C 0.65537 0.88426 0.86499 0.0
C873 C 0.63127 0.8504 0.86891 0.0
C874 C 0.61641 0.87625 0.88523 0.0
C875 C 0.58498 0.8958 0.87934 0.0
C876 C 0.61723 0.83091 0.90148 0.0
C877 C 0.63574 0.9304 0.88983 0.0
C878 C 0.65816 0.93428 0.87808 0.0
C879 C 0.67838 0.98149 0.87948 0.0
C880 C 0.67546 0.02601 0.89319 0.0
C881 C 0.65246 0.02298 0.90526 0.0
C882 C 0.63255 0.97418 0.90356 0.0
H883 H 0.66357 0.3402 0.91969 0.0
H884 H 0.57641 0.26861 0.90713 0.0
H885 H 0.5681 0.34492 0.88218 0.0
H886 H 0.64557 0.50012 0.91051 0.0
H887 H 0.6797 0.51448 0.90046 0.0
H888 H 0.67764 0.45768 0.9183 0.0
H889 H 0.6984 0.3777 0.8964 0.0
H890 H 0.7003 0.43401 0.87845 0.0
H891 H 0.68023 0.3648 0.87372 0.0
H892 H 0.57081 0.42418 0.85711 0.0
H893 H 0.58372 0.50214 0.83448 0.0
H894 H 0.66919 0.52089 0.86365 0.0
C895 C 0.64254 0.34104 0.91191 0.0
C896 C 0.62062 0.29846 0.91538 0.0
C897 C 0.59349 0.30094 0.90477 0.0
C898 C 0.58858 0.34407 0.89056 0.0
C899 C 0.61094 0.38453 0.88726 0.0
C900 C 0.63729 0.38367 0.89774 0.0
C901 C 0.65822 0.43026 0.89092 0.0
C902 C 0.66571 0.4785 0.90594 0.0
C903 C 0.68591 0.39985 0.88449 0.0
C904 C 0.63978 0.4566 0.87467 0.0
C905 C 0.61251 0.42998 0.87285 0.0
C906 C 0.59201 0.44571 0.8585 0.0
C907 C 0.59958 0.4899 0.84568 0.0
C908 C 0.62747 0.51762 0.84729 0.0
C909 C 0.64768 0.50072 0.86205 0.0
H910 H 0.66181 0.31692 0.34124 0.0
H911 H 0.57221 0.35804 0.32239 0.0
H912 H 0.57239 0.444 0.34423 0.0
H913 H 0.65412 0.34446 0.38846 0.0
H914 H 0.68947 0.37848 0.39339 0.0
H915 H 0.68398 0.32442 0.37473 0.0
H916 H 0.7026 0.40263 0.35149 0.0
H917 H 0.70841 0.45686 0.37014 0.0
H918 H 0.68582 0.47647 0.34954 0.0
H919 H 0.58009 0.51813 0.36972 0.0
H920 H 0.59553 0.57988 0.39709 0.0
H921 H 0.68039 0.49244 0.40006 0.0
C922 C 0.64252 0.34502 0.34141 0.0
C923 C 0.61703 0.33106 0.33008 0.0
C924 C 0.59197 0.36795 0.33096 0.0
C925 C 0.59186 0.41698 0.34327 0.0
C926 C 0.617 0.4286 0.35462 0.0
C927 C 0.64197 0.39413 0.35377 0.0
C928 C 0.66531 0.41423 0.36845 0.0
C929 C 0.6737 0.3623 0.38206 0.0
C930 C 0.69212 0.43903 0.35936 0.0
C931 C 0.64925 0.46435 0.3779 0.0
C932 C 0.62149 0.47196 0.36956 0.0
C933 C 0.60189 0.51322 0.37625 0.0
C934 C 0.61085 0.54787 0.39189 0.0
C935 C 0.63921 0.54113 0.40072 0.0
C936 C 0.65869 0.49901 0.39352 0.0
H937 H 0.68197 0.8457 0.41019 0.0
H938 H 0.5894 0.82423 0.41668 0.0
H939 H 0.57884 0.90777 0.39434 0.0
H940 H 0.68089 0.01237 0.40511 0.0
H941 H 0.70799 0.01098 0.38822 0.0
H942 H 0.70818 0.95355 0.40602 0.0
H943 H 0.70596 0.87007 0.38059 0.0
H944 H 0.70547 0.92711 0.36272 0.0
H945 H 0.67682 0.87124 0.36247 0.0
H946 H 0.57827 0.98597 0.36884 0.0
H947 H 0.58787 0.05775 0.34365 0.0
H948 H 0.68091 0.02915 0.35457 0.0
C949 C 0.65949 0.85919 0.40717 0.0
C950 C 0.63649 0.82846 0.41515 0.0
C951 C 0.60737 0.84737 0.41079 0.0
C952 C 0.60116 0.89468 0.3981 0.0
C953 C 0.62434 0.92296 0.39012 0.0
C954 C 0.65294 0.90647 0.39468 0.0
C955 C 0.67383 0.94228 0.38361 0.0
C956 C 0.6939 0.98217 0.39651 0.0
C957 C 0.69155 0.90015 0.37164 0.0
C958 C 0.65246 0.98031 0.37171 0.0
C959 C 0.62403 0.96871 0.3757 0.0
C960 C 0.60046 0.99608 0.36578 0.0
C961 C 0.60613 0.03652 0.35145 0.0
C962 C 0.63514 0.04921 0.34722 0.0
C963 C 0.65851 0.02089 0.3576 0.0
H964 H 0.33437 0.22949 0.14106 0.0
H965 H 0.29744 0.10253 0.17899 0.0
H966 H 0.29944 0.02162 0.15535 0.0
H967 H 0.30023 0.1639 0.09671 0.0
H968 H 0.33272 0.17774 0.08475 0.0
H969 H 0.32325 0.2278 0.10319 0.0
H970 H 0.37399 0.20957 0.12028 0.0
H971 H 0.38352 0.15918 0.10205 0.0
H972 H 0.38543 0.13309 0.12583 0.0
H973 H 0.31183 0.95203 0.12955 0.0
H974 H 0.33359 0.89903 0.10375 0.0
H975 H 0.36331 0.07146 0.08296 0.0
C976 C 0.32581 0.1852 0.14422 0.0
C977 C 0.31555 0.17241 0.16184 0.0
C978 C 0.30522 0.11345 0.16555 0.0
C979 C 0.30621 0.06726 0.15218 0.0
C980 C 0.31745 0.08093 0.13519 0.0
C981 C 0.32687 0.13863 0.13112 0.0
C982 C 0.34097 0.14017 0.11275 0.0
C983 C 0.32322 0.17975 0.0985 0.0
C984 C 0.37286 0.16175 0.1154 0.0
C985 C 0.33906 0.07383 0.10744 0.0
C986 C 0.32497 0.04058 0.12039 0.0
C987 C 0.32245 0.97773 0.11916 0.0
C988 C 0.33499 0.94803 0.10448 0.0
C989 C 0.35011 0.98113 0.0913 0.0
C990 C 0.35162 0.04495 0.09267 0.0
H991 H 0.35265 0.49835 0.1619 0.0
H992 H 0.43171 0.40404 0.14929 0.0
H993 H 0.44379 0.48793 0.12832 0.0
H994 H 0.33409 0.54857 0.1165 0.0
H995 H 0.31961 0.62038 0.12349 0.0
H996 H 0.31892 0.55606 0.13881 0.0
H997 H 0.34709 0.61761 0.165 0.0
H998 H 0.34779 0.68231 0.14976 0.0
H999 H 0.38136 0.65259 0.16056 0.0
H1000 H 0.44571 0.58099 0.10748 0.0
H1001 H 0.4363 0.67229 0.0879 0.0
H1002 H 0.35516 0.70156 0.11389 0.0
C1003 C 0.37277 0.49563 0.15498 0.0
C1004 C 0.39134 0.44484 0.15731 0.0
C1005 C 0.4172 0.44267 0.14775 0.0
C1006 C 0.42427 0.49014 0.13585 0.0
C1007 C 0.4052 0.53921 0.13368 0.0
C1008 C 0.37997 0.54209 0.14299 0.0
C1009 C 0.3621 0.59751 0.13745 0.0
C1010 C 0.33191 0.57952 0.12853 0.0
C1011 C 0.35944 0.64002 0.15419 0.0
C1012 C 0.38096 0.62505 0.12332 0.0
C1013 C 0.40592 0.59139 0.12146 0.0
C1014 C 0.42629 0.60781 0.1089 0.0
C1015 C 0.42079 0.65968 0.09785 0.0
C1016 C 0.39497 0.69381 0.09934 0.0
C1017 C 0.37506 0.67632 0.11238 0.0
H1018 H 0.35494 0.74254 0.64418 0.0
H1019 H 0.30673 0.64942 0.68537 0.0
H1020 H 0.30355 0.55829 0.66533 0.0
H1021 H 0.316 0.67498 0.60288 0.0
H1022 H 0.34859 0.67033 0.59044 0.0
H1023 H 0.34478 0.72979 0.60729 0.0
H1024 H 0.39331 0.69665 0.62487 0.0
H1025 H 0.39728 0.6372 0.60811 0.0
H1026 H 0.39765 0.61914 0.63254 0.0
H1027 H 0.30931 0.47483 0.64205 0.0
H1028 H 0.32351 0.40548 0.61731 0.0
H1029 H 0.36731 0.5542 0.59129 0.0
C1030 C 0.34336 0.70331 0.64891 0.0
C1031 C 0.33106 0.70309 0.66634 0.0
C1032 C 0.31627 0.65067 0.67205 0.0
C1033 C 0.31429 0.59875 0.66075 0.0
C1034 C 0.327 0.60027 0.64375 0.0
C1035 C 0.34112 0.65131 0.63782 0.0
C1036 C 0.35429 0.64031 0.61945 0.0
C1037 C 0.34006 0.68129 0.60411 0.0
C1038 C 0.3876 0.64881 0.62137 0.0
C1039 C 0.34605 0.57455 0.61619 0.0
C1040 C 0.33011 0.55238 0.63028 0.0
C1041 C 0.32147 0.49186 0.63082 0.0
C1042 C 0.32969 0.45282 0.61673 0.0
C1043 C 0.3464 0.47448 0.60233 0.0
C1044 C 0.35422 0.5364 0.60197 0.0
H1045 H 0.37668 0.15226 0.56938 0.0
H1046 H 0.42862 0.27838 0.60418 0.0
H1047 H 0.42936 0.20552 0.63021 0.0
H1048 H 0.3317 0.10677 0.60311 0.0
H1049 H 0.32894 0.02846 0.59598 0.0
H1050 H 0.33604 0.08613 0.57923 0.0
H1051 H 0.38282 0.02966 0.57095 0.0
H1052 H 0.3757 0.97131 0.58755 0.0
H1053 H 0.41018 0.01056 0.58918 0.0
H1054 H 0.41993 0.12413 0.65338 0.0
H1055 H 0.40199 0.03898 0.67172 0.0
H1056 H 0.35578 0.96693 0.62181 0.0
C1057 C 0.38891 0.16391 0.5823 0.0
C1058 C 0.40273 0.22088 0.58471 0.0
C1059 C 0.41797 0.23487 0.60198 0.0
C1060 C 0.41855 0.19376 0.61685 0.0
C1061 C 0.4039 0.13878 0.61419 0.0
C1062 C 0.38957 0.12356 0.5973 0.0
C1063 C 0.37362 0.06377 0.59849 0.0
C1064 C 0.34063 0.07181 0.59394 0.0
C1065 C 0.38635 0.016 0.58579 0.0
C1066 C 0.38047 0.04869 0.61883 0.0
C1067 C 0.39823 0.09212 0.6276 0.0
C1068 C 0.40632 0.08939 0.64661 0.0
C1069 C 0.39594 0.04099 0.65692 0.0
C1070 C 0.37751 0.99626 0.6482 0.0
C1071 C 0.36995 0.00017 0.62888 0.0
loop_
_geom_bond_atom_site_label_1
_geom_bond_atom_site_label_2
_geom_bond_distance
_geom_bond_site_symmetry_2
_ccdc_geom_bond_type
C0 O1 1.160 . S
C0 O7 1.185 . S
O1 C0 1.160 . S
O2 Zn3 1.899 . S
O2 C10 1.284 . S
Zn3 O2 1.899 . S
Zn3 O4 2.032 . S
Zn3 O7 2.086 . S
Zn3 O12 1.977 . S
O4 Zn3 2.032 . S
O4 C8 1.278 . S
C5 O6 1.203 . S
C5 O12 1.267 . S
O6 C5 1.203 . S
O7 C0 1.185 . S
O7 Zn3 2.086 . S
C8 O4 1.278 . S
C8 O9 1.211 . S
O9 C8 1.211 . S
C10 O2 1.284 . S
C10 O11 1.273 . S
O11 C10 1.273 . S
O12 Zn3 1.977 . S
O12 C5 1.267 . S
C13 O14 1.160 . S
C13 O20 1.185 . S
O14 C13 1.160 . S
O15 Zn16 1.899 . S
O15 C23 1.284 . S
Zn16 O15 1.899 . S
Zn16 O17 2.032 . S
Zn16 O20 2.086 . S
Zn16 O25 1.977 . S
O17 Zn16 2.032 . S
O17 C21 1.278 . S
C18 O19 1.203 . S
C18 O25 1.267 . S
O19 C18 1.203 . S
O20 C13 1.185 . S
O20 Zn16 2.086 . S
C21 O17 1.278 . S
C21 O22 1.211 . S
O22 C21 1.211 . S
C23 O15 1.284 . S
C23 O24 1.273 . S
O24 C23 1.273 . S
O25 Zn16 1.977 . S
O25 C18 1.267 . S
C26 O27 1.160 . S
C26 O33 1.185 . S
O27 C26 1.160 . S
O28 Zn29 1.899 . S
O28 C36 1.284 . S
Zn29 O28 1.899 . S
Zn29 O30 2.032 . S
Zn29 O33 2.086 . S
Zn29 O38 1.977 . S
O30 Zn29 2.032 . S
O30 C34 1.278 . S
C31 O32 1.203 . S
C31 O38 1.267 . S
O32 C31 1.203 . S
O33 C26 1.185 . S
O33 Zn29 2.086 . S
C34 O30 1.278 . S
C34 O35 1.211 . S
O35 C34 1.211 . S
C36 O28 1.284 . S
C36 O37 1.273 . S
O37 C36 1.273 . S
O38 Zn29 1.977 . S
O38 C31 1.267 . S
C39 O40 1.160 . S
C39 O46 1.185 . S
O40 C39 1.160 . S
O41 Zn42 1.899 . S
O41 C49 1.284 . S
Zn42 O41 1.899 . S
Zn42 O43 2.032 . S
Zn42 O46 2.086 . S
Zn42 O51 1.977 . S
O43 Zn42 2.032 . S
O43 C47 1.278 . S
C44 O45 1.203 . S
C44 O51 1.267 . S
O45 C44 1.203 . S
O46 C39 1.185 . S
O46 Zn42 2.086 . S
C47 O43 1.278 . S
C47 O48 1.211 . S
O48 C47 1.211 . S
C49 O41 1.284 . S
C49 O50 1.273 . S
O50 C49 1.273 . S
O51 Zn42 1.977 . S
O51 C44 1.267 . S
C52 O53 1.160 . S
C52 O59 1.185 . S
O53 C52 1.160 . S
O54 Zn55 1.899 . S
O54 C62 1.284 . S
Zn55 O54 1.899 . S
Zn55 O56 2.032 . S
Zn55 O59 2.086 . S
Zn55 O64 1.977 . S
O56 Zn55 2.032 . S
O56 C60 1.278 . S
C57 O58 1.203 . S
C57 O64 1.267 . S
O58 C57 1.203 . S
O59 C52 1.185 . S
O59 Zn55 2.086 . S
C60 O56 1.278 . S
C60 O61 1.211 . S
O61 C60 1.211 . S
C62 O54 1.284 . S
C62 O63 1.273 . S
O63 C62 1.273 . S
O64 Zn55 1.977 . S
O64 C57 1.267 . S
C65 O66 1.160 . S
C65 O72 1.185 . S
O66 C65 1.160 . S
O67 Zn68 1.899 . S
O67 C75 1.284 . S
Zn68 O67 1.899 . S
Zn68 O69 2.032 . S
Zn68 O72 2.086 . S
Zn68 O77 1.977 . S
O69 Zn68 2.032 . S
O69 C73 1.278 . S
C70 O71 1.203 . S
C70 O77 1.267 . S
O71 C70 1.203 . S
O72 C65 1.185 . S
O72 Zn68 2.086 . S
C73 O69 1.278 . S
C73 O74 1.211 . S
O74 C73 1.211 . S
C75 O67 1.284 . S
C75 O76 1.273 . S
O76 C75 1.273 . S
O77 Zn68 1.977 . S
O77 C70 1.267 . S
C78 O79 1.160 . S
C78 O85 1.185 . S
O79 C78 1.160 . S
O80 Zn81 1.899 . S
O80 C88 1.284 . S
Zn81 O80 1.899 . S
Zn81 O82 2.032 . S
Zn81 O85 2.086 . S
Zn81 O90 1.977 . S
O82 Zn81 2.032 . S
O82 C86 1.278 . S
C83 O84 1.203 . S
C83 O90 1.267 . S
O84 C83 1.203 . S
O85 C78 1.185 . S
O85 Zn81 2.086 . S
C86 O82 1.278 . S
C86 O87 1.211 . S
O87 C86 1.211 . S
C88 O80 1.284 . S
C88 O89 1.273 . S
O89 C88 1.273 . S
O90 Zn81 1.977 . S
O90 C83 1.267 . S
C91 O92 1.160 . S
C91 O98 1.185 . S
O92 C91 1.160 . S
O93 Zn94 1.899 . S
O93 C101 1.284 . S
Zn94 O93 1.899 . S
Zn94 O95 2.032 . S
Zn94 O98 2.086 . S
Zn94 O103 1.977 . S
O95 Zn94 2.032 . S
O95 C99 1.278 . S
C96 O97 1.203 . S
C96 O103 1.267 . S
O97 C96 1.203 . S
O98 C91 1.185 . S
O98 Zn94 2.086 . S
C99 O95 1.278 . S
C99 O100 1.211 . S
O100 C99 1.211 . S
C101 O93 1.284 . S
C101 O102 1.273 . S
O102 C101 1.273 . S
O103 Zn94 1.977 . S
O103 C96 1.267 . S
C104 O105 1.160 . S
C104 O111 1.185 . S
O105 C104 1.160 . S
O106 Zn107 1.899 . S
O106 C114 1.284 . S
Zn107 O106 1.899 . S
Zn107 O108 2.032 . S
Zn107 O111 2.086 . S
Zn107 O116 1.977 . S
O108 Zn107 2.032 . S
O108 C112 1.278 . S
C109 O110 1.203 . S
C109 O116 1.267 . S
O110 C109 1.203 . S
O111 C104 1.185 . S
O111 Zn107 2.086 . S
C112 O108 1.278 . S
C112 O113 1.211 . S
O113 C112 1.211 . S
C114 O106 1.284 . S
C114 O115 1.273 . S
O115 C114 1.273 . S
O116 Zn107 1.977 . S
O116 C109 1.267 . S
C117 O118 1.160 . S
C117 O124 1.185 . S
O118 C117 1.160 . S
O119 Zn120 1.899 . S
O119 C127 1.284 . S
Zn120 O119 1.899 . S
Zn120 O121 2.032 . S
Zn120 O124 2.086 . S
Zn120 O129 1.977 . S
O121 Zn120 2.032 . S
O121 C125 1.278 . S
C122 O123 1.203 . S
C122 O129 1.267 . S
O123 C122 1.203 . S
O124 C117 1.185 . S
O124 Zn120 2.086 . S
C125 O121 1.278 . S
C125 O126 1.211 . S
O126 C125 1.211 . S
C127 O119 1.284 . S
C127 O128 1.273 . S
O128 C127 1.273 . S
O129 Zn120 1.977 . S
O129 C122 1.267 . S
C130 O131 1.160 . S
C130 O137 1.185 . S
O131 C130 1.160 . S
O132 Zn133 1.899 . S
O132 C140 1.284 . S
Zn133 O132 1.899 . S
Zn133 O134 2.032 . S
Zn133 O137 2.086 . S
Zn133 O142 1.977 . S
O134 Zn133 2.032 . S
O134 C138 1.278 . S
C135 O136 1.203 . S
C135 O142 1.267 . S
O136 C135 1.203 . S
O137 C130 1.185 . S
O137 Zn133 2.086 . S
C138 O134 1.278 . S
C138 O139 1.211 . S
O139 C138 1.211 . S
C140 O132 1.284 . S
C140 O141 1.273 . S
O141 C140 1.273 . S
O142 Zn133 1.977 . S
O142 C135 1.267 . S
C143 O144 1.160 . S
C143 O150 1.185 . S
O144 C143 1.160 . S
O145 Zn146 1.899 . S
O145 C153 1.284 . S
Zn146 O145 1.899 . S
Zn146 O147 2.032 . S
Zn146 O150 2.086 . S
Zn146 O155 1.977 . S
O147 Zn146 2.032 . S
O147 C151 1.278 . S
C148 O149 1.203 . S
C148 O155 1.267 . S
O149 C148 1.203 . S
O150 C143 1.185 . S
O150 Zn146 2.086 . S
C151 O147 1.278 . S
C151 O152 1.211 . S
O152 C151 1.211 . S
C153 O145 1.284 . S
C153 O154 1.273 . S
O154 C153 1.273 . S
O155 Zn146 1.977 . S
O155 C148 1.267 . S
C156 O157 1.160 . S
C156 O163 1.185 . S
O157 C156 1.160 . S
O158 Zn159 1.899 . S
O158 C166 1.284 . S
Zn159 O158 1.899 . S
Zn159 O160 2.032 . S
Zn159 O163 2.086 . S
Zn159 O168 1.977 . S
O160 Zn159 2.032 . S
O160 C164 1.278 . S
C161 O162 1.203 . S
C161 O168 1.267 . S
O162 C161 1.203 . S
O163 C156 1.185 . S
O163 Zn159 2.086 . S
C164 O160 1.278 . S
C164 O165 1.211 . S
O165 C164 1.211 . S
C166 O158 1.284 . S
C166 O167 1.273 . S
O167 C166 1.273 . S
O168 Zn159 1.977 . S
O168 C161 1.267 . S
C169 O170 1.160 . S
C169 O176 1.185 . S
O170 C169 1.160 . S
O171 Zn172 1.899 . S
O171 C179 1.284 . S
Zn172 O171 1.899 . S
Zn172 O173 2.032 . S
Zn172 O176 2.086 . S
Zn172 O181 1.977 . S
O173 Zn172 2.032 . S
O173 C177 1.278 . S
C174 O175 1.203 . S
C174 O181 1.267 . S
O175 C174 1.203 . S
O176 C169 1.185 . S
O176 Zn172 2.086 . S
C177 O173 1.278 . S
C177 O178 1.211 . S
O178 C177 1.211 . S
C179 O171 1.284 . S
C179 O180 1.273 . S
O180 C179 1.273 . S
O181 Zn172 1.977 . S
O181 C174 1.267 . S
C182 O183 1.160 . S
C182 O189 1.185 . S
O183 C182 1.160 . S
O184 Zn185 1.899 . S
O184 C192 1.284 . S
Zn185 O184 1.899 . S
Zn185 O186 2.032 . S
Zn185 O189 2.086 . S
Zn185 O194 1.977 . S
O186 Zn185 2.032 . S
O186 C190 1.278 . S
C187 O188 1.203 . S
C187 O194 1.267 . S
O188 C187 1.203 . S
O189 C182 1.185 . S
O189 Zn185 2.086 . S
C190 O186 1.278 . S
C190 O191 1.211 . S
O191 C190 1.211 . S
C192 O184 1.284 . S
C192 O193 1.273 . S
O193 C192 1.273 . S
O194 Zn185 1.977 . S
O194 C187 1.267 . S
C195 O196 1.160 . S
C195 O202 1.185 . S
O196 C195 1.160 . S
O197 Zn198 1.899 . S
O197 C205 1.284 . S
Zn198 O197 1.899 . S
Zn198 O199 2.032 . S
Zn198 O202 2.086 . S
Zn198 O207 1.977 . S
O199 Zn198 2.032 . S
O199 C203 1.278 . S
C200 O201 1.203 . S
C200 O207 1.267 . S
O201 C200 1.203 . S
O202 C195 1.185 . S
O202 Zn198 2.086 . S
C203 O199 1.278 . S
C203 O204 1.211 . S
O204 C203 1.211 . S
C205 O197 1.284 . S
C205 O206 1.273 . S
O206 C205 1.273 . S
O207 Zn198 1.977 . S
O207 C200 1.267 . S
H208 C220 0.930 . S
H209 C222 0.930 . S
H210 C223 0.930 . S
H211 C227 0.959 . S
H212 C227 0.959 . S
H213 C227 0.961 . S
H214 C228 0.960 . S
H215 C228 0.961 . S
H216 C228 0.959 . S
H217 C231 0.929 . S
H218 C232 0.931 . S
H219 C234 0.930 . S
C220 H208 0.930 . S
C220 C221 1.399 . S
C220 C225 1.399 . S
C221 C220 1.399 . S
C221 C222 1.376 . S
C222 H209 0.930 . S
C222 C221 1.376 . S
C222 C223 1.388 . S
C223 H210 0.930 . S
C223 C222 1.388 . S
C223 C224 1.390 . S
C224 C223 1.390 . S
C224 C225 1.394 . S
C224 C230 1.465 . S
C225 C220 1.399 . S
C225 C224 1.394 . S
C225 C226 1.516 . S
C226 C225 1.516 . S
C226 C227 1.502 . S
C226 C228 1.561 . S
C226 C229 1.526 . S
C227 H211 0.959 . S
C227 H212 0.959 . S
C227 H213 0.961 . S
C227 C226 1.502 . S
C228 H214 0.960 . S
C228 H215 0.961 . S
C228 H216 0.959 . S
C228 C226 1.561 . S
C229 C226 1.526 . S
C229 C230 1.396 . S
C229 C234 1.390 . S
C230 C224 1.465 . S
C230 C229 1.396 . S
C230 C231 1.399 . S
C231 H217 0.929 . S
C231 C230 1.399 . S
C231 C232 1.385 . S
C232 H218 0.931 . S
C232 C231 1.385 . S
C232 C233 1.389 . S
C233 C232 1.389 . S
C233 C234 1.387 . S
C234 H219 0.930 . S
C234 C229 1.390 . S
C234 C233 1.387 . S
H235 C247 0.930 . S
H236 C249 0.930 . S
H237 C250 0.930 . S
H238 C254 0.959 . S
H239 C254 0.959 1_545 S
H240 C254 0.961 . S
H241 C255 0.960 . S
H242 C255 0.961 . S
H243 C255 0.959 . S
H244 C258 0.929 . S
H245 C259 0.931 . S
H246 C261 0.930 . S
C247 H235 0.930 . S
C247 C248 1.399 . S
C247 C252 1.399 . S
C248 C247 1.399 . S
C248 C249 1.376 . S
C249 H236 0.930 . S
C249 C248 1.376 . S
C249 C250 1.388 1_655 S
C250 H237 0.930 . S
C250 C249 1.388 1_455 S
C250 C251 1.389 1_455 S
C251 C250 1.389 1_655 S
C251 C252 1.409 . S
C251 C257 1.453 1_665 S
C252 C247 1.399 . S
C252 C251 1.409 . S
C252 C253 1.516 1_565 S
C253 C252 1.516 1_545 S
C253 C254 1.502 1_545 S
C253 C255 1.561 . S
C253 C256 1.526 1_655 S
C254 H238 0.959 . S
C254 H239 0.959 1_565 S
C254 H240 0.961 . S
C254 C253 1.502 1_565 S
C255 H241 0.960 . S
C255 H242 0.961 . S
C255 H243 0.959 . S
C255 C253 1.561 . S
C256 C253 1.526 1_455 S
C256 C257 1.396 . S
C256 C261 1.390 . S
C257 C251 1.453 1_445 S
C257 C256 1.396 . S
C257 C258 1.399 . S
C258 H244 0.929 . S
C258 C257 1.399 . S
C258 C259 1.385 . S
C259 H245 0.931 . S
C259 C258 1.385 . S
C259 C260 1.389 . S
C260 C259 1.389 . S
C260 C261 1.387 . S
C261 H246 0.930 . S
C261 C256 1.390 . S
C261 C260 1.387 . S
H262 C274 0.930 . S
H263 C276 0.930 . S
H264 C277 0.930 . S
H265 C281 0.959 . S
H266 C281 0.959 . S
H267 C281 0.961 . S
H268 C282 0.960 . S
H269 C282 0.961 . S
H270 C282 0.959 . S
H271 C285 0.929 . S
H272 C286 0.931 . S
H273 C288 0.930 . S
C274 H262 0.930 . S
C274 C275 1.399 . S
C274 C279 1.399 . S
C275 C274 1.399 . S
C275 C276 1.376 . S
C276 H263 0.930 . S
C276 C275 1.376 . S
C276 C277 1.388 . S
C277 H264 0.930 . S
C277 C276 1.388 . S
C277 C278 1.390 . S
C278 C277 1.390 . S
C278 C279 1.394 . S
C278 C284 1.464 1_565 S
C279 C274 1.399 . S
C279 C278 1.394 . S
C279 C280 1.516 1_565 S
C280 C279 1.516 1_545 S
C280 C281 1.502 . S
C280 C282 1.561 . S
C280 C283 1.526 . S
C281 H265 0.959 . S
C281 H266 0.959 . S
C281 H267 0.961 . S
C281 C280 1.502 . S
C282 H268 0.960 . S
C282 H269 0.961 . S
C282 H270 0.959 . S
C282 C280 1.561 . S
C283 C280 1.526 . S
C283 C284 1.397 . S
C283 C288 1.390 . S
C284 C278 1.464 1_545 S
C284 C283 1.397 . S
C284 C285 1.398 1_545 S
C285 H271 0.929 . S
C285 C284 1.398 1_565 S
C285 C286 1.385 1_565 S
C286 H272 0.931 . S
C286 C285 1.385 1_545 S
C286 C287 1.389 . S
C287 C286 1.389 . S
C287 C288 1.387 . S
C288 H273 0.930 . S
C288 C283 1.390 . S
C288 C287 1.387 . S
H289 C301 0.930 . S
H290 C303 0.930 . S
H291 C304 0.930 . S
H292 C308 0.959 . S
H293 C308 0.959 . S
H294 C308 0.961 . S
H295 C309 0.960 . S
H296 C309 0.961 . S
H297 C309 0.959 . S
H298 C312 0.929 . S
H299 C313 0.931 . S
H300 C315 0.930 . S
C301 H289 0.930 . S
C301 C302 1.399 . S
C301 C306 1.399 . S
C302 C301 1.399 . S
C302 C303 1.376 . S
C303 H290 0.930 . S
C303 C302 1.376 . S
C303 C304 1.388 . S
C304 H291 0.930 . S
C304 C303 1.388 . S
C304 C305 1.390 . S
C305 C304 1.390 . S
C305 C306 1.394 . S
C305 C311 1.465 1_455 S
C306 C301 1.399 . S
C306 C305 1.394 . S
C306 C307 1.494 1_455 S
C307 C306 1.494 1_655 S
C307 C308 1.524 . S
C307 C309 1.542 1_655 S
C307 C310 1.544 . S
C308 H292 0.959 . S
C308 H293 0.959 . S
C308 H294 0.961 . S
C308 C307 1.524 . S
C309 H295 0.960 . S
C309 H296 0.961 . S
C309 H297 0.959 . S
C309 C307 1.542 1_455 S
C310 C307 1.544 . S
C310 C311 1.396 . S
C310 C315 1.390 . S
C311 C305 1.465 1_655 S
C311 C310 1.396 . S
C311 C312 1.399 . S
C312 H298 0.929 . S
C312 C311 1.399 . S
C312 C313 1.385 . S
C313 H299 0.931 . S
C313 C312 1.385 . S
C313 C314 1.389 . S
C314 C313 1.389 . S
C314 C315 1.387 . S
C315 H300 0.930 . S
C315 C310 1.390 . S
C315 C314 1.387 . S
H316 C328 0.930 . S
H317 C330 0.930 . S
H318 C331 0.930 . S
H319 C335 0.959 . S
H320 C335 0.959 . S
H321 C335 0.961 . S
H322 C336 0.960 . S
H323 C336 0.961 . S
H324 C336 0.959 . S
H325 C339 0.929 . S
H326 C340 0.931 . S
H327 C342 0.930 . S
C328 H316 0.930 . S
C328 C329 1.399 . S
C328 C333 1.399 . S
C329 C328 1.399 . S
C329 C330 1.376 . S
C330 H317 0.930 . S
C330 C329 1.376 . S
C330 C331 1.388 . S
C331 H318 0.930 . S
C331 C330 1.388 . S
C331 C332 1.390 . S
C332 C331 1.390 . S
C332 C333 1.394 . S
C332 C338 1.465 . S
C333 C328 1.399 . S
C333 C332 1.394 . S
C333 C334 1.516 . S
C334 C333 1.516 . S
C334 C335 1.502 . S
C334 C336 1.561 . S
C334 C337 1.526 . S
C335 H319 0.959 . S
C335 H320 0.959 . S
C335 H321 0.961 . S
C335 C334 1.502 . S
C336 H322 0.960 . S
C336 H323 0.961 . S
C336 H324 0.959 . S
C336 C334 1.561 . S
C337 C334 1.526 . S
C337 C338 1.396 . S
C337 C342 1.390 . S
C338 C332 1.465 . S
C338 C337 1.396 . S
C338 C339 1.399 . S
C339 H325 0.929 . S
C339 C338 1.399 . S
C339 C340 1.385 . S
C340 H326 0.931 . S
C340 C339 1.385 . S
C340 C341 1.389 . S
C341 C340 1.389 . S
C341 C342 1.387 . S
C342 H327 0.930 . S
C342 C337 1.390 . S
C342 C341 1.387 . S
H343 C355 0.930 . S
H344 C357 0.930 . S
H345 C358 0.930 . S
H346 C362 0.959 1_545 S
H347 C362 0.959 . S
H348 C362 0.961 . S
H349 C363 0.960 . S
H350 C363 0.961 . S
H351 C363 0.959 . S
H352 C366 0.929 1_545 S
H353 C367 0.931 . S
H354 C369 0.930 . S
C355 H343 0.930 . S
C355 C356 1.399 . S
C355 C360 1.399 . S
C356 C355 1.399 . S
C356 C357 1.376 . S
C357 H344 0.930 . S
C357 C356 1.376 . S
C357 C358 1.388 . S
C358 H345 0.930 . S
C358 C357 1.388 . S
C358 C359 1.390 . S
C359 C358 1.390 . S
C359 C360 1.394 . S
C359 C365 1.465 1_545 S
C360 C355 1.399 . S
C360 C359 1.394 . S
C360 C361 1.516 1_545 S
C361 C360 1.516 1_565 S
C361 C362 1.502 . S
C361 C363 1.561 . S
C361 C364 1.526 . S
C362 H346 0.959 1_565 S
C362 H347 0.959 . S
C362 H348 0.961 . S
C362 C361 1.502 . S
C363 H349 0.960 . S
C363 H350 0.961 . S
C363 H351 0.959 . S
C363 C361 1.561 . S
C364 C361 1.526 . S
C364 C365 1.396 . S
C364 C369 1.390 . S
C365 C359 1.465 1_565 S
C365 C364 1.396 . S
C365 C366 1.399 . S
C366 H352 0.929 1_565 S
C366 C365 1.399 . S
C366 C367 1.385 . S
C367 H353 0.931 . S
C367 C366 1.385 . S
C367 C368 1.389 . S
C368 C367 1.389 . S
C368 C369 1.387 . S
C369 H354 0.930 . S
C369 C364 1.390 . S
C369 C368 1.387 . S
H370 C382 0.930 . S
H371 C384 0.930 . S
H372 C385 0.930 1_455 S
H373 C389 0.959 . S
H374 C389 0.959 . S
H375 C389 0.961 . S
H376 C390 0.960 . S
H377 C390 0.963 . S
H378 C390 0.959 1_455 S
H379 C393 0.929 . S
H380 C394 0.931 . S
H381 C396 0.930 . S
C382 H370 0.930 . S
C382 C383 1.399 . S
C382 C387 1.399 . S
C383 C382 1.399 . S
C383 C384 1.376 . S
C384 H371 0.930 . S
C384 C383 1.376 . S
C384 C385 1.388 . S
C385 H372 0.930 1_655 S
C385 C384 1.388 . S
C385 C386 1.390 . S
C386 C385 1.390 . S
C386 C387 1.394 . S
C386 C392 1.465 1_655 S
C387 C382 1.399 . S
C387 C386 1.394 . S
C387 C388 1.516 . S
C388 C387 1.516 . S
C388 C389 1.502 . S
C388 C390 1.561 . S
C388 C391 1.526 1_655 S
C389 H373 0.959 . S
C389 H374 0.959 . S
C389 H375 0.961 . S
C389 C388 1.502 . S
C390 H376 0.960 . S
C390 H377 0.963 . S
C390 H378 0.959 1_655 S
C390 C388 1.561 . S
C391 C388 1.526 1_455 S
C391 C392 1.396 . S
C391 C396 1.390 . S
C392 C386 1.465 1_455 S
C392 C391 1.396 . S
C392 C393 1.399 . S
C393 H379 0.929 . S
C393 C392 1.399 . S
C393 C394 1.385 . S
C394 H380 0.931 . S
C394 C393 1.385 . S
C394 C395 1.389 . S
C395 C394 1.389 . S
C395 C396 1.387 . S
C396 H381 0.930 . S
C396 C391 1.390 . S
C396 C395 1.387 . S
H397 C409 0.930 . S
H398 C411 0.930 . S
H399 C412 0.930 . S
H400 C416 0.959 . S
H401 C416 0.959 . S
H402 C416 0.961 . S
H403 C417 0.960 . S
H404 C417 0.961 . S
H405 C417 0.959 . S
H406 C420 0.929 . S
H407 C421 0.931 . S
H408 C423 0.930 . S
C409 H397 0.930 . S
C409 C410 1.399 . S
C409 C414 1.399 . S
C410 C409 1.399 . S
C410 C411 1.376 . S
C411 H398 0.930 . S
C411 C410 1.376 . S
C411 C412 1.388 . S
C412 H399 0.930 . S
C412 C411 1.388 . S
C412 C413 1.390 . S
C413 C412 1.390 . S
C413 C414 1.394 . S
C413 C419 1.465 1_554 S
C414 C409 1.399 . S
C414 C413 1.394 . S
C414 C415 1.537 . S
C415 C414 1.537 . S
C415 C416 1.547 . S
C415 C417 1.520 1_554 S
C415 C418 1.497 1_554 S
C416 H400 0.959 . S
C416 H401 0.959 . S
C416 H402 0.961 . S
C416 C415 1.547 . S
C417 H403 0.960 . S
C417 H404 0.961 . S
C417 H405 0.959 . S
C417 C415 1.520 1_556 S
C418 C415 1.497 1_556 S
C418 C419 1.396 . S
C418 C423 1.390 . S
C419 C413 1.465 1_556 S
C419 C418 1.396 . S
C419 C420 1.399 . S
C420 H406 0.929 . S
C420 C419 1.399 . S
C420 C421 1.385 . S
C421 H407 0.931 . S
C421 C420 1.385 . S
C421 C422 1.389 . S
C422 C421 1.389 . S
C422 C423 1.387 . S
C423 H408 0.930 . S
C423 C418 1.390 . S
C423 C422 1.387 . S
H424 C436 0.930 . S
H425 C438 0.930 . S
H426 C439 0.930 . S
H427 C443 0.959 . S
H428 C443 0.959 . S
H429 C443 0.961 1_455 S
H430 C444 0.960 . S
H431 C444 0.961 . S
H432 C444 0.959 1_554 S
H433 C447 0.929 . S
H434 C448 0.931 . S
H435 C450 0.930 . S
C436 H424 0.930 . S
C436 C437 1.399 . S
C436 C441 1.399 . S
C437 C436 1.399 . S
C437 C438 1.376 . S
C438 H425 0.930 . S
C438 C437 1.376 . S
C438 C439 1.388 1_556 S
C439 H426 0.930 . S
C439 C438 1.388 1_554 S
C439 C440 1.390 . S
C440 C439 1.390 . S
C440 C441 1.394 1_554 S
C440 C446 1.465 1_455 S
C441 C436 1.399 . S
C441 C440 1.394 1_556 S
C441 C442 1.516 . S
C442 C441 1.516 . S
C442 C443 1.502 1_455 S
C442 C444 1.561 . S
C442 C445 1.526 1_456 S
C443 H427 0.959 . S
C443 H428 0.959 . S
C443 H429 0.961 1_655 S
C443 C442 1.502 1_655 S
C444 H430 0.960 . S
C444 H431 0.961 . S
C444 H432 0.959 1_556 S
C444 C442 1.561 . S
C445 C442 1.526 1_654 S
C445 C446 1.396 . S
C445 C450 1.390 . S
C446 C440 1.465 1_655 S
C446 C445 1.396 . S
C446 C447 1.399 . S
C447 H433 0.929 . S
C447 C446 1.399 . S
C447 C448 1.385 . S
C448 H434 0.931 . S
C448 C447 1.385 . S
C448 C449 1.389 . S
C449 C448 1.389 . S
C449 C450 1.387 . S
C450 H435 0.930 . S
C450 C445 1.390 . S
C450 C449 1.387 . S
H451 C463 0.930 . S
H452 C465 0.930 . S
H453 C466 0.930 . S
H454 C470 0.959 . S
H455 C470 0.959 . S
H456 C470 0.961 . S
H457 C471 0.960 . S
H458 C471 0.961 . S
H459 C471 0.959 . S
H460 C474 0.929 . S
H461 C475 0.931 . S
H462 C477 0.930 . S
C463 H451 0.930 . S
C463 C464 1.399 . S
C463 C468 1.399 . S
C464 C463 1.399 . S
C464 C465 1.376 . S
C465 H452 0.930 . S
C465 C464 1.376 . S
C465 C466 1.388 . S
C466 H453 0.930 . S
C466 C465 1.388 . S
C466 C467 1.390 . S
C467 C466 1.390 . S
C467 C468 1.394 . S
C467 C473 1.465 . S
C468 C463 1.399 . S
C468 C467 1.394 . S
C468 C469 1.516 . S
C469 C468 1.516 . S
C469 C470 1.502 . S
C469 C471 1.561 . S
C469 C472 1.526 . S
C470 H454 0.959 . S
C470 H455 0.959 . S
C470 H456 0.961 . S
C470 C469 1.502 . S
C471 H457 0.960 . S
C471 H458 0.961 . S
C471 H459 0.959 . S
C471 C469 1.561 . S
C472 C469 1.526 . S
C472 C473 1.396 . S
C472 C477 1.390 . S
C473 C467 1.465 . S
C473 C472 1.396 . S
C473 C474 1.399 . S
C474 H460 0.929 . S
C474 C473 1.399 . S
C474 C475 1.385 . S
C475 H461 0.931 . S
C475 C474 1.385 . S
C475 C476 1.389 . S
C476 C475 1.389 . S
C476 C477 1.387 . S
C477 H462 0.930 . S
C477 C472 1.390 . S
C477 C476 1.387 . S
H478 C490 0.930 . S
H479 C492 0.930 . S
H480 C493 0.930 . S
H481 C497 0.959 . S
H482 C497 0.959 . S
H483 C497 0.961 . S
H484 C498 0.960 . S
H485 C498 0.961 . S
H486 C498 0.959 . S
H487 C501 0.929 . S
H488 C502 0.931 . S
H489 C504 0.930 . S
C490 H478 0.930 . S
C490 C491 1.399 . S
C490 C495 1.399 . S
C491 C490 1.399 . S
C491 C492 1.376 . S
C492 H479 0.930 . S
C492 C491 1.376 . S
C492 C493 1.388 . S
C493 H480 0.930 . S
C493 C492 1.388 . S
C493 C494 1.390 . S
C494 C493 1.390 . S
C494 C495 1.394 . S
C494 C500 1.465 1_556 S
C495 C490 1.399 . S
C495 C494 1.394 . S
C495 C496 1.516 1_556 S
C496 C495 1.516 1_554 S
C496 C497 1.502 1_554 S
C496 C498 1.561 . S
C496 C499 1.526 . S
C497 H481 0.959 . S
C497 H482 0.959 . S
C497 H483 0.961 . S
C497 C496 1.502 1_556 S
C498 H484 0.960 . S
C498 H485 0.961 . S
C498 H486 0.959 . S
C498 C496 1.561 . S
C499 C496 1.526 . S
C499 C500 1.396 . S
C499 C504 1.390 . S
C500 C494 1.465 1_554 S
C500 C499 1.396 . S
C500 C501 1.399 . S
C501 H487 0.929 . S
C501 C500 1.399 . S
C501 C502 1.385 . S
C502 H488 0.931 . S
C502 C501 1.385 . S
C502 C503 1.389 . S
C503 C502 1.389 . S
C503 C504 1.387 . S
C504 H489 0.930 . S
C504 C499 1.390 . S
C504 C503 1.387 . S
H505 C517 0.930 . S
H506 C519 0.930 . S
H507 C520 0.930 . S
H508 C524 0.959 . S
H509 C524 0.959 . S
H510 C524 0.961 . S
H511 C525 0.960 . S
H512 C525 0.961 . S
H513 C525 0.959 . S
H514 C528 0.929 . S
H515 C529 0.931 . S
H516 C531 0.930 . S
C517 H505 0.930 . S
C517 C518 1.399 . S
C517 C522 1.399 . S
C518 C517 1.399 . S
C518 C519 1.376 . S
C519 H506 0.930 . S
C519 C518 1.376 . S
C519 C520 1.388 . S
C520 H507 0.930 . S
C520 C519 1.388 . S
C520 C521 1.390 . S
C521 C520 1.390 . S
C521 C522 1.394 . S
C521 C527 1.465 . S
C522 C517 1.399 . S
C522 C521 1.394 . S
C522 C523 1.516 . S
C523 C522 1.516 . S
C523 C524 1.502 . S
C523 C525 1.561 . S
C523 C526 1.526 . S
C524 H508 0.959 . S
C524 H509 0.959 . S
C524 H510 0.961 . S
C524 C523 1.502 . S
C525 H511 0.960 . S
C525 H512 0.961 . S
C525 H513 0.959 . S
C525 C523 1.561 . S
C526 C523 1.526 . S
C526 C527 1.396 . S
C526 C531 1.390 . S
C527 C521 1.465 . S
C527 C526 1.396 . S
C527 C528 1.399 . S
C528 H514 0.929 . S
C528 C527 1.399 . S
C528 C529 1.385 . S
C529 H515 0.931 . S
C529 C528 1.385 . S
C529 C530 1.389 . S
C530 C529 1.389 . S
C530 C531 1.387 . S
C531 H516 0.930 . S
C531 C526 1.390 . S
C531 C530 1.387 . S
H532 C544 0.930 . S
H533 C546 0.930 . S
H534 C547 0.930 . S
H535 C551 0.959 1_545 S
H536 C551 0.959 . S
H537 C551 0.961 . S
H538 C552 0.960 . S
H539 C552 0.961 . S
H540 C552 0.959 . S
H541 C555 0.929 1_545 S
H542 C556 0.931 . S
H543 C558 0.954 . S
C544 H532 0.930 . S
C544 C545 1.399 . S
C544 C549 1.399 . S
C545 C544 1.399 . S
C545 C546 1.376 . S
C546 H533 0.930 . S
C546 C545 1.376 . S
C546 C547 1.388 1_556 S
C547 H534 0.930 . S
C547 C546 1.388 1_554 S
C547 C548 1.390 . S
C548 C547 1.390 . S
C548 C549 1.394 1_554 S
C548 C554 1.465 1_545 S
C549 C544 1.399 . S
C549 C548 1.394 1_556 S
C549 C550 1.516 1_545 S
C550 C549 1.516 1_565 S
C550 C551 1.502 . S
C550 C552 1.561 . S
C550 C553 1.526 1_556 S
C551 H535 0.959 1_565 S
C551 H536 0.959 . S
C551 H537 0.961 . S
C551 C550 1.502 . S
C552 H538 0.960 . S
C552 H539 0.961 . S
C552 H540 0.959 . S
C552 C550 1.561 . S
C553 C550 1.526 1_554 S
C553 C554 1.396 . S
C553 C558 1.390 . S
C554 C548 1.465 1_565 S
C554 C553 1.396 . S
C554 C555 1.399 . S
C555 H541 0.929 1_565 S
C555 C554 1.399 . S
C555 C556 1.385 . S
C556 H542 0.931 . S
C556 C555 1.385 . S
C556 C557 1.389 . S
C557 C556 1.389 . S
C557 C558 1.387 . S
C558 H543 0.954 . S
C558 C553 1.390 . S
C558 C557 1.387 . S
H559 C571 0.930 . S
H560 C573 0.930 . S
H561 C574 0.930 . S
H562 C578 0.959 . S
H563 C578 0.959 . S
H564 C578 0.961 . S
H565 C579 0.960 . S
H566 C579 0.961 . S
H567 C579 0.959 . S
H568 C582 0.929 . S
H569 C583 0.931 . S
H570 C585 0.930 . S
C571 H559 0.930 . S
C571 C572 1.399 . S
C571 C576 1.399 . S
C572 C571 1.399 . S
C572 C573 1.376 . S
C573 H560 0.930 . S
C573 C572 1.376 . S
C573 C574 1.388 . S
C574 H561 0.930 . S
C574 C573 1.388 . S
C574 C575 1.390 . S
C575 C574 1.390 . S
C575 C576 1.394 . S
C575 C581 1.465 . S
C576 C571 1.399 . S
C576 C575 1.394 . S
C576 C577 1.516 . S
C577 C576 1.516 . S
C577 C578 1.502 . S
C577 C579 1.561 . S
C577 C580 1.526 . S
C578 H562 0.959 . S
C578 H563 0.959 . S
C578 H564 0.961 . S
C578 C577 1.502 . S
C579 H565 0.960 . S
C579 H566 0.961 . S
C579 H567 0.959 . S
C579 C577 1.561 . S
C580 C577 1.526 . S
C580 C581 1.396 . S
C580 C585 1.390 . S
C581 C575 1.465 . S
C581 C580 1.396 . S
C581 C582 1.399 . S
C582 H568 0.929 . S
C582 C581 1.399 . S
C582 C583 1.385 . S
C583 H569 0.931 . S
C583 C582 1.385 . S
C583 C584 1.389 . S
C584 C583 1.389 . S
C584 C585 1.387 . S
C585 H570 0.930 . S
C585 C580 1.390 . S
C585 C584 1.387 . S
H586 C598 0.930 . S
H587 C600 0.930 . S
H588 C601 0.930 . S
H589 C605 0.959 . S
H590 C605 0.959 . S
H591 C605 0.961 . S
H592 C606 0.960 . S
H593 C606 0.961 . S
H594 C606 0.959 . S
H595 C609 0.929 . S
H596 C610 0.931 . S
H597 C612 0.930 . S
C598 H586 0.930 . S
C598 C599 1.399 . S
C598 C603 1.399 . S
C599 C598 1.399 . S
C599 C600 1.376 . S
C600 H587 0.930 . S
C600 C599 1.376 . S
C600 C601 1.388 . S
C601 H588 0.930 . S
C601 C600 1.388 . S
C601 C602 1.390 . S
C602 C601 1.390 . S
C602 C603 1.394 . S
C602 C608 1.465 . S
C603 C598 1.399 . S
C603 C602 1.394 . S
C603 C604 1.516 . S
C604 C603 1.516 . S
C604 C605 1.502 . S
C604 C606 1.561 . S
C604 C607 1.526 . S
C605 H589 0.959 . S
C605 H590 0.959 . S
C605 H591 0.961 . S
C605 C604 1.502 . S
C606 H592 0.960 . S
C606 H593 0.961 . S
C606 H594 0.959 . S
C606 C604 1.561 . S
C607 C604 1.526 . S
C607 C608 1.396 . S
C607 C612 1.390 . S
C608 C602 1.465 . S
C608 C607 1.396 . S
C608 C609 1.399 . S
C609 H595 0.929 . S
C609 C608 1.399 . S
C609 C610 1.385 . S
C610 H596 0.931 . S
C610 C609 1.385 . S
C610 C611 1.389 . S
C611 C610 1.389 . S
C611 C612 1.387 . S
C612 H597 0.930 . S
C612 C607 1.390 . S
C612 C611 1.387 . S
H613 C625 0.930 . S
H614 C627 0.930 . S
H615 C628 0.930 . S
H616 C632 0.959 . S
H617 C632 0.959 . S
H618 C632 0.961 . S
H619 C633 0.960 . S
H620 C633 0.961 . S
H621 C633 0.959 . S
H622 C636 0.929 . S
H623 C637 0.931 . S
H624 C639 0.930 . S
C625 H613 0.930 . S
C625 C626 1.399 . S
C625 C630 1.399 . S
C626 C625 1.399 . S
C626 C627 1.376 . S
C627 H614 0.930 . S
C627 C626 1.376 . S
C627 C628 1.388 . S
C628 H615 0.930 . S
C628 C627 1.388 . S
C628 C629 1.390 . S
C629 C628 1.390 . S
C629 C630 1.394 . S
C629 C635 1.465 . S
C630 C625 1.399 . S
C630 C629 1.394 . S
C630 C631 1.516 . S
C631 C630 1.516 . S
C631 C632 1.502 . S
C631 C633 1.561 . S
C631 C634 1.526 . S
C632 H616 0.959 . S
C632 H617 0.959 . S
C632 H618 0.961 . S
C632 C631 1.502 . S
C633 H619 0.960 . S
C633 H620 0.961 . S
C633 H621 0.959 . S
C633 C631 1.561 . S
C634 C631 1.526 . S
C634 C635 1.396 . S
C634 C639 1.390 . S
C635 C629 1.465 . S
C635 C634 1.396 . S
C635 C636 1.399 . S
C636 H622 0.929 . S
C636 C635 1.399 . S
C636 C637 1.385 . S
C637 H623 0.931 . S
C637 C636 1.385 . S
C637 C638 1.389 . S
C638 C637 1.389 . S
C638 C639 1.387 . S
C639 H624 0.930 . S
C639 C634 1.390 . S
C639 C638 1.387 . S
H640 C652 0.930 . S
H641 C654 0.930 . S
H642 C655 0.930 . S
H643 C659 0.959 . S
H644 C659 0.959 . S
H645 C659 0.961 . S
H646 C660 0.960 . S
H647 C660 0.961 . S
H648 C660 0.959 . S
H649 C663 0.929 . S
H650 C664 0.931 . S
H651 C666 0.930 . S
C652 H640 0.930 . S
C652 C653 1.399 . S
C652 C657 1.399 . S
C653 C652 1.399 . S
C653 C654 1.376 . S
C654 H641 0.930 . S
C654 C653 1.376 . S
C654 C655 1.388 . S
C655 H642 0.930 . S
C655 C654 1.388 . S
C655 C656 1.390 . S
C656 C655 1.390 . S
C656 C657 1.394 . S
C656 C662 1.465 . S
C657 C652 1.399 . S
C657 C656 1.394 . S
C657 C658 1.516 . S
C658 C657 1.516 . S
C658 C659 1.502 . S
C658 C660 1.561 . S
C658 C661 1.526 . S
C659 H643 0.959 . S
C659 H644 0.959 . S
C659 H645 0.961 . S
C659 C658 1.502 . S
C660 H646 0.960 . S
C660 H647 0.961 . S
C660 H648 0.959 . S
C660 C658 1.561 . S
C661 C658 1.526 . S
C661 C662 1.396 . S
C661 C666 1.390 . S
C662 C656 1.465 . S
C662 C661 1.396 . S
C662 C663 1.399 1_565 S
C663 H649 0.929 . S
C663 C662 1.399 1_545 S
C663 C664 1.385 . S
C664 H650 0.931 . S
C664 C663 1.385 . S
C664 C665 1.389 . S
C665 C664 1.389 . S
C665 C666 1.387 1_545 S
C666 H651 0.930 . S
C666 C661 1.390 . S
C666 C665 1.387 1_565 S
H667 C679 0.930 . S
H668 C681 0.930 . S
H669 C682 0.930 . S
H670 C686 0.959 . S
H671 C686 0.959 . S
H672 C686 0.961 . S
H673 C687 0.960 . S
H674 C687 0.961 . S
H675 C687 0.959 . S
H676 C690 0.929 . S
H677 C691 0.931 . S
H678 C693 0.930 . S
C679 H667 0.930 . S
C679 C680 1.399 . S
C679 C684 1.399 . S
C680 C679 1.399 . S
C680 C681 1.376 . S
C681 H668 0.930 . S
C681 C680 1.376 . S
C681 C682 1.388 . S
C682 H669 0.930 . S
C682 C681 1.388 . S
C682 C683 1.390 . S
C683 C682 1.390 . S
C683 C684 1.394 . S
C683 C689 1.465 . S
C684 C679 1.399 . S
C684 C683 1.394 . S
C684 C685 1.516 . S
C685 C684 1.516 . S
C685 C686 1.502 . S
C685 C687 1.561 . S
C685 C688 1.526 . S
C686 H670 0.959 . S
C686 H671 0.959 . S
C686 H672 0.961 . S
C686 C685 1.502 . S
C687 H673 0.960 . S
C687 H674 0.961 . S
C687 H675 0.959 . S
C687 C685 1.561 . S
C688 C685 1.526 . S
C688 C689 1.396 . S
C688 C693 1.390 . S
C689 C683 1.465 . S
C689 C688 1.396 . S
C689 C690 1.399 . S
C690 H676 0.929 . S
C690 C689 1.399 . S
C690 C691 1.385 . S
C691 H677 0.931 . S
C691 C690 1.385 . S
C691 C692 1.389 . S
C692 C691 1.389 . S
C692 C693 1.387 . S
C693 H678 0.930 . S
C693 C688 1.390 . S
C693 C692 1.387 . S
H694 C706 0.930 . S
H695 C708 0.930 . S
H696 C709 0.930 . S
H697 C713 0.959 . S
H698 C713 0.959 . S
H699 C713 0.961 . S
H700 C714 0.960 . S
H701 C714 0.961 . S
H702 C714 0.959 . S
H703 C717 0.929 . S
H704 C718 0.931 . S
H705 C720 0.930 . S
C706 H694 0.930 . S
C706 C707 1.399 . S
C706 C711 1.399 . S
C707 C706 1.399 . S
C707 C708 1.376 . S
C708 H695 0.930 . S
C708 C707 1.376 . S
C708 C709 1.388 . S
C709 H696 0.930 . S
C709 C708 1.388 . S
C709 C710 1.390 . S
C710 C709 1.390 . S
C710 C711 1.394 . S
C710 C716 1.465 . S
C711 C706 1.399 . S
C711 C710 1.394 . S
C711 C712 1.516 . S
C712 C711 1.516 . S
C712 C713 1.502 . S
C712 C714 1.561 . S
C712 C715 1.526 . S
C713 H697 0.959 . S
C713 H698 0.959 . S
C713 H699 0.961 . S
C713 C712 1.502 . S
C714 H700 0.960 . S
C714 H701 0.961 . S
C714 H702 0.959 . S
C714 C712 1.561 . S
C715 C712 1.526 . S
C715 C716 1.396 . S
C715 C720 1.390 . S
C716 C710 1.465 . S
C716 C715 1.396 . S
C716 C717 1.399 . S
C717 H703 0.929 . S
C717 C716 1.399 . S
C717 C718 1.385 . S
C718 H704 0.931 . S
C718 C717 1.385 . S
C718 C719 1.389 . S
C719 C718 1.389 . S
C719 C720 1.387 . S
C720 H705 0.930 . S
C720 C715 1.390 . S
C720 C719 1.387 . S
H721 C733 0.930 . S
H722 C735 0.930 . S
H723 C736 0.930 . S
H724 C740 0.959 . S
H725 C740 0.959 . S
H726 C740 0.961 . S
H727 C741 0.960 . S
H728 C741 0.961 . S
H729 C741 0.959 . S
H730 C744 0.929 1_545 S
H731 C745 0.931 . S
H732 C747 0.930 . S
C733 H721 0.930 . S
C733 C734 1.399 . S
C733 C738 1.399 . S
C734 C733 1.399 . S
C734 C735 1.376 . S
C735 H722 0.930 . S
C735 C734 1.376 . S
C735 C736 1.388 . S
C736 H723 0.930 . S
C736 C735 1.388 . S
C736 C737 1.390 . S
C737 C736 1.390 . S
C737 C738 1.394 . S
C737 C743 1.465 . S
C738 C733 1.399 . S
C738 C737 1.394 . S
C738 C739 1.516 . S
C739 C738 1.516 . S
C739 C740 1.502 . S
C739 C741 1.561 . S
C739 C742 1.526 . S
C740 H724 0.959 . S
C740 H725 0.959 . S
C740 H726 0.961 . S
C740 C739 1.502 . S
C741 H727 0.960 . S
C741 H728 0.961 . S
C741 H729 0.959 . S
C741 C739 1.561 . S
C742 C739 1.526 . S
C742 C743 1.396 . S
C742 C747 1.390 . S
C743 C737 1.465 . S
C743 C742 1.396 . S
C743 C744 1.399 . S
C744 H730 0.929 1_565 S
C744 C743 1.399 . S
C744 C745 1.385 1_565 S
C745 H731 0.931 . S
C745 C744 1.385 1_545 S
C745 C746 1.389 . S
C746 C745 1.389 . S
C746 C747 1.387 1_545 S
C747 H732 0.930 . S
C747 C742 1.390 . S
C747 C746 1.387 1_565 S
H748 C760 0.930 . S
H749 C762 0.930 . S
H750 C763 0.930 . S
H751 C767 0.959 . S
H752 C767 0.959 . S
H753 C767 0.961 . S
H754 C768 0.960 . S
H755 C768 0.961 . S
H756 C768 0.959 . S
H757 C771 0.929 . S
H758 C772 0.931 . S
H759 C774 0.930 . S
C760 H748 0.930 . S
C760 C761 1.399 . S
C760 C765 1.399 . S
C761 C760 1.399 . S
C761 C762 1.376 . S
C762 H749 0.930 . S
C762 C761 1.376 . S
C762 C763 1.388 . S
C763 H750 0.930 . S
C763 C762 1.388 . S
C763 C764 1.390 . S
C764 C763 1.390 . S
C764 C765 1.394 . S
C764 C770 1.465 . S
C765 C760 1.399 . S
C765 C764 1.394 . S
C765 C766 1.516 . S
C766 C765 1.516 . S
C766 C767 1.502 . S
C766 C768 1.561 . S
C766 C769 1.526 . S
C767 H751 0.959 . S
C767 H752 0.959 . S
C767 H753 0.961 . S
C767 C766 1.502 . S
C768 H754 0.960 . S
C768 H755 0.961 . S
C768 H756 0.959 . S
C768 C766 1.561 . S
C769 C766 1.526 . S
C769 C770 1.396 . S
C769 C774 1.390 . S
C770 C764 1.465 . S
C770 C769 1.396 . S
C770 C771 1.399 . S
C771 H757 0.929 . S
C771 C770 1.399 . S
C771 C772 1.385 1_545 S
C772 H758 0.931 . S
C772 C771 1.385 1_565 S
C772 C773 1.389 . S
C773 C772 1.389 . S
C773 C774 1.387 1_565 S
C774 H759 0.930 . S
C774 C769 1.390 . S
C774 C773 1.387 1_545 S
H775 C787 0.930 . S
H776 C789 0.930 . S
H777 C790 0.930 . S
H778 C794 0.959 . S
H779 C794 0.959 . S
H780 C794 0.961 . S
H781 C795 0.960 . S
H782 C795 0.961 . S
H783 C795 0.959 . S
H784 C798 0.929 . S
H785 C799 0.931 . S
H786 C801 0.930 . S
C787 H775 0.930 . S
C787 C788 1.399 . S
C787 C792 1.399 . S
C788 C787 1.399 . S
C788 C789 1.376 . S
C789 H776 0.930 . S
C789 C788 1.376 . S
C789 C790 1.388 . S
C790 H777 0.930 . S
C790 C789 1.388 . S
C790 C791 1.390 . S
C791 C790 1.390 . S
C791 C792 1.394 . S
C791 C797 1.465 . S
C792 C787 1.399 . S
C792 C791 1.394 . S
C792 C793 1.516 . S
C793 C792 1.516 . S
C793 C794 1.502 . S
C793 C795 1.561 . S
C793 C796 1.526 . S
C794 H778 0.959 . S
C794 H779 0.959 . S
C794 H780 0.961 . S
C794 C793 1.502 . S
C795 H781 0.960 . S
C795 H782 0.961 . S
C795 H783 0.959 . S
C795 C793 1.561 . S
C796 C793 1.526 . S
C796 C797 1.396 . S
C796 C801 1.390 . S
C797 C791 1.465 . S
C797 C796 1.396 . S
C797 C798 1.399 . S
C798 H784 0.929 . S
C798 C797 1.399 . S
C798 C799 1.385 . S
C799 H785 0.931 . S
C799 C798 1.385 . S
C799 C800 1.389 . S
C800 C799 1.389 . S
C800 C801 1.387 . S
C801 H786 0.930 . S
C801 C796 1.390 . S
C801 C800 1.387 . S
H802 C814 0.930 . S
H803 C816 0.930 . S
H804 C817 0.930 . S
H805 C821 0.959 . S
H806 C821 0.959 . S
H807 C821 0.961 . S
H808 C822 0.960 . S
H809 C822 0.961 . S
H810 C822 0.959 . S
H811 C825 0.929 . S
H812 C826 0.931 . S
H813 C828 0.930 . S
C814 H802 0.930 . S
C814 C815 1.399 . S
C814 C819 1.399 . S
C815 C814 1.399 . S
C815 C816 1.376 . S
C816 H803 0.930 . S
C816 C815 1.376 . S
C816 C817 1.388 . S
C817 H804 0.930 . S
C817 C816 1.388 . S
C817 C818 1.390 . S
C818 C817 1.390 . S
C818 C819 1.394 . S
C818 C824 1.465 . S
C819 C814 1.399 . S
C819 C818 1.394 . S
C819 C820 1.516 . S
C820 C819 1.516 . S
C820 C821 1.502 . S
C820 C822 1.561 . S
C820 C823 1.526 . S
C821 H805 0.959 . S
C821 H806 0.959 . S
C821 H807 0.961 . S
C821 C820 1.502 . S
C822 H808 0.960 . S
C822 H809 0.961 . S
C822 H810 0.959 . S
C822 C820 1.561 . S
C823 C820 1.526 . S
C823 C824 1.396 . S
C823 C828 1.390 . S
C824 C818 1.465 . S
C824 C823 1.396 . S
C824 C825 1.399 . S
C825 H811 0.929 . S
C825 C824 1.399 . S
C825 C826 1.385 . S
C826 H812 0.931 . S
C826 C825 1.385 . S
C826 C827 1.389 . S
C827 C826 1.389 . S
C827 C828 1.387 . S
C828 H813 0.930 . S
C828 C823 1.390 . S
C828 C827 1.387 . S
H829 C841 0.930 . S
H830 C843 0.930 . S
H831 C844 0.930 . S
H832 C848 0.959 . S
H833 C848 0.959 . S
H834 C848 0.961 . S
H835 C849 0.960 . S
H836 C849 0.961 . S
H837 C849 0.959 . S
H838 C852 0.929 . S
H839 C853 0.931 . S
H840 C855 0.930 . S
C841 H829 0.930 . S
C841 C842 1.399 1_545 S
C841 C846 1.399 . S
C842 C841 1.399 1_565 S
C842 C843 1.376 . S
C843 H830 0.930 . S
C843 C842 1.376 . S
C843 C844 1.388 1_565 S
C844 H831 0.930 . S
C844 C843 1.388 1_545 S
C844 C845 1.390 . S
C845 C844 1.390 . S
C845 C846 1.394 . S
C845 C851 1.465 . S
C846 C841 1.399 . S
C846 C845 1.394 . S
C846 C847 1.516 . S
C847 C846 1.516 . S
C847 C848 1.502 . S
C847 C849 1.561 . S
C847 C850 1.526 . S
C848 H832 0.959 . S
C848 H833 0.959 . S
C848 H834 0.961 . S
C848 C847 1.502 . S
C849 H835 0.960 . S
C849 H836 0.961 . S
C849 H837 0.959 . S
C849 C847 1.561 . S
C850 C847 1.526 . S
C850 C851 1.396 . S
C850 C855 1.390 . S
C851 C845 1.465 . S
C851 C850 1.396 . S
C851 C852 1.399 . S
C852 H838 0.929 . S
C852 C851 1.399 . S
C852 C853 1.385 . S
C853 H839 0.931 . S
C853 C852 1.385 . S
C853 C854 1.389 . S
C854 C853 1.389 . S
C854 C855 1.387 . S
C855 H840 0.930 . S
C855 C850 1.390 . S
C855 C854 1.387 . S
H856 C868 0.930 . S
H857 C870 0.930 . S
H858 C871 0.930 . S
H859 C875 0.959 . S
H860 C875 0.959 . S
H861 C875 0.961 . S
H862 C876 0.960 . S
H863 C876 0.961 . S
H864 C876 0.959 . S
H865 C879 0.929 1_545 S
H866 C880 0.931 . S
H867 C882 0.930 . S
C868 H856 0.930 . S
C868 C869 1.399 . S
C868 C873 1.399 . S
C869 C868 1.399 . S
C869 C870 1.376 . S
C870 H857 0.930 . S
C870 C869 1.376 . S
C870 C871 1.388 . S
C871 H858 0.930 . S
C871 C870 1.388 . S
C871 C872 1.390 . S
C872 C871 1.390 . S
C872 C873 1.394 . S
C872 C878 1.465 . S
C873 C868 1.399 . S
C873 C872 1.394 . S
C873 C874 1.516 . S
C874 C873 1.516 . S
C874 C875 1.502 . S
C874 C876 1.561 . S
C874 C877 1.526 . S
C875 H859 0.959 . S
C875 H860 0.959 . S
C875 H861 0.961 . S
C875 C874 1.502 . S
C876 H862 0.960 . S
C876 H863 0.961 . S
C876 H864 0.959 . S
C876 C874 1.561 . S
C877 C874 1.526 . S
C877 C878 1.396 . S
C877 C882 1.390 . S
C878 C872 1.465 . S
C878 C877 1.396 . S
C878 C879 1.399 . S
C879 H865 0.929 1_565 S
C879 C878 1.399 . S
C879 C880 1.385 1_565 S
C880 H866 0.931 . S
C880 C879 1.385 1_545 S
C880 C881 1.389 . S
C881 C880 1.389 . S
C881 C882 1.387 1_545 S
C882 H867 0.930 . S
C882 C877 1.390 . S
C882 C881 1.387 1_565 S
H883 C895 0.930 . S
H884 C897 0.930 . S
H885 C898 0.930 . S
H886 C902 0.959 . S
H887 C902 0.959 . S
H888 C902 0.961 . S
H889 C903 0.960 . S
H890 C903 0.961 . S
H891 C903 0.959 . S
H892 C906 0.929 . S
H893 C907 0.931 . S
H894 C909 0.930 . S
C895 H883 0.930 . S
C895 C896 1.399 . S
C895 C900 1.399 . S
C896 C895 1.399 . S
C896 C897 1.376 . S
C897 H884 0.930 . S
C897 C896 1.376 . S
C897 C898 1.388 . S
C898 H885 0.930 . S
C898 C897 1.388 . S
C898 C899 1.390 . S
C899 C898 1.390 . S
C899 C900 1.394 . S
C899 C905 1.465 . S
C900 C895 1.399 . S
C900 C899 1.394 . S
C900 C901 1.516 . S
C901 C900 1.516 . S
C901 C902 1.502 . S
C901 C903 1.561 . S
C901 C904 1.526 . S
C902 H886 0.959 . S
C902 H887 0.959 . S
C902 H888 0.961 . S
C902 C901 1.502 . S
C903 H889 0.960 . S
C903 H890 0.961 . S
C903 H891 0.959 . S
C903 C901 1.561 . S
C904 C901 1.526 . S
C904 C905 1.396 . S
C904 C909 1.390 . S
C905 C899 1.465 . S
C905 C904 1.396 . S
C905 C906 1.399 . S
C906 H892 0.929 . S
C906 C905 1.399 . S
C906 C907 1.385 . S
C907 H893 0.931 . S
C907 C906 1.385 . S
C907 C908 1.389 . S
C908 C907 1.389 . S
C908 C909 1.387 . S
C909 H894 0.930 . S
C909 C904 1.390 . S
C909 C908 1.387 . S
H910 C922 0.930 . S
H911 C924 0.930 . S
H912 C925 0.930 . S
H913 C929 0.959 . S
H914 C929 0.959 . S
H915 C929 0.961 . S
H916 C930 0.960 . S
H917 C930 0.961 . S
H918 C930 0.959 . S
H919 C933 0.929 . S
H920 C934 0.931 . S
H921 C936 0.930 . S
C922 H910 0.930 . S
C922 C923 1.399 . S
C922 C927 1.399 . S
C923 C922 1.399 . S
C923 C924 1.376 . S
C924 H911 0.930 . S
C924 C923 1.376 . S
C924 C925 1.388 . S
C925 H912 0.930 . S
C925 C924 1.388 . S
C925 C926 1.390 . S
C926 C925 1.390 . S
C926 C927 1.394 . S
C926 C932 1.465 . S
C927 C922 1.399 . S
C927 C926 1.394 . S
C927 C928 1.516 . S
C928 C927 1.516 . S
C928 C929 1.502 . S
C928 C930 1.561 . S
C928 C931 1.526 . S
C929 H913 0.959 . S
C929 H914 0.959 . S
C929 H915 0.961 . S
C929 C928 1.502 . S
C930 H916 0.960 . S
C930 H917 0.961 . S
C930 H918 0.959 . S
C930 C928 1.561 . S
C931 C928 1.526 . S
C931 C932 1.396 . S
C931 C936 1.390 . S
C932 C926 1.465 . S
C932 C931 1.396 . S
C932 C933 1.399 . S
C933 H919 0.929 . S
C933 C932 1.399 . S
C933 C934 1.385 . S
C934 H920 0.931 . S
C934 C933 1.385 . S
C934 C935 1.389 . S
C935 C934 1.389 . S
C935 C936 1.387 . S
C936 H921 0.930 . S
C936 C931 1.390 . S
C936 C935 1.387 . S
H937 C949 0.930 . S
H938 C951 0.930 . S
H939 C952 0.930 . S
H940 C956 0.959 . S
H941 C956 0.959 1_545 S
H942 C956 0.961 . S
H943 C957 0.960 . S
H944 C957 0.961 . S
H945 C957 0.959 . S
H946 C960 0.929 . S
H947 C961 0.931 . S
H948 C963 0.930 1_545 S
C949 H937 0.930 . S
C949 C950 1.399 . S
C949 C954 1.399 . S
C950 C949 1.399 . S
C950 C951 1.376 . S
C951 H938 0.930 . S
C951 C950 1.376 . S
C951 C952 1.388 . S
C952 H939 0.930 . S
C952 C951 1.388 . S
C952 C953 1.390 . S
C953 C952 1.390 . S
C953 C954 1.394 . S
C953 C959 1.465 . S
C954 C949 1.399 . S
C954 C953 1.394 . S
C954 C955 1.516 . S
C955 C954 1.516 . S
C955 C956 1.502 . S
C955 C957 1.561 . S
C955 C958 1.526 . S
C956 H940 0.959 . S
C956 H941 0.959 1_565 S
C956 H942 0.961 . S
C956 C955 1.502 . S
C957 H943 0.960 . S
C957 H944 0.961 . S
C957 H945 0.959 . S
C957 C955 1.561 . S
C958 C955 1.526 . S
C958 C959 1.396 . S
C958 C963 1.390 . S
C959 C953 1.465 . S
C959 C958 1.396 . S
C959 C960 1.399 . S
C960 H946 0.929 . S
C960 C959 1.399 . S
C960 C961 1.385 . S
C961 H947 0.931 . S
C961 C960 1.385 . S
C961 C962 1.389 1_565 S
C962 C961 1.389 1_545 S
C962 C963 1.387 1_545 S
C963 H948 0.930 1_565 S
C963 C958 1.390 . S
C963 C962 1.387 1_565 S
H964 C976 0.930 . S
H965 C978 0.930 . S
H966 C979 0.930 . S
H967 C983 0.959 . S
H968 C983 0.959 . S
H969 C983 0.961 . S
H970 C984 0.960 . S
H971 C984 0.961 . S
H972 C984 0.959 . S
H973 C987 0.929 . S
H974 C988 0.931 . S
H975 C990 0.930 . S
C976 H964 0.930 . S
C976 C977 1.399 . S
C976 C981 1.399 . S
C977 C976 1.399 . S
C977 C978 1.376 . S
C978 H965 0.930 . S
C978 C977 1.376 . S
C978 C979 1.388 . S
C979 H966 0.930 . S
C979 C978 1.388 . S
C979 C980 1.390 . S
C980 C979 1.390 . S
C980 C981 1.394 . S
C980 C986 1.465 . S
C981 C976 1.399 . S
C981 C980 1.394 . S
C981 C982 1.516 . S
C982 C981 1.516 . S
C982 C983 1.502 . S
C982 C984 1.561 . S
C982 C985 1.526 . S
C983 H967 0.959 . S
C983 H968 0.959 . S
C983 H969 0.961 . S
C983 C982 1.502 . S
C984 H970 0.960 . S
C984 H971 0.961 . S
C984 H972 0.959 . S
C984 C982 1.561 . S
C985 C982 1.526 . S
C985 C986 1.396 . S
C985 C990 1.390 . S
C986 C980 1.465 . S
C986 C985 1.396 . S
C986 C987 1.399 . S
C987 H973 0.929 . S
C987 C986 1.399 . S
C987 C988 1.385 1_545 S
C988 H974 0.931 . S
C988 C987 1.385 1_565 S
C988 C989 1.389 . S
C989 C988 1.389 . S
C989 C990 1.387 1_565 S
C990 H975 0.930 . S
C990 C985 1.390 . S
C990 C989 1.387 1_545 S
H991 C1003 0.930 . S
H992 C1005 0.930 . S
H993 C1006 0.930 . S
H994 C1010 0.959 . S
H995 C1010 0.959 . S
H996 C1010 0.961 . S
H997 C1011 0.960 . S
H998 C1011 0.961 . S
H999 C1011 0.959 . S
H1000 C1014 0.929 . S
H1001 C1015 0.931 . S
H1002 C1017 0.930 . S
C1003 H991 0.930 . S
C1003 C1004 1.399 . S
C1003 C1008 1.399 . S
C1004 C1003 1.399 . S
C1004 C1005 1.376 . S
C1005 H992 0.930 . S
C1005 C1004 1.376 . S
C1005 C1006 1.388 . S
C1006 H993 0.930 . S
C1006 C1005 1.388 . S
C1006 C1007 1.390 . S
C1007 C1006 1.390 . S
C1007 C1008 1.394 . S
C1007 C1013 1.465 . S
C1008 C1003 1.399 . S
C1008 C1007 1.394 . S
C1008 C1009 1.516 . S
C1009 C1008 1.516 . S
C1009 C1010 1.502 . S
C1009 C1011 1.561 . S
C1009 C1012 1.526 . S
C1010 H994 0.959 . S
C1010 H995 0.959 . S
C1010 H996 0.961 . S
C1010 C1009 1.502 . S
C1011 H997 0.960 . S
C1011 H998 0.961 . S
C1011 H999 0.959 . S
C1011 C1009 1.561 . S
C1012 C1009 1.526 . S
C1012 C1013 1.396 . S
C1012 C1017 1.390 . S
C1013 C1007 1.465 . S
C1013 C1012 1.396 . S
C1013 C1014 1.399 . S
C1014 H1000 0.929 . S
C1014 C1013 1.399 . S
C1014 C1015 1.385 . S
C1015 H1001 0.931 . S
C1015 C1014 1.385 . S
C1015 C1016 1.389 . S
C1016 C1015 1.389 . S
C1016 C1017 1.387 . S
C1017 H1002 0.930 . S
C1017 C1012 1.390 . S
C1017 C1016 1.387 . S
H1018 C1030 0.930 . S
H1019 C1032 0.930 . S
H1020 C1033 0.930 . S
H1021 C1037 0.959 . S
H1022 C1037 0.959 . S
H1023 C1037 0.961 . S
H1024 C1038 0.960 . S
H1025 C1038 0.961 . S
H1026 C1038 0.959 . S
H1027 C1041 0.929 . S
H1028 C1042 0.931 . S
H1029 C1044 0.930 . S
C1030 H1018 0.930 . S
C1030 C1031 1.399 . S
C1030 C1035 1.399 . S
C1031 C1030 1.399 . S
C1031 C1032 1.376 . S
C1032 H1019 0.930 . S
C1032 C1031 1.376 . S
C1032 C1033 1.388 . S
C1033 H1020 0.930 . S
C1033 C1032 1.388 . S
C1033 C1034 1.390 . S
C1034 C1033 1.390 . S
C1034 C1035 1.394 . S
C1034 C1040 1.465 . S
C1035 C1030 1.399 . S
C1035 C1034 1.394 . S
C1035 C1036 1.516 . S
C1036 C1035 1.516 . S
C1036 C1037 1.502 . S
C1036 C1038 1.561 . S
C1036 C1039 1.526 . S
C1037 H1021 0.959 . S
C1037 H1022 0.959 . S
C1037 H1023 0.961 . S
C1037 C1036 1.502 . S
C1038 H1024 0.960 . S
C1038 H1025 0.961 . S
C1038 H1026 0.959 . S
C1038 C1036 1.561 . S
C1039 C1036 1.526 . S
C1039 C1040 1.396 . S
C1039 C1044 1.390 . S
C1040 C1034 1.465 . S
C1040 C1039 1.396 . S
C1040 C1041 1.399 . S
C1041 H1027 0.929 . S
C1041 C1040 1.399 . S
C1041 C1042 1.385 . S
C1042 H1028 0.931 . S
C1042 C1041 1.385 . S
C1042 C1043 1.389 . S
C1043 C1042 1.389 . S
C1043 C1044 1.387 . S
C1044 H1029 0.930 . S
C1044 C1039 1.390 . S
C1044 C1043 1.387 . S
H1045 C1057 0.930 . S
H1046 C1059 0.930 . S
H1047 C1060 0.930 . S
H1048 C1064 0.959 . S
H1049 C1064 0.959 1_565 S
H1050 C1064 0.961 . S
H1051 C1065 0.960 . S
H1052 C1065 0.961 . S
H1053 C1065 0.959 . S
H1054 C1068 0.929 . S
H1055 C1069 0.931 . S
H1056 C1071 0.930 . S
C1057 H1045 0.930 . S
C1057 C1058 1.399 . S
C1057 C1062 1.399 . S
C1058 C1057 1.399 . S
C1058 C1059 1.376 . S
C1059 H1046 0.930 . S
C1059 C1058 1.376 . S
C1059 C1060 1.388 . S
C1060 H1047 0.930 . S
C1060 C1059 1.388 . S
C1060 C1061 1.390 . S
C1061 C1060 1.390 . S
C1061 C1062 1.394 . S
C1061 C1067 1.465 . S
C1062 C1057 1.399 . S
C1062 C1061 1.394 . S
C1062 C1063 1.516 . S
C1063 C1062 1.516 . S
C1063 C1064 1.502 . S
C1063 C1065 1.561 . S
C1063 C1066 1.526 . S
C1064 H1048 0.959 . S
C1064 H1049 0.959 1_545 S
C1064 H1050 0.961 . S
C1064 C1063 1.502 . S
C1065 H1051 0.960 . S
C1065 H1052 0.961 . S
C1065 H1053 0.959 . S
C1065 C1063 1.561 . S
C1066 C1063 1.526 . S
C1066 C1067 1.396 . S
C1066 C1071 1.390 1_545 S
C1067 C1061 1.465 . S
C1067 C1066 1.396 . S
C1067 C1068 1.399 . S
C1068 H1054 0.929 . S
C1068 C1067 1.399 . S
C1068 C1069 1.385 . S
C1069 H1055 0.931 . S
C1069 C1068 1.385 . S
C1069 C1070 1.389 1_545 S
C1070 C1069 1.389 1_565 S
C1070 C1071 1.387 . S
C1071 H1056 0.930 . S
C1071 C1066 1.390 1_565 S
C1071 C1070 1.387 . S
C221 C192 1.520 . S
C233 C10 1.501 . S
C248 C26 1.512 . S
C260 C0 1.454 . S
C275 C143 1.517 . S
C287 C13 1.455 . S
C302 C23 1.521 . S
C314 C101 1.502 . S
C329 C36 1.509 . S
C341 C166 1.516 . S
C356 C117 1.456 . S
C368 C39 1.508 . S
C383 C49 1.506 . S
C395 C75 1.513 . S
C410 C140 1.518 . S
C422 C62 1.507 . S
C437 C52 1.470 . S
C449 C78 1.490 . S
C464 C195 1.461 . S
C476 C65 1.500 . S
C491 C114 1.514 . S
C503 C88 1.512 . S
C518 C169 1.469 . S
C530 C91 1.508 . S
C545 C104 1.457 . S
C557 C130 1.507 . S
C572 C205 1.515 . S
C584 C127 1.511 . S
C599 C153 1.519 . S
C611 C179 1.505 . S
C626 C182 1.478 . S
C638 C156 1.483 . S
C653 C70 1.178 . S
C665 C8 1.106 . S
C680 C5 1.172 . S
C692 C73 1.104 . S
C707 C18 1.194 . S
C719 C60 1.125 . S
C734 C57 1.188 . S
C746 C21 1.114 . S
C761 C96 1.184 . S
C773 C34 1.131 . S
C788 C99 1.133 . S
C800 C31 1.185 . S
C815 C86 1.158 . S
C827 C44 1.194 . S
C842 C47 1.158 . S
C854 C83 1.194 . S
C869 C174 1.188 . S
C881 C112 1.114 . S
C896 C109 1.122 . S
C908 C177 1.194 . S
C923 C122 1.131 . S
C935 C164 1.115 . S
C950 C161 1.157 . S
C962 C125 1.189 . S
C977 C200 1.099 . S
C989 C138 1.135 . S
C1004 C203 1.140 . S
C1016 C135 1.189 . S
C1031 C148 1.123 . S
C1043 C190 1.106 . S
C1058 C187 1.142 . S
C1070 C151 1.192 . S
