# Generated by pormake.
# Topology yfb, (5)-cn, num edge types: 1
# Building blocks:
#     Node 0, Type 0, BuildingBlock: XOMCOT_clean_sbu_0, # of connection points: 5
#     Node 1, Type 0, BuildingBlock: XOMCOT_clean_sbu_0, # of connection points: 5
#     Node 2, Type 0, BuildingBlock: XOMCOT_clean_sbu_0, # of connection points: 5
#     Node 3, Type 0, BuildingBlock: XOMCOT_clean_sbu_0, # of connection points: 5
#     Node 4, Type 0, BuildingBlock: XOMCOT_clean_sbu_0, # of connection points: 5
#     Node 5, Type 0, BuildingBlock: XOMCOT_clean_sbu_0, # of connection points: 5
#     Node 6, Type 0, BuildingBlock: XOMCOT_clean_sbu_0, # of connection points: 5
#     Node 7, Type 0, BuildingBlock: XOMCOT_clean_sbu_0, # of connection points: 5
#     Node 8, Type 0, BuildingBlock: XOMCOT_clean_sbu_0, # of connection points: 5
#     Node 9, Type 0, BuildingBlock: XOMCOT_clean_sbu_0, # of connection points: 5
#     Node 10, Type 0, BuildingBlock: XOMCOT_clean_sbu_0, # of connection points: 5
#     Node 11, Type 0, BuildingBlock: XOMCOT_clean_sbu_0, # of connection points: 5
#     Node 12, Type 0, BuildingBlock: XOMCOT_clean_sbu_0, # of connection points: 5
#     Node 13, Type 0, BuildingBlock: XOMCOT_clean_sbu_0, # of connection points: 5
#     Node 14, Type 0, BuildingBlock: XOMCOT_clean_sbu_0, # of connection points: 5
#     Node 15, Type 0, BuildingBlock: XOMCOT_clean_sbu_0, # of connection points: 5
#     Edge 16, Type (0, 0), BuildingBlock: OJICUG_clean_linker_0, # of connection points: 2
#     Edge 17, Type (0, 0), BuildingBlock: OJICUG_clean_linker_0, # of connection points: 2
#     Edge 18, Type (0, 0), BuildingBlock: OJICUG_clean_linker_0, # of connection points: 2
#     Edge 19, Type (0, 0), BuildingBlock: OJICUG_clean_linker_0, # of connection points: 2
#     Edge 20, Type (0, 0), BuildingBlock: OJICUG_clean_linker_0, # of connection points: 2
#     Edge 21, Type (0, 0), BuildingBlock: OJICUG_clean_linker_0, # of connection points: 2
#     Edge 22, Type (0, 0), BuildingBlock: OJICUG_clean_linker_0, # of connection points: 2
#     Edge 23, Type (0, 0), BuildingBlock: OJICUG_clean_linker_0, # of connection points: 2
#     Edge 24, Type (0, 0), BuildingBlock: OJICUG_clean_linker_0, # of connection points: 2
#     Edge 25, Type (0, 0), BuildingBlock: OJICUG_clean_linker_0, # of connection points: 2
#     Edge 26, Type (0, 0), BuildingBlock: OJICUG_clean_linker_0, # of connection points: 2
#     Edge 27, Type (0, 0), BuildingBlock: OJICUG_clean_linker_0, # of connection points: 2
#     Edge 28, Type (0, 0), BuildingBlock: OJICUG_clean_linker_0, # of connection points: 2
#     Edge 29, Type (0, 0), BuildingBlock: OJICUG_clean_linker_0, # of connection points: 2
#     Edge 30, Type (0, 0), BuildingBlock: OJICUG_clean_linker_0, # of connection points: 2
#     Edge 31, Type (0, 0), BuildingBlock: OJICUG_clean_linker_0, # of connection points: 2
#     Edge 32, Type (0, 0), BuildingBlock: OJICUG_clean_linker_0, # of connection points: 2
#     Edge 33, Type (0, 0), BuildingBlock: OJICUG_clean_linker_0, # of connection points: 2
#     Edge 34, Type (0, 0), BuildingBlock: OJICUG_clean_linker_0, # of connection points: 2
#     Edge 35, Type (0, 0), BuildingBlock: OJICUG_clean_linker_0, # of connection points: 2
#     Edge 36, Type (0, 0), BuildingBlock: OJICUG_clean_linker_0, # of connection points: 2
#     Edge 37, Type (0, 0), BuildingBlock: OJICUG_clean_linker_0, # of connection points: 2
#     Edge 38, Type (0, 0), BuildingBlock: OJICUG_clean_linker_0, # of connection points: 2
#     Edge 39, Type (0, 0), BuildingBlock: OJICUG_clean_linker_0, # of connection points: 2
#     Edge 40, Type (0, 0), BuildingBlock: OJICUG_clean_linker_0, # of connection points: 2
#     Edge 41, Type (0, 0), BuildingBlock: OJICUG_clean_linker_0, # of connection points: 2
#     Edge 42, Type (0, 0), BuildingBlock: OJICUG_clean_linker_0, # of connection points: 2
#     Edge 43, Type (0, 0), BuildingBlock: OJICUG_clean_linker_0, # of connection points: 2
#     Edge 44, Type (0, 0), BuildingBlock: OJICUG_clean_linker_0, # of connection points: 2
#     Edge 45, Type (0, 0), BuildingBlock: OJICUG_clean_linker_0, # of connection points: 2
#     Edge 46, Type (0, 0), BuildingBlock: OJICUG_clean_linker_0, # of connection points: 2
#     Edge 47, Type (0, 0), BuildingBlock: OJICUG_clean_linker_0, # of connection points: 2
#     Edge 48, Type (0, 0), BuildingBlock: OJICUG_clean_linker_0, # of connection points: 2
#     Edge 49, Type (0, 0), BuildingBlock: OJICUG_clean_linker_0, # of connection points: 2
#     Edge 50, Type (0, 0), BuildingBlock: OJICUG_clean_linker_0, # of connection points: 2
#     Edge 51, Type (0, 0), BuildingBlock: OJICUG_clean_linker_0, # of connection points: 2
#     Edge 52, Type (0, 0), BuildingBlock: OJICUG_clean_linker_0, # of connection points: 2
#     Edge 53, Type (0, 0), BuildingBlock: OJICUG_clean_linker_0, # of connection points: 2
#     Edge 54, Type (0, 0), BuildingBlock: OJICUG_clean_linker_0, # of connection points: 2
#     Edge 55, Type (0, 0), BuildingBlock: OJICUG_clean_linker_0, # of connection points: 2
# Relax obj value: 0.757
# Max RMSD: 0.297
# Mean RMSD: 0.297
data_MOF--net-yfb--node1-XOMCOT_clean_sbu_0--edge1-OJICUG_clean_linker_0
_symmetry_space_group_name_H-M    P1
_symmetry_Int_Tables_number       1
_symmetry_cell_setting            triclinic
loop_
_symmetry_equiv_pos_as_xyz
'x, y, z'
_cell_length_a     32.983985
_cell_length_b     32.956517
_cell_length_c     30.13951
_cell_angle_alpha  89.981983
_cell_angle_beta   90.02041
_cell_angle_gamma 89.930367
loop_
_atom_site_label
_atom_site_type_symbol
_atom_site_fract_x
_atom_site_fract_y
_atom_site_fract_z
_atom_type_partial_charge
Co0 Co 0.67144 0.06749 0.13328 0.0
C1 C 0.60822 0.01786 0.09089 0.0
C2 C 0.60362 0.01549 0.16152 0.0
C3 C 0.56756 1.00205 0.1433 0.0
N4 N 0.62943 0.02571 0.12864 0.0
N5 N 0.57028 0.0042 0.0987 0.0
H6 H 0.61764 0.02774 0.05841 0.0
H7 H 0.60846 0.02216 0.19623 0.0
C8 C 0.69498 0.01764 0.21395 0.0
O9 O 0.68767 0.984 0.19196 0.0
N10 N 0.71163 0.11059 0.13649 0.0
C11 C 0.742 0.11711 0.10737 0.0
C12 C 0.7609 0.15292 0.11752 0.0
C13 C 0.7116 0.1437 0.16307 0.0
N14 N 0.74169 0.16987 0.15229 0.0
C15 C 0.71008 0.02438 0.06302 0.0
C16 C 0.7839 0.01737 0.10482 0.0
C17 C 0.78308 0.02175 0.05854 0.0
C18 C 0.74518 0.02005 0.03756 0.0
C19 C 0.74866 0.02501 0.12885 0.0
N20 N 0.71255 0.03158 0.1076 0.0
H21 H 0.68217 0.0291 0.04544 0.0
H22 H 0.75281 0.03254 0.16319 0.0
H23 H 0.74836 0.09887 0.07855 0.0
H24 H 0.68876 0.14961 0.18803 0.0
O25 O 0.65189 0.09112 0.0794 0.0
O26 O 0.62871 0.1064 0.1464 0.0
O27 O 0.68665 0.05193 0.1962 0.0
C28 C 0.62642 0.11144 0.10357 0.0
H29 H 0.54038 0.99465 0.16168 0.0
H30 H 0.78457 0.16726 0.0982 0.0
H31 H 0.81243 0.01608 0.12259 0.0
H32 H 0.74238 0.02205 1.00185 0.0
Co33 Co 0.43885 0.66993 0.133 0.0
C34 C 0.48867 0.60583 0.0927 0.0
C35 C 0.49359 0.60439 0.16328 0.0
C36 C 0.50757 0.56788 0.1463 0.0
N37 N 0.48152 0.62852 0.12957 0.0
N38 N 0.50398 0.56875 0.10172 0.0
H39 H 0.4771 0.6133 0.06025 0.0
H40 H 0.48806 0.61062 0.19797 0.0
C41 C 0.48868 0.69939 0.21047 0.0
O42 O 0.52175 0.6942 0.18684 0.0
N43 N 0.3949 0.70909 0.13467 0.0
C44 C 0.38565 0.73548 0.10195 0.0
C45 C 0.35059 0.75548 0.11275 0.0
C46 C 0.36413 0.71213 0.16411 0.0
N47 N 0.33695 0.74076 0.15165 0.0
C48 C 0.48695 0.70608 0.06402 0.0
C49 C 0.47868 0.7836 0.09728 0.0
C50 C 0.48454 0.77843 0.05148 0.0
C51 C 0.49332 0.73926 1.0361 0.0
C52 C 0.47334 0.74968 0.12422 0.0
N53 N 0.47351 0.71148 0.10645 0.0
H54 H 0.48761 0.67657 0.04922 0.0
H55 H 0.46155 0.75503 0.15707 0.0
H56 H 0.40212 0.73855 0.07114 0.0
H57 H 0.36056 0.69244 0.19259 0.0
O58 O 0.41541 0.64834 0.07986 0.0
O59 O 0.40101 0.62712 0.14798 0.0
O60 O 0.45454 0.68745 0.19514 0.0
C61 C 0.39554 0.62349 0.10534 0.0
H62 H 0.51647 0.54165 0.16561 0.0
H63 H 0.33443 0.77673 0.09177 0.0
H64 H 0.47191 0.813 0.11143 0.0
H65 H 0.49996 0.73376 1.00144 0.0
Co66 Co 0.83373 0.43994 0.13317 0.0
C67 C 0.89765 0.48894 0.09177 0.0
C68 C 0.90283 0.48909 0.16233 0.0
C69 C 0.93954 0.50068 0.14424 0.0
N70 N 0.87626 0.48123 0.12941 0.0
N71 N 0.9366 0.49962 0.09958 0.0
H72 H 0.88672 0.48176 0.05912 0.0
H73 H 0.89797 0.4814 0.19679 0.0
C74 C 0.81091 0.48916 0.21437 0.0
O75 O 0.81897 0.52289 0.19287 0.0
N76 N 0.79313 0.39722 0.13573 0.0
C77 C 0.76301 0.39094 0.10624 0.0
C78 C 0.74371 0.35529 0.11625 0.0
C79 C 0.79256 0.36422 0.16246 0.0
N80 N 0.76239 0.33826 0.15136 0.0
C81 C 0.79536 0.48386 0.06323 0.0
C82 C 0.72171 0.49122 0.10522 0.0
C83 C 0.7224 0.48702 0.05893 0.0
C84 C 0.76025 0.48862 0.03788 0.0
C85 C 0.75696 0.48325 0.12914 0.0
N86 N 0.79298 0.47649 0.1078 0.0
H87 H 0.82307 0.47881 0.04547 0.0
H88 H 0.75283 0.47564 0.16346 0.0
H89 H 0.75707 0.40927 0.07736 0.0
H90 H 0.81504 0.35824 0.18781 0.0
O91 O 0.85323 0.4168 0.07903 0.0
O92 O 0.87604 0.40049 0.14594 0.0
O93 O 0.81856 0.45493 0.19619 0.0
C94 C 0.87855 0.39611 0.10304 0.0
H95 H 0.96733 0.50494 0.16273 0.0
H96 H 0.72009 0.34113 0.09668 0.0
H97 H 0.69323 0.49255 0.12305 0.0
H98 H 0.76294 0.48672 1.00216 0.0
Co99 Co 0.06991 0.83721 0.13273 0.0
C100 C 0.02163 0.90192 0.09173 0.0
C101 C 0.0152 0.90331 0.16213 0.0
C102 C 1.00193 0.94001 0.14481 0.0
N103 N 0.02772 0.87908 0.12871 0.0
N104 N 0.00691 0.93926 0.10041 0.0
H105 H 0.03247 0.89365 0.05928 0.0
H106 H 0.02004 0.89704 0.19695 0.0
C107 C 0.01955 0.80842 0.21001 0.0
O108 O 0.98662 0.81364 0.18611 0.0
N109 N 0.11345 0.7976 0.13494 0.0
C110 C 0.12254 0.77089 0.10251 0.0
C111 C 0.15755 0.75086 0.11346 0.0
C112 C 0.1443 0.79472 0.16433 0.0
N113 N 0.17135 0.7659 0.15214 0.0
C114 C 0.02132 0.80149 0.06388 0.0
C115 C 0.0291 0.7239 0.09703 0.0
C116 C 0.02324 0.72922 0.05123 0.0
C117 C 0.01469 0.76845 1.03591 0.0
C118 C 0.0347 0.75773 0.12403 0.0
N119 N 0.03485 0.79594 0.10626 0.0
H120 H 0.02077 0.83098 0.04908 0.0
H121 H 0.04643 0.75227 0.1569 0.0
H122 H 0.10606 0.7677 0.0717 0.0
H123 H 0.14807 0.81474 0.1925 0.0
O124 O 0.09378 0.85813 0.07953 0.0
O125 O 0.10819 0.87974 0.14749 0.0
O126 O 0.05381 0.82023 0.19488 0.0
C127 C 0.11381 0.88299 0.10483 0.0
H128 H 0.99352 0.96654 0.16388 0.0
H129 H 0.17363 0.72944 0.09263 0.0
H130 H 0.03566 0.69442 0.11112 0.0
H131 H 0.00806 0.77405 1.00125 0.0
Co132 Co 0.67103 0.43959 0.44035 0.0
C133 C 0.60763 0.48867 0.48299 0.0
C134 C 0.6029 0.49171 0.41243 0.0
C135 C 0.56683 0.50501 0.43084 0.0
N136 N 0.62882 0.48125 0.44516 0.0
N137 N 0.56957 0.50216 0.47538 0.0
H138 H 0.61774 0.47968 0.51551 0.0
H139 H 0.60761 0.48517 0.37766 0.0
C140 C 0.69396 0.48942 0.35961 0.0
O141 O 0.6867 0.52304 0.38167 0.0
N142 N 0.71144 0.39661 0.43696 0.0
C143 C 0.74193 0.39016 0.46599 0.0
C144 C 0.76112 0.35452 0.4556 0.0
C145 C 0.71166 0.36364 0.41017 0.0
N146 N 0.74201 0.33761 0.42075 0.0
C147 C 0.70983 0.48297 0.51028 0.0
C148 C 0.78338 0.49023 0.46807 0.0
C149 C 0.78282 0.48613 0.51438 0.0
C150 C 0.745 0.48765 0.53553 0.0
C151 C 0.74809 0.48223 0.44427 0.0
N152 N 0.71212 0.47562 0.46572 0.0
H153 H 0.68208 0.47811 0.52805 0.0
H154 H 0.75214 0.47452 0.40996 0.0
H155 H 0.74826 0.40839 0.49483 0.0
H156 H 0.68886 0.35774 0.38516 0.0
O157 O 0.65191 0.41598 0.49441 0.0
O158 O 0.6284 0.40056 0.42758 0.0
O159 O 0.68577 0.45512 0.37735 0.0
C160 C 0.62632 0.39565 0.47044 0.0
H161 H 0.53932 0.51178 0.41268 0.0
H162 H 0.785 0.34027 0.47478 0.0
H163 H 0.81179 0.49165 0.45013 0.0
H164 H 0.74237 0.48581 0.57126 0.0
Co165 Co 0.06798 0.67158 0.43985 0.0
C166 C 0.01878 0.60798 0.48183 0.0
C167 C 0.01647 0.60334 0.41123 0.0
C168 C 1.00321 0.56716 0.42945 0.0
N169 N 0.02644 0.62928 0.44412 0.0
N170 N 0.0056 0.56985 0.47402 0.0
H171 H 0.02738 0.61806 0.51447 0.0
H172 H 0.02335 0.60812 0.37656 0.0
C173 C 0.01912 0.69432 0.3582 0.0
O174 O 0.98528 0.68715 0.37981 0.0
N175 N 0.11078 0.71202 0.43701 0.0
C176 C 0.11726 0.74203 0.46659 0.0
C177 C 0.15273 0.76148 0.4563 0.0
C178 C 0.14353 0.71273 0.40998 0.0
N179 N 0.16946 0.74297 0.42095 0.0
C180 C 0.02381 0.71041 0.50913 0.0
C181 C 0.01811 0.78428 0.4671 0.0
C182 C 0.02179 0.7835 0.51346 0.0
C183 C 0.01948 0.74561 0.53447 0.0
C184 C 0.02555 0.74885 0.44323 0.0
N185 N 0.0316 0.71272 0.46466 0.0
H186 H 0.02811 0.6825 0.52686 0.0
H187 H 0.03334 0.75277 0.40891 0.0
H188 H 0.09917 0.74782 0.49566 0.0
H189 H 0.14934 0.69033 0.3845 0.0
O190 O 0.09099 0.65251 0.49428 0.0
O191 O 0.1073 0.62895 0.42774 0.0
O192 O 0.0532 0.68632 0.37655 0.0
C193 C 0.11174 0.62695 0.47067 0.0
H194 H 0.99681 0.53963 0.41118 0.0
H195 H 0.167 0.78507 0.47583 0.0
H196 H 0.01729 0.8128 0.44924 0.0
H197 H 0.02095 0.74283 0.5702 0.0
Co198 Co 0.83484 0.06752 0.44033 0.0
C199 C 0.89848 0.01858 0.48284 0.0
C200 C 0.90295 0.01543 0.41227 0.0
C201 C 0.93912 1.00221 0.4306 0.0
N202 N 0.87713 0.0259 0.44508 0.0
N203 N 0.93654 0.00512 0.47513 0.0
H204 H 0.88849 0.0276 0.51538 0.0
H205 H 0.89809 0.0219 0.37751 0.0
C206 C 0.81164 0.01766 0.35965 0.0
O207 O 0.81898 0.98404 0.3817 0.0
N208 N 0.79437 0.11045 0.43703 0.0
C209 C 0.7641 0.11696 0.46627 0.0
C210 C 0.74482 0.15257 0.45591 0.0
C211 C 0.79396 0.14337 0.41013 0.0
N212 N 0.76368 0.16941 0.42086 0.0
C213 C 0.79634 0.02413 0.51043 0.0
C214 C 0.72257 0.01713 0.46858 0.0
C215 C 0.72335 0.02129 0.51488 0.0
C216 C 0.76126 0.01962 0.53586 0.0
C217 C 0.75779 0.02492 0.44459 0.0
N218 N 0.79387 0.03146 0.46587 0.0
H219 H 0.82418 0.0289 0.52807 0.0
H220 H 0.75363 0.03255 0.41027 0.0
H221 H 0.75801 0.09882 0.49524 0.0
H222 H 0.8166 0.14921 0.38495 0.0
O223 O 0.85411 0.09117 0.4943 0.0
O224 O 0.87738 0.1066 0.42739 0.0
O225 O 0.81988 0.05196 0.37736 0.0
C226 C 0.87958 0.11155 0.47023 0.0
H227 H 0.96656 0.99544 0.41235 0.0
H228 H 0.72109 0.16686 0.47523 0.0
H229 H 0.69406 0.01582 0.45078 0.0
H230 H 0.76405 0.02148 0.57158 0.0
Co231 Co 0.43889 0.83614 0.44001 0.0
C232 C 0.48799 0.89962 0.48239 0.0
C233 C 0.49066 0.90435 0.41181 0.0
C234 C 0.50392 0.94047 0.43016 0.0
N235 N 0.48046 0.87839 0.4446 0.0
N236 N 0.50131 0.93774 0.47471 0.0
H237 H 0.47919 0.88952 0.51496 0.0
H238 H 0.48396 0.89963 0.37709 0.0
C239 C 0.48815 0.8134 0.35871 0.0
O240 O 0.52187 0.82055 0.38057 0.0
N241 N 0.39604 0.79575 0.43689 0.0
C242 C 0.38949 0.76562 0.46633 0.0
C243 C 0.35398 0.7463 0.45595 0.0
C244 C 0.36325 0.79525 0.40987 0.0
N245 N 0.33727 0.76501 0.42069 0.0
C246 C 0.48273 0.79721 0.50956 0.0
C247 C 0.48851 0.72334 0.46757 0.0
C248 C 0.48474 0.72411 0.51393 0.0
C249 C 0.48699 0.762 0.53492 0.0
C250 C 0.48119 0.75879 0.44366 0.0
N251 N 0.4751 0.79492 0.46505 0.0
H252 H 0.47837 0.8251 0.52727 0.0
H253 H 0.47353 0.7549 0.40929 0.0
H254 H 0.40755 0.75968 0.49541 0.0
H255 H 0.35745 0.8178 0.38454 0.0
O256 O 0.41564 0.85519 0.49429 0.0
O257 O 0.39969 0.87882 0.42765 0.0
O258 O 0.45398 0.82141 0.37681 0.0
C259 C 0.39504 0.8808 0.47055 0.0
H260 H 0.51051 0.968 0.41196 0.0
H261 H 0.33966 0.72266 0.47537 0.0
H262 H 0.48934 0.69483 0.44973 0.0
H263 H 0.48543 0.76477 0.57065 0.0
Co264 Co 0.33955 0.9386 0.93954 0.0
C265 C 0.40278 0.98981 0.9783 0.0
C266 C 0.40739 0.98854 0.90764 0.0
C267 C 0.44377 1.00202 0.92507 0.0
N268 N 0.38149 0.98044 0.9411 0.0
N269 N 0.4411 1.00205 0.96977 0.0
H270 H 0.39297 0.9818 1.01119 0.0
H271 H 0.40229 0.9802 0.87339 0.0
C272 C 0.31274 0.98893 0.85913 0.0
O273 O 0.32459 0.02291 0.87783 0.0
N274 N 0.29906 0.89558 0.93916 0.0
C275 C 0.26858 0.89013 0.96844 0.0
C276 C 0.24846 0.85496 0.9585 0.0
C277 C 0.29761 0.86258 0.91245 0.0
N278 N 0.26676 0.83746 0.92351 0.0
C279 C 0.30483 0.97622 1.01613 0.0
C280 C 0.23141 0.99422 0.97745 0.0
C281 C 0.23252 0.98578 1.02298 0.0
C282 C 0.27071 0.98169 0.04294 0.0
C283 C 0.26546 0.98587 0.95171 0.0
N284 N 0.30113 0.97388 0.97097 0.0
H285 H 0.33223 0.96683 1.03245 0.0
H286 H 0.26007 0.98298 0.91687 0.0
H287 H 0.26243 0.9087 0.99695 0.0
H288 H 0.31962 0.85618 0.88676 0.0
O289 O 0.36513 0.91348 0.99003 0.0
O290 O 0.38032 0.90017 0.91977 0.0
O291 O 0.31865 0.9551 0.8789 0.0
C292 C 0.3875 0.89406 0.96168 0.0
H293 H 0.47107 0.00783 0.90624 0.0
H294 H 0.22428 0.84154 0.97786 0.0
H295 H 0.20287 0.99988 0.96074 0.0
H296 H 0.27377 0.97607 0.07816 0.0
Co297 Co 0.56679 0.33545 0.94081 0.0
C298 C 0.51815 0.39936 0.98347 0.0
C299 C 0.51448 0.40335 0.91285 0.0
C300 C 0.50139 0.43961 0.93097 0.0
N301 N 0.52529 0.3778 0.94578 0.0
N302 N 0.50444 0.43733 0.97556 0.0
H303 H 0.52852 0.39009 1.01584 0.0
H304 H 0.52048 0.39821 0.87805 0.0
C305 C 0.51686 0.31217 0.8601 0.0
O306 O 0.48322 0.3193 0.88213 0.0
N307 N 0.60957 0.29488 0.93729 0.0
C308 C 0.61615 0.26452 0.96646 0.0
C309 C 0.65174 0.24529 0.95598 0.0
C310 C 0.64235 0.29455 0.9103 0.0
N311 N 0.66845 0.26427 0.92092 0.0
C312 C 0.52341 0.29714 1.01094 0.0
C313 C 0.51598 0.22332 0.96921 0.0
C314 C 0.52031 0.22411 1.01549 0.0
C315 C 0.51885 0.26206 1.03645 0.0
C316 C 0.52402 0.25847 0.94517 0.0
N317 N 0.53073 0.29456 0.9664 0.0
H318 H 0.52815 0.32509 1.02846 0.0
H319 H 0.53168 0.25424 0.91087 0.0
H320 H 0.59808 0.25835 0.99545 0.0
H321 H 0.6481 0.31727 0.88515 0.0
O322 O 0.59068 0.35456 0.99471 0.0
O323 O 0.60587 0.37797 0.92778 0.0
O324 O 0.55108 0.3206 0.87783 0.0
C325 C 0.61098 0.38007 0.97061 0.0
H326 H 0.49361 0.46662 0.9124 0.0
H327 H 0.6661 0.22153 0.97524 0.0
H328 H 0.51449 0.19479 0.95145 0.0
H329 H 0.52079 0.26485 0.07215 0.0
Co330 Co 0.16825 0.56859 0.94104 0.0
C331 C 0.10683 0.51562 0.98029 0.0
C332 C 0.09972 0.51934 0.91001 0.0
C333 C 0.06396 0.50531 0.92839 0.0
N334 N 0.12677 0.52631 0.94266 0.0
N335 N 0.06809 0.50387 0.97296 0.0
H336 H 0.11865 0.52113 1.01292 0.0
H337 H 0.10357 0.52905 0.87599 0.0
C338 C 0.19483 0.5184 0.86028 0.0
O339 O 0.18178 0.48441 0.87798 0.0
N340 N 0.20838 0.61202 0.94049 0.0
C341 C 0.23974 0.61727 0.96872 0.0
C342 C 0.25952 0.65256 0.95843 0.0
C343 C 0.20911 0.6452 0.91396 0.0
N344 N 0.24023 0.67028 0.9242 0.0
C345 C 0.20344 0.53308 1.01863 0.0
C346 C 0.27606 0.51231 0.9798 0.0
C347 C 0.27548 0.52165 1.02514 0.0
C348 C 0.23759 0.52722 0.04527 0.0
C349 C 0.24186 0.52047 0.95416 0.0
N350 N 0.20669 0.53391 0.97336 0.0
H351 H 0.17656 0.54384 1.03498 0.0
H352 H 0.24677 0.52171 0.91914 0.0
H353 H 0.24699 0.5984 0.99667 0.0
H354 H 0.18656 0.65167 0.88884 0.0
O355 O 0.14187 0.59382 0.99093 0.0
O356 O 0.12731 0.60655 0.9204 0.0
O357 O 0.18984 0.55196 0.88082 0.0
C358 C 0.11974 0.61301 0.96214 0.0
H359 H 0.03581 0.50113 0.91054 0.0
H360 H 0.28432 0.66579 0.97699 0.0
H361 H 0.30435 0.50567 0.96304 0.0
H362 H 0.23497 0.53377 0.08034 0.0
Co363 Co 0.93874 0.17338 0.94046 0.0
C364 C 0.98748 0.11026 0.98413 0.0
C365 C 0.99187 0.10548 0.91363 0.0
C366 C 0.00568 0.06974 0.93247 0.0
N367 N 0.98036 0.13125 0.94608 0.0
N368 N 1.00202 0.07254 0.97693 0.0
H369 H 0.97771 0.12016 1.01644 0.0
H370 H 0.98595 0.11006 0.8787 0.0
C371 C 0.98906 0.19619 0.86 0.0
O372 O 0.02257 0.18923 0.88236 0.0
N373 N 0.89582 0.21379 0.93639 0.0
C374 C 0.88937 0.24463 0.96498 0.0
C375 C 0.85364 0.26356 0.95444 0.0
C376 C 0.86279 0.21355 0.90973 0.0
N377 N 0.83669 0.24393 0.91996 0.0
C378 C 0.98192 0.2122 1.01047 0.0
C379 C 0.98969 0.28575 0.96819 0.0
C380 C 0.98563 0.28519 1.01451 0.0
C381 C 0.98697 0.24733 1.03568 0.0
C382 C 0.98141 0.25049 0.94442 0.0
N383 N 0.97458 0.21454 0.96592 0.0
H384 H 0.97684 0.1845 1.02829 0.0
H385 H 0.97372 0.25455 0.91009 0.0
H386 H 0.90762 0.25135 0.9937 0.0
H387 H 0.85686 0.19036 0.88515 0.0
O388 O 0.91465 0.15445 0.99437 0.0
O389 O 0.8999 0.13063 0.9275 0.0
O390 O 0.95474 0.18786 0.87752 0.0
C391 C 0.89459 0.12871 0.9703 0.0
H392 H 0.01351 0.04235 0.91459 0.0
H393 H 0.83935 0.28758 0.97335 0.0
H394 H 0.99125 0.31418 0.95025 0.0
H395 H 0.98517 0.24467 0.0714 0.0
Co396 Co 0.33533 0.56795 0.63493 0.0
C397 C 0.39894 0.51923 0.5921 0.0
C398 C 0.40352 0.51576 0.66265 0.0
C399 C 0.43963 0.50254 0.64423 0.0
N400 N 0.37767 0.52642 0.62993 0.0
N401 N 0.43697 0.50565 0.59971 0.0
H402 H 0.3889 0.5284 0.55961 0.0
H403 H 0.39874 0.52206 0.69746 0.0
C404 C 0.31254 0.51793 0.71558 0.0
O405 O 0.31934 0.48446 0.69307 0.0
N406 N 0.29482 0.6108 0.63849 0.0
C407 C 0.26449 0.61735 0.60929 0.0
C408 C 0.24525 0.65296 0.6197 0.0
C409 C 0.29451 0.6437 0.66537 0.0
N410 N 0.26421 0.66977 0.65471 0.0
C411 C 0.29656 0.52402 0.56544 0.0
C412 C 0.2228 0.51788 0.60744 0.0
C413 C 0.22355 0.52155 0.56108 0.0
C414 C 0.26143 0.51948 0.54009 0.0
C415 C 0.25811 0.52565 0.6313 0.0
N416 N 0.2942 0.53177 0.6099 0.0
H417 H 0.32442 0.52845 0.54773 0.0
H418 H 0.2541 0.53364 0.66556 0.0
H419 H 0.25835 0.59922 0.58032 0.0
H420 H 0.31725 0.64955 0.69046 0.0
O421 O 0.35401 0.59154 0.58066 0.0
O422 O 0.37794 0.6072 0.64721 0.0
O423 O 0.32095 0.55232 0.69811 0.0
C424 C 0.37966 0.61208 0.60432 0.0
H425 H 0.46709 0.49562 0.66241 0.0
H426 H 0.2215 0.66728 0.60041 0.0
H427 H 0.19432 0.51691 0.62528 0.0
H428 H 0.26419 0.52097 0.50436 0.0
Co429 Co 0.93928 0.33539 0.63291 0.0
C430 C 0.98833 0.39886 0.59048 0.0
C431 C 0.99121 0.40347 0.66106 0.0
C432 C 0.00449 0.43959 0.64273 0.0
N433 N 0.98087 0.37759 0.62825 0.0
N434 N 1.00175 0.43693 0.59818 0.0
H435 H 0.97943 0.38881 0.55792 0.0
H436 H 0.98461 0.39869 0.6958 0.0
C437 C 0.98903 0.31226 0.71374 0.0
O438 O 0.02265 0.31959 0.69177 0.0
N439 N 0.89636 0.29499 0.63616 0.0
C440 C 0.88994 0.2646 0.60701 0.0
C441 C 0.8543 0.24546 0.61727 0.0
C442 C 0.86338 0.29478 0.66288 0.0
N443 N 0.83737 0.26452 0.65215 0.0
C444 C 0.98265 0.29665 0.56291 0.0
C445 C 0.98991 0.22293 0.60499 0.0
C446 C 0.98573 0.22359 0.55869 0.0
C447 C 0.98728 0.26148 0.53759 0.0
C448 C 0.98199 0.25823 0.62887 0.0
N449 N 0.97535 0.29429 0.60748 0.0
H450 H 0.97779 0.32447 0.54519 0.0
H451 H 0.97438 0.25414 0.6632 0.0
H452 H 0.90818 0.25833 0.57817 0.0
H453 H 0.85747 0.31754 0.68796 0.0
O454 O 0.91571 0.35471 0.57889 0.0
O455 O 0.90022 0.37806 0.64576 0.0
O456 O 0.95477 0.32043 0.6959 0.0
C457 C 0.89532 0.38025 0.60291 0.0
H458 H 0.01119 0.46707 0.66095 0.0
H459 H 0.84009 0.22168 0.59799 0.0
H460 H 0.99132 0.19445 0.62288 0.0
H461 H 0.9854 0.26419 0.50187 0.0
Co462 Co 0.17131 0.93961 0.63438 0.0
C463 C 0.10755 0.98821 0.59153 0.0
C464 C 0.10311 0.99177 0.66209 0.0
C465 C 0.06695 0.00493 0.64369 0.0
N466 N 0.12891 0.98109 0.62935 0.0
N467 N 0.06951 1.00176 0.59917 0.0
H468 H 0.11755 0.97903 0.55905 0.0
H469 H 0.10798 0.98552 0.6969 0.0
C470 C 0.19424 0.98955 0.71506 0.0
O471 O 0.18731 0.02308 0.69268 0.0
N472 N 0.21188 0.89681 0.63797 0.0
C473 C 0.2422 0.89027 0.60878 0.0
C474 C 0.2615 0.85471 0.61927 0.0
C475 C 0.21229 0.86397 0.66495 0.0
N476 N 0.24261 0.83793 0.65435 0.0
C477 C 0.20996 0.98354 0.56481 0.0
C478 C 0.28372 0.98993 0.60681 0.0
C479 C 0.28297 0.98617 0.56046 0.0
C480 C 0.24508 0.98811 0.53946 0.0
C481 C 0.24846 0.98205 0.63068 0.0
N482 N 0.21236 0.97583 0.60929 0.0
H483 H 0.18209 0.97905 0.54712 0.0
H484 H 0.25253 0.97408 0.66493 0.0
H485 H 0.24829 0.90838 0.57977 0.0
H486 H 0.18959 0.85814 0.69008 0.0
O487 O 0.15262 0.916 0.58014 0.0
O488 O 0.12877 0.90031 0.64672 0.0
O489 O 0.18577 0.95521 0.69755 0.0
C490 C 0.12702 0.89543 0.60383 0.0
H491 H 0.03953 0.01186 0.6619 0.0
H492 H 0.28527 0.8404 0.60002 0.0
H493 H 0.31221 0.99102 0.62466 0.0
H494 H 0.2423 0.98656 0.50372 0.0
Co495 Co 0.56733 0.17226 0.63374 0.0
C496 C 0.51848 0.1086 0.59133 0.0
C497 C 0.51558 0.10401 0.6619 0.0
C498 C 0.5024 0.06784 0.64358 0.0
N499 N 0.52587 0.12991 0.62909 0.0
N500 N 0.50515 0.0705 0.59904 0.0
H501 H 0.52736 0.11866 0.55877 0.0
H502 H 0.52215 0.10881 0.69665 0.0
C503 C 0.51754 0.19535 0.71451 0.0
O504 O 0.48396 0.18787 0.69253 0.0
N505 N 0.61013 0.21279 0.63694 0.0
C506 C 0.61637 0.24325 0.60782 0.0
C507 C 0.65204 0.26241 0.61793 0.0
C508 C 0.64324 0.21299 0.6635 0.0
N509 N 0.66917 0.2433 0.65269 0.0
C510 C 0.52368 0.21079 0.56374 0.0
C511 C 0.51624 0.28454 0.60566 0.0
C512 C 0.52031 0.28383 0.55935 0.0
C513 C 0.51885 0.2459 0.53835 0.0
C514 C 0.52437 0.2493 0.6296 0.0
N515 N 0.5311 0.21324 0.60828 0.0
H516 H 0.52861 0.18298 0.54606 0.0
H517 H 0.53208 0.25347 0.6639 0.0
H518 H 0.59802 0.24954 0.57905 0.0
H519 H 0.64932 0.19017 0.68847 0.0
O520 O 0.5909 0.15302 0.57971 0.0
O521 O 0.60653 0.12969 0.64657 0.0
O522 O 0.55184 0.18721 0.69675 0.0
C523 C 0.61139 0.12753 0.60371 0.0
H524 H 0.49575 0.04035 0.66182 0.0
H525 H 0.66614 0.28624 0.59861 0.0
H526 H 0.51478 0.31304 0.62349 0.0
H527 H 0.52064 0.24315 0.50263 0.0
C528 C 0.73856 0.98034 0.26999 0.0
C529 C 0.72322 0.01703 0.2528 0.0
H530 H 0.77881 0.95154 0.31646 0.0
C531 C 0.73847 0.05365 0.27013 0.0
H532 H 0.72797 0.95153 0.25722 0.0
C533 C 0.76813 0.05366 0.30337 0.0
C534 C 0.78343 0.01704 0.32076 0.0
H535 H 0.72792 0.0826 0.25757 0.0
H536 H 0.77862 0.08261 0.31589 0.0
C537 C 0.76816 0.98034 0.30363 0.0
C538 C 0.45224 0.77008 0.3022 0.0
C539 C 0.48871 0.78605 0.31909 0.0
H540 H 0.42361 0.72998 0.25604 0.0
C541 C 0.52544 0.77234 0.30052 0.0
H542 H 0.42329 0.7794 0.31579 0.0
C543 C 0.52562 0.74356 0.26606 0.0
C544 C 0.4891 0.72741 0.2495 0.0
H545 H 0.55415 0.78357 0.31285 0.0
H546 H 0.55444 0.73407 0.25231 0.0
C547 C 0.45243 0.74117 0.26813 0.0
C548 C 0.73716 0.45336 0.30321 0.0
C549 C 0.72218 0.49002 0.32078 0.0
H550 H 0.77721 0.42429 0.25741 0.0
C551 C 0.73785 0.52667 0.30395 0.0
H552 H 0.72635 0.42444 0.31549 0.0
C553 C 0.76756 0.52659 0.27045 0.0
C554 C 0.78258 0.48984 0.2531 0.0
H555 H 0.72747 0.5555 0.31693 0.0
H556 H 0.77848 0.55536 0.25791 0.0
C557 C 0.76691 0.45327 0.2701 0.0
C558 C 0.05538 0.73767 0.30201 0.0
C559 C 0.0188 0.72173 0.31862 0.0
H560 H 0.08431 0.77778 0.25609 0.0
C561 C 0.98219 0.7355 0.29979 0.0
H562 H 0.08425 0.7283 0.3158 0.0
C563 C 0.98223 0.76432 0.26535 0.0
C564 C 0.01887 0.78043 0.24906 0.0
H565 H 0.9534 0.72429 0.31192 0.0
H566 H 0.9535 0.77386 0.25139 0.0
C567 C 0.05541 0.76662 0.26796 0.0
C568 C 0.26585 0.95332 0.80597 0.0
C569 C 0.28326 0.98972 0.82135 0.0
H570 H 0.22389 0.92475 0.76186 0.0
C571 C 0.26957 0.02648 0.80274 0.0
H572 H 0.27514 0.92435 0.81961 0.0
C573 C 0.2396 0.02671 0.76946 0.0
C574 C 0.22241 0.9902 0.75402 0.0
H575 H 0.28185 0.05514 0.81398 0.0
H576 H 0.23036 0.05551 0.75539 0.0
C577 C 0.23593 0.95357 0.773 0.0
C578 C 0.47984 0.26836 0.80413 0.0
C579 C 0.51641 0.28393 0.82123 0.0
H580 H 0.45131 0.22791 0.75779 0.0
C581 C 0.55309 0.26886 0.80385 0.0
H582 H 0.451 0.27881 0.81696 0.0
C583 C 0.55328 0.23916 0.77063 0.0
C584 C 0.51678 0.22362 0.75335 0.0
H585 H 0.58196 0.27958 0.81633 0.0
H586 H 0.58226 0.22881 0.75807 0.0
C587 C 0.48002 0.23872 0.77054 0.0
C588 C 0.26709 0.4807 0.7698 0.0
C589 C 0.28465 0.51717 0.75473 0.0
H590 H 0.22471 0.45229 0.81417 0.0
C591 C 0.27177 0.55374 0.77433 0.0
H592 H 0.27585 0.45196 0.75526 0.0
C593 C 0.24207 0.55397 0.80752 0.0
C594 C 0.22425 0.51762 0.82248 0.0
H595 H 0.28412 0.58253 0.76351 0.0
H596 H 0.23324 0.58289 0.8216 0.0
C597 C 0.23733 0.48092 0.80327 0.0
C598 C 0.02637 0.23962 0.80394 0.0
C599 C 0.98972 0.22419 0.82094 0.0
H600 H 0.05512 0.27983 0.75748 0.0
C601 C 0.95312 0.23919 0.80327 0.0
H602 H 0.05516 0.2292 0.81699 0.0
C603 C 0.95309 0.26874 0.76989 0.0
C604 C 0.98966 0.28415 0.75271 0.0
H605 H 0.92419 0.22857 0.81567 0.0
H606 H 0.92415 0.27906 0.75713 0.0
C607 C 0.02635 0.2691 0.77015 0.0
C608 C 0.51434 0.9956 0.98957 0.0
C609 C 0.47399 0.004 1.00192 0.0
H610 H 0.57606 0.98804 1.01048 0.0
C611 C 0.46601 0.01183 0.04707 0.0
H612 H 0.52189 0.98864 0.9555 0.0
C613 C 0.49719 0.01104 0.0788 0.0
C614 C 0.53749 1.00259 0.06645 0.0
H615 H 0.43556 0.01885 0.05799 0.0
H616 H 0.4897 0.01796 0.11291 0.0
C617 C 0.54554 0.99494 1.02131 0.0
C618 C 0.51061 0.51082 0.99386 0.0
C619 C 0.50362 0.47054 1.00738 0.0
H620 H 0.51753 0.57301 1.01304 0.0
C621 C 0.49814 0.46307 0.05307 0.0
H622 H 0.51592 0.51797 0.95933 0.0
C623 C 0.49935 0.49486 0.08415 0.0
C624 C 0.50601 0.53517 0.07049 0.0
H625 H 0.49243 0.4326 0.06488 0.0
H626 H 0.49404 0.4879 0.11874 0.0
C627 C 0.51184 0.54253 1.02488 0.0
C628 C 0.99823 0.48294 0.9948 0.0
C629 C 0.03565 0.50086 1.00567 0.0
H630 H 0.93829 0.46765 1.01525 0.0
C631 C 0.03981 0.51766 0.04855 0.0
H632 H 0.99379 0.46895 0.9627 0.0
C633 C 0.00742 0.51775 0.07874 0.0
C634 C 0.96981 0.50041 0.06765 0.0
H635 H 0.06773 0.53185 0.05891 0.0
H636 H 0.01189 0.53192 0.11073 0.0
C637 C 0.96598 0.48254 1.02523 0.0
C638 C 0.03113 0.00723 1.00279 0.0
C639 C 0.00397 0.03957 1.00885 0.0
H640 H 0.05435 0.95105 1.02719 0.0
C641 C 0.97792 0.03847 0.04603 0.0
H642 H 0.05185 0.00724 0.97494 0.0
C643 C 0.97897 0.00586 0.07607 0.0
C644 C 0.00592 0.97331 0.06974 0.0
H645 H 0.95592 0.06231 0.0515 0.0
H646 H 0.95817 0.00575 0.10384 0.0
C647 C 0.03226 0.97474 1.03282 0.0
C648 C 0.5038 0.4789 0.57507 0.0
C649 C 0.4702 0.50437 0.56805 0.0
H650 H 0.56102 0.4575 0.55126 0.0
C651 C 0.47027 0.52952 0.5301 0.0
H652 H 0.50472 0.45896 0.6036 0.0
C653 C 0.50278 0.52896 0.50005 0.0
C654 C 0.53638 0.50348 0.50707 0.0
H655 H 0.44558 0.55038 0.52386 0.0
H656 H 0.50186 0.54888 0.47151 0.0
C657 C 0.53632 0.47835 0.54502 0.0
C658 C 0.02838 0.5039 0.57383 0.0
C659 C 1.00316 0.47021 0.56653 0.0
H660 H 0.04966 0.56127 0.55031 0.0
C661 C 0.97835 0.47027 0.52833 0.0
H662 H 0.04806 0.50483 0.60256 0.0
C663 C 0.97899 0.50287 0.49833 0.0
C664 C 0.0042 0.53657 0.50564 0.0
H665 H 0.95769 0.44552 0.52185 0.0
H666 H 0.95932 0.50194 0.46958 0.0
C667 C 0.02901 0.53651 0.54384 0.0
C668 C 0.00348 0.97845 0.49962 0.0
C669 C 0.96984 0.00386 0.50673 0.0
H670 H 0.0608 0.95711 0.52329 0.0
C671 C 0.96998 0.02897 0.54468 0.0
H672 H 0.00436 0.95854 0.47107 0.0
C673 C 1.00259 0.02845 0.57465 0.0
C674 C 0.03622 1.00303 0.56756 0.0
H675 H 0.94526 0.04977 0.55099 0.0
H676 H 1.0017 0.04836 0.60319 0.0
C677 C 0.03609 0.97792 0.5296 0.0
C678 C 0.52797 0.00465 0.49917 0.0
C679 C 0.50272 0.97096 0.5064 0.0
H680 H 0.54928 0.06197 0.5228 0.0
C681 C 0.4779 0.97098 0.54457 0.0
H682 H 0.54765 0.00562 0.47046 0.0
C683 C 0.47854 1.00354 0.57462 0.0
C684 C 0.50378 0.03724 0.56739 0.0
H685 H 0.45723 0.94622 0.55099 0.0
H686 H 0.45885 1.00257 0.60333 0.0
C687 C 0.52861 0.03721 0.52922 0.0
C688 C 0.53856 0.18406 0.08465 0.0
C689 C 0.54064 0.18938 0.03827 0.0
H690 H 0.56458 0.15552 0.14223 0.0
C691 C 0.56907 0.16615 1.01428 0.0
H692 H 0.51693 0.20101 0.1043 0.0
C693 C 0.59585 0.14042 1.03583 0.0
C694 C 0.59554 0.13711 0.08213 0.0
H695 H 0.57307 0.16964 0.97886 0.0
H696 H 0.61796 0.12426 1.01595 0.0
C697 C 0.56593 0.1582 0.10645 0.0
C698 C 0.31704 0.5403 0.09276 0.0
C699 C 0.31227 0.53942 0.0463 0.0
H700 H 0.347 0.56808 0.14827 0.0
C701 C 0.33852 0.5632 1.02015 0.0
H702 H 0.29778 0.52214 0.11398 0.0
C703 C 0.36644 0.58912 0.03968 0.0
C704 C 0.36892 0.59235 0.08592 0.0
H705 H 0.33571 0.56451 0.98441 0.0
H706 H 0.38482 0.60804 1.01826 0.0
C707 C 0.34511 0.56668 0.11243 0.0
C708 C 0.96741 0.32498 0.08373 0.0
C709 C 0.96552 0.32002 0.03729 0.0
H710 H 0.94076 0.3525 0.14148 0.0
C711 C 0.93715 0.34341 1.01335 0.0
H712 H 0.98911 0.30807 0.10335 0.0
C713 C 0.90996 0.36859 1.03505 0.0
C714 C 0.90985 0.37116 0.08141 0.0
H715 H 0.93341 0.34035 0.97786 0.0
H716 H 0.88784 0.38483 1.01523 0.0
C717 C 0.93962 0.35023 0.10566 0.0
C718 C 0.17032 0.94284 1.01892 0.0
C719 C 0.19632 0.96728 0.04467 0.0
H720 H 0.12455 0.8975 1.01765 0.0
C721 C 0.19182 0.96662 0.09117 0.0
H722 H 0.17293 0.94121 0.98319 0.0
C723 C 0.16412 0.94007 0.11124 0.0
C724 C 0.14044 0.91396 0.08509 0.0
H725 H 0.2109 0.98523 0.11213 0.0
H726 H 0.16232 0.93898 0.1471 0.0
C727 C 0.14281 0.91677 0.03883 0.0
C728 C 0.59564 0.36739 0.53848 0.0
C729 C 0.59537 0.37031 0.49214 0.0
H730 H 0.57278 0.33872 0.59569 0.0
C731 C 0.56567 0.34925 0.468 0.0
H732 H 0.61776 0.38365 0.55822 0.0
C733 C 0.53825 0.32368 0.49001 0.0
C734 C 0.54039 0.31859 0.53643 0.0
H735 H 0.56428 0.35169 0.4322 0.0
H736 H 0.51657 0.30671 0.47048 0.0
C737 C 0.56879 0.34195 0.56025 0.0
C738 C 0.14015 0.59707 0.53913 0.0
C739 C 0.13714 0.59622 0.49281 0.0
H740 H 0.16893 0.57484 0.59665 0.0
C741 C 0.15818 0.56616 0.4691 0.0
H742 H 0.12395 0.61949 0.55856 0.0
C743 C 0.18376 0.53893 0.49149 0.0
C744 C 0.1889 0.54161 0.53787 0.0
H745 H 0.15568 0.56434 0.43333 0.0
H746 H 0.20067 0.51694 0.47227 0.0
C747 C 0.16563 0.57042 0.56128 0.0
C748 C 0.91026 0.14007 0.53814 0.0
C749 C 0.91052 0.13699 0.49181 0.0
H750 H 0.93315 0.16893 0.59523 0.0
C751 C 0.9402 0.15798 0.46759 0.0
H752 H 0.88815 0.12389 0.55796 0.0
C753 C 0.96764 0.18362 0.48948 0.0
C754 C 0.96553 0.18884 0.53588 0.0
H755 H 0.94157 0.15542 0.4318 0.0
H756 H 0.98931 0.20052 0.46988 0.0
C757 C 0.93712 0.16558 0.5598 0.0
C758 C 0.34844 0.94146 0.46868 0.0
C759 C 0.36958 0.91155 0.49253 0.0
H760 H 0.30579 0.99056 0.47161 0.0
C761 C 0.36659 0.91084 0.53886 0.0
H762 H 0.35092 0.94317 0.4329 0.0
C763 C 0.34103 0.93747 0.56087 0.0
C764 C 0.31766 0.96613 0.53733 0.0
H765 H 0.38287 0.88853 0.55839 0.0
H766 H 0.33777 0.93315 0.59626 0.0
C767 C 0.32278 0.96869 0.49094 0.0
C768 C 0.44765 0.79942 0.98224 0.0
C769 C 0.47019 0.81052 1.02024 0.0
H770 H 0.40385 0.81774 0.93351 0.0
C771 C 0.47067 0.85164 1.03286 0.0
H772 H 0.44587 0.7682 0.97136 0.0
C773 C 0.44505 0.87952 1.01208 0.0
C774 C 0.4199 0.86717 0.97711 0.0
H775 H 0.48853 0.86176 0.06088 0.0
H776 H 0.44359 0.91032 1.02457 0.0
C777 C 0.42303 0.82768 0.96061 0.0
C778 C 0.66511 0.43764 0.06009 0.0
C779 C 0.68785 0.46648 1.03618 0.0
H780 H 0.624 0.38816 0.05826 0.0
C781 C 0.68243 0.46869 0.98981 0.0
H782 H 0.6687 0.43358 0.09549 0.0
C783 C 0.65698 0.44106 0.96794 0.0
C784 C 0.63641 0.41104 0.99215 0.0
H785 H 0.69901 0.49063 0.97023 0.0
H786 H 0.65419 0.44257 0.93217 0.0
C787 C 0.6398 0.41057 0.03846 0.0
C788 C 0.06021 0.70818 0.98207 0.0
C789 C 0.03737 0.69717 1.0199 0.0
H790 H 0.10415 0.68954 0.93363 0.0
C791 C 0.03643 0.65606 1.0324 0.0
H792 H 0.06234 0.73942 0.97132 0.0
C793 C 0.06193 0.62808 1.01175 0.0
C794 C 0.08735 0.64018 0.97699 0.0
H795 H 0.01839 0.64603 0.06032 0.0
H796 H 0.06322 0.5974 1.0243 0.0
C797 C 0.08469 0.67973 0.96053 0.0
C798 C 0.84057 0.07095 0.05973 0.0
C799 C 0.81761 0.04232 1.03577 0.0
H800 H 0.88194 0.12023 0.05799 0.0
C801 C 0.82289 0.04028 0.98938 0.0
H802 H 0.83713 0.07488 0.09516 0.0
C803 C 0.8484 0.06788 0.96755 0.0
C804 C 0.86917 0.09771 0.99183 0.0
H805 H 0.80616 0.01849 0.96975 0.0
H806 H 0.85105 0.06651 0.93177 0.0
C807 C 0.86594 0.098 0.03814 0.0
C808 C 0.43569 0.66644 0.51376 0.0
C809 C 0.4646 0.68953 0.53715 0.0
H810 H 0.38669 0.62481 0.51647 0.0
C811 C 0.46741 0.68425 0.58351 0.0
H812 H 0.43119 0.66989 0.47841 0.0
C813 C 0.44029 0.65861 0.60589 0.0
C814 C 0.4102 0.63766 0.58221 0.0
H815 H 0.48945 0.70106 0.60272 0.0
H816 H 0.44226 0.65596 0.64164 0.0
C817 C 0.40915 0.64091 0.53589 0.0
C818 C 0.82295 0.46824 0.58357 0.0
C819 C 0.81769 0.46606 0.53717 0.0
H820 H 0.85128 0.44226 0.64128 0.0
C821 C 0.84107 0.43767 0.51328 0.0
H822 H 0.80597 0.4899 0.60315 0.0
C823 C 0.86674 0.4109 0.53496 0.0
C824 C 0.86983 0.41119 0.58129 0.0
H825 H 0.83772 0.43366 0.47786 0.0
H826 H 0.88301 0.38879 0.51516 0.0
C827 C 0.84872 0.44086 0.60548 0.0
C828 C 0.03921 0.8233 0.58305 0.0
C829 C 0.04199 0.81804 0.53669 0.0
H830 H 0.06442 0.85156 0.64118 0.0
C831 C 0.07091 0.84111 0.5133 0.0
H832 H 0.01717 0.80651 0.60226 0.0
C833 C 0.09748 0.86661 0.53543 0.0
C834 C 0.09646 0.86984 0.58174 0.0
H835 H 0.0754 0.83769 0.47795 0.0
H836 H 0.11995 0.88269 0.516 0.0
C837 C 0.06637 0.84892 0.60543 0.0
C838 C 0.63989 0.09695 0.53571 0.0
C839 C 0.63686 0.0966 0.58205 0.0
H840 H 0.66868 0.07411 0.47854 0.0
C841 C 0.65793 0.06684 0.60619 0.0
H842 H 0.62366 0.11914 0.51596 0.0
C843 C 0.68355 0.03939 0.58421 0.0
C844 C 0.68868 0.04156 0.5378 0.0
H845 H 0.65542 0.0654 0.64198 0.0
H846 H 0.7005 0.01764 0.60375 0.0
C847 C 0.66539 0.07008 0.51397 0.0
C848 C 0.71802 0.27968 0.1659 0.0
C849 C 0.75714 0.29659 0.16453 0.0
H850 H 0.68233 0.22532 0.16411 0.0
C851 C 0.79083 0.27071 0.16783 0.0
H852 H 0.69161 0.2991 0.16338 0.0
C853 C 0.78552 0.22859 0.16779 0.0
C854 C 0.74647 0.21164 0.16518 0.0
H855 H 0.82127 0.28289 0.16638 0.0
H856 H 0.81198 0.20913 0.16666 0.0
C857 C 0.7127 0.23755 0.16658 0.0
C858 C 0.22787 0.72035 0.17026 0.0
C859 C 0.21204 0.75989 0.16775 0.0
H860 H 0.28128 0.68318 0.1684 0.0
C861 C 0.23865 0.79299 0.17008 0.0
H862 H 0.20776 0.69446 0.16812 0.0
C863 C 0.28056 0.78654 0.16949 0.0
C864 C 0.29637 0.74697 0.16746 0.0
H865 H 0.22713 0.82369 0.16752 0.0
H866 H 0.30064 0.8124 0.16676 0.0
C867 C 0.26979 0.71391 0.17057 0.0
C868 C 0.71363 0.26995 0.40524 0.0
C869 C 0.74722 0.29596 0.40749 0.0
H870 H 0.69286 0.20831 0.40755 0.0
C871 C 0.7864 0.27916 0.40531 0.0
H872 H 0.68315 0.28205 0.40732 0.0
C873 C 0.79196 0.23705 0.40499 0.0
C874 C 0.75839 0.21104 0.40753 0.0
H875 H 0.81274 0.29869 0.40703 0.0
H876 H 0.82245 0.22496 0.40688 0.0
C877 C 0.71919 0.22784 0.4056 0.0
C878 C 0.27913 0.72052 0.40503 0.0
C879 C 0.29572 0.75976 0.40731 0.0
H880 H 0.22515 0.68432 0.40658 0.0
C881 C 0.26958 0.79334 0.40523 0.0
H882 H 0.29878 0.69421 0.40668 0.0
C883 C 0.22754 0.78768 0.40568 0.0
C884 C 0.21097 0.74841 0.4075 0.0
H885 H 0.28155 0.82385 0.40744 0.0
H886 H 0.20791 0.81397 0.40781 0.0
C887 C 0.23709 0.71486 0.40476 0.0
C888 C 0.22052 0.78056 0.90851 0.0
C889 C 0.2602 0.79607 0.91019 0.0
H890 H 0.18293 0.72754 0.91072 0.0
C891 C 0.29301 0.76905 0.90752 0.0
H892 H 0.19479 0.80091 0.91052 0.0
C893 C 0.28623 0.72716 0.90807 0.0
C894 C 0.24658 0.71165 0.91064 0.0
H895 H 0.32384 0.7802 0.9092 0.0
H896 H 0.312 0.70682 0.9097 0.0
C897 C 0.21373 0.73866 0.90839 0.0
C898 C 0.77785 0.28772 0.90438 0.0
C899 C 0.79495 0.24866 0.90694 0.0
H900 H 0.72344 0.32339 0.9059 0.0
C901 C 0.76922 0.21481 0.90531 0.0
H902 H 0.79716 0.31424 0.90561 0.0
C903 C 0.72711 0.22005 0.90592 0.0
C904 C 0.71003 0.25916 0.90749 0.0
H905 H 0.78156 0.18443 0.90769 0.0
H906 H 0.70783 0.19357 0.90831 0.0
C907 C 0.73574 0.29294 0.90432 0.0
C908 C 0.21984 0.72822 0.67009 0.0
C909 C 0.25902 0.71141 0.66798 0.0
H910 H 0.18381 0.78242 0.66838 0.0
C911 C 0.29262 0.73741 0.67022 0.0
H912 H 0.19351 0.7087 0.66837 0.0
C913 C 0.28707 0.77952 0.66977 0.0
C914 C 0.24788 0.79633 0.66776 0.0
H915 H 0.32309 0.7253 0.66817 0.0
H916 H 0.3134 0.79904 0.6678 0.0
C917 C 0.21429 0.77033 0.67034 0.0
C918 C 0.76977 0.29305 0.66785 0.0
C919 C 0.79574 0.25937 0.66537 0.0
H920 H 0.70818 0.31401 0.66591 0.0
C921 C 0.77894 0.22019 0.6674 0.0
H922 H 0.78186 0.32352 0.66587 0.0
C923 C 0.73686 0.21474 0.66789 0.0
C924 C 0.71087 0.24842 0.66565 0.0
H925 H 0.79844 0.19378 0.66551 0.0
H926 H 0.72476 0.18427 0.66594 0.0
C927 C 0.72768 0.2876 0.66764 0.0
loop_
_geom_bond_atom_site_label_1
_geom_bond_atom_site_label_2
_geom_bond_distance
_geom_bond_site_symmetry_2
_ccdc_geom_bond_type
Co0 N4 2.148 . S
Co0 N10 2.128 . S
Co0 N20 2.194 . S
Co0 O25 2.351 . S
Co0 O26 2.155 . S
Co0 O27 2.096 . S
C1 N4 1.301 . S
C1 N5 1.334 . S
C1 H6 0.930 . S
C2 C3 1.333 1_545 S
C2 N4 1.317 . S
C2 H7 0.930 . S
C3 C2 1.333 1_565 S
C3 N5 1.349 1_565 S
C3 H29 0.931 . S
N4 Co0 2.148 . S
N4 C1 1.301 . S
N4 C2 1.317 . S
N5 C1 1.334 . S
N5 C3 1.349 1_545 S
H6 C1 0.930 . S
H7 C2 0.930 . S
C8 O9 1.224 . S
C8 O27 1.247 . S
O9 C8 1.224 . S
N10 Co0 2.128 . S
N10 C11 1.355 . S
N10 C13 1.311 . S
C11 N10 1.355 . S
C11 C12 1.363 . S
C11 H23 0.929 . S
C12 C11 1.363 . S
C12 N14 1.375 . S
C12 H30 0.931 . S
C13 N10 1.311 . S
C13 N14 1.347 . S
C13 H24 0.929 . S
N14 C12 1.375 . S
N14 C13 1.347 . S
C15 C18 1.365 . S
C15 N20 1.328 . S
C15 H21 0.929 . S
C16 C17 1.362 . S
C16 C19 1.378 . S
C16 H31 0.929 . S
C17 C16 1.362 . S
C17 C18 1.366 . S
C18 C15 1.365 . S
C18 C17 1.366 . S
C18 H32 0.930 1_554 S
C19 C16 1.378 . S
C19 N20 1.315 . S
C19 H22 0.930 . S
N20 Co0 2.194 . S
N20 C15 1.328 . S
N20 C19 1.315 . S
H21 C15 0.929 . S
H22 C19 0.930 . S
H23 C11 0.929 . S
H24 C13 0.929 . S
O25 Co0 2.351 . S
O25 C28 1.244 . S
O26 Co0 2.155 . S
O26 C28 1.240 . S
O27 Co0 2.096 . S
O27 C8 1.247 . S
C28 O25 1.244 . S
C28 O26 1.240 . S
H29 C3 0.931 . S
H30 C12 0.931 . S
H31 C16 0.929 . S
H32 C18 0.930 1_556 S
Co33 N37 2.148 . S
Co33 N43 2.128 . S
Co33 N53 2.194 . S
Co33 O58 2.351 . S
Co33 O59 2.155 . S
Co33 O60 2.096 . S
C34 N37 1.301 . S
C34 N38 1.328 . S
C34 H39 0.930 . S
C35 C36 1.333 . S
C35 N37 1.317 . S
C35 H40 0.930 . S
C36 C35 1.333 . S
C36 N38 1.350 . S
C36 H62 0.931 . S
N37 Co33 2.148 . S
N37 C34 1.301 . S
N37 C35 1.317 . S
N38 C34 1.328 . S
N38 C36 1.350 . S
H39 C34 0.930 . S
H40 C35 0.930 . S
C41 O42 1.224 . S
C41 O60 1.247 . S
O42 C41 1.224 . S
N43 Co33 2.128 . S
N43 C44 1.355 . S
N43 C46 1.311 . S
C44 N43 1.355 . S
C44 C45 1.363 . S
C44 H56 0.929 . S
C45 C44 1.363 . S
C45 N47 1.375 . S
C45 H63 0.931 . S
C46 N43 1.311 . S
C46 N47 1.347 . S
C46 H57 0.929 . S
N47 C45 1.375 . S
N47 C46 1.347 . S
C48 C51 1.365 . S
C48 N53 1.328 . S
C48 H54 0.929 . S
C49 C50 1.362 . S
C49 C52 1.378 . S
C49 H64 0.929 . S
C50 C49 1.362 . S
C50 C51 1.366 . S
C51 C48 1.365 . S
C51 C50 1.366 . S
C51 H65 0.930 1_554 S
C52 C49 1.378 . S
C52 N53 1.315 . S
C52 H55 0.930 . S
N53 Co33 2.194 . S
N53 C48 1.328 . S
N53 C52 1.315 . S
H54 C48 0.929 . S
H55 C52 0.930 . S
H56 C44 0.929 . S
H57 C46 0.929 . S
O58 Co33 2.351 . S
O58 C61 1.244 . S
O59 Co33 2.155 . S
O59 C61 1.240 . S
O60 Co33 2.096 . S
O60 C41 1.247 . S
C61 O58 1.244 . S
C61 O59 1.240 . S
H62 C36 0.931 . S
H63 C45 0.931 . S
H64 C49 0.929 . S
H65 C51 0.930 1_556 S
Co66 N70 2.148 . S
Co66 N76 2.128 . S
Co66 N86 2.194 . S
Co66 O91 2.351 . S
Co66 O92 2.155 . S
Co66 O93 2.096 . S
C67 N70 1.301 . S
C67 N71 1.328 . S
C67 H72 0.930 . S
C68 C69 1.333 . S
C68 N70 1.317 . S
C68 H73 0.930 . S
C69 C68 1.333 . S
C69 N71 1.350 . S
C69 H95 0.931 . S
N70 Co66 2.148 . S
N70 C67 1.301 . S
N70 C68 1.317 . S
N71 C67 1.328 . S
N71 C69 1.350 . S
H72 C67 0.930 . S
H73 C68 0.930 . S
C74 O75 1.224 . S
C74 O93 1.247 . S
O75 C74 1.224 . S
N76 Co66 2.128 . S
N76 C77 1.355 . S
N76 C79 1.311 . S
C77 N76 1.355 . S
C77 C78 1.363 . S
C77 H89 0.929 . S
C78 C77 1.363 . S
C78 N80 1.375 . S
C78 H96 0.931 . S
C79 N76 1.311 . S
C79 N80 1.347 . S
C79 H90 0.929 . S
N80 C78 1.375 . S
N80 C79 1.347 . S
C81 C84 1.365 . S
C81 N86 1.328 . S
C81 H87 0.929 . S
C82 C83 1.362 . S
C82 C85 1.378 . S
C82 H97 0.929 . S
C83 C82 1.362 . S
C83 C84 1.366 . S
C84 C81 1.365 . S
C84 C83 1.366 . S
C84 H98 0.930 1_554 S
C85 C82 1.378 . S
C85 N86 1.315 . S
C85 H88 0.930 . S
N86 Co66 2.194 . S
N86 C81 1.328 . S
N86 C85 1.315 . S
H87 C81 0.929 . S
H88 C85 0.930 . S
H89 C77 0.929 . S
H90 C79 0.929 . S
O91 Co66 2.351 . S
O91 C94 1.244 . S
O92 Co66 2.155 . S
O92 C94 1.240 . S
O93 Co66 2.096 . S
O93 C74 1.247 . S
C94 O91 1.244 . S
C94 O92 1.240 . S
H95 C69 0.931 . S
H96 C78 0.931 . S
H97 C82 0.929 . S
H98 C84 0.930 1_556 S
Co99 N103 2.148 . S
Co99 N109 2.128 . S
Co99 N119 2.194 . S
Co99 O124 2.351 . S
Co99 O125 2.155 . S
Co99 O126 2.096 . S
C100 N103 1.301 . S
C100 N104 1.334 . S
C100 H105 0.930 . S
C101 C102 1.333 1_455 S
C101 N103 1.317 . S
C101 H106 0.930 . S
C102 C101 1.333 1_655 S
C102 N104 1.349 1_655 S
C102 H128 0.931 . S
N103 Co99 2.148 . S
N103 C100 1.301 . S
N103 C101 1.317 . S
N104 C100 1.334 . S
N104 C102 1.349 1_455 S
H105 C100 0.930 . S
H106 C101 0.930 . S
C107 O108 1.224 . S
C107 O126 1.247 . S
O108 C107 1.224 . S
N109 Co99 2.128 . S
N109 C110 1.355 . S
N109 C112 1.311 . S
C110 N109 1.355 . S
C110 C111 1.363 . S
C110 H122 0.929 . S
C111 C110 1.363 . S
C111 N113 1.375 . S
C111 H129 0.931 . S
C112 N109 1.311 . S
C112 N113 1.347 . S
C112 H123 0.929 . S
N113 C111 1.375 . S
N113 C112 1.347 . S
C114 C117 1.365 . S
C114 N119 1.328 . S
C114 H120 0.929 . S
C115 C116 1.362 . S
C115 C118 1.378 . S
C115 H130 0.929 . S
C116 C115 1.362 . S
C116 C117 1.366 . S
C117 C114 1.365 . S
C117 C116 1.366 . S
C117 H131 0.930 1_554 S
C118 C115 1.378 . S
C118 N119 1.315 . S
C118 H121 0.930 . S
N119 Co99 2.194 . S
N119 C114 1.328 . S
N119 C118 1.315 . S
H120 C114 0.929 . S
H121 C118 0.930 . S
H122 C110 0.929 . S
H123 C112 0.929 . S
O124 Co99 2.351 . S
O124 C127 1.244 . S
O125 Co99 2.155 . S
O125 C127 1.240 . S
O126 Co99 2.096 . S
O126 C107 1.247 . S
C127 O124 1.244 . S
C127 O125 1.240 . S
H128 C102 0.931 . S
H129 C111 0.931 . S
H130 C115 0.929 . S
H131 C117 0.930 1_556 S
Co132 N136 2.148 . S
Co132 N142 2.128 . S
Co132 N152 2.194 . S
Co132 O157 2.351 . S
Co132 O158 2.155 . S
Co132 O159 2.096 . S
C133 N136 1.301 . S
C133 N137 1.328 . S
C133 H138 0.930 . S
C134 C135 1.333 . S
C134 N136 1.317 . S
C134 H139 0.930 . S
C135 C134 1.333 . S
C135 N137 1.350 . S
C135 H161 0.931 . S
N136 Co132 2.148 . S
N136 C133 1.301 . S
N136 C134 1.317 . S
N137 C133 1.328 . S
N137 C135 1.350 . S
H138 C133 0.930 . S
H139 C134 0.930 . S
C140 O141 1.224 . S
C140 O159 1.247 . S
O141 C140 1.224 . S
N142 Co132 2.128 . S
N142 C143 1.355 . S
N142 C145 1.311 . S
C143 N142 1.355 . S
C143 C144 1.363 . S
C143 H155 0.929 . S
C144 C143 1.363 . S
C144 N146 1.375 . S
C144 H162 0.931 . S
C145 N142 1.311 . S
C145 N146 1.347 . S
C145 H156 0.929 . S
N146 C144 1.375 . S
N146 C145 1.347 . S
C147 C150 1.365 . S
C147 N152 1.328 . S
C147 H153 0.929 . S
C148 C149 1.362 . S
C148 C151 1.378 . S
C148 H163 0.929 . S
C149 C148 1.362 . S
C149 C150 1.366 . S
C150 C147 1.365 . S
C150 C149 1.366 . S
C150 H164 0.930 . S
C151 C148 1.378 . S
C151 N152 1.315 . S
C151 H154 0.930 . S
N152 Co132 2.194 . S
N152 C147 1.328 . S
N152 C151 1.315 . S
H153 C147 0.929 . S
H154 C151 0.930 . S
H155 C143 0.929 . S
H156 C145 0.929 . S
O157 Co132 2.351 . S
O157 C160 1.244 . S
O158 Co132 2.155 . S
O158 C160 1.240 . S
O159 Co132 2.096 . S
O159 C140 1.247 . S
C160 O157 1.244 . S
C160 O158 1.240 . S
H161 C135 0.931 . S
H162 C144 0.931 . S
H163 C148 0.929 . S
H164 C150 0.930 . S
Co165 N169 2.148 . S
Co165 N175 2.128 . S
Co165 N185 2.194 . S
Co165 O190 2.351 . S
Co165 O191 2.155 . S
Co165 O192 2.096 . S
C166 N169 1.301 . S
C166 N170 1.334 . S
C166 H171 0.930 . S
C167 C168 1.333 1_455 S
C167 N169 1.317 . S
C167 H172 0.930 . S
C168 C167 1.333 1_655 S
C168 N170 1.349 1_655 S
C168 H194 0.931 . S
N169 Co165 2.148 . S
N169 C166 1.301 . S
N169 C167 1.317 . S
N170 C166 1.334 . S
N170 C168 1.349 1_455 S
H171 C166 0.930 . S
H172 C167 0.930 . S
C173 O174 1.224 . S
C173 O192 1.247 . S
O174 C173 1.224 . S
N175 Co165 2.128 . S
N175 C176 1.355 . S
N175 C178 1.311 . S
C176 N175 1.355 . S
C176 C177 1.363 . S
C176 H188 0.929 . S
C177 C176 1.363 . S
C177 N179 1.375 . S
C177 H195 0.931 . S
C178 N175 1.311 . S
C178 N179 1.347 . S
C178 H189 0.929 . S
N179 C177 1.375 . S
N179 C178 1.347 . S
C180 C183 1.365 . S
C180 N185 1.328 . S
C180 H186 0.929 . S
C181 C182 1.362 . S
C181 C184 1.378 . S
C181 H196 0.929 . S
C182 C181 1.362 . S
C182 C183 1.366 . S
C183 C180 1.365 . S
C183 C182 1.366 . S
C183 H197 0.930 . S
C184 C181 1.378 . S
C184 N185 1.315 . S
C184 H187 0.930 . S
N185 Co165 2.194 . S
N185 C180 1.328 . S
N185 C184 1.315 . S
H186 C180 0.929 . S
H187 C184 0.930 . S
H188 C176 0.929 . S
H189 C178 0.929 . S
O190 Co165 2.351 . S
O190 C193 1.244 . S
O191 Co165 2.155 . S
O191 C193 1.240 . S
O192 Co165 2.096 . S
O192 C173 1.247 . S
C193 O190 1.244 . S
C193 O191 1.240 . S
H194 C168 0.931 . S
H195 C177 0.931 . S
H196 C181 0.929 . S
H197 C183 0.930 . S
Co198 N202 2.148 . S
Co198 N208 2.128 . S
Co198 N218 2.194 . S
Co198 O223 2.351 . S
Co198 O224 2.155 . S
Co198 O225 2.096 . S
C199 N202 1.301 . S
C199 N203 1.334 . S
C199 H204 0.930 . S
C200 C201 1.333 1_545 S
C200 N202 1.317 . S
C200 H205 0.930 . S
C201 C200 1.333 1_565 S
C201 N203 1.349 1_565 S
C201 H227 0.931 . S
N202 Co198 2.148 . S
N202 C199 1.301 . S
N202 C200 1.317 . S
N203 C199 1.334 . S
N203 C201 1.349 1_545 S
H204 C199 0.930 . S
H205 C200 0.930 . S
C206 O207 1.224 . S
C206 O225 1.247 . S
O207 C206 1.224 . S
N208 Co198 2.128 . S
N208 C209 1.355 . S
N208 C211 1.311 . S
C209 N208 1.355 . S
C209 C210 1.363 . S
C209 H221 0.929 . S
C210 C209 1.363 . S
C210 N212 1.375 . S
C210 H228 0.931 . S
C211 N208 1.311 . S
C211 N212 1.347 . S
C211 H222 0.929 . S
N212 C210 1.375 . S
N212 C211 1.347 . S
C213 C216 1.365 . S
C213 N218 1.328 . S
C213 H219 0.929 . S
C214 C215 1.362 . S
C214 C217 1.378 . S
C214 H229 0.929 . S
C215 C214 1.362 . S
C215 C216 1.366 . S
C216 C213 1.365 . S
C216 C215 1.366 . S
C216 H230 0.930 . S
C217 C214 1.378 . S
C217 N218 1.315 . S
C217 H220 0.930 . S
N218 Co198 2.194 . S
N218 C213 1.328 . S
N218 C217 1.315 . S
H219 C213 0.929 . S
H220 C217 0.930 . S
H221 C209 0.929 . S
H222 C211 0.929 . S
O223 Co198 2.351 . S
O223 C226 1.244 . S
O224 Co198 2.155 . S
O224 C226 1.240 . S
O225 Co198 2.096 . S
O225 C206 1.247 . S
C226 O223 1.244 . S
C226 O224 1.240 . S
H227 C201 0.931 . S
H228 C210 0.931 . S
H229 C214 0.929 . S
H230 C216 0.930 . S
Co231 N235 2.148 . S
Co231 N241 2.128 . S
Co231 N251 2.194 . S
Co231 O256 2.351 . S
Co231 O257 2.155 . S
Co231 O258 2.096 . S
C232 N235 1.301 . S
C232 N236 1.328 . S
C232 H237 0.930 . S
C233 C234 1.333 . S
C233 N235 1.317 . S
C233 H238 0.930 . S
C234 C233 1.333 . S
C234 N236 1.350 . S
C234 H260 0.931 . S
N235 Co231 2.148 . S
N235 C232 1.301 . S
N235 C233 1.317 . S
N236 C232 1.328 . S
N236 C234 1.350 . S
H237 C232 0.930 . S
H238 C233 0.930 . S
C239 O240 1.224 . S
C239 O258 1.247 . S
O240 C239 1.224 . S
N241 Co231 2.128 . S
N241 C242 1.355 . S
N241 C244 1.311 . S
C242 N241 1.355 . S
C242 C243 1.363 . S
C242 H254 0.929 . S
C243 C242 1.363 . S
C243 N245 1.375 . S
C243 H261 0.931 . S
C244 N241 1.311 . S
C244 N245 1.347 . S
C244 H255 0.929 . S
N245 C243 1.375 . S
N245 C244 1.347 . S
C246 C249 1.365 . S
C246 N251 1.328 . S
C246 H252 0.929 . S
C247 C248 1.362 . S
C247 C250 1.378 . S
C247 H262 0.929 . S
C248 C247 1.362 . S
C248 C249 1.366 . S
C249 C246 1.365 . S
C249 C248 1.366 . S
C249 H263 0.930 . S
C250 C247 1.378 . S
C250 N251 1.315 . S
C250 H253 0.930 . S
N251 Co231 2.194 . S
N251 C246 1.328 . S
N251 C250 1.315 . S
H252 C246 0.929 . S
H253 C250 0.930 . S
H254 C242 0.929 . S
H255 C244 0.929 . S
O256 Co231 2.351 . S
O256 C259 1.244 . S
O257 Co231 2.155 . S
O257 C259 1.240 . S
O258 Co231 2.096 . S
O258 C239 1.247 . S
C259 O256 1.244 . S
C259 O257 1.240 . S
H260 C234 0.931 . S
H261 C243 0.931 . S
H262 C247 0.929 . S
H263 C249 0.930 . S
Co264 N268 2.148 . S
Co264 N274 2.128 . S
Co264 N284 2.194 . S
Co264 O289 2.351 . S
Co264 O290 2.155 . S
Co264 O291 2.096 . S
C265 N268 1.301 . S
C265 N269 1.334 . S
C265 H270 0.930 . S
C266 C267 1.333 1_565 S
C266 N268 1.317 . S
C266 H271 0.930 . S
C267 C266 1.333 1_545 S
C267 N269 1.349 1_545 S
C267 H293 0.931 . S
N268 Co264 2.148 . S
N268 C265 1.301 . S
N268 C266 1.317 . S
N269 C265 1.334 . S
N269 C267 1.349 1_565 S
H270 C265 0.930 . S
H271 C266 0.930 . S
C272 O273 1.224 . S
C272 O291 1.247 . S
O273 C272 1.224 . S
N274 Co264 2.128 . S
N274 C275 1.355 . S
N274 C277 1.311 . S
C275 N274 1.355 . S
C275 C276 1.363 . S
C275 H287 0.929 . S
C276 C275 1.363 . S
C276 N278 1.375 . S
C276 H294 0.931 . S
C277 N274 1.311 . S
C277 N278 1.347 . S
C277 H288 0.929 . S
N278 C276 1.375 . S
N278 C277 1.347 . S
C279 C282 1.365 . S
C279 N284 1.328 . S
C279 H285 0.929 . S
C280 C281 1.362 . S
C280 C283 1.378 . S
C280 H295 0.929 . S
C281 C280 1.362 . S
C281 C282 1.366 . S
C282 C279 1.365 . S
C282 C281 1.366 . S
C282 H296 0.930 1_556 S
C283 C280 1.378 . S
C283 N284 1.315 . S
C283 H286 0.930 . S
N284 Co264 2.194 . S
N284 C279 1.328 . S
N284 C283 1.315 . S
H285 C279 0.929 . S
H286 C283 0.930 . S
H287 C275 0.929 . S
H288 C277 0.929 . S
O289 Co264 2.351 . S
O289 C292 1.244 . S
O290 Co264 2.155 . S
O290 C292 1.240 . S
O291 Co264 2.096 . S
O291 C272 1.247 . S
C292 O289 1.244 . S
C292 O290 1.240 . S
H293 C267 0.931 . S
H294 C276 0.931 . S
H295 C280 0.929 . S
H296 C282 0.930 1_554 S
Co297 N301 2.148 . S
Co297 N307 2.128 . S
Co297 N317 2.194 . S
Co297 O322 2.351 . S
Co297 O323 2.155 . S
Co297 O324 2.096 . S
C298 N301 1.301 . S
C298 N302 1.328 . S
C298 H303 0.930 . S
C299 C300 1.333 . S
C299 N301 1.317 . S
C299 H304 0.930 . S
C300 C299 1.333 . S
C300 N302 1.350 . S
C300 H326 0.931 . S
N301 Co297 2.148 . S
N301 C298 1.301 . S
N301 C299 1.317 . S
N302 C298 1.328 . S
N302 C300 1.350 . S
H303 C298 0.930 . S
H304 C299 0.930 . S
C305 O306 1.224 . S
C305 O324 1.247 . S
O306 C305 1.224 . S
N307 Co297 2.128 . S
N307 C308 1.355 . S
N307 C310 1.311 . S
C308 N307 1.355 . S
C308 C309 1.363 . S
C308 H320 0.929 . S
C309 C308 1.363 . S
C309 N311 1.375 . S
C309 H327 0.931 . S
C310 N307 1.311 . S
C310 N311 1.347 . S
C310 H321 0.929 . S
N311 C309 1.375 . S
N311 C310 1.347 . S
C312 C315 1.365 . S
C312 N317 1.328 . S
C312 H318 0.929 . S
C313 C314 1.362 . S
C313 C316 1.378 . S
C313 H328 0.929 . S
C314 C313 1.362 . S
C314 C315 1.366 . S
C315 C312 1.365 . S
C315 C314 1.366 . S
C315 H329 0.930 1_556 S
C316 C313 1.378 . S
C316 N317 1.315 . S
C316 H319 0.930 . S
N317 Co297 2.194 . S
N317 C312 1.328 . S
N317 C316 1.315 . S
H318 C312 0.929 . S
H319 C316 0.930 . S
H320 C308 0.929 . S
H321 C310 0.929 . S
O322 Co297 2.351 . S
O322 C325 1.244 . S
O323 Co297 2.155 . S
O323 C325 1.240 . S
O324 Co297 2.096 . S
O324 C305 1.247 . S
C325 O322 1.244 . S
C325 O323 1.240 . S
H326 C300 0.931 . S
H327 C309 0.931 . S
H328 C313 0.929 . S
H329 C315 0.930 1_554 S
Co330 N334 2.148 . S
Co330 N340 2.128 . S
Co330 N350 2.194 . S
Co330 O355 2.351 . S
Co330 O356 2.155 . S
Co330 O357 2.096 . S
C331 N334 1.301 . S
C331 N335 1.328 . S
C331 H336 0.930 . S
C332 C333 1.333 . S
C332 N334 1.317 . S
C332 H337 0.930 . S
C333 C332 1.333 . S
C333 N335 1.350 . S
C333 H359 0.931 . S
N334 Co330 2.148 . S
N334 C331 1.301 . S
N334 C332 1.317 . S
N335 C331 1.328 . S
N335 C333 1.350 . S
H336 C331 0.930 . S
H337 C332 0.930 . S
C338 O339 1.224 . S
C338 O357 1.247 . S
O339 C338 1.224 . S
N340 Co330 2.128 . S
N340 C341 1.355 . S
N340 C343 1.311 . S
C341 N340 1.355 . S
C341 C342 1.363 . S
C341 H353 0.929 . S
C342 C341 1.363 . S
C342 N344 1.375 . S
C342 H360 0.931 . S
C343 N340 1.311 . S
C343 N344 1.347 . S
C343 H354 0.929 . S
N344 C342 1.375 . S
N344 C343 1.347 . S
C345 C348 1.365 . S
C345 N350 1.328 . S
C345 H351 0.929 . S
C346 C347 1.362 . S
C346 C349 1.378 . S
C346 H361 0.929 . S
C347 C346 1.362 . S
C347 C348 1.366 . S
C348 C345 1.365 . S
C348 C347 1.366 . S
C348 H362 0.930 1_556 S
C349 C346 1.378 . S
C349 N350 1.315 . S
C349 H352 0.930 . S
N350 Co330 2.194 . S
N350 C345 1.328 . S
N350 C349 1.315 . S
H351 C345 0.929 . S
H352 C349 0.930 . S
H353 C341 0.929 . S
H354 C343 0.929 . S
O355 Co330 2.351 . S
O355 C358 1.244 . S
O356 Co330 2.155 . S
O356 C358 1.240 . S
O357 Co330 2.096 . S
O357 C338 1.247 . S
C358 O355 1.244 . S
C358 O356 1.240 . S
H359 C333 0.931 . S
H360 C342 0.931 . S
H361 C346 0.929 . S
H362 C348 0.930 1_554 S
Co363 N367 2.148 . S
Co363 N373 2.128 . S
Co363 N383 2.194 . S
Co363 O388 2.351 . S
Co363 O389 2.155 . S
Co363 O390 2.096 . S
C364 N367 1.301 . S
C364 N368 1.334 . S
C364 H369 0.930 . S
C365 C366 1.333 1_655 S
C365 N367 1.317 . S
C365 H370 0.930 . S
C366 C365 1.333 1_455 S
C366 N368 1.349 1_455 S
C366 H392 0.931 . S
N367 Co363 2.148 . S
N367 C364 1.301 . S
N367 C365 1.317 . S
N368 C364 1.334 . S
N368 C366 1.349 1_655 S
H369 C364 0.930 . S
H370 C365 0.930 . S
C371 O372 1.224 . S
C371 O390 1.247 . S
O372 C371 1.224 . S
N373 Co363 2.128 . S
N373 C374 1.355 . S
N373 C376 1.311 . S
C374 N373 1.355 . S
C374 C375 1.363 . S
C374 H386 0.929 . S
C375 C374 1.363 . S
C375 N377 1.375 . S
C375 H393 0.931 . S
C376 N373 1.311 . S
C376 N377 1.347 . S
C376 H387 0.929 . S
N377 C375 1.375 . S
N377 C376 1.347 . S
C378 C381 1.365 . S
C378 N383 1.328 . S
C378 H384 0.929 . S
C379 C380 1.362 . S
C379 C382 1.378 . S
C379 H394 0.929 . S
C380 C379 1.362 . S
C380 C381 1.366 . S
C381 C378 1.365 . S
C381 C380 1.366 . S
C381 H395 0.930 1_556 S
C382 C379 1.378 . S
C382 N383 1.315 . S
C382 H385 0.930 . S
N383 Co363 2.194 . S
N383 C378 1.328 . S
N383 C382 1.315 . S
H384 C378 0.929 . S
H385 C382 0.930 . S
H386 C374 0.929 . S
H387 C376 0.929 . S
O388 Co363 2.351 . S
O388 C391 1.244 . S
O389 Co363 2.155 . S
O389 C391 1.240 . S
O390 Co363 2.096 . S
O390 C371 1.247 . S
C391 O388 1.244 . S
C391 O389 1.240 . S
H392 C366 0.931 . S
H393 C375 0.931 . S
H394 C379 0.929 . S
H395 C381 0.930 1_554 S
Co396 N400 2.148 . S
Co396 N406 2.128 . S
Co396 N416 2.194 . S
Co396 O421 2.351 . S
Co396 O422 2.155 . S
Co396 O423 2.096 . S
C397 N400 1.301 . S
C397 N401 1.328 . S
C397 H402 0.930 . S
C398 C399 1.333 . S
C398 N400 1.317 . S
C398 H403 0.930 . S
C399 C398 1.333 . S
C399 N401 1.350 . S
C399 H425 0.931 . S
N400 Co396 2.148 . S
N400 C397 1.301 . S
N400 C398 1.317 . S
N401 C397 1.328 . S
N401 C399 1.350 . S
H402 C397 0.930 . S
H403 C398 0.930 . S
C404 O405 1.224 . S
C404 O423 1.247 . S
O405 C404 1.224 . S
N406 Co396 2.128 . S
N406 C407 1.355 . S
N406 C409 1.311 . S
C407 N406 1.355 . S
C407 C408 1.363 . S
C407 H419 0.929 . S
C408 C407 1.363 . S
C408 N410 1.375 . S
C408 H426 0.931 . S
C409 N406 1.311 . S
C409 N410 1.347 . S
C409 H420 0.929 . S
N410 C408 1.375 . S
N410 C409 1.347 . S
C411 C414 1.365 . S
C411 N416 1.328 . S
C411 H417 0.929 . S
C412 C413 1.362 . S
C412 C415 1.378 . S
C412 H427 0.929 . S
C413 C412 1.362 . S
C413 C414 1.366 . S
C414 C411 1.365 . S
C414 C413 1.366 . S
C414 H428 0.930 . S
C415 C412 1.378 . S
C415 N416 1.315 . S
C415 H418 0.930 . S
N416 Co396 2.194 . S
N416 C411 1.328 . S
N416 C415 1.315 . S
H417 C411 0.929 . S
H418 C415 0.930 . S
H419 C407 0.929 . S
H420 C409 0.929 . S
O421 Co396 2.351 . S
O421 C424 1.244 . S
O422 Co396 2.155 . S
O422 C424 1.240 . S
O423 Co396 2.096 . S
O423 C404 1.247 . S
C424 O421 1.244 . S
C424 O422 1.240 . S
H425 C399 0.931 . S
H426 C408 0.931 . S
H427 C412 0.929 . S
H428 C414 0.930 . S
Co429 N433 2.148 . S
Co429 N439 2.128 . S
Co429 N449 2.194 . S
Co429 O454 2.351 . S
Co429 O455 2.155 . S
Co429 O456 2.096 . S
C430 N433 1.301 . S
C430 N434 1.334 . S
C430 H435 0.930 . S
C431 C432 1.333 1_655 S
C431 N433 1.317 . S
C431 H436 0.930 . S
C432 C431 1.333 1_455 S
C432 N434 1.349 1_455 S
C432 H458 0.931 . S
N433 Co429 2.148 . S
N433 C430 1.301 . S
N433 C431 1.317 . S
N434 C430 1.334 . S
N434 C432 1.349 1_655 S
H435 C430 0.930 . S
H436 C431 0.930 . S
C437 O438 1.224 . S
C437 O456 1.247 . S
O438 C437 1.224 . S
N439 Co429 2.128 . S
N439 C440 1.355 . S
N439 C442 1.311 . S
C440 N439 1.355 . S
C440 C441 1.363 . S
C440 H452 0.929 . S
C441 C440 1.363 . S
C441 N443 1.375 . S
C441 H459 0.931 . S
C442 N439 1.311 . S
C442 N443 1.347 . S
C442 H453 0.929 . S
N443 C441 1.375 . S
N443 C442 1.347 . S
C444 C447 1.365 . S
C444 N449 1.328 . S
C444 H450 0.929 . S
C445 C446 1.362 . S
C445 C448 1.378 . S
C445 H460 0.929 . S
C446 C445 1.362 . S
C446 C447 1.366 . S
C447 C444 1.365 . S
C447 C446 1.366 . S
C447 H461 0.930 . S
C448 C445 1.378 . S
C448 N449 1.315 . S
C448 H451 0.930 . S
N449 Co429 2.194 . S
N449 C444 1.328 . S
N449 C448 1.315 . S
H450 C444 0.929 . S
H451 C448 0.930 . S
H452 C440 0.929 . S
H453 C442 0.929 . S
O454 Co429 2.351 . S
O454 C457 1.244 . S
O455 Co429 2.155 . S
O455 C457 1.240 . S
O456 Co429 2.096 . S
O456 C437 1.247 . S
C457 O454 1.244 . S
C457 O455 1.240 . S
H458 C432 0.931 . S
H459 C441 0.931 . S
H460 C445 0.929 . S
H461 C447 0.930 . S
Co462 N466 2.148 . S
Co462 N472 2.128 . S
Co462 N482 2.194 . S
Co462 O487 2.351 . S
Co462 O488 2.155 . S
Co462 O489 2.096 . S
C463 N466 1.301 . S
C463 N467 1.334 . S
C463 H468 0.930 . S
C464 C465 1.333 1_565 S
C464 N466 1.317 . S
C464 H469 0.930 . S
C465 C464 1.333 1_545 S
C465 N467 1.349 1_545 S
C465 H491 0.931 . S
N466 Co462 2.148 . S
N466 C463 1.301 . S
N466 C464 1.317 . S
N467 C463 1.334 . S
N467 C465 1.349 1_565 S
H468 C463 0.930 . S
H469 C464 0.930 . S
C470 O471 1.224 . S
C470 O489 1.247 . S
O471 C470 1.224 . S
N472 Co462 2.128 . S
N472 C473 1.355 . S
N472 C475 1.311 . S
C473 N472 1.355 . S
C473 C474 1.363 . S
C473 H485 0.929 . S
C474 C473 1.363 . S
C474 N476 1.375 . S
C474 H492 0.931 . S
C475 N472 1.311 . S
C475 N476 1.347 . S
C475 H486 0.929 . S
N476 C474 1.375 . S
N476 C475 1.347 . S
C477 C480 1.365 . S
C477 N482 1.328 . S
C477 H483 0.929 . S
C478 C479 1.362 . S
C478 C481 1.378 . S
C478 H493 0.929 . S
C479 C478 1.362 . S
C479 C480 1.366 . S
C480 C477 1.365 . S
C480 C479 1.366 . S
C480 H494 0.930 . S
C481 C478 1.378 . S
C481 N482 1.315 . S
C481 H484 0.930 . S
N482 Co462 2.194 . S
N482 C477 1.328 . S
N482 C481 1.315 . S
H483 C477 0.929 . S
H484 C481 0.930 . S
H485 C473 0.929 . S
H486 C475 0.929 . S
O487 Co462 2.351 . S
O487 C490 1.244 . S
O488 Co462 2.155 . S
O488 C490 1.240 . S
O489 Co462 2.096 . S
O489 C470 1.247 . S
C490 O487 1.244 . S
C490 O488 1.240 . S
H491 C465 0.931 . S
H492 C474 0.931 . S
H493 C478 0.929 . S
H494 C480 0.930 . S
Co495 N499 2.148 . S
Co495 N505 2.128 . S
Co495 N515 2.194 . S
Co495 O520 2.351 . S
Co495 O521 2.155 . S
Co495 O522 2.096 . S
C496 N499 1.301 . S
C496 N500 1.328 . S
C496 H501 0.930 . S
C497 C498 1.333 . S
C497 N499 1.317 . S
C497 H502 0.930 . S
C498 C497 1.333 . S
C498 N500 1.350 . S
C498 H524 0.931 . S
N499 Co495 2.148 . S
N499 C496 1.301 . S
N499 C497 1.317 . S
N500 C496 1.328 . S
N500 C498 1.350 . S
H501 C496 0.930 . S
H502 C497 0.930 . S
C503 O504 1.224 . S
C503 O522 1.247 . S
O504 C503 1.224 . S
N505 Co495 2.128 . S
N505 C506 1.355 . S
N505 C508 1.311 . S
C506 N505 1.355 . S
C506 C507 1.363 . S
C506 H518 0.929 . S
C507 C506 1.363 . S
C507 N509 1.375 . S
C507 H525 0.931 . S
C508 N505 1.311 . S
C508 N509 1.347 . S
C508 H519 0.929 . S
N509 C507 1.375 . S
N509 C508 1.347 . S
C510 C513 1.365 . S
C510 N515 1.328 . S
C510 H516 0.929 . S
C511 C512 1.362 . S
C511 C514 1.378 . S
C511 H526 0.929 . S
C512 C511 1.362 . S
C512 C513 1.366 . S
C513 C510 1.365 . S
C513 C512 1.366 . S
C513 H527 0.930 . S
C514 C511 1.378 . S
C514 N515 1.315 . S
C514 H517 0.930 . S
N515 Co495 2.194 . S
N515 C510 1.328 . S
N515 C514 1.315 . S
H516 C510 0.929 . S
H517 C514 0.930 . S
H518 C506 0.929 . S
H519 C508 0.929 . S
O520 Co495 2.351 . S
O520 C523 1.244 . S
O521 Co495 2.155 . S
O521 C523 1.240 . S
O522 Co495 2.096 . S
O522 C503 1.247 . S
C523 O520 1.244 . S
C523 O521 1.240 . S
H524 C498 0.931 . S
H525 C507 0.931 . S
H526 C511 0.929 . S
H527 C513 0.930 . S
C528 C529 1.387 . S
C528 H532 0.950 . S
C528 C537 1.390 . S
C529 C528 1.387 . S
C529 C531 1.387 . S
H530 C537 0.950 . S
C531 C529 1.387 . S
C531 C533 1.390 . S
C531 H535 0.950 . S
H532 C528 0.950 . S
C533 C531 1.390 . S
C533 C534 1.387 . S
C533 H536 0.950 . S
C534 C533 1.387 . S
C534 C537 1.387 . S
H535 C531 0.950 . S
H536 C533 0.950 . S
C537 C528 1.390 . S
C537 H530 0.950 . S
C537 C534 1.387 . S
C538 C539 1.387 . S
C538 H542 0.950 . S
C538 C547 1.390 . S
C539 C538 1.387 . S
C539 C541 1.387 . S
H540 C547 0.950 . S
C541 C539 1.387 . S
C541 C543 1.390 . S
C541 H545 0.950 . S
H542 C538 0.950 . S
C543 C541 1.390 . S
C543 C544 1.387 . S
C543 H546 0.950 . S
C544 C543 1.387 . S
C544 C547 1.387 . S
H545 C541 0.950 . S
H546 C543 0.950 . S
C547 C538 1.390 . S
C547 H540 0.950 . S
C547 C544 1.387 . S
C548 C549 1.387 . S
C548 H552 0.950 . S
C548 C557 1.390 . S
C549 C548 1.387 . S
C549 C551 1.387 . S
H550 C557 0.950 . S
C551 C549 1.387 . S
C551 C553 1.390 . S
C551 H555 0.950 . S
H552 C548 0.950 . S
C553 C551 1.390 . S
C553 C554 1.387 . S
C553 H556 0.950 . S
C554 C553 1.387 . S
C554 C557 1.387 . S
H555 C551 0.950 . S
H556 C553 0.950 . S
C557 C548 1.390 . S
C557 H550 0.950 . S
C557 C554 1.387 . S
C558 C559 1.387 . S
C558 H562 0.950 . S
C558 C567 1.390 . S
C559 C558 1.387 . S
C559 C561 1.387 . S
H560 C567 0.950 . S
C561 C559 1.387 . S
C561 C563 1.390 . S
C561 H565 0.950 . S
H562 C558 0.950 . S
C563 C561 1.390 . S
C563 C564 1.387 . S
C563 H566 0.950 . S
C564 C563 1.387 . S
C564 C567 1.387 . S
H565 C561 0.950 . S
H566 C563 0.950 . S
C567 C558 1.390 . S
C567 H560 0.950 . S
C567 C564 1.387 . S
C568 C569 1.387 . S
C568 H572 0.950 . S
C568 C577 1.390 . S
C569 C568 1.387 . S
C569 C571 1.387 . S
H570 C577 0.950 . S
C571 C569 1.387 . S
C571 C573 1.390 . S
C571 H575 0.950 . S
H572 C568 0.950 . S
C573 C571 1.390 . S
C573 C574 1.387 . S
C573 H576 0.950 . S
C574 C573 1.387 . S
C574 C577 1.387 . S
H575 C571 0.950 . S
H576 C573 0.950 . S
C577 C568 1.390 . S
C577 H570 0.950 . S
C577 C574 1.387 . S
C578 C579 1.387 . S
C578 H582 0.950 . S
C578 C587 1.390 . S
C579 C578 1.387 . S
C579 C581 1.387 . S
H580 C587 0.950 . S
C581 C579 1.387 . S
C581 C583 1.390 . S
C581 H585 0.950 . S
H582 C578 0.950 . S
C583 C581 1.390 . S
C583 C584 1.387 . S
C583 H586 0.950 . S
C584 C583 1.387 . S
C584 C587 1.387 . S
H585 C581 0.950 . S
H586 C583 0.950 . S
C587 C578 1.390 . S
C587 H580 0.950 . S
C587 C584 1.387 . S
C588 C589 1.387 . S
C588 H592 0.950 . S
C588 C597 1.390 . S
C589 C588 1.387 . S
C589 C591 1.387 . S
H590 C597 0.950 . S
C591 C589 1.387 . S
C591 C593 1.390 . S
C591 H595 0.950 . S
H592 C588 0.950 . S
C593 C591 1.390 . S
C593 C594 1.387 . S
C593 H596 0.950 . S
C594 C593 1.387 . S
C594 C597 1.387 . S
H595 C591 0.950 . S
H596 C593 0.950 . S
C597 C588 1.390 . S
C597 H590 0.950 . S
C597 C594 1.387 . S
C598 C599 1.387 . S
C598 H602 0.950 . S
C598 C607 1.390 . S
C599 C598 1.387 . S
C599 C601 1.387 . S
H600 C607 0.950 . S
C601 C599 1.387 . S
C601 C603 1.390 . S
C601 H605 0.950 . S
H602 C598 0.950 . S
C603 C601 1.390 . S
C603 C604 1.387 . S
C603 H606 0.950 . S
C604 C603 1.387 . S
C604 C607 1.387 . S
H605 C601 0.950 . S
H606 C603 0.950 . S
C607 C598 1.390 . S
C607 H600 0.950 . S
C607 C604 1.387 . S
C608 C609 1.387 . S
C608 H612 0.950 . S
C608 C617 1.390 1_556 S
C609 C608 1.387 . S
C609 C611 1.387 1_545 S
H610 C617 0.950 . S
C611 C609 1.387 1_565 S
C611 C613 1.390 1_556 S
C611 H615 0.950 . S
H612 C608 0.950 . S
C613 C611 1.390 1_554 S
C613 C614 1.387 . S
C613 H616 0.950 . S
C614 C613 1.387 . S
C614 C617 1.387 1_565 S
H615 C611 0.950 . S
H616 C613 0.950 . S
C617 C608 1.390 1_554 S
C617 H610 0.950 . S
C617 C614 1.387 1_545 S
C618 C619 1.387 . S
C618 H622 0.950 . S
C618 C627 1.390 . S
C619 C618 1.387 . S
C619 C621 1.387 1_556 S
H620 C627 0.950 . S
C621 C619 1.387 1_554 S
C621 C623 1.390 . S
C621 H625 0.950 . S
H622 C618 0.950 . S
C623 C621 1.390 . S
C623 C624 1.387 . S
C623 H626 0.950 . S
C624 C623 1.387 . S
C624 C627 1.387 1_554 S
H625 C621 0.950 . S
H626 C623 0.950 . S
C627 C618 1.390 . S
C627 H620 0.950 . S
C627 C624 1.387 1_556 S
C628 C629 1.387 . S
C628 H632 0.950 . S
C628 C637 1.390 1_456 S
C629 C628 1.387 . S
C629 C631 1.387 . S
H630 C637 0.950 . S
C631 C629 1.387 . S
C631 C633 1.390 1_456 S
C631 H635 0.950 . S
H632 C628 0.950 . S
C633 C631 1.390 1_654 S
C633 C634 1.387 . S
C633 H636 0.950 . S
C634 C633 1.387 . S
C634 C637 1.387 . S
H635 C631 0.950 . S
H636 C633 0.950 . S
C637 C628 1.390 1_654 S
C637 H630 0.950 . S
C637 C634 1.387 . S
C638 C639 1.387 . S
C638 H642 0.950 . S
C638 C647 1.390 1_546 S
C639 C638 1.387 . S
C639 C641 1.387 1_455 S
H640 C647 0.950 . S
C641 C639 1.387 1_655 S
C641 C643 1.390 1_546 S
C641 H645 0.950 . S
H642 C638 0.950 . S
C643 C641 1.390 1_564 S
C643 C644 1.387 . S
C643 H646 0.950 . S
C644 C643 1.387 . S
C644 C647 1.387 1_655 S
H645 C641 0.950 . S
H646 C643 0.950 . S
C647 C638 1.390 1_564 S
C647 H640 0.950 . S
C647 C644 1.387 1_455 S
C648 C649 1.387 . S
C648 H652 0.950 . S
C648 C657 1.390 . S
C649 C648 1.387 . S
C649 C651 1.387 . S
H650 C657 0.950 . S
C651 C649 1.387 . S
C651 C653 1.390 . S
C651 H655 0.950 . S
H652 C648 0.950 . S
C653 C651 1.390 . S
C653 C654 1.387 . S
C653 H656 0.950 . S
C654 C653 1.387 . S
C654 C657 1.387 . S
H655 C651 0.950 . S
H656 C653 0.950 . S
C657 C648 1.390 . S
C657 H650 0.950 . S
C657 C654 1.387 . S
C658 C659 1.387 . S
C658 H662 0.950 . S
C658 C667 1.390 . S
C659 C658 1.387 . S
C659 C661 1.387 1_455 S
H660 C667 0.950 . S
C661 C659 1.387 1_655 S
C661 C663 1.390 . S
C661 H665 0.950 . S
H662 C658 0.950 . S
C663 C661 1.390 . S
C663 C664 1.387 . S
C663 H666 0.950 . S
C664 C663 1.387 . S
C664 C667 1.387 1_655 S
H665 C661 0.950 . S
H666 C663 0.950 . S
C667 C658 1.390 . S
C667 H660 0.950 . S
C667 C664 1.387 1_455 S
C668 C669 1.387 . S
C668 H672 0.950 . S
C668 C677 1.390 1_655 S
C669 C668 1.387 . S
C669 C671 1.387 1_565 S
H670 C677 0.950 . S
C671 C669 1.387 1_545 S
C671 C673 1.390 1_655 S
C671 H675 0.950 . S
H672 C668 0.950 . S
C673 C671 1.390 1_455 S
C673 C674 1.387 . S
C673 H676 0.950 . S
C674 C673 1.387 . S
C674 C677 1.387 1_545 S
H675 C671 0.950 . S
H676 C673 0.950 . S
C677 C668 1.390 1_455 S
C677 H670 0.950 . S
C677 C674 1.387 1_565 S
C678 C679 1.387 . S
C678 H682 0.950 . S
C678 C687 1.390 1_565 S
C679 C678 1.387 . S
C679 C681 1.387 . S
H680 C687 0.950 . S
C681 C679 1.387 . S
C681 C683 1.390 1_565 S
C681 H685 0.950 . S
H682 C678 0.950 . S
C683 C681 1.390 1_545 S
C683 C684 1.387 . S
C683 H686 0.950 . S
C684 C683 1.387 . S
C684 C687 1.387 . S
H685 C681 0.950 . S
H686 C683 0.950 . S
C687 C678 1.390 1_545 S
C687 H680 0.950 . S
C687 C684 1.387 . S
C688 C689 1.387 1_554 S
C688 H692 0.950 . S
C688 C697 1.390 . S
C689 C688 1.387 1_556 S
C689 C691 1.387 . S
H690 C697 0.950 . S
C691 C689 1.387 . S
C691 C693 1.390 1_556 S
C691 H695 0.950 . S
H692 C688 0.950 . S
C693 C691 1.390 1_554 S
C693 C694 1.387 . S
C693 H696 0.950 . S
C694 C693 1.387 . S
C694 C697 1.387 . S
H695 C691 0.950 . S
H696 C693 0.950 . S
C697 C688 1.390 . S
C697 H690 0.950 . S
C697 C694 1.387 . S
C698 C699 1.387 1_554 S
C698 H702 0.950 . S
C698 C707 1.390 . S
C699 C698 1.387 1_556 S
C699 C701 1.387 1_556 S
H700 C707 0.950 . S
C701 C699 1.387 1_554 S
C701 C703 1.390 . S
C701 H705 0.950 1_554 S
H702 C698 0.950 . S
C703 C701 1.390 . S
C703 C704 1.387 . S
C703 H706 0.950 . S
C704 C703 1.387 . S
C704 C707 1.387 . S
H705 C701 0.950 1_556 S
H706 C703 0.950 . S
C707 C698 1.390 . S
C707 H700 0.950 . S
C707 C704 1.387 . S
C708 C709 1.387 1_554 S
C708 H712 0.950 . S
C708 C717 1.390 . S
C709 C708 1.387 1_556 S
C709 C711 1.387 . S
H710 C717 0.950 . S
C711 C709 1.387 . S
C711 C713 1.390 1_556 S
C711 H715 0.950 . S
H712 C708 0.950 . S
C713 C711 1.390 1_554 S
C713 C714 1.387 . S
C713 H716 0.950 . S
C714 C713 1.387 . S
C714 C717 1.387 . S
H715 C711 0.950 . S
H716 C713 0.950 . S
C717 C708 1.390 . S
C717 H710 0.950 . S
C717 C714 1.387 . S
C718 C719 1.387 . S
C718 H722 0.950 . S
C718 C727 1.390 1_556 S
C719 C718 1.387 . S
C719 C721 1.387 1_556 S
H720 C727 0.950 . S
C721 C719 1.387 1_554 S
C721 C723 1.390 . S
C721 H725 0.950 . S
H722 C718 0.950 . S
C723 C721 1.390 . S
C723 C724 1.387 . S
C723 H726 0.950 . S
C724 C723 1.387 . S
C724 C727 1.387 . S
H725 C721 0.950 . S
H726 C723 0.950 . S
C727 C718 1.390 1_554 S
C727 H720 0.950 . S
C727 C724 1.387 . S
C728 C729 1.387 . S
C728 H732 0.950 . S
C728 C737 1.390 . S
C729 C728 1.387 . S
C729 C731 1.387 . S
H730 C737 0.950 . S
C731 C729 1.387 . S
C731 C733 1.390 . S
C731 H735 0.950 . S
H732 C728 0.950 . S
C733 C731 1.390 . S
C733 C734 1.387 . S
C733 H736 0.950 . S
C734 C733 1.387 . S
C734 C737 1.387 . S
H735 C731 0.950 . S
H736 C733 0.950 . S
C737 C728 1.390 . S
C737 H730 0.950 . S
C737 C734 1.387 . S
C738 C739 1.387 . S
C738 H742 0.950 . S
C738 C747 1.390 . S
C739 C738 1.387 . S
C739 C741 1.387 . S
H740 C747 0.950 . S
C741 C739 1.387 . S
C741 C743 1.390 . S
C741 H745 0.950 . S
H742 C738 0.950 . S
C743 C741 1.390 . S
C743 C744 1.387 . S
C743 H746 0.950 . S
C744 C743 1.387 . S
C744 C747 1.387 . S
H745 C741 0.950 . S
H746 C743 0.950 . S
C747 C738 1.390 . S
C747 H740 0.950 . S
C747 C744 1.387 . S
C748 C749 1.387 . S
C748 H752 0.950 . S
C748 C757 1.390 . S
C749 C748 1.387 . S
C749 C751 1.387 . S
H750 C757 0.950 . S
C751 C749 1.387 . S
C751 C753 1.390 . S
C751 H755 0.950 . S
H752 C748 0.950 . S
C753 C751 1.390 . S
C753 C754 1.387 . S
C753 H756 0.950 1_655 S
C754 C753 1.387 . S
C754 C757 1.387 . S
H755 C751 0.950 . S
H756 C753 0.950 1_455 S
C757 C748 1.390 . S
C757 H750 0.950 . S
C757 C754 1.387 . S
C758 C759 1.387 . S
C758 H762 0.950 . S
C758 C767 1.390 . S
C759 C758 1.387 . S
C759 C761 1.387 . S
H760 C767 0.950 . S
C761 C759 1.387 . S
C761 C763 1.390 . S
C761 H765 0.950 . S
H762 C758 0.950 . S
C763 C761 1.390 . S
C763 C764 1.387 . S
C763 H766 0.950 . S
C764 C763 1.387 . S
C764 C767 1.387 . S
H765 C761 0.950 . S
H766 C763 0.950 . S
C767 C758 1.390 . S
C767 H760 0.950 . S
C767 C764 1.387 . S
C768 C769 1.387 1_556 S
C768 H772 0.950 1_556 S
C768 C777 1.390 . S
C769 C768 1.387 1_554 S
C769 C771 1.387 1_554 S
H770 C777 0.950 . S
C771 C769 1.387 1_556 S
C771 C773 1.390 . S
C771 H775 0.950 . S
H772 C768 0.950 1_554 S
C773 C771 1.390 . S
C773 C774 1.387 . S
C773 H776 0.950 . S
C774 C773 1.387 . S
C774 C777 1.387 . S
H775 C771 0.950 . S
H776 C773 0.950 . S
C777 C768 1.390 . S
C777 H770 0.950 . S
C777 C774 1.387 . S
C778 C779 1.387 . S
C778 H782 0.950 . S
C778 C787 1.390 1_554 S
C779 C778 1.387 . S
C779 C781 1.387 1_554 S
H780 C787 0.950 . S
C781 C779 1.387 1_556 S
C781 C783 1.390 . S
C781 H785 0.950 . S
H782 C778 0.950 . S
C783 C781 1.390 . S
C783 C784 1.387 . S
C783 H786 0.950 . S
C784 C783 1.387 . S
C784 C787 1.387 . S
H785 C781 0.950 . S
H786 C783 0.950 . S
C787 C778 1.390 1_556 S
C787 H780 0.950 . S
C787 C784 1.387 . S
C788 C789 1.387 1_556 S
C788 H792 0.950 . S
C788 C797 1.390 . S
C789 C788 1.387 1_554 S
C789 C791 1.387 . S
H790 C797 0.950 . S
C791 C789 1.387 . S
C791 C793 1.390 1_554 S
C791 H795 0.950 . S
H792 C788 0.950 . S
C793 C791 1.390 1_556 S
C793 C794 1.387 . S
C793 H796 0.950 . S
C794 C793 1.387 . S
C794 C797 1.387 . S
H795 C791 0.950 . S
H796 C793 0.950 . S
C797 C788 1.390 . S
C797 H790 0.950 . S
C797 C794 1.387 . S
C798 C799 1.387 . S
C798 H802 0.950 . S
C798 C807 1.390 1_554 S
C799 C798 1.387 . S
C799 C801 1.387 1_554 S
H800 C807 0.950 . S
C801 C799 1.387 1_556 S
C801 C803 1.390 . S
C801 H805 0.950 . S
H802 C798 0.950 . S
C803 C801 1.390 . S
C803 C804 1.387 . S
C803 H806 0.950 . S
C804 C803 1.387 . S
C804 C807 1.387 . S
H805 C801 0.950 . S
H806 C803 0.950 . S
C807 C798 1.390 1_556 S
C807 H800 0.950 . S
C807 C804 1.387 . S
C808 C809 1.387 . S
C808 H812 0.950 . S
C808 C817 1.390 . S
C809 C808 1.387 . S
C809 C811 1.387 . S
H810 C817 0.950 . S
C811 C809 1.387 . S
C811 C813 1.390 . S
C811 H815 0.950 . S
H812 C808 0.950 . S
C813 C811 1.390 . S
C813 C814 1.387 . S
C813 H816 0.950 . S
C814 C813 1.387 . S
C814 C817 1.387 . S
H815 C811 0.950 . S
H816 C813 0.950 . S
C817 C808 1.390 . S
C817 H810 0.950 . S
C817 C814 1.387 . S
C818 C819 1.387 . S
C818 H822 0.950 . S
C818 C827 1.390 . S
C819 C818 1.387 . S
C819 C821 1.387 . S
H820 C827 0.950 . S
C821 C819 1.387 . S
C821 C823 1.390 . S
C821 H825 0.950 . S
H822 C818 0.950 . S
C823 C821 1.390 . S
C823 C824 1.387 . S
C823 H826 0.950 . S
C824 C823 1.387 . S
C824 C827 1.387 . S
H825 C821 0.950 . S
H826 C823 0.950 . S
C827 C818 1.390 . S
C827 H820 0.950 . S
C827 C824 1.387 . S
C828 C829 1.387 . S
C828 H832 0.950 1_455 S
C828 C837 1.390 . S
C829 C828 1.387 . S
C829 C831 1.387 . S
H830 C837 0.950 . S
C831 C829 1.387 . S
C831 C833 1.390 . S
C831 H835 0.950 . S
H832 C828 0.950 1_655 S
C833 C831 1.390 . S
C833 C834 1.387 . S
C833 H836 0.950 . S
C834 C833 1.387 . S
C834 C837 1.387 . S
H835 C831 0.950 . S
H836 C833 0.950 . S
C837 C828 1.390 . S
C837 H830 0.950 . S
C837 C834 1.387 . S
C838 C839 1.387 . S
C838 H842 0.950 . S
C838 C847 1.390 . S
C839 C838 1.387 . S
C839 C841 1.387 . S
H840 C847 0.950 . S
C841 C839 1.387 . S
C841 C843 1.390 . S
C841 H845 0.950 . S
H842 C838 0.950 . S
C843 C841 1.390 . S
C843 C844 1.387 . S
C843 H846 0.950 1_545 S
C844 C843 1.387 . S
C844 C847 1.387 . S
H845 C841 0.950 . S
H846 C843 0.950 1_565 S
C847 C838 1.390 . S
C847 H840 0.950 . S
C847 C844 1.387 . S
C848 C849 1.387 . S
C848 H852 0.950 . S
C848 C857 1.390 . S
C849 C848 1.387 . S
C849 C851 1.387 . S
H850 C857 0.950 . S
C851 C849 1.387 . S
C851 C853 1.390 . S
C851 H855 0.950 . S
H852 C848 0.950 . S
C853 C851 1.390 . S
C853 C854 1.387 . S
C853 H856 0.950 . S
C854 C853 1.387 . S
C854 C857 1.387 . S
H855 C851 0.950 . S
H856 C853 0.950 . S
C857 C848 1.390 . S
C857 H850 0.950 . S
C857 C854 1.387 . S
C858 C859 1.387 . S
C858 H862 0.950 . S
C858 C867 1.390 . S
C859 C858 1.387 . S
C859 C861 1.387 . S
H860 C867 0.950 . S
C861 C859 1.387 . S
C861 C863 1.390 . S
C861 H865 0.950 . S
H862 C858 0.950 . S
C863 C861 1.390 . S
C863 C864 1.387 . S
C863 H866 0.950 . S
C864 C863 1.387 . S
C864 C867 1.387 . S
H865 C861 0.950 . S
H866 C863 0.950 . S
C867 C858 1.390 . S
C867 H860 0.950 . S
C867 C864 1.387 . S
C868 C869 1.387 . S
C868 H872 0.950 . S
C868 C877 1.390 . S
C869 C868 1.387 . S
C869 C871 1.387 . S
H870 C877 0.950 . S
C871 C869 1.387 . S
C871 C873 1.390 . S
C871 H875 0.950 . S
H872 C868 0.950 . S
C873 C871 1.390 . S
C873 C874 1.387 . S
C873 H876 0.950 . S
C874 C873 1.387 . S
C874 C877 1.387 . S
H875 C871 0.950 . S
H876 C873 0.950 . S
C877 C868 1.390 . S
C877 H870 0.950 . S
C877 C874 1.387 . S
C878 C879 1.387 . S
C878 H882 0.950 . S
C878 C887 1.390 . S
C879 C878 1.387 . S
C879 C881 1.387 . S
H880 C887 0.950 . S
C881 C879 1.387 . S
C881 C883 1.390 . S
C881 H885 0.950 . S
H882 C878 0.950 . S
C883 C881 1.390 . S
C883 C884 1.387 . S
C883 H886 0.950 . S
C884 C883 1.387 . S
C884 C887 1.387 . S
H885 C881 0.950 . S
H886 C883 0.950 . S
C887 C878 1.390 . S
C887 H880 0.950 . S
C887 C884 1.387 . S
C888 C889 1.387 . S
C888 H892 0.950 . S
C888 C897 1.390 . S
C889 C888 1.387 . S
C889 C891 1.387 . S
H890 C897 0.950 . S
C891 C889 1.387 . S
C891 C893 1.390 . S
C891 H895 0.950 . S
H892 C888 0.950 . S
C893 C891 1.390 . S
C893 C894 1.387 . S
C893 H896 0.950 . S
C894 C893 1.387 . S
C894 C897 1.387 . S
H895 C891 0.950 . S
H896 C893 0.950 . S
C897 C888 1.390 . S
C897 H890 0.950 . S
C897 C894 1.387 . S
C898 C899 1.387 . S
C898 H902 0.950 . S
C898 C907 1.390 . S
C899 C898 1.387 . S
C899 C901 1.387 . S
H900 C907 0.950 . S
C901 C899 1.387 . S
C901 C903 1.390 . S
C901 H905 0.950 . S
H902 C898 0.950 . S
C903 C901 1.390 . S
C903 C904 1.387 . S
C903 H906 0.950 . S
C904 C903 1.387 . S
C904 C907 1.387 . S
H905 C901 0.950 . S
H906 C903 0.950 . S
C907 C898 1.390 . S
C907 H900 0.950 . S
C907 C904 1.387 . S
C908 C909 1.387 . S
C908 H912 0.950 . S
C908 C917 1.390 . S
C909 C908 1.387 . S
C909 C911 1.387 . S
H910 C917 0.950 . S
C911 C909 1.387 . S
C911 C913 1.390 . S
C911 H915 0.950 . S
H912 C908 0.950 . S
C913 C911 1.390 . S
C913 C914 1.387 . S
C913 H916 0.950 . S
C914 C913 1.387 . S
C914 C917 1.387 . S
H915 C911 0.950 . S
H916 C913 0.950 . S
C917 C908 1.390 . S
C917 H910 0.950 . S
C917 C914 1.387 . S
C918 C919 1.387 . S
C918 H922 0.950 . S
C918 C927 1.390 . S
C919 C918 1.387 . S
C919 C921 1.387 . S
H920 C927 0.950 . S
C921 C919 1.387 . S
C921 C923 1.390 . S
C921 H925 0.950 . S
H922 C918 0.950 . S
C923 C921 1.390 . S
C923 C924 1.387 . S
C923 H926 0.950 . S
C924 C923 1.387 . S
C924 C927 1.387 . S
H925 C921 0.950 . S
H926 C923 0.950 . S
C927 C918 1.390 . S
C927 H920 0.950 . S
C927 C924 1.387 . S
C529 C8 1.872 . S
C534 C206 1.872 . S
C539 C239 1.867 . S
C544 C41 1.867 . S
C549 C140 1.867 . S
C554 C74 1.867 . S
C559 C173 1.867 . S
C564 C107 1.867 . S
C569 C272 1.872 . S
C574 C470 1.872 . S
C579 C305 1.867 . S
C584 C503 1.867 . S
C589 C404 1.867 . S
C594 C338 1.867 . S
C599 C371 1.867 . S
C604 C437 1.867 . S
C609 N269 2.238 1_545 S
C614 N5 2.238 1_565 S
C619 N302 2.238 . S
C624 N38 2.238 . S
C629 N335 2.239 . S
C634 N71 2.239 . S
C639 N368 2.238 1_455 S
C644 N104 2.238 1_655 S
C649 N401 2.239 . S
C654 N137 2.239 . S
C659 N434 2.238 1_455 S
C664 N170 2.238 1_655 S
C669 N203 2.238 1_565 S
C674 N467 2.238 1_545 S
C679 N236 2.239 . S
C684 N500 2.239 . S
C689 C314 1.086 . S
C694 C28 1.133 . S
C699 C347 1.087 . S
C704 C61 1.132 . S
C709 C380 1.086 . S
C714 C94 1.133 . S
C719 C281 1.091 . S
C724 C127 1.131 . S
C729 C160 1.131 . S
C734 C512 1.091 . S
C739 C193 1.132 . S
C744 C413 1.090 . S
C749 C226 1.131 . S
C754 C446 1.090 . S
C759 C259 1.133 . S
C764 C479 1.086 . S
C769 C50 1.088 . S
C774 C292 1.131 . S
C779 C83 1.086 . S
C784 C325 1.133 . S
C789 C116 1.090 . S
C794 C358 1.130 . S
C799 C17 1.086 . S
C804 C391 1.133 . S
C809 C248 1.086 . S
C814 C424 1.133 . S
C819 C149 1.090 . S
C824 C457 1.132 . S
C829 C182 1.090 . S
C834 C490 1.132 . S
C839 C523 1.132 . S
C844 C215 1.086 . S
C849 N80 0.822 . S
C854 N14 0.822 . S
C859 N113 0.822 . S
C864 N47 0.822 . S
C869 N146 0.822 . S
C874 N212 0.822 . S
C879 N245 0.817 . S
C884 N179 0.817 . S
C889 N278 0.817 . S
C894 N344 0.817 . S
C899 N377 0.822 . S
C904 N311 0.822 . S
C909 N410 0.822 . S
C914 N476 0.822 . S
C919 N443 0.817 . S
C924 N509 0.817 . S
