# Generated by pormake.
# Topology smn, (6)-cn, num edge types: 1
# Building blocks:
#     Node 0, Type 0, BuildingBlock: UKALOJ_clean_sbu_0, # of connection points: 6
#     Node 1, Type 0, BuildingBlock: UKALOJ_clean_sbu_0, # of connection points: 6
#     Node 2, Type 0, BuildingBlock: UKALOJ_clean_sbu_0, # of connection points: 6
#     Node 3, Type 0, BuildingBlock: UKALOJ_clean_sbu_0, # of connection points: 6
#     Node 4, Type 0, BuildingBlock: UKALOJ_clean_sbu_0, # of connection points: 6
#     Node 5, Type 0, BuildingBlock: UKALOJ_clean_sbu_0, # of connection points: 6
#     Node 6, Type 0, BuildingBlock: UKALOJ_clean_sbu_0, # of connection points: 6
#     Node 7, Type 0, BuildingBlock: UKALOJ_clean_sbu_0, # of connection points: 6
#     Node 8, Type 0, BuildingBlock: UKALOJ_clean_sbu_0, # of connection points: 6
#     Node 9, Type 0, BuildingBlock: UKALOJ_clean_sbu_0, # of connection points: 6
#     Node 10, Type 0, BuildingBlock: UKALOJ_clean_sbu_0, # of connection points: 6
#     Node 11, Type 0, BuildingBlock: UKALOJ_clean_sbu_0, # of connection points: 6
#     Node 12, Type 0, BuildingBlock: UKALOJ_clean_sbu_0, # of connection points: 6
#     Node 13, Type 0, BuildingBlock: UKALOJ_clean_sbu_0, # of connection points: 6
#     Node 14, Type 0, BuildingBlock: UKALOJ_clean_sbu_0, # of connection points: 6
#     Node 15, Type 0, BuildingBlock: UKALOJ_clean_sbu_0, # of connection points: 6
#     Node 16, Type 0, BuildingBlock: UKALOJ_clean_sbu_0, # of connection points: 6
#     Node 17, Type 0, BuildingBlock: UKALOJ_clean_sbu_0, # of connection points: 6
#     Edge 18, Type (0, 0), None
#     Edge 19, Type (0, 0), None
#     Edge 20, Type (0, 0), None
#     Edge 21, Type (0, 0), None
#     Edge 22, Type (0, 0), None
#     Edge 23, Type (0, 0), None
#     Edge 24, Type (0, 0), None
#     Edge 25, Type (0, 0), None
#     Edge 26, Type (0, 0), None
#     Edge 27, Type (0, 0), None
#     Edge 28, Type (0, 0), None
#     Edge 29, Type (0, 0), None
#     Edge 30, Type (0, 0), None
#     Edge 31, Type (0, 0), None
#     Edge 32, Type (0, 0), None
#     Edge 33, Type (0, 0), None
#     Edge 34, Type (0, 0), None
#     Edge 35, Type (0, 0), None
#     Edge 36, Type (0, 0), None
#     Edge 37, Type (0, 0), None
#     Edge 38, Type (0, 0), None
#     Edge 39, Type (0, 0), None
#     Edge 40, Type (0, 0), None
#     Edge 41, Type (0, 0), None
#     Edge 42, Type (0, 0), None
#     Edge 43, Type (0, 0), None
#     Edge 44, Type (0, 0), None
#     Edge 45, Type (0, 0), None
#     Edge 46, Type (0, 0), None
#     Edge 47, Type (0, 0), None
#     Edge 48, Type (0, 0), None
#     Edge 49, Type (0, 0), None
#     Edge 50, Type (0, 0), None
#     Edge 51, Type (0, 0), None
#     Edge 52, Type (0, 0), None
#     Edge 53, Type (0, 0), None
#     Edge 54, Type (0, 0), None
#     Edge 55, Type (0, 0), None
#     Edge 56, Type (0, 0), None
#     Edge 57, Type (0, 0), None
#     Edge 58, Type (0, 0), None
#     Edge 59, Type (0, 0), None
#     Edge 60, Type (0, 0), None
#     Edge 61, Type (0, 0), None
#     Edge 62, Type (0, 0), None
#     Edge 63, Type (0, 0), None
#     Edge 64, Type (0, 0), None
#     Edge 65, Type (0, 0), None
#     Edge 66, Type (0, 0), None
#     Edge 67, Type (0, 0), None
#     Edge 68, Type (0, 0), None
#     Edge 69, Type (0, 0), None
#     Edge 70, Type (0, 0), None
#     Edge 71, Type (0, 0), None
# Relax obj value: 0.240
# Max RMSD: 0.268
# Mean RMSD: 0.268
data_MOF--net-smn--node1-UKALOJ_clean_sbu_0--edge1-none
_symmetry_space_group_name_H-M    P1
_symmetry_Int_Tables_number       1
_symmetry_cell_setting            triclinic
loop_
_symmetry_equiv_pos_as_xyz
'x, y, z'
_cell_length_a     31.674129
_cell_length_b     31.67426
_cell_length_c     10.491948
_cell_angle_alpha  89.996281
_cell_angle_beta   90.007965
_cell_angle_gamma 119.99952
loop_
_atom_site_label
_atom_site_type_symbol
_atom_site_fract_x
_atom_site_fract_y
_atom_site_fract_z
_atom_type_partial_charge
Zn0 Zn 0.02748 0.25336 0.67547 0.0
O1 O 0.97694 0.27056 0.78933 0.0
C2 C 0.98341 0.17791 0.86679 0.0
Zn3 Zn 0.0703 0.27477 0.84294 0.0
C4 C 0.994 0.29602 0.89242 0.0
O5 O 0.03748 0.3098 0.92507 0.0
C6 C 0.11437 0.24339 0.65162 0.0
O7 O 0.12083 0.34251 0.72907 0.0
O8 O 0.0603 0.32121 0.59332 0.0
N9 N 0.11175 0.28462 1.00213 0.0
C10 C 0.15129 0.27899 1.00331 0.0
C11 C 0.11108 0.24594 0.17235 0.0
N12 N 0.08701 0.2641 0.10767 0.0
N13 N 0.15085 0.2533 0.10734 0.0
C14 C 0.94648 0.17659 0.51509 0.0
C15 C 0.98669 0.18375 0.34605 0.0
N16 N 0.98602 0.22176 0.51627 0.0
N17 N 1.01077 0.22598 0.41073 0.0
N18 N 0.94692 0.15134 0.41106 0.0
H19 H 0.91305 0.18609 0.6838 0.0
H20 H 0.87793 0.17169 0.54069 0.0
H21 H 0.88274 0.12443 0.62088 0.0
C22 C 0.90274 0.16357 0.59617 0.0
C23 C 0.19503 0.30972 0.92223 0.0
H24 H 0.18472 0.32193 0.8346 0.0
H25 H 0.21985 0.34265 0.97771 0.0
H26 H 0.21503 0.29058 0.89752 0.0
O27 O 0.10597 0.23843 0.7696 0.0
O28 O 0.08387 0.24665 0.58096 0.0
C29 C 0.10377 0.35091 0.62597 0.0
O30 O 0.9918 0.18135 0.74881 0.0
O31 O 1.01391 0.21167 0.93745 0.0
Zn32 Zn 0.8369 0.80797 0.67546 0.0
O33 O 0.8197 0.74023 0.78934 0.0
C34 C 0.91235 0.83935 0.86679 0.0
Zn35 Zn 0.8155 0.82938 0.84293 0.0
C36 C 0.79423 0.73182 0.89242 0.0
O37 O 0.78047 0.76153 0.92507 0.0
C38 C 0.84687 0.90482 0.65162 0.0
O39 O 0.74775 0.81217 0.72906 0.0
O40 O 0.76905 0.77294 0.59332 0.0
N41 N 0.80565 0.86098 1.00212 0.0
C42 C 0.81127 0.90615 1.0033 0.0
C43 C 0.84432 0.89898 0.17237 0.0
N44 N 0.82618 0.85676 0.10768 0.0
N45 N 0.83695 0.93139 0.10736 0.0
C46 C 0.91367 0.80374 0.51509 0.0
C47 C 0.9065 0.83678 0.34603 0.0
N48 N 0.86851 0.79812 0.51628 0.0
N49 N 0.86428 0.81864 0.41072 0.0
N50 N 0.93892 0.82942 0.41104 0.0
H51 H 0.90418 0.76082 0.68382 0.0
H52 H 0.91857 0.74008 0.54074 0.0
H53 H 0.96583 0.79216 0.6209 0.0
C54 C 0.92669 0.77302 0.5962 0.0
C55 C 0.78055 0.91916 0.92219 0.0
H56 H 0.76834 0.89665 0.83457 0.0
H57 H 0.74762 0.91105 0.97765 0.0
H58 H 0.79969 0.9583 0.89749 0.0
O59 O 0.85183 0.90138 0.7696 0.0
O60 O 0.84361 0.87106 0.58096 0.0
C61 C 0.73935 0.78671 0.62597 0.0
O62 O 0.90891 0.8443 0.74881 0.0
O63 O 0.87859 0.83608 0.93744 0.0
Zn64 Zn 0.26088 0.01995 0.84294 0.0
O65 O 0.27808 0.96942 0.72906 0.0
C66 C 0.18543 0.97588 0.6516 0.0
Zn67 Zn 0.28228 0.06277 0.67547 0.0
C68 C 0.30354 0.98648 0.62598 0.0
O69 O 0.31731 0.02995 0.59333 0.0
C70 C 0.2509 0.10683 0.86678 0.0
O71 O 0.35002 0.1133 0.78934 0.0
O72 O 0.32873 0.05278 0.92509 0.0
N73 N 0.29213 0.10422 0.51628 0.0
C74 C 0.28651 0.14376 0.5151 0.0
C75 C 0.25346 0.10355 0.34604 0.0
N76 N 0.2716 0.07947 0.41073 0.0
N77 N 0.26082 0.14332 0.41106 0.0
C78 C 0.18411 0.93895 1.00331 0.0
C79 C 0.19128 0.97916 0.17236 0.0
N80 N 0.22927 0.9785 1.00213 0.0
N81 N 0.23349 1.00324 0.10767 0.0
N82 N 0.15886 0.93939 0.10735 0.0
H83 H 0.1936 0.90552 0.83459 0.0
H84 H 0.17921 0.8704 0.97769 0.0
H85 H 0.13195 0.87521 0.89751 0.0
C86 C 0.17109 0.89521 0.92221 0.0
C87 C 0.31723 0.1875 0.5962 0.0
H88 H 0.32944 0.17719 0.68382 0.0
H89 H 0.35016 0.21232 0.54073 0.0
H90 H 0.29809 0.2075 0.6209 0.0
O91 O 0.24595 0.09844 0.7488 0.0
O92 O 0.25417 0.07634 0.93744 0.0
C93 C 0.35843 0.09625 0.89243 0.0
O94 O 0.18887 0.98428 0.76958 0.0
O95 O 0.21919 1.00638 0.58095 0.0
Zn96 Zn 0.0703 0.82937 0.34293 0.0
O97 O 0.12083 0.81216 0.22908 0.0
C98 C 0.11436 0.90481 0.15159 0.0
Zn99 Zn 0.02747 0.80795 0.17547 0.0
C100 C 0.10378 0.7867 0.12598 0.0
O101 O 0.0603 0.77293 0.09332 0.0
C102 C 0.98341 0.83934 0.3668 0.0
O103 O 0.97694 0.74021 0.28931 0.0
O104 O 0.03747 0.76151 0.42509 0.0
N105 N 0.98602 0.79809 0.01628 0.0
C106 C 0.94647 0.8037 0.01506 0.0
C107 C 0.98668 0.83674 0.846 0.0
N108 N 1.01076 0.81861 0.91073 0.0
N109 N 0.94688 0.82933 0.91095 0.0
C110 C 0.15131 0.90612 0.50334 0.0
C111 C 0.1111 0.89895 0.6724 0.0
N112 N 0.11175 0.86096 0.50212 0.0
N113 N 0.08701 0.85674 0.60767 0.0
N114 N 0.1509 0.93134 0.60745 0.0
H115 H 0.18471 0.89663 0.33455 0.0
H116 H 0.21987 0.91106 0.47759 0.0
H117 H 0.215 0.95829 0.39745 0.0
C118 C 0.19503 0.91915 0.42216 0.0
C119 C 0.90274 0.77301 0.09624 0.0
H120 H 0.91307 0.76081 0.18386 0.0
H121 H 0.8779 0.74007 0.04082 0.0
H122 H 0.88277 0.79217 0.12096 0.0
O123 O 0.99178 0.84427 0.2488 0.0
O124 O 1.01393 0.83609 0.43744 0.0
C125 C 0.994 0.73181 0.39242 0.0
O126 O 0.10599 0.90138 0.26959 0.0
O127 O 0.08385 0.87106 0.08095 0.0
Zn128 Zn 0.26087 0.27476 0.34294 0.0
O129 O 0.27809 0.3425 0.22907 0.0
C130 C 0.18542 0.24337 0.15159 0.0
Zn131 Zn 0.28228 0.25334 0.17547 0.0
C132 C 0.30354 0.3509 0.12598 0.0
O133 O 0.3173 0.32119 0.09332 0.0
C134 C 0.25089 0.1779 0.3668 0.0
O135 O 0.35003 0.27056 0.28933 0.0
O136 O 0.32872 0.30977 0.42509 0.0
N137 N 0.29213 0.22175 0.01629 0.0
C138 C 0.28653 0.17659 0.01507 0.0
C139 C 0.2535 0.18377 0.84598 0.0
N140 N 0.27161 0.22597 0.91073 0.0
N141 N 0.26091 0.15137 0.91094 0.0
C142 C 0.18412 0.27901 0.50334 0.0
C143 C 0.1913 0.24599 0.67243 0.0
N144 N 0.22928 0.28461 0.50212 0.0
N145 N 0.2335 0.26409 0.60768 0.0
N146 N 0.1589 0.25339 0.60747 0.0
H147 H 0.1936 0.3219 0.33452 0.0
H148 H 0.17918 0.34264 0.47754 0.0
H149 H 0.13195 0.29054 0.39742 0.0
C150 C 0.17108 0.30971 0.42213 0.0
C151 C 0.31723 0.16356 0.09628 0.0
H152 H 0.32942 0.18608 0.18389 0.0
H153 H 0.35016 0.17165 0.04088 0.0
H154 H 0.29806 0.12442 0.12099 0.0
O155 O 0.24596 0.18134 0.24881 0.0
O156 O 0.25414 0.21165 0.43745 0.0
C157 C 0.35843 0.29601 0.39242 0.0
O158 O 0.18886 0.23844 0.26959 0.0
O159 O 0.21918 0.24662 0.08095 0.0
Zn160 Zn 0.81549 0.01995 0.34293 0.0
O161 O 0.74775 0.96942 0.22908 0.0
C162 C 0.84688 0.97589 0.15161 0.0
Zn163 Zn 0.8369 0.06278 0.17547 0.0
C164 C 0.73934 0.98647 0.12598 0.0
O165 O 0.76905 0.02994 0.09331 0.0
C166 C 0.91235 0.10683 0.36681 0.0
O167 O 0.81969 0.11331 0.28933 0.0
O168 O 0.78047 0.05278 0.42508 0.0
N169 N 0.8685 0.10423 0.01628 0.0
C170 C 0.91365 0.14379 0.01506 0.0
C171 C 0.90648 0.10358 0.84599 0.0
N172 N 0.86427 0.07949 0.91073 0.0
N173 N 0.93887 0.14338 0.91094 0.0
C174 C 0.81123 0.93895 0.50333 0.0
C175 C 0.84427 0.97915 0.67241 0.0
N176 N 0.80563 0.9785 0.50211 0.0
N177 N 0.82616 1.00324 0.60767 0.0
N178 N 0.83687 0.93935 0.60746 0.0
H179 H 0.76834 0.90555 0.33452 0.0
H180 H 0.74761 0.87038 0.47754 0.0
H181 H 0.79971 0.87525 0.39742 0.0
C182 C 0.78054 0.89522 0.42214 0.0
C183 C 0.92669 0.18751 0.09625 0.0
H184 H 0.90417 0.17718 0.18387 0.0
H185 H 0.91859 0.21235 0.04084 0.0
H186 H 0.96583 0.20748 0.12097 0.0
O187 O 0.90891 0.09846 0.24882 0.0
O188 O 0.8786 0.07633 0.43745 0.0
C189 C 0.79423 0.09625 0.39242 0.0
O190 O 0.85181 0.98426 0.2696 0.0
O191 O 0.84363 1.0064 0.08096 0.0
Zn192 Zn 0.69414 0.58669 1.00879 0.0
O193 O 0.64361 0.6039 0.12266 0.0
C194 C 0.65007 0.51124 0.20012 0.0
Zn195 Zn 0.73696 0.6081 0.17627 0.0
C196 C 0.66067 0.62936 0.22576 0.0
O197 O 0.70414 0.64313 0.25841 0.0
C198 C 0.78103 0.57672 0.98495 0.0
O199 O 0.7875 0.67584 0.06241 0.0
O200 O 0.72697 0.65455 0.92664 0.0
N201 N 0.77841 0.61795 0.33546 0.0
C202 C 0.81795 0.61232 0.33664 0.0
C203 C 0.77775 0.57927 0.50568 0.0
N204 N 0.75367 0.59743 0.441 0.0
N205 N 0.81752 0.58663 0.44067 0.0
C206 C 0.61315 0.50992 0.84842 0.0
C207 C 0.65336 0.51709 0.67938 0.0
N208 N 0.65269 0.55509 0.8496 0.0
N209 N 0.67743 0.55931 0.74406 0.0
N210 N 0.61359 0.48467 0.74439 0.0
H211 H 0.57972 0.51942 0.01712 0.0
H212 H 0.54459 0.50502 0.87402 0.0
H213 H 0.54941 0.45777 0.9542 0.0
C214 C 0.5694 0.4969 0.9295 0.0
C215 C 0.8617 0.64305 0.25556 0.0
H216 H 0.85139 0.65526 0.16793 0.0
H217 H 0.88651 0.67598 0.31104 0.0
H218 H 0.88169 0.62391 0.23085 0.0
O219 O 0.77264 0.57176 0.10293 0.0
O220 O 0.75053 0.57999 0.91429 0.0
C221 C 0.77044 0.68424 0.95933 0.0
O222 O 0.65847 0.51468 0.08214 0.0
O223 O 0.68057 0.54501 0.27077 0.0
Zn224 Zn 0.50357 0.1413 1.00879 0.0
O225 O 0.48636 0.07356 0.12267 0.0
C226 C 0.57902 0.17268 0.20012 0.0
Zn227 Zn 0.48216 0.16271 0.17627 0.0
C228 C 0.4609 0.06515 0.22576 0.0
O229 O 0.44713 0.09486 0.25841 0.0
C230 C 0.51354 0.23815 0.98494 0.0
O231 O 0.41442 0.14551 0.0624 0.0
O232 O 0.43571 0.10627 0.92664 0.0
N233 N 0.47232 0.19432 0.33545 0.0
C234 C 0.47794 0.23948 0.33664 0.0
C235 C 0.51099 0.23232 0.5057 0.0
N236 N 0.49285 0.1901 0.44101 0.0
N237 N 0.50362 0.26473 0.44068 0.0
C238 C 0.58034 0.13707 0.84842 0.0
C239 C 0.57316 0.17011 0.67935 0.0
N240 N 0.53517 0.13145 0.8496 0.0
N241 N 0.53095 0.15197 0.74405 0.0
N242 N 0.60558 0.16275 0.74437 0.0
H243 H 0.57084 0.09415 0.01715 0.0
H244 H 0.58523 0.07341 0.87407 0.0
H245 H 0.6325 0.12549 0.95423 0.0
C246 C 0.59336 0.10635 0.92953 0.0
C247 C 0.44721 0.2525 0.25552 0.0
H248 H 0.43501 0.22998 0.1679 0.0
H249 H 0.41429 0.24438 0.31098 0.0
H250 H 0.46636 0.29164 0.23081 0.0
O251 O 0.5185 0.23471 0.10292 0.0
O252 O 0.51027 0.20439 0.91429 0.0
C253 C 0.40601 0.12004 0.95932 0.0
O254 O 0.57557 0.17763 0.08214 0.0
O255 O 0.54526 0.16941 0.27077 0.0
Zn256 Zn 0.94895 0.3961 1.0088 0.0
O257 O 1.01669 0.44664 0.12267 0.0
C258 C 0.91757 0.44017 0.20011 0.0
Zn259 Zn 0.92754 0.35328 0.17627 0.0
C260 C 0.0251 0.42958 0.22576 0.0
O261 O 0.9954 0.38611 0.25842 0.0
C262 C 0.85209 0.30922 0.98493 0.0
O263 O 0.94475 0.30275 0.0624 0.0
O264 O 0.98398 0.36328 0.92666 0.0
N265 N 0.89594 0.31183 0.33546 0.0
C266 C 0.85077 0.27229 0.33664 0.0
C267 C 0.85794 0.3125 0.50569 0.0
N268 N 0.90016 0.33658 0.44101 0.0
N269 N 0.82552 0.27272 0.44068 0.0
C270 C 0.95318 0.47709 0.84842 0.0
C271 C 0.92013 0.43688 0.67937 0.0
N272 N 0.9588 0.43755 0.84961 0.0
N273 N 0.93827 0.41281 0.74406 0.0
N274 N 0.92749 0.47666 0.74438 0.0
H275 H 0.99611 0.51052 0.01715 0.0
H276 H 1.01683 0.54565 0.87406 0.0
H277 H 0.96476 0.54083 0.95423 0.0
C278 C 0.9839 0.52084 0.92953 0.0
C279 C 0.83775 0.22854 0.25554 0.0
H280 H 0.86027 0.23886 0.16792 0.0
H281 H 0.84587 0.20373 0.31102 0.0
H282 H 0.79861 0.20855 0.23084 0.0
O283 O 0.85554 0.31762 0.10291 0.0
O284 O 0.88586 0.33971 0.91428 0.0
C285 C 0.97021 0.31981 0.95933 0.0
O286 O 0.91262 0.43177 0.08213 0.0
O287 O 0.92084 0.40967 0.27077 0.0
Zn288 Zn 0.73697 0.1627 0.67627 0.0
O289 O 0.7875 0.14549 0.56242 0.0
C290 C 0.78103 0.23815 0.48492 0.0
Zn291 Zn 0.69414 0.14128 0.50879 0.0
C292 C 0.77044 0.12003 0.45933 0.0
O293 O 0.72697 0.10627 0.42665 0.0
C294 C 0.65008 0.17267 0.70012 0.0
O295 O 0.64361 0.07354 0.62264 0.0
O296 O 0.70414 0.09485 0.75842 0.0
N297 N 0.65269 0.13142 0.34961 0.0
C298 C 0.61314 0.13703 0.34839 0.0
C299 C 0.65334 0.17007 0.17932 0.0
N300 N 0.67743 0.15194 0.24406 0.0
N301 N 0.61354 0.16266 0.24428 0.0
C302 C 0.81797 0.23945 0.83667 0.0
C303 C 0.77777 0.23228 1.00573 0.0
N304 N 0.77842 0.19429 0.83545 0.0
N305 N 0.75368 0.19007 0.941 0.0
N306 N 0.81757 0.26468 0.94078 0.0
H307 H 0.85137 0.22997 0.66788 0.0
H308 H 0.88654 0.24439 0.81092 0.0
H309 H 0.88167 0.29162 0.73077 0.0
C310 C 0.8617 0.25249 0.75549 0.0
C311 C 0.56941 0.10634 0.42957 0.0
H312 H 0.57974 0.09414 0.51718 0.0
H313 H 0.54457 0.0734 0.37414 0.0
H314 H 0.54944 0.1255 0.45428 0.0
O315 O 0.65845 0.1776 0.58213 0.0
O316 O 0.68059 0.16943 0.77077 0.0
C317 C 0.66066 0.06514 0.72576 0.0
O318 O 0.77266 0.23471 0.60292 0.0
O319 O 0.75051 0.20439 0.41428 0.0
Zn320 Zn 0.94895 0.58668 0.5088 0.0
O321 O 1.01669 0.60389 0.62266 0.0
C322 C 0.91756 0.51123 0.70013 0.0
Zn323 Zn 0.92753 0.60809 0.67627 0.0
C324 C 0.0251 0.62935 0.72576 0.0
O325 O 0.99539 0.64311 0.75843 0.0
C326 C 0.85209 0.5767 0.48492 0.0
O327 O 0.94475 0.67584 0.56241 0.0
O328 O 0.98397 0.65453 0.42664 0.0
N329 N 0.89594 0.61794 0.83545 0.0
C330 C 0.85078 0.61235 0.83667 0.0
C331 C 0.85796 0.57932 1.00576 0.0
N332 N 0.90016 0.59742 0.94101 0.0
N333 N 0.82557 0.58672 0.9408 0.0
C334 C 0.9532 0.50993 0.3484 0.0
C335 C 0.92017 0.5171 0.1793 0.0
N336 N 0.9588 0.55508 0.34962 0.0
N337 N 0.93828 0.55931 0.24405 0.0
N338 N 0.92758 0.48471 0.24426 0.0
H339 H 0.99609 0.51942 0.51722 0.0
H340 H 1.01683 0.50499 0.3742 0.0
H341 H 0.96473 0.45776 0.45432 0.0
C342 C 0.9839 0.49689 0.4296 0.0
C343 C 0.83775 0.64304 0.75546 0.0
H344 H 0.86027 0.65523 0.66785 0.0
H345 H 0.84585 0.67597 0.81087 0.0
H346 H 0.79861 0.62387 0.73075 0.0
O347 O 0.85553 0.57177 0.60292 0.0
O348 O 0.88584 0.57995 0.41428 0.0
C349 C 0.97021 0.68423 0.45933 0.0
O350 O 0.91263 0.51467 0.58214 0.0
O351 O 0.92081 0.54499 0.77078 0.0
Zn352 Zn 0.48216 0.35328 0.67626 0.0
O353 O 0.41441 0.30275 0.56242 0.0
C354 C 0.51354 0.30923 0.48493 0.0
Zn355 Zn 0.50357 0.39611 0.50879 0.0
C356 C 0.40601 0.31981 0.45933 0.0
O357 O 0.43571 0.36327 0.42663 0.0
C358 C 0.57902 0.44017 0.70014 0.0
O359 O 0.48635 0.44664 0.62266 0.0
O360 O 0.44714 0.38611 0.75841 0.0
N361 N 0.53516 0.43756 0.34961 0.0
C362 C 0.58032 0.47712 0.34839 0.0
C363 C 0.57314 0.43691 0.17932 0.0
N364 N 0.53094 0.41282 0.24405 0.0
N365 N 0.60554 0.47671 0.24427 0.0
C366 C 0.4779 0.27228 0.83666 0.0
C367 C 0.51094 0.31248 1.00574 0.0
N368 N 0.4723 0.31184 0.83544 0.0
N369 N 0.49283 0.33658 0.941 0.0
N370 N 0.50354 0.27268 0.94079 0.0
H371 H 0.43501 0.23888 0.66785 0.0
H372 H 0.41428 0.20371 0.81087 0.0
H373 H 0.46638 0.20859 0.73074 0.0
C374 C 0.44721 0.22855 0.75546 0.0
C375 C 0.59335 0.52085 0.42958 0.0
H376 H 0.57083 0.51052 0.5172 0.0
H377 H 0.58525 0.54568 0.37416 0.0
H378 H 0.63249 0.54082 0.4543 0.0
O379 O 0.57558 0.4318 0.58215 0.0
O380 O 0.54526 0.40966 0.77078 0.0
C381 C 0.4609 0.42958 0.72575 0.0
O382 O 0.51848 0.3176 0.60293 0.0
O383 O 0.5103 0.33974 0.41429 0.0
Zn384 Zn 0.36081 0.92003 0.34213 0.0
O385 O 0.31027 0.93723 0.45599 0.0
C386 C 0.31674 0.84458 0.53346 0.0
Zn387 Zn 0.40363 0.94144 0.50961 0.0
C388 C 0.32734 0.96269 0.55907 0.0
O389 O 0.37081 0.97647 0.59175 0.0
C390 C 0.4477 0.91006 0.31829 0.0
O391 O 0.45417 1.00917 0.39575 0.0
O392 O 0.39363 0.98788 0.25998 0.0
N393 N 0.44508 0.95129 0.6688 0.0
C394 C 0.48462 0.94566 0.66998 0.0
C395 C 0.44441 0.91261 0.83902 0.0
N396 N 0.42034 0.93076 0.77434 0.0
N397 N 0.48418 0.91997 0.77401 0.0
C398 C 0.27982 0.84325 0.18175 0.0
C399 C 0.32003 0.85042 0.01272 0.0
N400 N 0.31936 0.88842 0.18294 0.0
N401 N 0.3441 0.89264 0.0774 0.0
N402 N 0.28025 0.818 0.07773 0.0
H403 H 0.24639 0.85275 0.35046 0.0
H404 H 0.21126 0.83835 0.20735 0.0
H405 H 0.21608 0.7911 0.28754 0.0
C406 C 0.23607 0.83023 0.26284 0.0
C407 C 0.52837 0.97639 0.5889 0.0
H408 H 0.51805 0.98859 0.50128 0.0
H409 H 0.55318 1.00931 0.64438 0.0
H410 H 0.54836 0.95724 0.56419 0.0
O411 O 0.4393 0.9051 0.43627 0.0
O412 O 0.4172 0.91332 0.24763 0.0
C413 C 0.4371 0.01758 0.29266 0.0
O414 O 0.32514 0.84802 0.41548 0.0
O415 O 0.34724 0.87834 0.60411 0.0
Zn416 Zn 0.14883 0.49604 0.50961 0.0
O417 O 0.08109 0.47884 0.39574 0.0
C418 C 0.18021 0.57149 0.31829 0.0
Zn419 Zn 0.17023 0.47463 0.34213 0.0
C420 C 0.07268 0.45337 0.29266 0.0
O421 O 0.10238 0.4396 0.25998 0.0
C422 C 0.24568 0.50601 0.53346 0.0
O423 O 0.15303 0.40689 0.456 0.0
O424 O 0.1138 0.42819 0.59175 0.0
N425 N 0.20184 0.46479 0.18294 0.0
C426 C 0.24701 0.47041 0.18176 0.0
C427 C 0.23984 0.50345 0.01269 0.0
N428 N 0.19762 0.48531 0.07738 0.0
N429 N 0.27225 0.49608 0.07771 0.0
C430 C 0.14461 0.57281 0.66998 0.0
C431 C 0.17765 0.56565 0.83904 0.0
N432 N 0.13899 0.52765 0.66879 0.0
N433 N 0.15951 0.52343 0.77435 0.0
N434 N 0.17029 0.59806 0.77403 0.0
H435 H 0.10167 0.56331 0.50124 0.0
H436 H 0.08095 0.57771 0.64432 0.0
H437 H 0.13302 0.62497 0.56416 0.0
C438 C 0.11388 0.58583 0.58886 0.0
C439 C 0.26003 0.43968 0.26287 0.0
H440 H 0.23751 0.42748 0.35049 0.0
H441 H 0.2519 0.40675 0.2074 0.0
H442 H 0.29916 0.45882 0.28757 0.0
O443 O 0.24224 0.51097 0.41548 0.0
O444 O 0.21192 0.50275 0.60411 0.0
C445 C 0.12756 0.39849 0.55907 0.0
O446 O 0.18516 0.56805 0.43627 0.0
O447 O 0.17694 0.53773 0.24763 0.0
Zn448 Zn 0.61562 0.72943 0.34213 0.0
O449 O 0.68336 0.77997 0.45599 0.0
C450 C 0.58424 0.7735 0.53345 0.0
Zn451 Zn 0.59421 0.68662 0.50961 0.0
C452 C 0.69176 0.76291 0.55908 0.0
O453 O 0.66207 0.71944 0.59176 0.0
C454 C 0.51876 0.64255 0.31828 0.0
O455 O 0.61142 0.63608 0.39574 0.0
O456 O 0.65065 0.69662 0.25999 0.0
N457 N 0.56261 0.64517 0.6688 0.0
C458 C 0.51744 0.60562 0.66998 0.0
C459 C 0.52461 0.64583 0.83903 0.0
N460 N 0.56683 0.66991 0.77435 0.0
N461 N 0.49219 0.60605 0.77402 0.0
C462 C 0.61984 0.81043 0.18176 0.0
C463 C 0.58679 0.77022 0.01271 0.0
N464 N 0.62546 0.77088 0.18295 0.0
N465 N 0.60494 0.74614 0.0774 0.0
N466 N 0.59415 0.80999 0.07772 0.0
H467 H 0.66278 0.84386 0.35049 0.0
H468 H 0.6835 0.87899 0.2074 0.0
H469 H 0.63143 0.87416 0.28757 0.0
C470 C 0.65057 0.85417 0.26287 0.0
C471 C 0.50442 0.56188 0.58889 0.0
H472 H 0.52694 0.57219 0.50126 0.0
H473 H 0.51254 0.53707 0.64436 0.0
H474 H 0.46528 0.54188 0.56418 0.0
O475 O 0.5222 0.65095 0.43625 0.0
O476 O 0.55252 0.67304 0.24762 0.0
C477 C 0.63688 0.65315 0.29266 0.0
O478 O 0.57928 0.7651 0.41547 0.0
O479 O 0.58751 0.74301 0.60411 0.0
Zn480 Zn 0.40364 0.49603 0.00961 0.0
O481 O 0.45417 0.47882 0.89576 0.0
C482 C 0.44769 0.57148 0.81826 0.0
Zn483 Zn 0.3608 0.47462 0.84213 0.0
C484 C 0.43711 0.45336 0.79267 0.0
O485 O 0.39364 0.4396 0.75998 0.0
C486 C 0.31675 0.50601 0.03346 0.0
O487 O 0.31027 0.40688 0.95597 0.0
O488 O 0.3708 0.42818 0.09177 0.0
N489 N 0.31936 0.46476 0.68294 0.0
C490 C 0.2798 0.47037 0.68173 0.0
C491 C 0.32001 0.5034 0.51266 0.0
N492 N 0.3441 0.48528 0.5774 0.0
N493 N 0.28021 0.496 0.57761 0.0
C494 C 0.48464 0.57278 0.17001 0.0
C495 C 0.44444 0.56561 0.33907 0.0
N496 N 0.44509 0.52763 0.16879 0.0
N497 N 0.42035 0.5234 0.27434 0.0
N498 N 0.48423 0.59801 0.27412 0.0
H499 H 0.51804 0.5633 1.00122 0.0
H500 H 0.55321 0.57773 0.14426 0.0
H501 H 0.54834 0.62495 0.06412 0.0
C502 C 0.52837 0.58582 0.08884 0.0
C503 C 0.23608 0.43967 0.76291 0.0
H504 H 0.2464 0.42747 0.85052 0.0
H505 H 0.21123 0.40674 0.70748 0.0
H506 H 0.21611 0.45884 0.78763 0.0
O507 O 0.32512 0.51094 0.91547 0.0
O508 O 0.34726 0.50276 0.10411 0.0
C509 C 0.32733 0.39848 0.05907 0.0
O510 O 0.43933 0.56804 0.93626 0.0
O511 O 0.41718 0.53772 0.74762 0.0
Zn512 Zn 0.61561 0.92001 0.84213 0.0
O513 O 0.68336 0.93722 0.95598 0.0
C514 C 0.58423 0.84457 0.03347 0.0
Zn515 Zn 0.5942 0.94143 0.00961 0.0
C516 C 0.69176 0.96268 0.05907 0.0
O517 O 0.66206 0.97644 0.09177 0.0
C518 C 0.51876 0.91004 0.81826 0.0
O519 O 0.61142 1.00917 0.89575 0.0
O520 O 0.65063 0.98786 0.75998 0.0
N521 N 0.56261 0.95128 0.16879 0.0
C522 C 0.51745 0.94568 0.17001 0.0
C523 C 0.52463 0.91265 0.3391 0.0
N524 N 0.56683 0.93076 0.27435 0.0
N525 N 0.49223 0.92006 0.27414 0.0
C526 C 0.61987 0.84326 0.68173 0.0
C527 C 0.58683 0.85043 0.51264 0.0
N528 N 0.62546 0.88841 0.68295 0.0
N529 N 0.60494 0.89264 0.57739 0.0
N530 N 0.59424 0.81804 0.5776 0.0
H531 H 0.66276 0.85275 0.85056 0.0
H532 H 0.6835 0.83832 0.70754 0.0
H533 H 0.6314 0.79109 0.78766 0.0
C534 C 0.65056 0.83022 0.76294 0.0
C535 C 0.50442 0.97637 0.08881 0.0
H536 H 0.52694 0.98857 1.00119 0.0
H537 H 0.51252 1.00931 0.14421 0.0
H538 H 0.46528 0.95721 0.06409 0.0
O539 O 0.5222 0.90511 0.93626 0.0
O540 O 0.55251 0.91328 0.74762 0.0
C541 C 0.63688 0.01757 0.79266 0.0
O542 O 0.57929 0.84801 0.91548 0.0
O543 O 0.58748 0.87832 0.10412 0.0
Zn544 Zn 0.17024 0.72945 0.84213 0.0
O545 O 0.15302 0.77998 0.95598 0.0
C546 C 0.24568 0.7735 0.03348 0.0
Zn547 Zn 0.14882 0.68661 0.00961 0.0
C548 C 0.12756 0.76291 0.05907 0.0
O549 O 0.1138 0.71945 0.09175 0.0
C550 C 0.18021 0.64256 0.81828 0.0
O551 O 0.08108 0.63608 0.89576 0.0
O552 O 0.10238 0.69661 0.75996 0.0
N553 N 0.13897 0.64517 0.16878 0.0
C554 C 0.14457 0.60561 0.17 0.0
C555 C 0.17761 0.64582 0.33908 0.0
N556 N 0.15949 0.66991 0.27434 0.0
N557 N 0.1702 0.60602 0.27413 0.0
C558 C 0.24699 0.81045 0.68173 0.0
C559 C 0.23981 0.77025 0.51265 0.0
N560 N 0.20183 0.77089 0.68294 0.0
N561 N 0.19761 0.74615 0.57739 0.0
N562 N 0.27221 0.81005 0.57761 0.0
H563 H 0.2375 0.84385 0.85053 0.0
H564 H 0.25192 0.87902 0.7075 0.0
H565 H 0.29916 0.87415 0.78764 0.0
C566 C 0.26002 0.85418 0.76292 0.0
C567 C 0.11387 0.56189 0.08881 0.0
H568 H 0.10167 0.57221 1.00119 0.0
H569 H 0.08094 0.53704 0.14422 0.0
H570 H 0.13304 0.54192 0.06409 0.0
O571 O 0.18514 0.65093 0.93627 0.0
O572 O 0.17696 0.67307 0.74763 0.0
C573 C 0.07268 0.65314 0.79266 0.0
O574 O 0.24224 0.76513 0.91549 0.0
O575 O 0.21193 0.74299 0.10412 0.0
loop_
_geom_bond_atom_site_label_1
_geom_bond_atom_site_label_2
_geom_bond_distance
_geom_bond_site_symmetry_2
_ccdc_geom_bond_type
Zn0 O1 2.055 . S
Zn0 O8 2.046 1_655 S
Zn0 N16 2.036 . S
Zn0 O28 2.053 1_655 S
Zn0 O30 2.066 . S
O1 Zn0 2.055 . S
O1 C4 1.259 . S
C2 O30 1.256 . S
C2 O31 1.244 1_655 S
Zn3 O5 2.046 . S
Zn3 O7 2.055 . S
Zn3 N9 2.036 . S
Zn3 O27 2.066 . S
Zn3 O31 2.053 . S
C4 O1 1.259 . S
C4 O5 1.254 1_655 S
O5 Zn3 2.046 . S
O5 C4 1.254 1_455 S
C6 O27 1.256 . S
C6 O28 1.244 . S
O7 Zn3 2.055 . S
O7 C29 1.259 . S
O8 Zn0 2.046 1_455 S
O8 C29 1.254 . S
N9 Zn3 2.036 . S
N9 C10 1.298 . S
N9 N12 1.398 1_556 S
C10 N9 1.298 . S
C10 N13 1.367 1_556 S
C10 C23 1.481 . S
C11 N12 1.299 . S
C11 N13 1.379 . S
N12 N9 1.398 1_554 S
N12 C11 1.299 . S
N13 C10 1.367 1_554 S
N13 C11 1.379 . S
C14 N16 1.298 . S
C14 N18 1.367 . S
C14 C22 1.481 . S
C15 N17 1.299 . S
C15 N18 1.379 . S
N16 Zn0 2.036 . S
N16 C14 1.298 . S
N16 N17 1.398 . S
N17 C15 1.299 . S
N17 N16 1.398 . S
N18 C14 1.367 . S
N18 C15 1.379 . S
H19 C22 0.980 . S
H20 C22 0.981 . S
H21 C22 0.981 . S
C22 C14 1.481 . S
C22 H19 0.980 . S
C22 H20 0.981 . S
C22 H21 0.981 . S
C23 C10 1.481 . S
C23 H24 0.980 . S
C23 H25 0.981 . S
C23 H26 0.981 . S
H24 C23 0.980 . S
H25 C23 0.981 . S
H26 C23 0.981 . S
O27 Zn3 2.066 . S
O27 C6 1.256 . S
O28 Zn0 2.053 1_455 S
O28 C6 1.244 . S
C29 O7 1.259 . S
C29 O8 1.254 . S
O30 Zn0 2.066 . S
O30 C2 1.256 . S
O31 C2 1.244 1_455 S
O31 Zn3 2.053 . S
Zn32 O33 2.055 . S
Zn32 O40 2.046 . S
Zn32 N48 2.036 . S
Zn32 O60 2.053 . S
Zn32 O62 2.066 . S
O33 Zn32 2.055 . S
O33 C36 1.259 . S
C34 O62 1.256 . S
C34 O63 1.244 . S
Zn35 O37 2.046 . S
Zn35 O39 2.055 . S
Zn35 N41 2.036 . S
Zn35 O59 2.066 . S
Zn35 O63 2.053 . S
C36 O33 1.259 . S
C36 O37 1.254 . S
O37 Zn35 2.046 . S
O37 C36 1.254 . S
C38 O59 1.256 . S
C38 O60 1.244 . S
O39 Zn35 2.055 . S
O39 C61 1.259 . S
O40 Zn32 2.046 . S
O40 C61 1.254 . S
N41 Zn35 2.036 . S
N41 C42 1.298 . S
N41 N44 1.398 1_556 S
C42 N41 1.298 . S
C42 N45 1.367 1_556 S
C42 C55 1.481 . S
C43 N44 1.299 . S
C43 N45 1.379 . S
N44 N41 1.398 1_554 S
N44 C43 1.299 . S
N45 C42 1.367 1_554 S
N45 C43 1.379 . S
C46 N48 1.298 . S
C46 N50 1.367 . S
C46 C54 1.481 . S
C47 N49 1.299 . S
C47 N50 1.379 . S
N48 Zn32 2.036 . S
N48 C46 1.298 . S
N48 N49 1.398 . S
N49 C47 1.299 . S
N49 N48 1.398 . S
N50 C46 1.367 . S
N50 C47 1.379 . S
H51 C54 0.980 . S
H52 C54 0.981 . S
H53 C54 0.981 . S
C54 C46 1.481 . S
C54 H51 0.980 . S
C54 H52 0.981 . S
C54 H53 0.981 . S
C55 C42 1.481 . S
C55 H56 0.980 . S
C55 H57 0.981 . S
C55 H58 0.981 . S
H56 C55 0.980 . S
H57 C55 0.981 . S
H58 C55 0.981 . S
O59 Zn35 2.066 . S
O59 C38 1.256 . S
O60 Zn32 2.053 . S
O60 C38 1.244 . S
C61 O39 1.259 . S
C61 O40 1.254 . S
O62 Zn32 2.066 . S
O62 C34 1.256 . S
O63 C34 1.244 . S
O63 Zn35 2.053 . S
Zn64 O65 2.055 . S
Zn64 O72 2.046 1_565 S
Zn64 N80 2.036 . S
Zn64 O92 2.053 1_565 S
Zn64 O94 2.066 . S
O65 Zn64 2.055 . S
O65 C68 1.259 . S
C66 O94 1.256 . S
C66 O95 1.244 1_565 S
Zn67 O69 2.046 . S
Zn67 O71 2.055 . S
Zn67 N73 2.036 . S
Zn67 O91 2.066 . S
Zn67 O95 2.053 . S
C68 O65 1.259 . S
C68 O69 1.254 1_565 S
O69 Zn67 2.046 . S
O69 C68 1.254 1_545 S
C70 O91 1.256 . S
C70 O92 1.244 . S
O71 Zn67 2.055 . S
O71 C93 1.259 . S
O72 Zn64 2.046 1_545 S
O72 C93 1.254 . S
N73 Zn67 2.036 . S
N73 C74 1.298 . S
N73 N76 1.398 . S
C74 N73 1.298 . S
C74 N77 1.367 . S
C74 C87 1.481 . S
C75 N76 1.299 . S
C75 N77 1.379 . S
N76 N73 1.398 . S
N76 C75 1.299 . S
N77 C74 1.367 . S
N77 C75 1.379 . S
C78 N80 1.298 . S
C78 N82 1.367 1_556 S
C78 C86 1.481 . S
C79 N81 1.299 . S
C79 N82 1.379 . S
N80 Zn64 2.036 . S
N80 C78 1.298 . S
N80 N81 1.398 1_556 S
N81 C79 1.299 . S
N81 N80 1.398 1_554 S
N82 C78 1.367 1_554 S
N82 C79 1.379 . S
H83 C86 0.980 . S
H84 C86 0.981 . S
H85 C86 0.981 . S
C86 C78 1.481 . S
C86 H83 0.980 . S
C86 H84 0.981 . S
C86 H85 0.981 . S
C87 C74 1.481 . S
C87 H88 0.980 . S
C87 H89 0.981 . S
C87 H90 0.981 . S
H88 C87 0.980 . S
H89 C87 0.981 . S
H90 C87 0.981 . S
O91 Zn67 2.066 . S
O91 C70 1.256 . S
O92 Zn64 2.053 1_545 S
O92 C70 1.244 . S
C93 O71 1.259 . S
C93 O72 1.254 . S
O94 Zn64 2.066 . S
O94 C66 1.256 . S
O95 C66 1.244 1_545 S
O95 Zn67 2.053 . S
Zn96 O97 2.055 . S
Zn96 O104 2.046 . S
Zn96 N112 2.036 . S
Zn96 O124 2.053 . S
Zn96 O126 2.066 . S
O97 Zn96 2.055 . S
O97 C100 1.259 . S
C98 O126 1.256 . S
C98 O127 1.244 . S
Zn99 O101 2.046 1_655 S
Zn99 O103 2.055 . S
Zn99 N105 2.036 . S
Zn99 O123 2.066 . S
Zn99 O127 2.053 1_655 S
C100 O97 1.259 . S
C100 O101 1.254 . S
O101 Zn99 2.046 1_455 S
O101 C100 1.254 . S
C102 O123 1.256 . S
C102 O124 1.244 1_655 S
O103 Zn99 2.055 . S
O103 C125 1.259 . S
O104 Zn96 2.046 . S
O104 C125 1.254 1_455 S
N105 Zn99 2.036 . S
N105 C106 1.298 . S
N105 N108 1.398 1_554 S
C106 N105 1.298 . S
C106 N109 1.367 1_554 S
C106 C119 1.481 . S
C107 N108 1.299 . S
C107 N109 1.379 . S
N108 N105 1.398 1_556 S
N108 C107 1.299 . S
N109 C106 1.367 1_556 S
N109 C107 1.379 . S
C110 N112 1.298 . S
C110 N114 1.367 . S
C110 C118 1.481 . S
C111 N113 1.299 . S
C111 N114 1.379 . S
N112 Zn96 2.036 . S
N112 C110 1.298 . S
N112 N113 1.398 . S
N113 C111 1.299 . S
N113 N112 1.398 . S
N114 C110 1.367 . S
N114 C111 1.379 . S
H115 C118 0.980 . S
H116 C118 0.981 . S
H117 C118 0.981 . S
C118 C110 1.481 . S
C118 H115 0.980 . S
C118 H116 0.981 . S
C118 H117 0.981 . S
C119 C106 1.481 . S
C119 H120 0.980 . S
C119 H121 0.981 . S
C119 H122 0.981 . S
H120 C119 0.980 . S
H121 C119 0.981 . S
H122 C119 0.981 . S
O123 Zn99 2.066 . S
O123 C102 1.256 . S
O124 Zn96 2.053 . S
O124 C102 1.244 1_455 S
C125 O103 1.259 . S
C125 O104 1.254 1_655 S
O126 Zn96 2.066 . S
O126 C98 1.256 . S
O127 C98 1.244 . S
O127 Zn99 2.053 1_455 S
Zn128 O129 2.055 . S
Zn128 O136 2.046 . S
Zn128 N144 2.036 . S
Zn128 O156 2.053 . S
Zn128 O158 2.066 . S
O129 Zn128 2.055 . S
O129 C132 1.259 . S
C130 O158 1.256 . S
C130 O159 1.244 . S
Zn131 O133 2.046 . S
Zn131 O135 2.055 . S
Zn131 N137 2.036 . S
Zn131 O155 2.066 . S
Zn131 O159 2.053 . S
C132 O129 1.259 . S
C132 O133 1.254 . S
O133 Zn131 2.046 . S
O133 C132 1.254 . S
C134 O155 1.256 . S
C134 O156 1.244 . S
O135 Zn131 2.055 . S
O135 C157 1.259 . S
O136 Zn128 2.046 . S
O136 C157 1.254 . S
N137 Zn131 2.036 . S
N137 C138 1.298 . S
N137 N140 1.398 1_554 S
C138 N137 1.298 . S
C138 N141 1.367 1_554 S
C138 C151 1.481 . S
C139 N140 1.299 . S
C139 N141 1.379 . S
N140 N137 1.398 1_556 S
N140 C139 1.299 . S
N141 C138 1.367 1_556 S
N141 C139 1.379 . S
C142 N144 1.298 . S
C142 N146 1.367 . S
C142 C150 1.481 . S
C143 N145 1.299 . S
C143 N146 1.379 . S
N144 Zn128 2.036 . S
N144 C142 1.298 . S
N144 N145 1.398 . S
N145 C143 1.299 . S
N145 N144 1.398 . S
N146 C142 1.367 . S
N146 C143 1.379 . S
H147 C150 0.980 . S
H148 C150 0.981 . S
H149 C150 0.981 . S
C150 C142 1.481 . S
C150 H147 0.980 . S
C150 H148 0.981 . S
C150 H149 0.981 . S
C151 C138 1.481 . S
C151 H152 0.980 . S
C151 H153 0.981 . S
C151 H154 0.981 . S
H152 C151 0.980 . S
H153 C151 0.981 . S
H154 C151 0.981 . S
O155 Zn131 2.066 . S
O155 C134 1.256 . S
O156 Zn128 2.053 . S
O156 C134 1.244 . S
C157 O135 1.259 . S
C157 O136 1.254 . S
O158 Zn128 2.066 . S
O158 C130 1.256 . S
O159 C130 1.244 . S
O159 Zn131 2.053 . S
Zn160 O161 2.055 . S
Zn160 O168 2.046 1_565 S
Zn160 N176 2.036 . S
Zn160 O188 2.053 1_565 S
Zn160 O190 2.066 . S
O161 Zn160 2.055 . S
O161 C164 1.259 . S
C162 O190 1.256 . S
C162 O191 1.244 1_565 S
Zn163 O165 2.046 . S
Zn163 O167 2.055 . S
Zn163 N169 2.036 . S
Zn163 O187 2.066 . S
Zn163 O191 2.053 . S
C164 O161 1.259 . S
C164 O165 1.254 1_565 S
O165 Zn163 2.046 . S
O165 C164 1.254 1_545 S
C166 O187 1.256 . S
C166 O188 1.244 . S
O167 Zn163 2.055 . S
O167 C189 1.259 . S
O168 Zn160 2.046 1_545 S
O168 C189 1.254 . S
N169 Zn163 2.036 . S
N169 C170 1.298 . S
N169 N172 1.398 1_554 S
C170 N169 1.298 . S
C170 N173 1.367 1_554 S
C170 C183 1.481 . S
C171 N172 1.299 . S
C171 N173 1.379 . S
N172 N169 1.398 1_556 S
N172 C171 1.299 . S
N173 C170 1.367 1_556 S
N173 C171 1.379 . S
C174 N176 1.298 . S
C174 N178 1.367 . S
C174 C182 1.481 . S
C175 N177 1.299 . S
C175 N178 1.379 . S
N176 Zn160 2.036 . S
N176 C174 1.298 . S
N176 N177 1.398 . S
N177 C175 1.299 . S
N177 N176 1.398 . S
N178 C174 1.367 . S
N178 C175 1.379 . S
H179 C182 0.980 . S
H180 C182 0.981 . S
H181 C182 0.981 . S
C182 C174 1.481 . S
C182 H179 0.980 . S
C182 H180 0.981 . S
C182 H181 0.981 . S
C183 C170 1.481 . S
C183 H184 0.980 . S
C183 H185 0.981 . S
C183 H186 0.981 . S
H184 C183 0.980 . S
H185 C183 0.981 . S
H186 C183 0.981 . S
O187 Zn163 2.066 . S
O187 C166 1.256 . S
O188 Zn160 2.053 1_545 S
O188 C166 1.244 . S
C189 O167 1.259 . S
C189 O168 1.254 . S
O190 Zn160 2.066 . S
O190 C162 1.256 . S
O191 C162 1.244 1_545 S
O191 Zn163 2.053 . S
Zn192 O193 2.055 1_556 S
Zn192 O200 2.046 . S
Zn192 N208 2.036 . S
Zn192 O220 2.053 . S
Zn192 O222 2.066 1_556 S
O193 Zn192 2.055 1_554 S
O193 C196 1.259 . S
C194 O222 1.256 . S
C194 O223 1.244 . S
Zn195 O197 2.046 . S
Zn195 O199 2.055 . S
Zn195 N201 2.036 . S
Zn195 O219 2.066 . S
Zn195 O223 2.053 . S
C196 O193 1.259 . S
C196 O197 1.254 . S
O197 Zn195 2.046 . S
O197 C196 1.254 . S
C198 O219 1.256 1_556 S
C198 O220 1.244 . S
O199 Zn195 2.055 . S
O199 C221 1.259 1_554 S
O200 Zn192 2.046 . S
O200 C221 1.254 . S
N201 Zn195 2.036 . S
N201 C202 1.298 . S
N201 N204 1.398 . S
C202 N201 1.298 . S
C202 N205 1.367 . S
C202 C215 1.481 . S
C203 N204 1.299 . S
C203 N205 1.379 . S
N204 N201 1.398 . S
N204 C203 1.299 . S
N205 C202 1.367 . S
N205 C203 1.379 . S
C206 N208 1.298 . S
C206 N210 1.367 . S
C206 C214 1.481 . S
C207 N209 1.299 . S
C207 N210 1.379 . S
N208 Zn192 2.036 . S
N208 C206 1.298 . S
N208 N209 1.398 . S
N209 C207 1.299 . S
N209 N208 1.398 . S
N210 C206 1.367 . S
N210 C207 1.379 . S
H211 C214 0.980 1_554 S
H212 C214 0.981 . S
H213 C214 0.983 . S
C214 C206 1.481 . S
C214 H211 0.980 1_556 S
C214 H212 0.981 . S
C214 H213 0.983 . S
C215 C202 1.481 . S
C215 H216 0.980 . S
C215 H217 0.981 . S
C215 H218 0.981 . S
H216 C215 0.980 . S
H217 C215 0.981 . S
H218 C215 0.981 . S
O219 Zn195 2.066 . S
O219 C198 1.256 1_554 S
O220 Zn192 2.053 . S
O220 C198 1.244 . S
C221 O199 1.259 1_556 S
C221 O200 1.254 . S
O222 Zn192 2.066 1_554 S
O222 C194 1.256 . S
O223 C194 1.244 . S
O223 Zn195 2.053 . S
Zn224 O225 2.055 1_556 S
Zn224 O232 2.046 . S
Zn224 N240 2.036 . S
Zn224 O252 2.053 . S
Zn224 O254 2.066 1_556 S
O225 Zn224 2.055 1_554 S
O225 C228 1.259 . S
C226 O254 1.256 . S
C226 O255 1.244 . S
Zn227 O229 2.046 . S
Zn227 O231 2.055 . S
Zn227 N233 2.036 . S
Zn227 O251 2.066 . S
Zn227 O255 2.053 . S
C228 O225 1.259 . S
C228 O229 1.254 . S
O229 Zn227 2.046 . S
O229 C228 1.254 . S
C230 O251 1.256 1_556 S
C230 O252 1.244 . S
O231 Zn227 2.055 . S
O231 C253 1.259 1_554 S
O232 Zn224 2.046 . S
O232 C253 1.254 . S
N233 Zn227 2.036 . S
N233 C234 1.298 . S
N233 N236 1.398 . S
C234 N233 1.298 . S
C234 N237 1.367 . S
C234 C247 1.481 . S
C235 N236 1.299 . S
C235 N237 1.379 . S
N236 N233 1.398 . S
N236 C235 1.299 . S
N237 C234 1.367 . S
N237 C235 1.379 . S
C238 N240 1.298 . S
C238 N242 1.367 . S
C238 C246 1.481 . S
C239 N241 1.299 . S
C239 N242 1.379 . S
N240 Zn224 2.036 . S
N240 C238 1.298 . S
N240 N241 1.398 . S
N241 C239 1.299 . S
N241 N240 1.398 . S
N242 C238 1.367 . S
N242 C239 1.379 . S
H243 C246 0.980 1_554 S
H244 C246 0.981 1_565 S
H245 C246 0.983 . S
C246 C238 1.481 . S
C246 H243 0.980 1_556 S
C246 H244 0.981 1_545 S
C246 H245 0.983 . S
C247 C234 1.481 . S
C247 H248 0.980 . S
C247 H249 0.981 . S
C247 H250 0.981 . S
H248 C247 0.980 . S
H249 C247 0.981 . S
H250 C247 0.981 . S
O251 Zn227 2.066 . S
O251 C230 1.256 1_554 S
O252 Zn224 2.053 . S
O252 C230 1.244 . S
C253 O231 1.259 1_556 S
C253 O232 1.254 . S
O254 Zn224 2.066 1_554 S
O254 C226 1.256 . S
O255 C226 1.244 . S
O255 Zn227 2.053 . S
Zn256 O257 2.055 1_656 S
Zn256 O264 2.046 . S
Zn256 N272 2.036 . S
Zn256 O284 2.053 . S
Zn256 O286 2.066 1_556 S
O257 Zn256 2.055 1_454 S
O257 C260 1.259 . S
C258 O286 1.256 . S
C258 O287 1.244 . S
Zn259 O261 2.046 . S
Zn259 O263 2.055 . S
Zn259 N265 2.036 . S
Zn259 O283 2.066 . S
Zn259 O287 2.053 . S
C260 O257 1.259 . S
C260 O261 1.254 1_455 S
O261 Zn259 2.046 . S
O261 C260 1.254 1_655 S
C262 O283 1.256 1_556 S
C262 O284 1.244 . S
O263 Zn259 2.055 . S
O263 C285 1.259 1_554 S
O264 Zn256 2.046 . S
O264 C285 1.254 . S
N265 Zn259 2.036 . S
N265 C266 1.298 . S
N265 N268 1.398 . S
C266 N265 1.298 . S
C266 N269 1.367 . S
C266 C279 1.481 . S
C267 N268 1.299 . S
C267 N269 1.379 . S
N268 N265 1.398 . S
N268 C267 1.299 . S
N269 C266 1.367 . S
N269 C267 1.379 . S
C270 N272 1.298 . S
C270 N274 1.367 . S
C270 C278 1.481 1_655 S
C271 N273 1.299 . S
C271 N274 1.379 . S
N272 Zn256 2.036 . S
N272 C270 1.298 . S
N272 N273 1.398 . S
N273 C271 1.299 . S
N273 N272 1.398 . S
N274 C270 1.367 . S
N274 C271 1.379 . S
H275 C278 0.980 1_554 S
H276 C278 0.981 . S
H277 C278 0.983 . S
C278 C270 1.481 1_455 S
C278 H275 0.980 1_556 S
C278 H276 0.981 . S
C278 H277 0.983 . S
C279 C266 1.481 . S
C279 H280 0.980 . S
C279 H281 0.981 . S
C279 H282 0.981 . S
H280 C279 0.980 . S
H281 C279 0.981 . S
H282 C279 0.981 . S
O283 Zn259 2.066 . S
O283 C262 1.256 1_554 S
O284 Zn256 2.053 . S
O284 C262 1.244 . S
C285 O263 1.259 1_556 S
C285 O264 1.254 . S
O286 Zn256 2.066 1_554 S
O286 C258 1.256 . S
O287 C258 1.244 . S
O287 Zn259 2.053 . S
Zn288 O289 2.055 . S
Zn288 O296 2.046 . S
Zn288 N304 2.036 . S
Zn288 O316 2.053 . S
Zn288 O318 2.066 . S
O289 Zn288 2.055 . S
O289 C292 1.259 . S
C290 O318 1.256 . S
C290 O319 1.244 . S
Zn291 O293 2.046 . S
Zn291 O295 2.055 . S
Zn291 N297 2.036 . S
Zn291 O315 2.066 . S
Zn291 O319 2.053 . S
C292 O289 1.259 . S
C292 O293 1.254 . S
O293 Zn291 2.046 . S
O293 C292 1.254 . S
C294 O315 1.256 . S
C294 O316 1.244 . S
O295 Zn291 2.055 . S
O295 C317 1.259 . S
O296 Zn288 2.046 . S
O296 C317 1.254 . S
N297 Zn291 2.036 . S
N297 C298 1.298 . S
N297 N300 1.398 . S
C298 N297 1.298 . S
C298 N301 1.367 . S
C298 C311 1.481 . S
C299 N300 1.299 . S
C299 N301 1.379 . S
N300 N297 1.398 . S
N300 C299 1.299 . S
N301 C298 1.367 . S
N301 C299 1.379 . S
C302 N304 1.298 . S
C302 N306 1.367 . S
C302 C310 1.481 . S
C303 N305 1.298 1_554 S
C303 N306 1.378 1_554 S
N304 Zn288 2.036 . S
N304 C302 1.298 . S
N304 N305 1.398 . S
N305 C303 1.298 1_556 S
N305 N304 1.398 . S
N306 C302 1.367 . S
N306 C303 1.378 1_556 S
H307 C310 0.980 . S
H308 C310 0.981 . S
H309 C310 0.981 . S
C310 C302 1.481 . S
C310 H307 0.980 . S
C310 H308 0.981 . S
C310 H309 0.981 . S
C311 C298 1.481 . S
C311 H312 0.980 . S
C311 H313 0.981 1_545 S
C311 H314 0.981 . S
H312 C311 0.980 . S
H313 C311 0.981 1_565 S
H314 C311 0.981 . S
O315 Zn291 2.066 . S
O315 C294 1.256 . S
O316 Zn288 2.053 . S
O316 C294 1.244 . S
C317 O295 1.259 . S
C317 O296 1.254 . S
O318 Zn288 2.066 . S
O318 C290 1.256 . S
O319 C290 1.244 . S
O319 Zn291 2.053 . S
Zn320 O321 2.055 1_655 S
Zn320 O328 2.046 . S
Zn320 N336 2.036 . S
Zn320 O348 2.053 . S
Zn320 O350 2.066 . S
O321 Zn320 2.055 1_455 S
O321 C324 1.259 . S
C322 O350 1.256 . S
C322 O351 1.244 . S
Zn323 O325 2.046 . S
Zn323 O327 2.055 . S
Zn323 N329 2.036 . S
Zn323 O347 2.066 . S
Zn323 O351 2.053 . S
C324 O321 1.259 . S
C324 O325 1.254 1_455 S
O325 Zn323 2.046 . S
O325 C324 1.254 1_655 S
C326 O347 1.256 . S
C326 O348 1.244 . S
O327 Zn323 2.055 . S
O327 C349 1.259 . S
O328 Zn320 2.046 . S
O328 C349 1.254 . S
N329 Zn323 2.036 . S
N329 C330 1.298 . S
N329 N332 1.398 . S
C330 N329 1.298 . S
C330 N333 1.367 . S
C330 C343 1.481 . S
C331 N332 1.298 1_554 S
C331 N333 1.378 1_554 S
N332 N329 1.398 . S
N332 C331 1.298 1_556 S
N333 C330 1.367 . S
N333 C331 1.378 1_556 S
C334 N336 1.298 . S
C334 N338 1.367 . S
C334 C342 1.481 1_655 S
C335 N337 1.299 . S
C335 N338 1.379 . S
N336 Zn320 2.036 . S
N336 C334 1.298 . S
N336 N337 1.398 . S
N337 C335 1.299 . S
N337 N336 1.398 . S
N338 C334 1.367 . S
N338 C335 1.379 . S
H339 C342 0.980 . S
H340 C342 0.981 . S
H341 C342 0.981 . S
C342 C334 1.481 1_455 S
C342 H339 0.980 . S
C342 H340 0.981 . S
C342 H341 0.981 . S
C343 C330 1.481 . S
C343 H344 0.980 . S
C343 H345 0.981 . S
C343 H346 0.981 . S
H344 C343 0.980 . S
H345 C343 0.981 . S
H346 C343 0.981 . S
O347 Zn323 2.066 . S
O347 C326 1.256 . S
O348 Zn320 2.053 . S
O348 C326 1.244 . S
C349 O327 1.259 . S
C349 O328 1.254 . S
O350 Zn320 2.066 . S
O350 C322 1.256 . S
O351 C322 1.244 . S
O351 Zn323 2.053 . S
Zn352 O353 2.055 . S
Zn352 O360 2.046 . S
Zn352 N368 2.036 . S
Zn352 O380 2.053 . S
Zn352 O382 2.066 . S
O353 Zn352 2.055 . S
O353 C356 1.259 . S
C354 O382 1.256 . S
C354 O383 1.244 . S
Zn355 O357 2.046 . S
Zn355 O359 2.055 . S
Zn355 N361 2.036 . S
Zn355 O379 2.066 . S
Zn355 O383 2.053 . S
C356 O353 1.259 . S
C356 O357 1.254 . S
O357 Zn355 2.046 . S
O357 C356 1.254 . S
C358 O379 1.256 . S
C358 O380 1.244 . S
O359 Zn355 2.055 . S
O359 C381 1.259 . S
O360 Zn352 2.046 . S
O360 C381 1.254 . S
N361 Zn355 2.036 . S
N361 C362 1.298 . S
N361 N364 1.398 . S
C362 N361 1.298 . S
C362 N365 1.367 . S
C362 C375 1.481 . S
C363 N364 1.299 . S
C363 N365 1.379 . S
N364 N361 1.398 . S
N364 C363 1.299 . S
N365 C362 1.367 . S
N365 C363 1.379 . S
C366 N368 1.298 . S
C366 N370 1.367 . S
C366 C374 1.481 . S
C367 N369 1.298 1_554 S
C367 N370 1.378 1_554 S
N368 Zn352 2.036 . S
N368 C366 1.298 . S
N368 N369 1.398 . S
N369 C367 1.298 1_556 S
N369 N368 1.398 . S
N370 C366 1.367 . S
N370 C367 1.378 1_556 S
H371 C374 0.980 . S
H372 C374 0.981 . S
H373 C374 0.981 . S
C374 C366 1.481 . S
C374 H371 0.980 . S
C374 H372 0.981 . S
C374 H373 0.981 . S
C375 C362 1.481 . S
C375 H376 0.980 . S
C375 H377 0.981 . S
C375 H378 0.981 . S
H376 C375 0.980 . S
H377 C375 0.981 . S
H378 C375 0.981 . S
O379 Zn355 2.066 . S
O379 C358 1.256 . S
O380 Zn352 2.053 . S
O380 C358 1.244 . S
C381 O359 1.259 . S
C381 O360 1.254 . S
O382 Zn352 2.066 . S
O382 C354 1.256 . S
O383 C354 1.244 . S
O383 Zn355 2.053 . S
Zn384 O385 2.055 . S
Zn384 O392 2.046 . S
Zn384 N400 2.036 . S
Zn384 O412 2.053 . S
Zn384 O414 2.066 . S
O385 Zn384 2.055 . S
O385 C388 1.259 . S
C386 O414 1.256 . S
C386 O415 1.244 . S
Zn387 O389 2.046 . S
Zn387 O391 2.055 1_565 S
Zn387 N393 2.036 . S
Zn387 O411 2.066 . S
Zn387 O415 2.053 . S
C388 O385 1.259 . S
C388 O389 1.254 . S
O389 Zn387 2.046 . S
O389 C388 1.254 . S
C390 O411 1.256 . S
C390 O412 1.244 . S
O391 Zn387 2.055 1_545 S
O391 C413 1.259 . S
O392 Zn384 2.046 . S
O392 C413 1.254 1_565 S
N393 Zn387 2.036 . S
N393 C394 1.298 . S
N393 N396 1.398 . S
C394 N393 1.298 . S
C394 N397 1.367 . S
C394 C407 1.481 1_565 S
C395 N396 1.299 . S
C395 N397 1.379 . S
N396 N393 1.398 . S
N396 C395 1.299 . S
N397 C394 1.367 . S
N397 C395 1.379 . S
C398 N400 1.298 . S
C398 N402 1.367 . S
C398 C406 1.481 . S
C399 N401 1.298 1_556 S
C399 N402 1.378 1_556 S
N400 Zn384 2.036 . S
N400 C398 1.298 . S
N400 N401 1.398 . S
N401 C399 1.298 1_554 S
N401 N400 1.398 . S
N402 C398 1.367 . S
N402 C399 1.378 1_554 S
H403 C406 0.980 . S
H404 C406 0.981 . S
H405 C406 0.981 . S
C406 C398 1.481 . S
C406 H403 0.980 . S
C406 H404 0.981 . S
C406 H405 0.981 . S
C407 C394 1.481 1_545 S
C407 H408 0.980 . S
C407 H409 0.981 . S
C407 H410 0.981 . S
H408 C407 0.980 . S
H409 C407 0.981 . S
H410 C407 0.981 . S
O411 Zn387 2.066 . S
O411 C390 1.256 . S
O412 Zn384 2.053 . S
O412 C390 1.244 . S
C413 O391 1.259 . S
C413 O392 1.254 1_545 S
O414 Zn384 2.066 . S
O414 C386 1.256 . S
O415 C386 1.244 . S
O415 Zn387 2.053 . S
Zn416 O417 2.055 . S
Zn416 O424 2.046 . S
Zn416 N432 2.036 . S
Zn416 O444 2.053 . S
Zn416 O446 2.066 . S
O417 Zn416 2.055 . S
O417 C420 1.259 . S
C418 O446 1.256 . S
C418 O447 1.244 . S
Zn419 O421 2.046 . S
Zn419 O423 2.055 . S
Zn419 N425 2.036 . S
Zn419 O443 2.066 . S
Zn419 O447 2.053 . S
C420 O417 1.259 . S
C420 O421 1.254 . S
O421 Zn419 2.046 . S
O421 C420 1.254 . S
C422 O443 1.256 . S
C422 O444 1.244 . S
O423 Zn419 2.055 . S
O423 C445 1.259 . S
O424 Zn416 2.046 . S
O424 C445 1.254 . S
N425 Zn419 2.036 . S
N425 C426 1.298 . S
N425 N428 1.398 . S
C426 N425 1.298 . S
C426 N429 1.367 . S
C426 C439 1.481 . S
C427 N428 1.298 1_556 S
C427 N429 1.378 1_556 S
N428 N425 1.398 . S
N428 C427 1.298 1_554 S
N429 C426 1.367 . S
N429 C427 1.378 1_554 S
C430 N432 1.298 . S
C430 N434 1.367 . S
C430 C438 1.481 . S
C431 N433 1.299 . S
C431 N434 1.379 . S
N432 Zn416 2.036 . S
N432 C430 1.298 . S
N432 N433 1.398 . S
N433 C431 1.299 . S
N433 N432 1.398 . S
N434 C430 1.367 . S
N434 C431 1.379 . S
H435 C438 0.980 . S
H436 C438 0.981 1_655 S
H437 C438 0.981 . S
C438 C430 1.481 . S
C438 H435 0.980 . S
C438 H436 0.981 1_455 S
C438 H437 0.981 . S
C439 C426 1.481 . S
C439 H440 0.980 . S
C439 H441 0.981 . S
C439 H442 0.981 . S
H440 C439 0.980 . S
H441 C439 0.981 . S
H442 C439 0.981 . S
O443 Zn419 2.066 . S
O443 C422 1.256 . S
O444 Zn416 2.053 . S
O444 C422 1.244 . S
C445 O423 1.259 . S
C445 O424 1.254 . S
O446 Zn416 2.066 . S
O446 C418 1.256 . S
O447 C418 1.244 . S
O447 Zn419 2.053 . S
Zn448 O449 2.055 . S
Zn448 O456 2.046 . S
Zn448 N464 2.036 . S
Zn448 O476 2.053 . S
Zn448 O478 2.066 . S
O449 Zn448 2.055 . S
O449 C452 1.259 . S
C450 O478 1.256 . S
C450 O479 1.244 . S
Zn451 O453 2.046 . S
Zn451 O455 2.055 . S
Zn451 N457 2.036 . S
Zn451 O475 2.066 . S
Zn451 O479 2.053 . S
C452 O449 1.259 . S
C452 O453 1.254 . S
O453 Zn451 2.046 . S
O453 C452 1.254 . S
C454 O475 1.256 . S
C454 O476 1.244 . S
O455 Zn451 2.055 . S
O455 C477 1.259 . S
O456 Zn448 2.046 . S
O456 C477 1.254 . S
N457 Zn451 2.036 . S
N457 C458 1.298 . S
N457 N460 1.398 . S
C458 N457 1.298 . S
C458 N461 1.367 . S
C458 C471 1.481 . S
C459 N460 1.299 . S
C459 N461 1.379 . S
N460 N457 1.398 . S
N460 C459 1.299 . S
N461 C458 1.367 . S
N461 C459 1.379 . S
C462 N464 1.298 . S
C462 N466 1.367 . S
C462 C470 1.481 . S
C463 N465 1.298 1_556 S
C463 N466 1.378 1_556 S
N464 Zn448 2.036 . S
N464 C462 1.298 . S
N464 N465 1.398 . S
N465 C463 1.298 1_554 S
N465 N464 1.398 . S
N466 C462 1.367 . S
N466 C463 1.378 1_554 S
H467 C470 0.980 . S
H468 C470 0.981 . S
H469 C470 0.981 . S
C470 C462 1.481 . S
C470 H467 0.980 . S
C470 H468 0.981 . S
C470 H469 0.981 . S
C471 C458 1.481 . S
C471 H472 0.980 . S
C471 H473 0.981 . S
C471 H474 0.981 . S
H472 C471 0.980 . S
H473 C471 0.981 . S
H474 C471 0.981 . S
O475 Zn451 2.066 . S
O475 C454 1.256 . S
O476 Zn448 2.053 . S
O476 C454 1.244 . S
C477 O455 1.259 . S
C477 O456 1.254 . S
O478 Zn448 2.066 . S
O478 C450 1.256 . S
O479 C450 1.244 . S
O479 Zn451 2.053 . S
Zn480 O481 2.055 1_554 S
Zn480 O488 2.046 . S
Zn480 N496 2.036 . S
Zn480 O508 2.053 . S
Zn480 O510 2.066 1_554 S
O481 Zn480 2.055 1_556 S
O481 C484 1.259 . S
C482 O510 1.256 . S
C482 O511 1.244 . S
Zn483 O485 2.046 . S
Zn483 O487 2.055 . S
Zn483 N489 2.036 . S
Zn483 O507 2.066 . S
Zn483 O511 2.053 . S
C484 O481 1.259 . S
C484 O485 1.254 . S
O485 Zn483 2.046 . S
O485 C484 1.254 . S
C486 O507 1.256 1_554 S
C486 O508 1.244 . S
O487 Zn483 2.055 . S
O487 C509 1.259 1_556 S
O488 Zn480 2.046 . S
O488 C509 1.254 . S
N489 Zn483 2.036 . S
N489 C490 1.298 . S
N489 N492 1.398 . S
C490 N489 1.298 . S
C490 N493 1.367 . S
C490 C503 1.481 . S
C491 N492 1.299 . S
C491 N493 1.379 . S
N492 N489 1.398 . S
N492 C491 1.299 . S
N493 C490 1.367 . S
N493 C491 1.379 . S
C494 N496 1.298 . S
C494 N498 1.367 . S
C494 C502 1.481 . S
C495 N497 1.299 . S
C495 N498 1.379 . S
N496 Zn480 2.036 . S
N496 C494 1.298 . S
N496 N497 1.398 . S
N497 C495 1.299 . S
N497 N496 1.398 . S
N498 C494 1.367 . S
N498 C495 1.379 . S
H499 C502 0.980 1_556 S
H500 C502 0.981 . S
H501 C502 0.983 . S
C502 C494 1.481 . S
C502 H499 0.980 1_554 S
C502 H500 0.981 . S
C502 H501 0.983 . S
C503 C490 1.481 . S
C503 H504 0.980 . S
C503 H505 0.981 . S
C503 H506 0.981 . S
H504 C503 0.980 . S
H505 C503 0.981 . S
H506 C503 0.981 . S
O507 Zn483 2.066 . S
O507 C486 1.256 1_556 S
O508 Zn480 2.053 . S
O508 C486 1.244 . S
C509 O487 1.259 1_554 S
C509 O488 1.254 . S
O510 Zn480 2.066 1_556 S
O510 C482 1.256 . S
O511 C482 1.244 . S
O511 Zn483 2.053 . S
Zn512 O513 2.055 . S
Zn512 O520 2.046 . S
Zn512 N528 2.036 . S
Zn512 O540 2.053 . S
Zn512 O542 2.066 . S
O513 Zn512 2.055 . S
O513 C516 1.259 1_556 S
C514 O542 1.256 1_554 S
C514 O543 1.244 . S
Zn515 O517 2.046 . S
Zn515 O519 2.055 1_564 S
Zn515 N521 2.036 . S
Zn515 O539 2.066 1_554 S
Zn515 O543 2.053 . S
C516 O513 1.259 1_554 S
C516 O517 1.254 . S
O517 Zn515 2.046 . S
O517 C516 1.254 . S
C518 O539 1.256 . S
C518 O540 1.244 . S
O519 Zn515 2.055 1_546 S
O519 C541 1.259 . S
O520 Zn512 2.046 . S
O520 C541 1.254 1_565 S
N521 Zn515 2.036 . S
N521 C522 1.298 . S
N521 N524 1.398 . S
C522 N521 1.298 . S
C522 N525 1.367 . S
C522 C535 1.481 1_565 S
C523 N524 1.299 . S
C523 N525 1.379 . S
N524 N521 1.398 . S
N524 C523 1.299 . S
N525 C522 1.367 . S
N525 C523 1.379 . S
C526 N528 1.298 . S
C526 N530 1.367 . S
C526 C534 1.481 . S
C527 N529 1.299 . S
C527 N530 1.379 . S
N528 Zn512 2.036 . S
N528 C526 1.298 . S
N528 N529 1.398 . S
N529 C527 1.299 . S
N529 N528 1.398 . S
N530 C526 1.367 . S
N530 C527 1.379 . S
H531 C534 0.980 . S
H532 C534 0.981 . S
H533 C534 0.981 . S
C534 C526 1.481 . S
C534 H531 0.980 . S
C534 H532 0.981 . S
C534 H533 0.981 . S
C535 C522 1.481 1_545 S
C535 H536 0.980 1_554 S
C535 H537 0.981 . S
C535 H538 0.983 . S
H536 C535 0.980 1_556 S
H537 C535 0.981 . S
H538 C535 0.983 . S
O539 Zn515 2.066 1_556 S
O539 C518 1.256 . S
O540 Zn512 2.053 . S
O540 C518 1.244 . S
C541 O519 1.259 . S
C541 O520 1.254 1_545 S
O542 Zn512 2.066 . S
O542 C514 1.256 1_556 S
O543 C514 1.244 . S
O543 Zn515 2.053 . S
Zn544 O545 2.055 . S
Zn544 O552 2.046 . S
Zn544 N560 2.036 . S
Zn544 O572 2.053 . S
Zn544 O574 2.066 . S
O545 Zn544 2.055 . S
O545 C548 1.259 1_556 S
C546 O574 1.256 1_554 S
C546 O575 1.244 . S
Zn547 O549 2.046 . S
Zn547 O551 2.055 1_554 S
Zn547 N553 2.036 . S
Zn547 O571 2.066 1_554 S
Zn547 O575 2.053 . S
C548 O545 1.259 1_554 S
C548 O549 1.254 . S
O549 Zn547 2.046 . S
O549 C548 1.254 . S
C550 O571 1.256 . S
C550 O572 1.244 . S
O551 Zn547 2.055 1_556 S
O551 C573 1.259 . S
O552 Zn544 2.046 . S
O552 C573 1.254 . S
N553 Zn547 2.036 . S
N553 C554 1.298 . S
N553 N556 1.398 . S
C554 N553 1.298 . S
C554 N557 1.367 . S
C554 C567 1.481 . S
C555 N556 1.299 . S
C555 N557 1.379 . S
N556 N553 1.398 . S
N556 C555 1.299 . S
N557 C554 1.367 . S
N557 C555 1.379 . S
C558 N560 1.298 . S
C558 N562 1.367 . S
C558 C566 1.481 . S
C559 N561 1.299 . S
C559 N562 1.379 . S
N560 Zn544 2.036 . S
N560 C558 1.298 . S
N560 N561 1.398 . S
N561 C559 1.299 . S
N561 N560 1.398 . S
N562 C558 1.367 . S
N562 C559 1.379 . S
H563 C566 0.980 . S
H564 C566 0.981 . S
H565 C566 0.981 . S
C566 C558 1.481 . S
C566 H563 0.980 . S
C566 H564 0.981 . S
C566 H565 0.981 . S
C567 C554 1.481 . S
C567 H568 0.980 1_554 S
C567 H569 0.981 1_455 S
C567 H570 0.983 . S
H568 C567 0.980 1_556 S
H569 C567 0.981 1_655 S
H570 C567 0.983 . S
O571 Zn547 2.066 1_556 S
O571 C550 1.256 . S
O572 Zn544 2.053 . S
O572 C550 1.244 . S
C573 O551 1.259 . S
C573 O552 1.254 . S
O574 Zn544 2.066 . S
O574 C546 1.256 1_556 S
O575 C546 1.244 . S
O575 Zn547 2.053 . S
C6 N146 2.986 . S
N178 C38 2.986 . S
C66 N114 2.986 . S
C70 N141 2.986 . S
N173 C2 2.986 . S
C34 N109 2.986 . S
N50 C102 2.986 . S
N77 C134 2.986 . S
C166 N18 2.986 . S
C162 N45 2.986 . S
N82 C98 2.986 . S
N13 C130 2.986 . S
N333 C198 2.986 . S
C230 N370 2.986 . S
C262 N306 2.986 . S
N338 C258 2.986 . S
N365 C194 2.986 . S
N301 C226 2.986 . S
N242 C294 2.986 . S
N274 C322 2.986 . S
N210 C358 2.986 . S
N237 C354 2.986 . S
N269 C290 2.986 . S
C326 N205 2.986 . S
C390 N525 2.986 . S
C418 N557 2.986 . S
N498 C454 2.986 . S
N530 C450 2.986 . S
C386 N562 2.986 . S
C422 N493 2.985 . S
N429 C486 2.986 . S
N466 C514 2.986 . S
N402 C546 2.986 . S
C550 N434 2.986 . S
C482 N461 2.986 . S
N397 C518 2.986 . S
C29 C445 1.292 . S
C61 C452 1.292 . S
C68 C388 1.292 . S
C93 C253 1.292 . S
C4 C285 1.292 . S
C36 C221 1.292 . S
C349 C125 1.292 . S
C157 C356 1.292 . S
C189 C292 1.292 . S
C516 C164 1.292 . S
C100 C548 1.292 . S
C132 C509 1.292 . S
C260 C420 1.292 . S
C196 C477 1.292 . S
C413 C228 1.292 . S
C541 C317 1.292 . S
C573 C324 1.292 . S
C381 C484 1.292 . S
