# Generated by pormake.
# Topology afi, (4)-cn, num edge types: 1
# Building blocks:
#     Node 0, Type 0, BuildingBlock: UXUYUI_clean_sbu_0, # of connection points: 4
#     Node 1, Type 0, BuildingBlock: UXUYUI_clean_sbu_0, # of connection points: 4
#     Node 2, Type 0, BuildingBlock: UXUYUI_clean_sbu_0, # of connection points: 4
#     Node 3, Type 0, BuildingBlock: UXUYUI_clean_sbu_0, # of connection points: 4
#     Node 4, Type 0, BuildingBlock: UXUYUI_clean_sbu_0, # of connection points: 4
#     Node 5, Type 0, BuildingBlock: UXUYUI_clean_sbu_0, # of connection points: 4
#     Node 6, Type 0, BuildingBlock: UXUYUI_clean_sbu_0, # of connection points: 4
#     Node 7, Type 0, BuildingBlock: UXUYUI_clean_sbu_0, # of connection points: 4
#     Node 8, Type 0, BuildingBlock: UXUYUI_clean_sbu_0, # of connection points: 4
#     Node 9, Type 0, BuildingBlock: UXUYUI_clean_sbu_0, # of connection points: 4
#     Node 10, Type 0, BuildingBlock: UXUYUI_clean_sbu_0, # of connection points: 4
#     Node 11, Type 0, BuildingBlock: UXUYUI_clean_sbu_0, # of connection points: 4
#     Node 12, Type 0, BuildingBlock: UXUYUI_clean_sbu_0, # of connection points: 4
#     Node 13, Type 0, BuildingBlock: UXUYUI_clean_sbu_0, # of connection points: 4
#     Node 14, Type 0, BuildingBlock: UXUYUI_clean_sbu_0, # of connection points: 4
#     Node 15, Type 0, BuildingBlock: UXUYUI_clean_sbu_0, # of connection points: 4
#     Node 16, Type 0, BuildingBlock: UXUYUI_clean_sbu_0, # of connection points: 4
#     Node 17, Type 0, BuildingBlock: UXUYUI_clean_sbu_0, # of connection points: 4
#     Node 18, Type 0, BuildingBlock: UXUYUI_clean_sbu_0, # of connection points: 4
#     Node 19, Type 0, BuildingBlock: UXUYUI_clean_sbu_0, # of connection points: 4
#     Node 20, Type 0, BuildingBlock: UXUYUI_clean_sbu_0, # of connection points: 4
#     Node 21, Type 0, BuildingBlock: UXUYUI_clean_sbu_0, # of connection points: 4
#     Node 22, Type 0, BuildingBlock: UXUYUI_clean_sbu_0, # of connection points: 4
#     Node 23, Type 0, BuildingBlock: UXUYUI_clean_sbu_0, # of connection points: 4
#     Edge 24, Type (0, 0), BuildingBlock: KIFKEQ_clean_linker_1, # of connection points: 2
#     Edge 25, Type (0, 0), BuildingBlock: KIFKEQ_clean_linker_1, # of connection points: 2
#     Edge 26, Type (0, 0), BuildingBlock: KIFKEQ_clean_linker_1, # of connection points: 2
#     Edge 27, Type (0, 0), BuildingBlock: KIFKEQ_clean_linker_1, # of connection points: 2
#     Edge 28, Type (0, 0), BuildingBlock: KIFKEQ_clean_linker_1, # of connection points: 2
#     Edge 29, Type (0, 0), BuildingBlock: KIFKEQ_clean_linker_1, # of connection points: 2
#     Edge 30, Type (0, 0), BuildingBlock: KIFKEQ_clean_linker_1, # of connection points: 2
#     Edge 31, Type (0, 0), BuildingBlock: KIFKEQ_clean_linker_1, # of connection points: 2
#     Edge 32, Type (0, 0), BuildingBlock: KIFKEQ_clean_linker_1, # of connection points: 2
#     Edge 33, Type (0, 0), BuildingBlock: KIFKEQ_clean_linker_1, # of connection points: 2
#     Edge 34, Type (0, 0), BuildingBlock: KIFKEQ_clean_linker_1, # of connection points: 2
#     Edge 35, Type (0, 0), BuildingBlock: KIFKEQ_clean_linker_1, # of connection points: 2
#     Edge 36, Type (0, 0), BuildingBlock: KIFKEQ_clean_linker_1, # of connection points: 2
#     Edge 37, Type (0, 0), BuildingBlock: KIFKEQ_clean_linker_1, # of connection points: 2
#     Edge 38, Type (0, 0), BuildingBlock: KIFKEQ_clean_linker_1, # of connection points: 2
#     Edge 39, Type (0, 0), BuildingBlock: KIFKEQ_clean_linker_1, # of connection points: 2
#     Edge 40, Type (0, 0), BuildingBlock: KIFKEQ_clean_linker_1, # of connection points: 2
#     Edge 41, Type (0, 0), BuildingBlock: KIFKEQ_clean_linker_1, # of connection points: 2
#     Edge 42, Type (0, 0), BuildingBlock: KIFKEQ_clean_linker_1, # of connection points: 2
#     Edge 43, Type (0, 0), BuildingBlock: KIFKEQ_clean_linker_1, # of connection points: 2
#     Edge 44, Type (0, 0), BuildingBlock: KIFKEQ_clean_linker_1, # of connection points: 2
#     Edge 45, Type (0, 0), BuildingBlock: KIFKEQ_clean_linker_1, # of connection points: 2
#     Edge 46, Type (0, 0), BuildingBlock: KIFKEQ_clean_linker_1, # of connection points: 2
#     Edge 47, Type (0, 0), BuildingBlock: KIFKEQ_clean_linker_1, # of connection points: 2
#     Edge 48, Type (0, 0), BuildingBlock: KIFKEQ_clean_linker_1, # of connection points: 2
#     Edge 49, Type (0, 0), BuildingBlock: KIFKEQ_clean_linker_1, # of connection points: 2
#     Edge 50, Type (0, 0), BuildingBlock: KIFKEQ_clean_linker_1, # of connection points: 2
#     Edge 51, Type (0, 0), BuildingBlock: KIFKEQ_clean_linker_1, # of connection points: 2
#     Edge 52, Type (0, 0), BuildingBlock: KIFKEQ_clean_linker_1, # of connection points: 2
#     Edge 53, Type (0, 0), BuildingBlock: KIFKEQ_clean_linker_1, # of connection points: 2
#     Edge 54, Type (0, 0), BuildingBlock: KIFKEQ_clean_linker_1, # of connection points: 2
#     Edge 55, Type (0, 0), BuildingBlock: KIFKEQ_clean_linker_1, # of connection points: 2
#     Edge 56, Type (0, 0), BuildingBlock: KIFKEQ_clean_linker_1, # of connection points: 2
#     Edge 57, Type (0, 0), BuildingBlock: KIFKEQ_clean_linker_1, # of connection points: 2
#     Edge 58, Type (0, 0), BuildingBlock: KIFKEQ_clean_linker_1, # of connection points: 2
#     Edge 59, Type (0, 0), BuildingBlock: KIFKEQ_clean_linker_1, # of connection points: 2
#     Edge 60, Type (0, 0), BuildingBlock: KIFKEQ_clean_linker_1, # of connection points: 2
#     Edge 61, Type (0, 0), BuildingBlock: KIFKEQ_clean_linker_1, # of connection points: 2
#     Edge 62, Type (0, 0), BuildingBlock: KIFKEQ_clean_linker_1, # of connection points: 2
#     Edge 63, Type (0, 0), BuildingBlock: KIFKEQ_clean_linker_1, # of connection points: 2
#     Edge 64, Type (0, 0), BuildingBlock: KIFKEQ_clean_linker_1, # of connection points: 2
#     Edge 65, Type (0, 0), BuildingBlock: KIFKEQ_clean_linker_1, # of connection points: 2
#     Edge 66, Type (0, 0), BuildingBlock: KIFKEQ_clean_linker_1, # of connection points: 2
#     Edge 67, Type (0, 0), BuildingBlock: KIFKEQ_clean_linker_1, # of connection points: 2
#     Edge 68, Type (0, 0), BuildingBlock: KIFKEQ_clean_linker_1, # of connection points: 2
#     Edge 69, Type (0, 0), BuildingBlock: KIFKEQ_clean_linker_1, # of connection points: 2
#     Edge 70, Type (0, 0), BuildingBlock: KIFKEQ_clean_linker_1, # of connection points: 2
#     Edge 71, Type (0, 0), BuildingBlock: KIFKEQ_clean_linker_1, # of connection points: 2
# Relax obj value: 0.134
# Max RMSD: 0.127
# Mean RMSD: 0.126
data_MOF--net-afi--node1-UXUYUI_clean_sbu_0--edge1-KIFKEQ_clean_linker_1
_symmetry_space_group_name_H-M    P1
_symmetry_Int_Tables_number       1
_symmetry_cell_setting            triclinic
loop_
_symmetry_equiv_pos_as_xyz
'x, y, z'
_cell_length_a     98.14559
_cell_length_b     98.139006
_cell_length_c     61.103497
_cell_angle_alpha  89.990757
_cell_angle_beta   90.012014
_cell_angle_gamma 119.99782
loop_
_atom_site_label
_atom_site_type_symbol
_atom_site_fract_x
_atom_site_fract_y
_atom_site_fract_z
_atom_type_partial_charge
Li0 Li 0.47014 0.12419 0.19332 0.0
Li1 Li 0.44172 0.1059 0.19426 0.0
Li2 Li 0.45382 0.12301 0.16133 0.0
Li3 Li 0.45036 0.1337 0.19587 0.0
C4 C 0.46523 0.101 0.16059 0.0
N5 N 0.48099 0.09046 0.13436 0.0
C6 C 0.46113 0.08516 0.161 0.0
C7 C 0.47723 0.11144 0.14671 0.0
C8 C 0.46927 0.08007 0.14767 0.0
C9 C 0.48508 0.10589 0.13359 0.0
C10 C 0.44949 0.11295 0.23603 0.0
C11 C 0.42985 0.102 0.26444 0.0
N12 N 0.43769 0.09529 0.27367 0.0
C13 C 0.45744 0.10608 0.2459 0.0
C14 C 0.43567 0.11103 0.24544 0.0
C15 C 0.45125 0.09714 0.26489 0.0
C16 C 0.50115 0.14082 0.21113 0.0
N17 N 0.48969 0.12678 0.2032 0.0
C18 C 0.50512 0.11479 0.21128 0.0
C19 C 0.49139 0.11387 0.20327 0.0
C20 C 0.51716 0.12907 0.21983 0.0
C21 C 0.51507 0.14225 0.21954 0.0
H22 H 0.49936 0.15084 0.21124 0.0
H23 H 0.48196 0.10274 0.19749 0.0
C24 C 0.41146 0.07871 0.20372 0.0
N25 N 0.42736 0.0852 0.20418 0.0
C26 C 0.40174 0.0632 0.21084 0.0
C27 C 0.42501 0.0616 0.21897 0.0
C28 C 0.4342 0.077 0.21156 0.0
C29 C 0.40852 0.05439 0.21845 0.0
H30 H 0.40632 0.08546 0.19757 0.0
H31 H 0.44689 0.08247 0.21164 0.0
C32 C 0.48114 0.1549 0.1675 0.0
N33 N 0.50433 0.18167 0.14716 0.0
C34 C 0.47891 0.1677 0.1637 0.0
C35 C 0.4953 0.15584 0.16127 0.0
C36 C 0.49073 0.18109 0.1533 0.0
C37 C 0.50684 0.16944 0.15093 0.0
C38 C 0.42201 0.12084 0.17455 0.0
C39 C 0.41998 0.12688 0.15487 0.0
C40 C 0.41194 0.11842 0.19214 0.0
C41 C 0.40802 0.13062 0.15323 0.0
C42 C 0.40014 0.12232 0.18986 0.0
N43 N 0.39845 0.1283 0.17063 0.0
C44 C 0.4461 0.10998 0.11909 0.0
C45 C 0.45959 0.13784 0.11934 0.0
C46 C 0.44549 0.1098 0.09624 0.0
N47 N 0.45321 0.12387 0.13012 0.0
C48 C 0.45933 0.13822 0.09652 0.0
C49 C 0.45227 0.12407 0.08466 0.0
H50 H 0.441 0.09902 0.12808 0.0
H51 H 0.46482 0.14872 0.12838 0.0
C52 C 0.45082 0.15385 0.22928 0.0
N53 N 0.44699 0.14972 0.20798 0.0
C54 C 0.44944 0.16619 0.23833 0.0
C55 C 0.43989 0.16958 0.20347 0.0
C56 C 0.44165 0.15733 0.19506 0.0
C57 C 0.444 0.17434 0.22534 0.0
H58 H 0.45529 0.14778 0.23912 0.0
H59 H 0.43906 0.15415 0.17804 0.0
O60 O 0.45736 0.10615 0.17359 0.0
O61 O 0.45519 0.12148 0.2172 0.0
O62 O 0.46974 0.14175 0.17787 0.0
O63 O 0.43367 0.11716 0.17645 0.0
H64 H 0.45178 0.07689 0.17154 0.0
H65 H 0.4803 0.12362 0.14583 0.0
H66 H 0.46627 0.06786 0.14788 0.0
H67 H 0.49438 0.11385 0.12274 0.0
H68 H 0.41912 0.10034 0.27184 0.0
H69 H 0.46819 0.1075 0.23885 0.0
H70 H 0.42948 0.11642 0.23813 0.0
H71 H 0.45721 0.09166 0.27262 0.0
H72 H 0.50622 0.10435 0.21082 0.0
H73 H 0.5239 0.15344 0.22622 0.0
H74 H 0.3891 0.05809 0.20993 0.0
H75 H 0.4308 0.05545 0.22508 0.0
H76 H 0.46811 0.16726 0.1685 0.0
H77 H 0.49745 0.14626 0.16454 0.0
H78 H 0.48909 0.19102 0.15011 0.0
H79 H 0.51782 0.17029 0.14598 0.0
H80 H 0.42762 0.12875 0.14106 0.0
H81 H 0.41328 0.11365 0.20741 0.0
H82 H 0.40636 0.13538 0.13815 0.0
H83 H 0.39233 0.12059 0.20338 0.0
H84 H 0.44002 0.09862 0.08773 0.0
H85 H 0.46445 0.14948 0.08824 0.0
H86 H 0.45303 0.16957 0.25513 0.0
H87 H 0.43544 0.1753 0.19285 0.0
Li88 Li 0.34638 0.46979 0.19341 0.0
Li89 Li 0.33576 0.44119 0.19234 0.0
Li90 Li 0.33275 0.45441 0.16078 0.0
Li91 Li 0.31835 0.45103 0.19507 0.0
C92 C 0.36494 0.46755 0.16083 0.0
N93 N 0.39 0.48766 0.13474 0.0
C94 C 0.37678 0.46408 0.15591 0.0
C95 C 0.36584 0.48124 0.15247 0.0
C96 C 0.38936 0.4744 0.1427 0.0
C97 C 0.3786 0.49125 0.13931 0.0
C98 C 0.32858 0.45576 0.23576 0.0
C99 C 0.3102 0.44471 0.26573 0.0
N100 N 0.31537 0.45943 0.2737 0.0
C101 C 0.3338 0.47077 0.24439 0.0
C102 C 0.31677 0.44261 0.24665 0.0
C103 C 0.32695 0.47238 0.26353 0.0
C104 C 0.36203 0.5023 0.20439 0.0
N105 N 0.36348 0.48926 0.20306 0.0
C106 C 0.38992 0.50357 0.21615 0.0
C107 C 0.37705 0.48963 0.20871 0.0
C108 C 0.38874 0.51722 0.21797 0.0
C109 C 0.37457 0.51648 0.21197 0.0
H110 H 0.35106 0.50162 0.19987 0.0
H111 H 0.37781 0.47903 0.20753 0.0
C112 C 0.34805 0.42109 0.18574 0.0
N113 N 0.34078 0.42554 0.2007 0.0
C114 C 0.35357 0.41098 0.19176 0.0
C115 C 0.34338 0.40967 0.22821 0.0
C116 C 0.33823 0.41996 0.22156 0.0
C117 C 0.35145 0.40533 0.21334 0.0
H118 H 0.34994 0.42578 0.16929 0.0
H119 H 0.33261 0.42385 0.23318 0.0
C120 C 0.31877 0.47333 0.16656 0.0
N121 N 0.29679 0.47895 0.14656 0.0
C122 C 0.30533 0.46096 0.15695 0.0
C123 C 0.32099 0.48854 0.16603 0.0
C124 C 0.29437 0.46404 0.14691 0.0
C125 C 0.30976 0.49115 0.15581 0.0
C126 C 0.31014 0.41853 0.17479 0.0
C127 C 0.30934 0.41043 0.15558 0.0
C128 C 0.30451 0.41017 0.19434 0.0
C129 C 0.30333 0.39419 0.15639 0.0
C130 C 0.2986 0.39394 0.19451 0.0
N131 N 0.29816 0.38635 0.17568 0.0
C132 C 0.33567 0.44442 0.11883 0.0
C133 C 0.33211 0.46657 0.11807 0.0
C134 C 0.33598 0.44409 0.09598 0.0
N135 N 0.33329 0.45526 0.12938 0.0
C136 C 0.33248 0.46676 0.09522 0.0
C137 C 0.33423 0.45529 0.08388 0.0
H138 H 0.33745 0.43611 0.1282 0.0
H139 H 0.33101 0.47557 0.12665 0.0
C140 C 0.29965 0.46139 0.21562 0.0
N141 N 0.29918 0.44847 0.20674 0.0
C142 C 0.28596 0.46063 0.22349 0.0
C143 C 0.27144 0.43327 0.2128 0.0
C144 C 0.28546 0.43456 0.20516 0.0
C145 C 0.27156 0.44646 0.22199 0.0
H146 H 0.31069 0.47237 0.21634 0.0
H147 H 0.28532 0.42456 0.19756 0.0
O148 O 0.35252 0.4575 0.17367 0.0
O149 O 0.33499 0.45398 0.21679 0.0
O150 O 0.32954 0.47057 0.1769 0.0
O151 O 0.31621 0.4345 0.17443 0.0
H152 H 0.37624 0.45353 0.16226 0.0
H153 H 0.35679 0.48413 0.15606 0.0
H154 H 0.39861 0.47187 0.13877 0.0
H155 H 0.37945 0.50188 0.13273 0.0
H156 H 0.30097 0.43463 0.27419 0.0
H157 H 0.34294 0.48109 0.23637 0.0
H158 H 0.31262 0.4309 0.24042 0.0
H159 H 0.33082 0.48394 0.27028 0.0
H160 H 0.40058 0.5036 0.22084 0.0
H161 H 0.37323 0.52676 0.21299 0.0
H162 H 0.35966 0.40783 0.17979 0.0
H163 H 0.34169 0.40571 0.24505 0.0
H164 H 0.30335 0.44909 0.15719 0.0
H165 H 0.33129 0.49826 0.17341 0.0
H166 H 0.28393 0.45458 0.13942 0.0
H167 H 0.31134 0.50287 0.15527 0.0
H168 H 0.31313 0.41655 0.14016 0.0
H169 H 0.30483 0.41619 0.20928 0.0
H170 H 0.30271 0.3878 0.14164 0.0
H171 H 0.29436 0.38738 0.20961 0.0
H172 H 0.33778 0.4353 0.08788 0.0
H173 H 0.3312 0.47567 0.08653 0.0
H174 H 0.28665 0.47105 0.23066 0.0
H175 H 0.26057 0.42219 0.21099 0.0
Li176 Li 0.87469 0.34578 0.19022 0.0
Li177 Li 0.89442 0.33747 0.19286 0.0
Li178 Li 0.87888 0.3334 0.15996 0.0
Li179 Li 0.86624 0.31804 0.19296 0.0
C180 C 0.9038 0.3614 0.15602 0.0
N181 N 0.92232 0.37606 0.11985 0.0
C182 C 0.91808 0.36171 0.15313 0.0
C183 C 0.89903 0.3687 0.1406 0.0
C184 C 0.92726 0.36915 0.13473 0.0
C185 C 0.90852 0.37599 0.12239 0.0
C186 C 0.87994 0.32811 0.23345 0.0
C187 C 0.88568 0.30976 0.2517 0.0
N188 N 0.88343 0.31483 0.27137 0.0
C189 C 0.87767 0.33313 0.25383 0.0
C190 C 0.88396 0.31632 0.23234 0.0
C191 C 0.8795 0.32627 0.27282 0.0
C192 C 0.85992 0.35807 0.21698 0.0
N193 N 0.87038 0.36155 0.20039 0.0
C194 C 0.87595 0.38818 0.19964 0.0
C195 C 0.87833 0.37622 0.19162 0.0
C196 C 0.86541 0.38504 0.21701 0.0
C197 C 0.85724 0.3697 0.2256 0.0
H198 H 0.85383 0.34628 0.22368 0.0
H199 H 0.88674 0.37871 0.17866 0.0
C200 C 0.9233 0.33708 0.19898 0.0
N201 N 0.91424 0.3432 0.20558 0.0
C202 C 0.93818 0.34248 0.20826 0.0
C203 C 0.93377 0.35991 0.23134 0.0
C204 C 0.91911 0.3543 0.22152 0.0
C205 C 0.94368 0.35421 0.22453 0.0
H206 H 0.91913 0.32831 0.18617 0.0
H207 H 0.9116 0.3589 0.22645 0.0
C208 C 0.84724 0.33283 0.17152 0.0
N209 N 0.82539 0.34276 0.17032 0.0
C210 C 0.83283 0.32423 0.1823 0.0
C211 C 0.85039 0.34632 0.15977 0.0
C212 C 0.82197 0.32947 0.18158 0.0
C213 C 0.83925 0.35121 0.15947 0.0
C214 C 0.87822 0.30461 0.16301 0.0
C215 C 0.86419 0.29872 0.15116 0.0
C216 C 0.88688 0.29687 0.16206 0.0
C217 C 0.85905 0.28511 0.13863 0.0
C218 C 0.88133 0.28327 0.14936 0.0
N219 N 0.86764 0.27773 0.138 0.0
C220 C 0.8915 0.33211 0.11862 0.0
C221 C 0.8672 0.33174 0.11701 0.0
C222 C 0.89206 0.33157 0.0958 0.0
N223 N 0.87929 0.33239 0.12869 0.0
C224 C 0.86722 0.33109 0.0942 0.0
C225 C 0.87981 0.33108 0.08328 0.0
H226 H 0.90081 0.33231 0.12834 0.0
H227 H 0.85748 0.33166 0.12538 0.0
C228 C 0.84107 0.30058 0.22084 0.0
N229 N 0.85045 0.29881 0.20613 0.0
C230 C 0.82855 0.28746 0.23068 0.0
C231 C 0.83603 0.27088 0.21097 0.0
C232 C 0.84845 0.28435 0.20155 0.0
C233 C 0.8257 0.27231 0.22547 0.0
H234 H 0.84319 0.31224 0.22469 0.0
H235 H 0.85632 0.28313 0.1905 0.0
O236 O 0.8945 0.3539 0.17375 0.0
O237 O 0.87809 0.33468 0.21475 0.0
O238 O 0.85816 0.32803 0.17233 0.0
O239 O 0.88373 0.31811 0.17504 0.0
H240 H 0.92199 0.35614 0.16482 0.0
H241 H 0.88805 0.36861 0.1425 0.0
H242 H 0.93829 0.36939 0.13225 0.0
H243 H 0.9049 0.38157 0.11025 0.0
H244 H 0.88878 0.30063 0.25109 0.0
H245 H 0.87452 0.34222 0.25493 0.0
H246 H 0.88571 0.31225 0.21672 0.0
H247 H 0.87779 0.33004 0.28871 0.0
H248 H 0.88268 0.39989 0.19278 0.0
H249 H 0.84893 0.36677 0.2389 0.0
H250 H 0.94544 0.33784 0.20233 0.0
H251 H 0.93731 0.36869 0.24412 0.0
H252 H 0.82998 0.31355 0.19099 0.0
H253 H 0.86142 0.35307 0.15123 0.0
H254 H 0.8108 0.32295 0.18994 0.0
H255 H 0.84163 0.36173 0.15064 0.0
H256 H 0.85729 0.30451 0.15168 0.0
H257 H 0.8978 0.30132 0.17105 0.0
H258 H 0.84821 0.28041 0.12942 0.0
H259 H 0.88791 0.27714 0.1485 0.0
H260 H 0.90187 0.33134 0.08806 0.0
H261 H 0.85759 0.33083 0.0852 0.0
H262 H 0.82116 0.28918 0.2422 0.0
H263 H 0.83432 0.25945 0.20649 0.0
Li264 Li 0.55608 0.8944 0.19307 0.0
Li265 Li 0.52788 0.87432 0.18943 0.0
Li266 Li 0.54721 0.86577 0.19213 0.0
Li267 Li 0.54487 0.87912 0.15926 0.0
C268 C 0.55007 0.87904 0.23341 0.0
N269 N 0.56588 0.88231 0.2722 0.0
C270 C 0.5424 0.87706 0.25341 0.0
C271 C 0.56577 0.88266 0.23311 0.0
C272 C 0.5506 0.87877 0.27285 0.0
C273 C 0.57356 0.88427 0.2529 0.0
C274 C 0.54056 0.90311 0.1557 0.0
C275 C 0.52898 0.90631 0.12267 0.0
N276 N 0.54241 0.92015 0.11871 0.0
C277 C 0.5542 0.9174 0.15137 0.0
C278 C 0.5278 0.89755 0.14133 0.0
C279 C 0.55491 0.92584 0.13256 0.0
C280 C 0.58454 0.92406 0.19686 0.0
N281 N 0.57029 0.91416 0.20593 0.0
C282 C 0.57468 0.93276 0.23414 0.0
C283 C 0.56527 0.9182 0.22421 0.0
C284 C 0.58933 0.94348 0.22493 0.0
C285 C 0.59428 0.93889 0.2061 0.0
H286 H 0.58815 0.92061 0.18214 0.0
H287 H 0.55383 0.91014 0.23097 0.0
C288 C 0.49905 0.85755 0.21274 0.0
N289 N 0.50767 0.86996 0.19926 0.0
C290 C 0.48458 0.85482 0.22085 0.0
C291 C 0.48833 0.8779 0.20143 0.0
C292 C 0.50262 0.88007 0.19352 0.0
C293 C 0.47908 0.86516 0.21537 0.0
H294 H 0.50349 0.84984 0.21733 0.0
H295 H 0.50987 0.89006 0.18321 0.0
C296 C 0.57633 0.88203 0.16648 0.0
N297 N 0.60054 0.87902 0.14856 0.0
C298 C 0.5735 0.87215 0.14849 0.0
C299 C 0.59147 0.89039 0.17532 0.0
C300 C 0.5859 0.8708 0.13966 0.0
C301 C 0.60354 0.88868 0.16606 0.0
C302 C 0.51412 0.84641 0.17109 0.0
C303 C 0.50969 0.83239 0.18231 0.0
C304 C 0.50273 0.84827 0.1599 0.0
C305 C 0.49389 0.82057 0.18247 0.0
C306 C 0.48705 0.83619 0.16047 0.0
N307 N 0.48298 0.82271 0.17167 0.0
C308 C 0.54215 0.84206 0.22217 0.0
C309 C 0.56104 0.84585 0.1952 0.0
C310 C 0.54352 0.82984 0.2316 0.0
N311 N 0.55079 0.84976 0.20423 0.0
C312 C 0.5628 0.8337 0.20409 0.0
C313 C 0.55389 0.82543 0.22246 0.0
H314 H 0.53389 0.8452 0.22889 0.0
H315 H 0.56777 0.85197 0.18097 0.0
C316 C 0.5596 0.89203 0.11824 0.0
N317 N 0.54664 0.88018 0.12803 0.0
C318 C 0.56088 0.89277 0.09543 0.0
C319 C 0.53548 0.86909 0.09324 0.0
C320 C 0.53472 0.86879 0.11605 0.0
C321 C 0.54871 0.88117 0.08259 0.0
H322 H 0.56899 0.90085 0.12819 0.0
H323 H 0.52461 0.85944 0.12419 0.0
O324 O 0.54216 0.87742 0.21427 0.0
O325 O 0.5398 0.89447 0.17373 0.0
O326 O 0.56446 0.88378 0.17519 0.0
O327 O 0.52953 0.85817 0.17095 0.0
H328 H 0.53024 0.87425 0.25388 0.0
H329 H 0.57187 0.8842 0.21779 0.0
H330 H 0.54482 0.87729 0.28846 0.0
H331 H 0.58571 0.88707 0.25292 0.0
H332 H 0.51924 0.90209 0.11133 0.0
H333 H 0.56418 0.92188 0.16228 0.0
H334 H 0.51715 0.88652 0.14441 0.0
H335 H 0.56543 0.93687 0.12895 0.0
H336 H 0.57045 0.93557 0.24885 0.0
H337 H 0.60534 0.94679 0.1982 0.0
H338 H 0.47783 0.84475 0.23134 0.0
H339 H 0.48483 0.88642 0.19714 0.0
H340 H 0.56182 0.86541 0.14163 0.0
H341 H 0.59386 0.89809 0.18923 0.0
H342 H 0.58388 0.86317 0.12579 0.0
H343 H 0.61531 0.89506 0.17276 0.0
H344 H 0.51835 0.83061 0.19076 0.0
H345 H 0.50592 0.85902 0.15113 0.0
H346 H 0.49029 0.80969 0.19117 0.0
H347 H 0.4781 0.83755 0.15205 0.0
H348 H 0.53623 0.82365 0.24554 0.0
H349 H 0.57107 0.83084 0.19665 0.0
H350 H 0.57139 0.90218 0.08797 0.0
H351 H 0.52572 0.86002 0.08406 0.0
Li352 Li 0.65311 0.53033 0.19262 0.0
Li353 Li 0.66376 0.56011 0.19253 0.0
Li354 Li 0.66584 0.5463 0.16021 0.0
Li355 Li 0.68116 0.54924 0.19144 0.0
C356 C 0.63624 0.53812 0.15742 0.0
N357 N 0.61718 0.52857 0.12076 0.0
C358 C 0.6351 0.5492 0.14433 0.0
C359 C 0.62768 0.52218 0.15184 0.0
C360 C 0.62542 0.54413 0.12586 0.0
C361 C 0.6181 0.51759 0.13326 0.0
C362 C 0.67379 0.54624 0.23322 0.0
C363 C 0.69448 0.55966 0.2598 0.0
N364 N 0.69056 0.54559 0.26916 0.0
C365 C 0.6699 0.53193 0.2432 0.0
C366 C 0.6861 0.56024 0.24168 0.0
C367 C 0.67854 0.53184 0.26133 0.0
C368 C 0.63888 0.49834 0.20572 0.0
N369 N 0.6368 0.51097 0.2036 0.0
C370 C 0.61055 0.49619 0.21723 0.0
C371 C 0.62304 0.51019 0.20921 0.0
C372 C 0.61231 0.48292 0.21965 0.0
C373 C 0.62673 0.48412 0.21388 0.0
H374 H 0.65 0.49935 0.20115 0.0
H375 H 0.62178 0.52047 0.20737 0.0
C376 C 0.65548 0.58399 0.18992 0.0
N377 N 0.65944 0.57567 0.20369 0.0
C378 C 0.65083 0.5943 0.19828 0.0
C379 C 0.6554 0.58798 0.23479 0.0
C380 C 0.65963 0.57757 0.22573 0.0
C381 C 0.65052 0.59627 0.22108 0.0
H382 H 0.65558 0.58236 0.17245 0.0
H383 H 0.66284 0.57081 0.23633 0.0
C384 C 0.67848 0.52658 0.16084 0.0
N385 N 0.69742 0.52011 0.1345 0.0
C386 C 0.69221 0.53886 0.15177 0.0
C387 C 0.67436 0.51101 0.15651 0.0
C388 C 0.70164 0.53536 0.1385 0.0
C389 C 0.6841 0.50798 0.14315 0.0
C390 C 0.69542 0.58058 0.17354 0.0
C391 C 0.70616 0.58507 0.15625 0.0
C392 C 0.69854 0.59087 0.19108 0.0
C393 C 0.71996 0.59969 0.157 0.0
C394 C 0.71247 0.60539 0.19121 0.0
N395 N 0.72281 0.60946 0.17432 0.0
C396 C 0.67162 0.56006 0.11822 0.0
C397 C 0.65904 0.5322 0.11807 0.0
C398 C 0.67177 0.56039 0.09537 0.0
N399 N 0.66541 0.54611 0.12903 0.0
C400 C 0.6588 0.53198 0.09522 0.0
C401 C 0.66532 0.54622 0.08359 0.0
H402 H 0.67644 0.57092 0.12737 0.0
H403 H 0.65415 0.52128 0.12711 0.0
C404 C 0.69936 0.53744 0.20899 0.0
N405 N 0.70059 0.55114 0.20189 0.0
C406 C 0.71242 0.53719 0.21751 0.0
C407 C 0.72799 0.56512 0.21082 0.0
C408 C 0.71457 0.56486 0.20265 0.0
C409 C 0.72704 0.55117 0.21851 0.0
H410 H 0.68811 0.52668 0.2083 0.0
H411 H 0.71545 0.57565 0.19705 0.0
O412 O 0.64606 0.54288 0.17518 0.0
O413 O 0.66573 0.54649 0.21509 0.0
O414 O 0.66899 0.5297 0.17378 0.0
O415 O 0.68177 0.56638 0.17291 0.0
H416 H 0.64179 0.56158 0.14819 0.0
H417 H 0.62861 0.51346 0.16151 0.0
H418 H 0.6245 0.55259 0.11553 0.0
H419 H 0.61147 0.5053 0.12871 0.0
H420 H 0.70413 0.57039 0.26638 0.0
H421 H 0.66041 0.52099 0.23692 0.0
H422 H 0.68931 0.57141 0.23416 0.0
H423 H 0.67571 0.52084 0.26913 0.0
H424 H 0.59969 0.49582 0.22174 0.0
H425 H 0.62851 0.47412 0.21538 0.0
H426 H 0.64703 0.60021 0.18696 0.0
H427 H 0.65578 0.58934 0.25239 0.0
H428 H 0.69556 0.55095 0.15497 0.0
H429 H 0.66373 0.50137 0.16336 0.0
H430 H 0.7123 0.54476 0.13139 0.0
H431 H 0.68105 0.49598 0.13965 0.0
H432 H 0.70388 0.57737 0.14238 0.0
H433 H 0.69039 0.58768 0.20454 0.0
H434 H 0.7284 0.60328 0.14378 0.0
H435 H 0.71506 0.61342 0.20475 0.0
H436 H 0.67673 0.57161 0.08702 0.0
H437 H 0.65382 0.52081 0.08675 0.0
H438 H 0.71099 0.52618 0.22356 0.0
H439 H 0.73902 0.57615 0.21091 0.0
Li440 Li 0.11993 0.66752 0.16118 0.0
Li441 Li 0.13169 0.68207 0.19502 0.0
Li442 Li 0.12124 0.65266 0.19338 0.0
Li443 Li 0.10365 0.66386 0.19483 0.0
C444 C 0.15058 0.66933 0.16591 0.0
N445 N 0.17452 0.668 0.144 0.0
C446 C 0.16484 0.68311 0.1619 0.0
C447 C 0.1486 0.65486 0.15911 0.0
C448 C 0.17676 0.68219 0.15069 0.0
C449 C 0.16081 0.65443 0.14797 0.0
C450 C 0.12011 0.69838 0.17417 0.0
C451 C 0.12351 0.72257 0.18932 0.0
N452 N 0.13024 0.73008 0.17025 0.0
C453 C 0.12693 0.70629 0.15464 0.0
C454 C 0.11824 0.70652 0.19159 0.0
C455 C 0.13202 0.72233 0.15301 0.0
C456 C 0.10624 0.66213 0.11925 0.0
N457 N 0.12024 0.66844 0.12995 0.0
C458 C 0.1342 0.67577 0.09599 0.0
C459 C 0.13408 0.67537 0.11883 0.0
C460 C 0.11991 0.66915 0.08441 0.0
C461 C 0.10579 0.66234 0.0964 0.0
H462 H 0.09539 0.65691 0.12851 0.0
H463 H 0.14507 0.68063 0.12761 0.0
C464 C 0.15149 0.70261 0.22804 0.0
N465 N 0.14833 0.70138 0.20625 0.0
C466 C 0.16397 0.71642 0.23662 0.0
C467 C 0.16957 0.72751 0.20021 0.0
C468 C 0.15714 0.71341 0.19231 0.0
C469 C 0.17325 0.72915 0.22266 0.0
H470 H 0.14449 0.69276 0.23872 0.0
H471 H 0.15463 0.71201 0.17499 0.0
C472 C 0.09513 0.63428 0.1626 0.0
N473 N 0.07925 0.60696 0.13835 0.0
C474 C 0.07906 0.62407 0.166 0.0
C475 C 0.10308 0.63065 0.14675 0.0
C476 C 0.07125 0.61029 0.15362 0.0
C477 C 0.09486 0.61678 0.13468 0.0
C478 C 0.11192 0.66312 0.23666 0.0
C479 C 0.10661 0.64888 0.24772 0.0
C480 C 0.10942 0.67476 0.24573 0.0
C481 C 0.09863 0.64642 0.26756 0.0
C482 C 0.10138 0.67185 0.26558 0.0
N483 N 0.09618 0.65785 0.27599 0.0
C484 C 0.1374 0.63872 0.21301 0.0
C485 C 0.11113 0.6208 0.20261 0.0
C486 C 0.13898 0.6265 0.22212 0.0
N487 N 0.12361 0.63566 0.20359 0.0
C488 C 0.11222 0.60824 0.21128 0.0
C489 C 0.12621 0.61099 0.2215 0.0
H490 H 0.14707 0.65071 0.21384 0.0
H491 H 0.10017 0.61868 0.19551 0.0
C492 C 0.07729 0.66837 0.20216 0.0
N493 N 0.08354 0.65893 0.20569 0.0
C494 C 0.06238 0.66414 0.21042 0.0
C495 C 0.06088 0.64077 0.22601 0.0
C496 C 0.07559 0.64527 0.21709 0.0
C497 C 0.0541 0.65024 0.22266 0.0
H498 H 0.08381 0.6791 0.19283 0.0
H499 H 0.08068 0.6378 0.21915 0.0
O500 O 0.13882 0.67003 0.17698 0.0
O501 O 0.11516 0.68271 0.17611 0.0
O502 O 0.10292 0.64781 0.17462 0.0
O503 O 0.11954 0.66565 0.21706 0.0
H504 H 0.16664 0.69439 0.16723 0.0
H505 H 0.13784 0.64403 0.16257 0.0
H506 H 0.18782 0.69277 0.14734 0.0
H507 H 0.15942 0.64331 0.14257 0.0
H508 H 0.12224 0.72905 0.20272 0.0
H509 H 0.12838 0.70013 0.14096 0.0
H510 H 0.11285 0.70054 0.20671 0.0
H511 H 0.13741 0.72863 0.13806 0.0
H512 H 0.14538 0.68103 0.08752 0.0
H513 H 0.0945 0.65736 0.08826 0.0
H514 H 0.1665 0.71693 0.25394 0.0
H515 H 0.1762 0.73699 0.18879 0.0
H516 H 0.07269 0.62674 0.17809 0.0
H517 H 0.11541 0.63856 0.14356 0.0
H518 H 0.05883 0.60225 0.15613 0.0
H519 H 0.10087 0.61385 0.12233 0.0
H520 H 0.1085 0.63977 0.24097 0.0
H521 H 0.11358 0.68589 0.23746 0.0
H522 H 0.09436 0.63542 0.27623 0.0
H523 H 0.09927 0.68071 0.27273 0.0
H524 H 0.14992 0.62926 0.23008 0.0
H525 H 0.10214 0.5965 0.21007 0.0
H526 H 0.05743 0.67166 0.20745 0.0
H527 H 0.05471 0.62983 0.23503 0.0
Li528 Li 0.86566 0.54767 0.30785 0.0
Li529 Li 0.87767 0.54442 0.33939 0.0
Li530 Li 0.89387 0.55829 0.30727 0.0
Li531 Li 0.87455 0.52858 0.30696 0.0
C532 C 0.88315 0.57897 0.32673 0.0
N533 N 0.88567 0.60831 0.32724 0.0
C534 C 0.87764 0.58365 0.34469 0.0
C535 C 0.89013 0.58931 0.30917 0.0
C536 C 0.87897 0.5985 0.34459 0.0
C537 C 0.89125 0.60406 0.3097 0.0
C538 C 0.84509 0.52518 0.33771 0.0
C539 C 0.81979 0.50697 0.35316 0.0
N540 N 0.81913 0.51922 0.36247 0.0
C541 C 0.84416 0.53759 0.34742 0.0
C542 C 0.83281 0.50975 0.34057 0.0
C543 C 0.83095 0.53434 0.35988 0.0
C544 C 0.83617 0.5365 0.28903 0.0
N545 N 0.8484 0.54991 0.29727 0.0
C546 C 0.83495 0.56406 0.28958 0.0
C547 C 0.84798 0.56356 0.29775 0.0
C548 C 0.82221 0.55041 0.28068 0.0
C549 C 0.82299 0.5365 0.28047 0.0
H550 H 0.83673 0.52577 0.28892 0.0
H551 H 0.85766 0.57409 0.30444 0.0
C552 C 0.88739 0.55788 0.38126 0.0
N553 N 0.87789 0.5442 0.37057 0.0
C554 C 0.8878 0.55827 0.4041 0.0
C555 C 0.86869 0.53047 0.40449 0.0
C556 C 0.86872 0.5306 0.38164 0.0
C557 C 0.87829 0.54445 0.41602 0.0
H558 H 0.89463 0.56849 0.37199 0.0
H559 H 0.86145 0.51983 0.37272 0.0
C560 C 0.87043 0.54474 0.26604 0.0
N561 N 0.8537 0.5444 0.22947 0.0
C562 C 0.86037 0.53054 0.25554 0.0
C563 C 0.87213 0.55879 0.25778 0.0
C564 C 0.85198 0.5306 0.2371 0.0
C565 C 0.86352 0.55836 0.23933 0.0
C566 C 0.89882 0.53586 0.34235 0.0
C567 C 0.91196 0.54646 0.35447 0.0
C568 C 0.89023 0.52011 0.34886 0.0
C569 C 0.91629 0.54113 0.37296 0.0
C570 C 0.89495 0.51523 0.36743 0.0
N571 N 0.90776 0.52576 0.379 0.0
C572 C 0.92589 0.58235 0.3106 0.0
C573 C 0.91578 0.57595 0.27455 0.0
C574 C 0.94089 0.59287 0.30257 0.0
N575 N 0.91382 0.57394 0.29655 0.0
C576 C 0.93047 0.58656 0.26582 0.0
C577 C 0.94343 0.59497 0.27983 0.0
H578 H 0.92395 0.58064 0.32803 0.0
H579 H 0.90596 0.56914 0.26374 0.0
C580 C 0.85666 0.49676 0.29321 0.0
N581 N 0.87142 0.50914 0.29619 0.0
C582 C 0.85451 0.48246 0.28525 0.0
C583 C 0.88279 0.49394 0.28391 0.0
C584 C 0.88438 0.50803 0.2917 0.0
C585 C 0.8677 0.48092 0.28058 0.0
H586 H 0.84658 0.49803 0.29693 0.0
H587 H 0.89596 0.51811 0.29422 0.0
O588 O 0.88208 0.56453 0.32671 0.0
O589 O 0.8579 0.52804 0.32541 0.0
O590 O 0.87845 0.54484 0.28443 0.0
O591 O 0.89404 0.54094 0.32465 0.0
H592 H 0.8724 0.5759 0.35857 0.0
H593 H 0.89458 0.58598 0.29524 0.0
H594 H 0.87469 0.60224 0.35833 0.0
H595 H 0.89655 0.61214 0.29617 0.0
H596 H 0.8102 0.49508 0.35553 0.0
H597 H 0.85352 0.54958 0.34532 0.0
H598 H 0.83336 0.50001 0.33316 0.0
H599 H 0.83009 0.54383 0.36748 0.0
H600 H 0.8348 0.575 0.29048 0.0
H601 H 0.81362 0.52573 0.2735 0.0
H602 H 0.89529 0.56932 0.41235 0.0
H603 H 0.86137 0.51951 0.41303 0.0
H604 H 0.85894 0.51956 0.26165 0.0
H605 H 0.87985 0.56988 0.26567 0.0
H606 H 0.84408 0.51969 0.2289 0.0
H607 H 0.86461 0.56913 0.23288 0.0
H608 H 0.91866 0.5587 0.34981 0.0
H609 H 0.87986 0.51179 0.33991 0.0
H610 H 0.92639 0.54922 0.38254 0.0
H611 H 0.88836 0.5031 0.37271 0.0
H612 H 0.95045 0.59889 0.3141 0.0
H613 H 0.93165 0.58799 0.24823 0.0
H614 H 0.84269 0.47267 0.28305 0.0
H615 H 0.89326 0.49331 0.28026 0.0
Li616 Li 0.3331 0.87864 0.34058 0.0
Li617 Li 0.31745 0.86638 0.30772 0.0
Li618 Li 0.34561 0.87463 0.3093 0.0
Li619 Li 0.33684 0.89404 0.30715 0.0
C620 C 0.3309 0.84617 0.32613 0.0
N621 N 0.33737 0.8219 0.32266 0.0
C622 C 0.32145 0.83309 0.31308 0.0
C623 C 0.34359 0.84687 0.33752 0.0
C624 C 0.32492 0.82095 0.31153 0.0
C625 C 0.3467 0.8345 0.3355 0.0
C626 C 0.3026 0.87924 0.32804 0.0
C627 C 0.27846 0.87595 0.31285 0.0
N628 N 0.27098 0.86945 0.33203 0.0
C629 C 0.29471 0.87261 0.34764 0.0
C630 C 0.29446 0.88103 0.31054 0.0
C631 C 0.27872 0.8677 0.34932 0.0
C632 C 0.33209 0.89087 0.38231 0.0
N633 N 0.33253 0.8789 0.37177 0.0
C634 C 0.33212 0.86674 0.40583 0.0
C635 C 0.33246 0.86692 0.383 0.0
C636 C 0.33177 0.879 0.41724 0.0
C637 C 0.33177 0.89119 0.40516 0.0
H638 H 0.33194 0.90015 0.37293 0.0
H639 H 0.33266 0.85747 0.37424 0.0
C640 C 0.29561 0.84755 0.27529 0.0
N641 N 0.29756 0.85039 0.29715 0.0
C642 C 0.28154 0.83518 0.26716 0.0
C643 C 0.27166 0.82904 0.30419 0.0
C644 C 0.28601 0.84137 0.31161 0.0
C645 C 0.2693 0.82565 0.28167 0.0
H646 H 0.30513 0.85464 0.26418 0.0
H647 H 0.28803 0.8436 0.32896 0.0
C648 C 0.36145 0.90289 0.34379 0.0
N649 N 0.377 0.92009 0.38049 0.0
C650 C 0.36212 0.9172 0.34812 0.0
C651 C 0.36875 0.89737 0.35804 0.0
C652 C 0.37004 0.92572 0.36677 0.0
C653 C 0.37652 0.90622 0.37654 0.0
C654 C 0.33715 0.88539 0.26604 0.0
C655 C 0.35171 0.8904 0.25605 0.0
C656 C 0.32636 0.8889 0.25636 0.0
C657 C 0.3553 0.89902 0.23661 0.0
C658 C 0.33041 0.89757 0.23694 0.0
N659 N 0.34468 0.90242 0.22756 0.0
C660 C 0.35764 0.85824 0.2851 0.0
C661 C 0.3766 0.88029 0.30511 0.0
C662 C 0.36934 0.85555 0.27674 0.0
N663 N 0.36145 0.87039 0.29911 0.0
C664 C 0.38868 0.87816 0.29695 0.0
C665 C 0.38516 0.86567 0.2825 0.0
H666 H 0.34552 0.85074 0.28025 0.0
H667 H 0.37935 0.89008 0.31585 0.0
C668 C 0.33321 0.92061 0.29658 0.0
N669 N 0.3427 0.91421 0.29543 0.0
C670 C 0.33809 0.93543 0.28744 0.0
C671 C 0.36229 0.93665 0.27616 0.0
C672 C 0.3571 0.92201 0.28583 0.0
C673 C 0.35273 0.94352 0.27685 0.0
H674 H 0.3219 0.91423 0.30457 0.0
H675 H 0.36452 0.91678 0.2856 0.0
O676 O 0.3278 0.85826 0.32769 0.0
O677 O 0.31823 0.884 0.32602 0.0
O678 O 0.35345 0.8942 0.32591 0.0
O679 O 0.33353 0.87722 0.2853 0.0
H680 H 0.31159 0.83235 0.30413 0.0
H681 H 0.35111 0.85697 0.34754 0.0
H682 H 0.31774 0.81078 0.30143 0.0
H683 H 0.35654 0.83493 0.34409 0.0
H684 H 0.27198 0.87717 0.2994 0.0
H685 H 0.30083 0.87111 0.36134 0.0
H686 H 0.3004 0.88616 0.29528 0.0
H687 H 0.27244 0.86247 0.36434 0.0
H688 H 0.33231 0.8572 0.41445 0.0
H689 H 0.33129 0.90076 0.41326 0.0
H690 H 0.28051 0.83286 0.24975 0.0
H691 H 0.26257 0.82219 0.31603 0.0
H692 H 0.35646 0.9216 0.33733 0.0
H693 H 0.36825 0.88627 0.35497 0.0
H694 H 0.3706 0.93678 0.37039 0.0
H695 H 0.38213 0.90204 0.38779 0.0
H696 H 0.36021 0.88782 0.26333 0.0
H697 H 0.31504 0.88508 0.26387 0.0
H698 H 0.36656 0.90306 0.22876 0.0
H699 H 0.32222 0.90046 0.22935 0.0
H700 H 0.36599 0.84568 0.26585 0.0
H701 H 0.4007 0.88651 0.30148 0.0
H702 H 0.33044 0.94041 0.28834 0.0
H703 H 0.37377 0.94266 0.26847 0.0
Li704 Li 0.44265 0.33823 0.30828 0.0
Li705 Li 0.47078 0.34728 0.31075 0.0
Li706 Li 0.45127 0.3191 0.30896 0.0
Li707 Li 0.45425 0.33456 0.3418 0.0
C708 C 0.45156 0.33854 0.2673 0.0
N709 N 0.44152 0.34562 0.22893 0.0
C710 C 0.46074 0.35315 0.25725 0.0
C711 C 0.43733 0.32748 0.25774 0.0
C712 C 0.45545 0.35652 0.23787 0.0
C713 C 0.43243 0.3313 0.23837 0.0
C714 C 0.45742 0.36245 0.34524 0.0
C715 C 0.46783 0.3767 0.37898 0.0
N716 N 0.45425 0.377 0.38204 0.0
C717 C 0.44358 0.36292 0.34871 0.0
C718 C 0.46967 0.36943 0.36046 0.0
C719 C 0.44221 0.37034 0.36741 0.0
C720 C 0.41237 0.33409 0.29682 0.0
N721 N 0.42823 0.34384 0.29624 0.0
C722 C 0.42526 0.36323 0.27659 0.0
C723 C 0.43474 0.35829 0.28677 0.0
C724 C 0.40887 0.35338 0.27666 0.0
C725 C 0.40238 0.33871 0.28718 0.0
H726 H 0.4075 0.32274 0.30471 0.0
H727 H 0.44737 0.36592 0.28699 0.0
C728 C 0.49771 0.35994 0.28367 0.0
N729 N 0.49087 0.3632 0.30067 0.0
C730 C 0.51193 0.37169 0.27497 0.0
C731 C 0.51194 0.38982 0.30175 0.0
C732 C 0.49768 0.37775 0.30982 0.0
C733 C 0.51916 0.38691 0.28392 0.0
H734 H 0.49194 0.34827 0.2766 0.0
H735 H 0.49186 0.38009 0.32308 0.0
C736 C 0.42366 0.30381 0.32896 0.0
N737 N 0.40265 0.27195 0.33266 0.0
C738 C 0.42283 0.29588 0.34836 0.0
C739 C 0.41372 0.29557 0.31151 0.0
C740 C 0.41214 0.27976 0.3499 0.0
C741 C 0.40321 0.27945 0.31368 0.0
C742 C 0.48497 0.33324 0.32666 0.0
C743 C 0.48881 0.32472 0.31205 0.0
C744 C 0.4969 0.34571 0.33846 0.0
C745 C 0.50455 0.32886 0.30944 0.0
C746 C 0.5125 0.3495 0.33534 0.0
N747 N 0.51598 0.34106 0.32102 0.0
C748 C 0.44756 0.29668 0.27678 0.0
C749 C 0.44612 0.28822 0.31344 0.0
C750 C 0.44587 0.28253 0.26901 0.0
N751 N 0.44763 0.29922 0.29864 0.0
C752 C 0.4442 0.27382 0.30641 0.0
C753 C 0.4442 0.27084 0.28389 0.0
H754 H 0.44922 0.30579 0.26536 0.0
H755 H 0.44663 0.29071 0.33074 0.0
C756 C 0.44023 0.33263 0.38313 0.0
N757 N 0.45312 0.33384 0.37297 0.0
C758 C 0.43936 0.33238 0.40597 0.0
C759 C 0.46495 0.33447 0.4074 0.0
C760 C 0.46529 0.33461 0.38457 0.0
C761 C 0.45187 0.33338 0.41841 0.0
H762 H 0.43068 0.33195 0.37346 0.0
H763 H 0.47528 0.33533 0.3761 0.0
O764 O 0.45636 0.33514 0.28654 0.0
O765 O 0.45884 0.35493 0.32729 0.0
O766 O 0.43417 0.31954 0.32703 0.0
O767 O 0.46965 0.3296 0.3291 0.0
H768 H 0.47173 0.36191 0.26449 0.0
H769 H 0.43007 0.31613 0.26531 0.0
H770 H 0.46239 0.36782 0.23 0.0
H771 H 0.4214 0.3229 0.23088 0.0
H772 H 0.47716 0.38203 0.39097 0.0
H773 H 0.43393 0.35749 0.33721 0.0
H774 H 0.48037 0.36897 0.35821 0.0
H775 H 0.43155 0.37074 0.37034 0.0
H776 H 0.43066 0.37473 0.26895 0.0
H777 H 0.38977 0.33085 0.2876 0.0
H778 H 0.51716 0.36893 0.2613 0.0
H779 H 0.51698 0.40145 0.30891 0.0
H780 H 0.43047 0.30206 0.362 0.0
H781 H 0.41421 0.30152 0.29639 0.0
H782 H 0.41142 0.27346 0.36477 0.0
H783 H 0.39552 0.27291 0.30025 0.0
H784 H 0.47976 0.3151 0.30269 0.0
H785 H 0.49417 0.35259 0.34958 0.0
H786 H 0.5077 0.32239 0.29814 0.0
H787 H 0.52186 0.3592 0.34423 0.0
H788 H 0.44632 0.28099 0.25153 0.0
H789 H 0.4428 0.26517 0.31853 0.0
H790 H 0.42911 0.33164 0.4138 0.0
H791 H 0.47473 0.335 0.41634 0.0
Li792 Li 0.1237 0.46941 0.30849 0.0
Li793 Li 0.10526 0.44039 0.30854 0.0
Li794 Li 0.12156 0.45258 0.34079 0.0
Li795 Li 0.13239 0.45053 0.30567 0.0
C796 C 0.10184 0.46496 0.34256 0.0
N797 N 0.09506 0.48199 0.3722 0.0
C798 C 0.0863 0.45955 0.349 0.0
C799 C 0.11394 0.47901 0.35123 0.0
C800 C 0.08311 0.46834 0.36399 0.0
C801 C 0.11026 0.48745 0.36618 0.0
C802 C 0.12595 0.45521 0.26492 0.0
C803 C 0.13197 0.44338 0.23456 0.0
N804 N 0.14066 0.45782 0.22527 0.0
C805 C 0.13478 0.4699 0.2549 0.0
C806 C 0.12438 0.44181 0.25452 0.0
C807 C 0.14217 0.47099 0.23492 0.0
C808 C 0.14022 0.50156 0.29508 0.0
N809 N 0.12586 0.48907 0.2999 0.0
C810 C 0.11338 0.50399 0.29135 0.0
C811 C 0.11255 0.49001 0.29812 0.0
C812 C 0.12802 0.51702 0.28598 0.0
C813 C 0.14158 0.51571 0.2879 0.0
H814 H 0.15057 0.50041 0.29628 0.0
H815 H 0.10125 0.47983 0.30176 0.0
C816 C 0.073 0.41873 0.31508 0.0
N817 N 0.08458 0.42499 0.29975 0.0
C818 C 0.05741 0.40868 0.30882 0.0
C819 C 0.06604 0.41132 0.27122 0.0
C820 C 0.08144 0.42137 0.2782 0.0
C821 C 0.05373 0.40507 0.28656 0.0
H822 H 0.07586 0.42188 0.33211 0.0
H823 H 0.09083 0.42669 0.26633 0.0
C824 C 0.15552 0.47201 0.3301 0.0
N825 N 0.18533 0.47669 0.33775 0.0
C826 C 0.15744 0.46041 0.34061 0.0
C827 C 0.16879 0.48603 0.32364 0.0
C828 C 0.1726 0.46298 0.34428 0.0
C829 C 0.18375 0.48816 0.32763 0.0
C830 C 0.10773 0.41738 0.3252 0.0
C831 C 0.09946 0.40971 0.34413 0.0
C832 C 0.10529 0.40875 0.30598 0.0
C833 C 0.08857 0.39361 0.34335 0.0
C834 C 0.09429 0.39267 0.30583 0.0
N835 N 0.08621 0.3855 0.32436 0.0
C836 C 0.10843 0.44339 0.38308 0.0
C837 C 0.13535 0.46305 0.38294 0.0
C838 C 0.10817 0.44339 0.40594 0.0
N839 N 0.12198 0.45287 0.37209 0.0
C840 C 0.1356 0.46351 0.40578 0.0
C841 C 0.12192 0.45348 0.41765 0.0
H842 H 0.09777 0.4359 0.37406 0.0
H843 H 0.14579 0.47102 0.37393 0.0
C844 C 0.16026 0.46017 0.28133 0.0
N845 N 0.14876 0.44794 0.29276 0.0
C846 C 0.1728 0.45909 0.27254 0.0
C847 C 0.16157 0.4329 0.28765 0.0
C848 C 0.14918 0.43446 0.29608 0.0
C849 C 0.1736 0.44534 0.27572 0.0
H850 H 0.15986 0.47091 0.27939 0.0
H851 H 0.14005 0.42502 0.30557 0.0
O852 O 0.10517 0.45635 0.32819 0.0
O853 O 0.11875 0.45398 0.28463 0.0
O854 O 0.14072 0.46944 0.32582 0.0
O855 O 0.11821 0.43322 0.3255 0.0
H856 H 0.07682 0.44865 0.3425 0.0
H857 H 0.12605 0.48331 0.34656 0.0
H858 H 0.07114 0.46429 0.36913 0.0
H859 H 0.11951 0.49834 0.37304 0.0
H860 H 0.13096 0.43311 0.22646 0.0
H861 H 0.13597 0.48038 0.26247 0.0
H862 H 0.11746 0.43033 0.26178 0.0
H863 H 0.14912 0.48231 0.2271 0.0
H864 H 0.10263 0.50447 0.28978 0.0
H865 H 0.15308 0.52551 0.28393 0.0
H866 H 0.0483 0.404 0.3212 0.0
H867 H 0.06372 0.40904 0.25388 0.0
H868 H 0.14731 0.44945 0.34568 0.0
H869 H 0.16759 0.49516 0.31555 0.0
H870 H 0.17423 0.45406 0.35227 0.0
H871 H 0.19412 0.49894 0.32263 0.0
H872 H 0.10146 0.41606 0.35929 0.0
H873 H 0.11175 0.4144 0.2913 0.0
H874 H 0.08203 0.38756 0.35787 0.0
H875 H 0.0922 0.3859 0.29099 0.0
H876 H 0.09732 0.43544 0.41431 0.0
H877 H 0.14636 0.47183 0.41403 0.0
H878 H 0.18197 0.46908 0.26383 0.0
H879 H 0.16172 0.42207 0.29043 0.0
Li880 Li 0.66731 0.12122 0.34173 0.0
Li881 Li 0.6823 0.1326 0.3099 0.0
Li882 Li 0.65436 0.12387 0.30911 0.0
Li883 Li 0.66466 0.10435 0.31015 0.0
C884 C 0.68019 0.15377 0.33919 0.0
N885 N 0.69956 0.18021 0.36354 0.0
C886 C 0.69386 0.1554 0.34873 0.0
C887 C 0.67637 0.16559 0.34199 0.0
C888 C 0.7035 0.16885 0.36098 0.0
C889 C 0.68631 0.17888 0.35438 0.0
C890 C 0.69641 0.11573 0.32954 0.0
C891 C 0.71317 0.10682 0.31394 0.0
N892 N 0.72354 0.11379 0.33065 0.0
C893 C 0.70713 0.12262 0.34673 0.0
C894 C 0.69935 0.1076 0.31315 0.0
C895 C 0.72082 0.12159 0.34692 0.0
C896 C 0.67111 0.11192 0.38385 0.0
N897 N 0.66705 0.12142 0.37294 0.0
C898 C 0.6627 0.131 0.40665 0.0
C899 C 0.66277 0.13078 0.3838 0.0
C900 C 0.66689 0.12134 0.41847 0.0
C901 C 0.67105 0.11164 0.40671 0.0
H902 H 0.67429 0.10446 0.37476 0.0
H903 H 0.6594 0.13809 0.37473 0.0
C904 C 0.70151 0.16283 0.29329 0.0
N905 N 0.70187 0.14959 0.29881 0.0
C906 C 0.71498 0.17606 0.28547 0.0
C907 C 0.72903 0.16179 0.28869 0.0
C908 C 0.71525 0.14881 0.29644 0.0
C909 C 0.72905 0.17571 0.28324 0.0
H910 H 0.69068 0.1631 0.29489 0.0
H911 H 0.71535 0.1382 0.3005 0.0
C912 C 0.63796 0.0993 0.34542 0.0
N913 N 0.61975 0.08917 0.38283 0.0
C914 C 0.63625 0.08619 0.35681 0.0
C915 C 0.63038 0.10724 0.353 0.0
C916 C 0.627 0.08126 0.37571 0.0
C917 C 0.62123 0.10193 0.37195 0.0
C918 C 0.67516 0.12674 0.26855 0.0
C919 C 0.67355 0.13862 0.25839 0.0
C920 C 0.68582 0.12257 0.26017 0.0
C921 C 0.68281 0.14629 0.24014 0.0
C922 C 0.69487 0.13052 0.2419 0.0
N923 N 0.69321 0.14213 0.23236 0.0
C924 C 0.64024 0.14084 0.29165 0.0
C925 C 0.62346 0.11338 0.29632 0.0
C926 C 0.62787 0.14228 0.28281 0.0
N927 N 0.63782 0.12652 0.298 0.0
C928 C 0.61075 0.1143 0.28785 0.0
C929 C 0.61285 0.12885 0.2807 0.0
H930 H 0.65183 0.15109 0.29318 0.0
H931 H 0.62189 0.10216 0.30157 0.0
C932 C 0.65893 0.07311 0.31479 0.0
N933 N 0.65977 0.08405 0.30036 0.0
C934 C 0.65369 0.05769 0.30784 0.0
C935 C 0.65105 0.06536 0.27118 0.0
C936 C 0.65615 0.08055 0.27887 0.0
C937 C 0.64947 0.05362 0.28582 0.0
H938 H 0.66197 0.07627 0.33177 0.0
H939 H 0.65679 0.08946 0.26782 0.0
O940 O 0.67054 0.14071 0.32712 0.0
O941 O 0.68282 0.11642 0.3293 0.0
O942 O 0.6474 0.10466 0.32734 0.0
O943 O 0.66654 0.11944 0.28683 0.0
H944 H 0.697 0.1464 0.3466 0.0
H945 H 0.66581 0.1645 0.33467 0.0
H946 H 0.71413 0.17026 0.36845 0.0
H947 H 0.68349 0.18812 0.3567 0.0
H948 H 0.71565 0.10066 0.30128 0.0
H949 H 0.70488 0.12863 0.35985 0.0
H950 H 0.69114 0.10204 0.29988 0.0
H951 H 0.72925 0.12694 0.36006 0.0
H952 H 0.65958 0.13882 0.41491 0.0
H953 H 0.67407 0.10376 0.41503 0.0
H954 H 0.71433 0.1864 0.28103 0.0
H955 H 0.73961 0.161 0.28733 0.0
H956 H 0.64211 0.07998 0.35124 0.0
H957 H 0.63175 0.11754 0.34452 0.0
H958 H 0.62563 0.07117 0.38475 0.0
H959 H 0.61537 0.10801 0.37807 0.0
H960 H 0.66537 0.142 0.26468 0.0
H961 H 0.68718 0.11338 0.26779 0.0
H962 H 0.68177 0.15558 0.23221 0.0
H963 H 0.70325 0.12749 0.23534 0.0
H964 H 0.63012 0.15371 0.27734 0.0
H965 H 0.59937 0.10368 0.28705 0.0
H966 H 0.65274 0.049 0.3196 0.0
H967 H 0.64772 0.06267 0.25414 0.0
Li968 Li 0.54866 0.68206 0.30795 0.0
Li969 Li 0.54559 0.66692 0.34111 0.0
Li970 Li 0.55822 0.6637 0.3084 0.0
Li971 Li 0.52987 0.65371 0.30959 0.0
C972 C 0.57558 0.69829 0.32863 0.0
N973 N 0.59508 0.73048 0.3317 0.0
C974 C 0.57501 0.70637 0.34713 0.0
C975 C 0.58614 0.70656 0.31177 0.0
C976 C 0.58496 0.72265 0.34836 0.0
C977 C 0.59587 0.72283 0.3136 0.0
C978 C 0.51453 0.66695 0.3242 0.0
C979 C 0.4869 0.64996 0.33173 0.0
N980 N 0.48339 0.65814 0.31702 0.0
C981 C 0.51063 0.67518 0.30915 0.0
C982 C 0.50257 0.65424 0.33562 0.0
C983 C 0.49482 0.67056 0.30576 0.0
C984 C 0.55411 0.70516 0.27567 0.0
N985 N 0.55188 0.70173 0.29738 0.0
C986 C 0.55256 0.72597 0.30484 0.0
C987 C 0.55104 0.71175 0.31194 0.0
C988 C 0.55476 0.72982 0.28247 0.0
C989 C 0.55562 0.71922 0.26783 0.0
H990 H 0.55435 0.69683 0.26437 0.0
H991 H 0.54896 0.70858 0.32906 0.0
C992 C 0.55979 0.67081 0.38266 0.0
N993 N 0.5463 0.66778 0.37231 0.0
C994 C 0.5606 0.67129 0.4055 0.0
C995 C 0.53359 0.66546 0.40658 0.0
C996 C 0.53336 0.66523 0.38374 0.0
C997 C 0.54735 0.66856 0.41783 0.0
H998 H 0.56994 0.67288 0.37313 0.0
H999 H 0.52281 0.66291 0.37513 0.0
C1000 C 0.54998 0.66292 0.26689 0.0
N1001 N 0.56114 0.65624 0.22926 0.0
C1002 C 0.54106 0.64844 0.25637 0.0
C1003 C 0.56453 0.67403 0.25818 0.0
C1004 C 0.54692 0.64529 0.23737 0.0
C1005 C 0.56999 0.67042 0.23918 0.0
C1006 C 0.54357 0.63968 0.34547 0.0
C1007 C 0.55784 0.64034 0.35001 0.0
C1008 C 0.53102 0.63212 0.36012 0.0
C1009 C 0.55934 0.63344 0.36918 0.0
C1010 C 0.533 0.6254 0.37914 0.0
N1011 N 0.547 0.62619 0.38324 0.0
C1012 C 0.58914 0.6685 0.29991 0.0
C1013 C 0.56753 0.64449 0.28755 0.0
C1014 C 0.59973 0.6642 0.29155 0.0
N1015 N 0.57338 0.65868 0.2976 0.0
C1016 C 0.57765 0.6399 0.27854 0.0
C1017 C 0.59395 0.64981 0.2805 0.0
H1018 H 0.59346 0.67961 0.30829 0.0
H1019 H 0.55494 0.63675 0.28648 0.0
C1020 C 0.50337 0.64025 0.28166 0.0
N1021 N 0.51021 0.6373 0.29898 0.0
C1022 C 0.4894 0.62822 0.27276 0.0
C1023 C 0.48965 0.61045 0.29996 0.0
C1024 C 0.50367 0.62278 0.30821 0.0
C1025 C 0.48242 0.61305 0.28186 0.0
H1026 H 0.50893 0.6519 0.27455 0.0
H1027 H 0.50949 0.6207 0.32173 0.0
O1028 O 0.56574 0.6824 0.32694 0.0
O1029 O 0.52992 0.67109 0.32743 0.0
O1030 O 0.54458 0.66613 0.28574 0.0
O1031 O 0.54201 0.64675 0.3271 0.0
H1032 H 0.56684 0.70018 0.36027 0.0
H1033 H 0.58672 0.70049 0.29735 0.0
H1034 H 0.58459 0.72907 0.36252 0.0
H1035 H 0.60403 0.7294 0.30062 0.0
H1036 H 0.47754 0.64007 0.34032 0.0
H1037 H 0.51968 0.68495 0.30001 0.0
H1038 H 0.50533 0.64752 0.34701 0.0
H1039 H 0.49164 0.6768 0.29412 0.0
H1040 H 0.55196 0.73382 0.31675 0.0
H1041 H 0.557 0.72154 0.25041 0.0
H1042 H 0.57154 0.67397 0.41337 0.0
H1043 H 0.52301 0.66304 0.41529 0.0
H1044 H 0.52984 0.63964 0.26294 0.0
H1045 H 0.57162 0.68525 0.26617 0.0
H1046 H 0.54018 0.6341 0.22913 0.0
H1047 H 0.58127 0.67887 0.23236 0.0
H1048 H 0.56773 0.64625 0.33898 0.0
H1049 H 0.51997 0.63173 0.35707 0.0
H1050 H 0.57034 0.63391 0.37294 0.0
H1051 H 0.52343 0.61963 0.39071 0.0
H1052 H 0.61227 0.67207 0.29346 0.0
H1053 H 0.57279 0.62859 0.27046 0.0
H1054 H 0.48414 0.63073 0.25889 0.0
H1055 H 0.48478 0.59888 0.30725 0.0
Li1056 Li 0.5612 0.89599 0.80646 0.0
Li1057 Li 0.54859 0.88141 0.84015 0.0
Li1058 Li 0.54968 0.86756 0.8058 0.0
Li1059 Li 0.53171 0.87818 0.80813 0.0
C1060 C 0.58325 0.89139 0.82586 0.0
N1061 N 0.61568 0.90883 0.82798 0.0
C1062 C 0.59065 0.89953 0.84499 0.0
C1063 C 0.59233 0.89193 0.80792 0.0
C1064 C 0.60707 0.90833 0.84572 0.0
C1065 C 0.60871 0.90087 0.80928 0.0
C1066 C 0.54163 0.90619 0.83863 0.0
C1067 C 0.52275 0.90849 0.86126 0.0
N1068 N 0.53378 0.9236 0.86603 0.0
C1069 C 0.55272 0.9218 0.84353 0.0
C1070 C 0.52648 0.89952 0.84737 0.0
C1071 C 0.54854 0.93038 0.85751 0.0
C1072 C 0.57642 0.91865 0.77361 0.0
N1073 N 0.5772 0.91562 0.79513 0.0
C1074 C 0.59933 0.94138 0.80028 0.0
C1075 C 0.58834 0.92662 0.8085 0.0
C1076 C 0.59868 0.94497 0.77815 0.0
C1077 C 0.58707 0.93328 0.76474 0.0
H1078 H 0.56721 0.90986 0.76344 0.0
H1079 H 0.58847 0.92409 0.82567 0.0
C1080 C 0.54339 0.86796 0.88243 0.0
N1081 N 0.5496 0.88182 0.87138 0.0
C1082 C 0.54375 0.86783 0.90529 0.0
C1083 C 0.55716 0.89624 0.90499 0.0
C1084 C 0.55661 0.89582 0.88215 0.0
C1085 C 0.55062 0.88211 0.91688 0.0
H1086 H 0.53811 0.85699 0.87348 0.0
H1087 H 0.56195 0.90669 0.87303 0.0
C1088 C 0.54637 0.87522 0.76393 0.0
N1089 N 0.54578 0.8631 0.7229 0.0
C1090 C 0.53219 0.86702 0.75248 0.0
C1091 C 0.56028 0.87746 0.75438 0.0
C1092 C 0.53213 0.86094 0.73178 0.0
C1093 C 0.55973 0.87118 0.73367 0.0
C1094 C 0.51735 0.8503 0.83349 0.0
C1095 C 0.51002 0.8353 0.8241 0.0
C1096 C 0.50981 0.85364 0.8503 0.0
C1097 C 0.49509 0.82398 0.83139 0.0
C1098 C 0.49489 0.842 0.85714 0.0
N1099 N 0.48789 0.82754 0.84761 0.0
C1100 C 0.5637 0.8485 0.80151 0.0
C1101 C 0.54086 0.84049 0.77993 0.0
C1102 C 0.56535 0.83609 0.79339 0.0
N1103 N 0.55165 0.8505 0.79459 0.0
C1104 C 0.54223 0.82813 0.77107 0.0
C1105 C 0.55459 0.82582 0.77783 0.0
H1106 H 0.57201 0.85652 0.81339 0.0
H1107 H 0.53112 0.84204 0.77518 0.0
C1108 C 0.51196 0.88947 0.79452 0.0
N1109 N 0.51226 0.87598 0.79838 0.0
C1110 C 0.49836 0.88888 0.78652 0.0
C1111 C 0.48559 0.86049 0.78639 0.0
C1112 C 0.49948 0.86165 0.79434 0.0
C1113 C 0.4849 0.87424 0.78233 0.0
H1114 H 0.52241 0.90073 0.79739 0.0
H1115 H 0.50011 0.8511 0.79686 0.0
O1116 O 0.56719 0.8828 0.8248 0.0
O1117 O 0.54554 0.89763 0.82497 0.0
O1118 O 0.54663 0.88115 0.78428 0.0
O1119 O 0.53197 0.86151 0.82653 0.0
H1120 H 0.5838 0.89914 0.85908 0.0
H1121 H 0.58679 0.8855 0.79312 0.0
H1122 H 0.61296 0.91477 0.86037 0.0
H1123 H 0.61588 0.90146 0.79547 0.0
H1124 H 0.51108 0.90346 0.86818 0.0
H1125 H 0.56445 0.92719 0.83674 0.0
H1126 H 0.51763 0.88762 0.84329 0.0
H1127 H 0.55704 0.94244 0.86157 0.0
H1128 H 0.60812 0.94993 0.81123 0.0
H1129 H 0.58582 0.93557 0.74774 0.0
H1130 H 0.5385 0.85665 0.9138 0.0
H1131 H 0.56286 0.90752 0.91324 0.0
H1132 H 0.52133 0.86527 0.75955 0.0
H1133 H 0.57138 0.88397 0.76288 0.0
H1134 H 0.52123 0.85448 0.7228 0.0
H1135 H 0.5704 0.87275 0.72615 0.0
H1136 H 0.51574 0.83246 0.81124 0.0
H1137 H 0.51547 0.86502 0.85815 0.0
H1138 H 0.48923 0.81236 0.82417 0.0
H1139 H 0.48891 0.84444 0.8701 0.0
H1140 H 0.57501 0.83463 0.799 0.0
H1141 H 0.53356 0.82027 0.75938 0.0
H1142 H 0.49851 0.89979 0.78321 0.0
H1143 H 0.47551 0.84895 0.78351 0.0
Li1144 Li 0.66662 0.54667 0.84146 0.0
Li1145 Li 0.66454 0.55969 0.80837 0.0
Li1146 Li 0.65344 0.53034 0.80981 0.0
Li1147 Li 0.68197 0.5483 0.80728 0.0
C1148 C 0.63709 0.54236 0.84303 0.0
N1149 N 0.61705 0.53998 0.87648 0.0
C1150 C 0.63362 0.55438 0.84647 0.0
C1151 C 0.63016 0.52902 0.85639 0.0
C1152 C 0.62351 0.55299 0.86351 0.0
C1153 C 0.62012 0.52807 0.87328 0.0
C1154 C 0.69311 0.58154 0.82733 0.0
C1155 C 0.71341 0.6059 0.8118 0.0
N1156 N 0.71235 0.61384 0.82934 0.0
C1157 C 0.69241 0.58993 0.84537 0.0
C1158 C 0.70385 0.58957 0.81054 0.0
C1159 C 0.70215 0.60626 0.84602 0.0
C1160 C 0.67169 0.53816 0.88358 0.0
N1161 N 0.66713 0.54731 0.87272 0.0
C1162 C 0.66261 0.55665 0.90655 0.0
C1163 C 0.66284 0.55663 0.88371 0.0
C1164 C 0.66707 0.54717 0.91821 0.0
C1165 C 0.67178 0.53793 0.90645 0.0
H1166 H 0.6752 0.53097 0.87448 0.0
H1167 H 0.65953 0.56401 0.87474 0.0
C1168 C 0.65536 0.57417 0.7764 0.0
N1169 N 0.66084 0.57576 0.79723 0.0
C1170 C 0.65142 0.58493 0.76785 0.0
C1171 C 0.65842 0.59862 0.80251 0.0
C1172 C 0.66246 0.58771 0.81029 0.0
C1173 C 0.65275 0.59723 0.78106 0.0
H1174 H 0.65359 0.56427 0.76658 0.0
H1175 H 0.6663 0.58844 0.82702 0.0
C1176 C 0.66617 0.51481 0.82908 0.0
N1177 N 0.65738 0.48332 0.83098 0.0
C1178 C 0.6735 0.50887 0.8156 0.0
C1179 C 0.65456 0.50478 0.84378 0.0
C1180 C 0.66885 0.49291 0.81674 0.0
C1181 C 0.65023 0.48888 0.84442 0.0
C1182 C 0.67091 0.54846 0.76499 0.0
C1183 C 0.6654 0.53635 0.74954 0.0
C1184 C 0.68197 0.56378 0.75876 0.0
C1185 C 0.6713 0.53972 0.72821 0.0
C1186 C 0.68758 0.56669 0.73727 0.0
N1187 N 0.68219 0.5547 0.72258 0.0
C1188 C 0.62161 0.50684 0.80503 0.0
C1189 C 0.6396 0.50114 0.78713 0.0
C1190 C 0.60892 0.49286 0.79732 0.0
N1191 N 0.63659 0.51068 0.7999 0.0
C1192 C 0.62725 0.48706 0.779 0.0
C1193 C 0.61164 0.4828 0.78401 0.0
H1194 H 0.61948 0.51478 0.81473 0.0
H1195 H 0.6516 0.50459 0.78295 0.0
C1196 C 0.71485 0.5602 0.80693 0.0
N1197 N 0.70121 0.55074 0.79609 0.0
C1198 C 0.72909 0.56205 0.79925 0.0
C1199 C 0.71498 0.54434 0.76949 0.0
C1200 C 0.70102 0.54275 0.77781 0.0
C1201 C 0.72926 0.55408 0.78024 0.0
H1202 H 0.71465 0.56625 0.82161 0.0
H1203 H 0.69 0.53488 0.76992 0.0
O1204 O 0.64712 0.54361 0.82657 0.0
O1205 O 0.68368 0.56553 0.82648 0.0
O1206 O 0.67046 0.53038 0.82802 0.0
O1207 O 0.66536 0.54532 0.78602 0.0
H1208 H 0.6387 0.5647 0.83615 0.0
H1209 H 0.63251 0.51951 0.85377 0.0
H1210 H 0.6208 0.56225 0.86643 0.0
H1211 H 0.61477 0.51785 0.88382 0.0
H1212 H 0.72172 0.61225 0.79887 0.0
H1213 H 0.68433 0.58392 0.85865 0.0
H1214 H 0.70495 0.58326 0.7968 0.0
H1215 H 0.70161 0.61289 0.85979 0.0
H1216 H 0.65913 0.56413 0.91499 0.0
H1217 H 0.67523 0.5304 0.91482 0.0
H1218 H 0.64675 0.58325 0.75139 0.0
H1219 H 0.65951 0.60789 0.81324 0.0
H1220 H 0.68259 0.51646 0.80427 0.0
H1221 H 0.64899 0.50921 0.85463 0.0
H1222 H 0.67434 0.48814 0.80628 0.0
H1223 H 0.6412 0.48098 0.85565 0.0
H1224 H 0.65671 0.52445 0.75397 0.0
H1225 H 0.68603 0.57335 0.77031 0.0
H1226 H 0.66721 0.53044 0.71613 0.0
H1227 H 0.69617 0.5785 0.73227 0.0
H1228 H 0.59707 0.4902 0.80124 0.0
H1229 H 0.62988 0.47962 0.76887 0.0
H1230 H 0.73986 0.5697 0.808 0.0
H1231 H 0.71453 0.5377 0.75507 0.0
Li1232 Li 0.10409 0.66312 0.80798 0.0
Li1233 Li 0.11981 0.6661 0.84223 0.0
Li1234 Li 0.13282 0.6811 0.80696 0.0
Li1235 Li 0.12162 0.65315 0.80983 0.0
C1236 C 0.11038 0.69078 0.83378 0.0
N1237 N 0.09707 0.70777 0.84997 0.0
C1238 C 0.10073 0.68551 0.85229 0.0
C1239 C 0.11343 0.70483 0.82369 0.0
C1240 C 0.09406 0.69422 0.86017 0.0
C1241 C 0.10654 0.7132 0.83207 0.0
C1242 C 0.09655 0.63106 0.82857 0.0
C1243 C 0.09539 0.60775 0.84349 0.0
N1244 N 0.08491 0.59897 0.82765 0.0
C1245 C 0.08571 0.6218 0.81251 0.0
C1246 C 0.10141 0.624 0.84424 0.0
C1247 C 0.07999 0.60559 0.8123 0.0
C1248 C 0.07952 0.65209 0.7771 0.0
N1249 N 0.08392 0.65873 0.79728 0.0
C1250 C 0.05868 0.65635 0.8027 0.0
C1251 C 0.07382 0.66086 0.81012 0.0
C1252 C 0.05387 0.64953 0.78189 0.0
C1253 C 0.06457 0.64754 0.76896 0.0
H1254 H 0.08743 0.64982 0.76753 0.0
H1255 H 0.07728 0.66559 0.82638 0.0
C1256 C 0.13232 0.67936 0.88368 0.0
N1257 N 0.12015 0.66706 0.87325 0.0
C1258 C 0.13264 0.68014 0.90654 0.0
C1259 C 0.10794 0.65558 0.90739 0.0
C1260 C 0.10803 0.65534 0.88456 0.0
C1261 C 0.12037 0.66808 0.91868 0.0
H1262 H 0.14177 0.68852 0.87421 0.0
H1263 H 0.09838 0.64584 0.87582 0.0
C1264 C 0.11838 0.67238 0.76685 0.0
N1265 N 0.11654 0.68766 0.72995 0.0
C1266 C 0.12121 0.66822 0.74617 0.0
C1267 C 0.11464 0.68432 0.76875 0.0
C1268 C 0.12021 0.67609 0.72771 0.0
C1269 C 0.11375 0.6919 0.74992 0.0
C1270 C 0.15137 0.66668 0.82751 0.0
C1271 C 0.15919 0.66753 0.80801 0.0
C1272 C 0.15608 0.66282 0.84702 0.0
C1273 C 0.17156 0.66434 0.80833 0.0
C1274 C 0.16851 0.65974 0.84665 0.0
N1275 N 0.17592 0.66054 0.82748 0.0
C1276 C 0.15478 0.71393 0.80668 0.0
C1277 C 0.1565 0.69952 0.77672 0.0
C1278 C 0.16746 0.72783 0.79861 0.0
N1279 N 0.14962 0.70017 0.79569 0.0
C1280 C 0.16918 0.71309 0.76808 0.0
C1281 C 0.17492 0.72749 0.77913 0.0
H1282 H 0.14916 0.71405 0.82185 0.0
H1283 H 0.15222 0.68842 0.76834 0.0
C1284 C 0.11739 0.62993 0.77985 0.0
N1285 N 0.12378 0.63581 0.79978 0.0
C1286 C 0.11765 0.61687 0.77138 0.0
C1287 C 0.13131 0.61623 0.80395 0.0
C1288 C 0.13053 0.62916 0.81197 0.0
C1289 C 0.12473 0.6099 0.78346 0.0
H1290 H 0.11182 0.63525 0.77069 0.0
H1291 H 0.13503 0.63364 0.82809 0.0
O1292 O 0.1173 0.6826 0.82609 0.0
O1293 O 0.10262 0.64699 0.82866 0.0
O1294 O 0.11952 0.66487 0.78506 0.0
O1295 O 0.1392 0.66968 0.82758 0.0
H1296 H 0.09821 0.67468 0.8603 0.0
H1297 H 0.12111 0.70927 0.80959 0.0
H1298 H 0.08648 0.6902 0.87438 0.0
H1299 H 0.10877 0.72406 0.82438 0.0
H1300 H 0.09913 0.60214 0.85541 0.0
H1301 H 0.0819 0.62709 0.80021 0.0
H1302 H 0.10995 0.63103 0.8566 0.0
H1303 H 0.07167 0.59829 0.79989 0.0
H1304 H 0.05074 0.658 0.81323 0.0
H1305 H 0.06121 0.64195 0.75306 0.0
H1306 H 0.14249 0.68993 0.91462 0.0
H1307 H 0.09813 0.64619 0.91611 0.0
H1308 H 0.12421 0.65906 0.74441 0.0
H1309 H 0.11234 0.68761 0.78456 0.0
H1310 H 0.12239 0.673 0.71161 0.0
H1311 H 0.11083 0.70114 0.75118 0.0
H1312 H 0.15559 0.67037 0.79277 0.0
H1313 H 0.15012 0.66214 0.86224 0.0
H1314 H 0.17766 0.66484 0.79334 0.0
H1315 H 0.17226 0.65668 0.86161 0.0
H1316 H 0.17162 0.73863 0.80779 0.0
H1317 H 0.17442 0.71231 0.75288 0.0
H1318 H 0.11246 0.61231 0.7555 0.0
H1319 H 0.13663 0.611 0.81387 0.0
Li1320 Li 0.44151 0.10435 0.81069 0.0
Li1321 Li 0.45465 0.12158 0.84252 0.0
Li1322 Li 0.45105 0.13237 0.80838 0.0
Li1323 Li 0.46909 0.12301 0.81 0.0
C1324 C 0.42192 0.10773 0.84149 0.0
N1325 N 0.39706 0.08929 0.86899 0.0
C1326 C 0.42173 0.09538 0.85318 0.0
C1327 C 0.40949 0.11072 0.84383 0.0
C1328 C 0.40906 0.0862 0.867 0.0
C1329 C 0.39702 0.10125 0.85778 0.0
C1330 C 0.46925 0.1011 0.83385 0.0
C1331 C 0.49408 0.10723 0.8501 0.0
N1332 N 0.49323 0.09447 0.84002 0.0
C1333 C 0.46857 0.08799 0.82376 0.0
C1334 C 0.48206 0.11077 0.84721 0.0
C1335 C 0.48083 0.08486 0.82705 0.0
C1336 C 0.43347 0.07828 0.78607 0.0
N1337 N 0.42674 0.08393 0.80006 0.0
C1338 C 0.40184 0.06035 0.79634 0.0
C1339 C 0.41113 0.07548 0.80495 0.0
C1340 C 0.40864 0.05402 0.78233 0.0
C1341 C 0.42463 0.06337 0.77692 0.0
H1342 H 0.4458 0.08543 0.78202 0.0
H1343 H 0.40585 0.08036 0.81553 0.0
C1344 C 0.45352 0.13454 0.88339 0.0
N1345 N 0.45466 0.12272 0.87359 0.0
C1346 C 0.45289 0.13519 0.90621 0.0
C1347 C 0.45471 0.11155 0.90831 0.0
C1348 C 0.45521 0.11132 0.88551 0.0
C1349 C 0.45345 0.12356 0.91901 0.0
H1350 H 0.45292 0.14334 0.87345 0.0
H1351 H 0.4559 0.10192 0.87731 0.0
C1352 C 0.44387 0.11574 0.76921 0.0
N1353 N 0.42405 0.10932 0.73381 0.0
C1354 C 0.44897 0.11492 0.74816 0.0
C1355 C 0.42866 0.11323 0.77228 0.0
C1356 C 0.43878 0.11168 0.73046 0.0
C1357 C 0.41883 0.11001 0.75417 0.0
C1358 C 0.48147 0.15504 0.81895 0.0
C1359 C 0.48496 0.15694 0.79659 0.0
C1360 C 0.4893 0.16788 0.83304 0.0
C1361 C 0.49626 0.17168 0.78871 0.0
C1362 C 0.50054 0.18243 0.82453 0.0
N1363 N 0.50376 0.18402 0.80272 0.0
C1364 C 0.44322 0.15644 0.81036 0.0
C1365 C 0.45155 0.15306 0.77541 0.0
C1366 C 0.44224 0.16938 0.80281 0.0
N1367 N 0.44791 0.14865 0.79667 0.0
C1368 C 0.45051 0.16573 0.76711 0.0
C1369 C 0.44607 0.1743 0.78092 0.0
H1370 H 0.44067 0.15285 0.8273 0.0
H1371 H 0.45567 0.14702 0.76493 0.0
C1372 C 0.48675 0.11537 0.78243 0.0
N1373 N 0.4883 0.12537 0.79884 0.0
C1374 C 0.49998 0.11568 0.77356 0.0
C1375 C 0.51626 0.13679 0.79842 0.0
C1376 C 0.50265 0.13594 0.807 0.0
C1377 C 0.51504 0.12653 0.78147 0.0
H1378 H 0.47516 0.10696 0.77647 0.0
H1379 H 0.50354 0.14364 0.82026 0.0
O1380 O 0.43432 0.11713 0.82819 0.0
O1381 O 0.45762 0.10466 0.83033 0.0
O1382 O 0.45373 0.11874 0.78664 0.0
O1383 O 0.47031 0.14079 0.82711 0.0
H1384 H 0.43117 0.0928 0.8515 0.0
H1385 H 0.40952 0.12028 0.83496 0.0
H1386 H 0.40874 0.07659 0.87611 0.0
H1387 H 0.38731 0.10342 0.85973 0.0
H1388 H 0.50412 0.11468 0.86026 0.0
H1389 H 0.45873 0.08035 0.81344 0.0
H1390 H 0.48284 0.12105 0.85496 0.0
H1391 H 0.4805 0.0748 0.81927 0.0
H1392 H 0.38956 0.0536 0.80095 0.0
H1393 H 0.43032 0.05927 0.76566 0.0
H1394 H 0.4517 0.14454 0.91369 0.0
H1395 H 0.4554 0.10246 0.91744 0.0
H1396 H 0.46069 0.11677 0.74554 0.0
H1397 H 0.42446 0.11375 0.78843 0.0
H1398 H 0.44258 0.11103 0.71407 0.0
H1399 H 0.40705 0.10806 0.7563 0.0
H1400 H 0.47902 0.14716 0.7854 0.0
H1401 H 0.48668 0.1666 0.85038 0.0
H1402 H 0.49907 0.17331 0.77144 0.0
H1403 H 0.5067 0.19247 0.83525 0.0
H1404 H 0.439 0.17573 0.8142 0.0
H1405 H 0.45333 0.16885 0.75005 0.0
H1406 H 0.49837 0.10728 0.76089 0.0
H1407 H 0.52759 0.14546 0.80493 0.0
Li1408 Li 0.33342 0.45382 0.84136 0.0
Li1409 Li 0.33509 0.44045 0.80828 0.0
Li1410 Li 0.34674 0.46995 0.80855 0.0
Li1411 Li 0.31827 0.45188 0.80703 0.0
C1412 C 0.36572 0.46115 0.83858 0.0
N1413 N 0.3925 0.47036 0.86336 0.0
C1414 C 0.37076 0.45043 0.8433 0.0
C1415 C 0.37446 0.47662 0.84616 0.0
C1416 C 0.38428 0.45529 0.85595 0.0
C1417 C 0.38792 0.48103 0.85873 0.0
C1418 C 0.30925 0.41887 0.82926 0.0
C1419 C 0.29424 0.3926 0.81465 0.0
N1420 N 0.2956 0.38668 0.83413 0.0
C1421 C 0.31038 0.41252 0.8492 0.0
C1422 C 0.301 0.40885 0.8119 0.0
C1423 C 0.30344 0.39621 0.85131 0.0
C1424 C 0.32429 0.45851 0.8833 0.0
N1425 N 0.33313 0.45351 0.8726 0.0
C1426 C 0.34162 0.44816 0.90657 0.0
C1427 C 0.34153 0.44818 0.88373 0.0
C1428 C 0.33278 0.45346 0.91815 0.0
C1429 C 0.32396 0.45861 0.90617 0.0
H1430 H 0.31749 0.46244 0.87405 0.0
H1431 H 0.3481 0.44384 0.87491 0.0
C1432 C 0.34212 0.42412 0.77649 0.0
N1433 N 0.33881 0.42425 0.79805 0.0
C1434 C 0.34662 0.41358 0.76867 0.0
C1435 C 0.34375 0.40318 0.80529 0.0
C1436 C 0.33944 0.41401 0.81242 0.0
C1437 C 0.34773 0.40307 0.7832 0.0
H1438 H 0.34185 0.4326 0.76548 0.0
H1439 H 0.33711 0.41458 0.82957 0.0
C1440 C 0.33387 0.48466 0.83485 0.0
N1441 N 0.34139 0.5139 0.85106 0.0
C1442 C 0.32655 0.49263 0.82642 0.0
C1443 C 0.34481 0.49145 0.85179 0.0
C1444 C 0.33058 0.50744 0.83475 0.0
C1445 C 0.34851 0.50627 0.8597 0.0
C1446 C 0.3282 0.45429 0.76541 0.0
C1447 C 0.3335 0.46828 0.75371 0.0
C1448 C 0.31633 0.44015 0.75664 0.0
C1449 C 0.32662 0.46793 0.73354 0.0
C1450 C 0.30973 0.4403 0.73644 0.0
N1451 N 0.31496 0.45407 0.72541 0.0
C1452 C 0.37747 0.48942 0.79352 0.0
C1453 C 0.36214 0.50192 0.79391 0.0
C1454 C 0.3903 0.50292 0.78493 0.0
N1455 N 0.36379 0.48919 0.79795 0.0
C1456 C 0.37467 0.51568 0.78534 0.0
C1457 C 0.38898 0.51629 0.78065 0.0
H1458 H 0.37838 0.47904 0.79653 0.0
H1459 H 0.351 0.50129 0.79684 0.0
C1460 C 0.28518 0.43708 0.80054 0.0
N1461 N 0.2993 0.44988 0.79565 0.0
C1462 C 0.27129 0.43566 0.7921 0.0
C1463 C 0.28677 0.46056 0.77364 0.0
C1464 C 0.3003 0.46158 0.78265 0.0
C1465 C 0.27195 0.4475 0.77837 0.0
H1466 H 0.2847 0.42803 0.81115 0.0
H1467 H 0.31166 0.47172 0.77922 0.0
O1468 O 0.35252 0.45656 0.82616 0.0
O1469 O 0.31606 0.43481 0.82684 0.0
O1470 O 0.33003 0.47014 0.82687 0.0
O1471 O 0.33466 0.45443 0.7853 0.0
H1472 H 0.36426 0.43846 0.8374 0.0
H1473 H 0.37105 0.48521 0.84212 0.0
H1474 H 0.38824 0.44708 0.85986 0.0
H1475 H 0.39478 0.49296 0.86471 0.0
H1476 H 0.28789 0.38471 0.80131 0.0
H1477 H 0.31663 0.4201 0.86285 0.0
H1478 H 0.29986 0.41356 0.79646 0.0
H1479 H 0.3043 0.39114 0.8666 0.0
H1480 H 0.3487 0.44419 0.91502 0.0
H1481 H 0.31672 0.46251 0.91433 0.0
H1482 H 0.34985 0.41416 0.75161 0.0
H1483 H 0.34428 0.39521 0.81706 0.0
H1484 H 0.31792 0.48749 0.81349 0.0
H1485 H 0.35025 0.48529 0.85896 0.0
H1486 H 0.32508 0.51378 0.82826 0.0
H1487 H 0.35698 0.51166 0.87278 0.0
H1488 H 0.34274 0.47931 0.7602 0.0
H1489 H 0.31222 0.42921 0.76537 0.0
H1490 H 0.33054 0.47869 0.72437 0.0
H1491 H 0.30047 0.42946 0.72952 0.0
H1492 H 0.40114 0.50289 0.78174 0.0
H1493 H 0.37305 0.5256 0.7819 0.0
H1494 H 0.26016 0.42551 0.79656 0.0
H1495 H 0.28797 0.46987 0.7629 0.0
Li1496 Li 0.89573 0.33633 0.8074 0.0
Li1497 Li 0.88018 0.33379 0.84124 0.0
Li1498 Li 0.86679 0.31928 0.80728 0.0
Li1499 Li 0.87871 0.34708 0.80909 0.0
C1500 C 0.88756 0.30815 0.83494 0.0
N1501 N 0.8981 0.28982 0.85476 0.0
C1502 C 0.89899 0.3145 0.85134 0.0
C1503 C 0.88143 0.29246 0.82867 0.0
C1504 C 0.90418 0.30505 0.86115 0.0
C1505 C 0.88693 0.28339 0.83886 0.0
C1506 C 0.90323 0.36856 0.82948 0.0
C1507 C 0.90292 0.39048 0.84678 0.0
N1508 N 0.91371 0.40038 0.83202 0.0
C1509 C 0.91438 0.37895 0.81455 0.0
C1510 C 0.89749 0.37434 0.84578 0.0
C1511 C 0.9195 0.395 0.81608 0.0
C1512 C 0.92017 0.34937 0.77762 0.0
N1513 N 0.91533 0.34003 0.79568 0.0
C1514 C 0.93906 0.33878 0.79573 0.0
C1515 C 0.92438 0.33461 0.80475 0.0
C1516 C 0.94434 0.34847 0.77712 0.0
C1517 C 0.93461 0.35366 0.76795 0.0
H1518 H 0.91289 0.35376 0.77096 0.0
H1519 H 0.9204 0.32729 0.81914 0.0
C1520 C 0.86689 0.3224 0.88296 0.0
N1521 N 0.88016 0.33293 0.87226 0.0
C1522 C 0.86669 0.3217 0.90581 0.0
C1523 C 0.89383 0.34264 0.90611 0.0
C1524 C 0.89348 0.34296 0.88329 0.0
C1525 C 0.88029 0.33193 0.91772 0.0
H1526 H 0.85645 0.3146 0.87371 0.0
H1527 H 0.90389 0.35117 0.87431 0.0
C1528 C 0.88174 0.32712 0.76689 0.0
N1529 N 0.88426 0.3116 0.73074 0.0
C1530 C 0.88091 0.3322 0.74581 0.0
C1531 C 0.88388 0.31417 0.76958 0.0
C1532 C 0.8822 0.32419 0.72775 0.0
C1533 C 0.88512 0.30648 0.7511 0.0
C1534 C 0.84689 0.33002 0.82078 0.0
C1535 C 0.84399 0.3311 0.79862 0.0
C1536 C 0.83532 0.32724 0.83628 0.0
C1537 C 0.8295 0.32934 0.79235 0.0
C1538 C 0.82099 0.32556 0.82936 0.0
N1539 N 0.8184 0.32663 0.80772 0.0
C1540 C 0.84135 0.28811 0.81118 0.0
C1541 C 0.84419 0.29926 0.77594 0.0
C1542 C 0.82791 0.27431 0.80443 0.0
N1543 N 0.84917 0.30022 0.79694 0.0
C1544 C 0.83103 0.28564 0.7684 0.0
C1545 C 0.82253 0.27293 0.78273 0.0
H1546 H 0.84541 0.2893 0.82791 0.0
H1547 H 0.85026 0.30915 0.76503 0.0
C1548 C 0.88383 0.37078 0.77939 0.0
N1549 N 0.87696 0.36447 0.79892 0.0
C1550 C 0.88295 0.38344 0.77067 0.0
C1551 C 0.868 0.38297 0.80241 0.0
C1552 C 0.86917 0.37028 0.81053 0.0
C1553 C 0.87489 0.38967 0.78215 0.0
H1554 H 0.89007 0.36599 0.77066 0.0
H1555 H 0.86386 0.36504 0.82607 0.0
O1556 O 0.88209 0.31707 0.82534 0.0
O1557 O 0.89773 0.35275 0.82787 0.0
O1558 O 0.88054 0.33496 0.78466 0.0
O1559 O 0.86097 0.33173 0.82741 0.0
H1560 H 0.90398 0.32667 0.85619 0.0
H1561 H 0.87252 0.28735 0.81605 0.0
H1562 H 0.91308 0.30983 0.8738 0.0
H1563 H 0.88232 0.27124 0.83415 0.0
H1564 H 0.89851 0.39511 0.85922 0.0
H1565 H 0.9189 0.37465 0.8018 0.0
H1566 H 0.88875 0.36642 0.85734 0.0
H1567 H 0.92804 0.40318 0.80456 0.0
H1568 H 0.94622 0.33452 0.80325 0.0
H1569 H 0.93836 0.36138 0.75385 0.0
H1570 H 0.85593 0.3134 0.91405 0.0
H1571 H 0.90465 0.35058 0.91453 0.0
H1572 H 0.87926 0.34221 0.74345 0.0
H1573 H 0.8846 0.31007 0.78569 0.0
H1574 H 0.88156 0.32798 0.71134 0.0
H1575 H 0.88678 0.29644 0.75295 0.0
H1576 H 0.85281 0.33332 0.78638 0.0
H1577 H 0.83742 0.3264 0.8535 0.0
H1578 H 0.8271 0.33014 0.77527 0.0
H1579 H 0.81193 0.32341 0.84119 0.0
H1580 H 0.82164 0.26501 0.81625 0.0
H1581 H 0.8276 0.28514 0.75146 0.0
H1582 H 0.88867 0.38841 0.7552 0.0
H1583 H 0.86159 0.38733 0.81172 0.0
Li1584 Li 0.13238 0.44951 0.69394 0.0
Li1585 Li 0.12279 0.46896 0.69357 0.0
Li1586 Li 0.10513 0.44152 0.69167 0.0
Li1587 Li 0.12045 0.45396 0.65999 0.0
C1588 C 0.11063 0.44518 0.73341 0.0
N1589 N 0.09096 0.42827 0.76758 0.0
C1590 C 0.10199 0.45088 0.74435 0.0
C1591 C 0.10933 0.43092 0.73993 0.0
C1592 C 0.09208 0.44213 0.76155 0.0
C1593 C 0.09932 0.42255 0.75724 0.0
C1594 C 0.15516 0.4803 0.68074 0.0
C1595 C 0.18109 0.5005 0.66979 0.0
N1596 N 0.18592 0.50215 0.69098 0.0
C1597 C 0.16036 0.48219 0.70242 0.0
C1598 C 0.16559 0.48948 0.66427 0.0
C1599 C 0.17596 0.4933 0.70726 0.0
C1600 C 0.15846 0.44521 0.68887 0.0
N1601 N 0.14858 0.44579 0.70394 0.0
C1602 C 0.16349 0.44352 0.73318 0.0
C1603 C 0.15083 0.44498 0.72575 0.0
C1604 C 0.17407 0.44319 0.71802 0.0
C1605 C 0.17141 0.44398 0.69559 0.0
H1606 H 0.15647 0.44612 0.67164 0.0
H1607 H 0.14311 0.44598 0.73742 0.0
C1608 C 0.11128 0.48756 0.71005 0.0
N1609 N 0.12506 0.48828 0.70465 0.0
C1610 C 0.11119 0.50073 0.71846 0.0
C1611 C 0.13952 0.51527 0.71566 0.0
C1612 C 0.13904 0.50186 0.70699 0.0
C1613 C 0.12546 0.51484 0.72162 0.0
H1614 H 0.1003 0.47669 0.70776 0.0
H1615 H 0.14985 0.50241 0.70221 0.0
C1616 C 0.10697 0.41887 0.66784 0.0
N1617 N 0.08663 0.38789 0.65676 0.0
C1618 C 0.09395 0.41501 0.65454 0.0
C1619 C 0.10973 0.40703 0.6754 0.0
C1620 C 0.08378 0.39925 0.64916 0.0
C1621 C 0.09929 0.39142 0.66963 0.0
C1622 C 0.10322 0.46886 0.66131 0.0
C1623 C 0.08844 0.46703 0.65671 0.0
C1624 C 0.11674 0.48198 0.65317 0.0
C1625 C 0.08742 0.47835 0.64407 0.0
C1626 C 0.11523 0.49304 0.6406 0.0
N1627 N 0.10072 0.49101 0.63635 0.0
C1628 C 0.07402 0.43136 0.70234 0.0
C1629 C 0.08021 0.41109 0.70697 0.0
C1630 C 0.05869 0.42147 0.70958 0.0
N1631 N 0.08441 0.42606 0.70106 0.0
C1632 C 0.06495 0.40076 0.71431 0.0
C1633 C 0.05394 0.40591 0.71564 0.0
H1634 H 0.07776 0.44341 0.69808 0.0
H1635 H 0.08874 0.40722 0.70641 0.0
C1636 C 0.13481 0.45789 0.61846 0.0
N1637 N 0.12118 0.45429 0.62886 0.0
C1638 C 0.13542 0.45793 0.59559 0.0
C1639 C 0.10798 0.45064 0.59466 0.0
C1640 C 0.10788 0.45065 0.61749 0.0
C1641 C 0.12185 0.45424 0.58335 0.0
H1642 H 0.14516 0.46059 0.62795 0.0
H1643 H 0.09715 0.44771 0.62614 0.0
O1644 O 0.12014 0.4534 0.71623 0.0
O1645 O 0.14009 0.46913 0.67549 0.0
O1646 O 0.11703 0.43418 0.6734 0.0
O1647 O 0.10429 0.45781 0.67372 0.0
H1648 H 0.10286 0.46189 0.73957 0.0
H1649 H 0.11571 0.42619 0.73139 0.0
H1650 H 0.08527 0.44637 0.77009 0.0
H1651 H 0.09811 0.41144 0.76233 0.0
H1652 H 0.1893 0.5077 0.65721 0.0
H1653 H 0.1524 0.47527 0.7154 0.0
H1654 H 0.16175 0.48809 0.6474 0.0
H1655 H 0.18014 0.4949 0.72397 0.0
H1656 H 0.16532 0.44323 0.75062 0.0
H1657 H 0.17931 0.44376 0.68341 0.0
H1658 H 0.1 0.49985 0.72225 0.0
H1659 H 0.15083 0.52579 0.71791 0.0
H1660 H 0.09162 0.42404 0.64871 0.0
H1661 H 0.11979 0.40988 0.68569 0.0
H1662 H 0.07359 0.39606 0.639 0.0
H1663 H 0.10123 0.38211 0.67541 0.0
H1664 H 0.07785 0.45693 0.66281 0.0
H1665 H 0.12829 0.48368 0.65647 0.0
H1666 H 0.07606 0.47706 0.64039 0.0
H1667 H 0.12559 0.50324 0.63422 0.0
H1668 H 0.05074 0.42608 0.71083 0.0
H1669 H 0.0618 0.38886 0.71879 0.0
H1670 H 0.14632 0.46055 0.58763 0.0
H1671 H 0.0973 0.44796 0.586 0.0
Li1672 Li 0.6807 0.13259 0.69557 0.0
Li1673 Li 0.6518 0.12002 0.69346 0.0
Li1674 Li 0.6652 0.10442 0.69339 0.0
Li1675 Li 0.66661 0.12025 0.6613 0.0
C1676 C 0.67046 0.12476 0.73649 0.0
N1677 N 0.68302 0.13968 0.77581 0.0
C1678 C 0.66382 0.13251 0.74751 0.0
C1679 C 0.68338 0.12446 0.74556 0.0
C1680 C 0.67036 0.14001 0.76736 0.0
C1681 C 0.6896 0.13213 0.76542 0.0
C1682 C 0.66945 0.14922 0.66199 0.0
C1683 C 0.6588 0.15768 0.63288 0.0
N1684 N 0.67315 0.17074 0.63006 0.0
C1685 C 0.68407 0.16276 0.65892 0.0
C1686 C 0.65668 0.14669 0.64899 0.0
C1687 C 0.68571 0.17348 0.64265 0.0
C1688 C 0.71342 0.15201 0.7037 0.0
N1689 N 0.69894 0.15012 0.7075 0.0
C1690 C 0.71009 0.17364 0.72887 0.0
C1691 C 0.69708 0.16071 0.71955 0.0
C1692 C 0.72529 0.17603 0.72523 0.0
C1693 C 0.72682 0.16497 0.71234 0.0
H1694 H 0.71458 0.14353 0.69376 0.0
H1695 H 0.68543 0.15905 0.72199 0.0
C1696 C 0.62247 0.10854 0.71474 0.0
N1697 N 0.63407 0.12104 0.70383 0.0
C1698 C 0.60948 0.10917 0.72278 0.0
C1699 C 0.621 0.13581 0.70919 0.0
C1700 C 0.63363 0.13456 0.70107 0.0
C1701 C 0.60869 0.12296 0.72009 0.0
H1702 H 0.62338 0.09815 0.71741 0.0
H1703 H 0.64319 0.14446 0.69279 0.0
C1704 C 0.69073 0.10966 0.67235 0.0
N1705 N 0.70331 0.09026 0.66644 0.0
C1706 C 0.6889 0.10203 0.65234 0.0
C1707 C 0.69907 0.10754 0.68929 0.0
C1708 C 0.69533 0.09225 0.64969 0.0
C1709 C 0.70529 0.09764 0.686 0.0
C1710 C 0.63209 0.09286 0.67253 0.0
C1711 C 0.62431 0.07886 0.68446 0.0
C1712 C 0.62345 0.09739 0.65923 0.0
C1713 C 0.60794 0.06968 0.68306 0.0
C1714 C 0.6071 0.08789 0.65829 0.0
N1715 N 0.59975 0.07436 0.67013 0.0
C1716 C 0.66164 0.08181 0.7246 0.0
C1717 C 0.66017 0.07352 0.68783 0.0
C1718 C 0.65775 0.06689 0.7322 0.0
N1719 N 0.66262 0.08478 0.70278 0.0
C1720 C 0.65639 0.05845 0.69471 0.0
C1721 C 0.65482 0.05486 0.71719 0.0
H1722 H 0.66325 0.09084 0.73612 0.0
H1723 H 0.66066 0.07609 0.67055 0.0
C1724 C 0.67886 0.13365 0.61942 0.0
N1725 N 0.66719 0.12107 0.6301 0.0
C1726 C 0.67908 0.13421 0.59656 0.0
C1727 C 0.65571 0.10851 0.59611 0.0
C1728 C 0.65583 0.10856 0.61895 0.0
C1729 C 0.66737 0.12152 0.58453 0.0
H1730 H 0.688 0.14328 0.62864 0.0
H1731 H 0.64692 0.09851 0.62781 0.0
O1732 O 0.66437 0.11754 0.7169 0.0
O1733 O 0.66763 0.13857 0.67777 0.0
O1734 O 0.68435 0.11911 0.67537 0.0
O1735 O 0.6481 0.10204 0.67373 0.0
H1736 H 0.65381 0.13285 0.74074 0.0
H1737 H 0.68865 0.1185 0.73723 0.0
H1738 H 0.6654 0.14613 0.77602 0.0
H1739 H 0.69967 0.13209 0.77255 0.0
H1740 H 0.64903 0.15584 0.62262 0.0
H1741 H 0.69407 0.1649 0.66889 0.0
H1742 H 0.64527 0.13633 0.65128 0.0
H1743 H 0.69696 0.18398 0.64001 0.0
H1744 H 0.70817 0.18161 0.73893 0.0
H1745 H 0.73824 0.16641 0.7086 0.0
H1746 H 0.60033 0.09912 0.73143 0.0
H1747 H 0.62079 0.14664 0.70683 0.0
H1748 H 0.68249 0.10356 0.63906 0.0
H1749 H 0.7006 0.11339 0.70486 0.0
H1750 H 0.69395 0.08621 0.63433 0.0
H1751 H 0.71169 0.09582 0.69901 0.0
H1752 H 0.6308 0.07518 0.69485 0.0
H1753 H 0.62931 0.10813 0.64977 0.0
H1754 H 0.60176 0.05885 0.69228 0.0
H1755 H 0.60025 0.09128 0.64813 0.0
H1756 H 0.65636 0.06465 0.74964 0.0
H1757 H 0.65439 0.04964 0.68252 0.0
H1758 H 0.68825 0.14455 0.58847 0.0
H1759 H 0.64669 0.09826 0.58766 0.0
Li1760 Li 0.54924 0.68202 0.69477 0.0
Li1761 Li 0.53117 0.65347 0.69148 0.0
Li1762 Li 0.56024 0.66408 0.693 0.0
Li1763 Li 0.54746 0.66693 0.6603 0.0
C1764 C 0.55086 0.66954 0.73666 0.0
N1765 N 0.5606 0.67848 0.77932 0.0
C1766 C 0.54003 0.66337 0.75383 0.0
C1767 C 0.56667 0.68012 0.74123 0.0
C1768 C 0.54517 0.66808 0.77527 0.0
C1769 C 0.57136 0.68453 0.76288 0.0
C1770 C 0.51579 0.66665 0.67492 0.0
C1771 C 0.489 0.65066 0.66262 0.0
N1772 N 0.48435 0.65789 0.6774 0.0
C1773 C 0.51077 0.67399 0.68989 0.0
C1774 C 0.50485 0.65497 0.66106 0.0
C1775 C 0.49482 0.66938 0.69092 0.0
C1776 C 0.55604 0.71328 0.69108 0.0
N1777 N 0.55181 0.70139 0.70572 0.0
C1778 C 0.55077 0.71733 0.73452 0.0
C1779 C 0.54901 0.7031 0.72706 0.0
C1780 C 0.55506 0.72977 0.71976 0.0
C1781 C 0.55765 0.72763 0.69776 0.0
H1782 H 0.55805 0.71153 0.67416 0.0
H1783 H 0.54516 0.6934 0.7383 0.0
C1784 C 0.50631 0.62195 0.69353 0.0
N1785 N 0.51143 0.63671 0.70125 0.0
C1786 C 0.49222 0.60933 0.7011 0.0
C1787 C 0.48891 0.62732 0.7245 0.0
C1788 C 0.50308 0.6396 0.71645 0.0
C1789 C 0.48335 0.61191 0.7169 0.0
H1790 H 0.51331 0.61989 0.68181 0.0
H1791 H 0.50751 0.65143 0.7225 0.0
C1792 C 0.58212 0.69424 0.67518 0.0
N1793 N 0.61384 0.71626 0.67384 0.0
C1794 C 0.59137 0.69444 0.65767 0.0
C1795 C 0.58895 0.70549 0.69177 0.0
C1796 C 0.6074 0.70559 0.65736 0.0
C1797 C 0.60502 0.71646 0.69087 0.0
C1798 C 0.54371 0.63807 0.657 0.0
C1799 C 0.55604 0.63505 0.65358 0.0
C1800 C 0.53094 0.63182 0.64259 0.0
C1801 C 0.55548 0.62599 0.6356 0.0
C1802 C 0.53082 0.62284 0.62478 0.0
N1803 N 0.543 0.62014 0.62168 0.0
C1804 C 0.57285 0.65195 0.72331 0.0
C1805 C 0.5892 0.66347 0.69236 0.0
C1806 C 0.58345 0.64788 0.73205 0.0
N1807 N 0.57596 0.65979 0.70395 0.0
C1808 C 0.60002 0.65936 0.70033 0.0
C1809 C 0.59719 0.6515 0.72047 0.0
H1810 H 0.56197 0.64858 0.73181 0.0
H1811 H 0.59115 0.66917 0.67665 0.0
C1812 C 0.53854 0.67184 0.61838 0.0
N1813 N 0.54838 0.66812 0.62908 0.0
C1814 C 0.53854 0.67241 0.59554 0.0
C1815 C 0.55887 0.66537 0.59512 0.0
C1816 C 0.55858 0.66511 0.61797 0.0
C1817 C 0.54872 0.66902 0.58353 0.0
H1818 H 0.53066 0.67438 0.62761 0.0
H1819 H 0.56636 0.66226 0.62683 0.0
O1820 O 0.54598 0.66508 0.71557 0.0
O1821 O 0.53132 0.67083 0.67391 0.0
O1822 O 0.56635 0.68352 0.67558 0.0
O1823 O 0.54414 0.64704 0.67441 0.0
H1824 H 0.52777 0.65506 0.75063 0.0
H1825 H 0.57527 0.6847 0.72824 0.0
H1826 H 0.5369 0.66345 0.7887 0.0
H1827 H 0.58357 0.69271 0.76663 0.0
H1828 H 0.48039 0.64157 0.65209 0.0
H1829 H 0.51908 0.68305 0.70073 0.0
H1830 H 0.50855 0.64923 0.64931 0.0
H1831 H 0.49075 0.67489 0.70251 0.0
H1832 H 0.5484 0.71846 0.75153 0.0
H1833 H 0.56097 0.73699 0.68592 0.0
H1834 H 0.48855 0.59762 0.69508 0.0
H1835 H 0.4824 0.62987 0.73654 0.0
H1836 H 0.58627 0.68599 0.64453 0.0
H1837 H 0.58193 0.70588 0.70511 0.0
H1838 H 0.61472 0.70577 0.644 0.0
H1839 H 0.61045 0.72517 0.70365 0.0
H1840 H 0.56596 0.63969 0.66465 0.0
H1841 H 0.52129 0.63401 0.64502 0.0
H1842 H 0.56497 0.62362 0.6327 0.0
H1843 H 0.52107 0.61804 0.61341 0.0
H1844 H 0.58067 0.64149 0.74738 0.0
H1845 H 0.61043 0.66221 0.69083 0.0
H1846 H 0.53073 0.67559 0.58741 0.0
H1847 H 0.56678 0.66246 0.58667 0.0
Li1848 Li 0.87779 0.53063 0.6906 0.0
Li1849 Li 0.86704 0.54923 0.6933 0.0
Li1850 Li 0.87966 0.54648 0.65813 0.0
Li1851 Li 0.89469 0.5583 0.69066 0.0
C1852 C 0.84625 0.51668 0.67315 0.0
N1853 N 0.81766 0.48894 0.67242 0.0
C1854 C 0.83555 0.51299 0.69033 0.0
C1855 C 0.84229 0.50634 0.65546 0.0
C1856 C 0.8212 0.49889 0.6897 0.0
C1857 C 0.82782 0.49235 0.65544 0.0
C1858 C 0.88917 0.55181 0.73218 0.0
C1859 C 0.89967 0.5717 0.76031 0.0
N1860 N 0.90891 0.56591 0.76745 0.0
C1861 C 0.89869 0.54599 0.73987 0.0
C1862 C 0.88961 0.56473 0.7425 0.0
C1863 C 0.90863 0.55332 0.75768 0.0
C1864 C 0.88874 0.50986 0.70138 0.0
N1865 N 0.87563 0.51125 0.70123 0.0
C1866 C 0.86069 0.48599 0.71811 0.0
C1867 C 0.8618 0.49973 0.70963 0.0
C1868 C 0.87399 0.48414 0.71811 0.0
C1869 C 0.88816 0.49632 0.7096 0.0
H1870 H 0.89978 0.51942 0.69547 0.0
H1871 H 0.85168 0.50126 0.71015 0.0
C1872 C 0.84193 0.55546 0.69105 0.0
N1873 N 0.85073 0.5521 0.70482 0.0
C1874 C 0.82933 0.55679 0.69915 0.0
C1875 C 0.83529 0.55143 0.73544 0.0
C1876 C 0.84769 0.55011 0.72663 0.0
C1877 C 0.8258 0.55467 0.72164 0.0
H1878 H 0.84455 0.55682 0.67372 0.0
H1879 H 0.85475 0.54723 0.73715 0.0
C1880 C 0.89924 0.5341 0.65712 0.0
N1881 N 0.90527 0.51615 0.62812 0.0
C1882 C 0.91453 0.53951 0.64953 0.0
C1883 C 0.88702 0.5196 0.64991 0.0
C1884 C 0.91734 0.53026 0.63488 0.0
C1885 C 0.8903 0.51068 0.63528 0.0
C1886 C 0.89144 0.58154 0.67177 0.0
C1887 C 0.90496 0.58818 0.65876 0.0
C1888 C 0.88726 0.59128 0.68308 0.0
C1889 C 0.91423 0.60454 0.6575 0.0
C1890 C 0.89682 0.60759 0.68135 0.0
N1891 N 0.91 0.61383 0.66873 0.0
C1892 C 0.86497 0.53995 0.61645 0.0
C1893 C 0.89284 0.55361 0.61592 0.0
C1894 C 0.86447 0.5396 0.59358 0.0
N1895 N 0.87901 0.54676 0.62707 0.0
C1896 C 0.89291 0.55358 0.59308 0.0
C1897 C 0.87859 0.54641 0.58156 0.0
H1898 H 0.85414 0.53469 0.62574 0.0
H1899 H 0.90385 0.55903 0.62479 0.0
C1900 C 0.92582 0.56877 0.70126 0.0
N1901 N 0.9151 0.57367 0.7013 0.0
C1902 C 0.94066 0.57809 0.71045 0.0
C1903 C 0.93339 0.59762 0.71922 0.0
C1904 C 0.91857 0.58781 0.71006 0.0
C1905 C 0.94455 0.59267 0.71973 0.0
H1906 H 0.92267 0.55734 0.6947 0.0
H1907 H 0.90972 0.59124 0.71071 0.0
O1908 O 0.86025 0.53059 0.67329 0.0
O1909 O 0.8797 0.54507 0.71437 0.0
O1910 O 0.89627 0.54321 0.6711 0.0
O1911 O 0.88218 0.56557 0.67319 0.0
H1912 H 0.8384 0.52076 0.70421 0.0
H1913 H 0.85026 0.50908 0.6418 0.0
H1914 H 0.81288 0.49584 0.70298 0.0
H1915 H 0.82465 0.48423 0.64189 0.0
H1916 H 0.90023 0.58178 0.76835 0.0
H1917 H 0.89855 0.53605 0.73199 0.0
H1918 H 0.88248 0.56953 0.73655 0.0
H1919 H 0.91615 0.54901 0.76371 0.0
H1920 H 0.84953 0.47689 0.72454 0.0
H1921 H 0.8988 0.49556 0.70976 0.0
H1922 H 0.82221 0.55907 0.68783 0.0
H1923 H 0.83316 0.5499 0.7529 0.0
H1924 H 0.92411 0.55079 0.65477 0.0
H1925 H 0.87516 0.51524 0.65566 0.0
H1926 H 0.92912 0.53431 0.62885 0.0
H1927 H 0.88094 0.49942 0.62962 0.0
H1928 H 0.90834 0.58077 0.64994 0.0
H1929 H 0.87678 0.58628 0.69315 0.0
H1930 H 0.92478 0.60986 0.64762 0.0
H1931 H 0.89378 0.61529 0.69007 0.0
H1932 H 0.85316 0.53381 0.58545 0.0
H1933 H 0.90408 0.55923 0.58456 0.0
H1934 H 0.94898 0.57389 0.71043 0.0
H1935 H 0.93589 0.60869 0.72653 0.0
Li1936 Li 0.3463 0.87651 0.69188 0.0
Li1937 Li 0.31758 0.86637 0.69357 0.0
Li1938 Li 0.33294 0.87873 0.65949 0.0
Li1939 Li 0.33617 0.89399 0.69143 0.0
C1940 C 0.32611 0.84442 0.68118 0.0
N1941 N 0.31923 0.81488 0.69521 0.0
C1942 C 0.32745 0.8417 0.70333 0.0
C1943 C 0.32129 0.83212 0.66617 0.0
C1944 C 0.32391 0.82669 0.7101 0.0
C1945 C 0.31787 0.81727 0.67358 0.0
C1946 C 0.33102 0.88624 0.7327 0.0
C1947 C 0.31395 0.89326 0.75198 0.0
N1948 N 0.32553 0.90128 0.76692 0.0
C1949 C 0.34273 0.89452 0.74829 0.0
C1950 C 0.31651 0.88558 0.73457 0.0
C1951 C 0.33973 0.90206 0.76545 0.0
C1952 C 0.37314 0.88539 0.71656 0.0
N1953 N 0.36343 0.87426 0.70207 0.0
C1954 C 0.37903 0.86179 0.70347 0.0
C1955 C 0.36624 0.86272 0.69513 0.0
C1956 C 0.38898 0.87287 0.719 0.0
C1957 C 0.38597 0.88486 0.7254 0.0
H1958 H 0.37097 0.89477 0.72109 0.0
H1959 H 0.35862 0.85425 0.68312 0.0
C1960 C 0.28543 0.84259 0.69184 0.0
N1961 N 0.29831 0.84994 0.70493 0.0
C1962 C 0.27154 0.82983 0.6998 0.0
C1963 C 0.28445 0.83265 0.73458 0.0
C1964 C 0.29804 0.84532 0.72597 0.0
C1965 C 0.27099 0.8246 0.72139 0.0
H1966 H 0.28605 0.84647 0.67511 0.0
H1967 H 0.30848 0.85134 0.73599 0.0
C1968 C 0.36524 0.89676 0.65988 0.0
N1969 N 0.39 0.90045 0.6341 0.0
C1970 C 0.37829 0.9117 0.65662 0.0
C1971 C 0.36478 0.88368 0.64999 0.0
C1972 C 0.39069 0.91333 0.64354 0.0
C1973 C 0.37742 0.8858 0.63703 0.0
C1974 C 0.31052 0.89123 0.6694 0.0
C1975 C 0.31878 0.9044 0.65599 0.0
C1976 C 0.29598 0.88779 0.67813 0.0
C1977 C 0.31239 0.91404 0.65166 0.0
C1978 C 0.28998 0.89771 0.67339 0.0
N1979 N 0.29824 0.91053 0.66038 0.0
C1980 C 0.32306 0.86467 0.61764 0.0
C1981 C 0.34102 0.89212 0.61732 0.0
C1982 C 0.32259 0.86434 0.59476 0.0
N1983 N 0.33221 0.87842 0.62836 0.0
C1984 C 0.34093 0.89233 0.5945 0.0
C1985 C 0.33166 0.87831 0.58288 0.0
H1986 H 0.31616 0.85396 0.62686 0.0
H1987 H 0.34815 0.90292 0.62626 0.0
C1988 C 0.35745 0.92385 0.70474 0.0
N1989 N 0.34171 0.91453 0.70175 0.0
C1990 C 0.36362 0.93911 0.71262 0.0
C1991 C 0.33724 0.935 0.71459 0.0
C1992 C 0.33154 0.91969 0.70677 0.0
C1993 C 0.35351 0.94498 0.71748 0.0
H1994 H 0.36523 0.91929 0.70127 0.0
H1995 H 0.31903 0.91196 0.70497 0.0
O1996 O 0.3293 0.85896 0.67415 0.0
O1997 O 0.33384 0.87915 0.71537 0.0
O1998 O 0.35304 0.89508 0.67268 0.0
O1999 O 0.31655 0.88165 0.67389 0.0
H2000 H 0.33123 0.85108 0.71519 0.0
H2001 H 0.32019 0.83402 0.64897 0.0
H2002 H 0.3249 0.82443 0.72719 0.0
H2003 H 0.31411 0.80763 0.66214 0.0
H2004 H 0.30281 0.89291 0.75354 0.0
H2005 H 0.35401 0.89515 0.7472 0.0
H2006 H 0.30739 0.87945 0.72249 0.0
H2007 H 0.3487 0.90855 0.7776 0.0
H2008 H 0.38097 0.85239 0.69805 0.0
H2009 H 0.39358 0.89387 0.7369 0.0
H2010 H 0.2615 0.82386 0.68899 0.0
H2011 H 0.2845 0.82917 0.75138 0.0
H2012 H 0.37881 0.92196 0.6641 0.0
H2013 H 0.35481 0.87202 0.65219 0.0
H2014 H 0.40085 0.92483 0.64088 0.0
H2015 H 0.37722 0.87578 0.6293 0.0
H2016 H 0.3301 0.90728 0.64928 0.0
H2017 H 0.28944 0.8776 0.6885 0.0
H2018 H 0.31869 0.92434 0.64143 0.0
H2019 H 0.27876 0.89524 0.68007 0.0
H2020 H 0.3154 0.85324 0.58648 0.0
H2021 H 0.34793 0.90341 0.58605 0.0
H2022 H 0.37619 0.94615 0.7152 0.0
H2023 H 0.329 0.93899 0.71817 0.0
Li2024 Li 0.45141 0.31827 0.69519 0.0
Li2025 Li 0.46932 0.3468 0.69224 0.0
Li2026 Li 0.43989 0.33515 0.69479 0.0
Li2027 Li 0.45197 0.33288 0.66082 0.0
C2028 C 0.45494 0.32927 0.73687 0.0
N2029 N 0.45529 0.31748 0.77781 0.0
C2030 C 0.46899 0.3354 0.74868 0.0
C2031 C 0.44103 0.31731 0.74603 0.0
C2032 C 0.46893 0.32924 0.76932 0.0
C2033 C 0.44146 0.31145 0.7667 0.0
C2034 C 0.48357 0.33356 0.66688 0.0
C2035 C 0.50574 0.34798 0.64283 0.0
N2036 N 0.51326 0.34113 0.65261 0.0
C2037 C 0.49143 0.3265 0.67649 0.0
C2038 C 0.4907 0.34425 0.64974 0.0
C2039 C 0.50646 0.33055 0.66914 0.0
C2040 C 0.43771 0.28521 0.70074 0.0
N2041 N 0.44987 0.29949 0.70665 0.0
C2042 C 0.46056 0.28736 0.72944 0.0
C2043 C 0.46126 0.30077 0.72055 0.0
C2044 C 0.44821 0.27237 0.72358 0.0
C2045 C 0.43667 0.27142 0.70899 0.0
H2046 H 0.42892 0.28451 0.68942 0.0
H2047 H 0.47095 0.31225 0.72471 0.0
C2048 C 0.48984 0.37824 0.70368 0.0
N2049 N 0.48892 0.36402 0.70157 0.0
C2050 C 0.50349 0.39113 0.71181 0.0
C2051 C 0.51499 0.37449 0.71568 0.0
C2052 C 0.50111 0.36192 0.70742 0.0
C2053 C 0.51627 0.38932 0.71813 0.0
H2054 H 0.47985 0.37952 0.69939 0.0
H2055 H 0.4999 0.35038 0.70641 0.0
C2056 C 0.4175 0.30871 0.67592 0.0
N2057 N 0.38509 0.29454 0.67432 0.0
C2058 C 0.41011 0.31017 0.65723 0.0
C2059 C 0.4084 0.29985 0.69366 0.0
C2060 C 0.39372 0.30296 0.65677 0.0
C2061 C 0.39203 0.29284 0.69258 0.0
C2062 C 0.45874 0.36446 0.66166 0.0
C2063 C 0.44747 0.36881 0.65708 0.0
C2064 C 0.47364 0.37281 0.6521 0.0
C2065 C 0.45119 0.3812 0.6426 0.0
C2066 C 0.47691 0.38514 0.63771 0.0
N2067 N 0.4657 0.38903 0.63327 0.0
C2068 C 0.42554 0.3428 0.72844 0.0
C2069 C 0.4132 0.33964 0.69401 0.0
C2070 C 0.41567 0.34755 0.73791 0.0
N2071 N 0.42425 0.33909 0.70683 0.0
C2072 C 0.40304 0.34433 0.70283 0.0
C2073 C 0.40443 0.34866 0.72498 0.0
H2074 H 0.4346 0.34259 0.73822 0.0
H2075 H 0.41267 0.33705 0.67674 0.0
C2076 C 0.45692 0.32435 0.61869 0.0
N2077 N 0.45069 0.33203 0.62959 0.0
C2078 C 0.45673 0.32388 0.59584 0.0
C2079 C 0.44328 0.33885 0.59583 0.0
C2080 C 0.44372 0.33899 0.61867 0.0
C2081 C 0.44995 0.33132 0.58407 0.0
H2082 H 0.46212 0.31862 0.62777 0.0
H2083 H 0.43843 0.34463 0.62766 0.0
O2084 O 0.4548 0.33506 0.71654 0.0
O2085 O 0.46883 0.32974 0.67392 0.0
O2086 O 0.43354 0.31575 0.67672 0.0
O2087 O 0.45527 0.35232 0.67577 0.0
H2088 H 0.47984 0.34476 0.74194 0.0
H2089 H 0.43003 0.31259 0.73726 0.0
H2090 H 0.47974 0.33381 0.77857 0.0
H2091 H 0.43079 0.30213 0.77392 0.0
H2092 H 0.5114 0.35626 0.62961 0.0
H2093 H 0.48603 0.31806 0.68958 0.0
H2094 H 0.48463 0.34947 0.64166 0.0
H2095 H 0.51272 0.32526 0.67655 0.0
H2096 H 0.46962 0.28878 0.74086 0.0
H2097 H 0.42709 0.26018 0.70364 0.0
H2098 H 0.50398 0.40236 0.71323 0.0
H2099 H 0.52441 0.37248 0.72076 0.0
H2100 H 0.41696 0.31686 0.64329 0.0
H2101 H 0.4139 0.29837 0.70808 0.0
H2102 H 0.38785 0.30407 0.64247 0.0
H2103 H 0.38485 0.28601 0.70624 0.0
H2104 H 0.43594 0.3626 0.6645 0.0
H2105 H 0.48266 0.36995 0.65595 0.0
H2106 H 0.44253 0.3846 0.63878 0.0
H2107 H 0.48838 0.39166 0.63016 0.0
H2108 H 0.41705 0.35065 0.75511 0.0
H2109 H 0.3947 0.34523 0.6922 0.0
H2110 H 0.46172 0.31766 0.58751 0.0
H2111 H 0.43799 0.3448 0.5875 0.0
H2112 H 0.41389 0.03 0.21121 0.0
H2113 H 0.38068 0.04088 0.24151 0.0
H2114 H 0.39903 0.00326 0.22461 0.0
H2115 H 0.36512 0.01363 0.25384 0.0
H2116 H 0.36427 0.95281 0.23576 0.0
H2117 H 0.37575 0.97909 0.22007 0.0
H2118 H 0.36589 0.99597 0.28001 0.0
H2119 H 0.35382 0.96942 0.29527 0.0
C2120 C 0.40336 0.02668 0.22068 0.0
C2121 C 0.39862 0.0377 0.22548 0.0
C2122 C 0.39465 0.0112 0.22808 0.0
C2123 C 0.38079 0.00618 0.24028 0.0
C2124 C 0.37582 0.0171 0.2447 0.0
C2125 C 0.38464 0.03269 0.2374 0.0
C2126 C 0.36444 0.96214 0.24546 0.0
C2127 C 0.35829 0.95915 0.26677 0.0
C2128 C 0.37109 0.97723 0.23654 0.0
C2129 C 0.372 0.98977 0.24887 0.0
C2130 C 0.36528 0.98661 0.26994 0.0
C2131 C 0.35841 0.97142 0.27874 0.0
H2132 H 0.38378 0.35435 0.29409 0.0
H2133 H 0.41132 0.36431 0.23515 0.0
H2134 H 0.36897 0.36566 0.27766 0.0
H2135 H 0.39612 0.37493 0.21818 0.0
H2136 H 0.38131 0.41147 0.20601 0.0
H2137 H 0.39403 0.39753 0.22031 0.0
H2138 H 0.35048 0.36385 0.25156 0.0
H2139 H 0.33797 0.37832 0.2378 0.0
C2140 C 0.38641 0.35868 0.27743 0.0
C2141 C 0.39875 0.35862 0.26593 0.0
C2142 C 0.3779 0.36511 0.26794 0.0
C2143 C 0.38141 0.3714 0.2466 0.0
C2144 C 0.39333 0.37061 0.23482 0.0
C2145 C 0.40198 0.36443 0.24445 0.0
C2146 C 0.37441 0.40097 0.2157 0.0
C2147 C 0.35865 0.39596 0.22076 0.0
C2148 C 0.38168 0.3929 0.22387 0.0
C2149 C 0.37331 0.37947 0.2371 0.0
C2150 C 0.35739 0.37427 0.24175 0.0
C2151 C 0.35018 0.38249 0.23379 0.0
H2152 H 0.95973 0.33873 0.23496 0.0
H2153 H 0.96423 0.38485 0.23523 0.0
H2154 H 0.98606 0.34991 0.25084 0.0
H2155 H 0.99023 0.39584 0.25142 0.0
H2156 H 0.02879 0.40768 0.30083 0.0
H2157 H 0.00199 0.39437 0.28667 0.0
H2158 H 0.01428 0.36882 0.24074 0.0
H2159 H 0.04111 0.38193 0.25527 0.0
C2160 C 0.96632 0.35123 0.23829 0.0
C2161 C 0.95976 0.36084 0.23397 0.0
C2162 C 0.98138 0.35762 0.24744 0.0
C2163 C 0.99014 0.37372 0.25259 0.0
C2164 C 0.98364 0.38332 0.24808 0.0
C2165 C 0.9687 0.37699 0.23882 0.0
C2166 C 0.02572 0.39901 0.288 0.0
C2167 C 0.0371 0.39588 0.27915 0.0
C2168 C 0.01041 0.39152 0.27972 0.0
C2169 C 0.00607 0.38066 0.26246 0.0
C2170 C 0.01726 0.37709 0.25411 0.0
C2171 C 0.03265 0.38468 0.2623 0.0
H2172 H 0.57907 0.96219 0.24341 0.0
H2173 H 0.62163 0.96129 0.22805 0.0
H2174 H 0.59469 0.98816 0.25948 0.0
H2175 H 0.63727 0.98768 0.24354 0.0
H2176 H 0.6562 0.04251 0.24866 0.0
H2177 H 0.64245 0.0155 0.23468 0.0
H2178 H 0.61284 0.00045 0.29208 0.0
H2179 H 0.62648 0.02739 0.30598 0.0
C2180 C 0.59174 0.9674 0.24366 0.0
C2181 C 0.59904 0.95949 0.23456 0.0
C2182 C 0.60069 0.98235 0.25282 0.0
C2183 C 0.61718 0.98989 0.25289 0.0
C2184 C 0.62457 0.98215 0.2436 0.0
C2185 C 0.61559 0.96707 0.23465 0.0
C2186 C 0.64684 0.03338 0.25835 0.0
C2187 C 0.64238 0.03706 0.27838 0.0
C2188 C 0.63905 0.01794 0.25043 0.0
C2189 C 0.62652 0.00592 0.26224 0.0
C2190 C 0.62237 0.00952 0.28255 0.0
C2191 C 0.63027 0.0249 0.29059 0.0
H2192 H 0.59492 0.64076 0.23876 0.0
H2193 H 0.61689 0.64724 0.30202 0.0
H2194 H 0.6108 0.62983 0.22458 0.0
H2195 H 0.63259 0.63601 0.28794 0.0
H2196 H 0.63398 0.5916 0.25929 0.0
H2197 H 0.62288 0.607 0.27383 0.0
H2198 H 0.64089 0.63831 0.21844 0.0
H2199 H 0.6529 0.6235 0.20426 0.0
C2200 C 0.60329 0.63999 0.24951 0.0
C2201 C 0.60472 0.64479 0.27145 0.0
C2202 C 0.61241 0.63383 0.2414 0.0
C2203 C 0.62287 0.63208 0.2552 0.0
C2204 C 0.62457 0.63723 0.27701 0.0
C2205 C 0.61567 0.64369 0.28502 0.0
C2206 C 0.63604 0.60201 0.25041 0.0
C2207 C 0.64442 0.60623 0.23051 0.0
C2208 C 0.62958 0.61078 0.25876 0.0
C2209 C 0.63105 0.62381 0.24725 0.0
C2210 C 0.63953 0.62823 0.22754 0.0
C2211 C 0.64628 0.61964 0.21937 0.0
H2212 H 0.04388 0.64199 0.26455 0.0
H2213 H 0.02852 0.6467 0.20024 0.0
H2214 H 0.01689 0.63067 0.27815 0.0
H2215 H 0.00144 0.63515 0.21376 0.0
H2216 H 0.95602 0.59063 0.24212 0.0
H2217 H 0.98259 0.60652 0.2281 0.0
H2218 H 0.99457 0.63786 0.28328 0.0
H2219 H 0.96766 0.62248 0.29695 0.0
C2220 C 0.03473 0.64077 0.25344 0.0
C2221 C 0.0382 0.64516 0.23137 0.0
C2222 C 0.01935 0.63438 0.26122 0.0
C2223 C 0.00712 0.63201 0.24697 0.0
C2224 C 0.01068 0.63682 0.22503 0.0
C2225 C 0.02613 0.64349 0.21735 0.0
C2226 C 0.96409 0.60113 0.25105 0.0
C2227 C 0.95954 0.60521 0.27075 0.0
C2228 C 0.97937 0.6102 0.24301 0.0
C2229 C 0.99059 0.6234 0.2546 0.0
C2230 C 0.98613 0.62766 0.27411 0.0
C2231 C 0.97073 0.61875 0.28199 0.0
H2232 H 0.61221 0.95316 0.73736 0.0
H2233 H 0.60921 0.97328 0.79888 0.0
H2234 H 0.62759 0.97955 0.72198 0.0
H2235 H 0.62492 0.99955 0.78364 0.0
H2236 H 0.66366 0.04514 0.75404 0.0
H2237 H 0.65189 0.01849 0.76872 0.0
H2238 H 0.6212 0.00077 0.71256 0.0
H2239 H 0.63256 0.02736 0.69814 0.0
C2240 C 0.61486 0.96317 0.74765 0.0
C2241 C 0.60935 0.96103 0.76935 0.0
C2242 C 0.62372 0.97828 0.73884 0.0
C2243 C 0.62743 0.9916 0.7516 0.0
C2244 C 0.62243 0.98951 0.7735 0.0
C2245 C 0.61344 0.97442 0.78225 0.0
C2246 C 0.6544 0.03558 0.74481 0.0
C2247 C 0.64901 0.03847 0.72495 0.0
C2248 C 0.64771 0.02031 0.7532 0.0
C2249 C 0.6356 0.00757 0.74182 0.0
C2250 C 0.63065 0.01034 0.72157 0.0
C2251 C 0.63722 0.02561 0.71327 0.0
H2252 H 0.63326 0.60532 0.80174 0.0
H2253 H 0.6593 0.61261 0.74183 0.0
H2254 H 0.62168 0.62025 0.78702 0.0
H2255 H 0.64821 0.62814 0.72724 0.0
H2256 H 0.60896 0.6355 0.69849 0.0
H2257 H 0.62415 0.62421 0.71342 0.0
H2258 H 0.62521 0.64478 0.77646 0.0
H2259 H 0.60942 0.65547 0.76157 0.0
C2260 C 0.63678 0.61046 0.78559 0.0
C2261 C 0.64713 0.60778 0.7729 0.0
C2262 C 0.63019 0.61909 0.77713 0.0
C2263 C 0.63394 0.62541 0.75585 0.0
C2264 C 0.64479 0.6232 0.74349 0.0
C2265 C 0.65122 0.61438 0.75187 0.0
C2266 C 0.61265 0.63777 0.71545 0.0
C2267 C 0.60796 0.64626 0.72892 0.0
C2268 C 0.62142 0.63135 0.72404 0.0
C2269 C 0.62587 0.63347 0.74624 0.0
C2270 C 0.62171 0.64259 0.75943 0.0
C2271 C 0.61275 0.6488 0.75091 0.0
H2272 H 0.9651 0.62421 0.71491 0.0
H2273 H 0.95884 0.58285 0.74879 0.0
H2274 H 0.99126 0.63969 0.73139 0.0
H2275 H 0.98491 0.59819 0.76501 0.0
H2276 H 0.02672 0.63241 0.80506 0.0
H2277 H 0.99975 0.62011 0.79142 0.0
H2278 H 0.01706 0.64016 0.72755 0.0
H2279 H 0.04405 0.6527 0.74128 0.0
C2280 C 0.96927 0.61849 0.72602 0.0
C2281 C 0.96002 0.60232 0.73046 0.0
C2282 C 0.98424 0.6273 0.73533 0.0
C2283 C 0.99011 0.62014 0.74948 0.0
C2284 C 0.98065 0.60407 0.75434 0.0
C2285 C 0.9658 0.59525 0.74488 0.0
C2286 C 0.02475 0.63445 0.78823 0.0
C2287 C 0.0375 0.64346 0.7742 0.0
C2288 C 0.00933 0.6273 0.78038 0.0
C2289 C 0.00632 0.62909 0.75839 0.0
C2290 C 0.01902 0.63865 0.74461 0.0
C2291 C 0.03446 0.64571 0.75241 0.0
H2292 H 0.37766 0.03824 0.76888 0.0
H2293 H 0.4185 0.03274 0.776 0.0
H2294 H 0.36308 0.01182 0.753 0.0
H2295 H 0.40413 0.00681 0.75943 0.0
H2296 H 0.38051 0.97122 0.70446 0.0
H2297 H 0.39284 0.99741 0.7205 0.0
H2298 H 0.35367 0.98237 0.76481 0.0
H2299 H 0.34143 0.95583 0.74927 0.0
C2300 C 0.38351 0.03141 0.76723 0.0
C2301 C 0.39935 0.03775 0.77348 0.0
C2302 C 0.37516 0.01633 0.75806 0.0
C2303 C 0.38257 0.00742 0.75475 0.0
C2304 C 0.39824 0.01358 0.76142 0.0
C2305 C 0.40649 0.02849 0.77081 0.0
C2306 C 0.37452 0.97341 0.71771 0.0
C2307 C 0.36009 0.96132 0.72581 0.0
C2308 C 0.38157 0.98844 0.7268 0.0
C2309 C 0.37427 0.99182 0.74402 0.0
C2310 C 0.3595 0.98003 0.75148 0.0
C2311 C 0.35249 0.96488 0.74253 0.0
H2312 H 0.3676 0.39591 0.80531 0.0
H2313 H 0.34268 0.38751 0.74398 0.0
H2314 H 0.37976 0.38115 0.79223 0.0
H2315 H 0.35559 0.37344 0.73042 0.0
H2316 H 0.37305 0.33852 0.71893 0.0
H2317 H 0.358 0.35011 0.73387 0.0
H2318 H 0.39986 0.38578 0.76629 0.0
H2319 H 0.41472 0.37416 0.75165 0.0
C2320 C 0.36455 0.39077 0.78912 0.0
C2321 C 0.35417 0.39297 0.77569 0.0
C2322 C 0.37173 0.38248 0.78149 0.0
C2323 C 0.36883 0.37628 0.76016 0.0
C2324 C 0.35804 0.378 0.74697 0.0
C2325 C 0.35078 0.38623 0.75466 0.0
C2326 C 0.37899 0.34883 0.72927 0.0
C2327 C 0.39504 0.35534 0.73426 0.0
C2328 C 0.37038 0.35548 0.7378 0.0
C2329 C 0.37768 0.36881 0.75142 0.0
C2330 C 0.39375 0.3753 0.75631 0.0
C2331 C 0.40229 0.36864 0.74788 0.0
H2332 H 0.04442 0.38482 0.74962 0.0
H2333 H 0.02663 0.40307 0.69974 0.0
H2334 H 0.01777 0.36847 0.76371 0.0
H2335 H 0.00022 0.38739 0.71439 0.0
H2336 H 0.9523 0.34946 0.73412 0.0
H2337 H 0.97866 0.3612 0.71852 0.0
H2338 H 0.99857 0.37204 0.78361 0.0
H2339 H 0.97216 0.35998 0.79914 0.0
C2340 C 0.03481 0.38525 0.74155 0.0
C2341 C 0.03767 0.39532 0.72361 0.0
C2342 C 0.01956 0.37601 0.74977 0.0
C2343 C 0.00684 0.37663 0.74024 0.0
C2344 C 0.00968 0.38644 0.722 0.0
C2345 C 0.02488 0.39562 0.71376 0.0
C2346 C 0.96233 0.35423 0.74507 0.0
C2347 C 0.9602 0.35392 0.76783 0.0
C2348 C 0.97743 0.36101 0.73615 0.0
C2349 C 0.99076 0.36775 0.74979 0.0
C2350 C 0.98858 0.36682 0.77261 0.0
C2351 C 0.97345 0.35993 0.78154 0.0
H2352 H 0.4503 0.20149 0.20402 0.0
H2353 H 0.43586 0.1784 0.26693 0.0
H2354 H 0.44909 0.22395 0.21851 0.0
H2355 H 0.43525 0.20125 0.28155 0.0
H2356 H 0.45673 0.25406 0.30252 0.0
H2357 H 0.45554 0.23015 0.28892 0.0
H2358 H 0.42845 0.23014 0.23328 0.0
H2359 H 0.42909 0.25375 0.24719 0.0
C2360 C 0.44668 0.20107 0.22086 0.0
C2361 C 0.44311 0.18802 0.23424 0.0
C2362 C 0.44606 0.21401 0.22917 0.0
C2363 C 0.44206 0.21432 0.25114 0.0
C2364 C 0.43851 0.20136 0.26459 0.0
C2365 C 0.43893 0.18831 0.25621 0.0
C2366 C 0.45023 0.24883 0.28762 0.0
C2367 C 0.44302 0.25592 0.27597 0.0
C2368 C 0.44961 0.23515 0.27981 0.0
C2369 C 0.44195 0.22833 0.26003 0.0
C2370 C 0.43461 0.23527 0.24846 0.0
C2371 C 0.43505 0.24884 0.2564 0.0
H2372 H 0.19029 0.43359 0.29637 0.0
H2373 H 0.18763 0.45468 0.23566 0.0
H2374 H 0.21351 0.4332 0.28299 0.0
H2375 H 0.21076 0.45419 0.22219 0.0
H2376 H 0.26259 0.46851 0.21658 0.0
H2377 H 0.23865 0.46752 0.2294 0.0
H2378 H 0.22261 0.42121 0.25623 0.0
H2379 H 0.24694 0.42249 0.2442 0.0
C2380 C 0.19453 0.43793 0.28004 0.0
C2381 C 0.18717 0.44424 0.26711 0.0
C2382 C 0.20784 0.4377 0.27236 0.0
C2383 C 0.21406 0.44375 0.25156 0.0
C2384 C 0.20646 0.44972 0.23845 0.0
C2385 C 0.19319 0.44999 0.24615 0.0
C2386 C 0.25404 0.45818 0.22542 0.0
C2387 C 0.25674 0.44562 0.22947 0.0
C2388 C 0.2402 0.45752 0.23251 0.0
C2389 C 0.22867 0.44426 0.24378 0.0
C2390 C 0.23131 0.43165 0.24776 0.0
C2391 C 0.24519 0.43232 0.24066 0.0
H2392 H 0.73982 0.20652 0.29384 0.0
H2393 H 0.75131 0.17687 0.25494 0.0
H2394 H 0.76334 0.22974 0.28041 0.0
H2395 H 0.77494 0.20014 0.24163 0.0
H2396 H 0.82382 0.24491 0.23994 0.0
H2397 H 0.80075 0.22151 0.25425 0.0
H2398 H 0.77307 0.24421 0.24597 0.0
H2399 H 0.796 0.26749 0.23153 0.0
C2400 C 0.7473 0.20496 0.2823 0.0
C2401 C 0.74362 0.18983 0.27538 0.0
C2402 C 0.7608 0.21827 0.27464 0.0
C2403 C 0.77098 0.21679 0.2599 0.0
C2404 C 0.76743 0.20166 0.25319 0.0
C2405 C 0.75389 0.18833 0.26082 0.0
C2406 C 0.81278 0.24487 0.24104 0.0
C2407 C 0.81179 0.25812 0.23464 0.0
C2408 C 0.79957 0.23146 0.24925 0.0
C2409 C 0.78509 0.23102 0.2513 0.0
C2410 C 0.78412 0.24427 0.24495 0.0
C2411 C 0.79729 0.25763 0.2367 0.0
H2412 H 0.55624 0.80252 0.2001 0.0
H2413 H 0.5541 0.8179 0.26562 0.0
H2414 H 0.55734 0.78008 0.21505 0.0
H2415 H 0.5551 0.79536 0.28057 0.0
H2416 H 0.53742 0.74309 0.29608 0.0
H2417 H 0.53813 0.76666 0.2821 0.0
H2418 H 0.57443 0.77333 0.23622 0.0
H2419 H 0.57385 0.74978 0.25034 0.0
C2420 C 0.55621 0.80124 0.2177 0.0
C2421 C 0.55507 0.81202 0.23166 0.0
C2422 C 0.55683 0.78836 0.22627 0.0
C2423 C 0.55629 0.78592 0.249 0.0
C2424 C 0.55531 0.79678 0.26297 0.0
C2425 C 0.55472 0.80969 0.2544 0.0
C2426 C 0.54573 0.7497 0.28324 0.0
C2427 C 0.55558 0.74452 0.27435 0.0
C2428 C 0.54612 0.76322 0.27521 0.0
C2429 C 0.55633 0.77187 0.25804 0.0
C2430 C 0.56628 0.7668 0.24926 0.0
C2431 C 0.56593 0.75329 0.25734 0.0
H2432 H 0.73531 0.52839 0.21421 0.0
H2433 H 0.75082 0.57399 0.24339 0.0
H2434 H 0.75815 0.52825 0.2296 0.0
H2435 H 0.77392 0.57398 0.25808 0.0
H2436 H 0.82146 0.57415 0.25789 0.0
H2437 H 0.79851 0.57449 0.24322 0.0
H2438 H 0.7684 0.52747 0.26767 0.0
H2439 H 0.79119 0.52724 0.28305 0.0
C2440 C 0.7435 0.53834 0.22399 0.0
C2441 C 0.74114 0.55119 0.22756 0.0
C2442 C 0.75662 0.53827 0.23273 0.0
C2443 C 0.76779 0.55111 0.24501 0.0
C2444 C 0.76557 0.56401 0.24845 0.0
C2445 C 0.75235 0.56402 0.23994 0.0
C2446 C 0.80994 0.56396 0.26046 0.0
C2447 C 0.80823 0.55067 0.27168 0.0
C2448 C 0.79681 0.56415 0.25196 0.0
C2449 C 0.7817 0.551 0.25426 0.0
C2450 C 0.77995 0.5377 0.26541 0.0
C2451 C 0.79304 0.53757 0.27414 0.0
H2452 H 0.17598 0.74346 0.26244 0.0
H2453 H 0.20164 0.74828 0.20266 0.0
H2454 H 0.19875 0.76697 0.277 0.0
H2455 H 0.22403 0.77213 0.21698 0.0
H2456 H 0.25375 0.82312 0.24307 0.0
H2457 H 0.23033 0.80013 0.22879 0.0
H2458 H 0.22732 0.7743 0.28745 0.0
H2459 H 0.25111 0.79693 0.30144 0.0
C2460 C 0.18643 0.74945 0.25239 0.0
C2461 C 0.1869 0.74387 0.23133 0.0
C2462 C 0.19943 0.76298 0.26072 0.0
C2463 C 0.2131 0.77136 0.24807 0.0
C2464 C 0.21354 0.76599 0.22695 0.0
C2465 C 0.20065 0.75234 0.21873 0.0
C2466 C 0.24824 0.81252 0.25289 0.0
C2467 C 0.25445 0.81195 0.27343 0.0
C2468 C 0.23477 0.79938 0.24472 0.0
C2469 C 0.22704 0.78547 0.25704 0.0
C2470 C 0.23296 0.78495 0.27773 0.0
C2471 C 0.24657 0.79799 0.28577 0.0
H2472 H 0.57172 0.74777 0.75453 0.0
H2473 H 0.54112 0.74521 0.70207 0.0
H2474 H 0.57303 0.77183 0.76785 0.0
H2475 H 0.54167 0.76877 0.71587 0.0
H2476 H 0.55469 0.81817 0.73502 0.0
H2477 H 0.55628 0.79592 0.72027 0.0
H2478 H 0.5583 0.78085 0.78616 0.0
H2479 H 0.55754 0.8036 0.80064 0.0
C2480 C 0.56521 0.75237 0.74594 0.0
C2481 C 0.55633 0.74469 0.72729 0.0
C2482 C 0.56586 0.76609 0.75363 0.0
C2483 C 0.55738 0.77229 0.74308 0.0
C2484 C 0.5486 0.7646 0.72425 0.0
C2485 C 0.5482 0.75103 0.71635 0.0
C2486 C 0.55556 0.8101 0.74626 0.0
C2487 C 0.556 0.81256 0.76893 0.0
C2488 C 0.55637 0.79727 0.73785 0.0
C2489 C 0.55734 0.78644 0.75196 0.0
C2490 C 0.55787 0.78904 0.77471 0.0
C2491 C 0.55735 0.80203 0.78307 0.0
H2492 H 0.7526 0.55345 0.80384 0.0
H2493 H 0.73946 0.55783 0.73786 0.0
H2494 H 0.77649 0.55458 0.78999 0.0
H2495 H 0.76319 0.55864 0.72397 0.0
H2496 H 0.8152 0.57481 0.71007 0.0
H2497 H 0.79237 0.57557 0.72442 0.0
H2498 H 0.78261 0.53707 0.76794 0.0
H2499 H 0.80518 0.53608 0.7534 0.0
C2500 C 0.75489 0.55479 0.78641 0.0
C2501 C 0.74414 0.55551 0.77193 0.0
C2502 C 0.76848 0.55529 0.77846 0.0
C2503 C 0.77168 0.55663 0.75589 0.0
C2504 C 0.7611 0.55771 0.74146 0.0
C2505 C 0.74745 0.5571 0.74939 0.0
C2506 C 0.80812 0.56642 0.72257 0.0
C2507 C 0.81207 0.55541 0.73059 0.0
C2508 C 0.79506 0.56689 0.73083 0.0
C2509 C 0.78573 0.55642 0.74737 0.0
C2510 C 0.78973 0.54547 0.75546 0.0
C2511 C 0.8027 0.54494 0.74713 0.0
H2512 H 0.26959 0.80095 0.74657 0.0
H2513 H 0.24009 0.81638 0.71551 0.0
H2514 H 0.24634 0.77794 0.7609 0.0
H2515 H 0.21671 0.79297 0.72924 0.0
H2516 H 0.17967 0.75751 0.77738 0.0
H2517 H 0.2028 0.78116 0.76368 0.0
H2518 H 0.22453 0.75356 0.74731 0.0
H2519 H 0.20175 0.73011 0.76168 0.0
C2520 C 0.25813 0.79946 0.74287 0.0
C2521 C 0.2567 0.81054 0.72996 0.0
C2522 C 0.24479 0.78617 0.75087 0.0
C2523 C 0.22966 0.78359 0.74615 0.0
C2524 C 0.2282 0.79469 0.73332 0.0
C2525 C 0.24158 0.80801 0.72526 0.0
C2526 C 0.18945 0.75653 0.77102 0.0
C2527 C 0.18886 0.74192 0.77061 0.0
C2528 C 0.20262 0.77005 0.76295 0.0
C2529 C 0.21551 0.76925 0.75442 0.0
C2530 C 0.21488 0.75462 0.754 0.0
C2531 C 0.20173 0.74114 0.762 0.0
H2532 H 0.47295 0.2676 0.73219 0.0
H2533 H 0.42217 0.24419 0.73477 0.0
H2534 H 0.47219 0.24438 0.74711 0.0
H2535 H 0.42136 0.22042 0.74808 0.0
H2536 H 0.4258 0.18505 0.79158 0.0
H2537 H 0.42638 0.20879 0.7786 0.0
H2538 H 0.46618 0.21904 0.73737 0.0
H2539 H 0.46639 0.19613 0.75158 0.0
C2540 C 0.46159 0.25752 0.73595 0.0
C2541 C 0.44762 0.25789 0.73232 0.0
C2542 C 0.46114 0.24404 0.74418 0.0
C2543 C 0.4467 0.2304 0.74869 0.0
C2544 C 0.43271 0.23073 0.74505 0.0
C2545 C 0.43317 0.24432 0.73706 0.0
C2546 C 0.43482 0.19249 0.77999 0.0
C2547 C 0.44603 0.18858 0.77265 0.0
C2548 C 0.43501 0.20601 0.77228 0.0
C2549 C 0.44633 0.21591 0.7569 0.0
C2550 C 0.45743 0.2119 0.74946 0.0
C2551 C 0.45737 0.19853 0.75736 0.0
H2552 H 0.17567 0.42391 0.74893 0.0
H2553 H 0.20439 0.46186 0.70464 0.0
H2554 H 0.19929 0.42446 0.76308 0.0
H2555 H 0.22797 0.46241 0.71876 0.0
H2556 H 0.26558 0.47139 0.77155 0.0
H2557 H 0.24199 0.46969 0.75581 0.0
H2558 H 0.22122 0.41939 0.74947 0.0
H2559 H 0.24507 0.42104 0.76446 0.0
C2560 C 0.18703 0.43231 0.74218 0.0
C2561 C 0.18822 0.44284 0.7257 0.0
C2562 C 0.20051 0.43256 0.75016 0.0
C2563 C 0.21544 0.44351 0.74205 0.0
C2564 C 0.2166 0.45392 0.72541 0.0
C2565 C 0.20312 0.45352 0.71721 0.0
C2566 C 0.25613 0.45997 0.7665 0.0
C2567 C 0.25734 0.44637 0.7692 0.0
C2568 C 0.24259 0.45902 0.75755 0.0
C2569 C 0.22982 0.44442 0.75136 0.0
C2570 C 0.23086 0.43078 0.75427 0.0
C2571 C 0.24451 0.43174 0.76297 0.0
H2572 H 0.8006 0.27099 0.75308 0.0
H2573 H 0.81135 0.24211 0.79504 0.0
H2574 H 0.7778 0.24769 0.73921 0.0
H2575 H 0.78759 0.21882 0.78262 0.0
H2576 H 0.75296 0.17836 0.73977 0.0
H2577 H 0.77627 0.20153 0.75336 0.0
H2578 H 0.75247 0.22839 0.74731 0.0
H2579 H 0.72982 0.20573 0.73178 0.0
C2580 C 0.79813 0.25968 0.75942 0.0
C2581 C 0.80803 0.25854 0.77508 0.0
C2582 C 0.78479 0.24625 0.75173 0.0
C2583 C 0.78069 0.23125 0.7598 0.0
C2584 C 0.79043 0.2301 0.77573 0.0
C2585 C 0.80397 0.24354 0.78316 0.0
C2586 C 0.75277 0.18927 0.74095 0.0
C2587 C 0.73941 0.19007 0.7345 0.0
C2588 C 0.7661 0.20255 0.74916 0.0
C2589 C 0.76637 0.21695 0.75149 0.0
C2590 C 0.7529 0.21765 0.74542 0.0
C2591 C 0.73971 0.20448 0.73684 0.0
H2592 H 0.47636 0.14284 0.05711 0.0
H2593 H 0.4278 0.10565 0.05733 0.0
H2594 H 0.47628 0.14289 0.01723 0.0
H2595 H 0.42757 0.10586 0.01741 0.0
H2596 H 0.43806 0.09856 0.94696 0.0
H2597 H 0.43782 0.09886 0.98673 0.0
H2598 H 0.4661 0.14959 0.98606 0.0
H2599 H 0.4671 0.14922 0.94625 0.0
C2600 C 0.46561 0.1348 0.04861 0.0
C2601 C 0.45209 0.12423 0.06036 0.0
C2602 C 0.46553 0.13485 0.02574 0.0
C2603 C 0.45191 0.12439 0.01405 0.0
C2604 C 0.43835 0.1139 0.02585 0.0
C2605 C 0.43846 0.11378 0.04873 0.0
C2606 C 0.44438 0.10978 0.95527 0.0
C2607 C 0.4527 0.12386 0.94334 0.0
C2608 C 0.44405 0.10997 0.97812 0.0
C2609 C 0.45195 0.12425 0.98967 0.0
C2610 C 0.46007 0.13836 0.97774 0.0
C2611 C 0.46046 0.13816 0.95487 0.0
H2612 H 0.33263 0.47557 0.94548 0.0
H2613 H 0.33298 0.4317 0.94615 0.0
H2614 H 0.33257 0.47575 0.98531 0.0
H2615 H 0.33388 0.43239 0.98592 0.0
H2616 H 0.31878 0.42976 0.0571 0.0
H2617 H 0.31815 0.42925 0.01722 0.0
H2618 H 0.34921 0.47966 0.01591 0.0
H2619 H 0.34952 0.48014 0.05581 0.0
C2620 C 0.33267 0.46594 0.9541 0.0
C2621 C 0.33279 0.45361 0.94253 0.0
C2622 C 0.33287 0.46617 0.97698 0.0
C2623 C 0.33329 0.45412 0.9889 0.0
C2624 C 0.33338 0.44178 0.97733 0.0
C2625 C 0.33309 0.4415 0.95446 0.0
C2626 C 0.32555 0.44071 0.04826 0.0
C2627 C 0.33419 0.45499 0.05959 0.0
C2628 C 0.32522 0.44043 0.02539 0.0
C2629 C 0.33363 0.45442 0.01328 0.0
C2630 C 0.34236 0.46869 0.02466 0.0
C2631 C 0.34259 0.46898 0.04754 0.0
H2632 H 0.89429 0.35687 0.94603 0.0
H2633 H 0.86647 0.30611 0.94464 0.0
H2634 H 0.89451 0.35627 0.98588 0.0
H2635 H 0.86656 0.30556 0.98456 0.0
H2636 H 0.85549 0.31307 0.0555 0.0
H2637 H 0.85576 0.31316 0.01557 0.0
H2638 H 0.90523 0.34795 0.01619 0.0
H2639 H 0.90487 0.34817 0.05615 0.0
C2640 C 0.88834 0.34557 0.95419 0.0
C2641 C 0.88037 0.33154 0.94208 0.0
C2642 C 0.88847 0.34524 0.97705 0.0
C2643 C 0.88057 0.33087 0.98838 0.0
C2644 C 0.87259 0.31683 0.97631 0.0
C2645 C 0.87251 0.31716 0.95343 0.0
C2646 C 0.86641 0.32079 0.04711 0.0
C2647 C 0.88015 0.33066 0.05899 0.0
C2648 C 0.8666 0.32072 0.02424 0.0
C2649 C 0.88051 0.33058 0.01271 0.0
C2650 C 0.89429 0.34034 0.02459 0.0
C2651 C 0.89412 0.34034 0.04747 0.0
H2652 H 0.56027 0.9069 0.05554 0.0
H2653 H 0.5395 0.85634 0.05448 0.0
H2654 H 0.56163 0.90744 0.01569 0.0
H2655 H 0.54011 0.85679 0.01469 0.0
H2656 H 0.55743 0.86425 0.94428 0.0
H2657 H 0.55774 0.86438 0.98418 0.0
H2658 H 0.5446 0.90036 0.98437 0.0
H2659 H 0.54452 0.90035 0.94448 0.0
C2660 C 0.55604 0.8959 0.04683 0.0
C2661 C 0.54975 0.88158 0.05826 0.0
C2662 C 0.55663 0.89619 0.02395 0.0
C2663 C 0.55093 0.88215 0.01192 0.0
C2664 C 0.54477 0.86785 0.02338 0.0
C2665 C 0.54422 0.86757 0.04623 0.0
C2666 C 0.55454 0.87213 0.95286 0.0
C2667 C 0.55093 0.88227 0.94121 0.0
C2668 C 0.5547 0.8722 0.97574 0.0
C2669 C 0.55117 0.88236 0.98754 0.0
C2670 C 0.54763 0.89256 0.97585 0.0
C2671 C 0.54755 0.89254 0.95297 0.0
H2672 H 0.68969 0.56524 0.05658 0.0
H2673 H 0.64141 0.52739 0.05576 0.0
H2674 H 0.69003 0.56544 0.0166 0.0
H2675 H 0.64183 0.52744 0.01575 0.0
H2676 H 0.64402 0.5454 0.94516 0.0
H2677 H 0.6436 0.54521 0.98515 0.0
H2678 H 0.68889 0.54791 0.9861 0.0
H2679 H 0.68942 0.54835 0.94611 0.0
C2680 C 0.67914 0.557 0.04784 0.0
C2681 C 0.66551 0.54631 0.05929 0.0
C2682 C 0.67939 0.55702 0.02497 0.0
C2683 C 0.66597 0.54644 0.01305 0.0
C2684 C 0.65231 0.5358 0.0245 0.0
C2685 C 0.65211 0.53569 0.04738 0.0
C2686 C 0.65393 0.54605 0.95393 0.0
C2687 C 0.66677 0.54692 0.94251 0.0
C2688 C 0.65362 0.54579 0.9768 0.0
C2689 C 0.66621 0.54654 0.98875 0.0
C2690 C 0.67908 0.54745 0.97733 0.0
C2691 C 0.67932 0.54756 0.95445 0.0
H2692 H 0.12746 0.69314 0.9454 0.0
H2693 H 0.11352 0.64388 0.94682 0.0
H2694 H 0.12706 0.69357 0.98532 0.0
H2695 H 0.11344 0.64433 0.98667 0.0
H2696 H 0.09928 0.646 0.05675 0.0
H2697 H 0.09913 0.64611 0.01695 0.0
H2698 H 0.14065 0.69228 0.01694 0.0
H2699 H 0.14025 0.69256 0.05674 0.0
C2700 C 0.12447 0.68245 0.95427 0.0
C2701 C 0.12048 0.66847 0.94298 0.0
C2702 C 0.12427 0.68269 0.97715 0.0
C2703 C 0.12018 0.66897 0.98928 0.0
C2704 C 0.11633 0.65503 0.97791 0.0
C2705 C 0.11643 0.65478 0.95505 0.0
C2706 C 0.10825 0.65628 0.04829 0.0
C2707 C 0.11978 0.66927 0.06003 0.0
C2708 C 0.1083 0.65625 0.02541 0.0
C2709 C 0.11994 0.66917 0.01366 0.0
C2710 C 0.13141 0.6822 0.0254 0.0
C2711 C 0.13131 0.68226 0.04828 0.0
H2712 H 0.898 0.54169 0.55426 0.0
H2713 H 0.85878 0.55011 0.55362 0.0
H2714 H 0.89795 0.54128 0.51439 0.0
H2715 H 0.85862 0.54946 0.51371 0.0
H2716 H 0.85297 0.53029 0.44351 0.0
H2717 H 0.85298 0.53054 0.48347 0.0
H2718 H 0.90361 0.5596 0.4834 0.0
H2719 H 0.90364 0.55905 0.44344 0.0
C2720 C 0.88944 0.54358 0.54564 0.0
C2721 C 0.87842 0.54598 0.5572 0.0
C2722 C 0.8894 0.54332 0.52278 0.0
C2723 C 0.87829 0.54535 0.5109 0.0
C2724 C 0.8672 0.54765 0.52241 0.0
C2725 C 0.86728 0.548 0.54529 0.0
C2726 C 0.86411 0.53663 0.45204 0.0
C2727 C 0.87831 0.54464 0.44032 0.0
C2728 C 0.8641 0.5369 0.47491 0.0
C2729 C 0.87829 0.5451 0.48659 0.0
C2730 C 0.89249 0.55306 0.47487 0.0
C2731 C 0.8925 0.55287 0.452 0.0
H2732 H 0.35662 0.89418 0.55513 0.0
H2733 H 0.30637 0.86245 0.55554 0.0
H2734 H 0.3564 0.89446 0.51526 0.0
H2735 H 0.30615 0.86275 0.51562 0.0
H2736 H 0.31491 0.85398 0.44459 0.0
H2737 H 0.31495 0.85378 0.48446 0.0
H2738 H 0.34735 0.9039 0.48488 0.0
H2739 H 0.34778 0.904 0.44497 0.0
C2740 C 0.3455 0.88737 0.54671 0.0
C2741 C 0.33151 0.87831 0.55854 0.0
C2742 C 0.34537 0.88755 0.52385 0.0
C2743 C 0.33125 0.87866 0.51223 0.0
C2744 C 0.31726 0.86956 0.52405 0.0
C2745 C 0.31739 0.86938 0.54693 0.0
C2746 C 0.32215 0.86494 0.45318 0.0
C2747 C 0.3314 0.879 0.44157 0.0
C2748 C 0.32203 0.86485 0.47605 0.0
C2749 C 0.33116 0.87882 0.48789 0.0
C2750 C 0.34032 0.8929 0.47628 0.0
C2751 C 0.34042 0.89299 0.45339 0.0
H2752 H 0.47351 0.3348 0.55657 0.0
H2753 H 0.42647 0.32798 0.55634 0.0
H2754 H 0.47364 0.33494 0.51673 0.0
H2755 H 0.4269 0.32889 0.51649 0.0
H2756 H 0.427 0.31458 0.44498 0.0
H2757 H 0.42637 0.3139 0.4849 0.0
H2758 H 0.47488 0.3513 0.48663 0.0
H2759 H 0.47553 0.35183 0.44677 0.0
C2760 C 0.46317 0.33328 0.54803 0.0
C2761 C 0.44998 0.33136 0.5597 0.0
C2762 C 0.46333 0.33358 0.52517 0.0
C2763 C 0.45031 0.332 0.51337 0.0
C2764 C 0.43708 0.33 0.52503 0.0
C2765 C 0.43691 0.32967 0.54791 0.0
C2766 C 0.43748 0.32274 0.45391 0.0
C2767 C 0.45133 0.33322 0.44271 0.0
C2768 C 0.43712 0.32236 0.47679 0.0
C2769 C 0.45059 0.33251 0.48901 0.0
C2770 C 0.46438 0.34311 0.47777 0.0
C2771 C 0.46475 0.34344 0.45491 0.0
H2772 H 0.09872 0.43367 0.55562 0.0
H2773 H 0.1455 0.47434 0.55575 0.0
H2774 H 0.09879 0.43369 0.51576 0.0
H2775 H 0.14564 0.4741 0.51582 0.0
H2776 H 0.14544 0.45682 0.44526 0.0
H2777 H 0.14562 0.45719 0.48515 0.0
H2778 H 0.09871 0.4506 0.48529 0.0
H2779 H 0.0986 0.45056 0.4454 0.0
C2780 C 0.10898 0.44269 0.54719 0.0
C2781 C 0.12208 0.45405 0.55897 0.0
C2782 C 0.10902 0.44267 0.52432 0.0
C2783 C 0.1222 0.45392 0.51266 0.0
C2784 C 0.13538 0.46518 0.52437 0.0
C2785 C 0.1353 0.46528 0.54726 0.0
C2786 C 0.13523 0.45564 0.45375 0.0
C2787 C 0.122 0.45366 0.44203 0.0
C2788 C 0.13533 0.45583 0.47663 0.0
C2789 C 0.12217 0.4539 0.48835 0.0
C2790 C 0.10894 0.45189 0.4767 0.0
C2791 C 0.10888 0.45183 0.45382 0.0
H2792 H 0.64643 0.12416 0.44624 0.0
H2793 H 0.68751 0.11873 0.44616 0.0
H2794 H 0.64696 0.12498 0.48598 0.0
H2795 H 0.68735 0.11841 0.48592 0.0
H2796 H 0.69277 0.13401 0.55666 0.0
H2797 H 0.69268 0.13457 0.51692 0.0
H2798 H 0.64183 0.10907 0.51714 0.0
H2799 H 0.64192 0.10954 0.55686 0.0
C2800 C 0.65559 0.12313 0.45466 0.0
C2801 C 0.66695 0.12142 0.44287 0.0
C2802 C 0.65574 0.12336 0.47754 0.0
C2803 C 0.66717 0.12172 0.48928 0.0
C2804 C 0.67849 0.11992 0.47749 0.0
C2805 C 0.67843 0.11985 0.45462 0.0
C2806 C 0.68156 0.12875 0.54829 0.0
C2807 C 0.66736 0.12174 0.56012 0.0
C2808 C 0.6815 0.12885 0.5254 0.0
C2809 C 0.66725 0.12181 0.5137 0.0
C2810 C 0.65305 0.1148 0.52552 0.0
C2811 C 0.65311 0.11485 0.5484 0.0
H2812 H 0.56239 0.6581 0.44523 0.0
H2813 H 0.53346 0.67987 0.44583 0.0
H2814 H 0.56305 0.65862 0.48514 0.0
H2815 H 0.53378 0.67992 0.48571 0.0
H2816 H 0.52345 0.65942 0.55597 0.0
H2817 H 0.52341 0.65974 0.5161 0.0
H2818 H 0.57369 0.67876 0.51572 0.0
H2819 H 0.5739 0.67894 0.55563 0.0
C2820 C 0.55628 0.66311 0.4538 0.0
C2821 C 0.54786 0.66892 0.44221 0.0
C2822 C 0.55662 0.66335 0.47668 0.0
C2823 C 0.54843 0.66926 0.48852 0.0
C2824 C 0.54003 0.67509 0.47701 0.0
C2825 C 0.53981 0.675 0.45414 0.0
C2826 C 0.53456 0.66391 0.54746 0.0
C2827 C 0.54869 0.66919 0.55913 0.0
C2828 C 0.5345 0.66402 0.52459 0.0
C2829 C 0.54854 0.66926 0.51281 0.0
C2830 C 0.56266 0.67447 0.52438 0.0
C2831 C 0.56275 0.67452 0.54727 0.0
H2832 H 0.54775 0.15354 0.21761 0.0
H2833 H 0.51926 0.10666 0.24392 0.0
H2834 H 0.57133 0.15436 0.23236 0.0
H2835 H 0.54281 0.10736 0.25784 0.0
H2836 H 0.58951 0.10746 0.25402 0.0
H2837 H 0.56675 0.10823 0.23986 0.0
H2838 H 0.58317 0.15352 0.27013 0.0
H2839 H 0.60581 0.1526 0.2851 0.0
C2840 C 0.54646 0.14347 0.22664 0.0
C2841 C 0.53157 0.12996 0.22933 0.0
C2842 C 0.55998 0.14394 0.23501 0.0
C2843 C 0.55889 0.13086 0.24602 0.0
C2844 C 0.54402 0.1175 0.24906 0.0
C2845 C 0.53053 0.11709 0.24096 0.0
C2846 C 0.58824 0.11752 0.25795 0.0
C2847 C 0.59945 0.12987 0.271 0.0
C2848 C 0.57522 0.11798 0.24972 0.0
C2849 C 0.57315 0.13088 0.25404 0.0
C2850 C 0.58454 0.14348 0.26646 0.0
C2851 C 0.59752 0.14294 0.27496 0.0
H2852 H 0.45632 0.59043 0.30304 0.0
H2853 H 0.47613 0.60578 0.23854 0.0
H2854 H 0.43337 0.56779 0.28695 0.0
H2855 H 0.45306 0.58328 0.22244 0.0
H2856 H 0.41979 0.53043 0.20703 0.0
H2857 H 0.44202 0.5542 0.22214 0.0
H2858 H 0.41022 0.56131 0.26304 0.0
H2859 H 0.38799 0.53738 0.24816 0.0
C2860 C 0.45573 0.58899 0.28542 0.0
C2861 C 0.46803 0.59985 0.27205 0.0
C2862 C 0.44254 0.57611 0.27621 0.0
C2863 C 0.44144 0.57375 0.25344 0.0
C2864 C 0.45365 0.58473 0.24005 0.0
C2865 C 0.46677 0.59768 0.24925 0.0
C2866 C 0.41756 0.53707 0.21927 0.0
C2867 C 0.40216 0.53203 0.22646 0.0
C2868 C 0.43026 0.55075 0.22777 0.0
C2869 C 0.42785 0.55961 0.24377 0.0
C2870 C 0.41244 0.55465 0.25084 0.0
C2871 C 0.39971 0.54104 0.24219 0.0
H2872 H 0.84756 0.46181 0.24879 0.0
H2873 H 0.88367 0.46611 0.29335 0.0
H2874 H 0.84528 0.43759 0.23403 0.0
H2875 H 0.88162 0.44214 0.27833 0.0
H2876 H 0.86428 0.39123 0.26037 0.0
H2877 H 0.86322 0.41346 0.27641 0.0
H2878 H 0.86195 0.43047 0.21168 0.0
H2879 H 0.86264 0.40804 0.19563 0.0
C2880 C 0.85491 0.45751 0.25554 0.0
C2881 C 0.86583 0.46589 0.27217 0.0
C2882 C 0.8537 0.44373 0.24697 0.0
C2883 C 0.86328 0.43797 0.255 0.0
C2884 C 0.87397 0.44618 0.27194 0.0
C2885 C 0.87526 0.46001 0.28038 0.0
C2886 C 0.8635 0.39956 0.24957 0.0
C2887 C 0.86359 0.39791 0.22673 0.0
C2888 C 0.86305 0.41238 0.25875 0.0
C2889 C 0.86259 0.42376 0.24531 0.0
C2890 C 0.86219 0.42184 0.22247 0.0
C2891 C 0.86273 0.40908 0.21328 0.0
H2892 H 0.46705 0.85499 0.25657 0.0
H2893 H 0.45726 0.8708 0.19562 0.0
H2894 H 0.44341 0.85295 0.27247 0.0
H2895 H 0.43428 0.86988 0.21202 0.0
H2896 H 0.38712 0.85607 0.24095 0.0
H2897 H 0.40851 0.85371 0.22496 0.0
H2898 H 0.43428 0.86944 0.28579 0.0
H2899 H 0.41241 0.87066 0.30226 0.0
C2900 C 0.45983 0.85794 0.24647 0.0
C2901 C 0.46417 0.86313 0.22479 0.0
C2902 C 0.44636 0.857 0.25574 0.0
C2903 C 0.43695 0.86138 0.24365 0.0
C2904 C 0.4411 0.86624 0.22182 0.0
C2905 C 0.45447 0.86701 0.21248 0.0
C2906 C 0.39718 0.85869 0.25111 0.0
C2907 C 0.398 0.86361 0.27293 0.0
C2908 C 0.4096 0.85757 0.2418 0.0
C2909 C 0.42324 0.8615 0.25398 0.0
C2910 C 0.42392 0.86613 0.27592 0.0
C2911 C 0.41144 0.86709 0.2853 0.0
H2912 H 0.5813 0.4688 0.20829 0.0
H2913 H 0.61357 0.4633 0.25041 0.0
H2914 H 0.5594 0.44487 0.22349 0.0
H2915 H 0.59164 0.43914 0.26539 0.0
H2916 H 0.54526 0.40962 0.30507 0.0
H2917 H 0.56824 0.43217 0.2889 0.0
H2918 H 0.5489 0.41603 0.22436 0.0
H2919 H 0.52579 0.39367 0.24054 0.0
C2920 C 0.5837 0.46245 0.22077 0.0
C2921 C 0.59913 0.46796 0.22823 0.0
C2922 C 0.57119 0.44866 0.22932 0.0
C2923 C 0.5738 0.44012 0.24562 0.0
C2924 C 0.58926 0.44554 0.25294 0.0
C2925 C 0.60181 0.45928 0.24425 0.0
C2926 C 0.54595 0.41088 0.28744 0.0
C2927 C 0.5337 0.39991 0.27409 0.0
C2928 C 0.55916 0.42371 0.27817 0.0
C2929 C 0.56034 0.42589 0.25536 0.0
C2930 C 0.54825 0.41473 0.242 0.0
C2931 C 0.53509 0.40185 0.25125 0.0
H2932 H 0.10323 0.58583 0.24396 0.0
H2933 H 0.15156 0.60625 0.22281 0.0
H2934 H 0.10439 0.56376 0.25965 0.0
H2935 H 0.15306 0.58462 0.23992 0.0
H2936 H 0.144 0.53431 0.25024 0.0
H2937 H 0.14418 0.55746 0.23534 0.0
H2938 H 0.11477 0.55623 0.28889 0.0
H2939 H 0.1142 0.53276 0.30323 0.0
C2940 C 0.11413 0.58564 0.24265 0.0
C2941 C 0.12725 0.5978 0.23188 0.0
C2942 C 0.11488 0.57307 0.25202 0.0
C2943 C 0.12884 0.57237 0.25117 0.0
C2944 C 0.14205 0.58464 0.24068 0.0
C2945 C 0.14125 0.59718 0.2311 0.0
C2946 C 0.13771 0.53911 0.25889 0.0
C2947 C 0.12901 0.53171 0.2778 0.0
C2948 C 0.13784 0.55241 0.25041 0.0
C2949 C 0.12942 0.55872 0.26081 0.0
C2950 C 0.12111 0.55152 0.28013 0.0
C2951 C 0.12082 0.53812 0.28844 0.0
H2952 H 0.46478 0.85398 0.75127 0.0
H2953 H 0.47212 0.89256 0.79314 0.0
H2954 H 0.44108 0.85271 0.73658 0.0
H2955 H 0.44893 0.89183 0.77765 0.0
H2956 H 0.39819 0.87659 0.76176 0.0
H2957 H 0.42084 0.87619 0.77733 0.0
H2958 H 0.43314 0.86721 0.71314 0.0
H2959 H 0.41029 0.86737 0.69767 0.0
C2960 C 0.46132 0.86216 0.75741 0.0
C2961 C 0.47037 0.87336 0.77342 0.0
C2962 C 0.44784 0.86156 0.74876 0.0
C2963 C 0.44309 0.87218 0.75589 0.0
C2964 C 0.45211 0.88334 0.77196 0.0
C2965 C 0.46555 0.8839 0.78065 0.0
C2966 C 0.40577 0.87458 0.75098 0.0
C2967 C 0.4025 0.87208 0.72847 0.0
C2968 C 0.41877 0.87438 0.75988 0.0
C2969 C 0.42889 0.87176 0.74648 0.0
C2970 C 0.42549 0.86905 0.724 0.0
C2971 C 0.41241 0.86916 0.71511 0.0
H2972 H 0.5846 0.46156 0.80485 0.0
H2973 H 0.6083 0.47121 0.74241 0.0
H2974 H 0.56191 0.43853 0.78925 0.0
H2975 H 0.58557 0.44822 0.72676 0.0
H2976 H 0.54712 0.39781 0.71109 0.0
H2977 H 0.57051 0.41959 0.72771 0.0
H2978 H 0.54111 0.43309 0.76342 0.0
H2979 H 0.51778 0.41101 0.74756 0.0
C2980 C 0.58494 0.45878 0.78777 0.0
C2981 C 0.59822 0.46825 0.77485 0.0
C2982 C 0.57194 0.44559 0.77882 0.0
C2983 C 0.57188 0.44159 0.75671 0.0
C2984 C 0.5853 0.45086 0.74391 0.0
C2985 C 0.59833 0.46404 0.75288 0.0
C2986 C 0.54566 0.40534 0.72265 0.0
C2987 C 0.53057 0.40269 0.72794 0.0
C2988 C 0.55906 0.41791 0.73201 0.0
C2989 C 0.55768 0.42808 0.74691 0.0
C2990 C 0.5426 0.42538 0.75222 0.0
C2991 C 0.52922 0.41284 0.74288 0.0
H2992 H 0.10013 0.58307 0.76699 0.0
H2993 H 0.14989 0.60532 0.78049 0.0
H2994 H 0.10053 0.56006 0.75235 0.0
H2995 H 0.15032 0.58232 0.76568 0.0
H2996 H 0.1453 0.54604 0.71164 0.0
H2997 H 0.14548 0.56898 0.72735 0.0
H2998 H 0.10588 0.53865 0.76813 0.0
H2999 H 0.10604 0.51569 0.75329 0.0
C3000 C 0.11115 0.58303 0.76674 0.0
C3001 C 0.12499 0.59594 0.77482 0.0
C3002 C 0.11136 0.56986 0.75852 0.0
C3003 C 0.12546 0.56945 0.75789 0.0
C3004 C 0.13932 0.5824 0.76587 0.0
C3005 C 0.13906 0.59548 0.77445 0.0
C3006 C 0.13678 0.54421 0.72422 0.0
C3007 C 0.12563 0.52892 0.73112 0.0
C3008 C 0.13686 0.55737 0.73312 0.0
C3009 C 0.12567 0.55555 0.74888 0.0
C3010 C 0.11453 0.54035 0.7558 0.0
C3011 C 0.11458 0.5272 0.74717 0.0
H3012 H 0.60941 0.1463 0.7452 0.0
H3013 H 0.57752 0.10186 0.71473 0.0
H3014 H 0.58698 0.14777 0.76001 0.0
H3015 H 0.55511 0.10336 0.72944 0.0
H3016 H 0.52058 0.12203 0.7388 0.0
H3017 H 0.54327 0.12133 0.72399 0.0
H3018 H 0.56481 0.13182 0.78794 0.0
H3019 H 0.54186 0.13194 0.8031 0.0
C3020 C 0.5976 0.13691 0.74159 0.0
C3021 C 0.59516 0.12397 0.72883 0.0
C3022 C 0.5848 0.1377 0.75017 0.0
C3023 C 0.56934 0.12569 0.74583 0.0
C3024 C 0.56691 0.11283 0.73289 0.0
C3025 C 0.5797 0.11192 0.72461 0.0
C3026 C 0.53003 0.12401 0.74982 0.0
C3027 C 0.52928 0.12693 0.77222 0.0
C3028 C 0.54306 0.12367 0.74128 0.0
C3029 C 0.55574 0.12648 0.75484 0.0
C3030 C 0.55523 0.12976 0.77709 0.0
C3031 C 0.5421 0.12989 0.78573 0.0
H3032 H 0.39942 0.54707 0.79135 0.0
H3033 H 0.40878 0.51795 0.74797 0.0
H3034 H 0.42144 0.57058 0.77536 0.0
H3035 H 0.43108 0.54138 0.73256 0.0
H3036 H 0.46018 0.58677 0.69466 0.0
H3037 H 0.43693 0.56401 0.70973 0.0
H3038 H 0.45018 0.5839 0.77458 0.0
H3039 H 0.47344 0.60664 0.75952 0.0
C3040 C 0.40615 0.54569 0.77837 0.0
C3041 C 0.40237 0.53063 0.77097 0.0
C3042 C 0.41885 0.55915 0.76936 0.0
C3043 C 0.42802 0.55786 0.75269 0.0
C3044 C 0.42415 0.5428 0.7452 0.0
C3045 C 0.41149 0.52936 0.75423 0.0
C3046 C 0.45815 0.58626 0.71214 0.0
C3047 C 0.4687 0.59849 0.72589 0.0
C3048 C 0.44483 0.57322 0.72078 0.0
C3049 C 0.44174 0.5721 0.74337 0.0
C3050 C 0.45211 0.58449 0.75707 0.0
C3051 C 0.46544 0.59753 0.74843 0.0
H3052 H 0.87776 0.41543 0.80379 0.0
H3053 H 0.86935 0.39419 0.73965 0.0
H3054 H 0.87676 0.43784 0.78829 0.0
H3055 H 0.86841 0.41658 0.72419 0.0
H3056 H 0.88702 0.46743 0.70139 0.0
H3057 H 0.88669 0.44445 0.71713 0.0
H3058 H 0.8586 0.44511 0.77111 0.0
H3059 H 0.85935 0.46843 0.75569 0.0
C3060 C 0.87552 0.41546 0.78644 0.0
C3061 C 0.87373 0.40307 0.77294 0.0
C3062 C 0.87495 0.4283 0.77756 0.0
C3063 C 0.87258 0.42903 0.75499 0.0
C3064 C 0.87053 0.41651 0.74157 0.0
C3065 C 0.87109 0.40368 0.75044 0.0
C3066 C 0.88084 0.46272 0.71668 0.0
C3067 C 0.87324 0.46978 0.72731 0.0
C3068 C 0.88051 0.44945 0.72558 0.0
C3069 C 0.8726 0.44294 0.74536 0.0
C3070 C 0.86491 0.44993 0.75595 0.0
C3071 C 0.86519 0.46318 0.74699 0.0
loop_
_geom_bond_atom_site_label_1
_geom_bond_atom_site_label_2
_geom_bond_distance
_geom_bond_site_symmetry_2
_ccdc_geom_bond_type
Li0 N17 1.990 . S
Li0 O60 1.956 . S
Li0 O61 1.970 . S
Li0 O62 1.961 . S
Li1 N25 1.990 . S
Li1 O60 1.970 . S
Li1 O61 1.956 . S
Li1 O63 1.961 . S
Li2 N47 1.990 . S
Li2 O60 1.961 . S
Li2 O62 1.956 . S
Li2 O63 1.970 . S
Li3 N53 1.990 . S
Li3 O61 1.961 . S
Li3 O62 1.970 . S
Li3 O63 1.956 . S
C4 C6 1.348 . S
C4 C7 1.356 . S
C4 O60 1.325 . S
N5 C8 1.314 . S
N5 C9 1.279 . S
C6 C4 1.348 . S
C6 C8 1.353 . S
C6 H64 0.929 . S
C7 C4 1.356 . S
C7 C9 1.358 . S
C7 H65 0.930 . S
C8 N5 1.314 . S
C8 C6 1.353 . S
C8 H66 0.930 . S
C9 N5 1.279 . S
C9 C7 1.358 . S
C9 H67 0.930 . S
C10 C13 1.348 . S
C10 C14 1.356 . S
C10 O61 1.325 . S
C11 N12 1.279 . S
C11 C14 1.358 . S
C11 H68 0.930 . S
N12 C11 1.279 . S
N12 C15 1.314 . S
C13 C10 1.348 . S
C13 C15 1.353 . S
C13 H69 0.929 . S
C14 C10 1.356 . S
C14 C11 1.358 . S
C14 H70 0.930 . S
C15 N12 1.314 . S
C15 C13 1.353 . S
C15 H71 0.930 . S
C16 N17 1.314 . S
C16 C21 1.353 . S
C16 H22 0.930 . S
N17 Li0 1.990 . S
N17 C16 1.314 . S
N17 C19 1.279 . S
C18 C19 1.358 . S
C18 C20 1.356 . S
C18 H72 0.930 . S
C19 N17 1.279 . S
C19 C18 1.358 . S
C19 H23 0.930 . S
C20 C18 1.356 . S
C20 C21 1.348 . S
C21 C16 1.353 . S
C21 C20 1.348 . S
C21 H73 0.929 . S
H22 C16 0.930 . S
H23 C19 0.930 . S
C24 N25 1.314 . S
C24 C26 1.353 . S
C24 H30 0.930 . S
N25 Li1 1.990 . S
N25 C24 1.314 . S
N25 C28 1.279 . S
C26 C24 1.353 . S
C26 C29 1.348 . S
C26 H74 0.929 . S
C27 C28 1.358 . S
C27 C29 1.356 . S
C27 H75 0.930 . S
C28 N25 1.279 . S
C28 C27 1.358 . S
C28 H31 0.930 . S
C29 C26 1.348 . S
C29 C27 1.356 . S
H30 C24 0.930 . S
H31 C28 0.930 . S
C32 C34 1.348 . S
C32 C35 1.356 . S
C32 O62 1.325 . S
N33 C36 1.314 . S
N33 C37 1.279 . S
C34 C32 1.348 . S
C34 C36 1.353 . S
C34 H76 0.929 . S
C35 C32 1.356 . S
C35 C37 1.358 . S
C35 H77 0.930 . S
C36 N33 1.314 . S
C36 C34 1.353 . S
C36 H78 0.930 . S
C37 N33 1.279 . S
C37 C35 1.358 . S
C37 H79 0.930 . S
C38 C39 1.348 . S
C38 C40 1.356 . S
C38 O63 1.325 . S
C39 C38 1.348 . S
C39 C41 1.353 . S
C39 H80 0.929 . S
C40 C38 1.356 . S
C40 C42 1.358 . S
C40 H81 0.930 . S
C41 C39 1.353 . S
C41 N43 1.314 . S
C41 H82 0.930 . S
C42 C40 1.358 . S
C42 N43 1.279 . S
C42 H83 0.930 . S
N43 C41 1.314 . S
N43 C42 1.279 . S
C44 C46 1.353 . S
C44 N47 1.314 . S
C44 H50 0.930 . S
C45 N47 1.279 . S
C45 C48 1.358 . S
C45 H51 0.930 . S
C46 C44 1.353 . S
C46 C49 1.348 . S
C46 H84 0.929 . S
N47 Li2 1.990 . S
N47 C44 1.314 . S
N47 C45 1.279 . S
C48 C45 1.358 . S
C48 C49 1.356 . S
C48 H85 0.930 . S
C49 C46 1.348 . S
C49 C48 1.356 . S
H50 C44 0.930 . S
H51 C45 0.930 . S
C52 N53 1.314 . S
C52 C54 1.353 . S
C52 H58 0.930 . S
N53 Li3 1.990 . S
N53 C52 1.314 . S
N53 C56 1.279 . S
C54 C52 1.353 . S
C54 C57 1.348 . S
C54 H86 0.929 . S
C55 C56 1.358 . S
C55 C57 1.356 . S
C55 H87 0.930 . S
C56 N53 1.279 . S
C56 C55 1.358 . S
C56 H59 0.930 . S
C57 C54 1.348 . S
C57 C55 1.356 . S
H58 C52 0.930 . S
H59 C56 0.930 . S
O60 Li0 1.956 . S
O60 Li1 1.970 . S
O60 Li2 1.961 . S
O60 C4 1.325 . S
O61 Li0 1.970 . S
O61 Li1 1.956 . S
O61 Li3 1.961 . S
O61 C10 1.325 . S
O62 Li0 1.961 . S
O62 Li2 1.956 . S
O62 Li3 1.970 . S
O62 C32 1.325 . S
O63 Li1 1.961 . S
O63 Li2 1.970 . S
O63 Li3 1.956 . S
O63 C38 1.325 . S
H64 C6 0.929 . S
H65 C7 0.930 . S
H66 C8 0.930 . S
H67 C9 0.930 . S
H68 C11 0.930 . S
H69 C13 0.929 . S
H70 C14 0.930 . S
H71 C15 0.930 . S
H72 C18 0.930 . S
H73 C21 0.929 . S
H74 C26 0.929 . S
H75 C27 0.930 . S
H76 C34 0.929 . S
H77 C35 0.930 . S
H78 C36 0.930 . S
H79 C37 0.930 . S
H80 C39 0.929 . S
H81 C40 0.930 . S
H82 C41 0.930 . S
H83 C42 0.930 . S
H84 C46 0.929 . S
H85 C48 0.930 . S
H86 C54 0.929 . S
H87 C55 0.930 . S
Li88 N105 1.990 . S
Li88 O148 1.956 . S
Li88 O149 1.970 . S
Li88 O150 1.961 . S
Li89 N113 1.990 . S
Li89 O148 1.970 . S
Li89 O149 1.956 . S
Li89 O151 1.961 . S
Li90 N135 1.990 . S
Li90 O148 1.961 . S
Li90 O150 1.956 . S
Li90 O151 1.970 . S
Li91 N141 1.990 . S
Li91 O149 1.961 . S
Li91 O150 1.970 . S
Li91 O151 1.956 . S
C92 C94 1.348 . S
C92 C95 1.356 . S
C92 O148 1.325 . S
N93 C96 1.314 . S
N93 C97 1.279 . S
C94 C92 1.348 . S
C94 C96 1.353 . S
C94 H152 0.929 . S
C95 C92 1.356 . S
C95 C97 1.358 . S
C95 H153 0.930 . S
C96 N93 1.314 . S
C96 C94 1.353 . S
C96 H154 0.930 . S
C97 N93 1.279 . S
C97 C95 1.358 . S
C97 H155 0.930 . S
C98 C101 1.348 . S
C98 C102 1.356 . S
C98 O149 1.325 . S
C99 N100 1.279 . S
C99 C102 1.358 . S
C99 H156 0.930 . S
N100 C99 1.279 . S
N100 C103 1.314 . S
C101 C98 1.348 . S
C101 C103 1.353 . S
C101 H157 0.929 . S
C102 C98 1.356 . S
C102 C99 1.358 . S
C102 H158 0.930 . S
C103 N100 1.314 . S
C103 C101 1.353 . S
C103 H159 0.930 . S
C104 N105 1.314 . S
C104 C109 1.353 . S
C104 H110 0.930 . S
N105 Li88 1.990 . S
N105 C104 1.314 . S
N105 C107 1.279 . S
C106 C107 1.358 . S
C106 C108 1.356 . S
C106 H160 0.930 . S
C107 N105 1.279 . S
C107 C106 1.358 . S
C107 H111 0.930 . S
C108 C106 1.356 . S
C108 C109 1.348 . S
C109 C104 1.353 . S
C109 C108 1.348 . S
C109 H161 0.929 . S
H110 C104 0.930 . S
H111 C107 0.930 . S
C112 N113 1.314 . S
C112 C114 1.353 . S
C112 H118 0.930 . S
N113 Li89 1.990 . S
N113 C112 1.314 . S
N113 C116 1.279 . S
C114 C112 1.353 . S
C114 C117 1.348 . S
C114 H162 0.929 . S
C115 C116 1.358 . S
C115 C117 1.356 . S
C115 H163 0.930 . S
C116 N113 1.279 . S
C116 C115 1.358 . S
C116 H119 0.930 . S
C117 C114 1.348 . S
C117 C115 1.356 . S
H118 C112 0.930 . S
H119 C116 0.930 . S
C120 C122 1.348 . S
C120 C123 1.356 . S
C120 O150 1.325 . S
N121 C124 1.314 . S
N121 C125 1.279 . S
C122 C120 1.348 . S
C122 C124 1.353 . S
C122 H164 0.929 . S
C123 C120 1.356 . S
C123 C125 1.358 . S
C123 H165 0.930 . S
C124 N121 1.314 . S
C124 C122 1.353 . S
C124 H166 0.930 . S
C125 N121 1.279 . S
C125 C123 1.358 . S
C125 H167 0.930 . S
C126 C127 1.348 . S
C126 C128 1.356 . S
C126 O151 1.325 . S
C127 C126 1.348 . S
C127 C129 1.353 . S
C127 H168 0.929 . S
C128 C126 1.356 . S
C128 C130 1.358 . S
C128 H169 0.930 . S
C129 C127 1.353 . S
C129 N131 1.314 . S
C129 H170 0.930 . S
C130 C128 1.358 . S
C130 N131 1.279 . S
C130 H171 0.930 . S
N131 C129 1.314 . S
N131 C130 1.279 . S
C132 C134 1.353 . S
C132 N135 1.314 . S
C132 H138 0.930 . S
C133 N135 1.279 . S
C133 C136 1.358 . S
C133 H139 0.930 . S
C134 C132 1.353 . S
C134 C137 1.348 . S
C134 H172 0.929 . S
N135 Li90 1.990 . S
N135 C132 1.314 . S
N135 C133 1.279 . S
C136 C133 1.358 . S
C136 C137 1.356 . S
C136 H173 0.930 . S
C137 C134 1.348 . S
C137 C136 1.356 . S
H138 C132 0.930 . S
H139 C133 0.930 . S
C140 N141 1.314 . S
C140 C142 1.353 . S
C140 H146 0.930 . S
N141 Li91 1.990 . S
N141 C140 1.314 . S
N141 C144 1.279 . S
C142 C140 1.353 . S
C142 C145 1.348 . S
C142 H174 0.929 . S
C143 C144 1.358 . S
C143 C145 1.356 . S
C143 H175 0.930 . S
C144 N141 1.279 . S
C144 C143 1.358 . S
C144 H147 0.930 . S
C145 C142 1.348 . S
C145 C143 1.356 . S
H146 C140 0.930 . S
H147 C144 0.930 . S
O148 Li88 1.956 . S
O148 Li89 1.970 . S
O148 Li90 1.961 . S
O148 C92 1.325 . S
O149 Li88 1.970 . S
O149 Li89 1.956 . S
O149 Li91 1.961 . S
O149 C98 1.325 . S
O150 Li88 1.961 . S
O150 Li90 1.956 . S
O150 Li91 1.970 . S
O150 C120 1.325 . S
O151 Li89 1.961 . S
O151 Li90 1.970 . S
O151 Li91 1.956 . S
O151 C126 1.325 . S
H152 C94 0.929 . S
H153 C95 0.930 . S
H154 C96 0.930 . S
H155 C97 0.930 . S
H156 C99 0.930 . S
H157 C101 0.929 . S
H158 C102 0.930 . S
H159 C103 0.930 . S
H160 C106 0.930 . S
H161 C109 0.929 . S
H162 C114 0.929 . S
H163 C115 0.930 . S
H164 C122 0.929 . S
H165 C123 0.930 . S
H166 C124 0.930 . S
H167 C125 0.930 . S
H168 C127 0.929 . S
H169 C128 0.930 . S
H170 C129 0.930 . S
H171 C130 0.930 . S
H172 C134 0.929 . S
H173 C136 0.930 . S
H174 C142 0.929 . S
H175 C143 0.930 . S
Li176 N193 1.990 . S
Li176 O236 1.956 . S
Li176 O237 1.970 . S
Li176 O238 1.961 . S
Li177 N201 1.990 . S
Li177 O236 1.970 . S
Li177 O237 1.956 . S
Li177 O239 1.961 . S
Li178 N223 1.990 . S
Li178 O236 1.961 . S
Li178 O238 1.956 . S
Li178 O239 1.970 . S
Li179 N229 1.990 . S
Li179 O237 1.961 . S
Li179 O238 1.970 . S
Li179 O239 1.956 . S
C180 C182 1.348 . S
C180 C183 1.356 . S
C180 O236 1.325 . S
N181 C184 1.314 . S
N181 C185 1.279 . S
C182 C180 1.348 . S
C182 C184 1.353 . S
C182 H240 0.929 . S
C183 C180 1.356 . S
C183 C185 1.358 . S
C183 H241 0.930 . S
C184 N181 1.314 . S
C184 C182 1.353 . S
C184 H242 0.930 . S
C185 N181 1.279 . S
C185 C183 1.358 . S
C185 H243 0.930 . S
C186 C189 1.348 . S
C186 C190 1.356 . S
C186 O237 1.325 . S
C187 N188 1.279 . S
C187 C190 1.358 . S
C187 H244 0.930 . S
N188 C187 1.279 . S
N188 C191 1.314 . S
C189 C186 1.348 . S
C189 C191 1.353 . S
C189 H245 0.929 . S
C190 C186 1.356 . S
C190 C187 1.358 . S
C190 H246 0.930 . S
C191 N188 1.314 . S
C191 C189 1.353 . S
C191 H247 0.930 . S
C192 N193 1.314 . S
C192 C197 1.353 . S
C192 H198 0.930 . S
N193 Li176 1.990 . S
N193 C192 1.314 . S
N193 C195 1.279 . S
C194 C195 1.358 . S
C194 C196 1.356 . S
C194 H248 0.930 . S
C195 N193 1.279 . S
C195 C194 1.358 . S
C195 H199 0.930 . S
C196 C194 1.356 . S
C196 C197 1.348 . S
C197 C192 1.353 . S
C197 C196 1.348 . S
C197 H249 0.929 . S
H198 C192 0.930 . S
H199 C195 0.930 . S
C200 N201 1.314 . S
C200 C202 1.353 . S
C200 H206 0.930 . S
N201 Li177 1.990 . S
N201 C200 1.314 . S
N201 C204 1.279 . S
C202 C200 1.353 . S
C202 C205 1.348 . S
C202 H250 0.929 . S
C203 C204 1.358 . S
C203 C205 1.356 . S
C203 H251 0.930 . S
C204 N201 1.279 . S
C204 C203 1.358 . S
C204 H207 0.930 . S
C205 C202 1.348 . S
C205 C203 1.356 . S
H206 C200 0.930 . S
H207 C204 0.930 . S
C208 C210 1.348 . S
C208 C211 1.356 . S
C208 O238 1.325 . S
N209 C212 1.314 . S
N209 C213 1.279 . S
C210 C208 1.348 . S
C210 C212 1.353 . S
C210 H252 0.929 . S
C211 C208 1.356 . S
C211 C213 1.358 . S
C211 H253 0.930 . S
C212 N209 1.314 . S
C212 C210 1.353 . S
C212 H254 0.930 . S
C213 N209 1.279 . S
C213 C211 1.358 . S
C213 H255 0.930 . S
C214 C215 1.348 . S
C214 C216 1.356 . S
C214 O239 1.325 . S
C215 C214 1.348 . S
C215 C217 1.353 . S
C215 H256 0.929 . S
C216 C214 1.356 . S
C216 C218 1.358 . S
C216 H257 0.930 . S
C217 C215 1.353 . S
C217 N219 1.314 . S
C217 H258 0.930 . S
C218 C216 1.358 . S
C218 N219 1.279 . S
C218 H259 0.930 . S
N219 C217 1.314 . S
N219 C218 1.279 . S
C220 C222 1.353 . S
C220 N223 1.314 . S
C220 H226 0.930 . S
C221 N223 1.279 . S
C221 C224 1.358 . S
C221 H227 0.930 . S
C222 C220 1.353 . S
C222 C225 1.348 . S
C222 H260 0.929 . S
N223 Li178 1.990 . S
N223 C220 1.314 . S
N223 C221 1.279 . S
C224 C221 1.358 . S
C224 C225 1.356 . S
C224 H261 0.930 . S
C225 C222 1.348 . S
C225 C224 1.356 . S
H226 C220 0.930 . S
H227 C221 0.930 . S
C228 N229 1.314 . S
C228 C230 1.353 . S
C228 H234 0.930 . S
N229 Li179 1.990 . S
N229 C228 1.314 . S
N229 C232 1.279 . S
C230 C228 1.353 . S
C230 C233 1.348 . S
C230 H262 0.929 . S
C231 C232 1.358 . S
C231 C233 1.356 . S
C231 H263 0.930 . S
C232 N229 1.279 . S
C232 C231 1.358 . S
C232 H235 0.930 . S
C233 C230 1.348 . S
C233 C231 1.356 . S
H234 C228 0.930 . S
H235 C232 0.930 . S
O236 Li176 1.956 . S
O236 Li177 1.970 . S
O236 Li178 1.961 . S
O236 C180 1.325 . S
O237 Li176 1.970 . S
O237 Li177 1.956 . S
O237 Li179 1.961 . S
O237 C186 1.325 . S
O238 Li176 1.961 . S
O238 Li178 1.956 . S
O238 Li179 1.970 . S
O238 C208 1.325 . S
O239 Li177 1.961 . S
O239 Li178 1.970 . S
O239 Li179 1.956 . S
O239 C214 1.325 . S
H240 C182 0.929 . S
H241 C183 0.930 . S
H242 C184 0.930 . S
H243 C185 0.930 . S
H244 C187 0.930 . S
H245 C189 0.929 . S
H246 C190 0.930 . S
H247 C191 0.930 . S
H248 C194 0.930 . S
H249 C197 0.929 . S
H250 C202 0.929 . S
H251 C203 0.930 . S
H252 C210 0.929 . S
H253 C211 0.930 . S
H254 C212 0.930 . S
H255 C213 0.930 . S
H256 C215 0.929 . S
H257 C216 0.930 . S
H258 C217 0.930 . S
H259 C218 0.930 . S
H260 C222 0.929 . S
H261 C224 0.930 . S
H262 C230 0.929 . S
H263 C231 0.930 . S
Li264 N281 1.990 . S
Li264 O324 1.956 . S
Li264 O325 1.970 . S
Li264 O326 1.961 . S
Li265 N289 1.990 . S
Li265 O324 1.970 . S
Li265 O325 1.956 . S
Li265 O327 1.961 . S
Li266 N311 1.990 . S
Li266 O324 1.961 . S
Li266 O326 1.956 . S
Li266 O327 1.970 . S
Li267 N317 1.990 . S
Li267 O325 1.961 . S
Li267 O326 1.970 . S
Li267 O327 1.956 . S
C268 C270 1.348 . S
C268 C271 1.356 . S
C268 O324 1.325 . S
N269 C272 1.314 . S
N269 C273 1.279 . S
C270 C268 1.348 . S
C270 C272 1.353 . S
C270 H328 0.929 . S
C271 C268 1.356 . S
C271 C273 1.358 . S
C271 H329 0.930 . S
C272 N269 1.314 . S
C272 C270 1.353 . S
C272 H330 0.930 . S
C273 N269 1.279 . S
C273 C271 1.358 . S
C273 H331 0.930 . S
C274 C277 1.348 . S
C274 C278 1.356 . S
C274 O325 1.325 . S
C275 N276 1.279 . S
C275 C278 1.358 . S
C275 H332 0.930 . S
N276 C275 1.279 . S
N276 C279 1.314 . S
C277 C274 1.348 . S
C277 C279 1.353 . S
C277 H333 0.929 . S
C278 C274 1.356 . S
C278 C275 1.358 . S
C278 H334 0.930 . S
C279 N276 1.314 . S
C279 C277 1.353 . S
C279 H335 0.930 . S
C280 N281 1.314 . S
C280 C285 1.353 . S
C280 H286 0.930 . S
N281 Li264 1.990 . S
N281 C280 1.314 . S
N281 C283 1.279 . S
C282 C283 1.358 . S
C282 C284 1.356 . S
C282 H336 0.930 . S
C283 N281 1.279 . S
C283 C282 1.358 . S
C283 H287 0.930 . S
C284 C282 1.356 . S
C284 C285 1.348 . S
C285 C280 1.353 . S
C285 C284 1.348 . S
C285 H337 0.929 . S
H286 C280 0.930 . S
H287 C283 0.930 . S
C288 N289 1.314 . S
C288 C290 1.353 . S
C288 H294 0.930 . S
N289 Li265 1.990 . S
N289 C288 1.314 . S
N289 C292 1.279 . S
C290 C288 1.353 . S
C290 C293 1.348 . S
C290 H338 0.929 . S
C291 C292 1.358 . S
C291 C293 1.356 . S
C291 H339 0.930 . S
C292 N289 1.279 . S
C292 C291 1.358 . S
C292 H295 0.930 . S
C293 C290 1.348 . S
C293 C291 1.356 . S
H294 C288 0.930 . S
H295 C292 0.930 . S
C296 C298 1.348 . S
C296 C299 1.356 . S
C296 O326 1.325 . S
N297 C300 1.314 . S
N297 C301 1.279 . S
C298 C296 1.348 . S
C298 C300 1.353 . S
C298 H340 0.929 . S
C299 C296 1.356 . S
C299 C301 1.358 . S
C299 H341 0.930 . S
C300 N297 1.314 . S
C300 C298 1.353 . S
C300 H342 0.930 . S
C301 N297 1.279 . S
C301 C299 1.358 . S
C301 H343 0.930 . S
C302 C303 1.348 . S
C302 C304 1.356 . S
C302 O327 1.325 . S
C303 C302 1.348 . S
C303 C305 1.353 . S
C303 H344 0.929 . S
C304 C302 1.356 . S
C304 C306 1.358 . S
C304 H345 0.930 . S
C305 C303 1.353 . S
C305 N307 1.314 . S
C305 H346 0.930 . S
C306 C304 1.358 . S
C306 N307 1.279 . S
C306 H347 0.930 . S
N307 C305 1.314 . S
N307 C306 1.279 . S
C308 C310 1.353 . S
C308 N311 1.314 . S
C308 H314 0.930 . S
C309 N311 1.279 . S
C309 C312 1.358 . S
C309 H315 0.930 . S
C310 C308 1.353 . S
C310 C313 1.348 . S
C310 H348 0.929 . S
N311 Li266 1.990 . S
N311 C308 1.314 . S
N311 C309 1.279 . S
C312 C309 1.358 . S
C312 C313 1.356 . S
C312 H349 0.930 . S
C313 C310 1.348 . S
C313 C312 1.356 . S
H314 C308 0.930 . S
H315 C309 0.930 . S
C316 N317 1.314 . S
C316 C318 1.353 . S
C316 H322 0.930 . S
N317 Li267 1.990 . S
N317 C316 1.314 . S
N317 C320 1.279 . S
C318 C316 1.353 . S
C318 C321 1.348 . S
C318 H350 0.929 . S
C319 C320 1.358 . S
C319 C321 1.356 . S
C319 H351 0.930 . S
C320 N317 1.279 . S
C320 C319 1.358 . S
C320 H323 0.930 . S
C321 C318 1.348 . S
C321 C319 1.356 . S
H322 C316 0.930 . S
H323 C320 0.930 . S
O324 Li264 1.956 . S
O324 Li265 1.970 . S
O324 Li266 1.961 . S
O324 C268 1.325 . S
O325 Li264 1.970 . S
O325 Li265 1.956 . S
O325 Li267 1.961 . S
O325 C274 1.325 . S
O326 Li264 1.961 . S
O326 Li266 1.956 . S
O326 Li267 1.970 . S
O326 C296 1.325 . S
O327 Li265 1.961 . S
O327 Li266 1.970 . S
O327 Li267 1.956 . S
O327 C302 1.325 . S
H328 C270 0.929 . S
H329 C271 0.930 . S
H330 C272 0.930 . S
H331 C273 0.930 . S
H332 C275 0.930 . S
H333 C277 0.929 . S
H334 C278 0.930 . S
H335 C279 0.930 . S
H336 C282 0.930 . S
H337 C285 0.929 . S
H338 C290 0.929 . S
H339 C291 0.930 . S
H340 C298 0.929 . S
H341 C299 0.930 . S
H342 C300 0.930 . S
H343 C301 0.930 . S
H344 C303 0.929 . S
H345 C304 0.930 . S
H346 C305 0.930 . S
H347 C306 0.930 . S
H348 C310 0.929 . S
H349 C312 0.930 . S
H350 C318 0.929 . S
H351 C319 0.930 . S
Li352 N369 1.990 . S
Li352 O412 1.956 . S
Li352 O413 1.970 . S
Li352 O414 1.961 . S
Li353 N377 1.990 . S
Li353 O412 1.970 . S
Li353 O413 1.956 . S
Li353 O415 1.961 . S
Li354 N399 1.990 . S
Li354 O412 1.961 . S
Li354 O414 1.956 . S
Li354 O415 1.970 . S
Li355 N405 1.990 . S
Li355 O413 1.961 . S
Li355 O414 1.970 . S
Li355 O415 1.956 . S
C356 C358 1.348 . S
C356 C359 1.356 . S
C356 O412 1.325 . S
N357 C360 1.314 . S
N357 C361 1.279 . S
C358 C356 1.348 . S
C358 C360 1.353 . S
C358 H416 0.929 . S
C359 C356 1.356 . S
C359 C361 1.358 . S
C359 H417 0.930 . S
C360 N357 1.314 . S
C360 C358 1.353 . S
C360 H418 0.930 . S
C361 N357 1.279 . S
C361 C359 1.358 . S
C361 H419 0.930 . S
C362 C365 1.348 . S
C362 C366 1.356 . S
C362 O413 1.325 . S
C363 N364 1.279 . S
C363 C366 1.358 . S
C363 H420 0.930 . S
N364 C363 1.279 . S
N364 C367 1.314 . S
C365 C362 1.348 . S
C365 C367 1.353 . S
C365 H421 0.929 . S
C366 C362 1.356 . S
C366 C363 1.358 . S
C366 H422 0.930 . S
C367 N364 1.314 . S
C367 C365 1.353 . S
C367 H423 0.930 . S
C368 N369 1.314 . S
C368 C373 1.353 . S
C368 H374 0.930 . S
N369 Li352 1.990 . S
N369 C368 1.314 . S
N369 C371 1.279 . S
C370 C371 1.358 . S
C370 C372 1.356 . S
C370 H424 0.930 . S
C371 N369 1.279 . S
C371 C370 1.358 . S
C371 H375 0.930 . S
C372 C370 1.356 . S
C372 C373 1.348 . S
C373 C368 1.353 . S
C373 C372 1.348 . S
C373 H425 0.929 . S
H374 C368 0.930 . S
H375 C371 0.930 . S
C376 N377 1.314 . S
C376 C378 1.353 . S
C376 H382 0.930 . S
N377 Li353 1.990 . S
N377 C376 1.314 . S
N377 C380 1.279 . S
C378 C376 1.353 . S
C378 C381 1.348 . S
C378 H426 0.929 . S
C379 C380 1.358 . S
C379 C381 1.356 . S
C379 H427 0.930 . S
C380 N377 1.279 . S
C380 C379 1.358 . S
C380 H383 0.930 . S
C381 C378 1.348 . S
C381 C379 1.356 . S
H382 C376 0.930 . S
H383 C380 0.930 . S
C384 C386 1.348 . S
C384 C387 1.356 . S
C384 O414 1.325 . S
N385 C388 1.314 . S
N385 C389 1.279 . S
C386 C384 1.348 . S
C386 C388 1.353 . S
C386 H428 0.929 . S
C387 C384 1.356 . S
C387 C389 1.358 . S
C387 H429 0.930 . S
C388 N385 1.314 . S
C388 C386 1.353 . S
C388 H430 0.930 . S
C389 N385 1.279 . S
C389 C387 1.358 . S
C389 H431 0.930 . S
C390 C391 1.348 . S
C390 C392 1.356 . S
C390 O415 1.325 . S
C391 C390 1.348 . S
C391 C393 1.353 . S
C391 H432 0.929 . S
C392 C390 1.356 . S
C392 C394 1.358 . S
C392 H433 0.930 . S
C393 C391 1.353 . S
C393 N395 1.314 . S
C393 H434 0.930 . S
C394 C392 1.358 . S
C394 N395 1.279 . S
C394 H435 0.930 . S
N395 C393 1.314 . S
N395 C394 1.279 . S
C396 C398 1.353 . S
C396 N399 1.314 . S
C396 H402 0.930 . S
C397 N399 1.279 . S
C397 C400 1.358 . S
C397 H403 0.930 . S
C398 C396 1.353 . S
C398 C401 1.348 . S
C398 H436 0.929 . S
N399 Li354 1.990 . S
N399 C396 1.314 . S
N399 C397 1.279 . S
C400 C397 1.358 . S
C400 C401 1.356 . S
C400 H437 0.930 . S
C401 C398 1.348 . S
C401 C400 1.356 . S
H402 C396 0.930 . S
H403 C397 0.930 . S
C404 N405 1.314 . S
C404 C406 1.353 . S
C404 H410 0.930 . S
N405 Li355 1.990 . S
N405 C404 1.314 . S
N405 C408 1.279 . S
C406 C404 1.353 . S
C406 C409 1.348 . S
C406 H438 0.929 . S
C407 C408 1.358 . S
C407 C409 1.356 . S
C407 H439 0.930 . S
C408 N405 1.279 . S
C408 C407 1.358 . S
C408 H411 0.930 . S
C409 C406 1.348 . S
C409 C407 1.356 . S
H410 C404 0.930 . S
H411 C408 0.930 . S
O412 Li352 1.956 . S
O412 Li353 1.970 . S
O412 Li354 1.961 . S
O412 C356 1.325 . S
O413 Li352 1.970 . S
O413 Li353 1.956 . S
O413 Li355 1.961 . S
O413 C362 1.325 . S
O414 Li352 1.961 . S
O414 Li354 1.956 . S
O414 Li355 1.970 . S
O414 C384 1.325 . S
O415 Li353 1.961 . S
O415 Li354 1.970 . S
O415 Li355 1.956 . S
O415 C390 1.325 . S
H416 C358 0.929 . S
H417 C359 0.930 . S
H418 C360 0.930 . S
H419 C361 0.930 . S
H420 C363 0.930 . S
H421 C365 0.929 . S
H422 C366 0.930 . S
H423 C367 0.930 . S
H424 C370 0.930 . S
H425 C373 0.929 . S
H426 C378 0.929 . S
H427 C379 0.930 . S
H428 C386 0.929 . S
H429 C387 0.930 . S
H430 C388 0.930 . S
H431 C389 0.930 . S
H432 C391 0.929 . S
H433 C392 0.930 . S
H434 C393 0.930 . S
H435 C394 0.930 . S
H436 C398 0.929 . S
H437 C400 0.930 . S
H438 C406 0.929 . S
H439 C407 0.930 . S
Li440 N457 1.990 . S
Li440 O500 1.956 . S
Li440 O501 1.970 . S
Li440 O502 1.961 . S
Li441 N465 1.990 . S
Li441 O500 1.970 . S
Li441 O501 1.956 . S
Li441 O503 1.961 . S
Li442 N487 1.990 . S
Li442 O500 1.961 . S
Li442 O502 1.956 . S
Li442 O503 1.970 . S
Li443 N493 1.990 . S
Li443 O501 1.961 . S
Li443 O502 1.970 . S
Li443 O503 1.956 . S
C444 C446 1.348 . S
C444 C447 1.356 . S
C444 O500 1.325 . S
N445 C448 1.314 . S
N445 C449 1.279 . S
C446 C444 1.348 . S
C446 C448 1.353 . S
C446 H504 0.929 . S
C447 C444 1.356 . S
C447 C449 1.358 . S
C447 H505 0.930 . S
C448 N445 1.314 . S
C448 C446 1.353 . S
C448 H506 0.930 . S
C449 N445 1.279 . S
C449 C447 1.358 . S
C449 H507 0.930 . S
C450 C453 1.348 . S
C450 C454 1.356 . S
C450 O501 1.325 . S
C451 N452 1.279 . S
C451 C454 1.358 . S
C451 H508 0.930 . S
N452 C451 1.279 . S
N452 C455 1.314 . S
C453 C450 1.348 . S
C453 C455 1.353 . S
C453 H509 0.929 . S
C454 C450 1.356 . S
C454 C451 1.358 . S
C454 H510 0.930 . S
C455 N452 1.314 . S
C455 C453 1.353 . S
C455 H511 0.930 . S
C456 N457 1.314 . S
C456 C461 1.353 . S
C456 H462 0.930 . S
N457 Li440 1.990 . S
N457 C456 1.314 . S
N457 C459 1.279 . S
C458 C459 1.358 . S
C458 C460 1.356 . S
C458 H512 0.930 . S
C459 N457 1.279 . S
C459 C458 1.358 . S
C459 H463 0.930 . S
C460 C458 1.356 . S
C460 C461 1.348 . S
C461 C456 1.353 . S
C461 C460 1.348 . S
C461 H513 0.929 . S
H462 C456 0.930 . S
H463 C459 0.930 . S
C464 N465 1.314 . S
C464 C466 1.353 . S
C464 H470 0.930 . S
N465 Li441 1.990 . S
N465 C464 1.314 . S
N465 C468 1.279 . S
C466 C464 1.353 . S
C466 C469 1.348 . S
C466 H514 0.929 . S
C467 C468 1.358 . S
C467 C469 1.356 . S
C467 H515 0.930 . S
C468 N465 1.279 . S
C468 C467 1.358 . S
C468 H471 0.930 . S
C469 C466 1.348 . S
C469 C467 1.356 . S
H470 C464 0.930 . S
H471 C468 0.930 . S
C472 C474 1.348 . S
C472 C475 1.356 . S
C472 O502 1.325 . S
N473 C476 1.314 . S
N473 C477 1.279 . S
C474 C472 1.348 . S
C474 C476 1.353 . S
C474 H516 0.929 . S
C475 C472 1.356 . S
C475 C477 1.358 . S
C475 H517 0.930 . S
C476 N473 1.314 . S
C476 C474 1.353 . S
C476 H518 0.930 . S
C477 N473 1.279 . S
C477 C475 1.358 . S
C477 H519 0.930 . S
C478 C479 1.348 . S
C478 C480 1.356 . S
C478 O503 1.325 . S
C479 C478 1.348 . S
C479 C481 1.353 . S
C479 H520 0.929 . S
C480 C478 1.356 . S
C480 C482 1.358 . S
C480 H521 0.930 . S
C481 C479 1.353 . S
C481 N483 1.314 . S
C481 H522 0.930 . S
C482 C480 1.358 . S
C482 N483 1.279 . S
C482 H523 0.930 . S
N483 C481 1.314 . S
N483 C482 1.279 . S
C484 C486 1.353 . S
C484 N487 1.314 . S
C484 H490 0.930 . S
C485 N487 1.279 . S
C485 C488 1.358 . S
C485 H491 0.930 . S
C486 C484 1.353 . S
C486 C489 1.348 . S
C486 H524 0.929 . S
N487 Li442 1.990 . S
N487 C484 1.314 . S
N487 C485 1.279 . S
C488 C485 1.358 . S
C488 C489 1.356 . S
C488 H525 0.930 . S
C489 C486 1.348 . S
C489 C488 1.356 . S
H490 C484 0.930 . S
H491 C485 0.930 . S
C492 N493 1.314 . S
C492 C494 1.353 . S
C492 H498 0.930 . S
N493 Li443 1.990 . S
N493 C492 1.314 . S
N493 C496 1.279 . S
C494 C492 1.353 . S
C494 C497 1.348 . S
C494 H526 0.929 . S
C495 C496 1.358 . S
C495 C497 1.356 . S
C495 H527 0.930 . S
C496 N493 1.279 . S
C496 C495 1.358 . S
C496 H499 0.930 . S
C497 C494 1.348 . S
C497 C495 1.356 . S
H498 C492 0.930 . S
H499 C496 0.930 . S
O500 Li440 1.956 . S
O500 Li441 1.970 . S
O500 Li442 1.961 . S
O500 C444 1.325 . S
O501 Li440 1.970 . S
O501 Li441 1.956 . S
O501 Li443 1.961 . S
O501 C450 1.325 . S
O502 Li440 1.961 . S
O502 Li442 1.956 . S
O502 Li443 1.970 . S
O502 C472 1.325 . S
O503 Li441 1.961 . S
O503 Li442 1.970 . S
O503 Li443 1.956 . S
O503 C478 1.325 . S
H504 C446 0.929 . S
H505 C447 0.930 . S
H506 C448 0.930 . S
H507 C449 0.930 . S
H508 C451 0.930 . S
H509 C453 0.929 . S
H510 C454 0.930 . S
H511 C455 0.930 . S
H512 C458 0.930 . S
H513 C461 0.929 . S
H514 C466 0.929 . S
H515 C467 0.930 . S
H516 C474 0.929 . S
H517 C475 0.930 . S
H518 C476 0.930 . S
H519 C477 0.930 . S
H520 C479 0.929 . S
H521 C480 0.930 . S
H522 C481 0.930 . S
H523 C482 0.930 . S
H524 C486 0.929 . S
H525 C488 0.930 . S
H526 C494 0.929 . S
H527 C495 0.930 . S
Li528 N545 1.990 . S
Li528 O588 1.956 . S
Li528 O589 1.970 . S
Li528 O590 1.961 . S
Li529 N553 1.990 . S
Li529 O588 1.970 . S
Li529 O589 1.956 . S
Li529 O591 1.961 . S
Li530 N575 1.990 . S
Li530 O588 1.961 . S
Li530 O590 1.956 . S
Li530 O591 1.970 . S
Li531 N581 1.990 . S
Li531 O589 1.961 . S
Li531 O590 1.970 . S
Li531 O591 1.956 . S
C532 C534 1.348 . S
C532 C535 1.356 . S
C532 O588 1.325 . S
N533 C536 1.314 . S
N533 C537 1.279 . S
C534 C532 1.348 . S
C534 C536 1.353 . S
C534 H592 0.929 . S
C535 C532 1.356 . S
C535 C537 1.358 . S
C535 H593 0.930 . S
C536 N533 1.314 . S
C536 C534 1.353 . S
C536 H594 0.930 . S
C537 N533 1.279 . S
C537 C535 1.358 . S
C537 H595 0.930 . S
C538 C541 1.348 . S
C538 C542 1.356 . S
C538 O589 1.325 . S
C539 N540 1.279 . S
C539 C542 1.358 . S
C539 H596 0.930 . S
N540 C539 1.279 . S
N540 C543 1.314 . S
C541 C538 1.348 . S
C541 C543 1.353 . S
C541 H597 0.929 . S
C542 C538 1.356 . S
C542 C539 1.358 . S
C542 H598 0.930 . S
C543 N540 1.314 . S
C543 C541 1.353 . S
C543 H599 0.930 . S
C544 N545 1.314 . S
C544 C549 1.353 . S
C544 H550 0.930 . S
N545 Li528 1.990 . S
N545 C544 1.314 . S
N545 C547 1.279 . S
C546 C547 1.358 . S
C546 C548 1.356 . S
C546 H600 0.930 . S
C547 N545 1.279 . S
C547 C546 1.358 . S
C547 H551 0.930 . S
C548 C546 1.356 . S
C548 C549 1.348 . S
C549 C544 1.353 . S
C549 C548 1.348 . S
C549 H601 0.929 . S
H550 C544 0.930 . S
H551 C547 0.930 . S
C552 N553 1.314 . S
C552 C554 1.353 . S
C552 H558 0.930 . S
N553 Li529 1.990 . S
N553 C552 1.314 . S
N553 C556 1.279 . S
C554 C552 1.353 . S
C554 C557 1.348 . S
C554 H602 0.929 . S
C555 C556 1.358 . S
C555 C557 1.356 . S
C555 H603 0.930 . S
C556 N553 1.279 . S
C556 C555 1.358 . S
C556 H559 0.930 . S
C557 C554 1.348 . S
C557 C555 1.356 . S
H558 C552 0.930 . S
H559 C556 0.930 . S
C560 C562 1.348 . S
C560 C563 1.356 . S
C560 O590 1.325 . S
N561 C564 1.314 . S
N561 C565 1.279 . S
C562 C560 1.348 . S
C562 C564 1.353 . S
C562 H604 0.929 . S
C563 C560 1.356 . S
C563 C565 1.358 . S
C563 H605 0.930 . S
C564 N561 1.314 . S
C564 C562 1.353 . S
C564 H606 0.930 . S
C565 N561 1.279 . S
C565 C563 1.358 . S
C565 H607 0.930 . S
C566 C567 1.348 . S
C566 C568 1.356 . S
C566 O591 1.325 . S
C567 C566 1.348 . S
C567 C569 1.353 . S
C567 H608 0.929 . S
C568 C566 1.356 . S
C568 C570 1.358 . S
C568 H609 0.930 . S
C569 C567 1.353 . S
C569 N571 1.314 . S
C569 H610 0.930 . S
C570 C568 1.358 . S
C570 N571 1.279 . S
C570 H611 0.930 . S
N571 C569 1.314 . S
N571 C570 1.279 . S
C572 C574 1.353 . S
C572 N575 1.314 . S
C572 H578 0.930 . S
C573 N575 1.279 . S
C573 C576 1.358 . S
C573 H579 0.930 . S
C574 C572 1.353 . S
C574 C577 1.348 . S
C574 H612 0.929 . S
N575 Li530 1.990 . S
N575 C572 1.314 . S
N575 C573 1.279 . S
C576 C573 1.358 . S
C576 C577 1.356 . S
C576 H613 0.930 . S
C577 C574 1.348 . S
C577 C576 1.356 . S
H578 C572 0.930 . S
H579 C573 0.930 . S
C580 N581 1.314 . S
C580 C582 1.353 . S
C580 H586 0.930 . S
N581 Li531 1.990 . S
N581 C580 1.314 . S
N581 C584 1.279 . S
C582 C580 1.353 . S
C582 C585 1.348 . S
C582 H614 0.929 . S
C583 C584 1.358 . S
C583 C585 1.356 . S
C583 H615 0.930 . S
C584 N581 1.279 . S
C584 C583 1.358 . S
C584 H587 0.930 . S
C585 C582 1.348 . S
C585 C583 1.356 . S
H586 C580 0.930 . S
H587 C584 0.930 . S
O588 Li528 1.956 . S
O588 Li529 1.970 . S
O588 Li530 1.961 . S
O588 C532 1.325 . S
O589 Li528 1.970 . S
O589 Li529 1.956 . S
O589 Li531 1.961 . S
O589 C538 1.325 . S
O590 Li528 1.961 . S
O590 Li530 1.956 . S
O590 Li531 1.970 . S
O590 C560 1.325 . S
O591 Li529 1.961 . S
O591 Li530 1.970 . S
O591 Li531 1.956 . S
O591 C566 1.325 . S
H592 C534 0.929 . S
H593 C535 0.930 . S
H594 C536 0.930 . S
H595 C537 0.930 . S
H596 C539 0.930 . S
H597 C541 0.929 . S
H598 C542 0.930 . S
H599 C543 0.930 . S
H600 C546 0.930 . S
H601 C549 0.929 . S
H602 C554 0.929 . S
H603 C555 0.930 . S
H604 C562 0.929 . S
H605 C563 0.930 . S
H606 C564 0.930 . S
H607 C565 0.930 . S
H608 C567 0.929 . S
H609 C568 0.930 . S
H610 C569 0.930 . S
H611 C570 0.930 . S
H612 C574 0.929 . S
H613 C576 0.930 . S
H614 C582 0.929 . S
H615 C583 0.930 . S
Li616 N633 1.990 . S
Li616 O676 1.956 . S
Li616 O677 1.970 . S
Li616 O678 1.961 . S
Li617 N641 1.990 . S
Li617 O676 1.970 . S
Li617 O677 1.956 . S
Li617 O679 1.961 . S
Li618 N663 1.990 . S
Li618 O676 1.961 . S
Li618 O678 1.956 . S
Li618 O679 1.970 . S
Li619 N669 1.990 . S
Li619 O677 1.961 . S
Li619 O678 1.970 . S
Li619 O679 1.956 . S
C620 C622 1.348 . S
C620 C623 1.356 . S
C620 O676 1.325 . S
N621 C624 1.314 . S
N621 C625 1.279 . S
C622 C620 1.348 . S
C622 C624 1.353 . S
C622 H680 0.929 . S
C623 C620 1.356 . S
C623 C625 1.358 . S
C623 H681 0.930 . S
C624 N621 1.314 . S
C624 C622 1.353 . S
C624 H682 0.930 . S
C625 N621 1.279 . S
C625 C623 1.358 . S
C625 H683 0.930 . S
C626 C629 1.348 . S
C626 C630 1.356 . S
C626 O677 1.325 . S
C627 N628 1.279 . S
C627 C630 1.358 . S
C627 H684 0.930 . S
N628 C627 1.279 . S
N628 C631 1.314 . S
C629 C626 1.348 . S
C629 C631 1.353 . S
C629 H685 0.929 . S
C630 C626 1.356 . S
C630 C627 1.358 . S
C630 H686 0.930 . S
C631 N628 1.314 . S
C631 C629 1.353 . S
C631 H687 0.930 . S
C632 N633 1.314 . S
C632 C637 1.353 . S
C632 H638 0.930 . S
N633 Li616 1.990 . S
N633 C632 1.314 . S
N633 C635 1.279 . S
C634 C635 1.358 . S
C634 C636 1.356 . S
C634 H688 0.930 . S
C635 N633 1.279 . S
C635 C634 1.358 . S
C635 H639 0.930 . S
C636 C634 1.356 . S
C636 C637 1.348 . S
C637 C632 1.353 . S
C637 C636 1.348 . S
C637 H689 0.929 . S
H638 C632 0.930 . S
H639 C635 0.930 . S
C640 N641 1.314 . S
C640 C642 1.353 . S
C640 H646 0.930 . S
N641 Li617 1.990 . S
N641 C640 1.314 . S
N641 C644 1.279 . S
C642 C640 1.353 . S
C642 C645 1.348 . S
C642 H690 0.929 . S
C643 C644 1.358 . S
C643 C645 1.356 . S
C643 H691 0.930 . S
C644 N641 1.279 . S
C644 C643 1.358 . S
C644 H647 0.930 . S
C645 C642 1.348 . S
C645 C643 1.356 . S
H646 C640 0.930 . S
H647 C644 0.930 . S
C648 C650 1.348 . S
C648 C651 1.356 . S
C648 O678 1.325 . S
N649 C652 1.314 . S
N649 C653 1.279 . S
C650 C648 1.348 . S
C650 C652 1.353 . S
C650 H692 0.929 . S
C651 C648 1.356 . S
C651 C653 1.358 . S
C651 H693 0.930 . S
C652 N649 1.314 . S
C652 C650 1.353 . S
C652 H694 0.930 . S
C653 N649 1.279 . S
C653 C651 1.358 . S
C653 H695 0.930 . S
C654 C655 1.348 . S
C654 C656 1.356 . S
C654 O679 1.325 . S
C655 C654 1.348 . S
C655 C657 1.353 . S
C655 H696 0.929 . S
C656 C654 1.356 . S
C656 C658 1.358 . S
C656 H697 0.930 . S
C657 C655 1.353 . S
C657 N659 1.314 . S
C657 H698 0.930 . S
C658 C656 1.358 . S
C658 N659 1.279 . S
C658 H699 0.930 . S
N659 C657 1.314 . S
N659 C658 1.279 . S
C660 C662 1.353 . S
C660 N663 1.314 . S
C660 H666 0.930 . S
C661 N663 1.279 . S
C661 C664 1.358 . S
C661 H667 0.930 . S
C662 C660 1.353 . S
C662 C665 1.348 . S
C662 H700 0.929 . S
N663 Li618 1.990 . S
N663 C660 1.314 . S
N663 C661 1.279 . S
C664 C661 1.358 . S
C664 C665 1.356 . S
C664 H701 0.930 . S
C665 C662 1.348 . S
C665 C664 1.356 . S
H666 C660 0.930 . S
H667 C661 0.930 . S
C668 N669 1.314 . S
C668 C670 1.353 . S
C668 H674 0.930 . S
N669 Li619 1.990 . S
N669 C668 1.314 . S
N669 C672 1.279 . S
C670 C668 1.353 . S
C670 C673 1.348 . S
C670 H702 0.929 . S
C671 C672 1.358 . S
C671 C673 1.356 . S
C671 H703 0.930 . S
C672 N669 1.279 . S
C672 C671 1.358 . S
C672 H675 0.930 . S
C673 C670 1.348 . S
C673 C671 1.356 . S
H674 C668 0.930 . S
H675 C672 0.930 . S
O676 Li616 1.956 . S
O676 Li617 1.970 . S
O676 Li618 1.961 . S
O676 C620 1.325 . S
O677 Li616 1.970 . S
O677 Li617 1.956 . S
O677 Li619 1.961 . S
O677 C626 1.325 . S
O678 Li616 1.961 . S
O678 Li618 1.956 . S
O678 Li619 1.970 . S
O678 C648 1.325 . S
O679 Li617 1.961 . S
O679 Li618 1.970 . S
O679 Li619 1.956 . S
O679 C654 1.325 . S
H680 C622 0.929 . S
H681 C623 0.930 . S
H682 C624 0.930 . S
H683 C625 0.930 . S
H684 C627 0.930 . S
H685 C629 0.929 . S
H686 C630 0.930 . S
H687 C631 0.930 . S
H688 C634 0.930 . S
H689 C637 0.929 . S
H690 C642 0.929 . S
H691 C643 0.930 . S
H692 C650 0.929 . S
H693 C651 0.930 . S
H694 C652 0.930 . S
H695 C653 0.930 . S
H696 C655 0.929 . S
H697 C656 0.930 . S
H698 C657 0.930 . S
H699 C658 0.930 . S
H700 C662 0.929 . S
H701 C664 0.930 . S
H702 C670 0.929 . S
H703 C671 0.930 . S
Li704 N721 1.990 . S
Li704 O764 1.956 . S
Li704 O765 1.970 . S
Li704 O766 1.961 . S
Li705 N729 1.990 . S
Li705 O764 1.970 . S
Li705 O765 1.956 . S
Li705 O767 1.961 . S
Li706 N751 1.990 . S
Li706 O764 1.961 . S
Li706 O766 1.956 . S
Li706 O767 1.970 . S
Li707 N757 1.990 . S
Li707 O765 1.961 . S
Li707 O766 1.970 . S
Li707 O767 1.956 . S
C708 C710 1.348 . S
C708 C711 1.356 . S
C708 O764 1.325 . S
N709 C712 1.314 . S
N709 C713 1.279 . S
C710 C708 1.348 . S
C710 C712 1.353 . S
C710 H768 0.929 . S
C711 C708 1.356 . S
C711 C713 1.358 . S
C711 H769 0.930 . S
C712 N709 1.314 . S
C712 C710 1.353 . S
C712 H770 0.930 . S
C713 N709 1.279 . S
C713 C711 1.358 . S
C713 H771 0.930 . S
C714 C717 1.348 . S
C714 C718 1.356 . S
C714 O765 1.325 . S
C715 N716 1.279 . S
C715 C718 1.358 . S
C715 H772 0.930 . S
N716 C715 1.279 . S
N716 C719 1.314 . S
C717 C714 1.348 . S
C717 C719 1.353 . S
C717 H773 0.929 . S
C718 C714 1.356 . S
C718 C715 1.358 . S
C718 H774 0.930 . S
C719 N716 1.314 . S
C719 C717 1.353 . S
C719 H775 0.930 . S
C720 N721 1.314 . S
C720 C725 1.353 . S
C720 H726 0.930 . S
N721 Li704 1.990 . S
N721 C720 1.314 . S
N721 C723 1.279 . S
C722 C723 1.358 . S
C722 C724 1.356 . S
C722 H776 0.930 . S
C723 N721 1.279 . S
C723 C722 1.358 . S
C723 H727 0.930 . S
C724 C722 1.356 . S
C724 C725 1.348 . S
C725 C720 1.353 . S
C725 C724 1.348 . S
C725 H777 0.929 . S
H726 C720 0.930 . S
H727 C723 0.930 . S
C728 N729 1.314 . S
C728 C730 1.353 . S
C728 H734 0.930 . S
N729 Li705 1.990 . S
N729 C728 1.314 . S
N729 C732 1.279 . S
C730 C728 1.353 . S
C730 C733 1.348 . S
C730 H778 0.929 . S
C731 C732 1.358 . S
C731 C733 1.356 . S
C731 H779 0.930 . S
C732 N729 1.279 . S
C732 C731 1.358 . S
C732 H735 0.930 . S
C733 C730 1.348 . S
C733 C731 1.356 . S
H734 C728 0.930 . S
H735 C732 0.930 . S
C736 C738 1.348 . S
C736 C739 1.356 . S
C736 O766 1.325 . S
N737 C740 1.314 . S
N737 C741 1.279 . S
C738 C736 1.348 . S
C738 C740 1.353 . S
C738 H780 0.929 . S
C739 C736 1.356 . S
C739 C741 1.358 . S
C739 H781 0.930 . S
C740 N737 1.314 . S
C740 C738 1.353 . S
C740 H782 0.930 . S
C741 N737 1.279 . S
C741 C739 1.358 . S
C741 H783 0.930 . S
C742 C743 1.348 . S
C742 C744 1.356 . S
C742 O767 1.325 . S
C743 C742 1.348 . S
C743 C745 1.353 . S
C743 H784 0.929 . S
C744 C742 1.356 . S
C744 C746 1.358 . S
C744 H785 0.930 . S
C745 C743 1.353 . S
C745 N747 1.314 . S
C745 H786 0.930 . S
C746 C744 1.358 . S
C746 N747 1.279 . S
C746 H787 0.930 . S
N747 C745 1.314 . S
N747 C746 1.279 . S
C748 C750 1.353 . S
C748 N751 1.314 . S
C748 H754 0.930 . S
C749 N751 1.279 . S
C749 C752 1.358 . S
C749 H755 0.930 . S
C750 C748 1.353 . S
C750 C753 1.348 . S
C750 H788 0.929 . S
N751 Li706 1.990 . S
N751 C748 1.314 . S
N751 C749 1.279 . S
C752 C749 1.358 . S
C752 C753 1.356 . S
C752 H789 0.930 . S
C753 C750 1.348 . S
C753 C752 1.356 . S
H754 C748 0.930 . S
H755 C749 0.930 . S
C756 N757 1.314 . S
C756 C758 1.353 . S
C756 H762 0.930 . S
N757 Li707 1.990 . S
N757 C756 1.314 . S
N757 C760 1.279 . S
C758 C756 1.353 . S
C758 C761 1.348 . S
C758 H790 0.929 . S
C759 C760 1.358 . S
C759 C761 1.356 . S
C759 H791 0.930 . S
C760 N757 1.279 . S
C760 C759 1.358 . S
C760 H763 0.930 . S
C761 C758 1.348 . S
C761 C759 1.356 . S
H762 C756 0.930 . S
H763 C760 0.930 . S
O764 Li704 1.956 . S
O764 Li705 1.970 . S
O764 Li706 1.961 . S
O764 C708 1.325 . S
O765 Li704 1.970 . S
O765 Li705 1.956 . S
O765 Li707 1.961 . S
O765 C714 1.325 . S
O766 Li704 1.961 . S
O766 Li706 1.956 . S
O766 Li707 1.970 . S
O766 C736 1.325 . S
O767 Li705 1.961 . S
O767 Li706 1.970 . S
O767 Li707 1.956 . S
O767 C742 1.325 . S
H768 C710 0.929 . S
H769 C711 0.930 . S
H770 C712 0.930 . S
H771 C713 0.930 . S
H772 C715 0.930 . S
H773 C717 0.929 . S
H774 C718 0.930 . S
H775 C719 0.930 . S
H776 C722 0.930 . S
H777 C725 0.929 . S
H778 C730 0.929 . S
H779 C731 0.930 . S
H780 C738 0.929 . S
H781 C739 0.930 . S
H782 C740 0.930 . S
H783 C741 0.930 . S
H784 C743 0.929 . S
H785 C744 0.930 . S
H786 C745 0.930 . S
H787 C746 0.930 . S
H788 C750 0.929 . S
H789 C752 0.930 . S
H790 C758 0.929 . S
H791 C759 0.930 . S
Li792 N809 1.990 . S
Li792 O852 1.956 . S
Li792 O853 1.970 . S
Li792 O854 1.961 . S
Li793 N817 1.990 . S
Li793 O852 1.970 . S
Li793 O853 1.956 . S
Li793 O855 1.961 . S
Li794 N839 1.990 . S
Li794 O852 1.961 . S
Li794 O854 1.956 . S
Li794 O855 1.970 . S
Li795 N845 1.990 . S
Li795 O853 1.961 . S
Li795 O854 1.970 . S
Li795 O855 1.956 . S
C796 C798 1.348 . S
C796 C799 1.356 . S
C796 O852 1.325 . S
N797 C800 1.314 . S
N797 C801 1.279 . S
C798 C796 1.348 . S
C798 C800 1.353 . S
C798 H856 0.929 . S
C799 C796 1.356 . S
C799 C801 1.358 . S
C799 H857 0.930 . S
C800 N797 1.314 . S
C800 C798 1.353 . S
C800 H858 0.930 . S
C801 N797 1.279 . S
C801 C799 1.358 . S
C801 H859 0.930 . S
C802 C805 1.348 . S
C802 C806 1.356 . S
C802 O853 1.325 . S
C803 N804 1.279 . S
C803 C806 1.358 . S
C803 H860 0.930 . S
N804 C803 1.279 . S
N804 C807 1.314 . S
C805 C802 1.348 . S
C805 C807 1.353 . S
C805 H861 0.929 . S
C806 C802 1.356 . S
C806 C803 1.358 . S
C806 H862 0.930 . S
C807 N804 1.314 . S
C807 C805 1.353 . S
C807 H863 0.930 . S
C808 N809 1.314 . S
C808 C813 1.353 . S
C808 H814 0.930 . S
N809 Li792 1.990 . S
N809 C808 1.314 . S
N809 C811 1.279 . S
C810 C811 1.358 . S
C810 C812 1.356 . S
C810 H864 0.930 . S
C811 N809 1.279 . S
C811 C810 1.358 . S
C811 H815 0.930 . S
C812 C810 1.356 . S
C812 C813 1.348 . S
C813 C808 1.353 . S
C813 C812 1.348 . S
C813 H865 0.929 . S
H814 C808 0.930 . S
H815 C811 0.930 . S
C816 N817 1.314 . S
C816 C818 1.353 . S
C816 H822 0.930 . S
N817 Li793 1.990 . S
N817 C816 1.314 . S
N817 C820 1.279 . S
C818 C816 1.353 . S
C818 C821 1.348 . S
C818 H866 0.929 . S
C819 C820 1.358 . S
C819 C821 1.356 . S
C819 H867 0.930 . S
C820 N817 1.279 . S
C820 C819 1.358 . S
C820 H823 0.930 . S
C821 C818 1.348 . S
C821 C819 1.356 . S
H822 C816 0.930 . S
H823 C820 0.930 . S
C824 C826 1.348 . S
C824 C827 1.356 . S
C824 O854 1.325 . S
N825 C828 1.314 . S
N825 C829 1.279 . S
C826 C824 1.348 . S
C826 C828 1.353 . S
C826 H868 0.929 . S
C827 C824 1.356 . S
C827 C829 1.358 . S
C827 H869 0.930 . S
C828 N825 1.314 . S
C828 C826 1.353 . S
C828 H870 0.930 . S
C829 N825 1.279 . S
C829 C827 1.358 . S
C829 H871 0.930 . S
C830 C831 1.348 . S
C830 C832 1.356 . S
C830 O855 1.325 . S
C831 C830 1.348 . S
C831 C833 1.353 . S
C831 H872 0.929 . S
C832 C830 1.356 . S
C832 C834 1.358 . S
C832 H873 0.930 . S
C833 C831 1.353 . S
C833 N835 1.314 . S
C833 H874 0.930 . S
C834 C832 1.358 . S
C834 N835 1.279 . S
C834 H875 0.930 . S
N835 C833 1.314 . S
N835 C834 1.279 . S
C836 C838 1.353 . S
C836 N839 1.314 . S
C836 H842 0.930 . S
C837 N839 1.279 . S
C837 C840 1.358 . S
C837 H843 0.930 . S
C838 C836 1.353 . S
C838 C841 1.348 . S
C838 H876 0.929 . S
N839 Li794 1.990 . S
N839 C836 1.314 . S
N839 C837 1.279 . S
C840 C837 1.358 . S
C840 C841 1.356 . S
C840 H877 0.930 . S
C841 C838 1.348 . S
C841 C840 1.356 . S
H842 C836 0.930 . S
H843 C837 0.930 . S
C844 N845 1.314 . S
C844 C846 1.353 . S
C844 H850 0.930 . S
N845 Li795 1.990 . S
N845 C844 1.314 . S
N845 C848 1.279 . S
C846 C844 1.353 . S
C846 C849 1.348 . S
C846 H878 0.929 . S
C847 C848 1.358 . S
C847 C849 1.356 . S
C847 H879 0.930 . S
C848 N845 1.279 . S
C848 C847 1.358 . S
C848 H851 0.930 . S
C849 C846 1.348 . S
C849 C847 1.356 . S
H850 C844 0.930 . S
H851 C848 0.930 . S
O852 Li792 1.956 . S
O852 Li793 1.970 . S
O852 Li794 1.961 . S
O852 C796 1.325 . S
O853 Li792 1.970 . S
O853 Li793 1.956 . S
O853 Li795 1.961 . S
O853 C802 1.325 . S
O854 Li792 1.961 . S
O854 Li794 1.956 . S
O854 Li795 1.970 . S
O854 C824 1.325 . S
O855 Li793 1.961 . S
O855 Li794 1.970 . S
O855 Li795 1.956 . S
O855 C830 1.325 . S
H856 C798 0.929 . S
H857 C799 0.930 . S
H858 C800 0.930 . S
H859 C801 0.930 . S
H860 C803 0.930 . S
H861 C805 0.929 . S
H862 C806 0.930 . S
H863 C807 0.930 . S
H864 C810 0.930 . S
H865 C813 0.929 . S
H866 C818 0.929 . S
H867 C819 0.930 . S
H868 C826 0.929 . S
H869 C827 0.930 . S
H870 C828 0.930 . S
H871 C829 0.930 . S
H872 C831 0.929 . S
H873 C832 0.930 . S
H874 C833 0.930 . S
H875 C834 0.930 . S
H876 C838 0.929 . S
H877 C840 0.930 . S
H878 C846 0.929 . S
H879 C847 0.930 . S
Li880 N897 1.990 . S
Li880 O940 1.956 . S
Li880 O941 1.970 . S
Li880 O942 1.961 . S
Li881 N905 1.990 . S
Li881 O940 1.970 . S
Li881 O941 1.956 . S
Li881 O943 1.961 . S
Li882 N927 1.990 . S
Li882 O940 1.961 . S
Li882 O942 1.956 . S
Li882 O943 1.970 . S
Li883 N933 1.990 . S
Li883 O941 1.961 . S
Li883 O942 1.970 . S
Li883 O943 1.956 . S
C884 C886 1.348 . S
C884 C887 1.356 . S
C884 O940 1.325 . S
N885 C888 1.314 . S
N885 C889 1.279 . S
C886 C884 1.348 . S
C886 C888 1.353 . S
C886 H944 0.929 . S
C887 C884 1.356 . S
C887 C889 1.358 . S
C887 H945 0.930 . S
C888 N885 1.314 . S
C888 C886 1.353 . S
C888 H946 0.930 . S
C889 N885 1.279 . S
C889 C887 1.358 . S
C889 H947 0.930 . S
C890 C893 1.348 . S
C890 C894 1.356 . S
C890 O941 1.325 . S
C891 N892 1.279 . S
C891 C894 1.358 . S
C891 H948 0.930 . S
N892 C891 1.279 . S
N892 C895 1.314 . S
C893 C890 1.348 . S
C893 C895 1.353 . S
C893 H949 0.929 . S
C894 C890 1.356 . S
C894 C891 1.358 . S
C894 H950 0.930 . S
C895 N892 1.314 . S
C895 C893 1.353 . S
C895 H951 0.930 . S
C896 N897 1.314 . S
C896 C901 1.353 . S
C896 H902 0.930 . S
N897 Li880 1.990 . S
N897 C896 1.314 . S
N897 C899 1.279 . S
C898 C899 1.358 . S
C898 C900 1.356 . S
C898 H952 0.930 . S
C899 N897 1.279 . S
C899 C898 1.358 . S
C899 H903 0.930 . S
C900 C898 1.356 . S
C900 C901 1.348 . S
C901 C896 1.353 . S
C901 C900 1.348 . S
C901 H953 0.929 . S
H902 C896 0.930 . S
H903 C899 0.930 . S
C904 N905 1.314 . S
C904 C906 1.353 . S
C904 H910 0.930 . S
N905 Li881 1.990 . S
N905 C904 1.314 . S
N905 C908 1.279 . S
C906 C904 1.353 . S
C906 C909 1.348 . S
C906 H954 0.929 . S
C907 C908 1.358 . S
C907 C909 1.356 . S
C907 H955 0.930 . S
C908 N905 1.279 . S
C908 C907 1.358 . S
C908 H911 0.930 . S
C909 C906 1.348 . S
C909 C907 1.356 . S
H910 C904 0.930 . S
H911 C908 0.930 . S
C912 C914 1.348 . S
C912 C915 1.356 . S
C912 O942 1.325 . S
N913 C916 1.314 . S
N913 C917 1.279 . S
C914 C912 1.348 . S
C914 C916 1.353 . S
C914 H956 0.929 . S
C915 C912 1.356 . S
C915 C917 1.358 . S
C915 H957 0.930 . S
C916 N913 1.314 . S
C916 C914 1.353 . S
C916 H958 0.930 . S
C917 N913 1.279 . S
C917 C915 1.358 . S
C917 H959 0.930 . S
C918 C919 1.348 . S
C918 C920 1.356 . S
C918 O943 1.325 . S
C919 C918 1.348 . S
C919 C921 1.353 . S
C919 H960 0.929 . S
C920 C918 1.356 . S
C920 C922 1.358 . S
C920 H961 0.930 . S
C921 C919 1.353 . S
C921 N923 1.314 . S
C921 H962 0.930 . S
C922 C920 1.358 . S
C922 N923 1.279 . S
C922 H963 0.930 . S
N923 C921 1.314 . S
N923 C922 1.279 . S
C924 C926 1.353 . S
C924 N927 1.314 . S
C924 H930 0.930 . S
C925 N927 1.279 . S
C925 C928 1.358 . S
C925 H931 0.930 . S
C926 C924 1.353 . S
C926 C929 1.348 . S
C926 H964 0.929 . S
N927 Li882 1.990 . S
N927 C924 1.314 . S
N927 C925 1.279 . S
C928 C925 1.358 . S
C928 C929 1.356 . S
C928 H965 0.930 . S
C929 C926 1.348 . S
C929 C928 1.356 . S
H930 C924 0.930 . S
H931 C925 0.930 . S
C932 N933 1.314 . S
C932 C934 1.353 . S
C932 H938 0.930 . S
N933 Li883 1.990 . S
N933 C932 1.314 . S
N933 C936 1.279 . S
C934 C932 1.353 . S
C934 C937 1.348 . S
C934 H966 0.929 . S
C935 C936 1.358 . S
C935 C937 1.356 . S
C935 H967 0.930 . S
C936 N933 1.279 . S
C936 C935 1.358 . S
C936 H939 0.930 . S
C937 C934 1.348 . S
C937 C935 1.356 . S
H938 C932 0.930 . S
H939 C936 0.930 . S
O940 Li880 1.956 . S
O940 Li881 1.970 . S
O940 Li882 1.961 . S
O940 C884 1.325 . S
O941 Li880 1.970 . S
O941 Li881 1.956 . S
O941 Li883 1.961 . S
O941 C890 1.325 . S
O942 Li880 1.961 . S
O942 Li882 1.956 . S
O942 Li883 1.970 . S
O942 C912 1.325 . S
O943 Li881 1.961 . S
O943 Li882 1.970 . S
O943 Li883 1.956 . S
O943 C918 1.325 . S
H944 C886 0.929 . S
H945 C887 0.930 . S
H946 C888 0.930 . S
H947 C889 0.930 . S
H948 C891 0.930 . S
H949 C893 0.929 . S
H950 C894 0.930 . S
H951 C895 0.930 . S
H952 C898 0.930 . S
H953 C901 0.929 . S
H954 C906 0.929 . S
H955 C907 0.930 . S
H956 C914 0.929 . S
H957 C915 0.930 . S
H958 C916 0.930 . S
H959 C917 0.930 . S
H960 C919 0.929 . S
H961 C920 0.930 . S
H962 C921 0.930 . S
H963 C922 0.930 . S
H964 C926 0.929 . S
H965 C928 0.930 . S
H966 C934 0.929 . S
H967 C935 0.930 . S
Li968 N985 1.990 . S
Li968 O1028 1.956 . S
Li968 O1029 1.970 . S
Li968 O1030 1.961 . S
Li969 N993 1.990 . S
Li969 O1028 1.970 . S
Li969 O1029 1.956 . S
Li969 O1031 1.961 . S
Li970 N1015 1.990 . S
Li970 O1028 1.961 . S
Li970 O1030 1.956 . S
Li970 O1031 1.970 . S
Li971 N1021 1.990 . S
Li971 O1029 1.961 . S
Li971 O1030 1.970 . S
Li971 O1031 1.956 . S
C972 C974 1.348 . S
C972 C975 1.356 . S
C972 O1028 1.325 . S
N973 C976 1.314 . S
N973 C977 1.279 . S
C974 C972 1.348 . S
C974 C976 1.353 . S
C974 H1032 0.929 . S
C975 C972 1.356 . S
C975 C977 1.358 . S
C975 H1033 0.930 . S
C976 N973 1.314 . S
C976 C974 1.353 . S
C976 H1034 0.930 . S
C977 N973 1.279 . S
C977 C975 1.358 . S
C977 H1035 0.930 . S
C978 C981 1.348 . S
C978 C982 1.356 . S
C978 O1029 1.325 . S
C979 N980 1.279 . S
C979 C982 1.358 . S
C979 H1036 0.930 . S
N980 C979 1.279 . S
N980 C983 1.314 . S
C981 C978 1.348 . S
C981 C983 1.353 . S
C981 H1037 0.929 . S
C982 C978 1.356 . S
C982 C979 1.358 . S
C982 H1038 0.930 . S
C983 N980 1.314 . S
C983 C981 1.353 . S
C983 H1039 0.930 . S
C984 N985 1.314 . S
C984 C989 1.353 . S
C984 H990 0.930 . S
N985 Li968 1.990 . S
N985 C984 1.314 . S
N985 C987 1.279 . S
C986 C987 1.358 . S
C986 C988 1.356 . S
C986 H1040 0.930 . S
C987 N985 1.279 . S
C987 C986 1.358 . S
C987 H991 0.930 . S
C988 C986 1.356 . S
C988 C989 1.348 . S
C989 C984 1.353 . S
C989 C988 1.348 . S
C989 H1041 0.929 . S
H990 C984 0.930 . S
H991 C987 0.930 . S
C992 N993 1.314 . S
C992 C994 1.353 . S
C992 H998 0.930 . S
N993 Li969 1.990 . S
N993 C992 1.314 . S
N993 C996 1.279 . S
C994 C992 1.353 . S
C994 C997 1.348 . S
C994 H1042 0.929 . S
C995 C996 1.358 . S
C995 C997 1.356 . S
C995 H1043 0.930 . S
C996 N993 1.279 . S
C996 C995 1.358 . S
C996 H999 0.930 . S
C997 C994 1.348 . S
C997 C995 1.356 . S
H998 C992 0.930 . S
H999 C996 0.930 . S
C1000 C1002 1.348 . S
C1000 C1003 1.356 . S
C1000 O1030 1.325 . S
N1001 C1004 1.314 . S
N1001 C1005 1.279 . S
C1002 C1000 1.348 . S
C1002 C1004 1.353 . S
C1002 H1044 0.929 . S
C1003 C1000 1.356 . S
C1003 C1005 1.358 . S
C1003 H1045 0.930 . S
C1004 N1001 1.314 . S
C1004 C1002 1.353 . S
C1004 H1046 0.930 . S
C1005 N1001 1.279 . S
C1005 C1003 1.358 . S
C1005 H1047 0.930 . S
C1006 C1007 1.348 . S
C1006 C1008 1.356 . S
C1006 O1031 1.325 . S
C1007 C1006 1.348 . S
C1007 C1009 1.353 . S
C1007 H1048 0.929 . S
C1008 C1006 1.356 . S
C1008 C1010 1.358 . S
C1008 H1049 0.930 . S
C1009 C1007 1.353 . S
C1009 N1011 1.314 . S
C1009 H1050 0.930 . S
C1010 C1008 1.358 . S
C1010 N1011 1.279 . S
C1010 H1051 0.930 . S
N1011 C1009 1.314 . S
N1011 C1010 1.279 . S
C1012 C1014 1.353 . S
C1012 N1015 1.314 . S
C1012 H1018 0.930 . S
C1013 N1015 1.279 . S
C1013 C1016 1.358 . S
C1013 H1019 0.930 . S
C1014 C1012 1.353 . S
C1014 C1017 1.348 . S
C1014 H1052 0.929 . S
N1015 Li970 1.990 . S
N1015 C1012 1.314 . S
N1015 C1013 1.279 . S
C1016 C1013 1.358 . S
C1016 C1017 1.356 . S
C1016 H1053 0.930 . S
C1017 C1014 1.348 . S
C1017 C1016 1.356 . S
H1018 C1012 0.930 . S
H1019 C1013 0.930 . S
C1020 N1021 1.314 . S
C1020 C1022 1.353 . S
C1020 H1026 0.930 . S
N1021 Li971 1.990 . S
N1021 C1020 1.314 . S
N1021 C1024 1.279 . S
C1022 C1020 1.353 . S
C1022 C1025 1.348 . S
C1022 H1054 0.929 . S
C1023 C1024 1.358 . S
C1023 C1025 1.356 . S
C1023 H1055 0.930 . S
C1024 N1021 1.279 . S
C1024 C1023 1.358 . S
C1024 H1027 0.930 . S
C1025 C1022 1.348 . S
C1025 C1023 1.356 . S
H1026 C1020 0.930 . S
H1027 C1024 0.930 . S
O1028 Li968 1.956 . S
O1028 Li969 1.970 . S
O1028 Li970 1.961 . S
O1028 C972 1.325 . S
O1029 Li968 1.970 . S
O1029 Li969 1.956 . S
O1029 Li971 1.961 . S
O1029 C978 1.325 . S
O1030 Li968 1.961 . S
O1030 Li970 1.956 . S
O1030 Li971 1.970 . S
O1030 C1000 1.325 . S
O1031 Li969 1.961 . S
O1031 Li970 1.970 . S
O1031 Li971 1.956 . S
O1031 C1006 1.325 . S
H1032 C974 0.929 . S
H1033 C975 0.930 . S
H1034 C976 0.930 . S
H1035 C977 0.930 . S
H1036 C979 0.930 . S
H1037 C981 0.929 . S
H1038 C982 0.930 . S
H1039 C983 0.930 . S
H1040 C986 0.930 . S
H1041 C989 0.929 . S
H1042 C994 0.929 . S
H1043 C995 0.930 . S
H1044 C1002 0.929 . S
H1045 C1003 0.930 . S
H1046 C1004 0.930 . S
H1047 C1005 0.930 . S
H1048 C1007 0.929 . S
H1049 C1008 0.930 . S
H1050 C1009 0.930 . S
H1051 C1010 0.930 . S
H1052 C1014 0.929 . S
H1053 C1016 0.930 . S
H1054 C1022 0.929 . S
H1055 C1023 0.930 . S
Li1056 N1073 1.990 . S
Li1056 O1116 1.956 . S
Li1056 O1117 1.970 . S
Li1056 O1118 1.961 . S
Li1057 N1081 1.990 . S
Li1057 O1116 1.970 . S
Li1057 O1117 1.956 . S
Li1057 O1119 1.961 . S
Li1058 N1103 1.990 . S
Li1058 O1116 1.961 . S
Li1058 O1118 1.956 . S
Li1058 O1119 1.970 . S
Li1059 N1109 1.990 . S
Li1059 O1117 1.961 . S
Li1059 O1118 1.970 . S
Li1059 O1119 1.956 . S
C1060 C1062 1.348 . S
C1060 C1063 1.356 . S
C1060 O1116 1.325 . S
N1061 C1064 1.314 . S
N1061 C1065 1.279 . S
C1062 C1060 1.348 . S
C1062 C1064 1.353 . S
C1062 H1120 0.929 . S
C1063 C1060 1.356 . S
C1063 C1065 1.358 . S
C1063 H1121 0.930 . S
C1064 N1061 1.314 . S
C1064 C1062 1.353 . S
C1064 H1122 0.930 . S
C1065 N1061 1.279 . S
C1065 C1063 1.358 . S
C1065 H1123 0.930 . S
C1066 C1069 1.348 . S
C1066 C1070 1.356 . S
C1066 O1117 1.325 . S
C1067 N1068 1.279 . S
C1067 C1070 1.358 . S
C1067 H1124 0.930 . S
N1068 C1067 1.279 . S
N1068 C1071 1.314 . S
C1069 C1066 1.348 . S
C1069 C1071 1.353 . S
C1069 H1125 0.929 . S
C1070 C1066 1.356 . S
C1070 C1067 1.358 . S
C1070 H1126 0.930 . S
C1071 N1068 1.314 . S
C1071 C1069 1.353 . S
C1071 H1127 0.930 . S
C1072 N1073 1.314 . S
C1072 C1077 1.353 . S
C1072 H1078 0.930 . S
N1073 Li1056 1.990 . S
N1073 C1072 1.314 . S
N1073 C1075 1.279 . S
C1074 C1075 1.358 . S
C1074 C1076 1.356 . S
C1074 H1128 0.930 . S
C1075 N1073 1.279 . S
C1075 C1074 1.358 . S
C1075 H1079 0.930 . S
C1076 C1074 1.356 . S
C1076 C1077 1.348 . S
C1077 C1072 1.353 . S
C1077 C1076 1.348 . S
C1077 H1129 0.929 . S
H1078 C1072 0.930 . S
H1079 C1075 0.930 . S
C1080 N1081 1.314 . S
C1080 C1082 1.353 . S
C1080 H1086 0.930 . S
N1081 Li1057 1.990 . S
N1081 C1080 1.314 . S
N1081 C1084 1.279 . S
C1082 C1080 1.353 . S
C1082 C1085 1.348 . S
C1082 H1130 0.929 . S
C1083 C1084 1.358 . S
C1083 C1085 1.356 . S
C1083 H1131 0.930 . S
C1084 N1081 1.279 . S
C1084 C1083 1.358 . S
C1084 H1087 0.930 . S
C1085 C1082 1.348 . S
C1085 C1083 1.356 . S
H1086 C1080 0.930 . S
H1087 C1084 0.930 . S
C1088 C1090 1.348 . S
C1088 C1091 1.356 . S
C1088 O1118 1.325 . S
N1089 C1092 1.314 . S
N1089 C1093 1.279 . S
C1090 C1088 1.348 . S
C1090 C1092 1.353 . S
C1090 H1132 0.929 . S
C1091 C1088 1.356 . S
C1091 C1093 1.358 . S
C1091 H1133 0.930 . S
C1092 N1089 1.314 . S
C1092 C1090 1.353 . S
C1092 H1134 0.930 . S
C1093 N1089 1.279 . S
C1093 C1091 1.358 . S
C1093 H1135 0.930 . S
C1094 C1095 1.348 . S
C1094 C1096 1.356 . S
C1094 O1119 1.325 . S
C1095 C1094 1.348 . S
C1095 C1097 1.353 . S
C1095 H1136 0.929 . S
C1096 C1094 1.356 . S
C1096 C1098 1.358 . S
C1096 H1137 0.930 . S
C1097 C1095 1.353 . S
C1097 N1099 1.314 . S
C1097 H1138 0.930 . S
C1098 C1096 1.358 . S
C1098 N1099 1.279 . S
C1098 H1139 0.930 . S
N1099 C1097 1.314 . S
N1099 C1098 1.279 . S
C1100 C1102 1.353 . S
C1100 N1103 1.314 . S
C1100 H1106 0.930 . S
C1101 N1103 1.279 . S
C1101 C1104 1.358 . S
C1101 H1107 0.930 . S
C1102 C1100 1.353 . S
C1102 C1105 1.348 . S
C1102 H1140 0.929 . S
N1103 Li1058 1.990 . S
N1103 C1100 1.314 . S
N1103 C1101 1.279 . S
C1104 C1101 1.358 . S
C1104 C1105 1.356 . S
C1104 H1141 0.930 . S
C1105 C1102 1.348 . S
C1105 C1104 1.356 . S
H1106 C1100 0.930 . S
H1107 C1101 0.930 . S
C1108 N1109 1.314 . S
C1108 C1110 1.353 . S
C1108 H1114 0.930 . S
N1109 Li1059 1.990 . S
N1109 C1108 1.314 . S
N1109 C1112 1.279 . S
C1110 C1108 1.353 . S
C1110 C1113 1.348 . S
C1110 H1142 0.929 . S
C1111 C1112 1.358 . S
C1111 C1113 1.356 . S
C1111 H1143 0.930 . S
C1112 N1109 1.279 . S
C1112 C1111 1.358 . S
C1112 H1115 0.930 . S
C1113 C1110 1.348 . S
C1113 C1111 1.356 . S
H1114 C1108 0.930 . S
H1115 C1112 0.930 . S
O1116 Li1056 1.956 . S
O1116 Li1057 1.970 . S
O1116 Li1058 1.961 . S
O1116 C1060 1.325 . S
O1117 Li1056 1.970 . S
O1117 Li1057 1.956 . S
O1117 Li1059 1.961 . S
O1117 C1066 1.325 . S
O1118 Li1056 1.961 . S
O1118 Li1058 1.956 . S
O1118 Li1059 1.970 . S
O1118 C1088 1.325 . S
O1119 Li1057 1.961 . S
O1119 Li1058 1.970 . S
O1119 Li1059 1.956 . S
O1119 C1094 1.325 . S
H1120 C1062 0.929 . S
H1121 C1063 0.930 . S
H1122 C1064 0.930 . S
H1123 C1065 0.930 . S
H1124 C1067 0.930 . S
H1125 C1069 0.929 . S
H1126 C1070 0.930 . S
H1127 C1071 0.930 . S
H1128 C1074 0.930 . S
H1129 C1077 0.929 . S
H1130 C1082 0.929 . S
H1131 C1083 0.930 . S
H1132 C1090 0.929 . S
H1133 C1091 0.930 . S
H1134 C1092 0.930 . S
H1135 C1093 0.930 . S
H1136 C1095 0.929 . S
H1137 C1096 0.930 . S
H1138 C1097 0.930 . S
H1139 C1098 0.930 . S
H1140 C1102 0.929 . S
H1141 C1104 0.930 . S
H1142 C1110 0.929 . S
H1143 C1111 0.930 . S
Li1144 N1161 1.990 . S
Li1144 O1204 1.956 . S
Li1144 O1205 1.970 . S
Li1144 O1206 1.961 . S
Li1145 N1169 1.990 . S
Li1145 O1204 1.970 . S
Li1145 O1205 1.956 . S
Li1145 O1207 1.961 . S
Li1146 N1191 1.990 . S
Li1146 O1204 1.961 . S
Li1146 O1206 1.956 . S
Li1146 O1207 1.970 . S
Li1147 N1197 1.990 . S
Li1147 O1205 1.961 . S
Li1147 O1206 1.970 . S
Li1147 O1207 1.956 . S
C1148 C1150 1.348 . S
C1148 C1151 1.356 . S
C1148 O1204 1.325 . S
N1149 C1152 1.314 . S
N1149 C1153 1.279 . S
C1150 C1148 1.348 . S
C1150 C1152 1.353 . S
C1150 H1208 0.929 . S
C1151 C1148 1.356 . S
C1151 C1153 1.358 . S
C1151 H1209 0.930 . S
C1152 N1149 1.314 . S
C1152 C1150 1.353 . S
C1152 H1210 0.930 . S
C1153 N1149 1.279 . S
C1153 C1151 1.358 . S
C1153 H1211 0.930 . S
C1154 C1157 1.348 . S
C1154 C1158 1.356 . S
C1154 O1205 1.325 . S
C1155 N1156 1.279 . S
C1155 C1158 1.358 . S
C1155 H1212 0.930 . S
N1156 C1155 1.279 . S
N1156 C1159 1.314 . S
C1157 C1154 1.348 . S
C1157 C1159 1.353 . S
C1157 H1213 0.929 . S
C1158 C1154 1.356 . S
C1158 C1155 1.358 . S
C1158 H1214 0.930 . S
C1159 N1156 1.314 . S
C1159 C1157 1.353 . S
C1159 H1215 0.930 . S
C1160 N1161 1.314 . S
C1160 C1165 1.353 . S
C1160 H1166 0.930 . S
N1161 Li1144 1.990 . S
N1161 C1160 1.314 . S
N1161 C1163 1.279 . S
C1162 C1163 1.358 . S
C1162 C1164 1.356 . S
C1162 H1216 0.930 . S
C1163 N1161 1.279 . S
C1163 C1162 1.358 . S
C1163 H1167 0.930 . S
C1164 C1162 1.356 . S
C1164 C1165 1.348 . S
C1165 C1160 1.353 . S
C1165 C1164 1.348 . S
C1165 H1217 0.929 . S
H1166 C1160 0.930 . S
H1167 C1163 0.930 . S
C1168 N1169 1.314 . S
C1168 C1170 1.353 . S
C1168 H1174 0.930 . S
N1169 Li1145 1.990 . S
N1169 C1168 1.314 . S
N1169 C1172 1.279 . S
C1170 C1168 1.353 . S
C1170 C1173 1.348 . S
C1170 H1218 0.929 . S
C1171 C1172 1.358 . S
C1171 C1173 1.356 . S
C1171 H1219 0.930 . S
C1172 N1169 1.279 . S
C1172 C1171 1.358 . S
C1172 H1175 0.930 . S
C1173 C1170 1.348 . S
C1173 C1171 1.356 . S
H1174 C1168 0.930 . S
H1175 C1172 0.930 . S
C1176 C1178 1.348 . S
C1176 C1179 1.356 . S
C1176 O1206 1.325 . S
N1177 C1180 1.314 . S
N1177 C1181 1.279 . S
C1178 C1176 1.348 . S
C1178 C1180 1.353 . S
C1178 H1220 0.929 . S
C1179 C1176 1.356 . S
C1179 C1181 1.358 . S
C1179 H1221 0.930 . S
C1180 N1177 1.314 . S
C1180 C1178 1.353 . S
C1180 H1222 0.930 . S
C1181 N1177 1.279 . S
C1181 C1179 1.358 . S
C1181 H1223 0.930 . S
C1182 C1183 1.348 . S
C1182 C1184 1.356 . S
C1182 O1207 1.325 . S
C1183 C1182 1.348 . S
C1183 C1185 1.353 . S
C1183 H1224 0.929 . S
C1184 C1182 1.356 . S
C1184 C1186 1.358 . S
C1184 H1225 0.930 . S
C1185 C1183 1.353 . S
C1185 N1187 1.314 . S
C1185 H1226 0.930 . S
C1186 C1184 1.358 . S
C1186 N1187 1.279 . S
C1186 H1227 0.930 . S
N1187 C1185 1.314 . S
N1187 C1186 1.279 . S
C1188 C1190 1.353 . S
C1188 N1191 1.314 . S
C1188 H1194 0.930 . S
C1189 N1191 1.279 . S
C1189 C1192 1.358 . S
C1189 H1195 0.930 . S
C1190 C1188 1.353 . S
C1190 C1193 1.348 . S
C1190 H1228 0.929 . S
N1191 Li1146 1.990 . S
N1191 C1188 1.314 . S
N1191 C1189 1.279 . S
C1192 C1189 1.358 . S
C1192 C1193 1.356 . S
C1192 H1229 0.930 . S
C1193 C1190 1.348 . S
C1193 C1192 1.356 . S
H1194 C1188 0.930 . S
H1195 C1189 0.930 . S
C1196 N1197 1.314 . S
C1196 C1198 1.353 . S
C1196 H1202 0.930 . S
N1197 Li1147 1.990 . S
N1197 C1196 1.314 . S
N1197 C1200 1.279 . S
C1198 C1196 1.353 . S
C1198 C1201 1.348 . S
C1198 H1230 0.929 . S
C1199 C1200 1.358 . S
C1199 C1201 1.356 . S
C1199 H1231 0.930 . S
C1200 N1197 1.279 . S
C1200 C1199 1.358 . S
C1200 H1203 0.930 . S
C1201 C1198 1.348 . S
C1201 C1199 1.356 . S
H1202 C1196 0.930 . S
H1203 C1200 0.930 . S
O1204 Li1144 1.956 . S
O1204 Li1145 1.970 . S
O1204 Li1146 1.961 . S
O1204 C1148 1.325 . S
O1205 Li1144 1.970 . S
O1205 Li1145 1.956 . S
O1205 Li1147 1.961 . S
O1205 C1154 1.325 . S
O1206 Li1144 1.961 . S
O1206 Li1146 1.956 . S
O1206 Li1147 1.970 . S
O1206 C1176 1.325 . S
O1207 Li1145 1.961 . S
O1207 Li1146 1.970 . S
O1207 Li1147 1.956 . S
O1207 C1182 1.325 . S
H1208 C1150 0.929 . S
H1209 C1151 0.930 . S
H1210 C1152 0.930 . S
H1211 C1153 0.930 . S
H1212 C1155 0.930 . S
H1213 C1157 0.929 . S
H1214 C1158 0.930 . S
H1215 C1159 0.930 . S
H1216 C1162 0.930 . S
H1217 C1165 0.929 . S
H1218 C1170 0.929 . S
H1219 C1171 0.930 . S
H1220 C1178 0.929 . S
H1221 C1179 0.930 . S
H1222 C1180 0.930 . S
H1223 C1181 0.930 . S
H1224 C1183 0.929 . S
H1225 C1184 0.930 . S
H1226 C1185 0.930 . S
H1227 C1186 0.930 . S
H1228 C1190 0.929 . S
H1229 C1192 0.930 . S
H1230 C1198 0.929 . S
H1231 C1199 0.930 . S
Li1232 N1249 1.990 . S
Li1232 O1292 1.956 . S
Li1232 O1293 1.970 . S
Li1232 O1294 1.961 . S
Li1233 N1257 1.990 . S
Li1233 O1292 1.970 . S
Li1233 O1293 1.956 . S
Li1233 O1295 1.961 . S
Li1234 N1279 1.990 . S
Li1234 O1292 1.961 . S
Li1234 O1294 1.956 . S
Li1234 O1295 1.970 . S
Li1235 N1285 1.990 . S
Li1235 O1293 1.961 . S
Li1235 O1294 1.970 . S
Li1235 O1295 1.956 . S
C1236 C1238 1.348 . S
C1236 C1239 1.356 . S
C1236 O1292 1.325 . S
N1237 C1240 1.314 . S
N1237 C1241 1.279 . S
C1238 C1236 1.348 . S
C1238 C1240 1.353 . S
C1238 H1296 0.929 . S
C1239 C1236 1.356 . S
C1239 C1241 1.358 . S
C1239 H1297 0.930 . S
C1240 N1237 1.314 . S
C1240 C1238 1.353 . S
C1240 H1298 0.930 . S
C1241 N1237 1.279 . S
C1241 C1239 1.358 . S
C1241 H1299 0.930 . S
C1242 C1245 1.348 . S
C1242 C1246 1.356 . S
C1242 O1293 1.325 . S
C1243 N1244 1.279 . S
C1243 C1246 1.358 . S
C1243 H1300 0.930 . S
N1244 C1243 1.279 . S
N1244 C1247 1.314 . S
C1245 C1242 1.348 . S
C1245 C1247 1.353 . S
C1245 H1301 0.929 . S
C1246 C1242 1.356 . S
C1246 C1243 1.358 . S
C1246 H1302 0.930 . S
C1247 N1244 1.314 . S
C1247 C1245 1.353 . S
C1247 H1303 0.930 . S
C1248 N1249 1.314 . S
C1248 C1253 1.353 . S
C1248 H1254 0.930 . S
N1249 Li1232 1.990 . S
N1249 C1248 1.314 . S
N1249 C1251 1.279 . S
C1250 C1251 1.358 . S
C1250 C1252 1.356 . S
C1250 H1304 0.930 . S
C1251 N1249 1.279 . S
C1251 C1250 1.358 . S
C1251 H1255 0.930 . S
C1252 C1250 1.356 . S
C1252 C1253 1.348 . S
C1253 C1248 1.353 . S
C1253 C1252 1.348 . S
C1253 H1305 0.929 . S
H1254 C1248 0.930 . S
H1255 C1251 0.930 . S
C1256 N1257 1.314 . S
C1256 C1258 1.353 . S
C1256 H1262 0.930 . S
N1257 Li1233 1.990 . S
N1257 C1256 1.314 . S
N1257 C1260 1.279 . S
C1258 C1256 1.353 . S
C1258 C1261 1.348 . S
C1258 H1306 0.929 . S
C1259 C1260 1.358 . S
C1259 C1261 1.356 . S
C1259 H1307 0.930 . S
C1260 N1257 1.279 . S
C1260 C1259 1.358 . S
C1260 H1263 0.930 . S
C1261 C1258 1.348 . S
C1261 C1259 1.356 . S
H1262 C1256 0.930 . S
H1263 C1260 0.930 . S
C1264 C1266 1.348 . S
C1264 C1267 1.356 . S
C1264 O1294 1.325 . S
N1265 C1268 1.314 . S
N1265 C1269 1.279 . S
C1266 C1264 1.348 . S
C1266 C1268 1.353 . S
C1266 H1308 0.929 . S
C1267 C1264 1.356 . S
C1267 C1269 1.358 . S
C1267 H1309 0.930 . S
C1268 N1265 1.314 . S
C1268 C1266 1.353 . S
C1268 H1310 0.930 . S
C1269 N1265 1.279 . S
C1269 C1267 1.358 . S
C1269 H1311 0.930 . S
C1270 C1271 1.348 . S
C1270 C1272 1.356 . S
C1270 O1295 1.325 . S
C1271 C1270 1.348 . S
C1271 C1273 1.353 . S
C1271 H1312 0.929 . S
C1272 C1270 1.356 . S
C1272 C1274 1.358 . S
C1272 H1313 0.930 . S
C1273 C1271 1.353 . S
C1273 N1275 1.314 . S
C1273 H1314 0.930 . S
C1274 C1272 1.358 . S
C1274 N1275 1.279 . S
C1274 H1315 0.930 . S
N1275 C1273 1.314 . S
N1275 C1274 1.279 . S
C1276 C1278 1.353 . S
C1276 N1279 1.314 . S
C1276 H1282 0.930 . S
C1277 N1279 1.279 . S
C1277 C1280 1.358 . S
C1277 H1283 0.930 . S
C1278 C1276 1.353 . S
C1278 C1281 1.348 . S
C1278 H1316 0.929 . S
N1279 Li1234 1.990 . S
N1279 C1276 1.314 . S
N1279 C1277 1.279 . S
C1280 C1277 1.358 . S
C1280 C1281 1.356 . S
C1280 H1317 0.930 . S
C1281 C1278 1.348 . S
C1281 C1280 1.356 . S
H1282 C1276 0.930 . S
H1283 C1277 0.930 . S
C1284 N1285 1.314 . S
C1284 C1286 1.353 . S
C1284 H1290 0.930 . S
N1285 Li1235 1.990 . S
N1285 C1284 1.314 . S
N1285 C1288 1.279 . S
C1286 C1284 1.353 . S
C1286 C1289 1.348 . S
C1286 H1318 0.929 . S
C1287 C1288 1.358 . S
C1287 C1289 1.356 . S
C1287 H1319 0.930 . S
C1288 N1285 1.279 . S
C1288 C1287 1.358 . S
C1288 H1291 0.930 . S
C1289 C1286 1.348 . S
C1289 C1287 1.356 . S
H1290 C1284 0.930 . S
H1291 C1288 0.930 . S
O1292 Li1232 1.956 . S
O1292 Li1233 1.970 . S
O1292 Li1234 1.961 . S
O1292 C1236 1.325 . S
O1293 Li1232 1.970 . S
O1293 Li1233 1.956 . S
O1293 Li1235 1.961 . S
O1293 C1242 1.325 . S
O1294 Li1232 1.961 . S
O1294 Li1234 1.956 . S
O1294 Li1235 1.970 . S
O1294 C1264 1.325 . S
O1295 Li1233 1.961 . S
O1295 Li1234 1.970 . S
O1295 Li1235 1.956 . S
O1295 C1270 1.325 . S
H1296 C1238 0.929 . S
H1297 C1239 0.930 . S
H1298 C1240 0.930 . S
H1299 C1241 0.930 . S
H1300 C1243 0.930 . S
H1301 C1245 0.929 . S
H1302 C1246 0.930 . S
H1303 C1247 0.930 . S
H1304 C1250 0.930 . S
H1305 C1253 0.929 . S
H1306 C1258 0.929 . S
H1307 C1259 0.930 . S
H1308 C1266 0.929 . S
H1309 C1267 0.930 . S
H1310 C1268 0.930 . S
H1311 C1269 0.930 . S
H1312 C1271 0.929 . S
H1313 C1272 0.930 . S
H1314 C1273 0.930 . S
H1315 C1274 0.930 . S
H1316 C1278 0.929 . S
H1317 C1280 0.930 . S
H1318 C1286 0.929 . S
H1319 C1287 0.930 . S
Li1320 N1337 1.990 . S
Li1320 O1380 1.956 . S
Li1320 O1381 1.970 . S
Li1320 O1382 1.961 . S
Li1321 N1345 1.990 . S
Li1321 O1380 1.970 . S
Li1321 O1381 1.956 . S
Li1321 O1383 1.961 . S
Li1322 N1367 1.990 . S
Li1322 O1380 1.961 . S
Li1322 O1382 1.956 . S
Li1322 O1383 1.970 . S
Li1323 N1373 1.990 . S
Li1323 O1381 1.961 . S
Li1323 O1382 1.970 . S
Li1323 O1383 1.956 . S
C1324 C1326 1.348 . S
C1324 C1327 1.356 . S
C1324 O1380 1.325 . S
N1325 C1328 1.314 . S
N1325 C1329 1.279 . S
C1326 C1324 1.348 . S
C1326 C1328 1.353 . S
C1326 H1384 0.929 . S
C1327 C1324 1.356 . S
C1327 C1329 1.358 . S
C1327 H1385 0.930 . S
C1328 N1325 1.314 . S
C1328 C1326 1.353 . S
C1328 H1386 0.930 . S
C1329 N1325 1.279 . S
C1329 C1327 1.358 . S
C1329 H1387 0.930 . S
C1330 C1333 1.348 . S
C1330 C1334 1.356 . S
C1330 O1381 1.325 . S
C1331 N1332 1.279 . S
C1331 C1334 1.358 . S
C1331 H1388 0.930 . S
N1332 C1331 1.279 . S
N1332 C1335 1.314 . S
C1333 C1330 1.348 . S
C1333 C1335 1.353 . S
C1333 H1389 0.929 . S
C1334 C1330 1.356 . S
C1334 C1331 1.358 . S
C1334 H1390 0.930 . S
C1335 N1332 1.314 . S
C1335 C1333 1.353 . S
C1335 H1391 0.930 . S
C1336 N1337 1.314 . S
C1336 C1341 1.353 . S
C1336 H1342 0.930 . S
N1337 Li1320 1.990 . S
N1337 C1336 1.314 . S
N1337 C1339 1.279 . S
C1338 C1339 1.358 . S
C1338 C1340 1.356 . S
C1338 H1392 0.930 . S
C1339 N1337 1.279 . S
C1339 C1338 1.358 . S
C1339 H1343 0.930 . S
C1340 C1338 1.356 . S
C1340 C1341 1.348 . S
C1341 C1336 1.353 . S
C1341 C1340 1.348 . S
C1341 H1393 0.929 . S
H1342 C1336 0.930 . S
H1343 C1339 0.930 . S
C1344 N1345 1.314 . S
C1344 C1346 1.353 . S
C1344 H1350 0.930 . S
N1345 Li1321 1.990 . S
N1345 C1344 1.314 . S
N1345 C1348 1.279 . S
C1346 C1344 1.353 . S
C1346 C1349 1.348 . S
C1346 H1394 0.929 . S
C1347 C1348 1.358 . S
C1347 C1349 1.356 . S
C1347 H1395 0.930 . S
C1348 N1345 1.279 . S
C1348 C1347 1.358 . S
C1348 H1351 0.930 . S
C1349 C1346 1.348 . S
C1349 C1347 1.356 . S
H1350 C1344 0.930 . S
H1351 C1348 0.930 . S
C1352 C1354 1.348 . S
C1352 C1355 1.356 . S
C1352 O1382 1.325 . S
N1353 C1356 1.314 . S
N1353 C1357 1.279 . S
C1354 C1352 1.348 . S
C1354 C1356 1.353 . S
C1354 H1396 0.929 . S
C1355 C1352 1.356 . S
C1355 C1357 1.358 . S
C1355 H1397 0.930 . S
C1356 N1353 1.314 . S
C1356 C1354 1.353 . S
C1356 H1398 0.930 . S
C1357 N1353 1.279 . S
C1357 C1355 1.358 . S
C1357 H1399 0.930 . S
C1358 C1359 1.348 . S
C1358 C1360 1.356 . S
C1358 O1383 1.325 . S
C1359 C1358 1.348 . S
C1359 C1361 1.353 . S
C1359 H1400 0.929 . S
C1360 C1358 1.356 . S
C1360 C1362 1.358 . S
C1360 H1401 0.930 . S
C1361 C1359 1.353 . S
C1361 N1363 1.314 . S
C1361 H1402 0.930 . S
C1362 C1360 1.358 . S
C1362 N1363 1.279 . S
C1362 H1403 0.930 . S
N1363 C1361 1.314 . S
N1363 C1362 1.279 . S
C1364 C1366 1.353 . S
C1364 N1367 1.314 . S
C1364 H1370 0.930 . S
C1365 N1367 1.279 . S
C1365 C1368 1.358 . S
C1365 H1371 0.930 . S
C1366 C1364 1.353 . S
C1366 C1369 1.348 . S
C1366 H1404 0.929 . S
N1367 Li1322 1.990 . S
N1367 C1364 1.314 . S
N1367 C1365 1.279 . S
C1368 C1365 1.358 . S
C1368 C1369 1.356 . S
C1368 H1405 0.930 . S
C1369 C1366 1.348 . S
C1369 C1368 1.356 . S
H1370 C1364 0.930 . S
H1371 C1365 0.930 . S
C1372 N1373 1.314 . S
C1372 C1374 1.353 . S
C1372 H1378 0.930 . S
N1373 Li1323 1.990 . S
N1373 C1372 1.314 . S
N1373 C1376 1.279 . S
C1374 C1372 1.353 . S
C1374 C1377 1.348 . S
C1374 H1406 0.929 . S
C1375 C1376 1.358 . S
C1375 C1377 1.356 . S
C1375 H1407 0.930 . S
C1376 N1373 1.279 . S
C1376 C1375 1.358 . S
C1376 H1379 0.930 . S
C1377 C1374 1.348 . S
C1377 C1375 1.356 . S
H1378 C1372 0.930 . S
H1379 C1376 0.930 . S
O1380 Li1320 1.956 . S
O1380 Li1321 1.970 . S
O1380 Li1322 1.961 . S
O1380 C1324 1.325 . S
O1381 Li1320 1.970 . S
O1381 Li1321 1.956 . S
O1381 Li1323 1.961 . S
O1381 C1330 1.325 . S
O1382 Li1320 1.961 . S
O1382 Li1322 1.956 . S
O1382 Li1323 1.970 . S
O1382 C1352 1.325 . S
O1383 Li1321 1.961 . S
O1383 Li1322 1.970 . S
O1383 Li1323 1.956 . S
O1383 C1358 1.325 . S
H1384 C1326 0.929 . S
H1385 C1327 0.930 . S
H1386 C1328 0.930 . S
H1387 C1329 0.930 . S
H1388 C1331 0.930 . S
H1389 C1333 0.929 . S
H1390 C1334 0.930 . S
H1391 C1335 0.930 . S
H1392 C1338 0.930 . S
H1393 C1341 0.929 . S
H1394 C1346 0.929 . S
H1395 C1347 0.930 . S
H1396 C1354 0.929 . S
H1397 C1355 0.930 . S
H1398 C1356 0.930 . S
H1399 C1357 0.930 . S
H1400 C1359 0.929 . S
H1401 C1360 0.930 . S
H1402 C1361 0.930 . S
H1403 C1362 0.930 . S
H1404 C1366 0.929 . S
H1405 C1368 0.930 . S
H1406 C1374 0.929 . S
H1407 C1375 0.930 . S
Li1408 N1425 1.990 . S
Li1408 O1468 1.956 . S
Li1408 O1469 1.970 . S
Li1408 O1470 1.961 . S
Li1409 N1433 1.990 . S
Li1409 O1468 1.970 . S
Li1409 O1469 1.956 . S
Li1409 O1471 1.961 . S
Li1410 N1455 1.990 . S
Li1410 O1468 1.961 . S
Li1410 O1470 1.956 . S
Li1410 O1471 1.970 . S
Li1411 N1461 1.990 . S
Li1411 O1469 1.961 . S
Li1411 O1470 1.970 . S
Li1411 O1471 1.956 . S
C1412 C1414 1.348 . S
C1412 C1415 1.356 . S
C1412 O1468 1.325 . S
N1413 C1416 1.314 . S
N1413 C1417 1.279 . S
C1414 C1412 1.348 . S
C1414 C1416 1.353 . S
C1414 H1472 0.929 . S
C1415 C1412 1.356 . S
C1415 C1417 1.358 . S
C1415 H1473 0.930 . S
C1416 N1413 1.314 . S
C1416 C1414 1.353 . S
C1416 H1474 0.930 . S
C1417 N1413 1.279 . S
C1417 C1415 1.358 . S
C1417 H1475 0.930 . S
C1418 C1421 1.348 . S
C1418 C1422 1.356 . S
C1418 O1469 1.325 . S
C1419 N1420 1.279 . S
C1419 C1422 1.358 . S
C1419 H1476 0.930 . S
N1420 C1419 1.279 . S
N1420 C1423 1.314 . S
C1421 C1418 1.348 . S
C1421 C1423 1.353 . S
C1421 H1477 0.929 . S
C1422 C1418 1.356 . S
C1422 C1419 1.358 . S
C1422 H1478 0.930 . S
C1423 N1420 1.314 . S
C1423 C1421 1.353 . S
C1423 H1479 0.930 . S
C1424 N1425 1.314 . S
C1424 C1429 1.353 . S
C1424 H1430 0.930 . S
N1425 Li1408 1.990 . S
N1425 C1424 1.314 . S
N1425 C1427 1.279 . S
C1426 C1427 1.358 . S
C1426 C1428 1.356 . S
C1426 H1480 0.930 . S
C1427 N1425 1.279 . S
C1427 C1426 1.358 . S
C1427 H1431 0.930 . S
C1428 C1426 1.356 . S
C1428 C1429 1.348 . S
C1429 C1424 1.353 . S
C1429 C1428 1.348 . S
C1429 H1481 0.929 . S
H1430 C1424 0.930 . S
H1431 C1427 0.930 . S
C1432 N1433 1.314 . S
C1432 C1434 1.353 . S
C1432 H1438 0.930 . S
N1433 Li1409 1.990 . S
N1433 C1432 1.314 . S
N1433 C1436 1.279 . S
C1434 C1432 1.353 . S
C1434 C1437 1.348 . S
C1434 H1482 0.929 . S
C1435 C1436 1.358 . S
C1435 C1437 1.356 . S
C1435 H1483 0.930 . S
C1436 N1433 1.279 . S
C1436 C1435 1.358 . S
C1436 H1439 0.930 . S
C1437 C1434 1.348 . S
C1437 C1435 1.356 . S
H1438 C1432 0.930 . S
H1439 C1436 0.930 . S
C1440 C1442 1.348 . S
C1440 C1443 1.356 . S
C1440 O1470 1.325 . S
N1441 C1444 1.314 . S
N1441 C1445 1.279 . S
C1442 C1440 1.348 . S
C1442 C1444 1.353 . S
C1442 H1484 0.929 . S
C1443 C1440 1.356 . S
C1443 C1445 1.358 . S
C1443 H1485 0.930 . S
C1444 N1441 1.314 . S
C1444 C1442 1.353 . S
C1444 H1486 0.930 . S
C1445 N1441 1.279 . S
C1445 C1443 1.358 . S
C1445 H1487 0.930 . S
C1446 C1447 1.348 . S
C1446 C1448 1.356 . S
C1446 O1471 1.325 . S
C1447 C1446 1.348 . S
C1447 C1449 1.353 . S
C1447 H1488 0.929 . S
C1448 C1446 1.356 . S
C1448 C1450 1.358 . S
C1448 H1489 0.930 . S
C1449 C1447 1.353 . S
C1449 N1451 1.314 . S
C1449 H1490 0.930 . S
C1450 C1448 1.358 . S
C1450 N1451 1.279 . S
C1450 H1491 0.930 . S
N1451 C1449 1.314 . S
N1451 C1450 1.279 . S
C1452 C1454 1.353 . S
C1452 N1455 1.314 . S
C1452 H1458 0.930 . S
C1453 N1455 1.279 . S
C1453 C1456 1.358 . S
C1453 H1459 0.930 . S
C1454 C1452 1.353 . S
C1454 C1457 1.348 . S
C1454 H1492 0.929 . S
N1455 Li1410 1.990 . S
N1455 C1452 1.314 . S
N1455 C1453 1.279 . S
C1456 C1453 1.358 . S
C1456 C1457 1.356 . S
C1456 H1493 0.930 . S
C1457 C1454 1.348 . S
C1457 C1456 1.356 . S
H1458 C1452 0.930 . S
H1459 C1453 0.930 . S
C1460 N1461 1.314 . S
C1460 C1462 1.353 . S
C1460 H1466 0.930 . S
N1461 Li1411 1.990 . S
N1461 C1460 1.314 . S
N1461 C1464 1.279 . S
C1462 C1460 1.353 . S
C1462 C1465 1.348 . S
C1462 H1494 0.929 . S
C1463 C1464 1.358 . S
C1463 C1465 1.356 . S
C1463 H1495 0.930 . S
C1464 N1461 1.279 . S
C1464 C1463 1.358 . S
C1464 H1467 0.930 . S
C1465 C1462 1.348 . S
C1465 C1463 1.356 . S
H1466 C1460 0.930 . S
H1467 C1464 0.930 . S
O1468 Li1408 1.956 . S
O1468 Li1409 1.970 . S
O1468 Li1410 1.961 . S
O1468 C1412 1.325 . S
O1469 Li1408 1.970 . S
O1469 Li1409 1.956 . S
O1469 Li1411 1.961 . S
O1469 C1418 1.325 . S
O1470 Li1408 1.961 . S
O1470 Li1410 1.956 . S
O1470 Li1411 1.970 . S
O1470 C1440 1.325 . S
O1471 Li1409 1.961 . S
O1471 Li1410 1.970 . S
O1471 Li1411 1.956 . S
O1471 C1446 1.325 . S
H1472 C1414 0.929 . S
H1473 C1415 0.930 . S
H1474 C1416 0.930 . S
H1475 C1417 0.930 . S
H1476 C1419 0.930 . S
H1477 C1421 0.929 . S
H1478 C1422 0.930 . S
H1479 C1423 0.930 . S
H1480 C1426 0.930 . S
H1481 C1429 0.929 . S
H1482 C1434 0.929 . S
H1483 C1435 0.930 . S
H1484 C1442 0.929 . S
H1485 C1443 0.930 . S
H1486 C1444 0.930 . S
H1487 C1445 0.930 . S
H1488 C1447 0.929 . S
H1489 C1448 0.930 . S
H1490 C1449 0.930 . S
H1491 C1450 0.930 . S
H1492 C1454 0.929 . S
H1493 C1456 0.930 . S
H1494 C1462 0.929 . S
H1495 C1463 0.930 . S
Li1496 N1513 1.990 . S
Li1496 O1556 1.956 . S
Li1496 O1557 1.970 . S
Li1496 O1558 1.961 . S
Li1497 N1521 1.990 . S
Li1497 O1556 1.970 . S
Li1497 O1557 1.956 . S
Li1497 O1559 1.961 . S
Li1498 N1543 1.990 . S
Li1498 O1556 1.961 . S
Li1498 O1558 1.956 . S
Li1498 O1559 1.970 . S
Li1499 N1549 1.990 . S
Li1499 O1557 1.961 . S
Li1499 O1558 1.970 . S
Li1499 O1559 1.956 . S
C1500 C1502 1.348 . S
C1500 C1503 1.356 . S
C1500 O1556 1.325 . S
N1501 C1504 1.314 . S
N1501 C1505 1.279 . S
C1502 C1500 1.348 . S
C1502 C1504 1.353 . S
C1502 H1560 0.929 . S
C1503 C1500 1.356 . S
C1503 C1505 1.358 . S
C1503 H1561 0.930 . S
C1504 N1501 1.314 . S
C1504 C1502 1.353 . S
C1504 H1562 0.930 . S
C1505 N1501 1.279 . S
C1505 C1503 1.358 . S
C1505 H1563 0.930 . S
C1506 C1509 1.348 . S
C1506 C1510 1.356 . S
C1506 O1557 1.325 . S
C1507 N1508 1.279 . S
C1507 C1510 1.358 . S
C1507 H1564 0.930 . S
N1508 C1507 1.279 . S
N1508 C1511 1.314 . S
C1509 C1506 1.348 . S
C1509 C1511 1.353 . S
C1509 H1565 0.929 . S
C1510 C1506 1.356 . S
C1510 C1507 1.358 . S
C1510 H1566 0.930 . S
C1511 N1508 1.314 . S
C1511 C1509 1.353 . S
C1511 H1567 0.930 . S
C1512 N1513 1.314 . S
C1512 C1517 1.353 . S
C1512 H1518 0.930 . S
N1513 Li1496 1.990 . S
N1513 C1512 1.314 . S
N1513 C1515 1.279 . S
C1514 C1515 1.358 . S
C1514 C1516 1.356 . S
C1514 H1568 0.930 . S
C1515 N1513 1.279 . S
C1515 C1514 1.358 . S
C1515 H1519 0.930 . S
C1516 C1514 1.356 . S
C1516 C1517 1.348 . S
C1517 C1512 1.353 . S
C1517 C1516 1.348 . S
C1517 H1569 0.929 . S
H1518 C1512 0.930 . S
H1519 C1515 0.930 . S
C1520 N1521 1.314 . S
C1520 C1522 1.353 . S
C1520 H1526 0.930 . S
N1521 Li1497 1.990 . S
N1521 C1520 1.314 . S
N1521 C1524 1.279 . S
C1522 C1520 1.353 . S
C1522 C1525 1.348 . S
C1522 H1570 0.929 . S
C1523 C1524 1.358 . S
C1523 C1525 1.356 . S
C1523 H1571 0.930 . S
C1524 N1521 1.279 . S
C1524 C1523 1.358 . S
C1524 H1527 0.930 . S
C1525 C1522 1.348 . S
C1525 C1523 1.356 . S
H1526 C1520 0.930 . S
H1527 C1524 0.930 . S
C1528 C1530 1.348 . S
C1528 C1531 1.356 . S
C1528 O1558 1.325 . S
N1529 C1532 1.314 . S
N1529 C1533 1.279 . S
C1530 C1528 1.348 . S
C1530 C1532 1.353 . S
C1530 H1572 0.929 . S
C1531 C1528 1.356 . S
C1531 C1533 1.358 . S
C1531 H1573 0.930 . S
C1532 N1529 1.314 . S
C1532 C1530 1.353 . S
C1532 H1574 0.930 . S
C1533 N1529 1.279 . S
C1533 C1531 1.358 . S
C1533 H1575 0.930 . S
C1534 C1535 1.348 . S
C1534 C1536 1.356 . S
C1534 O1559 1.325 . S
C1535 C1534 1.348 . S
C1535 C1537 1.353 . S
C1535 H1576 0.929 . S
C1536 C1534 1.356 . S
C1536 C1538 1.358 . S
C1536 H1577 0.930 . S
C1537 C1535 1.353 . S
C1537 N1539 1.314 . S
C1537 H1578 0.930 . S
C1538 C1536 1.358 . S
C1538 N1539 1.279 . S
C1538 H1579 0.930 . S
N1539 C1537 1.314 . S
N1539 C1538 1.279 . S
C1540 C1542 1.353 . S
C1540 N1543 1.314 . S
C1540 H1546 0.930 . S
C1541 N1543 1.279 . S
C1541 C1544 1.358 . S
C1541 H1547 0.930 . S
C1542 C1540 1.353 . S
C1542 C1545 1.348 . S
C1542 H1580 0.929 . S
N1543 Li1498 1.990 . S
N1543 C1540 1.314 . S
N1543 C1541 1.279 . S
C1544 C1541 1.358 . S
C1544 C1545 1.356 . S
C1544 H1581 0.930 . S
C1545 C1542 1.348 . S
C1545 C1544 1.356 . S
H1546 C1540 0.930 . S
H1547 C1541 0.930 . S
C1548 N1549 1.314 . S
C1548 C1550 1.353 . S
C1548 H1554 0.930 . S
N1549 Li1499 1.990 . S
N1549 C1548 1.314 . S
N1549 C1552 1.279 . S
C1550 C1548 1.353 . S
C1550 C1553 1.348 . S
C1550 H1582 0.929 . S
C1551 C1552 1.358 . S
C1551 C1553 1.356 . S
C1551 H1583 0.930 . S
C1552 N1549 1.279 . S
C1552 C1551 1.358 . S
C1552 H1555 0.930 . S
C1553 C1550 1.348 . S
C1553 C1551 1.356 . S
H1554 C1548 0.930 . S
H1555 C1552 0.930 . S
O1556 Li1496 1.956 . S
O1556 Li1497 1.970 . S
O1556 Li1498 1.961 . S
O1556 C1500 1.325 . S
O1557 Li1496 1.970 . S
O1557 Li1497 1.956 . S
O1557 Li1499 1.961 . S
O1557 C1506 1.325 . S
O1558 Li1496 1.961 . S
O1558 Li1498 1.956 . S
O1558 Li1499 1.970 . S
O1558 C1528 1.325 . S
O1559 Li1497 1.961 . S
O1559 Li1498 1.970 . S
O1559 Li1499 1.956 . S
O1559 C1534 1.325 . S
H1560 C1502 0.929 . S
H1561 C1503 0.930 . S
H1562 C1504 0.930 . S
H1563 C1505 0.930 . S
H1564 C1507 0.930 . S
H1565 C1509 0.929 . S
H1566 C1510 0.930 . S
H1567 C1511 0.930 . S
H1568 C1514 0.930 . S
H1569 C1517 0.929 . S
H1570 C1522 0.929 . S
H1571 C1523 0.930 . S
H1572 C1530 0.929 . S
H1573 C1531 0.930 . S
H1574 C1532 0.930 . S
H1575 C1533 0.930 . S
H1576 C1535 0.929 . S
H1577 C1536 0.930 . S
H1578 C1537 0.930 . S
H1579 C1538 0.930 . S
H1580 C1542 0.929 . S
H1581 C1544 0.930 . S
H1582 C1550 0.929 . S
H1583 C1551 0.930 . S
Li1584 N1601 1.990 . S
Li1584 O1644 1.956 . S
Li1584 O1645 1.970 . S
Li1584 O1646 1.961 . S
Li1585 N1609 1.990 . S
Li1585 O1644 1.970 . S
Li1585 O1645 1.956 . S
Li1585 O1647 1.961 . S
Li1586 N1631 1.990 . S
Li1586 O1644 1.961 . S
Li1586 O1646 1.956 . S
Li1586 O1647 1.970 . S
Li1587 N1637 1.990 . S
Li1587 O1645 1.961 . S
Li1587 O1646 1.970 . S
Li1587 O1647 1.956 . S
C1588 C1590 1.348 . S
C1588 C1591 1.356 . S
C1588 O1644 1.325 . S
N1589 C1592 1.314 . S
N1589 C1593 1.279 . S
C1590 C1588 1.348 . S
C1590 C1592 1.353 . S
C1590 H1648 0.929 . S
C1591 C1588 1.356 . S
C1591 C1593 1.358 . S
C1591 H1649 0.930 . S
C1592 N1589 1.314 . S
C1592 C1590 1.353 . S
C1592 H1650 0.930 . S
C1593 N1589 1.279 . S
C1593 C1591 1.358 . S
C1593 H1651 0.930 . S
C1594 C1597 1.348 . S
C1594 C1598 1.356 . S
C1594 O1645 1.325 . S
C1595 N1596 1.279 . S
C1595 C1598 1.358 . S
C1595 H1652 0.930 . S
N1596 C1595 1.279 . S
N1596 C1599 1.314 . S
C1597 C1594 1.348 . S
C1597 C1599 1.353 . S
C1597 H1653 0.929 . S
C1598 C1594 1.356 . S
C1598 C1595 1.358 . S
C1598 H1654 0.930 . S
C1599 N1596 1.314 . S
C1599 C1597 1.353 . S
C1599 H1655 0.930 . S
C1600 N1601 1.314 . S
C1600 C1605 1.353 . S
C1600 H1606 0.930 . S
N1601 Li1584 1.990 . S
N1601 C1600 1.314 . S
N1601 C1603 1.279 . S
C1602 C1603 1.358 . S
C1602 C1604 1.356 . S
C1602 H1656 0.930 . S
C1603 N1601 1.279 . S
C1603 C1602 1.358 . S
C1603 H1607 0.930 . S
C1604 C1602 1.356 . S
C1604 C1605 1.348 . S
C1605 C1600 1.353 . S
C1605 C1604 1.348 . S
C1605 H1657 0.929 . S
H1606 C1600 0.930 . S
H1607 C1603 0.930 . S
C1608 N1609 1.314 . S
C1608 C1610 1.353 . S
C1608 H1614 0.930 . S
N1609 Li1585 1.990 . S
N1609 C1608 1.314 . S
N1609 C1612 1.279 . S
C1610 C1608 1.353 . S
C1610 C1613 1.348 . S
C1610 H1658 0.929 . S
C1611 C1612 1.358 . S
C1611 C1613 1.356 . S
C1611 H1659 0.930 . S
C1612 N1609 1.279 . S
C1612 C1611 1.358 . S
C1612 H1615 0.930 . S
C1613 C1610 1.348 . S
C1613 C1611 1.356 . S
H1614 C1608 0.930 . S
H1615 C1612 0.930 . S
C1616 C1618 1.348 . S
C1616 C1619 1.356 . S
C1616 O1646 1.325 . S
N1617 C1620 1.314 . S
N1617 C1621 1.279 . S
C1618 C1616 1.348 . S
C1618 C1620 1.353 . S
C1618 H1660 0.929 . S
C1619 C1616 1.356 . S
C1619 C1621 1.358 . S
C1619 H1661 0.930 . S
C1620 N1617 1.314 . S
C1620 C1618 1.353 . S
C1620 H1662 0.930 . S
C1621 N1617 1.279 . S
C1621 C1619 1.358 . S
C1621 H1663 0.930 . S
C1622 C1623 1.348 . S
C1622 C1624 1.356 . S
C1622 O1647 1.325 . S
C1623 C1622 1.348 . S
C1623 C1625 1.353 . S
C1623 H1664 0.929 . S
C1624 C1622 1.356 . S
C1624 C1626 1.358 . S
C1624 H1665 0.930 . S
C1625 C1623 1.353 . S
C1625 N1627 1.314 . S
C1625 H1666 0.930 . S
C1626 C1624 1.358 . S
C1626 N1627 1.279 . S
C1626 H1667 0.930 . S
N1627 C1625 1.314 . S
N1627 C1626 1.279 . S
C1628 C1630 1.353 . S
C1628 N1631 1.314 . S
C1628 H1634 0.930 . S
C1629 N1631 1.279 . S
C1629 C1632 1.358 . S
C1629 H1635 0.930 . S
C1630 C1628 1.353 . S
C1630 C1633 1.348 . S
C1630 H1668 0.929 . S
N1631 Li1586 1.990 . S
N1631 C1628 1.314 . S
N1631 C1629 1.279 . S
C1632 C1629 1.358 . S
C1632 C1633 1.356 . S
C1632 H1669 0.930 . S
C1633 C1630 1.348 . S
C1633 C1632 1.356 . S
H1634 C1628 0.930 . S
H1635 C1629 0.930 . S
C1636 N1637 1.314 . S
C1636 C1638 1.353 . S
C1636 H1642 0.930 . S
N1637 Li1587 1.990 . S
N1637 C1636 1.314 . S
N1637 C1640 1.279 . S
C1638 C1636 1.353 . S
C1638 C1641 1.348 . S
C1638 H1670 0.929 . S
C1639 C1640 1.358 . S
C1639 C1641 1.356 . S
C1639 H1671 0.930 . S
C1640 N1637 1.279 . S
C1640 C1639 1.358 . S
C1640 H1643 0.930 . S
C1641 C1638 1.348 . S
C1641 C1639 1.356 . S
H1642 C1636 0.930 . S
H1643 C1640 0.930 . S
O1644 Li1584 1.956 . S
O1644 Li1585 1.970 . S
O1644 Li1586 1.961 . S
O1644 C1588 1.325 . S
O1645 Li1584 1.970 . S
O1645 Li1585 1.956 . S
O1645 Li1587 1.961 . S
O1645 C1594 1.325 . S
O1646 Li1584 1.961 . S
O1646 Li1586 1.956 . S
O1646 Li1587 1.970 . S
O1646 C1616 1.325 . S
O1647 Li1585 1.961 . S
O1647 Li1586 1.970 . S
O1647 Li1587 1.956 . S
O1647 C1622 1.325 . S
H1648 C1590 0.929 . S
H1649 C1591 0.930 . S
H1650 C1592 0.930 . S
H1651 C1593 0.930 . S
H1652 C1595 0.930 . S
H1653 C1597 0.929 . S
H1654 C1598 0.930 . S
H1655 C1599 0.930 . S
H1656 C1602 0.930 . S
H1657 C1605 0.929 . S
H1658 C1610 0.929 . S
H1659 C1611 0.930 . S
H1660 C1618 0.929 . S
H1661 C1619 0.930 . S
H1662 C1620 0.930 . S
H1663 C1621 0.930 . S
H1664 C1623 0.929 . S
H1665 C1624 0.930 . S
H1666 C1625 0.930 . S
H1667 C1626 0.930 . S
H1668 C1630 0.929 . S
H1669 C1632 0.930 . S
H1670 C1638 0.929 . S
H1671 C1639 0.930 . S
Li1672 N1689 1.990 . S
Li1672 O1732 1.956 . S
Li1672 O1733 1.970 . S
Li1672 O1734 1.961 . S
Li1673 N1697 1.990 . S
Li1673 O1732 1.970 . S
Li1673 O1733 1.956 . S
Li1673 O1735 1.961 . S
Li1674 N1719 1.990 . S
Li1674 O1732 1.961 . S
Li1674 O1734 1.956 . S
Li1674 O1735 1.970 . S
Li1675 N1725 1.990 . S
Li1675 O1733 1.961 . S
Li1675 O1734 1.970 . S
Li1675 O1735 1.956 . S
C1676 C1678 1.348 . S
C1676 C1679 1.356 . S
C1676 O1732 1.325 . S
N1677 C1680 1.314 . S
N1677 C1681 1.279 . S
C1678 C1676 1.348 . S
C1678 C1680 1.353 . S
C1678 H1736 0.929 . S
C1679 C1676 1.356 . S
C1679 C1681 1.358 . S
C1679 H1737 0.930 . S
C1680 N1677 1.314 . S
C1680 C1678 1.353 . S
C1680 H1738 0.930 . S
C1681 N1677 1.279 . S
C1681 C1679 1.358 . S
C1681 H1739 0.930 . S
C1682 C1685 1.348 . S
C1682 C1686 1.356 . S
C1682 O1733 1.325 . S
C1683 N1684 1.279 . S
C1683 C1686 1.358 . S
C1683 H1740 0.930 . S
N1684 C1683 1.279 . S
N1684 C1687 1.314 . S
C1685 C1682 1.348 . S
C1685 C1687 1.353 . S
C1685 H1741 0.929 . S
C1686 C1682 1.356 . S
C1686 C1683 1.358 . S
C1686 H1742 0.930 . S
C1687 N1684 1.314 . S
C1687 C1685 1.353 . S
C1687 H1743 0.930 . S
C1688 N1689 1.314 . S
C1688 C1693 1.353 . S
C1688 H1694 0.930 . S
N1689 Li1672 1.990 . S
N1689 C1688 1.314 . S
N1689 C1691 1.279 . S
C1690 C1691 1.358 . S
C1690 C1692 1.356 . S
C1690 H1744 0.930 . S
C1691 N1689 1.279 . S
C1691 C1690 1.358 . S
C1691 H1695 0.930 . S
C1692 C1690 1.356 . S
C1692 C1693 1.348 . S
C1693 C1688 1.353 . S
C1693 C1692 1.348 . S
C1693 H1745 0.929 . S
H1694 C1688 0.930 . S
H1695 C1691 0.930 . S
C1696 N1697 1.314 . S
C1696 C1698 1.353 . S
C1696 H1702 0.930 . S
N1697 Li1673 1.990 . S
N1697 C1696 1.314 . S
N1697 C1700 1.279 . S
C1698 C1696 1.353 . S
C1698 C1701 1.348 . S
C1698 H1746 0.929 . S
C1699 C1700 1.358 . S
C1699 C1701 1.356 . S
C1699 H1747 0.930 . S
C1700 N1697 1.279 . S
C1700 C1699 1.358 . S
C1700 H1703 0.930 . S
C1701 C1698 1.348 . S
C1701 C1699 1.356 . S
H1702 C1696 0.930 . S
H1703 C1700 0.930 . S
C1704 C1706 1.348 . S
C1704 C1707 1.356 . S
C1704 O1734 1.325 . S
N1705 C1708 1.314 . S
N1705 C1709 1.279 . S
C1706 C1704 1.348 . S
C1706 C1708 1.353 . S
C1706 H1748 0.929 . S
C1707 C1704 1.356 . S
C1707 C1709 1.358 . S
C1707 H1749 0.930 . S
C1708 N1705 1.314 . S
C1708 C1706 1.353 . S
C1708 H1750 0.930 . S
C1709 N1705 1.279 . S
C1709 C1707 1.358 . S
C1709 H1751 0.930 . S
C1710 C1711 1.348 . S
C1710 C1712 1.356 . S
C1710 O1735 1.325 . S
C1711 C1710 1.348 . S
C1711 C1713 1.353 . S
C1711 H1752 0.929 . S
C1712 C1710 1.356 . S
C1712 C1714 1.358 . S
C1712 H1753 0.930 . S
C1713 C1711 1.353 . S
C1713 N1715 1.314 . S
C1713 H1754 0.930 . S
C1714 C1712 1.358 . S
C1714 N1715 1.279 . S
C1714 H1755 0.930 . S
N1715 C1713 1.314 . S
N1715 C1714 1.279 . S
C1716 C1718 1.353 . S
C1716 N1719 1.314 . S
C1716 H1722 0.930 . S
C1717 N1719 1.279 . S
C1717 C1720 1.358 . S
C1717 H1723 0.930 . S
C1718 C1716 1.353 . S
C1718 C1721 1.348 . S
C1718 H1756 0.929 . S
N1719 Li1674 1.990 . S
N1719 C1716 1.314 . S
N1719 C1717 1.279 . S
C1720 C1717 1.358 . S
C1720 C1721 1.356 . S
C1720 H1757 0.930 . S
C1721 C1718 1.348 . S
C1721 C1720 1.356 . S
H1722 C1716 0.930 . S
H1723 C1717 0.930 . S
C1724 N1725 1.314 . S
C1724 C1726 1.353 . S
C1724 H1730 0.930 . S
N1725 Li1675 1.990 . S
N1725 C1724 1.314 . S
N1725 C1728 1.279 . S
C1726 C1724 1.353 . S
C1726 C1729 1.348 . S
C1726 H1758 0.929 . S
C1727 C1728 1.358 . S
C1727 C1729 1.356 . S
C1727 H1759 0.930 . S
C1728 N1725 1.279 . S
C1728 C1727 1.358 . S
C1728 H1731 0.930 . S
C1729 C1726 1.348 . S
C1729 C1727 1.356 . S
H1730 C1724 0.930 . S
H1731 C1728 0.930 . S
O1732 Li1672 1.956 . S
O1732 Li1673 1.970 . S
O1732 Li1674 1.961 . S
O1732 C1676 1.325 . S
O1733 Li1672 1.970 . S
O1733 Li1673 1.956 . S
O1733 Li1675 1.961 . S
O1733 C1682 1.325 . S
O1734 Li1672 1.961 . S
O1734 Li1674 1.956 . S
O1734 Li1675 1.970 . S
O1734 C1704 1.325 . S
O1735 Li1673 1.961 . S
O1735 Li1674 1.970 . S
O1735 Li1675 1.956 . S
O1735 C1710 1.325 . S
H1736 C1678 0.929 . S
H1737 C1679 0.930 . S
H1738 C1680 0.930 . S
H1739 C1681 0.930 . S
H1740 C1683 0.930 . S
H1741 C1685 0.929 . S
H1742 C1686 0.930 . S
H1743 C1687 0.930 . S
H1744 C1690 0.930 . S
H1745 C1693 0.929 . S
H1746 C1698 0.929 . S
H1747 C1699 0.930 . S
H1748 C1706 0.929 . S
H1749 C1707 0.930 . S
H1750 C1708 0.930 . S
H1751 C1709 0.930 . S
H1752 C1711 0.929 . S
H1753 C1712 0.930 . S
H1754 C1713 0.930 . S
H1755 C1714 0.930 . S
H1756 C1718 0.929 . S
H1757 C1720 0.930 . S
H1758 C1726 0.929 . S
H1759 C1727 0.930 . S
Li1760 N1777 1.990 . S
Li1760 O1820 1.956 . S
Li1760 O1821 1.970 . S
Li1760 O1822 1.961 . S
Li1761 N1785 1.990 . S
Li1761 O1820 1.970 . S
Li1761 O1821 1.956 . S
Li1761 O1823 1.961 . S
Li1762 N1807 1.990 . S
Li1762 O1820 1.961 . S
Li1762 O1822 1.956 . S
Li1762 O1823 1.970 . S
Li1763 N1813 1.990 . S
Li1763 O1821 1.961 . S
Li1763 O1822 1.970 . S
Li1763 O1823 1.956 . S
C1764 C1766 1.348 . S
C1764 C1767 1.356 . S
C1764 O1820 1.325 . S
N1765 C1768 1.314 . S
N1765 C1769 1.279 . S
C1766 C1764 1.348 . S
C1766 C1768 1.353 . S
C1766 H1824 0.929 . S
C1767 C1764 1.356 . S
C1767 C1769 1.358 . S
C1767 H1825 0.930 . S
C1768 N1765 1.314 . S
C1768 C1766 1.353 . S
C1768 H1826 0.930 . S
C1769 N1765 1.279 . S
C1769 C1767 1.358 . S
C1769 H1827 0.930 . S
C1770 C1773 1.348 . S
C1770 C1774 1.356 . S
C1770 O1821 1.325 . S
C1771 N1772 1.279 . S
C1771 C1774 1.358 . S
C1771 H1828 0.930 . S
N1772 C1771 1.279 . S
N1772 C1775 1.314 . S
C1773 C1770 1.348 . S
C1773 C1775 1.353 . S
C1773 H1829 0.929 . S
C1774 C1770 1.356 . S
C1774 C1771 1.358 . S
C1774 H1830 0.930 . S
C1775 N1772 1.314 . S
C1775 C1773 1.353 . S
C1775 H1831 0.930 . S
C1776 N1777 1.314 . S
C1776 C1781 1.353 . S
C1776 H1782 0.930 . S
N1777 Li1760 1.990 . S
N1777 C1776 1.314 . S
N1777 C1779 1.279 . S
C1778 C1779 1.358 . S
C1778 C1780 1.356 . S
C1778 H1832 0.930 . S
C1779 N1777 1.279 . S
C1779 C1778 1.358 . S
C1779 H1783 0.930 . S
C1780 C1778 1.356 . S
C1780 C1781 1.348 . S
C1781 C1776 1.353 . S
C1781 C1780 1.348 . S
C1781 H1833 0.929 . S
H1782 C1776 0.930 . S
H1783 C1779 0.930 . S
C1784 N1785 1.314 . S
C1784 C1786 1.353 . S
C1784 H1790 0.930 . S
N1785 Li1761 1.990 . S
N1785 C1784 1.314 . S
N1785 C1788 1.279 . S
C1786 C1784 1.353 . S
C1786 C1789 1.348 . S
C1786 H1834 0.929 . S
C1787 C1788 1.358 . S
C1787 C1789 1.356 . S
C1787 H1835 0.930 . S
C1788 N1785 1.279 . S
C1788 C1787 1.358 . S
C1788 H1791 0.930 . S
C1789 C1786 1.348 . S
C1789 C1787 1.356 . S
H1790 C1784 0.930 . S
H1791 C1788 0.930 . S
C1792 C1794 1.348 . S
C1792 C1795 1.356 . S
C1792 O1822 1.325 . S
N1793 C1796 1.314 . S
N1793 C1797 1.279 . S
C1794 C1792 1.348 . S
C1794 C1796 1.353 . S
C1794 H1836 0.929 . S
C1795 C1792 1.356 . S
C1795 C1797 1.358 . S
C1795 H1837 0.930 . S
C1796 N1793 1.314 . S
C1796 C1794 1.353 . S
C1796 H1838 0.930 . S
C1797 N1793 1.279 . S
C1797 C1795 1.358 . S
C1797 H1839 0.930 . S
C1798 C1799 1.348 . S
C1798 C1800 1.356 . S
C1798 O1823 1.325 . S
C1799 C1798 1.348 . S
C1799 C1801 1.353 . S
C1799 H1840 0.929 . S
C1800 C1798 1.356 . S
C1800 C1802 1.358 . S
C1800 H1841 0.930 . S
C1801 C1799 1.353 . S
C1801 N1803 1.314 . S
C1801 H1842 0.930 . S
C1802 C1800 1.358 . S
C1802 N1803 1.279 . S
C1802 H1843 0.930 . S
N1803 C1801 1.314 . S
N1803 C1802 1.279 . S
C1804 C1806 1.353 . S
C1804 N1807 1.314 . S
C1804 H1810 0.930 . S
C1805 N1807 1.279 . S
C1805 C1808 1.358 . S
C1805 H1811 0.930 . S
C1806 C1804 1.353 . S
C1806 C1809 1.348 . S
C1806 H1844 0.929 . S
N1807 Li1762 1.990 . S
N1807 C1804 1.314 . S
N1807 C1805 1.279 . S
C1808 C1805 1.358 . S
C1808 C1809 1.356 . S
C1808 H1845 0.930 . S
C1809 C1806 1.348 . S
C1809 C1808 1.356 . S
H1810 C1804 0.930 . S
H1811 C1805 0.930 . S
C1812 N1813 1.314 . S
C1812 C1814 1.353 . S
C1812 H1818 0.930 . S
N1813 Li1763 1.990 . S
N1813 C1812 1.314 . S
N1813 C1816 1.279 . S
C1814 C1812 1.353 . S
C1814 C1817 1.348 . S
C1814 H1846 0.929 . S
C1815 C1816 1.358 . S
C1815 C1817 1.356 . S
C1815 H1847 0.930 . S
C1816 N1813 1.279 . S
C1816 C1815 1.358 . S
C1816 H1819 0.930 . S
C1817 C1814 1.348 . S
C1817 C1815 1.356 . S
H1818 C1812 0.930 . S
H1819 C1816 0.930 . S
O1820 Li1760 1.956 . S
O1820 Li1761 1.970 . S
O1820 Li1762 1.961 . S
O1820 C1764 1.325 . S
O1821 Li1760 1.970 . S
O1821 Li1761 1.956 . S
O1821 Li1763 1.961 . S
O1821 C1770 1.325 . S
O1822 Li1760 1.961 . S
O1822 Li1762 1.956 . S
O1822 Li1763 1.970 . S
O1822 C1792 1.325 . S
O1823 Li1761 1.961 . S
O1823 Li1762 1.970 . S
O1823 Li1763 1.956 . S
O1823 C1798 1.325 . S
H1824 C1766 0.929 . S
H1825 C1767 0.930 . S
H1826 C1768 0.930 . S
H1827 C1769 0.930 . S
H1828 C1771 0.930 . S
H1829 C1773 0.929 . S
H1830 C1774 0.930 . S
H1831 C1775 0.930 . S
H1832 C1778 0.930 . S
H1833 C1781 0.929 . S
H1834 C1786 0.929 . S
H1835 C1787 0.930 . S
H1836 C1794 0.929 . S
H1837 C1795 0.930 . S
H1838 C1796 0.930 . S
H1839 C1797 0.930 . S
H1840 C1799 0.929 . S
H1841 C1800 0.930 . S
H1842 C1801 0.930 . S
H1843 C1802 0.930 . S
H1844 C1806 0.929 . S
H1845 C1808 0.930 . S
H1846 C1814 0.929 . S
H1847 C1815 0.930 . S
Li1848 N1865 1.990 . S
Li1848 O1908 1.956 . S
Li1848 O1909 1.970 . S
Li1848 O1910 1.961 . S
Li1849 N1873 1.990 . S
Li1849 O1908 1.970 . S
Li1849 O1909 1.956 . S
Li1849 O1911 1.961 . S
Li1850 N1895 1.990 . S
Li1850 O1908 1.961 . S
Li1850 O1910 1.956 . S
Li1850 O1911 1.970 . S
Li1851 N1901 1.990 . S
Li1851 O1909 1.961 . S
Li1851 O1910 1.970 . S
Li1851 O1911 1.956 . S
C1852 C1854 1.348 . S
C1852 C1855 1.356 . S
C1852 O1908 1.325 . S
N1853 C1856 1.314 . S
N1853 C1857 1.279 . S
C1854 C1852 1.348 . S
C1854 C1856 1.353 . S
C1854 H1912 0.929 . S
C1855 C1852 1.356 . S
C1855 C1857 1.358 . S
C1855 H1913 0.930 . S
C1856 N1853 1.314 . S
C1856 C1854 1.353 . S
C1856 H1914 0.930 . S
C1857 N1853 1.279 . S
C1857 C1855 1.358 . S
C1857 H1915 0.930 . S
C1858 C1861 1.348 . S
C1858 C1862 1.356 . S
C1858 O1909 1.325 . S
C1859 N1860 1.279 . S
C1859 C1862 1.358 . S
C1859 H1916 0.930 . S
N1860 C1859 1.279 . S
N1860 C1863 1.314 . S
C1861 C1858 1.348 . S
C1861 C1863 1.353 . S
C1861 H1917 0.929 . S
C1862 C1858 1.356 . S
C1862 C1859 1.358 . S
C1862 H1918 0.930 . S
C1863 N1860 1.314 . S
C1863 C1861 1.353 . S
C1863 H1919 0.930 . S
C1864 N1865 1.314 . S
C1864 C1869 1.353 . S
C1864 H1870 0.930 . S
N1865 Li1848 1.990 . S
N1865 C1864 1.314 . S
N1865 C1867 1.279 . S
C1866 C1867 1.358 . S
C1866 C1868 1.356 . S
C1866 H1920 0.930 . S
C1867 N1865 1.279 . S
C1867 C1866 1.358 . S
C1867 H1871 0.930 . S
C1868 C1866 1.356 . S
C1868 C1869 1.348 . S
C1869 C1864 1.353 . S
C1869 C1868 1.348 . S
C1869 H1921 0.929 . S
H1870 C1864 0.930 . S
H1871 C1867 0.930 . S
C1872 N1873 1.314 . S
C1872 C1874 1.353 . S
C1872 H1878 0.930 . S
N1873 Li1849 1.990 . S
N1873 C1872 1.314 . S
N1873 C1876 1.279 . S
C1874 C1872 1.353 . S
C1874 C1877 1.348 . S
C1874 H1922 0.929 . S
C1875 C1876 1.358 . S
C1875 C1877 1.356 . S
C1875 H1923 0.930 . S
C1876 N1873 1.279 . S
C1876 C1875 1.358 . S
C1876 H1879 0.930 . S
C1877 C1874 1.348 . S
C1877 C1875 1.356 . S
H1878 C1872 0.930 . S
H1879 C1876 0.930 . S
C1880 C1882 1.348 . S
C1880 C1883 1.356 . S
C1880 O1910 1.325 . S
N1881 C1884 1.314 . S
N1881 C1885 1.279 . S
C1882 C1880 1.348 . S
C1882 C1884 1.353 . S
C1882 H1924 0.929 . S
C1883 C1880 1.356 . S
C1883 C1885 1.358 . S
C1883 H1925 0.930 . S
C1884 N1881 1.314 . S
C1884 C1882 1.353 . S
C1884 H1926 0.930 . S
C1885 N1881 1.279 . S
C1885 C1883 1.358 . S
C1885 H1927 0.930 . S
C1886 C1887 1.348 . S
C1886 C1888 1.356 . S
C1886 O1911 1.325 . S
C1887 C1886 1.348 . S
C1887 C1889 1.353 . S
C1887 H1928 0.929 . S
C1888 C1886 1.356 . S
C1888 C1890 1.358 . S
C1888 H1929 0.930 . S
C1889 C1887 1.353 . S
C1889 N1891 1.314 . S
C1889 H1930 0.930 . S
C1890 C1888 1.358 . S
C1890 N1891 1.279 . S
C1890 H1931 0.930 . S
N1891 C1889 1.314 . S
N1891 C1890 1.279 . S
C1892 C1894 1.353 . S
C1892 N1895 1.314 . S
C1892 H1898 0.930 . S
C1893 N1895 1.279 . S
C1893 C1896 1.358 . S
C1893 H1899 0.930 . S
C1894 C1892 1.353 . S
C1894 C1897 1.348 . S
C1894 H1932 0.929 . S
N1895 Li1850 1.990 . S
N1895 C1892 1.314 . S
N1895 C1893 1.279 . S
C1896 C1893 1.358 . S
C1896 C1897 1.356 . S
C1896 H1933 0.930 . S
C1897 C1894 1.348 . S
C1897 C1896 1.356 . S
H1898 C1892 0.930 . S
H1899 C1893 0.930 . S
C1900 N1901 1.314 . S
C1900 C1902 1.353 . S
C1900 H1906 0.930 . S
N1901 Li1851 1.990 . S
N1901 C1900 1.314 . S
N1901 C1904 1.279 . S
C1902 C1900 1.353 . S
C1902 C1905 1.348 . S
C1902 H1934 0.929 . S
C1903 C1904 1.358 . S
C1903 C1905 1.356 . S
C1903 H1935 0.930 . S
C1904 N1901 1.279 . S
C1904 C1903 1.358 . S
C1904 H1907 0.930 . S
C1905 C1902 1.348 . S
C1905 C1903 1.356 . S
H1906 C1900 0.930 . S
H1907 C1904 0.930 . S
O1908 Li1848 1.956 . S
O1908 Li1849 1.970 . S
O1908 Li1850 1.961 . S
O1908 C1852 1.325 . S
O1909 Li1848 1.970 . S
O1909 Li1849 1.956 . S
O1909 Li1851 1.961 . S
O1909 C1858 1.325 . S
O1910 Li1848 1.961 . S
O1910 Li1850 1.956 . S
O1910 Li1851 1.970 . S
O1910 C1880 1.325 . S
O1911 Li1849 1.961 . S
O1911 Li1850 1.970 . S
O1911 Li1851 1.956 . S
O1911 C1886 1.325 . S
H1912 C1854 0.929 . S
H1913 C1855 0.930 . S
H1914 C1856 0.930 . S
H1915 C1857 0.930 . S
H1916 C1859 0.930 . S
H1917 C1861 0.929 . S
H1918 C1862 0.930 . S
H1919 C1863 0.930 . S
H1920 C1866 0.930 . S
H1921 C1869 0.929 . S
H1922 C1874 0.929 . S
H1923 C1875 0.930 . S
H1924 C1882 0.929 . S
H1925 C1883 0.930 . S
H1926 C1884 0.930 . S
H1927 C1885 0.930 . S
H1928 C1887 0.929 . S
H1929 C1888 0.930 . S
H1930 C1889 0.930 . S
H1931 C1890 0.930 . S
H1932 C1894 0.929 . S
H1933 C1896 0.930 . S
H1934 C1902 0.929 . S
H1935 C1903 0.930 . S
Li1936 N1953 1.990 . S
Li1936 O1996 1.956 . S
Li1936 O1997 1.970 . S
Li1936 O1998 1.961 . S
Li1937 N1961 1.990 . S
Li1937 O1996 1.970 . S
Li1937 O1997 1.956 . S
Li1937 O1999 1.961 . S
Li1938 N1983 1.990 . S
Li1938 O1996 1.961 . S
Li1938 O1998 1.956 . S
Li1938 O1999 1.970 . S
Li1939 N1989 1.990 . S
Li1939 O1997 1.961 . S
Li1939 O1998 1.970 . S
Li1939 O1999 1.956 . S
C1940 C1942 1.348 . S
C1940 C1943 1.356 . S
C1940 O1996 1.325 . S
N1941 C1944 1.314 . S
N1941 C1945 1.279 . S
C1942 C1940 1.348 . S
C1942 C1944 1.353 . S
C1942 H2000 0.929 . S
C1943 C1940 1.356 . S
C1943 C1945 1.358 . S
C1943 H2001 0.930 . S
C1944 N1941 1.314 . S
C1944 C1942 1.353 . S
C1944 H2002 0.930 . S
C1945 N1941 1.279 . S
C1945 C1943 1.358 . S
C1945 H2003 0.930 . S
C1946 C1949 1.348 . S
C1946 C1950 1.356 . S
C1946 O1997 1.325 . S
C1947 N1948 1.279 . S
C1947 C1950 1.358 . S
C1947 H2004 0.930 . S
N1948 C1947 1.279 . S
N1948 C1951 1.314 . S
C1949 C1946 1.348 . S
C1949 C1951 1.353 . S
C1949 H2005 0.929 . S
C1950 C1946 1.356 . S
C1950 C1947 1.358 . S
C1950 H2006 0.930 . S
C1951 N1948 1.314 . S
C1951 C1949 1.353 . S
C1951 H2007 0.930 . S
C1952 N1953 1.314 . S
C1952 C1957 1.353 . S
C1952 H1958 0.930 . S
N1953 Li1936 1.990 . S
N1953 C1952 1.314 . S
N1953 C1955 1.279 . S
C1954 C1955 1.358 . S
C1954 C1956 1.356 . S
C1954 H2008 0.930 . S
C1955 N1953 1.279 . S
C1955 C1954 1.358 . S
C1955 H1959 0.930 . S
C1956 C1954 1.356 . S
C1956 C1957 1.348 . S
C1957 C1952 1.353 . S
C1957 C1956 1.348 . S
C1957 H2009 0.929 . S
H1958 C1952 0.930 . S
H1959 C1955 0.930 . S
C1960 N1961 1.314 . S
C1960 C1962 1.353 . S
C1960 H1966 0.930 . S
N1961 Li1937 1.990 . S
N1961 C1960 1.314 . S
N1961 C1964 1.279 . S
C1962 C1960 1.353 . S
C1962 C1965 1.348 . S
C1962 H2010 0.929 . S
C1963 C1964 1.358 . S
C1963 C1965 1.356 . S
C1963 H2011 0.930 . S
C1964 N1961 1.279 . S
C1964 C1963 1.358 . S
C1964 H1967 0.930 . S
C1965 C1962 1.348 . S
C1965 C1963 1.356 . S
H1966 C1960 0.930 . S
H1967 C1964 0.930 . S
C1968 C1970 1.348 . S
C1968 C1971 1.356 . S
C1968 O1998 1.325 . S
N1969 C1972 1.314 . S
N1969 C1973 1.279 . S
C1970 C1968 1.348 . S
C1970 C1972 1.353 . S
C1970 H2012 0.929 . S
C1971 C1968 1.356 . S
C1971 C1973 1.358 . S
C1971 H2013 0.930 . S
C1972 N1969 1.314 . S
C1972 C1970 1.353 . S
C1972 H2014 0.930 . S
C1973 N1969 1.279 . S
C1973 C1971 1.358 . S
C1973 H2015 0.930 . S
C1974 C1975 1.348 . S
C1974 C1976 1.356 . S
C1974 O1999 1.325 . S
C1975 C1974 1.348 . S
C1975 C1977 1.353 . S
C1975 H2016 0.929 . S
C1976 C1974 1.356 . S
C1976 C1978 1.358 . S
C1976 H2017 0.930 . S
C1977 C1975 1.353 . S
C1977 N1979 1.314 . S
C1977 H2018 0.930 . S
C1978 C1976 1.358 . S
C1978 N1979 1.279 . S
C1978 H2019 0.930 . S
N1979 C1977 1.314 . S
N1979 C1978 1.279 . S
C1980 C1982 1.353 . S
C1980 N1983 1.314 . S
C1980 H1986 0.930 . S
C1981 N1983 1.279 . S
C1981 C1984 1.358 . S
C1981 H1987 0.930 . S
C1982 C1980 1.353 . S
C1982 C1985 1.348 . S
C1982 H2020 0.929 . S
N1983 Li1938 1.990 . S
N1983 C1980 1.314 . S
N1983 C1981 1.279 . S
C1984 C1981 1.358 . S
C1984 C1985 1.356 . S
C1984 H2021 0.930 . S
C1985 C1982 1.348 . S
C1985 C1984 1.356 . S
H1986 C1980 0.930 . S
H1987 C1981 0.930 . S
C1988 N1989 1.314 . S
C1988 C1990 1.353 . S
C1988 H1994 0.930 . S
N1989 Li1939 1.990 . S
N1989 C1988 1.314 . S
N1989 C1992 1.279 . S
C1990 C1988 1.353 . S
C1990 C1993 1.348 . S
C1990 H2022 0.929 . S
C1991 C1992 1.358 . S
C1991 C1993 1.356 . S
C1991 H2023 0.930 . S
C1992 N1989 1.279 . S
C1992 C1991 1.358 . S
C1992 H1995 0.930 . S
C1993 C1990 1.348 . S
C1993 C1991 1.356 . S
H1994 C1988 0.930 . S
H1995 C1992 0.930 . S
O1996 Li1936 1.956 . S
O1996 Li1937 1.970 . S
O1996 Li1938 1.961 . S
O1996 C1940 1.325 . S
O1997 Li1936 1.970 . S
O1997 Li1937 1.956 . S
O1997 Li1939 1.961 . S
O1997 C1946 1.325 . S
O1998 Li1936 1.961 . S
O1998 Li1938 1.956 . S
O1998 Li1939 1.970 . S
O1998 C1968 1.325 . S
O1999 Li1937 1.961 . S
O1999 Li1938 1.970 . S
O1999 Li1939 1.956 . S
O1999 C1974 1.325 . S
H2000 C1942 0.929 . S
H2001 C1943 0.930 . S
H2002 C1944 0.930 . S
H2003 C1945 0.930 . S
H2004 C1947 0.930 . S
H2005 C1949 0.929 . S
H2006 C1950 0.930 . S
H2007 C1951 0.930 . S
H2008 C1954 0.930 . S
H2009 C1957 0.929 . S
H2010 C1962 0.929 . S
H2011 C1963 0.930 . S
H2012 C1970 0.929 . S
H2013 C1971 0.930 . S
H2014 C1972 0.930 . S
H2015 C1973 0.930 . S
H2016 C1975 0.929 . S
H2017 C1976 0.930 . S
H2018 C1977 0.930 . S
H2019 C1978 0.930 . S
H2020 C1982 0.929 . S
H2021 C1984 0.930 . S
H2022 C1990 0.929 . S
H2023 C1991 0.930 . S
Li2024 N2041 1.990 . S
Li2024 O2084 1.956 . S
Li2024 O2085 1.970 . S
Li2024 O2086 1.961 . S
Li2025 N2049 1.990 . S
Li2025 O2084 1.970 . S
Li2025 O2085 1.956 . S
Li2025 O2087 1.961 . S
Li2026 N2071 1.990 . S
Li2026 O2084 1.961 . S
Li2026 O2086 1.956 . S
Li2026 O2087 1.970 . S
Li2027 N2077 1.990 . S
Li2027 O2085 1.961 . S
Li2027 O2086 1.970 . S
Li2027 O2087 1.956 . S
C2028 C2030 1.348 . S
C2028 C2031 1.356 . S
C2028 O2084 1.325 . S
N2029 C2032 1.314 . S
N2029 C2033 1.279 . S
C2030 C2028 1.348 . S
C2030 C2032 1.353 . S
C2030 H2088 0.929 . S
C2031 C2028 1.356 . S
C2031 C2033 1.358 . S
C2031 H2089 0.930 . S
C2032 N2029 1.314 . S
C2032 C2030 1.353 . S
C2032 H2090 0.930 . S
C2033 N2029 1.279 . S
C2033 C2031 1.358 . S
C2033 H2091 0.930 . S
C2034 C2037 1.348 . S
C2034 C2038 1.356 . S
C2034 O2085 1.325 . S
C2035 N2036 1.279 . S
C2035 C2038 1.358 . S
C2035 H2092 0.930 . S
N2036 C2035 1.279 . S
N2036 C2039 1.314 . S
C2037 C2034 1.348 . S
C2037 C2039 1.353 . S
C2037 H2093 0.929 . S
C2038 C2034 1.356 . S
C2038 C2035 1.358 . S
C2038 H2094 0.930 . S
C2039 N2036 1.314 . S
C2039 C2037 1.353 . S
C2039 H2095 0.930 . S
C2040 N2041 1.314 . S
C2040 C2045 1.353 . S
C2040 H2046 0.930 . S
N2041 Li2024 1.990 . S
N2041 C2040 1.314 . S
N2041 C2043 1.279 . S
C2042 C2043 1.358 . S
C2042 C2044 1.356 . S
C2042 H2096 0.930 . S
C2043 N2041 1.279 . S
C2043 C2042 1.358 . S
C2043 H2047 0.930 . S
C2044 C2042 1.356 . S
C2044 C2045 1.348 . S
C2045 C2040 1.353 . S
C2045 C2044 1.348 . S
C2045 H2097 0.929 . S
H2046 C2040 0.930 . S
H2047 C2043 0.930 . S
C2048 N2049 1.314 . S
C2048 C2050 1.353 . S
C2048 H2054 0.930 . S
N2049 Li2025 1.990 . S
N2049 C2048 1.314 . S
N2049 C2052 1.279 . S
C2050 C2048 1.353 . S
C2050 C2053 1.348 . S
C2050 H2098 0.929 . S
C2051 C2052 1.358 . S
C2051 C2053 1.356 . S
C2051 H2099 0.930 . S
C2052 N2049 1.279 . S
C2052 C2051 1.358 . S
C2052 H2055 0.930 . S
C2053 C2050 1.348 . S
C2053 C2051 1.356 . S
H2054 C2048 0.930 . S
H2055 C2052 0.930 . S
C2056 C2058 1.348 . S
C2056 C2059 1.356 . S
C2056 O2086 1.325 . S
N2057 C2060 1.314 . S
N2057 C2061 1.279 . S
C2058 C2056 1.348 . S
C2058 C2060 1.353 . S
C2058 H2100 0.929 . S
C2059 C2056 1.356 . S
C2059 C2061 1.358 . S
C2059 H2101 0.930 . S
C2060 N2057 1.314 . S
C2060 C2058 1.353 . S
C2060 H2102 0.930 . S
C2061 N2057 1.279 . S
C2061 C2059 1.358 . S
C2061 H2103 0.930 . S
C2062 C2063 1.348 . S
C2062 C2064 1.356 . S
C2062 O2087 1.325 . S
C2063 C2062 1.348 . S
C2063 C2065 1.353 . S
C2063 H2104 0.929 . S
C2064 C2062 1.356 . S
C2064 C2066 1.358 . S
C2064 H2105 0.930 . S
C2065 C2063 1.353 . S
C2065 N2067 1.314 . S
C2065 H2106 0.930 . S
C2066 C2064 1.358 . S
C2066 N2067 1.279 . S
C2066 H2107 0.930 . S
N2067 C2065 1.314 . S
N2067 C2066 1.279 . S
C2068 C2070 1.353 . S
C2068 N2071 1.314 . S
C2068 H2074 0.930 . S
C2069 N2071 1.279 . S
C2069 C2072 1.358 . S
C2069 H2075 0.930 . S
C2070 C2068 1.353 . S
C2070 C2073 1.348 . S
C2070 H2108 0.929 . S
N2071 Li2026 1.990 . S
N2071 C2068 1.314 . S
N2071 C2069 1.279 . S
C2072 C2069 1.358 . S
C2072 C2073 1.356 . S
C2072 H2109 0.930 . S
C2073 C2070 1.348 . S
C2073 C2072 1.356 . S
H2074 C2068 0.930 . S
H2075 C2069 0.930 . S
C2076 N2077 1.314 . S
C2076 C2078 1.353 . S
C2076 H2082 0.930 . S
N2077 Li2027 1.990 . S
N2077 C2076 1.314 . S
N2077 C2080 1.279 . S
C2078 C2076 1.353 . S
C2078 C2081 1.348 . S
C2078 H2110 0.929 . S
C2079 C2080 1.358 . S
C2079 C2081 1.356 . S
C2079 H2111 0.930 . S
C2080 N2077 1.279 . S
C2080 C2079 1.358 . S
C2080 H2083 0.930 . S
C2081 C2078 1.348 . S
C2081 C2079 1.356 . S
H2082 C2076 0.930 . S
H2083 C2080 0.930 . S
O2084 Li2024 1.956 . S
O2084 Li2025 1.970 . S
O2084 Li2026 1.961 . S
O2084 C2028 1.325 . S
O2085 Li2024 1.970 . S
O2085 Li2025 1.956 . S
O2085 Li2027 1.961 . S
O2085 C2034 1.325 . S
O2086 Li2024 1.961 . S
O2086 Li2026 1.956 . S
O2086 Li2027 1.970 . S
O2086 C2056 1.325 . S
O2087 Li2025 1.961 . S
O2087 Li2026 1.970 . S
O2087 Li2027 1.956 . S
O2087 C2062 1.325 . S
H2088 C2030 0.929 . S
H2089 C2031 0.930 . S
H2090 C2032 0.930 . S
H2091 C2033 0.930 . S
H2092 C2035 0.930 . S
H2093 C2037 0.929 . S
H2094 C2038 0.930 . S
H2095 C2039 0.930 . S
H2096 C2042 0.930 . S
H2097 C2045 0.929 . S
H2098 C2050 0.929 . S
H2099 C2051 0.930 . S
H2100 C2058 0.929 . S
H2101 C2059 0.930 . S
H2102 C2060 0.930 . S
H2103 C2061 0.930 . S
H2104 C2063 0.929 . S
H2105 C2064 0.930 . S
H2106 C2065 0.930 . S
H2107 C2066 0.930 . S
H2108 C2070 0.929 . S
H2109 C2072 0.930 . S
H2110 C2078 0.929 . S
H2111 C2079 0.930 . S
H2112 C2120 0.950 . S
H2113 C2125 0.950 . S
H2114 C2122 0.950 . S
H2115 C2124 0.950 . S
H2116 C2126 0.950 . S
H2117 C2128 0.950 . S
H2118 C2130 0.950 . S
H2119 C2131 0.950 . S
C2120 H2112 0.950 . S
C2120 C2121 1.386 . S
C2120 C2122 1.391 . S
C2121 C2120 1.386 . S
C2121 C2125 1.393 . S
C2122 H2114 0.950 . S
C2122 C2120 1.391 . S
C2122 C2123 1.400 . S
C2123 C2122 1.400 . S
C2123 C2124 1.398 . S
C2123 C2129 1.491 1_545 S
C2124 H2115 0.950 . S
C2124 C2123 1.398 . S
C2124 C2125 1.391 . S
C2125 H2113 0.950 . S
C2125 C2121 1.393 . S
C2125 C2124 1.391 . S
C2126 H2116 0.950 . S
C2126 C2127 1.386 . S
C2126 C2128 1.391 . S
C2127 C2126 1.386 . S
C2127 C2131 1.393 . S
C2128 H2117 0.950 . S
C2128 C2126 1.391 . S
C2128 C2129 1.400 . S
C2129 C2123 1.491 1_565 S
C2129 C2128 1.400 . S
C2129 C2130 1.398 . S
C2130 H2118 0.950 . S
C2130 C2129 1.398 . S
C2130 C2131 1.391 . S
C2131 H2119 0.950 . S
C2131 C2127 1.393 . S
C2131 C2130 1.391 . S
H2132 C2140 0.950 . S
H2133 C2145 0.950 . S
H2134 C2142 0.950 . S
H2135 C2144 0.950 . S
H2136 C2146 0.950 . S
H2137 C2148 0.950 . S
H2138 C2150 0.950 . S
H2139 C2151 0.950 . S
C2140 H2132 0.950 . S
C2140 C2141 1.386 . S
C2140 C2142 1.391 . S
C2141 C2140 1.386 . S
C2141 C2145 1.393 . S
C2142 H2134 0.950 . S
C2142 C2140 1.391 . S
C2142 C2143 1.400 . S
C2143 C2142 1.400 . S
C2143 C2144 1.398 . S
C2143 C2149 1.491 . S
C2144 H2135 0.950 . S
C2144 C2143 1.398 . S
C2144 C2145 1.391 . S
C2145 H2133 0.950 . S
C2145 C2141 1.393 . S
C2145 C2144 1.391 . S
C2146 H2136 0.950 . S
C2146 C2147 1.386 . S
C2146 C2148 1.391 . S
C2147 C2146 1.386 . S
C2147 C2151 1.393 . S
C2148 H2137 0.950 . S
C2148 C2146 1.391 . S
C2148 C2149 1.400 . S
C2149 C2143 1.491 . S
C2149 C2148 1.400 . S
C2149 C2150 1.398 . S
C2150 H2138 0.950 . S
C2150 C2149 1.398 . S
C2150 C2151 1.391 . S
C2151 H2139 0.950 . S
C2151 C2147 1.393 . S
C2151 C2150 1.391 . S
H2152 C2160 0.950 . S
H2153 C2165 0.950 . S
H2154 C2162 0.950 . S
H2155 C2164 0.950 . S
H2156 C2166 0.950 . S
H2157 C2168 0.950 . S
H2158 C2170 0.950 . S
H2159 C2171 0.950 . S
C2160 H2152 0.950 . S
C2160 C2161 1.386 . S
C2160 C2162 1.391 . S
C2161 C2160 1.386 . S
C2161 C2165 1.393 . S
C2162 H2154 0.950 . S
C2162 C2160 1.391 . S
C2162 C2163 1.400 . S
C2163 C2162 1.400 . S
C2163 C2164 1.398 . S
C2163 C2169 1.491 1_655 S
C2164 H2155 0.950 . S
C2164 C2163 1.398 . S
C2164 C2165 1.391 . S
C2165 H2153 0.950 . S
C2165 C2161 1.393 . S
C2165 C2164 1.391 . S
C2166 H2156 0.950 . S
C2166 C2167 1.386 . S
C2166 C2168 1.391 . S
C2167 C2166 1.386 . S
C2167 C2171 1.393 . S
C2168 H2157 0.950 . S
C2168 C2166 1.391 . S
C2168 C2169 1.400 . S
C2169 C2163 1.491 1_455 S
C2169 C2168 1.400 . S
C2169 C2170 1.398 . S
C2170 H2158 0.950 . S
C2170 C2169 1.398 . S
C2170 C2171 1.391 . S
C2171 H2159 0.950 . S
C2171 C2167 1.393 . S
C2171 C2170 1.391 . S
H2172 C2180 0.950 . S
H2173 C2185 0.950 . S
H2174 C2182 0.950 . S
H2175 C2184 0.950 . S
H2176 C2186 0.950 . S
H2177 C2188 0.950 . S
H2178 C2190 0.950 . S
H2179 C2191 0.950 . S
C2180 H2172 0.950 . S
C2180 C2181 1.386 . S
C2180 C2182 1.391 . S
C2181 C2180 1.386 . S
C2181 C2185 1.393 . S
C2182 H2174 0.950 . S
C2182 C2180 1.391 . S
C2182 C2183 1.400 . S
C2183 C2182 1.400 . S
C2183 C2184 1.398 . S
C2183 C2189 1.491 1_565 S
C2184 H2175 0.950 . S
C2184 C2183 1.398 . S
C2184 C2185 1.391 . S
C2185 H2173 0.950 . S
C2185 C2181 1.393 . S
C2185 C2184 1.391 . S
C2186 H2176 0.950 . S
C2186 C2187 1.386 . S
C2186 C2188 1.391 . S
C2187 C2186 1.386 . S
C2187 C2191 1.393 . S
C2188 H2177 0.950 . S
C2188 C2186 1.391 . S
C2188 C2189 1.400 . S
C2189 C2183 1.491 1_545 S
C2189 C2188 1.400 . S
C2189 C2190 1.398 . S
C2190 H2178 0.950 . S
C2190 C2189 1.398 . S
C2190 C2191 1.391 . S
C2191 H2179 0.950 . S
C2191 C2187 1.393 . S
C2191 C2190 1.391 . S
H2192 C2200 0.950 . S
H2193 C2205 0.950 . S
H2194 C2202 0.950 . S
H2195 C2204 0.950 . S
H2196 C2206 0.950 . S
H2197 C2208 0.950 . S
H2198 C2210 0.950 . S
H2199 C2211 0.950 . S
C2200 H2192 0.950 . S
C2200 C2201 1.386 . S
C2200 C2202 1.391 . S
C2201 C2200 1.386 . S
C2201 C2205 1.393 . S
C2202 H2194 0.950 . S
C2202 C2200 1.391 . S
C2202 C2203 1.400 . S
C2203 C2202 1.400 . S
C2203 C2204 1.398 . S
C2203 C2209 1.491 . S
C2204 H2195 0.950 . S
C2204 C2203 1.398 . S
C2204 C2205 1.391 . S
C2205 H2193 0.950 . S
C2205 C2201 1.393 . S
C2205 C2204 1.391 . S
C2206 H2196 0.950 . S
C2206 C2207 1.386 . S
C2206 C2208 1.391 . S
C2207 C2206 1.386 . S
C2207 C2211 1.393 . S
C2208 H2197 0.950 . S
C2208 C2206 1.391 . S
C2208 C2209 1.400 . S
C2209 C2203 1.491 . S
C2209 C2208 1.400 . S
C2209 C2210 1.398 . S
C2210 H2198 0.950 . S
C2210 C2209 1.398 . S
C2210 C2211 1.391 . S
C2211 H2199 0.950 . S
C2211 C2207 1.393 . S
C2211 C2210 1.391 . S
H2212 C2220 0.950 . S
H2213 C2225 0.950 . S
H2214 C2222 0.950 . S
H2215 C2224 0.950 . S
H2216 C2226 0.950 . S
H2217 C2228 0.950 . S
H2218 C2230 0.950 . S
H2219 C2231 0.950 . S
C2220 H2212 0.950 . S
C2220 C2221 1.386 . S
C2220 C2222 1.391 . S
C2221 C2220 1.386 . S
C2221 C2225 1.393 . S
C2222 H2214 0.950 . S
C2222 C2220 1.391 . S
C2222 C2223 1.400 . S
C2223 C2222 1.400 . S
C2223 C2224 1.398 . S
C2223 C2229 1.491 1_455 S
C2224 H2215 0.950 . S
C2224 C2223 1.398 . S
C2224 C2225 1.391 . S
C2225 H2213 0.950 . S
C2225 C2221 1.393 . S
C2225 C2224 1.391 . S
C2226 H2216 0.950 . S
C2226 C2227 1.386 . S
C2226 C2228 1.391 . S
C2227 C2226 1.386 . S
C2227 C2231 1.393 . S
C2228 H2217 0.950 . S
C2228 C2226 1.391 . S
C2228 C2229 1.400 . S
C2229 C2223 1.491 1_655 S
C2229 C2228 1.400 . S
C2229 C2230 1.398 . S
C2230 H2218 0.950 . S
C2230 C2229 1.398 . S
C2230 C2231 1.391 . S
C2231 H2219 0.950 . S
C2231 C2227 1.393 . S
C2231 C2230 1.391 . S
H2232 C2240 0.950 . S
H2233 C2245 0.950 . S
H2234 C2242 0.950 . S
H2235 C2244 0.950 . S
H2236 C2246 0.950 . S
H2237 C2248 0.950 . S
H2238 C2250 0.950 . S
H2239 C2251 0.950 . S
C2240 H2232 0.950 . S
C2240 C2241 1.386 . S
C2240 C2242 1.391 . S
C2241 C2240 1.386 . S
C2241 C2245 1.393 . S
C2242 H2234 0.950 . S
C2242 C2240 1.391 . S
C2242 C2243 1.400 . S
C2243 C2242 1.400 . S
C2243 C2244 1.398 . S
C2243 C2249 1.491 1_565 S
C2244 H2235 0.950 . S
C2244 C2243 1.398 . S
C2244 C2245 1.391 . S
C2245 H2233 0.950 . S
C2245 C2241 1.393 . S
C2245 C2244 1.391 . S
C2246 H2236 0.950 . S
C2246 C2247 1.386 . S
C2246 C2248 1.391 . S
C2247 C2246 1.386 . S
C2247 C2251 1.393 . S
C2248 H2237 0.950 . S
C2248 C2246 1.391 . S
C2248 C2249 1.400 . S
C2249 C2243 1.491 1_545 S
C2249 C2248 1.400 . S
C2249 C2250 1.398 . S
C2250 H2238 0.950 . S
C2250 C2249 1.398 . S
C2250 C2251 1.391 . S
C2251 H2239 0.950 . S
C2251 C2247 1.393 . S
C2251 C2250 1.391 . S
H2252 C2260 0.950 . S
H2253 C2265 0.950 . S
H2254 C2262 0.950 . S
H2255 C2264 0.950 . S
H2256 C2266 0.950 . S
H2257 C2268 0.950 . S
H2258 C2270 0.950 . S
H2259 C2271 0.950 . S
C2260 H2252 0.950 . S
C2260 C2261 1.386 . S
C2260 C2262 1.391 . S
C2261 C2260 1.386 . S
C2261 C2265 1.393 . S
C2262 H2254 0.950 . S
C2262 C2260 1.391 . S
C2262 C2263 1.400 . S
C2263 C2262 1.400 . S
C2263 C2264 1.398 . S
C2263 C2269 1.491 . S
C2264 H2255 0.950 . S
C2264 C2263 1.398 . S
C2264 C2265 1.391 . S
C2265 H2253 0.950 . S
C2265 C2261 1.393 . S
C2265 C2264 1.391 . S
C2266 H2256 0.950 . S
C2266 C2267 1.386 . S
C2266 C2268 1.391 . S
C2267 C2266 1.386 . S
C2267 C2271 1.393 . S
C2268 H2257 0.950 . S
C2268 C2266 1.391 . S
C2268 C2269 1.400 . S
C2269 C2263 1.491 . S
C2269 C2268 1.400 . S
C2269 C2270 1.398 . S
C2270 H2258 0.950 . S
C2270 C2269 1.398 . S
C2270 C2271 1.391 . S
C2271 H2259 0.950 . S
C2271 C2267 1.393 . S
C2271 C2270 1.391 . S
H2272 C2280 0.950 . S
H2273 C2285 0.950 . S
H2274 C2282 0.950 . S
H2275 C2284 0.950 . S
H2276 C2286 0.950 . S
H2277 C2288 0.950 . S
H2278 C2290 0.950 . S
H2279 C2291 0.950 . S
C2280 H2272 0.950 . S
C2280 C2281 1.386 . S
C2280 C2282 1.391 . S
C2281 C2280 1.386 . S
C2281 C2285 1.393 . S
C2282 H2274 0.950 . S
C2282 C2280 1.391 . S
C2282 C2283 1.400 . S
C2283 C2282 1.400 . S
C2283 C2284 1.398 . S
C2283 C2289 1.491 1_655 S
C2284 H2275 0.950 . S
C2284 C2283 1.398 . S
C2284 C2285 1.391 . S
C2285 H2273 0.950 . S
C2285 C2281 1.393 . S
C2285 C2284 1.391 . S
C2286 H2276 0.950 . S
C2286 C2287 1.386 . S
C2286 C2288 1.391 . S
C2287 C2286 1.386 . S
C2287 C2291 1.393 . S
C2288 H2277 0.950 . S
C2288 C2286 1.391 . S
C2288 C2289 1.400 . S
C2289 C2283 1.491 1_455 S
C2289 C2288 1.400 . S
C2289 C2290 1.398 . S
C2290 H2278 0.950 . S
C2290 C2289 1.398 . S
C2290 C2291 1.391 . S
C2291 H2279 0.950 . S
C2291 C2287 1.393 . S
C2291 C2290 1.391 . S
H2292 C2300 0.950 . S
H2293 C2305 0.950 . S
H2294 C2302 0.950 . S
H2295 C2304 0.950 . S
H2296 C2306 0.950 . S
H2297 C2308 0.950 . S
H2298 C2310 0.950 . S
H2299 C2311 0.950 . S
C2300 H2292 0.950 . S
C2300 C2301 1.386 . S
C2300 C2302 1.391 . S
C2301 C2300 1.386 . S
C2301 C2305 1.393 . S
C2302 H2294 0.950 . S
C2302 C2300 1.391 . S
C2302 C2303 1.400 . S
C2303 C2302 1.400 . S
C2303 C2304 1.398 . S
C2303 C2309 1.491 1_545 S
C2304 H2295 0.950 . S
C2304 C2303 1.398 . S
C2304 C2305 1.391 . S
C2305 H2293 0.950 . S
C2305 C2301 1.393 . S
C2305 C2304 1.391 . S
C2306 H2296 0.950 . S
C2306 C2307 1.386 . S
C2306 C2308 1.391 . S
C2307 C2306 1.386 . S
C2307 C2311 1.393 . S
C2308 H2297 0.950 . S
C2308 C2306 1.391 . S
C2308 C2309 1.400 . S
C2309 C2303 1.491 1_565 S
C2309 C2308 1.400 . S
C2309 C2310 1.398 . S
C2310 H2298 0.950 . S
C2310 C2309 1.398 . S
C2310 C2311 1.391 . S
C2311 H2299 0.950 . S
C2311 C2307 1.393 . S
C2311 C2310 1.391 . S
H2312 C2320 0.950 . S
H2313 C2325 0.950 . S
H2314 C2322 0.950 . S
H2315 C2324 0.950 . S
H2316 C2326 0.950 . S
H2317 C2328 0.950 . S
H2318 C2330 0.950 . S
H2319 C2331 0.950 . S
C2320 H2312 0.950 . S
C2320 C2321 1.386 . S
C2320 C2322 1.391 . S
C2321 C2320 1.386 . S
C2321 C2325 1.393 . S
C2322 H2314 0.950 . S
C2322 C2320 1.391 . S
C2322 C2323 1.400 . S
C2323 C2322 1.400 . S
C2323 C2324 1.398 . S
C2323 C2329 1.491 . S
C2324 H2315 0.950 . S
C2324 C2323 1.398 . S
C2324 C2325 1.391 . S
C2325 H2313 0.950 . S
C2325 C2321 1.393 . S
C2325 C2324 1.391 . S
C2326 H2316 0.950 . S
C2326 C2327 1.386 . S
C2326 C2328 1.391 . S
C2327 C2326 1.386 . S
C2327 C2331 1.393 . S
C2328 H2317 0.950 . S
C2328 C2326 1.391 . S
C2328 C2329 1.400 . S
C2329 C2323 1.491 . S
C2329 C2328 1.400 . S
C2329 C2330 1.398 . S
C2330 H2318 0.950 . S
C2330 C2329 1.398 . S
C2330 C2331 1.391 . S
C2331 H2319 0.950 . S
C2331 C2327 1.393 . S
C2331 C2330 1.391 . S
H2332 C2340 0.950 . S
H2333 C2345 0.950 . S
H2334 C2342 0.950 . S
H2335 C2344 0.950 . S
H2336 C2346 0.950 . S
H2337 C2348 0.950 . S
H2338 C2350 0.950 . S
H2339 C2351 0.950 . S
C2340 H2332 0.950 . S
C2340 C2341 1.386 . S
C2340 C2342 1.391 . S
C2341 C2340 1.386 . S
C2341 C2345 1.393 . S
C2342 H2334 0.950 . S
C2342 C2340 1.391 . S
C2342 C2343 1.400 . S
C2343 C2342 1.400 . S
C2343 C2344 1.398 . S
C2343 C2349 1.491 1_455 S
C2344 H2335 0.950 . S
C2344 C2343 1.398 . S
C2344 C2345 1.391 . S
C2345 H2333 0.950 . S
C2345 C2341 1.393 . S
C2345 C2344 1.391 . S
C2346 H2336 0.950 . S
C2346 C2347 1.386 . S
C2346 C2348 1.391 . S
C2347 C2346 1.386 . S
C2347 C2351 1.393 . S
C2348 H2337 0.950 . S
C2348 C2346 1.391 . S
C2348 C2349 1.400 . S
C2349 C2343 1.491 1_655 S
C2349 C2348 1.400 . S
C2349 C2350 1.398 . S
C2350 H2338 0.950 . S
C2350 C2349 1.398 . S
C2350 C2351 1.391 . S
C2351 H2339 0.950 . S
C2351 C2347 1.393 . S
C2351 C2350 1.391 . S
H2352 C2360 0.950 . S
H2353 C2365 0.950 . S
H2354 C2362 0.950 . S
H2355 C2364 0.950 . S
H2356 C2366 0.950 . S
H2357 C2368 0.950 . S
H2358 C2370 0.950 . S
H2359 C2371 0.950 . S
C2360 H2352 0.950 . S
C2360 C2361 1.386 . S
C2360 C2362 1.391 . S
C2361 C2360 1.386 . S
C2361 C2365 1.393 . S
C2362 H2354 0.950 . S
C2362 C2360 1.391 . S
C2362 C2363 1.400 . S
C2363 C2362 1.400 . S
C2363 C2364 1.398 . S
C2363 C2369 1.491 . S
C2364 H2355 0.950 . S
C2364 C2363 1.398 . S
C2364 C2365 1.391 . S
C2365 H2353 0.950 . S
C2365 C2361 1.393 . S
C2365 C2364 1.391 . S
C2366 H2356 0.950 . S
C2366 C2367 1.386 . S
C2366 C2368 1.391 . S
C2367 C2366 1.386 . S
C2367 C2371 1.393 . S
C2368 H2357 0.950 . S
C2368 C2366 1.391 . S
C2368 C2369 1.400 . S
C2369 C2363 1.491 . S
C2369 C2368 1.400 . S
C2369 C2370 1.398 . S
C2370 H2358 0.950 . S
C2370 C2369 1.398 . S
C2370 C2371 1.391 . S
C2371 H2359 0.950 . S
C2371 C2367 1.393 . S
C2371 C2370 1.391 . S
H2372 C2380 0.950 . S
H2373 C2385 0.950 . S
H2374 C2382 0.950 . S
H2375 C2384 0.950 . S
H2376 C2386 0.950 . S
H2377 C2388 0.950 . S
H2378 C2390 0.950 . S
H2379 C2391 0.950 . S
C2380 H2372 0.950 . S
C2380 C2381 1.386 . S
C2380 C2382 1.391 . S
C2381 C2380 1.386 . S
C2381 C2385 1.393 . S
C2382 H2374 0.950 . S
C2382 C2380 1.391 . S
C2382 C2383 1.400 . S
C2383 C2382 1.400 . S
C2383 C2384 1.398 . S
C2383 C2389 1.491 . S
C2384 H2375 0.950 . S
C2384 C2383 1.398 . S
C2384 C2385 1.391 . S
C2385 H2373 0.950 . S
C2385 C2381 1.393 . S
C2385 C2384 1.391 . S
C2386 H2376 0.950 . S
C2386 C2387 1.386 . S
C2386 C2388 1.391 . S
C2387 C2386 1.386 . S
C2387 C2391 1.393 . S
C2388 H2377 0.950 . S
C2388 C2386 1.391 . S
C2388 C2389 1.400 . S
C2389 C2383 1.491 . S
C2389 C2388 1.400 . S
C2389 C2390 1.398 . S
C2390 H2378 0.950 . S
C2390 C2389 1.398 . S
C2390 C2391 1.391 . S
C2391 H2379 0.950 . S
C2391 C2387 1.393 . S
C2391 C2390 1.391 . S
H2392 C2400 0.950 . S
H2393 C2405 0.950 . S
H2394 C2402 0.950 . S
H2395 C2404 0.950 . S
H2396 C2406 0.950 . S
H2397 C2408 0.950 . S
H2398 C2410 0.950 . S
H2399 C2411 0.950 . S
C2400 H2392 0.950 . S
C2400 C2401 1.386 . S
C2400 C2402 1.391 . S
C2401 C2400 1.386 . S
C2401 C2405 1.393 . S
C2402 H2394 0.950 . S
C2402 C2400 1.391 . S
C2402 C2403 1.400 . S
C2403 C2402 1.400 . S
C2403 C2404 1.398 . S
C2403 C2409 1.491 . S
C2404 H2395 0.950 . S
C2404 C2403 1.398 . S
C2404 C2405 1.391 . S
C2405 H2393 0.950 . S
C2405 C2401 1.393 . S
C2405 C2404 1.391 . S
C2406 H2396 0.950 . S
C2406 C2407 1.386 . S
C2406 C2408 1.391 . S
C2407 C2406 1.386 . S
C2407 C2411 1.393 . S
C2408 H2397 0.950 . S
C2408 C2406 1.391 . S
C2408 C2409 1.400 . S
C2409 C2403 1.491 . S
C2409 C2408 1.400 . S
C2409 C2410 1.398 . S
C2410 H2398 0.950 . S
C2410 C2409 1.398 . S
C2410 C2411 1.391 . S
C2411 H2399 0.950 . S
C2411 C2407 1.393 . S
C2411 C2410 1.391 . S
H2412 C2420 0.950 . S
H2413 C2425 0.950 . S
H2414 C2422 0.950 . S
H2415 C2424 0.950 . S
H2416 C2426 0.950 . S
H2417 C2428 0.950 . S
H2418 C2430 0.950 . S
H2419 C2431 0.950 . S
C2420 H2412 0.950 . S
C2420 C2421 1.386 . S
C2420 C2422 1.391 . S
C2421 C2420 1.386 . S
C2421 C2425 1.393 . S
C2422 H2414 0.950 . S
C2422 C2420 1.391 . S
C2422 C2423 1.400 . S
C2423 C2422 1.400 . S
C2423 C2424 1.398 . S
C2423 C2429 1.491 . S
C2424 H2415 0.950 . S
C2424 C2423 1.398 . S
C2424 C2425 1.391 . S
C2425 H2413 0.950 . S
C2425 C2421 1.393 . S
C2425 C2424 1.391 . S
C2426 H2416 0.950 . S
C2426 C2427 1.386 . S
C2426 C2428 1.391 . S
C2427 C2426 1.386 . S
C2427 C2431 1.393 . S
C2428 H2417 0.950 . S
C2428 C2426 1.391 . S
C2428 C2429 1.400 . S
C2429 C2423 1.491 . S
C2429 C2428 1.400 . S
C2429 C2430 1.398 . S
C2430 H2418 0.950 . S
C2430 C2429 1.398 . S
C2430 C2431 1.391 . S
C2431 H2419 0.950 . S
C2431 C2427 1.393 . S
C2431 C2430 1.391 . S
H2432 C2440 0.950 . S
H2433 C2445 0.950 . S
H2434 C2442 0.950 . S
H2435 C2444 0.950 . S
H2436 C2446 0.950 . S
H2437 C2448 0.950 . S
H2438 C2450 0.950 . S
H2439 C2451 0.950 . S
C2440 H2432 0.950 . S
C2440 C2441 1.386 . S
C2440 C2442 1.391 . S
C2441 C2440 1.386 . S
C2441 C2445 1.393 . S
C2442 H2434 0.950 . S
C2442 C2440 1.391 . S
C2442 C2443 1.400 . S
C2443 C2442 1.400 . S
C2443 C2444 1.398 . S
C2443 C2449 1.491 . S
C2444 H2435 0.950 . S
C2444 C2443 1.398 . S
C2444 C2445 1.391 . S
C2445 H2433 0.950 . S
C2445 C2441 1.393 . S
C2445 C2444 1.391 . S
C2446 H2436 0.950 . S
C2446 C2447 1.386 . S
C2446 C2448 1.391 . S
C2447 C2446 1.386 . S
C2447 C2451 1.393 . S
C2448 H2437 0.950 . S
C2448 C2446 1.391 . S
C2448 C2449 1.400 . S
C2449 C2443 1.491 . S
C2449 C2448 1.400 . S
C2449 C2450 1.398 . S
C2450 H2438 0.950 . S
C2450 C2449 1.398 . S
C2450 C2451 1.391 . S
C2451 H2439 0.950 . S
C2451 C2447 1.393 . S
C2451 C2450 1.391 . S
H2452 C2460 0.950 . S
H2453 C2465 0.950 . S
H2454 C2462 0.950 . S
H2455 C2464 0.950 . S
H2456 C2466 0.950 . S
H2457 C2468 0.950 . S
H2458 C2470 0.950 . S
H2459 C2471 0.950 . S
C2460 H2452 0.950 . S
C2460 C2461 1.386 . S
C2460 C2462 1.391 . S
C2461 C2460 1.386 . S
C2461 C2465 1.393 . S
C2462 H2454 0.950 . S
C2462 C2460 1.391 . S
C2462 C2463 1.400 . S
C2463 C2462 1.400 . S
C2463 C2464 1.398 . S
C2463 C2469 1.491 . S
C2464 H2455 0.950 . S
C2464 C2463 1.398 . S
C2464 C2465 1.391 . S
C2465 H2453 0.950 . S
C2465 C2461 1.393 . S
C2465 C2464 1.391 . S
C2466 H2456 0.950 . S
C2466 C2467 1.386 . S
C2466 C2468 1.391 . S
C2467 C2466 1.386 . S
C2467 C2471 1.393 . S
C2468 H2457 0.950 . S
C2468 C2466 1.391 . S
C2468 C2469 1.400 . S
C2469 C2463 1.491 . S
C2469 C2468 1.400 . S
C2469 C2470 1.398 . S
C2470 H2458 0.950 . S
C2470 C2469 1.398 . S
C2470 C2471 1.391 . S
C2471 H2459 0.950 . S
C2471 C2467 1.393 . S
C2471 C2470 1.391 . S
H2472 C2480 0.950 . S
H2473 C2485 0.950 . S
H2474 C2482 0.950 . S
H2475 C2484 0.950 . S
H2476 C2486 0.950 . S
H2477 C2488 0.950 . S
H2478 C2490 0.950 . S
H2479 C2491 0.950 . S
C2480 H2472 0.950 . S
C2480 C2481 1.386 . S
C2480 C2482 1.391 . S
C2481 C2480 1.386 . S
C2481 C2485 1.393 . S
C2482 H2474 0.950 . S
C2482 C2480 1.391 . S
C2482 C2483 1.400 . S
C2483 C2482 1.400 . S
C2483 C2484 1.398 . S
C2483 C2489 1.491 . S
C2484 H2475 0.950 . S
C2484 C2483 1.398 . S
C2484 C2485 1.391 . S
C2485 H2473 0.950 . S
C2485 C2481 1.393 . S
C2485 C2484 1.391 . S
C2486 H2476 0.950 . S
C2486 C2487 1.386 . S
C2486 C2488 1.391 . S
C2487 C2486 1.386 . S
C2487 C2491 1.393 . S
C2488 H2477 0.950 . S
C2488 C2486 1.391 . S
C2488 C2489 1.400 . S
C2489 C2483 1.491 . S
C2489 C2488 1.400 . S
C2489 C2490 1.398 . S
C2490 H2478 0.950 . S
C2490 C2489 1.398 . S
C2490 C2491 1.391 . S
C2491 H2479 0.950 . S
C2491 C2487 1.393 . S
C2491 C2490 1.391 . S
H2492 C2500 0.950 . S
H2493 C2505 0.950 . S
H2494 C2502 0.950 . S
H2495 C2504 0.950 . S
H2496 C2506 0.950 . S
H2497 C2508 0.950 . S
H2498 C2510 0.950 . S
H2499 C2511 0.950 . S
C2500 H2492 0.950 . S
C2500 C2501 1.386 . S
C2500 C2502 1.391 . S
C2501 C2500 1.386 . S
C2501 C2505 1.393 . S
C2502 H2494 0.950 . S
C2502 C2500 1.391 . S
C2502 C2503 1.400 . S
C2503 C2502 1.400 . S
C2503 C2504 1.398 . S
C2503 C2509 1.491 . S
C2504 H2495 0.950 . S
C2504 C2503 1.398 . S
C2504 C2505 1.391 . S
C2505 H2493 0.950 . S
C2505 C2501 1.393 . S
C2505 C2504 1.391 . S
C2506 H2496 0.950 . S
C2506 C2507 1.386 . S
C2506 C2508 1.391 . S
C2507 C2506 1.386 . S
C2507 C2511 1.393 . S
C2508 H2497 0.950 . S
C2508 C2506 1.391 . S
C2508 C2509 1.400 . S
C2509 C2503 1.491 . S
C2509 C2508 1.400 . S
C2509 C2510 1.398 . S
C2510 H2498 0.950 . S
C2510 C2509 1.398 . S
C2510 C2511 1.391 . S
C2511 H2499 0.950 . S
C2511 C2507 1.393 . S
C2511 C2510 1.391 . S
H2512 C2520 0.950 . S
H2513 C2525 0.950 . S
H2514 C2522 0.950 . S
H2515 C2524 0.950 . S
H2516 C2526 0.950 . S
H2517 C2528 0.950 . S
H2518 C2530 0.950 . S
H2519 C2531 0.950 . S
C2520 H2512 0.950 . S
C2520 C2521 1.386 . S
C2520 C2522 1.391 . S
C2521 C2520 1.386 . S
C2521 C2525 1.393 . S
C2522 H2514 0.950 . S
C2522 C2520 1.391 . S
C2522 C2523 1.400 . S
C2523 C2522 1.400 . S
C2523 C2524 1.398 . S
C2523 C2529 1.491 . S
C2524 H2515 0.950 . S
C2524 C2523 1.398 . S
C2524 C2525 1.391 . S
C2525 H2513 0.950 . S
C2525 C2521 1.393 . S
C2525 C2524 1.391 . S
C2526 H2516 0.950 . S
C2526 C2527 1.386 . S
C2526 C2528 1.391 . S
C2527 C2526 1.386 . S
C2527 C2531 1.393 . S
C2528 H2517 0.950 . S
C2528 C2526 1.391 . S
C2528 C2529 1.400 . S
C2529 C2523 1.491 . S
C2529 C2528 1.400 . S
C2529 C2530 1.398 . S
C2530 H2518 0.950 . S
C2530 C2529 1.398 . S
C2530 C2531 1.391 . S
C2531 H2519 0.950 . S
C2531 C2527 1.393 . S
C2531 C2530 1.391 . S
H2532 C2540 0.950 . S
H2533 C2545 0.950 . S
H2534 C2542 0.950 . S
H2535 C2544 0.950 . S
H2536 C2546 0.950 . S
H2537 C2548 0.950 . S
H2538 C2550 0.950 . S
H2539 C2551 0.950 . S
C2540 H2532 0.950 . S
C2540 C2541 1.386 . S
C2540 C2542 1.391 . S
C2541 C2540 1.386 . S
C2541 C2545 1.393 . S
C2542 H2534 0.950 . S
C2542 C2540 1.391 . S
C2542 C2543 1.400 . S
C2543 C2542 1.400 . S
C2543 C2544 1.398 . S
C2543 C2549 1.491 . S
C2544 H2535 0.950 . S
C2544 C2543 1.398 . S
C2544 C2545 1.391 . S
C2545 H2533 0.950 . S
C2545 C2541 1.393 . S
C2545 C2544 1.391 . S
C2546 H2536 0.950 . S
C2546 C2547 1.386 . S
C2546 C2548 1.391 . S
C2547 C2546 1.386 . S
C2547 C2551 1.393 . S
C2548 H2537 0.950 . S
C2548 C2546 1.391 . S
C2548 C2549 1.400 . S
C2549 C2543 1.491 . S
C2549 C2548 1.400 . S
C2549 C2550 1.398 . S
C2550 H2538 0.950 . S
C2550 C2549 1.398 . S
C2550 C2551 1.391 . S
C2551 H2539 0.950 . S
C2551 C2547 1.393 . S
C2551 C2550 1.391 . S
H2552 C2560 0.950 . S
H2553 C2565 0.950 . S
H2554 C2562 0.950 . S
H2555 C2564 0.950 . S
H2556 C2566 0.950 . S
H2557 C2568 0.950 . S
H2558 C2570 0.950 . S
H2559 C2571 0.950 . S
C2560 H2552 0.950 . S
C2560 C2561 1.386 . S
C2560 C2562 1.391 . S
C2561 C2560 1.386 . S
C2561 C2565 1.393 . S
C2562 H2554 0.950 . S
C2562 C2560 1.391 . S
C2562 C2563 1.400 . S
C2563 C2562 1.400 . S
C2563 C2564 1.398 . S
C2563 C2569 1.491 . S
C2564 H2555 0.950 . S
C2564 C2563 1.398 . S
C2564 C2565 1.391 . S
C2565 H2553 0.950 . S
C2565 C2561 1.393 . S
C2565 C2564 1.391 . S
C2566 H2556 0.950 . S
C2566 C2567 1.386 . S
C2566 C2568 1.391 . S
C2567 C2566 1.386 . S
C2567 C2571 1.393 . S
C2568 H2557 0.950 . S
C2568 C2566 1.391 . S
C2568 C2569 1.400 . S
C2569 C2563 1.491 . S
C2569 C2568 1.400 . S
C2569 C2570 1.398 . S
C2570 H2558 0.950 . S
C2570 C2569 1.398 . S
C2570 C2571 1.391 . S
C2571 H2559 0.950 . S
C2571 C2567 1.393 . S
C2571 C2570 1.391 . S
H2572 C2580 0.950 . S
H2573 C2585 0.950 . S
H2574 C2582 0.950 . S
H2575 C2584 0.950 . S
H2576 C2586 0.950 . S
H2577 C2588 0.950 . S
H2578 C2590 0.950 . S
H2579 C2591 0.950 . S
C2580 H2572 0.950 . S
C2580 C2581 1.386 . S
C2580 C2582 1.391 . S
C2581 C2580 1.386 . S
C2581 C2585 1.393 . S
C2582 H2574 0.950 . S
C2582 C2580 1.391 . S
C2582 C2583 1.400 . S
C2583 C2582 1.400 . S
C2583 C2584 1.398 . S
C2583 C2589 1.491 . S
C2584 H2575 0.950 . S
C2584 C2583 1.398 . S
C2584 C2585 1.391 . S
C2585 H2573 0.950 . S
C2585 C2581 1.393 . S
C2585 C2584 1.391 . S
C2586 H2576 0.950 . S
C2586 C2587 1.386 . S
C2586 C2588 1.391 . S
C2587 C2586 1.386 . S
C2587 C2591 1.393 . S
C2588 H2577 0.950 . S
C2588 C2586 1.391 . S
C2588 C2589 1.400 . S
C2589 C2583 1.491 . S
C2589 C2588 1.400 . S
C2589 C2590 1.398 . S
C2590 H2578 0.950 . S
C2590 C2589 1.398 . S
C2590 C2591 1.391 . S
C2591 H2579 0.950 . S
C2591 C2587 1.393 . S
C2591 C2590 1.391 . S
H2592 C2600 0.950 . S
H2593 C2605 0.950 . S
H2594 C2602 0.950 . S
H2595 C2604 0.950 . S
H2596 C2606 0.950 . S
H2597 C2608 0.950 . S
H2598 C2610 0.950 . S
H2599 C2611 0.950 . S
C2600 H2592 0.950 . S
C2600 C2601 1.386 . S
C2600 C2602 1.391 . S
C2601 C2600 1.386 . S
C2601 C2605 1.393 . S
C2602 H2594 0.950 . S
C2602 C2600 1.391 . S
C2602 C2603 1.400 . S
C2603 C2602 1.400 . S
C2603 C2604 1.398 . S
C2603 C2609 1.491 1_554 S
C2604 H2595 0.950 . S
C2604 C2603 1.398 . S
C2604 C2605 1.391 . S
C2605 H2593 0.950 . S
C2605 C2601 1.393 . S
C2605 C2604 1.391 . S
C2606 H2596 0.950 . S
C2606 C2607 1.386 . S
C2606 C2608 1.391 . S
C2607 C2606 1.386 . S
C2607 C2611 1.393 . S
C2608 H2597 0.950 . S
C2608 C2606 1.391 . S
C2608 C2609 1.400 . S
C2609 C2603 1.491 1_556 S
C2609 C2608 1.400 . S
C2609 C2610 1.398 . S
C2610 H2598 0.950 . S
C2610 C2609 1.398 . S
C2610 C2611 1.391 . S
C2611 H2599 0.950 . S
C2611 C2607 1.393 . S
C2611 C2610 1.391 . S
H2612 C2620 0.950 . S
H2613 C2625 0.950 . S
H2614 C2622 0.950 . S
H2615 C2624 0.950 . S
H2616 C2626 0.950 . S
H2617 C2628 0.950 . S
H2618 C2630 0.950 . S
H2619 C2631 0.950 . S
C2620 H2612 0.950 . S
C2620 C2621 1.386 . S
C2620 C2622 1.391 . S
C2621 C2620 1.386 . S
C2621 C2625 1.393 . S
C2622 H2614 0.950 . S
C2622 C2620 1.391 . S
C2622 C2623 1.400 . S
C2623 C2622 1.400 . S
C2623 C2624 1.398 . S
C2623 C2629 1.491 1_556 S
C2624 H2615 0.950 . S
C2624 C2623 1.398 . S
C2624 C2625 1.391 . S
C2625 H2613 0.950 . S
C2625 C2621 1.393 . S
C2625 C2624 1.391 . S
C2626 H2616 0.950 . S
C2626 C2627 1.386 . S
C2626 C2628 1.391 . S
C2627 C2626 1.386 . S
C2627 C2631 1.393 . S
C2628 H2617 0.950 . S
C2628 C2626 1.391 . S
C2628 C2629 1.400 . S
C2629 C2623 1.491 1_554 S
C2629 C2628 1.400 . S
C2629 C2630 1.398 . S
C2630 H2618 0.950 . S
C2630 C2629 1.398 . S
C2630 C2631 1.391 . S
C2631 H2619 0.950 . S
C2631 C2627 1.393 . S
C2631 C2630 1.391 . S
H2632 C2640 0.950 . S
H2633 C2645 0.950 . S
H2634 C2642 0.950 . S
H2635 C2644 0.950 . S
H2636 C2646 0.950 . S
H2637 C2648 0.950 . S
H2638 C2650 0.950 . S
H2639 C2651 0.950 . S
C2640 H2632 0.950 . S
C2640 C2641 1.386 . S
C2640 C2642 1.391 . S
C2641 C2640 1.386 . S
C2641 C2645 1.393 . S
C2642 H2634 0.950 . S
C2642 C2640 1.391 . S
C2642 C2643 1.400 . S
C2643 C2642 1.400 . S
C2643 C2644 1.398 . S
C2643 C2649 1.491 1_556 S
C2644 H2635 0.950 . S
C2644 C2643 1.398 . S
C2644 C2645 1.391 . S
C2645 H2633 0.950 . S
C2645 C2641 1.393 . S
C2645 C2644 1.391 . S
C2646 H2636 0.950 . S
C2646 C2647 1.386 . S
C2646 C2648 1.391 . S
C2647 C2646 1.386 . S
C2647 C2651 1.393 . S
C2648 H2637 0.950 . S
C2648 C2646 1.391 . S
C2648 C2649 1.400 . S
C2649 C2643 1.491 1_554 S
C2649 C2648 1.400 . S
C2649 C2650 1.398 . S
C2650 H2638 0.950 . S
C2650 C2649 1.398 . S
C2650 C2651 1.391 . S
C2651 H2639 0.950 . S
C2651 C2647 1.393 . S
C2651 C2650 1.391 . S
H2652 C2660 0.950 . S
H2653 C2665 0.950 . S
H2654 C2662 0.950 . S
H2655 C2664 0.950 . S
H2656 C2666 0.950 . S
H2657 C2668 0.950 . S
H2658 C2670 0.950 . S
H2659 C2671 0.950 . S
C2660 H2652 0.950 . S
C2660 C2661 1.386 . S
C2660 C2662 1.391 . S
C2661 C2660 1.386 . S
C2661 C2665 1.393 . S
C2662 H2654 0.950 . S
C2662 C2660 1.391 . S
C2662 C2663 1.400 . S
C2663 C2662 1.400 . S
C2663 C2664 1.398 . S
C2663 C2669 1.491 1_554 S
C2664 H2655 0.950 . S
C2664 C2663 1.398 . S
C2664 C2665 1.391 . S
C2665 H2653 0.950 . S
C2665 C2661 1.393 . S
C2665 C2664 1.391 . S
C2666 H2656 0.950 . S
C2666 C2667 1.386 . S
C2666 C2668 1.391 . S
C2667 C2666 1.386 . S
C2667 C2671 1.393 . S
C2668 H2657 0.950 . S
C2668 C2666 1.391 . S
C2668 C2669 1.400 . S
C2669 C2663 1.491 1_556 S
C2669 C2668 1.400 . S
C2669 C2670 1.398 . S
C2670 H2658 0.950 . S
C2670 C2669 1.398 . S
C2670 C2671 1.391 . S
C2671 H2659 0.950 . S
C2671 C2667 1.393 . S
C2671 C2670 1.391 . S
H2672 C2680 0.950 . S
H2673 C2685 0.950 . S
H2674 C2682 0.950 . S
H2675 C2684 0.950 . S
H2676 C2686 0.950 . S
H2677 C2688 0.950 . S
H2678 C2690 0.950 . S
H2679 C2691 0.950 . S
C2680 H2672 0.950 . S
C2680 C2681 1.386 . S
C2680 C2682 1.391 . S
C2681 C2680 1.386 . S
C2681 C2685 1.393 . S
C2682 H2674 0.950 . S
C2682 C2680 1.391 . S
C2682 C2683 1.400 . S
C2683 C2682 1.400 . S
C2683 C2684 1.398 . S
C2683 C2689 1.491 1_554 S
C2684 H2675 0.950 . S
C2684 C2683 1.398 . S
C2684 C2685 1.391 . S
C2685 H2673 0.950 . S
C2685 C2681 1.393 . S
C2685 C2684 1.391 . S
C2686 H2676 0.950 . S
C2686 C2687 1.386 . S
C2686 C2688 1.391 . S
C2687 C2686 1.386 . S
C2687 C2691 1.393 . S
C2688 H2677 0.950 . S
C2688 C2686 1.391 . S
C2688 C2689 1.400 . S
C2689 C2683 1.491 1_556 S
C2689 C2688 1.400 . S
C2689 C2690 1.398 . S
C2690 H2678 0.950 . S
C2690 C2689 1.398 . S
C2690 C2691 1.391 . S
C2691 H2679 0.950 . S
C2691 C2687 1.393 . S
C2691 C2690 1.391 . S
H2692 C2700 0.950 . S
H2693 C2705 0.950 . S
H2694 C2702 0.950 . S
H2695 C2704 0.950 . S
H2696 C2706 0.950 . S
H2697 C2708 0.950 . S
H2698 C2710 0.950 . S
H2699 C2711 0.950 . S
C2700 H2692 0.950 . S
C2700 C2701 1.386 . S
C2700 C2702 1.391 . S
C2701 C2700 1.386 . S
C2701 C2705 1.393 . S
C2702 H2694 0.950 . S
C2702 C2700 1.391 . S
C2702 C2703 1.400 . S
C2703 C2702 1.400 . S
C2703 C2704 1.398 . S
C2703 C2709 1.491 1_556 S
C2704 H2695 0.950 . S
C2704 C2703 1.398 . S
C2704 C2705 1.391 . S
C2705 H2693 0.950 . S
C2705 C2701 1.393 . S
C2705 C2704 1.391 . S
C2706 H2696 0.950 . S
C2706 C2707 1.386 . S
C2706 C2708 1.391 . S
C2707 C2706 1.386 . S
C2707 C2711 1.393 . S
C2708 H2697 0.950 . S
C2708 C2706 1.391 . S
C2708 C2709 1.400 . S
C2709 C2703 1.491 1_554 S
C2709 C2708 1.400 . S
C2709 C2710 1.398 . S
C2710 H2698 0.950 . S
C2710 C2709 1.398 . S
C2710 C2711 1.391 . S
C2711 H2699 0.950 . S
C2711 C2707 1.393 . S
C2711 C2710 1.391 . S
H2712 C2720 0.950 . S
H2713 C2725 0.950 . S
H2714 C2722 0.950 . S
H2715 C2724 0.950 . S
H2716 C2726 0.950 . S
H2717 C2728 0.950 . S
H2718 C2730 0.950 . S
H2719 C2731 0.950 . S
C2720 H2712 0.950 . S
C2720 C2721 1.386 . S
C2720 C2722 1.391 . S
C2721 C2720 1.386 . S
C2721 C2725 1.393 . S
C2722 H2714 0.950 . S
C2722 C2720 1.391 . S
C2722 C2723 1.400 . S
C2723 C2722 1.400 . S
C2723 C2724 1.398 . S
C2723 C2729 1.491 . S
C2724 H2715 0.950 . S
C2724 C2723 1.398 . S
C2724 C2725 1.391 . S
C2725 H2713 0.950 . S
C2725 C2721 1.393 . S
C2725 C2724 1.391 . S
C2726 H2716 0.950 . S
C2726 C2727 1.386 . S
C2726 C2728 1.391 . S
C2727 C2726 1.386 . S
C2727 C2731 1.393 . S
C2728 H2717 0.950 . S
C2728 C2726 1.391 . S
C2728 C2729 1.400 . S
C2729 C2723 1.491 . S
C2729 C2728 1.400 . S
C2729 C2730 1.398 . S
C2730 H2718 0.950 . S
C2730 C2729 1.398 . S
C2730 C2731 1.391 . S
C2731 H2719 0.950 . S
C2731 C2727 1.393 . S
C2731 C2730 1.391 . S
H2732 C2740 0.950 . S
H2733 C2745 0.950 . S
H2734 C2742 0.950 . S
H2735 C2744 0.950 . S
H2736 C2746 0.950 . S
H2737 C2748 0.950 . S
H2738 C2750 0.950 . S
H2739 C2751 0.950 . S
C2740 H2732 0.950 . S
C2740 C2741 1.386 . S
C2740 C2742 1.391 . S
C2741 C2740 1.386 . S
C2741 C2745 1.393 . S
C2742 H2734 0.950 . S
C2742 C2740 1.391 . S
C2742 C2743 1.400 . S
C2743 C2742 1.400 . S
C2743 C2744 1.398 . S
C2743 C2749 1.491 . S
C2744 H2735 0.950 . S
C2744 C2743 1.398 . S
C2744 C2745 1.391 . S
C2745 H2733 0.950 . S
C2745 C2741 1.393 . S
C2745 C2744 1.391 . S
C2746 H2736 0.950 . S
C2746 C2747 1.386 . S
C2746 C2748 1.391 . S
C2747 C2746 1.386 . S
C2747 C2751 1.393 . S
C2748 H2737 0.950 . S
C2748 C2746 1.391 . S
C2748 C2749 1.400 . S
C2749 C2743 1.491 . S
C2749 C2748 1.400 . S
C2749 C2750 1.398 . S
C2750 H2738 0.950 . S
C2750 C2749 1.398 . S
C2750 C2751 1.391 . S
C2751 H2739 0.950 . S
C2751 C2747 1.393 . S
C2751 C2750 1.391 . S
H2752 C2760 0.950 . S
H2753 C2765 0.950 . S
H2754 C2762 0.950 . S
H2755 C2764 0.950 . S
H2756 C2766 0.950 . S
H2757 C2768 0.950 . S
H2758 C2770 0.950 . S
H2759 C2771 0.950 . S
C2760 H2752 0.950 . S
C2760 C2761 1.386 . S
C2760 C2762 1.391 . S
C2761 C2760 1.386 . S
C2761 C2765 1.393 . S
C2762 H2754 0.950 . S
C2762 C2760 1.391 . S
C2762 C2763 1.400 . S
C2763 C2762 1.400 . S
C2763 C2764 1.398 . S
C2763 C2769 1.491 . S
C2764 H2755 0.950 . S
C2764 C2763 1.398 . S
C2764 C2765 1.391 . S
C2765 H2753 0.950 . S
C2765 C2761 1.393 . S
C2765 C2764 1.391 . S
C2766 H2756 0.950 . S
C2766 C2767 1.386 . S
C2766 C2768 1.391 . S
C2767 C2766 1.386 . S
C2767 C2771 1.393 . S
C2768 H2757 0.950 . S
C2768 C2766 1.391 . S
C2768 C2769 1.400 . S
C2769 C2763 1.491 . S
C2769 C2768 1.400 . S
C2769 C2770 1.398 . S
C2770 H2758 0.950 . S
C2770 C2769 1.398 . S
C2770 C2771 1.391 . S
C2771 H2759 0.950 . S
C2771 C2767 1.393 . S
C2771 C2770 1.391 . S
H2772 C2780 0.950 . S
H2773 C2785 0.950 . S
H2774 C2782 0.950 . S
H2775 C2784 0.950 . S
H2776 C2786 0.950 . S
H2777 C2788 0.950 . S
H2778 C2790 0.950 . S
H2779 C2791 0.950 . S
C2780 H2772 0.950 . S
C2780 C2781 1.386 . S
C2780 C2782 1.391 . S
C2781 C2780 1.386 . S
C2781 C2785 1.393 . S
C2782 H2774 0.950 . S
C2782 C2780 1.391 . S
C2782 C2783 1.400 . S
C2783 C2782 1.400 . S
C2783 C2784 1.398 . S
C2783 C2789 1.491 . S
C2784 H2775 0.950 . S
C2784 C2783 1.398 . S
C2784 C2785 1.391 . S
C2785 H2773 0.950 . S
C2785 C2781 1.393 . S
C2785 C2784 1.391 . S
C2786 H2776 0.950 . S
C2786 C2787 1.386 . S
C2786 C2788 1.391 . S
C2787 C2786 1.386 . S
C2787 C2791 1.393 . S
C2788 H2777 0.950 . S
C2788 C2786 1.391 . S
C2788 C2789 1.400 . S
C2789 C2783 1.491 . S
C2789 C2788 1.400 . S
C2789 C2790 1.398 . S
C2790 H2778 0.950 . S
C2790 C2789 1.398 . S
C2790 C2791 1.391 . S
C2791 H2779 0.950 . S
C2791 C2787 1.393 . S
C2791 C2790 1.391 . S
H2792 C2800 0.950 . S
H2793 C2805 0.950 . S
H2794 C2802 0.950 . S
H2795 C2804 0.950 . S
H2796 C2806 0.950 . S
H2797 C2808 0.950 . S
H2798 C2810 0.950 . S
H2799 C2811 0.950 . S
C2800 H2792 0.950 . S
C2800 C2801 1.386 . S
C2800 C2802 1.391 . S
C2801 C2800 1.386 . S
C2801 C2805 1.393 . S
C2802 H2794 0.950 . S
C2802 C2800 1.391 . S
C2802 C2803 1.400 . S
C2803 C2802 1.400 . S
C2803 C2804 1.398 . S
C2803 C2809 1.491 . S
C2804 H2795 0.950 . S
C2804 C2803 1.398 . S
C2804 C2805 1.391 . S
C2805 H2793 0.950 . S
C2805 C2801 1.393 . S
C2805 C2804 1.391 . S
C2806 H2796 0.950 . S
C2806 C2807 1.386 . S
C2806 C2808 1.391 . S
C2807 C2806 1.386 . S
C2807 C2811 1.393 . S
C2808 H2797 0.950 . S
C2808 C2806 1.391 . S
C2808 C2809 1.400 . S
C2809 C2803 1.491 . S
C2809 C2808 1.400 . S
C2809 C2810 1.398 . S
C2810 H2798 0.950 . S
C2810 C2809 1.398 . S
C2810 C2811 1.391 . S
C2811 H2799 0.950 . S
C2811 C2807 1.393 . S
C2811 C2810 1.391 . S
H2812 C2820 0.950 . S
H2813 C2825 0.950 . S
H2814 C2822 0.950 . S
H2815 C2824 0.950 . S
H2816 C2826 0.950 . S
H2817 C2828 0.950 . S
H2818 C2830 0.950 . S
H2819 C2831 0.950 . S
C2820 H2812 0.950 . S
C2820 C2821 1.386 . S
C2820 C2822 1.391 . S
C2821 C2820 1.386 . S
C2821 C2825 1.393 . S
C2822 H2814 0.950 . S
C2822 C2820 1.391 . S
C2822 C2823 1.400 . S
C2823 C2822 1.400 . S
C2823 C2824 1.398 . S
C2823 C2829 1.491 . S
C2824 H2815 0.950 . S
C2824 C2823 1.398 . S
C2824 C2825 1.391 . S
C2825 H2813 0.950 . S
C2825 C2821 1.393 . S
C2825 C2824 1.391 . S
C2826 H2816 0.950 . S
C2826 C2827 1.386 . S
C2826 C2828 1.391 . S
C2827 C2826 1.386 . S
C2827 C2831 1.393 . S
C2828 H2817 0.950 . S
C2828 C2826 1.391 . S
C2828 C2829 1.400 . S
C2829 C2823 1.491 . S
C2829 C2828 1.400 . S
C2829 C2830 1.398 . S
C2830 H2818 0.950 . S
C2830 C2829 1.398 . S
C2830 C2831 1.391 . S
C2831 H2819 0.950 . S
C2831 C2827 1.393 . S
C2831 C2830 1.391 . S
H2832 C2840 0.950 . S
H2833 C2845 0.950 . S
H2834 C2842 0.950 . S
H2835 C2844 0.950 . S
H2836 C2846 0.950 . S
H2837 C2848 0.950 . S
H2838 C2850 0.950 . S
H2839 C2851 0.950 . S
C2840 H2832 0.950 . S
C2840 C2841 1.386 . S
C2840 C2842 1.391 . S
C2841 C2840 1.386 . S
C2841 C2845 1.393 . S
C2842 H2834 0.950 . S
C2842 C2840 1.391 . S
C2842 C2843 1.400 . S
C2843 C2842 1.400 . S
C2843 C2844 1.398 . S
C2843 C2849 1.491 . S
C2844 H2835 0.950 . S
C2844 C2843 1.398 . S
C2844 C2845 1.391 . S
C2845 H2833 0.950 . S
C2845 C2841 1.393 . S
C2845 C2844 1.391 . S
C2846 H2836 0.950 . S
C2846 C2847 1.386 . S
C2846 C2848 1.391 . S
C2847 C2846 1.386 . S
C2847 C2851 1.393 . S
C2848 H2837 0.950 . S
C2848 C2846 1.391 . S
C2848 C2849 1.400 . S
C2849 C2843 1.491 . S
C2849 C2848 1.400 . S
C2849 C2850 1.398 . S
C2850 H2838 0.950 . S
C2850 C2849 1.398 . S
C2850 C2851 1.391 . S
C2851 H2839 0.950 . S
C2851 C2847 1.393 . S
C2851 C2850 1.391 . S
H2852 C2860 0.950 . S
H2853 C2865 0.950 . S
H2854 C2862 0.950 . S
H2855 C2864 0.950 . S
H2856 C2866 0.950 . S
H2857 C2868 0.950 . S
H2858 C2870 0.950 . S
H2859 C2871 0.950 . S
C2860 H2852 0.950 . S
C2860 C2861 1.386 . S
C2860 C2862 1.391 . S
C2861 C2860 1.386 . S
C2861 C2865 1.393 . S
C2862 H2854 0.950 . S
C2862 C2860 1.391 . S
C2862 C2863 1.400 . S
C2863 C2862 1.400 . S
C2863 C2864 1.398 . S
C2863 C2869 1.491 . S
C2864 H2855 0.950 . S
C2864 C2863 1.398 . S
C2864 C2865 1.391 . S
C2865 H2853 0.950 . S
C2865 C2861 1.393 . S
C2865 C2864 1.391 . S
C2866 H2856 0.950 . S
C2866 C2867 1.386 . S
C2866 C2868 1.391 . S
C2867 C2866 1.386 . S
C2867 C2871 1.393 . S
C2868 H2857 0.950 . S
C2868 C2866 1.391 . S
C2868 C2869 1.400 . S
C2869 C2863 1.491 . S
C2869 C2868 1.400 . S
C2869 C2870 1.398 . S
C2870 H2858 0.950 . S
C2870 C2869 1.398 . S
C2870 C2871 1.391 . S
C2871 H2859 0.950 . S
C2871 C2867 1.393 . S
C2871 C2870 1.391 . S
H2872 C2880 0.950 . S
H2873 C2885 0.950 . S
H2874 C2882 0.950 . S
H2875 C2884 0.950 . S
H2876 C2886 0.950 . S
H2877 C2888 0.950 . S
H2878 C2890 0.950 . S
H2879 C2891 0.950 . S
C2880 H2872 0.950 . S
C2880 C2881 1.386 . S
C2880 C2882 1.391 . S
C2881 C2880 1.386 . S
C2881 C2885 1.393 . S
C2882 H2874 0.950 . S
C2882 C2880 1.391 . S
C2882 C2883 1.400 . S
C2883 C2882 1.400 . S
C2883 C2884 1.398 . S
C2883 C2889 1.491 . S
C2884 H2875 0.950 . S
C2884 C2883 1.398 . S
C2884 C2885 1.391 . S
C2885 H2873 0.950 . S
C2885 C2881 1.393 . S
C2885 C2884 1.391 . S
C2886 H2876 0.950 . S
C2886 C2887 1.386 . S
C2886 C2888 1.391 . S
C2887 C2886 1.386 . S
C2887 C2891 1.393 . S
C2888 H2877 0.950 . S
C2888 C2886 1.391 . S
C2888 C2889 1.400 . S
C2889 C2883 1.491 . S
C2889 C2888 1.400 . S
C2889 C2890 1.398 . S
C2890 H2878 0.950 . S
C2890 C2889 1.398 . S
C2890 C2891 1.391 . S
C2891 H2879 0.950 . S
C2891 C2887 1.393 . S
C2891 C2890 1.391 . S
H2892 C2900 0.950 . S
H2893 C2905 0.950 . S
H2894 C2902 0.950 . S
H2895 C2904 0.950 . S
H2896 C2906 0.950 . S
H2897 C2908 0.950 . S
H2898 C2910 0.950 . S
H2899 C2911 0.950 . S
C2900 H2892 0.950 . S
C2900 C2901 1.386 . S
C2900 C2902 1.391 . S
C2901 C2900 1.386 . S
C2901 C2905 1.393 . S
C2902 H2894 0.950 . S
C2902 C2900 1.391 . S
C2902 C2903 1.400 . S
C2903 C2902 1.400 . S
C2903 C2904 1.398 . S
C2903 C2909 1.491 . S
C2904 H2895 0.950 . S
C2904 C2903 1.398 . S
C2904 C2905 1.391 . S
C2905 H2893 0.950 . S
C2905 C2901 1.393 . S
C2905 C2904 1.391 . S
C2906 H2896 0.950 . S
C2906 C2907 1.386 . S
C2906 C2908 1.391 . S
C2907 C2906 1.386 . S
C2907 C2911 1.393 . S
C2908 H2897 0.950 . S
C2908 C2906 1.391 . S
C2908 C2909 1.400 . S
C2909 C2903 1.491 . S
C2909 C2908 1.400 . S
C2909 C2910 1.398 . S
C2910 H2898 0.950 . S
C2910 C2909 1.398 . S
C2910 C2911 1.391 . S
C2911 H2899 0.950 . S
C2911 C2907 1.393 . S
C2911 C2910 1.391 . S
H2912 C2920 0.950 . S
H2913 C2925 0.950 . S
H2914 C2922 0.950 . S
H2915 C2924 0.950 . S
H2916 C2926 0.950 . S
H2917 C2928 0.950 . S
H2918 C2930 0.950 . S
H2919 C2931 0.950 . S
C2920 H2912 0.950 . S
C2920 C2921 1.386 . S
C2920 C2922 1.391 . S
C2921 C2920 1.386 . S
C2921 C2925 1.393 . S
C2922 H2914 0.950 . S
C2922 C2920 1.391 . S
C2922 C2923 1.400 . S
C2923 C2922 1.400 . S
C2923 C2924 1.398 . S
C2923 C2929 1.491 . S
C2924 H2915 0.950 . S
C2924 C2923 1.398 . S
C2924 C2925 1.391 . S
C2925 H2913 0.950 . S
C2925 C2921 1.393 . S
C2925 C2924 1.391 . S
C2926 H2916 0.950 . S
C2926 C2927 1.386 . S
C2926 C2928 1.391 . S
C2927 C2926 1.386 . S
C2927 C2931 1.393 . S
C2928 H2917 0.950 . S
C2928 C2926 1.391 . S
C2928 C2929 1.400 . S
C2929 C2923 1.491 . S
C2929 C2928 1.400 . S
C2929 C2930 1.398 . S
C2930 H2918 0.950 . S
C2930 C2929 1.398 . S
C2930 C2931 1.391 . S
C2931 H2919 0.950 . S
C2931 C2927 1.393 . S
C2931 C2930 1.391 . S
H2932 C2940 0.950 . S
H2933 C2945 0.950 . S
H2934 C2942 0.950 . S
H2935 C2944 0.950 . S
H2936 C2946 0.950 . S
H2937 C2948 0.950 . S
H2938 C2950 0.950 . S
H2939 C2951 0.950 . S
C2940 H2932 0.950 . S
C2940 C2941 1.386 . S
C2940 C2942 1.391 . S
C2941 C2940 1.386 . S
C2941 C2945 1.393 . S
C2942 H2934 0.950 . S
C2942 C2940 1.391 . S
C2942 C2943 1.400 . S
C2943 C2942 1.400 . S
C2943 C2944 1.398 . S
C2943 C2949 1.491 . S
C2944 H2935 0.950 . S
C2944 C2943 1.398 . S
C2944 C2945 1.391 . S
C2945 H2933 0.950 . S
C2945 C2941 1.393 . S
C2945 C2944 1.391 . S
C2946 H2936 0.950 . S
C2946 C2947 1.386 . S
C2946 C2948 1.391 . S
C2947 C2946 1.386 . S
C2947 C2951 1.393 . S
C2948 H2937 0.950 . S
C2948 C2946 1.391 . S
C2948 C2949 1.400 . S
C2949 C2943 1.491 . S
C2949 C2948 1.400 . S
C2949 C2950 1.398 . S
C2950 H2938 0.950 . S
C2950 C2949 1.398 . S
C2950 C2951 1.391 . S
C2951 H2939 0.950 . S
C2951 C2947 1.393 . S
C2951 C2950 1.391 . S
H2952 C2960 0.950 . S
H2953 C2965 0.950 . S
H2954 C2962 0.950 . S
H2955 C2964 0.950 . S
H2956 C2966 0.950 . S
H2957 C2968 0.950 . S
H2958 C2970 0.950 . S
H2959 C2971 0.950 . S
C2960 H2952 0.950 . S
C2960 C2961 1.386 . S
C2960 C2962 1.391 . S
C2961 C2960 1.386 . S
C2961 C2965 1.393 . S
C2962 H2954 0.950 . S
C2962 C2960 1.391 . S
C2962 C2963 1.400 . S
C2963 C2962 1.400 . S
C2963 C2964 1.398 . S
C2963 C2969 1.491 . S
C2964 H2955 0.950 . S
C2964 C2963 1.398 . S
C2964 C2965 1.391 . S
C2965 H2953 0.950 . S
C2965 C2961 1.393 . S
C2965 C2964 1.391 . S
C2966 H2956 0.950 . S
C2966 C2967 1.386 . S
C2966 C2968 1.391 . S
C2967 C2966 1.386 . S
C2967 C2971 1.393 . S
C2968 H2957 0.950 . S
C2968 C2966 1.391 . S
C2968 C2969 1.400 . S
C2969 C2963 1.491 . S
C2969 C2968 1.400 . S
C2969 C2970 1.398 . S
C2970 H2958 0.950 . S
C2970 C2969 1.398 . S
C2970 C2971 1.391 . S
C2971 H2959 0.950 . S
C2971 C2967 1.393 . S
C2971 C2970 1.391 . S
H2972 C2980 0.950 . S
H2973 C2985 0.950 . S
H2974 C2982 0.950 . S
H2975 C2984 0.950 . S
H2976 C2986 0.950 . S
H2977 C2988 0.950 . S
H2978 C2990 0.950 . S
H2979 C2991 0.950 . S
C2980 H2972 0.950 . S
C2980 C2981 1.386 . S
C2980 C2982 1.391 . S
C2981 C2980 1.386 . S
C2981 C2985 1.393 . S
C2982 H2974 0.950 . S
C2982 C2980 1.391 . S
C2982 C2983 1.400 . S
C2983 C2982 1.400 . S
C2983 C2984 1.398 . S
C2983 C2989 1.491 . S
C2984 H2975 0.950 . S
C2984 C2983 1.398 . S
C2984 C2985 1.391 . S
C2985 H2973 0.950 . S
C2985 C2981 1.393 . S
C2985 C2984 1.391 . S
C2986 H2976 0.950 . S
C2986 C2987 1.386 . S
C2986 C2988 1.391 . S
C2987 C2986 1.386 . S
C2987 C2991 1.393 . S
C2988 H2977 0.950 . S
C2988 C2986 1.391 . S
C2988 C2989 1.400 . S
C2989 C2983 1.491 . S
C2989 C2988 1.400 . S
C2989 C2990 1.398 . S
C2990 H2978 0.950 . S
C2990 C2989 1.398 . S
C2990 C2991 1.391 . S
C2991 H2979 0.950 . S
C2991 C2987 1.393 . S
C2991 C2990 1.391 . S
H2992 C3000 0.950 . S
H2993 C3005 0.950 . S
H2994 C3002 0.950 . S
H2995 C3004 0.950 . S
H2996 C3006 0.950 . S
H2997 C3008 0.950 . S
H2998 C3010 0.950 . S
H2999 C3011 0.950 . S
C3000 H2992 0.950 . S
C3000 C3001 1.386 . S
C3000 C3002 1.391 . S
C3001 C3000 1.386 . S
C3001 C3005 1.393 . S
C3002 H2994 0.950 . S
C3002 C3000 1.391 . S
C3002 C3003 1.400 . S
C3003 C3002 1.400 . S
C3003 C3004 1.398 . S
C3003 C3009 1.491 . S
C3004 H2995 0.950 . S
C3004 C3003 1.398 . S
C3004 C3005 1.391 . S
C3005 H2993 0.950 . S
C3005 C3001 1.393 . S
C3005 C3004 1.391 . S
C3006 H2996 0.950 . S
C3006 C3007 1.386 . S
C3006 C3008 1.391 . S
C3007 C3006 1.386 . S
C3007 C3011 1.393 . S
C3008 H2997 0.950 . S
C3008 C3006 1.391 . S
C3008 C3009 1.400 . S
C3009 C3003 1.491 . S
C3009 C3008 1.400 . S
C3009 C3010 1.398 . S
C3010 H2998 0.950 . S
C3010 C3009 1.398 . S
C3010 C3011 1.391 . S
C3011 H2999 0.950 . S
C3011 C3007 1.393 . S
C3011 C3010 1.391 . S
H3012 C3020 0.950 . S
H3013 C3025 0.950 . S
H3014 C3022 0.950 . S
H3015 C3024 0.950 . S
H3016 C3026 0.950 . S
H3017 C3028 0.950 . S
H3018 C3030 0.950 . S
H3019 C3031 0.950 . S
C3020 H3012 0.950 . S
C3020 C3021 1.386 . S
C3020 C3022 1.391 . S
C3021 C3020 1.386 . S
C3021 C3025 1.393 . S
C3022 H3014 0.950 . S
C3022 C3020 1.391 . S
C3022 C3023 1.400 . S
C3023 C3022 1.400 . S
C3023 C3024 1.398 . S
C3023 C3029 1.491 . S
C3024 H3015 0.950 . S
C3024 C3023 1.398 . S
C3024 C3025 1.391 . S
C3025 H3013 0.950 . S
C3025 C3021 1.393 . S
C3025 C3024 1.391 . S
C3026 H3016 0.950 . S
C3026 C3027 1.386 . S
C3026 C3028 1.391 . S
C3027 C3026 1.386 . S
C3027 C3031 1.393 . S
C3028 H3017 0.950 . S
C3028 C3026 1.391 . S
C3028 C3029 1.400 . S
C3029 C3023 1.491 . S
C3029 C3028 1.400 . S
C3029 C3030 1.398 . S
C3030 H3018 0.950 . S
C3030 C3029 1.398 . S
C3030 C3031 1.391 . S
C3031 H3019 0.950 . S
C3031 C3027 1.393 . S
C3031 C3030 1.391 . S
H3032 C3040 0.950 . S
H3033 C3045 0.950 . S
H3034 C3042 0.950 . S
H3035 C3044 0.950 . S
H3036 C3046 0.950 . S
H3037 C3048 0.950 . S
H3038 C3050 0.950 . S
H3039 C3051 0.950 . S
C3040 H3032 0.950 . S
C3040 C3041 1.386 . S
C3040 C3042 1.391 . S
C3041 C3040 1.386 . S
C3041 C3045 1.393 . S
C3042 H3034 0.950 . S
C3042 C3040 1.391 . S
C3042 C3043 1.400 . S
C3043 C3042 1.400 . S
C3043 C3044 1.398 . S
C3043 C3049 1.491 . S
C3044 H3035 0.950 . S
C3044 C3043 1.398 . S
C3044 C3045 1.391 . S
C3045 H3033 0.950 . S
C3045 C3041 1.393 . S
C3045 C3044 1.391 . S
C3046 H3036 0.950 . S
C3046 C3047 1.386 . S
C3046 C3048 1.391 . S
C3047 C3046 1.386 . S
C3047 C3051 1.393 . S
C3048 H3037 0.950 . S
C3048 C3046 1.391 . S
C3048 C3049 1.400 . S
C3049 C3043 1.491 . S
C3049 C3048 1.400 . S
C3049 C3050 1.398 . S
C3050 H3038 0.950 . S
C3050 C3049 1.398 . S
C3050 C3051 1.391 . S
C3051 H3039 0.950 . S
C3051 C3047 1.393 . S
C3051 C3050 1.391 . S
H3052 C3060 0.950 . S
H3053 C3065 0.950 . S
H3054 C3062 0.950 . S
H3055 C3064 0.950 . S
H3056 C3066 0.950 . S
H3057 C3068 0.950 . S
H3058 C3070 0.950 . S
H3059 C3071 0.950 . S
C3060 H3052 0.950 . S
C3060 C3061 1.386 . S
C3060 C3062 1.391 . S
C3061 C3060 1.386 . S
C3061 C3065 1.393 . S
C3062 H3054 0.950 . S
C3062 C3060 1.391 . S
C3062 C3063 1.400 . S
C3063 C3062 1.400 . S
C3063 C3064 1.398 . S
C3063 C3069 1.491 . S
C3064 H3055 0.950 . S
C3064 C3063 1.398 . S
C3064 C3065 1.391 . S
C3065 H3053 0.950 . S
C3065 C3061 1.393 . S
C3065 C3064 1.391 . S
C3066 H3056 0.950 . S
C3066 C3067 1.386 . S
C3066 C3068 1.391 . S
C3067 C3066 1.386 . S
C3067 C3071 1.393 . S
C3068 H3057 0.950 . S
C3068 C3066 1.391 . S
C3068 C3069 1.400 . S
C3069 C3063 1.491 . S
C3069 C3068 1.400 . S
C3069 C3070 1.398 . S
C3070 H3058 0.950 . S
C3070 C3069 1.398 . S
C3070 C3071 1.391 . S
C3071 H3059 0.950 . S
C3071 C3067 1.393 . S
C3071 C3070 1.391 . S
C2121 C29 1.229 . S
C2127 C673 1.222 . S
C2141 C724 1.217 . S
C2147 C117 1.234 . S
C2161 C205 1.224 . S
C2167 C821 1.228 . S
C2181 C284 1.230 . S
C2187 C937 1.221 . S
C2201 C1017 1.230 . S
C2207 C381 1.221 . S
C2221 C497 1.226 . S
C2227 C577 1.226 . S
C2241 C1076 1.206 . S
C2247 C1721 1.220 . S
C2261 C1173 1.221 . S
C2267 C1809 1.205 . S
C2281 C1905 1.221 . S
C2287 C1252 1.205 . S
C2301 C1340 1.212 . S
C2307 C1993 1.215 . S
C2321 C1437 1.218 . S
C2327 C2073 1.207 . S
C2341 C1633 1.207 . S
C2347 C1516 1.220 . S
C2361 C57 1.005 . S
C2367 C753 0.998 . S
C2381 C849 1.005 . S
C2387 C145 1.000 . S
C2401 C909 0.995 . S
C2407 C233 0.996 . S
C2421 C313 1.005 . S
C2427 C988 0.999 . S
C2441 C409 0.997 . S
C2447 C548 0.995 . S
C2461 C469 0.997 . S
C2467 C645 1.004 . S
C2481 C1780 1.012 . S
C2487 C1105 1.004 . S
C2501 C1201 1.010 . S
C2507 C1877 1.014 . S
C2521 C1965 1.014 . S
C2527 C1281 1.010 . S
C2541 C2044 1.012 . S
C2547 C1369 1.012 . S
C2561 C1604 1.008 . S
C2567 C1465 1.005 . S
C2581 C1545 1.012 . S
C2587 C1692 1.012 . S
C2601 C49 1.524 . S
C2607 C1349 1.529 . S
C2621 C1428 1.528 . S
C2627 C137 1.524 . S
C2641 C1525 1.526 . S
C2647 C225 1.527 . S
C2661 C321 1.528 . S
C2667 C1085 1.525 . S
C2681 C401 1.526 . S
C2687 C1164 1.526 . S
C2701 C1261 1.526 . S
C2707 C460 1.525 . S
C2721 C1897 1.525 . S
C2727 C557 1.528 . S
C2741 C1985 1.525 . S
C2747 C636 1.528 . S
C2761 C2081 1.528 . S
C2767 C761 1.525 . S
C2781 C1641 1.524 . S
C2787 C841 1.529 . S
C2801 C900 1.526 . S
C2807 C1729 1.527 . S
C2821 C997 1.529 . S
C2827 C1817 1.524 . S
C2841 C20 1.619 . S
C2847 C929 1.617 . S
C2861 C1025 1.623 . S
C2867 C108 1.616 . S
C2881 C585 1.616 . S
C2887 C196 1.623 . S
C2901 C293 1.616 . S
C2907 C665 1.624 . S
C2921 C372 1.623 . S
C2927 C733 1.616 . S
C2941 C489 1.619 . S
C2947 C812 1.624 . S
C2961 C1113 1.624 . S
C2967 C1956 1.620 . S
C2981 C1193 1.617 . S
C2987 C2053 1.623 . S
C3001 C1289 1.617 . S
C3007 C1613 1.621 . S
C3021 C1701 1.624 . S
C3027 C1377 1.620 . S
C3041 C1457 1.618 . S
C3047 C1789 1.624 . S
C3061 C1553 1.619 . S
C3067 C1868 1.624 . S
