# Generated by pormake.
# Topology unp, (4)-cn, num edge types: 1
# Building blocks:
#     Node 0, Type 0, BuildingBlock: GALJAG_clean_sbu_0, # of connection points: 4
#     Node 1, Type 0, BuildingBlock: GALJAG_clean_sbu_0, # of connection points: 4
#     Node 2, Type 0, BuildingBlock: GALJAG_clean_sbu_0, # of connection points: 4
#     Node 3, Type 0, BuildingBlock: GALJAG_clean_sbu_0, # of connection points: 4
#     Node 4, Type 0, BuildingBlock: GALJAG_clean_sbu_0, # of connection points: 4
#     Node 5, Type 0, BuildingBlock: GALJAG_clean_sbu_0, # of connection points: 4
#     Node 6, Type 0, BuildingBlock: GALJAG_clean_sbu_0, # of connection points: 4
#     Node 7, Type 0, BuildingBlock: GALJAG_clean_sbu_0, # of connection points: 4
#     Node 8, Type 0, BuildingBlock: GALJAG_clean_sbu_0, # of connection points: 4
#     Node 9, Type 0, BuildingBlock: GALJAG_clean_sbu_0, # of connection points: 4
#     Node 10, Type 0, BuildingBlock: GALJAG_clean_sbu_0, # of connection points: 4
#     Node 11, Type 0, BuildingBlock: GALJAG_clean_sbu_0, # of connection points: 4
#     Node 12, Type 0, BuildingBlock: GALJAG_clean_sbu_0, # of connection points: 4
#     Node 13, Type 0, BuildingBlock: GALJAG_clean_sbu_0, # of connection points: 4
#     Node 14, Type 0, BuildingBlock: GALJAG_clean_sbu_0, # of connection points: 4
#     Node 15, Type 0, BuildingBlock: GALJAG_clean_sbu_0, # of connection points: 4
#     Node 16, Type 0, BuildingBlock: GALJAG_clean_sbu_0, # of connection points: 4
#     Node 17, Type 0, BuildingBlock: GALJAG_clean_sbu_0, # of connection points: 4
#     Edge 18, Type (0, 0), BuildingBlock: XIVTED_clean_linker_0, # of connection points: 2
#     Edge 19, Type (0, 0), BuildingBlock: XIVTED_clean_linker_0, # of connection points: 2
#     Edge 20, Type (0, 0), BuildingBlock: XIVTED_clean_linker_0, # of connection points: 2
#     Edge 21, Type (0, 0), BuildingBlock: XIVTED_clean_linker_0, # of connection points: 2
#     Edge 22, Type (0, 0), BuildingBlock: XIVTED_clean_linker_0, # of connection points: 2
#     Edge 23, Type (0, 0), BuildingBlock: XIVTED_clean_linker_0, # of connection points: 2
#     Edge 24, Type (0, 0), BuildingBlock: XIVTED_clean_linker_0, # of connection points: 2
#     Edge 25, Type (0, 0), BuildingBlock: XIVTED_clean_linker_0, # of connection points: 2
#     Edge 26, Type (0, 0), BuildingBlock: XIVTED_clean_linker_0, # of connection points: 2
#     Edge 27, Type (0, 0), BuildingBlock: XIVTED_clean_linker_0, # of connection points: 2
#     Edge 28, Type (0, 0), BuildingBlock: XIVTED_clean_linker_0, # of connection points: 2
#     Edge 29, Type (0, 0), BuildingBlock: XIVTED_clean_linker_0, # of connection points: 2
#     Edge 30, Type (0, 0), BuildingBlock: XIVTED_clean_linker_0, # of connection points: 2
#     Edge 31, Type (0, 0), BuildingBlock: XIVTED_clean_linker_0, # of connection points: 2
#     Edge 32, Type (0, 0), BuildingBlock: XIVTED_clean_linker_0, # of connection points: 2
#     Edge 33, Type (0, 0), BuildingBlock: XIVTED_clean_linker_0, # of connection points: 2
#     Edge 34, Type (0, 0), BuildingBlock: XIVTED_clean_linker_0, # of connection points: 2
#     Edge 35, Type (0, 0), BuildingBlock: XIVTED_clean_linker_0, # of connection points: 2
#     Edge 36, Type (0, 0), BuildingBlock: XIVTED_clean_linker_0, # of connection points: 2
#     Edge 37, Type (0, 0), BuildingBlock: XIVTED_clean_linker_0, # of connection points: 2
#     Edge 38, Type (0, 0), BuildingBlock: XIVTED_clean_linker_0, # of connection points: 2
#     Edge 39, Type (0, 0), BuildingBlock: XIVTED_clean_linker_0, # of connection points: 2
#     Edge 40, Type (0, 0), BuildingBlock: XIVTED_clean_linker_0, # of connection points: 2
#     Edge 41, Type (0, 0), BuildingBlock: XIVTED_clean_linker_0, # of connection points: 2
#     Edge 42, Type (0, 0), BuildingBlock: XIVTED_clean_linker_0, # of connection points: 2
#     Edge 43, Type (0, 0), BuildingBlock: XIVTED_clean_linker_0, # of connection points: 2
#     Edge 44, Type (0, 0), BuildingBlock: XIVTED_clean_linker_0, # of connection points: 2
#     Edge 45, Type (0, 0), BuildingBlock: XIVTED_clean_linker_0, # of connection points: 2
#     Edge 46, Type (0, 0), BuildingBlock: XIVTED_clean_linker_0, # of connection points: 2
#     Edge 47, Type (0, 0), BuildingBlock: XIVTED_clean_linker_0, # of connection points: 2
#     Edge 48, Type (0, 0), BuildingBlock: XIVTED_clean_linker_0, # of connection points: 2
#     Edge 49, Type (0, 0), BuildingBlock: XIVTED_clean_linker_0, # of connection points: 2
#     Edge 50, Type (0, 0), BuildingBlock: XIVTED_clean_linker_0, # of connection points: 2
#     Edge 51, Type (0, 0), BuildingBlock: XIVTED_clean_linker_0, # of connection points: 2
#     Edge 52, Type (0, 0), BuildingBlock: XIVTED_clean_linker_0, # of connection points: 2
#     Edge 53, Type (0, 0), BuildingBlock: XIVTED_clean_linker_0, # of connection points: 2
# Relax obj value: 0.397
# Max RMSD: 0.139
# Mean RMSD: 0.139
data_MOF--net-unp--node1-GALJAG_clean_sbu_0--edge1-XIVTED_clean_linker_0
_symmetry_space_group_name_H-M    P1
_symmetry_Int_Tables_number       1
_symmetry_cell_setting            triclinic
loop_
_symmetry_equiv_pos_as_xyz
'x, y, z'
_cell_length_a     49.754719
_cell_length_b     49.776144
_cell_length_c     42.648466
_cell_angle_alpha  90.012043
_cell_angle_beta   89.997227
_cell_angle_gamma 119.96748
loop_
_atom_site_label
_atom_site_type_symbol
_atom_site_fract_x
_atom_site_fract_y
_atom_site_fract_z
_atom_type_partial_charge
In0 In 0.16507 0.1646 0.17479 0.0
O1 O 0.20406 0.2149 0.18356 0.0
O2 O 0.21457 0.17875 0.18709 0.0
C3 C 0.11725 0.17005 0.19775 0.0
C4 C 0.16085 0.1646 0.11184 0.0
C5 C 0.15599 0.10846 0.19166 0.0
O6 O 0.13397 0.16386 0.21509 0.0
O7 O 0.12577 0.17509 0.16957 0.0
O8 O 0.16368 0.11922 0.16428 0.0
O9 O 0.15285 0.12608 0.21079 0.0
C10 C 0.22469 0.20749 0.18708 0.0
O11 O 0.14282 0.14133 0.12821 0.0
O12 O 0.18061 0.18769 0.12727 0.0
In13 In 0.83805 0.00683 0.18185 0.0
O14 O 0.78652 0.99225 0.18675 0.0
O15 O 0.82011 0.03656 0.2033 0.0
C16 C 0.83266 0.9525 0.20095 0.0
C17 C 0.84138 0.00814 0.11876 0.0
C18 C 0.89376 0.05449 0.19945 0.0
O19 O 0.83917 0.97455 0.21965 0.0
O20 O 0.82703 0.95725 0.17339 0.0
O21 O 0.88116 0.05379 0.17358 0.0
O22 O 0.87809 0.03124 0.2168 0.0
C23 C 0.7919 0.01794 0.19782 0.0
O24 O 0.86132 0.0065 0.13572 0.0
O25 O 0.82003 0.00922 0.13364 0.0
In26 In 0.99724 0.83619 0.18016 0.0
O27 O -0.00062 0.85988 0.1335 0.0
O28 O 0.99569 0.81542 0.13243 0.0
C29 C 0.949 0.84426 0.19532 0.0
C30 C 0.98568 0.77917 0.19759 0.0
C31 C 0.05111 0.88491 0.2006 0.0
O32 O 0.95057 0.83247 0.16969 0.0
O33 O 0.97166 0.85176 0.21353 0.0
O34 O 0.02804 0.87016 0.21834 0.0
O35 O 0.04755 0.87389 0.17338 0.0
C36 C 0.99779 0.83802 0.11704 0.0
O37 O 0.01121 0.7989 0.18574 0.0
O38 O 0.96739 0.7892 0.20293 0.0
In39 In 0.16485 0.16669 0.81404 0.0
O40 O 0.21655 0.20314 0.8113 0.0
O41 O 0.18444 0.21324 0.78951 0.0
C42 C 0.17009 0.11781 0.79448 0.0
C43 C 0.16072 0.16449 0.87708 0.0
C44 C 0.10955 0.16044 0.79741 0.0
O45 O 0.16316 0.13322 0.77605 0.0
O46 O 0.17605 0.12819 0.82205 0.0
O47 O 0.12383 0.17427 0.82199 0.0
O48 O 0.12328 0.14995 0.7809 0.0
C49 C 0.21218 0.22297 0.79742 0.0
O50 O 0.14166 0.1424 0.86 0.0
O51 O 0.18155 0.1874 0.86233 0.0
In52 In 0.83835 0.00284 0.82085 0.0
O53 O 0.85952 0.00122 0.86787 0.0
O54 O 0.82059 0.00807 0.86817 0.0
C55 C 0.84828 0.95602 0.80488 0.0
C56 C 0.77965 0.987 0.80497 0.0
C57 C 0.88638 0.05663 0.79925 0.0
O58 O 0.83633 0.95691 0.83068 0.0
O59 O 0.85514 0.97874 0.78696 0.0
O60 O 0.86881 0.03486 0.78113 0.0
O61 O 0.87856 0.05188 0.82763 0.0
C62 C 0.84049 0.00525 0.88394 0.0
O63 O 0.79888 0.01382 0.81457 0.0
O64 O 0.79082 0.96946 0.8012 0.0
In65 In 0.00571 0.83923 0.81926 0.0
O66 O 0.00611 0.86295 0.86536 0.0
O67 O 0.00455 0.8195 0.86748 0.0
C68 C 0.05425 0.89442 0.80219 0.0
C69 C 0.0173 0.79318 0.80433 0.0
C70 C 0.95234 0.83536 0.79892 0.0
O71 O 0.05233 0.88231 0.82868 0.0
O72 O 0.03173 0.87856 0.78404 0.0
O73 O 0.97499 0.84239 0.78089 0.0
O74 O 0.95599 0.82845 0.82634 0.0
C75 C 0.00512 0.84168 0.88234 0.0
O76 O 0.99082 0.78772 0.81302 0.0
O77 O 0.03655 0.8215 0.80047 0.0
In78 In 0.83812 0.49135 0.50316 0.0
O79 O 0.8689 0.54297 0.49399 0.0
O80 O 0.88394 0.52319 0.52882 0.0
C81 C 0.78699 0.4941 0.5193 0.0
C82 C 0.83512 0.47797 0.44167 0.0
C83 C 0.8353 0.43944 0.52688 0.0
O84 O 0.80296 0.48941 0.53923 0.0
O85 O 0.79764 0.49875 0.4918 0.0
O86 O 0.84949 0.45226 0.50198 0.0
O87 O 0.82347 0.45346 0.54065 0.0
C88 C 0.89 0.54683 0.51276 0.0
O89 O 0.81111 0.46766 0.45854 0.0
O90 O 0.86035 0.4943 0.456 0.0
In91 In 0.50621 0.34065 0.50275 0.0
O92 O 0.45397 0.32136 0.50015 0.0
O93 O 0.48003 0.36177 0.52743 0.0
C94 C 0.50386 0.28838 0.52441 0.0
C95 C 0.51172 0.34298 0.4399 0.0
C96 C 0.56163 0.39011 0.51898 0.0
O97 O 0.51215 0.312 0.54134 0.0
O98 O 0.49521 0.29058 0.49724 0.0
O99 O 0.54906 0.38758 0.4927 0.0
O100 O 0.54578 0.36819 0.53767 0.0
C101 C 0.454 0.34267 0.51601 0.0
O102 O 0.49773 0.3543 0.4547 0.0
O103 O 0.52371 0.33094 0.4569 0.0
In104 In 0.66321 0.16902 0.50487 0.0
O105 O 0.68153 0.13617 0.49503 0.0
O106 O 0.64624 0.122 0.52924 0.0
C107 C 0.71722 0.21723 0.52529 0.0
C108 C 0.65642 0.17488 0.44308 0.0
C109 C 0.61506 0.17489 0.52652 0.0
O110 O 0.69505 0.20088 0.54363 0.0
O111 O 0.71257 0.20835 0.49712 0.0
O112 O 0.64021 0.18512 0.54132 0.0
O113 O 0.61385 0.16085 0.50157 0.0
C114 C 0.66318 0.11506 0.51317 0.0
O115 O 0.64346 0.14917 0.45716 0.0
O116 O 0.6725 0.19814 0.46036 0.0
In117 In 0.83206 0.49597 0.14685 0.0
O118 O 0.80842 0.47068 0.19211 0.0
O119 O 0.85664 0.50383 0.19362 0.0
C120 C 0.77541 0.48626 0.13179 0.0
C121 C 0.87157 0.55755 0.14025 0.0
C122 C 0.8378 0.45063 0.11796 0.0
O123 O 0.78525 0.49003 0.15966 0.0
O124 O 0.79414 0.48711 0.11123 0.0
O125 O 0.82841 0.46658 0.10371 0.0
O126 O 0.84628 0.45913 0.14573 0.0
C127 C 0.8328 0.48449 0.20843 0.0
O128 O 0.88066 0.53819 0.13663 0.0
O129 O 0.84292 0.54558 0.14474 0.0
In130 In 0.50249 0.33539 0.14215 0.0
O131 O 0.52279 0.33067 0.1886 0.0
O132 O 0.48584 0.34048 0.19014 0.0
C133 C 0.50998 0.28745 0.12475 0.0
C134 C 0.44482 0.32285 0.12581 0.0
C135 C 0.55214 0.38904 0.12282 0.0
O136 O 0.49636 0.28742 0.14975 0.0
O137 O 0.51973 0.31168 0.10834 0.0
O138 O 0.5357 0.36749 0.10396 0.0
O139 O 0.5424 0.38412 0.1506 0.0
C140 C 0.50488 0.33581 0.2053 0.0
O141 O 0.46476 0.34889 0.13649 0.0
O142 O 0.45495 0.30459 0.12093 0.0
In143 In 0.66758 0.17423 0.14635 0.0
O144 O 0.67388 0.20031 0.19239 0.0
O145 O 0.65399 0.15128 0.19412 0.0
C146 C 0.7138 0.22941 0.12635 0.0
C147 C 0.68504 0.1314 0.13626 0.0
C148 C 0.61445 0.16918 0.12374 0.0
O149 O 0.71305 0.21901 0.15353 0.0
O150 O 0.69102 0.21199 0.10907 0.0
O151 O 0.63579 0.17182 0.10577 0.0
O152 O 0.61944 0.1676 0.15237 0.0
C153 C 0.6626 0.17613 0.20908 0.0
O154 O 0.65694 0.12373 0.13977 0.0
O155 O 0.70328 0.16017 0.13539 0.0
In156 In 0.49663 0.82611 0.8497 0.0
O157 O 0.53666 0.87607 0.85883 0.0
O158 O 0.54657 0.83942 0.85769 0.0
C159 C 0.44867 0.83135 0.87246 0.0
C160 C 0.48996 0.8254 0.78701 0.0
C161 C 0.48711 0.7707 0.86964 0.0
O162 O 0.46682 0.82767 0.89029 0.0
O163 O 0.4558 0.83396 0.84391 0.0
O164 O 0.49508 0.78029 0.84192 0.0
O165 O 0.48371 0.78904 0.88751 0.0
C166 C 0.55711 0.86815 0.85952 0.0
O167 O 0.47626 0.80103 0.80336 0.0
O168 O 0.50683 0.84987 0.80231 0.0
In169 In 0.16949 0.66788 0.85513 0.0
O170 O 0.11861 0.65538 0.86199 0.0
O171 O 0.154 0.70095 0.8727 0.0
C172 C 0.165 0.61447 0.87606 0.0
C173 C 0.17074 0.66527 0.79206 0.0
C174 C 0.22539 0.7153 0.87199 0.0
O175 O 0.17044 0.63654 0.89433 0.0
O176 O 0.16016 0.6188 0.84808 0.0
O177 O 0.21237 0.71473 0.84639 0.0
O178 O 0.21009 0.69193 0.88935 0.0
C179 C 0.12539 0.68249 0.86969 0.0
O180 O 0.19425 0.67188 0.80868 0.0
O181 O 0.14688 0.66012 0.80725 0.0
In182 In 0.33451 0.50432 0.85198 0.0
O183 O 0.34205 0.46272 0.86128 0.0
O184 O 0.29632 0.4545 0.85589 0.0
C185 C 0.38639 0.54948 0.87985 0.0
C186 C 0.34516 0.51594 0.79019 0.0
C187 C 0.28769 0.51389 0.86812 0.0
O188 O 0.36124 0.53408 0.89456 0.0
O189 O 0.38573 0.54058 0.85212 0.0
O190 O 0.29256 0.50883 0.84026 0.0
O191 O 0.30663 0.51427 0.88814 0.0
C192 C 0.31357 0.44299 0.85913 0.0
O193 O 0.33601 0.53046 0.80734 0.0
O194 O 0.34895 0.49577 0.80423 0.0
In195 In 0.4952 0.83835 0.49071 0.0
O196 O 0.54711 0.87043 0.49706 0.0
O197 O 0.52418 0.88511 0.46558 0.0
C198 C 0.49876 0.78874 0.47049 0.0
C199 C 0.48544 0.83391 0.55305 0.0
C200 C 0.44105 0.83361 0.47127 0.0
O201 O 0.5052 0.79893 0.49814 0.0
O202 O 0.49184 0.80446 0.45244 0.0
O203 O 0.45426 0.84663 0.4965 0.0
O204 O 0.45564 0.82386 0.45514 0.0
C205 C 0.54902 0.89165 0.4796 0.0
O206 O 0.49949 0.85948 0.53876 0.0
O207 O 0.47553 0.81022 0.53575 0.0
In208 In 0.16735 0.66371 0.49484 0.0
O209 O 0.14513 0.64923 0.54275 0.0
O210 O 0.19443 0.67191 0.54056 0.0
C211 C 0.17339 0.61459 0.47716 0.0
C212 C 0.11343 0.66247 0.48215 0.0
C213 C 0.2169 0.71688 0.47447 0.0
O214 O 0.16097 0.61545 0.50256 0.0
O215 O 0.18184 0.63805 0.45997 0.0
O216 O 0.20079 0.69444 0.45636 0.0
O217 O 0.20707 0.71301 0.50226 0.0
C218 C 0.17038 0.65976 0.55752 0.0
O219 O 0.13449 0.68295 0.49889 0.0
O220 O 0.12044 0.64385 0.4696 0.0
In221 In 0.34714 0.51224 0.49515 0.0
O222 O 0.34188 0.53366 0.54055 0.0
O223 O 0.36707 0.50947 0.542 0.0
C224 C 0.39541 0.56527 0.47214 0.0
C225 C 0.34489 0.45739 0.48518 0.0
C226 C 0.29329 0.50919 0.4783 0.0
O227 O 0.39668 0.55308 0.49753 0.0
O228 O 0.37015 0.55011 0.45757 0.0
O229 O 0.31413 0.51381 0.45863 0.0
O230 O 0.29906 0.50466 0.50595 0.0
C231 C 0.35665 0.5242 0.55695 0.0
O232 O 0.32674 0.46048 0.50337 0.0
O233 O 0.36272 0.48148 0.46985 0.0
H234 H 0.39852 0.26717 0.10558 0.0
H235 H 0.25401 0.27059 0.17645 0.0
H236 H 0.41461 0.35168 0.15051 0.0
H237 H 0.27131 0.19432 0.18755 0.0
H238 H 0.30781 0.30309 0.15774 0.0
H239 H 0.34441 0.24219 0.12198 0.0
C240 C 0.39049 0.28075 0.11817 0.0
C241 C 0.41118 0.31138 0.12714 0.0
C242 C 0.29971 0.27934 0.16473 0.0
C243 C 0.34944 0.28277 0.14626 0.0
C244 C 0.26925 0.26091 0.17564 0.0
C245 C 0.25815 0.22965 0.18336 0.0
C246 C 0.31853 0.26598 0.16094 0.0
C247 C 0.27875 0.21819 0.18168 0.0
C248 C 0.35972 0.26637 0.1278 0.0
C249 C 0.39938 0.32792 0.1433 0.0
N250 N 0.30772 0.23617 0.17013 0.0
N251 N 0.36919 0.31324 0.15277 0.0
H252 H 0.73197 0.98689 0.17539 0.0
H253 H 0.74471 0.1449 0.13121 0.0
H254 H 0.80092 0.07439 0.21482 0.0
H255 H 0.65282 0.06915 0.15148 0.0
H256 H 0.76649 0.11364 0.14995 0.0
H257 H 0.70176 0.01139 0.15888 0.0
C258 C 0.7403 0.01093 0.18137 0.0
C259 C 0.76921 0.02878 0.19614 0.0
C260 C 0.74152 0.10376 0.15001 0.0
C261 C 0.73556 0.05676 0.17646 0.0
C262 C 0.72903 0.12142 0.139 0.0
C263 C 0.69692 0.10973 0.14013 0.0
C264 C 0.72185 0.07399 0.16187 0.0
C265 C 0.67774 0.07902 0.15033 0.0
C266 C 0.72318 0.02485 0.17175 0.0
C267 C 0.77898 0.05983 0.20321 0.0
N268 N 0.69054 0.0621 0.16104 0.0
N269 N 0.76255 0.07299 0.19267 0.0
H270 H 0.93566 0.59032 0.14349 0.0
H271 H 0.93181 0.73321 0.22187 0.0
H272 H 0.85477 0.6008 0.14985 0.0
H273 H 0.01358 0.74876 0.17141 0.0
H274 H 0.90672 0.67848 0.20797 0.0
H275 H 0.96774 0.64426 0.16207 0.0
C276 C 0.92477 0.60406 0.14824 0.0
C277 C 0.89251 0.59107 0.14524 0.0
C278 C 0.93034 0.6938 0.20033 0.0
C279 C 0.92853 0.65163 0.16745 0.0
C280 C 0.9448 0.72496 0.20854 0.0
C281 C 0.97461 0.74561 0.19735 0.0
C282 C 0.9458 0.68313 0.18088 0.0
C283 C 0.99044 0.73357 0.18032 0.0
C284 C 0.94298 0.63459 0.15907 0.0
C285 C 0.87949 0.60974 0.15195 0.0
N286 N 0.97564 0.70302 0.17215 0.0
N287 N 0.89746 0.63885 0.16309 0.0
H288 H 0.25342 0.39872 0.85228 0.0
H289 H 0.26972 0.25229 0.8253 0.0
H290 H 0.34584 0.41139 0.85304 0.0
H291 H 0.20536 0.26994 0.77396 0.0
H292 H 0.29823 0.30718 0.84102 0.0
H293 H 0.23352 0.34629 0.83279 0.0
C294 C 0.26952 0.3903 0.84884 0.0
C295 C 0.30139 0.40955 0.85404 0.0
C296 C 0.27829 0.29902 0.82573 0.0
C297 C 0.27865 0.34949 0.83134 0.0
C298 C 0.26215 0.26785 0.81654 0.0
C299 C 0.23485 0.25648 0.79868 0.0
C300 C 0.26656 0.31844 0.81736 0.0
C301 C 0.22603 0.27759 0.78805 0.0
C302 C 0.25815 0.36048 0.83735 0.0
C303 C 0.32109 0.39723 0.84929 0.0
N304 N 0.24142 0.30738 0.79814 0.0
N305 N 0.30938 0.36781 0.83808 0.0
H306 H 0.73513 0.93053 0.78452 0.0
H307 H 0.58731 0.93173 0.85152 0.0
H308 H 0.74718 0.01415 0.82804 0.0
H309 H 0.60301 0.85406 0.85767 0.0
H310 H 0.64163 0.96462 0.83439 0.0
H311 H 0.68039 0.9043 0.79858 0.0
C312 C 0.7261 0.94361 0.79638 0.0
C313 C 0.74579 0.97441 0.80554 0.0
C314 C 0.63303 0.94044 0.83988 0.0
C315 C 0.68326 0.94435 0.8221 0.0
C316 C 0.60227 0.92177 0.84988 0.0
C317 C 0.59063 0.89009 0.85586 0.0
C318 C 0.65167 0.92695 0.83529 0.0
C319 C 0.61087 0.87828 0.85314 0.0
C320 C 0.69494 0.92853 0.80468 0.0
C321 C 0.73274 0.99029 0.8207 0.0
N322 N 0.64019 0.89657 0.84263 0.0
N323 N 0.70218 0.97493 0.82892 0.0
H324 H 0.13683 0.74073 0.8818 0.0
H325 H 0.98388 0.73231 0.82379 0.0
H326 H 0.06453 0.65119 0.84984 0.0
H327 H 0.07501 0.80254 0.79325 0.0
H328 H 0.0064 0.70094 0.84256 0.0
H329 H 0.10662 0.76375 0.86303 0.0
C330 C 0.11423 0.72574 0.87158 0.0
C331 C 0.10337 0.69408 0.86697 0.0
C332 C 0.02114 0.72297 0.83118 0.0
C333 C 0.06892 0.72041 0.84524 0.0
C334 C 0.00837 0.74074 0.82024 0.0
C335 C 0.0277 0.77024 0.80725 0.0
C336 C 0.05334 0.73531 0.82963 0.0
C337 C 0.05928 0.78012 0.80337 0.0
C338 C 0.0972 0.73897 0.86058 0.0
C339 C 0.07377 0.67576 0.85369 0.0
N340 N 0.07121 0.76301 0.81515 0.0
N341 N 0.05753 0.68928 0.84293 0.0
H342 H 0.91509 0.58547 0.46294 0.0
H343 H 0.08683 0.67797 0.52909 0.0
H344 H 0.93709 0.56829 0.55602 0.0
H345 H 0.0665 0.63112 0.43976 0.0
H346 H 0.03111 0.6569 0.53764 0.0
H347 H 0.97032 0.62172 0.45379 0.0
C348 C 0.9314 0.59008 0.48183 0.0
C349 C 0.92161 0.57376 0.51027 0.0
C350 C 0.03904 0.65199 0.51587 0.0
C351 C 0.98437 0.61536 0.49996 0.0
C352 C 0.07073 0.66412 0.51081 0.0
C353 C 0.08118 0.65613 0.48368 0.0
C354 C 0.01787 0.63254 0.49326 0.0
C355 C 0.05931 0.63773 0.46098 0.0
C356 C 0.96282 0.61057 0.47644 0.0
C357 C 0.94376 0.58035 0.53377 0.0
N358 N 0.02855 0.62644 0.46631 0.0
N359 N 0.97426 0.60065 0.52806 0.0
H360 H 0.33148 0.41861 0.53484 0.0
H361 H 0.41139 0.32657 0.46952 0.0
H362 H 0.37164 0.43689 0.44219 0.0
H363 H 0.43919 0.37496 0.55797 0.0
H364 H 0.37674 0.34767 0.46089 0.0
H365 H 0.35109 0.38286 0.54409 0.0
C366 C 0.34353 0.41433 0.51606 0.0
C367 C 0.35011 0.4308 0.4877 0.0
C368 C 0.38987 0.35292 0.4825 0.0
C369 C 0.37199 0.38977 0.49812 0.0
C370 C 0.40941 0.34077 0.48761 0.0
C371 C 0.42818 0.34915 0.51451 0.0
C372 C 0.38847 0.37276 0.50487 0.0
C373 C 0.42511 0.36802 0.53695 0.0
C374 C 0.35483 0.39414 0.52151 0.0
C375 C 0.36617 0.42469 0.46436 0.0
N376 N 0.40562 0.37929 0.5316 0.0
N377 N 0.37669 0.40464 0.47011 0.0
H378 H 0.675 0.08936 0.46267 0.0
H379 H 0.59046 0.91696 0.52726 0.0
H380 H 0.63567 0.06751 0.55567 0.0
H381 H 0.56647 0.93919 0.43752 0.0
H382 H 0.62618 0.97231 0.53638 0.0
H383 H 0.65407 0.03392 0.45274 0.0
C384 C 0.66282 0.07299 0.48136 0.0
C385 C 0.65689 0.08293 0.51004 0.0
C386 C 0.61362 0.96486 0.51441 0.0
C387 C 0.63347 0.01991 0.49884 0.0
C388 C 0.59344 0.93338 0.50903 0.0
C389 C 0.57541 0.92358 0.48161 0.0
C390 C 0.61636 0.98649 0.49185 0.0
C391 C 0.5799 0.94586 0.45897 0.0
C392 C 0.65076 0.04146 0.47553 0.0
C393 C 0.64064 0.06072 0.53326 0.0
N394 N 0.59994 0.97642 0.46462 0.0
N395 N 0.62937 0.03011 0.52713 0.0
H396 H 0.08154 0.18915 0.16759 0.0
H397 H 0.92957 0.05744 0.24964 0.0
H398 H 0.08288 0.13851 0.24905 0.0
H399 H 0.93026 0.10767 0.16692 0.0
H400 H 0.98481 0.09458 0.2572 0.0
H401 H 0.02605 0.16846 0.17512 0.0
C402 C 0.07025 0.17427 0.18756 0.0
C403 C 0.08664 0.16508 0.20741 0.0
C404 C 0.97275 0.09778 0.23771 0.0
C405 C 0.02295 0.14056 0.21569 0.0
C406 C 0.94123 0.07659 0.23338 0.0
C407 C 0.92551 0.07919 0.20729 0.0
C408 C 0.98858 0.12163 0.2157 0.0
C409 C 0.94162 0.10453 0.18709 0.0
C410 C 0.03851 0.1623 0.19177 0.0
C411 C 0.07099 0.14596 0.23306 0.0
N412 N 0.97234 0.12451 0.19149 0.0
N413 N 0.03981 0.13374 0.23607 0.0
H414 H 0.86048 0.94513 0.25309 0.0
H415 H 0.89713 0.82843 0.16059 0.0
H416 H 0.81827 0.90171 0.16515 0.0
H417 H 0.94391 0.87568 0.24558 0.0
H418 H 0.85972 0.84597 0.16839 0.0
H419 H 0.8819 0.91045 0.25756 0.0
C420 C 0.85497 0.9277 0.23518 0.0
C421 C 0.83806 0.92663 0.20842 0.0
C422 C 0.8779 0.85218 0.18559 0.0
C423 C 0.8629 0.88736 0.21308 0.0
C424 C 0.89928 0.84219 0.18112 0.0
C425 C 0.92394 0.85107 0.20219 0.0
C426 C 0.88135 0.87146 0.21117 0.0
C427 C 0.92543 0.86862 0.22857 0.0
C428 C 0.8674 0.90806 0.23762 0.0
C429 C 0.83158 0.9036 0.18594 0.0
N430 N 0.90469 0.87863 0.23208 0.0
N431 N 0.84445 0.88524 0.18851 0.0
H432 H 0.12908 0.07543 0.24524 0.0
H433 H 0.10436 0.91941 0.16744 0.0
H434 H 0.16777 0.06978 0.1566 0.0
H435 H 0.05586 0.92194 0.25023 0.0
H436 H 0.1386 0.97536 0.17146 0.0
H437 H 0.11221 0.02068 0.25474 0.0
C438 C 0.13443 0.06279 0.22802 0.0
C439 C 0.14933 0.07693 0.19984 0.0
C440 C 0.12088 0.96365 0.18914 0.0
C441 C 0.13025 0.01453 0.21054 0.0
C442 C 0.10144 0.93165 0.18696 0.0
C443 C 0.07689 0.91616 0.20818 0.0
C444 C 0.11546 0.9803 0.21249 0.0
C445 C 0.07433 0.93309 0.23317 0.0
C446 C 0.12482 0.03158 0.23345 0.0
C447 C 0.15589 0.05962 0.17841 0.0
N448 N 0.09296 0.96442 0.23427 0.0
N449 N 0.14603 0.02926 0.18406 0.0
H450 H 0.10709 0.9304 0.83547 0.0
H451 H 0.14168 0.08251 0.74258 0.0
H452 H 0.05893 0.92994 0.75117 0.0
H453 H 0.18582 0.08192 0.82943 0.0
H454 H 0.12074 0.02653 0.73799 0.0
H455 H 0.14473 0.98499 0.82656 0.0
C456 C 0.10468 0.94172 0.81484 0.0
C457 C 0.07956 0.92584 0.79434 0.0
C458 C 0.13557 0.03876 0.75769 0.0
C459 C 0.12238 0.98844 0.78412 0.0
C460 C 0.14772 0.07076 0.76021 0.0
C461 C 0.16498 0.08671 0.78675 0.0
C462 C 0.14073 0.02274 0.78195 0.0
C463 C 0.17218 0.07039 0.80884 0.0
C464 C 0.12621 0.9729 0.80972 0.0
C465 C 0.07779 0.94149 0.76776 0.0
N466 N 0.15956 0.03921 0.80623 0.0
N467 N 0.09862 0.9721 0.76368 0.0
H468 H 0.07641 0.18194 0.82899 0.0
H469 H 0.91859 0.06143 0.7455 0.0
H470 H 0.07095 0.12552 0.74974 0.0
H471 H 0.92464 0.10893 0.8321 0.0
H472 H 0.97451 0.09531 0.73808 0.0
H473 H 0.0217 0.1657 0.82194 0.0
C474 C 0.06378 0.16645 0.80981 0.0
C475 C 0.07804 0.15458 0.79027 0.0
C476 C 0.96347 0.09879 0.75833 0.0
C477 C 0.01533 0.13571 0.7822 0.0
C478 C 0.93151 0.07963 0.76244 0.0
C479 C 0.91715 0.08207 0.78975 0.0
C480 C 0.98099 0.12044 0.7817 0.0
C481 C 0.93494 0.10599 0.81095 0.0
C482 C 0.03253 0.1572 0.80578 0.0
C483 C 0.0607 0.1349 0.76557 0.0
N484 N 0.96602 0.12392 0.80674 0.0
N485 N 0.03009 0.12568 0.76252 0.0
H486 H 0.89948 0.81832 0.8322 0.0
H487 H 0.87899 0.95173 0.75352 0.0
H488 H 0.94847 0.86785 0.749 0.0
H489 H 0.83401 0.90425 0.83904 0.0
H490 H 0.89615 0.91397 0.74498 0.0
H491 H 0.86614 0.84108 0.82773 0.0
C492 C 0.9027 0.83339 0.81251 0.0
C493 C 0.92709 0.84164 0.79124 0.0
C494 C 0.88215 0.91155 0.76538 0.0
C495 C 0.88956 0.86844 0.78642 0.0
C496 C 0.87238 0.93311 0.77027 0.0
C497 C 0.8555 0.93138 0.79729 0.0
C498 C 0.87502 0.88818 0.78772 0.0
C499 C 0.84736 0.90668 0.81811 0.0
C500 C 0.88377 0.84655 0.81006 0.0
C501 C 0.93008 0.86108 0.76606 0.0
N502 N 0.85749 0.88628 0.81307 0.0
N503 N 0.91195 0.87436 0.7647 0.0
H504 H 0.75188 0.4695 0.57227 0.0
H505 H 0.59899 0.4404 0.48295 0.0
H506 H 0.75082 0.50706 0.48143 0.0
H507 H 0.59806 0.39468 0.56921 0.0
H508 H 0.65488 0.47444 0.48855 0.0
H509 H 0.69645 0.45167 0.57784 0.0
C510 C 0.74016 0.47465 0.55383 0.0
C511 C 0.75581 0.48937 0.52614 0.0
C512 C 0.64244 0.45729 0.50654 0.0
C513 C 0.69249 0.4688 0.53219 0.0
C514 C 0.61049 0.43788 0.50338 0.0
C515 C 0.59397 0.41437 0.5254 0.0
C516 C 0.65808 0.45299 0.53175 0.0
C517 C 0.61 0.41234 0.55154 0.0
C518 C 0.70849 0.46432 0.55695 0.0
C519 C 0.73953 0.49545 0.503 0.0
N520 N 0.64128 0.43107 0.55375 0.0
N521 N 0.70869 0.48479 0.50637 0.0
H522 H 0.48505 0.23384 0.49346 0.0
H523 H 0.6155 0.21126 0.57501 0.0
H524 H 0.53639 0.28552 0.5748 0.0
H525 H 0.55995 0.15654 0.49696 0.0
H526 H 0.58017 0.23166 0.58198 0.0
H527 H 0.50484 0.19826 0.50117 0.0
C528 C 0.49997 0.23729 0.51337 0.0
C529 C 0.50949 0.26292 0.53323 0.0
C530 C 0.57537 0.21475 0.56369 0.0
C531 C 0.53283 0.2227 0.54183 0.0
C532 C 0.5955 0.20306 0.55974 0.0
C533 C 0.59091 0.18259 0.53503 0.0
C534 C 0.55064 0.20605 0.54262 0.0
C535 C 0.56458 0.17261 0.51605 0.0
C536 C 0.51136 0.21702 0.51772 0.0
C537 C 0.52868 0.26617 0.55877 0.0
N538 N 0.54573 0.1848 0.51994 0.0
N539 N 0.54023 0.24666 0.56199 0.0
H540 H 0.85662 0.40426 0.49915 0.0
H541 H 0.72453 0.25016 0.57914 0.0
H542 H 0.79834 0.40296 0.57474 0.0
H543 H 0.76999 0.25338 0.49194 0.0
H544 H 0.76228 0.30508 0.58756 0.0
H545 H 0.83623 0.34875 0.5065 0.0
C546 C 0.84002 0.39242 0.51776 0.0
C547 C 0.82866 0.40807 0.53595 0.0
C548 C 0.76438 0.29357 0.56693 0.0
C549 C 0.80497 0.34449 0.54422 0.0
C550 C 0.74296 0.26219 0.56219 0.0
C551 C 0.74385 0.24742 0.53451 0.0
C552 C 0.78681 0.31012 0.54385 0.0
C553 C 0.76821 0.26406 0.51337 0.0
C554 C 0.82832 0.3607 0.52188 0.0
C555 C 0.8074 0.39166 0.55993 0.0
N556 N 0.78846 0.29464 0.51825 0.0
N557 N 0.79581 0.3606 0.56302 0.0
H558 H 0.71542 0.26271 0.07443 0.0
H559 H 0.86037 0.41509 0.14186 0.0
H560 H 0.76883 0.26632 0.15565 0.0
H561 H 0.79979 0.41584 0.06995 0.0
H562 H 0.83659 0.35908 0.13569 0.0
H563 H 0.75423 0.31667 0.06257 0.0
C564 C 0.73555 0.27471 0.08947 0.0
C565 C 0.73868 0.26031 0.11639 0.0
C566 C 0.82893 0.37153 0.12073 0.0
C567 C 0.78309 0.32173 0.10291 0.0
C568 C 0.84269 0.40357 0.12407 0.0
C569 C 0.83155 0.41997 0.10686 0.0
C570 C 0.80359 0.35578 0.10033 0.0
C571 C 0.80881 0.40397 0.08394 0.0
C572 C 0.75768 0.30545 0.08268 0.0
C573 C 0.76526 0.27676 0.13496 0.0
N574 N 0.795 0.37256 0.08186 0.0
N575 N 0.78625 0.30667 0.12805 0.0
H576 H 0.74276 0.46385 0.077 0.0
H577 H 0.58797 0.44112 0.15687 0.0
H578 H 0.73669 0.4953 0.16962 0.0
H579 H 0.5885 0.39342 0.07263 0.0
H580 H 0.64421 0.47347 0.15335 0.0
H581 H 0.68834 0.44904 0.06784 0.0
C582 C 0.7301 0.46803 0.0952 0.0
C583 C 0.74398 0.48031 0.1243 0.0
C584 C 0.63202 0.45636 0.13525 0.0
C585 C 0.68216 0.4638 0.11392 0.0
C586 C 0.59988 0.43804 0.13713 0.0
C587 C 0.5837 0.41422 0.11533 0.0
C588 C 0.64812 0.45054 0.11163 0.0
C589 C 0.6002 0.4114 0.09007 0.0
C590 C 0.69911 0.45961 0.08996 0.0
C591 C 0.72669 0.48543 0.14703 0.0
N592 N 0.63169 0.4289 0.08927 0.0
N593 N 0.69665 0.47694 0.14145 0.0
H594 H 0.48838 0.232 0.15462 0.0
H595 H 0.6113 0.19854 0.07072 0.0
H596 H 0.54566 0.28543 0.07689 0.0
H597 H 0.56072 0.15286 0.15463 0.0
H598 H 0.5773 0.22055 0.0635 0.0
H599 H 0.50476 0.19382 0.14609 0.0
C600 C 0.50412 0.23548 0.13548 0.0
C601 C 0.51617 0.26219 0.11681 0.0
C602 C 0.57316 0.20508 0.08305 0.0
C603 C 0.53525 0.21873 0.10705 0.0
C604 C 0.59236 0.19228 0.08701 0.0
C605 C 0.58907 0.17432 0.1136 0.0
C606 C 0.55062 0.19976 0.10587 0.0
C607 C 0.5643 0.16701 0.13406 0.0
C608 C 0.51345 0.21366 0.13058 0.0
C609 C 0.53615 0.26533 0.09208 0.0
N610 N 0.54635 0.18017 0.13006 0.0
N611 N 0.54548 0.2441 0.08822 0.0
H612 H 0.26012 0.76988 0.84102 0.0
H613 H 0.41575 0.80169 0.92521 0.0
H614 H 0.26276 0.71741 0.92028 0.0
H615 H 0.41159 0.84811 0.84153 0.0
H616 H 0.35981 0.78018 0.93233 0.0
H617 H 0.31489 0.80735 0.84914 0.0
C618 C 0.27217 0.76646 0.86039 0.0
C619 C 0.25708 0.74023 0.87965 0.0
C620 C 0.37128 0.79568 0.91284 0.0
C621 C 0.31992 0.78287 0.88894 0.0
C622 C 0.40325 0.80819 0.90893 0.0
C623 C 0.41811 0.82624 0.88244 0.0
C624 C 0.35429 0.80138 0.89008 0.0
C625 C 0.40087 0.83388 0.86202 0.0
C626 C 0.30346 0.78789 0.86507 0.0
C627 C 0.27367 0.73716 0.90467 0.0
N628 N 0.3698 0.821 0.86597 0.0
N629 N 0.30438 0.75797 0.90829 0.0
H630 H 0.27984 0.53892 0.92232 0.0
H631 H 0.14678 0.56089 0.84401 0.0
H632 H 0.23833 0.50316 0.83196 0.0
H633 H 0.19788 0.6112 0.92601 0.0
H634 H 0.16973 0.52774 0.84835 0.0
H635 H 0.24105 0.55477 0.93179 0.0
C636 C 0.26228 0.53399 0.90471 0.0
C637 C 0.26254 0.52021 0.8761 0.0
C638 C 0.17549 0.54561 0.86581 0.0
C639 C 0.21818 0.53796 0.88681 0.0
C640 C 0.16221 0.5644 0.86347 0.0
C641 C 0.17091 0.58913 0.88435 0.0
C642 C 0.19797 0.55189 0.88895 0.0
C643 C 0.19077 0.5925 0.90928 0.0
C644 C 0.24019 0.54301 0.91012 0.0
C645 C 0.23924 0.51418 0.85413 0.0
N646 N 0.20423 0.57452 0.9105 0.0
N647 N 0.21819 0.52332 0.85984 0.0
H648 H 0.45728 0.73862 0.92278 0.0
H649 H 0.44419 0.58374 0.85493 0.0
H650 H 0.50274 0.73241 0.83921 0.0
H651 H 0.38491 0.58521 0.9279 0.0
H652 H 0.47752 0.63968 0.8605 0.0
H653 H 0.44142 0.68451 0.93493 0.0
C654 C 0.46433 0.72602 0.90728 0.0
C655 C 0.48081 0.73973 0.87965 0.0
C656 C 0.45763 0.62772 0.87582 0.0
C657 C 0.46304 0.67818 0.89345 0.0
C658 C 0.43872 0.59573 0.87282 0.0
C659 C 0.41142 0.57999 0.89051 0.0
C660 C 0.44891 0.64409 0.89638 0.0
C661 C 0.40559 0.59657 0.91354 0.0
C662 C 0.45531 0.69519 0.91423 0.0
C663 C 0.48956 0.72252 0.86048 0.0
N664 N 0.42378 0.62793 0.9153 0.0
N665 N 0.48031 0.69257 0.86758 0.0
H666 H 0.47015 0.75406 0.4183 0.0
H667 H 0.45133 0.60194 0.50029 0.0
H668 H 0.51641 0.75324 0.50355 0.0
H669 H 0.39393 0.60092 0.42395 0.0
H670 H 0.48544 0.65753 0.49244 0.0
H671 H 0.45252 0.69888 0.41109 0.0
C672 C 0.47727 0.74247 0.43507 0.0
C673 C 0.49432 0.75806 0.46185 0.0
C674 C 0.46569 0.64509 0.47703 0.0
C675 C 0.47403 0.69504 0.45391 0.0
C676 C 0.44625 0.61332 0.48145 0.0
C677 C 0.41946 0.59694 0.46311 0.0
C678 C 0.45816 0.66066 0.45427 0.0
C679 C 0.41417 0.61278 0.43884 0.0
C680 C 0.46706 0.71094 0.43102 0.0
C681 C 0.50292 0.74197 0.4828 0.0
N682 N 0.43306 0.6439 0.43546 0.0
N683 N 0.49233 0.71124 0.47862 0.0
H684 H 0.25043 0.72327 0.42126 0.0
H685 H 0.40551 0.85229 0.50283 0.0
H686 H 0.25378 0.76916 0.50821 0.0
H687 H 0.40373 0.79796 0.42318 0.0
H688 H 0.34983 0.83181 0.49674 0.0
H689 H 0.30573 0.75998 0.4135 0.0
C690 C 0.26261 0.74156 0.43831 0.0
C691 C 0.24767 0.74289 0.46569 0.0
C692 C 0.36167 0.82473 0.48025 0.0
C693 C 0.31088 0.78465 0.45715 0.0
C694 C 0.39349 0.83647 0.48367 0.0
C695 C 0.40913 0.82637 0.46381 0.0
C696 C 0.3453 0.80251 0.45695 0.0
C697 C 0.39247 0.80609 0.43922 0.0
C698 C 0.29422 0.7624 0.43396 0.0
C699 C 0.26453 0.76706 0.48698 0.0
N700 N 0.36132 0.79441 0.43679 0.0
N701 N 0.29532 0.7867 0.48249 0.0
H702 H 0.28366 0.534 0.42504 0.0
H703 H 0.1579 0.5625 0.5113 0.0
H704 H 0.24368 0.49636 0.51544 0.0
H705 H 0.20759 0.61169 0.42823 0.0
H706 H 0.17944 0.52814 0.50578 0.0
H707 H 0.2465 0.5523 0.41878 0.0
C708 C 0.26657 0.52892 0.44322 0.0
C709 C 0.26701 0.51405 0.47101 0.0
C710 C 0.18528 0.54614 0.48846 0.0
C711 C 0.22473 0.53514 0.46415 0.0
C712 C 0.17292 0.56572 0.49156 0.0
C713 C 0.18138 0.59029 0.47047 0.0
C714 C 0.20644 0.55126 0.46422 0.0
C715 C 0.20072 0.59321 0.44519 0.0
C716 C 0.24549 0.53952 0.43971 0.0
C717 C 0.24438 0.50807 0.49381 0.0
N718 N 0.21299 0.57423 0.44302 0.0
N719 N 0.22443 0.51898 0.49005 0.0
H720 H 0.19779 0.21197 0.07265 0.0
H721 H 0.1194 0.11747 0.91508 0.0
H722 H 0.12125 0.11784 0.07256 0.0
H723 H 0.19847 0.21011 0.91754 0.0
H724 H 0.11812 0.11727 0.97257 0.0
H725 H 0.19675 0.21194 0.01555 0.0
C726 C 0.18068 0.19129 0.06057 0.0
C727 C 0.1596 0.16484 0.07732 0.0
C728 C 0.1357 0.13763 0.96049 0.0
C729 C 0.1583 0.16459 0.01184 0.0
C730 C 0.13643 0.13775 0.92773 0.0
C731 C 0.1591 0.16382 0.9116 0.0
C732 C 0.15779 0.16379 0.97711 0.0
C733 C 0.18062 0.18949 0.92905 0.0
C734 C 0.18011 0.19127 0.02794 0.0
C735 C 0.13793 0.13871 0.06048 0.0
N736 N 0.17943 0.18881 0.96082 0.0
N737 N 0.13786 0.13921 0.0286 0.0
H738 H 0.80144 0.01304 0.92277 0.0
H739 H 0.88364 0.00409 0.08078 0.0
H740 H 0.88105 0.0002 0.92363 0.0
H741 H 0.80175 0.01305 0.07824 0.0
H742 H 0.8843 0.00404 0.02332 0.0
H743 H 0.80235 0.01452 0.97991 0.0
C744 C 0.81915 0.01056 0.93502 0.0
C745 C 0.84118 0.00645 0.91848 0.0
C746 C 0.86622 0.00604 0.03537 0.0
C747 C 0.84239 0.00811 0.98396 0.0
C748 C 0.86585 0.0061 0.06811 0.0
C749 C 0.84258 0.00853 0.08422 0.0
C750 C 0.84317 0.00849 0.0187 0.0
C751 C 0.82009 0.01108 0.06673 0.0
C752 C 0.81966 0.0114 0.96767 0.0
C753 C 0.86362 0.00338 0.93553 0.0
N754 N 0.82094 0.01097 0.03494 0.0
N755 N 0.86364 0.00425 0.9674 0.0
H756 H 0.00572 0.88638 0.92042 0.0
H757 H 0.99591 0.79405 0.07774 0.0
H758 H 0.00283 0.79828 0.92273 0.0
H759 H 0.00171 0.88352 0.07783 0.0
H760 H 0.99789 0.79538 0.02067 0.0
H761 H 0.00391 0.88608 0.97789 0.0
C762 C 0.00474 0.86702 0.93304 0.0
C763 C 0.0044 0.84231 0.91687 0.0
C764 C -0.00127 0.81476 0.03309 0.0
C765 C 0.00229 0.84177 0.98234 0.0
C766 C 0.99756 0.81399 0.0657 0.0
C767 C -0.00136 0.83872 0.08249 0.0
C768 C 0.00096 0.84044 0.01705 0.0
C769 C 0.00082 0.86397 0.06571 0.0
C770 C 0.0037 0.86685 0.96578 0.0
C771 C 0.00311 0.8178 0.93427 0.0
N772 N 0.0019 0.8642 0.03384 0.0
N773 N 0.00208 0.81815 0.96603 0.0
H774 H 0.88327 0.50811 0.24677 0.0
H775 H 0.78385 0.44682 0.40417 0.0
H776 H 0.7837 0.44929 0.24724 0.0
H777 H 0.88392 0.49899 0.40138 0.0
H778 H 0.783 0.44432 0.34676 0.0
H779 H 0.8838 0.50219 0.30345 0.0
C780 C 0.86151 0.49379 0.25883 0.0
C781 C 0.83338 0.47934 0.24238 0.0
C782 C 0.80513 0.45605 0.35876 0.0
C783 C 0.83374 0.47256 0.30734 0.0
C784 C 0.80562 0.45744 0.39148 0.0
C785 C 0.83399 0.47334 0.40746 0.0
C786 C 0.83321 0.47079 0.34203 0.0
C787 C 0.86152 0.48666 0.38996 0.0
C788 C 0.86182 0.49037 0.29121 0.0
C789 C 0.80589 0.46092 0.25912 0.0
N790 N 0.86043 0.48529 0.3582 0.0
N791 N 0.80672 0.45825 0.29078 0.0
H792 H 0.47189 0.35121 0.24497 0.0
H793 H 0.5414 0.32156 0.40181 0.0
H794 H 0.54114 0.32316 0.24408 0.0
H795 H 0.48423 0.36418 0.3995 0.0
H796 H 0.5406 0.32003 0.3443 0.0
H797 H 0.47466 0.35374 0.30202 0.0
C798 C 0.48767 0.34554 0.25683 0.0
C799 C 0.50632 0.33697 0.23982 0.0
C800 C 0.52836 0.32982 0.35643 0.0
C801 C 0.50965 0.33981 0.30521 0.0
C802 C 0.52882 0.33071 0.38919 0.0
C803 C 0.51284 0.34299 0.40537 0.0
C804 C 0.51163 0.34112 0.33988 0.0
C805 C 0.49687 0.35451 0.38796 0.0
C806 C 0.48932 0.34707 0.28942 0.0
C807 C 0.52638 0.3299 0.25637 0.0
N808 N 0.49658 0.35317 0.35619 0.0
N809 N 0.52748 0.33141 0.28822 0.0
H810 H 0.6853 0.22662 0.40573 0.0
H811 H 0.63303 0.12657 0.24808 0.0
H812 H 0.62306 0.12768 0.40242 0.0
H813 H 0.6849 0.22663 0.24805 0.0
H814 H 0.62883 0.12717 0.30493 0.0
H815 H 0.68483 0.22798 0.34822 0.0
C816 C 0.67132 0.20527 0.3929 0.0
C817 C 0.65435 0.17697 0.40878 0.0
C818 C 0.64103 0.14905 0.29257 0.0
C819 C 0.65388 0.17829 0.3433 0.0
C820 C 0.64351 0.1487 0.26009 0.0
C821 C 0.65945 0.17659 0.2434 0.0
C822 C 0.65482 0.1775 0.30861 0.0
C823 C 0.67245 0.2046 0.26012 0.0
C824 C 0.67109 0.20605 0.36014 0.0
C825 C 0.63663 0.14999 0.39111 0.0
N826 N 0.67002 0.20437 0.29189 0.0
N827 N 0.63703 0.1513 0.35936 0.0
H828 H 0.5054 0.88204 0.59401 0.0
H829 H 0.45823 0.77568 0.74772 0.0
H830 H 0.45915 0.7821 0.59038 0.0
H831 H 0.514 0.87554 0.7483 0.0
H832 H 0.45414 0.77703 0.6905 0.0
H833 H 0.5041 0.87955 0.65107 0.0
C834 C 0.49477 0.85952 0.60526 0.0
C835 C 0.4825 0.83223 0.58748 0.0
C836 C 0.46719 0.79862 0.7032 0.0
C837 C 0.4811 0.8292 0.65289 0.0
C838 C 0.46952 0.79787 0.7358 0.0
C839 C 0.48658 0.82554 0.75269 0.0
C840 C 0.48193 0.82726 0.68751 0.0
C841 C 0.50072 0.85364 0.73617 0.0
C842 C 0.49411 0.85812 0.63787 0.0
C843 C 0.46894 0.8037 0.60328 0.0
N844 N 0.4981 0.85377 0.70453 0.0
N845 N 0.46873 0.80291 0.63516 0.0
H846 H 0.22144 0.68095 0.59559 0.0
H847 H 0.12161 0.64678 0.75263 0.0
H848 H 0.12154 0.63677 0.59787 0.0
H849 H 0.21993 0.67949 0.75315 0.0
H850 H 0.12175 0.64401 0.69559 0.0
H851 H 0.22206 0.68137 0.65309 0.0
C852 C 0.19966 0.6712 0.6082 0.0
C853 C 0.17141 0.65887 0.59202 0.0
C854 C 0.14332 0.65172 0.70811 0.0
C855 C 0.17193 0.65943 0.65752 0.0
C856 C 0.14326 0.65338 0.74069 0.0
C857 C 0.17081 0.66342 0.75758 0.0
C858 C 0.1712 0.66034 0.69221 0.0
C859 C 0.19818 0.67162 0.74094 0.0
C860 C 0.20002 0.67145 0.64096 0.0
C861 C 0.14386 0.64655 0.60942 0.0
N862 N 0.19772 0.67001 0.7091 0.0
N863 N 0.14483 0.64727 0.6412 0.0
H864 H 0.38627 0.50445 0.59631 0.0
H865 H 0.33222 0.55283 0.75283 0.0
H866 H 0.33397 0.55228 0.5956 0.0
H867 H 0.37007 0.49149 0.75036 0.0
H868 H 0.33882 0.55913 0.69583 0.0
H869 H 0.38712 0.50623 0.65343 0.0
C870 C 0.37519 0.51559 0.60821 0.0
C871 C 0.35981 0.52802 0.59125 0.0
C872 C 0.34581 0.54443 0.70783 0.0
C873 C 0.3605 0.52996 0.65668 0.0
C874 C 0.34209 0.54087 0.74031 0.0
C875 C 0.35042 0.52144 0.75622 0.0
C876 C 0.35809 0.52859 0.69131 0.0
C877 C 0.36315 0.50652 0.73896 0.0
C878 C 0.3756 0.51652 0.64083 0.0
C879 C 0.34595 0.54228 0.60784 0.0
N880 N 0.36652 0.51034 0.70744 0.0
N881 N 0.34645 0.54269 0.63972 0.0
loop_
_geom_bond_atom_site_label_1
_geom_bond_atom_site_label_2
_geom_bond_distance
_geom_bond_site_symmetry_2
_ccdc_geom_bond_type
In0 O1 2.294 . S
In0 O2 2.326 . S
In0 O6 2.266 . S
In0 O7 2.326 . S
In0 O8 2.266 . S
In0 O9 2.326 . S
In0 O11 2.294 . S
In0 O12 2.326 . S
O1 In0 2.294 . S
O1 C10 1.240 . S
O2 In0 2.326 . S
O2 C10 1.252 . S
C3 O6 1.252 . S
C3 O7 1.260 . S
C4 O11 1.240 . S
C4 O12 1.252 . S
C5 O8 1.252 . S
C5 O9 1.260 . S
O6 In0 2.266 . S
O6 C3 1.252 . S
O7 In0 2.326 . S
O7 C3 1.260 . S
O8 In0 2.266 . S
O8 C5 1.252 . S
O9 In0 2.326 . S
O9 C5 1.260 . S
C10 O1 1.240 . S
C10 O2 1.252 . S
O11 In0 2.294 . S
O11 C4 1.240 . S
O12 In0 2.326 . S
O12 C4 1.252 . S
In13 O14 2.294 . S
In13 O15 2.326 . S
In13 O19 2.266 1_545 S
In13 O20 2.326 1_545 S
In13 O21 2.266 . S
In13 O22 2.326 . S
In13 O24 2.294 . S
In13 O25 2.326 1_545 S
O14 In13 2.294 . S
O14 C23 1.240 . S
O15 In13 2.326 . S
O15 C23 1.252 . S
C16 O19 1.252 . S
C16 O20 1.260 . S
C17 O24 1.246 . S
C17 O25 1.247 1_545 S
C18 O21 1.252 . S
C18 O22 1.260 . S
O19 In13 2.266 1_565 S
O19 C16 1.252 . S
O20 In13 2.326 1_565 S
O20 C16 1.260 . S
O21 In13 2.266 . S
O21 C18 1.252 . S
O22 In13 2.326 . S
O22 C18 1.260 . S
C23 O14 1.240 . S
C23 O15 1.252 . S
O24 In13 2.294 . S
O24 C17 1.246 . S
O25 In13 2.326 1_565 S
O25 C17 1.247 1_565 S
In26 O27 2.294 . S
In26 O28 2.326 1_655 S
In26 O32 2.266 . S
In26 O33 2.326 . S
In26 O34 2.266 1_655 S
In26 O35 2.326 1_655 S
In26 O37 2.294 . S
In26 O38 2.326 . S
O27 In26 2.294 . S
O27 C36 1.240 1_655 S
O28 In26 2.326 1_455 S
O28 C36 1.252 . S
C29 O32 1.252 . S
C29 O33 1.260 . S
C30 O37 1.240 . S
C30 O38 1.252 . S
C31 O34 1.252 . S
C31 O35 1.260 . S
O32 In26 2.266 . S
O32 C29 1.252 . S
O33 In26 2.326 . S
O33 C29 1.260 . S
O34 In26 2.266 1_455 S
O34 C31 1.252 . S
O35 In26 2.326 1_455 S
O35 C31 1.260 . S
C36 O27 1.240 1_455 S
C36 O28 1.252 . S
O37 In26 2.294 . S
O37 C30 1.240 . S
O38 In26 2.326 . S
O38 C30 1.252 . S
In39 O40 2.294 . S
In39 O41 2.326 . S
In39 O45 2.266 . S
In39 O46 2.326 . S
In39 O47 2.266 . S
In39 O48 2.326 . S
In39 O50 2.294 . S
In39 O51 2.326 . S
O40 In39 2.294 . S
O40 C49 1.240 . S
O41 In39 2.326 . S
O41 C49 1.252 . S
C42 O45 1.252 . S
C42 O46 1.260 . S
C43 O50 1.240 . S
C43 O51 1.252 . S
C44 O47 1.252 . S
C44 O48 1.260 . S
O45 In39 2.266 . S
O45 C42 1.252 . S
O46 In39 2.326 . S
O46 C42 1.260 . S
O47 In39 2.266 . S
O47 C44 1.252 . S
O48 In39 2.326 . S
O48 C44 1.260 . S
C49 O40 1.240 . S
C49 O41 1.252 . S
O50 In39 2.294 . S
O50 C43 1.240 . S
O51 In39 2.326 . S
O51 C43 1.252 . S
In52 O53 2.294 . S
In52 O54 2.326 1_565 S
In52 O58 2.266 . S
In52 O59 2.326 . S
In52 O60 2.266 1_565 S
In52 O61 2.326 1_565 S
In52 O63 2.294 . S
In52 O64 2.326 . S
O53 In52 2.294 . S
O53 C62 1.240 1_565 S
O54 In52 2.326 1_545 S
O54 C62 1.252 . S
C55 O58 1.252 . S
C55 O59 1.260 . S
C56 O63 1.240 . S
C56 O64 1.252 . S
C57 O60 1.252 . S
C57 O61 1.260 . S
O58 In52 2.266 . S
O58 C55 1.252 . S
O59 In52 2.326 . S
O59 C55 1.260 . S
O60 In52 2.266 1_545 S
O60 C57 1.252 . S
O61 In52 2.326 1_545 S
O61 C57 1.260 . S
C62 O53 1.240 1_545 S
C62 O54 1.252 . S
O63 In52 2.294 . S
O63 C56 1.240 . S
O64 In52 2.326 . S
O64 C56 1.252 . S
In65 O66 2.294 . S
In65 O67 2.326 1_455 S
In65 O71 2.266 . S
In65 O72 2.326 . S
In65 O73 2.266 1_455 S
In65 O74 2.326 1_455 S
In65 O76 2.294 . S
In65 O77 2.326 . S
O66 In65 2.294 . S
O66 C75 1.244 . S
O67 In65 2.326 1_655 S
O67 C75 1.249 1_655 S
C68 O71 1.252 . S
C68 O72 1.260 . S
C69 O76 1.240 . S
C69 O77 1.252 . S
C70 O73 1.252 . S
C70 O74 1.260 . S
O71 In65 2.266 . S
O71 C68 1.252 . S
O72 In65 2.326 . S
O72 C68 1.260 . S
O73 In65 2.266 1_655 S
O73 C70 1.252 . S
O74 In65 2.326 1_655 S
O74 C70 1.260 . S
C75 O66 1.244 . S
C75 O67 1.249 1_455 S
O76 In65 2.294 . S
O76 C69 1.240 . S
O77 In65 2.326 . S
O77 C69 1.252 . S
In78 O79 2.294 . S
In78 O80 2.326 . S
In78 O84 2.266 . S
In78 O85 2.326 . S
In78 O86 2.266 . S
In78 O87 2.326 . S
In78 O89 2.294 . S
In78 O90 2.326 . S
O79 In78 2.294 . S
O79 C88 1.240 . S
O80 In78 2.326 . S
O80 C88 1.252 . S
C81 O84 1.252 . S
C81 O85 1.260 . S
C82 O89 1.240 . S
C82 O90 1.252 . S
C83 O86 1.252 . S
C83 O87 1.260 . S
O84 In78 2.266 . S
O84 C81 1.252 . S
O85 In78 2.326 . S
O85 C81 1.260 . S
O86 In78 2.266 . S
O86 C83 1.252 . S
O87 In78 2.326 . S
O87 C83 1.260 . S
C88 O79 1.240 . S
C88 O80 1.252 . S
O89 In78 2.294 . S
O89 C82 1.240 . S
O90 In78 2.326 . S
O90 C82 1.252 . S
In91 O92 2.294 . S
In91 O93 2.326 . S
In91 O97 2.266 . S
In91 O98 2.326 . S
In91 O99 2.266 . S
In91 O100 2.326 . S
In91 O102 2.294 . S
In91 O103 2.326 . S
O92 In91 2.294 . S
O92 C101 1.240 . S
O93 In91 2.326 . S
O93 C101 1.252 . S
C94 O97 1.252 . S
C94 O98 1.260 . S
C95 O102 1.240 . S
C95 O103 1.252 . S
C96 O99 1.252 . S
C96 O100 1.260 . S
O97 In91 2.266 . S
O97 C94 1.252 . S
O98 In91 2.326 . S
O98 C94 1.260 . S
O99 In91 2.266 . S
O99 C96 1.252 . S
O100 In91 2.326 . S
O100 C96 1.260 . S
C101 O92 1.240 . S
C101 O93 1.252 . S
O102 In91 2.294 . S
O102 C95 1.240 . S
O103 In91 2.326 . S
O103 C95 1.252 . S
In104 O105 2.294 . S
In104 O106 2.326 . S
In104 O110 2.266 . S
In104 O111 2.326 . S
In104 O112 2.266 . S
In104 O113 2.326 . S
In104 O115 2.294 . S
In104 O116 2.326 . S
O105 In104 2.294 . S
O105 C114 1.240 . S
O106 In104 2.326 . S
O106 C114 1.252 . S
C107 O110 1.252 . S
C107 O111 1.260 . S
C108 O115 1.240 . S
C108 O116 1.252 . S
C109 O112 1.252 . S
C109 O113 1.260 . S
O110 In104 2.266 . S
O110 C107 1.252 . S
O111 In104 2.326 . S
O111 C107 1.260 . S
O112 In104 2.266 . S
O112 C109 1.252 . S
O113 In104 2.326 . S
O113 C109 1.260 . S
C114 O105 1.240 . S
C114 O106 1.252 . S
O115 In104 2.294 . S
O115 C108 1.240 . S
O116 In104 2.326 . S
O116 C108 1.252 . S
In117 O118 2.294 . S
In117 O119 2.326 . S
In117 O123 2.266 . S
In117 O124 2.326 . S
In117 O125 2.266 . S
In117 O126 2.326 . S
In117 O128 2.294 . S
In117 O129 2.326 . S
O118 In117 2.294 . S
O118 C127 1.240 . S
O119 In117 2.326 . S
O119 C127 1.252 . S
C120 O123 1.252 . S
C120 O124 1.260 . S
C121 O128 1.240 . S
C121 O129 1.252 . S
C122 O125 1.252 . S
C122 O126 1.260 . S
O123 In117 2.266 . S
O123 C120 1.252 . S
O124 In117 2.326 . S
O124 C120 1.260 . S
O125 In117 2.266 . S
O125 C122 1.252 . S
O126 In117 2.326 . S
O126 C122 1.260 . S
C127 O118 1.240 . S
C127 O119 1.252 . S
O128 In117 2.294 . S
O128 C121 1.240 . S
O129 In117 2.326 . S
O129 C121 1.252 . S
In130 O131 2.294 . S
In130 O132 2.326 . S
In130 O136 2.266 . S
In130 O137 2.326 . S
In130 O138 2.266 . S
In130 O139 2.326 . S
In130 O141 2.294 . S
In130 O142 2.326 . S
O131 In130 2.294 . S
O131 C140 1.240 . S
O132 In130 2.326 . S
O132 C140 1.252 . S
C133 O136 1.252 . S
C133 O137 1.260 . S
C134 O141 1.240 . S
C134 O142 1.252 . S
C135 O138 1.252 . S
C135 O139 1.260 . S
O136 In130 2.266 . S
O136 C133 1.252 . S
O137 In130 2.326 . S
O137 C133 1.260 . S
O138 In130 2.266 . S
O138 C135 1.252 . S
O139 In130 2.326 . S
O139 C135 1.260 . S
C140 O131 1.240 . S
C140 O132 1.252 . S
O141 In130 2.294 . S
O141 C134 1.240 . S
O142 In130 2.326 . S
O142 C134 1.252 . S
In143 O144 2.294 . S
In143 O145 2.326 . S
In143 O149 2.266 . S
In143 O150 2.326 . S
In143 O151 2.266 . S
In143 O152 2.326 . S
In143 O154 2.294 . S
In143 O155 2.326 . S
O144 In143 2.294 . S
O144 C153 1.240 . S
O145 In143 2.326 . S
O145 C153 1.252 . S
C146 O149 1.252 . S
C146 O150 1.260 . S
C147 O154 1.240 . S
C147 O155 1.252 . S
C148 O151 1.252 . S
C148 O152 1.260 . S
O149 In143 2.266 . S
O149 C146 1.252 . S
O150 In143 2.326 . S
O150 C146 1.260 . S
O151 In143 2.266 . S
O151 C148 1.252 . S
O152 In143 2.326 . S
O152 C148 1.260 . S
C153 O144 1.240 . S
C153 O145 1.252 . S
O154 In143 2.294 . S
O154 C147 1.240 . S
O155 In143 2.326 . S
O155 C147 1.252 . S
In156 O157 2.294 . S
In156 O158 2.326 . S
In156 O162 2.266 . S
In156 O163 2.326 . S
In156 O164 2.266 . S
In156 O165 2.326 . S
In156 O167 2.294 . S
In156 O168 2.326 . S
O157 In156 2.294 . S
O157 C166 1.240 . S
O158 In156 2.326 . S
O158 C166 1.252 . S
C159 O162 1.252 . S
C159 O163 1.260 . S
C160 O167 1.240 . S
C160 O168 1.252 . S
C161 O164 1.252 . S
C161 O165 1.260 . S
O162 In156 2.266 . S
O162 C159 1.252 . S
O163 In156 2.326 . S
O163 C159 1.260 . S
O164 In156 2.266 . S
O164 C161 1.252 . S
O165 In156 2.326 . S
O165 C161 1.260 . S
C166 O157 1.240 . S
C166 O158 1.252 . S
O167 In156 2.294 . S
O167 C160 1.240 . S
O168 In156 2.326 . S
O168 C160 1.252 . S
In169 O170 2.294 . S
In169 O171 2.326 . S
In169 O175 2.266 . S
In169 O176 2.326 . S
In169 O177 2.266 . S
In169 O178 2.326 . S
In169 O180 2.294 . S
In169 O181 2.326 . S
O170 In169 2.294 . S
O170 C179 1.240 . S
O171 In169 2.326 . S
O171 C179 1.252 . S
C172 O175 1.252 . S
C172 O176 1.260 . S
C173 O180 1.240 . S
C173 O181 1.252 . S
C174 O177 1.252 . S
C174 O178 1.260 . S
O175 In169 2.266 . S
O175 C172 1.252 . S
O176 In169 2.326 . S
O176 C172 1.260 . S
O177 In169 2.266 . S
O177 C174 1.252 . S
O178 In169 2.326 . S
O178 C174 1.260 . S
C179 O170 1.240 . S
C179 O171 1.252 . S
O180 In169 2.294 . S
O180 C173 1.240 . S
O181 In169 2.326 . S
O181 C173 1.252 . S
In182 O183 2.294 . S
In182 O184 2.326 . S
In182 O188 2.266 . S
In182 O189 2.326 . S
In182 O190 2.266 . S
In182 O191 2.326 . S
In182 O193 2.294 . S
In182 O194 2.326 . S
O183 In182 2.294 . S
O183 C192 1.240 . S
O184 In182 2.326 . S
O184 C192 1.252 . S
C185 O188 1.252 . S
C185 O189 1.260 . S
C186 O193 1.240 . S
C186 O194 1.252 . S
C187 O190 1.252 . S
C187 O191 1.260 . S
O188 In182 2.266 . S
O188 C185 1.252 . S
O189 In182 2.326 . S
O189 C185 1.260 . S
O190 In182 2.266 . S
O190 C187 1.252 . S
O191 In182 2.326 . S
O191 C187 1.260 . S
C192 O183 1.240 . S
C192 O184 1.252 . S
O193 In182 2.294 . S
O193 C186 1.240 . S
O194 In182 2.326 . S
O194 C186 1.252 . S
In195 O196 2.294 . S
In195 O197 2.326 . S
In195 O201 2.266 . S
In195 O202 2.326 . S
In195 O203 2.266 . S
In195 O204 2.326 . S
In195 O206 2.294 . S
In195 O207 2.326 . S
O196 In195 2.294 . S
O196 C205 1.240 . S
O197 In195 2.326 . S
O197 C205 1.252 . S
C198 O201 1.252 . S
C198 O202 1.260 . S
C199 O206 1.240 . S
C199 O207 1.252 . S
C200 O203 1.252 . S
C200 O204 1.260 . S
O201 In195 2.266 . S
O201 C198 1.252 . S
O202 In195 2.326 . S
O202 C198 1.260 . S
O203 In195 2.266 . S
O203 C200 1.252 . S
O204 In195 2.326 . S
O204 C200 1.260 . S
C205 O196 1.240 . S
C205 O197 1.252 . S
O206 In195 2.294 . S
O206 C199 1.240 . S
O207 In195 2.326 . S
O207 C199 1.252 . S
In208 O209 2.294 . S
In208 O210 2.326 . S
In208 O214 2.266 . S
In208 O215 2.326 . S
In208 O216 2.266 . S
In208 O217 2.326 . S
In208 O219 2.294 . S
In208 O220 2.326 . S
O209 In208 2.294 . S
O209 C218 1.240 . S
O210 In208 2.326 . S
O210 C218 1.252 . S
C211 O214 1.252 . S
C211 O215 1.260 . S
C212 O219 1.240 . S
C212 O220 1.252 . S
C213 O216 1.252 . S
C213 O217 1.260 . S
O214 In208 2.266 . S
O214 C211 1.252 . S
O215 In208 2.326 . S
O215 C211 1.260 . S
O216 In208 2.266 . S
O216 C213 1.252 . S
O217 In208 2.326 . S
O217 C213 1.260 . S
C218 O209 1.240 . S
C218 O210 1.252 . S
O219 In208 2.294 . S
O219 C212 1.240 . S
O220 In208 2.326 . S
O220 C212 1.252 . S
In221 O222 2.294 . S
In221 O223 2.326 . S
In221 O227 2.266 . S
In221 O228 2.326 . S
In221 O229 2.266 . S
In221 O230 2.326 . S
In221 O232 2.294 . S
In221 O233 2.326 . S
O222 In221 2.294 . S
O222 C231 1.240 . S
O223 In221 2.326 . S
O223 C231 1.252 . S
C224 O227 1.252 . S
C224 O228 1.260 . S
C225 O232 1.240 . S
C225 O233 1.252 . S
C226 O229 1.252 . S
C226 O230 1.260 . S
O227 In221 2.266 . S
O227 C224 1.252 . S
O228 In221 2.326 . S
O228 C224 1.260 . S
O229 In221 2.266 . S
O229 C226 1.252 . S
O230 In221 2.326 . S
O230 C226 1.260 . S
C231 O222 1.240 . S
C231 O223 1.252 . S
O232 In221 2.294 . S
O232 C225 1.240 . S
O233 In221 2.326 . S
O233 C225 1.252 . S
H234 C240 0.930 . S
H235 C244 0.930 . S
H236 C249 0.929 . S
H237 C247 0.929 . S
H238 C242 0.929 . S
H239 C248 0.929 . S
C240 H234 0.930 . S
C240 C241 1.367 . S
C240 C248 1.378 . S
C241 C240 1.367 . S
C241 C249 1.433 . S
C242 H238 0.929 . S
C242 C244 1.378 . S
C242 C246 1.350 . S
C243 C246 1.463 . S
C243 C248 1.350 . S
C243 N251 1.427 . S
C244 H235 0.930 . S
C244 C242 1.378 . S
C244 C245 1.367 . S
C245 C244 1.367 . S
C245 C247 1.433 . S
C246 C242 1.350 . S
C246 C243 1.463 . S
C246 N250 1.427 . S
C247 H237 0.929 . S
C247 C245 1.433 . S
C247 N250 1.384 . S
C248 H239 0.929 . S
C248 C240 1.378 . S
C248 C243 1.350 . S
C249 H236 0.929 . S
C249 C241 1.433 . S
C249 N251 1.384 . S
N250 C246 1.427 . S
N250 C247 1.384 . S
N251 C243 1.427 . S
N251 C249 1.384 . S
H252 C258 0.930 . S
H253 C262 0.930 . S
H254 C267 0.929 . S
H255 C265 0.929 . S
H256 C260 0.929 . S
H257 C266 0.929 . S
C258 H252 0.930 . S
C258 C259 1.367 . S
C258 C266 1.378 . S
C259 C258 1.367 . S
C259 C267 1.433 . S
C260 H256 0.929 . S
C260 C262 1.378 . S
C260 C264 1.350 . S
C261 C264 1.463 . S
C261 C266 1.350 . S
C261 N269 1.427 . S
C262 H253 0.930 . S
C262 C260 1.378 . S
C262 C263 1.367 . S
C263 C262 1.367 . S
C263 C265 1.433 . S
C264 C260 1.350 . S
C264 C261 1.463 . S
C264 N268 1.427 . S
C265 H255 0.929 . S
C265 C263 1.433 . S
C265 N268 1.384 . S
C266 H257 0.929 . S
C266 C258 1.378 . S
C266 C261 1.350 . S
C267 H254 0.929 . S
C267 C259 1.433 . S
C267 N269 1.384 . S
N268 C264 1.427 . S
N268 C265 1.384 . S
N269 C261 1.427 . S
N269 C267 1.384 . S
H270 C276 0.930 . S
H271 C280 0.930 . S
H272 C285 0.929 . S
H273 C283 0.929 . S
H274 C278 0.929 . S
H275 C284 0.929 . S
C276 H270 0.930 . S
C276 C277 1.367 . S
C276 C284 1.378 . S
C277 C276 1.367 . S
C277 C285 1.433 . S
C278 H274 0.929 . S
C278 C280 1.378 . S
C278 C282 1.350 . S
C279 C282 1.463 . S
C279 C284 1.350 . S
C279 N287 1.427 . S
C280 H271 0.930 . S
C280 C278 1.378 . S
C280 C281 1.367 . S
C281 C280 1.367 . S
C281 C283 1.433 . S
C282 C278 1.350 . S
C282 C279 1.463 . S
C282 N286 1.427 . S
C283 H273 0.929 . S
C283 C281 1.433 . S
C283 N286 1.384 . S
C284 H275 0.929 . S
C284 C276 1.378 . S
C284 C279 1.350 . S
C285 H272 0.929 . S
C285 C277 1.433 . S
C285 N287 1.384 . S
N286 C282 1.427 . S
N286 C283 1.384 . S
N287 C279 1.427 . S
N287 C285 1.384 . S
H288 C294 0.930 . S
H289 C298 0.930 . S
H290 C303 0.929 . S
H291 C301 0.929 . S
H292 C296 0.929 . S
H293 C302 0.929 . S
C294 H288 0.930 . S
C294 C295 1.367 . S
C294 C302 1.378 . S
C295 C294 1.367 . S
C295 C303 1.433 . S
C296 H292 0.929 . S
C296 C298 1.378 . S
C296 C300 1.350 . S
C297 C300 1.463 . S
C297 C302 1.350 . S
C297 N305 1.427 . S
C298 H289 0.930 . S
C298 C296 1.378 . S
C298 C299 1.367 . S
C299 C298 1.367 . S
C299 C301 1.433 . S
C300 C296 1.350 . S
C300 C297 1.463 . S
C300 N304 1.427 . S
C301 H291 0.929 . S
C301 C299 1.433 . S
C301 N304 1.384 . S
C302 H293 0.929 . S
C302 C294 1.378 . S
C302 C297 1.350 . S
C303 H290 0.929 . S
C303 C295 1.433 . S
C303 N305 1.384 . S
N304 C300 1.427 . S
N304 C301 1.384 . S
N305 C297 1.427 . S
N305 C303 1.384 . S
H306 C312 0.930 . S
H307 C316 0.930 . S
H308 C321 0.929 . S
H309 C319 0.929 . S
H310 C314 0.929 . S
H311 C320 0.929 . S
C312 H306 0.930 . S
C312 C313 1.367 . S
C312 C320 1.378 . S
C313 C312 1.367 . S
C313 C321 1.433 . S
C314 H310 0.929 . S
C314 C316 1.378 . S
C314 C318 1.350 . S
C315 C318 1.463 . S
C315 C320 1.350 . S
C315 N323 1.427 . S
C316 H307 0.930 . S
C316 C314 1.378 . S
C316 C317 1.367 . S
C317 C316 1.367 . S
C317 C319 1.433 . S
C318 C314 1.350 . S
C318 C315 1.463 . S
C318 N322 1.427 . S
C319 H309 0.929 . S
C319 C317 1.433 . S
C319 N322 1.384 . S
C320 H311 0.929 . S
C320 C312 1.378 . S
C320 C315 1.350 . S
C321 H308 0.929 . S
C321 C313 1.433 . S
C321 N323 1.384 . S
N322 C318 1.427 . S
N322 C319 1.384 . S
N323 C315 1.427 . S
N323 C321 1.384 . S
H324 C330 0.930 . S
H325 C334 0.930 . S
H326 C339 0.929 . S
H327 C337 0.929 . S
H328 C332 0.929 . S
H329 C338 0.929 . S
C330 H324 0.930 . S
C330 C331 1.367 . S
C330 C338 1.378 . S
C331 C330 1.367 . S
C331 C339 1.433 . S
C332 H328 0.929 . S
C332 C334 1.378 . S
C332 C336 1.350 . S
C333 C336 1.463 . S
C333 C338 1.350 . S
C333 N341 1.427 . S
C334 H325 0.930 . S
C334 C332 1.378 . S
C334 C335 1.367 . S
C335 C334 1.367 . S
C335 C337 1.433 . S
C336 C332 1.350 . S
C336 C333 1.463 . S
C336 N340 1.427 . S
C337 H327 0.929 . S
C337 C335 1.433 . S
C337 N340 1.384 . S
C338 H329 0.929 . S
C338 C330 1.378 . S
C338 C333 1.350 . S
C339 H326 0.929 . S
C339 C331 1.433 . S
C339 N341 1.384 . S
N340 C336 1.427 . S
N340 C337 1.384 . S
N341 C333 1.427 . S
N341 C339 1.384 . S
H342 C348 0.930 . S
H343 C352 0.930 . S
H344 C357 0.929 . S
H345 C355 0.929 . S
H346 C350 0.929 . S
H347 C356 0.929 . S
C348 H342 0.930 . S
C348 C349 1.367 . S
C348 C356 1.378 . S
C349 C348 1.367 . S
C349 C357 1.433 . S
C350 H346 0.929 . S
C350 C352 1.378 . S
C350 C354 1.350 . S
C351 C354 1.463 1_655 S
C351 C356 1.350 . S
C351 N359 1.427 . S
C352 H343 0.930 . S
C352 C350 1.378 . S
C352 C353 1.367 . S
C353 C352 1.367 . S
C353 C355 1.433 . S
C354 C350 1.350 . S
C354 C351 1.463 1_455 S
C354 N358 1.427 . S
C355 H345 0.929 . S
C355 C353 1.433 . S
C355 N358 1.384 . S
C356 H347 0.929 . S
C356 C348 1.378 . S
C356 C351 1.350 . S
C357 H344 0.929 . S
C357 C349 1.433 . S
C357 N359 1.384 . S
N358 C354 1.427 . S
N358 C355 1.384 . S
N359 C351 1.427 . S
N359 C357 1.384 . S
H360 C366 0.930 . S
H361 C370 0.930 . S
H362 C375 0.929 . S
H363 C373 0.929 . S
H364 C368 0.929 . S
H365 C374 0.929 . S
C366 H360 0.930 . S
C366 C367 1.367 . S
C366 C374 1.378 . S
C367 C366 1.367 . S
C367 C375 1.433 . S
C368 H364 0.929 . S
C368 C370 1.378 . S
C368 C372 1.350 . S
C369 C372 1.463 . S
C369 C374 1.350 . S
C369 N377 1.427 . S
C370 H361 0.930 . S
C370 C368 1.378 . S
C370 C371 1.367 . S
C371 C370 1.367 . S
C371 C373 1.433 . S
C372 C368 1.350 . S
C372 C369 1.463 . S
C372 N376 1.427 . S
C373 H363 0.929 . S
C373 C371 1.433 . S
C373 N376 1.384 . S
C374 H365 0.929 . S
C374 C366 1.378 . S
C374 C369 1.350 . S
C375 H362 0.929 . S
C375 C367 1.433 . S
C375 N377 1.384 . S
N376 C372 1.427 . S
N376 C373 1.384 . S
N377 C369 1.427 . S
N377 C375 1.384 . S
H378 C384 0.930 . S
H379 C388 0.930 . S
H380 C393 0.929 . S
H381 C391 0.929 . S
H382 C386 0.929 . S
H383 C392 0.929 . S
C384 H378 0.930 . S
C384 C385 1.367 . S
C384 C392 1.378 . S
C385 C384 1.367 . S
C385 C393 1.433 . S
C386 H382 0.929 . S
C386 C388 1.378 . S
C386 C390 1.350 . S
C387 C390 1.463 1_545 S
C387 C392 1.350 . S
C387 N395 1.427 . S
C388 H379 0.930 . S
C388 C386 1.378 . S
C388 C389 1.367 . S
C389 C388 1.367 . S
C389 C391 1.433 . S
C390 C386 1.350 . S
C390 C387 1.463 1_565 S
C390 N394 1.427 . S
C391 H381 0.929 . S
C391 C389 1.433 . S
C391 N394 1.384 . S
C392 H383 0.929 . S
C392 C384 1.378 . S
C392 C387 1.350 . S
C393 H380 0.929 . S
C393 C385 1.433 . S
C393 N395 1.384 . S
N394 C390 1.427 . S
N394 C391 1.384 . S
N395 C387 1.427 . S
N395 C393 1.384 . S
H396 C402 0.930 . S
H397 C406 0.930 . S
H398 C411 0.929 . S
H399 C409 0.929 . S
H400 C404 0.929 . S
H401 C410 0.929 . S
C402 H396 0.930 . S
C402 C403 1.367 . S
C402 C410 1.378 . S
C403 C402 1.367 . S
C403 C411 1.433 . S
C404 H400 0.929 . S
C404 C406 1.378 . S
C404 C408 1.350 . S
C405 C408 1.463 1_455 S
C405 C410 1.350 . S
C405 N413 1.427 . S
C406 H397 0.930 . S
C406 C404 1.378 . S
C406 C407 1.367 . S
C407 C406 1.367 . S
C407 C409 1.433 . S
C408 C404 1.350 . S
C408 C405 1.463 1_655 S
C408 N412 1.427 . S
C409 H399 0.929 . S
C409 C407 1.433 . S
C409 N412 1.384 . S
C410 H401 0.929 . S
C410 C402 1.378 . S
C410 C405 1.350 . S
C411 H398 0.929 . S
C411 C403 1.433 . S
C411 N413 1.384 . S
N412 C408 1.427 . S
N412 C409 1.384 . S
N413 C405 1.427 . S
N413 C411 1.384 . S
H414 C420 0.930 . S
H415 C424 0.930 . S
H416 C429 0.929 . S
H417 C427 0.929 . S
H418 C422 0.929 . S
H419 C428 0.929 . S
C420 H414 0.930 . S
C420 C421 1.367 . S
C420 C428 1.378 . S
C421 C420 1.367 . S
C421 C429 1.433 . S
C422 H418 0.929 . S
C422 C424 1.378 . S
C422 C426 1.350 . S
C423 C426 1.463 . S
C423 C428 1.350 . S
C423 N431 1.427 . S
C424 H415 0.930 . S
C424 C422 1.378 . S
C424 C425 1.367 . S
C425 C424 1.367 . S
C425 C427 1.433 . S
C426 C422 1.350 . S
C426 C423 1.463 . S
C426 N430 1.427 . S
C427 H417 0.929 . S
C427 C425 1.433 . S
C427 N430 1.384 . S
C428 H419 0.929 . S
C428 C420 1.378 . S
C428 C423 1.350 . S
C429 H416 0.929 . S
C429 C421 1.433 . S
C429 N431 1.384 . S
N430 C426 1.427 . S
N430 C427 1.384 . S
N431 C423 1.427 . S
N431 C429 1.384 . S
H432 C438 0.930 . S
H433 C442 0.930 . S
H434 C447 0.929 . S
H435 C445 0.929 . S
H436 C440 0.929 . S
H437 C446 0.929 . S
C438 H432 0.930 . S
C438 C439 1.367 . S
C438 C446 1.378 . S
C439 C438 1.367 . S
C439 C447 1.433 . S
C440 H436 0.929 . S
C440 C442 1.378 . S
C440 C444 1.350 . S
C441 C444 1.463 1_545 S
C441 C446 1.350 . S
C441 N449 1.427 . S
C442 H433 0.930 . S
C442 C440 1.378 . S
C442 C443 1.367 . S
C443 C442 1.367 . S
C443 C445 1.433 . S
C444 C440 1.350 . S
C444 C441 1.463 1_565 S
C444 N448 1.427 . S
C445 H435 0.929 . S
C445 C443 1.433 . S
C445 N448 1.384 . S
C446 H437 0.929 . S
C446 C438 1.378 . S
C446 C441 1.350 . S
C447 H434 0.929 . S
C447 C439 1.433 . S
C447 N449 1.384 . S
N448 C444 1.427 . S
N448 C445 1.384 . S
N449 C441 1.427 . S
N449 C447 1.384 . S
H450 C456 0.930 . S
H451 C460 0.930 . S
H452 C465 0.929 . S
H453 C463 0.929 . S
H454 C458 0.929 . S
H455 C464 0.929 . S
C456 H450 0.930 . S
C456 C457 1.367 . S
C456 C464 1.378 . S
C457 C456 1.367 . S
C457 C465 1.433 . S
C458 H454 0.929 . S
C458 C460 1.378 . S
C458 C462 1.350 . S
C459 C462 1.463 1_565 S
C459 C464 1.350 . S
C459 N467 1.427 . S
C460 H451 0.930 . S
C460 C458 1.378 . S
C460 C461 1.367 . S
C461 C460 1.367 . S
C461 C463 1.433 . S
C462 C458 1.350 . S
C462 C459 1.463 1_545 S
C462 N466 1.427 . S
C463 H453 0.929 . S
C463 C461 1.433 . S
C463 N466 1.384 . S
C464 H455 0.929 . S
C464 C456 1.378 . S
C464 C459 1.350 . S
C465 H452 0.929 . S
C465 C457 1.433 . S
C465 N467 1.384 . S
N466 C462 1.427 . S
N466 C463 1.384 . S
N467 C459 1.427 . S
N467 C465 1.384 . S
H468 C474 0.930 . S
H469 C478 0.930 . S
H470 C483 0.929 . S
H471 C481 0.929 . S
H472 C476 0.929 . S
H473 C482 0.929 . S
C474 H468 0.930 . S
C474 C475 1.367 . S
C474 C482 1.378 . S
C475 C474 1.367 . S
C475 C483 1.433 . S
C476 H472 0.929 . S
C476 C478 1.378 . S
C476 C480 1.350 . S
C477 C480 1.463 1_455 S
C477 C482 1.350 . S
C477 N485 1.427 . S
C478 H469 0.930 . S
C478 C476 1.378 . S
C478 C479 1.367 . S
C479 C478 1.367 . S
C479 C481 1.433 . S
C480 C476 1.350 . S
C480 C477 1.463 1_655 S
C480 N484 1.427 . S
C481 H471 0.929 . S
C481 C479 1.433 . S
C481 N484 1.384 . S
C482 H473 0.929 . S
C482 C474 1.378 . S
C482 C477 1.350 . S
C483 H470 0.929 . S
C483 C475 1.433 . S
C483 N485 1.384 . S
N484 C480 1.427 . S
N484 C481 1.384 . S
N485 C477 1.427 . S
N485 C483 1.384 . S
H486 C492 0.930 . S
H487 C496 0.930 . S
H488 C501 0.929 . S
H489 C499 0.929 . S
H490 C494 0.929 . S
H491 C500 0.929 . S
C492 H486 0.930 . S
C492 C493 1.367 . S
C492 C500 1.378 . S
C493 C492 1.367 . S
C493 C501 1.433 . S
C494 H490 0.929 . S
C494 C496 1.378 . S
C494 C498 1.350 . S
C495 C498 1.463 . S
C495 C500 1.350 . S
C495 N503 1.427 . S
C496 H487 0.930 . S
C496 C494 1.378 . S
C496 C497 1.367 . S
C497 C496 1.367 . S
C497 C499 1.433 . S
C498 C494 1.350 . S
C498 C495 1.463 . S
C498 N502 1.427 . S
C499 H489 0.929 . S
C499 C497 1.433 . S
C499 N502 1.384 . S
C500 H491 0.929 . S
C500 C492 1.378 . S
C500 C495 1.350 . S
C501 H488 0.929 . S
C501 C493 1.433 . S
C501 N503 1.384 . S
N502 C498 1.427 . S
N502 C499 1.384 . S
N503 C495 1.427 . S
N503 C501 1.384 . S
H504 C510 0.930 . S
H505 C514 0.930 . S
H506 C519 0.929 . S
H507 C517 0.929 . S
H508 C512 0.929 . S
H509 C518 0.929 . S
C510 H504 0.930 . S
C510 C511 1.367 . S
C510 C518 1.378 . S
C511 C510 1.367 . S
C511 C519 1.433 . S
C512 H508 0.929 . S
C512 C514 1.378 . S
C512 C516 1.350 . S
C513 C516 1.463 . S
C513 C518 1.350 . S
C513 N521 1.427 . S
C514 H505 0.930 . S
C514 C512 1.378 . S
C514 C515 1.367 . S
C515 C514 1.367 . S
C515 C517 1.433 . S
C516 C512 1.350 . S
C516 C513 1.463 . S
C516 N520 1.427 . S
C517 H507 0.929 . S
C517 C515 1.433 . S
C517 N520 1.384 . S
C518 H509 0.929 . S
C518 C510 1.378 . S
C518 C513 1.350 . S
C519 H506 0.929 . S
C519 C511 1.433 . S
C519 N521 1.384 . S
N520 C516 1.427 . S
N520 C517 1.384 . S
N521 C513 1.427 . S
N521 C519 1.384 . S
H522 C528 0.930 . S
H523 C532 0.930 . S
H524 C537 0.929 . S
H525 C535 0.929 . S
H526 C530 0.929 . S
H527 C536 0.929 . S
C528 H522 0.930 . S
C528 C529 1.367 . S
C528 C536 1.378 . S
C529 C528 1.367 . S
C529 C537 1.433 . S
C530 H526 0.929 . S
C530 C532 1.378 . S
C530 C534 1.350 . S
C531 C534 1.463 . S
C531 C536 1.350 . S
C531 N539 1.427 . S
C532 H523 0.930 . S
C532 C530 1.378 . S
C532 C533 1.367 . S
C533 C532 1.367 . S
C533 C535 1.433 . S
C534 C530 1.350 . S
C534 C531 1.463 . S
C534 N538 1.427 . S
C535 H525 0.929 . S
C535 C533 1.433 . S
C535 N538 1.384 . S
C536 H527 0.929 . S
C536 C528 1.378 . S
C536 C531 1.350 . S
C537 H524 0.929 . S
C537 C529 1.433 . S
C537 N539 1.384 . S
N538 C534 1.427 . S
N538 C535 1.384 . S
N539 C531 1.427 . S
N539 C537 1.384 . S
H540 C546 0.930 . S
H541 C550 0.930 . S
H542 C555 0.929 . S
H543 C553 0.929 . S
H544 C548 0.929 . S
H545 C554 0.929 . S
C546 H540 0.930 . S
C546 C547 1.367 . S
C546 C554 1.378 . S
C547 C546 1.367 . S
C547 C555 1.433 . S
C548 H544 0.929 . S
C548 C550 1.378 . S
C548 C552 1.350 . S
C549 C552 1.463 . S
C549 C554 1.350 . S
C549 N557 1.427 . S
C550 H541 0.930 . S
C550 C548 1.378 . S
C550 C551 1.367 . S
C551 C550 1.367 . S
C551 C553 1.433 . S
C552 C548 1.350 . S
C552 C549 1.463 . S
C552 N556 1.427 . S
C553 H543 0.929 . S
C553 C551 1.433 . S
C553 N556 1.384 . S
C554 H545 0.929 . S
C554 C546 1.378 . S
C554 C549 1.350 . S
C555 H542 0.929 . S
C555 C547 1.433 . S
C555 N557 1.384 . S
N556 C552 1.427 . S
N556 C553 1.384 . S
N557 C549 1.427 . S
N557 C555 1.384 . S
H558 C564 0.930 . S
H559 C568 0.930 . S
H560 C573 0.929 . S
H561 C571 0.929 . S
H562 C566 0.929 . S
H563 C572 0.929 . S
C564 H558 0.930 . S
C564 C565 1.367 . S
C564 C572 1.378 . S
C565 C564 1.367 . S
C565 C573 1.433 . S
C566 H562 0.929 . S
C566 C568 1.378 . S
C566 C570 1.350 . S
C567 C570 1.463 . S
C567 C572 1.350 . S
C567 N575 1.427 . S
C568 H559 0.930 . S
C568 C566 1.378 . S
C568 C569 1.367 . S
C569 C568 1.367 . S
C569 C571 1.433 . S
C570 C566 1.350 . S
C570 C567 1.463 . S
C570 N574 1.427 . S
C571 H561 0.929 . S
C571 C569 1.433 . S
C571 N574 1.384 . S
C572 H563 0.929 . S
C572 C564 1.378 . S
C572 C567 1.350 . S
C573 H560 0.929 . S
C573 C565 1.433 . S
C573 N575 1.384 . S
N574 C570 1.427 . S
N574 C571 1.384 . S
N575 C567 1.427 . S
N575 C573 1.384 . S
H576 C582 0.930 . S
H577 C586 0.930 . S
H578 C591 0.929 . S
H579 C589 0.929 . S
H580 C584 0.929 . S
H581 C590 0.929 . S
C582 H576 0.930 . S
C582 C583 1.367 . S
C582 C590 1.378 . S
C583 C582 1.367 . S
C583 C591 1.433 . S
C584 H580 0.929 . S
C584 C586 1.378 . S
C584 C588 1.350 . S
C585 C588 1.463 . S
C585 C590 1.350 . S
C585 N593 1.427 . S
C586 H577 0.930 . S
C586 C584 1.378 . S
C586 C587 1.367 . S
C587 C586 1.367 . S
C587 C589 1.433 . S
C588 C584 1.350 . S
C588 C585 1.463 . S
C588 N592 1.427 . S
C589 H579 0.929 . S
C589 C587 1.433 . S
C589 N592 1.384 . S
C590 H581 0.929 . S
C590 C582 1.378 . S
C590 C585 1.350 . S
C591 H578 0.929 . S
C591 C583 1.433 . S
C591 N593 1.384 . S
N592 C588 1.427 . S
N592 C589 1.384 . S
N593 C585 1.427 . S
N593 C591 1.384 . S
H594 C600 0.930 . S
H595 C604 0.930 . S
H596 C609 0.929 . S
H597 C607 0.929 . S
H598 C602 0.929 . S
H599 C608 0.929 . S
C600 H594 0.930 . S
C600 C601 1.367 . S
C600 C608 1.378 . S
C601 C600 1.367 . S
C601 C609 1.433 . S
C602 H598 0.929 . S
C602 C604 1.378 . S
C602 C606 1.350 . S
C603 C606 1.463 . S
C603 C608 1.350 . S
C603 N611 1.427 . S
C604 H595 0.930 . S
C604 C602 1.378 . S
C604 C605 1.367 . S
C605 C604 1.367 . S
C605 C607 1.433 . S
C606 C602 1.350 . S
C606 C603 1.463 . S
C606 N610 1.427 . S
C607 H597 0.929 . S
C607 C605 1.433 . S
C607 N610 1.384 . S
C608 H599 0.929 . S
C608 C600 1.378 . S
C608 C603 1.350 . S
C609 H596 0.929 . S
C609 C601 1.433 . S
C609 N611 1.384 . S
N610 C606 1.427 . S
N610 C607 1.384 . S
N611 C603 1.427 . S
N611 C609 1.384 . S
H612 C618 0.930 . S
H613 C622 0.930 . S
H614 C627 0.929 . S
H615 C625 0.929 . S
H616 C620 0.929 . S
H617 C626 0.929 . S
C618 H612 0.930 . S
C618 C619 1.367 . S
C618 C626 1.378 . S
C619 C618 1.367 . S
C619 C627 1.433 . S
C620 H616 0.929 . S
C620 C622 1.378 . S
C620 C624 1.350 . S
C621 C624 1.463 . S
C621 C626 1.350 . S
C621 N629 1.427 . S
C622 H613 0.930 . S
C622 C620 1.378 . S
C622 C623 1.367 . S
C623 C622 1.367 . S
C623 C625 1.433 . S
C624 C620 1.350 . S
C624 C621 1.463 . S
C624 N628 1.427 . S
C625 H615 0.929 . S
C625 C623 1.433 . S
C625 N628 1.384 . S
C626 H617 0.929 . S
C626 C618 1.378 . S
C626 C621 1.350 . S
C627 H614 0.929 . S
C627 C619 1.433 . S
C627 N629 1.384 . S
N628 C624 1.427 . S
N628 C625 1.384 . S
N629 C621 1.427 . S
N629 C627 1.384 . S
H630 C636 0.930 . S
H631 C640 0.930 . S
H632 C645 0.929 . S
H633 C643 0.929 . S
H634 C638 0.929 . S
H635 C644 0.929 . S
C636 H630 0.930 . S
C636 C637 1.367 . S
C636 C644 1.378 . S
C637 C636 1.367 . S
C637 C645 1.433 . S
C638 H634 0.929 . S
C638 C640 1.378 . S
C638 C642 1.350 . S
C639 C642 1.463 . S
C639 C644 1.350 . S
C639 N647 1.427 . S
C640 H631 0.930 . S
C640 C638 1.378 . S
C640 C641 1.367 . S
C641 C640 1.367 . S
C641 C643 1.433 . S
C642 C638 1.350 . S
C642 C639 1.463 . S
C642 N646 1.427 . S
C643 H633 0.929 . S
C643 C641 1.433 . S
C643 N646 1.384 . S
C644 H635 0.929 . S
C644 C636 1.378 . S
C644 C639 1.350 . S
C645 H632 0.929 . S
C645 C637 1.433 . S
C645 N647 1.384 . S
N646 C642 1.427 . S
N646 C643 1.384 . S
N647 C639 1.427 . S
N647 C645 1.384 . S
H648 C654 0.930 . S
H649 C658 0.930 . S
H650 C663 0.929 . S
H651 C661 0.929 . S
H652 C656 0.929 . S
H653 C662 0.929 . S
C654 H648 0.930 . S
C654 C655 1.367 . S
C654 C662 1.378 . S
C655 C654 1.367 . S
C655 C663 1.433 . S
C656 H652 0.929 . S
C656 C658 1.378 . S
C656 C660 1.350 . S
C657 C660 1.463 . S
C657 C662 1.350 . S
C657 N665 1.427 . S
C658 H649 0.930 . S
C658 C656 1.378 . S
C658 C659 1.367 . S
C659 C658 1.367 . S
C659 C661 1.433 . S
C660 C656 1.350 . S
C660 C657 1.463 . S
C660 N664 1.427 . S
C661 H651 0.929 . S
C661 C659 1.433 . S
C661 N664 1.384 . S
C662 H653 0.929 . S
C662 C654 1.378 . S
C662 C657 1.350 . S
C663 H650 0.929 . S
C663 C655 1.433 . S
C663 N665 1.384 . S
N664 C660 1.427 . S
N664 C661 1.384 . S
N665 C657 1.427 . S
N665 C663 1.384 . S
H666 C672 0.930 . S
H667 C676 0.930 . S
H668 C681 0.929 . S
H669 C679 0.929 . S
H670 C674 0.929 . S
H671 C680 0.929 . S
C672 H666 0.930 . S
C672 C673 1.367 . S
C672 C680 1.378 . S
C673 C672 1.367 . S
C673 C681 1.433 . S
C674 H670 0.929 . S
C674 C676 1.378 . S
C674 C678 1.350 . S
C675 C678 1.463 . S
C675 C680 1.350 . S
C675 N683 1.427 . S
C676 H667 0.930 . S
C676 C674 1.378 . S
C676 C677 1.367 . S
C677 C676 1.367 . S
C677 C679 1.433 . S
C678 C674 1.350 . S
C678 C675 1.463 . S
C678 N682 1.427 . S
C679 H669 0.929 . S
C679 C677 1.433 . S
C679 N682 1.384 . S
C680 H671 0.929 . S
C680 C672 1.378 . S
C680 C675 1.350 . S
C681 H668 0.929 . S
C681 C673 1.433 . S
C681 N683 1.384 . S
N682 C678 1.427 . S
N682 C679 1.384 . S
N683 C675 1.427 . S
N683 C681 1.384 . S
H684 C690 0.930 . S
H685 C694 0.930 . S
H686 C699 0.929 . S
H687 C697 0.929 . S
H688 C692 0.929 . S
H689 C698 0.929 . S
C690 H684 0.930 . S
C690 C691 1.367 . S
C690 C698 1.378 . S
C691 C690 1.367 . S
C691 C699 1.433 . S
C692 H688 0.929 . S
C692 C694 1.378 . S
C692 C696 1.350 . S
C693 C696 1.463 . S
C693 C698 1.350 . S
C693 N701 1.427 . S
C694 H685 0.930 . S
C694 C692 1.378 . S
C694 C695 1.367 . S
C695 C694 1.367 . S
C695 C697 1.433 . S
C696 C692 1.350 . S
C696 C693 1.463 . S
C696 N700 1.427 . S
C697 H687 0.929 . S
C697 C695 1.433 . S
C697 N700 1.384 . S
C698 H689 0.929 . S
C698 C690 1.378 . S
C698 C693 1.350 . S
C699 H686 0.929 . S
C699 C691 1.433 . S
C699 N701 1.384 . S
N700 C696 1.427 . S
N700 C697 1.384 . S
N701 C693 1.427 . S
N701 C699 1.384 . S
H702 C708 0.930 . S
H703 C712 0.930 . S
H704 C717 0.929 . S
H705 C715 0.929 . S
H706 C710 0.929 . S
H707 C716 0.929 . S
C708 H702 0.930 . S
C708 C709 1.367 . S
C708 C716 1.378 . S
C709 C708 1.367 . S
C709 C717 1.433 . S
C710 H706 0.929 . S
C710 C712 1.378 . S
C710 C714 1.350 . S
C711 C714 1.463 . S
C711 C716 1.350 . S
C711 N719 1.427 . S
C712 H703 0.930 . S
C712 C710 1.378 . S
C712 C713 1.367 . S
C713 C712 1.367 . S
C713 C715 1.433 . S
C714 C710 1.350 . S
C714 C711 1.463 . S
C714 N718 1.427 . S
C715 H705 0.929 . S
C715 C713 1.433 . S
C715 N718 1.384 . S
C716 H707 0.929 . S
C716 C708 1.378 . S
C716 C711 1.350 . S
C717 H704 0.929 . S
C717 C709 1.433 . S
C717 N719 1.384 . S
N718 C714 1.427 . S
N718 C715 1.384 . S
N719 C711 1.427 . S
N719 C717 1.384 . S
H720 C726 0.930 . S
H721 C730 0.930 . S
H722 C735 0.929 . S
H723 C733 0.929 . S
H724 C728 0.929 . S
H725 C734 0.929 . S
C726 H720 0.930 . S
C726 C727 1.367 . S
C726 C734 1.378 . S
C727 C726 1.367 . S
C727 C735 1.433 . S
C728 H724 0.929 . S
C728 C730 1.378 . S
C728 C732 1.350 . S
C729 C732 1.463 1_554 S
C729 C734 1.350 . S
C729 N737 1.427 . S
C730 H721 0.930 . S
C730 C728 1.378 . S
C730 C731 1.367 . S
C731 C730 1.367 . S
C731 C733 1.433 . S
C732 C728 1.350 . S
C732 C729 1.463 1_556 S
C732 N736 1.427 . S
C733 H723 0.929 . S
C733 C731 1.433 . S
C733 N736 1.384 . S
C734 H725 0.929 . S
C734 C726 1.378 . S
C734 C729 1.350 . S
C735 H722 0.929 . S
C735 C727 1.433 . S
C735 N737 1.384 . S
N736 C732 1.427 . S
N736 C733 1.384 . S
N737 C729 1.427 . S
N737 C735 1.384 . S
H738 C744 0.930 . S
H739 C748 0.930 . S
H740 C753 0.929 . S
H741 C751 0.929 . S
H742 C746 0.929 . S
H743 C752 0.929 . S
C744 H738 0.930 . S
C744 C745 1.367 . S
C744 C752 1.378 . S
C745 C744 1.367 . S
C745 C753 1.433 1_545 S
C746 H742 0.929 . S
C746 C748 1.378 . S
C746 C750 1.350 1_565 S
C747 C750 1.463 1_556 S
C747 C752 1.350 . S
C747 N755 1.427 1_545 S
C748 H739 0.930 . S
C748 C746 1.378 . S
C748 C749 1.367 . S
C749 C748 1.367 . S
C749 C751 1.433 1_565 S
C750 C746 1.350 1_545 S
C750 C747 1.463 1_554 S
C750 N754 1.427 . S
C751 H741 0.929 . S
C751 C749 1.433 1_545 S
C751 N754 1.384 . S
C752 H743 0.929 . S
C752 C744 1.378 . S
C752 C747 1.350 . S
C753 H740 0.929 . S
C753 C745 1.433 1_565 S
C753 N755 1.384 . S
N754 C750 1.427 . S
N754 C751 1.384 . S
N755 C747 1.427 1_565 S
N755 C753 1.384 . S
H756 C762 0.930 . S
H757 C766 0.922 . S
H758 C771 0.929 . S
H759 C769 0.929 . S
H760 C764 0.929 . S
H761 C770 0.929 . S
C762 H756 0.930 . S
C762 C763 1.367 1_455 S
C762 C770 1.378 . S
C763 C762 1.367 1_655 S
C763 C771 1.433 . S
C764 H760 0.929 . S
C764 C766 1.381 . S
C764 C768 1.350 1_655 S
C765 C768 1.463 1_556 S
C765 C770 1.350 . S
C765 N773 1.427 1_455 S
C766 H757 0.922 . S
C766 C764 1.381 . S
C766 C767 1.374 1_655 S
C767 C766 1.374 1_455 S
C767 C769 1.433 . S
C768 C764 1.350 1_455 S
C768 C765 1.463 1_554 S
C768 N772 1.427 . S
C769 H759 0.929 . S
C769 C767 1.433 . S
C769 N772 1.384 . S
C770 H761 0.929 . S
C770 C762 1.378 . S
C770 C765 1.350 . S
C771 H758 0.929 . S
C771 C763 1.433 . S
C771 N773 1.384 . S
N772 C768 1.427 . S
N772 C769 1.384 . S
N773 C765 1.427 1_655 S
N773 C771 1.384 . S
H774 C780 0.930 . S
H775 C784 0.930 . S
H776 C789 0.929 . S
H777 C787 0.929 . S
H778 C782 0.929 . S
H779 C788 0.929 . S
C780 H774 0.930 . S
C780 C781 1.367 . S
C780 C788 1.378 . S
C781 C780 1.367 . S
C781 C789 1.433 . S
C782 H778 0.929 . S
C782 C784 1.378 . S
C782 C786 1.350 . S
C783 C786 1.463 . S
C783 C788 1.350 . S
C783 N791 1.427 . S
C784 H775 0.930 . S
C784 C782 1.378 . S
C784 C785 1.367 . S
C785 C784 1.367 . S
C785 C787 1.433 . S
C786 C782 1.350 . S
C786 C783 1.463 . S
C786 N790 1.427 . S
C787 H777 0.929 . S
C787 C785 1.433 . S
C787 N790 1.384 . S
C788 H779 0.929 . S
C788 C780 1.378 . S
C788 C783 1.350 . S
C789 H776 0.929 . S
C789 C781 1.433 . S
C789 N791 1.384 . S
N790 C786 1.427 . S
N790 C787 1.384 . S
N791 C783 1.427 . S
N791 C789 1.384 . S
H792 C798 0.930 . S
H793 C802 0.930 . S
H794 C807 0.929 . S
H795 C805 0.929 . S
H796 C800 0.929 . S
H797 C806 0.929 . S
C798 H792 0.930 . S
C798 C799 1.367 . S
C798 C806 1.378 . S
C799 C798 1.367 . S
C799 C807 1.433 . S
C800 H796 0.929 . S
C800 C802 1.378 . S
C800 C804 1.350 . S
C801 C804 1.463 . S
C801 C806 1.350 . S
C801 N809 1.427 . S
C802 H793 0.930 . S
C802 C800 1.378 . S
C802 C803 1.367 . S
C803 C802 1.367 . S
C803 C805 1.433 . S
C804 C800 1.350 . S
C804 C801 1.463 . S
C804 N808 1.427 . S
C805 H795 0.929 . S
C805 C803 1.433 . S
C805 N808 1.384 . S
C806 H797 0.929 . S
C806 C798 1.378 . S
C806 C801 1.350 . S
C807 H794 0.929 . S
C807 C799 1.433 . S
C807 N809 1.384 . S
N808 C804 1.427 . S
N808 C805 1.384 . S
N809 C801 1.427 . S
N809 C807 1.384 . S
H810 C816 0.930 . S
H811 C820 0.930 . S
H812 C825 0.929 . S
H813 C823 0.929 . S
H814 C818 0.929 . S
H815 C824 0.929 . S
C816 H810 0.930 . S
C816 C817 1.367 . S
C816 C824 1.378 . S
C817 C816 1.367 . S
C817 C825 1.433 . S
C818 H814 0.929 . S
C818 C820 1.378 . S
C818 C822 1.350 . S
C819 C822 1.463 . S
C819 C824 1.350 . S
C819 N827 1.427 . S
C820 H811 0.930 . S
C820 C818 1.378 . S
C820 C821 1.367 . S
C821 C820 1.367 . S
C821 C823 1.433 . S
C822 C818 1.350 . S
C822 C819 1.463 . S
C822 N826 1.427 . S
C823 H813 0.929 . S
C823 C821 1.433 . S
C823 N826 1.384 . S
C824 H815 0.929 . S
C824 C816 1.378 . S
C824 C819 1.350 . S
C825 H812 0.929 . S
C825 C817 1.433 . S
C825 N827 1.384 . S
N826 C822 1.427 . S
N826 C823 1.384 . S
N827 C819 1.427 . S
N827 C825 1.384 . S
H828 C834 0.930 . S
H829 C838 0.930 . S
H830 C843 0.929 . S
H831 C841 0.929 . S
H832 C836 0.929 . S
H833 C842 0.929 . S
C834 H828 0.930 . S
C834 C835 1.367 . S
C834 C842 1.378 . S
C835 C834 1.367 . S
C835 C843 1.433 . S
C836 H832 0.929 . S
C836 C838 1.378 . S
C836 C840 1.350 . S
C837 C840 1.463 . S
C837 C842 1.350 . S
C837 N845 1.427 . S
C838 H829 0.930 . S
C838 C836 1.378 . S
C838 C839 1.367 . S
C839 C838 1.367 . S
C839 C841 1.433 . S
C840 C836 1.350 . S
C840 C837 1.463 . S
C840 N844 1.427 . S
C841 H831 0.929 . S
C841 C839 1.433 . S
C841 N844 1.384 . S
C842 H833 0.929 . S
C842 C834 1.378 . S
C842 C837 1.350 . S
C843 H830 0.929 . S
C843 C835 1.433 . S
C843 N845 1.384 . S
N844 C840 1.427 . S
N844 C841 1.384 . S
N845 C837 1.427 . S
N845 C843 1.384 . S
H846 C852 0.930 . S
H847 C856 0.930 . S
H848 C861 0.929 . S
H849 C859 0.929 . S
H850 C854 0.929 . S
H851 C860 0.929 . S
C852 H846 0.930 . S
C852 C853 1.367 . S
C852 C860 1.378 . S
C853 C852 1.367 . S
C853 C861 1.433 . S
C854 H850 0.929 . S
C854 C856 1.378 . S
C854 C858 1.350 . S
C855 C858 1.463 . S
C855 C860 1.350 . S
C855 N863 1.427 . S
C856 H847 0.930 . S
C856 C854 1.378 . S
C856 C857 1.367 . S
C857 C856 1.367 . S
C857 C859 1.433 . S
C858 C854 1.350 . S
C858 C855 1.463 . S
C858 N862 1.427 . S
C859 H849 0.929 . S
C859 C857 1.433 . S
C859 N862 1.384 . S
C860 H851 0.929 . S
C860 C852 1.378 . S
C860 C855 1.350 . S
C861 H848 0.929 . S
C861 C853 1.433 . S
C861 N863 1.384 . S
N862 C858 1.427 . S
N862 C859 1.384 . S
N863 C855 1.427 . S
N863 C861 1.384 . S
H864 C870 0.930 . S
H865 C874 0.930 . S
H866 C879 0.929 . S
H867 C877 0.929 . S
H868 C872 0.929 . S
H869 C878 0.929 . S
C870 H864 0.930 . S
C870 C871 1.367 . S
C870 C878 1.378 . S
C871 C870 1.367 . S
C871 C879 1.433 . S
C872 H868 0.929 . S
C872 C874 1.378 . S
C872 C876 1.350 . S
C873 C876 1.463 . S
C873 C878 1.350 . S
C873 N881 1.427 . S
C874 H865 0.930 . S
C874 C872 1.378 . S
C874 C875 1.367 . S
C875 C874 1.367 . S
C875 C877 1.433 . S
C876 C872 1.350 . S
C876 C873 1.463 . S
C876 N880 1.427 . S
C877 H867 0.929 . S
C877 C875 1.433 . S
C877 N880 1.384 . S
C878 H869 0.929 . S
C878 C870 1.378 . S
C878 C873 1.350 . S
C879 H866 0.929 . S
C879 C871 1.433 . S
C879 N881 1.384 . S
N880 C876 1.427 . S
N880 C877 1.384 . S
N881 C873 1.427 . S
N881 C879 1.384 . S
C241 C134 1.309 . S
C245 C10 1.311 . S
C259 C23 1.307 . S
C263 C147 1.304 . S
C277 C121 1.298 . S
C281 C30 1.296 . S
C295 C192 1.298 . S
C299 C49 1.301 . S
C313 C56 1.295 . S
C317 C166 1.296 . S
C331 C179 1.300 . S
C335 C69 1.303 . S
C349 C88 1.295 . S
C353 C212 1.294 . S
C367 C225 1.295 . S
C371 C101 1.294 . S
C385 C114 1.295 . S
C389 C205 1.294 . S
C403 C3 1.257 . S
C407 C18 1.273 . S
C421 C16 1.265 . S
C425 C29 1.263 . S
C439 C5 1.273 . S
C443 C31 1.257 . S
C457 C68 1.272 . S
C461 C42 1.249 . S
C475 C44 1.274 . S
C479 C57 1.248 . S
C493 C70 1.263 . S
C497 C55 1.267 . S
C511 C81 1.263 . S
C515 C96 1.262 . S
C529 C94 1.265 . S
C533 C109 1.263 . S
C547 C83 1.267 . S
C551 C107 1.254 . S
C565 C146 1.270 . S
C569 C122 1.260 . S
C583 C120 1.274 . S
C587 C135 1.255 . S
C601 C133 1.263 . S
C605 C148 1.259 . S
C619 C174 1.262 . S
C623 C159 1.262 . S
C637 C187 1.276 . S
C641 C172 1.252 . S
C655 C161 1.267 . S
C659 C185 1.263 . S
C673 C198 1.247 . S
C677 C224 1.276 . S
C691 C213 1.259 . S
C695 C200 1.264 . S
C709 C226 1.264 . S
C713 C211 1.262 . S
C727 C4 1.728 . S
C731 C43 1.722 . S
C745 C62 1.730 . S
C749 C17 1.724 1_565 S
C763 C75 1.722 1_655 S
C767 C36 1.728 . S
C781 C127 1.730 . S
C785 C82 1.724 . S
C799 C140 1.729 . S
C803 C95 1.728 . S
C817 C108 1.728 . S
C821 C153 1.729 . S
C835 C199 1.725 . S
C839 C160 1.721 . S
C853 C218 1.729 . S
C857 C173 1.729 . S
C871 C231 1.728 . S
C875 C186 1.721 . S
