# Generated by pormake.
# Topology wje, (4)-cn, num edge types: 1
# Building blocks:
#     Node 0, Type 0, BuildingBlock: KUFVIS_clean_sbu_0, # of connection points: 4
#     Node 1, Type 0, BuildingBlock: KUFVIS_clean_sbu_0, # of connection points: 4
#     Node 2, Type 0, BuildingBlock: KUFVIS_clean_sbu_0, # of connection points: 4
#     Node 3, Type 0, BuildingBlock: KUFVIS_clean_sbu_0, # of connection points: 4
#     Node 4, Type 0, BuildingBlock: KUFVIS_clean_sbu_0, # of connection points: 4
#     Node 5, Type 0, BuildingBlock: KUFVIS_clean_sbu_0, # of connection points: 4
#     Node 6, Type 0, BuildingBlock: KUFVIS_clean_sbu_0, # of connection points: 4
#     Node 7, Type 0, BuildingBlock: KUFVIS_clean_sbu_0, # of connection points: 4
#     Node 8, Type 0, BuildingBlock: KUFVIS_clean_sbu_0, # of connection points: 4
#     Node 9, Type 0, BuildingBlock: KUFVIS_clean_sbu_0, # of connection points: 4
#     Node 10, Type 0, BuildingBlock: KUFVIS_clean_sbu_0, # of connection points: 4
#     Node 11, Type 0, BuildingBlock: KUFVIS_clean_sbu_0, # of connection points: 4
#     Edge 12, Type (0, 0), BuildingBlock: XIVTED_clean_linker_0, # of connection points: 2
#     Edge 13, Type (0, 0), BuildingBlock: XIVTED_clean_linker_0, # of connection points: 2
#     Edge 14, Type (0, 0), BuildingBlock: XIVTED_clean_linker_0, # of connection points: 2
#     Edge 15, Type (0, 0), BuildingBlock: XIVTED_clean_linker_0, # of connection points: 2
#     Edge 16, Type (0, 0), BuildingBlock: XIVTED_clean_linker_0, # of connection points: 2
#     Edge 17, Type (0, 0), BuildingBlock: XIVTED_clean_linker_0, # of connection points: 2
#     Edge 18, Type (0, 0), BuildingBlock: XIVTED_clean_linker_0, # of connection points: 2
#     Edge 19, Type (0, 0), BuildingBlock: XIVTED_clean_linker_0, # of connection points: 2
#     Edge 20, Type (0, 0), BuildingBlock: XIVTED_clean_linker_0, # of connection points: 2
#     Edge 21, Type (0, 0), BuildingBlock: XIVTED_clean_linker_0, # of connection points: 2
#     Edge 22, Type (0, 0), BuildingBlock: XIVTED_clean_linker_0, # of connection points: 2
#     Edge 23, Type (0, 0), BuildingBlock: XIVTED_clean_linker_0, # of connection points: 2
#     Edge 24, Type (0, 0), BuildingBlock: XIVTED_clean_linker_0, # of connection points: 2
#     Edge 25, Type (0, 0), BuildingBlock: XIVTED_clean_linker_0, # of connection points: 2
#     Edge 26, Type (0, 0), BuildingBlock: XIVTED_clean_linker_0, # of connection points: 2
#     Edge 27, Type (0, 0), BuildingBlock: XIVTED_clean_linker_0, # of connection points: 2
#     Edge 28, Type (0, 0), BuildingBlock: XIVTED_clean_linker_0, # of connection points: 2
#     Edge 29, Type (0, 0), BuildingBlock: XIVTED_clean_linker_0, # of connection points: 2
#     Edge 30, Type (0, 0), BuildingBlock: XIVTED_clean_linker_0, # of connection points: 2
#     Edge 31, Type (0, 0), BuildingBlock: XIVTED_clean_linker_0, # of connection points: 2
#     Edge 32, Type (0, 0), BuildingBlock: XIVTED_clean_linker_0, # of connection points: 2
#     Edge 33, Type (0, 0), BuildingBlock: XIVTED_clean_linker_0, # of connection points: 2
#     Edge 34, Type (0, 0), BuildingBlock: XIVTED_clean_linker_0, # of connection points: 2
#     Edge 35, Type (0, 0), BuildingBlock: XIVTED_clean_linker_0, # of connection points: 2
# Relax obj value: 0.160
# Max RMSD: 0.106
# Mean RMSD: 0.106
data_MOF--net-wje--node1-KUFVIS_clean_sbu_0--edge1-XIVTED_clean_linker_0
_symmetry_space_group_name_H-M    P1
_symmetry_Int_Tables_number       1
_symmetry_cell_setting            triclinic
loop_
_symmetry_equiv_pos_as_xyz
'x, y, z'
_cell_length_a     39.683364
_cell_length_b     39.681306
_cell_length_c     38.377614
_cell_angle_alpha  90.000193
_cell_angle_beta   89.949266
_cell_angle_gamma 119.99819
loop_
_atom_site_label
_atom_site_type_symbol
_atom_site_fract_x
_atom_site_fract_y
_atom_site_fract_z
_atom_type_partial_charge
Mn0 Mn 0.31856 0.0201 0.32152 0.0
Mn1 Mn 0.29055 0.96941 0.24683 0.0
C2 C 0.25339 0.97955 0.31007 0.0
C3 C 0.33444 0.01871 0.38018 0.0
C4 C 0.32043 0.05649 0.25083 0.0
O5 O 0.36776 0.02195 0.30451 0.0
O6 O 0.34527 0.98332 0.25699 0.0
C7 C 0.29093 0.89845 0.26999 0.0
N8 N 0.27126 0.91564 0.25704 0.0
C9 C 0.21091 0.85468 0.25729 0.0
C10 C 0.23059 0.8363 0.27041 0.0
C11 C 0.27078 0.85828 0.27676 0.0
C12 C 0.23262 0.89472 0.25065 0.0
H13 H 0.32172 0.9153 0.27537 0.0
C14 C 0.37221 0.00392 0.27895 0.0
O15 O 0.34503 0.0517 0.36458 0.0
O16 O 0.31627 0.98776 0.36148 0.0
N17 N 0.23778 0.95389 0.23536 0.0
C18 C 0.22266 0.97646 0.22506 0.0
C19 C 0.18257 0.95907 0.21858 0.0
C20 C 0.15845 0.91874 0.22289 0.0
C21 C 0.17466 0.8961 0.23352 0.0
C22 C 0.2149 0.91496 0.23912 0.0
H23 H 0.24099 0.00753 0.22205 0.0
O24 O 0.26413 0.00778 0.3322 0.0
O25 O 0.28148 0.97762 0.2948 0.0
O26 O 0.3246 0.06014 0.28403 0.0
O27 O 0.30894 0.02426 0.23481 0.0
C28 C 0.15234 0.85573 0.23959 0.0
C29 C 0.17044 0.83504 0.25148 0.0
H30 H 0.21506 0.80541 0.27608 0.0
H31 H 0.28612 0.84436 0.28713 0.0
H32 H 0.17024 0.97676 0.21053 0.0
H33 H 0.12747 0.90552 0.21827 0.0
H34 H 0.12113 0.84041 0.23567 0.0
H35 H 0.15288 0.80413 0.25657 0.0
Mn36 Mn 0.29475 0.32167 0.65266 0.0
Mn37 Mn 0.31823 0.29625 0.57692 0.0
C38 C 0.26986 0.2569 0.63936 0.0
C39 C 0.3111 0.33544 0.71173 0.0
C40 C 0.26144 0.32652 0.58233 0.0
O41 O 0.34256 0.37118 0.63709 0.0
O42 O 0.35932 0.35049 0.58872 0.0
C43 C 0.38938 0.2953 0.59841 0.0
N44 N 0.3524 0.27626 0.5857 0.0
C45 C 0.35268 0.2158 0.5831 0.0
C46 C 0.39083 0.23481 0.596 0.0
C47 C 0.40926 0.27474 0.60365 0.0
C48 C 0.33452 0.23791 0.57791 0.0
H49 H 0.40352 0.32589 0.60473 0.0
C50 C 0.36546 0.37653 0.61165 0.0
O51 O 0.28921 0.34685 0.69645 0.0
O52 O 0.3239 0.31762 0.69253 0.0
N53 N 0.28075 0.24405 0.56402 0.0
C54 C 0.24301 0.2295 0.55414 0.0
C55 C 0.22001 0.18966 0.5467 0.0
C56 C 0.23598 0.16519 0.54963 0.0
C57 C 0.27488 0.18081 0.55987 0.0
C58 C 0.29654 0.22083 0.56654 0.0
H59 H 0.23043 0.24807 0.55223 0.0
O60 O 0.25214 0.26719 0.66169 0.0
O61 O 0.30038 0.28528 0.62482 0.0
O62 O 0.26147 0.32945 0.61562 0.0
O63 O 0.28228 0.31546 0.56589 0.0
C64 C 0.29273 0.15809 0.5645 0.0
C65 C 0.3316 0.17557 0.57608 0.0
H66 H 0.40609 0.21896 0.6005 0.0
H67 H 0.43862 0.28957 0.61382 0.0
H68 H 0.18996 0.17778 0.53898 0.0
H69 H 0.21802 0.13439 0.54424 0.0
H70 H 0.27666 0.12704 0.55966 0.0
H71 H 0.34483 0.15769 0.58 0.0
Mn72 Mn 0.97303 0.29835 0.98299 0.0
Mn73 Mn 0.0219 0.322 0.90719 0.0
C74 C 0.01339 0.27399 0.9698 0.0
C75 C 0.97528 0.31473 0.04202 0.0
C76 C 0.93502 0.2645 0.91273 0.0
O77 O 0.97072 0.34579 0.96728 0.0
O78 O 0.00817 0.36269 0.91889 0.0
C79 C 0.0936 0.39373 0.92836 0.0
N80 N 0.07598 0.35671 0.91574 0.0
C81 C 0.13719 0.35799 0.91248 0.0
C82 C 0.15598 0.39619 0.9253 0.0
C83 C 0.13408 0.41413 0.93324 0.0
C84 C 0.09682 0.33928 0.9077 0.0
H85 H 0.07685 0.40751 0.93488 0.0
C86 C 0.98809 0.36865 0.94178 0.0
O87 O 0.94208 0.29254 0.02669 0.0
O88 O 0.00599 0.32782 0.02288 0.0
N89 N 0.03717 0.28491 0.89433 0.0
C90 C 0.0143 0.24704 0.88464 0.0
C91 C 0.03157 0.22446 0.87702 0.0
C92 C 0.07211 0.24099 0.87955 0.0
C93 C 0.09505 0.28 0.8896 0.0
C94 C 0.07625 0.30121 0.89649 0.0
H95 H 0.98309 0.23406 0.88301 0.0
O96 O 0.98543 0.25617 0.99216 0.0
O97 O 0.0153 0.30438 0.95518 0.0
O98 O 0.93213 0.26461 0.94602 0.0
O99 O 0.96685 0.28554 0.89626 0.0
C100 C 0.13571 0.29842 0.89379 0.0
C101 C 0.15677 0.33739 0.90519 0.0
H102 H 0.18715 0.41186 0.9295 0.0
H103 H 0.14836 0.44352 0.94334 0.0
H104 H 0.01365 0.19431 0.86945 0.0
H105 H 0.08528 0.22335 0.874 0.0
H106 H 0.15102 0.28271 0.88874 0.0
H107 H 0.18795 0.35105 0.90878 0.0
Mn108 Mn 0.67324 0.97639 0.31687 0.0
Mn109 Mn 0.69701 0.02323 0.24004 0.0
C110 C 0.73769 0.01586 0.30224 0.0
C111 C 0.66059 0.9802 0.37605 0.0
C112 C 0.66713 0.93641 0.2472 0.0
O113 O 0.62342 0.97434 0.30192 0.0
O114 O 0.64297 0.01019 0.25257 0.0
C115 C 0.69794 0.09572 0.26014 0.0
N116 N 0.71687 0.07758 0.24756 0.0
C117 C 0.77689 0.13849 0.24265 0.0
C118 C 0.75798 0.15782 0.25541 0.0
C119 C 0.71833 0.13633 0.26416 0.0
C120 C 0.75494 0.09801 0.23875 0.0
H121 H 0.66757 0.07931 0.26727 0.0
C122 C 0.61749 0.99108 0.27617 0.0
O123 O 0.64888 0.9466 0.36123 0.0
O124 O 0.67811 0.01046 0.35635 0.0
N125 N 0.74898 0.03785 0.22634 0.0
C126 C 0.76355 0.01456 0.21681 0.0
C127 C 0.80318 0.03142 0.20844 0.0
C128 C 0.82743 0.07199 0.21006 0.0
C129 C 0.81179 0.09537 0.21997 0.0
C130 C 0.77198 0.07697 0.22764 0.0
H131 H 0.74515 0.98333 0.21586 0.0
O132 O 0.72784 0.9884 0.32509 0.0
O133 O 0.70904 0.01774 0.28799 0.0
O134 O 0.66468 0.9344 0.28054 0.0
O135 O 0.67789 0.96785 0.23012 0.0
C136 C 0.83432 0.13613 0.22326 0.0
C137 C 0.81688 0.15767 0.23457 0.0
H138 H 0.77372 0.18909 0.25894 0.0
H139 H 0.70359 0.15102 0.27422 0.0
H140 H 0.81507 0.01316 0.20097 0.0
H141 H 0.85807 0.08485 0.20392 0.0
H142 H 0.8652 0.15115 0.21759 0.0
H143 H 0.83462 0.18893 0.23745 0.0
Mn144 Mn 0.69543 0.6728 0.65456 0.0
Mn145 Mn 0.67368 0.70205 0.58003 0.0
C146 C 0.72261 0.73818 0.64281 0.0
C147 C 0.67816 0.65733 0.71337 0.0
C148 C 0.72856 0.66933 0.58354 0.0
O149 O 0.64689 0.6246 0.63801 0.0
O150 O 0.6316 0.64786 0.59052 0.0
C151 C 0.60372 0.70438 0.60325 0.0
N152 N 0.6406 0.72299 0.59021 0.0
C153 C 0.64197 0.78432 0.58958 0.0
C154 C 0.60392 0.76574 0.60278 0.0
C155 C 0.58472 0.7256 0.60962 0.0
C156 C 0.65924 0.76156 0.58328 0.0
H157 H 0.589 0.67362 0.60897 0.0
C158 C 0.62452 0.62079 0.6126 0.0
O159 O 0.69954 0.64557 0.69761 0.0
O160 O 0.66652 0.67658 0.69479 0.0
N161 N 0.71209 0.75431 0.56816 0.0
C162 C 0.74965 0.7683 0.5579 0.0
C163 C 0.77335 0.80823 0.55116 0.0
C164 C 0.75826 0.83335 0.55515 0.0
C165 C 0.71952 0.81829 0.56573 0.0
C166 C 0.69712 0.77816 0.57163 0.0
H167 H 0.76153 0.74919 0.55516 0.0
O168 O 0.73918 0.72633 0.66487 0.0
O169 O 0.69152 0.711 0.62794 0.0
O170 O 0.72815 0.66506 0.61673 0.0
O171 O 0.7086 0.68191 0.5678 0.0
C172 C 0.70256 0.84166 0.57146 0.0
C173 C 0.66381 0.82469 0.58336 0.0
H174 H 0.58933 0.78209 0.60814 0.0
H175 H 0.55544 0.7111 0.62004 0.0
H176 H 0.80328 0.81967 0.54316 0.0
H177 H 0.77679 0.86421 0.55033 0.0
H178 H 0.71923 0.87281 0.56725 0.0
H179 H 0.65128 0.84305 0.58815 0.0
Mn180 Mn 0.01808 0.69716 0.98402 0.0
Mn181 Mn 0.96988 0.67614 0.90802 0.0
C182 C 0.97934 0.7235 0.9712 0.0
C183 C 0.0145 0.67955 0.04292 0.0
C184 C 0.05715 0.73146 0.91409 0.0
O185 O 0.01877 0.64904 0.96768 0.0
O186 O 0.98202 0.63419 0.919 0.0
C187 C 0.89695 0.60527 0.92856 0.0
N188 N 0.91554 0.64253 0.91644 0.0
C189 C 0.85542 0.6435 0.91414 0.0
C190 C 0.83563 0.60509 0.92644 0.0
C191 C 0.85649 0.58589 0.93364 0.0
C192 C 0.89569 0.66116 0.90909 0.0
H193 H 0.91291 0.59053 0.93454 0.0
C194 C 0.00128 0.62697 0.94177 0.0
O195 O 0.04808 0.70116 0.02792 0.0
O196 O 0.98418 0.66767 0.02352 0.0
N197 N 0.95615 0.71454 0.89586 0.0
C198 C 0.97992 0.75239 0.88652 0.0
C199 C 0.96376 0.77609 0.87955 0.0
C200 C 0.92338 0.76071 0.88239 0.0
C201 C 0.89951 0.72169 0.89208 0.0
C202 C 0.91721 0.69932 0.89829 0.0
H203 H 0.01102 0.7645 0.88467 0.0
O204 O 0.00723 0.74035 0.99373 0.0
O205 O 0.97672 0.69302 0.95617 0.0
O206 O 0.05978 0.73062 0.94737 0.0
O207 O 0.02527 0.71155 0.89743 0.0
C208 C 0.85896 0.70437 0.89658 0.0
C209 C 0.83693 0.6653 0.90758 0.0
H210 H 0.80449 0.5902 0.93081 0.0
H211 H 0.84145 0.55631 0.94334 0.0
H212 H 0.9824 0.80623 0.87225 0.0
H213 H 0.91108 0.77921 0.87737 0.0
H214 H 0.84448 0.72099 0.89208 0.0
H215 H 0.80585 0.65248 0.91139 0.0
Mn216 Mn 0.96875 0.67137 0.35958 0.0
Mn217 Mn 0.02002 0.6986 0.43396 0.0
C218 C 0.00952 0.73645 0.37145 0.0
C219 C 0.97008 0.65618 0.30059 0.0
C220 C 0.93289 0.66876 0.43078 0.0
O221 O 0.96693 0.62195 0.37588 0.0
O222 O 0.00603 0.64399 0.42312 0.0
C223 C 0.0908 0.69848 0.40973 0.0
N224 N 0.0737 0.71801 0.42325 0.0
C225 C 0.13465 0.77837 0.42306 0.0
C226 C 0.15293 0.75884 0.40934 0.0
C227 C 0.1309 0.71872 0.40267 0.0
C228 C 0.09467 0.75658 0.42995 0.0
H229 H 0.07391 0.66774 0.4041 0.0
C230 C 0.98518 0.61726 0.40108 0.0
O231 O 0.93711 0.64543 0.31631 0.0
O232 O 0.001 0.6741 0.31934 0.0
N233 N 0.03562 0.75124 0.44605 0.0
C234 C 0.01313 0.76624 0.45694 0.0
C235 C 0.03056 0.80626 0.46381 0.0
C236 C 0.07085 0.83044 0.45929 0.0
C237 C 0.09341 0.81435 0.44804 0.0
C238 C 0.07452 0.77417 0.44208 0.0
H239 H 0.98209 0.74786 0.46012 0.0
O240 O 0.98116 0.72598 0.34954 0.0
O241 O 0.0114 0.70814 0.3863 0.0
O242 O 0.92893 0.66501 0.39755 0.0
O243 O 0.96527 0.68005 0.44646 0.0
C244 C 0.13372 0.83675 0.44173 0.0
C245 C 0.15433 0.81878 0.42923 0.0
H246 H 0.18376 0.77444 0.40345 0.0
H247 H 0.14475 0.70349 0.39185 0.0
H248 H 0.01293 0.81849 0.47234 0.0
H249 H 0.0841 0.86137 0.46421 0.0
H250 H 0.14907 0.86792 0.44593 0.0
H251 H 0.18519 0.83641 0.42396 0.0
Mn252 Mn 0.29907 0.97906 0.69771 0.0
Mn253 Mn 0.3228 0.02712 0.77385 0.0
C254 C 0.27429 0.01886 0.71169 0.0
C255 C 0.31544 0.98219 0.63857 0.0
C256 C 0.26579 0.94017 0.76787 0.0
O257 O 0.34676 0.97702 0.71283 0.0
O258 O 0.36377 0.01392 0.76151 0.0
C259 C 0.3941 0.09935 0.75274 0.0
N260 N 0.35714 0.08136 0.76558 0.0
C261 C 0.35785 0.14225 0.76949 0.0
C262 C 0.39598 0.16144 0.75647 0.0
C263 C 0.41418 0.13989 0.74809 0.0
C264 C 0.33947 0.10186 0.77404 0.0
H265 H 0.40807 0.08288 0.74588 0.0
C266 C 0.36974 0.9942 0.73826 0.0
O267 O 0.29347 0.94874 0.65365 0.0
O268 O 0.32822 0.01263 0.65798 0.0
N269 N 0.28548 0.04185 0.78733 0.0
C270 C 0.2477 0.01864 0.79718 0.0
C271 C 0.22489 0.03555 0.80524 0.0
C272 C 0.24109 0.07607 0.80298 0.0
C273 C 0.28002 0.09936 0.79276 0.0
C274 C 0.30147 0.08093 0.78543 0.0
H275 H 0.23497 0.98744 0.7986 0.0
O276 O 0.25653 0.99106 0.6892 0.0
O277 O 0.30487 0.02088 0.726 0.0
O278 O 0.26576 0.93763 0.73455 0.0
O279 O 0.28672 0.97187 0.78449 0.0
C280 C 0.29811 0.14004 0.78882 0.0
C281 C 0.337 0.16148 0.77722 0.0
H282 H 0.4114 0.19264 0.75243 0.0
H283 H 0.44352 0.15446 0.73782 0.0
H284 H 0.19482 0.01736 0.81295 0.0
H285 H 0.22328 0.08896 0.80887 0.0
H286 H 0.28221 0.15508 0.79421 0.0
H287 H 0.35041 0.19267 0.77383 0.0
Mn288 Mn 0.31735 0.29601 0.02835 0.0
Mn289 Mn 0.29124 0.31894 0.10402 0.0
C290 C 0.2525 0.27123 0.0412 0.0
C291 C 0.3319 0.31288 0.96943 0.0
C292 C 0.3209 0.26165 0.09859 0.0
O293 O 0.36685 0.34345 0.04442 0.0
O294 O 0.3458 0.35974 0.09284 0.0
C295 C 0.29149 0.39076 0.0827 0.0
N296 N 0.27194 0.35367 0.09521 0.0
C297 C 0.21188 0.35476 0.09746 0.0
C298 C 0.23142 0.39303 0.08477 0.0
C299 C 0.2714 0.4111 0.0774 0.0
C300 C 0.23354 0.33613 0.10272 0.0
H301 H 0.32212 0.40463 0.07659 0.0
C302 C 0.37207 0.36601 0.07009 0.0
O303 O 0.34293 0.29068 0.98473 0.0
O304 O 0.31402 0.32568 0.98854 0.0
N305 N 0.23873 0.28176 0.11642 0.0
C306 C 0.22365 0.24387 0.12607 0.0
C307 C 0.18369 0.22119 0.13319 0.0
C308 C 0.15965 0.23764 0.13019 0.0
C309 C 0.17582 0.27669 0.1202 0.0
C310 C 0.21593 0.29801 0.11386 0.0
H311 H 0.24191 0.23093 0.12802 0.0
O312 O 0.26293 0.25369 0.01881 0.0
O313 O 0.28076 0.30161 0.05598 0.0
O314 O 0.3244 0.26218 0.06533 0.0
O315 O 0.30973 0.28239 0.11505 0.0
C316 C 0.15355 0.29502 0.1155 0.0
C317 C 0.17156 0.33403 0.10416 0.0
H318 H 0.21593 0.40865 0.08023 0.0
H319 H 0.28664 0.44055 0.0674 0.0
H320 H 0.1714 0.19101 0.14072 0.0
H321 H 0.12876 0.21992 0.13533 0.0
H322 H 0.12244 0.27922 0.1201 0.0
H323 H 0.15404 0.34763 0.10019 0.0
Mn324 Mn 0.0193 0.32062 0.35882 0.0
Mn325 Mn 0.96941 0.29332 0.43404 0.0
C326 C 0.98021 0.25551 0.37141 0.0
C327 C 0.01713 0.3351 0.29986 0.0
C328 C 0.05682 0.32522 0.42945 0.0
O329 O 0.01972 0.36939 0.37476 0.0
O330 O 0.98162 0.34737 0.42269 0.0
C331 C 0.89687 0.29104 0.41186 0.0
N332 N 0.91525 0.27245 0.42465 0.0
C333 C 0.85519 0.21124 0.4262 0.0
C334 C 0.83561 0.22978 0.4132 0.0
C335 C 0.85655 0.26986 0.40605 0.0
C336 C 0.89532 0.23396 0.43196 0.0
H337 H 0.91289 0.32174 0.40589 0.0
C338 C 0.00144 0.37387 0.40007 0.0
O339 O 0.05035 0.34683 0.3154 0.0
O340 O 0.98634 0.3165 0.31874 0.0
N341 N 0.95553 0.24119 0.44648 0.0
C342 C 0.97915 0.22719 0.45651 0.0
C343 C 0.96292 0.18732 0.46353 0.0
C344 C 0.92264 0.16225 0.46004 0.0
C345 C 0.89891 0.17731 0.44965 0.0
C346 C 0.91666 0.21739 0.44344 0.0
H347 H 0.01018 0.24624 0.45885 0.0
O348 O 0.00853 0.26656 0.34929 0.0
O349 O 0.97735 0.28338 0.38615 0.0
O350 O 0.06011 0.32865 0.3962 0.0
O351 O 0.02462 0.31339 0.44562 0.0
C352 C 0.8585 0.15398 0.44443 0.0
C353 C 0.83665 0.17093 0.43273 0.0
H354 H 0.8046 0.21345 0.40826 0.0
H355 H 0.84168 0.28433 0.39581 0.0
H356 H 0.98144 0.17589 0.47137 0.0
H357 H 0.91029 0.13144 0.46509 0.0
H358 H 0.844 0.12288 0.4489 0.0
H359 H 0.80569 0.1526 0.42835 0.0
Mn360 Mn 0.69594 0.01912 0.69329 0.0
Mn361 Mn 0.67347 0.96853 0.76814 0.0
C362 C 0.72238 0.9804 0.70545 0.0
C363 C 0.67911 0.01746 0.63445 0.0
C364 C 0.72949 0.05583 0.76416 0.0
O365 O 0.64777 0.01965 0.70963 0.0
O366 O 0.63226 0.98188 0.75767 0.0
C367 C 0.60251 0.89708 0.74523 0.0
N368 N 0.63937 0.91464 0.75822 0.0
C369 C 0.63905 0.85384 0.75922 0.0
C370 C 0.601 0.83508 0.74609 0.0
C371 C 0.58265 0.85681 0.73908 0.0
C372 C 0.65719 0.89396 0.7653 0.0
H373 H 0.58845 0.91372 0.73939 0.0
C374 C 0.6255 0.00188 0.73535 0.0
O375 O 0.70072 0.05055 0.65016 0.0
O376 O 0.66696 0.98652 0.6531 0.0
N377 N 0.71096 0.9535 0.78011 0.0
C378 C 0.74864 0.9764 0.79029 0.0
C379 C 0.77156 0.95934 0.79716 0.0
C380 C 0.75556 0.91897 0.79339 0.0
C381 C 0.71671 0.89599 0.78291 0.0
C382 C 0.69512 0.91454 0.77687 0.0
H383 H 0.76121 0.0075 0.79285 0.0
O384 O 0.73928 0.00867 0.68326 0.0
O385 O 0.69132 0.97682 0.72018 0.0
O386 O 0.72884 0.05955 0.73097 0.0
O387 O 0.70939 0.02343 0.7801 0.0
C388 C 0.69887 0.85554 0.77741 0.0
C389 C 0.66006 0.83448 0.76559 0.0
H390 H 0.58575 0.8041 0.7409 0.0
H391 H 0.55339 0.84258 0.72872 0.0
H392 H 0.80157 0.97729 0.80508 0.0
H393 H 0.77348 0.90599 0.79831 0.0
H394 H 0.7149 0.84043 0.78173 0.0
H395 H 0.64685 0.80349 0.76099 0.0
Mn396 Mn 0.67241 0.69358 0.03058 0.0
Mn397 Mn 0.69807 0.67228 0.10728 0.0
C398 C 0.73722 0.7194 0.04417 0.0
C399 C 0.65891 0.67614 0.97165 0.0
C400 C 0.66726 0.72844 0.10005 0.0
O401 O 0.62313 0.64578 0.04658 0.0
O402 O 0.64391 0.63079 0.09589 0.0
C403 C 0.69923 0.60067 0.08779 0.0
N404 N 0.71817 0.63798 0.09977 0.0
C405 C 0.77855 0.6377 0.10385 0.0
C406 C 0.75964 0.59923 0.09171 0.0
C407 C 0.7198 0.58065 0.08367 0.0
C408 C 0.75643 0.65603 0.1079 0.0
H409 H 0.6687 0.58638 0.08122 0.0
C410 C 0.61789 0.62374 0.07269 0.0
O411 O 0.64712 0.69799 0.98643 0.0
O412 O 0.67694 0.66394 0.99128 0.0
N413 N 0.75021 0.71016 0.11992 0.0
C414 C 0.7647 0.74816 0.12893 0.0
C415 C 0.80447 0.77133 0.13655 0.0
C416 C 0.82893 0.75526 0.13473 0.0
C417 C 0.81337 0.7161 0.12537 0.0
C418 C 0.77343 0.6943 0.11844 0.0
H419 H 0.74612 0.76078 0.13003 0.0
O420 O 0.72667 0.73641 0.02133 0.0
O421 O 0.70903 0.68896 0.05903 0.0
O422 O 0.66409 0.72736 0.06676 0.0
O423 O 0.67874 0.70836 0.11714 0.0
C424 C 0.83609 0.69809 0.12193 0.0
C425 C 0.81869 0.65891 0.11121 0.0
H426 H 0.77551 0.58384 0.0881 0.0
H427 H 0.70505 0.55103 0.07409 0.0
H428 H 0.81629 0.80158 0.1436 0.0
H429 H 0.85967 0.77334 0.14029 0.0
H430 H 0.86708 0.71424 0.12704 0.0
H431 H 0.83656 0.64554 0.1082 0.0
H432 H 0.3325 0.12825 0.27198 0.0
H433 H 0.3298 0.20017 0.07687 0.0
H434 H 0.3244 0.06222 0.17974 0.0
H435 H 0.32842 0.26147 0.16936 0.0
H436 H 0.33547 0.15296 0.11399 0.0
H437 H 0.33857 0.18107 0.23459 0.0
C438 C 0.33235 0.12494 0.24396 0.0
C439 C 0.32756 0.09048 0.22912 0.0
C440 C 0.33419 0.17694 0.12609 0.0
C441 C 0.33438 0.15081 0.18611 0.0
C442 C 0.3311 0.20398 0.10488 0.0
C443 C 0.32824 0.2347 0.11991 0.0
C444 C 0.33455 0.1807 0.1626 0.0
C445 C 0.33007 0.23808 0.15647 0.0
C446 C 0.33571 0.15507 0.22259 0.0
C447 C 0.32761 0.08798 0.19251 0.0
N448 N 0.33288 0.21137 0.17647 0.0
N449 N 0.33073 0.11755 0.17236 0.0
H450 H 0.19999 0.33567 0.60377 0.0
H451 H 0.12863 0.33733 0.40836 0.0
H452 H 0.26208 0.33483 0.51159 0.0
H453 H 0.06314 0.33132 0.50042 0.0
H454 H 0.18161 0.34409 0.44589 0.0
H455 H 0.15322 0.34176 0.56643 0.0
C456 C 0.20409 0.33719 0.57579 0.0
C457 C 0.23487 0.33432 0.56091 0.0
C458 C 0.15571 0.34158 0.45782 0.0
C459 C 0.18135 0.34109 0.51795 0.0
C460 C 0.1255 0.33784 0.43636 0.0
C461 C 0.09112 0.33334 0.45112 0.0
C462 C 0.15157 0.34089 0.4943 0.0
C463 C 0.08883 0.33425 0.48771 0.0
C464 C 0.1773 0.34053 0.55444 0.0
C465 C 0.23861 0.33646 0.52437 0.0
N466 N 0.11843 0.33765 0.50794 0.0
N467 N 0.21211 0.33946 0.50423 0.0
H468 H 0.72989 0.06145 0.83518 0.0
H469 H 0.92653 0.26628 0.84223 0.0
H470 H 0.78921 0.12792 0.7435 0.0
H471 H 0.86559 0.20122 0.93396 0.0
H472 H 0.87384 0.21868 0.80613 0.0
H473 H 0.77626 0.11461 0.87157 0.0
C474 C 0.75255 0.08733 0.82257 0.0
C475 C 0.75574 0.08992 0.78601 0.0
C476 C 0.87176 0.21489 0.83414 0.0
C477 C 0.80933 0.15124 0.82802 0.0
C478 C 0.90192 0.2421 0.85491 0.0
C479 C 0.9008 0.23766 0.89135 0.0
C480 C 0.84008 0.18265 0.84971 0.0
C481 C 0.86783 0.20586 0.90606 0.0
C482 C 0.77905 0.11777 0.84352 0.0
C483 C 0.78559 0.12449 0.77147 0.0
N484 N 0.83897 0.17939 0.88517 0.0
N485 N 0.81141 0.15364 0.79252 0.0
H486 H 0.65687 0.78858 0.0769 0.0
H487 H 0.65699 0.86596 0.27026 0.0
H488 H 0.65975 0.73 0.17075 0.0
H489 H 0.65955 0.92738 0.17648 0.0
H490 H 0.65062 0.8121 0.23421 0.0
H491 H 0.65045 0.83609 0.11293 0.0
C492 C 0.65573 0.7854 0.10497 0.0
C493 C 0.65927 0.75539 0.12069 0.0
C494 C 0.65228 0.83729 0.22158 0.0
C495 C 0.65213 0.80977 0.16216 0.0
C496 C 0.6558 0.86801 0.2422 0.0
C497 C 0.65922 0.90153 0.22651 0.0
C498 C 0.65213 0.84006 0.185 0.0
C499 C 0.65747 0.90241 0.18989 0.0
C500 C 0.6522 0.81262 0.12558 0.0
C501 C 0.6576 0.75284 0.15732 0.0
N502 N 0.65432 0.87236 0.17047 0.0
N503 N 0.65442 0.77973 0.17671 0.0
H504 H 0.92726 0.66142 0.50169 0.0
H505 H 0.72638 0.66113 0.51276 0.0
H506 H 0.86171 0.65957 0.41123 0.0
H507 H 0.79025 0.65972 0.60326 0.0
H508 H 0.77274 0.65515 0.47553 0.0
H509 H 0.87498 0.65551 0.53896 0.0
C510 C 0.90175 0.65955 0.48953 0.0
C511 C 0.89919 0.66139 0.45307 0.0
C512 C 0.77653 0.65583 0.50351 0.0
C513 C 0.83888 0.65467 0.49609 0.0
C514 C 0.75003 0.65929 0.52493 0.0
C515 C 0.75452 0.66132 0.56138 0.0
C516 C 0.80812 0.65458 0.51841 0.0
C517 C 0.78559 0.65835 0.57539 0.0
C518 C 0.87181 0.6561 0.51098 0.0
C519 C 0.86511 0.65838 0.4391 0.0
N520 N 0.8114 0.6555 0.55387 0.0
N521 N 0.83646 0.65551 0.46064 0.0
H522 H 0.26641 0.93189 0.83855 0.0
H523 H 0.06572 0.73068 0.84351 0.0
H524 H 0.20431 0.8697 0.74622 0.0
H525 H 0.12759 0.79288 0.93591 0.0
H526 H 0.1192 0.77794 0.80783 0.0
H527 H 0.21927 0.87837 0.87428 0.0
C528 C 0.24299 0.90685 0.82565 0.0
C529 C 0.23922 0.90562 0.78914 0.0
C530 C 0.12131 0.78117 0.8359 0.0
C531 C 0.18476 0.84391 0.83038 0.0
C532 C 0.0907 0.75415 0.85643 0.0
C533 C 0.09184 0.75793 0.89294 0.0
C534 C 0.1535 0.81255 0.85177 0.0
C535 C 0.1253 0.78879 0.90794 0.0
C536 C 0.21604 0.87622 0.84622 0.0
C537 C 0.2084 0.87209 0.77418 0.0
N538 N 0.15463 0.81511 0.88728 0.0
N539 N 0.18217 0.84274 0.79488 0.0
H540 H 0.40355 0.98837 0.22153 0.0
H541 H 0.56759 0.97755 0.33011 0.0
H542 H 0.42551 0.01978 0.33029 0.0
H543 H 0.58274 0.00479 0.22022 0.0
H544 H 0.50842 0.98178 0.32947 0.0
H545 H 0.46355 0.9848 0.21938 0.0
C546 C 0.42106 0.99472 0.24485 0.0
C547 C 0.40958 0.00446 0.27613 0.0
C548 C 0.52467 0.98674 0.30549 0.0
C549 C 0.47737 -0.00035 0.27393 0.0
C550 C 0.55827 0.98401 0.30573 0.0
C551 C 0.58017 0.99083 0.27514 0.0
C552 C 0.51244 0.99577 0.27437 0.0
C553 C 0.56678 -0.00054 0.2444 0.0
C554 C 0.45521 0.99273 0.24355 0.0
C555 C 0.43334 0.01242 0.30557 0.0
N556 N 0.53357 0.00153 0.24474 0.0
N557 N 0.46588 0.00944 0.30383 0.0
H558 H 0.57741 0.58959 0.5553 0.0
H559 H 0.4013 0.42769 0.66479 0.0
H560 H 0.586 0.56863 0.66449 0.0
H561 H 0.41428 0.41017 0.55561 0.0
H562 H 0.4646 0.48698 0.66364 0.0
H563 H 0.51338 0.53002 0.55349 0.0
C564 C 0.56594 0.57242 0.57879 0.0
C565 C 0.58709 0.58399 0.61007 0.0
C566 C 0.45351 0.47019 0.63992 0.0
C567 C 0.51403 0.51676 0.60825 0.0
C568 C 0.41725 0.43651 0.64044 0.0
C569 C 0.40248 0.4139 0.61022 0.0
C570 C 0.47499 0.48178 0.60887 0.0
C571 C 0.4247 0.42668 0.57952 0.0
C572 C 0.52956 0.53852 0.57769 0.0
C573 C 0.57089 0.5607 0.63975 0.0
N574 N 0.4599 0.45998 0.57955 0.0
N575 N 0.53518 0.52841 0.63818 0.0
H576 H 0.9872 0.58037 0.88436 0.0
H577 H 0.97146 0.40399 0.99456 0.0
H578 H 0.01372 0.58821 0.9942 0.0
H579 H 0.00366 0.41751 0.88575 0.0
H580 H 0.97502 0.46708 0.99321 0.0
H581 H 0.98297 0.51645 0.88281 0.0
C582 C 0.99229 0.56876 0.90805 0.0
C583 C 0.00095 0.58967 0.93944 0.0
C584 C 0.98119 0.45615 0.96961 0.0
C585 C 0.99537 0.51671 0.93791 0.0
C586 C 0.97887 0.42001 0.97025 0.0
C587 C 0.98734 0.40546 0.9402 0.0
C588 C 0.99148 0.47775 0.93862 0.0
C589 C -0.00292 0.42775 0.90953 0.0
C590 C 0.98993 0.53243 0.90711 0.0
C591 C 0.00728 0.57329 0.96938 0.0
N592 N -0.00123 0.46285 0.90947 0.0
N593 N 0.004 0.53764 0.96793 0.0
H594 H 0.00042 0.58508 0.45799 0.0
H595 H 0.01506 0.42475 0.34704 0.0
H596 H 0.96974 0.56481 0.34901 0.0
H597 H 0.98547 0.40643 0.4564 0.0
H598 H 0.00954 0.48322 0.34859 0.0
H599 H 0.00438 0.52527 0.45922 0.0
C600 C 0.99429 0.56796 0.43443 0.0
C601 C 0.98468 0.57988 0.40335 0.0
C602 C 0.00433 0.46641 0.37224 0.0
C603 C 0.98995 0.51234 0.4045 0.0
C604 C 0.0078 0.43323 0.3715 0.0
C605 C 0.00073 0.41068 0.40168 0.0
C606 C 0.99436 0.47758 0.40348 0.0
C607 C 0.99103 0.42295 0.43253 0.0
C608 C -0.0035 0.53392 0.4352 0.0
C609 C 0.977 0.55662 0.37359 0.0
N610 N 0.98832 0.45579 0.43272 0.0
N611 N 0.98023 0.5242 0.37481 0.0
H612 H 0.57894 0.98729 0.79296 0.0
H613 H 0.40504 0.97894 0.68459 0.0
H614 H 0.58782 0.01701 0.68378 0.0
H615 H 0.41858 0.00827 0.79403 0.0
H616 H 0.46761 0.98145 0.68527 0.0
H617 H 0.51595 0.98504 0.79525 0.0
C618 C 0.56775 0.99347 0.76957 0.0
C619 C 0.58867 0.00242 0.73814 0.0
C620 C 0.45684 0.98726 0.70915 0.0
C621 C 0.51679 -0.00082 0.74052 0.0
C622 C 0.42098 0.98554 0.70889 0.0
C623 C 0.40654 0.99342 0.73934 0.0
C624 C 0.47827 0.99633 0.74016 0.0
C625 C 0.42874 0.00215 0.76996 0.0
C626 C 0.53197 0.99227 0.77095 0.0
C627 C 0.57287 0.01024 0.70861 0.0
N628 N 0.46355 0.00321 0.76966 0.0
N629 N 0.53772 0.00806 0.71046 0.0
H630 H 0.42476 0.40178 0.01788 0.0
H631 H 0.58431 0.57687 0.12985 0.0
H632 H 0.40466 0.41437 0.12652 0.0
H633 H 0.56722 0.58558 0.0198 0.0
H634 H 0.52437 0.51312 0.1308 0.0
H635 H 0.48437 0.46474 0.01992 0.0
C636 C 0.43306 0.41757 0.0423 0.0
C637 C 0.40962 0.40279 0.07209 0.0
C638 C 0.5338 0.52927 0.1066 0.0
C639 C 0.47788 0.47495 0.07447 0.0
C640 C 0.56791 0.5655 0.10599 0.0
C641 C 0.5807 0.5866 0.07472 0.0
C642 C 0.51303 0.51384 0.07558 0.0
C643 C 0.55835 0.57053 0.04455 0.0
C644 C 0.46694 0.45365 0.04333 0.0
C645 C 0.4218 0.42479 0.10292 0.0
N646 N 0.52584 0.53496 0.04568 0.0
N647 N 0.45527 0.45984 0.10338 0.0
H648 H 0.07551 0.74259 0.34793 0.0
H649 H 0.24674 0.91297 0.33247 0.0
H650 H 0.02348 0.81175 0.37545 0.0
H651 H 0.17836 0.96639 0.30703 0.0
H652 H 0.18815 0.85422 0.3497 0.0
H653 H 0.13439 0.80098 0.33063 0.0
C654 C 0.07711 0.77048 0.3513 0.0
C655 C 0.04551 0.77283 0.36449 0.0
C656 C 0.18545 0.87811 0.33928 0.0
C657 C 0.11316 0.84017 0.3452 0.0
C658 C 0.21897 0.91171 0.32953 0.0
C659 C 0.21688 0.94366 0.31694 0.0
C660 C 0.14931 0.8762 0.33617 0.0
C661 C 0.18064 0.94162 0.31559 0.0
C662 C 0.11079 0.80388 0.3415 0.0
C663 C 0.04798 0.80924 0.3664 0.0
N664 N 0.14791 0.90807 0.32488 0.0
N665 N 0.08162 0.84185 0.35707 0.0
H666 H 0.2055 0.18366 0.64175 0.0
H667 H 0.33433 0.08985 0.69818 0.0
H668 H 0.33003 0.24691 0.65473 0.0
H669 H 0.20944 0.02675 0.70817 0.0
H670 H 0.33195 0.14681 0.67948 0.0
H671 H 0.20454 0.12403 0.66176 0.0
C672 C 0.23259 0.18464 0.64798 0.0
C673 C 0.26806 0.2196 0.64527 0.0
C674 C 0.30494 0.12088 0.68631 0.0
C675 C 0.26718 0.15285 0.66913 0.0
C676 C 0.3064 0.08853 0.69764 0.0
C677 C 0.27219 0.0543 0.70633 0.0
C678 C 0.2688 0.11882 0.68257 0.0
C679 C 0.23651 0.0532 0.7027 0.0
C680 C 0.23204 0.15094 0.65968 0.0
C681 C 0.30229 0.22011 0.65488 0.0
N682 N 0.23565 0.08518 0.69101 0.0
N683 N 0.301 0.18728 0.66627 0.0
H684 H 0.1795 0.2066 0.03898 0.0
H685 H 0.08402 0.33431 0.98374 0.0
H686 H 0.24202 0.33118 0.02611 0.0
H687 H 0.02183 0.20947 0.97339 0.0
H688 H 0.14124 0.33237 1.00239 0.0
H689 H 0.11956 0.20526 0.01947 0.0
C690 C 0.18026 0.23362 0.03286 0.0
C691 C 0.21509 0.26921 0.03547 0.0
C692 C 0.11545 0.30528 0.99551 0.0
C693 C 0.14798 0.26791 0.01218 0.0
C694 C 0.08295 0.30649 0.98424 0.0
C695 C 0.04892 0.27216 0.97544 0.0
C696 C 0.11373 0.26927 0.99902 0.0
C697 C 0.04813 0.23662 0.97896 0.0
C698 C 0.14638 0.23285 0.02145 0.0
C699 C 0.21532 0.30335 0.02601 0.0
N700 N 0.08026 0.23601 0.99054 0.0
N701 N 0.18231 0.30185 0.01491 0.0
H702 H 0.97182 0.18237 0.36974 0.0
H703 H 0.74876 0.08702 0.31478 0.0
H704 H 0.91038 0.24516 0.35446 0.0
H705 H 0.81052 0.02383 0.30538 0.0
H706 H 0.80835 0.14443 0.33211 0.0
H707 H 0.91325 0.12228 0.35025 0.0
C708 C 0.94574 0.18319 0.363 0.0
C709 C 0.94507 0.2181 0.36501 0.0
C710 C 0.80937 0.11838 0.32569 0.0
C711 C 0.87937 0.15088 0.3418 0.0
C712 C 0.77539 0.08574 0.31516 0.0
C713 C 0.77529 0.05135 0.30701 0.0
C714 C 0.84357 0.11648 0.32917 0.0
C715 C 0.80996 0.05039 0.31043 0.0
C716 C 0.91265 0.14923 0.35162 0.0
C717 C 0.91141 0.21841 0.3548 0.0
N718 N 0.84299 0.08267 0.32133 0.0
N719 N 0.87995 0.18535 0.34378 0.0
H720 H 0.78937 0.80958 0.64103 0.0
H721 H 0.78918 0.97592 0.70738 0.0
H722 H 0.66608 0.75279 0.66089 0.0
H723 H 0.6658 0.90889 0.68833 0.0
H724 H 0.79494 0.91902 0.69113 0.0
H725 H 0.79497 0.87208 0.65768 0.0
C726 C 0.76355 0.81055 0.64853 0.0
C727 C 0.72705 0.77662 0.64847 0.0
C728 C 0.76665 0.91677 0.69042 0.0
C729 C 0.73318 0.84672 0.6692 0.0
C730 C 0.76336 0.949 0.70018 0.0
C731 C 0.72681 0.94631 0.70032 0.0
C732 C 0.73311 0.88231 0.68004 0.0
C733 C 0.69427 0.91152 0.68987 0.0
C734 C 0.76674 0.84597 0.65851 0.0
C735 C 0.6945 0.77869 0.65931 0.0
N736 N 0.69817 0.88088 0.68033 0.0
N737 N 0.69832 0.81314 0.66904 0.0
H738 H 0.74873 0.65952 0.03204 0.0
H739 H 0.97122 0.78833 0.97457 0.0
H740 H 0.80964 0.78462 0.03931 0.0
H741 H 0.90894 0.66359 0.98617 0.0
H742 H 0.91274 0.78956 0.99484 0.0
H743 H 0.80809 0.66198 0.01345 0.0
C744 C 0.77516 0.68756 0.03091 0.0
C745 C 0.77488 0.72181 0.0388 0.0
C746 C 0.9119 0.76197 0.99241 0.0
C747 C 0.84286 0.72526 0.01512 0.0
C748 C 0.94495 0.76127 0.98058 0.0
C749 C 0.94409 0.72567 0.9774 0.0
C750 C 0.87846 0.72683 1.00156 0.0
C751 C 0.91017 0.69146 0.98671 0.0
C752 C 0.80901 0.68906 0.01963 0.0
C753 C 0.80925 0.75756 0.03445 0.0
N754 N 0.87878 0.6929 0.99826 0.0
N755 N 0.84213 0.75845 0.02282 0.0
H756 H 0.3168 0.9524 0.41523 0.0
H757 H 0.35975 0.05002 0.60374 0.0
H758 H 0.36194 0.07526 0.43152 0.0
H759 H 0.2906 0.92609 0.58693 0.0
H760 H 0.36956 0.0599 0.54117 0.0
H761 H 0.31633 0.94311 0.4779 0.0
C762 C 0.32704 0.97762 0.43197 0.0
C763 C 0.3392 0.01475 0.418 0.0
C764 C 0.35243 0.03053 0.5511 0.0
C765 C 0.33854 0.004 0.49021 0.0
C766 C 0.34683 0.02472 0.58692 0.0
C767 C 0.32405 0.98705 0.60071 0.0
C768 C 0.33534 -0.00153 0.52863 0.0
C769 C 0.30827 0.95558 0.57749 0.0
C770 C 0.32659 0.97215 0.46785 0.0
C771 C 0.35229 0.04618 0.44111 0.0
N772 N 0.31411 0.96202 0.54253 0.0
N773 N 0.35141 0.04005 0.47614 0.0
H774 H 0.36144 0.28596 0.91805 0.0
H775 H 0.28477 0.36551 0.76314 0.0
H776 H 0.31089 0.35902 0.93442 0.0
H777 H 0.35603 0.31294 0.74679 0.0
H778 H 0.29467 0.3643 0.82623 0.0
H779 H 0.36066 0.29619 0.85498 0.0
C780 C 0.35063 0.30445 0.90846 0.0
C781 C 0.33606 0.32145 0.93156 0.0
C782 C 0.3084 0.35336 0.80873 0.0
C783 C 0.33457 0.33293 0.85961 0.0
C784 C 0.30279 0.35415 0.77274 0.0
C785 C 0.31939 0.33917 0.74964 0.0
C786 C 0.3305 0.3372 0.82159 0.0
C787 C 0.34244 0.32465 0.76357 0.0
C788 C 0.35008 0.31025 0.87248 0.0
C789 C 0.32225 0.3451 0.91764 0.0
N790 N 0.34701 0.32373 0.79853 0.0
N791 N 0.32154 0.34984 0.88268 0.0
H792 H 0.07393 0.36571 0.24879 0.0
H793 H 0.91861 0.28789 0.0932 0.0
H794 H 0.95003 0.31329 0.26455 0.0
H795 H 0.04241 0.36013 0.07732 0.0
H796 H 0.92932 0.29774 0.15631 0.0
H797 H 0.06328 0.3651 0.18566 0.0
C798 C 0.04464 0.35452 0.23905 0.0
C799 C 0.01289 0.33937 0.26199 0.0
C800 C 0.95407 0.3117 0.13892 0.0
C801 C 0.00033 0.33809 0.18999 0.0
C802 C 0.9479 0.30611 0.10291 0.0
C803 C 0.97959 0.32301 0.07993 0.0
C804 C 0.99222 0.33407 0.15194 0.0
C805 C 0.01703 0.34631 0.09401 0.0
C806 C 0.03849 0.35407 0.20304 0.0
C807 C 0.97545 0.3251 0.24789 0.0
N808 N 0.02231 0.35086 0.12899 0.0
N809 N 0.9702 0.3245 0.21291 0.0
H810 H 0.68537 0.04839 0.41069 0.0
H811 H 0.63071 0.95108 0.59948 0.0
H812 H 0.62904 0.92441 0.4279 0.0
H813 H 0.70797 0.074 0.58302 0.0
H814 H 0.6218 0.94174 0.53684 0.0
H815 H 0.68583 0.05853 0.47326 0.0
C816 C 0.67273 0.02315 0.4276 0.0
C817 C 0.65726 0.98537 0.41392 0.0
C818 C 0.64051 0.9708 0.54683 0.0
C819 C 0.65784 0.99708 0.486 0.0
C820 C 0.64559 0.9763 0.5827 0.0
C821 C 0.67043 0.01346 0.59662 0.0
C822 C 0.66027 0.00267 0.52442 0.0
C823 C 0.68862 0.04489 0.57347 0.0
C824 C 0.67316 0.0291 0.46342 0.0
C825 C 0.6413 0.95398 0.43725 0.0
N826 N 0.68335 0.03874 0.53843 0.0
N827 N 0.64212 0.96055 0.47219 0.0
H828 H 0.68317 0.63215 0.9372 0.0
H829 H 0.62968 0.67537 0.7482 0.0
H830 H 0.6273 0.70016 0.91972 0.0
H831 H 0.70639 0.62911 0.76489 0.0
H832 H 0.62036 0.67558 0.81081 0.0
H833 H 0.68366 0.62229 0.87465 0.0
C834 C 0.67062 0.64478 0.92023 0.0
C835 C 0.6553 0.66727 0.93384 0.0
C836 C 0.63903 0.66514 0.80087 0.0
C837 C 0.65592 0.65594 0.86178 0.0
C838 C 0.64436 0.66485 0.76502 0.0
C839 C 0.66917 0.65244 0.75117 0.0
C840 C 0.65853 0.65283 0.82335 0.0
C841 C 0.68707 0.63895 0.77438 0.0
C842 C 0.67106 0.63916 0.88443 0.0
C843 C 0.63943 0.68271 0.91044 0.0
N844 N 0.68157 0.63972 0.8094 0.0
N845 N 0.6403 0.67688 0.87552 0.0
H846 H 0.91359 0.62896 0.24921 0.0
H847 H 0.07039 0.70307 0.09455 0.0
H848 H 0.03651 0.67458 0.26544 0.0
H849 H 0.94636 0.63615 0.07762 0.0
H850 H 0.05867 0.69224 0.15751 0.0
H851 H 0.92457 0.63024 0.18603 0.0
C852 C 0.9427 0.63874 0.23957 0.0
C853 C 0.97412 0.65185 0.26267 0.0
C854 C 0.03407 0.67966 0.13991 0.0
C855 C 0.98708 0.65396 0.19063 0.0
C856 C 0.04082 0.68581 0.10399 0.0
C857 C 0.0094 0.67068 0.08075 0.0
C858 C 0.99562 0.65852 0.15261 0.0
C859 C 0.97157 0.64857 0.0945 0.0
C860 C 0.94904 0.63961 0.20353 0.0
C861 C 0.01135 0.6644 0.24867 0.0
N862 N 0.96576 0.64347 0.12942 0.0
N863 N 0.01682 0.66547 0.21369 0.0
loop_
_geom_bond_atom_site_label_1
_geom_bond_atom_site_label_2
_geom_bond_distance
_geom_bond_site_symmetry_2
_ccdc_geom_bond_type
Mn0 O5 2.095 . S
Mn0 O15 2.162 . S
Mn0 O16 2.297 1_545 S
Mn0 O24 2.385 1_545 S
Mn0 O25 2.209 1_545 S
Mn0 O26 2.094 . S
Mn1 O6 2.121 . S
Mn1 N8 2.257 . S
Mn1 N17 2.282 . S
Mn1 O25 2.215 . S
Mn1 O27 2.117 1_565 S
C2 O24 1.234 . S
C2 O25 1.283 . S
C3 O15 1.281 . S
C3 O16 1.236 1_545 S
C4 O26 1.240 . S
C4 O27 1.264 . S
O5 Mn0 2.095 . S
O5 C14 1.250 . S
O6 Mn1 2.121 . S
O6 C14 1.258 1_565 S
C7 N8 1.326 . S
C7 C11 1.460 . S
C7 H13 0.929 . S
N8 Mn1 2.257 . S
N8 C7 1.326 . S
N8 C12 1.362 . S
C9 C10 1.258 . S
C9 C12 1.431 . S
C9 C29 1.449 . S
C10 C9 1.258 . S
C10 C11 1.477 . S
C10 H30 0.931 . S
C11 C7 1.460 . S
C11 C10 1.477 . S
C11 H31 0.930 . S
C12 N8 1.362 . S
C12 C9 1.431 . S
C12 C22 1.476 . S
H13 C7 0.929 . S
C14 O5 1.250 . S
C14 O6 1.258 1_545 S
O15 Mn0 2.162 . S
O15 C3 1.281 . S
O16 Mn0 2.297 1_565 S
O16 C3 1.236 1_565 S
N17 Mn1 2.282 . S
N17 C18 1.328 . S
N17 C22 1.318 . S
C18 N17 1.328 . S
C18 C19 1.457 . S
C18 H23 0.929 . S
C19 C18 1.457 . S
C19 C20 1.291 . S
C19 H32 0.931 . S
C20 C19 1.291 . S
C20 C21 1.373 . S
C20 H33 0.929 . S
C21 C20 1.373 . S
C21 C22 1.396 . S
C21 C28 1.403 . S
C22 C12 1.476 . S
C22 N17 1.318 . S
C22 C21 1.396 . S
H23 C18 0.929 . S
O24 Mn0 2.385 1_565 S
O24 C2 1.234 . S
O25 Mn0 2.209 1_565 S
O25 Mn1 2.215 . S
O25 C2 1.283 . S
O26 Mn0 2.094 . S
O26 C4 1.240 . S
O27 Mn1 2.117 1_545 S
O27 C4 1.264 . S
C28 C21 1.403 . S
C28 C29 1.399 . S
C28 H34 0.929 . S
C29 C9 1.449 . S
C29 C28 1.399 . S
C29 H35 0.930 . S
H30 C10 0.931 . S
H31 C11 0.930 . S
H32 C19 0.931 . S
H33 C20 0.929 . S
H34 C28 0.929 . S
H35 C29 0.930 . S
Mn36 O41 2.095 . S
Mn36 O51 2.162 . S
Mn36 O52 2.297 . S
Mn36 O60 2.385 . S
Mn36 O61 2.209 . S
Mn36 O62 2.094 . S
Mn37 O42 2.121 . S
Mn37 N44 2.257 . S
Mn37 N53 2.282 . S
Mn37 O61 2.215 . S
Mn37 O63 2.117 . S
C38 O60 1.234 . S
C38 O61 1.283 . S
C39 O51 1.281 . S
C39 O52 1.236 . S
C40 O62 1.240 . S
C40 O63 1.264 . S
O41 Mn36 2.095 . S
O41 C50 1.250 . S
O42 Mn37 2.121 . S
O42 C50 1.258 . S
C43 N44 1.326 . S
C43 C47 1.460 . S
C43 H49 0.929 . S
N44 Mn37 2.257 . S
N44 C43 1.326 . S
N44 C48 1.362 . S
C45 C46 1.258 . S
C45 C48 1.431 . S
C45 C65 1.449 . S
C46 C45 1.258 . S
C46 C47 1.477 . S
C46 H66 0.931 . S
C47 C43 1.460 . S
C47 C46 1.477 . S
C47 H67 0.930 . S
C48 N44 1.362 . S
C48 C45 1.431 . S
C48 C58 1.476 . S
H49 C43 0.929 . S
C50 O41 1.250 . S
C50 O42 1.258 . S
O51 Mn36 2.162 . S
O51 C39 1.281 . S
O52 Mn36 2.297 . S
O52 C39 1.236 . S
N53 Mn37 2.282 . S
N53 C54 1.328 . S
N53 C58 1.318 . S
C54 N53 1.328 . S
C54 C55 1.457 . S
C54 H59 0.929 . S
C55 C54 1.457 . S
C55 C56 1.291 . S
C55 H68 0.931 . S
C56 C55 1.291 . S
C56 C57 1.373 . S
C56 H69 0.929 . S
C57 C56 1.373 . S
C57 C58 1.396 . S
C57 C64 1.403 . S
C58 C48 1.476 . S
C58 N53 1.318 . S
C58 C57 1.396 . S
H59 C54 0.929 . S
O60 Mn36 2.385 . S
O60 C38 1.234 . S
O61 Mn36 2.209 . S
O61 Mn37 2.215 . S
O61 C38 1.283 . S
O62 Mn36 2.094 . S
O62 C40 1.240 . S
O63 Mn37 2.117 . S
O63 C40 1.264 . S
C64 C57 1.403 . S
C64 C65 1.399 . S
C64 H70 0.929 . S
C65 C45 1.449 . S
C65 C64 1.399 . S
C65 H71 0.930 . S
H66 C46 0.931 . S
H67 C47 0.930 . S
H68 C55 0.931 . S
H69 C56 0.929 . S
H70 C64 0.929 . S
H71 C65 0.930 . S
Mn72 O77 2.095 . S
Mn72 O87 2.162 1_556 S
Mn72 O88 2.297 1_656 S
Mn72 O96 2.385 1_655 S
Mn72 O97 2.209 1_655 S
Mn72 O98 2.094 . S
Mn73 O78 2.121 . S
Mn73 N80 2.257 . S
Mn73 N89 2.282 . S
Mn73 O97 2.215 . S
Mn73 O99 2.117 1_455 S
C74 O96 1.234 . S
C74 O97 1.283 . S
C75 O87 1.281 . S
C75 O88 1.236 1_655 S
C76 O98 1.240 . S
C76 O99 1.264 . S
O77 Mn72 2.095 . S
O77 C86 1.250 . S
O78 Mn73 2.121 . S
O78 C86 1.258 1_455 S
C79 N80 1.326 . S
C79 C83 1.460 . S
C79 H85 0.929 . S
N80 Mn73 2.257 . S
N80 C79 1.326 . S
N80 C84 1.362 . S
C81 C82 1.258 . S
C81 C84 1.431 . S
C81 C101 1.449 . S
C82 C81 1.258 . S
C82 C83 1.477 . S
C82 H102 0.931 . S
C83 C79 1.460 . S
C83 C82 1.477 . S
C83 H103 0.930 . S
C84 N80 1.362 . S
C84 C81 1.431 . S
C84 C94 1.476 . S
H85 C79 0.929 . S
C86 O77 1.250 . S
C86 O78 1.258 1_655 S
O87 Mn72 2.162 1_554 S
O87 C75 1.281 . S
O88 Mn72 2.297 1_454 S
O88 C75 1.236 1_455 S
N89 Mn73 2.282 . S
N89 C90 1.328 . S
N89 C94 1.318 . S
C90 N89 1.328 . S
C90 C91 1.457 . S
C90 H95 0.929 . S
C91 C90 1.457 . S
C91 C92 1.291 . S
C91 H104 0.931 . S
C92 C91 1.291 . S
C92 C93 1.373 . S
C92 H105 0.929 . S
C93 C92 1.373 . S
C93 C94 1.396 . S
C93 C100 1.403 . S
C94 C84 1.476 . S
C94 N89 1.318 . S
C94 C93 1.396 . S
H95 C90 0.929 . S
O96 Mn72 2.385 1_455 S
O96 C74 1.234 . S
O97 Mn72 2.209 1_455 S
O97 Mn73 2.215 . S
O97 C74 1.283 . S
O98 Mn72 2.094 . S
O98 C76 1.240 . S
O99 Mn73 2.117 1_655 S
O99 C76 1.264 . S
C100 C93 1.403 . S
C100 C101 1.399 . S
C100 H106 0.929 . S
C101 C81 1.449 . S
C101 C100 1.399 . S
C101 H107 0.930 . S
H102 C82 0.931 . S
H103 C83 0.930 . S
H104 C91 0.931 . S
H105 C92 0.929 . S
H106 C100 0.929 . S
H107 C101 0.930 . S
Mn108 O113 2.095 . S
Mn108 O123 2.162 . S
Mn108 O124 2.297 1_565 S
Mn108 O132 2.385 1_565 S
Mn108 O133 2.209 1_565 S
Mn108 O134 2.094 . S
Mn109 O114 2.121 . S
Mn109 N116 2.257 . S
Mn109 N125 2.282 . S
Mn109 O133 2.215 . S
Mn109 O135 2.117 1_545 S
C110 O132 1.234 . S
C110 O133 1.283 . S
C111 O123 1.281 . S
C111 O124 1.236 1_565 S
C112 O134 1.240 . S
C112 O135 1.264 . S
O113 Mn108 2.095 . S
O113 C122 1.250 . S
O114 Mn109 2.121 . S
O114 C122 1.258 1_545 S
C115 N116 1.326 . S
C115 C119 1.460 . S
C115 H121 0.929 . S
N116 Mn109 2.257 . S
N116 C115 1.326 . S
N116 C120 1.362 . S
C117 C118 1.258 . S
C117 C120 1.431 . S
C117 C137 1.449 . S
C118 C117 1.258 . S
C118 C119 1.477 . S
C118 H138 0.931 . S
C119 C115 1.460 . S
C119 C118 1.477 . S
C119 H139 0.930 . S
C120 N116 1.362 . S
C120 C117 1.431 . S
C120 C130 1.476 . S
H121 C115 0.929 . S
C122 O113 1.250 . S
C122 O114 1.258 1_565 S
O123 Mn108 2.162 . S
O123 C111 1.281 . S
O124 Mn108 2.297 1_545 S
O124 C111 1.236 1_545 S
N125 Mn109 2.282 . S
N125 C126 1.328 . S
N125 C130 1.318 . S
C126 N125 1.328 . S
C126 C127 1.457 . S
C126 H131 0.929 . S
C127 C126 1.457 . S
C127 C128 1.291 . S
C127 H140 0.931 . S
C128 C127 1.291 . S
C128 C129 1.373 . S
C128 H141 0.929 . S
C129 C128 1.373 . S
C129 C130 1.396 . S
C129 C136 1.403 . S
C130 C120 1.476 . S
C130 N125 1.318 . S
C130 C129 1.396 . S
H131 C126 0.929 . S
O132 Mn108 2.385 1_545 S
O132 C110 1.234 . S
O133 Mn108 2.209 1_545 S
O133 Mn109 2.215 . S
O133 C110 1.283 . S
O134 Mn108 2.094 . S
O134 C112 1.240 . S
O135 Mn109 2.117 1_565 S
O135 C112 1.264 . S
C136 C129 1.403 . S
C136 C137 1.399 . S
C136 H142 0.929 . S
C137 C117 1.449 . S
C137 C136 1.399 . S
C137 H143 0.930 . S
H138 C118 0.931 . S
H139 C119 0.930 . S
H140 C127 0.931 . S
H141 C128 0.929 . S
H142 C136 0.929 . S
H143 C137 0.930 . S
Mn144 O149 2.095 . S
Mn144 O159 2.162 . S
Mn144 O160 2.297 . S
Mn144 O168 2.385 . S
Mn144 O169 2.209 . S
Mn144 O170 2.094 . S
Mn145 O150 2.121 . S
Mn145 N152 2.257 . S
Mn145 N161 2.282 . S
Mn145 O169 2.215 . S
Mn145 O171 2.117 . S
C146 O168 1.234 . S
C146 O169 1.283 . S
C147 O159 1.281 . S
C147 O160 1.236 . S
C148 O170 1.240 . S
C148 O171 1.264 . S
O149 Mn144 2.095 . S
O149 C158 1.250 . S
O150 Mn145 2.121 . S
O150 C158 1.258 . S
C151 N152 1.326 . S
C151 C155 1.460 . S
C151 H157 0.929 . S
N152 Mn145 2.257 . S
N152 C151 1.326 . S
N152 C156 1.362 . S
C153 C154 1.258 . S
C153 C156 1.431 . S
C153 C173 1.449 . S
C154 C153 1.258 . S
C154 C155 1.477 . S
C154 H174 0.931 . S
C155 C151 1.460 . S
C155 C154 1.477 . S
C155 H175 0.930 . S
C156 N152 1.362 . S
C156 C153 1.431 . S
C156 C166 1.476 . S
H157 C151 0.929 . S
C158 O149 1.250 . S
C158 O150 1.258 . S
O159 Mn144 2.162 . S
O159 C147 1.281 . S
O160 Mn144 2.297 . S
O160 C147 1.236 . S
N161 Mn145 2.282 . S
N161 C162 1.328 . S
N161 C166 1.318 . S
C162 N161 1.328 . S
C162 C163 1.457 . S
C162 H167 0.929 . S
C163 C162 1.457 . S
C163 C164 1.291 . S
C163 H176 0.931 . S
C164 C163 1.291 . S
C164 C165 1.373 . S
C164 H177 0.929 . S
C165 C164 1.373 . S
C165 C166 1.396 . S
C165 C172 1.403 . S
C166 C156 1.476 . S
C166 N161 1.318 . S
C166 C165 1.396 . S
H167 C162 0.929 . S
O168 Mn144 2.385 . S
O168 C146 1.234 . S
O169 Mn144 2.209 . S
O169 Mn145 2.215 . S
O169 C146 1.283 . S
O170 Mn144 2.094 . S
O170 C148 1.240 . S
O171 Mn145 2.117 . S
O171 C148 1.264 . S
C172 C165 1.403 . S
C172 C173 1.399 . S
C172 H178 0.929 . S
C173 C153 1.449 . S
C173 C172 1.399 . S
C173 H179 0.930 . S
H174 C154 0.931 . S
H175 C155 0.930 . S
H176 C163 0.931 . S
H177 C164 0.929 . S
H178 C172 0.929 . S
H179 C173 0.930 . S
Mn180 O185 2.095 . S
Mn180 O195 2.162 1_556 S
Mn180 O196 2.297 1_456 S
Mn180 O204 2.385 1_455 S
Mn180 O205 2.209 1_455 S
Mn180 O206 2.094 . S
Mn181 O186 2.121 . S
Mn181 N188 2.257 . S
Mn181 N197 2.282 . S
Mn181 O205 2.215 . S
Mn181 O207 2.117 1_655 S
C182 O204 1.234 . S
C182 O205 1.283 . S
C183 O195 1.281 . S
C183 O196 1.236 1_455 S
C184 O206 1.240 . S
C184 O207 1.264 . S
O185 Mn180 2.095 . S
O185 C194 1.250 . S
O186 Mn181 2.121 . S
O186 C194 1.258 1_655 S
C187 N188 1.326 . S
C187 C191 1.460 . S
C187 H193 0.929 . S
N188 Mn181 2.257 . S
N188 C187 1.326 . S
N188 C192 1.362 . S
C189 C190 1.258 . S
C189 C192 1.431 . S
C189 C209 1.449 . S
C190 C189 1.258 . S
C190 C191 1.477 . S
C190 H210 0.931 . S
C191 C187 1.460 . S
C191 C190 1.477 . S
C191 H211 0.930 . S
C192 N188 1.362 . S
C192 C189 1.431 . S
C192 C202 1.476 . S
H193 C187 0.929 . S
C194 O185 1.250 . S
C194 O186 1.258 1_455 S
O195 Mn180 2.162 1_554 S
O195 C183 1.281 . S
O196 Mn180 2.297 1_654 S
O196 C183 1.236 1_655 S
N197 Mn181 2.282 . S
N197 C198 1.328 . S
N197 C202 1.318 . S
C198 N197 1.328 . S
C198 C199 1.457 . S
C198 H203 0.929 . S
C199 C198 1.457 . S
C199 C200 1.291 . S
C199 H212 0.931 . S
C200 C199 1.291 . S
C200 C201 1.373 . S
C200 H213 0.929 . S
C201 C200 1.373 . S
C201 C202 1.396 . S
C201 C208 1.403 . S
C202 C192 1.476 . S
C202 N197 1.318 . S
C202 C201 1.396 . S
H203 C198 0.929 . S
O204 Mn180 2.385 1_655 S
O204 C182 1.234 . S
O205 Mn180 2.209 1_655 S
O205 Mn181 2.215 . S
O205 C182 1.283 . S
O206 Mn180 2.094 . S
O206 C184 1.240 . S
O207 Mn181 2.117 1_455 S
O207 C184 1.264 . S
C208 C201 1.403 . S
C208 C209 1.399 . S
C208 H214 0.929 . S
C209 C189 1.449 . S
C209 C208 1.399 . S
C209 H215 0.930 . S
H210 C190 0.931 . S
H211 C191 0.930 . S
H212 C199 0.931 . S
H213 C200 0.929 . S
H214 C208 0.929 . S
H215 C209 0.930 . S
Mn216 O221 2.095 . S
Mn216 O231 2.162 . S
Mn216 O232 2.297 1_655 S
Mn216 O240 2.385 1_655 S
Mn216 O241 2.209 1_655 S
Mn216 O242 2.094 . S
Mn217 O222 2.121 . S
Mn217 N224 2.257 . S
Mn217 N233 2.282 . S
Mn217 O241 2.215 . S
Mn217 O243 2.117 1_455 S
C218 O240 1.234 . S
C218 O241 1.283 . S
C219 O231 1.281 . S
C219 O232 1.236 1_655 S
C220 O242 1.240 . S
C220 O243 1.264 . S
O221 Mn216 2.095 . S
O221 C230 1.250 . S
O222 Mn217 2.121 . S
O222 C230 1.258 1_455 S
C223 N224 1.326 . S
C223 C227 1.460 . S
C223 H229 0.929 . S
N224 Mn217 2.257 . S
N224 C223 1.326 . S
N224 C228 1.362 . S
C225 C226 1.258 . S
C225 C228 1.431 . S
C225 C245 1.449 . S
C226 C225 1.258 . S
C226 C227 1.477 . S
C226 H246 0.931 . S
C227 C223 1.460 . S
C227 C226 1.477 . S
C227 H247 0.930 . S
C228 N224 1.362 . S
C228 C225 1.431 . S
C228 C238 1.476 . S
H229 C223 0.929 . S
C230 O221 1.250 . S
C230 O222 1.258 1_655 S
O231 Mn216 2.162 . S
O231 C219 1.281 . S
O232 Mn216 2.297 1_455 S
O232 C219 1.236 1_455 S
N233 Mn217 2.282 . S
N233 C234 1.328 . S
N233 C238 1.318 . S
C234 N233 1.328 . S
C234 C235 1.457 . S
C234 H239 0.929 . S
C235 C234 1.457 . S
C235 C236 1.291 . S
C235 H248 0.931 . S
C236 C235 1.291 . S
C236 C237 1.373 . S
C236 H249 0.929 . S
C237 C236 1.373 . S
C237 C238 1.396 . S
C237 C244 1.403 . S
C238 C228 1.476 . S
C238 N233 1.318 . S
C238 C237 1.396 . S
H239 C234 0.929 . S
O240 Mn216 2.385 1_455 S
O240 C218 1.234 . S
O241 Mn216 2.209 1_455 S
O241 Mn217 2.215 . S
O241 C218 1.283 . S
O242 Mn216 2.094 . S
O242 C220 1.240 . S
O243 Mn217 2.117 1_655 S
O243 C220 1.264 . S
C244 C237 1.403 . S
C244 C245 1.399 . S
C244 H250 0.929 . S
C245 C225 1.449 . S
C245 C244 1.399 . S
C245 H251 0.930 . S
H246 C226 0.931 . S
H247 C227 0.930 . S
H248 C235 0.931 . S
H249 C236 0.929 . S
H250 C244 0.929 . S
H251 C245 0.930 . S
Mn252 O257 2.095 . S
Mn252 O267 2.162 . S
Mn252 O268 2.297 1_565 S
Mn252 O276 2.385 1_565 S
Mn252 O277 2.209 1_565 S
Mn252 O278 2.094 . S
Mn253 O258 2.121 . S
Mn253 N260 2.257 . S
Mn253 N269 2.282 . S
Mn253 O277 2.215 . S
Mn253 O279 2.117 1_545 S
C254 O276 1.234 . S
C254 O277 1.283 . S
C255 O267 1.281 . S
C255 O268 1.236 1_565 S
C256 O278 1.240 . S
C256 O279 1.264 . S
O257 Mn252 2.095 . S
O257 C266 1.250 . S
O258 Mn253 2.121 . S
O258 C266 1.258 1_545 S
C259 N260 1.326 . S
C259 C263 1.460 . S
C259 H265 0.929 . S
N260 Mn253 2.257 . S
N260 C259 1.326 . S
N260 C264 1.362 . S
C261 C262 1.258 . S
C261 C264 1.431 . S
C261 C281 1.449 . S
C262 C261 1.258 . S
C262 C263 1.477 . S
C262 H282 0.931 . S
C263 C259 1.460 . S
C263 C262 1.477 . S
C263 H283 0.930 . S
C264 N260 1.362 . S
C264 C261 1.431 . S
C264 C274 1.476 . S
H265 C259 0.929 . S
C266 O257 1.250 . S
C266 O258 1.258 1_565 S
O267 Mn252 2.162 . S
O267 C255 1.281 . S
O268 Mn252 2.297 1_545 S
O268 C255 1.236 1_545 S
N269 Mn253 2.282 . S
N269 C270 1.328 . S
N269 C274 1.318 . S
C270 N269 1.328 . S
C270 C271 1.457 . S
C270 H275 0.929 . S
C271 C270 1.457 . S
C271 C272 1.291 . S
C271 H284 0.931 . S
C272 C271 1.291 . S
C272 C273 1.373 . S
C272 H285 0.929 . S
C273 C272 1.373 . S
C273 C274 1.396 . S
C273 C280 1.403 . S
C274 C264 1.476 . S
C274 N269 1.318 . S
C274 C273 1.396 . S
H275 C270 0.929 . S
O276 Mn252 2.385 1_545 S
O276 C254 1.234 . S
O277 Mn252 2.209 1_545 S
O277 Mn253 2.215 . S
O277 C254 1.283 . S
O278 Mn252 2.094 . S
O278 C256 1.240 . S
O279 Mn253 2.117 1_565 S
O279 C256 1.264 . S
C280 C273 1.403 . S
C280 C281 1.399 . S
C280 H286 0.929 . S
C281 C261 1.449 . S
C281 C280 1.399 . S
C281 H287 0.930 . S
H282 C262 0.931 . S
H283 C263 0.930 . S
H284 C271 0.931 . S
H285 C272 0.929 . S
H286 C280 0.929 . S
H287 C281 0.930 . S
Mn288 O293 2.095 . S
Mn288 O303 2.162 1_554 S
Mn288 O304 2.297 1_554 S
Mn288 O312 2.385 . S
Mn288 O313 2.209 . S
Mn288 O314 2.094 . S
Mn289 O294 2.121 . S
Mn289 N296 2.257 . S
Mn289 N305 2.282 . S
Mn289 O313 2.215 . S
Mn289 O315 2.117 . S
C290 O312 1.234 . S
C290 O313 1.283 . S
C291 O303 1.281 . S
C291 O304 1.236 . S
C292 O314 1.240 . S
C292 O315 1.264 . S
O293 Mn288 2.095 . S
O293 C302 1.250 . S
O294 Mn289 2.121 . S
O294 C302 1.258 . S
C295 N296 1.326 . S
C295 C299 1.460 . S
C295 H301 0.929 . S
N296 Mn289 2.257 . S
N296 C295 1.326 . S
N296 C300 1.362 . S
C297 C298 1.258 . S
C297 C300 1.431 . S
C297 C317 1.449 . S
C298 C297 1.258 . S
C298 C299 1.477 . S
C298 H318 0.931 . S
C299 C295 1.460 . S
C299 C298 1.477 . S
C299 H319 0.930 . S
C300 N296 1.362 . S
C300 C297 1.431 . S
C300 C310 1.476 . S
H301 C295 0.929 . S
C302 O293 1.250 . S
C302 O294 1.258 . S
O303 Mn288 2.162 1_556 S
O303 C291 1.281 . S
O304 Mn288 2.297 1_556 S
O304 C291 1.236 . S
N305 Mn289 2.282 . S
N305 C306 1.328 . S
N305 C310 1.318 . S
C306 N305 1.328 . S
C306 C307 1.457 . S
C306 H311 0.929 . S
C307 C306 1.457 . S
C307 C308 1.291 . S
C307 H320 0.931 . S
C308 C307 1.291 . S
C308 C309 1.373 . S
C308 H321 0.929 . S
C309 C308 1.373 . S
C309 C310 1.396 . S
C309 C316 1.403 . S
C310 C300 1.476 . S
C310 N305 1.318 . S
C310 C309 1.396 . S
H311 C306 0.929 . S
O312 Mn288 2.385 . S
O312 C290 1.234 . S
O313 Mn288 2.209 . S
O313 Mn289 2.215 . S
O313 C290 1.283 . S
O314 Mn288 2.094 . S
O314 C292 1.240 . S
O315 Mn289 2.117 . S
O315 C292 1.264 . S
C316 C309 1.403 . S
C316 C317 1.399 . S
C316 H322 0.929 . S
C317 C297 1.449 . S
C317 C316 1.399 . S
C317 H323 0.930 . S
H318 C298 0.931 . S
H319 C299 0.930 . S
H320 C307 0.931 . S
H321 C308 0.929 . S
H322 C316 0.929 . S
H323 C317 0.930 . S
Mn324 O329 2.095 . S
Mn324 O339 2.162 . S
Mn324 O340 2.297 1_455 S
Mn324 O348 2.385 1_455 S
Mn324 O349 2.209 1_455 S
Mn324 O350 2.094 . S
Mn325 O330 2.121 . S
Mn325 N332 2.257 . S
Mn325 N341 2.282 . S
Mn325 O349 2.215 . S
Mn325 O351 2.117 1_655 S
C326 O348 1.234 . S
C326 O349 1.283 . S
C327 O339 1.281 . S
C327 O340 1.236 1_455 S
C328 O350 1.240 . S
C328 O351 1.264 . S
O329 Mn324 2.095 . S
O329 C338 1.250 . S
O330 Mn325 2.121 . S
O330 C338 1.258 1_655 S
C331 N332 1.326 . S
C331 C335 1.460 . S
C331 H337 0.929 . S
N332 Mn325 2.257 . S
N332 C331 1.326 . S
N332 C336 1.362 . S
C333 C334 1.258 . S
C333 C336 1.431 . S
C333 C353 1.449 . S
C334 C333 1.258 . S
C334 C335 1.477 . S
C334 H354 0.931 . S
C335 C331 1.460 . S
C335 C334 1.477 . S
C335 H355 0.930 . S
C336 N332 1.362 . S
C336 C333 1.431 . S
C336 C346 1.476 . S
H337 C331 0.929 . S
C338 O329 1.250 . S
C338 O330 1.258 1_455 S
O339 Mn324 2.162 . S
O339 C327 1.281 . S
O340 Mn324 2.297 1_655 S
O340 C327 1.236 1_655 S
N341 Mn325 2.282 . S
N341 C342 1.328 . S
N341 C346 1.318 . S
C342 N341 1.328 . S
C342 C343 1.457 . S
C342 H347 0.929 . S
C343 C342 1.457 . S
C343 C344 1.291 . S
C343 H356 0.931 . S
C344 C343 1.291 . S
C344 C345 1.373 . S
C344 H357 0.929 . S
C345 C344 1.373 . S
C345 C346 1.396 . S
C345 C352 1.403 . S
C346 C336 1.476 . S
C346 N341 1.318 . S
C346 C345 1.396 . S
H347 C342 0.929 . S
O348 Mn324 2.385 1_655 S
O348 C326 1.234 . S
O349 Mn324 2.209 1_655 S
O349 Mn325 2.215 . S
O349 C326 1.283 . S
O350 Mn324 2.094 . S
O350 C328 1.240 . S
O351 Mn325 2.117 1_455 S
O351 C328 1.264 . S
C352 C345 1.403 . S
C352 C353 1.399 . S
C352 H358 0.929 . S
C353 C333 1.449 . S
C353 C352 1.399 . S
C353 H359 0.930 . S
H354 C334 0.931 . S
H355 C335 0.930 . S
H356 C343 0.931 . S
H357 C344 0.929 . S
H358 C352 0.929 . S
H359 C353 0.930 . S
Mn360 O365 2.095 . S
Mn360 O375 2.162 . S
Mn360 O376 2.297 1_545 S
Mn360 O384 2.385 1_545 S
Mn360 O385 2.209 1_545 S
Mn360 O386 2.094 . S
Mn361 O366 2.121 . S
Mn361 N368 2.257 . S
Mn361 N377 2.282 . S
Mn361 O385 2.215 . S
Mn361 O387 2.117 1_565 S
C362 O384 1.234 . S
C362 O385 1.283 . S
C363 O375 1.281 . S
C363 O376 1.236 1_545 S
C364 O386 1.240 . S
C364 O387 1.264 . S
O365 Mn360 2.095 . S
O365 C374 1.250 . S
O366 Mn361 2.121 . S
O366 C374 1.258 1_565 S
C367 N368 1.326 . S
C367 C371 1.460 . S
C367 H373 0.929 . S
N368 Mn361 2.257 . S
N368 C367 1.326 . S
N368 C372 1.362 . S
C369 C370 1.258 . S
C369 C372 1.431 . S
C369 C389 1.449 . S
C370 C369 1.258 . S
C370 C371 1.477 . S
C370 H390 0.931 . S
C371 C367 1.460 . S
C371 C370 1.477 . S
C371 H391 0.930 . S
C372 N368 1.362 . S
C372 C369 1.431 . S
C372 C382 1.476 . S
H373 C367 0.929 . S
C374 O365 1.250 . S
C374 O366 1.258 1_545 S
O375 Mn360 2.162 . S
O375 C363 1.281 . S
O376 Mn360 2.297 1_565 S
O376 C363 1.236 1_565 S
N377 Mn361 2.282 . S
N377 C378 1.328 . S
N377 C382 1.318 . S
C378 N377 1.328 . S
C378 C379 1.457 . S
C378 H383 0.929 . S
C379 C378 1.457 . S
C379 C380 1.291 . S
C379 H392 0.931 . S
C380 C379 1.291 . S
C380 C381 1.373 . S
C380 H393 0.929 . S
C381 C380 1.373 . S
C381 C382 1.396 . S
C381 C388 1.403 . S
C382 C372 1.476 . S
C382 N377 1.318 . S
C382 C381 1.396 . S
H383 C378 0.929 . S
O384 Mn360 2.385 1_565 S
O384 C362 1.234 . S
O385 Mn360 2.209 1_565 S
O385 Mn361 2.215 . S
O385 C362 1.283 . S
O386 Mn360 2.094 . S
O386 C364 1.240 . S
O387 Mn361 2.117 1_545 S
O387 C364 1.264 . S
C388 C381 1.403 . S
C388 C389 1.399 . S
C388 H394 0.929 . S
C389 C369 1.449 . S
C389 C388 1.399 . S
C389 H395 0.930 . S
H390 C370 0.931 . S
H391 C371 0.930 . S
H392 C379 0.931 . S
H393 C380 0.929 . S
H394 C388 0.929 . S
H395 C389 0.930 . S
Mn396 O401 2.095 . S
Mn396 O411 2.162 1_554 S
Mn396 O412 2.297 1_554 S
Mn396 O420 2.385 . S
Mn396 O421 2.209 . S
Mn396 O422 2.094 . S
Mn397 O402 2.121 . S
Mn397 N404 2.257 . S
Mn397 N413 2.282 . S
Mn397 O421 2.215 . S
Mn397 O423 2.117 . S
C398 O420 1.234 . S
C398 O421 1.283 . S
C399 O411 1.281 . S
C399 O412 1.236 . S
C400 O422 1.240 . S
C400 O423 1.264 . S
O401 Mn396 2.095 . S
O401 C410 1.250 . S
O402 Mn397 2.121 . S
O402 C410 1.258 . S
C403 N404 1.326 . S
C403 C407 1.460 . S
C403 H409 0.929 . S
N404 Mn397 2.257 . S
N404 C403 1.326 . S
N404 C408 1.362 . S
C405 C406 1.258 . S
C405 C408 1.431 . S
C405 C425 1.449 . S
C406 C405 1.258 . S
C406 C407 1.477 . S
C406 H426 0.931 . S
C407 C403 1.460 . S
C407 C406 1.477 . S
C407 H427 0.930 . S
C408 N404 1.362 . S
C408 C405 1.431 . S
C408 C418 1.476 . S
H409 C403 0.929 . S
C410 O401 1.250 . S
C410 O402 1.258 . S
O411 Mn396 2.162 1_556 S
O411 C399 1.281 . S
O412 Mn396 2.297 1_556 S
O412 C399 1.236 . S
N413 Mn397 2.282 . S
N413 C414 1.328 . S
N413 C418 1.318 . S
C414 N413 1.328 . S
C414 C415 1.457 . S
C414 H419 0.929 . S
C415 C414 1.457 . S
C415 C416 1.291 . S
C415 H428 0.931 . S
C416 C415 1.291 . S
C416 C417 1.373 . S
C416 H429 0.929 . S
C417 C416 1.373 . S
C417 C418 1.396 . S
C417 C424 1.403 . S
C418 C408 1.476 . S
C418 N413 1.318 . S
C418 C417 1.396 . S
H419 C414 0.929 . S
O420 Mn396 2.385 . S
O420 C398 1.234 . S
O421 Mn396 2.209 . S
O421 Mn397 2.215 . S
O421 C398 1.283 . S
O422 Mn396 2.094 . S
O422 C400 1.240 . S
O423 Mn397 2.117 . S
O423 C400 1.264 . S
C424 C417 1.403 . S
C424 C425 1.399 . S
C424 H430 0.929 . S
C425 C405 1.449 . S
C425 C424 1.399 . S
C425 H431 0.930 . S
H426 C406 0.931 . S
H427 C407 0.930 . S
H428 C415 0.931 . S
H429 C416 0.929 . S
H430 C424 0.929 . S
H431 C425 0.930 . S
H432 C438 0.930 . S
H433 C442 0.930 . S
H434 C447 0.929 . S
H435 C445 0.929 . S
H436 C440 0.929 . S
H437 C446 0.929 . S
C438 H432 0.930 . S
C438 C439 1.367 . S
C438 C446 1.378 . S
C439 C438 1.367 . S
C439 C447 1.433 . S
C440 H436 0.929 . S
C440 C442 1.378 . S
C440 C444 1.350 . S
C441 C444 1.463 . S
C441 C446 1.350 . S
C441 N449 1.427 . S
C442 H433 0.930 . S
C442 C440 1.378 . S
C442 C443 1.367 . S
C443 C442 1.367 . S
C443 C445 1.433 . S
C444 C440 1.350 . S
C444 C441 1.463 . S
C444 N448 1.427 . S
C445 H435 0.929 . S
C445 C443 1.433 . S
C445 N448 1.384 . S
C446 H437 0.929 . S
C446 C438 1.378 . S
C446 C441 1.350 . S
C447 H434 0.929 . S
C447 C439 1.433 . S
C447 N449 1.384 . S
N448 C444 1.427 . S
N448 C445 1.384 . S
N449 C441 1.427 . S
N449 C447 1.384 . S
H450 C456 0.930 . S
H451 C460 0.930 . S
H452 C465 0.929 . S
H453 C463 0.929 . S
H454 C458 0.929 . S
H455 C464 0.929 . S
C456 H450 0.930 . S
C456 C457 1.367 . S
C456 C464 1.378 . S
C457 C456 1.367 . S
C457 C465 1.433 . S
C458 H454 0.929 . S
C458 C460 1.378 . S
C458 C462 1.350 . S
C459 C462 1.463 . S
C459 C464 1.350 . S
C459 N467 1.427 . S
C460 H451 0.930 . S
C460 C458 1.378 . S
C460 C461 1.367 . S
C461 C460 1.367 . S
C461 C463 1.433 . S
C462 C458 1.350 . S
C462 C459 1.463 . S
C462 N466 1.427 . S
C463 H453 0.929 . S
C463 C461 1.433 . S
C463 N466 1.384 . S
C464 H455 0.929 . S
C464 C456 1.378 . S
C464 C459 1.350 . S
C465 H452 0.929 . S
C465 C457 1.433 . S
C465 N467 1.384 . S
N466 C462 1.427 . S
N466 C463 1.384 . S
N467 C459 1.427 . S
N467 C465 1.384 . S
H468 C474 0.930 . S
H469 C478 0.930 . S
H470 C483 0.929 . S
H471 C481 0.929 . S
H472 C476 0.929 . S
H473 C482 0.929 . S
C474 H468 0.930 . S
C474 C475 1.367 . S
C474 C482 1.378 . S
C475 C474 1.367 . S
C475 C483 1.433 . S
C476 H472 0.929 . S
C476 C478 1.378 . S
C476 C480 1.350 . S
C477 C480 1.463 . S
C477 C482 1.350 . S
C477 N485 1.427 . S
C478 H469 0.930 . S
C478 C476 1.378 . S
C478 C479 1.367 . S
C479 C478 1.367 . S
C479 C481 1.433 . S
C480 C476 1.350 . S
C480 C477 1.463 . S
C480 N484 1.427 . S
C481 H471 0.929 . S
C481 C479 1.433 . S
C481 N484 1.384 . S
C482 H473 0.929 . S
C482 C474 1.378 . S
C482 C477 1.350 . S
C483 H470 0.929 . S
C483 C475 1.433 . S
C483 N485 1.384 . S
N484 C480 1.427 . S
N484 C481 1.384 . S
N485 C477 1.427 . S
N485 C483 1.384 . S
H486 C492 0.930 . S
H487 C496 0.930 . S
H488 C501 0.929 . S
H489 C499 0.929 . S
H490 C494 0.929 . S
H491 C500 0.929 . S
C492 H486 0.930 . S
C492 C493 1.367 . S
C492 C500 1.378 . S
C493 C492 1.367 . S
C493 C501 1.433 . S
C494 H490 0.929 . S
C494 C496 1.378 . S
C494 C498 1.350 . S
C495 C498 1.463 . S
C495 C500 1.350 . S
C495 N503 1.427 . S
C496 H487 0.930 . S
C496 C494 1.378 . S
C496 C497 1.367 . S
C497 C496 1.367 . S
C497 C499 1.433 . S
C498 C494 1.350 . S
C498 C495 1.463 . S
C498 N502 1.427 . S
C499 H489 0.929 . S
C499 C497 1.433 . S
C499 N502 1.384 . S
C500 H491 0.929 . S
C500 C492 1.378 . S
C500 C495 1.350 . S
C501 H488 0.929 . S
C501 C493 1.433 . S
C501 N503 1.384 . S
N502 C498 1.427 . S
N502 C499 1.384 . S
N503 C495 1.427 . S
N503 C501 1.384 . S
H504 C510 0.930 . S
H505 C514 0.930 . S
H506 C519 0.929 . S
H507 C517 0.929 . S
H508 C512 0.929 . S
H509 C518 0.929 . S
C510 H504 0.930 . S
C510 C511 1.367 . S
C510 C518 1.378 . S
C511 C510 1.367 . S
C511 C519 1.433 . S
C512 H508 0.929 . S
C512 C514 1.378 . S
C512 C516 1.350 . S
C513 C516 1.463 . S
C513 C518 1.350 . S
C513 N521 1.427 . S
C514 H505 0.930 . S
C514 C512 1.378 . S
C514 C515 1.367 . S
C515 C514 1.367 . S
C515 C517 1.433 . S
C516 C512 1.350 . S
C516 C513 1.463 . S
C516 N520 1.427 . S
C517 H507 0.929 . S
C517 C515 1.433 . S
C517 N520 1.384 . S
C518 H509 0.929 . S
C518 C510 1.378 . S
C518 C513 1.350 . S
C519 H506 0.929 . S
C519 C511 1.433 . S
C519 N521 1.384 . S
N520 C516 1.427 . S
N520 C517 1.384 . S
N521 C513 1.427 . S
N521 C519 1.384 . S
H522 C528 0.930 . S
H523 C532 0.930 . S
H524 C537 0.929 . S
H525 C535 0.929 . S
H526 C530 0.929 . S
H527 C536 0.929 . S
C528 H522 0.930 . S
C528 C529 1.367 . S
C528 C536 1.378 . S
C529 C528 1.367 . S
C529 C537 1.433 . S
C530 H526 0.929 . S
C530 C532 1.378 . S
C530 C534 1.350 . S
C531 C534 1.463 . S
C531 C536 1.350 . S
C531 N539 1.427 . S
C532 H523 0.930 . S
C532 C530 1.378 . S
C532 C533 1.367 . S
C533 C532 1.367 . S
C533 C535 1.433 . S
C534 C530 1.350 . S
C534 C531 1.463 . S
C534 N538 1.427 . S
C535 H525 0.929 . S
C535 C533 1.433 . S
C535 N538 1.384 . S
C536 H527 0.929 . S
C536 C528 1.378 . S
C536 C531 1.350 . S
C537 H524 0.929 . S
C537 C529 1.433 . S
C537 N539 1.384 . S
N538 C534 1.427 . S
N538 C535 1.384 . S
N539 C531 1.427 . S
N539 C537 1.384 . S
H540 C546 0.930 . S
H541 C550 0.930 . S
H542 C555 0.929 . S
H543 C553 0.929 . S
H544 C548 0.929 . S
H545 C554 0.929 . S
C546 H540 0.930 . S
C546 C547 1.367 . S
C546 C554 1.378 . S
C547 C546 1.367 . S
C547 C555 1.433 1_545 S
C548 H544 0.929 . S
C548 C550 1.378 . S
C548 C552 1.350 . S
C549 C552 1.463 1_545 S
C549 C554 1.350 . S
C549 N557 1.427 1_545 S
C550 H541 0.930 . S
C550 C548 1.378 . S
C550 C551 1.367 . S
C551 C550 1.367 . S
C551 C553 1.433 1_565 S
C552 C548 1.350 . S
C552 C549 1.463 1_565 S
C552 N556 1.427 1_565 S
C553 H543 0.929 . S
C553 C551 1.433 1_545 S
C553 N556 1.384 . S
C554 H545 0.929 . S
C554 C546 1.378 . S
C554 C549 1.350 . S
C555 H542 0.929 . S
C555 C547 1.433 1_565 S
C555 N557 1.384 . S
N556 C552 1.427 1_545 S
N556 C553 1.384 . S
N557 C549 1.427 1_565 S
N557 C555 1.384 . S
H558 C564 0.930 . S
H559 C568 0.930 . S
H560 C573 0.929 . S
H561 C571 0.929 . S
H562 C566 0.929 . S
H563 C572 0.929 . S
C564 H558 0.930 . S
C564 C565 1.367 . S
C564 C572 1.378 . S
C565 C564 1.367 . S
C565 C573 1.433 . S
C566 H562 0.929 . S
C566 C568 1.378 . S
C566 C570 1.350 . S
C567 C570 1.463 . S
C567 C572 1.350 . S
C567 N575 1.427 . S
C568 H559 0.930 . S
C568 C566 1.378 . S
C568 C569 1.367 . S
C569 C568 1.367 . S
C569 C571 1.433 . S
C570 C566 1.350 . S
C570 C567 1.463 . S
C570 N574 1.427 . S
C571 H561 0.929 . S
C571 C569 1.433 . S
C571 N574 1.384 . S
C572 H563 0.929 . S
C572 C564 1.378 . S
C572 C567 1.350 . S
C573 H560 0.929 . S
C573 C565 1.433 . S
C573 N575 1.384 . S
N574 C570 1.427 . S
N574 C571 1.384 . S
N575 C567 1.427 . S
N575 C573 1.384 . S
H576 C582 0.930 . S
H577 C586 0.930 1_554 S
H578 C591 0.929 1_554 S
H579 C589 0.929 . S
H580 C584 0.929 1_554 S
H581 C590 0.929 . S
C582 H576 0.930 . S
C582 C583 1.367 . S
C582 C590 1.378 . S
C583 C582 1.367 . S
C583 C591 1.433 1_455 S
C584 H580 0.929 1_556 S
C584 C586 1.378 . S
C584 C588 1.350 . S
C585 C588 1.463 1_455 S
C585 C590 1.350 . S
C585 N593 1.427 1_455 S
C586 H577 0.930 1_556 S
C586 C584 1.378 . S
C586 C587 1.367 . S
C587 C586 1.367 . S
C587 C589 1.433 1_655 S
C588 C584 1.350 . S
C588 C585 1.463 1_655 S
C588 N592 1.427 1_655 S
C589 H579 0.929 . S
C589 C587 1.433 1_455 S
C589 N592 1.384 . S
C590 H581 0.929 . S
C590 C582 1.378 . S
C590 C585 1.350 . S
C591 H578 0.929 1_556 S
C591 C583 1.433 1_655 S
C591 N593 1.384 . S
N592 C588 1.427 1_455 S
N592 C589 1.384 . S
N593 C585 1.427 1_655 S
N593 C591 1.384 . S
H594 C600 0.930 . S
H595 C604 0.930 . S
H596 C609 0.929 . S
H597 C607 0.929 . S
H598 C602 0.929 . S
H599 C608 0.929 . S
C600 H594 0.930 . S
C600 C601 1.367 . S
C600 C608 1.378 . S
C601 C600 1.367 . S
C601 C609 1.433 1_655 S
C602 H598 0.929 . S
C602 C604 1.378 . S
C602 C606 1.350 . S
C603 C606 1.463 1_655 S
C603 C608 1.350 . S
C603 N611 1.427 1_655 S
C604 H595 0.930 . S
C604 C602 1.378 . S
C604 C605 1.367 . S
C605 C604 1.367 . S
C605 C607 1.433 1_455 S
C606 C602 1.350 . S
C606 C603 1.463 1_455 S
C606 N610 1.427 1_455 S
C607 H597 0.929 . S
C607 C605 1.433 1_655 S
C607 N610 1.384 . S
C608 H599 0.929 . S
C608 C600 1.378 . S
C608 C603 1.350 . S
C609 H596 0.929 . S
C609 C601 1.433 1_455 S
C609 N611 1.384 . S
N610 C606 1.427 1_655 S
N610 C607 1.384 . S
N611 C603 1.427 1_455 S
N611 C609 1.384 . S
H612 C618 0.930 . S
H613 C622 0.930 . S
H614 C627 0.929 1_565 S
H615 C625 0.929 1_545 S
H616 C620 0.929 . S
H617 C626 0.929 . S
C618 H612 0.930 . S
C618 C619 1.367 . S
C618 C626 1.378 . S
C619 C618 1.367 . S
C619 C627 1.433 . S
C620 H616 0.929 . S
C620 C622 1.378 . S
C620 C624 1.350 . S
C621 C624 1.463 1_545 S
C621 C626 1.350 . S
C621 N629 1.427 1_545 S
C622 H613 0.930 . S
C622 C620 1.378 . S
C622 C623 1.367 . S
C623 C622 1.367 . S
C623 C625 1.433 . S
C624 C620 1.350 . S
C624 C621 1.463 1_565 S
C624 N628 1.427 1_565 S
C625 H615 0.929 1_565 S
C625 C623 1.433 . S
C625 N628 1.384 1_565 S
C626 H617 0.929 . S
C626 C618 1.378 . S
C626 C621 1.350 . S
C627 H614 0.929 1_545 S
C627 C619 1.433 . S
C627 N629 1.384 1_545 S
N628 C624 1.427 1_545 S
N628 C625 1.384 1_545 S
N629 C621 1.427 1_565 S
N629 C627 1.384 1_565 S
H630 C636 0.930 1_556 S
H631 C640 0.930 . S
H632 C645 0.929 . S
H633 C643 0.929 1_556 S
H634 C638 0.929 . S
H635 C644 0.929 1_556 S
C636 H630 0.930 1_554 S
C636 C637 1.367 . S
C636 C644 1.378 . S
C637 C636 1.367 . S
C637 C645 1.433 . S
C638 H634 0.929 . S
C638 C640 1.378 . S
C638 C642 1.350 . S
C639 C642 1.463 . S
C639 C644 1.350 . S
C639 N647 1.427 . S
C640 H631 0.930 . S
C640 C638 1.378 . S
C640 C641 1.367 . S
C641 C640 1.367 . S
C641 C643 1.433 . S
C642 C638 1.350 . S
C642 C639 1.463 . S
C642 N646 1.427 . S
C643 H633 0.929 1_554 S
C643 C641 1.433 . S
C643 N646 1.384 . S
C644 H635 0.929 1_554 S
C644 C636 1.378 . S
C644 C639 1.350 . S
C645 H632 0.929 . S
C645 C637 1.433 . S
C645 N647 1.384 . S
N646 C642 1.427 . S
N646 C643 1.384 . S
N647 C639 1.427 . S
N647 C645 1.384 . S
H648 C654 0.930 . S
H649 C658 0.930 . S
H650 C663 0.929 . S
H651 C661 0.929 . S
H652 C656 0.929 . S
H653 C662 0.929 . S
C654 H648 0.930 . S
C654 C655 1.367 . S
C654 C662 1.378 . S
C655 C654 1.367 . S
C655 C663 1.433 . S
C656 H652 0.929 . S
C656 C658 1.378 . S
C656 C660 1.350 . S
C657 C660 1.463 . S
C657 C662 1.350 . S
C657 N665 1.427 . S
C658 H649 0.930 . S
C658 C656 1.378 . S
C658 C659 1.367 . S
C659 C658 1.367 . S
C659 C661 1.433 . S
C660 C656 1.350 . S
C660 C657 1.463 . S
C660 N664 1.427 . S
C661 H651 0.929 . S
C661 C659 1.433 . S
C661 N664 1.384 . S
C662 H653 0.929 . S
C662 C654 1.378 . S
C662 C657 1.350 . S
C663 H650 0.929 . S
C663 C655 1.433 . S
C663 N665 1.384 . S
N664 C660 1.427 . S
N664 C661 1.384 . S
N665 C657 1.427 . S
N665 C663 1.384 . S
H666 C672 0.930 . S
H667 C676 0.930 . S
H668 C681 0.929 . S
H669 C679 0.929 . S
H670 C674 0.929 . S
H671 C680 0.929 . S
C672 H666 0.930 . S
C672 C673 1.367 . S
C672 C680 1.378 . S
C673 C672 1.367 . S
C673 C681 1.433 . S
C674 H670 0.929 . S
C674 C676 1.378 . S
C674 C678 1.350 . S
C675 C678 1.463 . S
C675 C680 1.350 . S
C675 N683 1.427 . S
C676 H667 0.930 . S
C676 C674 1.378 . S
C676 C677 1.367 . S
C677 C676 1.367 . S
C677 C679 1.433 . S
C678 C674 1.350 . S
C678 C675 1.463 . S
C678 N682 1.427 . S
C679 H669 0.929 . S
C679 C677 1.433 . S
C679 N682 1.384 . S
C680 H671 0.929 . S
C680 C672 1.378 . S
C680 C675 1.350 . S
C681 H668 0.929 . S
C681 C673 1.433 . S
C681 N683 1.384 . S
N682 C678 1.427 . S
N682 C679 1.384 . S
N683 C675 1.427 . S
N683 C681 1.384 . S
H684 C690 0.930 . S
H685 C694 0.930 . S
H686 C699 0.930 . S
H687 C697 0.930 . S
H688 C692 0.929 . S
H689 C698 0.929 . S
C690 H684 0.930 . S
C690 C691 1.367 . S
C690 C698 1.378 . S
C691 C690 1.367 . S
C691 C699 1.433 . S
C692 H688 0.929 . S
C692 C694 1.378 . S
C692 C696 1.350 . S
C693 C696 1.463 1_554 S
C693 C698 1.350 . S
C693 N701 1.427 1_554 S
C694 H685 0.930 . S
C694 C692 1.378 . S
C694 C695 1.367 . S
C695 C694 1.367 . S
C695 C697 1.433 . S
C696 C692 1.350 . S
C696 C693 1.463 1_556 S
C696 N700 1.427 1_556 S
C697 H687 0.930 . S
C697 C695 1.433 . S
C697 N700 1.384 1_556 S
C698 H689 0.929 . S
C698 C690 1.378 . S
C698 C693 1.350 . S
C699 H686 0.930 . S
C699 C691 1.433 . S
C699 N701 1.384 1_554 S
N700 C696 1.427 1_554 S
N700 C697 1.384 1_554 S
N701 C693 1.427 1_556 S
N701 C699 1.384 1_556 S
H702 C708 0.930 . S
H703 C712 0.930 . S
H704 C717 0.929 . S
H705 C715 0.929 . S
H706 C710 0.929 . S
H707 C716 0.929 . S
C708 H702 0.930 . S
C708 C709 1.367 . S
C708 C716 1.378 . S
C709 C708 1.367 . S
C709 C717 1.433 . S
C710 H706 0.929 . S
C710 C712 1.378 . S
C710 C714 1.350 . S
C711 C714 1.463 . S
C711 C716 1.350 . S
C711 N719 1.427 . S
C712 H703 0.930 . S
C712 C710 1.378 . S
C712 C713 1.367 . S
C713 C712 1.367 . S
C713 C715 1.433 . S
C714 C710 1.350 . S
C714 C711 1.463 . S
C714 N718 1.427 . S
C715 H705 0.929 . S
C715 C713 1.433 . S
C715 N718 1.384 . S
C716 H707 0.929 . S
C716 C708 1.378 . S
C716 C711 1.350 . S
C717 H704 0.929 . S
C717 C709 1.433 . S
C717 N719 1.384 . S
N718 C714 1.427 . S
N718 C715 1.384 . S
N719 C711 1.427 . S
N719 C717 1.384 . S
H720 C726 0.930 . S
H721 C730 0.930 . S
H722 C735 0.929 . S
H723 C733 0.929 . S
H724 C728 0.929 . S
H725 C734 0.929 . S
C726 H720 0.930 . S
C726 C727 1.367 . S
C726 C734 1.378 . S
C727 C726 1.367 . S
C727 C735 1.433 . S
C728 H724 0.929 . S
C728 C730 1.378 . S
C728 C732 1.350 . S
C729 C732 1.463 . S
C729 C734 1.350 . S
C729 N737 1.427 . S
C730 H721 0.930 . S
C730 C728 1.378 . S
C730 C731 1.367 . S
C731 C730 1.367 . S
C731 C733 1.433 . S
C732 C728 1.350 . S
C732 C729 1.463 . S
C732 N736 1.427 . S
C733 H723 0.929 . S
C733 C731 1.433 . S
C733 N736 1.384 . S
C734 H725 0.929 . S
C734 C726 1.378 . S
C734 C729 1.350 . S
C735 H722 0.929 . S
C735 C727 1.433 . S
C735 N737 1.384 . S
N736 C732 1.427 . S
N736 C733 1.384 . S
N737 C729 1.427 . S
N737 C735 1.384 . S
H738 C744 0.930 . S
H739 C748 0.930 . S
H740 C753 0.929 . S
H741 C751 0.929 . S
H742 C746 0.928 1_554 S
H743 C752 0.928 1_556 S
C744 H738 0.930 . S
C744 C745 1.367 . S
C744 C752 1.378 . S
C745 C744 1.367 . S
C745 C753 1.433 . S
C746 H742 0.928 1_556 S
C746 C748 1.378 . S
C746 C750 1.350 . S
C747 C750 1.463 1_554 S
C747 C752 1.350 . S
C747 N755 1.427 . S
C748 H739 0.930 . S
C748 C746 1.378 . S
C748 C749 1.367 . S
C749 C748 1.367 . S
C749 C751 1.433 . S
C750 C746 1.350 . S
C750 C747 1.463 1_556 S
C750 N754 1.427 . S
C751 H741 0.929 . S
C751 C749 1.433 . S
C751 N754 1.384 . S
C752 H743 0.928 1_554 S
C752 C744 1.378 . S
C752 C747 1.350 . S
C753 H740 0.929 . S
C753 C745 1.433 . S
C753 N755 1.384 . S
N754 C750 1.427 . S
N754 C751 1.384 . S
N755 C747 1.427 . S
N755 C753 1.384 . S
H756 C762 0.930 . S
H757 C766 0.930 . S
H758 C771 0.929 . S
H759 C769 0.929 . S
H760 C764 0.929 . S
H761 C770 0.929 . S
C762 H756 0.930 . S
C762 C763 1.367 1_565 S
C762 C770 1.378 . S
C763 C762 1.367 1_545 S
C763 C771 1.433 . S
C764 H760 0.929 . S
C764 C766 1.378 . S
C764 C768 1.350 1_545 S
C765 C768 1.463 1_545 S
C765 C770 1.350 1_545 S
C765 N773 1.427 . S
C766 H757 0.930 . S
C766 C764 1.378 . S
C766 C767 1.367 1_545 S
C767 C766 1.367 1_565 S
C767 C769 1.433 . S
C768 C764 1.350 1_565 S
C768 C765 1.463 1_565 S
C768 N772 1.427 . S
C769 H759 0.929 . S
C769 C767 1.433 . S
C769 N772 1.384 . S
C770 H761 0.929 . S
C770 C762 1.378 . S
C770 C765 1.350 1_565 S
C771 H758 0.929 . S
C771 C763 1.433 . S
C771 N773 1.384 . S
N772 C768 1.427 . S
N772 C769 1.384 . S
N773 C765 1.427 . S
N773 C771 1.384 . S
H774 C780 0.930 . S
H775 C784 0.930 . S
H776 C789 0.929 . S
H777 C787 0.929 . S
H778 C782 0.929 . S
H779 C788 0.929 . S
C780 H774 0.930 . S
C780 C781 1.367 . S
C780 C788 1.378 . S
C781 C780 1.367 . S
C781 C789 1.433 . S
C782 H778 0.929 . S
C782 C784 1.378 . S
C782 C786 1.350 . S
C783 C786 1.463 . S
C783 C788 1.350 . S
C783 N791 1.427 . S
C784 H775 0.930 . S
C784 C782 1.378 . S
C784 C785 1.367 . S
C785 C784 1.367 . S
C785 C787 1.433 . S
C786 C782 1.350 . S
C786 C783 1.463 . S
C786 N790 1.427 . S
C787 H777 0.929 . S
C787 C785 1.433 . S
C787 N790 1.384 . S
C788 H779 0.929 . S
C788 C780 1.378 . S
C788 C783 1.350 . S
C789 H776 0.929 . S
C789 C781 1.433 . S
C789 N791 1.384 . S
N790 C786 1.427 . S
N790 C787 1.384 . S
N791 C783 1.427 . S
N791 C789 1.384 . S
H792 C798 0.930 . S
H793 C802 0.930 . S
H794 C807 0.929 . S
H795 C805 0.929 . S
H796 C800 0.929 . S
H797 C806 0.929 . S
C798 H792 0.930 . S
C798 C799 1.367 . S
C798 C806 1.378 . S
C799 C798 1.367 . S
C799 C807 1.433 . S
C800 H796 0.929 . S
C800 C802 1.378 . S
C800 C804 1.350 . S
C801 C804 1.463 1_455 S
C801 C806 1.350 . S
C801 N809 1.427 . S
C802 H793 0.930 . S
C802 C800 1.378 . S
C802 C803 1.367 . S
C803 C802 1.367 . S
C803 C805 1.433 . S
C804 C800 1.350 . S
C804 C801 1.463 1_655 S
C804 N808 1.427 . S
C805 H795 0.929 . S
C805 C803 1.433 . S
C805 N808 1.384 . S
C806 H797 0.929 . S
C806 C798 1.378 . S
C806 C801 1.350 . S
C807 H794 0.929 . S
C807 C799 1.433 . S
C807 N809 1.384 . S
N808 C804 1.427 . S
N808 C805 1.384 . S
N809 C801 1.427 . S
N809 C807 1.384 . S
H810 C816 0.930 . S
H811 C820 0.930 . S
H812 C825 0.929 . S
H813 C823 0.929 . S
H814 C818 0.929 . S
H815 C824 0.929 . S
C816 H810 0.930 . S
C816 C817 1.367 1_545 S
C816 C824 1.378 . S
C817 C816 1.367 1_565 S
C817 C825 1.433 . S
C818 H814 0.929 . S
C818 C820 1.378 . S
C818 C822 1.350 1_565 S
C819 C822 1.463 1_565 S
C819 C824 1.350 1_565 S
C819 N827 1.427 . S
C820 H811 0.930 . S
C820 C818 1.378 . S
C820 C821 1.367 1_565 S
C821 C820 1.367 1_545 S
C821 C823 1.433 . S
C822 C818 1.350 1_545 S
C822 C819 1.463 1_545 S
C822 N826 1.427 . S
C823 H813 0.929 . S
C823 C821 1.433 . S
C823 N826 1.384 . S
C824 H815 0.929 . S
C824 C816 1.378 . S
C824 C819 1.350 1_545 S
C825 H812 0.929 . S
C825 C817 1.433 . S
C825 N827 1.384 . S
N826 C822 1.427 . S
N826 C823 1.384 . S
N827 C819 1.427 . S
N827 C825 1.384 . S
H828 C834 0.930 . S
H829 C838 0.930 . S
H830 C843 0.929 . S
H831 C841 0.929 . S
H832 C836 0.929 . S
H833 C842 0.929 . S
C834 H828 0.930 . S
C834 C835 1.367 . S
C834 C842 1.378 . S
C835 C834 1.367 . S
C835 C843 1.433 . S
C836 H832 0.929 . S
C836 C838 1.378 . S
C836 C840 1.350 . S
C837 C840 1.463 . S
C837 C842 1.350 . S
C837 N845 1.427 . S
C838 H829 0.930 . S
C838 C836 1.378 . S
C838 C839 1.367 . S
C839 C838 1.367 . S
C839 C841 1.433 . S
C840 C836 1.350 . S
C840 C837 1.463 . S
C840 N844 1.427 . S
C841 H831 0.929 . S
C841 C839 1.433 . S
C841 N844 1.384 . S
C842 H833 0.929 . S
C842 C834 1.378 . S
C842 C837 1.350 . S
C843 H830 0.929 . S
C843 C835 1.433 . S
C843 N845 1.384 . S
N844 C840 1.427 . S
N844 C841 1.384 . S
N845 C837 1.427 . S
N845 C843 1.384 . S
H846 C852 0.930 . S
H847 C856 0.930 . S
H848 C861 0.916 1_455 S
H849 C859 0.916 1_655 S
H850 C854 0.929 . S
H851 C860 0.929 . S
C852 H846 0.930 . S
C852 C853 1.367 . S
C852 C860 1.378 . S
C853 C852 1.367 . S
C853 C861 1.451 . S
C854 H850 0.929 . S
C854 C856 1.378 . S
C854 C858 1.350 . S
C855 C858 1.463 1_655 S
C855 C860 1.350 . S
C855 N863 1.427 1_655 S
C856 H847 0.930 . S
C856 C854 1.378 . S
C856 C857 1.367 . S
C857 C856 1.367 . S
C857 C859 1.451 . S
C858 C854 1.350 . S
C858 C855 1.463 1_455 S
C858 N862 1.427 1_455 S
C859 H849 0.916 1_455 S
C859 C857 1.451 . S
C859 N862 1.380 1_455 S
C860 H851 0.929 . S
C860 C852 1.378 . S
C860 C855 1.350 . S
C861 H848 0.916 1_655 S
C861 C853 1.451 . S
C861 N863 1.380 1_655 S
N862 C858 1.427 1_655 S
N862 C859 1.380 1_655 S
N863 C855 1.427 1_455 S
N863 C861 1.380 1_455 S
C439 C4 1.756 . S
C443 C292 1.754 . S
C457 C40 1.755 . S
C461 C328 1.756 . S
C475 C364 1.753 . S
C479 C76 1.755 . S
C493 C400 1.755 . S
C497 C112 1.756 . S
C511 C220 1.755 . S
C515 C148 1.753 . S
C529 C256 1.753 . S
C533 C184 1.754 . S
C547 C14 1.510 . S
C551 C122 1.518 . S
C565 C158 1.513 . S
C569 C50 1.519 . S
C583 C194 1.512 . S
C587 C86 1.519 . S
C601 C230 1.513 . S
C605 C338 1.519 . S
C619 C374 1.510 . S
C623 C266 1.518 . S
C637 C302 1.515 . S
C641 C410 1.508 . S
C655 C218 0.848 . S
C659 C2 0.847 . S
C673 C38 0.856 . S
C677 C254 0.863 . S
C691 C290 0.863 . S
C695 C74 0.868 . S
C709 C326 0.866 . S
C713 C110 0.871 . S
C727 C146 0.871 . S
C731 C362 0.870 . S
C745 C398 0.861 . S
C749 C182 0.854 . S
C763 C3 1.017 . S
C767 C255 1.019 . S
C781 C291 1.027 . S
C785 C39 1.024 . S
C799 C327 1.024 . S
C803 C75 1.021 . S
C817 C111 1.017 . S
C821 C363 1.017 . S
C835 C399 1.023 . S
C839 C147 1.019 . S
C853 C219 1.026 . S
C857 C183 1.023 . S
