# Generated by pormake.
# Topology uni, (4)-cn, num edge types: 1
# Building blocks:
#     Node 0, Type 0, BuildingBlock: TATPOV_clean_sbu_0, # of connection points: 4
#     Node 1, Type 0, BuildingBlock: TATPOV_clean_sbu_0, # of connection points: 4
#     Node 2, Type 0, BuildingBlock: TATPOV_clean_sbu_0, # of connection points: 4
#     Node 3, Type 0, BuildingBlock: TATPOV_clean_sbu_0, # of connection points: 4
#     Node 4, Type 0, BuildingBlock: TATPOV_clean_sbu_0, # of connection points: 4
#     Node 5, Type 0, BuildingBlock: TATPOV_clean_sbu_0, # of connection points: 4
#     Edge 6, Type (0, 0), BuildingBlock: FUNLAD_clean_linker_0, # of connection points: 2
#     Edge 7, Type (0, 0), BuildingBlock: FUNLAD_clean_linker_0, # of connection points: 2
#     Edge 8, Type (0, 0), BuildingBlock: FUNLAD_clean_linker_0, # of connection points: 2
#     Edge 9, Type (0, 0), BuildingBlock: FUNLAD_clean_linker_0, # of connection points: 2
#     Edge 10, Type (0, 0), BuildingBlock: FUNLAD_clean_linker_0, # of connection points: 2
#     Edge 11, Type (0, 0), BuildingBlock: FUNLAD_clean_linker_0, # of connection points: 2
#     Edge 12, Type (0, 0), BuildingBlock: FUNLAD_clean_linker_0, # of connection points: 2
#     Edge 13, Type (0, 0), BuildingBlock: FUNLAD_clean_linker_0, # of connection points: 2
#     Edge 14, Type (0, 0), BuildingBlock: FUNLAD_clean_linker_0, # of connection points: 2
#     Edge 15, Type (0, 0), BuildingBlock: FUNLAD_clean_linker_0, # of connection points: 2
#     Edge 16, Type (0, 0), BuildingBlock: FUNLAD_clean_linker_0, # of connection points: 2
#     Edge 17, Type (0, 0), BuildingBlock: FUNLAD_clean_linker_0, # of connection points: 2
# Relax obj value: 0.034
# Max RMSD: 0.067
# Mean RMSD: 0.067
data_MOF--net-uni--node1-TATPOV_clean_sbu_0--edge1-FUNLAD_clean_linker_0
_symmetry_space_group_name_H-M    P1
_symmetry_Int_Tables_number       1
_symmetry_cell_setting            triclinic
loop_
_symmetry_equiv_pos_as_xyz
'x, y, z'
_cell_length_a     45.084243
_cell_length_b     45.06087
_cell_length_c     26.796801
_cell_angle_alpha  90.056543
_cell_angle_beta   89.982814
_cell_angle_gamma 119.8891
loop_
_atom_site_label
_atom_site_type_symbol
_atom_site_fract_x
_atom_site_fract_y
_atom_site_fract_z
_atom_type_partial_charge
Zn0 Zn 0.5607 0.91383 0.05946 0.0
Zn1 Zn 0.62462 0.96846 0.04412 0.0
O2 O 0.63563 0.93059 0.06043 0.0
O3 O 0.58434 0.88608 0.07276 0.0
O4 O 0.66931 0.00943 0.02464 0.0
O5 O 0.5459 0.91827 0.98936 0.0
O6 O 0.59782 0.96204 0.98001 0.0
C7 C 0.61658 0.89903 0.07105 0.0
C8 C 0.57931 0.97152 0.12648 0.0
O9 O 0.60763 0.98504 0.10297 0.0
O10 O 0.55562 0.94169 0.11512 0.0
C11 C 0.69441 0.02862 0.05258 0.0
O12 O 0.69318 0.02152 0.10034 0.0
C13 C 0.56799 0.94241 0.96278 0.0
Zn14 Zn 0.66943 0.54864 0.21716 0.0
Zn15 Zn 0.67914 0.61345 0.21219 0.0
O16 O 0.72686 0.62254 0.23244 0.0
O17 O 0.71919 0.5704 0.2386 0.0
O18 O 0.68294 0.65983 0.20774 0.0
O19 O 0.65545 0.54163 0.14412 0.0
O20 O 0.66229 0.59351 0.14262 0.0
C21 C 0.73847 0.60255 0.24224 0.0
C22 C 0.6257 0.56001 0.28336 0.0
O23 O 0.64219 0.59013 0.26542 0.0
O24 O 0.63235 0.53717 0.26894 0.0
C25 C 0.69454 0.67898 0.16957 0.0
O26 O 0.70674 0.6694 0.13222 0.0
C27 C 0.65376 0.56523 0.12089 0.0
Zn28 Zn 0.13727 0.65878 0.39965 0.0
Zn29 Zn 0.08213 0.6682 0.39078 0.0
O30 O 0.1204 0.71624 0.41034 0.0
O31 O 0.16498 0.70895 0.41895 0.0
O32 O 0.04049 0.673 0.37929 0.0
O33 O 0.13165 0.64331 0.32734 0.0
O34 O 0.08686 0.65041 0.32286 0.0
C35 C 0.15191 0.72817 0.42078 0.0
C36 C 0.08136 0.61634 0.46598 0.0
O37 O 0.06745 0.63201 0.44592 0.0
O38 O 0.11109 0.62311 0.45276 0.0
C39 C 0.0185 0.66789 0.41282 0.0
O40 O 0.02366 0.66099 0.45857 0.0
C41 C 0.10682 0.64151 0.30272 0.0
Zn42 Zn 0.50058 0.12474 0.55977 0.0
Zn43 Zn 0.43529 0.07198 0.54717 0.0
O44 O 0.42748 0.11167 0.56616 0.0
O45 O 0.47989 0.15455 0.57729 0.0
O46 O 0.38821 0.03188 0.5347 0.0
O47 O 0.51178 0.11862 0.48827 0.0
O48 O 0.45911 0.07575 0.48059 0.0
C49 C 0.44782 0.14285 0.57757 0.0
C50 C 0.48232 0.06743 0.6259 0.0
O51 O 0.45358 0.05513 0.60381 0.0
O52 O 0.50668 0.09674 0.61401 0.0
C53 C 0.36939 0.01296 0.56988 0.0
O54 O 0.38004 0.02085 0.61619 0.0
C55 C 0.48884 0.09461 0.46238 0.0
Zn56 Zn 0.39977 0.49097 0.71988 0.0
Zn57 Zn 0.38566 0.42467 0.71574 0.0
O58 O 0.33875 0.4189 0.73424 0.0
O59 O 0.34986 0.47234 0.73738 0.0
O60 O 0.37803 0.37687 0.70678 0.0
O61 O 0.41601 0.49837 0.64808 0.0
O62 O 0.40485 0.44498 0.64717 0.0
C63 C 0.32887 0.44058 0.74166 0.0
C64 C 0.43922 0.47541 0.78934 0.0
O65 O 0.42203 0.44552 0.77069 0.0
O66 O 0.43435 0.49931 0.77432 0.0
C67 C 0.38308 0.36025 0.7408 0.0
O68 O 0.39118 0.37329 0.78593 0.0
C69 C 0.416 0.4737 0.6254 0.0
Zn70 Zn 0.933 0.38742 0.89937 0.0
Zn71 Zn 0.98741 0.377 0.8925 0.0
O72 O 0.94847 0.32949 0.91257 0.0
O73 O 0.90386 0.33704 0.91667 0.0
O74 O 0.02858 0.37119 0.88425 0.0
O75 O 0.94007 0.40353 0.82751 0.0
O76 O 0.98414 0.39522 0.8239 0.0
C77 C 0.91669 0.31771 0.92068 0.0
C78 C 0.98853 0.42896 0.9673 0.0
O79 O 0.00231 0.41311 0.94739 0.0
O80 O 0.95898 0.42252 0.95366 0.0
C81 C 0.03101 0.35426 0.84806 0.0
O82 O 0.00527 0.33878 0.81682 0.0
C83 C 0.96487 0.40486 0.8034 0.0
C84 C 0.54062 0.97762 0.18742 0.0
C85 C 0.57321 0.99105 0.16574 0.0
C86 C 0.53417 0.99631 0.22304 0.0
C87 C 0.56017 0.02901 0.23781 0.0
C88 C 0.59295 0.04213 0.2171 0.0
C89 C 0.59938 0.02349 0.18111 0.0
C90 C 0.55417 0.049 0.27665 0.0
C91 C 0.52333 0.04632 0.28404 0.0
C92 C 0.51519 0.06219 0.3267 0.0
C93 C 0.48088 0.04768 0.34159 0.0
C94 C 0.47212 0.05926 0.38442 0.0
C95 C 0.4975 0.08593 0.41316 0.0
H96 H 0.56698 0.10302 0.34258 0.0
C97 C 0.53162 0.10195 0.39656 0.0
C98 C 0.54041 0.09024 0.35375 0.0
H99 H 0.55178 0.1228 0.41755 0.0
H100 H 0.51991 0.95263 0.17678 0.0
H101 H 0.50893 0.9847 0.23954 0.0
H102 H 0.61356 0.06702 0.22841 0.0
H103 H 0.62482 0.03452 0.16533 0.0
H104 H 0.57574 0.06568 0.30009 0.0
H105 H 0.50225 0.02992 0.25953 0.0
H106 H 0.46084 0.02635 0.32114 0.0
H107 H 0.44555 0.04651 0.39585 0.0
C108 C 0.57597 0.51716 0.33383 0.0
C109 C 0.59774 0.55132 0.31955 0.0
C110 C 0.54888 0.50873 0.36673 0.0
C111 C 0.5432 0.53441 0.38671 0.0
C112 C 0.56479 0.56848 0.37195 0.0
C113 C 0.59176 0.57688 0.33881 0.0
C114 C 0.51533 0.52703 0.42297 0.0
C115 C 0.49962 0.49826 0.45061 0.0
C116 C 0.47451 0.49218 0.49094 0.0
C117 C 0.45501 0.45886 0.50992 0.0
C118 C 0.43439 0.45246 0.55195 0.0
C119 C 0.4329 0.47936 0.57619 0.0
H120 H 0.48661 0.54506 0.50132 0.0
C121 C 0.45098 0.51243 0.55578 0.0
C122 C 0.4717 0.51886 0.51379 0.0
H123 H 0.45051 0.53376 0.57365 0.0
H124 H 0.57953 0.49676 0.31906 0.0
H125 H 0.53235 0.482 0.37549 0.0
H126 H 0.56098 0.5888 0.38644 0.0
H127 H 0.60793 0.60345 0.32836 0.0
H128 H 0.50873 0.54691 0.42819 0.0
H129 H 0.50618 0.47837 0.44532 0.0
H130 H 0.45659 0.43779 0.49315 0.0
H131 H 0.42073 0.42664 0.56657 0.0
C132 C 0.95558 0.43617 0.73334 0.0
C133 C 0.9737 0.42105 0.75347 0.0
C134 C 0.96693 0.45574 0.68978 0.0
C135 C 0.99676 0.46069 0.66554 0.0
C136 C 0.01349 0.44372 0.68384 0.0
C137 C 0.00222 0.42424 0.72745 0.0
C138 C 0.01202 0.48421 0.6224 0.0
C139 C 0.00771 0.51136 0.6142 0.0
C140 C 0.02658 0.53742 0.57508 0.0
C141 C 0.01251 0.5568 0.55632 0.0
C142 C 0.03019 0.58243 0.52086 0.0
C143 C 0.06258 0.58951 0.50391 0.0
H144 H 0.07149 0.53131 0.57327 0.0
C145 C 0.07685 0.57039 0.5232 0.0
C146 C 0.05913 0.54471 0.55842 0.0
H147 H 0.10185 0.5753 0.51125 0.0
H148 H 0.93323 0.43385 0.75207 0.0
H149 H 0.95247 0.46722 0.67577 0.0
H150 H 0.03624 0.44668 0.66551 0.0
H151 H 0.01661 0.41269 0.74164 0.0
H152 H 0.02921 0.4802 0.59864 0.0
H153 H 0.9904 0.51544 0.63756 0.0
H154 H 0.98769 0.55203 0.56902 0.0
H155 H 0.01849 0.59674 0.50689 0.0
C156 C 0.52425 0.93532 0.89877 0.0
C157 C 0.55866 0.95009 0.91346 0.0
C158 C 0.51544 0.94633 0.85529 0.0
C159 C 0.54098 0.97232 0.82568 0.0
C160 C 0.5754 0.9854 0.83882 0.0
C161 C 0.58417 0.9746 0.88231 0.0
C162 C 0.5332 0.9877 0.78217 0.0
C163 C 0.5035 0.98766 0.77626 0.0
C164 C 0.4986 0.00798 0.73687 0.0
C165 C 0.46569 0.9968 0.71789 0.0
C166 C 0.46028 0.01602 0.68179 0.0
C167 C 0.48767 0.04714 0.6646 0.0
H168 H 0.55141 0.04946 0.7352 0.0
C169 C 0.52049 0.05861 0.68435 0.0
C170 C 0.52591 0.03931 0.72008 0.0
H171 H 0.54212 0.08257 0.67222 0.0
H172 H 0.50401 0.91614 0.92175 0.0
H173 H 0.48866 0.93471 0.84555 0.0
H174 H 0.59564 0.00511 0.81642 0.0
H175 H 0.61097 0.98625 0.89223 0.0
H176 H 0.55388 0.00185 0.75587 0.0
H177 H 0.48228 0.97324 0.80152 0.0
H178 H 0.44414 0.97302 0.73078 0.0
H179 H 0.43463 0.00653 0.66752 0.0
C180 C 0.62208 0.5253 0.05037 0.0
C181 C 0.63785 0.55846 0.07078 0.0
C182 C 0.60214 0.51755 0.00724 0.0
C183 C 0.59754 0.54287 0.98369 0.0
C184 C 0.61534 0.57652 0.00199 0.0
C185 C 0.63513 0.58424 0.04524 0.0
C186 C 0.57342 0.53507 0.94146 0.0
C187 C 0.5452 0.50423 0.93491 0.0
C188 C 0.51862 0.49758 0.89686 0.0
C189 C 0.49753 0.46398 0.87972 0.0
C190 C 0.47159 0.45663 0.84502 0.0
C191 C 0.46594 0.48274 0.8272 0.0
H192 H 0.52739 0.54958 0.89323 0.0
C193 C 0.48666 0.51626 0.84507 0.0
C194 C 0.51264 0.52361 0.87955 0.0
H195 H 0.48288 0.53696 0.83243 0.0
H196 H 0.62399 0.50492 0.06877 0.0
H197 H 0.58996 0.49162 0.99309 0.0
H198 H 0.61267 0.59663 0.98412 0.0
H199 H 0.64721 0.61014 0.05965 0.0
H200 H 0.57793 0.55622 0.91724 0.0
H201 H 0.54065 0.48298 0.95893 0.0
H202 H 0.50126 0.44336 0.893 0.0
H203 H 0.45604 0.4305 0.83215 0.0
C204 C 0.99399 0.47582 0.02358 0.0
C205 C 0.00744 0.45571 0.00532 0.0
C206 C 0.01207 0.5016 0.0586 0.0
C207 C 0.04414 0.50793 0.0761 0.0
C208 C 0.05734 0.4875 0.05845 0.0
C209 C 0.03933 0.46182 0.02317 0.0
C210 C 0.06336 0.53409 0.11496 0.0
C211 C 0.06042 0.56216 0.12168 0.0
C212 C 0.07581 0.58583 0.16466 0.0
C213 C 0.05977 0.60378 0.18177 0.0
C214 C 0.07088 0.62325 0.22542 0.0
C215 C 0.09858 0.62549 0.25264 0.0
H216 H 0.11885 0.57758 0.17692 0.0
C217 C 0.11616 0.60949 0.23362 0.0
C218 C 0.10493 0.58987 0.19003 0.0
H219 H 0.13786 0.61105 0.25335 0.0
H220 H 0.9694 0.47168 0.01086 0.0
H221 H 1.00039 0.51588 0.07263 0.0
H222 H 0.08175 0.49152 0.07184 0.0
H223 H 0.05038 0.44672 0.01002 0.0
H224 H 0.07975 0.52933 0.13935 0.0
H225 H 0.04413 0.56682 0.0969 0.0
H226 H 0.0376 0.60153 0.16255 0.0
H227 H 0.05695 0.63553 0.23871 0.0
C228 C 0.69961 0.72883 0.12076 0.0
C229 C 0.69042 0.7095 0.16498 0.0
C230 C 0.69215 0.75525 0.11442 0.0
C231 C 0.67545 0.76298 0.15239 0.0
C232 C 0.66734 0.74437 0.19713 0.0
C233 C 0.67484 0.71805 0.20349 0.0
C234 C 0.66324 0.78786 0.1453 0.0
C235 C 0.67565 0.8129 0.11076 0.0
C236 C 0.66039 0.83505 0.10191 0.0
C237 C 0.68101 0.86847 0.0839 0.0
C238 C 0.66697 0.88948 0.07425 0.0
C239 C 0.63186 0.87722 0.08164 0.0
H240 H 0.60827 0.79674 0.12114 0.0
C241 C 0.61118 0.84357 0.099 0.0
C242 C 0.62523 0.82273 0.10896 0.0
H243 H 0.584 0.83318 0.1048 0.0
H244 H 0.71153 0.72282 0.09028 0.0
H245 H 0.69819 0.7684 0.07894 0.0
H246 H 0.65437 0.74965 0.22694 0.0
H247 H 0.66743 0.70374 0.23809 0.0
H248 H 0.64301 0.78534 0.17006 0.0
H249 H 0.698 0.81799 0.08898 0.0
H250 H 0.70808 0.87842 0.07756 0.0
H251 H 0.68359 0.9152 0.06063 0.0
C252 C 0.98043 0.67392 0.35036 0.0
C253 C 0.98564 0.66562 0.39895 0.0
C254 C 0.94824 0.66814 0.33552 0.0
C255 C 0.92054 0.65392 0.36903 0.0
C256 C 0.92605 0.64664 0.41797 0.0
C257 C 0.95828 0.65265 0.43293 0.0
C258 C 0.88505 0.64318 0.353 0.0
C259 C 0.87726 0.65669 0.31373 0.0
C260 C 0.84156 0.64271 0.29588 0.0
C261 C 0.83149 0.66462 0.27402 0.0
C262 C 0.79799 0.65174 0.25657 0.0
C263 C 0.77417 0.61654 0.2597 0.0
H264 H 0.82502 0.58968 0.3136 0.0
C265 C 0.78459 0.59457 0.28053 0.0
C266 C 0.81783 0.60748 0.29848 0.0
H267 H 0.76697 0.56731 0.28336 0.0
H268 H 0.00097 0.6839 0.32323 0.0
H269 H 0.94491 0.67339 0.29716 0.0
H270 H 0.90512 0.6355 0.44446 0.0
H271 H 0.96136 0.64592 0.4706 0.0
H272 H 0.86441 0.62316 0.3747 0.0
H273 H 0.89727 0.67895 0.2947 0.0
H274 H 0.84945 0.69179 0.27099 0.0
H275 H 0.79083 0.66931 0.24046 0.0
C276 C 0.20522 0.77511 0.45924 0.0
C277 C 0.17342 0.76433 0.4363 0.0
C278 C 0.22564 0.809 0.47453 0.0
C279 C 0.21483 0.83302 0.46701 0.0
C280 C 0.18336 0.8225 0.44331 0.0
C281 C 0.16261 0.78835 0.4286 0.0
C282 C 0.23694 0.86944 0.48133 0.0
C283 C 0.25749 0.87876 0.52165 0.0
C284 C 0.28304 0.91475 0.53404 0.0
C285 C 0.29476 0.92289 0.58341 0.0
C286 C 0.32177 0.95536 0.59552 0.0
C287 C 0.33803 0.98024 0.55827 0.0
H288 H 0.29061 0.9346 0.45838 0.0
C289 C 0.32561 0.97249 0.50908 0.0
C290 C 0.29837 0.9401 0.49705 0.0
H291 H 0.33761 0.9911 0.47949 0.0
H292 H 0.21438 0.75731 0.46562 0.0
H293 H 0.25023 0.81646 0.49128 0.0
H294 H 0.17469 0.84065 0.43655 0.0
H295 H 0.13833 0.78088 0.41076 0.0
H296 H 0.23584 0.88878 0.45851 0.0
H297 H 0.25574 0.85907 0.54687 0.0
H298 H 0.28354 0.90377 0.61255 0.0
H299 H 0.33073 0.96045 0.63376 0.0
C300 C 0.37667 0.31548 0.6792 0.0
C301 C 0.3847 0.32912 0.72775 0.0
C302 C 0.38239 0.28888 0.66492 0.0
C303 C 0.39624 0.2753 0.69902 0.0
C304 C 0.40307 0.28813 0.74798 0.0
C305 C 0.39718 0.31457 0.76233 0.0
C306 C 0.40701 0.25036 0.68371 0.0
C307 C 0.39432 0.22946 0.64385 0.0
C308 C 0.40824 0.20739 0.62708 0.0
C309 C 0.38656 0.17589 0.60393 0.0
C310 C 0.3993 0.15484 0.58765 0.0
C311 C 0.43417 0.16528 0.59329 0.0
H312 H 0.46088 0.24265 0.64822 0.0
C313 C 0.45598 0.19724 0.61531 0.0
C314 C 0.44319 0.21802 0.63206 0.0
H315 H 0.483 0.20618 0.62006 0.0
H316 H 0.36708 0.32614 0.65158 0.0
H317 H 0.37745 0.28029 0.62655 0.0
H318 H 0.41388 0.27825 0.77496 0.0
H319 H 0.40369 0.32447 0.80001 0.0
H320 H 0.42636 0.24924 0.70653 0.0
H321 H 0.37267 0.22772 0.62355 0.0
H322 H 0.35963 0.16735 0.59904 0.0
H323 H 0.38184 0.13045 0.5706 0.0
C324 C 0.09201 0.37375 0.8699 0.0
C325 C 0.06377 0.3551 0.83835 0.0
C326 C 0.12392 0.37761 0.85809 0.0
C327 C 0.12835 0.36306 0.81423 0.0
C328 C 0.09974 0.34279 0.78423 0.0
C329 C 0.06778 0.33898 0.79598 0.0
C330 C 0.16264 0.3695 0.79821 0.0
C331 C 0.19131 0.39939 0.80776 0.0
C332 C 0.22588 0.40855 0.78911 0.0
C333 C 0.25051 0.44336 0.78556 0.0
C334 C 0.28362 0.45357 0.76942 0.0
C335 C 0.29316 0.42917 0.7569 0.0
H336 H 0.21716 0.35687 0.77976 0.0
C337 C 0.26856 0.39421 0.76048 0.0
C338 C 0.2352 0.38396 0.77642 0.0
H339 H 0.27513 0.37477 0.75142 0.0
H340 H 0.08972 0.38608 0.90324 0.0
H341 H 0.14511 0.39231 0.88315 0.0
H342 H 0.10237 0.33093 0.7506 0.0
H343 H 0.04647 0.32418 0.7711 0.0
H344 H 0.16377 0.35058 0.7744 0.0
H345 H 0.18919 0.41934 0.8275 0.0
H346 H 0.24412 0.46286 0.79528 0.0
H347 H 0.30185 0.48071 0.76734 0.0
C348 C 0.85892 0.26737 0.93781 0.0
C349 C 0.89463 0.28167 0.93634 0.0
C350 C 0.83794 0.23389 0.95437 0.0
C351 C 0.85216 0.21384 0.96991 0.0
C352 C 0.88783 0.22813 0.96884 0.0
C353 C 0.90889 0.26162 0.95174 0.0
C354 C 0.83025 0.17861 0.98938 0.0
C355 C 0.79832 0.15805 0.97221 0.0
C356 C 0.7744 0.12366 0.99276 0.0
C357 C 0.7473 0.10048 0.96256 0.0
C358 C 0.72212 0.06917 0.98161 0.0
C359 C 0.72315 0.06042 0.03169 0.0
H360 H 0.79625 0.1321 0.06725 0.0
C361 C 0.75073 0.08322 0.06175 0.0
C362 C 0.77615 0.11458 0.0425 0.0
H363 H 0.75222 0.07729 0.10051 0.0
H364 H 0.84709 0.28214 0.92653 0.0
H365 H 0.81063 0.22412 0.95611 0.0
H366 H 0.89942 0.21333 0.98109 0.0
H367 H 0.93633 0.27197 0.95145 0.0
H368 H 0.84104 0.16925 0.0173 0.0
H369 H 0.78921 0.16656 0.94081 0.0
H370 H 0.74523 0.10686 0.92422 0.0
H371 H 0.7013 0.05225 0.95728 0.0
loop_
_geom_bond_atom_site_label_1
_geom_bond_atom_site_label_2
_geom_bond_distance
_geom_bond_site_symmetry_2
_ccdc_geom_bond_type
Zn0 O3 2.031 . S
Zn0 O5 2.049 1_554 S
Zn0 O10 2.067 1_565 S
Zn1 O2 1.962 1_545 S
Zn1 O4 1.986 . S
Zn1 O6 1.996 1_554 S
Zn1 O9 1.943 . S
O2 Zn1 1.962 1_565 S
O2 C7 1.254 . S
O3 Zn0 2.031 . S
O3 C7 1.269 . S
O4 Zn1 1.986 . S
O4 C11 1.262 . S
O5 Zn0 2.049 1_556 S
O5 C13 1.260 1_565 S
O6 Zn1 1.996 1_556 S
O6 C13 1.257 . S
C7 O2 1.254 . S
C7 O3 1.269 . S
C8 O9 1.249 . S
C8 O10 1.270 . S
O9 Zn1 1.943 . S
O9 C8 1.249 . S
O10 Zn0 2.067 1_545 S
O10 C8 1.270 . S
C11 O4 1.262 . S
C11 O12 1.232 . S
O12 C11 1.232 . S
C13 O5 1.260 1_545 S
C13 O6 1.257 . S
Zn14 O17 2.031 . S
Zn14 O19 2.049 . S
Zn14 O24 2.067 . S
Zn15 O16 1.962 . S
Zn15 O18 1.986 . S
Zn15 O20 1.996 . S
Zn15 O23 1.943 . S
O16 Zn15 1.962 . S
O16 C21 1.254 . S
O17 Zn14 2.031 . S
O17 C21 1.269 . S
O18 Zn15 1.986 . S
O18 C25 1.262 . S
O19 Zn14 2.049 . S
O19 C27 1.260 . S
O20 Zn15 1.996 . S
O20 C27 1.257 . S
C21 O16 1.254 . S
C21 O17 1.269 . S
C22 O23 1.249 . S
C22 O24 1.270 . S
O23 Zn15 1.943 . S
O23 C22 1.249 . S
O24 Zn14 2.067 . S
O24 C22 1.270 . S
C25 O18 1.262 . S
C25 O26 1.232 . S
O26 C25 1.232 . S
C27 O19 1.260 . S
C27 O20 1.257 . S
Zn28 O31 2.031 . S
Zn28 O33 2.049 . S
Zn28 O38 2.067 . S
Zn29 O30 1.962 . S
Zn29 O32 1.986 1_455 S
Zn29 O34 1.996 . S
Zn29 O37 1.943 . S
O30 Zn29 1.962 . S
O30 C35 1.254 . S
O31 Zn28 2.031 . S
O31 C35 1.269 . S
O32 Zn29 1.986 1_655 S
O32 C39 1.262 . S
O33 Zn28 2.049 . S
O33 C41 1.260 . S
O34 Zn29 1.996 . S
O34 C41 1.257 . S
C35 O30 1.254 . S
C35 O31 1.269 . S
C36 O37 1.249 . S
C36 O38 1.270 . S
O37 Zn29 1.943 . S
O37 C36 1.249 . S
O38 Zn28 2.067 . S
O38 C36 1.270 . S
C39 O32 1.262 . S
C39 O40 1.232 . S
O40 C39 1.232 . S
C41 O33 1.260 . S
C41 O34 1.257 . S
Zn42 O45 2.031 . S
Zn42 O47 2.049 . S
Zn42 O52 2.067 . S
Zn43 O44 1.962 . S
Zn43 O46 1.986 1_545 S
Zn43 O48 1.996 . S
Zn43 O51 1.943 1_545 S
O44 Zn43 1.962 . S
O44 C49 1.254 . S
O45 Zn42 2.031 . S
O45 C49 1.269 . S
O46 Zn43 1.986 1_565 S
O46 C53 1.262 . S
O47 Zn42 2.049 . S
O47 C55 1.260 . S
O48 Zn43 1.996 . S
O48 C55 1.257 . S
C49 O44 1.254 . S
C49 O45 1.269 . S
C50 O51 1.249 1_545 S
C50 O52 1.270 . S
O51 Zn43 1.943 1_565 S
O51 C50 1.249 1_565 S
O52 Zn42 2.067 . S
O52 C50 1.270 . S
C53 O46 1.262 . S
C53 O54 1.232 . S
O54 C53 1.232 . S
C55 O47 1.260 . S
C55 O48 1.257 . S
Zn56 O59 2.031 . S
Zn56 O61 2.049 . S
Zn56 O66 2.067 . S
Zn57 O58 1.962 . S
Zn57 O60 1.986 . S
Zn57 O62 1.996 . S
Zn57 O65 1.943 . S
O58 Zn57 1.962 . S
O58 C63 1.254 . S
O59 Zn56 2.031 . S
O59 C63 1.269 . S
O60 Zn57 1.986 . S
O60 C67 1.262 . S
O61 Zn56 2.049 . S
O61 C69 1.260 . S
O62 Zn57 1.996 . S
O62 C69 1.257 . S
C63 O58 1.254 . S
C63 O59 1.269 . S
C64 O65 1.249 . S
C64 O66 1.270 . S
O65 Zn57 1.943 . S
O65 C64 1.249 . S
O66 Zn56 2.067 . S
O66 C64 1.270 . S
C67 O60 1.262 . S
C67 O68 1.232 . S
O68 C67 1.232 . S
C69 O61 1.260 . S
C69 O62 1.257 . S
Zn70 O73 2.031 . S
Zn70 O75 2.049 . S
Zn70 O80 2.067 1_655 S
Zn71 O72 1.962 . S
Zn71 O74 1.986 . S
Zn71 O76 1.996 . S
Zn71 O79 1.943 . S
O72 Zn71 1.962 . S
O72 C77 1.254 1_455 S
O73 Zn70 2.031 . S
O73 C77 1.269 . S
O74 Zn71 1.986 . S
O74 C81 1.262 . S
O75 Zn70 2.049 . S
O75 C83 1.260 1_655 S
O76 Zn71 1.996 . S
O76 C83 1.257 . S
C77 O72 1.254 1_655 S
C77 O73 1.269 . S
C78 O79 1.249 . S
C78 O80 1.270 . S
O79 Zn71 1.943 . S
O79 C78 1.249 . S
O80 Zn70 2.067 1_455 S
O80 C78 1.270 . S
C81 O74 1.262 . S
C81 O82 1.232 . S
O82 C81 1.232 . S
C83 O75 1.260 1_455 S
C83 O76 1.257 . S
C84 C85 1.386 . S
C84 C86 1.383 . S
C84 H100 0.951 1_545 S
C85 C84 1.386 . S
C85 C89 1.383 . S
C86 C84 1.383 . S
C86 C87 1.402 . S
C86 H101 0.951 1_545 S
C87 C86 1.402 . S
C87 C88 1.375 . S
C87 C90 1.481 . S
C88 C87 1.375 . S
C88 C89 1.367 . S
C88 H102 0.951 . S
C89 C85 1.383 . S
C89 C88 1.367 . S
C89 H103 0.950 . S
C90 C87 1.481 . S
C90 C91 1.297 . S
C90 H104 0.950 . S
C91 C90 1.297 . S
C91 C92 1.479 . S
C91 H105 0.950 . S
C92 C91 1.479 . S
C92 C93 1.375 . S
C92 C98 1.404 . S
C93 C92 1.375 . S
C93 C94 1.369 1_545 S
C93 H106 0.950 1_545 S
C94 C93 1.369 1_565 S
C94 C95 1.392 1_565 S
C94 H107 0.951 . S
C95 C94 1.392 1_545 S
C95 C97 1.384 . S
H96 C98 0.949 . S
C97 C95 1.384 . S
C97 C98 1.385 . S
C97 H99 0.950 . S
C98 C92 1.404 . S
C98 H96 0.949 . S
C98 C97 1.385 . S
H99 C97 0.950 . S
H100 C84 0.951 1_565 S
H101 C86 0.951 1_565 S
H102 C88 0.951 . S
H103 C89 0.950 . S
H104 C90 0.950 . S
H105 C91 0.950 . S
H106 C93 0.950 1_565 S
H107 C94 0.951 . S
C108 C109 1.386 . S
C108 C110 1.383 . S
C108 H124 0.951 . S
C109 C108 1.386 . S
C109 C113 1.383 . S
C110 C108 1.383 . S
C110 C111 1.402 . S
C110 H125 0.951 . S
C111 C110 1.402 . S
C111 C112 1.375 . S
C111 C114 1.481 . S
C112 C111 1.375 . S
C112 C113 1.367 . S
C112 H126 0.951 . S
C113 C109 1.383 . S
C113 C112 1.367 . S
C113 H127 0.950 . S
C114 C111 1.481 . S
C114 C115 1.297 . S
C114 H128 0.950 . S
C115 C114 1.297 . S
C115 C116 1.479 . S
C115 H129 0.950 . S
C116 C115 1.479 . S
C116 C117 1.375 . S
C116 C122 1.404 . S
C117 C116 1.375 . S
C117 C118 1.369 . S
C117 H130 0.950 . S
C118 C117 1.369 . S
C118 C119 1.392 . S
C118 H131 0.951 . S
C119 C118 1.392 . S
C119 C121 1.384 . S
H120 C122 0.949 . S
C121 C119 1.384 . S
C121 C122 1.385 . S
C121 H123 0.950 . S
C122 C116 1.404 . S
C122 H120 0.949 . S
C122 C121 1.385 . S
H123 C121 0.950 . S
H124 C108 0.951 . S
H125 C110 0.951 . S
H126 C112 0.951 . S
H127 C113 0.950 . S
H128 C114 0.950 . S
H129 C115 0.950 . S
H130 C117 0.950 . S
H131 C118 0.951 . S
C132 C133 1.386 . S
C132 C134 1.383 . S
C132 H148 0.951 . S
C133 C132 1.386 . S
C133 C137 1.383 . S
C134 C132 1.383 . S
C134 C135 1.402 . S
C134 H149 0.951 . S
C135 C134 1.402 . S
C135 C136 1.375 . S
C135 C138 1.481 . S
C136 C135 1.375 . S
C136 C137 1.367 . S
C136 H150 0.951 . S
C137 C133 1.383 . S
C137 C136 1.367 . S
C137 H151 0.950 . S
C138 C135 1.481 . S
C138 C139 1.297 . S
C138 H152 0.950 . S
C139 C138 1.297 . S
C139 C140 1.479 . S
C139 H153 0.950 . S
C140 C139 1.479 . S
C140 C141 1.375 . S
C140 C146 1.404 . S
C141 C140 1.375 . S
C141 C142 1.369 . S
C141 H154 0.950 . S
C142 C141 1.369 . S
C142 C143 1.392 . S
C142 H155 0.951 . S
C143 C142 1.392 . S
C143 C145 1.384 . S
H144 C146 0.949 . S
C145 C143 1.384 . S
C145 C146 1.385 . S
C145 H147 0.950 . S
C146 C140 1.404 . S
C146 H144 0.949 . S
C146 C145 1.385 . S
H147 C145 0.950 . S
H148 C132 0.951 . S
H149 C134 0.951 . S
H150 C136 0.951 . S
H151 C137 0.950 . S
H152 C138 0.950 . S
H153 C139 0.950 . S
H154 C141 0.950 . S
H155 C142 0.951 . S
C156 C157 1.386 1_565 S
C156 C158 1.383 . S
C156 H172 0.951 . S
C157 C156 1.386 1_545 S
C157 C161 1.383 . S
C158 C156 1.383 . S
C158 C159 1.402 1_565 S
C158 H173 0.951 . S
C159 C158 1.402 1_545 S
C159 C160 1.375 . S
C159 C162 1.481 . S
C160 C159 1.375 . S
C160 C161 1.367 . S
C160 H174 0.951 . S
C161 C157 1.383 . S
C161 C160 1.367 . S
C161 H175 0.950 . S
C162 C159 1.481 . S
C162 C163 1.297 . S
C162 H176 0.950 . S
C163 C162 1.297 . S
C163 C164 1.479 . S
C163 H177 0.950 1_545 S
C164 C163 1.479 . S
C164 C165 1.375 1_545 S
C164 C170 1.404 . S
C165 C164 1.375 1_565 S
C165 C166 1.369 . S
C165 H178 0.950 . S
C166 C165 1.369 . S
C166 C167 1.392 1_565 S
C166 H179 0.951 . S
C167 C166 1.392 1_545 S
C167 C169 1.384 . S
H168 C170 0.949 . S
C169 C167 1.384 . S
C169 C170 1.385 . S
C169 H171 0.950 . S
C170 C164 1.404 . S
C170 H168 0.949 . S
C170 C169 1.385 . S
H171 C169 0.950 . S
H172 C156 0.951 . S
H173 C158 0.951 . S
H174 C160 0.951 . S
H175 C161 0.950 . S
H176 C162 0.950 . S
H177 C163 0.950 1_565 S
H178 C165 0.950 . S
H179 C166 0.951 . S
C180 C181 1.386 . S
C180 C182 1.383 . S
C180 H196 0.951 . S
C181 C180 1.386 . S
C181 C185 1.383 . S
C182 C180 1.383 . S
C182 C183 1.402 . S
C182 H197 0.951 . S
C183 C182 1.402 . S
C183 C184 1.375 . S
C183 C186 1.481 1_554 S
C184 C183 1.375 . S
C184 C185 1.367 . S
C184 H198 0.951 . S
C185 C181 1.383 . S
C185 C184 1.367 . S
C185 H199 0.950 . S
C186 C183 1.481 1_556 S
C186 C187 1.297 . S
C186 H200 0.950 . S
C187 C186 1.297 . S
C187 C188 1.479 . S
C187 H201 0.950 . S
C188 C187 1.479 . S
C188 C189 1.375 . S
C188 C194 1.404 . S
C189 C188 1.375 . S
C189 C190 1.369 . S
C189 H202 0.950 . S
C190 C189 1.369 . S
C190 C191 1.392 . S
C190 H203 0.951 . S
C191 C190 1.392 . S
C191 C193 1.384 . S
H192 C194 0.949 . S
C193 C191 1.384 . S
C193 C194 1.385 . S
C193 H195 0.950 . S
C194 C188 1.404 . S
C194 H192 0.949 . S
C194 C193 1.385 . S
H195 C193 0.950 . S
H196 C180 0.951 . S
H197 C182 0.951 . S
H198 C184 0.951 . S
H199 C185 0.950 . S
H200 C186 0.950 . S
H201 C187 0.950 . S
H202 C189 0.950 . S
H203 C190 0.951 . S
C204 C205 1.386 . S
C204 C206 1.383 . S
C204 H220 0.951 1_554 S
C205 C204 1.386 . S
C205 C209 1.383 . S
C206 C204 1.383 . S
C206 C207 1.402 . S
C206 H221 0.951 . S
C207 C206 1.402 . S
C207 C208 1.375 . S
C207 C210 1.481 . S
C208 C207 1.375 . S
C208 C209 1.367 . S
C208 H222 0.951 . S
C209 C205 1.383 . S
C209 C208 1.367 . S
C209 H223 0.950 . S
C210 C207 1.481 . S
C210 C211 1.297 . S
C210 H224 0.950 . S
C211 C210 1.297 . S
C211 C212 1.479 . S
C211 H225 0.948 1_455 S
C212 C211 1.479 . S
C212 C213 1.375 . S
C212 C218 1.404 . S
C213 C212 1.375 . S
C213 C214 1.369 . S
C213 H226 0.950 1_455 S
C214 C213 1.369 . S
C214 C215 1.392 . S
C214 H227 0.951 1_455 S
C215 C214 1.392 . S
C215 C217 1.384 . S
H216 C218 0.949 . S
C217 C215 1.384 . S
C217 C218 1.385 . S
C217 H219 0.950 . S
C218 C212 1.404 . S
C218 H216 0.949 . S
C218 C217 1.385 . S
H219 C217 0.950 . S
H220 C204 0.951 1_556 S
H221 C206 0.951 . S
H222 C208 0.951 . S
H223 C209 0.950 . S
H224 C210 0.950 . S
H225 C211 0.948 1_655 S
H226 C213 0.950 1_655 S
H227 C214 0.951 1_655 S
C228 C229 1.386 . S
C228 C230 1.383 . S
C228 H244 0.951 . S
C229 C228 1.386 . S
C229 C233 1.383 . S
C230 C228 1.383 . S
C230 C231 1.402 . S
C230 H245 0.951 . S
C231 C230 1.402 . S
C231 C232 1.375 . S
C231 C234 1.481 . S
C232 C231 1.375 . S
C232 C233 1.367 . S
C232 H246 0.951 . S
C233 C229 1.383 . S
C233 C232 1.367 . S
C233 H247 0.950 . S
C234 C231 1.481 . S
C234 C235 1.297 . S
C234 H248 0.950 . S
C235 C234 1.297 . S
C235 C236 1.479 . S
C235 H249 0.950 . S
C236 C235 1.479 . S
C236 C237 1.375 . S
C236 C242 1.404 . S
C237 C236 1.375 . S
C237 C238 1.369 . S
C237 H250 0.950 . S
C238 C237 1.369 . S
C238 C239 1.392 . S
C238 H251 0.951 . S
C239 C238 1.392 . S
C239 C241 1.384 . S
H240 C242 0.949 . S
C241 C239 1.384 . S
C241 C242 1.385 . S
C241 H243 0.950 . S
C242 C236 1.404 . S
C242 H240 0.949 . S
C242 C241 1.385 . S
H243 C241 0.950 . S
H244 C228 0.951 . S
H245 C230 0.951 . S
H246 C232 0.951 . S
H247 C233 0.950 . S
H248 C234 0.950 . S
H249 C235 0.950 . S
H250 C237 0.950 . S
H251 C238 0.951 . S
C252 C253 1.386 . S
C252 C254 1.383 . S
C252 H268 0.951 . S
C253 C252 1.386 . S
C253 C257 1.383 . S
C254 C252 1.383 . S
C254 C255 1.402 . S
C254 H269 0.951 . S
C255 C254 1.402 . S
C255 C256 1.375 . S
C255 C258 1.481 . S
C256 C255 1.375 . S
C256 C257 1.367 . S
C256 H270 0.951 . S
C257 C253 1.383 . S
C257 C256 1.367 . S
C257 H271 0.950 . S
C258 C255 1.481 . S
C258 C259 1.297 . S
C258 H272 0.950 . S
C259 C258 1.297 . S
C259 C260 1.479 . S
C259 H273 0.950 . S
C260 C259 1.479 . S
C260 C261 1.375 . S
C260 C266 1.404 . S
C261 C260 1.375 . S
C261 C262 1.369 . S
C261 H274 0.950 . S
C262 C261 1.369 . S
C262 C263 1.392 . S
C262 H275 0.951 . S
C263 C262 1.392 . S
C263 C265 1.384 . S
H264 C266 0.949 . S
C265 C263 1.384 . S
C265 C266 1.385 . S
C265 H267 0.950 . S
C266 C260 1.404 . S
C266 H264 0.949 . S
C266 C265 1.385 . S
H267 C265 0.950 . S
H268 C252 0.951 . S
H269 C254 0.951 . S
H270 C256 0.951 . S
H271 C257 0.950 . S
H272 C258 0.950 . S
H273 C259 0.950 . S
H274 C261 0.950 . S
H275 C262 0.951 . S
C276 C277 1.386 . S
C276 C278 1.383 . S
C276 H292 0.951 . S
C277 C276 1.386 . S
C277 C281 1.383 . S
C278 C276 1.383 . S
C278 C279 1.402 . S
C278 H293 0.951 . S
C279 C278 1.402 . S
C279 C280 1.375 . S
C279 C282 1.481 . S
C280 C279 1.375 . S
C280 C281 1.367 . S
C280 H294 0.951 . S
C281 C277 1.383 . S
C281 C280 1.367 . S
C281 H295 0.950 . S
C282 C279 1.481 . S
C282 C283 1.297 . S
C282 H296 0.950 . S
C283 C282 1.297 . S
C283 C284 1.479 . S
C283 H297 0.950 . S
C284 C283 1.479 . S
C284 C285 1.375 . S
C284 C290 1.404 . S
C285 C284 1.375 . S
C285 C286 1.369 . S
C285 H298 0.950 . S
C286 C285 1.369 . S
C286 C287 1.392 . S
C286 H299 0.951 . S
C287 C286 1.392 . S
C287 C289 1.384 . S
H288 C290 0.949 . S
C289 C287 1.384 . S
C289 C290 1.385 . S
C289 H291 0.950 . S
C290 C284 1.404 . S
C290 H288 0.949 . S
C290 C289 1.385 . S
H291 C289 0.950 . S
H292 C276 0.951 . S
H293 C278 0.951 . S
H294 C280 0.951 . S
H295 C281 0.950 . S
H296 C282 0.950 . S
H297 C283 0.950 . S
H298 C285 0.950 . S
H299 C286 0.951 . S
C300 C301 1.386 . S
C300 C302 1.383 . S
C300 H316 0.951 . S
C301 C300 1.386 . S
C301 C305 1.383 . S
C302 C300 1.383 . S
C302 C303 1.402 . S
C302 H317 0.951 . S
C303 C302 1.402 . S
C303 C304 1.375 . S
C303 C306 1.481 . S
C304 C303 1.375 . S
C304 C305 1.367 . S
C304 H318 0.951 . S
C305 C301 1.383 . S
C305 C304 1.367 . S
C305 H319 0.950 . S
C306 C303 1.481 . S
C306 C307 1.297 . S
C306 H320 0.950 . S
C307 C306 1.297 . S
C307 C308 1.479 . S
C307 H321 0.950 . S
C308 C307 1.479 . S
C308 C309 1.375 . S
C308 C314 1.404 . S
C309 C308 1.375 . S
C309 C310 1.369 . S
C309 H322 0.950 . S
C310 C309 1.369 . S
C310 C311 1.392 . S
C310 H323 0.951 . S
C311 C310 1.392 . S
C311 C313 1.384 . S
H312 C314 0.949 . S
C313 C311 1.384 . S
C313 C314 1.385 . S
C313 H315 0.950 . S
C314 C308 1.404 . S
C314 H312 0.949 . S
C314 C313 1.385 . S
H315 C313 0.950 . S
H316 C300 0.951 . S
H317 C302 0.951 . S
H318 C304 0.951 . S
H319 C305 0.950 . S
H320 C306 0.950 . S
H321 C307 0.950 . S
H322 C309 0.950 . S
H323 C310 0.951 . S
C324 C325 1.386 . S
C324 C326 1.383 . S
C324 H340 0.951 . S
C325 C324 1.386 . S
C325 C329 1.383 . S
C326 C324 1.383 . S
C326 C327 1.402 . S
C326 H341 0.951 . S
C327 C326 1.402 . S
C327 C328 1.375 . S
C327 C330 1.481 . S
C328 C327 1.375 . S
C328 C329 1.367 . S
C328 H342 0.951 . S
C329 C325 1.383 . S
C329 C328 1.367 . S
C329 H343 0.950 . S
C330 C327 1.481 . S
C330 C331 1.297 . S
C330 H344 0.950 . S
C331 C330 1.297 . S
C331 C332 1.479 . S
C331 H345 0.950 . S
C332 C331 1.479 . S
C332 C333 1.375 . S
C332 C338 1.404 . S
C333 C332 1.375 . S
C333 C334 1.369 . S
C333 H346 0.950 . S
C334 C333 1.369 . S
C334 C335 1.392 . S
C334 H347 0.951 . S
C335 C334 1.392 . S
C335 C337 1.384 . S
H336 C338 0.949 . S
C337 C335 1.384 . S
C337 C338 1.385 . S
C337 H339 0.950 . S
C338 C332 1.404 . S
C338 H336 0.949 . S
C338 C337 1.385 . S
H339 C337 0.950 . S
H340 C324 0.951 . S
H341 C326 0.951 . S
H342 C328 0.951 . S
H343 C329 0.950 . S
H344 C330 0.950 . S
H345 C331 0.950 . S
H346 C333 0.950 . S
H347 C334 0.951 . S
C348 C349 1.386 . S
C348 C350 1.383 . S
C348 H364 0.951 . S
C349 C348 1.386 . S
C349 C353 1.383 . S
C350 C348 1.383 . S
C350 C351 1.402 . S
C350 H365 0.951 . S
C351 C350 1.402 . S
C351 C352 1.375 . S
C351 C354 1.481 . S
C352 C351 1.375 . S
C352 C353 1.367 . S
C352 H366 0.951 1_556 S
C353 C349 1.383 . S
C353 C352 1.367 . S
C353 H367 0.950 . S
C354 C351 1.481 . S
C354 C355 1.297 . S
C354 H368 0.950 1_556 S
C355 C354 1.297 . S
C355 C356 1.479 . S
C355 H369 0.950 . S
C356 C355 1.479 . S
C356 C357 1.375 . S
C356 C362 1.404 1_556 S
C357 C356 1.375 . S
C357 C358 1.369 . S
C357 H370 0.950 . S
C358 C357 1.369 . S
C358 C359 1.392 1_556 S
C358 H371 0.951 . S
C359 C358 1.392 1_554 S
C359 C361 1.384 . S
H360 C362 0.949 . S
C361 C359 1.384 . S
C361 C362 1.385 . S
C361 H363 0.950 . S
C362 C356 1.404 1_554 S
C362 H360 0.949 . S
C362 C361 1.385 . S
H363 C361 0.950 . S
H364 C348 0.951 . S
H365 C350 0.951 . S
H366 C352 0.951 1_554 S
H367 C353 0.950 . S
H368 C354 0.950 1_554 S
H369 C355 0.950 . S
H370 C357 0.950 . S
H371 C358 0.951 . S
C85 C8 1.389 . S
C95 C55 1.277 . S
C109 C22 1.404 . S
C119 C69 1.341 . S
C133 C83 1.305 . S
C143 C36 1.389 . S
C157 C13 1.361 . S
C167 C50 1.413 . S
C181 C27 1.373 . S
C191 C64 1.399 . S
C205 C78 1.403 1_554 S
C215 C41 1.361 . S
C229 C25 1.402 . S
C239 C7 1.419 . S
C253 C39 1.413 . S
C263 C21 1.380 . S
C277 C35 1.392 . S
C287 C53 1.409 . S
C301 C67 1.418 . S
C311 C49 1.364 . S
C325 C81 1.415 . S
C335 C63 1.372 . S
C349 C77 1.415 . S
C359 C11 1.389 . S
