# Generated by pormake.
# Topology wib, (6)-cn, num edge types: 1
# Building blocks:
#     Node 0, Type 0, BuildingBlock: VOLQOD_clean_sbu_1, # of connection points: 6
#     Node 1, Type 0, BuildingBlock: VOLQOD_clean_sbu_1, # of connection points: 6
#     Node 2, Type 0, BuildingBlock: VOLQOD_clean_sbu_1, # of connection points: 6
#     Node 3, Type 0, BuildingBlock: VOLQOD_clean_sbu_1, # of connection points: 6
#     Node 4, Type 0, BuildingBlock: VOLQOD_clean_sbu_1, # of connection points: 6
#     Node 5, Type 0, BuildingBlock: VOLQOD_clean_sbu_1, # of connection points: 6
#     Node 6, Type 0, BuildingBlock: VOLQOD_clean_sbu_1, # of connection points: 6
#     Node 7, Type 0, BuildingBlock: VOLQOD_clean_sbu_1, # of connection points: 6
#     Node 8, Type 0, BuildingBlock: VOLQOD_clean_sbu_1, # of connection points: 6
#     Node 9, Type 0, BuildingBlock: VOLQOD_clean_sbu_1, # of connection points: 6
#     Node 10, Type 0, BuildingBlock: VOLQOD_clean_sbu_1, # of connection points: 6
#     Node 11, Type 0, BuildingBlock: VOLQOD_clean_sbu_1, # of connection points: 6
#     Node 12, Type 0, BuildingBlock: VOLQOD_clean_sbu_1, # of connection points: 6
#     Node 13, Type 0, BuildingBlock: VOLQOD_clean_sbu_1, # of connection points: 6
#     Node 14, Type 0, BuildingBlock: VOLQOD_clean_sbu_1, # of connection points: 6
#     Node 15, Type 0, BuildingBlock: VOLQOD_clean_sbu_1, # of connection points: 6
#     Edge 16, Type (0, 0), BuildingBlock: OJICUG_clean_linker_0, # of connection points: 2
#     Edge 17, Type (0, 0), BuildingBlock: OJICUG_clean_linker_0, # of connection points: 2
#     Edge 18, Type (0, 0), BuildingBlock: OJICUG_clean_linker_0, # of connection points: 2
#     Edge 19, Type (0, 0), BuildingBlock: OJICUG_clean_linker_0, # of connection points: 2
#     Edge 20, Type (0, 0), BuildingBlock: OJICUG_clean_linker_0, # of connection points: 2
#     Edge 21, Type (0, 0), BuildingBlock: OJICUG_clean_linker_0, # of connection points: 2
#     Edge 22, Type (0, 0), BuildingBlock: OJICUG_clean_linker_0, # of connection points: 2
#     Edge 23, Type (0, 0), BuildingBlock: OJICUG_clean_linker_0, # of connection points: 2
#     Edge 24, Type (0, 0), BuildingBlock: OJICUG_clean_linker_0, # of connection points: 2
#     Edge 25, Type (0, 0), BuildingBlock: OJICUG_clean_linker_0, # of connection points: 2
#     Edge 26, Type (0, 0), BuildingBlock: OJICUG_clean_linker_0, # of connection points: 2
#     Edge 27, Type (0, 0), BuildingBlock: OJICUG_clean_linker_0, # of connection points: 2
#     Edge 28, Type (0, 0), BuildingBlock: OJICUG_clean_linker_0, # of connection points: 2
#     Edge 29, Type (0, 0), BuildingBlock: OJICUG_clean_linker_0, # of connection points: 2
#     Edge 30, Type (0, 0), BuildingBlock: OJICUG_clean_linker_0, # of connection points: 2
#     Edge 31, Type (0, 0), BuildingBlock: OJICUG_clean_linker_0, # of connection points: 2
#     Edge 32, Type (0, 0), BuildingBlock: OJICUG_clean_linker_0, # of connection points: 2
#     Edge 33, Type (0, 0), BuildingBlock: OJICUG_clean_linker_0, # of connection points: 2
#     Edge 34, Type (0, 0), BuildingBlock: OJICUG_clean_linker_0, # of connection points: 2
#     Edge 35, Type (0, 0), BuildingBlock: OJICUG_clean_linker_0, # of connection points: 2
#     Edge 36, Type (0, 0), BuildingBlock: OJICUG_clean_linker_0, # of connection points: 2
#     Edge 37, Type (0, 0), BuildingBlock: OJICUG_clean_linker_0, # of connection points: 2
#     Edge 38, Type (0, 0), BuildingBlock: OJICUG_clean_linker_0, # of connection points: 2
#     Edge 39, Type (0, 0), BuildingBlock: OJICUG_clean_linker_0, # of connection points: 2
#     Edge 40, Type (0, 0), BuildingBlock: OJICUG_clean_linker_0, # of connection points: 2
#     Edge 41, Type (0, 0), BuildingBlock: OJICUG_clean_linker_0, # of connection points: 2
#     Edge 42, Type (0, 0), BuildingBlock: OJICUG_clean_linker_0, # of connection points: 2
#     Edge 43, Type (0, 0), BuildingBlock: OJICUG_clean_linker_0, # of connection points: 2
#     Edge 44, Type (0, 0), BuildingBlock: OJICUG_clean_linker_0, # of connection points: 2
#     Edge 45, Type (0, 0), BuildingBlock: OJICUG_clean_linker_0, # of connection points: 2
#     Edge 46, Type (0, 0), BuildingBlock: OJICUG_clean_linker_0, # of connection points: 2
#     Edge 47, Type (0, 0), BuildingBlock: OJICUG_clean_linker_0, # of connection points: 2
#     Edge 48, Type (0, 0), BuildingBlock: OJICUG_clean_linker_0, # of connection points: 2
#     Edge 49, Type (0, 0), BuildingBlock: OJICUG_clean_linker_0, # of connection points: 2
#     Edge 50, Type (0, 0), BuildingBlock: OJICUG_clean_linker_0, # of connection points: 2
#     Edge 51, Type (0, 0), BuildingBlock: OJICUG_clean_linker_0, # of connection points: 2
#     Edge 52, Type (0, 0), BuildingBlock: OJICUG_clean_linker_0, # of connection points: 2
#     Edge 53, Type (0, 0), BuildingBlock: OJICUG_clean_linker_0, # of connection points: 2
#     Edge 54, Type (0, 0), BuildingBlock: OJICUG_clean_linker_0, # of connection points: 2
#     Edge 55, Type (0, 0), BuildingBlock: OJICUG_clean_linker_0, # of connection points: 2
#     Edge 56, Type (0, 0), BuildingBlock: OJICUG_clean_linker_0, # of connection points: 2
#     Edge 57, Type (0, 0), BuildingBlock: OJICUG_clean_linker_0, # of connection points: 2
#     Edge 58, Type (0, 0), BuildingBlock: OJICUG_clean_linker_0, # of connection points: 2
#     Edge 59, Type (0, 0), BuildingBlock: OJICUG_clean_linker_0, # of connection points: 2
#     Edge 60, Type (0, 0), BuildingBlock: OJICUG_clean_linker_0, # of connection points: 2
#     Edge 61, Type (0, 0), BuildingBlock: OJICUG_clean_linker_0, # of connection points: 2
#     Edge 62, Type (0, 0), BuildingBlock: OJICUG_clean_linker_0, # of connection points: 2
#     Edge 63, Type (0, 0), BuildingBlock: OJICUG_clean_linker_0, # of connection points: 2
# Relax obj value: 0.536
# Max RMSD: 0.268
# Mean RMSD: 0.267
data_MOF--net-wib--node1-VOLQOD_clean_sbu_1--edge1-OJICUG_clean_linker_0
_symmetry_space_group_name_H-M    P1
_symmetry_Int_Tables_number       1
_symmetry_cell_setting            triclinic
loop_
_symmetry_equiv_pos_as_xyz
'x, y, z'
_cell_length_a     22.43192
_cell_length_b     22.423091
_cell_length_c     50.411381
_cell_angle_alpha  89.998971
_cell_angle_beta   90.006139
_cell_angle_gamma 89.802827
loop_
_atom_site_label
_atom_site_type_symbol
_atom_site_fract_x
_atom_site_fract_y
_atom_site_fract_z
_atom_type_partial_charge
O0 O 0.06478 0.61332 0.2682 0.0
Zn1 Zn 0.13948 0.56259 0.26912 0.0
O2 O 0.14803 0.50821 0.23919 0.0
Zn3 Zn 0.14856 0.42641 0.25259 0.0
Zn4 Zn 0.0846 0.52807 0.21473 0.0
Zn5 Zn 0.22069 0.52354 0.22065 0.0
O6 O 0.22824 0.38321 0.2424 0.0
O7 O 0.28075 0.46203 0.22906 0.0
O8 O 0.15483 0.52202 0.3039 0.0
O9 O 0.15746 0.42638 0.29272 0.0
O10 O 0.06536 0.39094 0.24352 0.0
O11 O 0.02263 0.46357 0.21936 0.0
O12 O 0.11267 0.53563 0.17614 0.0
O13 O 0.19819 0.62696 0.26566 0.0
O14 O 0.21019 0.52732 0.18169 0.0
O15 O 0.24989 0.60423 0.22962 0.0
C16 C 0.04627 0.63745 0.24681 0.0
C17 C 0.27788 0.40757 0.23589 0.0
C18 C 0.0205 0.41266 0.23082 0.0
C19 C 0.16169 0.46737 0.31012 0.0
C20 C 0.16542 0.53504 0.16665 0.0
C21 C 0.23637 0.64021 0.24812 0.0
O22 O 0.05334 0.61095 0.2246 0.0
O23 O 0.16463 0.3128 0.51828 0.0
Zn24 Zn 0.2151 0.38735 0.51917 0.0
O25 O 0.26955 0.39564 0.48928 0.0
Zn26 Zn 0.35124 0.39558 0.50276 0.0
Zn27 Zn 0.24974 0.33237 0.4648 0.0
Zn28 Zn 0.25433 0.46851 0.4708 0.0
O29 O 0.39466 0.47478 0.4925 0.0
O30 O 0.31594 0.52802 0.4792 0.0
O31 O 0.25542 0.40293 0.55395 0.0
O32 O 0.35108 0.40487 0.54288 0.0
O33 O 0.38663 0.31205 0.49378 0.0
O34 O 0.31422 0.26993 0.46945 0.0
O35 O 0.24222 0.36063 0.4262 0.0
O36 O 0.15062 0.44626 0.51556 0.0
O37 O 0.2505 0.45811 0.43184 0.0
O38 O 0.17374 0.49845 0.47975 0.0
C39 C 0.14043 0.2946 0.49687 0.0
C40 C 0.37039 0.52466 0.48599 0.0
C41 C 0.36501 0.26739 0.48101 0.0
C42 C 0.31 0.40959 0.56021 0.0
C43 C 0.24279 0.41345 0.41677 0.0
C44 C 0.13757 0.48485 0.49812 0.0
O45 O 0.16687 0.30164 0.47466 0.0
O46 O 0.46412 0.41456 0.76824 0.0
Zn47 Zn 0.38918 0.46496 0.76906 0.0
O48 O 0.38058 0.51934 0.73913 0.0
Zn49 Zn 0.37997 0.60113 0.75254 0.0
Zn50 Zn 0.44403 0.49954 0.71469 0.0
Zn51 Zn 0.30791 0.50396 0.72061 0.0
O52 O 0.30028 0.64429 0.74233 0.0
O53 O 0.24779 0.56539 0.72905 0.0
O54 O 0.37329 0.50546 0.8038 0.0
O55 O 0.37088 0.60113 0.79266 0.0
O56 O 0.46318 0.63664 0.74353 0.0
O57 O 0.50595 0.56411 0.71931 0.0
O58 O 0.4159 0.49175 0.6761 0.0
O59 O 0.33081 0.40034 0.76547 0.0
O60 O 0.31839 0.5002 0.68166 0.0
O61 O 0.27883 0.42319 0.72954 0.0
C62 C 0.48258 0.39035 0.74685 0.0
C63 C 0.25063 0.61987 0.73586 0.0
C64 C 0.50805 0.61499 0.73082 0.0
C65 C 0.3664 0.56011 0.81002 0.0
C66 C 0.36314 0.49234 0.66663 0.0
C67 C 0.29257 0.3871 0.74796 0.0
O68 O 0.4754 0.41674 0.72462 0.0
O69 O 0.36345 0.71344 0.01816 0.0
Zn70 Zn 0.3129 0.63896 0.01893 0.0
O71 O 0.25826 0.63112 0.98909 0.0
Zn72 Zn 0.17667 0.63116 0.00268 0.0
Zn73 Zn 0.2781 0.69456 0.96471 0.0
Zn74 Zn 0.27324 0.55841 0.97044 0.0
O75 O 0.13325 0.55191 -0.00753 0.0
O76 O 0.21186 0.49876 0.97897 0.0
O77 O 0.27281 0.62318 0.05373 0.0
O78 O 0.17705 0.62188 0.0428 0.0
O79 O 0.14122 0.71467 -0.00627 0.0
O80 O 0.2136 0.75696 0.96945 0.0
O81 O 0.28553 0.66655 0.92607 0.0
O82 O 0.37727 0.58004 0.01508 0.0
O83 O 0.27637 0.56909 0.9315 0.0
O84 O 0.35408 0.52859 0.97907 0.0
C85 C 0.38756 0.73191 -0.00321 0.0
C86 C 0.15748 0.50206 0.98589 0.0
C87 C 0.1628 0.75941 0.981 0.0
C88 C 0.21824 0.61684 0.06007 0.0
C89 C 0.28442 0.61386 0.91652 0.0
C90 C 0.39033 0.5419 -0.00255 0.0
O91 O 0.36103 0.72518 0.97458 0.0
O92 O 0.96409 0.41428 0.71393 0.0
Zn93 Zn 0.88924 0.4648 0.71298 0.0
O94 O 0.88038 0.51913 0.74293 0.0
Zn95 Zn 0.87993 0.60095 0.72954 0.0
Zn96 Zn 0.9437 0.49931 0.76746 0.0
Zn97 Zn 0.80755 0.50375 0.76134 0.0
O98 O 0.80033 0.64428 0.73974 0.0
O99 O 0.74769 0.56555 0.75308 0.0
O100 O 0.8738 0.50537 0.6782 0.0
O101 O 0.87099 0.60099 0.68941 0.0
O102 O 0.96316 0.63632 0.7386 0.0
O103 O 1.00571 0.56384 0.76292 0.0
O104 O 0.91538 0.49131 0.80601 0.0
O105 O 0.83072 0.40026 0.71641 0.0
O106 O 0.81787 0.49914 0.8003 0.0
O107 O 0.77811 0.42332 0.75213 0.0
C108 C 0.98245 0.39012 0.73535 0.0
C109 C 0.75065 0.62002 0.74628 0.0
C110 C 1.00794 0.61467 0.75138 0.0
C111 C 0.86682 0.56002 0.672 0.0
C112 C 0.86254 0.49138 0.81539 0.0
C113 C 0.79206 0.38719 0.73376 0.0
O114 O 0.97515 0.41655 0.75756 0.0
O115 O 0.8638 0.71481 0.46394 0.0
Zn116 Zn 0.81339 0.64022 0.46299 0.0
O117 O 0.75889 0.63181 0.49286 0.0
Zn118 Zn 0.67722 0.63175 0.47936 0.0
Zn119 Zn 0.77857 0.69508 0.51737 0.0
Zn120 Zn 0.77419 0.55895 0.51135 0.0
O121 O 0.63392 0.55246 0.48961 0.0
O122 O 0.7127 0.49933 0.50292 0.0
O123 O 0.77316 0.62469 0.42818 0.0
O124 O 0.67749 0.62251 0.43923 0.0
O125 O 0.6417 0.71521 0.48835 0.0
O126 O 0.71401 0.75743 0.51271 0.0
O127 O 0.78605 0.6668 0.55596 0.0
O128 O 0.87795 0.58138 0.46662 0.0
O129 O 0.77791 0.56932 0.5503 0.0
O130 O 0.85485 0.5292 0.50242 0.0
C131 C 0.88794 0.73296 0.48537 0.0
C132 C 0.65824 0.50261 0.49612 0.0
C133 C 0.66322 0.7599 0.50114 0.0
C134 C 0.7186 0.61794 0.42191 0.0
C135 C 0.78553 0.61398 0.56539 0.0
C136 C 0.89104 0.54285 0.48407 0.0
O137 O 0.86145 0.72588 0.50757 0.0
O138 O 0.56494 0.61368 0.21393 0.0
Zn139 Zn 0.63955 0.56282 0.21296 0.0
O140 O 0.64812 0.50837 0.24289 0.0
Zn141 Zn 0.64856 0.4266 0.22945 0.0
Zn142 Zn 0.58473 0.52822 0.26738 0.0
Zn143 Zn 0.72082 0.52359 0.26142 0.0
O144 O 0.72821 0.38328 0.23961 0.0
O145 O 0.7808 0.46198 0.25304 0.0
O146 O 0.65465 0.52229 0.17814 0.0
O147 O 0.65734 0.42665 0.18932 0.0
O148 O 0.56537 0.39116 0.23854 0.0
O149 O 0.52273 0.46373 0.26277 0.0
O150 O 0.61289 0.53591 0.30596 0.0
O151 O 0.69837 0.6271 0.21642 0.0
O152 O 0.7104 0.52758 0.30038 0.0
O153 O 0.75013 0.60419 0.25242 0.0
C154 C 0.54639 0.6377 0.23535 0.0
C155 C 0.77787 0.40755 0.24618 0.0
C156 C 0.52055 0.41285 0.25127 0.0
C157 C 0.66145 0.46763 0.17191 0.0
C158 C 0.66566 0.53541 0.31542 0.0
C159 C 0.7366 0.64025 0.23396 0.0
O160 O 0.55343 0.61109 0.25753 0.0
O161 O 0.66426 0.31124 0.96395 0.0
Zn162 Zn 0.71455 0.3859 0.9628 0.0
O163 O 0.7689 0.39491 -0.00729 0.0
Zn164 Zn 0.85065 0.39495 0.9793 0.0
Zn165 Zn 0.74932 0.33186 0.01735 0.0
Zn166 Zn 0.75336 0.46798 0.01099 0.0
O167 O 0.89395 0.47422 0.98957 0.0
O168 O 0.81507 0.52744 0.00268 0.0
O169 O 0.75493 0.40101 0.92798 0.0
O170 O 0.8505 0.40411 0.93917 0.0
O171 O 0.88613 0.31149 0.98835 0.0
O172 O 0.81384 0.26945 0.01278 0.0
O173 O 0.74188 0.36048 0.05589 0.0
O174 O 0.64987 0.44473 0.96614 0.0
O175 O 0.74896 0.45797 0.04996 0.0
O176 O 0.67295 0.4978 0.00169 0.0
C177 C 0.64004 0.29346 0.98543 0.0
C178 C 0.86959 0.5241 -0.004 0.0
C179 C 0.8646 0.26689 0.00119 0.0
C180 C 0.80949 0.40814 0.92177 0.0
C181 C 0.74178 0.41344 0.06517 0.0
C182 C 0.63682 0.48378 0.98337 0.0
O183 O 0.66646 0.30094 0.00761 0.0
O184 O 0.56486 0.11373 0.76834 0.0
Zn185 Zn 0.63953 0.06295 0.7692 0.0
O186 O 0.64786 1.00847 0.73928 0.0
Zn187 Zn 0.64836 0.92673 0.75273 0.0
Zn188 Zn 0.58439 0.02837 0.71484 0.0
Zn189 Zn 0.72046 0.02361 0.72068 0.0
O190 O 0.72802 0.88345 0.74258 0.0
O191 O 0.78056 0.96218 0.72915 0.0
O192 O 0.65496 0.02245 0.80401 0.0
O193 O 0.65721 0.92679 0.79286 0.0
O194 O 0.56516 0.89127 0.74368 0.0
O195 O 0.52241 0.96386 0.71949 0.0
O196 O 0.61243 0.03608 0.67623 0.0
O197 O 0.69822 0.1273 0.76559 0.0
O198 O 0.70991 0.02721 0.68172 0.0
O199 O 0.7496 0.10439 0.72949 0.0
C200 C 0.54624 0.13781 0.74695 0.0
C201 C 0.77767 0.90776 0.73603 0.0
C202 C 0.52029 0.91297 0.73098 0.0
C203 C 0.66161 0.96779 0.81024 0.0
C204 C 0.66514 0.03525 0.66671 0.0
C205 C 0.73618 0.14049 0.74795 0.0
O206 O 0.55317 0.11125 0.72474 0.0
O207 O 0.66437 0.81145 0.01828 0.0
Zn208 Zn 0.71463 0.88614 0.01935 0.0
O209 O 0.76897 0.89498 0.98944 0.0
Zn210 Zn 0.85071 0.89499 0.00285 0.0
Zn211 Zn 0.74929 0.83191 0.96483 0.0
Zn212 Zn 0.75347 0.96801 0.97112 0.0
O213 O 0.89403 0.97424 -0.00745 0.0
O214 O 0.81512 0.0275 0.9795 0.0
O215 O 0.75503 0.90155 0.05415 0.0
O216 O 0.85061 0.90425 0.04297 0.0
O217 O 0.88614 0.8115 -0.00618 0.0
O218 O 0.81379 0.76947 0.96941 0.0
O219 O 0.74182 0.86049 0.92628 0.0
O220 O 0.64993 0.94489 0.01591 0.0
O221 O 0.74935 0.95796 0.93215 0.0
O222 O 0.67295 0.99777 0.98029 0.0
C223 C 0.64009 0.79362 -0.00317 0.0
C224 C 0.86966 0.02413 0.98615 0.0
C225 C 0.86457 0.76689 0.98099 0.0
C226 C 0.8096 0.90856 0.06036 0.0
C227 C 0.742 0.91341 0.91697 0.0
C228 C 0.63682 0.98379 -0.00138 0.0
O229 O 0.66644 0.80104 0.97462 0.0
O230 O 0.96416 0.91413 0.26821 0.0
Zn231 Zn 0.88932 0.96463 0.26914 0.0
O232 O 0.8806 0.01905 0.23921 0.0
Zn233 Zn 0.88011 0.10081 0.25267 0.0
Zn234 Zn 0.94395 0.99924 0.21471 0.0
Zn235 Zn 0.80784 1.00377 0.22073 0.0
O236 O 0.80046 0.1441 0.24252 0.0
O237 O 0.74785 0.06536 0.22915 0.0
O238 O 0.87385 1.00507 0.30394 0.0
O239 O 0.87124 0.10073 0.2928 0.0
O240 O 0.96332 0.13623 0.24361 0.0
O241 O 1.00594 0.06377 0.21931 0.0
O242 O 0.91567 0.99138 0.17614 0.0
O243 O 0.83083 0.90009 0.2656 0.0
O244 O 0.81818 0.99971 0.18177 0.0
O245 O 0.77863 0.92313 0.22974 0.0
C246 C 0.98256 0.88997 0.2468 0.0
C247 C 0.75078 0.1198 0.236 0.0
C248 C 1.00813 0.1146 0.23086 0.0
C249 C 0.867 0.05972 0.31018 0.0
C250 C 0.86287 0.99182 0.16671 0.0
C251 C 0.79245 0.88697 0.24812 0.0
O252 O 0.97533 0.91642 0.22459 0.0
O253 O 0.86378 0.21451 0.5183 0.0
Zn254 Zn 0.81325 0.14 0.51925 0.0
O255 O 0.75888 0.13157 0.48933 0.0
Zn256 Zn 0.67714 0.13166 0.50277 0.0
Zn257 Zn 0.77869 0.19479 0.46482 0.0
Zn258 Zn 0.7742 0.05864 0.47089 0.0
O259 O 0.63374 0.05246 0.49247 0.0
O260 O 0.71247 0.9992 0.4792 0.0
O261 O 0.77285 0.12457 0.55403 0.0
O262 O 0.67722 0.12239 0.5429 0.0
O263 O 0.64179 0.21518 0.49375 0.0
O264 O 0.71421 0.25724 0.46941 0.0
O265 O 0.78628 0.16645 0.42623 0.0
O266 O 0.87772 0.08103 0.51575 0.0
O267 O 0.77833 0.06897 0.43194 0.0
O268 O 0.85468 0.02863 0.48 0.0
C269 C 0.88797 0.23267 0.49689 0.0
C270 C 0.65799 1.00258 0.48595 0.0
C271 C 0.66341 0.25981 0.48095 0.0
C272 C 0.71826 0.11782 0.56026 0.0
C273 C 0.78593 0.1136 0.41684 0.0
C274 C 0.89078 0.0423 0.49838 0.0
O275 O 0.86153 0.22557 0.47468 0.0
O276 O 0.46421 0.91446 0.2142 0.0
Zn277 Zn 0.38927 0.96483 0.21336 0.0
O278 O 0.38063 0.0192 0.24328 0.0
Zn279 Zn 0.38009 0.10097 0.22985 0.0
Zn280 Zn 0.44406 0.99936 0.26774 0.0
Zn281 Zn 0.30794 1.00385 0.26179 0.0
O282 O 0.30043 0.14418 0.24004 0.0
O283 O 0.24788 0.06533 0.25333 0.0
O284 O 0.37344 1.00528 0.1786 0.0
O285 O 0.37104 0.10095 0.18973 0.0
O286 O 0.46332 0.13642 0.23888 0.0
O287 O 0.50602 0.06389 0.26312 0.0
O288 O 0.41589 0.99161 0.30632 0.0
O289 O 0.3309 0.90021 0.21694 0.0
O290 O 0.31839 1.00006 0.30075 0.0
O291 O 0.27882 0.9231 0.25284 0.0
C292 C 0.48262 0.8902 0.23558 0.0
C293 C 0.25076 0.1198 0.24651 0.0
C294 C 0.50817 0.11475 0.2516 0.0
C295 C 0.36658 0.05993 0.17237 0.0
C296 C 0.36313 0.99221 0.31579 0.0
C297 C 0.2926 0.887 0.23443 0.0
O298 O 0.47539 0.91654 0.25782 0.0
O299 O 0.36325 0.21365 0.96422 0.0
Zn300 Zn 0.31276 0.13915 0.96341 0.0
O301 O 0.25825 0.1311 -0.00672 0.0
Zn302 Zn 0.1766 0.13116 0.97973 0.0
Zn303 Zn 0.27812 0.19447 0.01769 0.0
Zn304 Zn 0.27337 0.05833 0.01186 0.0
O305 O 0.13322 0.05191 0.98996 0.0
O306 O 0.21186 0.99875 0.00341 0.0
O307 O 0.27256 0.12352 0.92862 0.0
O308 O 0.17684 0.12194 0.9396 0.0
O309 O 0.1412 0.21468 0.98871 0.0
O310 O 0.21364 0.2569 0.01299 0.0
O311 O 0.28561 0.16638 0.05631 0.0
O312 O 0.37717 0.08022 0.96713 0.0
O313 O 0.27687 0.06891 0.05081 0.0
O314 O 0.3541 0.02845 0.00307 0.0
C315 C 0.38748 0.23195 0.9856 0.0
C316 C 0.15746 1.00206 -0.00347 0.0
C317 C 0.16282 0.25939 0.00145 0.0
C318 C 0.21798 0.11707 0.9223 0.0
C319 C 0.28476 0.11364 0.06582 0.0
C320 C 0.39027 0.04189 0.98467 0.0
O321 O 0.36104 0.22509 0.00782 0.0
O322 O 0.0649 0.1135 0.71405 0.0
Zn323 Zn 0.13957 0.06271 0.71321 0.0
O324 O 0.14794 1.00836 0.74317 0.0
Zn325 Zn 0.14841 0.92655 0.72978 0.0
Zn326 Zn 0.08446 0.02831 0.76758 0.0
Zn327 Zn 0.22056 0.02364 0.76175 0.0
O328 O 0.22804 0.88331 0.73999 0.0
O329 O 0.28058 0.9621 0.75335 0.0
O330 O 0.15508 0.02209 0.67846 0.0
O331 O 0.15739 0.92645 0.68965 0.0
O332 O 0.06518 0.89115 0.73882 0.0
O333 O 0.02246 0.96384 0.76296 0.0
O334 O 0.11246 0.03597 0.80619 0.0
O335 O 0.19831 0.12704 0.71672 0.0
O336 O 0.20997 0.02741 0.8007 0.0
O337 O 0.24984 0.10431 0.7528 0.0
C338 C 0.04628 0.13764 0.73542 0.0
C339 C 0.2777 0.90764 0.74652 0.0
C340 C 0.02032 0.91291 0.7515 0.0
C341 C 0.16183 0.96742 0.67226 0.0
C342 C 0.16518 0.03528 0.81571 0.0
C343 C 0.23642 0.14029 0.73429 0.0
O344 O 0.05325 0.11116 0.75764 0.0
O345 O 0.1648 0.81257 0.46413 0.0
Zn346 Zn 0.21513 0.88722 0.46327 0.0
O347 O 0.26959 0.89549 0.49315 0.0
Zn348 Zn 0.35126 0.89553 0.47967 0.0
Zn349 Zn 0.2498 0.8322 0.51762 0.0
Zn350 Zn 0.25433 0.96831 0.51165 0.0
O351 O 0.39457 0.97479 0.48994 0.0
O352 O 0.31574 0.02797 0.50316 0.0
O353 O 0.25539 0.90295 0.42849 0.0
O354 O 0.35106 0.90483 0.43955 0.0
O355 O 0.38672 0.81203 0.48865 0.0
O356 O 0.31432 0.7698 0.51295 0.0
O357 O 0.24233 0.86044 0.55622 0.0
O358 O 0.15051 0.94596 0.46695 0.0
O359 O 0.25084 0.95791 0.55061 0.0
O360 O 0.17356 0.99797 0.50282 0.0
C361 C 0.14053 0.79444 0.48553 0.0
C362 C 0.37021 0.02466 0.49639 0.0
C363 C 0.36513 0.76733 0.5014 0.0
C364 C 0.30997 0.9096 0.42222 0.0
C365 C 0.24308 0.91324 0.56567 0.0
C366 C 0.13737 0.98435 0.48445 0.0
O367 O 0.16691 0.80151 0.50775 0.0
C368 C 0.35956 0.38271 0.26668 0.0
C369 C 0.33599 0.37844 0.24093 0.0
H370 H 0.43782 0.3972 0.29027 0.0
C371 C 0.37562 0.37006 0.21962 0.0
H372 H 0.3302 0.39088 0.28337 0.0
C373 C 0.43755 0.37241 0.22364 0.0
C374 C 0.46073 0.38514 0.24892 0.0
H375 H 0.35875 0.36837 0.19949 0.0
H376 H 0.46665 0.37176 0.20649 0.0
C377 C 0.42131 0.38689 0.2706 0.0
C378 C 0.39127 0.66791 0.52071 0.0
C379 C 0.39289 0.70732 0.49902 0.0
H380 H 0.38739 0.57681 0.53349 0.0
C381 C 0.40555 0.68407 0.47373 0.0
H382 H 0.38104 0.6845 0.54038 0.0
C383 C 0.40793 0.62211 0.46971 0.0
C384 C 0.39963 0.58252 0.49103 0.0
H385 H 0.40611 0.7132 0.45658 0.0
H386 H 0.40954 0.60524 0.44958 0.0
C387 C 0.39549 0.60611 0.51678 0.0
C388 C 0.16903 0.64462 0.7667 0.0
C389 C 0.19252 0.64896 0.74094 0.0
H390 H 0.09084 0.63013 0.79033 0.0
C391 C 0.15282 0.6574 0.71966 0.0
H392 H 0.19844 0.6364 0.78337 0.0
C393 C 0.09091 0.65508 0.72371 0.0
C394 C 0.0678 0.64231 0.749 0.0
H395 H 0.16963 0.65915 0.69952 0.0
H396 H 0.06174 0.65581 0.70658 0.0
C397 C 0.10729 0.64047 0.77066 0.0
C398 C 0.12231 0.34257 0.97376 0.0
C399 C 0.1351 0.3194 -0.00094 0.0
H400 H 0.1182 0.42132 0.94956 0.0
C401 C 0.13685 0.3589 0.02071 0.0
H402 H 0.12164 0.31338 0.95664 0.0
C403 C 0.13263 0.42068 0.01675 0.0
C404 C 0.12833 0.44418 0.99098 0.0
H405 H 0.14717 0.34238 0.04039 0.0
H406 H 0.14081 0.45005 0.03343 0.0
C407 C 0.11992 0.40452 0.9697 0.0
C408 C 0.6073 0.64113 0.71155 0.0
C409 C 0.56786 0.64271 0.73323 0.0
H410 H 0.6984 0.63719 0.69879 0.0
C411 C 0.59102 0.65523 0.75854 0.0
H412 H 0.59079 0.63099 0.69187 0.0
C413 C 0.65295 0.65751 0.76257 0.0
C414 C 0.69259 0.64927 0.74126 0.0
H415 H 0.56189 0.65575 0.77568 0.0
H416 H 0.66979 0.65902 0.78271 0.0
C417 C 0.66905 0.64526 0.7155 0.0
C418 C 0.6374 0.35917 0.46154 0.0
C419 C 0.63571 0.31986 0.48327 0.0
H420 H 0.64138 0.4502 0.44867 0.0
C421 C 0.62303 0.34325 0.50853 0.0
H422 H 0.64765 0.34247 0.44189 0.0
C423 C 0.62069 0.40524 0.51249 0.0
C424 C 0.62904 0.44471 0.49113 0.0
H425 H 0.62241 0.31422 0.52571 0.0
H426 H 0.61904 0.42222 0.5326 0.0
C427 C 0.63323 0.42098 0.4654 0.0
C428 C 0.85952 0.38252 0.21541 0.0
C429 C 0.83595 0.37834 0.24116 0.0
H430 H 0.9378 0.39689 0.19182 0.0
C431 C 0.87557 0.36998 0.26248 0.0
H432 H 0.83017 0.39066 0.1987 0.0
C433 C 0.9375 0.37227 0.25847 0.0
C434 C 0.96069 0.38493 0.23318 0.0
H435 H 0.85869 0.36835 0.2826 0.0
H436 H 0.9666 0.37165 0.27562 0.0
C437 C 0.92127 0.38664 0.21149 0.0
C438 C 0.90717 0.62137 0.01247 0.0
C439 C 0.89891 0.58197 0.99108 0.0
H440 H 0.90538 0.71234 0.02575 0.0
C441 C 0.89485 0.60578 0.96536 0.0
H442 H 0.9087 0.60432 0.03257 0.0
C443 C 0.89071 0.66762 0.96154 0.0
C444 C 0.89229 0.70685 0.98329 0.0
H445 H 0.88679 0.57661 0.94861 0.0
H446 H 0.88055 0.68437 0.94188 0.0
C447 C 0.90485 0.68337 0.00855 0.0
C448 C 0.87541 0.87021 0.71981 0.0
C449 C 0.83577 0.87863 0.74111 0.0
H450 H 0.96646 0.87183 0.7067 0.0
C451 C 0.8593 0.88287 0.76686 0.0
H452 H 0.85856 0.86853 0.69968 0.0
C453 C 0.92105 0.887 0.7708 0.0
C454 C 0.96049 0.88521 0.74913 0.0
H455 H 0.82993 0.89106 0.78355 0.0
H456 H 0.93755 0.89729 0.79047 0.0
C457 C 0.93733 0.8725 0.72384 0.0
C458 C 0.90727 0.12141 0.96971 0.0
C459 C 0.89898 0.08199 0.99109 0.0
H460 H 0.90549 0.21238 0.95644 0.0
C461 C 0.8949 0.10578 0.01681 0.0
H462 H 0.90883 0.10436 0.94961 0.0
C463 C 0.89075 0.16761 0.02064 0.0
C464 C 0.89235 0.20686 -0.00111 0.0
H465 H 0.88682 0.0766 0.03356 0.0
H466 H 0.88057 0.18435 0.0403 0.0
C467 C 0.90495 0.1834 0.97364 0.0
C468 C 0.59107 0.15509 0.22388 0.0
C469 C 0.56801 0.14242 0.24919 0.0
H470 H 0.66974 0.15901 0.19966 0.0
C471 C 0.60753 0.14066 0.27083 0.0
H472 H 0.56187 0.15575 0.20676 0.0
C473 C 0.66927 0.14477 0.26685 0.0
C474 C 0.69271 0.14898 0.24108 0.0
H475 H 0.5911 0.1304 0.29052 0.0
H476 H 0.69869 0.13659 0.28353 0.0
C477 C 0.65298 0.15737 0.2198 0.0
C478 C 0.63691 0.8592 0.52051 0.0
C479 C 0.63542 0.81988 0.49879 0.0
H480 H 0.64072 0.95023 0.53339 0.0
C481 C 0.62287 0.84325 0.47351 0.0
H482 H 0.64706 0.84252 0.54018 0.0
C483 C 0.62049 0.90524 0.46955 0.0
C484 C 0.62868 0.94472 0.49091 0.0
H485 H 0.6224 0.81421 0.45633 0.0
H486 H 0.61897 0.92221 0.44943 0.0
C487 C 0.6327 0.92101 0.51664 0.0
C488 C 0.1075 0.14047 0.21163 0.0
C489 C 0.06797 0.14225 0.23328 0.0
H490 H 0.19865 0.13643 0.19895 0.0
C491 C 0.09103 0.15499 0.25858 0.0
H492 H 0.09107 0.13016 0.19195 0.0
C493 C 0.15294 0.15731 0.26266 0.0
C494 C 0.19267 0.1489 0.24139 0.0
H495 H 0.06183 0.15568 0.2757 0.0
H496 H 0.1697 0.15901 0.28281 0.0
C497 C 0.16923 0.14463 0.21562 0.0
C498 C 0.12001 0.90454 0.01276 0.0
C499 C 0.12829 0.94418 -0.00853 0.0
H500 H 0.12185 0.81344 0.02585 0.0
C501 C 0.13243 0.92066 0.9657 0.0
H502 H 0.1184 0.92138 0.0329 0.0
C503 C 0.13665 0.85887 0.96175 0.0
C504 C 0.13505 0.8194 0.98342 0.0
H505 H 0.14049 0.95002 0.94901 0.0
H506 H 0.14687 0.84234 0.94206 0.0
C507 C 0.1224 0.84259 0.00872 0.0
C508 C 0.421 0.88694 0.71172 0.0
C509 C 0.46049 0.88524 0.73338 0.0
H510 H 0.32987 0.89087 0.69899 0.0
C511 C 0.4374 0.87255 0.75868 0.0
H512 H 0.43746 0.89721 0.69204 0.0
C513 C 0.37548 0.87019 0.76273 0.0
C514 C 0.33579 0.87852 0.74144 0.0
H515 H 0.46657 0.87193 0.77581 0.0
H516 H 0.35869 0.86853 0.78287 0.0
C517 C 0.35927 0.88273 0.71568 0.0
C518 C 0.40543 0.18409 0.50865 0.0
C519 C 0.39271 0.20735 0.48337 0.0
H520 H 0.40945 0.10525 0.5328 0.0
C521 C 0.39099 0.16794 0.46169 0.0
H522 H 0.40607 0.21321 0.5258 0.0
C523 C 0.39517 0.10614 0.46561 0.0
C524 C 0.39941 0.08254 0.49136 0.0
H525 H 0.38071 0.18453 0.44202 0.0
H526 H 0.38701 0.07683 0.44891 0.0
C527 C 0.40779 0.12212 0.51267 0.0
C528 C 0.22893 0.74591 0.26258 0.0
C529 C 0.2548 0.7027 0.24592 0.0
H530 H 0.21849 0.8384 0.27133 0.0
C531 C 0.29069 0.72096 0.22466 0.0
H532 H 0.20019 0.73334 0.27891 0.0
C533 C 0.30018 0.78128 0.22002 0.0
C534 C 0.27428 0.82448 0.23667 0.0
H535 H 0.31061 0.68879 0.21127 0.0
H536 H 0.32891 0.79384 0.20369 0.0
C537 C 0.23841 0.80623 0.25795 0.0
C538 C 0.05711 0.54016 0.47468 0.0
C539 C 0.07513 0.50371 0.49585 0.0
H540 H 0.98448 0.57927 0.45369 0.0
C541 C 0.03177 0.47773 0.51229 0.0
H542 H 0.08942 0.56019 0.46146 0.0
C543 C 0.97153 0.48766 0.50755 0.0
C544 C 0.95351 0.52408 0.48637 0.0
H545 H 0.04415 0.44856 0.52854 0.0
H546 H 0.93922 0.46763 0.52077 0.0
C547 C 0.99687 0.55009 0.46994 0.0
C548 C 0.23864 0.30627 0.72437 0.0
C549 C 0.27428 0.32458 0.74571 0.0
H550 H 0.20063 0.23335 0.70336 0.0
C551 C 0.29999 0.28141 0.76245 0.0
H552 H 0.21887 0.33841 0.71092 0.0
C553 C 0.29054 0.22108 0.75782 0.0
C554 C 0.25486 0.20278 0.73649 0.0
H555 H 0.32854 0.29401 0.77884 0.0
H556 H 0.3103 0.18894 0.77127 0.0
C557 C 0.22919 0.24595 0.71974 0.0
C558 C 0.53098 0.47653 0.9692 0.0
C559 C 0.5744 0.50278 0.98554 0.0
H560 H 0.43836 0.46628 0.96084 0.0
C561 C 0.55646 0.53967 0.00656 0.0
H562 H 0.54332 0.44706 0.95306 0.0
C563 C 0.49625 0.54963 0.01133 0.0
C564 C 0.45281 0.52327 -0.00496 0.0
H565 H 0.58881 0.55996 0.01968 0.0
H566 H 0.48396 0.57907 0.02749 0.0
C567 C 0.47074 0.48655 0.97396 0.0
C568 C 0.73725 0.30669 0.75715 0.0
C569 C 0.77361 0.32471 0.736 0.0
H570 H 0.69878 0.23405 0.77818 0.0
C571 C 0.79999 0.28132 0.71959 0.0
H572 H 0.7169 0.33902 0.77033 0.0
C573 C 0.7906 0.22104 0.72439 0.0
C574 C 0.75434 0.20303 0.74557 0.0
H575 H 0.82909 0.2937 0.70336 0.0
H576 H 0.81095 0.1887 0.71121 0.0
C577 C 0.72788 0.24643 0.76195 0.0
C578 C 0.80052 0.78108 0.26224 0.0
C579 C 0.77419 0.82445 0.2458 0.0
H580 H 0.81141 0.68849 0.27067 0.0
C581 C 0.73801 0.80639 0.22459 0.0
H582 H 0.82951 0.79349 0.2785 0.0
C583 C 0.72865 0.74612 0.21981 0.0
C584 C 0.75495 0.70275 0.23625 0.0
H585 H 0.71775 0.8387 0.21137 0.0
H586 H 0.69965 0.73371 0.20354 0.0
C587 C 0.79115 0.7208 0.25745 0.0
C588 C 0.531 0.97645 0.0128 0.0
C589 C 0.57437 1.00268 -0.00358 0.0
H590 H 0.43843 0.96624 0.02123 0.0
C591 C 0.55635 0.03946 0.97538 0.0
H592 H 0.5434 0.94704 0.02895 0.0
C593 C 0.49612 0.04942 0.97064 0.0
C594 C 0.45275 0.02316 0.987 0.0
H595 H 0.58865 0.0597 0.96222 0.0
H596 H 0.48375 0.07883 0.95448 0.0
C597 C 0.47075 0.98646 0.00808 0.0
C598 C 0.0568 0.03938 0.50795 0.0
C599 C 0.07487 1.003 0.48678 0.0
H600 H 0.98411 0.07846 0.52891 0.0
C601 C 0.03154 0.97696 0.47032 0.0
H602 H 0.08908 0.05941 0.52119 0.0
C603 C 0.97129 0.98687 0.47504 0.0
C604 C 0.95322 0.02335 0.49619 0.0
H605 H 0.04396 0.94781 0.45408 0.0
H606 H 0.93902 0.96685 0.4618 0.0
C607 C 0.99654 0.04929 0.51267 0.0
C608 C 0.18702 0.39255 0.34595 0.0
C609 C 0.18151 0.45217 0.33742 0.0
H610 H 0.21121 0.33307 0.37764 0.0
C611 C 0.19936 0.49787 0.3547 0.0
H612 H 0.17424 0.35619 0.33302 0.0
C613 C 0.22162 0.48464 0.37983 0.0
C614 C 0.22616 0.42526 0.3887 0.0
H615 H 0.19671 0.54423 0.34878 0.0
H616 H 0.23424 0.52151 0.39251 0.0
C617 C 0.20883 0.37922 0.3714 0.0
C618 C 0.29226 0.47129 0.62961 0.0
C619 C 0.35154 0.47543 0.63858 0.0
H620 H 0.23291 0.44625 0.59856 0.0
C621 C 0.39767 0.4573 0.62144 0.0
H622 H 0.25533 0.48454 0.64217 0.0
C623 C 0.38453 0.43504 0.59606 0.0
C624 C 0.325 0.42988 0.58746 0.0
H625 H 0.44375 0.45936 0.62776 0.0
H626 H 0.42097 0.42162 0.58326 0.0
C627 C 0.27921 0.44858 0.60456 0.0
C628 C 0.32701 0.52966 0.8543 0.0
C629 C 0.34616 0.57527 0.83726 0.0
H630 H 0.2909 0.5061 0.89188 0.0
C631 C 0.34155 0.63485 0.84594 0.0
H632 H 0.32888 0.48335 0.84823 0.0
C633 C 0.31949 0.64818 0.87134 0.0
C634 C 0.30098 0.60221 0.88843 0.0
H635 H 0.35532 0.67116 0.83318 0.0
H636 H 0.31792 0.69426 0.87773 0.0
C637 C 0.30448 0.54291 0.87937 0.0
C638 C 0.14384 0.5918 0.09602 0.0
C639 C 0.20334 0.59671 0.08735 0.0
H640 H 0.08471 0.56792 0.12781 0.0
C641 C 0.24917 0.578 0.10444 0.0
H642 H 0.10737 0.60523 0.08323 0.0
C643 C 0.23618 0.55557 0.12954 0.0
C644 C 0.17694 0.55169 0.13857 0.0
H645 H 0.29543 0.58016 0.09839 0.0
H646 H 0.27313 0.54231 0.14209 0.0
C647 C 0.13077 0.56979 0.12144 0.0
C648 C 0.81963 0.64818 0.61074 0.0
C649 C 0.80215 0.60216 0.59346 0.0
H650 H 0.85441 0.6712 0.64909 0.0
C651 C 0.80657 0.54279 0.60235 0.0
H652 H 0.81733 0.69433 0.60448 0.0
C653 C 0.82889 0.52954 0.62746 0.0
C654 C 0.84692 0.57522 0.64471 0.0
H655 H 0.79382 0.50594 0.58968 0.0
H656 H 0.83145 0.48318 0.6334 0.0
C657 C 0.8415 0.63484 0.63618 0.0
C658 C 0.73654 0.55686 0.3524 0.0
C659 C 0.67726 0.55234 0.34347 0.0
H660 H 0.79582 0.5821 0.38344 0.0
C661 C 0.63107 0.57007 0.36066 0.0
H662 H 0.77352 0.54393 0.3398 0.0
C663 C 0.64415 0.59227 0.38606 0.0
C664 C 0.70367 0.59776 0.39464 0.0
H665 H 0.58498 0.56773 0.35437 0.0
H666 H 0.60766 0.60536 0.3989 0.0
C667 C 0.74953 0.57949 0.37747 0.0
C668 C 0.71988 0.48486 0.10194 0.0
C669 C 0.72518 0.42543 0.09322 0.0
H670 H 0.69463 0.54452 0.13292 0.0
C671 C 0.70875 0.37939 0.11069 0.0
H672 H 0.73177 0.52173 0.08912 0.0
C673 C 0.68714 0.39275 0.13617 0.0
C674 C 0.68097 0.4524 0.14457 0.0
H675 H 0.71173 0.33319 0.10457 0.0
H676 H 0.6751 0.35637 0.14923 0.0
C677 C 0.69786 0.49812 0.12711 0.0
C678 C 0.79149 0.46825 0.85209 0.0
C679 C 0.85081 0.47403 0.84338 0.0
H680 H 0.7322 0.4419 0.88295 0.0
C681 C 0.89705 0.45725 0.86073 0.0
H682 H 0.75447 0.48036 0.83936 0.0
C683 C 0.88399 0.43488 0.8861 0.0
C684 C 0.82445 0.42825 0.89449 0.0
H685 H 0.94318 0.46056 0.85461 0.0
H686 H 0.92052 0.42263 0.89908 0.0
C687 C 0.77853 0.44545 0.87714 0.0
C688 C 0.69871 0.99816 0.85495 0.0
C689 C 0.68124 0.95251 0.83757 0.0
H690 H 0.73308 0.02165 0.89288 0.0
C691 C 0.6869 0.89285 0.84602 0.0
H692 H 0.6959 0.04455 0.84909 0.0
C693 C 0.70853 0.87943 0.8715 0.0
C694 C 0.72548 0.92541 0.8889 0.0
H695 H 0.67441 0.85652 0.83302 0.0
H696 H 0.71107 0.83324 0.87767 0.0
C697 C 0.72075 0.98483 0.88011 0.0
C698 C 0.88417 0.93467 0.0961 0.0
C699 C 0.82462 0.92884 0.08761 0.0
H700 H 0.94344 0.95968 0.12768 0.0
C701 C 0.7788 0.94694 0.10482 0.0
H702 H 0.92063 0.92173 0.08321 0.0
C703 C 0.79185 0.96977 0.12985 0.0
C704 C 0.85117 0.97466 0.13869 0.0
H705 H 0.73247 0.94406 0.09892 0.0
H706 H 0.75489 0.98256 0.14249 0.0
C707 C 0.89732 0.95706 0.12146 0.0
C708 C 0.81974 0.14782 0.37145 0.0
C709 C 0.80261 0.10176 0.38877 0.0
H710 H 0.85415 0.17089 0.33304 0.0
C711 C 0.80736 0.04238 0.37993 0.0
H712 H 0.81719 0.19397 0.37766 0.0
C713 C 0.82959 0.02916 0.3548 0.0
C714 C 0.84722 0.07489 0.33749 0.0
H715 H 0.7949 1.0055 0.39264 0.0
H716 H 0.83239 0.9828 0.3489 0.0
C717 C 0.84153 0.13451 0.34599 0.0
C718 C 0.74904 0.07883 0.60462 0.0
C719 C 0.70326 0.09758 0.58751 0.0
H720 H 0.77292 0.04288 0.64223 0.0
C721 C 0.64373 0.0925 0.59613 0.0
H722 H 0.79533 0.08109 0.59861 0.0
C723 C 0.63059 0.07029 0.62152 0.0
C724 C 0.67672 0.05212 0.63866 0.0
H725 H 0.6073 0.10596 0.58333 0.0
H726 H 0.58451 0.06831 0.62785 0.0
C727 C 0.73599 0.05617 0.62968 0.0
C728 C 0.31946 0.14797 0.11106 0.0
C729 C 0.30139 0.10195 0.0939 0.0
H730 H 0.35487 0.17101 0.14929 0.0
C731 C 0.30531 0.04263 0.1029 0.0
H732 H 0.31755 0.19407 0.10472 0.0
C733 C 0.32777 0.02941 0.12799 0.0
C734 C 0.34644 0.07508 0.14511 0.0
H735 H 0.29208 1.00578 0.09033 0.0
H736 H 0.32996 0.98308 0.13401 0.0
C737 C 0.34147 0.13466 0.13648 0.0
C738 C 0.2489 0.07836 0.87792 0.0
C739 C 0.20306 0.09698 0.89502 0.0
H740 H 0.27289 0.04273 0.84026 0.0
C741 C 0.14356 0.092 0.88635 0.0
H742 H 0.29517 0.08057 0.88396 0.0
C743 C 0.1305 0.07 0.86092 0.0
C744 C 0.17668 0.05197 0.84379 0.0
H745 H 0.10709 0.10536 0.89915 0.0
H746 H 0.08444 0.06807 0.85456 0.0
C747 C 0.23592 0.05593 0.85281 0.0
C748 C 0.1868 0.89252 0.63642 0.0
C749 C 0.18179 0.95215 0.64499 0.0
H750 H 0.21061 0.83297 0.6047 0.0
C751 C 0.20025 0.99775 0.62779 0.0
H752 H 0.17355 0.85622 0.64929 0.0
C753 C 0.22257 0.98443 0.60268 0.0
C754 C 0.22655 0.92506 0.59375 0.0
H755 H 0.19802 0.04411 0.63376 0.0
H756 H 0.23565 0.02123 0.59006 0.0
C757 C 0.20867 0.87911 0.61098 0.0
C758 C 0.29223 0.97115 0.35279 0.0
C759 C 0.35151 0.97533 0.34384 0.0
H760 H 0.23287 0.94612 0.38384 0.0
C761 C 0.39764 0.95729 0.361 0.0
H762 H 0.2553 0.98434 0.34021 0.0
C763 C 0.3845 0.93507 0.38638 0.0
C764 C 0.32496 0.92987 0.39498 0.0
H765 H 0.44373 0.95938 0.35469 0.0
H766 H 0.42093 0.92171 0.3992 0.0
C767 C 0.27917 0.94849 0.37785 0.0
C768 C 0.02065 0.73297 0.27109 0.0
C769 C 0.02658 0.70124 0.24711 0.0
H770 H 1.00313 0.81708 0.28994 0.0
C771 C 0.02021 0.73298 0.22316 0.0
H772 H 0.02595 0.71039 0.28994 0.0
C773 C 1.00851 0.79442 0.22316 0.0
C774 C 1.00227 0.82619 0.2471 0.0
H775 H 0.02525 0.71057 0.20426 0.0
H776 H 1.00337 0.8168 0.20426 0.0
C777 C 1.00834 0.79448 0.27109 0.0
C778 C 0.04496 0.2696 0.52116 0.0
C779 C 0.07666 0.27536 0.49717 0.0
H780 H 0.96089 0.25263 0.54002 0.0
C781 C 0.0449 0.26927 0.47324 0.0
H782 H 0.06755 0.2747 0.54001 0.0
C783 C 0.98347 0.258 0.47324 0.0
C784 C 0.95174 0.25193 0.49718 0.0
H785 H 0.06727 0.2742 0.45433 0.0
H786 H 0.96108 0.25306 0.45434 0.0
C787 C 0.98346 0.25772 0.52117 0.0
C788 C 0.50839 0.29492 0.77118 0.0
C789 C 0.50229 0.32656 0.74718 0.0
H790 H 0.52603 0.21086 0.79006 0.0
C791 C 0.50849 0.29474 0.72325 0.0
H792 H 0.50321 0.31757 0.79002 0.0
C793 C 0.52017 0.23329 0.72328 0.0
C794 C 0.52657 0.20161 0.74723 0.0
H795 H 0.50332 0.31708 0.70434 0.0
H796 H 0.52518 0.21085 0.70438 0.0
C797 C 0.52069 0.2334 0.7712 0.0
C798 C 0.54445 0.7688 0.97317 0.0
C799 C 0.5763 0.77441 -0.00289 0.0
H800 H 0.46055 0.75302 0.95426 0.0
C801 C 0.54468 0.76821 0.02109 0.0
H802 H 0.56677 0.77407 0.95427 0.0
C803 C 0.48317 0.75639 0.02109 0.0
C804 C 0.45136 0.75109 -0.00289 0.0
H805 H 0.56734 0.77293 0.03994 0.0
H806 H 0.46066 0.75096 0.03993 0.0
C807 C 0.48302 0.75759 0.97317 0.0
C808 C 0.02009 0.23316 0.75902 0.0
C809 C 0.02657 0.20142 0.73509 0.0
H810 H 1.00314 0.31698 0.77791 0.0
C811 C 0.02072 0.23314 0.7111 0.0
H812 H 0.02507 0.21076 0.77793 0.0
C813 C 1.00838 0.29465 0.71108 0.0
C814 C 1.0022 0.32635 0.73506 0.0
H815 H 0.02612 0.21056 0.69226 0.0
H816 H 1.00323 0.31725 0.69223 0.0
C817 C 1.00837 0.29459 0.75901 0.0
C818 C 0.98354 0.75782 0.46115 0.0
C819 C 0.95174 0.75213 0.48511 0.0
H820 H 0.06772 0.7746 0.44235 0.0
C821 C 0.98343 0.7582 0.50907 0.0
H822 H 0.96101 0.75273 0.44228 0.0
C823 C 0.04487 0.76935 0.50911 0.0
C824 C 0.07671 0.77532 0.48519 0.0
H825 H 0.96097 0.75333 0.52796 0.0
H826 H 0.06721 0.77428 0.52803 0.0
C827 C 0.04506 0.76957 0.46118 0.0
C828 C 0.52025 0.73309 0.25907 0.0
C829 C 0.52667 0.70148 0.2351 0.0
H830 H 0.50334 0.8168 0.27806 0.0
C831 C 0.52078 0.73334 0.21115 0.0
H832 H 0.52525 0.71058 0.27796 0.0
C833 C 0.50846 0.79485 0.21121 0.0
C834 C 0.50233 0.82642 0.23523 0.0
H835 H 0.52614 0.71086 0.19228 0.0
H836 H 0.50329 0.81756 0.19238 0.0
C837 C 0.50853 0.79452 0.25913 0.0
C838 C 0.48301 0.25643 0.96126 0.0
C839 C 0.45129 0.25108 0.98526 0.0
H840 H 0.56712 0.27295 0.94236 0.0
C841 C 0.48305 0.25745 0.00918 0.0
H842 H 0.46042 0.25108 0.94242 0.0
C843 C 0.54449 0.26862 0.00915 0.0
C844 C 0.57625 0.27428 0.98519 0.0
H845 H 0.46065 0.25284 0.0281 0.0
H846 H 0.56689 0.2738 0.02803 0.0
C847 C 0.54453 0.26818 0.96122 0.0
loop_
_geom_bond_atom_site_label_1
_geom_bond_atom_site_label_2
_geom_bond_distance
_geom_bond_site_symmetry_2
_ccdc_geom_bond_type
O0 Zn1 1.953 . S
O0 C16 1.225 . S
Zn1 O0 1.953 . S
Zn1 O2 1.949 . S
Zn1 O8 1.919 . S
Zn1 O13 1.924 . S
O2 Zn1 1.949 . S
O2 Zn3 1.923 . S
O2 Zn4 1.950 . S
O2 Zn5 1.945 . S
Zn3 O2 1.923 . S
Zn3 O6 1.933 . S
Zn3 O9 1.941 . S
Zn3 O10 1.965 . S
Zn4 O2 1.950 . S
Zn4 O11 1.938 . S
Zn4 O12 1.906 . S
Zn4 O22 1.953 . S
Zn5 O2 1.945 . S
Zn5 O7 1.932 . S
Zn5 O14 1.977 . S
Zn5 O15 1.910 . S
O6 Zn3 1.933 . S
O6 C17 1.226 . S
O7 Zn5 1.932 . S
O7 C17 1.307 . S
O8 Zn1 1.919 . S
O8 C19 1.253 . S
O9 Zn3 1.941 . S
O9 C19 1.283 . S
O10 Zn3 1.965 . S
O10 C18 1.303 . S
O11 Zn4 1.938 . S
O11 C18 1.247 . S
O12 Zn4 1.906 . S
O12 C20 1.304 . S
O13 Zn1 1.924 . S
O13 C21 1.311 . S
O14 Zn5 1.977 . S
O14 C20 1.272 . S
O15 Zn5 1.910 . S
O15 C21 1.231 . S
C16 O0 1.225 . S
C16 O22 1.298 . S
C17 O6 1.226 . S
C17 O7 1.307 . S
C18 O10 1.303 . S
C18 O11 1.247 . S
C19 O8 1.253 . S
C19 O9 1.283 . S
C20 O12 1.304 . S
C20 O14 1.272 . S
C21 O13 1.311 . S
C21 O15 1.231 . S
O22 Zn4 1.953 . S
O22 C16 1.298 . S
O23 Zn24 1.953 . S
O23 C39 1.225 . S
Zn24 O23 1.953 . S
Zn24 O25 1.949 . S
Zn24 O31 1.919 . S
Zn24 O36 1.924 . S
O25 Zn24 1.949 . S
O25 Zn26 1.923 . S
O25 Zn27 1.950 . S
O25 Zn28 1.945 . S
Zn26 O25 1.923 . S
Zn26 O29 1.933 . S
Zn26 O32 1.941 . S
Zn26 O33 1.965 . S
Zn27 O25 1.950 . S
Zn27 O34 1.938 . S
Zn27 O35 1.906 . S
Zn27 O45 1.953 . S
Zn28 O25 1.945 . S
Zn28 O30 1.932 . S
Zn28 O37 1.977 . S
Zn28 O38 1.910 . S
O29 Zn26 1.933 . S
O29 C40 1.226 . S
O30 Zn28 1.932 . S
O30 C40 1.307 . S
O31 Zn24 1.919 . S
O31 C42 1.253 . S
O32 Zn26 1.941 . S
O32 C42 1.283 . S
O33 Zn26 1.965 . S
O33 C41 1.303 . S
O34 Zn27 1.938 . S
O34 C41 1.247 . S
O35 Zn27 1.906 . S
O35 C43 1.304 . S
O36 Zn24 1.924 . S
O36 C44 1.311 . S
O37 Zn28 1.977 . S
O37 C43 1.272 . S
O38 Zn28 1.910 . S
O38 C44 1.231 . S
C39 O23 1.225 . S
C39 O45 1.298 . S
C40 O29 1.226 . S
C40 O30 1.307 . S
C41 O33 1.303 . S
C41 O34 1.247 . S
C42 O31 1.253 . S
C42 O32 1.283 . S
C43 O35 1.304 . S
C43 O37 1.272 . S
C44 O36 1.311 . S
C44 O38 1.231 . S
O45 Zn27 1.953 . S
O45 C39 1.298 . S
O46 Zn47 1.953 . S
O46 C62 1.225 . S
Zn47 O46 1.953 . S
Zn47 O48 1.949 . S
Zn47 O54 1.919 . S
Zn47 O59 1.924 . S
O48 Zn47 1.949 . S
O48 Zn49 1.923 . S
O48 Zn50 1.950 . S
O48 Zn51 1.945 . S
Zn49 O48 1.923 . S
Zn49 O52 1.933 . S
Zn49 O55 1.941 . S
Zn49 O56 1.965 . S
Zn50 O48 1.950 . S
Zn50 O57 1.938 . S
Zn50 O58 1.906 . S
Zn50 O68 1.953 . S
Zn51 O48 1.945 . S
Zn51 O53 1.932 . S
Zn51 O60 1.977 . S
Zn51 O61 1.910 . S
O52 Zn49 1.933 . S
O52 C63 1.226 . S
O53 Zn51 1.932 . S
O53 C63 1.307 . S
O54 Zn47 1.919 . S
O54 C65 1.253 . S
O55 Zn49 1.941 . S
O55 C65 1.283 . S
O56 Zn49 1.965 . S
O56 C64 1.303 . S
O57 Zn50 1.938 . S
O57 C64 1.247 . S
O58 Zn50 1.906 . S
O58 C66 1.304 . S
O59 Zn47 1.924 . S
O59 C67 1.311 . S
O60 Zn51 1.977 . S
O60 C66 1.272 . S
O61 Zn51 1.910 . S
O61 C67 1.231 . S
C62 O46 1.225 . S
C62 O68 1.298 . S
C63 O52 1.226 . S
C63 O53 1.307 . S
C64 O56 1.303 . S
C64 O57 1.247 . S
C65 O54 1.253 . S
C65 O55 1.283 . S
C66 O58 1.304 . S
C66 O60 1.272 . S
C67 O59 1.311 . S
C67 O61 1.231 . S
O68 Zn50 1.953 . S
O68 C62 1.298 . S
O69 Zn70 1.953 . S
O69 C85 1.225 . S
Zn70 O69 1.953 . S
Zn70 O71 1.936 1_554 S
Zn70 O77 1.919 . S
Zn70 O82 1.924 . S
O71 Zn70 1.936 1_556 S
O71 Zn72 1.917 1_556 S
O71 Zn73 1.962 . S
O71 Zn74 1.952 . S
Zn72 O71 1.917 1_554 S
Zn72 O75 1.933 . S
Zn72 O78 1.941 . S
Zn72 O79 1.965 . S
Zn73 O71 1.962 . S
Zn73 O80 1.938 . S
Zn73 O81 1.906 . S
Zn73 O91 1.953 . S
Zn74 O71 1.952 . S
Zn74 O76 1.932 . S
Zn74 O83 1.977 . S
Zn74 O84 1.910 . S
O75 Zn72 1.933 . S
O75 C86 1.226 1_554 S
O76 Zn74 1.932 . S
O76 C86 1.307 . S
O77 Zn70 1.919 . S
O77 C88 1.253 . S
O78 Zn72 1.941 . S
O78 C88 1.283 . S
O79 Zn72 1.965 . S
O79 C87 1.303 1_554 S
O80 Zn73 1.938 . S
O80 C87 1.247 . S
O81 Zn73 1.906 . S
O81 C89 1.304 . S
O82 Zn70 1.924 . S
O82 C90 1.311 . S
O83 Zn74 1.977 . S
O83 C89 1.272 . S
O84 Zn74 1.910 . S
O84 C90 1.231 1_556 S
C85 O69 1.225 . S
C85 O91 1.298 1_554 S
C86 O75 1.226 1_556 S
C86 O76 1.307 . S
C87 O79 1.303 1_556 S
C87 O80 1.247 . S
C88 O77 1.253 . S
C88 O78 1.283 . S
C89 O81 1.304 . S
C89 O83 1.272 . S
C90 O82 1.311 . S
C90 O84 1.231 1_554 S
O91 Zn73 1.953 . S
O91 C85 1.298 1_556 S
O92 Zn93 1.953 . S
O92 C108 1.225 . S
Zn93 O92 1.953 . S
Zn93 O94 1.949 . S
Zn93 O100 1.919 . S
Zn93 O105 1.924 . S
O94 Zn93 1.949 . S
O94 Zn95 1.923 . S
O94 Zn96 1.950 . S
O94 Zn97 1.945 . S
Zn95 O94 1.923 . S
Zn95 O98 1.933 . S
Zn95 O101 1.941 . S
Zn95 O102 1.965 . S
Zn96 O94 1.950 . S
Zn96 O103 1.938 . S
Zn96 O104 1.906 . S
Zn96 O114 1.953 . S
Zn97 O94 1.945 . S
Zn97 O99 1.932 . S
Zn97 O106 1.977 . S
Zn97 O107 1.910 . S
O98 Zn95 1.933 . S
O98 C109 1.226 . S
O99 Zn97 1.932 . S
O99 C109 1.307 . S
O100 Zn93 1.919 . S
O100 C111 1.253 . S
O101 Zn95 1.941 . S
O101 C111 1.283 . S
O102 Zn95 1.965 . S
O102 C110 1.303 . S
O103 Zn96 1.938 . S
O103 C110 1.247 . S
O104 Zn96 1.906 . S
O104 C112 1.304 . S
O105 Zn93 1.924 . S
O105 C113 1.311 . S
O106 Zn97 1.977 . S
O106 C112 1.272 . S
O107 Zn97 1.910 . S
O107 C113 1.231 . S
C108 O92 1.225 . S
C108 O114 1.298 . S
C109 O98 1.226 . S
C109 O99 1.307 . S
C110 O102 1.303 . S
C110 O103 1.247 . S
C111 O100 1.253 . S
C111 O101 1.283 . S
C112 O104 1.304 . S
C112 O106 1.272 . S
C113 O105 1.311 . S
C113 O107 1.231 . S
O114 Zn96 1.953 . S
O114 C108 1.298 . S
O115 Zn116 1.953 . S
O115 C131 1.225 . S
Zn116 O115 1.953 . S
Zn116 O117 1.949 . S
Zn116 O123 1.919 . S
Zn116 O128 1.924 . S
O117 Zn116 1.949 . S
O117 Zn118 1.923 . S
O117 Zn119 1.950 . S
O117 Zn120 1.945 . S
Zn118 O117 1.923 . S
Zn118 O121 1.933 . S
Zn118 O124 1.941 . S
Zn118 O125 1.965 . S
Zn119 O117 1.950 . S
Zn119 O126 1.938 . S
Zn119 O127 1.906 . S
Zn119 O137 1.953 . S
Zn120 O117 1.945 . S
Zn120 O122 1.932 . S
Zn120 O129 1.977 . S
Zn120 O130 1.910 . S
O121 Zn118 1.933 . S
O121 C132 1.226 . S
O122 Zn120 1.932 . S
O122 C132 1.307 . S
O123 Zn116 1.919 . S
O123 C134 1.253 . S
O124 Zn118 1.941 . S
O124 C134 1.283 . S
O125 Zn118 1.965 . S
O125 C133 1.303 . S
O126 Zn119 1.938 . S
O126 C133 1.247 . S
O127 Zn119 1.906 . S
O127 C135 1.304 . S
O128 Zn116 1.924 . S
O128 C136 1.311 . S
O129 Zn120 1.977 . S
O129 C135 1.272 . S
O130 Zn120 1.910 . S
O130 C136 1.231 . S
C131 O115 1.225 . S
C131 O137 1.298 . S
C132 O121 1.226 . S
C132 O122 1.307 . S
C133 O125 1.303 . S
C133 O126 1.247 . S
C134 O123 1.253 . S
C134 O124 1.283 . S
C135 O127 1.304 . S
C135 O129 1.272 . S
C136 O128 1.311 . S
C136 O130 1.231 . S
O137 Zn119 1.953 . S
O137 C131 1.298 . S
O138 Zn139 1.953 . S
O138 C154 1.225 . S
Zn139 O138 1.953 . S
Zn139 O140 1.949 . S
Zn139 O146 1.919 . S
Zn139 O151 1.924 . S
O140 Zn139 1.949 . S
O140 Zn141 1.923 . S
O140 Zn142 1.950 . S
O140 Zn143 1.945 . S
Zn141 O140 1.923 . S
Zn141 O144 1.933 . S
Zn141 O147 1.941 . S
Zn141 O148 1.965 . S
Zn142 O140 1.950 . S
Zn142 O149 1.938 . S
Zn142 O150 1.906 . S
Zn142 O160 1.953 . S
Zn143 O140 1.945 . S
Zn143 O145 1.932 . S
Zn143 O152 1.977 . S
Zn143 O153 1.910 . S
O144 Zn141 1.933 . S
O144 C155 1.226 . S
O145 Zn143 1.932 . S
O145 C155 1.307 . S
O146 Zn139 1.919 . S
O146 C157 1.253 . S
O147 Zn141 1.941 . S
O147 C157 1.283 . S
O148 Zn141 1.965 . S
O148 C156 1.303 . S
O149 Zn142 1.938 . S
O149 C156 1.247 . S
O150 Zn142 1.906 . S
O150 C158 1.304 . S
O151 Zn139 1.924 . S
O151 C159 1.311 . S
O152 Zn143 1.977 . S
O152 C158 1.272 . S
O153 Zn143 1.910 . S
O153 C159 1.231 . S
C154 O138 1.225 . S
C154 O160 1.298 . S
C155 O144 1.226 . S
C155 O145 1.307 . S
C156 O148 1.303 . S
C156 O149 1.247 . S
C157 O146 1.253 . S
C157 O147 1.283 . S
C158 O150 1.304 . S
C158 O152 1.272 . S
C159 O151 1.311 . S
C159 O153 1.231 . S
O160 Zn142 1.953 . S
O160 C154 1.298 . S
O161 Zn162 1.953 . S
O161 C177 1.225 . S
Zn162 O161 1.953 . S
Zn162 O163 1.936 1_556 S
Zn162 O169 1.919 . S
Zn162 O174 1.924 . S
O163 Zn162 1.936 1_554 S
O163 Zn164 1.917 1_554 S
O163 Zn165 1.962 . S
O163 Zn166 1.952 . S
Zn164 O163 1.917 1_556 S
Zn164 O167 1.933 . S
Zn164 O170 1.941 . S
Zn164 O171 1.965 . S
Zn165 O163 1.962 . S
Zn165 O172 1.938 . S
Zn165 O173 1.906 . S
Zn165 O183 1.953 . S
Zn166 O163 1.952 . S
Zn166 O168 1.932 . S
Zn166 O175 1.977 . S
Zn166 O176 1.910 . S
O167 Zn164 1.933 . S
O167 C178 1.226 1_556 S
O168 Zn166 1.932 . S
O168 C178 1.307 . S
O169 Zn162 1.919 . S
O169 C180 1.253 . S
O170 Zn164 1.941 . S
O170 C180 1.283 . S
O171 Zn164 1.965 . S
O171 C179 1.303 1_556 S
O172 Zn165 1.938 . S
O172 C179 1.247 . S
O173 Zn165 1.906 . S
O173 C181 1.304 . S
O174 Zn162 1.924 . S
O174 C182 1.311 . S
O175 Zn166 1.977 . S
O175 C181 1.272 . S
O176 Zn166 1.910 . S
O176 C182 1.231 1_554 S
C177 O161 1.225 . S
C177 O183 1.298 1_556 S
C178 O167 1.226 1_554 S
C178 O168 1.307 . S
C179 O171 1.303 1_554 S
C179 O172 1.247 . S
C180 O169 1.253 . S
C180 O170 1.283 . S
C181 O173 1.304 . S
C181 O175 1.272 . S
C182 O174 1.311 . S
C182 O176 1.231 1_556 S
O183 Zn165 1.953 . S
O183 C177 1.298 1_554 S
O184 Zn185 1.953 . S
O184 C200 1.225 . S
Zn185 O184 1.953 . S
Zn185 O186 1.949 . S
Zn185 O192 1.919 . S
Zn185 O197 1.924 . S
O186 Zn185 1.949 . S
O186 Zn187 1.923 1_545 S
O186 Zn188 1.950 . S
O186 Zn189 1.945 . S
Zn187 O186 1.923 1_565 S
Zn187 O190 1.933 . S
Zn187 O193 1.941 . S
Zn187 O194 1.965 . S
Zn188 O186 1.950 . S
Zn188 O195 1.938 1_545 S
Zn188 O196 1.906 . S
Zn188 O206 1.953 . S
Zn189 O186 1.945 . S
Zn189 O191 1.932 1_545 S
Zn189 O198 1.977 . S
Zn189 O199 1.910 . S
O190 Zn187 1.933 . S
O190 C201 1.226 . S
O191 Zn189 1.932 1_565 S
O191 C201 1.307 . S
O192 Zn185 1.919 . S
O192 C203 1.258 . S
O193 Zn187 1.941 . S
O193 C203 1.279 1_565 S
O194 Zn187 1.965 . S
O194 C202 1.303 . S
O195 Zn188 1.938 1_565 S
O195 C202 1.247 . S
O196 Zn188 1.906 . S
O196 C204 1.304 . S
O197 Zn185 1.924 . S
O197 C205 1.311 . S
O198 Zn189 1.977 . S
O198 C204 1.272 . S
O199 Zn189 1.910 . S
O199 C205 1.231 . S
C200 O184 1.225 . S
C200 O206 1.298 . S
C201 O190 1.226 . S
C201 O191 1.307 . S
C202 O194 1.303 . S
C202 O195 1.247 . S
C203 O192 1.258 . S
C203 O193 1.279 1_545 S
C204 O196 1.304 . S
C204 O198 1.272 . S
C205 O197 1.311 . S
C205 O199 1.231 . S
O206 Zn188 1.953 . S
O206 C200 1.298 . S
O207 Zn208 1.953 . S
O207 C223 1.225 . S
Zn208 O207 1.953 . S
Zn208 O209 1.936 1_554 S
Zn208 O215 1.919 . S
Zn208 O220 1.924 . S
O209 Zn208 1.936 1_556 S
O209 Zn210 1.917 1_556 S
O209 Zn211 1.962 . S
O209 Zn212 1.952 . S
Zn210 O209 1.917 1_554 S
Zn210 O213 1.933 . S
Zn210 O216 1.941 . S
Zn210 O217 1.965 . S
Zn211 O209 1.962 . S
Zn211 O218 1.938 . S
Zn211 O219 1.906 . S
Zn211 O229 1.953 . S
Zn212 O209 1.952 . S
Zn212 O214 1.932 1_565 S
Zn212 O221 1.977 . S
Zn212 O222 1.910 1_565 S
O213 Zn210 1.933 . S
O213 C224 1.226 1_564 S
O214 Zn212 1.932 1_545 S
O214 C224 1.307 . S
O215 Zn208 1.919 . S
O215 C226 1.253 . S
O216 Zn210 1.941 . S
O216 C226 1.283 . S
O217 Zn210 1.965 . S
O217 C225 1.303 1_554 S
O218 Zn211 1.938 . S
O218 C225 1.247 . S
O219 Zn211 1.906 . S
O219 C227 1.304 . S
O220 Zn208 1.924 . S
O220 C228 1.323 . S
O221 Zn212 1.977 . S
O221 C227 1.272 . S
O222 Zn212 1.910 1_545 S
O222 C228 1.224 1_546 S
C223 O207 1.225 . S
C223 O229 1.298 1_554 S
C224 O213 1.226 1_546 S
C224 O214 1.307 . S
C225 O217 1.303 1_556 S
C225 O218 1.247 . S
C226 O215 1.253 . S
C226 O216 1.283 . S
C227 O219 1.304 . S
C227 O221 1.272 . S
C228 O220 1.323 . S
C228 O222 1.224 1_564 S
O229 Zn211 1.953 . S
O229 C223 1.298 1_556 S
O230 Zn231 1.953 . S
O230 C246 1.225 . S
Zn231 O230 1.953 . S
Zn231 O232 1.949 . S
Zn231 O238 1.919 . S
Zn231 O243 1.924 . S
O232 Zn231 1.949 . S
O232 Zn233 1.923 1_565 S
O232 Zn234 1.950 . S
O232 Zn235 1.945 . S
Zn233 O232 1.923 1_545 S
Zn233 O236 1.933 . S
Zn233 O239 1.941 . S
Zn233 O240 1.965 . S
Zn234 O232 1.950 . S
Zn234 O241 1.938 1_565 S
Zn234 O242 1.906 . S
Zn234 O252 1.953 . S
Zn235 O232 1.945 . S
Zn235 O237 1.932 1_565 S
Zn235 O244 1.977 . S
Zn235 O245 1.910 . S
O236 Zn233 1.933 . S
O236 C247 1.226 . S
O237 Zn235 1.932 1_545 S
O237 C247 1.307 . S
O238 Zn231 1.919 . S
O238 C249 1.255 . S
O239 Zn233 1.941 . S
O239 C249 1.281 1_545 S
O240 Zn233 1.965 . S
O240 C248 1.303 . S
O241 Zn234 1.938 1_545 S
O241 C248 1.247 . S
O242 Zn234 1.906 . S
O242 C250 1.304 . S
O243 Zn231 1.924 . S
O243 C251 1.311 . S
O244 Zn235 1.977 . S
O244 C250 1.272 . S
O245 Zn235 1.910 . S
O245 C251 1.231 . S
C246 O230 1.225 . S
C246 O252 1.298 . S
C247 O236 1.226 . S
C247 O237 1.307 . S
C248 O240 1.303 . S
C248 O241 1.247 . S
C249 O238 1.255 . S
C249 O239 1.281 1_565 S
C250 O242 1.304 . S
C250 O244 1.272 . S
C251 O243 1.311 . S
C251 O245 1.231 . S
O252 Zn234 1.953 . S
O252 C246 1.298 . S
O253 Zn254 1.953 . S
O253 C269 1.225 . S
Zn254 O253 1.953 . S
Zn254 O255 1.949 . S
Zn254 O261 1.919 . S
Zn254 O266 1.924 . S
O255 Zn254 1.949 . S
O255 Zn256 1.923 . S
O255 Zn257 1.950 . S
O255 Zn258 1.945 . S
Zn256 O255 1.923 . S
Zn256 O259 1.933 . S
Zn256 O262 1.941 . S
Zn256 O263 1.965 . S
Zn257 O255 1.950 . S
Zn257 O264 1.938 . S
Zn257 O265 1.906 . S
Zn257 O275 1.953 . S
Zn258 O255 1.945 . S
Zn258 O260 1.932 1_545 S
Zn258 O267 1.977 . S
Zn258 O268 1.910 1_545 S
O259 Zn256 1.933 . S
O259 C270 1.226 1_545 S
O260 Zn258 1.932 1_565 S
O260 C270 1.307 . S
O261 Zn254 1.919 . S
O261 C272 1.253 . S
O262 Zn256 1.941 . S
O262 C272 1.283 . S
O263 Zn256 1.965 . S
O263 C271 1.303 . S
O264 Zn257 1.938 . S
O264 C271 1.247 . S
O265 Zn257 1.906 . S
O265 C273 1.304 . S
O266 Zn254 1.924 . S
O266 C274 1.311 . S
O267 Zn258 1.977 . S
O267 C273 1.272 . S
O268 Zn258 1.910 1_565 S
O268 C274 1.231 1_565 S
C269 O253 1.225 . S
C269 O275 1.298 . S
C270 O259 1.226 1_565 S
C270 O260 1.307 . S
C271 O263 1.303 . S
C271 O264 1.247 . S
C272 O261 1.253 . S
C272 O262 1.283 . S
C273 O265 1.304 . S
C273 O267 1.272 . S
C274 O266 1.311 . S
C274 O268 1.231 1_545 S
O275 Zn257 1.953 . S
O275 C269 1.298 . S
O276 Zn277 1.953 . S
O276 C292 1.225 . S
Zn277 O276 1.953 . S
Zn277 O278 1.949 . S
Zn277 O284 1.919 . S
Zn277 O289 1.924 . S
O278 Zn277 1.949 . S
O278 Zn279 1.923 1_565 S
O278 Zn280 1.950 . S
O278 Zn281 1.945 . S
Zn279 O278 1.923 1_545 S
Zn279 O282 1.933 . S
Zn279 O285 1.941 . S
Zn279 O286 1.965 . S
Zn280 O278 1.950 . S
Zn280 O287 1.938 1_565 S
Zn280 O288 1.906 . S
Zn280 O298 1.953 . S
Zn281 O278 1.945 . S
Zn281 O283 1.932 1_565 S
Zn281 O290 1.977 . S
Zn281 O291 1.910 . S
O282 Zn279 1.933 . S
O282 C293 1.226 . S
O283 Zn281 1.932 1_545 S
O283 C293 1.307 . S
O284 Zn277 1.919 . S
O284 C295 1.258 . S
O285 Zn279 1.941 . S
O285 C295 1.279 1_545 S
O286 Zn279 1.965 . S
O286 C294 1.303 . S
O287 Zn280 1.938 1_545 S
O287 C294 1.247 . S
O288 Zn280 1.906 . S
O288 C296 1.304 . S
O289 Zn277 1.924 . S
O289 C297 1.311 . S
O290 Zn281 1.977 . S
O290 C296 1.272 . S
O291 Zn281 1.910 . S
O291 C297 1.231 . S
C292 O276 1.225 . S
C292 O298 1.298 . S
C293 O282 1.226 . S
C293 O283 1.307 . S
C294 O286 1.303 . S
C294 O287 1.247 . S
C295 O284 1.258 . S
C295 O285 1.279 1_565 S
C296 O288 1.304 . S
C296 O290 1.272 . S
C297 O289 1.311 . S
C297 O291 1.231 . S
O298 Zn280 1.953 . S
O298 C292 1.298 . S
O299 Zn300 1.953 . S
O299 C315 1.225 . S
Zn300 O299 1.953 . S
Zn300 O301 1.936 1_556 S
Zn300 O307 1.919 . S
Zn300 O312 1.924 . S
O301 Zn300 1.936 1_554 S
O301 Zn302 1.917 1_554 S
O301 Zn303 1.962 . S
O301 Zn304 1.952 . S
Zn302 O301 1.917 1_556 S
Zn302 O305 1.933 . S
Zn302 O308 1.941 . S
Zn302 O309 1.965 . S
Zn303 O301 1.962 . S
Zn303 O310 1.938 . S
Zn303 O311 1.906 . S
Zn303 O321 1.953 . S
Zn304 O301 1.952 . S
Zn304 O306 1.932 1_545 S
Zn304 O313 1.977 . S
Zn304 O314 1.910 1_545 S
O305 Zn302 1.933 . S
O305 C316 1.226 1_546 S
O306 Zn304 1.932 1_565 S
O306 C316 1.307 . S
O307 Zn300 1.919 . S
O307 C318 1.253 . S
O308 Zn302 1.941 . S
O308 C318 1.283 . S
O309 Zn302 1.965 . S
O309 C317 1.303 1_556 S
O310 Zn303 1.938 . S
O310 C317 1.247 . S
O311 Zn303 1.906 . S
O311 C319 1.304 . S
O312 Zn300 1.924 . S
O312 C320 1.323 . S
O313 Zn304 1.977 . S
O313 C319 1.272 . S
O314 Zn304 1.910 1_565 S
O314 C320 1.224 1_564 S
C315 O299 1.225 . S
C315 O321 1.298 1_556 S
C316 O305 1.226 1_564 S
C316 O306 1.307 . S
C317 O309 1.303 1_554 S
C317 O310 1.247 . S
C318 O307 1.253 . S
C318 O308 1.283 . S
C319 O311 1.304 . S
C319 O313 1.272 . S
C320 O312 1.323 . S
C320 O314 1.224 1_546 S
O321 Zn303 1.953 . S
O321 C315 1.298 1_554 S
O322 Zn323 1.953 . S
O322 C338 1.225 . S
Zn323 O322 1.953 . S
Zn323 O324 1.949 . S
Zn323 O330 1.919 . S
Zn323 O335 1.924 . S
O324 Zn323 1.949 . S
O324 Zn325 1.923 1_545 S
O324 Zn326 1.950 . S
O324 Zn327 1.945 . S
Zn325 O324 1.923 1_565 S
Zn325 O328 1.933 . S
Zn325 O331 1.941 . S
Zn325 O332 1.965 . S
Zn326 O324 1.950 . S
Zn326 O333 1.938 1_545 S
Zn326 O334 1.906 . S
Zn326 O344 1.953 . S
Zn327 O324 1.945 . S
Zn327 O329 1.932 1_545 S
Zn327 O336 1.977 . S
Zn327 O337 1.910 . S
O328 Zn325 1.933 . S
O328 C339 1.226 . S
O329 Zn327 1.932 1_565 S
O329 C339 1.307 . S
O330 Zn323 1.919 . S
O330 C341 1.255 . S
O331 Zn325 1.941 . S
O331 C341 1.281 1_565 S
O332 Zn325 1.965 . S
O332 C340 1.303 . S
O333 Zn326 1.938 1_565 S
O333 C340 1.247 . S
O334 Zn326 1.906 . S
O334 C342 1.304 . S
O335 Zn323 1.924 . S
O335 C343 1.311 . S
O336 Zn327 1.977 . S
O336 C342 1.272 . S
O337 Zn327 1.910 . S
O337 C343 1.231 . S
C338 O322 1.225 . S
C338 O344 1.298 . S
C339 O328 1.226 . S
C339 O329 1.307 . S
C340 O332 1.303 . S
C340 O333 1.247 . S
C341 O330 1.255 . S
C341 O331 1.281 1_545 S
C342 O334 1.304 . S
C342 O336 1.272 . S
C343 O335 1.311 . S
C343 O337 1.231 . S
O344 Zn326 1.953 . S
O344 C338 1.298 . S
O345 Zn346 1.953 . S
O345 C361 1.225 . S
Zn346 O345 1.953 . S
Zn346 O347 1.949 . S
Zn346 O353 1.919 . S
Zn346 O358 1.924 . S
O347 Zn346 1.949 . S
O347 Zn348 1.923 . S
O347 Zn349 1.950 . S
O347 Zn350 1.945 . S
Zn348 O347 1.923 . S
Zn348 O351 1.933 . S
Zn348 O354 1.941 . S
Zn348 O355 1.965 . S
Zn349 O347 1.950 . S
Zn349 O356 1.938 . S
Zn349 O357 1.906 . S
Zn349 O367 1.953 . S
Zn350 O347 1.945 . S
Zn350 O352 1.932 1_565 S
Zn350 O359 1.977 . S
Zn350 O360 1.910 1_565 S
O351 Zn348 1.933 . S
O351 C362 1.226 1_565 S
O352 Zn350 1.932 1_545 S
O352 C362 1.307 . S
O353 Zn346 1.919 . S
O353 C364 1.253 . S
O354 Zn348 1.941 . S
O354 C364 1.283 . S
O355 Zn348 1.965 . S
O355 C363 1.303 . S
O356 Zn349 1.938 . S
O356 C363 1.247 . S
O357 Zn349 1.906 . S
O357 C365 1.304 . S
O358 Zn346 1.924 . S
O358 C366 1.311 . S
O359 Zn350 1.977 . S
O359 C365 1.272 . S
O360 Zn350 1.910 1_545 S
O360 C366 1.231 1_545 S
C361 O345 1.225 . S
C361 O367 1.298 . S
C362 O351 1.226 1_545 S
C362 O352 1.307 . S
C363 O355 1.303 . S
C363 O356 1.247 . S
C364 O353 1.253 . S
C364 O354 1.283 . S
C365 O357 1.304 . S
C365 O359 1.272 . S
C366 O358 1.311 . S
C366 O360 1.231 1_565 S
O367 Zn349 1.953 . S
O367 C361 1.298 . S
C368 C369 1.387 . S
C368 H372 0.950 . S
C368 C377 1.390 . S
C369 C368 1.387 . S
C369 C371 1.387 . S
H370 C377 0.950 . S
C371 C369 1.387 . S
C371 C373 1.390 . S
C371 H375 0.950 . S
H372 C368 0.950 . S
C373 C371 1.390 . S
C373 C374 1.387 . S
C373 H376 0.950 . S
C374 C373 1.387 . S
C374 C377 1.387 . S
H375 C371 0.950 . S
H376 C373 0.950 . S
C377 C368 1.390 . S
C377 H370 0.950 . S
C377 C374 1.387 . S
C378 C379 1.387 . S
C378 H382 0.950 . S
C378 C387 1.390 . S
C379 C378 1.387 . S
C379 C381 1.387 . S
H380 C387 0.950 . S
C381 C379 1.387 . S
C381 C383 1.390 . S
C381 H385 0.950 . S
H382 C378 0.950 . S
C383 C381 1.390 . S
C383 C384 1.387 . S
C383 H386 0.950 . S
C384 C383 1.387 . S
C384 C387 1.387 . S
H385 C381 0.950 . S
H386 C383 0.950 . S
C387 C378 1.390 . S
C387 H380 0.950 . S
C387 C384 1.387 . S
C388 C389 1.387 . S
C388 H392 0.950 . S
C388 C397 1.390 . S
C389 C388 1.387 . S
C389 C391 1.387 . S
H390 C397 0.950 . S
C391 C389 1.387 . S
C391 C393 1.390 . S
C391 H395 0.950 . S
H392 C388 0.950 . S
C393 C391 1.390 . S
C393 C394 1.387 . S
C393 H396 0.950 . S
C394 C393 1.387 . S
C394 C397 1.387 . S
H395 C391 0.950 . S
H396 C393 0.950 . S
C397 C388 1.390 . S
C397 H390 0.950 . S
C397 C394 1.387 . S
C398 C399 1.387 1_556 S
C398 H402 0.950 . S
C398 C407 1.390 . S
C399 C398 1.387 1_554 S
C399 C401 1.387 . S
H400 C407 0.950 . S
C401 C399 1.387 . S
C401 C403 1.390 . S
C401 H405 0.950 . S
H402 C398 0.950 . S
C403 C401 1.390 . S
C403 C404 1.378 1_554 S
C403 H406 0.950 . S
C404 C403 1.378 1_556 S
C404 C407 1.396 . S
H405 C401 0.950 . S
H406 C403 0.950 . S
C407 C398 1.390 . S
C407 H400 0.950 . S
C407 C404 1.396 . S
C408 C409 1.387 . S
C408 H412 0.950 . S
C408 C417 1.390 . S
C409 C408 1.387 . S
C409 C411 1.387 . S
H410 C417 0.950 . S
C411 C409 1.387 . S
C411 C413 1.390 . S
C411 H415 0.950 . S
H412 C408 0.950 . S
C413 C411 1.390 . S
C413 C414 1.387 . S
C413 H416 0.950 . S
C414 C413 1.387 . S
C414 C417 1.387 . S
H415 C411 0.950 . S
H416 C413 0.950 . S
C417 C408 1.390 . S
C417 H410 0.950 . S
C417 C414 1.387 . S
C418 C419 1.387 . S
C418 H422 0.950 . S
C418 C427 1.390 . S
C419 C418 1.387 . S
C419 C421 1.387 . S
H420 C427 0.950 . S
C421 C419 1.387 . S
C421 C423 1.390 . S
C421 H425 0.950 . S
H422 C418 0.950 . S
C423 C421 1.390 . S
C423 C424 1.387 . S
C423 H426 0.950 . S
C424 C423 1.387 . S
C424 C427 1.387 . S
H425 C421 0.950 . S
H426 C423 0.950 . S
C427 C418 1.390 . S
C427 H420 0.950 . S
C427 C424 1.387 . S
C428 C429 1.387 . S
C428 H432 0.950 . S
C428 C437 1.390 . S
C429 C428 1.387 . S
C429 C431 1.387 . S
H430 C437 0.950 . S
C431 C429 1.387 . S
C431 C433 1.390 . S
C431 H435 0.950 . S
H432 C428 0.950 . S
C433 C431 1.390 . S
C433 C434 1.387 . S
C433 H436 0.950 . S
C434 C433 1.387 . S
C434 C437 1.387 . S
H435 C431 0.950 . S
H436 C433 0.950 . S
C437 C428 1.390 . S
C437 H430 0.950 . S
C437 C434 1.387 . S
C438 C439 1.407 . S
C438 H442 0.950 . S
C438 C447 1.390 . S
C439 C438 1.407 . S
C439 C441 1.367 1_554 S
H440 C447 0.950 . S
C441 C439 1.367 1_556 S
C441 C443 1.390 . S
C441 H445 0.950 . S
H442 C438 0.950 . S
C443 C441 1.390 . S
C443 C444 1.387 . S
C443 H446 0.950 . S
C444 C443 1.387 . S
C444 C447 1.387 1_556 S
H445 C441 0.950 . S
H446 C443 0.950 . S
C447 C438 1.390 . S
C447 H440 0.950 . S
C447 C444 1.387 1_554 S
C448 C449 1.387 . S
C448 H452 0.950 . S
C448 C457 1.390 . S
C449 C448 1.387 . S
C449 C451 1.387 . S
H450 C457 0.932 1_545 S
C451 C449 1.387 . S
C451 C453 1.390 . S
C451 H455 0.950 . S
H452 C448 0.950 . S
C453 C451 1.390 . S
C453 C454 1.387 . S
C453 H456 0.950 . S
C454 C453 1.387 . S
C454 C457 1.387 . S
H455 C451 0.950 . S
H456 C453 0.950 . S
C457 C448 1.390 . S
C457 H450 0.932 1_565 S
C457 C454 1.387 . S
C458 C459 1.392 . S
C458 H462 0.950 . S
C458 C467 1.390 . S
C459 C458 1.392 . S
C459 C461 1.383 1_556 S
H460 C467 0.950 . S
C461 C459 1.383 1_554 S
C461 C463 1.390 . S
C461 H465 0.950 . S
H462 C458 0.950 . S
C463 C461 1.390 . S
C463 C464 1.387 . S
C463 H466 0.950 . S
C464 C463 1.387 . S
C464 C467 1.387 1_554 S
H465 C461 0.950 . S
H466 C463 0.950 . S
C467 C458 1.390 . S
C467 H460 0.950 . S
C467 C464 1.387 1_556 S
C468 C469 1.387 . S
C468 H472 0.950 . S
C468 C477 1.390 . S
C469 C468 1.387 . S
C469 C471 1.387 . S
H470 C477 0.950 . S
C471 C469 1.387 . S
C471 C473 1.390 . S
C471 H475 0.950 . S
H472 C468 0.950 . S
C473 C471 1.390 . S
C473 C474 1.387 . S
C473 H476 0.950 . S
C474 C473 1.387 . S
C474 C477 1.387 . S
H475 C471 0.950 . S
H476 C473 0.950 . S
C477 C468 1.390 . S
C477 H470 0.950 . S
C477 C474 1.387 . S
C478 C479 1.387 . S
C478 H482 0.950 . S
C478 C487 1.390 . S
C479 C478 1.387 . S
C479 C481 1.387 . S
H480 C487 0.950 . S
C481 C479 1.387 . S
C481 C483 1.390 . S
C481 H485 0.950 . S
H482 C478 0.950 . S
C483 C481 1.390 . S
C483 C484 1.387 . S
C483 H486 0.950 . S
C484 C483 1.387 . S
C484 C487 1.387 . S
H485 C481 0.950 . S
H486 C483 0.950 . S
C487 C478 1.390 . S
C487 H480 0.950 . S
C487 C484 1.387 . S
C488 C489 1.387 . S
C488 H492 0.950 . S
C488 C497 1.390 . S
C489 C488 1.387 . S
C489 C491 1.387 . S
H490 C497 0.950 . S
C491 C489 1.387 . S
C491 C493 1.390 . S
C491 H495 0.950 . S
H492 C488 0.950 . S
C493 C491 1.390 . S
C493 C494 1.387 . S
C493 H496 0.950 . S
C494 C493 1.387 . S
C494 C497 1.387 . S
H495 C491 0.950 . S
H496 C493 0.950 . S
C497 C488 1.390 . S
C497 H490 0.950 . S
C497 C494 1.387 . S
C498 C499 1.407 . S
C498 H502 0.950 . S
C498 C507 1.390 . S
C499 C498 1.407 . S
C499 C501 1.367 1_554 S
H500 C507 0.950 . S
C501 C499 1.367 1_556 S
C501 C503 1.390 . S
C501 H505 0.950 . S
H502 C498 0.950 . S
C503 C501 1.390 . S
C503 C504 1.387 . S
C503 H506 0.950 . S
C504 C503 1.387 . S
C504 C507 1.387 1_556 S
H505 C501 0.950 . S
H506 C503 0.950 . S
C507 C498 1.390 . S
C507 H500 0.950 . S
C507 C504 1.387 1_554 S
C508 C509 1.387 . S
C508 H512 0.950 . S
C508 C517 1.390 . S
C509 C508 1.387 . S
C509 C511 1.387 . S
H510 C517 0.950 . S
C511 C509 1.387 . S
C511 C513 1.390 . S
C511 H515 0.964 . S
H512 C508 0.950 . S
C513 C511 1.390 . S
C513 C514 1.387 . S
C513 H516 0.950 . S
C514 C513 1.387 . S
C514 C517 1.387 . S
H515 C511 0.964 . S
H516 C513 0.950 . S
C517 C508 1.390 . S
C517 H510 0.950 . S
C517 C514 1.387 . S
C518 C519 1.387 . S
C518 H522 0.950 . S
C518 C527 1.390 . S
C519 C518 1.387 . S
C519 C521 1.387 . S
H520 C527 0.950 . S
C521 C519 1.387 . S
C521 C523 1.390 . S
C521 H525 0.950 . S
H522 C518 0.950 . S
C523 C521 1.390 . S
C523 C524 1.387 . S
C523 H526 0.950 . S
C524 C523 1.387 . S
C524 C527 1.387 . S
H525 C521 0.950 . S
H526 C523 0.950 . S
C527 C518 1.390 . S
C527 H520 0.950 . S
C527 C524 1.387 . S
C528 C529 1.387 . S
C528 H532 0.950 . S
C528 C537 1.390 . S
C529 C528 1.387 . S
C529 C531 1.387 . S
H530 C537 0.950 . S
C531 C529 1.387 . S
C531 C533 1.390 . S
C531 H535 0.950 . S
H532 C528 0.950 . S
C533 C531 1.390 . S
C533 C534 1.387 . S
C533 H536 0.950 . S
C534 C533 1.387 . S
C534 C537 1.387 . S
H535 C531 0.950 . S
H536 C533 0.950 . S
C537 C528 1.390 . S
C537 H530 0.950 . S
C537 C534 1.387 . S
C538 C539 1.387 . S
C538 H542 0.950 . S
C538 C547 1.390 1_455 S
C539 C538 1.387 . S
C539 C541 1.387 . S
H540 C547 0.950 . S
C541 C539 1.387 . S
C541 C543 1.390 1_455 S
C541 H545 0.950 . S
H542 C538 0.950 . S
C543 C541 1.390 1_655 S
C543 C544 1.387 . S
C543 H546 0.950 . S
C544 C543 1.387 . S
C544 C547 1.387 . S
H545 C541 0.950 . S
H546 C543 0.950 . S
C547 C538 1.390 1_655 S
C547 H540 0.950 . S
C547 C544 1.387 . S
C548 C549 1.387 . S
C548 H552 0.950 . S
C548 C557 1.390 . S
C549 C548 1.387 . S
C549 C551 1.387 . S
H550 C557 0.950 . S
C551 C549 1.387 . S
C551 C553 1.390 . S
C551 H555 0.950 . S
H552 C548 0.950 . S
C553 C551 1.390 . S
C553 C554 1.387 . S
C553 H556 0.950 . S
C554 C553 1.387 . S
C554 C557 1.387 . S
H555 C551 0.950 . S
H556 C553 0.950 . S
C557 C548 1.390 . S
C557 H550 0.950 . S
C557 C554 1.387 . S
C558 C559 1.387 . S
C558 H562 0.950 . S
C558 C567 1.390 . S
C559 C558 1.387 . S
C559 C561 1.387 1_556 S
H560 C567 0.950 . S
C561 C559 1.387 1_554 S
C561 C563 1.390 . S
C561 H565 0.950 . S
H562 C558 0.950 . S
C563 C561 1.390 . S
C563 C564 1.387 . S
C563 H566 0.950 . S
C564 C563 1.387 . S
C564 C567 1.387 1_554 S
H565 C561 0.950 . S
H566 C563 0.950 . S
C567 C558 1.390 . S
C567 H560 0.950 . S
C567 C564 1.387 1_556 S
C568 C569 1.387 . S
C568 H572 0.950 . S
C568 C577 1.390 . S
C569 C568 1.387 . S
C569 C571 1.387 . S
H570 C577 0.950 . S
C571 C569 1.387 . S
C571 C573 1.390 . S
C571 H575 0.950 . S
H572 C568 0.950 . S
C573 C571 1.390 . S
C573 C574 1.387 . S
C573 H576 0.950 . S
C574 C573 1.387 . S
C574 C577 1.387 . S
H575 C571 0.950 . S
H576 C573 0.950 . S
C577 C568 1.390 . S
C577 H570 0.950 . S
C577 C574 1.387 . S
C578 C579 1.387 . S
C578 H582 0.950 . S
C578 C587 1.390 . S
C579 C578 1.387 . S
C579 C581 1.387 . S
H580 C587 0.950 . S
C581 C579 1.387 . S
C581 C583 1.390 . S
C581 H585 0.950 . S
H582 C578 0.950 . S
C583 C581 1.390 . S
C583 C584 1.387 . S
C583 H586 0.950 . S
C584 C583 1.387 . S
C584 C587 1.387 . S
H585 C581 0.950 . S
H586 C583 0.950 . S
C587 C578 1.390 . S
C587 H580 0.950 . S
C587 C584 1.387 . S
C588 C589 1.387 1_565 S
C588 H592 0.950 . S
C588 C597 1.390 . S
C589 C588 1.387 1_545 S
C589 C591 1.387 1_554 S
H590 C597 0.950 . S
C591 C589 1.387 1_556 S
C591 C593 1.390 . S
C591 H595 0.950 . S
H592 C588 0.950 . S
C593 C591 1.390 . S
C593 C594 1.387 1_545 S
C593 H596 0.950 . S
C594 C593 1.387 1_565 S
C594 C597 1.387 1_556 S
H595 C591 0.950 . S
H596 C593 0.950 . S
C597 C588 1.390 . S
C597 H590 0.950 . S
C597 C594 1.387 1_554 S
C598 C599 1.388 1_565 S
C598 H602 0.950 . S
C598 C607 1.390 1_455 S
C599 C598 1.388 1_545 S
C599 C601 1.387 . S
H600 C607 0.950 . S
C601 C599 1.387 . S
C601 C603 1.390 1_455 S
C601 H605 0.950 . S
H602 C598 0.950 . S
C603 C601 1.390 1_655 S
C603 C604 1.388 1_545 S
C603 H606 0.950 . S
C604 C603 1.388 1_565 S
C604 C607 1.387 . S
H605 C601 0.950 . S
H606 C603 0.950 . S
C607 C598 1.390 1_655 S
C607 H600 0.950 . S
C607 C604 1.387 . S
C608 C609 1.387 . S
C608 H612 0.950 . S
C608 C617 1.390 . S
C609 C608 1.387 . S
C609 C611 1.387 . S
H610 C617 0.950 . S
C611 C609 1.387 . S
C611 C613 1.390 . S
C611 H615 0.950 . S
H612 C608 0.950 . S
C613 C611 1.390 . S
C613 C614 1.387 . S
C613 H616 0.950 . S
C614 C613 1.387 . S
C614 C617 1.387 . S
H615 C611 0.950 . S
H616 C613 0.950 . S
C617 C608 1.390 . S
C617 H610 0.950 . S
C617 C614 1.387 . S
C618 C619 1.387 . S
C618 H622 0.950 . S
C618 C627 1.390 . S
C619 C618 1.387 . S
C619 C621 1.387 . S
H620 C627 0.950 . S
C621 C619 1.387 . S
C621 C623 1.390 . S
C621 H625 0.950 . S
H622 C618 0.950 . S
C623 C621 1.390 . S
C623 C624 1.387 . S
C623 H626 0.950 . S
C624 C623 1.387 . S
C624 C627 1.387 . S
H625 C621 0.950 . S
H626 C623 0.950 . S
C627 C618 1.390 . S
C627 H620 0.950 . S
C627 C624 1.387 . S
C628 C629 1.387 . S
C628 H632 0.950 . S
C628 C637 1.390 . S
C629 C628 1.387 . S
C629 C631 1.387 . S
H630 C637 0.950 . S
C631 C629 1.387 . S
C631 C633 1.390 . S
C631 H635 0.950 . S
H632 C628 0.950 . S
C633 C631 1.390 . S
C633 C634 1.387 . S
C633 H636 0.950 . S
C634 C633 1.387 . S
C634 C637 1.387 . S
H635 C631 0.950 . S
H636 C633 0.950 . S
C637 C628 1.390 . S
C637 H630 0.950 . S
C637 C634 1.387 . S
C638 C639 1.387 . S
C638 H642 0.950 . S
C638 C647 1.390 . S
C639 C638 1.387 . S
C639 C641 1.387 . S
H640 C647 0.950 . S
C641 C639 1.387 . S
C641 C643 1.390 . S
C641 H645 0.950 . S
H642 C638 0.950 . S
C643 C641 1.390 . S
C643 C644 1.387 . S
C643 H646 0.950 . S
C644 C643 1.387 . S
C644 C647 1.387 . S
H645 C641 0.950 . S
H646 C643 0.950 . S
C647 C638 1.390 . S
C647 H640 0.950 . S
C647 C644 1.387 . S
C648 C649 1.387 . S
C648 H652 0.950 . S
C648 C657 1.390 . S
C649 C648 1.387 . S
C649 C651 1.387 . S
H650 C657 0.950 . S
C651 C649 1.387 . S
C651 C653 1.390 . S
C651 H655 0.950 . S
H652 C648 0.950 . S
C653 C651 1.390 . S
C653 C654 1.387 . S
C653 H656 0.950 . S
C654 C653 1.387 . S
C654 C657 1.387 . S
H655 C651 0.950 . S
H656 C653 0.950 . S
C657 C648 1.390 . S
C657 H650 0.950 . S
C657 C654 1.387 . S
C658 C659 1.387 . S
C658 H662 0.950 . S
C658 C667 1.390 . S
C659 C658 1.387 . S
C659 C661 1.387 . S
H660 C667 0.950 . S
C661 C659 1.387 . S
C661 C663 1.390 . S
C661 H665 0.950 . S
H662 C658 0.950 . S
C663 C661 1.390 . S
C663 C664 1.387 . S
C663 H666 0.950 . S
C664 C663 1.387 . S
C664 C667 1.387 . S
H665 C661 0.950 . S
H666 C663 0.950 . S
C667 C658 1.390 . S
C667 H660 0.950 . S
C667 C664 1.387 . S
C668 C669 1.387 . S
C668 H672 0.950 . S
C668 C677 1.390 . S
C669 C668 1.387 . S
C669 C671 1.387 . S
H670 C677 0.950 . S
C671 C669 1.387 . S
C671 C673 1.390 . S
C671 H675 0.950 . S
H672 C668 0.950 . S
C673 C671 1.390 . S
C673 C674 1.387 . S
C673 H676 0.950 . S
C674 C673 1.387 . S
C674 C677 1.387 . S
H675 C671 0.950 . S
H676 C673 0.950 . S
C677 C668 1.390 . S
C677 H670 0.950 . S
C677 C674 1.387 . S
C678 C679 1.387 . S
C678 H682 0.950 . S
C678 C687 1.390 . S
C679 C678 1.387 . S
C679 C681 1.387 . S
H680 C687 0.950 . S
C681 C679 1.387 . S
C681 C683 1.390 . S
C681 H685 0.950 . S
H682 C678 0.950 . S
C683 C681 1.390 . S
C683 C684 1.387 . S
C683 H686 0.950 . S
C684 C683 1.387 . S
C684 C687 1.387 . S
H685 C681 0.950 . S
H686 C683 0.950 . S
C687 C678 1.390 . S
C687 H680 0.950 . S
C687 C684 1.387 . S
C688 C689 1.387 1_545 S
C688 H692 0.950 . S
C688 C697 1.390 1_545 S
C689 C688 1.387 1_565 S
C689 C691 1.387 . S
H690 C697 0.950 1_545 S
C691 C689 1.387 . S
C691 C693 1.390 . S
C691 H695 0.950 . S
H692 C688 0.950 . S
C693 C691 1.390 . S
C693 C694 1.387 . S
C693 H696 0.950 . S
C694 C693 1.387 . S
C694 C697 1.387 . S
H695 C691 0.950 . S
H696 C693 0.950 . S
C697 C688 1.390 1_565 S
C697 H690 0.950 1_565 S
C697 C694 1.387 . S
C698 C699 1.387 . S
C698 H702 0.950 . S
C698 C707 1.390 . S
C699 C698 1.387 . S
C699 C701 1.387 . S
H700 C707 0.950 . S
C701 C699 1.387 . S
C701 C703 1.390 . S
C701 H705 0.950 . S
H702 C698 0.950 . S
C703 C701 1.390 . S
C703 C704 1.387 . S
C703 H706 0.950 1_565 S
C704 C703 1.387 . S
C704 C707 1.387 . S
H705 C701 0.950 . S
H706 C703 0.950 1_545 S
C707 C698 1.390 . S
C707 H700 0.950 . S
C707 C704 1.387 . S
C708 C709 1.387 . S
C708 H712 0.950 . S
C708 C717 1.390 . S
C709 C708 1.387 . S
C709 C711 1.387 1_545 S
H710 C717 0.950 . S
C711 C709 1.387 1_565 S
C711 C713 1.390 . S
C711 H715 0.950 . S
H712 C708 0.950 . S
C713 C711 1.390 . S
C713 C714 1.387 1_565 S
C713 H716 0.950 . S
C714 C713 1.387 1_545 S
C714 C717 1.387 . S
H715 C711 0.950 . S
H716 C713 0.950 . S
C717 C708 1.390 . S
C717 H710 0.950 . S
C717 C714 1.387 . S
C718 C719 1.387 . S
C718 H722 0.950 1_545 S
C718 C727 1.390 1_545 S
C719 C718 1.387 . S
C719 C721 1.387 . S
H720 C727 0.950 . S
C721 C719 1.387 . S
C721 C723 1.390 . S
C721 H725 0.950 . S
H722 C718 0.950 1_565 S
C723 C721 1.390 . S
C723 C724 1.387 . S
C723 H726 0.950 . S
C724 C723 1.387 . S
C724 C727 1.387 1_545 S
H725 C721 0.950 . S
H726 C723 0.950 . S
C727 C718 1.390 1_565 S
C727 H720 0.950 . S
C727 C724 1.387 1_565 S
C728 C729 1.387 . S
C728 H732 0.950 . S
C728 C737 1.390 . S
C729 C728 1.387 . S
C729 C731 1.387 . S
H730 C737 0.950 . S
C731 C729 1.387 . S
C731 C733 1.390 . S
C731 H735 0.950 . S
H732 C728 0.950 . S
C733 C731 1.390 . S
C733 C734 1.387 . S
C733 H736 0.950 1_545 S
C734 C733 1.387 . S
C734 C737 1.387 . S
H735 C731 0.950 . S
H736 C733 0.950 1_565 S
C737 C728 1.390 . S
C737 H730 0.950 . S
C737 C734 1.387 . S
C738 C739 1.387 . S
C738 H742 0.950 1_545 S
C738 C747 1.390 1_545 S
C739 C738 1.387 . S
C739 C741 1.387 . S
H740 C747 0.950 . S
C741 C739 1.387 . S
C741 C743 1.390 . S
C741 H745 0.950 . S
H742 C738 0.950 1_565 S
C743 C741 1.390 . S
C743 C744 1.387 . S
C743 H746 0.950 . S
C744 C743 1.387 . S
C744 C747 1.387 1_545 S
H745 C741 0.950 . S
H746 C743 0.950 . S
C747 C738 1.390 1_565 S
C747 H740 0.950 . S
C747 C744 1.387 1_565 S
C748 C749 1.387 . S
C748 H752 0.950 . S
C748 C757 1.390 . S
C749 C748 1.387 . S
C749 C751 1.387 1_565 S
H750 C757 0.950 . S
C751 C749 1.387 1_545 S
C751 C753 1.390 . S
C751 H755 0.950 . S
H752 C748 0.950 . S
C753 C751 1.390 . S
C753 C754 1.387 1_545 S
C753 H756 0.950 . S
C754 C753 1.387 1_565 S
C754 C757 1.387 . S
H755 C751 0.950 . S
H756 C753 0.950 . S
C757 C748 1.390 . S
C757 H750 0.950 . S
C757 C754 1.387 . S
C758 C759 1.387 . S
C758 H762 0.950 . S
C758 C767 1.390 . S
C759 C758 1.387 . S
C759 C761 1.387 . S
H760 C767 0.950 . S
C761 C759 1.387 . S
C761 C763 1.390 . S
C761 H765 0.950 . S
H762 C758 0.950 . S
C763 C761 1.390 . S
C763 C764 1.387 . S
C763 H766 0.950 . S
C764 C763 1.387 . S
C764 C767 1.387 . S
H765 C761 0.950 . S
H766 C763 0.950 . S
C767 C758 1.390 . S
C767 H760 0.950 . S
C767 C764 1.387 . S
C768 C769 1.387 . S
C768 H772 0.950 . S
C768 C777 1.390 1_455 S
C769 C768 1.387 . S
C769 C771 1.387 . S
H770 C777 0.950 . S
C771 C769 1.387 . S
C771 C773 1.390 1_455 S
C771 H775 0.950 . S
H772 C768 0.950 . S
C773 C771 1.390 1_655 S
C773 C774 1.387 . S
C773 H776 0.950 . S
C774 C773 1.387 . S
C774 C777 1.387 . S
H775 C771 0.950 . S
H776 C773 0.950 . S
C777 C768 1.390 1_655 S
C777 H770 0.950 . S
C777 C774 1.387 . S
C778 C779 1.387 . S
C778 H782 0.950 . S
C778 C787 1.390 1_455 S
C779 C778 1.387 . S
C779 C781 1.387 . S
H780 C787 0.950 . S
C781 C779 1.387 . S
C781 C783 1.390 1_455 S
C781 H785 0.950 . S
H782 C778 0.950 . S
C783 C781 1.390 1_655 S
C783 C784 1.387 . S
C783 H786 0.950 . S
C784 C783 1.387 . S
C784 C787 1.387 . S
H785 C781 0.950 . S
H786 C783 0.950 . S
C787 C778 1.390 1_655 S
C787 H780 0.950 . S
C787 C784 1.387 . S
C788 C789 1.387 . S
C788 H792 0.950 . S
C788 C797 1.390 . S
C789 C788 1.387 . S
C789 C791 1.387 . S
H790 C797 0.950 . S
C791 C789 1.387 . S
C791 C793 1.390 . S
C791 H795 0.950 . S
H792 C788 0.950 . S
C793 C791 1.390 . S
C793 C794 1.387 . S
C793 H796 0.950 . S
C794 C793 1.387 . S
C794 C797 1.387 . S
H795 C791 0.950 . S
H796 C793 0.950 . S
C797 C788 1.390 . S
C797 H790 0.950 . S
C797 C794 1.387 . S
C798 C799 1.387 1_556 S
C798 H802 0.950 . S
C798 C807 1.390 . S
C799 C798 1.387 1_554 S
C799 C801 1.387 . S
H800 C807 0.950 . S
C801 C799 1.387 . S
C801 C803 1.390 . S
C801 H805 0.950 . S
H802 C798 0.950 . S
C803 C801 1.390 . S
C803 C804 1.387 . S
C803 H806 0.950 . S
C804 C803 1.387 . S
C804 C807 1.387 1_554 S
H805 C801 0.950 . S
H806 C803 0.950 . S
C807 C798 1.390 . S
C807 H800 0.950 . S
C807 C804 1.387 1_556 S
C808 C809 1.387 . S
C808 H812 0.950 . S
C808 C817 1.390 1_455 S
C809 C808 1.387 . S
C809 C811 1.387 . S
H810 C817 0.950 . S
C811 C809 1.387 . S
C811 C813 1.390 1_455 S
C811 H815 0.950 . S
H812 C808 0.950 . S
C813 C811 1.390 1_655 S
C813 C814 1.387 . S
C813 H816 0.950 . S
C814 C813 1.387 . S
C814 C817 1.387 . S
H815 C811 0.950 . S
H816 C813 0.950 . S
C817 C808 1.390 1_655 S
C817 H810 0.950 . S
C817 C814 1.387 . S
C818 C819 1.387 . S
C818 H822 0.950 . S
C818 C827 1.390 1_655 S
C819 C818 1.387 . S
C819 C821 1.387 . S
H820 C827 0.950 . S
C821 C819 1.387 . S
C821 C823 1.390 1_655 S
C821 H825 0.950 . S
H822 C818 0.950 . S
C823 C821 1.390 1_455 S
C823 C824 1.387 . S
C823 H826 0.950 . S
C824 C823 1.387 . S
C824 C827 1.387 . S
H825 C821 0.950 . S
H826 C823 0.950 . S
C827 C818 1.390 1_455 S
C827 H820 0.950 . S
C827 C824 1.387 . S
C828 C829 1.387 . S
C828 H832 0.950 . S
C828 C837 1.390 . S
C829 C828 1.387 . S
C829 C831 1.387 . S
H830 C837 0.950 . S
C831 C829 1.387 . S
C831 C833 1.390 . S
C831 H835 0.950 . S
H832 C828 0.950 . S
C833 C831 1.390 . S
C833 C834 1.387 . S
C833 H836 0.950 . S
C834 C833 1.387 . S
C834 C837 1.387 . S
H835 C831 0.950 . S
H836 C833 0.950 . S
C837 C828 1.390 . S
C837 H830 0.950 . S
C837 C834 1.387 . S
C838 C839 1.387 . S
C838 H842 0.950 . S
C838 C847 1.390 . S
C839 C838 1.387 . S
C839 C841 1.387 1_556 S
H840 C847 0.950 . S
C841 C839 1.387 1_554 S
C841 C843 1.390 . S
C841 H845 0.950 . S
H842 C838 0.950 . S
C843 C841 1.390 . S
C843 C844 1.387 1_554 S
C843 H846 0.950 . S
C844 C843 1.387 1_556 S
C844 C847 1.387 . S
H845 C841 0.950 . S
H846 C843 0.950 . S
C847 C838 1.390 . S
C847 H840 0.950 . S
C847 C844 1.387 . S
C369 C17 1.758 . S
C374 C156 1.829 . S
C379 C363 1.823 . S
C384 C40 1.750 . S
C389 C63 1.751 . S
C394 C110 1.823 1_455 S
C399 C317 1.774 . S
C404 C86 1.718 . S
C409 C64 1.828 . S
C414 C109 1.759 . S
C419 C271 1.822 . S
C424 C132 1.751 . S
C429 C155 1.752 . S
C434 C18 1.822 1_655 S
C439 C178 1.716 . S
C444 C225 1.774 . S
C449 C201 1.752 . S
C454 C340 1.822 1_655 S
C459 C224 1.718 . S
C464 C179 1.773 . S
C469 C294 1.828 . S
C474 C247 1.759 . S
C479 C133 1.823 . S
C484 C270 1.750 . S
C489 C248 1.822 1_455 S
C494 C293 1.753 . S
C499 C316 1.717 . S
C504 C87 1.774 . S
C509 C202 1.828 . S
C514 C339 1.759 . S
C519 C41 1.823 . S
C524 C362 1.750 . S
C529 C21 0.806 . S
C534 C297 0.806 . S
C539 C44 0.801 . S
C544 C136 0.801 . S
C549 C67 0.811 . S
C554 C343 0.811 . S
C559 C182 0.815 . S
C564 C90 0.815 . S
C569 C113 0.806 . S
C574 C205 0.806 . S
C579 C251 0.806 . S
C584 C159 0.806 . S
C589 C228 0.806 1_545 S
C594 C320 0.807 1_565 S
C599 C366 0.796 1_545 S
C604 C274 0.796 1_565 S
C609 C19 1.535 . S
C614 C43 1.478 . S
C619 C66 1.505 . S
C624 C42 1.568 . S
C629 C65 1.674 . S
C634 C89 1.625 . S
C639 C88 1.410 . S
C644 C20 1.349 . S
C649 C135 1.475 . S
C654 C111 1.535 . S
C659 C158 1.507 . S
C664 C134 1.568 . S
C669 C181 1.622 . S
C674 C157 1.678 . S
C679 C112 1.354 . S
C684 C180 1.405 . S
C689 C203 1.673 1_565 S
C694 C227 1.625 . S
C699 C226 1.410 . S
C704 C250 1.350 . S
C709 C273 1.478 . S
C714 C249 1.534 1_545 S
C719 C272 1.568 . S
C724 C204 1.505 . S
C729 C319 1.620 . S
C734 C295 1.677 1_545 S
C739 C318 1.410 . S
C744 C342 1.349 . S
C749 C341 1.535 1_565 S
C754 C365 1.475 . S
C759 C296 1.508 . S
C764 C364 1.568 . S
C769 C16 1.575 . S
C774 C246 1.575 . S
C779 C39 1.571 . S
C784 C269 1.571 . S
C789 C62 1.579 . S
C794 C200 1.579 . S
C799 C223 1.552 . S
C804 C85 1.552 . S
C809 C338 1.575 . S
C814 C108 1.575 . S
C819 C131 1.567 . S
C824 C361 1.567 . S
C829 C154 1.579 . S
C834 C292 1.579 . S
C839 C315 1.552 . S
C844 C177 1.552 . S
