# Generated by pormake.
# Topology eta, (3)-cn, num edge types: 1
# Building blocks:
#     Node 0, Type 0, BuildingBlock: WUSLED_clean_sbu_0, # of connection points: 3
#     Node 1, Type 0, BuildingBlock: WUSLED_clean_sbu_0, # of connection points: 3
#     Node 2, Type 0, BuildingBlock: WUSLED_clean_sbu_0, # of connection points: 3
#     Node 3, Type 0, BuildingBlock: WUSLED_clean_sbu_0, # of connection points: 3
#     Node 4, Type 0, BuildingBlock: WUSLED_clean_sbu_0, # of connection points: 3
#     Node 5, Type 0, BuildingBlock: WUSLED_clean_sbu_0, # of connection points: 3
#     Edge 6, Type (0, 0), BuildingBlock: XIVTED_clean_linker_0, # of connection points: 2
#     Edge 7, Type (0, 0), BuildingBlock: XIVTED_clean_linker_0, # of connection points: 2
#     Edge 8, Type (0, 0), BuildingBlock: XIVTED_clean_linker_0, # of connection points: 2
#     Edge 9, Type (0, 0), BuildingBlock: XIVTED_clean_linker_0, # of connection points: 2
#     Edge 10, Type (0, 0), BuildingBlock: XIVTED_clean_linker_0, # of connection points: 2
#     Edge 11, Type (0, 0), BuildingBlock: XIVTED_clean_linker_0, # of connection points: 2
#     Edge 12, Type (0, 0), BuildingBlock: XIVTED_clean_linker_0, # of connection points: 2
#     Edge 13, Type (0, 0), BuildingBlock: XIVTED_clean_linker_0, # of connection points: 2
#     Edge 14, Type (0, 0), BuildingBlock: XIVTED_clean_linker_0, # of connection points: 2
# Relax obj value: 0.000
# Max RMSD: 0.005
# Mean RMSD: 0.004
data_MOF--net-eta--node1-WUSLED_clean_sbu_0--edge1-XIVTED_clean_linker_0
_symmetry_space_group_name_H-M    P1
_symmetry_Int_Tables_number       1
_symmetry_cell_setting            triclinic
loop_
_symmetry_equiv_pos_as_xyz
'x, y, z'
_cell_length_a     67.066431
_cell_length_b     67.666376
_cell_length_c     54.932783
_cell_angle_alpha  89.507656
_cell_angle_beta   90.03849
_cell_angle_gamma 120.99167
loop_
_atom_site_label
_atom_site_type_symbol
_atom_site_fract_x
_atom_site_fract_y
_atom_site_fract_z
_atom_type_partial_charge
C0 C 0.24925 0.60767 0.12401 0.0
C1 C 0.27293 0.62466 0.12528 0.0
C2 C 0.28016 0.61205 0.08652 0.0
C3 C 0.28824 0.62687 0.10668 0.0
C4 C 0.25645 0.59482 0.0856 0.0
C5 C 0.24116 0.59269 0.10416 0.0
U6 U 0.23593 0.62167 0.18703 0.0
O7 O 0.20991 0.63054 0.19804 0.0
O8 O 0.20851 0.59979 0.21339 0.0
C9 C 0.19817 0.61179 0.21144 0.0
C10 C 0.23273 0.60564 0.14291 0.0
C11 C 0.17286 0.59841 0.20736 0.0
C12 C 0.13865 0.56754 0.18747 0.0
C13 C 0.16284 0.58039 0.1905 0.0
C14 C 0.13433 0.59094 0.21771 0.0
C15 C 0.12409 0.57263 0.20111 0.0
C16 C 0.15846 0.60366 0.22081 0.0
C17 C 0.28735 0.66033 0.22906 0.0
C18 C 0.28497 0.67823 0.26631 0.0
C19 C 0.32106 0.68051 0.25527 0.0
C20 C 0.31059 0.66776 0.23433 0.0
C21 C 0.30849 0.68616 0.2714 0.0
C22 C 0.27448 0.66542 0.24529 0.0
C23 C 0.27725 0.64783 0.20628 0.0
O24 O 0.23187 0.59414 0.16267 0.0
O25 O 0.23275 0.62468 0.14754 0.0
O26 O 0.26702 0.65588 0.19237 0.0
O27 O 0.26562 0.62522 0.20796 0.0
H28 H 0.27952 0.63632 0.14057 0.0
H29 H 0.30642 0.64014 0.10812 0.0
H30 H 0.24956 0.5833 0.07024 0.0
H31 H 0.22293 0.57948 0.10287 0.0
H32 H 0.13136 0.55374 0.17434 0.0
H33 H 0.17369 0.57617 0.1798 0.0
H34 H 0.12366 0.59515 0.22873 0.0
H35 H 0.16588 0.6175 0.23391 0.0
H36 H 0.27482 0.6824 0.27822 0.0
H37 H 0.33905 0.68593 0.25882 0.0
H38 H 0.32075 0.66386 0.22209 0.0
H39 H 0.25647 0.65977 0.24152 0.0
C40 C 0.61785 0.23297 0.58832 0.0
C41 C 0.63119 0.25697 0.58501 0.0
C42 C 0.6185 0.2626 0.62464 0.0
C43 C 0.63156 0.27168 0.60306 0.0
C44 C 0.60535 0.23851 0.62784 0.0
C45 C 0.60505 0.22387 0.60986 0.0
U46 U 0.63284 0.22048 0.52505 0.0
O47 O 0.64162 0.19461 0.51412 0.0
O48 O 0.6106 0.1933 0.49924 0.0
C49 C 0.62272 0.18306 0.50097 0.0
C50 C 0.61672 0.21712 0.56944 0.0
C51 C 0.6092 0.15797 0.50526 0.0
C52 C 0.5802 0.12428 0.52791 0.0
C53 C 0.59313 0.14825 0.52449 0.0
C54 C 0.59951 0.1196 0.49311 0.0
C55 C 0.58317 0.10962 0.51219 0.0
C56 C 0.61235 0.14351 0.4897 0.0
C57 C 0.67057 0.26997 0.48072 0.0
C58 C 0.67316 0.26561 0.43712 0.0
C59 C 0.70082 0.30141 0.45658 0.0
C60 C 0.68994 0.29237 0.47905 0.0
C61 C 0.69244 0.28822 0.4353 0.0
C62 C 0.66238 0.25653 0.45964 0.0
C63 C 0.65893 0.26114 0.50445 0.0
O64 O 0.60499 0.21599 0.5498 0.0
O65 O 0.63633 0.21793 0.56463 0.0
O66 O 0.66738 0.25127 0.51831 0.0
O67 O 0.63607 0.24983 0.50414 0.0
H68 H 0.64114 0.26429 0.56842 0.0
H69 H 0.64169 0.29012 0.59989 0.0
H70 H 0.59539 0.23093 0.64436 0.0
H71 H 0.59471 0.20538 0.61274 0.0
H72 H 0.56763 0.11723 0.54263 0.0
H73 H 0.59048 0.15917 0.53673 0.0
H74 H 0.6026 0.10895 0.48092 0.0
H75 H 0.62478 0.15073 0.47483 0.0
H76 H 0.66647 0.25489 0.42115 0.0
H77 H 0.71546 0.31895 0.4558 0.0
H78 H 0.69651 0.303 0.49511 0.0
H79 H 0.64755 0.2391 0.46057 0.0
C80 C 0.45343 0.64916 0.78945 0.0
C81 C 0.43639 0.65525 0.79115 0.0
C82 C 0.4485 0.67506 0.75183 0.0
C83 C 0.43391 0.66804 0.77248 0.0
C84 C 0.46571 0.66909 0.75041 0.0
C85 C 0.46811 0.65624 0.76904 0.0
U86 U 0.44047 0.6229 0.85343 0.0
O87 O 0.43235 0.58864 0.86615 0.0
O88 O 0.46337 0.61961 0.87982 0.0
C89 C 0.45136 0.59696 0.87928 0.0
C90 C 0.456 0.63534 0.80868 0.0
C91 C 0.46496 0.58562 0.87642 0.0
C92 C 0.48378 0.57038 0.85133 0.0
C93 C 0.47153 0.58197 0.85341 0.0
C94 C 0.4833 0.56638 0.89522 0.0
C95 C 0.48964 0.56225 0.87223 0.0
C96 C 0.47108 0.5779 0.89725 0.0
C97 C 0.4017 0.63397 0.89568 0.0
C98 C 0.38843 0.616 0.93558 0.0
C99 C 0.37943 0.64458 0.92161 0.0
C100 C 0.39124 0.647 0.8998 0.0
C101 C 0.37782 0.62902 0.93978 0.0
C102 C 0.40032 0.61849 0.91372 0.0
C103 C 0.41377 0.63671 0.87243 0.0
O104 O 0.46778 0.64685 0.82792 0.0
O105 O 0.43703 0.61571 0.8142 0.0
O106 O 0.40575 0.61797 0.85932 0.0
O107 O 0.4366 0.64891 0.87321 0.0
H108 H 0.42498 0.65004 0.80688 0.0
H109 H 0.42068 0.67257 0.77431 0.0
H110 H 0.47704 0.67395 0.73467 0.0
H111 H 0.48135 0.65169 0.76742 0.0
H112 H 0.48824 0.56738 0.83335 0.0
H113 H 0.46697 0.58784 0.83709 0.0
H114 H 0.4879 0.56081 0.91172 0.0
H115 H 0.46628 0.58068 0.91518 0.0
H116 H 0.38773 0.60405 0.94927 0.0
H117 H 0.37119 0.65462 0.92404 0.0
H118 H 0.39208 0.65898 0.88603 0.0
H119 H 0.40839 0.60835 0.91087 0.0
C120 C 0.82524 0.43973 0.12271 0.0
C121 C 0.80143 0.42296 0.12312 0.0
C122 C 0.79641 0.43636 0.08345 0.0
C123 C 0.78713 0.42129 0.10365 0.0
C124 C 0.82021 0.45341 0.08349 0.0
C125 C 0.83444 0.45503 0.10291 0.0
U126 U 0.83735 0.42525 0.18688 0.0
O127 O 0.86376 0.41706 0.19848 0.0
O128 O 0.86444 0.44753 0.21295 0.0
C129 C 0.87513 0.43585 0.2115 0.0
C130 C 0.84092 0.4413 0.14236 0.0
C131 C 0.90048 0.44952 0.20747 0.0
C132 C 0.93479 0.48102 0.18776 0.0
C133 C 0.91058 0.46801 0.19079 0.0
C134 C 0.93898 0.45689 0.21764 0.0
C135 C 0.94929 0.47563 0.2012 0.0
C136 C 0.91484 0.444 0.22074 0.0
C137 C 0.7871 0.38647 0.23036 0.0
C138 C 0.78909 0.38469 0.27451 0.0
C139 C 0.75649 0.35392 0.253 0.0
C140 C 0.76605 0.36529 0.23088 0.0
C141 C 0.76774 0.36356 0.27517 0.0
C142 C 0.79871 0.39599 0.25233 0.0
C143 C 0.79628 0.39847 0.20683 0.0
O144 O 0.84121 0.45261 0.16182 0.0
O145 O 0.84076 0.42221 0.1475 0.0
O146 O 0.80671 0.3906 0.19315 0.0
O147 O 0.80722 0.42112 0.20725 0.0
H148 H 0.79401 0.411 0.13832 0.0
H149 H 0.76894 0.40785 0.10415 0.0
H150 H 0.82788 0.46557 0.06851 0.0
H151 H 0.85275 0.46817 0.10235 0.0
H152 H 0.94214 0.49518 0.17477 0.0
H153 H 0.89976 0.47244 0.18021 0.0
H154 H 0.94961 0.45243 0.22851 0.0
H155 H 0.90737 0.4298 0.2337 0.0
H156 H 0.79816 0.39279 0.29117 0.0
H157 H 0.7403 0.33749 0.25268 0.0
H158 H 0.75689 0.35758 0.21412 0.0
H159 H 0.81505 0.4123 0.25238 0.0
C160 C 0.4128 0.81478 0.45631 0.0
C161 C 0.39928 0.79084 0.46002 0.0
C162 C 0.38855 0.78539 0.41708 0.0
C163 C 0.38718 0.77626 0.44057 0.0
C164 C 0.40204 0.80944 0.41361 0.0
C165 C 0.41403 0.82395 0.43304 0.0
U166 U 0.43745 0.82656 0.52108 0.0
O167 O 0.47192 0.85353 0.53393 0.0
O168 O 0.44049 0.85216 0.54756 0.0
C169 C 0.46335 0.86372 0.54686 0.0
C170 C 0.42606 0.83046 0.47628 0.0
C171 C 0.47458 0.8888 0.5431 0.0
C172 C 0.47958 0.92196 0.52013 0.0
C173 C 0.46867 0.89803 0.52333 0.0
C174 C 0.50252 0.92764 0.55632 0.0
C175 C 0.49665 0.9371 0.53661 0.0
C176 C 0.49157 0.90375 0.55951 0.0
C177 C 0.42582 0.77597 0.56297 0.0
C178 C 0.44419 0.78057 0.60239 0.0
C179 C 0.41474 0.74256 0.58886 0.0
C180 C 0.41233 0.75216 0.56722 0.0
C181 C 0.43075 0.75662 0.6067 0.0
C182 C 0.4417 0.79018 0.58072 0.0
C183 C 0.42328 0.78551 0.5398 0.0
O184 O 0.41389 0.82956 0.49546 0.0
O185 O 0.4456 0.83146 0.48191 0.0
O186 O 0.44233 0.7971 0.52667 0.0
O187 O 0.41093 0.79554 0.54071 0.0
H188 H 0.39822 0.78344 0.47789 0.0
H189 H 0.37715 0.75782 0.44383 0.0
H190 H 0.40321 0.8171 0.39588 0.0
H191 H 0.42435 0.8424 0.42986 0.0
H192 H 0.47442 0.92859 0.50491 0.0
H193 H 0.45559 0.88673 0.51043 0.0
H194 H 0.51584 0.93868 0.56913 0.0
H195 H 0.49645 0.89692 0.5748 0.0
H196 H 0.45649 0.79192 0.61584 0.0
H197 H 0.40436 0.72404 0.59137 0.0
H198 H 0.40003 0.74093 0.55368 0.0
H199 H 0.45221 0.80864 0.57777 0.0
C200 C 0.61533 0.39463 0.79092 0.0
C201 C 0.63318 0.38958 0.79103 0.0
C202 C 0.61727 0.36642 0.75448 0.0
C203 C 0.63419 0.37566 0.77292 0.0
C204 C 0.59943 0.37157 0.75453 0.0
C205 C 0.5985 0.38555 0.77257 0.0
U206 U 0.63184 0.42323 0.85327 0.0
O207 O 0.63987 0.45769 0.86448 0.0
O208 O 0.61022 0.42689 0.88094 0.0
C209 C 0.62159 0.44947 0.87888 0.0
C210 C 0.61386 0.4091 0.80986 0.0
C211 C 0.60711 0.45994 0.87628 0.0
C212 C 0.5869 0.47415 0.85154 0.0
C213 C 0.60053 0.46397 0.85335 0.0
C214 C 0.58611 0.47609 0.89551 0.0
C215 C 0.57947 0.48027 0.87263 0.0
C216 C 0.59979 0.46605 0.89728 0.0
C217 C 0.67346 0.41385 0.89333 0.0
C218 C 0.68466 0.42823 0.93455 0.0
C219 C 0.70174 0.40834 0.91519 0.0
C220 C 0.68859 0.40538 0.89432 0.0
C221 C 0.70004 0.41988 0.93555 0.0
C222 C 0.6715 0.42528 0.91357 0.0
C223 C 0.65998 0.4105 0.87101 0.0
O224 O 0.60326 0.39826 0.83008 0.0
O225 O 0.633 0.42898 0.81369 0.0
O226 O 0.66708 0.42889 0.85716 0.0
O227 O 0.63725 0.39814 0.87342 0.0
H228 H 0.64626 0.39632 0.80517 0.0
H229 H 0.64799 0.37183 0.77359 0.0
H230 H 0.58629 0.36499 0.74046 0.0
H231 H 0.58461 0.38927 0.77218 0.0
H232 H 0.58191 0.47693 0.83366 0.0
H233 H 0.60591 0.45924 0.8369 0.0
H234 H 0.581 0.48088 0.9121 0.0
H235 H 0.60474 0.46313 0.91513 0.0
H236 H 0.68307 0.43736 0.9498 0.0
H237 H 0.71308 0.40135 0.91544 0.0
H238 H 0.69024 0.39641 0.87891 0.0
H239 H 0.6599 0.43197 0.91308 0.0
H240 H 0.34829 0.58906 0.96489 0.0
H241 H 0.31459 0.65223 0.06553 0.0
H242 H 0.37763 0.66269 0.96717 0.0
H243 H 0.2822 0.57832 0.06104 0.0
H244 H 0.33966 0.65647 0.03119 0.0
H245 H 0.32588 0.58489 1.00169 0.0
C246 C 0.3502 0.60438 0.97323 0.0
C247 C 0.36482 0.62626 0.96279 0.0
C248 C 0.32713 0.63932 0.03774 0.0
C249 C 0.33897 0.62157 1.00488 0.0
C250 C 0.31289 0.63688 0.05749 0.0
C251 C 0.29618 0.61487 0.06621 0.0
C252 C 0.32475 0.61961 0.02657 0.0
C253 C 0.29459 0.59562 0.05475 0.0
C254 C 0.33726 0.60197 0.99418 0.0
C255 C 0.36632 0.64545 0.97431 0.0
N256 N 0.30864 0.59844 0.03554 0.0
N257 N 0.35355 0.64265 0.99465 0.0
H258 H 0.67095 0.28455 0.39166 0.0
H259 H 0.78946 0.36054 0.31649 0.0
H260 H 0.73899 0.31488 0.42412 0.0
H261 H 0.72145 0.33983 0.28805 0.0
H262 H 0.77138 0.34182 0.35522 0.0
H263 H 0.68924 0.30206 0.3526 0.0
C264 C 0.68975 0.29473 0.39054 0.0
C265 C 0.70344 0.29824 0.41125 0.0
C266 C 0.76043 0.34136 0.34048 0.0
C267 C 0.72454 0.31856 0.36653 0.0
C268 C 0.77075 0.35217 0.31835 0.0
C269 C 0.75702 0.35185 0.29883 0.0
C270 C 0.73615 0.33002 0.34318 0.0
C271 C 0.73279 0.34028 0.30234 0.0
C272 C 0.70019 0.30488 0.36825 0.0
C273 C 0.72773 0.31192 0.40872 0.0
N274 N 0.72318 0.32987 0.32402 0.0
N275 N 0.73749 0.32154 0.3868 0.0
H276 H 0.40786 0.66839 0.7321 0.0
H277 H 0.47123 0.76763 0.63045 0.0
H278 H 0.48243 0.71165 0.72537 0.0
H279 H 0.39685 0.72166 0.63479 0.0
H280 H 0.4756 0.74905 0.66677 0.0
H281 H 0.40344 0.68933 0.69809 0.0
C282 C 0.42332 0.68242 0.72362 0.0
C283 C 0.44556 0.68819 0.73162 0.0
C284 C 0.45832 0.74306 0.65982 0.0
C285 C 0.44062 0.71217 0.6924 0.0
C286 C 0.45579 0.75377 0.63915 0.0
C287 C 0.43364 0.74616 0.62943 0.0
C288 C 0.43855 0.7246 0.67096 0.0
C289 C 0.4143 0.72789 0.64137 0.0
C290 C 0.42078 0.6943 0.70408 0.0
C291 C 0.46494 0.70636 0.71964 0.0
N292 N 0.41721 0.71774 0.66143 0.0
N293 N 0.46202 0.71766 0.70065 0.0
H294 H 0.75112 0.42672 0.08302 0.0
H295 H 0.74562 0.43143 0.93736 0.0
H296 H 0.80791 0.44055 0.03503 0.0
H297 H 0.68749 0.41614 0.98392 0.0
H298 H 0.7687 0.43545 0.97329 0.0
H299 H 0.72749 0.42311 0.04739 0.0
C300 C 0.75862 0.42892 0.06502 0.0
C301 C 0.78163 0.43405 0.0621 0.0
C302 C 0.75091 0.43123 0.97572 0.0
C303 C 0.7547 0.43012 1.02121 0.0
C304 C 0.73764 0.42881 0.95516 0.0
C305 C 0.71447 0.42326 0.95754 0.0
C306 C 0.74103 0.42809 0.99902 0.0
C307 C 0.70531 0.42059 0.98117 0.0
C308 C 0.74514 0.42698 0.04469 0.0
C309 C 0.79044 0.43697 0.03829 0.0
N310 N 0.71857 0.42294 1.00098 0.0
N311 N 0.77699 0.43495 1.01885 0.0
H312 H 0.34454 0.74685 0.41583 0.0
H313 H 0.35251 0.72392 0.27418 0.0
H314 H 0.40464 0.7888 0.37046 0.0
H315 H 0.29119 0.68191 0.31794 0.0
H316 H 0.37184 0.74739 0.30968 0.0
H317 H 0.32477 0.72235 0.38075 0.0
C318 C 0.35363 0.75085 0.39855 0.0
C319 C 0.37628 0.77002 0.39612 0.0
C320 C 0.35416 0.73304 0.31159 0.0
C321 C 0.35368 0.74212 0.35582 0.0
C322 C 0.34313 0.71951 0.29131 0.0
C323 C 0.32019 0.70076 0.29303 0.0
C324 C 0.34225 0.72792 0.33393 0.0
C325 C 0.3088 0.69628 0.31567 0.0
C326 C 0.34228 0.73693 0.37849 0.0
C327 C 0.38707 0.77447 0.37317 0.0
N328 N 0.31996 0.70971 0.33523 0.0
N329 N 0.3757 0.76067 0.35399 0.0
H330 H 0.65537 0.37154 0.72982 0.0
H331 H 0.5813 0.25697 0.65122 0.0
H332 H 0.5809 0.32681 0.73553 0.0
H333 H 0.65508 0.30356 0.64144 0.0
H334 H 0.58118 0.282 0.68285 0.0
H335 H 0.65599 0.34651 0.69826 0.0
C336 C 0.63917 0.3564 0.72454 0.0
C337 C 0.61804 0.35133 0.73536 0.0
C338 C 0.59742 0.2868 0.6738 0.0
C339 C 0.61861 0.32265 0.69908 0.0
C340 C 0.59753 0.27241 0.6558 0.0
C341 C 0.61826 0.27807 0.64366 0.0
C342 C 0.6182 0.30706 0.67986 0.0
C343 C 0.63865 0.29858 0.65013 0.0
C344 C 0.63952 0.34219 0.70641 0.0
C345 C 0.59756 0.33161 0.72752 0.0
N346 N 0.63813 0.31228 0.66782 0.0
N347 N 0.59837 0.31802 0.70993 0.0
H348 H 0.09311 0.58771 0.19963 0.0
H349 H 0.9803 0.46064 0.19915 0.0
H350 H 0.09622 0.52564 0.19685 0.0
H351 H 0.97715 0.52274 0.1974 0.0
H352 H 1.02273 0.48414 0.19723 0.0
H353 H 0.05069 0.56427 0.19775 0.0
C354 C 0.08488 0.56914 0.19863 0.0
C355 C 0.09831 0.55865 0.19853 0.0
C356 C 1.01277 0.49265 0.19715 0.0
C357 C 0.04962 0.53165 0.19626 0.0
C358 C 0.98852 0.47923 0.19837 0.0
C359 C 0.97508 0.48971 0.19858 0.0
C360 C 1.02379 0.5168 0.19626 0.0
C361 C 0.98675 0.51388 0.1971 0.0
C362 C 0.06064 0.55577 0.19743 0.0
C363 C 0.08664 0.53452 0.19678 0.0
N364 N 1.0104 0.52659 0.19616 0.0
N365 N 0.063 0.52185 0.19587 0.0
H366 H 0.56425 0.07624 0.47704 0.0
H367 H 0.5095 0.97026 0.57169 0.0
H368 H 0.57043 0.08453 0.55502 0.0
H369 H 0.51075 0.96231 0.49391 0.0
H370 H 0.52989 1.01203 0.56591 0.0
H371 H 0.54275 0.03447 0.48286 0.0
C372 C 0.56121 0.06932 0.49541 0.0
C373 C 0.56936 0.08406 0.51556 0.0
C374 C 0.52568 1.00115 0.5501 0.0
C375 C 0.54434 0.03602 0.52236 0.0
C376 C 0.51413 0.97725 0.55338 0.0
C377 C 0.50844 0.96261 0.53327 0.0
C378 C 0.5316 1.01062 0.52651 0.0
C379 C 0.5145 0.9728 0.50996 0.0
C380 C 0.54879 0.04542 0.49871 0.0
C381 C 0.56434 0.07395 0.53892 0.0
N382 N 0.52577 0.99612 0.50724 0.0
N383 N 0.55223 0.0506 0.54166 0.0
H384 H 0.52544 0.57029 0.84119 0.0
H385 H 0.54188 0.47106 0.90079 0.0
H386 H 0.48213 0.52449 0.8988 0.0
H387 H 0.58374 0.51395 0.84081 0.0
H388 H 0.51937 0.49011 0.89947 0.0
H389 H 0.54629 0.54939 0.83963 0.0
C390 C 0.52018 0.55576 0.85339 0.0
C391 C 0.50207 0.5493 0.87029 0.0
C392 C 0.53342 0.49535 0.88652 0.0
C393 C 0.52606 0.52541 0.86875 0.0
C394 C 0.54638 0.48453 0.88735 0.0
C395 C 0.56488 0.49101 0.87101 0.0
C396 C 0.53896 0.51291 0.86927 0.0
C397 C 0.56956 0.50829 0.85368 0.0
C398 C 0.53218 0.5439 0.85257 0.0
C399 C 0.49624 0.53044 0.8858 0.0
N400 N 0.55679 0.51873 0.85336 0.0
N401 N 0.50821 0.51926 0.88469 0.0
loop_
_geom_bond_atom_site_label_1
_geom_bond_atom_site_label_2
_geom_bond_distance
_geom_bond_site_symmetry_2
_ccdc_geom_bond_type
C0 C1 1.264 . S
C0 C5 1.479 . S
C0 C10 1.465 . S
C1 C0 1.264 . S
C1 C3 1.339 . S
C1 H28 0.931 . S
C2 C3 1.395 . S
C2 C4 1.320 . S
C3 C1 1.339 . S
C3 C2 1.395 . S
C3 H29 0.929 . S
C4 C2 1.320 . S
C4 C5 1.405 . S
C4 H30 0.930 . S
C5 C0 1.479 . S
C5 C4 1.405 . S
C5 H31 0.931 . S
U6 O7 2.454 . S
U6 O8 2.458 . S
U6 C9 2.984 . S
U6 C10 2.847 . S
U6 C23 2.882 . S
U6 O24 2.441 . S
U6 O25 2.420 . S
U6 O26 2.455 . S
U6 O27 2.449 . S
O7 U6 2.454 . S
O7 C9 1.353 . S
O8 U6 2.458 . S
O8 C9 1.286 . S
C9 U6 2.984 . S
C9 O7 1.353 . S
C9 O8 1.286 . S
C9 C11 1.363 . S
C10 C0 1.465 . S
C10 U6 2.847 . S
C10 O24 1.249 . S
C10 O25 1.202 . S
C11 C9 1.363 . S
C11 C13 1.408 . S
C11 C16 1.342 . S
C12 C13 1.310 . S
C12 C15 1.461 . S
C12 H32 0.932 . S
C13 C11 1.408 . S
C13 C12 1.310 . S
C13 H33 0.930 . S
C14 C15 1.474 . S
C14 C16 1.285 . S
C14 H34 0.929 . S
C15 C12 1.461 . S
C15 C14 1.474 . S
C16 C11 1.342 . S
C16 C14 1.285 . S
C16 H35 0.930 . S
C17 C20 1.424 . S
C17 C22 1.245 . S
C17 C23 1.428 . S
C18 C21 1.260 . S
C18 C22 1.477 . S
C18 H36 0.932 . S
C19 C20 1.384 . S
C19 C21 1.479 . S
C19 H37 0.929 . S
C20 C17 1.424 . S
C20 C19 1.384 . S
C20 H38 0.928 . S
C21 C18 1.260 . S
C21 C19 1.479 . S
C22 C17 1.245 . S
C22 C18 1.477 . S
C22 H39 0.932 . S
C23 U6 2.882 . S
C23 C17 1.428 . S
C23 O26 1.301 . S
C23 O27 1.282 . S
O24 U6 2.441 . S
O24 C10 1.249 . S
O25 U6 2.420 . S
O25 C10 1.202 . S
O26 U6 2.455 . S
O26 C23 1.301 . S
O27 U6 2.449 . S
O27 C23 1.282 . S
H28 C1 0.931 . S
H29 C3 0.929 . S
H30 C4 0.930 . S
H31 C5 0.931 . S
H32 C12 0.932 . S
H33 C13 0.930 . S
H34 C14 0.929 . S
H35 C16 0.930 . S
H36 C18 0.932 . S
H37 C19 0.929 . S
H38 C20 0.928 . S
H39 C22 0.932 . S
C40 C41 1.264 . S
C40 C45 1.479 . S
C40 C50 1.465 . S
C41 C40 1.264 . S
C41 C43 1.339 . S
C41 H68 0.931 . S
C42 C43 1.395 . S
C42 C44 1.320 . S
C43 C41 1.339 . S
C43 C42 1.395 . S
C43 H69 0.929 . S
C44 C42 1.320 . S
C44 C45 1.405 . S
C44 H70 0.930 . S
C45 C40 1.479 . S
C45 C44 1.405 . S
C45 H71 0.931 . S
U46 O47 2.454 . S
U46 O48 2.458 . S
U46 C49 2.984 . S
U46 C50 2.847 . S
U46 C63 2.882 . S
U46 O64 2.441 . S
U46 O65 2.420 . S
U46 O66 2.455 . S
U46 O67 2.449 . S
O47 U46 2.454 . S
O47 C49 1.353 . S
O48 U46 2.458 . S
O48 C49 1.286 . S
C49 U46 2.984 . S
C49 O47 1.353 . S
C49 O48 1.286 . S
C49 C51 1.363 . S
C50 C40 1.465 . S
C50 U46 2.847 . S
C50 O64 1.249 . S
C50 O65 1.202 . S
C51 C49 1.363 . S
C51 C53 1.408 . S
C51 C56 1.342 . S
C52 C53 1.310 . S
C52 C55 1.461 . S
C52 H72 0.932 . S
C53 C51 1.408 . S
C53 C52 1.310 . S
C53 H73 0.930 . S
C54 C55 1.474 . S
C54 C56 1.285 . S
C54 H74 0.929 . S
C55 C52 1.461 . S
C55 C54 1.474 . S
C56 C51 1.342 . S
C56 C54 1.285 . S
C56 H75 0.930 . S
C57 C60 1.424 . S
C57 C62 1.245 . S
C57 C63 1.428 . S
C58 C61 1.260 . S
C58 C62 1.477 . S
C58 H76 0.932 . S
C59 C60 1.384 . S
C59 C61 1.479 . S
C59 H77 0.929 . S
C60 C57 1.424 . S
C60 C59 1.384 . S
C60 H78 0.928 . S
C61 C58 1.260 . S
C61 C59 1.479 . S
C62 C57 1.245 . S
C62 C58 1.477 . S
C62 H79 0.932 . S
C63 U46 2.882 . S
C63 C57 1.428 . S
C63 O66 1.301 . S
C63 O67 1.282 . S
O64 U46 2.441 . S
O64 C50 1.249 . S
O65 U46 2.420 . S
O65 C50 1.202 . S
O66 U46 2.455 . S
O66 C63 1.301 . S
O67 U46 2.449 . S
O67 C63 1.282 . S
H68 C41 0.931 . S
H69 C43 0.929 . S
H70 C44 0.930 . S
H71 C45 0.931 . S
H72 C52 0.932 . S
H73 C53 0.930 . S
H74 C54 0.929 . S
H75 C56 0.930 . S
H76 C58 0.932 . S
H77 C59 0.929 . S
H78 C60 0.928 . S
H79 C62 0.932 . S
C80 C81 1.264 . S
C80 C85 1.479 . S
C80 C90 1.465 . S
C81 C80 1.264 . S
C81 C83 1.339 . S
C81 H108 0.931 . S
C82 C83 1.395 . S
C82 C84 1.320 . S
C83 C81 1.339 . S
C83 C82 1.395 . S
C83 H109 0.929 . S
C84 C82 1.320 . S
C84 C85 1.405 . S
C84 H110 0.930 . S
C85 C80 1.479 . S
C85 C84 1.405 . S
C85 H111 0.931 . S
U86 O87 2.454 . S
U86 O88 2.458 . S
U86 C89 2.984 . S
U86 C90 2.847 . S
U86 C103 2.882 . S
U86 O104 2.441 . S
U86 O105 2.420 . S
U86 O106 2.455 . S
U86 O107 2.449 . S
O87 U86 2.454 . S
O87 C89 1.353 . S
O88 U86 2.458 . S
O88 C89 1.286 . S
C89 U86 2.984 . S
C89 O87 1.353 . S
C89 O88 1.286 . S
C89 C91 1.363 . S
C90 C80 1.465 . S
C90 U86 2.847 . S
C90 O104 1.249 . S
C90 O105 1.202 . S
C91 C89 1.363 . S
C91 C93 1.408 . S
C91 C96 1.342 . S
C92 C93 1.310 . S
C92 C95 1.461 . S
C92 H112 0.932 . S
C93 C91 1.408 . S
C93 C92 1.310 . S
C93 H113 0.930 . S
C94 C95 1.474 . S
C94 C96 1.285 . S
C94 H114 0.929 . S
C95 C92 1.461 . S
C95 C94 1.474 . S
C96 C91 1.342 . S
C96 C94 1.285 . S
C96 H115 0.930 . S
C97 C100 1.424 . S
C97 C102 1.245 . S
C97 C103 1.428 . S
C98 C101 1.260 . S
C98 C102 1.477 . S
C98 H116 0.932 . S
C99 C100 1.384 . S
C99 C101 1.479 . S
C99 H117 0.929 . S
C100 C97 1.424 . S
C100 C99 1.384 . S
C100 H118 0.928 . S
C101 C98 1.260 . S
C101 C99 1.479 . S
C102 C97 1.245 . S
C102 C98 1.477 . S
C102 H119 0.932 . S
C103 U86 2.882 . S
C103 C97 1.428 . S
C103 O106 1.301 . S
C103 O107 1.282 . S
O104 U86 2.441 . S
O104 C90 1.249 . S
O105 U86 2.420 . S
O105 C90 1.202 . S
O106 U86 2.455 . S
O106 C103 1.301 . S
O107 U86 2.449 . S
O107 C103 1.282 . S
H108 C81 0.931 . S
H109 C83 0.929 . S
H110 C84 0.930 . S
H111 C85 0.931 . S
H112 C92 0.932 . S
H113 C93 0.930 . S
H114 C94 0.929 . S
H115 C96 0.930 . S
H116 C98 0.932 . S
H117 C99 0.929 . S
H118 C100 0.928 . S
H119 C102 0.932 . S
C120 C121 1.264 . S
C120 C125 1.479 . S
C120 C130 1.465 . S
C121 C120 1.264 . S
C121 C123 1.339 . S
C121 H148 0.931 . S
C122 C123 1.395 . S
C122 C124 1.320 . S
C123 C121 1.339 . S
C123 C122 1.395 . S
C123 H149 0.929 . S
C124 C122 1.320 . S
C124 C125 1.405 . S
C124 H150 0.930 . S
C125 C120 1.479 . S
C125 C124 1.405 . S
C125 H151 0.931 . S
U126 O127 2.454 . S
U126 O128 2.458 . S
U126 C129 2.984 . S
U126 C130 2.847 . S
U126 C143 2.882 . S
U126 O144 2.441 . S
U126 O145 2.420 . S
U126 O146 2.455 . S
U126 O147 2.449 . S
O127 U126 2.454 . S
O127 C129 1.353 . S
O128 U126 2.458 . S
O128 C129 1.286 . S
C129 U126 2.984 . S
C129 O127 1.353 . S
C129 O128 1.286 . S
C129 C131 1.363 . S
C130 C120 1.465 . S
C130 U126 2.847 . S
C130 O144 1.249 . S
C130 O145 1.202 . S
C131 C129 1.363 . S
C131 C133 1.408 . S
C131 C136 1.342 . S
C132 C133 1.310 . S
C132 C135 1.461 . S
C132 H152 0.932 . S
C133 C131 1.408 . S
C133 C132 1.310 . S
C133 H153 0.930 . S
C134 C135 1.474 . S
C134 C136 1.285 . S
C134 H154 0.929 . S
C135 C132 1.461 . S
C135 C134 1.474 . S
C136 C131 1.342 . S
C136 C134 1.285 . S
C136 H155 0.930 . S
C137 C140 1.424 . S
C137 C142 1.245 . S
C137 C143 1.428 . S
C138 C141 1.260 . S
C138 C142 1.477 . S
C138 H156 0.932 . S
C139 C140 1.384 . S
C139 C141 1.479 . S
C139 H157 0.929 . S
C140 C137 1.424 . S
C140 C139 1.384 . S
C140 H158 0.928 . S
C141 C138 1.260 . S
C141 C139 1.479 . S
C142 C137 1.245 . S
C142 C138 1.477 . S
C142 H159 0.932 . S
C143 U126 2.882 . S
C143 C137 1.428 . S
C143 O146 1.301 . S
C143 O147 1.282 . S
O144 U126 2.441 . S
O144 C130 1.249 . S
O145 U126 2.420 . S
O145 C130 1.202 . S
O146 U126 2.455 . S
O146 C143 1.301 . S
O147 U126 2.449 . S
O147 C143 1.282 . S
H148 C121 0.931 . S
H149 C123 0.929 . S
H150 C124 0.930 . S
H151 C125 0.931 . S
H152 C132 0.932 . S
H153 C133 0.930 . S
H154 C134 0.929 . S
H155 C136 0.930 . S
H156 C138 0.932 . S
H157 C139 0.929 . S
H158 C140 0.928 . S
H159 C142 0.932 . S
C160 C161 1.264 . S
C160 C165 1.479 . S
C160 C170 1.465 . S
C161 C160 1.264 . S
C161 C163 1.339 . S
C161 H188 0.931 . S
C162 C163 1.395 . S
C162 C164 1.320 . S
C163 C161 1.339 . S
C163 C162 1.395 . S
C163 H189 0.929 . S
C164 C162 1.320 . S
C164 C165 1.405 . S
C164 H190 0.930 . S
C165 C160 1.479 . S
C165 C164 1.405 . S
C165 H191 0.931 . S
U166 O167 2.454 . S
U166 O168 2.458 . S
U166 C169 2.984 . S
U166 C170 2.847 . S
U166 C183 2.882 . S
U166 O184 2.441 . S
U166 O185 2.420 . S
U166 O186 2.455 . S
U166 O187 2.449 . S
O167 U166 2.454 . S
O167 C169 1.353 . S
O168 U166 2.458 . S
O168 C169 1.286 . S
C169 U166 2.984 . S
C169 O167 1.353 . S
C169 O168 1.286 . S
C169 C171 1.363 . S
C170 C160 1.465 . S
C170 U166 2.847 . S
C170 O184 1.249 . S
C170 O185 1.202 . S
C171 C169 1.363 . S
C171 C173 1.408 . S
C171 C176 1.342 . S
C172 C173 1.310 . S
C172 C175 1.461 . S
C172 H192 0.932 . S
C173 C171 1.408 . S
C173 C172 1.310 . S
C173 H193 0.930 . S
C174 C175 1.474 . S
C174 C176 1.285 . S
C174 H194 0.929 . S
C175 C172 1.461 . S
C175 C174 1.474 . S
C176 C171 1.342 . S
C176 C174 1.285 . S
C176 H195 0.930 . S
C177 C180 1.424 . S
C177 C182 1.245 . S
C177 C183 1.428 . S
C178 C181 1.260 . S
C178 C182 1.477 . S
C178 H196 0.932 . S
C179 C180 1.384 . S
C179 C181 1.479 . S
C179 H197 0.929 . S
C180 C177 1.424 . S
C180 C179 1.384 . S
C180 H198 0.928 . S
C181 C178 1.260 . S
C181 C179 1.479 . S
C182 C177 1.245 . S
C182 C178 1.477 . S
C182 H199 0.932 . S
C183 U166 2.882 . S
C183 C177 1.428 . S
C183 O186 1.301 . S
C183 O187 1.282 . S
O184 U166 2.441 . S
O184 C170 1.249 . S
O185 U166 2.420 . S
O185 C170 1.202 . S
O186 U166 2.455 . S
O186 C183 1.301 . S
O187 U166 2.449 . S
O187 C183 1.282 . S
H188 C161 0.931 . S
H189 C163 0.929 . S
H190 C164 0.930 . S
H191 C165 0.931 . S
H192 C172 0.932 . S
H193 C173 0.930 . S
H194 C174 0.929 . S
H195 C176 0.930 . S
H196 C178 0.932 . S
H197 C179 0.929 . S
H198 C180 0.928 . S
H199 C182 0.932 . S
C200 C201 1.264 . S
C200 C205 1.479 . S
C200 C210 1.465 . S
C201 C200 1.264 . S
C201 C203 1.339 . S
C201 H228 0.931 . S
C202 C203 1.395 . S
C202 C204 1.320 . S
C203 C201 1.339 . S
C203 C202 1.395 . S
C203 H229 0.929 . S
C204 C202 1.320 . S
C204 C205 1.405 . S
C204 H230 0.930 . S
C205 C200 1.479 . S
C205 C204 1.405 . S
C205 H231 0.931 . S
U206 O207 2.454 . S
U206 O208 2.458 . S
U206 C209 2.984 . S
U206 C210 2.847 . S
U206 C223 2.882 . S
U206 O224 2.441 . S
U206 O225 2.420 . S
U206 O226 2.455 . S
U206 O227 2.449 . S
O207 U206 2.454 . S
O207 C209 1.353 . S
O208 U206 2.458 . S
O208 C209 1.286 . S
C209 U206 2.984 . S
C209 O207 1.353 . S
C209 O208 1.286 . S
C209 C211 1.363 . S
C210 C200 1.465 . S
C210 U206 2.847 . S
C210 O224 1.249 . S
C210 O225 1.202 . S
C211 C209 1.363 . S
C211 C213 1.408 . S
C211 C216 1.342 . S
C212 C213 1.310 . S
C212 C215 1.461 . S
C212 H232 0.932 . S
C213 C211 1.408 . S
C213 C212 1.310 . S
C213 H233 0.930 . S
C214 C215 1.474 . S
C214 C216 1.285 . S
C214 H234 0.929 . S
C215 C212 1.461 . S
C215 C214 1.474 . S
C216 C211 1.342 . S
C216 C214 1.285 . S
C216 H235 0.930 . S
C217 C220 1.424 . S
C217 C222 1.245 . S
C217 C223 1.428 . S
C218 C221 1.260 . S
C218 C222 1.477 . S
C218 H236 0.932 . S
C219 C220 1.384 . S
C219 C221 1.479 . S
C219 H237 0.929 . S
C220 C217 1.424 . S
C220 C219 1.384 . S
C220 H238 0.928 . S
C221 C218 1.260 . S
C221 C219 1.479 . S
C222 C217 1.245 . S
C222 C218 1.477 . S
C222 H239 0.932 . S
C223 U206 2.882 . S
C223 C217 1.428 . S
C223 O226 1.301 . S
C223 O227 1.282 . S
O224 U206 2.441 . S
O224 C210 1.249 . S
O225 U206 2.420 . S
O225 C210 1.202 . S
O226 U206 2.455 . S
O226 C223 1.301 . S
O227 U206 2.449 . S
O227 C223 1.282 . S
H228 C201 0.931 . S
H229 C203 0.929 . S
H230 C204 0.930 . S
H231 C205 0.931 . S
H232 C212 0.932 . S
H233 C213 0.930 . S
H234 C214 0.929 . S
H235 C216 0.930 . S
H236 C218 0.932 . S
H237 C219 0.929 . S
H238 C220 0.928 . S
H239 C222 0.932 . S
H240 C246 0.930 . S
H241 C250 0.930 . S
H242 C255 0.929 . S
H243 C253 0.929 . S
H244 C248 0.928 . S
H245 C254 0.929 . S
C246 H240 0.930 . S
C246 C247 1.367 . S
C246 C254 1.378 . S
C247 C246 1.367 . S
C247 C255 1.433 . S
C248 H244 0.928 . S
C248 C250 1.378 . S
C248 C252 1.350 . S
C249 C252 1.463 1_556 S
C249 C254 1.350 . S
C249 N257 1.427 . S
C250 H241 0.930 . S
C250 C248 1.378 . S
C250 C251 1.367 . S
C251 C250 1.367 . S
C251 C253 1.433 . S
C252 C248 1.350 . S
C252 C249 1.463 1_554 S
C252 N256 1.427 . S
C253 H243 0.929 . S
C253 C251 1.433 . S
C253 N256 1.384 . S
C254 H245 0.929 . S
C254 C246 1.378 . S
C254 C249 1.350 . S
C255 H242 0.929 . S
C255 C247 1.433 . S
C255 N257 1.384 . S
N256 C252 1.427 . S
N256 C253 1.384 . S
N257 C249 1.427 . S
N257 C255 1.384 . S
H258 C264 0.930 . S
H259 C268 0.930 . S
H260 C273 0.929 . S
H261 C271 0.929 . S
H262 C266 0.929 . S
H263 C272 0.929 . S
C264 H258 0.930 . S
C264 C265 1.367 . S
C264 C272 1.378 . S
C265 C264 1.367 . S
C265 C273 1.433 . S
C266 H262 0.929 . S
C266 C268 1.378 . S
C266 C270 1.350 . S
C267 C270 1.463 . S
C267 C272 1.350 . S
C267 N275 1.427 . S
C268 H259 0.930 . S
C268 C266 1.378 . S
C268 C269 1.367 . S
C269 C268 1.367 . S
C269 C271 1.433 . S
C270 C266 1.350 . S
C270 C267 1.463 . S
C270 N274 1.427 . S
C271 H261 0.929 . S
C271 C269 1.433 . S
C271 N274 1.384 . S
C272 H263 0.929 . S
C272 C264 1.378 . S
C272 C267 1.350 . S
C273 H260 0.929 . S
C273 C265 1.433 . S
C273 N275 1.384 . S
N274 C270 1.427 . S
N274 C271 1.384 . S
N275 C267 1.427 . S
N275 C273 1.384 . S
H276 C282 0.930 . S
H277 C286 0.930 . S
H278 C291 0.929 . S
H279 C289 0.929 . S
H280 C284 0.929 . S
H281 C290 0.929 . S
C282 H276 0.930 . S
C282 C283 1.367 . S
C282 C290 1.378 . S
C283 C282 1.367 . S
C283 C291 1.433 . S
C284 H280 0.929 . S
C284 C286 1.378 . S
C284 C288 1.350 . S
C285 C288 1.463 . S
C285 C290 1.350 . S
C285 N293 1.427 . S
C286 H277 0.930 . S
C286 C284 1.378 . S
C286 C287 1.367 . S
C287 C286 1.367 . S
C287 C289 1.433 . S
C288 C284 1.350 . S
C288 C285 1.463 . S
C288 N292 1.427 . S
C289 H279 0.929 . S
C289 C287 1.433 . S
C289 N292 1.384 . S
C290 H281 0.929 . S
C290 C282 1.378 . S
C290 C285 1.350 . S
C291 H278 0.929 . S
C291 C283 1.433 . S
C291 N293 1.384 . S
N292 C288 1.427 . S
N292 C289 1.384 . S
N293 C285 1.427 . S
N293 C291 1.384 . S
H294 C300 0.930 . S
H295 C304 0.930 . S
H296 C309 0.929 . S
H297 C307 0.929 . S
H298 C302 0.929 . S
H299 C308 0.929 . S
C300 H294 0.930 . S
C300 C301 1.367 . S
C300 C308 1.378 . S
C301 C300 1.367 . S
C301 C309 1.433 . S
C302 H298 0.929 . S
C302 C304 1.378 . S
C302 C306 1.350 . S
C303 C306 1.463 1_554 S
C303 C308 1.350 . S
C303 N311 1.427 . S
C304 H295 0.930 . S
C304 C302 1.378 . S
C304 C305 1.367 . S
C305 C304 1.367 . S
C305 C307 1.433 . S
C306 C302 1.350 . S
C306 C303 1.463 1_556 S
C306 N310 1.427 . S
C307 H297 0.929 . S
C307 C305 1.433 . S
C307 N310 1.384 . S
C308 H299 0.929 . S
C308 C300 1.378 . S
C308 C303 1.350 . S
C309 H296 0.929 . S
C309 C301 1.433 . S
C309 N311 1.384 . S
N310 C306 1.427 . S
N310 C307 1.384 . S
N311 C303 1.427 . S
N311 C309 1.384 . S
H312 C318 0.930 . S
H313 C322 0.930 . S
H314 C327 0.929 . S
H315 C325 0.929 . S
H316 C320 0.929 . S
H317 C326 0.929 . S
C318 H312 0.930 . S
C318 C319 1.367 . S
C318 C326 1.378 . S
C319 C318 1.367 . S
C319 C327 1.433 . S
C320 H316 0.929 . S
C320 C322 1.378 . S
C320 C324 1.350 . S
C321 C324 1.463 . S
C321 C326 1.350 . S
C321 N329 1.427 . S
C322 H313 0.930 . S
C322 C320 1.378 . S
C322 C323 1.367 . S
C323 C322 1.367 . S
C323 C325 1.433 . S
C324 C320 1.350 . S
C324 C321 1.463 . S
C324 N328 1.427 . S
C325 H315 0.929 . S
C325 C323 1.433 . S
C325 N328 1.384 . S
C326 H317 0.929 . S
C326 C318 1.378 . S
C326 C321 1.350 . S
C327 H314 0.929 . S
C327 C319 1.433 . S
C327 N329 1.384 . S
N328 C324 1.427 . S
N328 C325 1.384 . S
N329 C321 1.427 . S
N329 C327 1.384 . S
H330 C336 0.930 . S
H331 C340 0.930 . S
H332 C345 0.929 . S
H333 C343 0.929 . S
H334 C338 0.929 . S
H335 C344 0.929 . S
C336 H330 0.930 . S
C336 C337 1.367 . S
C336 C344 1.378 . S
C337 C336 1.367 . S
C337 C345 1.433 . S
C338 H334 0.929 . S
C338 C340 1.378 . S
C338 C342 1.350 . S
C339 C342 1.463 . S
C339 C344 1.350 . S
C339 N347 1.427 . S
C340 H331 0.930 . S
C340 C338 1.378 . S
C340 C341 1.367 . S
C341 C340 1.367 . S
C341 C343 1.433 . S
C342 C338 1.350 . S
C342 C339 1.463 . S
C342 N346 1.427 . S
C343 H333 0.929 . S
C343 C341 1.433 . S
C343 N346 1.384 . S
C344 H335 0.929 . S
C344 C336 1.378 . S
C344 C339 1.350 . S
C345 H332 0.929 . S
C345 C337 1.433 . S
C345 N347 1.384 . S
N346 C342 1.427 . S
N346 C343 1.384 . S
N347 C339 1.427 . S
N347 C345 1.384 . S
H348 C354 0.930 . S
H349 C358 0.930 . S
H350 C363 0.929 . S
H351 C361 0.929 . S
H352 C356 0.929 . S
H353 C362 0.929 . S
C354 H348 0.930 . S
C354 C355 1.367 . S
C354 C362 1.378 . S
C355 C354 1.367 . S
C355 C363 1.433 . S
C356 H352 0.929 . S
C356 C358 1.378 . S
C356 C360 1.350 . S
C357 C360 1.463 1_455 S
C357 C362 1.350 . S
C357 N365 1.427 . S
C358 H349 0.930 . S
C358 C356 1.378 . S
C358 C359 1.367 . S
C359 C358 1.367 . S
C359 C361 1.433 . S
C360 C356 1.350 . S
C360 C357 1.463 1_655 S
C360 N364 1.427 . S
C361 H351 0.929 . S
C361 C359 1.433 . S
C361 N364 1.384 . S
C362 H353 0.929 . S
C362 C354 1.378 . S
C362 C357 1.350 . S
C363 H350 0.929 . S
C363 C355 1.433 . S
C363 N365 1.384 . S
N364 C360 1.427 . S
N364 C361 1.384 . S
N365 C357 1.427 . S
N365 C363 1.384 . S
H366 C372 0.930 . S
H367 C376 0.930 . S
H368 C381 0.929 . S
H369 C379 0.929 . S
H370 C374 0.929 . S
H371 C380 0.929 . S
C372 H366 0.930 . S
C372 C373 1.367 . S
C372 C380 1.378 . S
C373 C372 1.367 . S
C373 C381 1.433 . S
C374 H370 0.929 . S
C374 C376 1.378 . S
C374 C378 1.350 . S
C375 C378 1.463 1_545 S
C375 C380 1.350 . S
C375 N383 1.427 . S
C376 H367 0.930 . S
C376 C374 1.378 . S
C376 C377 1.367 . S
C377 C376 1.367 . S
C377 C379 1.433 . S
C378 C374 1.350 . S
C378 C375 1.463 1_565 S
C378 N382 1.427 . S
C379 H369 0.929 . S
C379 C377 1.433 . S
C379 N382 1.384 . S
C380 H371 0.929 . S
C380 C372 1.378 . S
C380 C375 1.350 . S
C381 H368 0.929 . S
C381 C373 1.433 . S
C381 N383 1.384 . S
N382 C378 1.427 . S
N382 C379 1.384 . S
N383 C375 1.427 . S
N383 C381 1.384 . S
H384 C390 0.930 . S
H385 C394 0.930 . S
H386 C399 0.929 . S
H387 C397 0.929 . S
H388 C392 0.929 . S
H389 C398 0.929 . S
C390 H384 0.930 . S
C390 C391 1.367 . S
C390 C398 1.378 . S
C391 C390 1.367 . S
C391 C399 1.433 . S
C392 H388 0.929 . S
C392 C394 1.378 . S
C392 C396 1.350 . S
C393 C396 1.463 . S
C393 C398 1.350 . S
C393 N401 1.427 . S
C394 H385 0.930 . S
C394 C392 1.378 . S
C394 C395 1.367 . S
C395 C394 1.367 . S
C395 C397 1.433 . S
C396 C392 1.350 . S
C396 C393 1.463 . S
C396 N400 1.427 . S
C397 H387 0.929 . S
C397 C395 1.433 . S
C397 N400 1.384 . S
C398 H389 0.929 . S
C398 C390 1.378 . S
C398 C393 1.350 . S
C399 H386 0.929 . S
C399 C391 1.433 . S
C399 N401 1.384 . S
N400 C396 1.427 . S
N400 C397 1.384 . S
N401 C393 1.427 . S
N401 C399 1.384 . S
C247 C101 1.487 . S
C251 C2 1.484 . S
C265 C61 1.494 . S
C269 C141 1.486 . S
C283 C82 1.482 . S
C287 C181 1.490 . S
C301 C122 1.492 . S
C305 C221 1.486 . S
C319 C162 1.493 . S
C323 C21 1.485 . S
C337 C202 1.482 . S
C341 C42 1.488 . S
C355 C15 1.502 . S
C359 C135 1.502 . S
C373 C55 1.500 . S
C377 C175 1.500 . S
C391 C95 1.503 . S
C395 C215 1.504 . S
