# Generated by pormake.
# Topology unx, (4)-cn, num edge types: 1
# Building blocks:
#     Node 0, Type 0, BuildingBlock: CEKHIL_clean_sbu_0, # of connection points: 4
#     Node 1, Type 0, BuildingBlock: CEKHIL_clean_sbu_0, # of connection points: 4
#     Node 2, Type 0, BuildingBlock: CEKHIL_clean_sbu_0, # of connection points: 4
#     Node 3, Type 0, BuildingBlock: CEKHIL_clean_sbu_0, # of connection points: 4
#     Node 4, Type 0, BuildingBlock: CEKHIL_clean_sbu_0, # of connection points: 4
#     Node 5, Type 0, BuildingBlock: CEKHIL_clean_sbu_0, # of connection points: 4
#     Node 6, Type 0, BuildingBlock: CEKHIL_clean_sbu_0, # of connection points: 4
#     Node 7, Type 0, BuildingBlock: CEKHIL_clean_sbu_0, # of connection points: 4
#     Node 8, Type 0, BuildingBlock: CEKHIL_clean_sbu_0, # of connection points: 4
#     Node 9, Type 0, BuildingBlock: CEKHIL_clean_sbu_0, # of connection points: 4
#     Node 10, Type 0, BuildingBlock: CEKHIL_clean_sbu_0, # of connection points: 4
#     Node 11, Type 0, BuildingBlock: CEKHIL_clean_sbu_0, # of connection points: 4
#     Node 12, Type 0, BuildingBlock: CEKHIL_clean_sbu_0, # of connection points: 4
#     Node 13, Type 0, BuildingBlock: CEKHIL_clean_sbu_0, # of connection points: 4
#     Node 14, Type 0, BuildingBlock: CEKHIL_clean_sbu_0, # of connection points: 4
#     Node 15, Type 0, BuildingBlock: CEKHIL_clean_sbu_0, # of connection points: 4
#     Node 16, Type 0, BuildingBlock: CEKHIL_clean_sbu_0, # of connection points: 4
#     Node 17, Type 0, BuildingBlock: CEKHIL_clean_sbu_0, # of connection points: 4
#     Node 18, Type 0, BuildingBlock: CEKHIL_clean_sbu_0, # of connection points: 4
#     Node 19, Type 0, BuildingBlock: CEKHIL_clean_sbu_0, # of connection points: 4
#     Node 20, Type 0, BuildingBlock: CEKHIL_clean_sbu_0, # of connection points: 4
#     Node 21, Type 0, BuildingBlock: CEKHIL_clean_sbu_0, # of connection points: 4
#     Node 22, Type 0, BuildingBlock: CEKHIL_clean_sbu_0, # of connection points: 4
#     Node 23, Type 0, BuildingBlock: CEKHIL_clean_sbu_0, # of connection points: 4
#     Node 24, Type 0, BuildingBlock: CEKHIL_clean_sbu_0, # of connection points: 4
#     Node 25, Type 0, BuildingBlock: CEKHIL_clean_sbu_0, # of connection points: 4
#     Node 26, Type 0, BuildingBlock: CEKHIL_clean_sbu_0, # of connection points: 4
#     Node 27, Type 0, BuildingBlock: CEKHIL_clean_sbu_0, # of connection points: 4
#     Node 28, Type 0, BuildingBlock: CEKHIL_clean_sbu_0, # of connection points: 4
#     Node 29, Type 0, BuildingBlock: CEKHIL_clean_sbu_0, # of connection points: 4
#     Node 30, Type 0, BuildingBlock: CEKHIL_clean_sbu_0, # of connection points: 4
#     Node 31, Type 0, BuildingBlock: CEKHIL_clean_sbu_0, # of connection points: 4
#     Node 32, Type 0, BuildingBlock: CEKHIL_clean_sbu_0, # of connection points: 4
#     Node 33, Type 0, BuildingBlock: CEKHIL_clean_sbu_0, # of connection points: 4
#     Node 34, Type 0, BuildingBlock: CEKHIL_clean_sbu_0, # of connection points: 4
#     Node 35, Type 0, BuildingBlock: CEKHIL_clean_sbu_0, # of connection points: 4
#     Node 36, Type 0, BuildingBlock: CEKHIL_clean_sbu_0, # of connection points: 4
#     Node 37, Type 0, BuildingBlock: CEKHIL_clean_sbu_0, # of connection points: 4
#     Node 38, Type 0, BuildingBlock: CEKHIL_clean_sbu_0, # of connection points: 4
#     Node 39, Type 0, BuildingBlock: CEKHIL_clean_sbu_0, # of connection points: 4
#     Node 40, Type 0, BuildingBlock: CEKHIL_clean_sbu_0, # of connection points: 4
#     Node 41, Type 0, BuildingBlock: CEKHIL_clean_sbu_0, # of connection points: 4
#     Node 42, Type 0, BuildingBlock: CEKHIL_clean_sbu_0, # of connection points: 4
#     Node 43, Type 0, BuildingBlock: CEKHIL_clean_sbu_0, # of connection points: 4
#     Node 44, Type 0, BuildingBlock: CEKHIL_clean_sbu_0, # of connection points: 4
#     Node 45, Type 0, BuildingBlock: CEKHIL_clean_sbu_0, # of connection points: 4
#     Node 46, Type 0, BuildingBlock: CEKHIL_clean_sbu_0, # of connection points: 4
#     Node 47, Type 0, BuildingBlock: CEKHIL_clean_sbu_0, # of connection points: 4
#     Edge 48, Type (0, 0), BuildingBlock: XIVTED_clean_linker_0, # of connection points: 2
#     Edge 49, Type (0, 0), BuildingBlock: XIVTED_clean_linker_0, # of connection points: 2
#     Edge 50, Type (0, 0), BuildingBlock: XIVTED_clean_linker_0, # of connection points: 2
#     Edge 51, Type (0, 0), BuildingBlock: XIVTED_clean_linker_0, # of connection points: 2
#     Edge 52, Type (0, 0), BuildingBlock: XIVTED_clean_linker_0, # of connection points: 2
#     Edge 53, Type (0, 0), BuildingBlock: XIVTED_clean_linker_0, # of connection points: 2
#     Edge 54, Type (0, 0), BuildingBlock: XIVTED_clean_linker_0, # of connection points: 2
#     Edge 55, Type (0, 0), BuildingBlock: XIVTED_clean_linker_0, # of connection points: 2
#     Edge 56, Type (0, 0), BuildingBlock: XIVTED_clean_linker_0, # of connection points: 2
#     Edge 57, Type (0, 0), BuildingBlock: XIVTED_clean_linker_0, # of connection points: 2
#     Edge 58, Type (0, 0), BuildingBlock: XIVTED_clean_linker_0, # of connection points: 2
#     Edge 59, Type (0, 0), BuildingBlock: XIVTED_clean_linker_0, # of connection points: 2
#     Edge 60, Type (0, 0), BuildingBlock: XIVTED_clean_linker_0, # of connection points: 2
#     Edge 61, Type (0, 0), BuildingBlock: XIVTED_clean_linker_0, # of connection points: 2
#     Edge 62, Type (0, 0), BuildingBlock: XIVTED_clean_linker_0, # of connection points: 2
#     Edge 63, Type (0, 0), BuildingBlock: XIVTED_clean_linker_0, # of connection points: 2
#     Edge 64, Type (0, 0), BuildingBlock: XIVTED_clean_linker_0, # of connection points: 2
#     Edge 65, Type (0, 0), BuildingBlock: XIVTED_clean_linker_0, # of connection points: 2
#     Edge 66, Type (0, 0), BuildingBlock: XIVTED_clean_linker_0, # of connection points: 2
#     Edge 67, Type (0, 0), BuildingBlock: XIVTED_clean_linker_0, # of connection points: 2
#     Edge 68, Type (0, 0), BuildingBlock: XIVTED_clean_linker_0, # of connection points: 2
#     Edge 69, Type (0, 0), BuildingBlock: XIVTED_clean_linker_0, # of connection points: 2
#     Edge 70, Type (0, 0), BuildingBlock: XIVTED_clean_linker_0, # of connection points: 2
#     Edge 71, Type (0, 0), BuildingBlock: XIVTED_clean_linker_0, # of connection points: 2
#     Edge 72, Type (0, 0), BuildingBlock: XIVTED_clean_linker_0, # of connection points: 2
#     Edge 73, Type (0, 0), BuildingBlock: XIVTED_clean_linker_0, # of connection points: 2
#     Edge 74, Type (0, 0), BuildingBlock: XIVTED_clean_linker_0, # of connection points: 2
#     Edge 75, Type (0, 0), BuildingBlock: XIVTED_clean_linker_0, # of connection points: 2
#     Edge 76, Type (0, 0), BuildingBlock: XIVTED_clean_linker_0, # of connection points: 2
#     Edge 77, Type (0, 0), BuildingBlock: XIVTED_clean_linker_0, # of connection points: 2
#     Edge 78, Type (0, 0), BuildingBlock: XIVTED_clean_linker_0, # of connection points: 2
#     Edge 79, Type (0, 0), BuildingBlock: XIVTED_clean_linker_0, # of connection points: 2
#     Edge 80, Type (0, 0), BuildingBlock: XIVTED_clean_linker_0, # of connection points: 2
#     Edge 81, Type (0, 0), BuildingBlock: XIVTED_clean_linker_0, # of connection points: 2
#     Edge 82, Type (0, 0), BuildingBlock: XIVTED_clean_linker_0, # of connection points: 2
#     Edge 83, Type (0, 0), BuildingBlock: XIVTED_clean_linker_0, # of connection points: 2
#     Edge 84, Type (0, 0), BuildingBlock: XIVTED_clean_linker_0, # of connection points: 2
#     Edge 85, Type (0, 0), BuildingBlock: XIVTED_clean_linker_0, # of connection points: 2
#     Edge 86, Type (0, 0), BuildingBlock: XIVTED_clean_linker_0, # of connection points: 2
#     Edge 87, Type (0, 0), BuildingBlock: XIVTED_clean_linker_0, # of connection points: 2
#     Edge 88, Type (0, 0), BuildingBlock: XIVTED_clean_linker_0, # of connection points: 2
#     Edge 89, Type (0, 0), BuildingBlock: XIVTED_clean_linker_0, # of connection points: 2
#     Edge 90, Type (0, 0), BuildingBlock: XIVTED_clean_linker_0, # of connection points: 2
#     Edge 91, Type (0, 0), BuildingBlock: XIVTED_clean_linker_0, # of connection points: 2
#     Edge 92, Type (0, 0), BuildingBlock: XIVTED_clean_linker_0, # of connection points: 2
#     Edge 93, Type (0, 0), BuildingBlock: XIVTED_clean_linker_0, # of connection points: 2
#     Edge 94, Type (0, 0), BuildingBlock: XIVTED_clean_linker_0, # of connection points: 2
#     Edge 95, Type (0, 0), BuildingBlock: XIVTED_clean_linker_0, # of connection points: 2
#     Edge 96, Type (0, 0), BuildingBlock: XIVTED_clean_linker_0, # of connection points: 2
#     Edge 97, Type (0, 0), BuildingBlock: XIVTED_clean_linker_0, # of connection points: 2
#     Edge 98, Type (0, 0), BuildingBlock: XIVTED_clean_linker_0, # of connection points: 2
#     Edge 99, Type (0, 0), BuildingBlock: XIVTED_clean_linker_0, # of connection points: 2
#     Edge 100, Type (0, 0), BuildingBlock: XIVTED_clean_linker_0, # of connection points: 2
#     Edge 101, Type (0, 0), BuildingBlock: XIVTED_clean_linker_0, # of connection points: 2
#     Edge 102, Type (0, 0), BuildingBlock: XIVTED_clean_linker_0, # of connection points: 2
#     Edge 103, Type (0, 0), BuildingBlock: XIVTED_clean_linker_0, # of connection points: 2
#     Edge 104, Type (0, 0), BuildingBlock: XIVTED_clean_linker_0, # of connection points: 2
#     Edge 105, Type (0, 0), BuildingBlock: XIVTED_clean_linker_0, # of connection points: 2
#     Edge 106, Type (0, 0), BuildingBlock: XIVTED_clean_linker_0, # of connection points: 2
#     Edge 107, Type (0, 0), BuildingBlock: XIVTED_clean_linker_0, # of connection points: 2
#     Edge 108, Type (0, 0), BuildingBlock: XIVTED_clean_linker_0, # of connection points: 2
#     Edge 109, Type (0, 0), BuildingBlock: XIVTED_clean_linker_0, # of connection points: 2
#     Edge 110, Type (0, 0), BuildingBlock: XIVTED_clean_linker_0, # of connection points: 2
#     Edge 111, Type (0, 0), BuildingBlock: XIVTED_clean_linker_0, # of connection points: 2
#     Edge 112, Type (0, 0), BuildingBlock: XIVTED_clean_linker_0, # of connection points: 2
#     Edge 113, Type (0, 0), BuildingBlock: XIVTED_clean_linker_0, # of connection points: 2
#     Edge 114, Type (0, 0), BuildingBlock: XIVTED_clean_linker_0, # of connection points: 2
#     Edge 115, Type (0, 0), BuildingBlock: XIVTED_clean_linker_0, # of connection points: 2
#     Edge 116, Type (0, 0), BuildingBlock: XIVTED_clean_linker_0, # of connection points: 2
#     Edge 117, Type (0, 0), BuildingBlock: XIVTED_clean_linker_0, # of connection points: 2
#     Edge 118, Type (0, 0), BuildingBlock: XIVTED_clean_linker_0, # of connection points: 2
#     Edge 119, Type (0, 0), BuildingBlock: XIVTED_clean_linker_0, # of connection points: 2
#     Edge 120, Type (0, 0), BuildingBlock: XIVTED_clean_linker_0, # of connection points: 2
#     Edge 121, Type (0, 0), BuildingBlock: XIVTED_clean_linker_0, # of connection points: 2
#     Edge 122, Type (0, 0), BuildingBlock: XIVTED_clean_linker_0, # of connection points: 2
#     Edge 123, Type (0, 0), BuildingBlock: XIVTED_clean_linker_0, # of connection points: 2
#     Edge 124, Type (0, 0), BuildingBlock: XIVTED_clean_linker_0, # of connection points: 2
#     Edge 125, Type (0, 0), BuildingBlock: XIVTED_clean_linker_0, # of connection points: 2
#     Edge 126, Type (0, 0), BuildingBlock: XIVTED_clean_linker_0, # of connection points: 2
#     Edge 127, Type (0, 0), BuildingBlock: XIVTED_clean_linker_0, # of connection points: 2
#     Edge 128, Type (0, 0), BuildingBlock: XIVTED_clean_linker_0, # of connection points: 2
#     Edge 129, Type (0, 0), BuildingBlock: XIVTED_clean_linker_0, # of connection points: 2
#     Edge 130, Type (0, 0), BuildingBlock: XIVTED_clean_linker_0, # of connection points: 2
#     Edge 131, Type (0, 0), BuildingBlock: XIVTED_clean_linker_0, # of connection points: 2
#     Edge 132, Type (0, 0), BuildingBlock: XIVTED_clean_linker_0, # of connection points: 2
#     Edge 133, Type (0, 0), BuildingBlock: XIVTED_clean_linker_0, # of connection points: 2
#     Edge 134, Type (0, 0), BuildingBlock: XIVTED_clean_linker_0, # of connection points: 2
#     Edge 135, Type (0, 0), BuildingBlock: XIVTED_clean_linker_0, # of connection points: 2
#     Edge 136, Type (0, 0), BuildingBlock: XIVTED_clean_linker_0, # of connection points: 2
#     Edge 137, Type (0, 0), BuildingBlock: XIVTED_clean_linker_0, # of connection points: 2
#     Edge 138, Type (0, 0), BuildingBlock: XIVTED_clean_linker_0, # of connection points: 2
#     Edge 139, Type (0, 0), BuildingBlock: XIVTED_clean_linker_0, # of connection points: 2
#     Edge 140, Type (0, 0), BuildingBlock: XIVTED_clean_linker_0, # of connection points: 2
#     Edge 141, Type (0, 0), BuildingBlock: XIVTED_clean_linker_0, # of connection points: 2
#     Edge 142, Type (0, 0), BuildingBlock: XIVTED_clean_linker_0, # of connection points: 2
#     Edge 143, Type (0, 0), BuildingBlock: XIVTED_clean_linker_0, # of connection points: 2
# Relax obj value: 0.549
# Max RMSD: 0.348
# Mean RMSD: 0.245
data_MOF--net-unx--node1-CEKHIL_clean_sbu_0--edge1-XIVTED_clean_linker_0
_symmetry_space_group_name_H-M    P1
_symmetry_Int_Tables_number       1
_symmetry_cell_setting            triclinic
loop_
_symmetry_equiv_pos_as_xyz
'x, y, z'
_cell_length_a     52.896476
_cell_length_b     51.097453
_cell_length_c     53.338068
_cell_angle_alpha  90.008188
_cell_angle_beta   89.994662
_cell_angle_gamma 91.115153
loop_
_atom_site_label
_atom_site_type_symbol
_atom_site_fract_x
_atom_site_fract_y
_atom_site_fract_z
_atom_type_partial_charge
Co0 Co 0.13088 0.49754 0.30116 0.0
O1 O 0.15663 0.48926 0.3253 0.0
O2 O 0.1571 0.52384 0.30008 0.0
C3 C 0.0964 0.4908 0.3246 0.0
O4 O 0.10794 0.51347 0.27499 0.0
Co5 Co 0.09364 0.45561 0.28063 0.0
O6 O 0.07636 0.4855 0.26461 0.0
C7 C 0.14579 0.45618 0.26241 0.0
C8 C 0.16838 0.5102 0.31714 0.0
C9 C 0.08707 0.50802 0.26359 0.0
O10 O 0.14948 0.47728 0.27502 0.0
O11 O 0.12485 0.4432 0.26283 0.0
O12 O 0.10979 0.51228 0.32693 0.0
O13 O 0.10641 0.47256 0.31112 0.0
Co14 Co 0.67126 0.1935 0.49218 0.0
O15 O 0.70228 0.20928 0.50477 0.0
O16 O 0.66369 0.219 0.51742 0.0
C17 C 0.6824 0.1511 0.49162 0.0
O18 O 0.63508 0.18241 0.48419 0.0
Co19 Co 0.66912 0.16604 0.44032 0.0
O20 O 0.63281 0.15955 0.44826 0.0
C21 C 0.67424 0.22313 0.4426 0.0
C22 C 0.68781 0.22425 0.51809 0.0
C23 C 0.62241 0.1697 0.46741 0.0
O24 O 0.66976 0.22194 0.46623 0.0
O25 O 0.67712 0.20278 0.42898 0.0
O26 O 0.67539 0.16184 0.51259 0.0
O27 O 0.68538 0.16695 0.47296 0.0
Co28 Co 0.87344 0.96421 0.58695 0.0
O29 O 0.84315 0.98448 0.58488 0.0
O30 O 0.8522 0.95682 0.61548 0.0
C31 C 0.90291 0.995 0.57758 0.0
O32 O 0.90305 0.9408 0.5957 0.0
Co33 Co 0.90392 0.95462 0.53818 0.0
O34 O 0.92933 0.94186 0.56242 0.0
C35 C 0.85797 0.92339 0.54711 0.0
C36 C 0.83631 0.97297 0.60558 0.0
C37 C 0.92431 0.93585 0.58511 0.0
O38 O 0.85622 0.93428 0.56872 0.0
O39 O 0.87466 0.93024 0.5309 0.0
O40 O 0.89279 0.99405 0.5998 0.0
O41 O 0.89123 0.98097 0.56082 0.0
Co42 Co 0.22299 0.96221 0.9267 0.0
O43 O 0.21496 0.9254 0.92973 0.0
O44 O 0.25371 0.94259 0.93028 0.0
C45 C 0.19499 0.9792 0.9538 0.0
O46 O 0.23818 0.99921 0.92505 0.0
Co47 Co 0.18262 0.99826 0.90344 0.0
O48 O 0.20695 0.02622 0.91384 0.0
C49 C 0.21329 0.96686 0.86988 0.0
C50 C 0.23915 0.92179 0.93125 0.0
C51 C 0.22947 0.02229 0.92129 0.0
O52 O 0.2259 0.959 0.88899 0.0
O53 O 0.19357 0.9808 0.87184 0.0
O54 O 0.21538 0.96829 0.96203 0.0
O55 O 0.18993 0.97435 0.9305 0.0
Co56 Co 0.11301 0.46264 0.87707 0.0
O57 O 0.09263 0.49315 0.88061 0.0
O58 O 0.09288 0.45971 0.90713 0.0
C59 C 0.14946 0.48268 0.86643 0.0
O60 O 0.13186 0.42835 0.87997 0.0
Co61 Co 0.13436 0.44743 0.82506 0.0
O62 O 0.15336 0.42106 0.84436 0.0
C63 C 0.08107 0.43616 0.83588 0.0
C64 C 0.08328 0.48192 0.9005 0.0
C65 C 0.14761 0.4151 0.86688 0.0
O66 O 0.0849 0.44468 0.8582 0.0
O67 O 0.09815 0.43637 0.81888 0.0
O68 O 0.14269 0.4814 0.88987 0.0
O69 O 0.13267 0.47486 0.85032 0.0
Co70 Co 0.73491 0.54455 0.06597 0.0
O71 O 0.72218 0.57943 0.06243 0.0
O72 O 0.76174 0.56806 0.05519 0.0
C73 C 0.70402 0.5214 0.0464 0.0
O74 O 0.75441 0.51046 0.06678 0.0
Co75 Co 0.70492 0.50496 0.09925 0.0
O76 O 0.72873 0.47984 0.08422 0.0
C77 C 0.73705 0.54453 0.12368 0.0
C78 C 0.74507 0.58644 0.05623 0.0
C79 C 0.74897 0.48654 0.0727 0.0
O80 O 0.74471 0.55199 0.1019 0.0
O81 O 0.71946 0.52729 0.12678 0.0
O82 O 0.72113 0.53404 0.03344 0.0
O83 O 0.70355 0.52733 0.06999 0.0
Co84 Co 0.88301 0.03915 0.18355 0.0
O85 O 0.9107 0.04529 0.16091 0.0
O86 O 0.90817 0.01311 0.18888 0.0
C87 C 0.85115 0.04317 0.15619 0.0
O88 O 0.857 0.02634 0.20927 0.0
Co89 Co 0.8452 0.08365 0.19399 0.0
O90 O 0.82496 0.05471 0.20949 0.0
C91 C 0.8964 0.08681 0.2152 0.0
C92 C 0.92085 0.02502 0.17121 0.0
C93 C 0.83453 0.03293 0.21574 0.0
O94 O 0.89986 0.06281 0.2091 0.0
O95 O 0.87688 0.09955 0.20861 0.0
O96 O 0.86341 0.02141 0.15747 0.0
O97 O 0.86099 0.06253 0.16859 0.0
Co98 Co 0.17977 0.29909 0.47926 0.0
O99 O 0.20888 0.28843 0.46036 0.0
O100 O 0.16914 0.27755 0.45145 0.0
C101 C 0.18983 0.34157 0.48545 0.0
O102 O 0.14507 0.30588 0.49414 0.0
Co103 Co 0.18622 0.31485 0.53488 0.0
O104 O 0.14971 0.32306 0.5327 0.0
C105 C 0.18932 0.25968 0.52149 0.0
C106 C 0.19308 0.27422 0.44718 0.0
C107 C 0.13587 0.31577 0.5143 0.0
O108 O 0.18245 0.26628 0.49942 0.0
O109 O 0.19356 0.2764 0.53895 0.0
O110 O 0.18014 0.33389 0.46417 0.0
O111 O 0.19632 0.32303 0.50055 0.0
Co112 Co 0.26195 0.05023 0.41693 0.0
O113 O 0.27206 0.08665 0.4176 0.0
O114 O 0.23244 0.072 0.41921 0.0
C115 C 0.28962 0.03422 0.44499 0.0
O116 O 0.24474 0.01414 0.41741 0.0
Co117 Co 0.30031 0.00968 0.397 0.0
O118 O 0.27424 0.98412 0.40906 0.0
C119 C 0.272 0.04091 0.36094 0.0
C120 C 0.24818 0.09191 0.4188 0.0
C121 C 0.2518 0.99022 0.41523 0.0
O122 O 0.25928 0.0508 0.3791 0.0
O123 O 0.291 0.02621 0.36436 0.0
O124 O 0.26951 0.04604 0.45269 0.0
O125 O 0.29427 0.03677 0.42135 0.0
Co126 Co 0.36903 0.51438 0.80033 0.0
O127 O 0.345 0.52772 0.8242 0.0
O128 O 0.33933 0.49245 0.80037 0.0
C129 C 0.40438 0.51627 0.82315 0.0
O130 O 0.38907 0.49375 0.7749 0.0
Co131 Co 0.41162 0.54913 0.77791 0.0
O132 O 0.42433 0.51597 0.76358 0.0
C133 C 0.3602 0.55511 0.75895 0.0
C134 C 0.33037 0.50836 0.81699 0.0
C135 C 0.41047 0.49531 0.76349 0.0
O136 O 0.35348 0.53599 0.77319 0.0
O137 O 0.38274 0.56468 0.75864 0.0
O138 O 0.38776 0.49756 0.82664 0.0
O139 O 0.39711 0.53554 0.80916 0.0
Co140 Co 0.81699 0.79827 0.99061 0.0
O141 O 0.78631 0.7851 0.00627 0.0
O142 O 0.82517 0.77281 0.01553 0.0
C143 C 0.80928 0.8414 0.99052 0.0
O144 O 0.85286 0.80645 0.97922 0.0
Co145 Co 0.81599 0.82398 0.93812 0.0
O146 O 0.85322 0.82783 0.94243 0.0
C147 C 0.80892 0.7672 0.94195 0.0
C148 C 0.80097 0.76943 0.01859 0.0
C149 C 0.86467 0.8176 0.96092 0.0
O150 O 0.81418 0.76925 0.96535 0.0
O151 O 0.80675 0.7871 0.92758 0.0
O152 O 0.81721 0.83011 0.01085 0.0
O153 O 0.80309 0.82582 0.97229 0.0
Co154 Co 0.62225 0.04147 0.13501 0.0
O155 O 0.65232 0.0221 0.12938 0.0
O156 O 0.64951 0.05675 0.15432 0.0
C157 C 0.5949 0.00797 0.14063 0.0
O158 O 0.59409 0.06596 0.14545 0.0
Co159 Co 0.57814 0.03707 0.09689 0.0
O160 O 0.55898 0.05332 0.12456 0.0
C161 C 0.61987 0.07468 0.08753 0.0
C162 C 0.66345 0.03889 0.14417 0.0
C163 C 0.57008 0.06676 0.14154 0.0
O164 O 0.63138 0.06597 0.10688 0.0
O165 O 0.59842 0.06571 0.08002 0.0
O166 O 0.60967 0.01552 0.15883 0.0
O167 O 0.60024 0.01787 0.11889 0.0
Co168 Co 0.41929 0.24979 0.12266 0.0
O169 O 0.39779 0.23684 0.14883 0.0
O170 O 0.43003 0.2649 0.15412 0.0
C171 C 0.38838 0.25889 0.0957 0.0
O172 O 0.44531 0.26743 0.09955 0.0
Co173 Co 0.42058 0.22081 0.0716 0.0
O174 O 0.44021 0.25205 0.06035 0.0
C175 C 0.44957 0.20048 0.11444 0.0
C176 C 0.41174 0.25081 0.16388 0.0
C177 C 0.45066 0.26774 0.07595 0.0
O178 O 0.44243 0.21961 0.12812 0.0
O179 O 0.44245 0.19692 0.09174 0.0
O180 O 0.39464 0.27573 0.11296 0.0
O181 O 0.39926 0.23652 0.09671 0.0
Co182 Co 0.10345 0.8014 0.37395 0.0
O183 O 0.09005 0.77428 0.35258 0.0
O184 O 0.1211 0.80217 0.34239 0.0
C185 C 0.10675 0.77729 0.40864 0.0
O186 O 0.12277 0.83132 0.3908 0.0
Co187 Co 0.0731 0.82195 0.41864 0.0
O188 O 0.10344 0.8441 0.42609 0.0
C189 C 0.05838 0.83757 0.36829 0.0
C190 C 0.1061 0.78288 0.33592 0.0
C191 C 0.12174 0.84562 0.4106 0.0
O192 O 0.07795 0.82589 0.36012 0.0
O193 O 0.05187 0.83782 0.39136 0.0
O194 O 0.12427 0.77681 0.39158 0.0
O195 O 0.08666 0.79035 0.40325 0.0
Co196 Co 0.37854 0.30733 0.63343 0.0
O197 O 0.38437 0.28365 0.66055 0.0
O198 O 0.35198 0.31061 0.65772 0.0
C199 C 0.38557 0.27989 0.60176 0.0
O200 O 0.36599 0.33409 0.60842 0.0
Co201 Co 0.42209 0.32444 0.598 0.0
O202 O 0.39592 0.3444 0.57995 0.0
C203 C 0.42012 0.34691 0.64836 0.0
C204 C 0.36405 0.29316 0.67048 0.0
C205 C 0.37367 0.34648 0.58875 0.0
O206 O 0.39881 0.33495 0.65149 0.0
O207 O 0.43358 0.34453 0.62859 0.0
O208 O 0.36389 0.27947 0.61325 0.0
O209 O 0.40318 0.29452 0.61173 0.0
Co210 Co 0.06101 0.72832 0.87176 0.0
O211 O 0.08492 0.7217 0.84564 0.0
O212 O 0.05474 0.75134 0.84405 0.0
C213 C 0.0878 0.72861 0.90435 0.0
O214 O 0.03341 0.74101 0.89508 0.0
Co215 Co 0.05123 0.68728 0.91382 0.0
O216 O 0.03112 0.71551 0.92938 0.0
C217 C 0.03411 0.67669 0.86231 0.0
C218 C 0.07308 0.73934 0.83292 0.0
C219 C 0.02473 0.73576 0.91709 0.0
O220 O 0.03753 0.70098 0.85671 0.0
O221 O 0.04102 0.66685 0.88323 0.0
O222 O 0.08562 0.74961 0.89076 0.0
O223 O 0.07628 0.70801 0.89594 0.0
Co224 Co 0.09362 0.69246 0.12487 0.0
O225 O 0.07897 0.71762 0.14705 0.0
O226 O 0.11607 0.69883 0.15262 0.0
C227 C 0.08669 0.71288 0.0885 0.0
O228 O 0.11504 0.66627 0.10609 0.0
Co229 Co 0.06004 0.66144 0.08724 0.0
O230 O 0.09249 0.64736 0.07503 0.0
C231 C 0.05934 0.64595 0.14007 0.0
C232 C 0.09901 0.71468 0.1608 0.0
C233 C 0.11309 0.65084 0.08706 0.0
O234 O 0.07663 0.66339 0.1442 0.0
O235 O 0.04894 0.64257 0.11862 0.0
O236 O 0.10565 0.71999 0.10259 0.0
O237 O 0.07077 0.69624 0.09836 0.0
Co238 Co 0.58328 0.74109 0.12363 0.0
O239 O 0.6058 0.7455 0.15143 0.0
O240 O 0.56763 0.72664 0.15328 0.0
C241 C 0.61197 0.72746 0.09599 0.0
O242 O 0.55525 0.7326 0.09861 0.0
Co243 Co 0.5905 0.77529 0.07612 0.0
O244 O 0.56428 0.75141 0.06149 0.0
C245 C 0.56733 0.79814 0.12101 0.0
C246 C 0.58793 0.73489 0.1649 0.0
C247 C 0.55059 0.73639 0.0752 0.0
O248 O 0.56746 0.77554 0.1315 0.0
O249 O 0.57739 0.80271 0.09957 0.0
O250 O 0.60168 0.71079 0.11155 0.0
O251 O 0.60655 0.7517 0.09939 0.0
Co252 Co 0.3491 0.22995 0.88282 0.0
O253 O 0.35648 0.26031 0.86305 0.0
O254 O 0.32533 0.23161 0.85554 0.0
C255 C 0.35224 0.24927 0.92011 0.0
O256 O 0.33537 0.1969 0.89948 0.0
Co257 Co 0.3896 0.20702 0.91752 0.0
O258 O 0.36225 0.18272 0.9289 0.0
C259 C 0.39282 0.19678 0.86369 0.0
C260 C 0.338 0.2525 0.84869 0.0
C261 C 0.34127 0.18111 0.91723 0.0
O262 O 0.37208 0.20906 0.86102 0.0
O263 O 0.40393 0.1942 0.88482 0.0
O264 O 0.33138 0.25059 0.90733 0.0
O265 O 0.37126 0.23863 0.90901 0.0
Co266 Co 0.4208 0.25274 0.38726 0.0
O267 O 0.39601 0.26097 0.36258 0.0
O268 O 0.42485 0.23015 0.35874 0.0
C269 C 0.39518 0.25302 0.42062 0.0
O270 O 0.4489 0.23858 0.40918 0.0
Co271 Co 0.43374 0.2928 0.42941 0.0
O272 O 0.45227 0.26299 0.44417 0.0
C273 C 0.44996 0.30322 0.37751 0.0
C274 C 0.40653 0.24328 0.34882 0.0
C275 C 0.45794 0.24292 0.43125 0.0
O276 O 0.44462 0.27935 0.37162 0.0
O277 O 0.4447 0.31308 0.39892 0.0
O278 O 0.39618 0.23207 0.40679 0.0
O279 O 0.40735 0.27324 0.41224 0.0
Co280 Co 0.1201 0.03512 0.58712 0.0
O281 O 0.15049 0.01504 0.58498 0.0
O282 O 0.14087 0.04187 0.61611 0.0
C283 C 0.09081 0.00456 0.57666 0.0
O284 O 0.0903 0.05817 0.59604 0.0
Co285 Co 0.09041 0.04602 0.5382 0.0
O286 O 0.06456 0.05802 0.56236 0.0
C287 C 0.13616 0.07703 0.54853 0.0
C288 C 0.15699 0.0261 0.60601 0.0
C289 C 0.06918 0.06337 0.58527 0.0
O290 O 0.13752 0.06557 0.56989 0.0
O291 O 0.11976 0.07063 0.53189 0.0
O292 O 0.10067 0.00491 0.599 0.0
O293 O 0.10272 0.01901 0.56036 0.0
Co294 Co 0.76655 0.04567 0.92758 0.0
O295 O 0.77384 0.08264 0.93025 0.0
O296 O 0.73541 0.06478 0.93094 0.0
C297 C 0.79493 0.02974 0.95495 0.0
O298 O 0.75224 0.00822 0.92627 0.0
Co299 Co 0.80811 0.01059 0.90486 0.0
O300 O 0.78441 0.98217 0.91553 0.0
C301 C 0.77691 0.04087 0.87088 0.0
C302 C 0.74961 0.08587 0.93176 0.0
C303 C 0.76173 0.98541 0.92282 0.0
O304 O 0.76377 0.04836 0.8898 0.0
O305 O 0.79709 0.0277 0.87316 0.0
O306 O 0.77422 0.04015 0.96302 0.0
O307 O 0.79989 0.03447 0.93162 0.0
Co308 Co 0.87592 0.4921 0.29364 0.0
O309 O 0.85083 0.50201 0.31788 0.0
O310 O 0.84795 0.46777 0.29232 0.0
C311 C 0.91058 0.49621 0.31727 0.0
O312 O 0.89768 0.47475 0.26735 0.0
Co313 Co 0.91592 0.53133 0.27343 0.0
O314 O 0.93082 0.50053 0.25653 0.0
C315 C 0.86378 0.53535 0.2559 0.0
C316 C 0.83766 0.48208 0.30952 0.0
C317 C 0.91866 0.47879 0.25566 0.0
O318 O 0.85877 0.51406 0.26778 0.0
O319 O 0.8855 0.54681 0.25662 0.0
O320 O 0.89596 0.47555 0.31922 0.0
O321 O 0.90192 0.51522 0.30384 0.0
Co322 Co 0.32704 0.80922 0.49679 0.0
O323 O 0.29594 0.79381 0.50944 0.0
O324 O 0.33446 0.78374 0.52206 0.0
C325 C 0.31628 0.8517 0.49614 0.0
O326 O 0.36326 0.82 0.4886 0.0
Co327 Co 0.32893 0.83624 0.44473 0.0
O328 O 0.36508 0.84336 0.45296 0.0
C329 C 0.32418 0.77914 0.44733 0.0
C330 C 0.31029 0.77867 0.52268 0.0
C331 C 0.3757 0.83301 0.47188 0.0
O332 O 0.32833 0.78063 0.471 0.0
O333 O 0.32143 0.79932 0.43347 0.0
O334 O 0.32324 0.84096 0.51712 0.0
O335 O 0.31303 0.8358 0.47755 0.0
Co336 Co 0.13101 0.95457 0.1903 0.0
O337 O 0.10532 0.94804 0.16554 0.0
O338 O 0.10934 0.98422 0.18843 0.0
C339 C 0.16517 0.94177 0.16909 0.0
O340 O 0.15557 0.96852 0.21683 0.0
Co341 Co 0.15993 0.90778 0.21269 0.0
O342 O 0.18204 0.9361 0.22673 0.0
C343 C 0.10699 0.91532 0.22617 0.0
C344 C 0.09681 0.97086 0.17161 0.0
C345 C 0.17562 0.96003 0.22758 0.0
O346 O 0.10832 0.93843 0.21675 0.0
O347 O 0.12469 0.89876 0.22405 0.0
O348 O 0.15559 0.96459 0.16477 0.0
O349 O 0.1511 0.92608 0.18228 0.0
Co350 Co 0.81825 0.70094 0.47393 0.0
O351 O 0.78912 0.71254 0.45551 0.0
O352 O 0.829 0.72229 0.44611 0.0
C353 C 0.80753 0.65862 0.48021 0.0
O354 O 0.853 0.69334 0.48807 0.0
Co355 Co 0.81276 0.68495 0.52961 0.0
O356 O 0.84932 0.67689 0.527 0.0
C357 C 0.80945 0.74013 0.51638 0.0
C358 C 0.80514 0.72643 0.44225 0.0
C359 C 0.86268 0.68373 0.50811 0.0
O360 O 0.81654 0.7337 0.49433 0.0
O361 O 0.80501 0.72329 0.53367 0.0
O362 O 0.81688 0.66615 0.45873 0.0
O363 O 0.80167 0.67727 0.49546 0.0
Co364 Co 0.87375 0.54472 0.88062 0.0
O365 O 0.8961 0.5158 0.8854 0.0
O366 O 0.8979 0.55316 0.90653 0.0
C367 C 0.83733 0.52198 0.87878 0.0
O368 O 0.85403 0.57844 0.88207 0.0
Co369 Co 0.84279 0.55189 0.83207 0.0
O370 O 0.82696 0.58156 0.84984 0.0
C371 C 0.89682 0.56501 0.83152 0.0
C372 C 0.90755 0.53044 0.90199 0.0
C373 C 0.83619 0.59008 0.8704 0.0
O374 O 0.8976 0.55993 0.85506 0.0
O375 O 0.87687 0.56239 0.81815 0.0
O376 O 0.84734 0.52772 0.90044 0.0
O377 O 0.85075 0.5277 0.85919 0.0
Co378 Co 0.26567 0.46498 0.06663 0.0
O379 O 0.27782 0.43018 0.06053 0.0
O380 O 0.23804 0.4423 0.0564 0.0
C381 C 0.29536 0.48909 0.04639 0.0
O382 O 0.24642 0.49897 0.07037 0.0
Co383 Co 0.29737 0.50292 0.10002 0.0
O384 O 0.27239 0.5288 0.08854 0.0
C385 C 0.26673 0.462 0.12431 0.0
C386 C 0.25448 0.42372 0.05551 0.0
C387 C 0.25167 0.5225 0.0777 0.0
O388 O 0.25806 0.45556 0.10262 0.0
O389 O 0.28424 0.47934 0.12734 0.0
O390 O 0.27746 0.47711 0.03392 0.0
O391 O 0.29729 0.48204 0.06963 0.0
Co392 Co 0.17978 0.21095 0.99031 0.0
O393 O 0.21134 0.22508 0.0033 0.0
O394 O 0.17311 0.23713 0.01509 0.0
C395 C 0.18821 0.16793 0.99083 0.0
O396 O 0.14329 0.20166 0.98181 0.0
Co397 Co 0.17744 0.18319 0.93871 0.0
O398 O 0.14103 0.17746 0.9467 0.0
C399 C 0.18336 0.24029 0.94026 0.0
C400 C 0.19744 0.24086 0.01633 0.0
C401 C 0.13058 0.18865 0.96527 0.0
O402 O 0.18005 0.23916 0.96407 0.0
O403 O 0.18496 0.21985 0.92651 0.0
O404 O 0.18165 0.17975 0.01138 0.0
O405 O 0.19279 0.18304 0.97184 0.0
Co406 Co 0.38487 0.94692 0.16805 0.0
O407 O 0.35439 0.96419 0.17606 0.0
O408 O 0.36563 0.92584 0.19174 0.0
C409 C 0.41182 0.98109 0.17038 0.0
O410 O 0.41607 0.92434 0.16401 0.0
Co411 Co 0.41051 0.96249 0.11789 0.0
O412 O 0.4388 0.94276 0.13265 0.0
C413 C 0.36732 0.92632 0.1164 0.0
C414 C 0.34877 0.94401 0.18983 0.0
C415 C 0.43646 0.9267 0.15085 0.0
O416 O 0.36717 0.92701 0.14043 0.0
O417 O 0.38232 0.94057 0.10315 0.0
O418 O 0.40419 0.9694 0.19077 0.0
O419 O 0.39925 0.97488 0.15036 0.0
Co420 Co 0.74359 0.95345 0.41406 0.0
O421 O 0.73199 0.91755 0.41306 0.0
O422 O 0.77192 0.93017 0.41802 0.0
C423 C 0.71424 0.96961 0.44037 0.0
O424 O 0.76193 0.98895 0.41681 0.0
Co425 Co 0.70812 0.99589 0.39243 0.0
O426 O 0.73303 0.01976 0.40902 0.0
C427 C 0.7382 0.96462 0.35771 0.0
C428 C 0.75538 0.91106 0.41597 0.0
C429 C 0.75501 0.01303 0.41612 0.0
O430 O 0.74911 0.95367 0.37647 0.0
O431 O 0.71967 0.98016 0.36016 0.0
O432 O 0.73339 0.95703 0.44928 0.0
O433 O 0.71152 0.96794 0.41638 0.0
Co434 Co 0.62626 0.48721 0.80145 0.0
O435 O 0.64704 0.47002 0.82587 0.0
O436 O 0.65573 0.50854 0.80817 0.0
C437 C 0.58866 0.48263 0.82031 0.0
O438 O 0.60942 0.5114 0.77655 0.0
Co439 Co 0.58573 0.45634 0.77123 0.0
O440 O 0.57527 0.49145 0.75958 0.0
C441 C 0.63911 0.45148 0.75716 0.0
C442 C 0.66218 0.49023 0.82367 0.0
C443 C 0.58939 0.51165 0.76286 0.0
O444 O 0.64472 0.46901 0.77363 0.0
O445 O 0.61662 0.44227 0.75418 0.0
O446 O 0.60461 0.50079 0.82742 0.0
O447 O 0.59738 0.46546 0.80479 0.0
Co448 Co 0.63063 0.70242 0.63243 0.0
O449 O 0.6249 0.72737 0.6585 0.0
O450 O 0.6572 0.70028 0.65699 0.0
C451 C 0.6234 0.72846 0.59961 0.0
O452 O 0.64288 0.67442 0.60848 0.0
Co453 Co 0.58648 0.68417 0.59813 0.0
O454 O 0.61239 0.66317 0.58085 0.0
C455 C 0.5892 0.6634 0.64918 0.0
C456 C 0.64505 0.71825 0.66904 0.0
C457 C 0.63473 0.66119 0.58948 0.0
O458 O 0.61049 0.67557 0.65173 0.0
O459 O 0.57548 0.66522 0.62952 0.0
O460 O 0.64519 0.72931 0.61088 0.0
O461 O 0.60589 0.71437 0.61037 0.0
Co462 Co 0.92651 0.25725 0.87848 0.0
O463 O 0.90362 0.26291 0.85117 0.0
O464 O 0.93879 0.2399 0.84902 0.0
C465 C 0.89796 0.24722 0.9082 0.0
O466 O 0.9544 0.24679 0.90247 0.0
Co467 Co 0.92617 0.29305 0.92538 0.0
O468 O 0.94991 0.26715 0.9395 0.0
C469 C 0.94715 0.31323 0.87792 0.0
C470 C 0.91936 0.24968 0.8377 0.0
C471 C 0.96066 0.25042 0.92554 0.0
O472 O 0.94577 0.29003 0.86866 0.0
O473 O 0.93833 0.31898 0.89955 0.0
O474 O 0.90512 0.2293 0.89255 0.0
O475 O 0.90595 0.27072 0.90353 0.0
Co476 Co 0.88192 0.2113 0.37393 0.0
O477 O 0.88775 0.23993 0.351 0.0
O478 O 0.85958 0.20759 0.34574 0.0
C479 C 0.88186 0.23476 0.40928 0.0
O480 O 0.86925 0.17931 0.39304 0.0
Co481 Co 0.92099 0.19422 0.41281 0.0
O482 O 0.89526 0.16795 0.42423 0.0
C483 C 0.92938 0.18113 0.36033 0.0
C484 C 0.87057 0.22865 0.33704 0.0
C485 C 0.87488 0.16481 0.41182 0.0
O486 O 0.90758 0.19041 0.35553 0.0
O487 O 0.93934 0.18142 0.38216 0.0
O488 O 0.86166 0.23304 0.39542 0.0
O489 O 0.90209 0.22425 0.40034 0.0
Co490 Co 0.92992 0.2509 0.60958 0.0
O491 O 0.90826 0.24243 0.63734 0.0
O492 O 0.94508 0.26394 0.64012 0.0
C493 C 0.89991 0.26562 0.58366 0.0
O494 O 0.95701 0.26341 0.585 0.0
Co495 Co 0.92307 0.22176 0.55886 0.0
O496 O 0.94926 0.24709 0.54654 0.0
C497 C 0.94509 0.1946 0.60207 0.0
C498 C 0.9254 0.25364 0.65128 0.0
C499 C 0.96206 0.26171 0.56143 0.0
O500 O 0.94737 0.21647 0.61387 0.0
O501 O 0.9334 0.19219 0.58115 0.0
O502 O 0.9097 0.28121 0.60047 0.0
O503 O 0.90667 0.24157 0.58486 0.0
Co504 Co 0.57773 0.75726 0.38774 0.0
O505 O 0.60151 0.75137 0.36135 0.0
O506 O 0.56958 0.77893 0.35957 0.0
C507 C 0.6052 0.75942 0.41965 0.0
O508 O 0.54999 0.76909 0.41128 0.0
Co509 Co 0.57015 0.71677 0.43054 0.0
O510 O 0.54939 0.74446 0.44617 0.0
C511 C 0.55111 0.70473 0.37995 0.0
C512 C 0.58817 0.76751 0.34826 0.0
C513 C 0.54191 0.76404 0.43355 0.0
O514 O 0.55518 0.72869 0.37355 0.0
O515 O 0.55792 0.69548 0.40115 0.0
O516 O 0.60175 0.78007 0.40584 0.0
O517 O 0.59427 0.73816 0.41196 0.0
Co518 Co 0.6491 0.7753 0.88445 0.0
O519 O 0.64348 0.74549 0.86328 0.0
O520 O 0.67348 0.77588 0.8576 0.0
C521 C 0.64602 0.75427 0.92103 0.0
O522 O 0.66109 0.80831 0.90245 0.0
Co523 Co 0.60713 0.79513 0.91912 0.0
O524 O 0.6328 0.82099 0.93118 0.0
C525 C 0.6042 0.80685 0.86558 0.0
C526 C 0.66186 0.75482 0.84958 0.0
C527 C 0.65402 0.82368 0.92011 0.0
O528 O 0.62564 0.7959 0.86296 0.0
O529 O 0.59256 0.80806 0.88655 0.0
O530 O 0.66716 0.75448 0.90859 0.0
O531 O 0.62679 0.76456 0.90997 0.0
Co532 Co 0.61552 0.4418 0.35684 0.0
O533 O 0.5968 0.47369 0.35663 0.0
O534 O 0.59394 0.44284 0.38586 0.0
C535 C 0.65354 0.45856 0.34697 0.0
O536 O 0.63219 0.40711 0.3641 0.0
Co537 Co 0.63898 0.41989 0.30818 0.0
O538 O 0.65563 0.39498 0.3311 0.0
C539 C 0.58478 0.412 0.3168 0.0
C540 C 0.58623 0.46504 0.37709 0.0
C541 C 0.64813 0.39186 0.35362 0.0
O542 O 0.58756 0.42356 0.33799 0.0
O543 O 0.60288 0.40883 0.30125 0.0
O544 O 0.6452 0.46003 0.36986 0.0
O545 O 0.63744 0.45017 0.33036 0.0
Co546 Co 0.24559 0.55037 0.55862 0.0
O547 O 0.23377 0.58549 0.55419 0.0
O548 O 0.27349 0.57345 0.54951 0.0
C549 C 0.21569 0.52762 0.53718 0.0
O550 O 0.26419 0.51575 0.56085 0.0
Co551 Co 0.21262 0.5123 0.59071 0.0
O552 O 0.23646 0.48636 0.57719 0.0
C553 C 0.24396 0.55144 0.61644 0.0
C554 C 0.25712 0.59215 0.54957 0.0
C555 C 0.25745 0.4921 0.56659 0.0
O556 O 0.25322 0.55798 0.59502 0.0
O557 O 0.22577 0.53477 0.61885 0.0
O558 O 0.23378 0.54001 0.52535 0.0
O559 O 0.21371 0.5337 0.56068 0.0
Co560 Co 0.36344 0.02919 0.69828 0.0
O561 O 0.39388 0.03252 0.67865 0.0
O562 O 0.38904 0.00703 0.71204 0.0
C563 C 0.33541 0.02588 0.66657 0.0
O564 O 0.33481 0.01968 0.72237 0.0
Co565 Co 0.3221 0.07152 0.69554 0.0
O566 O 0.30134 0.04447 0.71334 0.0
C567 C 0.36947 0.08291 0.72258 0.0
C568 C 0.40366 0.01612 0.69434 0.0
C569 C 0.31129 0.02526 0.7247 0.0
O570 O 0.3755 0.0587 0.72083 0.0
O571 O 0.35014 0.0924 0.71167 0.0
O572 O 0.34795 0.00543 0.67348 0.0
O573 O 0.34269 0.04766 0.67668 0.0
Co574 Co 0.66887 0.29086 0.00027 0.0
O575 O 0.69872 0.27749 0.98447 0.0
O576 O 0.6594 0.26656 0.974 0.0
C577 C 0.68025 0.33348 0.00253 0.0
O578 O 0.63355 0.30063 0.01217 0.0
Co579 Co 0.67236 0.31384 0.05403 0.0
O580 O 0.63734 0.32497 0.04716 0.0
C581 C 0.67168 0.25696 0.04762 0.0
C582 C 0.6835 0.2627 0.97129 0.0
C583 C 0.62403 0.31493 0.02958 0.0
O584 O 0.66903 0.26049 0.02401 0.0
O585 O 0.67415 0.27571 0.06338 0.0
O586 O 0.67147 0.32375 0.98164 0.0
O587 O 0.685 0.31658 0.01987 0.0
Co588 Co 0.8835 0.3018 0.12128 0.0
O589 O 0.89138 0.27524 0.14554 0.0
O590 O 0.86118 0.30456 0.14949 0.0
C591 C 0.88433 0.27691 0.08685 0.0
O592 O 0.86866 0.33106 0.10064 0.0
Co593 Co 0.92125 0.32068 0.08103 0.0
O594 O 0.8934 0.34243 0.06807 0.0
C595 C 0.92774 0.33978 0.13235 0.0
C596 C 0.87346 0.28518 0.15902 0.0
C597 C 0.87308 0.34441 0.08066 0.0
O598 O 0.90756 0.32687 0.13821 0.0
O599 O 0.93738 0.3395 0.11036 0.0
O600 O 0.86447 0.27681 0.10123 0.0
O601 O 0.90408 0.28969 0.0951 0.0
Co602 Co 0.06637 0.7491 0.60553 0.0
O603 O 0.08757 0.75716 0.6337 0.0
O604 O 0.05117 0.73472 0.63542 0.0
C605 C 0.09707 0.73584 0.57968 0.0
O606 O 0.03981 0.73669 0.58038 0.0
Co607 Co 0.07311 0.77959 0.55558 0.0
O608 O 0.0481 0.75353 0.54225 0.0
C609 C 0.04974 0.80508 0.59912 0.0
C610 C 0.0706 0.74492 0.64707 0.0
C611 C 0.03528 0.7385 0.55674 0.0
O612 O 0.04808 0.78296 0.61055 0.0
O613 O 0.06146 0.80827 0.5783 0.0
O614 O 0.08734 0.71956 0.5959 0.0
O615 O 0.08972 0.75967 0.58136 0.0
Co616 Co 0.63017 0.97264 0.69879 0.0
O617 O 0.59958 0.96894 0.67938 0.0
O618 O 0.60462 0.99488 0.71244 0.0
C619 C 0.6581 0.97554 0.66694 0.0
O620 O 0.65873 0.98267 0.72269 0.0
Co621 Co 0.67195 0.93076 0.69662 0.0
O622 O 0.69248 0.95805 0.7144 0.0
C623 C 0.6244 0.91915 0.72331 0.0
C624 C 0.58986 0.98547 0.69501 0.0
C625 C 0.68225 0.97733 0.72538 0.0
O626 O 0.61834 0.94336 0.72171 0.0
O627 O 0.64376 0.90975 0.71236 0.0
O628 O 0.64554 0.99608 0.67361 0.0
O629 O 0.65094 0.95393 0.67742 0.0
Co630 Co 0.3262 0.72041 0.00049 0.0
O631 O 0.29571 0.73247 0.98487 0.0
O632 O 0.33459 0.74488 0.97413 0.0
C633 C 0.31664 0.67735 0.00287 0.0
O634 O 0.36191 0.71228 0.01196 0.0
Co635 Co 0.32387 0.69748 0.05429 0.0
O636 O 0.36004 0.68978 0.04818 0.0
C637 C 0.31945 0.75403 0.04752 0.0
C638 C 0.31035 0.74773 0.9715 0.0
C639 C 0.37251 0.69964 0.02989 0.0
O640 O 0.32496 0.75074 0.02433 0.0
O641 O 0.31609 0.73491 0.06275 0.0
O642 O 0.32482 0.6874 0.98189 0.0
O643 O 0.31132 0.69406 0.0202 0.0
Co644 Co 0.38853 0.56117 0.36438 0.0
O645 O 0.40867 0.53029 0.36387 0.0
O646 O 0.41106 0.56155 0.39274 0.0
C647 C 0.35102 0.54249 0.35575 0.0
O648 O 0.37047 0.59513 0.37162 0.0
Co649 Co 0.36299 0.58097 0.3159 0.0
O650 O 0.34604 0.60568 0.3388 0.0
C651 C 0.41699 0.59154 0.32308 0.0
C652 C 0.41959 0.53974 0.38383 0.0
C653 C 0.3538 0.60953 0.36114 0.0
O654 O 0.41511 0.58046 0.34458 0.0
O655 O 0.39845 0.59336 0.30781 0.0
O656 O 0.36003 0.54172 0.37843 0.0
O657 O 0.36631 0.55136 0.33864 0.0
Co658 Co 0.75579 0.45113 0.55852 0.0
O659 O 0.76742 0.41593 0.55416 0.0
O660 O 0.72756 0.42786 0.55065 0.0
C661 C 0.78493 0.47339 0.53559 0.0
O662 O 0.73743 0.48594 0.56089 0.0
Co663 Co 0.79027 0.48948 0.58881 0.0
O664 O 0.76603 0.51528 0.57586 0.0
C665 C 0.75898 0.45169 0.61638 0.0
C666 C 0.74397 0.40919 0.55023 0.0
C667 C 0.7446 0.50961 0.56612 0.0
O668 O 0.7494 0.44431 0.59533 0.0
O669 O 0.77724 0.46839 0.61793 0.0
O670 O 0.76639 0.46082 0.52467 0.0
O671 O 0.7878 0.46773 0.55909 0.0
H672 H 0.22561 0.42832 0.12608 0.0
H673 H 0.19598 0.46798 0.26692 0.0
H674 H 0.27691 0.47219 0.1739 0.0
H675 H 0.14278 0.42631 0.21947 0.0
H676 H 0.22885 0.46154 0.23571 0.0
H677 H 0.19864 0.4193 0.16232 0.0
C678 C 0.23151 0.43566 0.14425 0.0
C679 C 0.25338 0.45156 0.14677 0.0
C680 C 0.2101 0.45347 0.23219 0.0
C681 C 0.22235 0.44139 0.18834 0.0
C682 C 0.19128 0.45715 0.25002 0.0
C683 C 0.16646 0.44806 0.24559 0.0
C684 C 0.20409 0.44089 0.20951 0.0
C685 C 0.16161 0.4338 0.22356 0.0
C686 C 0.21601 0.43053 0.16495 0.0
C687 C 0.26009 0.46021 0.1709 0.0
N688 N 0.18017 0.43105 0.20611 0.0
N689 N 0.24445 0.45535 0.19063 0.0
H690 H 0.66559 0.27062 0.46448 0.0
H691 H 0.67536 0.35058 0.33599 0.0
H692 H 0.68411 0.23535 0.39333 0.0
H693 H 0.64039 0.38015 0.40322 0.0
H694 H 0.68562 0.31055 0.35847 0.0
H695 H 0.66322 0.31303 0.44383 0.0
C696 C 0.66932 0.27176 0.44454 0.0
C697 C 0.67475 0.24924 0.43056 0.0
C698 C 0.67585 0.32589 0.36832 0.0
C699 C 0.6721 0.29789 0.40685 0.0
C700 C 0.67005 0.34881 0.35554 0.0
C701 C 0.65672 0.3687 0.36765 0.0
C702 C 0.66843 0.32287 0.39343 0.0
C703 C 0.65044 0.36527 0.39303 0.0
C704 C 0.66792 0.29603 0.43277 0.0
C705 C 0.67961 0.25209 0.40482 0.0
N706 N 0.65624 0.34273 0.40503 0.0
N707 N 0.67804 0.27596 0.39377 0.0
H708 H 0.83111 0.89368 0.58102 0.0
H709 H 0.80511 0.77926 0.48218 0.0
H710 H 0.84934 0.89856 0.5022 0.0
H711 H 0.81009 0.76589 0.56196 0.0
H712 H 0.80964 0.82607 0.48943 0.0
H713 H 0.81211 0.85031 0.57396 0.0
C714 C 0.83067 0.88593 0.56212 0.0
C715 C 0.84221 0.89968 0.54219 0.0
C716 C 0.80949 0.81296 0.50539 0.0
C717 C 0.82046 0.85007 0.53413 0.0
C718 C 0.80692 0.78617 0.50131 0.0
C719 C 0.80784 0.76852 0.5215 0.0
C720 C 0.81303 0.82234 0.52984 0.0
C721 C 0.80958 0.77876 0.54586 0.0
C722 C 0.81993 0.86109 0.55819 0.0
C723 C 0.84099 0.88857 0.51816 0.0
N724 N 0.81249 0.80506 0.54935 0.0
N725 N 0.83052 0.86433 0.51485 0.0
H726 H 0.25969 0.02488 0.72869 0.0
H727 H 0.25966 0.94715 0.85753 0.0
H728 H 0.3261 0.98963 0.76015 0.0
H729 H 0.19331 0.98102 0.82448 0.0
H730 H 0.28241 0.95471 0.81831 0.0
H731 H 0.23379 0.00226 0.75997 0.0
C732 C 0.26885 0.01227 0.7421 0.0
C733 C 0.29522 0.00958 0.74207 0.0
C734 C 0.26273 0.96004 0.81949 0.0
C735 C 0.26553 0.98355 0.77808 0.0
C736 C 0.24962 0.95556 0.84187 0.0
C737 C 0.22466 0.96407 0.84461 0.0
C738 C 0.25082 0.97318 0.79974 0.0
C739 C 0.21267 0.97462 0.8235 0.0
C740 C 0.25399 0.99923 0.75991 0.0
C741 C 0.30589 0.99254 0.75963 0.0
N742 N 0.226 0.97932 0.80215 0.0
N743 N 0.29106 0.98047 0.77715 0.0
H744 H 0.18744 0.25274 0.89014 0.0
H745 H 0.17875 0.37983 0.84418 0.0
H746 H 0.17918 0.28788 0.96329 0.0
H747 H 0.1403 0.39471 0.91405 0.0
H748 H 0.19231 0.33793 0.86068 0.0
H749 H 0.18284 0.29581 0.87115 0.0
C750 C 0.1851 0.26954 0.90224 0.0
C751 C 0.18354 0.26654 0.92836 0.0
C752 C 0.1807 0.35019 0.87233 0.0
C753 C 0.1786 0.31615 0.90675 0.0
C754 C 0.17314 0.37434 0.86301 0.0
C755 C 0.15799 0.39076 0.87759 0.0
C756 C 0.173 0.34231 0.89641 0.0
C757 C 0.1517 0.38264 0.90199 0.0
C758 C 0.18266 0.29425 0.89137 0.0
C759 C 0.18037 0.2891 0.94306 0.0
N760 N 0.15915 0.35897 0.91057 0.0
N761 N 0.1777 0.31283 0.93204 0.0
H762 H 0.72635 0.53567 0.17335 0.0
H763 H 0.86822 0.56808 0.21496 0.0
H764 H 0.78169 0.57292 0.12489 0.0
H765 H 0.81311 0.52615 0.26007 0.0
H766 H 0.83462 0.57869 0.18511 0.0
H767 H 0.75534 0.54133 0.20851 0.0
C768 C 0.7444 0.54547 0.17014 0.0
C769 C 0.75175 0.55328 0.14595 0.0
C770 C 0.82986 0.56752 0.20176 0.0
C771 C 0.78531 0.55945 0.18618 0.0
C772 C 0.84901 0.56153 0.21883 0.0
C773 C 0.84355 0.54578 0.23977 0.0
C774 C 0.80513 0.55776 0.2058 0.0
C775 C 0.81831 0.53789 0.2439 0.0
C776 C 0.76102 0.54863 0.19026 0.0
C777 C 0.7753 0.56622 0.14311 0.0
N778 N 0.80015 0.54371 0.22696 0.0
N779 N 0.79143 0.56845 0.16288 0.0
H780 H 0.78589 0.94814 0.34571 0.0
H781 H 0.78323 0.03039 0.21982 0.0
H782 H 0.71818 0.97876 0.31247 0.0
H783 H 0.85087 0.9952 0.24844 0.0
H784 H 0.75823 0.0053 0.25007 0.0
H785 H 0.80874 0.95789 0.30686 0.0
C786 C 0.77561 0.95622 0.33005 0.0
C787 C 0.75016 0.96317 0.33261 0.0
C788 C 0.7785 0.00277 0.24963 0.0
C789 C 0.77636 0.97479 0.28824 0.0
C790 C 0.79282 0.01722 0.23241 0.0
C791 C 0.81923 0.01526 0.23195 0.0
C792 C 0.79066 0.98648 0.26688 0.0
C793 C 0.83057 0.99746 0.24832 0.0
C794 C 0.78875 0.96196 0.3079 0.0
C795 C 0.73789 0.97354 0.31159 0.0
N796 N 0.81626 0.98408 0.26545 0.0
N797 N 0.7512 0.97944 0.29051 0.0
H798 H 0.19471 0.22086 0.48715 0.0
H799 H 0.16259 0.10569 0.58355 0.0
H800 H 0.1867 0.2335 0.56679 0.0
H801 H 0.14595 0.10279 0.5043 0.0
H802 H 0.18271 0.14874 0.57766 0.0
H803 H 0.1887 0.17407 0.49372 0.0
C804 C 0.19198 0.21378 0.50613 0.0
C805 C 0.19061 0.23124 0.52644 0.0
C806 C 0.17498 0.13846 0.56154 0.0
C807 C 0.1837 0.17747 0.53399 0.0
C808 C 0.16359 0.11382 0.56481 0.0
C809 C 0.15223 0.10071 0.5444 0.0
C810 C 0.17531 0.14992 0.53767 0.0
C811 C 0.15416 0.11228 0.52061 0.0
C812 C 0.18854 0.18701 0.50981 0.0
C813 C 0.18764 0.22078 0.5506 0.0
N814 N 0.1653 0.1363 0.51794 0.0
N815 N 0.1839 0.19452 0.55369 0.0
H816 H 0.98141 0.26081 0.51361 0.0
H817 H 0.10889 0.33591 0.55351 0.0
H818 H 0.99451 0.29502 0.58664 0.0
H819 H 0.09921 0.29498 0.4832 0.0
H820 H 0.0642 0.32832 0.56259 0.0
H821 H 0.02149 0.28002 0.49926 0.0
C822 C 0.99254 0.27258 0.52659 0.0
C823 C 0.98469 0.2759 0.55155 0.0
C824 C 0.07177 0.32127 0.54503 0.0
C825 C 0.0307 0.29796 0.53514 0.0
C826 C 0.09733 0.32566 0.53977 0.0
C827 C 0.10803 0.31568 0.51772 0.0
C828 C 0.05671 0.3067 0.5282 0.0
C829 C 0.09192 0.30281 0.50055 0.0
C830 C 0.01546 0.28354 0.51834 0.0
C831 C -0.00013 0.2916 0.56735 0.0
N832 N 0.06716 0.29838 0.50631 0.0
N833 N 0.02223 0.3018 0.55895 0.0
H834 H 0.97192 0.30884 0.83278 0.0
H835 H 0.07067 0.39461 0.80476 0.0
H836 H 0.95433 0.36474 0.89065 0.0
H837 H 0.03588 0.44709 0.85722 0.0
H838 H 0.03341 0.36601 0.80697 0.0
H839 H -0.00035 0.34134 0.81315 0.0
C840 C 0.97379 0.32802 0.84131 0.0
C841 C 0.96127 0.33377 0.86384 0.0
C842 C 0.03338 0.38406 0.8175 0.0
C843 C 0.99355 0.37117 0.84168 0.0
C844 C 0.05476 0.40053 0.81608 0.0
C845 C 0.05651 0.42294 0.83119 0.0
C846 C 0.01367 0.39023 0.83416 0.0
C847 C 0.03547 0.42969 0.84562 0.0
C848 C 0.98985 0.34665 0.83012 0.0
C849 C 0.96398 0.35914 0.87364 0.0
N850 N 0.01515 0.4132 0.84704 0.0
N851 N 0.98003 0.3767 0.86268 0.0
H852 H 0.79941 0.4912 0.05981 0.0
H853 H 0.82239 0.34136 0.0882 0.0
H854 H 0.73959 0.43398 0.07246 0.0
H855 H 0.88069 0.39125 0.05622 0.0
H856 H 0.79166 0.37525 0.08054 0.0
H857 H 0.8295 0.45539 0.05604 0.0
C858 C 0.79255 0.47116 0.06147 0.0
C859 C 0.76705 0.46562 0.06701 0.0
C860 C 0.81109 0.37878 0.07488 0.0
C861 C 0.80124 0.42477 0.06282 0.0
C862 C 0.82865 0.35942 0.07933 0.0
C863 C 0.85411 0.36362 0.07301 0.0
C864 C 0.81907 0.40281 0.06448 0.0
C865 C 0.86118 0.38729 0.06135 0.0
C866 C 0.80971 0.45076 0.05931 0.0
C867 C 0.75917 0.43928 0.06879 0.0
N868 N 0.84379 0.40624 0.05781 0.0
N869 N 0.77622 0.41993 0.067 0.0
H870 H 0.94214 0.20301 0.31604 0.0
H871 H 0.92539 0.0644 0.25169 0.0
H872 H 0.94306 0.13009 0.35647 0.0
H873 H 0.90788 0.13885 0.21848 0.0
H874 H 0.94734 0.08752 0.28592 0.0
H875 H 0.94686 0.17912 0.27676 0.0
C876 C 0.94441 0.18198 0.31663 0.0
C877 C 0.94206 0.16837 0.33932 0.0
C878 C 0.93923 0.09873 0.27079 0.0
C879 C 0.94612 0.14082 0.29453 0.0
C880 C 0.92676 0.08557 0.25124 0.0
C881 C 0.91431 0.09982 0.2326 0.0
C882 C 0.93939 0.12621 0.27142 0.0
C883 C 0.91674 0.12716 0.23282 0.0
C884 C 0.94684 0.16831 0.29423 0.0
C885 C 0.94485 0.14117 0.33924 0.0
N886 N 0.92871 0.13946 0.2521 0.0
N887 N 0.94604 0.12812 0.31703 0.0
H888 H 0.20223 0.99287 0.43104 0.0
H889 H 0.16953 0.84626 0.39129 0.0
H890 H 0.25843 0.93802 0.40693 0.0
H891 H 0.12001 0.89048 0.43887 0.0
H892 H 0.20172 0.88083 0.39542 0.0
H893 H 0.17106 0.95674 0.43297 0.0
C894 C 0.20809 0.97329 0.42632 0.0
C895 C 0.23299 0.9686 0.41859 0.0
C896 C 0.1839 0.88289 0.40515 0.0
C897 C 0.19741 0.92733 0.42057 0.0
C898 C 0.16548 0.86319 0.40273 0.0
C899 C 0.14203 0.8655 0.41471 0.0
C900 C 0.17875 0.90535 0.4193 0.0
C901 C 0.13789 0.88786 0.4294 0.0
C902 C 0.1903 0.95268 0.42748 0.0
C903 C 0.23948 0.94273 0.41284 0.0
N904 N 0.15597 0.90709 0.43106 0.0
N905 N 0.22177 0.92319 0.4137 0.0
H906 H 0.41014 0.34321 0.69807 0.0
H907 H 0.44455 0.49338 0.72457 0.0
H908 H 0.44722 0.39312 0.64354 0.0
H909 H 0.3955 0.44459 0.77027 0.0
H910 H 0.45441 0.45498 0.69893 0.0
H911 H 0.41452 0.37787 0.72914 0.0
C912 C 0.4196 0.36139 0.69277 0.0
C913 C 0.42794 0.36554 0.66811 0.0
C914 C 0.44174 0.45271 0.71476 0.0
C915 C 0.43253 0.40556 0.70347 0.0
C916 C 0.43612 0.47456 0.7294 0.0
C917 C 0.41881 0.47223 0.74928 0.0
C918 C 0.43017 0.42842 0.72032 0.0
C919 C 0.40854 0.4474 0.75481 0.0
C920 C 0.42203 0.38121 0.7105 0.0
C921 C 0.44041 0.38926 0.66235 0.0
N922 N 0.41426 0.42655 0.74032 0.0
N923 N 0.44191 0.40867 0.67981 0.0
H924 H 0.00154 0.73182 0.96299 0.0
H925 H 0.89704 0.8014 0.99775 0.0
H926 H 0.00358 0.77917 0.89595 0.0
H927 H 0.89566 0.82622 0.9204 0.0
H928 H 0.9401 0.78671 0.99195 0.0
H929 H 0.96651 0.75713 0.97834 0.0
C930 C 0.99489 0.74786 0.95165 0.0
C931 C 0.00539 0.75307 0.92795 0.0
C932 C 0.93046 0.79518 0.97614 0.0
C933 C 0.96524 0.7829 0.94575 0.0
C934 C 0.90589 0.80398 0.97957 0.0
C935 C 0.89241 0.81448 0.95937 0.0
C936 C 0.94151 0.79644 0.95217 0.0
C937 C 0.90511 0.81788 0.93644 0.0
C938 C 0.97489 0.76263 0.96059 0.0
C939 C 0.99598 0.77422 0.91422 0.0
N940 N 0.92875 0.80847 0.93337 0.0
N941 N 0.97626 0.78809 0.92317 0.0
H942 H 0.49413 0.18822 0.09335 0.0
H943 H 0.5221 0.06404 0.16001 0.0
H944 H 0.44833 0.17386 0.15897 0.0
H945 H 0.58407 0.11785 0.14512 0.0
H946 H 0.49321 0.10103 0.16102 0.0
H947 H 0.52627 0.15926 0.11035 0.0
C948 C 0.4909 0.17886 0.11133 0.0
C949 C 0.46862 0.18302 0.12473 0.0
C950 C 0.51329 0.10478 0.15857 0.0
C951 C 0.50496 0.15002 0.1441 0.0
C952 C 0.52975 0.08377 0.15811 0.0
C953 C 0.55538 0.08804 0.15236 0.0
C954 C 0.52255 0.12983 0.15235 0.0
C955 C 0.56442 0.11384 0.14969 0.0
C956 C 0.5093 0.1627 0.12114 0.0
C957 C 0.46532 0.17084 0.14811 0.0
N958 N 0.54783 0.13377 0.14879 0.0
N959 N 0.48313 0.15427 0.15689 0.0
H960 H 0.03357 0.81891 0.32771 0.0
H961 H 0.0817 0.94671 0.25887 0.0
H962 H 0.05487 0.89051 0.3654 0.0
H963 H 0.08372 0.86767 0.23072 0.0
H964 H 0.05353 0.93166 0.29278 0.0
H965 H 0.03124 0.84279 0.28818 0.0
C966 C 0.03641 0.83998 0.32783 0.0
C967 C 0.04469 0.85281 0.34962 0.0
C968 C 0.05952 0.91783 0.27869 0.0
C969 C 0.04341 0.8799 0.30446 0.0
C970 C 0.07554 0.92637 0.25937 0.0
C971 C 0.08545 0.9082 0.24245 0.0
C972 C 0.05325 0.89108 0.28073 0.0
C973 C 0.07691 0.88214 0.24379 0.0
C974 C 0.0354 0.85355 0.30523 0.0
C975 C 0.04848 0.88 0.34887 0.0
N976 N 0.06156 0.87429 0.26283 0.0
N977 N 0.04861 0.8926 0.3264 0.0
H978 H 0.38654 0.39076 0.56233 0.0
H979 H 0.24449 0.44062 0.56199 0.0
H980 H 0.32214 0.34641 0.59008 0.0
H981 H 0.30916 0.49346 0.5596 0.0
H982 H 0.27275 0.40368 0.56042 0.0
H983 H 0.35817 0.42595 0.55002 0.0
C984 C 0.36639 0.38818 0.56534 0.0
C985 C 0.35665 0.36576 0.57748 0.0
C986 C 0.28078 0.42334 0.56002 0.0
C987 C 0.32432 0.40575 0.56342 0.0
C988 C 0.26469 0.44448 0.56097 0.0
C989 C 0.27455 0.47019 0.56162 0.0
C990 C 0.307 0.4278 0.55974 0.0
C991 C 0.30081 0.47395 0.55947 0.0
C992 C 0.35029 0.40832 0.55845 0.0
C993 C 0.33046 0.36349 0.58105 0.0
N994 N 0.31623 0.45291 0.559 0.0
N995 N 0.31523 0.3833 0.57417 0.0
H996 H 0.94412 0.54617 0.83407 0.0
H997 H 0.99783 0.69029 0.82809 0.0
H998 H 0.90168 0.61097 0.80589 0.0
H999 H 0.03728 0.6239 0.85757 0.0
H1000 H 0.96771 0.66019 0.80752 0.0
H1001 H 0.98303 0.57198 0.82918 0.0
C1002 C 0.94319 0.56561 0.82603 0.0
C1003 C 0.91984 0.57667 0.8206 0.0
C1004 C 0.98332 0.65223 0.81798 0.0
C1005 C 0.96397 0.60685 0.81621 0.0
C1006 C 0.00053 0.6694 0.82969 0.0
C1007 C 0.01957 0.65951 0.84514 0.0
C1008 C 0.98534 0.62512 0.82181 0.0
C1009 C 0.0224 0.63233 0.84641 0.0
C1010 C 0.96535 0.58045 0.8234 0.0
C1011 C 0.91945 0.60188 0.8103 0.0
N1012 N 0.00523 0.61611 0.83526 0.0
N1013 N 0.9412 0.61649 0.80911 0.0
H1014 H 0.25665 0.57439 0.08967 0.0
H1015 H 0.11397 0.60838 0.0556 0.0
H1016 H 0.20356 0.51809 0.05815 0.0
H1017 H 0.16204 0.65603 0.10344 0.0
H1018 H 0.14895 0.57857 0.04919 0.0
H1019 H 0.2244 0.60761 0.08758 0.0
C1020 C 0.23824 0.56897 0.08219 0.0
C1021 C 0.23273 0.5432 0.07444 0.0
C1022 C 0.15187 0.59569 0.06089 0.0
C1023 C 0.19567 0.58141 0.07195 0.0
C1024 C 0.13196 0.61282 0.06449 0.0
C1025 C 0.13497 0.63465 0.08033 0.0
C1026 C 0.17501 0.60051 0.07305 0.0
C1027 C 0.15875 0.63933 0.09129 0.0
C1028 C 0.21983 0.58803 0.08101 0.0
C1029 C 0.20861 0.5376 0.06458 0.0
N1030 N 0.17779 0.62233 0.08756 0.0
N1031 N 0.19089 0.55652 0.06378 0.0
H1032 H 0.53788 0.79457 0.16335 0.0
H1033 H 0.43643 0.87822 0.17331 0.0
H1034 H 0.56284 0.84927 0.10632 0.0
H1035 H 0.48573 0.93621 0.13901 0.0
H1036 H 0.47125 0.84747 0.17323 0.0
H1037 H 0.50837 0.82692 0.17876 0.0
C1038 C 0.53732 0.81345 0.15415 0.0
C1039 C 0.5525 0.81895 0.13307 0.0
C1040 C 0.47475 0.86714 0.16642 0.0
C1041 C 0.51826 0.85587 0.15031 0.0
C1042 C 0.45476 0.88467 0.16639 0.0
C1043 C 0.45806 0.90955 0.15567 0.0
C1044 C 0.49812 0.87474 0.15574 0.0
C1045 C 0.48218 0.91696 0.14692 0.0
C1046 C 0.52021 0.83184 0.16284 0.0
C1047 C 0.55123 0.84392 0.12229 0.0
N1048 N 0.50113 0.8995 0.14677 0.0
N1049 N 0.53423 0.86133 0.1309 0.0
H1050 H 0.29068 0.17763 0.9075 0.0
H1051 H 0.28048 0.02451 0.93204 0.0
H1052 H 0.35203 0.1343 0.93955 0.0
H1053 H 0.21585 0.0735 0.92035 0.0
H1054 H 0.30728 0.06405 0.93555 0.0
H1055 H 0.26296 0.13934 0.91267 0.0
C1056 C 0.29826 0.16011 0.91582 0.0
C1057 C 0.32373 0.15909 0.92294 0.0
C1058 C 0.28718 0.06604 0.93243 0.0
C1059 C 0.29219 0.11501 0.92862 0.0
C1060 C 0.27189 0.0435 0.93036 0.0
C1061 C 0.24595 0.04562 0.9254 0.0
C1062 C 0.27642 0.09078 0.92937 0.0
C1063 C 0.23582 0.07079 0.92366 0.0
C1064 C 0.28242 0.13825 0.91883 0.0
C1065 C 0.33249 0.13592 0.93381 0.0
N1066 N 0.2511 0.0923 0.92539 0.0
N1067 N 0.31682 0.11464 0.93601 0.0
H1068 H 0.47597 0.24002 0.47932 0.0
H1069 H 0.59259 0.18883 0.50501 0.0
H1070 H 0.484 0.20509 0.40615 0.0
H1071 H 0.58824 0.15369 0.4315 0.0
H1072 H 0.54874 0.20073 0.50164 0.0
H1073 H 0.51152 0.21515 0.49407 0.0
C1074 C 0.48522 0.22699 0.46635 0.0
C1075 C 0.47732 0.22517 0.44128 0.0
C1076 C 0.55693 0.1901 0.48627 0.0
C1077 C 0.51888 0.1967 0.4579 0.0
C1078 C 0.58223 0.18313 0.4883 0.0
C1079 C 0.59442 0.17079 0.46827 0.0
C1080 C 0.54366 0.18486 0.46387 0.0
C1081 C 0.57983 0.16358 0.4473 0.0
C1082 C 0.50578 0.21271 0.47479 0.0
C1083 C 0.48962 0.20746 0.42554 0.0
N1084 N 0.55542 0.17117 0.44547 0.0
N1085 N 0.50998 0.19427 0.43401 0.0
H1086 H 0.73377 0.97782 0.73088 0.0
H1087 H 0.73 0.05866 0.8577 0.0
H1088 H 0.66646 0.01395 0.75937 0.0
H1089 H 0.79801 0.02699 0.82592 0.0
H1090 H 0.70805 0.04964 0.81831 0.0
H1091 H 0.75876 0.00161 0.76213 0.0
C1092 C 0.72423 0.99086 0.74362 0.0
C1093 C 0.69787 0.99348 0.74277 0.0
C1094 C 0.72791 0.04513 0.81979 0.0
C1095 C 0.72647 0.02086 0.77872 0.0
C1096 C 0.74055 0.05044 0.84228 0.0
C1097 C 0.76578 0.04295 0.84544 0.0
C1098 C 0.74055 0.03214 0.80039 0.0
C1099 C 0.77843 0.0326 0.82461 0.0
C1100 C 0.73856 0.00458 0.76141 0.0
C1101 C 0.68668 0.01107 0.7595 0.0
N1102 N 0.76556 0.02703 0.80318 0.0
N1103 N 0.70098 0.0238 0.77701 0.0
H1104 H 0.3254 0.64963 0.34293 0.0
H1105 H 0.33267 0.73208 0.47006 0.0
H1106 H 0.3614 0.62243 0.41053 0.0
H1107 H 0.31527 0.76604 0.39804 0.0
H1108 H 0.33588 0.6894 0.4501 0.0
H1109 H 0.31422 0.68982 0.36469 0.0
C1110 C 0.33074 0.65194 0.36242 0.0
C1111 C 0.34462 0.63268 0.37484 0.0
C1112 C 0.33123 0.70617 0.4387 0.0
C1113 C 0.33184 0.6787 0.39978 0.0
C1114 C 0.32935 0.7306 0.45006 0.0
C1115 C 0.32401 0.75285 0.43565 0.0
C1116 C 0.32761 0.70384 0.41274 0.0
C1117 C 0.31967 0.74953 0.40986 0.0
C1118 C 0.32441 0.67495 0.37478 0.0
C1119 C 0.35092 0.63681 0.40012 0.0
N1120 N 0.3217 0.72549 0.39921 0.0
N1121 N 0.34459 0.65943 0.41171 0.0
H1122 H 0.22595 0.95561 0.23655 0.0
H1123 H 0.29578 0.03097 0.31635 0.0
H1124 H 0.16325 0.00647 0.25016 0.0
H1125 H 0.22335 0.05158 0.34709 0.0
H1126 H 0.27488 0.01809 0.2774 0.0
H1127 H 0.2525 0.98331 0.26293 0.0
C1128 C 0.21786 0.97288 0.24489 0.0
C1129 C 0.19225 0.97852 0.24149 0.0
C1130 C 0.26352 0.02545 0.29262 0.0
C1131 C 0.22284 0.01099 0.2715 0.0
C1132 C 0.27552 0.03323 0.31476 0.0
C1133 C 0.26122 0.04161 0.33533 0.0
C1134 C 0.23698 0.02552 0.29125 0.0
C1135 C 0.23512 0.04478 0.33191 0.0
C1136 C 0.23319 0.98904 0.2597 0.0
C1137 C 0.18288 0.00134 0.25245 0.0
N1138 N 0.22374 0.03613 0.31051 0.0
N1139 N 0.19805 0.01647 0.26742 0.0
H1140 H 0.81179 0.62961 0.84588 0.0
H1141 H 0.80905 0.72091 0.9675 0.0
H1142 H 0.83991 0.6074 0.91866 0.0
H1143 H 0.80448 0.75207 0.89236 0.0
H1144 H 0.81123 0.67703 0.95019 0.0
H1145 H 0.80047 0.67236 0.86316 0.0
C1146 C 0.8153 0.63359 0.86554 0.0
C1147 C 0.82702 0.61499 0.88082 0.0
C1148 C 0.8096 0.69344 0.93747 0.0
C1149 C 0.81401 0.66363 0.9006 0.0
C1150 C 0.80833 0.71858 0.94732 0.0
C1151 C 0.80703 0.74039 0.93135 0.0
C1152 C 0.80951 0.68985 0.91141 0.0
C1153 C 0.80572 0.7359 0.90538 0.0
C1154 C 0.80894 0.658 0.87532 0.0
C1155 C 0.83118 0.62122 0.90612 0.0
N1156 N 0.80721 0.71111 0.89618 0.0
N1157 N 0.82472 0.64499 0.91518 0.0
H1158 H 0.89822 0.7012 0.47423 0.0
H1159 H 0.02178 0.73241 0.5073 0.0
H1160 H 0.89098 0.66717 0.54803 0.0
H1161 H 0.99837 0.71107 0.58222 0.0
H1162 H 0.98298 0.71268 0.49098 0.0
H1163 H 0.94274 0.70952 0.48203 0.0
C1164 C 0.90612 0.6949 0.49191 0.0
C1165 C 0.89061 0.68384 0.51063 0.0
C1166 C 0.98604 0.71241 0.51099 0.0
C1167 C 0.94218 0.69321 0.51986 0.0
C1168 C 0.00844 0.72357 0.52034 0.0
C1169 C 0.01317 0.72395 0.54625 0.0
C1170 C 0.96798 0.70185 0.52773 0.0
C1171 C 0.99545 0.71161 0.56214 0.0
C1172 C 0.93181 0.69963 0.49641 0.0
C1173 C 0.90205 0.67605 0.53312 0.0
N1174 N 0.97358 0.70138 0.55265 0.0
N1175 N 0.927 0.68124 0.53721 0.0
H1176 H 0.97776 0.24889 0.97418 0.0
H1177 H 0.1008 0.21359 -0.00044 0.0
H1178 H 0.99246 0.21782 0.90043 0.0
H1179 H 0.09648 0.16774 0.93163 0.0
H1180 H 0.05668 0.22432 0.99471 0.0
H1181 H 0.01562 0.2279 0.9896 0.0
C1182 C 0.98899 0.2377 0.9612 0.0
C1183 C 0.98217 0.23567 0.93581 0.0
C1184 C 0.06494 0.21129 0.98117 0.0
C1185 C 0.02619 0.21204 0.9532 0.0
C1186 C 0.09039 0.20519 0.98393 0.0
C1187 C 0.10261 0.19009 0.96575 0.0
C1188 C 0.05151 0.2022 0.96003 0.0
C1189 C 0.08802 0.17972 0.94598 0.0
C1190 C 0.01084 0.2258 0.97 0.0
C1191 C 0.99713 0.22032 0.92006 0.0
N1192 N 0.06341 0.18635 0.94344 0.0
N1193 N 0.01852 0.20937 0.92895 0.0
H1194 H 0.82389 0.16378 0.40625 0.0
H1195 H 0.80687 0.01065 0.42196 0.0
H1196 H 0.88558 0.11659 0.43169 0.0
H1197 H 0.74491 0.06443 0.42425 0.0
H1198 H 0.83657 0.04803 0.42606 0.0
H1199 H 0.79495 0.12672 0.41263 0.0
C1200 C 0.83129 0.14561 0.4134 0.0
C1201 C 0.85715 0.14319 0.41836 0.0
C1202 C 0.81644 0.05149 0.426 0.0
C1203 C 0.82415 0.10042 0.42538 0.0
C1204 C 0.79949 0.03019 0.42367 0.0
C1205 C 0.77336 0.03441 0.42223 0.0
C1206 C 0.80711 0.07706 0.4267 0.0
C1207 C 0.76488 0.06018 0.42469 0.0
C1208 C 0.81476 0.12446 0.41713 0.0
C1209 C 0.86572 0.11924 0.42773 0.0
N1210 N 0.78168 0.08046 0.42645 0.0
N1211 N 0.84929 0.09858 0.43058 0.0
H1212 H 0.60459 0.66417 0.69787 0.0
H1213 H 0.55515 0.51837 0.72472 0.0
H1214 H 0.55749 0.62016 0.64622 0.0
H1215 H 0.60989 0.56059 0.77009 0.0
H1216 H 0.54903 0.558 0.69986 0.0
H1217 H 0.59925 0.62937 0.72865 0.0
C1218 C 0.59282 0.6473 0.69312 0.0
C1219 C 0.58182 0.64485 0.66926 0.0
C1220 C 0.56217 0.55862 0.71543 0.0
C1221 C 0.57592 0.60466 0.7044 0.0
C1222 C 0.56567 0.53602 0.72966 0.0
C1223 C 0.58337 0.53602 0.74931 0.0
C1224 C 0.57638 0.58138 0.72097 0.0
C1225 C 0.59634 0.55951 0.7549 0.0
C1226 C 0.58981 0.62739 0.71071 0.0
C1227 C 0.56643 0.62276 0.66433 0.0
N1228 N 0.59272 0.58114 0.7407 0.0
N1229 N 0.56426 0.60326 0.68163 0.0
H1230 H 0.53455 0.73784 0.02621 0.0
H1231 H 0.40694 0.72372 -0.00152 0.0
H1232 H 0.51295 0.70846 0.0992 0.0
H1233 H 0.40209 0.67441 0.06412 0.0
H1234 H 0.45223 0.7285 0.00497 0.0
H1235 H 0.49349 0.72383 0.00994 0.0
C1236 C 0.52118 0.72841 0.03884 0.0
C1237 C 0.5271 0.72487 0.06429 0.0
C1238 C 0.44156 0.71601 0.01761 0.0
C1239 C 0.47947 0.70943 0.04591 0.0
C1240 C 0.41548 0.71337 0.01394 0.0
C1241 C 0.40052 0.69891 0.03094 0.0
C1242 C 0.45283 0.70401 0.03845 0.0
C1243 C 0.41273 0.68602 0.05066 0.0
C1244 C 0.49752 0.72061 0.02955 0.0
C1245 C 0.50917 0.71198 0.07955 0.0
N1246 N 0.43806 0.68919 0.05404 0.0
N1247 N 0.48613 0.70501 0.07018 0.0
H1248 H 0.5178 0.75899 0.47902 0.0
H1249 H 0.40952 0.85648 0.43943 0.0
H1250 H 0.51994 0.80685 0.41227 0.0
H1251 H 0.40594 0.80698 0.50503 0.0
H1252 H 0.45391 0.84564 0.43433 0.0
H1253 H 0.48093 0.78279 0.49335 0.0
C1254 C 0.51074 0.77468 0.46748 0.0
C1255 C 0.52174 0.78051 0.44412 0.0
C1256 C 0.44353 0.83749 0.45009 0.0
C1257 C 0.47942 0.80784 0.46047 0.0
C1258 C 0.41815 0.84376 0.45309 0.0
C1259 C 0.40371 0.83214 0.47235 0.0
C1260 C 0.45455 0.81933 0.46635 0.0
C1261 C 0.41613 0.81609 0.48964 0.0
C1262 C 0.48966 0.7883 0.47572 0.0
C1263 C 0.51188 0.80132 0.4302 0.0
N1264 N 0.44069 0.80977 0.48595 0.0
N1265 N 0.49112 0.81397 0.43843 0.0
H1266 H 0.77761 0.93503 0.92358 0.0
H1267 H 0.64056 0.86977 0.94244 0.0
H1268 H 0.71048 0.98091 0.93264 0.0
H1269 H 0.7046 0.82996 0.91129 0.0
H1270 H 0.66708 0.90934 0.94741 0.0
H1271 H 0.75211 0.89533 0.92789 0.0
C1272 C 0.75747 0.93683 0.92652 0.0
C1273 C 0.74613 0.96146 0.92728 0.0
C1274 C 0.67531 0.89183 0.93973 0.0
C1275 C 0.71671 0.9157 0.93222 0.0
C1276 C 0.66028 0.86921 0.93702 0.0
C1277 C 0.67037 0.84658 0.92624 0.0
C1278 C 0.70063 0.89166 0.93191 0.0
C1279 C 0.69598 0.84701 0.91945 0.0
C1280 C 0.74291 0.91405 0.92899 0.0
C1281 C 0.71998 0.96237 0.93163 0.0
N1282 N 0.71018 0.8692 0.92233 0.0
N1283 N 0.70606 0.93975 0.93373 0.0
H1284 H 0.77102 0.46449 0.66509 0.0
H1285 H 0.63482 0.42044 0.71508 0.0
H1286 H 0.71673 0.41997 0.62116 0.0
H1287 H 0.6896 0.46457 0.75877 0.0
H1288 H 0.66713 0.41353 0.68313 0.0
H1289 H 0.7444 0.45786 0.70199 0.0
C1290 C 0.75375 0.45293 0.66323 0.0
C1291 C 0.74594 0.44323 0.63978 0.0
C1292 C 0.67216 0.42443 0.69987 0.0
C1293 C 0.71512 0.43585 0.68204 0.0
C1294 C 0.6537 0.42836 0.71818 0.0
C1295 C 0.65929 0.44352 0.73951 0.0
C1296 C 0.69639 0.43581 0.70283 0.0
C1297 C 0.68421 0.45311 0.74248 0.0
C1298 C 0.73848 0.44921 0.68435 0.0
C1299 C 0.72342 0.42817 0.63872 0.0
N1300 N 0.7017 0.44937 0.72423 0.0
N1301 N 0.70863 0.42531 0.65942 0.0
H1302 H 0.36503 0.91355 0.06629 0.0
H1303 H 0.31132 0.7712 0.09579 0.0
H1304 H 0.33476 0.89096 0.13853 0.0
H1305 H 0.32633 0.79928 0.02073 0.0
H1306 H 0.31594 0.8161 0.11122 0.0
H1307 H 0.34676 0.8735 0.04836 0.0
C1308 C 0.35415 0.90047 0.07831 0.0
C1309 C 0.35192 0.90546 0.10408 0.0
C1310 C 0.31789 0.81244 0.09132 0.0
C1311 C 0.33131 0.8593 0.08374 0.0
C1312 C 0.31529 0.78678 0.08251 0.0
C1313 C 0.31889 0.7813 0.05699 0.0
C1314 C 0.32436 0.83272 0.07455 0.0
C1315 C 0.32379 0.8024 0.04064 0.0
C1316 C 0.34377 0.87752 0.06806 0.0
C1317 C 0.33741 0.88779 0.11864 0.0
N1318 N 0.32673 0.82707 0.04975 0.0
N1319 N 0.32807 0.8653 0.10837 0.0
H1320 H 0.36795 0.58286 0.7152 0.0
H1321 H 0.23049 0.54372 0.6657 0.0
H1322 H 0.309 0.54801 0.76098 0.0
H1323 H 0.28778 0.58099 0.6195 0.0
H1324 H 0.25656 0.5526 0.70253 0.0
H1325 H 0.3368 0.58979 0.68196 0.0
C1326 C 0.3484 0.57717 0.71848 0.0
C1327 C 0.3412 0.56438 0.74073 0.0
C1328 C 0.2633 0.55918 0.68438 0.0
C1329 C 0.30554 0.57199 0.70274 0.0
C1330 C 0.24836 0.55413 0.66329 0.0
C1331 C 0.25711 0.56113 0.63933 0.0
C1332 C 0.28732 0.57108 0.68153 0.0
C1333 C 0.28035 0.57488 0.63752 0.0
C1334 C 0.33063 0.58103 0.69946 0.0
C1335 C 0.31556 0.55749 0.74395 0.0
N1336 N 0.29483 0.57899 0.65827 0.0
N1337 N 0.29878 0.56105 0.72507 0.0
H1338 H 0.66923 0.08925 0.07894 0.0
H1339 H 0.64236 0.23872 0.08592 0.0
H1340 H 0.59281 0.11684 0.07418 0.0
H1341 H 0.69371 0.21377 0.02824 0.0
H1342 H 0.63081 0.19261 0.09393 0.0
H1343 H 0.68496 0.13403 0.06999 0.0
C1344 C 0.65583 0.1046 0.07544 0.0
C1345 C 0.62971 0.09938 0.07683 0.0
C1346 C 0.64496 0.19736 0.07987 0.0
C1347 C 0.64747 0.15027 0.06822 0.0
C1348 C 0.65177 0.22349 0.07555 0.0
C1349 C 0.66907 0.22985 0.05654 0.0
C1350 C 0.65605 0.17765 0.06551 0.0
C1351 C 0.68036 0.20948 0.04315 0.0
C1352 C 0.66479 0.13001 0.07059 0.0
C1353 C 0.61307 0.11998 0.07273 0.0
N1354 N 0.67371 0.18415 0.04794 0.0
N1355 N 0.62224 0.14468 0.06908 0.0
H1356 H 0.48197 0.30057 0.10322 0.0
H1357 H 0.59715 0.34711 0.06038 0.0
H1358 H 0.46915 0.27182 0.02805 0.0
H1359 H 0.5872 0.28747 0.00368 0.0
H1360 H 0.55212 0.34403 0.06969 0.0
H1361 H 0.52215 0.31965 0.08956 0.0
C1362 C 0.48726 0.29885 0.08368 0.0
C1363 C 0.47223 0.28418 0.06691 0.0
C1364 C 0.55973 0.33154 0.05528 0.0
C1365 C 0.51836 0.30629 0.05091 0.0
C1366 C 0.58547 0.33348 0.04973 0.0
C1367 C 0.59618 0.31703 0.03163 0.0
C1368 C 0.54456 0.31281 0.04282 0.0
C1369 C 0.57991 0.30027 0.01804 0.0
C1370 C 0.51026 0.30993 0.07578 0.0
C1371 C 0.48019 0.28264 0.04179 0.0
N1372 N 0.55499 0.29834 0.02416 0.0
N1373 N 0.5029 0.29308 0.0347 0.0
H1374 H 0.47984 0.28796 0.33813 0.0
H1375 H 0.53871 0.43145 0.32734 0.0
H1376 H 0.45214 0.35648 0.37576 0.0
H1377 H 0.57484 0.3632 0.29764 0.0
H1378 H 0.49991 0.40573 0.33326 0.0
H1379 H 0.50792 0.31626 0.31293 0.0
C1380 C 0.47933 0.30896 0.34078 0.0
C1381 C 0.4641 0.31987 0.35949 0.0
C1382 C 0.51608 0.39643 0.3249 0.0
C1383 C 0.49589 0.35221 0.33067 0.0
C1384 C 0.53817 0.41118 0.32134 0.0
C1385 C 0.56 0.39928 0.31233 0.0
C1386 C 0.51604 0.36941 0.32 0.0
C1387 C 0.55835 0.37302 0.30473 0.0
C1388 C 0.49535 0.32507 0.3264 0.0
C1389 C 0.46402 0.34718 0.36197 0.0
N1390 N 0.53689 0.35871 0.30936 0.0
N1391 N 0.47986 0.36235 0.34795 0.0
H1392 H 0.39235 0.21413 0.8157 0.0
H1393 H 0.39892 0.06939 0.76287 0.0
H1394 H 0.41368 0.14815 0.86084 0.0
H1395 H 0.37258 0.13621 0.72164 0.0
H1396 H 0.41516 0.09903 0.79553 0.0
H1397 H 0.39674 0.18751 0.77813 0.0
C1398 C 0.39858 0.19415 0.8176 0.0
C1399 C 0.40232 0.18316 0.84135 0.0
C1400 C 0.40627 0.1072 0.77908 0.0
C1401 C 0.40655 0.15222 0.79849 0.0
C1402 C 0.39706 0.0903 0.7604 0.0
C1403 C 0.38387 0.10033 0.73978 0.0
C1404 C 0.40233 0.13423 0.77698 0.0
C1405 C 0.38211 0.12758 0.73748 0.0
C1406 C 0.40098 0.17888 0.79615 0.0
C1407 C 0.41055 0.15728 0.84282 0.0
N1408 N 0.39092 0.14351 0.75599 0.0
N1409 N 0.41181 0.14242 0.82166 0.0
H1410 H 0.91242 0.42667 0.26378 0.0
H1411 H 0.95139 0.38772 0.12594 0.0
H1412 H 0.94715 0.48195 0.2126 0.0
H1413 H 0.92671 0.33284 0.18275 0.0
H1414 H 0.95715 0.42123 0.15854 0.0
H1415 H 0.92394 0.39113 0.23595 0.0
C1416 C 0.92266 0.43128 0.24669 0.0
C1417 C 0.92846 0.45727 0.24023 0.0
C1418 C 0.95107 0.40167 0.16392 0.0
C1419 C 0.94149 0.41664 0.20796 0.0
C1420 C 0.94797 0.3825 0.14534 0.0
C1421 C 0.93813 0.35766 0.15166 0.0
C1422 C 0.94422 0.3958 0.18881 0.0
C1423 C 0.9339 0.35192 0.17703 0.0
C1424 C 0.92936 0.41096 0.23082 0.0
C1425 C 0.94217 0.46213 0.21812 0.0
N1426 N 0.93659 0.37094 0.19458 0.0
N1427 N 0.94781 0.442 0.20247 0.0
H1428 H 0.07466 0.10261 0.62016 0.0
H1429 H 0.93336 0.14308 0.59454 0.0
H1430 H 0.01865 0.05548 0.58134 0.0
H1431 H 0.98865 0.19412 0.62988 0.0
H1432 H 0.96126 0.10632 0.60087 0.0
H1433 H 0.04098 0.13146 0.63462 0.0
C1434 C 0.0552 0.09794 0.61531 0.0
C1435 C 0.04936 0.07707 0.59913 0.0
C1436 C 0.96719 0.12544 0.60767 0.0
C1437 C 0.01102 0.10975 0.61535 0.0
C1438 C 0.95123 0.14644 0.60406 0.0
C1439 C 0.95898 0.17174 0.61118 0.0
C1440 C 0.99137 0.12987 0.61793 0.0
C1441 C 0.9821 0.17493 0.62385 0.0
C1442 C 0.03602 0.11442 0.62345 0.0
C1443 C 0.02394 0.07173 0.59338 0.0
N1444 N 0.99781 0.15431 0.62628 0.0
N1445 N 0.00577 0.08817 0.60118 0.0
H1446 H 0.61904 0.86615 0.72022 0.0
H1447 H 0.58014 0.85392 0.86334 0.0
H1448 H 0.59752 0.93208 0.76545 0.0
H1449 H 0.60679 0.79083 0.81727 0.0
H1450 H 0.57508 0.88067 0.82546 0.0
H1451 H 0.6032 0.83668 0.75271 0.0
C1452 C 0.61061 0.87442 0.73688 0.0
C1453 C 0.6101 0.90159 0.74041 0.0
C1454 C 0.5814 0.86074 0.82361 0.0
C1455 C 0.59235 0.86792 0.77803 0.0
C1456 C 0.5841 0.84543 0.84519 0.0
C1457 C 0.59426 0.82035 0.84336 0.0
C1458 C 0.58886 0.85072 0.80023 0.0
C1459 C 0.59926 0.81026 0.81947 0.0
C1460 C 0.60154 0.85757 0.75546 0.0
C1461 C 0.59852 0.91123 0.76213 0.0
N1462 N 0.59685 0.82559 0.79891 0.0
N1463 N 0.5906 0.89439 0.78043 0.0
H1464 H 0.42429 0.63918 0.30051 0.0
H1465 H 0.52571 0.71788 0.3368 0.0
H1466 H 0.46409 0.57604 0.33542 0.0
H1467 H 0.54364 0.65182 0.38359 0.0
H1468 H 0.49762 0.68956 0.31207 0.0
H1469 H 0.46159 0.66741 0.30579 0.0
C1470 C 0.44131 0.63097 0.30829 0.0
C1471 C 0.44106 0.60544 0.31791 0.0
C1472 C 0.50759 0.68121 0.32774 0.0
C1473 C 0.48387 0.63755 0.32431 0.0
C1474 C 0.52383 0.69739 0.34181 0.0
C1475 C 0.53651 0.68739 0.36279 0.0
C1476 C 0.50401 0.65488 0.33482 0.0
C1477 C 0.53379 0.6606 0.36802 0.0
C1478 C 0.4627 0.64717 0.31146 0.0
C1479 C 0.46344 0.59578 0.32809 0.0
N1480 N 0.51768 0.64542 0.35432 0.0
N1481 N 0.48374 0.61198 0.33145 0.0
H1482 H 0.69261 0.50896 0.56113 0.0
H1483 H 0.68628 0.66013 0.59017 0.0
H1484 H 0.75804 0.56084 0.56075 0.0
H1485 H 0.62058 0.61603 0.56519 0.0
H1486 H 0.71282 0.62376 0.57797 0.0
H1487 H 0.66538 0.54742 0.56057 0.0
C1488 C 0.70122 0.52836 0.56053 0.0
C1489 C 0.72758 0.53172 0.56164 0.0
C1490 C 0.69263 0.62214 0.57479 0.0
C1491 C 0.69677 0.57553 0.56118 0.0
C1492 C 0.67749 0.6429 0.58182 0.0
C1493 C 0.65121 0.64102 0.57883 0.0
C1494 C 0.68139 0.59907 0.56522 0.0
C1495 C 0.6408 0.61828 0.56778 0.0
C1496 C 0.68571 0.55027 0.56023 0.0
C1497 C 0.73778 0.5573 0.56064 0.0
N1498 N 0.65588 0.59795 0.56176 0.0
N1499 N 0.72238 0.57816 0.56084 0.0
H1500 H 0.06069 0.85699 0.5934 0.0
H1501 H 0.91832 0.89459 0.61771 0.0
H1502 H 0.0055 0.80379 0.6259 0.0
H1503 H 0.97481 0.9446 0.58303 0.0
H1504 H 0.95194 0.86525 0.63138 0.0
H1505 H 0.0321 0.89304 0.60045 0.0
C1506 C 0.04268 0.853 0.60245 0.0
C1507 C 0.03521 0.82735 0.6086 0.0
C1508 C 0.95701 0.88299 0.62132 0.0
C1509 C 0.00202 0.86841 0.61615 0.0
C1510 C 0.93786 0.89976 0.61365 0.0
C1511 C 0.94389 0.92166 0.59884 0.0
C1512 C 0.98217 0.88841 0.61412 0.0
C1513 C 0.9694 0.92758 0.59402 0.0
C1514 C 0.02631 0.87359 0.60647 0.0
C1515 C 0.01186 0.82331 0.62066 0.0
N1516 N 0.98754 0.91088 0.60133 0.0
N1517 N 0.99578 0.84356 0.62351 0.0
H1518 H 0.06565 0.65425 0.19009 0.0
H1519 H 0.05385 0.50238 0.22419 0.0
H1520 H 0.04042 0.59549 0.13707 0.0
H1521 H 0.09434 0.56071 0.26781 0.0
H1522 H 0.03919 0.53712 0.19623 0.0
H1523 H 0.06544 0.62118 0.22295 0.0
C1524 C 0.05965 0.63443 0.18544 0.0
C1525 C 0.05353 0.62749 0.1607 0.0
C1526 C 0.05103 0.54227 0.21212 0.0
C1527 C 0.05366 0.58939 0.19822 0.0
C1528 C 0.05937 0.5225 0.22808 0.0
C1529 C 0.0757 0.52865 0.24808 0.0
C1530 C 0.05886 0.5683 0.21645 0.0
C1531 C 0.08217 0.55502 0.25234 0.0
C1532 C 0.0596 0.61554 0.20422 0.0
C1533 C 0.04547 0.60163 0.15587 0.0
N1534 N 0.07386 0.57381 0.23658 0.0
N1535 N 0.04622 0.58334 0.1744 0.0
H1536 H 0.19998 0.54702 0.29666 0.0
H1537 H 0.31641 0.51892 0.38675 0.0
H1538 H 0.19625 0.48817 0.3547 0.0
H1539 H 0.32443 0.55361 0.31332 0.0
H1540 H 0.27119 0.5119 0.37871 0.0
H1541 H 0.24447 0.55495 0.30657 0.0
C1542 C 0.20846 0.53595 0.31169 0.0
C1543 C 0.19445 0.51684 0.32485 0.0
C1544 C 0.28291 0.52096 0.36437 0.0
C1545 C 0.24536 0.52575 0.33616 0.0
C1546 C 0.30866 0.52497 0.36891 0.0
C1547 C 0.32413 0.53684 0.35064 0.0
C1548 C 0.27259 0.52924 0.34155 0.0
C1549 C 0.31319 0.54433 0.32788 0.0
C1550 C 0.23389 0.54036 0.31719 0.0
C1551 C 0.20643 0.50303 0.34407 0.0
N1552 N 0.28802 0.54055 0.32404 0.0
N1553 N 0.23128 0.50776 0.34917 0.0
H1554 H 0.66064 0.26197 0.54165 0.0
H1555 H 0.77467 0.36734 0.54329 0.0
H1556 H 0.73644 0.24421 0.51803 0.0
H1557 H 0.6961 0.38747 0.54988 0.0
H1558 H 0.76204 0.32122 0.53922 0.0
H1559 H 0.67467 0.30666 0.55121 0.0
C1560 C 0.68038 0.26728 0.53894 0.0
C1561 C 0.69737 0.24928 0.5289 0.0
C1562 C 0.74757 0.33572 0.54155 0.0
C1563 C 0.71346 0.30069 0.53949 0.0
C1564 C 0.75474 0.36208 0.54383 0.0
C1565 C 0.73639 0.38134 0.54679 0.0
C1566 C 0.72185 0.32847 0.54248 0.0
C1567 C 0.71087 0.37333 0.54745 0.0
C1568 C 0.68831 0.29292 0.54419 0.0
C1569 C 0.72268 0.2574 0.52573 0.0
N1570 N 0.70437 0.34751 0.54537 0.0
N1571 N 0.72992 0.28257 0.53082 0.0
H1572 H 0.81212 0.94145 0.6394 0.0
H1573 H 0.68484 0.01956 0.65108 0.0
H1574 H 0.80187 0.01089 0.59476 0.0
H1575 H 0.68813 0.93526 0.65422 0.0
H1576 H 0.72893 0.02088 0.63597 0.0
H1577 H 0.76805 0.94354 0.65274 0.0
C1578 C 0.80069 0.95735 0.63267 0.0
C1579 C 0.81061 0.97596 0.61588 0.0
C1580 C 0.71976 0.00218 0.63982 0.0
C1581 C 0.76018 0.97842 0.63105 0.0
C1582 C 0.69465 0.00139 0.64829 0.0
C1583 C 0.68288 0.97728 0.65415 0.0
C1584 C 0.73308 0.97875 0.63774 0.0
C1585 C 0.69649 0.95432 0.65027 0.0
C1586 C 0.7755 0.9584 0.64012 0.0
C1587 C 0.79486 0.99608 0.60766 0.0
N1588 N 0.72092 0.95565 0.64268 0.0
N1589 N 0.77034 0.99685 0.61537 0.0
H1590 H 0.21281 0.87545 0.93563 0.0
H1591 H 0.33655 0.7889 0.95034 0.0
H1592 H 0.28888 0.90733 0.93218 0.0
H1593 H 0.26069 0.7596 0.96377 0.0
H1594 H 0.31924 0.83073 0.93715 0.0
H1595 H 0.22991 0.83168 0.94039 0.0
C1596 C 0.23313 0.87325 0.93581 0.0
C1597 C 0.24944 0.89514 0.93369 0.0
C1598 C 0.30636 0.81504 0.94266 0.0
C1599 C 0.26918 0.84493 0.93901 0.0
C1600 C 0.31622 0.79103 0.94999 0.0
C1601 C 0.30005 0.77072 0.95832 0.0
C1602 C 0.28014 0.81877 0.94363 0.0
C1603 C 0.27388 0.77472 0.95758 0.0
C1604 C 0.24289 0.84821 0.9385 0.0
C1605 C 0.27561 0.89104 0.93393 0.0
N1606 N 0.26476 0.79834 0.95062 0.0
N1607 N 0.28466 0.86644 0.93663 0.0
H1608 H 0.17044 0.47757 0.82011 0.0
H1609 H 0.3075 0.53231 0.85696 0.0
H1610 H 0.18808 0.50213 0.89566 0.0
H1611 H 0.29323 0.47801 0.79634 0.0
H1612 H 0.26283 0.52781 0.86938 0.0
H1613 H 0.2146 0.4849 0.80854 0.0
C1614 C 0.18357 0.48467 0.83424 0.0
C1615 C 0.17566 0.48905 0.85893 0.0
C1616 C 0.26963 0.51687 0.85343 0.0
C1617 C 0.22619 0.49754 0.84577 0.0
C1618 C 0.29501 0.51942 0.84634 0.0
C1619 C 0.30403 0.50542 0.82567 0.0
C1620 C 0.25325 0.50062 0.8394 0.0
C1621 C 0.28712 0.48904 0.8125 0.0
C1622 C 0.20879 0.48874 0.82764 0.0
C1623 C 0.1935 0.49837 0.87644 0.0
N1624 N 0.26252 0.48722 0.81949 0.0
N1625 N 0.21803 0.50233 0.86952 0.0
H1626 H 0.71361 0.62806 0.05091 0.0
H1627 H 0.82768 0.73289 0.04403 0.0
H1628 H 0.79252 0.60828 0.05299 0.0
H1629 H 0.75193 0.75055 0.02016 0.0
H1630 H 0.81327 0.68888 0.05538 0.0
H1631 H 0.72588 0.67431 0.046 0.0
C1632 C 0.73351 0.63343 0.05028 0.0
C1633 C 0.7521 0.61428 0.0522 0.0
C1634 C 0.79971 0.70246 0.04793 0.0
C1635 C 0.76619 0.6671 0.04707 0.0
C1636 C 0.80787 0.72771 0.04165 0.0
C1637 C 0.79103 0.74541 0.03092 0.0
C1638 C 0.77449 0.69476 0.04353 0.0
C1639 C 0.76557 0.73754 0.02834 0.0
C1640 C 0.74047 0.65982 0.04754 0.0
C1641 C 0.77757 0.62235 0.05138 0.0
N1642 N 0.7581 0.71267 0.03436 0.0
N1643 N 0.78385 0.64814 0.04895 0.0
H1644 H 0.82181 0.00183 0.14011 0.0
H1645 H 0.69374 0.07753 0.16415 0.0
H1646 H 0.81928 0.08452 0.15635 0.0
H1647 H 0.69603 0.00118 0.12963 0.0
H1648 H 0.73999 0.07939 0.16401 0.0
H1649 H 0.77575 1.00065 0.1368 0.0
C1650 C 0.81161 0.01983 0.14252 0.0
C1651 C 0.82433 0.04324 0.14882 0.0
C1652 C 0.73034 0.06223 0.15649 0.0
C1653 C 0.77173 0.04191 0.14562 0.0
C1654 C 0.70399 0.06105 0.15681 0.0
C1655 C 0.69111 0.03916 0.14691 0.0
C1656 C 0.74382 0.04129 0.14636 0.0
C1657 C 0.70526 0.01844 0.13743 0.0
C1658 C 0.78531 0.01911 0.14081 0.0
C1659 C 0.81018 0.06598 0.15174 0.0
N1660 N 0.73088 0.02 0.1374 0.0
N1661 N 0.78458 0.06468 0.15046 0.0
H1662 H 0.24176 0.2593 0.4382 0.0
H1663 H 0.1995 0.10979 0.41882 0.0
H1664 H 0.16414 0.23404 0.42787 0.0
H1665 H 0.27734 0.13665 0.41947 0.0
H1666 H 0.18615 0.15542 0.41992 0.0
H1667 H 0.2553 0.21518 0.42773 0.0
C1668 C 0.22758 0.24469 0.43308 0.0
C1669 C 0.20175 0.25042 0.43407 0.0
C1670 C 0.20615 0.15134 0.41965 0.0
C1671 C 0.2171 0.19955 0.42276 0.0
C1672 C 0.21378 0.12526 0.41915 0.0
C1673 C 0.23957 0.11936 0.41921 0.0
C1674 C 0.22445 0.17167 0.42034 0.0
C1675 C 0.25724 0.14025 0.41952 0.0
C1676 C 0.23532 0.21938 0.42732 0.0
C1677 C 0.18426 0.23057 0.42738 0.0
N1678 N 0.24936 0.16541 0.42021 0.0
N1679 N 0.19222 0.20595 0.42241 0.0
H1680 H 0.19479 0.3625 0.53249 0.0
H1681 H 0.2218 0.50763 0.49001 0.0
H1682 H 0.1882 0.38435 0.45468 0.0
H1683 H 0.18625 0.49026 0.56106 0.0
H1684 H 0.2129 0.46259 0.47655 0.0
H1685 H 0.19645 0.40899 0.54389 0.0
C1686 C 0.19374 0.37706 0.5178 0.0
C1687 C 0.19137 0.36956 0.49259 0.0
C1688 C 0.20678 0.46878 0.49496 0.0
C1689 C 0.19337 0.42269 0.50551 0.0
C1690 C 0.21174 0.49451 0.50265 0.0
C1691 C 0.2052 0.50266 0.52693 0.0
C1692 C 0.19563 0.45092 0.51182 0.0
C1693 C 0.19204 0.48477 0.54237 0.0
C1694 C 0.19447 0.40356 0.52435 0.0
C1695 C 0.18999 0.3893 0.47434 0.0
N1696 N 0.18821 0.45956 0.53479 0.0
N1697 N 0.19128 0.41498 0.48112 0.0
H1698 H 0.06606 0.53185 0.90067 0.0
H1699 H 0.94218 0.56228 0.92565 0.0
H1700 H 0.04644 0.45336 0.92433 0.0
H1701 H 0.92989 0.48261 0.90095 0.0
H1702 H 0.9864 0.55234 0.93441 0.0
H1703 H 0.02288 0.54511 0.90974 0.0
C1704 C 0.05284 0.51763 0.90854 0.0
C1705 C 0.05977 0.49151 0.91178 0.0
C1706 C 0.97393 0.537 0.92731 0.0
C1707 C 0.01028 0.50636 0.92187 0.0
C1708 C 0.94864 0.54256 0.92253 0.0
C1709 C 0.93247 0.52333 0.91215 0.0
C1710 C 0.98299 0.51202 0.92176 0.0
C1711 C 0.94183 0.4981 0.9086 0.0
C1712 C 0.02821 0.52521 0.91383 0.0
C1713 C 0.04188 0.47374 0.92176 0.0
N1714 N 0.96656 0.49322 0.91321 0.0
N1715 N 0.01772 0.48134 0.92582 0.0
H1716 H 0.67427 0.48582 0.07184 0.0
H1717 H 0.67974 0.37341 0.96819 0.0
H1718 H 0.70988 0.49906 2e-05 0.0
H1719 H 0.68336 0.35851 0.04772 0.0
H1720 H 0.68103 0.4207 0.97692 0.0
H1721 H 0.66617 0.44017 0.06001 0.0
C1722 C 0.67994 0.47932 0.05339 0.0
C1723 C 0.6933 0.49617 0.03713 0.0
C1724 C 0.68144 0.40698 0.99238 0.0
C1725 C 0.68383 0.44405 0.02344 0.0
C1726 C 0.68073 0.38007 0.98745 0.0
C1727 C 0.68153 0.36201 0.00726 0.0
C1728 C 0.68233 0.41579 0.0173 0.0
C1729 C 0.68279 0.37169 0.03186 0.0
C1730 C 0.67545 0.45322 0.04675 0.0
C1731 C 0.69981 0.48668 0.01329 0.0
N1732 N 0.68299 0.3979 0.03619 0.0
N1733 N 0.6952 0.46116 0.00722 0.0
H1734 H 0.95854 0.05506 0.15065 0.0
H1735 H 0.0588 0.94082 0.1517 0.0
H1736 H 0.94092 0.97654 0.17582 0.0
H1737 H 0.07862 0.02053 0.17149 0.0
H1738 H 0.0151 0.95405 0.14483 0.0
H1739 H 0.00239 0.04221 0.14326 0.0
C1740 C 0.96382 0.03502 0.1542 0.0
C1741 C 0.94632 0.01684 0.16413 0.0
C1742 C 0.0292 0.96867 0.15018 0.0
C1743 C 0.99588 0.00209 0.15529 0.0
C1744 C 0.0541 0.96123 0.15397 0.0
C1745 C 0.07216 0.9796 0.16251 0.0
C1746 C 0.02257 0.99469 0.15454 0.0
C1747 C 0.06511 0.00575 0.16522 0.0
C1748 C 0.98874 0.02778 0.15002 0.0
C1749 C 0.95401 0.99116 0.16845 0.0
N1750 N 0.04072 0.01254 0.1614 0.0
N1751 N 0.97832 0.98452 0.16403 0.0
H1752 H 0.33027 0.00516 0.43241 0.0
H1753 H 0.30722 0.89005 0.53124 0.0
H1754 H 0.27251 0.01192 0.48907 0.0
H1755 H 0.32342 0.87866 0.45277 0.0
H1756 H 0.3049 0.93766 0.52345 0.0
H1757 H 0.34012 0.96183 0.44854 0.0
C1758 C 0.32007 0.99783 0.44865 0.0
C1759 C 0.30018 0.01196 0.45907 0.0
C1760 C 0.30916 0.92457 0.50811 0.0
C1761 C 0.31144 0.96239 0.4776 0.0
C1762 C 0.3105 0.89754 0.5125 0.0
C1763 C 0.31538 0.88037 0.49258 0.0
C1764 C 0.31358 0.93432 0.48385 0.0
C1765 C 0.31945 0.89103 0.46866 0.0
C1766 C 0.32563 0.97305 0.45773 0.0
C1767 C 0.28784 0.00156 0.48031 0.0
N1768 N 0.31862 0.91725 0.46501 0.0
N1769 N 0.29343 0.97715 0.48872 0.0
H1770 H 0.42501 0.47159 0.84113 0.0
H1771 H 0.55043 0.44669 0.8121 0.0
H1772 H 0.44509 0.54983 0.81671 0.0
H1773 H 0.56489 0.52545 0.83842 0.0
H1774 H 0.50493 0.45385 0.81654 0.0
H1775 H 0.46979 0.46141 0.84368 0.0
C1776 C 0.43884 0.48676 0.83656 0.0
C1777 C 0.43131 0.51157 0.82842 0.0
C1778 C 0.51813 0.46934 0.82183 0.0
C1779 C 0.48253 0.4998 0.83098 0.0
C1780 C 0.54403 0.4653 0.81916 0.0
C1781 C 0.56139 0.48542 0.82506 0.0
C1782 C 0.50966 0.49379 0.83008 0.0
C1783 C 0.55214 0.50932 0.83387 0.0
C1784 C 0.46437 0.48078 0.83776 0.0
C1785 C 0.45009 0.53043 0.8229 0.0
N1786 N 0.52686 0.51298 0.83577 0.0
N1787 N 0.47493 0.52414 0.82427 0.0
H1788 H 0.8152 0.86938 0.94729 0.0
H1789 H 0.77737 0.00537 0.99761 0.0
H1790 H 0.80533 0.87877 0.02703 0.0
H1791 H 0.83387 0.99892 0.93968 0.0
H1792 H 0.78429 0.95963 0.009 0.0
H1793 H 0.81765 0.91702 0.9428 0.0
C1794 C 0.81343 0.88147 0.96384 0.0
C1795 C 0.81004 0.87016 0.98757 0.0
C1796 C 0.79552 0.96847 0.99416 0.0
C1797 C 0.81242 0.92461 0.98248 0.0
C1798 C 0.79174 0.99463 0.98772 0.0
C1799 C 0.80462 0.00585 0.96719 0.0
C1800 C 0.81195 0.95342 0.97971 0.0
C1801 C 0.82312 0.99094 0.95525 0.0
C1802 C 0.81504 0.90862 0.96128 0.0
C1803 C 0.80801 0.88679 0.00841 0.0
N1804 N 0.82569 0.96524 0.96116 0.0
N1805 N 0.80883 0.91326 0.00536 0.0
H1806 H 0.43367 0.00628 0.13068 0.0
H1807 H 0.55965 0.99035 0.10713 0.0
H1808 H 0.44974 0.97788 0.20509 0.0
H1809 H 0.57101 0.00478 0.18612 0.0
H1810 H 0.51423 0.98625 0.11459 0.0
H1811 H 0.47901 0.01111 0.12299 0.0
C1812 C 0.44675 0.00148 0.14553 0.0
C1813 C 0.43799 0.99119 0.16835 0.0
C1814 C 0.52665 0.9905 0.13026 0.0
C1815 C 0.48974 0.99552 0.15934 0.0
C1816 C 0.5526 0.99227 0.1261 0.0
C1817 C 0.56903 0.99836 0.14595 0.0
C1818 C 0.51713 0.99494 0.15444 0.0
C1819 C 0.55895 1.00029 0.17023 0.0
C1820 C 0.47261 0.0037 0.14095 0.0
C1821 C 0.45572 0.98564 0.18712 0.0
N1822 N 0.53353 0.99883 0.17378 0.0
N1823 N 0.48086 0.98761 0.18209 0.0
H1824 H 0.39482 0.20854 0.18996 0.0
H1825 H 0.38478 0.28045 0.32018 0.0
H1826 H 0.42 0.2888 0.19913 0.0
H1827 H 0.41677 0.20344 0.31619 0.0
H1828 H 0.38335 0.28185 0.2744 0.0
H1829 H 0.38957 0.20496 0.23555 0.0
C1830 C 0.39897 0.22547 0.2016 0.0
C1831 C 0.40788 0.24902 0.19101 0.0
C1832 C 0.39028 0.26453 0.28366 0.0
C1833 C 0.40138 0.24514 0.24253 0.0
C1834 C 0.39091 0.26355 0.30969 0.0
C1835 C 0.40106 0.24181 0.32188 0.0
C1836 C 0.39927 0.24339 0.26986 0.0
C1837 C 0.40893 0.22058 0.30741 0.0
C1838 C 0.39606 0.22333 0.22745 0.0
C1839 C 0.41322 0.27032 0.20674 0.0
N1840 N 0.40789 0.22188 0.28199 0.0
N1841 N 0.40967 0.26796 0.23186 0.0
H1842 H 0.06769 0.75642 0.31272 0.0
H1843 H 0.14184 0.7227 0.18868 0.0
H1844 H 0.14361 0.78627 0.30065 0.0
H1845 H 0.06122 0.73417 0.18946 0.0
H1846 H 0.14434 0.74018 0.23152 0.0
H1847 H 0.06639 0.74132 0.26924 0.0
C1848 C 0.08417 0.75957 0.30096 0.0
C1849 C 0.10583 0.77251 0.31021 0.0
C1850 C 0.12619 0.73904 0.22214 0.0
C1851 C 0.10445 0.75528 0.26067 0.0
C1852 C 0.12473 0.72907 0.19781 0.0
C1853 C 0.10129 0.72707 0.1856 0.0
C1854 C 0.10397 0.74638 0.2344 0.0
C1855 C 0.07967 0.73554 0.19819 0.0
C1856 C 0.08332 0.75116 0.27615 0.0
C1857 C 0.12657 0.77636 0.29414 0.0
N1858 N 0.08148 0.74455 0.22206 0.0
N1859 N 0.12546 0.76758 0.2701 0.0
H1860 H 0.38482 0.29501 0.44889 0.0
H1861 H 0.3545 0.24354 0.57935 0.0
H1862 H 0.38808 0.21069 0.4522 0.0
H1863 H 0.42149 0.29136 0.56667 0.0
H1864 H 0.35408 0.23194 0.53455 0.0
H1865 H 0.38261 0.29642 0.49448 0.0
C1866 C 0.38446 0.27673 0.4592 0.0
C1867 C 0.38701 0.25271 0.4469 0.0
C1868 C 0.36908 0.24448 0.54189 0.0
C1869 C 0.38447 0.25435 0.49876 0.0
C1870 C 0.36935 0.25118 0.56726 0.0
C1871 C 0.38786 0.26876 0.57652 0.0
C1872 C 0.38709 0.25597 0.52596 0.0
C1873 C 0.40676 0.27798 0.56024 0.0
C1874 C 0.38337 0.27762 0.48511 0.0
C1875 C 0.38618 0.22958 0.46112 0.0
N1876 N 0.40553 0.27197 0.53554 0.0
N1877 N 0.38523 0.23093 0.48662 0.0
H1878 H 0.05456 0.7059 0.67846 0.0
H1879 H 0.06492 0.78243 0.80379 0.0
H1880 H 0.09151 0.78192 0.67753 0.0
H1881 H 0.08981 0.70256 0.80071 0.0
H1882 H 0.06665 0.78424 0.75769 0.0
H1883 H 0.05853 0.70523 0.72442 0.0
C1884 C 0.06345 0.7224 0.68798 0.0
C1885 C 0.07285 0.74393 0.67443 0.0
C1886 C 0.07203 0.76652 0.76728 0.0
C1887 C 0.07687 0.74353 0.72637 0.0
C1888 C 0.07108 0.76547 0.79341 0.0
C1889 C 0.0774 0.74238 0.8059 0.0
C1890 C 0.07844 0.74403 0.75381 0.0
C1891 C 0.08506 0.72081 0.79172 0.0
C1892 C 0.06582 0.72195 0.71401 0.0
C1893 C 0.08424 0.76489 0.68746 0.0
N1894 N 0.08491 0.72198 0.76632 0.0
N1895 N 0.08565 0.76436 0.71286 0.0
H1896 H 0.09895 0.68711 0.93315 0.0
H1897 H 0.11171 0.75323 0.065 0.0
H1898 H 0.09263 0.77117 0.93602 0.0
H1899 H 0.06191 0.68694 0.05091 0.0
H1900 H 0.11581 0.7599 0.01944 0.0
H1901 H 0.09932 0.68584 0.9788 0.0
C1902 C 0.09828 0.7054 0.9434 0.0
C1903 C 0.09537 0.72926 0.93087 0.0
C1904 C 0.10387 0.7441 0.02652 0.0
C1905 C 0.09574 0.7278 0.98294 0.0
C1906 C 0.10148 0.74026 0.05235 0.0
C1907 C 0.08658 0.71936 0.06164 0.0
C1908 C 0.09187 0.72643 0.01016 0.0
C1909 C 0.07366 0.70318 0.04457 0.0
C1910 C 0.09827 0.70458 0.96938 0.0
C1911 C 0.09484 0.75239 0.94506 0.0
N1912 N 0.07696 0.70678 0.0196 0.0
N1913 N 0.09475 0.7511 0.97058 0.0
H1914 H 0.55306 0.78295 0.31425 0.0
H1915 H 0.63012 0.73887 0.194 0.0
H1916 H 0.62825 0.75214 0.31997 0.0
H1917 H 0.54863 0.73615 0.19785 0.0
H1918 H 0.63167 0.74964 0.23874 0.0
H1919 H 0.55351 0.77406 0.26922 0.0
C1920 C 0.56992 0.77494 0.30593 0.0
C1921 C 0.59064 0.76816 0.32081 0.0
C1922 C 0.61349 0.74641 0.2298 0.0
C1923 C 0.59106 0.7576 0.26958 0.0
C1924 C 0.61258 0.74013 0.20439 0.0
C1925 C 0.58921 0.73648 0.19236 0.0
C1926 C 0.59085 0.74962 0.24302 0.0
C1927 C 0.56703 0.73852 0.20653 0.0
C1928 C 0.57 0.76952 0.28034 0.0
C1929 C 0.61187 0.75755 0.30912 0.0
N1930 N 0.56838 0.74528 0.23112 0.0
N1931 N 0.61152 0.75248 0.28413 0.0
H1932 H 0.34911 0.23306 0.07399 0.0
H1933 H 0.39385 0.26762 0.94478 0.0
H1934 H 0.39844 0.30063 0.0658 0.0
H1935 H 0.31403 0.25151 0.95411 0.0
H1936 H 0.39666 0.27923 0.98928 0.0
H1937 H 0.3347 0.23894 0.03072 0.0
C1938 C 0.35622 0.24962 0.06323 0.0
C1939 C 0.37484 0.26644 0.07313 0.0
C1940 C 0.37845 0.2737 0.9814 0.0
C1941 C 0.35948 0.27254 0.02388 0.0
C1942 C 0.37691 0.2668 0.95621 0.0
C1943 C 0.35376 0.25838 0.94608 0.0
C1944 C 0.35685 0.27129 0.99654 0.0
C1945 C 0.33224 0.25784 0.96143 0.0
C1946 C 0.34804 0.25299 0.03869 0.0
C1947 C 0.38388 0.28745 0.05864 0.0
N1948 N 0.33441 0.26359 0.98619 0.0
N1949 N 0.37667 0.28948 0.03431 0.0
H1950 H 0.30922 0.98158 0.65073 0.0
H1951 H 0.18055 0.05729 0.64051 0.0
H1952 H 0.30465 0.06577 0.65432 0.0
H1953 H 0.19197 0.98889 0.59469 0.0
H1954 H 0.22469 0.05579 0.65375 0.0
H1955 H 0.26505 0.97959 0.63595 0.0
C1956 C 0.2991 0.99959 0.64813 0.0
C1957 C 0.31054 0.02386 0.65401 0.0
C1958 C 0.21746 0.04102 0.64091 0.0
C1959 C 0.26025 0.02161 0.63798 0.0
C1960 C 0.19224 0.04172 0.63352 0.0
C1961 C 0.18265 0.02325 0.6164 0.0
C1962 C 0.23312 0.02148 0.63145 0.0
C1963 C 0.19873 0.00357 0.60784 0.0
C1964 C 0.27395 0.99842 0.63984 0.0
C1965 C 0.29655 0.0466 0.65034 0.0
N1966 N 0.22327 0.00314 0.61549 0.0
N1967 N 0.27208 0.04489 0.64294 0.0
H1968 H 0.73254 0.25071 0.96079 0.0
H1969 H 0.69965 0.09978 0.93404 0.0
H1970 H 0.65619 0.2204 0.95362 0.0
H1971 H 0.77544 0.13256 0.93475 0.0
H1972 H 0.68307 0.144 0.93885 0.0
H1973 H 0.74836 0.20819 0.94794 0.0
C1974 C 0.71907 0.23526 0.95602 0.0
C1975 C 0.69299 0.23915 0.95836 0.0
C1976 C 0.70332 0.14151 0.9378 0.0
C1977 C 0.71101 0.19005 0.94418 0.0
C1978 C 0.7128 0.11625 0.93514 0.0
C1979 C 0.73898 0.11241 0.93414 0.0
C1980 C 0.72016 0.16308 0.93958 0.0
C1981 C 0.75512 0.13452 0.93555 0.0
C1982 C 0.72812 0.21089 0.94882 0.0
C1983 C 0.67645 0.21833 0.95201 0.0
N1984 N 0.74547 0.15881 0.93831 0.0
N1985 N 0.68573 0.19459 0.94554 0.0
H1986 H 0.8117 0.50542 0.34767 0.0
H1987 H 0.67843 0.44618 0.3038 0.0
H1988 H 0.80328 0.44852 0.28826 0.0
H1989 H 0.68996 0.48042 0.377 0.0
H1990 H 0.72373 0.4511 0.29561 0.0
H1991 H 0.76656 0.49996 0.35717 0.0
C1992 C 0.80041 0.49163 0.33679 0.0
C1993 C 0.81121 0.47738 0.31718 0.0
C1994 C 0.71633 0.45752 0.31347 0.0
C1995 C 0.75972 0.47142 0.3276 0.0
C1996 C 0.69047 0.45487 0.31808 0.0
C1997 C 0.6805 0.46286 0.34112 0.0
C1998 C 0.73222 0.46853 0.33191 0.0
C1999 C 0.69695 0.47395 0.359 0.0
C2000 C 0.7747 0.48856 0.34219 0.0
C2001 C 0.79575 0.45983 0.30361 0.0
N2002 N 0.72205 0.47654 0.354 0.0
N2003 N 0.77073 0.45751 0.30894 0.0
H2004 H 0.3051 0.61325 0.54828 0.0
H2005 H 0.26139 0.75957 0.52308 0.0
H2006 H 0.22664 0.6345 0.54448 0.0
H2007 H 0.33738 0.7397 0.54429 0.0
H2008 H 0.24784 0.71426 0.53123 0.0
H2009 H 0.31723 0.65961 0.54569 0.0
C2010 C 0.29043 0.62765 0.54674 0.0
C2011 C 0.26483 0.61997 0.54649 0.0
C2012 C 0.2674 0.71993 0.53445 0.0
C2013 C 0.27855 0.67314 0.54372 0.0
C2014 C 0.27511 0.74585 0.52998 0.0
C2015 C 0.30059 0.75346 0.53291 0.0
C2016 C 0.28535 0.70143 0.5416 0.0
C2017 C 0.31756 0.73476 0.54173 0.0
C2018 C 0.29735 0.65415 0.54547 0.0
C2019 C 0.24662 0.63953 0.54467 0.0
N2020 N 0.30971 0.70957 0.54543 0.0
N2021 N 0.25382 0.66519 0.54326 0.0
H2022 H 0.19188 0.89703 0.17647 0.0
H2023 H 0.31674 0.98087 0.20604 0.0
H2024 H 0.20122 0.98013 0.16391 0.0
H2025 H 0.32063 0.89867 0.18857 0.0
H2026 H 0.27084 0.97821 0.20187 0.0
H2027 H 0.23684 0.89503 0.18787 0.0
C2028 C 0.2035 0.9147 0.17556 0.0
C2029 C 0.19282 0.93879 0.16928 0.0
C2030 C 0.28168 0.96063 0.19938 0.0
C2031 C 0.24356 0.93676 0.1832 0.0
C2032 C 0.30778 0.96204 0.2022 0.0
C2033 C 0.32235 0.94001 0.19743 0.0
C2034 C 0.27017 0.93708 0.19147 0.0
C2035 C 0.30993 0.91606 0.19247 0.0
C2036 C 0.22897 0.91357 0.18236 0.0
C2037 C 0.20861 0.96112 0.16854 0.0
N2038 N 0.28443 0.91529 0.18907 0.0
N2039 N 0.23308 0.95961 0.17578 0.0
H2040 H 0.7238 0.86817 0.41586 0.0
H2041 H 0.8353 0.76465 0.42127 0.0
H2042 H 0.80298 0.89014 0.41697 0.0
H2043 H 0.75706 0.74472 0.4361 0.0
H2044 H 0.82315 0.80946 0.41186 0.0
H2045 H 0.73528 0.82215 0.41675 0.0
C2046 C 0.74365 0.86334 0.41625 0.0
C2047 C 0.76247 0.88311 0.41649 0.0
C2048 C 0.80859 0.79519 0.41678 0.0
C2049 C 0.77575 0.83023 0.41729 0.0
C2050 C 0.81545 0.76946 0.42188 0.0
C2051 C 0.79719 0.75083 0.42966 0.0
C2052 C 0.78325 0.80238 0.41931 0.0
C2053 C 0.7718 0.75837 0.43022 0.0
C2054 C 0.75017 0.837 0.41672 0.0
C2055 C 0.78785 0.87558 0.41692 0.0
N2056 N 0.76563 0.78361 0.4254 0.0
N2057 N 0.79374 0.84974 0.41733 0.0
H2058 H 0.79679 0.53835 0.90555 0.0
H2059 H 0.69418 0.45067 0.83446 0.0
H2060 H 0.8182 0.48639 0.84583 0.0
H2061 H 0.68478 0.53382 0.84322 0.0
H2062 H 0.7368 0.45518 0.85274 0.0
H2063 H 0.75201 0.52797 0.89664 0.0
C2064 C 0.79202 0.52427 0.89103 0.0
C2065 C 0.81094 0.51318 0.87629 0.0
C2066 C 0.72511 0.47226 0.85101 0.0
C2067 C 0.76044 0.50101 0.86652 0.0
C2068 C 0.70093 0.46973 0.84072 0.0
C2069 C 0.68626 0.49198 0.83725 0.0
C2070 C 0.73411 0.49703 0.8585 0.0
C2071 C 0.69575 0.5163 0.84544 0.0
C2072 C 0.76664 0.51851 0.88592 0.0
C2073 C 0.80399 0.49535 0.85746 0.0
N2074 N 0.71916 0.51821 0.85579 0.0
N2075 N 0.77919 0.48972 0.85309 0.0
H2076 H 0.24684 0.25879 0.01636 0.0
H2077 H 0.20649 0.4033 0.05304 0.0
H2078 H 0.17203 0.27866 0.04142 0.0
H2079 H 0.28469 0.38137 0.04777 0.0
H2080 H 0.19379 0.35754 0.04727 0.0
H2081 H 0.26176 0.30299 0.02767 0.0
C2082 C 0.23368 0.27223 0.02472 0.0
C2083 C 0.2081 0.26505 0.02781 0.0
C2084 C 0.21375 0.36268 0.04743 0.0
C2085 C 0.22488 0.31574 0.04017 0.0
C2086 C 0.221 0.38887 0.05053 0.0
C2087 C 0.24668 0.39619 0.05079 0.0
C2088 C 0.23227 0.34361 0.0443 0.0
C2089 C 0.26466 0.37657 0.04764 0.0
C2090 C 0.24217 0.2975 0.03101 0.0
C2091 C 0.19187 0.28333 0.03858 0.0
N2092 N 0.25712 0.35117 0.04439 0.0
N2093 N 0.20046 0.30788 0.04406 0.0
H2094 H 0.32485 0.52488 0.07203 0.0
H2095 H 0.31734 0.63744 0.9685 0.0
H2096 H 0.28911 0.5117 0.00028 0.0
H2097 H 0.31539 0.6523 0.0481 0.0
H2098 H 0.31687 0.59016 0.97723 0.0
H2099 H 0.33272 0.57061 0.06032 0.0
C2100 C 0.31907 0.53142 0.05364 0.0
C2101 C 0.30575 0.51455 0.03735 0.0
C2102 C 0.31667 0.60386 0.99271 0.0
C2103 C 0.31501 0.56676 0.02377 0.0
C2104 C 0.31692 0.63077 0.98778 0.0
C2105 C 0.31626 0.64881 0.00761 0.0
C2106 C 0.31636 0.59503 0.01764 0.0
C2107 C 0.31576 0.63913 0.03223 0.0
C2108 C 0.32345 0.55757 0.04705 0.0
C2109 C 0.29912 0.5241 0.01357 0.0
N2110 N 0.31595 0.61292 0.03655 0.0
N2111 N 0.30364 0.54964 0.00755 0.0
H2112 H 0.77707 0.49233 0.4883 0.0
H2113 H 0.80402 0.63829 0.52757 0.0
H2114 H 0.81518 0.51132 0.55767 0.0
H2115 H 0.80853 0.61538 0.44988 0.0
H2116 H 0.80326 0.59202 0.53961 0.0
H2117 H 0.78516 0.53714 0.47375 0.0
C2118 C 0.78753 0.50576 0.50033 0.0
C2119 C 0.795 0.49814 0.5245 0.0
C2120 C 0.80458 0.59716 0.51995 0.0
C2121 C 0.80366 0.54962 0.50814 0.0
C2122 C 0.80479 0.62354 0.51304 0.0
C2123 C 0.80633 0.6307 0.48767 0.0
C2124 C 0.80536 0.57776 0.50135 0.0
C2125 C 0.80738 0.6107 0.46965 0.0
C2126 C 0.79203 0.53136 0.49202 0.0
C2127 C 0.80866 0.5164 0.53911 0.0
N2128 N 0.80659 0.58511 0.4768 0.0
N2129 N 0.81202 0.54148 0.53096 0.0
H2130 H 0.19154 0.13109 0.02801 0.0
H2131 H 0.15724 0.01129 0.938 0.0
H2132 H 0.18153 0.13912 0.94813 0.0
H2133 H 0.21284 0.00318 0.99656 0.0
H2134 H 0.15308 0.05743 0.94937 0.0
H2135 H 0.18831 0.08317 0.02323 0.0
C2136 C 0.18856 0.1228 0.00953 0.0
C2137 C 0.1869 0.13909 0.98841 0.0
C2138 C 0.16578 0.04532 0.96001 0.0
C2139 C 0.18231 0.08472 0.98305 0.0
C2140 C 0.16804 0.01895 0.9537 0.0
C2141 C 0.18601 0.00353 0.96581 0.0
C2142 C 0.18097 0.05609 0.9791 0.0
C2143 C 0.1991 0.01445 0.98638 0.0
C2144 C 0.18668 0.09557 0.00687 0.0
C2145 C 0.18304 0.12736 0.9649 0.0
N2146 N 0.19658 0.04021 0.9922 0.0
N2147 N 0.18067 0.10092 0.96288 0.0
H2148 H 0.69238 0.1129 0.52667 0.0
H2149 H 0.67377 0.99808 0.42637 0.0
H2150 H 0.67538 0.124 0.44834 0.0
H2151 H 0.72917 0.9917 0.48531 0.0
H2152 H 0.66237 0.04093 0.44255 0.0
H2153 H 0.69583 0.0654 0.51874 0.0
C2154 C 0.68915 0.10536 0.50793 0.0
C2155 C 0.68374 0.12244 0.48809 0.0
C2156 C 0.67669 0.02992 0.45222 0.0
C2157 C 0.6869 0.0686 0.47917 0.0
C2158 C 0.6831 0.00539 0.44311 0.0
C2159 C 0.70275 0.99149 0.45424 0.0
C2160 C 0.68985 0.04063 0.47275 0.0
C2161 C 0.71402 0.00186 0.47606 0.0
C2162 C 0.69114 0.07839 0.50346 0.0
C2163 C 0.67976 0.11172 0.46417 0.0
N2164 N 0.70767 0.02608 0.48445 0.0
N2165 N 0.68129 0.08557 0.46044 0.0
H2166 H 0.69927 0.76869 0.81601 0.0
H2167 H 0.6144 0.74025 0.70341 0.0
H2168 H 0.63288 0.71895 0.8247 0.0
H2169 H 0.69005 0.71152 0.69386 0.0
H2170 H 0.62286 0.74635 0.74804 0.0
H2171 H 0.69906 0.75885 0.77077 0.0
C2172 C 0.68507 0.75527 0.80855 0.0
C2173 C 0.6659 0.74481 0.82403 0.0
C2174 C 0.63763 0.73898 0.73602 0.0
C2175 C 0.66532 0.73427 0.77288 0.0
C2176 C 0.63295 0.7357 0.7106 0.0
C2177 C 0.65156 0.72531 0.695 0.0
C2178 C 0.66121 0.73238 0.74579 0.0
C2179 C 0.67522 0.71951 0.70539 0.0
C2180 C 0.685 0.74974 0.78287 0.0
C2181 C 0.64792 0.72757 0.81346 0.0
N2182 N 0.67949 0.72322 0.73033 0.0
N2183 N 0.64769 0.72334 0.7884 0.0
H2184 H 0.90575 0.21416 0.67951 0.0
H2185 H 0.9017 0.2879 0.80759 0.0
H2186 H 0.94044 0.29104 0.68507 0.0
H2187 H 0.93323 0.21069 0.8057 0.0
H2188 H 0.90284 0.2891 0.76158 0.0
H2189 H 0.90318 0.21223 0.72547 0.0
C2190 C 0.9126 0.2307 0.69045 0.0
C2191 C 0.9233 0.25282 0.6787 0.0
C2192 C 0.90924 0.27186 0.77135 0.0
C2193 C 0.91987 0.2509 0.73069 0.0
C2194 C 0.90838 0.27101 0.79744 0.0
C2195 C 0.91727 0.24908 0.81027 0.0
C2196 C 0.91833 0.25032 0.75815 0.0
C2197 C 0.92618 0.22789 0.79637 0.0
C2198 C 0.91124 0.22949 0.71651 0.0
C2199 C 0.93215 0.27366 0.69357 0.0
N2200 N 0.92627 0.2289 0.7709 0.0
N2201 N 0.92995 0.27235 0.71894 0.0
H2202 H 0.59234 0.69331 0.06188 0.0
H2203 H 0.68437 0.74615 0.95403 0.0
H2204 H 0.65578 0.74545 0.07586 0.0
H2205 H 0.60365 0.73639 0.94514 0.0
H2206 H 0.68053 0.73001 0.99721 0.0
H2207 H 0.60391 0.69233 0.01726 0.0
C2208 C 0.60936 0.70354 0.0557 0.0
C2209 C 0.62322 0.7195 0.07226 0.0
C2210 C 0.66379 0.73102 0.98558 0.0
C2211 C 0.63632 0.71859 0.02187 0.0
C2212 C 0.66591 0.74027 0.96108 0.0
C2213 C 0.64421 0.74296 0.94629 0.0
C2214 C 0.63989 0.72395 0.99503 0.0
C2215 C 0.62076 0.73498 0.95616 0.0
C2216 C 0.61576 0.70321 0.03032 0.0
C2217 C 0.64475 0.73293 0.06346 0.0
N2218 N 0.61918 0.72589 0.98003 0.0
N2219 N 0.65057 0.73237 0.03872 0.0
H2220 H 0.85451 0.19902 0.29761 0.0
H2221 H 0.8549 0.31386 0.19758 0.0
H2222 H 0.87713 0.27786 0.3177 0.0
H2223 H 0.88188 0.23703 0.17927 0.0
H2224 H 0.85079 0.30036 0.24157 0.0
H2225 H 0.8521 0.21253 0.25358 0.0
C2226 C 0.85847 0.21929 0.2928 0.0
C2227 C 0.86603 0.23742 0.3112 0.0
C2228 C 0.85735 0.28646 0.2278 0.0
C2229 C 0.86308 0.25285 0.26122 0.0
C2230 C 0.85956 0.29403 0.20278 0.0
C2231 C 0.86876 0.27647 0.1849 0.0
C2232 C 0.86378 0.261 0.23476 0.0
C2233 C 0.8748 0.25112 0.19257 0.0
C2234 C 0.85727 0.22687 0.26774 0.0
C2235 C 0.87129 0.26334 0.30399 0.0
N2236 N 0.87208 0.24405 0.217 0.0
N2237 N 0.86963 0.27036 0.27947 0.0
H2238 H 0.85622 0.24926 0.56218 0.0
H2239 H 0.92222 0.2539 0.43585 0.0
H2240 H 0.92046 0.3011 0.55136 0.0
H2241 H 0.84093 0.24552 0.43833 0.0
H2242 H 0.92156 0.27283 0.478 0.0
H2243 H 0.8478 0.25061 0.51715 0.0
C2244 C 0.86784 0.26188 0.55038 0.0
C2245 C 0.889 0.27509 0.56026 0.0
C2246 C 0.90383 0.26733 0.4691 0.0
C2247 C 0.88049 0.27551 0.50888 0.0
C2248 C 0.90423 0.25626 0.44522 0.0
C2249 C 0.88163 0.24784 0.43384 0.0
C2250 C 0.88073 0.26935 0.48186 0.0
C2251 C 0.85879 0.2516 0.4466 0.0
C2252 C 0.86319 0.26249 0.52469 0.0
C2253 C 0.90386 0.29078 0.5443 0.0
N2254 N 0.85895 0.26159 0.4702 0.0
N2255 N 0.89985 0.28987 0.51914 0.0
H2256 H 0.39499 0.27715 0.70749 0.0
H2257 H 0.30293 0.23954 0.81246 0.0
H2258 H 0.31719 0.29564 0.69224 0.0
H2259 H 0.36689 0.29101 0.82759 0.0
H2260 H 0.30584 0.25154 0.76784 0.0
H2261 H 0.38427 0.27111 0.75169 0.0
C2262 C 0.37557 0.27952 0.7134 0.0
C2263 C 0.35689 0.28684 0.69635 0.0
C2264 C 0.31874 0.26056 0.7812 0.0
C2265 C 0.34466 0.27994 0.74654 0.0
C2266 C 0.31712 0.25382 0.80655 0.0
C2267 C 0.33497 0.264 0.82362 0.0
C2268 C 0.33863 0.27701 0.77318 0.0
C2269 C 0.35295 0.28242 0.81504 0.0
C2270 C 0.36957 0.27636 0.73856 0.0
C2271 C 0.33206 0.29001 0.70499 0.0
N2272 N 0.35474 0.28783 0.79026 0.0
N2273 N 0.32651 0.28631 0.72966 0.0
H2274 H 0.58476 0.71923 0.5668 0.0
H2275 H 0.60979 0.80226 0.45102 0.0
H2276 H 0.65524 0.76249 0.57493 0.0
H2277 H 0.62093 0.71886 0.44732 0.0
H2278 H 0.61519 0.8001 0.49702 0.0
H2279 H 0.58345 0.73225 0.52265 0.0
C2280 C 0.59966 0.73188 0.55947 0.0
C2281 C 0.62032 0.7395 0.57435 0.0
C2282 C 0.61697 0.78254 0.48583 0.0
C2283 C 0.61858 0.75468 0.52439 0.0
C2284 C 0.61411 0.78374 0.45974 0.0
C2285 C 0.6147 0.76063 0.44552 0.0
C2286 C 0.6201 0.75811 0.49725 0.0
C2287 C 0.62005 0.73706 0.45767 0.0
C2288 C 0.59885 0.73928 0.5344 0.0
C2289 C 0.63913 0.75599 0.56389 0.0
N2290 N 0.62201 0.7363 0.48293 0.0
N2291 N 0.63799 0.76289 0.53931 0.0
H2292 H 0.45829 0.56486 0.40828 0.0
H2293 H 0.57486 0.51679 0.37476 0.0
H2294 H 0.43473 0.48921 0.37981 0.0
H2295 H 0.54675 0.44236 0.40222 0.0
H2296 H 0.53424 0.53621 0.38527 0.0
H2297 H 0.50093 0.54808 0.41489 0.0
C2298 C 0.46192 0.54454 0.40407 0.0
C2299 C 0.44315 0.52842 0.39321 0.0
C2300 C 0.53725 0.51583 0.38974 0.0
C2301 C 0.49158 0.50935 0.40052 0.0
C2302 C 0.56033 0.50473 0.38359 0.0
C2303 C 0.56406 0.47801 0.38768 0.0
C2304 C 0.51766 0.49986 0.39939 0.0
C2305 C 0.54462 0.46311 0.39896 0.0
C2306 C 0.48625 0.53511 0.40761 0.0
C2307 C 0.44882 0.5023 0.38796 0.0
N2308 N 0.52195 0.47409 0.40382 0.0
N2309 N 0.47263 0.49358 0.39154 0.0
H2310 H 0.43528 0.01948 0.6539 0.0
H2311 H 0.56072 0.00368 0.73314 0.0
H2312 H 0.43369 0.99934 0.73245 0.0
H2313 H 0.55723 0.98041 0.65543 0.0
H2314 H 0.51495 0.0102 0.73261 0.0
H2315 H 0.48103 0.01226 0.65342 0.0
C2316 C 0.44455 0.0134 0.67098 0.0
C2317 C 0.43074 0.00988 0.69323 0.0
C2318 C 0.52427 0.00374 0.71568 0.0
C2319 C 0.48288 0.00229 0.69292 0.0
C2320 C 0.55036 1.00024 0.71589 0.0
C2321 C 0.56271 0.99151 0.69428 0.0
C2322 C 0.51057 0.999 0.69357 0.0
C2323 C 0.54837 0.98711 0.6725 0.0
C2324 C 0.47057 0.00928 0.67068 0.0
C2325 C 0.44363 0.00205 0.71486 0.0
N2326 N 0.52301 0.99106 0.67263 0.0
N2327 N 0.46906 0.99881 0.71425 0.0
H2328 H 0.06859 0.53136 0.34187 0.0
H2329 H 0.93677 0.45367 0.33261 0.0
H2330 H 0.06249 0.44965 0.32169 0.0
H2331 H 0.94504 0.53677 0.31956 0.0
H2332 H 0.98223 0.45151 0.3404 0.0
H2333 H 0.02265 0.53263 0.34577 0.0
C2334 C 0.05764 0.51354 0.3387 0.0
C2335 C 0.06933 0.4904 0.33114 0.0
C2336 C 0.974 0.47024 0.33613 0.0
C2337 C 0.01685 0.49183 0.33563 0.0
C2338 C 0.94808 0.47155 0.33179 0.0
C2339 C 0.93721 0.49544 0.32522 0.0
C2340 C 0.98904 0.49302 0.33423 0.0
C2341 C 0.95274 0.51795 0.32439 0.0
C2342 C 0.03143 0.51436 0.34082 0.0
C2343 C 0.05419 0.46793 0.32735 0.0
N2344 N 0.97796 0.51619 0.32875 0.0
N2345 N 0.02864 0.46923 0.32948 0.0
H2346 H 0.06185 0.00528 0.53368 0.0
H2347 H 0.93558 0.01037 0.61448 0.0
H2348 H 0.05742 0.98987 0.61314 0.0
H2349 H 0.93252 0.99458 0.53502 0.0
H2350 H 0.9815 0.01066 0.61244 0.0
H2351 H 0.01537 0.00544 0.53199 0.0
C2352 C 0.05115 0.00134 0.55062 0.0
C2353 C 0.06358 0.99792 0.57365 0.0
C2354 C 0.97081 0.00727 0.59539 0.0
C2355 C 0.01073 0.99879 0.57193 0.0
C2356 C 0.94453 0.00747 0.59645 0.0
C2357 C 0.93011 0.00198 0.57495 0.0
C2358 C 0.98292 0.00178 0.57263 0.0
C2359 C 0.94292 0.9986 0.5521 0.0
C2360 C 0.02468 0.00167 0.54967 0.0
C2361 C 0.04877 0.99285 0.595 0.0
N2362 N 0.96868 0.99827 0.55155 0.0
N2363 N 0.02321 0.99388 0.59368 0.0
H2364 H 0.9178 0.21238 0.94089 0.0
H2365 H 0.8426 0.26808 0.05805 0.0
H2366 H 0.85948 0.26956 0.93319 0.0
H2367 H 0.92365 0.26001 0.05822 0.0
H2368 H 0.84146 0.25274 0.01449 0.0
H2369 H 0.912 0.21343 0.98664 0.0
C2370 C 0.903 0.22422 0.94878 0.0
C2371 C 0.889 0.24089 0.93349 0.0
C2372 C 0.85938 0.25391 0.0243 0.0
C2373 C 0.88231 0.24207 0.98519 0.0
C2374 C 0.86009 0.26264 0.04905 0.0
C2375 C 0.88331 0.26553 0.06154 0.0
C2376 C 0.88196 0.24744 0.01228 0.0
C2377 C 0.90542 0.2583 0.04906 0.0
C2378 C 0.89994 0.22503 0.97478 0.0
C2379 C 0.8705 0.25638 0.9445 0.0
N2380 N 0.90423 0.24958 0.025 0.0
N2381 N 0.86773 0.25671 0.96979 0.0
H2382 H 0.15031 0.76045 0.43001 0.0
H2383 H 0.14059 0.75372 0.55896 0.0
H2384 H 0.06948 0.76137 0.44085 0.0
H2385 H 0.07736 0.701 0.54636 0.0
H2386 H 0.14833 0.75515 0.51385 0.0
H2387 H 0.15475 0.73891 0.47087 0.0
C2388 C 0.1335 0.7559 0.4409 0.0
C2389 C 0.10952 0.76312 0.43242 0.0
C2390 C 0.1335 0.74228 0.52097 0.0
C2391 C 0.11447 0.73823 0.47853 0.0
C2392 C 0.12919 0.74136 0.54671 0.0
C2393 C 0.10835 0.72726 0.55615 0.0
C2394 C 0.11622 0.72975 0.50477 0.0
C2395 C 0.09369 0.712 0.53964 0.0
C2396 C 0.13608 0.7436 0.46407 0.0
C2397 C 0.08833 0.75657 0.44702 0.0
N2398 N 0.09725 0.7145 0.51452 0.0
N2399 N 0.09131 0.74452 0.46947 0.0
loop_
_geom_bond_atom_site_label_1
_geom_bond_atom_site_label_2
_geom_bond_distance
_geom_bond_site_symmetry_2
_ccdc_geom_bond_type
Co0 O1 2.216 . S
Co0 O2 2.091 . S
Co0 O4 2.004 . S
Co0 O10 2.021 . S
Co0 O12 2.137 . S
Co0 O13 2.244 . S
O1 Co0 2.216 . S
O1 C8 1.247 . S
O2 Co0 2.091 . S
O2 C8 1.261 . S
C3 O12 1.247 . S
C3 O13 1.272 . S
O4 Co0 2.004 . S
O4 C9 1.259 . S
Co5 O6 2.061 . S
Co5 O11 2.052 . S
Co5 O13 2.135 . S
O6 Co5 2.061 . S
O6 C9 1.235 . S
C7 O10 1.238 . S
C7 O11 1.241 . S
C8 O1 1.247 . S
C8 O2 1.261 . S
C9 O4 1.259 . S
C9 O6 1.235 . S
O10 Co0 2.021 . S
O10 C7 1.238 . S
O11 Co5 2.052 . S
O11 C7 1.241 . S
O12 Co0 2.137 . S
O12 C3 1.247 . S
O13 Co0 2.244 . S
O13 C3 1.272 . S
O13 Co5 2.135 . S
Co14 O15 2.216 . S
Co14 O16 2.091 . S
Co14 O18 2.004 . S
Co14 O24 2.021 . S
Co14 O26 2.137 . S
Co14 O27 2.244 . S
O15 Co14 2.216 . S
O15 C22 1.247 . S
O16 Co14 2.091 . S
O16 C22 1.261 . S
C17 O26 1.247 . S
C17 O27 1.272 . S
O18 Co14 2.004 . S
O18 C23 1.259 . S
Co19 O20 2.061 . S
Co19 O25 2.052 . S
Co19 O27 2.135 . S
O20 Co19 2.061 . S
O20 C23 1.235 . S
C21 O24 1.238 . S
C21 O25 1.241 . S
C22 O15 1.247 . S
C22 O16 1.261 . S
C23 O18 1.259 . S
C23 O20 1.235 . S
O24 Co14 2.021 . S
O24 C21 1.238 . S
O25 Co19 2.052 . S
O25 C21 1.241 . S
O26 Co14 2.137 . S
O26 C17 1.247 . S
O27 Co14 2.244 . S
O27 C17 1.272 . S
O27 Co19 2.135 . S
Co28 O29 2.216 . S
Co28 O30 2.091 . S
Co28 O32 2.004 . S
Co28 O38 2.021 . S
Co28 O40 2.137 . S
Co28 O41 2.244 . S
O29 Co28 2.216 . S
O29 C36 1.247 . S
O30 Co28 2.091 . S
O30 C36 1.261 . S
C31 O40 1.247 . S
C31 O41 1.272 . S
O32 Co28 2.004 . S
O32 C37 1.259 . S
Co33 O34 2.061 . S
Co33 O39 2.052 . S
Co33 O41 2.135 . S
O34 Co33 2.061 . S
O34 C37 1.235 . S
C35 O38 1.238 . S
C35 O39 1.241 . S
C36 O29 1.247 . S
C36 O30 1.261 . S
C37 O32 1.259 . S
C37 O34 1.235 . S
O38 Co28 2.021 . S
O38 C35 1.238 . S
O39 Co33 2.052 . S
O39 C35 1.241 . S
O40 Co28 2.137 . S
O40 C31 1.247 . S
O41 Co28 2.244 . S
O41 C31 1.272 . S
O41 Co33 2.135 . S
Co42 O43 2.216 . S
Co42 O44 2.091 . S
Co42 O46 2.004 1_565 S
Co42 O52 2.021 . S
Co42 O54 2.137 1_565 S
Co42 O55 2.244 1_565 S
O43 Co42 2.216 . S
O43 C50 1.247 . S
O44 Co42 2.091 . S
O44 C50 1.261 . S
C45 O54 1.247 . S
C45 O55 1.272 . S
O46 Co42 2.004 1_545 S
O46 C51 1.259 . S
Co47 O48 2.061 . S
Co47 O53 2.052 . S
Co47 O55 2.135 . S
O48 Co47 2.061 . S
O48 C51 1.235 . S
C49 O52 1.238 . S
C49 O53 1.241 1_565 S
C50 O43 1.247 . S
C50 O44 1.261 . S
C51 O46 1.259 . S
C51 O48 1.235 . S
O52 Co42 2.021 . S
O52 C49 1.238 . S
O53 Co47 2.052 . S
O53 C49 1.241 1_545 S
O54 Co42 2.137 1_545 S
O54 C45 1.247 . S
O55 Co42 2.244 1_545 S
O55 C45 1.272 . S
O55 Co47 2.135 . S
Co56 O57 2.216 . S
Co56 O58 2.091 . S
Co56 O60 2.004 . S
Co56 O66 2.021 . S
Co56 O68 2.137 . S
Co56 O69 2.244 . S
O57 Co56 2.216 . S
O57 C64 1.247 . S
O58 Co56 2.091 . S
O58 C64 1.261 . S
C59 O68 1.247 . S
C59 O69 1.272 . S
O60 Co56 2.004 . S
O60 C65 1.259 . S
Co61 O62 2.061 . S
Co61 O67 2.052 . S
Co61 O69 2.135 . S
O62 Co61 2.061 . S
O62 C65 1.235 . S
C63 O66 1.238 . S
C63 O67 1.241 . S
C64 O57 1.247 . S
C64 O58 1.261 . S
C65 O60 1.259 . S
C65 O62 1.235 . S
O66 Co56 2.021 . S
O66 C63 1.238 . S
O67 Co61 2.052 . S
O67 C63 1.241 . S
O68 Co56 2.137 . S
O68 C59 1.247 . S
O69 Co56 2.244 . S
O69 C59 1.272 . S
O69 Co61 2.135 . S
Co70 O71 2.216 . S
Co70 O72 2.091 . S
Co70 O74 2.004 . S
Co70 O80 2.021 . S
Co70 O82 2.137 . S
Co70 O83 2.244 . S
O71 Co70 2.216 . S
O71 C78 1.247 . S
O72 Co70 2.091 . S
O72 C78 1.261 . S
C73 O82 1.247 . S
C73 O83 1.272 . S
O74 Co70 2.004 . S
O74 C79 1.259 . S
Co75 O76 2.061 . S
Co75 O81 2.052 . S
Co75 O83 2.135 . S
O76 Co75 2.061 . S
O76 C79 1.235 . S
C77 O80 1.238 . S
C77 O81 1.241 . S
C78 O71 1.247 . S
C78 O72 1.261 . S
C79 O74 1.259 . S
C79 O76 1.235 . S
O80 Co70 2.021 . S
O80 C77 1.238 . S
O81 Co75 2.052 . S
O81 C77 1.241 . S
O82 Co70 2.137 . S
O82 C73 1.247 . S
O83 Co70 2.244 . S
O83 C73 1.272 . S
O83 Co75 2.135 . S
Co84 O85 2.216 1_565 S
Co84 O86 2.091 . S
Co84 O88 2.004 . S
Co84 O94 2.021 1_565 S
Co84 O96 2.137 . S
Co84 O97 2.244 1_565 S
O85 Co84 2.216 1_545 S
O85 C92 1.247 1_545 S
O86 Co84 2.091 . S
O86 C92 1.261 . S
C87 O96 1.247 1_545 S
C87 O97 1.271 . S
O88 Co84 2.004 . S
O88 C93 1.259 . S
Co89 O90 2.061 . S
Co89 O95 2.052 . S
Co89 O97 2.135 . S
O90 Co89 2.061 . S
O90 C93 1.235 1_545 S
C91 O94 1.238 . S
C91 O95 1.241 . S
C92 O85 1.247 1_565 S
C92 O86 1.261 . S
C93 O88 1.259 . S
C93 O90 1.235 1_565 S
O94 Co84 2.021 1_545 S
O94 C91 1.238 . S
O95 Co89 2.052 . S
O95 C91 1.241 . S
O96 Co84 2.137 . S
O96 C87 1.247 1_565 S
O97 Co84 2.244 1_545 S
O97 C87 1.271 . S
O97 Co89 2.135 . S
Co98 O99 2.216 . S
Co98 O100 2.091 . S
Co98 O102 2.004 . S
Co98 O108 2.021 . S
Co98 O110 2.137 . S
Co98 O111 2.244 . S
O99 Co98 2.216 . S
O99 C106 1.247 . S
O100 Co98 2.091 . S
O100 C106 1.261 . S
C101 O110 1.247 . S
C101 O111 1.272 . S
O102 Co98 2.004 . S
O102 C107 1.259 . S
Co103 O104 2.061 . S
Co103 O109 2.052 . S
Co103 O111 2.135 . S
O104 Co103 2.061 . S
O104 C107 1.235 . S
C105 O108 1.238 . S
C105 O109 1.241 . S
C106 O99 1.247 . S
C106 O100 1.261 . S
C107 O102 1.259 . S
C107 O104 1.235 . S
O108 Co98 2.021 . S
O108 C105 1.238 . S
O109 Co103 2.052 . S
O109 C105 1.241 . S
O110 Co98 2.137 . S
O110 C101 1.247 . S
O111 Co98 2.244 . S
O111 C101 1.272 . S
O111 Co103 2.135 . S
Co112 O113 2.216 . S
Co112 O114 2.091 . S
Co112 O116 2.004 1_545 S
Co112 O122 2.021 . S
Co112 O124 2.137 1_545 S
Co112 O125 2.244 1_545 S
O113 Co112 2.216 . S
O113 C120 1.247 . S
O114 Co112 2.091 . S
O114 C120 1.261 . S
C115 O124 1.247 . S
C115 O125 1.272 . S
O116 Co112 2.004 1_565 S
O116 C121 1.259 . S
Co117 O118 2.061 . S
Co117 O123 2.052 . S
Co117 O125 2.135 . S
O118 Co117 2.061 . S
O118 C121 1.235 . S
C119 O122 1.238 . S
C119 O123 1.241 1_545 S
C120 O113 1.247 . S
C120 O114 1.261 . S
C121 O116 1.259 . S
C121 O118 1.235 . S
O122 Co112 2.021 . S
O122 C119 1.238 . S
O123 Co117 2.052 . S
O123 C119 1.241 1_565 S
O124 Co112 2.137 1_565 S
O124 C115 1.247 . S
O125 Co112 2.244 1_565 S
O125 C115 1.272 . S
O125 Co117 2.135 . S
Co126 O127 2.216 . S
Co126 O128 2.091 . S
Co126 O130 2.004 . S
Co126 O136 2.021 . S
Co126 O138 2.137 . S
Co126 O139 2.244 . S
O127 Co126 2.216 . S
O127 C134 1.247 . S
O128 Co126 2.091 . S
O128 C134 1.261 . S
C129 O138 1.247 . S
C129 O139 1.272 . S
O130 Co126 2.004 . S
O130 C135 1.259 . S
Co131 O132 2.061 . S
Co131 O137 2.052 . S
Co131 O139 2.135 . S
O132 Co131 2.061 . S
O132 C135 1.235 . S
C133 O136 1.238 . S
C133 O137 1.241 . S
C134 O127 1.247 . S
C134 O128 1.261 . S
C135 O130 1.259 . S
C135 O132 1.235 . S
O136 Co126 2.021 . S
O136 C133 1.238 . S
O137 Co131 2.052 . S
O137 C133 1.241 . S
O138 Co126 2.137 . S
O138 C129 1.247 . S
O139 Co126 2.244 . S
O139 C129 1.272 . S
O139 Co131 2.135 . S
Co140 O141 2.216 . S
Co140 O142 2.091 . S
Co140 O144 2.004 . S
Co140 O150 2.021 1_554 S
Co140 O152 2.137 . S
Co140 O153 2.244 1_554 S
O141 Co140 2.216 . S
O141 C148 1.247 . S
O142 Co140 2.091 . S
O142 C148 1.261 . S
C143 O152 1.247 1_556 S
C143 O153 1.272 . S
O144 Co140 2.004 . S
O144 C149 1.259 1_554 S
Co145 O146 2.061 . S
Co145 O151 2.052 . S
Co145 O153 2.135 . S
O146 Co145 2.061 . S
O146 C149 1.235 . S
C147 O150 1.238 . S
C147 O151 1.241 . S
C148 O141 1.247 . S
C148 O142 1.261 . S
C149 O144 1.259 1_556 S
C149 O146 1.235 . S
O150 Co140 2.021 1_556 S
O150 C147 1.238 . S
O151 Co145 2.052 . S
O151 C147 1.241 . S
O152 Co140 2.137 . S
O152 C143 1.247 1_554 S
O153 Co140 2.244 1_556 S
O153 C143 1.272 . S
O153 Co145 2.135 . S
Co154 O155 2.216 . S
Co154 O156 2.091 . S
Co154 O158 2.004 . S
Co154 O164 2.021 . S
Co154 O166 2.137 . S
Co154 O167 2.244 . S
O155 Co154 2.216 . S
O155 C162 1.247 . S
O156 Co154 2.091 . S
O156 C162 1.261 . S
C157 O166 1.247 . S
C157 O167 1.272 . S
O158 Co154 2.004 . S
O158 C163 1.259 . S
Co159 O160 2.061 . S
Co159 O165 2.052 . S
Co159 O167 2.135 . S
O160 Co159 2.061 . S
O160 C163 1.235 . S
C161 O164 1.238 . S
C161 O165 1.241 . S
C162 O155 1.247 . S
C162 O156 1.261 . S
C163 O158 1.259 . S
C163 O160 1.235 . S
O164 Co154 2.021 . S
O164 C161 1.238 . S
O165 Co159 2.052 . S
O165 C161 1.241 . S
O166 Co154 2.137 . S
O166 C157 1.247 . S
O167 Co154 2.244 . S
O167 C157 1.272 . S
O167 Co159 2.135 . S
Co168 O169 2.216 . S
Co168 O170 2.091 . S
Co168 O172 2.004 . S
Co168 O178 2.021 . S
Co168 O180 2.137 . S
Co168 O181 2.244 . S
O169 Co168 2.216 . S
O169 C176 1.247 . S
O170 Co168 2.091 . S
O170 C176 1.261 . S
C171 O180 1.247 . S
C171 O181 1.272 . S
O172 Co168 2.004 . S
O172 C177 1.259 . S
Co173 O174 2.061 . S
Co173 O179 2.052 . S
Co173 O181 2.135 . S
O174 Co173 2.061 . S
O174 C177 1.235 . S
C175 O178 1.238 . S
C175 O179 1.241 . S
C176 O169 1.247 . S
C176 O170 1.261 . S
C177 O172 1.259 . S
C177 O174 1.235 . S
O178 Co168 2.021 . S
O178 C175 1.238 . S
O179 Co173 2.052 . S
O179 C175 1.241 . S
O180 Co168 2.137 . S
O180 C171 1.247 . S
O181 Co168 2.244 . S
O181 C171 1.272 . S
O181 Co173 2.135 . S
Co182 O183 2.216 . S
Co182 O184 2.091 . S
Co182 O186 2.004 . S
Co182 O192 2.021 . S
Co182 O194 2.137 . S
Co182 O195 2.244 . S
O183 Co182 2.216 . S
O183 C190 1.247 . S
O184 Co182 2.091 . S
O184 C190 1.261 . S
C185 O194 1.247 . S
C185 O195 1.272 . S
O186 Co182 2.004 . S
O186 C191 1.259 . S
Co187 O188 2.061 . S
Co187 O193 2.052 . S
Co187 O195 2.135 . S
O188 Co187 2.061 . S
O188 C191 1.235 . S
C189 O192 1.238 . S
C189 O193 1.241 . S
C190 O183 1.247 . S
C190 O184 1.261 . S
C191 O186 1.259 . S
C191 O188 1.235 . S
O192 Co182 2.021 . S
O192 C189 1.238 . S
O193 Co187 2.052 . S
O193 C189 1.241 . S
O194 Co182 2.137 . S
O194 C185 1.247 . S
O195 Co182 2.244 . S
O195 C185 1.272 . S
O195 Co187 2.135 . S
Co196 O197 2.216 . S
Co196 O198 2.091 . S
Co196 O200 2.004 . S
Co196 O206 2.021 . S
Co196 O208 2.137 . S
Co196 O209 2.244 . S
O197 Co196 2.216 . S
O197 C204 1.247 . S
O198 Co196 2.091 . S
O198 C204 1.261 . S
C199 O208 1.247 . S
C199 O209 1.272 . S
O200 Co196 2.004 . S
O200 C205 1.259 . S
Co201 O202 2.061 . S
Co201 O207 2.052 . S
Co201 O209 2.135 . S
O202 Co201 2.061 . S
O202 C205 1.235 . S
C203 O206 1.238 . S
C203 O207 1.241 . S
C204 O197 1.247 . S
C204 O198 1.261 . S
C205 O200 1.259 . S
C205 O202 1.235 . S
O206 Co196 2.021 . S
O206 C203 1.238 . S
O207 Co201 2.052 . S
O207 C203 1.241 . S
O208 Co196 2.137 . S
O208 C199 1.247 . S
O209 Co196 2.244 . S
O209 C199 1.272 . S
O209 Co201 2.135 . S
Co210 O211 2.216 . S
Co210 O212 2.091 . S
Co210 O214 2.004 1_455 S
Co210 O220 2.021 1_455 S
Co210 O222 2.137 . S
Co210 O223 2.244 . S
O211 Co210 2.216 . S
O211 C218 1.247 . S
O212 Co210 2.091 . S
O212 C218 1.261 . S
C213 O222 1.247 . S
C213 O223 1.272 . S
O214 Co210 2.004 1_655 S
O214 C219 1.259 . S
Co215 O216 2.061 . S
Co215 O221 2.052 . S
Co215 O223 2.135 1_655 S
O216 Co215 2.061 . S
O216 C219 1.235 . S
C217 O220 1.238 . S
C217 O221 1.241 . S
C218 O211 1.247 . S
C218 O212 1.261 . S
C219 O214 1.259 . S
C219 O216 1.235 . S
O220 Co210 2.021 1_655 S
O220 C217 1.238 . S
O221 Co215 2.052 . S
O221 C217 1.241 . S
O222 Co210 2.137 . S
O222 C213 1.247 . S
O223 Co210 2.244 . S
O223 C213 1.272 . S
O223 Co215 2.135 1_455 S
Co224 O225 2.216 . S
Co224 O226 2.091 . S
Co224 O228 2.004 . S
Co224 O234 2.021 . S
Co224 O236 2.137 . S
Co224 O237 2.244 . S
O225 Co224 2.216 . S
O225 C232 1.247 . S
O226 Co224 2.091 . S
O226 C232 1.261 . S
C227 O236 1.247 . S
C227 O237 1.272 . S
O228 Co224 2.004 . S
O228 C233 1.259 . S
Co229 O230 2.061 . S
Co229 O235 2.052 . S
Co229 O237 2.135 . S
O230 Co229 2.061 . S
O230 C233 1.235 . S
C231 O234 1.238 . S
C231 O235 1.241 . S
C232 O225 1.247 . S
C232 O226 1.261 . S
C233 O228 1.259 . S
C233 O230 1.235 . S
O234 Co224 2.021 . S
O234 C231 1.238 . S
O235 Co229 2.052 . S
O235 C231 1.241 . S
O236 Co224 2.137 . S
O236 C227 1.247 . S
O237 Co224 2.244 . S
O237 C227 1.272 . S
O237 Co229 2.135 . S
Co238 O239 2.216 . S
Co238 O240 2.091 . S
Co238 O242 2.004 . S
Co238 O248 2.021 . S
Co238 O250 2.137 . S
Co238 O251 2.244 . S
O239 Co238 2.216 . S
O239 C246 1.247 . S
O240 Co238 2.091 . S
O240 C246 1.261 . S
C241 O250 1.247 . S
C241 O251 1.272 . S
O242 Co238 2.004 . S
O242 C247 1.259 . S
Co243 O244 2.061 . S
Co243 O249 2.052 . S
Co243 O251 2.135 . S
O244 Co243 2.061 . S
O244 C247 1.235 . S
C245 O248 1.238 . S
C245 O249 1.241 . S
C246 O239 1.247 . S
C246 O240 1.261 . S
C247 O242 1.259 . S
C247 O244 1.235 . S
O248 Co238 2.021 . S
O248 C245 1.238 . S
O249 Co243 2.052 . S
O249 C245 1.241 . S
O250 Co238 2.137 . S
O250 C241 1.247 . S
O251 Co238 2.244 . S
O251 C241 1.272 . S
O251 Co243 2.135 . S
Co252 O253 2.216 . S
Co252 O254 2.091 . S
Co252 O256 2.004 . S
Co252 O262 2.021 . S
Co252 O264 2.137 . S
Co252 O265 2.244 . S
O253 Co252 2.216 . S
O253 C260 1.247 . S
O254 Co252 2.091 . S
O254 C260 1.261 . S
C255 O264 1.247 . S
C255 O265 1.272 . S
O256 Co252 2.004 . S
O256 C261 1.259 . S
Co257 O258 2.061 . S
Co257 O263 2.052 . S
Co257 O265 2.135 . S
O258 Co257 2.061 . S
O258 C261 1.235 . S
C259 O262 1.238 . S
C259 O263 1.241 . S
C260 O253 1.247 . S
C260 O254 1.261 . S
C261 O256 1.259 . S
C261 O258 1.235 . S
O262 Co252 2.021 . S
O262 C259 1.238 . S
O263 Co257 2.052 . S
O263 C259 1.241 . S
O264 Co252 2.137 . S
O264 C255 1.247 . S
O265 Co252 2.244 . S
O265 C255 1.272 . S
O265 Co257 2.135 . S
Co266 O267 2.216 . S
Co266 O268 2.091 . S
Co266 O270 2.004 . S
Co266 O276 2.021 . S
Co266 O278 2.137 . S
Co266 O279 2.244 . S
O267 Co266 2.216 . S
O267 C274 1.247 . S
O268 Co266 2.091 . S
O268 C274 1.261 . S
C269 O278 1.247 . S
C269 O279 1.272 . S
O270 Co266 2.004 . S
O270 C275 1.259 . S
Co271 O272 2.061 . S
Co271 O277 2.052 . S
Co271 O279 2.135 . S
O272 Co271 2.061 . S
O272 C275 1.235 . S
C273 O276 1.238 . S
C273 O277 1.241 . S
C274 O267 1.247 . S
C274 O268 1.261 . S
C275 O270 1.259 . S
C275 O272 1.235 . S
O276 Co266 2.021 . S
O276 C273 1.238 . S
O277 Co271 2.052 . S
O277 C273 1.241 . S
O278 Co266 2.137 . S
O278 C269 1.247 . S
O279 Co266 2.244 . S
O279 C269 1.272 . S
O279 Co271 2.135 . S
Co280 O281 2.216 . S
Co280 O282 2.091 . S
Co280 O284 2.004 . S
Co280 O290 2.021 . S
Co280 O292 2.137 . S
Co280 O293 2.244 . S
O281 Co280 2.216 . S
O281 C288 1.247 . S
O282 Co280 2.091 . S
O282 C288 1.261 . S
C283 O292 1.247 . S
C283 O293 1.272 . S
O284 Co280 2.004 . S
O284 C289 1.259 . S
Co285 O286 2.061 . S
Co285 O291 2.052 . S
Co285 O293 2.135 . S
O286 Co285 2.061 . S
O286 C289 1.235 . S
C287 O290 1.238 . S
C287 O291 1.241 . S
C288 O281 1.247 . S
C288 O282 1.261 . S
C289 O284 1.259 . S
C289 O286 1.235 . S
O290 Co280 2.021 . S
O290 C287 1.238 . S
O291 Co285 2.052 . S
O291 C287 1.241 . S
O292 Co280 2.137 . S
O292 C283 1.247 . S
O293 Co280 2.244 . S
O293 C283 1.272 . S
O293 Co285 2.135 . S
Co294 O295 2.216 . S
Co294 O296 2.091 . S
Co294 O298 2.004 1_545 S
Co294 O304 2.021 . S
Co294 O306 2.137 1_545 S
Co294 O307 2.244 1_545 S
O295 Co294 2.216 . S
O295 C302 1.247 . S
O296 Co294 2.091 . S
O296 C302 1.261 . S
C297 O306 1.247 . S
C297 O307 1.272 . S
O298 Co294 2.004 1_565 S
O298 C303 1.259 . S
Co299 O300 2.061 . S
Co299 O305 2.052 . S
Co299 O307 2.135 . S
O300 Co299 2.061 . S
O300 C303 1.235 . S
C301 O304 1.238 . S
C301 O305 1.241 1_545 S
C302 O295 1.247 . S
C302 O296 1.261 . S
C303 O298 1.259 . S
C303 O300 1.235 . S
O304 Co294 2.021 . S
O304 C301 1.238 . S
O305 Co299 2.052 . S
O305 C301 1.241 1_565 S
O306 Co294 2.137 1_565 S
O306 C297 1.247 . S
O307 Co294 2.244 1_565 S
O307 C297 1.272 . S
O307 Co299 2.135 . S
Co308 O309 2.216 . S
Co308 O310 2.091 . S
Co308 O312 2.004 . S
Co308 O318 2.021 . S
Co308 O320 2.137 . S
Co308 O321 2.244 . S
O309 Co308 2.216 . S
O309 C316 1.247 . S
O310 Co308 2.091 . S
O310 C316 1.261 . S
C311 O320 1.247 . S
C311 O321 1.272 . S
O312 Co308 2.004 . S
O312 C317 1.259 . S
Co313 O314 2.061 . S
Co313 O319 2.052 . S
Co313 O321 2.135 . S
O314 Co313 2.061 . S
O314 C317 1.235 . S
C315 O318 1.238 . S
C315 O319 1.241 . S
C316 O309 1.247 . S
C316 O310 1.261 . S
C317 O312 1.259 . S
C317 O314 1.235 . S
O318 Co308 2.021 . S
O318 C315 1.238 . S
O319 Co313 2.052 . S
O319 C315 1.241 . S
O320 Co308 2.137 . S
O320 C311 1.247 . S
O321 Co308 2.244 . S
O321 C311 1.272 . S
O321 Co313 2.135 . S
Co322 O323 2.216 . S
Co322 O324 2.091 . S
Co322 O326 2.004 . S
Co322 O332 2.021 . S
Co322 O334 2.137 . S
Co322 O335 2.244 . S
O323 Co322 2.216 . S
O323 C330 1.247 . S
O324 Co322 2.091 . S
O324 C330 1.261 . S
C325 O334 1.247 . S
C325 O335 1.272 . S
O326 Co322 2.004 . S
O326 C331 1.259 . S
Co327 O328 2.061 . S
Co327 O333 2.052 . S
Co327 O335 2.135 . S
O328 Co327 2.061 . S
O328 C331 1.235 . S
C329 O332 1.238 . S
C329 O333 1.241 . S
C330 O323 1.247 . S
C330 O324 1.261 . S
C331 O326 1.259 . S
C331 O328 1.235 . S
O332 Co322 2.021 . S
O332 C329 1.238 . S
O333 Co327 2.052 . S
O333 C329 1.241 . S
O334 Co322 2.137 . S
O334 C325 1.247 . S
O335 Co322 2.244 . S
O335 C325 1.272 . S
O335 Co327 2.135 . S
Co336 O337 2.216 1_545 S
Co336 O338 2.091 . S
Co336 O340 2.004 . S
Co336 O346 2.021 1_545 S
Co336 O348 2.137 . S
Co336 O349 2.244 1_545 S
O337 Co336 2.216 1_565 S
O337 C344 1.247 1_565 S
O338 Co336 2.091 . S
O338 C344 1.261 . S
C339 O348 1.247 1_565 S
C339 O349 1.271 . S
O340 Co336 2.004 . S
O340 C345 1.259 . S
Co341 O342 2.061 . S
Co341 O347 2.052 . S
Co341 O349 2.135 . S
O342 Co341 2.061 . S
O342 C345 1.235 1_565 S
C343 O346 1.238 . S
C343 O347 1.241 . S
C344 O337 1.247 1_545 S
C344 O338 1.261 . S
C345 O340 1.259 . S
C345 O342 1.235 1_545 S
O346 Co336 2.021 1_565 S
O346 C343 1.238 . S
O347 Co341 2.052 . S
O347 C343 1.241 . S
O348 Co336 2.137 . S
O348 C339 1.247 1_545 S
O349 Co336 2.244 1_565 S
O349 C339 1.271 . S
O349 Co341 2.135 . S
Co350 O351 2.216 . S
Co350 O352 2.091 . S
Co350 O354 2.004 . S
Co350 O360 2.021 . S
Co350 O362 2.137 . S
Co350 O363 2.244 . S
O351 Co350 2.216 . S
O351 C358 1.247 . S
O352 Co350 2.091 . S
O352 C358 1.261 . S
C353 O362 1.247 . S
C353 O363 1.272 . S
O354 Co350 2.004 . S
O354 C359 1.259 . S
Co355 O356 2.061 . S
Co355 O361 2.052 . S
Co355 O363 2.135 . S
O356 Co355 2.061 . S
O356 C359 1.235 . S
C357 O360 1.238 . S
C357 O361 1.241 . S
C358 O351 1.247 . S
C358 O352 1.261 . S
C359 O354 1.259 . S
C359 O356 1.235 . S
O360 Co350 2.021 . S
O360 C357 1.238 . S
O361 Co355 2.052 . S
O361 C357 1.241 . S
O362 Co350 2.137 . S
O362 C353 1.247 . S
O363 Co350 2.244 . S
O363 C353 1.272 . S
O363 Co355 2.135 . S
Co364 O365 2.216 . S
Co364 O366 2.091 . S
Co364 O368 2.004 . S
Co364 O374 2.021 . S
Co364 O376 2.137 . S
Co364 O377 2.244 . S
O365 Co364 2.216 . S
O365 C372 1.247 . S
O366 Co364 2.091 . S
O366 C372 1.261 . S
C367 O376 1.247 . S
C367 O377 1.272 . S
O368 Co364 2.004 . S
O368 C373 1.259 . S
Co369 O370 2.061 . S
Co369 O375 2.052 . S
Co369 O377 2.135 . S
O370 Co369 2.061 . S
O370 C373 1.235 . S
C371 O374 1.238 . S
C371 O375 1.241 . S
C372 O365 1.247 . S
C372 O366 1.261 . S
C373 O368 1.259 . S
C373 O370 1.235 . S
O374 Co364 2.021 . S
O374 C371 1.238 . S
O375 Co369 2.052 . S
O375 C371 1.241 . S
O376 Co364 2.137 . S
O376 C367 1.247 . S
O377 Co364 2.244 . S
O377 C367 1.272 . S
O377 Co369 2.135 . S
Co378 O379 2.216 . S
Co378 O380 2.091 . S
Co378 O382 2.004 . S
Co378 O388 2.021 . S
Co378 O390 2.137 . S
Co378 O391 2.244 . S
O379 Co378 2.216 . S
O379 C386 1.247 . S
O380 Co378 2.091 . S
O380 C386 1.261 . S
C381 O390 1.247 . S
C381 O391 1.272 . S
O382 Co378 2.004 . S
O382 C387 1.259 . S
Co383 O384 2.061 . S
Co383 O389 2.052 . S
Co383 O391 2.135 . S
O384 Co383 2.061 . S
O384 C387 1.235 . S
C385 O388 1.238 . S
C385 O389 1.241 . S
C386 O379 1.247 . S
C386 O380 1.261 . S
C387 O382 1.259 . S
C387 O384 1.235 . S
O388 Co378 2.021 . S
O388 C385 1.238 . S
O389 Co383 2.052 . S
O389 C385 1.241 . S
O390 Co378 2.137 . S
O390 C381 1.247 . S
O391 Co378 2.244 . S
O391 C381 1.272 . S
O391 Co383 2.135 . S
Co392 O393 2.216 . S
Co392 O394 2.091 . S
Co392 O396 2.004 . S
Co392 O402 2.021 1_554 S
Co392 O404 2.137 . S
Co392 O405 2.244 1_554 S
O393 Co392 2.216 . S
O393 C400 1.247 . S
O394 Co392 2.091 . S
O394 C400 1.261 . S
C395 O404 1.247 1_556 S
C395 O405 1.272 . S
O396 Co392 2.004 . S
O396 C401 1.259 1_554 S
Co397 O398 2.061 . S
Co397 O403 2.052 . S
Co397 O405 2.135 . S
O398 Co397 2.061 . S
O398 C401 1.235 . S
C399 O402 1.238 . S
C399 O403 1.241 . S
C400 O393 1.247 . S
C400 O394 1.261 . S
C401 O396 1.259 1_556 S
C401 O398 1.235 . S
O402 Co392 2.021 1_556 S
O402 C399 1.238 . S
O403 Co397 2.052 . S
O403 C399 1.241 . S
O404 Co392 2.137 . S
O404 C395 1.247 1_554 S
O405 Co392 2.244 1_556 S
O405 C395 1.272 . S
O405 Co397 2.135 . S
Co406 O407 2.216 . S
Co406 O408 2.091 . S
Co406 O410 2.004 . S
Co406 O416 2.021 . S
Co406 O418 2.137 . S
Co406 O419 2.244 . S
O407 Co406 2.216 . S
O407 C414 1.247 . S
O408 Co406 2.091 . S
O408 C414 1.261 . S
C409 O418 1.247 . S
C409 O419 1.272 . S
O410 Co406 2.004 . S
O410 C415 1.259 . S
Co411 O412 2.061 . S
Co411 O417 2.052 . S
Co411 O419 2.135 . S
O412 Co411 2.061 . S
O412 C415 1.235 . S
C413 O416 1.238 . S
C413 O417 1.241 . S
C414 O407 1.247 . S
C414 O408 1.261 . S
C415 O410 1.259 . S
C415 O412 1.235 . S
O416 Co406 2.021 . S
O416 C413 1.238 . S
O417 Co411 2.052 . S
O417 C413 1.241 . S
O418 Co406 2.137 . S
O418 C409 1.247 . S
O419 Co406 2.244 . S
O419 C409 1.272 . S
O419 Co411 2.135 . S
Co420 O421 2.216 . S
Co420 O422 2.091 . S
Co420 O424 2.004 1_565 S
Co420 O430 2.021 . S
Co420 O432 2.137 1_565 S
Co420 O433 2.244 1_565 S
O421 Co420 2.216 . S
O421 C428 1.247 . S
O422 Co420 2.091 . S
O422 C428 1.261 . S
C423 O432 1.247 . S
C423 O433 1.272 . S
O424 Co420 2.004 1_545 S
O424 C429 1.259 . S
Co425 O426 2.061 . S
Co425 O431 2.052 . S
Co425 O433 2.135 . S
O426 Co425 2.061 . S
O426 C429 1.235 . S
C427 O430 1.238 . S
C427 O431 1.241 1_565 S
C428 O421 1.247 . S
C428 O422 1.261 . S
C429 O424 1.259 . S
C429 O426 1.235 . S
O430 Co420 2.021 . S
O430 C427 1.238 . S
O431 Co425 2.052 . S
O431 C427 1.241 1_545 S
O432 Co420 2.137 1_545 S
O432 C423 1.247 . S
O433 Co420 2.244 1_545 S
O433 C423 1.272 . S
O433 Co425 2.135 . S
Co434 O435 2.216 . S
Co434 O436 2.091 . S
Co434 O438 2.004 . S
Co434 O444 2.021 . S
Co434 O446 2.137 . S
Co434 O447 2.244 . S
O435 Co434 2.216 . S
O435 C442 1.247 . S
O436 Co434 2.091 . S
O436 C442 1.261 . S
C437 O446 1.247 . S
C437 O447 1.272 . S
O438 Co434 2.004 . S
O438 C443 1.259 . S
Co439 O440 2.061 . S
Co439 O445 2.052 . S
Co439 O447 2.135 . S
O440 Co439 2.061 . S
O440 C443 1.235 . S
C441 O444 1.238 . S
C441 O445 1.241 . S
C442 O435 1.247 . S
C442 O436 1.261 . S
C443 O438 1.259 . S
C443 O440 1.235 . S
O444 Co434 2.021 . S
O444 C441 1.238 . S
O445 Co439 2.052 . S
O445 C441 1.241 . S
O446 Co434 2.137 . S
O446 C437 1.247 . S
O447 Co434 2.244 . S
O447 C437 1.272 . S
O447 Co439 2.135 . S
Co448 O449 2.216 . S
Co448 O450 2.091 . S
Co448 O452 2.004 . S
Co448 O458 2.021 . S
Co448 O460 2.137 . S
Co448 O461 2.244 . S
O449 Co448 2.216 . S
O449 C456 1.247 . S
O450 Co448 2.091 . S
O450 C456 1.261 . S
C451 O460 1.247 . S
C451 O461 1.272 . S
O452 Co448 2.004 . S
O452 C457 1.259 . S
Co453 O454 2.061 . S
Co453 O459 2.052 . S
Co453 O461 2.135 . S
O454 Co453 2.061 . S
O454 C457 1.235 . S
C455 O458 1.238 . S
C455 O459 1.241 . S
C456 O449 1.247 . S
C456 O450 1.261 . S
C457 O452 1.259 . S
C457 O454 1.235 . S
O458 Co448 2.021 . S
O458 C455 1.238 . S
O459 Co453 2.052 . S
O459 C455 1.241 . S
O460 Co448 2.137 . S
O460 C451 1.247 . S
O461 Co448 2.244 . S
O461 C451 1.272 . S
O461 Co453 2.135 . S
Co462 O463 2.216 . S
Co462 O464 2.091 . S
Co462 O466 2.004 1_655 S
Co462 O472 2.021 1_655 S
Co462 O474 2.137 . S
Co462 O475 2.244 . S
O463 Co462 2.216 . S
O463 C470 1.247 . S
O464 Co462 2.091 . S
O464 C470 1.261 . S
C465 O474 1.247 . S
C465 O475 1.272 . S
O466 Co462 2.004 1_455 S
O466 C471 1.259 . S
Co467 O468 2.061 . S
Co467 O473 2.052 . S
Co467 O475 2.135 1_455 S
O468 Co467 2.061 . S
O468 C471 1.235 . S
C469 O472 1.238 . S
C469 O473 1.241 . S
C470 O463 1.247 . S
C470 O464 1.261 . S
C471 O466 1.259 . S
C471 O468 1.235 . S
O472 Co462 2.021 1_455 S
O472 C469 1.238 . S
O473 Co467 2.052 . S
O473 C469 1.241 . S
O474 Co462 2.137 . S
O474 C465 1.247 . S
O475 Co462 2.244 . S
O475 C465 1.272 . S
O475 Co467 2.135 1_655 S
Co476 O477 2.216 . S
Co476 O478 2.091 . S
Co476 O480 2.004 . S
Co476 O486 2.021 . S
Co476 O488 2.137 . S
Co476 O489 2.244 . S
O477 Co476 2.216 . S
O477 C484 1.247 . S
O478 Co476 2.091 . S
O478 C484 1.261 . S
C479 O488 1.247 . S
C479 O489 1.272 . S
O480 Co476 2.004 . S
O480 C485 1.259 . S
Co481 O482 2.061 . S
Co481 O487 2.052 . S
Co481 O489 2.135 . S
O482 Co481 2.061 . S
O482 C485 1.235 . S
C483 O486 1.238 . S
C483 O487 1.241 . S
C484 O477 1.247 . S
C484 O478 1.261 . S
C485 O480 1.259 . S
C485 O482 1.235 . S
O486 Co476 2.021 . S
O486 C483 1.238 . S
O487 Co481 2.052 . S
O487 C483 1.241 . S
O488 Co476 2.137 . S
O488 C479 1.247 . S
O489 Co476 2.244 . S
O489 C479 1.272 . S
O489 Co481 2.135 . S
Co490 O491 2.216 . S
Co490 O492 2.091 . S
Co490 O494 2.004 1_655 S
Co490 O500 2.021 1_655 S
Co490 O502 2.137 . S
Co490 O503 2.244 . S
O491 Co490 2.216 . S
O491 C498 1.247 . S
O492 Co490 2.091 . S
O492 C498 1.261 . S
C493 O502 1.247 . S
C493 O503 1.272 . S
O494 Co490 2.004 1_455 S
O494 C499 1.259 . S
Co495 O496 2.061 . S
Co495 O501 2.052 . S
Co495 O503 2.135 1_455 S
O496 Co495 2.061 . S
O496 C499 1.235 . S
C497 O500 1.238 . S
C497 O501 1.241 . S
C498 O491 1.247 . S
C498 O492 1.261 . S
C499 O494 1.259 . S
C499 O496 1.235 . S
O500 Co490 2.021 1_455 S
O500 C497 1.238 . S
O501 Co495 2.052 . S
O501 C497 1.241 . S
O502 Co490 2.137 . S
O502 C493 1.247 . S
O503 Co490 2.244 . S
O503 C493 1.272 . S
O503 Co495 2.135 1_655 S
Co504 O505 2.216 . S
Co504 O506 2.091 . S
Co504 O508 2.004 . S
Co504 O514 2.021 . S
Co504 O516 2.137 . S
Co504 O517 2.244 . S
O505 Co504 2.216 . S
O505 C512 1.247 . S
O506 Co504 2.091 . S
O506 C512 1.261 . S
C507 O516 1.247 . S
C507 O517 1.272 . S
O508 Co504 2.004 . S
O508 C513 1.259 . S
Co509 O510 2.061 . S
Co509 O515 2.052 . S
Co509 O517 2.135 . S
O510 Co509 2.061 . S
O510 C513 1.235 . S
C511 O514 1.238 . S
C511 O515 1.241 . S
C512 O505 1.247 . S
C512 O506 1.261 . S
C513 O508 1.259 . S
C513 O510 1.235 . S
O514 Co504 2.021 . S
O514 C511 1.238 . S
O515 Co509 2.052 . S
O515 C511 1.241 . S
O516 Co504 2.137 . S
O516 C507 1.247 . S
O517 Co504 2.244 . S
O517 C507 1.272 . S
O517 Co509 2.135 . S
Co518 O519 2.216 . S
Co518 O520 2.091 . S
Co518 O522 2.004 . S
Co518 O528 2.021 . S
Co518 O530 2.137 . S
Co518 O531 2.244 . S
O519 Co518 2.216 . S
O519 C526 1.247 . S
O520 Co518 2.091 . S
O520 C526 1.261 . S
C521 O530 1.247 . S
C521 O531 1.272 . S
O522 Co518 2.004 . S
O522 C527 1.259 . S
Co523 O524 2.061 . S
Co523 O529 2.052 . S
Co523 O531 2.135 . S
O524 Co523 2.061 . S
O524 C527 1.235 . S
C525 O528 1.238 . S
C525 O529 1.241 . S
C526 O519 1.247 . S
C526 O520 1.261 . S
C527 O522 1.259 . S
C527 O524 1.235 . S
O528 Co518 2.021 . S
O528 C525 1.238 . S
O529 Co523 2.052 . S
O529 C525 1.241 . S
O530 Co518 2.137 . S
O530 C521 1.247 . S
O531 Co518 2.244 . S
O531 C521 1.272 . S
O531 Co523 2.135 . S
Co532 O533 2.216 . S
Co532 O534 2.091 . S
Co532 O536 2.004 . S
Co532 O542 2.021 . S
Co532 O544 2.137 . S
Co532 O545 2.244 . S
O533 Co532 2.216 . S
O533 C540 1.247 . S
O534 Co532 2.091 . S
O534 C540 1.261 . S
C535 O544 1.247 . S
C535 O545 1.272 . S
O536 Co532 2.004 . S
O536 C541 1.259 . S
Co537 O538 2.061 . S
Co537 O543 2.052 . S
Co537 O545 2.135 . S
O538 Co537 2.061 . S
O538 C541 1.235 . S
C539 O542 1.238 . S
C539 O543 1.241 . S
C540 O533 1.247 . S
C540 O534 1.261 . S
C541 O536 1.259 . S
C541 O538 1.235 . S
O542 Co532 2.021 . S
O542 C539 1.238 . S
O543 Co537 2.052 . S
O543 C539 1.241 . S
O544 Co532 2.137 . S
O544 C535 1.247 . S
O545 Co532 2.244 . S
O545 C535 1.272 . S
O545 Co537 2.135 . S
Co546 O547 2.216 . S
Co546 O548 2.091 . S
Co546 O550 2.004 . S
Co546 O556 2.021 . S
Co546 O558 2.137 . S
Co546 O559 2.244 . S
O547 Co546 2.216 . S
O547 C554 1.247 . S
O548 Co546 2.091 . S
O548 C554 1.261 . S
C549 O558 1.247 . S
C549 O559 1.272 . S
O550 Co546 2.004 . S
O550 C555 1.259 . S
Co551 O552 2.061 . S
Co551 O557 2.052 . S
Co551 O559 2.135 . S
O552 Co551 2.061 . S
O552 C555 1.235 . S
C553 O556 1.238 . S
C553 O557 1.241 . S
C554 O547 1.247 . S
C554 O548 1.261 . S
C555 O550 1.259 . S
C555 O552 1.235 . S
O556 Co546 2.021 . S
O556 C553 1.238 . S
O557 Co551 2.052 . S
O557 C553 1.241 . S
O558 Co546 2.137 . S
O558 C549 1.247 . S
O559 Co546 2.244 . S
O559 C549 1.272 . S
O559 Co551 2.135 . S
Co560 O561 2.216 1_565 S
Co560 O562 2.091 . S
Co560 O564 2.004 . S
Co560 O570 2.021 1_565 S
Co560 O572 2.137 . S
Co560 O573 2.244 1_565 S
O561 Co560 2.216 1_545 S
O561 C568 1.247 1_545 S
O562 Co560 2.091 . S
O562 C568 1.261 . S
C563 O572 1.247 . S
C563 O573 1.272 1_565 S
O564 Co560 2.004 . S
O564 C569 1.259 . S
Co565 O566 2.037 1_545 S
Co565 O571 2.052 . S
Co565 O573 2.135 . S
O566 Co565 2.037 1_565 S
O566 C569 1.261 . S
C567 O570 1.238 . S
C567 O571 1.241 . S
C568 O561 1.247 1_565 S
C568 O562 1.261 . S
C569 O564 1.259 . S
C569 O566 1.261 . S
O570 Co560 2.021 1_545 S
O570 C567 1.238 . S
O571 Co565 2.052 . S
O571 C567 1.241 . S
O572 Co560 2.137 . S
O572 C563 1.247 . S
O573 Co560 2.244 1_545 S
O573 C563 1.272 1_545 S
O573 Co565 2.135 . S
Co574 O575 2.216 . S
Co574 O576 2.091 . S
Co574 O578 2.004 . S
Co574 O584 2.021 1_556 S
Co574 O586 2.137 . S
Co574 O587 2.244 1_556 S
O575 Co574 2.216 . S
O575 C582 1.247 . S
O576 Co574 2.091 . S
O576 C582 1.261 . S
C577 O586 1.251 . S
C577 O587 1.268 1_556 S
O578 Co574 2.004 . S
O578 C583 1.259 1_556 S
Co579 O580 2.061 . S
Co579 O585 2.052 . S
Co579 O587 2.135 . S
O580 Co579 2.061 . S
O580 C583 1.235 . S
C581 O584 1.238 . S
C581 O585 1.241 . S
C582 O575 1.247 . S
C582 O576 1.261 . S
C583 O578 1.259 1_554 S
C583 O580 1.235 . S
O584 Co574 2.021 1_554 S
O584 C581 1.238 . S
O585 Co579 2.052 . S
O585 C581 1.241 . S
O586 Co574 2.137 . S
O586 C577 1.251 . S
O587 Co574 2.244 1_554 S
O587 C577 1.268 1_554 S
O587 Co579 2.135 . S
Co588 O589 2.216 . S
Co588 O590 2.091 . S
Co588 O592 2.004 . S
Co588 O598 2.021 . S
Co588 O600 2.137 . S
Co588 O601 2.244 . S
O589 Co588 2.216 . S
O589 C596 1.247 . S
O590 Co588 2.091 . S
O590 C596 1.261 . S
C591 O600 1.247 . S
C591 O601 1.272 . S
O592 Co588 2.004 . S
O592 C597 1.259 . S
Co593 O594 2.061 . S
Co593 O599 2.052 . S
Co593 O601 2.135 . S
O594 Co593 2.061 . S
O594 C597 1.235 . S
C595 O598 1.238 . S
C595 O599 1.241 . S
C596 O589 1.247 . S
C596 O590 1.261 . S
C597 O592 1.259 . S
C597 O594 1.235 . S
O598 Co588 2.021 . S
O598 C595 1.238 . S
O599 Co593 2.052 . S
O599 C595 1.241 . S
O600 Co588 2.137 . S
O600 C591 1.247 . S
O601 Co588 2.244 . S
O601 C591 1.272 . S
O601 Co593 2.135 . S
Co602 O603 2.216 . S
Co602 O604 2.091 . S
Co602 O606 2.004 1_455 S
Co602 O612 2.021 1_455 S
Co602 O614 2.137 . S
Co602 O615 2.244 . S
O603 Co602 2.216 . S
O603 C610 1.247 . S
O604 Co602 2.091 . S
O604 C610 1.261 . S
C605 O614 1.247 . S
C605 O615 1.272 . S
O606 Co602 2.004 1_655 S
O606 C611 1.259 . S
Co607 O608 2.061 . S
Co607 O613 2.052 . S
Co607 O615 2.135 1_655 S
O608 Co607 2.061 . S
O608 C611 1.235 . S
C609 O612 1.238 . S
C609 O613 1.241 . S
C610 O603 1.247 . S
C610 O604 1.261 . S
C611 O606 1.259 . S
C611 O608 1.235 . S
O612 Co602 2.021 1_655 S
O612 C609 1.238 . S
O613 Co607 2.052 . S
O613 C609 1.241 . S
O614 Co602 2.137 . S
O614 C605 1.247 . S
O615 Co602 2.244 . S
O615 C605 1.272 . S
O615 Co607 2.135 1_455 S
Co616 O617 2.216 1_545 S
Co616 O618 2.091 . S
Co616 O620 2.004 . S
Co616 O626 2.021 1_545 S
Co616 O628 2.137 . S
Co616 O629 2.244 1_545 S
O617 Co616 2.216 1_565 S
O617 C624 1.247 1_565 S
O618 Co616 2.091 . S
O618 C624 1.261 . S
C619 O628 1.247 . S
C619 O629 1.272 1_545 S
O620 Co616 2.004 . S
O620 C625 1.259 . S
Co621 O622 2.037 1_565 S
Co621 O627 2.052 . S
Co621 O629 2.135 . S
O622 Co621 2.037 1_545 S
O622 C625 1.261 . S
C623 O626 1.238 . S
C623 O627 1.241 . S
C624 O617 1.247 1_545 S
C624 O618 1.261 . S
C625 O620 1.259 . S
C625 O622 1.261 . S
O626 Co616 2.021 1_565 S
O626 C623 1.238 . S
O627 Co621 2.052 . S
O627 C623 1.241 . S
O628 Co616 2.137 . S
O628 C619 1.247 . S
O629 Co616 2.244 1_565 S
O629 C619 1.272 1_565 S
O629 Co621 2.135 . S
Co630 O631 2.216 . S
Co630 O632 2.091 . S
Co630 O634 2.004 . S
Co630 O640 2.021 1_556 S
Co630 O642 2.137 . S
Co630 O643 2.244 1_556 S
O631 Co630 2.216 . S
O631 C638 1.247 . S
O632 Co630 2.091 . S
O632 C638 1.261 . S
C633 O642 1.251 . S
C633 O643 1.268 1_556 S
O634 Co630 2.004 . S
O634 C639 1.259 1_556 S
Co635 O636 2.061 . S
Co635 O641 2.052 . S
Co635 O643 2.135 . S
O636 Co635 2.061 . S
O636 C639 1.235 . S
C637 O640 1.238 . S
C637 O641 1.241 . S
C638 O631 1.247 . S
C638 O632 1.261 . S
C639 O634 1.259 1_554 S
C639 O636 1.235 . S
O640 Co630 2.021 1_554 S
O640 C637 1.238 . S
O641 Co635 2.052 . S
O641 C637 1.241 . S
O642 Co630 2.137 . S
O642 C633 1.251 . S
O643 Co630 2.244 1_554 S
O643 C633 1.268 1_554 S
O643 Co635 2.135 . S
Co644 O645 2.216 . S
Co644 O646 2.091 . S
Co644 O648 2.004 . S
Co644 O654 2.021 . S
Co644 O656 2.137 . S
Co644 O657 2.244 . S
O645 Co644 2.216 . S
O645 C652 1.247 . S
O646 Co644 2.091 . S
O646 C652 1.261 . S
C647 O656 1.247 . S
C647 O657 1.272 . S
O648 Co644 2.004 . S
O648 C653 1.259 . S
Co649 O650 2.061 . S
Co649 O655 2.052 . S
Co649 O657 2.135 . S
O650 Co649 2.061 . S
O650 C653 1.235 . S
C651 O654 1.238 . S
C651 O655 1.241 . S
C652 O645 1.247 . S
C652 O646 1.261 . S
C653 O648 1.259 . S
C653 O650 1.235 . S
O654 Co644 2.021 . S
O654 C651 1.238 . S
O655 Co649 2.052 . S
O655 C651 1.241 . S
O656 Co644 2.137 . S
O656 C647 1.247 . S
O657 Co644 2.244 . S
O657 C647 1.272 . S
O657 Co649 2.135 . S
Co658 O659 2.216 . S
Co658 O660 2.091 . S
Co658 O662 2.004 . S
Co658 O668 2.021 . S
Co658 O670 2.137 . S
Co658 O671 2.244 . S
O659 Co658 2.216 . S
O659 C666 1.247 . S
O660 Co658 2.091 . S
O660 C666 1.261 . S
C661 O670 1.247 . S
C661 O671 1.272 . S
O662 Co658 2.004 . S
O662 C667 1.259 . S
Co663 O664 2.061 . S
Co663 O669 2.052 . S
Co663 O671 2.135 . S
O664 Co663 2.061 . S
O664 C667 1.235 . S
C665 O668 1.238 . S
C665 O669 1.241 . S
C666 O659 1.247 . S
C666 O660 1.261 . S
C667 O662 1.259 . S
C667 O664 1.235 . S
O668 Co658 2.021 . S
O668 C665 1.238 . S
O669 Co663 2.052 . S
O669 C665 1.241 . S
O670 Co658 2.137 . S
O670 C661 1.247 . S
O671 Co658 2.244 . S
O671 C661 1.272 . S
O671 Co663 2.135 . S
H672 C678 0.930 . S
H673 C682 0.930 . S
H674 C687 0.929 . S
H675 C685 0.929 . S
H676 C680 0.929 . S
H677 C686 0.929 . S
C678 H672 0.930 . S
C678 C679 1.367 . S
C678 C686 1.378 . S
C679 C678 1.367 . S
C679 C687 1.433 . S
C680 H676 0.929 . S
C680 C682 1.378 . S
C680 C684 1.350 . S
C681 C684 1.463 . S
C681 C686 1.350 . S
C681 N689 1.427 . S
C682 H673 0.930 . S
C682 C680 1.378 . S
C682 C683 1.367 . S
C683 C682 1.367 . S
C683 C685 1.433 . S
C684 C680 1.350 . S
C684 C681 1.463 . S
C684 N688 1.427 . S
C685 H675 0.929 . S
C685 C683 1.433 . S
C685 N688 1.384 . S
C686 H677 0.929 . S
C686 C678 1.378 . S
C686 C681 1.350 . S
C687 H674 0.929 . S
C687 C679 1.433 . S
C687 N689 1.384 . S
N688 C684 1.427 . S
N688 C685 1.384 . S
N689 C681 1.427 . S
N689 C687 1.384 . S
H690 C696 0.930 . S
H691 C700 0.930 . S
H692 C705 0.929 . S
H693 C703 0.929 . S
H694 C698 0.929 . S
H695 C704 0.929 . S
C696 H690 0.930 . S
C696 C697 1.367 . S
C696 C704 1.378 . S
C697 C696 1.367 . S
C697 C705 1.433 . S
C698 H694 0.929 . S
C698 C700 1.378 . S
C698 C702 1.350 . S
C699 C702 1.463 . S
C699 C704 1.350 . S
C699 N707 1.427 . S
C700 H691 0.930 . S
C700 C698 1.378 . S
C700 C701 1.367 . S
C701 C700 1.367 . S
C701 C703 1.433 . S
C702 C698 1.350 . S
C702 C699 1.463 . S
C702 N706 1.427 . S
C703 H693 0.929 . S
C703 C701 1.433 . S
C703 N706 1.384 . S
C704 H695 0.929 . S
C704 C696 1.378 . S
C704 C699 1.350 . S
C705 H692 0.929 . S
C705 C697 1.433 . S
C705 N707 1.384 . S
N706 C702 1.427 . S
N706 C703 1.384 . S
N707 C699 1.427 . S
N707 C705 1.384 . S
H708 C714 0.930 . S
H709 C718 0.930 . S
H710 C723 0.929 . S
H711 C721 0.929 . S
H712 C716 0.929 . S
H713 C722 0.929 . S
C714 H708 0.930 . S
C714 C715 1.367 . S
C714 C722 1.378 . S
C715 C714 1.367 . S
C715 C723 1.433 . S
C716 H712 0.929 . S
C716 C718 1.378 . S
C716 C720 1.350 . S
C717 C720 1.463 . S
C717 C722 1.350 . S
C717 N725 1.427 . S
C718 H709 0.930 . S
C718 C716 1.378 . S
C718 C719 1.367 . S
C719 C718 1.367 . S
C719 C721 1.433 . S
C720 C716 1.350 . S
C720 C717 1.463 . S
C720 N724 1.427 . S
C721 H711 0.929 . S
C721 C719 1.433 . S
C721 N724 1.384 . S
C722 H713 0.929 . S
C722 C714 1.378 . S
C722 C717 1.350 . S
C723 H710 0.929 . S
C723 C715 1.433 . S
C723 N725 1.384 . S
N724 C720 1.427 . S
N724 C721 1.384 . S
N725 C717 1.427 . S
N725 C723 1.384 . S
H726 C732 0.930 1_545 S
H727 C736 0.930 . S
H728 C741 0.929 . S
H729 C739 0.929 1_545 S
H730 C734 0.929 . S
H731 C740 0.929 1_545 S
C732 H726 0.930 1_565 S
C732 C733 1.367 . S
C732 C740 1.378 . S
C733 C732 1.367 . S
C733 C741 1.433 . S
C734 H730 0.929 . S
C734 C736 1.378 . S
C734 C738 1.350 . S
C735 C738 1.463 . S
C735 C740 1.350 . S
C735 N743 1.427 . S
C736 H727 0.930 . S
C736 C734 1.378 . S
C736 C737 1.367 . S
C737 C736 1.367 . S
C737 C739 1.433 . S
C738 C734 1.350 . S
C738 C735 1.463 . S
C738 N742 1.427 . S
C739 H729 0.929 1_565 S
C739 C737 1.433 . S
C739 N742 1.384 . S
C740 H731 0.929 1_565 S
C740 C732 1.378 . S
C740 C735 1.350 . S
C741 H728 0.929 . S
C741 C733 1.433 . S
C741 N743 1.384 . S
N742 C738 1.427 . S
N742 C739 1.384 . S
N743 C735 1.427 . S
N743 C741 1.384 . S
H744 C750 0.930 . S
H745 C754 0.930 . S
H746 C759 0.929 . S
H747 C757 0.929 . S
H748 C752 0.929 . S
H749 C758 0.929 . S
C750 H744 0.930 . S
C750 C751 1.367 . S
C750 C758 1.378 . S
C751 C750 1.367 . S
C751 C759 1.433 . S
C752 H748 0.929 . S
C752 C754 1.378 . S
C752 C756 1.350 . S
C753 C756 1.463 . S
C753 C758 1.350 . S
C753 N761 1.427 . S
C754 H745 0.930 . S
C754 C752 1.378 . S
C754 C755 1.367 . S
C755 C754 1.367 . S
C755 C757 1.433 . S
C756 C752 1.350 . S
C756 C753 1.463 . S
C756 N760 1.427 . S
C757 H747 0.929 . S
C757 C755 1.433 . S
C757 N760 1.384 . S
C758 H749 0.929 . S
C758 C750 1.378 . S
C758 C753 1.350 . S
C759 H746 0.929 . S
C759 C751 1.433 . S
C759 N761 1.384 . S
N760 C756 1.427 . S
N760 C757 1.384 . S
N761 C753 1.427 . S
N761 C759 1.384 . S
H762 C768 0.930 . S
H763 C772 0.930 . S
H764 C777 0.929 . S
H765 C775 0.929 . S
H766 C770 0.929 . S
H767 C776 0.929 . S
C768 H762 0.930 . S
C768 C769 1.367 . S
C768 C776 1.378 . S
C769 C768 1.367 . S
C769 C777 1.433 . S
C770 H766 0.929 . S
C770 C772 1.378 . S
C770 C774 1.350 . S
C771 C774 1.463 . S
C771 C776 1.350 . S
C771 N779 1.427 . S
C772 H763 0.930 . S
C772 C770 1.378 . S
C772 C773 1.367 . S
C773 C772 1.367 . S
C773 C775 1.433 . S
C774 C770 1.350 . S
C774 C771 1.463 . S
C774 N778 1.427 . S
C775 H765 0.929 . S
C775 C773 1.433 . S
C775 N778 1.384 . S
C776 H767 0.929 . S
C776 C768 1.378 . S
C776 C771 1.350 . S
C777 H764 0.929 . S
C777 C769 1.433 . S
C777 N779 1.384 . S
N778 C774 1.427 . S
N778 C775 1.384 . S
N779 C771 1.427 . S
N779 C777 1.384 . S
H780 C786 0.930 . S
H781 C790 0.930 . S
H782 C795 0.929 . S
H783 C793 0.929 . S
H784 C788 0.929 . S
H785 C794 0.929 . S
C786 H780 0.930 . S
C786 C787 1.367 . S
C786 C794 1.378 . S
C787 C786 1.367 . S
C787 C795 1.433 . S
C788 H784 0.929 . S
C788 C790 1.378 . S
C788 C792 1.350 . S
C789 C792 1.463 . S
C789 C794 1.350 . S
C789 N797 1.427 . S
C790 H781 0.930 . S
C790 C788 1.378 . S
C790 C791 1.367 . S
C791 C790 1.367 . S
C791 C793 1.433 . S
C792 C788 1.350 . S
C792 C789 1.463 . S
C792 N796 1.427 . S
C793 H783 0.929 . S
C793 C791 1.433 . S
C793 N796 1.384 . S
C794 H785 0.929 . S
C794 C786 1.378 . S
C794 C789 1.350 . S
C795 H782 0.929 . S
C795 C787 1.433 . S
C795 N797 1.384 . S
N796 C792 1.427 . S
N796 C793 1.384 . S
N797 C789 1.427 . S
N797 C795 1.384 . S
H798 C804 0.930 . S
H799 C808 0.930 . S
H800 C813 0.929 . S
H801 C811 0.929 . S
H802 C806 0.929 . S
H803 C812 0.929 . S
C804 H798 0.930 . S
C804 C805 1.367 . S
C804 C812 1.378 . S
C805 C804 1.367 . S
C805 C813 1.433 . S
C806 H802 0.929 . S
C806 C808 1.378 . S
C806 C810 1.350 . S
C807 C810 1.463 . S
C807 C812 1.350 . S
C807 N815 1.427 . S
C808 H799 0.930 . S
C808 C806 1.378 . S
C808 C809 1.367 . S
C809 C808 1.367 . S
C809 C811 1.433 . S
C810 C806 1.350 . S
C810 C807 1.463 . S
C810 N814 1.427 . S
C811 H801 0.929 . S
C811 C809 1.433 . S
C811 N814 1.384 . S
C812 H803 0.929 . S
C812 C804 1.378 . S
C812 C807 1.350 . S
C813 H800 0.929 . S
C813 C805 1.433 . S
C813 N815 1.384 . S
N814 C810 1.427 . S
N814 C811 1.384 . S
N815 C807 1.427 . S
N815 C813 1.384 . S
H816 C822 0.930 . S
H817 C826 0.930 . S
H818 C831 0.929 . S
H819 C829 0.929 . S
H820 C824 0.929 . S
H821 C830 0.929 . S
C822 H816 0.930 . S
C822 C823 1.367 . S
C822 C830 1.378 . S
C823 C822 1.367 . S
C823 C831 1.433 . S
C824 H820 0.929 . S
C824 C826 1.378 . S
C824 C828 1.350 . S
C825 C828 1.463 . S
C825 C830 1.350 . S
C825 N833 1.427 . S
C826 H817 0.930 . S
C826 C824 1.378 . S
C826 C827 1.367 . S
C827 C826 1.367 . S
C827 C829 1.433 . S
C828 C824 1.350 . S
C828 C825 1.463 . S
C828 N832 1.427 . S
C829 H819 0.929 . S
C829 C827 1.433 . S
C829 N832 1.384 . S
C830 H821 0.929 . S
C830 C822 1.378 . S
C830 C825 1.350 . S
C831 H818 0.929 . S
C831 C823 1.433 . S
C831 N833 1.384 . S
N832 C828 1.427 . S
N832 C829 1.384 . S
N833 C825 1.427 . S
N833 C831 1.384 . S
H834 C840 0.930 . S
H835 C844 0.930 . S
H836 C849 0.929 . S
H837 C847 0.929 . S
H838 C842 0.929 . S
H839 C848 0.929 . S
C840 H834 0.930 . S
C840 C841 1.367 . S
C840 C848 1.378 . S
C841 C840 1.367 . S
C841 C849 1.433 . S
C842 H838 0.929 . S
C842 C844 1.378 . S
C842 C846 1.350 . S
C843 C846 1.463 . S
C843 C848 1.350 . S
C843 N851 1.427 . S
C844 H835 0.930 . S
C844 C842 1.378 . S
C844 C845 1.367 . S
C845 C844 1.367 . S
C845 C847 1.433 . S
C846 C842 1.350 . S
C846 C843 1.463 . S
C846 N850 1.427 . S
C847 H837 0.929 . S
C847 C845 1.433 . S
C847 N850 1.384 . S
C848 H839 0.929 . S
C848 C840 1.378 . S
C848 C843 1.350 . S
C849 H836 0.929 . S
C849 C841 1.433 . S
C849 N851 1.384 . S
N850 C846 1.427 . S
N850 C847 1.384 . S
N851 C843 1.427 . S
N851 C849 1.384 . S
H852 C858 0.930 . S
H853 C862 0.930 . S
H854 C867 0.929 . S
H855 C865 0.929 . S
H856 C860 0.929 . S
H857 C866 0.929 . S
C858 H852 0.930 . S
C858 C859 1.367 . S
C858 C866 1.378 . S
C859 C858 1.367 . S
C859 C867 1.433 . S
C860 H856 0.929 . S
C860 C862 1.378 . S
C860 C864 1.350 . S
C861 C864 1.463 . S
C861 C866 1.350 . S
C861 N869 1.427 . S
C862 H853 0.930 . S
C862 C860 1.378 . S
C862 C863 1.367 . S
C863 C862 1.367 . S
C863 C865 1.433 . S
C864 C860 1.350 . S
C864 C861 1.463 . S
C864 N868 1.427 . S
C865 H855 0.929 . S
C865 C863 1.433 . S
C865 N868 1.384 . S
C866 H857 0.929 . S
C866 C858 1.378 . S
C866 C861 1.350 . S
C867 H854 0.929 . S
C867 C859 1.433 . S
C867 N869 1.384 . S
N868 C864 1.427 . S
N868 C865 1.384 . S
N869 C861 1.427 . S
N869 C867 1.384 . S
H870 C876 0.930 . S
H871 C880 0.930 . S
H872 C885 0.929 . S
H873 C883 0.929 . S
H874 C878 0.929 . S
H875 C884 0.929 . S
C876 H870 0.930 . S
C876 C877 1.367 . S
C876 C884 1.378 . S
C877 C876 1.367 . S
C877 C885 1.433 . S
C878 H874 0.929 . S
C878 C880 1.378 . S
C878 C882 1.350 . S
C879 C882 1.463 . S
C879 C884 1.350 . S
C879 N887 1.427 . S
C880 H871 0.930 . S
C880 C878 1.378 . S
C880 C881 1.367 . S
C881 C880 1.367 . S
C881 C883 1.433 . S
C882 C878 1.350 . S
C882 C879 1.463 . S
C882 N886 1.427 . S
C883 H873 0.929 . S
C883 C881 1.433 . S
C883 N886 1.384 . S
C884 H875 0.929 . S
C884 C876 1.378 . S
C884 C879 1.350 . S
C885 H872 0.929 . S
C885 C877 1.433 . S
C885 N887 1.384 . S
N886 C882 1.427 . S
N886 C883 1.384 . S
N887 C879 1.427 . S
N887 C885 1.384 . S
H888 C894 0.930 . S
H889 C898 0.930 . S
H890 C903 0.929 . S
H891 C901 0.929 . S
H892 C896 0.929 . S
H893 C902 0.929 . S
C894 H888 0.930 . S
C894 C895 1.367 . S
C894 C902 1.378 . S
C895 C894 1.367 . S
C895 C903 1.433 . S
C896 H892 0.929 . S
C896 C898 1.378 . S
C896 C900 1.350 . S
C897 C900 1.463 . S
C897 C902 1.350 . S
C897 N905 1.427 . S
C898 H889 0.930 . S
C898 C896 1.378 . S
C898 C899 1.367 . S
C899 C898 1.367 . S
C899 C901 1.433 . S
C900 C896 1.350 . S
C900 C897 1.463 . S
C900 N904 1.427 . S
C901 H891 0.929 . S
C901 C899 1.433 . S
C901 N904 1.384 . S
C902 H893 0.929 . S
C902 C894 1.378 . S
C902 C897 1.350 . S
C903 H890 0.929 . S
C903 C895 1.433 . S
C903 N905 1.384 . S
N904 C900 1.427 . S
N904 C901 1.384 . S
N905 C897 1.427 . S
N905 C903 1.384 . S
H906 C912 0.930 . S
H907 C916 0.930 . S
H908 C921 0.929 . S
H909 C919 0.929 . S
H910 C914 0.929 . S
H911 C920 0.929 . S
C912 H906 0.930 . S
C912 C913 1.367 . S
C912 C920 1.378 . S
C913 C912 1.367 . S
C913 C921 1.433 . S
C914 H910 0.929 . S
C914 C916 1.378 . S
C914 C918 1.350 . S
C915 C918 1.463 . S
C915 C920 1.350 . S
C915 N923 1.427 . S
C916 H907 0.930 . S
C916 C914 1.378 . S
C916 C917 1.367 . S
C917 C916 1.367 . S
C917 C919 1.433 . S
C918 C914 1.350 . S
C918 C915 1.463 . S
C918 N922 1.427 . S
C919 H909 0.929 . S
C919 C917 1.433 . S
C919 N922 1.384 . S
C920 H911 0.929 . S
C920 C912 1.378 . S
C920 C915 1.350 . S
C921 H908 0.929 . S
C921 C913 1.433 . S
C921 N923 1.384 . S
N922 C918 1.427 . S
N922 C919 1.384 . S
N923 C915 1.427 . S
N923 C921 1.384 . S
H924 C930 0.930 . S
H925 C934 0.930 . S
H926 C939 0.929 . S
H927 C937 0.929 . S
H928 C932 0.929 . S
H929 C938 0.929 . S
C930 H924 0.930 . S
C930 C931 1.367 . S
C930 C938 1.378 . S
C931 C930 1.367 . S
C931 C939 1.433 . S
C932 H928 0.929 . S
C932 C934 1.378 . S
C932 C936 1.350 . S
C933 C936 1.463 . S
C933 C938 1.350 . S
C933 N941 1.427 . S
C934 H925 0.930 . S
C934 C932 1.378 . S
C934 C935 1.367 . S
C935 C934 1.367 . S
C935 C937 1.433 . S
C936 C932 1.350 . S
C936 C933 1.463 . S
C936 N940 1.427 . S
C937 H927 0.929 . S
C937 C935 1.433 . S
C937 N940 1.384 . S
C938 H929 0.929 . S
C938 C930 1.378 . S
C938 C933 1.350 . S
C939 H926 0.929 . S
C939 C931 1.433 . S
C939 N941 1.384 . S
N940 C936 1.427 . S
N940 C937 1.384 . S
N941 C933 1.427 . S
N941 C939 1.384 . S
H942 C948 0.930 . S
H943 C952 0.930 . S
H944 C957 0.929 . S
H945 C955 0.929 . S
H946 C950 0.929 . S
H947 C956 0.929 . S
C948 H942 0.930 . S
C948 C949 1.367 . S
C948 C956 1.378 . S
C949 C948 1.367 . S
C949 C957 1.433 . S
C950 H946 0.929 . S
C950 C952 1.378 . S
C950 C954 1.350 . S
C951 C954 1.463 . S
C951 C956 1.350 . S
C951 N959 1.427 . S
C952 H943 0.930 . S
C952 C950 1.378 . S
C952 C953 1.367 . S
C953 C952 1.367 . S
C953 C955 1.433 . S
C954 C950 1.350 . S
C954 C951 1.463 . S
C954 N958 1.427 . S
C955 H945 0.929 . S
C955 C953 1.433 . S
C955 N958 1.384 . S
C956 H947 0.929 . S
C956 C948 1.378 . S
C956 C951 1.350 . S
C957 H944 0.929 . S
C957 C949 1.433 . S
C957 N959 1.384 . S
N958 C954 1.427 . S
N958 C955 1.384 . S
N959 C951 1.427 . S
N959 C957 1.384 . S
H960 C966 0.930 . S
H961 C970 0.930 . S
H962 C975 0.929 . S
H963 C973 0.929 . S
H964 C968 0.929 . S
H965 C974 0.929 . S
C966 H960 0.930 . S
C966 C967 1.367 . S
C966 C974 1.378 . S
C967 C966 1.367 . S
C967 C975 1.433 . S
C968 H964 0.929 . S
C968 C970 1.378 . S
C968 C972 1.350 . S
C969 C972 1.463 . S
C969 C974 1.350 . S
C969 N977 1.427 . S
C970 H961 0.930 . S
C970 C968 1.378 . S
C970 C971 1.367 . S
C971 C970 1.367 . S
C971 C973 1.433 . S
C972 C968 1.350 . S
C972 C969 1.463 . S
C972 N976 1.427 . S
C973 H963 0.929 . S
C973 C971 1.433 . S
C973 N976 1.384 . S
C974 H965 0.929 . S
C974 C966 1.378 . S
C974 C969 1.350 . S
C975 H962 0.929 . S
C975 C967 1.433 . S
C975 N977 1.384 . S
N976 C972 1.427 . S
N976 C973 1.384 . S
N977 C969 1.427 . S
N977 C975 1.384 . S
H978 C984 0.930 . S
H979 C988 0.930 . S
H980 C993 0.929 . S
H981 C991 0.929 . S
H982 C986 0.929 . S
H983 C992 0.929 . S
C984 H978 0.930 . S
C984 C985 1.367 . S
C984 C992 1.378 . S
C985 C984 1.367 . S
C985 C993 1.433 . S
C986 H982 0.929 . S
C986 C988 1.378 . S
C986 C990 1.350 . S
C987 C990 1.463 . S
C987 C992 1.350 . S
C987 N995 1.427 . S
C988 H979 0.930 . S
C988 C986 1.378 . S
C988 C989 1.367 . S
C989 C988 1.367 . S
C989 C991 1.433 . S
C990 C986 1.350 . S
C990 C987 1.463 . S
C990 N994 1.427 . S
C991 H981 0.929 . S
C991 C989 1.433 . S
C991 N994 1.384 . S
C992 H983 0.929 . S
C992 C984 1.378 . S
C992 C987 1.350 . S
C993 H980 0.929 . S
C993 C985 1.433 . S
C993 N995 1.384 . S
N994 C990 1.427 . S
N994 C991 1.384 . S
N995 C987 1.427 . S
N995 C993 1.384 . S
H996 C1002 0.930 . S
H997 C1006 0.930 . S
H998 C1011 0.929 . S
H999 C1009 0.929 1_455 S
H1000 C1004 0.929 . S
H1001 C1010 0.929 . S
C1002 H996 0.930 . S
C1002 C1003 1.367 . S
C1002 C1010 1.378 . S
C1003 C1002 1.367 . S
C1003 C1011 1.433 . S
C1004 H1000 0.929 . S
C1004 C1006 1.378 . S
C1004 C1008 1.350 . S
C1005 C1008 1.463 . S
C1005 C1010 1.350 . S
C1005 N1013 1.427 . S
C1006 H997 0.930 . S
C1006 C1004 1.378 . S
C1006 C1007 1.367 . S
C1007 C1006 1.367 . S
C1007 C1009 1.433 . S
C1008 C1004 1.350 . S
C1008 C1005 1.463 . S
C1008 N1012 1.427 . S
C1009 H999 0.929 1_655 S
C1009 C1007 1.433 . S
C1009 N1012 1.384 . S
C1010 H1001 0.929 . S
C1010 C1002 1.378 . S
C1010 C1005 1.350 . S
C1011 H998 0.929 . S
C1011 C1003 1.433 . S
C1011 N1013 1.384 . S
N1012 C1008 1.427 . S
N1012 C1009 1.384 . S
N1013 C1005 1.427 . S
N1013 C1011 1.384 . S
H1014 C1020 0.930 . S
H1015 C1024 0.930 . S
H1016 C1029 0.929 . S
H1017 C1027 0.929 . S
H1018 C1022 0.929 . S
H1019 C1028 0.929 . S
C1020 H1014 0.930 . S
C1020 C1021 1.367 . S
C1020 C1028 1.378 . S
C1021 C1020 1.367 . S
C1021 C1029 1.433 . S
C1022 H1018 0.929 . S
C1022 C1024 1.378 . S
C1022 C1026 1.350 . S
C1023 C1026 1.463 . S
C1023 C1028 1.350 . S
C1023 N1031 1.427 . S
C1024 H1015 0.930 . S
C1024 C1022 1.378 . S
C1024 C1025 1.367 . S
C1025 C1024 1.367 . S
C1025 C1027 1.433 . S
C1026 C1022 1.350 . S
C1026 C1023 1.463 . S
C1026 N1030 1.427 . S
C1027 H1017 0.929 . S
C1027 C1025 1.433 . S
C1027 N1030 1.384 . S
C1028 H1019 0.929 . S
C1028 C1020 1.378 . S
C1028 C1023 1.350 . S
C1029 H1016 0.929 . S
C1029 C1021 1.433 . S
C1029 N1031 1.384 . S
N1030 C1026 1.427 . S
N1030 C1027 1.384 . S
N1031 C1023 1.427 . S
N1031 C1029 1.384 . S
H1032 C1038 0.930 . S
H1033 C1042 0.930 . S
H1034 C1047 0.929 . S
H1035 C1045 0.929 . S
H1036 C1040 0.929 . S
H1037 C1046 0.929 . S
C1038 H1032 0.930 . S
C1038 C1039 1.367 . S
C1038 C1046 1.378 . S
C1039 C1038 1.367 . S
C1039 C1047 1.433 . S
C1040 H1036 0.929 . S
C1040 C1042 1.378 . S
C1040 C1044 1.350 . S
C1041 C1044 1.463 . S
C1041 C1046 1.350 . S
C1041 N1049 1.427 . S
C1042 H1033 0.930 . S
C1042 C1040 1.378 . S
C1042 C1043 1.367 . S
C1043 C1042 1.367 . S
C1043 C1045 1.433 . S
C1044 C1040 1.350 . S
C1044 C1041 1.463 . S
C1044 N1048 1.427 . S
C1045 H1035 0.929 . S
C1045 C1043 1.433 . S
C1045 N1048 1.384 . S
C1046 H1037 0.929 . S
C1046 C1038 1.378 . S
C1046 C1041 1.350 . S
C1047 H1034 0.929 . S
C1047 C1039 1.433 . S
C1047 N1049 1.384 . S
N1048 C1044 1.427 . S
N1048 C1045 1.384 . S
N1049 C1041 1.427 . S
N1049 C1047 1.384 . S
H1050 C1056 0.930 . S
H1051 C1060 0.930 . S
H1052 C1065 0.929 . S
H1053 C1063 0.929 . S
H1054 C1058 0.929 . S
H1055 C1064 0.929 . S
C1056 H1050 0.930 . S
C1056 C1057 1.367 . S
C1056 C1064 1.378 . S
C1057 C1056 1.367 . S
C1057 C1065 1.433 . S
C1058 H1054 0.929 . S
C1058 C1060 1.378 . S
C1058 C1062 1.350 . S
C1059 C1062 1.463 . S
C1059 C1064 1.350 . S
C1059 N1067 1.427 . S
C1060 H1051 0.930 . S
C1060 C1058 1.378 . S
C1060 C1061 1.367 . S
C1061 C1060 1.367 . S
C1061 C1063 1.433 . S
C1062 C1058 1.350 . S
C1062 C1059 1.463 . S
C1062 N1066 1.427 . S
C1063 H1053 0.929 . S
C1063 C1061 1.433 . S
C1063 N1066 1.384 . S
C1064 H1055 0.929 . S
C1064 C1056 1.378 . S
C1064 C1059 1.350 . S
C1065 H1052 0.929 . S
C1065 C1057 1.433 . S
C1065 N1067 1.384 . S
N1066 C1062 1.427 . S
N1066 C1063 1.384 . S
N1067 C1059 1.427 . S
N1067 C1065 1.384 . S
H1068 C1074 0.930 . S
H1069 C1078 0.930 . S
H1070 C1083 0.929 . S
H1071 C1081 0.929 . S
H1072 C1076 0.929 . S
H1073 C1082 0.929 . S
C1074 H1068 0.930 . S
C1074 C1075 1.367 . S
C1074 C1082 1.378 . S
C1075 C1074 1.367 . S
C1075 C1083 1.433 . S
C1076 H1072 0.929 . S
C1076 C1078 1.378 . S
C1076 C1080 1.350 . S
C1077 C1080 1.463 . S
C1077 C1082 1.350 . S
C1077 N1085 1.427 . S
C1078 H1069 0.930 . S
C1078 C1076 1.378 . S
C1078 C1079 1.367 . S
C1079 C1078 1.367 . S
C1079 C1081 1.433 . S
C1080 C1076 1.350 . S
C1080 C1077 1.463 . S
C1080 N1084 1.427 . S
C1081 H1071 0.929 . S
C1081 C1079 1.433 . S
C1081 N1084 1.384 . S
C1082 H1073 0.929 . S
C1082 C1074 1.378 . S
C1082 C1077 1.350 . S
C1083 H1070 0.929 . S
C1083 C1075 1.433 . S
C1083 N1085 1.384 . S
N1084 C1080 1.427 . S
N1084 C1081 1.384 . S
N1085 C1077 1.427 . S
N1085 C1083 1.384 . S
H1086 C1092 0.930 1_565 S
H1087 C1096 0.930 . S
H1088 C1101 0.929 . S
H1089 C1099 0.906 1_565 S
H1090 C1094 0.929 . S
H1091 C1100 0.929 1_565 S
C1092 H1086 0.930 1_545 S
C1092 C1093 1.367 . S
C1092 C1100 1.378 . S
C1093 C1092 1.367 . S
C1093 C1101 1.433 . S
C1094 H1090 0.929 . S
C1094 C1096 1.378 . S
C1094 C1098 1.350 . S
C1095 C1098 1.463 . S
C1095 C1100 1.350 . S
C1095 N1103 1.427 . S
C1096 H1087 0.930 . S
C1096 C1094 1.378 . S
C1096 C1097 1.367 . S
C1097 C1096 1.367 . S
C1097 C1099 1.455 . S
C1098 C1094 1.350 . S
C1098 C1095 1.463 . S
C1098 N1102 1.427 . S
C1099 H1089 0.906 1_545 S
C1099 C1097 1.455 . S
C1099 N1102 1.387 . S
C1100 H1091 0.929 1_545 S
C1100 C1092 1.378 . S
C1100 C1095 1.350 . S
C1101 H1088 0.929 . S
C1101 C1093 1.433 . S
C1101 N1103 1.384 . S
N1102 C1098 1.427 . S
N1102 C1099 1.387 . S
N1103 C1095 1.427 . S
N1103 C1101 1.384 . S
H1104 C1110 0.930 . S
H1105 C1114 0.930 . S
H1106 C1119 0.929 . S
H1107 C1117 0.929 . S
H1108 C1112 0.929 . S
H1109 C1118 0.929 . S
C1110 H1104 0.930 . S
C1110 C1111 1.367 . S
C1110 C1118 1.378 . S
C1111 C1110 1.367 . S
C1111 C1119 1.433 . S
C1112 H1108 0.929 . S
C1112 C1114 1.378 . S
C1112 C1116 1.350 . S
C1113 C1116 1.463 . S
C1113 C1118 1.350 . S
C1113 N1121 1.427 . S
C1114 H1105 0.930 . S
C1114 C1112 1.378 . S
C1114 C1115 1.367 . S
C1115 C1114 1.367 . S
C1115 C1117 1.433 . S
C1116 C1112 1.350 . S
C1116 C1113 1.463 . S
C1116 N1120 1.427 . S
C1117 H1107 0.929 . S
C1117 C1115 1.433 . S
C1117 N1120 1.384 . S
C1118 H1109 0.929 . S
C1118 C1110 1.378 . S
C1118 C1113 1.350 . S
C1119 H1106 0.929 . S
C1119 C1111 1.433 . S
C1119 N1121 1.384 . S
N1120 C1116 1.427 . S
N1120 C1117 1.384 . S
N1121 C1113 1.427 . S
N1121 C1119 1.384 . S
H1122 C1128 0.930 . S
H1123 C1132 0.930 . S
H1124 C1137 0.929 1_565 S
H1125 C1135 0.929 . S
H1126 C1130 0.929 . S
H1127 C1136 0.929 . S
C1128 H1122 0.930 . S
C1128 C1129 1.367 . S
C1128 C1136 1.378 . S
C1129 C1128 1.367 . S
C1129 C1137 1.433 . S
C1130 H1126 0.929 . S
C1130 C1132 1.378 . S
C1130 C1134 1.350 1_565 S
C1131 C1134 1.463 . S
C1131 C1136 1.350 . S
C1131 N1139 1.427 . S
C1132 H1123 0.930 . S
C1132 C1130 1.378 . S
C1132 C1133 1.367 1_565 S
C1133 C1132 1.367 1_545 S
C1133 C1135 1.433 . S
C1134 C1130 1.350 1_545 S
C1134 C1131 1.463 . S
C1134 N1138 1.427 . S
C1135 H1125 0.929 . S
C1135 C1133 1.433 . S
C1135 N1138 1.384 . S
C1136 H1127 0.929 . S
C1136 C1128 1.378 . S
C1136 C1131 1.350 . S
C1137 H1124 0.929 1_545 S
C1137 C1129 1.433 . S
C1137 N1139 1.384 . S
N1138 C1134 1.427 . S
N1138 C1135 1.384 . S
N1139 C1131 1.427 . S
N1139 C1137 1.384 . S
H1140 C1146 0.930 . S
H1141 C1150 0.930 . S
H1142 C1155 0.929 . S
H1143 C1153 0.929 . S
H1144 C1148 0.929 . S
H1145 C1154 0.929 . S
C1146 H1140 0.930 . S
C1146 C1147 1.367 . S
C1146 C1154 1.378 . S
C1147 C1146 1.367 . S
C1147 C1155 1.433 . S
C1148 H1144 0.929 . S
C1148 C1150 1.378 . S
C1148 C1152 1.350 . S
C1149 C1152 1.463 . S
C1149 C1154 1.350 . S
C1149 N1157 1.427 . S
C1150 H1141 0.930 . S
C1150 C1148 1.378 . S
C1150 C1151 1.367 . S
C1151 C1150 1.367 . S
C1151 C1153 1.433 . S
C1152 C1148 1.350 . S
C1152 C1149 1.463 . S
C1152 N1156 1.427 . S
C1153 H1143 0.929 . S
C1153 C1151 1.433 . S
C1153 N1156 1.384 . S
C1154 H1145 0.929 . S
C1154 C1146 1.378 . S
C1154 C1149 1.350 . S
C1155 H1142 0.929 . S
C1155 C1147 1.433 . S
C1155 N1157 1.384 . S
N1156 C1152 1.427 . S
N1156 C1153 1.384 . S
N1157 C1149 1.427 . S
N1157 C1155 1.384 . S
H1158 C1164 0.930 . S
H1159 C1168 0.930 . S
H1160 C1173 0.929 . S
H1161 C1171 0.929 . S
H1162 C1166 0.929 . S
H1163 C1172 0.929 . S
C1164 H1158 0.930 . S
C1164 C1165 1.367 . S
C1164 C1172 1.378 . S
C1165 C1164 1.367 . S
C1165 C1173 1.433 . S
C1166 H1162 0.929 . S
C1166 C1168 1.378 . S
C1166 C1170 1.350 . S
C1167 C1170 1.463 . S
C1167 C1172 1.350 . S
C1167 N1175 1.427 . S
C1168 H1159 0.930 . S
C1168 C1166 1.378 . S
C1168 C1169 1.367 . S
C1169 C1168 1.367 . S
C1169 C1171 1.433 . S
C1170 C1166 1.350 . S
C1170 C1167 1.463 . S
C1170 N1174 1.427 . S
C1171 H1161 0.929 . S
C1171 C1169 1.433 . S
C1171 N1174 1.384 . S
C1172 H1163 0.929 . S
C1172 C1164 1.378 . S
C1172 C1167 1.350 . S
C1173 H1160 0.929 . S
C1173 C1165 1.433 . S
C1173 N1175 1.384 . S
N1174 C1170 1.427 . S
N1174 C1171 1.384 . S
N1175 C1167 1.427 . S
N1175 C1173 1.384 . S
H1176 C1182 0.930 . S
H1177 C1186 0.930 . S
H1178 C1191 0.929 . S
H1179 C1189 0.929 1_554 S
H1180 C1184 0.929 . S
H1181 C1190 0.929 . S
C1182 H1176 0.930 . S
C1182 C1183 1.367 . S
C1182 C1190 1.378 . S
C1183 C1182 1.367 . S
C1183 C1191 1.433 . S
C1184 H1180 0.929 . S
C1184 C1186 1.378 . S
C1184 C1188 1.350 . S
C1185 C1188 1.463 . S
C1185 C1190 1.350 . S
C1185 N1193 1.427 . S
C1186 H1177 0.930 . S
C1186 C1184 1.378 . S
C1186 C1187 1.367 . S
C1187 C1186 1.367 . S
C1187 C1189 1.433 . S
C1188 C1184 1.350 . S
C1188 C1185 1.463 . S
C1188 N1192 1.427 . S
C1189 H1179 0.929 1_556 S
C1189 C1187 1.433 . S
C1189 N1192 1.384 . S
C1190 H1181 0.929 . S
C1190 C1182 1.378 . S
C1190 C1185 1.350 . S
C1191 H1178 0.929 . S
C1191 C1183 1.433 . S
C1191 N1193 1.384 . S
N1192 C1188 1.427 . S
N1192 C1189 1.384 . S
N1193 C1185 1.427 . S
N1193 C1191 1.384 . S
H1194 C1200 0.930 . S
H1195 C1204 0.930 . S
H1196 C1209 0.929 . S
H1197 C1207 0.929 . S
H1198 C1202 0.929 . S
H1199 C1208 0.929 . S
C1200 H1194 0.930 . S
C1200 C1201 1.367 . S
C1200 C1208 1.378 . S
C1201 C1200 1.367 . S
C1201 C1209 1.433 . S
C1202 H1198 0.929 . S
C1202 C1204 1.378 . S
C1202 C1206 1.350 . S
C1203 C1206 1.463 . S
C1203 C1208 1.350 . S
C1203 N1211 1.427 . S
C1204 H1195 0.930 . S
C1204 C1202 1.378 . S
C1204 C1205 1.367 . S
C1205 C1204 1.367 . S
C1205 C1207 1.433 . S
C1206 C1202 1.350 . S
C1206 C1203 1.463 . S
C1206 N1210 1.427 . S
C1207 H1197 0.929 . S
C1207 C1205 1.433 . S
C1207 N1210 1.384 . S
C1208 H1199 0.929 . S
C1208 C1200 1.378 . S
C1208 C1203 1.350 . S
C1209 H1196 0.929 . S
C1209 C1201 1.433 . S
C1209 N1211 1.384 . S
N1210 C1206 1.427 . S
N1210 C1207 1.384 . S
N1211 C1203 1.427 . S
N1211 C1209 1.384 . S
H1212 C1218 0.930 . S
H1213 C1222 0.930 . S
H1214 C1227 0.929 . S
H1215 C1225 0.929 . S
H1216 C1220 0.929 . S
H1217 C1226 0.929 . S
C1218 H1212 0.930 . S
C1218 C1219 1.367 . S
C1218 C1226 1.378 . S
C1219 C1218 1.367 . S
C1219 C1227 1.433 . S
C1220 H1216 0.929 . S
C1220 C1222 1.378 . S
C1220 C1224 1.350 . S
C1221 C1224 1.463 . S
C1221 C1226 1.350 . S
C1221 N1229 1.427 . S
C1222 H1213 0.930 . S
C1222 C1220 1.378 . S
C1222 C1223 1.367 . S
C1223 C1222 1.367 . S
C1223 C1225 1.433 . S
C1224 C1220 1.350 . S
C1224 C1221 1.463 . S
C1224 N1228 1.427 . S
C1225 H1215 0.929 . S
C1225 C1223 1.433 . S
C1225 N1228 1.384 . S
C1226 H1217 0.929 . S
C1226 C1218 1.378 . S
C1226 C1221 1.350 . S
C1227 H1214 0.929 . S
C1227 C1219 1.433 . S
C1227 N1229 1.384 . S
N1228 C1224 1.427 . S
N1228 C1225 1.384 . S
N1229 C1221 1.427 . S
N1229 C1227 1.384 . S
H1230 C1236 0.930 . S
H1231 C1240 0.930 . S
H1232 C1245 0.929 . S
H1233 C1243 0.929 . S
H1234 C1238 0.929 . S
H1235 C1244 0.929 . S
C1236 H1230 0.930 . S
C1236 C1237 1.367 . S
C1236 C1244 1.378 . S
C1237 C1236 1.367 . S
C1237 C1245 1.433 . S
C1238 H1234 0.929 . S
C1238 C1240 1.378 . S
C1238 C1242 1.350 . S
C1239 C1242 1.463 . S
C1239 C1244 1.350 . S
C1239 N1247 1.427 . S
C1240 H1231 0.930 . S
C1240 C1238 1.378 . S
C1240 C1241 1.367 . S
C1241 C1240 1.367 . S
C1241 C1243 1.433 . S
C1242 C1238 1.350 . S
C1242 C1239 1.463 . S
C1242 N1246 1.427 . S
C1243 H1233 0.929 . S
C1243 C1241 1.433 . S
C1243 N1246 1.384 . S
C1244 H1235 0.929 . S
C1244 C1236 1.378 . S
C1244 C1239 1.350 . S
C1245 H1232 0.929 . S
C1245 C1237 1.433 . S
C1245 N1247 1.384 . S
N1246 C1242 1.427 . S
N1246 C1243 1.384 . S
N1247 C1239 1.427 . S
N1247 C1245 1.384 . S
H1248 C1254 0.930 . S
H1249 C1258 0.930 . S
H1250 C1263 0.929 . S
H1251 C1261 0.929 . S
H1252 C1256 0.929 . S
H1253 C1262 0.929 . S
C1254 H1248 0.930 . S
C1254 C1255 1.367 . S
C1254 C1262 1.378 . S
C1255 C1254 1.367 . S
C1255 C1263 1.433 . S
C1256 H1252 0.929 . S
C1256 C1258 1.378 . S
C1256 C1260 1.350 . S
C1257 C1260 1.463 . S
C1257 C1262 1.350 . S
C1257 N1265 1.427 . S
C1258 H1249 0.930 . S
C1258 C1256 1.378 . S
C1258 C1259 1.367 . S
C1259 C1258 1.367 . S
C1259 C1261 1.433 . S
C1260 C1256 1.350 . S
C1260 C1257 1.463 . S
C1260 N1264 1.427 . S
C1261 H1251 0.929 . S
C1261 C1259 1.433 . S
C1261 N1264 1.384 . S
C1262 H1253 0.929 . S
C1262 C1254 1.378 . S
C1262 C1257 1.350 . S
C1263 H1250 0.929 . S
C1263 C1255 1.433 . S
C1263 N1265 1.384 . S
N1264 C1260 1.427 . S
N1264 C1261 1.384 . S
N1265 C1257 1.427 . S
N1265 C1263 1.384 . S
H1266 C1272 0.930 . S
H1267 C1276 0.930 . S
H1268 C1281 0.929 . S
H1269 C1279 0.929 . S
H1270 C1274 0.929 . S
H1271 C1280 0.929 . S
C1272 H1266 0.930 . S
C1272 C1273 1.367 . S
C1272 C1280 1.378 . S
C1273 C1272 1.367 . S
C1273 C1281 1.433 . S
C1274 H1270 0.929 . S
C1274 C1276 1.378 . S
C1274 C1278 1.350 . S
C1275 C1278 1.463 . S
C1275 C1280 1.350 . S
C1275 N1283 1.427 . S
C1276 H1267 0.930 . S
C1276 C1274 1.378 . S
C1276 C1277 1.367 . S
C1277 C1276 1.367 . S
C1277 C1279 1.433 . S
C1278 C1274 1.350 . S
C1278 C1275 1.463 . S
C1278 N1282 1.427 . S
C1279 H1269 0.929 . S
C1279 C1277 1.433 . S
C1279 N1282 1.384 . S
C1280 H1271 0.929 . S
C1280 C1272 1.378 . S
C1280 C1275 1.350 . S
C1281 H1268 0.929 . S
C1281 C1273 1.433 . S
C1281 N1283 1.384 . S
N1282 C1278 1.427 . S
N1282 C1279 1.384 . S
N1283 C1275 1.427 . S
N1283 C1281 1.384 . S
H1284 C1290 0.930 . S
H1285 C1294 0.930 . S
H1286 C1299 0.929 . S
H1287 C1297 0.929 . S
H1288 C1292 0.929 . S
H1289 C1298 0.929 . S
C1290 H1284 0.930 . S
C1290 C1291 1.367 . S
C1290 C1298 1.378 . S
C1291 C1290 1.367 . S
C1291 C1299 1.433 . S
C1292 H1288 0.929 . S
C1292 C1294 1.378 . S
C1292 C1296 1.350 . S
C1293 C1296 1.463 . S
C1293 C1298 1.350 . S
C1293 N1301 1.427 . S
C1294 H1285 0.930 . S
C1294 C1292 1.378 . S
C1294 C1295 1.367 . S
C1295 C1294 1.367 . S
C1295 C1297 1.433 . S
C1296 C1292 1.350 . S
C1296 C1293 1.463 . S
C1296 N1300 1.427 . S
C1297 H1287 0.929 . S
C1297 C1295 1.433 . S
C1297 N1300 1.384 . S
C1298 H1289 0.929 . S
C1298 C1290 1.378 . S
C1298 C1293 1.350 . S
C1299 H1286 0.929 . S
C1299 C1291 1.433 . S
C1299 N1301 1.384 . S
N1300 C1296 1.427 . S
N1300 C1297 1.384 . S
N1301 C1293 1.427 . S
N1301 C1299 1.384 . S
H1302 C1308 0.930 . S
H1303 C1312 0.930 . S
H1304 C1317 0.929 . S
H1305 C1315 0.929 . S
H1306 C1310 0.929 . S
H1307 C1316 0.929 . S
C1308 H1302 0.930 . S
C1308 C1309 1.367 . S
C1308 C1316 1.378 . S
C1309 C1308 1.367 . S
C1309 C1317 1.433 . S
C1310 H1306 0.929 . S
C1310 C1312 1.378 . S
C1310 C1314 1.350 . S
C1311 C1314 1.463 . S
C1311 C1316 1.350 . S
C1311 N1319 1.427 . S
C1312 H1303 0.930 . S
C1312 C1310 1.378 . S
C1312 C1313 1.367 . S
C1313 C1312 1.367 . S
C1313 C1315 1.433 . S
C1314 C1310 1.350 . S
C1314 C1311 1.463 . S
C1314 N1318 1.427 . S
C1315 H1305 0.929 . S
C1315 C1313 1.433 . S
C1315 N1318 1.384 . S
C1316 H1307 0.929 . S
C1316 C1308 1.378 . S
C1316 C1311 1.350 . S
C1317 H1304 0.929 . S
C1317 C1309 1.433 . S
C1317 N1319 1.384 . S
N1318 C1314 1.427 . S
N1318 C1315 1.384 . S
N1319 C1311 1.427 . S
N1319 C1317 1.384 . S
H1320 C1326 0.930 . S
H1321 C1330 0.930 . S
H1322 C1335 0.929 . S
H1323 C1333 0.929 . S
H1324 C1328 0.929 . S
H1325 C1334 0.929 . S
C1326 H1320 0.930 . S
C1326 C1327 1.367 . S
C1326 C1334 1.378 . S
C1327 C1326 1.367 . S
C1327 C1335 1.433 . S
C1328 H1324 0.929 . S
C1328 C1330 1.378 . S
C1328 C1332 1.350 . S
C1329 C1332 1.463 . S
C1329 C1334 1.350 . S
C1329 N1337 1.427 . S
C1330 H1321 0.930 . S
C1330 C1328 1.378 . S
C1330 C1331 1.367 . S
C1331 C1330 1.367 . S
C1331 C1333 1.433 . S
C1332 C1328 1.350 . S
C1332 C1329 1.463 . S
C1332 N1336 1.427 . S
C1333 H1323 0.929 . S
C1333 C1331 1.433 . S
C1333 N1336 1.384 . S
C1334 H1325 0.929 . S
C1334 C1326 1.378 . S
C1334 C1329 1.350 . S
C1335 H1322 0.929 . S
C1335 C1327 1.433 . S
C1335 N1337 1.384 . S
N1336 C1332 1.427 . S
N1336 C1333 1.384 . S
N1337 C1329 1.427 . S
N1337 C1335 1.384 . S
H1338 C1344 0.930 . S
H1339 C1348 0.930 . S
H1340 C1353 0.929 . S
H1341 C1351 0.929 . S
H1342 C1346 0.929 . S
H1343 C1352 0.929 . S
C1344 H1338 0.930 . S
C1344 C1345 1.367 . S
C1344 C1352 1.378 . S
C1345 C1344 1.367 . S
C1345 C1353 1.433 . S
C1346 H1342 0.929 . S
C1346 C1348 1.378 . S
C1346 C1350 1.350 . S
C1347 C1350 1.463 . S
C1347 C1352 1.350 . S
C1347 N1355 1.427 . S
C1348 H1339 0.930 . S
C1348 C1346 1.378 . S
C1348 C1349 1.367 . S
C1349 C1348 1.367 . S
C1349 C1351 1.433 . S
C1350 C1346 1.350 . S
C1350 C1347 1.463 . S
C1350 N1354 1.427 . S
C1351 H1341 0.929 . S
C1351 C1349 1.433 . S
C1351 N1354 1.384 . S
C1352 H1343 0.929 . S
C1352 C1344 1.378 . S
C1352 C1347 1.350 . S
C1353 H1340 0.929 . S
C1353 C1345 1.433 . S
C1353 N1355 1.384 . S
N1354 C1350 1.427 . S
N1354 C1351 1.384 . S
N1355 C1347 1.427 . S
N1355 C1353 1.384 . S
H1356 C1362 0.930 . S
H1357 C1366 0.930 . S
H1358 C1371 0.929 . S
H1359 C1369 0.929 . S
H1360 C1364 0.929 . S
H1361 C1370 0.929 . S
C1362 H1356 0.930 . S
C1362 C1363 1.367 . S
C1362 C1370 1.378 . S
C1363 C1362 1.367 . S
C1363 C1371 1.433 . S
C1364 H1360 0.929 . S
C1364 C1366 1.378 . S
C1364 C1368 1.350 . S
C1365 C1368 1.463 . S
C1365 C1370 1.350 . S
C1365 N1373 1.427 . S
C1366 H1357 0.930 . S
C1366 C1364 1.378 . S
C1366 C1367 1.367 . S
C1367 C1366 1.367 . S
C1367 C1369 1.433 . S
C1368 C1364 1.350 . S
C1368 C1365 1.463 . S
C1368 N1372 1.427 . S
C1369 H1359 0.929 . S
C1369 C1367 1.433 . S
C1369 N1372 1.384 . S
C1370 H1361 0.929 . S
C1370 C1362 1.378 . S
C1370 C1365 1.350 . S
C1371 H1358 0.929 . S
C1371 C1363 1.433 . S
C1371 N1373 1.384 . S
N1372 C1368 1.427 . S
N1372 C1369 1.384 . S
N1373 C1365 1.427 . S
N1373 C1371 1.384 . S
H1374 C1380 0.930 . S
H1375 C1384 0.930 . S
H1376 C1389 0.929 . S
H1377 C1387 0.929 . S
H1378 C1382 0.929 . S
H1379 C1388 0.929 . S
C1380 H1374 0.930 . S
C1380 C1381 1.367 . S
C1380 C1388 1.378 . S
C1381 C1380 1.367 . S
C1381 C1389 1.433 . S
C1382 H1378 0.929 . S
C1382 C1384 1.378 . S
C1382 C1386 1.350 . S
C1383 C1386 1.463 . S
C1383 C1388 1.350 . S
C1383 N1391 1.427 . S
C1384 H1375 0.930 . S
C1384 C1382 1.378 . S
C1384 C1385 1.367 . S
C1385 C1384 1.367 . S
C1385 C1387 1.433 . S
C1386 C1382 1.350 . S
C1386 C1383 1.463 . S
C1386 N1390 1.427 . S
C1387 H1377 0.929 . S
C1387 C1385 1.433 . S
C1387 N1390 1.384 . S
C1388 H1379 0.929 . S
C1388 C1380 1.378 . S
C1388 C1383 1.350 . S
C1389 H1376 0.929 . S
C1389 C1381 1.433 . S
C1389 N1391 1.384 . S
N1390 C1386 1.427 . S
N1390 C1387 1.384 . S
N1391 C1383 1.427 . S
N1391 C1389 1.384 . S
H1392 C1398 0.930 . S
H1393 C1402 0.930 . S
H1394 C1407 0.929 . S
H1395 C1405 0.929 . S
H1396 C1400 0.929 . S
H1397 C1406 0.929 . S
C1398 H1392 0.930 . S
C1398 C1399 1.367 . S
C1398 C1406 1.378 . S
C1399 C1398 1.367 . S
C1399 C1407 1.433 . S
C1400 H1396 0.929 . S
C1400 C1402 1.378 . S
C1400 C1404 1.350 . S
C1401 C1404 1.463 . S
C1401 C1406 1.350 . S
C1401 N1409 1.427 . S
C1402 H1393 0.930 . S
C1402 C1400 1.378 . S
C1402 C1403 1.367 . S
C1403 C1402 1.367 . S
C1403 C1405 1.433 . S
C1404 C1400 1.350 . S
C1404 C1401 1.463 . S
C1404 N1408 1.427 . S
C1405 H1395 0.929 . S
C1405 C1403 1.433 . S
C1405 N1408 1.384 . S
C1406 H1397 0.929 . S
C1406 C1398 1.378 . S
C1406 C1401 1.350 . S
C1407 H1394 0.929 . S
C1407 C1399 1.433 . S
C1407 N1409 1.384 . S
N1408 C1404 1.427 . S
N1408 C1405 1.384 . S
N1409 C1401 1.427 . S
N1409 C1407 1.384 . S
H1410 C1416 0.930 . S
H1411 C1420 0.930 . S
H1412 C1425 0.929 . S
H1413 C1423 0.929 . S
H1414 C1418 0.929 . S
H1415 C1424 0.929 . S
C1416 H1410 0.930 . S
C1416 C1417 1.367 . S
C1416 C1424 1.378 . S
C1417 C1416 1.367 . S
C1417 C1425 1.433 . S
C1418 H1414 0.929 . S
C1418 C1420 1.378 . S
C1418 C1422 1.350 . S
C1419 C1422 1.463 . S
C1419 C1424 1.350 . S
C1419 N1427 1.427 . S
C1420 H1411 0.930 . S
C1420 C1418 1.378 . S
C1420 C1421 1.367 . S
C1421 C1420 1.367 . S
C1421 C1423 1.433 . S
C1422 C1418 1.350 . S
C1422 C1419 1.463 . S
C1422 N1426 1.427 . S
C1423 H1413 0.929 . S
C1423 C1421 1.433 . S
C1423 N1426 1.384 . S
C1424 H1415 0.929 . S
C1424 C1416 1.378 . S
C1424 C1419 1.350 . S
C1425 H1412 0.929 . S
C1425 C1417 1.433 . S
C1425 N1427 1.384 . S
N1426 C1422 1.427 . S
N1426 C1423 1.384 . S
N1427 C1419 1.427 . S
N1427 C1425 1.384 . S
H1428 C1434 0.930 . S
H1429 C1438 0.930 . S
H1430 C1443 0.929 . S
H1431 C1441 0.929 . S
H1432 C1436 0.929 . S
H1433 C1442 0.929 . S
C1434 H1428 0.930 . S
C1434 C1435 1.367 . S
C1434 C1442 1.378 . S
C1435 C1434 1.367 . S
C1435 C1443 1.433 . S
C1436 H1432 0.929 . S
C1436 C1438 1.378 . S
C1436 C1440 1.350 . S
C1437 C1440 1.463 . S
C1437 C1442 1.350 . S
C1437 N1445 1.427 . S
C1438 H1429 0.930 . S
C1438 C1436 1.378 . S
C1438 C1439 1.367 . S
C1439 C1438 1.367 . S
C1439 C1441 1.433 . S
C1440 C1436 1.350 . S
C1440 C1437 1.463 . S
C1440 N1444 1.427 . S
C1441 H1431 0.929 . S
C1441 C1439 1.433 . S
C1441 N1444 1.384 . S
C1442 H1433 0.929 . S
C1442 C1434 1.378 . S
C1442 C1437 1.350 . S
C1443 H1430 0.929 . S
C1443 C1435 1.433 . S
C1443 N1445 1.384 . S
N1444 C1440 1.427 . S
N1444 C1441 1.384 . S
N1445 C1437 1.427 . S
N1445 C1443 1.384 . S
H1446 C1452 0.930 . S
H1447 C1456 0.930 . S
H1448 C1461 0.929 . S
H1449 C1459 0.929 . S
H1450 C1454 0.929 . S
H1451 C1460 0.929 . S
C1452 H1446 0.930 . S
C1452 C1453 1.367 . S
C1452 C1460 1.378 . S
C1453 C1452 1.367 . S
C1453 C1461 1.433 . S
C1454 H1450 0.929 . S
C1454 C1456 1.378 . S
C1454 C1458 1.350 . S
C1455 C1458 1.463 . S
C1455 C1460 1.350 . S
C1455 N1463 1.427 . S
C1456 H1447 0.930 . S
C1456 C1454 1.378 . S
C1456 C1457 1.367 . S
C1457 C1456 1.367 . S
C1457 C1459 1.433 . S
C1458 C1454 1.350 . S
C1458 C1455 1.463 . S
C1458 N1462 1.427 . S
C1459 H1449 0.929 . S
C1459 C1457 1.433 . S
C1459 N1462 1.384 . S
C1460 H1451 0.929 . S
C1460 C1452 1.378 . S
C1460 C1455 1.350 . S
C1461 H1448 0.929 . S
C1461 C1453 1.433 . S
C1461 N1463 1.384 . S
N1462 C1458 1.427 . S
N1462 C1459 1.384 . S
N1463 C1455 1.427 . S
N1463 C1461 1.384 . S
H1464 C1470 0.930 . S
H1465 C1474 0.930 . S
H1466 C1479 0.929 . S
H1467 C1477 0.929 . S
H1468 C1472 0.929 . S
H1469 C1478 0.929 . S
C1470 H1464 0.930 . S
C1470 C1471 1.367 . S
C1470 C1478 1.378 . S
C1471 C1470 1.367 . S
C1471 C1479 1.433 . S
C1472 H1468 0.929 . S
C1472 C1474 1.378 . S
C1472 C1476 1.350 . S
C1473 C1476 1.463 . S
C1473 C1478 1.350 . S
C1473 N1481 1.427 . S
C1474 H1465 0.930 . S
C1474 C1472 1.378 . S
C1474 C1475 1.367 . S
C1475 C1474 1.367 . S
C1475 C1477 1.433 . S
C1476 C1472 1.350 . S
C1476 C1473 1.463 . S
C1476 N1480 1.427 . S
C1477 H1467 0.929 . S
C1477 C1475 1.433 . S
C1477 N1480 1.384 . S
C1478 H1469 0.929 . S
C1478 C1470 1.378 . S
C1478 C1473 1.350 . S
C1479 H1466 0.929 . S
C1479 C1471 1.433 . S
C1479 N1481 1.384 . S
N1480 C1476 1.427 . S
N1480 C1477 1.384 . S
N1481 C1473 1.427 . S
N1481 C1479 1.384 . S
H1482 C1488 0.930 . S
H1483 C1492 0.930 . S
H1484 C1497 0.929 . S
H1485 C1495 0.929 . S
H1486 C1490 0.929 . S
H1487 C1496 0.929 . S
C1488 H1482 0.930 . S
C1488 C1489 1.367 . S
C1488 C1496 1.378 . S
C1489 C1488 1.367 . S
C1489 C1497 1.433 . S
C1490 H1486 0.929 . S
C1490 C1492 1.378 . S
C1490 C1494 1.350 . S
C1491 C1494 1.463 . S
C1491 C1496 1.350 . S
C1491 N1499 1.427 . S
C1492 H1483 0.930 . S
C1492 C1490 1.378 . S
C1492 C1493 1.367 . S
C1493 C1492 1.367 . S
C1493 C1495 1.433 . S
C1494 C1490 1.350 . S
C1494 C1491 1.463 . S
C1494 N1498 1.427 . S
C1495 H1485 0.929 . S
C1495 C1493 1.433 . S
C1495 N1498 1.384 . S
C1496 H1487 0.929 . S
C1496 C1488 1.378 . S
C1496 C1491 1.350 . S
C1497 H1484 0.929 . S
C1497 C1489 1.433 . S
C1497 N1499 1.384 . S
N1498 C1494 1.427 . S
N1498 C1495 1.384 . S
N1499 C1491 1.427 . S
N1499 C1497 1.384 . S
H1500 C1506 0.930 . S
H1501 C1510 0.930 . S
H1502 C1515 0.929 . S
H1503 C1513 0.929 . S
H1504 C1508 0.929 . S
H1505 C1514 0.929 . S
C1506 H1500 0.930 . S
C1506 C1507 1.367 . S
C1506 C1514 1.378 . S
C1507 C1506 1.367 . S
C1507 C1515 1.433 . S
C1508 H1504 0.929 . S
C1508 C1510 1.378 . S
C1508 C1512 1.350 . S
C1509 C1512 1.463 . S
C1509 C1514 1.350 . S
C1509 N1517 1.427 . S
C1510 H1501 0.930 . S
C1510 C1508 1.378 . S
C1510 C1511 1.367 . S
C1511 C1510 1.367 . S
C1511 C1513 1.433 . S
C1512 C1508 1.350 . S
C1512 C1509 1.463 . S
C1512 N1516 1.427 . S
C1513 H1503 0.929 . S
C1513 C1511 1.433 . S
C1513 N1516 1.384 . S
C1514 H1505 0.929 . S
C1514 C1506 1.378 . S
C1514 C1509 1.350 . S
C1515 H1502 0.929 . S
C1515 C1507 1.433 . S
C1515 N1517 1.384 . S
N1516 C1512 1.427 . S
N1516 C1513 1.384 . S
N1517 C1509 1.427 . S
N1517 C1515 1.384 . S
H1518 C1524 0.930 . S
H1519 C1528 0.930 . S
H1520 C1533 0.929 . S
H1521 C1531 0.929 . S
H1522 C1526 0.929 . S
H1523 C1532 0.929 . S
C1524 H1518 0.930 . S
C1524 C1525 1.367 . S
C1524 C1532 1.378 . S
C1525 C1524 1.367 . S
C1525 C1533 1.433 . S
C1526 H1522 0.929 . S
C1526 C1528 1.378 . S
C1526 C1530 1.350 . S
C1527 C1530 1.463 . S
C1527 C1532 1.350 . S
C1527 N1535 1.427 . S
C1528 H1519 0.930 . S
C1528 C1526 1.378 . S
C1528 C1529 1.367 . S
C1529 C1528 1.367 . S
C1529 C1531 1.433 . S
C1530 C1526 1.350 . S
C1530 C1527 1.463 . S
C1530 N1534 1.427 . S
C1531 H1521 0.929 . S
C1531 C1529 1.433 . S
C1531 N1534 1.384 . S
C1532 H1523 0.929 . S
C1532 C1524 1.378 . S
C1532 C1527 1.350 . S
C1533 H1520 0.929 . S
C1533 C1525 1.433 . S
C1533 N1535 1.384 . S
N1534 C1530 1.427 . S
N1534 C1531 1.384 . S
N1535 C1527 1.427 . S
N1535 C1533 1.384 . S
H1536 C1542 0.930 . S
H1537 C1546 0.930 . S
H1538 C1551 0.929 . S
H1539 C1549 0.929 . S
H1540 C1544 0.929 . S
H1541 C1550 0.929 . S
C1542 H1536 0.930 . S
C1542 C1543 1.367 . S
C1542 C1550 1.378 . S
C1543 C1542 1.367 . S
C1543 C1551 1.433 . S
C1544 H1540 0.929 . S
C1544 C1546 1.378 . S
C1544 C1548 1.350 . S
C1545 C1548 1.463 . S
C1545 C1550 1.350 . S
C1545 N1553 1.427 . S
C1546 H1537 0.930 . S
C1546 C1544 1.378 . S
C1546 C1547 1.367 . S
C1547 C1546 1.367 . S
C1547 C1549 1.433 . S
C1548 C1544 1.350 . S
C1548 C1545 1.463 . S
C1548 N1552 1.427 . S
C1549 H1539 0.929 . S
C1549 C1547 1.433 . S
C1549 N1552 1.384 . S
C1550 H1541 0.929 . S
C1550 C1542 1.378 . S
C1550 C1545 1.350 . S
C1551 H1538 0.929 . S
C1551 C1543 1.433 . S
C1551 N1553 1.384 . S
N1552 C1548 1.427 . S
N1552 C1549 1.384 . S
N1553 C1545 1.427 . S
N1553 C1551 1.384 . S
H1554 C1560 0.930 . S
H1555 C1564 0.930 . S
H1556 C1569 0.929 . S
H1557 C1567 0.929 . S
H1558 C1562 0.929 . S
H1559 C1568 0.929 . S
C1560 H1554 0.930 . S
C1560 C1561 1.367 . S
C1560 C1568 1.378 . S
C1561 C1560 1.367 . S
C1561 C1569 1.433 . S
C1562 H1558 0.929 . S
C1562 C1564 1.378 . S
C1562 C1566 1.350 . S
C1563 C1566 1.463 . S
C1563 C1568 1.350 . S
C1563 N1571 1.427 . S
C1564 H1555 0.930 . S
C1564 C1562 1.378 . S
C1564 C1565 1.367 . S
C1565 C1564 1.367 . S
C1565 C1567 1.433 . S
C1566 C1562 1.350 . S
C1566 C1563 1.463 . S
C1566 N1570 1.427 . S
C1567 H1557 0.929 . S
C1567 C1565 1.433 . S
C1567 N1570 1.384 . S
C1568 H1559 0.929 . S
C1568 C1560 1.378 . S
C1568 C1563 1.350 . S
C1569 H1556 0.929 . S
C1569 C1561 1.433 . S
C1569 N1571 1.384 . S
N1570 C1566 1.427 . S
N1570 C1567 1.384 . S
N1571 C1563 1.427 . S
N1571 C1569 1.384 . S
H1572 C1578 0.930 . S
H1573 C1582 0.930 . S
H1574 C1587 0.929 . S
H1575 C1585 0.929 . S
H1576 C1580 0.929 . S
H1577 C1586 0.929 . S
C1578 H1572 0.930 . S
C1578 C1579 1.367 . S
C1578 C1586 1.378 . S
C1579 C1578 1.367 . S
C1579 C1587 1.433 . S
C1580 H1576 0.929 . S
C1580 C1582 1.378 . S
C1580 C1584 1.350 1_545 S
C1581 C1584 1.463 . S
C1581 C1586 1.350 . S
C1581 N1589 1.427 . S
C1582 H1573 0.930 . S
C1582 C1580 1.378 . S
C1582 C1583 1.367 1_545 S
C1583 C1582 1.367 1_565 S
C1583 C1585 1.433 . S
C1584 C1580 1.350 1_565 S
C1584 C1581 1.463 . S
C1584 N1588 1.427 . S
C1585 H1575 0.929 . S
C1585 C1583 1.433 . S
C1585 N1588 1.384 . S
C1586 H1577 0.929 . S
C1586 C1578 1.378 . S
C1586 C1581 1.350 . S
C1587 H1574 0.929 . S
C1587 C1579 1.433 . S
C1587 N1589 1.384 . S
N1588 C1584 1.427 . S
N1588 C1585 1.384 . S
N1589 C1581 1.427 . S
N1589 C1587 1.384 . S
H1590 C1596 0.930 . S
H1591 C1600 0.930 . S
H1592 C1605 0.929 . S
H1593 C1603 0.929 . S
H1594 C1598 0.929 . S
H1595 C1604 0.929 . S
C1596 H1590 0.930 . S
C1596 C1597 1.367 . S
C1596 C1604 1.378 . S
C1597 C1596 1.367 . S
C1597 C1605 1.433 . S
C1598 H1594 0.929 . S
C1598 C1600 1.378 . S
C1598 C1602 1.350 . S
C1599 C1602 1.463 . S
C1599 C1604 1.350 . S
C1599 N1607 1.427 . S
C1600 H1591 0.930 . S
C1600 C1598 1.378 . S
C1600 C1601 1.367 . S
C1601 C1600 1.367 . S
C1601 C1603 1.433 . S
C1602 C1598 1.350 . S
C1602 C1599 1.463 . S
C1602 N1606 1.427 . S
C1603 H1593 0.929 . S
C1603 C1601 1.433 . S
C1603 N1606 1.384 . S
C1604 H1595 0.929 . S
C1604 C1596 1.378 . S
C1604 C1599 1.350 . S
C1605 H1592 0.929 . S
C1605 C1597 1.433 . S
C1605 N1607 1.384 . S
N1606 C1602 1.427 . S
N1606 C1603 1.384 . S
N1607 C1599 1.427 . S
N1607 C1605 1.384 . S
H1608 C1614 0.930 . S
H1609 C1618 0.930 . S
H1610 C1623 0.929 . S
H1611 C1621 0.929 . S
H1612 C1616 0.929 . S
H1613 C1622 0.929 . S
C1614 H1608 0.930 . S
C1614 C1615 1.367 . S
C1614 C1622 1.378 . S
C1615 C1614 1.367 . S
C1615 C1623 1.433 . S
C1616 H1612 0.929 . S
C1616 C1618 1.378 . S
C1616 C1620 1.350 . S
C1617 C1620 1.463 . S
C1617 C1622 1.350 . S
C1617 N1625 1.427 . S
C1618 H1609 0.930 . S
C1618 C1616 1.378 . S
C1618 C1619 1.367 . S
C1619 C1618 1.367 . S
C1619 C1621 1.433 . S
C1620 C1616 1.350 . S
C1620 C1617 1.463 . S
C1620 N1624 1.427 . S
C1621 H1611 0.929 . S
C1621 C1619 1.433 . S
C1621 N1624 1.384 . S
C1622 H1613 0.929 . S
C1622 C1614 1.378 . S
C1622 C1617 1.350 . S
C1623 H1610 0.929 . S
C1623 C1615 1.433 . S
C1623 N1625 1.384 . S
N1624 C1620 1.427 . S
N1624 C1621 1.384 . S
N1625 C1617 1.427 . S
N1625 C1623 1.384 . S
H1626 C1632 0.930 . S
H1627 C1636 0.930 . S
H1628 C1641 0.929 . S
H1629 C1639 0.929 . S
H1630 C1634 0.929 . S
H1631 C1640 0.929 . S
C1632 H1626 0.930 . S
C1632 C1633 1.367 . S
C1632 C1640 1.378 . S
C1633 C1632 1.367 . S
C1633 C1641 1.433 . S
C1634 H1630 0.929 . S
C1634 C1636 1.378 . S
C1634 C1638 1.350 . S
C1635 C1638 1.463 . S
C1635 C1640 1.350 . S
C1635 N1643 1.427 . S
C1636 H1627 0.930 . S
C1636 C1634 1.378 . S
C1636 C1637 1.367 . S
C1637 C1636 1.367 . S
C1637 C1639 1.433 . S
C1638 C1634 1.350 . S
C1638 C1635 1.463 . S
C1638 N1642 1.427 . S
C1639 H1629 0.929 . S
C1639 C1637 1.433 . S
C1639 N1642 1.384 . S
C1640 H1631 0.929 . S
C1640 C1632 1.378 . S
C1640 C1635 1.350 . S
C1641 H1628 0.929 . S
C1641 C1633 1.433 . S
C1641 N1643 1.384 . S
N1642 C1638 1.427 . S
N1642 C1639 1.384 . S
N1643 C1635 1.427 . S
N1643 C1641 1.384 . S
H1644 C1650 0.930 . S
H1645 C1654 0.930 . S
H1646 C1659 0.929 . S
H1647 C1657 0.929 . S
H1648 C1652 0.929 . S
H1649 C1658 0.929 1_565 S
C1650 H1644 0.930 . S
C1650 C1651 1.367 1_565 S
C1650 C1658 1.378 1_565 S
C1651 C1650 1.367 1_545 S
C1651 C1659 1.433 . S
C1652 H1648 0.929 . S
C1652 C1654 1.378 . S
C1652 C1656 1.350 . S
C1653 C1656 1.463 . S
C1653 C1658 1.350 . S
C1653 N1661 1.427 . S
C1654 H1645 0.930 . S
C1654 C1652 1.378 . S
C1654 C1655 1.367 . S
C1655 C1654 1.367 . S
C1655 C1657 1.433 . S
C1656 C1652 1.350 . S
C1656 C1653 1.463 . S
C1656 N1660 1.427 . S
C1657 H1647 0.929 . S
C1657 C1655 1.433 . S
C1657 N1660 1.384 . S
C1658 H1649 0.929 1_545 S
C1658 C1650 1.378 1_545 S
C1658 C1653 1.350 . S
C1659 H1646 0.929 . S
C1659 C1651 1.433 . S
C1659 N1661 1.384 . S
N1660 C1656 1.427 . S
N1660 C1657 1.384 . S
N1661 C1653 1.427 . S
N1661 C1659 1.384 . S
H1662 C1668 0.930 . S
H1663 C1672 0.930 . S
H1664 C1677 0.929 . S
H1665 C1675 0.929 . S
H1666 C1670 0.929 . S
H1667 C1676 0.929 . S
C1668 H1662 0.930 . S
C1668 C1669 1.367 . S
C1668 C1676 1.378 . S
C1669 C1668 1.367 . S
C1669 C1677 1.433 . S
C1670 H1666 0.929 . S
C1670 C1672 1.378 . S
C1670 C1674 1.350 . S
C1671 C1674 1.463 . S
C1671 C1676 1.350 . S
C1671 N1679 1.427 . S
C1672 H1663 0.930 . S
C1672 C1670 1.378 . S
C1672 C1673 1.367 . S
C1673 C1672 1.367 . S
C1673 C1675 1.433 . S
C1674 C1670 1.350 . S
C1674 C1671 1.463 . S
C1674 N1678 1.427 . S
C1675 H1665 0.929 . S
C1675 C1673 1.433 . S
C1675 N1678 1.384 . S
C1676 H1667 0.929 . S
C1676 C1668 1.378 . S
C1676 C1671 1.350 . S
C1677 H1664 0.929 . S
C1677 C1669 1.433 . S
C1677 N1679 1.384 . S
N1678 C1674 1.427 . S
N1678 C1675 1.384 . S
N1679 C1671 1.427 . S
N1679 C1677 1.384 . S
H1680 C1686 0.930 . S
H1681 C1690 0.930 . S
H1682 C1695 0.929 . S
H1683 C1693 0.929 . S
H1684 C1688 0.929 . S
H1685 C1694 0.929 . S
C1686 H1680 0.930 . S
C1686 C1687 1.367 . S
C1686 C1694 1.378 . S
C1687 C1686 1.367 . S
C1687 C1695 1.433 . S
C1688 H1684 0.929 . S
C1688 C1690 1.378 . S
C1688 C1692 1.350 . S
C1689 C1692 1.463 . S
C1689 C1694 1.350 . S
C1689 N1697 1.427 . S
C1690 H1681 0.930 . S
C1690 C1688 1.378 . S
C1690 C1691 1.367 . S
C1691 C1690 1.367 . S
C1691 C1693 1.433 . S
C1692 C1688 1.350 . S
C1692 C1689 1.463 . S
C1692 N1696 1.427 . S
C1693 H1683 0.929 . S
C1693 C1691 1.433 . S
C1693 N1696 1.384 . S
C1694 H1685 0.929 . S
C1694 C1686 1.378 . S
C1694 C1689 1.350 . S
C1695 H1682 0.929 . S
C1695 C1687 1.433 . S
C1695 N1697 1.384 . S
N1696 C1692 1.427 . S
N1696 C1693 1.384 . S
N1697 C1689 1.427 . S
N1697 C1695 1.384 . S
H1698 C1704 0.930 . S
H1699 C1708 0.930 . S
H1700 C1713 0.929 . S
H1701 C1711 0.929 . S
H1702 C1706 0.929 . S
H1703 C1712 0.929 . S
C1704 H1698 0.930 . S
C1704 C1705 1.367 . S
C1704 C1712 1.378 . S
C1705 C1704 1.367 . S
C1705 C1713 1.433 . S
C1706 H1702 0.929 . S
C1706 C1708 1.378 . S
C1706 C1710 1.350 . S
C1707 C1710 1.463 1_455 S
C1707 C1712 1.350 . S
C1707 N1715 1.427 . S
C1708 H1699 0.930 . S
C1708 C1706 1.378 . S
C1708 C1709 1.367 . S
C1709 C1708 1.367 . S
C1709 C1711 1.433 . S
C1710 C1706 1.350 . S
C1710 C1707 1.463 1_655 S
C1710 N1714 1.427 . S
C1711 H1701 0.929 . S
C1711 C1709 1.433 . S
C1711 N1714 1.384 . S
C1712 H1703 0.929 . S
C1712 C1704 1.378 . S
C1712 C1707 1.350 . S
C1713 H1700 0.929 . S
C1713 C1705 1.433 . S
C1713 N1715 1.384 . S
N1714 C1710 1.427 . S
N1714 C1711 1.384 . S
N1715 C1707 1.427 . S
N1715 C1713 1.384 . S
H1716 C1722 0.930 . S
H1717 C1726 0.930 . S
H1718 C1731 0.929 . S
H1719 C1729 0.929 . S
H1720 C1724 0.929 1_556 S
H1721 C1730 0.929 . S
C1722 H1716 0.930 . S
C1722 C1723 1.367 . S
C1722 C1730 1.378 . S
C1723 C1722 1.367 . S
C1723 C1731 1.433 . S
C1724 H1720 0.929 1_554 S
C1724 C1726 1.378 1_554 S
C1724 C1728 1.350 . S
C1725 C1728 1.463 . S
C1725 C1730 1.350 . S
C1725 N1733 1.427 . S
C1726 H1717 0.930 . S
C1726 C1724 1.378 1_556 S
C1726 C1727 1.367 1_556 S
C1727 C1726 1.367 1_554 S
C1727 C1729 1.433 . S
C1728 C1724 1.350 . S
C1728 C1725 1.463 . S
C1728 N1732 1.427 . S
C1729 H1719 0.929 . S
C1729 C1727 1.433 . S
C1729 N1732 1.384 . S
C1730 H1721 0.929 . S
C1730 C1722 1.378 . S
C1730 C1725 1.350 . S
C1731 H1718 0.929 . S
C1731 C1723 1.433 . S
C1731 N1733 1.384 . S
N1732 C1728 1.427 . S
N1732 C1729 1.384 . S
N1733 C1725 1.427 . S
N1733 C1731 1.384 . S
H1734 C1740 0.930 . S
H1735 C1744 0.930 . S
H1736 C1749 0.929 . S
H1737 C1747 0.929 . S
H1738 C1742 0.929 . S
H1739 C1748 0.929 . S
C1740 H1734 0.930 . S
C1740 C1741 1.367 1_545 S
C1740 C1748 1.378 . S
C1741 C1740 1.367 1_565 S
C1741 C1749 1.433 . S
C1742 H1738 0.929 . S
C1742 C1744 1.378 . S
C1742 C1746 1.350 1_565 S
C1743 C1746 1.463 1_665 S
C1743 C1748 1.350 1_565 S
C1743 N1751 1.427 . S
C1744 H1735 0.930 . S
C1744 C1742 1.378 . S
C1744 C1745 1.367 1_565 S
C1745 C1744 1.367 1_545 S
C1745 C1747 1.433 . S
C1746 C1742 1.350 1_545 S
C1746 C1743 1.463 1_445 S
C1746 N1750 1.427 . S
C1747 H1737 0.929 . S
C1747 C1745 1.433 . S
C1747 N1750 1.384 . S
C1748 H1739 0.929 . S
C1748 C1740 1.378 . S
C1748 C1743 1.350 1_545 S
C1749 H1736 0.929 . S
C1749 C1741 1.433 . S
C1749 N1751 1.384 . S
N1750 C1746 1.427 . S
N1750 C1747 1.384 . S
N1751 C1743 1.427 . S
N1751 C1749 1.384 . S
H1752 C1758 0.930 . S
H1753 C1762 0.930 . S
H1754 C1767 0.929 . S
H1755 C1765 0.929 . S
H1756 C1760 0.929 . S
H1757 C1766 0.929 . S
C1758 H1752 0.930 . S
C1758 C1759 1.367 . S
C1758 C1766 1.378 . S
C1759 C1758 1.367 . S
C1759 C1767 1.433 . S
C1760 H1756 0.929 . S
C1760 C1762 1.378 . S
C1760 C1764 1.350 . S
C1761 C1764 1.463 . S
C1761 C1766 1.350 . S
C1761 N1769 1.427 . S
C1762 H1753 0.930 . S
C1762 C1760 1.378 . S
C1762 C1763 1.367 . S
C1763 C1762 1.367 . S
C1763 C1765 1.433 . S
C1764 C1760 1.350 . S
C1764 C1761 1.463 . S
C1764 N1768 1.427 . S
C1765 H1755 0.929 . S
C1765 C1763 1.433 . S
C1765 N1768 1.384 . S
C1766 H1757 0.929 . S
C1766 C1758 1.378 . S
C1766 C1761 1.350 . S
C1767 H1754 0.929 . S
C1767 C1759 1.433 . S
C1767 N1769 1.384 . S
N1768 C1764 1.427 . S
N1768 C1765 1.384 . S
N1769 C1761 1.427 . S
N1769 C1767 1.384 . S
H1770 C1776 0.930 . S
H1771 C1780 0.930 . S
H1772 C1785 0.929 . S
H1773 C1783 0.929 . S
H1774 C1778 0.929 . S
H1775 C1784 0.929 . S
C1776 H1770 0.930 . S
C1776 C1777 1.367 . S
C1776 C1784 1.378 . S
C1777 C1776 1.367 . S
C1777 C1785 1.433 . S
C1778 H1774 0.929 . S
C1778 C1780 1.378 . S
C1778 C1782 1.350 . S
C1779 C1782 1.463 . S
C1779 C1784 1.350 . S
C1779 N1787 1.427 . S
C1780 H1771 0.930 . S
C1780 C1778 1.378 . S
C1780 C1781 1.367 . S
C1781 C1780 1.367 . S
C1781 C1783 1.433 . S
C1782 C1778 1.350 . S
C1782 C1779 1.463 . S
C1782 N1786 1.427 . S
C1783 H1773 0.929 . S
C1783 C1781 1.433 . S
C1783 N1786 1.384 . S
C1784 H1775 0.929 . S
C1784 C1776 1.378 . S
C1784 C1779 1.350 . S
C1785 H1772 0.929 . S
C1785 C1777 1.433 . S
C1785 N1787 1.384 . S
N1786 C1782 1.427 . S
N1786 C1783 1.384 . S
N1787 C1779 1.427 . S
N1787 C1785 1.384 . S
H1788 C1794 0.930 . S
H1789 C1798 0.930 . S
H1790 C1803 0.929 . S
H1791 C1801 0.929 . S
H1792 C1796 0.929 1_554 S
H1793 C1802 0.929 . S
C1794 H1788 0.930 . S
C1794 C1795 1.367 . S
C1794 C1802 1.378 . S
C1795 C1794 1.367 . S
C1795 C1803 1.433 1_556 S
C1796 H1792 0.929 1_556 S
C1796 C1798 1.378 . S
C1796 C1800 1.350 . S
C1797 C1800 1.463 . S
C1797 C1802 1.350 . S
C1797 N1805 1.427 1_556 S
C1798 H1789 0.930 . S
C1798 C1796 1.378 . S
C1798 C1799 1.367 . S
C1799 C1798 1.367 . S
C1799 C1801 1.433 . S
C1800 C1796 1.350 . S
C1800 C1797 1.463 . S
C1800 N1804 1.427 . S
C1801 H1791 0.929 . S
C1801 C1799 1.433 . S
C1801 N1804 1.384 . S
C1802 H1793 0.929 . S
C1802 C1794 1.378 . S
C1802 C1797 1.350 . S
C1803 H1790 0.929 . S
C1803 C1795 1.433 1_554 S
C1803 N1805 1.384 . S
N1804 C1800 1.427 . S
N1804 C1801 1.384 . S
N1805 C1797 1.427 1_554 S
N1805 C1803 1.384 . S
H1806 C1812 0.930 . S
H1807 C1816 0.930 . S
H1808 C1821 0.929 . S
H1809 C1819 0.929 . S
H1810 C1814 0.929 . S
H1811 C1820 0.929 . S
C1812 H1806 0.930 . S
C1812 C1813 1.367 . S
C1812 C1820 1.378 1_565 S
C1813 C1812 1.367 . S
C1813 C1821 1.433 . S
C1814 H1810 0.929 . S
C1814 C1816 1.378 1_565 S
C1814 C1818 1.350 1_565 S
C1815 C1818 1.463 1_565 S
C1815 C1820 1.350 1_565 S
C1815 N1823 1.427 . S
C1816 H1807 0.930 . S
C1816 C1814 1.378 1_545 S
C1816 C1817 1.367 . S
C1817 C1816 1.367 . S
C1817 C1819 1.433 . S
C1818 C1814 1.350 1_545 S
C1818 C1815 1.463 1_545 S
C1818 N1822 1.427 . S
C1819 H1809 0.929 . S
C1819 C1817 1.433 . S
C1819 N1822 1.384 . S
C1820 H1811 0.929 . S
C1820 C1812 1.378 1_545 S
C1820 C1815 1.350 1_545 S
C1821 H1808 0.929 . S
C1821 C1813 1.433 . S
C1821 N1823 1.384 . S
N1822 C1818 1.427 . S
N1822 C1819 1.384 . S
N1823 C1815 1.427 . S
N1823 C1821 1.384 . S
H1824 C1830 0.930 . S
H1825 C1834 0.930 . S
H1826 C1839 0.929 . S
H1827 C1837 0.929 . S
H1828 C1832 0.929 . S
H1829 C1838 0.929 . S
C1830 H1824 0.930 . S
C1830 C1831 1.367 . S
C1830 C1838 1.378 . S
C1831 C1830 1.367 . S
C1831 C1839 1.433 . S
C1832 H1828 0.929 . S
C1832 C1834 1.378 . S
C1832 C1836 1.350 . S
C1833 C1836 1.463 . S
C1833 C1838 1.350 . S
C1833 N1841 1.427 . S
C1834 H1825 0.930 . S
C1834 C1832 1.378 . S
C1834 C1835 1.367 . S
C1835 C1834 1.367 . S
C1835 C1837 1.433 . S
C1836 C1832 1.350 . S
C1836 C1833 1.463 . S
C1836 N1840 1.427 . S
C1837 H1827 0.929 . S
C1837 C1835 1.433 . S
C1837 N1840 1.384 . S
C1838 H1829 0.929 . S
C1838 C1830 1.378 . S
C1838 C1833 1.350 . S
C1839 H1826 0.929 . S
C1839 C1831 1.433 . S
C1839 N1841 1.384 . S
N1840 C1836 1.427 . S
N1840 C1837 1.384 . S
N1841 C1833 1.427 . S
N1841 C1839 1.384 . S
H1842 C1848 0.930 . S
H1843 C1852 0.930 . S
H1844 C1857 0.929 . S
H1845 C1855 0.929 . S
H1846 C1850 0.929 . S
H1847 C1856 0.929 . S
C1848 H1842 0.930 . S
C1848 C1849 1.367 . S
C1848 C1856 1.378 . S
C1849 C1848 1.367 . S
C1849 C1857 1.433 . S
C1850 H1846 0.929 . S
C1850 C1852 1.378 . S
C1850 C1854 1.350 . S
C1851 C1854 1.463 . S
C1851 C1856 1.350 . S
C1851 N1859 1.427 . S
C1852 H1843 0.930 . S
C1852 C1850 1.378 . S
C1852 C1853 1.367 . S
C1853 C1852 1.367 . S
C1853 C1855 1.433 . S
C1854 C1850 1.350 . S
C1854 C1851 1.463 . S
C1854 N1858 1.427 . S
C1855 H1845 0.929 . S
C1855 C1853 1.433 . S
C1855 N1858 1.384 . S
C1856 H1847 0.929 . S
C1856 C1848 1.378 . S
C1856 C1851 1.350 . S
C1857 H1844 0.929 . S
C1857 C1849 1.433 . S
C1857 N1859 1.384 . S
N1858 C1854 1.427 . S
N1858 C1855 1.384 . S
N1859 C1851 1.427 . S
N1859 C1857 1.384 . S
H1860 C1866 0.930 . S
H1861 C1870 0.930 . S
H1862 C1875 0.929 . S
H1863 C1873 0.929 . S
H1864 C1868 0.929 . S
H1865 C1874 0.929 . S
C1866 H1860 0.930 . S
C1866 C1867 1.367 . S
C1866 C1874 1.378 . S
C1867 C1866 1.367 . S
C1867 C1875 1.433 . S
C1868 H1864 0.929 . S
C1868 C1870 1.378 . S
C1868 C1872 1.350 . S
C1869 C1872 1.463 . S
C1869 C1874 1.350 . S
C1869 N1877 1.427 . S
C1870 H1861 0.930 . S
C1870 C1868 1.378 . S
C1870 C1871 1.367 . S
C1871 C1870 1.367 . S
C1871 C1873 1.433 . S
C1872 C1868 1.350 . S
C1872 C1869 1.463 . S
C1872 N1876 1.427 . S
C1873 H1863 0.929 . S
C1873 C1871 1.433 . S
C1873 N1876 1.384 . S
C1874 H1865 0.929 . S
C1874 C1866 1.378 . S
C1874 C1869 1.350 . S
C1875 H1862 0.929 . S
C1875 C1867 1.433 . S
C1875 N1877 1.384 . S
N1876 C1872 1.427 . S
N1876 C1873 1.384 . S
N1877 C1869 1.427 . S
N1877 C1875 1.384 . S
H1878 C1884 0.930 . S
H1879 C1888 0.930 . S
H1880 C1893 0.951 . S
H1881 C1891 0.929 . S
H1882 C1886 0.929 . S
H1883 C1892 0.929 . S
C1884 H1878 0.930 . S
C1884 C1885 1.367 . S
C1884 C1892 1.378 . S
C1885 C1884 1.367 . S
C1885 C1893 1.433 . S
C1886 H1882 0.929 . S
C1886 C1888 1.378 . S
C1886 C1890 1.350 . S
C1887 C1890 1.463 . S
C1887 C1892 1.350 . S
C1887 N1895 1.427 . S
C1888 H1879 0.930 . S
C1888 C1886 1.378 . S
C1888 C1889 1.367 . S
C1889 C1888 1.367 . S
C1889 C1891 1.433 . S
C1890 C1886 1.350 . S
C1890 C1887 1.463 . S
C1890 N1894 1.427 . S
C1891 H1881 0.929 . S
C1891 C1889 1.433 . S
C1891 N1894 1.384 . S
C1892 H1883 0.929 . S
C1892 C1884 1.378 . S
C1892 C1887 1.350 . S
C1893 H1880 0.951 . S
C1893 C1885 1.433 . S
C1893 N1895 1.384 . S
N1894 C1890 1.427 . S
N1894 C1891 1.384 . S
N1895 C1887 1.427 . S
N1895 C1893 1.384 . S
H1896 C1902 0.930 . S
H1897 C1906 0.930 . S
H1898 C1911 0.929 . S
H1899 C1909 0.929 . S
H1900 C1904 0.929 . S
H1901 C1910 0.929 . S
C1902 H1896 0.930 . S
C1902 C1903 1.367 . S
C1902 C1910 1.378 . S
C1903 C1902 1.367 . S
C1903 C1911 1.433 . S
C1904 H1900 0.929 . S
C1904 C1906 1.378 . S
C1904 C1908 1.350 . S
C1905 C1908 1.463 1_556 S
C1905 C1910 1.350 . S
C1905 N1913 1.427 . S
C1906 H1897 0.930 . S
C1906 C1904 1.378 . S
C1906 C1907 1.367 . S
C1907 C1906 1.367 . S
C1907 C1909 1.433 . S
C1908 C1904 1.350 . S
C1908 C1905 1.463 1_554 S
C1908 N1912 1.427 . S
C1909 H1899 0.929 . S
C1909 C1907 1.433 . S
C1909 N1912 1.384 . S
C1910 H1901 0.929 . S
C1910 C1902 1.378 . S
C1910 C1905 1.350 . S
C1911 H1898 0.929 . S
C1911 C1903 1.433 . S
C1911 N1913 1.384 . S
N1912 C1908 1.427 . S
N1912 C1909 1.384 . S
N1913 C1905 1.427 . S
N1913 C1911 1.384 . S
H1914 C1920 0.930 . S
H1915 C1924 0.930 . S
H1916 C1929 0.929 . S
H1917 C1927 0.929 . S
H1918 C1922 0.929 . S
H1919 C1928 0.929 . S
C1920 H1914 0.930 . S
C1920 C1921 1.367 . S
C1920 C1928 1.378 . S
C1921 C1920 1.367 . S
C1921 C1929 1.433 . S
C1922 H1918 0.929 . S
C1922 C1924 1.378 . S
C1922 C1926 1.350 . S
C1923 C1926 1.463 . S
C1923 C1928 1.350 . S
C1923 N1931 1.427 . S
C1924 H1915 0.930 . S
C1924 C1922 1.378 . S
C1924 C1925 1.367 . S
C1925 C1924 1.367 . S
C1925 C1927 1.433 . S
C1926 C1922 1.350 . S
C1926 C1923 1.463 . S
C1926 N1930 1.427 . S
C1927 H1917 0.929 . S
C1927 C1925 1.433 . S
C1927 N1930 1.384 . S
C1928 H1919 0.929 . S
C1928 C1920 1.378 . S
C1928 C1923 1.350 . S
C1929 H1916 0.929 . S
C1929 C1921 1.433 . S
C1929 N1931 1.384 . S
N1930 C1926 1.427 . S
N1930 C1927 1.384 . S
N1931 C1923 1.427 . S
N1931 C1929 1.384 . S
H1932 C1938 0.930 . S
H1933 C1942 0.930 . S
H1934 C1947 0.929 . S
H1935 C1945 0.929 . S
H1936 C1940 0.929 . S
H1937 C1946 0.929 . S
C1938 H1932 0.930 . S
C1938 C1939 1.367 . S
C1938 C1946 1.378 . S
C1939 C1938 1.367 . S
C1939 C1947 1.433 . S
C1940 H1936 0.929 . S
C1940 C1942 1.378 . S
C1940 C1944 1.350 . S
C1941 C1944 1.463 1_554 S
C1941 C1946 1.350 . S
C1941 N1949 1.427 . S
C1942 H1933 0.930 . S
C1942 C1940 1.378 . S
C1942 C1943 1.367 . S
C1943 C1942 1.367 . S
C1943 C1945 1.433 . S
C1944 C1940 1.350 . S
C1944 C1941 1.463 1_556 S
C1944 N1948 1.427 . S
C1945 H1935 0.929 . S
C1945 C1943 1.433 . S
C1945 N1948 1.384 . S
C1946 H1937 0.929 . S
C1946 C1938 1.378 . S
C1946 C1941 1.350 . S
C1947 H1934 0.929 . S
C1947 C1939 1.433 . S
C1947 N1949 1.384 . S
N1948 C1944 1.427 . S
N1948 C1945 1.384 . S
N1949 C1941 1.427 . S
N1949 C1947 1.384 . S
H1950 C1956 0.930 . S
H1951 C1960 0.930 . S
H1952 C1965 0.929 . S
H1953 C1963 0.929 . S
H1954 C1958 0.929 . S
H1955 C1964 0.929 . S
C1956 H1950 0.930 . S
C1956 C1957 1.367 1_565 S
C1956 C1964 1.378 . S
C1957 C1956 1.367 1_545 S
C1957 C1965 1.433 . S
C1958 H1954 0.929 . S
C1958 C1960 1.378 . S
C1958 C1962 1.350 . S
C1959 C1962 1.463 . S
C1959 C1964 1.350 1_545 S
C1959 N1967 1.427 . S
C1960 H1951 0.930 . S
C1960 C1958 1.378 . S
C1960 C1961 1.367 . S
C1961 C1960 1.367 . S
C1961 C1963 1.433 . S
C1962 C1958 1.350 . S
C1962 C1959 1.463 . S
C1962 N1966 1.427 . S
C1963 H1953 0.929 . S
C1963 C1961 1.433 . S
C1963 N1966 1.384 . S
C1964 H1955 0.929 . S
C1964 C1956 1.378 . S
C1964 C1959 1.350 1_565 S
C1965 H1952 0.929 . S
C1965 C1957 1.433 . S
C1965 N1967 1.384 . S
N1966 C1962 1.427 . S
N1966 C1963 1.384 . S
N1967 C1959 1.427 . S
N1967 C1965 1.384 . S
H1968 C1974 0.930 . S
H1969 C1978 0.930 . S
H1970 C1983 0.929 . S
H1971 C1981 0.929 . S
H1972 C1976 0.929 . S
H1973 C1982 0.929 . S
C1974 H1968 0.930 . S
C1974 C1975 1.367 . S
C1974 C1982 1.378 . S
C1975 C1974 1.367 . S
C1975 C1983 1.433 . S
C1976 H1972 0.929 . S
C1976 C1978 1.378 . S
C1976 C1980 1.350 . S
C1977 C1980 1.463 . S
C1977 C1982 1.350 . S
C1977 N1985 1.427 . S
C1978 H1969 0.930 . S
C1978 C1976 1.378 . S
C1978 C1979 1.367 . S
C1979 C1978 1.367 . S
C1979 C1981 1.433 . S
C1980 C1976 1.350 . S
C1980 C1977 1.463 . S
C1980 N1984 1.427 . S
C1981 H1971 0.929 . S
C1981 C1979 1.433 . S
C1981 N1984 1.384 . S
C1982 H1973 0.929 . S
C1982 C1974 1.378 . S
C1982 C1977 1.350 . S
C1983 H1970 0.929 . S
C1983 C1975 1.433 . S
C1983 N1985 1.384 . S
N1984 C1980 1.427 . S
N1984 C1981 1.384 . S
N1985 C1977 1.427 . S
N1985 C1983 1.384 . S
H1986 C1992 0.930 . S
H1987 C1996 0.930 . S
H1988 C2001 0.929 . S
H1989 C1999 0.929 . S
H1990 C1994 0.929 . S
H1991 C2000 0.929 . S
C1992 H1986 0.930 . S
C1992 C1993 1.367 . S
C1992 C2000 1.378 . S
C1993 C1992 1.367 . S
C1993 C2001 1.433 . S
C1994 H1990 0.929 . S
C1994 C1996 1.378 . S
C1994 C1998 1.350 . S
C1995 C1998 1.463 . S
C1995 C2000 1.350 . S
C1995 N2003 1.427 . S
C1996 H1987 0.930 . S
C1996 C1994 1.378 . S
C1996 C1997 1.367 . S
C1997 C1996 1.367 . S
C1997 C1999 1.433 . S
C1998 C1994 1.350 . S
C1998 C1995 1.463 . S
C1998 N2002 1.427 . S
C1999 H1989 0.929 . S
C1999 C1997 1.433 . S
C1999 N2002 1.384 . S
C2000 H1991 0.929 . S
C2000 C1992 1.378 . S
C2000 C1995 1.350 . S
C2001 H1988 0.929 . S
C2001 C1993 1.433 . S
C2001 N2003 1.384 . S
N2002 C1998 1.427 . S
N2002 C1999 1.384 . S
N2003 C1995 1.427 . S
N2003 C2001 1.384 . S
H2004 C2010 0.930 . S
H2005 C2014 0.930 . S
H2006 C2019 0.929 . S
H2007 C2017 0.929 . S
H2008 C2012 0.929 . S
H2009 C2018 0.929 . S
C2010 H2004 0.930 . S
C2010 C2011 1.367 . S
C2010 C2018 1.378 . S
C2011 C2010 1.367 . S
C2011 C2019 1.433 . S
C2012 H2008 0.929 . S
C2012 C2014 1.378 . S
C2012 C2016 1.350 . S
C2013 C2016 1.463 . S
C2013 C2018 1.350 . S
C2013 N2021 1.427 . S
C2014 H2005 0.930 . S
C2014 C2012 1.378 . S
C2014 C2015 1.367 . S
C2015 C2014 1.367 . S
C2015 C2017 1.433 . S
C2016 C2012 1.350 . S
C2016 C2013 1.463 . S
C2016 N2020 1.427 . S
C2017 H2007 0.929 . S
C2017 C2015 1.433 . S
C2017 N2020 1.384 . S
C2018 H2009 0.929 . S
C2018 C2010 1.378 . S
C2018 C2013 1.350 . S
C2019 H2006 0.929 . S
C2019 C2011 1.433 . S
C2019 N2021 1.384 . S
N2020 C2016 1.427 . S
N2020 C2017 1.384 . S
N2021 C2013 1.427 . S
N2021 C2019 1.384 . S
H2022 C2028 0.930 . S
H2023 C2032 0.930 . S
H2024 C2037 0.929 1_545 S
H2025 C2035 0.929 . S
H2026 C2030 0.929 . S
H2027 C2036 0.929 . S
C2028 H2022 0.930 . S
C2028 C2029 1.367 . S
C2028 C2036 1.378 . S
C2029 C2028 1.367 . S
C2029 C2037 1.433 . S
C2030 H2026 0.929 . S
C2030 C2032 1.378 . S
C2030 C2034 1.350 . S
C2031 C2034 1.463 . S
C2031 C2036 1.350 . S
C2031 N2039 1.427 . S
C2032 H2023 0.930 . S
C2032 C2030 1.378 . S
C2032 C2033 1.367 . S
C2033 C2032 1.367 . S
C2033 C2035 1.433 . S
C2034 C2030 1.350 . S
C2034 C2031 1.463 . S
C2034 N2038 1.427 . S
C2035 H2025 0.929 . S
C2035 C2033 1.433 . S
C2035 N2038 1.384 . S
C2036 H2027 0.929 . S
C2036 C2028 1.378 . S
C2036 C2031 1.350 . S
C2037 H2024 0.929 1_565 S
C2037 C2029 1.433 . S
C2037 N2039 1.384 . S
N2038 C2034 1.427 . S
N2038 C2035 1.384 . S
N2039 C2031 1.427 . S
N2039 C2037 1.384 . S
H2040 C2046 0.930 . S
H2041 C2050 0.930 . S
H2042 C2055 0.929 . S
H2043 C2053 0.929 . S
H2044 C2048 0.929 . S
H2045 C2054 0.929 . S
C2046 H2040 0.930 . S
C2046 C2047 1.367 . S
C2046 C2054 1.378 . S
C2047 C2046 1.367 . S
C2047 C2055 1.433 . S
C2048 H2044 0.929 . S
C2048 C2050 1.378 . S
C2048 C2052 1.350 . S
C2049 C2052 1.463 . S
C2049 C2054 1.350 . S
C2049 N2057 1.427 . S
C2050 H2041 0.930 . S
C2050 C2048 1.378 . S
C2050 C2051 1.367 . S
C2051 C2050 1.367 . S
C2051 C2053 1.433 . S
C2052 C2048 1.350 . S
C2052 C2049 1.463 . S
C2052 N2056 1.427 . S
C2053 H2043 0.929 . S
C2053 C2051 1.433 . S
C2053 N2056 1.384 . S
C2054 H2045 0.929 . S
C2054 C2046 1.378 . S
C2054 C2049 1.350 . S
C2055 H2042 0.929 . S
C2055 C2047 1.433 . S
C2055 N2057 1.384 . S
N2056 C2052 1.427 . S
N2056 C2053 1.384 . S
N2057 C2049 1.427 . S
N2057 C2055 1.384 . S
H2058 C2064 0.930 . S
H2059 C2068 0.930 . S
H2060 C2073 0.929 . S
H2061 C2071 0.929 . S
H2062 C2066 0.929 . S
H2063 C2072 0.929 . S
C2064 H2058 0.930 . S
C2064 C2065 1.367 . S
C2064 C2072 1.378 . S
C2065 C2064 1.367 . S
C2065 C2073 1.433 . S
C2066 H2062 0.929 . S
C2066 C2068 1.378 . S
C2066 C2070 1.350 . S
C2067 C2070 1.463 . S
C2067 C2072 1.350 . S
C2067 N2075 1.427 . S
C2068 H2059 0.930 . S
C2068 C2066 1.378 . S
C2068 C2069 1.367 . S
C2069 C2068 1.367 . S
C2069 C2071 1.433 . S
C2070 C2066 1.350 . S
C2070 C2067 1.463 . S
C2070 N2074 1.427 . S
C2071 H2061 0.929 . S
C2071 C2069 1.433 . S
C2071 N2074 1.384 . S
C2072 H2063 0.929 . S
C2072 C2064 1.378 . S
C2072 C2067 1.350 . S
C2073 H2060 0.929 . S
C2073 C2065 1.433 . S
C2073 N2075 1.384 . S
N2074 C2070 1.427 . S
N2074 C2071 1.384 . S
N2075 C2067 1.427 . S
N2075 C2073 1.384 . S
H2076 C2082 0.930 . S
H2077 C2086 0.930 . S
H2078 C2091 0.929 . S
H2079 C2089 0.929 . S
H2080 C2084 0.929 . S
H2081 C2090 0.929 . S
C2082 H2076 0.930 . S
C2082 C2083 1.367 . S
C2082 C2090 1.378 . S
C2083 C2082 1.367 . S
C2083 C2091 1.433 . S
C2084 H2080 0.929 . S
C2084 C2086 1.378 . S
C2084 C2088 1.350 . S
C2085 C2088 1.463 . S
C2085 C2090 1.350 . S
C2085 N2093 1.427 . S
C2086 H2077 0.930 . S
C2086 C2084 1.378 . S
C2086 C2087 1.367 . S
C2087 C2086 1.367 . S
C2087 C2089 1.433 . S
C2088 C2084 1.350 . S
C2088 C2085 1.463 . S
C2088 N2092 1.427 . S
C2089 H2079 0.929 . S
C2089 C2087 1.433 . S
C2089 N2092 1.384 . S
C2090 H2081 0.929 . S
C2090 C2082 1.378 . S
C2090 C2085 1.350 . S
C2091 H2078 0.929 . S
C2091 C2083 1.433 . S
C2091 N2093 1.384 . S
N2092 C2088 1.427 . S
N2092 C2089 1.384 . S
N2093 C2085 1.427 . S
N2093 C2091 1.384 . S
H2094 C2100 0.930 . S
H2095 C2104 0.930 . S
H2096 C2109 0.929 . S
H2097 C2107 0.929 . S
H2098 C2102 0.929 1_556 S
H2099 C2108 0.929 . S
C2100 H2094 0.930 . S
C2100 C2101 1.367 . S
C2100 C2108 1.378 . S
C2101 C2100 1.367 . S
C2101 C2109 1.433 . S
C2102 H2098 0.929 1_554 S
C2102 C2104 1.378 1_554 S
C2102 C2106 1.350 . S
C2103 C2106 1.463 . S
C2103 C2108 1.350 . S
C2103 N2111 1.427 . S
C2104 H2095 0.930 . S
C2104 C2102 1.378 1_556 S
C2104 C2105 1.367 1_556 S
C2105 C2104 1.367 1_554 S
C2105 C2107 1.433 . S
C2106 C2102 1.350 . S
C2106 C2103 1.463 . S
C2106 N2110 1.427 . S
C2107 H2097 0.929 . S
C2107 C2105 1.433 . S
C2107 N2110 1.384 . S
C2108 H2099 0.929 . S
C2108 C2100 1.378 . S
C2108 C2103 1.350 . S
C2109 H2096 0.929 . S
C2109 C2101 1.433 . S
C2109 N2111 1.384 . S
N2110 C2106 1.427 . S
N2110 C2107 1.384 . S
N2111 C2103 1.427 . S
N2111 C2109 1.384 . S
H2112 C2118 0.930 . S
H2113 C2122 0.930 . S
H2114 C2127 0.929 . S
H2115 C2125 0.929 . S
H2116 C2120 0.929 . S
H2117 C2126 0.929 . S
C2118 H2112 0.930 . S
C2118 C2119 1.367 . S
C2118 C2126 1.378 . S
C2119 C2118 1.367 . S
C2119 C2127 1.433 . S
C2120 H2116 0.929 . S
C2120 C2122 1.378 . S
C2120 C2124 1.350 . S
C2121 C2124 1.463 . S
C2121 C2126 1.350 . S
C2121 N2129 1.427 . S
C2122 H2113 0.930 . S
C2122 C2120 1.378 . S
C2122 C2123 1.367 . S
C2123 C2122 1.367 . S
C2123 C2125 1.433 . S
C2124 C2120 1.350 . S
C2124 C2121 1.463 . S
C2124 N2128 1.427 . S
C2125 H2115 0.929 . S
C2125 C2123 1.433 . S
C2125 N2128 1.384 . S
C2126 H2117 0.929 . S
C2126 C2118 1.378 . S
C2126 C2121 1.350 . S
C2127 H2114 0.929 . S
C2127 C2119 1.433 . S
C2127 N2129 1.384 . S
N2128 C2124 1.427 . S
N2128 C2125 1.384 . S
N2129 C2121 1.427 . S
N2129 C2127 1.384 . S
H2130 C2136 0.930 . S
H2131 C2140 0.930 . S
H2132 C2145 0.929 . S
H2133 C2143 0.929 . S
H2134 C2138 0.929 . S
H2135 C2144 0.929 . S
C2136 H2130 0.930 . S
C2136 C2137 1.367 1_554 S
C2136 C2144 1.378 . S
C2137 C2136 1.367 1_556 S
C2137 C2145 1.433 . S
C2138 H2134 0.929 . S
C2138 C2140 1.378 . S
C2138 C2142 1.350 . S
C2139 C2142 1.463 . S
C2139 C2144 1.350 1_556 S
C2139 N2147 1.427 . S
C2140 H2131 0.930 . S
C2140 C2138 1.378 . S
C2140 C2141 1.367 . S
C2141 C2140 1.367 . S
C2141 C2143 1.433 . S
C2142 C2138 1.350 . S
C2142 C2139 1.463 . S
C2142 N2146 1.427 . S
C2143 H2133 0.929 . S
C2143 C2141 1.433 . S
C2143 N2146 1.384 . S
C2144 H2135 0.929 . S
C2144 C2136 1.378 . S
C2144 C2139 1.350 1_554 S
C2145 H2132 0.929 . S
C2145 C2137 1.433 . S
C2145 N2147 1.384 . S
N2146 C2142 1.427 . S
N2146 C2143 1.384 . S
N2147 C2139 1.427 . S
N2147 C2145 1.384 . S
H2148 C2154 0.930 . S
H2149 C2158 0.930 . S
H2150 C2163 0.929 . S
H2151 C2161 0.929 . S
H2152 C2156 0.929 . S
H2153 C2162 0.929 . S
C2154 H2148 0.930 . S
C2154 C2155 1.367 . S
C2154 C2162 1.378 . S
C2155 C2154 1.367 . S
C2155 C2163 1.433 . S
C2156 H2152 0.929 . S
C2156 C2158 1.378 . S
C2156 C2160 1.350 . S
C2157 C2160 1.463 . S
C2157 C2162 1.350 . S
C2157 N2165 1.427 . S
C2158 H2149 0.930 . S
C2158 C2156 1.378 . S
C2158 C2159 1.367 . S
C2159 C2158 1.367 . S
C2159 C2161 1.433 . S
C2160 C2156 1.350 . S
C2160 C2157 1.463 . S
C2160 N2164 1.427 . S
C2161 H2151 0.929 . S
C2161 C2159 1.433 . S
C2161 N2164 1.384 . S
C2162 H2153 0.929 . S
C2162 C2154 1.378 . S
C2162 C2157 1.350 . S
C2163 H2150 0.929 . S
C2163 C2155 1.433 . S
C2163 N2165 1.384 . S
N2164 C2160 1.427 . S
N2164 C2161 1.384 . S
N2165 C2157 1.427 . S
N2165 C2163 1.384 . S
H2166 C2172 0.930 . S
H2167 C2176 0.930 . S
H2168 C2181 0.929 . S
H2169 C2179 0.929 . S
H2170 C2174 0.929 . S
H2171 C2180 0.929 . S
C2172 H2166 0.930 . S
C2172 C2173 1.367 . S
C2172 C2180 1.378 . S
C2173 C2172 1.367 . S
C2173 C2181 1.433 . S
C2174 H2170 0.929 . S
C2174 C2176 1.378 . S
C2174 C2178 1.350 . S
C2175 C2178 1.463 . S
C2175 C2180 1.350 . S
C2175 N2183 1.427 . S
C2176 H2167 0.930 . S
C2176 C2174 1.378 . S
C2176 C2177 1.367 . S
C2177 C2176 1.367 . S
C2177 C2179 1.433 . S
C2178 C2174 1.350 . S
C2178 C2175 1.463 . S
C2178 N2182 1.427 . S
C2179 H2169 0.929 . S
C2179 C2177 1.433 . S
C2179 N2182 1.384 . S
C2180 H2171 0.929 . S
C2180 C2172 1.378 . S
C2180 C2175 1.350 . S
C2181 H2168 0.929 . S
C2181 C2173 1.433 . S
C2181 N2183 1.384 . S
N2182 C2178 1.427 . S
N2182 C2179 1.384 . S
N2183 C2175 1.427 . S
N2183 C2181 1.384 . S
H2184 C2190 0.930 . S
H2185 C2194 0.930 . S
H2186 C2199 0.929 . S
H2187 C2197 0.929 . S
H2188 C2192 0.929 . S
H2189 C2198 0.929 . S
C2190 H2184 0.930 . S
C2190 C2191 1.367 . S
C2190 C2198 1.378 . S
C2191 C2190 1.367 . S
C2191 C2199 1.433 . S
C2192 H2188 0.929 . S
C2192 C2194 1.378 . S
C2192 C2196 1.350 . S
C2193 C2196 1.463 . S
C2193 C2198 1.350 . S
C2193 N2201 1.427 . S
C2194 H2185 0.930 . S
C2194 C2192 1.378 . S
C2194 C2195 1.367 . S
C2195 C2194 1.367 . S
C2195 C2197 1.433 . S
C2196 C2192 1.350 . S
C2196 C2193 1.463 . S
C2196 N2200 1.427 . S
C2197 H2187 0.929 . S
C2197 C2195 1.433 . S
C2197 N2200 1.384 . S
C2198 H2189 0.929 . S
C2198 C2190 1.378 . S
C2198 C2193 1.350 . S
C2199 H2186 0.929 . S
C2199 C2191 1.433 . S
C2199 N2201 1.384 . S
N2200 C2196 1.427 . S
N2200 C2197 1.384 . S
N2201 C2193 1.427 . S
N2201 C2199 1.384 . S
H2202 C2208 0.930 . S
H2203 C2212 0.930 . S
H2204 C2217 0.929 . S
H2205 C2215 0.929 . S
H2206 C2210 0.929 . S
H2207 C2216 0.929 . S
C2208 H2202 0.930 . S
C2208 C2209 1.367 . S
C2208 C2216 1.378 . S
C2209 C2208 1.367 . S
C2209 C2217 1.433 . S
C2210 H2206 0.929 . S
C2210 C2212 1.378 . S
C2210 C2214 1.350 . S
C2211 C2214 1.463 1_554 S
C2211 C2216 1.350 . S
C2211 N2219 1.427 . S
C2212 H2203 0.930 . S
C2212 C2210 1.378 . S
C2212 C2213 1.367 . S
C2213 C2212 1.367 . S
C2213 C2215 1.433 . S
C2214 C2210 1.350 . S
C2214 C2211 1.463 1_556 S
C2214 N2218 1.427 . S
C2215 H2205 0.929 . S
C2215 C2213 1.433 . S
C2215 N2218 1.384 . S
C2216 H2207 0.929 . S
C2216 C2208 1.378 . S
C2216 C2211 1.350 . S
C2217 H2204 0.929 . S
C2217 C2209 1.433 . S
C2217 N2219 1.384 . S
N2218 C2214 1.427 . S
N2218 C2215 1.384 . S
N2219 C2211 1.427 . S
N2219 C2217 1.384 . S
H2220 C2226 0.930 . S
H2221 C2230 0.930 . S
H2222 C2235 0.929 . S
H2223 C2233 0.929 . S
H2224 C2228 0.929 . S
H2225 C2234 0.929 . S
C2226 H2220 0.930 . S
C2226 C2227 1.367 . S
C2226 C2234 1.378 . S
C2227 C2226 1.367 . S
C2227 C2235 1.433 . S
C2228 H2224 0.929 . S
C2228 C2230 1.378 . S
C2228 C2232 1.350 . S
C2229 C2232 1.463 . S
C2229 C2234 1.350 . S
C2229 N2237 1.427 . S
C2230 H2221 0.930 . S
C2230 C2228 1.378 . S
C2230 C2231 1.367 . S
C2231 C2230 1.367 . S
C2231 C2233 1.433 . S
C2232 C2228 1.350 . S
C2232 C2229 1.463 . S
C2232 N2236 1.427 . S
C2233 H2223 0.929 . S
C2233 C2231 1.433 . S
C2233 N2236 1.384 . S
C2234 H2225 0.929 . S
C2234 C2226 1.378 . S
C2234 C2229 1.350 . S
C2235 H2222 0.929 . S
C2235 C2227 1.433 . S
C2235 N2237 1.384 . S
N2236 C2232 1.427 . S
N2236 C2233 1.384 . S
N2237 C2229 1.427 . S
N2237 C2235 1.384 . S
H2238 C2244 0.930 . S
H2239 C2248 0.930 . S
H2240 C2253 0.929 . S
H2241 C2251 0.929 . S
H2242 C2246 0.929 . S
H2243 C2252 0.929 . S
C2244 H2238 0.930 . S
C2244 C2245 1.367 . S
C2244 C2252 1.378 . S
C2245 C2244 1.367 . S
C2245 C2253 1.433 . S
C2246 H2242 0.929 . S
C2246 C2248 1.378 . S
C2246 C2250 1.350 . S
C2247 C2250 1.463 . S
C2247 C2252 1.350 . S
C2247 N2255 1.427 . S
C2248 H2239 0.930 . S
C2248 C2246 1.378 . S
C2248 C2249 1.367 . S
C2249 C2248 1.367 . S
C2249 C2251 1.433 . S
C2250 C2246 1.350 . S
C2250 C2247 1.463 . S
C2250 N2254 1.427 . S
C2251 H2241 0.929 . S
C2251 C2249 1.433 . S
C2251 N2254 1.384 . S
C2252 H2243 0.929 . S
C2252 C2244 1.378 . S
C2252 C2247 1.350 . S
C2253 H2240 0.929 . S
C2253 C2245 1.433 . S
C2253 N2255 1.384 . S
N2254 C2250 1.427 . S
N2254 C2251 1.384 . S
N2255 C2247 1.427 . S
N2255 C2253 1.384 . S
H2256 C2262 0.930 . S
H2257 C2266 0.930 . S
H2258 C2271 0.929 . S
H2259 C2269 0.929 . S
H2260 C2264 0.929 . S
H2261 C2270 0.929 . S
C2262 H2256 0.930 . S
C2262 C2263 1.367 . S
C2262 C2270 1.378 . S
C2263 C2262 1.367 . S
C2263 C2271 1.433 . S
C2264 H2260 0.929 . S
C2264 C2266 1.378 . S
C2264 C2268 1.350 . S
C2265 C2268 1.463 . S
C2265 C2270 1.350 . S
C2265 N2273 1.427 . S
C2266 H2257 0.930 . S
C2266 C2264 1.378 . S
C2266 C2267 1.367 . S
C2267 C2266 1.367 . S
C2267 C2269 1.433 . S
C2268 C2264 1.350 . S
C2268 C2265 1.463 . S
C2268 N2272 1.427 . S
C2269 H2259 0.929 . S
C2269 C2267 1.433 . S
C2269 N2272 1.384 . S
C2270 H2261 0.929 . S
C2270 C2262 1.378 . S
C2270 C2265 1.350 . S
C2271 H2258 0.929 . S
C2271 C2263 1.433 . S
C2271 N2273 1.384 . S
N2272 C2268 1.427 . S
N2272 C2269 1.384 . S
N2273 C2265 1.427 . S
N2273 C2271 1.384 . S
H2274 C2280 0.930 . S
H2275 C2284 0.930 . S
H2276 C2289 0.929 . S
H2277 C2287 0.929 . S
H2278 C2282 0.929 . S
H2279 C2288 0.929 . S
C2280 H2274 0.930 . S
C2280 C2281 1.367 . S
C2280 C2288 1.378 . S
C2281 C2280 1.367 . S
C2281 C2289 1.433 . S
C2282 H2278 0.929 . S
C2282 C2284 1.378 . S
C2282 C2286 1.350 . S
C2283 C2286 1.463 . S
C2283 C2288 1.350 . S
C2283 N2291 1.427 . S
C2284 H2275 0.930 . S
C2284 C2282 1.378 . S
C2284 C2285 1.367 . S
C2285 C2284 1.367 . S
C2285 C2287 1.433 . S
C2286 C2282 1.350 . S
C2286 C2283 1.463 . S
C2286 N2290 1.427 . S
C2287 H2277 0.929 . S
C2287 C2285 1.433 . S
C2287 N2290 1.384 . S
C2288 H2279 0.929 . S
C2288 C2280 1.378 . S
C2288 C2283 1.350 . S
C2289 H2276 0.929 . S
C2289 C2281 1.433 . S
C2289 N2291 1.384 . S
N2290 C2286 1.427 . S
N2290 C2287 1.384 . S
N2291 C2283 1.427 . S
N2291 C2289 1.384 . S
H2292 C2298 0.930 . S
H2293 C2302 0.930 . S
H2294 C2307 0.929 . S
H2295 C2305 0.929 . S
H2296 C2300 0.929 . S
H2297 C2306 0.929 . S
C2298 H2292 0.930 . S
C2298 C2299 1.367 . S
C2298 C2306 1.378 . S
C2299 C2298 1.367 . S
C2299 C2307 1.433 . S
C2300 H2296 0.929 . S
C2300 C2302 1.378 . S
C2300 C2304 1.350 . S
C2301 C2304 1.463 . S
C2301 C2306 1.350 . S
C2301 N2309 1.427 . S
C2302 H2293 0.930 . S
C2302 C2300 1.378 . S
C2302 C2303 1.367 . S
C2303 C2302 1.367 . S
C2303 C2305 1.433 . S
C2304 C2300 1.350 . S
C2304 C2301 1.463 . S
C2304 N2308 1.427 . S
C2305 H2295 0.929 . S
C2305 C2303 1.433 . S
C2305 N2308 1.384 . S
C2306 H2297 0.929 . S
C2306 C2298 1.378 . S
C2306 C2301 1.350 . S
C2307 H2294 0.929 . S
C2307 C2299 1.433 . S
C2307 N2309 1.384 . S
N2308 C2304 1.427 . S
N2308 C2305 1.384 . S
N2309 C2301 1.427 . S
N2309 C2307 1.384 . S
H2310 C2316 0.930 . S
H2311 C2320 0.930 . S
H2312 C2325 0.929 . S
H2313 C2323 0.929 . S
H2314 C2318 0.929 . S
H2315 C2324 0.929 . S
C2316 H2310 0.930 . S
C2316 C2317 1.367 1_545 S
C2316 C2324 1.378 . S
C2317 C2316 1.367 1_565 S
C2317 C2325 1.433 . S
C2318 H2314 0.929 . S
C2318 C2320 1.378 . S
C2318 C2322 1.350 1_565 S
C2319 C2322 1.463 1_565 S
C2319 C2324 1.350 1_565 S
C2319 N2327 1.427 . S
C2320 H2311 0.930 . S
C2320 C2318 1.378 . S
C2320 C2321 1.367 1_565 S
C2321 C2320 1.367 1_545 S
C2321 C2323 1.433 . S
C2322 C2318 1.350 1_545 S
C2322 C2319 1.463 1_545 S
C2322 N2326 1.427 . S
C2323 H2313 0.929 . S
C2323 C2321 1.433 . S
C2323 N2326 1.384 . S
C2324 H2315 0.929 . S
C2324 C2316 1.378 . S
C2324 C2319 1.350 1_545 S
C2325 H2312 0.929 . S
C2325 C2317 1.433 . S
C2325 N2327 1.384 . S
N2326 C2322 1.427 . S
N2326 C2323 1.384 . S
N2327 C2319 1.427 . S
N2327 C2325 1.384 . S
H2328 C2334 0.930 . S
H2329 C2338 0.930 . S
H2330 C2343 0.929 . S
H2331 C2341 0.929 . S
H2332 C2336 0.929 . S
H2333 C2342 0.929 . S
C2334 H2328 0.930 . S
C2334 C2335 1.367 . S
C2334 C2342 1.378 . S
C2335 C2334 1.367 . S
C2335 C2343 1.433 . S
C2336 H2332 0.929 . S
C2336 C2338 1.378 . S
C2336 C2340 1.350 . S
C2337 C2340 1.463 1_455 S
C2337 C2342 1.350 . S
C2337 N2345 1.427 . S
C2338 H2329 0.930 . S
C2338 C2336 1.378 . S
C2338 C2339 1.367 . S
C2339 C2338 1.367 . S
C2339 C2341 1.433 . S
C2340 C2336 1.350 . S
C2340 C2337 1.463 1_655 S
C2340 N2344 1.427 . S
C2341 H2331 0.929 . S
C2341 C2339 1.433 . S
C2341 N2344 1.384 . S
C2342 H2333 0.929 . S
C2342 C2334 1.378 . S
C2342 C2337 1.350 . S
C2343 H2330 0.929 . S
C2343 C2335 1.433 . S
C2343 N2345 1.384 . S
N2344 C2340 1.427 . S
N2344 C2341 1.384 . S
N2345 C2337 1.427 . S
N2345 C2343 1.384 . S
H2346 C2352 0.930 . S
H2347 C2356 0.930 . S
H2348 C2361 0.929 . S
H2349 C2359 0.929 . S
H2350 C2354 0.920 1_545 S
H2351 C2360 0.920 1_565 S
C2352 H2346 0.930 . S
C2352 C2353 1.367 . S
C2352 C2360 1.383 . S
C2353 C2352 1.367 . S
C2353 C2361 1.433 . S
C2354 H2350 0.920 1_565 S
C2354 C2356 1.383 . S
C2354 C2358 1.353 . S
C2355 C2358 1.463 1_445 S
C2355 C2360 1.353 . S
C2355 N2363 1.427 . S
C2356 H2347 0.930 . S
C2356 C2354 1.383 . S
C2356 C2357 1.367 . S
C2357 C2356 1.367 . S
C2357 C2359 1.433 . S
C2358 C2354 1.353 . S
C2358 C2355 1.463 1_665 S
C2358 N2362 1.427 . S
C2359 H2349 0.929 . S
C2359 C2357 1.433 . S
C2359 N2362 1.384 . S
C2360 H2351 0.920 1_545 S
C2360 C2352 1.383 . S
C2360 C2355 1.353 . S
C2361 H2348 0.929 . S
C2361 C2353 1.433 . S
C2361 N2363 1.384 . S
N2362 C2358 1.427 . S
N2362 C2359 1.384 . S
N2363 C2355 1.427 . S
N2363 C2361 1.384 . S
H2364 C2370 0.930 . S
H2365 C2374 0.930 . S
H2366 C2379 0.929 . S
H2367 C2377 0.929 . S
H2368 C2372 0.929 . S
H2369 C2378 0.929 . S
C2370 H2364 0.930 . S
C2370 C2371 1.367 . S
C2370 C2378 1.378 . S
C2371 C2370 1.367 . S
C2371 C2379 1.433 . S
C2372 H2368 0.929 . S
C2372 C2374 1.378 . S
C2372 C2376 1.350 . S
C2373 C2376 1.463 1_556 S
C2373 C2378 1.350 . S
C2373 N2381 1.427 . S
C2374 H2365 0.930 . S
C2374 C2372 1.378 . S
C2374 C2375 1.367 . S
C2375 C2374 1.367 . S
C2375 C2377 1.433 . S
C2376 C2372 1.350 . S
C2376 C2373 1.463 1_554 S
C2376 N2380 1.427 . S
C2377 H2367 0.929 . S
C2377 C2375 1.433 . S
C2377 N2380 1.384 . S
C2378 H2369 0.929 . S
C2378 C2370 1.378 . S
C2378 C2373 1.350 . S
C2379 H2366 0.929 . S
C2379 C2371 1.433 . S
C2379 N2381 1.384 . S
N2380 C2376 1.427 . S
N2380 C2377 1.384 . S
N2381 C2373 1.427 . S
N2381 C2379 1.384 . S
H2382 C2388 0.930 . S
H2383 C2392 0.930 . S
H2384 C2397 0.929 . S
H2385 C2395 0.929 . S
H2386 C2390 0.929 . S
H2387 C2396 0.929 . S
C2388 H2382 0.930 . S
C2388 C2389 1.367 . S
C2388 C2396 1.378 . S
C2389 C2388 1.367 . S
C2389 C2397 1.433 . S
C2390 H2386 0.929 . S
C2390 C2392 1.378 . S
C2390 C2394 1.350 . S
C2391 C2394 1.463 . S
C2391 C2396 1.350 . S
C2391 N2399 1.427 . S
C2392 H2383 0.930 . S
C2392 C2390 1.378 . S
C2392 C2393 1.367 . S
C2393 C2392 1.367 . S
C2393 C2395 1.433 . S
C2394 C2390 1.350 . S
C2394 C2391 1.463 . S
C2394 N2398 1.427 . S
C2395 H2385 0.929 . S
C2395 C2393 1.433 . S
C2395 N2398 1.384 . S
C2396 H2387 0.929 . S
C2396 C2388 1.378 . S
C2396 C2391 1.350 . S
C2397 H2384 0.929 . S
C2397 C2389 1.433 . S
C2397 N2399 1.384 . S
N2398 C2394 1.427 . S
N2398 C2395 1.384 . S
N2399 C2391 1.427 . S
N2399 C2397 1.384 . S
C679 C385 1.076 . S
C683 C7 1.095 . S
C697 C21 0.478 . S
C701 C541 0.510 . S
C715 C35 0.710 . S
C719 C357 0.735 . S
C733 C569 1.127 . S
C737 C49 1.146 . S
C751 C399 0.597 . S
C755 C65 0.658 . S
C769 C77 1.087 . S
C773 C315 1.081 . S
C787 C427 0.867 . S
C791 C93 0.871 . S
C805 C105 0.725 . S
C809 C287 0.723 . S
C823 C499 0.874 . S
C827 C107 0.857 . S
C841 C469 0.387 . S
C845 C63 0.405 . S
C859 C79 0.639 . S
C863 C597 0.635 . S
C877 C483 0.631 . S
C881 C91 0.628 . S
C895 C121 0.745 . S
C899 C191 0.731 . S
C913 C203 0.487 . S
C917 C135 0.369 . S
C931 C219 0.789 . S
C935 C149 0.760 . S
C949 C175 0.741 . S
C953 C163 0.761 . S
C967 C189 0.649 . S
C971 C343 0.611 . S
C985 C205 0.390 . S
C989 C555 0.293 . S
C1003 C371 0.424 . S
C1007 C217 0.419 . S
C1021 C387 0.614 . S
C1025 C233 0.638 . S
C1039 C245 0.764 . S
C1043 C415 0.734 . S
C1057 C261 0.458 . S
C1061 C51 0.347 . S
C1075 C275 1.155 . S
C1079 C23 1.118 . S
C1093 C625 1.127 . S
C1097 C301 1.147 . S
C1111 C653 0.525 . S
C1115 C329 0.468 . S
C1129 C345 0.884 . S
C1133 C119 0.863 . S
C1147 C373 0.622 . S
C1151 C147 0.595 . S
C1165 C359 0.873 . S
C1169 C611 0.895 . S
C1183 C471 0.788 . S
C1187 C401 0.759 . S
C1201 C485 0.747 . S
C1205 C429 0.742 . S
C1219 C455 0.485 . S
C1223 C443 0.367 . S
C1237 C247 1.038 . S
C1241 C639 1.039 . S
C1255 C513 1.133 . S
C1259 C331 1.128 . S
C1273 C303 0.326 . S
C1277 C527 0.450 . S
C1291 C665 1.385 . S
C1295 C441 1.380 . S
C1309 C413 0.474 . S
C1313 C637 0.356 . S
C1327 C133 1.398 . S
C1331 C553 1.366 . S
C1345 C161 0.491 . S
C1349 C581 0.345 . S
C1363 C177 1.006 . S
C1367 C583 1.042 . S
C1381 C273 0.624 . S
C1385 C539 0.659 . S
C1399 C259 0.673 . S
C1403 C567 0.652 . S
C1417 C317 0.664 . S
C1421 C595 0.654 . S
C1435 C289 0.395 . S
C1439 C497 0.487 . S
C1453 C623 0.663 . S
C1457 C525 0.652 . S
C1471 C651 0.628 . S
C1475 C511 0.656 . S
C1489 C667 0.339 . S
C1493 C457 0.409 . S
C1507 C609 0.493 . S
C1511 C37 0.390 . S
C1525 C231 0.657 . S
C1529 C9 0.648 . S
C1543 C8 1.903 . S
C1547 C647 1.993 . S
C1561 C22 1.638 . S
C1565 C666 1.725 . S
C1579 C36 1.480 . S
C1583 C619 1.410 1_565 S
C1597 C50 2.059 . S
C1601 C638 2.010 . S
C1615 C59 1.686 . S
C1619 C134 1.559 . S
C1633 C78 1.479 . S
C1637 C148 1.350 . S
C1651 C87 1.661 . S
C1655 C162 1.781 . S
C1669 C106 1.896 . S
C1673 C120 2.108 . S
C1687 C101 2.101 . S
C1691 C549 1.944 . S
C1705 C64 1.729 . S
C1709 C372 1.729 . S
C1723 C73 1.332 . S
C1727 C577 1.412 1_554 S
C1741 C92 1.904 . S
C1745 C344 1.908 . S
C1759 C115 1.091 . S
C1763 C325 1.135 . S
C1777 C129 2.319 . S
C1781 C437 2.312 . S
C1795 C143 1.463 . S
C1799 C297 1.272 . S
C1813 C409 1.444 . S
C1817 C157 1.444 . S
C1831 C176 2.124 . S
C1835 C274 2.118 . S
C1849 C190 1.504 . S
C1853 C232 1.498 . S
C1867 C269 1.743 . S
C1871 C199 1.827 . S
C1885 C610 2.335 . S
C1889 C218 2.319 . S
C1903 C213 1.962 . S
C1907 C227 2.068 . S
C1921 C512 2.114 . S
C1925 C246 2.129 . S
C1939 C171 1.668 . S
C1943 C255 1.738 . S
C1957 C563 1.418 1_545 S
C1961 C288 1.480 . S
C1975 C582 2.001 . S
C1979 C302 2.057 . S
C1993 C316 1.917 . S
C1997 C535 2.003 . S
C2011 C554 1.712 . S
C2015 C330 1.628 . S
C2029 C339 1.654 . S
C2033 C414 1.778 . S
C2047 C428 2.107 . S
C2051 C358 1.896 . S
C2065 C367 1.678 . S
C2069 C442 1.550 . S
C2083 C400 1.347 . S
C2087 C386 1.469 . S
C2101 C381 1.349 . S
C2105 C633 1.423 1_554 S
C2119 C661 1.949 . S
C2123 C353 2.106 . S
C2137 C395 1.458 . S
C2141 C45 1.254 . S
C2155 C17 1.137 . S
C2159 C423 1.078 . S
C2173 C526 1.418 . S
C2177 C456 1.425 . S
C2191 C498 2.324 . S
C2195 C470 2.317 . S
C2209 C241 1.659 . S
C2213 C521 1.730 . S
C2227 C484 1.492 . S
C2231 C596 1.487 . S
C2245 C493 1.750 . S
C2249 C479 1.858 . S
C2263 C204 1.434 . S
C2267 C260 1.427 . S
C2281 C451 1.839 . S
C2285 C507 1.760 . S
C2299 C652 1.509 . S
C2303 C540 1.509 . S
C2317 C568 1.876 . S
C2321 C624 1.870 . S
C2335 C3 2.065 . S
C2339 C311 2.068 . S
C2353 C283 1.953 . S
C2357 C31 1.949 . S
C2371 C465 1.961 . S
C2375 C591 2.066 . S
C2389 C185 1.844 . S
C2393 C605 1.733 . S
