# Generated by pormake.
# Topology hbo, (4)-cn, num edge types: 1
# Building blocks:
#     Node 0, Type 0, BuildingBlock: ICAMEG_clean_sbu_1, # of connection points: 4
#     Node 1, Type 0, BuildingBlock: ICAMEG_clean_sbu_1, # of connection points: 4
#     Node 2, Type 0, BuildingBlock: ICAMEG_clean_sbu_1, # of connection points: 4
#     Node 3, Type 0, BuildingBlock: ICAMEG_clean_sbu_1, # of connection points: 4
#     Node 4, Type 0, BuildingBlock: ICAMEG_clean_sbu_1, # of connection points: 4
#     Node 5, Type 0, BuildingBlock: ICAMEG_clean_sbu_1, # of connection points: 4
#     Node 6, Type 0, BuildingBlock: ICAMEG_clean_sbu_1, # of connection points: 4
#     Node 7, Type 0, BuildingBlock: ICAMEG_clean_sbu_1, # of connection points: 4
#     Node 8, Type 0, BuildingBlock: ICAMEG_clean_sbu_1, # of connection points: 4
#     Node 9, Type 0, BuildingBlock: ICAMEG_clean_sbu_1, # of connection points: 4
#     Node 10, Type 0, BuildingBlock: ICAMEG_clean_sbu_1, # of connection points: 4
#     Node 11, Type 0, BuildingBlock: ICAMEG_clean_sbu_1, # of connection points: 4
#     Node 12, Type 0, BuildingBlock: ICAMEG_clean_sbu_1, # of connection points: 4
#     Node 13, Type 0, BuildingBlock: ICAMEG_clean_sbu_1, # of connection points: 4
#     Node 14, Type 0, BuildingBlock: ICAMEG_clean_sbu_1, # of connection points: 4
#     Node 15, Type 0, BuildingBlock: ICAMEG_clean_sbu_1, # of connection points: 4
#     Node 16, Type 0, BuildingBlock: ICAMEG_clean_sbu_1, # of connection points: 4
#     Node 17, Type 0, BuildingBlock: ICAMEG_clean_sbu_1, # of connection points: 4
#     Node 18, Type 0, BuildingBlock: ICAMEG_clean_sbu_1, # of connection points: 4
#     Node 19, Type 0, BuildingBlock: ICAMEG_clean_sbu_1, # of connection points: 4
#     Node 20, Type 0, BuildingBlock: ICAMEG_clean_sbu_1, # of connection points: 4
#     Node 21, Type 0, BuildingBlock: ICAMEG_clean_sbu_1, # of connection points: 4
#     Node 22, Type 0, BuildingBlock: ICAMEG_clean_sbu_1, # of connection points: 4
#     Node 23, Type 0, BuildingBlock: ICAMEG_clean_sbu_1, # of connection points: 4
#     Edge 24, Type (0, 0), BuildingBlock: TEMPAE_clean_linker_10, # of connection points: 2
#     Edge 25, Type (0, 0), BuildingBlock: TEMPAE_clean_linker_10, # of connection points: 2
#     Edge 26, Type (0, 0), BuildingBlock: TEMPAE_clean_linker_10, # of connection points: 2
#     Edge 27, Type (0, 0), BuildingBlock: TEMPAE_clean_linker_10, # of connection points: 2
#     Edge 28, Type (0, 0), BuildingBlock: TEMPAE_clean_linker_10, # of connection points: 2
#     Edge 29, Type (0, 0), BuildingBlock: TEMPAE_clean_linker_10, # of connection points: 2
#     Edge 30, Type (0, 0), BuildingBlock: TEMPAE_clean_linker_10, # of connection points: 2
#     Edge 31, Type (0, 0), BuildingBlock: TEMPAE_clean_linker_10, # of connection points: 2
#     Edge 32, Type (0, 0), BuildingBlock: TEMPAE_clean_linker_10, # of connection points: 2
#     Edge 33, Type (0, 0), BuildingBlock: TEMPAE_clean_linker_10, # of connection points: 2
#     Edge 34, Type (0, 0), BuildingBlock: TEMPAE_clean_linker_10, # of connection points: 2
#     Edge 35, Type (0, 0), BuildingBlock: TEMPAE_clean_linker_10, # of connection points: 2
#     Edge 36, Type (0, 0), BuildingBlock: TEMPAE_clean_linker_10, # of connection points: 2
#     Edge 37, Type (0, 0), BuildingBlock: TEMPAE_clean_linker_10, # of connection points: 2
#     Edge 38, Type (0, 0), BuildingBlock: TEMPAE_clean_linker_10, # of connection points: 2
#     Edge 39, Type (0, 0), BuildingBlock: TEMPAE_clean_linker_10, # of connection points: 2
#     Edge 40, Type (0, 0), BuildingBlock: TEMPAE_clean_linker_10, # of connection points: 2
#     Edge 41, Type (0, 0), BuildingBlock: TEMPAE_clean_linker_10, # of connection points: 2
#     Edge 42, Type (0, 0), BuildingBlock: TEMPAE_clean_linker_10, # of connection points: 2
#     Edge 43, Type (0, 0), BuildingBlock: TEMPAE_clean_linker_10, # of connection points: 2
#     Edge 44, Type (0, 0), BuildingBlock: TEMPAE_clean_linker_10, # of connection points: 2
#     Edge 45, Type (0, 0), BuildingBlock: TEMPAE_clean_linker_10, # of connection points: 2
#     Edge 46, Type (0, 0), BuildingBlock: TEMPAE_clean_linker_10, # of connection points: 2
#     Edge 47, Type (0, 0), BuildingBlock: TEMPAE_clean_linker_10, # of connection points: 2
#     Edge 48, Type (0, 0), BuildingBlock: TEMPAE_clean_linker_10, # of connection points: 2
#     Edge 49, Type (0, 0), BuildingBlock: TEMPAE_clean_linker_10, # of connection points: 2
#     Edge 50, Type (0, 0), BuildingBlock: TEMPAE_clean_linker_10, # of connection points: 2
#     Edge 51, Type (0, 0), BuildingBlock: TEMPAE_clean_linker_10, # of connection points: 2
#     Edge 52, Type (0, 0), BuildingBlock: TEMPAE_clean_linker_10, # of connection points: 2
#     Edge 53, Type (0, 0), BuildingBlock: TEMPAE_clean_linker_10, # of connection points: 2
#     Edge 54, Type (0, 0), BuildingBlock: TEMPAE_clean_linker_10, # of connection points: 2
#     Edge 55, Type (0, 0), BuildingBlock: TEMPAE_clean_linker_10, # of connection points: 2
#     Edge 56, Type (0, 0), BuildingBlock: TEMPAE_clean_linker_10, # of connection points: 2
#     Edge 57, Type (0, 0), BuildingBlock: TEMPAE_clean_linker_10, # of connection points: 2
#     Edge 58, Type (0, 0), BuildingBlock: TEMPAE_clean_linker_10, # of connection points: 2
#     Edge 59, Type (0, 0), BuildingBlock: TEMPAE_clean_linker_10, # of connection points: 2
#     Edge 60, Type (0, 0), BuildingBlock: TEMPAE_clean_linker_10, # of connection points: 2
#     Edge 61, Type (0, 0), BuildingBlock: TEMPAE_clean_linker_10, # of connection points: 2
#     Edge 62, Type (0, 0), BuildingBlock: TEMPAE_clean_linker_10, # of connection points: 2
#     Edge 63, Type (0, 0), BuildingBlock: TEMPAE_clean_linker_10, # of connection points: 2
#     Edge 64, Type (0, 0), BuildingBlock: TEMPAE_clean_linker_10, # of connection points: 2
#     Edge 65, Type (0, 0), BuildingBlock: TEMPAE_clean_linker_10, # of connection points: 2
#     Edge 66, Type (0, 0), BuildingBlock: TEMPAE_clean_linker_10, # of connection points: 2
#     Edge 67, Type (0, 0), BuildingBlock: TEMPAE_clean_linker_10, # of connection points: 2
#     Edge 68, Type (0, 0), BuildingBlock: TEMPAE_clean_linker_10, # of connection points: 2
#     Edge 69, Type (0, 0), BuildingBlock: TEMPAE_clean_linker_10, # of connection points: 2
#     Edge 70, Type (0, 0), BuildingBlock: TEMPAE_clean_linker_10, # of connection points: 2
#     Edge 71, Type (0, 0), BuildingBlock: TEMPAE_clean_linker_10, # of connection points: 2
# Relax obj value: 0.141
# Max RMSD: 0.173
# Mean RMSD: 0.173
data_MOF--net-hbo--node1-ICAMEG_clean_sbu_1--edge1-TEMPAE_clean_linker_10
_symmetry_space_group_name_H-M    P1
_symmetry_Int_Tables_number       1
_symmetry_cell_setting            triclinic
loop_
_symmetry_equiv_pos_as_xyz
'x, y, z'
_cell_length_a     56.882666
_cell_length_b     56.858749
_cell_length_c     56.86269
_cell_angle_alpha  90.006207
_cell_angle_beta   89.997378
_cell_angle_gamma 90.010771
loop_
_atom_site_label
_atom_site_type_symbol
_atom_site_fract_x
_atom_site_fract_y
_atom_site_fract_z
_atom_type_partial_charge
Co0 Co 0.15715 0.37353 0.26129 0.0
Co1 Co 0.12151 0.33632 0.23029 0.0
O2 O 0.12765 0.36602 0.24591 0.0
C3 C 0.15001 0.4134 0.22887 0.0
O4 O 0.14907 0.39824 0.21149 0.0
C5 C 0.08183 0.34051 0.26337 0.0
O6 O 0.0972 0.34173 0.28054 0.0
O7 O 0.13119 0.31858 0.25875 0.0
O8 O 0.16081 0.34055 0.27302 0.0
H9 H 0.13817 0.25282 0.20665 0.0
H10 H 0.11453 0.40204 0.27097 0.0
O11 O 0.15372 0.40654 0.24987 0.0
H12 H 0.13924 0.37072 0.34796 0.0
H13 H 0.21136 0.42563 0.308 0.0
H14 H 0.20377 0.35053 0.26529 0.0
H15 H 0.16193 0.3616 0.31214 0.0
H16 H 0.17386 0.41468 0.28911 0.0
O17 O 0.0885 0.33795 0.24213 0.0
H18 H 0.14663 0.29084 0.22574 0.0
H19 H 0.08103 0.31793 0.20261 0.0
H20 H 0.24151 0.36066 0.28406 0.0
H21 H 0.09145 0.41176 0.30637 0.0
H22 H 0.24548 0.39846 0.30562 0.0
H23 H 0.10375 0.39601 0.34521 0.0
O24 O 0.17507 0.36503 0.23254 0.0
H25 H 0.07951 0.40043 0.18629 0.0
H26 H 0.13327 0.33274 0.17931 0.0
H27 H 0.12269 0.35534 0.14383 0.0
H28 H 0.09559 0.38943 0.14719 0.0
H29 H 0.09071 0.37748 0.22133 0.0
H30 H 0.07173 0.28012 0.18342 0.0
H31 H 0.10047 0.24728 0.18529 0.0
O32 O 0.15453 0.33438 0.2183 0.0
C33 C 0.14875 0.32162 0.27235 0.0
C34 C 0.12555 0.26703 0.2056 0.0
C35 C 0.08825 0.28234 0.1926 0.0
N36 N 0.11449 0.30667 0.21499 0.0
C37 C 0.1303 0.28863 0.21629 0.0
C38 C 0.0936 0.3037 0.2035 0.0
C39 C 0.10439 0.26393 0.19365 0.0
C40 C 0.12013 0.3953 0.28784 0.0
N41 N 0.13966 0.38142 0.28951 0.0
C42 C 0.10693 0.40079 0.30781 0.0
C43 C 0.11382 0.39192 0.32959 0.0
C44 C 0.13373 0.37772 0.33114 0.0
C45 C 0.14648 0.37258 0.3108 0.0
C46 C 0.20983 0.40907 0.29872 0.0
C47 C 0.2053 0.36691 0.2748 0.0
C48 C 0.18866 0.4028 0.28797 0.0
N49 N 0.18656 0.38186 0.27636 0.0
C50 C 0.22674 0.3726 0.28532 0.0
C51 C 0.22897 0.39382 0.29739 0.0
C52 C 0.17288 0.34731 0.21896 0.0
C53 C 0.09126 0.38556 0.18458 0.0
C54 C 0.1215 0.34758 0.18092 0.0
C55 C 0.11554 0.36028 0.16076 0.0
C56 C 0.10032 0.3794 0.16266 0.0
N57 N 0.11248 0.35368 0.20234 0.0
C58 C 0.09759 0.37243 0.20435 0.0
Co59 Co 0.15894 0.6268 0.74128 0.0
Co60 Co 0.12258 0.66081 0.77506 0.0
O61 O 0.12957 0.63225 0.75775 0.0
C62 C 0.15482 0.58479 0.77165 0.0
O63 O 0.15442 0.59877 0.79001 0.0
C64 C 0.08251 0.65699 0.74247 0.0
O65 O 0.09778 0.65677 0.72516 0.0
O66 O 0.13095 0.68048 0.74743 0.0
O67 O 0.16095 0.66045 0.73122 0.0
H68 H 0.13654 0.7435 0.80297 0.0
H69 H 0.1172 0.59712 0.7312 0.0
O70 O 0.15713 0.59308 0.75097 0.0
H71 H 0.13863 0.63327 0.65534 0.0
H72 H 0.21397 0.57949 0.6906 0.0
H73 H 0.20447 0.65194 0.73732 0.0
H74 H 0.1619 0.64148 0.69101 0.0
H75 H 0.17657 0.58787 0.71093 0.0
O76 O 0.08936 0.65862 0.76375 0.0
H77 H 0.146 0.70698 0.78157 0.0
H78 H 0.08207 0.67602 0.80456 0.0
H79 H 0.24209 0.64436 0.71714 0.0
H80 H 0.0936 0.58826 0.69592 0.0
H81 H 0.24702 0.6079 0.69357 0.0
H82 H 0.10424 0.60644 0.65765 0.0
O83 O 0.17733 0.63467 0.76995 0.0
H84 H 0.08394 0.59285 0.81626 0.0
H85 H 0.13539 0.66201 0.82589 0.0
H86 H 0.12645 0.63709 0.86027 0.0
H87 H 0.10051 0.60226 0.85556 0.0
H88 H 0.09347 0.61813 0.78233 0.0
H89 H 0.07178 0.7123 0.82605 0.0
H90 H 0.09918 0.74632 0.82542 0.0
O91 O 0.1558 0.66344 0.78644 0.0
C92 C 0.14821 0.67882 0.73323 0.0
C93 C 0.12451 0.72875 0.80348 0.0
C94 C 0.08815 0.71125 0.81641 0.0
N95 N 0.11478 0.68928 0.79212 0.0
C96 C 0.12983 0.70799 0.79149 0.0
C97 C 0.09406 0.69077 0.8042 0.0
C98 C 0.10353 0.73033 0.81605 0.0
C99 C 0.1221 0.6049 0.71456 0.0
N100 N 0.14103 0.61963 0.71313 0.0
C101 C 0.1086 0.59991 0.69467 0.0
C102 C 0.11456 0.61014 0.67321 0.0
C103 C 0.13385 0.6252 0.6719 0.0
C104 C 0.14693 0.62981 0.69217 0.0
C105 C 0.21201 0.59547 0.70076 0.0
C106 C 0.20641 0.63614 0.72693 0.0
C107 C 0.19089 0.60029 0.71232 0.0
N108 N 0.18826 0.62051 0.72506 0.0
C109 C 0.22779 0.6319 0.71562 0.0
C110 C 0.23055 0.61142 0.70242 0.0
C111 C 0.17479 0.65159 0.78447 0.0
C112 C 0.0952 0.60803 0.81855 0.0
C113 C 0.12413 0.64685 0.8237 0.0
C114 C 0.1191 0.63283 0.84324 0.0
C115 C 0.10453 0.6133 0.84059 0.0
N116 N 0.11484 0.64161 0.80217 0.0
C117 C 0.10059 0.62246 0.79942 0.0
Co118 Co 0.83605 0.62624 0.26141 0.0
Co119 Co 0.87505 0.66261 0.23389 0.0
O120 O 0.86673 0.63266 0.24797 0.0
C121 C 0.84214 0.58627 0.22867 0.0
O122 O 0.84361 0.60132 0.21123 0.0
C123 C 0.91315 0.65463 0.26818 0.0
O124 O 0.89704 0.65317 0.28465 0.0
O125 O 0.8651 0.67961 0.26274 0.0
O126 O 0.83301 0.65918 0.27346 0.0
H127 H 0.86353 0.74774 0.21316 0.0
H128 H 0.87672 0.59577 0.27321 0.0
O129 O 0.83877 0.59326 0.24968 0.0
H130 H 0.84855 0.62694 0.34907 0.0
H131 H 0.77678 0.57588 0.30367 0.0
H132 H 0.79028 0.65119 0.26282 0.0
H133 H 0.82856 0.63758 0.31208 0.0
H134 H 0.81586 0.58547 0.28742 0.0
O135 O 0.90742 0.65877 0.24691 0.0
H136 H 0.85237 0.70944 0.23019 0.0
H137 H 0.91757 0.68005 0.20877 0.0
H138 H 0.75099 0.6424 0.27893 0.0
H139 H 0.89709 0.5845 0.30979 0.0
H140 H 0.74405 0.60451 0.29954 0.0
H141 H 0.88304 0.60017 0.34807 0.0
O142 O 0.82045 0.63603 0.23176 0.0
H143 H 0.91546 0.59824 0.1888 0.0
H144 H 0.86572 0.669 0.18268 0.0
H145 H 0.87663 0.6474 0.14668 0.0
H146 H 0.90173 0.61178 0.14961 0.0
H147 H 0.90397 0.62025 0.22436 0.0
H148 H 0.92955 0.7181 0.19166 0.0
H149 H 0.90238 0.75224 0.19372 0.0
O150 O 0.84267 0.66681 0.22066 0.0
C151 C 0.84623 0.67728 0.27461 0.0
C152 C 0.87548 0.73296 0.21205 0.0
C153 C 0.91254 0.71634 0.20002 0.0
N154 N 0.88418 0.69247 0.2202 0.0
C155 C 0.86921 0.71121 0.22158 0.0
C156 C 0.90568 0.69485 0.20975 0.0
C157 C 0.89729 0.73549 0.20117 0.0
C158 C 0.87035 0.60246 0.28982 0.0
N159 N 0.85136 0.61716 0.29052 0.0
C160 C 0.88202 0.5961 0.31047 0.0
C161 C 0.87415 0.60493 0.33193 0.0
C162 C 0.85481 0.61996 0.3325 0.0
C163 C 0.84359 0.62595 0.3115 0.0
C164 C 0.77961 0.59248 0.2948 0.0
C165 C 0.78745 0.63475 0.27194 0.0
C166 C 0.80168 0.598 0.28555 0.0
N167 N 0.8054 0.61899 0.27445 0.0
C168 C 0.76514 0.62983 0.28095 0.0
C169 C 0.76125 0.60856 0.29248 0.0
C170 C 0.824 0.65439 0.21938 0.0
C171 C 0.90459 0.61378 0.18729 0.0
C172 C 0.8766 0.65349 0.1841 0.0
C173 C 0.88276 0.64135 0.16365 0.0
C174 C 0.89685 0.62137 0.16531 0.0
N175 N 0.88433 0.64598 0.20559 0.0
C176 C 0.8981 0.62637 0.20736 0.0
Co177 Co 0.87265 0.34054 0.76848 0.0
Co178 Co 0.83938 0.36969 0.72692 0.0
O179 O 0.86659 0.3667 0.74734 0.0
C180 C 0.91311 0.34046 0.73608 0.0
O181 O 0.89804 0.34039 0.71862 0.0
C182 C 0.83645 0.41138 0.75773 0.0
O183 O 0.83741 0.39717 0.77588 0.0
O184 O 0.81751 0.35963 0.75254 0.0
O185 O 0.83955 0.341 0.77971 0.0
H186 H 0.76359 0.34393 0.68951 0.0
H187 H 0.90287 0.38311 0.76957 0.0
O188 O 0.90597 0.34001 0.75732 0.0
H189 H 0.86967 0.37633 0.8494 0.0
H190 H 0.92177 0.29491 0.82624 0.0
H191 H 0.84685 0.29746 0.78269 0.0
H192 H 0.86012 0.34692 0.81897 0.0
H193 H 0.91291 0.32794 0.79954 0.0
O194 O 0.83642 0.40328 0.73684 0.0
H195 H 0.79828 0.33977 0.71517 0.0
H196 H 0.8223 0.40755 0.69495 0.0
H197 H 0.85491 0.2642 0.80933 0.0
H198 H 0.91304 0.4128 0.79951 0.0
H199 H 0.89261 0.26279 0.83133 0.0
H200 H 0.89634 0.40955 0.83974 0.0
O201 O 0.86366 0.31694 0.74401 0.0
H202 H 0.9069 0.41474 0.69191 0.0
H203 H 0.84504 0.3559 0.67667 0.0
H204 H 0.87247 0.36674 0.64487 0.0
H205 H 0.90365 0.39639 0.65239 0.0
H206 H 0.87924 0.40323 0.72326 0.0
H207 H 0.78776 0.41253 0.66918 0.0
H208 H 0.75815 0.38054 0.66629 0.0
O209 O 0.84234 0.33638 0.71684 0.0
C210 C 0.81991 0.34841 0.77187 0.0
C211 C 0.77638 0.35798 0.69059 0.0
C212 C 0.78993 0.3965 0.67921 0.0
N213 N 0.81233 0.37336 0.70649 0.0
C214 C 0.79609 0.35571 0.70506 0.0
C215 C 0.80942 0.39361 0.69388 0.0
C216 C 0.77334 0.37853 0.67758 0.0
C217 C 0.89569 0.38146 0.78709 0.0
N218 N 0.881 0.36324 0.79255 0.0
C219 C 0.90144 0.39838 0.80395 0.0
C220 C 0.89204 0.39656 0.82651 0.0
C221 C 0.87707 0.37793 0.83193 0.0
C222 C 0.87168 0.36136 0.81462 0.0
C223 C 0.90528 0.29534 0.81677 0.0
C224 C 0.86325 0.29701 0.79227 0.0
C225 C 0.9002 0.31395 0.80157 0.0
N226 N 0.87935 0.31466 0.78964 0.0
C227 C 0.86774 0.27811 0.8073 0.0
C228 C 0.88891 0.27732 0.81962 0.0
C229 C 0.85171 0.31774 0.72501 0.0
C230 C 0.89334 0.40185 0.68839 0.0
C231 C 0.8586 0.36878 0.68009 0.0
C232 C 0.87405 0.37488 0.662 0.0
C233 C 0.89153 0.39153 0.66623 0.0
N234 N 0.86045 0.37902 0.70176 0.0
C235 C 0.87757 0.39533 0.70605 0.0
Co236 Co 0.23448 0.1288 0.33739 0.0
Co237 Co 0.26027 0.16621 0.37712 0.0
O238 O 0.24708 0.13553 0.36869 0.0
C239 C 0.26722 0.08948 0.34635 0.0
O240 O 0.28221 0.10456 0.3553 0.0
C241 C 0.22643 0.15586 0.41524 0.0
O242 O 0.21154 0.14824 0.39935 0.0
O243 O 0.23122 0.18229 0.36652 0.0
O244 O 0.22142 0.16133 0.33457 0.0
H245 H 0.27888 0.25165 0.36434 0.0
H246 H 0.22297 0.09643 0.37655 0.0
O247 O 0.24722 0.09621 0.33895 0.0
H248 H 0.14666 0.12656 0.34855 0.0
H249 H 0.19461 0.07852 0.27634 0.0
H250 H 0.23366 0.15436 0.29196 0.0
H251 H 0.18359 0.13909 0.32957 0.0
H252 H 0.20969 0.08781 0.31595 0.0
O253 O 0.24665 0.16337 0.4093 0.0
H254 H 0.26307 0.2127 0.35365 0.0
H255 H 0.28438 0.18512 0.41971 0.0
H256 H 0.21867 0.1459 0.25216 0.0
H257 H 0.18645 0.08324 0.39587 0.0
H258 H 0.19897 0.10773 0.24415 0.0
H259 H 0.14794 0.0984 0.38192 0.0
O260 O 0.2642 0.13931 0.32262 0.0
H261 H 0.30568 0.1045 0.42107 0.0
H262 H 0.31158 0.17322 0.36849 0.0
H263 H 0.34771 0.15278 0.38102 0.0
H264 H 0.34489 0.11819 0.40755 0.0
H265 H 0.26999 0.12529 0.40789 0.0
H266 H 0.30025 0.22383 0.4312 0.0
H267 H 0.29764 0.2574 0.40337 0.0
O268 O 0.27428 0.17018 0.34504 0.0
C269 C 0.21962 0.17952 0.34757 0.0
C270 C 0.28023 0.23713 0.37657 0.0
C271 C 0.29219 0.22152 0.41411 0.0
N272 N 0.27307 0.19659 0.38591 0.0
C273 C 0.27139 0.21501 0.37058 0.0
C274 C 0.28316 0.19965 0.40751 0.0
C275 C 0.29073 0.24035 0.39849 0.0
C276 C 0.20626 0.10291 0.37022 0.0
N277 N 0.20541 0.11845 0.35192 0.0
C278 C 0.18565 0.09546 0.3813 0.0
C279 C 0.16406 0.10401 0.37349 0.0
C280 C 0.16333 0.11983 0.35478 0.0
C281 C 0.1843 0.12692 0.34416 0.0
C282 C 0.20307 0.09525 0.27964 0.0
C283 C 0.22492 0.13782 0.28867 0.0
C284 C 0.21166 0.1006 0.30202 0.0
N285 N 0.22226 0.12175 0.30634 0.0
C286 C 0.21655 0.13308 0.26607 0.0
C287 C 0.20553 0.11165 0.26158 0.0
C288 C 0.27628 0.15776 0.32647 0.0
C289 C 0.30714 0.11959 0.40957 0.0
C290 C 0.3102 0.15811 0.37993 0.0
C291 C 0.33072 0.14665 0.38704 0.0
C292 C 0.32913 0.12726 0.40194 0.0
N293 N 0.2887 0.15049 0.3875 0.0
C294 C 0.287 0.13151 0.40214 0.0
Co295 Co 0.34168 0.76571 0.87163 0.0
Co296 Co 0.37397 0.73669 0.82978 0.0
O297 O 0.37012 0.74977 0.86122 0.0
C298 C 0.34713 0.73022 0.90954 0.0
O299 O 0.34494 0.71338 0.8939 0.0
C300 C 0.41482 0.76768 0.83629 0.0
O301 O 0.39999 0.7837 0.84376 0.0
O302 O 0.36427 0.76683 0.81519 0.0
O303 O 0.33655 0.7801 0.83992 0.0
H304 H 0.35067 0.7209 0.74603 0.0
H305 H 0.38569 0.77154 0.89902 0.0
O306 O 0.34625 0.75177 0.90353 0.0
H307 H 0.3633 0.85157 0.87423 0.0
H308 H 0.29242 0.81037 0.93007 0.0
H309 H 0.29397 0.77296 0.85184 0.0
H310 H 0.3387 0.81748 0.86353 0.0
H311 H 0.32845 0.79106 0.91558 0.0
O312 O 0.40741 0.74759 0.82968 0.0
H313 H 0.34551 0.73668 0.7861 0.0
H314 H 0.41217 0.70968 0.80615 0.0
H315 H 0.25764 0.79227 0.86554 0.0
H316 H 0.41065 0.80516 0.91033 0.0
H317 H 0.25672 0.81115 0.90493 0.0
H318 H 0.39955 0.84551 0.89783 0.0
O319 O 0.32219 0.73837 0.86195 0.0
H320 H 0.41887 0.68631 0.88678 0.0
H321 H 0.36042 0.68651 0.82272 0.0
H322 H 0.37143 0.64896 0.84144 0.0
H323 H 0.4009 0.64871 0.87368 0.0
H324 H 0.40721 0.72348 0.86769 0.0
H325 H 0.41815 0.69373 0.76623 0.0
H326 H 0.38722 0.69923 0.73589 0.0
O327 O 0.3405 0.72567 0.82924 0.0
C328 C 0.34733 0.78056 0.82025 0.0
C329 C 0.36423 0.71828 0.75913 0.0
C330 C 0.40212 0.70307 0.77046 0.0
N331 N 0.37839 0.72384 0.79851 0.0
C332 C 0.36136 0.7271 0.78187 0.0
C333 C 0.39865 0.71215 0.79302 0.0
C334 C 0.38475 0.70616 0.75344 0.0
C335 C 0.38058 0.78908 0.89377 0.0
N336 N 0.3607 0.79255 0.88072 0.0
C337 C 0.39485 0.80803 0.90012 0.0
C338 C 0.38864 0.83066 0.89306 0.0
C339 C 0.36832 0.83407 0.87979 0.0
C340 C 0.35449 0.81469 0.87373 0.0
C341 C 0.29263 0.80228 0.91284 0.0
C342 C 0.29377 0.78133 0.86891 0.0
C343 C 0.31297 0.7913 0.90455 0.0
N344 N 0.3134 0.78117 0.88276 0.0
C345 C 0.27312 0.79215 0.87661 0.0
C346 C 0.27261 0.80272 0.89872 0.0
C347 C 0.32301 0.72588 0.84333 0.0
C348 C 0.40606 0.68618 0.8727 0.0
C349 C 0.37321 0.68654 0.83678 0.0
C350 C 0.37941 0.66522 0.84728 0.0
C351 C 0.39595 0.66509 0.86536 0.0
N352 N 0.38328 0.70714 0.84402 0.0
C353 C 0.39945 0.70716 0.86178 0.0
Co354 Co 0.77146 0.87496 0.34041 0.0
Co355 Co 0.7327 0.83847 0.36976 0.0
O356 O 0.75138 0.86705 0.36708 0.0
C357 C 0.73869 0.91521 0.34229 0.0
O358 O 0.72117 0.90028 0.34071 0.0
C359 C 0.76351 0.83827 0.41128 0.0
O360 O 0.78072 0.84471 0.39735 0.0
O361 O 0.75967 0.8186 0.35965 0.0
O362 O 0.78317 0.84202 0.33805 0.0
H363 H 0.70073 0.76081 0.34235 0.0
H364 H 0.77413 0.90331 0.38418 0.0
O365 O 0.7599 0.90806 0.34229 0.0
H366 H 0.85362 0.87058 0.37301 0.0
H367 H 0.82719 0.92761 0.29616 0.0
H368 H 0.78308 0.85301 0.29452 0.0
H369 H 0.82214 0.8622 0.34438 0.0
H370 H 0.80209 0.91608 0.32962 0.0
O371 O 0.74294 0.83484 0.40315 0.0
H372 H 0.72414 0.79719 0.33911 0.0
H373 H 0.70156 0.81864 0.407 0.0
H374 H 0.80811 0.86368 0.26076 0.0
H375 H 0.80514 0.9123 0.41312 0.0
H376 H 0.8304 0.90126 0.26145 0.0
H377 H 0.8452 0.89581 0.40767 0.0
O378 O 0.74617 0.86693 0.3175 0.0
H379 H 0.69367 0.90236 0.41668 0.0
H380 H 0.6822 0.84149 0.35597 0.0
H381 H 0.64883 0.86664 0.36755 0.0
H382 H 0.65445 0.89731 0.39815 0.0
H383 H 0.72663 0.87696 0.40442 0.0
H384 H 0.67807 0.78238 0.41108 0.0
H385 H 0.67748 0.75322 0.37855 0.0
O386 O 0.72225 0.84163 0.33651 0.0
C387 C 0.77753 0.82204 0.34653 0.0
C388 C 0.70078 0.77341 0.35662 0.0
C389 C 0.68809 0.78551 0.39521 0.0
N390 N 0.71405 0.81009 0.37276 0.0
C391 C 0.71394 0.79407 0.35485 0.0
C392 C 0.70146 0.80598 0.39282 0.0
C393 C 0.68776 0.76916 0.37694 0.0
C394 C 0.79159 0.8963 0.38153 0.0
N395 N 0.79635 0.88236 0.36253 0.0
C396 C 0.80905 0.90136 0.39804 0.0
C397 C 0.83151 0.89206 0.39499 0.0
C398 C 0.83624 0.87789 0.37556 0.0
C399 C 0.81833 0.87316 0.35943 0.0
C400 C 0.81763 0.91115 0.29568 0.0
C401 C 0.79289 0.86924 0.29503 0.0
C402 C 0.80338 0.90454 0.31456 0.0
N403 N 0.79137 0.88372 0.31413 0.0
C404 C 0.80696 0.87526 0.27583 0.0
C405 C 0.81943 0.89636 0.27622 0.0
C406 C 0.72848 0.85316 0.31833 0.0
C407 C 0.69099 0.88902 0.40337 0.0
C408 C 0.6848 0.85484 0.36925 0.0
C409 C 0.66583 0.869 0.37577 0.0
C410 C 0.66899 0.88619 0.39295 0.0
N411 N 0.70631 0.85769 0.37959 0.0
C412 C 0.70956 0.87453 0.39642 0.0
Co413 Co 0.66041 0.22891 0.86965 0.0
Co414 Co 0.62925 0.26922 0.8365 0.0
O415 O 0.63353 0.24935 0.86408 0.0
C416 C 0.66154 0.26137 0.9104 0.0
O417 O 0.6617 0.27919 0.89574 0.0
C418 C 0.58945 0.23624 0.83618 0.0
O419 O 0.60457 0.21965 0.84142 0.0
O420 O 0.64033 0.24401 0.81479 0.0
O421 O 0.65935 0.21715 0.83677 0.0
H422 H 0.65304 0.30726 0.76036 0.0
H423 H 0.61877 0.22702 0.90108 0.0
O424 O 0.66155 0.24029 0.90286 0.0
H425 H 0.62677 0.147 0.86863 0.0
H426 H 0.70908 0.17294 0.91798 0.0
H427 H 0.70317 0.21578 0.84281 0.0
H428 H 0.65512 0.17805 0.85797 0.0
H429 H 0.67504 0.19856 0.90983 0.0
O430 O 0.5963 0.25737 0.83322 0.0
H431 H 0.65851 0.28211 0.79526 0.0
H432 H 0.58984 0.29907 0.81918 0.0
H433 H 0.73741 0.19023 0.85015 0.0
H434 H 0.59017 0.19646 0.91239 0.0
H435 H 0.74052 0.16859 0.88797 0.0
H436 H 0.59401 0.15613 0.89604 0.0
O437 O 0.68296 0.25401 0.85963 0.0
H438 H 0.58213 0.3025 0.90343 0.0
H439 H 0.64073 0.32006 0.84198 0.0
H440 H 0.62821 0.3515 0.86913 0.0
H441 H 0.59867 0.3428 0.90011 0.0
H442 H 0.59529 0.27155 0.87603 0.0
H443 H 0.58353 0.32427 0.78443 0.0
H444 H 0.61531 0.32855 0.75477 0.0
O445 O 0.66203 0.28092 0.83936 0.0
C446 C 0.65167 0.22481 0.81718 0.0
C447 C 0.63907 0.30558 0.77318 0.0
C448 C 0.60005 0.31509 0.78667 0.0
N449 N 0.62455 0.2892 0.80927 0.0
C450 C 0.64209 0.2914 0.793 0.0
C451 C 0.60369 0.30075 0.80628 0.0
C452 C 0.6179 0.3175 0.77004 0.0
C453 C 0.62074 0.20944 0.89412 0.0
N454 N 0.63869 0.20429 0.879 0.0
C455 C 0.60442 0.19224 0.9005 0.0
C456 C 0.60656 0.16963 0.89129 0.0
C457 C 0.62493 0.16449 0.8759 0.0
C458 C 0.64091 0.18216 0.86989 0.0
C459 C 0.70791 0.18227 0.90143 0.0
C460 C 0.70435 0.20636 0.85927 0.0
C461 C 0.68872 0.19685 0.89674 0.0
N462 N 0.68708 0.20859 0.87583 0.0
C463 C 0.7238 0.19195 0.86335 0.0
C464 C 0.72554 0.17982 0.88458 0.0
C465 C 0.68121 0.27315 0.84797 0.0
C466 C 0.59496 0.30653 0.88997 0.0
C467 C 0.62792 0.31614 0.85545 0.0
C468 C 0.62086 0.33402 0.87074 0.0
C469 C 0.60427 0.32913 0.88811 0.0
N470 N 0.61866 0.29404 0.85735 0.0
C471 C 0.60242 0.2891 0.87435 0.0
Co472 Co 0.25819 0.82714 0.6266 0.0
Co473 Co 0.22905 0.87085 0.65606 0.0
O474 O 0.24572 0.859 0.62856 0.0
C475 C 0.22989 0.83276 0.58375 0.0
O476 O 0.21332 0.84175 0.59704 0.0
C477 C 0.2654 0.90744 0.6491 0.0
O478 O 0.28157 0.89108 0.65099 0.0
O479 O 0.25562 0.86171 0.6768 0.0
O480 O 0.26746 0.82769 0.66052 0.0
H481 H 0.19984 0.86879 0.73944 0.0
H482 H 0.2741 0.86331 0.59262 0.0
O483 O 0.24917 0.82583 0.59273 0.0
H484 H 0.34593 0.83679 0.63329 0.0
H485 H 0.30177 0.76075 0.58744 0.0
H486 H 0.25542 0.78467 0.65672 0.0
H487 H 0.30741 0.81942 0.64305 0.0
H488 H 0.28663 0.80127 0.59093 0.0
O489 O 0.24367 0.90231 0.65067 0.0
H490 H 0.22006 0.85328 0.70435 0.0
H491 H 0.20395 0.91565 0.66658 0.0
H492 H 0.27035 0.74405 0.65405 0.0
H493 H 0.3123 0.88102 0.58218 0.0
H494 H 0.29372 0.73186 0.61921 0.0
H495 H 0.34855 0.86779 0.60262 0.0
O496 O 0.2272 0.81378 0.63522 0.0
H497 H 0.19233 0.90742 0.58447 0.0
H498 H 0.17714 0.86344 0.65767 0.0
H499 H 0.144 0.87365 0.63163 0.0
H500 H 0.1515 0.89584 0.59476 0.0
H501 H 0.22498 0.89662 0.61087 0.0
H502 H 0.18374 0.93196 0.70133 0.0
H503 H 0.1815 0.90842 0.73807 0.0
O504 O 0.21407 0.83953 0.6621 0.0
C505 C 0.26731 0.84259 0.6773 0.0
C506 C 0.20058 0.87917 0.7235 0.0
C507 C 0.19158 0.91463 0.70212 0.0
N508 N 0.21288 0.88339 0.68334 0.0
C509 C 0.21192 0.87042 0.70354 0.0
C510 C 0.20306 0.90531 0.68251 0.0
C511 C 0.19033 0.90141 0.72273 0.0
C512 C 0.28983 0.85732 0.60145 0.0
N513 N 0.28855 0.84026 0.61831 0.0
C514 C 0.31139 0.86747 0.59552 0.0
C515 C 0.33172 0.86006 0.60702 0.0
C516 C 0.33027 0.84268 0.62424 0.0
C517 C 0.3084 0.83294 0.62972 0.0
C518 C 0.29168 0.76588 0.60275 0.0
C519 C 0.26575 0.77956 0.64161 0.0
C520 C 0.28305 0.78878 0.6048 0.0
N521 N 0.2704 0.79539 0.62414 0.0
C522 C 0.27408 0.7565 0.64015 0.0
C523 C 0.28716 0.74967 0.62058 0.0
C524 C 0.21332 0.8196 0.65179 0.0
C525 C 0.18883 0.89783 0.60053 0.0
C526 C 0.18056 0.873 0.6416 0.0
C527 C 0.16171 0.8788 0.62696 0.0
C528 C 0.16593 0.89128 0.60629 0.0
N529 N 0.20297 0.87949 0.63583 0.0
C530 C 0.20723 0.89176 0.61561 0.0
Co531 Co 0.62469 0.7308 0.16993 0.0
Co532 Co 0.65526 0.76668 0.13162 0.0
O533 O 0.6282 0.74767 0.1403 0.0
C534 C 0.58433 0.76285 0.1675 0.0
O535 O 0.59925 0.77928 0.1612 0.0
C536 C 0.65366 0.73197 0.0927 0.0
O537 O 0.6556 0.71488 0.10809 0.0
O538 O 0.67735 0.74121 0.14135 0.0
O539 O 0.65785 0.71967 0.1683 0.0
H540 H 0.73525 0.80241 0.14293 0.0
H541 H 0.59039 0.72318 0.13135 0.0
O542 O 0.5915 0.74213 0.17208 0.0
H543 H 0.62577 0.64546 0.14646 0.0
H544 H 0.58041 0.68044 0.2277 0.0
H545 H 0.65396 0.72371 0.21253 0.0
H546 H 0.63773 0.68005 0.16977 0.0
H547 H 0.58616 0.7018 0.19037 0.0
O548 O 0.65356 0.75339 0.09919 0.0
H549 H 0.70057 0.77895 0.15428 0.0
H550 H 0.66796 0.79425 0.08885 0.0
H551 H 0.64909 0.70245 0.25002 0.0
H552 H 0.5778 0.68903 0.10775 0.0
H553 H 0.61206 0.68061 0.2578 0.0
H554 H 0.59556 0.64984 0.11522 0.0
O555 O 0.6353 0.7585 0.18848 0.0
H556 H 0.58366 0.79958 0.09162 0.0
H557 H 0.65282 0.81835 0.14043 0.0
H558 H 0.6251 0.84993 0.12969 0.0
H559 H 0.59023 0.84061 0.10508 0.0
H560 H 0.61165 0.7685 0.10304 0.0
H561 H 0.70237 0.81771 0.07671 0.0
H562 H 0.73629 0.82198 0.10389 0.0
O563 O 0.65711 0.78048 0.16382 0.0
C564 C 0.6763 0.72469 0.15655 0.0
C565 C 0.72054 0.80075 0.13097 0.0
C566 C 0.7021 0.80931 0.09379 0.0
N567 N 0.68219 0.78541 0.12233 0.0
C568 C 0.70083 0.78755 0.13733 0.0
C569 C 0.68269 0.79596 0.10074 0.0
C570 C 0.72112 0.8117 0.10905 0.0
C571 C 0.59806 0.70614 0.13484 0.0
N572 N 0.61465 0.70357 0.15203 0.0
C573 C 0.59092 0.68689 0.12136 0.0
C574 C 0.60092 0.66491 0.12554 0.0
C575 C 0.61788 0.66244 0.14306 0.0
C576 C 0.6246 0.68209 0.15617 0.0
C577 C 0.59664 0.68986 0.22451 0.0
C578 C 0.6379 0.71413 0.21574 0.0
C579 C 0.59997 0.70202 0.20343 0.0
N580 N 0.62047 0.71384 0.19923 0.0
C581 C 0.63519 0.70218 0.23702 0.0
C582 C 0.61441 0.68995 0.24138 0.0
C583 C 0.64853 0.77606 0.18406 0.0
C584 C 0.59882 0.80387 0.10229 0.0
C585 C 0.63763 0.81415 0.12982 0.0
C586 C 0.62204 0.83211 0.12372 0.0
C587 C 0.6025 0.82688 0.10989 0.0
N588 N 0.63389 0.79161 0.12235 0.0
C589 C 0.61479 0.78636 0.10873 0.0
Co590 Co 0.73276 0.15989 0.62708 0.0
Co591 Co 0.77143 0.1258 0.65932 0.0
O592 O 0.75195 0.13178 0.63166 0.0
C593 C 0.7667 0.15969 0.58761 0.0
O594 O 0.7827 0.15155 0.60209 0.0
C595 C 0.73666 0.08712 0.6583 0.0
O596 O 0.72092 0.1023 0.65097 0.0
O597 O 0.74676 0.13805 0.68106 0.0
O598 O 0.71943 0.15642 0.65914 0.0
H599 H 0.80999 0.14624 0.73615 0.0
H600 H 0.73124 0.1214 0.5919 0.0
O601 O 0.74593 0.16402 0.59476 0.0
H602 H 0.65008 0.12881 0.62146 0.0
H603 H 0.68064 0.21428 0.58057 0.0
H604 H 0.71971 0.20073 0.65679 0.0
H605 H 0.68134 0.15507 0.6361 0.0
H606 H 0.70477 0.1788 0.58696 0.0
O607 O 0.75772 0.09355 0.66238 0.0
H608 H 0.7855 0.15363 0.70114 0.0
H609 H 0.79901 0.08452 0.67619 0.0
H610 H 0.69559 0.23633 0.65123 0.0
H611 H 0.70049 0.09488 0.57667 0.0
H612 H 0.67586 0.24329 0.61288 0.0
H613 H 0.65958 0.09844 0.59153 0.0
O614 O 0.75795 0.18077 0.63981 0.0
H615 H 0.80197 0.07751 0.59192 0.0
H616 H 0.8229 0.13426 0.65409 0.0
H617 H 0.85355 0.12022 0.62679 0.0
H618 H 0.84314 0.09164 0.59543 0.0
H619 H 0.77185 0.09212 0.6195 0.0
H620 H 0.82351 0.07632 0.71104 0.0
H621 H 0.82919 0.10734 0.74128 0.0
O622 O 0.78523 0.15781 0.65696 0.0
C623 C 0.72725 0.14886 0.6787 0.0
C624 C 0.8077 0.1326 0.72307 0.0
C625 C 0.81526 0.09334 0.70899 0.0
N626 N 0.79094 0.11957 0.68659 0.0
C627 C 0.7939 0.1367 0.70318 0.0
C628 C 0.80132 0.09807 0.68933 0.0
C629 C 0.81845 0.11076 0.72595 0.0
C630 C 0.71343 0.12322 0.59827 0.0
N631 N 0.70806 0.13986 0.61476 0.0
C632 C 0.69611 0.10809 0.58965 0.0
C633 C 0.67317 0.11008 0.59803 0.0
C634 C 0.66783 0.1271 0.61483 0.0
C635 C 0.68561 0.1419 0.62308 0.0
C636 C 0.68913 0.21143 0.59737 0.0
C637 C 0.71108 0.20357 0.6401 0.0
C638 C 0.70286 0.19141 0.60107 0.0
N639 N 0.71355 0.18765 0.62227 0.0
C640 C 0.69749 0.22379 0.63703 0.0
C641 C 0.68644 0.2277 0.61551 0.0
C642 C 0.77755 0.17777 0.65032 0.0
C643 C 0.80674 0.0899 0.60556 0.0
C644 C 0.81824 0.12182 0.64048 0.0
C645 C 0.83567 0.11391 0.6251 0.0
C646 C 0.82983 0.09786 0.60752 0.0
N647 N 0.79564 0.11391 0.63846 0.0
C648 C 0.78978 0.09815 0.62129 0.0
Co649 Co 0.37351 0.27173 0.16573 0.0
Co650 Co 0.33896 0.23695 0.1308 0.0
O651 O 0.36777 0.25409 0.13708 0.0
C652 C 0.41438 0.23997 0.16326 0.0
O653 O 0.39963 0.22222 0.16326 0.0
C654 C 0.34334 0.26739 0.08902 0.0
O655 O 0.3432 0.28566 0.10313 0.0
O656 O 0.31976 0.26527 0.13794 0.0
O657 O 0.34007 0.28256 0.16716 0.0
H658 H 0.25583 0.21111 0.14584 0.0
H659 H 0.40365 0.27922 0.12379 0.0
O660 O 0.40695 0.26107 0.16456 0.0
H661 H 0.36899 0.35674 0.14138 0.0
H662 H 0.42181 0.32388 0.21847 0.0
H663 H 0.34846 0.27826 0.21102 0.0
H664 H 0.35989 0.32236 0.16623 0.0
H665 H 0.41304 0.30199 0.18202 0.0
O666 O 0.34148 0.2466 0.09713 0.0
H667 H 0.29271 0.23224 0.15444 0.0
H668 H 0.32328 0.20594 0.09158 0.0
H669 H 0.35641 0.30003 0.24768 0.0
H670 H 0.41339 0.31316 0.0986 0.0
H671 H 0.39332 0.32306 0.25157 0.0
H672 H 0.39597 0.35225 0.10732 0.0
O673 O 0.36498 0.24412 0.18537 0.0
H674 H 0.4064 0.19296 0.09442 0.0
H675 H 0.33677 0.18672 0.14573 0.0
H676 H 0.36113 0.15157 0.13844 0.0
H677 H 0.3962 0.15456 0.11258 0.0
H678 H 0.38168 0.22769 0.10233 0.0
H679 H 0.28665 0.18468 0.08217 0.0
H680 H 0.25264 0.1871 0.10947 0.0
O681 O 0.33613 0.22705 0.16441 0.0
C682 C 0.32161 0.28017 0.1546 0.0
C683 C 0.27056 0.20981 0.13386 0.0
C684 C 0.28785 0.195 0.09811 0.0
N685 N 0.31022 0.22005 0.12369 0.0
C686 C 0.29152 0.22166 0.13869 0.0
C687 C 0.30854 0.2071 0.10352 0.0
C688 C 0.26878 0.19637 0.11344 0.0
C689 C 0.39618 0.29622 0.12783 0.0
N690 N 0.38137 0.29884 0.14657 0.0
C691 C 0.40168 0.31535 0.11345 0.0
C692 C 0.39187 0.33728 0.11833 0.0
C693 C 0.37673 0.3398 0.13743 0.0
C694 C 0.37161 0.32027 0.15142 0.0
C695 C 0.40563 0.31398 0.21695 0.0
C696 C 0.36445 0.28842 0.2125 0.0
C697 C 0.40058 0.30154 0.19638 0.0
N698 N 0.38011 0.28913 0.1943 0.0
C699 C 0.3689 0.30063 0.23334 0.0
C700 C 0.38963 0.31352 0.23552 0.0
C701 C 0.34804 0.22958 0.18327 0.0
C702 C 0.39112 0.19141 0.10565 0.0
C703 C 0.35203 0.18816 0.13448 0.0
C704 C 0.36573 0.16819 0.13039 0.0
C705 C 0.3854 0.16988 0.11587 0.0
N706 N 0.35771 0.2092 0.12432 0.0
C707 C 0.37699 0.211 0.11011 0.0
Co708 Co 0.86776 0.65879 0.76755 0.0
Co709 Co 0.83572 0.62705 0.72679 0.0
O710 O 0.86316 0.63172 0.74691 0.0
C711 C 0.90765 0.65961 0.73411 0.0
O712 O 0.89336 0.65213 0.71762 0.0
C713 C 0.83587 0.58682 0.75971 0.0
O714 O 0.84334 0.60112 0.77619 0.0
O715 O 0.81378 0.6385 0.75169 0.0
O716 O 0.83559 0.6548 0.78041 0.0
H717 H 0.75983 0.65045 0.6881 0.0
H718 H 0.90266 0.62002 0.76741 0.0
O719 O 0.90024 0.66335 0.7549 0.0
H720 H 0.8725 0.62355 0.84863 0.0
H721 H 0.91412 0.71017 0.8228 0.0
H722 H 0.83819 0.69908 0.78243 0.0
H723 H 0.85825 0.65142 0.81859 0.0
H724 H 0.90774 0.67601 0.79682 0.0
O725 O 0.83196 0.59427 0.73896 0.0
H726 H 0.79455 0.65614 0.71344 0.0
H727 H 0.81864 0.58735 0.69706 0.0
H728 H 0.84374 0.73337 0.80842 0.0
H729 H 0.9175 0.59192 0.79692 0.0
H730 H 0.88194 0.73909 0.8288 0.0
H731 H 0.90234 0.59354 0.83785 0.0
O732 O 0.8554 0.68103 0.74335 0.0
H733 H 0.90276 0.57907 0.69502 0.0
H734 H 0.84189 0.63777 0.67582 0.0
H735 H 0.86939 0.62466 0.64494 0.0
H736 H 0.9001 0.5951 0.65448 0.0
H737 H 0.87499 0.59277 0.72539 0.0
H738 H 0.78406 0.58084 0.67169 0.0
H739 H 0.75441 0.61256 0.66702 0.0
O740 O 0.83882 0.65958 0.71451 0.0
C741 C 0.81605 0.64802 0.77188 0.0
C742 C 0.77266 0.63651 0.68994 0.0
C743 C 0.78625 0.59743 0.68076 0.0
N744 N 0.80867 0.62215 0.70661 0.0
C745 C 0.79239 0.63965 0.70422 0.0
C746 C 0.80576 0.6012 0.69519 0.0
C747 C 0.76962 0.61524 0.67814 0.0
C748 C 0.89617 0.621 0.78524 0.0
N749 N 0.87974 0.63745 0.79131 0.0
C750 C 0.90456 0.60497 0.80185 0.0
C751 C 0.89602 0.60587 0.82481 0.0
C752 C 0.87926 0.6227 0.83086 0.0
C753 C 0.87124 0.63841 0.81377 0.0
C754 C 0.89739 0.70786 0.81404 0.0
C755 C 0.85482 0.70138 0.79134 0.0
C756 C 0.89369 0.68858 0.79926 0.0
N757 N 0.87257 0.6855 0.78821 0.0
C758 C 0.85788 0.72086 0.80599 0.0
C759 C 0.87932 0.72407 0.8174 0.0
C760 C 0.84537 0.67907 0.72336 0.0
C761 C 0.8894 0.5919 0.69063 0.0
C762 C 0.8552 0.6249 0.6801 0.0
C763 C 0.8707 0.61752 0.66254 0.0
C764 C 0.88792 0.60093 0.66789 0.0
N765 N 0.85675 0.61593 0.70235 0.0
C766 C 0.87357 0.59964 0.70773 0.0
Co767 Co 0.83642 0.3741 0.2681 0.0
Co768 Co 0.86961 0.33919 0.23106 0.0
O769 O 0.86461 0.36763 0.24962 0.0
C770 C 0.83888 0.4119 0.23254 0.0
O771 O 0.84639 0.39624 0.21737 0.0
C772 C 0.90759 0.33966 0.26651 0.0
O773 O 0.89248 0.34804 0.28179 0.0
O774 O 0.85589 0.31885 0.25613 0.0
O775 O 0.83821 0.34237 0.28261 0.0
H776 H 0.84625 0.26229 0.19431 0.0
H777 H 0.87639 0.40759 0.2691 0.0
O778 O 0.83403 0.40605 0.25362 0.0
H779 H 0.86637 0.3812 0.3511 0.0
H780 H 0.78337 0.42492 0.31749 0.0
H781 H 0.79403 0.34678 0.2814 0.0
H782 H 0.83997 0.36669 0.31989 0.0
H783 H 0.81892 0.41603 0.29428 0.0
O784 O 0.90136 0.3351 0.24549 0.0
H785 H 0.8401 0.29832 0.21766 0.0
H786 H 0.91054 0.31956 0.20483 0.0
H787 H 0.75831 0.35485 0.30462 0.0
H788 H 0.90309 0.42266 0.29978 0.0
H789 H 0.75281 0.39417 0.32286 0.0
H790 H 0.89821 0.4094 0.34111 0.0
O791 O 0.81542 0.36146 0.24299 0.0
H792 H 0.92157 0.40334 0.19955 0.0
H793 H 0.86245 0.34322 0.17927 0.0
H794 H 0.87834 0.3689 0.14812 0.0
H795 H 0.90812 0.39923 0.1582 0.0
H796 H 0.90511 0.3774 0.23016 0.0
H797 H 0.91752 0.28365 0.18149 0.0
H798 H 0.8852 0.25477 0.17603 0.0
O799 O 0.83808 0.34267 0.21656 0.0
C800 C 0.84495 0.32225 0.27542 0.0
C801 C 0.86046 0.27477 0.1965 0.0
C802 C 0.90046 0.28675 0.18934 0.0
N803 N 0.87489 0.31108 0.21249 0.0
C804 C 0.85706 0.29523 0.20966 0.0
C805 C 0.89642 0.30701 0.20262 0.0
C806 C 0.88232 0.27055 0.18627 0.0
C807 C 0.874 0.40193 0.28709 0.0
N808 N 0.85656 0.3864 0.29272 0.0
C809 C 0.88923 0.41045 0.30437 0.0
C810 C 0.88651 0.40297 0.32755 0.0
C811 C 0.86866 0.38714 0.33316 0.0
C812 C 0.85378 0.37896 0.31541 0.0
C813 C 0.78559 0.40771 0.30966 0.0
C814 C 0.79182 0.36389 0.28939 0.0
C815 C 0.80565 0.40259 0.29646 0.0
N816 N 0.80859 0.38086 0.28661 0.0
C817 C 0.77153 0.36838 0.30247 0.0
C818 C 0.76845 0.39045 0.31267 0.0
C819 C 0.81832 0.3504 0.22368 0.0
C820 C 0.90866 0.39014 0.19493 0.0
C821 C 0.8754 0.35637 0.18378 0.0
C822 C 0.88436 0.37084 0.16607 0.0
C823 C 0.90108 0.38785 0.17173 0.0
N824 N 0.88294 0.35872 0.20648 0.0
C825 C 0.89935 0.37533 0.21217 0.0
Co826 Co 0.16368 0.37052 0.73062 0.0
Co827 Co 0.12857 0.33153 0.76066 0.0
O828 O 0.13399 0.3621 0.74582 0.0
C829 C 0.1547 0.40962 0.76352 0.0
O830 O 0.14828 0.39401 0.77925 0.0
C831 C 0.0881 0.33781 0.72882 0.0
O832 O 0.10267 0.34577 0.71281 0.0
O833 O 0.13847 0.31499 0.73165 0.0
O834 O 0.16763 0.33784 0.718 0.0
H835 H 0.14847 0.24803 0.78159 0.0
H836 H 0.12167 0.39998 0.72174 0.0
O837 O 0.16091 0.40326 0.74298 0.0
H838 H 0.14538 0.36979 0.64397 0.0
H839 H 0.21779 0.42379 0.68509 0.0
H840 H 0.21047 0.34794 0.72647 0.0
H841 H 0.16807 0.3595 0.67947 0.0
H842 H 0.18026 0.41227 0.70353 0.0
O843 O 0.09553 0.33157 0.74898 0.0
H844 H 0.15538 0.28692 0.7637 0.0
H845 H 0.08898 0.31079 0.78813 0.0
H846 H 0.24826 0.35865 0.70809 0.0
H847 H 0.09861 0.41091 0.68666 0.0
H848 H 0.25209 0.39684 0.68721 0.0
H849 H 0.1104 0.39571 0.64744 0.0
O850 O 0.18149 0.36174 0.75922 0.0
H851 H 0.08328 0.39204 0.8064 0.0
H852 H 0.14077 0.32733 0.81156 0.0
H853 H 0.12909 0.34843 0.84761 0.0
H854 H 0.10011 0.38102 0.84516 0.0
H855 H 0.09564 0.37063 0.77075 0.0
H856 H 0.08125 0.27207 0.80613 0.0
H857 H 0.11117 0.2404 0.803 0.0
O858 O 0.16159 0.33041 0.77271 0.0
C859 C 0.15599 0.31864 0.71819 0.0
C860 C 0.13535 0.26172 0.78318 0.0
C861 C 0.09761 0.27521 0.79693 0.0
N862 N 0.12275 0.3012 0.77514 0.0
C863 C 0.13921 0.28381 0.77317 0.0
C864 C 0.10208 0.29708 0.78669 0.0
C865 C 0.1144 0.25745 0.79517 0.0
C866 C 0.12705 0.39351 0.70469 0.0
N867 N 0.14622 0.37919 0.70264 0.0
C868 C 0.11386 0.39966 0.68491 0.0
C869 C 0.12046 0.39109 0.66292 0.0
C870 C 0.14007 0.37653 0.66096 0.0
C871 C 0.15281 0.3707 0.68114 0.0
C872 C 0.21631 0.40707 0.69405 0.0
C873 C 0.21194 0.36447 0.71722 0.0
C874 C 0.19512 0.40045 0.70454 0.0
N875 N 0.1931 0.3793 0.71578 0.0
C876 C 0.23341 0.37049 0.70693 0.0
C877 C 0.23555 0.39193 0.69525 0.0
C878 C 0.17954 0.34386 0.77254 0.0
C879 C 0.09587 0.37783 0.8077 0.0
C880 C 0.12823 0.34156 0.81033 0.0
C881 C 0.12163 0.3534 0.83082 0.0
C882 C 0.10535 0.37166 0.82944 0.0
N883 N 0.11884 0.34771 0.78908 0.0
C884 C 0.10285 0.36557 0.78759 0.0
Co885 Co 0.12443 0.66553 0.24083 0.0
Co886 Co 0.16272 0.62531 0.26448 0.0
O887 O 0.13151 0.63409 0.25296 0.0
C888 C 0.08679 0.65632 0.27549 0.0
O889 O 0.10255 0.64713 0.28961 0.0
C890 C 0.15073 0.58765 0.23077 0.0
O891 O 0.14236 0.60371 0.21649 0.0
O892 O 0.17725 0.63585 0.23464 0.0
O893 O 0.15623 0.66809 0.22594 0.0
H894 H 0.24912 0.6372 0.27842 0.0
H895 H 0.09115 0.62666 0.23102 0.0
O896 O 0.09259 0.66414 0.25536 0.0
H897 H 0.1172 0.6547 0.15321 0.0
H898 H 0.07261 0.72716 0.20401 0.0
H899 H 0.15039 0.71069 0.23858 0.0
H900 H 0.13192 0.67344 0.18945 0.0
H901 H 0.08233 0.68744 0.21851 0.0
O902 O 0.15896 0.59327 0.2508 0.0
H903 H 0.2095 0.6483 0.26476 0.0
H904 H 0.18246 0.58246 0.28742 0.0
H905 H 0.1415 0.75061 0.22414 0.0
H906 H 0.07578 0.60759 0.19523 0.0
H907 H 0.10236 0.75904 0.20669 0.0
H908 H 0.08888 0.62155 0.15597 0.0
O909 O 0.13672 0.68013 0.26998 0.0
H910 H 0.1032 0.58149 0.31284 0.0
H911 H 0.17242 0.63367 0.31542 0.0
H912 H 0.15379 0.62108 0.35251 0.0
H913 H 0.11895 0.59475 0.35136 0.0
H914 H 0.12221 0.59473 0.27616 0.0
H915 H 0.22184 0.57055 0.30114 0.0
H916 H 0.25549 0.59807 0.29677 0.0
O917 O 0.16773 0.65727 0.27839 0.0
C918 C 0.17401 0.65473 0.22308 0.0
C919 C 0.23458 0.62511 0.28054 0.0
C920 C 0.21927 0.58769 0.29327 0.0
N921 N 0.19363 0.61619 0.2756 0.0
C922 C 0.21209 0.63133 0.27293 0.0
C923 C 0.19702 0.59452 0.28546 0.0
C924 C 0.23814 0.60314 0.29081 0.0
C925 C 0.09674 0.633 0.214 0.0
N926 N 0.11235 0.65118 0.21233 0.0
C927 C 0.08806 0.62206 0.19379 0.0
C928 C 0.09545 0.62988 0.17177 0.0
C929 C 0.11136 0.64846 0.17021 0.0
C930 C 0.1197 0.65895 0.1908 0.0
C931 C 0.08976 0.72368 0.21149 0.0
C932 C 0.1334 0.71417 0.23082 0.0
C933 C 0.09535 0.70123 0.21974 0.0
N934 N 0.11702 0.69668 0.2291 0.0
C935 C 0.12843 0.73683 0.22276 0.0
C936 C 0.10646 0.74156 0.213 0.0
C937 C 0.15574 0.67604 0.28102 0.0
C938 C 0.11841 0.5929 0.31357 0.0
C939 C 0.15719 0.62232 0.31477 0.0
C940 C 0.14677 0.61518 0.33583 0.0
C941 C 0.12723 0.60039 0.33517 0.0
N942 N 0.14843 0.6149 0.29365 0.0
C943 C 0.12931 0.60036 0.29286 0.0
Co944 Co 0.76188 0.87045 0.66134 0.0
Co945 Co 0.72437 0.83766 0.62687 0.0
O946 O 0.74338 0.86535 0.63314 0.0
C947 C 0.73054 0.91201 0.66075 0.0
O948 O 0.71235 0.8978 0.66104 0.0
C949 C 0.75695 0.83895 0.58655 0.0
O950 O 0.77442 0.83848 0.60161 0.0
O951 O 0.75057 0.81617 0.63593 0.0
O952 O 0.77282 0.83713 0.66119 0.0
H953 H 0.69032 0.75766 0.64286 0.0
H954 H 0.76769 0.90096 0.61938 0.0
O955 O 0.75141 0.90396 0.66139 0.0
H956 H 0.84624 0.86763 0.63469 0.0
H957 H 0.8153 0.91741 0.71407 0.0
H958 H 0.77053 0.84365 0.70521 0.0
H959 H 0.81278 0.85797 0.66053 0.0
H960 H 0.79226 0.90978 0.6781 0.0
O961 O 0.73571 0.83837 0.59362 0.0
H962 H 0.71413 0.79284 0.65157 0.0
H963 H 0.69423 0.82343 0.58647 0.0
H964 H 0.79348 0.85047 0.74138 0.0
H965 H 0.8007 0.9113 0.59324 0.0
H966 H 0.81608 0.88758 0.74597 0.0
H967 H 0.84031 0.89453 0.60078 0.0
O968 O 0.73486 0.86142 0.68187 0.0
H969 H 0.68776 0.90738 0.58673 0.0
H970 H 0.67362 0.84011 0.63962 0.0
H971 H 0.64097 0.86704 0.63013 0.0
H972 H 0.64794 0.90093 0.60347 0.0
H973 H 0.71993 0.88013 0.59681 0.0
H974 H 0.67033 0.7885 0.57691 0.0
H975 H 0.66819 0.75534 0.60526 0.0
O976 O 0.713 0.8367 0.65998 0.0
C977 C 0.76765 0.81816 0.65038 0.0
C978 C 0.69104 0.77202 0.63039 0.0
C979 C 0.67984 0.78932 0.59337 0.0
N980 N 0.7054 0.81024 0.61967 0.0
C981 C 0.70444 0.79201 0.63528 0.0
C982 C 0.69344 0.80903 0.59886 0.0
C983 C 0.67865 0.77072 0.60929 0.0
C984 C 0.78491 0.89373 0.62289 0.0
N985 N 0.78832 0.8789 0.64149 0.0
C986 C 0.80352 0.89959 0.60798 0.0
C987 C 0.82573 0.89015 0.6122 0.0
C988 C 0.82907 0.87505 0.63121 0.0
C989 C 0.81004 0.86957 0.64574 0.0
C990 C 0.80556 0.90116 0.71225 0.0
C991 C 0.78044 0.85977 0.70702 0.0
C992 C 0.79244 0.89676 0.69196 0.0
N993 N 0.78022 0.87621 0.6895 0.0
C994 C 0.79335 0.86357 0.72757 0.0
C995 C 0.806 0.88441 0.73014 0.0
C996 C 0.71786 0.84694 0.67934 0.0
C997 C 0.68448 0.89262 0.59829 0.0
C998 C 0.67679 0.85483 0.62802 0.0
C999 C 0.65823 0.87 0.62269 0.0
C1000 C 0.66215 0.88901 0.60772 0.0
N1001 N 0.69861 0.85844 0.61863 0.0
C1002 C 0.70261 0.87707 0.60399 0.0
Co1003 Co 0.66112 0.22941 0.12613 0.0
Co1004 Co 0.62912 0.27054 0.1574 0.0
O1005 O 0.63374 0.24965 0.13054 0.0
C1006 C 0.66132 0.26214 0.08577 0.0
O1007 O 0.65424 0.27875 0.10013 0.0
C1008 C 0.58938 0.23704 0.15874 0.0
O1009 O 0.60376 0.22053 0.15149 0.0
O1010 O 0.64126 0.2465 0.17989 0.0
O1011 O 0.65793 0.21744 0.15881 0.0
H1012 H 0.65294 0.31196 0.23174 0.0
H1013 H 0.62192 0.2278 0.09178 0.0
O1014 O 0.66494 0.24133 0.09324 0.0
H1015 H 0.62729 0.14762 0.12438 0.0
H1016 H 0.71276 0.17386 0.08047 0.0
H1017 H 0.70215 0.21613 0.15545 0.0
H1018 H 0.65483 0.17856 0.13727 0.0
H1019 H 0.67824 0.19938 0.0867 0.0
O1020 O 0.59662 0.25799 0.16198 0.0
H1021 H 0.65855 0.28564 0.19773 0.0
H1022 H 0.58919 0.30012 0.17415 0.0
H1023 H 0.73681 0.19065 0.15005 0.0
H1024 H 0.59412 0.19736 0.07828 0.0
H1025 H 0.74229 0.16931 0.11232 0.0
H1026 H 0.59666 0.15695 0.09467 0.0
O1027 O 0.68308 0.25434 0.13742 0.0
H1028 H 0.57994 0.29943 0.08993 0.0
H1029 H 0.63887 0.32148 0.14961 0.0
H1030 H 0.625 0.35127 0.12129 0.0
H1031 H 0.59533 0.34029 0.09117 0.0
H1032 H 0.5944 0.27017 0.1185 0.0
H1033 H 0.58276 0.32645 0.20803 0.0
H1034 H 0.61481 0.33258 0.23706 0.0
O1035 O 0.66137 0.28324 0.1535 0.0
C1036 C 0.65126 0.22648 0.1782 0.0
C1037 C 0.63886 0.30949 0.21918 0.0
C1038 C 0.59946 0.31759 0.20589 0.0
N1039 N 0.62427 0.29146 0.18391 0.0
C1040 C 0.64195 0.29465 0.19985 0.0
C1041 C 0.60318 0.30262 0.18677 0.0
C1042 C 0.61745 0.32103 0.22217 0.0
C1043 C 0.62329 0.2102 0.09881 0.0
N1044 N 0.64006 0.20492 0.11518 0.0
C1045 C 0.60744 0.19306 0.09118 0.0
C1046 C 0.60885 0.1704 0.10041 0.0
C1047 C 0.62602 0.16515 0.11709 0.0
C1048 C 0.64155 0.18275 0.12434 0.0
C1049 C 0.71055 0.18305 0.09699 0.0
C1050 C 0.70435 0.2068 0.13904 0.0
C1051 C 0.69107 0.19756 0.1006 0.0
N1052 N 0.68813 0.20913 0.12147 0.0
C1053 C 0.72404 0.19244 0.13606 0.0
C1054 C 0.72711 0.18049 0.11488 0.0
C1055 C 0.68091 0.27457 0.14689 0.0
C1056 C 0.59281 0.30444 0.10302 0.0
C1057 C 0.62594 0.31658 0.13656 0.0
C1058 C 0.61814 0.33353 0.12059 0.0
C1059 C 0.60148 0.32736 0.1037 0.0
N1060 N 0.61734 0.29415 0.13579 0.0
C1061 C 0.60098 0.28798 0.11931 0.0
Co1062 Co 0.24228 0.12205 0.66764 0.0
Co1063 Co 0.27001 0.15456 0.62517 0.0
O1064 O 0.25476 0.1259 0.636 0.0
C1065 C 0.27336 0.08139 0.6606 0.0
O1066 O 0.28918 0.09624 0.65277 0.0
C1067 C 0.23388 0.14648 0.58861 0.0
O1068 O 0.21778 0.14683 0.60515 0.0
O1069 O 0.24252 0.17363 0.63514 0.0
O1070 O 0.23102 0.15543 0.6683 0.0
H1071 H 0.29516 0.23913 0.63026 0.0
H1072 H 0.22861 0.08851 0.63014 0.0
O1073 O 0.25341 0.08873 0.66763 0.0
H1074 H 0.15436 0.12387 0.65758 0.0
H1075 H 0.20081 0.07777 0.73211 0.0
H1076 H 0.24296 0.15064 0.71125 0.0
H1077 H 0.19215 0.13526 0.67557 0.0
H1078 H 0.21597 0.08374 0.69189 0.0
O1079 O 0.2555 0.14952 0.59359 0.0
H1080 H 0.27678 0.20254 0.64454 0.0
H1081 H 0.2943 0.16795 0.5807 0.0
H1082 H 0.22797 0.1455 0.75161 0.0
H1083 H 0.1912 0.07647 0.61179 0.0
H1084 H 0.2067 0.10885 0.76226 0.0
H1085 H 0.15373 0.09424 0.62549 0.0
O1086 O 0.2726 0.13204 0.68156 0.0
H1087 H 0.31 0.08611 0.5861 0.0
H1088 H 0.32181 0.15849 0.63243 0.0
H1089 H 0.35613 0.13446 0.62126 0.0
H1090 H 0.35034 0.098 0.59789 0.0
H1091 H 0.27616 0.11051 0.59787 0.0
H1092 H 0.3127 0.20424 0.56563 0.0
H1093 H 0.3133 0.24014 0.59053 0.0
O1094 O 0.28483 0.16017 0.65668 0.0
C1095 C 0.23062 0.17285 0.65413 0.0
C1096 C 0.29513 0.22357 0.6193 0.0
C1097 C 0.30494 0.204 0.58301 0.0
N1098 N 0.28477 0.18305 0.61361 0.0
C1099 C 0.28484 0.20277 0.62733 0.0
C1100 C 0.29448 0.18351 0.59163 0.0
C1101 C 0.30527 0.22413 0.59699 0.0
C1102 C 0.21236 0.09616 0.63633 0.0
N1103 N 0.21254 0.11245 0.654 0.0
C1104 C 0.19124 0.08935 0.62582 0.0
C1105 C 0.17023 0.09935 0.63349 0.0
C1106 C 0.17057 0.11598 0.65149 0.0
C1107 C 0.19202 0.12239 0.66157 0.0
C1108 C 0.20997 0.09386 0.72767 0.0
C1109 C 0.23355 0.13474 0.7157 0.0
C1110 C 0.21861 0.09732 0.70493 0.0
N1111 N 0.23007 0.11764 0.69917 0.0
C1112 C 0.22518 0.13188 0.7386 0.0
C1113 C 0.21328 0.1113 0.74457 0.0
C1114 C 0.28586 0.1493 0.67631 0.0
C1115 C 0.31276 0.10201 0.5962 0.0
C1116 C 0.31913 0.1426 0.62234 0.0
C1117 C 0.33864 0.1291 0.61601 0.0
C1118 C 0.33538 0.10866 0.60287 0.0
N1119 N 0.297 0.13596 0.61574 0.0
C1120 C 0.29367 0.11596 0.60282 0.0
Co1121 Co 0.33436 0.76561 0.12348 0.0
Co1122 Co 0.36987 0.72849 0.15591 0.0
O1123 O 0.36292 0.74736 0.12819 0.0
C1124 C 0.33612 0.73259 0.08376 0.0
O1125 O 0.3413 0.71619 0.09913 0.0
C1126 C 0.40988 0.76153 0.15411 0.0
O1127 O 0.39476 0.77896 0.15429 0.0
O1128 O 0.36071 0.75467 0.17731 0.0
O1129 O 0.33597 0.77764 0.15641 0.0
H1130 H 0.35575 0.69526 0.23661 0.0
H1131 H 0.37418 0.77049 0.09016 0.0
O1132 O 0.33241 0.75366 0.09045 0.0
H1133 H 0.36187 0.84975 0.12316 0.0
H1134 H 0.27979 0.81754 0.07705 0.0
H1135 H 0.29167 0.77518 0.15179 0.0
H1136 H 0.33651 0.81668 0.13517 0.0
H1137 H 0.31604 0.79472 0.08395 0.0
O1138 O 0.40291 0.74026 0.15485 0.0
H1139 H 0.34627 0.71877 0.20143 0.0
H1140 H 0.41067 0.69862 0.16958 0.0
H1141 H 0.25524 0.79794 0.14572 0.0
H1142 H 0.39982 0.80311 0.07749 0.0
H1143 H 0.24913 0.81932 0.10812 0.0
H1144 H 0.39377 0.84307 0.09407 0.0
O1145 O 0.31425 0.73898 0.13403 0.0
H1146 H 0.41021 0.69208 0.08619 0.0
H1147 H 0.35764 0.67755 0.15362 0.0
H1148 H 0.36731 0.64495 0.12666 0.0
H1149 H 0.39378 0.65214 0.09267 0.0
H1150 H 0.39992 0.72421 0.11343 0.0
H1151 H 0.42102 0.67505 0.2045 0.0
H1152 H 0.3934 0.67317 0.23829 0.0
O1153 O 0.33696 0.7166 0.15746 0.0
C1154 C 0.34681 0.77218 0.17528 0.0
C1155 C 0.36788 0.69583 0.22195 0.0
C1156 C 0.40452 0.68452 0.20394 0.0
N1157 N 0.37771 0.70979 0.18335 0.0
C1158 C 0.36254 0.70903 0.20195 0.0
C1159 C 0.39858 0.69791 0.18423 0.0
C1160 C 0.38902 0.68347 0.2229 0.0
C1161 C 0.37131 0.78787 0.09729 0.0
N1162 N 0.35379 0.79171 0.11327 0.0
C1163 C 0.38594 0.80626 0.09012 0.0
C1164 C 0.38255 0.82867 0.09945 0.0
C1165 C 0.36466 0.83243 0.11578 0.0
C1166 C 0.35039 0.81362 0.12255 0.0
C1167 C 0.28227 0.80835 0.09353 0.0
C1168 C 0.28919 0.78457 0.13545 0.0
C1169 C 0.30273 0.79536 0.09751 0.0
N1170 N 0.30602 0.78381 0.11832 0.0
C1171 C 0.26851 0.79737 0.13208 0.0
C1172 C 0.26508 0.80934 0.11097 0.0
C1173 C 0.31728 0.72174 0.14804 0.0
C1174 C 0.39874 0.68871 0.101 0.0
C1175 C 0.36915 0.68081 0.13885 0.0
C1176 C 0.3746 0.66228 0.12367 0.0
C1177 C 0.38947 0.66631 0.10461 0.0
N1178 N 0.37832 0.70273 0.13519 0.0
C1179 C 0.39294 0.70681 0.11655 0.0
Co1180 Co 0.72911 0.15951 0.37226 0.0
Co1181 Co 0.77031 0.13085 0.338 0.0
O1182 O 0.75026 0.13343 0.36564 0.0
C1183 C 0.76195 0.15957 0.41258 0.0
O1184 O 0.77943 0.15981 0.39754 0.0
C1185 C 0.73836 0.09028 0.33601 0.0
O1186 O 0.72141 0.10479 0.34183 0.0
O1187 O 0.7449 0.14224 0.31674 0.0
O1188 O 0.71728 0.15938 0.33931 0.0
H1189 H 0.80789 0.1589 0.2631 0.0
H1190 H 0.72849 0.11688 0.40239 0.0
O1191 O 0.74072 0.15983 0.40545 0.0
H1192 H 0.64828 0.12349 0.37018 0.0
H1193 H 0.67212 0.20475 0.42266 0.0
H1194 H 0.71463 0.20287 0.3471 0.0
H1195 H 0.67847 0.15305 0.36038 0.0
H1196 H 0.6986 0.17175 0.41308 0.0
O1197 O 0.7593 0.09776 0.33327 0.0
H1198 H 0.78259 0.16223 0.29815 0.0
H1199 H 0.80111 0.09294 0.31902 0.0
H1200 H 0.68821 0.23611 0.35588 0.0
H1201 H 0.6988 0.08704 0.41281 0.0
H1202 H 0.66674 0.2372 0.3939 0.0
H1203 H 0.65839 0.09018 0.39658 0.0
O1204 O 0.75346 0.18313 0.36305 0.0
H1205 H 0.80463 0.08161 0.40286 0.0
H1206 H 0.82081 0.14334 0.34413 0.0
H1207 H 0.8525 0.13039 0.37076 0.0
H1208 H 0.84449 0.09927 0.40036 0.0
H1209 H 0.77341 0.09523 0.37601 0.0
H1210 H 0.82649 0.08878 0.28407 0.0
H1211 H 0.83005 0.12195 0.25586 0.0
O1212 O 0.78118 0.16377 0.34233 0.0
C1213 C 0.72536 0.15292 0.31943 0.0
C1214 C 0.80652 0.14433 0.27528 0.0
C1215 C 0.81693 0.10497 0.28703 0.0
N1216 N 0.79045 0.12783 0.31065 0.0
C1217 C 0.79226 0.14614 0.29519 0.0
C1218 C 0.80249 0.1074 0.30675 0.0
C1219 C 0.81893 0.12359 0.27122 0.0
C1220 C 0.71087 0.11852 0.39547 0.0
N1221 N 0.70518 0.13676 0.38089 0.0
C1222 C 0.69416 0.10152 0.40136 0.0
C1223 C 0.6715 0.10327 0.39221 0.0
C1224 C 0.66582 0.12194 0.37738 0.0
C1225 C 0.683 0.13861 0.37186 0.0
C1226 C 0.68137 0.20447 0.40602 0.0
C1227 C 0.70527 0.20316 0.36364 0.0
C1228 C 0.69643 0.18587 0.40053 0.0
N1229 N 0.70807 0.18535 0.37951 0.0
C1230 C 0.69037 0.22206 0.36853 0.0
C1231 C 0.67834 0.22266 0.38988 0.0
C1232 C 0.77275 0.18238 0.35156 0.0
C1233 C 0.80835 0.09514 0.38999 0.0
C1234 C 0.81719 0.12983 0.357 0.0
C1235 C 0.83521 0.12254 0.372 0.0
C1236 C 0.83071 0.10507 0.3886 0.0
N1237 N 0.79533 0.11996 0.35844 0.0
C1238 C 0.79077 0.10286 0.37469 0.0
Co1239 Co 0.37599 0.26766 0.83994 0.0
Co1240 Co 0.33635 0.23505 0.87172 0.0
O1241 O 0.36692 0.24998 0.86783 0.0
C1242 C 0.41498 0.23338 0.84365 0.0
O1243 O 0.39966 0.21623 0.84166 0.0
C1244 C 0.34181 0.26497 0.91339 0.0
O1245 O 0.34869 0.28168 0.89904 0.0
O1246 O 0.31996 0.26462 0.86334 0.0
O1247 O 0.34361 0.28089 0.83621 0.0
H1248 H 0.25325 0.2154 0.84915 0.0
H1249 H 0.40417 0.27254 0.8836 0.0
O1250 O 0.40847 0.2548 0.84318 0.0
H1251 H 0.37551 0.3524 0.8657 0.0
H1252 H 0.4314 0.31709 0.79175 0.0
H1253 H 0.35488 0.27635 0.79304 0.0
H1254 H 0.36565 0.3191 0.8397 0.0
H1255 H 0.41853 0.29543 0.82708 0.0
O1256 O 0.33609 0.24482 0.90547 0.0
H1257 H 0.29224 0.23364 0.84397 0.0
H1258 H 0.31494 0.2054 0.90927 0.0
H1259 H 0.36693 0.29797 0.75743 0.0
H1260 H 0.41467 0.30538 0.90991 0.0
H1261 H 0.40546 0.31855 0.75664 0.0
H1262 H 0.40022 0.34564 0.90108 0.0
O1263 O 0.36703 0.24094 0.81929 0.0
H1264 H 0.39677 0.1865 0.91407 0.0
H1265 H 0.33195 0.18504 0.85648 0.0
H1266 H 0.35294 0.14828 0.86591 0.0
H1267 H 0.38558 0.14886 0.89493 0.0
H1268 H 0.3754 0.22289 0.904 0.0
H1269 H 0.27611 0.18699 0.91527 0.0
H1270 H 0.24498 0.19186 0.88502 0.0
O1271 O 0.33588 0.22521 0.83795 0.0
C1272 C 0.32411 0.2796 0.84722 0.0
C1273 C 0.2667 0.21304 0.8624 0.0
C1274 C 0.27953 0.19712 0.89953 0.0
N1275 N 0.30593 0.22031 0.87615 0.0
C1276 C 0.28885 0.22324 0.85952 0.0
C1277 C 0.30146 0.2076 0.89605 0.0
C1278 C 0.26207 0.19986 0.88254 0.0
C1279 C 0.39807 0.29006 0.87946 0.0
N1280 N 0.38441 0.29391 0.86006 0.0
C1281 C 0.40397 0.30857 0.8945 0.0
C1282 C 0.39581 0.33114 0.88956 0.0
C1283 C 0.38193 0.33494 0.86973 0.0
C1284 C 0.37634 0.316 0.8551 0.0
C1285 C 0.41453 0.30828 0.79192 0.0
C1286 C 0.37156 0.28545 0.79291 0.0
C1287 C 0.40717 0.29598 0.81186 0.0
N1288 N 0.38583 0.28492 0.81223 0.0
C1289 C 0.37834 0.29758 0.77266 0.0
C1290 C 0.39997 0.30909 0.77222 0.0
C1291 C 0.3493 0.22723 0.82005 0.0
C1292 C 0.38253 0.18601 0.90145 0.0
C1293 C 0.34616 0.18544 0.8691 0.0
C1294 C 0.35796 0.16456 0.87439 0.0
C1295 C 0.37626 0.1649 0.89068 0.0
N1296 N 0.35237 0.20606 0.8798 0.0
C1297 C 0.37032 0.20654 0.89575 0.0
Co1298 Co 0.27598 0.84013 0.36822 0.0
Co1299 Co 0.23652 0.87312 0.33621 0.0
O1300 O 0.25599 0.86734 0.36365 0.0
C1301 C 0.24386 0.83891 0.40871 0.0
O1302 O 0.22645 0.83965 0.39358 0.0
C1303 C 0.26736 0.91459 0.3392 0.0
O1304 O 0.28531 0.90009 0.33913 0.0
O1305 O 0.2629 0.86557 0.31443 0.0
O1306 O 0.2869 0.84153 0.33486 0.0
H1307 H 0.20193 0.85642 0.25658 0.0
H1308 H 0.27945 0.88115 0.4003 0.0
O1309 O 0.26511 0.83861 0.40162 0.0
H1310 H 0.35847 0.87214 0.36578 0.0
H1311 H 0.33214 0.78965 0.41435 0.0
H1312 H 0.28732 0.79742 0.34052 0.0
H1313 H 0.32659 0.84463 0.35536 0.0
H1314 H 0.30703 0.82434 0.40734 0.0
O1315 O 0.24643 0.90681 0.3374 0.0
H1316 H 0.22643 0.84829 0.29141 0.0
H1317 H 0.20488 0.91256 0.32263 0.0
H1318 H 0.31237 0.76255 0.34669 0.0
H1319 H 0.31085 0.90893 0.41138 0.0
H1320 H 0.335 0.75851 0.38383 0.0
H1321 H 0.35068 0.90456 0.39401 0.0
O1322 O 0.25024 0.81834 0.3587 0.0
H1323 H 0.19857 0.91065 0.4067 0.0
H1324 H 0.18643 0.85801 0.33884 0.0
H1325 H 0.15358 0.86561 0.36611 0.0
H1326 H 0.15954 0.89212 0.40032 0.0
H1327 H 0.23099 0.90243 0.37911 0.0
H1328 H 0.18024 0.92154 0.28807 0.0
H1329 H 0.1786 0.89332 0.25476 0.0
O1330 O 0.22666 0.83948 0.33486 0.0
C1331 C 0.28078 0.85207 0.316 0.0
C1332 C 0.20245 0.86884 0.271 0.0
C1333 C 0.19031 0.9054 0.28866 0.0
N1334 N 0.21701 0.87985 0.30906 0.0
C1335 C 0.21626 0.86429 0.29078 0.0
C1336 C 0.20434 0.90025 0.30815 0.0
C1337 C 0.18939 0.88955 0.26998 0.0
C1338 C 0.29679 0.87901 0.39282 0.0
N1339 N 0.30121 0.86124 0.37725 0.0
C1340 C 0.31448 0.89485 0.39909 0.0
C1341 C 0.33681 0.8924 0.38932 0.0
C1342 C 0.34119 0.87423 0.37347 0.0
C1343 C 0.32306 0.85874 0.36758 0.0
C1344 C 0.32241 0.79124 0.39807 0.0
C1345 C 0.29724 0.79585 0.35665 0.0
C1346 C 0.30812 0.8108 0.39403 0.0
N1347 N 0.29589 0.81297 0.37347 0.0
C1348 C 0.31134 0.77604 0.36008 0.0
C1349 C 0.32401 0.77377 0.38094 0.0
C1350 C 0.23284 0.82026 0.34466 0.0
C1351 C 0.19573 0.89913 0.39182 0.0
C1352 C 0.18917 0.86956 0.35369 0.0
C1353 C 0.17049 0.87382 0.36906 0.0
C1354 C 0.17385 0.8887 0.38824 0.0
N1355 N 0.21056 0.87991 0.35727 0.0
C1356 C 0.21399 0.89449 0.37607 0.0
Co1357 Co 0.62961 0.73388 0.84601 0.0
Co1358 Co 0.66685 0.76886 0.87887 0.0
O1359 O 0.63743 0.75192 0.87399 0.0
C1360 C 0.58986 0.76768 0.8479 0.0
O1361 O 0.60492 0.78514 0.8469 0.0
C1362 C 0.66368 0.73572 0.91837 0.0
O1363 O 0.65802 0.71958 0.90288 0.0
O1364 O 0.6859 0.74156 0.86815 0.0
O1365 O 0.66209 0.72076 0.84429 0.0
H1366 H 0.74729 0.79886 0.85772 0.0
H1367 H 0.60028 0.72977 0.88897 0.0
O1368 O 0.59685 0.74642 0.84753 0.0
H1369 H 0.62876 0.64947 0.87283 0.0
H1370 H 0.57681 0.6836 0.79576 0.0
H1371 H 0.65345 0.72386 0.80075 0.0
H1372 H 0.63927 0.68231 0.8465 0.0
H1373 H 0.58768 0.706 0.83129 0.0
O1374 O 0.668 0.75671 0.91184 0.0
H1375 H 0.71015 0.77755 0.85099 0.0
H1376 H 0.68591 0.7967 0.91893 0.0
H1377 H 0.64339 0.70148 0.76498 0.0
H1378 H 0.58912 0.69742 0.9156 0.0
H1379 H 0.60482 0.68115 0.76232 0.0
H1380 H 0.60349 0.65694 0.90767 0.0
O1381 O 0.63929 0.76043 0.82517 0.0
H1382 H 0.6029 0.80912 0.92465 0.0
H1383 H 0.66678 0.8199 0.86701 0.0
H1384 H 0.64283 0.85404 0.87895 0.0
H1385 H 0.61065 0.84876 0.90801 0.0
H1386 H 0.62717 0.77544 0.91209 0.0
H1387 H 0.72285 0.81811 0.92653 0.0
H1388 H 0.75383 0.81935 0.89576 0.0
O1389 O 0.66635 0.78073 0.84592 0.0
C1390 C 0.68199 0.72474 0.85383 0.0
C1391 C 0.73392 0.79849 0.87126 0.0
C1392 C 0.72021 0.80926 0.90988 0.0
N1393 N 0.69586 0.78591 0.88449 0.0
C1394 C 0.71283 0.78647 0.86751 0.0
C1395 C 0.69936 0.79705 0.90551 0.0
C1396 C 0.73758 0.80996 0.89261 0.0
C1397 C 0.60639 0.71216 0.88525 0.0
N1398 N 0.6204 0.70793 0.86619 0.0
C1399 C 0.60009 0.69393 0.90045 0.0
C1400 C 0.6082 0.67123 0.89601 0.0
C1401 C 0.6224 0.66703 0.87648 0.0
C1402 C 0.62837 0.68571 0.86168 0.0
C1403 C 0.59369 0.69234 0.79672 0.0
C1404 C 0.6367 0.71493 0.79979 0.0
C1405 C 0.59991 0.70509 0.81677 0.0
N1406 N 0.62125 0.71606 0.81815 0.0
C1407 C 0.63107 0.70235 0.77946 0.0
C1408 C 0.60941 0.69097 0.77797 0.0
C1409 C 0.65477 0.77658 0.82718 0.0
C1410 C 0.61692 0.81166 0.91204 0.0
C1411 C 0.65278 0.81746 0.87964 0.0
C1412 C 0.6393 0.83686 0.88636 0.0
C1413 C 0.62126 0.83389 0.90267 0.0
N1414 N 0.64846 0.79574 0.88897 0.0
C1415 C 0.63077 0.79267 0.90492 0.0
C1416 C 0.16901 0.54822 0.23179 0.0
C1417 C 0.15062 0.56267 0.22416 0.0
C1418 C 0.16819 0.52389 0.2284 0.0
C1419 C 0.14816 0.51372 0.2177 0.0
C1420 C 0.12999 0.52835 0.20894 0.0
C1421 C 0.13158 0.55283 0.21205 0.0
C1422 C 0.1882 0.50897 0.23751 0.0
C1423 C 0.10821 0.51811 0.19779 0.0
C1424 C 0.15432 0.44885 0.20325 0.0
C1425 C 0.14689 0.43871 0.22443 0.0
C1426 C 0.15383 0.47337 0.20019 0.0
C1427 C 0.1452 0.4878 0.21857 0.0
C1428 C 0.13621 0.4774 0.23933 0.0
C1429 C 0.13746 0.453 0.24212 0.0
C1430 C 0.1639 0.48386 0.178 0.0
C1431 C 0.12638 0.49212 0.25915 0.0
H1432 H 0.18388 0.55595 0.24091 0.0
H1433 H 0.11733 0.56409 0.20624 0.0
H1434 H 0.18226 0.49892 0.25315 0.0
H1435 H 0.19378 0.49605 0.224 0.0
H1436 H 0.20367 0.51974 0.24264 0.0
H1437 H 0.09742 0.53177 0.18892 0.0
H1438 H 0.11291 0.50435 0.18479 0.0
H1439 H 0.09732 0.50961 0.21157 0.0
H1440 H 0.16162 0.43776 0.18956 0.0
H1441 H 0.13137 0.4451 0.25837 0.0
H1442 H 0.18097 0.4924 0.18207 0.0
H1443 H 0.15207 0.49764 0.17088 0.0
H1444 H 0.16688 0.47035 0.1642 0.0
H1445 H 0.14083 0.50205 0.26772 0.0
H1446 H 0.11751 0.48122 0.27272 0.0
H1447 H 0.1136 0.50515 0.25226 0.0
C1448 C 0.94434 0.64384 0.71622 0.0
C1449 C 0.93305 0.66108 0.72969 0.0
C1450 C 0.96899 0.64278 0.7153 0.0
C1451 C 0.98242 0.65978 0.7276 0.0
C1452 C 0.97095 0.67818 0.73983 0.0
C1453 C 0.94637 0.67836 0.74107 0.0
C1454 C 0.98057 0.62257 0.70256 0.0
C1455 C 0.98463 0.69703 0.75261 0.0
C1456 C 0.04192 0.64539 0.75358 0.0
C1457 C 0.05716 0.656 0.73743 0.0
C1458 C 0.01758 0.64546 0.74987 0.0
C1459 C 0.00827 0.65708 0.72991 0.0
C1460 C 0.02365 0.66745 0.71329 0.0
C1461 C 0.04802 0.66648 0.7171 0.0
C1462 C 0.00181 0.63363 0.76768 0.0
C1463 C 0.01433 0.68051 0.69215 0.0
H1464 H 0.93396 0.63034 0.70763 0.0
H1465 H 0.93753 0.69175 0.75139 0.0
H1466 H 0.99487 0.62902 0.69098 0.0
H1467 H 0.98865 0.61052 0.71561 0.0
H1468 H 0.96784 0.6124 0.69178 0.0
H1469 H 0.97316 0.71166 0.75861 0.0
H1470 H 0.9934 0.6893 0.76822 0.0
H1471 H 0.99856 0.70433 0.74106 0.0
H1472 H 0.04905 0.63707 0.76918 0.0
H1473 H 0.05986 0.6748 0.70468 0.0
H1474 H 0.98929 0.62164 0.75871 0.0
H1475 H 0.99128 0.64709 0.77709 0.0
H1476 H 0.01193 0.62338 0.78087 0.0
H1477 H 0.00165 0.66944 0.68231 0.0
H1478 H 0.0286 0.68603 0.67999 0.0
H1479 H 0.00473 0.69644 0.69807 0.0
C1480 C 0.82114 0.45152 0.23646 0.0
C1481 C 0.838 0.4369 0.2261 0.0
C1482 C 0.82167 0.47586 0.2329 0.0
C1483 C 0.83997 0.48582 0.21927 0.0
C1484 C 0.85649 0.47102 0.20795 0.0
C1485 C 0.8551 0.44658 0.21126 0.0
C1486 C 0.80336 0.491 0.24478 0.0
C1487 C 0.87655 0.48102 0.19374 0.0
C1488 C 0.83342 0.55064 0.20461 0.0
C1489 C 0.84407 0.56089 0.2243 0.0
C1490 C 0.83261 0.52606 0.20215 0.0
C1491 C 0.8433 0.5117 0.21947 0.0
C1492 C 0.85541 0.52217 0.23854 0.0
C1493 C 0.8553 0.54665 0.24092 0.0
C1494 C 0.81912 0.5155 0.18189 0.0
C1495 C 0.86758 0.50751 0.25705 0.0
H1496 H 0.80778 0.44392 0.24776 0.0
H1497 H 0.86823 0.43521 0.20339 0.0
H1498 H 0.8116 0.50096 0.2594 0.0
H1499 H 0.79608 0.50402 0.2322 0.0
H1500 H 0.78866 0.4804 0.25207 0.0
H1501 H 0.88599 0.4672 0.18366 0.0
H1502 H 0.87012 0.4946 0.18131 0.0
H1503 H 0.88925 0.48968 0.20576 0.0
H1504 H 0.82464 0.56175 0.19185 0.0
H1505 H 0.86375 0.55468 0.25601 0.0
H1506 H 0.8028 0.5072 0.18864 0.0
H1507 H 0.82956 0.50151 0.1732 0.0
H1508 H 0.81421 0.52891 0.16855 0.0
H1509 H 0.85428 0.49801 0.2677 0.0
H1510 H 0.87848 0.51838 0.26908 0.0
H1511 H 0.87902 0.49411 0.24866 0.0
C1512 C 0.05159 0.35501 0.71166 0.0
C1513 C 0.06267 0.33706 0.72435 0.0
C1514 C 0.02695 0.35616 0.71048 0.0
C1515 C 0.01333 0.33859 0.72175 0.0
C1516 C 0.02461 0.31958 0.73319 0.0
C1517 C 0.04916 0.31925 0.73466 0.0
C1518 C 0.01553 0.37693 0.69855 0.0
C1519 C 0.01075 0.30019 0.74492 0.0
C1520 C 0.95364 0.35158 0.74792 0.0
C1521 C 0.93853 0.34144 0.73132 0.0
C1522 C 0.97798 0.35187 0.74431 0.0
C1523 C 0.98746 0.34118 0.72392 0.0
C1524 C 0.97224 0.33137 0.70683 0.0
C1525 C 0.94784 0.33189 0.71061 0.0
C1526 C 0.99359 0.363 0.76271 0.0
C1527 C 0.98175 0.31938 0.68514 0.0
H1528 H 0.06212 0.36885 0.70383 0.0
H1529 H 0.05782 0.30525 0.74429 0.0
H1530 H 0.00136 0.37103 0.68653 0.0
H1531 H 0.00731 0.3884 0.71203 0.0
H1532 H 0.02839 0.38756 0.68838 0.0
H1533 H 0.02213 0.28533 0.7505 0.0
H1534 H 0.00169 0.30725 0.7607 0.0
H1535 H 0.99703 0.29337 0.73285 0.0
H1536 H 0.94641 0.35928 0.7638 0.0
H1537 H 0.93613 0.32403 0.69778 0.0
H1538 H 0.00607 0.37545 0.75435 0.0
H1539 H 0.00415 0.34921 0.77159 0.0
H1540 H 0.98334 0.37261 0.77629 0.0
H1541 H 0.99447 0.33097 0.67595 0.0
H1542 H 0.96759 0.31441 0.67263 0.0
H1543 H 0.99137 0.30322 0.69036 0.0
C1544 C 0.13764 0.44465 0.7838 0.0
C1545 C 0.15498 0.43482 0.76934 0.0
C1546 C 0.13655 0.46911 0.78727 0.0
C1547 C 0.15361 0.48377 0.77655 0.0
C1548 C 0.17193 0.47365 0.76307 0.0
C1549 C 0.17216 0.44932 0.75932 0.0
C1550 C 0.11645 0.47931 0.80126 0.0
C1551 C 0.19081 0.48858 0.75184 0.0
C1552 C 0.14102 0.54604 0.75716 0.0
C1553 C 0.15243 0.55918 0.77457 0.0
C1554 C 0.13997 0.52149 0.75848 0.0
C1555 C 0.15127 0.50977 0.77731 0.0
C1556 C 0.16221 0.52301 0.79537 0.0
C1557 C 0.16236 0.54769 0.79395 0.0
C1558 C 0.12757 0.50806 0.7392 0.0
C1559 C 0.17491 0.51112 0.81541 0.0
H1560 H 0.12431 0.43336 0.79144 0.0
H1561 H 0.18574 0.44162 0.74837 0.0
H1562 H 0.12306 0.49199 0.81453 0.0
H1563 H 0.10458 0.48913 0.78929 0.0
H1564 H 0.10606 0.4655 0.81036 0.0
H1565 H 0.2052 0.47778 0.74421 0.0
H1566 H 0.18303 0.49939 0.73759 0.0
H1567 H 0.19847 0.50083 0.76496 0.0
H1568 H 0.13306 0.55498 0.74231 0.0
H1569 H 0.17123 0.55791 0.80738 0.0
H1570 H 0.11549 0.49479 0.74684 0.0
H1571 H 0.14069 0.49848 0.72839 0.0
H1572 H 0.11733 0.51983 0.72744 0.0
H1573 H 0.16362 0.49745 0.82355 0.0
H1574 H 0.18039 0.52381 0.82922 0.0
H1575 H 0.19082 0.50215 0.80856 0.0
C1576 C 0.9538 0.64362 0.2569 0.0
C1577 C 0.9382 0.65187 0.27406 0.0
C1578 C 0.97799 0.64271 0.26121 0.0
C1579 C 0.98684 0.65082 0.28303 0.0
C1580 C 0.97108 0.6583 0.3008 0.0
C1581 C 0.94682 0.65849 0.29617 0.0
C1582 C 0.99416 0.63412 0.24196 0.0
C1583 C 0.9799 0.66741 0.32412 0.0
C1584 C 0.05136 0.63697 0.29262 0.0
C1585 C 0.06177 0.6565 0.28184 0.0
C1586 C 0.02677 0.63533 0.29449 0.0
C1587 C 0.0126 0.65391 0.28584 0.0
C1588 C 0.02329 0.67448 0.27676 0.0
C1589 C 0.04776 0.67536 0.27456 0.0
C1590 C 0.016 0.61301 0.30397 0.0
C1591 C 0.00886 0.69492 0.26785 0.0
H1592 H 0.9471 0.63816 0.23989 0.0
H1593 H 0.93472 0.66489 0.30945 0.0
H1594 H 0.0045 0.6491 0.23492 0.0
H1595 H 0.00682 0.62106 0.24903 0.0
H1596 H 0.98435 0.62593 0.22717 0.0
H1597 H 0.96546 0.66955 0.3371 0.0
H1598 H 0.99334 0.65541 0.33157 0.0
H1599 H 0.98843 0.68476 0.32145 0.0
H1600 H 0.06228 0.62234 0.29811 0.0
H1601 H 0.05593 0.69055 0.26641 0.0
H1602 H 0.00867 0.60262 0.28917 0.0
H1603 H 0.00129 0.61702 0.31613 0.0
H1604 H 0.02912 0.60199 0.31334 0.0
H1605 H -1e-05 0.68987 0.25122 0.0
H1606 H 0.01983 0.71072 0.2644 0.0
H1607 H 0.99498 0.69963 0.28073 0.0
C1608 C 0.81642 0.54836 0.75308 0.0
C1609 C 0.8339 0.56149 0.76437 0.0
C1610 C 0.81579 0.52383 0.7551 0.0
C1611 C 0.83359 0.51219 0.76804 0.0
C1612 C 0.85083 0.52547 0.78016 0.0
C1613 C 0.85055 0.5501 0.77846 0.0
C1614 C 0.79672 0.51033 0.74248 0.0
C1615 C 0.87045 0.51367 0.79359 0.0
C1616 C 0.82564 0.44708 0.78093 0.0
C1617 C 0.83652 0.43701 0.76126 0.0
C1618 C 0.8247 0.47163 0.78361 0.0
C1619 C 0.83556 0.4862 0.76658 0.0
C1620 C 0.84737 0.47598 0.7472 0.0
C1621 C 0.84737 0.45151 0.74458 0.0
C1622 C 0.81142 0.48196 0.80413 0.0
C1623 C 0.85972 0.49089 0.72899 0.0
H1624 H 0.80344 0.55729 0.74233 0.0
H1625 H 0.86418 0.56034 0.78702 0.0
H1626 H 0.80439 0.50083 0.72726 0.0
H1627 H 0.78883 0.49698 0.75433 0.0
H1628 H 0.78255 0.52205 0.7359 0.0
H1629 H 0.88099 0.52644 0.80396 0.0
H1630 H 0.86334 0.50012 0.80567 0.0
H1631 H 0.88231 0.5046 0.78103 0.0
H1632 H 0.81719 0.43581 0.79377 0.0
H1633 H 0.85605 0.44368 0.72951 0.0
H1634 H 0.79613 0.49213 0.79754 0.0
H1635 H 0.82276 0.49437 0.81402 0.0
H1636 H 0.80495 0.46822 0.81642 0.0
H1637 H 0.84663 0.50149 0.71916 0.0
H1638 H 0.86978 0.48011 0.71618 0.0
H1639 H 0.87198 0.50334 0.73767 0.0
C1640 C 0.94629 0.32016 0.2624 0.0
C1641 C 0.93262 0.33792 0.27254 0.0
C1642 C 0.97075 0.32012 0.26493 0.0
C1643 C 0.98177 0.33876 0.27724 0.0
C1644 C 0.96792 0.35612 0.28851 0.0
C1645 C 0.94336 0.35531 0.28627 0.0
C1646 C 0.98486 0.30093 0.25318 0.0
C1647 C 0.97905 0.37651 0.30135 0.0
C1648 C 0.04716 0.33213 0.2889 0.0
C1649 C 0.05654 0.34201 0.26839 0.0
C1650 C 0.02273 0.33149 0.29251 0.0
C1651 C 0.00763 0.34157 0.27547 0.0
C1652 C 0.01723 0.35275 0.2554 0.0
C1653 C 0.04156 0.3525 0.25193 0.0
C1654 C 0.01309 0.31897 0.31383 0.0
C1655 C 0.00175 0.36425 0.23712 0.0
H1656 H 0.93786 0.30662 0.25193 0.0
H1657 H 0.9327 0.36914 0.29395 0.0
H1658 H 0.99409 0.30822 0.23761 0.0
H1659 H 0.99845 0.29402 0.26536 0.0
H1660 H 0.9736 0.2861 0.24727 0.0
H1661 H 0.96598 0.38659 0.31182 0.0
H1662 H 0.9932 0.37032 0.31324 0.0
H1663 H 0.9872 0.3886 0.28838 0.0
H1664 H 0.05882 0.32395 0.30157 0.0
H1665 H 0.04891 0.3604 0.2362 0.0
H1666 H 0.00405 0.30261 0.30818 0.0
H1667 H -0.00014 0.33005 0.3229 0.0
H1668 H 0.02712 0.31422 0.32656 0.0
H1669 H 0.99144 0.3506 0.22772 0.0
H1670 H 0.01209 0.37431 0.22395 0.0
H1671 H 0.98904 0.37635 0.24565 0.0
C1672 C 0.20603 0.15318 0.55528 0.0
C1673 C 0.2272 0.14386 0.56373 0.0
C1674 C 0.20144 0.15398 0.531 0.0
C1675 C 0.21824 0.1448 0.51506 0.0
C1676 C 0.23877 0.13374 0.52376 0.0
C1677 C 0.24313 0.13367 0.54797 0.0
C1678 C 0.1795 0.16615 0.52239 0.0
C1679 C 0.25691 0.12327 0.50741 0.0
C1680 C 0.20768 0.13603 0.4497 0.0
C1681 C 0.2207 0.15478 0.44045 0.0
C1682 C 0.20556 0.13307 0.47416 0.0
C1683 C 0.21633 0.14954 0.48945 0.0
C1684 C 0.22798 0.16942 0.48002 0.0
C1685 C 0.23026 0.17163 0.45563 0.0
C1686 C 0.19327 0.11152 0.48356 0.0
C1687 C 0.23929 0.18767 0.49568 0.0
H1688 H 0.19372 0.16109 0.56749 0.0
H1689 H 0.25938 0.12616 0.55456 0.0
H1690 H 0.18429 0.18353 0.51492 0.0
H1691 H 0.17098 0.15585 0.50819 0.0
H1692 H 0.16659 0.16897 0.53678 0.0
H1693 H 0.27022 0.11268 0.51701 0.0
H1694 H 0.24834 0.11192 0.49405 0.0
H1695 H 0.26615 0.13759 0.4979 0.0
H1696 H 0.20037 0.12295 0.43789 0.0
H1697 H 0.24011 0.18629 0.44841 0.0
H1698 H 0.18149 0.11617 0.49839 0.0
H1699 H 0.20657 0.09899 0.4904 0.0
H1700 H 0.1828 0.10247 0.46976 0.0
H1701 H 0.22685 0.19339 0.50957 0.0
H1702 H 0.24512 0.2034 0.48565 0.0
H1703 H 0.25484 0.17993 0.50455 0.0
C1704 C 0.33441 0.70715 0.94456 0.0
C1705 C 0.3486 0.7247 0.93474 0.0
C1706 C 0.33248 0.70483 0.96909 0.0
C1707 C 0.34554 0.72006 0.98387 0.0
C1708 C 0.36125 0.73658 0.97387 0.0
C1709 C 0.3623 0.73895 0.9494 0.0
C1710 C 0.31522 0.68733 0.9791 0.0
C1711 C 0.37596 0.75271 0.989 0.0
C1712 C 0.32293 0.74064 0.0429 0.0
C1713 C 0.33654 0.72727 0.05844 0.0
C1714 C 0.32469 0.73737 0.01855 0.0
C1715 C 0.34097 0.7208 0.00957 0.0
C1716 C 0.35426 0.70673 0.02523 0.0
C1717 C 0.35165 0.70994 0.04957 0.0
C1718 C 0.3098 0.75234 0.00244 0.0
C1719 C 0.37215 0.68927 0.01631 0.0
H1720 H 0.32367 0.69629 0.93315 0.0
H1721 H 0.3734 0.75242 0.9417 0.0
H1722 H 0.32331 0.6772 0.99366 0.0
H1723 H 0.29991 0.69691 0.9865 0.0
H1724 H 0.30875 0.67483 0.96555 0.0
H1725 H 0.38942 0.76231 0.97859 0.0
H1726 H 0.36444 0.76583 0.99771 0.0
H1727 H 0.38496 0.74257 0.00304 0.0
H1728 H 0.31108 0.7539 0.04979 0.0
H1729 H 0.36229 0.69969 0.06161 0.0
H1730 H 0.3009 0.74119 0.98912 0.0
H1731 H 0.32117 0.76497 0.99284 0.0
H1732 H 0.29625 0.76246 0.01221 0.0
H1733 H 0.36431 0.67777 0.00265 0.0
H1734 H 0.37928 0.67807 0.03064 0.0
H1735 H 0.38696 0.69888 0.008 0.0
C1736 C 0.7821 0.85274 0.4482 0.0
C1737 C 0.76724 0.83675 0.4368 0.0
C1738 C 0.78326 0.85344 0.47285 0.0
C1739 C 0.76975 0.83731 0.48618 0.0
C1740 C 0.75587 0.82019 0.47459 0.0
C1741 C 0.75447 0.82038 0.45001 0.0
C1742 C 0.79775 0.87234 0.48457 0.0
C1743 C 0.74172 0.80227 0.48817 0.0
C1744 C 0.7809 0.82824 0.5514 0.0
C1745 C 0.76166 0.8401 0.56115 0.0
C1746 C 0.78416 0.82755 0.52692 0.0
C1747 C 0.76818 0.83961 0.51212 0.0
C1748 C 0.74944 0.85263 0.52209 0.0
C1749 C 0.74618 0.85237 0.54648 0.0
C1750 C 0.80396 0.813 0.51688 0.0
C1751 C 0.73242 0.86628 0.50694 0.0
H1752 H 0.79181 0.86551 0.4379 0.0
H1753 H 0.74312 0.8079 0.4411 0.0
H1754 H 0.78588 0.88508 0.49338 0.0
H1755 H 0.80921 0.86464 0.49835 0.0
H1756 H 0.80891 0.88206 0.47181 0.0
H1757 H 0.73416 0.7885 0.47654 0.0
H1758 H 0.75284 0.79364 0.50167 0.0
H1759 H 0.72707 0.81117 0.49748 0.0
H1760 H 0.79279 0.81867 0.56282 0.0
H1761 H 0.73145 0.86177 0.55411 0.0
H1762 H 0.81446 0.82353 0.50427 0.0
H1763 H 0.79654 0.79788 0.50701 0.0
H1764 H 0.81585 0.80613 0.53078 0.0
H1765 H 0.74212 0.87773 0.49448 0.0
H1766 H 0.72037 0.8774 0.51757 0.0
H1767 H 0.72166 0.85391 0.49636 0.0
C1768 C 0.67987 0.25458 0.04698 0.0
C1769 C 0.6633 0.26684 0.06042 0.0
C1770 C 0.6805 0.25696 0.02248 0.0
C1771 C 0.66362 0.27134 0.01116 0.0
C1772 C 0.64734 0.28441 0.02475 0.0
C1773 C 0.6476 0.28224 0.04935 0.0
C1774 C 0.69854 0.24323 0.00865 0.0
C1775 C 0.62871 0.29943 0.0133 0.0
C1776 C 0.67275 0.28426 0.9462 0.0
C1777 C 0.6607 0.2654 0.93594 0.0
C1778 C 0.67357 0.28679 0.97077 0.0
C1779 C 0.66144 0.27047 0.98516 0.0
C1780 C 0.64829 0.2521 0.97471 0.0
C1781 C 0.6484 0.24957 0.95023 0.0
C1782 C 0.68825 0.30622 0.98134 0.0
C1783 C 0.63458 0.23469 0.98938 0.0
H1784 H 0.69214 0.24283 0.05564 0.0
H1785 H 0.63468 0.2916 0.0598 0.0
H1786 H 0.68973 0.22882 0.99888 0.0
H1787 H 0.70725 0.25474 0.99553 0.0
H1788 H 0.71221 0.23537 0.02018 0.0
H1789 H 0.61901 0.31032 0.02631 0.0
H1790 H 0.63662 0.3112 -9e-05 0.0
H1791 H 0.61591 0.28793 0.00408 0.0
H1792 H 0.68234 0.29642 0.93507 0.0
H1793 H 0.63885 0.23513 0.94225 0.0
H1794 H 0.7033 0.29844 0.99103 0.0
H1795 H 0.67778 0.31645 0.99422 0.0
H1796 H 0.69521 0.31843 0.96777 0.0
H1797 H 0.64689 0.22367 -0.00026 0.0
H1798 H 0.62348 0.22291 0.97844 0.0
H1799 H 0.6231 0.2441 0.00205 0.0
C1800 C 0.21811 0.82881 0.44277 0.0
C1801 C 0.23893 0.83873 0.43411 0.0
C1802 C 0.21391 0.82751 0.46706 0.0
C1803 C 0.23067 0.83694 0.48287 0.0
C1804 C 0.25129 0.84778 0.4741 0.0
C1805 C 0.25533 0.84824 0.44982 0.0
C1806 C 0.19202 0.81531 0.47582 0.0
C1807 C 0.26932 0.85855 0.49039 0.0
C1808 C 0.21536 0.85043 0.54639 0.0
C1809 C 0.22728 0.83232 0.55804 0.0
C1810 C 0.21563 0.85183 0.52174 0.0
C1811 C 0.22754 0.83432 0.50864 0.0
C1812 C 0.23835 0.81522 0.52038 0.0
C1813 C 0.2384 0.81465 0.54499 0.0
C1814 C 0.20439 0.87273 0.50986 0.0
C1815 C 0.2507 0.79588 0.507 0.0
H1816 H 0.20547 0.82139 0.43058 0.0
H1817 H 0.27131 0.85618 0.44309 0.0
H1818 H 0.19702 0.79939 0.48594 0.0
H1819 H 0.18215 0.82697 0.48793 0.0
H1820 H 0.1802 0.80995 0.46122 0.0
H1821 H 0.28337 0.86801 0.48066 0.0
H1822 H 0.26071 0.87105 0.50265 0.0
H1823 H 0.27762 0.84458 0.50118 0.0
H1824 H 0.20693 0.86419 0.55656 0.0
H1825 H 0.24746 0.80053 0.55407 0.0
H1826 H 0.19261 0.8669 0.49545 0.0
H1827 H 0.21827 0.88387 0.50183 0.0
H1828 H 0.19411 0.88368 0.52235 0.0
H1829 H 0.23922 0.78907 0.49277 0.0
H1830 H 0.25581 0.781 0.51859 0.0
H1831 H 0.26682 0.80297 0.49861 0.0
C1832 C 0.63895 0.74131 0.05283 0.0
C1833 C 0.65257 0.72688 0.06739 0.0
C1834 C 0.6399 0.73906 0.02836 0.0
C1835 C 0.65541 0.72244 0.01822 0.0
C1836 C 0.66845 0.70708 0.03288 0.0
C1837 C 0.66663 0.7093 0.05743 0.0
C1838 C 0.62525 0.75537 0.01336 0.0
C1839 C 0.68546 0.68945 0.02271 0.0
C1840 C 0.64835 0.71287 0.95255 0.0
C1841 C 0.6635 0.73015 0.94364 0.0
C1842 C 0.64611 0.70942 0.9769 0.0
C1843 C 0.65977 0.7232 0.9925 0.0
C1844 C 0.6761 0.73968 0.98344 0.0
C1845 C 0.67753 0.74318 0.95911 0.0
C1846 C 0.62818 0.69204 0.98591 0.0
C1847 C 0.69135 0.75438 0.99948 0.0
H1848 H 0.62789 0.75476 0.06062 0.0
H1849 H 0.67726 0.69826 0.06877 0.0
H1850 H 0.63685 0.76832 0.00452 0.0
H1851 H 0.61598 0.74533 0.99943 0.0
H1852 H 0.61201 0.76515 0.02389 0.0
H1853 H 0.69195 0.67689 0.0362 0.0
H1854 H 0.67714 0.67938 0.00822 0.0
H1855 H 0.70078 0.6989 0.01517 0.0
H1856 H 0.63741 0.70286 0.94056 0.0
H1857 H 0.68944 0.75637 0.95219 0.0
H1858 H 0.61349 0.70172 0.99436 0.0
H1859 H 0.63605 0.68046 0.99948 0.0
H1860 H 0.62086 0.68093 0.9716 0.0
H1861 H 0.68025 0.76709 0.00926 0.0
H1862 H 0.70493 0.76439 0.98961 0.0
H1863 H 0.70026 0.74305 0.01263 0.0
C1864 C 0.78585 0.14502 0.55103 0.0
C1865 C 0.7717 0.1617 0.56233 0.0
C1866 C 0.78752 0.14456 0.52639 0.0
C1867 C 0.77521 0.16158 0.51299 0.0
C1868 C 0.7623 0.17946 0.52453 0.0
C1869 C 0.76039 0.17908 0.54907 0.0
C1870 C 0.80103 0.12493 0.51472 0.0
C1871 C 0.74942 0.19829 0.51091 0.0
C1872 C 0.78651 0.16957 0.4476 0.0
C1873 C 0.76661 0.15866 0.43802 0.0
C1874 C 0.78994 0.17027 0.47207 0.0
C1875 C 0.7734 0.15923 0.48705 0.0
C1876 C 0.7539 0.14722 0.47728 0.0
C1877 C 0.75056 0.14739 0.4529 0.0
C1878 C 0.81062 0.1837 0.48189 0.0
C1879 C 0.73617 0.13472 0.49262 0.0
H1880 H 0.79445 0.13147 0.56135 0.0
H1881 H 0.74959 0.19209 0.5579 0.0
H1882 H 0.78849 0.11264 0.5062 0.0
H1883 H 0.81269 0.13194 0.50075 0.0
H1884 H 0.81185 0.11485 0.5275 0.0
H1885 H 0.74287 0.21257 0.52251 0.0
H1886 H 0.76109 0.20608 0.49735 0.0
H1887 H 0.73417 0.19038 0.50166 0.0
H1888 H 0.79888 0.17835 0.43605 0.0
H1889 H 0.73532 0.13869 0.44545 0.0
H1890 H 0.8205 0.17269 0.49459 0.0
H1891 H 0.80417 0.19935 0.49162 0.0
H1892 H 0.82285 0.18969 0.46789 0.0
H1893 H 0.74524 0.12272 0.50505 0.0
H1894 H 0.72335 0.12433 0.48215 0.0
H1895 H 0.72631 0.14777 0.50325 0.0
C1896 C 0.35723 0.25394 0.04995 0.0
C1897 C 0.34521 0.27064 0.06346 0.0
C1898 C 0.35778 0.25559 0.0254 0.0
C1899 C 0.34532 0.27395 0.01412 0.0
C1900 C 0.3336 0.29121 0.02773 0.0
C1901 C 0.33399 0.28954 0.05236 0.0
C1902 C 0.37106 0.23723 0.01153 0.0
C1903 C 0.31963 0.31066 0.01628 0.0
C1904 C 0.35822 0.28384 0.94938 0.0
C1905 C 0.34153 0.26905 0.93891 0.0
C1906 C 0.35941 0.28608 0.97393 0.0
C1907 C 0.34307 0.27377 0.98812 0.0
C1908 C 0.32546 0.25975 0.97748 0.0
C1909 C 0.32515 0.25725 0.95299 0.0
C1910 C 0.37881 0.30067 0.98468 0.0
C1911 C 0.30734 0.24683 0.99199 0.0
H1912 H 0.36611 0.23946 0.05862 0.0
H1913 H 0.32459 0.30236 0.06289 0.0
H1914 H 0.35846 0.22602 0.00172 0.0
H1915 H 0.38272 0.24577 0.99842 0.0
H1916 H 0.3819 0.22573 0.02301 0.0
H1917 H 0.31305 0.32366 0.02929 0.0
H1918 H 0.33048 0.31999 0.00303 0.0
H1919 H 0.30435 0.30299 0.00687 0.0
H1920 H 0.37098 0.29283 0.93843 0.0
H1921 H 0.31211 0.24599 0.94481 0.0
H1922 H 0.39097 0.28903 0.99455 0.0
H1923 H 0.37146 0.31347 0.99743 0.0
H1924 H 0.38907 0.31041 0.97121 0.0
H1925 H 0.31602 0.23276 0.00236 0.0
H1926 H 0.29347 0.23865 0.98092 0.0
H1927 H 0.29887 0.25903 0.00464 0.0
C1928 C 0.55126 0.24369 0.17874 0.0
C1929 C 0.56415 0.23219 0.16123 0.0
C1930 C 0.52676 0.24162 0.17975 0.0
C1931 C 0.5149 0.2284 0.1623 0.0
C1932 C 0.52795 0.21603 0.14506 0.0
C1933 C 0.55257 0.21781 0.14495 0.0
C1934 C 0.51352 0.25452 0.19882 0.0
C1935 C 0.5159 0.20228 0.12582 0.0
C1936 C 0.45003 0.21603 0.17223 0.0
C1937 C 0.43982 0.23574 0.16156 0.0
C1938 C 0.47454 0.21304 0.17226 0.0
C1939 C 0.4889 0.2298 0.16072 0.0
C1940 C 0.47847 0.24908 0.14893 0.0
C1941 C 0.45407 0.25202 0.14983 0.0
C1942 C 0.4851 0.19262 0.18553 0.0
C1943 C 0.49313 0.267 0.13587 0.0
H1944 H 0.56034 0.25467 0.19142 0.0
H1945 H 0.56263 0.20909 0.13129 0.0
H1946 H 0.50387 0.26958 0.19105 0.0
H1947 H 0.50034 0.24276 0.20711 0.0
H1948 H 0.52544 0.26137 0.21271 0.0
H1949 H 0.52852 0.19164 0.11536 0.0
H1950 H 0.50236 0.1904 0.13329 0.0
H1951 H 0.50678 0.21465 0.11379 0.0
H1952 H 0.43894 0.20351 0.18139 0.0
H1953 H 0.44609 0.26712 0.14134 0.0
H1954 H 0.49525 0.19935 0.20079 0.0
H1955 H 0.49756 0.18282 0.17418 0.0
H1956 H 0.47149 0.18024 0.19209 0.0
H1957 H 0.50393 0.27716 0.14855 0.0
H1958 H 0.48215 0.27954 0.1257 0.0
H1959 H 0.50538 0.25805 0.1236 0.0
C1960 C 0.55457 0.79101 0.83604 0.0
C1961 C 0.56438 0.77219 0.84853 0.0
C1962 C 0.53005 0.79335 0.83404 0.0
C1963 C 0.51521 0.77682 0.84532 0.0
C1964 C 0.52515 0.75865 0.85913 0.0
C1965 C 0.54962 0.75637 0.86029 0.0
C1966 C 0.52009 0.81266 0.8188 0.0
C1967 C 0.50996 0.74099 0.87192 0.0
C1968 C 0.44985 0.78741 0.85387 0.0
C1969 C 0.44032 0.77217 0.83702 0.0
C1970 C 0.4743 0.78979 0.85635 0.0
C1971 C 0.48942 0.77704 0.84121 0.0
C1972 C 0.47977 0.76263 0.82333 0.0
C1973 C 0.45533 0.76012 0.82166 0.0
C1974 C 0.48393 0.80489 0.87595 0.0
C1975 C 0.49528 0.74915 0.8065 0.0
H1976 H 0.56603 0.80314 0.82682 0.0
H1977 H 0.55725 0.74193 0.87014 0.0
H1978 H 0.51191 0.8048 0.80292 0.0
H1979 H 0.5061 0.82236 0.82832 0.0
H1980 H 0.53379 0.82536 0.8131 0.0
H1981 H 0.52036 0.72957 0.88387 0.0
H1982 H 0.49627 0.75015 0.88238 0.0
H1983 H 0.5008 0.72963 0.85897 0.0
H1984 H 0.43824 0.79664 0.86585 0.0
H1985 H 0.44794 0.7485 0.80846 0.0
H1986 H 0.49748 0.81713 0.86912 0.0
H1987 H 0.49256 0.79351 0.88925 0.0
H1988 H 0.46995 0.81528 0.8848 0.0
H1989 H 0.50866 0.76099 0.79865 0.0
H1990 H 0.48505 0.74082 0.79208 0.0
H1991 H 0.50481 0.73514 0.81616 0.0
C1992 C 0.71625 0.95062 0.32954 0.0
C1993 C 0.73421 0.94063 0.34308 0.0
C1994 C 0.71391 0.97516 0.32791 0.0
C1995 C 0.72948 0.98979 0.3407 0.0
C1996 C 0.74672 0.97963 0.35551 0.0
C1997 C 0.74913 0.95515 0.3562 0.0
C1998 C 0.6957 0.98538 0.31153 0.0
C1999 C 0.76322 0.99463 0.36996 0.0
C2000 C 0.7473 0.0505 0.32033 0.0
C2001 C 0.73386 0.06484 0.33513 0.0
C2002 C 0.74488 0.026 0.32094 0.0
C2003 C 0.72922 0.01566 0.33732 0.0
C2004 C 0.7151 0.03013 0.35184 0.0
C2005 C 0.71736 0.05465 0.35032 0.0
C2006 C 0.75979 0.01116 0.30472 0.0
C2007 C 0.69869 0.01975 0.36994 0.0
H2008 H 0.70484 0.93931 0.31928 0.0
H2009 H 0.76288 0.94733 0.36685 0.0
H2010 H 0.68514 0.99899 0.32065 0.0
H2011 H 0.70465 0.99409 0.29653 0.0
H2012 H 0.68364 0.97172 0.30448 0.0
H2013 H 0.77382 0.98399 0.38245 0.0
H2014 H 0.77542 0.00422 0.35815 0.0
H2015 H 0.75318 0.00796 0.38007 0.0
H2016 H 0.75993 0.05846 0.30846 0.0
H2017 H 0.7071 0.0658 0.36189 0.0
H2018 H 0.74878 0.9978 0.29571 0.0
H2019 H 0.77325 0.0016 0.3151 0.0
H2020 H 0.76891 0.02192 0.29121 0.0
H2021 H 0.68724 0.00619 0.36186 0.0
H2022 H 0.68741 0.03334 0.37832 0.0
H2023 H 0.70914 0.01094 0.38387 0.0
C2024 C 0.45037 0.21099 0.83081 0.0
C2025 C 0.44025 0.22834 0.84503 0.0
C2026 C 0.47492 0.20884 0.82921 0.0
C2027 C 0.48941 0.224 0.84265 0.0
C2028 C 0.4791 0.2404 0.85829 0.0
C2029 C 0.45462 0.24263 0.85899 0.0
C2030 C 0.48529 0.1915 0.81199 0.0
C2031 C 0.49392 0.25644 0.87341 0.0
C2032 C 0.5548 0.21356 0.85047 0.0
C2033 C 0.56413 0.23101 0.83578 0.0
C2034 C 0.5304 0.21041 0.85235 0.0
C2035 C 0.51519 0.22466 0.83875 0.0
C2036 C 0.52467 0.24134 0.82287 0.0
C2037 C 0.54905 0.24456 0.82185 0.0
C2038 C 0.52093 0.19285 0.86987 0.0
C2039 C 0.50904 0.25649 0.80765 0.0
H2040 H 0.43916 0.20009 0.81989 0.0
H2041 H 0.44668 0.25593 0.87012 0.0
H2042 H 0.49319 0.20123 0.79703 0.0
H2043 H 0.49953 0.18116 0.82036 0.0
H2044 H 0.47185 0.17918 0.80496 0.0
H2045 H 0.48323 0.26605 0.88665 0.0
H2046 H 0.50769 0.24622 0.88272 0.0
H2047 H 0.50297 0.26955 0.86214 0.0
H2048 H 0.5665 0.20318 0.86136 0.0
H2049 H 0.55633 0.25792 0.81034 0.0
H2050 H 0.50746 0.18146 0.86156 0.0
H2051 H 0.51224 0.20238 0.88452 0.0
H2052 H 0.53501 0.18155 0.87732 0.0
H2053 H 0.49589 0.24547 0.79836 0.0
H2054 H 0.51921 0.26662 0.7944 0.0
H2055 H 0.49924 0.26911 0.81884 0.0
C2056 C 0.25346 0.95394 0.35204 0.0
C2057 C 0.27117 0.94005 0.34205 0.0
C2058 C 0.25615 0.97832 0.35408 0.0
C2059 C 0.2768 0.98912 0.34533 0.0
C2060 C 0.29504 0.97511 0.33578 0.0
C2061 C 0.29211 0.95061 0.33452 0.0
C2062 C 0.23651 0.99258 0.36485 0.0
C2063 C 0.31707 0.98607 0.32585 0.0
C2064 C 0.26459 0.05128 0.32572 0.0
C2065 C 0.27297 0.06434 0.34483 0.0
C2066 C 0.26727 0.02685 0.32495 0.0
C2067 C 0.27799 0.01516 0.34412 0.0
C2068 C 0.28739 0.02837 0.36306 0.0
C2069 C 0.28501 0.05298 0.36304 0.0
C2070 C 0.25752 0.01348 0.30417 0.0
C2071 C 0.29853 0.01647 0.38399 0.0
H2072 H 0.2374 0.94574 0.35823 0.0
H2073 H 0.30581 0.93984 0.3268 0.0
H2074 H 0.24357 0.0047 0.37842 0.0
H2075 H 0.22803 0.00351 0.3511 0.0
H2076 H 0.22283 0.9813 0.37306 0.0
H2077 H 0.33052 0.97267 0.32123 0.0
H2078 H 0.31261 0.99618 0.30977 0.0
H2079 H 0.32482 0.99862 0.33861 0.0
H2080 H 0.2555 0.06019 0.31151 0.0
H2081 H 0.29138 0.06316 0.37786 0.0
H2082 H 0.24178 0.00336 0.3097 0.0
H2083 H 0.27066 0.00069 0.29752 0.0
H2084 H 0.25237 0.02535 0.28953 0.0
H2085 H 0.28474 0.00722 0.39425 0.0
H2086 H 0.30751 0.02922 0.39576 0.0
H2087 H 0.31144 0.00304 0.37821 0.0
C2088 C 0.54947 0.78312 0.15049 0.0
C2089 C 0.55893 0.76754 0.16705 0.0
C2090 C 0.52504 0.78531 0.1478 0.0
C2091 C 0.50992 0.77209 0.1625 0.0
C2092 C 0.51949 0.75746 0.18024 0.0
C2093 C 0.54392 0.75507 0.18204 0.0
C2094 C 0.51551 0.80062 0.12832 0.0
C2095 C 0.50393 0.74354 0.19667 0.0
C2096 C 0.4446 0.78508 0.16681 0.0
C2097 C 0.43527 0.76623 0.154 0.0
C2098 C 0.46903 0.78774 0.16923 0.0
C2099 C 0.48424 0.77154 0.15798 0.0
C2100 C 0.47479 0.75336 0.14384 0.0
C2101 C 0.45038 0.75071 0.14233 0.0
C2102 C 0.47848 0.80699 0.18488 0.0
C2103 C 0.49042 0.73613 0.13102 0.0
H2104 H 0.56113 0.79264 0.1388 0.0
H2105 H 0.5513 0.74317 0.19499 0.0
H2106 H 0.50741 0.78933 0.11461 0.0
H2107 H 0.50155 0.81243 0.13508 0.0
H2108 H 0.52945 0.81148 0.11998 0.0
H2109 H 0.51406 0.73527 0.21118 0.0
H2110 H 0.4902 0.75506 0.20439 0.0
H2111 H 0.49484 0.72945 0.1867 0.0
H2112 H 0.43283 0.79698 0.17594 0.0
H2113 H 0.44308 0.73627 0.13223 0.0
H2114 H 0.49252 0.81698 0.17575 0.0
H2115 H 0.48646 0.79903 0.20081 0.0
H2116 H 0.46453 0.81945 0.19049 0.0
H2117 H 0.50416 0.74564 0.12094 0.0
H2118 H 0.48036 0.72476 0.11872 0.0
H2119 H 0.49952 0.72467 0.14393 0.0
C2120 C 0.70843 0.94871 0.67059 0.0
C2121 C 0.7272 0.93762 0.65915 0.0
C2122 C 0.70666 0.97337 0.67088 0.0
C2123 C 0.72371 0.987 0.65886 0.0
C2124 C 0.74195 0.97571 0.64624 0.0
C2125 C 0.74367 0.95117 0.64685 0.0
C2126 C 0.68732 0.98482 0.68497 0.0
C2127 C 0.76013 0.98956 0.63269 0.0
C2128 C 0.71511 0.05157 0.64436 0.0
C2129 C 0.73066 0.06205 0.66032 0.0
C2130 C 0.71181 0.02709 0.64423 0.0
C2131 C 0.72388 0.01303 0.66088 0.0
C2132 C 0.73838 0.02382 0.67801 0.0
C2133 C 0.74189 0.04818 0.67727 0.0
C2134 C 0.69667 0.01618 0.62535 0.0
C2135 C 0.75109 0.00953 0.69643 0.0
H2136 H 0.69576 0.93816 0.68017 0.0
H2137 H 0.75804 0.94255 0.63776 0.0
H2138 H 0.69508 0.99418 0.70024 0.0
H2139 H 0.67797 0.99812 0.6742 0.0
H2140 H 0.67433 0.97181 0.6916 0.0
H2141 H 0.77163 0.97805 0.62187 0.0
H2142 H 0.75143 0.00249 0.62094 0.0
H2143 H 0.77136 -0.00042 0.6451 0.0
H2144 H 0.70654 0.06234 0.63116 0.0
H2145 H 0.75375 0.05638 0.68976 0.0
H2146 H 0.68428 0.00325 0.63306 0.0
H2147 H 0.70803 0.00652 0.61275 0.0
H2148 H 0.68646 0.02958 0.61546 0.0
H2149 H 0.73883 0.99699 0.70498 0.0
H2150 H 0.75917 0.02079 0.71021 0.0
H2151 H 0.76522 0.99906 0.68799 0.0
C2152 C 0.26588 0.04087 0.67507 0.0
C2153 C 0.27769 0.05589 0.65955 0.0
C2154 C 0.26772 0.01643 0.67286 0.0
C2155 C 0.28124 0.0068 0.65429 0.0
C2156 C 0.29393 0.02189 0.63909 0.0
C2157 C 0.2922 0.04635 0.64207 0.0
C2158 C 0.25431 0.00093 0.68977 0.0
C2159 C 0.30817 0.01229 0.61885 0.0
C2160 C 0.29189 0.94108 0.65877 0.0
C2161 C 0.27199 0.93238 0.64715 0.0
C2162 C 0.29591 0.96541 0.66033 0.0
C2163 C 0.2799 0.98116 0.64956 0.0
C2164 C 0.26079 0.97227 0.63633 0.0
C2165 C 0.2569 0.94798 0.63554 0.0
C2166 C 0.31627 0.97425 0.67487 0.0
C2167 C 0.24362 0.98845 0.62411 0.0
H2168 H 0.25483 0.04827 0.68875 0.0
H2169 H 0.30125 0.05799 0.62997 0.0
H2170 H 0.2397 0.99207 0.68035 0.0
H2171 H 0.26595 0.987 0.69691 0.0
H2172 H 0.24679 0.01105 0.70469 0.0
H2173 H 0.31913 0.02607 0.61038 0.0
H2174 H 0.31978 0.99782 0.62486 0.0
H2175 H 0.29612 0.00485 0.60542 0.0
H2176 H 0.30349 0.92898 0.66785 0.0
H2177 H 0.24163 0.9412 0.62634 0.0
H2178 H 0.30948 0.98197 0.69146 0.0
H2179 H 0.32591 0.98833 0.66543 0.0
H2180 H 0.3288 0.95995 0.67938 0.0
H2181 H 0.23288 0.99781 0.63743 0.0
H2182 H 0.23156 0.97873 0.61219 0.0
H2183 H 0.25316 0.00194 0.61373 0.0
C2184 C 0.18032 0.29977 0.29331 0.0
C2185 C 0.15659 0.30166 0.28696 0.0
C2186 C 0.18872 0.27983 0.30506 0.0
C2187 C 0.17287 0.26162 0.31111 0.0
C2188 C 0.14867 0.26397 0.30584 0.0
C2189 C 0.14084 0.28386 0.2935 0.0
C2190 C 0.21476 0.27775 0.3099 0.0
C2191 C 0.13119 0.24516 0.31258 0.0
C2192 C 0.20009 0.20108 0.31485 0.0
C2193 C 0.20512 0.19927 0.33893 0.0
C2194 C 0.18895 0.22102 0.30569 0.0
C2195 C 0.18213 0.23935 0.32107 0.0
C2196 C 0.18594 0.23708 0.34556 0.0
C2197 C 0.1977 0.21716 0.3542 0.0
C2198 C 0.18565 0.22298 0.27939 0.0
C2199 C 0.17833 0.25603 0.36253 0.0
H2200 H 0.1926 0.31341 0.28818 0.0
H2201 H 0.12243 0.28539 0.2888 0.0
H2202 H 0.21788 0.27415 0.3288 0.0
H2203 H 0.22211 0.26273 0.29983 0.0
H2204 H 0.22455 0.29392 0.30494 0.0
H2205 H 0.11274 0.25093 0.30979 0.0
H2206 H 0.13432 0.22915 0.30189 0.0
H2207 H 0.13346 0.24019 0.33131 0.0
H2208 H 0.20585 0.1874 0.30291 0.0
H2209 H 0.20137 0.21575 0.37286 0.0
H2210 H 0.19624 0.23789 0.27256 0.0
H2211 H 0.167 0.2267 0.27515 0.0
H2212 H 0.19105 0.20672 0.26998 0.0
H2213 H 0.1894 0.2719 0.36002 0.0
H2214 H 0.17988 0.25029 0.38114 0.0
H2215 H 0.15985 0.26121 0.35906 0.0
C2216 C 0.28718 0.7028 0.85427 0.0
C2217 C 0.30208 0.71197 0.8369 0.0
C2218 C 0.26663 0.69054 0.84812 0.0
C2219 C 0.26054 0.68813 0.82409 0.0
C2220 C 0.2757 0.69716 0.80651 0.0
C2221 C 0.29644 0.70867 0.81314 0.0
C2222 C 0.25125 0.68056 0.8673 0.0
C2223 C 0.26955 0.69551 0.78071 0.0
C2224 C 0.21532 0.64503 0.80056 0.0
C2225 C 0.19564 0.65965 0.7978 0.0
C2226 C 0.23622 0.65367 0.81048 0.0
C2227 C 0.23764 0.67762 0.81716 0.0
C2228 C 0.21756 0.69219 0.81523 0.0
C2229 C 0.19674 0.68294 0.80588 0.0
C2230 C 0.25708 0.63744 0.81289 0.0
C2231 C 0.21846 0.71796 0.82167 0.0
H2232 H 0.29163 0.70518 0.87266 0.0
H2233 H 0.30782 0.71592 0.79967 0.0
H2234 H 0.23429 0.69016 0.86781 0.0
H2235 H 0.2472 0.66182 0.86362 0.0
H2236 H 0.25963 0.68185 0.8849 0.0
H2237 H 0.28344 0.70311 0.76926 0.0
H2238 H 0.26679 0.67689 0.7756 0.0
H2239 H 0.25285 0.705 0.77731 0.0
H2240 H 0.21454 0.62696 0.79452 0.0
H2241 H 0.18169 0.69441 0.80376 0.0
H2242 H 0.26506 0.63921 0.83061 0.0
H2243 H 0.27071 0.64233 0.79983 0.0
H2244 H 0.25219 0.61874 0.81001 0.0
H2245 H 0.2251 0.72022 0.83986 0.0
H2246 H 0.20097 0.72656 0.82032 0.0
H2247 H 0.23084 0.72724 0.80977 0.0
C2248 C 0.8541 0.71277 0.29936 0.0
C2249 C 0.83805 0.69735 0.2888 0.0
C2250 C 0.84623 0.73275 0.31157 0.0
C2251 C 0.82184 0.7377 0.31246 0.0
C2252 C 0.8056 0.72194 0.30211 0.0
C2253 C 0.8139 0.70177 0.29071 0.0
C2254 C 0.86399 0.74882 0.32301 0.0
C2255 C 0.7795 0.72692 0.30206 0.0
C2256 C 0.79347 0.7817 0.3538 0.0
C2257 C 0.79136 0.80139 0.33914 0.0
C2258 C 0.80473 0.7612 0.34586 0.0
C2259 C 0.81325 0.76022 0.32247 0.0
C2260 C 0.81165 0.78028 0.30783 0.0
C2261 C 0.80106 0.80074 0.3165 0.0
C2262 C 0.80681 0.74039 0.36219 0.0
C2263 C 0.81986 0.77974 0.28256 0.0
H2264 H 0.87278 0.70925 0.29801 0.0
H2265 H 0.80147 0.68999 0.28233 0.0
H2266 H 0.86466 0.76578 0.3134 0.0
H2267 H 0.8587 0.75275 0.34138 0.0
H2268 H 0.88191 0.74106 0.32313 0.0
H2269 H 0.7692 0.71255 0.29373 0.0
H2270 H 0.77305 0.7294 0.3203 0.0
H2271 H 0.776 0.74349 0.29236 0.0
H2272 H 0.78612 0.78225 0.37139 0.0
H2273 H 0.7993 0.81585 0.30505 0.0
H2274 H 0.82497 0.73326 0.36181 0.0
H2275 H 0.79485 0.72617 0.35626 0.0
H2276 H 0.80224 0.74503 0.38061 0.0
H2277 H 0.83849 0.7741 0.28159 0.0
H2278 H 0.81816 0.79714 0.27383 0.0
H2279 H 0.80933 0.76672 0.27253 0.0
C2280 C 0.79979 0.34006 0.80992 0.0
C2281 C 0.79871 0.34212 0.78537 0.0
C2282 C 0.78074 0.33104 0.82272 0.0
C2283 C 0.76049 0.32324 0.81057 0.0
C2284 C 0.75904 0.32596 0.78584 0.0
C2285 C 0.77808 0.33571 0.77357 0.0
C2286 C 0.78262 0.32911 0.84914 0.0
C2287 C 0.73792 0.31743 0.77218 0.0
C2288 C 0.72331 0.27423 0.83627 0.0
C2289 C 0.70275 0.28635 0.8423 0.0
C2290 C 0.74256 0.28616 0.8265 0.0
C2291 C 0.74138 0.31086 0.82337 0.0
C2292 C 0.72125 0.32336 0.83095 0.0
C2293 C 0.70199 0.31089 0.83999 0.0
C2294 C 0.76353 0.27214 0.81821 0.0
C2295 C 0.71965 0.34975 0.8286 0.0
H2296 H 0.81569 0.34519 0.81908 0.0
H2297 H 0.77731 0.33707 0.75457 0.0
H2298 H 0.76666 0.33646 0.85762 0.0
H2299 H 0.78383 0.31034 0.85428 0.0
H2300 H 0.7983 0.33845 0.8561 0.0
H2301 H 0.73927 0.32149 0.75311 0.0
H2302 H 0.73611 0.29811 0.7743 0.0
H2303 H 0.72163 0.32557 0.77914 0.0
H2304 H 0.72381 0.25524 0.8378 0.0
H2305 H 0.68611 0.32027 0.84479 0.0
H2306 H 0.77995 0.27927 0.82594 0.0
H2307 H 0.76512 0.27363 0.79881 0.0
H2308 H 0.76213 0.25322 0.82289 0.0
H2309 H 0.73582 0.3582 0.83553 0.0
H2310 H 0.70419 0.35704 0.83807 0.0
H2311 H 0.71817 0.35458 0.80976 0.0
C2312 C 0.19226 0.80154 0.6856 0.0
C2313 C 0.19782 0.80125 0.66159 0.0
C2314 C 0.18144 0.78217 0.6963 0.0
C2315 C 0.17548 0.76234 0.6825 0.0
C2316 C 0.17937 0.76271 0.65791 0.0
C2317 C 0.19084 0.78206 0.64777 0.0
C2318 C 0.1781 0.78225 0.72266 0.0
C2319 C 0.17264 0.74215 0.64253 0.0
C2320 C 0.17826 0.70332 0.71309 0.0
C2321 C 0.15468 0.69961 0.71917 0.0
C2322 C 0.18517 0.7236 0.70097 0.0
C2323 C 0.16796 0.74027 0.69422 0.0
C2324 C 0.144 0.73627 0.69963 0.0
C2325 C 0.13766 0.71609 0.71239 0.0
C2326 C 0.21099 0.72748 0.69603 0.0
C2327 C 0.12515 0.75338 0.69213 0.0
H2328 H 0.19774 0.81625 0.6964 0.0
H2329 H 0.19495 0.78188 0.62915 0.0
H2330 H 0.15993 0.77695 0.7273 0.0
H2331 H 0.19019 0.76924 0.73076 0.0
H2332 H 0.18171 0.79978 0.73052 0.0
H2333 H 0.17331 0.7467 0.62354 0.0
H2334 H 0.18489 0.72732 0.64573 0.0
H2335 H 0.15466 0.73594 0.64688 0.0
H2336 H 0.19148 0.69071 0.71849 0.0
H2337 H 0.11938 0.71313 0.71693 0.0
H2338 H 0.21695 0.744 0.70456 0.0
H2339 H 0.21394 0.72946 0.67685 0.0
H2340 H 0.2221 0.71279 0.70253 0.0
H2341 H 0.12765 0.77042 0.70129 0.0
H2342 H 0.10719 0.74677 0.69609 0.0
H2343 H 0.12649 0.75685 0.67297 0.0
C2344 C 0.70072 0.70131 0.18433 0.0
C2345 C 0.69799 0.71147 0.16203 0.0
C2346 C 0.72193 0.69083 0.19101 0.0
C2347 C 0.7407 0.68977 0.17472 0.0
C2348 C 0.73769 0.69884 0.15172 0.0
C2349 C 0.71645 0.70997 0.14575 0.0
C2350 C 0.72459 0.68191 0.21592 0.0
C2351 C 0.75707 0.69731 0.13366 0.0
C2352 C 0.8007 0.68755 0.20321 0.0
C2353 C 0.80447 0.66326 0.20488 0.0
C2354 C 0.78041 0.69648 0.19251 0.0
C2355 C 0.76388 0.68072 0.1826 0.0
C2356 C 0.76841 0.65623 0.18281 0.0
C2357 C 0.78849 0.64773 0.19438 0.0
C2358 C 0.77593 0.72266 0.1933 0.0
C2359 C 0.75155 0.63896 0.17176 0.0
H2360 H 0.68658 0.7024 0.19702 0.0
H2361 H 0.71434 0.71758 0.12839 0.0
H2362 H 0.72969 0.66309 0.21584 0.0
H2363 H 0.7388 0.69176 0.22497 0.0
H2364 H 0.70815 0.68382 0.22631 0.0
H2365 H 0.75095 0.70249 0.11585 0.0
H2366 H 0.77178 0.70905 0.13879 0.0
H2367 H 0.76414 0.67913 0.13286 0.0
H2368 H 0.81292 0.69958 0.21154 0.0
H2369 H 0.79152 0.62894 0.19552 0.0
H2370 H 0.76049 0.72627 0.20468 0.0
H2371 H 0.77174 0.72941 0.1755 0.0
H2372 H 0.79122 0.7326 0.2003 0.0
H2373 H 0.7355 0.63756 0.18275 0.0
H2374 H 0.75941 0.62116 0.17005 0.0
H2375 H 0.74604 0.64515 0.1541 0.0
C2376 C 0.77953 0.2195 0.66329 0.0
C2377 C 0.79123 0.1987 0.6572 0.0
C2378 C 0.79178 0.23845 0.67319 0.0
C2379 C 0.81641 0.23677 0.67644 0.0
C2380 C 0.8285 0.21627 0.66916 0.0
C2381 C 0.81568 0.19729 0.65994 0.0
C2382 C 0.77817 0.25983 0.68118 0.0
C2383 C 0.85483 0.21415 0.67167 0.0
C2384 C 0.84522 0.2957 0.68777 0.0
C2385 C 0.84683 0.2957 0.71236 0.0
C2386 C 0.83681 0.27595 0.67565 0.0
C2387 C 0.82915 0.25609 0.68853 0.0
C2388 C 0.8317 0.25565 0.71332 0.0
C2389 C 0.84086 0.2754 0.72493 0.0
C2390 C 0.83506 0.2768 0.64917 0.0
C2391 C 0.82327 0.235 0.72774 0.0
H2392 H 0.76059 0.22053 0.66144 0.0
H2393 H 0.82477 0.18123 0.65513 0.0
H2394 H 0.78023 0.26212 0.70046 0.0
H2395 H 0.78521 0.27589 0.67265 0.0
H2396 H 0.75912 0.25846 0.6771 0.0
H2397 H 0.86179 0.19812 0.66294 0.0
H2398 H 0.86362 0.2298 0.66402 0.0
H2399 H 0.8596 0.21347 0.69057 0.0
H2400 H 0.85002 0.31139 0.67805 0.0
H2401 H 0.84188 0.2755 0.74396 0.0
H2402 H 0.81634 0.27828 0.6439 0.0
H2403 H 0.84205 0.26035 0.64133 0.0
H2404 H 0.84478 0.29199 0.64166 0.0
H2405 H 0.80387 0.23351 0.72624 0.0
H2406 H 0.82791 0.23677 0.74664 0.0
H2407 H 0.83089 0.21838 0.72097 0.0
C2408 C 0.21064 0.35624 0.19821 0.0
C2409 C 0.19346 0.33992 0.205 0.0
C2410 C 0.23139 0.34881 0.18707 0.0
C2411 C 0.23527 0.32449 0.1834 0.0
C2412 C 0.21764 0.30805 0.1896 0.0
C2413 C 0.19681 0.31601 0.20002 0.0
C2414 C 0.24951 0.36689 0.18003 0.0
C2415 C 0.22132 0.2819 0.18655 0.0
C2416 C 0.28321 0.29915 0.14451 0.0
C2417 C 0.30064 0.29396 0.16115 0.0
C2418 C 0.26229 0.31042 0.15124 0.0
C2419 C 0.25851 0.31586 0.17524 0.0
C2420 C 0.27632 0.31117 0.19198 0.0
C2421 C 0.2973 0.30058 0.18465 0.0
C2422 C 0.24397 0.31582 0.13282 0.0
C2423 C 0.27276 0.31613 0.21785 0.0
H2424 H 0.208 0.37476 0.20188 0.0
H2425 H 0.18368 0.30331 0.2054 0.0
H2426 H 0.26497 0.3656 0.19184 0.0
H2427 H 0.25575 0.36353 0.16185 0.0
H2428 H 0.24248 0.38509 0.18103 0.0
H2429 H 0.20544 0.27155 0.19129 0.0
H2430 H 0.22611 0.27781 0.16809 0.0
H2431 H 0.23612 0.27602 0.19783 0.0
H2432 H 0.28585 0.29421 0.12628 0.0
H2433 H 0.31063 0.29643 0.19762 0.0
H2434 H 0.23764 0.33418 0.13473 0.0
H2435 H 0.22859 0.30407 0.13523 0.0
H2436 H 0.25083 0.31336 0.11469 0.0
H2437 H 0.26796 0.33483 0.22057 0.0
H2438 H 0.2887 0.31221 0.22844 0.0
H2439 H 0.258 0.3053 0.22462 0.0
C2440 C 0.35631 0.21158 0.22261 0.0
C2441 C 0.34058 0.21615 0.20418 0.0
C2442 C 0.34872 0.20018 0.24316 0.0
C2443 C 0.32475 0.19389 0.24551 0.0
C2444 C 0.30892 0.19813 0.22679 0.0
C2445 C 0.3171 0.20893 0.20625 0.0
C2446 C 0.3662 0.19532 0.26253 0.0
C2447 C 0.2831 0.19217 0.22879 0.0
C2448 C 0.30054 0.15108 0.29042 0.0
C2449 C 0.29161 0.1665 0.30746 0.0
C2450 C 0.31286 0.15966 0.27084 0.0
C2451 C 0.31565 0.18423 0.26797 0.0
C2452 C 0.30744 0.19979 0.28557 0.0
C2453 C 0.29578 0.1907 0.30527 0.0
C2454 C 0.32196 0.14251 0.25273 0.0
C2455 C 0.30958 0.22615 0.28291 0.0
H2456 H 0.37452 0.21699 0.22098 0.0
H2457 H 0.30482 0.21258 0.19216 0.0
H2458 H 0.36204 0.20635 0.27807 0.0
H2459 H 0.365 0.17667 0.26817 0.0
H2460 H 0.38455 0.19907 0.257 0.0
H2461 H 0.27323 0.19627 0.21244 0.0
H2462 H 0.28084 0.17322 0.2328 0.0
H2463 H 0.27515 0.20221 0.24352 0.0
H2464 H 0.29753 0.13233 0.29219 0.0
H2465 H 0.28881 0.20271 0.31831 0.0
H2466 H 0.3403 0.14692 0.24778 0.0
H2467 H 0.3111 0.14369 0.23657 0.0
H2468 H 0.32142 0.12407 0.25918 0.0
H2469 H 0.32803 0.23115 0.2791 0.0
H2470 H 0.3037 0.23572 0.29889 0.0
H2471 H 0.29873 0.23206 0.26781 0.0
C2472 C 0.35139 0.80056 0.78128 0.0
C2473 C 0.33796 0.79583 0.80142 0.0
C2474 C 0.34135 0.8117 0.76171 0.0
C2475 C 0.31721 0.81773 0.76214 0.0
C2476 C 0.30395 0.81428 0.78291 0.0
C2477 C 0.31458 0.80361 0.80241 0.0
C2478 C 0.3562 0.81563 0.74005 0.0
C2479 C 0.27806 0.82008 0.78395 0.0
C2480 C 0.28928 0.85429 0.71364 0.0
C2481 C 0.2806 0.83665 0.69876 0.0
C2482 C 0.3018 0.84848 0.73413 0.0
C2483 C 0.30509 0.82452 0.74006 0.0
C2484 C 0.29623 0.80669 0.72512 0.0
C2485 C 0.28434 0.81299 0.70453 0.0
C2486 C 0.31149 0.8679 0.74941 0.0
C2487 C 0.29893 0.78091 0.73106 0.0
H2488 H 0.36956 0.79484 0.78051 0.0
H2489 H 0.30406 0.80006 0.81789 0.0
H2490 H 0.35124 0.80268 0.72633 0.0
H2491 H 0.35307 0.83344 0.73272 0.0
H2492 H 0.37526 0.81362 0.7438 0.0
H2493 H 0.27094 0.81877 0.8021 0.0
H2494 H 0.27476 0.83808 0.77722 0.0
H2495 H 0.2682 0.80768 0.77254 0.0
H2496 H 0.28654 0.87261 0.70911 0.0
H2497 H 0.27746 0.79929 0.6932 0.0
H2498 H 0.3307 0.86548 0.75187 0.0
H2499 H 0.30329 0.86718 0.76709 0.0
H2500 H 0.30833 0.88561 0.74178 0.0
H2501 H 0.31783 0.77632 0.73244 0.0
H2502 H 0.2907 0.76928 0.71769 0.0
H2503 H 0.29076 0.7772 0.74838 0.0
C2504 C 0.69069 0.84944 0.29683 0.0
C2505 C 0.71528 0.84866 0.29666 0.0
C2506 C 0.67772 0.84123 0.27754 0.0
C2507 C 0.68972 0.83114 0.2582 0.0
C2508 C 0.71463 0.83127 0.25761 0.0
C2509 C 0.72713 0.84041 0.27678 0.0
C2510 C 0.65122 0.84219 0.27842 0.0
C2511 C 0.7281 0.82008 0.23763 0.0
C2512 C 0.66055 0.7809 0.22577 0.0
C2513 C 0.65605 0.79106 0.2038 0.0
C2514 C 0.67112 0.79393 0.24379 0.0
C2515 C 0.67648 0.81796 0.23999 0.0
C2516 C 0.67057 0.82872 0.21834 0.0
C2517 C 0.66082 0.81499 0.20029 0.0
C2518 C 0.67768 0.78163 0.26642 0.0
C2519 C 0.67519 0.8545 0.21401 0.0
H2520 H 0.68163 0.85593 0.3123 0.0
H2521 H 0.74616 0.83952 0.27692 0.0
H2522 H 0.64402 0.84829 0.26134 0.0
H2523 H 0.64413 0.82432 0.28173 0.0
H2524 H 0.64483 0.85404 0.29257 0.0
H2525 H 0.74735 0.82304 0.23912 0.0
H2526 H 0.72478 0.80084 0.23753 0.0
H2527 H 0.72202 0.82711 0.2205 0.0
H2528 H 0.65701 0.7624 0.22849 0.0
H2529 H 0.65713 0.82292 0.18337 0.0
H2530 H 0.66953 0.79067 0.28164 0.0
H2531 H 0.69702 0.78233 0.26892 0.0
H2532 H 0.67208 0.7629 0.2666 0.0
H2533 H 0.66858 0.86517 0.22895 0.0
H2534 H 0.66677 0.86079 0.19755 0.0
H2535 H 0.69439 0.85761 0.21268 0.0
C2536 C 0.68932 0.15729 0.69896 0.0
C2537 C 0.71383 0.15498 0.69997 0.0
C2538 C 0.67668 0.16627 0.71814 0.0
C2539 C 0.689 0.17377 0.73842 0.0
C2540 C 0.71368 0.17074 0.73979 0.0
C2541 C 0.72577 0.16104 0.72064 0.0
C2542 C 0.6503 0.16855 0.71635 0.0
C2543 C 0.72751 0.179 0.76092 0.0
C2544 C 0.66421 0.22331 0.77535 0.0
C2545 C 0.65792 0.21139 0.79595 0.0
C2546 C 0.67381 0.21115 0.75619 0.0
C2547 C 0.67649 0.18641 0.7575 0.0
C2548 C 0.66877 0.17414 0.77772 0.0
C2549 C 0.65991 0.18685 0.79691 0.0
C2550 C 0.68232 0.22493 0.73513 0.0
C2551 C 0.67065 0.14771 0.77943 0.0
H2552 H 0.68008 0.15247 0.683 0.0
H2553 H 0.74475 0.15949 0.72134 0.0
H2554 H 0.64177 0.16147 0.73241 0.0
H2555 H 0.64543 0.18739 0.71499 0.0
H2556 H 0.64316 0.15918 0.70076 0.0
H2557 H 0.74648 0.17453 0.75958 0.0
H2558 H 0.72581 0.19836 0.76269 0.0
H2559 H 0.72039 0.17104 0.77723 0.0
H2560 H 0.66288 0.24232 0.7747 0.0
H2561 H 0.65487 0.17762 0.81281 0.0
H2562 H 0.67429 0.21798 0.71878 0.0
H2563 H 0.70165 0.22295 0.73339 0.0
H2564 H 0.67814 0.24397 0.73654 0.0
H2565 H 0.66341 0.13933 0.76335 0.0
H2566 H 0.66121 0.14066 0.79501 0.0
H2567 H 0.68941 0.14254 0.78073 0.0
C2568 C 0.80574 0.799 0.66036 0.0
C2569 C 0.78153 0.7971 0.65621 0.0
C2570 C 0.81865 0.77983 0.66895 0.0
C2571 C 0.80685 0.75857 0.67423 0.0
C2572 C 0.78254 0.75633 0.6693 0.0
C2573 C 0.77024 0.77556 0.65997 0.0
C2574 C 0.84469 0.78263 0.67321 0.0
C2575 C 0.7692 0.73411 0.67517 0.0
C2576 C 0.83827 0.70093 0.68603 0.0
C2577 C 0.83878 0.70064 0.71067 0.0
C2578 C 0.82905 0.72029 0.67381 0.0
C2579 C 0.81939 0.73931 0.68662 0.0
C2580 C 0.82042 0.73932 0.71152 0.0
C2581 C 0.83046 0.72011 0.72323 0.0
C2582 C 0.82898 0.72003 0.64727 0.0
C2583 C 0.80978 0.75901 0.72583 0.0
H2584 H 0.81453 0.8156 0.65719 0.0
H2585 H 0.75151 0.77412 0.65691 0.0
H2586 H 0.84821 0.78294 0.69239 0.0
H2587 H 0.85446 0.76747 0.66573 0.0
H2588 H 0.85169 0.79911 0.66539 0.0
H2589 H 0.75057 0.73489 0.66935 0.0
H2590 H 0.77769 0.71868 0.66683 0.0
H2591 H 0.76955 0.7312 0.69447 0.0
H2592 H 0.84479 0.68586 0.67633 0.0
H2593 H 0.83056 0.71973 0.74229 0.0
H2594 H 0.83592 0.7369 0.64031 0.0
H2595 H 0.8107 0.71814 0.64076 0.0
H2596 H 0.83966 0.70536 0.64003 0.0
H2597 H 0.81748 0.77613 0.72057 0.0
H2598 H 0.81254 0.75658 0.74502 0.0
H2599 H 0.79059 0.75998 0.7224 0.0
C2600 C 0.72261 0.27593 0.15975 0.0
C2601 C 0.70233 0.28792 0.15263 0.0
C2602 C 0.74175 0.28816 0.16928 0.0
C2603 C 0.74075 0.31299 0.17106 0.0
C2604 C 0.72095 0.32528 0.16238 0.0
C2605 C 0.70176 0.31254 0.15359 0.0
C2606 C 0.76237 0.27438 0.17881 0.0
C2607 C 0.7196 0.35178 0.16331 0.0
C2608 C 0.77625 0.33901 0.22097 0.0
C2609 C 0.79745 0.34433 0.20965 0.0
C2610 C 0.75734 0.32942 0.20843 0.0
C2611 C 0.75955 0.32573 0.18389 0.0
C2612 C 0.78039 0.33253 0.17212 0.0
C2613 C 0.79928 0.34142 0.18523 0.0
C2614 C 0.73557 0.32194 0.22169 0.0
C2615 C 0.78307 0.32954 0.14588 0.0
H2616 H 0.72297 0.25688 0.15923 0.0
H2617 H 0.6861 0.32181 0.14792 0.0
H2618 H 0.77905 0.28095 0.17115 0.0
H2619 H 0.76348 0.27683 0.19815 0.0
H2620 H 0.76088 0.25526 0.17506 0.0
H2621 H 0.70459 0.35872 0.15291 0.0
H2622 H 0.71749 0.35759 0.18181 0.0
H2623 H 0.73612 0.35969 0.15656 0.0
H2624 H 0.77489 0.34104 0.23988 0.0
H2625 H 0.81565 0.34571 0.17645 0.0
H2626 H 0.73349 0.30256 0.22046 0.0
H2627 H 0.71969 0.32999 0.21374 0.0
H2628 H 0.7363 0.32692 0.24057 0.0
H2629 H 0.7844 0.31057 0.14155 0.0
H2630 H 0.799 0.33856 0.13906 0.0
H2631 H 0.76741 0.33656 0.1366 0.0
C2632 C 0.18852 0.29774 0.69755 0.0
C2633 C 0.16472 0.29877 0.7039 0.0
C2634 C 0.19802 0.27749 0.68722 0.0
C2635 C 0.18322 0.25801 0.6826 0.0
C2636 C 0.15888 0.25952 0.68753 0.0
C2637 C 0.14995 0.27979 0.69842 0.0
C2638 C 0.22416 0.27641 0.68266 0.0
C2639 C 0.14245 0.23933 0.6823 0.0
C2640 C 0.20941 0.21012 0.64405 0.0
C2641 C 0.21687 0.1938 0.66097 0.0
C2642 C 0.19756 0.23075 0.65072 0.0
C2643 C 0.19369 0.23537 0.67487 0.0
C2644 C 0.20092 0.21879 0.69198 0.0
C2645 C 0.21216 0.19809 0.68479 0.0
C2646 C 0.18957 0.24777 0.63198 0.0
C2647 C 0.19755 0.22327 0.71796 0.0
H2648 H 0.20007 0.31229 0.70181 0.0
H2649 H 0.13149 0.28058 0.7031 0.0
H2650 H 0.23228 0.26313 0.69443 0.0
H2651 H 0.22766 0.27082 0.66431 0.0
H2652 H 0.23294 0.2936 0.68573 0.0
H2653 H 0.1237 0.24446 0.68415 0.0
H2654 H 0.1454 0.23266 0.66419 0.0
H2655 H 0.14605 0.22462 0.69459 0.0
H2656 H 0.21287 0.20679 0.6256 0.0
H2657 H 0.21803 0.18565 0.69798 0.0
H2658 H 0.1996 0.26443 0.63349 0.0
H2659 H 0.17071 0.25212 0.63447 0.0
H2660 H 0.19206 0.24063 0.61397 0.0
H2661 H 0.20718 0.23943 0.72317 0.0
H2662 H 0.20392 0.20843 0.72896 0.0
H2663 H 0.17869 0.22624 0.72189 0.0
C2664 C 0.20815 0.64653 0.19668 0.0
C2665 C 0.19288 0.66274 0.20723 0.0
C2666 C 0.22763 0.65421 0.18363 0.0
C2667 C 0.23226 0.6786 0.18181 0.0
C2668 C 0.21641 0.69502 0.19174 0.0
C2669 C 0.19671 0.68687 0.20406 0.0
C2670 C 0.24376 0.63622 0.17264 0.0
C2671 C 0.22102 0.72118 0.19072 0.0
C2672 C 0.29532 0.69921 0.17831 0.0
C2673 C 0.29645 0.70818 0.1554 0.0
C2674 C 0.27466 0.689 0.18691 0.0
C2675 C 0.25488 0.68701 0.17194 0.0
C2676 C 0.25635 0.69476 0.14833 0.0
C2677 C 0.27703 0.70569 0.14043 0.0
C2678 C 0.27363 0.68155 0.21241 0.0
C2679 C 0.23586 0.69216 0.13166 0.0
H2680 H 0.20506 0.62784 0.19893 0.0
H2681 H 0.18503 0.69946 0.21231 0.0
H2682 H 0.24814 0.64128 0.15431 0.0
H2683 H 0.26049 0.63547 0.18265 0.0
H2684 H 0.23584 0.61836 0.17255 0.0
H2685 H 0.20629 0.73161 0.19818 0.0
H2686 H 0.23724 0.72533 0.20076 0.0
H2687 H 0.22397 0.72686 0.17231 0.0
H2688 H 0.3102 0.70124 0.19 0.0
H2689 H 0.27796 0.71246 0.12263 0.0
H2690 H 0.26829 0.66285 0.2138 0.0
H2691 H 0.2602 0.69215 0.22182 0.0
H2692 H 0.29077 0.68381 0.22152 0.0
H2693 H 0.22868 0.67403 0.13251 0.0
H2694 H 0.24088 0.6961 0.1132 0.0
H2695 H 0.22156 0.70435 0.1369 0.0
C2696 C 0.8362 0.30321 0.31399 0.0
C2697 C 0.83809 0.30161 0.28946 0.0
C2698 C 0.82753 0.2843 0.32725 0.0
C2699 C 0.81986 0.26371 0.31555 0.0
C2700 C 0.82212 0.2619 0.29081 0.0
C2701 C 0.83156 0.28077 0.2781 0.0
C2702 C 0.8261 0.28652 0.35366 0.0
C2703 C 0.81364 0.24044 0.27762 0.0
C2704 C 0.80977 0.20464 0.34443 0.0
C2705 C 0.78524 0.20454 0.34679 0.0
C2706 C 0.82155 0.22453 0.33587 0.0
C2707 C 0.80835 0.24441 0.32883 0.0
C2708 C 0.78369 0.24479 0.33226 0.0
C2709 C 0.77245 0.22491 0.34155 0.0
C2710 C 0.84794 0.22377 0.33318 0.0
C2711 C 0.76893 0.26546 0.32449 0.0
H2712 H 0.84139 0.31933 0.32277 0.0
H2713 H 0.83276 0.27962 0.2591 0.0
H2714 H 0.80742 0.28706 0.35923 0.0
H2715 H 0.83424 0.27097 0.36219 0.0
H2716 H 0.83498 0.30266 0.36019 0.0
H2717 H 0.81681 0.24179 0.25838 0.0
H2718 H 0.82261 0.22445 0.28426 0.0
H2719 H 0.7945 0.23801 0.28059 0.0
H2720 H 0.81967 0.18891 0.34867 0.0
H2721 H 0.75347 0.22475 0.34316 0.0
H2722 H 0.85596 0.24031 0.33973 0.0
H2723 H 0.85253 0.22211 0.31429 0.0
H2724 H 0.85583 0.20869 0.34277 0.0
H2725 H 0.77604 0.28208 0.33178 0.0
H2726 H 0.75027 0.26369 0.32999 0.0
H2727 H 0.76954 0.26691 0.30503 0.0
C2728 C 0.20416 0.31345 0.79196 0.0
C2729 C 0.19988 0.33723 0.78714 0.0
C2730 C 0.22466 0.30642 0.8036 0.0
C2731 C 0.24094 0.32368 0.81116 0.0
C2732 C 0.23614 0.34781 0.80741 0.0
C2733 C 0.21579 0.35431 0.79507 0.0
C2734 C 0.22939 0.28046 0.80679 0.0
C2735 C 0.25278 0.36668 0.81587 0.0
C2736 C 0.28557 0.29946 0.85417 0.0
C2737 C 0.30444 0.29442 0.83914 0.0
C2738 C 0.26529 0.3106 0.84564 0.0
C2739 C 0.26368 0.31612 0.82143 0.0
C2740 C 0.28311 0.31202 0.80643 0.0
C2741 C 0.3034 0.30151 0.81556 0.0
C2742 C 0.24517 0.31538 0.86229 0.0
C2743 C 0.2819 0.31717 0.78039 0.0
H2744 H 0.19198 0.3002 0.78569 0.0
H2745 H 0.21238 0.37273 0.79151 0.0
H2746 H 0.2456 0.2755 0.79711 0.0
H2747 H 0.2324 0.27641 0.82562 0.0
H2748 H 0.21467 0.26936 0.80032 0.0
H2749 H 0.24518 0.38458 0.814 0.0
H2750 H 0.25739 0.36373 0.8346 0.0
H2751 H 0.26935 0.36591 0.80562 0.0
H2752 H 0.28642 0.29419 0.87248 0.0
H2753 H 0.31788 0.29754 0.80385 0.0
H2754 H 0.23068 0.30281 0.85878 0.0
H2755 H 0.23813 0.33337 0.85951 0.0
H2756 H 0.25054 0.31352 0.88098 0.0
H2757 H 0.26868 0.30548 0.77205 0.0
H2758 H 0.29906 0.31444 0.77148 0.0
H2759 H 0.27616 0.33555 0.77732 0.0
C2760 C 0.21127 0.796 0.3155 0.0
C2761 C 0.21965 0.79885 0.33847 0.0
C2762 C 0.20003 0.77523 0.3086 0.0
C2763 C 0.19646 0.75714 0.32533 0.0
C2764 C 0.20413 0.76024 0.34882 0.0
C2765 C 0.21604 0.78097 0.35504 0.0
C2766 C 0.19269 0.77237 0.28321 0.0
C2767 C 0.19997 0.7416 0.36724 0.0
C2768 C 0.15128 0.71268 0.30493 0.0
C2769 C 0.16574 0.69502 0.29562 0.0
C2770 C 0.16102 0.73233 0.31625 0.0
C2771 C 0.18577 0.73461 0.31764 0.0
C2772 C 0.20039 0.71635 0.30915 0.0
C2773 C 0.19017 0.69662 0.29852 0.0
C2774 C 0.14487 0.75116 0.32569 0.0
C2775 C 0.22687 0.71836 0.30976 0.0
H2776 H 0.21428 0.8097 0.30261 0.0
H2777 H 0.22238 0.78329 0.37287 0.0
H2778 H 0.20182 0.757 0.27538 0.0
H2779 H 0.17354 0.76892 0.2821 0.0
H2780 H 0.19678 0.78817 0.27246 0.0
H2781 H 0.2052 0.74757 0.38509 0.0
H2782 H 0.18112 0.73657 0.36756 0.0
H2783 H 0.21014 0.72555 0.36283 0.0
H2784 H 0.13237 0.71139 0.30291 0.0
H2785 H 0.20145 0.68309 0.29127 0.0
H2786 H 0.14573 0.76688 0.31418 0.0
H2787 H 0.1505 0.75667 0.34355 0.0
H2788 H 0.12631 0.74514 0.32651 0.0
H2789 H 0.23256 0.7328 0.29792 0.0
H2790 H 0.23567 0.70186 0.30409 0.0
H2791 H 0.23298 0.72283 0.32773 0.0
C2792 C 0.77492 0.6624 0.77384 0.0
C2793 C 0.79474 0.65357 0.78542 0.0
C2794 C 0.75604 0.67178 0.78661 0.0
C2795 C 0.7568 0.67158 0.81151 0.0
C2796 C 0.7761 0.66115 0.82325 0.0
C2797 C 0.79509 0.65264 0.81004 0.0
C2798 C 0.73607 0.68331 0.77343 0.0
C2799 C 0.77715 0.65989 0.84975 0.0
C2800 C 0.72377 0.72079 0.84181 0.0
C2801 C 0.70199 0.7102 0.84615 0.0
C2802 C 0.74196 0.70823 0.83094 0.0
C2803 C 0.73849 0.68427 0.82508 0.0
C2804 C 0.71701 0.67308 0.83081 0.0
C2805 C 0.69881 0.68633 0.8409 0.0
C2806 C 0.76438 0.72099 0.82457 0.0
C2807 C 0.71301 0.64736 0.82562 0.0
H2808 H 0.77481 0.66336 0.7548 0.0
H2809 H 0.81044 0.64568 0.81895 0.0
H2810 H 0.71896 0.67599 0.77925 0.0
H2811 H 0.73585 0.70243 0.77735 0.0
H2812 H 0.7376 0.68095 0.75409 0.0
H2813 H 0.79155 0.64825 0.85596 0.0
H2814 H 0.78011 0.67774 0.85704 0.0
H2815 H 0.76023 0.65337 0.85695 0.0
H2816 H 0.7262 0.73927 0.84568 0.0
H2817 H 0.68201 0.67809 0.84445 0.0
H2818 H 0.76668 0.72094 0.80519 0.0
H2819 H 0.77978 0.71183 0.83225 0.0
H2820 H 0.76443 0.73952 0.83078 0.0
H2821 H 0.7118 0.64465 0.80634 0.0
H2822 H 0.69659 0.64067 0.83384 0.0
H2823 H 0.72805 0.63672 0.83206 0.0
C2824 C 0.69325 0.81791 0.70099 0.0
C2825 C 0.70414 0.84004 0.70033 0.0
C2826 C 0.68296 0.8094 0.72166 0.0
C2827 C 0.68283 0.82369 0.74202 0.0
C2828 C 0.6923 0.84672 0.74105 0.0
C2829 C 0.70324 0.8545 0.72029 0.0
C2830 C 0.67372 0.78448 0.72209 0.0
C2831 C 0.69178 0.86273 0.7622 0.0
C2832 C 0.64461 0.8007 0.79185 0.0
C2833 C 0.66149 0.78982 0.80606 0.0
C2834 C 0.65138 0.81294 0.77146 0.0
C2835 C 0.67541 0.81337 0.76484 0.0
C2836 C 0.69242 0.80232 0.77925 0.0
C2837 C 0.68526 0.79099 0.79987 0.0
C2838 C 0.63288 0.82514 0.75688 0.0
C2839 C 0.71811 0.80164 0.77247 0.0
H2840 H 0.69385 0.80661 0.68569 0.0
H2841 H 0.71138 0.87174 0.71981 0.0
H2842 H 0.68472 0.77366 0.73405 0.0
H2843 H 0.65551 0.78406 0.72901 0.0
H2844 H 0.67385 0.7762 0.70439 0.0
H2845 H 0.69636 0.88115 0.75754 0.0
H2846 H 0.67412 0.86252 0.77049 0.0
H2847 H 0.70456 0.85641 0.77551 0.0
H2848 H 0.62623 0.79981 0.79683 0.0
H2849 H 0.69821 0.7822 0.81074 0.0
H2850 H 0.63104 0.81616 0.73966 0.0
H2851 H 0.63824 0.84356 0.75326 0.0
H2852 H 0.61545 0.82525 0.76571 0.0
H2853 H 0.72016 0.79253 0.75532 0.0
H2854 H 0.72907 0.7924 0.78574 0.0
H2855 H 0.72499 0.81975 0.77029 0.0
C2856 C 0.68764 0.16278 0.29918 0.0
C2857 C 0.71208 0.15976 0.29822 0.0
C2858 C 0.67522 0.17164 0.27978 0.0
C2859 C 0.68769 0.17827 0.25928 0.0
C2860 C 0.7123 0.17473 0.25806 0.0
C2861 C 0.72415 0.16519 0.27744 0.0
C2862 C 0.64889 0.17452 0.28145 0.0
C2863 C 0.72632 0.18207 0.23671 0.0
C2864 C 0.659 0.18925 0.20012 0.0
C2865 C 0.65736 0.21385 0.19999 0.0
C2866 C 0.66759 0.17726 0.21989 0.0
C2867 C 0.6754 0.19028 0.23962 0.0
C2868 C 0.67311 0.21508 0.23982 0.0
C2869 C 0.66379 0.22655 0.2201 0.0
C2870 C 0.66911 0.15076 0.21933 0.0
C2871 C 0.68175 0.22964 0.2603 0.0
H2872 H 0.67825 0.15844 0.31519 0.0
H2873 H 0.74307 0.16308 0.27671 0.0
H2874 H 0.64435 0.19348 0.28172 0.0
H2875 H 0.64023 0.16668 0.26581 0.0
H2876 H 0.64158 0.16618 0.29754 0.0
H2877 H 0.74526 0.17759 0.23836 0.0
H2878 H 0.71927 0.17345 0.2207 0.0
H2879 H 0.72471 0.20135 0.23411 0.0
H2880 H 0.65388 0.17941 0.18461 0.0
H2881 H 0.66277 0.24558 0.21994 0.0
H2882 H 0.66167 0.14319 0.2357 0.0
H2883 H 0.6878 0.14529 0.21835 0.0
H2884 H 0.65965 0.14318 0.20401 0.0
H2885 H 0.67367 0.22344 0.27693 0.0
H2886 H 0.67775 0.24864 0.25812 0.0
H2887 H 0.70107 0.22754 0.26212 0.0
C2888 C 0.30635 0.18302 0.69535 0.0
C2889 C 0.30111 0.15892 0.69499 0.0
C2890 C 0.31696 0.19336 0.71504 0.0
C2891 C 0.323 0.17914 0.73456 0.0
C2892 C 0.31942 0.15452 0.73352 0.0
C2893 C 0.30821 0.14473 0.71385 0.0
C2894 C 0.32002 0.21975 0.71564 0.0
C2895 C 0.3262 0.13871 0.75374 0.0
C2896 C 0.36027 0.20776 0.7821 0.0
C2897 C 0.34308 0.21385 0.7987 0.0
C2898 C 0.35416 0.19575 0.76138 0.0
C2899 C 0.33026 0.19037 0.75698 0.0
C2900 C 0.31289 0.19642 0.77375 0.0
C2901 C 0.31956 0.20782 0.79452 0.0
C2902 C 0.37319 0.189 0.74416 0.0
C2903 C 0.28713 0.19144 0.76949 0.0
H2904 H 0.30079 0.19411 0.68088 0.0
H2905 H 0.30438 0.12605 0.71355 0.0
H2906 H 0.3077 0.2274 0.72869 0.0
H2907 H 0.33808 0.22445 0.72125 0.0
H2908 H 0.31653 0.22798 0.69826 0.0
H2909 H 0.32569 0.11983 0.74874 0.0
H2910 H 0.34411 0.14306 0.76013 0.0
H2911 H 0.31386 0.14146 0.76859 0.0
H2912 H 0.3785 0.21227 0.78537 0.0
H2913 H 0.30618 0.21267 0.80719 0.0
H2914 H 0.3706 0.19855 0.72735 0.0
H2915 H 0.37215 0.16992 0.74019 0.0
H2916 H 0.39105 0.19306 0.75093 0.0
H2917 H 0.28126 0.2004 0.75318 0.0
H2918 H 0.27585 0.19745 0.78427 0.0
H2919 H 0.28432 0.17231 0.76695 0.0
C2920 C 0.31755 0.83972 0.29538 0.0
C2921 C 0.29381 0.84626 0.29432 0.0
C2922 C 0.32901 0.83043 0.2756 0.0
C2923 C 0.31614 0.82678 0.25461 0.0
C2924 C 0.29247 0.83436 0.25315 0.0
C2925 C 0.28175 0.84444 0.27292 0.0
C2926 C 0.35453 0.82343 0.27754 0.0
C2927 C 0.2779 0.83022 0.23133 0.0
C2928 C 0.34375 0.81061 0.19601 0.0
C2929 C 0.3416 0.78609 0.19635 0.0
C2930 C 0.33674 0.82412 0.21545 0.0
C2931 C 0.32643 0.8128 0.2351 0.0
C2932 C 0.32452 0.78795 0.23551 0.0
C2933 C 0.33252 0.77487 0.21624 0.0
C2934 C 0.33986 0.85047 0.21476 0.0
C2935 C 0.31297 0.77523 0.25579 0.0
H2936 H 0.32702 0.84134 0.31183 0.0
H2937 H 0.26341 0.84943 0.272 0.0
H2938 H 0.35593 0.80399 0.27843 0.0
H2939 H 0.36446 0.82931 0.26179 0.0
H2940 H 0.36297 0.83094 0.29348 0.0
H2941 H 0.26017 0.83833 0.2326 0.0
H2942 H 0.28691 0.83741 0.21561 0.0
H2943 H 0.27573 0.81102 0.2285 0.0
H2944 H 0.35084 0.81916 0.18051 0.0
H2945 H 0.33056 0.75591 0.21621 0.0
H2946 H 0.34828 0.85671 0.23123 0.0
H2947 H 0.32245 0.85914 0.21349 0.0
H2948 H 0.35073 0.85618 0.19956 0.0
H2949 H 0.32213 0.77942 0.27248 0.0
H2950 H 0.31299 0.75584 0.25338 0.0
H2951 H 0.29449 0.78123 0.25765 0.0
loop_
_geom_bond_atom_site_label_1
_geom_bond_atom_site_label_2
_geom_bond_distance
_geom_bond_site_symmetry_2
_ccdc_geom_bond_type
Co0 O2 2.143 . S
Co0 O8 2.074 . S
Co0 O11 2.093 . S
Co0 O24 2.097 . S
Co0 N41 2.151 . S
Co0 N49 2.214 . S
Co1 O2 2.160 . S
Co1 O7 2.058 . S
Co1 O17 2.057 . S
Co1 O32 2.037 . S
Co1 N36 2.145 . S
Co1 N57 2.257 . S
O2 Co0 2.143 . S
O2 Co1 2.160 . S
C3 O4 1.278 . S
C3 O11 1.224 . S
O4 C3 1.278 . S
C5 O6 1.245 . S
C5 O17 1.232 . S
O6 C5 1.245 . S
O7 Co1 2.058 . S
O7 C33 1.269 . S
O8 Co0 2.074 . S
O8 C33 1.257 . S
H9 C34 0.930 . S
H10 C40 0.930 . S
O11 Co0 2.093 . S
O11 C3 1.224 . S
H12 C44 0.929 . S
H13 C46 0.930 . S
H14 C47 0.930 . S
H15 C45 0.929 . S
H16 C48 0.928 . S
O17 Co1 2.057 . S
O17 C5 1.232 . S
H18 C37 0.929 . S
H19 C38 0.929 . S
H20 C50 0.931 . S
H21 C42 0.929 . S
H22 C51 0.930 . S
H23 C43 0.931 . S
O24 Co0 2.097 . S
O24 C52 1.214 . S
H25 C53 0.929 . S
H26 C54 0.929 . S
H27 C55 0.930 . S
H28 C56 0.929 . S
H29 C58 0.930 . S
H30 C35 0.930 . S
H31 C39 0.930 . S
O32 Co1 2.037 . S
O32 C52 1.234 . S
C33 O7 1.269 . S
C33 O8 1.257 . S
C34 H9 0.930 . S
C34 C37 1.388 . S
C34 C39 1.418 . S
C35 H30 0.930 . S
C35 C38 1.404 . S
C35 C39 1.353 . S
N36 Co1 2.145 . S
N36 C37 1.397 . S
N36 C38 1.334 . S
C37 H18 0.929 . S
C37 C34 1.388 . S
C37 N36 1.397 . S
C38 H19 0.929 . S
C38 C35 1.404 . S
C38 N36 1.334 . S
C39 H31 0.930 . S
C39 C34 1.418 . S
C39 C35 1.353 . S
C40 H10 0.930 . S
C40 N41 1.330 . S
C40 C42 1.446 . S
N41 Co0 2.151 . S
N41 C40 1.330 . S
N41 C45 1.418 . S
C42 H21 0.929 . S
C42 C40 1.446 . S
C42 C43 1.332 . S
C43 H23 0.931 . S
C43 C42 1.332 . S
C43 C44 1.267 . S
C44 H12 0.929 . S
C44 C43 1.267 . S
C44 C45 1.251 . S
C45 H15 0.929 . S
C45 N41 1.418 . S
C45 C44 1.251 . S
C46 H13 0.930 . S
C46 C48 1.406 . S
C46 C51 1.261 . S
C47 H14 0.930 . S
C47 N49 1.325 . S
C47 C50 1.357 . S
C48 H16 0.928 . S
C48 C46 1.406 . S
C48 N49 1.261 . S
N49 Co0 2.214 . S
N49 C47 1.325 . S
N49 C48 1.261 . S
C50 H20 0.931 . S
C50 C47 1.357 . S
C50 C51 1.312 . S
C51 H22 0.930 . S
C51 C46 1.261 . S
C51 C50 1.312 . S
C52 O24 1.214 . S
C52 O32 1.234 . S
C53 H25 0.929 . S
C53 C56 1.391 . S
C53 C58 1.391 . S
C54 H26 0.929 . S
C54 C55 1.390 . S
C54 N57 1.391 . S
C55 H27 0.930 . S
C55 C54 1.390 . S
C55 C56 1.392 . S
C56 H28 0.929 . S
C56 C53 1.391 . S
C56 C55 1.392 . S
N57 Co1 2.257 . S
N57 C54 1.391 . S
N57 C58 1.388 . S
C58 H29 0.930 . S
C58 C53 1.391 . S
C58 N57 1.388 . S
Co59 O61 2.143 . S
Co59 O67 2.074 . S
Co59 O70 2.093 . S
Co59 O83 2.097 . S
Co59 N100 2.151 . S
Co59 N108 2.214 . S
Co60 O61 2.160 . S
Co60 O66 2.058 . S
Co60 O76 2.057 . S
Co60 O91 2.037 . S
Co60 N95 2.145 . S
Co60 N116 2.257 . S
O61 Co59 2.143 . S
O61 Co60 2.160 . S
C62 O63 1.278 . S
C62 O70 1.224 . S
O63 C62 1.278 . S
C64 O65 1.245 . S
C64 O76 1.232 . S
O65 C64 1.245 . S
O66 Co60 2.058 . S
O66 C92 1.269 . S
O67 Co59 2.074 . S
O67 C92 1.257 . S
H68 C93 0.930 . S
H69 C99 0.930 . S
O70 Co59 2.093 . S
O70 C62 1.224 . S
H71 C103 0.929 . S
H72 C105 0.930 . S
H73 C106 0.930 . S
H74 C104 0.929 . S
H75 C107 0.928 . S
O76 Co60 2.057 . S
O76 C64 1.232 . S
H77 C96 0.929 . S
H78 C97 0.929 . S
H79 C109 0.931 . S
H80 C101 0.929 . S
H81 C110 0.930 . S
H82 C102 0.931 . S
O83 Co59 2.097 . S
O83 C111 1.214 . S
H84 C112 0.929 . S
H85 C113 0.929 . S
H86 C114 0.930 . S
H87 C115 0.929 . S
H88 C117 0.930 . S
H89 C94 0.930 . S
H90 C98 0.930 . S
O91 Co60 2.037 . S
O91 C111 1.234 . S
C92 O66 1.269 . S
C92 O67 1.257 . S
C93 H68 0.930 . S
C93 C96 1.388 . S
C93 C98 1.418 . S
C94 H89 0.930 . S
C94 C97 1.404 . S
C94 C98 1.353 . S
N95 Co60 2.145 . S
N95 C96 1.397 . S
N95 C97 1.334 . S
C96 H77 0.929 . S
C96 C93 1.388 . S
C96 N95 1.397 . S
C97 H78 0.929 . S
C97 C94 1.404 . S
C97 N95 1.334 . S
C98 H90 0.930 . S
C98 C93 1.418 . S
C98 C94 1.353 . S
C99 H69 0.930 . S
C99 N100 1.330 . S
C99 C101 1.446 . S
N100 Co59 2.151 . S
N100 C99 1.330 . S
N100 C104 1.418 . S
C101 H80 0.929 . S
C101 C99 1.446 . S
C101 C102 1.332 . S
C102 H82 0.931 . S
C102 C101 1.332 . S
C102 C103 1.267 . S
C103 H71 0.929 . S
C103 C102 1.267 . S
C103 C104 1.251 . S
C104 H74 0.929 . S
C104 N100 1.418 . S
C104 C103 1.251 . S
C105 H72 0.930 . S
C105 C107 1.406 . S
C105 C110 1.261 . S
C106 H73 0.930 . S
C106 N108 1.325 . S
C106 C109 1.357 . S
C107 H75 0.928 . S
C107 C105 1.406 . S
C107 N108 1.261 . S
N108 Co59 2.214 . S
N108 C106 1.325 . S
N108 C107 1.261 . S
C109 H79 0.931 . S
C109 C106 1.357 . S
C109 C110 1.312 . S
C110 H81 0.930 . S
C110 C105 1.261 . S
C110 C109 1.312 . S
C111 O83 1.214 . S
C111 O91 1.234 . S
C112 H84 0.929 . S
C112 C115 1.391 . S
C112 C117 1.391 . S
C113 H85 0.929 . S
C113 C114 1.390 . S
C113 N116 1.391 . S
C114 H86 0.930 . S
C114 C113 1.390 . S
C114 C115 1.392 . S
C115 H87 0.929 . S
C115 C112 1.391 . S
C115 C114 1.392 . S
N116 Co60 2.257 . S
N116 C113 1.391 . S
N116 C117 1.388 . S
C117 H88 0.930 . S
C117 C112 1.391 . S
C117 N116 1.388 . S
Co118 O120 2.143 . S
Co118 O126 2.074 . S
Co118 O129 2.093 . S
Co118 O142 2.097 . S
Co118 N159 2.151 . S
Co118 N167 2.214 . S
Co119 O120 2.160 . S
Co119 O125 2.058 . S
Co119 O135 2.057 . S
Co119 O150 2.037 . S
Co119 N154 2.145 . S
Co119 N175 2.257 . S
O120 Co118 2.143 . S
O120 Co119 2.160 . S
C121 O122 1.278 . S
C121 O129 1.224 . S
O122 C121 1.278 . S
C123 O124 1.245 . S
C123 O135 1.232 . S
O124 C123 1.245 . S
O125 Co119 2.058 . S
O125 C151 1.269 . S
O126 Co118 2.074 . S
O126 C151 1.257 . S
H127 C152 0.930 . S
H128 C158 0.930 . S
O129 Co118 2.093 . S
O129 C121 1.224 . S
H130 C162 0.929 . S
H131 C164 0.930 . S
H132 C165 0.930 . S
H133 C163 0.929 . S
H134 C166 0.928 . S
O135 Co119 2.057 . S
O135 C123 1.232 . S
H136 C155 0.929 . S
H137 C156 0.929 . S
H138 C168 0.931 . S
H139 C160 0.929 . S
H140 C169 0.930 . S
H141 C161 0.931 . S
O142 Co118 2.097 . S
O142 C170 1.214 . S
H143 C171 0.929 . S
H144 C172 0.929 . S
H145 C173 0.930 . S
H146 C174 0.929 . S
H147 C176 0.930 . S
H148 C153 0.930 . S
H149 C157 0.930 . S
O150 Co119 2.037 . S
O150 C170 1.234 . S
C151 O125 1.269 . S
C151 O126 1.257 . S
C152 H127 0.930 . S
C152 C155 1.388 . S
C152 C157 1.418 . S
C153 H148 0.930 . S
C153 C156 1.404 . S
C153 C157 1.353 . S
N154 Co119 2.145 . S
N154 C155 1.397 . S
N154 C156 1.334 . S
C155 H136 0.929 . S
C155 C152 1.388 . S
C155 N154 1.397 . S
C156 H137 0.929 . S
C156 C153 1.404 . S
C156 N154 1.334 . S
C157 H149 0.930 . S
C157 C152 1.418 . S
C157 C153 1.353 . S
C158 H128 0.930 . S
C158 N159 1.330 . S
C158 C160 1.446 . S
N159 Co118 2.151 . S
N159 C158 1.330 . S
N159 C163 1.418 . S
C160 H139 0.929 . S
C160 C158 1.446 . S
C160 C161 1.332 . S
C161 H141 0.931 . S
C161 C160 1.332 . S
C161 C162 1.267 . S
C162 H130 0.929 . S
C162 C161 1.267 . S
C162 C163 1.251 . S
C163 H133 0.929 . S
C163 N159 1.418 . S
C163 C162 1.251 . S
C164 H131 0.930 . S
C164 C166 1.406 . S
C164 C169 1.261 . S
C165 H132 0.930 . S
C165 N167 1.325 . S
C165 C168 1.357 . S
C166 H134 0.928 . S
C166 C164 1.406 . S
C166 N167 1.261 . S
N167 Co118 2.214 . S
N167 C165 1.325 . S
N167 C166 1.261 . S
C168 H138 0.931 . S
C168 C165 1.357 . S
C168 C169 1.312 . S
C169 H140 0.930 . S
C169 C164 1.261 . S
C169 C168 1.312 . S
C170 O142 1.214 . S
C170 O150 1.234 . S
C171 H143 0.929 . S
C171 C174 1.391 . S
C171 C176 1.391 . S
C172 H144 0.929 . S
C172 C173 1.390 . S
C172 N175 1.391 . S
C173 H145 0.930 . S
C173 C172 1.390 . S
C173 C174 1.392 . S
C174 H146 0.929 . S
C174 C171 1.391 . S
C174 C173 1.392 . S
N175 Co119 2.257 . S
N175 C172 1.391 . S
N175 C176 1.388 . S
C176 H147 0.930 . S
C176 C171 1.391 . S
C176 N175 1.388 . S
Co177 O179 2.143 . S
Co177 O185 2.074 . S
Co177 O188 2.093 . S
Co177 O201 2.097 . S
Co177 N218 2.151 . S
Co177 N226 2.214 . S
Co178 O179 2.160 . S
Co178 O184 2.058 . S
Co178 O194 2.057 . S
Co178 O209 2.037 . S
Co178 N213 2.145 . S
Co178 N234 2.257 . S
O179 Co177 2.143 . S
O179 Co178 2.160 . S
C180 O181 1.278 . S
C180 O188 1.224 . S
O181 C180 1.278 . S
C182 O183 1.245 . S
C182 O194 1.232 . S
O183 C182 1.245 . S
O184 Co178 2.058 . S
O184 C210 1.269 . S
O185 Co177 2.074 . S
O185 C210 1.257 . S
H186 C211 0.930 . S
H187 C217 0.930 . S
O188 Co177 2.093 . S
O188 C180 1.224 . S
H189 C221 0.929 . S
H190 C223 0.930 . S
H191 C224 0.930 . S
H192 C222 0.929 . S
H193 C225 0.928 . S
O194 Co178 2.057 . S
O194 C182 1.232 . S
H195 C214 0.929 . S
H196 C215 0.929 . S
H197 C227 0.931 . S
H198 C219 0.929 . S
H199 C228 0.930 . S
H200 C220 0.931 . S
O201 Co177 2.097 . S
O201 C229 1.214 . S
H202 C230 0.929 . S
H203 C231 0.929 . S
H204 C232 0.930 . S
H205 C233 0.929 . S
H206 C235 0.930 . S
H207 C212 0.930 . S
H208 C216 0.930 . S
O209 Co178 2.037 . S
O209 C229 1.234 . S
C210 O184 1.269 . S
C210 O185 1.257 . S
C211 H186 0.930 . S
C211 C214 1.388 . S
C211 C216 1.418 . S
C212 H207 0.930 . S
C212 C215 1.404 . S
C212 C216 1.353 . S
N213 Co178 2.145 . S
N213 C214 1.397 . S
N213 C215 1.334 . S
C214 H195 0.929 . S
C214 C211 1.388 . S
C214 N213 1.397 . S
C215 H196 0.929 . S
C215 C212 1.404 . S
C215 N213 1.334 . S
C216 H208 0.930 . S
C216 C211 1.418 . S
C216 C212 1.353 . S
C217 H187 0.930 . S
C217 N218 1.330 . S
C217 C219 1.446 . S
N218 Co177 2.151 . S
N218 C217 1.330 . S
N218 C222 1.418 . S
C219 H198 0.929 . S
C219 C217 1.446 . S
C219 C220 1.332 . S
C220 H200 0.931 . S
C220 C219 1.332 . S
C220 C221 1.267 . S
C221 H189 0.929 . S
C221 C220 1.267 . S
C221 C222 1.251 . S
C222 H192 0.929 . S
C222 N218 1.418 . S
C222 C221 1.251 . S
C223 H190 0.930 . S
C223 C225 1.406 . S
C223 C228 1.261 . S
C224 H191 0.930 . S
C224 N226 1.325 . S
C224 C227 1.357 . S
C225 H193 0.928 . S
C225 C223 1.406 . S
C225 N226 1.261 . S
N226 Co177 2.214 . S
N226 C224 1.325 . S
N226 C225 1.261 . S
C227 H197 0.931 . S
C227 C224 1.357 . S
C227 C228 1.312 . S
C228 H199 0.930 . S
C228 C223 1.261 . S
C228 C227 1.312 . S
C229 O201 1.214 . S
C229 O209 1.234 . S
C230 H202 0.929 . S
C230 C233 1.391 . S
C230 C235 1.391 . S
C231 H203 0.929 . S
C231 C232 1.390 . S
C231 N234 1.391 . S
C232 H204 0.930 . S
C232 C231 1.390 . S
C232 C233 1.392 . S
C233 H205 0.929 . S
C233 C230 1.391 . S
C233 C232 1.392 . S
N234 Co178 2.257 . S
N234 C231 1.391 . S
N234 C235 1.388 . S
C235 H206 0.930 . S
C235 C230 1.391 . S
C235 N234 1.388 . S
Co236 O238 2.143 . S
Co236 O244 2.074 . S
Co236 O247 2.093 . S
Co236 O260 2.097 . S
Co236 N277 2.151 . S
Co236 N285 2.214 . S
Co237 O238 2.160 . S
Co237 O243 2.058 . S
Co237 O253 2.057 . S
Co237 O268 2.037 . S
Co237 N272 2.145 . S
Co237 N293 2.257 . S
O238 Co236 2.143 . S
O238 Co237 2.160 . S
C239 O240 1.278 . S
C239 O247 1.224 . S
O240 C239 1.278 . S
C241 O242 1.245 . S
C241 O253 1.232 . S
O242 C241 1.245 . S
O243 Co237 2.058 . S
O243 C269 1.269 . S
O244 Co236 2.074 . S
O244 C269 1.257 . S
H245 C270 0.930 . S
H246 C276 0.930 . S
O247 Co236 2.093 . S
O247 C239 1.224 . S
H248 C280 0.929 . S
H249 C282 0.930 . S
H250 C283 0.930 . S
H251 C281 0.929 . S
H252 C284 0.928 . S
O253 Co237 2.057 . S
O253 C241 1.232 . S
H254 C273 0.929 . S
H255 C274 0.929 . S
H256 C286 0.931 . S
H257 C278 0.929 . S
H258 C287 0.930 . S
H259 C279 0.931 . S
O260 Co236 2.097 . S
O260 C288 1.214 . S
H261 C289 0.929 . S
H262 C290 0.929 . S
H263 C291 0.930 . S
H264 C292 0.929 . S
H265 C294 0.930 . S
H266 C271 0.930 . S
H267 C275 0.930 . S
O268 Co237 2.037 . S
O268 C288 1.234 . S
C269 O243 1.269 . S
C269 O244 1.257 . S
C270 H245 0.930 . S
C270 C273 1.388 . S
C270 C275 1.418 . S
C271 H266 0.930 . S
C271 C274 1.404 . S
C271 C275 1.353 . S
N272 Co237 2.145 . S
N272 C273 1.397 . S
N272 C274 1.334 . S
C273 H254 0.929 . S
C273 C270 1.388 . S
C273 N272 1.397 . S
C274 H255 0.929 . S
C274 C271 1.404 . S
C274 N272 1.334 . S
C275 H267 0.930 . S
C275 C270 1.418 . S
C275 C271 1.353 . S
C276 H246 0.930 . S
C276 N277 1.330 . S
C276 C278 1.446 . S
N277 Co236 2.151 . S
N277 C276 1.330 . S
N277 C281 1.418 . S
C278 H257 0.929 . S
C278 C276 1.446 . S
C278 C279 1.332 . S
C279 H259 0.931 . S
C279 C278 1.332 . S
C279 C280 1.267 . S
C280 H248 0.929 . S
C280 C279 1.267 . S
C280 C281 1.251 . S
C281 H251 0.929 . S
C281 N277 1.418 . S
C281 C280 1.251 . S
C282 H249 0.930 . S
C282 C284 1.406 . S
C282 C287 1.261 . S
C283 H250 0.930 . S
C283 N285 1.325 . S
C283 C286 1.357 . S
C284 H252 0.928 . S
C284 C282 1.406 . S
C284 N285 1.261 . S
N285 Co236 2.214 . S
N285 C283 1.325 . S
N285 C284 1.261 . S
C286 H256 0.931 . S
C286 C283 1.357 . S
C286 C287 1.312 . S
C287 H258 0.930 . S
C287 C282 1.261 . S
C287 C286 1.312 . S
C288 O260 1.214 . S
C288 O268 1.234 . S
C289 H261 0.929 . S
C289 C292 1.391 . S
C289 C294 1.391 . S
C290 H262 0.929 . S
C290 C291 1.390 . S
C290 N293 1.391 . S
C291 H263 0.930 . S
C291 C290 1.390 . S
C291 C292 1.392 . S
C292 H264 0.929 . S
C292 C289 1.391 . S
C292 C291 1.392 . S
N293 Co237 2.257 . S
N293 C290 1.391 . S
N293 C294 1.388 . S
C294 H265 0.930 . S
C294 C289 1.391 . S
C294 N293 1.388 . S
Co295 O297 2.143 . S
Co295 O303 2.074 . S
Co295 O306 2.093 . S
Co295 O319 2.097 . S
Co295 N336 2.151 . S
Co295 N344 2.214 . S
Co296 O297 2.160 . S
Co296 O302 2.058 . S
Co296 O312 2.057 . S
Co296 O327 2.037 . S
Co296 N331 2.145 . S
Co296 N352 2.257 . S
O297 Co295 2.143 . S
O297 Co296 2.160 . S
C298 O299 1.278 . S
C298 O306 1.224 . S
O299 C298 1.278 . S
C300 O301 1.245 . S
C300 O312 1.232 . S
O301 C300 1.245 . S
O302 Co296 2.058 . S
O302 C328 1.269 . S
O303 Co295 2.074 . S
O303 C328 1.257 . S
H304 C329 0.930 . S
H305 C335 0.930 . S
O306 Co295 2.093 . S
O306 C298 1.224 . S
H307 C339 0.929 . S
H308 C341 0.930 . S
H309 C342 0.930 . S
H310 C340 0.929 . S
H311 C343 0.928 . S
O312 Co296 2.057 . S
O312 C300 1.232 . S
H313 C332 0.929 . S
H314 C333 0.929 . S
H315 C345 0.931 . S
H316 C337 0.929 . S
H317 C346 0.930 . S
H318 C338 0.931 . S
O319 Co295 2.097 . S
O319 C347 1.214 . S
H320 C348 0.929 . S
H321 C349 0.929 . S
H322 C350 0.930 . S
H323 C351 0.929 . S
H324 C353 0.930 . S
H325 C330 0.930 . S
H326 C334 0.930 . S
O327 Co296 2.037 . S
O327 C347 1.234 . S
C328 O302 1.269 . S
C328 O303 1.257 . S
C329 H304 0.930 . S
C329 C332 1.388 . S
C329 C334 1.418 . S
C330 H325 0.930 . S
C330 C333 1.404 . S
C330 C334 1.353 . S
N331 Co296 2.145 . S
N331 C332 1.397 . S
N331 C333 1.334 . S
C332 H313 0.929 . S
C332 C329 1.388 . S
C332 N331 1.397 . S
C333 H314 0.929 . S
C333 C330 1.404 . S
C333 N331 1.334 . S
C334 H326 0.930 . S
C334 C329 1.418 . S
C334 C330 1.353 . S
C335 H305 0.930 . S
C335 N336 1.330 . S
C335 C337 1.446 . S
N336 Co295 2.151 . S
N336 C335 1.330 . S
N336 C340 1.418 . S
C337 H316 0.929 . S
C337 C335 1.446 . S
C337 C338 1.332 . S
C338 H318 0.931 . S
C338 C337 1.332 . S
C338 C339 1.267 . S
C339 H307 0.929 . S
C339 C338 1.267 . S
C339 C340 1.251 . S
C340 H310 0.929 . S
C340 N336 1.418 . S
C340 C339 1.251 . S
C341 H308 0.930 . S
C341 C343 1.406 . S
C341 C346 1.261 . S
C342 H309 0.930 . S
C342 N344 1.325 . S
C342 C345 1.357 . S
C343 H311 0.928 . S
C343 C341 1.406 . S
C343 N344 1.261 . S
N344 Co295 2.214 . S
N344 C342 1.325 . S
N344 C343 1.261 . S
C345 H315 0.931 . S
C345 C342 1.357 . S
C345 C346 1.312 . S
C346 H317 0.930 . S
C346 C341 1.261 . S
C346 C345 1.312 . S
C347 O319 1.214 . S
C347 O327 1.234 . S
C348 H320 0.929 . S
C348 C351 1.391 . S
C348 C353 1.391 . S
C349 H321 0.929 . S
C349 C350 1.390 . S
C349 N352 1.391 . S
C350 H322 0.930 . S
C350 C349 1.390 . S
C350 C351 1.392 . S
C351 H323 0.929 . S
C351 C348 1.391 . S
C351 C350 1.392 . S
N352 Co296 2.257 . S
N352 C349 1.391 . S
N352 C353 1.388 . S
C353 H324 0.930 . S
C353 C348 1.391 . S
C353 N352 1.388 . S
Co354 O356 2.143 . S
Co354 O362 2.074 . S
Co354 O365 2.093 . S
Co354 O378 2.097 . S
Co354 N395 2.151 . S
Co354 N403 2.214 . S
Co355 O356 2.160 . S
Co355 O361 2.058 . S
Co355 O371 2.057 . S
Co355 O386 2.037 . S
Co355 N390 2.145 . S
Co355 N411 2.257 . S
O356 Co354 2.143 . S
O356 Co355 2.160 . S
C357 O358 1.278 . S
C357 O365 1.224 . S
O358 C357 1.278 . S
C359 O360 1.245 . S
C359 O371 1.232 . S
O360 C359 1.245 . S
O361 Co355 2.058 . S
O361 C387 1.269 . S
O362 Co354 2.074 . S
O362 C387 1.257 . S
H363 C388 0.930 . S
H364 C394 0.930 . S
O365 Co354 2.093 . S
O365 C357 1.224 . S
H366 C398 0.929 . S
H367 C400 0.930 . S
H368 C401 0.930 . S
H369 C399 0.929 . S
H370 C402 0.928 . S
O371 Co355 2.057 . S
O371 C359 1.232 . S
H372 C391 0.929 . S
H373 C392 0.929 . S
H374 C404 0.931 . S
H375 C396 0.929 . S
H376 C405 0.930 . S
H377 C397 0.931 . S
O378 Co354 2.097 . S
O378 C406 1.214 . S
H379 C407 0.929 . S
H380 C408 0.929 . S
H381 C409 0.930 . S
H382 C410 0.929 . S
H383 C412 0.930 . S
H384 C389 0.930 . S
H385 C393 0.930 . S
O386 Co355 2.037 . S
O386 C406 1.234 . S
C387 O361 1.269 . S
C387 O362 1.257 . S
C388 H363 0.930 . S
C388 C391 1.388 . S
C388 C393 1.418 . S
C389 H384 0.930 . S
C389 C392 1.404 . S
C389 C393 1.353 . S
N390 Co355 2.145 . S
N390 C391 1.397 . S
N390 C392 1.334 . S
C391 H372 0.929 . S
C391 C388 1.388 . S
C391 N390 1.397 . S
C392 H373 0.929 . S
C392 C389 1.404 . S
C392 N390 1.334 . S
C393 H385 0.930 . S
C393 C388 1.418 . S
C393 C389 1.353 . S
C394 H364 0.930 . S
C394 N395 1.330 . S
C394 C396 1.446 . S
N395 Co354 2.151 . S
N395 C394 1.330 . S
N395 C399 1.418 . S
C396 H375 0.929 . S
C396 C394 1.446 . S
C396 C397 1.332 . S
C397 H377 0.931 . S
C397 C396 1.332 . S
C397 C398 1.267 . S
C398 H366 0.929 . S
C398 C397 1.267 . S
C398 C399 1.251 . S
C399 H369 0.929 . S
C399 N395 1.418 . S
C399 C398 1.251 . S
C400 H367 0.930 . S
C400 C402 1.406 . S
C400 C405 1.261 . S
C401 H368 0.930 . S
C401 N403 1.325 . S
C401 C404 1.357 . S
C402 H370 0.928 . S
C402 C400 1.406 . S
C402 N403 1.261 . S
N403 Co354 2.214 . S
N403 C401 1.325 . S
N403 C402 1.261 . S
C404 H374 0.931 . S
C404 C401 1.357 . S
C404 C405 1.312 . S
C405 H376 0.930 . S
C405 C400 1.261 . S
C405 C404 1.312 . S
C406 O378 1.214 . S
C406 O386 1.234 . S
C407 H379 0.929 . S
C407 C410 1.391 . S
C407 C412 1.391 . S
C408 H380 0.929 . S
C408 C409 1.390 . S
C408 N411 1.391 . S
C409 H381 0.930 . S
C409 C408 1.390 . S
C409 C410 1.392 . S
C410 H382 0.929 . S
C410 C407 1.391 . S
C410 C409 1.392 . S
N411 Co355 2.257 . S
N411 C408 1.391 . S
N411 C412 1.388 . S
C412 H383 0.930 . S
C412 C407 1.391 . S
C412 N411 1.388 . S
Co413 O415 2.143 . S
Co413 O421 2.074 . S
Co413 O424 2.093 . S
Co413 O437 2.097 . S
Co413 N454 2.151 . S
Co413 N462 2.214 . S
Co414 O415 2.160 . S
Co414 O420 2.058 . S
Co414 O430 2.057 . S
Co414 O445 2.037 . S
Co414 N449 2.145 . S
Co414 N470 2.257 . S
O415 Co413 2.143 . S
O415 Co414 2.160 . S
C416 O417 1.278 . S
C416 O424 1.224 . S
O417 C416 1.278 . S
C418 O419 1.245 . S
C418 O430 1.232 . S
O419 C418 1.245 . S
O420 Co414 2.058 . S
O420 C446 1.269 . S
O421 Co413 2.074 . S
O421 C446 1.257 . S
H422 C447 0.930 . S
H423 C453 0.930 . S
O424 Co413 2.093 . S
O424 C416 1.224 . S
H425 C457 0.929 . S
H426 C459 0.930 . S
H427 C460 0.930 . S
H428 C458 0.929 . S
H429 C461 0.928 . S
O430 Co414 2.057 . S
O430 C418 1.232 . S
H431 C450 0.929 . S
H432 C451 0.929 . S
H433 C463 0.931 . S
H434 C455 0.929 . S
H435 C464 0.930 . S
H436 C456 0.931 . S
O437 Co413 2.097 . S
O437 C465 1.214 . S
H438 C466 0.929 . S
H439 C467 0.929 . S
H440 C468 0.930 . S
H441 C469 0.929 . S
H442 C471 0.930 . S
H443 C448 0.930 . S
H444 C452 0.930 . S
O445 Co414 2.037 . S
O445 C465 1.234 . S
C446 O420 1.269 . S
C446 O421 1.257 . S
C447 H422 0.930 . S
C447 C450 1.388 . S
C447 C452 1.418 . S
C448 H443 0.930 . S
C448 C451 1.404 . S
C448 C452 1.353 . S
N449 Co414 2.145 . S
N449 C450 1.397 . S
N449 C451 1.334 . S
C450 H431 0.929 . S
C450 C447 1.388 . S
C450 N449 1.397 . S
C451 H432 0.929 . S
C451 C448 1.404 . S
C451 N449 1.334 . S
C452 H444 0.930 . S
C452 C447 1.418 . S
C452 C448 1.353 . S
C453 H423 0.930 . S
C453 N454 1.330 . S
C453 C455 1.446 . S
N454 Co413 2.151 . S
N454 C453 1.330 . S
N454 C458 1.418 . S
C455 H434 0.929 . S
C455 C453 1.446 . S
C455 C456 1.332 . S
C456 H436 0.931 . S
C456 C455 1.332 . S
C456 C457 1.267 . S
C457 H425 0.929 . S
C457 C456 1.267 . S
C457 C458 1.251 . S
C458 H428 0.929 . S
C458 N454 1.418 . S
C458 C457 1.251 . S
C459 H426 0.930 . S
C459 C461 1.406 . S
C459 C464 1.261 . S
C460 H427 0.930 . S
C460 N462 1.325 . S
C460 C463 1.357 . S
C461 H429 0.928 . S
C461 C459 1.406 . S
C461 N462 1.261 . S
N462 Co413 2.214 . S
N462 C460 1.325 . S
N462 C461 1.261 . S
C463 H433 0.931 . S
C463 C460 1.357 . S
C463 C464 1.312 . S
C464 H435 0.930 . S
C464 C459 1.261 . S
C464 C463 1.312 . S
C465 O437 1.214 . S
C465 O445 1.234 . S
C466 H438 0.929 . S
C466 C469 1.391 . S
C466 C471 1.391 . S
C467 H439 0.929 . S
C467 C468 1.390 . S
C467 N470 1.391 . S
C468 H440 0.930 . S
C468 C467 1.390 . S
C468 C469 1.392 . S
C469 H441 0.929 . S
C469 C466 1.391 . S
C469 C468 1.392 . S
N470 Co414 2.257 . S
N470 C467 1.391 . S
N470 C471 1.388 . S
C471 H442 0.930 . S
C471 C466 1.391 . S
C471 N470 1.388 . S
Co472 O474 2.143 . S
Co472 O480 2.074 . S
Co472 O483 2.093 . S
Co472 O496 2.097 . S
Co472 N513 2.151 . S
Co472 N521 2.214 . S
Co473 O474 2.160 . S
Co473 O479 2.058 . S
Co473 O489 2.057 . S
Co473 O504 2.037 . S
Co473 N508 2.145 . S
Co473 N529 2.257 . S
O474 Co472 2.143 . S
O474 Co473 2.160 . S
C475 O476 1.278 . S
C475 O483 1.224 . S
O476 C475 1.278 . S
C477 O478 1.245 . S
C477 O489 1.232 . S
O478 C477 1.245 . S
O479 Co473 2.058 . S
O479 C505 1.269 . S
O480 Co472 2.074 . S
O480 C505 1.257 . S
H481 C506 0.930 . S
H482 C512 0.930 . S
O483 Co472 2.093 . S
O483 C475 1.224 . S
H484 C516 0.929 . S
H485 C518 0.930 . S
H486 C519 0.930 . S
H487 C517 0.929 . S
H488 C520 0.928 . S
O489 Co473 2.057 . S
O489 C477 1.232 . S
H490 C509 0.929 . S
H491 C510 0.929 . S
H492 C522 0.931 . S
H493 C514 0.929 . S
H494 C523 0.930 . S
H495 C515 0.931 . S
O496 Co472 2.097 . S
O496 C524 1.214 . S
H497 C525 0.929 . S
H498 C526 0.929 . S
H499 C527 0.930 . S
H500 C528 0.929 . S
H501 C530 0.930 . S
H502 C507 0.930 . S
H503 C511 0.930 . S
O504 Co473 2.037 . S
O504 C524 1.234 . S
C505 O479 1.269 . S
C505 O480 1.257 . S
C506 H481 0.930 . S
C506 C509 1.388 . S
C506 C511 1.418 . S
C507 H502 0.930 . S
C507 C510 1.404 . S
C507 C511 1.353 . S
N508 Co473 2.145 . S
N508 C509 1.397 . S
N508 C510 1.334 . S
C509 H490 0.929 . S
C509 C506 1.388 . S
C509 N508 1.397 . S
C510 H491 0.929 . S
C510 C507 1.404 . S
C510 N508 1.334 . S
C511 H503 0.930 . S
C511 C506 1.418 . S
C511 C507 1.353 . S
C512 H482 0.930 . S
C512 N513 1.330 . S
C512 C514 1.446 . S
N513 Co472 2.151 . S
N513 C512 1.330 . S
N513 C517 1.418 . S
C514 H493 0.929 . S
C514 C512 1.446 . S
C514 C515 1.332 . S
C515 H495 0.931 . S
C515 C514 1.332 . S
C515 C516 1.267 . S
C516 H484 0.929 . S
C516 C515 1.267 . S
C516 C517 1.251 . S
C517 H487 0.929 . S
C517 N513 1.418 . S
C517 C516 1.251 . S
C518 H485 0.930 . S
C518 C520 1.406 . S
C518 C523 1.261 . S
C519 H486 0.930 . S
C519 N521 1.325 . S
C519 C522 1.357 . S
C520 H488 0.928 . S
C520 C518 1.406 . S
C520 N521 1.261 . S
N521 Co472 2.214 . S
N521 C519 1.325 . S
N521 C520 1.261 . S
C522 H492 0.931 . S
C522 C519 1.357 . S
C522 C523 1.312 . S
C523 H494 0.930 . S
C523 C518 1.261 . S
C523 C522 1.312 . S
C524 O496 1.214 . S
C524 O504 1.234 . S
C525 H497 0.929 . S
C525 C528 1.391 . S
C525 C530 1.391 . S
C526 H498 0.929 . S
C526 C527 1.390 . S
C526 N529 1.391 . S
C527 H499 0.930 . S
C527 C526 1.390 . S
C527 C528 1.392 . S
C528 H500 0.929 . S
C528 C525 1.391 . S
C528 C527 1.392 . S
N529 Co473 2.257 . S
N529 C526 1.391 . S
N529 C530 1.388 . S
C530 H501 0.930 . S
C530 C525 1.391 . S
C530 N529 1.388 . S
Co531 O533 2.143 . S
Co531 O539 2.074 . S
Co531 O542 2.093 . S
Co531 O555 2.097 . S
Co531 N572 2.151 . S
Co531 N580 2.214 . S
Co532 O533 2.160 . S
Co532 O538 2.058 . S
Co532 O548 2.057 . S
Co532 O563 2.037 . S
Co532 N567 2.145 . S
Co532 N588 2.257 . S
O533 Co531 2.143 . S
O533 Co532 2.160 . S
C534 O535 1.278 . S
C534 O542 1.224 . S
O535 C534 1.278 . S
C536 O537 1.245 . S
C536 O548 1.232 . S
O537 C536 1.245 . S
O538 Co532 2.058 . S
O538 C564 1.269 . S
O539 Co531 2.074 . S
O539 C564 1.257 . S
H540 C565 0.930 . S
H541 C571 0.930 . S
O542 Co531 2.093 . S
O542 C534 1.224 . S
H543 C575 0.929 . S
H544 C577 0.930 . S
H545 C578 0.930 . S
H546 C576 0.929 . S
H547 C579 0.928 . S
O548 Co532 2.057 . S
O548 C536 1.232 . S
H549 C568 0.929 . S
H550 C569 0.929 . S
H551 C581 0.931 . S
H552 C573 0.929 . S
H553 C582 0.930 . S
H554 C574 0.931 . S
O555 Co531 2.097 . S
O555 C583 1.214 . S
H556 C584 0.929 . S
H557 C585 0.929 . S
H558 C586 0.930 . S
H559 C587 0.929 . S
H560 C589 0.930 . S
H561 C566 0.930 . S
H562 C570 0.930 . S
O563 Co532 2.037 . S
O563 C583 1.234 . S
C564 O538 1.269 . S
C564 O539 1.257 . S
C565 H540 0.930 . S
C565 C568 1.388 . S
C565 C570 1.418 . S
C566 H561 0.930 . S
C566 C569 1.404 . S
C566 C570 1.353 . S
N567 Co532 2.145 . S
N567 C568 1.397 . S
N567 C569 1.334 . S
C568 H549 0.929 . S
C568 C565 1.388 . S
C568 N567 1.397 . S
C569 H550 0.929 . S
C569 C566 1.404 . S
C569 N567 1.334 . S
C570 H562 0.930 . S
C570 C565 1.418 . S
C570 C566 1.353 . S
C571 H541 0.930 . S
C571 N572 1.330 . S
C571 C573 1.446 . S
N572 Co531 2.151 . S
N572 C571 1.330 . S
N572 C576 1.418 . S
C573 H552 0.929 . S
C573 C571 1.446 . S
C573 C574 1.332 . S
C574 H554 0.931 . S
C574 C573 1.332 . S
C574 C575 1.267 . S
C575 H543 0.929 . S
C575 C574 1.267 . S
C575 C576 1.251 . S
C576 H546 0.929 . S
C576 N572 1.418 . S
C576 C575 1.251 . S
C577 H544 0.930 . S
C577 C579 1.406 . S
C577 C582 1.261 . S
C578 H545 0.930 . S
C578 N580 1.325 . S
C578 C581 1.357 . S
C579 H547 0.928 . S
C579 C577 1.406 . S
C579 N580 1.261 . S
N580 Co531 2.214 . S
N580 C578 1.325 . S
N580 C579 1.261 . S
C581 H551 0.931 . S
C581 C578 1.357 . S
C581 C582 1.312 . S
C582 H553 0.930 . S
C582 C577 1.261 . S
C582 C581 1.312 . S
C583 O555 1.214 . S
C583 O563 1.234 . S
C584 H556 0.929 . S
C584 C587 1.391 . S
C584 C589 1.391 . S
C585 H557 0.929 . S
C585 C586 1.390 . S
C585 N588 1.391 . S
C586 H558 0.930 . S
C586 C585 1.390 . S
C586 C587 1.392 . S
C587 H559 0.929 . S
C587 C584 1.391 . S
C587 C586 1.392 . S
N588 Co532 2.257 . S
N588 C585 1.391 . S
N588 C589 1.388 . S
C589 H560 0.930 . S
C589 C584 1.391 . S
C589 N588 1.388 . S
Co590 O592 2.143 . S
Co590 O598 2.074 . S
Co590 O601 2.093 . S
Co590 O614 2.097 . S
Co590 N631 2.151 . S
Co590 N639 2.214 . S
Co591 O592 2.160 . S
Co591 O597 2.058 . S
Co591 O607 2.057 . S
Co591 O622 2.037 . S
Co591 N626 2.145 . S
Co591 N647 2.257 . S
O592 Co590 2.143 . S
O592 Co591 2.160 . S
C593 O594 1.278 . S
C593 O601 1.224 . S
O594 C593 1.278 . S
C595 O596 1.245 . S
C595 O607 1.232 . S
O596 C595 1.245 . S
O597 Co591 2.058 . S
O597 C623 1.269 . S
O598 Co590 2.074 . S
O598 C623 1.257 . S
H599 C624 0.930 . S
H600 C630 0.930 . S
O601 Co590 2.093 . S
O601 C593 1.224 . S
H602 C634 0.929 . S
H603 C636 0.930 . S
H604 C637 0.930 . S
H605 C635 0.929 . S
H606 C638 0.928 . S
O607 Co591 2.057 . S
O607 C595 1.232 . S
H608 C627 0.929 . S
H609 C628 0.929 . S
H610 C640 0.931 . S
H611 C632 0.929 . S
H612 C641 0.930 . S
H613 C633 0.931 . S
O614 Co590 2.097 . S
O614 C642 1.214 . S
H615 C643 0.929 . S
H616 C644 0.929 . S
H617 C645 0.930 . S
H618 C646 0.929 . S
H619 C648 0.930 . S
H620 C625 0.930 . S
H621 C629 0.930 . S
O622 Co591 2.037 . S
O622 C642 1.234 . S
C623 O597 1.269 . S
C623 O598 1.257 . S
C624 H599 0.930 . S
C624 C627 1.388 . S
C624 C629 1.418 . S
C625 H620 0.930 . S
C625 C628 1.404 . S
C625 C629 1.353 . S
N626 Co591 2.145 . S
N626 C627 1.397 . S
N626 C628 1.334 . S
C627 H608 0.929 . S
C627 C624 1.388 . S
C627 N626 1.397 . S
C628 H609 0.929 . S
C628 C625 1.404 . S
C628 N626 1.334 . S
C629 H621 0.930 . S
C629 C624 1.418 . S
C629 C625 1.353 . S
C630 H600 0.930 . S
C630 N631 1.330 . S
C630 C632 1.446 . S
N631 Co590 2.151 . S
N631 C630 1.330 . S
N631 C635 1.418 . S
C632 H611 0.929 . S
C632 C630 1.446 . S
C632 C633 1.332 . S
C633 H613 0.931 . S
C633 C632 1.332 . S
C633 C634 1.267 . S
C634 H602 0.929 . S
C634 C633 1.267 . S
C634 C635 1.251 . S
C635 H605 0.929 . S
C635 N631 1.418 . S
C635 C634 1.251 . S
C636 H603 0.930 . S
C636 C638 1.406 . S
C636 C641 1.261 . S
C637 H604 0.930 . S
C637 N639 1.325 . S
C637 C640 1.357 . S
C638 H606 0.928 . S
C638 C636 1.406 . S
C638 N639 1.261 . S
N639 Co590 2.214 . S
N639 C637 1.325 . S
N639 C638 1.261 . S
C640 H610 0.931 . S
C640 C637 1.357 . S
C640 C641 1.312 . S
C641 H612 0.930 . S
C641 C636 1.261 . S
C641 C640 1.312 . S
C642 O614 1.214 . S
C642 O622 1.234 . S
C643 H615 0.929 . S
C643 C646 1.391 . S
C643 C648 1.391 . S
C644 H616 0.929 . S
C644 C645 1.390 . S
C644 N647 1.391 . S
C645 H617 0.930 . S
C645 C644 1.390 . S
C645 C646 1.392 . S
C646 H618 0.929 . S
C646 C643 1.391 . S
C646 C645 1.392 . S
N647 Co591 2.257 . S
N647 C644 1.391 . S
N647 C648 1.388 . S
C648 H619 0.930 . S
C648 C643 1.391 . S
C648 N647 1.388 . S
Co649 O651 2.143 . S
Co649 O657 2.074 . S
Co649 O660 2.093 . S
Co649 O673 2.097 . S
Co649 N690 2.151 . S
Co649 N698 2.214 . S
Co650 O651 2.160 . S
Co650 O656 2.058 . S
Co650 O666 2.057 . S
Co650 O681 2.037 . S
Co650 N685 2.145 . S
Co650 N706 2.257 . S
O651 Co649 2.143 . S
O651 Co650 2.160 . S
C652 O653 1.278 . S
C652 O660 1.224 . S
O653 C652 1.278 . S
C654 O655 1.245 . S
C654 O666 1.232 . S
O655 C654 1.245 . S
O656 Co650 2.058 . S
O656 C682 1.269 . S
O657 Co649 2.074 . S
O657 C682 1.257 . S
H658 C683 0.930 . S
H659 C689 0.930 . S
O660 Co649 2.093 . S
O660 C652 1.224 . S
H661 C693 0.929 . S
H662 C695 0.930 . S
H663 C696 0.930 . S
H664 C694 0.929 . S
H665 C697 0.928 . S
O666 Co650 2.057 . S
O666 C654 1.232 . S
H667 C686 0.929 . S
H668 C687 0.929 . S
H669 C699 0.931 . S
H670 C691 0.929 . S
H671 C700 0.930 . S
H672 C692 0.931 . S
O673 Co649 2.097 . S
O673 C701 1.214 . S
H674 C702 0.929 . S
H675 C703 0.929 . S
H676 C704 0.930 . S
H677 C705 0.929 . S
H678 C707 0.930 . S
H679 C684 0.930 . S
H680 C688 0.930 . S
O681 Co650 2.037 . S
O681 C701 1.234 . S
C682 O656 1.269 . S
C682 O657 1.257 . S
C683 H658 0.930 . S
C683 C686 1.388 . S
C683 C688 1.418 . S
C684 H679 0.930 . S
C684 C687 1.404 . S
C684 C688 1.353 . S
N685 Co650 2.145 . S
N685 C686 1.397 . S
N685 C687 1.334 . S
C686 H667 0.929 . S
C686 C683 1.388 . S
C686 N685 1.397 . S
C687 H668 0.929 . S
C687 C684 1.404 . S
C687 N685 1.334 . S
C688 H680 0.930 . S
C688 C683 1.418 . S
C688 C684 1.353 . S
C689 H659 0.930 . S
C689 N690 1.330 . S
C689 C691 1.446 . S
N690 Co649 2.151 . S
N690 C689 1.330 . S
N690 C694 1.418 . S
C691 H670 0.929 . S
C691 C689 1.446 . S
C691 C692 1.332 . S
C692 H672 0.931 . S
C692 C691 1.332 . S
C692 C693 1.267 . S
C693 H661 0.929 . S
C693 C692 1.267 . S
C693 C694 1.251 . S
C694 H664 0.929 . S
C694 N690 1.418 . S
C694 C693 1.251 . S
C695 H662 0.930 . S
C695 C697 1.406 . S
C695 C700 1.261 . S
C696 H663 0.930 . S
C696 N698 1.325 . S
C696 C699 1.357 . S
C697 H665 0.928 . S
C697 C695 1.406 . S
C697 N698 1.261 . S
N698 Co649 2.214 . S
N698 C696 1.325 . S
N698 C697 1.261 . S
C699 H669 0.931 . S
C699 C696 1.357 . S
C699 C700 1.312 . S
C700 H671 0.930 . S
C700 C695 1.261 . S
C700 C699 1.312 . S
C701 O673 1.214 . S
C701 O681 1.234 . S
C702 H674 0.929 . S
C702 C705 1.391 . S
C702 C707 1.391 . S
C703 H675 0.929 . S
C703 C704 1.390 . S
C703 N706 1.391 . S
C704 H676 0.930 . S
C704 C703 1.390 . S
C704 C705 1.392 . S
C705 H677 0.929 . S
C705 C702 1.391 . S
C705 C704 1.392 . S
N706 Co650 2.257 . S
N706 C703 1.391 . S
N706 C707 1.388 . S
C707 H678 0.930 . S
C707 C702 1.391 . S
C707 N706 1.388 . S
Co708 O710 2.143 . S
Co708 O716 2.074 . S
Co708 O719 2.093 . S
Co708 O732 2.097 . S
Co708 N749 2.151 . S
Co708 N757 2.214 . S
Co709 O710 2.160 . S
Co709 O715 2.058 . S
Co709 O725 2.057 . S
Co709 O740 2.037 . S
Co709 N744 2.145 . S
Co709 N765 2.257 . S
O710 Co708 2.143 . S
O710 Co709 2.160 . S
C711 O712 1.278 . S
C711 O719 1.224 . S
O712 C711 1.278 . S
C713 O714 1.245 . S
C713 O725 1.232 . S
O714 C713 1.245 . S
O715 Co709 2.058 . S
O715 C741 1.269 . S
O716 Co708 2.074 . S
O716 C741 1.257 . S
H717 C742 0.930 . S
H718 C748 0.930 . S
O719 Co708 2.093 . S
O719 C711 1.224 . S
H720 C752 0.929 . S
H721 C754 0.930 . S
H722 C755 0.930 . S
H723 C753 0.929 . S
H724 C756 0.928 . S
O725 Co709 2.057 . S
O725 C713 1.232 . S
H726 C745 0.929 . S
H727 C746 0.929 . S
H728 C758 0.931 . S
H729 C750 0.929 . S
H730 C759 0.930 . S
H731 C751 0.931 . S
O732 Co708 2.097 . S
O732 C760 1.214 . S
H733 C761 0.929 . S
H734 C762 0.929 . S
H735 C763 0.930 . S
H736 C764 0.929 . S
H737 C766 0.930 . S
H738 C743 0.930 . S
H739 C747 0.930 . S
O740 Co709 2.037 . S
O740 C760 1.234 . S
C741 O715 1.269 . S
C741 O716 1.257 . S
C742 H717 0.930 . S
C742 C745 1.388 . S
C742 C747 1.418 . S
C743 H738 0.930 . S
C743 C746 1.404 . S
C743 C747 1.353 . S
N744 Co709 2.145 . S
N744 C745 1.397 . S
N744 C746 1.334 . S
C745 H726 0.929 . S
C745 C742 1.388 . S
C745 N744 1.397 . S
C746 H727 0.929 . S
C746 C743 1.404 . S
C746 N744 1.334 . S
C747 H739 0.930 . S
C747 C742 1.418 . S
C747 C743 1.353 . S
C748 H718 0.930 . S
C748 N749 1.330 . S
C748 C750 1.446 . S
N749 Co708 2.151 . S
N749 C748 1.330 . S
N749 C753 1.418 . S
C750 H729 0.929 . S
C750 C748 1.446 . S
C750 C751 1.332 . S
C751 H731 0.931 . S
C751 C750 1.332 . S
C751 C752 1.267 . S
C752 H720 0.929 . S
C752 C751 1.267 . S
C752 C753 1.251 . S
C753 H723 0.929 . S
C753 N749 1.418 . S
C753 C752 1.251 . S
C754 H721 0.930 . S
C754 C756 1.406 . S
C754 C759 1.261 . S
C755 H722 0.930 . S
C755 N757 1.325 . S
C755 C758 1.357 . S
C756 H724 0.928 . S
C756 C754 1.406 . S
C756 N757 1.261 . S
N757 Co708 2.214 . S
N757 C755 1.325 . S
N757 C756 1.261 . S
C758 H728 0.931 . S
C758 C755 1.357 . S
C758 C759 1.312 . S
C759 H730 0.930 . S
C759 C754 1.261 . S
C759 C758 1.312 . S
C760 O732 1.214 . S
C760 O740 1.234 . S
C761 H733 0.929 . S
C761 C764 1.391 . S
C761 C766 1.391 . S
C762 H734 0.929 . S
C762 C763 1.390 . S
C762 N765 1.391 . S
C763 H735 0.930 . S
C763 C762 1.390 . S
C763 C764 1.392 . S
C764 H736 0.929 . S
C764 C761 1.391 . S
C764 C763 1.392 . S
N765 Co709 2.257 . S
N765 C762 1.391 . S
N765 C766 1.388 . S
C766 H737 0.930 . S
C766 C761 1.391 . S
C766 N765 1.388 . S
Co767 O769 2.143 . S
Co767 O775 2.074 . S
Co767 O778 2.093 . S
Co767 O791 2.097 . S
Co767 N808 2.151 . S
Co767 N816 2.214 . S
Co768 O769 2.160 . S
Co768 O774 2.058 . S
Co768 O784 2.057 . S
Co768 O799 2.037 . S
Co768 N803 2.145 . S
Co768 N824 2.257 . S
O769 Co767 2.143 . S
O769 Co768 2.160 . S
C770 O771 1.278 . S
C770 O778 1.224 . S
O771 C770 1.278 . S
C772 O773 1.245 . S
C772 O784 1.232 . S
O773 C772 1.245 . S
O774 Co768 2.058 . S
O774 C800 1.269 . S
O775 Co767 2.074 . S
O775 C800 1.257 . S
H776 C801 0.930 . S
H777 C807 0.930 . S
O778 Co767 2.093 . S
O778 C770 1.224 . S
H779 C811 0.929 . S
H780 C813 0.930 . S
H781 C814 0.930 . S
H782 C812 0.929 . S
H783 C815 0.928 . S
O784 Co768 2.057 . S
O784 C772 1.232 . S
H785 C804 0.929 . S
H786 C805 0.929 . S
H787 C817 0.931 . S
H788 C809 0.929 . S
H789 C818 0.930 . S
H790 C810 0.931 . S
O791 Co767 2.097 . S
O791 C819 1.214 . S
H792 C820 0.929 . S
H793 C821 0.929 . S
H794 C822 0.930 . S
H795 C823 0.929 . S
H796 C825 0.930 . S
H797 C802 0.930 . S
H798 C806 0.930 . S
O799 Co768 2.037 . S
O799 C819 1.234 . S
C800 O774 1.269 . S
C800 O775 1.257 . S
C801 H776 0.930 . S
C801 C804 1.388 . S
C801 C806 1.418 . S
C802 H797 0.930 . S
C802 C805 1.404 . S
C802 C806 1.353 . S
N803 Co768 2.145 . S
N803 C804 1.397 . S
N803 C805 1.334 . S
C804 H785 0.929 . S
C804 C801 1.388 . S
C804 N803 1.397 . S
C805 H786 0.929 . S
C805 C802 1.404 . S
C805 N803 1.334 . S
C806 H798 0.930 . S
C806 C801 1.418 . S
C806 C802 1.353 . S
C807 H777 0.930 . S
C807 N808 1.330 . S
C807 C809 1.446 . S
N808 Co767 2.151 . S
N808 C807 1.330 . S
N808 C812 1.418 . S
C809 H788 0.929 . S
C809 C807 1.446 . S
C809 C810 1.332 . S
C810 H790 0.931 . S
C810 C809 1.332 . S
C810 C811 1.267 . S
C811 H779 0.929 . S
C811 C810 1.267 . S
C811 C812 1.251 . S
C812 H782 0.929 . S
C812 N808 1.418 . S
C812 C811 1.251 . S
C813 H780 0.930 . S
C813 C815 1.406 . S
C813 C818 1.261 . S
C814 H781 0.930 . S
C814 N816 1.325 . S
C814 C817 1.357 . S
C815 H783 0.928 . S
C815 C813 1.406 . S
C815 N816 1.261 . S
N816 Co767 2.214 . S
N816 C814 1.325 . S
N816 C815 1.261 . S
C817 H787 0.931 . S
C817 C814 1.357 . S
C817 C818 1.312 . S
C818 H789 0.930 . S
C818 C813 1.261 . S
C818 C817 1.312 . S
C819 O791 1.214 . S
C819 O799 1.234 . S
C820 H792 0.929 . S
C820 C823 1.391 . S
C820 C825 1.391 . S
C821 H793 0.929 . S
C821 C822 1.390 . S
C821 N824 1.391 . S
C822 H794 0.930 . S
C822 C821 1.390 . S
C822 C823 1.392 . S
C823 H795 0.929 . S
C823 C820 1.391 . S
C823 C822 1.392 . S
N824 Co768 2.257 . S
N824 C821 1.391 . S
N824 C825 1.388 . S
C825 H796 0.930 . S
C825 C820 1.391 . S
C825 N824 1.388 . S
Co826 O828 2.143 . S
Co826 O834 2.074 . S
Co826 O837 2.093 . S
Co826 O850 2.097 . S
Co826 N867 2.151 . S
Co826 N875 2.214 . S
Co827 O828 2.160 . S
Co827 O833 2.058 . S
Co827 O843 2.057 . S
Co827 O858 2.037 . S
Co827 N862 2.145 . S
Co827 N883 2.257 . S
O828 Co826 2.143 . S
O828 Co827 2.160 . S
C829 O830 1.278 . S
C829 O837 1.224 . S
O830 C829 1.278 . S
C831 O832 1.245 . S
C831 O843 1.232 . S
O832 C831 1.245 . S
O833 Co827 2.058 . S
O833 C859 1.269 . S
O834 Co826 2.074 . S
O834 C859 1.257 . S
H835 C860 0.930 . S
H836 C866 0.930 . S
O837 Co826 2.093 . S
O837 C829 1.224 . S
H838 C870 0.929 . S
H839 C872 0.930 . S
H840 C873 0.930 . S
H841 C871 0.929 . S
H842 C874 0.928 . S
O843 Co827 2.057 . S
O843 C831 1.232 . S
H844 C863 0.929 . S
H845 C864 0.929 . S
H846 C876 0.931 . S
H847 C868 0.929 . S
H848 C877 0.930 . S
H849 C869 0.931 . S
O850 Co826 2.097 . S
O850 C878 1.214 . S
H851 C879 0.929 . S
H852 C880 0.929 . S
H853 C881 0.930 . S
H854 C882 0.929 . S
H855 C884 0.930 . S
H856 C861 0.930 . S
H857 C865 0.930 . S
O858 Co827 2.037 . S
O858 C878 1.234 . S
C859 O833 1.269 . S
C859 O834 1.257 . S
C860 H835 0.930 . S
C860 C863 1.388 . S
C860 C865 1.418 . S
C861 H856 0.930 . S
C861 C864 1.404 . S
C861 C865 1.353 . S
N862 Co827 2.145 . S
N862 C863 1.397 . S
N862 C864 1.334 . S
C863 H844 0.929 . S
C863 C860 1.388 . S
C863 N862 1.397 . S
C864 H845 0.929 . S
C864 C861 1.404 . S
C864 N862 1.334 . S
C865 H857 0.930 . S
C865 C860 1.418 . S
C865 C861 1.353 . S
C866 H836 0.930 . S
C866 N867 1.330 . S
C866 C868 1.446 . S
N867 Co826 2.151 . S
N867 C866 1.330 . S
N867 C871 1.418 . S
C868 H847 0.929 . S
C868 C866 1.446 . S
C868 C869 1.332 . S
C869 H849 0.931 . S
C869 C868 1.332 . S
C869 C870 1.267 . S
C870 H838 0.929 . S
C870 C869 1.267 . S
C870 C871 1.251 . S
C871 H841 0.929 . S
C871 N867 1.418 . S
C871 C870 1.251 . S
C872 H839 0.930 . S
C872 C874 1.406 . S
C872 C877 1.261 . S
C873 H840 0.930 . S
C873 N875 1.325 . S
C873 C876 1.357 . S
C874 H842 0.928 . S
C874 C872 1.406 . S
C874 N875 1.261 . S
N875 Co826 2.214 . S
N875 C873 1.325 . S
N875 C874 1.261 . S
C876 H846 0.931 . S
C876 C873 1.357 . S
C876 C877 1.312 . S
C877 H848 0.930 . S
C877 C872 1.261 . S
C877 C876 1.312 . S
C878 O850 1.214 . S
C878 O858 1.234 . S
C879 H851 0.929 . S
C879 C882 1.391 . S
C879 C884 1.391 . S
C880 H852 0.929 . S
C880 C881 1.390 . S
C880 N883 1.391 . S
C881 H853 0.930 . S
C881 C880 1.390 . S
C881 C882 1.392 . S
C882 H854 0.929 . S
C882 C879 1.391 . S
C882 C881 1.392 . S
N883 Co827 2.257 . S
N883 C880 1.391 . S
N883 C884 1.388 . S
C884 H855 0.930 . S
C884 C879 1.391 . S
C884 N883 1.388 . S
Co885 O887 2.143 . S
Co885 O893 2.074 . S
Co885 O896 2.093 . S
Co885 O909 2.097 . S
Co885 N926 2.151 . S
Co885 N934 2.214 . S
Co886 O887 2.160 . S
Co886 O892 2.058 . S
Co886 O902 2.057 . S
Co886 O917 2.037 . S
Co886 N921 2.145 . S
Co886 N942 2.257 . S
O887 Co885 2.143 . S
O887 Co886 2.160 . S
C888 O889 1.278 . S
C888 O896 1.224 . S
O889 C888 1.278 . S
C890 O891 1.245 . S
C890 O902 1.232 . S
O891 C890 1.245 . S
O892 Co886 2.058 . S
O892 C918 1.269 . S
O893 Co885 2.074 . S
O893 C918 1.257 . S
H894 C919 0.930 . S
H895 C925 0.930 . S
O896 Co885 2.093 . S
O896 C888 1.224 . S
H897 C929 0.929 . S
H898 C931 0.930 . S
H899 C932 0.930 . S
H900 C930 0.929 . S
H901 C933 0.928 . S
O902 Co886 2.057 . S
O902 C890 1.232 . S
H903 C922 0.929 . S
H904 C923 0.929 . S
H905 C935 0.931 . S
H906 C927 0.929 . S
H907 C936 0.930 . S
H908 C928 0.931 . S
O909 Co885 2.097 . S
O909 C937 1.214 . S
H910 C938 0.929 . S
H911 C939 0.929 . S
H912 C940 0.930 . S
H913 C941 0.929 . S
H914 C943 0.930 . S
H915 C920 0.930 . S
H916 C924 0.930 . S
O917 Co886 2.037 . S
O917 C937 1.234 . S
C918 O892 1.269 . S
C918 O893 1.257 . S
C919 H894 0.930 . S
C919 C922 1.388 . S
C919 C924 1.418 . S
C920 H915 0.930 . S
C920 C923 1.404 . S
C920 C924 1.353 . S
N921 Co886 2.145 . S
N921 C922 1.397 . S
N921 C923 1.334 . S
C922 H903 0.929 . S
C922 C919 1.388 . S
C922 N921 1.397 . S
C923 H904 0.929 . S
C923 C920 1.404 . S
C923 N921 1.334 . S
C924 H916 0.930 . S
C924 C919 1.418 . S
C924 C920 1.353 . S
C925 H895 0.930 . S
C925 N926 1.330 . S
C925 C927 1.446 . S
N926 Co885 2.151 . S
N926 C925 1.330 . S
N926 C930 1.418 . S
C927 H906 0.929 . S
C927 C925 1.446 . S
C927 C928 1.332 . S
C928 H908 0.931 . S
C928 C927 1.332 . S
C928 C929 1.267 . S
C929 H897 0.929 . S
C929 C928 1.267 . S
C929 C930 1.251 . S
C930 H900 0.929 . S
C930 N926 1.418 . S
C930 C929 1.251 . S
C931 H898 0.930 . S
C931 C933 1.406 . S
C931 C936 1.261 . S
C932 H899 0.930 . S
C932 N934 1.325 . S
C932 C935 1.357 . S
C933 H901 0.928 . S
C933 C931 1.406 . S
C933 N934 1.261 . S
N934 Co885 2.214 . S
N934 C932 1.325 . S
N934 C933 1.261 . S
C935 H905 0.931 . S
C935 C932 1.357 . S
C935 C936 1.312 . S
C936 H907 0.930 . S
C936 C931 1.261 . S
C936 C935 1.312 . S
C937 O909 1.214 . S
C937 O917 1.234 . S
C938 H910 0.929 . S
C938 C941 1.391 . S
C938 C943 1.391 . S
C939 H911 0.929 . S
C939 C940 1.390 . S
C939 N942 1.391 . S
C940 H912 0.930 . S
C940 C939 1.390 . S
C940 C941 1.392 . S
C941 H913 0.929 . S
C941 C938 1.391 . S
C941 C940 1.392 . S
N942 Co886 2.257 . S
N942 C939 1.391 . S
N942 C943 1.388 . S
C943 H914 0.930 . S
C943 C938 1.391 . S
C943 N942 1.388 . S
Co944 O946 2.143 . S
Co944 O952 2.074 . S
Co944 O955 2.093 . S
Co944 O968 2.097 . S
Co944 N985 2.151 . S
Co944 N993 2.214 . S
Co945 O946 2.160 . S
Co945 O951 2.058 . S
Co945 O961 2.057 . S
Co945 O976 2.037 . S
Co945 N980 2.145 . S
Co945 N1001 2.257 . S
O946 Co944 2.143 . S
O946 Co945 2.160 . S
C947 O948 1.278 . S
C947 O955 1.224 . S
O948 C947 1.278 . S
C949 O950 1.245 . S
C949 O961 1.232 . S
O950 C949 1.245 . S
O951 Co945 2.058 . S
O951 C977 1.269 . S
O952 Co944 2.074 . S
O952 C977 1.257 . S
H953 C978 0.930 . S
H954 C984 0.930 . S
O955 Co944 2.093 . S
O955 C947 1.224 . S
H956 C988 0.929 . S
H957 C990 0.930 . S
H958 C991 0.930 . S
H959 C989 0.929 . S
H960 C992 0.928 . S
O961 Co945 2.057 . S
O961 C949 1.232 . S
H962 C981 0.929 . S
H963 C982 0.929 . S
H964 C994 0.931 . S
H965 C986 0.929 . S
H966 C995 0.930 . S
H967 C987 0.931 . S
O968 Co944 2.097 . S
O968 C996 1.214 . S
H969 C997 0.929 . S
H970 C998 0.929 . S
H971 C999 0.930 . S
H972 C1000 0.929 . S
H973 C1002 0.930 . S
H974 C979 0.930 . S
H975 C983 0.930 . S
O976 Co945 2.037 . S
O976 C996 1.234 . S
C977 O951 1.269 . S
C977 O952 1.257 . S
C978 H953 0.930 . S
C978 C981 1.388 . S
C978 C983 1.418 . S
C979 H974 0.930 . S
C979 C982 1.404 . S
C979 C983 1.353 . S
N980 Co945 2.145 . S
N980 C981 1.397 . S
N980 C982 1.334 . S
C981 H962 0.929 . S
C981 C978 1.388 . S
C981 N980 1.397 . S
C982 H963 0.929 . S
C982 C979 1.404 . S
C982 N980 1.334 . S
C983 H975 0.930 . S
C983 C978 1.418 . S
C983 C979 1.353 . S
C984 H954 0.930 . S
C984 N985 1.330 . S
C984 C986 1.446 . S
N985 Co944 2.151 . S
N985 C984 1.330 . S
N985 C989 1.418 . S
C986 H965 0.929 . S
C986 C984 1.446 . S
C986 C987 1.332 . S
C987 H967 0.931 . S
C987 C986 1.332 . S
C987 C988 1.267 . S
C988 H956 0.929 . S
C988 C987 1.267 . S
C988 C989 1.251 . S
C989 H959 0.929 . S
C989 N985 1.418 . S
C989 C988 1.251 . S
C990 H957 0.930 . S
C990 C992 1.406 . S
C990 C995 1.261 . S
C991 H958 0.930 . S
C991 N993 1.325 . S
C991 C994 1.357 . S
C992 H960 0.928 . S
C992 C990 1.406 . S
C992 N993 1.261 . S
N993 Co944 2.214 . S
N993 C991 1.325 . S
N993 C992 1.261 . S
C994 H964 0.931 . S
C994 C991 1.357 . S
C994 C995 1.312 . S
C995 H966 0.930 . S
C995 C990 1.261 . S
C995 C994 1.312 . S
C996 O968 1.214 . S
C996 O976 1.234 . S
C997 H969 0.929 . S
C997 C1000 1.391 . S
C997 C1002 1.391 . S
C998 H970 0.929 . S
C998 C999 1.390 . S
C998 N1001 1.391 . S
C999 H971 0.930 . S
C999 C998 1.390 . S
C999 C1000 1.392 . S
C1000 H972 0.929 . S
C1000 C997 1.391 . S
C1000 C999 1.392 . S
N1001 Co945 2.257 . S
N1001 C998 1.391 . S
N1001 C1002 1.388 . S
C1002 H973 0.930 . S
C1002 C997 1.391 . S
C1002 N1001 1.388 . S
Co1003 O1005 2.143 . S
Co1003 O1011 2.074 . S
Co1003 O1014 2.093 . S
Co1003 O1027 2.097 . S
Co1003 N1044 2.151 . S
Co1003 N1052 2.214 . S
Co1004 O1005 2.160 . S
Co1004 O1010 2.058 . S
Co1004 O1020 2.057 . S
Co1004 O1035 2.037 . S
Co1004 N1039 2.145 . S
Co1004 N1060 2.257 . S
O1005 Co1003 2.143 . S
O1005 Co1004 2.160 . S
C1006 O1007 1.278 . S
C1006 O1014 1.224 . S
O1007 C1006 1.278 . S
C1008 O1009 1.245 . S
C1008 O1020 1.232 . S
O1009 C1008 1.245 . S
O1010 Co1004 2.058 . S
O1010 C1036 1.269 . S
O1011 Co1003 2.074 . S
O1011 C1036 1.257 . S
H1012 C1037 0.930 . S
H1013 C1043 0.930 . S
O1014 Co1003 2.093 . S
O1014 C1006 1.224 . S
H1015 C1047 0.929 . S
H1016 C1049 0.930 . S
H1017 C1050 0.930 . S
H1018 C1048 0.929 . S
H1019 C1051 0.928 . S
O1020 Co1004 2.057 . S
O1020 C1008 1.232 . S
H1021 C1040 0.929 . S
H1022 C1041 0.929 . S
H1023 C1053 0.931 . S
H1024 C1045 0.929 . S
H1025 C1054 0.930 . S
H1026 C1046 0.931 . S
O1027 Co1003 2.097 . S
O1027 C1055 1.214 . S
H1028 C1056 0.929 . S
H1029 C1057 0.929 . S
H1030 C1058 0.930 . S
H1031 C1059 0.929 . S
H1032 C1061 0.930 . S
H1033 C1038 0.930 . S
H1034 C1042 0.930 . S
O1035 Co1004 2.037 . S
O1035 C1055 1.234 . S
C1036 O1010 1.269 . S
C1036 O1011 1.257 . S
C1037 H1012 0.930 . S
C1037 C1040 1.388 . S
C1037 C1042 1.418 . S
C1038 H1033 0.930 . S
C1038 C1041 1.404 . S
C1038 C1042 1.353 . S
N1039 Co1004 2.145 . S
N1039 C1040 1.397 . S
N1039 C1041 1.334 . S
C1040 H1021 0.929 . S
C1040 C1037 1.388 . S
C1040 N1039 1.397 . S
C1041 H1022 0.929 . S
C1041 C1038 1.404 . S
C1041 N1039 1.334 . S
C1042 H1034 0.930 . S
C1042 C1037 1.418 . S
C1042 C1038 1.353 . S
C1043 H1013 0.930 . S
C1043 N1044 1.330 . S
C1043 C1045 1.446 . S
N1044 Co1003 2.151 . S
N1044 C1043 1.330 . S
N1044 C1048 1.418 . S
C1045 H1024 0.929 . S
C1045 C1043 1.446 . S
C1045 C1046 1.332 . S
C1046 H1026 0.931 . S
C1046 C1045 1.332 . S
C1046 C1047 1.267 . S
C1047 H1015 0.929 . S
C1047 C1046 1.267 . S
C1047 C1048 1.251 . S
C1048 H1018 0.929 . S
C1048 N1044 1.418 . S
C1048 C1047 1.251 . S
C1049 H1016 0.930 . S
C1049 C1051 1.406 . S
C1049 C1054 1.261 . S
C1050 H1017 0.930 . S
C1050 N1052 1.325 . S
C1050 C1053 1.357 . S
C1051 H1019 0.928 . S
C1051 C1049 1.406 . S
C1051 N1052 1.261 . S
N1052 Co1003 2.214 . S
N1052 C1050 1.325 . S
N1052 C1051 1.261 . S
C1053 H1023 0.931 . S
C1053 C1050 1.357 . S
C1053 C1054 1.312 . S
C1054 H1025 0.930 . S
C1054 C1049 1.261 . S
C1054 C1053 1.312 . S
C1055 O1027 1.214 . S
C1055 O1035 1.234 . S
C1056 H1028 0.929 . S
C1056 C1059 1.391 . S
C1056 C1061 1.391 . S
C1057 H1029 0.929 . S
C1057 C1058 1.390 . S
C1057 N1060 1.391 . S
C1058 H1030 0.930 . S
C1058 C1057 1.390 . S
C1058 C1059 1.392 . S
C1059 H1031 0.929 . S
C1059 C1056 1.391 . S
C1059 C1058 1.392 . S
N1060 Co1004 2.257 . S
N1060 C1057 1.391 . S
N1060 C1061 1.388 . S
C1061 H1032 0.930 . S
C1061 C1056 1.391 . S
C1061 N1060 1.388 . S
Co1062 O1064 2.143 . S
Co1062 O1070 2.074 . S
Co1062 O1073 2.093 . S
Co1062 O1086 2.097 . S
Co1062 N1103 2.151 . S
Co1062 N1111 2.214 . S
Co1063 O1064 2.160 . S
Co1063 O1069 2.058 . S
Co1063 O1079 2.057 . S
Co1063 O1094 2.037 . S
Co1063 N1098 2.145 . S
Co1063 N1119 2.257 . S
O1064 Co1062 2.143 . S
O1064 Co1063 2.160 . S
C1065 O1066 1.278 . S
C1065 O1073 1.224 . S
O1066 C1065 1.278 . S
C1067 O1068 1.245 . S
C1067 O1079 1.232 . S
O1068 C1067 1.245 . S
O1069 Co1063 2.058 . S
O1069 C1095 1.269 . S
O1070 Co1062 2.074 . S
O1070 C1095 1.257 . S
H1071 C1096 0.930 . S
H1072 C1102 0.930 . S
O1073 Co1062 2.093 . S
O1073 C1065 1.224 . S
H1074 C1106 0.929 . S
H1075 C1108 0.930 . S
H1076 C1109 0.930 . S
H1077 C1107 0.929 . S
H1078 C1110 0.928 . S
O1079 Co1063 2.057 . S
O1079 C1067 1.232 . S
H1080 C1099 0.929 . S
H1081 C1100 0.929 . S
H1082 C1112 0.931 . S
H1083 C1104 0.929 . S
H1084 C1113 0.930 . S
H1085 C1105 0.931 . S
O1086 Co1062 2.097 . S
O1086 C1114 1.214 . S
H1087 C1115 0.929 . S
H1088 C1116 0.929 . S
H1089 C1117 0.930 . S
H1090 C1118 0.929 . S
H1091 C1120 0.930 . S
H1092 C1097 0.930 . S
H1093 C1101 0.930 . S
O1094 Co1063 2.037 . S
O1094 C1114 1.234 . S
C1095 O1069 1.269 . S
C1095 O1070 1.257 . S
C1096 H1071 0.930 . S
C1096 C1099 1.388 . S
C1096 C1101 1.418 . S
C1097 H1092 0.930 . S
C1097 C1100 1.404 . S
C1097 C1101 1.353 . S
N1098 Co1063 2.145 . S
N1098 C1099 1.397 . S
N1098 C1100 1.334 . S
C1099 H1080 0.929 . S
C1099 C1096 1.388 . S
C1099 N1098 1.397 . S
C1100 H1081 0.929 . S
C1100 C1097 1.404 . S
C1100 N1098 1.334 . S
C1101 H1093 0.930 . S
C1101 C1096 1.418 . S
C1101 C1097 1.353 . S
C1102 H1072 0.930 . S
C1102 N1103 1.330 . S
C1102 C1104 1.446 . S
N1103 Co1062 2.151 . S
N1103 C1102 1.330 . S
N1103 C1107 1.418 . S
C1104 H1083 0.929 . S
C1104 C1102 1.446 . S
C1104 C1105 1.332 . S
C1105 H1085 0.931 . S
C1105 C1104 1.332 . S
C1105 C1106 1.267 . S
C1106 H1074 0.929 . S
C1106 C1105 1.267 . S
C1106 C1107 1.251 . S
C1107 H1077 0.929 . S
C1107 N1103 1.418 . S
C1107 C1106 1.251 . S
C1108 H1075 0.930 . S
C1108 C1110 1.406 . S
C1108 C1113 1.261 . S
C1109 H1076 0.930 . S
C1109 N1111 1.325 . S
C1109 C1112 1.357 . S
C1110 H1078 0.928 . S
C1110 C1108 1.406 . S
C1110 N1111 1.261 . S
N1111 Co1062 2.214 . S
N1111 C1109 1.325 . S
N1111 C1110 1.261 . S
C1112 H1082 0.931 . S
C1112 C1109 1.357 . S
C1112 C1113 1.312 . S
C1113 H1084 0.930 . S
C1113 C1108 1.261 . S
C1113 C1112 1.312 . S
C1114 O1086 1.214 . S
C1114 O1094 1.234 . S
C1115 H1087 0.929 . S
C1115 C1118 1.391 . S
C1115 C1120 1.391 . S
C1116 H1088 0.929 . S
C1116 C1117 1.390 . S
C1116 N1119 1.391 . S
C1117 H1089 0.930 . S
C1117 C1116 1.390 . S
C1117 C1118 1.392 . S
C1118 H1090 0.929 . S
C1118 C1115 1.391 . S
C1118 C1117 1.392 . S
N1119 Co1063 2.257 . S
N1119 C1116 1.391 . S
N1119 C1120 1.388 . S
C1120 H1091 0.930 . S
C1120 C1115 1.391 . S
C1120 N1119 1.388 . S
Co1121 O1123 2.143 . S
Co1121 O1129 2.074 . S
Co1121 O1132 2.093 . S
Co1121 O1145 2.097 . S
Co1121 N1162 2.151 . S
Co1121 N1170 2.214 . S
Co1122 O1123 2.160 . S
Co1122 O1128 2.058 . S
Co1122 O1138 2.057 . S
Co1122 O1153 2.037 . S
Co1122 N1157 2.145 . S
Co1122 N1178 2.257 . S
O1123 Co1121 2.143 . S
O1123 Co1122 2.160 . S
C1124 O1125 1.278 . S
C1124 O1132 1.224 . S
O1125 C1124 1.278 . S
C1126 O1127 1.245 . S
C1126 O1138 1.232 . S
O1127 C1126 1.245 . S
O1128 Co1122 2.058 . S
O1128 C1154 1.269 . S
O1129 Co1121 2.074 . S
O1129 C1154 1.257 . S
H1130 C1155 0.930 . S
H1131 C1161 0.930 . S
O1132 Co1121 2.093 . S
O1132 C1124 1.224 . S
H1133 C1165 0.929 . S
H1134 C1167 0.930 . S
H1135 C1168 0.930 . S
H1136 C1166 0.929 . S
H1137 C1169 0.928 . S
O1138 Co1122 2.057 . S
O1138 C1126 1.232 . S
H1139 C1158 0.929 . S
H1140 C1159 0.929 . S
H1141 C1171 0.931 . S
H1142 C1163 0.929 . S
H1143 C1172 0.930 . S
H1144 C1164 0.931 . S
O1145 Co1121 2.097 . S
O1145 C1173 1.214 . S
H1146 C1174 0.929 . S
H1147 C1175 0.929 . S
H1148 C1176 0.930 . S
H1149 C1177 0.929 . S
H1150 C1179 0.930 . S
H1151 C1156 0.930 . S
H1152 C1160 0.930 . S
O1153 Co1122 2.037 . S
O1153 C1173 1.234 . S
C1154 O1128 1.269 . S
C1154 O1129 1.257 . S
C1155 H1130 0.930 . S
C1155 C1158 1.388 . S
C1155 C1160 1.418 . S
C1156 H1151 0.930 . S
C1156 C1159 1.404 . S
C1156 C1160 1.353 . S
N1157 Co1122 2.145 . S
N1157 C1158 1.397 . S
N1157 C1159 1.334 . S
C1158 H1139 0.929 . S
C1158 C1155 1.388 . S
C1158 N1157 1.397 . S
C1159 H1140 0.929 . S
C1159 C1156 1.404 . S
C1159 N1157 1.334 . S
C1160 H1152 0.930 . S
C1160 C1155 1.418 . S
C1160 C1156 1.353 . S
C1161 H1131 0.930 . S
C1161 N1162 1.330 . S
C1161 C1163 1.446 . S
N1162 Co1121 2.151 . S
N1162 C1161 1.330 . S
N1162 C1166 1.418 . S
C1163 H1142 0.929 . S
C1163 C1161 1.446 . S
C1163 C1164 1.332 . S
C1164 H1144 0.931 . S
C1164 C1163 1.332 . S
C1164 C1165 1.267 . S
C1165 H1133 0.929 . S
C1165 C1164 1.267 . S
C1165 C1166 1.251 . S
C1166 H1136 0.929 . S
C1166 N1162 1.418 . S
C1166 C1165 1.251 . S
C1167 H1134 0.930 . S
C1167 C1169 1.406 . S
C1167 C1172 1.261 . S
C1168 H1135 0.930 . S
C1168 N1170 1.325 . S
C1168 C1171 1.357 . S
C1169 H1137 0.928 . S
C1169 C1167 1.406 . S
C1169 N1170 1.261 . S
N1170 Co1121 2.214 . S
N1170 C1168 1.325 . S
N1170 C1169 1.261 . S
C1171 H1141 0.931 . S
C1171 C1168 1.357 . S
C1171 C1172 1.312 . S
C1172 H1143 0.930 . S
C1172 C1167 1.261 . S
C1172 C1171 1.312 . S
C1173 O1145 1.214 . S
C1173 O1153 1.234 . S
C1174 H1146 0.929 . S
C1174 C1177 1.391 . S
C1174 C1179 1.391 . S
C1175 H1147 0.929 . S
C1175 C1176 1.390 . S
C1175 N1178 1.391 . S
C1176 H1148 0.930 . S
C1176 C1175 1.390 . S
C1176 C1177 1.392 . S
C1177 H1149 0.929 . S
C1177 C1174 1.391 . S
C1177 C1176 1.392 . S
N1178 Co1122 2.257 . S
N1178 C1175 1.391 . S
N1178 C1179 1.388 . S
C1179 H1150 0.930 . S
C1179 C1174 1.391 . S
C1179 N1178 1.388 . S
Co1180 O1182 2.143 . S
Co1180 O1188 2.074 . S
Co1180 O1191 2.093 . S
Co1180 O1204 2.097 . S
Co1180 N1221 2.151 . S
Co1180 N1229 2.214 . S
Co1181 O1182 2.160 . S
Co1181 O1187 2.058 . S
Co1181 O1197 2.057 . S
Co1181 O1212 2.037 . S
Co1181 N1216 2.145 . S
Co1181 N1237 2.257 . S
O1182 Co1180 2.143 . S
O1182 Co1181 2.160 . S
C1183 O1184 1.278 . S
C1183 O1191 1.224 . S
O1184 C1183 1.278 . S
C1185 O1186 1.245 . S
C1185 O1197 1.232 . S
O1186 C1185 1.245 . S
O1187 Co1181 2.058 . S
O1187 C1213 1.269 . S
O1188 Co1180 2.074 . S
O1188 C1213 1.257 . S
H1189 C1214 0.930 . S
H1190 C1220 0.930 . S
O1191 Co1180 2.093 . S
O1191 C1183 1.224 . S
H1192 C1224 0.929 . S
H1193 C1226 0.930 . S
H1194 C1227 0.930 . S
H1195 C1225 0.929 . S
H1196 C1228 0.928 . S
O1197 Co1181 2.057 . S
O1197 C1185 1.232 . S
H1198 C1217 0.929 . S
H1199 C1218 0.929 . S
H1200 C1230 0.931 . S
H1201 C1222 0.929 . S
H1202 C1231 0.930 . S
H1203 C1223 0.931 . S
O1204 Co1180 2.097 . S
O1204 C1232 1.214 . S
H1205 C1233 0.929 . S
H1206 C1234 0.929 . S
H1207 C1235 0.930 . S
H1208 C1236 0.929 . S
H1209 C1238 0.930 . S
H1210 C1215 0.930 . S
H1211 C1219 0.930 . S
O1212 Co1181 2.037 . S
O1212 C1232 1.234 . S
C1213 O1187 1.269 . S
C1213 O1188 1.257 . S
C1214 H1189 0.930 . S
C1214 C1217 1.388 . S
C1214 C1219 1.418 . S
C1215 H1210 0.930 . S
C1215 C1218 1.404 . S
C1215 C1219 1.353 . S
N1216 Co1181 2.145 . S
N1216 C1217 1.397 . S
N1216 C1218 1.334 . S
C1217 H1198 0.929 . S
C1217 C1214 1.388 . S
C1217 N1216 1.397 . S
C1218 H1199 0.929 . S
C1218 C1215 1.404 . S
C1218 N1216 1.334 . S
C1219 H1211 0.930 . S
C1219 C1214 1.418 . S
C1219 C1215 1.353 . S
C1220 H1190 0.930 . S
C1220 N1221 1.330 . S
C1220 C1222 1.446 . S
N1221 Co1180 2.151 . S
N1221 C1220 1.330 . S
N1221 C1225 1.418 . S
C1222 H1201 0.929 . S
C1222 C1220 1.446 . S
C1222 C1223 1.332 . S
C1223 H1203 0.931 . S
C1223 C1222 1.332 . S
C1223 C1224 1.267 . S
C1224 H1192 0.929 . S
C1224 C1223 1.267 . S
C1224 C1225 1.251 . S
C1225 H1195 0.929 . S
C1225 N1221 1.418 . S
C1225 C1224 1.251 . S
C1226 H1193 0.930 . S
C1226 C1228 1.406 . S
C1226 C1231 1.261 . S
C1227 H1194 0.930 . S
C1227 N1229 1.325 . S
C1227 C1230 1.357 . S
C1228 H1196 0.928 . S
C1228 C1226 1.406 . S
C1228 N1229 1.261 . S
N1229 Co1180 2.214 . S
N1229 C1227 1.325 . S
N1229 C1228 1.261 . S
C1230 H1200 0.931 . S
C1230 C1227 1.357 . S
C1230 C1231 1.312 . S
C1231 H1202 0.930 . S
C1231 C1226 1.261 . S
C1231 C1230 1.312 . S
C1232 O1204 1.214 . S
C1232 O1212 1.234 . S
C1233 H1205 0.929 . S
C1233 C1236 1.391 . S
C1233 C1238 1.391 . S
C1234 H1206 0.929 . S
C1234 C1235 1.390 . S
C1234 N1237 1.391 . S
C1235 H1207 0.930 . S
C1235 C1234 1.390 . S
C1235 C1236 1.392 . S
C1236 H1208 0.929 . S
C1236 C1233 1.391 . S
C1236 C1235 1.392 . S
N1237 Co1181 2.257 . S
N1237 C1234 1.391 . S
N1237 C1238 1.388 . S
C1238 H1209 0.930 . S
C1238 C1233 1.391 . S
C1238 N1237 1.388 . S
Co1239 O1241 2.143 . S
Co1239 O1247 2.074 . S
Co1239 O1250 2.093 . S
Co1239 O1263 2.097 . S
Co1239 N1280 2.151 . S
Co1239 N1288 2.214 . S
Co1240 O1241 2.160 . S
Co1240 O1246 2.058 . S
Co1240 O1256 2.057 . S
Co1240 O1271 2.037 . S
Co1240 N1275 2.145 . S
Co1240 N1296 2.257 . S
O1241 Co1239 2.143 . S
O1241 Co1240 2.160 . S
C1242 O1243 1.278 . S
C1242 O1250 1.224 . S
O1243 C1242 1.278 . S
C1244 O1245 1.245 . S
C1244 O1256 1.232 . S
O1245 C1244 1.245 . S
O1246 Co1240 2.058 . S
O1246 C1272 1.269 . S
O1247 Co1239 2.074 . S
O1247 C1272 1.257 . S
H1248 C1273 0.930 . S
H1249 C1279 0.930 . S
O1250 Co1239 2.093 . S
O1250 C1242 1.224 . S
H1251 C1283 0.929 . S
H1252 C1285 0.930 . S
H1253 C1286 0.930 . S
H1254 C1284 0.929 . S
H1255 C1287 0.928 . S
O1256 Co1240 2.057 . S
O1256 C1244 1.232 . S
H1257 C1276 0.929 . S
H1258 C1277 0.929 . S
H1259 C1289 0.931 . S
H1260 C1281 0.929 . S
H1261 C1290 0.930 . S
H1262 C1282 0.931 . S
O1263 Co1239 2.097 . S
O1263 C1291 1.214 . S
H1264 C1292 0.929 . S
H1265 C1293 0.929 . S
H1266 C1294 0.930 . S
H1267 C1295 0.929 . S
H1268 C1297 0.930 . S
H1269 C1274 0.930 . S
H1270 C1278 0.930 . S
O1271 Co1240 2.037 . S
O1271 C1291 1.234 . S
C1272 O1246 1.269 . S
C1272 O1247 1.257 . S
C1273 H1248 0.930 . S
C1273 C1276 1.388 . S
C1273 C1278 1.418 . S
C1274 H1269 0.930 . S
C1274 C1277 1.404 . S
C1274 C1278 1.353 . S
N1275 Co1240 2.145 . S
N1275 C1276 1.397 . S
N1275 C1277 1.334 . S
C1276 H1257 0.929 . S
C1276 C1273 1.388 . S
C1276 N1275 1.397 . S
C1277 H1258 0.929 . S
C1277 C1274 1.404 . S
C1277 N1275 1.334 . S
C1278 H1270 0.930 . S
C1278 C1273 1.418 . S
C1278 C1274 1.353 . S
C1279 H1249 0.930 . S
C1279 N1280 1.330 . S
C1279 C1281 1.446 . S
N1280 Co1239 2.151 . S
N1280 C1279 1.330 . S
N1280 C1284 1.418 . S
C1281 H1260 0.929 . S
C1281 C1279 1.446 . S
C1281 C1282 1.332 . S
C1282 H1262 0.931 . S
C1282 C1281 1.332 . S
C1282 C1283 1.267 . S
C1283 H1251 0.929 . S
C1283 C1282 1.267 . S
C1283 C1284 1.251 . S
C1284 H1254 0.929 . S
C1284 N1280 1.418 . S
C1284 C1283 1.251 . S
C1285 H1252 0.930 . S
C1285 C1287 1.406 . S
C1285 C1290 1.261 . S
C1286 H1253 0.930 . S
C1286 N1288 1.325 . S
C1286 C1289 1.357 . S
C1287 H1255 0.928 . S
C1287 C1285 1.406 . S
C1287 N1288 1.261 . S
N1288 Co1239 2.214 . S
N1288 C1286 1.325 . S
N1288 C1287 1.261 . S
C1289 H1259 0.931 . S
C1289 C1286 1.357 . S
C1289 C1290 1.312 . S
C1290 H1261 0.930 . S
C1290 C1285 1.261 . S
C1290 C1289 1.312 . S
C1291 O1263 1.214 . S
C1291 O1271 1.234 . S
C1292 H1264 0.929 . S
C1292 C1295 1.391 . S
C1292 C1297 1.391 . S
C1293 H1265 0.929 . S
C1293 C1294 1.390 . S
C1293 N1296 1.391 . S
C1294 H1266 0.930 . S
C1294 C1293 1.390 . S
C1294 C1295 1.392 . S
C1295 H1267 0.929 . S
C1295 C1292 1.391 . S
C1295 C1294 1.392 . S
N1296 Co1240 2.257 . S
N1296 C1293 1.391 . S
N1296 C1297 1.388 . S
C1297 H1268 0.930 . S
C1297 C1292 1.391 . S
C1297 N1296 1.388 . S
Co1298 O1300 2.143 . S
Co1298 O1306 2.074 . S
Co1298 O1309 2.093 . S
Co1298 O1322 2.097 . S
Co1298 N1339 2.151 . S
Co1298 N1347 2.214 . S
Co1299 O1300 2.160 . S
Co1299 O1305 2.058 . S
Co1299 O1315 2.057 . S
Co1299 O1330 2.037 . S
Co1299 N1334 2.145 . S
Co1299 N1355 2.257 . S
O1300 Co1298 2.143 . S
O1300 Co1299 2.160 . S
C1301 O1302 1.278 . S
C1301 O1309 1.224 . S
O1302 C1301 1.278 . S
C1303 O1304 1.245 . S
C1303 O1315 1.232 . S
O1304 C1303 1.245 . S
O1305 Co1299 2.058 . S
O1305 C1331 1.269 . S
O1306 Co1298 2.074 . S
O1306 C1331 1.257 . S
H1307 C1332 0.930 . S
H1308 C1338 0.930 . S
O1309 Co1298 2.093 . S
O1309 C1301 1.224 . S
H1310 C1342 0.929 . S
H1311 C1344 0.930 . S
H1312 C1345 0.930 . S
H1313 C1343 0.929 . S
H1314 C1346 0.928 . S
O1315 Co1299 2.057 . S
O1315 C1303 1.232 . S
H1316 C1335 0.929 . S
H1317 C1336 0.929 . S
H1318 C1348 0.931 . S
H1319 C1340 0.929 . S
H1320 C1349 0.930 . S
H1321 C1341 0.931 . S
O1322 Co1298 2.097 . S
O1322 C1350 1.214 . S
H1323 C1351 0.929 . S
H1324 C1352 0.929 . S
H1325 C1353 0.930 . S
H1326 C1354 0.929 . S
H1327 C1356 0.930 . S
H1328 C1333 0.930 . S
H1329 C1337 0.930 . S
O1330 Co1299 2.037 . S
O1330 C1350 1.234 . S
C1331 O1305 1.269 . S
C1331 O1306 1.257 . S
C1332 H1307 0.930 . S
C1332 C1335 1.388 . S
C1332 C1337 1.418 . S
C1333 H1328 0.930 . S
C1333 C1336 1.404 . S
C1333 C1337 1.353 . S
N1334 Co1299 2.145 . S
N1334 C1335 1.397 . S
N1334 C1336 1.334 . S
C1335 H1316 0.929 . S
C1335 C1332 1.388 . S
C1335 N1334 1.397 . S
C1336 H1317 0.929 . S
C1336 C1333 1.404 . S
C1336 N1334 1.334 . S
C1337 H1329 0.930 . S
C1337 C1332 1.418 . S
C1337 C1333 1.353 . S
C1338 H1308 0.930 . S
C1338 N1339 1.330 . S
C1338 C1340 1.446 . S
N1339 Co1298 2.151 . S
N1339 C1338 1.330 . S
N1339 C1343 1.418 . S
C1340 H1319 0.929 . S
C1340 C1338 1.446 . S
C1340 C1341 1.332 . S
C1341 H1321 0.931 . S
C1341 C1340 1.332 . S
C1341 C1342 1.267 . S
C1342 H1310 0.929 . S
C1342 C1341 1.267 . S
C1342 C1343 1.251 . S
C1343 H1313 0.929 . S
C1343 N1339 1.418 . S
C1343 C1342 1.251 . S
C1344 H1311 0.930 . S
C1344 C1346 1.406 . S
C1344 C1349 1.261 . S
C1345 H1312 0.930 . S
C1345 N1347 1.325 . S
C1345 C1348 1.357 . S
C1346 H1314 0.928 . S
C1346 C1344 1.406 . S
C1346 N1347 1.261 . S
N1347 Co1298 2.214 . S
N1347 C1345 1.325 . S
N1347 C1346 1.261 . S
C1348 H1318 0.931 . S
C1348 C1345 1.357 . S
C1348 C1349 1.312 . S
C1349 H1320 0.930 . S
C1349 C1344 1.261 . S
C1349 C1348 1.312 . S
C1350 O1322 1.214 . S
C1350 O1330 1.234 . S
C1351 H1323 0.929 . S
C1351 C1354 1.391 . S
C1351 C1356 1.391 . S
C1352 H1324 0.929 . S
C1352 C1353 1.390 . S
C1352 N1355 1.391 . S
C1353 H1325 0.930 . S
C1353 C1352 1.390 . S
C1353 C1354 1.392 . S
C1354 H1326 0.929 . S
C1354 C1351 1.391 . S
C1354 C1353 1.392 . S
N1355 Co1299 2.257 . S
N1355 C1352 1.391 . S
N1355 C1356 1.388 . S
C1356 H1327 0.930 . S
C1356 C1351 1.391 . S
C1356 N1355 1.388 . S
Co1357 O1359 2.143 . S
Co1357 O1365 2.074 . S
Co1357 O1368 2.093 . S
Co1357 O1381 2.097 . S
Co1357 N1398 2.151 . S
Co1357 N1406 2.214 . S
Co1358 O1359 2.160 . S
Co1358 O1364 2.058 . S
Co1358 O1374 2.057 . S
Co1358 O1389 2.037 . S
Co1358 N1393 2.145 . S
Co1358 N1414 2.257 . S
O1359 Co1357 2.143 . S
O1359 Co1358 2.160 . S
C1360 O1361 1.278 . S
C1360 O1368 1.224 . S
O1361 C1360 1.278 . S
C1362 O1363 1.245 . S
C1362 O1374 1.232 . S
O1363 C1362 1.245 . S
O1364 Co1358 2.058 . S
O1364 C1390 1.269 . S
O1365 Co1357 2.074 . S
O1365 C1390 1.257 . S
H1366 C1391 0.930 . S
H1367 C1397 0.930 . S
O1368 Co1357 2.093 . S
O1368 C1360 1.224 . S
H1369 C1401 0.929 . S
H1370 C1403 0.930 . S
H1371 C1404 0.930 . S
H1372 C1402 0.929 . S
H1373 C1405 0.928 . S
O1374 Co1358 2.057 . S
O1374 C1362 1.232 . S
H1375 C1394 0.929 . S
H1376 C1395 0.929 . S
H1377 C1407 0.931 . S
H1378 C1399 0.929 . S
H1379 C1408 0.930 . S
H1380 C1400 0.931 . S
O1381 Co1357 2.097 . S
O1381 C1409 1.214 . S
H1382 C1410 0.929 . S
H1383 C1411 0.929 . S
H1384 C1412 0.930 . S
H1385 C1413 0.929 . S
H1386 C1415 0.930 . S
H1387 C1392 0.930 . S
H1388 C1396 0.930 . S
O1389 Co1358 2.037 . S
O1389 C1409 1.234 . S
C1390 O1364 1.269 . S
C1390 O1365 1.257 . S
C1391 H1366 0.930 . S
C1391 C1394 1.388 . S
C1391 C1396 1.418 . S
C1392 H1387 0.930 . S
C1392 C1395 1.404 . S
C1392 C1396 1.353 . S
N1393 Co1358 2.145 . S
N1393 C1394 1.397 . S
N1393 C1395 1.334 . S
C1394 H1375 0.929 . S
C1394 C1391 1.388 . S
C1394 N1393 1.397 . S
C1395 H1376 0.929 . S
C1395 C1392 1.404 . S
C1395 N1393 1.334 . S
C1396 H1388 0.930 . S
C1396 C1391 1.418 . S
C1396 C1392 1.353 . S
C1397 H1367 0.930 . S
C1397 N1398 1.330 . S
C1397 C1399 1.446 . S
N1398 Co1357 2.151 . S
N1398 C1397 1.330 . S
N1398 C1402 1.418 . S
C1399 H1378 0.929 . S
C1399 C1397 1.446 . S
C1399 C1400 1.332 . S
C1400 H1380 0.931 . S
C1400 C1399 1.332 . S
C1400 C1401 1.267 . S
C1401 H1369 0.929 . S
C1401 C1400 1.267 . S
C1401 C1402 1.251 . S
C1402 H1372 0.929 . S
C1402 N1398 1.418 . S
C1402 C1401 1.251 . S
C1403 H1370 0.930 . S
C1403 C1405 1.406 . S
C1403 C1408 1.261 . S
C1404 H1371 0.930 . S
C1404 N1406 1.325 . S
C1404 C1407 1.357 . S
C1405 H1373 0.928 . S
C1405 C1403 1.406 . S
C1405 N1406 1.261 . S
N1406 Co1357 2.214 . S
N1406 C1404 1.325 . S
N1406 C1405 1.261 . S
C1407 H1377 0.931 . S
C1407 C1404 1.357 . S
C1407 C1408 1.312 . S
C1408 H1379 0.930 . S
C1408 C1403 1.261 . S
C1408 C1407 1.312 . S
C1409 O1381 1.214 . S
C1409 O1389 1.234 . S
C1410 H1382 0.929 . S
C1410 C1413 1.391 . S
C1410 C1415 1.391 . S
C1411 H1383 0.929 . S
C1411 C1412 1.390 . S
C1411 N1414 1.391 . S
C1412 H1384 0.930 . S
C1412 C1411 1.390 . S
C1412 C1413 1.392 . S
C1413 H1385 0.929 . S
C1413 C1410 1.391 . S
C1413 C1412 1.392 . S
N1414 Co1358 2.257 . S
N1414 C1411 1.391 . S
N1414 C1415 1.388 . S
C1415 H1386 0.930 . S
C1415 C1410 1.391 . S
C1415 N1414 1.388 . S
C1416 C1417 1.391 . S
C1416 C1418 1.394 . S
C1416 H1432 0.931 . S
C1417 C1416 1.391 . S
C1417 C1421 1.376 . S
C1418 C1416 1.394 . S
C1418 C1419 1.369 . S
C1418 C1422 1.531 . S
C1419 C1418 1.369 . S
C1419 C1420 1.410 . S
C1419 C1427 1.503 . S
C1420 C1419 1.410 . S
C1420 C1421 1.392 . S
C1420 C1423 1.511 . S
C1421 C1417 1.376 . S
C1421 C1420 1.392 . S
C1421 H1433 0.929 . S
C1422 C1418 1.531 . S
C1422 H1434 0.960 . S
C1422 H1435 0.962 . S
C1422 H1436 0.960 . S
C1423 C1420 1.511 . S
C1423 H1437 0.961 . S
C1423 H1438 0.961 . S
C1423 H1439 0.961 . S
C1424 C1425 1.370 . S
C1424 C1426 1.363 . S
C1424 H1440 0.931 . S
C1425 C1424 1.370 . S
C1425 C1429 1.408 . S
C1426 C1424 1.363 . S
C1426 C1427 1.370 . S
C1426 C1430 1.524 . S
C1427 C1419 1.503 . S
C1427 C1426 1.370 . S
C1427 C1428 1.403 . S
C1428 C1427 1.403 . S
C1428 C1429 1.404 . S
C1428 C1431 1.539 . S
C1429 C1425 1.408 . S
C1429 C1428 1.404 . S
C1429 H1441 0.930 . S
C1430 C1426 1.524 . S
C1430 H1442 0.956 . S
C1430 H1443 0.961 . S
C1430 H1444 0.961 . S
C1431 C1428 1.539 . S
C1431 H1445 0.958 . S
C1431 H1446 0.961 . S
C1431 H1447 0.960 . S
H1432 C1416 0.931 . S
H1433 C1421 0.929 . S
H1434 C1422 0.960 . S
H1435 C1422 0.962 . S
H1436 C1422 0.960 . S
H1437 C1423 0.961 . S
H1438 C1423 0.961 . S
H1439 C1423 0.961 . S
H1440 C1424 0.931 . S
H1441 C1429 0.930 . S
H1442 C1430 0.956 . S
H1443 C1430 0.961 . S
H1444 C1430 0.961 . S
H1445 C1431 0.958 . S
H1446 C1431 0.961 . S
H1447 C1431 0.960 . S
C1448 C1449 1.391 . S
C1448 C1450 1.394 . S
C1448 H1464 0.931 . S
C1449 C1448 1.391 . S
C1449 C1453 1.376 . S
C1450 C1448 1.394 . S
C1450 C1451 1.369 . S
C1450 C1454 1.531 . S
C1451 C1450 1.369 . S
C1451 C1452 1.410 . S
C1451 C1459 1.503 1_655 S
C1452 C1451 1.410 . S
C1452 C1453 1.392 . S
C1452 C1455 1.511 . S
C1453 C1449 1.376 . S
C1453 C1452 1.392 . S
C1453 H1465 0.929 . S
C1454 C1450 1.531 . S
C1454 H1466 0.960 1_655 S
C1454 H1467 0.962 . S
C1454 H1468 0.960 . S
C1455 C1452 1.511 . S
C1455 H1469 0.961 . S
C1455 H1470 0.961 1_655 S
C1455 H1471 0.961 . S
C1456 C1457 1.370 . S
C1456 C1458 1.363 . S
C1456 H1472 0.931 . S
C1457 C1456 1.370 . S
C1457 C1461 1.408 . S
C1458 C1456 1.363 . S
C1458 C1459 1.370 . S
C1458 C1462 1.524 . S
C1459 C1451 1.503 1_455 S
C1459 C1458 1.370 . S
C1459 C1460 1.403 . S
C1460 C1459 1.403 . S
C1460 C1461 1.404 . S
C1460 C1463 1.539 . S
C1461 C1457 1.408 . S
C1461 C1460 1.404 . S
C1461 H1473 0.930 . S
C1462 C1458 1.524 . S
C1462 H1474 0.978 . S
C1462 H1475 0.961 1_455 S
C1462 H1476 0.961 . S
C1463 C1460 1.539 . S
C1463 H1477 0.958 . S
C1463 H1478 0.961 . S
C1463 H1479 0.956 . S
H1464 C1448 0.931 . S
H1465 C1453 0.929 . S
H1466 C1454 0.960 1_455 S
H1467 C1454 0.962 . S
H1468 C1454 0.960 . S
H1469 C1455 0.961 . S
H1470 C1455 0.961 1_455 S
H1471 C1455 0.961 . S
H1472 C1456 0.931 . S
H1473 C1461 0.930 . S
H1474 C1462 0.978 . S
H1475 C1462 0.961 1_655 S
H1476 C1462 0.961 . S
H1477 C1463 0.958 . S
H1478 C1463 0.961 . S
H1479 C1463 0.956 . S
C1480 C1481 1.391 . S
C1480 C1482 1.394 . S
C1480 H1496 0.931 . S
C1481 C1480 1.391 . S
C1481 C1485 1.376 . S
C1482 C1480 1.394 . S
C1482 C1483 1.369 . S
C1482 C1486 1.531 . S
C1483 C1482 1.369 . S
C1483 C1484 1.410 . S
C1483 C1491 1.503 . S
C1484 C1483 1.410 . S
C1484 C1485 1.392 . S
C1484 C1487 1.511 . S
C1485 C1481 1.376 . S
C1485 C1484 1.392 . S
C1485 H1497 0.929 . S
C1486 C1482 1.531 . S
C1486 H1498 0.960 . S
C1486 H1499 0.962 . S
C1486 H1500 0.960 . S
C1487 C1484 1.511 . S
C1487 H1501 0.961 . S
C1487 H1502 0.961 . S
C1487 H1503 0.961 . S
C1488 C1489 1.370 . S
C1488 C1490 1.363 . S
C1488 H1504 0.931 . S
C1489 C1488 1.370 . S
C1489 C1493 1.408 . S
C1490 C1488 1.363 . S
C1490 C1491 1.370 . S
C1490 C1494 1.524 . S
C1491 C1483 1.503 . S
C1491 C1490 1.370 . S
C1491 C1492 1.403 . S
C1492 C1491 1.403 . S
C1492 C1493 1.404 . S
C1492 C1495 1.539 . S
C1493 C1489 1.408 . S
C1493 C1492 1.404 . S
C1493 H1505 0.930 . S
C1494 C1490 1.524 . S
C1494 H1506 0.956 . S
C1494 H1507 0.961 . S
C1494 H1508 0.961 . S
C1495 C1492 1.539 . S
C1495 H1509 0.958 . S
C1495 H1510 0.961 . S
C1495 H1511 0.960 . S
H1496 C1480 0.931 . S
H1497 C1485 0.929 . S
H1498 C1486 0.960 . S
H1499 C1486 0.962 . S
H1500 C1486 0.960 . S
H1501 C1487 0.961 . S
H1502 C1487 0.961 . S
H1503 C1487 0.961 . S
H1504 C1488 0.931 . S
H1505 C1493 0.930 . S
H1506 C1494 0.956 . S
H1507 C1494 0.961 . S
H1508 C1494 0.961 . S
H1509 C1495 0.958 . S
H1510 C1495 0.961 . S
H1511 C1495 0.960 . S
C1512 C1513 1.391 . S
C1512 C1514 1.394 . S
C1512 H1528 0.931 . S
C1513 C1512 1.391 . S
C1513 C1517 1.376 . S
C1514 C1512 1.394 . S
C1514 C1515 1.369 . S
C1514 C1518 1.531 . S
C1515 C1514 1.369 . S
C1515 C1516 1.410 . S
C1515 C1523 1.503 1_455 S
C1516 C1515 1.410 . S
C1516 C1517 1.392 . S
C1516 C1519 1.511 . S
C1517 C1513 1.376 . S
C1517 C1516 1.392 . S
C1517 H1529 0.929 . S
C1518 C1514 1.531 . S
C1518 H1530 0.960 1_455 S
C1518 H1531 0.962 . S
C1518 H1532 0.960 . S
C1519 C1516 1.511 . S
C1519 H1533 0.961 . S
C1519 H1534 0.961 1_455 S
C1519 H1535 0.961 . S
C1520 C1521 1.370 . S
C1520 C1522 1.363 . S
C1520 H1536 0.931 . S
C1521 C1520 1.370 . S
C1521 C1525 1.408 . S
C1522 C1520 1.363 . S
C1522 C1523 1.370 . S
C1522 C1526 1.524 . S
C1523 C1515 1.503 1_655 S
C1523 C1522 1.370 . S
C1523 C1524 1.403 . S
C1524 C1523 1.403 . S
C1524 C1525 1.404 . S
C1524 C1527 1.539 . S
C1525 C1521 1.408 . S
C1525 C1524 1.404 . S
C1525 H1537 0.930 . S
C1526 C1522 1.524 . S
C1526 H1538 0.956 . S
C1526 H1539 0.961 1_655 S
C1526 H1540 0.961 . S
C1527 C1524 1.539 . S
C1527 H1541 0.958 . S
C1527 H1542 0.961 . S
C1527 H1543 0.984 . S
H1528 C1512 0.931 . S
H1529 C1517 0.929 . S
H1530 C1518 0.960 1_655 S
H1531 C1518 0.962 . S
H1532 C1518 0.960 . S
H1533 C1519 0.961 . S
H1534 C1519 0.961 1_655 S
H1535 C1519 0.961 . S
H1536 C1520 0.931 . S
H1537 C1525 0.930 . S
H1538 C1526 0.956 . S
H1539 C1526 0.961 1_455 S
H1540 C1526 0.961 . S
H1541 C1527 0.958 . S
H1542 C1527 0.961 . S
H1543 C1527 0.984 . S
C1544 C1545 1.391 . S
C1544 C1546 1.394 . S
C1544 H1560 0.931 . S
C1545 C1544 1.391 . S
C1545 C1549 1.376 . S
C1546 C1544 1.394 . S
C1546 C1547 1.369 . S
C1546 C1550 1.531 . S
C1547 C1546 1.369 . S
C1547 C1548 1.410 . S
C1547 C1555 1.503 . S
C1548 C1547 1.410 . S
C1548 C1549 1.392 . S
C1548 C1551 1.511 . S
C1549 C1545 1.376 . S
C1549 C1548 1.392 . S
C1549 H1561 0.929 . S
C1550 C1546 1.531 . S
C1550 H1562 0.960 . S
C1550 H1563 0.962 . S
C1550 H1564 0.960 . S
C1551 C1548 1.511 . S
C1551 H1565 0.961 . S
C1551 H1566 0.961 . S
C1551 H1567 0.961 . S
C1552 C1553 1.370 . S
C1552 C1554 1.363 . S
C1552 H1568 0.931 . S
C1553 C1552 1.370 . S
C1553 C1557 1.408 . S
C1554 C1552 1.363 . S
C1554 C1555 1.370 . S
C1554 C1558 1.524 . S
C1555 C1547 1.503 . S
C1555 C1554 1.370 . S
C1555 C1556 1.403 . S
C1556 C1555 1.403 . S
C1556 C1557 1.404 . S
C1556 C1559 1.539 . S
C1557 C1553 1.408 . S
C1557 C1556 1.404 . S
C1557 H1569 0.930 . S
C1558 C1554 1.524 . S
C1558 H1570 0.956 . S
C1558 H1571 0.961 . S
C1558 H1572 0.961 . S
C1559 C1556 1.539 . S
C1559 H1573 0.958 . S
C1559 H1574 0.961 . S
C1559 H1575 0.960 . S
H1560 C1544 0.931 . S
H1561 C1549 0.929 . S
H1562 C1550 0.960 . S
H1563 C1550 0.962 . S
H1564 C1550 0.960 . S
H1565 C1551 0.961 . S
H1566 C1551 0.961 . S
H1567 C1551 0.961 . S
H1568 C1552 0.931 . S
H1569 C1557 0.930 . S
H1570 C1558 0.956 . S
H1571 C1558 0.961 . S
H1572 C1558 0.961 . S
H1573 C1559 0.958 . S
H1574 C1559 0.961 . S
H1575 C1559 0.960 . S
C1576 C1577 1.391 . S
C1576 C1578 1.394 . S
C1576 H1592 0.931 . S
C1577 C1576 1.391 . S
C1577 C1581 1.376 . S
C1578 C1576 1.394 . S
C1578 C1579 1.369 . S
C1578 C1582 1.531 . S
C1579 C1578 1.369 . S
C1579 C1580 1.410 . S
C1579 C1587 1.503 1_655 S
C1580 C1579 1.410 . S
C1580 C1581 1.392 . S
C1580 C1583 1.511 . S
C1581 C1577 1.376 . S
C1581 C1580 1.392 . S
C1581 H1593 0.929 . S
C1582 C1578 1.531 . S
C1582 H1594 0.960 1_655 S
C1582 H1595 0.962 . S
C1582 H1596 0.960 . S
C1583 C1580 1.511 . S
C1583 H1597 0.961 . S
C1583 H1598 0.961 1_655 S
C1583 H1599 0.961 . S
C1584 C1585 1.370 . S
C1584 C1586 1.363 . S
C1584 H1600 0.931 . S
C1585 C1584 1.370 . S
C1585 C1589 1.408 . S
C1586 C1584 1.363 . S
C1586 C1587 1.370 . S
C1586 C1590 1.524 . S
C1587 C1579 1.503 1_455 S
C1587 C1586 1.370 . S
C1587 C1588 1.403 . S
C1588 C1587 1.403 . S
C1588 C1589 1.404 . S
C1588 C1591 1.539 . S
C1589 C1585 1.408 . S
C1589 C1588 1.404 . S
C1589 H1601 0.930 . S
C1590 C1586 1.524 . S
C1590 H1602 0.956 . S
C1590 H1603 0.961 1_455 S
C1590 H1604 0.961 . S
C1591 C1588 1.539 . S
C1591 H1605 0.958 . S
C1591 H1606 0.961 . S
C1591 H1607 0.989 . S
H1592 C1576 0.931 . S
H1593 C1581 0.929 . S
H1594 C1582 0.960 1_455 S
H1595 C1582 0.962 . S
H1596 C1582 0.960 . S
H1597 C1583 0.961 . S
H1598 C1583 0.961 1_455 S
H1599 C1583 0.961 . S
H1600 C1584 0.931 . S
H1601 C1589 0.930 . S
H1602 C1590 0.956 . S
H1603 C1590 0.961 1_655 S
H1604 C1590 0.961 . S
H1605 C1591 0.958 . S
H1606 C1591 0.961 . S
H1607 C1591 0.989 . S
C1608 C1609 1.391 . S
C1608 C1610 1.394 . S
C1608 H1624 0.931 . S
C1609 C1608 1.391 . S
C1609 C1613 1.376 . S
C1610 C1608 1.394 . S
C1610 C1611 1.369 . S
C1610 C1614 1.531 . S
C1611 C1610 1.369 . S
C1611 C1612 1.410 . S
C1611 C1619 1.503 . S
C1612 C1611 1.410 . S
C1612 C1613 1.392 . S
C1612 C1615 1.511 . S
C1613 C1609 1.376 . S
C1613 C1612 1.392 . S
C1613 H1625 0.929 . S
C1614 C1610 1.531 . S
C1614 H1626 0.960 . S
C1614 H1627 0.962 . S
C1614 H1628 0.960 . S
C1615 C1612 1.511 . S
C1615 H1629 0.961 . S
C1615 H1630 0.961 . S
C1615 H1631 0.961 . S
C1616 C1617 1.370 . S
C1616 C1618 1.363 . S
C1616 H1632 0.931 . S
C1617 C1616 1.370 . S
C1617 C1621 1.408 . S
C1618 C1616 1.363 . S
C1618 C1619 1.370 . S
C1618 C1622 1.524 . S
C1619 C1611 1.503 . S
C1619 C1618 1.370 . S
C1619 C1620 1.403 . S
C1620 C1619 1.403 . S
C1620 C1621 1.404 . S
C1620 C1623 1.539 . S
C1621 C1617 1.408 . S
C1621 C1620 1.404 . S
C1621 H1633 0.930 . S
C1622 C1618 1.524 . S
C1622 H1634 0.956 . S
C1622 H1635 0.961 . S
C1622 H1636 0.961 . S
C1623 C1620 1.539 . S
C1623 H1637 0.958 . S
C1623 H1638 0.961 . S
C1623 H1639 0.960 . S
H1624 C1608 0.931 . S
H1625 C1613 0.929 . S
H1626 C1614 0.960 . S
H1627 C1614 0.962 . S
H1628 C1614 0.960 . S
H1629 C1615 0.961 . S
H1630 C1615 0.961 . S
H1631 C1615 0.961 . S
H1632 C1616 0.931 . S
H1633 C1621 0.930 . S
H1634 C1622 0.956 . S
H1635 C1622 0.961 . S
H1636 C1622 0.961 . S
H1637 C1623 0.958 . S
H1638 C1623 0.961 . S
H1639 C1623 0.960 . S
C1640 C1641 1.391 . S
C1640 C1642 1.394 . S
C1640 H1656 0.931 . S
C1641 C1640 1.391 . S
C1641 C1645 1.376 . S
C1642 C1640 1.394 . S
C1642 C1643 1.369 . S
C1642 C1646 1.531 . S
C1643 C1642 1.369 . S
C1643 C1644 1.410 . S
C1643 C1651 1.503 1_655 S
C1644 C1643 1.410 . S
C1644 C1645 1.392 . S
C1644 C1647 1.511 . S
C1645 C1641 1.376 . S
C1645 C1644 1.392 . S
C1645 H1657 0.929 . S
C1646 C1642 1.531 . S
C1646 H1658 0.960 1_655 S
C1646 H1659 0.962 . S
C1646 H1660 0.960 . S
C1647 C1644 1.511 . S
C1647 H1661 0.961 . S
C1647 H1662 0.961 1_655 S
C1647 H1663 0.961 . S
C1648 C1649 1.370 . S
C1648 C1650 1.363 . S
C1648 H1664 0.931 . S
C1649 C1648 1.370 . S
C1649 C1653 1.408 . S
C1650 C1648 1.363 . S
C1650 C1651 1.370 . S
C1650 C1654 1.524 . S
C1651 C1643 1.503 1_455 S
C1651 C1650 1.370 . S
C1651 C1652 1.403 . S
C1652 C1651 1.403 . S
C1652 C1653 1.404 . S
C1652 C1655 1.539 . S
C1653 C1649 1.408 . S
C1653 C1652 1.404 . S
C1653 H1665 0.930 . S
C1654 C1650 1.524 . S
C1654 H1666 0.979 . S
C1654 H1667 0.961 1_455 S
C1654 H1668 0.961 . S
C1655 C1652 1.539 . S
C1655 H1669 0.958 . S
C1655 H1670 0.961 . S
C1655 H1671 0.969 . S
H1656 C1640 0.931 . S
H1657 C1645 0.929 . S
H1658 C1646 0.960 1_455 S
H1659 C1646 0.962 . S
H1660 C1646 0.960 . S
H1661 C1647 0.961 . S
H1662 C1647 0.961 1_455 S
H1663 C1647 0.961 . S
H1664 C1648 0.931 . S
H1665 C1653 0.930 . S
H1666 C1654 0.979 . S
H1667 C1654 0.961 1_655 S
H1668 C1654 0.961 . S
H1669 C1655 0.958 . S
H1670 C1655 0.961 . S
H1671 C1655 0.969 . S
C1672 C1673 1.391 . S
C1672 C1674 1.394 . S
C1672 H1688 0.931 . S
C1673 C1672 1.391 . S
C1673 C1677 1.376 . S
C1674 C1672 1.394 . S
C1674 C1675 1.369 . S
C1674 C1678 1.531 . S
C1675 C1674 1.369 . S
C1675 C1676 1.410 . S
C1675 C1683 1.503 . S
C1676 C1675 1.410 . S
C1676 C1677 1.392 . S
C1676 C1679 1.511 . S
C1677 C1673 1.376 . S
C1677 C1676 1.392 . S
C1677 H1689 0.929 . S
C1678 C1674 1.531 . S
C1678 H1690 0.960 . S
C1678 H1691 0.962 . S
C1678 H1692 0.960 . S
C1679 C1676 1.511 . S
C1679 H1693 0.961 . S
C1679 H1694 0.961 . S
C1679 H1695 0.961 . S
C1680 C1681 1.370 . S
C1680 C1682 1.363 . S
C1680 H1696 0.931 . S
C1681 C1680 1.370 . S
C1681 C1685 1.408 . S
C1682 C1680 1.363 . S
C1682 C1683 1.370 . S
C1682 C1686 1.524 . S
C1683 C1675 1.503 . S
C1683 C1682 1.370 . S
C1683 C1684 1.403 . S
C1684 C1683 1.403 . S
C1684 C1685 1.404 . S
C1684 C1687 1.539 . S
C1685 C1681 1.408 . S
C1685 C1684 1.404 . S
C1685 H1697 0.930 . S
C1686 C1682 1.524 . S
C1686 H1698 0.956 . S
C1686 H1699 0.961 . S
C1686 H1700 0.961 . S
C1687 C1684 1.539 . S
C1687 H1701 0.958 . S
C1687 H1702 0.961 . S
C1687 H1703 0.960 . S
H1688 C1672 0.931 . S
H1689 C1677 0.929 . S
H1690 C1678 0.960 . S
H1691 C1678 0.962 . S
H1692 C1678 0.960 . S
H1693 C1679 0.961 . S
H1694 C1679 0.961 . S
H1695 C1679 0.961 . S
H1696 C1680 0.931 . S
H1697 C1685 0.930 . S
H1698 C1686 0.956 . S
H1699 C1686 0.961 . S
H1700 C1686 0.961 . S
H1701 C1687 0.958 . S
H1702 C1687 0.961 . S
H1703 C1687 0.960 . S
C1704 C1705 1.391 . S
C1704 C1706 1.394 . S
C1704 H1720 0.931 . S
C1705 C1704 1.391 . S
C1705 C1709 1.376 . S
C1706 C1704 1.394 . S
C1706 C1707 1.369 . S
C1706 C1710 1.531 . S
C1707 C1706 1.369 . S
C1707 C1708 1.410 . S
C1707 C1715 1.503 1_556 S
C1708 C1707 1.410 . S
C1708 C1709 1.392 . S
C1708 C1711 1.511 . S
C1709 C1705 1.376 . S
C1709 C1708 1.392 . S
C1709 H1721 0.929 . S
C1710 C1706 1.531 . S
C1710 H1722 0.960 1_556 S
C1710 H1723 0.962 . S
C1710 H1724 0.960 . S
C1711 C1708 1.511 . S
C1711 H1725 0.961 . S
C1711 H1726 0.961 1_556 S
C1711 H1727 0.961 . S
C1712 C1713 1.370 . S
C1712 C1714 1.363 . S
C1712 H1728 0.931 . S
C1713 C1712 1.370 . S
C1713 C1717 1.408 . S
C1714 C1712 1.363 . S
C1714 C1715 1.370 . S
C1714 C1718 1.524 . S
C1715 C1707 1.503 1_554 S
C1715 C1714 1.370 . S
C1715 C1716 1.403 . S
C1716 C1715 1.403 . S
C1716 C1717 1.404 . S
C1716 C1719 1.539 . S
C1717 C1713 1.408 . S
C1717 C1716 1.404 . S
C1717 H1729 0.930 . S
C1718 C1714 1.524 . S
C1718 H1730 0.981 . S
C1718 H1731 0.961 1_554 S
C1718 H1732 0.961 . S
C1719 C1716 1.539 . S
C1719 H1733 0.958 . S
C1719 H1734 0.961 . S
C1719 H1735 0.971 . S
H1720 C1704 0.931 . S
H1721 C1709 0.929 . S
H1722 C1710 0.960 1_554 S
H1723 C1710 0.962 . S
H1724 C1710 0.960 . S
H1725 C1711 0.961 . S
H1726 C1711 0.961 1_554 S
H1727 C1711 0.961 . S
H1728 C1712 0.931 . S
H1729 C1717 0.930 . S
H1730 C1718 0.981 . S
H1731 C1718 0.961 1_556 S
H1732 C1718 0.961 . S
H1733 C1719 0.958 . S
H1734 C1719 0.961 . S
H1735 C1719 0.971 . S
C1736 C1737 1.391 . S
C1736 C1738 1.394 . S
C1736 H1752 0.931 . S
C1737 C1736 1.391 . S
C1737 C1741 1.376 . S
C1738 C1736 1.394 . S
C1738 C1739 1.369 . S
C1738 C1742 1.531 . S
C1739 C1738 1.369 . S
C1739 C1740 1.410 . S
C1739 C1747 1.503 . S
C1740 C1739 1.410 . S
C1740 C1741 1.392 . S
C1740 C1743 1.511 . S
C1741 C1737 1.376 . S
C1741 C1740 1.392 . S
C1741 H1753 0.929 . S
C1742 C1738 1.531 . S
C1742 H1754 0.960 . S
C1742 H1755 0.962 . S
C1742 H1756 0.960 . S
C1743 C1740 1.511 . S
C1743 H1757 0.961 . S
C1743 H1758 0.961 . S
C1743 H1759 0.961 . S
C1744 C1745 1.370 . S
C1744 C1746 1.363 . S
C1744 H1760 0.931 . S
C1745 C1744 1.370 . S
C1745 C1749 1.408 . S
C1746 C1744 1.363 . S
C1746 C1747 1.370 . S
C1746 C1750 1.524 . S
C1747 C1739 1.503 . S
C1747 C1746 1.370 . S
C1747 C1748 1.403 . S
C1748 C1747 1.403 . S
C1748 C1749 1.404 . S
C1748 C1751 1.539 . S
C1749 C1745 1.408 . S
C1749 C1748 1.404 . S
C1749 H1761 0.930 . S
C1750 C1746 1.524 . S
C1750 H1762 0.956 . S
C1750 H1763 0.961 . S
C1750 H1764 0.961 . S
C1751 C1748 1.539 . S
C1751 H1765 0.958 . S
C1751 H1766 0.961 . S
C1751 H1767 0.960 . S
H1752 C1736 0.931 . S
H1753 C1741 0.929 . S
H1754 C1742 0.960 . S
H1755 C1742 0.962 . S
H1756 C1742 0.960 . S
H1757 C1743 0.961 . S
H1758 C1743 0.961 . S
H1759 C1743 0.961 . S
H1760 C1744 0.931 . S
H1761 C1749 0.930 . S
H1762 C1750 0.956 . S
H1763 C1750 0.961 . S
H1764 C1750 0.961 . S
H1765 C1751 0.958 . S
H1766 C1751 0.961 . S
H1767 C1751 0.960 . S
C1768 C1769 1.391 . S
C1768 C1770 1.394 . S
C1768 H1784 0.931 . S
C1769 C1768 1.391 . S
C1769 C1773 1.376 . S
C1770 C1768 1.394 . S
C1770 C1771 1.369 . S
C1770 C1774 1.531 . S
C1771 C1770 1.369 . S
C1771 C1772 1.410 . S
C1771 C1779 1.503 1_554 S
C1772 C1771 1.410 . S
C1772 C1773 1.392 . S
C1772 C1775 1.511 . S
C1773 C1769 1.376 . S
C1773 C1772 1.392 . S
C1773 H1785 0.929 . S
C1774 C1770 1.531 . S
C1774 H1786 0.960 1_554 S
C1774 H1787 0.962 . S
C1774 H1788 0.960 . S
C1775 C1772 1.511 . S
C1775 H1789 0.961 . S
C1775 H1790 0.961 1_554 S
C1775 H1791 0.961 . S
C1776 C1777 1.370 . S
C1776 C1778 1.363 . S
C1776 H1792 0.931 . S
C1777 C1776 1.370 . S
C1777 C1781 1.408 . S
C1778 C1776 1.363 . S
C1778 C1779 1.370 . S
C1778 C1782 1.524 . S
C1779 C1771 1.503 1_556 S
C1779 C1778 1.370 . S
C1779 C1780 1.403 . S
C1780 C1779 1.403 . S
C1780 C1781 1.404 . S
C1780 C1783 1.539 . S
C1781 C1777 1.408 . S
C1781 C1780 1.404 . S
C1781 H1793 0.930 . S
C1782 C1778 1.524 . S
C1782 H1794 0.956 . S
C1782 H1795 0.961 1_556 S
C1782 H1796 0.961 . S
C1783 C1780 1.539 . S
C1783 H1797 0.958 . S
C1783 H1798 0.961 . S
C1783 H1799 0.965 . S
H1784 C1768 0.931 . S
H1785 C1773 0.929 . S
H1786 C1774 0.960 1_556 S
H1787 C1774 0.962 . S
H1788 C1774 0.960 . S
H1789 C1775 0.961 . S
H1790 C1775 0.961 1_556 S
H1791 C1775 0.961 . S
H1792 C1776 0.931 . S
H1793 C1781 0.930 . S
H1794 C1782 0.956 . S
H1795 C1782 0.961 1_554 S
H1796 C1782 0.961 . S
H1797 C1783 0.958 . S
H1798 C1783 0.961 . S
H1799 C1783 0.965 . S
C1800 C1801 1.391 . S
C1800 C1802 1.394 . S
C1800 H1816 0.931 . S
C1801 C1800 1.391 . S
C1801 C1805 1.376 . S
C1802 C1800 1.394 . S
C1802 C1803 1.369 . S
C1802 C1806 1.531 . S
C1803 C1802 1.369 . S
C1803 C1804 1.410 . S
C1803 C1811 1.503 . S
C1804 C1803 1.410 . S
C1804 C1805 1.392 . S
C1804 C1807 1.511 . S
C1805 C1801 1.376 . S
C1805 C1804 1.392 . S
C1805 H1817 0.929 . S
C1806 C1802 1.531 . S
C1806 H1818 0.960 . S
C1806 H1819 0.962 . S
C1806 H1820 0.960 . S
C1807 C1804 1.511 . S
C1807 H1821 0.961 . S
C1807 H1822 0.961 . S
C1807 H1823 0.961 . S
C1808 C1809 1.370 . S
C1808 C1810 1.363 . S
C1808 H1824 0.931 . S
C1809 C1808 1.370 . S
C1809 C1813 1.408 . S
C1810 C1808 1.363 . S
C1810 C1811 1.370 . S
C1810 C1814 1.524 . S
C1811 C1803 1.503 . S
C1811 C1810 1.370 . S
C1811 C1812 1.403 . S
C1812 C1811 1.403 . S
C1812 C1813 1.404 . S
C1812 C1815 1.539 . S
C1813 C1809 1.408 . S
C1813 C1812 1.404 . S
C1813 H1825 0.930 . S
C1814 C1810 1.524 . S
C1814 H1826 0.956 . S
C1814 H1827 0.961 . S
C1814 H1828 0.961 . S
C1815 C1812 1.539 . S
C1815 H1829 0.958 . S
C1815 H1830 0.961 . S
C1815 H1831 0.960 . S
H1816 C1800 0.931 . S
H1817 C1805 0.929 . S
H1818 C1806 0.960 . S
H1819 C1806 0.962 . S
H1820 C1806 0.960 . S
H1821 C1807 0.961 . S
H1822 C1807 0.961 . S
H1823 C1807 0.961 . S
H1824 C1808 0.931 . S
H1825 C1813 0.930 . S
H1826 C1814 0.956 . S
H1827 C1814 0.961 . S
H1828 C1814 0.961 . S
H1829 C1815 0.958 . S
H1830 C1815 0.961 . S
H1831 C1815 0.960 . S
C1832 C1833 1.391 . S
C1832 C1834 1.394 . S
C1832 H1848 0.931 . S
C1833 C1832 1.391 . S
C1833 C1837 1.376 . S
C1834 C1832 1.394 . S
C1834 C1835 1.369 . S
C1834 C1838 1.531 . S
C1835 C1834 1.369 . S
C1835 C1836 1.410 . S
C1835 C1843 1.503 1_554 S
C1836 C1835 1.410 . S
C1836 C1837 1.392 . S
C1836 C1839 1.511 . S
C1837 C1833 1.376 . S
C1837 C1836 1.392 . S
C1837 H1849 0.929 . S
C1838 C1834 1.531 . S
C1838 H1850 0.960 1_554 S
C1838 H1851 0.962 . S
C1838 H1852 0.960 . S
C1839 C1836 1.511 . S
C1839 H1853 0.961 . S
C1839 H1854 0.961 1_554 S
C1839 H1855 0.961 . S
C1840 C1841 1.370 . S
C1840 C1842 1.363 . S
C1840 H1856 0.931 . S
C1841 C1840 1.370 . S
C1841 C1845 1.408 . S
C1842 C1840 1.363 . S
C1842 C1843 1.370 . S
C1842 C1846 1.524 . S
C1843 C1835 1.503 1_556 S
C1843 C1842 1.370 . S
C1843 C1844 1.403 . S
C1844 C1843 1.403 . S
C1844 C1845 1.404 . S
C1844 C1847 1.539 . S
C1845 C1841 1.408 . S
C1845 C1844 1.404 . S
C1845 H1857 0.930 . S
C1846 C1842 1.524 . S
C1846 H1858 0.956 . S
C1846 H1859 0.961 1_556 S
C1846 H1860 0.961 . S
C1847 C1844 1.539 . S
C1847 H1861 0.958 . S
C1847 H1862 0.961 . S
C1847 H1863 0.966 . S
H1848 C1832 0.931 . S
H1849 C1837 0.929 . S
H1850 C1838 0.960 1_556 S
H1851 C1838 0.962 . S
H1852 C1838 0.960 . S
H1853 C1839 0.961 . S
H1854 C1839 0.961 1_556 S
H1855 C1839 0.961 . S
H1856 C1840 0.931 . S
H1857 C1845 0.930 . S
H1858 C1846 0.956 . S
H1859 C1846 0.961 1_554 S
H1860 C1846 0.961 . S
H1861 C1847 0.958 . S
H1862 C1847 0.961 . S
H1863 C1847 0.966 . S
C1864 C1865 1.391 . S
C1864 C1866 1.394 . S
C1864 H1880 0.931 . S
C1865 C1864 1.391 . S
C1865 C1869 1.376 . S
C1866 C1864 1.394 . S
C1866 C1867 1.369 . S
C1866 C1870 1.531 . S
C1867 C1866 1.369 . S
C1867 C1868 1.410 . S
C1867 C1875 1.503 . S
C1868 C1867 1.410 . S
C1868 C1869 1.392 . S
C1868 C1871 1.511 . S
C1869 C1865 1.376 . S
C1869 C1868 1.392 . S
C1869 H1881 0.929 . S
C1870 C1866 1.531 . S
C1870 H1882 0.960 . S
C1870 H1883 0.962 . S
C1870 H1884 0.960 . S
C1871 C1868 1.511 . S
C1871 H1885 0.961 . S
C1871 H1886 0.961 . S
C1871 H1887 0.961 . S
C1872 C1873 1.370 . S
C1872 C1874 1.363 . S
C1872 H1888 0.931 . S
C1873 C1872 1.370 . S
C1873 C1877 1.408 . S
C1874 C1872 1.363 . S
C1874 C1875 1.370 . S
C1874 C1878 1.524 . S
C1875 C1867 1.503 . S
C1875 C1874 1.370 . S
C1875 C1876 1.403 . S
C1876 C1875 1.403 . S
C1876 C1877 1.404 . S
C1876 C1879 1.539 . S
C1877 C1873 1.408 . S
C1877 C1876 1.404 . S
C1877 H1889 0.930 . S
C1878 C1874 1.524 . S
C1878 H1890 0.956 . S
C1878 H1891 0.961 . S
C1878 H1892 0.961 . S
C1879 C1876 1.539 . S
C1879 H1893 0.958 . S
C1879 H1894 0.961 . S
C1879 H1895 0.960 . S
H1880 C1864 0.931 . S
H1881 C1869 0.929 . S
H1882 C1870 0.960 . S
H1883 C1870 0.962 . S
H1884 C1870 0.960 . S
H1885 C1871 0.961 . S
H1886 C1871 0.961 . S
H1887 C1871 0.961 . S
H1888 C1872 0.931 . S
H1889 C1877 0.930 . S
H1890 C1878 0.956 . S
H1891 C1878 0.961 . S
H1892 C1878 0.961 . S
H1893 C1879 0.958 . S
H1894 C1879 0.961 . S
H1895 C1879 0.960 . S
C1896 C1897 1.391 . S
C1896 C1898 1.394 . S
C1896 H1912 0.931 . S
C1897 C1896 1.391 . S
C1897 C1901 1.376 . S
C1898 C1896 1.394 . S
C1898 C1899 1.369 . S
C1898 C1902 1.531 . S
C1899 C1898 1.369 . S
C1899 C1900 1.410 . S
C1899 C1907 1.503 1_554 S
C1900 C1899 1.410 . S
C1900 C1901 1.392 . S
C1900 C1903 1.511 . S
C1901 C1897 1.376 . S
C1901 C1900 1.392 . S
C1901 H1913 0.929 . S
C1902 C1898 1.531 . S
C1902 H1914 0.960 1_554 S
C1902 H1915 0.962 . S
C1902 H1916 0.960 . S
C1903 C1900 1.511 . S
C1903 H1917 0.961 . S
C1903 H1918 0.961 1_554 S
C1903 H1919 0.961 . S
C1904 C1905 1.370 . S
C1904 C1906 1.363 . S
C1904 H1920 0.931 . S
C1905 C1904 1.370 . S
C1905 C1909 1.408 . S
C1906 C1904 1.363 . S
C1906 C1907 1.370 . S
C1906 C1910 1.524 . S
C1907 C1899 1.503 1_556 S
C1907 C1906 1.370 . S
C1907 C1908 1.403 . S
C1908 C1907 1.403 . S
C1908 C1909 1.404 . S
C1908 C1911 1.539 . S
C1909 C1905 1.408 . S
C1909 C1908 1.404 . S
C1909 H1921 0.930 . S
C1910 C1906 1.524 . S
C1910 H1922 0.956 . S
C1910 H1923 0.961 1_556 S
C1910 H1924 0.961 . S
C1911 C1908 1.539 . S
C1911 H1925 0.958 . S
C1911 H1926 0.961 . S
C1911 H1927 0.976 . S
H1912 C1896 0.931 . S
H1913 C1901 0.929 . S
H1914 C1902 0.960 1_556 S
H1915 C1902 0.962 . S
H1916 C1902 0.960 . S
H1917 C1903 0.961 . S
H1918 C1903 0.961 1_556 S
H1919 C1903 0.961 . S
H1920 C1904 0.931 . S
H1921 C1909 0.930 . S
H1922 C1910 0.956 . S
H1923 C1910 0.961 1_554 S
H1924 C1910 0.961 . S
H1925 C1911 0.958 . S
H1926 C1911 0.961 . S
H1927 C1911 0.976 . S
C1928 C1929 1.391 . S
C1928 C1930 1.394 . S
C1928 H1944 0.931 . S
C1929 C1928 1.391 . S
C1929 C1933 1.376 . S
C1930 C1928 1.394 . S
C1930 C1931 1.369 . S
C1930 C1934 1.531 . S
C1931 C1930 1.369 . S
C1931 C1932 1.410 . S
C1931 C1939 1.503 . S
C1932 C1931 1.410 . S
C1932 C1933 1.392 . S
C1932 C1935 1.511 . S
C1933 C1929 1.376 . S
C1933 C1932 1.392 . S
C1933 H1945 0.929 . S
C1934 C1930 1.531 . S
C1934 H1946 0.960 . S
C1934 H1947 0.962 . S
C1934 H1948 0.960 . S
C1935 C1932 1.511 . S
C1935 H1949 0.961 . S
C1935 H1950 0.961 . S
C1935 H1951 0.961 . S
C1936 C1937 1.370 . S
C1936 C1938 1.363 . S
C1936 H1952 0.931 . S
C1937 C1936 1.370 . S
C1937 C1941 1.408 . S
C1938 C1936 1.363 . S
C1938 C1939 1.370 . S
C1938 C1942 1.524 . S
C1939 C1931 1.503 . S
C1939 C1938 1.370 . S
C1939 C1940 1.403 . S
C1940 C1939 1.403 . S
C1940 C1941 1.404 . S
C1940 C1943 1.539 . S
C1941 C1937 1.408 . S
C1941 C1940 1.404 . S
C1941 H1953 0.930 . S
C1942 C1938 1.524 . S
C1942 H1954 0.956 . S
C1942 H1955 0.961 . S
C1942 H1956 0.961 . S
C1943 C1940 1.539 . S
C1943 H1957 0.958 . S
C1943 H1958 0.961 . S
C1943 H1959 0.960 . S
H1944 C1928 0.931 . S
H1945 C1933 0.929 . S
H1946 C1934 0.960 . S
H1947 C1934 0.962 . S
H1948 C1934 0.960 . S
H1949 C1935 0.961 . S
H1950 C1935 0.961 . S
H1951 C1935 0.961 . S
H1952 C1936 0.931 . S
H1953 C1941 0.930 . S
H1954 C1942 0.956 . S
H1955 C1942 0.961 . S
H1956 C1942 0.961 . S
H1957 C1943 0.958 . S
H1958 C1943 0.961 . S
H1959 C1943 0.960 . S
C1960 C1961 1.391 . S
C1960 C1962 1.394 . S
C1960 H1976 0.931 . S
C1961 C1960 1.391 . S
C1961 C1965 1.376 . S
C1962 C1960 1.394 . S
C1962 C1963 1.369 . S
C1962 C1966 1.531 . S
C1963 C1962 1.369 . S
C1963 C1964 1.410 . S
C1963 C1971 1.503 . S
C1964 C1963 1.410 . S
C1964 C1965 1.392 . S
C1964 C1967 1.511 . S
C1965 C1961 1.376 . S
C1965 C1964 1.392 . S
C1965 H1977 0.929 . S
C1966 C1962 1.531 . S
C1966 H1978 0.960 . S
C1966 H1979 0.962 . S
C1966 H1980 0.960 . S
C1967 C1964 1.511 . S
C1967 H1981 0.961 . S
C1967 H1982 0.961 . S
C1967 H1983 0.961 . S
C1968 C1969 1.370 . S
C1968 C1970 1.363 . S
C1968 H1984 0.931 . S
C1969 C1968 1.370 . S
C1969 C1973 1.408 . S
C1970 C1968 1.363 . S
C1970 C1971 1.370 . S
C1970 C1974 1.524 . S
C1971 C1963 1.503 . S
C1971 C1970 1.370 . S
C1971 C1972 1.403 . S
C1972 C1971 1.403 . S
C1972 C1973 1.404 . S
C1972 C1975 1.539 . S
C1973 C1969 1.408 . S
C1973 C1972 1.404 . S
C1973 H1985 0.930 . S
C1974 C1970 1.524 . S
C1974 H1986 0.956 . S
C1974 H1987 0.961 . S
C1974 H1988 0.961 . S
C1975 C1972 1.539 . S
C1975 H1989 0.958 . S
C1975 H1990 0.961 . S
C1975 H1991 0.960 . S
H1976 C1960 0.931 . S
H1977 C1965 0.929 . S
H1978 C1966 0.960 . S
H1979 C1966 0.962 . S
H1980 C1966 0.960 . S
H1981 C1967 0.961 . S
H1982 C1967 0.961 . S
H1983 C1967 0.961 . S
H1984 C1968 0.931 . S
H1985 C1973 0.930 . S
H1986 C1974 0.956 . S
H1987 C1974 0.961 . S
H1988 C1974 0.961 . S
H1989 C1975 0.958 . S
H1990 C1975 0.961 . S
H1991 C1975 0.960 . S
C1992 C1993 1.391 . S
C1992 C1994 1.394 . S
C1992 H2008 0.931 . S
C1993 C1992 1.391 . S
C1993 C1997 1.376 . S
C1994 C1992 1.394 . S
C1994 C1995 1.369 . S
C1994 C1998 1.531 . S
C1995 C1994 1.369 . S
C1995 C1996 1.410 . S
C1995 C2003 1.503 1_565 S
C1996 C1995 1.410 . S
C1996 C1997 1.392 . S
C1996 C1999 1.511 . S
C1997 C1993 1.376 . S
C1997 C1996 1.392 . S
C1997 H2009 0.929 . S
C1998 C1994 1.531 . S
C1998 H2010 0.960 1_565 S
C1998 H2011 0.962 . S
C1998 H2012 0.960 . S
C1999 C1996 1.511 . S
C1999 H2013 0.961 . S
C1999 H2014 0.961 1_565 S
C1999 H2015 0.961 . S
C2000 C2001 1.370 . S
C2000 C2002 1.363 . S
C2000 H2016 0.931 . S
C2001 C2000 1.370 . S
C2001 C2005 1.408 . S
C2002 C2000 1.363 . S
C2002 C2003 1.370 . S
C2002 C2006 1.524 . S
C2003 C1995 1.503 1_545 S
C2003 C2002 1.370 . S
C2003 C2004 1.403 . S
C2004 C2003 1.403 . S
C2004 C2005 1.404 . S
C2004 C2007 1.539 . S
C2005 C2001 1.408 . S
C2005 C2004 1.404 . S
C2005 H2017 0.930 . S
C2006 C2002 1.524 . S
C2006 H2018 0.981 . S
C2006 H2019 0.961 1_545 S
C2006 H2020 0.961 . S
C2007 C2004 1.539 . S
C2007 H2021 0.958 . S
C2007 H2022 0.961 . S
C2007 H2023 0.955 . S
H2008 C1992 0.931 . S
H2009 C1997 0.929 . S
H2010 C1998 0.960 1_545 S
H2011 C1998 0.962 . S
H2012 C1998 0.960 . S
H2013 C1999 0.961 . S
H2014 C1999 0.961 1_545 S
H2015 C1999 0.961 . S
H2016 C2000 0.931 . S
H2017 C2005 0.930 . S
H2018 C2006 0.981 . S
H2019 C2006 0.961 1_565 S
H2020 C2006 0.961 . S
H2021 C2007 0.958 . S
H2022 C2007 0.961 . S
H2023 C2007 0.955 . S
C2024 C2025 1.391 . S
C2024 C2026 1.394 . S
C2024 H2040 0.931 . S
C2025 C2024 1.391 . S
C2025 C2029 1.376 . S
C2026 C2024 1.394 . S
C2026 C2027 1.369 . S
C2026 C2030 1.531 . S
C2027 C2026 1.369 . S
C2027 C2028 1.410 . S
C2027 C2035 1.503 . S
C2028 C2027 1.410 . S
C2028 C2029 1.392 . S
C2028 C2031 1.511 . S
C2029 C2025 1.376 . S
C2029 C2028 1.392 . S
C2029 H2041 0.929 . S
C2030 C2026 1.531 . S
C2030 H2042 0.960 . S
C2030 H2043 0.962 . S
C2030 H2044 0.960 . S
C2031 C2028 1.511 . S
C2031 H2045 0.961 . S
C2031 H2046 0.961 . S
C2031 H2047 0.961 . S
C2032 C2033 1.370 . S
C2032 C2034 1.363 . S
C2032 H2048 0.931 . S
C2033 C2032 1.370 . S
C2033 C2037 1.408 . S
C2034 C2032 1.363 . S
C2034 C2035 1.370 . S
C2034 C2038 1.524 . S
C2035 C2027 1.503 . S
C2035 C2034 1.370 . S
C2035 C2036 1.403 . S
C2036 C2035 1.403 . S
C2036 C2037 1.404 . S
C2036 C2039 1.539 . S
C2037 C2033 1.408 . S
C2037 C2036 1.404 . S
C2037 H2049 0.930 . S
C2038 C2034 1.524 . S
C2038 H2050 0.956 . S
C2038 H2051 0.961 . S
C2038 H2052 0.961 . S
C2039 C2036 1.539 . S
C2039 H2053 0.958 . S
C2039 H2054 0.961 . S
C2039 H2055 0.960 . S
H2040 C2024 0.931 . S
H2041 C2029 0.929 . S
H2042 C2030 0.960 . S
H2043 C2030 0.962 . S
H2044 C2030 0.960 . S
H2045 C2031 0.961 . S
H2046 C2031 0.961 . S
H2047 C2031 0.961 . S
H2048 C2032 0.931 . S
H2049 C2037 0.930 . S
H2050 C2038 0.956 . S
H2051 C2038 0.961 . S
H2052 C2038 0.961 . S
H2053 C2039 0.958 . S
H2054 C2039 0.961 . S
H2055 C2039 0.960 . S
C2056 C2057 1.391 . S
C2056 C2058 1.394 . S
C2056 H2072 0.931 . S
C2057 C2056 1.391 . S
C2057 C2061 1.376 . S
C2058 C2056 1.394 . S
C2058 C2059 1.369 . S
C2058 C2062 1.531 . S
C2059 C2058 1.369 . S
C2059 C2060 1.410 . S
C2059 C2067 1.503 1_565 S
C2060 C2059 1.410 . S
C2060 C2061 1.392 . S
C2060 C2063 1.511 . S
C2061 C2057 1.376 . S
C2061 C2060 1.392 . S
C2061 H2073 0.929 . S
C2062 C2058 1.531 . S
C2062 H2074 0.960 1_565 S
C2062 H2075 0.962 . S
C2062 H2076 0.960 . S
C2063 C2060 1.511 . S
C2063 H2077 0.961 . S
C2063 H2078 0.961 1_565 S
C2063 H2079 0.961 . S
C2064 C2065 1.370 . S
C2064 C2066 1.363 . S
C2064 H2080 0.931 . S
C2065 C2064 1.370 . S
C2065 C2069 1.408 . S
C2066 C2064 1.363 . S
C2066 C2067 1.370 . S
C2066 C2070 1.524 . S
C2067 C2059 1.503 1_545 S
C2067 C2066 1.370 . S
C2067 C2068 1.403 . S
C2068 C2067 1.403 . S
C2068 C2069 1.404 . S
C2068 C2071 1.539 . S
C2069 C2065 1.408 . S
C2069 C2068 1.404 . S
C2069 H2081 0.930 . S
C2070 C2066 1.524 . S
C2070 H2082 0.956 . S
C2070 H2083 0.961 1_545 S
C2070 H2084 0.961 . S
C2071 C2068 1.539 . S
C2071 H2085 0.958 . S
C2071 H2086 0.961 . S
C2071 H2087 0.983 . S
H2072 C2056 0.931 . S
H2073 C2061 0.929 . S
H2074 C2062 0.960 1_545 S
H2075 C2062 0.962 . S
H2076 C2062 0.960 . S
H2077 C2063 0.961 . S
H2078 C2063 0.961 1_545 S
H2079 C2063 0.961 . S
H2080 C2064 0.931 . S
H2081 C2069 0.930 . S
H2082 C2070 0.956 . S
H2083 C2070 0.961 1_565 S
H2084 C2070 0.961 . S
H2085 C2071 0.958 . S
H2086 C2071 0.961 . S
H2087 C2071 0.983 . S
C2088 C2089 1.391 . S
C2088 C2090 1.394 . S
C2088 H2104 0.931 . S
C2089 C2088 1.391 . S
C2089 C2093 1.376 . S
C2090 C2088 1.394 . S
C2090 C2091 1.369 . S
C2090 C2094 1.531 . S
C2091 C2090 1.369 . S
C2091 C2092 1.410 . S
C2091 C2099 1.503 . S
C2092 C2091 1.410 . S
C2092 C2093 1.392 . S
C2092 C2095 1.511 . S
C2093 C2089 1.376 . S
C2093 C2092 1.392 . S
C2093 H2105 0.929 . S
C2094 C2090 1.531 . S
C2094 H2106 0.960 . S
C2094 H2107 0.962 . S
C2094 H2108 0.960 . S
C2095 C2092 1.511 . S
C2095 H2109 0.961 . S
C2095 H2110 0.961 . S
C2095 H2111 0.961 . S
C2096 C2097 1.370 . S
C2096 C2098 1.363 . S
C2096 H2112 0.931 . S
C2097 C2096 1.370 . S
C2097 C2101 1.408 . S
C2098 C2096 1.363 . S
C2098 C2099 1.370 . S
C2098 C2102 1.524 . S
C2099 C2091 1.503 . S
C2099 C2098 1.370 . S
C2099 C2100 1.403 . S
C2100 C2099 1.403 . S
C2100 C2101 1.404 . S
C2100 C2103 1.539 . S
C2101 C2097 1.408 . S
C2101 C2100 1.404 . S
C2101 H2113 0.930 . S
C2102 C2098 1.524 . S
C2102 H2114 0.956 . S
C2102 H2115 0.961 . S
C2102 H2116 0.961 . S
C2103 C2100 1.539 . S
C2103 H2117 0.958 . S
C2103 H2118 0.961 . S
C2103 H2119 0.960 . S
H2104 C2088 0.931 . S
H2105 C2093 0.929 . S
H2106 C2094 0.960 . S
H2107 C2094 0.962 . S
H2108 C2094 0.960 . S
H2109 C2095 0.961 . S
H2110 C2095 0.961 . S
H2111 C2095 0.961 . S
H2112 C2096 0.931 . S
H2113 C2101 0.930 . S
H2114 C2102 0.956 . S
H2115 C2102 0.961 . S
H2116 C2102 0.961 . S
H2117 C2103 0.958 . S
H2118 C2103 0.961 . S
H2119 C2103 0.960 . S
C2120 C2121 1.391 . S
C2120 C2122 1.394 . S
C2120 H2136 0.931 . S
C2121 C2120 1.391 . S
C2121 C2125 1.376 . S
C2122 C2120 1.394 . S
C2122 C2123 1.369 . S
C2122 C2126 1.531 . S
C2123 C2122 1.369 . S
C2123 C2124 1.410 . S
C2123 C2131 1.503 1_565 S
C2124 C2123 1.410 . S
C2124 C2125 1.392 . S
C2124 C2127 1.511 . S
C2125 C2121 1.376 . S
C2125 C2124 1.392 . S
C2125 H2137 0.929 . S
C2126 C2122 1.531 . S
C2126 H2138 0.960 1_565 S
C2126 H2139 0.962 . S
C2126 H2140 0.960 . S
C2127 C2124 1.511 . S
C2127 H2141 0.961 . S
C2127 H2142 0.961 1_565 S
C2127 H2143 0.961 . S
C2128 C2129 1.370 . S
C2128 C2130 1.363 . S
C2128 H2144 0.931 . S
C2129 C2128 1.370 . S
C2129 C2133 1.408 . S
C2130 C2128 1.363 . S
C2130 C2131 1.370 . S
C2130 C2134 1.524 . S
C2131 C2123 1.503 1_545 S
C2131 C2130 1.370 . S
C2131 C2132 1.403 . S
C2132 C2131 1.403 . S
C2132 C2133 1.404 . S
C2132 C2135 1.539 . S
C2133 C2129 1.408 . S
C2133 C2132 1.404 . S
C2133 H2145 0.930 . S
C2134 C2130 1.524 . S
C2134 H2146 0.975 . S
C2134 H2147 0.961 1_545 S
C2134 H2148 0.961 . S
C2135 C2132 1.539 . S
C2135 H2149 0.958 . S
C2135 H2150 0.961 . S
C2135 H2151 0.961 . S
H2136 C2120 0.931 . S
H2137 C2125 0.929 . S
H2138 C2126 0.960 1_545 S
H2139 C2126 0.962 . S
H2140 C2126 0.960 . S
H2141 C2127 0.961 . S
H2142 C2127 0.961 1_545 S
H2143 C2127 0.961 . S
H2144 C2128 0.931 . S
H2145 C2133 0.930 . S
H2146 C2134 0.975 . S
H2147 C2134 0.961 1_565 S
H2148 C2134 0.961 . S
H2149 C2135 0.958 . S
H2150 C2135 0.961 . S
H2151 C2135 0.961 . S
C2152 C2153 1.391 . S
C2152 C2154 1.394 . S
C2152 H2168 0.931 . S
C2153 C2152 1.391 . S
C2153 C2157 1.376 . S
C2154 C2152 1.394 . S
C2154 C2155 1.369 . S
C2154 C2158 1.531 . S
C2155 C2154 1.369 . S
C2155 C2156 1.410 . S
C2155 C2163 1.503 1_545 S
C2156 C2155 1.410 . S
C2156 C2157 1.392 . S
C2156 C2159 1.511 . S
C2157 C2153 1.376 . S
C2157 C2156 1.392 . S
C2157 H2169 0.929 . S
C2158 C2154 1.531 . S
C2158 H2170 0.960 1_545 S
C2158 H2171 0.962 . S
C2158 H2172 0.960 . S
C2159 C2156 1.511 . S
C2159 H2173 0.961 . S
C2159 H2174 0.961 1_545 S
C2159 H2175 0.961 . S
C2160 C2161 1.370 . S
C2160 C2162 1.363 . S
C2160 H2176 0.931 . S
C2161 C2160 1.370 . S
C2161 C2165 1.408 . S
C2162 C2160 1.363 . S
C2162 C2163 1.370 . S
C2162 C2166 1.524 . S
C2163 C2155 1.503 1_565 S
C2163 C2162 1.370 . S
C2163 C2164 1.403 . S
C2164 C2163 1.403 . S
C2164 C2165 1.404 . S
C2164 C2167 1.539 . S
C2165 C2161 1.408 . S
C2165 C2164 1.404 . S
C2165 H2177 0.930 . S
C2166 C2162 1.524 . S
C2166 H2178 0.976 . S
C2166 H2179 0.961 1_565 S
C2166 H2180 0.961 . S
C2167 C2164 1.539 . S
C2167 H2181 0.958 . S
C2167 H2182 0.961 . S
C2167 H2183 0.960 . S
H2168 C2152 0.931 . S
H2169 C2157 0.929 . S
H2170 C2158 0.960 1_565 S
H2171 C2158 0.962 . S
H2172 C2158 0.960 . S
H2173 C2159 0.961 . S
H2174 C2159 0.961 1_565 S
H2175 C2159 0.961 . S
H2176 C2160 0.931 . S
H2177 C2165 0.930 . S
H2178 C2166 0.976 . S
H2179 C2166 0.961 1_545 S
H2180 C2166 0.961 . S
H2181 C2167 0.958 . S
H2182 C2167 0.961 . S
H2183 C2167 0.960 . S
C2184 C2185 1.391 . S
C2184 C2186 1.394 . S
C2184 H2200 0.931 . S
C2185 C2184 1.391 . S
C2185 C2189 1.376 . S
C2186 C2184 1.394 . S
C2186 C2187 1.369 . S
C2186 C2190 1.531 . S
C2187 C2186 1.369 . S
C2187 C2188 1.410 . S
C2187 C2195 1.503 . S
C2188 C2187 1.410 . S
C2188 C2189 1.392 . S
C2188 C2191 1.511 . S
C2189 C2185 1.376 . S
C2189 C2188 1.392 . S
C2189 H2201 0.929 . S
C2190 C2186 1.531 . S
C2190 H2202 0.960 . S
C2190 H2203 0.962 . S
C2190 H2204 0.960 . S
C2191 C2188 1.511 . S
C2191 H2205 0.961 . S
C2191 H2206 0.961 . S
C2191 H2207 0.961 . S
C2192 C2193 1.370 . S
C2192 C2194 1.363 . S
C2192 H2208 0.931 . S
C2193 C2192 1.370 . S
C2193 C2197 1.408 . S
C2194 C2192 1.363 . S
C2194 C2195 1.370 . S
C2194 C2198 1.524 . S
C2195 C2187 1.503 . S
C2195 C2194 1.370 . S
C2195 C2196 1.403 . S
C2196 C2195 1.403 . S
C2196 C2197 1.404 . S
C2196 C2199 1.539 . S
C2197 C2193 1.408 . S
C2197 C2196 1.404 . S
C2197 H2209 0.930 . S
C2198 C2194 1.524 . S
C2198 H2210 0.956 . S
C2198 H2211 0.961 . S
C2198 H2212 0.961 . S
C2199 C2196 1.539 . S
C2199 H2213 0.958 . S
C2199 H2214 0.961 . S
C2199 H2215 0.960 . S
H2200 C2184 0.931 . S
H2201 C2189 0.929 . S
H2202 C2190 0.960 . S
H2203 C2190 0.962 . S
H2204 C2190 0.960 . S
H2205 C2191 0.961 . S
H2206 C2191 0.961 . S
H2207 C2191 0.961 . S
H2208 C2192 0.931 . S
H2209 C2197 0.930 . S
H2210 C2198 0.956 . S
H2211 C2198 0.961 . S
H2212 C2198 0.961 . S
H2213 C2199 0.958 . S
H2214 C2199 0.961 . S
H2215 C2199 0.960 . S
C2216 C2217 1.391 . S
C2216 C2218 1.394 . S
C2216 H2232 0.931 . S
C2217 C2216 1.391 . S
C2217 C2221 1.376 . S
C2218 C2216 1.394 . S
C2218 C2219 1.369 . S
C2218 C2222 1.531 . S
C2219 C2218 1.369 . S
C2219 C2220 1.410 . S
C2219 C2227 1.503 . S
C2220 C2219 1.410 . S
C2220 C2221 1.392 . S
C2220 C2223 1.511 . S
C2221 C2217 1.376 . S
C2221 C2220 1.392 . S
C2221 H2233 0.929 . S
C2222 C2218 1.531 . S
C2222 H2234 0.960 . S
C2222 H2235 0.962 . S
C2222 H2236 0.960 . S
C2223 C2220 1.511 . S
C2223 H2237 0.961 . S
C2223 H2238 0.961 . S
C2223 H2239 0.961 . S
C2224 C2225 1.370 . S
C2224 C2226 1.363 . S
C2224 H2240 0.931 . S
C2225 C2224 1.370 . S
C2225 C2229 1.408 . S
C2226 C2224 1.363 . S
C2226 C2227 1.370 . S
C2226 C2230 1.524 . S
C2227 C2219 1.503 . S
C2227 C2226 1.370 . S
C2227 C2228 1.403 . S
C2228 C2227 1.403 . S
C2228 C2229 1.404 . S
C2228 C2231 1.539 . S
C2229 C2225 1.408 . S
C2229 C2228 1.404 . S
C2229 H2241 0.930 . S
C2230 C2226 1.524 . S
C2230 H2242 0.956 . S
C2230 H2243 0.961 . S
C2230 H2244 0.961 . S
C2231 C2228 1.539 . S
C2231 H2245 0.958 . S
C2231 H2246 0.961 . S
C2231 H2247 0.960 . S
H2232 C2216 0.931 . S
H2233 C2221 0.929 . S
H2234 C2222 0.960 . S
H2235 C2222 0.962 . S
H2236 C2222 0.960 . S
H2237 C2223 0.961 . S
H2238 C2223 0.961 . S
H2239 C2223 0.961 . S
H2240 C2224 0.931 . S
H2241 C2229 0.930 . S
H2242 C2230 0.956 . S
H2243 C2230 0.961 . S
H2244 C2230 0.961 . S
H2245 C2231 0.958 . S
H2246 C2231 0.961 . S
H2247 C2231 0.960 . S
C2248 C2249 1.391 . S
C2248 C2250 1.394 . S
C2248 H2264 0.931 . S
C2249 C2248 1.391 . S
C2249 C2253 1.376 . S
C2250 C2248 1.394 . S
C2250 C2251 1.369 . S
C2250 C2254 1.531 . S
C2251 C2250 1.369 . S
C2251 C2252 1.410 . S
C2251 C2259 1.503 . S
C2252 C2251 1.410 . S
C2252 C2253 1.392 . S
C2252 C2255 1.511 . S
C2253 C2249 1.376 . S
C2253 C2252 1.392 . S
C2253 H2265 0.929 . S
C2254 C2250 1.531 . S
C2254 H2266 0.960 . S
C2254 H2267 0.962 . S
C2254 H2268 0.960 . S
C2255 C2252 1.511 . S
C2255 H2269 0.961 . S
C2255 H2270 0.961 . S
C2255 H2271 0.961 . S
C2256 C2257 1.370 . S
C2256 C2258 1.363 . S
C2256 H2272 0.931 . S
C2257 C2256 1.370 . S
C2257 C2261 1.408 . S
C2258 C2256 1.363 . S
C2258 C2259 1.370 . S
C2258 C2262 1.524 . S
C2259 C2251 1.503 . S
C2259 C2258 1.370 . S
C2259 C2260 1.403 . S
C2260 C2259 1.403 . S
C2260 C2261 1.404 . S
C2260 C2263 1.539 . S
C2261 C2257 1.408 . S
C2261 C2260 1.404 . S
C2261 H2273 0.930 . S
C2262 C2258 1.524 . S
C2262 H2274 0.956 . S
C2262 H2275 0.961 . S
C2262 H2276 0.961 . S
C2263 C2260 1.539 . S
C2263 H2277 0.958 . S
C2263 H2278 0.961 . S
C2263 H2279 0.960 . S
H2264 C2248 0.931 . S
H2265 C2253 0.929 . S
H2266 C2254 0.960 . S
H2267 C2254 0.962 . S
H2268 C2254 0.960 . S
H2269 C2255 0.961 . S
H2270 C2255 0.961 . S
H2271 C2255 0.961 . S
H2272 C2256 0.931 . S
H2273 C2261 0.930 . S
H2274 C2262 0.956 . S
H2275 C2262 0.961 . S
H2276 C2262 0.961 . S
H2277 C2263 0.958 . S
H2278 C2263 0.961 . S
H2279 C2263 0.960 . S
C2280 C2281 1.391 . S
C2280 C2282 1.394 . S
C2280 H2296 0.931 . S
C2281 C2280 1.391 . S
C2281 C2285 1.376 . S
C2282 C2280 1.394 . S
C2282 C2283 1.369 . S
C2282 C2286 1.531 . S
C2283 C2282 1.369 . S
C2283 C2284 1.410 . S
C2283 C2291 1.503 . S
C2284 C2283 1.410 . S
C2284 C2285 1.392 . S
C2284 C2287 1.511 . S
C2285 C2281 1.376 . S
C2285 C2284 1.392 . S
C2285 H2297 0.929 . S
C2286 C2282 1.531 . S
C2286 H2298 0.960 . S
C2286 H2299 0.962 . S
C2286 H2300 0.960 . S
C2287 C2284 1.511 . S
C2287 H2301 0.961 . S
C2287 H2302 0.961 . S
C2287 H2303 0.961 . S
C2288 C2289 1.370 . S
C2288 C2290 1.363 . S
C2288 H2304 0.931 . S
C2289 C2288 1.370 . S
C2289 C2293 1.408 . S
C2290 C2288 1.363 . S
C2290 C2291 1.370 . S
C2290 C2294 1.524 . S
C2291 C2283 1.503 . S
C2291 C2290 1.370 . S
C2291 C2292 1.403 . S
C2292 C2291 1.403 . S
C2292 C2293 1.404 . S
C2292 C2295 1.539 . S
C2293 C2289 1.408 . S
C2293 C2292 1.404 . S
C2293 H2305 0.930 . S
C2294 C2290 1.524 . S
C2294 H2306 0.956 . S
C2294 H2307 0.961 . S
C2294 H2308 0.961 . S
C2295 C2292 1.539 . S
C2295 H2309 0.958 . S
C2295 H2310 0.961 . S
C2295 H2311 0.960 . S
H2296 C2280 0.931 . S
H2297 C2285 0.929 . S
H2298 C2286 0.960 . S
H2299 C2286 0.962 . S
H2300 C2286 0.960 . S
H2301 C2287 0.961 . S
H2302 C2287 0.961 . S
H2303 C2287 0.961 . S
H2304 C2288 0.931 . S
H2305 C2293 0.930 . S
H2306 C2294 0.956 . S
H2307 C2294 0.961 . S
H2308 C2294 0.961 . S
H2309 C2295 0.958 . S
H2310 C2295 0.961 . S
H2311 C2295 0.960 . S
C2312 C2313 1.391 . S
C2312 C2314 1.394 . S
C2312 H2328 0.931 . S
C2313 C2312 1.391 . S
C2313 C2317 1.376 . S
C2314 C2312 1.394 . S
C2314 C2315 1.369 . S
C2314 C2318 1.531 . S
C2315 C2314 1.369 . S
C2315 C2316 1.410 . S
C2315 C2323 1.503 . S
C2316 C2315 1.410 . S
C2316 C2317 1.392 . S
C2316 C2319 1.511 . S
C2317 C2313 1.376 . S
C2317 C2316 1.392 . S
C2317 H2329 0.929 . S
C2318 C2314 1.531 . S
C2318 H2330 0.960 . S
C2318 H2331 0.962 . S
C2318 H2332 0.960 . S
C2319 C2316 1.511 . S
C2319 H2333 0.961 . S
C2319 H2334 0.961 . S
C2319 H2335 0.961 . S
C2320 C2321 1.370 . S
C2320 C2322 1.363 . S
C2320 H2336 0.931 . S
C2321 C2320 1.370 . S
C2321 C2325 1.408 . S
C2322 C2320 1.363 . S
C2322 C2323 1.370 . S
C2322 C2326 1.524 . S
C2323 C2315 1.503 . S
C2323 C2322 1.370 . S
C2323 C2324 1.403 . S
C2324 C2323 1.403 . S
C2324 C2325 1.404 . S
C2324 C2327 1.539 . S
C2325 C2321 1.408 . S
C2325 C2324 1.404 . S
C2325 H2337 0.930 . S
C2326 C2322 1.524 . S
C2326 H2338 0.956 . S
C2326 H2339 0.961 . S
C2326 H2340 0.961 . S
C2327 C2324 1.539 . S
C2327 H2341 0.958 . S
C2327 H2342 0.961 . S
C2327 H2343 0.960 . S
H2328 C2312 0.931 . S
H2329 C2317 0.929 . S
H2330 C2318 0.960 . S
H2331 C2318 0.962 . S
H2332 C2318 0.960 . S
H2333 C2319 0.961 . S
H2334 C2319 0.961 . S
H2335 C2319 0.961 . S
H2336 C2320 0.931 . S
H2337 C2325 0.930 . S
H2338 C2326 0.956 . S
H2339 C2326 0.961 . S
H2340 C2326 0.961 . S
H2341 C2327 0.958 . S
H2342 C2327 0.961 . S
H2343 C2327 0.960 . S
C2344 C2345 1.391 . S
C2344 C2346 1.394 . S
C2344 H2360 0.931 . S
C2345 C2344 1.391 . S
C2345 C2349 1.376 . S
C2346 C2344 1.394 . S
C2346 C2347 1.369 . S
C2346 C2350 1.531 . S
C2347 C2346 1.369 . S
C2347 C2348 1.410 . S
C2347 C2355 1.503 . S
C2348 C2347 1.410 . S
C2348 C2349 1.392 . S
C2348 C2351 1.511 . S
C2349 C2345 1.376 . S
C2349 C2348 1.392 . S
C2349 H2361 0.929 . S
C2350 C2346 1.531 . S
C2350 H2362 0.960 . S
C2350 H2363 0.962 . S
C2350 H2364 0.960 . S
C2351 C2348 1.511 . S
C2351 H2365 0.961 . S
C2351 H2366 0.961 . S
C2351 H2367 0.961 . S
C2352 C2353 1.370 . S
C2352 C2354 1.363 . S
C2352 H2368 0.931 . S
C2353 C2352 1.370 . S
C2353 C2357 1.408 . S
C2354 C2352 1.363 . S
C2354 C2355 1.370 . S
C2354 C2358 1.524 . S
C2355 C2347 1.503 . S
C2355 C2354 1.370 . S
C2355 C2356 1.403 . S
C2356 C2355 1.403 . S
C2356 C2357 1.404 . S
C2356 C2359 1.539 . S
C2357 C2353 1.408 . S
C2357 C2356 1.404 . S
C2357 H2369 0.930 . S
C2358 C2354 1.524 . S
C2358 H2370 0.956 . S
C2358 H2371 0.961 . S
C2358 H2372 0.961 . S
C2359 C2356 1.539 . S
C2359 H2373 0.958 . S
C2359 H2374 0.961 . S
C2359 H2375 0.960 . S
H2360 C2344 0.931 . S
H2361 C2349 0.929 . S
H2362 C2350 0.960 . S
H2363 C2350 0.962 . S
H2364 C2350 0.960 . S
H2365 C2351 0.961 . S
H2366 C2351 0.961 . S
H2367 C2351 0.961 . S
H2368 C2352 0.931 . S
H2369 C2357 0.930 . S
H2370 C2358 0.956 . S
H2371 C2358 0.961 . S
H2372 C2358 0.961 . S
H2373 C2359 0.958 . S
H2374 C2359 0.961 . S
H2375 C2359 0.960 . S
C2376 C2377 1.391 . S
C2376 C2378 1.394 . S
C2376 H2392 0.931 . S
C2377 C2376 1.391 . S
C2377 C2381 1.376 . S
C2378 C2376 1.394 . S
C2378 C2379 1.369 . S
C2378 C2382 1.531 . S
C2379 C2378 1.369 . S
C2379 C2380 1.410 . S
C2379 C2387 1.503 . S
C2380 C2379 1.410 . S
C2380 C2381 1.392 . S
C2380 C2383 1.511 . S
C2381 C2377 1.376 . S
C2381 C2380 1.392 . S
C2381 H2393 0.929 . S
C2382 C2378 1.531 . S
C2382 H2394 0.960 . S
C2382 H2395 0.962 . S
C2382 H2396 0.960 . S
C2383 C2380 1.511 . S
C2383 H2397 0.961 . S
C2383 H2398 0.961 . S
C2383 H2399 0.961 . S
C2384 C2385 1.370 . S
C2384 C2386 1.363 . S
C2384 H2400 0.931 . S
C2385 C2384 1.370 . S
C2385 C2389 1.408 . S
C2386 C2384 1.363 . S
C2386 C2387 1.370 . S
C2386 C2390 1.524 . S
C2387 C2379 1.503 . S
C2387 C2386 1.370 . S
C2387 C2388 1.403 . S
C2388 C2387 1.403 . S
C2388 C2389 1.404 . S
C2388 C2391 1.539 . S
C2389 C2385 1.408 . S
C2389 C2388 1.404 . S
C2389 H2401 0.930 . S
C2390 C2386 1.524 . S
C2390 H2402 0.956 . S
C2390 H2403 0.961 . S
C2390 H2404 0.961 . S
C2391 C2388 1.539 . S
C2391 H2405 0.958 . S
C2391 H2406 0.961 . S
C2391 H2407 0.960 . S
H2392 C2376 0.931 . S
H2393 C2381 0.929 . S
H2394 C2382 0.960 . S
H2395 C2382 0.962 . S
H2396 C2382 0.960 . S
H2397 C2383 0.961 . S
H2398 C2383 0.961 . S
H2399 C2383 0.961 . S
H2400 C2384 0.931 . S
H2401 C2389 0.930 . S
H2402 C2390 0.956 . S
H2403 C2390 0.961 . S
H2404 C2390 0.961 . S
H2405 C2391 0.958 . S
H2406 C2391 0.961 . S
H2407 C2391 0.960 . S
C2408 C2409 1.391 . S
C2408 C2410 1.394 . S
C2408 H2424 0.931 . S
C2409 C2408 1.391 . S
C2409 C2413 1.376 . S
C2410 C2408 1.394 . S
C2410 C2411 1.369 . S
C2410 C2414 1.531 . S
C2411 C2410 1.369 . S
C2411 C2412 1.410 . S
C2411 C2419 1.503 . S
C2412 C2411 1.410 . S
C2412 C2413 1.392 . S
C2412 C2415 1.511 . S
C2413 C2409 1.376 . S
C2413 C2412 1.392 . S
C2413 H2425 0.929 . S
C2414 C2410 1.531 . S
C2414 H2426 0.960 . S
C2414 H2427 0.962 . S
C2414 H2428 0.960 . S
C2415 C2412 1.511 . S
C2415 H2429 0.961 . S
C2415 H2430 0.961 . S
C2415 H2431 0.961 . S
C2416 C2417 1.370 . S
C2416 C2418 1.363 . S
C2416 H2432 0.931 . S
C2417 C2416 1.370 . S
C2417 C2421 1.408 . S
C2418 C2416 1.363 . S
C2418 C2419 1.370 . S
C2418 C2422 1.524 . S
C2419 C2411 1.503 . S
C2419 C2418 1.370 . S
C2419 C2420 1.403 . S
C2420 C2419 1.403 . S
C2420 C2421 1.404 . S
C2420 C2423 1.539 . S
C2421 C2417 1.408 . S
C2421 C2420 1.404 . S
C2421 H2433 0.930 . S
C2422 C2418 1.524 . S
C2422 H2434 0.956 . S
C2422 H2435 0.961 . S
C2422 H2436 0.961 . S
C2423 C2420 1.539 . S
C2423 H2437 0.958 . S
C2423 H2438 0.961 . S
C2423 H2439 0.960 . S
H2424 C2408 0.931 . S
H2425 C2413 0.929 . S
H2426 C2414 0.960 . S
H2427 C2414 0.962 . S
H2428 C2414 0.960 . S
H2429 C2415 0.961 . S
H2430 C2415 0.961 . S
H2431 C2415 0.961 . S
H2432 C2416 0.931 . S
H2433 C2421 0.930 . S
H2434 C2422 0.956 . S
H2435 C2422 0.961 . S
H2436 C2422 0.961 . S
H2437 C2423 0.958 . S
H2438 C2423 0.961 . S
H2439 C2423 0.960 . S
C2440 C2441 1.391 . S
C2440 C2442 1.394 . S
C2440 H2456 0.931 . S
C2441 C2440 1.391 . S
C2441 C2445 1.376 . S
C2442 C2440 1.394 . S
C2442 C2443 1.369 . S
C2442 C2446 1.531 . S
C2443 C2442 1.369 . S
C2443 C2444 1.410 . S
C2443 C2451 1.503 . S
C2444 C2443 1.410 . S
C2444 C2445 1.392 . S
C2444 C2447 1.511 . S
C2445 C2441 1.376 . S
C2445 C2444 1.392 . S
C2445 H2457 0.929 . S
C2446 C2442 1.531 . S
C2446 H2458 0.960 . S
C2446 H2459 0.962 . S
C2446 H2460 0.960 . S
C2447 C2444 1.511 . S
C2447 H2461 0.961 . S
C2447 H2462 0.961 . S
C2447 H2463 0.961 . S
C2448 C2449 1.370 . S
C2448 C2450 1.363 . S
C2448 H2464 0.931 . S
C2449 C2448 1.370 . S
C2449 C2453 1.408 . S
C2450 C2448 1.363 . S
C2450 C2451 1.370 . S
C2450 C2454 1.524 . S
C2451 C2443 1.503 . S
C2451 C2450 1.370 . S
C2451 C2452 1.403 . S
C2452 C2451 1.403 . S
C2452 C2453 1.404 . S
C2452 C2455 1.539 . S
C2453 C2449 1.408 . S
C2453 C2452 1.404 . S
C2453 H2465 0.930 . S
C2454 C2450 1.524 . S
C2454 H2466 0.956 . S
C2454 H2467 0.961 . S
C2454 H2468 0.961 . S
C2455 C2452 1.539 . S
C2455 H2469 0.958 . S
C2455 H2470 0.961 . S
C2455 H2471 0.960 . S
H2456 C2440 0.931 . S
H2457 C2445 0.929 . S
H2458 C2446 0.960 . S
H2459 C2446 0.962 . S
H2460 C2446 0.960 . S
H2461 C2447 0.961 . S
H2462 C2447 0.961 . S
H2463 C2447 0.961 . S
H2464 C2448 0.931 . S
H2465 C2453 0.930 . S
H2466 C2454 0.956 . S
H2467 C2454 0.961 . S
H2468 C2454 0.961 . S
H2469 C2455 0.958 . S
H2470 C2455 0.961 . S
H2471 C2455 0.960 . S
C2472 C2473 1.391 . S
C2472 C2474 1.394 . S
C2472 H2488 0.931 . S
C2473 C2472 1.391 . S
C2473 C2477 1.376 . S
C2474 C2472 1.394 . S
C2474 C2475 1.369 . S
C2474 C2478 1.531 . S
C2475 C2474 1.369 . S
C2475 C2476 1.410 . S
C2475 C2483 1.503 . S
C2476 C2475 1.410 . S
C2476 C2477 1.392 . S
C2476 C2479 1.511 . S
C2477 C2473 1.376 . S
C2477 C2476 1.392 . S
C2477 H2489 0.929 . S
C2478 C2474 1.531 . S
C2478 H2490 0.960 . S
C2478 H2491 0.962 . S
C2478 H2492 0.960 . S
C2479 C2476 1.511 . S
C2479 H2493 0.961 . S
C2479 H2494 0.961 . S
C2479 H2495 0.961 . S
C2480 C2481 1.370 . S
C2480 C2482 1.363 . S
C2480 H2496 0.931 . S
C2481 C2480 1.370 . S
C2481 C2485 1.408 . S
C2482 C2480 1.363 . S
C2482 C2483 1.370 . S
C2482 C2486 1.524 . S
C2483 C2475 1.503 . S
C2483 C2482 1.370 . S
C2483 C2484 1.403 . S
C2484 C2483 1.403 . S
C2484 C2485 1.404 . S
C2484 C2487 1.539 . S
C2485 C2481 1.408 . S
C2485 C2484 1.404 . S
C2485 H2497 0.930 . S
C2486 C2482 1.524 . S
C2486 H2498 0.956 . S
C2486 H2499 0.961 . S
C2486 H2500 0.961 . S
C2487 C2484 1.539 . S
C2487 H2501 0.958 . S
C2487 H2502 0.961 . S
C2487 H2503 0.960 . S
H2488 C2472 0.931 . S
H2489 C2477 0.929 . S
H2490 C2478 0.960 . S
H2491 C2478 0.962 . S
H2492 C2478 0.960 . S
H2493 C2479 0.961 . S
H2494 C2479 0.961 . S
H2495 C2479 0.961 . S
H2496 C2480 0.931 . S
H2497 C2485 0.930 . S
H2498 C2486 0.956 . S
H2499 C2486 0.961 . S
H2500 C2486 0.961 . S
H2501 C2487 0.958 . S
H2502 C2487 0.961 . S
H2503 C2487 0.960 . S
C2504 C2505 1.391 . S
C2504 C2506 1.394 . S
C2504 H2520 0.931 . S
C2505 C2504 1.391 . S
C2505 C2509 1.376 . S
C2506 C2504 1.394 . S
C2506 C2507 1.369 . S
C2506 C2510 1.531 . S
C2507 C2506 1.369 . S
C2507 C2508 1.410 . S
C2507 C2515 1.503 . S
C2508 C2507 1.410 . S
C2508 C2509 1.392 . S
C2508 C2511 1.511 . S
C2509 C2505 1.376 . S
C2509 C2508 1.392 . S
C2509 H2521 0.929 . S
C2510 C2506 1.531 . S
C2510 H2522 0.960 . S
C2510 H2523 0.962 . S
C2510 H2524 0.960 . S
C2511 C2508 1.511 . S
C2511 H2525 0.961 . S
C2511 H2526 0.961 . S
C2511 H2527 0.961 . S
C2512 C2513 1.370 . S
C2512 C2514 1.363 . S
C2512 H2528 0.931 . S
C2513 C2512 1.370 . S
C2513 C2517 1.408 . S
C2514 C2512 1.363 . S
C2514 C2515 1.370 . S
C2514 C2518 1.524 . S
C2515 C2507 1.503 . S
C2515 C2514 1.370 . S
C2515 C2516 1.403 . S
C2516 C2515 1.403 . S
C2516 C2517 1.404 . S
C2516 C2519 1.539 . S
C2517 C2513 1.408 . S
C2517 C2516 1.404 . S
C2517 H2529 0.930 . S
C2518 C2514 1.524 . S
C2518 H2530 0.956 . S
C2518 H2531 0.961 . S
C2518 H2532 0.961 . S
C2519 C2516 1.539 . S
C2519 H2533 0.958 . S
C2519 H2534 0.961 . S
C2519 H2535 0.960 . S
H2520 C2504 0.931 . S
H2521 C2509 0.929 . S
H2522 C2510 0.960 . S
H2523 C2510 0.962 . S
H2524 C2510 0.960 . S
H2525 C2511 0.961 . S
H2526 C2511 0.961 . S
H2527 C2511 0.961 . S
H2528 C2512 0.931 . S
H2529 C2517 0.930 . S
H2530 C2518 0.956 . S
H2531 C2518 0.961 . S
H2532 C2518 0.961 . S
H2533 C2519 0.958 . S
H2534 C2519 0.961 . S
H2535 C2519 0.960 . S
C2536 C2537 1.391 . S
C2536 C2538 1.394 . S
C2536 H2552 0.931 . S
C2537 C2536 1.391 . S
C2537 C2541 1.376 . S
C2538 C2536 1.394 . S
C2538 C2539 1.369 . S
C2538 C2542 1.531 . S
C2539 C2538 1.369 . S
C2539 C2540 1.410 . S
C2539 C2547 1.503 . S
C2540 C2539 1.410 . S
C2540 C2541 1.392 . S
C2540 C2543 1.511 . S
C2541 C2537 1.376 . S
C2541 C2540 1.392 . S
C2541 H2553 0.929 . S
C2542 C2538 1.531 . S
C2542 H2554 0.960 . S
C2542 H2555 0.962 . S
C2542 H2556 0.960 . S
C2543 C2540 1.511 . S
C2543 H2557 0.961 . S
C2543 H2558 0.961 . S
C2543 H2559 0.961 . S
C2544 C2545 1.370 . S
C2544 C2546 1.363 . S
C2544 H2560 0.931 . S
C2545 C2544 1.370 . S
C2545 C2549 1.408 . S
C2546 C2544 1.363 . S
C2546 C2547 1.370 . S
C2546 C2550 1.524 . S
C2547 C2539 1.503 . S
C2547 C2546 1.370 . S
C2547 C2548 1.403 . S
C2548 C2547 1.403 . S
C2548 C2549 1.404 . S
C2548 C2551 1.539 . S
C2549 C2545 1.408 . S
C2549 C2548 1.404 . S
C2549 H2561 0.930 . S
C2550 C2546 1.524 . S
C2550 H2562 0.956 . S
C2550 H2563 0.961 . S
C2550 H2564 0.961 . S
C2551 C2548 1.539 . S
C2551 H2565 0.958 . S
C2551 H2566 0.961 . S
C2551 H2567 0.960 . S
H2552 C2536 0.931 . S
H2553 C2541 0.929 . S
H2554 C2542 0.960 . S
H2555 C2542 0.962 . S
H2556 C2542 0.960 . S
H2557 C2543 0.961 . S
H2558 C2543 0.961 . S
H2559 C2543 0.961 . S
H2560 C2544 0.931 . S
H2561 C2549 0.930 . S
H2562 C2550 0.956 . S
H2563 C2550 0.961 . S
H2564 C2550 0.961 . S
H2565 C2551 0.958 . S
H2566 C2551 0.961 . S
H2567 C2551 0.960 . S
C2568 C2569 1.391 . S
C2568 C2570 1.394 . S
C2568 H2584 0.931 . S
C2569 C2568 1.391 . S
C2569 C2573 1.376 . S
C2570 C2568 1.394 . S
C2570 C2571 1.369 . S
C2570 C2574 1.531 . S
C2571 C2570 1.369 . S
C2571 C2572 1.410 . S
C2571 C2579 1.503 . S
C2572 C2571 1.410 . S
C2572 C2573 1.392 . S
C2572 C2575 1.511 . S
C2573 C2569 1.376 . S
C2573 C2572 1.392 . S
C2573 H2585 0.929 . S
C2574 C2570 1.531 . S
C2574 H2586 0.960 . S
C2574 H2587 0.962 . S
C2574 H2588 0.960 . S
C2575 C2572 1.511 . S
C2575 H2589 0.961 . S
C2575 H2590 0.961 . S
C2575 H2591 0.961 . S
C2576 C2577 1.370 . S
C2576 C2578 1.363 . S
C2576 H2592 0.931 . S
C2577 C2576 1.370 . S
C2577 C2581 1.408 . S
C2578 C2576 1.363 . S
C2578 C2579 1.370 . S
C2578 C2582 1.524 . S
C2579 C2571 1.503 . S
C2579 C2578 1.370 . S
C2579 C2580 1.403 . S
C2580 C2579 1.403 . S
C2580 C2581 1.404 . S
C2580 C2583 1.539 . S
C2581 C2577 1.408 . S
C2581 C2580 1.404 . S
C2581 H2593 0.930 . S
C2582 C2578 1.524 . S
C2582 H2594 0.956 . S
C2582 H2595 0.961 . S
C2582 H2596 0.961 . S
C2583 C2580 1.539 . S
C2583 H2597 0.958 . S
C2583 H2598 0.961 . S
C2583 H2599 0.960 . S
H2584 C2568 0.931 . S
H2585 C2573 0.929 . S
H2586 C2574 0.960 . S
H2587 C2574 0.962 . S
H2588 C2574 0.960 . S
H2589 C2575 0.961 . S
H2590 C2575 0.961 . S
H2591 C2575 0.961 . S
H2592 C2576 0.931 . S
H2593 C2581 0.930 . S
H2594 C2582 0.956 . S
H2595 C2582 0.961 . S
H2596 C2582 0.961 . S
H2597 C2583 0.958 . S
H2598 C2583 0.961 . S
H2599 C2583 0.960 . S
C2600 C2601 1.391 . S
C2600 C2602 1.394 . S
C2600 H2616 0.931 . S
C2601 C2600 1.391 . S
C2601 C2605 1.376 . S
C2602 C2600 1.394 . S
C2602 C2603 1.369 . S
C2602 C2606 1.531 . S
C2603 C2602 1.369 . S
C2603 C2604 1.410 . S
C2603 C2611 1.503 . S
C2604 C2603 1.410 . S
C2604 C2605 1.392 . S
C2604 C2607 1.511 . S
C2605 C2601 1.376 . S
C2605 C2604 1.392 . S
C2605 H2617 0.929 . S
C2606 C2602 1.531 . S
C2606 H2618 0.960 . S
C2606 H2619 0.962 . S
C2606 H2620 0.960 . S
C2607 C2604 1.511 . S
C2607 H2621 0.961 . S
C2607 H2622 0.961 . S
C2607 H2623 0.961 . S
C2608 C2609 1.370 . S
C2608 C2610 1.363 . S
C2608 H2624 0.931 . S
C2609 C2608 1.370 . S
C2609 C2613 1.408 . S
C2610 C2608 1.363 . S
C2610 C2611 1.370 . S
C2610 C2614 1.524 . S
C2611 C2603 1.503 . S
C2611 C2610 1.370 . S
C2611 C2612 1.403 . S
C2612 C2611 1.403 . S
C2612 C2613 1.404 . S
C2612 C2615 1.539 . S
C2613 C2609 1.408 . S
C2613 C2612 1.404 . S
C2613 H2625 0.930 . S
C2614 C2610 1.524 . S
C2614 H2626 0.956 . S
C2614 H2627 0.961 . S
C2614 H2628 0.961 . S
C2615 C2612 1.539 . S
C2615 H2629 0.958 . S
C2615 H2630 0.961 . S
C2615 H2631 0.960 . S
H2616 C2600 0.931 . S
H2617 C2605 0.929 . S
H2618 C2606 0.960 . S
H2619 C2606 0.962 . S
H2620 C2606 0.960 . S
H2621 C2607 0.961 . S
H2622 C2607 0.961 . S
H2623 C2607 0.961 . S
H2624 C2608 0.931 . S
H2625 C2613 0.930 . S
H2626 C2614 0.956 . S
H2627 C2614 0.961 . S
H2628 C2614 0.961 . S
H2629 C2615 0.958 . S
H2630 C2615 0.961 . S
H2631 C2615 0.960 . S
C2632 C2633 1.391 . S
C2632 C2634 1.394 . S
C2632 H2648 0.931 . S
C2633 C2632 1.391 . S
C2633 C2637 1.376 . S
C2634 C2632 1.394 . S
C2634 C2635 1.369 . S
C2634 C2638 1.531 . S
C2635 C2634 1.369 . S
C2635 C2636 1.410 . S
C2635 C2643 1.503 . S
C2636 C2635 1.410 . S
C2636 C2637 1.392 . S
C2636 C2639 1.511 . S
C2637 C2633 1.376 . S
C2637 C2636 1.392 . S
C2637 H2649 0.929 . S
C2638 C2634 1.531 . S
C2638 H2650 0.960 . S
C2638 H2651 0.962 . S
C2638 H2652 0.960 . S
C2639 C2636 1.511 . S
C2639 H2653 0.961 . S
C2639 H2654 0.961 . S
C2639 H2655 0.961 . S
C2640 C2641 1.370 . S
C2640 C2642 1.363 . S
C2640 H2656 0.931 . S
C2641 C2640 1.370 . S
C2641 C2645 1.408 . S
C2642 C2640 1.363 . S
C2642 C2643 1.370 . S
C2642 C2646 1.524 . S
C2643 C2635 1.503 . S
C2643 C2642 1.370 . S
C2643 C2644 1.403 . S
C2644 C2643 1.403 . S
C2644 C2645 1.404 . S
C2644 C2647 1.539 . S
C2645 C2641 1.408 . S
C2645 C2644 1.404 . S
C2645 H2657 0.930 . S
C2646 C2642 1.524 . S
C2646 H2658 0.956 . S
C2646 H2659 0.961 . S
C2646 H2660 0.961 . S
C2647 C2644 1.539 . S
C2647 H2661 0.958 . S
C2647 H2662 0.961 . S
C2647 H2663 0.960 . S
H2648 C2632 0.931 . S
H2649 C2637 0.929 . S
H2650 C2638 0.960 . S
H2651 C2638 0.962 . S
H2652 C2638 0.960 . S
H2653 C2639 0.961 . S
H2654 C2639 0.961 . S
H2655 C2639 0.961 . S
H2656 C2640 0.931 . S
H2657 C2645 0.930 . S
H2658 C2646 0.956 . S
H2659 C2646 0.961 . S
H2660 C2646 0.961 . S
H2661 C2647 0.958 . S
H2662 C2647 0.961 . S
H2663 C2647 0.960 . S
C2664 C2665 1.391 . S
C2664 C2666 1.394 . S
C2664 H2680 0.931 . S
C2665 C2664 1.391 . S
C2665 C2669 1.376 . S
C2666 C2664 1.394 . S
C2666 C2667 1.369 . S
C2666 C2670 1.531 . S
C2667 C2666 1.369 . S
C2667 C2668 1.410 . S
C2667 C2675 1.503 . S
C2668 C2667 1.410 . S
C2668 C2669 1.392 . S
C2668 C2671 1.511 . S
C2669 C2665 1.376 . S
C2669 C2668 1.392 . S
C2669 H2681 0.929 . S
C2670 C2666 1.531 . S
C2670 H2682 0.960 . S
C2670 H2683 0.962 . S
C2670 H2684 0.960 . S
C2671 C2668 1.511 . S
C2671 H2685 0.961 . S
C2671 H2686 0.961 . S
C2671 H2687 0.961 . S
C2672 C2673 1.370 . S
C2672 C2674 1.363 . S
C2672 H2688 0.931 . S
C2673 C2672 1.370 . S
C2673 C2677 1.408 . S
C2674 C2672 1.363 . S
C2674 C2675 1.370 . S
C2674 C2678 1.524 . S
C2675 C2667 1.503 . S
C2675 C2674 1.370 . S
C2675 C2676 1.403 . S
C2676 C2675 1.403 . S
C2676 C2677 1.404 . S
C2676 C2679 1.539 . S
C2677 C2673 1.408 . S
C2677 C2676 1.404 . S
C2677 H2689 0.930 . S
C2678 C2674 1.524 . S
C2678 H2690 0.956 . S
C2678 H2691 0.961 . S
C2678 H2692 0.961 . S
C2679 C2676 1.539 . S
C2679 H2693 0.958 . S
C2679 H2694 0.961 . S
C2679 H2695 0.960 . S
H2680 C2664 0.931 . S
H2681 C2669 0.929 . S
H2682 C2670 0.960 . S
H2683 C2670 0.962 . S
H2684 C2670 0.960 . S
H2685 C2671 0.961 . S
H2686 C2671 0.961 . S
H2687 C2671 0.961 . S
H2688 C2672 0.931 . S
H2689 C2677 0.930 . S
H2690 C2678 0.956 . S
H2691 C2678 0.961 . S
H2692 C2678 0.961 . S
H2693 C2679 0.958 . S
H2694 C2679 0.961 . S
H2695 C2679 0.960 . S
C2696 C2697 1.391 . S
C2696 C2698 1.394 . S
C2696 H2712 0.931 . S
C2697 C2696 1.391 . S
C2697 C2701 1.376 . S
C2698 C2696 1.394 . S
C2698 C2699 1.369 . S
C2698 C2702 1.531 . S
C2699 C2698 1.369 . S
C2699 C2700 1.410 . S
C2699 C2707 1.503 . S
C2700 C2699 1.410 . S
C2700 C2701 1.392 . S
C2700 C2703 1.511 . S
C2701 C2697 1.376 . S
C2701 C2700 1.392 . S
C2701 H2713 0.929 . S
C2702 C2698 1.531 . S
C2702 H2714 0.960 . S
C2702 H2715 0.962 . S
C2702 H2716 0.960 . S
C2703 C2700 1.511 . S
C2703 H2717 0.961 . S
C2703 H2718 0.961 . S
C2703 H2719 0.961 . S
C2704 C2705 1.370 . S
C2704 C2706 1.363 . S
C2704 H2720 0.931 . S
C2705 C2704 1.370 . S
C2705 C2709 1.408 . S
C2706 C2704 1.363 . S
C2706 C2707 1.370 . S
C2706 C2710 1.524 . S
C2707 C2699 1.503 . S
C2707 C2706 1.370 . S
C2707 C2708 1.403 . S
C2708 C2707 1.403 . S
C2708 C2709 1.404 . S
C2708 C2711 1.539 . S
C2709 C2705 1.408 . S
C2709 C2708 1.404 . S
C2709 H2721 0.930 . S
C2710 C2706 1.524 . S
C2710 H2722 0.956 . S
C2710 H2723 0.961 . S
C2710 H2724 0.961 . S
C2711 C2708 1.539 . S
C2711 H2725 0.958 . S
C2711 H2726 0.961 . S
C2711 H2727 0.960 . S
H2712 C2696 0.931 . S
H2713 C2701 0.929 . S
H2714 C2702 0.960 . S
H2715 C2702 0.962 . S
H2716 C2702 0.960 . S
H2717 C2703 0.961 . S
H2718 C2703 0.961 . S
H2719 C2703 0.961 . S
H2720 C2704 0.931 . S
H2721 C2709 0.930 . S
H2722 C2710 0.956 . S
H2723 C2710 0.961 . S
H2724 C2710 0.961 . S
H2725 C2711 0.958 . S
H2726 C2711 0.961 . S
H2727 C2711 0.960 . S
C2728 C2729 1.391 . S
C2728 C2730 1.394 . S
C2728 H2744 0.931 . S
C2729 C2728 1.391 . S
C2729 C2733 1.376 . S
C2730 C2728 1.394 . S
C2730 C2731 1.369 . S
C2730 C2734 1.531 . S
C2731 C2730 1.369 . S
C2731 C2732 1.410 . S
C2731 C2739 1.503 . S
C2732 C2731 1.410 . S
C2732 C2733 1.392 . S
C2732 C2735 1.511 . S
C2733 C2729 1.376 . S
C2733 C2732 1.392 . S
C2733 H2745 0.929 . S
C2734 C2730 1.531 . S
C2734 H2746 0.960 . S
C2734 H2747 0.962 . S
C2734 H2748 0.960 . S
C2735 C2732 1.511 . S
C2735 H2749 0.961 . S
C2735 H2750 0.961 . S
C2735 H2751 0.961 . S
C2736 C2737 1.370 . S
C2736 C2738 1.363 . S
C2736 H2752 0.931 . S
C2737 C2736 1.370 . S
C2737 C2741 1.408 . S
C2738 C2736 1.363 . S
C2738 C2739 1.370 . S
C2738 C2742 1.524 . S
C2739 C2731 1.503 . S
C2739 C2738 1.370 . S
C2739 C2740 1.403 . S
C2740 C2739 1.403 . S
C2740 C2741 1.404 . S
C2740 C2743 1.539 . S
C2741 C2737 1.408 . S
C2741 C2740 1.404 . S
C2741 H2753 0.930 . S
C2742 C2738 1.524 . S
C2742 H2754 0.956 . S
C2742 H2755 0.961 . S
C2742 H2756 0.961 . S
C2743 C2740 1.539 . S
C2743 H2757 0.958 . S
C2743 H2758 0.961 . S
C2743 H2759 0.960 . S
H2744 C2728 0.931 . S
H2745 C2733 0.929 . S
H2746 C2734 0.960 . S
H2747 C2734 0.962 . S
H2748 C2734 0.960 . S
H2749 C2735 0.961 . S
H2750 C2735 0.961 . S
H2751 C2735 0.961 . S
H2752 C2736 0.931 . S
H2753 C2741 0.930 . S
H2754 C2742 0.956 . S
H2755 C2742 0.961 . S
H2756 C2742 0.961 . S
H2757 C2743 0.958 . S
H2758 C2743 0.961 . S
H2759 C2743 0.960 . S
C2760 C2761 1.391 . S
C2760 C2762 1.394 . S
C2760 H2776 0.931 . S
C2761 C2760 1.391 . S
C2761 C2765 1.376 . S
C2762 C2760 1.394 . S
C2762 C2763 1.369 . S
C2762 C2766 1.531 . S
C2763 C2762 1.369 . S
C2763 C2764 1.410 . S
C2763 C2771 1.503 . S
C2764 C2763 1.410 . S
C2764 C2765 1.392 . S
C2764 C2767 1.511 . S
C2765 C2761 1.376 . S
C2765 C2764 1.392 . S
C2765 H2777 0.929 . S
C2766 C2762 1.531 . S
C2766 H2778 0.960 . S
C2766 H2779 0.962 . S
C2766 H2780 0.960 . S
C2767 C2764 1.511 . S
C2767 H2781 0.961 . S
C2767 H2782 0.961 . S
C2767 H2783 0.961 . S
C2768 C2769 1.370 . S
C2768 C2770 1.363 . S
C2768 H2784 0.931 . S
C2769 C2768 1.370 . S
C2769 C2773 1.408 . S
C2770 C2768 1.363 . S
C2770 C2771 1.370 . S
C2770 C2774 1.524 . S
C2771 C2763 1.503 . S
C2771 C2770 1.370 . S
C2771 C2772 1.403 . S
C2772 C2771 1.403 . S
C2772 C2773 1.404 . S
C2772 C2775 1.539 . S
C2773 C2769 1.408 . S
C2773 C2772 1.404 . S
C2773 H2785 0.930 . S
C2774 C2770 1.524 . S
C2774 H2786 0.956 . S
C2774 H2787 0.961 . S
C2774 H2788 0.961 . S
C2775 C2772 1.539 . S
C2775 H2789 0.958 . S
C2775 H2790 0.961 . S
C2775 H2791 0.960 . S
H2776 C2760 0.931 . S
H2777 C2765 0.929 . S
H2778 C2766 0.960 . S
H2779 C2766 0.962 . S
H2780 C2766 0.960 . S
H2781 C2767 0.961 . S
H2782 C2767 0.961 . S
H2783 C2767 0.961 . S
H2784 C2768 0.931 . S
H2785 C2773 0.930 . S
H2786 C2774 0.956 . S
H2787 C2774 0.961 . S
H2788 C2774 0.961 . S
H2789 C2775 0.958 . S
H2790 C2775 0.961 . S
H2791 C2775 0.960 . S
C2792 C2793 1.391 . S
C2792 C2794 1.394 . S
C2792 H2808 0.931 . S
C2793 C2792 1.391 . S
C2793 C2797 1.376 . S
C2794 C2792 1.394 . S
C2794 C2795 1.369 . S
C2794 C2798 1.531 . S
C2795 C2794 1.369 . S
C2795 C2796 1.410 . S
C2795 C2803 1.503 . S
C2796 C2795 1.410 . S
C2796 C2797 1.392 . S
C2796 C2799 1.511 . S
C2797 C2793 1.376 . S
C2797 C2796 1.392 . S
C2797 H2809 0.929 . S
C2798 C2794 1.531 . S
C2798 H2810 0.960 . S
C2798 H2811 0.962 . S
C2798 H2812 0.960 . S
C2799 C2796 1.511 . S
C2799 H2813 0.961 . S
C2799 H2814 0.961 . S
C2799 H2815 0.961 . S
C2800 C2801 1.370 . S
C2800 C2802 1.363 . S
C2800 H2816 0.931 . S
C2801 C2800 1.370 . S
C2801 C2805 1.408 . S
C2802 C2800 1.363 . S
C2802 C2803 1.370 . S
C2802 C2806 1.524 . S
C2803 C2795 1.503 . S
C2803 C2802 1.370 . S
C2803 C2804 1.403 . S
C2804 C2803 1.403 . S
C2804 C2805 1.404 . S
C2804 C2807 1.539 . S
C2805 C2801 1.408 . S
C2805 C2804 1.404 . S
C2805 H2817 0.930 . S
C2806 C2802 1.524 . S
C2806 H2818 0.956 . S
C2806 H2819 0.961 . S
C2806 H2820 0.961 . S
C2807 C2804 1.539 . S
C2807 H2821 0.958 . S
C2807 H2822 0.961 . S
C2807 H2823 0.960 . S
H2808 C2792 0.931 . S
H2809 C2797 0.929 . S
H2810 C2798 0.960 . S
H2811 C2798 0.962 . S
H2812 C2798 0.960 . S
H2813 C2799 0.961 . S
H2814 C2799 0.961 . S
H2815 C2799 0.961 . S
H2816 C2800 0.931 . S
H2817 C2805 0.930 . S
H2818 C2806 0.956 . S
H2819 C2806 0.961 . S
H2820 C2806 0.961 . S
H2821 C2807 0.958 . S
H2822 C2807 0.961 . S
H2823 C2807 0.960 . S
C2824 C2825 1.391 . S
C2824 C2826 1.394 . S
C2824 H2840 0.931 . S
C2825 C2824 1.391 . S
C2825 C2829 1.376 . S
C2826 C2824 1.394 . S
C2826 C2827 1.369 . S
C2826 C2830 1.531 . S
C2827 C2826 1.369 . S
C2827 C2828 1.410 . S
C2827 C2835 1.503 . S
C2828 C2827 1.410 . S
C2828 C2829 1.392 . S
C2828 C2831 1.511 . S
C2829 C2825 1.376 . S
C2829 C2828 1.392 . S
C2829 H2841 0.929 . S
C2830 C2826 1.531 . S
C2830 H2842 0.960 . S
C2830 H2843 0.962 . S
C2830 H2844 0.960 . S
C2831 C2828 1.511 . S
C2831 H2845 0.961 . S
C2831 H2846 0.961 . S
C2831 H2847 0.961 . S
C2832 C2833 1.370 . S
C2832 C2834 1.363 . S
C2832 H2848 0.931 . S
C2833 C2832 1.370 . S
C2833 C2837 1.408 . S
C2834 C2832 1.363 . S
C2834 C2835 1.370 . S
C2834 C2838 1.524 . S
C2835 C2827 1.503 . S
C2835 C2834 1.370 . S
C2835 C2836 1.403 . S
C2836 C2835 1.403 . S
C2836 C2837 1.404 . S
C2836 C2839 1.539 . S
C2837 C2833 1.408 . S
C2837 C2836 1.404 . S
C2837 H2849 0.930 . S
C2838 C2834 1.524 . S
C2838 H2850 0.956 . S
C2838 H2851 0.961 . S
C2838 H2852 0.961 . S
C2839 C2836 1.539 . S
C2839 H2853 0.958 . S
C2839 H2854 0.961 . S
C2839 H2855 0.960 . S
H2840 C2824 0.931 . S
H2841 C2829 0.929 . S
H2842 C2830 0.960 . S
H2843 C2830 0.962 . S
H2844 C2830 0.960 . S
H2845 C2831 0.961 . S
H2846 C2831 0.961 . S
H2847 C2831 0.961 . S
H2848 C2832 0.931 . S
H2849 C2837 0.930 . S
H2850 C2838 0.956 . S
H2851 C2838 0.961 . S
H2852 C2838 0.961 . S
H2853 C2839 0.958 . S
H2854 C2839 0.961 . S
H2855 C2839 0.960 . S
C2856 C2857 1.391 . S
C2856 C2858 1.394 . S
C2856 H2872 0.931 . S
C2857 C2856 1.391 . S
C2857 C2861 1.376 . S
C2858 C2856 1.394 . S
C2858 C2859 1.369 . S
C2858 C2862 1.531 . S
C2859 C2858 1.369 . S
C2859 C2860 1.410 . S
C2859 C2867 1.503 . S
C2860 C2859 1.410 . S
C2860 C2861 1.392 . S
C2860 C2863 1.511 . S
C2861 C2857 1.376 . S
C2861 C2860 1.392 . S
C2861 H2873 0.929 . S
C2862 C2858 1.531 . S
C2862 H2874 0.960 . S
C2862 H2875 0.962 . S
C2862 H2876 0.960 . S
C2863 C2860 1.511 . S
C2863 H2877 0.961 . S
C2863 H2878 0.961 . S
C2863 H2879 0.961 . S
C2864 C2865 1.370 . S
C2864 C2866 1.363 . S
C2864 H2880 0.931 . S
C2865 C2864 1.370 . S
C2865 C2869 1.408 . S
C2866 C2864 1.363 . S
C2866 C2867 1.370 . S
C2866 C2870 1.524 . S
C2867 C2859 1.503 . S
C2867 C2866 1.370 . S
C2867 C2868 1.403 . S
C2868 C2867 1.403 . S
C2868 C2869 1.404 . S
C2868 C2871 1.539 . S
C2869 C2865 1.408 . S
C2869 C2868 1.404 . S
C2869 H2881 0.930 . S
C2870 C2866 1.524 . S
C2870 H2882 0.956 . S
C2870 H2883 0.961 . S
C2870 H2884 0.961 . S
C2871 C2868 1.539 . S
C2871 H2885 0.958 . S
C2871 H2886 0.961 . S
C2871 H2887 0.960 . S
H2872 C2856 0.931 . S
H2873 C2861 0.929 . S
H2874 C2862 0.960 . S
H2875 C2862 0.962 . S
H2876 C2862 0.960 . S
H2877 C2863 0.961 . S
H2878 C2863 0.961 . S
H2879 C2863 0.961 . S
H2880 C2864 0.931 . S
H2881 C2869 0.930 . S
H2882 C2870 0.956 . S
H2883 C2870 0.961 . S
H2884 C2870 0.961 . S
H2885 C2871 0.958 . S
H2886 C2871 0.961 . S
H2887 C2871 0.960 . S
C2888 C2889 1.391 . S
C2888 C2890 1.394 . S
C2888 H2904 0.931 . S
C2889 C2888 1.391 . S
C2889 C2893 1.376 . S
C2890 C2888 1.394 . S
C2890 C2891 1.369 . S
C2890 C2894 1.531 . S
C2891 C2890 1.369 . S
C2891 C2892 1.410 . S
C2891 C2899 1.503 . S
C2892 C2891 1.410 . S
C2892 C2893 1.392 . S
C2892 C2895 1.511 . S
C2893 C2889 1.376 . S
C2893 C2892 1.392 . S
C2893 H2905 0.929 . S
C2894 C2890 1.531 . S
C2894 H2906 0.960 . S
C2894 H2907 0.962 . S
C2894 H2908 0.960 . S
C2895 C2892 1.511 . S
C2895 H2909 0.961 . S
C2895 H2910 0.961 . S
C2895 H2911 0.961 . S
C2896 C2897 1.370 . S
C2896 C2898 1.363 . S
C2896 H2912 0.931 . S
C2897 C2896 1.370 . S
C2897 C2901 1.408 . S
C2898 C2896 1.363 . S
C2898 C2899 1.370 . S
C2898 C2902 1.524 . S
C2899 C2891 1.503 . S
C2899 C2898 1.370 . S
C2899 C2900 1.403 . S
C2900 C2899 1.403 . S
C2900 C2901 1.404 . S
C2900 C2903 1.539 . S
C2901 C2897 1.408 . S
C2901 C2900 1.404 . S
C2901 H2913 0.930 . S
C2902 C2898 1.524 . S
C2902 H2914 0.956 . S
C2902 H2915 0.961 . S
C2902 H2916 0.961 . S
C2903 C2900 1.539 . S
C2903 H2917 0.958 . S
C2903 H2918 0.961 . S
C2903 H2919 0.960 . S
H2904 C2888 0.931 . S
H2905 C2893 0.929 . S
H2906 C2894 0.960 . S
H2907 C2894 0.962 . S
H2908 C2894 0.960 . S
H2909 C2895 0.961 . S
H2910 C2895 0.961 . S
H2911 C2895 0.961 . S
H2912 C2896 0.931 . S
H2913 C2901 0.930 . S
H2914 C2902 0.956 . S
H2915 C2902 0.961 . S
H2916 C2902 0.961 . S
H2917 C2903 0.958 . S
H2918 C2903 0.961 . S
H2919 C2903 0.960 . S
C2920 C2921 1.391 . S
C2920 C2922 1.394 . S
C2920 H2936 0.931 . S
C2921 C2920 1.391 . S
C2921 C2925 1.376 . S
C2922 C2920 1.394 . S
C2922 C2923 1.369 . S
C2922 C2926 1.531 . S
C2923 C2922 1.369 . S
C2923 C2924 1.410 . S
C2923 C2931 1.503 . S
C2924 C2923 1.410 . S
C2924 C2925 1.392 . S
C2924 C2927 1.511 . S
C2925 C2921 1.376 . S
C2925 C2924 1.392 . S
C2925 H2937 0.929 . S
C2926 C2922 1.531 . S
C2926 H2938 0.960 . S
C2926 H2939 0.962 . S
C2926 H2940 0.960 . S
C2927 C2924 1.511 . S
C2927 H2941 0.961 . S
C2927 H2942 0.961 . S
C2927 H2943 0.961 . S
C2928 C2929 1.370 . S
C2928 C2930 1.363 . S
C2928 H2944 0.931 . S
C2929 C2928 1.370 . S
C2929 C2933 1.408 . S
C2930 C2928 1.363 . S
C2930 C2931 1.370 . S
C2930 C2934 1.524 . S
C2931 C2923 1.503 . S
C2931 C2930 1.370 . S
C2931 C2932 1.403 . S
C2932 C2931 1.403 . S
C2932 C2933 1.404 . S
C2932 C2935 1.539 . S
C2933 C2929 1.408 . S
C2933 C2932 1.404 . S
C2933 H2945 0.930 . S
C2934 C2930 1.524 . S
C2934 H2946 0.956 . S
C2934 H2947 0.961 . S
C2934 H2948 0.961 . S
C2935 C2932 1.539 . S
C2935 H2949 0.958 . S
C2935 H2950 0.961 . S
C2935 H2951 0.960 . S
H2936 C2920 0.931 . S
H2937 C2925 0.929 . S
H2938 C2926 0.960 . S
H2939 C2926 0.962 . S
H2940 C2926 0.960 . S
H2941 C2927 0.961 . S
H2942 C2927 0.961 . S
H2943 C2927 0.961 . S
H2944 C2928 0.931 . S
H2945 C2933 0.930 . S
H2946 C2934 0.956 . S
H2947 C2934 0.961 . S
H2948 C2934 0.961 . S
H2949 C2935 0.958 . S
H2950 C2935 0.961 . S
H2951 C2935 0.960 . S
C1417 C890 1.392 . S
C1425 C3 1.395 . S
C1449 C711 1.385 . S
C1457 C64 1.395 . S
C1481 C770 1.402 . S
C1489 C121 1.401 . S
C1513 C831 1.394 . S
C1521 C180 1.392 . S
C1545 C829 1.389 . S
C1553 C62 1.397 . S
C1577 C123 1.399 . S
C1585 C888 1.394 . S
C1609 C713 1.390 . S
C1617 C182 1.391 . S
C1641 C772 1.388 . S
C1649 C5 1.392 . S
C1673 C1067 1.389 . S
C1681 C241 1.390 . S
C1705 C298 1.399 . S
C1713 C1124 1.404 . S
C1737 C359 1.382 . S
C1745 C949 1.387 . S
C1769 C1006 1.407 . S
C1777 C416 1.406 . S
C1801 C1301 1.400 . S
C1809 C475 1.404 . S
C1833 C536 1.389 . S
C1841 C1362 1.390 . S
C1865 C593 1.407 . S
C1873 C1183 1.406 . S
C1897 C654 1.389 . S
C1905 C1244 1.390 . S
C1929 C1008 1.394 . S
C1937 C652 1.396 . S
C1961 C1360 1.390 . S
C1969 C300 1.399 . S
C1993 C357 1.391 . S
C2001 C1185 1.396 . S
C2025 C1242 1.396 . S
C2033 C418 1.399 . S
C2057 C1303 1.388 . S
C2065 C239 1.394 . S
C2089 C534 1.400 . S
C2097 C1126 1.399 . S
C2121 C947 1.388 . S
C2129 C595 1.396 . S
C2153 C1065 1.397 . S
C2161 C477 1.400 . S
C2185 C33 1.052 . S
C2193 C269 1.041 . S
C2217 C347 1.040 . S
C2225 C111 1.042 . S
C2249 C151 1.009 . S
C2257 C387 1.025 . S
C2281 C210 1.046 . S
C2289 C465 1.043 . S
C2313 C524 1.039 . S
C2321 C92 1.036 . S
C2345 C564 1.055 . S
C2353 C170 1.045 . S
C2377 C642 1.033 . S
C2385 C229 1.037 . S
C2409 C52 1.027 . S
C2417 C682 1.027 . S
C2441 C701 1.018 . S
C2449 C288 1.029 . S
C2473 C328 1.013 . S
C2481 C505 1.029 . S
C2505 C406 1.041 . S
C2513 C583 1.038 . S
C2537 C623 1.049 . S
C2545 C446 1.044 . S
C2569 C977 1.005 . S
C2577 C760 1.029 . S
C2601 C1055 1.040 . S
C2609 C819 1.042 . S
C2633 C859 1.018 . S
C2641 C1095 1.032 . S
C2665 C918 1.056 . S
C2673 C1173 1.045 . S
C2697 C800 1.042 . S
C2705 C1232 1.041 . S
C2729 C878 1.032 . S
C2737 C1272 1.034 . S
C2761 C1350 1.028 . S
C2769 C937 1.037 . S
C2793 C741 1.049 . S
C2801 C1390 1.041 . S
C2825 C996 1.020 . S
C2833 C1409 1.031 . S
C2857 C1213 1.019 . S
C2865 C1036 1.028 . S
C2889 C1114 1.018 . S
C2897 C1291 1.029 . S
C2921 C1331 1.016 . S
C2929 C1154 1.028 . S
