# Generated by pormake.
# Topology unu, (4)-cn, num edge types: 1
# Building blocks:
#     Node 0, Type 0, BuildingBlock: GALJAG_clean_sbu_0, # of connection points: 4
#     Node 1, Type 0, BuildingBlock: GALJAG_clean_sbu_0, # of connection points: 4
#     Node 2, Type 0, BuildingBlock: GALJAG_clean_sbu_0, # of connection points: 4
#     Node 3, Type 0, BuildingBlock: GALJAG_clean_sbu_0, # of connection points: 4
#     Node 4, Type 0, BuildingBlock: GALJAG_clean_sbu_0, # of connection points: 4
#     Node 5, Type 0, BuildingBlock: GALJAG_clean_sbu_0, # of connection points: 4
#     Node 6, Type 0, BuildingBlock: GALJAG_clean_sbu_0, # of connection points: 4
#     Node 7, Type 0, BuildingBlock: GALJAG_clean_sbu_0, # of connection points: 4
#     Node 8, Type 0, BuildingBlock: GALJAG_clean_sbu_0, # of connection points: 4
#     Node 9, Type 0, BuildingBlock: GALJAG_clean_sbu_0, # of connection points: 4
#     Node 10, Type 0, BuildingBlock: GALJAG_clean_sbu_0, # of connection points: 4
#     Node 11, Type 0, BuildingBlock: GALJAG_clean_sbu_0, # of connection points: 4
#     Node 12, Type 0, BuildingBlock: GALJAG_clean_sbu_0, # of connection points: 4
#     Node 13, Type 0, BuildingBlock: GALJAG_clean_sbu_0, # of connection points: 4
#     Node 14, Type 0, BuildingBlock: GALJAG_clean_sbu_0, # of connection points: 4
#     Node 15, Type 0, BuildingBlock: GALJAG_clean_sbu_0, # of connection points: 4
#     Node 16, Type 0, BuildingBlock: GALJAG_clean_sbu_0, # of connection points: 4
#     Node 17, Type 0, BuildingBlock: GALJAG_clean_sbu_0, # of connection points: 4
#     Node 18, Type 0, BuildingBlock: GALJAG_clean_sbu_0, # of connection points: 4
#     Node 19, Type 0, BuildingBlock: GALJAG_clean_sbu_0, # of connection points: 4
#     Node 20, Type 0, BuildingBlock: GALJAG_clean_sbu_0, # of connection points: 4
#     Node 21, Type 0, BuildingBlock: GALJAG_clean_sbu_0, # of connection points: 4
#     Node 22, Type 0, BuildingBlock: GALJAG_clean_sbu_0, # of connection points: 4
#     Node 23, Type 0, BuildingBlock: GALJAG_clean_sbu_0, # of connection points: 4
#     Node 24, Type 0, BuildingBlock: GALJAG_clean_sbu_0, # of connection points: 4
#     Node 25, Type 0, BuildingBlock: GALJAG_clean_sbu_0, # of connection points: 4
#     Node 26, Type 0, BuildingBlock: GALJAG_clean_sbu_0, # of connection points: 4
#     Node 27, Type 0, BuildingBlock: GALJAG_clean_sbu_0, # of connection points: 4
#     Node 28, Type 0, BuildingBlock: GALJAG_clean_sbu_0, # of connection points: 4
#     Node 29, Type 0, BuildingBlock: GALJAG_clean_sbu_0, # of connection points: 4
#     Node 30, Type 0, BuildingBlock: GALJAG_clean_sbu_0, # of connection points: 4
#     Node 31, Type 0, BuildingBlock: GALJAG_clean_sbu_0, # of connection points: 4
#     Node 32, Type 0, BuildingBlock: GALJAG_clean_sbu_0, # of connection points: 4
#     Node 33, Type 0, BuildingBlock: GALJAG_clean_sbu_0, # of connection points: 4
#     Node 34, Type 0, BuildingBlock: GALJAG_clean_sbu_0, # of connection points: 4
#     Node 35, Type 0, BuildingBlock: GALJAG_clean_sbu_0, # of connection points: 4
#     Edge 36, Type (0, 0), BuildingBlock: OJICUG_clean_linker_0, # of connection points: 2
#     Edge 37, Type (0, 0), BuildingBlock: OJICUG_clean_linker_0, # of connection points: 2
#     Edge 38, Type (0, 0), BuildingBlock: OJICUG_clean_linker_0, # of connection points: 2
#     Edge 39, Type (0, 0), BuildingBlock: OJICUG_clean_linker_0, # of connection points: 2
#     Edge 40, Type (0, 0), BuildingBlock: OJICUG_clean_linker_0, # of connection points: 2
#     Edge 41, Type (0, 0), BuildingBlock: OJICUG_clean_linker_0, # of connection points: 2
#     Edge 42, Type (0, 0), BuildingBlock: OJICUG_clean_linker_0, # of connection points: 2
#     Edge 43, Type (0, 0), BuildingBlock: OJICUG_clean_linker_0, # of connection points: 2
#     Edge 44, Type (0, 0), BuildingBlock: OJICUG_clean_linker_0, # of connection points: 2
#     Edge 45, Type (0, 0), BuildingBlock: OJICUG_clean_linker_0, # of connection points: 2
#     Edge 46, Type (0, 0), BuildingBlock: OJICUG_clean_linker_0, # of connection points: 2
#     Edge 47, Type (0, 0), BuildingBlock: OJICUG_clean_linker_0, # of connection points: 2
#     Edge 48, Type (0, 0), BuildingBlock: OJICUG_clean_linker_0, # of connection points: 2
#     Edge 49, Type (0, 0), BuildingBlock: OJICUG_clean_linker_0, # of connection points: 2
#     Edge 50, Type (0, 0), BuildingBlock: OJICUG_clean_linker_0, # of connection points: 2
#     Edge 51, Type (0, 0), BuildingBlock: OJICUG_clean_linker_0, # of connection points: 2
#     Edge 52, Type (0, 0), BuildingBlock: OJICUG_clean_linker_0, # of connection points: 2
#     Edge 53, Type (0, 0), BuildingBlock: OJICUG_clean_linker_0, # of connection points: 2
#     Edge 54, Type (0, 0), BuildingBlock: OJICUG_clean_linker_0, # of connection points: 2
#     Edge 55, Type (0, 0), BuildingBlock: OJICUG_clean_linker_0, # of connection points: 2
#     Edge 56, Type (0, 0), BuildingBlock: OJICUG_clean_linker_0, # of connection points: 2
#     Edge 57, Type (0, 0), BuildingBlock: OJICUG_clean_linker_0, # of connection points: 2
#     Edge 58, Type (0, 0), BuildingBlock: OJICUG_clean_linker_0, # of connection points: 2
#     Edge 59, Type (0, 0), BuildingBlock: OJICUG_clean_linker_0, # of connection points: 2
#     Edge 60, Type (0, 0), BuildingBlock: OJICUG_clean_linker_0, # of connection points: 2
#     Edge 61, Type (0, 0), BuildingBlock: OJICUG_clean_linker_0, # of connection points: 2
#     Edge 62, Type (0, 0), BuildingBlock: OJICUG_clean_linker_0, # of connection points: 2
#     Edge 63, Type (0, 0), BuildingBlock: OJICUG_clean_linker_0, # of connection points: 2
#     Edge 64, Type (0, 0), BuildingBlock: OJICUG_clean_linker_0, # of connection points: 2
#     Edge 65, Type (0, 0), BuildingBlock: OJICUG_clean_linker_0, # of connection points: 2
#     Edge 66, Type (0, 0), BuildingBlock: OJICUG_clean_linker_0, # of connection points: 2
#     Edge 67, Type (0, 0), BuildingBlock: OJICUG_clean_linker_0, # of connection points: 2
#     Edge 68, Type (0, 0), BuildingBlock: OJICUG_clean_linker_0, # of connection points: 2
#     Edge 69, Type (0, 0), BuildingBlock: OJICUG_clean_linker_0, # of connection points: 2
#     Edge 70, Type (0, 0), BuildingBlock: OJICUG_clean_linker_0, # of connection points: 2
#     Edge 71, Type (0, 0), BuildingBlock: OJICUG_clean_linker_0, # of connection points: 2
#     Edge 72, Type (0, 0), BuildingBlock: OJICUG_clean_linker_0, # of connection points: 2
#     Edge 73, Type (0, 0), BuildingBlock: OJICUG_clean_linker_0, # of connection points: 2
#     Edge 74, Type (0, 0), BuildingBlock: OJICUG_clean_linker_0, # of connection points: 2
#     Edge 75, Type (0, 0), BuildingBlock: OJICUG_clean_linker_0, # of connection points: 2
#     Edge 76, Type (0, 0), BuildingBlock: OJICUG_clean_linker_0, # of connection points: 2
#     Edge 77, Type (0, 0), BuildingBlock: OJICUG_clean_linker_0, # of connection points: 2
#     Edge 78, Type (0, 0), BuildingBlock: OJICUG_clean_linker_0, # of connection points: 2
#     Edge 79, Type (0, 0), BuildingBlock: OJICUG_clean_linker_0, # of connection points: 2
#     Edge 80, Type (0, 0), BuildingBlock: OJICUG_clean_linker_0, # of connection points: 2
#     Edge 81, Type (0, 0), BuildingBlock: OJICUG_clean_linker_0, # of connection points: 2
#     Edge 82, Type (0, 0), BuildingBlock: OJICUG_clean_linker_0, # of connection points: 2
#     Edge 83, Type (0, 0), BuildingBlock: OJICUG_clean_linker_0, # of connection points: 2
#     Edge 84, Type (0, 0), BuildingBlock: OJICUG_clean_linker_0, # of connection points: 2
#     Edge 85, Type (0, 0), BuildingBlock: OJICUG_clean_linker_0, # of connection points: 2
#     Edge 86, Type (0, 0), BuildingBlock: OJICUG_clean_linker_0, # of connection points: 2
#     Edge 87, Type (0, 0), BuildingBlock: OJICUG_clean_linker_0, # of connection points: 2
#     Edge 88, Type (0, 0), BuildingBlock: OJICUG_clean_linker_0, # of connection points: 2
#     Edge 89, Type (0, 0), BuildingBlock: OJICUG_clean_linker_0, # of connection points: 2
#     Edge 90, Type (0, 0), BuildingBlock: OJICUG_clean_linker_0, # of connection points: 2
#     Edge 91, Type (0, 0), BuildingBlock: OJICUG_clean_linker_0, # of connection points: 2
#     Edge 92, Type (0, 0), BuildingBlock: OJICUG_clean_linker_0, # of connection points: 2
#     Edge 93, Type (0, 0), BuildingBlock: OJICUG_clean_linker_0, # of connection points: 2
#     Edge 94, Type (0, 0), BuildingBlock: OJICUG_clean_linker_0, # of connection points: 2
#     Edge 95, Type (0, 0), BuildingBlock: OJICUG_clean_linker_0, # of connection points: 2
#     Edge 96, Type (0, 0), BuildingBlock: OJICUG_clean_linker_0, # of connection points: 2
#     Edge 97, Type (0, 0), BuildingBlock: OJICUG_clean_linker_0, # of connection points: 2
#     Edge 98, Type (0, 0), BuildingBlock: OJICUG_clean_linker_0, # of connection points: 2
#     Edge 99, Type (0, 0), BuildingBlock: OJICUG_clean_linker_0, # of connection points: 2
#     Edge 100, Type (0, 0), BuildingBlock: OJICUG_clean_linker_0, # of connection points: 2
#     Edge 101, Type (0, 0), BuildingBlock: OJICUG_clean_linker_0, # of connection points: 2
#     Edge 102, Type (0, 0), BuildingBlock: OJICUG_clean_linker_0, # of connection points: 2
#     Edge 103, Type (0, 0), BuildingBlock: OJICUG_clean_linker_0, # of connection points: 2
#     Edge 104, Type (0, 0), BuildingBlock: OJICUG_clean_linker_0, # of connection points: 2
#     Edge 105, Type (0, 0), BuildingBlock: OJICUG_clean_linker_0, # of connection points: 2
#     Edge 106, Type (0, 0), BuildingBlock: OJICUG_clean_linker_0, # of connection points: 2
#     Edge 107, Type (0, 0), BuildingBlock: OJICUG_clean_linker_0, # of connection points: 2
# Relax obj value: 0.103
# Max RMSD: 0.228
# Mean RMSD: 0.228
data_MOF--net-unu--node1-GALJAG_clean_sbu_0--edge1-OJICUG_clean_linker_0
_symmetry_space_group_name_H-M    P1
_symmetry_Int_Tables_number       1
_symmetry_cell_setting            triclinic
loop_
_symmetry_equiv_pos_as_xyz
'x, y, z'
_cell_length_a     33.806098
_cell_length_b     33.787484
_cell_length_c     51.496956
_cell_angle_alpha  89.973859
_cell_angle_beta   89.998069
_cell_angle_gamma 119.9935
loop_
_atom_site_label
_atom_site_type_symbol
_atom_site_fract_x
_atom_site_fract_y
_atom_site_fract_z
_atom_type_partial_charge
In0 In 0.18059 0.01657 0.11372 0.0
O1 O 0.21366 0.00358 0.07868 0.0
O2 O 0.21737 0.97682 0.11593 0.0
C3 C 0.13963 0.06648 0.11259 0.0
C4 C 0.25273 0.08371 0.13719 0.0
C5 C 0.10041 0.93953 0.11664 0.0
O6 O 0.15485 0.05828 0.09182 0.0
O7 O 0.14567 0.04972 0.13318 0.0
O8 O 0.12583 0.95661 0.13649 0.0
O9 O 0.11667 0.96059 0.09548 0.0
C10 C 0.22771 0.98128 0.09204 0.0
O11 O 0.22356 0.04855 0.14963 0.0
O12 O 0.24549 0.0839 0.11303 0.0
In13 In 0.93905 0.14066 0.12229 0.0
O14 O 0.9445 0.18365 0.08689 0.0
O15 O 0.97996 0.21733 0.12187 0.0
C16 C 0.88601 0.05006 0.12245 0.0
C17 C 0.88059 0.1497 0.1527 0.0
C18 C 0.01494 0.13512 0.11846 0.0
O19 O 0.89051 0.07322 0.102 0.0
O20 O 0.90799 0.07295 0.1421 0.0
O21 O 0.00309 0.14518 0.1398 0.0
O22 O 0.98925 0.12959 0.0993 0.0
C23 C 0.97033 0.22109 0.09857 0.0
O24 O 0.91833 0.15543 0.16144 0.0
O25 O 0.87357 0.14065 0.12869 0.0
In26 In 0.81705 0.77788 0.13071 0.0
O27 O 0.77274 0.73663 0.0965 0.0
O28 O 0.74001 0.73758 0.13191 0.0
C29 C 0.9074 0.81728 0.12425 0.0
C30 C 0.81746 0.71813 0.1643 0.0
C31 C 0.81784 0.85742 0.12814 0.0
O32 O 0.88008 0.7955 0.10579 0.0
O33 O 0.88875 0.81882 0.14518 0.0
O34 O 0.81175 0.83622 0.14947 0.0
O35 O 0.82175 0.83745 0.1084 0.0
C36 C 0.7356 0.72354 0.10875 0.0
O37 O 0.80966 0.74951 0.17161 0.0
O38 O 0.82293 0.71622 0.14011 0.0
In39 In 0.04345 0.21139 0.35163 0.0
O40 O 0.04402 0.24928 0.38835 0.0
O41 O -0.003 0.24016 0.35778 0.0
C42 C 0.10635 0.18562 0.34834 0.0
C43 C 0.08401 0.27929 0.31767 0.0
C44 C 0.97396 0.12675 0.35964 0.0
O45 O 0.10141 0.20332 0.369 0.0
O46 O 0.08034 0.18214 0.3298 0.0
O47 O 0.98001 0.14641 0.33775 0.0
O48 O 0.002 0.15051 0.37714 0.0
C49 C 0.01281 0.25651 0.37997 0.0
O50 O 0.04889 0.24179 0.31132 0.0
O51 O 0.09795 0.28156 0.34073 0.0
In52 In 0.82924 0.84296 0.37835 0.0
O53 O 0.77148 0.82369 0.34986 0.0
O54 O 0.76527 0.84327 0.38889 0.0
C55 C 0.91093 0.85195 0.36903 0.0
C56 C 0.78992 0.76175 0.4013 0.0
C57 C 0.86447 0.93271 0.37486 0.0
O58 O 0.88106 0.84053 0.35116 0.0
O59 O 0.89826 0.85642 0.3915 0.0
O60 O 0.85763 0.91299 0.3969 0.0
O61 O 0.85304 0.90674 0.35517 0.0
C62 C 0.74742 0.83018 0.36659 0.0
O63 O 0.80665 0.79859 0.41449 0.0
O64 O 0.79527 0.76666 0.37688 0.0
In65 In 0.19272 0.99573 0.33972 0.0
O66 O 0.20163 0.98161 0.29703 0.0
O67 O 0.20774 0.9411 0.32701 0.0
C68 C 0.18706 0.07241 0.34148 0.0
C69 C 0.27108 0.02348 0.36594 0.0
C70 C 0.10363 0.93501 0.34907 0.0
O71 O 0.19341 0.05722 0.32035 0.0
O72 O 0.18521 0.04979 0.36137 0.0
O73 O 0.1339 0.94644 0.36645 0.0
O74 O 0.11865 0.95324 0.32724 0.0
C75 C 0.20891 0.94945 0.30306 0.0
O76 O 0.23245 0.99524 0.3754 0.0
O77 O 0.26993 0.03803 0.34348 0.0
In78 In 0.78671 0.94682 0.79656 0.0
O79 O 0.75072 0.95131 0.83273 0.0
O80 O 0.75372 0.9903 0.79907 0.0
C81 C 0.81648 0.88706 0.79745 0.0
C82 C 0.71647 0.89403 0.76652 0.0
C83 C 0.86937 0.02049 0.80084 0.0
O84 O 0.80012 0.8952 0.81767 0.0
O85 O 0.81754 0.90907 0.77735 0.0
O86 O 0.849 0.00906 0.77904 0.0
O87 O 0.84737 0.99535 0.81981 0.0
C88 C 0.74015 0.97882 0.82223 0.0
O89 O 0.75057 0.92998 0.75744 0.0
O90 O 0.71863 0.88594 0.79032 0.0
In91 In 0.01238 0.81134 0.79293 0.0
O92 O 0.01112 0.76768 0.82716 0.0
O93 O 0.97821 0.73426 0.79181 0.0
C94 C 0.05978 0.90145 0.80178 0.0
C95 C 0.07428 0.81482 0.75958 0.0
C96 C 0.93269 0.81024 0.79447 0.0
O97 O 0.05576 0.87291 0.81918 0.0
O98 O 0.03999 0.88411 0.78051 0.0
O99 O 0.95084 0.80868 0.77323 0.0
O100 O 0.95404 0.81054 0.81466 0.0
C101 C 0.98828 0.7303 0.81493 0.0
O102 O 0.03295 0.79843 0.75276 0.0
O103 O 0.08323 0.82748 0.78295 0.0
In104 In 0.14997 0.17761 0.82351 0.0
O105 O 0.1669 0.24045 0.80037 0.0
O106 O 0.14755 0.23697 0.8408 0.0
C107 C 0.13945 0.09543 0.81677 0.0
C108 C 0.23351 0.21422 0.84223 0.0
C109 C 0.06127 0.14083 0.81634 0.0
O110 O 0.15092 0.12391 0.79805 0.0
O111 O 0.13555 0.10974 0.83895 0.0
O112 O 0.07862 0.14741 0.83907 0.0
O113 O 0.0893 0.15387 0.79745 0.0
C114 C 0.15986 0.25976 0.81975 0.0
O115 O 0.1985 0.19757 0.85699 0.0
O116 O 0.22575 0.2108 0.81789 0.0
In117 In 0.96949 0.79696 0.69347 0.0
O118 O 0.97605 0.75813 0.65926 0.0
O119 O 0.00458 0.75516 0.69594 0.0
C120 C 0.92422 0.84226 0.68857 0.0
C121 C 0.89985 0.73376 0.72074 0.0
C122 C 0.04855 0.87571 0.69183 0.0
O123 O 0.92772 0.81986 0.66964 0.0
O124 O 0.94396 0.84174 0.70939 0.0
O125 O 0.03194 0.85488 0.71315 0.0
O126 O 0.02599 0.85552 0.6717 0.0
C127 C -0.00216 0.74322 0.67231 0.0
O128 O 0.93915 0.7568 0.731 0.0
O129 O 0.89709 0.74121 0.69692 0.0
In130 In 0.20014 0.15972 0.68965 0.0
O131 O 0.2375 0.20176 0.6539 0.0
O132 O 0.23548 0.23658 0.68828 0.0
C133 C 0.16666 0.06933 0.68859 0.0
C134 C 0.26824 0.17195 0.72029 0.0
C135 C 0.11835 0.15302 0.6859 0.0
O136 O 0.1841 0.09377 0.66842 0.0
O137 O 0.16639 0.09073 0.70865 0.0
O138 O 0.13972 0.16243 0.7074 0.0
O139 O 0.13912 0.14852 0.66673 0.0
C140 C 0.24908 0.23959 0.66506 0.0
O141 O 0.23506 0.1756 0.72918 0.0
O142 O 0.26657 0.1631 0.69629 0.0
In143 In 0.83521 0.03039 0.6753 0.0
O144 O 0.81954 0.06619 0.70741 0.0
O145 O 0.83556 0.09589 0.66904 0.0
C146 C 0.84366 0.95683 0.68073 0.0
C147 C 0.75448 0.99012 0.65175 0.0
C148 C 0.92545 0.08252 0.6769 0.0
O149 O 0.83361 0.97385 0.69999 0.0
O150 O 0.84691 0.97577 0.65897 0.0
O151 O 0.90394 0.07257 0.65536 0.0
O152 O 0.90099 0.06656 0.69706 0.0
C153 C 0.82555 0.09883 0.69243 0.0
O154 O 0.79161 0.01284 0.63913 0.0
O155 O 0.75869 0.98729 0.67608 0.0
In156 In 0.88072 0.36948 0.46444 0.0
O157 O 0.91807 0.36923 0.42777 0.0
O158 O 0.9197 0.33182 0.46106 0.0
C159 C 0.84209 0.42157 0.46479 0.0
C160 C 0.9446 0.42529 0.4977 0.0
C161 C 0.80053 0.29219 0.45933 0.0
O162 O 0.86304 0.41939 0.44478 0.0
O163 O 0.84105 0.39762 0.48391 0.0
O164 O 0.82198 0.30323 0.4808 0.0
O165 O 0.82048 0.31942 0.44074 0.0
C166 C 0.93147 0.34351 0.43771 0.0
O167 O 0.91305 0.38584 0.50462 0.0
O168 O 0.94439 0.43506 0.47397 0.0
In169 In 0.64446 0.49899 0.46825 0.0
O170 O 0.61916 0.50827 0.50738 0.0
O171 O 0.57831 0.49876 0.47351 0.0
C172 C 0.71997 0.49265 0.4684 0.0
C173 C 0.68375 0.58223 0.44697 0.0
C174 C 0.59175 0.40902 0.46138 0.0
O175 O 0.7036 0.49868 0.48929 0.0
O176 O 0.69868 0.49102 0.44789 0.0
O177 O 0.59994 0.43679 0.4427 0.0
O178 O 0.60981 0.42711 0.48286 0.0
C179 C 0.58236 0.5037 0.49793 0.0
O180 O 0.65727 0.54665 0.43399 0.0
O181 O 0.68878 0.57543 0.4706 0.0
In182 In 0.51705 0.13434 0.45076 0.0
O183 O 0.47933 0.10502 0.4124 0.0
O184 O 0.44068 0.09929 0.44658 0.0
C185 C 0.60779 0.17026 0.4509 0.0
C186 C 0.50405 0.06422 0.48064 0.0
C187 C 0.52261 0.21619 0.45324 0.0
O188 O 0.58479 0.1542 0.43014 0.0
O189 O 0.58477 0.16763 0.47079 0.0
O190 O 0.51091 0.18968 0.47275 0.0
O191 O 0.53007 0.20059 0.43268 0.0
C192 C 0.44036 0.0917 0.42252 0.0
O193 O 0.4981 0.09616 0.48915 0.0
O194 O 0.51484 0.06714 0.45688 0.0
In195 In 0.65299 0.51259 0.72497 0.0
O196 O 0.69196 0.58829 0.73593 0.0
O197 O 0.72171 0.54816 0.74598 0.0
C198 C 0.60055 0.45493 0.76309 0.0
C199 C 0.60585 0.54238 0.69602 0.0
C200 C 0.684 0.4636 0.69888 0.0
O201 O 0.58637 0.4543 0.74038 0.0
O202 O 0.64116 0.48624 0.76716 0.0
O203 O 0.70563 0.50658 0.69983 0.0
O204 O 0.64464 0.4457 0.70864 0.0
C205 C 0.72618 0.58744 0.74507 0.0
O206 O 0.59561 0.52809 0.71902 0.0
O207 O 0.64025 0.54162 0.68703 0.0
In208 In 0.4886 0.19266 0.80575 0.0
O209 O 0.45192 0.18755 0.76916 0.0
O210 O 0.41691 0.1812 0.80552 0.0
C211 C 0.57338 0.21434 0.81462 0.0
C212 C 0.45728 0.1033 0.80619 0.0
C213 C 0.51571 0.28033 0.80601 0.0
O214 O 0.55572 0.20457 0.79208 0.0
O215 O 0.54773 0.21261 0.83319 0.0
O216 O 0.4993 0.25666 0.8267 0.0
O217 O 0.5182 0.25948 0.78608 0.0
C218 C 0.41632 0.18229 0.78076 0.0
O219 O 0.44957 0.12257 0.82538 0.0
O220 O 0.48106 0.12954 0.78785 0.0
In221 In 0.81659 0.32997 0.74687 0.0
O222 O 0.87077 0.37187 0.77717 0.0
O223 O 0.89165 0.37666 0.73777 0.0
C224 C 0.75466 0.2947 0.78544 0.0
C225 C 0.82374 0.2597 0.7278 0.0
C226 C 0.7785 0.36729 0.71611 0.0
O227 O 0.77787 0.3373 0.78155 0.0
O228 O 0.76404 0.27108 0.77052 0.0
O229 O 0.75865 0.32527 0.72145 0.0
O230 O 0.81815 0.39008 0.72543 0.0
C231 C 0.90317 0.38881 0.76099 0.0
O232 O 0.81531 0.2848 0.71327 0.0
O233 O 0.82989 0.27116 0.75136 0.0
In234 In 0.46647 0.31427 0.20936 0.0
O235 O 0.42094 0.33518 0.22947 0.0
O236 O 0.44252 0.35842 0.19012 0.0
C237 C 0.50438 0.26347 0.21651 0.0
C238 C 0.39929 0.2428 0.18637 0.0
C239 C 0.54496 0.38454 0.22457 0.0
O240 O 0.48041 0.26791 0.23424 0.0
O241 O 0.50854 0.28466 0.19529 0.0
O242 O 0.53503 0.37535 0.20057 0.0
O243 O 0.51387 0.35934 0.24066 0.0
C244 C 0.41929 0.35738 0.20983 0.0
O245 O 0.43168 0.27483 0.17338 0.0
O246 O 0.40093 0.24785 0.21095 0.0
In247 In 0.68362 0.16523 0.24595 0.0
O248 O 0.70815 0.15372 0.20719 0.0
O249 O 0.74642 0.15819 0.24123 0.0
C250 C 0.61535 0.18142 0.23482 0.0
C251 C 0.63851 0.08218 0.2678 0.0
C252 C 0.74163 0.25149 0.26024 0.0
O253 O 0.63769 0.175 0.21722 0.0
O254 O 0.62663 0.17816 0.25773 0.0
O255 O 0.7198 0.22076 0.2771 0.0
O256 O 0.73465 0.23799 0.23702 0.0
C257 C 0.74267 0.15374 0.21682 0.0
O258 O 0.66653 0.11698 0.28069 0.0
O259 O 0.6339 0.08977 0.24431 0.0
In260 In 0.82163 0.52544 0.26448 0.0
O261 O 0.84126 0.56293 0.22626 0.0
O262 O 0.82459 0.59275 0.25839 0.0
C263 C 0.81229 0.44304 0.26877 0.0
C264 C 0.90203 0.56782 0.28821 0.0
C265 C 0.73281 0.48957 0.25577 0.0
O266 O 0.82848 0.46742 0.24847 0.0
O267 O 0.80143 0.46091 0.28712 0.0
O268 O 0.74919 0.50425 0.27839 0.0
O269 O 0.76119 0.49258 0.23872 0.0
C270 C 0.83503 0.59489 0.23454 0.0
O271 O 0.86707 0.56604 0.29883 0.0
O272 O 0.89572 0.54886 0.26623 0.0
In273 In 0.61987 0.10896 0.90161 0.0
O274 O 0.59948 0.07184 0.9403 0.0
O275 O 0.5533 0.0445 0.90789 0.0
C276 C 0.69615 0.18946 0.89581 0.0
C277 C 0.64952 0.06066 0.87599 0.0
C278 C 0.56941 0.14858 0.90562 0.0
O279 O 0.68623 0.16776 0.91726 0.0
O280 O 0.66811 0.16965 0.87748 0.0
O281 O 0.56899 0.12767 0.88491 0.0
O282 O 0.59531 0.1492 0.92357 0.0
C283 C 0.56074 0.04133 0.93172 0.0
O284 O 0.62385 0.07337 0.86515 0.0
O285 O 0.65932 0.07206 0.89957 0.0
In286 In 0.85984 0.47323 0.88862 0.0
O287 O 0.89349 0.48785 0.92813 0.0
O288 O 0.9246 0.47152 0.89673 0.0
C289 C 0.77953 0.4709 0.88977 0.0
C290 C 0.90875 0.55287 0.86358 0.0
C291 C 0.82079 0.3821 0.8876 0.0
O292 O 0.80501 0.48111 0.90963 0.0
O293 O 0.7955 0.46345 0.86934 0.0
O294 O 0.83851 0.40563 0.86714 0.0
O295 O 0.82332 0.4048 0.90761 0.0
C296 C 0.92522 0.48079 0.92063 0.0
O297 O 0.8952 0.51495 0.85204 0.0
O298 O 0.89784 0.54986 0.88727 0.0
In299 In 0.49797 0.34986 0.90686 0.0
O300 O 0.48637 0.37192 0.94638 0.0
O301 O 0.49622 0.41498 0.91359 0.0
C302 C 0.50163 0.27284 0.91012 0.0
C303 C 0.41559 0.31205 0.88486 0.0
C304 C 0.58756 0.4034 0.89843 0.0
O305 O 0.49974 0.2935 0.93023 0.0
O306 O 0.501 0.29081 0.88875 0.0
O307 O 0.55902 0.39314 0.88001 0.0
O308 O 0.57044 0.38695 0.9203 0.0
C309 C 0.48985 0.40877 0.93783 0.0
O310 O 0.45149 0.33766 0.8719 0.0
O311 O 0.42188 0.30707 0.90855 0.0
In312 In 0.48995 0.70084 0.68099 0.0
O313 O 0.48466 0.63176 0.68324 0.0
O314 O 0.53208 0.67722 0.65585 0.0
C315 C 0.45523 0.74903 0.6581 0.0
C316 C 0.56259 0.76259 0.70721 0.0
C317 C 0.41533 0.65669 0.71017 0.0
O318 O 0.49273 0.76741 0.66997 0.0
O319 O 0.43989 0.70716 0.65334 0.0
O320 O 0.4544 0.68208 0.72007 0.0
O321 O 0.41445 0.65317 0.68574 0.0
C322 C 0.51536 0.63893 0.66715 0.0
O323 O 0.52655 0.73264 0.71835 0.0
O324 O 0.56211 0.76094 0.68266 0.0
In325 In 0.31384 0.83227 0.75246 0.0
O326 O 0.2408 0.79321 0.73723 0.0
O327 O 0.27541 0.86522 0.73414 0.0
C328 C 0.35072 0.81085 0.71142 0.0
C329 C 0.36473 0.91394 0.77681 0.0
C330 C 0.29385 0.77382 0.79303 0.0
O331 O 0.36562 0.85146 0.71889 0.0
O332 O 0.31742 0.78145 0.72449 0.0
O333 O 0.33044 0.78874 0.78023 0.0
O334 O 0.2688 0.78942 0.78578 0.0
C335 C 0.2385 0.82805 0.73113 0.0
O336 O 0.32232 0.88904 0.78015 0.0
O337 O 0.38184 0.89745 0.76141 0.0
In338 In 0.18002 0.51775 0.80282 0.0
O339 O 0.17432 0.46094 0.82998 0.0
O340 O 0.18076 0.45531 0.78913 0.0
C341 C 0.20582 0.5957 0.82902 0.0
C342 C 0.09258 0.4857 0.79041 0.0
C343 C 0.2526 0.56036 0.77174 0.0
O344 O 0.22179 0.56989 0.83446 0.0
O345 O 0.17345 0.5791 0.81292 0.0
O346 O 0.21251 0.54597 0.76327 0.0
O347 O 0.25528 0.55217 0.79535 0.0
C348 C 0.17667 0.43779 0.81125 0.0
O349 O 0.12436 0.50316 0.77374 0.0
O350 O 0.10519 0.4851 0.81351 0.0
In351 In 0.35512 0.84341 0.02797 0.0
O352 O 0.37961 0.87676 0.98852 0.0
O353 O 0.42251 0.90769 0.02176 0.0
C354 C 0.27784 0.76256 0.02808 0.0
C355 C 0.32165 0.89303 0.04891 0.0
C356 C 0.40649 0.80441 0.03363 0.0
O357 O 0.29417 0.78532 0.0073 0.0
O358 O 0.29984 0.78156 0.04854 0.0
O359 O 0.39898 0.82359 0.05279 0.0
O360 O 0.38831 0.80555 0.01242 0.0
C361 C 0.41734 0.90839 0.99743 0.0
O362 O 0.34615 0.88149 0.06205 0.0
O363 O 0.31486 0.8798 0.02553 0.0
In364 In 0.11455 0.47851 0.02619 0.0
O365 O 0.07389 0.43597 0.06113 0.0
O366 O 0.07574 0.40168 0.02651 0.0
C367 C 0.15357 0.56935 0.02855 0.0
C368 C 0.05248 0.47339 0.99242 0.0
C369 C 0.19449 0.48066 0.03065 0.0
O370 O 0.13253 0.54455 0.04808 0.0
O371 O 0.15436 0.548 0.00861 0.0
O372 O 0.1734 0.47223 0.00912 0.0
O373 O 0.17426 0.4863 0.04971 0.0
C374 C 0.06147 0.39829 0.04957 0.0
O375 O 0.08448 0.46621 0.98552 0.0
O376 O 0.05147 0.48156 0.01635 0.0
In377 In 0.47784 0.60181 0.0362 0.0
O378 O 0.49278 0.58203 0.99684 0.0
O379 O 0.47769 0.53612 0.02899 0.0
C380 C 0.47409 0.67908 0.03676 0.0
C381 C 0.55772 0.63248 0.06062 0.0
C382 C 0.38704 0.54873 0.0372 0.0
O383 O 0.48391 0.6648 0.0163 0.0
O384 O 0.4678 0.65506 0.05683 0.0
O385 O 0.41072 0.55486 0.05762 0.0
O386 O 0.40947 0.56905 0.01712 0.0
C387 C 0.48694 0.54397 0.00504 0.0
O388 O 0.52002 0.60748 0.07225 0.0
O389 O 0.5544 0.6415 0.03716 0.0
In390 In 0.13507 0.621 0.60116 0.0
O391 O 0.09894 0.62751 0.63734 0.0
O392 O 0.09623 0.65883 0.60176 0.0
C393 C 0.17397 0.56895 0.60432 0.0
C394 C 0.07059 0.56172 0.56915 0.0
C395 C 0.21499 0.69942 0.59838 0.0
O396 O 0.15709 0.57687 0.62442 0.0
O397 O 0.17088 0.5872 0.58363 0.0
O398 O 0.18904 0.68241 0.57884 0.0
O399 O 0.1997 0.67752 0.61934 0.0
C400 C 0.08501 0.65121 0.62541 0.0
O401 O 0.10211 0.60051 0.5615 0.0
O402 O 0.07083 0.55383 0.59319 0.0
In403 In 0.37317 0.49542 0.59032 0.0
O404 O 0.36799 0.45319 0.6259 0.0
O405 O 0.33312 0.41879 0.59081 0.0
C406 C 0.42073 0.58557 0.58515 0.0
C407 C 0.43518 0.4899 0.56147 0.0
C408 C 0.2974 0.49963 0.5973 0.0
O409 O 0.42218 0.56612 0.60613 0.0
O410 O 0.39535 0.55919 0.56735 0.0
O411 O 0.3062 0.48716 0.57572 0.0
O412 O 0.32627 0.50833 0.61526 0.0
C413 C 0.3423 0.41552 0.61433 0.0
O414 O 0.39654 0.48069 0.55219 0.0
O415 O 0.44115 0.49995 0.58544 0.0
In416 In 0.49606 0.86017 0.57901 0.0
O417 O 0.5082 0.89379 0.53922 0.0
O418 O 0.49588 0.92584 0.57164 0.0
C419 C 0.49129 0.77862 0.57709 0.0
C420 C 0.5772 0.90638 0.60263 0.0
C421 C 0.40646 0.82423 0.58743 0.0
O422 O 0.49416 0.8007 0.55656 0.0
O423 O 0.49216 0.79841 0.59804 0.0
O424 O 0.43515 0.84357 0.60565 0.0
O425 O 0.42343 0.82385 0.56568 0.0
C426 C 0.50305 0.92633 0.5475 0.0
O427 O 0.54013 0.89468 0.61464 0.0
O428 O 0.57288 0.89551 0.57888 0.0
In429 In 0.26752 0.49336 0.22264 0.0
O430 O 0.29458 0.45754 0.19504 0.0
O431 O 0.31192 0.4656 0.23516 0.0
C432 C 0.22785 0.53351 0.19612 0.0
C433 C 0.19928 0.42808 0.2502 0.0
C434 C 0.32808 0.57001 0.24683 0.0
O435 O 0.2687 0.54362 0.19212 0.0
O436 O 0.20581 0.49856 0.21005 0.0
O437 O 0.29467 0.53773 0.25856 0.0
O438 O 0.33101 0.56339 0.22298 0.0
C439 C 0.3151 0.45035 0.21351 0.0
O440 O 0.22772 0.46661 0.25964 0.0
O441 O 0.2045 0.42281 0.2263 0.0
In442 In 0.49721 0.81336 0.32694 0.0
O443 O 0.51869 0.86483 0.29437 0.0
O444 O 0.5369 0.89013 0.3332 0.0
C445 C 0.45216 0.73682 0.29912 0.0
C446 C 0.57246 0.8121 0.34234 0.0
C447 C 0.41856 0.79822 0.34917 0.0
O448 O 0.4704 0.77576 0.2884 0.0
O449 O 0.45856 0.73712 0.32324 0.0
O450 O 0.44065 0.77984 0.35768 0.0
O451 O 0.43894 0.82776 0.33176 0.0
C452 C 0.53869 0.89919 0.30921 0.0
O453 O 0.54822 0.81935 0.35832 0.0
O454 O 0.55799 0.80486 0.3193 0.0
In455 In 0.18013 0.70957 0.2765 0.0
O456 O 0.1125 0.70668 0.28493 0.0
O457 O 0.11945 0.65088 0.29788 0.0
C458 C 0.23682 0.72092 0.31686 0.0
C459 C 0.20408 0.79534 0.26165 0.0
C460 C 0.187 0.66338 0.23478 0.0
O461 O 0.22711 0.69118 0.29946 0.0
O462 O 0.21554 0.7425 0.31486 0.0
O463 O 0.15143 0.64892 0.24831 0.0
O464 O 0.21878 0.70216 0.24158 0.0
C465 C 0.09402 0.66822 0.29591 0.0
O466 O 0.23176 0.78482 0.27146 0.0
O467 O 0.16495 0.76163 0.25711 0.0
C468 C 0.29482 0.12613 0.17707 0.0
C469 C 0.29134 0.12324 0.14991 0.0
H470 H 0.33162 0.16655 0.20994 0.0
C471 C 0.32401 0.15962 0.13482 0.0
H472 H 0.27002 0.09867 0.18917 0.0
C473 C 0.35925 0.19839 0.14666 0.0
C474 C 0.36233 0.20166 0.17382 0.0
H475 H 0.3222 0.15835 0.11382 0.0
H476 H 0.3838 0.22596 0.13453 0.0
C477 C 0.32994 0.16508 0.18893 0.0
C478 C 0.81772 0.15661 0.21185 0.0
C479 C 0.77755 0.15161 0.20061 0.0
H480 H 0.8822 0.16037 0.20545 0.0
C481 C 0.77183 0.14639 0.17361 0.0
H482 H 0.82314 0.16092 0.23263 0.0
C483 C 0.80558 0.14617 0.15812 0.0
C484 C 0.84584 0.15134 0.1693 0.0
H485 H 0.74133 0.14263 0.1644 0.0
H486 H 0.80006 0.14195 0.13735 0.0
C487 C 0.85163 0.15656 0.19631 0.0
C488 C 0.82321 0.6613 0.22647 0.0
C489 C 0.83411 0.6289 0.21695 0.0
H490 H 0.80898 0.71483 0.21724 0.0
C491 C 0.84004 0.6266 0.19014 0.0
H492 H 0.81819 0.66368 0.24706 0.0
C493 C 0.83433 0.65549 0.17312 0.0
C494 C 0.82266 0.68736 0.18256 0.0
H495 H 0.84817 0.60182 0.18221 0.0
H496 H 0.83887 0.65265 0.15252 0.0
C497 C 0.81759 0.69034 0.20941 0.0
C498 C 0.10594 0.31159 0.27266 0.0
C499 C 0.10863 0.31792 0.29969 0.0
H500 H 0.13308 0.3419 0.23551 0.0
C501 C 0.13802 0.36148 0.30991 0.0
H502 H 0.08349 0.27826 0.26435 0.0
C503 C 0.16577 0.39767 0.29358 0.0
C504 C 0.16516 0.39099 0.26666 0.0
H505 H 0.14041 0.36741 0.33067 0.0
H506 H 0.18898 0.4305 0.3022 0.0
C507 C 0.1343 0.3479 0.25623 0.0
C508 C 0.67686 0.83137 0.37995 0.0
C509 C 0.70177 0.82361 0.3607 0.0
H510 H 0.61616 0.83357 0.38934 0.0
C511 C 0.68292 0.81024 0.33581 0.0
H512 H 0.69048 0.84159 0.39938 0.0
C513 C 0.64041 0.80558 0.33014 0.0
C514 C 0.61586 0.81418 0.34924 0.0
H515 H 0.70122 0.80388 0.32062 0.0
H516 H 0.62708 0.79583 0.31063 0.0
C517 C 0.63426 0.82668 0.37428 0.0
C518 C 0.25265 0.91413 0.28688 0.0
C519 C 0.21504 0.92057 0.28413 0.0
H520 H 0.27973 0.86989 0.28041 0.0
C521 C 0.17849 0.89092 0.26821 0.0
H522 H 0.28106 0.9366 0.29923 0.0
C523 C 0.17709 0.85191 0.25783 0.0
C524 C 0.21248 0.84262 0.26317 0.0
H525 H 0.14891 0.89514 0.26615 0.0
H526 H 0.14644 0.82699 0.24788 0.0
C527 C 0.25176 0.87583 0.2761 0.0
C528 C 0.6018 0.79442 0.74908 0.0
C529 C 0.60193 0.79725 0.72194 0.0
H530 H 0.63783 0.82297 0.78429 0.0
C531 C 0.63959 0.83335 0.70928 0.0
H532 H 0.57319 0.76711 0.75935 0.0
C533 C 0.67685 0.86581 0.72368 0.0
C534 C 0.67687 0.86226 0.75083 0.0
H535 H 0.6403 0.83644 0.68832 0.0
H536 H 0.70577 0.8931 0.71359 0.0
C537 C 0.63889 0.82649 0.76335 0.0
C538 C 0.14991 0.86209 0.73964 0.0
C539 C 0.11064 0.81906 0.74233 0.0
H540 H 0.22185 0.89896 0.73268 0.0
C541 C 0.1118 0.77989 0.73469 0.0
H542 H 0.14955 0.89268 0.74559 0.0
C543 C 0.1534 0.78329 0.72766 0.0
C544 C 0.194 0.82595 0.72817 0.0
H545 H 0.08188 0.74638 0.73695 0.0
H546 H 0.15444 0.75215 0.72439 0.0
C547 C 0.19128 0.86561 0.73227 0.0
C548 C 0.15919 0.32688 0.84001 0.0
C549 C 0.16533 0.30583 0.81798 0.0
H550 H 0.15824 0.38554 0.85528 0.0
C551 C 0.17638 0.32904 0.79418 0.0
H552 H 0.15075 0.30977 0.85866 0.0
C553 C 0.18057 0.37211 0.7923 0.0
C554 C 0.17394 0.39304 0.81418 0.0
H555 H 0.18141 0.31378 0.77691 0.0
H556 H 0.18873 0.3889 0.77354 0.0
C557 C 0.16356 0.37023 0.83813 0.0
C558 C 0.77668 0.67118 0.7391 0.0
C559 C 0.77134 0.62928 0.74755 0.0
H560 H 0.82274 0.73766 0.72394 0.0
C561 C 0.81064 0.62616 0.75276 0.0
H562 H 0.74722 0.67484 0.73507 0.0
C563 C 0.85415 0.66262 0.74667 0.0
C564 C 0.85849 0.70215 0.73514 0.0
H565 H 0.80758 0.59432 0.75939 0.0
H566 H 0.88363 0.65822 0.74866 0.0
C567 C 0.81988 0.70712 0.73267 0.0
C568 C 0.34132 0.18083 0.77834 0.0
C569 C 0.37768 0.17936 0.76598 0.0
H570 H 0.27781 0.18011 0.77347 0.0
C571 C 0.37791 0.17643 0.73884 0.0
H572 H 0.34057 0.18349 0.79928 0.0
C573 C 0.34253 0.17467 0.72426 0.0
C574 C 0.30601 0.17591 0.73642 0.0
H575 H 0.40549 0.17538 0.72873 0.0
H576 H 0.34383 0.17215 0.70333 0.0
C577 C 0.30567 0.17921 0.76362 0.0
C578 C 0.82404 0.18726 0.73661 0.0
C579 C 0.82401 0.21855 0.71858 0.0
H580 H 0.82379 0.12435 0.74247 0.0
C581 C 0.82319 0.20951 0.69196 0.0
H582 H 0.82432 0.19322 0.75729 0.0
C583 C 0.82315 0.17021 0.68352 0.0
C584 C 0.82331 0.139 0.70155 0.0
H585 H 0.82298 0.23295 0.67768 0.0
H586 H 0.82307 0.16432 0.66283 0.0
C587 C 0.82341 0.14769 0.72817 0.0
C588 C 0.04029 0.53619 0.52437 0.0
C589 C 0.03777 0.52689 0.55106 0.0
H590 H 0.01316 0.51115 0.48662 0.0
C591 C 0.00494 0.48339 0.56013 0.0
H592 H 0.0654 0.56927 0.51679 0.0
C593 C 0.97506 0.44987 0.54279 0.0
C594 C 0.97754 0.4593 0.5161 0.0
H595 H 0.00239 0.47517 0.58062 0.0
H596 H 0.94983 0.41678 0.5503 0.0
C597 C 0.01051 0.50275 0.50708 0.0
C598 C 0.46724 0.48667 0.51823 0.0
C599 C 0.47227 0.49206 0.54526 0.0
H600 H 0.49839 0.48673 0.48205 0.0
C601 C 0.51406 0.50192 0.55662 0.0
H602 H 0.43558 0.47937 0.50891 0.0
C603 C 0.55011 0.50628 0.54126 0.0
C604 C 0.54514 0.50106 0.51421 0.0
H605 H 0.51904 0.50648 0.57742 0.0
H606 H 0.5818 0.51363 0.55057 0.0
C607 C 0.50335 0.49121 0.50285 0.0
C608 C 0.49419 0.02798 0.52433 0.0
C609 C 0.50194 0.02785 0.49756 0.0
H610 H 0.48887 -0.00381 0.56109 0.0
C611 C 0.51004 0.99399 0.48727 0.0
H612 H 0.48808 0.05375 0.53284 0.0
C613 C 0.51066 0.96107 0.50346 0.0
C614 C 0.5033 0.96145 0.53026 0.0
H615 H 0.51629 0.99312 0.4667 0.0
H616 H 0.51699 0.93541 0.49499 0.0
C617 C 0.4949 0.99514 0.54051 0.0
C618 C 0.44769 0.94208 0.95367 0.0
C619 C 0.45397 0.94243 0.98061 0.0
H620 H 0.47674 0.97286 0.91709 0.0
C621 C 0.49622 0.97477 0.99134 0.0
H622 H 0.41562 0.91744 0.94484 0.0
C623 C 0.53141 0.00635 0.97544 0.0
C624 C 0.52496 0.00624 0.94852 0.0
H625 H 0.50216 0.97569 0.01206 0.0
H626 H 0.56341 0.03116 0.98427 0.0
C627 C 0.48281 0.9737 0.93779 0.0
C628 C 0.95634 0.48757 0.96539 0.0
C629 C 0.95875 0.48025 0.93877 0.0
H630 H 0.98382 0.49072 0.0032 0.0
C631 C 0.99213 0.47027 0.92983 0.0
H632 H 0.93087 0.4951 0.97287 0.0
C633 C 0.02244 0.46756 0.94724 0.0
C634 C 0.01984 0.47471 0.97389 0.0
H635 H -0.00534 0.46426 0.9094 0.0
H636 H 0.04789 0.45996 0.93984 0.0
C637 C 0.98655 0.48481 0.98277 0.0
C638 C 0.49531 0.48462 0.94472 0.0
C639 C 0.48856 0.44311 0.95497 0.0
H640 H 0.50045 0.54931 0.95255 0.0
C641 C 0.48188 0.43535 0.98181 0.0
H642 H 0.50072 0.49163 0.9241 0.0
C643 C 0.48185 0.4684 -0.00193 0.0
C644 C 0.48859 0.5099 0.98782 0.0
H645 H 0.47675 0.40376 0.99027 0.0
H646 H 0.4764 0.46133 0.01868 0.0
C647 C 0.49537 0.51773 0.961 0.0
C648 C 0.25709 0.95763 0.05387 0.0
C649 C 0.25397 0.96114 0.08084 0.0
H650 H 0.28091 0.93315 0.02265 0.0
C651 C 0.27526 0.94406 0.09727 0.0
H652 H 0.24109 0.9705 0.04075 0.0
C653 C 0.29853 0.92315 0.08694 0.0
C654 C 0.30046 0.91839 0.05999 0.0
H655 H 0.27364 0.94651 0.11818 0.0
H656 H 0.31398 0.90971 0.10007 0.0
C657 C 0.27986 0.9362 0.04355 0.0
C658 C 0.01349 0.31323 0.04701 0.0
C659 C 0.03425 0.35323 0.06216 0.0
H660 H 0.97625 0.23993 0.04665 0.0
C661 C 0.03109 0.34939 0.0893 0.0
H662 H 0.01522 0.31518 0.02601 0.0
C663 C 0.00937 0.30631 0.10108 0.0
C664 C 0.98972 0.2663 0.08593 0.0
H665 H 0.04681 0.3796 0.10144 0.0
H666 H 0.00859 0.30435 0.12208 0.0
C667 C 0.99108 0.27016 0.05879 0.0
C668 C 0.64264 0.66986 0.05801 0.0
C669 C 0.60285 0.6516 0.0733 0.0
H670 H 0.7158 0.70623 0.05724 0.0
C671 C 0.60705 0.65436 0.10043 0.0
H672 H 0.64045 0.66799 0.03701 0.0
C673 C 0.65032 0.67681 0.112 0.0
C674 C 0.69011 0.69622 0.09664 0.0
H675 H 0.57699 0.64064 0.11267 0.0
H676 H 0.65261 0.67968 0.13296 0.0
C677 C 0.68582 0.69163 0.06956 0.0
C678 C 0.95366 0.32339 0.39564 0.0
C679 C 0.95625 0.32543 0.42282 0.0
H680 H 0.96915 0.29929 0.36081 0.0
C681 C 0.97995 0.30695 0.43581 0.0
H682 H 0.93547 0.33721 0.38517 0.0
C683 C -0.00014 0.28587 0.42186 0.0
C684 C -0.00454 0.28203 0.39476 0.0
H685 H 0.98252 0.3082 0.45679 0.0
H686 H 0.01728 0.27122 0.43232 0.0
C687 C 0.97269 0.30146 0.38175 0.0
C688 C 0.73431 0.66691 0.45117 0.0
C689 C 0.70952 0.6283 0.43529 0.0
H690 H 0.77922 0.73945 0.45292 0.0
C691 C 0.71161 0.63396 0.40824 0.0
H692 H 0.73344 0.66359 0.47212 0.0
C693 C 0.73835 0.67728 0.39728 0.0
C694 C 0.76318 0.71591 0.41315 0.0
H695 H 0.69314 0.60484 0.39552 0.0
H696 H 0.73928 0.68052 0.37633 0.0
C697 C 0.76067 0.71033 0.44021 0.0
C698 C 0.35519 0.04759 0.42048 0.0
C699 C 0.39735 0.0711 0.40748 0.0
H700 H 0.28227 0.01365 0.41749 0.0
C701 C 0.39767 0.07726 0.3805 0.0
H702 H 0.3539 0.04227 0.44128 0.0
C703 C 0.35656 0.06154 0.36694 0.0
C704 C 0.31444 0.0387 0.38006 0.0
H705 H 0.42965 0.09545 0.37002 0.0
H706 H 0.35778 0.06754 0.34622 0.0
C707 C 0.31417 0.0312 0.40688 0.0
C708 C 0.69438 0.01833 0.82188 0.0
C709 C 0.71425 -0.00304 0.83591 0.0
H710 H 0.65739 0.05454 0.82359 0.0
C711 C 0.7102 0.9943 0.86304 0.0
H712 H 0.69675 0.02058 0.8009 0.0
C713 C 0.68818 0.01419 0.87599 0.0
C714 C 0.66912 0.03637 0.86201 0.0
H715 H 0.72513 0.97798 0.87431 0.0
H716 H 0.68657 0.01269 0.89701 0.0
C717 C 0.67165 0.03753 0.83481 0.0
C718 C 0.9555 0.63794 0.86563 0.0
C719 C 0.93339 0.5979 0.85057 0.0
H720 H 0.99074 0.71113 0.86617 0.0
C721 C 0.93231 0.6018 0.82348 0.0
H722 H 0.95705 0.63602 0.88657 0.0
C723 C 0.95118 0.64497 0.81182 0.0
C724 C 0.97205 0.68498 0.82701 0.0
H725 H 0.91539 0.57156 0.81142 0.0
H726 H 0.9486 0.64698 0.79094 0.0
C727 C 0.97489 0.68101 0.85397 0.0
C728 C 0.33127 0.26526 0.88994 0.0
C729 C 0.36936 0.28786 0.87348 0.0
H730 H 0.2587 0.22423 0.89297 0.0
C731 C 0.36263 0.28536 0.84649 0.0
H732 H 0.33536 0.26643 0.91084 0.0
C733 C 0.31845 0.26065 0.83621 0.0
C734 C 0.28038 0.23836 0.85277 0.0
H735 H 0.39143 0.30208 0.83336 0.0
H736 H 0.31411 0.25929 0.81532 0.0
C737 C 0.2873 0.24091 0.87971 0.0
C738 C 0.03684 0.69684 0.67625 0.0
C739 C 0.01654 0.71601 0.6606 0.0
H740 H 0.07405 0.66067 0.67744 0.0
C741 C 0.01644 0.71095 0.63357 0.0
H742 H 0.03724 0.70001 0.69718 0.0
C743 C 0.0377 0.68878 0.62234 0.0
C744 C 0.05912 0.67071 0.63788 0.0
H745 H 0.00109 0.72528 0.621 0.0
H746 H 0.038 0.68647 0.60136 0.0
C747 C 0.05775 0.67416 0.66499 0.0
C748 C 0.27964 0.28741 0.62491 0.0
C749 C 0.27582 0.28439 0.65206 0.0
H750 H 0.30354 0.33144 0.59169 0.0
C751 C 0.29652 0.32486 0.66681 0.0
H752 H 0.26408 0.25683 0.61306 0.0
C753 C 0.31975 0.36755 0.65463 0.0
C754 C 0.32203 0.37061 0.62744 0.0
H755 H 0.29438 0.32356 0.68781 0.0
H756 H 0.33461 0.39814 0.66646 0.0
C757 C 0.30217 0.33012 0.61271 0.0
C758 C 0.66911 0.94989 0.65435 0.0
C759 C 0.70912 0.96911 0.6392 0.0
H760 H 0.59589 0.91551 0.65465 0.0
C761 C 0.70533 0.96846 0.61205 0.0
H762 H 0.67096 0.94995 0.67535 0.0
C763 C 0.66239 0.94848 0.60026 0.0
C764 C 0.6224 0.92926 0.61537 0.0
H765 H 0.73552 0.98302 0.59989 0.0
H766 H 0.66054 0.94805 0.57925 0.0
C767 C 0.62614 0.93039 0.64254 0.0
C768 C 0.53405 0.54294 0.68709 0.0
C769 C 0.58074 0.5613 0.68206 0.0
H770 H 0.47617 0.55219 0.68493 0.0
C771 C 0.60366 0.60129 0.667 0.0
H772 H 0.51547 0.51192 0.69841 0.0
C773 C 0.58116 0.62506 0.6595 0.0
C774 C 0.53543 0.60866 0.66675 0.0
H775 H 0.63977 0.61616 0.66293 0.0
H776 H 0.60054 0.65791 0.65 0.0
C777 C 0.51153 0.56603 0.67926 0.0
C778 C 0.45823 0.03636 0.78675 0.0
C779 C 0.43703 0.05328 0.80332 0.0
H780 H 0.45236 0.979 0.76575 0.0
C781 C 0.39382 0.02273 0.81357 0.0
H782 H 0.49163 0.05915 0.77861 0.0
C783 C 0.37092 0.97672 0.80584 0.0
C784 C 0.39116 0.96047 0.78804 0.0
H785 H 0.37657 0.03492 0.8262 0.0
H786 H 0.33666 0.95434 0.81299 0.0
C787 C 0.43571 0.99044 0.77934 0.0
C788 C 0.96373 0.42381 0.79507 0.0
C789 C 0.9513 0.4178 0.76873 0.0
H790 H 0.01849 0.45012 0.82263 0.0
C791 C 0.98557 0.43721 0.74971 0.0
H792 H 0.93797 0.40926 0.81014 0.0
C793 C 0.03153 0.46075 0.75684 0.0
C794 C 0.04407 0.46503 0.78313 0.0
H795 H 0.97695 0.43327 0.72925 0.0
H796 H 0.05723 0.47435 0.74171 0.0
C797 C 0.00977 0.44711 0.80221 0.0
C798 C 0.37385 0.3853 0.23348 0.0
C799 C 0.39185 0.38039 0.21 0.0
H800 H 0.33567 0.41109 0.25275 0.0
C801 C 0.38316 0.3974 0.187 0.0
H802 H 0.37977 0.3725 0.25149 0.0
C803 C 0.3571 0.41928 0.18763 0.0
C804 C 0.3401 0.42499 0.21134 0.0
H805 H 0.39644 0.39378 0.16856 0.0
H806 H 0.35113 0.43249 0.1698 0.0
C807 C 0.34857 0.40753 0.23415 0.0
C808 C 0.56113 0.95442 0.27255 0.0
C809 C 0.56339 0.94634 0.29908 0.0
H810 H 0.58301 0.00362 0.24198 0.0
C811 C 0.59033 0.98346 0.31552 0.0
H812 H 0.54067 0.92653 0.2594 0.0
C813 C 0.61498 0.02784 0.30548 0.0
C814 C 0.61279 0.03576 0.27888 0.0
H815 H 0.59277 0.97816 0.33607 0.0
H816 H 0.6357 0.05586 0.31849 0.0
C817 C 0.58544 -0.00137 0.26258 0.0
C818 C 0.97362 0.56988 0.30068 0.0
C819 C 0.94845 0.59255 0.29897 0.0
H820 H 0.03988 0.5763 0.30198 0.0
C821 C 0.97125 0.64031 0.3009 0.0
H822 H 0.95664 0.53302 0.29882 0.0
C823 C 0.01905 0.66524 0.30199 0.0
C824 C 0.0445 0.64262 0.30159 0.0
H825 H 0.95252 0.65846 0.29907 0.0
H826 H 0.03615 0.70221 0.3014 0.0
C827 C 0.02125 0.59467 0.30238 0.0
C828 C 0.06412 0.11416 0.09218 0.0
C829 C 0.05262 0.12497 0.11641 0.0
H830 H 0.10125 0.08755 0.07183 0.0
C831 C 0.07402 0.12121 0.13884 0.0
H832 H 0.04826 0.11688 0.07451 0.0
C833 C 0.10405 0.1042 0.13727 0.0
C834 C 0.11357 0.09092 0.11324 0.0
H835 H 0.06595 0.12932 0.15775 0.0
H836 H 0.11859 0.09993 0.15508 0.0
C837 C 0.0945 0.09744 0.09059 0.0
C838 C 0.85067 0.97746 0.1477 0.0
C839 C 0.86032 -0.00035 0.12347 0.0
H840 H 0.82876 0.91474 0.1682 0.0
C841 C 0.84972 0.97346 0.10074 0.0
H842 H 0.85809 -0.00322 0.16558 0.0
C843 C 0.83308 0.92637 0.10227 0.0
C844 C 0.82641 0.90473 0.12656 0.0
H845 H 0.85675 0.98966 0.08183 0.0
H846 H 0.82752 0.90732 0.08443 0.0
C847 C 0.83369 0.93043 0.14924 0.0
C848 C 0.97891 0.85439 0.09745 0.0
C849 C 0.95762 0.84199 0.12181 0.0
H850 H 0.04138 0.89515 0.0767 0.0
C851 C 0.98467 0.85721 0.14436 0.0
H852 H 0.95888 0.84309 0.07979 0.0
C853 C 0.03177 0.88658 0.14266 0.0
C854 C 0.05269 0.90168 0.11836 0.0
H855 H 0.96919 0.84778 0.16344 0.0
H856 H 0.05131 0.89933 0.16041 0.0
C857 C 0.02609 0.88421 0.09574 0.0
C858 C 0.15136 0.15349 0.36889 0.0
C859 C 0.13598 0.16519 0.34645 0.0
H860 H 0.18004 0.11484 0.38484 0.0
C861 C 0.14405 0.1518 0.32207 0.0
H862 H 0.14563 0.16337 0.38791 0.0
C863 C 0.16403 0.12434 0.32026 0.0
C864 C 0.17585 0.10939 0.34282 0.0
H865 H 0.13286 0.16067 0.3044 0.0
H866 H 0.16751 0.11251 0.3013 0.0
C867 C 0.17094 0.12561 0.3671 0.0
C868 C 0.93461 0.0592 0.3891 0.0
C869 C 0.94022 0.07807 0.36407 0.0
H870 H 0.90587 -0.00169 0.41224 0.0
C871 C 0.91695 0.04913 0.34316 0.0
H872 H 0.95202 0.08073 0.40563 0.0
C873 C 0.89074 0.00194 0.34697 0.0
C874 C 0.8871 0.98284 0.37176 0.0
H875 H 0.92061 0.06268 0.32369 0.0
H876 H 0.87456 0.98029 0.33028 0.0
C877 C 0.90818 0.01202 0.39292 0.0
C878 C 0.03716 0.89671 0.37965 0.0
C879 C 0.05398 0.9066 0.35414 0.0
H880 H 0.97847 0.87127 0.40435 0.0
C881 C 0.02269 0.89303 0.33344 0.0
H882 H 0.06038 0.9067 0.39599 0.0
C883 C 0.97574 0.87242 0.33819 0.0
C884 C 0.95914 0.86532 0.36375 0.0
H885 H 0.0346 0.89996 0.31353 0.0
H886 H 0.95273 0.86429 0.32186 0.0
C887 C 0.99022 0.87644 0.38441 0.0
C888 C 0.84656 0.84346 0.77366 0.0
C889 C 0.83729 0.85774 0.7974 0.0
H890 H 0.88332 0.8158 0.75414 0.0
C891 C 0.85306 0.84851 0.82052 0.0
H892 H 0.83386 0.84926 0.75559 0.0
C893 C 0.88143 0.82945 0.81968 0.0
C894 C 0.89426 0.81922 0.79571 0.0
H895 H 0.84612 0.85886 0.83908 0.0
H896 H 0.89565 0.82554 0.8377 0.0
C897 C 0.87471 0.8242 0.77282 0.0
C898 C 0.09999 0.9709 0.83028 0.0
C899 C 0.08467 0.95154 0.80563 0.0
H900 H 0.1296 0.03213 0.85318 0.0
C901 C 0.09136 0.98051 0.78443 0.0
H902 H 0.09524 0.94945 0.84697 0.0
C903 C 0.11199 0.02769 0.78781 0.0
C904 C 0.1253 0.04688 0.81262 0.0
H905 H 0.07939 0.96666 0.76527 0.0
H906 H 0.11531 0.0488 0.77118 0.0
C907 C 0.11975 0.01818 0.83379 0.0
C908 C 0.98153 0.09939 0.83328 0.0
C909 C 0.01142 0.11592 0.81203 0.0
H910 H 0.91297 0.05674 0.84625 0.0
C911 C 0.99335 0.10519 0.78672 0.0
H912 H -0.00565 0.10731 0.85299 0.0
C913 C 0.94647 0.07616 0.78281 0.0
C914 C 0.91709 0.05739 0.80417 0.0
H915 H 0.01562 0.11765 0.76994 0.0
H916 H 0.93364 0.06664 0.76318 0.0
C917 C 0.93488 0.07041 0.82939 0.0
C918 C 0.87385 0.91615 0.70746 0.0
C919 C 0.85756 0.92201 0.68357 0.0
H920 H 0.9092 0.88767 0.72746 0.0
C921 C 0.86066 0.89905 0.66155 0.0
H922 H 0.87248 0.93389 0.72466 0.0
C923 C 0.88105 0.87189 0.66323 0.0
C924 C 0.89936 0.86783 0.68686 0.0
H925 H 0.84851 0.90316 0.64284 0.0
H926 H 0.88378 0.85532 0.64587 0.0
C927 C 0.89503 0.88977 0.70901 0.0
C928 C 0.12829 0.9939 0.66567 0.0
C929 C 0.14441 0.01896 0.68875 0.0
H930 H 0.08524 0.92835 0.64857 0.0
C931 C 0.13473 0.99537 0.71253 0.0
H932 H 0.13543 0.01116 0.64709 0.0
C933 C 0.10651 0.9479 0.71339 0.0
C934 C 0.08683 0.92333 0.69055 0.0
H935 H 0.14743 0.01383 0.73062 0.0
H936 H 0.09807 0.93076 0.73202 0.0
C937 C 0.09955 0.94647 0.66658 0.0
C938 C 0.04399 0.13634 0.70564 0.0
C939 C 0.07059 0.14259 0.68348 0.0
H940 H 0.97697 0.11258 0.72084 0.0
C941 C 0.04982 0.13387 0.65885 0.0
H942 H 0.05907 0.14282 0.72484 0.0
C943 C 0.00283 0.11658 0.65651 0.0
C944 C 0.97576 0.10753 0.67878 0.0
H945 H 0.06957 0.13862 0.64138 0.0
H946 H 0.98747 0.10835 0.63738 0.0
C947 C -0.00304 0.11886 0.70331 0.0
C948 C 0.77561 0.47861 0.44396 0.0
C949 C 0.75766 0.48254 0.46787 0.0
H950 H 0.81715 0.45664 0.42419 0.0
C951 C 0.7723 0.47159 0.49084 0.0
H952 H 0.76508 0.4871 0.42592 0.0
C953 C 0.80175 0.45389 0.48978 0.0
C954 C 0.81742 0.44723 0.46576 0.0
H955 H 0.75912 0.47436 0.50951 0.0
H956 H 0.81085 0.44375 0.50776 0.0
C957 C 0.80546 0.46129 0.44292 0.0
C958 C 0.5351 0.28409 0.47902 0.0
C959 C 0.5324 0.26393 0.45481 0.0
H960 H 0.55585 0.34603 0.49996 0.0
C961 C 0.54405 0.29118 0.4323 0.0
H962 H 0.5263 0.26401 0.49668 0.0
C963 C 0.56073 0.33825 0.43413 0.0
C964 C 0.56645 0.35882 0.45853 0.0
H965 H 0.5421 0.27648 0.41333 0.0
H966 H 0.57147 0.35878 0.41663 0.0
C967 C 0.55216 0.3311 0.48087 0.0
C968 C 0.7269 0.23244 0.47871 0.0
C969 C 0.7531 0.25405 0.45662 0.0
H970 H 0.66014 0.1886 0.49407 0.0
C971 C 0.73193 0.24286 0.43206 0.0
H972 H 0.74222 0.24028 0.49786 0.0
C973 C 0.68484 0.21296 0.42983 0.0
C974 C 0.65817 0.1942 0.45216 0.0
H975 H 0.75138 0.25886 0.41464 0.0
H976 H 0.66904 0.20676 0.41084 0.0
C977 C 0.67986 0.20297 0.47651 0.0
C978 C 0.75535 0.4598 0.69332 0.0
C979 C 0.70738 0.43701 0.69457 0.0
H980 H 0.81572 0.45534 0.69922 0.0
C981 C 0.68328 0.38928 0.69767 0.0
H982 H 0.77495 0.49655 0.6909 0.0
C983 C 0.70673 0.3656 0.70229 0.0
C984 C 0.75463 0.38936 0.70412 0.0
H985 H 0.64632 0.37073 0.69865 0.0
H986 H 0.68719 0.32939 0.70657 0.0
C987 C 0.77876 0.43623 0.69823 0.0
C988 C 0.57569 0.36139 0.81121 0.0
C989 C 0.53096 0.32912 0.80397 0.0
H990 H 0.6332 0.42798 0.80402 0.0
C991 C 0.50664 0.34228 0.78745 0.0
H992 H 0.59534 0.35138 0.82341 0.0
C993 C 0.52818 0.38568 0.7762 0.0
C994 C 0.57453 0.41648 0.78118 0.0
H995 H 0.47235 0.31752 0.78127 0.0
H996 H 0.50969 0.39361 0.76188 0.0
C997 C 0.59736 0.40505 0.79998 0.0
C998 C 0.68565 0.22525 0.80125 0.0
C999 C 0.71344 0.27308 0.80179 0.0
H1000 H 0.61792 0.16852 0.80554 0.0
C1001 C 0.69694 0.29944 0.81365 0.0
H1002 H 0.69767 0.20396 0.79259 0.0
C1003 C 0.65135 0.27871 0.82166 0.0
C1004 C 0.62222 0.23176 0.81764 0.0
H1005 H 0.7178 0.33632 0.81451 0.0
H1006 H 0.63773 0.30003 0.82816 0.0
C1007 C 0.64013 0.20479 0.80885 0.0
C1008 C 0.55728 0.20142 0.24981 0.0
C1009 C 0.58209 0.19653 0.22938 0.0
H1010 H 0.51283 0.22614 0.26172 0.0
C1011 C 0.578 0.21026 0.20428 0.0
H1012 H 0.5597 0.191 0.26937 0.0
C1013 C 0.55144 0.2307 0.19995 0.0
C1014 C 0.52825 0.23744 0.22062 0.0
H1015 H 0.59675 0.20694 0.18817 0.0
H1016 H 0.5501 0.24234 0.18054 0.0
C1017 C 0.53045 0.22154 0.24545 0.0
C1018 C 0.79784 0.33046 0.24693 0.0
C1019 C 0.76837 0.30066 0.26606 0.0
H1020 H 0.83531 0.39908 0.23298 0.0
C1021 C 0.75925 0.31888 0.28824 0.0
H1022 H 0.80577 0.31728 0.22973 0.0
C1023 C 0.77607 0.366 0.29004 0.0
C1024 C 0.80227 0.39528 0.26972 0.0
H1025 H 0.7365 0.29657 0.3032 0.0
H1026 H 0.76627 0.37905 0.30655 0.0
C1027 C 0.81467 0.37731 0.24875 0.0
C1028 C 0.67191 0.46595 0.22251 0.0
C1029 C 0.684 0.46898 0.24888 0.0
H1030 H 0.61856 0.43775 0.19424 0.0
C1031 C 0.6493 0.44877 0.26758 0.0
H1032 H 0.69791 0.48171 0.20764 0.0
C1033 C 0.60346 0.42326 0.2598 0.0
C1034 C 0.59175 0.41797 0.23324 0.0
H1035 H 0.65769 0.45064 0.288 0.0
H1036 H 0.57745 0.40599 0.27449 0.0
C1037 C 0.62636 0.4409 0.21479 0.0
C1038 C 0.51777 0.17547 0.88818 0.0
C1039 C 0.54457 0.17387 0.90845 0.0
H1040 H 0.48265 0.20848 0.87292 0.0
C1041 C 0.55053 0.19968 0.93105 0.0
H1042 H 0.51137 0.1547 0.87099 0.0
C1043 C 0.53331 0.22949 0.93243 0.0
C1044 C 0.51033 0.23434 0.91113 0.0
H1045 H 0.5704 0.19855 0.94724 0.0
H1046 H 0.54067 0.25089 0.94945 0.0
C1047 C 0.50118 0.20593 0.88938 0.0
C1048 C 0.77627 0.30523 0.86624 0.0
C1049 C 0.79573 0.33163 0.88858 0.0
H1050 H 0.72938 0.23883 0.85112 0.0
C1051 C 0.78675 0.30967 0.91287 0.0
H1052 H 0.78271 0.32125 0.8473 0.0
C1053 C 0.75659 0.26276 0.91505 0.0
C1054 C 0.73441 0.23686 0.89299 0.0
H1055 H 0.80165 0.32913 0.93044 0.0
H1056 H 0.74881 0.24734 0.93418 0.0
C1057 C 0.74565 0.2582 0.86846 0.0
C1058 C 0.70451 0.44884 0.86865 0.0
C1059 C 0.73218 0.46218 0.89102 0.0
H1060 H 0.63661 0.42038 0.85341 0.0
C1061 C 0.71267 0.46196 0.91508 0.0
H1062 H 0.7187 0.44887 0.84979 0.0
C1063 C 0.66582 0.44536 0.91707 0.0
C1064 C 0.6376 0.42901 0.89503 0.0
H1065 H 0.73309 0.47223 0.93262 0.0
H1066 H 0.65139 0.44345 0.93613 0.0
C1067 C 0.65756 0.43259 0.87065 0.0
C1068 C 0.35305 0.75238 0.68251 0.0
C1069 C 0.37339 0.79788 0.69114 0.0
H1070 H 0.36262 0.70147 0.66354 0.0
C1071 C 0.41765 0.82931 0.68249 0.0
H1072 H 0.31871 0.72747 0.68848 0.0
C1073 C 0.44296 0.81436 0.66813 0.0
C1074 C 0.42431 0.76781 0.66198 0.0
H1075 H 0.43409 0.86471 0.68856 0.0
H1076 H 0.4785 0.83844 0.66396 0.0
C1077 C 0.37808 0.73759 0.66781 0.0
C1078 C 0.23212 0.71527 0.82097 0.0
C1079 C 0.27696 0.73489 0.81132 0.0
H1080 H 0.17395 0.65451 0.83522 0.0
C1081 C 0.3016 0.7121 0.81545 0.0
H1082 H 0.21241 0.73227 0.81844 0.0
C1083 C 0.27973 0.66785 0.82584 0.0
C1084 C 0.23284 0.64572 0.83176 0.0
H1085 H 0.33631 0.72654 0.80843 0.0
H1086 H 0.29796 0.64906 0.826 0.0
C1087 C 0.21013 0.67087 0.83091 0.0
C1088 C 0.37645 0.63118 0.75293 0.0
C1089 C 0.37358 0.63271 0.72585 0.0
H1090 H 0.34013 0.60677 0.78864 0.0
C1091 C 0.33048 0.61095 0.71381 0.0
H1092 H 0.40924 0.64777 0.76267 0.0
C1093 C 0.2908 0.58769 0.72868 0.0
C1094 C 0.2938 0.58552 0.75575 0.0
H1095 H 0.32739 0.61194 0.69291 0.0
H1096 H 0.25795 0.57104 0.71901 0.0
C1097 C 0.3369 0.6076 0.76775 0.0
C1098 C 0.44619 0.76763 0.01259 0.0
C1099 C 0.43153 0.7791 0.03549 0.0
H1100 H 0.47193 0.7276 0.99508 0.0
C1101 C 0.43655 0.76191 0.05929 0.0
H1102 H 0.44309 0.78074 0.99395 0.0
C1103 C 0.45289 0.73112 0.05989 0.0
C1104 C 0.46481 0.71745 0.03674 0.0
H1105 H 0.42549 0.77018 0.0772 0.0
H1106 H 0.45424 0.7165 0.07837 0.0
C1107 C 0.46284 0.73728 0.01321 0.0
C1108 C 0.193 0.64382 0.00522 0.0
C1109 C 0.17865 0.6198 0.02885 0.0
H1110 H 0.23502 0.70806 0.98644 0.0
C1111 C 0.19257 0.6442 0.05225 0.0
H1112 H 0.18242 0.62591 0.98685 0.0
C1113 C 0.22301 0.69138 0.05198 0.0
C1114 C 0.2396 0.71489 0.02831 0.0
H1115 H 0.18201 0.62654 0.07071 0.0
H1116 H 0.2351 0.70907 0.07033 0.0
C1117 C 0.223 0.69092 0.00495 0.0
C1118 C 0.31071 0.51581 0.05911 0.0
C1119 C 0.33661 0.52307 0.03651 0.0
H1120 H 0.24485 0.49635 0.07495 0.0
C1121 C 0.31418 0.51031 0.01237 0.0
H1122 H 0.32712 0.52535 0.07793 0.0
C1123 C 0.26724 0.4935 0.01062 0.0
C1124 C 0.24182 0.48949 0.03297 0.0
H1125 H 0.33327 0.51514 0.99461 0.0
H1126 H 0.2514 0.48606 0.99161 0.0
C1127 C 0.26367 0.49933 0.05734 0.0
C1128 C 0.20391 0.52529 0.58076 0.0
C1129 C 0.19856 0.54311 0.60434 0.0
H1130 H 0.23872 0.49676 0.56015 0.0
C1131 C 0.22149 0.54088 0.62649 0.0
H1132 H 0.18631 0.52625 0.56339 0.0
C1133 C 0.25194 0.52423 0.62455 0.0
C1134 C 0.25947 0.50916 0.6005 0.0
H1135 H 0.21808 0.55453 0.64485 0.0
H1136 H 0.27114 0.52517 0.64161 0.0
C1137 C 0.23386 0.50828 0.57889 0.0
C1138 C 0.46903 0.66474 0.60238 0.0
C1139 C 0.44482 0.63571 0.58176 0.0
H1140 H 0.50508 0.73353 0.61649 0.0
C1141 C 0.4415 0.65496 0.55817 0.0
H1142 H 0.47195 0.6507 0.62063 0.0
C1143 C 0.45958 0.70217 0.55589 0.0
C1144 C 0.48127 0.73083 0.57716 0.0
H1145 H 0.42332 0.63342 0.54178 0.0
H1146 H 0.4543 0.71584 0.53802 0.0
C1147 C 0.4875 0.71193 0.60003 0.0
C1148 C 0.32789 0.78511 0.56913 0.0
C1149 C 0.35648 0.79974 0.59106 0.0
H1150 H 0.26047 0.74252 0.55432 0.0
C1151 C 0.33696 0.7862 0.61579 0.0
H1152 H 0.34194 0.79548 0.54978 0.0
C1153 C 0.29013 0.75532 0.61839 0.0
C1154 C 0.26213 0.7382 0.59625 0.0
H1155 H 0.35821 0.79746 0.63295 0.0
H1156 H 0.27631 0.74332 0.63762 0.0
C1157 C 0.28116 0.75484 0.5717 0.0
C1158 C 0.24697 0.61502 0.19531 0.0
C1159 C 0.21351 0.56837 0.19512 0.0
H1160 H 0.26476 0.68222 0.20823 0.0
C1161 C 0.16853 0.55583 0.20211 0.0
H1162 H 0.28198 0.62589 0.19009 0.0
C1163 C 0.15872 0.58813 0.21263 0.0
C1164 C 0.19372 0.63354 0.21633 0.0
H1165 H 0.14194 0.52023 0.20205 0.0
H1166 H 0.12466 0.57654 0.22003 0.0
C1167 C 0.23719 0.64734 0.20597 0.0
C1168 C 0.39349 0.65453 0.29969 0.0
C1169 C 0.42231 0.69399 0.28532 0.0
H1170 H 0.34069 0.58447 0.29869 0.0
C1171 C 0.42058 0.69229 0.25811 0.0
H1172 H 0.39385 0.65499 0.32073 0.0
C1173 C 0.39034 0.65161 0.24548 0.0
C1174 C 0.361 0.61244 0.25994 0.0
H1175 H 0.44237 0.72232 0.24665 0.0
H1176 H 0.38935 0.65104 0.22446 0.0
C1177 C 0.36288 0.61423 0.28712 0.0
C1178 C 0.34213 0.72873 0.34693 0.0
C1179 C 0.36845 0.77609 0.35124 0.0
H1180 H 0.27918 0.67377 0.33217 0.0
C1181 C 0.34737 0.80273 0.34945 0.0
H1182 H 0.35782 0.70754 0.34766 0.0
C1183 C 0.30201 0.78318 0.34115 0.0
C1184 C 0.27755 0.73698 0.33364 0.0
H1185 H 0.36713 0.83938 0.35228 0.0
H1186 H 0.28786 0.80535 0.33805 0.0
C1187 C 0.29721 0.70943 0.33782 0.0
loop_
_geom_bond_atom_site_label_1
_geom_bond_atom_site_label_2
_geom_bond_distance
_geom_bond_site_symmetry_2
_ccdc_geom_bond_type
In0 O1 2.294 . S
In0 O2 2.326 . S
In0 O6 2.266 . S
In0 O7 2.326 . S
In0 O8 2.266 1_545 S
In0 O9 2.326 1_545 S
In0 O11 2.294 . S
In0 O12 2.326 . S
O1 In0 2.294 . S
O1 C10 1.240 . S
O2 In0 2.326 . S
O2 C10 1.252 . S
C3 O6 1.252 . S
C3 O7 1.260 . S
C4 O11 1.240 . S
C4 O12 1.252 . S
C5 O8 1.252 . S
C5 O9 1.260 . S
O6 In0 2.266 . S
O6 C3 1.252 . S
O7 In0 2.326 . S
O7 C3 1.260 . S
O8 In0 2.266 1_565 S
O8 C5 1.252 . S
O9 In0 2.326 1_565 S
O9 C5 1.260 . S
C10 O1 1.240 . S
C10 O2 1.252 . S
O11 In0 2.294 . S
O11 C4 1.240 . S
O12 In0 2.326 . S
O12 C4 1.252 . S
In13 O14 2.294 . S
In13 O15 2.326 . S
In13 O19 2.266 . S
In13 O20 2.326 . S
In13 O21 2.266 1_655 S
In13 O22 2.326 1_655 S
In13 O24 2.294 . S
In13 O25 2.326 . S
O14 In13 2.294 . S
O14 C23 1.240 . S
O15 In13 2.326 . S
O15 C23 1.252 . S
C16 O19 1.252 . S
C16 O20 1.260 . S
C17 O24 1.240 . S
C17 O25 1.252 . S
C18 O21 1.252 . S
C18 O22 1.260 . S
O19 In13 2.266 . S
O19 C16 1.252 . S
O20 In13 2.326 . S
O20 C16 1.260 . S
O21 In13 2.266 1_455 S
O21 C18 1.252 . S
O22 In13 2.326 1_455 S
O22 C18 1.260 . S
C23 O14 1.240 . S
C23 O15 1.252 . S
O24 In13 2.294 . S
O24 C17 1.240 . S
O25 In13 2.326 . S
O25 C17 1.252 . S
In26 O27 2.294 . S
In26 O28 2.326 . S
In26 O32 2.266 . S
In26 O33 2.326 . S
In26 O34 2.266 . S
In26 O35 2.326 . S
In26 O37 2.294 . S
In26 O38 2.326 . S
O27 In26 2.294 . S
O27 C36 1.240 . S
O28 In26 2.326 . S
O28 C36 1.252 . S
C29 O32 1.252 . S
C29 O33 1.260 . S
C30 O37 1.240 . S
C30 O38 1.252 . S
C31 O34 1.252 . S
C31 O35 1.260 . S
O32 In26 2.266 . S
O32 C29 1.252 . S
O33 In26 2.326 . S
O33 C29 1.260 . S
O34 In26 2.266 . S
O34 C31 1.252 . S
O35 In26 2.326 . S
O35 C31 1.260 . S
C36 O27 1.240 . S
C36 O28 1.252 . S
O37 In26 2.294 . S
O37 C30 1.240 . S
O38 In26 2.326 . S
O38 C30 1.252 . S
In39 O40 2.294 . S
In39 O41 2.326 . S
In39 O45 2.266 . S
In39 O46 2.326 . S
In39 O47 2.266 1_455 S
In39 O48 2.326 1_455 S
In39 O50 2.294 . S
In39 O51 2.326 . S
O40 In39 2.294 . S
O40 C49 1.240 . S
O41 In39 2.326 . S
O41 C49 1.252 . S
C42 O45 1.252 . S
C42 O46 1.260 . S
C43 O50 1.240 . S
C43 O51 1.252 . S
C44 O47 1.252 . S
C44 O48 1.260 . S
O45 In39 2.266 . S
O45 C42 1.252 . S
O46 In39 2.326 . S
O46 C42 1.260 . S
O47 In39 2.266 1_655 S
O47 C44 1.252 . S
O48 In39 2.326 1_655 S
O48 C44 1.260 . S
C49 O40 1.240 . S
C49 O41 1.252 . S
O50 In39 2.294 . S
O50 C43 1.240 . S
O51 In39 2.326 . S
O51 C43 1.252 . S
In52 O53 2.294 . S
In52 O54 2.326 . S
In52 O58 2.266 . S
In52 O59 2.326 . S
In52 O60 2.266 . S
In52 O61 2.326 . S
In52 O63 2.294 . S
In52 O64 2.326 . S
O53 In52 2.294 . S
O53 C62 1.240 . S
O54 In52 2.326 . S
O54 C62 1.252 . S
C55 O58 1.252 . S
C55 O59 1.260 . S
C56 O63 1.240 . S
C56 O64 1.252 . S
C57 O60 1.252 . S
C57 O61 1.260 . S
O58 In52 2.266 . S
O58 C55 1.252 . S
O59 In52 2.326 . S
O59 C55 1.260 . S
O60 In52 2.266 . S
O60 C57 1.252 . S
O61 In52 2.326 . S
O61 C57 1.260 . S
C62 O53 1.240 . S
C62 O54 1.252 . S
O63 In52 2.294 . S
O63 C56 1.240 . S
O64 In52 2.326 . S
O64 C56 1.252 . S
In65 O66 2.294 . S
In65 O67 2.326 . S
In65 O71 2.266 1_565 S
In65 O72 2.326 1_565 S
In65 O73 2.266 . S
In65 O74 2.326 . S
In65 O76 2.294 . S
In65 O77 2.326 . S
O66 In65 2.294 . S
O66 C75 1.240 . S
O67 In65 2.326 . S
O67 C75 1.252 . S
C68 O71 1.252 . S
C68 O72 1.260 . S
C69 O76 1.240 . S
C69 O77 1.252 . S
C70 O73 1.252 . S
C70 O74 1.260 . S
O71 In65 2.266 1_545 S
O71 C68 1.252 . S
O72 In65 2.326 1_545 S
O72 C68 1.260 . S
O73 In65 2.266 . S
O73 C70 1.252 . S
O74 In65 2.326 . S
O74 C70 1.260 . S
C75 O66 1.240 . S
C75 O67 1.252 . S
O76 In65 2.294 . S
O76 C69 1.240 . S
O77 In65 2.326 . S
O77 C69 1.252 . S
In78 O79 2.294 . S
In78 O80 2.326 . S
In78 O84 2.266 . S
In78 O85 2.326 . S
In78 O86 2.266 1_565 S
In78 O87 2.326 1_565 S
In78 O89 2.294 . S
In78 O90 2.326 . S
O79 In78 2.294 . S
O79 C88 1.240 . S
O80 In78 2.326 . S
O80 C88 1.252 . S
C81 O84 1.252 . S
C81 O85 1.260 . S
C82 O89 1.240 . S
C82 O90 1.252 . S
C83 O86 1.252 . S
C83 O87 1.260 . S
O84 In78 2.266 . S
O84 C81 1.252 . S
O85 In78 2.326 . S
O85 C81 1.260 . S
O86 In78 2.266 1_545 S
O86 C83 1.252 . S
O87 In78 2.326 1_545 S
O87 C83 1.260 . S
C88 O79 1.240 . S
C88 O80 1.252 . S
O89 In78 2.294 . S
O89 C82 1.240 . S
O90 In78 2.326 . S
O90 C82 1.252 . S
In91 O92 2.294 . S
In91 O93 2.326 . S
In91 O97 2.266 . S
In91 O98 2.326 . S
In91 O99 2.266 1_455 S
In91 O100 2.326 1_455 S
In91 O102 2.294 . S
In91 O103 2.326 . S
O92 In91 2.294 . S
O92 C101 1.240 . S
O93 In91 2.326 . S
O93 C101 1.252 . S
C94 O97 1.252 . S
C94 O98 1.260 . S
C95 O102 1.240 . S
C95 O103 1.252 . S
C96 O99 1.252 . S
C96 O100 1.260 . S
O97 In91 2.266 . S
O97 C94 1.252 . S
O98 In91 2.326 . S
O98 C94 1.260 . S
O99 In91 2.266 1_655 S
O99 C96 1.252 . S
O100 In91 2.326 1_655 S
O100 C96 1.260 . S
C101 O92 1.240 . S
C101 O93 1.252 . S
O102 In91 2.294 . S
O102 C95 1.240 . S
O103 In91 2.326 . S
O103 C95 1.252 . S
In104 O105 2.294 . S
In104 O106 2.326 . S
In104 O110 2.266 . S
In104 O111 2.326 . S
In104 O112 2.266 . S
In104 O113 2.326 . S
In104 O115 2.294 . S
In104 O116 2.326 . S
O105 In104 2.294 . S
O105 C114 1.240 . S
O106 In104 2.326 . S
O106 C114 1.252 . S
C107 O110 1.252 . S
C107 O111 1.260 . S
C108 O115 1.240 . S
C108 O116 1.252 . S
C109 O112 1.252 . S
C109 O113 1.260 . S
O110 In104 2.266 . S
O110 C107 1.252 . S
O111 In104 2.326 . S
O111 C107 1.260 . S
O112 In104 2.266 . S
O112 C109 1.252 . S
O113 In104 2.326 . S
O113 C109 1.260 . S
C114 O105 1.240 . S
C114 O106 1.252 . S
O115 In104 2.294 . S
O115 C108 1.240 . S
O116 In104 2.326 . S
O116 C108 1.252 . S
In117 O118 2.294 . S
In117 O119 2.326 . S
In117 O123 2.266 . S
In117 O124 2.326 . S
In117 O125 2.266 1_655 S
In117 O126 2.326 1_655 S
In117 O128 2.294 . S
In117 O129 2.326 . S
O118 In117 2.294 . S
O118 C127 1.240 . S
O119 In117 2.326 . S
O119 C127 1.252 . S
C120 O123 1.252 . S
C120 O124 1.260 . S
C121 O128 1.240 . S
C121 O129 1.252 . S
C122 O125 1.252 . S
C122 O126 1.260 . S
O123 In117 2.266 . S
O123 C120 1.252 . S
O124 In117 2.326 . S
O124 C120 1.260 . S
O125 In117 2.266 1_455 S
O125 C122 1.252 . S
O126 In117 2.326 1_455 S
O126 C122 1.260 . S
C127 O118 1.240 . S
C127 O119 1.252 . S
O128 In117 2.294 . S
O128 C121 1.240 . S
O129 In117 2.326 . S
O129 C121 1.252 . S
In130 O131 2.294 . S
In130 O132 2.326 . S
In130 O136 2.266 . S
In130 O137 2.326 . S
In130 O138 2.266 . S
In130 O139 2.326 . S
In130 O141 2.294 . S
In130 O142 2.326 . S
O131 In130 2.294 . S
O131 C140 1.240 . S
O132 In130 2.326 . S
O132 C140 1.252 . S
C133 O136 1.252 . S
C133 O137 1.260 . S
C134 O141 1.240 . S
C134 O142 1.252 . S
C135 O138 1.252 . S
C135 O139 1.260 . S
O136 In130 2.266 . S
O136 C133 1.252 . S
O137 In130 2.326 . S
O137 C133 1.260 . S
O138 In130 2.266 . S
O138 C135 1.252 . S
O139 In130 2.326 . S
O139 C135 1.260 . S
C140 O131 1.240 . S
C140 O132 1.252 . S
O141 In130 2.294 . S
O141 C134 1.240 . S
O142 In130 2.326 . S
O142 C134 1.252 . S
In143 O144 2.294 . S
In143 O145 2.326 . S
In143 O149 2.266 1_545 S
In143 O150 2.326 1_545 S
In143 O151 2.266 . S
In143 O152 2.326 . S
In143 O154 2.294 . S
In143 O155 2.326 . S
O144 In143 2.294 . S
O144 C153 1.240 . S
O145 In143 2.326 . S
O145 C153 1.252 . S
C146 O149 1.252 . S
C146 O150 1.260 . S
C147 O154 1.240 . S
C147 O155 1.252 . S
C148 O151 1.252 . S
C148 O152 1.260 . S
O149 In143 2.266 1_565 S
O149 C146 1.252 . S
O150 In143 2.326 1_565 S
O150 C146 1.260 . S
O151 In143 2.266 . S
O151 C148 1.252 . S
O152 In143 2.326 . S
O152 C148 1.260 . S
C153 O144 1.240 . S
C153 O145 1.252 . S
O154 In143 2.294 . S
O154 C147 1.240 . S
O155 In143 2.326 . S
O155 C147 1.252 . S
In156 O157 2.294 . S
In156 O158 2.326 . S
In156 O162 2.266 . S
In156 O163 2.326 . S
In156 O164 2.266 . S
In156 O165 2.326 . S
In156 O167 2.294 . S
In156 O168 2.326 . S
O157 In156 2.294 . S
O157 C166 1.240 . S
O158 In156 2.326 . S
O158 C166 1.252 . S
C159 O162 1.252 . S
C159 O163 1.260 . S
C160 O167 1.240 . S
C160 O168 1.252 . S
C161 O164 1.252 . S
C161 O165 1.260 . S
O162 In156 2.266 . S
O162 C159 1.252 . S
O163 In156 2.326 . S
O163 C159 1.260 . S
O164 In156 2.266 . S
O164 C161 1.252 . S
O165 In156 2.326 . S
O165 C161 1.260 . S
C166 O157 1.240 . S
C166 O158 1.252 . S
O167 In156 2.294 . S
O167 C160 1.240 . S
O168 In156 2.326 . S
O168 C160 1.252 . S
In169 O170 2.294 . S
In169 O171 2.326 . S
In169 O175 2.266 . S
In169 O176 2.326 . S
In169 O177 2.266 . S
In169 O178 2.326 . S
In169 O180 2.294 . S
In169 O181 2.326 . S
O170 In169 2.294 . S
O170 C179 1.240 . S
O171 In169 2.326 . S
O171 C179 1.252 . S
C172 O175 1.252 . S
C172 O176 1.260 . S
C173 O180 1.240 . S
C173 O181 1.252 . S
C174 O177 1.252 . S
C174 O178 1.260 . S
O175 In169 2.266 . S
O175 C172 1.252 . S
O176 In169 2.326 . S
O176 C172 1.260 . S
O177 In169 2.266 . S
O177 C174 1.252 . S
O178 In169 2.326 . S
O178 C174 1.260 . S
C179 O170 1.240 . S
C179 O171 1.252 . S
O180 In169 2.294 . S
O180 C173 1.240 . S
O181 In169 2.326 . S
O181 C173 1.252 . S
In182 O183 2.294 . S
In182 O184 2.326 . S
In182 O188 2.266 . S
In182 O189 2.326 . S
In182 O190 2.266 . S
In182 O191 2.326 . S
In182 O193 2.294 . S
In182 O194 2.326 . S
O183 In182 2.294 . S
O183 C192 1.240 . S
O184 In182 2.326 . S
O184 C192 1.252 . S
C185 O188 1.252 . S
C185 O189 1.260 . S
C186 O193 1.240 . S
C186 O194 1.252 . S
C187 O190 1.252 . S
C187 O191 1.260 . S
O188 In182 2.266 . S
O188 C185 1.252 . S
O189 In182 2.326 . S
O189 C185 1.260 . S
O190 In182 2.266 . S
O190 C187 1.252 . S
O191 In182 2.326 . S
O191 C187 1.260 . S
C192 O183 1.240 . S
C192 O184 1.252 . S
O193 In182 2.294 . S
O193 C186 1.240 . S
O194 In182 2.326 . S
O194 C186 1.252 . S
In195 O196 2.294 . S
In195 O197 2.326 . S
In195 O201 2.266 . S
In195 O202 2.326 . S
In195 O203 2.266 . S
In195 O204 2.326 . S
In195 O206 2.294 . S
In195 O207 2.326 . S
O196 In195 2.294 . S
O196 C205 1.240 . S
O197 In195 2.326 . S
O197 C205 1.252 . S
C198 O201 1.252 . S
C198 O202 1.260 . S
C199 O206 1.240 . S
C199 O207 1.252 . S
C200 O203 1.252 . S
C200 O204 1.260 . S
O201 In195 2.266 . S
O201 C198 1.252 . S
O202 In195 2.326 . S
O202 C198 1.260 . S
O203 In195 2.266 . S
O203 C200 1.252 . S
O204 In195 2.326 . S
O204 C200 1.260 . S
C205 O196 1.240 . S
C205 O197 1.252 . S
O206 In195 2.294 . S
O206 C199 1.240 . S
O207 In195 2.326 . S
O207 C199 1.252 . S
In208 O209 2.294 . S
In208 O210 2.326 . S
In208 O214 2.266 . S
In208 O215 2.326 . S
In208 O216 2.266 . S
In208 O217 2.326 . S
In208 O219 2.294 . S
In208 O220 2.326 . S
O209 In208 2.294 . S
O209 C218 1.240 . S
O210 In208 2.326 . S
O210 C218 1.252 . S
C211 O214 1.252 . S
C211 O215 1.260 . S
C212 O219 1.240 . S
C212 O220 1.252 . S
C213 O216 1.252 . S
C213 O217 1.260 . S
O214 In208 2.266 . S
O214 C211 1.252 . S
O215 In208 2.326 . S
O215 C211 1.260 . S
O216 In208 2.266 . S
O216 C213 1.252 . S
O217 In208 2.326 . S
O217 C213 1.260 . S
C218 O209 1.240 . S
C218 O210 1.252 . S
O219 In208 2.294 . S
O219 C212 1.240 . S
O220 In208 2.326 . S
O220 C212 1.252 . S
In221 O222 2.294 . S
In221 O223 2.326 . S
In221 O227 2.266 . S
In221 O228 2.326 . S
In221 O229 2.266 . S
In221 O230 2.326 . S
In221 O232 2.294 . S
In221 O233 2.326 . S
O222 In221 2.294 . S
O222 C231 1.240 . S
O223 In221 2.326 . S
O223 C231 1.252 . S
C224 O227 1.252 . S
C224 O228 1.260 . S
C225 O232 1.240 . S
C225 O233 1.252 . S
C226 O229 1.252 . S
C226 O230 1.260 . S
O227 In221 2.266 . S
O227 C224 1.252 . S
O228 In221 2.326 . S
O228 C224 1.260 . S
O229 In221 2.266 . S
O229 C226 1.252 . S
O230 In221 2.326 . S
O230 C226 1.260 . S
C231 O222 1.240 . S
C231 O223 1.252 . S
O232 In221 2.294 . S
O232 C225 1.240 . S
O233 In221 2.326 . S
O233 C225 1.252 . S
In234 O235 2.294 . S
In234 O236 2.326 . S
In234 O240 2.266 . S
In234 O241 2.326 . S
In234 O242 2.266 . S
In234 O243 2.326 . S
In234 O245 2.294 . S
In234 O246 2.326 . S
O235 In234 2.294 . S
O235 C244 1.240 . S
O236 In234 2.326 . S
O236 C244 1.252 . S
C237 O240 1.252 . S
C237 O241 1.260 . S
C238 O245 1.240 . S
C238 O246 1.252 . S
C239 O242 1.252 . S
C239 O243 1.260 . S
O240 In234 2.266 . S
O240 C237 1.252 . S
O241 In234 2.326 . S
O241 C237 1.260 . S
O242 In234 2.266 . S
O242 C239 1.252 . S
O243 In234 2.326 . S
O243 C239 1.260 . S
C244 O235 1.240 . S
C244 O236 1.252 . S
O245 In234 2.294 . S
O245 C238 1.240 . S
O246 In234 2.326 . S
O246 C238 1.252 . S
In247 O248 2.294 . S
In247 O249 2.326 . S
In247 O253 2.266 . S
In247 O254 2.326 . S
In247 O255 2.266 . S
In247 O256 2.326 . S
In247 O258 2.294 . S
In247 O259 2.326 . S
O248 In247 2.294 . S
O248 C257 1.240 . S
O249 In247 2.326 . S
O249 C257 1.252 . S
C250 O253 1.252 . S
C250 O254 1.260 . S
C251 O258 1.240 . S
C251 O259 1.252 . S
C252 O255 1.252 . S
C252 O256 1.260 . S
O253 In247 2.266 . S
O253 C250 1.252 . S
O254 In247 2.326 . S
O254 C250 1.260 . S
O255 In247 2.266 . S
O255 C252 1.252 . S
O256 In247 2.326 . S
O256 C252 1.260 . S
C257 O248 1.240 . S
C257 O249 1.252 . S
O258 In247 2.294 . S
O258 C251 1.240 . S
O259 In247 2.326 . S
O259 C251 1.252 . S
In260 O261 2.294 . S
In260 O262 2.326 . S
In260 O266 2.266 . S
In260 O267 2.326 . S
In260 O268 2.266 . S
In260 O269 2.326 . S
In260 O271 2.294 . S
In260 O272 2.326 . S
O261 In260 2.294 . S
O261 C270 1.240 . S
O262 In260 2.326 . S
O262 C270 1.252 . S
C263 O266 1.252 . S
C263 O267 1.260 . S
C264 O271 1.240 . S
C264 O272 1.252 . S
C265 O268 1.252 . S
C265 O269 1.260 . S
O266 In260 2.266 . S
O266 C263 1.252 . S
O267 In260 2.326 . S
O267 C263 1.260 . S
O268 In260 2.266 . S
O268 C265 1.252 . S
O269 In260 2.326 . S
O269 C265 1.260 . S
C270 O261 1.240 . S
C270 O262 1.252 . S
O271 In260 2.294 . S
O271 C264 1.240 . S
O272 In260 2.326 . S
O272 C264 1.252 . S
In273 O274 2.294 . S
In273 O275 2.326 . S
In273 O279 2.266 . S
In273 O280 2.326 . S
In273 O281 2.266 . S
In273 O282 2.326 . S
In273 O284 2.294 . S
In273 O285 2.326 . S
O274 In273 2.294 . S
O274 C283 1.240 . S
O275 In273 2.326 . S
O275 C283 1.252 . S
C276 O279 1.252 . S
C276 O280 1.260 . S
C277 O284 1.240 . S
C277 O285 1.252 . S
C278 O281 1.252 . S
C278 O282 1.260 . S
O279 In273 2.266 . S
O279 C276 1.252 . S
O280 In273 2.326 . S
O280 C276 1.260 . S
O281 In273 2.266 . S
O281 C278 1.252 . S
O282 In273 2.326 . S
O282 C278 1.260 . S
C283 O274 1.240 . S
C283 O275 1.252 . S
O284 In273 2.294 . S
O284 C277 1.240 . S
O285 In273 2.326 . S
O285 C277 1.252 . S
In286 O287 2.294 . S
In286 O288 2.326 . S
In286 O292 2.266 . S
In286 O293 2.326 . S
In286 O294 2.266 . S
In286 O295 2.326 . S
In286 O297 2.294 . S
In286 O298 2.326 . S
O287 In286 2.294 . S
O287 C296 1.240 . S
O288 In286 2.326 . S
O288 C296 1.252 . S
C289 O292 1.252 . S
C289 O293 1.260 . S
C290 O297 1.240 . S
C290 O298 1.252 . S
C291 O294 1.252 . S
C291 O295 1.260 . S
O292 In286 2.266 . S
O292 C289 1.252 . S
O293 In286 2.326 . S
O293 C289 1.260 . S
O294 In286 2.266 . S
O294 C291 1.252 . S
O295 In286 2.326 . S
O295 C291 1.260 . S
C296 O287 1.240 . S
C296 O288 1.252 . S
O297 In286 2.294 . S
O297 C290 1.240 . S
O298 In286 2.326 . S
O298 C290 1.252 . S
In299 O300 2.294 . S
In299 O301 2.326 . S
In299 O305 2.266 . S
In299 O306 2.326 . S
In299 O307 2.266 . S
In299 O308 2.326 . S
In299 O310 2.294 . S
In299 O311 2.326 . S
O300 In299 2.294 . S
O300 C309 1.240 . S
O301 In299 2.326 . S
O301 C309 1.252 . S
C302 O305 1.252 . S
C302 O306 1.260 . S
C303 O310 1.240 . S
C303 O311 1.252 . S
C304 O307 1.252 . S
C304 O308 1.260 . S
O305 In299 2.266 . S
O305 C302 1.252 . S
O306 In299 2.326 . S
O306 C302 1.260 . S
O307 In299 2.266 . S
O307 C304 1.252 . S
O308 In299 2.326 . S
O308 C304 1.260 . S
C309 O300 1.240 . S
C309 O301 1.252 . S
O310 In299 2.294 . S
O310 C303 1.240 . S
O311 In299 2.326 . S
O311 C303 1.252 . S
In312 O313 2.294 . S
In312 O314 2.326 . S
In312 O318 2.266 . S
In312 O319 2.326 . S
In312 O320 2.266 . S
In312 O321 2.326 . S
In312 O323 2.294 . S
In312 O324 2.326 . S
O313 In312 2.294 . S
O313 C322 1.240 . S
O314 In312 2.326 . S
O314 C322 1.252 . S
C315 O318 1.252 . S
C315 O319 1.260 . S
C316 O323 1.240 . S
C316 O324 1.252 . S
C317 O320 1.252 . S
C317 O321 1.260 . S
O318 In312 2.266 . S
O318 C315 1.252 . S
O319 In312 2.326 . S
O319 C315 1.260 . S
O320 In312 2.266 . S
O320 C317 1.252 . S
O321 In312 2.326 . S
O321 C317 1.260 . S
C322 O313 1.240 . S
C322 O314 1.252 . S
O323 In312 2.294 . S
O323 C316 1.240 . S
O324 In312 2.326 . S
O324 C316 1.252 . S
In325 O326 2.294 . S
In325 O327 2.326 . S
In325 O331 2.266 . S
In325 O332 2.326 . S
In325 O333 2.266 . S
In325 O334 2.326 . S
In325 O336 2.294 . S
In325 O337 2.326 . S
O326 In325 2.294 . S
O326 C335 1.240 . S
O327 In325 2.326 . S
O327 C335 1.252 . S
C328 O331 1.252 . S
C328 O332 1.260 . S
C329 O336 1.240 . S
C329 O337 1.252 . S
C330 O333 1.252 . S
C330 O334 1.260 . S
O331 In325 2.266 . S
O331 C328 1.252 . S
O332 In325 2.326 . S
O332 C328 1.260 . S
O333 In325 2.266 . S
O333 C330 1.252 . S
O334 In325 2.326 . S
O334 C330 1.260 . S
C335 O326 1.240 . S
C335 O327 1.252 . S
O336 In325 2.294 . S
O336 C329 1.240 . S
O337 In325 2.326 . S
O337 C329 1.252 . S
In338 O339 2.294 . S
In338 O340 2.326 . S
In338 O344 2.266 . S
In338 O345 2.326 . S
In338 O346 2.266 . S
In338 O347 2.326 . S
In338 O349 2.294 . S
In338 O350 2.326 . S
O339 In338 2.294 . S
O339 C348 1.240 . S
O340 In338 2.326 . S
O340 C348 1.252 . S
C341 O344 1.252 . S
C341 O345 1.260 . S
C342 O349 1.240 . S
C342 O350 1.252 . S
C343 O346 1.252 . S
C343 O347 1.260 . S
O344 In338 2.266 . S
O344 C341 1.252 . S
O345 In338 2.326 . S
O345 C341 1.260 . S
O346 In338 2.266 . S
O346 C343 1.252 . S
O347 In338 2.326 . S
O347 C343 1.260 . S
C348 O339 1.240 . S
C348 O340 1.252 . S
O349 In338 2.294 . S
O349 C342 1.240 . S
O350 In338 2.326 . S
O350 C342 1.252 . S
In351 O352 2.294 . S
In351 O353 2.326 . S
In351 O357 2.266 . S
In351 O358 2.326 . S
In351 O359 2.266 . S
In351 O360 2.326 . S
In351 O362 2.294 . S
In351 O363 2.326 . S
O352 In351 2.294 . S
O352 C361 1.240 . S
O353 In351 2.326 . S
O353 C361 1.252 . S
C354 O357 1.252 . S
C354 O358 1.260 . S
C355 O362 1.240 . S
C355 O363 1.252 . S
C356 O359 1.252 . S
C356 O360 1.260 . S
O357 In351 2.266 . S
O357 C354 1.252 . S
O358 In351 2.326 . S
O358 C354 1.260 . S
O359 In351 2.266 . S
O359 C356 1.252 . S
O360 In351 2.326 . S
O360 C356 1.260 . S
C361 O352 1.240 . S
C361 O353 1.252 . S
O362 In351 2.294 . S
O362 C355 1.240 . S
O363 In351 2.326 . S
O363 C355 1.252 . S
In364 O365 2.294 . S
In364 O366 2.326 . S
In364 O370 2.266 . S
In364 O371 2.326 . S
In364 O372 2.266 . S
In364 O373 2.326 . S
In364 O375 2.294 . S
In364 O376 2.326 . S
O365 In364 2.294 . S
O365 C374 1.240 . S
O366 In364 2.326 . S
O366 C374 1.252 . S
C367 O370 1.252 . S
C367 O371 1.260 . S
C368 O375 1.240 . S
C368 O376 1.252 . S
C369 O372 1.252 . S
C369 O373 1.260 . S
O370 In364 2.266 . S
O370 C367 1.252 . S
O371 In364 2.326 . S
O371 C367 1.260 . S
O372 In364 2.266 . S
O372 C369 1.252 . S
O373 In364 2.326 . S
O373 C369 1.260 . S
C374 O365 1.240 . S
C374 O366 1.252 . S
O375 In364 2.294 . S
O375 C368 1.240 . S
O376 In364 2.326 . S
O376 C368 1.252 . S
In377 O378 2.294 . S
In377 O379 2.326 . S
In377 O383 2.266 . S
In377 O384 2.326 . S
In377 O385 2.266 . S
In377 O386 2.326 . S
In377 O388 2.294 . S
In377 O389 2.326 . S
O378 In377 2.294 . S
O378 C387 1.240 . S
O379 In377 2.326 . S
O379 C387 1.252 . S
C380 O383 1.252 . S
C380 O384 1.260 . S
C381 O388 1.240 . S
C381 O389 1.252 . S
C382 O385 1.252 . S
C382 O386 1.260 . S
O383 In377 2.266 . S
O383 C380 1.252 . S
O384 In377 2.326 . S
O384 C380 1.260 . S
O385 In377 2.266 . S
O385 C382 1.252 . S
O386 In377 2.326 . S
O386 C382 1.260 . S
C387 O378 1.240 . S
C387 O379 1.252 . S
O388 In377 2.294 . S
O388 C381 1.240 . S
O389 In377 2.326 . S
O389 C381 1.252 . S
In390 O391 2.294 . S
In390 O392 2.326 . S
In390 O396 2.266 . S
In390 O397 2.326 . S
In390 O398 2.266 . S
In390 O399 2.326 . S
In390 O401 2.294 . S
In390 O402 2.326 . S
O391 In390 2.294 . S
O391 C400 1.240 . S
O392 In390 2.326 . S
O392 C400 1.252 . S
C393 O396 1.252 . S
C393 O397 1.260 . S
C394 O401 1.240 . S
C394 O402 1.252 . S
C395 O398 1.252 . S
C395 O399 1.260 . S
O396 In390 2.266 . S
O396 C393 1.252 . S
O397 In390 2.326 . S
O397 C393 1.260 . S
O398 In390 2.266 . S
O398 C395 1.252 . S
O399 In390 2.326 . S
O399 C395 1.260 . S
C400 O391 1.240 . S
C400 O392 1.252 . S
O401 In390 2.294 . S
O401 C394 1.240 . S
O402 In390 2.326 . S
O402 C394 1.252 . S
In403 O404 2.294 . S
In403 O405 2.326 . S
In403 O409 2.266 . S
In403 O410 2.326 . S
In403 O411 2.266 . S
In403 O412 2.326 . S
In403 O414 2.294 . S
In403 O415 2.326 . S
O404 In403 2.294 . S
O404 C413 1.240 . S
O405 In403 2.326 . S
O405 C413 1.252 . S
C406 O409 1.252 . S
C406 O410 1.260 . S
C407 O414 1.240 . S
C407 O415 1.252 . S
C408 O411 1.252 . S
C408 O412 1.260 . S
O409 In403 2.266 . S
O409 C406 1.252 . S
O410 In403 2.326 . S
O410 C406 1.260 . S
O411 In403 2.266 . S
O411 C408 1.252 . S
O412 In403 2.326 . S
O412 C408 1.260 . S
C413 O404 1.240 . S
C413 O405 1.252 . S
O414 In403 2.294 . S
O414 C407 1.240 . S
O415 In403 2.326 . S
O415 C407 1.252 . S
In416 O417 2.294 . S
In416 O418 2.326 . S
In416 O422 2.266 . S
In416 O423 2.326 . S
In416 O424 2.266 . S
In416 O425 2.326 . S
In416 O427 2.294 . S
In416 O428 2.326 . S
O417 In416 2.294 . S
O417 C426 1.240 . S
O418 In416 2.326 . S
O418 C426 1.252 . S
C419 O422 1.252 . S
C419 O423 1.260 . S
C420 O427 1.240 . S
C420 O428 1.252 . S
C421 O424 1.252 . S
C421 O425 1.260 . S
O422 In416 2.266 . S
O422 C419 1.252 . S
O423 In416 2.326 . S
O423 C419 1.260 . S
O424 In416 2.266 . S
O424 C421 1.252 . S
O425 In416 2.326 . S
O425 C421 1.260 . S
C426 O417 1.240 . S
C426 O418 1.252 . S
O427 In416 2.294 . S
O427 C420 1.240 . S
O428 In416 2.326 . S
O428 C420 1.252 . S
In429 O430 2.294 . S
In429 O431 2.326 . S
In429 O435 2.266 . S
In429 O436 2.326 . S
In429 O437 2.266 . S
In429 O438 2.326 . S
In429 O440 2.294 . S
In429 O441 2.326 . S
O430 In429 2.294 . S
O430 C439 1.240 . S
O431 In429 2.326 . S
O431 C439 1.252 . S
C432 O435 1.252 . S
C432 O436 1.260 . S
C433 O440 1.240 . S
C433 O441 1.252 . S
C434 O437 1.252 . S
C434 O438 1.260 . S
O435 In429 2.266 . S
O435 C432 1.252 . S
O436 In429 2.326 . S
O436 C432 1.260 . S
O437 In429 2.266 . S
O437 C434 1.252 . S
O438 In429 2.326 . S
O438 C434 1.260 . S
C439 O430 1.240 . S
C439 O431 1.252 . S
O440 In429 2.294 . S
O440 C433 1.240 . S
O441 In429 2.326 . S
O441 C433 1.252 . S
In442 O443 2.294 . S
In442 O444 2.326 . S
In442 O448 2.266 . S
In442 O449 2.326 . S
In442 O450 2.266 . S
In442 O451 2.326 . S
In442 O453 2.294 . S
In442 O454 2.326 . S
O443 In442 2.294 . S
O443 C452 1.240 . S
O444 In442 2.326 . S
O444 C452 1.252 . S
C445 O448 1.252 . S
C445 O449 1.260 . S
C446 O453 1.240 . S
C446 O454 1.252 . S
C447 O450 1.252 . S
C447 O451 1.260 . S
O448 In442 2.266 . S
O448 C445 1.252 . S
O449 In442 2.326 . S
O449 C445 1.260 . S
O450 In442 2.266 . S
O450 C447 1.252 . S
O451 In442 2.326 . S
O451 C447 1.260 . S
C452 O443 1.240 . S
C452 O444 1.252 . S
O453 In442 2.294 . S
O453 C446 1.240 . S
O454 In442 2.326 . S
O454 C446 1.252 . S
In455 O456 2.294 . S
In455 O457 2.326 . S
In455 O461 2.266 . S
In455 O462 2.326 . S
In455 O463 2.266 . S
In455 O464 2.326 . S
In455 O466 2.294 . S
In455 O467 2.326 . S
O456 In455 2.294 . S
O456 C465 1.240 . S
O457 In455 2.326 . S
O457 C465 1.252 . S
C458 O461 1.252 . S
C458 O462 1.260 . S
C459 O466 1.240 . S
C459 O467 1.252 . S
C460 O463 1.252 . S
C460 O464 1.260 . S
O461 In455 2.266 . S
O461 C458 1.252 . S
O462 In455 2.326 . S
O462 C458 1.260 . S
O463 In455 2.266 . S
O463 C460 1.252 . S
O464 In455 2.326 . S
O464 C460 1.260 . S
C465 O456 1.240 . S
C465 O457 1.252 . S
O466 In455 2.294 . S
O466 C459 1.240 . S
O467 In455 2.326 . S
O467 C459 1.252 . S
C468 C469 1.387 . S
C468 H472 0.950 . S
C468 C477 1.390 . S
C469 C468 1.387 . S
C469 C471 1.387 . S
H470 C477 0.950 . S
C471 C469 1.387 . S
C471 C473 1.390 . S
C471 H475 0.950 . S
H472 C468 0.950 . S
C473 C471 1.390 . S
C473 C474 1.387 . S
C473 H476 0.950 . S
C474 C473 1.387 . S
C474 C477 1.387 . S
H475 C471 0.950 . S
H476 C473 0.950 . S
C477 C468 1.390 . S
C477 H470 0.950 . S
C477 C474 1.387 . S
C478 C479 1.387 . S
C478 H482 0.950 . S
C478 C487 1.390 . S
C479 C478 1.387 . S
C479 C481 1.387 . S
H480 C487 0.950 . S
C481 C479 1.387 . S
C481 C483 1.390 . S
C481 H485 0.950 . S
H482 C478 0.950 . S
C483 C481 1.390 . S
C483 C484 1.387 . S
C483 H486 0.950 . S
C484 C483 1.387 . S
C484 C487 1.387 . S
H485 C481 0.950 . S
H486 C483 0.950 . S
C487 C478 1.390 . S
C487 H480 0.950 . S
C487 C484 1.387 . S
C488 C489 1.387 . S
C488 H492 0.950 . S
C488 C497 1.390 . S
C489 C488 1.387 . S
C489 C491 1.387 . S
H490 C497 0.950 . S
C491 C489 1.387 . S
C491 C493 1.390 . S
C491 H495 0.950 . S
H492 C488 0.950 . S
C493 C491 1.390 . S
C493 C494 1.387 . S
C493 H496 0.950 . S
C494 C493 1.387 . S
C494 C497 1.387 . S
H495 C491 0.950 . S
H496 C493 0.950 . S
C497 C488 1.390 . S
C497 H490 0.950 . S
C497 C494 1.387 . S
C498 C499 1.387 . S
C498 H502 0.950 . S
C498 C507 1.390 . S
C499 C498 1.387 . S
C499 C501 1.387 . S
H500 C507 0.950 . S
C501 C499 1.387 . S
C501 C503 1.390 . S
C501 H505 0.950 . S
H502 C498 0.950 . S
C503 C501 1.390 . S
C503 C504 1.387 . S
C503 H506 0.950 . S
C504 C503 1.387 . S
C504 C507 1.387 . S
H505 C501 0.950 . S
H506 C503 0.950 . S
C507 C498 1.390 . S
C507 H500 0.950 . S
C507 C504 1.387 . S
C508 C509 1.387 . S
C508 H512 0.950 . S
C508 C517 1.390 . S
C509 C508 1.387 . S
C509 C511 1.387 . S
H510 C517 0.950 . S
C511 C509 1.387 . S
C511 C513 1.390 . S
C511 H515 0.950 . S
H512 C508 0.950 . S
C513 C511 1.390 . S
C513 C514 1.387 . S
C513 H516 0.950 . S
C514 C513 1.387 . S
C514 C517 1.387 . S
H515 C511 0.950 . S
H516 C513 0.950 . S
C517 C508 1.390 . S
C517 H510 0.950 . S
C517 C514 1.387 . S
C518 C519 1.387 . S
C518 H522 0.950 . S
C518 C527 1.390 . S
C519 C518 1.387 . S
C519 C521 1.387 . S
H520 C527 0.950 . S
C521 C519 1.387 . S
C521 C523 1.390 . S
C521 H525 0.950 . S
H522 C518 0.950 . S
C523 C521 1.390 . S
C523 C524 1.387 . S
C523 H526 0.950 . S
C524 C523 1.387 . S
C524 C527 1.387 . S
H525 C521 0.950 . S
H526 C523 0.950 . S
C527 C518 1.390 . S
C527 H520 0.950 . S
C527 C524 1.387 . S
C528 C529 1.387 . S
C528 H532 0.950 . S
C528 C537 1.390 . S
C529 C528 1.387 . S
C529 C531 1.387 . S
H530 C537 0.950 . S
C531 C529 1.387 . S
C531 C533 1.390 . S
C531 H535 0.950 . S
H532 C528 0.950 . S
C533 C531 1.390 . S
C533 C534 1.387 . S
C533 H536 0.950 . S
C534 C533 1.387 . S
C534 C537 1.387 . S
H535 C531 0.950 . S
H536 C533 0.950 . S
C537 C528 1.390 . S
C537 H530 0.950 . S
C537 C534 1.387 . S
C538 C539 1.387 . S
C538 H542 0.950 . S
C538 C547 1.390 . S
C539 C538 1.387 . S
C539 C541 1.387 . S
H540 C547 0.950 . S
C541 C539 1.387 . S
C541 C543 1.390 . S
C541 H545 0.950 . S
H542 C538 0.950 . S
C543 C541 1.390 . S
C543 C544 1.387 . S
C543 H546 0.950 . S
C544 C543 1.387 . S
C544 C547 1.387 . S
H545 C541 0.950 . S
H546 C543 0.950 . S
C547 C538 1.390 . S
C547 H540 0.950 . S
C547 C544 1.387 . S
C548 C549 1.387 . S
C548 H552 0.950 . S
C548 C557 1.390 . S
C549 C548 1.387 . S
C549 C551 1.387 . S
H550 C557 0.950 . S
C551 C549 1.387 . S
C551 C553 1.390 . S
C551 H555 0.950 . S
H552 C548 0.950 . S
C553 C551 1.390 . S
C553 C554 1.387 . S
C553 H556 0.950 . S
C554 C553 1.387 . S
C554 C557 1.387 . S
H555 C551 0.950 . S
H556 C553 0.950 . S
C557 C548 1.390 . S
C557 H550 0.950 . S
C557 C554 1.387 . S
C558 C559 1.387 . S
C558 H562 0.950 . S
C558 C567 1.390 . S
C559 C558 1.387 . S
C559 C561 1.387 . S
H560 C567 0.950 . S
C561 C559 1.387 . S
C561 C563 1.390 . S
C561 H565 0.950 . S
H562 C558 0.950 . S
C563 C561 1.390 . S
C563 C564 1.387 . S
C563 H566 0.950 . S
C564 C563 1.387 . S
C564 C567 1.387 . S
H565 C561 0.950 . S
H566 C563 0.950 . S
C567 C558 1.390 . S
C567 H560 0.950 . S
C567 C564 1.387 . S
C568 C569 1.387 . S
C568 H572 0.950 . S
C568 C577 1.390 . S
C569 C568 1.387 . S
C569 C571 1.387 . S
H570 C577 0.950 . S
C571 C569 1.387 . S
C571 C573 1.390 . S
C571 H575 0.950 . S
H572 C568 0.950 . S
C573 C571 1.390 . S
C573 C574 1.387 . S
C573 H576 0.950 . S
C574 C573 1.387 . S
C574 C577 1.387 . S
H575 C571 0.950 . S
H576 C573 0.950 . S
C577 C568 1.390 . S
C577 H570 0.950 . S
C577 C574 1.387 . S
C578 C579 1.387 . S
C578 H582 0.950 . S
C578 C587 1.390 . S
C579 C578 1.387 . S
C579 C581 1.387 . S
H580 C587 0.950 . S
C581 C579 1.387 . S
C581 C583 1.390 . S
C581 H585 0.950 . S
H582 C578 0.950 . S
C583 C581 1.390 . S
C583 C584 1.387 . S
C583 H586 0.950 . S
C584 C583 1.387 . S
C584 C587 1.387 . S
H585 C581 0.950 . S
H586 C583 0.950 . S
C587 C578 1.390 . S
C587 H580 0.950 . S
C587 C584 1.387 . S
C588 C589 1.387 . S
C588 H592 0.950 . S
C588 C597 1.390 . S
C589 C588 1.387 . S
C589 C591 1.387 1_455 S
H590 C597 0.950 . S
C591 C589 1.387 1_655 S
C591 C593 1.390 . S
C591 H595 0.950 . S
H592 C588 0.950 . S
C593 C591 1.390 . S
C593 C594 1.387 . S
C593 H596 0.950 . S
C594 C593 1.387 . S
C594 C597 1.387 1_655 S
H595 C591 0.950 . S
H596 C593 0.950 . S
C597 C588 1.390 . S
C597 H590 0.950 . S
C597 C594 1.387 1_455 S
C598 C599 1.387 . S
C598 H602 0.950 . S
C598 C607 1.390 . S
C599 C598 1.387 . S
C599 C601 1.387 . S
H600 C607 0.950 . S
C601 C599 1.387 . S
C601 C603 1.390 . S
C601 H605 0.950 . S
H602 C598 0.950 . S
C603 C601 1.390 . S
C603 C604 1.387 . S
C603 H606 0.950 . S
C604 C603 1.387 . S
C604 C607 1.387 . S
H605 C601 0.950 . S
H606 C603 0.950 . S
C607 C598 1.390 . S
C607 H600 0.950 . S
C607 C604 1.387 . S
C608 C609 1.387 . S
C608 H612 0.950 . S
C608 C617 1.390 . S
C609 C608 1.387 . S
C609 C611 1.387 1_545 S
H610 C617 0.950 . S
C611 C609 1.387 1_565 S
C611 C613 1.390 . S
C611 H615 0.950 . S
H612 C608 0.950 . S
C613 C611 1.390 . S
C613 C614 1.387 . S
C613 H616 0.950 . S
C614 C613 1.387 . S
C614 C617 1.387 1_565 S
H615 C611 0.950 . S
H616 C613 0.950 . S
C617 C608 1.390 . S
C617 H610 0.950 . S
C617 C614 1.387 1_545 S
C618 C619 1.387 1_556 S
C618 H622 0.950 . S
C618 C627 1.390 . S
C619 C618 1.387 1_554 S
C619 C621 1.387 1_565 S
H620 C627 0.950 . S
C621 C619 1.387 1_545 S
C621 C623 1.390 . S
C621 H625 0.950 . S
H622 C618 0.950 . S
C623 C621 1.390 . S
C623 C624 1.387 1_554 S
C623 H626 0.950 . S
C624 C623 1.387 1_556 S
C624 C627 1.387 1_545 S
H625 C621 0.950 . S
H626 C623 0.950 . S
C627 C618 1.390 . S
C627 H620 0.950 . S
C627 C624 1.387 1_565 S
C628 C629 1.387 . S
C628 H632 0.950 . S
C628 C637 1.390 1_556 S
C629 C628 1.387 . S
C629 C631 1.387 1_655 S
H630 C637 0.950 . S
C631 C629 1.387 1_455 S
C631 C633 1.390 1_556 S
C631 H635 0.950 . S
H632 C628 0.950 . S
C633 C631 1.390 1_554 S
C633 C634 1.387 . S
C633 H636 0.950 . S
C634 C633 1.387 . S
C634 C637 1.387 1_455 S
H635 C631 0.950 . S
H636 C633 0.950 . S
C637 C628 1.390 1_554 S
C637 H630 0.950 . S
C637 C634 1.387 1_655 S
C638 C639 1.387 . S
C638 H642 0.950 . S
C638 C647 1.390 . S
C639 C638 1.387 . S
C639 C641 1.387 1_556 S
H640 C647 0.950 . S
C641 C639 1.387 1_554 S
C641 C643 1.390 . S
C641 H645 0.950 . S
H642 C638 0.950 . S
C643 C641 1.390 . S
C643 C644 1.387 . S
C643 H646 0.950 . S
C644 C643 1.387 . S
C644 C647 1.387 1_554 S
H645 C641 0.950 . S
H646 C643 0.950 . S
C647 C638 1.390 . S
C647 H640 0.950 . S
C647 C644 1.387 1_556 S
C648 C649 1.387 . S
C648 H652 0.950 . S
C648 C657 1.390 . S
C649 C648 1.387 . S
C649 C651 1.387 1_565 S
H650 C657 0.950 . S
C651 C649 1.387 1_545 S
C651 C653 1.390 1_545 S
C651 H655 0.950 . S
H652 C648 0.950 . S
C653 C651 1.390 1_565 S
C653 C654 1.387 . S
C653 H656 0.950 . S
C654 C653 1.387 . S
C654 C657 1.387 . S
H655 C651 0.950 . S
H656 C653 0.950 . S
C657 C648 1.390 . S
C657 H650 0.950 . S
C657 C654 1.387 . S
C658 C659 1.387 . S
C658 H662 0.950 . S
C658 C667 1.390 . S
C659 C658 1.387 . S
C659 C661 1.387 . S
H660 C667 0.950 . S
C661 C659 1.387 . S
C661 C663 1.390 1_455 S
C661 H665 0.950 1_455 S
H662 C658 0.950 . S
C663 C661 1.390 1_655 S
C663 C664 1.387 1_655 S
C663 H666 0.950 . S
C664 C663 1.387 1_455 S
C664 C667 1.387 . S
H665 C661 0.950 1_655 S
H666 C663 0.950 . S
C667 C658 1.390 . S
C667 H660 0.950 . S
C667 C664 1.387 . S
C668 C669 1.387 . S
C668 H672 0.950 . S
C668 C677 1.390 . S
C669 C668 1.387 . S
C669 C671 1.387 . S
H670 C677 0.950 . S
C671 C669 1.387 . S
C671 C673 1.390 . S
C671 H675 0.950 . S
H672 C668 0.950 . S
C673 C671 1.390 . S
C673 C674 1.387 . S
C673 H676 0.950 . S
C674 C673 1.387 . S
C674 C677 1.387 . S
H675 C671 0.950 . S
H676 C673 0.950 . S
C677 C668 1.390 . S
C677 H670 0.950 . S
C677 C674 1.387 . S
C678 C679 1.387 . S
C678 H682 0.950 . S
C678 C687 1.390 . S
C679 C678 1.387 . S
C679 C681 1.387 . S
H680 C687 0.950 . S
C681 C679 1.387 . S
C681 C683 1.390 . S
C681 H685 0.950 . S
H682 C678 0.950 . S
C683 C681 1.390 . S
C683 C684 1.387 . S
C683 H686 0.950 1_655 S
C684 C683 1.387 . S
C684 C687 1.387 . S
H685 C681 0.950 . S
H686 C683 0.950 1_455 S
C687 C678 1.390 . S
C687 H680 0.950 . S
C687 C684 1.387 . S
C688 C689 1.387 . S
C688 H692 0.950 . S
C688 C697 1.390 . S
C689 C688 1.387 . S
C689 C691 1.387 . S
H690 C697 0.950 . S
C691 C689 1.387 . S
C691 C693 1.390 . S
C691 H695 0.950 . S
H692 C688 0.950 . S
C693 C691 1.390 . S
C693 C694 1.387 . S
C693 H696 0.950 . S
C694 C693 1.387 . S
C694 C697 1.387 . S
H695 C691 0.950 . S
H696 C693 0.950 . S
C697 C688 1.390 . S
C697 H690 0.950 . S
C697 C694 1.387 . S
C698 C699 1.387 . S
C698 H702 0.950 . S
C698 C707 1.390 . S
C699 C698 1.387 . S
C699 C701 1.387 . S
H700 C707 0.950 . S
C701 C699 1.387 . S
C701 C703 1.390 1_545 S
C701 H705 0.950 . S
H702 C698 0.950 . S
C703 C701 1.390 1_565 S
C703 C704 1.387 1_565 S
C703 H706 0.950 . S
C704 C703 1.387 1_545 S
C704 C707 1.387 . S
H705 C701 0.950 . S
H706 C703 0.950 . S
C707 C698 1.390 . S
C707 H700 0.950 . S
C707 C704 1.387 . S
C708 C709 1.387 1_565 S
C708 H712 0.950 . S
C708 C717 1.390 1_565 S
C709 C708 1.387 1_545 S
C709 C711 1.387 . S
H710 C717 0.950 1_565 S
C711 C709 1.387 . S
C711 C713 1.390 . S
C711 H715 0.950 . S
H712 C708 0.950 . S
C713 C711 1.390 . S
C713 C714 1.387 . S
C713 H716 0.950 . S
C714 C713 1.387 . S
C714 C717 1.387 . S
H715 C711 0.950 . S
H716 C713 0.950 . S
C717 C708 1.390 1_545 S
C717 H710 0.950 1_545 S
C717 C714 1.387 . S
C718 C719 1.387 . S
C718 H722 0.950 1_655 S
C718 C727 1.390 1_655 S
C719 C718 1.387 . S
C719 C721 1.387 . S
H720 C727 0.950 . S
C721 C719 1.387 . S
C721 C723 1.390 . S
C721 H725 0.950 . S
H722 C718 0.950 1_455 S
C723 C721 1.390 . S
C723 C724 1.387 . S
C723 H726 0.950 . S
C724 C723 1.387 . S
C724 C727 1.387 1_655 S
H725 C721 0.950 . S
H726 C723 0.950 . S
C727 C718 1.390 1_455 S
C727 H720 0.950 . S
C727 C724 1.387 1_455 S
C728 C729 1.387 . S
C728 H732 0.950 . S
C728 C737 1.390 . S
C729 C728 1.387 . S
C729 C731 1.387 . S
H730 C737 0.950 . S
C731 C729 1.387 . S
C731 C733 1.390 . S
C731 H735 0.950 . S
H732 C728 0.950 . S
C733 C731 1.390 . S
C733 C734 1.387 . S
C733 H736 0.950 . S
C734 C733 1.387 . S
C734 C737 1.387 . S
H735 C731 0.950 . S
H736 C733 0.950 . S
C737 C728 1.390 . S
C737 H730 0.950 . S
C737 C734 1.387 . S
C738 C739 1.387 . S
C738 H742 0.950 . S
C738 C747 1.390 . S
C739 C738 1.387 . S
C739 C741 1.387 . S
H740 C747 0.950 . S
C741 C739 1.387 . S
C741 C743 1.390 . S
C741 H745 0.950 1_455 S
H742 C738 0.950 . S
C743 C741 1.390 . S
C743 C744 1.387 . S
C743 H746 0.950 . S
C744 C743 1.387 . S
C744 C747 1.387 . S
H745 C741 0.950 1_655 S
H746 C743 0.950 . S
C747 C738 1.390 . S
C747 H740 0.950 . S
C747 C744 1.387 . S
C748 C749 1.387 . S
C748 H752 0.950 . S
C748 C757 1.390 . S
C749 C748 1.387 . S
C749 C751 1.387 . S
H750 C757 0.950 . S
C751 C749 1.387 . S
C751 C753 1.390 . S
C751 H755 0.950 . S
H752 C748 0.950 . S
C753 C751 1.390 . S
C753 C754 1.387 . S
C753 H756 0.950 . S
C754 C753 1.387 . S
C754 C757 1.387 . S
H755 C751 0.950 . S
H756 C753 0.950 . S
C757 C748 1.390 . S
C757 H750 0.950 . S
C757 C754 1.387 . S
C758 C759 1.387 1_545 S
C758 H762 0.950 . S
C758 C767 1.390 1_545 S
C759 C758 1.387 1_565 S
C759 C761 1.387 . S
H760 C767 0.950 1_545 S
C761 C759 1.387 . S
C761 C763 1.390 . S
C761 H765 0.950 . S
H762 C758 0.950 . S
C763 C761 1.390 . S
C763 C764 1.387 . S
C763 H766 0.950 . S
C764 C763 1.387 . S
C764 C767 1.387 . S
H765 C761 0.950 . S
H766 C763 0.950 . S
C767 C758 1.390 1_565 S
C767 H760 0.950 1_565 S
C767 C764 1.387 . S
C768 C769 1.387 . S
C768 H772 0.950 . S
C768 C777 1.390 . S
C769 C768 1.387 . S
C769 C771 1.387 . S
H770 C777 0.950 . S
C771 C769 1.387 . S
C771 C773 1.390 . S
C771 H775 0.950 . S
H772 C768 0.950 . S
C773 C771 1.390 . S
C773 C774 1.387 . S
C773 H776 0.950 . S
C774 C773 1.387 . S
C774 C777 1.387 . S
H775 C771 0.950 . S
H776 C773 0.950 . S
C777 C768 1.390 . S
C777 H770 0.950 . S
C777 C774 1.387 . S
C778 C779 1.387 . S
C778 H782 0.950 . S
C778 C787 1.390 1_545 S
C779 C778 1.387 . S
C779 C781 1.387 . S
H780 C787 0.950 . S
C781 C779 1.387 . S
C781 C783 1.390 1_545 S
C781 H785 0.950 . S
H782 C778 0.950 . S
C783 C781 1.390 1_565 S
C783 C784 1.387 . S
C783 H786 0.950 . S
C784 C783 1.387 . S
C784 C787 1.387 . S
H785 C781 0.950 . S
H786 C783 0.950 . S
C787 C778 1.390 1_565 S
C787 H780 0.950 . S
C787 C784 1.387 . S
C788 C789 1.387 . S
C788 H792 0.950 . S
C788 C797 1.390 1_655 S
C789 C788 1.387 . S
C789 C791 1.387 . S
H790 C797 0.950 . S
C791 C789 1.387 . S
C791 C793 1.390 1_655 S
C791 H795 0.950 . S
H792 C788 0.950 . S
C793 C791 1.390 1_455 S
C793 C794 1.387 . S
C793 H796 0.950 . S
C794 C793 1.387 . S
C794 C797 1.387 . S
H795 C791 0.950 . S
H796 C793 0.950 . S
C797 C788 1.390 1_455 S
C797 H790 0.950 . S
C797 C794 1.387 . S
C798 C799 1.387 . S
C798 H802 0.950 . S
C798 C807 1.390 . S
C799 C798 1.387 . S
C799 C801 1.387 . S
H800 C807 0.950 . S
C801 C799 1.387 . S
C801 C803 1.390 . S
C801 H805 0.950 . S
H802 C798 0.950 . S
C803 C801 1.390 . S
C803 C804 1.387 . S
C803 H806 0.950 . S
C804 C803 1.387 . S
C804 C807 1.387 . S
H805 C801 0.950 . S
H806 C803 0.950 . S
C807 C798 1.390 . S
C807 H800 0.950 . S
C807 C804 1.387 . S
C808 C809 1.387 . S
C808 H812 0.950 . S
C808 C817 1.390 1_565 S
C809 C808 1.387 . S
C809 C811 1.387 . S
H810 C817 0.950 . S
C811 C809 1.387 . S
C811 C813 1.390 1_565 S
C811 H815 0.950 . S
H812 C808 0.950 . S
C813 C811 1.390 1_545 S
C813 C814 1.387 . S
C813 H816 0.950 . S
C814 C813 1.387 . S
C814 C817 1.387 . S
H815 C811 0.950 . S
H816 C813 0.950 . S
C817 C808 1.390 1_545 S
C817 H810 0.950 . S
C817 C814 1.387 . S
C818 C819 1.387 . S
C818 H822 0.950 . S
C818 C827 1.390 1_655 S
C819 C818 1.387 . S
C819 C821 1.387 . S
H820 C827 0.950 . S
C821 C819 1.387 . S
C821 C823 1.390 1_655 S
C821 H825 0.950 . S
H822 C818 0.950 . S
C823 C821 1.390 1_455 S
C823 C824 1.387 . S
C823 H826 0.950 . S
C824 C823 1.387 . S
C824 C827 1.387 . S
H825 C821 0.950 . S
H826 C823 0.950 . S
C827 C818 1.390 1_455 S
C827 H820 0.950 . S
C827 C824 1.387 . S
C828 C829 1.387 . S
C828 H832 0.950 . S
C828 C837 1.390 . S
C829 C828 1.387 . S
C829 C831 1.387 . S
H830 C837 0.950 . S
C831 C829 1.387 . S
C831 C833 1.390 . S
C831 H835 0.950 . S
H832 C828 0.950 . S
C833 C831 1.390 . S
C833 C834 1.387 . S
C833 H836 0.950 . S
C834 C833 1.387 . S
C834 C837 1.387 . S
H835 C831 0.950 . S
H836 C833 0.950 . S
C837 C828 1.390 . S
C837 H830 0.950 . S
C837 C834 1.387 . S
C838 C839 1.387 . S
C838 H842 0.950 . S
C838 C847 1.390 1_545 S
C839 C838 1.387 . S
C839 C841 1.387 1_545 S
H840 C847 0.950 . S
C841 C839 1.387 1_565 S
C841 C843 1.390 . S
C841 H845 0.950 . S
H842 C838 0.950 . S
C843 C841 1.390 . S
C843 C844 1.387 . S
C843 H846 0.950 . S
C844 C843 1.387 . S
C844 C847 1.387 . S
H845 C841 0.950 . S
H846 C843 0.950 . S
C847 C838 1.390 1_565 S
C847 H840 0.950 . S
C847 C844 1.387 . S
C848 C849 1.387 1_455 S
C848 H852 0.950 . S
C848 C857 1.390 . S
C849 C848 1.387 1_655 S
C849 C851 1.387 . S
H850 C857 0.950 . S
C851 C849 1.387 . S
C851 C853 1.390 1_655 S
C851 H855 0.950 . S
H852 C848 0.950 . S
C853 C851 1.390 1_455 S
C853 C854 1.387 . S
C853 H856 0.950 . S
C854 C853 1.387 . S
C854 C857 1.387 . S
H855 C851 0.950 . S
H856 C853 0.950 . S
C857 C848 1.390 . S
C857 H850 0.950 . S
C857 C854 1.387 . S
C858 C859 1.387 . S
C858 H862 0.950 . S
C858 C867 1.390 . S
C859 C858 1.387 . S
C859 C861 1.387 . S
H860 C867 0.950 . S
C861 C859 1.387 . S
C861 C863 1.390 . S
C861 H865 0.950 . S
H862 C858 0.950 . S
C863 C861 1.390 . S
C863 C864 1.387 . S
C863 H866 0.950 . S
C864 C863 1.387 . S
C864 C867 1.387 . S
H865 C861 0.950 . S
H866 C863 0.950 . S
C867 C858 1.390 . S
C867 H860 0.950 . S
C867 C864 1.387 . S
C868 C869 1.387 . S
C868 H872 0.950 . S
C868 C877 1.390 . S
C869 C868 1.387 . S
C869 C871 1.387 . S
H870 C877 0.950 . S
C871 C869 1.387 . S
C871 C873 1.390 1_545 S
C871 H875 0.950 . S
H872 C868 0.950 . S
C873 C871 1.390 1_565 S
C873 C874 1.387 . S
C873 H876 0.950 . S
C874 C873 1.387 . S
C874 C877 1.387 1_565 S
H875 C871 0.950 . S
H876 C873 0.950 . S
C877 C868 1.390 . S
C877 H870 0.950 . S
C877 C874 1.387 1_545 S
C878 C879 1.387 1_655 S
C878 H882 0.950 . S
C878 C887 1.390 . S
C879 C878 1.387 1_455 S
C879 C881 1.387 . S
H880 C887 0.950 . S
C881 C879 1.387 . S
C881 C883 1.390 1_455 S
C881 H885 0.950 . S
H882 C878 0.950 . S
C883 C881 1.390 1_655 S
C883 C884 1.387 . S
C883 H886 0.950 . S
C884 C883 1.387 . S
C884 C887 1.387 . S
H885 C881 0.950 . S
H886 C883 0.950 . S
C887 C878 1.390 . S
C887 H880 0.950 . S
C887 C884 1.387 . S
C888 C889 1.387 . S
C888 H892 0.950 . S
C888 C897 1.390 . S
C889 C888 1.387 . S
C889 C891 1.387 . S
H890 C897 0.950 . S
C891 C889 1.387 . S
C891 C893 1.390 . S
C891 H895 0.950 . S
H892 C888 0.950 . S
C893 C891 1.390 . S
C893 C894 1.387 . S
C893 H896 0.950 . S
C894 C893 1.387 . S
C894 C897 1.387 . S
H895 C891 0.950 . S
H896 C893 0.950 . S
C897 C888 1.390 . S
C897 H890 0.950 . S
C897 C894 1.387 . S
C898 C899 1.387 1_545 S
C898 H902 0.950 . S
C898 C907 1.390 . S
C899 C898 1.387 1_565 S
C899 C901 1.387 . S
H900 C907 0.950 . S
C901 C899 1.387 . S
C901 C903 1.390 1_565 S
C901 H905 0.950 . S
H902 C898 0.950 . S
C903 C901 1.390 1_545 S
C903 C904 1.387 . S
C903 H906 0.950 . S
C904 C903 1.387 . S
C904 C907 1.387 . S
H905 C901 0.950 . S
H906 C903 0.950 . S
C907 C898 1.390 . S
C907 H900 0.950 . S
C907 C904 1.387 . S
C908 C909 1.387 1_655 S
C908 H912 0.950 . S
C908 C917 1.390 . S
C909 C908 1.387 1_455 S
C909 C911 1.387 . S
H910 C917 0.950 . S
C911 C909 1.387 . S
C911 C913 1.390 1_455 S
C911 H915 0.950 . S
H912 C908 0.950 . S
C913 C911 1.390 1_655 S
C913 C914 1.387 . S
C913 H916 0.950 . S
C914 C913 1.387 . S
C914 C917 1.387 . S
H915 C911 0.950 . S
H916 C913 0.950 . S
C917 C908 1.390 . S
C917 H910 0.950 . S
C917 C914 1.387 . S
C918 C919 1.387 . S
C918 H922 0.950 . S
C918 C927 1.390 . S
C919 C918 1.387 . S
C919 C921 1.387 . S
H920 C927 0.950 . S
C921 C919 1.387 . S
C921 C923 1.390 . S
C921 H925 0.950 . S
H922 C918 0.950 . S
C923 C921 1.390 . S
C923 C924 1.387 . S
C923 H926 0.950 . S
C924 C923 1.387 . S
C924 C927 1.387 . S
H925 C921 0.950 . S
H926 C923 0.950 . S
C927 C918 1.390 . S
C927 H920 0.950 . S
C927 C924 1.387 . S
C928 C929 1.387 1_565 S
C928 H932 0.950 . S
C928 C937 1.390 . S
C929 C928 1.387 1_545 S
C929 C931 1.387 . S
H930 C937 0.950 . S
C931 C929 1.387 . S
C931 C933 1.390 1_545 S
C931 H935 0.950 . S
H932 C928 0.950 . S
C933 C931 1.390 1_565 S
C933 C934 1.387 . S
C933 H936 0.950 . S
C934 C933 1.387 . S
C934 C937 1.387 . S
H935 C931 0.950 . S
H936 C933 0.950 . S
C937 C928 1.390 . S
C937 H930 0.950 . S
C937 C934 1.387 . S
C938 C939 1.387 . S
C938 H942 0.950 . S
C938 C947 1.390 1_455 S
C939 C938 1.387 . S
C939 C941 1.387 . S
H940 C947 0.950 . S
C941 C939 1.387 . S
C941 C943 1.390 . S
C941 H945 0.950 . S
H942 C938 0.950 . S
C943 C941 1.390 . S
C943 C944 1.387 1_455 S
C943 H946 0.950 . S
C944 C943 1.387 1_655 S
C944 C947 1.387 . S
H945 C941 0.950 . S
H946 C943 0.950 . S
C947 C938 1.390 1_655 S
C947 H940 0.950 . S
C947 C944 1.387 . S
C948 C949 1.387 . S
C948 H952 0.950 . S
C948 C957 1.390 . S
C949 C948 1.387 . S
C949 C951 1.387 . S
H950 C957 0.950 . S
C951 C949 1.387 . S
C951 C953 1.390 . S
C951 H955 0.950 . S
H952 C948 0.950 . S
C953 C951 1.390 . S
C953 C954 1.387 . S
C953 H956 0.950 . S
C954 C953 1.387 . S
C954 C957 1.387 . S
H955 C951 0.950 . S
H956 C953 0.950 . S
C957 C948 1.390 . S
C957 H950 0.950 . S
C957 C954 1.387 . S
C958 C959 1.387 . S
C958 H962 0.950 . S
C958 C967 1.390 . S
C959 C958 1.387 . S
C959 C961 1.387 . S
H960 C967 0.950 . S
C961 C959 1.387 . S
C961 C963 1.390 . S
C961 H965 0.950 . S
H962 C958 0.950 . S
C963 C961 1.390 . S
C963 C964 1.387 . S
C963 H966 0.950 . S
C964 C963 1.387 . S
C964 C967 1.387 . S
H965 C961 0.950 . S
H966 C963 0.950 . S
C967 C958 1.390 . S
C967 H960 0.950 . S
C967 C964 1.387 . S
C968 C969 1.387 . S
C968 H972 0.950 . S
C968 C977 1.390 . S
C969 C968 1.387 . S
C969 C971 1.387 . S
H970 C977 0.950 . S
C971 C969 1.387 . S
C971 C973 1.390 . S
C971 H975 0.950 . S
H972 C968 0.950 . S
C973 C971 1.390 . S
C973 C974 1.387 . S
C973 H976 0.950 . S
C974 C973 1.387 . S
C974 C977 1.387 . S
H975 C971 0.950 . S
H976 C973 0.950 . S
C977 C968 1.390 . S
C977 H970 0.950 . S
C977 C974 1.387 . S
C978 C979 1.387 . S
C978 H982 0.950 . S
C978 C987 1.390 . S
C979 C978 1.387 . S
C979 C981 1.387 . S
H980 C987 0.950 . S
C981 C979 1.387 . S
C981 C983 1.390 . S
C981 H985 0.950 . S
H982 C978 0.950 . S
C983 C981 1.390 . S
C983 C984 1.387 . S
C983 H986 0.950 . S
C984 C983 1.387 . S
C984 C987 1.387 . S
H985 C981 0.950 . S
H986 C983 0.950 . S
C987 C978 1.390 . S
C987 H980 0.950 . S
C987 C984 1.387 . S
C988 C989 1.387 . S
C988 H992 0.950 . S
C988 C997 1.390 . S
C989 C988 1.387 . S
C989 C991 1.387 . S
H990 C997 0.950 . S
C991 C989 1.387 . S
C991 C993 1.390 . S
C991 H995 0.950 . S
H992 C988 0.950 . S
C993 C991 1.390 . S
C993 C994 1.387 . S
C993 H996 0.950 . S
C994 C993 1.387 . S
C994 C997 1.387 . S
H995 C991 0.950 . S
H996 C993 0.950 . S
C997 C988 1.390 . S
C997 H990 0.950 . S
C997 C994 1.387 . S
C998 C999 1.387 . S
C998 H1002 0.950 . S
C998 C1007 1.390 . S
C999 C998 1.387 . S
C999 C1001 1.387 . S
H1000 C1007 0.950 . S
C1001 C999 1.387 . S
C1001 C1003 1.390 . S
C1001 H1005 0.950 . S
H1002 C998 0.950 . S
C1003 C1001 1.390 . S
C1003 C1004 1.387 . S
C1003 H1006 0.950 . S
C1004 C1003 1.387 . S
C1004 C1007 1.387 . S
H1005 C1001 0.950 . S
H1006 C1003 0.950 . S
C1007 C998 1.390 . S
C1007 H1000 0.950 . S
C1007 C1004 1.387 . S
C1008 C1009 1.387 . S
C1008 H1012 0.950 . S
C1008 C1017 1.390 . S
C1009 C1008 1.387 . S
C1009 C1011 1.387 . S
H1010 C1017 0.950 . S
C1011 C1009 1.387 . S
C1011 C1013 1.390 . S
C1011 H1015 0.950 . S
H1012 C1008 0.950 . S
C1013 C1011 1.390 . S
C1013 C1014 1.387 . S
C1013 H1016 0.950 . S
C1014 C1013 1.387 . S
C1014 C1017 1.387 . S
H1015 C1011 0.950 . S
H1016 C1013 0.950 . S
C1017 C1008 1.390 . S
C1017 H1010 0.950 . S
C1017 C1014 1.387 . S
C1018 C1019 1.387 . S
C1018 H1022 0.950 . S
C1018 C1027 1.390 . S
C1019 C1018 1.387 . S
C1019 C1021 1.387 . S
H1020 C1027 0.950 . S
C1021 C1019 1.387 . S
C1021 C1023 1.390 . S
C1021 H1025 0.950 . S
H1022 C1018 0.950 . S
C1023 C1021 1.390 . S
C1023 C1024 1.387 . S
C1023 H1026 0.950 . S
C1024 C1023 1.387 . S
C1024 C1027 1.387 . S
H1025 C1021 0.950 . S
H1026 C1023 0.950 . S
C1027 C1018 1.390 . S
C1027 H1020 0.950 . S
C1027 C1024 1.387 . S
C1028 C1029 1.387 . S
C1028 H1032 0.950 . S
C1028 C1037 1.390 . S
C1029 C1028 1.387 . S
C1029 C1031 1.387 . S
H1030 C1037 0.950 . S
C1031 C1029 1.387 . S
C1031 C1033 1.390 . S
C1031 H1035 0.950 . S
H1032 C1028 0.950 . S
C1033 C1031 1.390 . S
C1033 C1034 1.387 . S
C1033 H1036 0.950 . S
C1034 C1033 1.387 . S
C1034 C1037 1.387 . S
H1035 C1031 0.950 . S
H1036 C1033 0.950 . S
C1037 C1028 1.390 . S
C1037 H1030 0.950 . S
C1037 C1034 1.387 . S
C1038 C1039 1.387 . S
C1038 H1042 0.950 . S
C1038 C1047 1.390 . S
C1039 C1038 1.387 . S
C1039 C1041 1.387 . S
H1040 C1047 0.950 . S
C1041 C1039 1.387 . S
C1041 C1043 1.390 . S
C1041 H1045 0.950 . S
H1042 C1038 0.950 . S
C1043 C1041 1.390 . S
C1043 C1044 1.387 . S
C1043 H1046 0.950 . S
C1044 C1043 1.387 . S
C1044 C1047 1.387 . S
H1045 C1041 0.950 . S
H1046 C1043 0.950 . S
C1047 C1038 1.390 . S
C1047 H1040 0.950 . S
C1047 C1044 1.387 . S
C1048 C1049 1.387 . S
C1048 H1052 0.950 . S
C1048 C1057 1.390 . S
C1049 C1048 1.387 . S
C1049 C1051 1.387 . S
H1050 C1057 0.950 . S
C1051 C1049 1.387 . S
C1051 C1053 1.390 . S
C1051 H1055 0.950 . S
H1052 C1048 0.950 . S
C1053 C1051 1.390 . S
C1053 C1054 1.387 . S
C1053 H1056 0.950 . S
C1054 C1053 1.387 . S
C1054 C1057 1.387 . S
H1055 C1051 0.950 . S
H1056 C1053 0.950 . S
C1057 C1048 1.390 . S
C1057 H1050 0.950 . S
C1057 C1054 1.387 . S
C1058 C1059 1.387 . S
C1058 H1062 0.950 . S
C1058 C1067 1.390 . S
C1059 C1058 1.387 . S
C1059 C1061 1.387 . S
H1060 C1067 0.950 . S
C1061 C1059 1.387 . S
C1061 C1063 1.390 . S
C1061 H1065 0.950 . S
H1062 C1058 0.950 . S
C1063 C1061 1.390 . S
C1063 C1064 1.387 . S
C1063 H1066 0.950 . S
C1064 C1063 1.387 . S
C1064 C1067 1.387 . S
H1065 C1061 0.950 . S
H1066 C1063 0.950 . S
C1067 C1058 1.390 . S
C1067 H1060 0.950 . S
C1067 C1064 1.387 . S
C1068 C1069 1.387 . S
C1068 H1072 0.950 . S
C1068 C1077 1.390 . S
C1069 C1068 1.387 . S
C1069 C1071 1.387 . S
H1070 C1077 0.950 . S
C1071 C1069 1.387 . S
C1071 C1073 1.390 . S
C1071 H1075 0.950 . S
H1072 C1068 0.950 . S
C1073 C1071 1.390 . S
C1073 C1074 1.387 . S
C1073 H1076 0.950 . S
C1074 C1073 1.387 . S
C1074 C1077 1.387 . S
H1075 C1071 0.950 . S
H1076 C1073 0.950 . S
C1077 C1068 1.390 . S
C1077 H1070 0.950 . S
C1077 C1074 1.387 . S
C1078 C1079 1.387 . S
C1078 H1082 0.950 . S
C1078 C1087 1.390 . S
C1079 C1078 1.387 . S
C1079 C1081 1.387 . S
H1080 C1087 0.950 . S
C1081 C1079 1.387 . S
C1081 C1083 1.390 . S
C1081 H1085 0.950 . S
H1082 C1078 0.950 . S
C1083 C1081 1.390 . S
C1083 C1084 1.387 . S
C1083 H1086 0.950 . S
C1084 C1083 1.387 . S
C1084 C1087 1.387 . S
H1085 C1081 0.950 . S
H1086 C1083 0.950 . S
C1087 C1078 1.390 . S
C1087 H1080 0.950 . S
C1087 C1084 1.387 . S
C1088 C1089 1.387 . S
C1088 H1092 0.950 . S
C1088 C1097 1.390 . S
C1089 C1088 1.387 . S
C1089 C1091 1.387 . S
H1090 C1097 0.950 . S
C1091 C1089 1.387 . S
C1091 C1093 1.390 . S
C1091 H1095 0.950 . S
H1092 C1088 0.950 . S
C1093 C1091 1.390 . S
C1093 C1094 1.387 . S
C1093 H1096 0.950 . S
C1094 C1093 1.387 . S
C1094 C1097 1.387 . S
H1095 C1091 0.950 . S
H1096 C1093 0.950 . S
C1097 C1088 1.390 . S
C1097 H1090 0.950 . S
C1097 C1094 1.387 . S
C1098 C1099 1.387 . S
C1098 H1102 0.950 . S
C1098 C1107 1.390 . S
C1099 C1098 1.387 . S
C1099 C1101 1.387 . S
H1100 C1107 0.950 . S
C1101 C1099 1.387 . S
C1101 C1103 1.390 . S
C1101 H1105 0.950 . S
H1102 C1098 0.950 . S
C1103 C1101 1.390 . S
C1103 C1104 1.387 . S
C1103 H1106 0.950 . S
C1104 C1103 1.387 . S
C1104 C1107 1.387 . S
H1105 C1101 0.950 . S
H1106 C1103 0.950 . S
C1107 C1098 1.390 . S
C1107 H1100 0.950 . S
C1107 C1104 1.387 . S
C1108 C1109 1.387 . S
C1108 H1112 0.950 . S
C1108 C1117 1.390 . S
C1109 C1108 1.387 . S
C1109 C1111 1.387 . S
H1110 C1117 0.950 . S
C1111 C1109 1.387 . S
C1111 C1113 1.390 . S
C1111 H1115 0.950 . S
H1112 C1108 0.950 . S
C1113 C1111 1.390 . S
C1113 C1114 1.387 . S
C1113 H1116 0.950 . S
C1114 C1113 1.387 . S
C1114 C1117 1.387 . S
H1115 C1111 0.950 . S
H1116 C1113 0.950 . S
C1117 C1108 1.390 . S
C1117 H1110 0.950 . S
C1117 C1114 1.387 . S
C1118 C1119 1.387 . S
C1118 H1122 0.950 . S
C1118 C1127 1.390 . S
C1119 C1118 1.387 . S
C1119 C1121 1.387 . S
H1120 C1127 0.950 . S
C1121 C1119 1.387 . S
C1121 C1123 1.390 . S
C1121 H1125 0.950 . S
H1122 C1118 0.950 . S
C1123 C1121 1.390 . S
C1123 C1124 1.387 . S
C1123 H1126 0.950 . S
C1124 C1123 1.387 . S
C1124 C1127 1.387 . S
H1125 C1121 0.950 . S
H1126 C1123 0.950 . S
C1127 C1118 1.390 . S
C1127 H1120 0.950 . S
C1127 C1124 1.387 . S
C1128 C1129 1.387 . S
C1128 H1132 0.950 . S
C1128 C1137 1.390 . S
C1129 C1128 1.387 . S
C1129 C1131 1.387 . S
H1130 C1137 0.950 . S
C1131 C1129 1.387 . S
C1131 C1133 1.390 . S
C1131 H1135 0.950 . S
H1132 C1128 0.950 . S
C1133 C1131 1.390 . S
C1133 C1134 1.387 . S
C1133 H1136 0.950 . S
C1134 C1133 1.387 . S
C1134 C1137 1.387 . S
H1135 C1131 0.950 . S
H1136 C1133 0.950 . S
C1137 C1128 1.390 . S
C1137 H1130 0.950 . S
C1137 C1134 1.387 . S
C1138 C1139 1.387 . S
C1138 H1142 0.950 . S
C1138 C1147 1.390 . S
C1139 C1138 1.387 . S
C1139 C1141 1.387 . S
H1140 C1147 0.950 . S
C1141 C1139 1.387 . S
C1141 C1143 1.390 . S
C1141 H1145 0.950 . S
H1142 C1138 0.950 . S
C1143 C1141 1.390 . S
C1143 C1144 1.387 . S
C1143 H1146 0.950 . S
C1144 C1143 1.387 . S
C1144 C1147 1.387 . S
H1145 C1141 0.950 . S
H1146 C1143 0.950 . S
C1147 C1138 1.390 . S
C1147 H1140 0.950 . S
C1147 C1144 1.387 . S
C1148 C1149 1.387 . S
C1148 H1152 0.950 . S
C1148 C1157 1.390 . S
C1149 C1148 1.387 . S
C1149 C1151 1.387 . S
H1150 C1157 0.950 . S
C1151 C1149 1.387 . S
C1151 C1153 1.390 . S
C1151 H1155 0.950 . S
H1152 C1148 0.950 . S
C1153 C1151 1.390 . S
C1153 C1154 1.387 . S
C1153 H1156 0.950 . S
C1154 C1153 1.387 . S
C1154 C1157 1.387 . S
H1155 C1151 0.950 . S
H1156 C1153 0.950 . S
C1157 C1148 1.390 . S
C1157 H1150 0.950 . S
C1157 C1154 1.387 . S
C1158 C1159 1.387 . S
C1158 H1162 0.950 . S
C1158 C1167 1.390 . S
C1159 C1158 1.387 . S
C1159 C1161 1.387 . S
H1160 C1167 0.950 . S
C1161 C1159 1.387 . S
C1161 C1163 1.390 . S
C1161 H1165 0.950 . S
H1162 C1158 0.950 . S
C1163 C1161 1.390 . S
C1163 C1164 1.387 . S
C1163 H1166 0.950 . S
C1164 C1163 1.387 . S
C1164 C1167 1.387 . S
H1165 C1161 0.950 . S
H1166 C1163 0.950 . S
C1167 C1158 1.390 . S
C1167 H1160 0.950 . S
C1167 C1164 1.387 . S
C1168 C1169 1.387 . S
C1168 H1172 0.950 . S
C1168 C1177 1.390 . S
C1169 C1168 1.387 . S
C1169 C1171 1.387 . S
H1170 C1177 0.950 . S
C1171 C1169 1.387 . S
C1171 C1173 1.390 . S
C1171 H1175 0.950 . S
H1172 C1168 0.950 . S
C1173 C1171 1.390 . S
C1173 C1174 1.387 . S
C1173 H1176 0.950 . S
C1174 C1173 1.387 . S
C1174 C1177 1.387 . S
H1175 C1171 0.950 . S
H1176 C1173 0.950 . S
C1177 C1168 1.390 . S
C1177 H1170 0.950 . S
C1177 C1174 1.387 . S
C1178 C1179 1.387 . S
C1178 H1182 0.950 . S
C1178 C1187 1.390 . S
C1179 C1178 1.387 . S
C1179 C1181 1.387 . S
H1180 C1187 0.950 . S
C1181 C1179 1.387 . S
C1181 C1183 1.390 . S
C1181 H1185 0.950 . S
H1182 C1178 0.950 . S
C1183 C1181 1.390 . S
C1183 C1184 1.387 . S
C1183 H1186 0.950 . S
C1184 C1183 1.387 . S
C1184 C1187 1.387 . S
H1185 C1181 0.950 . S
H1186 C1183 0.950 . S
C1187 C1178 1.390 . S
C1187 H1180 0.950 . S
C1187 C1184 1.387 . S
C469 C4 1.508 . S
C474 C238 1.508 . S
C479 C257 1.508 . S
C484 C17 1.508 . S
C489 C270 1.508 . S
C494 C30 1.508 . S
C499 C43 1.508 . S
C504 C433 1.508 . S
C509 C62 1.509 . S
C514 C446 1.509 . S
C519 C75 1.508 . S
C524 C459 1.508 . S
C529 C316 1.508 . S
C534 C82 1.508 . S
C539 C95 1.508 . S
C544 C335 1.508 . S
C549 C114 1.508 . S
C554 C348 1.508 . S
C559 C205 1.508 . S
C564 C121 1.508 . S
C569 C218 1.509 . S
C574 C134 1.509 . S
C579 C225 1.508 . S
C584 C153 1.508 . S
C589 C394 1.508 . S
C594 C160 1.508 . S
C599 C407 1.508 . S
C604 C179 1.508 . S
C609 C186 1.508 . S
C614 C426 1.508 . S
C619 C361 1.508 . S
C624 C283 1.508 . S
C629 C296 1.509 . S
C634 C368 1.509 . S
C639 C309 1.508 . S
C644 C387 1.508 . S
C649 C10 1.637 1_565 S
C654 C355 1.638 . S
C659 C374 1.637 . S
C664 C23 1.637 1_455 S
C669 C381 1.639 . S
C674 C36 1.639 . S
C679 C166 1.637 . S
C684 C49 1.638 1_655 S
C689 C173 1.637 . S
C694 C56 1.637 . S
C699 C192 1.638 . S
C704 C69 1.638 1_545 S
C709 C88 1.637 1_545 S
C714 C277 1.637 . S
C719 C290 1.637 . S
C724 C101 1.637 1_655 S
C729 C303 1.639 . S
C734 C108 1.639 . S
C739 C127 1.639 1_455 S
C744 C400 1.639 . S
C749 C140 1.641 . S
C754 C413 1.641 . S
C759 C147 1.637 1_565 S
C764 C420 1.637 . S
C769 C199 1.637 . S
C774 C322 1.637 . S
C779 C212 1.637 . S
C784 C329 1.637 . S
C789 C231 1.638 . S
C794 C342 1.639 . S
C799 C244 1.639 . S
C804 C439 1.639 . S
C809 C452 1.637 . S
C814 C251 1.637 . S
C819 C264 1.638 . S
C824 C465 1.638 . S
C829 C18 1.398 . S
C834 C3 1.314 . S
C839 C16 1.313 . S
C844 C31 1.399 . S
C849 C29 1.316 . S
C854 C5 1.399 . S
C859 C42 1.313 . S
C864 C68 1.397 . S
C869 C44 1.398 . S
C874 C57 1.314 . S
C879 C70 1.313 . S
C884 C55 1.397 . S
C889 C81 1.313 . S
C894 C96 1.397 . S
C899 C94 1.313 . S
C904 C107 1.399 . S
C909 C109 1.313 . S
C914 C83 1.399 . S
C919 C146 1.398 . S
C924 C120 1.314 . S
C929 C133 1.313 . S
C934 C122 1.399 . S
C939 C135 1.398 . S
C944 C148 1.314 . S
C949 C172 1.397 . S
C954 C159 1.312 . S
C959 C187 1.399 . S
C964 C174 1.313 . S
C969 C161 1.398 . S
C974 C185 1.311 . S
C979 C200 1.315 . S
C984 C226 1.398 . S
C989 C213 1.316 . S
C994 C198 1.399 . S
C999 C224 1.315 . S
C1004 C211 1.400 . S
C1009 C250 1.400 . S
C1014 C237 1.314 . S
C1019 C252 1.315 . S
C1024 C263 1.398 . S
C1029 C265 1.313 . S
C1034 C239 1.397 . S
C1039 C278 1.312 . S
C1044 C302 1.399 . S
C1049 C291 1.312 . S
C1054 C276 1.398 . S
C1059 C289 1.399 . S
C1064 C304 1.313 . S
C1069 C328 1.400 . S
C1074 C315 1.316 . S
C1079 C330 1.315 . S
C1084 C341 1.398 . S
C1089 C317 1.399 . S
C1094 C343 1.313 . S
C1099 C356 1.312 . S
C1104 C380 1.399 . S
C1109 C367 1.312 . S
C1114 C354 1.398 . S
C1119 C382 1.315 . S
C1124 C369 1.398 . S
C1129 C393 1.312 . S
C1134 C408 1.397 . S
C1139 C406 1.313 . S
C1144 C419 1.399 . S
C1149 C421 1.315 . S
C1154 C395 1.398 . S
C1159 C432 1.312 . S
C1164 C460 1.399 . S
C1169 C445 1.316 . S
C1174 C434 1.400 . S
C1179 C447 1.397 . S
C1184 C458 1.312 . S
