# Generated by pormake.
# Topology sod-e, (6)-cn, num edge types: 1
# Building blocks:
#     Node 0, Type 0, BuildingBlock: MAKGUD_clean_sbu_1, # of connection points: 6
#     Node 1, Type 0, BuildingBlock: MAKGUD_clean_sbu_1, # of connection points: 6
#     Node 2, Type 0, BuildingBlock: MAKGUD_clean_sbu_1, # of connection points: 6
#     Node 3, Type 0, BuildingBlock: MAKGUD_clean_sbu_1, # of connection points: 6
#     Node 4, Type 0, BuildingBlock: MAKGUD_clean_sbu_1, # of connection points: 6
#     Node 5, Type 0, BuildingBlock: MAKGUD_clean_sbu_1, # of connection points: 6
#     Node 6, Type 0, BuildingBlock: MAKGUD_clean_sbu_1, # of connection points: 6
#     Node 7, Type 0, BuildingBlock: MAKGUD_clean_sbu_1, # of connection points: 6
#     Node 8, Type 0, BuildingBlock: MAKGUD_clean_sbu_1, # of connection points: 6
#     Node 9, Type 0, BuildingBlock: MAKGUD_clean_sbu_1, # of connection points: 6
#     Node 10, Type 0, BuildingBlock: MAKGUD_clean_sbu_1, # of connection points: 6
#     Node 11, Type 0, BuildingBlock: MAKGUD_clean_sbu_1, # of connection points: 6
#     Node 12, Type 0, BuildingBlock: MAKGUD_clean_sbu_1, # of connection points: 6
#     Node 13, Type 0, BuildingBlock: MAKGUD_clean_sbu_1, # of connection points: 6
#     Node 14, Type 0, BuildingBlock: MAKGUD_clean_sbu_1, # of connection points: 6
#     Node 15, Type 0, BuildingBlock: MAKGUD_clean_sbu_1, # of connection points: 6
#     Node 16, Type 0, BuildingBlock: MAKGUD_clean_sbu_1, # of connection points: 6
#     Node 17, Type 0, BuildingBlock: MAKGUD_clean_sbu_1, # of connection points: 6
#     Node 18, Type 0, BuildingBlock: MAKGUD_clean_sbu_1, # of connection points: 6
#     Node 19, Type 0, BuildingBlock: MAKGUD_clean_sbu_1, # of connection points: 6
#     Node 20, Type 0, BuildingBlock: MAKGUD_clean_sbu_1, # of connection points: 6
#     Node 21, Type 0, BuildingBlock: MAKGUD_clean_sbu_1, # of connection points: 6
#     Node 22, Type 0, BuildingBlock: MAKGUD_clean_sbu_1, # of connection points: 6
#     Node 23, Type 0, BuildingBlock: MAKGUD_clean_sbu_1, # of connection points: 6
#     Edge 24, Type (0, 0), BuildingBlock: XIVTED_clean_linker_0, # of connection points: 2
#     Edge 25, Type (0, 0), BuildingBlock: XIVTED_clean_linker_0, # of connection points: 2
#     Edge 26, Type (0, 0), BuildingBlock: XIVTED_clean_linker_0, # of connection points: 2
#     Edge 27, Type (0, 0), BuildingBlock: XIVTED_clean_linker_0, # of connection points: 2
#     Edge 28, Type (0, 0), BuildingBlock: XIVTED_clean_linker_0, # of connection points: 2
#     Edge 29, Type (0, 0), BuildingBlock: XIVTED_clean_linker_0, # of connection points: 2
#     Edge 30, Type (0, 0), BuildingBlock: XIVTED_clean_linker_0, # of connection points: 2
#     Edge 31, Type (0, 0), BuildingBlock: XIVTED_clean_linker_0, # of connection points: 2
#     Edge 32, Type (0, 0), BuildingBlock: XIVTED_clean_linker_0, # of connection points: 2
#     Edge 33, Type (0, 0), BuildingBlock: XIVTED_clean_linker_0, # of connection points: 2
#     Edge 34, Type (0, 0), BuildingBlock: XIVTED_clean_linker_0, # of connection points: 2
#     Edge 35, Type (0, 0), BuildingBlock: XIVTED_clean_linker_0, # of connection points: 2
#     Edge 36, Type (0, 0), BuildingBlock: XIVTED_clean_linker_0, # of connection points: 2
#     Edge 37, Type (0, 0), BuildingBlock: XIVTED_clean_linker_0, # of connection points: 2
#     Edge 38, Type (0, 0), BuildingBlock: XIVTED_clean_linker_0, # of connection points: 2
#     Edge 39, Type (0, 0), BuildingBlock: XIVTED_clean_linker_0, # of connection points: 2
#     Edge 40, Type (0, 0), BuildingBlock: XIVTED_clean_linker_0, # of connection points: 2
#     Edge 41, Type (0, 0), BuildingBlock: XIVTED_clean_linker_0, # of connection points: 2
#     Edge 42, Type (0, 0), BuildingBlock: XIVTED_clean_linker_0, # of connection points: 2
#     Edge 43, Type (0, 0), BuildingBlock: XIVTED_clean_linker_0, # of connection points: 2
#     Edge 44, Type (0, 0), BuildingBlock: XIVTED_clean_linker_0, # of connection points: 2
#     Edge 45, Type (0, 0), BuildingBlock: XIVTED_clean_linker_0, # of connection points: 2
#     Edge 46, Type (0, 0), BuildingBlock: XIVTED_clean_linker_0, # of connection points: 2
#     Edge 47, Type (0, 0), BuildingBlock: XIVTED_clean_linker_0, # of connection points: 2
#     Edge 48, Type (0, 0), BuildingBlock: XIVTED_clean_linker_0, # of connection points: 2
#     Edge 49, Type (0, 0), BuildingBlock: XIVTED_clean_linker_0, # of connection points: 2
#     Edge 50, Type (0, 0), BuildingBlock: XIVTED_clean_linker_0, # of connection points: 2
#     Edge 51, Type (0, 0), BuildingBlock: XIVTED_clean_linker_0, # of connection points: 2
#     Edge 52, Type (0, 0), BuildingBlock: XIVTED_clean_linker_0, # of connection points: 2
#     Edge 53, Type (0, 0), BuildingBlock: XIVTED_clean_linker_0, # of connection points: 2
#     Edge 54, Type (0, 0), BuildingBlock: XIVTED_clean_linker_0, # of connection points: 2
#     Edge 55, Type (0, 0), BuildingBlock: XIVTED_clean_linker_0, # of connection points: 2
#     Edge 56, Type (0, 0), BuildingBlock: XIVTED_clean_linker_0, # of connection points: 2
#     Edge 57, Type (0, 0), BuildingBlock: XIVTED_clean_linker_0, # of connection points: 2
#     Edge 58, Type (0, 0), BuildingBlock: XIVTED_clean_linker_0, # of connection points: 2
#     Edge 59, Type (0, 0), BuildingBlock: XIVTED_clean_linker_0, # of connection points: 2
#     Edge 60, Type (0, 0), BuildingBlock: XIVTED_clean_linker_0, # of connection points: 2
#     Edge 61, Type (0, 0), BuildingBlock: XIVTED_clean_linker_0, # of connection points: 2
#     Edge 62, Type (0, 0), BuildingBlock: XIVTED_clean_linker_0, # of connection points: 2
#     Edge 63, Type (0, 0), BuildingBlock: XIVTED_clean_linker_0, # of connection points: 2
#     Edge 64, Type (0, 0), BuildingBlock: XIVTED_clean_linker_0, # of connection points: 2
#     Edge 65, Type (0, 0), BuildingBlock: XIVTED_clean_linker_0, # of connection points: 2
#     Edge 66, Type (0, 0), BuildingBlock: XIVTED_clean_linker_0, # of connection points: 2
#     Edge 67, Type (0, 0), BuildingBlock: XIVTED_clean_linker_0, # of connection points: 2
#     Edge 68, Type (0, 0), BuildingBlock: XIVTED_clean_linker_0, # of connection points: 2
#     Edge 69, Type (0, 0), BuildingBlock: XIVTED_clean_linker_0, # of connection points: 2
#     Edge 70, Type (0, 0), BuildingBlock: XIVTED_clean_linker_0, # of connection points: 2
#     Edge 71, Type (0, 0), BuildingBlock: XIVTED_clean_linker_0, # of connection points: 2
#     Edge 72, Type (0, 0), BuildingBlock: XIVTED_clean_linker_0, # of connection points: 2
#     Edge 73, Type (0, 0), BuildingBlock: XIVTED_clean_linker_0, # of connection points: 2
#     Edge 74, Type (0, 0), BuildingBlock: XIVTED_clean_linker_0, # of connection points: 2
#     Edge 75, Type (0, 0), BuildingBlock: XIVTED_clean_linker_0, # of connection points: 2
#     Edge 76, Type (0, 0), BuildingBlock: XIVTED_clean_linker_0, # of connection points: 2
#     Edge 77, Type (0, 0), BuildingBlock: XIVTED_clean_linker_0, # of connection points: 2
#     Edge 78, Type (0, 0), BuildingBlock: XIVTED_clean_linker_0, # of connection points: 2
#     Edge 79, Type (0, 0), BuildingBlock: XIVTED_clean_linker_0, # of connection points: 2
#     Edge 80, Type (0, 0), BuildingBlock: XIVTED_clean_linker_0, # of connection points: 2
#     Edge 81, Type (0, 0), BuildingBlock: XIVTED_clean_linker_0, # of connection points: 2
#     Edge 82, Type (0, 0), BuildingBlock: XIVTED_clean_linker_0, # of connection points: 2
#     Edge 83, Type (0, 0), BuildingBlock: XIVTED_clean_linker_0, # of connection points: 2
#     Edge 84, Type (0, 0), BuildingBlock: XIVTED_clean_linker_0, # of connection points: 2
#     Edge 85, Type (0, 0), BuildingBlock: XIVTED_clean_linker_0, # of connection points: 2
#     Edge 86, Type (0, 0), BuildingBlock: XIVTED_clean_linker_0, # of connection points: 2
#     Edge 87, Type (0, 0), BuildingBlock: XIVTED_clean_linker_0, # of connection points: 2
#     Edge 88, Type (0, 0), BuildingBlock: XIVTED_clean_linker_0, # of connection points: 2
#     Edge 89, Type (0, 0), BuildingBlock: XIVTED_clean_linker_0, # of connection points: 2
#     Edge 90, Type (0, 0), BuildingBlock: XIVTED_clean_linker_0, # of connection points: 2
#     Edge 91, Type (0, 0), BuildingBlock: XIVTED_clean_linker_0, # of connection points: 2
#     Edge 92, Type (0, 0), BuildingBlock: XIVTED_clean_linker_0, # of connection points: 2
#     Edge 93, Type (0, 0), BuildingBlock: XIVTED_clean_linker_0, # of connection points: 2
#     Edge 94, Type (0, 0), BuildingBlock: XIVTED_clean_linker_0, # of connection points: 2
#     Edge 95, Type (0, 0), BuildingBlock: XIVTED_clean_linker_0, # of connection points: 2
# Relax obj value: 0.095
# Max RMSD: 0.223
# Mean RMSD: 0.175
data_MOF--net-sod-e--node1-MAKGUD_clean_sbu_1--edge1-XIVTED_clean_linker_0
_symmetry_space_group_name_H-M    P1
_symmetry_Int_Tables_number       1
_symmetry_cell_setting            triclinic
loop_
_symmetry_equiv_pos_as_xyz
'x, y, z'
_cell_length_a     60.341549
_cell_length_b     56.288375
_cell_length_c     55.167762
_cell_angle_alpha  90.044084
_cell_angle_beta   90.68691
_cell_angle_gamma 91.190937
loop_
_atom_site_label
_atom_site_type_symbol
_atom_site_fract_x
_atom_site_fract_y
_atom_site_fract_z
_atom_type_partial_charge
O0 O 0.09141 0.39836 0.35768 0.0
Tb1 Tb 0.0852 0.41055 0.39464 0.0
C2 C 0.07996 0.45808 0.42476 0.0
O3 O 0.10938 0.40029 0.44968 0.0
Tb4 Tb 0.07615 0.41256 0.45666 0.0
C5 C 0.0717 0.41006 0.50472 0.0
O6 O 0.09866 0.37929 0.41634 0.0
O7 O 0.0567 0.38338 0.44117 0.0
C8 C 0.06065 0.36208 0.4497 0.0
O9 O 0.0765 0.35973 0.46601 0.0
O10 O 0.09217 0.44611 0.40947 0.0
O11 O 0.06908 0.44754 0.44243 0.0
O12 O 0.05206 0.42223 0.37894 0.0
C13 C 0.11185 0.38151 0.43603 0.0
C14 C 0.11027 0.40975 0.35532 0.0
O15 O 0.08992 0.41524 0.49341 0.0
O16 O 0.05569 0.40705 0.48896 0.0
C17 C 0.05195 0.44014 0.36272 0.0
O18 O 0.07132 0.44955 0.35717 0.0
O19 O 0.115 0.42131 0.37518 0.0
O20 O 0.75785 1.00422 0.3983 0.0
Tb21 Tb 0.72531 1.0161 0.41 0.0
C22 C 0.70148 1.03033 0.45639 0.0
O23 O 0.66897 1.01082 0.39492 0.0
Tb24 Tb 0.67507 0.04548 0.41157 0.0
C25 C 0.63485 0.06109 0.42187 0.0
O26 O 0.70319 1.00411 0.37861 0.0
O27 O 0.68556 0.06902 0.38243 0.0
C28 C 0.67676 0.06613 0.36063 0.0
O29 O 0.66689 0.04576 0.35531 0.0
O30 O 0.70863 1.0119 0.44443 0.0
O31 O 0.69443 0.04909 0.44476 0.0
O32 O 0.74336 0.04978 0.42219 0.0
C33 C 0.68125 0.99999 0.37894 0.0
C34 C 0.75811 0.98503 0.41147 0.0
O35 O 0.64247 0.04055 0.42815 0.0
O36 O 0.64993 0.07283 0.41008 0.0
C37 C 0.75821 0.04798 0.44041 0.0
O38 O 0.76042 1.02681 0.45004 0.0
O39 O 0.73966 0.98315 0.42332 0.0
O40 O 0.04969 0.68959 0.3384 0.0
Tb41 Tb 0.06159 0.68036 0.37474 0.0
C42 C 0.07156 0.63603 0.4086 0.0
O43 O 1.04092 0.69456 0.4295 0.0
Tb44 Tb 0.07294 0.68116 0.44058 0.0
C45 C 0.07131 0.67687 0.48881 0.0
O46 O 0.05183 0.71412 0.39573 0.0
O47 O 0.09482 0.71081 0.43151 0.0
C48 C 0.09033 0.73183 0.44033 0.0
O49 O 0.07233 0.73429 0.45314 0.0
O50 O 0.05744 0.64601 0.3934 0.0
O51 O 0.08371 0.64861 0.42403 0.0
O52 O 0.09031 0.66527 0.35271 0.0
C53 C 1.03975 0.71376 0.41619 0.0
C54 C 1.03001 0.68009 0.34094 0.0
O55 O 0.05588 0.66997 0.4736 0.0
O56 O 0.0879 0.68581 0.47682 0.0
C57 C 0.08635 0.64636 0.33795 0.0
O58 O 0.06586 0.63798 0.33775 0.0
O59 O 1.0282 0.67083 0.36242 0.0
O60 O 0.3444 0.09846 0.39062 0.0
Tb61 Tb 0.37073 0.07258 0.38896 0.0
C62 C 0.40108 0.06126 0.43293 0.0
O63 O 0.41561 0.10858 0.37724 0.0
Tb64 Tb 0.43146 0.07975 0.39545 0.0
C65 C 0.47366 0.08713 0.40795 0.0
O66 O 0.39029 0.08603 0.35568 0.0
O67 O 0.42895 0.0467 0.37509 0.0
C68 C 0.43739 0.04615 0.35325 0.0
O69 O 0.44536 0.06597 0.34397 0.0
O70 O 0.38819 0.05127 0.41626 0.0
O71 O 0.41229 0.08055 0.42769 0.0
O72 O 0.3426 0.04547 0.39509 0.0
C73 C 0.40564 0.10401 0.35656 0.0
C74 C 0.35348 0.11144 0.40775 0.0
O75 O 0.46406 0.09623 0.38893 0.0
O76 O 0.45944 0.0742 0.41983 0.0
C77 C 0.33522 0.04118 0.41776 0.0
O78 O 0.34471 0.05335 0.43549 0.0
O79 O 0.37244 0.1026 0.41423 0.0
O80 O 0.08311 0.64906 0.73433 0.0
Tb81 Tb 0.06556 0.6787 0.71814 0.0
C82 C 1.01915 0.68566 0.74193 0.0
O83 O 1.03492 0.7035 0.67692 0.0
Tb84 Tb 1.03325 0.72831 0.70679 0.0
C85 C 0.99729 0.75271 0.69603 0.0
O86 O 0.07107 0.69566 0.68318 0.0
O87 O 0.0617 0.75148 0.69332 0.0
C88 C 0.0588 0.76297 0.67223 0.0
O89 O 1.03967 0.75926 0.6611 0.0
O90 O 1.03127 0.67111 0.72915 0.0
O91 O 1.02339 0.70902 0.74079 0.0
O92 O 0.08752 0.69706 0.74386 0.0
C93 C 0.05421 0.69798 0.66822 0.0
C94 C 0.08657 0.63787 0.71427 0.0
O95 O 1.00156 0.7316 0.68812 0.0
O96 O 1.01339 0.76026 0.71018 0.0
C97 C 0.08534 0.69236 0.76713 0.0
O98 O 0.06557 0.6861 0.77489 0.0
O99 O 0.07726 0.64903 0.69641 0.0
O100 O 0.41273 0.07772 0.7451 0.0
Tb101 Tb 0.41568 0.05782 0.71125 0.0
C102 C 0.452 0.03732 0.67941 0.0
O103 O 0.39655 0.06758 0.6536 0.0
Tb104 Tb 0.4077 1.03078 0.65292 0.0
C105 C 0.415 1.02355 0.60604 0.0
O106 O 0.38393 0.06953 0.69241 0.0
O107 O 0.37736 1.01017 0.66039 0.0
C108 C 0.35827 1.01806 0.65202 0.0
O109 O 0.35779 0.0393 0.64231 0.0
O110 O 0.44378 0.05739 0.68691 0.0
O111 O 0.4383 1.02046 0.67153 0.0
O112 O 0.42845 1.02683 0.73389 0.0
C113 C 0.38274 0.07668 0.66924 0.0
C114 C 0.42527 0.0956 0.73836 0.0
O115 O 0.42331 0.04094 0.61891 0.0
O116 O 0.40272 1.01 0.61963 0.0
C117 C 0.44924 1.02793 0.74318 0.0
O118 O 0.46098 0.04718 0.73818 0.0
O119 O 0.4323 0.09203 0.71655 0.0
O120 O 0.0929 0.33873 0.71531 0.0
Tb121 Tb 0.06846 0.36701 0.7155 0.0
C122 C 0.06723 0.41291 0.68166 0.0
O123 O 0.09597 0.41298 0.72975 0.0
Tb124 Tb 0.08705 0.44795 0.717 0.0
C125 C 0.12054 0.47883 0.71213 0.0
O126 O 0.08097 0.38317 0.75136 0.0
O127 O 0.05847 0.46558 0.73146 0.0
C128 C 0.04295 0.45478 0.74413 0.0
O129 O 0.04396 0.43182 0.74807 0.0
O130 O 0.06266 0.40295 0.70268 0.0
O131 O 0.07511 0.43478 0.68231 0.0
O132 O 1.03712 0.34792 0.70264 0.0
C133 C 0.09176 0.40435 0.75129 0.0
C134 C 0.10207 0.34506 0.69497 0.0
O135 O 0.11422 0.46936 0.73253 0.0
O136 O 0.1082 0.47029 0.69456 0.0
C137 C 1.03683 0.32557 0.69421 0.0
O138 O 0.05497 0.31327 0.69662 0.0
O139 O 0.09254 0.3639 0.68656 0.0
O140 O 0.75979 0.04737 0.69901 0.0
Tb141 Tb 0.72753 0.03528 0.68468 0.0
C142 C 0.69685 1.027 0.63777 0.0
O143 O 0.67671 0.05862 0.69404 0.0
Tb144 Tb 0.66371 1.02464 0.68113 0.0
C145 C 0.61921 1.02566 0.67642 0.0
O146 O 0.70589 0.04652 0.71694 0.0
O147 O 0.67185 1.00301 0.7123 0.0
C148 C 0.66267 1.00848 0.73296 0.0
O149 O 0.64945 1.0267 0.73371 0.0
O150 O 0.71062 0.04136 0.64991 0.0
O151 O 0.6802 1.01527 0.64785 0.0
O152 O 0.7488 1.00505 0.66918 0.0
C153 C 0.68739 0.0596 0.71488 0.0
C154 C 0.75989 0.06786 0.6881 0.0
O155 O 0.63262 0.04408 0.67677 0.0
O156 O 0.63096 1.0066 0.67831 0.0
C157 C 0.76494 1.01003 0.65284 0.0
O158 O 0.76673 0.03237 0.64616 0.0
O159 O 0.74164 0.07005 0.67559 0.0
O160 O 0.40769 0.35025 0.06479 0.0
Tb161 Tb 0.40959 0.37308 0.03334 0.0
C162 C 0.43629 0.41999 1.02008 0.0
O163 O 0.39414 0.4267 0.05221 0.0
Tb164 Tb 0.39992 0.45393 1.02417 0.0
C165 C 0.40014 0.50017 0.03447 0.0
O166 O 0.37725 0.39039 0.04636 0.0
O167 O 0.38252 0.44846 0.99001 0.0
C168 C 0.37032 0.42953 0.98477 0.0
O169 O 0.36908 0.41188 1.00022 0.0
O170 O 0.41804 0.40709 1.01766 0.0
O171 O 0.43375 0.44296 1.02023 0.0
O172 O 0.42359 0.34682 1.00552 0.0
C173 C 0.3759 0.41341 0.05376 0.0
C174 C 0.42522 0.35921 0.07571 0.0
O175 O 0.38503 0.48485 0.04157 0.0
O176 O 0.4152 0.48923 1.02235 0.0
C177 C 0.44243 0.33475 1.00986 0.0
O178 O 0.45203 0.33828 0.03108 0.0
O179 O 0.43431 0.37599 0.06253 0.0
O180 O 0.34841 0.70263 0.10514 0.0
Tb181 Tb 0.37607 0.70156 0.08025 0.0
C182 C 0.4138 0.67595 0.05319 0.0
O183 O 0.41713 0.73258 0.06786 0.0
Tb184 Tb 0.44738 0.71713 0.05558 0.0
C185 C 0.47674 0.70507 0.08932 0.0
O186 O 0.39258 0.73406 0.09705 0.0
O187 O 0.46189 0.7358 1.02519 0.0
C188 C 0.45263 0.75492 1.01632 0.0
O189 O 0.43386 0.76203 1.0254 0.0
O190 O 0.4083 0.68615 0.07366 0.0
O191 O 0.43109 0.6849 0.04173 0.0
O192 O 0.3553 0.68984 0.04765 0.0
C193 C 0.4125 0.74085 0.08944 0.0
C194 C 0.35308 0.68299 0.11636 0.0
O195 O 0.46918 0.72631 0.08618 0.0
O196 O 0.46784 0.69076 0.07331 0.0
C197 C 0.34372 0.66923 0.04905 0.0
O198 O 0.34599 0.65696 0.0691 0.0
O199 O 0.37113 0.67425 0.10758 0.0
O200 O 0.73205 0.41215 0.07323 0.0
Tb201 Tb 0.69872 0.42172 0.06079 0.0
C202 C 0.67258 0.46936 0.05181 0.0
O203 O 0.64748 0.40931 0.0817 0.0
Tb204 Tb 0.64232 0.4239 0.04555 0.0
C205 C 0.59836 0.42358 0.03956 0.0
O206 O 0.67818 0.38919 0.0716 0.0
O207 O 0.65333 0.39451 1.02322 0.0
C208 C 0.64442 0.37334 1.02734 0.0
O209 O 0.63077 0.37074 0.04554 0.0
O210 O 0.68504 0.45701 0.0668 0.0
O211 O 0.65694 0.45901 0.03838 0.0
O212 O 0.71559 0.43416 1.0264 0.0
C213 C 0.65968 0.39051 0.08468 0.0
C214 C 0.7308 0.4225 0.0943 0.0
O215 O 0.60895 0.42895 0.05954 0.0
O216 O 0.61258 0.4193 1.02269 0.0
C217 C 0.73069 0.452 1.02799 0.0
O218 O 0.73487 0.46064 0.04972 0.0
O219 O 0.71149 0.43199 0.09637 0.0
O220 O 0.64426 0.71028 0.09146 0.0
Tb221 Tb 0.67109 0.69529 0.07055 0.0
C222 C 0.68135 0.72948 1.02792 0.0
O223 O 0.70555 0.66025 0.03953 0.0
Tb224 Tb 0.72146 0.69519 0.04624 0.0
C225 C 0.75207 0.69684 1.01211 0.0
O226 O 0.68289 0.65917 0.07249 0.0
O227 O 0.74076 0.68218 0.07931 0.0
C228 C 0.75599 0.66524 0.07646 0.0
O229 O 0.75824 0.65687 0.05441 0.0
O230 O 0.66735 0.71295 0.03545 0.0
O231 O 0.70245 0.72859 0.03593 0.0
O232 O 0.68974 0.71379 0.09895 0.0
C233 C 0.6932 0.64827 0.05503 0.0
C234 C 0.63096 0.69198 0.08962 0.0
O235 O 0.73245 0.68715 1.00982 0.0
O236 O 0.75463 0.70563 0.03382 0.0
C237 C 0.68901 0.73711 0.09982 0.0
O238 O 0.68417 0.74859 0.0798 0.0
O239 O 0.63991 0.67581 0.07636 0.0
O240 O 0.59857 0.90062 0.86317 0.0
Tb241 Tb 0.58004 0.90498 0.8965 0.0
C242 C 0.58262 0.95502 0.92227 0.0
O243 O 0.61422 0.88894 0.94533 0.0
Tb244 Tb 0.58964 0.91396 0.95604 0.0
C245 C 0.58728 0.92046 1.00357 0.0
O246 O 0.59089 0.87105 0.91739 0.0
O247 O 0.56084 0.89144 0.94808 0.0
C248 C 0.5602 0.87185 0.96105 0.0
O249 O 0.57645 0.86818 0.97658 0.0
O250 O 0.56927 0.9397 0.9109 0.0
O251 O 0.59675 0.94708 0.93823 0.0
O252 O 0.55085 0.91201 0.87081 0.0
C253 C 0.608 0.86958 0.93363 0.0
C254 C 0.61488 0.91504 0.86926 0.0
O255 O 0.60431 0.91201 0.99238 0.0
O256 O 0.5719 0.9257 0.9879 0.0
C257 C 0.55172 0.93152 0.85656 0.0
O258 O 0.5701 0.94442 0.8579 0.0
O259 O 0.61166 0.92351 0.89089 0.0
O260 O 0.24467 0.51795 0.89892 0.0
Tb261 Tb 0.21229 0.52919 0.91159 0.0
C262 C 0.18958 0.54083 0.95909 0.0
O263 O 0.15648 0.52643 0.89334 0.0
Tb264 Tb 0.16598 0.55941 0.9126 0.0
C265 C 0.12914 0.58303 0.92099 0.0
O266 O 0.19112 0.51722 0.87984 0.0
O267 O 0.18008 0.58215 0.88442 0.0
C268 C 0.17174 0.58079 0.86221 0.0
O269 O 0.16033 0.5616 0.85596 0.0
O270 O 0.19627 0.52284 0.94617 0.0
O271 O 0.18296 0.56014 0.94795 0.0
O272 O 0.22928 0.56315 0.92442 0.0
C273 C 0.16915 0.51407 0.87883 0.0
C274 C 0.24432 0.49767 0.91027 0.0
O275 O 0.13235 0.56104 0.92709 0.0
O276 O 0.14648 0.59146 0.91015 0.0
C277 C 0.24222 0.56237 0.94434 0.0
O278 O 0.24388 0.54171 0.9552 0.0
O279 O 0.22614 0.49542 0.92249 0.0
O280 O 0.54554 0.18633 0.84401 0.0
Tb281 Tb 0.56195 0.1784 0.87865 0.0
C282 C 0.57417 0.13448 0.91152 0.0
O283 O 0.54263 0.19236 0.93389 0.0
Tb284 Tb 0.57569 0.18015 0.94312 0.0
C285 C 0.57424 0.17441 0.9911 0.0
O286 O 0.55111 0.21174 0.89917 0.0
O287 O 0.5956 0.21233 0.93706 0.0
C288 C 0.58893 0.23221 0.94697 0.0
O289 O 0.57002 0.23207 0.95846 0.0
O290 O 0.55898 0.14423 0.8976 0.0
O291 O 0.58682 0.14759 0.92608 0.0
O292 O 0.59179 0.16606 0.85657 0.0
C293 C 0.53962 0.2109 0.91994 0.0
C294 C 0.52724 0.17474 0.84902 0.0
O295 O 0.55802 0.16996 0.97599 0.0
O296 O 0.59155 0.18152 0.97911 0.0
C297 C 0.58952 0.14851 0.83985 0.0
O298 O 0.56947 0.13934 0.83685 0.0
O299 O 0.52883 0.16503 0.87026 0.0
O300 O 0.84632 0.60917 0.88594 0.0
Tb301 Tb 0.86834 0.57904 0.88636 0.0
C302 C 0.90812 0.56699 0.92049 0.0
O303 O 0.9131 0.60725 0.87959 0.0
Tb304 Tb 0.94362 0.59097 0.89188 0.0
C305 C 0.9769 0.61822 0.90844 0.0
O306 O 0.88689 0.59301 0.85347 0.0
O307 O 0.95438 0.56324 0.86772 0.0
C308 C 0.96385 0.56947 0.84731 0.0
O309 O 0.96684 0.59216 0.84261 0.0
O310 O 0.90001 0.56614 0.89837 0.0
O311 O 0.92896 0.57342 0.92279 0.0
O312 O 0.84439 0.54994 0.89881 0.0
C313 C 0.90628 0.60489 0.85698 0.0
C314 C 0.85403 0.61869 0.90596 0.0
O315 O 0.96864 0.6192 0.88652 0.0
O316 O 0.96606 0.60228 0.92079 0.0
C317 C 0.83327 0.55296 0.91952 0.0
O318 O 0.83701 0.57307 0.93108 0.0
O319 O 0.86979 0.60578 0.91497 0.0
O320 O 0.57818 0.14356 0.20932 0.0
Tb321 Tb 0.56091 0.17695 0.21408 0.0
C322 C 0.51609 0.18978 0.24286 0.0
O323 O 0.53501 0.21119 0.17548 0.0
Tb324 Tb 0.53319 0.23341 0.20749 0.0
C325 C 0.50166 0.26398 0.19694 0.0
O326 O 0.56984 0.20045 0.18459 0.0
O327 O 0.56387 0.25543 0.19768 0.0
C328 C 0.56612 0.26449 0.17518 0.0
O329 O 0.55069 0.25889 0.15907 0.0
O330 O 0.52902 0.1743 0.23238 0.0
O331 O 0.5193 0.21332 0.23989 0.0
O332 O 0.58638 0.17936 0.24229 0.0
C333 C 0.55443 0.20427 0.16828 0.0
C334 C 0.56351 0.13372 0.19491 0.0
O335 O 0.50222 0.24215 0.18937 0.0
O336 O 0.5188 0.26862 0.2108 0.0
C337 C 0.5829 0.17062 0.26407 0.0
O338 O 0.5626 0.16464 0.2703 0.0
O339 O 0.54744 0.14829 0.19119 0.0
O340 O 0.9118 0.58915 0.24049 0.0
Tb341 Tb 0.90919 0.55756 0.21811 0.0
C342 C 0.93299 0.54227 0.17015 0.0
O343 O 0.89198 0.57472 0.16484 0.0
Tb344 Tb 0.89384 0.54548 0.13878 0.0
C345 C 0.88621 0.55271 0.09203 0.0
O346 O 0.87649 0.57121 0.20201 0.0
O347 O 0.87337 0.51567 0.15049 0.0
C348 C 0.85229 0.51875 0.15483 0.0
O349 O 0.84454 0.54036 0.1543 0.0
O350 O 0.91557 0.54015 0.1841 0.0
O351 O 0.92875 0.54192 0.14687 0.0
O352 O 0.92264 0.53056 0.2452 0.0
C353 C 0.87461 0.57796 0.17855 0.0
C354 C 0.92946 0.59798 0.23022 0.0
O355 O 0.87888 0.56605 0.10939 0.0
O356 O 0.89826 0.53589 0.10102 0.0
C357 C 0.94292 0.534 0.25528 0.0
O358 O 0.95367 0.55353 0.24906 0.0
O359 O 0.93587 0.58391 0.21293 0.0
O360 O 0.58491 0.82488 0.2235 0.0
Tb361 Tb 0.56894 0.85986 0.22137 0.0
C362 C 0.55706 0.89063 0.17855 0.0
O363 O 0.56936 0.91829 0.24845 0.0
Tb364 Tb 0.54228 0.91753 0.22168 0.0
C365 C 0.54649 0.96065 0.20242 0.0
O366 O 0.57973 0.87908 0.25554 0.0
O367 O 0.51258 0.91792 0.24371 0.0
C368 C 0.51356 0.91992 0.26747 0.0
O369 O 0.53244 0.91626 0.27879 0.0
O370 O 0.57392 0.88409 0.19172 0.0
O371 O 0.53864 0.89568 0.18946 0.0
O372 O 0.53668 0.84306 0.20716 0.0
C373 C 0.58115 0.90246 0.26036 0.0
C374 C 0.60219 0.83117 0.21079 0.0
O375 O 0.56242 0.94573 0.20521 0.0
O376 O 0.52818 0.95135 0.21059 0.0
C377 C 0.53602 0.83303 0.18503 0.0
O378 O 0.55457 0.8337 0.1728 0.0
O379 O 0.6005 0.8532 0.20448 0.0
O380 O 0.23584 0.56138 0.18248 0.0
Tb381 Tb 0.2141 0.53176 0.17313 0.0
C382 C 0.17132 0.52632 0.13792 0.0
O383 O 0.16428 0.55462 0.18951 0.0
Tb384 Tb 0.13853 0.52909 0.17705 0.0
C385 C 0.09564 0.53911 0.17882 0.0
O386 O 0.19665 0.54339 0.20827 0.0
O387 O 0.14129 0.49764 0.19963 0.0
C388 C 0.15955 0.48865 0.20862 0.0
O389 O 0.17894 0.49817 0.20353 0.0
O390 O 0.18177 0.52198 0.15847 0.0
O391 O 0.14977 0.52727 0.13985 0.0
O392 O 0.2381 0.50292 0.16085 0.0
C393 C 0.17597 0.5525 0.20974 0.0
C394 C 0.23307 0.57272 0.16218 0.0
O395 O 0.11167 0.55327 0.18641 0.0
O396 O 0.10391 0.52002 0.16968 0.0
C397 C 0.25355 0.50722 0.14372 0.0
O398 O 0.25468 0.52895 0.13512 0.0
O399 O 0.21973 0.56079 0.14756 0.0
O400 O 0.9173 0.84858 0.55944 0.0
Tb401 Tb 0.92554 0.88192 0.54079 0.0
C402 C 0.96939 0.91494 0.53226 0.0
O403 O 0.90966 0.93598 0.5619 0.0
Tb404 Tb 0.92707 0.94633 0.52911 0.0
C405 C 0.93338 0.99323 0.5338 0.0
O406 O 0.8931 0.9016 0.54896 0.0
O407 O 0.90128 0.94391 0.50128 0.0
C408 C 0.89161 0.92474 0.49209 0.0
O409 O 0.89722 0.90351 0.49948 0.0
O410 O 0.95897 0.89833 0.54498 0.0
O411 O 0.95875 0.93119 0.51987 0.0
O412 O 0.93781 0.85807 0.50983 0.0
C413 C 0.89187 0.92218 0.56145 0.0
C414 C 0.92599 0.85509 0.58022 0.0
O415 O 0.93495 0.97785 0.55125 0.0
O416 O 0.92882 0.98212 0.51368 0.0
C417 C 0.95405 0.84217 0.51371 0.0
O418 O 0.96198 0.84107 0.53596 0.0
O419 O 0.93447 0.87639 0.57853 0.0
O420 O 0.87022 0.1851 0.60534 0.0
Tb421 Tb 0.89327 0.18644 0.5756 0.0
C422 C 0.94144 0.16918 0.55648 0.0
O423 O 0.93263 0.22756 0.56516 0.0
Tb424 Tb 0.96606 0.21631 0.55688 0.0
C425 C 0.99791 0.22885 0.5886 0.0
O426 O 0.90632 0.2205 0.59328 0.0
O427 O 0.9762 0.22715 0.52101 0.0
C428 C 0.96431 0.24214 0.50838 0.0
O429 O 0.94522 0.24889 0.51694 0.0
O430 O 0.92784 0.18437 0.56576 0.0
O431 O 0.96101 0.17804 0.55077 0.0
O432 O 0.87074 0.17543 0.54427 0.0
C433 C 0.92532 0.23157 0.5871 0.0
C434 C 0.87615 0.1644 0.61342 0.0
O435 O 0.9873 0.24329 0.57446 0.0
O436 O 0.99029 0.20727 0.58509 0.0
C437 C 0.86777 0.15223 0.53933 0.0
O438 O 0.87974 0.13739 0.55206 0.0
O439 O 0.89209 0.15604 0.60021 0.0
O440 O 0.18926 0.86683 0.51484 0.0
Tb441 Tb 0.18123 0.90283 0.52679 0.0
C442 C 0.13741 0.92968 0.53709 0.0
O443 O 0.19478 0.95968 0.51016 0.0
Tb444 Tb 0.17985 0.96071 0.54607 0.0
C445 C 0.17515 1.00668 0.55548 0.0
O446 O 0.21188 0.9245 0.51622 0.0
O447 O 0.2076 0.94977 0.56916 0.0
C448 C 0.22735 0.95949 0.56521 0.0
O449 O 0.22983 0.9737 0.54654 0.0
O450 O 0.14868 0.91843 0.52052 0.0
O451 O 0.14786 0.94324 0.55317 0.0
O452 O 0.16987 0.88537 0.56162 0.0
C453 C 0.21144 0.94581 0.50542 0.0
C454 C 0.17882 0.86806 0.49406 0.0
O455 O 0.16788 0.99588 0.53606 0.0
O456 O 0.18479 0.99157 0.56964 0.0
C457 C 0.15221 0.87045 0.56058 0.0
O458 O 0.14296 0.86705 0.53916 0.0
O459 O 0.17033 0.88895 0.49174 0.0
O460 O 0.16729 0.22618 0.60939 0.0
Tb461 Tb 0.19198 0.23264 0.58122 0.0
C462 C 0.20051 0.25621 0.53271 0.0
O463 O 0.21888 0.18927 0.54957 0.0
Tb464 Tb 0.23965 0.22133 0.55119 0.0
C465 C 0.26577 0.21405 0.51345 0.0
O466 O 0.19098 0.19453 0.57772 0.0
O467 O 0.26055 0.20592 0.58212 0.0
C468 C 0.27206 0.18601 0.57794 0.0
O469 O 0.26973 0.17674 0.55617 0.0
O470 O 0.18642 0.24193 0.54359 0.0
O471 O 0.22201 0.25517 0.53931 0.0
O472 O 0.22364 0.24532 0.59585 0.0
C473 C 0.20235 0.18131 0.56292 0.0
C474 C 0.15578 0.24506 0.60519 0.0
O475 O 0.24524 0.20697 0.5152 0.0
O476 O 0.27167 0.22572 0.53299 0.0
C477 C 0.22537 0.26072 0.61375 0.0
O478 O 0.24512 0.26689 0.62213 0.0
O479 O 0.16514 0.25727 0.58797 0.0
H480 H 1.03471 0.39927 0.53149 0.0
H481 H 0.10357 0.40343 0.65596 0.0
H482 H 0.10543 0.41063 0.53774 0.0
H483 H 1.03236 0.39715 0.6535 0.0
H484 H 0.10454 0.39735 0.61228 0.0
H485 H 1.03329 0.39201 0.57543 0.0
C486 C 0.04991 0.40023 0.54212 0.0
C487 C 0.07018 0.40587 0.53109 0.0
C488 C 0.08865 0.39672 0.62121 0.0
C489 C 0.06877 0.3972 0.58107 0.0
C490 C 0.08815 0.3998 0.64623 0.0
C491 C 0.06789 0.40039 0.65831 0.0
C492 C 0.06867 0.39504 0.60795 0.0
C493 C 0.04833 0.39634 0.64483 0.0
C494 C 0.04911 0.39595 0.56713 0.0
C495 C 0.08941 0.40663 0.54557 0.0
N496 N 0.04915 0.39429 0.62022 0.0
N497 N 0.08821 0.40243 0.56975 0.0
H498 H 0.67188 0.05163 0.48582 0.0
H499 H 0.73394 1.02885 0.60985 0.0
H500 H 0.72984 1.00804 0.48762 0.0
H501 H 0.66256 1.025 0.60504 0.0
H502 H 0.73548 1.02908 0.5653 0.0
H503 H 0.67081 0.05021 0.53027 0.0
C504 C 0.68445 0.04189 0.4956 0.0
C505 C 0.70095 1.02988 0.48312 0.0
C506 C 0.71954 1.02813 0.5741 0.0
C507 C 0.70002 1.0286 0.53371 0.0
C508 C 0.71863 1.0281 0.59941 0.0
C509 C 0.6981 1.02683 0.61106 0.0
C510 C 0.69975 1.02764 0.56047 0.0
C511 C 0.67873 1.02581 0.59673 0.0
C512 C 0.68374 0.041 0.52086 0.0
C513 C 0.71678 1.01741 0.49662 0.0
N514 N 0.68 1.02654 0.57216 0.0
N515 N 0.71608 1.01729 0.52127 0.0
H516 H 1.02152 0.69788 0.63364 0.0
H517 H 1.03577 0.66207 0.51516 0.0
H518 H 0.09209 0.68941 0.6424 0.0
H519 H 0.10165 0.69247 0.52299 0.0
H520 H 1.03092 0.66554 0.55888 0.0
H521 H 1.02505 0.69131 0.59031 0.0
C522 C 1.03778 0.69443 0.62649 0.0
C523 C 0.05652 0.69399 0.64179 0.0
C524 C 0.04636 0.67173 0.55109 0.0
C525 C 0.06063 0.6859 0.59191 0.0
C526 C 0.04923 0.66947 0.52613 0.0
C527 C 0.06906 0.67719 0.51546 0.0
C528 C 0.06344 0.68189 0.56552 0.0
C529 C 0.08604 0.68645 0.53054 0.0
C530 C 1.03974 0.69041 0.60168 0.0
C531 C 0.07718 0.68971 0.63132 0.0
N532 N 0.08285 0.68857 0.55485 0.0
N533 N 0.0787 0.68596 0.60698 0.0
H534 H 0.43674 0.06945 0.46223 0.0
H535 H 0.38825 0.99785 0.5748 0.0
H536 H 0.37664 1.02669 0.45702 0.0
H537 H 0.44442 0.04646 0.57727 0.0
H538 H 0.38711 1.00164 0.5304 0.0
H539 H 0.44328 0.05431 0.50255 0.0
C540 C 0.42488 0.05674 0.46954 0.0
C541 C 0.40581 0.04972 0.45638 0.0
C542 C 0.39989 1.01113 0.54067 0.0
C543 C 0.4131 0.03248 0.50315 0.0
C544 C 0.40061 1.0089 0.56592 0.0
C545 C 0.41632 1.02209 0.57955 0.0
C546 C 0.41509 1.02653 0.52922 0.0
C547 C 0.43192 0.03619 0.56737 0.0
C548 C 0.42866 0.04806 0.49268 0.0
C549 C 0.39134 0.03285 0.46673 0.0
N550 N 0.4308 0.03817 0.54292 0.0
N551 N 0.39508 1.02505 0.48978 0.0
H552 H 0.50629 0.11156 0.38381 0.0
H553 H 0.60216 0.03951 0.44809 0.0
H554 H 0.49519 0.06486 0.44462 0.0
H555 H 0.61525 0.09927 0.40113 0.0
H556 H 0.56291 0.04959 0.44818 0.0
H557 H 0.54637 0.10871 0.39076 0.0
C558 C 0.51232 0.10099 0.39881 0.0
C559 C 0.49754 0.08826 0.41355 0.0
C560 C 0.57439 0.0607 0.43811 0.0
C561 C 0.54311 0.08467 0.42143 0.0
C562 C 0.59676 0.05493 0.43805 0.0
C563 C 0.61181 0.06852 0.42449 0.0
C564 C 0.56706 0.07998 0.42418 0.0
C565 C 0.60408 0.08833 0.41179 0.0
C566 C 0.53515 0.09936 0.40278 0.0
C567 C 0.50609 0.07483 0.43275 0.0
N568 N 0.58215 0.09331 0.41168 0.0
N569 N 0.52833 0.07314 0.43596 0.0
H570 H 0.06296 0.6028 0.37281 0.0
H571 H 0.06981 0.49054 0.45982 0.0
H572 H 0.08212 0.60919 0.44815 0.0
H573 H 0.08772 0.4857 0.38453 0.0
H574 H 0.06762 0.53376 0.45554 0.0
H575 H 0.06531 0.55932 0.37631 0.0
C576 C 0.06757 0.59509 0.39007 0.0
C577 C 0.07245 0.60969 0.41018 0.0
C578 C 0.07202 0.5232 0.43997 0.0
C579 C 0.07476 0.56008 0.41439 0.0
C580 C 0.07323 0.49852 0.44237 0.0
C581 C 0.079 0.48439 0.42251 0.0
C582 C 0.07608 0.53388 0.41741 0.0
C583 C 0.08328 0.49583 0.40034 0.0
C584 C 0.069 0.57032 0.39201 0.0
C585 C 0.07839 0.59869 0.43211 0.0
N586 N 0.08154 0.51986 0.39832 0.0
N587 N 0.07918 0.5746 0.43369 0.0
H588 H 0.4837 0.07157 0.68878 0.0
H589 H 0.58901 0.98839 0.67328 0.0
H590 H 0.47681 0.99775 0.6684 0.0
H591 H 0.59312 0.06476 0.67827 0.0
H592 H 0.54829 0.99042 0.67355 0.0
H593 H 0.52383 0.06833 0.68747 0.0
C594 C 0.49058 0.0546 0.68398 0.0
C595 C 0.47664 0.03492 0.67856 0.0
C596 C 0.5581 1.00673 0.67449 0.0
C597 C 0.52317 1.03107 0.67715 0.0
C598 C 0.58135 1.00558 0.67434 0.0
C599 C 0.59453 1.02645 0.67569 0.0
C600 C 0.5479 1.0289 0.67627 0.0
C601 C 0.58368 0.04822 0.67711 0.0
C602 C 0.51363 0.0528 0.68321 0.0
C603 C 0.4868 1.01344 0.67259 0.0
N604 N 0.56111 0.04886 0.67747 0.0
N605 N 0.50941 1.01207 0.67211 0.0
H606 H 0.13765 0.50592 0.74918 0.0
H607 H 0.09691 0.61385 0.67313 0.0
H608 H 0.12865 0.50484 0.67153 0.0
H609 H 0.1087 0.6153 0.75039 0.0
H610 H 0.11851 0.57768 0.67047 0.0
H611 H 0.13958 0.54921 0.74805 0.0
C612 C 0.13699 0.51478 0.73177 0.0
C613 C 0.13202 0.502 0.71053 0.0
C614 C 0.11666 0.58607 0.68798 0.0
C615 C 0.13339 0.55127 0.70917 0.0
C616 C 0.10416 0.60655 0.6895 0.0
C617 C 0.10051 0.61698 0.71209 0.0
C618 C 0.12531 0.57589 0.70927 0.0
C619 C 0.11067 0.60732 0.7327 0.0
C620 C 0.13786 0.53954 0.73113 0.0
C621 C 0.13176 0.51422 0.68842 0.0
N622 N 0.12232 0.58706 0.73086 0.0
N623 N 0.13161 0.5383 0.68836 0.0
H624 H 0.37321 0.52675 0.06346 0.0
H625 H 0.42088 0.65049 1.01188 0.0
H626 H 0.42511 0.53293 1.01062 0.0
H627 H 0.39044 0.6447 0.08199 0.0
H628 H 0.41483 0.60775 1.00607 0.0
H629 H 0.37256 0.57047 0.06609 0.0
C630 C 0.38442 0.5373 0.05245 0.0
C631 C 0.39938 0.52628 0.03698 0.0
C632 C 0.40915 0.61595 1.02257 0.0
C633 C 0.39837 0.57595 0.03942 0.0
C634 C 0.41247 0.64038 1.02585 0.0
C635 C 0.40611 0.65132 0.04747 0.0
C636 C 0.39932 0.60229 0.04101 0.0
C637 C 0.39531 0.63721 0.06492 0.0
C638 C 0.38402 0.56217 0.0539 0.0
C639 C 0.41346 0.54071 1.02296 0.0
N640 N 0.39238 0.61341 0.0614 0.0
N641 N 0.41256 0.56474 1.02445 0.0
H642 H 0.45815 0.42709 0.06238 0.0
H643 H 0.5746 0.40681 1.00041 0.0
H644 H 0.4642 0.39425 0.99233 0.0
H645 H 0.56729 0.43084 0.07406 0.0
H646 H 0.53447 0.39915 0.99789 0.0
H647 H 0.49807 0.42394 0.06876 0.0
C648 C 0.4679 0.41844 0.0487 0.0
C649 C 0.45801 0.4107 1.02693 0.0
C650 C 0.54165 0.40599 1.01464 0.0
C651 C 0.50384 0.40818 0.03343 0.0
C652 C 0.56451 0.41056 1.016 0.0
C653 C 0.57416 0.41975 0.03737 0.0
C654 C 0.5284 0.41076 0.03478 0.0
C655 C 0.56044 0.42399 0.05716 0.0
C656 C 0.49072 0.41689 0.05219 0.0
C657 C 0.47129 0.4001 1.0095 0.0
N658 N 0.53826 0.41959 0.05533 0.0
N659 N 0.49367 0.39955 1.01292 0.0
H660 H 0.70989 0.49569 0.06396 0.0
H661 H 0.65565 0.6219 0.06374 0.0
H662 H 0.6427 0.50366 0.03827 0.0
H663 H 0.72336 0.61463 0.04135 0.0
H664 H 0.65048 0.57857 0.0613 0.0
H665 H 0.71527 0.53896 0.06255 0.0
C666 C 0.69625 0.50647 0.05798 0.0
C667 C 0.67582 0.49582 0.05107 0.0
C668 C 0.66643 0.58646 0.05682 0.0
C669 C 0.68177 0.54568 0.05013 0.0
C670 C 0.66945 0.61118 0.0583 0.0
C671 C 0.68998 0.62198 0.05268 0.0
C672 C 0.68424 0.57219 0.05043 0.0
C673 C 0.70723 0.60712 0.04568 0.0
C674 C 0.69939 0.53121 0.05714 0.0
C675 C 0.65876 0.51095 0.04364 0.0
N676 N 0.70408 0.58299 0.0451 0.0
N677 N 0.66201 0.53506 0.04369 0.0
H678 H 0.60262 0.65376 0.08932 0.0
H679 H 0.50256 0.73556 0.11646 0.0
H680 H 0.60941 0.72618 0.11435 0.0
H681 H 0.49617 0.66224 0.0942 0.0
H682 H 0.54113 0.72888 0.12807 0.0
H683 H 0.56405 0.65303 0.10221 0.0
C684 C 0.59599 0.66941 0.09779 0.0
C685 C 0.60883 0.69028 0.10017 0.0
C686 C 0.53115 0.71406 0.12126 0.0
C687 C 0.56485 0.68973 0.11477 0.0
C688 C 0.50912 0.71786 0.11473 0.0
C689 C 0.49659 0.69959 0.10361 0.0
C690 C 0.54055 0.69196 0.11625 0.0
C691 C 0.5056 0.67693 0.10212 0.0
C692 C 0.57403 0.66899 0.10528 0.0
C693 C 0.59976 0.70993 0.11171 0.0
N694 N 0.52727 0.67388 0.10777 0.0
N695 N 0.57813 0.70935 0.11817 0.0
H696 H 0.61649 0.90602 0.03826 0.0
H697 H 0.52889 0.91253 0.14615 0.0
H698 H 0.55057 0.93294 1.02855 0.0
H699 H 0.59345 0.88119 0.15215 0.0
H700 H 0.53677 0.92251 0.10372 0.0
H701 H 0.60906 0.90014 0.08127 0.0
C702 C 0.60055 0.91098 0.0453 0.0
C703 C 0.5841 0.91989 0.02994 0.0
C704 C 0.54917 0.91347 0.11441 0.0
C705 C 0.57527 0.91289 0.07897 0.0
C706 C 0.54464 0.9077 0.13855 0.0
C707 C 0.56054 0.89608 0.1527 0.0
C708 C 0.56972 0.90756 0.10451 0.0
C709 C 0.58071 0.89027 0.14199 0.0
C710 C 0.59624 0.9075 0.06981 0.0
C711 C 0.56369 0.92599 0.03988 0.0
N712 N 0.5847 0.89609 0.11861 0.0
N713 N 0.55977 0.92222 0.0638 0.0
H714 H 0.16332 0.56501 0.11056 0.0
H715 H 0.20583 0.5054 0.98856 0.0
H716 H 0.2008 0.50076 0.11088 0.0
H717 H 0.17611 0.57434 0.99173 0.0
H718 H 0.20641 0.50408 0.03304 0.0
H719 H 0.171 0.57012 0.06752 0.0
C720 C 0.17376 0.55231 0.10165 0.0
C721 C 0.18163 0.53259 0.11441 0.0
C722 C 0.1999 0.51955 1.02401 0.0
C723 C 0.18972 0.53769 0.0645 0.0
C724 C 0.19946 0.5203 0.99854 0.0
C725 C 0.19069 0.53993 0.9862 0.0
C726 C 0.19141 0.53853 0.03738 0.0
C727 C 0.18288 0.55875 1.00028 0.0
C728 C 0.17797 0.5551 0.07695 0.0
C729 C 0.19472 0.51644 0.10183 0.0
N730 N 0.18329 0.55749 1.02496 0.0
N731 N 0.19805 0.51912 0.07747 0.0
H732 H 0.53678 0.16719 1.01724 0.0
H733 H 0.59386 0.19586 0.14591 0.0
H734 H 0.6065 0.18424 1.0252 0.0
H735 H 0.52354 0.20011 0.13185 0.0
H736 H 0.59939 0.18637 0.10303 0.0
H737 H 0.53228 0.17319 0.06078 0.0
C738 C 0.5512 0.17191 1.02824 0.0
C739 C 0.57203 0.17528 1.01767 0.0
C740 C 0.58277 0.18937 0.10939 0.0
C741 C 0.567 0.18233 0.06744 0.0
C742 C 0.57959 0.19475 0.13383 0.0
C743 C 0.5582 0.1988 0.14245 0.0
C744 C 0.56439 0.18773 0.09356 0.0
C745 C 0.54032 0.19721 0.12599 0.0
C746 C 0.5486 0.17548 0.05305 0.0
C747 C 0.59015 0.18148 0.03271 0.0
N748 N 0.54381 0.19171 0.10239 0.0
N749 N 0.58722 0.18487 0.05688 0.0
H750 H 0.88226 0.53073 0.93799 0.0
H751 H 0.87353 0.59282 0.06794 0.0
H752 H 0.9042 0.60268 0.95277 0.0
H753 H 0.88786 0.51884 0.05726 0.0
H754 H 0.86994 0.59752 1.02368 0.0
H755 H 0.8687 0.52767 0.97984 0.0
C756 C 0.88345 0.54611 0.9498 0.0
C757 C 0.89435 0.56693 0.94221 0.0
C758 C 0.87343 0.58019 0.03117 0.0
C759 C 0.87918 0.56361 0.98957 0.0
C760 C 0.87554 0.57754 0.05628 0.0
C761 C 0.88145 0.55555 0.06602 0.0
C762 C 0.87679 0.56058 1.01596 0.0
C763 C 0.88371 0.53619 0.05031 0.0
C764 C 0.87589 0.54433 0.9736 0.0
C765 C 0.89588 0.58631 0.95814 0.0
N766 N 0.8815 0.53917 1.026 0.0
N767 N 0.88854 0.58415 0.98119 0.0
H768 H 0.99591 0.61551 0.95305 0.0
H769 H 0.11681 0.62315 0.89751 0.0
H770 H 1.00878 0.63894 0.88004 0.0
H771 H 0.09492 0.57241 0.95115 0.0
H772 H 0.0806 0.64212 0.89926 0.0
H773 H 1.03578 0.61482 0.96104 0.0
C774 C 1.00713 0.62135 0.93897 0.0
C775 C 0.99919 0.62665 0.91565 0.0
C776 C 0.08395 0.62714 0.91096 0.0
C777 C 0.04455 0.62562 0.92459 0.0
C778 C 0.10449 0.6163 0.90996 0.0
C779 C 0.10854 0.59601 0.92395 0.0
C780 C 0.06766 0.61783 0.92638 0.0
C781 C 0.09221 0.58782 0.93984 0.0
C782 C 1.02984 0.62079 0.94351 0.0
C783 C 1.01434 0.63438 0.89815 0.0
N784 N 0.07237 0.5987 0.94053 0.0
N785 N 1.03646 0.6331 0.90279 0.0
H786 H 0.60226 0.10738 0.93915 0.0
H787 H 0.55394 0.98054 0.89279 0.0
H788 H 0.54978 0.10078 0.8856 0.0
H789 H 0.60721 0.9899 0.94503 0.0
H790 H 0.55187 1.02408 0.88925 0.0
H791 H 0.60411 0.06414 0.94088 0.0
C792 C 0.59112 0.09689 0.9277 0.0
C793 C 0.5758 0.10796 0.91226 0.0
C794 C 0.564 1.01654 0.90147 0.0
C795 C 0.5778 0.05791 0.91419 0.0
C796 C 0.56518 0.99165 0.9035 0.0
C797 C 0.58072 0.98134 0.9193 0.0
C798 C 0.57845 1.03129 0.91533 0.0
C799 C 0.59488 0.9968 0.93265 0.0
C800 C 0.59217 0.07208 0.9287 0.0
C801 C 0.56184 0.09317 0.89785 0.0
N802 N 0.59337 1.02078 0.93039 0.0
N803 N 0.56314 0.069 0.8992 0.0
H804 H 0.96133 0.57721 0.15522 0.0
H805 H 0.06485 0.50435 0.18548 0.0
H806 H 0.95652 0.51757 0.20386 0.0
H807 H 0.07211 0.58056 0.18093 0.0
H808 H 1.02488 0.50843 0.1901 0.0
H809 H 1.00147 0.57957 0.16286 0.0
C810 C 0.96872 0.56501 0.168 0.0
C811 C 0.95573 0.54722 0.17904 0.0
C812 C 1.03521 0.52429 0.18837 0.0
C813 C 1.00152 0.54922 0.18707 0.0
C814 C 0.05797 0.52198 0.18551 0.0
C815 C 0.07169 0.54216 0.18262 0.0
C816 C 1.02595 0.54691 0.18759 0.0
C817 C 0.06201 0.56459 0.18304 0.0
C818 C 0.99156 0.56636 0.17234 0.0
C819 C 0.966 0.53166 0.19523 0.0
N820 N 1.03958 0.56638 0.18497 0.0
N821 N 0.98843 0.53264 0.19833 0.0
H822 H 0.51419 0.99241 0.19251 0.0
H823 H 0.59678 0.10208 0.19972 0.0
H824 H 0.58515 0.98463 0.19342 0.0
H825 H 0.52913 0.10825 0.17478 0.0
H826 H 0.59356 0.05896 0.19481 0.0
H827 H 0.51942 0.03469 0.18348 0.0
C828 C 0.53086 0.9996 0.19048 0.0
C829 C 0.54929 0.98523 0.19396 0.0
C830 C 0.57954 0.06976 0.18997 0.0
C831 C 0.55543 0.03341 0.18396 0.0
C832 C 0.58138 0.09433 0.19278 0.0
C833 C 0.5631 0.10856 0.18789 0.0
C834 C 0.55914 0.05943 0.18267 0.0
C835 C 0.54355 0.09779 0.17888 0.0
C836 C 0.53385 1.02367 0.18525 0.0
C837 C 0.57053 0.99525 0.19102 0.0
N838 N 0.54193 0.07376 0.17697 0.0
N839 N 0.57306 1.01886 0.18657 0.0
H840 H 0.93264 1.02672 0.49818 0.0
H841 H 0.92896 0.13661 0.5903 0.0
H842 H 0.93511 1.01884 0.57591 0.0
H843 H 0.94391 0.14427 0.51458 0.0
H844 H 0.92531 0.09345 0.58468 0.0
H845 H 0.93193 0.06992 0.50323 0.0
C846 C 0.93314 0.03413 0.51631 0.0
C847 C 0.93411 1.01928 0.53666 0.0
C848 C 0.92905 0.10459 0.5692 0.0
C849 C 0.93295 0.06858 0.54261 0.0
C850 C 0.9307 0.1292 0.57234 0.0
C851 C 0.93605 0.14388 0.55271 0.0
C852 C 0.93292 0.0947 0.54627 0.0
C853 C 0.93943 0.13343 0.53005 0.0
C854 C 0.93268 0.05875 0.51919 0.0
C855 C 0.93456 1.02973 0.55975 0.0
N856 N 0.93777 0.10945 0.52741 0.0
N857 N 0.93391 0.05376 0.56211 0.0
H858 H 0.10719 0.96087 0.55549 0.0
H859 H 0.9992 0.87858 0.53677 0.0
H860 H 0.11072 0.89362 0.51844 0.0
H861 H 0.99639 0.95474 0.5299 0.0
H862 H 1.04001 0.88185 0.53803 0.0
H863 H 0.06647 0.95719 0.55434 0.0
C864 C 0.09947 0.94525 0.54727 0.0
C865 C 0.11257 0.92755 0.53704 0.0
C866 C 1.03041 0.89782 0.53625 0.0
C867 C 0.0658 0.92301 0.53614 0.0
C868 C 1.00712 0.89598 0.53562 0.0
C869 C 0.99424 0.9164 0.53309 0.0
C870 C 1.04101 0.92029 0.53513 0.0
C871 C 1.00555 0.93848 0.53164 0.0
C872 C 0.07621 0.94322 0.54655 0.0
C873 C 0.10144 0.90775 0.52655 0.0
N874 N 1.02817 0.93986 0.53294 0.0
N875 N 0.07882 0.9059 0.52659 0.0
H876 H 0.14926 0.04004 0.53376 0.0
H877 H 0.23142 0.14546 0.56001 0.0
H878 H 0.20352 1.03185 0.5845 0.0
H879 H 0.16148 0.15923 0.56401 0.0
H880 H 0.22292 0.10273 0.56019 0.0
H881 H 0.15426 0.08353 0.53676 0.0
C882 C 0.16202 0.04743 0.54569 0.0
C883 C 0.17601 0.03254 0.55893 0.0
C884 C 0.20948 0.11517 0.56098 0.0
C885 C 0.18213 0.08159 0.5618 0.0
C886 C 0.21427 0.13944 0.56067 0.0
C887 C 0.19709 0.15573 0.56195 0.0
C888 C 0.18735 0.1072 0.56186 0.0
C889 C 0.17514 0.14709 0.56307 0.0
C890 C 0.16481 0.07209 0.5474 0.0
C891 C 0.19236 0.04282 0.57409 0.0
N892 N 0.17081 0.12328 0.56271 0.0
N893 N 0.19525 0.06677 0.57479 0.0
H894 H 0.12939 0.28301 0.59668 0.0
H895 H 1.01571 0.27316 0.59715 0.0
H896 H 0.13005 0.21471 0.63188 0.0
H897 H 1.02743 0.19888 0.60968 0.0
H898 H 0.05362 0.28256 0.61058 0.0
H899 H 0.08932 0.28371 0.60094 0.0
C900 C 0.12109 0.26846 0.60598 0.0
C901 C 0.13294 0.24859 0.61354 0.0
C902 C 0.04804 0.26419 0.61039 0.0
C903 C 0.08685 0.24909 0.61861 0.0
C904 C 1.02625 0.25886 0.60299 0.0
C905 C 1.01868 0.23516 0.60171 0.0
C906 C 0.06242 0.24557 0.61613 0.0
C907 C 1.03277 0.21736 0.61 0.0
C908 C 0.09808 0.26886 0.60854 0.0
C909 C 0.12146 0.23027 0.62557 0.0
N910 N 0.05407 0.22289 0.61645 0.0
N911 N 0.09901 0.23072 0.62723 0.0
H912 H 0.21418 0.30347 0.52129 0.0
H913 H 0.10948 0.33138 0.43098 0.0
H914 H 0.16266 0.25184 0.50444 0.0
H915 H 0.14855 0.38649 0.46614 0.0
H916 H 0.13183 0.3014 0.45255 0.0
H917 H 0.19401 0.33298 0.49656 0.0
C918 C 0.19892 0.29806 0.51215 0.0
C919 C 0.19048 0.27465 0.51523 0.0
C920 C 0.1357 0.32007 0.45539 0.0
C921 C 0.16683 0.30899 0.48628 0.0
C922 C 0.12294 0.33733 0.44279 0.0
C923 C 0.12689 0.36195 0.44629 0.0
C924 C 0.15311 0.32705 0.47156 0.0
C925 C 0.14461 0.36797 0.4625 0.0
C926 C 0.18719 0.31511 0.49806 0.0
C927 C 0.17015 0.26941 0.5029 0.0
N928 N 0.15686 0.35097 0.4742 0.0
N929 N 0.15932 0.28608 0.48917 0.0
H930 H 0.82685 0.16871 0.51983 0.0
H931 H 0.80177 0.04319 0.45112 0.0
H932 H 0.87089 0.1096 0.51628 0.0
H933 H 0.75189 0.09671 0.45267 0.0
H934 H 0.82745 0.07006 0.47228 0.0
H935 H 0.8 0.14615 0.49353 0.0
C936 C 0.83116 0.15128 0.51331 0.0
C937 C 0.85155 0.14135 0.52057 0.0
C938 C 0.81103 0.07631 0.46793 0.0
C939 C 0.82043 0.11501 0.49031 0.0
C940 C 0.7962 0.06084 0.45555 0.0
C941 C 0.77438 0.0674 0.44954 0.0
C942 C 0.80446 0.0991 0.47516 0.0
C943 C 0.76852 0.09072 0.45632 0.0
C944 C 0.81564 0.13825 0.49836 0.0
C945 C 0.85562 0.11835 0.51155 0.0
N946 N 0.7833 0.10554 0.46883 0.0
N947 N 0.84048 0.10629 0.49725 0.0
H948 H 1.01957 0.7148 0.4605 0.0
H949 H 0.96271 0.845 0.46224 0.0
H950 H 1.02847 0.76124 0.39917 0.0
H951 H 0.96954 0.79768 0.52296 0.0
H952 H 0.98309 0.81605 0.43694 0.0
H953 H 0.99878 0.7451 0.48067 0.0
C954 C 1.01725 0.73133 0.45088 0.0
C955 C 1.02639 0.73458 0.42747 0.0
C956 C 0.97999 0.81192 0.45577 0.0
C957 C 1.00115 0.77115 0.45185 0.0
C958 C 0.968 0.82852 0.47033 0.0
C959 C 0.96377 0.82422 0.49527 0.0
C960 C 0.9879 0.79038 0.46582 0.0
C961 C 0.97193 0.80236 0.50413 0.0
C962 C 1.0051 0.74901 0.46279 0.0
C963 C 1.02212 0.75721 0.41698 0.0
N964 N 0.98318 0.78677 0.48977 0.0
N965 N 1.00995 0.77431 0.42906 0.0
H966 H 0.29038 0.03586 0.403 0.0
H967 H 0.25725 0.93573 0.5044 0.0
H968 H 0.33808 1.00595 0.45212 0.0
H969 H 0.20948 0.98133 0.4708 0.0
H970 H 0.28685 0.95649 0.48137 0.0
H971 H 0.26093 1.01164 0.4227 0.0
C972 C 0.29492 1.0237 0.41733 0.0
C973 C 0.31726 1.02282 0.4252 0.0
C974 C 0.26986 0.96185 0.47883 0.0
C975 C 0.2829 0.99483 0.4487 0.0
C976 C 0.25278 0.94977 0.49198 0.0
C977 C 0.23036 0.95637 0.4898 0.0
C978 C 0.26486 0.98069 0.46273 0.0
C979 C 0.22624 0.97525 0.47339 0.0
C980 C 0.27791 1.01 0.42894 0.0
C981 C 0.32141 1.00715 0.44482 0.0
N982 N 0.24299 0.98643 0.46068 0.0
N983 N 0.30474 0.99397 0.45559 0.0
H984 H 0.10804 0.86739 0.56854 0.0
H985 H 0.10592 0.76973 0.67705 0.0
H986 H 0.1692 0.84427 0.60076 0.0
H987 H 0.0492 0.79677 0.63866 0.0
H988 H 0.13004 0.79708 0.65294 0.0
H989 H 0.08741 0.84295 0.59717 0.0
C990 C 0.11727 0.85746 0.58196 0.0
C991 C 0.14064 0.8585 0.58205 0.0
C992 C 0.11228 0.79706 0.64995 0.0
C993 C 0.11641 0.82898 0.61554 0.0
C994 C 0.0984 0.78144 0.6639 0.0
C995 C 0.07513 0.78052 0.66019 0.0
C996 C 0.10298 0.81217 0.63213 0.0
C997 C 0.06682 0.79628 0.64246 0.0
C998 C 0.10533 0.84319 0.59841 0.0
C999 C 0.15128 0.84466 0.60004 0.0
N1000 N 0.08047 0.81104 0.62944 0.0
N1001 N 0.13918 0.83045 0.61581 0.0
H1002 H 0.37848 0.09181 0.62215 0.0
H1003 H 0.2745 0.18151 0.63013 0.0
H1004 H 0.34739 0.10305 0.69101 0.0
H1005 H 0.30782 0.16014 0.56532 0.0
H1006 H 0.3002 0.1562 0.65413 0.0
H1007 H 0.35281 0.11874 0.60325 0.0
C1008 C 0.3663 0.09988 0.63363 0.0
C1009 C 0.36573 0.09448 0.6587 0.0
C1010 C 0.30194 0.15719 0.63466 0.0
C1011 C 0.33488 0.12685 0.636 0.0
C1012 C 0.28726 0.17195 0.62083 0.0
C1013 C 0.2886 0.17349 0.5952 0.0
C1014 C 0.31843 0.14374 0.62304 0.0
C1015 C 0.30561 0.15995 0.58476 0.0
C1016 C 0.35134 0.11557 0.62252 0.0
C1017 C 0.34894 0.10622 0.67177 0.0
N1018 N 0.31941 0.14609 0.59841 0.0
N1019 N 0.33439 0.12164 0.66039 0.0
H1020 H 0.93796 0.22171 0.63475 0.0
H1021 H 1.00667 0.34453 0.66069 0.0
H1022 H 0.94551 0.27546 0.5799 0.0
H1023 H 1.02284 0.27879 0.69586 0.0
H1024 H 0.97887 0.32262 0.63539 0.0
H1025 H 0.96344 0.24497 0.66147 0.0
C1026 C 0.94465 0.23855 0.6284 0.0
C1027 C 0.93933 0.24647 0.60485 0.0
C1028 C 0.98831 0.31303 0.64887 0.0
C1029 C 0.96863 0.27376 0.63586 0.0
C1030 C 1.00409 0.32565 0.66359 0.0
C1031 C 1.01717 0.31375 0.68092 0.0
C1032 C 0.98499 0.28824 0.65167 0.0
C1033 C 1.01319 0.28898 0.68306 0.0
C1034 C 0.95939 0.25183 0.64367 0.0
C1035 C 0.94895 0.26849 0.59781 0.0
N1036 N 0.99757 0.27727 0.66894 0.0
N1037 N 0.96284 0.28129 0.61312 0.0
H1038 H 0.76534 0.95884 0.64406 0.0
H1039 H 0.88575 0.96774 0.57761 0.0
H1040 H 0.80562 1.02207 0.63444 0.0
H1041 H 0.8496 0.90096 0.57668 0.0
H1042 H 0.85588 0.98564 0.59962 0.0
H1043 H 0.79399 0.93594 0.62216 0.0
C1044 C 0.7801 0.96807 0.63778 0.0
C1045 C 0.78243 0.993 0.6417 0.0
C1046 C 0.85413 0.96705 0.59478 0.0
C1047 C 0.81604 0.96625 0.61574 0.0
C1048 C 0.87158 0.95648 0.5819 0.0
C1049 C 0.8711 0.93225 0.57465 0.0
C1050 C 0.83499 0.95388 0.60138 0.0
C1051 C 0.85138 0.91957 0.58137 0.0
C1052 C 0.79659 0.95484 0.62493 0.0
C1053 C 0.80231 1.00321 0.6323 0.0
N1054 N 0.83446 0.93036 0.59421 0.0
N1055 N 0.81776 0.99015 0.62021 0.0
H1056 H 0.50092 0.14321 0.24326 0.0
H1057 H 0.41602 0.15139 0.35465 0.0
H1058 H 0.48755 0.20972 0.27837 0.0
H1059 H 0.421 0.08874 0.31053 0.0
H1060 H 0.44088 0.17288 0.32707 0.0
H1061 H 0.4723 0.12371 0.26743 0.0
C1062 C 0.4921 0.15398 0.25606 0.0
C1063 C 0.49735 0.17861 0.25838 0.0
C1064 C 0.43638 0.15457 0.32305 0.0
C1065 C 0.46339 0.15535 0.28708 0.0
C1066 C 0.42181 0.14216 0.33878 0.0
C1067 C 0.41568 0.11794 0.33518 0.0
C1068 C 0.44579 0.14295 0.3032 0.0
C1069 C 0.42459 0.1073 0.31429 0.0
C1070 C 0.47544 0.14257 0.26996 0.0
C1071 C 0.48456 0.1909 0.27553 0.0
N1072 N 0.4392 0.11965 0.29951 0.0
N1073 N 0.46854 0.17923 0.28914 0.0
H1074 H 0.04549 0.48737 0.35671 0.0
H1075 H 0.9379 0.48412 0.26604 0.0
H1076 H 1.01239 0.42074 0.34034 0.0
H1077 H 0.97666 0.54619 0.28656 0.0
H1078 H 0.96167 0.46002 0.29348 0.0
H1079 H 1.01788 0.50802 0.33262 0.0
C1080 C 1.03215 0.47693 0.3484 0.0
C1081 C 1.03156 0.452 0.35129 0.0
C1082 C 0.96483 0.47896 0.29206 0.0
C1083 C 0.99904 0.4763 0.32205 0.0
C1084 C 0.95106 0.49287 0.27637 0.0
C1085 C 0.95487 0.51765 0.27354 0.0
C1086 C 0.98268 0.48971 0.30535 0.0
C1087 C 0.97268 0.52738 0.28759 0.0
C1088 C 1.01624 0.4889 0.3343 0.0
C1089 C 1.01362 0.43992 0.33937 0.0
N1090 N 0.98554 0.51368 0.30243 0.0
N1091 N 0.99834 0.45205 0.32529 0.0
H1092 H 0.69592 0.96413 0.34646 0.0
H1093 H 0.57245 0.93932 0.29092 0.0
H1094 H 0.63655 0.99862 0.36922 0.0
H1095 H 0.62515 0.89163 0.27481 0.0
H1096 H 0.5972 0.96127 0.31845 0.0
H1097 H 0.67271 0.93842 0.31911 0.0
C1098 C 0.67817 0.96651 0.34578 0.0
C1099 C 0.66854 0.98394 0.36064 0.0
C1100 C 0.60354 0.9459 0.3092 0.0
C1101 C 0.64151 0.95417 0.32892 0.0
C1102 C 0.58918 0.93308 0.29338 0.0
C1103 C 0.59621 0.91302 0.28042 0.0
C1104 C 0.62582 0.93937 0.31232 0.0
C1105 C 0.61854 0.90653 0.28456 0.0
C1106 C 0.66482 0.95163 0.33015 0.0
C1107 C 0.6452 0.98566 0.35859 0.0
N1108 N 0.63245 0.91966 0.29984 0.0
N1109 N 0.63286 0.97132 0.34331 0.0
H1110 H 0.13278 0.6548 0.32664 0.0
H1111 H 0.13407 0.54624 0.22788 0.0
H1112 H 0.07808 0.60707 0.30947 0.0
H1113 H 0.19364 0.58689 0.24332 0.0
H1114 H 0.11468 0.5689 0.25867 0.0
H1115 H 0.15603 0.63195 0.29808 0.0
C1116 C 0.12548 0.63968 0.31715 0.0
C1117 C 0.10289 0.6334 0.3211 0.0
C1118 C 0.13206 0.57294 0.25574 0.0
C1119 C 0.13 0.60659 0.28759 0.0
C1120 C 0.14333 0.55972 0.23795 0.0
C1121 C 0.16594 0.56392 0.23267 0.0
C1122 C 0.14293 0.59143 0.26892 0.0
C1123 C 0.17648 0.58221 0.24674 0.0
C1124 C 0.13892 0.62648 0.30064 0.0
C1125 C 0.09507 0.61326 0.30764 0.0
N1126 N 0.16501 0.59517 0.26384 0.0
N1127 N 0.10825 0.60106 0.29197 0.0
H1128 H 0.55874 0.95485 0.81409 0.0
H1129 H 0.43333 0.99421 0.77841 0.0
H1130 H 0.50386 0.93013 0.85707 0.0
H1131 H 0.49336 1.0182 0.74394 0.0
H1132 H 0.456 0.96847 0.80536 0.0
H1133 H 0.53316 0.97499 0.78715 0.0
C1134 C 0.54119 0.95327 0.81788 0.0
C1135 C 0.53397 0.94021 0.83831 0.0
C1136 C 0.46418 0.97922 0.79174 0.0
C1137 C 0.50338 0.96459 0.80647 0.0
C1138 C 0.4511 0.99389 0.77605 0.0
C1139 C 0.46109 1.00875 0.75833 0.0
C1140 C 0.48763 0.97903 0.78986 0.0
C1141 C 0.48447 1.00742 0.75702 0.0
C1142 C 0.52638 0.9651 0.80226 0.0
C1143 C 0.51063 0.93945 0.84161 0.0
N1144 N 0.49655 0.99321 0.77221 0.0
N1145 N 0.49637 0.95147 0.82612 0.0
H1146 H 0.12332 0.39114 0.78609 0.0
H1147 H 0.12699 0.51639 0.85872 0.0
H1148 H 0.08295 0.45014 0.76639 0.0
H1149 H 0.1846 0.47265 0.85617 0.0
H1150 H 0.10797 0.48936 0.82995 0.0
H1151 H 0.14267 0.41675 0.81658 0.0
C1152 C 0.11792 0.4092 0.78856 0.0
C1153 C 0.10067 0.41796 0.77367 0.0
C1154 C 0.12477 0.48554 0.83562 0.0
C1155 C 0.12341 0.44803 0.80886 0.0
C1156 C 0.13578 0.5011 0.85222 0.0
C1157 C 0.15777 0.49728 0.8602 0.0
C1158 C 0.13526 0.46512 0.8269 0.0
C1159 C 0.16784 0.47679 0.85067 0.0
C1160 C 0.1293 0.42402 0.80584 0.0
C1161 C 0.09544 0.44204 0.77749 0.0
N1162 N 0.15657 0.46157 0.83492 0.0
N1163 N 0.10642 0.45589 0.79453 0.0
H1164 H 0.64826 0.08349 0.71179 0.0
H1165 H 0.63574 0.13823 0.84759 0.0
H1166 H 0.6984 0.06884 0.7657 0.0
H1167 H 0.58463 0.13433 0.79261 0.0
H1168 H 0.66083 0.11704 0.81959 0.0
H1169 H 0.62767 0.10513 0.7416 0.0
C1170 C 0.65529 0.0847 0.7299 0.0
C1171 C 0.67569 0.07368 0.73542 0.0
C1172 C 0.64418 0.121 0.81358 0.0
C1173 C 0.65089 0.09996 0.77132 0.0
C1174 C 0.62976 0.13349 0.82961 0.0
C1175 C 0.60762 0.13878 0.82282 0.0
C1176 C 0.63678 0.11368 0.79012 0.0
C1177 C 0.60129 0.13117 0.79916 0.0
C1178 C 0.64316 0.09736 0.74726 0.0
C1179 C 0.683 0.07669 0.75991 0.0
N1180 N 0.61547 0.11945 0.78414 0.0
N1181 N 0.67079 0.0894 0.77667 0.0
H1182 H 0.99704 0.70514 0.78162 0.0
H1183 H 0.91473 0.5918 0.80807 0.0
H1184 H 0.99937 0.64074 0.73964 0.0
H1185 H 0.93138 0.64555 0.86119 0.0
H1186 H 0.94119 0.61135 0.77984 0.0
H1187 H 0.96902 0.68593 0.80778 0.0
C1188 C 0.99166 0.68707 0.77768 0.0
C1189 C 1.00103 0.67479 0.75812 0.0
C1190 C 0.9389 0.61896 0.79764 0.0
C1191 C 0.96808 0.65235 0.78833 0.0
C1192 C 0.92357 0.60782 0.81378 0.0
C1193 C 0.92052 0.6168 0.8374 0.0
C1194 C 0.95106 0.63973 0.80469 0.0
C1195 C 0.93299 0.63764 0.84343 0.0
C1196 C 0.97557 0.67598 0.79278 0.0
C1197 C 0.99301 0.65116 0.7544 0.0
N1198 N 0.94734 0.64823 0.82743 0.0
N1199 N 0.97717 0.64093 0.76906 0.0
H1200 H 0.25128 0.45681 0.13411 0.0
H1201 H 0.37494 0.45674 0.07649 0.0
H1202 H 0.29559 0.51736 0.12821 0.0
H1203 H 0.33123 0.39638 0.06431 0.0
H1204 H 0.34589 0.47654 0.09799 0.0
H1205 H 0.27902 0.43252 0.11254 0.0
C1206 C 0.26685 0.46506 0.12882 0.0
C1207 C 0.27071 0.48961 0.13363 0.0
C1208 C 0.34228 0.45902 0.09064 0.0
C1209 C 0.30307 0.4614 0.10813 0.0
C1210 C 0.35912 0.4475 0.07782 0.0
C1211 C 0.35611 0.42462 0.06738 0.0
C1212 C 0.32138 0.44803 0.09413 0.0
C1213 C 0.33485 0.41397 0.07141 0.0
C1214 C 0.28274 0.4511 0.11612 0.0
C1215 C 0.29136 0.49877 0.12539 0.0
N1216 N 0.31855 0.42562 0.08429 0.0
N1217 N 0.30631 0.48498 0.11347 0.0
H1218 H 0.34305 0.67 0.99721 0.0
H1219 H 0.24065 0.57415 0.99193 0.0
H1220 H 0.30618 0.64371 0.05829 0.0
H1221 H 0.27179 0.59779 0.92622 0.0
H1222 H 0.26375 0.6023 1.01502 0.0
H1223 H 0.31727 0.6471 0.96992 0.0
C1224 C 0.32941 0.65993 1.00496 0.0
C1225 C 0.32702 0.65914 0.03042 0.0
C1226 C 0.26555 0.60177 0.99553 0.0
C1227 C 0.29735 0.63232 0.99902 0.0
C1228 C 0.25207 0.58564 0.98217 0.0
C1229 C 0.25369 0.58357 0.95681 0.0
C1230 C 0.28157 0.61622 0.98391 0.0
C1231 C 0.26938 0.59893 0.94559 0.0
C1232 C 0.31472 0.6466 0.9893 0.0
C1233 C 0.30905 0.64513 0.039 0.0
N1234 N 0.28274 0.61434 0.95913 0.0
N1235 N 0.29529 0.63253 1.02363 0.0
H1236 H 0.52204 0.21341 0.96557 0.0
H1237 H 0.44735 0.3323 0.95789 0.0
H1238 H 0.52157 0.25423 0.89954 0.0
H1239 H 0.46503 0.295 1.02312 0.0
H1240 H 0.4703 0.30417 0.93447 0.0
H1241 H 0.49834 0.24222 0.98425 0.0
C1242 C 0.51704 0.22838 0.95464 0.0
C1243 C 0.5245 0.23062 0.93042 0.0
C1244 C 0.46903 0.30203 0.9539 0.0
C1245 C 0.49577 0.26521 0.95289 0.0
C1246 C 0.45556 0.3181 0.96741 0.0
C1247 C 0.45358 0.31637 0.99299 0.0
C1248 C 0.48071 0.28357 0.96572 0.0
C1249 C 0.46551 0.29751 1.00368 0.0
C1250 C 0.50323 0.24518 0.96566 0.0
C1251 C 0.51674 0.25116 0.91812 0.0
N1252 N 0.47809 0.28229 0.99031 0.0
N1253 N 0.50295 0.26734 0.92932 0.0
H1254 H 0.82592 0.50271 0.9138 0.0
H1255 H 0.73483 0.49956 1.02126 0.0
H1256 H 0.80182 0.5631 0.95277 0.0
H1257 H 0.75441 0.43447 0.98749 0.0
H1258 H 0.75815 0.52197 0.99337 0.0
H1259 H 0.79981 0.47681 0.93708 0.0
C1260 C 0.81511 0.51069 0.92689 0.0
C1261 C 0.81646 0.53552 0.93098 0.0
C1262 C 0.75736 0.50281 0.99161 0.0
C1263 C 0.78625 0.5056 0.95814 0.0
C1264 C 0.74373 0.48985 1.00762 0.0
C1265 C 0.74201 0.46484 1.00687 0.0
C1266 C 0.77023 0.49112 0.97428 0.0
C1267 C 0.75458 0.45366 0.9887 0.0
C1268 C 0.80019 0.49578 0.94037 0.0
C1269 C 0.80189 0.5443 0.94865 0.0
N1270 N 0.76816 0.46676 0.97338 0.0
N1271 N 0.78779 0.52965 0.96123 0.0
H1272 H 0.70002 0.77426 1.01412 0.0
H1273 H 0.59316 0.82067 0.93493 0.0
H1274 H 0.64018 0.73217 1.00467 0.0
H1275 H 0.64893 0.86538 0.95569 0.0
H1276 H 0.61081 0.78716 0.95664 0.0
H1277 H 0.68286 0.80623 0.98999 0.0
C1278 C 0.68338 0.77146 1.00696 0.0
C1279 C 0.67189 0.74985 1.01193 0.0
C1280 C 0.6193 0.80428 0.95631 0.0
C1281 C 0.65158 0.78736 0.98339 0.0
C1282 C 0.60916 0.82359 0.94362 0.0
C1283 C 0.61918 0.84657 0.94307 0.0
C1284 C 0.64004 0.80736 0.96859 0.0
C1285 C 0.64011 0.84844 0.95525 0.0
C1286 C 0.67343 0.78997 0.99306 0.0
C1287 C 0.65009 0.74813 1.00176 0.0
N1288 N 0.64955 0.82958 0.96716 0.0
N1289 N 0.64091 0.7662 0.98825 0.0
H1290 H 0.87615 0.60461 0.13729 0.0
H1291 H 0.75042 0.65279 0.12651 0.0
H1292 H 0.82919 0.58576 0.19264 0.0
H1293 H 0.79934 0.65457 0.07037 0.0
H1294 H 0.77751 0.63223 0.15332 0.0
H1295 H 0.84775 0.62594 0.11576 0.0
C1296 C 0.85978 0.60465 0.14511 0.0
C1297 C 0.85559 0.59244 0.16706 0.0
C1298 C 0.78236 0.63732 0.1352 0.0
C1299 C 0.82165 0.61851 0.14154 0.0
C1300 C 0.76687 0.64941 0.11985 0.0
C1301 C 0.77233 0.65599 0.09581 0.0
C1302 C 0.80377 0.6318 0.12675 0.0
C1303 C 0.79398 0.65025 0.08853 0.0
C1304 C 0.84332 0.61723 0.13256 0.0
C1305 C 0.83368 0.5945 0.17589 0.0
N1306 N 0.80849 0.63884 0.10363 0.0
N1307 N 0.81769 0.60708 0.16319 0.0
H1308 H 0.52958 0.82516 0.13652 0.0
H1309 H 0.41549 0.74666 0.13996 0.0
H1310 H 0.49558 0.81313 0.20375 0.0
H1311 H 0.44776 0.76963 0.07467 0.0
H1312 H 0.44354 0.76952 0.164 0.0
H1313 H 0.49978 0.80416 0.11484 0.0
C1314 C 0.51581 0.81822 0.14695 0.0
C1315 C 0.51562 0.82133 0.17241 0.0
C1316 C 0.44453 0.7696 0.14442 0.0
C1317 C 0.48034 0.79622 0.14674 0.0
C1318 C 0.42838 0.75648 0.13054 0.0
C1319 C 0.42914 0.75559 0.10492 0.0
C1320 C 0.46185 0.78232 0.13285 0.0
C1321 C 0.44637 0.76918 0.0942 0.0
C1322 C 0.49856 0.80606 0.1343 0.0
C1323 C 0.49679 0.8116 0.18426 0.0
N1324 N 0.46184 0.78156 0.10801 0.0
N1325 N 0.48018 0.79949 0.17146 0.0
H1326 H 0.5801 0.30925 0.19266 0.0
H1327 H 0.66408 0.34057 0.08171 0.0
H1328 H 0.59337 0.25931 0.13589 0.0
H1329 H 0.63174 0.39394 0.12363 0.0
H1330 H 0.64395 0.30954 0.10513 0.0
H1331 H 0.60429 0.33883 0.17217 0.0
C1332 C 0.58864 0.3041 0.17638 0.0
C1333 C 0.58487 0.28117 0.1666 0.0
C1334 C 0.64142 0.32805 0.1094 0.0
C1335 C 0.61278 0.31573 0.14228 0.0
C1336 C 0.65314 0.34591 0.09604 0.0
C1337 C 0.64997 0.37034 0.10046 0.0
C1338 C 0.62652 0.33429 0.12793 0.0
C1339 C 0.63502 0.3756 0.11929 0.0
C1340 C 0.60231 0.32125 0.16438 0.0
C1341 C 0.59594 0.27639 0.14464 0.0
N1342 N 0.62416 0.35804 0.13214 0.0
N1343 N 0.60924 0.2932 0.13349 0.0
H1344 H 0.99007 0.79979 0.70422 0.0
H1345 H 0.91598 0.80766 0.58483 0.0
H1346 H 0.96434 0.73875 0.66494 0.0
H1347 H 0.94199 0.86844 0.62435 0.0
H1348 H 0.92648 0.78215 0.61888 0.0
H1349 H 0.96544 0.8251 0.68058 0.0
C1350 C 0.97886 0.79169 0.69098 0.0
C1351 C 0.97946 0.76731 0.68612 0.0
C1352 C 0.92954 0.80112 0.62028 0.0
C1353 C 0.95162 0.796 0.65879 0.0
C1354 C 0.92353 0.81564 0.60087 0.0
C1355 C 0.92855 0.84001 0.60172 0.0
C1356 C 0.94074 0.81116 0.64047 0.0
C1357 C 0.93819 0.8496 0.62289 0.0
C1358 C 0.96486 0.80611 0.67743 0.0
C1359 C 0.96457 0.75759 0.66892 0.0
N1360 N 0.94427 0.8351 0.6413 0.0
N1361 N 0.95151 0.77202 0.65555 0.0
H1362 H 0.35757 0.97372 0.63182 0.0
H1363 H 0.22554 0.9685 0.61384 0.0
H1364 H 0.31488 1.02705 0.66048 0.0
H1365 H 0.27078 0.95074 0.55713 0.0
H1366 H 0.25746 0.97759 0.64082 0.0
H1367 H 0.32479 0.95287 0.61442 0.0
C1368 C 0.34123 0.98049 0.6353 0.0
C1369 C 0.33886 1.00201 0.64776 0.0
C1370 C 0.26032 0.97103 0.62269 0.0
C1371 C 0.30147 0.97837 0.62796 0.0
C1372 C 0.24216 0.96562 0.60741 0.0
C1373 C 0.2456 0.95869 0.58333 0.0
C1374 C 0.28199 0.96897 0.61394 0.0
C1375 C 0.26748 0.95587 0.57564 0.0
C1376 C 0.3226 0.96875 0.62515 0.0
C1377 C 0.31736 1.0104 0.65114 0.0
N1378 N 0.28485 0.96106 0.59086 0.0
N1379 N 0.2995 0.99862 0.64124 0.0
H1380 H 0.12036 0.35548 0.65123 0.0
H1381 H 0.20455 0.24704 0.65496 0.0
H1382 H 0.1234 0.30512 0.70999 0.0
H1383 H 0.20256 0.29869 0.5975 0.0
H1384 H 0.17348 0.26673 0.67446 0.0
H1385 H 0.14917 0.33376 0.63033 0.0
C1386 C 0.12717 0.33987 0.65976 0.0
C1387 C 0.11966 0.33216 0.68245 0.0
C1388 C 0.17971 0.27371 0.65752 0.0
C1389 C 0.15261 0.30717 0.65863 0.0
C1390 C 0.19735 0.26244 0.64641 0.0
C1391 C 0.20573 0.27119 0.62456 0.0
C1392 C 0.17067 0.29404 0.64677 0.0
C1393 C 0.19626 0.29135 0.61426 0.0
C1394 C 0.14358 0.32744 0.6478 0.0
C1395 C 0.12887 0.31172 0.69258 0.0
N1396 N 0.1792 0.30213 0.62546 0.0
N1397 N 0.14492 0.29996 0.68063 0.0
H1398 H 0.88158 0.11835 0.6282 0.0
H1399 H 0.80321 0.05807 0.69821 0.0
H1400 H 0.84217 0.18022 0.64026 0.0
H1401 H 0.76082 0.11326 0.6716 0.0
H1402 H 0.83572 0.08218 0.68656 0.0
H1403 H 0.856 0.09505 0.6534 0.0
C1404 C 0.86788 0.12713 0.63671 0.0
C1405 C 0.8638 0.15111 0.63202 0.0
C1406 C 0.81932 0.08904 0.68339 0.0
C1407 C 0.83461 0.1248 0.66084 0.0
C1408 C 0.8008 0.07546 0.69031 0.0
C1409 C 0.7794 0.08368 0.68556 0.0
C1410 C 0.81624 0.11096 0.6718 0.0
C1411 C 0.77709 0.10624 0.67532 0.0
C1412 C 0.85334 0.11388 0.65121 0.0
C1413 C 0.84578 0.16169 0.64329 0.0
N1414 N 0.79529 0.11906 0.66867 0.0
N1415 N 0.83162 0.14836 0.6568 0.0
H1416 H 0.94897 0.28124 0.48423 0.0
H1417 H 0.07085 0.31543 0.44946 0.0
H1418 H 1.00342 0.23272 0.48622 0.0
H1419 H 1.01611 0.36265 0.43983 0.0
H1420 H 0.04472 0.28203 0.45267 0.0
H1421 H 0.97079 0.30779 0.45837 0.0
C1422 C 0.96531 0.27588 0.47876 0.0
C1423 C 0.97467 0.25509 0.48801 0.0
C1424 C 1.03833 0.29957 0.44931 0.0
C1425 C 0.99978 0.28547 0.45866 0.0
C1426 C 0.05327 0.31863 0.44743 0.0
C1427 C 0.04553 0.34178 0.44486 0.0
C1428 C 1.01546 0.30383 0.44933 0.0
C1429 C 1.02268 0.34502 0.44204 0.0
C1430 C 0.97778 0.29108 0.464 0.0
C1431 C 0.99576 0.24888 0.48004 0.0
N1432 N 1.00836 0.3263 0.44501 0.0
N1433 N 1.00777 0.26424 0.46623 0.0
H1434 H 0.80027 0.99311 0.3957 0.0
H1435 H 0.85369 0.89735 0.48538 0.0
H1436 H 0.76111 0.94521 0.43958 0.0
H1437 H 0.88778 0.96015 0.45917 0.0
H1438 H 0.82113 0.90781 0.46053 0.0
H1439 H 0.8339 0.97395 0.41043 0.0
C1440 C 0.79874 0.97823 0.40805 0.0
C1441 C 0.77795 0.97086 0.41662 0.0
C1442 C 0.83591 0.91904 0.45997 0.0
C1443 C 0.81629 0.94899 0.4337 0.0
C1444 C 0.85449 0.91301 0.47399 0.0
C1445 C 0.87332 0.92804 0.47445 0.0
C1446 C 0.83642 0.94002 0.44611 0.0
C1447 C 0.87348 0.94822 0.45953 0.0
C1448 C 0.81792 0.96738 0.41655 0.0
C1449 C 0.77688 0.95152 0.43266 0.0
N1450 N 0.8553 0.95367 0.44608 0.0
N1451 N 0.79582 0.94137 0.44088 0.0
H1452 H 0.08179 0.7786 0.43507 0.0
H1453 H 0.19006 0.82131 0.4993 0.0
H1454 H 0.13542 0.72993 0.44459 0.0
H1455 H 0.1521 0.86847 0.45421 0.0
H1456 H 0.17184 0.78724 0.47886 0.0
H1457 H 0.10792 0.81189 0.44128 0.0
C1458 C 0.0992 0.77501 0.43799 0.0
C1459 C 0.10655 0.75163 0.43935 0.0
C1460 C 0.16795 0.80507 0.47306 0.0
C1461 C 0.13637 0.78943 0.44721 0.0
C1462 C 0.17834 0.82447 0.48469 0.0
C1463 C 0.17232 0.84766 0.47861 0.0
C1464 C 0.15122 0.80905 0.45568 0.0
C1465 C 0.15702 0.85084 0.45961 0.0
C1466 C 0.11411 0.79396 0.44149 0.0
C1467 C 0.12921 0.7478 0.44327 0.0
N1468 N 0.14664 0.83175 0.44917 0.0
N1469 N 0.14331 0.76655 0.44766 0.0
H1470 H 0.3112 0.21306 0.51438 0.0
H1471 H 0.31355 0.13027 0.39637 0.0
H1472 H 0.25405 0.1951 0.46989 0.0
H1473 H 0.36866 0.13785 0.44647 0.0
H1474 H 0.2938 0.16035 0.41901 0.0
H1475 H 0.33468 0.19208 0.48561 0.0
C1476 C 0.3037 0.20517 0.49827 0.0
C1477 C 0.2807 0.20563 0.49449 0.0
C1478 C 0.3103 0.15564 0.42497 0.0
C1479 C 0.30724 0.18155 0.46178 0.0
C1480 C 0.32158 0.13849 0.41202 0.0
C1481 C 0.34264 0.13145 0.41974 0.0
C1482 C 0.3201 0.16578 0.44588 0.0
C1483 C 0.35236 0.14272 0.44004 0.0
C1484 C 0.31705 0.19307 0.48197 0.0
C1485 C 0.27173 0.195 0.4735 0.0
N1486 N 0.34092 0.1592 0.45258 0.0
N1487 N 0.28498 0.18325 0.45804 0.0
H1488 H 0.64189 0.95399 0.87532 0.0
H1489 H 0.66992 0.96067 0.73439 0.0
H1490 H 0.62417 0.89873 0.82401 0.0
H1491 H 0.65994 1.02158 0.78018 0.0
H1492 H 0.66613 0.93479 0.77002 0.0
H1493 H 0.66183 0.97527 0.8433 0.0
C1494 C 0.64273 0.94603 0.85747 0.0
C1495 C 0.63113 0.92482 0.85209 0.0
C1496 C 0.66526 0.95387 0.77227 0.0
C1497 C 0.65374 0.94898 0.81558 0.0
C1498 C 0.6675 0.9686 0.75203 0.0
C1499 C 0.66485 0.99318 0.75442 0.0
C1500 C 0.66073 0.96392 0.79494 0.0
C1501 C 0.6617 1.00264 0.77759 0.0
C1502 C 0.654 0.95821 0.83923 0.0
C1503 C 0.63272 0.91522 0.82874 0.0
N1504 N 0.65955 0.98797 0.79696 0.0
N1505 N 0.64358 0.92755 0.81118 0.0
H1506 H 0.12382 0.67397 0.74977 0.0
H1507 H 0.16464 0.62584 0.87895 0.0
H1508 H 0.09058 0.68989 0.81645 0.0
H1509 H 0.16852 0.58508 0.813 0.0
H1510 H 0.1481 0.65838 0.8558 0.0
H1511 H 0.15069 0.65062 0.77276 0.0
C1512 C 0.12258 0.67328 0.76933 0.0
C1513 C 0.10482 0.6839 0.7812 0.0
C1514 C 0.15313 0.64254 0.84635 0.0
C1515 C 0.13566 0.65724 0.80757 0.0
C1516 C 0.16279 0.62405 0.85949 0.0
C1517 C 0.16799 0.60268 0.84787 0.0
C1518 C 0.14913 0.63986 0.82135 0.0
C1519 C 0.1648 0.60125 0.82265 0.0
C1520 C 0.13783 0.65975 0.78239 0.0
C1521 C 0.10397 0.682 0.80657 0.0
N1522 N 0.1555 0.61951 0.81025 0.0
N1523 N 0.11907 0.66882 0.8189 0.0
H1524 H 0.52351 0.18626 0.80094 0.0
H1525 H 0.41675 0.10251 0.78631 0.0
H1526 H 0.4875 0.15503 0.86044 0.0
H1527 H 0.45327 0.13189 0.72624 0.0
H1528 H 0.43717 0.12947 0.81371 0.0
H1529 H 0.49311 0.17418 0.7734 0.0
C1530 C 0.50902 0.17722 0.80821 0.0
C1531 C 0.50808 0.17114 0.83277 0.0
C1532 C 0.44045 0.13033 0.79447 0.0
C1533 C 0.47351 0.15725 0.80168 0.0
C1534 C 0.42875 0.11499 0.77887 0.0
C1535 C 0.43374 0.11474 0.75418 0.0
C1536 C 0.45735 0.14522 0.78522 0.0
C1537 C 0.44926 0.13133 0.74531 0.0
C1538 C 0.4917 0.17033 0.79256 0.0
C1539 C 0.48898 0.15963 0.84146 0.0
N1540 N 0.46083 0.14565 0.7609 0.0
N1541 N 0.47255 0.15276 0.82587 0.0
H1542 H 0.97944 0.57687 0.80174 0.0
H1543 H 1.01655 0.4426 0.78269 0.0
H1544 H 0.9661 0.52115 0.85362 0.0
H1545 H 1.0324 0.50053 0.73426 0.0
H1546 H 0.99371 0.46949 0.80634 0.0
H1547 H 0.99475 0.54764 0.77443 0.0
C1548 C 0.97968 0.55844 0.80738 0.0
C1549 C 0.97176 0.55148 0.83013 0.0
C1550 C 1.002 0.4762 0.79037 0.0
C1551 C 0.98934 0.51781 0.79888 0.0
C1552 C 1.01494 0.46084 0.77681 0.0
C1553 C 1.02658 0.46943 0.75664 0.0
C1554 C 1.00069 0.50021 0.78361 0.0
C1555 C 1.02394 0.49322 0.74985 0.0
C1556 C 0.98839 0.54171 0.79173 0.0
C1557 C 0.9722 0.52729 0.8363 0.0
N1558 N 1.01143 0.50778 0.76339 0.0
N1559 N 0.98105 0.51132 0.82083 0.0
H1560 H 0.6232 0.15636 0.24814 0.0
H1561 H 0.66563 0.11007 0.37694 0.0
H1562 H 0.5852 0.16426 0.31327 0.0
H1563 H 0.67259 0.06927 0.31139 0.0
H1564 H 0.64625 0.14057 0.35358 0.0
H1565 H 0.65127 0.13495 0.27154 0.0
C1566 C 0.62106 0.15421 0.26749 0.0
C1567 C 0.6018 0.16206 0.2788 0.0
C1568 C 0.65256 0.12522 0.34428 0.0
C1569 C 0.63392 0.13782 0.30557 0.0
C1570 C 0.66382 0.10793 0.3575 0.0
C1571 C 0.67077 0.08713 0.34602 0.0
C1572 C 0.64873 0.12192 0.31936 0.0
C1573 C 0.66754 0.08507 0.32087 0.0
C1574 C 0.637 0.14185 0.28074 0.0
C1575 C 0.59977 0.15844 0.30386 0.0
N1576 N 0.6567 0.10222 0.30836 0.0
N1577 N 0.61561 0.14654 0.31642 0.0
H1578 H 0.98587 0.67288 0.34604 0.0
H1579 H 0.97173 0.61255 0.21895 0.0
H1580 H 1.03672 0.67904 0.29207 0.0
H1581 H 0.91663 0.62876 0.26479 0.0
H1582 H 0.99516 0.64036 0.24269 0.0
H1583 H 0.95939 0.66031 0.31462 0.0
C1584 C 0.9913 0.67195 0.32742 0.0
C1585 C 1.01341 0.67676 0.32154 0.0
C1586 C 0.9778 0.63826 0.24716 0.0
C1587 C 0.98348 0.66182 0.28556 0.0
C1588 C 0.96446 0.62243 0.23361 0.0
C1589 C 0.9424 0.61814 0.24028 0.0
C1590 C 0.96895 0.64951 0.26754 0.0
C1591 C 0.9337 0.63133 0.25935 0.0
C1592 C 0.97621 0.66483 0.30946 0.0
C1593 C 1.01973 0.67542 0.29721 0.0
N1594 N 0.94709 0.64611 0.27258 0.0
N1595 N 1.00491 0.66754 0.28009 0.0
H1596 H 0.47882 0.9441 0.2477 0.0
H1597 H 0.44351 1.00225 0.37351 0.0
H1598 H 0.50775 0.92438 0.31654 0.0
H1599 H 0.44118 0.03855 0.30473 0.0
H1600 H 0.45696 0.96674 0.3528 0.0
H1601 H 0.45463 0.97141 0.26879 0.0
C1602 C 0.47973 0.94502 0.2673 0.0
C1603 C 0.49558 0.93212 0.28034 0.0
C1604 C 0.4531 0.98237 0.34225 0.0
C1605 C 0.4679 0.96342 0.30452 0.0
C1606 C 0.4453 1.00255 0.35399 0.0
C1607 C 0.44141 1.0234 0.3408 0.0
C1608 C 0.45659 0.98296 0.31713 0.0
C1609 C 0.44417 1.02289 0.31559 0.0
C1610 C 0.466 0.96075 0.27928 0.0
C1611 C 0.49595 0.93416 0.30574 0.0
N1612 N 0.45167 1.00305 0.30458 0.0
N1613 N 0.48247 0.9497 0.317 0.0
H1614 H 0.18818 0.4783 0.24599 0.0
H1615 H 0.09733 0.39511 0.31004 0.0
H1616 H 0.12572 0.4564 0.21332 0.0
H1617 H 0.1499 0.43269 0.34853 0.0
H1618 H 0.11365 0.40787 0.27163 0.0
H1619 H 0.18022 0.45219 0.28056 0.0
C1620 C 0.17307 0.46757 0.24582 0.0
C1621 C 0.15741 0.46975 0.22701 0.0
C1622 C 0.12183 0.41297 0.28848 0.0
C1623 C 0.14822 0.44003 0.26631 0.0
C1624 C 0.11258 0.40561 0.31037 0.0
C1625 C 0.12214 0.41318 0.33238 0.0
C1626 C 0.14077 0.42795 0.28871 0.0
C1627 C 0.1419 0.42673 0.33187 0.0
C1628 C 0.16848 0.45279 0.26558 0.0
C1629 C 0.13807 0.45551 0.22768 0.0
N1630 N 0.15044 0.43395 0.31035 0.0
N1631 N 0.13392 0.44144 0.24713 0.0
H1632 H 0.74645 0.68985 0.96392 0.0
H1633 H 0.86501 0.63691 0.95049 0.0
H1634 H 0.79697 0.69804 1.01937 0.0
H1635 H 0.81908 0.64468 0.89064 0.0
H1636 H 0.84284 0.66406 0.97445 0.0
H1637 H 0.77468 0.67841 0.93517 0.0
C1638 C 0.76362 0.68963 0.96987 0.0
C1639 C 0.76947 0.69459 0.99398 0.0
C1640 C 0.83787 0.66024 0.95591 0.0
C1641 C 0.80182 0.68097 0.96147 0.0
C1642 C 0.85051 0.64476 0.94225 0.0
C1643 C 0.84358 0.63833 0.91877 0.0
C1644 C 0.8181 0.66902 0.94601 0.0
C1645 C 0.82479 0.64899 0.90883 0.0
C1646 C 0.77976 0.68313 0.95348 0.0
C1647 C 0.79189 0.69424 1.00086 0.0
N1648 N 0.81248 0.66351 0.92265 0.0
N1649 N 0.80727 0.687 0.98477 0.0
H1650 H 0.72938 0.44437 0.13806 0.0
H1651 H 0.85906 0.4737 0.138 0.0
H1652 H 0.77483 0.41373 0.08765 0.0
H1653 H 0.80979 0.51733 0.17107 0.0
H1654 H 0.83037 0.44323 0.12976 0.0
H1655 H 0.76076 0.46201 0.16045 0.0
C1656 C 0.74603 0.4409 0.13204 0.0
C1657 C 0.74958 0.42796 0.11077 0.0
C1658 C 0.82598 0.45926 0.13929 0.0
C1659 C 0.78547 0.44831 0.13609 0.0
C1660 C 0.84234 0.47661 0.14411 0.0
C1661 C 0.83666 0.49824 0.15485 0.0
C1662 C 0.80393 0.46355 0.14548 0.0
C1663 C 0.81478 0.50106 0.1624 0.0
C1664 C 0.76392 0.45103 0.14478 0.0
C1665 C 0.77144 0.4238 0.10387 0.0
N1666 N 0.79915 0.48403 0.15732 0.0
N1667 N 0.78862 0.43433 0.11627 0.0
H1668 H 0.64093 0.84568 0.19122 0.0
H1669 H 0.67068 0.71744 0.14064 0.0
H1670 H 0.60373 0.78209 0.20945 0.0
H1671 H 0.69497 0.7839 0.11129 0.0
H1672 H 0.65325 0.73927 0.17356 0.0
H1673 H 0.66762 0.82165 0.16999 0.0
C1674 C 0.63856 0.82655 0.19105 0.0
C1675 C 0.61995 0.81586 0.20185 0.0
C1676 C 0.66284 0.749 0.16024 0.0
C1677 C 0.65041 0.78815 0.17721 0.0
C1678 C 0.67304 0.73655 0.14158 0.0
C1679 C 0.68424 0.74892 0.12311 0.0
C1680 C 0.6641 0.77394 0.16054 0.0
C1681 C 0.68643 0.77368 0.12508 0.0
C1682 C 0.65381 0.81283 0.17886 0.0
C1683 C 0.61783 0.791 0.20126 0.0
N1684 N 0.67627 0.78537 0.14328 0.0
N1685 N 0.63274 0.77795 0.18879 0.0
H1686 H 0.35226 0.63523 0.12181 0.0
H1687 H 0.24674 0.60849 0.19195 0.0
H1688 H 0.31563 0.69815 0.13845 0.0
H1689 H 0.25085 0.58307 0.11841 0.0
H1690 H 0.27594 0.63838 0.18329 0.0
H1691 H 0.32001 0.61078 0.13311 0.0
C1692 C 0.33769 0.64386 0.12858 0.0
C1693 C 0.33645 0.66868 0.1292 0.0
C1694 C 0.27003 0.62653 0.16903 0.0
C1695 C 0.29992 0.64097 0.14194 0.0
C1696 C 0.25347 0.60964 0.17385 0.0
C1697 C 0.24651 0.59357 0.15575 0.0
C1698 C 0.28001 0.62653 0.1463 0.0
C1699 C 0.25572 0.5954 0.13268 0.0
C1700 C 0.3193 0.62995 0.13465 0.0
C1701 C 0.31709 0.67902 0.13778 0.0
N1702 N 0.27251 0.61129 0.12873 0.0
N1703 N 0.29939 0.66504 0.14388 0.0
H1704 H 0.46397 0.37198 0.09931 0.0
H1705 H 0.4604 0.25594 0.1787 0.0
H1706 H 0.40641 0.32558 0.10427 0.0
H1707 H 0.50934 0.31161 0.19125 0.0
H1708 H 0.43884 0.2832 0.15404 0.0
H1709 H 0.4799 0.35241 0.13511 0.0
C1710 C 0.45459 0.35793 0.10816 0.0
C1711 C 0.43407 0.35006 0.09872 0.0
C1712 C 0.45406 0.2897 0.16254 0.0
C1713 C 0.45202 0.3277 0.13931 0.0
C1714 C 0.46632 0.27413 0.17663 0.0
C1715 C 0.48661 0.28161 0.18681 0.0
C1716 C 0.46251 0.31271 0.15805 0.0
C1717 C 0.49367 0.30528 0.18366 0.0
C1718 C 0.46362 0.34683 0.12859 0.0
C1719 C 0.42245 0.33192 0.11082 0.0
N1720 N 0.48184 0.31994 0.16907 0.0
N1721 N 0.43172 0.32115 0.13029 0.0
H1722 H 0.24386 0.45376 0.93062 0.0
H1723 H 0.37341 0.45798 0.945 0.0
H1724 H 0.28652 0.504 0.89374 0.0
H1725 H 0.33115 0.4048 0.97817 0.0
H1726 H 0.34302 0.46839 0.9178 0.0
H1727 H 0.27597 0.4296 0.93999 0.0
C1728 C 0.25999 0.45947 0.92415 0.0
C1729 C 0.26274 0.4811 0.91189 0.0
C1730 C 0.34048 0.45408 0.93064 0.0
C1731 C 0.29954 0.4538 0.92277 0.0
C1732 C 0.35785 0.44811 0.94617 0.0
C1733 C 0.35455 0.43097 0.96428 0.0
C1734 C 0.31958 0.44312 0.93359 0.0
C1735 C 0.33426 0.41841 0.9647 0.0
C1736 C 0.27831 0.44566 0.92944 0.0
C1737 C 0.28383 0.48757 0.90357 0.0
N1738 N 0.31732 0.42515 0.94998 0.0
N1739 N 0.30155 0.47419 0.90959 0.0
H1740 H 0.63565 0.37492 0.97881 0.0
H1741 H 0.6316 0.23352 0.96384 0.0
H1742 H 0.654 0.32723 0.03634 0.0
H1743 H 0.57921 0.27838 0.93845 0.0
H1744 H 0.65193 0.26905 0.97895 0.0
H1745 H 0.62722 0.34037 0.9526 0.0
C1746 C 0.63879 0.35721 0.98555 0.0
C1747 C 0.64563 0.3538 1.00964 0.0
C1748 C 0.63631 0.27109 0.96936 0.0
C1749 C 0.63616 0.31452 0.97996 0.0
C1750 C 0.62483 0.25093 0.96058 0.0
C1751 C 0.60381 0.25316 0.94982 0.0
C1752 C 0.62686 0.29356 0.96681 0.0
C1753 C 0.59545 0.27602 0.94656 0.0
C1754 C 0.63379 0.33758 0.97071 0.0
C1755 C 0.64887 0.33051 1.01778 0.0
N1756 N 0.60696 0.29537 0.9551 0.0
N1757 N 0.64403 0.31171 1.003 0.0
H1758 H 0.51559 0.87838 0.95304 0.0
H1759 H 0.48994 0.74394 0.99162 0.0
H1760 H 0.56421 0.82453 0.96539 0.0
H1761 H 0.44352 0.80036 1.00161 0.0
H1762 H 0.51383 0.77125 0.96911 0.0
H1763 H 0.48603 0.84798 0.95863 0.0
C1764 C 0.52 0.86007 0.95617 0.0
C1765 C 0.54227 0.85386 0.95894 0.0
C1766 C 0.49826 0.77759 0.97593 0.0
C1767 C 0.50896 0.81935 0.96517 0.0
C1768 C 0.48461 0.762 0.9888 0.0
C1769 C 0.46498 0.77004 0.99901 0.0
C1770 C 0.49237 0.80148 0.97342 0.0
C1771 C 0.45871 0.79353 0.99435 0.0
C1772 C 0.50321 0.84282 0.95949 0.0
C1773 C 0.54723 0.83003 0.96321 0.0
N1774 N 0.47259 0.8086 0.98224 0.0
N1775 N 0.53074 0.8137 0.96635 0.0
loop_
_geom_bond_atom_site_label_1
_geom_bond_atom_site_label_2
_geom_bond_distance
_geom_bond_site_symmetry_2
_ccdc_geom_bond_type
O0 Tb1 2.506 . S
O0 C14 1.265 . S
Tb1 O0 2.506 . S
Tb1 O6 2.312 . S
Tb1 O10 2.271 . S
Tb1 O12 2.338 . S
Tb1 O19 2.441 . S
C2 O10 1.252 . S
C2 O11 1.253 . S
O3 Tb4 2.271 . S
O3 C13 1.252 . S
Tb4 O3 2.271 . S
Tb4 O7 2.353 . S
Tb4 O11 2.312 . S
Tb4 O15 2.441 . S
Tb4 O16 2.506 . S
C5 O15 1.244 . S
C5 O16 1.265 . S
O6 Tb1 2.312 . S
O6 C13 1.253 . S
O7 Tb4 2.353 . S
O7 C8 1.257 1_455 S
C8 O7 1.257 1_655 S
C8 O9 1.251 . S
O9 C8 1.251 . S
O10 Tb1 2.271 . S
O10 C2 1.252 . S
O11 C2 1.253 . S
O11 Tb4 2.312 . S
O12 Tb1 2.338 . S
O12 C17 1.258 . S
C13 O3 1.252 . S
C13 O6 1.253 . S
C14 O0 1.265 . S
C14 O19 1.244 . S
O15 Tb4 2.441 . S
O15 C5 1.244 . S
O16 Tb4 2.506 . S
O16 C5 1.265 . S
C17 O12 1.258 . S
C17 O18 1.251 1_455 S
O18 C17 1.251 1_655 S
O19 Tb1 2.441 . S
O19 C14 1.244 . S
O20 Tb21 2.506 . S
O20 C34 1.265 . S
Tb21 O20 2.506 . S
Tb21 O26 2.312 . S
Tb21 O30 2.271 . S
Tb21 O32 2.338 1_565 S
Tb21 O39 2.441 . S
C22 O30 1.252 1_545 S
C22 O31 1.253 . S
O23 Tb24 2.271 1_565 S
O23 C33 1.252 . S
Tb24 O23 2.271 1_545 S
Tb24 O27 2.338 . S
Tb24 O31 2.312 . S
Tb24 O35 2.441 1_545 S
Tb24 O36 2.506 . S
C25 O35 1.244 1_545 S
C25 O36 1.265 . S
O26 Tb21 2.312 . S
O26 C33 1.253 . S
O27 Tb24 2.338 . S
O27 C28 1.258 . S
C28 O27 1.258 . S
C28 O29 1.251 . S
O29 C28 1.251 . S
O30 Tb21 2.271 . S
O30 C22 1.252 1_565 S
O31 C22 1.253 . S
O31 Tb24 2.312 . S
O32 Tb21 2.338 1_545 S
O32 C37 1.258 . S
C33 O23 1.252 . S
C33 O26 1.253 . S
C34 O20 1.265 . S
C34 O39 1.244 . S
O35 Tb24 2.441 1_565 S
O35 C25 1.244 1_565 S
O36 Tb24 2.506 . S
O36 C25 1.265 . S
C37 O32 1.258 . S
C37 O38 1.251 . S
O38 C37 1.251 . S
O39 Tb21 2.441 . S
O39 C34 1.244 . S
O40 Tb41 2.506 1_655 S
O40 C54 1.265 . S
Tb41 O40 2.506 1_455 S
Tb41 O46 2.312 . S
Tb41 O50 2.271 . S
Tb41 O52 2.338 . S
Tb41 O59 2.441 1_455 S
C42 O50 1.252 . S
C42 O51 1.253 . S
O43 Tb44 2.271 . S
O43 C53 1.252 . S
Tb44 O43 2.271 . S
Tb44 O47 2.338 . S
Tb44 O51 2.312 . S
Tb44 O55 2.441 . S
Tb44 O56 2.506 . S
C45 O55 1.244 . S
C45 O56 1.265 . S
O46 Tb41 2.312 . S
O46 C53 1.253 . S
O47 Tb44 2.338 . S
O47 C48 1.258 . S
C48 O47 1.258 . S
C48 O49 1.251 . S
O49 C48 1.251 . S
O50 Tb41 2.271 . S
O50 C42 1.252 . S
O51 C42 1.253 . S
O51 Tb44 2.312 . S
O52 Tb41 2.338 . S
O52 C57 1.258 . S
C53 O43 1.252 . S
C53 O46 1.253 . S
C54 O40 1.265 . S
C54 O59 1.244 . S
O55 Tb44 2.441 . S
O55 C45 1.244 . S
O56 Tb44 2.506 . S
O56 C45 1.265 . S
C57 O52 1.258 . S
C57 O58 1.251 . S
O58 C57 1.251 . S
O59 Tb41 2.441 1_655 S
O59 C54 1.244 . S
O60 Tb61 2.506 . S
O60 C74 1.265 . S
Tb61 O60 2.506 . S
Tb61 O66 2.312 . S
Tb61 O70 2.271 . S
Tb61 O72 2.338 . S
Tb61 O79 2.441 . S
C62 O70 1.252 . S
C62 O71 1.253 . S
O63 Tb64 2.271 . S
O63 C73 1.252 . S
Tb64 O63 2.271 . S
Tb64 O67 2.338 1_545 S
Tb64 O71 2.312 . S
Tb64 O75 2.441 . S
Tb64 O76 2.506 . S
C65 O75 1.244 . S
C65 O76 1.265 . S
O66 Tb61 2.312 . S
O66 C73 1.253 . S
O67 Tb64 2.338 1_565 S
O67 C68 1.258 . S
C68 O67 1.258 . S
C68 O69 1.251 . S
O69 C68 1.251 . S
O70 Tb61 2.271 . S
O70 C62 1.252 . S
O71 C62 1.253 . S
O71 Tb64 2.312 . S
O72 Tb61 2.338 . S
O72 C77 1.258 . S
C73 O63 1.252 . S
C73 O66 1.253 . S
C74 O60 1.265 . S
C74 O79 1.244 . S
O75 Tb64 2.441 . S
O75 C65 1.244 . S
O76 Tb64 2.506 . S
O76 C65 1.265 . S
C77 O72 1.258 . S
C77 O78 1.251 . S
O78 C77 1.251 . S
O79 Tb61 2.441 . S
O79 C74 1.244 . S
O80 Tb81 2.506 . S
O80 C94 1.265 . S
Tb81 O80 2.506 . S
Tb81 O86 2.312 . S
Tb81 O90 2.271 1_455 S
Tb81 O92 2.338 . S
Tb81 O99 2.441 1_455 S
C82 O90 1.252 . S
C82 O91 1.253 . S
O83 Tb84 2.271 . S
O83 C93 1.252 1_655 S
Tb84 O83 2.271 . S
Tb84 O87 2.338 1_655 S
Tb84 O91 2.312 . S
Tb84 O95 2.441 . S
Tb84 O96 2.506 . S
C85 O95 1.244 . S
C85 O96 1.265 . S
O86 Tb81 2.312 . S
O86 C93 1.253 . S
O87 Tb84 2.338 1_455 S
O87 C88 1.258 . S
C88 O87 1.258 . S
C88 O89 1.251 . S
O89 C88 1.251 . S
O90 Tb81 2.271 1_655 S
O90 C82 1.252 . S
O91 C82 1.253 . S
O91 Tb84 2.312 . S
O92 Tb81 2.338 . S
O92 C97 1.258 . S
C93 O83 1.252 1_455 S
C93 O86 1.253 . S
C94 O80 1.265 . S
C94 O99 1.244 1_455 S
O95 Tb84 2.441 . S
O95 C85 1.244 . S
O96 Tb84 2.506 . S
O96 C85 1.265 . S
C97 O92 1.258 . S
C97 O98 1.251 . S
O98 C97 1.251 . S
O99 Tb81 2.441 1_655 S
O99 C94 1.244 1_655 S
O100 Tb101 2.506 . S
O100 C114 1.265 . S
Tb101 O100 2.506 . S
Tb101 O106 2.312 . S
Tb101 O110 2.271 . S
Tb101 O112 2.338 . S
Tb101 O119 2.441 . S
C102 O110 1.252 . S
C102 O111 1.253 . S
O103 Tb104 2.271 . S
O103 C113 1.252 . S
Tb104 O103 2.271 . S
Tb104 O107 2.338 1_545 S
Tb104 O111 2.312 . S
Tb104 O115 2.441 . S
Tb104 O116 2.506 . S
C105 O115 1.244 . S
C105 O116 1.265 . S
O106 Tb101 2.312 . S
O106 C113 1.253 . S
O107 Tb104 2.338 1_565 S
O107 C108 1.258 . S
C108 O107 1.258 . S
C108 O109 1.251 . S
O109 C108 1.251 . S
O110 Tb101 2.271 . S
O110 C102 1.252 . S
O111 C102 1.253 . S
O111 Tb104 2.312 . S
O112 Tb101 2.338 . S
O112 C117 1.258 1_545 S
C113 O103 1.252 . S
C113 O106 1.253 . S
C114 O100 1.265 . S
C114 O119 1.244 . S
O115 Tb104 2.441 . S
O115 C105 1.244 . S
O116 Tb104 2.506 . S
O116 C105 1.265 . S
C117 O112 1.258 1_565 S
C117 O118 1.251 . S
O118 C117 1.251 . S
O119 Tb101 2.441 . S
O119 C114 1.244 . S
O120 Tb121 2.506 . S
O120 C134 1.265 . S
Tb121 O120 2.506 . S
Tb121 O126 2.312 . S
Tb121 O130 2.271 . S
Tb121 O132 2.338 . S
Tb121 O139 2.441 . S
C122 O130 1.252 . S
C122 O131 1.253 . S
O123 Tb124 2.271 . S
O123 C133 1.252 . S
Tb124 O123 2.271 . S
Tb124 O127 2.338 1_455 S
Tb124 O131 2.312 . S
Tb124 O135 2.441 . S
Tb124 O136 2.505 1_455 S
C125 O135 1.244 . S
C125 O136 1.260 1_455 S
O126 Tb121 2.312 . S
O126 C133 1.253 . S
O127 Tb124 2.338 1_655 S
O127 C128 1.258 . S
C128 O127 1.258 . S
C128 O129 1.251 . S
O129 C128 1.251 . S
O130 Tb121 2.271 . S
O130 C122 1.252 . S
O131 C122 1.253 . S
O131 Tb124 2.312 . S
O132 Tb121 2.338 . S
O132 C137 1.213 1_455 S
C133 O123 1.252 . S
C133 O126 1.253 . S
C134 O120 1.265 . S
C134 O139 1.244 . S
O135 Tb124 2.441 . S
O135 C125 1.244 . S
O136 Tb124 2.505 1_655 S
O136 C125 1.260 1_655 S
C137 O132 1.213 1_655 S
C137 O138 1.295 . S
O138 C137 1.295 . S
O139 Tb121 2.441 . S
O139 C134 1.244 . S
O140 Tb141 2.506 . S
O140 C154 1.265 . S
Tb141 O140 2.506 . S
Tb141 O146 2.312 . S
Tb141 O150 2.271 . S
Tb141 O152 2.338 1_545 S
Tb141 O159 2.441 . S
C142 O150 1.252 1_565 S
C142 O151 1.253 . S
O143 Tb144 2.271 1_545 S
O143 C153 1.252 . S
Tb144 O143 2.271 1_565 S
Tb144 O147 2.338 . S
Tb144 O151 2.312 . S
Tb144 O155 2.441 1_565 S
Tb144 O156 2.506 . S
C145 O155 1.244 1_565 S
C145 O156 1.265 . S
O146 Tb141 2.312 . S
O146 C153 1.253 . S
O147 Tb144 2.338 . S
O147 C148 1.258 . S
C148 O147 1.258 . S
C148 O149 1.251 . S
O149 C148 1.251 . S
O150 Tb141 2.271 . S
O150 C142 1.252 1_545 S
O151 C142 1.253 . S
O151 Tb144 2.312 . S
O152 Tb141 2.338 1_565 S
O152 C157 1.258 . S
C153 O143 1.252 . S
C153 O146 1.253 . S
C154 O140 1.265 . S
C154 O159 1.244 . S
O155 Tb144 2.441 1_545 S
O155 C145 1.244 1_545 S
O156 Tb144 2.506 . S
O156 C145 1.265 . S
C157 O152 1.258 . S
C157 O158 1.251 . S
O158 C157 1.251 . S
O159 Tb141 2.441 . S
O159 C154 1.244 . S
O160 Tb161 2.506 . S
O160 C174 1.265 . S
Tb161 O160 2.506 . S
Tb161 O166 2.312 . S
Tb161 O170 2.271 . S
Tb161 O172 2.338 1_554 S
Tb161 O179 2.441 . S
C162 O170 1.252 1_556 S
C162 O171 1.253 . S
O163 Tb164 2.271 1_554 S
O163 C173 1.252 . S
Tb164 O163 2.271 1_556 S
Tb164 O167 2.338 . S
Tb164 O171 2.312 . S
Tb164 O175 2.441 1_556 S
Tb164 O176 2.506 . S
C165 O175 1.244 1_556 S
C165 O176 1.265 . S
O166 Tb161 2.312 . S
O166 C173 1.253 . S
O167 Tb164 2.338 . S
O167 C168 1.258 . S
C168 O167 1.258 . S
C168 O169 1.251 . S
O169 C168 1.251 . S
O170 Tb161 2.271 . S
O170 C162 1.252 1_554 S
O171 C162 1.253 . S
O171 Tb164 2.312 . S
O172 Tb161 2.338 1_556 S
O172 C177 1.258 . S
C173 O163 1.252 . S
C173 O166 1.253 . S
C174 O160 1.265 . S
C174 O179 1.244 . S
O175 Tb164 2.441 1_554 S
O175 C165 1.244 1_554 S
O176 Tb164 2.506 . S
O176 C165 1.265 . S
C177 O172 1.258 . S
C177 O178 1.251 . S
O178 C177 1.251 . S
O179 Tb161 2.441 . S
O179 C174 1.244 . S
O180 Tb181 2.506 . S
O180 C194 1.265 . S
Tb181 O180 2.506 . S
Tb181 O186 2.312 . S
Tb181 O190 2.271 . S
Tb181 O192 2.338 . S
Tb181 O199 2.441 . S
C182 O190 1.252 . S
C182 O191 1.253 . S
O183 Tb184 2.271 . S
O183 C193 1.252 . S
Tb184 O183 2.271 . S
Tb184 O187 2.338 . S
Tb184 O191 2.312 . S
Tb184 O195 2.441 . S
Tb184 O196 2.506 . S
C185 O195 1.244 . S
C185 O196 1.265 . S
O186 Tb181 2.312 . S
O186 C193 1.253 . S
O187 Tb184 2.338 . S
O187 C188 1.258 . S
C188 O187 1.258 . S
C188 O189 1.250 1_554 S
O189 C188 1.250 1_556 S
O190 Tb181 2.271 . S
O190 C182 1.252 . S
O191 C182 1.253 . S
O191 Tb184 2.312 . S
O192 Tb181 2.338 . S
O192 C197 1.258 . S
C193 O183 1.252 . S
C193 O186 1.253 . S
C194 O180 1.265 . S
C194 O199 1.244 . S
O195 Tb184 2.441 . S
O195 C185 1.244 . S
O196 Tb184 2.506 . S
O196 C185 1.265 . S
C197 O192 1.258 . S
C197 O198 1.251 1_554 S
O198 C197 1.251 1_556 S
O199 Tb181 2.441 . S
O199 C194 1.244 . S
O200 Tb201 2.506 . S
O200 C214 1.265 . S
Tb201 O200 2.506 . S
Tb201 O206 2.312 . S
Tb201 O210 2.271 . S
Tb201 O212 2.338 . S
Tb201 O219 2.441 . S
C202 O210 1.252 . S
C202 O211 1.253 . S
O203 Tb204 2.271 . S
O203 C213 1.252 . S
Tb204 O203 2.271 . S
Tb204 O207 2.338 1_554 S
Tb204 O211 2.312 . S
Tb204 O215 2.441 . S
Tb204 O216 2.504 1_554 S
C205 O215 1.244 . S
C205 O216 1.242 1_554 S
O206 Tb201 2.312 . S
O206 C213 1.253 . S
O207 Tb204 2.338 1_556 S
O207 C208 1.258 . S
C208 O207 1.258 . S
C208 O209 1.251 . S
O209 C208 1.251 . S
O210 Tb201 2.271 . S
O210 C202 1.252 . S
O211 C202 1.253 . S
O211 Tb204 2.312 . S
O212 Tb201 2.338 . S
O212 C217 1.258 1_554 S
C213 O203 1.252 . S
C213 O206 1.253 . S
C214 O200 1.265 . S
C214 O219 1.244 . S
O215 Tb204 2.441 . S
O215 C205 1.244 . S
O216 Tb204 2.504 1_556 S
O216 C205 1.242 1_556 S
C217 O212 1.258 1_556 S
C217 O218 1.251 . S
O218 C217 1.251 . S
O219 Tb201 2.441 . S
O219 C214 1.244 . S
O220 Tb221 2.506 . S
O220 C234 1.265 . S
Tb221 O220 2.506 . S
Tb221 O226 2.312 . S
Tb221 O230 2.271 . S
Tb221 O232 2.338 . S
Tb221 O239 2.441 . S
C222 O230 1.252 . S
C222 O231 1.253 1_554 S
O223 Tb224 2.272 . S
O223 C233 1.252 . S
Tb224 O223 2.272 . S
Tb224 O227 2.340 . S
Tb224 O231 2.312 1_554 S
Tb224 O235 2.439 1_554 S
Tb224 O236 2.504 1_554 S
C225 O235 1.244 . S
C225 O236 1.265 . S
O226 Tb221 2.312 . S
O226 C233 1.253 . S
O227 Tb224 2.340 . S
O227 C228 1.258 . S
C228 O227 1.258 . S
C228 O229 1.251 . S
O229 C228 1.251 . S
O230 Tb221 2.271 . S
O230 C222 1.252 . S
O231 C222 1.253 1_556 S
O231 Tb224 2.312 1_556 S
O232 Tb221 2.338 . S
O232 C237 1.258 . S
C233 O223 1.252 . S
C233 O226 1.253 . S
C234 O220 1.265 . S
C234 O239 1.244 . S
O235 Tb224 2.439 1_556 S
O235 C225 1.244 . S
O236 Tb224 2.504 1_556 S
O236 C225 1.265 . S
C237 O232 1.258 . S
C237 O238 1.251 . S
O238 C237 1.251 . S
O239 Tb221 2.441 . S
O239 C234 1.244 . S
O240 Tb241 2.506 . S
O240 C254 1.265 . S
Tb241 O240 2.506 . S
Tb241 O246 2.312 . S
Tb241 O250 2.271 . S
Tb241 O252 2.338 . S
Tb241 O259 2.441 . S
C242 O250 1.252 . S
C242 O251 1.253 . S
O243 Tb244 2.271 . S
O243 C253 1.252 . S
Tb244 O243 2.271 . S
Tb244 O247 2.338 . S
Tb244 O251 2.312 . S
Tb244 O255 2.441 . S
Tb244 O256 2.506 . S
C245 O255 1.244 . S
C245 O256 1.265 . S
O246 Tb241 2.312 . S
O246 C253 1.253 . S
O247 Tb244 2.338 . S
O247 C248 1.258 . S
C248 O247 1.258 . S
C248 O249 1.251 . S
O249 C248 1.251 . S
O250 Tb241 2.271 . S
O250 C242 1.252 . S
O251 C242 1.253 . S
O251 Tb244 2.312 . S
O252 Tb241 2.338 . S
O252 C257 1.258 . S
C253 O243 1.252 . S
C253 O246 1.253 . S
C254 O240 1.265 . S
C254 O259 1.244 . S
O255 Tb244 2.441 . S
O255 C245 1.244 . S
O256 Tb244 2.506 . S
O256 C245 1.265 . S
C257 O252 1.258 . S
C257 O258 1.251 . S
O258 C257 1.251 . S
O259 Tb241 2.441 . S
O259 C254 1.244 . S
O260 Tb261 2.506 . S
O260 C274 1.265 . S
Tb261 O260 2.506 . S
Tb261 O266 2.312 . S
Tb261 O270 2.271 . S
Tb261 O272 2.338 . S
Tb261 O279 2.441 . S
C262 O270 1.252 . S
C262 O271 1.253 . S
O263 Tb264 2.271 . S
O263 C273 1.252 . S
Tb264 O263 2.271 . S
Tb264 O267 2.338 . S
Tb264 O271 2.312 . S
Tb264 O275 2.441 . S
Tb264 O276 2.506 . S
C265 O275 1.244 . S
C265 O276 1.265 . S
O266 Tb261 2.312 . S
O266 C273 1.253 . S
O267 Tb264 2.338 . S
O267 C268 1.258 . S
C268 O267 1.258 . S
C268 O269 1.251 . S
O269 C268 1.251 . S
O270 Tb261 2.271 . S
O270 C262 1.252 . S
O271 C262 1.253 . S
O271 Tb264 2.312 . S
O272 Tb261 2.338 . S
O272 C277 1.258 . S
C273 O263 1.252 . S
C273 O266 1.253 . S
C274 O260 1.265 . S
C274 O279 1.244 . S
O275 Tb264 2.441 . S
O275 C265 1.244 . S
O276 Tb264 2.506 . S
O276 C265 1.265 . S
C277 O272 1.258 . S
C277 O278 1.251 . S
O278 C277 1.251 . S
O279 Tb261 2.441 . S
O279 C274 1.244 . S
O280 Tb281 2.506 . S
O280 C294 1.265 . S
Tb281 O280 2.506 . S
Tb281 O286 2.312 . S
Tb281 O290 2.271 . S
Tb281 O292 2.338 . S
Tb281 O299 2.441 . S
C282 O290 1.252 . S
C282 O291 1.253 . S
O283 Tb284 2.271 . S
O283 C293 1.252 . S
Tb284 O283 2.271 . S
Tb284 O287 2.338 . S
Tb284 O291 2.312 . S
Tb284 O295 2.441 . S
Tb284 O296 2.506 . S
C285 O295 1.244 . S
C285 O296 1.265 . S
O286 Tb281 2.312 . S
O286 C293 1.253 . S
O287 Tb284 2.338 . S
O287 C288 1.258 . S
C288 O287 1.258 . S
C288 O289 1.251 . S
O289 C288 1.251 . S
O290 Tb281 2.271 . S
O290 C282 1.252 . S
O291 C282 1.253 . S
O291 Tb284 2.312 . S
O292 Tb281 2.338 . S
O292 C297 1.258 . S
C293 O283 1.252 . S
C293 O286 1.253 . S
C294 O280 1.265 . S
C294 O299 1.244 . S
O295 Tb284 2.441 . S
O295 C285 1.244 . S
O296 Tb284 2.506 . S
O296 C285 1.265 . S
C297 O292 1.258 . S
C297 O298 1.251 . S
O298 C297 1.251 . S
O299 Tb281 2.441 . S
O299 C294 1.244 . S
O300 Tb301 2.506 . S
O300 C314 1.265 . S
Tb301 O300 2.506 . S
Tb301 O306 2.312 . S
Tb301 O310 2.271 . S
Tb301 O312 2.338 . S
Tb301 O319 2.441 . S
C302 O310 1.252 . S
C302 O311 1.253 . S
O303 Tb304 2.271 . S
O303 C313 1.252 . S
Tb304 O303 2.271 . S
Tb304 O307 2.338 . S
Tb304 O311 2.312 . S
Tb304 O315 2.441 . S
Tb304 O316 2.506 . S
C305 O315 1.244 . S
C305 O316 1.265 . S
O306 Tb301 2.312 . S
O306 C313 1.253 . S
O307 Tb304 2.338 . S
O307 C308 1.258 . S
C308 O307 1.258 . S
C308 O309 1.251 . S
O309 C308 1.251 . S
O310 Tb301 2.271 . S
O310 C302 1.252 . S
O311 C302 1.253 . S
O311 Tb304 2.312 . S
O312 Tb301 2.338 . S
O312 C317 1.258 . S
C313 O303 1.252 . S
C313 O306 1.253 . S
C314 O300 1.265 . S
C314 O319 1.244 . S
O315 Tb304 2.441 . S
O315 C305 1.244 . S
O316 Tb304 2.506 . S
O316 C305 1.265 . S
C317 O312 1.258 . S
C317 O318 1.251 . S
O318 C317 1.251 . S
O319 Tb301 2.441 . S
O319 C314 1.244 . S
O320 Tb321 2.506 . S
O320 C334 1.265 . S
Tb321 O320 2.506 . S
Tb321 O326 2.312 . S
Tb321 O330 2.271 . S
Tb321 O332 2.338 . S
Tb321 O339 2.441 . S
C322 O330 1.252 . S
C322 O331 1.253 . S
O323 Tb324 2.271 . S
O323 C333 1.252 . S
Tb324 O323 2.271 . S
Tb324 O327 2.338 . S
Tb324 O331 2.312 . S
Tb324 O335 2.441 . S
Tb324 O336 2.506 . S
C325 O335 1.244 . S
C325 O336 1.265 . S
O326 Tb321 2.312 . S
O326 C333 1.253 . S
O327 Tb324 2.338 . S
O327 C328 1.258 . S
C328 O327 1.258 . S
C328 O329 1.251 . S
O329 C328 1.251 . S
O330 Tb321 2.271 . S
O330 C322 1.252 . S
O331 C322 1.253 . S
O331 Tb324 2.312 . S
O332 Tb321 2.338 . S
O332 C337 1.258 . S
C333 O323 1.252 . S
C333 O326 1.253 . S
C334 O320 1.265 . S
C334 O339 1.244 . S
O335 Tb324 2.441 . S
O335 C325 1.244 . S
O336 Tb324 2.506 . S
O336 C325 1.265 . S
C337 O332 1.258 . S
C337 O338 1.251 . S
O338 C337 1.251 . S
O339 Tb321 2.441 . S
O339 C334 1.244 . S
O340 Tb341 2.506 . S
O340 C354 1.265 . S
Tb341 O340 2.506 . S
Tb341 O346 2.312 . S
Tb341 O350 2.271 . S
Tb341 O352 2.338 . S
Tb341 O359 2.441 . S
C342 O350 1.252 . S
C342 O351 1.253 . S
O343 Tb344 2.271 . S
O343 C353 1.252 . S
Tb344 O343 2.271 . S
Tb344 O347 2.338 . S
Tb344 O351 2.312 . S
Tb344 O355 2.441 . S
Tb344 O356 2.506 . S
C345 O355 1.244 . S
C345 O356 1.265 . S
O346 Tb341 2.312 . S
O346 C353 1.253 . S
O347 Tb344 2.338 . S
O347 C348 1.258 . S
C348 O347 1.258 . S
C348 O349 1.251 . S
O349 C348 1.251 . S
O350 Tb341 2.271 . S
O350 C342 1.252 . S
O351 C342 1.253 . S
O351 Tb344 2.312 . S
O352 Tb341 2.338 . S
O352 C357 1.258 . S
C353 O343 1.252 . S
C353 O346 1.253 . S
C354 O340 1.265 . S
C354 O359 1.244 . S
O355 Tb344 2.441 . S
O355 C345 1.244 . S
O356 Tb344 2.506 . S
O356 C345 1.265 . S
C357 O352 1.258 . S
C357 O358 1.251 . S
O358 C357 1.251 . S
O359 Tb341 2.441 . S
O359 C354 1.244 . S
O360 Tb361 2.506 . S
O360 C374 1.265 . S
Tb361 O360 2.506 . S
Tb361 O366 2.312 . S
Tb361 O370 2.271 . S
Tb361 O372 2.338 . S
Tb361 O379 2.441 . S
C362 O370 1.252 . S
C362 O371 1.253 . S
O363 Tb364 2.271 . S
O363 C373 1.252 . S
Tb364 O363 2.271 . S
Tb364 O367 2.338 . S
Tb364 O371 2.312 . S
Tb364 O375 2.441 . S
Tb364 O376 2.506 . S
C365 O375 1.244 . S
C365 O376 1.265 . S
O366 Tb361 2.312 . S
O366 C373 1.253 . S
O367 Tb364 2.338 . S
O367 C368 1.258 . S
C368 O367 1.258 . S
C368 O369 1.251 . S
O369 C368 1.251 . S
O370 Tb361 2.271 . S
O370 C362 1.252 . S
O371 C362 1.253 . S
O371 Tb364 2.312 . S
O372 Tb361 2.338 . S
O372 C377 1.258 . S
C373 O363 1.252 . S
C373 O366 1.253 . S
C374 O360 1.265 . S
C374 O379 1.244 . S
O375 Tb364 2.441 . S
O375 C365 1.244 . S
O376 Tb364 2.506 . S
O376 C365 1.265 . S
C377 O372 1.258 . S
C377 O378 1.251 . S
O378 C377 1.251 . S
O379 Tb361 2.441 . S
O379 C374 1.244 . S
O380 Tb381 2.506 . S
O380 C394 1.265 . S
Tb381 O380 2.506 . S
Tb381 O386 2.312 . S
Tb381 O390 2.271 . S
Tb381 O392 2.338 . S
Tb381 O399 2.441 . S
C382 O390 1.252 . S
C382 O391 1.253 . S
O383 Tb384 2.271 . S
O383 C393 1.252 . S
Tb384 O383 2.271 . S
Tb384 O387 2.338 . S
Tb384 O391 2.312 . S
Tb384 O395 2.441 . S
Tb384 O396 2.506 . S
C385 O395 1.244 . S
C385 O396 1.265 . S
O386 Tb381 2.312 . S
O386 C393 1.253 . S
O387 Tb384 2.338 . S
O387 C388 1.258 . S
C388 O387 1.258 . S
C388 O389 1.251 . S
O389 C388 1.251 . S
O390 Tb381 2.271 . S
O390 C382 1.252 . S
O391 C382 1.253 . S
O391 Tb384 2.312 . S
O392 Tb381 2.338 . S
O392 C397 1.258 . S
C393 O383 1.252 . S
C393 O386 1.253 . S
C394 O380 1.265 . S
C394 O399 1.244 . S
O395 Tb384 2.441 . S
O395 C385 1.244 . S
O396 Tb384 2.506 . S
O396 C385 1.265 . S
C397 O392 1.258 . S
C397 O398 1.251 . S
O398 C397 1.251 . S
O399 Tb381 2.441 . S
O399 C394 1.244 . S
O400 Tb401 2.506 . S
O400 C414 1.265 . S
Tb401 O400 2.506 . S
Tb401 O406 2.312 . S
Tb401 O410 2.271 . S
Tb401 O412 2.338 . S
Tb401 O419 2.441 . S
C402 O410 1.252 . S
C402 O411 1.253 . S
O403 Tb404 2.271 . S
O403 C413 1.252 . S
Tb404 O403 2.271 . S
Tb404 O407 2.338 . S
Tb404 O411 2.312 . S
Tb404 O415 2.441 . S
Tb404 O416 2.506 . S
C405 O415 1.244 . S
C405 O416 1.265 . S
O406 Tb401 2.312 . S
O406 C413 1.253 . S
O407 Tb404 2.338 . S
O407 C408 1.258 . S
C408 O407 1.258 . S
C408 O409 1.251 . S
O409 C408 1.251 . S
O410 Tb401 2.271 . S
O410 C402 1.252 . S
O411 C402 1.253 . S
O411 Tb404 2.312 . S
O412 Tb401 2.338 . S
O412 C417 1.258 . S
C413 O403 1.252 . S
C413 O406 1.253 . S
C414 O400 1.265 . S
C414 O419 1.244 . S
O415 Tb404 2.441 . S
O415 C405 1.244 . S
O416 Tb404 2.506 . S
O416 C405 1.265 . S
C417 O412 1.258 . S
C417 O418 1.251 . S
O418 C417 1.251 . S
O419 Tb401 2.441 . S
O419 C414 1.244 . S
O420 Tb421 2.506 . S
O420 C434 1.265 . S
Tb421 O420 2.506 . S
Tb421 O426 2.312 . S
Tb421 O430 2.271 . S
Tb421 O432 2.338 . S
Tb421 O439 2.441 . S
C422 O430 1.252 . S
C422 O431 1.253 . S
O423 Tb424 2.271 . S
O423 C433 1.252 . S
Tb424 O423 2.271 . S
Tb424 O427 2.338 . S
Tb424 O431 2.312 . S
Tb424 O435 2.441 . S
Tb424 O436 2.506 . S
C425 O435 1.244 . S
C425 O436 1.265 . S
O426 Tb421 2.312 . S
O426 C433 1.253 . S
O427 Tb424 2.338 . S
O427 C428 1.258 . S
C428 O427 1.258 . S
C428 O429 1.251 . S
O429 C428 1.251 . S
O430 Tb421 2.271 . S
O430 C422 1.252 . S
O431 C422 1.253 . S
O431 Tb424 2.312 . S
O432 Tb421 2.338 . S
O432 C437 1.258 . S
C433 O423 1.252 . S
C433 O426 1.253 . S
C434 O420 1.265 . S
C434 O439 1.244 . S
O435 Tb424 2.441 . S
O435 C425 1.244 . S
O436 Tb424 2.506 . S
O436 C425 1.265 . S
C437 O432 1.258 . S
C437 O438 1.251 . S
O438 C437 1.251 . S
O439 Tb421 2.441 . S
O439 C434 1.244 . S
O440 Tb441 2.506 . S
O440 C454 1.265 . S
Tb441 O440 2.506 . S
Tb441 O446 2.312 . S
Tb441 O450 2.271 . S
Tb441 O452 2.338 . S
Tb441 O459 2.441 . S
C442 O450 1.252 . S
C442 O451 1.253 . S
O443 Tb444 2.271 . S
O443 C453 1.252 . S
Tb444 O443 2.271 . S
Tb444 O447 2.338 . S
Tb444 O451 2.312 . S
Tb444 O455 2.441 . S
Tb444 O456 2.493 1_565 S
C445 O455 1.244 1_545 S
C445 O456 1.265 . S
O446 Tb441 2.312 . S
O446 C453 1.253 . S
O447 Tb444 2.338 . S
O447 C448 1.258 . S
C448 O447 1.258 . S
C448 O449 1.251 . S
O449 C448 1.251 . S
O450 Tb441 2.271 . S
O450 C442 1.252 . S
O451 C442 1.253 . S
O451 Tb444 2.312 . S
O452 Tb441 2.338 . S
O452 C457 1.258 . S
C453 O443 1.252 . S
C453 O446 1.253 . S
C454 O440 1.265 . S
C454 O459 1.244 . S
O455 Tb444 2.441 . S
O455 C445 1.244 1_565 S
O456 Tb444 2.493 1_545 S
O456 C445 1.265 . S
C457 O452 1.258 . S
C457 O458 1.251 . S
O458 C457 1.251 . S
O459 Tb441 2.441 . S
O459 C454 1.244 . S
O460 Tb461 2.506 . S
O460 C474 1.265 . S
Tb461 O460 2.506 . S
Tb461 O466 2.312 . S
Tb461 O470 2.271 . S
Tb461 O472 2.338 . S
Tb461 O479 2.441 . S
C462 O470 1.252 . S
C462 O471 1.253 . S
O463 Tb464 2.271 . S
O463 C473 1.252 . S
Tb464 O463 2.271 . S
Tb464 O467 2.338 . S
Tb464 O471 2.312 . S
Tb464 O475 2.441 . S
Tb464 O476 2.506 . S
C465 O475 1.244 . S
C465 O476 1.265 . S
O466 Tb461 2.312 . S
O466 C473 1.253 . S
O467 Tb464 2.338 . S
O467 C468 1.258 . S
C468 O467 1.258 . S
C468 O469 1.251 . S
O469 C468 1.251 . S
O470 Tb461 2.271 . S
O470 C462 1.252 . S
O471 C462 1.253 . S
O471 Tb464 2.312 . S
O472 Tb461 2.338 . S
O472 C477 1.258 . S
C473 O463 1.252 . S
C473 O466 1.253 . S
C474 O460 1.265 . S
C474 O479 1.244 . S
O475 Tb464 2.441 . S
O475 C465 1.244 . S
O476 Tb464 2.506 . S
O476 C465 1.265 . S
C477 O472 1.258 . S
C477 O478 1.251 . S
O478 C477 1.251 . S
O479 Tb461 2.441 . S
O479 C474 1.244 . S
H480 C486 0.930 . S
H481 C490 0.930 . S
H482 C495 0.929 . S
H483 C493 0.929 . S
H484 C488 0.929 . S
H485 C494 0.929 1_655 S
C486 H480 0.930 . S
C486 C487 1.367 . S
C486 C494 1.378 . S
C487 C486 1.367 . S
C487 C495 1.433 . S
C488 H484 0.929 . S
C488 C490 1.378 . S
C488 C492 1.350 . S
C489 C492 1.463 . S
C489 C494 1.350 . S
C489 N497 1.427 . S
C490 H481 0.930 . S
C490 C488 1.378 . S
C490 C491 1.367 . S
C491 C490 1.367 . S
C491 C493 1.433 1_455 S
C492 C488 1.350 . S
C492 C489 1.463 . S
C492 N496 1.427 . S
C493 H483 0.929 . S
C493 C491 1.433 1_655 S
C493 N496 1.384 1_655 S
C494 H485 0.929 1_455 S
C494 C486 1.378 . S
C494 C489 1.350 . S
C495 H482 0.929 . S
C495 C487 1.433 . S
C495 N497 1.384 . S
N496 C492 1.427 . S
N496 C493 1.384 1_455 S
N497 C489 1.427 . S
N497 C495 1.384 . S
H498 C504 0.930 . S
H499 C508 0.930 . S
H500 C513 0.929 . S
H501 C511 0.929 . S
H502 C506 0.929 . S
H503 C512 0.929 . S
C504 H498 0.930 . S
C504 C505 1.367 . S
C504 C512 1.378 . S
C505 C504 1.367 . S
C505 C513 1.433 1_545 S
C506 H502 0.929 . S
C506 C508 1.378 . S
C506 C510 1.350 . S
C507 C510 1.463 1_545 S
C507 C512 1.350 . S
C507 N515 1.427 1_545 S
C508 H499 0.930 . S
C508 C506 1.378 . S
C508 C509 1.367 . S
C509 C508 1.367 . S
C509 C511 1.433 1_565 S
C510 C506 1.350 . S
C510 C507 1.463 1_565 S
C510 N514 1.427 1_565 S
C511 H501 0.929 . S
C511 C509 1.433 1_545 S
C511 N514 1.384 . S
C512 H503 0.929 . S
C512 C504 1.378 . S
C512 C507 1.350 . S
C513 H500 0.929 . S
C513 C505 1.433 1_565 S
C513 N515 1.384 . S
N514 C510 1.427 1_545 S
N514 C511 1.384 . S
N515 C507 1.427 1_565 S
N515 C513 1.384 . S
H516 C522 0.930 . S
H517 C526 0.930 . S
H518 C531 0.929 1_655 S
H519 C529 0.929 . S
H520 C524 0.929 . S
H521 C530 0.929 . S
C522 H516 0.930 . S
C522 C523 1.367 . S
C522 C530 1.378 . S
C523 C522 1.367 . S
C523 C531 1.433 . S
C524 H520 0.929 . S
C524 C526 1.378 . S
C524 C528 1.350 . S
C525 C528 1.463 . S
C525 C530 1.350 . S
C525 N533 1.427 . S
C526 H517 0.930 . S
C526 C524 1.378 . S
C526 C527 1.367 . S
C527 C526 1.367 . S
C527 C529 1.433 . S
C528 C524 1.350 . S
C528 C525 1.463 . S
C528 N532 1.427 . S
C529 H519 0.929 . S
C529 C527 1.433 . S
C529 N532 1.384 . S
C530 H521 0.929 . S
C530 C522 1.378 . S
C530 C525 1.350 . S
C531 H518 0.929 1_455 S
C531 C523 1.433 . S
C531 N533 1.384 . S
N532 C528 1.427 . S
N532 C529 1.384 . S
N533 C525 1.427 . S
N533 C531 1.384 . S
H534 C540 0.930 . S
H535 C544 0.930 . S
H536 C549 0.929 . S
H537 C547 0.929 . S
H538 C542 0.929 . S
H539 C548 0.929 . S
C540 H534 0.930 . S
C540 C541 1.367 . S
C540 C548 1.378 . S
C541 C540 1.367 . S
C541 C549 1.433 . S
C542 H538 0.929 . S
C542 C544 1.378 . S
C542 C546 1.350 . S
C543 C546 1.463 . S
C543 C548 1.350 . S
C543 N551 1.427 . S
C544 H535 0.930 . S
C544 C542 1.378 . S
C544 C545 1.367 . S
C545 C544 1.367 . S
C545 C547 1.433 . S
C546 C542 1.350 . S
C546 C543 1.463 . S
C546 N550 1.427 . S
C547 H537 0.929 . S
C547 C545 1.433 . S
C547 N550 1.384 . S
C548 H539 0.929 . S
C548 C540 1.378 . S
C548 C543 1.350 . S
C549 H536 0.929 . S
C549 C541 1.433 . S
C549 N551 1.384 . S
N550 C546 1.427 . S
N550 C547 1.384 . S
N551 C543 1.427 . S
N551 C549 1.384 . S
H552 C558 0.930 . S
H553 C562 0.930 . S
H554 C567 0.929 . S
H555 C565 0.929 . S
H556 C560 0.929 . S
H557 C566 0.929 . S
C558 H552 0.930 . S
C558 C559 1.367 . S
C558 C566 1.378 . S
C559 C558 1.367 . S
C559 C567 1.433 . S
C560 H556 0.929 . S
C560 C562 1.378 . S
C560 C564 1.350 1_565 S
C561 C564 1.463 . S
C561 C566 1.350 . S
C561 N569 1.427 . S
C562 H553 0.930 . S
C562 C560 1.378 . S
C562 C563 1.367 1_565 S
C563 C562 1.367 1_545 S
C563 C565 1.433 . S
C564 C560 1.350 1_545 S
C564 C561 1.463 . S
C564 N568 1.427 . S
C565 H555 0.929 . S
C565 C563 1.433 . S
C565 N568 1.384 . S
C566 H557 0.929 . S
C566 C558 1.378 . S
C566 C561 1.350 . S
C567 H554 0.929 . S
C567 C559 1.433 . S
C567 N569 1.384 . S
N568 C564 1.427 . S
N568 C565 1.384 . S
N569 C561 1.427 . S
N569 C567 1.384 . S
H570 C576 0.930 . S
H571 C580 0.930 . S
H572 C585 0.929 . S
H573 C583 0.929 . S
H574 C578 0.929 . S
H575 C584 0.929 . S
C576 H570 0.930 . S
C576 C577 1.367 . S
C576 C584 1.378 . S
C577 C576 1.367 . S
C577 C585 1.433 . S
C578 H574 0.929 . S
C578 C580 1.378 . S
C578 C582 1.350 . S
C579 C582 1.463 . S
C579 C584 1.350 . S
C579 N587 1.427 . S
C580 H571 0.930 . S
C580 C578 1.378 . S
C580 C581 1.367 . S
C581 C580 1.367 . S
C581 C583 1.433 . S
C582 C578 1.350 . S
C582 C579 1.463 . S
C582 N586 1.427 . S
C583 H573 0.929 . S
C583 C581 1.433 . S
C583 N586 1.384 . S
C584 H575 0.929 . S
C584 C576 1.378 . S
C584 C579 1.350 . S
C585 H572 0.929 . S
C585 C577 1.433 . S
C585 N587 1.384 . S
N586 C582 1.427 . S
N586 C583 1.384 . S
N587 C579 1.427 . S
N587 C585 1.384 . S
H588 C594 0.930 . S
H589 C598 0.930 . S
H590 C603 0.929 . S
H591 C601 0.929 . S
H592 C596 0.929 . S
H593 C602 0.929 . S
C594 H588 0.930 . S
C594 C595 1.367 . S
C594 C602 1.378 . S
C595 C594 1.367 . S
C595 C603 1.433 1_545 S
C596 H592 0.929 . S
C596 C598 1.378 . S
C596 C600 1.350 1_565 S
C597 C600 1.463 . S
C597 C602 1.350 . S
C597 N605 1.427 1_545 S
C598 H589 0.930 . S
C598 C596 1.378 . S
C598 C599 1.367 . S
C599 C598 1.367 . S
C599 C601 1.433 1_565 S
C600 C596 1.350 1_545 S
C600 C597 1.463 . S
C600 N604 1.427 . S
C601 H591 0.929 . S
C601 C599 1.433 1_545 S
C601 N604 1.384 . S
C602 H593 0.929 . S
C602 C594 1.378 . S
C602 C597 1.350 . S
C603 H590 0.929 . S
C603 C595 1.433 1_565 S
C603 N605 1.384 . S
N604 C600 1.427 . S
N604 C601 1.384 . S
N605 C597 1.427 1_565 S
N605 C603 1.384 . S
H606 C612 0.930 . S
H607 C616 0.930 . S
H608 C621 0.929 1_655 S
H609 C619 0.929 . S
H610 C614 0.929 . S
H611 C620 0.929 . S
C612 H606 0.930 . S
C612 C613 1.367 . S
C612 C620 1.378 . S
C613 C612 1.367 . S
C613 C621 1.433 . S
C614 H610 0.929 . S
C614 C616 1.378 . S
C614 C618 1.350 1_655 S
C615 C618 1.463 . S
C615 C620 1.350 . S
C615 N623 1.441 . S
C616 H607 0.930 . S
C616 C614 1.378 . S
C616 C617 1.377 . S
C617 C616 1.377 . S
C617 C619 1.417 1_655 S
C618 C614 1.350 1_455 S
C618 C615 1.463 . S
C618 N622 1.427 . S
C619 H609 0.929 . S
C619 C617 1.417 1_455 S
C619 N622 1.384 . S
C620 H611 0.929 . S
C620 C612 1.378 . S
C620 C615 1.350 . S
C621 H608 0.929 1_455 S
C621 C613 1.433 . S
C621 N623 1.392 . S
N622 C618 1.427 . S
N622 C619 1.384 . S
N623 C615 1.441 . S
N623 C621 1.392 . S
H624 C630 0.930 . S
H625 C634 0.902 1_556 S
H626 C639 0.929 . S
H627 C637 0.929 . S
H628 C632 0.929 . S
H629 C638 0.929 . S
C630 H624 0.930 . S
C630 C631 1.372 . S
C630 C638 1.378 . S
C631 C630 1.372 . S
C631 C639 1.429 1_554 S
C632 H628 0.929 . S
C632 C634 1.371 1_556 S
C632 C636 1.350 1_556 S
C633 C636 1.463 . S
C633 C638 1.350 . S
C633 N641 1.427 1_554 S
C634 H625 0.902 1_554 S
C634 C632 1.371 1_554 S
C634 C635 1.404 . S
C635 C634 1.404 . S
C635 C637 1.433 . S
C636 C632 1.350 1_554 S
C636 C633 1.463 . S
C636 N640 1.427 . S
C637 H627 0.929 . S
C637 C635 1.433 . S
C637 N640 1.384 . S
C638 H629 0.929 . S
C638 C630 1.378 . S
C638 C633 1.350 . S
C639 H626 0.929 . S
C639 C631 1.429 1_556 S
C639 N641 1.384 . S
N640 C636 1.427 . S
N640 C637 1.384 . S
N641 C633 1.427 1_556 S
N641 C639 1.384 . S
H642 C648 0.931 1_554 S
H643 C652 0.930 . S
H644 C657 0.929 . S
H645 C655 0.929 . S
H646 C650 0.918 1_556 S
H647 C656 0.929 . S
C648 H642 0.931 1_556 S
C648 C649 1.366 . S
C648 C656 1.378 1_556 S
C649 C648 1.366 . S
C649 C657 1.433 . S
C650 H646 0.918 1_554 S
C650 C652 1.378 . S
C650 C654 1.350 . S
C651 C654 1.463 . S
C651 C656 1.350 . S
C651 N659 1.427 1_554 S
C652 H643 0.930 . S
C652 C650 1.378 . S
C652 C653 1.367 . S
C653 C652 1.367 . S
C653 C655 1.433 . S
C654 C650 1.350 . S
C654 C651 1.463 . S
C654 N658 1.427 . S
C655 H645 0.929 . S
C655 C653 1.433 . S
C655 N658 1.384 . S
C656 H647 0.929 . S
C656 C648 1.378 1_554 S
C656 C651 1.350 . S
C657 H644 0.929 . S
C657 C649 1.433 . S
C657 N659 1.384 . S
N658 C654 1.427 . S
N658 C655 1.384 . S
N659 C651 1.427 1_556 S
N659 C657 1.384 . S
H660 C666 0.930 . S
H661 C670 0.930 1_556 S
H662 C675 0.929 . S
H663 C673 0.929 . S
H664 C668 0.929 1_556 S
H665 C674 0.929 . S
C666 H660 0.930 . S
C666 C667 1.367 . S
C666 C674 1.378 . S
C667 C666 1.367 . S
C667 C675 1.433 1_554 S
C668 H664 0.929 1_554 S
C668 C670 1.378 . S
C668 C672 1.350 . S
C669 C672 1.463 . S
C669 C674 1.350 . S
C669 N677 1.427 1_554 S
C670 H661 0.930 1_554 S
C670 C668 1.378 . S
C670 C671 1.367 . S
C671 C670 1.367 . S
C671 C673 1.433 . S
C672 C668 1.350 . S
C672 C669 1.463 . S
C672 N676 1.427 . S
C673 H663 0.929 . S
C673 C671 1.433 . S
C673 N676 1.384 . S
C674 H665 0.929 . S
C674 C666 1.378 . S
C674 C669 1.350 . S
C675 H662 0.929 . S
C675 C667 1.433 1_556 S
C675 N677 1.384 . S
N676 C672 1.427 . S
N676 C673 1.384 . S
N677 C669 1.427 1_556 S
N677 C675 1.384 . S
H678 C684 0.930 1_556 S
H679 C688 0.930 . S
H680 C693 0.929 . S
H681 C691 0.929 . S
H682 C686 0.929 . S
H683 C692 0.928 1_556 S
C684 H678 0.930 1_554 S
C684 C685 1.367 . S
C684 C692 1.378 . S
C685 C684 1.367 . S
C685 C693 1.433 . S
C686 H682 0.929 . S
C686 C688 1.378 . S
C686 C690 1.350 . S
C687 C690 1.463 . S
C687 C692 1.350 . S
C687 N695 1.427 . S
C688 H679 0.930 . S
C688 C686 1.378 . S
C688 C689 1.367 . S
C689 C688 1.367 . S
C689 C691 1.433 . S
C690 C686 1.350 . S
C690 C687 1.463 . S
C690 N694 1.427 . S
C691 H681 0.929 . S
C691 C689 1.433 . S
C691 N694 1.384 . S
C692 H683 0.928 1_554 S
C692 C684 1.378 . S
C692 C687 1.350 . S
C693 H680 0.929 . S
C693 C685 1.433 . S
C693 N695 1.384 . S
N694 C690 1.427 . S
N694 C691 1.384 . S
N695 C687 1.427 . S
N695 C693 1.384 . S
H696 C702 0.930 . S
H697 C706 0.930 . S
H698 C711 0.929 . S
H699 C709 0.929 . S
H700 C704 0.929 . S
H701 C710 0.929 . S
C702 H696 0.930 . S
C702 C703 1.367 . S
C702 C710 1.378 . S
C703 C702 1.367 . S
C703 C711 1.433 . S
C704 H700 0.929 . S
C704 C706 1.378 . S
C704 C708 1.350 . S
C705 C708 1.463 . S
C705 C710 1.350 . S
C705 N713 1.427 . S
C706 H697 0.930 . S
C706 C704 1.378 . S
C706 C707 1.367 . S
C707 C706 1.367 . S
C707 C709 1.433 . S
C708 C704 1.350 . S
C708 C705 1.463 . S
C708 N712 1.427 . S
C709 H699 0.929 . S
C709 C707 1.433 . S
C709 N712 1.384 . S
C710 H701 0.929 . S
C710 C702 1.378 . S
C710 C705 1.350 . S
C711 H698 0.929 . S
C711 C703 1.433 . S
C711 N713 1.384 . S
N712 C708 1.427 . S
N712 C709 1.384 . S
N713 C705 1.427 . S
N713 C711 1.384 . S
H714 C720 0.930 . S
H715 C724 0.930 . S
H716 C729 0.929 . S
H717 C727 0.929 . S
H718 C722 0.929 . S
H719 C728 0.929 . S
C720 H714 0.930 . S
C720 C721 1.367 . S
C720 C728 1.378 . S
C721 C720 1.367 . S
C721 C729 1.433 . S
C722 H718 0.929 . S
C722 C724 1.378 . S
C722 C726 1.350 1_556 S
C723 C726 1.463 . S
C723 C728 1.350 . S
C723 N731 1.427 . S
C724 H715 0.930 . S
C724 C722 1.378 . S
C724 C725 1.367 . S
C725 C724 1.367 . S
C725 C727 1.433 . S
C726 C722 1.350 1_554 S
C726 C723 1.463 . S
C726 N730 1.427 1_554 S
C727 H717 0.929 . S
C727 C725 1.433 . S
C727 N730 1.384 . S
C728 H719 0.929 . S
C728 C720 1.378 . S
C728 C723 1.350 . S
C729 H716 0.929 . S
C729 C721 1.433 . S
C729 N731 1.384 . S
N730 C726 1.427 1_556 S
N730 C727 1.384 . S
N731 C723 1.427 . S
N731 C729 1.384 . S
H732 C738 0.930 . S
H733 C742 0.930 . S
H734 C747 0.929 . S
H735 C745 0.929 . S
H736 C740 0.929 . S
H737 C746 0.929 . S
C738 H732 0.930 . S
C738 C739 1.367 . S
C738 C746 1.378 . S
C739 C738 1.367 . S
C739 C747 1.433 . S
C740 H736 0.929 . S
C740 C742 1.378 . S
C740 C744 1.350 . S
C741 C744 1.463 . S
C741 C746 1.350 . S
C741 N749 1.427 . S
C742 H733 0.930 . S
C742 C740 1.378 . S
C742 C743 1.367 . S
C743 C742 1.367 . S
C743 C745 1.433 . S
C744 C740 1.350 . S
C744 C741 1.463 . S
C744 N748 1.427 . S
C745 H735 0.929 . S
C745 C743 1.433 . S
C745 N748 1.384 . S
C746 H737 0.929 . S
C746 C738 1.378 . S
C746 C741 1.350 . S
C747 H734 0.929 . S
C747 C739 1.433 . S
C747 N749 1.384 . S
N748 C744 1.427 . S
N748 C745 1.384 . S
N749 C741 1.427 . S
N749 C747 1.384 . S
H750 C756 0.930 . S
H751 C760 0.930 . S
H752 C765 0.929 . S
H753 C763 0.929 . S
H754 C758 0.943 . S
H755 C764 0.929 . S
C756 H750 0.930 . S
C756 C757 1.367 . S
C756 C764 1.378 . S
C757 C756 1.367 . S
C757 C765 1.433 . S
C758 H754 0.943 . S
C758 C760 1.344 1_556 S
C758 C762 1.370 . S
C759 C762 1.463 . S
C759 C764 1.350 . S
C759 N767 1.427 . S
C760 H751 0.930 . S
C760 C758 1.344 1_554 S
C760 C761 1.367 . S
C761 C760 1.367 . S
C761 C763 1.433 . S
C762 C758 1.370 . S
C762 C759 1.463 . S
C762 N766 1.427 . S
C763 H753 0.929 . S
C763 C761 1.433 . S
C763 N766 1.384 1_554 S
C764 H755 0.929 . S
C764 C756 1.378 . S
C764 C759 1.350 . S
C765 H752 0.929 . S
C765 C757 1.433 . S
C765 N767 1.384 . S
N766 C762 1.427 . S
N766 C763 1.384 1_556 S
N767 C759 1.427 . S
N767 C765 1.384 . S
H768 C774 0.930 . S
H769 C778 0.930 . S
H770 C783 0.929 . S
H771 C781 0.929 . S
H772 C776 0.929 . S
H773 C782 0.929 . S
C774 H768 0.930 . S
C774 C775 1.367 . S
C774 C782 1.378 . S
C775 C774 1.367 . S
C775 C783 1.433 . S
C776 H772 0.929 . S
C776 C778 1.378 . S
C776 C780 1.350 . S
C777 C780 1.463 1_655 S
C777 C782 1.350 . S
C777 N785 1.427 . S
C778 H769 0.930 . S
C778 C776 1.378 . S
C778 C779 1.367 . S
C779 C778 1.367 . S
C779 C781 1.433 . S
C780 C776 1.350 . S
C780 C777 1.463 1_455 S
C780 N784 1.427 . S
C781 H771 0.929 . S
C781 C779 1.433 . S
C781 N784 1.384 . S
C782 H773 0.929 . S
C782 C774 1.378 . S
C782 C777 1.350 . S
C783 H770 0.929 . S
C783 C775 1.433 . S
C783 N785 1.384 . S
N784 C780 1.427 . S
N784 C781 1.384 . S
N785 C777 1.427 . S
N785 C783 1.384 . S
H786 C792 0.930 . S
H787 C796 0.930 . S
H788 C801 0.929 . S
H789 C799 0.929 . S
H790 C794 0.929 . S
H791 C800 0.929 . S
C792 H786 0.930 . S
C792 C793 1.367 . S
C792 C800 1.378 . S
C793 C792 1.367 . S
C793 C801 1.433 . S
C794 H790 0.929 . S
C794 C796 1.378 . S
C794 C798 1.350 1_565 S
C795 C798 1.463 . S
C795 C800 1.350 . S
C795 N803 1.427 . S
C796 H787 0.930 . S
C796 C794 1.378 . S
C796 C797 1.367 . S
C797 C796 1.367 . S
C797 C799 1.433 . S
C798 C794 1.350 1_545 S
C798 C795 1.463 . S
C798 N802 1.427 1_545 S
C799 H789 0.929 . S
C799 C797 1.433 . S
C799 N802 1.384 . S
C800 H791 0.929 . S
C800 C792 1.378 . S
C800 C795 1.350 . S
C801 H788 0.929 . S
C801 C793 1.433 . S
C801 N803 1.384 . S
N802 C798 1.427 1_565 S
N802 C799 1.384 . S
N803 C795 1.427 . S
N803 C801 1.384 . S
H804 C810 0.930 . S
H805 C814 0.930 . S
H806 C819 0.929 . S
H807 C817 0.929 . S
H808 C812 0.929 1_655 S
H809 C818 0.929 . S
C810 H804 0.930 . S
C810 C811 1.367 . S
C810 C818 1.378 . S
C811 C810 1.367 . S
C811 C819 1.433 . S
C812 H808 0.929 1_455 S
C812 C814 1.378 . S
C812 C816 1.350 1_455 S
C813 C816 1.463 . S
C813 C818 1.350 . S
C813 N821 1.427 . S
C814 H805 0.930 . S
C814 C812 1.378 . S
C814 C815 1.367 . S
C815 C814 1.367 . S
C815 C817 1.433 . S
C816 C812 1.350 1_655 S
C816 C813 1.463 . S
C816 N820 1.427 1_655 S
C817 H807 0.929 . S
C817 C815 1.433 . S
C817 N820 1.384 . S
C818 H809 0.929 . S
C818 C810 1.378 . S
C818 C813 1.350 . S
C819 H806 0.929 . S
C819 C811 1.433 . S
C819 N821 1.384 . S
N820 C816 1.427 1_455 S
N820 C817 1.384 . S
N821 C813 1.427 . S
N821 C819 1.384 . S
H822 C828 0.930 . S
H823 C832 0.930 . S
H824 C837 0.929 . S
H825 C835 0.929 . S
H826 C830 0.929 . S
H827 C836 0.929 . S
C828 H822 0.930 . S
C828 C829 1.367 . S
C828 C836 1.378 . S
C829 C828 1.367 . S
C829 C837 1.433 . S
C830 H826 0.929 . S
C830 C832 1.378 . S
C830 C834 1.350 . S
C831 C834 1.463 . S
C831 C836 1.350 1_545 S
C831 N839 1.427 1_545 S
C832 H823 0.930 . S
C832 C830 1.378 . S
C832 C833 1.367 . S
C833 C832 1.367 . S
C833 C835 1.433 . S
C834 C830 1.350 . S
C834 C831 1.463 . S
C834 N838 1.427 . S
C835 H825 0.929 . S
C835 C833 1.433 . S
C835 N838 1.384 . S
C836 H827 0.929 . S
C836 C828 1.378 . S
C836 C831 1.350 1_565 S
C837 H824 0.929 . S
C837 C829 1.433 . S
C837 N839 1.384 . S
N838 C834 1.427 . S
N838 C835 1.384 . S
N839 C831 1.427 1_565 S
N839 C837 1.384 . S
H840 C846 0.925 1_565 S
H841 C850 0.930 . S
H842 C855 0.922 1_565 S
H843 C853 0.929 . S
H844 C848 0.929 . S
H845 C854 0.929 . S
C846 H840 0.925 1_545 S
C846 C847 1.367 1_545 S
C846 C854 1.378 . S
C847 C846 1.367 1_565 S
C847 C855 1.433 1_565 S
C848 H844 0.929 . S
C848 C850 1.378 . S
C848 C852 1.350 . S
C849 C852 1.463 . S
C849 C854 1.350 . S
C849 N857 1.427 . S
C850 H841 0.930 . S
C850 C848 1.378 . S
C850 C851 1.367 . S
C851 C850 1.367 . S
C851 C853 1.433 . S
C852 C848 1.350 . S
C852 C849 1.463 . S
C852 N856 1.427 . S
C853 H843 0.929 . S
C853 C851 1.433 . S
C853 N856 1.384 . S
C854 H845 0.929 . S
C854 C846 1.378 . S
C854 C849 1.350 . S
C855 H842 0.922 1_545 S
C855 C847 1.433 1_545 S
C855 N857 1.384 . S
N856 C852 1.427 . S
N856 C853 1.384 . S
N857 C849 1.427 . S
N857 C855 1.384 . S
H858 C864 0.930 . S
H859 C868 0.930 . S
H860 C873 0.929 . S
H861 C871 0.929 . S
H862 C866 0.929 1_455 S
H863 C872 0.929 . S
C864 H858 0.930 . S
C864 C865 1.367 . S
C864 C872 1.378 . S
C865 C864 1.367 . S
C865 C873 1.433 . S
C866 H862 0.929 1_655 S
C866 C868 1.378 . S
C866 C870 1.350 1_655 S
C867 C870 1.463 . S
C867 C872 1.350 . S
C867 N875 1.427 . S
C868 H859 0.930 . S
C868 C866 1.378 . S
C868 C869 1.367 . S
C869 C868 1.367 . S
C869 C871 1.433 . S
C870 C866 1.350 1_455 S
C870 C867 1.463 . S
C870 N874 1.427 1_455 S
C871 H861 0.929 . S
C871 C869 1.433 . S
C871 N874 1.384 . S
C872 H863 0.929 . S
C872 C864 1.378 . S
C872 C867 1.350 . S
C873 H860 0.929 . S
C873 C865 1.433 . S
C873 N875 1.384 . S
N874 C870 1.427 1_655 S
N874 C871 1.384 . S
N875 C867 1.427 . S
N875 C873 1.384 . S
H876 C882 0.930 . S
H877 C886 0.930 . S
H878 C891 0.929 . S
H879 C889 0.929 . S
H880 C884 0.929 . S
H881 C890 0.929 . S
C882 H876 0.930 . S
C882 C883 1.367 . S
C882 C890 1.378 . S
C883 C882 1.367 . S
C883 C891 1.433 . S
C884 H880 0.929 . S
C884 C886 1.378 . S
C884 C888 1.350 . S
C885 C888 1.463 . S
C885 C890 1.350 . S
C885 N893 1.427 . S
C886 H877 0.930 . S
C886 C884 1.378 . S
C886 C887 1.367 . S
C887 C886 1.367 . S
C887 C889 1.433 . S
C888 C884 1.350 . S
C888 C885 1.463 . S
C888 N892 1.427 . S
C889 H879 0.929 . S
C889 C887 1.433 . S
C889 N892 1.384 . S
C890 H881 0.929 . S
C890 C882 1.378 . S
C890 C885 1.350 . S
C891 H878 0.929 . S
C891 C883 1.433 . S
C891 N893 1.384 . S
N892 C888 1.427 . S
N892 C889 1.384 . S
N893 C885 1.427 . S
N893 C891 1.384 . S
H894 C900 0.930 . S
H895 C904 0.930 . S
H896 C909 0.929 . S
H897 C907 0.929 . S
H898 C902 0.929 . S
H899 C908 0.929 . S
C900 H894 0.930 . S
C900 C901 1.367 . S
C900 C908 1.378 . S
C901 C900 1.367 . S
C901 C909 1.433 . S
C902 H898 0.929 . S
C902 C904 1.378 1_455 S
C902 C906 1.350 . S
C903 C906 1.463 . S
C903 C908 1.350 . S
C903 N911 1.427 . S
C904 H895 0.930 . S
C904 C902 1.378 1_655 S
C904 C905 1.367 . S
C905 C904 1.367 . S
C905 C907 1.433 . S
C906 C902 1.350 . S
C906 C903 1.463 . S
C906 N910 1.427 . S
C907 H897 0.929 . S
C907 C905 1.433 . S
C907 N910 1.384 1_655 S
C908 H899 0.929 . S
C908 C900 1.378 . S
C908 C903 1.350 . S
C909 H896 0.929 . S
C909 C901 1.433 . S
C909 N911 1.384 . S
N910 C906 1.427 . S
N910 C907 1.384 1_455 S
N911 C903 1.427 . S
N911 C909 1.384 . S
H912 C918 0.930 . S
H913 C922 0.930 . S
H914 C927 0.929 . S
H915 C925 0.929 . S
H916 C920 0.929 . S
H917 C926 0.929 . S
C918 H912 0.930 . S
C918 C919 1.367 . S
C918 C926 1.378 . S
C919 C918 1.367 . S
C919 C927 1.433 . S
C920 H916 0.929 . S
C920 C922 1.378 . S
C920 C924 1.350 . S
C921 C924 1.463 . S
C921 C926 1.350 . S
C921 N929 1.427 . S
C922 H913 0.930 . S
C922 C920 1.378 . S
C922 C923 1.367 . S
C923 C922 1.367 . S
C923 C925 1.433 . S
C924 C920 1.350 . S
C924 C921 1.463 . S
C924 N928 1.427 . S
C925 H915 0.929 . S
C925 C923 1.433 . S
C925 N928 1.384 . S
C926 H917 0.929 . S
C926 C918 1.378 . S
C926 C921 1.350 . S
C927 H914 0.929 . S
C927 C919 1.433 . S
C927 N929 1.384 . S
N928 C924 1.427 . S
N928 C925 1.384 . S
N929 C921 1.427 . S
N929 C927 1.384 . S
H930 C936 0.930 . S
H931 C940 0.930 . S
H932 C945 0.929 . S
H933 C943 0.929 . S
H934 C938 0.929 . S
H935 C944 0.929 . S
C936 H930 0.930 . S
C936 C937 1.367 . S
C936 C944 1.378 . S
C937 C936 1.367 . S
C937 C945 1.433 . S
C938 H934 0.929 . S
C938 C940 1.378 . S
C938 C942 1.350 . S
C939 C942 1.463 . S
C939 C944 1.350 . S
C939 N947 1.427 . S
C940 H931 0.930 . S
C940 C938 1.378 . S
C940 C941 1.367 . S
C941 C940 1.367 . S
C941 C943 1.433 . S
C942 C938 1.350 . S
C942 C939 1.463 . S
C942 N946 1.427 . S
C943 H933 0.929 . S
C943 C941 1.433 . S
C943 N946 1.384 . S
C944 H935 0.929 . S
C944 C936 1.378 . S
C944 C939 1.350 . S
C945 H932 0.929 . S
C945 C937 1.433 . S
C945 N947 1.384 . S
N946 C942 1.427 . S
N946 C943 1.384 . S
N947 C939 1.427 . S
N947 C945 1.384 . S
H948 C954 0.930 1_455 S
H949 C958 0.930 . S
H950 C963 0.929 . S
H951 C961 0.929 . S
H952 C956 0.929 . S
H953 C962 0.929 . S
C954 H948 0.930 1_655 S
C954 C955 1.367 . S
C954 C962 1.378 . S
C955 C954 1.367 . S
C955 C963 1.433 . S
C956 H952 0.929 . S
C956 C958 1.378 . S
C956 C960 1.350 . S
C957 C960 1.463 . S
C957 C962 1.350 . S
C957 N965 1.427 . S
C958 H949 0.930 . S
C958 C956 1.378 . S
C958 C959 1.367 . S
C959 C958 1.367 . S
C959 C961 1.433 . S
C960 C956 1.350 . S
C960 C957 1.463 . S
C960 N964 1.427 . S
C961 H951 0.929 . S
C961 C959 1.433 . S
C961 N964 1.384 . S
C962 H953 0.929 . S
C962 C954 1.378 . S
C962 C957 1.350 . S
C963 H950 0.929 . S
C963 C955 1.433 . S
C963 N965 1.384 . S
N964 C960 1.427 . S
N964 C961 1.384 . S
N965 C957 1.427 . S
N965 C963 1.384 . S
H966 C972 0.930 . S
H967 C976 0.930 . S
H968 C981 0.929 . S
H969 C979 0.929 . S
H970 C974 0.929 . S
H971 C980 0.929 1_545 S
C972 H966 0.930 . S
C972 C973 1.367 1_545 S
C972 C980 1.378 1_545 S
C973 C972 1.367 1_565 S
C973 C981 1.433 . S
C974 H970 0.929 . S
C974 C976 1.378 . S
C974 C978 1.350 . S
C975 C978 1.463 . S
C975 C980 1.350 . S
C975 N983 1.427 . S
C976 H967 0.930 . S
C976 C974 1.378 . S
C976 C977 1.367 . S
C977 C976 1.367 . S
C977 C979 1.433 . S
C978 C974 1.350 . S
C978 C975 1.463 . S
C978 N982 1.427 . S
C979 H969 0.929 . S
C979 C977 1.433 . S
C979 N982 1.384 . S
C980 H971 0.929 1_565 S
C980 C972 1.378 1_565 S
C980 C975 1.350 . S
C981 H968 0.929 . S
C981 C973 1.433 . S
C981 N983 1.384 . S
N982 C978 1.427 . S
N982 C979 1.384 . S
N983 C975 1.427 . S
N983 C981 1.384 . S
H984 C990 0.930 . S
H985 C994 0.930 . S
H986 C999 0.929 . S
H987 C997 0.929 . S
H988 C992 0.929 . S
H989 C998 0.929 . S
C990 H984 0.930 . S
C990 C991 1.367 . S
C990 C998 1.378 . S
C991 C990 1.367 . S
C991 C999 1.433 . S
C992 H988 0.929 . S
C992 C994 1.378 . S
C992 C996 1.350 . S
C993 C996 1.463 . S
C993 C998 1.350 . S
C993 N1001 1.427 . S
C994 H985 0.930 . S
C994 C992 1.378 . S
C994 C995 1.367 . S
C995 C994 1.367 . S
C995 C997 1.433 . S
C996 C992 1.350 . S
C996 C993 1.463 . S
C996 N1000 1.427 . S
C997 H987 0.929 . S
C997 C995 1.433 . S
C997 N1000 1.384 . S
C998 H989 0.929 . S
C998 C990 1.378 . S
C998 C993 1.350 . S
C999 H986 0.929 . S
C999 C991 1.433 . S
C999 N1001 1.384 . S
N1000 C996 1.427 . S
N1000 C997 1.384 . S
N1001 C993 1.427 . S
N1001 C999 1.384 . S
H1002 C1008 0.930 . S
H1003 C1012 0.930 . S
H1004 C1017 0.929 . S
H1005 C1015 0.929 . S
H1006 C1010 0.929 . S
H1007 C1016 0.929 . S
C1008 H1002 0.930 . S
C1008 C1009 1.367 . S
C1008 C1016 1.378 . S
C1009 C1008 1.367 . S
C1009 C1017 1.433 . S
C1010 H1006 0.929 . S
C1010 C1012 1.378 . S
C1010 C1014 1.350 . S
C1011 C1014 1.463 . S
C1011 C1016 1.350 . S
C1011 N1019 1.427 . S
C1012 H1003 0.930 . S
C1012 C1010 1.378 . S
C1012 C1013 1.367 . S
C1013 C1012 1.367 . S
C1013 C1015 1.433 . S
C1014 C1010 1.350 . S
C1014 C1011 1.463 . S
C1014 N1018 1.427 . S
C1015 H1005 0.929 . S
C1015 C1013 1.433 . S
C1015 N1018 1.384 . S
C1016 H1007 0.929 . S
C1016 C1008 1.378 . S
C1016 C1011 1.350 . S
C1017 H1004 0.929 . S
C1017 C1009 1.433 . S
C1017 N1019 1.384 . S
N1018 C1014 1.427 . S
N1018 C1015 1.384 . S
N1019 C1011 1.427 . S
N1019 C1017 1.384 . S
H1020 C1026 0.930 . S
H1021 C1030 0.930 . S
H1022 C1035 0.929 . S
H1023 C1033 0.929 . S
H1024 C1028 0.929 . S
H1025 C1034 0.929 . S
C1026 H1020 0.930 . S
C1026 C1027 1.367 . S
C1026 C1034 1.378 . S
C1027 C1026 1.367 . S
C1027 C1035 1.433 . S
C1028 H1024 0.929 . S
C1028 C1030 1.378 . S
C1028 C1032 1.350 . S
C1029 C1032 1.463 . S
C1029 C1034 1.350 . S
C1029 N1037 1.427 . S
C1030 H1021 0.930 . S
C1030 C1028 1.378 . S
C1030 C1031 1.367 . S
C1031 C1030 1.367 . S
C1031 C1033 1.433 . S
C1032 C1028 1.350 . S
C1032 C1029 1.463 . S
C1032 N1036 1.427 . S
C1033 H1023 0.929 . S
C1033 C1031 1.433 . S
C1033 N1036 1.384 . S
C1034 H1025 0.929 . S
C1034 C1026 1.378 . S
C1034 C1029 1.350 . S
C1035 H1022 0.929 . S
C1035 C1027 1.433 . S
C1035 N1037 1.384 . S
N1036 C1032 1.427 . S
N1036 C1033 1.384 . S
N1037 C1029 1.427 . S
N1037 C1035 1.384 . S
H1038 C1044 0.930 . S
H1039 C1048 0.930 . S
H1040 C1053 0.929 . S
H1041 C1051 0.929 . S
H1042 C1046 0.929 . S
H1043 C1052 0.929 . S
C1044 H1038 0.930 . S
C1044 C1045 1.367 . S
C1044 C1052 1.378 . S
C1045 C1044 1.367 . S
C1045 C1053 1.433 . S
C1046 H1042 0.929 . S
C1046 C1048 1.378 . S
C1046 C1050 1.350 . S
C1047 C1050 1.463 . S
C1047 C1052 1.350 . S
C1047 N1055 1.427 . S
C1048 H1039 0.930 . S
C1048 C1046 1.378 . S
C1048 C1049 1.367 . S
C1049 C1048 1.367 . S
C1049 C1051 1.433 . S
C1050 C1046 1.350 . S
C1050 C1047 1.463 . S
C1050 N1054 1.427 . S
C1051 H1041 0.929 . S
C1051 C1049 1.433 . S
C1051 N1054 1.384 . S
C1052 H1043 0.929 . S
C1052 C1044 1.378 . S
C1052 C1047 1.350 . S
C1053 H1040 0.929 . S
C1053 C1045 1.433 . S
C1053 N1055 1.384 . S
N1054 C1050 1.427 . S
N1054 C1051 1.384 . S
N1055 C1047 1.427 . S
N1055 C1053 1.384 . S
H1056 C1062 0.930 . S
H1057 C1066 0.930 . S
H1058 C1071 0.929 . S
H1059 C1069 0.929 . S
H1060 C1064 0.929 . S
H1061 C1070 0.929 . S
C1062 H1056 0.930 . S
C1062 C1063 1.367 . S
C1062 C1070 1.378 . S
C1063 C1062 1.367 . S
C1063 C1071 1.433 . S
C1064 H1060 0.929 . S
C1064 C1066 1.378 . S
C1064 C1068 1.350 . S
C1065 C1068 1.463 . S
C1065 C1070 1.350 . S
C1065 N1073 1.427 . S
C1066 H1057 0.930 . S
C1066 C1064 1.378 . S
C1066 C1067 1.367 . S
C1067 C1066 1.367 . S
C1067 C1069 1.433 . S
C1068 C1064 1.350 . S
C1068 C1065 1.463 . S
C1068 N1072 1.427 . S
C1069 H1059 0.929 . S
C1069 C1067 1.433 . S
C1069 N1072 1.384 . S
C1070 H1061 0.929 . S
C1070 C1062 1.378 . S
C1070 C1065 1.350 . S
C1071 H1058 0.929 . S
C1071 C1063 1.433 . S
C1071 N1073 1.384 . S
N1072 C1068 1.427 . S
N1072 C1069 1.384 . S
N1073 C1065 1.427 . S
N1073 C1071 1.384 . S
H1074 C1080 0.920 1_455 S
H1075 C1084 0.930 . S
H1076 C1089 0.929 . S
H1077 C1087 0.929 . S
H1078 C1082 0.929 . S
H1079 C1088 0.929 . S
C1080 H1074 0.920 1_655 S
C1080 C1081 1.370 . S
C1080 C1088 1.385 . S
C1081 C1080 1.370 . S
C1081 C1089 1.433 . S
C1082 H1078 0.929 . S
C1082 C1084 1.378 . S
C1082 C1086 1.350 . S
C1083 C1086 1.463 . S
C1083 C1088 1.350 . S
C1083 N1091 1.427 . S
C1084 H1075 0.930 . S
C1084 C1082 1.378 . S
C1084 C1085 1.367 . S
C1085 C1084 1.367 . S
C1085 C1087 1.433 . S
C1086 C1082 1.350 . S
C1086 C1083 1.463 . S
C1086 N1090 1.427 . S
C1087 H1077 0.929 . S
C1087 C1085 1.433 . S
C1087 N1090 1.384 . S
C1088 H1079 0.929 . S
C1088 C1080 1.385 . S
C1088 C1083 1.350 . S
C1089 H1076 0.929 . S
C1089 C1081 1.433 . S
C1089 N1091 1.384 . S
N1090 C1086 1.427 . S
N1090 C1087 1.384 . S
N1091 C1083 1.427 . S
N1091 C1089 1.384 . S
H1092 C1098 0.930 . S
H1093 C1102 0.930 . S
H1094 C1107 0.929 . S
H1095 C1105 0.929 . S
H1096 C1100 0.929 . S
H1097 C1106 0.929 . S
C1098 H1092 0.930 . S
C1098 C1099 1.367 . S
C1098 C1106 1.378 . S
C1099 C1098 1.367 . S
C1099 C1107 1.433 . S
C1100 H1096 0.929 . S
C1100 C1102 1.378 . S
C1100 C1104 1.350 . S
C1101 C1104 1.463 . S
C1101 C1106 1.350 . S
C1101 N1109 1.427 . S
C1102 H1093 0.930 . S
C1102 C1100 1.378 . S
C1102 C1103 1.367 . S
C1103 C1102 1.367 . S
C1103 C1105 1.433 . S
C1104 C1100 1.350 . S
C1104 C1101 1.463 . S
C1104 N1108 1.427 . S
C1105 H1095 0.929 . S
C1105 C1103 1.433 . S
C1105 N1108 1.384 . S
C1106 H1097 0.929 . S
C1106 C1098 1.378 . S
C1106 C1101 1.350 . S
C1107 H1094 0.929 . S
C1107 C1099 1.433 . S
C1107 N1109 1.384 . S
N1108 C1104 1.427 . S
N1108 C1105 1.384 . S
N1109 C1101 1.427 . S
N1109 C1107 1.384 . S
H1110 C1116 0.930 . S
H1111 C1120 0.930 . S
H1112 C1125 0.929 . S
H1113 C1123 0.929 . S
H1114 C1118 0.929 . S
H1115 C1124 0.929 . S
C1116 H1110 0.930 . S
C1116 C1117 1.367 . S
C1116 C1124 1.378 . S
C1117 C1116 1.367 . S
C1117 C1125 1.433 . S
C1118 H1114 0.929 . S
C1118 C1120 1.378 . S
C1118 C1122 1.350 . S
C1119 C1122 1.463 . S
C1119 C1124 1.350 . S
C1119 N1127 1.427 . S
C1120 H1111 0.930 . S
C1120 C1118 1.378 . S
C1120 C1121 1.367 . S
C1121 C1120 1.367 . S
C1121 C1123 1.433 . S
C1122 C1118 1.350 . S
C1122 C1119 1.463 . S
C1122 N1126 1.427 . S
C1123 H1113 0.929 . S
C1123 C1121 1.433 . S
C1123 N1126 1.384 . S
C1124 H1115 0.929 . S
C1124 C1116 1.378 . S
C1124 C1119 1.350 . S
C1125 H1112 0.929 . S
C1125 C1117 1.433 . S
C1125 N1127 1.384 . S
N1126 C1122 1.427 . S
N1126 C1123 1.384 . S
N1127 C1119 1.427 . S
N1127 C1125 1.384 . S
H1128 C1134 0.930 . S
H1129 C1138 0.930 . S
H1130 C1143 0.929 . S
H1131 C1141 0.929 . S
H1132 C1136 0.929 . S
H1133 C1142 0.929 . S
C1134 H1128 0.930 . S
C1134 C1135 1.367 . S
C1134 C1142 1.378 . S
C1135 C1134 1.367 . S
C1135 C1143 1.433 . S
C1136 H1132 0.929 . S
C1136 C1138 1.378 . S
C1136 C1140 1.350 . S
C1137 C1140 1.463 . S
C1137 C1142 1.350 . S
C1137 N1145 1.427 . S
C1138 H1129 0.930 . S
C1138 C1136 1.378 . S
C1138 C1139 1.367 . S
C1139 C1138 1.367 . S
C1139 C1141 1.433 . S
C1140 C1136 1.350 . S
C1140 C1137 1.463 . S
C1140 N1144 1.427 . S
C1141 H1131 0.929 . S
C1141 C1139 1.433 . S
C1141 N1144 1.384 . S
C1142 H1133 0.929 . S
C1142 C1134 1.378 . S
C1142 C1137 1.350 . S
C1143 H1130 0.929 . S
C1143 C1135 1.433 . S
C1143 N1145 1.384 . S
N1144 C1140 1.427 . S
N1144 C1141 1.384 . S
N1145 C1137 1.427 . S
N1145 C1143 1.384 . S
H1146 C1152 0.930 . S
H1147 C1156 0.930 . S
H1148 C1161 0.929 . S
H1149 C1159 0.929 . S
H1150 C1154 0.929 . S
H1151 C1160 0.929 . S
C1152 H1146 0.930 . S
C1152 C1153 1.367 . S
C1152 C1160 1.378 . S
C1153 C1152 1.367 . S
C1153 C1161 1.433 . S
C1154 H1150 0.929 . S
C1154 C1156 1.378 . S
C1154 C1158 1.350 . S
C1155 C1158 1.463 . S
C1155 C1160 1.350 . S
C1155 N1163 1.427 . S
C1156 H1147 0.930 . S
C1156 C1154 1.378 . S
C1156 C1157 1.367 . S
C1157 C1156 1.367 . S
C1157 C1159 1.433 . S
C1158 C1154 1.350 . S
C1158 C1155 1.463 . S
C1158 N1162 1.427 . S
C1159 H1149 0.929 . S
C1159 C1157 1.433 . S
C1159 N1162 1.384 . S
C1160 H1151 0.929 . S
C1160 C1152 1.378 . S
C1160 C1155 1.350 . S
C1161 H1148 0.929 . S
C1161 C1153 1.433 . S
C1161 N1163 1.384 . S
N1162 C1158 1.427 . S
N1162 C1159 1.384 . S
N1163 C1155 1.427 . S
N1163 C1161 1.384 . S
H1164 C1170 0.930 . S
H1165 C1174 0.930 . S
H1166 C1179 0.929 . S
H1167 C1177 0.929 . S
H1168 C1172 0.929 . S
H1169 C1178 0.929 . S
C1170 H1164 0.930 . S
C1170 C1171 1.367 . S
C1170 C1178 1.378 . S
C1171 C1170 1.367 . S
C1171 C1179 1.433 . S
C1172 H1168 0.929 . S
C1172 C1174 1.378 . S
C1172 C1176 1.350 . S
C1173 C1176 1.463 . S
C1173 C1178 1.350 . S
C1173 N1181 1.427 . S
C1174 H1165 0.930 . S
C1174 C1172 1.378 . S
C1174 C1175 1.367 . S
C1175 C1174 1.367 . S
C1175 C1177 1.433 . S
C1176 C1172 1.350 . S
C1176 C1173 1.463 . S
C1176 N1180 1.427 . S
C1177 H1167 0.929 . S
C1177 C1175 1.433 . S
C1177 N1180 1.384 . S
C1178 H1169 0.929 . S
C1178 C1170 1.378 . S
C1178 C1173 1.350 . S
C1179 H1166 0.929 . S
C1179 C1171 1.433 . S
C1179 N1181 1.384 . S
N1180 C1176 1.427 . S
N1180 C1177 1.384 . S
N1181 C1173 1.427 . S
N1181 C1179 1.384 . S
H1182 C1188 0.930 . S
H1183 C1192 0.930 . S
H1184 C1197 0.929 . S
H1185 C1195 0.929 . S
H1186 C1190 0.929 . S
H1187 C1196 0.929 . S
C1188 H1182 0.930 . S
C1188 C1189 1.367 . S
C1188 C1196 1.378 . S
C1189 C1188 1.367 . S
C1189 C1197 1.433 . S
C1190 H1186 0.929 . S
C1190 C1192 1.378 . S
C1190 C1194 1.350 . S
C1191 C1194 1.463 . S
C1191 C1196 1.350 . S
C1191 N1199 1.427 . S
C1192 H1183 0.930 . S
C1192 C1190 1.378 . S
C1192 C1193 1.367 . S
C1193 C1192 1.367 . S
C1193 C1195 1.433 . S
C1194 C1190 1.350 . S
C1194 C1191 1.463 . S
C1194 N1198 1.427 . S
C1195 H1185 0.929 . S
C1195 C1193 1.433 . S
C1195 N1198 1.384 . S
C1196 H1187 0.929 . S
C1196 C1188 1.378 . S
C1196 C1191 1.350 . S
C1197 H1184 0.929 . S
C1197 C1189 1.433 . S
C1197 N1199 1.384 . S
N1198 C1194 1.427 . S
N1198 C1195 1.384 . S
N1199 C1191 1.427 . S
N1199 C1197 1.384 . S
H1200 C1206 0.930 . S
H1201 C1210 0.930 . S
H1202 C1215 0.929 . S
H1203 C1213 0.929 . S
H1204 C1208 0.929 . S
H1205 C1214 0.929 . S
C1206 H1200 0.930 . S
C1206 C1207 1.367 . S
C1206 C1214 1.378 . S
C1207 C1206 1.367 . S
C1207 C1215 1.433 . S
C1208 H1204 0.929 . S
C1208 C1210 1.378 . S
C1208 C1212 1.350 . S
C1209 C1212 1.463 . S
C1209 C1214 1.350 . S
C1209 N1217 1.427 . S
C1210 H1201 0.930 . S
C1210 C1208 1.378 . S
C1210 C1211 1.367 . S
C1211 C1210 1.367 . S
C1211 C1213 1.433 . S
C1212 C1208 1.350 . S
C1212 C1209 1.463 . S
C1212 N1216 1.427 . S
C1213 H1203 0.929 . S
C1213 C1211 1.433 . S
C1213 N1216 1.384 . S
C1214 H1205 0.929 . S
C1214 C1206 1.378 . S
C1214 C1209 1.350 . S
C1215 H1202 0.929 . S
C1215 C1207 1.433 . S
C1215 N1217 1.384 . S
N1216 C1212 1.427 . S
N1216 C1213 1.384 . S
N1217 C1209 1.427 . S
N1217 C1215 1.384 . S
H1218 C1224 0.930 . S
H1219 C1228 0.930 . S
H1220 C1233 0.929 . S
H1221 C1231 0.929 . S
H1222 C1226 0.929 . S
H1223 C1232 0.929 . S
C1224 H1218 0.930 . S
C1224 C1225 1.367 . S
C1224 C1232 1.378 . S
C1225 C1224 1.367 . S
C1225 C1233 1.433 1_556 S
C1226 H1222 0.929 . S
C1226 C1228 1.378 . S
C1226 C1230 1.350 . S
C1227 C1230 1.463 . S
C1227 C1232 1.350 . S
C1227 N1235 1.427 . S
C1228 H1219 0.930 . S
C1228 C1226 1.378 . S
C1228 C1229 1.367 . S
C1229 C1228 1.367 . S
C1229 C1231 1.433 . S
C1230 C1226 1.350 . S
C1230 C1227 1.463 . S
C1230 N1234 1.427 . S
C1231 H1221 0.929 . S
C1231 C1229 1.433 . S
C1231 N1234 1.384 . S
C1232 H1223 0.929 . S
C1232 C1224 1.378 . S
C1232 C1227 1.350 . S
C1233 H1220 0.929 . S
C1233 C1225 1.433 1_554 S
C1233 N1235 1.384 1_554 S
N1234 C1230 1.427 . S
N1234 C1231 1.384 . S
N1235 C1227 1.427 . S
N1235 C1233 1.384 1_556 S
H1236 C1242 0.930 . S
H1237 C1246 0.930 . S
H1238 C1251 0.929 . S
H1239 C1249 0.929 . S
H1240 C1244 0.929 . S
H1241 C1250 0.929 . S
C1242 H1236 0.930 . S
C1242 C1243 1.367 . S
C1242 C1250 1.378 . S
C1243 C1242 1.367 . S
C1243 C1251 1.433 . S
C1244 H1240 0.929 . S
C1244 C1246 1.378 . S
C1244 C1248 1.350 . S
C1245 C1248 1.463 . S
C1245 C1250 1.350 . S
C1245 N1253 1.427 . S
C1246 H1237 0.930 . S
C1246 C1244 1.378 . S
C1246 C1247 1.367 . S
C1247 C1246 1.367 . S
C1247 C1249 1.433 . S
C1248 C1244 1.350 . S
C1248 C1245 1.463 . S
C1248 N1252 1.427 . S
C1249 H1239 0.929 . S
C1249 C1247 1.433 . S
C1249 N1252 1.384 . S
C1250 H1241 0.929 . S
C1250 C1242 1.378 . S
C1250 C1245 1.350 . S
C1251 H1238 0.929 . S
C1251 C1243 1.433 . S
C1251 N1253 1.384 . S
N1252 C1248 1.427 . S
N1252 C1249 1.384 . S
N1253 C1245 1.427 . S
N1253 C1251 1.384 . S
H1254 C1260 0.930 . S
H1255 C1264 0.930 . S
H1256 C1269 0.929 . S
H1257 C1267 0.929 . S
H1258 C1262 0.929 . S
H1259 C1268 0.929 . S
C1260 H1254 0.930 . S
C1260 C1261 1.367 . S
C1260 C1268 1.378 . S
C1261 C1260 1.367 . S
C1261 C1269 1.433 . S
C1262 H1258 0.929 . S
C1262 C1264 1.378 . S
C1262 C1266 1.350 . S
C1263 C1266 1.463 . S
C1263 C1268 1.350 . S
C1263 N1271 1.427 . S
C1264 H1255 0.930 . S
C1264 C1262 1.378 . S
C1264 C1265 1.367 . S
C1265 C1264 1.367 . S
C1265 C1267 1.433 . S
C1266 C1262 1.350 . S
C1266 C1263 1.463 . S
C1266 N1270 1.427 . S
C1267 H1257 0.929 . S
C1267 C1265 1.433 . S
C1267 N1270 1.384 . S
C1268 H1259 0.929 . S
C1268 C1260 1.378 . S
C1268 C1263 1.350 . S
C1269 H1256 0.929 . S
C1269 C1261 1.433 . S
C1269 N1271 1.384 . S
N1270 C1266 1.427 . S
N1270 C1267 1.384 . S
N1271 C1263 1.427 . S
N1271 C1269 1.384 . S
H1272 C1278 0.930 1_554 S
H1273 C1282 0.930 . S
H1274 C1287 0.929 . S
H1275 C1285 0.929 . S
H1276 C1280 0.929 . S
H1277 C1286 0.929 . S
C1278 H1272 0.930 1_556 S
C1278 C1279 1.367 . S
C1278 C1286 1.378 . S
C1279 C1278 1.367 . S
C1279 C1287 1.433 . S
C1280 H1276 0.929 . S
C1280 C1282 1.378 . S
C1280 C1284 1.350 . S
C1281 C1284 1.463 . S
C1281 C1286 1.350 . S
C1281 N1289 1.427 . S
C1282 H1273 0.930 . S
C1282 C1280 1.378 . S
C1282 C1283 1.367 . S
C1283 C1282 1.367 . S
C1283 C1285 1.433 . S
C1284 C1280 1.350 . S
C1284 C1281 1.463 . S
C1284 N1288 1.427 . S
C1285 H1275 0.929 . S
C1285 C1283 1.433 . S
C1285 N1288 1.384 . S
C1286 H1277 0.929 . S
C1286 C1278 1.378 . S
C1286 C1281 1.350 . S
C1287 H1274 0.929 . S
C1287 C1279 1.433 . S
C1287 N1289 1.384 . S
N1288 C1284 1.427 . S
N1288 C1285 1.384 . S
N1289 C1281 1.427 . S
N1289 C1287 1.384 . S
H1290 C1296 0.930 . S
H1291 C1300 0.930 . S
H1292 C1305 0.929 . S
H1293 C1303 0.929 . S
H1294 C1298 0.929 . S
H1295 C1304 0.929 . S
C1296 H1290 0.930 . S
C1296 C1297 1.367 . S
C1296 C1304 1.378 . S
C1297 C1296 1.367 . S
C1297 C1305 1.433 . S
C1298 H1294 0.929 . S
C1298 C1300 1.378 . S
C1298 C1302 1.350 . S
C1299 C1302 1.463 . S
C1299 C1304 1.350 . S
C1299 N1307 1.427 . S
C1300 H1291 0.930 . S
C1300 C1298 1.378 . S
C1300 C1301 1.367 . S
C1301 C1300 1.367 . S
C1301 C1303 1.433 . S
C1302 C1298 1.350 . S
C1302 C1299 1.463 . S
C1302 N1306 1.427 . S
C1303 H1293 0.929 . S
C1303 C1301 1.433 . S
C1303 N1306 1.384 . S
C1304 H1295 0.929 . S
C1304 C1296 1.378 . S
C1304 C1299 1.350 . S
C1305 H1292 0.929 . S
C1305 C1297 1.433 . S
C1305 N1307 1.384 . S
N1306 C1302 1.427 . S
N1306 C1303 1.384 . S
N1307 C1299 1.427 . S
N1307 C1305 1.384 . S
H1308 C1314 0.930 . S
H1309 C1318 0.930 . S
H1310 C1323 0.929 . S
H1311 C1321 0.929 . S
H1312 C1316 0.929 . S
H1313 C1322 0.929 . S
C1314 H1308 0.930 . S
C1314 C1315 1.367 . S
C1314 C1322 1.378 . S
C1315 C1314 1.367 . S
C1315 C1323 1.433 . S
C1316 H1312 0.929 . S
C1316 C1318 1.378 . S
C1316 C1320 1.350 . S
C1317 C1320 1.463 . S
C1317 C1322 1.350 . S
C1317 N1325 1.427 . S
C1318 H1309 0.930 . S
C1318 C1316 1.378 . S
C1318 C1319 1.367 . S
C1319 C1318 1.367 . S
C1319 C1321 1.433 . S
C1320 C1316 1.350 . S
C1320 C1317 1.463 . S
C1320 N1324 1.427 . S
C1321 H1311 0.929 . S
C1321 C1319 1.433 . S
C1321 N1324 1.384 . S
C1322 H1313 0.929 . S
C1322 C1314 1.378 . S
C1322 C1317 1.350 . S
C1323 H1310 0.929 . S
C1323 C1315 1.433 . S
C1323 N1325 1.384 . S
N1324 C1320 1.427 . S
N1324 C1321 1.384 . S
N1325 C1317 1.427 . S
N1325 C1323 1.384 . S
H1326 C1332 0.930 . S
H1327 C1336 0.930 . S
H1328 C1341 0.929 . S
H1329 C1339 0.929 . S
H1330 C1334 0.929 . S
H1331 C1340 0.929 . S
C1332 H1326 0.930 . S
C1332 C1333 1.367 . S
C1332 C1340 1.378 . S
C1333 C1332 1.367 . S
C1333 C1341 1.433 . S
C1334 H1330 0.929 . S
C1334 C1336 1.378 . S
C1334 C1338 1.350 . S
C1335 C1338 1.463 . S
C1335 C1340 1.350 . S
C1335 N1343 1.427 . S
C1336 H1327 0.930 . S
C1336 C1334 1.378 . S
C1336 C1337 1.367 . S
C1337 C1336 1.367 . S
C1337 C1339 1.433 . S
C1338 C1334 1.350 . S
C1338 C1335 1.463 . S
C1338 N1342 1.427 . S
C1339 H1329 0.929 . S
C1339 C1337 1.433 . S
C1339 N1342 1.384 . S
C1340 H1331 0.929 . S
C1340 C1332 1.378 . S
C1340 C1335 1.350 . S
C1341 H1328 0.929 . S
C1341 C1333 1.433 . S
C1341 N1343 1.384 . S
N1342 C1338 1.427 . S
N1342 C1339 1.384 . S
N1343 C1335 1.427 . S
N1343 C1341 1.384 . S
H1344 C1350 0.930 . S
H1345 C1354 0.930 . S
H1346 C1359 0.929 . S
H1347 C1357 0.929 . S
H1348 C1352 0.929 . S
H1349 C1358 0.929 . S
C1350 H1344 0.930 . S
C1350 C1351 1.367 . S
C1350 C1358 1.378 . S
C1351 C1350 1.367 . S
C1351 C1359 1.433 . S
C1352 H1348 0.929 . S
C1352 C1354 1.378 . S
C1352 C1356 1.350 . S
C1353 C1356 1.463 . S
C1353 C1358 1.350 . S
C1353 N1361 1.427 . S
C1354 H1345 0.930 . S
C1354 C1352 1.378 . S
C1354 C1355 1.367 . S
C1355 C1354 1.367 . S
C1355 C1357 1.433 . S
C1356 C1352 1.350 . S
C1356 C1353 1.463 . S
C1356 N1360 1.427 . S
C1357 H1347 0.929 . S
C1357 C1355 1.433 . S
C1357 N1360 1.384 . S
C1358 H1349 0.929 . S
C1358 C1350 1.378 . S
C1358 C1353 1.350 . S
C1359 H1346 0.929 . S
C1359 C1351 1.433 . S
C1359 N1361 1.384 . S
N1360 C1356 1.427 . S
N1360 C1357 1.384 . S
N1361 C1353 1.427 . S
N1361 C1359 1.384 . S
H1362 C1368 0.930 . S
H1363 C1372 0.930 . S
H1364 C1377 0.929 . S
H1365 C1375 0.929 . S
H1366 C1370 0.905 1_545 S
H1367 C1376 0.929 . S
C1368 H1362 0.930 . S
C1368 C1369 1.367 . S
C1368 C1376 1.378 . S
C1369 C1368 1.367 . S
C1369 C1377 1.433 1_565 S
C1370 H1366 0.905 1_565 S
C1370 C1372 1.378 . S
C1370 C1374 1.350 . S
C1371 C1374 1.463 . S
C1371 C1376 1.350 . S
C1371 N1379 1.427 . S
C1372 H1363 0.930 . S
C1372 C1370 1.378 . S
C1372 C1373 1.367 . S
C1373 C1372 1.367 . S
C1373 C1375 1.433 . S
C1374 C1370 1.350 . S
C1374 C1371 1.463 . S
C1374 N1378 1.427 . S
C1375 H1365 0.929 . S
C1375 C1373 1.433 . S
C1375 N1378 1.384 . S
C1376 H1367 0.929 . S
C1376 C1368 1.378 . S
C1376 C1371 1.350 . S
C1377 H1364 0.929 . S
C1377 C1369 1.433 1_545 S
C1377 N1379 1.384 1_545 S
N1378 C1374 1.427 . S
N1378 C1375 1.384 . S
N1379 C1371 1.427 . S
N1379 C1377 1.384 1_565 S
H1380 C1386 0.930 . S
H1381 C1390 0.930 . S
H1382 C1395 0.929 . S
H1383 C1393 0.929 . S
H1384 C1388 0.929 . S
H1385 C1394 0.929 . S
C1386 H1380 0.930 . S
C1386 C1387 1.367 . S
C1386 C1394 1.378 . S
C1387 C1386 1.367 . S
C1387 C1395 1.433 . S
C1388 H1384 0.929 . S
C1388 C1390 1.378 . S
C1388 C1392 1.350 . S
C1389 C1392 1.463 . S
C1389 C1394 1.350 . S
C1389 N1397 1.427 . S
C1390 H1381 0.930 . S
C1390 C1388 1.378 . S
C1390 C1391 1.367 . S
C1391 C1390 1.367 . S
C1391 C1393 1.433 . S
C1392 C1388 1.350 . S
C1392 C1389 1.463 . S
C1392 N1396 1.427 . S
C1393 H1383 0.929 . S
C1393 C1391 1.433 . S
C1393 N1396 1.384 . S
C1394 H1385 0.929 . S
C1394 C1386 1.378 . S
C1394 C1389 1.350 . S
C1395 H1382 0.929 . S
C1395 C1387 1.433 . S
C1395 N1397 1.384 . S
N1396 C1392 1.427 . S
N1396 C1393 1.384 . S
N1397 C1389 1.427 . S
N1397 C1395 1.384 . S
H1398 C1404 0.930 . S
H1399 C1408 0.930 . S
H1400 C1413 0.929 . S
H1401 C1411 0.929 . S
H1402 C1406 0.929 . S
H1403 C1412 0.929 . S
C1404 H1398 0.930 . S
C1404 C1405 1.367 . S
C1404 C1412 1.378 . S
C1405 C1404 1.367 . S
C1405 C1413 1.433 . S
C1406 H1402 0.929 . S
C1406 C1408 1.378 . S
C1406 C1410 1.350 . S
C1407 C1410 1.463 . S
C1407 C1412 1.350 . S
C1407 N1415 1.427 . S
C1408 H1399 0.930 . S
C1408 C1406 1.378 . S
C1408 C1409 1.367 . S
C1409 C1408 1.367 . S
C1409 C1411 1.433 . S
C1410 C1406 1.350 . S
C1410 C1407 1.463 . S
C1410 N1414 1.427 . S
C1411 H1401 0.929 . S
C1411 C1409 1.433 . S
C1411 N1414 1.384 . S
C1412 H1403 0.929 . S
C1412 C1404 1.378 . S
C1412 C1407 1.350 . S
C1413 H1400 0.929 . S
C1413 C1405 1.433 . S
C1413 N1415 1.384 . S
N1414 C1410 1.427 . S
N1414 C1411 1.384 . S
N1415 C1407 1.427 . S
N1415 C1413 1.384 . S
H1416 C1422 0.930 . S
H1417 C1426 0.930 . S
H1418 C1431 0.929 . S
H1419 C1429 0.929 . S
H1420 C1424 0.929 . S
H1421 C1430 0.929 . S
C1422 H1416 0.930 . S
C1422 C1423 1.367 . S
C1422 C1430 1.378 . S
C1423 C1422 1.367 . S
C1423 C1431 1.433 . S
C1424 H1420 0.929 . S
C1424 C1426 1.378 1_655 S
C1424 C1428 1.350 . S
C1425 C1428 1.463 . S
C1425 C1430 1.350 . S
C1425 N1433 1.427 . S
C1426 H1417 0.930 . S
C1426 C1424 1.378 1_455 S
C1426 C1427 1.367 1_455 S
C1427 C1426 1.367 1_655 S
C1427 C1429 1.433 . S
C1428 C1424 1.350 . S
C1428 C1425 1.463 . S
C1428 N1432 1.427 . S
C1429 H1419 0.929 . S
C1429 C1427 1.433 . S
C1429 N1432 1.384 . S
C1430 H1421 0.929 . S
C1430 C1422 1.378 . S
C1430 C1425 1.350 . S
C1431 H1418 0.929 . S
C1431 C1423 1.433 . S
C1431 N1433 1.384 . S
N1432 C1428 1.427 . S
N1432 C1429 1.384 . S
N1433 C1425 1.427 . S
N1433 C1431 1.384 . S
H1434 C1440 0.930 . S
H1435 C1444 0.930 . S
H1436 C1449 0.929 . S
H1437 C1447 0.929 . S
H1438 C1442 0.929 . S
H1439 C1448 0.929 . S
C1440 H1434 0.930 . S
C1440 C1441 1.367 . S
C1440 C1448 1.378 . S
C1441 C1440 1.367 . S
C1441 C1449 1.433 . S
C1442 H1438 0.929 . S
C1442 C1444 1.378 . S
C1442 C1446 1.350 . S
C1443 C1446 1.463 . S
C1443 C1448 1.350 . S
C1443 N1451 1.427 . S
C1444 H1435 0.930 . S
C1444 C1442 1.378 . S
C1444 C1445 1.367 . S
C1445 C1444 1.367 . S
C1445 C1447 1.433 . S
C1446 C1442 1.350 . S
C1446 C1443 1.463 . S
C1446 N1450 1.427 . S
C1447 H1437 0.929 . S
C1447 C1445 1.433 . S
C1447 N1450 1.384 . S
C1448 H1439 0.929 . S
C1448 C1440 1.378 . S
C1448 C1443 1.350 . S
C1449 H1436 0.929 . S
C1449 C1441 1.433 . S
C1449 N1451 1.384 . S
N1450 C1446 1.427 . S
N1450 C1447 1.384 . S
N1451 C1443 1.427 . S
N1451 C1449 1.384 . S
H1452 C1458 0.930 . S
H1453 C1462 0.930 . S
H1454 C1467 0.929 . S
H1455 C1465 0.929 . S
H1456 C1460 0.929 . S
H1457 C1466 0.929 . S
C1458 H1452 0.930 . S
C1458 C1459 1.367 . S
C1458 C1466 1.378 . S
C1459 C1458 1.367 . S
C1459 C1467 1.433 . S
C1460 H1456 0.929 . S
C1460 C1462 1.378 . S
C1460 C1464 1.350 . S
C1461 C1464 1.463 . S
C1461 C1466 1.350 . S
C1461 N1469 1.427 . S
C1462 H1453 0.930 . S
C1462 C1460 1.378 . S
C1462 C1463 1.367 . S
C1463 C1462 1.367 . S
C1463 C1465 1.433 . S
C1464 C1460 1.350 . S
C1464 C1461 1.463 . S
C1464 N1468 1.427 . S
C1465 H1455 0.929 . S
C1465 C1463 1.433 . S
C1465 N1468 1.384 . S
C1466 H1457 0.929 . S
C1466 C1458 1.378 . S
C1466 C1461 1.350 . S
C1467 H1454 0.929 . S
C1467 C1459 1.433 . S
C1467 N1469 1.384 . S
N1468 C1464 1.427 . S
N1468 C1465 1.384 . S
N1469 C1461 1.427 . S
N1469 C1467 1.384 . S
H1470 C1476 0.930 . S
H1471 C1480 0.930 . S
H1472 C1485 0.929 . S
H1473 C1483 0.929 . S
H1474 C1478 0.929 . S
H1475 C1484 0.929 . S
C1476 H1470 0.930 . S
C1476 C1477 1.367 . S
C1476 C1484 1.378 . S
C1477 C1476 1.367 . S
C1477 C1485 1.433 . S
C1478 H1474 0.929 . S
C1478 C1480 1.378 . S
C1478 C1482 1.350 . S
C1479 C1482 1.463 . S
C1479 C1484 1.350 . S
C1479 N1487 1.427 . S
C1480 H1471 0.930 . S
C1480 C1478 1.378 . S
C1480 C1481 1.367 . S
C1481 C1480 1.367 . S
C1481 C1483 1.433 . S
C1482 C1478 1.350 . S
C1482 C1479 1.463 . S
C1482 N1486 1.427 . S
C1483 H1473 0.929 . S
C1483 C1481 1.433 . S
C1483 N1486 1.384 . S
C1484 H1475 0.929 . S
C1484 C1476 1.378 . S
C1484 C1479 1.350 . S
C1485 H1472 0.929 . S
C1485 C1477 1.433 . S
C1485 N1487 1.384 . S
N1486 C1482 1.427 . S
N1486 C1483 1.384 . S
N1487 C1479 1.427 . S
N1487 C1485 1.384 . S
H1488 C1494 0.930 . S
H1489 C1498 0.930 . S
H1490 C1503 0.929 . S
H1491 C1501 0.929 . S
H1492 C1496 0.929 . S
H1493 C1502 0.929 . S
C1494 H1488 0.930 . S
C1494 C1495 1.367 . S
C1494 C1502 1.378 . S
C1495 C1494 1.367 . S
C1495 C1503 1.433 . S
C1496 H1492 0.929 . S
C1496 C1498 1.378 . S
C1496 C1500 1.350 . S
C1497 C1500 1.463 . S
C1497 C1502 1.350 . S
C1497 N1505 1.427 . S
C1498 H1489 0.930 . S
C1498 C1496 1.378 . S
C1498 C1499 1.367 . S
C1499 C1498 1.367 . S
C1499 C1501 1.433 . S
C1500 C1496 1.350 . S
C1500 C1497 1.463 . S
C1500 N1504 1.427 . S
C1501 H1491 0.929 . S
C1501 C1499 1.433 . S
C1501 N1504 1.384 . S
C1502 H1493 0.929 . S
C1502 C1494 1.378 . S
C1502 C1497 1.350 . S
C1503 H1490 0.929 . S
C1503 C1495 1.433 . S
C1503 N1505 1.384 . S
N1504 C1500 1.427 . S
N1504 C1501 1.384 . S
N1505 C1497 1.427 . S
N1505 C1503 1.384 . S
H1506 C1512 0.930 . S
H1507 C1516 0.930 . S
H1508 C1521 0.929 . S
H1509 C1519 0.929 . S
H1510 C1514 0.929 . S
H1511 C1520 0.929 . S
C1512 H1506 0.930 . S
C1512 C1513 1.367 . S
C1512 C1520 1.378 . S
C1513 C1512 1.367 . S
C1513 C1521 1.433 . S
C1514 H1510 0.929 . S
C1514 C1516 1.378 . S
C1514 C1518 1.350 . S
C1515 C1518 1.463 . S
C1515 C1520 1.350 . S
C1515 N1523 1.427 . S
C1516 H1507 0.930 . S
C1516 C1514 1.378 . S
C1516 C1517 1.367 . S
C1517 C1516 1.367 . S
C1517 C1519 1.433 . S
C1518 C1514 1.350 . S
C1518 C1515 1.463 . S
C1518 N1522 1.427 . S
C1519 H1509 0.929 . S
C1519 C1517 1.433 . S
C1519 N1522 1.384 . S
C1520 H1511 0.929 . S
C1520 C1512 1.378 . S
C1520 C1515 1.350 . S
C1521 H1508 0.929 . S
C1521 C1513 1.433 . S
C1521 N1523 1.384 . S
N1522 C1518 1.427 . S
N1522 C1519 1.384 . S
N1523 C1515 1.427 . S
N1523 C1521 1.384 . S
H1524 C1530 0.930 . S
H1525 C1534 0.930 . S
H1526 C1539 0.929 . S
H1527 C1537 0.929 . S
H1528 C1532 0.929 . S
H1529 C1538 0.929 . S
C1530 H1524 0.930 . S
C1530 C1531 1.367 . S
C1530 C1538 1.378 . S
C1531 C1530 1.367 . S
C1531 C1539 1.433 . S
C1532 H1528 0.929 . S
C1532 C1534 1.378 . S
C1532 C1536 1.350 . S
C1533 C1536 1.463 . S
C1533 C1538 1.350 . S
C1533 N1541 1.427 . S
C1534 H1525 0.930 . S
C1534 C1532 1.378 . S
C1534 C1535 1.367 . S
C1535 C1534 1.367 . S
C1535 C1537 1.433 . S
C1536 C1532 1.350 . S
C1536 C1533 1.463 . S
C1536 N1540 1.427 . S
C1537 H1527 0.929 . S
C1537 C1535 1.433 . S
C1537 N1540 1.384 . S
C1538 H1529 0.929 . S
C1538 C1530 1.378 . S
C1538 C1533 1.350 . S
C1539 H1526 0.929 . S
C1539 C1531 1.433 . S
C1539 N1541 1.384 . S
N1540 C1536 1.427 . S
N1540 C1537 1.384 . S
N1541 C1533 1.427 . S
N1541 C1539 1.384 . S
H1542 C1548 0.930 . S
H1543 C1552 0.930 . S
H1544 C1557 0.929 . S
H1545 C1555 0.929 . S
H1546 C1550 0.929 . S
H1547 C1556 0.929 . S
C1548 H1542 0.930 . S
C1548 C1549 1.367 . S
C1548 C1556 1.378 . S
C1549 C1548 1.367 . S
C1549 C1557 1.433 . S
C1550 H1546 0.929 . S
C1550 C1552 1.378 . S
C1550 C1554 1.350 . S
C1551 C1554 1.463 . S
C1551 C1556 1.350 . S
C1551 N1559 1.427 . S
C1552 H1543 0.930 . S
C1552 C1550 1.378 . S
C1552 C1553 1.367 . S
C1553 C1552 1.367 . S
C1553 C1555 1.433 . S
C1554 C1550 1.350 . S
C1554 C1551 1.463 . S
C1554 N1558 1.427 . S
C1555 H1545 0.929 . S
C1555 C1553 1.433 . S
C1555 N1558 1.384 . S
C1556 H1547 0.929 . S
C1556 C1548 1.378 . S
C1556 C1551 1.350 . S
C1557 H1544 0.929 . S
C1557 C1549 1.433 . S
C1557 N1559 1.384 . S
N1558 C1554 1.427 . S
N1558 C1555 1.384 . S
N1559 C1551 1.427 . S
N1559 C1557 1.384 . S
H1560 C1566 0.930 . S
H1561 C1570 0.930 . S
H1562 C1575 0.929 . S
H1563 C1573 0.929 . S
H1564 C1568 0.929 . S
H1565 C1574 0.929 . S
C1566 H1560 0.930 . S
C1566 C1567 1.367 . S
C1566 C1574 1.378 . S
C1567 C1566 1.367 . S
C1567 C1575 1.433 . S
C1568 H1564 0.929 . S
C1568 C1570 1.378 . S
C1568 C1572 1.350 . S
C1569 C1572 1.463 . S
C1569 C1574 1.350 . S
C1569 N1577 1.427 . S
C1570 H1561 0.930 . S
C1570 C1568 1.378 . S
C1570 C1571 1.367 . S
C1571 C1570 1.367 . S
C1571 C1573 1.433 . S
C1572 C1568 1.350 . S
C1572 C1569 1.463 . S
C1572 N1576 1.427 . S
C1573 H1563 0.929 . S
C1573 C1571 1.433 . S
C1573 N1576 1.384 . S
C1574 H1565 0.929 . S
C1574 C1566 1.378 . S
C1574 C1569 1.350 . S
C1575 H1562 0.929 . S
C1575 C1567 1.433 . S
C1575 N1577 1.384 . S
N1576 C1572 1.427 . S
N1576 C1573 1.384 . S
N1577 C1569 1.427 . S
N1577 C1575 1.384 . S
H1578 C1584 0.930 . S
H1579 C1588 0.930 . S
H1580 C1593 0.929 . S
H1581 C1591 0.929 . S
H1582 C1586 0.929 . S
H1583 C1592 0.929 . S
C1584 H1578 0.930 . S
C1584 C1585 1.367 . S
C1584 C1592 1.378 . S
C1585 C1584 1.367 . S
C1585 C1593 1.433 . S
C1586 H1582 0.929 . S
C1586 C1588 1.378 . S
C1586 C1590 1.350 . S
C1587 C1590 1.463 . S
C1587 C1592 1.350 . S
C1587 N1595 1.427 . S
C1588 H1579 0.930 . S
C1588 C1586 1.378 . S
C1588 C1589 1.367 . S
C1589 C1588 1.367 . S
C1589 C1591 1.433 . S
C1590 C1586 1.350 . S
C1590 C1587 1.463 . S
C1590 N1594 1.427 . S
C1591 H1581 0.929 . S
C1591 C1589 1.433 . S
C1591 N1594 1.384 . S
C1592 H1583 0.929 . S
C1592 C1584 1.378 . S
C1592 C1587 1.350 . S
C1593 H1580 0.929 . S
C1593 C1585 1.433 . S
C1593 N1595 1.384 . S
N1594 C1590 1.427 . S
N1594 C1591 1.384 . S
N1595 C1587 1.427 . S
N1595 C1593 1.384 . S
H1596 C1602 0.930 . S
H1597 C1606 0.930 . S
H1598 C1611 0.929 . S
H1599 C1609 0.929 . S
H1600 C1604 0.929 . S
H1601 C1610 0.929 . S
C1602 H1596 0.930 . S
C1602 C1603 1.367 . S
C1602 C1610 1.378 . S
C1603 C1602 1.367 . S
C1603 C1611 1.433 . S
C1604 H1600 0.929 . S
C1604 C1606 1.378 . S
C1604 C1608 1.350 . S
C1605 C1608 1.463 . S
C1605 C1610 1.350 . S
C1605 N1613 1.427 . S
C1606 H1597 0.930 . S
C1606 C1604 1.378 . S
C1606 C1607 1.367 . S
C1607 C1606 1.367 . S
C1607 C1609 1.433 . S
C1608 C1604 1.350 . S
C1608 C1605 1.463 . S
C1608 N1612 1.427 . S
C1609 H1599 0.929 . S
C1609 C1607 1.433 . S
C1609 N1612 1.384 . S
C1610 H1601 0.929 . S
C1610 C1602 1.378 . S
C1610 C1605 1.350 . S
C1611 H1598 0.929 . S
C1611 C1603 1.433 . S
C1611 N1613 1.384 . S
N1612 C1608 1.427 . S
N1612 C1609 1.384 . S
N1613 C1605 1.427 . S
N1613 C1611 1.384 . S
H1614 C1620 0.930 . S
H1615 C1624 0.930 . S
H1616 C1629 0.929 . S
H1617 C1627 0.929 . S
H1618 C1622 0.929 . S
H1619 C1628 0.929 . S
C1620 H1614 0.930 . S
C1620 C1621 1.367 . S
C1620 C1628 1.378 . S
C1621 C1620 1.367 . S
C1621 C1629 1.433 . S
C1622 H1618 0.929 . S
C1622 C1624 1.378 . S
C1622 C1626 1.350 . S
C1623 C1626 1.463 . S
C1623 C1628 1.350 . S
C1623 N1631 1.427 . S
C1624 H1615 0.930 . S
C1624 C1622 1.378 . S
C1624 C1625 1.367 . S
C1625 C1624 1.367 . S
C1625 C1627 1.433 . S
C1626 C1622 1.350 . S
C1626 C1623 1.463 . S
C1626 N1630 1.427 . S
C1627 H1617 0.929 . S
C1627 C1625 1.433 . S
C1627 N1630 1.384 . S
C1628 H1619 0.929 . S
C1628 C1620 1.378 . S
C1628 C1623 1.350 . S
C1629 H1616 0.929 . S
C1629 C1621 1.433 . S
C1629 N1631 1.384 . S
N1630 C1626 1.427 . S
N1630 C1627 1.384 . S
N1631 C1623 1.427 . S
N1631 C1629 1.384 . S
H1632 C1638 0.930 . S
H1633 C1642 0.930 . S
H1634 C1647 0.929 . S
H1635 C1645 0.929 . S
H1636 C1640 0.929 . S
H1637 C1646 0.929 . S
C1638 H1632 0.930 . S
C1638 C1639 1.367 . S
C1638 C1646 1.378 . S
C1639 C1638 1.367 . S
C1639 C1647 1.433 . S
C1640 H1636 0.929 . S
C1640 C1642 1.378 . S
C1640 C1644 1.350 . S
C1641 C1644 1.463 . S
C1641 C1646 1.350 . S
C1641 N1649 1.427 . S
C1642 H1633 0.930 . S
C1642 C1640 1.378 . S
C1642 C1643 1.367 . S
C1643 C1642 1.367 . S
C1643 C1645 1.433 . S
C1644 C1640 1.350 . S
C1644 C1641 1.463 . S
C1644 N1648 1.427 . S
C1645 H1635 0.929 . S
C1645 C1643 1.433 . S
C1645 N1648 1.384 . S
C1646 H1637 0.929 . S
C1646 C1638 1.378 . S
C1646 C1641 1.350 . S
C1647 H1634 0.929 . S
C1647 C1639 1.433 . S
C1647 N1649 1.384 . S
N1648 C1644 1.427 . S
N1648 C1645 1.384 . S
N1649 C1641 1.427 . S
N1649 C1647 1.384 . S
H1650 C1656 0.930 . S
H1651 C1660 0.930 . S
H1652 C1665 0.929 . S
H1653 C1663 0.929 . S
H1654 C1658 0.929 . S
H1655 C1664 0.929 . S
C1656 H1650 0.930 . S
C1656 C1657 1.367 . S
C1656 C1664 1.378 . S
C1657 C1656 1.367 . S
C1657 C1665 1.433 . S
C1658 H1654 0.929 . S
C1658 C1660 1.378 . S
C1658 C1662 1.350 . S
C1659 C1662 1.463 . S
C1659 C1664 1.350 . S
C1659 N1667 1.427 . S
C1660 H1651 0.930 . S
C1660 C1658 1.378 . S
C1660 C1661 1.367 . S
C1661 C1660 1.367 . S
C1661 C1663 1.433 . S
C1662 C1658 1.350 . S
C1662 C1659 1.463 . S
C1662 N1666 1.427 . S
C1663 H1653 0.929 . S
C1663 C1661 1.433 . S
C1663 N1666 1.384 . S
C1664 H1655 0.929 . S
C1664 C1656 1.378 . S
C1664 C1659 1.350 . S
C1665 H1652 0.929 . S
C1665 C1657 1.433 . S
C1665 N1667 1.384 . S
N1666 C1662 1.427 . S
N1666 C1663 1.384 . S
N1667 C1659 1.427 . S
N1667 C1665 1.384 . S
H1668 C1674 0.930 . S
H1669 C1678 0.930 . S
H1670 C1683 0.929 . S
H1671 C1681 0.929 . S
H1672 C1676 0.929 . S
H1673 C1682 0.929 . S
C1674 H1668 0.930 . S
C1674 C1675 1.367 . S
C1674 C1682 1.378 . S
C1675 C1674 1.367 . S
C1675 C1683 1.433 . S
C1676 H1672 0.929 . S
C1676 C1678 1.378 . S
C1676 C1680 1.350 . S
C1677 C1680 1.463 . S
C1677 C1682 1.350 . S
C1677 N1685 1.427 . S
C1678 H1669 0.930 . S
C1678 C1676 1.378 . S
C1678 C1679 1.367 . S
C1679 C1678 1.367 . S
C1679 C1681 1.433 . S
C1680 C1676 1.350 . S
C1680 C1677 1.463 . S
C1680 N1684 1.427 . S
C1681 H1671 0.929 . S
C1681 C1679 1.433 . S
C1681 N1684 1.384 . S
C1682 H1673 0.929 . S
C1682 C1674 1.378 . S
C1682 C1677 1.350 . S
C1683 H1670 0.929 . S
C1683 C1675 1.433 . S
C1683 N1685 1.384 . S
N1684 C1680 1.427 . S
N1684 C1681 1.384 . S
N1685 C1677 1.427 . S
N1685 C1683 1.384 . S
H1686 C1692 0.930 . S
H1687 C1696 0.930 . S
H1688 C1701 0.929 . S
H1689 C1699 0.929 . S
H1690 C1694 0.929 . S
H1691 C1700 0.929 . S
C1692 H1686 0.930 . S
C1692 C1693 1.367 . S
C1692 C1700 1.378 . S
C1693 C1692 1.367 . S
C1693 C1701 1.433 . S
C1694 H1690 0.929 . S
C1694 C1696 1.378 . S
C1694 C1698 1.350 . S
C1695 C1698 1.463 . S
C1695 C1700 1.350 . S
C1695 N1703 1.427 . S
C1696 H1687 0.930 . S
C1696 C1694 1.378 . S
C1696 C1697 1.367 . S
C1697 C1696 1.367 . S
C1697 C1699 1.433 . S
C1698 C1694 1.350 . S
C1698 C1695 1.463 . S
C1698 N1702 1.427 . S
C1699 H1689 0.929 . S
C1699 C1697 1.433 . S
C1699 N1702 1.384 . S
C1700 H1691 0.929 . S
C1700 C1692 1.378 . S
C1700 C1695 1.350 . S
C1701 H1688 0.929 . S
C1701 C1693 1.433 . S
C1701 N1703 1.384 . S
N1702 C1698 1.427 . S
N1702 C1699 1.384 . S
N1703 C1695 1.427 . S
N1703 C1701 1.384 . S
H1704 C1710 0.930 . S
H1705 C1714 0.930 . S
H1706 C1719 0.929 . S
H1707 C1717 0.929 . S
H1708 C1712 0.929 . S
H1709 C1718 0.929 . S
C1710 H1704 0.930 . S
C1710 C1711 1.367 . S
C1710 C1718 1.378 . S
C1711 C1710 1.367 . S
C1711 C1719 1.433 . S
C1712 H1708 0.929 . S
C1712 C1714 1.378 . S
C1712 C1716 1.350 . S
C1713 C1716 1.463 . S
C1713 C1718 1.350 . S
C1713 N1721 1.427 . S
C1714 H1705 0.930 . S
C1714 C1712 1.378 . S
C1714 C1715 1.367 . S
C1715 C1714 1.367 . S
C1715 C1717 1.433 . S
C1716 C1712 1.350 . S
C1716 C1713 1.463 . S
C1716 N1720 1.427 . S
C1717 H1707 0.929 . S
C1717 C1715 1.433 . S
C1717 N1720 1.384 . S
C1718 H1709 0.929 . S
C1718 C1710 1.378 . S
C1718 C1713 1.350 . S
C1719 H1706 0.929 . S
C1719 C1711 1.433 . S
C1719 N1721 1.384 . S
N1720 C1716 1.427 . S
N1720 C1717 1.384 . S
N1721 C1713 1.427 . S
N1721 C1719 1.384 . S
H1722 C1728 0.930 . S
H1723 C1732 0.930 . S
H1724 C1737 0.929 . S
H1725 C1735 0.929 . S
H1726 C1730 0.929 . S
H1727 C1736 0.929 . S
C1728 H1722 0.930 . S
C1728 C1729 1.367 . S
C1728 C1736 1.378 . S
C1729 C1728 1.367 . S
C1729 C1737 1.433 . S
C1730 H1726 0.929 . S
C1730 C1732 1.378 . S
C1730 C1734 1.350 . S
C1731 C1734 1.463 . S
C1731 C1736 1.350 . S
C1731 N1739 1.427 . S
C1732 H1723 0.930 . S
C1732 C1730 1.378 . S
C1732 C1733 1.367 . S
C1733 C1732 1.367 . S
C1733 C1735 1.433 . S
C1734 C1730 1.350 . S
C1734 C1731 1.463 . S
C1734 N1738 1.427 . S
C1735 H1725 0.929 . S
C1735 C1733 1.433 . S
C1735 N1738 1.384 . S
C1736 H1727 0.929 . S
C1736 C1728 1.378 . S
C1736 C1731 1.350 . S
C1737 H1724 0.929 . S
C1737 C1729 1.433 . S
C1737 N1739 1.384 . S
N1738 C1734 1.427 . S
N1738 C1735 1.384 . S
N1739 C1731 1.427 . S
N1739 C1737 1.384 . S
H1740 C1746 0.930 . S
H1741 C1750 0.930 . S
H1742 C1755 0.929 1_554 S
H1743 C1753 0.929 . S
H1744 C1748 0.929 . S
H1745 C1754 0.929 . S
C1746 H1740 0.930 . S
C1746 C1747 1.367 . S
C1746 C1754 1.378 . S
C1747 C1746 1.367 . S
C1747 C1755 1.433 . S
C1748 H1744 0.929 . S
C1748 C1750 1.378 . S
C1748 C1752 1.350 . S
C1749 C1752 1.463 . S
C1749 C1754 1.350 . S
C1749 N1757 1.427 . S
C1750 H1741 0.930 . S
C1750 C1748 1.378 . S
C1750 C1751 1.367 . S
C1751 C1750 1.367 . S
C1751 C1753 1.433 . S
C1752 C1748 1.350 . S
C1752 C1749 1.463 . S
C1752 N1756 1.427 . S
C1753 H1743 0.929 . S
C1753 C1751 1.433 . S
C1753 N1756 1.384 . S
C1754 H1745 0.929 . S
C1754 C1746 1.378 . S
C1754 C1749 1.350 . S
C1755 H1742 0.929 1_556 S
C1755 C1747 1.433 . S
C1755 N1757 1.384 . S
N1756 C1752 1.427 . S
N1756 C1753 1.384 . S
N1757 C1749 1.427 . S
N1757 C1755 1.384 . S
H1758 C1764 0.930 . S
H1759 C1768 0.930 . S
H1760 C1773 0.929 . S
H1761 C1771 0.945 . S
H1762 C1766 0.929 . S
H1763 C1772 0.929 . S
C1764 H1758 0.930 . S
C1764 C1765 1.367 . S
C1764 C1772 1.378 . S
C1765 C1764 1.367 . S
C1765 C1773 1.433 . S
C1766 H1762 0.929 . S
C1766 C1768 1.378 . S
C1766 C1770 1.350 . S
C1767 C1770 1.463 . S
C1767 C1772 1.350 . S
C1767 N1775 1.427 . S
C1768 H1759 0.930 . S
C1768 C1766 1.378 . S
C1768 C1769 1.368 . S
C1769 C1768 1.368 . S
C1769 C1771 1.432 1_556 S
C1770 C1766 1.350 . S
C1770 C1767 1.463 . S
C1770 N1774 1.427 . S
C1771 H1761 0.945 . S
C1771 C1769 1.432 1_554 S
C1771 N1774 1.370 1_554 S
C1772 H1763 0.929 . S
C1772 C1764 1.378 . S
C1772 C1767 1.350 . S
C1773 H1760 0.929 . S
C1773 C1765 1.433 . S
C1773 N1775 1.384 . S
N1774 C1770 1.427 . S
N1774 C1771 1.370 1_556 S
N1775 C1767 1.427 . S
N1775 C1773 1.384 . S
C487 C5 1.518 . S
C491 C122 1.480 . S
C505 C22 1.980 . S
C509 C142 1.988 . S
C523 C93 1.579 . S
C527 C45 1.563 . S
C541 C62 1.100 . S
C545 C105 1.095 . S
C559 C65 1.040 . S
C563 C25 1.054 . S
C577 C42 2.245 . S
C581 C2 2.247 . S
C595 C102 1.798 . S
C599 C145 1.775 . S
C613 C125 0.689 . S
C617 C94 0.656 1_655 S
C631 C165 1.331 1_554 S
C635 C182 1.379 . S
C649 C162 1.320 . S
C653 C205 1.354 . S
C667 C202 2.247 . S
C671 C233 2.224 . S
C685 C234 0.640 . S
C689 C185 0.652 . S
C703 C245 1.553 1_554 S
C707 C362 1.515 . S
C721 C382 1.943 . S
C725 C262 1.930 . S
C739 C285 1.538 1_554 S
C743 C333 1.509 . S
C757 C302 1.174 . S
C761 C345 1.165 . S
C775 C305 0.764 . S
C779 C265 0.778 . S
C793 C282 2.452 . S
C797 C242 2.470 . S
C811 C342 1.582 . S
C815 C385 1.571 . S
C829 C365 0.893 . S
C833 C334 0.912 . S
C847 C405 1.151 . S
C851 C422 1.184 . S
C865 C442 2.458 . S
C869 C402 2.453 . S
C883 C445 1.221 . S
C887 C473 1.201 . S
C901 C474 0.814 . S
C905 C425 0.832 . S
C919 C462 2.849 . S
C923 C13 2.873 . S
C937 C437 2.321 . S
C941 C37 2.284 . S
C955 C53 2.801 1_655 S
C959 C417 2.806 . S
C973 C77 2.746 1_565 S
C977 C453 2.709 . S
C991 C457 2.302 . S
C995 C88 2.341 . S
C1009 C113 2.540 . S
C1013 C468 2.577 . S
C1027 C433 2.135 . S
C1031 C137 2.197 . S
C1045 C157 3.023 . S
C1049 C413 3.024 . S
C1063 C322 2.619 . S
C1067 C73 2.624 . S
C1081 C17 2.281 1_655 S
C1085 C357 2.343 . S
C1099 C33 2.638 . S
C1103 C373 2.624 . S
C1117 C57 2.853 . S
C1121 C393 2.840 . S
C1135 C257 2.459 . S
C1139 C117 2.512 . S
C1153 C133 2.475 . S
C1157 C273 2.492 . S
C1171 C153 3.030 . S
C1175 C297 3.040 . S
C1189 C82 2.221 . S
C1193 C313 2.228 . S
C1207 C397 2.832 . S
C1211 C173 2.806 . S
C1225 C197 2.171 1_556 S
C1229 C277 2.129 . S
C1243 C293 2.709 . S
C1247 C177 2.753 . S
C1261 C317 2.240 . S
C1265 C217 2.220 . S
C1279 C222 3.052 1_556 S
C1283 C253 3.066 . S
C1297 C353 2.592 . S
C1301 C228 2.607 . S
C1315 C377 2.330 . S
C1319 C193 2.302 . S
C1333 C328 2.798 . S
C1337 C213 2.740 . S
C1351 C85 0.732 . S
C1355 C414 0.737 . S
C1369 C108 1.601 . S
C1373 C448 1.579 . S
C1387 C134 1.142 . S
C1391 C477 1.058 . S
C1405 C434 0.845 . S
C1409 C154 0.826 . S
C1423 C428 1.263 . S
C1427 C8 1.247 . S
C1441 C34 1.125 . S
C1445 C408 1.105 . S
C1459 C48 1.186 . S
C1463 C454 1.188 . S
C1477 C465 0.957 . S
C1481 C74 0.959 . S
C1495 C254 1.122 . S
C1499 C148 1.083 . S
C1513 C97 1.335 . S
C1517 C268 1.340 . S
C1531 C294 0.754 . S
C1535 C114 0.747 . S
C1549 C308 1.227 . S
C1553 C128 1.246 . S
C1567 C337 1.411 . S
C1571 C28 1.384 . S
C1585 C54 0.825 . S
C1589 C354 0.826 . S
C1603 C368 1.244 . S
C1607 C68 1.252 . S
C1621 C388 1.026 . S
C1625 C14 1.055 . S
C1639 C225 0.638 . S
C1643 C314 0.639 . S
C1657 C214 1.194 . S
C1661 C348 1.164 . S
C1675 C374 1.260 . S
C1679 C237 1.160 . S
C1693 C194 0.806 . S
C1697 C394 0.793 . S
C1711 C174 0.881 . S
C1715 C325 0.889 . S
C1729 C274 0.784 . S
C1733 C168 0.793 . S
C1747 C208 1.555 . S
C1751 C288 1.601 . S
C1765 C248 1.306 . S
C1769 C188 1.342 1_556 S
