# Generated by pormake.
# Topology wfw, (7)-cn, num edge types: 1
# Building blocks:
#     Node 0, Type 0, BuildingBlock: HICVOG_clean_sbu_0, # of connection points: 7
#     Node 1, Type 0, BuildingBlock: HICVOG_clean_sbu_0, # of connection points: 7
#     Node 2, Type 0, BuildingBlock: HICVOG_clean_sbu_0, # of connection points: 7
#     Node 3, Type 0, BuildingBlock: HICVOG_clean_sbu_0, # of connection points: 7
#     Node 4, Type 0, BuildingBlock: HICVOG_clean_sbu_0, # of connection points: 7
#     Node 5, Type 0, BuildingBlock: HICVOG_clean_sbu_0, # of connection points: 7
#     Node 6, Type 0, BuildingBlock: HICVOG_clean_sbu_0, # of connection points: 7
#     Node 7, Type 0, BuildingBlock: HICVOG_clean_sbu_0, # of connection points: 7
#     Node 8, Type 0, BuildingBlock: HICVOG_clean_sbu_0, # of connection points: 7
#     Node 9, Type 0, BuildingBlock: HICVOG_clean_sbu_0, # of connection points: 7
#     Node 10, Type 0, BuildingBlock: HICVOG_clean_sbu_0, # of connection points: 7
#     Node 11, Type 0, BuildingBlock: HICVOG_clean_sbu_0, # of connection points: 7
#     Node 12, Type 0, BuildingBlock: HICVOG_clean_sbu_0, # of connection points: 7
#     Node 13, Type 0, BuildingBlock: HICVOG_clean_sbu_0, # of connection points: 7
#     Node 14, Type 0, BuildingBlock: HICVOG_clean_sbu_0, # of connection points: 7
#     Node 15, Type 0, BuildingBlock: HICVOG_clean_sbu_0, # of connection points: 7
#     Edge 16, Type (0, 0), BuildingBlock: KIFKEQ_clean_linker_1, # of connection points: 2
#     Edge 17, Type (0, 0), BuildingBlock: KIFKEQ_clean_linker_1, # of connection points: 2
#     Edge 18, Type (0, 0), BuildingBlock: KIFKEQ_clean_linker_1, # of connection points: 2
#     Edge 19, Type (0, 0), BuildingBlock: KIFKEQ_clean_linker_1, # of connection points: 2
#     Edge 20, Type (0, 0), BuildingBlock: KIFKEQ_clean_linker_1, # of connection points: 2
#     Edge 21, Type (0, 0), BuildingBlock: KIFKEQ_clean_linker_1, # of connection points: 2
#     Edge 22, Type (0, 0), BuildingBlock: KIFKEQ_clean_linker_1, # of connection points: 2
#     Edge 23, Type (0, 0), BuildingBlock: KIFKEQ_clean_linker_1, # of connection points: 2
#     Edge 24, Type (0, 0), BuildingBlock: KIFKEQ_clean_linker_1, # of connection points: 2
#     Edge 25, Type (0, 0), BuildingBlock: KIFKEQ_clean_linker_1, # of connection points: 2
#     Edge 26, Type (0, 0), BuildingBlock: KIFKEQ_clean_linker_1, # of connection points: 2
#     Edge 27, Type (0, 0), BuildingBlock: KIFKEQ_clean_linker_1, # of connection points: 2
#     Edge 28, Type (0, 0), BuildingBlock: KIFKEQ_clean_linker_1, # of connection points: 2
#     Edge 29, Type (0, 0), BuildingBlock: KIFKEQ_clean_linker_1, # of connection points: 2
#     Edge 30, Type (0, 0), BuildingBlock: KIFKEQ_clean_linker_1, # of connection points: 2
#     Edge 31, Type (0, 0), BuildingBlock: KIFKEQ_clean_linker_1, # of connection points: 2
#     Edge 32, Type (0, 0), BuildingBlock: KIFKEQ_clean_linker_1, # of connection points: 2
#     Edge 33, Type (0, 0), BuildingBlock: KIFKEQ_clean_linker_1, # of connection points: 2
#     Edge 34, Type (0, 0), BuildingBlock: KIFKEQ_clean_linker_1, # of connection points: 2
#     Edge 35, Type (0, 0), BuildingBlock: KIFKEQ_clean_linker_1, # of connection points: 2
#     Edge 36, Type (0, 0), BuildingBlock: KIFKEQ_clean_linker_1, # of connection points: 2
#     Edge 37, Type (0, 0), BuildingBlock: KIFKEQ_clean_linker_1, # of connection points: 2
#     Edge 38, Type (0, 0), BuildingBlock: KIFKEQ_clean_linker_1, # of connection points: 2
#     Edge 39, Type (0, 0), BuildingBlock: KIFKEQ_clean_linker_1, # of connection points: 2
#     Edge 40, Type (0, 0), BuildingBlock: KIFKEQ_clean_linker_1, # of connection points: 2
#     Edge 41, Type (0, 0), BuildingBlock: KIFKEQ_clean_linker_1, # of connection points: 2
#     Edge 42, Type (0, 0), BuildingBlock: KIFKEQ_clean_linker_1, # of connection points: 2
#     Edge 43, Type (0, 0), BuildingBlock: KIFKEQ_clean_linker_1, # of connection points: 2
#     Edge 44, Type (0, 0), BuildingBlock: KIFKEQ_clean_linker_1, # of connection points: 2
#     Edge 45, Type (0, 0), BuildingBlock: KIFKEQ_clean_linker_1, # of connection points: 2
#     Edge 46, Type (0, 0), BuildingBlock: KIFKEQ_clean_linker_1, # of connection points: 2
#     Edge 47, Type (0, 0), BuildingBlock: KIFKEQ_clean_linker_1, # of connection points: 2
#     Edge 48, Type (0, 0), BuildingBlock: KIFKEQ_clean_linker_1, # of connection points: 2
#     Edge 49, Type (0, 0), BuildingBlock: KIFKEQ_clean_linker_1, # of connection points: 2
#     Edge 50, Type (0, 0), BuildingBlock: KIFKEQ_clean_linker_1, # of connection points: 2
#     Edge 51, Type (0, 0), BuildingBlock: KIFKEQ_clean_linker_1, # of connection points: 2
#     Edge 52, Type (0, 0), BuildingBlock: KIFKEQ_clean_linker_1, # of connection points: 2
#     Edge 53, Type (0, 0), BuildingBlock: KIFKEQ_clean_linker_1, # of connection points: 2
#     Edge 54, Type (0, 0), BuildingBlock: KIFKEQ_clean_linker_1, # of connection points: 2
#     Edge 55, Type (0, 0), BuildingBlock: KIFKEQ_clean_linker_1, # of connection points: 2
#     Edge 56, Type (0, 0), BuildingBlock: KIFKEQ_clean_linker_1, # of connection points: 2
#     Edge 57, Type (0, 0), BuildingBlock: KIFKEQ_clean_linker_1, # of connection points: 2
#     Edge 58, Type (0, 0), BuildingBlock: KIFKEQ_clean_linker_1, # of connection points: 2
#     Edge 59, Type (0, 0), BuildingBlock: KIFKEQ_clean_linker_1, # of connection points: 2
#     Edge 60, Type (0, 0), BuildingBlock: KIFKEQ_clean_linker_1, # of connection points: 2
#     Edge 61, Type (0, 0), BuildingBlock: KIFKEQ_clean_linker_1, # of connection points: 2
#     Edge 62, Type (0, 0), BuildingBlock: KIFKEQ_clean_linker_1, # of connection points: 2
#     Edge 63, Type (0, 0), BuildingBlock: KIFKEQ_clean_linker_1, # of connection points: 2
#     Edge 64, Type (0, 0), BuildingBlock: KIFKEQ_clean_linker_1, # of connection points: 2
#     Edge 65, Type (0, 0), BuildingBlock: KIFKEQ_clean_linker_1, # of connection points: 2
#     Edge 66, Type (0, 0), BuildingBlock: KIFKEQ_clean_linker_1, # of connection points: 2
#     Edge 67, Type (0, 0), BuildingBlock: KIFKEQ_clean_linker_1, # of connection points: 2
#     Edge 68, Type (0, 0), BuildingBlock: KIFKEQ_clean_linker_1, # of connection points: 2
#     Edge 69, Type (0, 0), BuildingBlock: KIFKEQ_clean_linker_1, # of connection points: 2
#     Edge 70, Type (0, 0), BuildingBlock: KIFKEQ_clean_linker_1, # of connection points: 2
#     Edge 71, Type (0, 0), BuildingBlock: KIFKEQ_clean_linker_1, # of connection points: 2
# Relax obj value: 0.098
# Max RMSD: 0.170
# Mean RMSD: 0.170
data_MOF--net-wfw--node1-HICVOG_clean_sbu_0--edge1-KIFKEQ_clean_linker_1
_symmetry_space_group_name_H-M    P1
_symmetry_Int_Tables_number       1
_symmetry_cell_setting            triclinic
loop_
_symmetry_equiv_pos_as_xyz
'x, y, z'
_cell_length_a     45.275099
_cell_length_b     45.214141
_cell_length_c     35.523265
_cell_angle_alpha  90.072822
_cell_angle_beta   89.95775
_cell_angle_gamma 90.026771
loop_
_atom_site_label
_atom_site_type_symbol
_atom_site_fract_x
_atom_site_fract_y
_atom_site_fract_z
_atom_type_partial_charge
Zn0 Zn 0.5742 0.26731 0.40639 0.0
C1 C 0.57648 0.18557 0.36017 0.0
N2 N 0.5918 0.17989 0.39175 0.0
C3 C 0.58968 0.20532 0.4109 0.0
N4 N 0.57415 0.2259 0.39209 0.0
N5 N 0.5651 0.2134 0.36025 0.0
C6 C 0.54651 0.23964 0.25814 0.0
O7 O 0.55797 0.26133 0.27797 0.0
O8 O 0.5698 0.2728 0.46289 0.0
Zn9 Zn 0.5299 0.22607 0.332 0.0
N10 N 0.61261 0.28307 0.39347 0.0
C11 C 0.65622 0.2818 0.35606 0.0
C12 C 0.62744 0.27221 0.36319 0.0
C13 C 0.6251 0.30366 0.41641 0.0
N14 N 0.66893 0.30196 0.37938 0.0
C15 C 0.65405 0.31344 0.40933 0.0
O16 O 0.51891 0.2697 0.33662 0.0
C17 C 0.52421 0.29289 0.35581 0.0
O18 O 0.54359 0.29303 0.38169 0.0
H19 H 0.61723 0.25575 0.3453 0.0
H20 H 0.6129 0.31162 0.44058 0.0
C21 C 0.47534 0.18846 0.34135 0.0
C22 C 0.45113 0.18001 0.36412 0.0
C23 C 0.47099 0.20788 0.41482 0.0
C24 C 0.49453 0.21647 0.3923 0.0
N25 N 0.49634 0.20687 0.35612 0.0
N26 N 0.44984 0.19012 0.40019 0.0
H27 H 0.47689 0.18141 0.31229 0.0
C28 C 0.55255 0.25875 0.48472 0.0
O29 O 0.53579 0.23765 0.47092 0.0
O30 O 0.53322 0.21883 0.27546 0.0
H31 H 0.5111 0.23138 0.40322 0.0
H32 H 0.66847 0.27306 0.33237 0.0
H33 H 0.46928 0.2156 0.44358 0.0
Zn34 Zn 0.32763 0.53264 0.33811 0.0
C35 C 0.32704 0.60604 0.40372 0.0
N36 N 0.35073 0.61341 0.38324 0.0
C37 C 0.35134 0.59217 0.35675 0.0
N38 N 0.32906 0.57232 0.361 0.0
N39 N 0.31392 0.58131 0.39092 0.0
C40 C 0.28386 0.54837 0.48662 0.0
O41 O 0.29862 0.52676 0.47054 0.0
O42 O 0.3275 0.53595 0.28078 0.0
Zn43 Zn 0.27567 0.5698 0.40915 0.0
N44 N 0.36251 0.5118 0.35749 0.0
C45 C 0.39801 0.51194 0.40701 0.0
C46 C 0.37255 0.52314 0.39063 0.0
C47 C 0.37651 0.48836 0.34085 0.0
N48 N 0.41226 0.48918 0.39021 0.0
C49 C 0.40226 0.47673 0.35775 0.0
O50 O 0.26087 0.53069 0.39027 0.0
C51 C 0.26697 0.50877 0.36919 0.0
O52 O 0.2908 0.50771 0.35006 0.0
H53 H 0.36094 0.54092 0.40446 0.0
H54 H 0.36806 0.47924 0.31482 0.0
C55 C 0.23732 0.61939 0.41835 0.0
C56 C 0.21979 0.64334 0.40635 0.0
C57 C 0.22674 0.62776 0.34298 0.0
C58 C 0.24434 0.60435 0.35514 0.0
N59 N 0.24916 0.6006 0.39253 0.0
N60 N 0.21492 0.64659 0.36873 0.0
H61 H 0.24149 0.61534 0.4478 0.0
C62 C 0.30236 0.54195 0.26658 0.0
O63 O 0.27992 0.54623 0.2894 0.0
O64 O 0.27345 0.56897 0.46626 0.0
H65 H 0.25433 0.58943 0.33502 0.0
H66 H 0.40634 0.52113 0.43305 0.0
H67 H 0.22262 0.63105 0.31329 0.0
Zn68 Zn 0.97482 0.28223 0.40298 0.0
C69 C 0.95557 0.35568 0.34454 0.0
N70 N 0.93408 0.35687 0.37064 0.0
C71 C 0.94119 0.33465 0.39371 0.0
N72 N 0.96592 0.32063 0.38276 0.0
N73 N 0.97541 0.33379 0.35162 0.0
C74 C 1.00136 0.305 0.25872 0.0
O75 O 0.99385 0.28391 0.28227 0.0
O76 O 0.97886 0.28249 0.46025 0.0
Zn77 Zn 1.01514 0.32933 0.32919 0.0
N78 N 0.94085 0.25801 0.39054 0.0
C79 C 0.90174 0.24727 0.34792 0.0
C80 C 0.92768 0.26243 0.35665 0.0
C81 C 0.92935 0.23866 0.41592 0.0
N82 N 0.8901 0.22811 0.37333 0.0
C83 C 0.9033 0.22313 0.40715 0.0
O84 O 0.03671 0.29 0.34006 0.0
C85 C 0.03273 0.26626 0.3588 0.0
O86 O 1.01068 0.26318 0.38061 0.0
H87 H 0.937 0.27802 0.33685 0.0
H88 H 0.93995 0.23599 0.44296 0.0
C89 C 0.06894 0.36624 0.33971 0.0
C90 C 0.08459 0.3896 0.35708 0.0
C91 C 0.04082 0.40456 0.38833 0.0
C92 C 0.02554 0.3813 0.37179 0.0
N93 N 0.03957 0.3625 0.34769 0.0
N94 N 0.06991 0.40801 0.38086 0.0
H95 H 0.08008 0.35086 0.32116 0.0
C96 C 0.99254 0.26137 0.47631 0.0
O97 O 1.00468 0.24074 0.45536 0.0
O98 O 1.01118 0.32927 0.27207 0.0
H99 H 1.00269 0.37814 0.37903 0.0
H100 H 0.89085 0.25081 0.32121 0.0
H101 H 0.02977 0.41949 0.40754 0.0
Zn102 Zn 0.2707 0.97566 0.39961 0.0
C103 C 0.19309 0.95922 0.34799 0.0
N104 N 0.19316 0.93685 0.37285 0.0
C105 C 0.21751 0.94225 0.39305 0.0
N106 N 0.23166 0.96677 0.3815 0.0
N107 N 0.21637 0.9778 0.35291 0.0
C108 C 0.24302 1.00453 0.26131 0.0
O109 O 0.26344 0.99519 0.2847 0.0
O110 O 0.27144 0.97987 0.45657 0.0
Zn111 Zn 0.2203 1.0178 0.33188 0.0
N112 N 0.29435 0.94158 0.38662 0.0
C113 C 0.31312 0.90906 0.33976 0.0
C114 C 0.29742 0.93441 0.34971 0.0
C115 C 0.30612 0.92435 0.41413 0.0
N116 N 0.32494 0.89183 0.36718 0.0
C117 C 0.32181 0.89854 0.40437 0.0
O118 O 0.25957 0.03893 0.34204 0.0
C119 C 0.28465 0.03458 0.35736 0.0
O120 O 0.28978 1.01172 0.37711 0.0
H121 H 0.28754 0.94819 0.32828 0.0
H122 H 0.30341 0.93104 0.44311 0.0
C123 C 0.17664 0.06694 0.33783 0.0
C124 C 0.15246 0.08084 0.35573 0.0
C125 C 0.15278 0.0437 0.40283 0.0
C126 C 0.17664 0.03011 0.38534 0.0
N127 N 0.18788 0.04146 0.35288 0.0
N128 N 0.14122 0.06853 0.38759 0.0
H129 H 0.18596 0.0759 0.31221 0.0
C130 C 0.29269 0.9935 0.47243 0.0
O131 O 0.31324 1.00567 0.45141 0.0
O132 O 0.21931 1.01535 0.27488 0.0
H133 H 0.18606 1.0105 0.39775 0.0
H134 H 0.31584 0.90305 0.31048 0.0
H135 H 0.14351 0.03461 0.4284 0.0
Zn136 Zn 0.03087 0.82717 0.17844 0.0
C137 C 0.10516 0.83223 0.115 0.0
N138 N 0.10982 0.85708 0.13461 0.0
C139 C 0.08801 0.85645 0.16025 0.0
N140 N 0.07053 0.8322 0.15647 0.0
N141 N 0.08166 0.81698 0.12775 0.0
C142 C 0.05163 0.78439 0.03416 0.0
O143 O 0.03131 0.80111 0.0498 0.0
O144 O 0.03277 0.83194 0.23562 0.0
Zn145 Zn 0.07457 0.77683 0.11164 0.0
N146 N 1.00493 0.85606 0.15341 0.0
C147 C 0.99897 0.88334 0.09655 0.0
C148 C 1.01554 0.86476 0.1193 0.0
C149 C 0.97776 0.86538 0.16565 0.0
N150 N 0.97196 0.89217 0.10828 0.0
C151 C 0.96056 0.88382 0.14209 0.0
O152 O 0.03896 0.75676 0.13414 0.0
C153 C 1.01665 0.76137 0.15514 0.0
O154 O 1.01227 0.78636 0.17082 0.0
H155 H 0.03654 0.85682 0.10916 0.0
H156 H 0.96926 0.85773 0.19239 0.0
C157 C 0.12578 0.74097 0.10017 0.0
C158 C 0.15173 0.726 0.11081 0.0
C159 C 0.14258 0.73952 0.17444 0.0
C160 C 0.11707 0.75453 0.16358 0.0
N161 N 0.10915 0.75484 0.12673 0.0
N162 N 0.15921 0.7256 0.14795 0.0
H163 H 0.11849 0.74138 0.07123 0.0
C164 C 0.04227 0.80909 0.25283 0.0
O165 O 0.05053 0.78609 0.23281 0.0
O166 O 0.07168 0.77316 0.0547 0.0
H167 H 0.1037 0.76596 0.18423 0.0
H168 H 1.00725 0.89026 0.06938 0.0
H169 H 0.14916 0.73896 0.2037 0.0
Zn170 Zn 0.71851 0.03192 0.183 0.0
C171 C 0.716 0.10602 0.11945 0.0
N172 N 0.69222 0.1125 0.14025 0.0
C173 C 0.69248 0.0912 0.16662 0.0
N174 N 0.71536 0.07207 0.16188 0.0
N175 N 0.73004 0.08178 0.13199 0.0
C176 C 0.76197 0.04949 0.03748 0.0
O177 O 0.74711 0.02801 0.05364 0.0
O178 O 0.71558 0.03439 0.23975 0.0
Zn179 Zn 0.76896 0.07228 0.11432 0.0
N180 N 0.68588 1.00945 0.16069 0.0
C181 C 0.65297 1.00767 0.10841 0.0
C182 C 0.67687 1.02033 0.12689 0.0
C183 C 0.6724 0.98525 0.17614 0.0
N184 N 0.63918 0.98413 0.12402 0.0
C185 C 0.64822 0.97225 0.15723 0.0
O186 O 0.7858 0.03439 0.13352 0.0
C187 C 0.7812 1.01201 0.15431 0.0
O188 O 0.75727 1.00909 0.17293 0.0
H189 H 0.68807 0.03888 0.11421 0.0
H190 H 0.68 0.97661 0.20283 0.0
C191 C 0.80667 0.12217 0.10419 0.0
C192 C 0.82364 0.1467 0.11554 0.0
C193 C 0.81418 0.13417 0.1794 0.0
C194 C 0.79717 0.11008 0.16785 0.0
N195 N 0.79389 0.10452 0.13052 0.0
N196 N 0.82703 0.1518 0.15311 0.0
H197 H 0.80383 0.11673 0.0748 0.0
C198 C 0.73943 0.04212 0.25602 0.0
O199 O 0.7627 0.04804 0.23525 0.0
O200 O 0.77175 0.07062 0.05751 0.0
H201 H 0.78652 0.09598 0.18836 0.0
H202 H 0.64545 1.01644 0.08177 0.0
H203 H 0.81712 0.13886 0.20902 0.0
Zn204 Zn 0.5148 0.72281 0.18512 0.0
C205 C 0.44782 0.7077 0.11331 0.0
N206 N 0.44358 0.68337 0.13399 0.0
C207 C 0.46211 0.68759 0.16308 0.0
N208 N 0.47726 0.71343 0.16016 0.0
N209 N 0.46785 0.726 0.12864 0.0
C210 C 0.48914 0.78879 0.03822 0.0
O211 O 0.49969 0.81011 0.05945 0.0
O212 O 0.5115 0.71999 0.24221 0.0
Zn213 Zn 0.47185 0.76594 0.11089 0.0
N214 N 0.54346 0.69602 0.16252 0.0
C215 C 0.55935 0.67807 0.10278 0.0
C216 C 0.54113 0.6961 0.12435 0.0
C217 C 0.56396 0.67877 0.18021 0.0
N218 N 0.57957 0.66079 0.12017 0.0
C219 C 0.58258 0.66062 0.15824 0.0
O220 O 0.50499 0.78927 0.13399 0.0
C221 C 0.52618 0.78787 0.15737 0.0
O222 O 0.53116 0.76449 0.17628 0.0
H223 H 0.52512 0.7102 0.11071 0.0
H224 H 0.5657 0.67911 0.2106 0.0
C225 C 0.424 0.80655 0.0998 0.0
C226 C 0.39638 0.81939 0.10767 0.0
C227 C 0.39229 0.78909 0.16192 0.0
C228 C 0.41981 0.77663 0.15413 0.0
N229 N 0.43501 0.78545 0.1231 0.0
N230 N 0.38117 0.81004 0.13852 0.0
H231 H 0.43635 0.81268 0.07495 0.0
C232 C 0.50007 0.74313 0.2567 0.0
O233 O 0.49025 0.76392 0.23414 0.0
O234 O 0.47654 0.76682 0.05388 0.0
H235 H 0.42881 0.75976 0.17236 0.0
H236 H 0.55753 0.67786 0.07242 0.0
H237 H 0.3798 0.78209 0.1863 0.0
Zn238 Zn 0.82261 0.51748 0.1782 0.0
C239 C 0.83867 0.45582 0.09953 0.0
N240 N 0.86409 0.45214 0.11816 0.0
C241 C 0.85982 0.4682 0.14957 0.0
N242 N 0.83291 0.48153 0.14983 0.0
N243 N 0.81953 0.47307 0.11833 0.0
C244 C 0.78557 0.49808 0.02647 0.0
O245 O 0.80563 0.51583 0.04069 0.0
O246 O 0.8293 0.51357 0.23463 0.0
Zn247 Zn 0.77825 0.47506 0.10436 0.0
N248 N 0.84424 0.54981 0.15452 0.0
C249 C 0.84782 0.57337 0.09482 0.0
C250 C 0.83708 0.55078 0.11743 0.0
C251 C 0.86219 0.5708 0.17022 0.0
N252 N 0.86514 0.59453 0.1103 0.0
C253 C 0.87277 0.5941 0.14733 0.0
O254 O 0.7542 0.50672 0.12981 0.0
C255 C 0.75588 0.52627 0.15549 0.0
O256 O 0.7797 0.53063 0.17368 0.0
H257 H 0.82243 0.5343 0.10582 0.0
H258 H 0.86725 0.57 0.19997 0.0
C259 C 0.74667 0.4213 0.09093 0.0
C260 C 0.73479 0.39343 0.10007 0.0
C261 C 0.75213 0.39951 0.16273 0.0
C262 C 0.76413 0.42695 0.15329 0.0
N263 N 0.76107 0.43731 0.11765 0.0
N264 N 0.73774 0.38347 0.13604 0.0
H265 H 0.74424 0.4305 0.06305 0.0
C266 C 0.80786 0.50103 0.25158 0.0
O267 O 0.78594 0.49047 0.2314 0.0
O268 O 0.77256 0.47972 0.04788 0.0
H269 H 0.7758 0.43994 0.17412 0.0
H270 H 0.84207 0.57438 0.06529 0.0
H271 H 0.75425 0.39099 0.19104 0.0
Zn272 Zn 0.47053 0.77786 0.61328 0.0
C273 C 0.45066 0.85454 0.66528 0.0
N274 N 0.42859 0.85384 0.64002 0.0
C275 C 0.43498 0.82977 0.61963 0.0
N276 N 0.45989 0.81648 0.63136 0.0
N277 N 0.47006 0.83193 0.66039 0.0
C278 C 0.50096 0.80806 0.75451 0.0
O279 O 0.49558 0.78469 0.7336 0.0
O280 O 0.47166 0.77522 0.55634 0.0
Zn281 Zn 0.51024 0.83004 0.68134 0.0
N282 N 0.43935 0.75176 0.6299 0.0
C283 C 0.41146 0.72999 0.67935 0.0
C284 C 0.43486 0.7477 0.66732 0.0
C285 C 0.42128 0.73907 0.60392 0.0
N286 N 0.3934 0.71727 0.65343 0.0
C287 C 0.39741 0.72139 0.61578 0.0
O288 O 0.534 0.79214 0.67055 0.0
C289 C 0.53167 0.76798 0.65222 0.0
O290 O 0.50923 0.76238 0.63195 0.0
H291 H 0.44925 0.7583 0.68755 0.0
H292 H 0.42589 0.74258 0.57444 0.0
C293 C 0.55557 0.87751 0.67503 0.0
C294 C 0.56758 0.90257 0.65686 0.0
C295 C 0.53142 0.89817 0.60888 0.0
C296 C 0.51978 0.8734 0.62659 0.0
N297 N 0.53149 0.86378 0.65967 0.0
N298 N 0.55484 0.91217 0.62443 0.0
H299 H 0.56487 0.86942 0.70112 0.0
C300 C 0.49286 0.78467 0.5362 0.0
O301 O 0.51473 0.79894 0.55238 0.0
O302 O 0.50796 0.83221 0.73833 0.0
H303 H 0.50134 0.86201 0.6139 0.0
H304 H 0.40761 0.72644 0.70906 0.0
H305 H 0.52198 0.90618 0.58285 0.0
Zn306 Zn 0.76696 0.4764 0.60842 0.0
C307 C 0.68919 0.46339 0.66062 0.0
N308 N 0.68754 0.44189 0.63452 0.0
C309 C 0.71162 0.44679 0.6136 0.0
N310 N 0.72733 0.47007 0.626 0.0
N311 N 0.71332 0.48091 0.65582 0.0
C312 C 0.73969 0.50699 0.74821 0.0
O313 O 0.75985 0.49647 0.72518 0.0
O314 O 0.76845 0.48006 0.55139 0.0
Zn315 Zn 0.71932 0.52082 0.67707 0.0
N316 N 0.78822 0.44088 0.62196 0.0
C317 C 0.79422 0.40048 0.66417 0.0
C318 C 0.78176 0.42783 0.65541 0.0
C319 C 0.80711 0.42795 0.59713 0.0
N320 N 0.81269 0.38729 0.63912 0.0
C321 C 0.81971 0.40039 0.60583 0.0
O322 O 0.76026 0.53959 0.6684 0.0
C323 C 0.78467 0.53401 0.65192 0.0
O324 O 0.78776 0.51131 0.63113 0.0
H325 H 0.76648 0.43828 0.67471 0.0
H326 H 0.81143 0.43851 0.57038 0.0
C327 C 0.68109 0.57407 0.66548 0.0
C328 C 0.66181 0.59101 0.64279 0.0
C329 C 0.66004 0.55187 0.59831 0.0
C330 C 0.67946 0.53552 0.62015 0.0
N331 N 0.68971 0.54663 0.65331 0.0
N332 N 0.65192 0.57916 0.60992 0.0
H333 H 0.6899 0.58296 0.69146 0.0
C334 C 0.78944 0.4941 0.53558 0.0
O335 O 0.80942 0.50714 0.55665 0.0
O336 O 0.71665 0.51884 0.73417 0.0
H337 H 0.68678 0.51429 0.60997 0.0
H338 H 0.78899 0.38966 0.69048 0.0
H339 H 0.65189 0.54318 0.57189 0.0
Zn340 Zn 0.07256 0.77153 0.61044 0.0
C341 C 0.0925 0.6955 0.664 0.0
N342 N 0.11395 0.69556 0.63783 0.0
C343 C 0.10723 0.71931 0.61711 0.0
N344 N 0.08275 0.73304 0.62951 0.0
N345 N 0.07316 0.71816 0.65933 0.0
C346 C 0.04541 0.74429 0.75367 0.0
O347 O 0.05259 0.76614 0.7311 0.0
O348 O 0.06782 0.77157 0.55326 0.0
Zn349 Zn 0.03353 0.72106 0.68184 0.0
N350 N 0.10606 0.79624 0.62269 0.0
C351 C 0.13828 0.81561 0.66939 0.0
C352 C 0.11324 0.79944 0.65956 0.0
C353 C 0.12298 0.80838 0.59508 0.0
N354 N 0.15522 0.82776 0.64189 0.0
C355 C 0.14851 0.82459 0.60471 0.0
O356 O 1.0115 0.75983 0.67184 0.0
C357 C 1.01452 0.7846 0.65513 0.0
O358 O 0.03642 0.78986 0.63371 0.0
H359 H 0.09971 0.78925 0.68105 0.0
H360 H 0.11625 0.8055 0.56617 0.0
C361 C 0.98454 0.67704 0.67613 0.0
C362 C 0.9709 0.65245 0.65873 0.0
C363 C 1.00879 0.65167 0.61263 0.0
C364 C 1.0221 0.67594 0.62958 0.0
N365 N 1.01028 0.68795 0.66137 0.0
N366 N 0.98371 0.64046 0.62763 0.0
H367 H 0.97513 0.68698 0.70114 0.0
C368 C 0.05515 0.79341 0.5374 0.0
O369 O 0.04451 0.81477 0.55852 0.0
O370 O 0.03672 0.71999 0.73915 0.0
H371 H 0.04185 0.68507 0.61721 0.0
H372 H 0.1443 0.81841 0.69864 0.0
H373 H 1.01828 0.64182 0.58763 0.0
Zn374 Zn 0.82033 0.02702 0.68627 0.0
C375 C 0.842 0.08952 0.61132 0.0
N376 N 0.86712 0.09098 0.63104 0.0
C377 C 0.86096 0.07459 0.66161 0.0
N378 N 0.83321 0.06317 0.66034 0.0
N379 N 0.82123 0.07327 0.62877 0.0
C380 C 0.7573 0.05526 0.53946 0.0
O381 O 0.73588 0.04495 0.56067 0.0
O382 O 0.82512 0.02936 0.74318 0.0
Zn383 Zn 0.78072 0.07248 0.61186 0.0
N384 N 0.84089 0.99456 0.66155 0.0
C385 C 0.84313 0.97127 0.60149 0.0
C386 C 0.83321 0.99399 0.62457 0.0
C387 C 0.85872 0.97322 0.67654 0.0
N388 N 0.86031 0.94975 0.6163 0.0
C389 C 0.86856 0.94991 0.65313 0.0
O390 O 0.75466 0.04141 0.63518 0.0
C391 C 0.75431 1.02125 0.66006 0.0
O392 O 0.7771 1.01539 0.67956 0.0
H393 H 0.81885 1.0109 0.61329 0.0
H394 H 0.86431 0.97382 0.70615 0.0
C395 C 0.74207 0.12168 0.60122 0.0
C396 C 0.73006 0.14973 0.60895 0.0
C397 C 0.76195 0.15394 0.66171 0.0
C398 C 0.7735 0.12594 0.65413 0.0
N399 N 0.76353 0.11052 0.62385 0.0
N400 N 0.74063 0.16521 0.63896 0.0
H401 H 0.73491 0.109 0.57708 0.0
C402 C 0.80362 0.04319 0.7583 0.0
O403 O 0.78402 0.05582 0.73631 0.0
O404 O 0.77938 0.06765 0.55505 0.0
H405 H 0.79058 0.11675 0.67189 0.0
H406 H 0.83694 0.97051 0.57209 0.0
H407 H 0.76989 0.16665 0.68546 0.0
Zn408 Zn 1.01102 0.21759 0.83325 0.0
C409 C 0.9402 0.21203 0.90199 0.0
N410 N 0.93491 0.18696 0.88314 0.0
C411 C 0.95496 0.18801 0.85524 0.0
N412 N 0.97208 0.21267 0.85711 0.0
N413 N 0.96247 0.22765 0.88685 0.0
C414 C 0.99048 0.2612 0.97958 0.0
O415 O 1.01113 0.24481 0.96403 0.0
O416 O 1.00769 0.21533 0.77616 0.0
Zn417 Zn 0.96979 0.26773 0.90199 0.0
N418 N 0.03515 0.18599 0.85469 0.0
C419 C 0.04127 0.15664 0.9098 0.0
C420 C 0.02746 0.17963 0.89083 0.0
C421 C 0.05734 0.1708 0.83711 0.0
N422 N 0.06281 0.14115 0.89223 0.0
C423 C 0.07153 0.14759 0.85652 0.0
O424 O 1.00742 0.28546 0.88282 0.0
C425 C 0.02974 0.28081 0.86191 0.0
O426 O 0.03271 0.25678 0.84347 0.0
H427 H 1.01053 0.19227 0.90496 0.0
H428 H 0.0635 0.17635 0.80853 0.0
C429 C 0.9243 0.31129 0.90622 0.0
C430 C 0.89815 0.32546 0.89493 0.0
C431 C 0.89824 0.29705 0.83875 0.0
C432 C 0.92421 0.28305 0.85012 0.0
N433 N 0.93658 0.29032 0.88373 0.0
N434 N 0.88569 0.31773 0.86148 0.0
H435 H 0.93429 0.31611 0.93321 0.0
C436 C 0.99889 0.23902 0.7603 0.0
O437 O 0.99198 0.26179 0.78157 0.0
O438 O 0.97039 0.27215 0.95888 0.0
H439 H 0.93408 0.26605 0.83274 0.0
H440 H 0.035 0.15119 0.93835 0.0
H441 H 0.88794 0.29128 0.81228 0.0
Zn442 Zn 0.32058 1.01986 0.83067 0.0
C443 C 0.34106 0.95865 0.90802 0.0
N444 N 0.3664 0.95672 0.88874 0.0
C445 C 0.36073 0.97275 0.85772 0.0
N446 N 0.33307 0.98436 0.85833 0.0
N447 N 0.32059 0.97474 0.88988 0.0
C448 C 0.28922 0.99707 0.98301 0.0
O449 O 0.3105 1.01347 0.96903 0.0
O450 O 0.32781 1.01691 0.77416 0.0
Zn451 Zn 0.27948 0.97504 0.905 0.0
N452 N 0.33984 0.05332 0.85519 0.0
C453 C 0.33834 0.07881 0.91382 0.0
C454 C 0.32965 0.0554 0.89107 0.0
C455 C 0.35898 0.07391 0.84096 0.0
N456 N 0.35682 0.09956 0.89971 0.0
C457 C 0.36756 0.098 0.86396 0.0
O458 O 0.25378 1.00553 0.88015 0.0
C459 C 0.25383 0.02496 0.85431 0.0
O460 O 0.27698 0.03053 0.83526 0.0
H461 H 0.31425 0.03911 0.90158 0.0
H462 H 0.36654 0.07213 0.81214 0.0
C463 C 0.24774 0.92148 0.91949 0.0
C464 C 0.236 0.89341 0.911 0.0
C465 C 0.25544 0.89753 0.84907 0.0
C466 C 0.26724 0.92521 0.85784 0.0
N467 N 0.26308 0.93664 0.89281 0.0
N468 N 0.24009 0.88236 0.87569 0.0
H469 H 0.24439 0.93151 0.9468 0.0
C470 C 0.30695 1.00382 0.75668 0.0
O471 O 0.2852 0.99235 0.77635 0.0
O472 O 0.27473 0.98005 0.96135 0.0
H473 H 0.27956 0.93756 0.83701 0.0
H474 H 0.33017 0.08072 0.94235 0.0
H475 H 0.25844 0.88815 0.8213 0.0
Zn476 Zn 0.57464 0.27664 0.90074 0.0
C477 C 0.59092 0.35451 0.84944 0.0
N478 N 0.61351 0.35416 0.87392 0.0
C479 C 0.60793 0.32996 0.89435 0.0
N480 N 0.58311 0.3161 0.88328 0.0
N481 N 0.57203 0.33151 0.85481 0.0
C482 C 0.54538 0.30562 0.76313 0.0
O483 O 0.55537 0.28536 0.78636 0.0
O484 O 0.57064 0.27542 0.95783 0.0
Zn485 Zn 0.53194 0.32759 0.83409 0.0
N486 N 0.60925 0.25386 0.88741 0.0
C487 C 0.64866 0.24543 0.84433 0.0
C488 C 0.62168 0.25866 0.85312 0.0
C489 C 0.62245 0.23595 0.9131 0.0
N490 N 0.66211 0.22791 0.87018 0.0
C491 C 0.64963 0.22259 0.90437 0.0
O492 O 0.51145 0.28784 0.84367 0.0
C493 C 0.51585 0.26253 0.85845 0.0
O494 O 0.53876 0.25718 0.878 0.0
H495 H 0.61109 0.27329 0.83321 0.0
H496 H 0.61243 0.23304 0.9405 0.0
C497 C 0.47891 0.36522 0.84684 0.0
C498 C 0.46305 0.38659 0.86773 0.0
C499 C 0.50558 0.3956 0.90494 0.0
C500 C 0.52098 0.37418 0.88495 0.0
N501 N 0.50764 0.3593 0.85624 0.0
N502 N 0.47705 0.40108 0.89614 0.0
H503 H 0.46831 0.3528 0.82456 0.0
C504 C 0.5558 0.25501 0.97374 0.0
O505 O 0.54215 0.23536 0.95275 0.0
O506 O 0.53407 0.32906 0.77695 0.0
H507 H 0.54329 0.3691 0.89316 0.0
H508 H 0.65901 0.24935 0.81733 0.0
H509 H 0.51603 0.40741 0.92784 0.0
Zn510 Zn 0.21825 0.52814 0.83766 0.0
C511 C 0.21624 0.60243 0.90189 0.0
N512 N 0.19348 0.60976 0.87981 0.0
C513 C 0.19354 0.58801 0.854 0.0
N514 N 0.21532 0.56793 0.8602 0.0
N515 N 0.22953 0.57736 0.89062 0.0
C516 C 0.26248 0.5467 0.98615 0.0
O517 O 0.24923 0.52403 0.97029 0.0
O518 O 0.2186 0.53178 0.78048 0.0
Zn519 Zn 0.26844 0.56791 0.90844 0.0
N520 N 0.18425 0.50514 0.85649 0.0
C521 C 0.14477 0.50455 0.90102 0.0
C522 C 0.16805 0.51907 0.88356 0.0
C523 C 0.17787 0.47658 0.84641 0.0
N524 N 0.1388 0.47621 0.89156 0.0
C525 C 0.15459 0.46158 0.86484 0.0
O526 O 0.28479 0.52939 0.88997 0.0
C527 C 0.2798 0.50709 0.86907 0.0
O528 O 0.25615 0.50484 0.84976 0.0
H529 H 0.17342 0.54116 0.89254 0.0
H530 H 0.19132 0.46543 0.82558 0.0
C531 C 0.31243 0.61318 0.91461 0.0
C532 C 0.32737 0.63887 0.90313 0.0
C533 C 0.30342 0.63606 0.84389 0.0
C534 C 0.28854 0.6106 0.85547 0.0
N535 N 0.29316 0.59983 0.89068 0.0
N536 N 0.32226 0.64976 0.86804 0.0
H537 H 0.3152 0.60453 0.94278 0.0
C538 C 0.24344 0.53953 0.76673 0.0
O539 O 0.26532 0.54521 0.78992 0.0
O540 O 0.27125 0.56796 0.96558 0.0
H541 H 0.27281 0.59996 0.83697 0.0
H542 H 0.1319 0.51551 0.92258 0.0
H543 H 0.2997 0.64511 0.81612 0.0
H544 H 0.58755 0.20079 0.28722 0.0
H545 H 0.57788 0.12578 0.36088 0.0
H546 H 0.60921 0.16879 0.23904 0.0
H547 H 0.60178 0.09418 0.31386 0.0
H548 H 0.69866 0.08965 0.2432 0.0
H549 H 0.6616 0.10636 0.28881 0.0
H550 H 0.59758 0.11426 0.19963 0.0
H551 H 0.63402 0.09568 0.15457 0.0
C552 C 0.58822 0.17724 0.29219 0.0
C553 C 0.57983 0.16571 0.32726 0.0
C554 C 0.60138 0.15897 0.26501 0.0
C555 C 0.60727 0.12906 0.27292 0.0
C556 C 0.59743 0.11713 0.30708 0.0
C557 C 0.58353 0.1352 0.33378 0.0
C558 C 0.67614 0.09271 0.23387 0.0
C559 C 0.66902 0.09037 0.19555 0.0
C560 C 0.65504 0.10293 0.2598 0.0
C561 C 0.62681 0.11174 0.24757 0.0
C562 C 0.61913 0.10757 0.20974 0.0
C563 C 0.63994 0.0967 0.1841 0.0
H564 H 0.40951 0.59867 0.36978 0.0
H565 H 0.34601 0.58931 0.28026 0.0
H566 H 0.44619 0.61666 0.32469 0.0
H567 H 0.38322 0.60547 0.23475 0.0
H568 H 0.46085 0.62804 0.16009 0.0
H569 H 0.4395 0.59563 0.20801 0.0
H570 H 0.43756 0.66863 0.28621 0.0
H571 H 0.45698 0.70138 0.23746 0.0
C572 C 0.40392 0.59891 0.34012 0.0
C573 C 0.37511 0.59178 0.32833 0.0
C574 C 0.42486 0.60937 0.31445 0.0
C575 C 0.41754 0.61243 0.27634 0.0
C576 C 0.38958 0.60284 0.26395 0.0
C577 C 0.36837 0.59297 0.28986 0.0
C578 C 0.45711 0.63683 0.18808 0.0
C579 C 0.46144 0.66713 0.1954 0.0
C580 C 0.44466 0.61832 0.21532 0.0
C581 C 0.43686 0.62964 0.25069 0.0
C582 C 0.44382 0.65924 0.25929 0.0
C583 C 0.45563 0.67795 0.23166 0.0
H584 H 0.91936 0.46481 0.14613 0.0
H585 H 0.84625 0.4593 0.22347 0.0
H586 H 0.95157 0.44155 0.19286 0.0
H587 H 0.87893 0.43834 0.27125 0.0
H588 H 0.9552 0.34677 0.26841 0.0
H589 H 0.93841 0.38278 0.22157 0.0
H590 H 0.93481 0.45011 0.30748 0.0
H591 H 0.95338 0.41462 0.35366 0.0
C592 C 0.91056 0.46022 0.17389 0.0
C593 C 0.8804 0.46497 0.18163 0.0
C594 C 0.92896 0.4467 0.20042 0.0
C595 C 0.91773 0.43828 0.23557 0.0
C596 C 0.88823 0.44513 0.2445 0.0
C597 C 0.8696 0.4579 0.21753 0.0
C598 C 0.95305 0.36971 0.27661 0.0
C599 C 0.95657 0.37809 0.31437 0.0
C600 C 0.94282 0.39023 0.25002 0.0
C601 C 0.9352 0.41915 0.2611 0.0
C602 C 0.9406 0.42801 0.29826 0.0
C603 C 0.95145 0.40775 0.32452 0.0
H604 H 0.13447 0.95637 0.36001 0.0
H605 H 0.19961 0.96089 0.27179 0.0
H606 H 0.09812 0.93765 0.31499 0.0
H607 H 0.16293 0.9439 0.22631 0.0
H608 H 0.08999 0.91542 0.15005 0.0
H609 H 0.10919 0.9512 0.1956 0.0
H610 H 0.10558 0.88456 0.28226 0.0
H611 H 0.08823 0.84847 0.23614 0.0
C612 C 0.14049 0.95511 0.33051 0.0
C613 C 0.16971 0.96093 0.31918 0.0
C614 C 0.11975 0.94415 0.30488 0.0
C615 C 0.12771 0.93926 0.26723 0.0
C616 C 0.15604 0.94792 0.25508 0.0
C617 C 0.177 0.95829 0.28097 0.0
C618 C 0.09193 0.90886 0.17928 0.0
C619 C 0.08668 0.87934 0.18984 0.0
C620 C 0.10317 0.92928 0.2052 0.0
C621 C 0.10891 0.92066 0.24239 0.0
C622 C 0.10088 0.89196 0.25389 0.0
C623 C 0.09027 0.87134 0.22768 0.0
H624 H 0.42045 0.97176 0.85763 0.0
H625 H 0.34484 0.96218 0.78509 0.0
H626 H 0.45154 0.94794 0.81 0.0
H627 H 0.37626 0.9407 0.73632 0.0
H628 H 0.454 0.85024 0.74183 0.0
H629 H 0.43914 0.88863 0.78665 0.0
H630 H 0.42929 0.95058 0.69537 0.0
H631 H 0.4461 0.91275 0.65095 0.0
C632 C 0.41081 0.96624 0.8306 0.0
C633 C 0.38029 0.96988 0.82456 0.0
C634 C 0.42859 0.95241 0.80355 0.0
C635 C 0.41629 0.94261 0.76956 0.0
C636 C 0.38637 0.94857 0.7621 0.0
C637 C 0.36843 0.96163 0.78963 0.0
C638 C 0.45099 0.87259 0.73176 0.0
C639 C 0.45224 0.87875 0.69311 0.0
C640 C 0.44185 0.89447 0.75728 0.0
C641 C 0.43301 0.92251 0.74432 0.0
C642 C 0.4361 0.92921 0.70603 0.0
C643 C 0.44589 0.90761 0.68074 0.0
H644 H 0.6993 0.46209 0.73616 0.0
H645 H 0.63006 0.46185 0.6531 0.0
H646 H 0.66467 0.44336 0.78315 0.0
H647 H 0.59576 0.44132 0.69944 0.0
H648 H 0.59383 0.41303 0.86263 0.0
H649 H 0.61179 0.45015 0.8181 0.0
H650 H 0.60485 0.38646 0.72808 0.0
H651 H 0.58869 0.34896 0.77305 0.0
C652 C 0.67626 0.46007 0.72863 0.0
C653 C 0.66721 0.46444 0.6913 0.0
C654 C 0.65647 0.44866 0.75532 0.0
C655 C 0.62756 0.44067 0.74479 0.0
C656 C 0.61788 0.44727 0.70828 0.0
C657 C 0.63745 0.4593 0.68193 0.0
C658 C 0.59481 0.4074 0.83298 0.0
C659 C 0.58897 0.37827 0.8211 0.0
C660 C 0.60534 0.42858 0.80764 0.0
C661 C 0.60975 0.42119 0.76971 0.0
C662 C 0.60119 0.39291 0.75709 0.0
C663 C 0.59128 0.37149 0.78269 0.0
H664 H 0.09678 0.63683 0.65238 0.0
H665 H 0.09145 0.70233 0.74029 0.0
H666 H 0.11545 0.60067 0.69763 0.0
H667 H 0.10849 0.66581 0.78603 0.0
H668 H 0.20253 0.5877 0.77808 0.0
H669 H 0.16773 0.60654 0.73133 0.0
H670 H 0.1003 0.61277 0.81685 0.0
H671 H 0.13475 0.59245 0.86304 0.0
C672 C 0.098 0.64299 0.68183 0.0
C673 C 0.09183 0.67221 0.69305 0.0
C674 C 0.10893 0.62237 0.7076 0.0
C675 C 0.1135 0.63043 0.74527 0.0
C676 C 0.10475 0.65884 0.75723 0.0
C677 C 0.09437 0.67968 0.73121 0.0
C678 C 0.17972 0.5909 0.7862 0.0
C679 C 0.17113 0.58776 0.8239 0.0
C680 C 0.15986 0.60228 0.75961 0.0
C681 C 0.13136 0.61137 0.7706 0.0
C682 C 0.12211 0.60603 0.80765 0.0
C683 C 0.14175 0.59414 0.83394 0.0
H684 H 0.95537 0.19418 0.77877 0.0
H685 H 0.95135 0.12935 0.86744 0.0
H686 H 0.93921 0.15675 0.73339 0.0
H687 H 0.93316 0.09249 0.8226 0.0
H688 H 0.92058 0.07397 0.66096 0.0
H689 H 0.95244 0.0967 0.7085 0.0
H690 H 0.878 0.10411 0.78361 0.0
H691 H 0.84577 0.08352 0.73502 0.0
C692 C 0.95293 0.17157 0.78811 0.0
C693 C 0.95563 0.16449 0.82637 0.0
C694 C 0.94301 0.15025 0.76233 0.0
C695 C 0.93487 0.12181 0.77468 0.0
C696 C 0.93939 0.1142 0.81243 0.0
C697 C 0.94998 0.13525 0.83793 0.0
C698 C 0.91127 0.07925 0.68826 0.0
C699 C 0.88072 0.07611 0.69466 0.0
C700 C 0.92949 0.09247 0.71525 0.0
C701 C 0.91763 0.10211 0.74956 0.0
C702 C 0.88772 0.09642 0.75749 0.0
C703 C 0.86931 0.08391 0.73003 0.0
H704 H 0.59128 0.28247 0.02551 0.0
H705 H 0.51832 0.22137 0.01612 0.0
H706 H 0.59046 0.27699 0.0937 0.0
H707 H 0.51657 0.21679 0.08436 0.0
H708 H 0.53655 0.19478 0.2071 0.0
H709 H 0.54004 0.19758 0.13843 0.0
H710 H 0.56316 0.29015 0.1469 0.0
H711 H 0.56089 0.28694 0.21488 0.0
C712 C 0.57484 0.26811 0.03805 0.0
C713 C 0.5548 0.25247 0.01536 0.0
C714 C 0.57426 0.26501 0.07725 0.0
C715 C 0.55335 0.24648 0.09486 0.0
C716 C 0.53331 0.23086 0.07199 0.0
C717 C 0.53414 0.2337 0.03278 0.0
C718 C 0.54246 0.21564 0.19415 0.0
C719 C 0.5485 0.24058 0.21647 0.0
C720 C 0.54433 0.21734 0.15476 0.0
C721 C 0.55197 0.24412 0.13683 0.0
C722 C 0.55787 0.26898 0.15942 0.0
C723 C 0.55635 0.26718 0.1986 0.0
H724 H 0.29875 0.58396 0.02595 0.0
H725 H 0.23985 0.50953 0.0395 0.0
H726 H 0.30958 0.58292 0.09346 0.0
H727 H 0.25056 0.50868 0.10681 0.0
H728 H 0.24983 0.54026 0.22973 0.0
H729 H 0.24081 0.54197 0.16228 0.0
H730 H 0.33456 0.54857 0.1418 0.0
H731 H 0.34377 0.5467 0.20993 0.0
C732 C 0.28803 0.56745 0.04331 0.0
C733 C 0.26837 0.54684 0.0273 0.0
C734 C 0.29443 0.56674 0.08192 0.0
C735 C 0.28097 0.5457 0.10545 0.0
C736 C 0.26114 0.52529 0.08946 0.0
C737 C 0.25505 0.52574 0.05085 0.0
C738 C 0.26862 0.5421 0.21097 0.0
C739 C 0.29756 0.54324 0.22526 0.0
C740 C 0.2634 0.54292 0.17224 0.0
C741 C 0.28694 0.54527 0.14668 0.0
C742 C 0.31595 0.54687 0.16086 0.0
C743 C 0.32124 0.54562 0.19979 0.0
H744 H 1.00269 0.34559 0.20093 0.0
H745 H 0.99478 0.25205 0.22347 0.0
H746 H 0.99937 0.33545 0.1331 0.0
H747 H 0.99163 0.24208 0.15627 0.0
H748 H 0.02375 0.23413 0.03364 0.0
H749 H 0.02609 0.24572 0.10071 0.0
H750 H 0.96165 0.31498 0.08543 0.0
H751 H 0.9591 0.3033 0.0182 0.0
C752 C 1.0003 0.32294 0.19145 0.0
C753 C 0.99911 0.29964 0.21759 0.0
C754 C 0.99822 0.31715 0.15269 0.0
C755 C 0.9954 0.28793 0.13937 0.0
C756 C 0.99413 0.26477 0.16559 0.0
C757 C 0.99578 0.27055 0.20416 0.0
C758 C 1.01002 0.25179 0.04453 0.0
C759 C 0.99122 0.26775 0.02054 0.0
C760 C 1.0113 0.25838 0.08299 0.0
C761 C 0.9941 0.28132 0.09834 0.0
C762 C 0.97537 0.29738 0.07436 0.0
C763 C 0.97377 0.29052 0.03592 0.0
H764 H 0.20374 1.01339 0.20326 0.0
H765 H 0.29508 0.99257 0.2264 0.0
H766 H 0.2143 1.01189 0.13551 0.0
H767 H 0.30544 0.99107 0.15928 0.0
H768 H 0.31995 0.0248 0.03917 0.0
H769 H 0.30767 0.02697 0.10606 0.0
H770 H 0.22955 0.97454 0.08579 0.0
H771 H 0.24175 0.97232 0.01885 0.0
C772 C 0.22599 1.00851 0.19393 0.0
C773 C 0.24856 1.00319 0.22022 0.0
C774 C 0.23201 1.00751 0.1552 0.0
C775 C 0.26076 1.00155 0.14211 0.0
C776 C 0.28319 0.99613 0.16846 0.0
C777 C 0.27714 0.9968 0.20698 0.0
C778 C 0.30013 1.01377 0.04893 0.0
C779 C 0.28186 0.9984 0.02365 0.0
C780 C 0.29316 1.01493 0.08727 0.0
C781 C 0.26762 1.00094 0.10117 0.0
C782 C 0.2492 0.98579 0.07586 0.0
C783 C 0.25632 0.98437 0.03756 0.0
H784 H 0.03953 0.85479 0.30414 0.0
H785 H 0.04936 0.76003 0.29597 0.0
H786 H 0.04369 0.85147 0.37269 0.0
H787 H 0.05238 0.75649 0.36396 0.0
H788 H 0.08471 0.76055 0.48443 0.0
H789 H 0.08271 0.76556 0.41616 0.0
H790 H 1.01879 0.836 0.42782 0.0
H791 H 1.02175 0.83168 0.49599 0.0
C792 C 0.04232 0.83326 0.31698 0.0
C793 C 0.04413 0.80771 0.29455 0.0
C794 C 0.04459 0.83128 0.35633 0.0
C795 C 0.04847 0.80367 0.37417 0.0
C796 C 0.05006 0.7782 0.35149 0.0
C797 C 0.0481 0.78022 0.31232 0.0
C798 C 0.07019 0.77704 0.47239 0.0
C799 C 0.05333 0.79562 0.49573 0.0
C800 C 0.06892 0.77989 0.43314 0.0
C801 C 0.0505 0.80119 0.41614 0.0
C802 C 0.03361 0.8197 0.43965 0.0
C803 C 0.03512 0.81704 0.47887 0.0
H804 H 0.69427 0.04326 0.30762 0.0
H805 H 0.78934 0.0463 0.29822 0.0
H806 H 0.69838 0.04758 0.37599 0.0
H807 H 0.79356 0.0495 0.36624 0.0
H808 H 0.79153 0.0831 0.48662 0.0
H809 H 0.7863 0.08117 0.41835 0.0
H810 H 0.71288 1.0207 0.43025 0.0
H811 H 0.71745 1.02354 0.49837 0.0
C812 C 0.71603 0.04461 0.32018 0.0
C813 C 0.74146 0.04441 0.29752 0.0
C814 C 0.71844 0.04696 0.35939 0.0
C815 C 0.74634 0.04889 0.37681 0.0
C816 C 0.7717 0.04862 0.35395 0.0
C817 C 0.76928 0.04657 0.31485 0.0
C818 C 0.7743 0.06937 0.47461 0.0
C819 C 0.75493 0.05345 0.49793 0.0
C820 C 0.77135 0.06815 0.43542 0.0
C821 C 0.74913 0.05075 0.4186 0.0
C822 C 0.7299 0.03475 0.44208 0.0
C823 C 0.73268 0.03619 0.48122 0.0
H824 H 0.49495 0.7956 0.29305 0.0
H825 H 0.50253 0.70175 0.31354 0.0
H826 H 0.49332 0.80484 0.36053 0.0
H827 H 0.50048 0.71116 0.38174 0.0
H828 H 0.45939 0.74464 0.49707 0.0
H829 H 0.46171 0.7331 0.42978 0.0
H830 H 0.52999 0.79875 0.41543 0.0
H831 H 0.52807 0.81006 0.4827 0.0
C832 C 0.49616 0.77688 0.312 0.0
C833 C 0.49892 0.74792 0.29795 0.0
C834 C 0.49539 0.78225 0.35068 0.0
C835 C 0.49688 0.75876 0.37636 0.0
C836 C 0.49921 0.72967 0.36248 0.0
C837 C 0.50053 0.7243 0.32357 0.0
C838 C 0.4749 0.75664 0.47956 0.0
C839 C 0.49354 0.77833 0.49523 0.0
C840 C 0.47635 0.74984 0.44112 0.0
C841 C 0.49608 0.76496 0.41744 0.0
C842 C 0.5145 0.78681 0.43303 0.0
C843 C 0.51342 0.79326 0.47154 0.0
H844 H 0.82468 0.53011 0.49331 0.0
H845 H 0.76119 0.45919 0.48387 0.0
H846 H 0.82995 0.53114 0.42513 0.0
H847 H 0.76732 0.45927 0.41575 0.0
H848 H 0.75967 0.48853 0.29415 0.0
H849 H 0.75569 0.48675 0.36211 0.0
H850 H 0.84888 0.5063 0.37175 0.0
H851 H 0.85251 0.50931 0.30312 0.0
C852 C 0.81196 0.51459 0.47665 0.0
C853 C 0.79233 0.49472 0.49401 0.0
C854 C 0.81519 0.51499 0.43748 0.0
C855 C 0.79911 0.4953 0.41464 0.0
C856 C 0.77969 0.47518 0.4322 0.0
C857 C 0.77621 0.47504 0.47135 0.0
C858 C 0.7794 0.49236 0.3107 0.0
C859 C 0.80643 0.49911 0.29319 0.0
C860 C 0.77714 0.49113 0.34985 0.0
C861 C 0.80195 0.49623 0.37273 0.0
C862 C 0.82916 0.50268 0.35516 0.0
C863 C 0.83133 0.50427 0.31581 0.0
H864 H 0.52072 0.82876 0.99714 0.0
H865 H 0.46116 0.75469 0.98518 0.0
H866 H 0.52326 0.83364 0.92904 0.0
H867 H 0.46286 0.76018 0.91692 0.0
H868 H 0.49706 0.75784 0.79636 0.0
H869 H 0.49421 0.75323 0.86437 0.0
H870 H 0.49616 0.84846 0.87505 0.0
H871 H 0.50005 0.85298 0.80667 0.0
C872 C 0.50803 0.81358 0.97995 0.0
C873 C 0.49083 0.79124 0.99664 0.0
C874 C 0.5093 0.81655 0.94081 0.0
C875 C 0.49321 0.7974 0.91726 0.0
C876 C 0.47592 0.77507 0.93403 0.0
C877 C 0.47484 0.77196 0.97324 0.0
C878 C 0.49687 0.77784 0.81317 0.0
C879 C 0.4989 0.80579 0.79607 0.0
C880 C 0.49502 0.77519 0.85229 0.0
C881 C 0.49486 0.80044 0.87543 0.0
C882 C 0.49668 0.82848 0.85824 0.0
C883 C 0.49879 0.83112 0.81901 0.0
H884 H 0.79168 0.49621 0.78346 0.0
H885 H 0.69972 0.51459 0.80606 0.0
H886 H 0.80163 0.49431 0.85061 0.0
H887 H 0.70985 0.51255 0.874 0.0
H888 H 0.7392 0.47145 0.9902 0.0
H889 H 0.72665 0.4742 0.92329 0.0
H890 H 0.80205 0.53071 0.90423 0.0
H891 H 0.81458 0.52812 0.97094 0.0
C892 C 0.77351 0.49979 0.80279 0.0
C893 C 0.74488 0.50565 0.78938 0.0
C894 C 0.77931 0.49888 0.84132 0.0
C895 C 0.7566 0.50346 0.86758 0.0
C896 C 0.72779 0.50886 0.85435 0.0
C897 C 0.72201 0.51019 0.81554 0.0
C898 C 0.75308 0.4845 0.97173 0.0
C899 C 0.77794 0.49955 0.98592 0.0
C900 C 0.74575 0.48623 0.93349 0.0
C901 C 0.76334 0.50268 0.90854 0.0
C902 C 0.78818 0.51769 0.92274 0.0
C903 C 0.79531 0.51626 0.96099 0.0
H904 H 0.04923 0.79674 0.79073 0.0
H905 H 0.04425 0.70258 0.81026 0.0
H906 H 0.05069 0.80557 0.85825 0.0
H907 H 0.04588 0.71158 0.87847 0.0
H908 H 0.08394 0.74329 0.99504 0.0
H909 H 0.08208 0.73232 0.92762 0.0
H910 H 1.01587 0.79998 0.913 0.0
H911 H 1.01753 0.81087 0.98032 0.0
C912 C 0.0485 0.77786 0.80944 0.0
C913 C 0.04654 0.74892 0.79504 0.0
C914 C 0.04916 0.78299 0.84821 0.0
C915 C 0.04825 0.75932 0.87373 0.0
C916 C 0.04672 0.73028 0.85946 0.0
C917 C 0.04563 0.72513 0.82047 0.0
C918 C 0.06897 0.75583 0.97745 0.0
C919 C 0.05089 0.77801 0.99312 0.0
C920 C 0.06777 0.74938 0.93888 0.0
C921 C 0.04881 0.76525 0.91499 0.0
C922 C 0.03086 0.78749 0.93063 0.0
C923 C 0.03176 0.79368 0.96924 0.0
H924 H 0.75186 0.05184 0.79484 0.0
H925 H 0.84459 0.03594 0.81492 0.0
H926 H 0.74274 0.05273 0.86235 0.0
H927 H 0.83534 0.03736 0.88321 0.0
H928 H 0.80414 0.08064 0.99915 0.0
H929 H 0.81587 0.07804 0.93194 0.0
H930 H 0.74645 1.01379 0.91626 0.0
H931 H 0.73497 1.01591 0.98351 0.0
C932 C 0.77037 0.04866 0.81371 0.0
C933 C 0.79898 0.0438 0.79956 0.0
C934 C 0.76505 0.04899 0.85239 0.0
C935 C 0.78828 0.04501 0.87796 0.0
C936 C 0.81705 0.04054 0.864 0.0
C937 C 0.82232 0.0396 0.82505 0.0
C938 C 0.79138 0.06594 0.98137 0.0
C939 C 0.76856 0.0485 0.99663 0.0
C940 C 0.79829 0.0643 0.943 0.0
C941 C 0.78215 0.04565 0.919 0.0
C942 C 0.75921 0.02839 0.93417 0.0
C943 C 0.75266 0.02961 0.97264 0.0
H944 H 1.00272 0.195 0.70701 0.0
H945 H 0.99102 0.2893 0.71939 0.0
H946 H 1.00008 0.20028 0.63862 0.0
H947 H 0.98944 0.29477 0.65144 0.0
H948 H 0.96075 0.29271 0.52876 0.0
H949 H 0.96087 0.28639 0.59697 0.0
H950 H 0.0271 0.21805 0.58623 0.0
H951 H 0.02613 0.22369 0.51819 0.0
C952 C 0.99975 0.21686 0.69514 0.0
C953 C 0.99712 0.24169 0.7187 0.0
C954 C 0.99839 0.21996 0.65589 0.0
C955 C 0.99459 0.24801 0.63924 0.0
C956 C 0.99186 0.27276 0.66301 0.0
C957 C 0.99297 0.26962 0.70213 0.0
C958 C 0.97539 0.27642 0.54101 0.0
C959 C 0.99345 0.25875 0.51797 0.0
C960 C 0.97556 0.27282 0.5802 0.0
C961 C 0.99398 0.25162 0.59738 0.0
C962 C 1.01219 0.23418 0.57418 0.0
C963 C 1.01183 0.23761 0.53506 0.0
H964 H 0.26377 0.95937 0.52427 0.0
H965 H 0.32749 0.03003 0.5146 0.0
H966 H 0.26893 0.96049 0.59248 0.0
H967 H 0.33177 0.03215 0.58287 0.0
H968 H 0.35231 1.01211 0.70607 0.0
H969 H 0.34976 1.00837 0.63739 0.0
H970 H 0.25647 0.98873 0.64514 0.0
H971 H 0.25941 0.99122 0.71314 0.0
C972 C 0.27862 0.97539 0.53676 0.0
C973 C 0.29509 0.9947 0.51401 0.0
C974 C 0.28155 0.97614 0.57597 0.0
C975 C 0.30071 0.99653 0.5935 0.0
C976 C 0.31717 1.01582 0.57057 0.0
C977 C 0.31452 1.01479 0.53134 0.0
C978 C 0.33134 1.00694 0.69294 0.0
C979 C 0.30611 1.0019 0.71504 0.0
C980 C 0.32979 1.00492 0.65356 0.0
C981 C 0.30288 0.99815 0.63545 0.0
C982 C 0.27772 0.99331 0.65783 0.0
C983 C 0.27937 0.99495 0.697 0.0
H984 H 0.53576 0.34486 0.70508 0.0
H985 H 0.55789 0.25371 0.72804 0.0
H986 H 0.53723 0.3343 0.63726 0.0
H987 H 0.55932 0.24334 0.66094 0.0
H988 H 0.52534 0.22803 0.54122 0.0
H989 H 0.52319 0.2406 0.60802 0.0
H990 H 0.57459 0.31933 0.58708 0.0
H991 H 0.5768 0.30681 0.52015 0.0
C992 C 0.54091 0.32265 0.69571 0.0
C993 C 0.54661 0.30014 0.72197 0.0
C994 C 0.54189 0.31663 0.65694 0.0
C995 C 0.5482 0.28792 0.64378 0.0
C996 C 0.554 0.26556 0.67013 0.0
C997 C 0.55336 0.27161 0.70866 0.0
C998 C 0.53615 0.24805 0.5508 0.0
C999 C 0.55127 0.26637 0.52533 0.0
C1000 C 0.53501 0.2552 0.5891 0.0
C1001 C 0.54872 0.28098 0.60282 0.0
C1002 C 0.56357 0.29948 0.57731 0.0
C1003 C 0.565 0.29217 0.53903 0.0
H1004 H 0.29627 0.54137 0.73044 0.0
H1005 H 0.20225 0.54218 0.70978 0.0
H1006 H 0.30562 0.54411 0.66306 0.0
H1007 H 0.21178 0.54509 0.64179 0.0
H1008 H 0.24558 0.58325 0.52678 0.0
H1009 H 0.23484 0.58124 0.59425 0.0
H1010 H 0.29823 0.51071 0.60702 0.0
H1011 H 0.30888 0.5125 0.53968 0.0
C1012 C 0.27754 0.54219 0.7115 0.0
C1013 C 0.24848 0.54144 0.72551 0.0
C1014 C 0.28296 0.5436 0.67283 0.0
C1015 C 0.25947 0.54468 0.64709 0.0
C1016 C 0.23033 0.5444 0.661 0.0
C1017 C 0.22488 0.54256 0.69985 0.0
C1018 C 0.25728 0.56734 0.54399 0.0
C1019 C 0.27811 0.54801 0.52779 0.0
C1020 C 0.25095 0.56608 0.58258 0.0
C1021 C 0.26562 0.54578 0.60593 0.0
C1022 C 0.28669 0.52672 0.5898 0.0
C1023 C 0.29273 0.52771 0.55118 0.0
H1024 H 0.64191 0.23307 0.42426 0.0
H1025 H 0.57228 0.18342 0.47754 0.0
H1026 H 0.67378 0.22463 0.47871 0.0
H1027 H 0.60383 0.1751 0.53228 0.0
H1028 H 0.6841 0.12104 0.57463 0.0
H1029 H 0.64705 0.14185 0.53296 0.0
H1030 H 0.68473 0.22882 0.54823 0.0
H1031 H 0.7224 0.20776 0.5899 0.0
C1032 C 0.63292 0.22176 0.44852 0.0
C1033 C 0.60457 0.20933 0.44719 0.0
C1034 C 0.65122 0.21669 0.47961 0.0
C1035 C 0.64146 0.19877 0.50951 0.0
C1036 C 0.61211 0.1886 0.50941 0.0
C1037 C 0.59394 0.19362 0.47835 0.0
C1038 C 0.68464 0.14458 0.56906 0.0
C1039 C 0.70655 0.16267 0.58502 0.0
C1040 C 0.66307 0.15662 0.54563 0.0
C1041 C 0.66285 0.18705 0.53746 0.0
C1042 C 0.68438 0.2053 0.55398 0.0
C1043 C 0.70586 0.19325 0.57785 0.0
H1044 H 0.33906 0.58436 0.47238 0.0
H1045 H 0.30465 0.66091 0.41534 0.0
H1046 H 0.34757 0.61376 0.52867 0.0
H1047 H 0.31195 0.69058 0.4722 0.0
H1048 H 0.38332 0.73792 0.54293 0.0
H1049 H 0.35618 0.70964 0.49676 0.0
H1050 H 0.3358 0.64373 0.58094 0.0
H1051 H 0.36485 0.67123 0.62688 0.0
C1052 C 0.33176 0.60719 0.47276 0.0
C1053 C 0.32097 0.62042 0.4399 0.0
C1054 C 0.33675 0.62419 0.505 0.0
C1055 C 0.33113 0.65484 0.50484 0.0
C1056 C 0.31732 0.66726 0.47303 0.0
C1057 C 0.31268 0.65025 0.44064 0.0
C1058 C 0.37346 0.71725 0.55173 0.0
C1059 C 0.37744 0.70632 0.58845 0.0
C1060 C 0.35714 0.70126 0.52527 0.0
C1061 C 0.3439 0.67411 0.53486 0.0
C1062 C 0.34614 0.66423 0.57228 0.0
C1063 C 0.36271 0.68012 0.59872 0.0
H1064 H 0.81871 0.3424 0.58504 0.0
H1065 H 0.86575 0.42422 0.5668 0.0
H1066 H 0.85028 0.3178 0.53817 0.0
H1067 H 0.8976 0.39954 0.52089 0.0
H1068 H 0.96449 0.34339 0.46263 0.0
H1069 H 0.93639 0.35406 0.52002 0.0
H1070 H 0.85568 0.33036 0.46288 0.0
H1071 H 0.88384 0.32027 0.40529 0.0
C1072 C 0.83604 0.35495 0.57136 0.0
C1073 C 0.83967 0.38523 0.57915 0.0
C1074 C 0.85402 0.34091 0.54468 0.0
C1075 C 0.87645 0.35675 0.52631 0.0
C1076 C 0.88067 0.38677 0.53507 0.0
C1077 C 0.86229 0.40094 0.56098 0.0
C1078 C 0.94094 0.33913 0.46298 0.0
C1079 C 0.92624 0.33065 0.42996 0.0
C1080 C 0.92487 0.34553 0.49559 0.0
C1081 C 0.89393 0.3432 0.49564 0.0
C1082 C 0.87955 0.33209 0.46358 0.0
C1083 C 0.89559 0.32624 0.43076 0.0
H1084 H 0.23362 0.88476 0.39848 0.0
H1085 H 0.21245 0.96192 0.46434 0.0
H1086 H 0.22622 0.85345 0.45373 0.0
H1087 H 0.20369 0.93099 0.51917 0.0
H1088 H 0.18647 0.8709 0.61491 0.0
H1089 H 0.21494 0.89746 0.5677 0.0
H1090 H 0.1819 0.83824 0.48186 0.0
H1091 H 0.1553 0.81058 0.52903 0.0
C1092 C 0.22848 0.89504 0.42527 0.0
C1093 C 0.22388 0.92563 0.42751 0.0
C1094 C 0.22376 0.87715 0.45678 0.0
C1095 C 0.2135 0.88951 0.49077 0.0
C1096 C 0.21168 0.92054 0.49369 0.0
C1097 C 0.21685 0.93842 0.4623 0.0
C1098 C 0.18561 0.86322 0.58604 0.0
C1099 C 0.16759 0.8391 0.57587 0.0
C1100 C 0.20187 0.87862 0.55888 0.0
C1101 C 0.20051 0.87038 0.52074 0.0
C1102 C 0.18379 0.84527 0.51091 0.0
C1103 C 0.16778 0.82971 0.53808 0.0
H1104 H 0.19047 0.8551 0.89774 0.0
H1105 H 0.2429 0.8919 0.98798 0.0
H1106 H 0.15974 0.82933 0.94388 0.0
H1107 H 0.21178 0.86718 0.03377 0.0
H1108 H 0.1621 0.8144 0.11373 0.0
H1109 H 0.19616 0.82099 0.06093 0.0
H1110 H 0.12268 0.84473 0.98948 0.0
H1111 H 0.08893 0.83754 0.04224 0.0
C1112 C 0.19556 0.85758 0.92737 0.0
C1113 C 0.21871 0.8762 0.93911 0.0
C1114 C 0.17787 0.84288 0.9538 0.0
C1115 C 0.18315 0.84621 0.99259 0.0
C1116 C 0.20717 0.86378 1.00417 0.0
C1117 C 0.22474 0.8785 0.97783 0.0
C1118 C 0.15324 0.81963 0.0862 0.0
C1119 C 0.12298 0.82503 0.0817 0.0
C1120 C 0.17271 0.82384 0.0561 0.0
C1121 C 0.16226 0.83408 0.02115 0.0
C1122 C 0.13155 0.8367 0.01586 0.0
C1123 C 0.1121 0.83234 0.04598 0.0
H1124 H 0.7332 0.16237 0.10509 0.0
H1125 H 0.70543 0.08123 0.05209 0.0
H1126 H 0.72301 0.18941 0.04669 0.0
H1127 H 0.69495 0.10812 0.9939 0.0
H1128 H 0.62584 0.17876 0.9473 0.0
H1129 H 0.65093 0.14801 0.99386 0.0
H1130 H 0.73312 0.19277 0.97048 0.0
H1131 H 0.70804 0.22327 0.92295 0.0
C1132 C 0.72632 0.15019 0.08032 0.0
C1133 C 0.7206 0.11976 0.08259 0.0
C1134 C 0.72039 0.1656 0.04704 0.0
C1135 C 0.70795 0.15081 0.01606 0.0
C1136 C 0.70451 0.11996 0.01746 0.0
C1137 C 0.71085 0.10454 0.05051 0.0
C1138 C 0.64928 0.18193 0.95196 0.0
C1139 C 0.665 0.20349 0.93181 0.0
C1140 C 0.66368 0.16416 0.97826 0.0
C1141 C 0.69397 0.16793 0.98542 0.0
C1142 C 0.70979 0.18939 0.96522 0.0
C1143 C 0.69548 0.20675 0.93816 0.0
H1144 H 0.39165 0.72503 0.09916 0.0
H1145 H 0.47202 0.69568 0.04589 0.0
H1146 H 0.36409 0.71421 0.04129 0.0
H1147 H 0.44449 0.68422 0.9883 0.0
H1148 H 0.37124 0.61504 0.94567 0.0
H1149 H 0.40335 0.64053 0.9905 0.0
H1150 H 0.36093 0.72343 0.9643 0.0
H1151 H 0.32914 0.69793 0.9184 0.0
C1152 C 0.40354 0.71755 0.07443 0.0
C1153 C 0.43384 0.71145 0.07648 0.0
C1154 C 0.38783 0.71128 0.04147 0.0
C1155 C 0.40222 0.69816 0.01062 0.0
C1156 C 0.43298 0.69429 0.01179 0.0
C1157 C 0.44872 0.70104 0.0445 0.0
C1158 C 0.36896 0.63873 0.94925 0.0
C1159 C 0.34766 0.65454 0.92887 0.0
C1160 C 0.38747 0.65334 0.97457 0.0
C1161 C 0.38467 0.68393 0.98053 0.0
C1162 C 0.36356 0.69986 0.95994 0.0
C1163 C 0.34548 0.68532 0.93382 0.0
H1164 H 0.85722 0.47727 0.0333 0.0
H1165 H 0.81225 0.40328 0.08386 0.0
H1166 H 0.86563 0.44828 0.97621 0.0
H1167 H 0.82074 0.37397 0.02675 0.0
H1168 H 0.83936 0.33163 0.91027 0.0
H1169 H 0.81617 0.36703 0.95378 0.0
H1170 H 0.90174 0.4052 0.97676 0.0
H1171 H 0.92471 0.37001 0.9339 0.0
C1172 C 0.84794 0.45522 0.03138 0.0
C1173 C 0.83381 0.44249 0.06248 0.0
C1174 C 0.85297 0.43856 0.99894 0.0
C1175 C 0.84427 0.40876 0.99736 0.0
C1176 C 0.82754 0.39693 0.02715 0.0
C1177 C 0.82255 0.41368 0.05973 0.0
C1178 C 0.85305 0.34785 0.92441 0.0
C1179 C 0.88384 0.3479 0.91914 0.0
C1180 C 0.83981 0.36799 0.94925 0.0
C1181 C 0.85712 0.38897 0.96837 0.0
C1182 C 0.88777 0.38957 0.962 0.0
C1183 C 0.90099 0.36919 0.93782 0.0
H1184 H 0.37842 0.81147 0.61073 0.0
H1185 H 0.45632 0.83783 0.54978 0.0
H1186 H 0.34853 0.81881 0.55418 0.0
H1187 H 0.42683 0.84613 0.49362 0.0
H1188 H 0.36915 0.86183 0.39517 0.0
H1189 H 0.39519 0.83346 0.44299 0.0
H1190 H 0.33277 0.86363 0.52677 0.0
H1191 H 0.30581 0.89028 0.47891 0.0
C1192 C 0.38925 0.81767 0.58469 0.0
C1193 C 0.41961 0.82363 0.58418 0.0
C1194 C 0.37216 0.82232 0.55246 0.0
C1195 C 0.38509 0.83377 0.51948 0.0
C1196 C 0.41601 0.8371 0.51825 0.0
C1197 C 0.43307 0.83215 0.55038 0.0
C1198 C 0.36068 0.86203 0.4237 0.0
C1199 C 0.3359 0.87928 0.43323 0.0
C1200 C 0.37575 0.84584 0.45118 0.0
C1201 C 0.36642 0.84648 0.48894 0.0
C1202 C 0.34062 0.86235 0.49802 0.0
C1203 C 0.32546 0.87834 0.47053 0.0
H1204 H 0.7104 0.3119 0.43636 0.0
H1205 H 0.63063 0.36415 0.4384 0.0
H1206 H 0.73341 0.34624 0.4813 0.0
H1207 H 0.65369 0.39853 0.48256 0.0
H1208 H 0.70621 0.46654 0.54232 0.0
H1209 H 0.69812 0.43547 0.48668 0.0
H1210 H 0.71886 0.35784 0.55213 0.0
H1211 H 0.72648 0.389 0.60777 0.0
C1212 C 0.69798 0.33093 0.44602 0.0
C1213 C 0.66863 0.33521 0.43433 0.0
C1214 C 0.71113 0.3505 0.47166 0.0
C1215 C 0.69539 0.3751 0.48515 0.0
C1216 C 0.66646 0.37995 0.47224 0.0
C1217 C 0.65314 0.36011 0.44733 0.0
C1218 C 0.71035 0.44299 0.54423 0.0
C1219 C 0.71728 0.43005 0.57895 0.0
C1220 C 0.70541 0.42521 0.5126 0.0
C1221 C 0.70758 0.39426 0.51527 0.0
C1222 C 0.71723 0.38163 0.54924 0.0
C1223 C 0.72168 0.3994 0.581 0.0
H1224 H 0.23697 0.6575 0.47915 0.0
H1225 H 0.17127 0.67816 0.39484 0.0
H1226 H 0.20992 0.68607 0.52492 0.0
H1227 H 0.14524 0.70889 0.44031 0.0
H1228 H 0.08525 0.70985 0.54783 0.0
H1229 H 0.1145 0.69987 0.49187 0.0
H1230 H 0.19281 0.7304 0.54994 0.0
H1231 H 0.16328 0.7387 0.60659 0.0
C1232 C 0.21677 0.66811 0.47015 0.0
C1233 C 0.20569 0.66424 0.43347 0.0
C1234 C 0.20152 0.68532 0.49641 0.0
C1235 C 0.17504 0.69971 0.48665 0.0
C1236 C 0.16515 0.69764 0.44919 0.0
C1237 C 0.18024 0.68009 0.42299 0.0
C1238 C 0.10849 0.71562 0.54793 0.0
C1239 C 0.12212 0.72507 0.58121 0.0
C1240 C 0.12541 0.70982 0.51585 0.0
C1241 C 0.15632 0.71351 0.51652 0.0
C1242 C 0.16926 0.72635 0.54871 0.0
C1243 C 0.15236 0.7316 0.58099 0.0
H1244 H 0.84477 0.21397 0.42153 0.0
H1245 H 0.93186 0.18346 0.45225 0.0
H1246 H 0.8228 0.17853 0.46582 0.0
H1247 H 0.91001 0.14821 0.49598 0.0
H1248 H 0.86621 0.07106 0.54661 0.0
H1249 H 0.87693 0.10193 0.49183 0.0
H1250 H 0.82488 0.17248 0.53992 0.0
H1251 H 0.81445 0.1415 0.59493 0.0
C1252 C 0.85917 0.19963 0.43762 0.0
C1253 C 0.89003 0.2017 0.43377 0.0
C1254 C 0.8466 0.17945 0.4629 0.0
C1255 C 0.86469 0.1605 0.48401 0.0
C1256 C 0.89551 0.1623 0.47969 0.0
C1257 C 0.90805 0.18275 0.45501 0.0
C1258 C 0.85604 0.0927 0.5446 0.0
C1259 C 0.83918 0.10384 0.5745 0.0
C1260 C 0.8624 0.11044 0.51352 0.0
C1261 C 0.85208 0.1397 0.51196 0.0
C1262 C 0.83296 0.14994 0.54034 0.0
C1263 C 0.82675 0.13216 0.57165 0.0
H1264 H 0.8738 0.1793 0.12599 0.0
H1265 H 0.80734 0.15941 0.04234 0.0
H1266 H 0.9017 0.20706 0.07912 0.0
H1267 H 0.83594 0.18538 0.99534 0.0
H1268 H 0.88566 0.2353 0.91272 0.0
H1269 H 0.85567 0.22925 0.96956 0.0
H1270 H 0.93147 0.19284 0.02727 0.0
H1271 H 0.96116 0.1999 0.97091 0.0
C1272 C 0.86503 0.18091 0.0977 0.0
C1273 C 0.83881 0.16613 0.08777 0.0
C1274 C 0.88114 0.19673 0.07076 0.0
C1275 C 0.8714 0.19817 0.0332 0.0
C1276 C 0.84419 0.18499 0.02393 0.0
C1277 C 0.82802 0.16938 0.05087 0.0
C1278 C 0.89603 0.22733 0.93824 0.0
C1279 C 0.92563 0.21838 0.9379 0.0
C1280 C 0.87885 0.22344 0.97062 0.0
C1281 C 0.89091 0.2099 1.00285 0.0
C1282 C 0.92135 0.20351 1.00326 0.0
C1283 C 0.93849 0.20762 0.97099 0.0
H1284 H 0.42534 0.86406 0.07117 0.0
H1285 H 0.33837 0.8273 0.08912 0.0
H1286 H 0.40458 0.90072 0.02884 0.0
H1287 H 0.3174 0.86453 0.04664 0.0
H1288 H 0.31329 0.9064 0.92134 0.0
H1289 H 0.32159 0.87456 0.97606 0.0
H1290 H 0.37138 0.94456 0.02931 0.0
H1291 H 0.36317 0.97604 0.97448 0.0
C1292 C 0.40177 0.86377 0.06603 0.0
C1293 C 0.38355 0.84247 0.08301 0.0
C1294 C 0.38978 0.8851 0.0422 0.0
C1295 C 0.3593 0.88563 0.03463 0.0
C1296 C 0.34095 0.86462 0.05198 0.0
C1297 C 0.35294 0.84341 0.07629 0.0
C1298 C 0.32467 0.91536 0.94561 0.0
C1299 C 0.3372 0.94369 0.94424 0.0
C1300 C 0.32963 0.89712 0.97681 0.0
C1301 C 0.34758 0.90694 1.00665 0.0
C1302 C 0.35785 0.93627 1.00647 0.0
C1303 C 0.35292 0.95438 0.97536 0.0
H1304 H 0.74364 0.39047 0.02343 0.0
H1305 H 0.68977 0.35439 0.11276 0.0
H1306 H 0.71371 0.36495 0.97726 0.0
H1307 H 0.66043 0.32747 0.06626 0.0
H1308 H 0.59089 0.33349 0.96708 0.0
H1309 H 0.62399 0.3409 0.02034 0.0
H1310 H 0.69865 0.31973 0.94928 0.0
H1311 H 0.66526 0.3134 0.89585 0.0
C1312 C 0.72543 0.37704 0.03332 0.0
C1313 C 0.71855 0.37531 0.07186 0.0
C1314 C 0.70856 0.36179 1.00675 0.0
C1315 C 0.68449 0.34411 0.01791 0.0
C1316 C 0.67855 0.34116 0.0566 0.0
C1317 C 0.69546 0.3565 0.08326 0.0
C1318 C 0.61424 0.32903 0.96345 0.0
C1319 C 0.62564 0.3227 0.92765 0.0
C1320 C 0.63332 0.33345 0.99391 0.0
C1321 C 0.66414 0.33166 0.98894 0.0
C1322 C 0.67512 0.32208 0.95389 0.0
C1323 C 0.65604 0.31801 0.9234 0.0
H1324 H 0.1599 0.73837 0.03546 0.0
H1325 H 0.18671 0.67773 0.12299 0.0
H1326 H 0.18533 0.70853 0.98915 0.0
H1327 H 0.21378 0.64856 0.07658 0.0
H1328 H 0.20759 0.58354 0.97297 0.0
H1329 H 0.20011 0.61526 0.0276 0.0
H1330 H 0.22976 0.69065 0.96291 0.0
H1331 H 0.23611 0.65866 0.90797 0.0
C1332 C 0.17127 0.7187 0.04496 0.0
C1333 C 0.17027 0.70991 0.0829 0.0
C1334 C 0.18652 0.70184 0.01836 0.0
C1335 C 0.20157 0.67591 0.02896 0.0
C1336 C 0.20207 0.6681 0.06727 0.0
C1337 C 0.18665 0.68494 0.09393 0.0
C1338 C 0.21381 0.60664 0.97112 0.0
C1339 C 0.22264 0.61875 0.93663 0.0
C1340 C 0.20939 0.62495 1.00237 0.0
C1341 C 0.21366 0.65573 0.9995 0.0
C1342 C 0.22549 0.6672 0.96586 0.0
C1343 C 0.22957 0.64889 0.93455 0.0
H1344 H 0.39283 0.18996 0.37342 0.0
H1345 H 0.45411 0.12651 0.32728 0.0
H1346 H 0.3524 0.15501 0.36502 0.0
H1347 H 0.4134 0.09112 0.31889 0.0
H1348 H 0.34322 0.02761 0.37397 0.0
H1349 H 0.38311 0.06324 0.36646 0.0
H1350 H 0.32175 0.12626 0.31963 0.0
H1351 H 0.28156 0.09051 0.32712 0.0
C1352 C 0.39747 0.16872 0.36053 0.0
C1353 C 0.42657 0.16097 0.3509 0.0
C1354 C 0.37428 0.14871 0.35564 0.0
C1355 C 0.37966 0.12019 0.34153 0.0
C1356 C 0.4086 0.11287 0.33011 0.0
C1357 C 0.43184 0.13319 0.3345 0.0
C1358 C 0.33814 0.04899 0.36188 0.0
C1359 C 0.30901 0.05624 0.3515 0.0
C1360 C 0.36116 0.06932 0.35719 0.0
C1361 C 0.35568 0.09757 0.34232 0.0
C1362 C 0.32668 0.1047 0.33131 0.0
C1363 C 0.30365 0.08421 0.33561 0.0
H1364 H 0.46087 0.47402 0.34487 0.0
H1365 H 0.38155 0.4214 0.33964 0.0
H1366 H 0.49082 0.42971 0.33716 0.0
H1367 H 0.41158 0.37651 0.3331 0.0
H1368 H 0.4773 0.30101 0.30738 0.0
H1369 H 0.44765 0.34579 0.29873 0.0
H1370 H 0.5015 0.39104 0.38099 0.0
H1371 H 0.53117 0.34692 0.38909 0.0
C1372 C 0.44985 0.45294 0.3411 0.0
C1373 C 0.41893 0.45113 0.34277 0.0
C1374 C 0.467 0.42747 0.33715 0.0
C1375 C 0.4537 0.39939 0.33547 0.0
C1376 C 0.4226 0.39775 0.33425 0.0
C1377 C 0.40534 0.42345 0.33782 0.0
C1378 C 0.48295 0.32063 0.32335 0.0
C1379 C 0.50672 0.32027 0.34893 0.0
C1380 C 0.46584 0.34626 0.3185 0.0
C1381 C 0.47225 0.37218 0.33891 0.0
C1382 C 0.4962 0.37177 0.36415 0.0
C1383 C 0.51316 0.34627 0.36905 0.0
H1384 H 0.22459 0.49419 0.4201 0.0
H1385 H 0.25857 0.46923 0.31098 0.0
H1386 H 0.18497 0.45837 0.41355 0.0
H1387 H 0.2184 0.43298 0.30433 0.0
H1388 H 0.11362 0.41177 0.29572 0.0
H1389 H 0.16241 0.43556 0.29685 0.0
H1390 H 0.17535 0.40486 0.4107 0.0
H1391 H 0.12664 0.38173 0.40954 0.0
C1392 C 0.2238 0.48078 0.39482 0.0
C1393 C 0.24478 0.48463 0.36607 0.0
C1394 C 0.20114 0.46002 0.39117 0.0
C1395 C 0.19855 0.44262 0.35848 0.0
C1396 C 0.21978 0.44605 0.32984 0.0
C1397 C 0.24286 0.46666 0.33375 0.0
C1398 C 0.12754 0.40907 0.32027 0.0
C1399 C 0.11661 0.3947 0.35241 0.0
C1400 C 0.1554 0.4228 0.32105 0.0
C1401 C 0.17257 0.42254 0.35412 0.0
C1402 C 0.16251 0.40591 0.38501 0.0
C1403 C 0.13478 0.39234 0.38423 0.0
H1404 H 0.08337 0.26158 0.31506 0.0
H1405 H 0.02802 0.21209 0.39165 0.0
H1406 H 0.11434 0.21743 0.30588 0.0
H1407 H 0.05864 0.16893 0.38278 0.0
H1408 H 0.09534 0.0874 0.33688 0.0
H1409 H 0.06797 0.1336 0.33182 0.0
H1410 H 0.14934 0.18279 0.34218 0.0
H1411 H 0.17691 0.136 0.34633 0.0
C1412 C 0.07785 0.24148 0.33005 0.0
C1413 C 0.05304 0.24053 0.35403 0.0
C1414 C 0.09561 0.21622 0.3248 0.0
C1415 C 0.08867 0.18947 0.34307 0.0
C1416 C 0.06427 0.18888 0.36751 0.0
C1417 C 0.04678 0.2139 0.37289 0.0
C1418 C 0.10748 0.10807 0.33673 0.0
C1419 C 0.1382 0.10816 0.34181 0.0
C1420 C 0.0918 0.13456 0.33427 0.0
C1421 C 0.10637 0.16193 0.33751 0.0
C1422 C 0.13746 0.1621 0.33958 0.0
C1423 C 0.15327 0.13535 0.34175 0.0
H1424 H 0.79219 0.97069 0.2101 0.0
H1425 H 0.82387 1.00159 0.10237 0.0
H1426 H 0.83309 0.93471 0.21239 0.0
H1427 H 0.86393 0.96605 0.1046 0.0
H1428 H 0.91367 0.88303 0.09562 0.0
H1429 H 0.86756 0.91013 0.10223 0.0
H1430 H 0.89253 0.93652 0.21456 0.0
H1431 H 0.9392 0.90889 0.20793 0.0
C1432 C 0.80764 0.96965 0.18685 0.0
C1433 C 0.80469 0.989 0.15601 0.0
C1434 C 0.83112 0.94923 0.1883 0.0
C1435 C 0.85161 0.9474 0.15855 0.0
C1436 C 0.84835 0.96659 0.12776 0.0
C1437 C 0.82539 0.98713 0.12659 0.0
C1438 C 0.90906 0.89397 0.12215 0.0
C1439 C 0.93017 0.89401 0.15114 0.0
C1440 C 0.88267 0.9096 0.12587 0.0
C1441 C 0.87663 0.92592 0.15863 0.0
C1442 C 0.89658 0.9241 0.18899 0.0
C1443 C 0.92323 0.90824 0.18526 0.0
H1444 H 0.57466 0.79494 0.2038 0.0
H1445 H 0.52051 0.84157 0.12321 0.0
H1446 H 0.6048 0.83955 0.21231 0.0
H1447 H 0.55064 0.88532 0.13107 0.0
H1448 H 0.5897 0.9683 0.16976 0.0
H1449 H 0.5605 0.92334 0.17621 0.0
H1450 H 0.6406 0.87147 0.17862 0.0
H1451 H 0.66988 0.91704 0.17346 0.0
C1452 C 0.56918 0.8146 0.18787 0.0
C1453 C 0.54505 0.81455 0.16283 0.0
C1454 C 0.58652 0.84013 0.19269 0.0
C1455 C 0.57998 0.86622 0.17277 0.0
C1456 C 0.55599 0.86595 0.14763 0.0
C1457 C 0.53879 0.84061 0.14281 0.0
C1458 C 0.60106 0.94735 0.17292 0.0
C1459 C 0.63199 0.9461 0.17127 0.0
C1460 C 0.58436 0.92152 0.17613 0.0
C1461 C 0.59814 0.89365 0.17694 0.0
C1462 C 0.62924 0.89253 0.17809 0.0
C1463 C 0.64605 0.9186 0.17532 0.0
H1464 H 0.75077 0.57241 0.20575 0.0
H1465 H 0.70101 0.52233 0.12374 0.0
H1466 H 0.70779 0.60399 0.21675 0.0
H1467 H 0.65856 0.55403 0.13419 0.0
H1468 H 0.57898 0.60181 0.17082 0.0
H1469 H 0.62052 0.56774 0.17791 0.0
H1470 H 0.6804 0.64209 0.1833 0.0
H1471 H 0.63853 0.67594 0.17725 0.0
C1472 C 0.73068 0.56801 0.19019 0.0
C1473 C 0.72948 0.54482 0.16372 0.0
C1474 C 0.70605 0.5862 0.19643 0.0
C1475 C 0.67959 0.58155 0.17652 0.0
C1476 C 0.67831 0.558 0.15063 0.0
C1477 C 0.70285 0.53991 0.14434 0.0
C1478 C 0.60093 0.61075 0.17517 0.0
C1479 C 0.60561 0.64139 0.17423 0.0
C1480 C 0.6248 0.5913 0.17861 0.0
C1481 C 0.65394 0.60211 0.18052 0.0
C1482 C 0.65832 0.63293 0.18221 0.0
C1483 C 0.63435 0.65238 0.17894 0.0
H1484 H 0.96099 0.76408 0.18593 0.0
H1485 H 0.02431 0.70259 0.13936 0.0
H1486 H 0.92554 0.72367 0.19357 0.0
H1487 H 0.98894 0.6624 0.14707 0.0
H1488 H 0.92546 0.59118 0.18553 0.0
H1489 H 0.96067 0.63202 0.19458 0.0
H1490 H 0.89731 0.69296 0.14748 0.0
H1491 H 0.8626 0.65238 0.13833 0.0
C1492 C 0.96747 0.74196 0.17761 0.0
C1493 C 0.99544 0.73671 0.16166 0.0
C1494 C 0.94714 0.7188 0.18198 0.0
C1495 C 0.95442 0.68978 0.17101 0.0
C1496 C 0.98273 0.68439 0.15627 0.0
C1497 C 1.00291 0.70755 0.15147 0.0
C1498 C 0.91884 0.61349 0.1783 0.0
C1499 C 0.8913 0.61872 0.16144 0.0
C1500 C 0.93905 0.63679 0.18305 0.0
C1501 C 0.93185 0.66574 0.17153 0.0
C1502 C 0.90351 0.67108 0.15698 0.0
C1503 C 0.88362 0.64782 0.1517 0.0
H1504 H 0.74453 0.97428 0.70801 0.0
H1505 H 0.70127 0.02873 0.62476 0.0
H1506 H 0.69909 0.94547 0.71556 0.0
H1507 H 0.6566 0.99978 0.63157 0.0
H1508 H 0.57207 0.96152 0.6667 0.0
H1509 H 0.61704 0.99046 0.67405 0.0
H1510 H 0.66788 0.90985 0.68186 0.0
H1511 H 0.62228 0.88086 0.6758 0.0
C1512 C 0.72539 0.98017 0.69137 0.0
C1513 C 0.72667 1.00391 0.66575 0.0
C1514 C 0.69937 0.96354 0.69559 0.0
C1515 C 0.674 0.97037 0.67445 0.0
C1516 C 0.67539 0.99418 0.649 0.0
C1517 C 0.70124 1.0107 0.6448 0.0
C1518 C 0.59277 0.95001 0.67109 0.0
C1519 C 0.59371 0.91899 0.67072 0.0
C1520 C 0.61863 0.96657 0.67485 0.0
C1521 C 0.64627 0.95255 0.67757 0.0
C1522 C 0.64701 0.92142 0.67988 0.0
C1523 C 0.62091 0.90477 0.67656 0.0
H1524 H 0.66393 0.63785 0.59638 0.0
H1525 H 0.63656 0.61259 0.70813 0.0
H1526 H 0.63664 0.68401 0.60214 0.0
H1527 H 0.60875 0.65922 0.71392 0.0
H1528 H 0.57273 0.7584 0.70846 0.0
H1529 H 0.60978 0.71853 0.71144 0.0
H1530 H 0.58064 0.68676 0.60303 0.0
H1531 H 0.54397 0.72583 0.60016 0.0
C1532 C 0.65272 0.64262 0.62267 0.0
C1533 C 0.65226 0.62159 0.65173 0.0
C1534 C 0.63696 0.66899 0.62588 0.0
C1535 C 0.6201 0.675 0.65818 0.0
C1536 C 0.6216 0.65518 0.68871 0.0
C1537 C 0.63758 0.62857 0.68549 0.0
C1538 C 0.57451 0.743 0.6852 0.0
C1539 C 0.55542 0.74533 0.65404 0.0
C1540 C 0.59554 0.72011 0.68704 0.0
C1541 C 0.59826 0.69965 0.65736 0.0
C1542 C 0.5794 0.70237 0.62615 0.0
C1543 C 0.55823 0.72473 0.6246 0.0
H1544 H 0.91563 0.67707 0.66419 0.0
H1545 H 0.96379 0.59592 0.68048 0.0
H1546 H 0.86883 0.64955 0.66745 0.0
H1547 H 0.91752 0.56859 0.68477 0.0
H1548 H 0.84032 0.5262 0.62435 0.0
H1549 H 0.88367 0.55648 0.63409 0.0
H1550 H 0.83294 0.61671 0.70284 0.0
H1551 H 0.78873 0.58617 0.69269 0.0
C1552 C 0.91612 0.65358 0.6701 0.0
C1553 C 0.94325 0.63858 0.67227 0.0
C1554 C 0.88937 0.63777 0.67176 0.0
C1555 C 0.88943 0.60674 0.67553 0.0
C1556 C 0.91664 0.59234 0.68093 0.0
C1557 C 0.94317 0.60802 0.67897 0.0
C1558 C 0.83813 0.54586 0.64157 0.0
C1559 C 0.81083 0.55358 0.65776 0.0
C1560 C 0.86323 0.56317 0.64747 0.0
C1561 C 0.86201 0.58884 0.66979 0.0
C1562 C 0.83466 0.59704 0.68556 0.0
C1563 C 0.80936 0.5795 0.67978 0.0
H1564 H 0.95928 0.7805 0.68709 0.0
H1565 H 1.02029 0.8433 0.63844 0.0
H1566 H 0.92316 0.82022 0.69603 0.0
H1567 H 0.98437 0.88273 0.64757 0.0
H1568 H 0.92161 0.9527 0.6903 0.0
H1569 H 0.95715 0.91203 0.69764 0.0
H1570 H 0.89348 0.85115 0.65079 0.0
H1571 H 0.85841 0.89163 0.64325 0.0
C1572 C 0.96508 0.80274 0.67852 0.0
C1573 C 0.99261 0.80859 0.66169 0.0
C1574 C 0.9444 0.82549 0.68368 0.0
C1575 C 0.95097 0.85466 0.67271 0.0
C1576 C 0.97877 0.86061 0.65685 0.0
C1577 C 0.99924 0.83787 0.65122 0.0
C1578 C 0.915 0.93044 0.68278 0.0
C1579 C 0.88728 0.92522 0.66639 0.0
C1580 C 0.93539 0.90723 0.68656 0.0
C1581 C 0.92818 0.87839 0.67455 0.0
C1582 C 0.89967 0.87298 0.6606 0.0
C1583 C 0.87959 0.89617 0.65625 0.0
H1584 H 0.24468 0.06986 0.80318 0.0
H1585 H 0.20053 1.01909 0.88954 0.0
H1586 H 0.19968 0.09893 0.79384 0.0
H1587 H 0.15625 0.04829 0.88084 0.0
H1588 H 0.07284 0.08848 0.84713 0.0
H1589 H 0.11652 0.05768 0.83873 0.0
H1590 H 0.17008 0.13622 0.8263 0.0
H1591 H 0.12579 0.16693 0.83327 0.0
C1592 C 0.22541 0.06479 0.82006 0.0
C1593 C 0.22632 0.04207 0.84715 0.0
C1594 C 0.19964 0.08155 0.81479 0.0
C1595 C 0.17417 0.07588 0.83634 0.0
C1596 C 0.17512 0.05294 0.86307 0.0
C1597 C 0.20074 0.03628 0.86833 0.0
C1598 C 0.09382 0.09905 0.84119 0.0
C1599 C 0.096 0.12999 0.84059 0.0
C1600 C 0.11894 0.08147 0.83691 0.0
C1601 C 0.14701 0.09443 0.8328 0.0
C1602 C 0.14885 0.12544 0.8293 0.0
C1603 C 0.1235 0.14308 0.83312 0.0
H1604 H 0.3589 0.15658 0.8734 0.0
H1605 H 0.42144 0.09393 0.82825 0.0
H1606 H 0.39467 0.19633 0.8656 0.0
H1607 H 0.45768 0.13399 0.82044 0.0
H1608 H 0.52215 0.20374 0.87505 0.0
H1609 H 0.48604 0.16421 0.86761 0.0
H1610 H 0.42394 0.22639 0.82053 0.0
H1611 H 0.46012 0.26616 0.82798 0.0
C1612 C 0.38014 0.15148 0.86089 0.0
C1613 C 0.38735 0.12219 0.85131 0.0
C1614 C 0.40064 0.1743 0.85634 0.0
C1615 C 0.42913 0.16837 0.84262 0.0
C1616 C 0.43597 0.13923 0.83137 0.0
C1617 C 0.41516 0.11636 0.83541 0.0
C1618 C 0.50087 0.20906 0.8629 0.0
C1619 C 0.49401 0.2383 0.85246 0.0
C1620 C 0.48026 0.18625 0.85827 0.0
C1621 C 0.4521 0.19207 0.84339 0.0
C1622 C 0.44539 0.22118 0.83226 0.0
C1623 C 0.46614 0.24398 0.83653 0.0
H1624 H 0.32264 0.49565 0.92046 0.0
H1625 H 0.28977 0.46616 0.81263 0.0
H1626 H 0.363 0.46057 0.91618 0.0
H1627 H 0.33076 0.43057 0.80834 0.0
H1628 H 0.4359 0.40796 0.80404 0.0
H1629 H 0.38754 0.43275 0.80204 0.0
H1630 H 0.37155 0.40675 0.91718 0.0
H1631 H 0.4197 0.38277 0.9192 0.0
C1632 C 0.32387 0.48147 0.8959 0.0
C1633 C 0.3029 0.48376 0.86691 0.0
C1634 C 0.34698 0.46114 0.89356 0.0
C1635 C 0.35004 0.44255 0.86203 0.0
C1636 C 0.329 0.44458 0.83298 0.0
C1637 C 0.30546 0.4648 0.83557 0.0
C1638 C 0.42147 0.40667 0.82832 0.0
C1639 C 0.43144 0.39349 0.86178 0.0
C1640 C 0.39386 0.42093 0.82728 0.0
C1641 C 0.37595 0.42221 0.85972 0.0
C1642 C 0.38503 0.4067 0.89196 0.0
C1643 C 0.41248 0.39272 0.89303 0.0
H1644 H 0.07265 0.28928 0.8075 0.0
H1645 H 0.03871 0.32586 0.91128 0.0
H1646 H 0.10906 0.32968 0.8042 0.0
H1647 H 0.07465 0.36554 0.908 0.0
H1648 H 0.15524 0.41824 0.91641 0.0
H1649 H 0.12943 0.371 0.9131 0.0
H1650 H 0.10831 0.38744 0.79651 0.0
H1651 H 0.13478 0.43497 0.79988 0.0
C1652 C 0.07308 0.30573 0.82969 0.0
C1653 C 0.05275 0.30428 0.85968 0.0
C1654 C 0.09381 0.32889 0.82768 0.0
C1655 C 0.09494 0.35065 0.85602 0.0
C1656 C 0.07475 0.34891 0.88602 0.0
C1657 C 0.05393 0.3262 0.88774 0.0
C1658 C 0.14601 0.41127 0.88968 0.0
C1659 C 0.14708 0.43014 0.85838 0.0
C1660 C 0.13099 0.38435 0.88786 0.0
C1661 C 0.11632 0.37574 0.85477 0.0
C1662 C 0.11945 0.39344 0.82238 0.0
C1663 C 0.1347 0.42055 0.82421 0.0
loop_
_geom_bond_atom_site_label_1
_geom_bond_atom_site_label_2
_geom_bond_distance
_geom_bond_site_symmetry_2
_ccdc_geom_bond_type
Zn0 N4 2.020 . S
Zn0 O8 2.019 . S
Zn0 N10 2.119 . S
Zn0 O18 1.975 . S
C1 N2 1.334 . S
C1 N5 1.336 . S
N2 C1 1.334 . S
N2 C3 1.334 . S
C3 N2 1.334 . S
C3 N4 1.336 . S
N4 Zn0 2.020 . S
N4 C3 1.336 . S
N4 N5 1.354 . S
N5 C1 1.336 . S
N5 N4 1.354 . S
N5 Zn9 2.020 . S
C6 O7 1.244 . S
C6 O30 1.257 . S
O7 C6 1.244 . S
O8 Zn0 2.019 . S
O8 C28 1.257 . S
Zn9 N5 2.020 . S
Zn9 O16 1.975 . S
Zn9 N25 2.119 . S
Zn9 O30 2.019 . S
N10 Zn0 2.119 . S
N10 C12 1.334 . S
N10 C13 1.328 . S
C11 C12 1.391 . S
C11 N14 1.329 . S
C11 H32 0.930 . S
C12 N10 1.334 . S
C12 C11 1.391 . S
C12 H19 0.930 . S
C13 N10 1.328 . S
C13 C15 1.392 . S
C13 H20 0.930 . S
N14 C11 1.329 . S
N14 C15 1.331 . S
C15 C13 1.392 . S
C15 N14 1.331 . S
O16 Zn9 1.975 . S
O16 C17 1.252 . S
C17 O16 1.252 . S
C17 O18 1.252 . S
O18 Zn0 1.975 . S
O18 C17 1.252 . S
H19 C12 0.930 . S
H20 C13 0.930 . S
C21 C22 1.392 . S
C21 N25 1.328 . S
C21 H27 0.930 . S
C22 C21 1.392 . S
C22 N26 1.331 . S
C23 C24 1.391 . S
C23 N26 1.329 . S
C23 H33 0.930 . S
C24 C23 1.391 . S
C24 N25 1.334 . S
C24 H31 0.930 . S
N25 Zn9 2.119 . S
N25 C21 1.328 . S
N25 C24 1.334 . S
N26 C22 1.331 . S
N26 C23 1.329 . S
H27 C21 0.930 . S
C28 O8 1.257 . S
C28 O29 1.244 . S
O29 C28 1.244 . S
O30 C6 1.257 . S
O30 Zn9 2.019 . S
H31 C24 0.930 . S
H32 C11 0.930 . S
H33 C23 0.930 . S
Zn34 N38 2.020 . S
Zn34 O42 2.019 . S
Zn34 N44 2.119 . S
Zn34 O52 1.975 . S
C35 N36 1.334 . S
C35 N39 1.336 . S
N36 C35 1.334 . S
N36 C37 1.334 . S
C37 N36 1.334 . S
C37 N38 1.336 . S
N38 Zn34 2.020 . S
N38 C37 1.336 . S
N38 N39 1.354 . S
N39 C35 1.336 . S
N39 N38 1.354 . S
N39 Zn43 2.020 . S
C40 O41 1.244 . S
C40 O64 1.257 . S
O41 C40 1.244 . S
O42 Zn34 2.019 . S
O42 C62 1.257 . S
Zn43 N39 2.020 . S
Zn43 O50 1.975 . S
Zn43 N59 2.119 . S
Zn43 O64 2.019 . S
N44 Zn34 2.119 . S
N44 C46 1.334 . S
N44 C47 1.328 . S
C45 C46 1.391 . S
C45 N48 1.329 . S
C45 H66 0.930 . S
C46 N44 1.334 . S
C46 C45 1.391 . S
C46 H53 0.930 . S
C47 N44 1.328 . S
C47 C49 1.392 . S
C47 H54 0.930 . S
N48 C45 1.329 . S
N48 C49 1.331 . S
C49 C47 1.392 . S
C49 N48 1.331 . S
O50 Zn43 1.975 . S
O50 C51 1.252 . S
C51 O50 1.252 . S
C51 O52 1.252 . S
O52 Zn34 1.975 . S
O52 C51 1.252 . S
H53 C46 0.930 . S
H54 C47 0.930 . S
C55 C56 1.392 . S
C55 N59 1.328 . S
C55 H61 0.930 . S
C56 C55 1.392 . S
C56 N60 1.331 . S
C57 C58 1.391 . S
C57 N60 1.329 . S
C57 H67 0.930 . S
C58 C57 1.391 . S
C58 N59 1.334 . S
C58 H65 0.930 . S
N59 Zn43 2.119 . S
N59 C55 1.328 . S
N59 C58 1.334 . S
N60 C56 1.331 . S
N60 C57 1.329 . S
H61 C55 0.930 . S
C62 O42 1.257 . S
C62 O63 1.244 . S
O63 C62 1.244 . S
O64 C40 1.257 . S
O64 Zn43 2.019 . S
H65 C58 0.930 . S
H66 C45 0.930 . S
H67 C57 0.930 . S
Zn68 N72 2.020 . S
Zn68 O76 2.019 . S
Zn68 N78 2.119 . S
Zn68 O86 1.975 1_655 S
C69 N70 1.334 . S
C69 N73 1.336 . S
N70 C69 1.334 . S
N70 C71 1.334 . S
C71 N70 1.334 . S
C71 N72 1.336 . S
N72 Zn68 2.020 . S
N72 C71 1.336 . S
N72 N73 1.354 . S
N73 C69 1.336 . S
N73 N72 1.354 . S
N73 Zn77 2.020 . S
C74 O75 1.244 . S
C74 O98 1.257 1_655 S
O75 C74 1.244 . S
O76 Zn68 2.019 . S
O76 C96 1.257 . S
Zn77 N73 2.020 . S
Zn77 O84 1.975 1_655 S
Zn77 N93 2.119 1_655 S
Zn77 O98 2.019 1_655 S
N78 Zn68 2.119 . S
N78 C80 1.334 . S
N78 C81 1.328 . S
C79 C80 1.391 . S
C79 N82 1.329 . S
C79 H100 0.930 . S
C80 N78 1.334 . S
C80 C79 1.391 . S
C80 H87 0.930 . S
C81 N78 1.328 . S
C81 C83 1.392 . S
C81 H88 0.930 . S
N82 C79 1.329 . S
N82 C83 1.331 . S
C83 C81 1.392 . S
C83 N82 1.331 . S
O84 Zn77 1.975 1_455 S
O84 C85 1.252 . S
C85 O84 1.252 . S
C85 O86 1.252 . S
O86 Zn68 1.975 1_455 S
O86 C85 1.252 . S
H87 C80 0.930 . S
H88 C81 0.930 . S
C89 C90 1.392 . S
C89 N93 1.328 . S
C89 H95 0.930 . S
C90 C89 1.392 . S
C90 N94 1.331 . S
C91 C92 1.391 . S
C91 N94 1.329 . S
C91 H101 0.930 . S
C92 C91 1.391 . S
C92 N93 1.334 . S
C92 H99 0.930 . S
N93 Zn77 2.119 1_455 S
N93 C89 1.328 . S
N93 C92 1.334 . S
N94 C90 1.331 . S
N94 C91 1.329 . S
H95 C89 0.930 . S
C96 O76 1.257 . S
C96 O97 1.244 . S
O97 C96 1.244 . S
O98 C74 1.257 1_455 S
O98 Zn77 2.019 1_455 S
H99 C92 0.930 . S
H100 C79 0.930 . S
H101 C91 0.930 . S
Zn102 N106 2.020 . S
Zn102 O110 2.019 . S
Zn102 N112 2.119 . S
Zn102 O120 1.975 1_565 S
C103 N104 1.334 . S
C103 N107 1.336 . S
N104 C103 1.334 . S
N104 C105 1.334 . S
C105 N104 1.334 . S
C105 N106 1.336 . S
N106 Zn102 2.020 . S
N106 C105 1.336 . S
N106 N107 1.354 . S
N107 C103 1.336 . S
N107 N106 1.354 . S
N107 Zn111 2.020 . S
C108 O109 1.244 . S
C108 O132 1.257 1_565 S
O109 C108 1.244 . S
O110 Zn102 2.019 . S
O110 C130 1.257 . S
Zn111 N107 2.020 . S
Zn111 O118 1.975 1_565 S
Zn111 N127 2.119 1_565 S
Zn111 O132 2.019 1_565 S
N112 Zn102 2.119 . S
N112 C114 1.334 . S
N112 C115 1.328 . S
C113 C114 1.391 . S
C113 N116 1.329 . S
C113 H134 0.930 . S
C114 N112 1.334 . S
C114 C113 1.391 . S
C114 H121 0.930 . S
C115 N112 1.328 . S
C115 C117 1.392 . S
C115 H122 0.930 . S
N116 C113 1.329 . S
N116 C117 1.331 . S
C117 C115 1.392 . S
C117 N116 1.331 . S
O118 Zn111 1.975 1_545 S
O118 C119 1.252 . S
C119 O118 1.252 . S
C119 O120 1.252 . S
O120 Zn102 1.975 1_545 S
O120 C119 1.252 . S
H121 C114 0.930 . S
H122 C115 0.930 . S
C123 C124 1.392 . S
C123 N127 1.328 . S
C123 H129 0.930 . S
C124 C123 1.392 . S
C124 N128 1.331 . S
C125 C126 1.391 . S
C125 N128 1.329 . S
C125 H135 0.930 . S
C126 C125 1.391 . S
C126 N127 1.334 . S
C126 H133 0.930 . S
N127 Zn111 2.119 1_545 S
N127 C123 1.328 . S
N127 C126 1.334 . S
N128 C124 1.331 . S
N128 C125 1.329 . S
H129 C123 0.930 . S
C130 O110 1.257 . S
C130 O131 1.244 . S
O131 C130 1.244 . S
O132 C108 1.257 1_545 S
O132 Zn111 2.019 1_545 S
H133 C126 0.930 . S
H134 C113 0.930 . S
H135 C125 0.930 . S
Zn136 N140 2.020 . S
Zn136 O144 2.019 1_455 S
Zn136 N146 2.119 1_455 S
Zn136 O154 1.975 1_455 S
C137 N138 1.334 . S
C137 N141 1.336 . S
N138 C137 1.334 . S
N138 C139 1.334 . S
C139 N138 1.334 . S
C139 N140 1.336 . S
N140 Zn136 2.020 . S
N140 C139 1.336 . S
N140 N141 1.354 . S
N141 C137 1.336 . S
N141 N140 1.354 . S
N141 Zn145 2.020 . S
C142 O143 1.244 . S
C142 O166 1.257 . S
O143 C142 1.244 . S
O144 Zn136 2.019 1_655 S
O144 C164 1.257 1_655 S
Zn145 N141 2.020 . S
Zn145 O152 1.975 1_455 S
Zn145 N161 2.119 . S
Zn145 O166 2.019 . S
N146 Zn136 2.119 1_655 S
N146 C148 1.334 . S
N146 C149 1.328 . S
C147 C148 1.391 . S
C147 N150 1.329 . S
C147 H168 0.930 . S
C148 N146 1.334 . S
C148 C147 1.391 . S
C148 H155 0.930 . S
C149 N146 1.328 . S
C149 C151 1.392 . S
C149 H156 0.930 . S
N150 C147 1.329 . S
N150 C151 1.331 . S
C151 C149 1.392 . S
C151 N150 1.331 . S
O152 Zn145 1.975 1_655 S
O152 C153 1.252 . S
C153 O152 1.252 . S
C153 O154 1.252 . S
O154 Zn136 1.975 1_655 S
O154 C153 1.252 . S
H155 C148 0.930 . S
H156 C149 0.930 . S
C157 C158 1.392 . S
C157 N161 1.328 . S
C157 H163 0.930 . S
C158 C157 1.392 . S
C158 N162 1.331 . S
C159 C160 1.391 . S
C159 N162 1.329 . S
C159 H169 0.930 . S
C160 C159 1.391 . S
C160 N161 1.334 . S
C160 H167 0.930 . S
N161 Zn145 2.119 . S
N161 C157 1.328 . S
N161 C160 1.334 . S
N162 C158 1.331 . S
N162 C159 1.329 . S
H163 C157 0.930 . S
C164 O144 1.257 1_455 S
C164 O165 1.244 . S
O165 C164 1.244 . S
O166 C142 1.257 . S
O166 Zn145 2.019 . S
H167 C160 0.930 . S
H168 C147 0.930 . S
H169 C159 0.930 . S
Zn170 N174 2.020 . S
Zn170 O178 2.019 1_545 S
Zn170 N180 2.119 1_545 S
Zn170 O188 1.975 1_545 S
C171 N172 1.334 . S
C171 N175 1.336 . S
N172 C171 1.334 . S
N172 C173 1.334 . S
C173 N172 1.334 . S
C173 N174 1.336 . S
N174 Zn170 2.020 . S
N174 C173 1.336 . S
N174 N175 1.354 . S
N175 C171 1.336 . S
N175 N174 1.354 . S
N175 Zn179 2.020 . S
C176 O177 1.244 . S
C176 O200 1.257 . S
O177 C176 1.244 . S
O178 Zn170 2.019 1_565 S
O178 C198 1.257 1_565 S
Zn179 N175 2.020 . S
Zn179 O186 1.975 1_545 S
Zn179 N195 2.119 . S
Zn179 O200 2.019 . S
N180 Zn170 2.119 1_565 S
N180 C182 1.334 . S
N180 C183 1.328 . S
C181 C182 1.391 . S
C181 N184 1.329 . S
C181 H202 0.930 . S
C182 N180 1.334 . S
C182 C181 1.391 . S
C182 H189 0.930 . S
C183 N180 1.328 . S
C183 C185 1.392 . S
C183 H190 0.930 . S
N184 C181 1.329 . S
N184 C185 1.331 . S
C185 C183 1.392 . S
C185 N184 1.331 . S
O186 Zn179 1.975 1_565 S
O186 C187 1.252 . S
C187 O186 1.252 . S
C187 O188 1.252 . S
O188 Zn170 1.975 1_565 S
O188 C187 1.252 . S
H189 C182 0.930 . S
H190 C183 0.930 . S
C191 C192 1.392 . S
C191 N195 1.328 . S
C191 H197 0.930 . S
C192 C191 1.392 . S
C192 N196 1.331 . S
C193 C194 1.391 . S
C193 N196 1.329 . S
C193 H203 0.930 . S
C194 C193 1.391 . S
C194 N195 1.334 . S
C194 H201 0.930 . S
N195 Zn179 2.119 . S
N195 C191 1.328 . S
N195 C194 1.334 . S
N196 C192 1.331 . S
N196 C193 1.329 . S
H197 C191 0.930 . S
C198 O178 1.257 1_545 S
C198 O199 1.244 . S
O199 C198 1.244 . S
O200 C176 1.257 . S
O200 Zn179 2.019 . S
H201 C194 0.930 . S
H202 C181 0.930 . S
H203 C193 0.930 . S
Zn204 N208 2.020 . S
Zn204 O212 2.019 . S
Zn204 N214 2.119 . S
Zn204 O222 1.975 . S
C205 N206 1.334 . S
C205 N209 1.336 . S
N206 C205 1.334 . S
N206 C207 1.334 . S
C207 N206 1.334 . S
C207 N208 1.336 . S
N208 Zn204 2.020 . S
N208 C207 1.336 . S
N208 N209 1.354 . S
N209 C205 1.336 . S
N209 N208 1.354 . S
N209 Zn213 2.020 . S
C210 O211 1.244 . S
C210 O234 1.257 . S
O211 C210 1.244 . S
O212 Zn204 2.019 . S
O212 C232 1.257 . S
Zn213 N209 2.020 . S
Zn213 O220 1.975 . S
Zn213 N229 2.119 . S
Zn213 O234 2.019 . S
N214 Zn204 2.119 . S
N214 C216 1.334 . S
N214 C217 1.328 . S
C215 C216 1.391 . S
C215 N218 1.329 . S
C215 H236 0.930 . S
C216 N214 1.334 . S
C216 C215 1.391 . S
C216 H223 0.930 . S
C217 N214 1.328 . S
C217 C219 1.392 . S
C217 H224 0.930 . S
N218 C215 1.329 . S
N218 C219 1.331 . S
C219 C217 1.392 . S
C219 N218 1.331 . S
O220 Zn213 1.975 . S
O220 C221 1.252 . S
C221 O220 1.252 . S
C221 O222 1.252 . S
O222 Zn204 1.975 . S
O222 C221 1.252 . S
H223 C216 0.930 . S
H224 C217 0.930 . S
C225 C226 1.392 . S
C225 N229 1.328 . S
C225 H231 0.930 . S
C226 C225 1.392 . S
C226 N230 1.331 . S
C227 C228 1.391 . S
C227 N230 1.329 . S
C227 H237 0.930 . S
C228 C227 1.391 . S
C228 N229 1.334 . S
C228 H235 0.930 . S
N229 Zn213 2.119 . S
N229 C225 1.328 . S
N229 C228 1.334 . S
N230 C226 1.331 . S
N230 C227 1.329 . S
H231 C225 0.930 . S
C232 O212 1.257 . S
C232 O233 1.244 . S
O233 C232 1.244 . S
O234 C210 1.257 . S
O234 Zn213 2.019 . S
H235 C228 0.930 . S
H236 C215 0.930 . S
H237 C227 0.930 . S
Zn238 N242 2.020 . S
Zn238 O246 2.019 . S
Zn238 N248 2.119 . S
Zn238 O256 1.975 . S
C239 N240 1.334 . S
C239 N243 1.336 . S
N240 C239 1.334 . S
N240 C241 1.334 . S
C241 N240 1.334 . S
C241 N242 1.336 . S
N242 Zn238 2.020 . S
N242 C241 1.336 . S
N242 N243 1.354 . S
N243 C239 1.336 . S
N243 N242 1.354 . S
N243 Zn247 2.020 . S
C244 O245 1.244 . S
C244 O268 1.257 . S
O245 C244 1.244 . S
O246 Zn238 2.019 . S
O246 C266 1.257 . S
Zn247 N243 2.020 . S
Zn247 O254 1.975 . S
Zn247 N263 2.119 . S
Zn247 O268 2.019 . S
N248 Zn238 2.119 . S
N248 C250 1.334 . S
N248 C251 1.328 . S
C249 C250 1.391 . S
C249 N252 1.329 . S
C249 H270 0.930 . S
C250 N248 1.334 . S
C250 C249 1.391 . S
C250 H257 0.930 . S
C251 N248 1.328 . S
C251 C253 1.392 . S
C251 H258 0.930 . S
N252 C249 1.329 . S
N252 C253 1.331 . S
C253 C251 1.392 . S
C253 N252 1.331 . S
O254 Zn247 1.975 . S
O254 C255 1.252 . S
C255 O254 1.252 . S
C255 O256 1.252 . S
O256 Zn238 1.975 . S
O256 C255 1.252 . S
H257 C250 0.930 . S
H258 C251 0.930 . S
C259 C260 1.392 . S
C259 N263 1.328 . S
C259 H265 0.930 . S
C260 C259 1.392 . S
C260 N264 1.331 . S
C261 C262 1.391 . S
C261 N264 1.329 . S
C261 H271 0.930 . S
C262 C261 1.391 . S
C262 N263 1.334 . S
C262 H269 0.930 . S
N263 Zn247 2.119 . S
N263 C259 1.328 . S
N263 C262 1.334 . S
N264 C260 1.331 . S
N264 C261 1.329 . S
H265 C259 0.930 . S
C266 O246 1.257 . S
C266 O267 1.244 . S
O267 C266 1.244 . S
O268 C244 1.257 . S
O268 Zn247 2.019 . S
H269 C262 0.930 . S
H270 C249 0.930 . S
H271 C261 0.930 . S
Zn272 N276 2.020 . S
Zn272 O280 2.019 . S
Zn272 N282 2.119 . S
Zn272 O290 1.975 . S
C273 N274 1.334 . S
C273 N277 1.336 . S
N274 C273 1.334 . S
N274 C275 1.334 . S
C275 N274 1.334 . S
C275 N276 1.336 . S
N276 Zn272 2.020 . S
N276 C275 1.336 . S
N276 N277 1.354 . S
N277 C273 1.336 . S
N277 N276 1.354 . S
N277 Zn281 2.020 . S
C278 O279 1.244 . S
C278 O302 1.257 . S
O279 C278 1.244 . S
O280 Zn272 2.019 . S
O280 C300 1.257 . S
Zn281 N277 2.020 . S
Zn281 O288 1.975 . S
Zn281 N297 2.119 . S
Zn281 O302 2.019 . S
N282 Zn272 2.119 . S
N282 C284 1.334 . S
N282 C285 1.328 . S
C283 C284 1.391 . S
C283 N286 1.329 . S
C283 H304 0.930 . S
C284 N282 1.334 . S
C284 C283 1.391 . S
C284 H291 0.930 . S
C285 N282 1.328 . S
C285 C287 1.392 . S
C285 H292 0.930 . S
N286 C283 1.329 . S
N286 C287 1.331 . S
C287 C285 1.392 . S
C287 N286 1.331 . S
O288 Zn281 1.975 . S
O288 C289 1.252 . S
C289 O288 1.252 . S
C289 O290 1.252 . S
O290 Zn272 1.975 . S
O290 C289 1.252 . S
H291 C284 0.930 . S
H292 C285 0.930 . S
C293 C294 1.392 . S
C293 N297 1.328 . S
C293 H299 0.930 . S
C294 C293 1.392 . S
C294 N298 1.331 . S
C295 C296 1.391 . S
C295 N298 1.329 . S
C295 H305 0.930 . S
C296 C295 1.391 . S
C296 N297 1.334 . S
C296 H303 0.930 . S
N297 Zn281 2.119 . S
N297 C293 1.328 . S
N297 C296 1.334 . S
N298 C294 1.331 . S
N298 C295 1.329 . S
H299 C293 0.930 . S
C300 O280 1.257 . S
C300 O301 1.244 . S
O301 C300 1.244 . S
O302 C278 1.257 . S
O302 Zn281 2.019 . S
H303 C296 0.930 . S
H304 C283 0.930 . S
H305 C295 0.930 . S
Zn306 N310 2.020 . S
Zn306 O314 2.019 . S
Zn306 N316 2.119 . S
Zn306 O324 1.975 . S
C307 N308 1.334 . S
C307 N311 1.336 . S
N308 C307 1.334 . S
N308 C309 1.334 . S
C309 N308 1.334 . S
C309 N310 1.336 . S
N310 Zn306 2.020 . S
N310 C309 1.336 . S
N310 N311 1.354 . S
N311 C307 1.336 . S
N311 N310 1.354 . S
N311 Zn315 2.020 . S
C312 O313 1.244 . S
C312 O336 1.257 . S
O313 C312 1.244 . S
O314 Zn306 2.019 . S
O314 C334 1.257 . S
Zn315 N311 2.020 . S
Zn315 O322 1.975 . S
Zn315 N331 2.119 . S
Zn315 O336 2.019 . S
N316 Zn306 2.119 . S
N316 C318 1.334 . S
N316 C319 1.328 . S
C317 C318 1.391 . S
C317 N320 1.329 . S
C317 H338 0.930 . S
C318 N316 1.334 . S
C318 C317 1.391 . S
C318 H325 0.930 . S
C319 N316 1.328 . S
C319 C321 1.392 . S
C319 H326 0.930 . S
N320 C317 1.329 . S
N320 C321 1.331 . S
C321 C319 1.392 . S
C321 N320 1.331 . S
O322 Zn315 1.975 . S
O322 C323 1.252 . S
C323 O322 1.252 . S
C323 O324 1.252 . S
O324 Zn306 1.975 . S
O324 C323 1.252 . S
H325 C318 0.930 . S
H326 C319 0.930 . S
C327 C328 1.392 . S
C327 N331 1.328 . S
C327 H333 0.930 . S
C328 C327 1.392 . S
C328 N332 1.331 . S
C329 C330 1.391 . S
C329 N332 1.329 . S
C329 H339 0.930 . S
C330 C329 1.391 . S
C330 N331 1.334 . S
C330 H337 0.930 . S
N331 Zn315 2.119 . S
N331 C327 1.328 . S
N331 C330 1.334 . S
N332 C328 1.331 . S
N332 C329 1.329 . S
H333 C327 0.930 . S
C334 O314 1.257 . S
C334 O335 1.244 . S
O335 C334 1.244 . S
O336 C312 1.257 . S
O336 Zn315 2.019 . S
H337 C330 0.930 . S
H338 C317 0.930 . S
H339 C329 0.930 . S
Zn340 N344 2.020 . S
Zn340 O348 2.019 . S
Zn340 N350 2.119 . S
Zn340 O358 1.975 1_455 S
C341 N342 1.334 . S
C341 N345 1.336 . S
N342 C341 1.334 . S
N342 C343 1.334 . S
C343 N342 1.334 . S
C343 N344 1.336 . S
N344 Zn340 2.020 . S
N344 C343 1.336 . S
N344 N345 1.354 . S
N345 C341 1.336 . S
N345 N344 1.354 . S
N345 Zn349 2.020 . S
C346 O347 1.244 . S
C346 O370 1.257 1_455 S
O347 C346 1.244 . S
O348 Zn340 2.019 . S
O348 C368 1.257 . S
Zn349 N345 2.020 . S
Zn349 O356 1.975 1_455 S
Zn349 N365 2.119 1_455 S
Zn349 O370 2.019 1_455 S
N350 Zn340 2.119 . S
N350 C352 1.334 . S
N350 C353 1.328 . S
C351 C352 1.391 . S
C351 N354 1.329 . S
C351 H372 0.930 . S
C352 N350 1.334 . S
C352 C351 1.391 . S
C352 H359 0.930 . S
C353 N350 1.328 . S
C353 C355 1.392 . S
C353 H360 0.930 . S
N354 C351 1.329 . S
N354 C355 1.331 . S
C355 C353 1.392 . S
C355 N354 1.331 . S
O356 Zn349 1.975 1_655 S
O356 C357 1.252 . S
C357 O356 1.252 . S
C357 O358 1.252 . S
O358 Zn340 1.975 1_655 S
O358 C357 1.252 . S
H359 C352 0.930 . S
H360 C353 0.930 . S
C361 C362 1.392 . S
C361 N365 1.328 . S
C361 H367 0.930 . S
C362 C361 1.392 . S
C362 N366 1.331 . S
C363 C364 1.391 . S
C363 N366 1.329 . S
C363 H373 0.930 . S
C364 C363 1.391 . S
C364 N365 1.334 . S
C364 H371 0.930 . S
N365 Zn349 2.119 1_655 S
N365 C361 1.328 . S
N365 C364 1.334 . S
N366 C362 1.331 . S
N366 C363 1.329 . S
H367 C361 0.930 . S
C368 O348 1.257 . S
C368 O369 1.244 . S
O369 C368 1.244 . S
O370 C346 1.257 1_655 S
O370 Zn349 2.019 1_655 S
H371 C364 0.930 . S
H372 C351 0.930 . S
H373 C363 0.930 . S
Zn374 N378 2.020 . S
Zn374 O382 2.019 1_545 S
Zn374 N384 2.119 1_545 S
Zn374 O392 1.975 1_545 S
C375 N376 1.334 . S
C375 N379 1.336 . S
N376 C375 1.334 . S
N376 C377 1.334 . S
C377 N376 1.334 . S
C377 N378 1.336 . S
N378 Zn374 2.020 . S
N378 C377 1.336 . S
N378 N379 1.354 . S
N379 C375 1.336 . S
N379 N378 1.354 . S
N379 Zn383 2.020 . S
C380 O381 1.244 . S
C380 O404 1.257 . S
O381 C380 1.244 . S
O382 Zn374 2.019 1_565 S
O382 C402 1.257 1_565 S
Zn383 N379 2.020 . S
Zn383 O390 1.975 1_545 S
Zn383 N399 2.119 . S
Zn383 O404 2.019 . S
N384 Zn374 2.119 1_565 S
N384 C386 1.334 . S
N384 C387 1.328 . S
C385 C386 1.391 . S
C385 N388 1.329 . S
C385 H406 0.930 . S
C386 N384 1.334 . S
C386 C385 1.391 . S
C386 H393 0.930 . S
C387 N384 1.328 . S
C387 C389 1.392 . S
C387 H394 0.930 . S
N388 C385 1.329 . S
N388 C389 1.331 . S
C389 C387 1.392 . S
C389 N388 1.331 . S
O390 Zn383 1.975 1_565 S
O390 C391 1.252 . S
C391 O390 1.252 . S
C391 O392 1.252 . S
O392 Zn374 1.975 1_565 S
O392 C391 1.252 . S
H393 C386 0.930 . S
H394 C387 0.930 . S
C395 C396 1.392 . S
C395 N399 1.328 . S
C395 H401 0.930 . S
C396 C395 1.392 . S
C396 N400 1.331 . S
C397 C398 1.391 . S
C397 N400 1.329 . S
C397 H407 0.930 . S
C398 C397 1.391 . S
C398 N399 1.334 . S
C398 H405 0.930 . S
N399 Zn383 2.119 . S
N399 C395 1.328 . S
N399 C398 1.334 . S
N400 C396 1.331 . S
N400 C397 1.329 . S
H401 C395 0.930 . S
C402 O382 1.257 1_545 S
C402 O403 1.244 . S
O403 C402 1.244 . S
O404 C380 1.257 . S
O404 Zn383 2.019 . S
H405 C398 0.930 . S
H406 C385 0.930 . S
H407 C397 0.930 . S
Zn408 N412 2.020 . S
Zn408 O416 2.019 1_655 S
Zn408 N418 2.119 1_655 S
Zn408 O426 1.975 1_655 S
C409 N410 1.334 . S
C409 N413 1.336 . S
N410 C409 1.334 . S
N410 C411 1.334 . S
C411 N410 1.334 . S
C411 N412 1.336 . S
N412 Zn408 2.020 . S
N412 C411 1.336 . S
N412 N413 1.354 . S
N413 C409 1.336 . S
N413 N412 1.354 . S
N413 Zn417 2.020 . S
C414 O415 1.244 . S
C414 O438 1.257 . S
O415 C414 1.244 . S
O416 Zn408 2.019 1_455 S
O416 C436 1.257 1_455 S
Zn417 N413 2.020 . S
Zn417 O424 1.975 1_655 S
Zn417 N433 2.119 . S
Zn417 O438 2.019 . S
N418 Zn408 2.119 1_455 S
N418 C420 1.334 . S
N418 C421 1.328 . S
C419 C420 1.391 . S
C419 N422 1.329 . S
C419 H440 0.930 . S
C420 N418 1.334 . S
C420 C419 1.391 . S
C420 H427 0.930 . S
C421 N418 1.328 . S
C421 C423 1.392 . S
C421 H428 0.930 . S
N422 C419 1.329 . S
N422 C423 1.331 . S
C423 C421 1.392 . S
C423 N422 1.331 . S
O424 Zn417 1.975 1_455 S
O424 C425 1.252 . S
C425 O424 1.252 . S
C425 O426 1.252 . S
O426 Zn408 1.975 1_455 S
O426 C425 1.252 . S
H427 C420 0.930 . S
H428 C421 0.930 . S
C429 C430 1.392 . S
C429 N433 1.328 . S
C429 H435 0.930 . S
C430 C429 1.392 . S
C430 N434 1.331 . S
C431 C432 1.391 . S
C431 N434 1.329 . S
C431 H441 0.930 . S
C432 C431 1.391 . S
C432 N433 1.334 . S
C432 H439 0.930 . S
N433 Zn417 2.119 . S
N433 C429 1.328 . S
N433 C432 1.334 . S
N434 C430 1.331 . S
N434 C431 1.329 . S
H435 C429 0.930 . S
C436 O416 1.257 1_655 S
C436 O437 1.244 . S
O437 C436 1.244 . S
O438 C414 1.257 . S
O438 Zn417 2.019 . S
H439 C432 0.930 . S
H440 C419 0.930 . S
H441 C431 0.930 . S
Zn442 N446 2.020 . S
Zn442 O450 2.019 1_565 S
Zn442 N452 2.119 1_565 S
Zn442 O460 1.975 1_565 S
C443 N444 1.334 . S
C443 N447 1.336 . S
N444 C443 1.334 . S
N444 C445 1.334 . S
C445 N444 1.334 . S
C445 N446 1.336 . S
N446 Zn442 2.020 . S
N446 C445 1.336 . S
N446 N447 1.354 . S
N447 C443 1.336 . S
N447 N446 1.354 . S
N447 Zn451 2.020 . S
C448 O449 1.244 . S
C448 O472 1.257 . S
O449 C448 1.244 . S
O450 Zn442 2.019 1_545 S
O450 C470 1.257 1_545 S
Zn451 N447 2.020 . S
Zn451 O458 1.975 1_565 S
Zn451 N467 2.119 . S
Zn451 O472 2.019 . S
N452 Zn442 2.119 1_545 S
N452 C454 1.334 . S
N452 C455 1.328 . S
C453 C454 1.391 . S
C453 N456 1.329 . S
C453 H474 0.930 . S
C454 N452 1.334 . S
C454 C453 1.391 . S
C454 H461 0.930 . S
C455 N452 1.328 . S
C455 C457 1.392 . S
C455 H462 0.930 . S
N456 C453 1.329 . S
N456 C457 1.331 . S
C457 C455 1.392 . S
C457 N456 1.331 . S
O458 Zn451 1.975 1_545 S
O458 C459 1.252 . S
C459 O458 1.252 . S
C459 O460 1.252 . S
O460 Zn442 1.975 1_545 S
O460 C459 1.252 . S
H461 C454 0.930 . S
H462 C455 0.930 . S
C463 C464 1.392 . S
C463 N467 1.328 . S
C463 H469 0.930 . S
C464 C463 1.392 . S
C464 N468 1.331 . S
C465 C466 1.391 . S
C465 N468 1.329 . S
C465 H475 0.930 . S
C466 C465 1.391 . S
C466 N467 1.334 . S
C466 H473 0.930 . S
N467 Zn451 2.119 . S
N467 C463 1.328 . S
N467 C466 1.334 . S
N468 C464 1.331 . S
N468 C465 1.329 . S
H469 C463 0.930 . S
C470 O450 1.257 1_565 S
C470 O471 1.244 . S
O471 C470 1.244 . S
O472 C448 1.257 . S
O472 Zn451 2.019 . S
H473 C466 0.930 . S
H474 C453 0.930 . S
H475 C465 0.930 . S
Zn476 N480 2.020 . S
Zn476 O484 2.019 . S
Zn476 N486 2.119 . S
Zn476 O494 1.975 . S
C477 N478 1.334 . S
C477 N481 1.336 . S
N478 C477 1.334 . S
N478 C479 1.334 . S
C479 N478 1.334 . S
C479 N480 1.336 . S
N480 Zn476 2.020 . S
N480 C479 1.336 . S
N480 N481 1.354 . S
N481 C477 1.336 . S
N481 N480 1.354 . S
N481 Zn485 2.020 . S
C482 O483 1.244 . S
C482 O506 1.257 . S
O483 C482 1.244 . S
O484 Zn476 2.019 . S
O484 C504 1.257 . S
Zn485 N481 2.020 . S
Zn485 O492 1.975 . S
Zn485 N501 2.119 . S
Zn485 O506 2.019 . S
N486 Zn476 2.119 . S
N486 C488 1.334 . S
N486 C489 1.328 . S
C487 C488 1.391 . S
C487 N490 1.329 . S
C487 H508 0.930 . S
C488 N486 1.334 . S
C488 C487 1.391 . S
C488 H495 0.930 . S
C489 N486 1.328 . S
C489 C491 1.392 . S
C489 H496 0.930 . S
N490 C487 1.329 . S
N490 C491 1.331 . S
C491 C489 1.392 . S
C491 N490 1.331 . S
O492 Zn485 1.975 . S
O492 C493 1.252 . S
C493 O492 1.252 . S
C493 O494 1.252 . S
O494 Zn476 1.975 . S
O494 C493 1.252 . S
H495 C488 0.930 . S
H496 C489 0.930 . S
C497 C498 1.392 . S
C497 N501 1.328 . S
C497 H503 0.930 . S
C498 C497 1.392 . S
C498 N502 1.331 . S
C499 C500 1.391 . S
C499 N502 1.329 . S
C499 H509 0.930 . S
C500 C499 1.391 . S
C500 N501 1.334 . S
C500 H507 0.930 . S
N501 Zn485 2.119 . S
N501 C497 1.328 . S
N501 C500 1.334 . S
N502 C498 1.331 . S
N502 C499 1.329 . S
H503 C497 0.930 . S
C504 O484 1.257 . S
C504 O505 1.244 . S
O505 C504 1.244 . S
O506 C482 1.257 . S
O506 Zn485 2.019 . S
H507 C500 0.930 . S
H508 C487 0.930 . S
H509 C499 0.930 . S
Zn510 N514 2.020 . S
Zn510 O518 2.019 . S
Zn510 N520 2.119 . S
Zn510 O528 1.975 . S
C511 N512 1.334 . S
C511 N515 1.336 . S
N512 C511 1.334 . S
N512 C513 1.334 . S
C513 N512 1.334 . S
C513 N514 1.336 . S
N514 Zn510 2.020 . S
N514 C513 1.336 . S
N514 N515 1.354 . S
N515 C511 1.336 . S
N515 N514 1.354 . S
N515 Zn519 2.020 . S
C516 O517 1.244 . S
C516 O540 1.257 . S
O517 C516 1.244 . S
O518 Zn510 2.019 . S
O518 C538 1.257 . S
Zn519 N515 2.020 . S
Zn519 O526 1.975 . S
Zn519 N535 2.119 . S
Zn519 O540 2.019 . S
N520 Zn510 2.119 . S
N520 C522 1.334 . S
N520 C523 1.328 . S
C521 C522 1.391 . S
C521 N524 1.329 . S
C521 H542 0.930 . S
C522 N520 1.334 . S
C522 C521 1.391 . S
C522 H529 0.930 . S
C523 N520 1.328 . S
C523 C525 1.392 . S
C523 H530 0.930 . S
N524 C521 1.329 . S
N524 C525 1.331 . S
C525 C523 1.392 . S
C525 N524 1.331 . S
O526 Zn519 1.975 . S
O526 C527 1.252 . S
C527 O526 1.252 . S
C527 O528 1.252 . S
O528 Zn510 1.975 . S
O528 C527 1.252 . S
H529 C522 0.930 . S
H530 C523 0.930 . S
C531 C532 1.392 . S
C531 N535 1.328 . S
C531 H537 0.930 . S
C532 C531 1.392 . S
C532 N536 1.331 . S
C533 C534 1.391 . S
C533 N536 1.329 . S
C533 H543 0.930 . S
C534 C533 1.391 . S
C534 N535 1.334 . S
C534 H541 0.930 . S
N535 Zn519 2.119 . S
N535 C531 1.328 . S
N535 C534 1.334 . S
N536 C532 1.331 . S
N536 C533 1.329 . S
H537 C531 0.930 . S
C538 O518 1.257 . S
C538 O539 1.244 . S
O539 C538 1.244 . S
O540 C516 1.257 . S
O540 Zn519 2.019 . S
H541 C534 0.930 . S
H542 C521 0.930 . S
H543 C533 0.930 . S
H544 C552 0.950 . S
H545 C557 0.950 . S
H546 C554 0.950 . S
H547 C556 0.950 . S
H548 C558 0.950 . S
H549 C560 0.950 . S
H550 C562 0.950 . S
H551 C563 0.950 . S
C552 H544 0.950 . S
C552 C553 1.386 . S
C552 C554 1.391 . S
C553 C552 1.386 . S
C553 C557 1.393 . S
C554 H546 0.950 . S
C554 C552 1.391 . S
C554 C555 1.400 . S
C555 C554 1.400 . S
C555 C556 1.398 . S
C555 C561 1.491 . S
C556 H547 0.950 . S
C556 C555 1.398 . S
C556 C557 1.391 . S
C557 H545 0.950 . S
C557 C553 1.393 . S
C557 C556 1.391 . S
C558 H548 0.950 . S
C558 C559 1.386 . S
C558 C560 1.391 . S
C559 C558 1.386 . S
C559 C563 1.393 . S
C560 H549 0.950 . S
C560 C558 1.391 . S
C560 C561 1.400 . S
C561 C555 1.491 . S
C561 C560 1.400 . S
C561 C562 1.398 . S
C562 H550 0.950 . S
C562 C561 1.398 . S
C562 C563 1.391 . S
C563 H551 0.950 . S
C563 C559 1.393 . S
C563 C562 1.391 . S
H564 C572 0.950 . S
H565 C577 0.950 . S
H566 C574 0.950 . S
H567 C576 0.950 . S
H568 C578 0.950 . S
H569 C580 0.950 . S
H570 C582 0.950 . S
H571 C583 0.950 . S
C572 H564 0.950 . S
C572 C573 1.386 . S
C572 C574 1.391 . S
C573 C572 1.386 . S
C573 C577 1.393 . S
C574 H566 0.950 . S
C574 C572 1.391 . S
C574 C575 1.400 . S
C575 C574 1.400 . S
C575 C576 1.398 . S
C575 C581 1.491 . S
C576 H567 0.950 . S
C576 C575 1.398 . S
C576 C577 1.391 . S
C577 H565 0.950 . S
C577 C573 1.393 . S
C577 C576 1.391 . S
C578 H568 0.950 . S
C578 C579 1.386 . S
C578 C580 1.391 . S
C579 C578 1.386 . S
C579 C583 1.393 . S
C580 H569 0.950 . S
C580 C578 1.391 . S
C580 C581 1.400 . S
C581 C575 1.491 . S
C581 C580 1.400 . S
C581 C582 1.398 . S
C582 H570 0.950 . S
C582 C581 1.398 . S
C582 C583 1.391 . S
C583 H571 0.950 . S
C583 C579 1.393 . S
C583 C582 1.391 . S
H584 C592 0.950 . S
H585 C597 0.950 . S
H586 C594 0.950 . S
H587 C596 0.950 . S
H588 C598 0.950 . S
H589 C600 0.950 . S
H590 C602 0.950 . S
H591 C603 0.950 . S
C592 H584 0.950 . S
C592 C593 1.386 . S
C592 C594 1.391 . S
C593 C592 1.386 . S
C593 C597 1.393 . S
C594 H586 0.950 . S
C594 C592 1.391 . S
C594 C595 1.400 . S
C595 C594 1.400 . S
C595 C596 1.398 . S
C595 C601 1.491 . S
C596 H587 0.950 . S
C596 C595 1.398 . S
C596 C597 1.391 . S
C597 H585 0.950 . S
C597 C593 1.393 . S
C597 C596 1.391 . S
C598 H588 0.950 . S
C598 C599 1.386 . S
C598 C600 1.391 . S
C599 C598 1.386 . S
C599 C603 1.393 . S
C600 H589 0.950 . S
C600 C598 1.391 . S
C600 C601 1.400 . S
C601 C595 1.491 . S
C601 C600 1.400 . S
C601 C602 1.398 . S
C602 H590 0.950 . S
C602 C601 1.398 . S
C602 C603 1.391 . S
C603 H591 0.950 . S
C603 C599 1.393 . S
C603 C602 1.391 . S
H604 C612 0.950 . S
H605 C617 0.950 . S
H606 C614 0.950 . S
H607 C616 0.950 . S
H608 C618 0.950 . S
H609 C620 0.950 . S
H610 C622 0.950 . S
H611 C623 0.950 . S
C612 H604 0.950 . S
C612 C613 1.386 . S
C612 C614 1.391 . S
C613 C612 1.386 . S
C613 C617 1.393 . S
C614 H606 0.950 . S
C614 C612 1.391 . S
C614 C615 1.400 . S
C615 C614 1.400 . S
C615 C616 1.398 . S
C615 C621 1.491 . S
C616 H607 0.950 . S
C616 C615 1.398 . S
C616 C617 1.391 . S
C617 H605 0.950 . S
C617 C613 1.393 . S
C617 C616 1.391 . S
C618 H608 0.950 . S
C618 C619 1.386 . S
C618 C620 1.391 . S
C619 C618 1.386 . S
C619 C623 1.393 . S
C620 H609 0.950 . S
C620 C618 1.391 . S
C620 C621 1.400 . S
C621 C615 1.491 . S
C621 C620 1.400 . S
C621 C622 1.398 . S
C622 H610 0.950 . S
C622 C621 1.398 . S
C622 C623 1.391 . S
C623 H611 0.950 . S
C623 C619 1.393 . S
C623 C622 1.391 . S
H624 C632 0.950 . S
H625 C637 0.950 . S
H626 C634 0.950 . S
H627 C636 0.950 . S
H628 C638 0.950 . S
H629 C640 0.950 . S
H630 C642 0.950 . S
H631 C643 0.950 . S
C632 H624 0.950 . S
C632 C633 1.386 . S
C632 C634 1.391 . S
C633 C632 1.386 . S
C633 C637 1.393 . S
C634 H626 0.950 . S
C634 C632 1.391 . S
C634 C635 1.400 . S
C635 C634 1.400 . S
C635 C636 1.398 . S
C635 C641 1.491 . S
C636 H627 0.950 . S
C636 C635 1.398 . S
C636 C637 1.391 . S
C637 H625 0.950 . S
C637 C633 1.393 . S
C637 C636 1.391 . S
C638 H628 0.950 . S
C638 C639 1.386 . S
C638 C640 1.391 . S
C639 C638 1.386 . S
C639 C643 1.393 . S
C640 H629 0.950 . S
C640 C638 1.391 . S
C640 C641 1.400 . S
C641 C635 1.491 . S
C641 C640 1.400 . S
C641 C642 1.398 . S
C642 H630 0.950 . S
C642 C641 1.398 . S
C642 C643 1.391 . S
C643 H631 0.950 . S
C643 C639 1.393 . S
C643 C642 1.391 . S
H644 C652 0.950 . S
H645 C657 0.950 . S
H646 C654 0.950 . S
H647 C656 0.950 . S
H648 C658 0.950 . S
H649 C660 0.950 . S
H650 C662 0.950 . S
H651 C663 0.950 . S
C652 H644 0.950 . S
C652 C653 1.386 . S
C652 C654 1.391 . S
C653 C652 1.386 . S
C653 C657 1.393 . S
C654 H646 0.950 . S
C654 C652 1.391 . S
C654 C655 1.400 . S
C655 C654 1.400 . S
C655 C656 1.398 . S
C655 C661 1.491 . S
C656 H647 0.950 . S
C656 C655 1.398 . S
C656 C657 1.391 . S
C657 H645 0.950 . S
C657 C653 1.393 . S
C657 C656 1.391 . S
C658 H648 0.950 . S
C658 C659 1.386 . S
C658 C660 1.391 . S
C659 C658 1.386 . S
C659 C663 1.393 . S
C660 H649 0.950 . S
C660 C658 1.391 . S
C660 C661 1.400 . S
C661 C655 1.491 . S
C661 C660 1.400 . S
C661 C662 1.398 . S
C662 H650 0.950 . S
C662 C661 1.398 . S
C662 C663 1.391 . S
C663 H651 0.950 . S
C663 C659 1.393 . S
C663 C662 1.391 . S
H664 C672 0.950 . S
H665 C677 0.950 . S
H666 C674 0.950 . S
H667 C676 0.950 . S
H668 C678 0.950 . S
H669 C680 0.950 . S
H670 C682 0.950 . S
H671 C683 0.950 . S
C672 H664 0.950 . S
C672 C673 1.386 . S
C672 C674 1.391 . S
C673 C672 1.386 . S
C673 C677 1.393 . S
C674 H666 0.950 . S
C674 C672 1.391 . S
C674 C675 1.400 . S
C675 C674 1.400 . S
C675 C676 1.398 . S
C675 C681 1.491 . S
C676 H667 0.950 . S
C676 C675 1.398 . S
C676 C677 1.391 . S
C677 H665 0.950 . S
C677 C673 1.393 . S
C677 C676 1.391 . S
C678 H668 0.950 . S
C678 C679 1.386 . S
C678 C680 1.391 . S
C679 C678 1.386 . S
C679 C683 1.393 . S
C680 H669 0.950 . S
C680 C678 1.391 . S
C680 C681 1.400 . S
C681 C675 1.491 . S
C681 C680 1.400 . S
C681 C682 1.398 . S
C682 H670 0.950 . S
C682 C681 1.398 . S
C682 C683 1.391 . S
C683 H671 0.950 . S
C683 C679 1.393 . S
C683 C682 1.391 . S
H684 C692 0.950 . S
H685 C697 0.950 . S
H686 C694 0.950 . S
H687 C696 0.950 . S
H688 C698 0.950 . S
H689 C700 0.950 . S
H690 C702 0.950 . S
H691 C703 0.950 . S
C692 H684 0.950 . S
C692 C693 1.386 . S
C692 C694 1.391 . S
C693 C692 1.386 . S
C693 C697 1.393 . S
C694 H686 0.950 . S
C694 C692 1.391 . S
C694 C695 1.400 . S
C695 C694 1.400 . S
C695 C696 1.398 . S
C695 C701 1.491 . S
C696 H687 0.950 . S
C696 C695 1.398 . S
C696 C697 1.391 . S
C697 H685 0.950 . S
C697 C693 1.393 . S
C697 C696 1.391 . S
C698 H688 0.950 . S
C698 C699 1.386 . S
C698 C700 1.391 . S
C699 C698 1.386 . S
C699 C703 1.393 . S
C700 H689 0.950 . S
C700 C698 1.391 . S
C700 C701 1.400 . S
C701 C695 1.491 . S
C701 C700 1.400 . S
C701 C702 1.398 . S
C702 H690 0.950 . S
C702 C701 1.398 . S
C702 C703 1.391 . S
C703 H691 0.950 . S
C703 C699 1.393 . S
C703 C702 1.391 . S
H704 C712 0.950 . S
H705 C717 0.950 . S
H706 C714 0.950 . S
H707 C716 0.950 . S
H708 C718 0.950 . S
H709 C720 0.950 . S
H710 C722 0.950 . S
H711 C723 0.950 . S
C712 H704 0.950 . S
C712 C713 1.386 . S
C712 C714 1.391 . S
C713 C712 1.386 . S
C713 C717 1.393 . S
C714 H706 0.950 . S
C714 C712 1.391 . S
C714 C715 1.400 . S
C715 C714 1.400 . S
C715 C716 1.398 . S
C715 C721 1.491 . S
C716 H707 0.950 . S
C716 C715 1.398 . S
C716 C717 1.391 . S
C717 H705 0.950 . S
C717 C713 1.393 . S
C717 C716 1.391 . S
C718 H708 0.950 . S
C718 C719 1.386 . S
C718 C720 1.391 . S
C719 C718 1.386 . S
C719 C723 1.393 . S
C720 H709 0.950 . S
C720 C718 1.391 . S
C720 C721 1.400 . S
C721 C715 1.491 . S
C721 C720 1.400 . S
C721 C722 1.398 . S
C722 H710 0.950 . S
C722 C721 1.398 . S
C722 C723 1.391 . S
C723 H711 0.950 . S
C723 C719 1.393 . S
C723 C722 1.391 . S
H724 C732 0.950 . S
H725 C737 0.950 . S
H726 C734 0.950 . S
H727 C736 0.950 . S
H728 C738 0.950 . S
H729 C740 0.950 . S
H730 C742 0.950 . S
H731 C743 0.950 . S
C732 H724 0.950 . S
C732 C733 1.386 . S
C732 C734 1.391 . S
C733 C732 1.386 . S
C733 C737 1.393 . S
C734 H726 0.950 . S
C734 C732 1.391 . S
C734 C735 1.400 . S
C735 C734 1.400 . S
C735 C736 1.398 . S
C735 C741 1.491 . S
C736 H727 0.950 . S
C736 C735 1.398 . S
C736 C737 1.391 . S
C737 H725 0.950 . S
C737 C733 1.393 . S
C737 C736 1.391 . S
C738 H728 0.950 . S
C738 C739 1.386 . S
C738 C740 1.391 . S
C739 C738 1.386 . S
C739 C743 1.393 . S
C740 H729 0.950 . S
C740 C738 1.391 . S
C740 C741 1.400 . S
C741 C735 1.491 . S
C741 C740 1.400 . S
C741 C742 1.398 . S
C742 H730 0.950 . S
C742 C741 1.398 . S
C742 C743 1.391 . S
C743 H731 0.950 . S
C743 C739 1.393 . S
C743 C742 1.391 . S
H744 C752 0.950 . S
H745 C757 0.950 . S
H746 C754 0.950 . S
H747 C756 0.950 . S
H748 C758 0.950 . S
H749 C760 0.950 . S
H750 C762 0.949 1_455 S
H751 C763 0.950 1_455 S
C752 H744 0.950 . S
C752 C753 1.386 1_455 S
C752 C754 1.391 . S
C753 C752 1.386 1_655 S
C753 C757 1.393 . S
C754 H746 0.950 . S
C754 C752 1.391 . S
C754 C755 1.400 1_455 S
C755 C754 1.400 1_655 S
C755 C756 1.398 . S
C755 C761 1.491 . S
C756 H747 0.950 . S
C756 C755 1.398 . S
C756 C757 1.391 . S
C757 H745 0.950 . S
C757 C753 1.393 . S
C757 C756 1.391 . S
C758 H748 0.950 . S
C758 C759 1.386 . S
C758 C760 1.391 . S
C759 C758 1.386 . S
C759 C763 1.393 . S
C760 H749 0.950 . S
C760 C758 1.391 . S
C760 C761 1.400 . S
C761 C755 1.491 . S
C761 C760 1.400 . S
C761 C762 1.399 . S
C762 H750 0.949 1_655 S
C762 C761 1.399 . S
C762 C763 1.391 . S
C763 H751 0.950 1_655 S
C763 C759 1.393 . S
C763 C762 1.391 . S
H764 C772 0.950 . S
H765 C777 0.950 . S
H766 C774 0.950 . S
H767 C776 0.950 . S
H768 C778 0.950 . S
H769 C780 0.950 . S
H770 C782 0.950 . S
H771 C783 0.950 . S
C772 H764 0.950 . S
C772 C773 1.386 . S
C772 C774 1.391 . S
C773 C772 1.386 . S
C773 C777 1.393 . S
C774 H766 0.950 . S
C774 C772 1.391 . S
C774 C775 1.400 . S
C775 C774 1.400 . S
C775 C776 1.398 . S
C775 C781 1.491 . S
C776 H767 0.950 . S
C776 C775 1.398 . S
C776 C777 1.391 . S
C777 H765 0.950 . S
C777 C773 1.393 . S
C777 C776 1.391 . S
C778 H768 0.950 . S
C778 C779 1.386 . S
C778 C780 1.391 . S
C779 C778 1.386 . S
C779 C783 1.393 . S
C780 H769 0.950 . S
C780 C778 1.391 . S
C780 C781 1.400 . S
C781 C775 1.491 . S
C781 C780 1.400 . S
C781 C782 1.398 . S
C782 H770 0.950 . S
C782 C781 1.398 . S
C782 C783 1.391 . S
C783 H771 0.950 . S
C783 C779 1.393 . S
C783 C782 1.391 . S
H784 C792 0.950 . S
H785 C797 0.950 . S
H786 C794 0.950 . S
H787 C796 0.950 . S
H788 C798 0.950 . S
H789 C800 0.950 . S
H790 C802 0.950 . S
H791 C803 0.950 . S
C792 H784 0.950 . S
C792 C793 1.386 1_655 S
C792 C794 1.391 . S
C793 C792 1.386 1_455 S
C793 C797 1.393 . S
C794 H786 0.950 . S
C794 C792 1.391 . S
C794 C795 1.400 1_655 S
C795 C794 1.400 1_455 S
C795 C796 1.398 . S
C795 C801 1.491 . S
C796 H787 0.950 . S
C796 C795 1.398 . S
C796 C797 1.391 . S
C797 H785 0.950 . S
C797 C793 1.393 . S
C797 C796 1.391 . S
C798 H788 0.950 . S
C798 C799 1.386 . S
C798 C800 1.391 . S
C799 C798 1.386 . S
C799 C803 1.393 1_455 S
C800 H789 0.950 . S
C800 C798 1.391 . S
C800 C801 1.400 . S
C801 C795 1.491 . S
C801 C800 1.400 . S
C801 C802 1.398 1_455 S
C802 H790 0.950 . S
C802 C801 1.398 1_655 S
C802 C803 1.391 . S
C803 H791 0.950 . S
C803 C799 1.393 1_655 S
C803 C802 1.391 . S
H804 C812 0.950 . S
H805 C817 0.950 . S
H806 C814 0.950 . S
H807 C816 0.950 . S
H808 C818 0.950 . S
H809 C820 0.950 . S
H810 C822 0.950 . S
H811 C823 0.950 . S
C812 H804 0.950 . S
C812 C813 1.386 1_565 S
C812 C814 1.391 . S
C813 C812 1.386 1_545 S
C813 C817 1.393 . S
C814 H806 0.950 . S
C814 C812 1.391 . S
C814 C815 1.400 1_565 S
C815 C814 1.400 1_545 S
C815 C816 1.398 . S
C815 C821 1.491 . S
C816 H807 0.950 . S
C816 C815 1.398 . S
C816 C817 1.391 . S
C817 H805 0.950 . S
C817 C813 1.393 . S
C817 C816 1.391 . S
C818 H808 0.950 . S
C818 C819 1.386 . S
C818 C820 1.391 . S
C819 C818 1.386 . S
C819 C823 1.393 1_545 S
C820 H809 0.950 . S
C820 C818 1.391 . S
C820 C821 1.400 . S
C821 C815 1.491 . S
C821 C820 1.400 . S
C821 C822 1.398 1_545 S
C822 H810 0.950 . S
C822 C821 1.398 1_565 S
C822 C823 1.391 . S
C823 H811 0.950 . S
C823 C819 1.393 1_565 S
C823 C822 1.391 . S
H824 C832 0.950 . S
H825 C837 0.950 . S
H826 C834 0.950 . S
H827 C836 0.950 . S
H828 C838 0.950 . S
H829 C840 0.950 . S
H830 C842 0.950 . S
H831 C843 0.950 . S
C832 H824 0.950 . S
C832 C833 1.386 . S
C832 C834 1.391 . S
C833 C832 1.386 . S
C833 C837 1.393 . S
C834 H826 0.950 . S
C834 C832 1.391 . S
C834 C835 1.400 . S
C835 C834 1.400 . S
C835 C836 1.398 . S
C835 C841 1.491 . S
C836 H827 0.950 . S
C836 C835 1.398 . S
C836 C837 1.391 . S
C837 H825 0.950 . S
C837 C833 1.393 . S
C837 C836 1.391 . S
C838 H828 0.950 . S
C838 C839 1.386 . S
C838 C840 1.391 . S
C839 C838 1.386 . S
C839 C843 1.393 . S
C840 H829 0.950 . S
C840 C838 1.391 . S
C840 C841 1.400 . S
C841 C835 1.491 . S
C841 C840 1.400 . S
C841 C842 1.398 . S
C842 H830 0.950 . S
C842 C841 1.398 . S
C842 C843 1.391 . S
C843 H831 0.950 . S
C843 C839 1.393 . S
C843 C842 1.391 . S
H844 C852 0.950 . S
H845 C857 0.950 . S
H846 C854 0.950 . S
H847 C856 0.950 . S
H848 C858 0.950 . S
H849 C860 0.950 . S
H850 C862 0.950 . S
H851 C863 0.950 . S
C852 H844 0.950 . S
C852 C853 1.386 . S
C852 C854 1.391 . S
C853 C852 1.386 . S
C853 C857 1.393 . S
C854 H846 0.950 . S
C854 C852 1.391 . S
C854 C855 1.400 . S
C855 C854 1.400 . S
C855 C856 1.398 . S
C855 C861 1.491 . S
C856 H847 0.950 . S
C856 C855 1.398 . S
C856 C857 1.391 . S
C857 H845 0.950 . S
C857 C853 1.393 . S
C857 C856 1.391 . S
C858 H848 0.950 . S
C858 C859 1.386 . S
C858 C860 1.391 . S
C859 C858 1.386 . S
C859 C863 1.393 . S
C860 H849 0.950 . S
C860 C858 1.391 . S
C860 C861 1.400 . S
C861 C855 1.491 . S
C861 C860 1.400 . S
C861 C862 1.398 . S
C862 H850 0.950 . S
C862 C861 1.398 . S
C862 C863 1.391 . S
C863 H851 0.950 . S
C863 C859 1.393 . S
C863 C862 1.391 . S
H864 C872 0.950 . S
H865 C877 0.950 . S
H866 C874 0.950 . S
H867 C876 0.950 . S
H868 C878 0.950 . S
H869 C880 0.950 . S
H870 C882 0.950 . S
H871 C883 0.950 . S
C872 H864 0.950 . S
C872 C873 1.386 . S
C872 C874 1.391 . S
C873 C872 1.386 . S
C873 C877 1.393 . S
C874 H866 0.950 . S
C874 C872 1.391 . S
C874 C875 1.400 . S
C875 C874 1.400 . S
C875 C876 1.398 . S
C875 C881 1.491 . S
C876 H867 0.950 . S
C876 C875 1.398 . S
C876 C877 1.391 . S
C877 H865 0.950 . S
C877 C873 1.393 . S
C877 C876 1.391 . S
C878 H868 0.950 . S
C878 C879 1.386 . S
C878 C880 1.391 . S
C879 C878 1.386 . S
C879 C883 1.393 . S
C880 H869 0.950 . S
C880 C878 1.391 . S
C880 C881 1.400 . S
C881 C875 1.491 . S
C881 C880 1.400 . S
C881 C882 1.398 . S
C882 H870 0.950 . S
C882 C881 1.398 . S
C882 C883 1.391 . S
C883 H871 0.950 . S
C883 C879 1.393 . S
C883 C882 1.391 . S
H884 C892 0.950 . S
H885 C897 0.950 . S
H886 C894 0.950 . S
H887 C896 0.950 . S
H888 C898 0.950 . S
H889 C900 0.950 . S
H890 C902 0.950 . S
H891 C903 0.950 . S
C892 H884 0.950 . S
C892 C893 1.386 . S
C892 C894 1.391 . S
C893 C892 1.386 . S
C893 C897 1.393 . S
C894 H886 0.950 . S
C894 C892 1.391 . S
C894 C895 1.400 . S
C895 C894 1.400 . S
C895 C896 1.398 . S
C895 C901 1.491 . S
C896 H887 0.950 . S
C896 C895 1.398 . S
C896 C897 1.391 . S
C897 H885 0.950 . S
C897 C893 1.393 . S
C897 C896 1.391 . S
C898 H888 0.950 . S
C898 C899 1.386 . S
C898 C900 1.391 . S
C899 C898 1.386 . S
C899 C903 1.393 . S
C900 H889 0.950 . S
C900 C898 1.391 . S
C900 C901 1.400 . S
C901 C895 1.491 . S
C901 C900 1.400 . S
C901 C902 1.398 . S
C902 H890 0.950 . S
C902 C901 1.398 . S
C902 C903 1.391 . S
C903 H891 0.950 . S
C903 C899 1.393 . S
C903 C902 1.391 . S
H904 C912 0.950 . S
H905 C917 0.950 . S
H906 C914 0.950 . S
H907 C916 0.950 . S
H908 C918 0.950 . S
H909 C920 0.950 . S
H910 C922 0.950 . S
H911 C923 0.950 . S
C912 H904 0.950 . S
C912 C913 1.386 1_655 S
C912 C914 1.391 . S
C913 C912 1.386 1_455 S
C913 C917 1.393 . S
C914 H906 0.950 . S
C914 C912 1.391 . S
C914 C915 1.400 1_655 S
C915 C914 1.400 1_455 S
C915 C916 1.398 . S
C915 C921 1.491 . S
C916 H907 0.950 . S
C916 C915 1.398 . S
C916 C917 1.391 . S
C917 H905 0.950 . S
C917 C913 1.393 . S
C917 C916 1.391 . S
C918 H908 0.950 . S
C918 C919 1.386 . S
C918 C920 1.391 . S
C919 C918 1.386 . S
C919 C923 1.393 1_455 S
C920 H909 0.950 . S
C920 C918 1.391 . S
C920 C921 1.400 . S
C921 C915 1.491 . S
C921 C920 1.400 . S
C921 C922 1.398 1_455 S
C922 H910 0.950 . S
C922 C921 1.398 1_655 S
C922 C923 1.391 . S
C923 H911 0.950 . S
C923 C919 1.393 1_655 S
C923 C922 1.391 . S
H924 C932 0.950 . S
H925 C937 0.950 . S
H926 C934 0.950 . S
H927 C936 0.950 . S
H928 C938 0.950 . S
H929 C940 0.950 . S
H930 C942 0.952 1_565 S
H931 C943 0.933 1_565 S
C932 H924 0.950 . S
C932 C933 1.386 1_565 S
C932 C934 1.391 . S
C933 C932 1.386 1_545 S
C933 C937 1.393 . S
C934 H926 0.950 . S
C934 C932 1.391 . S
C934 C935 1.400 1_565 S
C935 C934 1.400 1_545 S
C935 C936 1.398 . S
C935 C941 1.491 . S
C936 H927 0.950 . S
C936 C935 1.398 . S
C936 C937 1.391 . S
C937 H925 0.950 . S
C937 C933 1.393 . S
C937 C936 1.391 . S
C938 H928 0.950 . S
C938 C939 1.386 . S
C938 C940 1.391 . S
C939 C938 1.386 . S
C939 C943 1.412 . S
C940 H929 0.950 . S
C940 C938 1.391 . S
C940 C941 1.400 . S
C941 C935 1.491 . S
C941 C940 1.400 . S
C941 C942 1.396 . S
C942 H930 0.952 1_545 S
C942 C941 1.396 . S
C942 C943 1.390 . S
C943 H931 0.933 1_545 S
C943 C939 1.412 . S
C943 C942 1.390 . S
H944 C952 0.950 . S
H945 C957 0.950 . S
H946 C954 0.950 . S
H947 C956 0.950 . S
H948 C958 0.950 . S
H949 C960 0.950 . S
H950 C962 0.950 . S
H951 C963 0.950 . S
C952 H944 0.950 . S
C952 C953 1.386 1_455 S
C952 C954 1.391 . S
C953 C952 1.386 1_655 S
C953 C957 1.393 . S
C954 H946 0.950 . S
C954 C952 1.391 . S
C954 C955 1.400 1_455 S
C955 C954 1.400 1_655 S
C955 C956 1.398 . S
C955 C961 1.491 . S
C956 H947 0.950 . S
C956 C955 1.398 . S
C956 C957 1.391 . S
C957 H945 0.950 . S
C957 C953 1.393 . S
C957 C956 1.391 . S
C958 H948 0.950 . S
C958 C959 1.386 . S
C958 C960 1.391 . S
C959 C958 1.386 . S
C959 C963 1.393 1_655 S
C960 H949 0.950 . S
C960 C958 1.391 . S
C960 C961 1.400 . S
C961 C955 1.491 . S
C961 C960 1.400 . S
C961 C962 1.398 1_655 S
C962 H950 0.950 . S
C962 C961 1.398 1_455 S
C962 C963 1.391 . S
C963 H951 0.950 . S
C963 C959 1.393 1_455 S
C963 C962 1.391 . S
H964 C972 0.950 . S
H965 C977 0.950 . S
H966 C974 0.950 . S
H967 C976 0.950 . S
H968 C978 0.950 . S
H969 C980 0.950 . S
H970 C982 0.950 . S
H971 C983 0.950 . S
C972 H964 0.950 . S
C972 C973 1.386 . S
C972 C974 1.391 . S
C973 C972 1.386 . S
C973 C977 1.393 1_565 S
C974 H966 0.950 . S
C974 C972 1.391 . S
C974 C975 1.400 . S
C975 C974 1.400 . S
C975 C976 1.398 1_565 S
C975 C981 1.491 . S
C976 H967 0.950 . S
C976 C975 1.398 1_545 S
C976 C977 1.391 . S
C977 H965 0.950 . S
C977 C973 1.393 1_545 S
C977 C976 1.391 . S
C978 H968 0.950 . S
C978 C979 1.386 1_545 S
C978 C980 1.391 . S
C979 C978 1.386 1_565 S
C979 C983 1.393 . S
C980 H969 0.950 . S
C980 C978 1.391 . S
C980 C981 1.400 1_545 S
C981 C975 1.491 . S
C981 C980 1.400 1_565 S
C981 C982 1.398 . S
C982 H970 0.950 . S
C982 C981 1.398 . S
C982 C983 1.391 . S
C983 H971 0.950 . S
C983 C979 1.393 . S
C983 C982 1.391 . S
H984 C992 0.950 . S
H985 C997 0.950 . S
H986 C994 0.950 . S
H987 C996 0.950 . S
H988 C998 0.950 . S
H989 C1000 0.950 . S
H990 C1002 0.950 . S
H991 C1003 0.950 . S
C992 H984 0.950 . S
C992 C993 1.386 . S
C992 C994 1.391 . S
C993 C992 1.386 . S
C993 C997 1.393 . S
C994 H986 0.950 . S
C994 C992 1.391 . S
C994 C995 1.400 . S
C995 C994 1.400 . S
C995 C996 1.398 . S
C995 C1001 1.491 . S
C996 H987 0.950 . S
C996 C995 1.398 . S
C996 C997 1.391 . S
C997 H985 0.950 . S
C997 C993 1.393 . S
C997 C996 1.391 . S
C998 H988 0.950 . S
C998 C999 1.386 . S
C998 C1000 1.391 . S
C999 C998 1.386 . S
C999 C1003 1.393 . S
C1000 H989 0.950 . S
C1000 C998 1.391 . S
C1000 C1001 1.400 . S
C1001 C995 1.491 . S
C1001 C1000 1.400 . S
C1001 C1002 1.398 . S
C1002 H990 0.950 . S
C1002 C1001 1.398 . S
C1002 C1003 1.391 . S
C1003 H991 0.950 . S
C1003 C999 1.393 . S
C1003 C1002 1.391 . S
H1004 C1012 0.950 . S
H1005 C1017 0.950 . S
H1006 C1014 0.950 . S
H1007 C1016 0.950 . S
H1008 C1018 0.950 . S
H1009 C1020 0.950 . S
H1010 C1022 0.950 . S
H1011 C1023 0.950 . S
C1012 H1004 0.950 . S
C1012 C1013 1.386 . S
C1012 C1014 1.391 . S
C1013 C1012 1.386 . S
C1013 C1017 1.393 . S
C1014 H1006 0.950 . S
C1014 C1012 1.391 . S
C1014 C1015 1.400 . S
C1015 C1014 1.400 . S
C1015 C1016 1.398 . S
C1015 C1021 1.491 . S
C1016 H1007 0.950 . S
C1016 C1015 1.398 . S
C1016 C1017 1.391 . S
C1017 H1005 0.950 . S
C1017 C1013 1.393 . S
C1017 C1016 1.391 . S
C1018 H1008 0.950 . S
C1018 C1019 1.386 . S
C1018 C1020 1.391 . S
C1019 C1018 1.386 . S
C1019 C1023 1.393 . S
C1020 H1009 0.950 . S
C1020 C1018 1.391 . S
C1020 C1021 1.400 . S
C1021 C1015 1.491 . S
C1021 C1020 1.400 . S
C1021 C1022 1.398 . S
C1022 H1010 0.950 . S
C1022 C1021 1.398 . S
C1022 C1023 1.391 . S
C1023 H1011 0.950 . S
C1023 C1019 1.393 . S
C1023 C1022 1.391 . S
H1024 C1032 0.950 . S
H1025 C1037 0.950 . S
H1026 C1034 0.950 . S
H1027 C1036 0.950 . S
H1028 C1038 0.950 . S
H1029 C1040 0.950 . S
H1030 C1042 0.950 . S
H1031 C1043 0.950 . S
C1032 H1024 0.950 . S
C1032 C1033 1.386 . S
C1032 C1034 1.391 . S
C1033 C1032 1.386 . S
C1033 C1037 1.393 . S
C1034 H1026 0.950 . S
C1034 C1032 1.391 . S
C1034 C1035 1.400 . S
C1035 C1034 1.400 . S
C1035 C1036 1.398 . S
C1035 C1041 1.491 . S
C1036 H1027 0.950 . S
C1036 C1035 1.398 . S
C1036 C1037 1.391 . S
C1037 H1025 0.950 . S
C1037 C1033 1.393 . S
C1037 C1036 1.391 . S
C1038 H1028 0.950 . S
C1038 C1039 1.386 . S
C1038 C1040 1.391 . S
C1039 C1038 1.386 . S
C1039 C1043 1.393 . S
C1040 H1029 0.950 . S
C1040 C1038 1.391 . S
C1040 C1041 1.400 . S
C1041 C1035 1.491 . S
C1041 C1040 1.400 . S
C1041 C1042 1.398 . S
C1042 H1030 0.950 . S
C1042 C1041 1.398 . S
C1042 C1043 1.391 . S
C1043 H1031 0.950 . S
C1043 C1039 1.393 . S
C1043 C1042 1.391 . S
H1044 C1052 0.950 . S
H1045 C1057 0.950 . S
H1046 C1054 0.950 . S
H1047 C1056 0.950 . S
H1048 C1058 0.950 . S
H1049 C1060 0.950 . S
H1050 C1062 0.950 . S
H1051 C1063 0.950 . S
C1052 H1044 0.950 . S
C1052 C1053 1.386 . S
C1052 C1054 1.391 . S
C1053 C1052 1.386 . S
C1053 C1057 1.393 . S
C1054 H1046 0.950 . S
C1054 C1052 1.391 . S
C1054 C1055 1.400 . S
C1055 C1054 1.400 . S
C1055 C1056 1.398 . S
C1055 C1061 1.491 . S
C1056 H1047 0.950 . S
C1056 C1055 1.398 . S
C1056 C1057 1.391 . S
C1057 H1045 0.950 . S
C1057 C1053 1.393 . S
C1057 C1056 1.391 . S
C1058 H1048 0.950 . S
C1058 C1059 1.386 . S
C1058 C1060 1.391 . S
C1059 C1058 1.386 . S
C1059 C1063 1.393 . S
C1060 H1049 0.950 . S
C1060 C1058 1.391 . S
C1060 C1061 1.400 . S
C1061 C1055 1.491 . S
C1061 C1060 1.400 . S
C1061 C1062 1.398 . S
C1062 H1050 0.950 . S
C1062 C1061 1.398 . S
C1062 C1063 1.391 . S
C1063 H1051 0.950 . S
C1063 C1059 1.393 . S
C1063 C1062 1.391 . S
H1064 C1072 0.950 . S
H1065 C1077 0.950 . S
H1066 C1074 0.950 . S
H1067 C1076 0.950 . S
H1068 C1078 0.950 . S
H1069 C1080 0.950 . S
H1070 C1082 0.950 . S
H1071 C1083 0.950 . S
C1072 H1064 0.950 . S
C1072 C1073 1.386 . S
C1072 C1074 1.391 . S
C1073 C1072 1.386 . S
C1073 C1077 1.393 . S
C1074 H1066 0.950 . S
C1074 C1072 1.391 . S
C1074 C1075 1.400 . S
C1075 C1074 1.400 . S
C1075 C1076 1.398 . S
C1075 C1081 1.491 . S
C1076 H1067 0.950 . S
C1076 C1075 1.398 . S
C1076 C1077 1.391 . S
C1077 H1065 0.950 . S
C1077 C1073 1.393 . S
C1077 C1076 1.391 . S
C1078 H1068 0.950 . S
C1078 C1079 1.386 . S
C1078 C1080 1.391 . S
C1079 C1078 1.386 . S
C1079 C1083 1.393 . S
C1080 H1069 0.950 . S
C1080 C1078 1.391 . S
C1080 C1081 1.400 . S
C1081 C1075 1.491 . S
C1081 C1080 1.400 . S
C1081 C1082 1.398 . S
C1082 H1070 0.950 . S
C1082 C1081 1.398 . S
C1082 C1083 1.391 . S
C1083 H1071 0.950 . S
C1083 C1079 1.393 . S
C1083 C1082 1.391 . S
H1084 C1092 0.950 . S
H1085 C1097 0.950 . S
H1086 C1094 0.950 . S
H1087 C1096 0.950 . S
H1088 C1098 0.950 . S
H1089 C1100 0.950 . S
H1090 C1102 0.950 . S
H1091 C1103 0.950 . S
C1092 H1084 0.950 . S
C1092 C1093 1.386 . S
C1092 C1094 1.391 . S
C1093 C1092 1.386 . S
C1093 C1097 1.393 . S
C1094 H1086 0.950 . S
C1094 C1092 1.391 . S
C1094 C1095 1.400 . S
C1095 C1094 1.400 . S
C1095 C1096 1.398 . S
C1095 C1101 1.491 . S
C1096 H1087 0.950 . S
C1096 C1095 1.398 . S
C1096 C1097 1.391 . S
C1097 H1085 0.950 . S
C1097 C1093 1.393 . S
C1097 C1096 1.391 . S
C1098 H1088 0.950 . S
C1098 C1099 1.386 . S
C1098 C1100 1.391 . S
C1099 C1098 1.386 . S
C1099 C1103 1.393 . S
C1100 H1089 0.950 . S
C1100 C1098 1.391 . S
C1100 C1101 1.400 . S
C1101 C1095 1.491 . S
C1101 C1100 1.400 . S
C1101 C1102 1.398 . S
C1102 H1090 0.950 . S
C1102 C1101 1.398 . S
C1102 C1103 1.391 . S
C1103 H1091 0.950 . S
C1103 C1099 1.393 . S
C1103 C1102 1.391 . S
H1104 C1112 0.950 . S
H1105 C1117 0.950 . S
H1106 C1114 0.950 . S
H1107 C1116 0.950 1_554 S
H1108 C1118 0.950 . S
H1109 C1120 0.950 . S
H1110 C1122 0.950 . S
H1111 C1123 0.950 . S
C1112 H1104 0.950 . S
C1112 C1113 1.386 . S
C1112 C1114 1.391 . S
C1113 C1112 1.386 . S
C1113 C1117 1.393 . S
C1114 H1106 0.950 . S
C1114 C1112 1.391 . S
C1114 C1115 1.400 . S
C1115 C1114 1.400 . S
C1115 C1116 1.398 . S
C1115 C1121 1.491 1_556 S
C1116 H1107 0.950 1_556 S
C1116 C1115 1.398 . S
C1116 C1117 1.391 . S
C1117 H1105 0.950 . S
C1117 C1113 1.393 . S
C1117 C1116 1.391 . S
C1118 H1108 0.950 . S
C1118 C1119 1.386 . S
C1118 C1120 1.391 . S
C1119 C1118 1.386 . S
C1119 C1123 1.393 . S
C1120 H1109 0.950 . S
C1120 C1118 1.391 . S
C1120 C1121 1.400 . S
C1121 C1115 1.491 1_554 S
C1121 C1120 1.400 . S
C1121 C1122 1.398 . S
C1122 H1110 0.950 . S
C1122 C1121 1.398 . S
C1122 C1123 1.391 . S
C1123 H1111 0.950 . S
C1123 C1119 1.393 . S
C1123 C1122 1.391 . S
H1124 C1132 0.950 . S
H1125 C1137 0.950 . S
H1126 C1134 0.950 . S
H1127 C1136 0.950 . S
H1128 C1138 0.950 . S
H1129 C1140 0.950 1_554 S
H1130 C1142 0.950 . S
H1131 C1143 0.950 . S
C1132 H1124 0.950 . S
C1132 C1133 1.386 . S
C1132 C1134 1.391 . S
C1133 C1132 1.386 . S
C1133 C1137 1.393 . S
C1134 H1126 0.950 . S
C1134 C1132 1.391 . S
C1134 C1135 1.400 . S
C1135 C1134 1.400 . S
C1135 C1136 1.398 . S
C1135 C1141 1.485 1_554 S
C1136 H1127 0.950 . S
C1136 C1135 1.398 . S
C1136 C1137 1.391 . S
C1137 H1125 0.950 . S
C1137 C1133 1.393 . S
C1137 C1136 1.391 . S
C1138 H1128 0.950 . S
C1138 C1139 1.386 . S
C1138 C1140 1.391 . S
C1139 C1138 1.386 . S
C1139 C1143 1.393 . S
C1140 H1129 0.950 1_556 S
C1140 C1138 1.391 . S
C1140 C1141 1.402 . S
C1141 C1135 1.485 1_556 S
C1141 C1140 1.402 . S
C1141 C1142 1.403 . S
C1142 H1130 0.950 . S
C1142 C1141 1.403 . S
C1142 C1143 1.391 . S
C1143 H1131 0.950 . S
C1143 C1139 1.393 . S
C1143 C1142 1.391 . S
H1144 C1152 0.950 . S
H1145 C1157 0.950 . S
H1146 C1154 0.950 . S
H1147 C1156 0.950 . S
H1148 C1158 0.950 . S
H1149 C1160 0.950 . S
H1150 C1162 0.950 . S
H1151 C1163 0.950 . S
C1152 H1144 0.950 . S
C1152 C1153 1.386 . S
C1152 C1154 1.391 . S
C1153 C1152 1.386 . S
C1153 C1157 1.393 . S
C1154 H1146 0.950 . S
C1154 C1152 1.391 . S
C1154 C1155 1.400 . S
C1155 C1154 1.400 . S
C1155 C1156 1.398 . S
C1155 C1161 1.485 1_554 S
C1156 H1147 0.950 . S
C1156 C1155 1.398 . S
C1156 C1157 1.391 . S
C1157 H1145 0.950 . S
C1157 C1153 1.393 . S
C1157 C1156 1.391 . S
C1158 H1148 0.950 . S
C1158 C1159 1.386 . S
C1158 C1160 1.391 . S
C1159 C1158 1.386 . S
C1159 C1163 1.393 . S
C1160 H1149 0.950 . S
C1160 C1158 1.391 . S
C1160 C1161 1.403 . S
C1161 C1155 1.485 1_556 S
C1161 C1160 1.403 . S
C1161 C1162 1.401 . S
C1162 H1150 0.950 . S
C1162 C1161 1.401 . S
C1162 C1163 1.391 . S
C1163 H1151 0.950 . S
C1163 C1159 1.393 . S
C1163 C1162 1.391 . S
H1164 C1172 0.950 . S
H1165 C1177 0.950 . S
H1166 C1174 0.950 . S
H1167 C1176 0.950 . S
H1168 C1178 0.950 . S
H1169 C1180 0.950 . S
H1170 C1182 0.950 1_554 S
H1171 C1183 0.950 . S
C1172 H1164 0.950 . S
C1172 C1173 1.386 . S
C1172 C1174 1.391 . S
C1173 C1172 1.386 . S
C1173 C1177 1.393 . S
C1174 H1166 0.950 . S
C1174 C1172 1.391 . S
C1174 C1175 1.400 . S
C1175 C1174 1.400 . S
C1175 C1176 1.398 . S
C1175 C1181 1.491 1_554 S
C1176 H1167 0.950 . S
C1176 C1175 1.398 . S
C1176 C1177 1.391 . S
C1177 H1165 0.950 . S
C1177 C1173 1.393 . S
C1177 C1176 1.391 . S
C1178 H1168 0.950 . S
C1178 C1179 1.386 . S
C1178 C1180 1.391 . S
C1179 C1178 1.386 . S
C1179 C1183 1.393 . S
C1180 H1169 0.950 . S
C1180 C1178 1.391 . S
C1180 C1181 1.400 . S
C1181 C1175 1.491 1_556 S
C1181 C1180 1.400 . S
C1181 C1182 1.398 . S
C1182 H1170 0.950 1_556 S
C1182 C1181 1.398 . S
C1182 C1183 1.391 . S
C1183 H1171 0.950 . S
C1183 C1179 1.393 . S
C1183 C1182 1.391 . S
H1184 C1192 0.950 . S
H1185 C1197 0.950 . S
H1186 C1194 0.950 . S
H1187 C1196 0.950 . S
H1188 C1198 0.950 . S
H1189 C1200 0.950 . S
H1190 C1202 0.950 . S
H1191 C1203 0.950 . S
C1192 H1184 0.950 . S
C1192 C1193 1.386 . S
C1192 C1194 1.391 . S
C1193 C1192 1.386 . S
C1193 C1197 1.393 . S
C1194 H1186 0.950 . S
C1194 C1192 1.391 . S
C1194 C1195 1.400 . S
C1195 C1194 1.400 . S
C1195 C1196 1.398 . S
C1195 C1201 1.491 . S
C1196 H1187 0.950 . S
C1196 C1195 1.398 . S
C1196 C1197 1.391 . S
C1197 H1185 0.950 . S
C1197 C1193 1.393 . S
C1197 C1196 1.391 . S
C1198 H1188 0.950 . S
C1198 C1199 1.386 . S
C1198 C1200 1.391 . S
C1199 C1198 1.386 . S
C1199 C1203 1.393 . S
C1200 H1189 0.950 . S
C1200 C1198 1.391 . S
C1200 C1201 1.400 . S
C1201 C1195 1.491 . S
C1201 C1200 1.400 . S
C1201 C1202 1.398 . S
C1202 H1190 0.950 . S
C1202 C1201 1.398 . S
C1202 C1203 1.391 . S
C1203 H1191 0.950 . S
C1203 C1199 1.393 . S
C1203 C1202 1.391 . S
H1204 C1212 0.950 . S
H1205 C1217 0.950 . S
H1206 C1214 0.950 . S
H1207 C1216 0.950 . S
H1208 C1218 0.950 . S
H1209 C1220 0.950 . S
H1210 C1222 0.950 . S
H1211 C1223 0.950 . S
C1212 H1204 0.950 . S
C1212 C1213 1.386 . S
C1212 C1214 1.391 . S
C1213 C1212 1.386 . S
C1213 C1217 1.393 . S
C1214 H1206 0.950 . S
C1214 C1212 1.391 . S
C1214 C1215 1.400 . S
C1215 C1214 1.400 . S
C1215 C1216 1.398 . S
C1215 C1221 1.491 . S
C1216 H1207 0.950 . S
C1216 C1215 1.398 . S
C1216 C1217 1.391 . S
C1217 H1205 0.950 . S
C1217 C1213 1.393 . S
C1217 C1216 1.391 . S
C1218 H1208 0.950 . S
C1218 C1219 1.386 . S
C1218 C1220 1.391 . S
C1219 C1218 1.386 . S
C1219 C1223 1.393 . S
C1220 H1209 0.950 . S
C1220 C1218 1.391 . S
C1220 C1221 1.400 . S
C1221 C1215 1.491 . S
C1221 C1220 1.400 . S
C1221 C1222 1.398 . S
C1222 H1210 0.950 . S
C1222 C1221 1.398 . S
C1222 C1223 1.391 . S
C1223 H1211 0.950 . S
C1223 C1219 1.393 . S
C1223 C1222 1.391 . S
H1224 C1232 0.950 . S
H1225 C1237 0.950 . S
H1226 C1234 0.950 . S
H1227 C1236 0.950 . S
H1228 C1238 0.950 . S
H1229 C1240 0.950 . S
H1230 C1242 0.950 . S
H1231 C1243 0.950 . S
C1232 H1224 0.950 . S
C1232 C1233 1.386 . S
C1232 C1234 1.391 . S
C1233 C1232 1.386 . S
C1233 C1237 1.393 . S
C1234 H1226 0.950 . S
C1234 C1232 1.391 . S
C1234 C1235 1.400 . S
C1235 C1234 1.400 . S
C1235 C1236 1.398 . S
C1235 C1241 1.491 . S
C1236 H1227 0.950 . S
C1236 C1235 1.398 . S
C1236 C1237 1.391 . S
C1237 H1225 0.950 . S
C1237 C1233 1.393 . S
C1237 C1236 1.391 . S
C1238 H1228 0.950 . S
C1238 C1239 1.386 . S
C1238 C1240 1.391 . S
C1239 C1238 1.386 . S
C1239 C1243 1.393 . S
C1240 H1229 0.950 . S
C1240 C1238 1.391 . S
C1240 C1241 1.400 . S
C1241 C1235 1.491 . S
C1241 C1240 1.400 . S
C1241 C1242 1.398 . S
C1242 H1230 0.950 . S
C1242 C1241 1.398 . S
C1242 C1243 1.391 . S
C1243 H1231 0.950 . S
C1243 C1239 1.393 . S
C1243 C1242 1.391 . S
H1244 C1252 0.950 . S
H1245 C1257 0.950 . S
H1246 C1254 0.950 . S
H1247 C1256 0.950 . S
H1248 C1258 0.950 . S
H1249 C1260 0.950 . S
H1250 C1262 0.950 . S
H1251 C1263 0.950 . S
C1252 H1244 0.950 . S
C1252 C1253 1.386 . S
C1252 C1254 1.391 . S
C1253 C1252 1.386 . S
C1253 C1257 1.393 . S
C1254 H1246 0.950 . S
C1254 C1252 1.391 . S
C1254 C1255 1.400 . S
C1255 C1254 1.400 . S
C1255 C1256 1.398 . S
C1255 C1261 1.491 . S
C1256 H1247 0.950 . S
C1256 C1255 1.398 . S
C1256 C1257 1.391 . S
C1257 H1245 0.950 . S
C1257 C1253 1.393 . S
C1257 C1256 1.391 . S
C1258 H1248 0.950 . S
C1258 C1259 1.386 . S
C1258 C1260 1.391 . S
C1259 C1258 1.386 . S
C1259 C1263 1.393 . S
C1260 H1249 0.950 . S
C1260 C1258 1.391 . S
C1260 C1261 1.400 . S
C1261 C1255 1.491 . S
C1261 C1260 1.400 . S
C1261 C1262 1.398 . S
C1262 H1250 0.950 . S
C1262 C1261 1.398 . S
C1262 C1263 1.391 . S
C1263 H1251 0.950 . S
C1263 C1259 1.393 . S
C1263 C1262 1.391 . S
H1264 C1272 0.950 . S
H1265 C1277 0.950 . S
H1266 C1274 0.950 . S
H1267 C1276 0.950 1_556 S
H1268 C1278 0.950 . S
H1269 C1280 0.950 . S
H1270 C1282 0.950 . S
H1271 C1283 0.950 . S
C1272 H1264 0.950 . S
C1272 C1273 1.386 . S
C1272 C1274 1.391 . S
C1273 C1272 1.386 . S
C1273 C1277 1.393 . S
C1274 H1266 0.950 . S
C1274 C1272 1.391 . S
C1274 C1275 1.405 . S
C1275 C1274 1.405 . S
C1275 C1276 1.399 . S
C1275 C1281 1.485 1_554 S
C1276 H1267 0.950 1_554 S
C1276 C1275 1.399 . S
C1276 C1277 1.391 . S
C1277 H1265 0.950 . S
C1277 C1273 1.393 . S
C1277 C1276 1.391 . S
C1278 H1268 0.950 . S
C1278 C1279 1.386 . S
C1278 C1280 1.391 . S
C1279 C1278 1.386 . S
C1279 C1283 1.393 . S
C1280 H1269 0.950 . S
C1280 C1278 1.391 . S
C1280 C1281 1.400 . S
C1281 C1275 1.485 1_556 S
C1281 C1280 1.400 . S
C1281 C1282 1.398 . S
C1282 H1270 0.950 . S
C1282 C1281 1.398 . S
C1282 C1283 1.391 . S
C1283 H1271 0.950 . S
C1283 C1279 1.393 . S
C1283 C1282 1.391 . S
H1284 C1292 0.950 . S
H1285 C1297 0.950 . S
H1286 C1294 0.950 . S
H1287 C1296 0.950 . S
H1288 C1298 0.950 . S
H1289 C1300 0.950 . S
H1290 C1302 0.950 . S
H1291 C1303 0.950 . S
C1292 H1284 0.950 . S
C1292 C1293 1.386 . S
C1292 C1294 1.391 1_554 S
C1293 C1292 1.386 . S
C1293 C1297 1.393 . S
C1294 H1286 0.950 . S
C1294 C1292 1.391 1_556 S
C1294 C1295 1.399 1_556 S
C1295 C1294 1.399 1_554 S
C1295 C1296 1.408 . S
C1295 C1301 1.482 1_554 S
C1296 H1287 0.950 . S
C1296 C1295 1.408 . S
C1296 C1297 1.391 . S
C1297 H1285 0.950 . S
C1297 C1293 1.393 . S
C1297 C1296 1.391 . S
C1298 H1288 0.950 . S
C1298 C1299 1.386 . S
C1298 C1300 1.391 . S
C1299 C1298 1.386 . S
C1299 C1303 1.393 . S
C1300 H1289 0.950 . S
C1300 C1298 1.391 . S
C1300 C1301 1.400 . S
C1301 C1295 1.482 1_556 S
C1301 C1300 1.400 . S
C1301 C1302 1.398 . S
C1302 H1290 0.950 . S
C1302 C1301 1.398 . S
C1302 C1303 1.391 . S
C1303 H1291 0.950 . S
C1303 C1299 1.393 . S
C1303 C1302 1.391 . S
H1304 C1312 0.950 . S
H1305 C1317 0.950 . S
H1306 C1314 0.947 1_556 S
H1307 C1316 0.950 . S
H1308 C1318 0.950 . S
H1309 C1320 0.950 . S
H1310 C1322 0.950 . S
H1311 C1323 0.950 . S
C1312 H1304 0.950 . S
C1312 C1313 1.386 . S
C1312 C1314 1.394 . S
C1313 C1312 1.386 . S
C1313 C1317 1.393 . S
C1314 H1306 0.947 1_554 S
C1314 C1312 1.394 . S
C1314 C1315 1.400 . S
C1315 C1314 1.400 . S
C1315 C1316 1.398 . S
C1315 C1321 1.491 1_554 S
C1316 H1307 0.950 . S
C1316 C1315 1.398 . S
C1316 C1317 1.391 . S
C1317 H1305 0.950 . S
C1317 C1313 1.393 . S
C1317 C1316 1.391 . S
C1318 H1308 0.950 . S
C1318 C1319 1.386 . S
C1318 C1320 1.391 . S
C1319 C1318 1.386 . S
C1319 C1323 1.393 . S
C1320 H1309 0.950 . S
C1320 C1318 1.391 . S
C1320 C1321 1.400 . S
C1321 C1315 1.491 1_556 S
C1321 C1320 1.400 . S
C1321 C1322 1.398 . S
C1322 H1310 0.950 . S
C1322 C1321 1.398 . S
C1322 C1323 1.391 . S
C1323 H1311 0.950 . S
C1323 C1319 1.393 . S
C1323 C1322 1.391 . S
H1324 C1332 0.950 . S
H1325 C1337 0.950 . S
H1326 C1334 0.950 . S
H1327 C1336 0.950 . S
H1328 C1338 0.950 . S
H1329 C1340 0.950 1_554 S
H1330 C1342 0.950 . S
H1331 C1343 0.950 . S
C1332 H1324 0.950 . S
C1332 C1333 1.386 . S
C1332 C1334 1.391 1_554 S
C1333 C1332 1.386 . S
C1333 C1337 1.393 . S
C1334 H1326 0.950 . S
C1334 C1332 1.391 1_556 S
C1334 C1335 1.392 1_556 S
C1335 C1334 1.392 1_554 S
C1335 C1336 1.424 . S
C1335 C1341 1.475 1_554 S
C1336 H1327 0.950 . S
C1336 C1335 1.424 . S
C1336 C1337 1.391 . S
C1337 H1325 0.950 . S
C1337 C1333 1.393 . S
C1337 C1336 1.391 . S
C1338 H1328 0.950 . S
C1338 C1339 1.386 . S
C1338 C1340 1.391 . S
C1339 C1338 1.386 . S
C1339 C1343 1.393 . S
C1340 H1329 0.950 1_556 S
C1340 C1338 1.391 . S
C1340 C1341 1.400 . S
C1341 C1335 1.475 1_556 S
C1341 C1340 1.400 . S
C1341 C1342 1.398 . S
C1342 H1330 0.950 . S
C1342 C1341 1.398 . S
C1342 C1343 1.391 . S
C1343 H1331 0.950 . S
C1343 C1339 1.393 . S
C1343 C1342 1.391 . S
H1344 C1352 0.950 . S
H1345 C1357 0.950 . S
H1346 C1354 0.950 . S
H1347 C1356 0.950 . S
H1348 C1358 0.950 . S
H1349 C1360 0.950 . S
H1350 C1362 0.950 . S
H1351 C1363 0.950 . S
C1352 H1344 0.950 . S
C1352 C1353 1.386 . S
C1352 C1354 1.391 . S
C1353 C1352 1.386 . S
C1353 C1357 1.393 . S
C1354 H1346 0.950 . S
C1354 C1352 1.391 . S
C1354 C1355 1.400 . S
C1355 C1354 1.400 . S
C1355 C1356 1.398 . S
C1355 C1361 1.491 . S
C1356 H1347 0.950 . S
C1356 C1355 1.398 . S
C1356 C1357 1.391 . S
C1357 H1345 0.950 . S
C1357 C1353 1.393 . S
C1357 C1356 1.391 . S
C1358 H1348 0.950 . S
C1358 C1359 1.386 . S
C1358 C1360 1.391 . S
C1359 C1358 1.386 . S
C1359 C1363 1.393 . S
C1360 H1349 0.950 . S
C1360 C1358 1.391 . S
C1360 C1361 1.400 . S
C1361 C1355 1.491 . S
C1361 C1360 1.400 . S
C1361 C1362 1.398 . S
C1362 H1350 0.950 . S
C1362 C1361 1.398 . S
C1362 C1363 1.391 . S
C1363 H1351 0.950 . S
C1363 C1359 1.393 . S
C1363 C1362 1.391 . S
H1364 C1372 0.950 . S
H1365 C1377 0.950 . S
H1366 C1374 0.950 . S
H1367 C1376 0.950 . S
H1368 C1378 0.950 . S
H1369 C1380 0.950 . S
H1370 C1382 0.950 . S
H1371 C1383 0.950 . S
C1372 H1364 0.950 . S
C1372 C1373 1.386 . S
C1372 C1374 1.391 . S
C1373 C1372 1.386 . S
C1373 C1377 1.393 . S
C1374 H1366 0.950 . S
C1374 C1372 1.391 . S
C1374 C1375 1.400 . S
C1375 C1374 1.400 . S
C1375 C1376 1.398 . S
C1375 C1381 1.491 . S
C1376 H1367 0.950 . S
C1376 C1375 1.398 . S
C1376 C1377 1.391 . S
C1377 H1365 0.950 . S
C1377 C1373 1.393 . S
C1377 C1376 1.391 . S
C1378 H1368 0.950 . S
C1378 C1379 1.386 . S
C1378 C1380 1.391 . S
C1379 C1378 1.386 . S
C1379 C1383 1.393 . S
C1380 H1369 0.950 . S
C1380 C1378 1.391 . S
C1380 C1381 1.400 . S
C1381 C1375 1.491 . S
C1381 C1380 1.400 . S
C1381 C1382 1.398 . S
C1382 H1370 0.950 . S
C1382 C1381 1.398 . S
C1382 C1383 1.391 . S
C1383 H1371 0.950 . S
C1383 C1379 1.393 . S
C1383 C1382 1.391 . S
H1384 C1392 0.950 . S
H1385 C1397 0.950 . S
H1386 C1394 0.950 . S
H1387 C1396 0.950 . S
H1388 C1398 0.950 . S
H1389 C1400 0.950 . S
H1390 C1402 0.950 . S
H1391 C1403 0.950 . S
C1392 H1384 0.950 . S
C1392 C1393 1.386 . S
C1392 C1394 1.391 . S
C1393 C1392 1.386 . S
C1393 C1397 1.393 . S
C1394 H1386 0.950 . S
C1394 C1392 1.391 . S
C1394 C1395 1.400 . S
C1395 C1394 1.400 . S
C1395 C1396 1.398 . S
C1395 C1401 1.491 . S
C1396 H1387 0.950 . S
C1396 C1395 1.398 . S
C1396 C1397 1.391 . S
C1397 H1385 0.950 . S
C1397 C1393 1.393 . S
C1397 C1396 1.391 . S
C1398 H1388 0.950 . S
C1398 C1399 1.386 . S
C1398 C1400 1.391 . S
C1399 C1398 1.386 . S
C1399 C1403 1.393 . S
C1400 H1389 0.950 . S
C1400 C1398 1.391 . S
C1400 C1401 1.400 . S
C1401 C1395 1.491 . S
C1401 C1400 1.400 . S
C1401 C1402 1.398 . S
C1402 H1390 0.950 . S
C1402 C1401 1.398 . S
C1402 C1403 1.391 . S
C1403 H1391 0.950 . S
C1403 C1399 1.393 . S
C1403 C1402 1.391 . S
H1404 C1412 0.950 . S
H1405 C1417 0.950 . S
H1406 C1414 0.950 . S
H1407 C1416 0.950 . S
H1408 C1418 0.950 . S
H1409 C1420 0.950 . S
H1410 C1422 0.950 . S
H1411 C1423 0.950 . S
C1412 H1404 0.950 . S
C1412 C1413 1.386 . S
C1412 C1414 1.391 . S
C1413 C1412 1.386 . S
C1413 C1417 1.393 . S
C1414 H1406 0.950 . S
C1414 C1412 1.391 . S
C1414 C1415 1.400 . S
C1415 C1414 1.400 . S
C1415 C1416 1.398 . S
C1415 C1421 1.491 . S
C1416 H1407 0.950 . S
C1416 C1415 1.398 . S
C1416 C1417 1.391 . S
C1417 H1405 0.950 . S
C1417 C1413 1.393 . S
C1417 C1416 1.391 . S
C1418 H1408 0.950 . S
C1418 C1419 1.386 . S
C1418 C1420 1.391 . S
C1419 C1418 1.386 . S
C1419 C1423 1.393 . S
C1420 H1409 0.950 . S
C1420 C1418 1.391 . S
C1420 C1421 1.400 . S
C1421 C1415 1.491 . S
C1421 C1420 1.400 . S
C1421 C1422 1.398 . S
C1422 H1410 0.950 . S
C1422 C1421 1.398 . S
C1422 C1423 1.391 . S
C1423 H1411 0.950 . S
C1423 C1419 1.393 . S
C1423 C1422 1.391 . S
H1424 C1432 0.950 . S
H1425 C1437 0.950 . S
H1426 C1434 0.950 . S
H1427 C1436 0.950 . S
H1428 C1438 0.950 . S
H1429 C1440 0.950 . S
H1430 C1442 0.950 . S
H1431 C1443 0.950 . S
C1432 H1424 0.950 . S
C1432 C1433 1.386 . S
C1432 C1434 1.391 . S
C1433 C1432 1.386 . S
C1433 C1437 1.393 . S
C1434 H1426 0.950 . S
C1434 C1432 1.391 . S
C1434 C1435 1.400 . S
C1435 C1434 1.400 . S
C1435 C1436 1.398 . S
C1435 C1441 1.491 . S
C1436 H1427 0.950 . S
C1436 C1435 1.398 . S
C1436 C1437 1.391 . S
C1437 H1425 0.950 . S
C1437 C1433 1.393 . S
C1437 C1436 1.391 . S
C1438 H1428 0.950 . S
C1438 C1439 1.386 . S
C1438 C1440 1.391 . S
C1439 C1438 1.386 . S
C1439 C1443 1.393 . S
C1440 H1429 0.950 . S
C1440 C1438 1.391 . S
C1440 C1441 1.400 . S
C1441 C1435 1.491 . S
C1441 C1440 1.400 . S
C1441 C1442 1.398 . S
C1442 H1430 0.950 . S
C1442 C1441 1.398 . S
C1442 C1443 1.391 . S
C1443 H1431 0.950 . S
C1443 C1439 1.393 . S
C1443 C1442 1.391 . S
H1444 C1452 0.950 . S
H1445 C1457 0.950 . S
H1446 C1454 0.950 . S
H1447 C1456 0.950 . S
H1448 C1458 0.950 . S
H1449 C1460 0.950 . S
H1450 C1462 0.950 . S
H1451 C1463 0.950 . S
C1452 H1444 0.950 . S
C1452 C1453 1.386 . S
C1452 C1454 1.391 . S
C1453 C1452 1.386 . S
C1453 C1457 1.393 . S
C1454 H1446 0.950 . S
C1454 C1452 1.391 . S
C1454 C1455 1.400 . S
C1455 C1454 1.400 . S
C1455 C1456 1.398 . S
C1455 C1461 1.491 . S
C1456 H1447 0.950 . S
C1456 C1455 1.398 . S
C1456 C1457 1.391 . S
C1457 H1445 0.950 . S
C1457 C1453 1.393 . S
C1457 C1456 1.391 . S
C1458 H1448 0.950 . S
C1458 C1459 1.386 . S
C1458 C1460 1.391 . S
C1459 C1458 1.386 . S
C1459 C1463 1.393 . S
C1460 H1449 0.950 . S
C1460 C1458 1.391 . S
C1460 C1461 1.400 . S
C1461 C1455 1.491 . S
C1461 C1460 1.400 . S
C1461 C1462 1.398 . S
C1462 H1450 0.950 . S
C1462 C1461 1.398 . S
C1462 C1463 1.391 . S
C1463 H1451 0.950 . S
C1463 C1459 1.393 . S
C1463 C1462 1.391 . S
H1464 C1472 0.950 . S
H1465 C1477 0.950 . S
H1466 C1474 0.950 . S
H1467 C1476 0.950 . S
H1468 C1478 0.950 . S
H1469 C1480 0.950 . S
H1470 C1482 0.950 . S
H1471 C1483 0.950 . S
C1472 H1464 0.950 . S
C1472 C1473 1.386 . S
C1472 C1474 1.391 . S
C1473 C1472 1.386 . S
C1473 C1477 1.393 . S
C1474 H1466 0.950 . S
C1474 C1472 1.391 . S
C1474 C1475 1.400 . S
C1475 C1474 1.400 . S
C1475 C1476 1.398 . S
C1475 C1481 1.491 . S
C1476 H1467 0.950 . S
C1476 C1475 1.398 . S
C1476 C1477 1.391 . S
C1477 H1465 0.950 . S
C1477 C1473 1.393 . S
C1477 C1476 1.391 . S
C1478 H1468 0.950 . S
C1478 C1479 1.386 . S
C1478 C1480 1.391 . S
C1479 C1478 1.386 . S
C1479 C1483 1.393 . S
C1480 H1469 0.950 . S
C1480 C1478 1.391 . S
C1480 C1481 1.400 . S
C1481 C1475 1.491 . S
C1481 C1480 1.400 . S
C1481 C1482 1.398 . S
C1482 H1470 0.950 . S
C1482 C1481 1.398 . S
C1482 C1483 1.391 . S
C1483 H1471 0.950 . S
C1483 C1479 1.393 . S
C1483 C1482 1.391 . S
H1484 C1492 0.950 . S
H1485 C1497 0.950 . S
H1486 C1494 0.950 . S
H1487 C1496 0.950 . S
H1488 C1498 0.950 . S
H1489 C1500 0.950 . S
H1490 C1502 0.950 . S
H1491 C1503 0.950 . S
C1492 H1484 0.950 . S
C1492 C1493 1.386 . S
C1492 C1494 1.391 . S
C1493 C1492 1.386 . S
C1493 C1497 1.393 . S
C1494 H1486 0.950 . S
C1494 C1492 1.391 . S
C1494 C1495 1.400 . S
C1495 C1494 1.400 . S
C1495 C1496 1.398 . S
C1495 C1501 1.491 . S
C1496 H1487 0.950 . S
C1496 C1495 1.398 . S
C1496 C1497 1.391 . S
C1497 H1485 0.950 . S
C1497 C1493 1.393 . S
C1497 C1496 1.391 . S
C1498 H1488 0.950 . S
C1498 C1499 1.386 . S
C1498 C1500 1.391 . S
C1499 C1498 1.386 . S
C1499 C1503 1.393 . S
C1500 H1489 0.950 . S
C1500 C1498 1.391 . S
C1500 C1501 1.400 . S
C1501 C1495 1.491 . S
C1501 C1500 1.400 . S
C1501 C1502 1.398 . S
C1502 H1490 0.950 . S
C1502 C1501 1.398 . S
C1502 C1503 1.391 . S
C1503 H1491 0.950 . S
C1503 C1499 1.393 . S
C1503 C1502 1.391 . S
H1504 C1512 0.950 . S
H1505 C1517 0.950 . S
H1506 C1514 0.950 . S
H1507 C1516 0.950 . S
H1508 C1518 0.950 . S
H1509 C1520 0.950 . S
H1510 C1522 0.950 . S
H1511 C1523 0.950 . S
C1512 H1504 0.950 . S
C1512 C1513 1.386 . S
C1512 C1514 1.391 . S
C1513 C1512 1.386 . S
C1513 C1517 1.393 . S
C1514 H1506 0.950 . S
C1514 C1512 1.391 . S
C1514 C1515 1.400 . S
C1515 C1514 1.400 . S
C1515 C1516 1.398 . S
C1515 C1521 1.491 . S
C1516 H1507 0.950 . S
C1516 C1515 1.398 . S
C1516 C1517 1.391 . S
C1517 H1505 0.950 . S
C1517 C1513 1.393 . S
C1517 C1516 1.391 . S
C1518 H1508 0.950 . S
C1518 C1519 1.386 . S
C1518 C1520 1.391 . S
C1519 C1518 1.386 . S
C1519 C1523 1.393 . S
C1520 H1509 0.950 . S
C1520 C1518 1.391 . S
C1520 C1521 1.400 . S
C1521 C1515 1.491 . S
C1521 C1520 1.400 . S
C1521 C1522 1.398 . S
C1522 H1510 0.950 . S
C1522 C1521 1.398 . S
C1522 C1523 1.391 . S
C1523 H1511 0.950 . S
C1523 C1519 1.393 . S
C1523 C1522 1.391 . S
H1524 C1532 0.950 . S
H1525 C1537 0.950 . S
H1526 C1534 0.950 . S
H1527 C1536 0.950 . S
H1528 C1538 0.950 . S
H1529 C1540 0.950 . S
H1530 C1542 0.950 . S
H1531 C1543 0.950 . S
C1532 H1524 0.950 . S
C1532 C1533 1.386 . S
C1532 C1534 1.391 . S
C1533 C1532 1.386 . S
C1533 C1537 1.393 . S
C1534 H1526 0.950 . S
C1534 C1532 1.391 . S
C1534 C1535 1.400 . S
C1535 C1534 1.400 . S
C1535 C1536 1.398 . S
C1535 C1541 1.491 . S
C1536 H1527 0.950 . S
C1536 C1535 1.398 . S
C1536 C1537 1.391 . S
C1537 H1525 0.950 . S
C1537 C1533 1.393 . S
C1537 C1536 1.391 . S
C1538 H1528 0.950 . S
C1538 C1539 1.386 . S
C1538 C1540 1.391 . S
C1539 C1538 1.386 . S
C1539 C1543 1.393 . S
C1540 H1529 0.950 . S
C1540 C1538 1.391 . S
C1540 C1541 1.400 . S
C1541 C1535 1.491 . S
C1541 C1540 1.400 . S
C1541 C1542 1.398 . S
C1542 H1530 0.950 . S
C1542 C1541 1.398 . S
C1542 C1543 1.391 . S
C1543 H1531 0.950 . S
C1543 C1539 1.393 . S
C1543 C1542 1.391 . S
H1544 C1552 0.950 . S
H1545 C1557 0.950 . S
H1546 C1554 0.950 . S
H1547 C1556 0.950 . S
H1548 C1558 0.950 . S
H1549 C1560 0.950 . S
H1550 C1562 0.950 . S
H1551 C1563 0.950 . S
C1552 H1544 0.950 . S
C1552 C1553 1.386 . S
C1552 C1554 1.391 . S
C1553 C1552 1.386 . S
C1553 C1557 1.393 . S
C1554 H1546 0.950 . S
C1554 C1552 1.391 . S
C1554 C1555 1.400 . S
C1555 C1554 1.400 . S
C1555 C1556 1.398 . S
C1555 C1561 1.491 . S
C1556 H1547 0.950 . S
C1556 C1555 1.398 . S
C1556 C1557 1.391 . S
C1557 H1545 0.950 . S
C1557 C1553 1.393 . S
C1557 C1556 1.391 . S
C1558 H1548 0.950 . S
C1558 C1559 1.386 . S
C1558 C1560 1.391 . S
C1559 C1558 1.386 . S
C1559 C1563 1.393 . S
C1560 H1549 0.950 . S
C1560 C1558 1.391 . S
C1560 C1561 1.400 . S
C1561 C1555 1.491 . S
C1561 C1560 1.400 . S
C1561 C1562 1.398 . S
C1562 H1550 0.950 . S
C1562 C1561 1.398 . S
C1562 C1563 1.391 . S
C1563 H1551 0.950 . S
C1563 C1559 1.393 . S
C1563 C1562 1.391 . S
H1564 C1572 0.950 . S
H1565 C1577 0.950 . S
H1566 C1574 0.950 . S
H1567 C1576 0.950 . S
H1568 C1578 0.950 . S
H1569 C1580 0.950 . S
H1570 C1582 0.950 . S
H1571 C1583 0.950 . S
C1572 H1564 0.950 . S
C1572 C1573 1.386 . S
C1572 C1574 1.391 . S
C1573 C1572 1.386 . S
C1573 C1577 1.393 . S
C1574 H1566 0.950 . S
C1574 C1572 1.391 . S
C1574 C1575 1.400 . S
C1575 C1574 1.400 . S
C1575 C1576 1.398 . S
C1575 C1581 1.491 . S
C1576 H1567 0.950 . S
C1576 C1575 1.398 . S
C1576 C1577 1.391 . S
C1577 H1565 0.950 . S
C1577 C1573 1.393 . S
C1577 C1576 1.391 . S
C1578 H1568 0.950 . S
C1578 C1579 1.386 . S
C1578 C1580 1.391 . S
C1579 C1578 1.386 . S
C1579 C1583 1.393 . S
C1580 H1569 0.950 . S
C1580 C1578 1.391 . S
C1580 C1581 1.400 . S
C1581 C1575 1.491 . S
C1581 C1580 1.400 . S
C1581 C1582 1.398 . S
C1582 H1570 0.950 . S
C1582 C1581 1.398 . S
C1582 C1583 1.391 . S
C1583 H1571 0.950 . S
C1583 C1579 1.393 . S
C1583 C1582 1.391 . S
H1584 C1592 0.950 . S
H1585 C1597 0.950 . S
H1586 C1594 0.950 . S
H1587 C1596 0.950 . S
H1588 C1598 0.950 . S
H1589 C1600 0.950 . S
H1590 C1602 0.950 . S
H1591 C1603 0.950 . S
C1592 H1584 0.950 . S
C1592 C1593 1.386 . S
C1592 C1594 1.391 . S
C1593 C1592 1.386 . S
C1593 C1597 1.393 . S
C1594 H1586 0.950 . S
C1594 C1592 1.391 . S
C1594 C1595 1.400 . S
C1595 C1594 1.400 . S
C1595 C1596 1.398 . S
C1595 C1601 1.491 . S
C1596 H1587 0.950 . S
C1596 C1595 1.398 . S
C1596 C1597 1.391 . S
C1597 H1585 0.950 . S
C1597 C1593 1.393 . S
C1597 C1596 1.391 . S
C1598 H1588 0.950 . S
C1598 C1599 1.386 . S
C1598 C1600 1.391 . S
C1599 C1598 1.386 . S
C1599 C1603 1.393 . S
C1600 H1589 0.950 . S
C1600 C1598 1.391 . S
C1600 C1601 1.400 . S
C1601 C1595 1.491 . S
C1601 C1600 1.400 . S
C1601 C1602 1.398 . S
C1602 H1590 0.950 . S
C1602 C1601 1.398 . S
C1602 C1603 1.391 . S
C1603 H1591 0.950 . S
C1603 C1599 1.393 . S
C1603 C1602 1.391 . S
H1604 C1612 0.950 . S
H1605 C1617 0.950 . S
H1606 C1614 0.950 . S
H1607 C1616 0.950 . S
H1608 C1618 0.950 . S
H1609 C1620 0.950 . S
H1610 C1622 0.950 . S
H1611 C1623 0.950 . S
C1612 H1604 0.950 . S
C1612 C1613 1.386 . S
C1612 C1614 1.391 . S
C1613 C1612 1.386 . S
C1613 C1617 1.393 . S
C1614 H1606 0.950 . S
C1614 C1612 1.391 . S
C1614 C1615 1.400 . S
C1615 C1614 1.400 . S
C1615 C1616 1.398 . S
C1615 C1621 1.491 . S
C1616 H1607 0.950 . S
C1616 C1615 1.398 . S
C1616 C1617 1.391 . S
C1617 H1605 0.950 . S
C1617 C1613 1.393 . S
C1617 C1616 1.391 . S
C1618 H1608 0.950 . S
C1618 C1619 1.386 . S
C1618 C1620 1.391 . S
C1619 C1618 1.386 . S
C1619 C1623 1.393 . S
C1620 H1609 0.950 . S
C1620 C1618 1.391 . S
C1620 C1621 1.400 . S
C1621 C1615 1.491 . S
C1621 C1620 1.400 . S
C1621 C1622 1.398 . S
C1622 H1610 0.950 . S
C1622 C1621 1.398 . S
C1622 C1623 1.391 . S
C1623 H1611 0.950 . S
C1623 C1619 1.393 . S
C1623 C1622 1.391 . S
H1624 C1632 0.950 . S
H1625 C1637 0.950 . S
H1626 C1634 0.950 . S
H1627 C1636 0.950 . S
H1628 C1638 0.950 . S
H1629 C1640 0.950 . S
H1630 C1642 0.950 . S
H1631 C1643 0.950 . S
C1632 H1624 0.950 . S
C1632 C1633 1.386 . S
C1632 C1634 1.391 . S
C1633 C1632 1.386 . S
C1633 C1637 1.393 . S
C1634 H1626 0.950 . S
C1634 C1632 1.391 . S
C1634 C1635 1.400 . S
C1635 C1634 1.400 . S
C1635 C1636 1.398 . S
C1635 C1641 1.491 . S
C1636 H1627 0.950 . S
C1636 C1635 1.398 . S
C1636 C1637 1.391 . S
C1637 H1625 0.950 . S
C1637 C1633 1.393 . S
C1637 C1636 1.391 . S
C1638 H1628 0.950 . S
C1638 C1639 1.386 . S
C1638 C1640 1.391 . S
C1639 C1638 1.386 . S
C1639 C1643 1.393 . S
C1640 H1629 0.950 . S
C1640 C1638 1.391 . S
C1640 C1641 1.400 . S
C1641 C1635 1.491 . S
C1641 C1640 1.400 . S
C1641 C1642 1.398 . S
C1642 H1630 0.950 . S
C1642 C1641 1.398 . S
C1642 C1643 1.391 . S
C1643 H1631 0.950 . S
C1643 C1639 1.393 . S
C1643 C1642 1.391 . S
H1644 C1652 0.950 . S
H1645 C1657 0.950 . S
H1646 C1654 0.950 . S
H1647 C1656 0.950 . S
H1648 C1658 0.950 . S
H1649 C1660 0.950 . S
H1650 C1662 0.950 . S
H1651 C1663 0.950 . S
C1652 H1644 0.950 . S
C1652 C1653 1.386 . S
C1652 C1654 1.391 . S
C1653 C1652 1.386 . S
C1653 C1657 1.393 . S
C1654 H1646 0.950 . S
C1654 C1652 1.391 . S
C1654 C1655 1.400 . S
C1655 C1654 1.400 . S
C1655 C1656 1.398 . S
C1655 C1661 1.491 . S
C1656 H1647 0.950 . S
C1656 C1655 1.398 . S
C1656 C1657 1.391 . S
C1657 H1645 0.950 . S
C1657 C1653 1.393 . S
C1657 C1656 1.391 . S
C1658 H1648 0.950 . S
C1658 C1659 1.386 . S
C1658 C1660 1.391 . S
C1659 C1658 1.386 . S
C1659 C1663 1.393 . S
C1660 H1649 0.950 . S
C1660 C1658 1.391 . S
C1660 C1661 1.400 . S
C1661 C1655 1.491 . S
C1661 C1660 1.400 . S
C1661 C1662 1.398 . S
C1662 H1650 0.950 . S
C1662 C1661 1.398 . S
C1662 C1663 1.391 . S
C1663 H1651 0.950 . S
C1663 C1659 1.393 . S
C1663 C1662 1.391 . S
C553 C1 1.815 . S
C559 C173 1.831 . S
C573 C37 1.830 . S
C579 C207 1.814 . S
C593 C241 1.827 . S
C599 C69 1.834 . S
C613 C103 1.826 . S
C619 C139 1.810 . S
C633 C445 1.811 . S
C639 C273 1.806 . S
C653 C307 1.834 . S
C659 C477 1.826 . S
C673 C341 1.808 . S
C679 C513 1.824 . S
C693 C411 1.834 . S
C699 C377 1.822 . S
C713 C504 1.334 1_554 S
C719 C6 1.337 . S
C733 C516 1.327 1_554 S
C739 C62 1.337 . S
C753 C74 1.334 . S
C759 C414 1.323 1_554 S
C773 C108 1.336 . S
C779 C448 1.325 1_554 S
C793 C164 1.333 . S
C799 C368 1.322 . S
C813 C198 1.333 . S
C819 C380 1.322 . S
C833 C232 1.331 . S
C839 C300 1.326 . S
C853 C334 1.322 . S
C859 C266 1.333 . S
C873 C210 1.334 1_556 S
C879 C278 1.337 . S
C893 C312 1.337 . S
C899 C244 1.327 1_556 S
C913 C346 1.338 . S
C919 C142 1.333 1_556 S
C933 C402 1.338 . S
C939 C176 1.331 1_556 S
C953 C436 1.336 . S
C959 C96 1.334 . S
C973 C130 1.322 . S
C979 C470 1.332 . S
C993 C482 1.332 . S
C999 C28 1.329 . S
C1013 C538 1.335 . S
C1019 C40 1.324 . S
C1033 C3 1.480 . S
C1039 C396 1.554 . S
C1053 C35 1.461 . S
C1059 C287 1.547 . S
C1073 C321 1.554 . S
C1079 C71 1.489 . S
C1093 C105 1.489 . S
C1099 C355 1.551 . S
C1113 C464 1.548 . S
C1119 C137 1.461 . S
C1133 C171 1.483 . S
C1139 C491 1.554 . S
C1153 C205 1.486 . S
C1159 C532 1.554 . S
C1173 C239 1.472 . S
C1179 C430 1.547 . S
C1193 C275 1.471 . S
C1199 C117 1.552 . S
C1213 C15 1.546 . S
C1219 C309 1.465 . S
C1233 C56 1.547 . S
C1239 C343 1.462 . S
C1253 C83 1.546 . S
C1259 C375 1.466 . S
C1273 C192 1.554 . S
C1279 C409 1.489 . S
C1293 C226 1.554 . S
C1299 C443 1.478 . S
C1313 C260 1.547 . S
C1319 C479 1.461 . S
C1333 C158 1.552 . S
C1339 C511 1.468 . S
C1353 C22 1.758 . S
C1359 C119 1.989 . S
C1373 C49 1.734 . S
C1379 C17 1.980 . S
C1393 C51 1.985 . S
C1399 C90 1.751 . S
C1413 C85 1.989 . S
C1419 C124 1.762 . S
C1433 C187 1.986 . S
C1439 C151 1.745 . S
C1453 C221 1.989 . S
C1459 C185 1.762 . S
C1473 C255 1.989 . S
C1479 C219 1.762 . S
C1493 C153 1.988 . S
C1499 C253 1.761 . S
C1513 C391 1.979 . S
C1519 C294 1.725 . S
C1533 C328 1.739 . S
C1539 C289 1.985 . S
C1553 C362 1.727 . S
C1559 C323 1.979 . S
C1573 C357 1.980 . S
C1579 C389 1.737 . S
C1593 C459 1.981 . S
C1599 C423 1.741 . S
C1613 C457 1.725 . S
C1619 C493 1.979 . S
C1633 C527 1.982 . S
C1639 C498 1.730 . S
C1653 C425 1.985 . S
C1659 C525 1.753 . S
