# Generated by pormake.
# Topology wlg, (5)-cn, num edge types: 1
# Building blocks:
#     Node 0, Type 0, BuildingBlock: BEQFEK_clean_sbu_0, # of connection points: 5
#     Node 1, Type 0, BuildingBlock: BEQFEK_clean_sbu_0, # of connection points: 5
#     Node 2, Type 0, BuildingBlock: BEQFEK_clean_sbu_0, # of connection points: 5
#     Node 3, Type 0, BuildingBlock: BEQFEK_clean_sbu_0, # of connection points: 5
#     Node 4, Type 0, BuildingBlock: BEQFEK_clean_sbu_0, # of connection points: 5
#     Node 5, Type 0, BuildingBlock: BEQFEK_clean_sbu_0, # of connection points: 5
#     Node 6, Type 0, BuildingBlock: BEQFEK_clean_sbu_0, # of connection points: 5
#     Node 7, Type 0, BuildingBlock: BEQFEK_clean_sbu_0, # of connection points: 5
#     Node 8, Type 0, BuildingBlock: BEQFEK_clean_sbu_0, # of connection points: 5
#     Node 9, Type 0, BuildingBlock: BEQFEK_clean_sbu_0, # of connection points: 5
#     Node 10, Type 0, BuildingBlock: BEQFEK_clean_sbu_0, # of connection points: 5
#     Node 11, Type 0, BuildingBlock: BEQFEK_clean_sbu_0, # of connection points: 5
#     Node 12, Type 0, BuildingBlock: BEQFEK_clean_sbu_0, # of connection points: 5
#     Node 13, Type 0, BuildingBlock: BEQFEK_clean_sbu_0, # of connection points: 5
#     Node 14, Type 0, BuildingBlock: BEQFEK_clean_sbu_0, # of connection points: 5
#     Node 15, Type 0, BuildingBlock: BEQFEK_clean_sbu_0, # of connection points: 5
#     Node 16, Type 0, BuildingBlock: BEQFEK_clean_sbu_0, # of connection points: 5
#     Node 17, Type 0, BuildingBlock: BEQFEK_clean_sbu_0, # of connection points: 5
#     Node 18, Type 0, BuildingBlock: BEQFEK_clean_sbu_0, # of connection points: 5
#     Node 19, Type 0, BuildingBlock: BEQFEK_clean_sbu_0, # of connection points: 5
#     Node 20, Type 0, BuildingBlock: BEQFEK_clean_sbu_0, # of connection points: 5
#     Node 21, Type 0, BuildingBlock: BEQFEK_clean_sbu_0, # of connection points: 5
#     Node 22, Type 0, BuildingBlock: BEQFEK_clean_sbu_0, # of connection points: 5
#     Node 23, Type 0, BuildingBlock: BEQFEK_clean_sbu_0, # of connection points: 5
#     Node 24, Type 0, BuildingBlock: BEQFEK_clean_sbu_0, # of connection points: 5
#     Node 25, Type 0, BuildingBlock: BEQFEK_clean_sbu_0, # of connection points: 5
#     Node 26, Type 0, BuildingBlock: BEQFEK_clean_sbu_0, # of connection points: 5
#     Node 27, Type 0, BuildingBlock: BEQFEK_clean_sbu_0, # of connection points: 5
#     Node 28, Type 0, BuildingBlock: BEQFEK_clean_sbu_0, # of connection points: 5
#     Node 29, Type 0, BuildingBlock: BEQFEK_clean_sbu_0, # of connection points: 5
#     Node 30, Type 0, BuildingBlock: BEQFEK_clean_sbu_0, # of connection points: 5
#     Node 31, Type 0, BuildingBlock: BEQFEK_clean_sbu_0, # of connection points: 5
#     Node 32, Type 0, BuildingBlock: BEQFEK_clean_sbu_0, # of connection points: 5
#     Node 33, Type 0, BuildingBlock: BEQFEK_clean_sbu_0, # of connection points: 5
#     Node 34, Type 0, BuildingBlock: BEQFEK_clean_sbu_0, # of connection points: 5
#     Node 35, Type 0, BuildingBlock: BEQFEK_clean_sbu_0, # of connection points: 5
#     Edge 36, Type (0, 0), BuildingBlock: OJICUG_clean_linker_0, # of connection points: 2
#     Edge 37, Type (0, 0), BuildingBlock: OJICUG_clean_linker_0, # of connection points: 2
#     Edge 38, Type (0, 0), BuildingBlock: OJICUG_clean_linker_0, # of connection points: 2
#     Edge 39, Type (0, 0), BuildingBlock: OJICUG_clean_linker_0, # of connection points: 2
#     Edge 40, Type (0, 0), BuildingBlock: OJICUG_clean_linker_0, # of connection points: 2
#     Edge 41, Type (0, 0), BuildingBlock: OJICUG_clean_linker_0, # of connection points: 2
#     Edge 42, Type (0, 0), BuildingBlock: OJICUG_clean_linker_0, # of connection points: 2
#     Edge 43, Type (0, 0), BuildingBlock: OJICUG_clean_linker_0, # of connection points: 2
#     Edge 44, Type (0, 0), BuildingBlock: OJICUG_clean_linker_0, # of connection points: 2
#     Edge 45, Type (0, 0), BuildingBlock: OJICUG_clean_linker_0, # of connection points: 2
#     Edge 46, Type (0, 0), BuildingBlock: OJICUG_clean_linker_0, # of connection points: 2
#     Edge 47, Type (0, 0), BuildingBlock: OJICUG_clean_linker_0, # of connection points: 2
#     Edge 48, Type (0, 0), BuildingBlock: OJICUG_clean_linker_0, # of connection points: 2
#     Edge 49, Type (0, 0), BuildingBlock: OJICUG_clean_linker_0, # of connection points: 2
#     Edge 50, Type (0, 0), BuildingBlock: OJICUG_clean_linker_0, # of connection points: 2
#     Edge 51, Type (0, 0), BuildingBlock: OJICUG_clean_linker_0, # of connection points: 2
#     Edge 52, Type (0, 0), BuildingBlock: OJICUG_clean_linker_0, # of connection points: 2
#     Edge 53, Type (0, 0), BuildingBlock: OJICUG_clean_linker_0, # of connection points: 2
#     Edge 54, Type (0, 0), BuildingBlock: OJICUG_clean_linker_0, # of connection points: 2
#     Edge 55, Type (0, 0), BuildingBlock: OJICUG_clean_linker_0, # of connection points: 2
#     Edge 56, Type (0, 0), BuildingBlock: OJICUG_clean_linker_0, # of connection points: 2
#     Edge 57, Type (0, 0), BuildingBlock: OJICUG_clean_linker_0, # of connection points: 2
#     Edge 58, Type (0, 0), BuildingBlock: OJICUG_clean_linker_0, # of connection points: 2
#     Edge 59, Type (0, 0), BuildingBlock: OJICUG_clean_linker_0, # of connection points: 2
#     Edge 60, Type (0, 0), BuildingBlock: OJICUG_clean_linker_0, # of connection points: 2
#     Edge 61, Type (0, 0), BuildingBlock: OJICUG_clean_linker_0, # of connection points: 2
#     Edge 62, Type (0, 0), BuildingBlock: OJICUG_clean_linker_0, # of connection points: 2
#     Edge 63, Type (0, 0), BuildingBlock: OJICUG_clean_linker_0, # of connection points: 2
#     Edge 64, Type (0, 0), BuildingBlock: OJICUG_clean_linker_0, # of connection points: 2
#     Edge 65, Type (0, 0), BuildingBlock: OJICUG_clean_linker_0, # of connection points: 2
#     Edge 66, Type (0, 0), BuildingBlock: OJICUG_clean_linker_0, # of connection points: 2
#     Edge 67, Type (0, 0), BuildingBlock: OJICUG_clean_linker_0, # of connection points: 2
#     Edge 68, Type (0, 0), BuildingBlock: OJICUG_clean_linker_0, # of connection points: 2
#     Edge 69, Type (0, 0), BuildingBlock: OJICUG_clean_linker_0, # of connection points: 2
#     Edge 70, Type (0, 0), BuildingBlock: OJICUG_clean_linker_0, # of connection points: 2
#     Edge 71, Type (0, 0), BuildingBlock: OJICUG_clean_linker_0, # of connection points: 2
#     Edge 72, Type (0, 0), BuildingBlock: OJICUG_clean_linker_0, # of connection points: 2
#     Edge 73, Type (0, 0), BuildingBlock: OJICUG_clean_linker_0, # of connection points: 2
#     Edge 74, Type (0, 0), BuildingBlock: OJICUG_clean_linker_0, # of connection points: 2
#     Edge 75, Type (0, 0), BuildingBlock: OJICUG_clean_linker_0, # of connection points: 2
#     Edge 76, Type (0, 0), BuildingBlock: OJICUG_clean_linker_0, # of connection points: 2
#     Edge 77, Type (0, 0), BuildingBlock: OJICUG_clean_linker_0, # of connection points: 2
#     Edge 78, Type (0, 0), BuildingBlock: OJICUG_clean_linker_0, # of connection points: 2
#     Edge 79, Type (0, 0), BuildingBlock: OJICUG_clean_linker_0, # of connection points: 2
#     Edge 80, Type (0, 0), BuildingBlock: OJICUG_clean_linker_0, # of connection points: 2
#     Edge 81, Type (0, 0), BuildingBlock: OJICUG_clean_linker_0, # of connection points: 2
#     Edge 82, Type (0, 0), BuildingBlock: OJICUG_clean_linker_0, # of connection points: 2
#     Edge 83, Type (0, 0), BuildingBlock: OJICUG_clean_linker_0, # of connection points: 2
#     Edge 84, Type (0, 0), BuildingBlock: OJICUG_clean_linker_0, # of connection points: 2
#     Edge 85, Type (0, 0), BuildingBlock: OJICUG_clean_linker_0, # of connection points: 2
#     Edge 86, Type (0, 0), BuildingBlock: OJICUG_clean_linker_0, # of connection points: 2
#     Edge 87, Type (0, 0), BuildingBlock: OJICUG_clean_linker_0, # of connection points: 2
#     Edge 88, Type (0, 0), BuildingBlock: OJICUG_clean_linker_0, # of connection points: 2
#     Edge 89, Type (0, 0), BuildingBlock: OJICUG_clean_linker_0, # of connection points: 2
#     Edge 90, Type (0, 0), BuildingBlock: OJICUG_clean_linker_0, # of connection points: 2
#     Edge 91, Type (0, 0), BuildingBlock: OJICUG_clean_linker_0, # of connection points: 2
#     Edge 92, Type (0, 0), BuildingBlock: OJICUG_clean_linker_0, # of connection points: 2
#     Edge 93, Type (0, 0), BuildingBlock: OJICUG_clean_linker_0, # of connection points: 2
#     Edge 94, Type (0, 0), BuildingBlock: OJICUG_clean_linker_0, # of connection points: 2
#     Edge 95, Type (0, 0), BuildingBlock: OJICUG_clean_linker_0, # of connection points: 2
#     Edge 96, Type (0, 0), BuildingBlock: OJICUG_clean_linker_0, # of connection points: 2
#     Edge 97, Type (0, 0), BuildingBlock: OJICUG_clean_linker_0, # of connection points: 2
#     Edge 98, Type (0, 0), BuildingBlock: OJICUG_clean_linker_0, # of connection points: 2
#     Edge 99, Type (0, 0), BuildingBlock: OJICUG_clean_linker_0, # of connection points: 2
#     Edge 100, Type (0, 0), BuildingBlock: OJICUG_clean_linker_0, # of connection points: 2
#     Edge 101, Type (0, 0), BuildingBlock: OJICUG_clean_linker_0, # of connection points: 2
#     Edge 102, Type (0, 0), BuildingBlock: OJICUG_clean_linker_0, # of connection points: 2
#     Edge 103, Type (0, 0), BuildingBlock: OJICUG_clean_linker_0, # of connection points: 2
#     Edge 104, Type (0, 0), BuildingBlock: OJICUG_clean_linker_0, # of connection points: 2
#     Edge 105, Type (0, 0), BuildingBlock: OJICUG_clean_linker_0, # of connection points: 2
#     Edge 106, Type (0, 0), BuildingBlock: OJICUG_clean_linker_0, # of connection points: 2
#     Edge 107, Type (0, 0), BuildingBlock: OJICUG_clean_linker_0, # of connection points: 2
#     Edge 108, Type (0, 0), BuildingBlock: OJICUG_clean_linker_0, # of connection points: 2
#     Edge 109, Type (0, 0), BuildingBlock: OJICUG_clean_linker_0, # of connection points: 2
#     Edge 110, Type (0, 0), BuildingBlock: OJICUG_clean_linker_0, # of connection points: 2
#     Edge 111, Type (0, 0), BuildingBlock: OJICUG_clean_linker_0, # of connection points: 2
#     Edge 112, Type (0, 0), BuildingBlock: OJICUG_clean_linker_0, # of connection points: 2
#     Edge 113, Type (0, 0), BuildingBlock: OJICUG_clean_linker_0, # of connection points: 2
#     Edge 114, Type (0, 0), BuildingBlock: OJICUG_clean_linker_0, # of connection points: 2
#     Edge 115, Type (0, 0), BuildingBlock: OJICUG_clean_linker_0, # of connection points: 2
#     Edge 116, Type (0, 0), BuildingBlock: OJICUG_clean_linker_0, # of connection points: 2
#     Edge 117, Type (0, 0), BuildingBlock: OJICUG_clean_linker_0, # of connection points: 2
#     Edge 118, Type (0, 0), BuildingBlock: OJICUG_clean_linker_0, # of connection points: 2
#     Edge 119, Type (0, 0), BuildingBlock: OJICUG_clean_linker_0, # of connection points: 2
#     Edge 120, Type (0, 0), BuildingBlock: OJICUG_clean_linker_0, # of connection points: 2
#     Edge 121, Type (0, 0), BuildingBlock: OJICUG_clean_linker_0, # of connection points: 2
#     Edge 122, Type (0, 0), BuildingBlock: OJICUG_clean_linker_0, # of connection points: 2
#     Edge 123, Type (0, 0), BuildingBlock: OJICUG_clean_linker_0, # of connection points: 2
#     Edge 124, Type (0, 0), BuildingBlock: OJICUG_clean_linker_0, # of connection points: 2
#     Edge 125, Type (0, 0), BuildingBlock: OJICUG_clean_linker_0, # of connection points: 2
# Relax obj value: 0.290
# Max RMSD: 0.182
# Mean RMSD: 0.182
data_MOF--net-wlg--node1-BEQFEK_clean_sbu_0--edge1-OJICUG_clean_linker_0
_symmetry_space_group_name_H-M    P1
_symmetry_Int_Tables_number       1
_symmetry_cell_setting            triclinic
loop_
_symmetry_equiv_pos_as_xyz
'x, y, z'
_cell_length_a     43.053381
_cell_length_b     43.069632
_cell_length_c     51.476591
_cell_angle_alpha  90.065475
_cell_angle_beta   89.988781
_cell_angle_gamma 119.98709
loop_
_atom_site_label
_atom_site_type_symbol
_atom_site_fract_x
_atom_site_fract_y
_atom_site_fract_z
_atom_type_partial_charge
Co0 Co 0.96237 0.18147 0.1542 0.0
Co1 Co 0.02665 0.1688 0.14396 0.0
C2 C 0.95183 0.1134 0.12973 0.0
O3 O 0.94031 0.13365 0.1378 0.0
O4 O 0.98512 0.12362 0.13056 0.0
C5 C 0.89598 0.17657 0.14392 0.0
O6 O 0.89756 0.16029 0.12278 0.0
C7 C 0.07203 0.13748 0.13383 0.0
C8 C 0.12661 0.18441 0.13237 0.0
C9 C 0.10776 0.14736 0.13013 0.0
N10 N 0.06971 0.16727 0.13692 0.0
N11 N 0.10255 0.19522 0.13645 0.0
C12 C 0.04143 0.10047 0.13869 0.0
H13 H 0.02184 0.10132 0.15221 0.0
H14 H 0.02798 0.08863 0.11996 0.0
H15 H 0.05088 0.08306 0.1473 0.0
C16 C 0.00923 0.24871 0.12609 0.0
N17 N 0.00226 0.21683 0.13563 0.0
N18 N 0.02734 0.20986 0.12822 0.0
C19 C 0.04946 0.23577 0.11156 0.0
C20 C 0.03941 0.26212 0.10999 0.0
C21 C 0.98866 0.26661 0.13438 0.0
H22 H 0.97666 0.25684 0.15383 0.0
H23 H 0.96655 0.25987 0.1204 0.0
H24 H 0.00632 0.29614 0.13531 0.0
O25 O 0.97555 0.17627 0.18906 0.0
O26 O 0.0229 0.16948 0.18327 0.0
H27 H 0.10306 0.24805 0.10259 0.0
H28 H 0.07571 0.24254 0.07469 0.0
C29 C 0.07567 0.23223 0.09445 0.0
H30 H 0.06868 0.20376 0.09299 0.0
H31 H 0.10872 0.22155 0.14 0.0
O32 O 0.92327 0.19189 0.15859 0.0
C33 C 0.00026 0.1716 0.19811 0.0
Co34 Co 0.82043 0.78495 0.1445 0.0
Co35 Co 0.82852 0.86093 0.14242 0.0
C36 C 0.88667 0.8458 0.12405 0.0
O37 O 0.867 0.81234 0.12759 0.0
O38 O 0.87522 0.86726 0.12926 0.0
C39 C 0.83551 0.73351 0.15835 0.0
O40 O 0.86317 0.76317 0.16701 0.0
C41 C 0.8516 0.93283 0.1224 0.0
C42 C 0.82543 0.95204 0.14974 0.0
C43 C 0.85009 0.96318 0.1296 0.0
N44 N 0.8296 0.90551 0.13793 0.0
N45 N 0.81357 0.91704 0.15395 0.0
C46 C 0.87341 0.92956 0.10108 0.0
H47 H 0.89916 0.93395 0.10915 0.0
H48 H 0.85893 0.90219 0.09261 0.0
H49 H 0.87915 0.94974 0.08568 0.0
C50 C 0.7528 0.76566 0.11675 0.0
N51 N 0.78432 0.78994 0.1273 0.0
N52 N 0.78734 0.82187 0.12634 0.0
C53 C 0.75741 0.8188 0.1154 0.0
C54 C 0.73431 0.78292 0.10898 0.0
C55 C 0.74099 0.72669 0.11414 0.0
H56 H 0.76431 0.72343 0.10931 0.0
H57 H 0.72022 0.71372 0.09885 0.0
H58 H 0.72986 0.71316 0.13298 0.0
O59 O 0.82555 0.80038 0.18116 0.0
O60 O 0.82768 0.85287 0.18054 0.0
H61 H 0.72267 0.84044 0.10616 0.0
H62 H 0.77027 0.87052 0.10127 0.0
C63 C 0.74985 0.84909 0.11381 0.0
H64 H 0.75216 0.86055 0.13348 0.0
H65 H 0.79611 0.90159 0.16875 0.0
O66 O 0.81074 0.73543 0.14632 0.0
C67 C 0.82792 0.82741 0.19294 0.0
Co68 Co 0.21904 0.03443 0.1502 0.0
Co69 Co 0.14024 0.97221 0.14408 0.0
C70 C 0.16079 0.04834 0.13303 0.0
O71 O 0.19298 0.05899 0.13951 0.0
O72 O 0.13744 0.01514 0.13294 0.0
C73 C 0.28019 0.10081 0.1413 0.0
O74 O 0.26043 0.10262 0.12258 0.0
C75 C 0.06757 0.929 0.12319 0.0
C76 C 0.04748 0.87829 0.14471 0.0
C77 C 0.03708 0.89609 0.12745 0.0
N78 N 0.09451 0.93088 0.13761 0.0
N79 N 0.08243 0.90023 0.15015 0.0
C80 C 0.07111 0.95819 0.1056 0.0
H81 H 0.06774 0.978 0.11721 0.0
H82 H 0.09811 0.97193 0.09655 0.0
H83 H 0.05034 0.94733 0.09015 0.0
C84 C 0.23371 0.98789 0.11677 0.0
N85 N 0.21074 0.99593 0.12856 0.0
N86 N 0.17786 0.96862 0.1266 0.0
C87 C 0.17908 0.94201 0.11353 0.0
C88 C 0.2145 0.95343 0.10684 0.0
C89 C 0.27359 0.01149 0.11755 0.0
H90 H 0.28274 0.01546 0.13806 0.0
H91 H 0.28094 0.03818 0.10949 0.0
H92 H 0.28742 -0.00014 0.10642 0.0
O93 O 0.20513 0.01784 0.18577 0.0
O94 O 0.14762 0.97616 0.18279 0.0
H95 H 0.13832 0.89117 0.12742 0.0
H96 H 0.15394 0.88994 0.09505 0.0
C97 C 0.14732 0.90576 0.10871 0.0
H98 H 0.12498 0.90863 0.10068 0.0
H99 H 0.0976 0.89491 0.16332 0.0
O100 O 0.26947 0.07131 0.15304 0.0
C101 C 0.17564 0.99554 0.19628 0.0
Co102 Co 0.18136 0.95936 0.35418 0.0
Co103 Co 0.16477 0.02161 0.36008 0.0
C104 C 0.1092 0.94549 0.37127 0.0
O105 O 0.13078 0.93484 0.36491 0.0
O106 O 0.11902 0.97869 0.37123 0.0
C107 C 0.17576 0.89254 0.36199 0.0
O108 O 0.1532 0.8897 0.38027 0.0
C109 C 0.13516 0.06493 0.38056 0.0
C110 C 0.16616 0.11563 0.35908 0.0
C111 C 0.13773 0.09788 0.37617 0.0
N112 N 0.16038 0.06299 0.36638 0.0
N113 N 0.17918 0.09363 0.35387 0.0
C114 C 0.10922 0.03576 0.39803 0.0
H115 H 0.12233 0.02202 0.40732 0.0
H116 H 0.09907 0.04663 0.41331 0.0
H117 H 0.08623 0.01592 0.38629 0.0
C118 C 0.24245 0.00595 0.38762 0.0
N119 N 0.2115 -0.00208 0.37576 0.0
N120 N 0.20597 0.02527 0.37762 0.0
C121 C 0.23378 0.05189 0.39068 0.0
C122 C 0.25773 0.04045 0.39747 0.0
C123 C 0.25868 0.9823 0.38695 0.0
H124 H 0.26419 0.97851 0.36647 0.0
H125 H 0.23917 0.95553 0.39482 0.0
H126 H 0.28396 0.99377 0.39828 0.0
O127 O 0.18394 0.97581 0.31858 0.0
O128 O 0.16821 0.01756 0.32139 0.0
H129 H 0.24412 0.10279 0.37671 0.0
H130 H 0.26061 0.10394 0.40918 0.0
C131 C 0.2383 0.08817 0.39542 0.0
H132 H 0.21303 0.08536 0.40329 0.0
H133 H 0.19982 0.0989 0.34085 0.0
O134 O 0.19516 0.92266 0.3512 0.0
C135 C 0.17679 -0.00192 0.30798 0.0
Co136 Co 0.0325 0.20948 0.35834 0.0
Co137 Co 0.96456 0.13338 0.36032 0.0
C138 C 0.03777 0.14847 0.37872 0.0
O139 O 0.05159 0.18193 0.37514 0.0
O140 O 0.00485 0.12702 0.37353 0.0
C141 C 0.09929 0.26114 0.34493 0.0
O142 O 0.0974 0.23159 0.33612 0.0
C143 C 0.91567 0.06133 0.38013 0.0
C144 C 0.87047 0.04219 0.35264 0.0
C145 C 0.88389 0.03098 0.37279 0.0
N146 N 0.92104 0.08873 0.36466 0.0
N147 N 0.89358 0.07723 0.34855 0.0
C148 C 0.94061 0.06455 0.40152 0.0
H149 H 0.95344 0.09189 0.41003 0.0
H150 H 0.92606 0.04433 0.41688 0.0
H151 H 0.96201 0.06017 0.39353 0.0
C152 C 0.98399 0.22857 0.38612 0.0
N153 N 0.99129 0.20434 0.37555 0.0
N154 N 0.9624 0.17239 0.37646 0.0
C155 C 0.93549 0.1754 0.38738 0.0
C156 C 0.94822 0.21126 0.39384 0.0
C157 C 0.01111 0.26754 0.38878 0.0
H158 H 0.03767 0.27083 0.39368 0.0
H159 H 0.00322 0.28048 0.40404 0.0
H160 H 0.0136 0.2811 0.36994 0.0
O161 O 0.02226 0.19426 0.32162 0.0
O162 O 0.97197 0.14169 0.32224 0.0
H163 H 0.87906 0.1537 0.3965 0.0
H164 H 0.89661 0.12366 0.40145 0.0
C165 C 0.89765 0.14509 0.3889 0.0
H166 H 0.8886 0.13364 0.36921 0.0
H167 H 0.89164 0.09274 0.33376 0.0
O168 O 0.0724 0.25906 0.3568 0.0
C169 C -0.00239 0.16722 0.30984 0.0
Co170 Co 0.77802 0.81255 0.34838 0.0
Co171 Co 0.85482 0.8252 0.35891 0.0
C172 C 0.83536 0.88066 0.37292 0.0
O173 O 0.80363 0.86039 0.36478 0.0
O174 O 0.85842 0.87042 0.37225 0.0
C175 C 0.71651 0.81713 0.35874 0.0
O176 O 0.73416 0.83292 0.38005 0.0
C177 C 0.93139 0.85645 0.36947 0.0
C178 C 0.93898 0.80949 0.37109 0.0
C179 C 0.95717 0.84653 0.37341 0.0
N180 N 0.89932 0.82669 0.36618 0.0
N181 N 0.90417 0.79872 0.36674 0.0
C182 C 0.93789 0.89349 0.36459 0.0
H183 H 0.91763 0.8927 0.3509 0.0
H184 H 0.93605 0.90527 0.38328 0.0
H185 H 0.96487 0.91092 0.35614 0.0
C186 C 0.75734 0.74523 0.37644 0.0
N187 N 0.78236 0.77714 0.367 0.0
N188 N 0.81434 0.78407 0.37454 0.0
C189 C 0.81038 0.75809 0.3912 0.0
C190 C 0.77396 0.73175 0.39262 0.0
C191 C 0.71895 0.72737 0.36797 0.0
H192 H 0.71692 0.73716 0.34848 0.0
H193 H 0.70347 0.73411 0.38184 0.0
H194 H 0.70707 0.69784 0.36704 0.0
O195 O 0.79659 0.81783 0.3136 0.0
O196 O 0.85071 0.82467 0.31956 0.0
H197 H 0.85156 0.74569 0.40034 0.0
H198 H 0.82951 0.75113 0.42815 0.0
C199 C 0.83996 0.76151 0.40843 0.0
H200 H 0.86145 0.78996 0.40998 0.0
H201 H 0.88405 0.77242 0.36309 0.0
O202 O 0.72858 0.80211 0.34387 0.0
C203 C 0.82605 0.82259 0.30464 0.0
Co204 Co 0.02789 0.81422 0.84823 0.0
Co205 Co 0.96401 0.82712 0.85921 0.0
C206 C 0.03895 0.88227 0.87315 0.0
O207 O 0.05024 0.86195 0.86482 0.0
O208 O 0.00568 0.87221 0.87257 0.0
C209 C 0.09392 0.8184 0.85845 0.0
O210 O 0.09229 0.83434 0.87976 0.0
C211 C 0.91882 0.85856 0.86913 0.0
C212 C 0.86419 0.81174 0.87094 0.0
C213 C 0.88312 0.84882 0.87275 0.0
N214 N 0.92105 0.82868 0.86646 0.0
N215 N 0.8882 0.80077 0.86717 0.0
C216 C 0.94946 0.89544 0.86393 0.0
H217 H 0.96894 0.89426 0.85047 0.0
H218 H 0.96305 0.90762 0.88256 0.0
H219 H 0.94003 0.91276 0.85511 0.0
C220 C 0.98091 0.74666 0.87583 0.0
N221 N 0.98803 0.77878 0.86676 0.0
N222 N 0.96333 0.78595 0.87472 0.0
C223 C 0.94148 0.76002 0.89147 0.0
C224 C 0.95117 0.73332 0.89244 0.0
C225 C 0.00069 0.72847 0.86635 0.0
H226 H 0.01251 0.73896 0.84696 0.0
H227 H 0.0229 0.73413 0.87996 0.0
H228 H 0.9825 0.69909 0.86473 0.0
O229 O 0.01463 0.81971 0.81354 0.0
O230 O 0.96741 0.82657 0.81983 0.0
H231 H 0.88826 0.74815 0.90136 0.0
H232 H 0.91649 0.75381 0.9288 0.0
C233 C 0.91591 0.76389 0.90908 0.0
H234 H 0.92308 0.79242 0.91049 0.0
H235 H 0.88196 0.77436 0.86392 0.0
O236 O 0.06679 0.80358 0.84361 0.0
C237 C 0.98988 0.8245 0.80477 0.0
Co238 Co 0.17251 0.21081 0.85838 0.0
Co239 Co 0.16426 0.13476 0.86072 0.0
C240 C 0.1062 0.15025 0.87882 0.0
O241 O 0.12595 0.1837 0.87531 0.0
O242 O 0.11757 0.12872 0.87364 0.0
C243 C 0.15773 0.26221 0.84404 0.0
O244 O 0.12989 0.23244 0.83571 0.0
C245 C 0.1405 0.06275 0.88081 0.0
C246 C 0.16678 0.04333 0.85374 0.0
C247 C 0.14179 0.03227 0.87366 0.0
N248 N 0.16291 0.09007 0.86543 0.0
N249 N 0.179 0.07841 0.84958 0.0
C250 C 0.11852 0.06616 0.90193 0.0
H251 H 0.13306 0.09348 0.91047 0.0
H252 H 0.11242 0.04588 0.91733 0.0
H253 H 0.09296 0.06201 0.89366 0.0
C254 C 0.24003 0.23011 0.88613 0.0
N255 N 0.20846 0.20577 0.87571 0.0
N256 N 0.20538 0.17382 0.87683 0.0
C257 C 0.2353 0.17693 0.88779 0.0
C258 C 0.25848 0.21286 0.89399 0.0
C259 C 0.25202 0.26915 0.88841 0.0
H260 H 0.22885 0.2726 0.89336 0.0
H261 H 0.27308 0.28236 0.90348 0.0
H262 H 0.26283 0.28232 0.86941 0.0
O263 O 0.16751 0.19517 0.8218 0.0
O264 O 0.1655 0.14275 0.82258 0.0
H265 H 0.24099 0.13536 0.86985 0.0
H266 H 0.26981 0.1552 0.89755 0.0
C267 C 0.24283 0.14662 0.88953 0.0
H268 H 0.22209 0.12506 0.90181 0.0
H269 H 0.19672 0.09383 0.83489 0.0
O270 O 0.18248 0.26038 0.8562 0.0
C271 C 0.16532 0.16818 0.81011 0.0
Co272 Co 0.77454 0.96393 0.84878 0.0
Co273 Co 0.85326 0.0254 0.85685 0.0
C274 C 0.83176 0.94901 0.86721 0.0
O275 O 0.79999 0.93881 0.85982 0.0
O276 O 0.85528 0.98212 0.86798 0.0
C277 C 0.71298 0.89768 0.85709 0.0
O278 O 0.7321 0.89598 0.87634 0.0
C279 C 0.92547 0.0678 0.87866 0.0
C280 C 0.946 0.11926 0.85807 0.0
C281 C 0.95605 0.10084 0.87502 0.0
N282 N 0.89883 0.06644 0.86417 0.0
N283 N 0.91115 0.09755 0.85221 0.0
C284 C 0.92155 0.03804 0.89578 0.0
H285 H 0.89447 0.02424 0.9047 0.0
H286 H 0.94217 0.04832 0.91134 0.0
H287 H 0.92482 0.01843 0.88383 0.0
C288 C 0.75921 0.00951 0.88293 0.0
N289 N 0.78233 0.00187 0.87091 0.0
N290 N 0.81526 0.02876 0.87385 0.0
C291 C 0.814 0.05463 0.88789 0.0
C292 C 0.77844 0.04326 0.89413 0.0
C293 C 0.71932 0.98622 0.8813 0.0
H294 H 0.71126 0.97991 0.86064 0.0
H295 H 0.71119 0.96051 0.89138 0.0
H296 H 0.70512 -0.00082 0.89007 0.0
O297 O 0.7897 0.98148 0.81354 0.0
O298 O 0.84728 0.02241 0.81796 0.0
H299 H 0.85623 0.10651 0.87706 0.0
H300 H 0.83947 0.10432 0.90959 0.0
C301 C 0.84611 0.08977 0.89479 0.0
H302 H 0.86768 0.08527 0.90232 0.0
H303 H 0.89623 0.10335 0.83915 0.0
O304 O 0.72418 0.92708 0.8451 0.0
C305 C 0.81976 0.00382 0.80381 0.0
Co306 Co 0.81472 0.03526 0.64387 0.0
Co307 Co 0.82714 0.97004 0.64156 0.0
C308 C 0.88463 0.04471 0.62646 0.0
O309 O 0.86402 0.0573 0.63064 0.0
O310 O 0.87365 0.01152 0.6297 0.0
C311 C 0.8224 0.10353 0.63727 0.0
O312 O 0.84674 0.10759 0.62014 0.0
C313 C 0.85287 0.92413 0.62025 0.0
C314 C 0.82636 0.87659 0.64557 0.0
C315 C 0.85149 0.89201 0.62588 0.0
N316 N 0.83014 0.92783 0.63614 0.0
N317 N 0.81395 0.89903 0.65098 0.0
C318 C 0.87541 0.9509 0.60006 0.0
H319 H 0.8611 0.96422 0.59206 0.0
H320 H 0.88203 0.93779 0.58412 0.0
H321 H 0.90075 0.97161 0.60904 0.0
C322 C 0.75053 0.987 0.61362 0.0
N323 N 0.78198 0.99505 0.62463 0.0
N324 N 0.78598 0.96671 0.62417 0.0
C325 C 0.75666 0.93933 0.61296 0.0
C326 C 0.73299 0.95122 0.60603 0.0
C327 C 0.73737 0.01312 0.6112 0.0
H328 H 0.76002 0.03999 0.60617 0.0
H329 H 0.71624 0.00455 0.59611 0.0
H330 H 0.72631 0.01525 0.63016 0.0
O331 O 0.8147 0.02191 0.68027 0.0
O332 O 0.82475 0.97615 0.67993 0.0
H333 H 0.7235 0.88293 0.60318 0.0
H334 H 0.7715 0.90109 0.60071 0.0
C335 C 0.74984 0.90171 0.61197 0.0
H336 H 0.75057 0.89263 0.63199 0.0
H337 H 0.79581 0.89553 0.66568 0.0
O338 O 0.80181 0.07268 0.64666 0.0
C339 C 0.81951 -0.00114 0.69218 0.0
Co340 Co 0.95779 0.78272 0.64529 0.0
Co341 Co 0.02524 0.8589 0.64227 0.0
C342 C 0.9519 0.8426 0.62319 0.0
O343 O 0.93842 0.80936 0.62761 0.0
O344 O 0.98479 0.86456 0.62816 0.0
C345 C 0.89153 0.73128 0.6595 0.0
O346 O 0.89312 0.76105 0.66745 0.0
C347 C 0.07438 0.93102 0.6227 0.0
C348 C 0.11983 0.94942 0.64988 0.0
C349 C 0.10633 0.96105 0.63006 0.0
N350 N 0.06891 0.90332 0.63783 0.0
N351 N 0.09653 0.91437 0.65374 0.0
C352 C 0.04919 0.92864 0.60178 0.0
H353 H 0.02798 0.9328 0.61039 0.0
H354 H 0.0362 0.90163 0.59271 0.0
H355 H 0.06356 0.94945 0.58674 0.0
C356 C 0.00625 0.7632 0.6181 0.0
N357 N -0.00102 0.78757 0.6284 0.0
N358 N 0.02774 0.81956 0.62707 0.0
C359 C 0.05457 0.81645 0.61612 0.0
C360 C 0.0419 0.78046 0.61011 0.0
C361 C 0.97912 0.72419 0.6157 0.0
H362 H 0.95252 0.72083 0.61085 0.0
H363 H 0.98687 0.71106 0.60049 0.0
H364 H 0.9768 0.71086 0.63461 0.0
O365 O 0.96781 0.79908 0.68173 0.0
O366 O 0.01764 0.85192 0.68044 0.0
H367 H 0.11072 0.83837 0.60593 0.0
H368 H 0.0928 0.86822 0.60165 0.0
C369 C 0.09229 0.84688 0.614 0.0
H370 H 0.10199 0.85838 0.63358 0.0
H371 H 0.09842 0.89856 0.66832 0.0
O372 O 0.91835 0.73314 0.64769 0.0
C373 C 0.99218 0.82668 0.69314 0.0
Co374 Co 0.21367 0.17989 0.65383 0.0
Co375 Co 0.13722 0.16853 0.64458 0.0
C376 C 0.15507 0.11151 0.6313 0.0
O377 O 0.18752 0.13196 0.63781 0.0
O378 O 0.13229 0.12203 0.63308 0.0
C379 C 0.27481 0.17464 0.64336 0.0
O380 O 0.25682 0.1583 0.62229 0.0
C381 C 0.06556 0.14307 0.62299 0.0
C382 C 0.04711 0.17447 0.64539 0.0
C383 C 0.03558 0.14623 0.62798 0.0
N384 N 0.0931 0.16746 0.63733 0.0
N385 N 0.08209 0.18671 0.65024 0.0
C386 C 0.06817 0.11759 0.6046 0.0
H387 H 0.0634 0.09342 0.61542 0.0
H388 H 0.09537 0.13021 0.5959 0.0
H389 H 0.04778 0.10935 0.58897 0.0
C390 C 0.23425 0.24747 0.62605 0.0
N391 N 0.20946 0.21522 0.63509 0.0
N392 N 0.17735 0.20884 0.6285 0.0
C393 C 0.18073 0.2358 0.61322 0.0
C394 C 0.21722 0.26193 0.61124 0.0
C395 C 0.27269 0.26517 0.63443 0.0
H396 H 0.27483 0.25466 0.65359 0.0
H397 H 0.28821 0.25906 0.62015 0.0
H398 H 0.28448 0.29463 0.63608 0.0
O399 O 0.19561 0.17538 0.68885 0.0
O400 O 0.14227 0.17076 0.68378 0.0
H401 H 0.13848 0.2482 0.61158 0.0
H402 H 0.15773 0.24811 0.58031 0.0
C403 C 0.14955 0.23467 0.59948 0.0
H404 H 0.12812 0.20651 0.59638 0.0
H405 H 0.09786 0.20679 0.66353 0.0
O406 O 0.263 0.19006 0.65806 0.0
C407 C 0.16695 0.1721 0.6983 0.0
Co408 Co 0.63114 0.51717 0.49655 0.0
Co409 Co 0.69265 0.50178 0.48253 0.0
C410 C 0.6171 0.44835 0.47077 0.0
O411 O 0.60712 0.46887 0.48081 0.0
O412 O 0.65015 0.45798 0.46905 0.0
C413 C 0.56655 0.51528 0.48632 0.0
O414 O 0.56905 0.50076 0.46453 0.0
C415 C 0.73501 0.46792 0.47051 0.0
C416 C 0.79014 0.51353 0.46677 0.0
C417 C 0.77011 0.47642 0.46535 0.0
N418 N 0.73424 0.49853 0.47371 0.0
N419 N 0.76739 0.52568 0.47187 0.0
C420 C 0.70379 0.43169 0.47663 0.0
H421 H 0.68608 0.43409 0.49116 0.0
H422 H 0.68812 0.41964 0.45864 0.0
H423 H 0.7128 0.41359 0.48462 0.0
C424 C 0.67759 0.58399 0.4679 0.0
N425 N 0.67031 0.55179 0.47695 0.0
N426 N 0.69413 0.54387 0.46809 0.0
C427 C 0.71551 0.56948 0.45097 0.0
C428 C 0.7065 0.59664 0.45063 0.0
C429 C 0.65859 0.60283 0.47766 0.0
H430 H 0.64772 0.59313 0.49739 0.0
H431 H 0.63578 0.59687 0.46458 0.0
H432 H 0.67702 0.63223 0.47854 0.0
O433 O 0.64579 0.51165 0.53064 0.0
O434 O 0.69016 0.50094 0.52207 0.0
H435 H 0.76774 0.58011 0.43925 0.0
H436 H 0.73837 0.5753 0.41286 0.0
C437 C 0.73965 0.56492 0.43232 0.0
H438 H 0.73168 0.5362 0.43057 0.0
H439 H 0.77476 0.55239 0.47521 0.0
O440 O 0.5929 0.52858 0.50191 0.0
C441 C 0.66954 0.50453 0.53814 0.0
Co442 Co 0.48695 0.11556 0.47508 0.0
Co443 Co 0.49776 0.19285 0.47084 0.0
C444 C 0.55287 0.17418 0.45137 0.0
O445 O 0.53294 0.14135 0.45706 0.0
O446 O 0.54251 0.1968 0.45545 0.0
C447 C 0.50088 0.06381 0.4898 0.0
O448 O 0.52945 0.09362 0.49719 0.0
C449 C 0.52874 0.27051 0.46288 0.0
C450 C 0.48275 0.27853 0.4702 0.0
C451 C 0.51879 0.29669 0.4636 0.0
N452 N 0.49955 0.23833 0.46745 0.0
N453 N 0.47239 0.24355 0.47243 0.0
C454 C 0.56611 0.2765 0.46304 0.0
H455 H 0.56751 0.25625 0.47546 0.0
H456 H 0.57387 0.27416 0.4429 0.0
H457 H 0.58556 0.3033 0.47087 0.0
C458 C 0.41892 0.09637 0.44874 0.0
N459 N 0.45078 0.12105 0.45857 0.0
N460 N 0.45523 0.15337 0.45519 0.0
C461 C 0.42639 0.14998 0.44206 0.0
C462 C 0.40208 0.11369 0.4381 0.0
C463 C 0.4055 0.05691 0.44914 0.0
H464 H 0.42689 0.05179 0.44212 0.0
H465 H 0.38133 0.04187 0.4368 0.0
H466 H 0.39907 0.04709 0.46944 0.0
O467 O 0.49412 0.1321 0.5111 0.0
O468 O 0.49923 0.18578 0.50923 0.0
H469 H 0.40607 0.18549 0.44866 0.0
H470 H 0.40652 0.17463 0.41529 0.0
C471 C 0.4217 0.18064 0.43371 0.0
H472 H 0.44812 0.20503 0.43082 0.0
H473 H 0.44719 0.22354 0.47863 0.0
O474 O 0.47599 0.06571 0.4779 0.0
C475 C 0.49873 0.16036 0.5222 0.0
Co476 Co 0.88192 0.36408 0.48258 0.0
Co477 Co 0.8036 0.30092 0.47694 0.0
C478 C 0.82218 0.37631 0.46581 0.0
O479 O 0.85458 0.38733 0.47191 0.0
O480 O 0.79916 0.34301 0.46586 0.0
C481 C 0.94187 0.43192 0.47443 0.0
O482 O 0.92161 0.43397 0.45622 0.0
C483 C 0.73306 0.25586 0.45375 0.0
C484 C 0.71092 0.20704 0.47778 0.0
C485 C 0.70214 0.22328 0.4581 0.0
N486 N 0.75853 0.25902 0.4704 0.0
N487 N 0.74532 0.22946 0.48444 0.0
C488 C 0.73873 0.28336 0.43377 0.0
H489 H 0.76696 0.29714 0.42694 0.0
H490 H 0.72036 0.27085 0.41702 0.0
H491 H 0.73328 0.3036 0.44263 0.0
C492 C 0.89732 0.31795 0.44905 0.0
N493 N 0.87424 0.32557 0.46115 0.0
N494 N 0.84149 0.29809 0.45923 0.0
C495 C 0.84281 0.2718 0.44578 0.0
C496 C 0.87826 0.28353 0.43885 0.0
C497 C 0.93717 0.34194 0.44986 0.0
H498 H 0.94587 0.34959 0.47029 0.0
H499 H 0.94446 0.36692 0.43901 0.0
H500 H 0.95155 0.32894 0.44145 0.0
O501 O 0.86853 0.34784 0.51828 0.0
O502 O 0.81125 0.3054 0.51571 0.0
H503 H 0.80067 0.22097 0.45865 0.0
H504 H 0.81752 0.22012 0.4266 0.0
C505 C 0.81084 0.23595 0.44018 0.0
H506 H 0.78923 0.2396 0.43163 0.0
H507 H 0.75929 0.22525 0.49929 0.0
O508 O 0.93206 0.40199 0.48527 0.0
C509 C 0.83929 0.32539 0.52902 0.0
Co510 Co 0.8465 0.29417 0.68749 0.0
Co511 Co 0.83183 0.35778 0.69245 0.0
C512 C 0.77513 0.28235 0.70469 0.0
O513 O 0.79634 0.27103 0.69885 0.0
O514 O 0.78544 0.31566 0.70393 0.0
C515 C 0.83907 0.2261 0.69392 0.0
O516 O 0.81478 0.22205 0.7111 0.0
C517 C 0.80665 0.40294 0.71598 0.0
C518 C 0.8325 0.45143 0.69156 0.0
C519 C 0.808 0.43537 0.71158 0.0
N520 N 0.82862 0.39968 0.69904 0.0
N521 N 0.84448 0.42906 0.68477 0.0
C522 C 0.78528 0.37563 0.7362 0.0
H523 H 0.79986 0.36187 0.74278 0.0
H524 H 0.77984 0.38831 0.75305 0.0
H525 H 0.75937 0.35537 0.72765 0.0
C526 C 0.9086 0.34071 0.72009 0.0
N527 N 0.87762 0.33297 0.70841 0.0
N528 N 0.87288 0.36083 0.70981 0.0
C529 C 0.9013 0.38757 0.72228 0.0
C530 C 0.92478 0.37562 0.72927 0.0
C531 C 0.92401 0.31633 0.71977 0.0
H532 H 0.9296 0.31226 0.69938 0.0
H533 H 0.90398 0.28977 0.72764 0.0
H534 H 0.94914 0.32738 0.73125 0.0
O535 O 0.84851 0.30986 0.65169 0.0
O536 O 0.83462 0.353 0.65371 0.0
H537 H 0.90969 0.43723 0.70701 0.0
H538 H 0.93091 0.44121 0.73816 0.0
C539 C 0.90674 0.42436 0.72621 0.0
H540 H 0.8828 0.42243 0.73586 0.0
H541 H 0.86228 0.43314 0.66966 0.0
O542 O 0.8596 0.25693 0.68449 0.0
C543 C 0.84212 0.3324 0.64066 0.0
Co544 Co 0.70071 0.54347 0.69661 0.0
Co545 Co 0.63412 0.46623 0.70072 0.0
C546 C 0.70793 0.4845 0.71982 0.0
O547 O 0.72081 0.51736 0.71427 0.0
O548 O 0.6749 0.46196 0.71585 0.0
C549 C 0.76671 0.59527 0.68248 0.0
O550 O 0.76532 0.56555 0.67462 0.0
C551 C 0.58736 0.38852 0.70844 0.0
C552 C 0.53338 0.38052 0.70105 0.0
C553 C 0.55124 0.36234 0.7076 0.0
N554 N 0.59037 0.42073 0.70397 0.0
N555 N 0.558 0.41553 0.69895 0.0
C556 C 0.61874 0.38253 0.70826 0.0
H557 H 0.64029 0.40265 0.69571 0.0
H558 H 0.62899 0.38512 0.72838 0.0
H559 H 0.61137 0.35565 0.70058 0.0
C560 C 0.65203 0.56272 0.72309 0.0
N561 N 0.65914 0.53799 0.71327 0.0
N562 N 0.63118 0.50571 0.71656 0.0
C563 C 0.6057 0.50918 0.72959 0.0
C564 C 0.61778 0.54549 0.73359 0.0
C565 C 0.67815 0.60216 0.72271 0.0
H566 H 0.70459 0.60721 0.72983 0.0
H567 H 0.66902 0.61726 0.73498 0.0
H568 H 0.68169 0.61198 0.7024 0.0
O569 O 0.69126 0.52732 0.66048 0.0
O570 O 0.64266 0.47362 0.66236 0.0
H571 H 0.54992 0.47399 0.72257 0.0
H572 H 0.56079 0.48452 0.75603 0.0
C573 C 0.57014 0.47859 0.73766 0.0
H574 H 0.57197 0.45408 0.74052 0.0
H575 H 0.55284 0.43557 0.69281 0.0
O576 O 0.7398 0.59327 0.69425 0.0
C577 C 0.66752 0.4991 0.64938 0.0
Co578 Co 0.44364 0.14164 0.67473 0.0
Co579 Co 0.52039 0.15726 0.68909 0.0
C580 C 0.4981 0.21068 0.70043 0.0
O581 O 0.46767 0.19008 0.69033 0.0
O582 O 0.52155 0.20111 0.70233 0.0
C583 C 0.38082 0.14351 0.68391 0.0
O584 O 0.39752 0.15854 0.70569 0.0
C585 C 0.59649 0.19111 0.70118 0.0
C586 C 0.60585 0.14547 0.70549 0.0
C587 C 0.62301 0.1826 0.70657 0.0
N588 N 0.56507 0.1605 0.69817 0.0
N589 N 0.57097 0.13331 0.70036 0.0
C590 C 0.60156 0.22726 0.69464 0.0
H591 H 0.58134 0.22462 0.68014 0.0
H592 H 0.59819 0.23974 0.71249 0.0
H593 H 0.62861 0.24511 0.68646 0.0
C594 C 0.42304 0.07539 0.70421 0.0
N595 N 0.44804 0.10725 0.69469 0.0
N596 N 0.47977 0.11529 0.70361 0.0
C597 C 0.4755 0.09012 0.72116 0.0
C598 C 0.43929 0.06315 0.72178 0.0
C599 C 0.38502 0.05652 0.69484 0.0
H600 H 0.38363 0.06531 0.67484 0.0
H601 H 0.36866 0.06344 0.70768 0.0
H602 H 0.37366 0.02703 0.69477 0.0
O603 O 0.4641 0.14707 0.64075 0.0
O604 O 0.51918 0.15805 0.64955 0.0
H605 H 0.51696 0.07959 0.73342 0.0
H606 H 0.49245 0.08511 0.75951 0.0
C607 C 0.50415 0.09504 0.73998 0.0
H608 H 0.52495 0.12376 0.74144 0.0
H609 H 0.55159 0.10659 0.69721 0.0
O610 O 0.39408 0.12986 0.66885 0.0
C611 C 0.49505 0.15433 0.63338 0.0
Co612 Co 0.69329 0.14245 0.17511 0.0
Co613 Co 0.63192 0.15823 0.18899 0.0
C614 C 0.70776 0.21218 0.19951 0.0
O615 O 0.71756 0.19138 0.18975 0.0
O616 O 0.67474 0.20253 0.20159 0.0
C617 C 0.75874 0.14565 0.18445 0.0
O618 O 0.75719 0.1614 0.20589 0.0
C619 C 0.59001 0.19284 0.20002 0.0
C620 C 0.53478 0.14763 0.20433 0.0
C621 C 0.555 0.18477 0.20496 0.0
N622 N 0.59057 0.162 0.19768 0.0
N623 N 0.55735 0.13507 0.19988 0.0
C624 C 0.6213 0.22871 0.19317 0.0
H625 H 0.63866 0.22557 0.17873 0.0
H626 H 0.63731 0.24137 0.21093 0.0
H627 H 0.61237 0.24665 0.18478 0.0
C628 C 0.64769 0.07679 0.20509 0.0
N629 N 0.65469 0.10866 0.19552 0.0
N630 N 0.63081 0.11665 0.20413 0.0
C631 C 0.60959 0.09139 0.22152 0.0
C632 C 0.61887 0.06447 0.22237 0.0
C633 C 0.66677 0.05782 0.19577 0.0
H634 H 0.67721 0.06674 0.17584 0.0
H635 H 0.68989 0.06453 0.20873 0.0
H636 H 0.64854 0.02836 0.19555 0.0
O637 O 0.67753 0.14628 0.14103 0.0
O638 O 0.6335 0.15754 0.14949 0.0
H639 H 0.55711 0.08042 0.23282 0.0
H640 H 0.58639 0.086 0.25946 0.0
C641 C 0.58514 0.09599 0.23984 0.0
H642 H 0.59282 0.12466 0.24124 0.0
H643 H 0.54978 0.10821 0.19711 0.0
O644 O 0.73154 0.13104 0.16966 0.0
C645 C 0.65356 0.15303 0.13347 0.0
Co646 Co 0.83982 0.54554 0.19301 0.0
Co647 Co 0.8284 0.46798 0.19735 0.0
C648 C 0.77289 0.48669 0.21564 0.0
O649 O 0.7931 0.51951 0.21008 0.0
O650 O 0.78322 0.46398 0.21191 0.0
C651 C 0.82607 0.59759 0.17872 0.0
O652 O 0.79816 0.56798 0.17027 0.0
C653 C 0.79693 0.39028 0.20548 0.0
C654 C 0.84272 0.38187 0.19838 0.0
C655 C 0.80667 0.36395 0.20494 0.0
N656 N 0.82624 0.42233 0.20083 0.0
N657 N 0.85329 0.41688 0.19599 0.0
C658 C 0.75964 0.38449 0.20524 0.0
H659 H 0.75826 0.40434 0.19234 0.0
H660 H 0.75216 0.38771 0.22527 0.0
H661 H 0.73996 0.35746 0.19792 0.0
C662 C 0.90691 0.56394 0.22057 0.0
N663 N 0.87521 0.53954 0.21035 0.0
N664 N 0.87043 0.50709 0.2137 0.0
C665 C 0.89885 0.51008 0.22718 0.0
C666 C 0.92328 0.54626 0.23142 0.0
C667 C 0.92075 0.60346 0.22018 0.0
H668 H 0.89939 0.60886 0.22682 0.0
H669 H 0.94464 0.61823 0.23282 0.0
H670 H 0.92778 0.61336 0.19993 0.0
O671 O 0.8342 0.52969 0.1568 0.0
O672 O 0.82863 0.47579 0.15896 0.0
H673 H 0.91807 0.48478 0.2539 0.0
H674 H 0.87664 0.45483 0.23799 0.0
C675 C 0.90319 0.47915 0.23538 0.0
H676 H 0.91892 0.47438 0.22047 0.0
H677 H 0.87858 0.43678 0.18985 0.0
O678 O 0.8507 0.59547 0.19082 0.0
C679 C 0.82997 0.50149 0.14582 0.0
Co680 Co 0.44397 0.29765 0.18449 0.0
Co681 Co 0.52196 0.36104 0.19098 0.0
C682 C 0.50368 0.28554 0.2015 0.0
O683 O 0.4714 0.27445 0.19501 0.0
O684 O 0.52653 0.3189 0.20185 0.0
C685 C 0.38412 0.22994 0.19277 0.0
O686 O 0.40434 0.22824 0.21117 0.0
C687 C 0.59252 0.40607 0.21424 0.0
C688 C 0.61446 0.45503 0.19038 0.0
C689 C 0.62347 0.43861 0.20979 0.0
N690 N 0.56685 0.40308 0.19786 0.0
N691 N 0.57994 0.43274 0.18395 0.0
C692 C 0.5871 0.37833 0.23394 0.0
H693 H 0.55895 0.36448 0.24096 0.0
H694 H 0.60568 0.39065 0.25061 0.0
H695 H 0.59244 0.35821 0.22475 0.0
C696 C 0.42757 0.34252 0.21847 0.0
N697 N 0.45105 0.33542 0.20643 0.0
N698 N 0.48362 0.36319 0.20855 0.0
C699 C 0.48169 0.38919 0.22193 0.0
C700 C 0.44612 0.37686 0.22872 0.0
C701 C 0.38781 0.31812 0.21776 0.0
H702 H 0.37851 0.31428 0.19729 0.0
H703 H 0.38119 0.29147 0.2255 0.0
H704 H 0.37351 0.32898 0.2292 0.0
O705 O 0.45759 0.31485 0.14896 0.0
O706 O 0.51479 0.35733 0.1522 0.0
H707 H 0.52318 0.43978 0.20816 0.0
H708 H 0.50546 0.44175 0.23963 0.0
C709 C 0.51297 0.42569 0.22694 0.0
H710 H 0.53485 0.42315 0.23623 0.0
H711 H 0.56585 0.43704 0.16924 0.0
O712 O 0.39399 0.25963 0.18153 0.0
C713 C 0.48695 0.33771 0.1386 0.0
Co714 Co 0.4799 0.36893 0.97914 0.0
Co715 Co 0.49343 0.30443 0.9759 0.0
C716 C 0.55062 0.37945 0.96212 0.0
O717 O 0.52977 0.39167 0.96664 0.0
O718 O 0.53982 0.3462 0.96464 0.0
C719 C 0.48715 0.43686 0.97153 0.0
O720 O 0.51056 0.4401 0.95384 0.0
C721 C 0.51967 0.2594 0.95383 0.0
C722 C 0.49237 0.21065 0.9779 0.0
C723 C 0.51793 0.22691 0.95856 0.0
N724 N 0.4968 0.26254 0.96992 0.0
N725 N 0.48009 0.23302 0.98399 0.0
C726 C 0.54221 0.28677 0.93396 0.0
H727 H 0.5279 0.30034 0.92641 0.0
H728 H 0.54878 0.27414 0.91766 0.0
H729 H 0.56757 0.30719 0.94309 0.0
C730 C 0.41711 0.32123 0.9471 0.0
N731 N 0.44794 0.32914 0.95912 0.0
N732 N 0.45273 0.30129 0.95808 0.0
C733 C 0.42472 0.2745 0.94532 0.0
C734 C 0.40119 0.28625 0.93791 0.0
C735 C 0.40177 0.34569 0.947 0.0
H736 H 0.40072 0.35411 0.96721 0.0
H737 H 0.41979 0.3702 0.9358 0.0
H738 H 0.37446 0.33274 0.93851 0.0
O739 O 0.47903 0.35471 0.0154 0.0
O740 O 0.49037 0.30979 0.01437 0.0
H741 H 0.41539 0.22404 0.95958 0.0
H742 H 0.39771 0.222 0.92734 0.0
C743 C 0.42033 0.23823 0.94074 0.0
H744 H 0.44541 0.24115 0.93241 0.0
H745 H 0.46149 0.22884 0.9985 0.0
O746 O 0.46701 0.40643 0.9817 0.0
C747 C 0.48431 0.33173 0.02695 0.0
Co748 Co 0.62295 0.11603 0.97355 0.0
Co749 Co 0.6905 0.19234 0.97199 0.0
C750 C 0.61759 0.17679 0.95258 0.0
O751 O 0.604 0.14339 0.95633 0.0
O752 O 0.65042 0.19852 0.9579 0.0
C753 C 0.55659 0.06466 0.98714 0.0
O754 O 0.55832 0.0945 0.99507 0.0
C755 C 0.74025 0.2652 0.95402 0.0
C756 C 0.78485 0.28241 0.98186 0.0
C757 C 0.77199 0.29489 0.96217 0.0
N758 N 0.73432 0.23686 0.96859 0.0
N759 N 0.76143 0.24722 0.9849 0.0
C760 C 0.71569 0.26369 0.93291 0.0
H761 H 0.70293 0.23704 0.9233 0.0
H762 H 0.73052 0.28507 0.91833 0.0
H763 H 0.69427 0.26756 0.94146 0.0
C764 C 0.67221 0.09736 0.94658 0.0
N765 N 0.66456 0.12143 0.95697 0.0
N766 N 0.69334 0.15346 0.95629 0.0
C767 C 0.72056 0.15068 0.94569 0.0
C768 C 0.70812 0.11488 0.93922 0.0
C769 C 0.64527 0.05838 0.94367 0.0
H770 H 0.61869 0.05499 0.93868 0.0
H771 H 0.65341 0.04571 0.92836 0.0
H772 H 0.64269 0.04463 0.96243 0.0
O773 O 0.63227 0.13117 0.01025 0.0
O774 O 0.68192 0.18416 0.00992 0.0
H775 H 0.76739 0.19171 0.96437 0.0
H776 H 0.77705 0.17297 0.9364 0.0
C777 C 0.75836 0.18114 0.94449 0.0
H778 H 0.75934 0.20308 0.93258 0.0
H779 H 0.76284 0.23081 0.99921 0.0
O780 O 0.58337 0.06641 0.97534 0.0
C781 C 0.65628 0.15847 0.02217 0.0
Co782 Co 0.87932 0.5131 0.99 0.0
Co783 Co 0.80305 0.50206 0.9802 0.0
C784 C 0.82096 0.44536 0.96629 0.0
O785 O 0.85322 0.46555 0.97336 0.0
O786 O 0.79816 0.45588 0.96798 0.0
C787 C 0.94057 0.50826 0.97896 0.0
O788 O 0.9227 0.49283 0.95764 0.0
C789 C 0.73153 0.4775 0.95861 0.0
C790 C 0.7135 0.509 0.98134 0.0
C791 C 0.70171 0.4809 0.96378 0.0
N792 N 0.75918 0.50157 0.97302 0.0
N793 N 0.74844 0.52091 0.98611 0.0
C794 C 0.73389 0.45204 0.94006 0.0
H795 H 0.72915 0.42781 0.95078 0.0
H796 H 0.76102 0.46462 0.93125 0.0
H797 H 0.7134 0.44393 0.92452 0.0
C798 C 0.90037 0.58142 0.9629 0.0
N799 N 0.87546 0.54897 0.97159 0.0
N800 N 0.84347 0.54269 0.96478 0.0
C801 C 0.84705 0.56989 0.9497 0.0
C802 C 0.88353 0.59613 0.94811 0.0
C803 C 0.93872 0.59893 0.97147 0.0
H804 H 0.94068 0.58793 0.99048 0.0
H805 H 0.9544 0.59319 0.95708 0.0
H806 H 0.95046 0.62834 0.97349 0.0
O807 O 0.86075 0.50776 0.02497 0.0
O808 O 0.80751 0.50322 0.01939 0.0
H809 H 0.80465 0.58207 0.94773 0.0
H810 H 0.8246 0.58258 0.91662 0.0
C811 C 0.81608 0.56883 0.93567 0.0
H812 H 0.79482 0.54068 0.93226 0.0
H813 H 0.76434 0.54079 0.99949 0.0
O814 O 0.92859 0.52294 0.99425 0.0
C815 C 0.83183 0.5042 0.03413 0.0
Co816 Co 0.29629 0.85095 0.82805 0.0
Co817 Co 0.35813 0.83577 0.81467 0.0
C818 C 0.28276 0.78228 0.80235 0.0
O819 O 0.27249 0.80269 0.81219 0.0
O820 O 0.31585 0.79198 0.80101 0.0
C821 C 0.2311 0.84834 0.8185 0.0
O822 O 0.23272 0.8329 0.79692 0.0
C823 C 0.4008 0.80219 0.80296 0.0
C824 C 0.45585 0.84798 0.79937 0.0
C825 C 0.43597 0.81087 0.79791 0.0
N826 N 0.39986 0.83272 0.80613 0.0
N827 N 0.43296 0.85998 0.80438 0.0
C828 C 0.36964 0.7659 0.80905 0.0
H829 H 0.35172 0.76823 0.82342 0.0
H830 H 0.35418 0.75372 0.791 0.0
H831 H 0.37871 0.74795 0.81723 0.0
C832 C 0.34273 0.91757 0.79902 0.0
N833 N 0.3356 0.88562 0.80854 0.0
N834 N 0.35961 0.87772 0.80004 0.0
C835 C 0.38102 0.90308 0.78279 0.0
C836 C 0.3718 0.93004 0.78194 0.0
C837 C 0.3232 0.93627 0.80793 0.0
H838 H 0.31224 0.92716 0.82772 0.0
H839 H 0.30043 0.92954 0.79461 0.0
H840 H 0.3413 0.96576 0.8083 0.0
O841 O 0.31063 0.84526 0.86228 0.0
O842 O 0.3553 0.8349 0.85414 0.0
H843 H 0.43332 0.91366 0.7713 0.0
H844 H 0.40404 0.90848 0.74478 0.0
C845 C 0.40525 0.89833 0.76435 0.0
H846 H 0.39732 0.86961 0.76281 0.0
H847 H 0.44019 0.88664 0.80773 0.0
O848 O 0.25811 0.86242 0.83348 0.0
C849 C 0.33436 0.83826 0.87002 0.0
Co850 Co 0.15453 0.44976 0.80609 0.0
Co851 Co 0.16523 0.52699 0.80162 0.0
C852 C 0.22082 0.50877 0.78282 0.0
O853 O 0.20086 0.47594 0.7885 0.0
O854 O 0.2103 0.53132 0.7866 0.0
C855 C 0.16872 0.39804 0.82057 0.0
O856 O 0.19695 0.42781 0.82845 0.0
C857 C 0.19573 0.6046 0.79384 0.0
C858 C 0.14937 0.6121 0.80095 0.0
C859 C 0.18546 0.63055 0.79453 0.0
N860 N 0.16668 0.57228 0.79826 0.0
N861 N 0.13929 0.57718 0.80312 0.0
C862 C 0.23322 0.6109 0.79417 0.0
H863 H 0.23471 0.59073 0.80663 0.0
H864 H 0.2412 0.60865 0.77408 0.0
H865 H 0.25246 0.63774 0.80205 0.0
C866 C 0.08656 0.43047 0.77953 0.0
N867 N 0.11845 0.45517 0.78931 0.0
N868 N 0.12299 0.48748 0.78576 0.0
C869 C 0.09424 0.4841 0.7725 0.0
C870 C 0.06983 0.44781 0.76869 0.0
C871 C 0.0729 0.39099 0.78027 0.0
H872 H 0.09408 0.38557 0.77322 0.0
H873 H 0.04855 0.37585 0.76813 0.0
H874 H 0.06672 0.38154 0.80066 0.0
O875 O 0.16117 0.46608 0.84215 0.0
O876 O 0.16634 0.51979 0.84001 0.0
H877 H 0.07366 0.51953 0.77851 0.0
H878 H 0.07504 0.50877 0.74523 0.0
C879 C 0.08972 0.51476 0.76387 0.0
H880 H 0.11619 0.53918 0.76124 0.0
H881 H 0.1141 0.55697 0.80918 0.0
O882 O 0.14388 0.39996 0.80861 0.0
C883 C 0.1657 0.4944 0.85312 0.0
Co884 Co 0.5495 0.70044 0.81509 0.0
Co885 Co 0.47133 0.63665 0.81053 0.0
C886 C 0.48924 0.71177 0.79863 0.0
O887 O 0.52183 0.72321 0.80436 0.0
O888 O 0.46644 0.67841 0.7992 0.0
C889 C 0.60921 0.7681 0.80596 0.0
O890 O 0.58858 0.76964 0.78781 0.0
C891 C 0.40107 0.59102 0.78716 0.0
C892 C 0.3785 0.54285 0.81191 0.0
C893 C 0.37006 0.55859 0.79166 0.0
N894 N 0.42628 0.59459 0.80422 0.0
N895 N 0.41281 0.56541 0.81871 0.0
C896 C 0.40705 0.61803 0.76667 0.0
H897 H 0.43543 0.63178 0.76018 0.0
H898 H 0.38906 0.60506 0.7498 0.0
H899 H 0.40127 0.63836 0.77491 0.0
C900 C 0.56491 0.65388 0.78224 0.0
N901 N 0.54175 0.66167 0.79403 0.0
N902 N 0.50916 0.63377 0.79281 0.0
C903 C 0.51074 0.60697 0.78034 0.0
C904 C 0.54611 0.61889 0.77317 0.0
C905 C 0.60469 0.67824 0.78244 0.0
H906 H 0.61436 0.68304 0.80284 0.0
H907 H 0.61121 0.70452 0.77401 0.0
H908 H 0.61877 0.66681 0.77139 0.0
O909 O 0.53666 0.68478 0.851 0.0
O910 O 0.47954 0.64174 0.84918 0.0
H911 H 0.46962 0.55741 0.79587 0.0
H912 H 0.48657 0.5532 0.76466 0.0
C913 C 0.47937 0.57014 0.77661 0.0
H914 H 0.45727 0.57199 0.76704 0.0
H915 H 0.42653 0.56158 0.83393 0.0
O916 O 0.5996 0.73849 0.81725 0.0
C917 C 0.50778 0.66227 0.86212 0.0
Co918 Co 0.51551 0.63 0.02004 0.0
Co919 Co 0.5001 0.69303 0.02588 0.0
C920 C 0.4434 0.61745 0.03674 0.0
O921 O 0.46487 0.60653 0.03063 0.0
O922 O 0.45361 0.65074 0.03677 0.0
C923 C 0.5077 0.56187 0.02693 0.0
O924 O 0.48421 0.55863 0.04456 0.0
C925 C 0.47412 0.73774 0.04903 0.0
C926 C 0.50099 0.78677 0.02522 0.0
C927 C 0.47571 0.7703 0.04472 0.0
N928 N 0.49671 0.73481 0.03252 0.0
N929 N 0.51318 0.76449 0.01862 0.0
C930 C 0.45206 0.71003 0.06883 0.0
H931 H 0.42652 0.68984 0.05976 0.0
H932 H 0.46648 0.69626 0.07572 0.0
H933 H 0.44592 0.72235 0.08556 0.0
C934 C 0.57685 0.67607 0.05371 0.0
N935 N 0.54616 0.66843 0.0416 0.0
N936 N 0.5408 0.69585 0.0436 0.0
C937 C 0.56834 0.72212 0.0571 0.0
C938 C 0.59211 0.71044 0.06399 0.0
C939 C 0.59281 0.65217 0.05281 0.0
H940 H 0.5944 0.64508 0.03231 0.0
H941 H 0.57489 0.62689 0.06325 0.0
H942 H 0.61997 0.66499 0.06156 0.0
O943 O 0.51844 0.64653 0.98442 0.0
O944 O 0.50351 0.68889 0.98712 0.0
H945 H 0.57706 0.77298 0.04431 0.0
H946 H 0.59459 0.77372 0.0764 0.0
C947 C 0.57216 0.75793 0.06275 0.0
H948 H 0.54684 0.75422 0.07123 0.0
H949 H 0.53156 0.76888 0.00389 0.0
O950 O 0.52819 0.5924 0.01701 0.0
C951 C 0.5117 0.66904 0.97376 0.0
Co952 Co 0.36743 0.8775 0.02813 0.0
Co953 Co 0.30092 0.80033 0.03299 0.0
C954 C 0.37509 0.81899 0.0516 0.0
O955 O 0.3879 0.85179 0.04588 0.0
O956 O 0.34203 0.79638 0.0478 0.0
C957 C 0.43295 0.92905 0.0129 0.0
O958 O 0.43147 0.89917 0.00537 0.0
C959 C 0.25453 0.7227 0.04099 0.0
C960 C 0.20029 0.71452 0.03463 0.0
C961 C 0.21843 0.69644 0.04064 0.0
N962 N 0.25731 0.75485 0.03678 0.0
N963 N 0.22477 0.74955 0.03237 0.0
C964 C 0.28596 0.71681 0.0401 0.0
H965 H 0.30728 0.73718 0.02754 0.0
H966 H 0.29655 0.71901 0.06007 0.0
H967 H 0.27848 0.69008 0.03205 0.0
C968 C 0.3192 0.89706 0.055 0.0
N969 N 0.32613 0.87223 0.04512 0.0
N970 N 0.29831 0.83997 0.04881 0.0
C971 C 0.27316 0.84355 0.06222 0.0
C972 C 0.28525 0.87989 0.06602 0.0
C973 C 0.34521 0.9365 0.05425 0.0
H974 H 0.37185 0.94173 0.06106 0.0
H975 H 0.3363 0.95173 0.06657 0.0
H976 H 0.34827 0.94601 0.03388 0.0
O977 O 0.35731 0.86072 0.99219 0.0
O978 O 0.30852 0.80722 0.9945 0.0
H979 H 0.21713 0.80816 0.05638 0.0
H980 H 0.22938 0.81921 0.08961 0.0
C981 C 0.23799 0.81302 0.07101 0.0
H982 H 0.24 0.7886 0.07374 0.0
H983 H 0.21935 0.76953 0.02649 0.0
O984 O 0.40637 0.92728 0.02503 0.0
C985 C 0.33327 0.83249 0.98131 0.0
Co986 Co 0.11152 0.47649 0.00597 0.0
Co987 Co 0.18843 0.49194 0.0199 0.0
C988 C 0.16603 0.54508 0.03211 0.0
O989 O 0.13555 0.52459 0.02205 0.0
O990 O 0.18957 0.53558 0.03361 0.0
C991 C 0.04858 0.47781 0.01626 0.0
O992 O 0.06547 0.49221 0.0381 0.0
C993 C 0.26464 0.52577 0.03192 0.0
C994 C 0.27418 0.48015 0.03541 0.0
C995 C 0.29125 0.51725 0.03696 0.0
N996 N 0.23327 0.49517 0.02865 0.0
N997 N 0.23927 0.46802 0.03036 0.0
C998 C 0.26962 0.56204 0.02599 0.0
H999 H 0.2495 0.55974 0.01151 0.0
H1000 H 0.26601 0.57394 0.04406 0.0
H1001 H 0.29673 0.58022 0.01802 0.0
C1002 C 0.09121 0.40957 0.03436 0.0
N1003 N 0.11614 0.44178 0.02535 0.0
N1004 N 0.14787 0.44971 0.03422 0.0
C1005 C 0.14361 0.42408 0.05132 0.0
C1006 C 0.10744 0.39692 0.05165 0.0
C1007 C 0.05339 0.39074 0.02457 0.0
H1008 H 0.05229 0.40036 0.0048 0.0
H1009 H 0.03654 0.39681 0.03757 0.0
H1010 H 0.04237 0.36132 0.02376 0.0
O1011 O 0.1318 0.48245 0.97189 0.0
O1012 O 0.18684 0.49301 0.98037 0.0
H1013 H 0.18519 0.41342 0.06301 0.0
H1014 H 0.16065 0.41824 0.08943 0.0
C1015 C 0.17231 0.42862 0.06996 0.0
H1016 H 0.19307 0.45733 0.07172 0.0
H1017 H 0.21994 0.44134 0.02696 0.0
O1018 O 0.06186 0.46483 1.00058 0.0
C1019 C 0.16265 0.48959 0.96435 0.0
Co1020 Co 0.36239 0.48127 0.51252 0.0
Co1021 Co 0.29818 0.49359 0.52368 0.0
C1022 C 0.37264 0.54817 0.53888 0.0
O1023 O 0.38427 0.52832 0.53013 0.0
O1024 O 0.33938 0.53804 0.53799 0.0
C1025 C 0.42792 0.48477 0.52345 0.0
O1026 O 0.42539 0.49957 0.54508 0.0
C1027 C 0.25251 0.52425 0.53463 0.0
C1028 C 0.19807 0.47707 0.53603 0.0
C1029 C 0.21675 0.51408 0.53859 0.0
N1030 N 0.255 0.49464 0.53108 0.0
N1031 N 0.22226 0.46654 0.53153 0.0
C1032 C 0.28297 0.56142 0.53004 0.0
H1033 H 0.30279 0.56092 0.51656 0.0
H1034 H 0.29621 0.5731 0.54886 0.0
H1035 H 0.27336 0.57877 0.52154 0.0
C1036 C 0.31494 0.41278 0.53906 0.0
N1037 N 0.32214 0.4451 0.53035 0.0
N1038 N 0.29738 0.45208 0.53846 0.0
C1039 C 0.27543 0.42586 0.55498 0.0
C1040 C 0.28505 0.39911 0.55557 0.0
C1041 C 0.33495 0.39488 0.52947 0.0
H1042 H 0.34717 0.40591 0.51027 0.0
H1043 H 0.35688 0.40019 0.54326 0.0
H1044 H 0.31681 0.36555 0.52742 0.0
O1045 O 0.3499 0.48813 0.47787 0.0
O1046 O 0.3024 0.49447 0.48432 0.0
H1047 H 0.22239 0.4142 0.56529 0.0
H1048 H 0.25075 0.4192 0.59249 0.0
C1049 C 0.25012 0.42964 0.57291 0.0
H1050 H 0.2575 0.4582 0.57467 0.0
H1051 H 0.21623 0.44031 0.52773 0.0
O1052 O 0.40148 0.47089 0.50794 0.0
C1053 C 0.32525 0.49316 0.46921 0.0
Co1054 Co 0.50298 0.87653 0.52957 0.0
Co1055 Co 0.49449 0.80037 0.53148 0.0
C1056 C 0.43668 0.81557 0.5502 0.0
O1057 O 0.45642 0.84902 0.54658 0.0
O1058 O 0.44803 0.79402 0.54502 0.0
C1059 C 0.48811 0.92795 0.51585 0.0
O1060 O 0.46013 0.89817 0.50769 0.0
C1061 C 0.47163 0.72807 0.55035 0.0
C1062 C 0.49961 0.71052 0.52332 0.0
C1063 C 0.474 0.69829 0.54286 0.0
N1064 N 0.49394 0.75605 0.53546 0.0
N1065 N 0.51114 0.74557 0.5197 0.0
C1066 C 0.44906 0.73033 0.57152 0.0
H1067 H 0.46311 0.75736 0.58056 0.0
H1068 H 0.44301 0.70962 0.58657 0.0
H1069 H 0.42351 0.72609 0.56317 0.0
C1070 C 0.57076 0.89545 0.55689 0.0
N1071 N 0.53915 0.87132 0.54636 0.0
N1072 N 0.5358 0.83925 0.5474 0.0
C1073 C 0.56545 0.84204 0.55858 0.0
C1074 C 0.58863 0.87777 0.56501 0.0
C1075 C 0.58444 0.93495 0.55719 0.0
H1076 H 0.58085 0.94365 0.53769 0.0
H1077 H 0.56836 0.94076 0.57116 0.0
H1078 H 0.61317 0.95047 0.56271 0.0
O1079 O 0.4975 0.86131 0.49294 0.0
O1080 O 0.49465 0.80851 0.49342 0.0
H1081 H 0.57655 0.80224 0.54391 0.0
H1082 H 0.59457 0.81842 0.57598 0.0
C1083 C 0.57144 0.81109 0.56289 0.0
H1084 H 0.54698 0.78834 0.5714 0.0
H1085 H 0.52923 0.7618 0.50546 0.0
O1086 O 0.51293 0.92611 0.5279 0.0
C1087 C 0.49455 0.8341 0.4811 0.0
Co1088 Co 0.10519 0.62683 0.51972 0.0
Co1089 Co 0.18408 0.68883 0.52608 0.0
C1090 C 0.16343 0.61279 0.537 0.0
O1091 O 0.13129 0.60227 0.53043 0.0
O1092 O 0.18686 0.64595 0.5372 0.0
C1093 C 0.04413 0.56001 0.52796 0.0
O1094 O 0.06378 0.55785 0.5466 0.0
C1095 C 0.25601 0.73216 0.54799 0.0
C1096 C 0.27687 0.78278 0.52623 0.0
C1097 C 0.2866 0.76511 0.54411 0.0
N1098 N 0.22967 0.73013 0.53279 0.0
N1099 N 0.24217 0.76073 0.5201 0.0
C1100 C 0.25171 0.70315 0.56608 0.0
H1101 H 0.2558 0.68335 0.55507 0.0
H1102 H 0.22426 0.68932 0.57439 0.0
H1103 H 0.27168 0.7142 0.58206 0.0
C1104 C 0.0908 0.67325 0.55369 0.0
N1105 N 0.11356 0.66534 0.54142 0.0
N1106 N 0.14653 0.69239 0.54361 0.0
C1107 C 0.14567 0.71866 0.5574 0.0
C1108 C 0.11032 0.70738 0.56426 0.0
C1109 C 0.05088 0.6498 0.55283 0.0
H1110 H 0.04208 0.64313 0.53232 0.0
H1111 H 0.04323 0.62428 0.56302 0.0
H1112 H 0.03691 0.66281 0.5619 0.0
O1113 O 0.11931 0.6434 0.48417 0.0
O1114 O 0.17688 0.68484 0.4873 0.0
H1115 H 0.18781 0.76992 0.54531 0.0
H1116 H 0.17166 0.76939 0.57782 0.0
C1117 C 0.17795 0.75408 0.56346 0.0
H1118 H 0.19958 0.74986 0.57122 0.0
H1119 H 0.22746 0.76599 0.50647 0.0
O1120 O 0.05474 0.58983 0.5167 0.0
C1121 C 0.14891 0.66553 0.47373 0.0
Co1122 Co 0.14487 0.69843 0.31511 0.0
Co1123 Co 0.15939 0.63473 0.31053 0.0
C1124 C 0.21654 0.70998 0.29876 0.0
O1125 O 0.19529 0.7213 0.30446 0.0
O1126 O 0.20612 0.67664 0.29932 0.0
C1127 C 0.15294 0.7664 0.30721 0.0
O1128 O 0.17619 0.76907 0.28956 0.0
C1129 C 0.18479 0.5891 0.28815 0.0
C1130 C 0.1581 0.54086 0.31277 0.0
C1131 C 0.18322 0.55667 0.29308 0.0
N1132 N 0.16237 0.59259 0.30449 0.0
N1133 N 0.146 0.56336 0.31887 0.0
C1134 C 0.20677 0.61623 0.26799 0.0
H1135 H 0.2324 0.63663 0.27683 0.0
H1136 H 0.19238 0.62989 0.26081 0.0
H1137 H 0.21273 0.6034 0.2515 0.0
C1138 C 0.08345 0.65227 0.28184 0.0
N1139 N 0.11413 0.65983 0.29389 0.0
N1140 N 0.11881 0.63192 0.29264 0.0
C1141 C 0.09063 0.60532 0.27986 0.0
C1142 C 0.06739 0.61743 0.27254 0.0
C1143 C 0.06815 0.67674 0.28192 0.0
H1144 H 0.06275 0.6812 0.30227 0.0
H1145 H 0.08819 0.70314 0.27383 0.0
H1146 H 0.04295 0.6656 0.27052 0.0
O1147 O 0.14178 0.68258 0.35096 0.0
O1148 O 0.15591 0.6396 0.34916 0.0
H1149 H 0.08153 0.5554 0.29511 0.0
H1150 H 0.06141 0.55189 0.26358 0.0
C1151 C 0.08518 0.56852 0.27594 0.0
H1152 H 0.10941 0.57048 0.26676 0.0
H1153 H 0.12781 0.55949 0.33363 0.0
O1154 O 0.1324 0.73615 0.31748 0.0
C1155 C 0.14805 0.66002 0.36208 0.0
Co1156 Co 0.29206 0.44941 0.31106 0.0
Co1157 Co 0.35822 0.52687 0.30573 0.0
C1158 C 0.28394 0.50783 0.28752 0.0
O1159 O 0.27134 0.47516 0.29357 0.0
O1160 O 0.31704 0.5306 0.29094 0.0
C1161 C 0.22618 0.3973 0.32574 0.0
O1162 O 0.22769 0.42688 0.33406 0.0
C1163 C 0.40451 0.60448 0.29719 0.0
C1164 C 0.4588 0.61276 0.30355 0.0
C1165 C 0.44062 0.63074 0.29731 0.0
N1166 N 0.40176 0.5724 0.30176 0.0
N1167 N 0.43433 0.57778 0.30615 0.0
C1168 C 0.37307 0.61037 0.29782 0.0
H1169 H 0.35182 0.59029 0.31058 0.0
H1170 H 0.36239 0.60767 0.27783 0.0
H1171 H 0.38059 0.63729 0.30549 0.0
C1172 C 0.34036 0.43033 0.28357 0.0
N1173 N 0.33334 0.45496 0.29375 0.0
N1174 N 0.36091 0.48733 0.28989 0.0
C1175 C 0.38593 0.48404 0.27607 0.0
C1176 C 0.37407 0.44777 0.27215 0.0
C1177 C 0.31457 0.39084 0.2843 0.0
H1178 H 0.28786 0.38543 0.27753 0.0
H1179 H 0.32361 0.37575 0.27194 0.0
H1180 H 0.31161 0.38132 0.30467 0.0
O1181 O 0.30239 0.46623 0.34704 0.0
O1182 O 0.3507 0.52008 0.34423 0.0
H1183 H 0.44195 0.51999 0.28146 0.0
H1184 H 0.42925 0.50875 0.24831 0.0
C1185 C 0.42078 0.51481 0.26702 0.0
H1186 H 0.41838 0.53903 0.26442 0.0
H1187 H 0.43979 0.55788 0.31215 0.0
O1188 O 0.253 0.3995 0.31369 0.0
C1189 C 0.32635 0.49478 0.35766 0.0
Co1190 Co 0.54869 0.85196 0.32805 0.0
Co1191 Co 0.47165 0.83623 0.31429 0.0
C1192 C 0.4937 0.78252 0.30315 0.0
O1193 O 0.52432 0.80326 0.31292 0.0
O1194 O 0.47028 0.79213 0.30134 0.0
C1195 C 0.61116 0.84948 0.31846 0.0
O1196 O 0.59411 0.83427 0.29683 0.0
C1197 C 0.39538 0.80191 0.30259 0.0
C1198 C 0.38561 0.8473 0.29832 0.0
C1199 C 0.36866 0.81017 0.29729 0.0
N1200 N 0.42672 0.83266 0.30548 0.0
N1201 N 0.42057 0.85968 0.30333 0.0
C1202 C 0.39054 0.76588 0.30922 0.0
H1203 H 0.41082 0.76871 0.32374 0.0
H1204 H 0.39399 0.75339 0.29141 0.0
H1205 H 0.36354 0.74794 0.31744 0.0
C1206 C 0.56875 0.91813 0.29869 0.0
N1207 N 0.54393 0.88608 0.30804 0.0
N1208 N 0.51207 0.87804 0.29938 0.0
C1209 C 0.51609 0.90344 0.28213 0.0
C1210 C 0.55225 0.93052 0.28147 0.0
C1211 C 0.60676 0.93712 0.30808 0.0
H1212 H 0.60823 0.92798 0.32794 0.0
H1213 H 0.6233 0.93067 0.29504 0.0
H1214 H 0.61788 0.96656 0.30849 0.0
O1215 O 0.52887 0.84735 0.36215 0.0
O1216 O 0.47366 0.83635 0.35381 0.0
H1217 H 0.47448 0.91413 0.27057 0.0
H1218 H 0.49866 0.90897 0.24409 0.0
C1219 C 0.4872 0.89877 0.26363 0.0
H1220 H 0.46638 0.87006 0.26205 0.0
H1221 H 0.43983 0.88646 0.30645 0.0
O1222 O 0.59832 0.86358 0.33351 0.0
C1223 C 0.49814 0.84047 0.36978 0.0
C1224 C 0.1047 0.09032 0.11504 0.0
C1225 C 0.12344 0.12369 0.12767 0.0
H1226 H 0.10185 0.04024 0.10669 0.0
C1227 C 0.15686 0.13378 0.13894 0.0
H1228 H 0.07978 0.08248 0.10499 0.0
C1229 C 0.16988 0.10988 0.13939 0.0
C1230 C 0.14965 0.07533 0.12867 0.0
H1231 H 0.17222 0.15954 0.14846 0.0
H1232 H 0.19497 0.11789 0.14931 0.0
C1233 C 0.11746 0.0662 0.11581 0.0
C1234 C 0.91193 0.01375 0.11947 0.0
C1235 C 0.8752 0.00129 0.1232 0.0
H1236 H 0.96487 0.05894 0.11789 0.0
C1237 C 0.8636 0.02643 0.12512 0.0
H1238 H 0.92218 0.99544 0.11872 0.0
C1239 C 0.88839 0.06318 0.12507 0.0
C1240 C 0.92541 0.07558 0.12333 0.0
H1241 H 0.83548 0.01766 0.12805 0.0
H1242 H 0.8786 0.08171 0.12801 0.0
C1243 C 0.93669 0.05047 0.11933 0.0
C1244 C 0.97504 0.84835 0.11607 0.0
C1245 C -0.00051 0.88467 0.12069 0.0
H1246 H 0.92007 0.80764 0.11247 0.0
C1247 C 0.98669 0.90891 0.12249 0.0
H1248 H 0.98421 0.82912 0.11466 0.0
C1249 C 0.94994 0.89671 0.12131 0.0
C1250 C 0.92522 0.85997 0.11849 0.0
H1251 H 0.00464 0.93691 0.12684 0.0
H1252 H 0.94092 0.91577 0.12455 0.0
C1253 C 0.9383 0.83614 0.11476 0.0
C1254 C 0.12345 0.14575 0.38716 0.0
C1255 C 0.11154 0.1094 0.38264 0.0
H1256 H 0.10927 0.18656 0.39047 0.0
C1257 C 0.07451 0.08522 0.38068 0.0
H1258 H 0.15185 0.16494 0.38868 0.0
C1259 C 0.05002 0.0975 0.38164 0.0
C1260 C 0.06208 0.13425 0.3844 0.0
H1261 H 0.06445 0.0572 0.3764 0.0
H1262 H 0.02195 0.07847 0.3783 0.0
C1263 C 0.09897 0.15804 0.38824 0.0
C1264 C 0.89509 0.98037 0.38305 0.0
C1265 C 0.87084 0.99284 0.37917 0.0
H1266 H 0.90281 0.93518 0.38484 0.0
C1267 C 0.83412 0.96769 0.37714 0.0
H1268 H 0.92364 -0.00131 0.38388 0.0
C1269 C 0.82216 0.93094 0.37727 0.0
C1270 C 0.84675 0.91853 0.3792 0.0
H1271 H 0.8148 0.97646 0.37409 0.0
H1272 H 0.79386 0.9124 0.37426 0.0
C1273 C 0.88313 0.94365 0.38326 0.0
C1274 C 0.01097 0.90353 0.38875 0.0
C1275 C -0.00352 0.87016 0.37614 0.0
H1276 H 0.05811 0.95363 0.39723 0.0
C1277 C 0.01992 0.86004 0.36512 0.0
H1278 H 0.99378 0.9114 0.39862 0.0
C1279 C 0.05685 0.88393 0.36487 0.0
C1280 C 0.07106 0.9185 0.37553 0.0
H1281 H 0.00965 0.83428 0.35563 0.0
H1282 H 0.07404 0.8759 0.35513 0.0
C1283 C 0.04787 0.92766 0.38817 0.0
C1284 C 0.87392 0.93049 0.88572 0.0
C1285 C 0.8423 0.92169 0.87215 0.0
H1286 H 0.91083 0.91371 0.89764 0.0
C1287 C 0.8221 0.88713 0.86143 0.0
H1288 H 0.88947 0.95644 0.89487 0.0
C1289 C 0.83468 0.86288 0.86261 0.0
C1290 C 0.86762 0.87268 0.87457 0.0
H1291 H 0.79742 0.87936 0.85101 0.0
H1292 H 0.81943 0.83712 0.85308 0.0
C1293 C 0.88626 0.90607 0.88716 0.0
C1294 C 0.10255 0.9321 0.878 0.0
C1295 C 0.06558 0.92002 0.87959 0.0
H1296 H 0.15568 0.9773 0.87525 0.0
C1297 C 0.05459 0.94537 0.88349 0.0
H1298 H 0.1121 0.91337 0.87513 0.0
C1299 C 0.07961 0.98202 0.88344 0.0
C1300 C 0.11632 0.99417 0.8799 0.0
H1301 H 0.02646 0.93714 0.88479 0.0
H1302 H 0.0696 0.00053 0.88411 0.0
C1303 C 0.1276 0.96878 0.87805 0.0
C1304 C 0.05474 0.16006 0.88839 0.0
C1305 C 0.06766 0.13617 0.88432 0.0
H1306 H 0.00901 0.16738 0.88868 0.0
C1307 C 0.04283 0.09954 0.88107 0.0
H1308 H 0.07309 0.18848 0.89102 0.0
C1309 C 0.00615 0.08756 0.87977 0.0
C1310 C 0.99351 0.1119 0.88192 0.0
H1311 H 0.05174 0.08045 0.87754 0.0
H1312 H 0.98815 0.0597 0.87505 0.0
C1313 C 0.01806 0.14807 0.887 0.0
C1314 C 0.939 0.89293 0.61783 0.0
C1315 C 0.92712 0.85606 0.61691 0.0
H1316 H 0.92433 0.93329 0.62159 0.0
C1317 C 0.89008 0.83174 0.6145 0.0
H1318 H 0.96717 0.91239 0.61995 0.0
C1319 C 0.86542 0.84379 0.61558 0.0
C1320 C 0.87727 0.88038 0.61852 0.0
H1321 H 0.87988 0.80312 0.61363 0.0
H1322 H 0.837 0.82431 0.61549 0.0
C1323 C 0.9143 0.90497 0.61865 0.0
C1324 C 0.15575 0.02432 0.62484 0.0
C1325 C 0.11893 -0.00078 0.62444 0.0
H1326 H 0.19624 0.07966 0.62656 0.0
C1327 C 0.09436 0.01161 0.62292 0.0
H1328 H 0.17527 0.01551 0.62619 0.0
C1329 C 0.10625 0.04828 0.62325 0.0
C1330 C 0.14297 0.07345 0.62526 0.0
H1331 H 0.06579 0.99319 0.62354 0.0
H1332 H 0.08642 0.05663 0.62371 0.0
C1333 C 0.16769 0.06107 0.62507 0.0
C1334 C 0.93581 0.10703 0.61891 0.0
C1335 C 0.92318 0.07005 0.62153 0.0
H1336 H 0.98149 0.16013 0.61871 0.0
C1337 C 0.94825 0.05833 0.62302 0.0
H1338 H 0.91729 0.11709 0.61773 0.0
C1339 C 0.98496 0.08303 0.62355 0.0
C1340 C -0.00249 0.12005 0.62236 0.0
H1341 H 0.93963 0.03023 0.62553 0.0
H1342 H 0.00314 0.07297 0.62681 0.0
C1343 C 0.97259 0.13176 0.61948 0.0
C1344 C 0.76414 0.41752 0.45141 0.0
C1345 C 0.78473 0.45186 0.46235 0.0
H1346 H 0.75969 0.36653 0.4439 0.0
C1347 C 0.81948 0.46247 0.47121 0.0
H1348 H 0.73803 0.40911 0.44311 0.0
C1349 C 0.83229 0.43841 0.47096 0.0
C1350 C 0.81056 0.40308 0.46197 0.0
H1351 H 0.83631 0.48894 0.47936 0.0
H1352 H 0.85864 0.44709 0.479 0.0
C1353 C 0.77672 0.3932 0.45154 0.0
C1354 C 0.59794 0.38914 0.44931 0.0
C1355 C 0.58973 0.41085 0.46489 0.0
H1356 H 0.58091 0.3363 0.43519 0.0
C1357 C 0.55621 0.39534 0.47734 0.0
H1358 H 0.62326 0.40047 0.43907 0.0
C1359 C 0.53268 0.35844 0.47602 0.0
C1360 C 0.54195 0.33626 0.462 0.0
H1361 H 0.54894 0.41135 0.48941 0.0
H1362 H 0.50796 0.34715 0.48703 0.0
C1363 C 0.57391 0.35227 0.44747 0.0
C1364 C 0.65277 0.2358 0.4469 0.0
C1365 C 0.66512 0.21125 0.44924 0.0
H1366 H 0.60748 0.24334 0.44481 0.0
C1367 C 0.64036 0.17448 0.44727 0.0
H1368 H 0.67083 0.26428 0.44899 0.0
C1369 C 0.60371 0.16239 0.44511 0.0
C1370 C 0.59105 0.18689 0.44528 0.0
H1371 H 0.64914 0.15497 0.44894 0.0
H1372 H 0.58523 0.13376 0.44533 0.0
C1373 C 0.61613 0.22372 0.44475 0.0
C1374 C 0.79515 0.48413 0.72288 0.0
C1375 C 0.78312 0.44737 0.72078 0.0
H1376 H 0.78079 0.52484 0.72533 0.0
C1377 C 0.74625 0.42281 0.72336 0.0
H1378 H 0.82341 0.50364 0.72102 0.0
C1379 C 0.72171 0.43488 0.72587 0.0
C1380 C 0.73346 0.47172 0.72551 0.0
H1381 H 0.73583 0.39433 0.7212 0.0
H1382 H 0.69344 0.41527 0.72599 0.0
C1383 C 0.77062 0.4962 0.72544 0.0
C1384 C 0.55067 0.30675 0.7238 0.0
C1385 C 0.53486 0.32277 0.70913 0.0
H1386 H 0.55178 0.25857 0.73232 0.0
C1387 C 0.50358 0.30059 0.69493 0.0
H1388 H 0.57351 0.32272 0.73619 0.0
C1389 C 0.49026 0.26369 0.6936 0.0
C1390 C 0.50815 0.24818 0.70623 0.0
H1391 H 0.49026 0.3119 0.68381 0.0
H1392 H 0.46713 0.24769 0.68141 0.0
C1393 C 0.53789 0.2699 0.72195 0.0
C1394 C 0.68616 0.19619 0.70062 0.0
C1395 C 0.66221 0.20712 0.70932 0.0
H1396 H 0.74054 0.21125 0.69256 0.0
C1397 C 0.67616 0.24174 0.7198 0.0
H1398 H 0.67638 0.16952 0.69283 0.0
C1399 C 0.71306 0.266 0.7193 0.0
C1400 C 0.73681 0.25577 0.70899 0.0
H1401 H 0.6586 0.25042 0.72798 0.0
H1402 H 0.72284 0.29287 0.72656 0.0
C1403 C 0.72303 0.22019 0.70051 0.0
C1404 C 0.54895 0.26876 0.21654 0.0
C1405 C 0.51529 0.25882 0.20574 0.0
H1406 H 0.58728 0.25273 0.22601 0.0
C1407 C 0.49354 0.22331 0.19708 0.0
H1408 H 0.56598 0.29555 0.22395 0.0
C1409 C 0.50611 0.19905 0.19764 0.0
C1410 C 0.54064 0.20965 0.20697 0.0
H1411 H 0.46732 0.21456 0.18878 0.0
H1412 H 0.48926 0.1724 0.1898 0.0
C1413 C 0.56131 0.24428 0.21745 0.0
C1414 C 0.7516 0.30883 0.22164 0.0
C1415 C 0.78332 0.32444 0.20684 0.0
H1416 H 0.70231 0.26092 0.2307 0.0
C1417 C 0.79219 0.3019 0.19289 0.0
H1418 H 0.74493 0.32512 0.23385 0.0
C1419 C 0.76851 0.26501 0.19197 0.0
C1420 C 0.73524 0.24985 0.20477 0.0
H1421 H 0.81671 0.3129 0.18167 0.0
H1422 H 0.77547 0.24869 0.17999 0.0
C1423 C 0.72742 0.27197 0.22021 0.0
C1424 C 0.7094 0.43743 0.22197 0.0
C1425 C 0.73469 0.4742 0.22151 0.0
H1426 H 0.65455 0.39718 0.21803 0.0
C1427 C 0.72229 0.49891 0.22187 0.0
H1428 H 0.71783 0.41765 0.22172 0.0
C1429 C 0.68566 0.48709 0.22003 0.0
C1430 C 0.66064 0.45038 0.21815 0.0
H1431 H 0.74095 0.52751 0.22168 0.0
H1432 H 0.67707 0.50677 0.21859 0.0
C1433 C 0.67279 0.42562 0.22012 0.0
C1434 C 0.58049 0.23967 0.95041 0.0
C1435 C 0.54342 0.21524 0.95046 0.0
H1436 H 0.63324 0.24676 0.95066 0.0
C1437 C 0.53131 0.17871 0.94676 0.0
H1438 H 0.59074 0.26791 0.9539 0.0
C1439 C 0.55579 0.16652 0.94476 0.0
C1440 C 0.59291 0.19061 0.94699 0.0
H1441 H 0.50286 0.15936 0.94676 0.0
H1442 H 0.54542 0.1379 0.94336 0.0
C1443 C 0.605 0.22748 0.94866 0.0
C1444 C 0.82167 0.35832 0.95865 0.0
C1445 C 0.78486 0.33331 0.95732 0.0
H1446 H 0.86215 0.41351 0.96181 0.0
C1447 C 0.76043 0.34585 0.95562 0.0
H1448 H 0.84108 0.34938 0.96017 0.0
C1449 C 0.77238 0.38252 0.95665 0.0
C1450 C 0.80902 0.40751 0.9596 0.0
H1451 H 0.73184 0.32749 0.95554 0.0
H1452 H 0.7526 0.39094 0.95688 0.0
C1453 C 0.83367 0.39506 0.95961 0.0
C1454 C 0.65092 0.41786 0.95902 0.0
C1455 C 0.66354 0.45491 0.95826 0.0
H1456 H 0.60561 0.36509 0.96059 0.0
C1457 C 0.63863 0.46673 0.95593 0.0
H1458 H 0.66905 0.40767 0.96193 0.0
C1459 C 0.60182 0.44205 0.95539 0.0
C1460 C 0.58917 0.40502 0.95745 0.0
H1461 H 0.64757 0.49513 0.95553 0.0
H1462 H 0.58329 0.45214 0.95461 0.0
C1463 C 0.61423 0.39324 0.95848 0.0
C1464 C 0.48573 0.79749 0.80365 0.0
C1465 C 0.45082 0.78649 0.79497 0.0
H1466 H 0.52532 0.78268 0.81134 0.0
C1467 C 0.43034 0.75199 0.78425 0.0
H1468 H 0.50248 0.82408 0.81161 0.0
C1469 C 0.4432 0.7279 0.78447 0.0
C1470 C 0.47723 0.7382 0.79471 0.0
H1471 H 0.40411 0.74327 0.77605 0.0
H1472 H 0.42626 0.7011 0.77703 0.0
C1473 C 0.49883 0.77368 0.80345 0.0
C1474 C 0.22196 0.72899 0.80851 0.0
C1475 C 0.25563 0.74479 0.79625 0.0
H1476 H 0.17383 0.68051 0.81791 0.0
C1477 C 0.26422 0.72336 0.78069 0.0
H1478 H 0.2144 0.74478 0.82056 0.0
C1479 C 0.24045 0.68647 0.77869 0.0
C1480 C 0.20835 0.67014 0.79305 0.0
H1481 H 0.28967 0.73494 0.7706 0.0
H1482 H 0.24775 0.67071 0.76643 0.0
C1483 C 0.19867 0.69205 0.80704 0.0
C1484 C 0.28415 0.55846 0.77662 0.0
C1485 C 0.25916 0.52159 0.77725 0.0
H1486 H 0.33872 0.59924 0.78123 0.0
C1487 C 0.27199 0.49722 0.77773 0.0
H1488 H 0.27537 0.57797 0.77618 0.0
C1489 C 0.3086 0.50949 0.78043 0.0
C1490 C 0.33321 0.54631 0.78229 0.0
H1491 H 0.2536 0.46857 0.77805 0.0
H1492 H 0.31746 0.49009 0.78261 0.0
C1493 C 0.32077 0.57071 0.77928 0.0
C1494 C 0.43778 0.83088 0.05772 0.0
C1495 C 0.40064 0.80632 0.05747 0.0
H1496 H 0.49072 0.83849 0.054 0.0
C1497 C 0.38899 0.76949 0.05781 0.0
H1498 H 0.44786 0.85951 0.05764 0.0
C1499 C 0.41364 0.75754 0.05564 0.0
C1500 C 0.45054 0.78217 0.05347 0.0
H1501 H 0.36074 0.74982 0.05765 0.0
H1502 H 0.40331 0.72908 0.05344 0.0
C1503 C 0.46243 0.81891 0.05556 0.0
C1504 C 0.15754 0.59788 0.02642 0.0
C1505 C 0.17594 0.58243 0.03838 0.0
H1506 H 0.15692 0.64599 0.01745 0.0
C1507 C 0.206 0.6041 0.05385 0.0
H1508 H 0.13414 0.5819 0.01446 0.0
C1509 C 0.21859 0.64088 0.05604 0.0
C1510 C 0.20224 0.65688 0.04197 0.0
H1511 H 0.22028 0.59281 0.06373 0.0
H1512 H 0.24171 0.65683 0.06819 0.0
C1513 C 0.17065 0.63471 0.02809 0.0
C1514 C 0.38103 0.60035 0.05106 0.0
C1515 C 0.40501 0.59062 0.04048 0.0
H1516 H 0.3264 0.58432 0.05954 0.0
C1517 C 0.39144 0.5554 0.03124 0.0
H1518 H 0.39064 0.62692 0.05889 0.0
C1519 C 0.35458 0.53132 0.03094 0.0
C1520 C 0.33042 0.5418 0.03997 0.0
H1521 H 0.40914 0.54684 0.02307 0.0
H1522 H 0.34497 0.50496 0.02262 0.0
C1523 C 0.34413 0.57602 0.05112 0.0
C1524 C 0.20672 0.59476 0.55395 0.0
C1525 C 0.17449 0.58573 0.54119 0.0
H1526 H 0.24456 0.5785 0.56433 0.0
C1527 C 0.15427 0.55129 0.53029 0.0
H1528 H 0.22234 0.62062 0.5632 0.0
C1529 C 0.16739 0.52746 0.53041 0.0
C1530 C 0.20089 0.53752 0.54152 0.0
H1531 H 0.12914 0.54335 0.52045 0.0
H1532 H 0.15206 0.50183 0.52071 0.0
C1533 C 0.21958 0.57071 0.55438 0.0
C1534 C 0.38742 0.6104 0.55102 0.0
C1535 C 0.3989 0.58561 0.54626 0.0
H1536 H 0.40164 0.66522 0.55301 0.0
C1537 C 0.43596 0.59817 0.54474 0.0
H1538 H 0.35921 0.60178 0.55234 0.0
C1539 C 0.46066 0.63491 0.54566 0.0
C1540 C 0.4489 0.65986 0.5483 0.0
H1541 H 0.44586 0.57984 0.54124 0.0
H1542 H 0.48886 0.64391 0.5429 0.0
C1543 C 0.41207 0.6471 0.55179 0.0
C1544 C 0.33676 0.7524 0.5509 0.0
C1545 C 0.3239 0.77664 0.55183 0.0
H1546 H 0.38257 0.74557 0.55013 0.0
C1547 C 0.34817 0.81301 0.55643 0.0
H1548 H 0.31898 0.72435 0.54662 0.0
C1549 C 0.38486 0.82528 0.55846 0.0
C1550 C 0.39807 0.80144 0.55547 0.0
H1551 H 0.33893 0.83224 0.55719 0.0
H1552 H 0.40301 0.85383 0.56061 0.0
C1553 C 0.37345 0.76466 0.5528 0.0
C1554 C 0.26985 0.55706 0.28045 0.0
C1555 C 0.25823 0.52027 0.28151 0.0
H1556 H 0.25555 0.59759 0.28387 0.0
C1557 C 0.2211 0.49568 0.28168 0.0
H1558 H 0.29809 0.57674 0.28027 0.0
C1559 C 0.19645 0.50771 0.28346 0.0
C1560 C 0.20833 0.5445 0.28477 0.0
H1561 H 0.21105 0.46707 0.28233 0.0
H1562 H 0.16819 0.48817 0.28532 0.0
C1563 C 0.2452 0.56907 0.28225 0.0
C1564 C 0.50191 0.72971 0.30996 0.0
C1565 C 0.48351 0.7449 0.29762 0.0
H1566 H 0.5024 0.68179 0.31986 0.0
C1567 C 0.45323 0.7228 0.28249 0.0
H1568 H 0.52548 0.74602 0.32169 0.0
C1569 C 0.44044 0.68592 0.28098 0.0
C1570 C 0.45685 0.67027 0.2954 0.0
H1571 H 0.43893 0.73385 0.27233 0.0
H1572 H 0.41716 0.66965 0.26905 0.0
C1573 C 0.48862 0.6928 0.30896 0.0
C1574 C 0.27882 0.72645 0.28456 0.0
C1575 C 0.25492 0.73658 0.29474 0.0
H1576 H 0.33336 0.74223 0.27602 0.0
C1577 C 0.26855 0.77214 0.30322 0.0
H1578 H 0.26914 0.69959 0.27731 0.0
C1579 C 0.3054 0.79624 0.3032 0.0
C1580 C 0.32949 0.78545 0.29457 0.0
H1581 H 0.25093 0.78101 0.31105 0.0
H1582 H 0.31505 0.82291 0.31096 0.0
C1583 C 0.3157 0.75081 0.28414 0.0
C1584 C 0.96727 0.14636 0.26685 0.0
C1585 C -0.00107 0.16587 0.2812 0.0
H1586 H 0.94316 0.13324 0.22915 0.0
C1587 C 0.03182 0.18498 0.26789 0.0
H1588 H 0.9416 0.13136 0.27654 0.0
C1589 C 0.03283 0.18532 0.24068 0.0
C1590 C 0.00087 0.1673 0.22646 0.0
H1591 H 0.05673 0.19999 0.27852 0.0
H1592 H 0.05827 0.20093 0.23082 0.0
C1593 C 0.96819 0.14746 0.23976 0.0
C1594 C 0.84504 0.8091 0.26204 0.0
C1595 C 0.83116 0.82712 0.27632 0.0
H1596 H 0.85423 0.79451 0.22415 0.0
C1597 C 0.81845 0.84712 0.26308 0.0
H1598 H 0.85476 0.79336 0.27184 0.0
C1599 C 0.81865 0.84833 0.23599 0.0
C1600 C 0.8307 0.82877 0.22158 0.0
H1601 H 0.80769 0.86135 0.27374 0.0
H1602 H 0.80806 0.86342 0.22636 0.0
C1603 C 0.8444 0.80955 0.23483 0.0
C1604 C 0.20313 0.9955 0.23862 0.0
C1605 C 0.17437 0.99415 0.22484 0.0
H1606 H 0.22618 -0.00237 0.27588 0.0
C1607 C 0.14682 0.99546 0.23853 0.0
H1608 H 0.22485 0.9949 0.22842 0.0
C1609 C 0.14834 -0.00147 0.26568 0.0
C1610 C 0.17692 -0.00068 0.27941 0.0
H1611 H 0.12471 0.9951 0.22821 0.0
H1612 H 0.12679 -0.00067 0.27597 0.0
C1613 C 0.20407 -0.00257 0.26567 0.0
C1614 C 0.958 0.80933 0.73512 0.0
C1615 C 0.99076 0.82896 0.72173 0.0
H1616 H 0.93176 0.79337 0.77226 0.0
C1617 C 0.02227 0.84974 0.73598 0.0
H1618 H 0.9332 0.79334 0.72457 0.0
C1619 C 0.0214 0.84926 0.76308 0.0
C1620 C 0.98892 0.82875 0.77646 0.0
H1621 H 0.04784 0.86519 0.72624 0.0
H1622 H 0.04637 0.86432 0.77365 0.0
C1623 C 0.95703 0.80956 0.76232 0.0
C1624 C 0.17553 0.14775 0.76717 0.0
C1625 C 0.16286 0.16686 0.78146 0.0
H1626 H 0.18689 0.13483 0.72953 0.0
C1627 C 0.14883 0.18569 0.7681 0.0
H1628 H 0.18641 0.13298 0.77691 0.0
C1629 C 0.14829 0.18605 0.74089 0.0
C1630 C 0.16264 0.16836 0.72672 0.0
H1631 H 0.13856 0.20041 0.77868 0.0
H1632 H 0.13811 0.20133 0.731 0.0
C1633 C 0.17584 0.14887 0.74009 0.0
C1634 C 0.79691 0.01006 0.76108 0.0
C1635 C 0.82235 0.00593 0.77533 0.0
H1636 H 0.77644 0.01139 0.72345 0.0
C1637 C 0.84678 -0.00108 0.76217 0.0
H1638 H 0.77748 0.01492 0.77092 0.0
C1639 C 0.84523 0.99539 0.73506 0.0
C1640 C 0.81987 -0.0002 0.7208 0.0
H1641 H 0.86612 0.99491 0.77291 0.0
H1642 H 0.86414 0.98978 0.72522 0.0
C1643 C 0.79611 0.00769 0.73403 0.0
C1644 C 0.70266 0.51808 0.58029 0.0
C1645 C 0.67089 0.49859 0.56612 0.0
H1646 H 0.72633 0.53386 0.61808 0.0
C1647 C 0.63861 0.47669 0.57939 0.0
H1648 H 0.72773 0.53536 0.57043 0.0
C1649 C 0.63775 0.47537 0.60648 0.0
C1650 C 0.66903 0.49668 0.62081 0.0
H1651 H 0.61374 0.46145 0.56873 0.0
H1652 H 0.6123 0.45909 0.61618 0.0
C1653 C 0.70168 0.51743 0.60748 0.0
C1654 C 0.51477 0.141 0.5912 0.0
C1655 C 0.50259 0.16052 0.60543 0.0
H1656 H 0.52264 0.12536 0.55335 0.0
C1657 C 0.49244 0.18266 0.59225 0.0
H1658 H 0.52239 0.12355 0.60099 0.0
C1659 C 0.49298 0.18415 0.56516 0.0
C1660 C 0.5028 0.16278 0.55076 0.0
H1661 H 0.48288 0.19791 0.60297 0.0
H1662 H 0.48393 0.20057 0.55553 0.0
C1663 C 0.51454 0.14185 0.56401 0.0
C1664 C 0.86863 0.32983 0.59847 0.0
C1665 C 0.84186 0.3326 0.61206 0.0
H1666 H 0.88868 0.32548 0.56138 0.0
C1667 C 0.81312 0.33136 0.59824 0.0
H1668 H 0.89082 0.33032 0.60876 0.0
C1669 C 0.8111 0.32703 0.57116 0.0
C1670 C 0.83829 0.32486 0.55761 0.0
H1671 H 0.79184 0.33277 0.60842 0.0
H1672 H 0.78893 0.32641 0.56077 0.0
C1673 C 0.86719 0.32665 0.57147 0.0
C1674 C 0.68392 0.18138 0.09232 0.0
C1675 C 0.65192 0.15835 0.10545 0.0
H1676 H 0.71031 0.19989 0.05571 0.0
C1677 C 0.6206 0.13724 0.09116 0.0
H1678 H 0.70846 0.19778 0.10308 0.0
C1679 C 0.62182 0.13778 0.06396 0.0
C1680 C 0.65426 0.1599 0.05078 0.0
H1681 H 0.59579 0.11901 0.10095 0.0
H1682 H 0.59756 0.12034 0.05326 0.0
C1683 C 0.68502 0.18249 0.06526 0.0
C1684 C 0.81379 0.51865 0.10363 0.0
C1685 C 0.82692 0.49919 0.11722 0.0
H1686 H 0.80402 0.53469 0.06639 0.0
C1687 C 0.8386 0.47904 0.10317 0.0
H1688 H 0.8043 0.53419 0.11404 0.0
C1689 C 0.83906 0.47997 0.07605 0.0
C1690 C 0.82692 0.50023 0.06249 0.0
H1691 H 0.84879 0.4638 0.11311 0.0
H1692 H 0.84952 0.46528 0.06563 0.0
C1693 C 0.81335 0.51878 0.07644 0.0
C1694 C 0.4599 0.33807 0.06914 0.0
C1695 C 0.48485 0.33228 0.05557 0.0
H1696 H 0.44105 0.34411 0.1063 0.0
C1697 C 0.51186 0.33023 0.06944 0.0
H1698 H 0.43901 0.34003 0.05882 0.0
C1699 C 0.51394 0.33414 0.09654 0.0
C1700 C 0.48845 0.33915 0.11006 0.0
H1701 H 0.53172 0.32634 0.05931 0.0
H1702 H 0.53468 0.33207 0.10698 0.0
C1703 C 0.46128 0.34079 0.09618 0.0
C1704 C 0.30306 0.81173 0.91149 0.0
C1705 C 0.33551 0.83236 0.89805 0.0
H1706 H 0.27696 0.79491 0.94843 0.0
C1707 C 0.36763 0.85026 0.91205 0.0
H1708 H 0.27792 0.79763 0.90098 0.0
C1709 C 0.36694 0.84942 0.93924 0.0
C1710 C 0.33423 0.82995 0.95273 0.0
H1711 H 0.39286 0.86648 0.90208 0.0
H1712 H 0.39193 0.8647 0.94973 0.0
C1713 C 0.30246 0.81013 0.93858 0.0
C1714 C 0.18214 0.4768 0.89504 0.0
C1715 C 0.16972 0.49707 0.88166 0.0
H1716 H 0.19077 0.4594 0.93213 0.0
C1717 C 0.15934 0.51811 0.89592 0.0
H1718 H 0.19068 0.4606 0.88448 0.0
C1719 C 0.15898 0.51695 0.92302 0.0
C1720 C 0.16988 0.4955 0.93635 0.0
H1721 H 0.14977 0.53401 0.88617 0.0
H1722 H 0.14902 0.53194 0.93363 0.0
C1723 C 0.18257 0.47633 0.92223 0.0
C1724 C 0.48186 0.6672 0.93162 0.0
C1725 C 0.51137 0.66977 0.94518 0.0
H1726 H 0.4568 0.66117 0.89438 0.0
C1727 C 0.53877 0.66848 0.93133 0.0
H1728 H 0.46009 0.66742 0.94202 0.0
C1729 C 0.53712 0.66537 0.90432 0.0
C1730 C 0.5074 0.66216 0.89073 0.0
H1731 H 0.56155 0.66995 0.94143 0.0
H1732 H 0.55901 0.66523 0.89403 0.0
C1733 C 0.47965 0.66294 0.90455 0.0
C1734 C 0.29217 0.47939 0.42697 0.0
C1735 C 0.3243 0.49779 0.44093 0.0
H1736 H 0.26781 0.46356 0.38937 0.0
C1737 C 0.35677 0.5177 0.42736 0.0
H1738 H 0.2669 0.4637 0.43702 0.0
C1739 C 0.35733 0.5182 0.40024 0.0
C1740 C 0.32552 0.49797 0.3862 0.0
H1741 H 0.38192 0.53218 0.43779 0.0
H1742 H 0.38282 0.533 0.3903 0.0
C1743 C 0.29283 0.47911 0.39978 0.0
C1744 C 0.5009 0.81119 0.43798 0.0
C1745 C 0.49135 0.83272 0.45248 0.0
H1746 H 0.51037 0.79702 0.40015 0.0
C1747 C 0.47995 0.85399 0.43931 0.0
H1748 H 0.50964 0.79447 0.44752 0.0
C1749 C 0.47953 0.85476 0.41211 0.0
C1750 C 0.49116 0.83482 0.3978 0.0
H1751 H 0.47205 0.87059 0.45003 0.0
H1752 H 0.47205 0.87233 0.40236 0.0
C1753 C 0.50121 0.81258 0.41091 0.0
C1754 C 0.17598 0.65998 0.40474 0.0
C1755 C 0.14783 0.65959 0.39068 0.0
H1756 H 0.19926 0.66383 0.44241 0.0
C1757 C 0.12116 0.66281 0.40406 0.0
H1758 H 0.19717 0.65819 0.39474 0.0
C1759 C 0.12212 0.66557 0.43108 0.0
C1760 C 0.15044 0.66647 0.44517 0.0
H1761 H 0.09941 0.66296 0.39358 0.0
H1762 H 0.10071 0.66709 0.441 0.0
C1763 C 0.17754 0.66389 0.43184 0.0
C1764 C 0.05369 0.34566 0.07377 0.0
C1765 C 0.09017 0.36259 0.06688 0.0
H1766 H 0.00845 0.29964 0.08943 0.0
C1767 C 0.10972 0.34589 0.07437 0.0
H1768 H 0.03758 0.35779 0.06957 0.0
C1769 C 0.09368 0.31416 0.0889 0.0
C1770 C 0.05684 0.2965 0.09482 0.0
H1771 H 0.13748 0.35695 0.06899 0.0
H1772 H 0.11055 0.30385 0.0955 0.0
C1773 C 0.03703 0.3125 0.08642 0.0
C1774 C 0.65492 0.76258 0.06548 0.0
C1775 C 0.62764 0.73091 0.07668 0.0
H1776 H 0.71046 0.80352 0.06663 0.0
C1777 C 0.63515 0.71746 0.09915 0.0
H1778 H 0.64978 0.77322 0.04798 0.0
C1779 C 0.66954 0.73496 0.10999 0.0
C1780 C 0.69726 0.76602 0.09838 0.0
H1781 H 0.61446 0.6931 0.10812 0.0
H1782 H 0.67456 0.72397 0.12735 0.0
C1783 C 0.68952 0.77988 0.07616 0.0
C1784 C 0.24428 0.93976 0.07064 0.0
C1785 C 0.22963 0.93223 0.0957 0.0
H1786 H 0.27277 0.92836 0.04147 0.0
C1787 C 0.23243 0.90671 0.11089 0.0
H1788 H 0.24272 0.95968 0.05876 0.0
C1789 C 0.25031 0.88942 0.1013 0.0
C1790 C 0.26509 0.89696 0.0762 0.0
H1791 H 0.22186 0.9011 0.13049 0.0
H1792 H 0.25356 0.87107 0.11383 0.0
C1793 C 0.26163 0.92208 0.06089 0.0
C1794 C 0.30126 0.05376 0.43355 0.0
C1795 C 0.29404 0.06164 0.40864 0.0
H1796 H 0.34125 0.0648 0.46255 0.0
C1797 C 0.32228 0.08747 0.39354 0.0
H1798 H 0.27983 0.0336 0.44535 0.0
C1799 C 0.35748 0.10468 0.40308 0.0
C1800 C 0.36482 0.09677 0.42803 0.0
H1801 H 0.31726 0.09336 0.37405 0.0
H1802 H 0.37903 0.12325 0.3906 0.0
C1803 C 0.33631 0.07138 0.44325 0.0
C1804 C 0.88898 0.23141 0.4373 0.0
C1805 C 0.89336 0.2631 0.42614 0.0
H1806 H 0.90362 0.19051 0.43613 0.0
C1807 C 0.91439 0.27662 0.4037 0.0
H1808 H 0.87315 0.22072 0.45479 0.0
C1809 C 0.93134 0.25917 0.39286 0.0
C1810 C 0.92799 0.2281 0.40444 0.0
H1811 H 0.91806 0.30099 0.39476 0.0
H1812 H 0.94739 0.27022 0.37552 0.0
C1813 C 0.90633 0.21416 0.42662 0.0
C1814 C 0.77589 0.67955 0.41368 0.0
C1815 C 0.75683 0.6973 0.40771 0.0
H1816 H 0.77665 0.6366 0.43353 0.0
C1817 C 0.72095 0.68133 0.41599 0.0
H1818 H 0.80311 0.68985 0.40717 0.0
C1819 C 0.7043 0.6481 0.42857 0.0
C1820 C 0.72373 0.63106 0.43548 0.0
H1821 H 0.70531 0.69427 0.41294 0.0
H1822 H 0.67604 0.63602 0.43271 0.0
C1823 C 0.76003 0.64773 0.42812 0.0
C1824 C 0.89764 0.68191 0.91507 0.0
C1825 C 0.93388 0.69868 0.90743 0.0
H1826 H 0.85477 0.63952 0.93601 0.0
C1827 C 0.95324 0.6814 0.91387 0.0
H1828 H 0.88095 0.69311 0.91015 0.0
C1829 C 0.93651 0.6477 0.92569 0.0
C1830 C 0.9007 0.6315 0.93414 0.0
H1831 H 0.98151 0.69353 0.90988 0.0
H1832 H 0.95208 0.63456 0.92797 0.0
C1833 C 0.88184 0.64975 0.92914 0.0
C1834 C 0.30356 0.21668 0.92681 0.0
C1835 C 0.29564 0.22986 0.90431 0.0
H1836 H 0.34357 0.22419 0.95501 0.0
C1837 C 0.32327 0.26044 0.89217 0.0
H1838 H 0.28268 0.19339 0.93671 0.0
C1839 C 0.35779 0.2782 0.90277 0.0
C1840 C 0.36548 0.2655 0.92555 0.0
H1841 H 0.31807 0.27089 0.8746 0.0
H1842 H 0.37843 0.30217 0.89336 0.0
C1843 C 0.33827 0.23426 0.93727 0.0
C1844 C 0.72514 0.06711 0.94017 0.0
C1845 C 0.72862 0.09831 0.92874 0.0
H1846 H 0.73832 0.02523 0.93805 0.0
C1847 C 0.75056 0.11255 0.90671 0.0
H1848 H 0.70885 0.05582 0.95738 0.0
C1849 C 0.76808 0.09548 0.89605 0.0
C1850 C 0.76348 0.06363 0.90702 0.0
H1851 H 0.75331 0.13628 0.89729 0.0
H1852 H 0.78412 0.10639 0.87868 0.0
C1853 C 0.74218 0.04978 0.92929 0.0
C1854 C 0.65219 0.89036 0.56432 0.0
C1855 C 0.62498 0.89404 0.57648 0.0
H1856 H 0.70812 0.90621 0.56393 0.0
C1857 C 0.63307 0.91495 0.59904 0.0
H1858 H 0.64655 0.87453 0.54677 0.0
C1859 C 0.66793 0.93253 0.60901 0.0
C1860 C 0.69554 0.92997 0.59641 0.0
H1861 H 0.61243 0.91795 0.60882 0.0
H1862 H 0.67338 0.9485 0.62646 0.0
C1863 C 0.68728 0.90837 0.57414 0.0
C1864 C 0.08301 0.77714 0.57688 0.0
C1865 C 0.06193 0.76355 0.59936 0.0
H1866 H 0.11541 0.77009 0.5483 0.0
C1867 C 0.05879 0.7326 0.61101 0.0
H1868 H 0.08548 0.80064 0.56729 0.0
C1869 C 0.07532 0.71488 0.59992 0.0
C1870 C 0.09576 0.72808 0.57721 0.0
H1871 H 0.04314 0.7218 0.62855 0.0
H1872 H 0.07175 0.69057 0.60889 0.0
C1873 C 0.10002 0.75968 0.56599 0.0
C1874 C 0.26997 0.313 0.5883 0.0
C1875 C 0.23429 0.29708 0.59699 0.0
H1876 H 0.31502 0.35865 0.57237 0.0
C1877 C 0.21555 0.31546 0.59208 0.0
H1878 H 0.28539 0.29967 0.59045 0.0
C1879 C 0.23142 0.3476 0.578 0.0
C1880 C 0.26762 0.36425 0.57029 0.0
H1881 H 0.18856 0.30538 0.59907 0.0
H1882 H 0.21481 0.35894 0.57318 0.0
C1883 C 0.28681 0.3467 0.57648 0.0
C1884 C 0.02491 0.43869 0.73389 0.0
C1885 C 0.03246 0.43099 0.75884 0.0
H1886 H 0.98436 0.42752 0.70517 0.0
C1887 C 0.00402 0.40609 0.77436 0.0
H1888 H 0.04637 0.45689 0.7212 0.0
C1889 C 0.96882 0.38878 0.76497 0.0
C1890 C 0.96137 0.39648 0.74006 0.0
H1891 H 0.00912 0.3997 0.79367 0.0
H1892 H 0.94743 0.36903 0.77701 0.0
C1893 C 0.98956 0.42179 0.72466 0.0
C1894 C 0.58168 0.55455 0.76823 0.0
C1895 C 0.59742 0.56254 0.74343 0.0
H1896 H 0.5523 0.56584 0.79688 0.0
C1897 C 0.59475 0.58813 0.72813 0.0
H1898 H 0.58428 0.53583 0.78077 0.0
C1899 C 0.57728 0.60585 0.73758 0.0
C1900 C 0.56167 0.59787 0.76234 0.0
H1901 H 0.60661 0.59476 0.70893 0.0
H1902 H 0.57631 0.62609 0.7257 0.0
C1903 C 0.56364 0.57186 0.77752 0.0
C1904 C 0.36932 0.98039 0.75836 0.0
C1905 C 0.389 0.96408 0.76641 0.0
H1906 H 0.37003 0.02553 0.74096 0.0
C1907 C 0.42555 0.98101 0.75972 0.0
H1908 H 0.34093 0.96805 0.76209 0.0
C1909 C 0.44147 0.01235 0.74479 0.0
C1910 C 0.42209 0.0293 0.73752 0.0
H1911 H 0.44228 0.97038 0.76606 0.0
H1912 H 0.46899 0.02293 0.73889 0.0
C1913 C 0.38591 0.01312 0.74511 0.0
C1914 C 0.56537 0.01329 0.2447 0.0
C1915 C 0.60188 0.03043 0.23787 0.0
H1916 H 0.52215 0.97085 0.26535 0.0
C1917 C 0.62176 0.01419 0.24559 0.0
H1918 H 0.54853 0.02391 0.23867 0.0
C1919 C 0.60537 0.98122 0.25849 0.0
C1920 C 0.5692 0.96471 0.26614 0.0
H1921 H 0.65016 0.02673 0.2418 0.0
H1922 H 0.62139 0.96886 0.26229 0.0
C1923 C 0.54965 0.98166 0.25933 0.0
C1924 C 0.96742 0.55438 0.26658 0.0
C1925 C 0.96043 0.56275 0.24167 0.0
H1926 H 0.00732 0.5648 0.29568 0.0
C1927 C 0.9892 0.58804 0.2266 0.0
H1928 H 0.94567 0.53586 0.27893 0.0
C1929 C 0.02419 0.6051 0.2364 0.0
C1930 C 0.03107 0.59676 0.26127 0.0
H1931 H 0.98454 0.59493 0.20732 0.0
H1932 H 0.04584 0.62519 0.22471 0.0
C1933 C 0.00255 0.57104 0.27622 0.0
C1934 C 0.42642 0.42235 0.22566 0.0
C1935 C 0.43027 0.39711 0.24042 0.0
H1936 H 0.40425 0.45719 0.22373 0.0
C1937 C 0.41621 0.38908 0.26565 0.0
H1938 H 0.4365 0.42833 0.20594 0.0
C1939 C 0.39854 0.40611 0.27603 0.0
C1940 C 0.39418 0.43106 0.26121 0.0
H1941 H 0.41858 0.36935 0.2772 0.0
H1942 H 0.38795 0.39952 0.29559 0.0
C1943 C 0.40822 0.43897 0.23589 0.0
C1944 C 0.85858 0.18339 0.17806 0.0
C1945 C 0.86104 0.17019 0.15361 0.0
H1946 H 0.82428 0.18522 0.20727 0.0
C1947 C 0.82945 0.14783 0.1398 0.0
H1948 H 0.88241 0.20043 0.18931 0.0
C1949 C 0.79608 0.13877 0.15025 0.0
C1950 C 0.79363 0.15197 0.1747 0.0
H1951 H 0.83041 0.13691 0.12105 0.0
H1952 H 0.77223 0.12174 0.13901 0.0
C1953 C 0.82522 0.1743 0.18851 0.0
C1954 C 0.85851 0.66443 0.18202 0.0
C1955 C 0.82863 0.63243 0.17362 0.0
H1956 H 0.88414 0.72154 0.18367 0.0
C1957 C 0.80108 0.6339 0.16 0.0
H1958 H 0.88016 0.66412 0.19252 0.0
C1959 C 0.80334 0.66674 0.15488 0.0
C1960 C 0.83319 0.69874 0.1633 0.0
H1961 H 0.77769 0.60966 0.15325 0.0
H1962 H 0.78166 0.66702 0.1444 0.0
C1963 C 0.86077 0.69729 0.1769 0.0
C1964 C 0.3502 0.16329 0.18897 0.0
C1965 C 0.35607 0.19679 0.18053 0.0
H1966 H 0.32244 0.10671 0.18267 0.0
C1967 C 0.33793 0.19855 0.15837 0.0
H1968 H 0.36411 0.16108 0.20577 0.0
C1969 C 0.31447 0.16745 0.14489 0.0
C1970 C 0.30851 0.13394 0.15337 0.0
H1971 H 0.34216 0.22402 0.15121 0.0
H1972 H 0.30054 0.16967 0.1281 0.0
C1973 C 0.3267 0.13218 0.1755 0.0
C1974 C 0.19266 0.86307 0.3274 0.0
C1975 C 0.17145 0.8601 0.34906 0.0
H1976 H 0.20277 0.8359 0.29669 0.0
C1977 C 0.14322 0.82619 0.35618 0.0
H1978 H 0.21442 0.8889 0.32126 0.0
C1979 C 0.13619 0.79591 0.34184 0.0
C1980 C 0.1574 0.79888 0.32017 0.0
H1981 H 0.12609 0.82305 0.37256 0.0
H1982 H 0.11442 0.7701 0.34798 0.0
C1983 C 0.18566 0.83277 0.31307 0.0
C1984 C 0.16466 0.36079 0.34415 0.0
C1985 C 0.19387 0.36239 0.33069 0.0
H1986 H 0.11184 0.3275 0.35928 0.0
C1987 C 0.19185 0.33047 0.32221 0.0
H1988 H 0.16543 0.38496 0.35098 0.0
C1989 C 0.16114 0.29756 0.32701 0.0
C1990 C 0.13188 0.29597 0.34038 0.0
H1991 H 0.21395 0.33088 0.31184 0.0
H1992 H 0.16034 0.27339 0.32015 0.0
C1993 C 0.13396 0.32788 0.34895 0.0
C1994 C 0.67282 0.81123 0.3245 0.0
C1995 C 0.68819 0.82387 0.3491 0.0
H1996 H 0.63716 0.81021 0.29522 0.0
C1997 C 0.67898 0.84609 0.36312 0.0
H1998 H 0.67962 0.79432 0.31309 0.0
C1999 C 0.65494 0.85554 0.35272 0.0
C2000 C 0.63957 0.84289 0.32813 0.0
H2001 H 0.69065 0.85658 0.38199 0.0
H2002 H 0.64811 0.87243 0.36413 0.0
C2003 C 0.64883 0.82072 0.3141 0.0
C2004 C 0.16476 0.82054 0.81402 0.0
C2005 C 0.19625 0.8423 0.8281 0.0
H2006 H 0.10762 0.79507 0.81286 0.0
C2007 C 0.19371 0.85517 0.85266 0.0
H2008 H 0.16578 0.80989 0.79516 0.0
C2009 C 0.16032 0.84634 0.86295 0.0
C2010 C 0.12882 0.82454 0.84887 0.0
H2011 H 0.21748 0.87177 0.8641 0.0
H2012 H 0.15928 0.85699 0.8818 0.0
C2013 C 0.13138 0.81168 0.82432 0.0
C2014 C 0.19073 0.3291 0.84605 0.0
C2015 C 0.16043 0.29698 0.83836 0.0
H2016 H 0.21713 0.38627 0.84632 0.0
C2017 C 0.13283 0.29828 0.82469 0.0
H2018 H 0.21244 0.32894 0.85656 0.0
C2019 C 0.1355 0.33111 0.81877 0.0
C2020 C 0.16583 0.36324 0.82641 0.0
H2021 H 0.10912 0.27393 0.81848 0.0
H2022 H 0.1138 0.33129 0.80824 0.0
C2023 C 0.19341 0.36193 0.84012 0.0
C2024 C 0.66684 0.86606 0.82268 0.0
C2025 C 0.68483 0.86447 0.84498 0.0
H2026 H 0.62957 0.83689 0.79239 0.0
C2027 C 0.67876 0.83102 0.85371 0.0
H2028 H 0.67121 0.89149 0.81532 0.0
C2029 C 0.65536 0.79981 0.84032 0.0
C2030 C 0.63734 0.80138 0.81803 0.0
H2031 H 0.69255 0.82893 0.87063 0.0
H2032 H 0.65104 0.7744 0.8477 0.0
C2033 C 0.64337 0.83482 0.80931 0.0
C2034 C 0.85351 0.16954 0.64474 0.0
C2035 C 0.82529 0.13509 0.65068 0.0
H2036 H 0.88077 0.22524 0.65431 0.0
C2037 C 0.80251 0.13066 0.67165 0.0
H2038 H 0.8718 0.17379 0.62892 0.0
C2039 C 0.80795 0.16008 0.68646 0.0
C2040 C 0.83618 0.19454 0.68051 0.0
H2041 H 0.7807 0.10438 0.67689 0.0
H2042 H 0.78966 0.15584 0.70228 0.0
C2043 C 0.85896 0.19896 0.65955 0.0
C2044 C 0.85796 0.6644 0.65764 0.0
C2045 C 0.85952 0.69647 0.66512 0.0
H2046 H 0.82739 0.60722 0.65739 0.0
C2047 C 0.83036 0.69507 0.6785 0.0
H2048 H 0.88004 0.66465 0.64736 0.0
C2049 C 0.8002 0.66218 0.68431 0.0
C2050 C 0.79866 0.63012 0.67683 0.0
H2051 H 0.8308 0.71938 0.68456 0.0
H2052 H 0.77811 0.66192 0.69459 0.0
C2053 C 0.82781 0.63152 0.66345 0.0
C2054 C 0.34293 0.17201 0.68804 0.0
C2055 C 0.35227 0.1498 0.67417 0.0
H2056 H 0.31193 0.19817 0.68885 0.0
C2057 C 0.33682 0.13679 0.64964 0.0
H2058 H 0.35467 0.1828 0.70685 0.0
C2059 C 0.31258 0.14592 0.63917 0.0
C2060 C 0.30329 0.16819 0.65304 0.0
H2061 H 0.34372 0.11984 0.63837 0.0
H2062 H 0.30082 0.13515 0.62037 0.0
C2063 C 0.31877 0.1812 0.67756 0.0
C2064 C 0.49401 0.51192 0.52952 0.0
C2065 C 0.46315 0.49107 0.51454 0.0
H2066 H 0.55104 0.53674 0.53207 0.0
C2067 C 0.46675 0.4793 0.48983 0.0
H2068 H 0.49218 0.52172 0.54852 0.0
C2069 C 0.50052 0.4883 0.48026 0.0
C2070 C 0.53138 0.50911 0.49524 0.0
H2071 H 0.44351 0.46344 0.4777 0.0
H2072 H 0.50234 0.47849 0.46126 0.0
C2073 C 0.52779 0.5209 0.51995 0.0
C2074 C 0.46672 0.99686 0.48937 0.0
C2075 C 0.49753 0.029 0.49632 0.0
H2076 H 0.43952 0.93966 0.49028 0.0
C2077 C 0.52508 0.02771 0.51008 0.0
H2078 H 0.44502 0.99703 0.47884 0.0
C2079 C 0.52192 0.99488 0.51673 0.0
C2080 C 0.49117 0.96274 0.5097 0.0
H2081 H 0.54915 0.05207 0.51578 0.0
H2082 H 0.54365 0.99472 0.52722 0.0
C2083 C 0.46357 0.96403 0.49601 0.0
C2084 C 0.98748 0.46267 0.50931 0.0
C2085 C 0.96961 0.46486 0.48714 0.0
H2086 H 0.0242 0.49091 0.54009 0.0
C2087 C 0.97533 0.49849 0.47918 0.0
H2088 H 0.98337 0.4371 0.51612 0.0
C2089 C -0.00163 0.52929 0.49315 0.0
C2090 C 0.01626 0.5271 0.51531 0.0
H2091 H 0.96163 0.50103 0.46238 0.0
H2092 H 0.00251 0.55488 0.48634 0.0
C2093 C 0.01049 0.49347 0.52329 0.0
C2094 C 0.46924 0.46556 0.00607 0.0
C2095 C 0.49092 0.46903 0.98459 0.0
H2096 H 0.45821 0.49205 0.03678 0.0
C2097 C 0.51901 0.50317 0.97777 0.0
H2098 H 0.44756 0.43956 0.01198 0.0
C2099 C 0.52544 0.5332 0.99224 0.0
C2100 C 0.50379 0.52972 0.01374 0.0
H2101 H 0.53648 0.5067 0.96153 0.0
H2102 H 0.54712 0.5592 0.98633 0.0
C2103 C 0.47566 0.49559 0.02053 0.0
C2104 C 0.52316 -0.00228 0.98612 0.0
C2105 C 0.52472 0.02993 0.99321 0.0
H2106 H 0.49291 0.94053 0.98694 0.0
C2107 C 0.49586 0.02877 0.00685 0.0
H2108 H 0.54502 -0.00221 0.97565 0.0
C2109 C 0.46603 0.99599 0.0134 0.0
C2110 C 0.46453 0.96379 0.0064 0.0
H2111 H 0.4963 0.05318 0.01261 0.0
H2112 H 0.44419 0.99592 0.02391 0.0
C2113 C 0.49333 0.96495 0.99267 0.0
C2114 C 0.00971 0.50498 0.02217 0.0
C2115 C 0.01953 0.48387 0.00734 0.0
H2116 H 0.97779 0.5301 0.02453 0.0
C2117 C 0.00394 0.47174 0.98273 0.0
H2118 H 0.0215 0.51506 0.04108 0.0
C2119 C 0.97914 0.48068 0.97311 0.0
C2120 C 0.96941 0.50188 0.98791 0.0
H2121 H 0.01117 0.45564 0.97074 0.0
H2122 H 0.96735 0.47063 0.95419 0.0
C2123 C 0.98497 0.51398 0.01253 0.0
loop_
_geom_bond_atom_site_label_1
_geom_bond_atom_site_label_2
_geom_bond_distance
_geom_bond_site_symmetry_2
_ccdc_geom_bond_type
Co0 O3 1.970 . S
Co0 N17 1.976 1_655 S
Co0 O25 1.967 . S
Co0 O32 1.920 . S
Co1 O4 1.966 1_455 S
Co1 N10 2.022 . S
Co1 N18 1.993 . S
Co1 O26 1.941 . S
C2 O3 1.258 . S
C2 O4 1.263 . S
O3 Co0 1.970 . S
O3 C2 1.258 . S
O4 Co1 1.966 1_655 S
O4 C2 1.263 . S
C5 O6 1.235 . S
C5 O32 1.289 . S
O6 C5 1.235 . S
C7 C9 1.400 . S
C7 N10 1.351 . S
C7 C12 1.501 . S
C8 C9 1.387 . S
C8 N11 1.341 . S
C9 C7 1.400 . S
C9 C8 1.387 . S
N10 Co1 2.022 . S
N10 C7 1.351 . S
N10 N11 1.365 . S
N11 C8 1.341 . S
N11 N10 1.365 . S
N11 H31 0.862 . S
C12 C7 1.501 . S
C12 H13 0.961 . S
C12 H14 0.961 . S
C12 H15 0.960 . S
H13 C12 0.961 . S
H14 C12 0.961 . S
H15 C12 0.960 . S
C16 N17 1.336 . S
C16 C20 1.401 . S
C16 C21 1.499 1_455 S
N17 Co0 1.976 1_455 S
N17 C16 1.336 . S
N17 N18 1.412 . S
N18 Co1 1.993 . S
N18 N17 1.412 . S
N18 C19 1.346 . S
C19 N18 1.346 . S
C19 C20 1.396 . S
C19 C29 1.510 . S
C20 C16 1.401 . S
C20 C19 1.396 . S
C21 C16 1.499 1_655 S
C21 H22 0.959 . S
C21 H23 0.960 . S
C21 H24 0.961 . S
H22 C21 0.959 . S
H23 C21 0.960 . S
H24 C21 0.961 . S
O25 Co0 1.967 . S
O25 C33 1.258 1_655 S
O26 Co1 1.941 . S
O26 C33 1.266 . S
H27 C29 0.959 . S
H28 C29 0.961 . S
C29 C19 1.510 . S
C29 H27 0.959 . S
C29 H28 0.961 . S
C29 H30 0.960 . S
H30 C29 0.960 . S
H31 N11 0.862 . S
O32 Co0 1.920 . S
O32 C5 1.289 . S
C33 O25 1.258 1_455 S
C33 O26 1.266 . S
Co34 O37 1.970 . S
Co34 N51 1.989 . S
Co34 O59 1.967 . S
Co34 O66 1.920 . S
Co35 O38 1.966 . S
Co35 N44 2.022 . S
Co35 N52 1.993 . S
Co35 O60 1.941 . S
C36 O37 1.258 . S
C36 O38 1.263 . S
O37 Co34 1.970 . S
O37 C36 1.258 . S
O38 Co35 1.966 . S
O38 C36 1.263 . S
C39 O40 1.235 . S
C39 O66 1.289 . S
O40 C39 1.235 . S
C41 C43 1.400 . S
C41 N44 1.351 . S
C41 C46 1.501 . S
C42 C43 1.387 . S
C42 N45 1.341 . S
C43 C41 1.400 . S
C43 C42 1.387 . S
N44 Co35 2.022 . S
N44 C41 1.351 . S
N44 N45 1.365 . S
N45 C42 1.341 . S
N45 N44 1.365 . S
N45 H65 0.862 . S
C46 C41 1.501 . S
C46 H47 0.961 . S
C46 H48 0.961 . S
C46 H49 0.960 . S
H47 C46 0.961 . S
H48 C46 0.961 . S
H49 C46 0.960 . S
C50 N51 1.342 . S
C50 C54 1.401 . S
C50 C55 1.499 . S
N51 Co34 1.989 . S
N51 C50 1.342 . S
N51 N52 1.388 . S
N52 Co35 1.993 . S
N52 N51 1.388 . S
N52 C53 1.346 . S
C53 N52 1.346 . S
C53 C54 1.396 . S
C53 C63 1.510 . S
C54 C50 1.401 . S
C54 C53 1.396 . S
C55 C50 1.499 . S
C55 H56 0.959 . S
C55 H57 0.960 . S
C55 H58 0.961 . S
H56 C55 0.959 . S
H57 C55 0.960 . S
H58 C55 0.961 . S
O59 Co34 1.967 . S
O59 C67 1.258 . S
O60 Co35 1.941 . S
O60 C67 1.266 . S
H61 C63 0.959 . S
H62 C63 0.961 . S
C63 C53 1.510 . S
C63 H61 0.959 . S
C63 H62 0.961 . S
C63 H64 0.960 . S
H64 C63 0.960 . S
H65 N45 0.862 . S
O66 Co34 1.920 . S
O66 C39 1.289 . S
C67 O59 1.258 . S
C67 O60 1.266 . S
Co68 O71 1.970 . S
Co68 N85 1.969 1_545 S
Co68 O93 1.967 . S
Co68 O100 1.920 . S
Co69 O72 1.966 1_565 S
Co69 N78 2.022 . S
Co69 N86 1.993 . S
Co69 O94 1.941 . S
C70 O71 1.258 . S
C70 O72 1.263 . S
O71 Co68 1.970 . S
O71 C70 1.258 . S
O72 Co69 1.966 1_545 S
O72 C70 1.263 . S
C73 O74 1.235 . S
C73 O100 1.289 . S
O74 C73 1.235 . S
C75 C77 1.400 . S
C75 N78 1.351 . S
C75 C80 1.501 . S
C76 C77 1.387 . S
C76 N79 1.341 . S
C77 C75 1.400 . S
C77 C76 1.387 . S
N78 Co69 2.022 . S
N78 C75 1.351 . S
N78 N79 1.365 . S
N79 C76 1.341 . S
N79 N78 1.365 . S
N79 H99 0.862 . S
C80 C75 1.501 . S
C80 H81 0.961 . S
C80 H82 0.961 . S
C80 H83 0.960 . S
H81 C80 0.961 . S
H82 C80 0.961 . S
H83 C80 0.960 . S
C84 N85 1.357 . S
C84 C88 1.401 . S
C84 C89 1.499 1_565 S
N85 Co68 1.969 1_565 S
N85 C84 1.357 . S
N85 N86 1.397 . S
N86 Co69 1.993 . S
N86 N85 1.397 . S
N86 C87 1.346 . S
C87 N86 1.346 . S
C87 C88 1.396 . S
C87 C97 1.510 . S
C88 C84 1.401 . S
C88 C87 1.396 . S
C89 C84 1.499 1_545 S
C89 H90 0.959 . S
C89 H91 0.960 . S
C89 H92 0.961 . S
H90 C89 0.959 . S
H91 C89 0.960 . S
H92 C89 0.961 . S
O93 Co68 1.967 . S
O93 C101 1.258 1_545 S
O94 Co69 1.941 . S
O94 C101 1.266 . S
H95 C97 0.959 . S
H96 C97 0.961 . S
C97 C87 1.510 . S
C97 H95 0.959 . S
C97 H96 0.961 . S
C97 H98 0.960 . S
H98 C97 0.960 . S
H99 N79 0.862 . S
O100 Co68 1.920 . S
O100 C73 1.289 . S
C101 O93 1.258 1_565 S
C101 O94 1.266 . S
Co102 O105 1.970 . S
Co102 N119 1.977 1_565 S
Co102 O127 1.967 . S
Co102 O134 1.920 . S
Co103 O106 1.966 1_545 S
Co103 N112 2.022 . S
Co103 N120 1.993 . S
Co103 O128 1.941 . S
C104 O105 1.258 . S
C104 O106 1.263 . S
O105 Co102 1.970 . S
O105 C104 1.258 . S
O106 Co103 1.966 1_565 S
O106 C104 1.263 . S
C107 O108 1.235 . S
C107 O134 1.289 . S
O108 C107 1.235 . S
C109 C111 1.400 . S
C109 N112 1.351 . S
C109 C114 1.501 . S
C110 C111 1.387 . S
C110 N113 1.341 . S
C111 C109 1.400 . S
C111 C110 1.387 . S
N112 Co103 2.022 . S
N112 C109 1.351 . S
N112 N113 1.365 . S
N113 C110 1.341 . S
N113 N112 1.365 . S
N113 H133 0.862 . S
C114 C109 1.501 . S
C114 H115 0.961 . S
C114 H116 0.961 . S
C114 H117 0.960 . S
H115 C114 0.961 . S
H116 C114 0.961 . S
H117 C114 0.960 . S
C118 N119 1.336 . S
C118 C122 1.401 . S
C118 C123 1.499 1_545 S
N119 Co102 1.977 1_545 S
N119 C118 1.336 . S
N119 N120 1.412 . S
N120 Co103 1.993 . S
N120 N119 1.412 . S
N120 C121 1.346 . S
C121 N120 1.346 . S
C121 C122 1.396 . S
C121 C131 1.510 . S
C122 C118 1.401 . S
C122 C121 1.396 . S
C123 C118 1.499 1_565 S
C123 H124 0.959 . S
C123 H125 0.960 . S
C123 H126 0.961 . S
H124 C123 0.959 . S
H125 C123 0.960 . S
H126 C123 0.961 . S
O127 Co102 1.967 . S
O127 C135 1.258 1_565 S
O128 Co103 1.941 . S
O128 C135 1.266 . S
H129 C131 0.959 . S
H130 C131 0.961 . S
C131 C121 1.510 . S
C131 H129 0.959 . S
C131 H130 0.961 . S
C131 H132 0.960 . S
H132 C131 0.960 . S
H133 N113 0.862 . S
O134 Co102 1.920 . S
O134 C107 1.289 . S
C135 O127 1.258 1_545 S
C135 O128 1.266 . S
Co136 O139 1.970 . S
Co136 N153 1.969 1_455 S
Co136 O161 1.967 . S
Co136 O168 1.920 . S
Co137 O140 1.966 1_655 S
Co137 N146 2.022 . S
Co137 N154 1.993 . S
Co137 O162 1.941 . S
C138 O139 1.258 . S
C138 O140 1.263 . S
O139 Co136 1.970 . S
O139 C138 1.258 . S
O140 Co137 1.966 1_455 S
O140 C138 1.263 . S
C141 O142 1.235 . S
C141 O168 1.289 . S
O142 C141 1.235 . S
C143 C145 1.400 . S
C143 N146 1.351 . S
C143 C148 1.501 . S
C144 C145 1.387 . S
C144 N147 1.341 . S
C145 C143 1.400 . S
C145 C144 1.387 . S
N146 Co137 2.022 . S
N146 C143 1.351 . S
N146 N147 1.365 . S
N147 C144 1.341 . S
N147 N146 1.365 . S
N147 H167 0.862 . S
C148 C143 1.501 . S
C148 H149 0.961 . S
C148 H150 0.961 . S
C148 H151 0.960 . S
H149 C148 0.961 . S
H150 C148 0.961 . S
H151 C148 0.960 . S
C152 N153 1.357 . S
C152 C156 1.401 . S
C152 C157 1.499 1_655 S
N153 Co136 1.969 1_655 S
N153 C152 1.357 . S
N153 N154 1.397 . S
N154 Co137 1.993 . S
N154 N153 1.397 . S
N154 C155 1.346 . S
C155 N154 1.346 . S
C155 C156 1.396 . S
C155 C165 1.510 . S
C156 C152 1.401 . S
C156 C155 1.396 . S
C157 C152 1.499 1_455 S
C157 H158 0.959 . S
C157 H159 0.960 . S
C157 H160 0.961 . S
H158 C157 0.959 . S
H159 C157 0.960 . S
H160 C157 0.961 . S
O161 Co136 1.967 . S
O161 C169 1.258 1_455 S
O162 Co137 1.941 . S
O162 C169 1.266 . S
H163 C165 0.959 . S
H164 C165 0.961 . S
C165 C155 1.510 . S
C165 H163 0.959 . S
C165 H164 0.961 . S
C165 H166 0.960 . S
H166 C165 0.960 . S
H167 N147 0.862 . S
O168 Co136 1.920 . S
O168 C141 1.289 . S
C169 O161 1.258 1_655 S
C169 O162 1.266 . S
Co170 O173 1.970 . S
Co170 N187 1.989 . S
Co170 O195 1.967 . S
Co170 O202 1.920 . S
Co171 O174 1.966 . S
Co171 N180 2.022 . S
Co171 N188 1.993 . S
Co171 O196 1.941 . S
C172 O173 1.258 . S
C172 O174 1.263 . S
O173 Co170 1.970 . S
O173 C172 1.258 . S
O174 Co171 1.966 . S
O174 C172 1.263 . S
C175 O176 1.235 . S
C175 O202 1.289 . S
O176 C175 1.235 . S
C177 C179 1.400 . S
C177 N180 1.351 . S
C177 C182 1.501 . S
C178 C179 1.387 . S
C178 N181 1.341 . S
C179 C177 1.400 . S
C179 C178 1.387 . S
N180 Co171 2.022 . S
N180 C177 1.351 . S
N180 N181 1.365 . S
N181 C178 1.341 . S
N181 N180 1.365 . S
N181 H201 0.862 . S
C182 C177 1.501 . S
C182 H183 0.961 . S
C182 H184 0.961 . S
C182 H185 0.960 . S
H183 C182 0.961 . S
H184 C182 0.961 . S
H185 C182 0.960 . S
C186 N187 1.342 . S
C186 C190 1.401 . S
C186 C191 1.499 . S
N187 Co170 1.989 . S
N187 C186 1.342 . S
N187 N188 1.388 . S
N188 Co171 1.993 . S
N188 N187 1.388 . S
N188 C189 1.346 . S
C189 N188 1.346 . S
C189 C190 1.396 . S
C189 C199 1.510 . S
C190 C186 1.401 . S
C190 C189 1.396 . S
C191 C186 1.499 . S
C191 H192 0.959 . S
C191 H193 0.960 . S
C191 H194 0.961 . S
H192 C191 0.959 . S
H193 C191 0.960 . S
H194 C191 0.961 . S
O195 Co170 1.967 . S
O195 C203 1.258 . S
O196 Co171 1.941 . S
O196 C203 1.266 . S
H197 C199 0.959 . S
H198 C199 0.961 . S
C199 C189 1.510 . S
C199 H197 0.959 . S
C199 H198 0.961 . S
C199 H200 0.960 . S
H200 C199 0.960 . S
H201 N181 0.862 . S
O202 Co170 1.920 . S
O202 C175 1.289 . S
C203 O195 1.258 . S
C203 O196 1.266 . S
Co204 O207 1.970 . S
Co204 N221 1.976 1_455 S
Co204 O229 1.967 . S
Co204 O236 1.920 . S
Co205 O208 1.966 1_655 S
Co205 N214 2.022 . S
Co205 N222 1.993 . S
Co205 O230 1.941 . S
C206 O207 1.258 . S
C206 O208 1.263 . S
O207 Co204 1.970 . S
O207 C206 1.258 . S
O208 Co205 1.966 1_455 S
O208 C206 1.263 . S
C209 O210 1.235 . S
C209 O236 1.289 . S
O210 C209 1.235 . S
C211 C213 1.400 . S
C211 N214 1.351 . S
C211 C216 1.501 . S
C212 C213 1.387 . S
C212 N215 1.341 . S
C213 C211 1.400 . S
C213 C212 1.387 . S
N214 Co205 2.022 . S
N214 C211 1.351 . S
N214 N215 1.365 . S
N215 C212 1.341 . S
N215 N214 1.365 . S
N215 H235 0.862 . S
C216 C211 1.501 . S
C216 H217 0.961 . S
C216 H218 0.961 . S
C216 H219 0.960 . S
H217 C216 0.961 . S
H218 C216 0.961 . S
H219 C216 0.960 . S
C220 N221 1.336 . S
C220 C224 1.401 . S
C220 C225 1.499 1_655 S
N221 Co204 1.976 1_655 S
N221 C220 1.336 . S
N221 N222 1.412 . S
N222 Co205 1.993 . S
N222 N221 1.412 . S
N222 C223 1.346 . S
C223 N222 1.346 . S
C223 C224 1.396 . S
C223 C233 1.510 . S
C224 C220 1.401 . S
C224 C223 1.396 . S
C225 C220 1.499 1_455 S
C225 H226 0.959 . S
C225 H227 0.960 . S
C225 H228 0.961 . S
H226 C225 0.959 . S
H227 C225 0.960 . S
H228 C225 0.961 . S
O229 Co204 1.967 . S
O229 C237 1.258 1_455 S
O230 Co205 1.941 . S
O230 C237 1.266 . S
H231 C233 0.959 . S
H232 C233 0.961 . S
C233 C223 1.510 . S
C233 H231 0.959 . S
C233 H232 0.961 . S
C233 H234 0.960 . S
H234 C233 0.960 . S
H235 N215 0.862 . S
O236 Co204 1.920 . S
O236 C209 1.289 . S
C237 O229 1.258 1_655 S
C237 O230 1.266 . S
Co238 O241 1.970 . S
Co238 N255 1.989 . S
Co238 O263 1.967 . S
Co238 O270 1.920 . S
Co239 O242 1.966 . S
Co239 N248 2.022 . S
Co239 N256 1.993 . S
Co239 O264 1.941 . S
C240 O241 1.258 . S
C240 O242 1.263 . S
O241 Co238 1.970 . S
O241 C240 1.258 . S
O242 Co239 1.966 . S
O242 C240 1.263 . S
C243 O244 1.235 . S
C243 O270 1.289 . S
O244 C243 1.235 . S
C245 C247 1.400 . S
C245 N248 1.351 . S
C245 C250 1.501 . S
C246 C247 1.387 . S
C246 N249 1.341 . S
C247 C245 1.400 . S
C247 C246 1.387 . S
N248 Co239 2.022 . S
N248 C245 1.351 . S
N248 N249 1.365 . S
N249 C246 1.341 . S
N249 N248 1.365 . S
N249 H269 0.862 . S
C250 C245 1.501 . S
C250 H251 0.961 . S
C250 H252 0.961 . S
C250 H253 0.960 . S
H251 C250 0.961 . S
H252 C250 0.961 . S
H253 C250 0.960 . S
C254 N255 1.342 . S
C254 C258 1.401 . S
C254 C259 1.499 . S
N255 Co238 1.989 . S
N255 C254 1.342 . S
N255 N256 1.388 . S
N256 Co239 1.993 . S
N256 N255 1.388 . S
N256 C257 1.346 . S
C257 N256 1.346 . S
C257 C258 1.396 . S
C257 C267 1.510 . S
C258 C254 1.401 . S
C258 C257 1.396 . S
C259 C254 1.499 . S
C259 H260 0.959 . S
C259 H261 0.960 . S
C259 H262 0.961 . S
H260 C259 0.959 . S
H261 C259 0.960 . S
H262 C259 0.961 . S
O263 Co238 1.967 . S
O263 C271 1.258 . S
O264 Co239 1.941 . S
O264 C271 1.266 . S
H265 C267 0.959 . S
H266 C267 0.961 . S
C267 C257 1.510 . S
C267 H265 0.959 . S
C267 H266 0.961 . S
C267 H268 0.960 . S
H268 C267 0.960 . S
H269 N249 0.862 . S
O270 Co238 1.920 . S
O270 C243 1.289 . S
C271 O263 1.258 . S
C271 O264 1.266 . S
Co272 O275 1.970 . S
Co272 N289 1.969 1_565 S
Co272 O297 1.967 . S
Co272 O304 1.920 . S
Co273 O276 1.966 1_545 S
Co273 N282 2.022 . S
Co273 N290 1.993 . S
Co273 O298 1.941 . S
C274 O275 1.258 . S
C274 O276 1.263 . S
O275 Co272 1.970 . S
O275 C274 1.258 . S
O276 Co273 1.966 1_565 S
O276 C274 1.263 . S
C277 O278 1.235 . S
C277 O304 1.289 . S
O278 C277 1.235 . S
C279 C281 1.400 . S
C279 N282 1.351 . S
C279 C284 1.501 . S
C280 C281 1.387 . S
C280 N283 1.341 . S
C281 C279 1.400 . S
C281 C280 1.387 . S
N282 Co273 2.022 . S
N282 C279 1.351 . S
N282 N283 1.365 . S
N283 C280 1.341 . S
N283 N282 1.365 . S
N283 H303 0.862 . S
C284 C279 1.501 . S
C284 H285 0.961 . S
C284 H286 0.961 . S
C284 H287 0.960 . S
H285 C284 0.961 . S
H286 C284 0.961 . S
H287 C284 0.960 . S
C288 N289 1.357 . S
C288 C292 1.401 . S
C288 C293 1.499 1_545 S
N289 Co272 1.969 1_545 S
N289 C288 1.357 . S
N289 N290 1.397 . S
N290 Co273 1.993 . S
N290 N289 1.397 . S
N290 C291 1.346 . S
C291 N290 1.346 . S
C291 C292 1.396 . S
C291 C301 1.510 . S
C292 C288 1.401 . S
C292 C291 1.396 . S
C293 C288 1.499 1_565 S
C293 H294 0.959 . S
C293 H295 0.960 . S
C293 H296 0.961 . S
H294 C293 0.959 . S
H295 C293 0.960 . S
H296 C293 0.961 . S
O297 Co272 1.967 . S
O297 C305 1.258 1_565 S
O298 Co273 1.941 . S
O298 C305 1.266 . S
H299 C301 0.959 . S
H300 C301 0.961 . S
C301 C291 1.510 . S
C301 H299 0.959 . S
C301 H300 0.961 . S
C301 H302 0.960 . S
H302 C301 0.960 . S
H303 N283 0.862 . S
O304 Co272 1.920 . S
O304 C277 1.289 . S
C305 O297 1.258 1_545 S
C305 O298 1.266 . S
Co306 O309 1.970 . S
Co306 N323 1.977 1_545 S
Co306 O331 1.967 . S
Co306 O338 1.920 . S
Co307 O310 1.966 1_565 S
Co307 N316 2.022 . S
Co307 N324 1.993 . S
Co307 O332 1.941 . S
C308 O309 1.258 . S
C308 O310 1.263 . S
O309 Co306 1.970 . S
O309 C308 1.258 . S
O310 Co307 1.966 1_545 S
O310 C308 1.263 . S
C311 O312 1.235 . S
C311 O338 1.289 . S
O312 C311 1.235 . S
C313 C315 1.400 . S
C313 N316 1.351 . S
C313 C318 1.501 . S
C314 C315 1.387 . S
C314 N317 1.341 . S
C315 C313 1.400 . S
C315 C314 1.387 . S
N316 Co307 2.022 . S
N316 C313 1.351 . S
N316 N317 1.365 . S
N317 C314 1.341 . S
N317 N316 1.365 . S
N317 H337 0.862 . S
C318 C313 1.501 . S
C318 H319 0.961 . S
C318 H320 0.961 . S
C318 H321 0.960 . S
H319 C318 0.961 . S
H320 C318 0.961 . S
H321 C318 0.960 . S
C322 N323 1.336 . S
C322 C326 1.401 . S
C322 C327 1.499 1_565 S
N323 Co306 1.977 1_565 S
N323 C322 1.336 . S
N323 N324 1.412 . S
N324 Co307 1.993 . S
N324 N323 1.412 . S
N324 C325 1.346 . S
C325 N324 1.346 . S
C325 C326 1.396 . S
C325 C335 1.510 . S
C326 C322 1.401 . S
C326 C325 1.396 . S
C327 C322 1.499 1_545 S
C327 H328 0.959 . S
C327 H329 0.960 . S
C327 H330 0.961 . S
H328 C327 0.959 . S
H329 C327 0.960 . S
H330 C327 0.961 . S
O331 Co306 1.967 . S
O331 C339 1.258 1_545 S
O332 Co307 1.941 . S
O332 C339 1.266 . S
H333 C335 0.959 . S
H334 C335 0.961 . S
C335 C325 1.510 . S
C335 H333 0.959 . S
C335 H334 0.961 . S
C335 H336 0.960 . S
H336 C335 0.960 . S
H337 N317 0.862 . S
O338 Co306 1.920 . S
O338 C311 1.289 . S
C339 O331 1.258 1_565 S
C339 O332 1.266 . S
Co340 O343 1.970 . S
Co340 N357 1.969 1_655 S
Co340 O365 1.967 . S
Co340 O372 1.920 . S
Co341 O344 1.966 1_455 S
Co341 N350 2.022 . S
Co341 N358 1.993 . S
Co341 O366 1.941 . S
C342 O343 1.258 . S
C342 O344 1.263 . S
O343 Co340 1.970 . S
O343 C342 1.258 . S
O344 Co341 1.966 1_655 S
O344 C342 1.263 . S
C345 O346 1.235 . S
C345 O372 1.289 . S
O346 C345 1.235 . S
C347 C349 1.400 . S
C347 N350 1.351 . S
C347 C352 1.501 . S
C348 C349 1.387 . S
C348 N351 1.341 . S
C349 C347 1.400 . S
C349 C348 1.387 . S
N350 Co341 2.022 . S
N350 C347 1.351 . S
N350 N351 1.365 . S
N351 C348 1.341 . S
N351 N350 1.365 . S
N351 H371 0.862 . S
C352 C347 1.501 . S
C352 H353 0.961 . S
C352 H354 0.961 . S
C352 H355 0.960 . S
H353 C352 0.961 . S
H354 C352 0.961 . S
H355 C352 0.960 . S
C356 N357 1.357 . S
C356 C360 1.401 . S
C356 C361 1.499 1_455 S
N357 Co340 1.969 1_455 S
N357 C356 1.357 . S
N357 N358 1.397 . S
N358 Co341 1.993 . S
N358 N357 1.397 . S
N358 C359 1.346 . S
C359 N358 1.346 . S
C359 C360 1.396 . S
C359 C369 1.510 . S
C360 C356 1.401 . S
C360 C359 1.396 . S
C361 C356 1.499 1_655 S
C361 H362 0.959 . S
C361 H363 0.960 . S
C361 H364 0.961 . S
H362 C361 0.959 . S
H363 C361 0.960 . S
H364 C361 0.961 . S
O365 Co340 1.967 . S
O365 C373 1.258 1_655 S
O366 Co341 1.941 . S
O366 C373 1.266 . S
H367 C369 0.959 . S
H368 C369 0.961 . S
C369 C359 1.510 . S
C369 H367 0.959 . S
C369 H368 0.961 . S
C369 H370 0.960 . S
H370 C369 0.960 . S
H371 N351 0.862 . S
O372 Co340 1.920 . S
O372 C345 1.289 . S
C373 O365 1.258 1_455 S
C373 O366 1.266 . S
Co374 O377 1.970 . S
Co374 N391 1.989 . S
Co374 O399 1.967 . S
Co374 O406 1.920 . S
Co375 O378 1.966 . S
Co375 N384 2.022 . S
Co375 N392 1.993 . S
Co375 O400 1.941 . S
C376 O377 1.258 . S
C376 O378 1.263 . S
O377 Co374 1.970 . S
O377 C376 1.258 . S
O378 Co375 1.966 . S
O378 C376 1.263 . S
C379 O380 1.235 . S
C379 O406 1.289 . S
O380 C379 1.235 . S
C381 C383 1.400 . S
C381 N384 1.351 . S
C381 C386 1.501 . S
C382 C383 1.387 . S
C382 N385 1.341 . S
C383 C381 1.400 . S
C383 C382 1.387 . S
N384 Co375 2.022 . S
N384 C381 1.351 . S
N384 N385 1.365 . S
N385 C382 1.341 . S
N385 N384 1.365 . S
N385 H405 0.862 . S
C386 C381 1.501 . S
C386 H387 0.961 . S
C386 H388 0.961 . S
C386 H389 0.960 . S
H387 C386 0.961 . S
H388 C386 0.961 . S
H389 C386 0.960 . S
C390 N391 1.342 . S
C390 C394 1.401 . S
C390 C395 1.499 . S
N391 Co374 1.989 . S
N391 C390 1.342 . S
N391 N392 1.388 . S
N392 Co375 1.993 . S
N392 N391 1.388 . S
N392 C393 1.346 . S
C393 N392 1.346 . S
C393 C394 1.396 . S
C393 C403 1.510 . S
C394 C390 1.401 . S
C394 C393 1.396 . S
C395 C390 1.499 . S
C395 H396 0.959 . S
C395 H397 0.960 . S
C395 H398 0.961 . S
H396 C395 0.959 . S
H397 C395 0.960 . S
H398 C395 0.961 . S
O399 Co374 1.967 . S
O399 C407 1.258 . S
O400 Co375 1.941 . S
O400 C407 1.266 . S
H401 C403 0.959 . S
H402 C403 0.961 . S
C403 C393 1.510 . S
C403 H401 0.959 . S
C403 H402 0.961 . S
C403 H404 0.960 . S
H404 C403 0.960 . S
H405 N385 0.862 . S
O406 Co374 1.920 . S
O406 C379 1.289 . S
C407 O399 1.258 . S
C407 O400 1.266 . S
Co408 O411 1.970 . S
Co408 N425 1.989 . S
Co408 O433 1.967 . S
Co408 O440 1.920 . S
Co409 O412 1.966 . S
Co409 N418 2.022 . S
Co409 N426 1.993 . S
Co409 O434 1.941 . S
C410 O411 1.258 . S
C410 O412 1.263 . S
O411 Co408 1.970 . S
O411 C410 1.258 . S
O412 Co409 1.966 . S
O412 C410 1.263 . S
C413 O414 1.235 . S
C413 O440 1.289 . S
O414 C413 1.235 . S
C415 C417 1.400 . S
C415 N418 1.351 . S
C415 C420 1.501 . S
C416 C417 1.387 . S
C416 N419 1.341 . S
C417 C415 1.400 . S
C417 C416 1.387 . S
N418 Co409 2.022 . S
N418 C415 1.351 . S
N418 N419 1.365 . S
N419 C416 1.341 . S
N419 N418 1.365 . S
N419 H439 0.862 . S
C420 C415 1.501 . S
C420 H421 0.961 . S
C420 H422 0.961 . S
C420 H423 0.960 . S
H421 C420 0.961 . S
H422 C420 0.961 . S
H423 C420 0.960 . S
C424 N425 1.342 . S
C424 C428 1.401 . S
C424 C429 1.499 . S
N425 Co408 1.989 . S
N425 C424 1.342 . S
N425 N426 1.388 . S
N426 Co409 1.993 . S
N426 N425 1.388 . S
N426 C427 1.346 . S
C427 N426 1.346 . S
C427 C428 1.396 . S
C427 C437 1.510 . S
C428 C424 1.401 . S
C428 C427 1.396 . S
C429 C424 1.499 . S
C429 H430 0.959 . S
C429 H431 0.960 . S
C429 H432 0.961 . S
H430 C429 0.959 . S
H431 C429 0.960 . S
H432 C429 0.961 . S
O433 Co408 1.967 . S
O433 C441 1.258 . S
O434 Co409 1.941 . S
O434 C441 1.266 . S
H435 C437 0.959 . S
H436 C437 0.961 . S
C437 C427 1.510 . S
C437 H435 0.959 . S
C437 H436 0.961 . S
C437 H438 0.960 . S
H438 C437 0.960 . S
H439 N419 0.862 . S
O440 Co408 1.920 . S
O440 C413 1.289 . S
C441 O433 1.258 . S
C441 O434 1.266 . S
Co442 O445 1.970 . S
Co442 N459 1.989 . S
Co442 O467 1.967 . S
Co442 O474 1.920 . S
Co443 O446 1.966 . S
Co443 N452 2.022 . S
Co443 N460 1.993 . S
Co443 O468 1.941 . S
C444 O445 1.258 . S
C444 O446 1.263 . S
O445 Co442 1.970 . S
O445 C444 1.258 . S
O446 Co443 1.966 . S
O446 C444 1.263 . S
C447 O448 1.235 . S
C447 O474 1.289 . S
O448 C447 1.235 . S
C449 C451 1.400 . S
C449 N452 1.351 . S
C449 C454 1.501 . S
C450 C451 1.387 . S
C450 N453 1.341 . S
C451 C449 1.400 . S
C451 C450 1.387 . S
N452 Co443 2.022 . S
N452 C449 1.351 . S
N452 N453 1.365 . S
N453 C450 1.341 . S
N453 N452 1.365 . S
N453 H473 0.862 . S
C454 C449 1.501 . S
C454 H455 0.961 . S
C454 H456 0.961 . S
C454 H457 0.960 . S
H455 C454 0.961 . S
H456 C454 0.961 . S
H457 C454 0.960 . S
C458 N459 1.342 . S
C458 C462 1.401 . S
C458 C463 1.499 . S
N459 Co442 1.989 . S
N459 C458 1.342 . S
N459 N460 1.388 . S
N460 Co443 1.993 . S
N460 N459 1.388 . S
N460 C461 1.346 . S
C461 N460 1.346 . S
C461 C462 1.396 . S
C461 C471 1.510 . S
C462 C458 1.401 . S
C462 C461 1.396 . S
C463 C458 1.499 . S
C463 H464 0.959 . S
C463 H465 0.960 . S
C463 H466 0.961 . S
H464 C463 0.959 . S
H465 C463 0.960 . S
H466 C463 0.961 . S
O467 Co442 1.967 . S
O467 C475 1.258 . S
O468 Co443 1.941 . S
O468 C475 1.266 . S
H469 C471 0.959 . S
H470 C471 0.961 . S
C471 C461 1.510 . S
C471 H469 0.959 . S
C471 H470 0.961 . S
C471 H472 0.960 . S
H472 C471 0.960 . S
H473 N453 0.862 . S
O474 Co442 1.920 . S
O474 C447 1.289 . S
C475 O467 1.258 . S
C475 O468 1.266 . S
Co476 O479 1.970 . S
Co476 N493 1.989 . S
Co476 O501 1.967 . S
Co476 O508 1.920 . S
Co477 O480 1.966 . S
Co477 N486 2.022 . S
Co477 N494 1.993 . S
Co477 O502 1.941 . S
C478 O479 1.258 . S
C478 O480 1.263 . S
O479 Co476 1.970 . S
O479 C478 1.258 . S
O480 Co477 1.966 . S
O480 C478 1.263 . S
C481 O482 1.235 . S
C481 O508 1.289 . S
O482 C481 1.235 . S
C483 C485 1.400 . S
C483 N486 1.351 . S
C483 C488 1.501 . S
C484 C485 1.387 . S
C484 N487 1.341 . S
C485 C483 1.400 . S
C485 C484 1.387 . S
N486 Co477 2.022 . S
N486 C483 1.351 . S
N486 N487 1.365 . S
N487 C484 1.341 . S
N487 N486 1.365 . S
N487 H507 0.862 . S
C488 C483 1.501 . S
C488 H489 0.961 . S
C488 H490 0.961 . S
C488 H491 0.960 . S
H489 C488 0.961 . S
H490 C488 0.961 . S
H491 C488 0.960 . S
C492 N493 1.342 . S
C492 C496 1.401 . S
C492 C497 1.499 . S
N493 Co476 1.989 . S
N493 C492 1.342 . S
N493 N494 1.388 . S
N494 Co477 1.993 . S
N494 N493 1.388 . S
N494 C495 1.346 . S
C495 N494 1.346 . S
C495 C496 1.396 . S
C495 C505 1.510 . S
C496 C492 1.401 . S
C496 C495 1.396 . S
C497 C492 1.499 . S
C497 H498 0.959 . S
C497 H499 0.960 . S
C497 H500 0.961 . S
H498 C497 0.959 . S
H499 C497 0.960 . S
H500 C497 0.961 . S
O501 Co476 1.967 . S
O501 C509 1.258 . S
O502 Co477 1.941 . S
O502 C509 1.266 . S
H503 C505 0.959 . S
H504 C505 0.961 . S
C505 C495 1.510 . S
C505 H503 0.959 . S
C505 H504 0.961 . S
C505 H506 0.960 . S
H506 C505 0.960 . S
H507 N487 0.862 . S
O508 Co476 1.920 . S
O508 C481 1.289 . S
C509 O501 1.258 . S
C509 O502 1.266 . S
Co510 O513 1.970 . S
Co510 N527 1.989 . S
Co510 O535 1.967 . S
Co510 O542 1.920 . S
Co511 O514 1.966 . S
Co511 N520 2.022 . S
Co511 N528 1.993 . S
Co511 O536 1.941 . S
C512 O513 1.258 . S
C512 O514 1.263 . S
O513 Co510 1.970 . S
O513 C512 1.258 . S
O514 Co511 1.966 . S
O514 C512 1.263 . S
C515 O516 1.235 . S
C515 O542 1.289 . S
O516 C515 1.235 . S
C517 C519 1.400 . S
C517 N520 1.351 . S
C517 C522 1.501 . S
C518 C519 1.387 . S
C518 N521 1.341 . S
C519 C517 1.400 . S
C519 C518 1.387 . S
N520 Co511 2.022 . S
N520 C517 1.351 . S
N520 N521 1.365 . S
N521 C518 1.341 . S
N521 N520 1.365 . S
N521 H541 0.862 . S
C522 C517 1.501 . S
C522 H523 0.961 . S
C522 H524 0.961 . S
C522 H525 0.960 . S
H523 C522 0.961 . S
H524 C522 0.961 . S
H525 C522 0.960 . S
C526 N527 1.342 . S
C526 C530 1.401 . S
C526 C531 1.499 . S
N527 Co510 1.989 . S
N527 C526 1.342 . S
N527 N528 1.388 . S
N528 Co511 1.993 . S
N528 N527 1.388 . S
N528 C529 1.346 . S
C529 N528 1.346 . S
C529 C530 1.396 . S
C529 C539 1.510 . S
C530 C526 1.401 . S
C530 C529 1.396 . S
C531 C526 1.499 . S
C531 H532 0.959 . S
C531 H533 0.960 . S
C531 H534 0.961 . S
H532 C531 0.959 . S
H533 C531 0.960 . S
H534 C531 0.961 . S
O535 Co510 1.967 . S
O535 C543 1.258 . S
O536 Co511 1.941 . S
O536 C543 1.266 . S
H537 C539 0.959 . S
H538 C539 0.961 . S
C539 C529 1.510 . S
C539 H537 0.959 . S
C539 H538 0.961 . S
C539 H540 0.960 . S
H540 C539 0.960 . S
H541 N521 0.862 . S
O542 Co510 1.920 . S
O542 C515 1.289 . S
C543 O535 1.258 . S
C543 O536 1.266 . S
Co544 O547 1.970 . S
Co544 N561 1.989 . S
Co544 O569 1.967 . S
Co544 O576 1.920 . S
Co545 O548 1.966 . S
Co545 N554 2.022 . S
Co545 N562 1.993 . S
Co545 O570 1.941 . S
C546 O547 1.258 . S
C546 O548 1.263 . S
O547 Co544 1.970 . S
O547 C546 1.258 . S
O548 Co545 1.966 . S
O548 C546 1.263 . S
C549 O550 1.235 . S
C549 O576 1.289 . S
O550 C549 1.235 . S
C551 C553 1.400 . S
C551 N554 1.351 . S
C551 C556 1.501 . S
C552 C553 1.387 . S
C552 N555 1.341 . S
C553 C551 1.400 . S
C553 C552 1.387 . S
N554 Co545 2.022 . S
N554 C551 1.351 . S
N554 N555 1.365 . S
N555 C552 1.341 . S
N555 N554 1.365 . S
N555 H575 0.862 . S
C556 C551 1.501 . S
C556 H557 0.961 . S
C556 H558 0.961 . S
C556 H559 0.960 . S
H557 C556 0.961 . S
H558 C556 0.961 . S
H559 C556 0.960 . S
C560 N561 1.342 . S
C560 C564 1.401 . S
C560 C565 1.499 . S
N561 Co544 1.989 . S
N561 C560 1.342 . S
N561 N562 1.388 . S
N562 Co545 1.993 . S
N562 N561 1.388 . S
N562 C563 1.346 . S
C563 N562 1.346 . S
C563 C564 1.396 . S
C563 C573 1.510 . S
C564 C560 1.401 . S
C564 C563 1.396 . S
C565 C560 1.499 . S
C565 H566 0.959 . S
C565 H567 0.960 . S
C565 H568 0.961 . S
H566 C565 0.959 . S
H567 C565 0.960 . S
H568 C565 0.961 . S
O569 Co544 1.967 . S
O569 C577 1.258 . S
O570 Co545 1.941 . S
O570 C577 1.266 . S
H571 C573 0.959 . S
H572 C573 0.961 . S
C573 C563 1.510 . S
C573 H571 0.959 . S
C573 H572 0.961 . S
C573 H574 0.960 . S
H574 C573 0.960 . S
H575 N555 0.862 . S
O576 Co544 1.920 . S
O576 C549 1.289 . S
C577 O569 1.258 . S
C577 O570 1.266 . S
Co578 O581 1.970 . S
Co578 N595 1.989 . S
Co578 O603 1.967 . S
Co578 O610 1.920 . S
Co579 O582 1.966 . S
Co579 N588 2.022 . S
Co579 N596 1.993 . S
Co579 O604 1.941 . S
C580 O581 1.258 . S
C580 O582 1.263 . S
O581 Co578 1.970 . S
O581 C580 1.258 . S
O582 Co579 1.966 . S
O582 C580 1.263 . S
C583 O584 1.235 . S
C583 O610 1.289 . S
O584 C583 1.235 . S
C585 C587 1.400 . S
C585 N588 1.351 . S
C585 C590 1.501 . S
C586 C587 1.387 . S
C586 N589 1.341 . S
C587 C585 1.400 . S
C587 C586 1.387 . S
N588 Co579 2.022 . S
N588 C585 1.351 . S
N588 N589 1.365 . S
N589 C586 1.341 . S
N589 N588 1.365 . S
N589 H609 0.862 . S
C590 C585 1.501 . S
C590 H591 0.961 . S
C590 H592 0.961 . S
C590 H593 0.960 . S
H591 C590 0.961 . S
H592 C590 0.961 . S
H593 C590 0.960 . S
C594 N595 1.342 . S
C594 C598 1.401 . S
C594 C599 1.499 . S
N595 Co578 1.989 . S
N595 C594 1.342 . S
N595 N596 1.388 . S
N596 Co579 1.993 . S
N596 N595 1.388 . S
N596 C597 1.346 . S
C597 N596 1.346 . S
C597 C598 1.396 . S
C597 C607 1.510 . S
C598 C594 1.401 . S
C598 C597 1.396 . S
C599 C594 1.499 . S
C599 H600 0.959 . S
C599 H601 0.960 . S
C599 H602 0.961 . S
H600 C599 0.959 . S
H601 C599 0.960 . S
H602 C599 0.961 . S
O603 Co578 1.967 . S
O603 C611 1.258 . S
O604 Co579 1.941 . S
O604 C611 1.266 . S
H605 C607 0.959 . S
H606 C607 0.961 . S
C607 C597 1.510 . S
C607 H605 0.959 . S
C607 H606 0.961 . S
C607 H608 0.960 . S
H608 C607 0.960 . S
H609 N589 0.862 . S
O610 Co578 1.920 . S
O610 C583 1.289 . S
C611 O603 1.258 . S
C611 O604 1.266 . S
Co612 O615 1.970 . S
Co612 N629 1.989 . S
Co612 O637 1.967 . S
Co612 O644 1.920 . S
Co613 O616 1.966 . S
Co613 N622 2.022 . S
Co613 N630 1.993 . S
Co613 O638 1.941 . S
C614 O615 1.258 . S
C614 O616 1.263 . S
O615 Co612 1.970 . S
O615 C614 1.258 . S
O616 Co613 1.966 . S
O616 C614 1.263 . S
C617 O618 1.235 . S
C617 O644 1.289 . S
O618 C617 1.235 . S
C619 C621 1.400 . S
C619 N622 1.351 . S
C619 C624 1.501 . S
C620 C621 1.387 . S
C620 N623 1.341 . S
C621 C619 1.400 . S
C621 C620 1.387 . S
N622 Co613 2.022 . S
N622 C619 1.351 . S
N622 N623 1.365 . S
N623 C620 1.341 . S
N623 N622 1.365 . S
N623 H643 0.862 . S
C624 C619 1.501 . S
C624 H625 0.961 . S
C624 H626 0.961 . S
C624 H627 0.960 . S
H625 C624 0.961 . S
H626 C624 0.961 . S
H627 C624 0.960 . S
C628 N629 1.342 . S
C628 C632 1.401 . S
C628 C633 1.499 . S
N629 Co612 1.989 . S
N629 C628 1.342 . S
N629 N630 1.388 . S
N630 Co613 1.993 . S
N630 N629 1.388 . S
N630 C631 1.346 . S
C631 N630 1.346 . S
C631 C632 1.396 . S
C631 C641 1.510 . S
C632 C628 1.401 . S
C632 C631 1.396 . S
C633 C628 1.499 . S
C633 H634 0.959 . S
C633 H635 0.960 . S
C633 H636 0.961 . S
H634 C633 0.959 . S
H635 C633 0.960 . S
H636 C633 0.961 . S
O637 Co612 1.967 . S
O637 C645 1.258 . S
O638 Co613 1.941 . S
O638 C645 1.266 . S
H639 C641 0.959 . S
H640 C641 0.961 . S
C641 C631 1.510 . S
C641 H639 0.959 . S
C641 H640 0.961 . S
C641 H642 0.960 . S
H642 C641 0.960 . S
H643 N623 0.862 . S
O644 Co612 1.920 . S
O644 C617 1.289 . S
C645 O637 1.258 . S
C645 O638 1.266 . S
Co646 O649 1.970 . S
Co646 N663 1.989 . S
Co646 O671 1.967 . S
Co646 O678 1.920 . S
Co647 O650 1.966 . S
Co647 N656 2.022 . S
Co647 N664 1.993 . S
Co647 O672 1.941 . S
C648 O649 1.258 . S
C648 O650 1.263 . S
O649 Co646 1.970 . S
O649 C648 1.258 . S
O650 Co647 1.966 . S
O650 C648 1.263 . S
C651 O652 1.235 . S
C651 O678 1.289 . S
O652 C651 1.235 . S
C653 C655 1.400 . S
C653 N656 1.351 . S
C653 C658 1.501 . S
C654 C655 1.387 . S
C654 N657 1.341 . S
C655 C653 1.400 . S
C655 C654 1.387 . S
N656 Co647 2.022 . S
N656 C653 1.351 . S
N656 N657 1.365 . S
N657 C654 1.341 . S
N657 N656 1.365 . S
N657 H677 0.862 . S
C658 C653 1.501 . S
C658 H659 0.961 . S
C658 H660 0.961 . S
C658 H661 0.960 . S
H659 C658 0.961 . S
H660 C658 0.961 . S
H661 C658 0.960 . S
C662 N663 1.342 . S
C662 C666 1.401 . S
C662 C667 1.499 . S
N663 Co646 1.989 . S
N663 C662 1.342 . S
N663 N664 1.388 . S
N664 Co647 1.993 . S
N664 N663 1.388 . S
N664 C665 1.346 . S
C665 N664 1.346 . S
C665 C666 1.396 . S
C665 C675 1.510 . S
C666 C662 1.401 . S
C666 C665 1.396 . S
C667 C662 1.499 . S
C667 H668 0.959 . S
C667 H669 0.960 . S
C667 H670 0.961 . S
H668 C667 0.959 . S
H669 C667 0.960 . S
H670 C667 0.961 . S
O671 Co646 1.967 . S
O671 C679 1.258 . S
O672 Co647 1.941 . S
O672 C679 1.266 . S
H673 C675 0.959 . S
H674 C675 0.961 . S
C675 C665 1.510 . S
C675 H673 0.959 . S
C675 H674 0.961 . S
C675 H676 0.960 . S
H676 C675 0.960 . S
H677 N657 0.862 . S
O678 Co646 1.920 . S
O678 C651 1.289 . S
C679 O671 1.258 . S
C679 O672 1.266 . S
Co680 O683 1.970 . S
Co680 N697 1.989 . S
Co680 O705 1.967 . S
Co680 O712 1.920 . S
Co681 O684 1.966 . S
Co681 N690 2.022 . S
Co681 N698 1.993 . S
Co681 O706 1.941 . S
C682 O683 1.258 . S
C682 O684 1.263 . S
O683 Co680 1.970 . S
O683 C682 1.258 . S
O684 Co681 1.966 . S
O684 C682 1.263 . S
C685 O686 1.235 . S
C685 O712 1.289 . S
O686 C685 1.235 . S
C687 C689 1.400 . S
C687 N690 1.351 . S
C687 C692 1.501 . S
C688 C689 1.387 . S
C688 N691 1.341 . S
C689 C687 1.400 . S
C689 C688 1.387 . S
N690 Co681 2.022 . S
N690 C687 1.351 . S
N690 N691 1.365 . S
N691 C688 1.341 . S
N691 N690 1.365 . S
N691 H711 0.862 . S
C692 C687 1.501 . S
C692 H693 0.961 . S
C692 H694 0.961 . S
C692 H695 0.960 . S
H693 C692 0.961 . S
H694 C692 0.961 . S
H695 C692 0.960 . S
C696 N697 1.342 . S
C696 C700 1.401 . S
C696 C701 1.499 . S
N697 Co680 1.989 . S
N697 C696 1.342 . S
N697 N698 1.388 . S
N698 Co681 1.993 . S
N698 N697 1.388 . S
N698 C699 1.346 . S
C699 N698 1.346 . S
C699 C700 1.396 . S
C699 C709 1.510 . S
C700 C696 1.401 . S
C700 C699 1.396 . S
C701 C696 1.499 . S
C701 H702 0.959 . S
C701 H703 0.960 . S
C701 H704 0.961 . S
H702 C701 0.959 . S
H703 C701 0.960 . S
H704 C701 0.961 . S
O705 Co680 1.967 . S
O705 C713 1.258 . S
O706 Co681 1.941 . S
O706 C713 1.266 . S
H707 C709 0.959 . S
H708 C709 0.961 . S
C709 C699 1.510 . S
C709 H707 0.959 . S
C709 H708 0.961 . S
C709 H710 0.960 . S
H710 C709 0.960 . S
H711 N691 0.862 . S
O712 Co680 1.920 . S
O712 C685 1.289 . S
C713 O705 1.258 . S
C713 O706 1.266 . S
Co714 O717 1.970 . S
Co714 N731 1.989 . S
Co714 O739 1.967 1_556 S
Co714 O746 1.920 . S
Co715 O718 1.966 . S
Co715 N724 2.022 . S
Co715 N732 1.993 . S
Co715 O740 1.941 1_556 S
C716 O717 1.258 . S
C716 O718 1.263 . S
O717 Co714 1.970 . S
O717 C716 1.258 . S
O718 Co715 1.966 . S
O718 C716 1.263 . S
C719 O720 1.235 . S
C719 O746 1.289 . S
O720 C719 1.235 . S
C721 C723 1.400 . S
C721 N724 1.351 . S
C721 C726 1.501 . S
C722 C723 1.387 . S
C722 N725 1.341 . S
C723 C721 1.400 . S
C723 C722 1.387 . S
N724 Co715 2.022 . S
N724 C721 1.351 . S
N724 N725 1.365 . S
N725 C722 1.341 . S
N725 N724 1.365 . S
N725 H745 0.862 . S
C726 C721 1.501 . S
C726 H727 0.961 . S
C726 H728 0.961 . S
C726 H729 0.960 . S
H727 C726 0.961 . S
H728 C726 0.961 . S
H729 C726 0.960 . S
C730 N731 1.342 . S
C730 C734 1.401 . S
C730 C735 1.499 . S
N731 Co714 1.989 . S
N731 C730 1.342 . S
N731 N732 1.388 . S
N732 Co715 1.993 . S
N732 N731 1.388 . S
N732 C733 1.346 . S
C733 N732 1.346 . S
C733 C734 1.396 . S
C733 C743 1.510 . S
C734 C730 1.401 . S
C734 C733 1.396 . S
C735 C730 1.499 . S
C735 H736 0.959 . S
C735 H737 0.960 . S
C735 H738 0.961 . S
H736 C735 0.959 . S
H737 C735 0.960 . S
H738 C735 0.961 . S
O739 Co714 1.967 1_554 S
O739 C747 1.258 . S
O740 Co715 1.941 1_554 S
O740 C747 1.266 . S
H741 C743 0.959 . S
H742 C743 0.961 . S
C743 C733 1.510 . S
C743 H741 0.959 . S
C743 H742 0.961 . S
C743 H744 0.960 . S
H744 C743 0.960 . S
H745 N725 0.862 . S
O746 Co714 1.920 . S
O746 C719 1.289 . S
C747 O739 1.258 . S
C747 O740 1.266 . S
Co748 O751 1.970 . S
Co748 N765 1.989 . S
Co748 O773 1.967 1_556 S
Co748 O780 1.920 . S
Co749 O752 1.966 . S
Co749 N758 2.022 . S
Co749 N766 1.993 . S
Co749 O774 1.941 1_556 S
C750 O751 1.258 . S
C750 O752 1.263 . S
O751 Co748 1.970 . S
O751 C750 1.258 . S
O752 Co749 1.966 . S
O752 C750 1.263 . S
C753 O754 1.235 . S
C753 O780 1.289 . S
O754 C753 1.235 . S
C755 C757 1.400 . S
C755 N758 1.351 . S
C755 C760 1.501 . S
C756 C757 1.387 . S
C756 N759 1.341 . S
C757 C755 1.400 . S
C757 C756 1.387 . S
N758 Co749 2.022 . S
N758 C755 1.351 . S
N758 N759 1.365 . S
N759 C756 1.341 . S
N759 N758 1.365 . S
N759 H779 0.862 . S
C760 C755 1.501 . S
C760 H761 0.961 . S
C760 H762 0.961 . S
C760 H763 0.960 . S
H761 C760 0.961 . S
H762 C760 0.961 . S
H763 C760 0.960 . S
C764 N765 1.342 . S
C764 C768 1.401 . S
C764 C769 1.499 . S
N765 Co748 1.989 . S
N765 C764 1.342 . S
N765 N766 1.388 . S
N766 Co749 1.993 . S
N766 N765 1.388 . S
N766 C767 1.346 . S
C767 N766 1.346 . S
C767 C768 1.396 . S
C767 C777 1.510 . S
C768 C764 1.401 . S
C768 C767 1.396 . S
C769 C764 1.499 . S
C769 H770 0.959 . S
C769 H771 0.960 . S
C769 H772 0.961 . S
H770 C769 0.959 . S
H771 C769 0.960 . S
H772 C769 0.961 . S
O773 Co748 1.967 1_554 S
O773 C781 1.258 . S
O774 Co749 1.941 1_554 S
O774 C781 1.266 . S
H775 C777 0.959 . S
H776 C777 0.961 . S
C777 C767 1.510 . S
C777 H775 0.959 . S
C777 H776 0.961 . S
C777 H778 0.960 . S
H778 C777 0.960 . S
H779 N759 0.862 . S
O780 Co748 1.920 . S
O780 C753 1.289 . S
C781 O773 1.258 . S
C781 O774 1.266 . S
Co782 O785 1.970 . S
Co782 N799 1.989 . S
Co782 O807 1.967 1_556 S
Co782 O814 1.920 . S
Co783 O786 1.966 . S
Co783 N792 2.022 . S
Co783 N800 1.993 . S
Co783 O808 1.941 1_556 S
C784 O785 1.258 . S
C784 O786 1.263 . S
O785 Co782 1.970 . S
O785 C784 1.258 . S
O786 Co783 1.966 . S
O786 C784 1.263 . S
C787 O788 1.235 . S
C787 O814 1.289 . S
O788 C787 1.235 . S
C789 C791 1.400 . S
C789 N792 1.351 . S
C789 C794 1.501 . S
C790 C791 1.387 . S
C790 N793 1.341 . S
C791 C789 1.400 . S
C791 C790 1.387 . S
N792 Co783 2.022 . S
N792 C789 1.351 . S
N792 N793 1.365 . S
N793 C790 1.341 . S
N793 N792 1.365 . S
N793 H813 0.862 . S
C794 C789 1.501 . S
C794 H795 0.961 . S
C794 H796 0.961 . S
C794 H797 0.960 . S
H795 C794 0.961 . S
H796 C794 0.961 . S
H797 C794 0.960 . S
C798 N799 1.342 . S
C798 C802 1.401 . S
C798 C803 1.499 . S
N799 Co782 1.989 . S
N799 C798 1.342 . S
N799 N800 1.388 . S
N800 Co783 1.993 . S
N800 N799 1.388 . S
N800 C801 1.346 . S
C801 N800 1.346 . S
C801 C802 1.396 . S
C801 C811 1.510 . S
C802 C798 1.401 . S
C802 C801 1.396 . S
C803 C798 1.499 . S
C803 H804 0.959 . S
C803 H805 0.960 . S
C803 H806 0.961 . S
H804 C803 0.959 . S
H805 C803 0.960 . S
H806 C803 0.961 . S
O807 Co782 1.967 1_554 S
O807 C815 1.258 . S
O808 Co783 1.941 1_554 S
O808 C815 1.266 . S
H809 C811 0.959 . S
H810 C811 0.961 . S
C811 C801 1.510 . S
C811 H809 0.959 . S
C811 H810 0.961 . S
C811 H812 0.960 . S
H812 C811 0.960 . S
H813 N793 0.862 . S
O814 Co782 1.920 . S
O814 C787 1.289 . S
C815 O807 1.258 . S
C815 O808 1.266 . S
Co816 O819 1.970 . S
Co816 N833 1.989 . S
Co816 O841 1.967 . S
Co816 O848 1.920 . S
Co817 O820 1.966 . S
Co817 N826 2.022 . S
Co817 N834 1.993 . S
Co817 O842 1.941 . S
C818 O819 1.258 . S
C818 O820 1.263 . S
O819 Co816 1.970 . S
O819 C818 1.258 . S
O820 Co817 1.966 . S
O820 C818 1.263 . S
C821 O822 1.235 . S
C821 O848 1.289 . S
O822 C821 1.235 . S
C823 C825 1.400 . S
C823 N826 1.351 . S
C823 C828 1.501 . S
C824 C825 1.387 . S
C824 N827 1.341 . S
C825 C823 1.400 . S
C825 C824 1.387 . S
N826 Co817 2.022 . S
N826 C823 1.351 . S
N826 N827 1.365 . S
N827 C824 1.341 . S
N827 N826 1.365 . S
N827 H847 0.862 . S
C828 C823 1.501 . S
C828 H829 0.961 . S
C828 H830 0.961 . S
C828 H831 0.960 . S
H829 C828 0.961 . S
H830 C828 0.961 . S
H831 C828 0.960 . S
C832 N833 1.342 . S
C832 C836 1.401 . S
C832 C837 1.499 . S
N833 Co816 1.989 . S
N833 C832 1.342 . S
N833 N834 1.388 . S
N834 Co817 1.993 . S
N834 N833 1.388 . S
N834 C835 1.346 . S
C835 N834 1.346 . S
C835 C836 1.396 . S
C835 C845 1.510 . S
C836 C832 1.401 . S
C836 C835 1.396 . S
C837 C832 1.499 . S
C837 H838 0.959 . S
C837 H839 0.960 . S
C837 H840 0.961 . S
H838 C837 0.959 . S
H839 C837 0.960 . S
H840 C837 0.961 . S
O841 Co816 1.967 . S
O841 C849 1.258 . S
O842 Co817 1.941 . S
O842 C849 1.266 . S
H843 C845 0.959 . S
H844 C845 0.961 . S
C845 C835 1.510 . S
C845 H843 0.959 . S
C845 H844 0.961 . S
C845 H846 0.960 . S
H846 C845 0.960 . S
H847 N827 0.862 . S
O848 Co816 1.920 . S
O848 C821 1.289 . S
C849 O841 1.258 . S
C849 O842 1.266 . S
Co850 O853 1.970 . S
Co850 N867 1.989 . S
Co850 O875 1.967 . S
Co850 O882 1.920 . S
Co851 O854 1.966 . S
Co851 N860 2.022 . S
Co851 N868 1.993 . S
Co851 O876 1.941 . S
C852 O853 1.258 . S
C852 O854 1.263 . S
O853 Co850 1.970 . S
O853 C852 1.258 . S
O854 Co851 1.966 . S
O854 C852 1.263 . S
C855 O856 1.235 . S
C855 O882 1.289 . S
O856 C855 1.235 . S
C857 C859 1.400 . S
C857 N860 1.351 . S
C857 C862 1.501 . S
C858 C859 1.387 . S
C858 N861 1.341 . S
C859 C857 1.400 . S
C859 C858 1.387 . S
N860 Co851 2.022 . S
N860 C857 1.351 . S
N860 N861 1.365 . S
N861 C858 1.341 . S
N861 N860 1.365 . S
N861 H881 0.862 . S
C862 C857 1.501 . S
C862 H863 0.961 . S
C862 H864 0.961 . S
C862 H865 0.960 . S
H863 C862 0.961 . S
H864 C862 0.961 . S
H865 C862 0.960 . S
C866 N867 1.342 . S
C866 C870 1.401 . S
C866 C871 1.499 . S
N867 Co850 1.989 . S
N867 C866 1.342 . S
N867 N868 1.388 . S
N868 Co851 1.993 . S
N868 N867 1.388 . S
N868 C869 1.346 . S
C869 N868 1.346 . S
C869 C870 1.396 . S
C869 C879 1.510 . S
C870 C866 1.401 . S
C870 C869 1.396 . S
C871 C866 1.499 . S
C871 H872 0.959 . S
C871 H873 0.960 . S
C871 H874 0.961 . S
H872 C871 0.959 . S
H873 C871 0.960 . S
H874 C871 0.961 . S
O875 Co850 1.967 . S
O875 C883 1.258 . S
O876 Co851 1.941 . S
O876 C883 1.266 . S
H877 C879 0.959 . S
H878 C879 0.961 . S
C879 C869 1.510 . S
C879 H877 0.959 . S
C879 H878 0.961 . S
C879 H880 0.960 . S
H880 C879 0.960 . S
H881 N861 0.862 . S
O882 Co850 1.920 . S
O882 C855 1.289 . S
C883 O875 1.258 . S
C883 O876 1.266 . S
Co884 O887 1.970 . S
Co884 N901 1.989 . S
Co884 O909 1.967 . S
Co884 O916 1.920 . S
Co885 O888 1.966 . S
Co885 N894 2.022 . S
Co885 N902 1.993 . S
Co885 O910 1.941 . S
C886 O887 1.258 . S
C886 O888 1.263 . S
O887 Co884 1.970 . S
O887 C886 1.258 . S
O888 Co885 1.966 . S
O888 C886 1.263 . S
C889 O890 1.235 . S
C889 O916 1.289 . S
O890 C889 1.235 . S
C891 C893 1.400 . S
C891 N894 1.351 . S
C891 C896 1.501 . S
C892 C893 1.387 . S
C892 N895 1.341 . S
C893 C891 1.400 . S
C893 C892 1.387 . S
N894 Co885 2.022 . S
N894 C891 1.351 . S
N894 N895 1.365 . S
N895 C892 1.341 . S
N895 N894 1.365 . S
N895 H915 0.862 . S
C896 C891 1.501 . S
C896 H897 0.961 . S
C896 H898 0.961 . S
C896 H899 0.960 . S
H897 C896 0.961 . S
H898 C896 0.961 . S
H899 C896 0.960 . S
C900 N901 1.342 . S
C900 C904 1.401 . S
C900 C905 1.499 . S
N901 Co884 1.989 . S
N901 C900 1.342 . S
N901 N902 1.388 . S
N902 Co885 1.993 . S
N902 N901 1.388 . S
N902 C903 1.346 . S
C903 N902 1.346 . S
C903 C904 1.396 . S
C903 C913 1.510 . S
C904 C900 1.401 . S
C904 C903 1.396 . S
C905 C900 1.499 . S
C905 H906 0.959 . S
C905 H907 0.960 . S
C905 H908 0.961 . S
H906 C905 0.959 . S
H907 C905 0.960 . S
H908 C905 0.961 . S
O909 Co884 1.967 . S
O909 C917 1.258 . S
O910 Co885 1.941 . S
O910 C917 1.266 . S
H911 C913 0.959 . S
H912 C913 0.961 . S
C913 C903 1.510 . S
C913 H911 0.959 . S
C913 H912 0.961 . S
C913 H914 0.960 . S
H914 C913 0.960 . S
H915 N895 0.862 . S
O916 Co884 1.920 . S
O916 C889 1.289 . S
C917 O909 1.258 . S
C917 O910 1.266 . S
Co918 O921 1.970 . S
Co918 N935 1.989 . S
Co918 O943 1.967 1_554 S
Co918 O950 1.920 . S
Co919 O922 1.966 . S
Co919 N928 2.022 . S
Co919 N936 1.993 . S
Co919 O944 1.941 1_554 S
C920 O921 1.258 . S
C920 O922 1.263 . S
O921 Co918 1.970 . S
O921 C920 1.258 . S
O922 Co919 1.966 . S
O922 C920 1.263 . S
C923 O924 1.235 . S
C923 O950 1.289 . S
O924 C923 1.235 . S
C925 C927 1.400 . S
C925 N928 1.351 . S
C925 C930 1.501 . S
C926 C927 1.387 . S
C926 N929 1.341 . S
C927 C925 1.400 . S
C927 C926 1.387 . S
N928 Co919 2.022 . S
N928 C925 1.351 . S
N928 N929 1.365 . S
N929 C926 1.341 . S
N929 N928 1.365 . S
N929 H949 0.862 . S
C930 C925 1.501 . S
C930 H931 0.961 . S
C930 H932 0.961 . S
C930 H933 0.960 . S
H931 C930 0.961 . S
H932 C930 0.961 . S
H933 C930 0.960 . S
C934 N935 1.342 . S
C934 C938 1.401 . S
C934 C939 1.499 . S
N935 Co918 1.989 . S
N935 C934 1.342 . S
N935 N936 1.388 . S
N936 Co919 1.993 . S
N936 N935 1.388 . S
N936 C937 1.346 . S
C937 N936 1.346 . S
C937 C938 1.396 . S
C937 C947 1.510 . S
C938 C934 1.401 . S
C938 C937 1.396 . S
C939 C934 1.499 . S
C939 H940 0.959 . S
C939 H941 0.960 . S
C939 H942 0.961 . S
H940 C939 0.959 . S
H941 C939 0.960 . S
H942 C939 0.961 . S
O943 Co918 1.967 1_556 S
O943 C951 1.258 . S
O944 Co919 1.941 1_556 S
O944 C951 1.266 . S
H945 C947 0.959 . S
H946 C947 0.961 . S
C947 C937 1.510 . S
C947 H945 0.959 . S
C947 H946 0.961 . S
C947 H948 0.960 . S
H948 C947 0.960 . S
H949 N929 0.862 . S
O950 Co918 1.920 . S
O950 C923 1.289 . S
C951 O943 1.258 . S
C951 O944 1.266 . S
Co952 O955 1.970 . S
Co952 N969 1.989 . S
Co952 O977 1.967 1_554 S
Co952 O984 1.920 . S
Co953 O956 1.966 . S
Co953 N962 2.022 . S
Co953 N970 1.993 . S
Co953 O978 1.941 1_554 S
C954 O955 1.258 . S
C954 O956 1.263 . S
O955 Co952 1.970 . S
O955 C954 1.258 . S
O956 Co953 1.966 . S
O956 C954 1.263 . S
C957 O958 1.235 . S
C957 O984 1.289 . S
O958 C957 1.235 . S
C959 C961 1.400 . S
C959 N962 1.351 . S
C959 C964 1.501 . S
C960 C961 1.387 . S
C960 N963 1.341 . S
C961 C959 1.400 . S
C961 C960 1.387 . S
N962 Co953 2.022 . S
N962 C959 1.351 . S
N962 N963 1.365 . S
N963 C960 1.341 . S
N963 N962 1.365 . S
N963 H983 0.862 . S
C964 C959 1.501 . S
C964 H965 0.961 . S
C964 H966 0.961 . S
C964 H967 0.960 . S
H965 C964 0.961 . S
H966 C964 0.961 . S
H967 C964 0.960 . S
C968 N969 1.342 . S
C968 C972 1.401 . S
C968 C973 1.499 . S
N969 Co952 1.989 . S
N969 C968 1.342 . S
N969 N970 1.388 . S
N970 Co953 1.993 . S
N970 N969 1.388 . S
N970 C971 1.346 . S
C971 N970 1.346 . S
C971 C972 1.396 . S
C971 C981 1.510 . S
C972 C968 1.401 . S
C972 C971 1.396 . S
C973 C968 1.499 . S
C973 H974 0.959 . S
C973 H975 0.960 . S
C973 H976 0.961 . S
H974 C973 0.959 . S
H975 C973 0.960 . S
H976 C973 0.961 . S
O977 Co952 1.967 1_556 S
O977 C985 1.258 . S
O978 Co953 1.941 1_556 S
O978 C985 1.266 . S
H979 C981 0.959 . S
H980 C981 0.961 . S
C981 C971 1.510 . S
C981 H979 0.959 . S
C981 H980 0.961 . S
C981 H982 0.960 . S
H982 C981 0.960 . S
H983 N963 0.862 . S
O984 Co952 1.920 . S
O984 C957 1.289 . S
C985 O977 1.258 . S
C985 O978 1.266 . S
Co986 O989 1.970 . S
Co986 N1003 1.989 . S
Co986 O1011 1.967 1_554 S
Co986 O1018 1.920 . S
Co987 O990 1.966 . S
Co987 N996 2.022 . S
Co987 N1004 1.993 . S
Co987 O1012 1.941 1_554 S
C988 O989 1.258 . S
C988 O990 1.263 . S
O989 Co986 1.970 . S
O989 C988 1.258 . S
O990 Co987 1.966 . S
O990 C988 1.263 . S
C991 O992 1.235 . S
C991 O1018 1.289 . S
O992 C991 1.235 . S
C993 C995 1.400 . S
C993 N996 1.351 . S
C993 C998 1.501 . S
C994 C995 1.387 . S
C994 N997 1.341 . S
C995 C993 1.400 . S
C995 C994 1.387 . S
N996 Co987 2.022 . S
N996 C993 1.351 . S
N996 N997 1.365 . S
N997 C994 1.341 . S
N997 N996 1.365 . S
N997 H1017 0.862 . S
C998 C993 1.501 . S
C998 H999 0.961 . S
C998 H1000 0.961 . S
C998 H1001 0.960 . S
H999 C998 0.961 . S
H1000 C998 0.961 . S
H1001 C998 0.960 . S
C1002 N1003 1.342 . S
C1002 C1006 1.401 . S
C1002 C1007 1.499 . S
N1003 Co986 1.989 . S
N1003 C1002 1.342 . S
N1003 N1004 1.388 . S
N1004 Co987 1.993 . S
N1004 N1003 1.388 . S
N1004 C1005 1.346 . S
C1005 N1004 1.346 . S
C1005 C1006 1.396 . S
C1005 C1015 1.510 . S
C1006 C1002 1.401 . S
C1006 C1005 1.396 . S
C1007 C1002 1.499 . S
C1007 H1008 0.959 . S
C1007 H1009 0.960 . S
C1007 H1010 0.961 . S
H1008 C1007 0.959 . S
H1009 C1007 0.960 . S
H1010 C1007 0.961 . S
O1011 Co986 1.967 1_556 S
O1011 C1019 1.258 . S
O1012 Co987 1.941 1_556 S
O1012 C1019 1.266 . S
H1013 C1015 0.959 . S
H1014 C1015 0.961 . S
C1015 C1005 1.510 . S
C1015 H1013 0.959 . S
C1015 H1014 0.961 . S
C1015 H1016 0.960 . S
H1016 C1015 0.960 . S
H1017 N997 0.862 . S
O1018 Co986 1.920 . S
O1018 C991 1.289 . S
C1019 O1011 1.258 . S
C1019 O1012 1.266 . S
Co1020 O1023 1.970 . S
Co1020 N1037 1.989 . S
Co1020 O1045 1.967 . S
Co1020 O1052 1.920 . S
Co1021 O1024 1.966 . S
Co1021 N1030 2.022 . S
Co1021 N1038 1.993 . S
Co1021 O1046 1.941 . S
C1022 O1023 1.258 . S
C1022 O1024 1.263 . S
O1023 Co1020 1.970 . S
O1023 C1022 1.258 . S
O1024 Co1021 1.966 . S
O1024 C1022 1.263 . S
C1025 O1026 1.235 . S
C1025 O1052 1.289 . S
O1026 C1025 1.235 . S
C1027 C1029 1.400 . S
C1027 N1030 1.351 . S
C1027 C1032 1.501 . S
C1028 C1029 1.387 . S
C1028 N1031 1.341 . S
C1029 C1027 1.400 . S
C1029 C1028 1.387 . S
N1030 Co1021 2.022 . S
N1030 C1027 1.351 . S
N1030 N1031 1.365 . S
N1031 C1028 1.341 . S
N1031 N1030 1.365 . S
N1031 H1051 0.862 . S
C1032 C1027 1.501 . S
C1032 H1033 0.961 . S
C1032 H1034 0.961 . S
C1032 H1035 0.960 . S
H1033 C1032 0.961 . S
H1034 C1032 0.961 . S
H1035 C1032 0.960 . S
C1036 N1037 1.342 . S
C1036 C1040 1.401 . S
C1036 C1041 1.499 . S
N1037 Co1020 1.989 . S
N1037 C1036 1.342 . S
N1037 N1038 1.388 . S
N1038 Co1021 1.993 . S
N1038 N1037 1.388 . S
N1038 C1039 1.346 . S
C1039 N1038 1.346 . S
C1039 C1040 1.396 . S
C1039 C1049 1.510 . S
C1040 C1036 1.401 . S
C1040 C1039 1.396 . S
C1041 C1036 1.499 . S
C1041 H1042 0.959 . S
C1041 H1043 0.960 . S
C1041 H1044 0.961 . S
H1042 C1041 0.959 . S
H1043 C1041 0.960 . S
H1044 C1041 0.961 . S
O1045 Co1020 1.967 . S
O1045 C1053 1.258 . S
O1046 Co1021 1.941 . S
O1046 C1053 1.266 . S
H1047 C1049 0.959 . S
H1048 C1049 0.961 . S
C1049 C1039 1.510 . S
C1049 H1047 0.959 . S
C1049 H1048 0.961 . S
C1049 H1050 0.960 . S
H1050 C1049 0.960 . S
H1051 N1031 0.862 . S
O1052 Co1020 1.920 . S
O1052 C1025 1.289 . S
C1053 O1045 1.258 . S
C1053 O1046 1.266 . S
Co1054 O1057 1.970 . S
Co1054 N1071 1.989 . S
Co1054 O1079 1.967 . S
Co1054 O1086 1.920 . S
Co1055 O1058 1.966 . S
Co1055 N1064 2.022 . S
Co1055 N1072 1.993 . S
Co1055 O1080 1.941 . S
C1056 O1057 1.258 . S
C1056 O1058 1.263 . S
O1057 Co1054 1.970 . S
O1057 C1056 1.258 . S
O1058 Co1055 1.966 . S
O1058 C1056 1.263 . S
C1059 O1060 1.235 . S
C1059 O1086 1.289 . S
O1060 C1059 1.235 . S
C1061 C1063 1.400 . S
C1061 N1064 1.351 . S
C1061 C1066 1.501 . S
C1062 C1063 1.387 . S
C1062 N1065 1.341 . S
C1063 C1061 1.400 . S
C1063 C1062 1.387 . S
N1064 Co1055 2.022 . S
N1064 C1061 1.351 . S
N1064 N1065 1.365 . S
N1065 C1062 1.341 . S
N1065 N1064 1.365 . S
N1065 H1085 0.862 . S
C1066 C1061 1.501 . S
C1066 H1067 0.961 . S
C1066 H1068 0.961 . S
C1066 H1069 0.960 . S
H1067 C1066 0.961 . S
H1068 C1066 0.961 . S
H1069 C1066 0.960 . S
C1070 N1071 1.342 . S
C1070 C1074 1.401 . S
C1070 C1075 1.499 . S
N1071 Co1054 1.989 . S
N1071 C1070 1.342 . S
N1071 N1072 1.388 . S
N1072 Co1055 1.993 . S
N1072 N1071 1.388 . S
N1072 C1073 1.346 . S
C1073 N1072 1.346 . S
C1073 C1074 1.396 . S
C1073 C1083 1.510 . S
C1074 C1070 1.401 . S
C1074 C1073 1.396 . S
C1075 C1070 1.499 . S
C1075 H1076 0.959 . S
C1075 H1077 0.960 . S
C1075 H1078 0.961 . S
H1076 C1075 0.959 . S
H1077 C1075 0.960 . S
H1078 C1075 0.961 . S
O1079 Co1054 1.967 . S
O1079 C1087 1.258 . S
O1080 Co1055 1.941 . S
O1080 C1087 1.266 . S
H1081 C1083 0.959 . S
H1082 C1083 0.961 . S
C1083 C1073 1.510 . S
C1083 H1081 0.959 . S
C1083 H1082 0.961 . S
C1083 H1084 0.960 . S
H1084 C1083 0.960 . S
H1085 N1065 0.862 . S
O1086 Co1054 1.920 . S
O1086 C1059 1.289 . S
C1087 O1079 1.258 . S
C1087 O1080 1.266 . S
Co1088 O1091 1.970 . S
Co1088 N1105 1.989 . S
Co1088 O1113 1.967 . S
Co1088 O1120 1.920 . S
Co1089 O1092 1.966 . S
Co1089 N1098 2.022 . S
Co1089 N1106 1.993 . S
Co1089 O1114 1.941 . S
C1090 O1091 1.258 . S
C1090 O1092 1.263 . S
O1091 Co1088 1.970 . S
O1091 C1090 1.258 . S
O1092 Co1089 1.966 . S
O1092 C1090 1.263 . S
C1093 O1094 1.235 . S
C1093 O1120 1.289 . S
O1094 C1093 1.235 . S
C1095 C1097 1.400 . S
C1095 N1098 1.351 . S
C1095 C1100 1.501 . S
C1096 C1097 1.387 . S
C1096 N1099 1.341 . S
C1097 C1095 1.400 . S
C1097 C1096 1.387 . S
N1098 Co1089 2.022 . S
N1098 C1095 1.351 . S
N1098 N1099 1.365 . S
N1099 C1096 1.341 . S
N1099 N1098 1.365 . S
N1099 H1119 0.862 . S
C1100 C1095 1.501 . S
C1100 H1101 0.961 . S
C1100 H1102 0.961 . S
C1100 H1103 0.960 . S
H1101 C1100 0.961 . S
H1102 C1100 0.961 . S
H1103 C1100 0.960 . S
C1104 N1105 1.342 . S
C1104 C1108 1.401 . S
C1104 C1109 1.499 . S
N1105 Co1088 1.989 . S
N1105 C1104 1.342 . S
N1105 N1106 1.388 . S
N1106 Co1089 1.993 . S
N1106 N1105 1.388 . S
N1106 C1107 1.346 . S
C1107 N1106 1.346 . S
C1107 C1108 1.396 . S
C1107 C1117 1.510 . S
C1108 C1104 1.401 . S
C1108 C1107 1.396 . S
C1109 C1104 1.499 . S
C1109 H1110 0.959 . S
C1109 H1111 0.960 . S
C1109 H1112 0.961 . S
H1110 C1109 0.959 . S
H1111 C1109 0.960 . S
H1112 C1109 0.961 . S
O1113 Co1088 1.967 . S
O1113 C1121 1.258 . S
O1114 Co1089 1.941 . S
O1114 C1121 1.266 . S
H1115 C1117 0.959 . S
H1116 C1117 0.961 . S
C1117 C1107 1.510 . S
C1117 H1115 0.959 . S
C1117 H1116 0.961 . S
C1117 H1118 0.960 . S
H1118 C1117 0.960 . S
H1119 N1099 0.862 . S
O1120 Co1088 1.920 . S
O1120 C1093 1.289 . S
C1121 O1113 1.258 . S
C1121 O1114 1.266 . S
Co1122 O1125 1.970 . S
Co1122 N1139 1.989 . S
Co1122 O1147 1.967 . S
Co1122 O1154 1.920 . S
Co1123 O1126 1.966 . S
Co1123 N1132 2.022 . S
Co1123 N1140 1.993 . S
Co1123 O1148 1.941 . S
C1124 O1125 1.258 . S
C1124 O1126 1.263 . S
O1125 Co1122 1.970 . S
O1125 C1124 1.258 . S
O1126 Co1123 1.966 . S
O1126 C1124 1.263 . S
C1127 O1128 1.235 . S
C1127 O1154 1.289 . S
O1128 C1127 1.235 . S
C1129 C1131 1.400 . S
C1129 N1132 1.351 . S
C1129 C1134 1.501 . S
C1130 C1131 1.387 . S
C1130 N1133 1.341 . S
C1131 C1129 1.400 . S
C1131 C1130 1.387 . S
N1132 Co1123 2.022 . S
N1132 C1129 1.351 . S
N1132 N1133 1.365 . S
N1133 C1130 1.341 . S
N1133 N1132 1.365 . S
N1133 H1153 0.862 . S
C1134 C1129 1.501 . S
C1134 H1135 0.961 . S
C1134 H1136 0.961 . S
C1134 H1137 0.960 . S
H1135 C1134 0.961 . S
H1136 C1134 0.961 . S
H1137 C1134 0.960 . S
C1138 N1139 1.342 . S
C1138 C1142 1.401 . S
C1138 C1143 1.499 . S
N1139 Co1122 1.989 . S
N1139 C1138 1.342 . S
N1139 N1140 1.388 . S
N1140 Co1123 1.993 . S
N1140 N1139 1.388 . S
N1140 C1141 1.346 . S
C1141 N1140 1.346 . S
C1141 C1142 1.396 . S
C1141 C1151 1.510 . S
C1142 C1138 1.401 . S
C1142 C1141 1.396 . S
C1143 C1138 1.499 . S
C1143 H1144 0.959 . S
C1143 H1145 0.960 . S
C1143 H1146 0.961 . S
H1144 C1143 0.959 . S
H1145 C1143 0.960 . S
H1146 C1143 0.961 . S
O1147 Co1122 1.967 . S
O1147 C1155 1.258 . S
O1148 Co1123 1.941 . S
O1148 C1155 1.266 . S
H1149 C1151 0.959 . S
H1150 C1151 0.961 . S
C1151 C1141 1.510 . S
C1151 H1149 0.959 . S
C1151 H1150 0.961 . S
C1151 H1152 0.960 . S
H1152 C1151 0.960 . S
H1153 N1133 0.862 . S
O1154 Co1122 1.920 . S
O1154 C1127 1.289 . S
C1155 O1147 1.258 . S
C1155 O1148 1.266 . S
Co1156 O1159 1.970 . S
Co1156 N1173 1.989 . S
Co1156 O1181 1.967 . S
Co1156 O1188 1.920 . S
Co1157 O1160 1.966 . S
Co1157 N1166 2.022 . S
Co1157 N1174 1.993 . S
Co1157 O1182 1.941 . S
C1158 O1159 1.258 . S
C1158 O1160 1.263 . S
O1159 Co1156 1.970 . S
O1159 C1158 1.258 . S
O1160 Co1157 1.966 . S
O1160 C1158 1.263 . S
C1161 O1162 1.235 . S
C1161 O1188 1.289 . S
O1162 C1161 1.235 . S
C1163 C1165 1.400 . S
C1163 N1166 1.351 . S
C1163 C1168 1.501 . S
C1164 C1165 1.387 . S
C1164 N1167 1.341 . S
C1165 C1163 1.400 . S
C1165 C1164 1.387 . S
N1166 Co1157 2.022 . S
N1166 C1163 1.351 . S
N1166 N1167 1.365 . S
N1167 C1164 1.341 . S
N1167 N1166 1.365 . S
N1167 H1187 0.862 . S
C1168 C1163 1.501 . S
C1168 H1169 0.961 . S
C1168 H1170 0.961 . S
C1168 H1171 0.960 . S
H1169 C1168 0.961 . S
H1170 C1168 0.961 . S
H1171 C1168 0.960 . S
C1172 N1173 1.342 . S
C1172 C1176 1.401 . S
C1172 C1177 1.499 . S
N1173 Co1156 1.989 . S
N1173 C1172 1.342 . S
N1173 N1174 1.388 . S
N1174 Co1157 1.993 . S
N1174 N1173 1.388 . S
N1174 C1175 1.346 . S
C1175 N1174 1.346 . S
C1175 C1176 1.396 . S
C1175 C1185 1.510 . S
C1176 C1172 1.401 . S
C1176 C1175 1.396 . S
C1177 C1172 1.499 . S
C1177 H1178 0.959 . S
C1177 H1179 0.960 . S
C1177 H1180 0.961 . S
H1178 C1177 0.959 . S
H1179 C1177 0.960 . S
H1180 C1177 0.961 . S
O1181 Co1156 1.967 . S
O1181 C1189 1.258 . S
O1182 Co1157 1.941 . S
O1182 C1189 1.266 . S
H1183 C1185 0.959 . S
H1184 C1185 0.961 . S
C1185 C1175 1.510 . S
C1185 H1183 0.959 . S
C1185 H1184 0.961 . S
C1185 H1186 0.960 . S
H1186 C1185 0.960 . S
H1187 N1167 0.862 . S
O1188 Co1156 1.920 . S
O1188 C1161 1.289 . S
C1189 O1181 1.258 . S
C1189 O1182 1.266 . S
Co1190 O1193 1.970 . S
Co1190 N1207 1.989 . S
Co1190 O1215 1.967 . S
Co1190 O1222 1.920 . S
Co1191 O1194 1.966 . S
Co1191 N1200 2.022 . S
Co1191 N1208 1.993 . S
Co1191 O1216 1.941 . S
C1192 O1193 1.258 . S
C1192 O1194 1.263 . S
O1193 Co1190 1.970 . S
O1193 C1192 1.258 . S
O1194 Co1191 1.966 . S
O1194 C1192 1.263 . S
C1195 O1196 1.235 . S
C1195 O1222 1.289 . S
O1196 C1195 1.235 . S
C1197 C1199 1.400 . S
C1197 N1200 1.351 . S
C1197 C1202 1.501 . S
C1198 C1199 1.387 . S
C1198 N1201 1.341 . S
C1199 C1197 1.400 . S
C1199 C1198 1.387 . S
N1200 Co1191 2.022 . S
N1200 C1197 1.351 . S
N1200 N1201 1.365 . S
N1201 C1198 1.341 . S
N1201 N1200 1.365 . S
N1201 H1221 0.862 . S
C1202 C1197 1.501 . S
C1202 H1203 0.961 . S
C1202 H1204 0.961 . S
C1202 H1205 0.960 . S
H1203 C1202 0.961 . S
H1204 C1202 0.961 . S
H1205 C1202 0.960 . S
C1206 N1207 1.342 . S
C1206 C1210 1.401 . S
C1206 C1211 1.499 . S
N1207 Co1190 1.989 . S
N1207 C1206 1.342 . S
N1207 N1208 1.388 . S
N1208 Co1191 1.993 . S
N1208 N1207 1.388 . S
N1208 C1209 1.346 . S
C1209 N1208 1.346 . S
C1209 C1210 1.396 . S
C1209 C1219 1.510 . S
C1210 C1206 1.401 . S
C1210 C1209 1.396 . S
C1211 C1206 1.499 . S
C1211 H1212 0.959 . S
C1211 H1213 0.960 . S
C1211 H1214 0.961 . S
H1212 C1211 0.959 . S
H1213 C1211 0.960 . S
H1214 C1211 0.961 . S
O1215 Co1190 1.967 . S
O1215 C1223 1.258 . S
O1216 Co1191 1.941 . S
O1216 C1223 1.266 . S
H1217 C1219 0.959 . S
H1218 C1219 0.961 . S
C1219 C1209 1.510 . S
C1219 H1217 0.959 . S
C1219 H1218 0.961 . S
C1219 H1220 0.960 . S
H1220 C1219 0.960 . S
H1221 N1201 0.862 . S
O1222 Co1190 1.920 . S
O1222 C1195 1.289 . S
C1223 O1215 1.258 . S
C1223 O1216 1.266 . S
C1224 C1225 1.387 . S
C1224 H1228 0.950 . S
C1224 C1233 1.390 . S
C1225 C1224 1.387 . S
C1225 C1227 1.387 . S
H1226 C1233 0.950 . S
C1227 C1225 1.387 . S
C1227 C1229 1.390 . S
C1227 H1231 0.950 . S
H1228 C1224 0.950 . S
C1229 C1227 1.390 . S
C1229 C1230 1.387 . S
C1229 H1232 0.950 . S
C1230 C1229 1.387 . S
C1230 C1233 1.387 . S
H1231 C1227 0.950 . S
H1232 C1229 0.950 . S
C1233 C1224 1.390 . S
C1233 H1226 0.950 . S
C1233 C1230 1.387 . S
C1234 C1235 1.387 . S
C1234 H1238 0.950 . S
C1234 C1243 1.390 1_565 S
C1235 C1234 1.387 . S
C1235 C1237 1.387 1_565 S
H1236 C1243 0.950 . S
C1237 C1235 1.387 1_545 S
C1237 C1239 1.390 . S
C1237 H1241 0.950 . S
H1238 C1234 0.950 . S
C1239 C1237 1.390 . S
C1239 C1240 1.387 . S
C1239 H1242 0.950 . S
C1240 C1239 1.387 . S
C1240 C1243 1.387 . S
H1241 C1237 0.950 . S
H1242 C1239 0.950 . S
C1243 C1234 1.390 1_545 S
C1243 H1236 0.950 . S
C1243 C1240 1.387 . S
C1244 C1245 1.387 1_655 S
C1244 H1248 0.950 . S
C1244 C1253 1.390 . S
C1245 C1244 1.387 1_455 S
C1245 C1247 1.387 . S
H1246 C1253 0.950 . S
C1247 C1245 1.387 . S
C1247 C1249 1.390 1_455 S
C1247 H1251 0.950 . S
H1248 C1244 0.950 . S
C1249 C1247 1.390 1_655 S
C1249 C1250 1.387 . S
C1249 H1252 0.950 . S
C1250 C1249 1.387 . S
C1250 C1253 1.387 . S
H1251 C1247 0.950 . S
H1252 C1249 0.950 . S
C1253 C1244 1.390 . S
C1253 H1246 0.950 . S
C1253 C1250 1.387 . S
C1254 C1255 1.387 . S
C1254 H1258 0.950 . S
C1254 C1263 1.390 . S
C1255 C1254 1.387 . S
C1255 C1257 1.387 . S
H1256 C1263 0.950 . S
C1257 C1255 1.387 . S
C1257 C1259 1.390 . S
C1257 H1261 0.950 . S
H1258 C1254 0.950 . S
C1259 C1257 1.390 . S
C1259 C1260 1.387 . S
C1259 H1262 0.950 . S
C1260 C1259 1.387 . S
C1260 C1263 1.387 . S
H1261 C1257 0.950 . S
H1262 C1259 0.950 . S
C1263 C1254 1.390 . S
C1263 H1256 0.950 . S
C1263 C1260 1.387 . S
C1264 C1265 1.387 1_565 S
C1264 H1268 0.950 . S
C1264 C1273 1.390 . S
C1265 C1264 1.387 1_545 S
C1265 C1267 1.387 1_545 S
H1266 C1273 0.950 . S
C1267 C1265 1.387 1_565 S
C1267 C1269 1.390 . S
C1267 H1271 0.950 1_565 S
H1268 C1264 0.950 . S
C1269 C1267 1.390 . S
C1269 C1270 1.387 . S
C1269 H1272 0.950 . S
C1270 C1269 1.387 . S
C1270 C1273 1.387 . S
H1271 C1267 0.950 1_545 S
H1272 C1269 0.950 . S
C1273 C1264 1.390 . S
C1273 H1266 0.950 . S
C1273 C1270 1.387 . S
C1274 C1275 1.387 1_455 S
C1274 H1278 0.950 . S
C1274 C1283 1.390 . S
C1275 C1274 1.387 1_655 S
C1275 C1277 1.387 1_655 S
H1276 C1283 0.950 . S
C1277 C1275 1.387 1_455 S
C1277 C1279 1.390 . S
C1277 H1281 0.950 1_455 S
H1278 C1274 0.950 . S
C1279 C1277 1.390 . S
C1279 C1280 1.387 . S
C1279 H1282 0.950 . S
C1280 C1279 1.387 . S
C1280 C1283 1.387 . S
H1281 C1277 0.950 1_655 S
H1282 C1279 0.950 . S
C1283 C1274 1.390 . S
C1283 H1276 0.950 . S
C1283 C1280 1.387 . S
C1284 C1285 1.387 . S
C1284 H1288 0.950 . S
C1284 C1293 1.390 . S
C1285 C1284 1.387 . S
C1285 C1287 1.387 . S
H1286 C1293 0.950 . S
C1287 C1285 1.387 . S
C1287 C1289 1.390 . S
C1287 H1291 0.950 . S
H1288 C1284 0.950 . S
C1289 C1287 1.390 . S
C1289 C1290 1.387 . S
C1289 H1292 0.950 . S
C1290 C1289 1.387 . S
C1290 C1293 1.387 . S
H1291 C1287 0.950 . S
H1292 C1289 0.950 . S
C1293 C1284 1.390 . S
C1293 H1286 0.950 . S
C1293 C1290 1.387 . S
C1294 C1295 1.387 . S
C1294 H1298 0.950 . S
C1294 C1303 1.390 . S
C1295 C1294 1.387 . S
C1295 C1297 1.387 . S
H1296 C1303 0.950 1_545 S
C1297 C1295 1.387 . S
C1297 C1299 1.390 . S
C1297 H1301 0.950 . S
H1298 C1294 0.950 . S
C1299 C1297 1.390 . S
C1299 C1300 1.387 1_565 S
C1299 H1302 0.950 . S
C1300 C1299 1.387 1_545 S
C1300 C1303 1.387 1_545 S
H1301 C1297 0.950 . S
H1302 C1299 0.950 . S
C1303 C1294 1.390 . S
C1303 H1296 0.950 1_565 S
C1303 C1300 1.387 1_565 S
C1304 C1305 1.387 . S
C1304 H1308 0.950 . S
C1304 C1313 1.390 . S
C1305 C1304 1.387 . S
C1305 C1307 1.387 . S
H1306 C1313 0.950 . S
C1307 C1305 1.387 . S
C1307 C1309 1.424 . S
C1307 H1311 0.950 . S
H1308 C1304 0.950 . S
C1309 C1307 1.424 . S
C1309 C1310 1.367 1_455 S
C1309 H1312 0.937 1_455 S
C1310 C1309 1.367 1_655 S
C1310 C1313 1.387 1_655 S
H1311 C1307 0.950 . S
H1312 C1309 0.937 1_655 S
C1313 C1304 1.390 . S
C1313 H1306 0.950 . S
C1313 C1310 1.387 1_455 S
C1314 C1315 1.387 . S
C1314 H1318 0.950 . S
C1314 C1323 1.390 . S
C1315 C1314 1.387 . S
C1315 C1317 1.387 . S
H1316 C1323 0.950 . S
C1317 C1315 1.387 . S
C1317 C1319 1.390 . S
C1317 H1321 0.950 . S
H1318 C1314 0.950 . S
C1319 C1317 1.390 . S
C1319 C1320 1.387 . S
C1319 H1322 0.950 . S
C1320 C1319 1.387 . S
C1320 C1323 1.387 . S
H1321 C1317 0.950 . S
H1322 C1319 0.950 . S
C1323 C1314 1.390 . S
C1323 H1316 0.950 . S
C1323 C1320 1.387 . S
C1324 C1325 1.387 1_545 S
C1324 H1328 0.950 . S
C1324 C1333 1.390 . S
C1325 C1324 1.387 1_565 S
C1325 C1327 1.387 . S
H1326 C1333 0.950 . S
C1327 C1325 1.387 . S
C1327 C1329 1.390 1_565 S
C1327 H1331 0.950 . S
H1328 C1324 0.950 . S
C1329 C1327 1.390 1_545 S
C1329 C1330 1.387 . S
C1329 H1332 0.950 . S
C1330 C1329 1.387 . S
C1330 C1333 1.387 . S
H1331 C1327 0.950 . S
H1332 C1329 0.950 . S
C1333 C1324 1.390 . S
C1333 H1326 0.950 . S
C1333 C1330 1.387 . S
C1334 C1335 1.387 . S
C1334 H1338 0.950 . S
C1334 C1343 1.390 . S
C1335 C1334 1.387 . S
C1335 C1337 1.387 . S
H1336 C1343 0.950 . S
C1337 C1335 1.387 . S
C1337 C1339 1.409 . S
C1337 H1341 0.950 . S
H1338 C1334 0.950 . S
C1339 C1337 1.409 . S
C1339 C1340 1.391 1_655 S
C1339 H1342 0.929 1_655 S
C1340 C1339 1.391 1_455 S
C1340 C1343 1.387 1_455 S
H1341 C1337 0.950 . S
H1342 C1339 0.929 1_455 S
C1343 C1334 1.390 . S
C1343 H1336 0.950 . S
C1343 C1340 1.387 1_655 S
C1344 C1345 1.387 . S
C1344 H1348 0.950 . S
C1344 C1353 1.390 . S
C1345 C1344 1.387 . S
C1345 C1347 1.387 . S
H1346 C1353 0.950 . S
C1347 C1345 1.387 . S
C1347 C1349 1.390 . S
C1347 H1351 0.950 . S
H1348 C1344 0.950 . S
C1349 C1347 1.390 . S
C1349 C1350 1.387 . S
C1349 H1352 0.950 . S
C1350 C1349 1.387 . S
C1350 C1353 1.387 . S
H1351 C1347 0.950 . S
H1352 C1349 0.950 . S
C1353 C1344 1.390 . S
C1353 H1346 0.950 . S
C1353 C1350 1.387 . S
C1354 C1355 1.387 . S
C1354 H1358 0.950 . S
C1354 C1363 1.390 . S
C1355 C1354 1.387 . S
C1355 C1357 1.387 . S
H1356 C1363 0.950 . S
C1357 C1355 1.387 . S
C1357 C1359 1.390 . S
C1357 H1361 0.950 . S
H1358 C1354 0.950 . S
C1359 C1357 1.390 . S
C1359 C1360 1.387 . S
C1359 H1362 0.950 . S
C1360 C1359 1.387 . S
C1360 C1363 1.387 . S
H1361 C1357 0.950 . S
H1362 C1359 0.950 . S
C1363 C1354 1.390 . S
C1363 H1356 0.950 . S
C1363 C1360 1.387 . S
C1364 C1365 1.387 . S
C1364 H1368 0.950 . S
C1364 C1373 1.390 . S
C1365 C1364 1.387 . S
C1365 C1367 1.387 . S
H1366 C1373 0.950 . S
C1367 C1365 1.387 . S
C1367 C1369 1.390 . S
C1367 H1371 0.950 . S
H1368 C1364 0.950 . S
C1369 C1367 1.390 . S
C1369 C1370 1.387 . S
C1369 H1372 0.950 . S
C1370 C1369 1.387 . S
C1370 C1373 1.387 . S
H1371 C1367 0.950 . S
H1372 C1369 0.950 . S
C1373 C1364 1.390 . S
C1373 H1366 0.950 . S
C1373 C1370 1.387 . S
C1374 C1375 1.387 . S
C1374 H1378 0.950 . S
C1374 C1383 1.390 . S
C1375 C1374 1.387 . S
C1375 C1377 1.387 . S
H1376 C1383 0.950 . S
C1377 C1375 1.387 . S
C1377 C1379 1.390 . S
C1377 H1381 0.950 . S
H1378 C1374 0.950 . S
C1379 C1377 1.390 . S
C1379 C1380 1.387 . S
C1379 H1382 0.950 . S
C1380 C1379 1.387 . S
C1380 C1383 1.387 . S
H1381 C1377 0.950 . S
H1382 C1379 0.950 . S
C1383 C1374 1.390 . S
C1383 H1376 0.950 . S
C1383 C1380 1.387 . S
C1384 C1385 1.387 . S
C1384 H1388 0.950 . S
C1384 C1393 1.390 . S
C1385 C1384 1.387 . S
C1385 C1387 1.387 . S
H1386 C1393 0.950 . S
C1387 C1385 1.387 . S
C1387 C1389 1.390 . S
C1387 H1391 0.950 . S
H1388 C1384 0.950 . S
C1389 C1387 1.390 . S
C1389 C1390 1.387 . S
C1389 H1392 0.950 . S
C1390 C1389 1.387 . S
C1390 C1393 1.387 . S
H1391 C1387 0.950 . S
H1392 C1389 0.950 . S
C1393 C1384 1.390 . S
C1393 H1386 0.950 . S
C1393 C1390 1.387 . S
C1394 C1395 1.387 . S
C1394 H1398 0.950 . S
C1394 C1403 1.390 . S
C1395 C1394 1.387 . S
C1395 C1397 1.387 . S
H1396 C1403 0.950 . S
C1397 C1395 1.387 . S
C1397 C1399 1.390 . S
C1397 H1401 0.950 . S
H1398 C1394 0.950 . S
C1399 C1397 1.390 . S
C1399 C1400 1.387 . S
C1399 H1402 0.950 . S
C1400 C1399 1.387 . S
C1400 C1403 1.387 . S
H1401 C1397 0.950 . S
H1402 C1399 0.950 . S
C1403 C1394 1.390 . S
C1403 H1396 0.950 . S
C1403 C1400 1.387 . S
C1404 C1405 1.387 . S
C1404 H1408 0.950 . S
C1404 C1413 1.390 . S
C1405 C1404 1.387 . S
C1405 C1407 1.387 . S
H1406 C1413 0.950 . S
C1407 C1405 1.387 . S
C1407 C1409 1.390 . S
C1407 H1411 0.950 . S
H1408 C1404 0.950 . S
C1409 C1407 1.390 . S
C1409 C1410 1.387 . S
C1409 H1412 0.950 . S
C1410 C1409 1.387 . S
C1410 C1413 1.387 . S
H1411 C1407 0.950 . S
H1412 C1409 0.950 . S
C1413 C1404 1.390 . S
C1413 H1406 0.950 . S
C1413 C1410 1.387 . S
C1414 C1415 1.387 . S
C1414 H1418 0.950 . S
C1414 C1423 1.390 . S
C1415 C1414 1.387 . S
C1415 C1417 1.387 . S
H1416 C1423 0.950 . S
C1417 C1415 1.387 . S
C1417 C1419 1.390 . S
C1417 H1421 0.950 . S
H1418 C1414 0.950 . S
C1419 C1417 1.390 . S
C1419 C1420 1.387 . S
C1419 H1422 0.950 . S
C1420 C1419 1.387 . S
C1420 C1423 1.387 . S
H1421 C1417 0.950 . S
H1422 C1419 0.950 . S
C1423 C1414 1.390 . S
C1423 H1416 0.950 . S
C1423 C1420 1.387 . S
C1424 C1425 1.387 . S
C1424 H1428 0.950 . S
C1424 C1433 1.390 . S
C1425 C1424 1.387 . S
C1425 C1427 1.387 . S
H1426 C1433 0.950 . S
C1427 C1425 1.387 . S
C1427 C1429 1.390 . S
C1427 H1431 0.950 . S
H1428 C1424 0.950 . S
C1429 C1427 1.390 . S
C1429 C1430 1.387 . S
C1429 H1432 0.950 . S
C1430 C1429 1.387 . S
C1430 C1433 1.387 . S
H1431 C1427 0.950 . S
H1432 C1429 0.950 . S
C1433 C1424 1.390 . S
C1433 H1426 0.950 . S
C1433 C1430 1.387 . S
C1434 C1435 1.387 . S
C1434 H1438 0.950 . S
C1434 C1443 1.390 . S
C1435 C1434 1.387 . S
C1435 C1437 1.387 . S
H1436 C1443 0.950 . S
C1437 C1435 1.387 . S
C1437 C1439 1.390 . S
C1437 H1441 0.950 . S
H1438 C1434 0.950 . S
C1439 C1437 1.390 . S
C1439 C1440 1.387 . S
C1439 H1442 0.950 . S
C1440 C1439 1.387 . S
C1440 C1443 1.387 . S
H1441 C1437 0.950 . S
H1442 C1439 0.950 . S
C1443 C1434 1.390 . S
C1443 H1436 0.950 . S
C1443 C1440 1.387 . S
C1444 C1445 1.387 . S
C1444 H1448 0.950 . S
C1444 C1453 1.390 . S
C1445 C1444 1.387 . S
C1445 C1447 1.387 . S
H1446 C1453 0.950 . S
C1447 C1445 1.387 . S
C1447 C1449 1.390 . S
C1447 H1451 0.950 . S
H1448 C1444 0.950 . S
C1449 C1447 1.390 . S
C1449 C1450 1.387 . S
C1449 H1452 0.950 . S
C1450 C1449 1.387 . S
C1450 C1453 1.387 . S
H1451 C1447 0.950 . S
H1452 C1449 0.950 . S
C1453 C1444 1.390 . S
C1453 H1446 0.950 . S
C1453 C1450 1.387 . S
C1454 C1455 1.387 . S
C1454 H1458 0.950 . S
C1454 C1463 1.390 . S
C1455 C1454 1.387 . S
C1455 C1457 1.387 . S
H1456 C1463 0.950 . S
C1457 C1455 1.387 . S
C1457 C1459 1.390 . S
C1457 H1461 0.950 . S
H1458 C1454 0.950 . S
C1459 C1457 1.390 . S
C1459 C1460 1.387 . S
C1459 H1462 0.950 . S
C1460 C1459 1.387 . S
C1460 C1463 1.387 . S
H1461 C1457 0.950 . S
H1462 C1459 0.950 . S
C1463 C1454 1.390 . S
C1463 H1456 0.950 . S
C1463 C1460 1.387 . S
C1464 C1465 1.387 . S
C1464 H1468 0.950 . S
C1464 C1473 1.390 . S
C1465 C1464 1.387 . S
C1465 C1467 1.387 . S
H1466 C1473 0.950 . S
C1467 C1465 1.387 . S
C1467 C1469 1.390 . S
C1467 H1471 0.950 . S
H1468 C1464 0.950 . S
C1469 C1467 1.390 . S
C1469 C1470 1.387 . S
C1469 H1472 0.950 . S
C1470 C1469 1.387 . S
C1470 C1473 1.387 . S
H1471 C1467 0.950 . S
H1472 C1469 0.950 . S
C1473 C1464 1.390 . S
C1473 H1466 0.950 . S
C1473 C1470 1.387 . S
C1474 C1475 1.387 . S
C1474 H1478 0.950 . S
C1474 C1483 1.390 . S
C1475 C1474 1.387 . S
C1475 C1477 1.387 . S
H1476 C1483 0.950 . S
C1477 C1475 1.387 . S
C1477 C1479 1.390 . S
C1477 H1481 0.950 . S
H1478 C1474 0.950 . S
C1479 C1477 1.390 . S
C1479 C1480 1.387 . S
C1479 H1482 0.950 . S
C1480 C1479 1.387 . S
C1480 C1483 1.387 . S
H1481 C1477 0.950 . S
H1482 C1479 0.950 . S
C1483 C1474 1.390 . S
C1483 H1476 0.950 . S
C1483 C1480 1.387 . S
C1484 C1485 1.387 . S
C1484 H1488 0.950 . S
C1484 C1493 1.390 . S
C1485 C1484 1.387 . S
C1485 C1487 1.387 . S
H1486 C1493 0.950 . S
C1487 C1485 1.387 . S
C1487 C1489 1.390 . S
C1487 H1491 0.950 . S
H1488 C1484 0.950 . S
C1489 C1487 1.390 . S
C1489 C1490 1.387 . S
C1489 H1492 0.950 . S
C1490 C1489 1.387 . S
C1490 C1493 1.387 . S
H1491 C1487 0.950 . S
H1492 C1489 0.950 . S
C1493 C1484 1.390 . S
C1493 H1486 0.950 . S
C1493 C1490 1.387 . S
C1494 C1495 1.387 . S
C1494 H1498 0.950 . S
C1494 C1503 1.390 . S
C1495 C1494 1.387 . S
C1495 C1497 1.387 . S
H1496 C1503 0.950 . S
C1497 C1495 1.387 . S
C1497 C1499 1.390 . S
C1497 H1501 0.950 . S
H1498 C1494 0.950 . S
C1499 C1497 1.390 . S
C1499 C1500 1.387 . S
C1499 H1502 0.950 . S
C1500 C1499 1.387 . S
C1500 C1503 1.387 . S
H1501 C1497 0.950 . S
H1502 C1499 0.950 . S
C1503 C1494 1.390 . S
C1503 H1496 0.950 . S
C1503 C1500 1.387 . S
C1504 C1505 1.387 . S
C1504 H1508 0.950 1_554 S
C1504 C1513 1.390 . S
C1505 C1504 1.387 . S
C1505 C1507 1.387 . S
H1506 C1513 0.950 . S
C1507 C1505 1.387 . S
C1507 C1509 1.390 . S
C1507 H1511 0.950 . S
H1508 C1504 0.950 1_556 S
C1509 C1507 1.390 . S
C1509 C1510 1.387 . S
C1509 H1512 0.950 . S
C1510 C1509 1.387 . S
C1510 C1513 1.387 . S
H1511 C1507 0.950 . S
H1512 C1509 0.950 . S
C1513 C1504 1.390 . S
C1513 H1506 0.950 . S
C1513 C1510 1.387 . S
C1514 C1515 1.387 . S
C1514 H1518 0.950 . S
C1514 C1523 1.390 . S
C1515 C1514 1.387 . S
C1515 C1517 1.387 . S
H1516 C1523 0.950 . S
C1517 C1515 1.387 . S
C1517 C1519 1.390 . S
C1517 H1521 0.915 1_554 S
H1518 C1514 0.950 . S
C1519 C1517 1.390 . S
C1519 C1520 1.387 . S
C1519 H1522 0.950 . S
C1520 C1519 1.387 . S
C1520 C1523 1.387 . S
H1521 C1517 0.915 1_556 S
H1522 C1519 0.950 . S
C1523 C1514 1.390 . S
C1523 H1516 0.950 . S
C1523 C1520 1.387 . S
C1524 C1525 1.387 . S
C1524 H1528 0.950 . S
C1524 C1533 1.390 . S
C1525 C1524 1.387 . S
C1525 C1527 1.387 . S
H1526 C1533 0.950 . S
C1527 C1525 1.387 . S
C1527 C1529 1.390 . S
C1527 H1531 0.950 . S
H1528 C1524 0.950 . S
C1529 C1527 1.390 . S
C1529 C1530 1.387 . S
C1529 H1532 0.950 . S
C1530 C1529 1.387 . S
C1530 C1533 1.387 . S
H1531 C1527 0.950 . S
H1532 C1529 0.950 . S
C1533 C1524 1.390 . S
C1533 H1526 0.950 . S
C1533 C1530 1.387 . S
C1534 C1535 1.387 . S
C1534 H1538 0.950 . S
C1534 C1543 1.390 . S
C1535 C1534 1.387 . S
C1535 C1537 1.387 . S
H1536 C1543 0.950 . S
C1537 C1535 1.387 . S
C1537 C1539 1.390 . S
C1537 H1541 0.950 . S
H1538 C1534 0.950 . S
C1539 C1537 1.390 . S
C1539 C1540 1.387 . S
C1539 H1542 0.950 . S
C1540 C1539 1.387 . S
C1540 C1543 1.387 . S
H1541 C1537 0.950 . S
H1542 C1539 0.950 . S
C1543 C1534 1.390 . S
C1543 H1536 0.950 . S
C1543 C1540 1.387 . S
C1544 C1545 1.387 . S
C1544 H1548 0.950 . S
C1544 C1553 1.390 . S
C1545 C1544 1.387 . S
C1545 C1547 1.387 . S
H1546 C1553 0.950 . S
C1547 C1545 1.387 . S
C1547 C1549 1.390 . S
C1547 H1551 0.950 . S
H1548 C1544 0.950 . S
C1549 C1547 1.390 . S
C1549 C1550 1.387 . S
C1549 H1552 0.950 . S
C1550 C1549 1.387 . S
C1550 C1553 1.387 . S
H1551 C1547 0.950 . S
H1552 C1549 0.950 . S
C1553 C1544 1.390 . S
C1553 H1546 0.950 . S
C1553 C1550 1.387 . S
C1554 C1555 1.387 . S
C1554 H1558 0.950 . S
C1554 C1563 1.390 . S
C1555 C1554 1.387 . S
C1555 C1557 1.387 . S
H1556 C1563 0.950 . S
C1557 C1555 1.387 . S
C1557 C1559 1.390 . S
C1557 H1561 0.950 . S
H1558 C1554 0.950 . S
C1559 C1557 1.390 . S
C1559 C1560 1.387 . S
C1559 H1562 0.950 . S
C1560 C1559 1.387 . S
C1560 C1563 1.387 . S
H1561 C1557 0.950 . S
H1562 C1559 0.950 . S
C1563 C1554 1.390 . S
C1563 H1556 0.950 . S
C1563 C1560 1.387 . S
C1564 C1565 1.387 . S
C1564 H1568 0.950 . S
C1564 C1573 1.390 . S
C1565 C1564 1.387 . S
C1565 C1567 1.387 . S
H1566 C1573 0.950 . S
C1567 C1565 1.387 . S
C1567 C1569 1.390 . S
C1567 H1571 0.950 . S
H1568 C1564 0.950 . S
C1569 C1567 1.390 . S
C1569 C1570 1.387 . S
C1569 H1572 0.950 . S
C1570 C1569 1.387 . S
C1570 C1573 1.387 . S
H1571 C1567 0.950 . S
H1572 C1569 0.950 . S
C1573 C1564 1.390 . S
C1573 H1566 0.950 . S
C1573 C1570 1.387 . S
C1574 C1575 1.387 . S
C1574 H1578 0.950 . S
C1574 C1583 1.390 . S
C1575 C1574 1.387 . S
C1575 C1577 1.387 . S
H1576 C1583 0.950 . S
C1577 C1575 1.387 . S
C1577 C1579 1.390 . S
C1577 H1581 0.950 . S
H1578 C1574 0.950 . S
C1579 C1577 1.390 . S
C1579 C1580 1.387 . S
C1579 H1582 0.950 . S
C1580 C1579 1.387 . S
C1580 C1583 1.387 . S
H1581 C1577 0.950 . S
H1582 C1579 0.950 . S
C1583 C1574 1.390 . S
C1583 H1576 0.950 . S
C1583 C1580 1.387 . S
C1584 C1585 1.387 . S
C1584 H1588 0.950 . S
C1584 C1593 1.390 . S
C1585 C1584 1.387 . S
C1585 C1587 1.387 1_655 S
H1586 C1593 0.950 . S
C1587 C1585 1.387 1_455 S
C1587 C1589 1.390 . S
C1587 H1591 0.950 . S
H1588 C1584 0.950 . S
C1589 C1587 1.390 . S
C1589 C1590 1.387 . S
C1589 H1592 0.950 . S
C1590 C1589 1.387 . S
C1590 C1593 1.387 1_455 S
H1591 C1587 0.950 . S
H1592 C1589 0.950 . S
C1593 C1584 1.390 . S
C1593 H1586 0.950 . S
C1593 C1590 1.387 1_655 S
C1594 C1595 1.387 . S
C1594 H1598 0.950 . S
C1594 C1603 1.390 . S
C1595 C1594 1.387 . S
C1595 C1597 1.387 . S
H1596 C1603 0.950 . S
C1597 C1595 1.387 . S
C1597 C1599 1.390 . S
C1597 H1601 0.950 . S
H1598 C1594 0.950 . S
C1599 C1597 1.390 . S
C1599 C1600 1.387 . S
C1599 H1602 0.950 . S
C1600 C1599 1.387 . S
C1600 C1603 1.387 . S
H1601 C1597 0.950 . S
H1602 C1599 0.950 . S
C1603 C1594 1.390 . S
C1603 H1596 0.950 . S
C1603 C1600 1.387 . S
C1604 C1605 1.387 1_545 S
C1604 H1608 0.950 . S
C1604 C1613 1.390 . S
C1605 C1604 1.387 1_565 S
C1605 C1607 1.387 . S
H1606 C1613 0.950 . S
C1607 C1605 1.387 . S
C1607 C1609 1.390 . S
C1607 H1611 0.950 . S
H1608 C1604 0.950 . S
C1609 C1607 1.390 . S
C1609 C1610 1.387 1_565 S
C1609 H1612 0.950 . S
C1610 C1609 1.387 1_545 S
C1610 C1613 1.387 . S
H1611 C1607 0.950 . S
H1612 C1609 0.950 . S
C1613 C1604 1.390 . S
C1613 H1606 0.950 . S
C1613 C1610 1.387 . S
C1614 C1615 1.387 1_655 S
C1614 H1618 0.950 . S
C1614 C1623 1.390 . S
C1615 C1614 1.387 1_455 S
C1615 C1617 1.387 . S
H1616 C1623 0.950 . S
C1617 C1615 1.387 . S
C1617 C1619 1.390 . S
C1617 H1621 0.950 . S
H1618 C1614 0.950 . S
C1619 C1617 1.390 . S
C1619 C1620 1.387 1_455 S
C1619 H1622 0.950 . S
C1620 C1619 1.387 1_655 S
C1620 C1623 1.387 . S
H1621 C1617 0.950 . S
H1622 C1619 0.950 . S
C1623 C1614 1.390 . S
C1623 H1616 0.950 . S
C1623 C1620 1.387 . S
C1624 C1625 1.387 . S
C1624 H1628 0.950 . S
C1624 C1633 1.390 . S
C1625 C1624 1.387 . S
C1625 C1627 1.387 . S
H1626 C1633 0.950 . S
C1627 C1625 1.387 . S
C1627 C1629 1.390 . S
C1627 H1631 0.950 . S
H1628 C1624 0.950 . S
C1629 C1627 1.390 . S
C1629 C1630 1.387 . S
C1629 H1632 0.950 . S
C1630 C1629 1.387 . S
C1630 C1633 1.387 . S
H1631 C1627 0.950 . S
H1632 C1629 0.950 . S
C1633 C1624 1.390 . S
C1633 H1626 0.950 . S
C1633 C1630 1.387 . S
C1634 C1635 1.393 1_565 S
C1634 H1638 0.957 . S
C1634 C1643 1.391 . S
C1635 C1634 1.393 1_545 S
C1635 C1637 1.387 . S
H1636 C1643 0.950 . S
C1637 C1635 1.387 . S
C1637 C1639 1.391 . S
C1637 H1641 0.950 . S
H1638 C1634 0.957 . S
C1639 C1637 1.391 . S
C1639 C1640 1.393 1_545 S
C1639 H1642 0.957 . S
C1640 C1639 1.393 1_565 S
C1640 C1643 1.387 . S
H1641 C1637 0.950 . S
H1642 C1639 0.957 . S
C1643 C1634 1.391 . S
C1643 H1636 0.950 . S
C1643 C1640 1.387 . S
C1644 C1645 1.387 . S
C1644 H1648 0.950 . S
C1644 C1653 1.390 . S
C1645 C1644 1.387 . S
C1645 C1647 1.387 . S
H1646 C1653 0.950 . S
C1647 C1645 1.387 . S
C1647 C1649 1.390 . S
C1647 H1651 0.950 . S
H1648 C1644 0.950 . S
C1649 C1647 1.390 . S
C1649 C1650 1.387 . S
C1649 H1652 0.950 . S
C1650 C1649 1.387 . S
C1650 C1653 1.387 . S
H1651 C1647 0.950 . S
H1652 C1649 0.950 . S
C1653 C1644 1.390 . S
C1653 H1646 0.950 . S
C1653 C1650 1.387 . S
C1654 C1655 1.387 . S
C1654 H1658 0.950 . S
C1654 C1663 1.390 . S
C1655 C1654 1.387 . S
C1655 C1657 1.387 . S
H1656 C1663 0.950 . S
C1657 C1655 1.387 . S
C1657 C1659 1.390 . S
C1657 H1661 0.950 . S
H1658 C1654 0.950 . S
C1659 C1657 1.390 . S
C1659 C1660 1.387 . S
C1659 H1662 0.950 . S
C1660 C1659 1.387 . S
C1660 C1663 1.387 . S
H1661 C1657 0.950 . S
H1662 C1659 0.950 . S
C1663 C1654 1.390 . S
C1663 H1656 0.950 . S
C1663 C1660 1.387 . S
C1664 C1665 1.387 . S
C1664 H1668 0.950 . S
C1664 C1673 1.390 . S
C1665 C1664 1.387 . S
C1665 C1667 1.387 . S
H1666 C1673 0.950 . S
C1667 C1665 1.387 . S
C1667 C1669 1.390 . S
C1667 H1671 0.950 . S
H1668 C1664 0.950 . S
C1669 C1667 1.390 . S
C1669 C1670 1.387 . S
C1669 H1672 0.950 . S
C1670 C1669 1.387 . S
C1670 C1673 1.387 . S
H1671 C1667 0.950 . S
H1672 C1669 0.950 . S
C1673 C1664 1.390 . S
C1673 H1666 0.950 . S
C1673 C1670 1.387 . S
C1674 C1675 1.387 . S
C1674 H1678 0.950 . S
C1674 C1683 1.390 . S
C1675 C1674 1.387 . S
C1675 C1677 1.387 . S
H1676 C1683 0.950 . S
C1677 C1675 1.387 . S
C1677 C1679 1.390 . S
C1677 H1681 0.950 . S
H1678 C1674 0.950 . S
C1679 C1677 1.390 . S
C1679 C1680 1.387 . S
C1679 H1682 0.950 . S
C1680 C1679 1.387 . S
C1680 C1683 1.387 . S
H1681 C1677 0.950 . S
H1682 C1679 0.950 . S
C1683 C1674 1.390 . S
C1683 H1676 0.950 . S
C1683 C1680 1.387 . S
C1684 C1685 1.387 . S
C1684 H1688 0.950 . S
C1684 C1693 1.390 . S
C1685 C1684 1.387 . S
C1685 C1687 1.387 . S
H1686 C1693 0.950 . S
C1687 C1685 1.387 . S
C1687 C1689 1.390 . S
C1687 H1691 0.950 . S
H1688 C1684 0.950 . S
C1689 C1687 1.390 . S
C1689 C1690 1.387 . S
C1689 H1692 0.950 . S
C1690 C1689 1.387 . S
C1690 C1693 1.387 . S
H1691 C1687 0.950 . S
H1692 C1689 0.950 . S
C1693 C1684 1.390 . S
C1693 H1686 0.950 . S
C1693 C1690 1.387 . S
C1694 C1695 1.387 . S
C1694 H1698 0.950 . S
C1694 C1703 1.390 . S
C1695 C1694 1.387 . S
C1695 C1697 1.387 . S
H1696 C1703 0.950 . S
C1697 C1695 1.387 . S
C1697 C1699 1.390 . S
C1697 H1701 0.950 . S
H1698 C1694 0.950 . S
C1699 C1697 1.390 . S
C1699 C1700 1.387 . S
C1699 H1702 0.950 . S
C1700 C1699 1.387 . S
C1700 C1703 1.387 . S
H1701 C1697 0.950 . S
H1702 C1699 0.950 . S
C1703 C1694 1.390 . S
C1703 H1696 0.950 . S
C1703 C1700 1.387 . S
C1704 C1705 1.387 . S
C1704 H1708 0.950 . S
C1704 C1713 1.390 . S
C1705 C1704 1.387 . S
C1705 C1707 1.387 . S
H1706 C1713 0.950 . S
C1707 C1705 1.387 . S
C1707 C1709 1.390 . S
C1707 H1711 0.950 . S
H1708 C1704 0.950 . S
C1709 C1707 1.390 . S
C1709 C1710 1.387 . S
C1709 H1712 0.950 . S
C1710 C1709 1.387 . S
C1710 C1713 1.387 . S
H1711 C1707 0.950 . S
H1712 C1709 0.950 . S
C1713 C1704 1.390 . S
C1713 H1706 0.950 . S
C1713 C1710 1.387 . S
C1714 C1715 1.387 . S
C1714 H1718 0.950 . S
C1714 C1723 1.390 . S
C1715 C1714 1.387 . S
C1715 C1717 1.387 . S
H1716 C1723 0.950 . S
C1717 C1715 1.387 . S
C1717 C1719 1.390 . S
C1717 H1721 0.950 . S
H1718 C1714 0.950 . S
C1719 C1717 1.390 . S
C1719 C1720 1.387 . S
C1719 H1722 0.950 . S
C1720 C1719 1.387 . S
C1720 C1723 1.387 . S
H1721 C1717 0.950 . S
H1722 C1719 0.950 . S
C1723 C1714 1.390 . S
C1723 H1716 0.950 . S
C1723 C1720 1.387 . S
C1724 C1725 1.387 . S
C1724 H1728 0.950 . S
C1724 C1733 1.390 . S
C1725 C1724 1.387 . S
C1725 C1727 1.387 . S
H1726 C1733 0.950 . S
C1727 C1725 1.387 . S
C1727 C1729 1.390 . S
C1727 H1731 0.950 . S
H1728 C1724 0.950 . S
C1729 C1727 1.390 . S
C1729 C1730 1.387 . S
C1729 H1732 0.950 . S
C1730 C1729 1.387 . S
C1730 C1733 1.387 . S
H1731 C1727 0.950 . S
H1732 C1729 0.950 . S
C1733 C1724 1.390 . S
C1733 H1726 0.950 . S
C1733 C1730 1.387 . S
C1734 C1735 1.387 . S
C1734 H1738 0.950 . S
C1734 C1743 1.390 . S
C1735 C1734 1.387 . S
C1735 C1737 1.387 . S
H1736 C1743 0.950 . S
C1737 C1735 1.387 . S
C1737 C1739 1.390 . S
C1737 H1741 0.950 . S
H1738 C1734 0.950 . S
C1739 C1737 1.390 . S
C1739 C1740 1.387 . S
C1739 H1742 0.950 . S
C1740 C1739 1.387 . S
C1740 C1743 1.387 . S
H1741 C1737 0.950 . S
H1742 C1739 0.950 . S
C1743 C1734 1.390 . S
C1743 H1736 0.950 . S
C1743 C1740 1.387 . S
C1744 C1745 1.387 . S
C1744 H1748 0.950 . S
C1744 C1753 1.390 . S
C1745 C1744 1.387 . S
C1745 C1747 1.387 . S
H1746 C1753 0.950 . S
C1747 C1745 1.387 . S
C1747 C1749 1.390 . S
C1747 H1751 0.950 . S
H1748 C1744 0.950 . S
C1749 C1747 1.390 . S
C1749 C1750 1.387 . S
C1749 H1752 0.950 . S
C1750 C1749 1.387 . S
C1750 C1753 1.387 . S
H1751 C1747 0.950 . S
H1752 C1749 0.950 . S
C1753 C1744 1.390 . S
C1753 H1746 0.950 . S
C1753 C1750 1.387 . S
C1754 C1755 1.387 . S
C1754 H1758 0.950 . S
C1754 C1763 1.390 . S
C1755 C1754 1.387 . S
C1755 C1757 1.387 . S
H1756 C1763 0.950 . S
C1757 C1755 1.387 . S
C1757 C1759 1.390 . S
C1757 H1761 0.950 . S
H1758 C1754 0.950 . S
C1759 C1757 1.390 . S
C1759 C1760 1.387 . S
C1759 H1762 0.950 . S
C1760 C1759 1.387 . S
C1760 C1763 1.387 . S
H1761 C1757 0.950 . S
H1762 C1759 0.950 . S
C1763 C1754 1.390 . S
C1763 H1756 0.950 . S
C1763 C1760 1.387 . S
C1764 C1765 1.387 . S
C1764 H1768 0.950 . S
C1764 C1773 1.390 . S
C1765 C1764 1.387 . S
C1765 C1767 1.387 . S
H1766 C1773 0.950 . S
C1767 C1765 1.387 . S
C1767 C1769 1.390 . S
C1767 H1771 0.950 . S
H1768 C1764 0.950 . S
C1769 C1767 1.390 . S
C1769 C1770 1.387 . S
C1769 H1772 0.950 . S
C1770 C1769 1.387 . S
C1770 C1773 1.387 . S
H1771 C1767 0.950 . S
H1772 C1769 0.950 . S
C1773 C1764 1.390 . S
C1773 H1766 0.950 . S
C1773 C1770 1.387 . S
C1774 C1775 1.387 . S
C1774 H1778 0.950 . S
C1774 C1783 1.390 . S
C1775 C1774 1.387 . S
C1775 C1777 1.387 . S
H1776 C1783 0.950 . S
C1777 C1775 1.387 . S
C1777 C1779 1.390 . S
C1777 H1781 0.950 . S
H1778 C1774 0.950 . S
C1779 C1777 1.390 . S
C1779 C1780 1.387 . S
C1779 H1782 0.950 . S
C1780 C1779 1.387 . S
C1780 C1783 1.387 . S
H1781 C1777 0.950 . S
H1782 C1779 0.950 . S
C1783 C1774 1.390 . S
C1783 H1776 0.950 . S
C1783 C1780 1.387 . S
C1784 C1785 1.387 . S
C1784 H1788 0.950 . S
C1784 C1793 1.390 . S
C1785 C1784 1.387 . S
C1785 C1787 1.387 . S
H1786 C1793 0.950 . S
C1787 C1785 1.387 . S
C1787 C1789 1.390 . S
C1787 H1791 0.950 . S
H1788 C1784 0.950 . S
C1789 C1787 1.390 . S
C1789 C1790 1.387 . S
C1789 H1792 0.950 . S
C1790 C1789 1.387 . S
C1790 C1793 1.387 . S
H1791 C1787 0.950 . S
H1792 C1789 0.950 . S
C1793 C1784 1.390 . S
C1793 H1786 0.950 . S
C1793 C1790 1.387 . S
C1794 C1795 1.387 . S
C1794 H1798 0.950 . S
C1794 C1803 1.390 . S
C1795 C1794 1.387 . S
C1795 C1797 1.387 . S
H1796 C1803 0.950 . S
C1797 C1795 1.387 . S
C1797 C1799 1.390 . S
C1797 H1801 0.950 . S
H1798 C1794 0.950 . S
C1799 C1797 1.390 . S
C1799 C1800 1.387 . S
C1799 H1802 0.950 . S
C1800 C1799 1.387 . S
C1800 C1803 1.387 . S
H1801 C1797 0.950 . S
H1802 C1799 0.950 . S
C1803 C1794 1.390 . S
C1803 H1796 0.950 . S
C1803 C1800 1.387 . S
C1804 C1805 1.387 . S
C1804 H1808 0.950 . S
C1804 C1813 1.390 . S
C1805 C1804 1.387 . S
C1805 C1807 1.387 . S
H1806 C1813 0.950 . S
C1807 C1805 1.387 . S
C1807 C1809 1.390 . S
C1807 H1811 0.950 . S
H1808 C1804 0.950 . S
C1809 C1807 1.390 . S
C1809 C1810 1.387 . S
C1809 H1812 0.950 . S
C1810 C1809 1.387 . S
C1810 C1813 1.387 . S
H1811 C1807 0.950 . S
H1812 C1809 0.950 . S
C1813 C1804 1.390 . S
C1813 H1806 0.950 . S
C1813 C1810 1.387 . S
C1814 C1815 1.387 . S
C1814 H1818 0.950 . S
C1814 C1823 1.390 . S
C1815 C1814 1.387 . S
C1815 C1817 1.387 . S
H1816 C1823 0.950 . S
C1817 C1815 1.387 . S
C1817 C1819 1.390 . S
C1817 H1821 0.950 . S
H1818 C1814 0.950 . S
C1819 C1817 1.390 . S
C1819 C1820 1.387 . S
C1819 H1822 0.950 . S
C1820 C1819 1.387 . S
C1820 C1823 1.387 . S
H1821 C1817 0.950 . S
H1822 C1819 0.950 . S
C1823 C1814 1.390 . S
C1823 H1816 0.950 . S
C1823 C1820 1.387 . S
C1824 C1825 1.387 . S
C1824 H1828 0.950 . S
C1824 C1833 1.390 . S
C1825 C1824 1.387 . S
C1825 C1827 1.387 . S
H1826 C1833 0.950 . S
C1827 C1825 1.387 . S
C1827 C1829 1.390 . S
C1827 H1831 0.950 . S
H1828 C1824 0.950 . S
C1829 C1827 1.390 . S
C1829 C1830 1.387 . S
C1829 H1832 0.950 . S
C1830 C1829 1.387 . S
C1830 C1833 1.387 . S
H1831 C1827 0.950 . S
H1832 C1829 0.950 . S
C1833 C1824 1.390 . S
C1833 H1826 0.950 . S
C1833 C1830 1.387 . S
C1834 C1835 1.387 . S
C1834 H1838 0.950 . S
C1834 C1843 1.390 . S
C1835 C1834 1.387 . S
C1835 C1837 1.387 . S
H1836 C1843 0.950 . S
C1837 C1835 1.387 . S
C1837 C1839 1.390 . S
C1837 H1841 0.950 . S
H1838 C1834 0.950 . S
C1839 C1837 1.390 . S
C1839 C1840 1.387 . S
C1839 H1842 0.950 . S
C1840 C1839 1.387 . S
C1840 C1843 1.387 . S
H1841 C1837 0.950 . S
H1842 C1839 0.950 . S
C1843 C1834 1.390 . S
C1843 H1836 0.950 . S
C1843 C1840 1.387 . S
C1844 C1845 1.387 . S
C1844 H1848 0.950 . S
C1844 C1853 1.390 . S
C1845 C1844 1.387 . S
C1845 C1847 1.387 . S
H1846 C1853 0.950 . S
C1847 C1845 1.387 . S
C1847 C1849 1.390 . S
C1847 H1851 0.950 . S
H1848 C1844 0.950 . S
C1849 C1847 1.390 . S
C1849 C1850 1.387 . S
C1849 H1852 0.950 . S
C1850 C1849 1.387 . S
C1850 C1853 1.387 . S
H1851 C1847 0.950 . S
H1852 C1849 0.950 . S
C1853 C1844 1.390 . S
C1853 H1846 0.950 . S
C1853 C1850 1.387 . S
C1854 C1855 1.387 . S
C1854 H1858 0.950 . S
C1854 C1863 1.390 . S
C1855 C1854 1.387 . S
C1855 C1857 1.387 . S
H1856 C1863 0.950 . S
C1857 C1855 1.387 . S
C1857 C1859 1.390 . S
C1857 H1861 0.950 . S
H1858 C1854 0.950 . S
C1859 C1857 1.390 . S
C1859 C1860 1.387 . S
C1859 H1862 0.950 . S
C1860 C1859 1.387 . S
C1860 C1863 1.387 . S
H1861 C1857 0.950 . S
H1862 C1859 0.950 . S
C1863 C1854 1.390 . S
C1863 H1856 0.950 . S
C1863 C1860 1.387 . S
C1864 C1865 1.387 . S
C1864 H1868 0.950 . S
C1864 C1873 1.390 . S
C1865 C1864 1.387 . S
C1865 C1867 1.387 . S
H1866 C1873 0.950 . S
C1867 C1865 1.387 . S
C1867 C1869 1.390 . S
C1867 H1871 0.950 . S
H1868 C1864 0.950 . S
C1869 C1867 1.390 . S
C1869 C1870 1.387 . S
C1869 H1872 0.950 . S
C1870 C1869 1.387 . S
C1870 C1873 1.387 . S
H1871 C1867 0.950 . S
H1872 C1869 0.950 . S
C1873 C1864 1.390 . S
C1873 H1866 0.950 . S
C1873 C1870 1.387 . S
C1874 C1875 1.387 . S
C1874 H1878 0.950 . S
C1874 C1883 1.390 . S
C1875 C1874 1.387 . S
C1875 C1877 1.387 . S
H1876 C1883 0.950 . S
C1877 C1875 1.387 . S
C1877 C1879 1.390 . S
C1877 H1881 0.950 . S
H1878 C1874 0.950 . S
C1879 C1877 1.390 . S
C1879 C1880 1.387 . S
C1879 H1882 0.950 . S
C1880 C1879 1.387 . S
C1880 C1883 1.387 . S
H1881 C1877 0.950 . S
H1882 C1879 0.950 . S
C1883 C1874 1.390 . S
C1883 H1876 0.950 . S
C1883 C1880 1.387 . S
C1884 C1885 1.387 . S
C1884 H1888 0.950 . S
C1884 C1893 1.390 1_455 S
C1885 C1884 1.387 . S
C1885 C1887 1.387 . S
H1886 C1893 0.950 . S
C1887 C1885 1.387 . S
C1887 C1889 1.390 1_455 S
C1887 H1891 0.950 . S
H1888 C1884 0.950 . S
C1889 C1887 1.390 1_655 S
C1889 C1890 1.387 . S
C1889 H1892 0.950 . S
C1890 C1889 1.387 . S
C1890 C1893 1.387 . S
H1891 C1887 0.950 . S
H1892 C1889 0.950 . S
C1893 C1884 1.390 1_655 S
C1893 H1886 0.950 . S
C1893 C1890 1.387 . S
C1894 C1895 1.387 . S
C1894 H1898 0.950 . S
C1894 C1903 1.390 . S
C1895 C1894 1.387 . S
C1895 C1897 1.387 . S
H1896 C1903 0.950 . S
C1897 C1895 1.387 . S
C1897 C1899 1.390 . S
C1897 H1901 0.950 . S
H1898 C1894 0.950 . S
C1899 C1897 1.390 . S
C1899 C1900 1.387 . S
C1899 H1902 0.950 . S
C1900 C1899 1.387 . S
C1900 C1903 1.387 . S
H1901 C1897 0.950 . S
H1902 C1899 0.950 . S
C1903 C1894 1.390 . S
C1903 H1896 0.950 . S
C1903 C1900 1.387 . S
C1904 C1905 1.387 . S
C1904 H1908 0.950 . S
C1904 C1913 1.390 1_565 S
C1905 C1904 1.387 . S
C1905 C1907 1.387 . S
H1906 C1913 0.950 . S
C1907 C1905 1.387 . S
C1907 C1909 1.390 1_565 S
C1907 H1911 0.950 . S
H1908 C1904 0.950 . S
C1909 C1907 1.390 1_545 S
C1909 C1910 1.387 . S
C1909 H1912 0.950 . S
C1910 C1909 1.387 . S
C1910 C1913 1.387 . S
H1911 C1907 0.950 . S
H1912 C1909 0.950 . S
C1913 C1904 1.390 1_545 S
C1913 H1906 0.950 . S
C1913 C1910 1.387 . S
C1914 C1915 1.387 . S
C1914 H1918 0.950 . S
C1914 C1923 1.390 1_545 S
C1915 C1914 1.387 . S
C1915 C1917 1.387 . S
H1916 C1923 0.950 . S
C1917 C1915 1.387 . S
C1917 C1919 1.390 1_545 S
C1917 H1921 0.950 . S
H1918 C1914 0.950 . S
C1919 C1917 1.390 1_565 S
C1919 C1920 1.387 . S
C1919 H1922 0.950 . S
C1920 C1919 1.387 . S
C1920 C1923 1.387 . S
H1921 C1917 0.950 . S
H1922 C1919 0.950 . S
C1923 C1914 1.390 1_565 S
C1923 H1916 0.950 . S
C1923 C1920 1.387 . S
C1924 C1925 1.387 . S
C1924 H1928 0.950 . S
C1924 C1933 1.390 1_655 S
C1925 C1924 1.387 . S
C1925 C1927 1.387 . S
H1926 C1933 0.950 . S
C1927 C1925 1.387 . S
C1927 C1929 1.390 1_655 S
C1927 H1931 0.950 . S
H1928 C1924 0.950 . S
C1929 C1927 1.390 1_455 S
C1929 C1930 1.387 . S
C1929 H1932 0.950 . S
C1930 C1929 1.387 . S
C1930 C1933 1.387 . S
H1931 C1927 0.950 . S
H1932 C1929 0.950 . S
C1933 C1924 1.390 1_455 S
C1933 H1926 0.950 . S
C1933 C1930 1.387 . S
C1934 C1935 1.387 . S
C1934 H1938 0.950 . S
C1934 C1943 1.390 . S
C1935 C1934 1.387 . S
C1935 C1937 1.387 . S
H1936 C1943 0.950 . S
C1937 C1935 1.387 . S
C1937 C1939 1.390 . S
C1937 H1941 0.950 . S
H1938 C1934 0.950 . S
C1939 C1937 1.390 . S
C1939 C1940 1.387 . S
C1939 H1942 0.950 . S
C1940 C1939 1.387 . S
C1940 C1943 1.387 . S
H1941 C1937 0.950 . S
H1942 C1939 0.950 . S
C1943 C1934 1.390 . S
C1943 H1936 0.950 . S
C1943 C1940 1.387 . S
C1944 C1945 1.387 . S
C1944 H1948 0.950 . S
C1944 C1953 1.390 . S
C1945 C1944 1.387 . S
C1945 C1947 1.387 . S
H1946 C1953 0.950 . S
C1947 C1945 1.387 . S
C1947 C1949 1.390 . S
C1947 H1951 0.950 . S
H1948 C1944 0.950 . S
C1949 C1947 1.390 . S
C1949 C1950 1.387 . S
C1949 H1952 0.950 . S
C1950 C1949 1.387 . S
C1950 C1953 1.387 . S
H1951 C1947 0.950 . S
H1952 C1949 0.950 . S
C1953 C1944 1.390 . S
C1953 H1946 0.950 . S
C1953 C1950 1.387 . S
C1954 C1955 1.387 . S
C1954 H1958 0.950 . S
C1954 C1963 1.390 . S
C1955 C1954 1.387 . S
C1955 C1957 1.387 . S
H1956 C1963 0.950 . S
C1957 C1955 1.387 . S
C1957 C1959 1.390 . S
C1957 H1961 0.950 . S
H1958 C1954 0.950 . S
C1959 C1957 1.390 . S
C1959 C1960 1.387 . S
C1959 H1962 0.950 . S
C1960 C1959 1.387 . S
C1960 C1963 1.387 . S
H1961 C1957 0.950 . S
H1962 C1959 0.950 . S
C1963 C1954 1.390 . S
C1963 H1956 0.950 . S
C1963 C1960 1.387 . S
C1964 C1965 1.387 . S
C1964 H1968 0.950 . S
C1964 C1973 1.390 . S
C1965 C1964 1.387 . S
C1965 C1967 1.387 . S
H1966 C1973 0.950 . S
C1967 C1965 1.387 . S
C1967 C1969 1.390 . S
C1967 H1971 0.950 . S
H1968 C1964 0.950 . S
C1969 C1967 1.390 . S
C1969 C1970 1.387 . S
C1969 H1972 0.950 . S
C1970 C1969 1.387 . S
C1970 C1973 1.387 . S
H1971 C1967 0.950 . S
H1972 C1969 0.950 . S
C1973 C1964 1.390 . S
C1973 H1966 0.950 . S
C1973 C1970 1.387 . S
C1974 C1975 1.387 . S
C1974 H1978 0.950 . S
C1974 C1983 1.390 . S
C1975 C1974 1.387 . S
C1975 C1977 1.387 . S
H1976 C1983 0.950 . S
C1977 C1975 1.387 . S
C1977 C1979 1.390 . S
C1977 H1981 0.950 . S
H1978 C1974 0.950 . S
C1979 C1977 1.390 . S
C1979 C1980 1.387 . S
C1979 H1982 0.950 . S
C1980 C1979 1.387 . S
C1980 C1983 1.387 . S
H1981 C1977 0.950 . S
H1982 C1979 0.950 . S
C1983 C1974 1.390 . S
C1983 H1976 0.950 . S
C1983 C1980 1.387 . S
C1984 C1985 1.387 . S
C1984 H1988 0.950 . S
C1984 C1993 1.390 . S
C1985 C1984 1.387 . S
C1985 C1987 1.387 . S
H1986 C1993 0.950 . S
C1987 C1985 1.387 . S
C1987 C1989 1.390 . S
C1987 H1991 0.950 . S
H1988 C1984 0.950 . S
C1989 C1987 1.390 . S
C1989 C1990 1.387 . S
C1989 H1992 0.950 . S
C1990 C1989 1.387 . S
C1990 C1993 1.387 . S
H1991 C1987 0.950 . S
H1992 C1989 0.950 . S
C1993 C1984 1.390 . S
C1993 H1986 0.950 . S
C1993 C1990 1.387 . S
C1994 C1995 1.387 . S
C1994 H1998 0.950 . S
C1994 C2003 1.390 . S
C1995 C1994 1.387 . S
C1995 C1997 1.387 . S
H1996 C2003 0.950 . S
C1997 C1995 1.387 . S
C1997 C1999 1.390 . S
C1997 H2001 0.950 . S
H1998 C1994 0.950 . S
C1999 C1997 1.390 . S
C1999 C2000 1.387 . S
C1999 H2002 0.950 . S
C2000 C1999 1.387 . S
C2000 C2003 1.387 . S
H2001 C1997 0.950 . S
H2002 C1999 0.950 . S
C2003 C1994 1.390 . S
C2003 H1996 0.950 . S
C2003 C2000 1.387 . S
C2004 C2005 1.387 . S
C2004 H2008 0.950 . S
C2004 C2013 1.390 . S
C2005 C2004 1.387 . S
C2005 C2007 1.387 . S
H2006 C2013 0.950 . S
C2007 C2005 1.387 . S
C2007 C2009 1.390 . S
C2007 H2011 0.950 . S
H2008 C2004 0.950 . S
C2009 C2007 1.390 . S
C2009 C2010 1.387 . S
C2009 H2012 0.950 . S
C2010 C2009 1.387 . S
C2010 C2013 1.387 . S
H2011 C2007 0.950 . S
H2012 C2009 0.950 . S
C2013 C2004 1.390 . S
C2013 H2006 0.950 . S
C2013 C2010 1.387 . S
C2014 C2015 1.387 . S
C2014 H2018 0.950 . S
C2014 C2023 1.390 . S
C2015 C2014 1.387 . S
C2015 C2017 1.387 . S
H2016 C2023 0.950 . S
C2017 C2015 1.387 . S
C2017 C2019 1.390 . S
C2017 H2021 0.950 . S
H2018 C2014 0.950 . S
C2019 C2017 1.390 . S
C2019 C2020 1.387 . S
C2019 H2022 0.950 . S
C2020 C2019 1.387 . S
C2020 C2023 1.387 . S
H2021 C2017 0.950 . S
H2022 C2019 0.950 . S
C2023 C2014 1.390 . S
C2023 H2016 0.950 . S
C2023 C2020 1.387 . S
C2024 C2025 1.387 . S
C2024 H2028 0.950 . S
C2024 C2033 1.390 . S
C2025 C2024 1.387 . S
C2025 C2027 1.387 . S
H2026 C2033 0.950 . S
C2027 C2025 1.387 . S
C2027 C2029 1.390 . S
C2027 H2031 0.950 . S
H2028 C2024 0.950 . S
C2029 C2027 1.390 . S
C2029 C2030 1.387 . S
C2029 H2032 0.950 . S
C2030 C2029 1.387 . S
C2030 C2033 1.387 . S
H2031 C2027 0.950 . S
H2032 C2029 0.950 . S
C2033 C2024 1.390 . S
C2033 H2026 0.950 . S
C2033 C2030 1.387 . S
C2034 C2035 1.387 . S
C2034 H2038 0.950 . S
C2034 C2043 1.390 . S
C2035 C2034 1.387 . S
C2035 C2037 1.387 . S
H2036 C2043 0.950 . S
C2037 C2035 1.387 . S
C2037 C2039 1.390 . S
C2037 H2041 0.950 . S
H2038 C2034 0.950 . S
C2039 C2037 1.390 . S
C2039 C2040 1.387 . S
C2039 H2042 0.950 . S
C2040 C2039 1.387 . S
C2040 C2043 1.387 . S
H2041 C2037 0.950 . S
H2042 C2039 0.950 . S
C2043 C2034 1.390 . S
C2043 H2036 0.950 . S
C2043 C2040 1.387 . S
C2044 C2045 1.387 . S
C2044 H2048 0.950 . S
C2044 C2053 1.390 . S
C2045 C2044 1.387 . S
C2045 C2047 1.387 . S
H2046 C2053 0.950 . S
C2047 C2045 1.387 . S
C2047 C2049 1.390 . S
C2047 H2051 0.950 . S
H2048 C2044 0.950 . S
C2049 C2047 1.390 . S
C2049 C2050 1.387 . S
C2049 H2052 0.950 . S
C2050 C2049 1.387 . S
C2050 C2053 1.387 . S
H2051 C2047 0.950 . S
H2052 C2049 0.950 . S
C2053 C2044 1.390 . S
C2053 H2046 0.950 . S
C2053 C2050 1.387 . S
C2054 C2055 1.387 . S
C2054 H2058 0.950 . S
C2054 C2063 1.390 . S
C2055 C2054 1.387 . S
C2055 C2057 1.387 . S
H2056 C2063 0.950 . S
C2057 C2055 1.387 . S
C2057 C2059 1.390 . S
C2057 H2061 0.950 . S
H2058 C2054 0.950 . S
C2059 C2057 1.390 . S
C2059 C2060 1.387 . S
C2059 H2062 0.950 . S
C2060 C2059 1.387 . S
C2060 C2063 1.387 . S
H2061 C2057 0.950 . S
H2062 C2059 0.950 . S
C2063 C2054 1.390 . S
C2063 H2056 0.950 . S
C2063 C2060 1.387 . S
C2064 C2065 1.387 . S
C2064 H2068 0.950 . S
C2064 C2073 1.390 . S
C2065 C2064 1.387 . S
C2065 C2067 1.387 . S
H2066 C2073 0.950 . S
C2067 C2065 1.387 . S
C2067 C2069 1.390 . S
C2067 H2071 0.950 . S
H2068 C2064 0.950 . S
C2069 C2067 1.390 . S
C2069 C2070 1.387 . S
C2069 H2072 0.950 . S
C2070 C2069 1.387 . S
C2070 C2073 1.387 . S
H2071 C2067 0.950 . S
H2072 C2069 0.950 . S
C2073 C2064 1.390 . S
C2073 H2066 0.950 . S
C2073 C2070 1.387 . S
C2074 C2075 1.387 . S
C2074 H2078 0.950 . S
C2074 C2083 1.390 . S
C2075 C2074 1.387 . S
C2075 C2077 1.387 1_545 S
H2076 C2083 0.950 . S
C2077 C2075 1.387 1_565 S
C2077 C2079 1.390 . S
C2077 H2081 0.950 . S
H2078 C2074 0.950 . S
C2079 C2077 1.390 . S
C2079 C2080 1.387 . S
C2079 H2082 0.950 . S
C2080 C2079 1.387 . S
C2080 C2083 1.387 1_565 S
H2081 C2077 0.950 . S
H2082 C2079 0.950 . S
C2083 C2074 1.390 . S
C2083 H2076 0.950 . S
C2083 C2080 1.387 1_545 S
C2084 C2085 1.387 . S
C2084 H2088 0.950 . S
C2084 C2093 1.390 1_655 S
C2085 C2084 1.387 . S
C2085 C2087 1.387 . S
H2086 C2093 0.950 . S
C2087 C2085 1.387 . S
C2087 C2089 1.390 1_655 S
C2087 H2091 0.950 . S
H2088 C2084 0.950 . S
C2089 C2087 1.390 1_455 S
C2089 C2090 1.387 . S
C2089 H2092 0.950 . S
C2090 C2089 1.387 . S
C2090 C2093 1.387 . S
H2091 C2087 0.950 . S
H2092 C2089 0.950 . S
C2093 C2084 1.390 1_455 S
C2093 H2086 0.950 . S
C2093 C2090 1.387 . S
C2094 C2095 1.387 1_554 S
C2094 H2098 0.950 . S
C2094 C2103 1.390 . S
C2095 C2094 1.387 1_556 S
C2095 C2097 1.387 . S
H2096 C2103 0.950 . S
C2097 C2095 1.387 . S
C2097 C2099 1.390 . S
C2097 H2101 0.950 . S
H2098 C2094 0.950 . S
C2099 C2097 1.390 . S
C2099 C2100 1.387 1_556 S
C2099 H2102 0.950 . S
C2100 C2099 1.387 1_554 S
C2100 C2103 1.387 . S
H2101 C2097 0.950 . S
H2102 C2099 0.950 . S
C2103 C2094 1.390 . S
C2103 H2096 0.950 . S
C2103 C2100 1.387 . S
C2104 C2105 1.387 1_554 S
C2104 H2108 0.950 . S
C2104 C2113 1.390 . S
C2105 C2104 1.387 1_556 S
C2105 C2107 1.387 1_545 S
H2106 C2113 0.950 . S
C2107 C2105 1.387 1_565 S
C2107 C2109 1.390 . S
C2107 H2111 0.950 . S
H2108 C2104 0.950 . S
C2109 C2107 1.390 . S
C2109 C2110 1.387 1_556 S
C2109 H2112 0.950 . S
C2110 C2109 1.387 1_554 S
C2110 C2113 1.387 1_565 S
H2111 C2107 0.950 . S
H2112 C2109 0.950 . S
C2113 C2104 1.390 . S
C2113 H2106 0.950 . S
C2113 C2110 1.387 1_545 S
C2114 C2115 1.387 . S
C2114 H2118 0.950 . S
C2114 C2123 1.390 1_554 S
C2115 C2114 1.387 . S
C2115 C2117 1.387 1_455 S
H2116 C2123 0.950 . S
C2117 C2115 1.387 1_655 S
C2117 C2119 1.390 1_554 S
C2117 H2121 0.950 . S
H2118 C2114 0.950 . S
C2119 C2117 1.390 1_556 S
C2119 C2120 1.387 . S
C2119 H2122 0.950 . S
C2120 C2119 1.387 . S
C2120 C2123 1.387 1_655 S
H2121 C2117 0.950 . S
H2122 C2119 0.950 . S
C2123 C2114 1.390 1_556 S
C2123 H2116 0.950 . S
C2123 C2120 1.387 1_455 S
C1225 C9 1.431 . S
C1230 C70 1.629 . S
C1235 C43 1.430 . S
C1240 C2 1.630 . S
C1245 C77 1.433 . S
C1250 C36 1.630 . S
C1255 C111 1.434 . S
C1260 C138 1.630 . S
C1265 C145 1.431 . S
C1270 C172 1.629 . S
C1275 C179 1.430 . S
C1280 C104 1.629 . S
C1285 C274 1.631 . S
C1290 C213 1.434 . S
C1295 C206 1.629 . S
C1300 C247 1.430 . S
C1305 C240 1.629 . S
C1310 C281 1.429 . S
C1315 C342 1.630 . S
C1320 C315 1.434 . S
C1325 C349 1.430 . S
C1330 C376 1.630 . S
C1335 C308 1.630 . S
C1340 C383 1.432 . S
C1345 C417 1.430 . S
C1350 C478 1.629 . S
C1355 C410 1.629 . S
C1360 C451 1.429 . S
C1365 C485 1.430 . S
C1370 C444 1.629 . S
C1375 C519 1.434 . S
C1380 C546 1.630 . S
C1385 C553 1.430 . S
C1390 C580 1.629 . S
C1395 C587 1.433 . S
C1400 C512 1.631 . S
C1405 C682 1.631 . S
C1410 C621 1.433 . S
C1415 C655 1.432 . S
C1420 C614 1.630 . S
C1425 C648 1.630 . S
C1430 C689 1.434 . S
C1435 C723 1.434 . S
C1440 C750 1.630 . S
C1445 C757 1.429 . S
C1450 C784 1.629 . S
C1455 C791 1.433 . S
C1460 C716 1.630 . S
C1465 C825 1.434 . S
C1470 C886 1.631 . S
C1475 C818 1.631 . S
C1480 C859 1.434 . S
C1485 C852 1.629 . S
C1490 C893 1.430 . S
C1495 C954 1.630 . S
C1500 C927 1.434 . S
C1505 C988 1.631 . S
C1510 C961 1.433 . S
C1515 C920 1.629 . S
C1520 C995 1.430 . S
C1525 C1090 1.631 . S
C1530 C1029 1.434 . S
C1535 C1022 1.631 . S
C1540 C1063 1.434 . S
C1545 C1097 1.434 . S
C1550 C1056 1.630 . S
C1555 C1158 1.630 . S
C1560 C1131 1.433 . S
C1565 C1192 1.629 . S
C1570 C1165 1.430 . S
C1575 C1124 1.631 . S
C1580 C1199 1.433 . S
C1585 C169 1.256 . S
C1590 C33 1.257 . S
C1595 C203 1.257 . S
C1600 C67 1.257 . S
C1605 C101 1.257 . S
C1610 C135 1.257 . S
C1615 C373 1.256 . S
C1620 C237 1.256 . S
C1625 C271 1.257 . S
C1630 C407 1.257 . S
C1635 C305 1.256 . S
C1640 C339 1.256 . S
C1645 C441 1.257 . S
C1650 C577 1.257 . S
C1655 C611 1.257 . S
C1660 C475 1.257 . S
C1665 C543 1.257 . S
C1670 C509 1.257 . S
C1675 C645 1.256 . S
C1680 C781 1.257 . S
C1685 C679 1.257 . S
C1690 C815 1.256 . S
C1695 C747 1.256 . S
C1700 C713 1.256 . S
C1705 C849 1.256 . S
C1710 C985 1.256 . S
C1715 C883 1.257 . S
C1720 C1019 1.256 . S
C1725 C951 1.256 . S
C1730 C917 1.256 . S
C1735 C1053 1.257 . S
C1740 C1189 1.256 . S
C1745 C1087 1.257 . S
C1750 C1223 1.257 . S
C1755 C1155 1.257 . S
C1760 C1121 1.257 . S
C1765 C1006 1.807 . S
C1770 C20 1.807 . S
C1775 C938 1.806 . S
C1780 C54 1.806 . S
C1785 C88 1.807 . S
C1790 C972 1.807 . S
C1795 C122 1.807 . S
C1800 C462 1.806 . S
C1805 C496 1.806 . S
C1810 C156 1.806 . S
C1815 C190 1.806 . S
C1820 C428 1.806 . S
C1825 C224 1.807 . S
C1830 C802 1.807 . S
C1835 C258 1.806 . S
C1840 C734 1.807 . S
C1845 C768 1.806 . S
C1850 C292 1.806 . S
C1855 C1074 1.807 . S
C1860 C326 1.807 . S
C1865 C360 1.806 . S
C1870 C1108 1.807 . S
C1875 C394 1.806 . S
C1880 C1040 1.806 . S
C1885 C870 1.806 . S
C1890 C530 1.806 . S
C1895 C564 1.806 . S
C1900 C904 1.806 . S
C1905 C836 1.807 . S
C1910 C598 1.807 . S
C1915 C632 1.807 . S
C1920 C1210 1.807 . S
C1925 C666 1.807 . S
C1930 C1142 1.807 . S
C1935 C700 1.807 . S
C1940 C1176 1.806 . S
C1945 C5 1.609 . S
C1950 C617 1.609 . S
C1955 C651 1.613 . S
C1960 C39 1.613 . S
C1965 C685 1.610 . S
C1970 C73 1.610 . S
C1975 C107 1.610 . S
C1980 C1127 1.610 . S
C1985 C1161 1.609 . S
C1990 C141 1.609 . S
C1995 C175 1.610 . S
C2000 C1195 1.610 . S
C2005 C821 1.612 . S
C2010 C209 1.612 . S
C2015 C243 1.612 . S
C2020 C855 1.612 . S
C2025 C277 1.611 . S
C2030 C889 1.611 . S
C2035 C311 1.609 . S
C2040 C515 1.609 . S
C2045 C345 1.613 . S
C2050 C549 1.613 . S
C2055 C583 1.613 . S
C2060 C379 1.613 . S
C2065 C1025 1.609 . S
C2070 C413 1.609 . S
C2075 C447 1.610 . S
C2080 C1059 1.610 . S
C2085 C481 1.609 . S
C2090 C1093 1.609 . S
C2095 C719 1.611 . S
C2100 C923 1.611 . S
C2105 C753 1.612 . S
C2110 C957 1.612 . S
C2115 C991 1.611 . S
C2120 C787 1.611 . S
