# Generated by pormake.
# Topology ecf, (8)-cn, num edge types: 1
# Building blocks:
#     Node 0, Type 0, BuildingBlock: LIZSOE_clean_sbu_0, # of connection points: 8
#     Node 1, Type 0, BuildingBlock: LIZSOE_clean_sbu_0, # of connection points: 8
#     Node 2, Type 0, BuildingBlock: LIZSOE_clean_sbu_0, # of connection points: 8
#     Node 3, Type 0, BuildingBlock: LIZSOE_clean_sbu_0, # of connection points: 8
#     Node 4, Type 0, BuildingBlock: LIZSOE_clean_sbu_0, # of connection points: 8
#     Node 5, Type 0, BuildingBlock: LIZSOE_clean_sbu_0, # of connection points: 8
#     Edge 6, Type (0, 0), BuildingBlock: AJUNOK_clean_linker_0, # of connection points: 2
#     Edge 7, Type (0, 0), BuildingBlock: AJUNOK_clean_linker_0, # of connection points: 2
#     Edge 8, Type (0, 0), BuildingBlock: AJUNOK_clean_linker_0, # of connection points: 2
#     Edge 9, Type (0, 0), BuildingBlock: AJUNOK_clean_linker_0, # of connection points: 2
#     Edge 10, Type (0, 0), BuildingBlock: AJUNOK_clean_linker_0, # of connection points: 2
#     Edge 11, Type (0, 0), BuildingBlock: AJUNOK_clean_linker_0, # of connection points: 2
#     Edge 12, Type (0, 0), BuildingBlock: AJUNOK_clean_linker_0, # of connection points: 2
#     Edge 13, Type (0, 0), BuildingBlock: AJUNOK_clean_linker_0, # of connection points: 2
#     Edge 14, Type (0, 0), BuildingBlock: AJUNOK_clean_linker_0, # of connection points: 2
#     Edge 15, Type (0, 0), BuildingBlock: AJUNOK_clean_linker_0, # of connection points: 2
#     Edge 16, Type (0, 0), BuildingBlock: AJUNOK_clean_linker_0, # of connection points: 2
#     Edge 17, Type (0, 0), BuildingBlock: AJUNOK_clean_linker_0, # of connection points: 2
#     Edge 18, Type (0, 0), BuildingBlock: AJUNOK_clean_linker_0, # of connection points: 2
#     Edge 19, Type (0, 0), BuildingBlock: AJUNOK_clean_linker_0, # of connection points: 2
#     Edge 20, Type (0, 0), BuildingBlock: AJUNOK_clean_linker_0, # of connection points: 2
#     Edge 21, Type (0, 0), BuildingBlock: AJUNOK_clean_linker_0, # of connection points: 2
#     Edge 22, Type (0, 0), BuildingBlock: AJUNOK_clean_linker_0, # of connection points: 2
#     Edge 23, Type (0, 0), BuildingBlock: AJUNOK_clean_linker_0, # of connection points: 2
#     Edge 24, Type (0, 0), BuildingBlock: AJUNOK_clean_linker_0, # of connection points: 2
#     Edge 25, Type (0, 0), BuildingBlock: AJUNOK_clean_linker_0, # of connection points: 2
#     Edge 26, Type (0, 0), BuildingBlock: AJUNOK_clean_linker_0, # of connection points: 2
#     Edge 27, Type (0, 0), BuildingBlock: AJUNOK_clean_linker_0, # of connection points: 2
#     Edge 28, Type (0, 0), BuildingBlock: AJUNOK_clean_linker_0, # of connection points: 2
#     Edge 29, Type (0, 0), BuildingBlock: AJUNOK_clean_linker_0, # of connection points: 2
# Relax obj value: 0.291
# Max RMSD: 0.208
# Mean RMSD: 0.204
data_MOF--net-ecf--node1-LIZSOE_clean_sbu_0--edge1-AJUNOK_clean_linker_0
_symmetry_space_group_name_H-M    P1
_symmetry_Int_Tables_number       1
_symmetry_cell_setting            triclinic
loop_
_symmetry_equiv_pos_as_xyz
'x, y, z'
_cell_length_a     29.817885
_cell_length_b     29.469426
_cell_length_c     15.120192
_cell_angle_alpha  90.916834
_cell_angle_beta   89.685767
_cell_angle_gamma 119.96832
loop_
_atom_site_label
_atom_site_type_symbol
_atom_site_fract_x
_atom_site_fract_y
_atom_site_fract_z
_atom_type_partial_charge
Co0 Co 0.07492 0.27588 0.37766 0.0
N1 N 1.0168 0.21209 0.34818 0.0
C2 C 1.02112 0.17063 0.32019 0.0
N3 N 0.93912 0.14642 0.30887 0.0
C4 C 0.96562 0.1957 0.34129 0.0
C5 C 0.97374 0.13044 0.29711 0.0
Co6 Co 0.30946 0.42726 0.24452 0.0
N7 N 0.37559 0.48492 0.25012 0.0
N8 N 0.44694 0.56298 0.27376 0.0
C9 C 0.4583 0.52512 0.29007 0.0
C10 C 0.41481 0.47762 0.27497 0.0
C11 C 0.39679 0.53772 0.24686 0.0
Co12 Co 0.18852 0.35605 0.31645 0.0
C13 C 0.2642 0.3838 0.14753 0.0
H14 H 0.41139 0.43979 0.28424 0.0
O15 O 0.12818 0.33676 0.4075 0.0
O16 O 0.20492 0.42883 0.33373 0.0
O17 O 0.14227 0.35235 0.21335 0.0
O18 O 0.17206 0.28253 0.3043 0.0
O19 O 0.11286 0.24282 0.40739 0.0
O20 O 0.28189 0.47177 0.27147 0.0
O21 O 0.24913 0.37138 0.23061 0.0
O22 O 0.31566 0.41354 0.36342 0.0
O23 O 0.0896 0.27411 0.2549 0.0
O24 O 0.04686 0.31427 0.35054 0.0
O25 O 0.23635 0.36139 0.4185 0.0
O26 O 0.2988 0.43229 0.13104 0.0
C27 C 0.1005 0.30957 0.19989 0.0
C28 C 0.37 0.56448 0.20799 0.0
H29 H 0.34273 0.53964 0.15507 0.0
H30 H 0.34767 0.57133 0.26009 0.0
H31 H 0.39851 0.6029 0.18014 0.0
C32 C 0.24295 0.47074 0.30718 0.0
C33 C 0.15373 0.25085 0.3681 0.0
H34 H 0.05658 0.16939 0.31477 0.0
H35 H 0.95561 0.24925 0.42673 0.0
H36 H 0.89825 0.20371 0.36655 0.0
H37 H 0.95057 0.25739 0.3104 0.0
C38 C 0.94102 0.22818 0.36305 0.0
C39 C 0.07693 0.31874 0.41663 0.0
C40 C 0.28627 0.38414 0.42397 0.0
H41 H 0.96473 0.0914 0.27643 0.0
H42 H 0.49529 0.53145 0.31347 0.0
Co43 Co 0.86856 0.06652 0.8283 0.0
N44 N 0.84869 0.99818 0.8386 0.0
C45 C 0.84051 0.96849 0.76577 0.0
N46 N 0.83099 0.91855 0.87976 0.0
C47 C 0.84271 0.967 0.90778 0.0
C48 C 0.82958 0.91993 0.79043 0.0
Co49 Co 0.86413 0.28669 0.84008 0.0
N50 N 0.89611 0.36065 0.83994 0.0
N51 N 0.90535 0.44179 0.85114 0.0
C52 C 0.94989 0.44606 0.82088 0.0
C53 C 0.9444 0.39665 0.8151 0.0
C54 C 0.8733 0.38936 0.86197 0.0
Co55 Co 0.852 0.16683 0.82936 0.0
C56 C 0.79665 0.22641 0.78026 0.0
H57 H 0.97363 0.38767 0.79256 0.0
O58 O 0.89065 0.12918 0.82087 0.0
O59 O 0.90114 0.21016 0.92779 0.0
O60 O 0.79934 0.11772 0.9233 0.0
O61 O 0.80075 0.11664 0.73268 0.0
O62 O 0.81857 0.05115 0.74557 0.0
O63 O 0.9131 0.29121 0.93069 0.0
O64 O 0.82252 0.21465 0.83647 0.0
O65 O 0.91195 0.29014 0.74514 0.0
O66 O 0.82099 0.05674 0.90958 0.0
O67 O 0.91807 0.08861 0.90977 0.0
O68 O 0.90261 0.21083 0.73476 0.0
O69 O 0.81651 0.27538 0.75849 0.0
C70 C 0.79322 0.0727 0.94436 0.0
C71 C 0.81799 0.3649 0.89144 0.0
H72 H 0.7951 0.32357 0.86902 0.0
H73 H 0.8168 0.36503 0.96473 0.0
H74 H 0.79985 0.38727 0.86684 0.0
C75 C 0.92306 0.25678 0.96079 0.0
C76 C 0.79232 0.06978 0.71204 0.0
H77 H 0.84494 0.98227 0.69871 0.0
H78 H 0.89335 1.0075 1.01734 0.0
H79 H 0.83279 0.95059 1.04783 0.0
H80 H 0.8352 1.01027 1.01944 0.0
C81 C 0.85121 0.98468 1.00327 0.0
C82 C 0.92755 0.13101 0.86874 0.0
C83 C 0.92423 0.25827 0.70927 0.0
H84 H 0.82597 0.8895 0.74499 0.0
H85 H 0.98395 0.48246 0.80309 0.0
Co86 Co 0.81117 0.85869 0.33555 0.0
N87 N 0.87559 0.8902 0.28939 0.0
C88 C 0.89115 0.92651 0.22472 0.0
N89 N 0.9569 0.91733 0.25481 0.0
C90 C 0.9171 0.8859 0.3071 0.0
C91 C 0.94126 0.943 0.20295 0.0
Co92 Co 0.62036 0.88823 0.27 0.0
N93 N 0.56182 0.89105 0.29559 0.0
N94 N 0.48277 0.87959 0.31624 0.0
C95 C 0.517 0.92555 0.354 0.0
C96 C 0.56542 0.93259 0.34078 0.0
C97 C 0.51062 0.85946 0.28004 0.0
Co98 Co 0.7078 0.85323 0.30207 0.0
C99 C 0.6574 0.89027 0.15861 0.0
H100 H 0.60132 0.96643 0.3617 0.0
O101 O 0.74777 0.82619 0.37957 0.0
O102 O 0.64294 0.79199 0.34068 0.0
O103 O 0.70724 0.80807 0.19627 0.0
O104 O 0.76793 0.91677 0.25684 0.0
O105 O 0.82171 0.92606 0.3589 0.0
O106 O 0.58562 0.81471 0.2959 0.0
O107 O 0.67349 0.88682 0.23708 0.0
O108 O 0.64306 0.90927 0.3891 0.0
O109 O 0.79019 0.85042 0.21136 0.0
O110 O 0.79727 0.79359 0.32524 0.0
O111 O 0.70955 0.89595 0.41013 0.0
O112 O 0.60823 0.87506 0.15183 0.0
C113 C 0.75094 0.81371 0.17285 0.0
C114 C 0.48762 0.8111 0.22237 0.0
H115 H 0.51741 0.80454 0.19054 0.0
H116 H 0.46163 0.77664 0.26249 0.0
H117 H 0.46338 0.81442 0.17027 0.0
C118 C 0.59675 0.78096 0.32415 0.0
C119 C 0.80176 0.94564 0.31142 0.0
H120 H 0.86749 0.94019 0.19433 0.0
H121 H 0.93818 0.8719 0.43484 0.0
H122 H 0.94046 0.83126 0.34683 0.0
H123 H 0.87939 0.81841 0.3922 0.0
C124 C 0.91848 0.84952 0.3739 0.0
C125 C 0.76075 0.78905 0.37793 0.0
C126 C 0.68178 0.91594 0.43423 0.0
H127 H 0.9648 0.97215 0.15481 0.0
H128 H 0.50755 0.95283 0.38606 0.0
Co129 Co 0.99604 0.81495 0.82873 0.0
N130 N 0.06565 0.85449 0.84664 0.0
C131 C 0.10073 0.83823 0.84519 0.0
N132 N 0.14353 0.92223 0.87902 0.0
C133 C 0.09275 0.90568 0.86754 0.0
C134 C 0.14879 0.88004 0.86421 0.0
Co135 Co 0.76966 0.5945 0.78945 0.0
N136 N 0.69661 0.55429 0.78496 0.0
N137 N 0.61573 0.48434 0.77078 0.0
C138 C 0.61216 0.52654 0.79562 0.0
C139 C 0.66151 0.56925 0.80348 0.0
C140 C 0.66751 0.50249 0.76411 0.0
Co141 Co 0.88794 0.70107 0.80988 0.0
C142 C 0.82692 0.5849 0.85111 0.0
H143 H 0.67102 0.60862 0.82236 0.0
O144 O 0.92899 0.77961 0.82039 0.0
O145 O 0.84299 0.70459 0.9057 0.0
O146 O 0.93076 0.69049 0.908 0.0
O147 O 0.93768 0.70037 0.71448 0.0
O148 O 1.00704 0.78023 0.7364 0.0
O149 O 0.7634 0.63848 0.88447 0.0
O150 O 0.83998 0.62373 0.79658 0.0
O151 O 0.76924 0.64037 0.69981 0.0
O152 O 0.99808 0.77064 0.90633 0.0
O153 O 0.9795 0.84364 0.91545 0.0
O154 O 0.84802 0.7118 0.70933 0.0
O155 O 0.77803 0.55591 0.87112 0.0
C156 C 0.97573 0.72563 0.93721 0.0
C157 C 0.69069 0.46915 0.73912 0.0
H158 H 0.67249 0.43267 0.77814 0.0
H159 H 0.68308 0.458 0.66814 0.0
H160 H 0.73317 0.49049 0.74911 0.0
C161 C 0.79517 0.68017 0.92646 0.0
C162 C 0.98448 0.73647 0.69574 0.0
H163 H 0.09218 0.79895 0.828 0.0
H164 H 0.03638 0.92555 0.8215 0.0
H165 H 0.09811 0.98169 0.85076 0.0
H166 H 0.05535 0.94175 0.93583 0.0
C167 C 0.06955 0.94083 0.8682 0.0
C168 C 0.93337 0.81206 0.88488 0.0
C169 C 0.80283 0.68587 0.67277 0.0
H170 H 0.18528 0.88052 0.85986 0.0
H171 H 0.57631 0.5265 0.8075 0.0
Co172 Co 0.16112 0.74877 0.25897 0.0
N173 N 0.15701 0.68434 0.27591 0.0
C174 C 0.11794 0.64616 0.32224 0.0
N175 N 0.1707 0.61644 0.28931 0.0
C176 C 0.18836 0.66455 0.25499 0.0
C177 C 0.12659 0.60488 0.33159 0.0
Co178 Co 0.24789 0.99517 0.36974 0.0
N179 N 0.24304 0.05517 0.36113 0.0
N180 N 0.23863 0.12794 0.37953 0.0
C181 C 0.21778 0.107 0.30067 0.0
C182 C 0.22024 0.06251 0.28979 0.0
C183 C 0.25348 0.09625 0.41559 0.0
Co184 Co 0.20759 0.87556 0.30205 0.0
C185 C 0.25143 0.95824 0.46268 0.0
H186 H 0.20325 0.03529 0.2348 0.0
O187 O 0.16248 0.80724 0.23154 0.0
O188 O 0.24497 0.92215 0.19225 0.0
O189 O 0.26583 0.86475 0.31977 0.0
O190 O 0.16961 0.83512 0.41109 0.0
O191 O 0.14271 0.75063 0.38014 0.0
O192 O 0.26995 1.00141 0.25505 0.0
O193 O 0.25248 0.94063 0.382 0.0
O194 O 0.18215 0.96215 0.33536 0.0
O195 O 0.23334 0.78137 0.28366 0.0
O196 O 0.17436 0.75195 0.14357 0.0
O197 O 0.14848 0.88412 0.27937 0.0
O198 O 0.22348 0.97994 0.47757 0.0
C199 C 0.271 0.82551 0.30581 0.0
C200 C 0.2786 0.10684 0.50428 0.0
H201 H 0.3203 0.13555 0.49637 0.0
H202 H 0.26296 0.12565 0.54919 0.0
H203 H 0.27342 0.07076 0.53405 0.0
C204 C 0.26784 0.97332 0.18849 0.0
C205 C 0.14335 0.78623 0.43018 0.0
H206 H 0.08584 0.6489 0.34997 0.0
H207 H 0.24262 0.66691 0.1572 0.0
H208 H 0.27107 0.70755 0.25195 0.0
H209 H 0.24128 0.72671 0.16766 0.0
C210 C 0.23835 0.69335 0.2048 0.0
C211 C 0.15714 0.78468 0.15316 0.0
C212 C 0.14525 0.92315 0.30076 0.0
H213 H 0.10292 0.56944 0.36818 0.0
H214 H 0.19872 0.12103 0.2572 0.0
Co215 Co 0.24597 0.1925 0.74814 0.0
N216 N 0.20199 0.21757 0.73319 0.0
C217 C 0.19418 0.23432 0.65538 0.0
N218 N 0.13574 0.2318 0.74665 0.0
C219 C 0.16709 0.21858 0.78869 0.0
C220 C 0.15324 0.24281 0.66335 0.0
Co221 Co 0.46768 0.19455 0.80797 0.0
N222 N 0.50937 0.16271 0.80436 0.0
N223 N 0.5788 0.15121 0.79423 0.0
C224 C 0.53563 0.10391 0.79157 0.0
C225 C 0.49325 0.11101 0.79749 0.0
C226 C 0.56187 0.18616 0.80286 0.0
Co227 Co 0.359 0.20288 0.78751 0.0
C228 C 0.47528 0.26295 0.75621 0.0
H229 H 0.45313 0.08037 0.7945 0.0
O230 O 0.28372 0.16664 0.7657 0.0
O231 O 0.34705 0.14644 0.87588 0.0
O232 O 0.35168 0.24909 0.88786 0.0
O233 O 0.37174 0.26185 0.69957 0.0
O234 O 0.29007 0.24157 0.67668 0.0
O235 O 0.42047 0.14237 0.88739 0.0
O236 O 0.43561 0.23396 0.80746 0.0
O237 O 0.4285 0.14843 0.71247 0.0
O238 O 0.27616 0.239 0.84155 0.0
O239 O 0.20538 0.14161 0.82133 0.0
O240 O 0.35867 0.15506 0.68854 0.0
O241 O 0.50599 0.24519 0.73344 0.0
C242 C 0.31415 0.25972 0.89425 0.0
C243 C 0.59699 0.2442 0.81197 0.0
H244 H 0.57815 0.26186 0.85206 0.0
H245 H 0.63428 0.25338 0.84308 0.0
H246 H 0.60527 0.26179 0.74532 0.0
C247 C 0.37299 0.12575 0.90667 0.0
C248 C 0.33755 0.27047 0.66315 0.0
H249 H 0.21478 0.23685 0.59507 0.0
H250 H 0.13285 0.15705 0.88391 0.0
H251 H 0.13909 0.21808 0.92097 0.0
H252 H 0.19503 0.21014 0.91695 0.0
C253 C 0.15849 0.2002 0.88301 0.0
C254 C 0.24509 0.135 0.81473 0.0
C255 C 0.38664 0.13434 0.67108 0.0
H256 H 0.13404 0.25023 0.60972 0.0
H257 H 0.53478 0.06693 0.78311 0.0
C258 C 0.22953 0.53982 0.37754 0.0
C259 C 0.23546 0.51605 0.30064 0.0
C260 C 0.21038 0.57458 0.37277 0.0
C261 C 0.19572 0.58565 0.29129 0.0
H262 H 0.23785 0.52993 0.44178 0.0
H263 H 0.20522 0.59158 0.43328 0.0
S264 S 0.19976 0.5297 0.07246 0.0
N265 N 0.22426 0.50477 0.1414 0.0
N266 N 0.18568 0.56798 0.13325 0.0
C267 C 0.2016 0.56217 0.21414 0.0
C268 C 0.2222 0.52785 0.21868 0.0
C269 C 0.65558 0.1474 0.8473 0.0
C270 C 0.63132 0.16166 0.78258 0.0
C271 C 0.70873 0.16323 0.8415 0.0
C272 C 0.73926 0.19354 0.77029 0.0
H273 H 0.63401 0.1265 0.9051 0.0
H274 H 0.72668 0.15519 0.89652 0.0
S275 S 0.69087 0.2318 0.57567 0.0
N276 N 0.63957 0.20106 0.63982 0.0
N277 N 0.73869 0.23037 0.62782 0.0
C278 C 0.71382 0.20359 0.70147 0.0
C279 C 0.66014 0.18795 0.70797 0.0
C280 C 0.53363 0.63895 0.25599 0.0
C281 C 0.48252 0.61812 0.28575 0.0
C282 C 0.57045 0.69139 0.27172 0.0
C283 C 0.55743 0.72519 0.31717 0.0
H284 H 0.54512 0.61435 0.21999 0.0
H285 H 0.60921 0.7059 0.24609 0.0
S286 S 0.43052 0.68912 0.41673 0.0
N287 N 0.42196 0.63422 0.37019 0.0
N288 N 0.49101 0.73412 0.39564 0.0
C289 C 0.50673 0.70507 0.34819 0.0
C290 C 0.46927 0.65113 0.33362 0.0
C291 C 0.90311 0.51789 0.78712 0.0
C292 C 0.8937 0.48413 0.85862 0.0
C293 C 0.88648 0.55515 0.78875 0.0
C294 C 0.85963 0.56005 0.86199 0.0
H295 H 0.92098 0.51348 0.72755 0.0
H296 H 0.89118 0.57732 0.72955 0.0
S297 S 0.83529 0.48909 0.0731 0.0
N298 N 0.86416 0.46489 1.01046 0.0
N299 N 0.83085 0.53274 1.01221 0.0
C300 C 0.85384 0.52949 0.93643 0.0
C301 C 0.87133 0.49212 0.93513 0.0
C302 C 0.33896 0.80251 0.34258 0.0
C303 C 0.32409 0.83527 0.30105 0.0
C304 C 0.3912 0.8158 0.34418 0.0
C305 C 0.42914 0.86201 0.30452 0.0
H306 H 0.31061 0.76796 0.37691 0.0
H307 H 0.40238 0.79129 0.37949 0.0
S308 S 0.4094 0.95779 0.18103 0.0
N309 N 0.35096 0.91356 0.21392 0.0
N310 N 0.44873 0.93816 0.21829 0.0
C311 C 0.41438 0.89357 0.25998 0.0
C312 C 0.36182 0.88029 0.25798 0.0
C313 C 0.53265 0.34694 0.67948 0.0
C314 C 0.49795 0.32086 0.74923 0.0
C315 C 0.56921 0.40078 0.68478 0.0
C316 C 0.57312 0.43092 0.76045 0.0
H317 H 0.53382 0.32478 0.62251 0.0
H318 H 0.59574 0.41854 0.63037 0.0
S319 S 0.48715 0.38389 0.95647 0.0
N320 N 0.46647 0.33124 0.8924 0.0
N321 N 0.53519 0.43211 0.90241 0.0
C322 C 0.53586 0.40654 0.82733 0.0
C323 C 0.49831 0.35165 0.82172 0.0
C324 C 0.23333 0.24529 0.37157 0.0
C325 C 0.18158 0.22497 0.39755 0.0
C326 C 0.25833 0.21686 0.38416 0.0
C327 C 0.23165 0.16729 0.42105 0.0
H328 H 0.25343 0.28162 0.33621 0.0
H329 H 0.29552 0.22977 0.35352 0.0
S330 S 0.10549 0.10831 0.53526 0.0
N331 N 0.11091 0.16074 0.4874 0.0
N332 N 0.15892 0.10704 0.51038 0.0
C333 C 0.18436 0.15167 0.46316 0.0
C334 C 0.15844 0.18025 0.45007 0.0
C335 C 1.00259 0.13064 0.80325 0.0
C336 C 0.98075 0.16061 0.83422 0.0
C337 C 0.05253 0.15441 0.77055 0.0
C338 C 0.08274 0.20902 0.76856 0.0
H339 H 0.98089 0.08819 0.80385 0.0
H340 H 0.0684 0.13016 0.7485 0.0
S341 S 0.04444 0.30607 0.82889 0.0
N342 N 0.993 0.24863 0.84883 0.0
N343 N 0.08887 0.2929 0.79201 0.0
C344 C 0.06189 0.23975 0.79502 0.0
C345 C 1.01026 0.21558 0.82688 0.0
C346 C 0.86102 0.08313 0.23611 0.0
C347 C 0.88544 0.11006 0.31441 0.0
C348 C 0.82906 0.02889 0.23633 0.0
C349 C 0.82061 1.00149 0.31513 0.0
H350 H 0.87341 0.10256 0.17321 0.0
H351 H 0.8158 1.00804 0.17386 0.0
S352 S 0.86367 0.05749 0.53964 0.0
N353 N 0.88875 0.10845 0.47386 0.0
N354 N 0.82922 1.00581 0.47518 0.0
C355 C 0.8371 0.02925 0.39544 0.0
C356 C 0.86848 0.08441 0.39496 0.0
C357 C 0.88114 0.89487 0.97727 0.0
C358 C 0.83677 0.87945 0.92552 0.0
C359 C 0.90736 0.86686 0.97274 0.0
C360 C 0.89266 0.8252 0.91099 0.0
H361 H 0.90039 0.9322 1.0114 0.0
H362 H 0.94312 0.88263 1.00995 0.0
S363 S 0.76753 0.76175 0.78747 0.0
N364 N 0.76687 0.80902 0.84532 0.0
N365 N 0.8239 0.76651 0.80957 0.0
C366 C 0.84409 0.80605 0.86938 0.0
C367 C 0.81355 0.82985 0.88666 0.0
C368 C 1.0256 0.90575 0.1937 0.0
C369 C 1.00746 0.92599 0.26006 0.0
C370 C 0.07127 0.90497 0.2067 0.0
C371 C 0.09871 0.92459 0.2861 0.0
H372 H 1.00315 0.88844 0.13406 0.0
H373 H 0.08472 0.88844 0.15559 0.0
S374 S 0.06526 0.98113 0.47799 0.0
N375 N 1.01927 0.96701 0.40451 0.0
N376 N 0.10546 0.96508 0.43064 0.0
C377 C 0.08172 0.94687 0.35097 0.0
C378 C 0.03565 0.94768 0.33743 0.0
C379 C 0.22745 0.06429 0.918 0.0
C380 C 0.23522 0.08267 0.83122 0.0
C381 C 0.20267 1.01051 0.93413 0.0
C382 C 0.18294 0.97449 0.86356 0.0
H383 H 0.23678 0.09139 0.97321 0.0
H384 H 0.1943 0.99688 1.00154 0.0
S385 S 0.17662 1.00313 0.62967 0.0
N386 N 0.21236 0.061 0.67711 0.0
N387 N 0.16421 0.95997 0.70738 0.0
C388 C 0.18922 0.99249 0.77707 0.0
C389 C 0.21545 0.04676 0.76078 0.0
C390 C 0.26535 0.34708 0.9963 0.0
C391 C 0.27245 0.34654 0.08806 0.0
C392 C 0.28268 0.32227 0.93553 0.0
C393 C 0.3089 0.2955 0.96184 0.0
H394 H 0.24678 0.36775 0.97075 0.0
H395 H 0.27432 0.32326 0.8662 0.0
S396 S 0.34264 0.28635 0.19273 0.0
N397 N 0.31256 0.32057 0.20123 0.0
N398 N 0.34255 0.27201 0.08688 0.0
C399 C 0.31757 0.29563 1.05291 0.0
C400 C 0.30006 0.32137 0.11554 0.0
C401 C 0.99092 0.32706 0.60185 0.0
C402 C 0.96742 0.27665 0.63987 0.0
C403 C 1.0302 0.34301 0.5357 0.0
C404 C 0.05075 0.31093 0.50745 0.0
H405 H 0.97736 0.35377 0.62048 0.0
H406 H 0.04316 0.38012 0.5037 0.0
S407 S 1.00285 0.17497 0.58426 0.0
N408 N 0.96655 0.19374 0.63793 0.0
N409 N 0.04401 0.22629 0.52754 0.0
C410 C 1.02945 0.26181 0.54925 0.0
C411 C 0.98715 0.2441 0.6112 0.0
C412 C 0.69804 0.93368 1.01393 0.0
C413 C 0.69148 0.93817 0.10491 0.0
C414 C 0.72621 0.9784 0.9614 0.0
C415 C 0.7494 0.03037 0.99643 0.0
H416 H 0.68193 0.89523 0.98313 0.0
H417 H 0.73226 0.97208 0.8926 0.0
S418 S 0.73463 0.06413 0.22667 0.0
N419 N 0.70359 0.99933 0.22508 0.0
N420 N 0.75806 0.08282 0.12635 0.0
C421 C 0.74016 0.03548 0.08587 0.0
C422 C 0.71101 0.98973 0.13979 0.0
C423 C 0.81671 0.76617 0.58751 0.0
C424 C 0.78791 0.71142 0.60017 0.0
C425 C 0.80335 0.79126 0.52209 0.0
C426 C 0.7617 0.76309 0.46268 0.0
H427 H 0.85023 0.79026 0.62859 0.0
H428 H 0.82809 0.83312 0.51433 0.0
S429 S 0.67414 0.61912 0.46324 0.0
N430 N 0.71415 0.63007 0.54653 0.0
N431 N 0.69225 0.67691 0.42008 0.0
C432 C 0.73256 0.7085 0.47393 0.0
C433 C 0.74487 0.68291 0.54295 0.0
C434 C 0.05393 0.71988 0.96937 0.0
C435 C 1.00926 0.71905 1.0031 0.0
C436 C 0.1013 0.74292 1.01667 0.0
C437 C 0.10717 0.76646 0.10132 0.0
H438 H 0.05364 0.70669 0.90193 0.0
H439 H 0.13416 0.74305 0.98551 0.0
S440 S 1.00006 0.76843 0.22587 0.0
N441 N 0.97338 0.74078 0.12996 0.0
N442 N 0.0606 0.78113 0.22093 0.0
C443 C 0.06182 0.76298 0.13838 0.0
C444 C 1.01367 0.73992 0.08932 0.0
C445 C 0.37134 0.08345 0.52496 0.0
C446 C 0.3639 0.08435 0.61702 0.0
C447 C 0.34035 0.03756 0.47319 0.0
C448 C 0.30144 0.99069 0.51186 0.0
H449 H 0.39749 0.11947 0.49175 0.0
H450 H 0.34252 0.04091 0.40188 0.0
S451 S 0.28283 0.96752 0.75247 0.0
N452 N 0.32547 0.03066 0.74589 0.0
N453 N 0.26879 0.94519 0.64965 0.0
C454 C 0.30053 0.98937 0.60469 0.0
C455 C 0.33118 0.03594 0.65694 0.0
C456 C 0.73045 0.70594 0.995 0.0
C457 C 0.77808 0.70593 0.99703 0.0
C458 C 0.7208 0.73971 1.05156 0.0
C459 C 0.75878 0.77604 0.11133 0.0
H460 H 0.70121 0.68134 0.94698 0.0
H461 H 0.68398 0.73839 1.04641 0.0
S462 S 0.8875 0.78643 0.14916 0.0
N463 N 0.86008 0.74025 0.07282 0.0
N464 N 0.84537 0.80587 0.16927 0.0
C465 C 0.80567 0.77451 0.11451 0.0
C466 C 0.81425 0.73898 1.06066 0.0
C467 C 0.09016 0.73109 0.56132 0.0
C468 C 0.10062 0.7694 0.497 0.0
C469 C 0.0484 0.71525 0.62178 0.0
C470 C 1.01373 0.73472 0.61664 0.0
H471 H 0.11559 0.71494 0.5673 0.0
H472 H 0.04478 0.68968 0.67536 0.0
S473 S 1.02058 0.83087 0.45506 0.0
N474 N 0.07049 0.82357 0.42975 0.0
N475 N 0.99154 0.79179 0.53869 0.0
C476 C 1.02216 0.77023 0.54908 0.0
C477 C 0.06545 0.78793 0.49058 0.0
C478 C 0.32124 0.09299 1.04248 0.0
C479 C 0.34752 0.08406 0.97435 0.0
C480 C 0.29384 0.05521 0.10557 0.0
C481 C 0.29137 1.0059 0.10702 0.0
H482 H 0.32159 0.12993 1.04723 0.0
H483 H 0.27547 0.06643 0.15545 0.0
S484 S 0.35877 0.96447 0.94635 0.0
N485 N 0.3735 1.02361 0.91356 0.0
N486 N 0.32075 0.9516 1.03351 0.0
C487 C 0.31839 0.99633 1.03945 0.0
C488 C 0.34716 0.03574 0.97386 0.0
C489 C 0.31671 0.34086 0.64213 0.0
C490 C 0.34754 0.31862 0.61552 0.0
C491 C 0.2976 0.36291 0.58131 0.0
C492 C 0.31172 0.36762 0.49206 0.0
H493 H 0.30149 0.3348 0.70879 0.0
H494 H 0.27016 0.37448 0.60377 0.0
S495 S 0.40408 0.33045 0.39387 0.0
N496 N 0.39789 0.31095 0.49711 0.0
N497 N 0.36737 0.3575 0.38409 0.0
C498 C 0.34866 0.35263 0.46745 0.0
C499 C 0.36577 0.32753 0.52883 0.0
C500 C 0.04875 0.33797 0.10106 0.0
C501 C 0.0601 0.29942 0.13023 0.0
C502 C 1.00385 0.32451 1.04898 0.0
C503 C 0.96738 0.27176 1.02619 0.0
H504 H 0.07401 0.37857 0.12003 0.0
H505 H 0.99787 0.35573 1.02614 0.0
S506 S 0.98032 0.15651 0.08451 0.0
N507 N 1.03319 0.20704 0.12472 0.0
N508 N 0.94658 0.18128 1.04213 0.0
C509 C 0.97837 0.23333 1.05738 0.0
C510 C 1.02512 0.24724 0.10472 0.0
C511 C 0.73453 0.9775 0.66011 0.0
C512 C 0.75165 0.03157 0.64892 0.0
C513 C 0.71057 0.94017 0.59194 0.0
C514 C 0.69948 0.95412 0.51047 0.0
H515 H 0.74292 0.9641 0.72078 0.0
H516 H 0.70195 0.90033 0.60242 0.0
S517 S 0.72577 0.08738 0.45176 0.0
N518 N 0.75003 0.0954 0.55243 0.0
N519 N 0.70083 1.02453 0.42623 0.0
C520 C 0.71101 1.00671 0.50123 0.0
C521 C 0.73759 0.04546 0.57005 0.0
loop_
_geom_bond_atom_site_label_1
_geom_bond_atom_site_label_2
_geom_bond_distance
_geom_bond_site_symmetry_2
_ccdc_geom_bond_type
Co0 N1 2.034 1_455 S
Co0 O15 2.262 . S
Co0 O19 1.958 . S
Co0 O23 1.950 . S
Co0 O24 2.057 1_455 S
N1 Co0 2.034 1_655 S
N1 C2 1.366 . S
N1 C4 1.332 . S
C2 N1 1.366 . S
C2 C5 1.377 . S
C2 H34 0.931 . S
N3 C4 1.346 . S
N3 C5 1.337 . S
C4 N1 1.332 . S
C4 N3 1.346 . S
C4 C38 1.361 . S
C5 C2 1.377 . S
C5 N3 1.337 . S
C5 H41 0.930 . S
Co6 N7 2.034 . S
Co6 O20 1.950 . S
Co6 O21 2.262 . S
Co6 O22 1.958 . S
Co6 O26 2.057 . S
N7 Co6 2.034 . S
N7 C10 1.366 . S
N7 C11 1.332 . S
N8 C9 1.337 . S
N8 C11 1.346 . S
C9 N8 1.337 . S
C9 C10 1.377 . S
C9 H42 0.930 . S
C10 N7 1.366 . S
C10 C9 1.377 . S
C10 H14 0.931 . S
C11 N7 1.332 . S
C11 N8 1.346 . S
C11 C28 1.361 . S
Co12 O15 2.097 . S
Co12 O16 2.065 . S
Co12 O17 2.065 . S
Co12 O18 2.042 . S
Co12 O21 2.097 . S
Co12 O25 2.042 . S
C13 O21 1.253 . S
C13 O26 1.263 . S
H14 C10 0.931 . S
O15 Co0 2.262 . S
O15 Co12 2.097 . S
O15 C39 1.253 . S
O16 Co12 2.065 . S
O16 C32 1.221 . S
O17 Co12 2.065 . S
O17 C27 1.221 . S
O18 Co12 2.042 . S
O18 C33 1.237 . S
O19 Co0 1.958 . S
O19 C33 1.278 . S
O20 Co6 1.950 . S
O20 C32 1.277 . S
O21 Co6 2.262 . S
O21 Co12 2.097 . S
O21 C13 1.253 . S
O22 Co6 1.958 . S
O22 C40 1.278 . S
O23 Co0 1.950 . S
O23 C27 1.277 . S
O24 Co0 2.057 1_655 S
O24 C39 1.263 1_655 S
O25 Co12 2.042 . S
O25 C40 1.237 . S
O26 Co6 2.057 . S
O26 C13 1.263 . S
C27 O17 1.221 . S
C27 O23 1.277 . S
C28 C11 1.361 . S
C28 H29 0.960 . S
C28 H30 0.961 . S
C28 H31 0.961 . S
H29 C28 0.960 . S
H30 C28 0.961 . S
H31 C28 0.961 . S
C32 O16 1.221 . S
C32 O20 1.277 . S
C33 O18 1.237 . S
C33 O19 1.278 . S
H34 C2 0.931 . S
H35 C38 0.961 . S
H36 C38 0.961 . S
H37 C38 0.960 . S
C38 C4 1.361 . S
C38 H35 0.961 . S
C38 H36 0.961 . S
C38 H37 0.960 . S
C39 O15 1.253 . S
C39 O24 1.263 1_455 S
C40 O22 1.278 . S
C40 O25 1.237 . S
H41 C5 0.930 . S
H42 C9 0.930 . S
Co43 N44 2.034 1_545 S
Co43 O58 2.262 . S
Co43 O62 1.958 . S
Co43 O66 1.950 . S
Co43 O67 2.057 . S
N44 Co43 2.034 1_565 S
N44 C45 1.366 . S
N44 C47 1.332 . S
C45 N44 1.366 . S
C45 C48 1.377 . S
C45 H77 0.931 . S
N46 C47 1.346 . S
N46 C48 1.337 . S
C47 N44 1.332 . S
C47 N46 1.346 . S
C47 C81 1.361 . S
C48 C45 1.377 . S
C48 N46 1.337 . S
C48 H84 0.930 . S
Co49 N50 2.034 . S
Co49 O63 1.950 . S
Co49 O64 2.262 . S
Co49 O65 1.958 . S
Co49 O69 2.057 . S
N50 Co49 2.034 . S
N50 C53 1.366 . S
N50 C54 1.332 . S
N51 C52 1.337 . S
N51 C54 1.346 . S
C52 N51 1.337 . S
C52 C53 1.377 . S
C52 H85 0.930 . S
C53 N50 1.366 . S
C53 C52 1.377 . S
C53 H57 0.931 . S
C54 N50 1.332 . S
C54 N51 1.346 . S
C54 C71 1.361 . S
Co55 O58 2.097 . S
Co55 O59 2.065 . S
Co55 O60 2.065 . S
Co55 O61 2.042 . S
Co55 O64 2.097 . S
Co55 O68 2.042 . S
C56 O64 1.253 . S
C56 O69 1.263 . S
H57 C53 0.931 . S
O58 Co43 2.262 . S
O58 Co55 2.097 . S
O58 C82 1.253 . S
O59 Co55 2.065 . S
O59 C75 1.221 . S
O60 Co55 2.065 . S
O60 C70 1.221 . S
O61 Co55 2.042 . S
O61 C76 1.237 . S
O62 Co43 1.958 . S
O62 C76 1.278 . S
O63 Co49 1.950 . S
O63 C75 1.277 . S
O64 Co49 2.262 . S
O64 Co55 2.097 . S
O64 C56 1.253 . S
O65 Co49 1.958 . S
O65 C83 1.278 . S
O66 Co43 1.950 . S
O66 C70 1.277 . S
O67 Co43 2.057 . S
O67 C82 1.263 . S
O68 Co55 2.042 . S
O68 C83 1.237 . S
O69 Co49 2.057 . S
O69 C56 1.263 . S
C70 O60 1.221 . S
C70 O66 1.277 . S
C71 C54 1.361 . S
C71 H72 0.960 . S
C71 H73 0.961 . S
C71 H74 0.961 . S
H72 C71 0.960 . S
H73 C71 0.961 . S
H74 C71 0.961 . S
C75 O59 1.221 . S
C75 O63 1.277 . S
C76 O61 1.237 . S
C76 O62 1.278 . S
H77 C45 0.931 . S
H78 C81 0.961 . S
H79 C81 0.961 . S
H80 C81 0.960 . S
C81 C47 1.361 . S
C81 H78 0.961 . S
C81 H79 0.961 . S
C81 H80 0.960 . S
C82 O58 1.253 . S
C82 O67 1.263 . S
C83 O65 1.278 . S
C83 O68 1.237 . S
H84 C48 0.930 . S
H85 C52 0.930 . S
Co86 N87 2.034 . S
Co86 O101 2.262 . S
Co86 O105 1.958 . S
Co86 O109 1.950 . S
Co86 O110 2.057 . S
N87 Co86 2.034 . S
N87 C88 1.366 . S
N87 C90 1.332 . S
C88 N87 1.366 . S
C88 C91 1.377 . S
C88 H120 0.931 . S
N89 C90 1.346 . S
N89 C91 1.337 . S
C90 N87 1.332 . S
C90 N89 1.346 . S
C90 C124 1.361 . S
C91 C88 1.377 . S
C91 N89 1.337 . S
C91 H127 0.930 . S
Co92 N93 2.034 . S
Co92 O106 1.950 . S
Co92 O107 2.262 . S
Co92 O108 1.958 . S
Co92 O112 2.057 . S
N93 Co92 2.034 . S
N93 C96 1.366 . S
N93 C97 1.332 . S
N94 C95 1.337 . S
N94 C97 1.346 . S
C95 N94 1.337 . S
C95 C96 1.377 . S
C95 H128 0.930 . S
C96 N93 1.366 . S
C96 C95 1.377 . S
C96 H100 0.931 . S
C97 N93 1.332 . S
C97 N94 1.346 . S
C97 C114 1.361 . S
Co98 O101 2.097 . S
Co98 O102 2.065 . S
Co98 O103 2.065 . S
Co98 O104 2.042 . S
Co98 O107 2.097 . S
Co98 O111 2.042 . S
C99 O107 1.253 . S
C99 O112 1.263 . S
H100 C96 0.931 . S
O101 Co86 2.262 . S
O101 Co98 2.097 . S
O101 C125 1.253 . S
O102 Co98 2.065 . S
O102 C118 1.221 . S
O103 Co98 2.065 . S
O103 C113 1.221 . S
O104 Co98 2.042 . S
O104 C119 1.237 . S
O105 Co86 1.958 . S
O105 C119 1.278 . S
O106 Co92 1.950 . S
O106 C118 1.277 . S
O107 Co92 2.262 . S
O107 Co98 2.097 . S
O107 C99 1.253 . S
O108 Co92 1.958 . S
O108 C126 1.278 . S
O109 Co86 1.950 . S
O109 C113 1.277 . S
O110 Co86 2.057 . S
O110 C125 1.263 . S
O111 Co98 2.042 . S
O111 C126 1.237 . S
O112 Co92 2.057 . S
O112 C99 1.263 . S
C113 O103 1.221 . S
C113 O109 1.277 . S
C114 C97 1.361 . S
C114 H115 0.960 . S
C114 H116 0.961 . S
C114 H117 0.961 . S
H115 C114 0.960 . S
H116 C114 0.961 . S
H117 C114 0.961 . S
C118 O102 1.221 . S
C118 O106 1.277 . S
C119 O104 1.237 . S
C119 O105 1.278 . S
H120 C88 0.931 . S
H121 C124 0.961 . S
H122 C124 0.961 . S
H123 C124 0.960 . S
C124 C90 1.361 . S
C124 H121 0.961 . S
C124 H122 0.961 . S
C124 H123 0.960 . S
C125 O101 1.253 . S
C125 O110 1.263 . S
C126 O108 1.278 . S
C126 O111 1.237 . S
H127 C91 0.930 . S
H128 C95 0.930 . S
Co129 N130 2.034 1_655 S
Co129 O144 2.262 . S
Co129 O148 1.958 . S
Co129 O152 1.950 . S
Co129 O153 2.057 . S
N130 Co129 2.034 1_455 S
N130 C131 1.366 . S
N130 C133 1.332 . S
C131 N130 1.366 . S
C131 C134 1.377 . S
C131 H163 0.931 . S
N132 C133 1.346 . S
N132 C134 1.337 . S
C133 N130 1.332 . S
C133 N132 1.346 . S
C133 C167 1.361 . S
C134 C131 1.377 . S
C134 N132 1.337 . S
C134 H170 0.930 . S
Co135 N136 2.034 . S
Co135 O149 1.950 . S
Co135 O150 2.262 . S
Co135 O151 1.958 . S
Co135 O155 2.057 . S
N136 Co135 2.034 . S
N136 C139 1.366 . S
N136 C140 1.332 . S
N137 C138 1.337 . S
N137 C140 1.346 . S
C138 N137 1.337 . S
C138 C139 1.377 . S
C138 H171 0.930 . S
C139 N136 1.366 . S
C139 C138 1.377 . S
C139 H143 0.931 . S
C140 N136 1.332 . S
C140 N137 1.346 . S
C140 C157 1.361 . S
Co141 O144 2.097 . S
Co141 O145 2.065 . S
Co141 O146 2.065 . S
Co141 O147 2.042 . S
Co141 O150 2.097 . S
Co141 O154 2.042 . S
C142 O150 1.253 . S
C142 O155 1.263 . S
H143 C139 0.931 . S
O144 Co129 2.262 . S
O144 Co141 2.097 . S
O144 C168 1.253 . S
O145 Co141 2.065 . S
O145 C161 1.221 . S
O146 Co141 2.065 . S
O146 C156 1.221 . S
O147 Co141 2.042 . S
O147 C162 1.237 . S
O148 Co129 1.958 . S
O148 C162 1.278 . S
O149 Co135 1.950 . S
O149 C161 1.277 . S
O150 Co135 2.262 . S
O150 Co141 2.097 . S
O150 C142 1.253 . S
O151 Co135 1.958 . S
O151 C169 1.278 . S
O152 Co129 1.950 . S
O152 C156 1.277 . S
O153 Co129 2.057 . S
O153 C168 1.263 . S
O154 Co141 2.042 . S
O154 C169 1.237 . S
O155 Co135 2.057 . S
O155 C142 1.263 . S
C156 O146 1.221 . S
C156 O152 1.277 . S
C157 C140 1.361 . S
C157 H158 0.960 . S
C157 H159 0.961 . S
C157 H160 0.961 . S
H158 C157 0.960 . S
H159 C157 0.961 . S
H160 C157 0.961 . S
C161 O145 1.221 . S
C161 O149 1.277 . S
C162 O147 1.237 . S
C162 O148 1.278 . S
H163 C131 0.931 . S
H164 C167 0.961 . S
H165 C167 0.961 . S
H166 C167 0.960 . S
C167 C133 1.361 . S
C167 H164 0.961 . S
C167 H165 0.961 . S
C167 H166 0.960 . S
C168 O144 1.253 . S
C168 O153 1.263 . S
C169 O151 1.278 . S
C169 O154 1.237 . S
H170 C134 0.930 . S
H171 C138 0.930 . S
Co172 N173 2.034 . S
Co172 O187 2.262 . S
Co172 O191 1.958 . S
Co172 O195 1.950 . S
Co172 O196 2.057 . S
N173 Co172 2.034 . S
N173 C174 1.366 . S
N173 C176 1.332 . S
C174 N173 1.366 . S
C174 C177 1.377 . S
C174 H206 0.931 . S
N175 C176 1.346 . S
N175 C177 1.337 . S
C176 N173 1.332 . S
C176 N175 1.346 . S
C176 C210 1.361 . S
C177 C174 1.377 . S
C177 N175 1.337 . S
C177 H213 0.930 . S
Co178 N179 2.034 1_565 S
Co178 O192 1.950 . S
Co178 O193 2.262 . S
Co178 O194 1.958 . S
Co178 O198 2.057 1_565 S
N179 Co178 2.034 1_545 S
N179 C182 1.366 . S
N179 C183 1.332 . S
N180 C181 1.337 . S
N180 C183 1.346 . S
C181 N180 1.337 . S
C181 C182 1.377 . S
C181 H214 0.930 . S
C182 N179 1.366 . S
C182 C181 1.377 . S
C182 H186 0.931 . S
C183 N179 1.332 . S
C183 N180 1.346 . S
C183 C200 1.361 . S
Co184 O187 2.097 . S
Co184 O188 2.065 . S
Co184 O189 2.065 . S
Co184 O190 2.042 . S
Co184 O193 2.097 . S
Co184 O197 2.042 . S
C185 O193 1.253 . S
C185 O198 1.263 1_565 S
H186 C182 0.931 . S
O187 Co172 2.262 . S
O187 Co184 2.097 . S
O187 C211 1.253 . S
O188 Co184 2.065 . S
O188 C204 1.221 . S
O189 Co184 2.065 . S
O189 C199 1.221 . S
O190 Co184 2.042 . S
O190 C205 1.237 . S
O191 Co172 1.958 . S
O191 C205 1.278 . S
O192 Co178 1.950 . S
O192 C204 1.277 . S
O193 Co178 2.262 . S
O193 Co184 2.097 . S
O193 C185 1.253 . S
O194 Co178 1.958 . S
O194 C212 1.278 . S
O195 Co172 1.950 . S
O195 C199 1.277 . S
O196 Co172 2.057 . S
O196 C211 1.263 . S
O197 Co184 2.042 . S
O197 C212 1.237 . S
O198 Co178 2.057 1_545 S
O198 C185 1.263 1_545 S
C199 O189 1.221 . S
C199 O195 1.277 . S
C200 C183 1.361 . S
C200 H201 0.960 . S
C200 H202 0.961 . S
C200 H203 0.961 . S
H201 C200 0.960 . S
H202 C200 0.961 . S
H203 C200 0.961 . S
C204 O188 1.221 . S
C204 O192 1.277 . S
C205 O190 1.237 . S
C205 O191 1.278 . S
H206 C174 0.931 . S
H207 C210 0.961 . S
H208 C210 0.961 . S
H209 C210 0.960 . S
C210 C176 1.361 . S
C210 H207 0.961 . S
C210 H208 0.961 . S
C210 H209 0.960 . S
C211 O187 1.253 . S
C211 O196 1.263 . S
C212 O194 1.278 . S
C212 O197 1.237 . S
H213 C177 0.930 . S
H214 C181 0.930 . S
Co215 N216 2.034 . S
Co215 O230 2.262 . S
Co215 O234 1.958 . S
Co215 O238 1.950 . S
Co215 O239 2.057 . S
N216 Co215 2.034 . S
N216 C217 1.366 . S
N216 C219 1.332 . S
C217 N216 1.366 . S
C217 C220 1.377 . S
C217 H249 0.931 . S
N218 C219 1.346 . S
N218 C220 1.337 . S
C219 N216 1.332 . S
C219 N218 1.346 . S
C219 C253 1.361 . S
C220 C217 1.377 . S
C220 N218 1.337 . S
C220 H256 0.930 . S
Co221 N222 2.034 . S
Co221 O235 1.950 . S
Co221 O236 2.262 . S
Co221 O237 1.958 . S
Co221 O241 2.057 . S
N222 Co221 2.034 . S
N222 C225 1.366 . S
N222 C226 1.332 . S
N223 C224 1.337 . S
N223 C226 1.346 . S
C224 N223 1.337 . S
C224 C225 1.377 . S
C224 H257 0.930 . S
C225 N222 1.366 . S
C225 C224 1.377 . S
C225 H229 0.931 . S
C226 N222 1.332 . S
C226 N223 1.346 . S
C226 C243 1.361 . S
Co227 O230 2.097 . S
Co227 O231 2.065 . S
Co227 O232 2.065 . S
Co227 O233 2.042 . S
Co227 O236 2.097 . S
Co227 O240 2.042 . S
C228 O236 1.253 . S
C228 O241 1.263 . S
H229 C225 0.931 . S
O230 Co215 2.262 . S
O230 Co227 2.097 . S
O230 C254 1.253 . S
O231 Co227 2.065 . S
O231 C247 1.221 . S
O232 Co227 2.065 . S
O232 C242 1.221 . S
O233 Co227 2.042 . S
O233 C248 1.237 . S
O234 Co215 1.958 . S
O234 C248 1.278 . S
O235 Co221 1.950 . S
O235 C247 1.277 . S
O236 Co221 2.262 . S
O236 Co227 2.097 . S
O236 C228 1.253 . S
O237 Co221 1.958 . S
O237 C255 1.278 . S
O238 Co215 1.950 . S
O238 C242 1.277 . S
O239 Co215 2.057 . S
O239 C254 1.263 . S
O240 Co227 2.042 . S
O240 C255 1.237 . S
O241 Co221 2.057 . S
O241 C228 1.263 . S
C242 O232 1.221 . S
C242 O238 1.277 . S
C243 C226 1.361 . S
C243 H244 0.960 . S
C243 H245 0.961 . S
C243 H246 0.961 . S
H244 C243 0.960 . S
H245 C243 0.961 . S
H246 C243 0.961 . S
C247 O231 1.221 . S
C247 O235 1.277 . S
C248 O233 1.237 . S
C248 O234 1.278 . S
H249 C217 0.931 . S
H250 C253 0.961 . S
H251 C253 0.961 . S
H252 C253 0.960 . S
C253 C219 1.361 . S
C253 H250 0.961 . S
C253 H251 0.961 . S
C253 H252 0.960 . S
C254 O230 1.253 . S
C254 O239 1.263 . S
C255 O237 1.278 . S
C255 O240 1.237 . S
H256 C220 0.930 . S
H257 C224 0.930 . S
C258 C259 1.369 . S
C258 C260 1.419 . S
C258 H262 0.930 . S
C259 C258 1.369 . S
C259 C268 1.429 . S
C260 C258 1.419 . S
C260 C261 1.363 . S
C260 H263 0.929 . S
C261 C260 1.363 . S
C261 C267 1.428 . S
H262 C258 0.930 . S
H263 C260 0.929 . S
S264 N265 1.613 . S
S264 N266 1.610 . S
N265 S264 1.613 . S
N265 C268 1.350 . S
N266 S264 1.610 . S
N266 C267 1.351 . S
C267 C261 1.428 . S
C267 N266 1.351 . S
C267 C268 1.434 . S
C268 C259 1.429 . S
C268 N265 1.350 . S
C268 C267 1.434 . S
C269 C270 1.369 . S
C269 C271 1.419 . S
C269 H273 0.930 . S
C270 C269 1.369 . S
C270 C279 1.429 . S
C271 C269 1.419 . S
C271 C272 1.363 . S
C271 H274 0.929 . S
C272 C271 1.363 . S
C272 C278 1.428 . S
H273 C269 0.930 . S
H274 C271 0.929 . S
S275 N276 1.613 . S
S275 N277 1.610 . S
N276 S275 1.613 . S
N276 C279 1.350 . S
N277 S275 1.610 . S
N277 C278 1.351 . S
C278 C272 1.428 . S
C278 N277 1.351 . S
C278 C279 1.434 . S
C279 C270 1.429 . S
C279 N276 1.350 . S
C279 C278 1.434 . S
C280 C281 1.369 . S
C280 C282 1.419 . S
C280 H284 0.930 . S
C281 C280 1.369 . S
C281 C290 1.429 . S
C282 C280 1.419 . S
C282 C283 1.363 . S
C282 H285 0.929 . S
C283 C282 1.363 . S
C283 C289 1.428 . S
H284 C280 0.930 . S
H285 C282 0.929 . S
S286 N287 1.613 . S
S286 N288 1.610 . S
N287 S286 1.613 . S
N287 C290 1.350 . S
N288 S286 1.610 . S
N288 C289 1.351 . S
C289 C283 1.428 . S
C289 N288 1.351 . S
C289 C290 1.434 . S
C290 C281 1.429 . S
C290 N287 1.350 . S
C290 C289 1.434 . S
C291 C292 1.369 . S
C291 C293 1.419 . S
C291 H295 0.930 . S
C292 C291 1.369 . S
C292 C301 1.429 . S
C293 C291 1.419 . S
C293 C294 1.363 . S
C293 H296 0.929 . S
C294 C293 1.363 . S
C294 C300 1.428 . S
H295 C291 0.930 . S
H296 C293 0.929 . S
S297 N298 1.613 . S
S297 N299 1.610 . S
N298 S297 1.613 . S
N298 C301 1.350 . S
N299 S297 1.610 . S
N299 C300 1.351 . S
C300 C294 1.428 . S
C300 N299 1.351 . S
C300 C301 1.434 . S
C301 C292 1.429 . S
C301 N298 1.350 . S
C301 C300 1.434 . S
C302 C303 1.369 . S
C302 C304 1.419 . S
C302 H306 0.930 . S
C303 C302 1.369 . S
C303 C312 1.429 . S
C304 C302 1.419 . S
C304 C305 1.363 . S
C304 H307 0.929 . S
C305 C304 1.363 . S
C305 C311 1.428 . S
H306 C302 0.930 . S
H307 C304 0.929 . S
S308 N309 1.613 . S
S308 N310 1.610 . S
N309 S308 1.613 . S
N309 C312 1.350 . S
N310 S308 1.610 . S
N310 C311 1.351 . S
C311 C305 1.428 . S
C311 N310 1.351 . S
C311 C312 1.434 . S
C312 C303 1.429 . S
C312 N309 1.350 . S
C312 C311 1.434 . S
C313 C314 1.369 . S
C313 C315 1.419 . S
C313 H317 0.930 . S
C314 C313 1.369 . S
C314 C323 1.429 . S
C315 C313 1.419 . S
C315 C316 1.363 . S
C315 H318 0.929 . S
C316 C315 1.363 . S
C316 C322 1.428 . S
H317 C313 0.930 . S
H318 C315 0.929 . S
S319 N320 1.613 . S
S319 N321 1.610 . S
N320 S319 1.613 . S
N320 C323 1.350 . S
N321 S319 1.610 . S
N321 C322 1.351 . S
C322 C316 1.428 . S
C322 N321 1.351 . S
C322 C323 1.434 . S
C323 C314 1.429 . S
C323 N320 1.350 . S
C323 C322 1.434 . S
C324 C325 1.369 . S
C324 C326 1.419 . S
C324 H328 0.930 . S
C325 C324 1.369 . S
C325 C334 1.429 . S
C326 C324 1.419 . S
C326 C327 1.363 . S
C326 H329 0.929 . S
C327 C326 1.363 . S
C327 C333 1.428 . S
H328 C324 0.930 . S
H329 C326 0.929 . S
S330 N331 1.613 . S
S330 N332 1.610 . S
N331 S330 1.613 . S
N331 C334 1.350 . S
N332 S330 1.610 . S
N332 C333 1.351 . S
C333 C327 1.428 . S
C333 N332 1.351 . S
C333 C334 1.434 . S
C334 C325 1.429 . S
C334 N331 1.350 . S
C334 C333 1.434 . S
C335 C336 1.369 . S
C335 C337 1.419 1_655 S
C335 H339 0.930 . S
C336 C335 1.369 . S
C336 C345 1.429 . S
C337 C335 1.419 1_455 S
C337 C338 1.363 . S
C337 H340 0.929 . S
C338 C337 1.363 . S
C338 C344 1.428 . S
H339 C335 0.930 . S
H340 C337 0.929 . S
S341 N342 1.613 . S
S341 N343 1.610 1_655 S
N342 S341 1.613 . S
N342 C345 1.350 . S
N343 S341 1.610 1_455 S
N343 C344 1.351 . S
C344 C338 1.428 . S
C344 N343 1.351 . S
C344 C345 1.434 1_455 S
C345 C336 1.429 . S
C345 N342 1.350 . S
C345 C344 1.434 1_655 S
C346 C347 1.369 . S
C346 C348 1.419 1_545 S
C346 H350 0.930 . S
C347 C346 1.369 . S
C347 C356 1.429 . S
C348 C346 1.419 1_565 S
C348 C349 1.363 . S
C348 H351 0.929 . S
C349 C348 1.363 . S
C349 C355 1.428 . S
H350 C346 0.930 . S
H351 C348 0.929 . S
S352 N353 1.613 . S
S352 N354 1.610 1_545 S
N353 S352 1.613 . S
N353 C356 1.350 . S
N354 S352 1.610 1_565 S
N354 C355 1.351 . S
C355 C349 1.428 . S
C355 N354 1.351 . S
C355 C356 1.434 1_565 S
C356 C347 1.429 . S
C356 N353 1.350 . S
C356 C355 1.434 1_545 S
C357 C358 1.369 . S
C357 C359 1.419 . S
C357 H361 0.930 . S
C358 C357 1.369 . S
C358 C367 1.429 . S
C359 C357 1.419 . S
C359 C360 1.363 . S
C359 H362 0.929 . S
C360 C359 1.363 . S
C360 C366 1.428 . S
H361 C357 0.930 . S
H362 C359 0.929 . S
S363 N364 1.613 . S
S363 N365 1.610 . S
N364 S363 1.613 . S
N364 C367 1.350 . S
N365 S363 1.610 . S
N365 C366 1.351 . S
C366 C360 1.428 . S
C366 N365 1.351 . S
C366 C367 1.434 . S
C367 C358 1.429 . S
C367 N364 1.350 . S
C367 C366 1.434 . S
C368 C369 1.369 . S
C368 C370 1.419 1_655 S
C368 H372 0.930 . S
C369 C368 1.369 . S
C369 C378 1.429 . S
C370 C368 1.419 1_455 S
C370 C371 1.363 . S
C370 H373 0.929 . S
C371 C370 1.363 . S
C371 C377 1.428 . S
H372 C368 0.930 . S
H373 C370 0.929 . S
S374 N375 1.613 . S
S374 N376 1.610 1_655 S
N375 S374 1.613 . S
N375 C378 1.350 . S
N376 S374 1.610 1_455 S
N376 C377 1.351 . S
C377 C371 1.428 . S
C377 N376 1.351 . S
C377 C378 1.434 1_455 S
C378 C369 1.429 . S
C378 N375 1.350 . S
C378 C377 1.434 1_655 S
C379 C380 1.369 . S
C379 C381 1.419 1_545 S
C379 H383 0.930 . S
C380 C379 1.369 . S
C380 C389 1.429 . S
C381 C379 1.419 1_565 S
C381 C382 1.363 . S
C381 H384 0.929 . S
C382 C381 1.363 . S
C382 C388 1.428 . S
H383 C379 0.930 . S
H384 C381 0.929 . S
S385 N386 1.613 1_565 S
S385 N387 1.610 . S
N386 S385 1.613 1_545 S
N386 C389 1.350 . S
N387 S385 1.610 . S
N387 C388 1.351 . S
C388 C382 1.428 . S
C388 N387 1.351 . S
C388 C389 1.434 1_565 S
C389 C380 1.429 . S
C389 N386 1.350 . S
C389 C388 1.434 1_545 S
C390 C391 1.369 1_556 S
C390 C392 1.419 . S
C390 H394 0.930 . S
C391 C390 1.369 1_554 S
C391 C400 1.429 . S
C392 C390 1.419 . S
C392 C393 1.363 . S
C392 H395 0.929 . S
C393 C392 1.363 . S
C393 C399 1.428 1_556 S
H394 C390 0.930 . S
H395 C392 0.929 . S
S396 N397 1.613 . S
S396 N398 1.610 . S
N397 S396 1.613 . S
N397 C400 1.350 . S
N398 S396 1.610 . S
N398 C399 1.351 . S
C399 C393 1.428 1_554 S
C399 N398 1.351 . S
C399 C400 1.434 . S
C400 C391 1.429 . S
C400 N397 1.350 . S
C400 C399 1.434 . S
C401 C402 1.369 . S
C401 C403 1.419 . S
C401 H405 0.930 . S
C402 C401 1.369 . S
C402 C411 1.429 . S
C403 C401 1.419 . S
C403 C404 1.363 . S
C403 H406 0.929 . S
C404 C403 1.363 . S
C404 C410 1.428 1_655 S
H405 C401 0.930 . S
H406 C403 0.929 . S
S407 N408 1.613 1_455 S
S407 N409 1.610 . S
N408 S407 1.613 1_655 S
N408 C411 1.350 . S
N409 S407 1.610 . S
N409 C410 1.351 . S
C410 C404 1.428 1_455 S
C410 N409 1.351 . S
C410 C411 1.434 1_455 S
C411 C402 1.429 . S
C411 N408 1.350 . S
C411 C410 1.434 1_655 S
C412 C413 1.369 1_556 S
C412 C414 1.419 . S
C412 H416 0.930 . S
C413 C412 1.369 1_554 S
C413 C422 1.429 . S
C414 C412 1.419 . S
C414 C415 1.378 . S
C414 H417 0.929 . S
C415 C414 1.378 . S
C415 C421 1.424 1_566 S
H416 C412 0.930 . S
H417 C414 0.929 . S
S418 N419 1.613 1_545 S
S418 N420 1.610 . S
N419 S418 1.613 1_565 S
N419 C422 1.350 . S
N420 S418 1.610 . S
N420 C421 1.351 . S
C421 C415 1.424 1_544 S
C421 N420 1.351 . S
C421 C422 1.434 1_545 S
C422 C413 1.429 . S
C422 N419 1.350 . S
C422 C421 1.434 1_565 S
C423 C424 1.369 . S
C423 C425 1.419 . S
C423 H427 0.930 . S
C424 C423 1.369 . S
C424 C433 1.429 . S
C425 C423 1.419 . S
C425 C426 1.363 . S
C425 H428 0.929 . S
C426 C425 1.363 . S
C426 C432 1.428 . S
H427 C423 0.930 . S
H428 C425 0.929 . S
S429 N430 1.613 . S
S429 N431 1.610 . S
N430 S429 1.613 . S
N430 C433 1.350 . S
N431 S429 1.610 . S
N431 C432 1.351 . S
C432 C426 1.428 . S
C432 N431 1.351 . S
C432 C433 1.434 . S
C433 C424 1.429 . S
C433 N430 1.350 . S
C433 C432 1.434 . S
C434 C435 1.362 1_455 S
C434 C436 1.419 . S
C434 H438 0.930 . S
C435 C434 1.362 1_655 S
C435 C444 1.425 1_556 S
C436 C434 1.419 . S
C436 C437 1.363 1_556 S
C436 H439 0.929 . S
C437 C436 1.363 1_554 S
C437 C443 1.428 . S
H438 C434 0.930 . S
H439 C436 0.929 . S
S440 N441 1.613 . S
S440 N442 1.610 1_655 S
N441 S440 1.613 . S
N441 C444 1.350 . S
N442 S440 1.610 1_455 S
N442 C443 1.351 . S
C443 C437 1.428 . S
C443 N442 1.351 . S
C443 C444 1.434 1_455 S
C444 C435 1.425 1_554 S
C444 N441 1.350 . S
C444 C443 1.434 1_655 S
C445 C446 1.369 . S
C445 C447 1.419 . S
C445 H449 0.930 . S
C446 C445 1.369 . S
C446 C455 1.429 . S
C447 C445 1.419 . S
C447 C448 1.366 . S
C447 H450 0.929 . S
C448 C447 1.366 . S
C448 C454 1.428 1_545 S
H449 C445 0.930 . S
H450 C447 0.929 . S
S451 N452 1.613 1_565 S
S451 N453 1.610 . S
N452 S451 1.613 1_545 S
N452 C455 1.350 . S
N453 S451 1.610 . S
N453 C454 1.351 . S
C454 C448 1.428 1_565 S
C454 N453 1.351 . S
C454 C455 1.434 1_565 S
C455 C446 1.429 . S
C455 N452 1.350 . S
C455 C454 1.434 1_545 S
C456 C457 1.369 1_554 S
C456 C458 1.419 . S
C456 H460 0.930 . S
C457 C456 1.369 1_556 S
C457 C466 1.429 . S
C458 C456 1.419 . S
C458 C459 1.363 . S
C458 H461 0.929 . S
C459 C458 1.363 . S
C459 C465 1.428 1_554 S
H460 C456 0.930 . S
H461 C458 0.929 . S
S462 N463 1.613 . S
S462 N464 1.610 . S
N463 S462 1.613 . S
N463 C466 1.350 . S
N464 S462 1.610 . S
N464 C465 1.351 . S
C465 C459 1.428 1_556 S
C465 N464 1.351 . S
C465 C466 1.434 . S
C466 C457 1.429 . S
C466 N463 1.350 . S
C466 C465 1.434 . S
C467 C468 1.369 . S
C467 C469 1.419 . S
C467 H471 0.930 . S
C468 C467 1.369 . S
C468 C477 1.429 . S
C469 C467 1.419 . S
C469 C470 1.343 1_455 S
C469 H472 0.929 . S
C470 C469 1.343 1_655 S
C470 C476 1.432 1_655 S
H471 C467 0.930 . S
H472 C469 0.929 . S
S473 N474 1.613 . S
S473 N475 1.610 1_455 S
N474 S473 1.613 . S
N474 C477 1.350 . S
N475 S473 1.610 1_655 S
N475 C476 1.351 1_655 S
C476 C470 1.432 1_455 S
C476 N475 1.351 1_455 S
C476 C477 1.434 . S
C477 C468 1.429 . S
C477 N474 1.350 . S
C477 C476 1.434 . S
C478 C479 1.369 1_554 S
C478 C480 1.419 . S
C478 H482 0.930 . S
C479 C478 1.369 1_556 S
C479 C488 1.429 . S
C480 C478 1.419 . S
C480 C481 1.363 . S
C480 H483 0.929 . S
C481 C480 1.363 . S
C481 C487 1.428 1_554 S
H482 C478 0.930 . S
H483 C480 0.929 . S
S484 N485 1.613 1_565 S
S484 N486 1.610 . S
N485 S484 1.613 1_545 S
N485 C488 1.350 . S
N486 S484 1.610 . S
N486 C487 1.351 1_565 S
C487 C481 1.428 1_556 S
C487 N486 1.351 1_545 S
C487 C488 1.434 . S
C488 C479 1.429 . S
C488 N485 1.350 . S
C488 C487 1.434 . S
C489 C490 1.369 . S
C489 C491 1.419 . S
C489 H493 0.930 . S
C490 C489 1.369 . S
C490 C499 1.429 . S
C491 C489 1.419 . S
C491 C492 1.363 . S
C491 H494 0.929 . S
C492 C491 1.363 . S
C492 C498 1.428 . S
H493 C489 0.930 . S
H494 C491 0.929 . S
S495 N496 1.613 . S
S495 N497 1.610 . S
N496 S495 1.613 . S
N496 C499 1.350 . S
N497 S495 1.610 . S
N497 C498 1.351 . S
C498 C492 1.428 . S
C498 N497 1.351 . S
C498 C499 1.434 . S
C499 C490 1.429 . S
C499 N496 1.350 . S
C499 C498 1.434 . S
C500 C501 1.369 . S
C500 C502 1.419 1_554 S
C500 H504 0.930 . S
C501 C500 1.369 . S
C501 C510 1.429 . S
C502 C500 1.419 1_556 S
C502 C503 1.363 . S
C502 H505 0.929 . S
C503 C502 1.363 . S
C503 C509 1.428 . S
H504 C500 0.930 . S
H505 C502 0.929 . S
S506 N507 1.613 1_556 S
S506 N508 1.610 . S
N507 S506 1.613 1_554 S
N507 C510 1.350 . S
N508 S506 1.610 . S
N508 C509 1.351 . S
C509 C503 1.428 . S
C509 N508 1.351 . S
C509 C510 1.434 1_556 S
C510 C501 1.429 . S
C510 N507 1.350 . S
C510 C509 1.434 1_554 S
C511 C512 1.370 . S
C511 C513 1.419 . S
C511 H515 0.930 . S
C512 C511 1.370 . S
C512 C521 1.428 . S
C513 C511 1.419 . S
C513 C514 1.363 . S
C513 H516 0.929 . S
C514 C513 1.363 . S
C514 C520 1.428 . S
H515 C511 0.930 . S
H516 C513 0.929 . S
S517 N518 1.613 . S
S517 N519 1.610 1_545 S
N518 S517 1.613 . S
N518 C521 1.350 1_545 S
N519 S517 1.610 1_565 S
N519 C520 1.351 . S
C520 C514 1.428 . S
C520 N519 1.351 . S
C520 C521 1.434 . S
C521 C512 1.428 . S
C521 N518 1.350 1_565 S
C521 C520 1.434 . S
C259 C32 1.434 . S
C261 N175 1.450 . S
C270 N223 1.412 . S
C272 C56 1.295 . S
C281 N8 1.449 . S
C283 C118 1.434 . S
C292 N51 1.422 . S
C294 C142 1.289 . S
C303 C199 1.443 . S
C305 N94 1.444 . S
C314 C228 1.298 . S
C316 N137 1.413 . S
C325 C33 1.269 . S
C327 N180 1.015 . S
C336 C82 1.171 . S
C338 N218 1.144 . S
C347 N3 1.008 . S
C349 C119 1.270 . S
C358 N46 1.149 . S
C360 C168 1.170 . S
C369 N89 1.003 . S
C371 C212 1.271 . S
C380 C254 1.169 . S
C382 N132 1.140 . S
C391 C13 1.930 . S
C393 C242 1.878 . S
C402 C83 1.964 . S
C404 C39 1.700 1_655 S
C413 C99 1.930 . S
C415 C70 1.872 1_565 S
C424 C169 1.968 . S
C426 C125 1.697 . S
C435 C156 1.889 . S
C437 C211 1.931 . S
C446 C255 1.965 . S
C448 C185 1.700 1_545 S
C457 C161 1.991 . S
C459 C113 1.916 . S
C468 C205 1.853 . S
C470 C162 1.777 . S
C479 C247 1.990 . S
C481 C204 1.920 1_545 S
C490 C248 1.770 . S
C492 C40 1.852 . S
C501 C27 1.916 1_655 S
C503 C75 1.992 . S
C512 C76 1.769 1_565 S
C514 C126 1.853 . S
