# Generated by pormake.
# Topology wim, (6)-cn, num edge types: 1
# Building blocks:
#     Node 0, Type 0, BuildingBlock: IZENUY_clean_sbu_0, # of connection points: 6
#     Node 1, Type 0, BuildingBlock: IZENUY_clean_sbu_0, # of connection points: 6
#     Node 2, Type 0, BuildingBlock: IZENUY_clean_sbu_0, # of connection points: 6
#     Node 3, Type 0, BuildingBlock: IZENUY_clean_sbu_0, # of connection points: 6
#     Node 4, Type 0, BuildingBlock: IZENUY_clean_sbu_0, # of connection points: 6
#     Node 5, Type 0, BuildingBlock: IZENUY_clean_sbu_0, # of connection points: 6
#     Node 6, Type 0, BuildingBlock: IZENUY_clean_sbu_0, # of connection points: 6
#     Node 7, Type 0, BuildingBlock: IZENUY_clean_sbu_0, # of connection points: 6
#     Node 8, Type 0, BuildingBlock: IZENUY_clean_sbu_0, # of connection points: 6
#     Node 9, Type 0, BuildingBlock: IZENUY_clean_sbu_0, # of connection points: 6
#     Node 10, Type 0, BuildingBlock: IZENUY_clean_sbu_0, # of connection points: 6
#     Node 11, Type 0, BuildingBlock: IZENUY_clean_sbu_0, # of connection points: 6
#     Node 12, Type 0, BuildingBlock: IZENUY_clean_sbu_0, # of connection points: 6
#     Node 13, Type 0, BuildingBlock: IZENUY_clean_sbu_0, # of connection points: 6
#     Node 14, Type 0, BuildingBlock: IZENUY_clean_sbu_0, # of connection points: 6
#     Node 15, Type 0, BuildingBlock: IZENUY_clean_sbu_0, # of connection points: 6
#     Node 16, Type 0, BuildingBlock: IZENUY_clean_sbu_0, # of connection points: 6
#     Node 17, Type 0, BuildingBlock: IZENUY_clean_sbu_0, # of connection points: 6
#     Node 18, Type 0, BuildingBlock: IZENUY_clean_sbu_0, # of connection points: 6
#     Node 19, Type 0, BuildingBlock: IZENUY_clean_sbu_0, # of connection points: 6
#     Node 20, Type 0, BuildingBlock: IZENUY_clean_sbu_0, # of connection points: 6
#     Node 21, Type 0, BuildingBlock: IZENUY_clean_sbu_0, # of connection points: 6
#     Node 22, Type 0, BuildingBlock: IZENUY_clean_sbu_0, # of connection points: 6
#     Node 23, Type 0, BuildingBlock: IZENUY_clean_sbu_0, # of connection points: 6
#     Node 24, Type 0, BuildingBlock: IZENUY_clean_sbu_0, # of connection points: 6
#     Node 25, Type 0, BuildingBlock: IZENUY_clean_sbu_0, # of connection points: 6
#     Node 26, Type 0, BuildingBlock: IZENUY_clean_sbu_0, # of connection points: 6
#     Node 27, Type 0, BuildingBlock: IZENUY_clean_sbu_0, # of connection points: 6
#     Node 28, Type 0, BuildingBlock: IZENUY_clean_sbu_0, # of connection points: 6
#     Node 29, Type 0, BuildingBlock: IZENUY_clean_sbu_0, # of connection points: 6
#     Node 30, Type 0, BuildingBlock: IZENUY_clean_sbu_0, # of connection points: 6
#     Node 31, Type 0, BuildingBlock: IZENUY_clean_sbu_0, # of connection points: 6
#     Edge 32, Type (0, 0), BuildingBlock: UVAHIK_clean_linker_0, # of connection points: 2
#     Edge 33, Type (0, 0), BuildingBlock: UVAHIK_clean_linker_0, # of connection points: 2
#     Edge 34, Type (0, 0), BuildingBlock: UVAHIK_clean_linker_0, # of connection points: 2
#     Edge 35, Type (0, 0), BuildingBlock: UVAHIK_clean_linker_0, # of connection points: 2
#     Edge 36, Type (0, 0), BuildingBlock: UVAHIK_clean_linker_0, # of connection points: 2
#     Edge 37, Type (0, 0), BuildingBlock: UVAHIK_clean_linker_0, # of connection points: 2
#     Edge 38, Type (0, 0), BuildingBlock: UVAHIK_clean_linker_0, # of connection points: 2
#     Edge 39, Type (0, 0), BuildingBlock: UVAHIK_clean_linker_0, # of connection points: 2
#     Edge 40, Type (0, 0), BuildingBlock: UVAHIK_clean_linker_0, # of connection points: 2
#     Edge 41, Type (0, 0), BuildingBlock: UVAHIK_clean_linker_0, # of connection points: 2
#     Edge 42, Type (0, 0), BuildingBlock: UVAHIK_clean_linker_0, # of connection points: 2
#     Edge 43, Type (0, 0), BuildingBlock: UVAHIK_clean_linker_0, # of connection points: 2
#     Edge 44, Type (0, 0), BuildingBlock: UVAHIK_clean_linker_0, # of connection points: 2
#     Edge 45, Type (0, 0), BuildingBlock: UVAHIK_clean_linker_0, # of connection points: 2
#     Edge 46, Type (0, 0), BuildingBlock: UVAHIK_clean_linker_0, # of connection points: 2
#     Edge 47, Type (0, 0), BuildingBlock: UVAHIK_clean_linker_0, # of connection points: 2
#     Edge 48, Type (0, 0), BuildingBlock: UVAHIK_clean_linker_0, # of connection points: 2
#     Edge 49, Type (0, 0), BuildingBlock: UVAHIK_clean_linker_0, # of connection points: 2
#     Edge 50, Type (0, 0), BuildingBlock: UVAHIK_clean_linker_0, # of connection points: 2
#     Edge 51, Type (0, 0), BuildingBlock: UVAHIK_clean_linker_0, # of connection points: 2
#     Edge 52, Type (0, 0), BuildingBlock: UVAHIK_clean_linker_0, # of connection points: 2
#     Edge 53, Type (0, 0), BuildingBlock: UVAHIK_clean_linker_0, # of connection points: 2
#     Edge 54, Type (0, 0), BuildingBlock: UVAHIK_clean_linker_0, # of connection points: 2
#     Edge 55, Type (0, 0), BuildingBlock: UVAHIK_clean_linker_0, # of connection points: 2
#     Edge 56, Type (0, 0), BuildingBlock: UVAHIK_clean_linker_0, # of connection points: 2
#     Edge 57, Type (0, 0), BuildingBlock: UVAHIK_clean_linker_0, # of connection points: 2
#     Edge 58, Type (0, 0), BuildingBlock: UVAHIK_clean_linker_0, # of connection points: 2
#     Edge 59, Type (0, 0), BuildingBlock: UVAHIK_clean_linker_0, # of connection points: 2
#     Edge 60, Type (0, 0), BuildingBlock: UVAHIK_clean_linker_0, # of connection points: 2
#     Edge 61, Type (0, 0), BuildingBlock: UVAHIK_clean_linker_0, # of connection points: 2
#     Edge 62, Type (0, 0), BuildingBlock: UVAHIK_clean_linker_0, # of connection points: 2
#     Edge 63, Type (0, 0), BuildingBlock: UVAHIK_clean_linker_0, # of connection points: 2
#     Edge 64, Type (0, 0), BuildingBlock: UVAHIK_clean_linker_0, # of connection points: 2
#     Edge 65, Type (0, 0), BuildingBlock: UVAHIK_clean_linker_0, # of connection points: 2
#     Edge 66, Type (0, 0), BuildingBlock: UVAHIK_clean_linker_0, # of connection points: 2
#     Edge 67, Type (0, 0), BuildingBlock: UVAHIK_clean_linker_0, # of connection points: 2
#     Edge 68, Type (0, 0), BuildingBlock: UVAHIK_clean_linker_0, # of connection points: 2
#     Edge 69, Type (0, 0), BuildingBlock: UVAHIK_clean_linker_0, # of connection points: 2
#     Edge 70, Type (0, 0), BuildingBlock: UVAHIK_clean_linker_0, # of connection points: 2
#     Edge 71, Type (0, 0), BuildingBlock: UVAHIK_clean_linker_0, # of connection points: 2
#     Edge 72, Type (0, 0), BuildingBlock: UVAHIK_clean_linker_0, # of connection points: 2
#     Edge 73, Type (0, 0), BuildingBlock: UVAHIK_clean_linker_0, # of connection points: 2
#     Edge 74, Type (0, 0), BuildingBlock: UVAHIK_clean_linker_0, # of connection points: 2
#     Edge 75, Type (0, 0), BuildingBlock: UVAHIK_clean_linker_0, # of connection points: 2
#     Edge 76, Type (0, 0), BuildingBlock: UVAHIK_clean_linker_0, # of connection points: 2
#     Edge 77, Type (0, 0), BuildingBlock: UVAHIK_clean_linker_0, # of connection points: 2
#     Edge 78, Type (0, 0), BuildingBlock: UVAHIK_clean_linker_0, # of connection points: 2
#     Edge 79, Type (0, 0), BuildingBlock: UVAHIK_clean_linker_0, # of connection points: 2
#     Edge 80, Type (0, 0), BuildingBlock: UVAHIK_clean_linker_0, # of connection points: 2
#     Edge 81, Type (0, 0), BuildingBlock: UVAHIK_clean_linker_0, # of connection points: 2
#     Edge 82, Type (0, 0), BuildingBlock: UVAHIK_clean_linker_0, # of connection points: 2
#     Edge 83, Type (0, 0), BuildingBlock: UVAHIK_clean_linker_0, # of connection points: 2
#     Edge 84, Type (0, 0), BuildingBlock: UVAHIK_clean_linker_0, # of connection points: 2
#     Edge 85, Type (0, 0), BuildingBlock: UVAHIK_clean_linker_0, # of connection points: 2
#     Edge 86, Type (0, 0), BuildingBlock: UVAHIK_clean_linker_0, # of connection points: 2
#     Edge 87, Type (0, 0), BuildingBlock: UVAHIK_clean_linker_0, # of connection points: 2
#     Edge 88, Type (0, 0), BuildingBlock: UVAHIK_clean_linker_0, # of connection points: 2
#     Edge 89, Type (0, 0), BuildingBlock: UVAHIK_clean_linker_0, # of connection points: 2
#     Edge 90, Type (0, 0), BuildingBlock: UVAHIK_clean_linker_0, # of connection points: 2
#     Edge 91, Type (0, 0), BuildingBlock: UVAHIK_clean_linker_0, # of connection points: 2
#     Edge 92, Type (0, 0), BuildingBlock: UVAHIK_clean_linker_0, # of connection points: 2
#     Edge 93, Type (0, 0), BuildingBlock: UVAHIK_clean_linker_0, # of connection points: 2
#     Edge 94, Type (0, 0), BuildingBlock: UVAHIK_clean_linker_0, # of connection points: 2
#     Edge 95, Type (0, 0), BuildingBlock: UVAHIK_clean_linker_0, # of connection points: 2
#     Edge 96, Type (0, 0), BuildingBlock: UVAHIK_clean_linker_0, # of connection points: 2
#     Edge 97, Type (0, 0), BuildingBlock: UVAHIK_clean_linker_0, # of connection points: 2
#     Edge 98, Type (0, 0), BuildingBlock: UVAHIK_clean_linker_0, # of connection points: 2
#     Edge 99, Type (0, 0), BuildingBlock: UVAHIK_clean_linker_0, # of connection points: 2
#     Edge 100, Type (0, 0), BuildingBlock: UVAHIK_clean_linker_0, # of connection points: 2
#     Edge 101, Type (0, 0), BuildingBlock: UVAHIK_clean_linker_0, # of connection points: 2
#     Edge 102, Type (0, 0), BuildingBlock: UVAHIK_clean_linker_0, # of connection points: 2
#     Edge 103, Type (0, 0), BuildingBlock: UVAHIK_clean_linker_0, # of connection points: 2
#     Edge 104, Type (0, 0), BuildingBlock: UVAHIK_clean_linker_0, # of connection points: 2
#     Edge 105, Type (0, 0), BuildingBlock: UVAHIK_clean_linker_0, # of connection points: 2
#     Edge 106, Type (0, 0), BuildingBlock: UVAHIK_clean_linker_0, # of connection points: 2
#     Edge 107, Type (0, 0), BuildingBlock: UVAHIK_clean_linker_0, # of connection points: 2
#     Edge 108, Type (0, 0), BuildingBlock: UVAHIK_clean_linker_0, # of connection points: 2
#     Edge 109, Type (0, 0), BuildingBlock: UVAHIK_clean_linker_0, # of connection points: 2
#     Edge 110, Type (0, 0), BuildingBlock: UVAHIK_clean_linker_0, # of connection points: 2
#     Edge 111, Type (0, 0), BuildingBlock: UVAHIK_clean_linker_0, # of connection points: 2
#     Edge 112, Type (0, 0), BuildingBlock: UVAHIK_clean_linker_0, # of connection points: 2
#     Edge 113, Type (0, 0), BuildingBlock: UVAHIK_clean_linker_0, # of connection points: 2
#     Edge 114, Type (0, 0), BuildingBlock: UVAHIK_clean_linker_0, # of connection points: 2
#     Edge 115, Type (0, 0), BuildingBlock: UVAHIK_clean_linker_0, # of connection points: 2
#     Edge 116, Type (0, 0), BuildingBlock: UVAHIK_clean_linker_0, # of connection points: 2
#     Edge 117, Type (0, 0), BuildingBlock: UVAHIK_clean_linker_0, # of connection points: 2
#     Edge 118, Type (0, 0), BuildingBlock: UVAHIK_clean_linker_0, # of connection points: 2
#     Edge 119, Type (0, 0), BuildingBlock: UVAHIK_clean_linker_0, # of connection points: 2
#     Edge 120, Type (0, 0), BuildingBlock: UVAHIK_clean_linker_0, # of connection points: 2
#     Edge 121, Type (0, 0), BuildingBlock: UVAHIK_clean_linker_0, # of connection points: 2
#     Edge 122, Type (0, 0), BuildingBlock: UVAHIK_clean_linker_0, # of connection points: 2
#     Edge 123, Type (0, 0), BuildingBlock: UVAHIK_clean_linker_0, # of connection points: 2
#     Edge 124, Type (0, 0), BuildingBlock: UVAHIK_clean_linker_0, # of connection points: 2
#     Edge 125, Type (0, 0), BuildingBlock: UVAHIK_clean_linker_0, # of connection points: 2
#     Edge 126, Type (0, 0), BuildingBlock: UVAHIK_clean_linker_0, # of connection points: 2
#     Edge 127, Type (0, 0), BuildingBlock: UVAHIK_clean_linker_0, # of connection points: 2
# Relax obj value: 0.276
# Max RMSD: 0.227
# Mean RMSD: 0.227
data_MOF--net-wim--node1-IZENUY_clean_sbu_0--edge1-UVAHIK_clean_linker_0
_symmetry_space_group_name_H-M    P1
_symmetry_Int_Tables_number       1
_symmetry_cell_setting            triclinic
loop_
_symmetry_equiv_pos_as_xyz
'x, y, z'
_cell_length_a     92.062633
_cell_length_b     92.086262
_cell_length_c     36.85276
_cell_angle_alpha  90.002654
_cell_angle_beta   90.0094
_cell_angle_gamma 90.007
loop_
_atom_site_label
_atom_site_type_symbol
_atom_site_fract_x
_atom_site_fract_y
_atom_site_fract_z
_atom_type_partial_charge
Fe0 Fe 0.03661 0.12119 0.26117 0.0
Fe1 Fe 0.02193 0.0959 0.30019 0.0
O2 O 0.03744 0.10686 0.29285 0.0
Fe3 Fe 0.05368 0.10342 0.31733 0.0
O4 O 0.05361 0.12149 0.33715 0.0
O5 O 0.04907 0.13304 0.28615 0.0
O6 O 0.02187 0.12996 0.28566 0.0
C7 C 0.00987 0.12391 0.29221 0.0
C8 C 0.0637 0.11052 0.24678 0.0
O9 O 0.00865 0.11025 0.29066 0.0
C10 C 0.04501 0.07578 0.30203 0.0
O11 O 0.0241 0.11176 0.23035 0.0
O12 O 0.0217 0.08986 0.25353 0.0
O13 O 0.06591 0.10921 0.28056 0.0
O14 O 0.0512 0.1134 0.23479 0.0
C15 C 0.0314 0.09943 0.3694 0.0
O16 O 0.03228 0.07946 0.31108 0.0
O17 O 0.05489 0.08518 0.29879 0.0
C18 C 0.02117 0.09838 0.22683 0.0
O19 O 0.02125 0.10139 0.34703 0.0
O20 O 0.04428 0.09706 0.35864 0.0
C21 C 0.05313 0.13311 0.31898 0.0
Fe22 Fe 0.1475 0.80329 0.56564 0.0
Fe23 Fe 0.12743 0.78535 0.51629 0.0
O24 O 0.14324 0.78679 0.54313 0.0
Fe25 Fe 0.15482 0.77156 0.54733 0.0
O26 O 0.15173 0.771 0.59545 0.0
O27 O 0.15554 0.79428 0.6056 0.0
O28 O 0.13042 0.80329 0.59028 0.0
C29 C 0.11805 0.80231 0.57583 0.0
C30 C 0.17458 0.79499 0.54366 0.0
O31 O 0.11663 0.79797 0.54348 0.0
C32 C 0.14843 0.76975 0.47585 0.0
O33 O 0.1401 0.81499 0.52968 0.0
O34 O 0.13367 0.79968 0.48666 0.0
O35 O 0.17151 0.78215 0.553 0.0
O36 O 0.16489 0.80463 0.54258 0.0
C37 C 0.1268 0.75896 0.54916 0.0
O38 O 0.13534 0.77245 0.48401 0.0
O39 O 0.15843 0.7713 0.49891 0.0
C40 C 0.13731 0.81227 0.49668 0.0
O41 O 0.12026 0.77084 0.54449 0.0
O42 O 0.14029 0.75797 0.54296 0.0
C43 C 0.15382 0.7814 0.61708 0.0
Fe44 Fe 0.47435 0.9081 0.80107 0.0
Fe45 Fe 0.44223 0.90138 0.81617 0.0
O46 O 0.45924 0.89626 0.79772 0.0
Fe47 Fe 0.46113 0.87932 0.77586 0.0
O48 O 0.48015 0.87665 0.78911 0.0
O49 O 0.48494 0.8948 0.82592 0.0
O50 O 0.46893 0.91573 0.84513 0.0
C51 C 0.46079 0.91041 0.86943 0.0
C52 C 0.47675 0.89664 0.73022 0.0
O53 O 0.45002 0.90264 0.86112 0.0
C54 C 0.43315 0.88879 0.7535 0.0
O55 O 0.46484 0.92208 0.77621 0.0
O56 O 0.44463 0.92093 0.80773 0.0
O57 O 0.46619 0.88802 0.73365 0.0
O58 O 0.48246 0.90261 0.75768 0.0
C59 C 0.44408 0.87126 0.83252 0.0
O60 O 0.43337 0.90028 0.77213 0.0
O61 O 0.44243 0.87886 0.75875 0.0
C62 C 0.45274 0.92739 0.78514 0.0
O63 O 0.43671 0.88275 0.82792 0.0
O64 O 0.45612 0.86962 0.81675 0.0
C65 C 0.48765 0.88219 0.81437 0.0
Fe66 Fe 0.37407 0.21412 0.03042 0.0
Fe67 Fe 0.34521 0.22817 0.05238 0.0
O68 O 0.35671 0.21277 0.05051 0.0
Fe69 Fe 0.35084 0.19594 0.06866 0.0
O70 O 0.36916 0.18993 0.08236 0.0
O71 O 0.38291 0.20897 0.07229 0.0
O72 O 0.37709 0.23307 0.04371 0.0
C73 C 0.37124 0.24085 0.06793 0.0
C74 C 0.36404 0.18655 0.00703 0.0
O75 O 0.35837 0.23856 0.0781 0.0
C76 C 0.32543 0.20716 0.0356 0.0
O77 O 0.3663 0.21936 0.98727 0.0
O78 O 0.35153 0.23593 0.00923 0.0
O79 O 0.35235 0.18707 0.02478 0.0
O80 O 0.37428 0.19536 0.01352 0.0
C81 C 0.3414 0.21478 0.12079 0.0
O82 O 0.3313 0.21897 0.02661 0.0
O83 O 0.33148 0.19881 0.05836 0.0
C84 C 0.35805 0.23013 0.98265 0.0
O85 O 0.33685 0.22314 0.09594 0.0
O86 O 0.34907 0.20382 0.1134 0.0
C87 C 0.38076 0.19702 0.08806 0.0
Fe88 Fe 0.05723 0.89973 0.177 0.0
Fe89 Fe 0.0394 0.87692 0.21828 0.0
O90 O 0.04064 0.89403 0.19682 0.0
Fe91 Fe 0.02526 0.90545 0.19513 0.0
O92 O 0.02995 0.91361 0.15131 0.0
O93 O 0.04884 0.90114 0.13261 0.0
O94 O 0.06306 0.88126 0.16402 0.0
C95 C 0.05601 0.8695 0.16033 0.0
C96 C 0.04637 0.92529 0.21013 0.0
O97 O 0.04415 0.86763 0.17678 0.0
C98 C 0.02387 0.89346 0.26565 0.0
O99 O 0.06662 0.89861 0.22023 0.0
O100 O 0.05832 0.87688 0.23391 0.0
O101 O 0.03466 0.91943 0.22001 0.0
O102 O 0.05443 0.91922 0.18666 0.0
C103 C 0.01241 0.87939 0.18175 0.0
O104 O 0.0346 0.88514 0.26124 0.0
O105 O 0.01778 0.89948 0.23879 0.0
C106 C 0.0673 0.88712 0.23874 0.0
O107 O 0.02022 0.87388 0.20648 0.0
O108 O 0.01488 0.89203 0.17016 0.0
C109 C 0.03785 0.90884 0.12587 0.0
Fe110 Fe 0.34426 0.77359 0.44508 0.0
Fe111 Fe 0.35081 0.80567 0.42962 0.0
O112 O 0.35556 0.78896 0.45051 0.0
Fe113 Fe 0.37155 0.7875 0.47669 0.0
O114 O 0.37514 0.76842 0.46455 0.0
O115 O 0.35866 0.76345 0.42322 0.0
O116 O 0.33797 0.77864 0.39978 0.0
C117 C 0.3443 0.78623 0.37601 0.0
C118 C 0.353 0.77159 0.51819 0.0
O119 O 0.35136 0.7974 0.38492 0.0
C120 C 0.36032 0.81506 0.49583 0.0
O121 O 0.32932 0.78289 0.46665 0.0
O122 O 0.33103 0.80286 0.43417 0.0
O123 O 0.3613 0.78243 0.51666 0.0
O124 O 0.34843 0.7656 0.4895 0.0
C125 C 0.38145 0.80423 0.42078 0.0
O126 O 0.35014 0.81505 0.47292 0.0
O127 O 0.37077 0.80617 0.49354 0.0
C128 C 0.32405 0.79479 0.456 0.0
O129 O 0.3697 0.81141 0.42178 0.0
O130 O 0.3828 0.79258 0.43848 0.0
C131 C 0.37078 0.76091 0.43785 0.0
Fe132 Fe 0.47801 0.09444 0.69445 0.0
Fe133 Fe 0.44664 0.10338 0.67737 0.0
O134 O 0.46317 0.10628 0.70093 0.0
Fe135 Fe 0.46496 0.12106 0.73107 0.0
O136 O 0.47959 0.12879 0.70444 0.0
O137 O 0.49197 0.10846 0.70135 0.0
O138 O 0.47874 0.09891 0.647 0.0
C139 C 0.46839 0.09743 0.62497 0.0
C140 C 0.48005 0.09847 0.76699 0.0
O141 O 0.45541 0.09606 0.63607 0.0
C142 C 0.43772 0.1117 0.74819 0.0
O143 O 0.46684 0.07832 0.6859 0.0
O144 O 0.44453 0.08546 0.69708 0.0
O145 O 0.47775 0.11185 0.76159 0.0
O146 O 0.47815 0.08934 0.74198 0.0
C147 C 0.44854 0.13291 0.67341 0.0
O148 O 0.43506 0.1102 0.71458 0.0
O149 O 0.45047 0.11413 0.7592 0.0
C150 C 0.45384 0.07549 0.69447 0.0
O151 O 0.4476 0.12114 0.6561 0.0
O152 O 0.45253 0.13299 0.70625 0.0
C153 C 0.49126 0.12213 0.69781 0.0
Fe154 Fe 0.15409 0.22748 0.94776 0.0
Fe155 Fe 0.14761 0.19531 0.93341 0.0
O156 O 0.14287 0.21208 0.95364 0.0
Fe157 Fe 0.12681 0.21356 0.97958 0.0
O158 O 0.12335 0.2327 0.9681 0.0
O159 O 0.13954 0.23746 0.92609 0.0
O160 O 0.16026 0.22242 0.90218 0.0
C161 C 0.15436 0.21426 0.87884 0.0
C162 C 0.14536 0.22935 0.02122 0.0
O163 O 0.14716 0.20328 0.88846 0.0
C164 C 0.13751 0.18568 -0.00172 0.0
O165 O 0.1693 0.21843 0.96879 0.0
O166 O 0.16736 0.19807 0.93788 0.0
O167 O 0.13707 0.21846 0.01971 0.0
O168 O 0.14998 0.23534 0.99248 0.0
C169 C 0.11703 0.197 0.92345 0.0
O170 O 0.14824 0.18623 0.97714 0.0
O171 O 0.1272 0.19471 0.99562 0.0
C172 C 0.17461 0.20658 0.95801 0.0
O173 O 0.12867 0.18964 0.92534 0.0
O174 O 0.1157 0.20871 0.94091 0.0
C175 C 0.12752 0.24007 0.94103 0.0
Fe176 Fe 0.94755 0.89714 0.67968 0.0
Fe177 Fe 0.97943 0.90393 0.69848 0.0
O178 O 0.96367 0.8931 0.70411 0.0
Fe179 Fe 0.96413 0.87825 0.73445 0.0
O180 O 0.95129 0.86705 0.70884 0.0
O181 O 0.94714 0.87929 0.65881 0.0
O182 O 0.95718 0.90345 0.63876 0.0
C183 C 0.97019 0.90149 0.62843 0.0
C184 C 0.93739 0.88952 0.74997 0.0
O185 O 0.98031 0.89956 0.65092 0.0
C186 C 0.97997 0.89996 0.77152 0.0
O187 O 0.94665 0.91527 0.69884 0.0
O188 O 0.96952 0.92078 0.6894 0.0
O189 O 0.94978 0.88601 0.76164 0.0
O190 O 0.9352 0.89143 0.71631 0.0
C191 C 0.99071 0.87543 0.70289 0.0
O192 O 0.97952 0.90902 0.74593 0.0
O193 O 0.97697 0.88673 0.76605 0.0
C194 C 0.95669 0.92455 0.69725 0.0
O195 O 0.99233 0.88902 0.7063 0.0
O196 O 0.97856 0.86958 0.70888 0.0
C197 C 0.94715 0.86749 0.67614 0.0
Fe198 Fe 0.87232 0.21498 0.47156 0.0
Fe199 Fe 0.85227 0.19585 0.42492 0.0
O200 O 0.85624 0.21279 0.44578 0.0
Fe201 Fe 0.84412 0.22767 0.44127 0.0
O202 O 0.85832 0.24164 0.44317 0.0
O203 O 0.87875 0.22938 0.44208 0.0
O204 O 0.88327 0.20238 0.44464 0.0
C205 C 0.88162 0.19736 0.41301 0.0
C206 C 0.85132 0.23027 0.51252 0.0
O207 O 0.86914 0.19592 0.39948 0.0
C208 C 0.82506 0.20367 0.44742 0.0
O209 O 0.8669 0.20085 0.50264 0.0
O210 O 0.8602 0.18481 0.46165 0.0
O211 O 0.84117 0.22858 0.48992 0.0
O212 O 0.86438 0.22792 0.50358 0.0
C213 C 0.84408 0.21696 0.37229 0.0
O214 O 0.83503 0.19432 0.44867 0.0
O215 O 0.82772 0.21658 0.43804 0.0
C216 C 0.86351 0.18804 0.4941 0.0
O217 O 0.84377 0.20407 0.38452 0.0
O218 O 0.84622 0.22772 0.39273 0.0
C219 C 0.87181 0.24099 0.43672 0.0
Fe220 Fe 0.5549 0.10079 0.17557 0.0
Fe221 Fe 0.5231 0.09259 0.19244 0.0
O222 O 0.53812 0.10447 0.19772 0.0
Fe223 Fe 0.53636 0.11997 0.2257 0.0
O224 O 0.54898 0.13118 0.19955 0.0
O225 O 0.55463 0.11811 0.15176 0.0
O226 O 0.54643 0.09272 0.13502 0.0
C227 C 0.53349 0.09315 0.12327 0.0
C228 C 0.5634 0.11057 0.24539 0.0
O229 O 0.52288 0.09532 0.14412 0.0
C230 C 0.52098 0.09849 0.26458 0.0
O231 O 0.55653 0.08329 0.19798 0.0
O232 O 0.5341 0.07616 0.18809 0.0
O233 O 0.55065 0.11362 0.2553 0.0
O234 O 0.56629 0.10822 0.21227 0.0
C235 C 0.51016 0.12056 0.19136 0.0
O236 O 0.52225 0.08886 0.2406 0.0
O237 O 0.52351 0.11168 0.25745 0.0
C238 C 0.54694 0.07352 0.1983 0.0
O239 O 0.50932 0.10694 0.19578 0.0
O240 O 0.52185 0.12724 0.19778 0.0
C241 C 0.55368 0.13027 0.16739 0.0
Fe242 Fe 0.62512 0.78935 0.97262 0.0
Fe243 Fe 0.64831 0.80635 0.93053 0.0
O244 O 0.64213 0.78996 0.95052 0.0
Fe245 Fe 0.653 0.77419 0.94833 0.0
O246 O 0.63905 0.76421 0.92442 0.0
O247 O 0.62122 0.77029 0.96091 0.0
O248 O 0.61572 0.79451 0.93137 0.0
C249 C 0.618 0.80636 0.91515 0.0
C250 C 0.64163 0.77338 0.01944 0.0
O251 O 0.62999 0.81298 0.919 0.0
C252 C 0.67382 0.79451 0.96161 0.0
O253 O 0.62599 0.80827 0.98832 0.0
O254 O 0.64802 0.81564 0.97401 0.0
O255 O 0.64719 0.76702 0.99236 0.0
O256 O 0.63348 0.78425 0.01526 0.0
C257 C 0.65556 0.78639 0.8788 0.0
O258 O 0.66777 0.80275 0.93857 0.0
O259 O 0.66759 0.78311 0.9722 0.0
C260 C 0.63667 0.81675 0.99302 0.0
O261 O 0.6488 0.79795 0.88604 0.0
O262 O 0.66074 0.77856 0.90388 0.0
C263 C 0.62642 0.76211 0.93647 0.0
Fe264 Fe 0.97768 0.09361 0.80178 0.0
Fe265 Fe 0.963 0.12025 0.7691 0.0
O266 O 0.96208 0.10465 0.79679 0.0
Fe267 Fe 0.94567 0.10004 0.81945 0.0
O268 O 0.95486 0.09219 0.85959 0.0
O269 O 0.97795 0.09696 0.84977 0.0
O270 O 0.99083 0.10849 0.79719 0.0
C271 C 0.98937 0.122 0.80231 0.0
C272 C 0.95487 0.07333 0.79659 0.0
O273 O 0.97735 0.12811 0.79649 0.0
C274 C 0.93625 0.10989 0.75026 0.0
O275 O 0.97832 0.08966 0.7538 0.0
O276 O 0.97591 0.11241 0.73669 0.0
O277 O 0.94481 0.08261 0.7965 0.0
O278 O 0.96749 0.07667 0.80732 0.0
C279 C 0.94599 0.12951 0.82878 0.0
O280 O 0.94881 0.11342 0.74005 0.0
O281 O 0.93366 0.10713 0.78339 0.0
C282 C 0.97888 0.09928 0.72959 0.0
O283 O 0.95021 0.13086 0.79628 0.0
O284 O 0.94532 0.1172 0.8437 0.0
C285 C 0.9677 0.09415 0.87125 0.0
Fe286 Fe 0.65021 0.19375 0.56602 0.0
Fe287 Fe 0.65693 0.22546 0.54671 0.0
O288 O 0.64506 0.21035 0.54542 0.0
Fe289 Fe 0.62808 0.21175 0.52344 0.0
O290 O 0.61844 0.20759 0.56495 0.0
O291 O 0.63159 0.18845 0.57841 0.0
O292 O 0.65139 0.20242 0.60989 0.0
C293 C 0.65904 0.21343 0.61681 0.0
C294 C 0.63778 0.18357 0.50422 0.0
O295 O 0.66447 0.22098 0.59148 0.0
C296 C 0.64531 0.22645 0.47578 0.0
O297 O 0.66977 0.196 0.55756 0.0
O298 O 0.67094 0.21541 0.5232 0.0
O299 O 0.62766 0.19272 0.50873 0.0
O300 O 0.6492 0.18412 0.52304 0.0
C301 C 0.63107 0.23911 0.55822 0.0
O302 O 0.65143 0.23263 0.50237 0.0
O303 O 0.63671 0.21597 0.48053 0.0
C304 C 0.6763 0.2036 0.53404 0.0
O305 O 0.64368 0.23662 0.57 0.0
O306 O 0.62536 0.23103 0.53431 0.0
C307 C 0.62017 0.19597 0.58249 0.0
Fe308 Fe 0.55346 0.89826 0.31723 0.0
Fe309 Fe 0.52197 0.90578 0.2964 0.0
O310 O 0.53735 0.8944 0.29258 0.0
Fe311 Fe 0.53648 0.87909 0.26381 0.0
O312 O 0.54911 0.86804 0.29022 0.0
O313 O 0.5532 0.88066 0.33961 0.0
O314 O 0.54383 0.90545 0.35739 0.0
C315 C 0.53068 0.90394 0.36718 0.0
C316 C 0.56344 0.8896 0.24756 0.0
O317 O 0.52072 0.90217 0.3442 0.0
C318 C 0.52095 0.90035 0.2243 0.0
O319 O 0.5551 0.91611 0.29673 0.0
O320 O 0.53232 0.92246 0.30407 0.0
O321 O 0.55098 0.88621 0.236 0.0
O322 O 0.56571 0.89167 0.28117 0.0
C323 C 0.5099 0.87755 0.29572 0.0
O324 O 0.52226 0.91003 0.24824 0.0
O325 O 0.52367 0.88721 0.23165 0.0
C326 C 0.54536 0.92571 0.29706 0.0
O327 O 0.50869 0.89108 0.2901 0.0
O328 O 0.52186 0.8712 0.29041 0.0
C329 C 0.55293 0.86867 0.32309 0.0
Fe330 Fe 0.84714 0.77307 0.0466 0.0
Fe331 Fe 0.87171 0.78865 0.00721 0.0
O332 O 0.8572 0.78907 0.03846 0.0
Fe333 Fe 0.85276 0.80536 0.06147 0.0
O334 O 0.84714 0.79617 0.10378 0.0
O335 O 0.85239 0.7732 0.09364 0.0
O336 O 0.86245 0.76066 0.0387 0.0
C337 C 0.87599 0.76286 0.04137 0.0
C338 C 0.82563 0.79487 0.04678 0.0
O339 O 0.88131 0.77514 0.03401 0.0
C340 C 0.85923 0.81456 0.98958 0.0
O341 O 0.84141 0.77208 -0.00044 0.0
O342 O 0.8635 0.7747 0.97803 0.0
O343 O 0.83444 0.80523 0.04317 0.0
O344 O 0.83003 0.78244 0.05635 0.0
C345 C 0.88234 0.80708 0.0627 0.0
O346 O 0.86294 0.80207 0.97895 0.0
O347 O 0.85768 0.81726 0.02316 0.0
C348 C 0.85034 0.77107 0.97375 0.0
O349 O 0.88253 0.80257 0.03029 0.0
O350 O 0.87082 0.80666 0.08117 0.0
C351 C 0.85031 0.78357 0.11532 0.0
Fe352 Fe 0.53812 0.62016 0.76568 0.0
Fe353 Fe 0.52304 0.5943 0.80069 0.0
O354 O 0.53876 0.60507 0.79511 0.0
Fe355 Fe 0.55504 0.60078 0.81872 0.0
O356 O 0.55554 0.61852 0.84069 0.0
O357 O 0.55133 0.63093 0.79098 0.0
O358 O 0.52402 0.6288 0.79251 0.0
C359 C 0.51188 0.62295 0.79879 0.0
C360 C 0.56459 0.60884 0.74825 0.0
O361 O 0.5102 0.60938 0.79481 0.0
C362 C 0.54572 0.57356 0.79967 0.0
O363 O 0.52477 0.61226 0.73461 0.0
O364 O 0.52243 0.58972 0.75275 0.0
O365 O 0.56713 0.60691 0.78178 0.0
O366 O 0.55208 0.61236 0.73736 0.0
C367 C 0.53275 0.59586 0.87058 0.0
O368 O 0.53293 0.57732 0.80802 0.0
O369 O 0.55582 0.5828 0.79841 0.0
C370 C 0.52128 0.59922 0.7283 0.0
O371 O 0.5226 0.59824 0.84847 0.0
O372 O 0.54569 0.5939 0.85966 0.0
C373 C 0.55531 0.63043 0.82377 0.0
Fe374 Fe 0.64992 0.30415 0.06443 0.0
Fe375 Fe 0.62813 0.28646 0.01956 0.0
O376 O 0.64476 0.28762 0.04338 0.0
Fe377 Fe 0.65622 0.27227 0.04612 0.0
O378 O 0.66309 0.27663 0.09144 0.0
O379 O 0.65027 0.29554 0.10861 0.0
O380 O 0.63119 0.30975 0.07492 0.0
C381 C 0.6195 0.30251 0.07757 0.0
C382 C 0.67629 0.29366 0.03507 0.0
O383 O 0.61787 0.29085 0.06002 0.0
C384 C 0.64612 0.2716 0.97389 0.0
O385 O 0.64972 0.31376 0.0213 0.0
O386 O 0.62829 0.30548 0.00487 0.0
O387 O 0.67085 0.28191 0.02405 0.0
O388 O 0.66958 0.30152 0.05776 0.0
C389 C 0.62991 0.25913 0.05488 0.0
O390 O 0.63742 0.28208 0.97762 0.0
O391 O 0.65139 0.26521 0.00128 0.0
C392 C 0.63859 0.31449 0.00142 0.0
O393 O 0.62491 0.26718 0.02995 0.0
O394 O 0.64228 0.26156 0.06825 0.0
C395 C 0.65734 0.28422 0.11618 0.0
Fe396 Fe 0.97486 0.408 0.29926 0.0
Fe397 Fe 0.94309 0.40234 0.32013 0.0
O398 O 0.95958 0.39639 0.30025 0.0
Fe399 Fe 0.96075 0.37885 0.28124 0.0
O400 O 0.98002 0.37623 0.2922 0.0
O401 O 0.98579 0.39528 0.32504 0.0
O402 O 0.97056 0.41697 0.34239 0.0
C403 C 0.96293 0.41262 0.36883 0.0
C404 C 0.97551 0.39449 0.23046 0.0
O405 O 0.95188 0.40478 0.36369 0.0
C406 C 0.93261 0.38825 0.26082 0.0
O407 O 0.96499 0.42137 0.2733 0.0
O408 O 0.94558 0.4216 0.3079 0.0
O409 O 0.96492 0.38619 0.23687 0.0
O410 O 0.98189 0.40112 0.25598 0.0
C411 C 0.94498 0.37268 0.34146 0.0
O412 O 0.93332 0.40017 0.27759 0.0
O413 O 0.94168 0.37821 0.26695 0.0
C414 C 0.95335 0.42731 0.28334 0.0
O415 O 0.93762 0.38413 0.33595 0.0
O416 O 0.95662 0.3705 0.32437 0.0
C417 C 0.9881 0.38235 0.31542 0.0
Fe418 Fe 0.85026 0.69523 0.5671 0.0
Fe419 Fe 0.87143 0.7133 0.52135 0.0
O420 O 0.85507 0.71189 0.54606 0.0
Fe421 Fe 0.84345 0.72715 0.54985 0.0
O422 O 0.83667 0.72232 0.5952 0.0
O423 O 0.85019 0.70375 0.61135 0.0
O424 O 0.86905 0.68957 0.57645 0.0
C425 C 0.88079 0.69672 0.57802 0.0
C426 C 0.82364 0.70561 0.53869 0.0
O427 O 0.88221 0.70839 0.56054 0.0
C428 C 0.85357 0.72903 0.47744 0.0
O429 O 0.85013 0.68563 0.52419 0.0
O430 O 0.87091 0.69458 0.50461 0.0
O431 O 0.82888 0.71745 0.52759 0.0
O432 O 0.83054 0.69782 0.56124 0.0
C433 C 0.86984 0.74016 0.55902 0.0
O434 O 0.86187 0.71825 0.48044 0.0
O435 O 0.84804 0.73488 0.50528 0.0
C436 C 0.86056 0.68559 0.50203 0.0
O437 O 0.87478 0.73234 0.53356 0.0
O438 O 0.8574 0.73779 0.57219 0.0
C439 C 0.84239 0.7145 0.61959 0.0
Fe440 Fe 0.55582 0.39825 0.67396 0.0
Fe441 Fe 0.53852 0.37667 0.72097 0.0
O442 O 0.53941 0.39295 0.6957 0.0
Fe443 Fe 0.52374 0.40396 0.69254 0.0
O444 O 0.52342 0.40189 0.6441 0.0
O445 O 0.54659 0.40658 0.63447 0.0
O446 O 0.5567 0.38156 0.6478 0.0
C447 C 0.55632 0.36899 0.66132 0.0
C448 C 0.54628 0.42448 0.69982 0.0
O449 O 0.55176 0.3669 0.69323 0.0
C450 C 0.52191 0.39623 0.76321 0.0
O451 O 0.56769 0.39076 0.7097 0.0
O452 O 0.55243 0.38307 0.75164 0.0
O453 O 0.53361 0.42115 0.68956 0.0
O454 O 0.55641 0.4153 0.69866 0.0
C455 C 0.51243 0.37548 0.68676 0.0
O456 O 0.52504 0.38339 0.75374 0.0
O457 O 0.5232 0.40661 0.74123 0.0
C458 C 0.56495 0.38724 0.74231 0.0
O459 O 0.52453 0.36937 0.69148 0.0
O460 O 0.51077 0.38877 0.6946 0.0
C461 C 0.53369 0.40492 0.62281 0.0
Fe462 Fe 0.87252 0.28532 0.97564 0.0
Fe463 Fe 0.84541 0.27231 0.94098 0.0
O464 O 0.85704 0.28734 0.94778 0.0
Fe465 Fe 0.8531 0.30422 0.92678 0.0
O466 O 0.8704 0.30447 0.90323 0.0
O467 O 0.88379 0.29817 0.95011 0.0
O468 O 0.87986 0.27112 0.94679 0.0
C469 C 0.87326 0.25938 0.94069 0.0
C470 C 0.8629 0.31212 -0.00292 0.0
O471 O 0.85969 0.2585 0.94549 0.0
C472 C 0.82577 0.29575 0.94591 0.0
O473 O 0.86398 0.27209 0.00636 0.0
O474 O 0.84112 0.2714 0.98894 0.0
O475 O 0.86029 0.31532 0.96426 0.0
O476 O 0.86618 0.29933 0.00612 0.0
C477 C 0.84717 0.28327 0.87254 0.0
O478 O 0.82891 0.28314 0.93489 0.0
O479 O 0.8355 0.30529 0.94901 0.0
C480 C 0.8507 0.26952 0.01296 0.0
O481 O 0.84921 0.2725 0.89303 0.0
O482 O 0.84533 0.29593 0.88544 0.0
C483 C 0.88265 0.30315 0.91822 0.0
Fe484 Fe 0.97747 0.59781 0.19201 0.0
Fe485 Fe 0.94579 0.60507 0.17364 0.0
O486 O 0.962 0.60888 0.19788 0.0
Fe487 Fe 0.96281 0.62374 0.22805 0.0
O488 O 0.9774 0.63217 0.2025 0.0
O489 O 0.99069 0.61243 0.19945 0.0
O490 O 0.97822 0.6023 0.14453 0.0
C491 C 0.9681 0.60002 0.12225 0.0
C492 C 0.97877 0.60188 0.26481 0.0
O493 O 0.95518 0.59794 0.13308 0.0
C494 C 0.93588 0.61306 0.24346 0.0
O495 O 0.96714 0.58119 0.18318 0.0
O496 O 0.94444 0.58713 0.19399 0.0
O497 O 0.97559 0.61509 0.25949 0.0
O498 O 0.97767 0.59273 0.23953 0.0
C499 C 0.94666 0.63467 0.16879 0.0
O500 O 0.93361 0.61161 0.20974 0.0
O501 O 0.94833 0.61615 0.25537 0.0
C502 C 0.95431 0.57767 0.19179 0.0
O503 O 0.94607 0.62275 0.15192 0.0
O504 O 0.95023 0.6351 0.20195 0.0
C505 C 0.9894 0.62606 0.19626 0.0
Fe506 Fe 0.65348 0.72632 0.44819 0.0
Fe507 Fe 0.64648 0.69463 0.42969 0.0
O508 O 0.6418 0.71115 0.45128 0.0
Fe509 Fe 0.62542 0.71251 0.47591 0.0
O510 O 0.62247 0.73187 0.46587 0.0
O511 O 0.63957 0.73716 0.42653 0.0
O512 O 0.6601 0.72187 0.40251 0.0
C513 C 0.65405 0.71442 0.37789 0.0
C514 C 0.6437 0.7272 0.52081 0.0
O515 O 0.64661 0.70338 0.38578 0.0
C516 C 0.63556 0.68427 0.49304 0.0
O517 O 0.66805 0.71642 0.46978 0.0
O518 O 0.66623 0.69697 0.43556 0.0
O519 O 0.63515 0.71659 0.51739 0.0
O520 O 0.64893 0.73351 0.49324 0.0
C521 C 0.61611 0.69702 0.41752 0.0
O522 O 0.6465 0.6849 0.47255 0.0
O523 O 0.62533 0.69341 0.49024 0.0
C524 C 0.67322 0.70463 0.45821 0.0
O525 O 0.62755 0.68937 0.41983 0.0
O526 O 0.6148 0.7085 0.43587 0.0
C527 C 0.62734 0.73976 0.44046 0.0
Fe528 Fe 0.44672 0.39987 0.17669 0.0
Fe529 Fe 0.4788 0.40777 0.19076 0.0
O530 O 0.46373 0.39603 0.19751 0.0
Fe531 Fe 0.46573 0.38053 0.22542 0.0
O532 O 0.45285 0.36932 0.20001 0.0
O533 O 0.44644 0.3826 0.15306 0.0
O534 O 0.45475 0.40771 0.13532 0.0
C535 C 0.46748 0.40677 0.12239 0.0
C536 C 0.43893 0.38997 0.24704 0.0
O537 O 0.47835 0.40478 0.14251 0.0
C538 C 0.48176 0.40205 0.26285 0.0
O539 O 0.44559 0.41734 0.19906 0.0
O540 O 0.46788 0.4243 0.1869 0.0
O541 O 0.45176 0.38685 0.25607 0.0
O542 O 0.43574 0.39261 0.21423 0.0
C543 C 0.49148 0.37972 0.18902 0.0
O544 O 0.48028 0.41162 0.23875 0.0
O545 O 0.47895 0.38886 0.25626 0.0
C546 C 0.45521 0.42705 0.19822 0.0
O547 O 0.49253 0.39333 0.19336 0.0
O548 O 0.47983 0.37318 0.19651 0.0
C549 C 0.44769 0.37042 0.16833 0.0
Fe550 Fe 0.34607 0.72585 0.94618 0.0
Fe551 Fe 0.37451 0.71224 0.97223 0.0
O552 O 0.35791 0.71077 0.94851 0.0
Fe553 Fe 0.35311 0.69419 0.92721 0.0
O554 O 0.35237 0.70287 0.88319 0.0
O555 O 0.33906 0.72137 0.90099 0.0
O556 O 0.35964 0.73685 0.92372 0.0
C557 C 0.37207 0.73941 0.93659 0.0
C558 C 0.32662 0.70396 0.95744 0.0
O559 O 0.37732 0.73154 0.96156 0.0
C560 C 0.36466 0.68398 0.99012 0.0
O561 O 0.35102 0.73314 0.99078 0.0
O562 O 0.3652 0.71643 0.01433 0.0
O563 O 0.33345 0.69639 0.93434 0.0
O564 O 0.33179 0.71581 0.96868 0.0
C565 C 0.38339 0.69668 0.91353 0.0
O566 O 0.37479 0.69319 0.98688 0.0
O567 O 0.35359 0.68449 0.97006 0.0
C568 C 0.3567 0.72705 0.01807 0.0
O569 O 0.38478 0.70818 0.93172 0.0
O570 O 0.37197 0.68903 0.9162 0.0
C571 C 0.34474 0.71386 0.87595 0.0
Fe572 Fe 0.05414 0.59986 0.67288 0.0
Fe573 Fe 0.02216 0.59306 0.68989 0.0
O574 O 0.03762 0.60433 0.69514 0.0
Fe575 Fe 0.03647 0.61998 0.72277 0.0
O576 O 0.04914 0.63075 0.69559 0.0
O577 O 0.05443 0.61701 0.64855 0.0
O578 O 0.04519 0.59193 0.63269 0.0
C579 C 0.03235 0.59339 0.62064 0.0
C580 C 0.06338 0.60996 0.74192 0.0
O581 O 0.02194 0.59623 0.64168 0.0
C582 C 0.02076 0.59882 0.76216 0.0
O583 O 0.0551 0.58239 0.69583 0.0
O584 O 0.03253 0.57627 0.68447 0.0
O585 O 0.05079 0.61344 0.75211 0.0
O586 O 0.06596 0.60707 0.70892 0.0
C587 C 0.01007 0.6213 0.68931 0.0
O588 O 0.02145 0.58919 0.73797 0.0
O589 O 0.02365 0.61197 0.75512 0.0
C590 C 0.0452 0.57293 0.69467 0.0
O591 O 0.00884 0.60776 0.69425 0.0
O592 O 0.02199 0.62761 0.69524 0.0
C593 C 0.0536 0.62935 0.6633 0.0
Fe594 Fe 0.126 0.28926 0.47579 0.0
Fe595 Fe 0.14871 0.30686 0.43343 0.0
O596 O 0.14274 0.29016 0.45252 0.0
Fe597 Fe 0.15355 0.27441 0.44818 0.0
O598 O 0.13935 0.26475 0.42433 0.0
O599 O 0.1218 0.27052 0.46203 0.0
O600 O 0.11611 0.29523 0.43603 0.0
C601 C 0.1183 0.30721 0.42043 0.0
C602 C 0.14279 0.27233 0.51984 0.0
O603 O 0.13033 0.31374 0.42394 0.0
C604 C 0.1745 0.29458 0.46181 0.0
O605 O 0.12733 0.30773 0.49396 0.0
O606 O 0.14897 0.3156 0.47759 0.0
O607 O 0.14825 0.26648 0.49193 0.0
O608 O 0.13473 0.28331 0.51712 0.0
C609 C 0.15538 0.2876 0.37953 0.0
O610 O 0.16823 0.30309 0.43974 0.0
O611 O 0.1684 0.28302 0.47183 0.0
C612 C 0.13825 0.31588 0.49894 0.0
O613 O 0.14866 0.29904 0.38817 0.0
O614 O 0.16079 0.27944 0.40363 0.0
C615 C 0.12674 0.2627 0.43658 0.0
Fe616 Fe 0.44493 0.602 0.31796 0.0
Fe617 Fe 0.47692 0.59494 0.30153 0.0
O618 O 0.46131 0.60578 0.29441 0.0
Fe619 Fe 0.46208 0.62043 0.26353 0.0
O620 O 0.44891 0.63171 0.2879 0.0
O621 O 0.44473 0.61993 0.33863 0.0
O622 O 0.454 0.5954 0.35939 0.0
C623 C 0.46689 0.59706 0.37085 0.0
C624 C 0.4355 0.60923 0.24692 0.0
O625 O 0.47719 0.59942 0.34914 0.0
C626 C 0.4784 0.59861 0.22837 0.0
O627 O 0.44398 0.58388 0.29883 0.0
O628 O 0.46674 0.57817 0.30979 0.0
O629 O 0.44806 0.61238 0.23584 0.0
O630 O 0.43294 0.60787 0.28058 0.0
C631 C 0.48832 0.62346 0.29686 0.0
O632 O 0.47774 0.58968 0.2542 0.0
O633 O 0.47525 0.61184 0.23308 0.0
C634 C 0.45394 0.57452 0.30121 0.0
O635 O 0.4899 0.60982 0.29464 0.0
O636 O 0.47628 0.62931 0.28955 0.0
C637 C 0.44466 0.63156 0.32054 0.0
Fe638 Fe 0.14947 0.69291 0.06463 0.0
Fe639 Fe 0.15764 0.72481 0.05052 0.0
O640 O 0.14552 0.71005 0.04499 0.0
Fe641 Fe 0.12944 0.71245 0.01973 0.0
O642 O 0.11833 0.70798 0.05857 0.0
O643 O 0.13032 0.68818 0.07311 0.0
O644 O 0.14971 0.70076 0.10959 0.0
C645 C 0.15762 0.71125 0.11918 0.0
C646 C 0.13894 0.68458 -0.00137 0.0
O647 O 0.16375 0.71927 0.09588 0.0
C648 C 0.14846 0.72743 0.97756 0.0
O649 O 0.16932 0.69466 0.05969 0.0
O650 O 0.17206 0.71485 0.02855 0.0
O651 O 0.1289 0.69381 0.00264 0.0
O652 O 0.14939 0.68394 0.02071 0.0
C653 C 0.13188 0.73903 0.05808 0.0
O654 O 0.15378 0.733 0.00604 0.0
O655 O 0.13962 0.71703 0.97951 0.0
C656 C 0.17673 0.70264 0.03861 0.0
O657 O 0.14385 0.73582 0.07272 0.0
O658 O 0.12704 0.7316 0.03186 0.0
C659 C 0.11914 0.69618 0.07575 0.0
Fe660 Fe 0.05205 0.39716 0.81608 0.0
Fe661 Fe 0.02068 0.40404 0.79337 0.0
O662 O 0.0366 0.39345 0.78887 0.0
Fe663 Fe 0.03699 0.37912 0.75712 0.0
O664 O 0.04946 0.36772 0.7834 0.0
O665 O 0.05179 0.37902 0.83553 0.0
O666 O 0.04146 0.40312 0.85589 0.0
C667 C 0.02836 0.40048 0.86428 0.0
C668 C 0.06394 0.39065 0.74678 0.0
O669 O 0.01883 0.39878 0.84016 0.0
C670 C 0.02168 0.40124 0.72011 0.0
O671 O 0.0534 0.41544 0.79827 0.0
O672 O 0.03033 0.42082 0.80514 0.0
O673 O 0.05182 0.38753 0.73281 0.0
O674 O 0.06529 0.39181 0.78095 0.0
C675 C 0.00985 0.37555 0.78534 0.0
O676 O 0.02157 0.40988 0.7466 0.0
O677 O 0.0247 0.38795 0.72465 0.0
C678 C 0.04326 0.42462 0.79833 0.0
O679 O 0.00811 0.38914 0.78246 0.0
O680 O 0.02214 0.36989 0.77998 0.0
C681 C 0.05259 0.36758 0.81682 0.0
Fe682 Fe 0.34623 0.2712 0.54844 0.0
Fe683 Fe 0.37169 0.28533 0.50902 0.0
O684 O 0.35717 0.28661 0.54021 0.0
Fe685 Fe 0.35353 0.30315 0.56315 0.0
O686 O 0.34745 0.29423 0.60551 0.0
O687 O 0.35158 0.27104 0.59536 0.0
O688 O 0.36072 0.25791 0.54051 0.0
C689 C 0.37434 0.25931 0.54338 0.0
C690 C 0.32592 0.29406 0.54858 0.0
O691 O 0.38039 0.27115 0.53534 0.0
C692 C 0.3609 0.31208 0.49159 0.0
O693 O 0.34039 0.27055 0.50144 0.0
O694 O 0.36255 0.2721 0.47949 0.0
O695 O 0.33523 0.30395 0.54464 0.0
O696 O 0.32971 0.28148 0.55846 0.0
C697 C 0.38326 0.30283 0.5653 0.0
O698 O 0.36395 0.29942 0.48091 0.0
O699 O 0.35917 0.31479 0.52507 0.0
C700 C 0.34919 0.26919 0.47543 0.0
O701 O 0.38341 0.29828 0.53289 0.0
O702 O 0.37155 0.3036 0.58297 0.0
C703 C 0.35019 0.28152 0.61704 0.0
C704 C 0.06017 0.05566 0.2758 0.0
C705 C 0.04822 0.06022 0.29663 0.0
C706 C 0.062 0.04093 0.26734 0.0
C707 C 0.03979 0.00793 0.25833 0.0
H708 H 0.07636 0.98701 0.25737 0.0
C709 C 0.04071 0.94647 0.24974 0.0
C710 C 0.04946 0.94024 0.22265 0.0
C711 C 0.04236 0.96101 0.25923 0.0
C712 C 0.06612 0.9928 0.25726 0.0
H713 H 0.02943 0.05288 0.32707 0.0
H714 H 0.03278 0.02736 0.31312 0.0
H715 H 0.07598 0.01289 0.27375 0.0
H716 H 0.06744 0.94419 0.18587 0.0
H717 H 0.0703 0.96981 0.20267 0.0
H718 H 0.02986 0.98798 0.24239 0.0
C719 C 0.0405 0.03512 0.30229 0.0
C720 C 0.06589 0.00757 0.26657 0.0
C721 C 0.03861 0.04975 0.31044 0.0
C722 C 0.06047 0.9487 0.20667 0.0
C723 C 0.06215 0.96333 0.21633 0.0
C724 C 0.04 0.99327 0.24929 0.0
C725 C 0.05193 0.03057 0.27974 0.0
C726 C 0.05265 0.01519 0.26788 0.0
C727 C 0.05281 0.96968 0.24197 0.0
C728 C 0.0531 0.98548 0.24931 0.0
H729 H 0.06775 0.06351 0.26479 0.0
H730 H 0.07091 0.03775 0.24989 0.0
H731 H 0.02947 0.01358 0.25797 0.0
H732 H 0.03228 0.94023 0.26309 0.0
H733 H 0.03521 0.96557 0.27962 0.0
C734 C 0.19381 0.81135 0.51754 0.0
C735 C 0.18996 0.79883 0.53719 0.0
C736 C 0.20845 0.81442 0.51039 0.0
C737 C 0.24547 0.80626 0.54224 0.0
H738 H 0.25741 0.81123 0.4421 0.0
C739 C 0.30192 0.79022 0.49344 0.0
C740 C 0.30905 0.79858 0.46698 0.0
C741 C 0.28769 0.79338 0.50353 0.0
C742 C 0.25426 0.81017 0.47029 0.0
H743 H 0.1984 0.77995 0.56547 0.0
H744 H 0.22375 0.78541 0.55341 0.0
H745 H 0.23156 0.81142 0.45748 0.0
H746 H 0.30684 0.81705 0.43081 0.0
H747 H 0.28179 0.82256 0.44854 0.0
H748 H 0.26805 0.80459 0.55508 0.0
C749 C 0.21554 0.79284 0.54352 0.0
C750 C 0.23946 0.81028 0.47906 0.0
C751 C 0.20099 0.78966 0.55016 0.0
C752 C 0.30164 0.81036 0.45121 0.0
C753 C 0.2873 0.8135 0.46125 0.0
C754 C 0.26021 0.80623 0.53354 0.0
C755 C 0.21943 0.80518 0.52339 0.0
C756 C 0.23494 0.8078 0.51495 0.0
C757 C 0.28017 0.80501 0.4875 0.0
C758 C 0.26475 0.80764 0.4973 0.0
H759 H 0.18553 0.81858 0.5071 0.0
H760 H 0.21119 0.82401 0.49478 0.0
H761 H 0.24227 0.80458 0.57022 0.0
H762 H 0.30729 0.7811 0.50628 0.0
H763 H 0.28245 0.78645 0.52336 0.0
C764 C 0.45841 0.04907 0.68527 0.0
C765 C 0.44944 0.06016 0.69881 0.0
C766 C 0.45481 0.03455 0.69065 0.0
C767 C 0.4364 0.0109 0.75406 0.0
H768 H 0.44335 0.98201 0.67947 0.0
C769 C 0.43652 0.94933 0.78535 0.0
C770 C 0.44873 0.94197 0.7716 0.0
C771 C 0.43323 0.96338 0.77351 0.0
C772 C 0.44134 0.98994 0.70057 0.0
H773 H 0.42953 0.06473 0.72812 0.0
H774 H 0.42335 0.03913 0.73813 0.0
H775 H 0.44347 0.00773 0.66357 0.0
H776 H 0.46673 0.94341 0.73373 0.0
H777 H 0.46109 0.96784 0.71351 0.0
H778 H 0.43497 0.99316 0.79141 0.0
C779 C 0.43311 0.0418 0.72315 0.0
C780 C 0.44137 0.00464 0.69145 0.0
C781 C 0.43663 0.0564 0.71733 0.0
C782 C 0.4573 0.94878 0.74505 0.0
C783 C 0.45397 0.96275 0.73316 0.0
C784 C 0.43641 0.99618 0.76323 0.0
C785 C 0.44223 0.03075 0.71 0.0
C786 C 0.43941 0.01528 0.71833 0.0
C787 C 0.442 0.97028 0.74749 0.0
C788 C 0.4394 0.98558 0.73679 0.0
H789 H 0.46832 0.0516 0.67075 0.0
H790 H 0.46216 0.02627 0.68068 0.0
H791 H 0.43495 0.01888 0.77536 0.0
H792 H 0.42965 0.94435 0.8057 0.0
H793 H 0.42387 0.96888 0.78485 0.0
C794 C 0.19957 0.21523 0.973 0.0
C795 C 0.19016 0.20367 0.96479 0.0
C796 C 0.2144 0.21279 0.97741 0.0
C797 C 0.24147 0.18964 0.00917 0.0
H798 H 0.26729 0.2079 0.93961 0.0
C799 C 0.3038 0.19063 0.03027 0.0
C800 C 0.31055 0.20399 0.02262 0.0
C801 C 0.28946 0.18806 0.01939 0.0
C802 C 0.26026 0.20279 0.9594 0.0
H803 H 0.18883 0.18042 0.95584 0.0
H804 H 0.21497 0.17612 0.96483 0.0
H805 H 0.24112 0.20817 0.92914 0.0
H806 H 0.30758 0.22501 -0.003 0.0
H807 H 0.28265 0.22074 0.97917 0.0
H808 H 0.26042 0.18512 0.04085 0.0
C809 C 0.21072 0.18706 0.96718 0.0
C810 C 0.24532 0.20284 0.95316 0.0
C811 C 0.19585 0.18953 0.962 0.0
C812 C 0.30276 0.21457 0.00328 0.0
C813 C 0.28845 0.21206 0.99272 0.0
C814 C 0.25644 0.18978 0.01577 0.0
C815 C 0.22007 0.19873 0.97441 0.0
C816 C 0.23583 0.19656 0.97838 0.0
C817 C 0.28156 0.19882 0.0008 0.0
C818 C 0.26597 0.19673 0.99143 0.0
H819 H 0.19555 0.22625 0.97516 0.0
H820 H 0.22148 0.22191 0.98314 0.0
H821 H 0.23425 0.18483 0.02904 0.0
H822 H 0.30955 0.1822 0.0449 0.0
H823 H 0.28455 0.17767 0.02568 0.0
C824 C 0.93952 0.94491 0.71279 0.0
C825 C 0.95348 0.94015 0.70278 0.0
C826 C 0.93685 0.95968 0.71911 0.0
C827 C 0.95245 0.9962 0.70184 0.0
H828 H 0.9322 0.0076 0.78965 0.0
C829 C 0.96386 0.04941 0.77467 0.0
C830 C 0.95209 0.05828 0.78452 0.0
C831 C 0.96154 0.03542 0.76165 0.0
C832 C 0.93765 0.00457 0.76472 0.0
H833 H 0.97553 0.9472 0.69144 0.0
H834 H 0.97093 0.97267 0.70276 0.0
H835 H 0.93261 0.982 0.7715 0.0
H836 H 0.92861 0.05933 0.78895 0.0
H837 H 0.92458 0.03445 0.76687 0.0
H838 H 0.95814 0.01861 0.69611 0.0
C839 C 0.96196 0.96512 0.70514 0.0
C840 C 0.93787 0.98995 0.75428 0.0
C841 C 0.96462 0.95045 0.69891 0.0
C842 C 0.93789 0.05273 0.78155 0.0
C843 C 0.93558 0.03855 0.76901 0.0
C844 C 0.95233 0.01073 0.71242 0.0
C845 C 0.94807 0.96994 0.71535 0.0
C846 C 0.9457 0.98556 0.72336 0.0
C847 C 0.9474 0.02987 0.75854 0.0
C848 C 0.94533 0.01497 0.74452 0.0
H849 H 0.9307 0.93724 0.71607 0.0
H850 H 0.92602 0.96307 0.72684 0.0
H851 H 0.95827 0.99323 0.67739 0.0
H852 H 0.97492 0.05337 0.7764 0.0
H853 H 0.97084 0.02887 0.75416 0.0
C854 C 0.69839 0.18764 0.53783 0.0
C855 C 0.69103 0.19941 0.52184 0.0
C856 C 0.71259 0.18423 0.52735 0.0
C857 C 0.7397 0.19077 0.45472 0.0
H858 H 0.76815 0.18632 0.53159 0.0
C859 C 0.79861 0.20811 0.43932 0.0
C860 C 0.80979 0.19938 0.45339 0.0
C861 C 0.78412 0.20456 0.44528 0.0
C862 C 0.7603 0.18722 0.50978 0.0
H863 H 0.69267 0.2165 0.48149 0.0
H864 H 0.71736 0.21065 0.46357 0.0
H865 H 0.74228 0.18658 0.54647 0.0
H866 H 0.81454 0.17998 0.48452 0.0
H867 H 0.78892 0.17389 0.49572 0.0
H868 H 0.75774 0.19213 0.41829 0.0
C869 C 0.71215 0.20396 0.48395 0.0
C870 C 0.7455 0.18738 0.51827 0.0
C871 C 0.69803 0.20741 0.49449 0.0
C872 C 0.80613 0.18688 0.47332 0.0
C873 C 0.79153 0.18343 0.47978 0.0
C874 C 0.75446 0.19066 0.44629 0.0
C875 C 0.71966 0.19243 0.50048 0.0
C876 C 0.73507 0.18968 0.49095 0.0
C877 C 0.78041 0.19226 0.46577 0.0
C878 C 0.76492 0.18941 0.47388 0.0
H879 H 0.69328 0.18122 0.55888 0.0
H880 H 0.71807 0.17522 0.54039 0.0
H881 H 0.73191 0.19223 0.43299 0.0
H882 H 0.80104 0.21777 0.42367 0.0
H883 H 0.77579 0.21169 0.43463 0.0
C884 C 0.56316 0.94536 0.28 0.0
C885 C 0.54919 0.94117 0.29146 0.0
C886 C 0.5664 0.96004 0.27386 0.0
C887 C 0.55299 0.99706 0.29484 0.0
H888 H 0.57046 0.00822 0.20319 0.0
C889 C 0.53916 0.04961 0.22277 0.0
C890 C 0.55046 0.05869 0.21082 0.0
C891 C 0.54212 0.03578 0.23596 0.0
C892 C 0.56586 0.00525 0.22921 0.0
H893 H 0.52774 0.94916 0.30575 0.0
H894 H 0.53333 0.97447 0.29493 0.0
H895 H 0.57003 0.98256 0.22105 0.0
H896 H 0.57375 0.06029 0.20295 0.0
H897 H 0.5789 0.03561 0.22526 0.0
H898 H 0.54803 0.01958 0.30196 0.0
C899 C 0.54187 0.96652 0.29112 0.0
C900 C 0.56561 0.9906 0.23946 0.0
C901 C 0.53863 0.95195 0.29703 0.0
C902 C 0.56483 0.05352 0.21199 0.0
C903 C 0.56778 0.03946 0.22466 0.0
C904 C 0.55314 0.01161 0.2845 0.0
C905 C 0.55576 0.97076 0.27943 0.0
C906 C 0.55865 0.98632 0.27173 0.0
C907 C 0.55643 0.03057 0.23712 0.0
C908 C 0.55909 0.01576 0.25102 0.0
H909 H 0.57153 0.93731 0.27537 0.0
H910 H 0.5772 0.96299 0.26487 0.0
H911 H 0.54786 0.99414 0.32026 0.0
H912 H 0.52798 0.05329 0.22251 0.0
H913 H 0.53317 0.02905 0.24503 0.0
C914 C 0.80471 0.80938 0.02211 0.0
C915 C 0.80991 0.79716 0.04095 0.0
C916 C 0.78991 0.81067 0.01388 0.0
C917 C 0.75756 0.78751 0.00221 0.0
H918 H 0.73565 0.8234 0.00851 0.0
C919 C 0.6958 0.78736 -0.00298 0.0
C920 C 0.68908 0.79702 0.97272 0.0
C921 C 0.71048 0.78878 0.00538 0.0
C922 C 0.74171 0.81335 0.00633 0.0
H923 H 0.80356 0.77713 0.06763 0.0
H924 H 0.7779 0.77952 0.05406 0.0
H925 H 0.76163 0.82333 0.02353 0.0
H926 H 0.69238 0.81623 0.93959 0.0
H927 H 0.71822 0.8187 0.95447 0.0
H928 H 0.73774 0.77747 0.9856 0.0
C929 C 0.78524 0.78792 0.04468 0.0
C930 C 0.75654 0.8133 0.01486 0.0
C931 C 0.79996 0.78658 0.05265 0.0
C932 C 0.69726 0.80855 0.95823 0.0
C933 C 0.71202 0.81002 0.96681 0.0
C934 C 0.74281 0.78755 0.99394 0.0
C935 C 0.78007 0.79978 0.02446 0.0
C936 C 0.76456 0.8003 0.0135 0.0
C937 C 0.71882 0.79992 0.98982 0.0
C938 C 0.73467 0.80039 0.99649 0.0
H939 H 0.81213 0.8177 0.01269 0.0
H940 H 0.78626 0.81992 -0.00181 0.0
H941 H 0.7635 0.7774 -0.00016 0.0
H942 H 0.68982 0.77846 0.0091 0.0
H943 H 0.71539 0.78101 0.02375 0.0
C944 C 0.53739 0.44816 0.72372 0.0
C945 C 0.54909 0.43946 0.71248 0.0
C946 C 0.53976 0.46218 0.7366 0.0
C947 C 0.56361 0.49324 0.73102 0.0
H948 H 0.54362 0.50497 0.8189 0.0
C949 C 0.56261 0.55307 0.78281 0.0
C950 C 0.54877 0.55795 0.79345 0.0
C951 C 0.5651 0.53827 0.77618 0.0
C952 C 0.54926 0.50189 0.79428 0.0
H953 H 0.57248 0.43872 0.70563 0.0
H954 H 0.57658 0.4636 0.72753 0.0
H955 H 0.54348 0.47953 0.80072 0.0
H956 H 0.52672 0.55107 0.80544 0.0
H957 H 0.53098 0.52559 0.79364 0.0
H958 H 0.56879 0.51576 0.72367 0.0
C959 C 0.56561 0.45938 0.72654 0.0
C960 C 0.54922 0.48733 0.78397 0.0
C961 C 0.56326 0.44517 0.71413 0.0
C962 C 0.53754 0.54774 0.7975 0.0
C963 C 0.54002 0.53305 0.791 0.0
C964 C 0.56356 0.5079 0.74121 0.0
C965 C 0.55387 0.46794 0.73819 0.0
C966 C 0.556 0.48293 0.75171 0.0
C967 C 0.5538 0.52811 0.78028 0.0
C968 C 0.55597 0.51243 0.77235 0.0
H969 H 0.52636 0.44408 0.72301 0.0
H970 H 0.5305 0.46862 0.745 0.0
H971 H 0.5689 0.4901 0.70595 0.0
H972 H 0.57149 0.56066 0.77935 0.0
H973 H 0.57584 0.53478 0.76803 0.0
C974 C 0.80629 0.3116 0.97292 0.0
C975 C 0.81034 0.29946 0.95207 0.0
C976 C 0.7916 0.31441 0.98005 0.0
C977 C 0.75461 0.30599 0.94744 0.0
H978 H 0.74283 0.31011 0.04792 0.0
C979 C 0.69822 0.28933 0.9966 0.0
C980 C 0.69121 0.29753 0.02357 0.0
C981 C 0.71242 0.29257 0.98625 0.0
C982 C 0.74593 0.30927 0.01965 0.0
H983 H 0.80215 0.28103 0.92153 0.0
H984 H 0.77673 0.286 0.93367 0.0
H985 H 0.76863 0.31075 0.03226 0.0
H986 H 0.69358 0.31579 0.06034 0.0
H987 H 0.71852 0.32143 0.04218 0.0
H988 H 0.73202 0.30407 0.93483 0.0
C989 C 0.78483 0.29336 0.94448 0.0
C990 C 0.7607 0.30964 0.0107 0.0
C991 C 0.79943 0.29045 0.93779 0.0
C992 C 0.69869 0.30923 0.03956 0.0
C993 C 0.71298 0.31243 0.02927 0.0
C994 C 0.73989 0.30566 0.95633 0.0
C995 C 0.78075 0.30528 0.96591 0.0
C996 C 0.76519 0.30751 0.97465 0.0
C997 C 0.72001 0.30409 0.00258 0.0
C998 C 0.73541 0.3068 0.99267 0.0
H999 H 0.81448 0.3187 0.98437 0.0
H1000 H 0.78873 0.32369 0.99664 0.0
H1001 H 0.75777 0.30458 0.91933 0.0
H1002 H 0.69279 0.28028 0.9836 0.0
H1003 H 0.71759 0.28577 0.96604 0.0
C1004 C 0.93933 0.55758 0.21885 0.0
C1005 C 0.95097 0.56214 0.19698 0.0
C1006 C 0.93748 0.5428 0.22686 0.0
C1007 C 0.95954 0.50957 0.232 0.0
H1008 H 0.92285 0.48893 0.23663 0.0
C1009 C 0.95848 0.44811 0.24191 0.0
C1010 C 0.95006 0.4421 0.26994 0.0
C1011 C 0.95672 0.46258 0.23187 0.0
C1012 C 0.93314 0.49463 0.23565 0.0
H1013 H 0.96911 0.55482 0.16414 0.0
H1014 H 0.96568 0.52925 0.17724 0.0
H1015 H 0.92314 0.51487 0.22093 0.0
H1016 H 0.93251 0.44635 0.30781 0.0
H1017 H 0.92949 0.47182 0.29013 0.0
H1018 H 0.96959 0.48949 0.24631 0.0
C1019 C 0.95827 0.537 0.18929 0.0
C1020 C 0.93331 0.50944 0.22675 0.0
C1021 C 0.96019 0.55167 0.18165 0.0
C1022 C 0.93923 0.45069 0.28626 0.0
C1023 C 0.93746 0.46524 0.2761 0.0
C1024 C 0.95937 0.49487 0.24062 0.0
C1025 C 0.9472 0.53243 0.21289 0.0
C1026 C 0.94656 0.51697 0.22421 0.0
C1027 C 0.9465 0.4714 0.24955 0.0
C1028 C 0.94623 0.48718 0.24195 0.0
H1029 H 0.93206 0.56545 0.231 0.0
H1030 H 0.92885 0.53959 0.24513 0.0
H1031 H 0.9699 0.51514 0.23138 0.0
H1032 H 0.96676 0.44175 0.22832 0.0
H1033 H 0.96364 0.46699 0.21079 0.0
C1034 C 0.69604 0.6902 0.44843 0.0
C1035 C 0.68828 0.70071 0.46818 0.0
C1036 C 0.71062 0.68738 0.45643 0.0
C1037 C 0.74327 0.69315 0.46212 0.0
H1038 H 0.75764 0.69256 0.56107 0.0
C1039 C 0.80144 0.70943 0.50075 0.0
C1040 C 0.80859 0.70173 0.5284 0.0
C1041 C 0.787 0.70638 0.4922 0.0
C1042 C 0.75381 0.69248 0.53328 0.0
H1043 H 0.68955 0.71602 0.51286 0.0
H1044 H 0.71491 0.71111 0.52671 0.0
H1045 H 0.73151 0.69206 0.54984 0.0
H1046 H 0.8063 0.68445 0.56803 0.0
H1047 H 0.78096 0.67919 0.55318 0.0
H1048 H 0.76555 0.69394 0.44559 0.0
C1049 C 0.70974 0.70502 0.50511 0.0
C1050 C 0.73885 0.69232 0.52688 0.0
C1051 C 0.69524 0.70793 0.49694 0.0
C1052 C 0.80108 0.69062 0.54668 0.0
C1053 C 0.78657 0.68764 0.53829 0.0
C1054 C 0.75822 0.69339 0.46853 0.0
C1055 C 0.71766 0.69489 0.48461 0.0
C1056 C 0.73343 0.69301 0.49127 0.0
C1057 C 0.77934 0.69559 0.51121 0.0
C1058 C 0.76363 0.6934 0.5042 0.0
H1059 H 0.69097 0.68442 0.42618 0.0
H1060 H 0.71645 0.67944 0.44035 0.0
H1061 H 0.73941 0.69377 0.43439 0.0
H1062 H 0.80693 0.718 0.48598 0.0
H1063 H 0.78168 0.71281 0.4715 0.0
C1064 C 0.46155 0.54855 0.30137 0.0
C1065 C 0.4506 0.55895 0.29597 0.0
C1066 C 0.45881 0.53389 0.29529 0.0
C1067 C 0.43556 0.5094 0.24322 0.0
H1068 H 0.45496 0.48052 0.30261 0.0
C1069 C 0.4374 0.44682 0.21346 0.0
C1070 C 0.45182 0.44189 0.21071 0.0
C1071 C 0.43445 0.46077 0.22669 0.0
C1072 C 0.44936 0.48847 0.28601 0.0
H1073 H 0.42809 0.56207 0.28031 0.0
H1074 H 0.42328 0.53625 0.26974 0.0
H1075 H 0.45438 0.50577 0.32251 0.0
H1076 H 0.47441 0.44759 0.21992 0.0
H1077 H 0.46921 0.47171 0.24349 0.0
H1078 H 0.43086 0.49196 0.20636 0.0
C1079 C 0.43401 0.53955 0.27857 0.0
C1080 C 0.44908 0.5029 0.29726 0.0
C1081 C 0.43675 0.55431 0.28475 0.0
C1082 C 0.46319 0.45111 0.22145 0.0
C1083 C 0.46023 0.46486 0.23522 0.0
C1084 C 0.43571 0.49487 0.23213 0.0
C1085 C 0.44505 0.5292 0.2837 0.0
C1086 C 0.44272 0.51363 0.27525 0.0
C1087 C 0.44586 0.46979 0.2381 0.0
C1088 C 0.44311 0.48443 0.25281 0.0
H1089 H 0.47236 0.55171 0.30988 0.0
H1090 H 0.46765 0.52626 0.29874 0.0
H1091 H 0.43062 0.51742 0.22561 0.0
H1092 H 0.42843 0.43993 0.20537 0.0
H1093 H 0.42329 0.46442 0.22863 0.0
C1094 C 0.19927 0.68775 0.04816 0.0
C1095 C 0.19172 0.69848 0.02866 0.0
C1096 C 0.21384 0.68477 0.04029 0.0
C1097 C 0.24222 0.68963 0.97035 0.0
H1098 H 0.26887 0.69131 0.05176 0.0
C1099 C 0.30457 0.70733 0.99618 0.0
C1100 C 0.31172 0.69978 0.96828 0.0
C1101 C 0.29021 0.70402 0.00506 0.0
C1102 C 0.26155 0.69073 0.02879 0.0
H1103 H 0.1933 0.71401 0.98453 0.0
H1104 H 0.2186 0.7088 0.97082 0.0
H1105 H 0.24271 0.69105 0.06283 0.0
H1106 H 0.30957 0.68246 0.92869 0.0
H1107 H 0.2844 0.67677 0.94411 0.0
H1108 H 0.26102 0.68995 0.93624 0.0
C1109 C 0.2133 0.70267 0.99215 0.0
C1110 C 0.24659 0.69044 0.03513 0.0
C1111 C 0.19884 0.70575 0.00024 0.0
C1112 C 0.30434 0.68853 0.9502 0.0
C1113 C 0.28992 0.6853 0.95893 0.0
C1114 C 0.25717 0.68983 0.96401 0.0
C1115 C 0.22103 0.69233 0.01244 0.0
C1116 C 0.23678 0.69031 0.00593 0.0
C1117 C 0.28266 0.69313 0.98614 0.0
C1118 C 0.26698 0.69079 0.99314 0.0
H1119 H 0.19406 0.68195 0.07019 0.0
H1120 H 0.21953 0.67669 0.05621 0.0
H1121 H 0.23489 0.68939 0.94735 0.0
H1122 H 0.30997 0.71599 0.01082 0.0
H1123 H 0.28485 0.71037 0.02587 0.0
C1124 C 0.06196 0.55302 0.71629 0.0
C1125 C 0.04839 0.5575 0.70274 0.0
C1126 C 0.06445 0.53837 0.7247 0.0
C1127 C 0.04965 0.50159 0.7067 0.0
H1128 H 0.06594 0.49119 0.80023 0.0
C1129 C 0.0349 0.44917 0.77913 0.0
C1130 C 0.04633 0.43999 0.78966 0.0
C1131 C 0.03771 0.46329 0.76757 0.0
C1132 C 0.06159 0.49396 0.77381 0.0
H1133 H 0.02684 0.55005 0.68737 0.0
H1134 H 0.03113 0.52488 0.70218 0.0
H1135 H 0.06655 0.51659 0.78009 0.0
H1136 H 0.06966 0.4386 0.79752 0.0
H1137 H 0.0745 0.46365 0.77806 0.0
H1138 H 0.04397 0.47917 0.70129 0.0
C1139 C 0.03996 0.53252 0.7058 0.0
C1140 C 0.06197 0.50845 0.76222 0.0
C1141 C 0.03746 0.54704 0.69756 0.0
C1142 C 0.06063 0.44542 0.78953 0.0
C1143 C 0.06342 0.45972 0.77848 0.0
C1144 C 0.04914 0.48723 0.71841 0.0
C1145 C 0.05345 0.52798 0.71941 0.0
C1146 C 0.05554 0.51247 0.72907 0.0
C1147 C 0.05198 0.46863 0.76674 0.0
C1148 C 0.05469 0.48337 0.75251 0.0
H1149 H 0.07058 0.56083 0.7207 0.0
H1150 H 0.07497 0.53517 0.73515 0.0
H1151 H 0.04493 0.50428 0.68063 0.0
H1152 H 0.02378 0.44532 0.77872 0.0
H1153 H 0.02871 0.47005 0.75895 0.0
C1154 C 0.30555 0.30905 0.52258 0.0
C1155 C 0.3103 0.29698 0.54277 0.0
C1156 C 0.29081 0.31064 0.51389 0.0
C1157 C 0.25832 0.28793 0.50225 0.0
H1158 H 0.23635 0.32381 0.50716 0.0
C1159 C 0.19664 0.28743 0.49656 0.0
C1160 C 0.1898 0.2971 0.47252 0.0
C1161 C 0.21133 0.28894 0.50476 0.0
C1162 C 0.24243 0.31377 0.50533 0.0
H1163 H 0.30322 0.2777 0.57168 0.0
H1164 H 0.27771 0.28061 0.55712 0.0
H1165 H 0.26232 0.32384 0.52261 0.0
H1166 H 0.1929 0.3164 0.43962 0.0
H1167 H 0.21876 0.31901 0.4541 0.0
H1168 H 0.23859 0.27778 0.48547 0.0
C1169 C 0.28534 0.28862 0.5471 0.0
C1170 C 0.25725 0.31378 0.51412 0.0
C1171 C 0.29998 0.28699 0.55559 0.0
C1172 C 0.19788 0.30872 0.45806 0.0
C1173 C 0.21265 0.31025 0.46642 0.0
C1174 C 0.24361 0.28791 0.49362 0.0
C1175 C 0.28063 0.30021 0.52532 0.0
C1176 C 0.26525 0.30077 0.51342 0.0
C1177 C 0.21956 0.30017 0.48923 0.0
C1178 C 0.23543 0.30074 0.4958 0.0
H1179 H 0.31327 0.31692 0.51234 0.0
H1180 H 0.28747 0.31969 0.49707 0.0
H1181 H 0.26428 0.27781 0.50043 0.0
H1182 H 0.19073 0.27847 0.50863 0.0
H1183 H 0.21631 0.28118 0.52302 0.0
C1184 C 0.00461 0.08254 0.1903 0.0
C1185 C 0.0155 0.09322 0.19187 0.0
C1186 C 0.99842 0.0787 0.15696 0.0
C1187 C 0.00515 0.07806 0.06006 0.0
H1188 H 0.96481 0.08873 0.04509 0.0
C1189 C 0.9851 0.09597 0.92252 0.0
C1190 C 0.97139 0.09166 0.90976 0.0
C1191 C 0.98933 0.09297 0.9579 0.0
C1192 C 0.97597 0.08534 0.04897 0.0
H1193 H 0.02892 0.10782 0.16021 0.0
H1194 H 0.01846 0.10078 0.10194 0.0
H1195 H 0.97487 0.08837 0.10667 0.0
H1196 H 0.95115 0.08115 0.92455 0.0
H1197 H 0.95864 0.07585 0.98715 0.0
H1198 H 0.00649 0.07542 0.00261 0.0
C1199 C 0.01458 0.09553 0.12641 0.0
C1200 C 0.98171 0.08515 0.08413 0.0
C1201 C 0.02049 0.0996 0.15966 0.0
C1202 C 0.9618 0.08459 0.93364 0.0
C1203 C 0.96608 0.08154 0.96936 0.0
C1204 C 0.99941 0.07809 0.02511 0.0
C1205 C 0.00337 0.08522 0.12485 0.0
C1206 C 0.99649 0.0821 0.08963 0.0
C1207 C 0.98 0.08551 0.98157 0.0
C1208 C 0.98496 0.08242 0.01902 0.0
H1209 H 0.00053 0.07754 0.2149 0.0
H1210 H 0.98975 0.07076 0.15622 0.0
H1211 H 0.01655 0.07555 0.06384 0.0
H1212 H 0.99268 0.10166 0.90509 0.0
H1213 H 0.99994 0.09661 0.9668 0.0
C1214 C 0.17034 0.72423 0.16969 0.0
C1215 C 0.15958 0.71442 0.1581 0.0
C1216 C 0.17099 0.72862 0.20593 0.0
C1217 C 0.14655 0.73553 0.27938 0.0
H1218 H 0.18032 0.73701 0.34225 0.0
C1219 C 0.1406 0.75343 0.42616 0.0
C1220 C 0.15139 0.7623 0.44135 0.0
C1221 C 0.14286 0.74663 0.39298 0.0
C1222 C 0.17085 0.73684 0.32482 0.0
H1223 H 0.14153 0.70098 0.17567 0.0
H1224 H 0.14254 0.70888 0.23881 0.0
H1225 H 0.1824 0.72631 0.28151 0.0
H1226 H 0.17316 0.77076 0.43448 0.0
H1227 H 0.17695 0.75931 0.37514 0.0
H1228 H 0.13506 0.74651 0.3213 0.0
C1229 C 0.15047 0.71309 0.21981 0.0
C1230 C 0.17204 0.73064 0.29027 0.0
C1231 C 0.14993 0.70856 0.18374 0.0
C1232 C 0.16467 0.76399 0.42315 0.0
C1233 C 0.16685 0.75737 0.38937 0.0
C1234 C 0.14542 0.7419 0.31347 0.0
C1235 C 0.16077 0.72341 0.23096 0.0
C1236 C 0.15983 0.7298 0.26755 0.0
C1237 C 0.15584 0.74879 0.37369 0.0
C1238 C 0.15747 0.74246 0.33687 0.0
H1239 H 0.17798 0.72886 0.15057 0.0
H1240 H 0.17898 0.73663 0.21397 0.0
H1241 H 0.13707 0.7353 0.26194 0.0
H1242 H 0.13037 0.75168 0.44004 0.0
H1243 H 0.13433 0.73972 0.38238 0.0
C1244 C 0.4972 0.90509 0.69071 0.0
C1245 C 0.48327 0.89895 0.69408 0.0
C1246 C 0.50336 0.90724 0.6565 0.0
C1247 C 0.49375 0.9122 0.56116 0.0
H1248 H 0.5322 0.89724 0.53978 0.0
C1249 C 0.51213 0.90199 0.41606 0.0
C1250 C 0.52653 0.90499 0.40586 0.0
C1251 C 0.50787 0.90289 0.45217 0.0
C1252 C 0.52157 0.90173 0.54549 0.0
H1253 H 0.46483 0.8904 0.66428 0.0
H1254 H 0.47556 0.89431 0.60454 0.0
H1255 H 0.52271 0.8958 0.6017 0.0
H1256 H 0.54781 0.9112 0.42583 0.0
H1257 H 0.54025 0.91292 0.48947 0.0
H1258 H 0.49248 0.91809 0.50521 0.0
C1259 C 0.48168 0.89743 0.6284 0.0
C1260 C 0.51614 0.90086 0.58086 0.0
C1261 C 0.47559 0.89511 0.66257 0.0
C1262 C 0.53663 0.90884 0.43282 0.0
C1263 C 0.53232 0.90978 0.46922 0.0
C1264 C 0.49921 0.9132 0.52599 0.0
C1265 C 0.49562 0.9035 0.62507 0.0
C1266 C 0.50203 0.90575 0.58872 0.0
C1267 C 0.51785 0.90688 0.47917 0.0
C1268 C 0.51301 0.90759 0.51751 0.0
H1269 H 0.50339 0.90814 0.71451 0.0
H1270 H 0.5141 0.91199 0.65459 0.0
H1271 H 0.48294 0.91631 0.56671 0.0
H1272 H 0.50408 0.8988 0.39615 0.0
H1273 H 0.49674 0.90021 0.45897 0.0
C1274 C 0.36394 0.23046 0.91638 0.0
C1275 C 0.35712 0.23694 0.94638 0.0
C1276 C 0.36342 0.23707 0.88234 0.0
C1277 C 0.34291 0.26364 0.82784 0.0
H1278 H 0.37722 0.26195 0.76694 0.0
C1279 C 0.34602 0.28838 0.68237 0.0
C1280 C 0.35123 0.27851 0.65633 0.0
C1281 C 0.34704 0.28511 0.71943 0.0
C1282 C 0.36756 0.26252 0.78369 0.0
H1283 H 0.34426 0.25541 0.96403 0.0
H1284 H 0.34351 0.26701 0.90456 0.0
H1285 H 0.37832 0.2527 0.82881 0.0
H1286 H 0.36186 0.25767 0.6487 0.0
H1287 H 0.36369 0.25211 0.71285 0.0
H1288 H 0.33215 0.27334 0.78226 0.0
C1289 C 0.34914 0.25675 0.90737 0.0
C1290 C 0.36817 0.25716 0.81903 0.0
C1291 C 0.34963 0.25011 0.94146 0.0
C1292 C 0.35765 0.26548 0.66802 0.0
C1293 C 0.35882 0.26233 0.70481 0.0
C1294 C 0.34233 0.26909 0.79244 0.0
C1295 C 0.35612 0.25034 0.87749 0.0
C1296 C 0.35575 0.25732 0.8412 0.0
C1297 C 0.35352 0.27207 0.73089 0.0
C1298 C 0.35456 0.26823 0.76979 0.0
H1299 H 0.3697 0.22026 0.91912 0.0
H1300 H 0.36865 0.23168 0.85971 0.0
H1301 H 0.33314 0.26385 0.84419 0.0
H1302 H 0.34103 0.29851 0.67414 0.0
H1303 H 0.3429 0.2928 0.7391 0.0
C1304 C 0.98798 0.90642 0.57904 0.0
C1305 C 0.97387 0.9024 0.58959 0.0
C1306 C 0.99182 0.90667 0.54249 0.0
C1307 C 0.98438 0.88907 0.45761 0.0
H1308 H 0.00487 0.92165 0.41467 0.0
C1309 C 0.01995 0.8847 0.32917 0.0
C1310 C 0.01737 0.89508 0.30199 0.0
C1311 C 0.01337 0.88605 0.36313 0.0
C1312 C 0.99908 0.91253 0.42627 0.0
H1313 H 0.95269 0.89559 0.57031 0.0
H1314 H 0.95961 0.89565 0.50597 0.0
H1315 H 0.99515 0.92372 0.47631 0.0
H1316 H 0.00615 0.91516 0.2892 0.0
H1317 H 0.99492 0.91767 0.349 0.0
H1318 H 0.98876 0.8777 0.40804 0.0
C1319 C 0.96757 0.89877 0.52619 0.0
C1320 C 0.99357 0.91369 0.46144 0.0
C1321 C 0.96362 0.89879 0.56284 0.0
C1322 C 0.00827 0.90695 0.30959 0.0
C1323 C 0.00189 0.90843 0.34375 0.0
C1324 C 0.9901 0.88782 0.42266 0.0
C1325 C 0.98172 0.90267 0.51581 0.0
C1326 C 0.98631 0.90193 0.47749 0.0
C1327 C 0.00431 0.89794 0.37068 0.0
C1328 C 0.99761 0.89949 0.40687 0.0
H1329 H 0.99609 0.90931 0.59908 0.0
H1330 H 0.00283 0.90959 0.53512 0.0
H1331 H 0.97892 0.87982 0.46959 0.0
H1332 H 0.02689 0.87542 0.32405 0.0
H1333 H 0.0155 0.87791 0.38366 0.0
C1334 C 0.34658 0.74996 0.55571 0.0
C1335 C 0.34989 0.76484 0.55355 0.0
C1336 C 0.34415 0.74343 0.58934 0.0
C1337 C 0.33235 0.75011 0.68132 0.0
H1338 H 0.35816 0.71881 0.70954 0.0
C1339 C 0.3387 0.73261 0.82973 0.0
C1340 C 0.34242 0.7182 0.83789 0.0
C1341 C 0.33779 0.73724 0.79381 0.0
C1342 C 0.35061 0.72728 0.70193 0.0
H1343 H 0.35286 0.78464 0.58452 0.0
H1344 H 0.34821 0.77322 0.64341 0.0
H1345 H 0.35975 0.72894 0.64861 0.0
H1346 H 0.3475 0.69714 0.81493 0.0
H1347 H 0.34529 0.70504 0.75199 0.0
H1348 H 0.32297 0.74839 0.73412 0.0
C1349 C 0.34766 0.76666 0.61904 0.0
C1350 C 0.35161 0.73313 0.66709 0.0
C1351 C 0.3504 0.77314 0.58549 0.0
C1352 C 0.3447 0.70834 0.80939 0.0
C1353 C 0.34353 0.71292 0.77335 0.0
C1354 C 0.33113 0.74408 0.71593 0.0
C1355 C 0.34468 0.75173 0.6212 0.0
C1356 C 0.3427 0.74477 0.65683 0.0
C1357 C 0.34033 0.7275 0.7651 0.0
C1358 C 0.34048 0.73281 0.72699 0.0
H1359 H 0.34617 0.7433 0.5315 0.0
H1360 H 0.34185 0.7319 0.59049 0.0
H1361 H 0.32526 0.75899 0.6737 0.0
H1362 H 0.33704 0.74051 0.85114 0.0
H1363 H 0.33561 0.74861 0.78871 0.0
C1364 C 0.53851 0.09554 0.05702 0.0
C1365 C 0.53042 0.08942 0.08533 0.0
C1366 C 0.53448 0.09303 0.02097 0.0
C1367 C 0.50213 0.08162 0.9677 0.0
H1368 H 0.52902 0.08519 0.88726 0.0
C1369 C 0.48446 0.08047 0.81665 0.0
C1370 C 0.48732 0.09401 0.80068 0.0
C1371 C 0.49092 0.07678 0.84976 0.0
C1372 C 0.52145 0.08398 0.90957 0.0
H1373 H 0.5126 0.07505 0.09879 0.0
H1374 H 0.50612 0.0699 0.03615 0.0
H1375 H 0.5384 0.08389 0.9492 0.0
H1376 H 0.49967 0.11398 0.80541 0.0
H1377 H 0.51124 0.10735 0.86263 0.0
H1378 H 0.48524 0.08167 0.92774 0.0
C1379 C 0.51507 0.07724 0.04132 0.0
C1380 C 0.52677 0.08341 0.94505 0.0
C1381 C 0.51882 0.08009 0.07724 0.0
C1382 C 0.49717 0.10354 0.81741 0.0
C1383 C 0.5039 0.0997 0.84987 0.0
C1384 C 0.49687 0.08186 0.93223 0.0
C1385 C 0.52252 0.08404 0.01266 0.0
C1386 C 0.51715 0.08267 0.97468 0.0
C1387 C 0.50065 0.08642 0.86656 0.0
C1388 C 0.50646 0.08345 0.90303 0.0
H1389 H 0.54748 0.10279 0.06281 0.0
H1390 H 0.54039 0.09865 -0.00018 0.0
H1391 H 0.4943 0.08135 0.98959 0.0
H1392 H 0.47689 0.07297 0.80414 0.0
H1393 H 0.48824 0.06652 0.86245 0.0
C1394 C 0.16034 0.26893 0.33235 0.0
C1395 C 0.15691 0.28337 0.34105 0.0
C1396 C 0.16073 0.26435 0.29635 0.0
C1397 C 0.1473 0.27432 0.20497 0.0
H1398 H 0.17268 0.24273 0.17609 0.0
C1399 C 0.15118 0.25125 0.05854 0.0
C1400 C 0.14821 0.23629 0.05657 0.0
C1401 C 0.15338 0.25794 0.0921 0.0
C1402 C 0.16557 0.25157 0.18387 0.0
H1403 H 0.15158 0.30448 0.31873 0.0
H1404 H 0.15283 0.29663 0.25545 0.0
H1405 H 0.17525 0.25342 0.23628 0.0
H1406 H 0.14555 0.21654 0.08789 0.0
H1407 H 0.14984 0.22823 0.14663 0.0
H1408 H 0.13788 0.27254 0.15191 0.0
C1409 C 0.15484 0.28872 0.2766 0.0
C1410 C 0.16695 0.25766 0.21837 0.0
C1411 C 0.15422 0.29327 0.31283 0.0
C1412 C 0.14776 0.2281 0.08868 0.0
C1413 C 0.15028 0.23474 0.12217 0.0
C1414 C 0.14613 0.26841 0.17017 0.0
C1415 C 0.15794 0.27415 0.26794 0.0
C1416 C 0.15759 0.26887 0.22975 0.0
C1417 C 0.15298 0.24973 0.12412 0.0
C1418 C 0.15505 0.25679 0.15969 0.0
H1419 H 0.16225 0.26096 0.35345 0.0
H1420 H 0.16278 0.25297 0.291 0.0
H1421 H 0.13977 0.28279 0.21281 0.0
H1422 H 0.15152 0.25784 0.0342 0.0
H1423 H 0.15547 0.26951 0.09306 0.0
C1424 C 0.02233 0.92194 0.08096 0.0
C1425 C 0.03395 0.91243 0.08801 0.0
C1426 C 0.01732 0.92398 0.04564 0.0
C1427 C 0.0019 0.91521 0.97685 0.0
H1428 H 0.02585 0.91722 0.89042 0.0
C1429 C 0.98262 0.89565 0.8378 0.0
C1430 C 0.98557 0.90433 0.80737 0.0
C1431 C 0.9884 0.89919 0.87158 0.0
C1432 C 0.01904 0.91686 0.91437 0.0
H1433 H 0.04997 0.89828 0.06324 0.0
H1434 H 0.04109 0.90177 0.0014 0.0
H1435 H 0.03717 0.91937 0.9504 0.0
H1436 H 0.99673 0.92365 0.78842 0.0
H1437 H 0.00709 0.92973 0.84783 0.0
H1438 H 0.98385 0.91229 0.94105 0.0
C1439 C 0.03595 0.90771 0.02328 0.0
C1440 C 0.02551 0.91797 0.94859 0.0
C1441 C 0.04098 0.90565 0.05871 0.0
C1442 C 0.99426 0.91678 0.81147 0.0
C1443 C 0.00024 0.92022 0.84531 0.0
C1444 C 0.99548 0.91399 0.94277 0.0
C1445 C 0.0238 0.91657 0.01658 0.0
C1446 C 0.01701 0.91693 0.98016 0.0
C1447 C 0.99737 0.91142 0.87559 0.0
C1448 C 0.00401 0.91452 0.91126 0.0
H1449 H 0.01676 0.92747 0.10285 0.0
H1450 H 0.00809 0.93105 0.04118 0.0
H1451 H 0.99508 0.91421 0.00068 0.0
H1452 H 0.9759 0.88604 0.8355 0.0
H1453 H 0.98614 0.89215 0.89443 0.0
C1454 C 0.83591 0.24512 0.55496 0.0
C1455 C 0.84849 0.23689 0.54826 0.0
C1456 C 0.83427 0.25254 0.58793 0.0
C1457 C 0.85658 0.26646 0.66395 0.0
H1458 H 0.82082 0.26586 0.71956 0.0
C1459 C 0.85355 0.26888 0.81792 0.0
C1460 C 0.84615 0.28073 0.83318 0.0
C1461 C 0.85271 0.26616 0.78086 0.0
C1462 C 0.83076 0.26634 0.70387 0.0
H1463 H 0.86874 0.22922 0.57146 0.0
H1464 H 0.86575 0.24175 0.62877 0.0
H1465 H 0.82123 0.2555 0.65818 0.0
H1466 H 0.83194 0.29896 0.82184 0.0
H1467 H 0.83014 0.29383 0.75637 0.0
H1468 H 0.86631 0.27639 0.71051 0.0
C1469 C 0.85738 0.24297 0.60833 0.0
C1470 C 0.83102 0.26043 0.66887 0.0
C1471 C 0.85905 0.23569 0.57556 0.0
C1472 C 0.8378 0.28979 0.81064 0.0
C1473 C 0.8367 0.28686 0.77343 0.0
C1474 C 0.85635 0.27218 0.6989 0.0
C1475 C 0.84517 0.25176 0.61461 0.0
C1476 C 0.84408 0.25997 0.64911 0.0
C1477 C 0.84425 0.27507 0.75843 0.0
C1478 C 0.84356 0.27178 0.71943 0.0
H1479 H 0.82759 0.24623 0.53436 0.0
H1480 H 0.82471 0.25919 0.59209 0.0
H1481 H 0.86672 0.26662 0.64903 0.0
H1482 H 0.86014 0.26177 0.83462 0.0
H1483 H 0.85857 0.25699 0.76967 0.0
C1484 C 0.48546 0.10088 0.57359 0.0
C1485 C 0.47201 0.09577 0.5862 0.0
C1486 C 0.48974 0.09844 0.53795 0.0
C1487 C 0.47659 0.08959 0.44655 0.0
H1488 H 0.51762 0.08205 0.43132 0.0
C1489 C 0.50516 0.08344 0.30516 0.0
C1490 C 0.51528 0.09473 0.30063 0.0
C1491 C 0.49913 0.08071 0.33935 0.0
C1492 C 0.50612 0.08396 0.43525 0.0
H1493 H 0.45226 0.08447 0.57104 0.0
H1494 H 0.45988 0.08001 0.50821 0.0
H1495 H 0.50793 0.08253 0.49285 0.0
H1496 H 0.52746 0.11163 0.32805 0.0
H1497 H 0.5173 0.10653 0.38788 0.0
H1498 H 0.47499 0.09118 0.38853 0.0
C1499 C 0.46705 0.08598 0.52612 0.0
C1500 C 0.50057 0.08437 0.47038 0.0
C1501 C 0.46269 0.08853 0.56199 0.0
C1502 C 0.51961 0.10292 0.33084 0.0
C1503 C 0.51387 0.09998 0.36499 0.0
C1504 C 0.48214 0.08898 0.41123 0.0
C1505 C 0.48076 0.09069 0.51398 0.0
C1506 C 0.48588 0.0878 0.47651 0.0
C1507 C 0.50348 0.08898 0.36943 0.0
C1508 C 0.49704 0.08668 0.40553 0.0
H1509 H 0.49279 0.10671 0.59141 0.0
H1510 H 0.50015 0.10265 0.52919 0.0
H1511 H 0.46524 0.09226 0.45038 0.0
H1512 H 0.50162 0.07703 0.28215 0.0
H1513 H 0.49111 0.07219 0.34236 0.0
C1514 C 0.66407 0.731 0.33028 0.0
C1515 C 0.65543 0.71898 0.33961 0.0
C1516 C 0.66404 0.73637 0.29488 0.0
C1517 C 0.65359 0.72753 0.2004 0.0
H1518 H 0.6508 0.76938 0.19066 0.0
C1519 C 0.65381 0.75577 0.06106 0.0
C1520 C 0.64398 0.76728 0.05604 0.0
C1521 C 0.65604 0.74987 0.09545 0.0
C1522 C 0.65148 0.75767 0.19295 0.0
H1523 H 0.64036 0.70287 0.31878 0.0
H1524 H 0.6402 0.71235 0.25717 0.0
H1525 H 0.65348 0.75864 0.25067 0.0
H1526 H 0.62885 0.78169 0.08329 0.0
H1527 H 0.63258 0.7712 0.14332 0.0
H1528 H 0.65108 0.72653 0.14278 0.0
C1529 C 0.64713 0.71752 0.27709 0.0
C1530 C 0.65323 0.75153 0.22728 0.0
C1531 C 0.64719 0.71211 0.31247 0.0
C1532 C 0.6365 0.77283 0.08624 0.0
C1533 C 0.63871 0.76688 0.12067 0.0
C1534 C 0.65181 0.73367 0.16607 0.0
C1535 C 0.65534 0.72987 0.26809 0.0
C1536 C 0.65423 0.73638 0.2314 0.0
C1537 C 0.64847 0.7553 0.1256 0.0
C1538 C 0.65066 0.74881 0.162 0.0
H1539 H 0.6706 0.7365 0.35051 0.0
H1540 H 0.67068 0.74575 0.28861 0.0
H1541 H 0.65445 0.71583 0.20266 0.0
H1542 H 0.65985 0.75132 0.03843 0.0
H1543 H 0.66381 0.74111 0.09845 0.0
C1544 C 0.03655 0.09008 0.43205 0.0
C1545 C 0.02757 0.0978 0.40799 0.0
C1546 C 0.03199 0.08741 0.46766 0.0
C1547 C 0.99834 0.0864 0.52269 0.0
H1548 H 0.02406 0.09166 0.60501 0.0
C1549 C 0.97952 0.10368 0.66328 0.0
C1550 C 0.9843 0.09562 0.69327 0.0
C1551 C 0.985 0.1008 0.62885 0.0
C1552 C 0.01686 0.08988 0.58217 0.0
H1553 H 0.00719 0.10944 0.40273 0.0
H1554 H 0.99947 0.10518 0.46469 0.0
H1555 H 0.03387 0.09311 0.54336 0.0
H1556 H 0.99841 0.07815 0.71107 0.0
H1557 H 0.00844 0.07343 0.65038 0.0
H1558 H 0.98121 0.08408 0.56151 0.0
C1559 C 0.00977 0.10071 0.45593 0.0
C1560 C 0.02244 0.09071 0.54696 0.0
C1561 C 0.01425 0.10327 0.42049 0.0
C1562 C 0.99455 0.08448 0.68825 0.0
C1563 C 0.00029 0.08181 0.65376 0.0
C1564 C 0.99277 0.08575 0.55775 0.0
C1565 C 0.01842 0.09249 0.47969 0.0
C1566 C 0.01313 0.08947 0.51688 0.0
C1567 C 0.99554 0.08998 0.62391 0.0
C1568 C 0.0019 0.08791 0.58766 0.0
H1569 H 0.04686 0.0857 0.42307 0.0
H1570 H 0.03889 0.08107 0.4854 0.0
H1571 H 0.99097 0.08498 0.50006 0.0
H1572 H 0.97156 0.11225 0.66647 0.0
H1573 H 0.98129 0.1073 0.60616 0.0
C1574 C 0.65086 0.24726 0.43483 0.0
C1575 C 0.64718 0.23257 0.43918 0.0
C1576 C 0.65246 0.25318 0.40024 0.0
C1577 C 0.64368 0.24589 0.30344 0.0
H1578 H 0.67214 0.27623 0.28647 0.0
C1579 C 0.66106 0.26447 0.16126 0.0
C1580 C 0.6584 0.27923 0.15408 0.0
C1581 C 0.66039 0.25919 0.19662 0.0
C1582 C 0.66413 0.26781 0.29103 0.0
H1583 H 0.64261 0.21243 0.41103 0.0
H1584 H 0.64607 0.22255 0.35056 0.0
H1585 H 0.66976 0.2657 0.347 0.0
H1586 H 0.65351 0.30012 0.17834 0.0
H1587 H 0.65281 0.29084 0.24075 0.0
H1588 H 0.63854 0.2477 0.24694 0.0
C1589 C 0.6472 0.22968 0.37373 0.0
C1590 C 0.66267 0.26182 0.32566 0.0
C1591 C 0.64531 0.22384 0.40836 0.0
C1592 C 0.65562 0.28871 0.18314 0.0
C1593 C 0.65524 0.28344 0.21871 0.0
C1594 C 0.64536 0.25168 0.26875 0.0
C1595 C 0.6507 0.24446 0.36921 0.0
C1596 C 0.6524 0.25079 0.33233 0.0
C1597 C 0.65732 0.26859 0.2255 0.0
C1598 C 0.65557 0.26268 0.26235 0.0
H1599 H 0.65223 0.25427 0.45819 0.0
H1600 H 0.65485 0.26465 0.39793 0.0
H1601 H 0.63542 0.23769 0.30761 0.0
H1602 H 0.6631 0.25687 0.13941 0.0
H1603 H 0.66208 0.2477 0.20141 0.0
C1604 C 0.50513 0.89294 0.17319 0.0
C1605 C 0.51371 0.90367 0.18966 0.0
C1606 C 0.49853 0.89549 0.1399 0.0
C1607 C 0.48853 0.92412 0.07356 0.0
H1608 H 0.48719 0.89089 0.00887 0.0
C1609 C 0.47465 0.92342 0.91812 0.0
C1610 C 0.46435 0.91287 0.90801 0.0
C1611 C 0.47954 0.92427 0.95398 0.0
C1612 C 0.48741 0.90023 0.02679 0.0
H1613 H 0.52184 0.92564 0.18483 0.0
H1614 H 0.51073 0.92999 0.12525 0.0
H1615 H 0.4988 0.88856 0.06771 0.0
H1616 H 0.45056 0.89548 0.92787 0.0
H1617 H 0.45938 0.89681 0.99021 0.0
H1618 H 0.47755 0.93585 0.03118 0.0
C1619 C 0.50888 0.91968 0.13859 0.0
C1620 C 0.494 0.8989 0.06059 0.0
C1621 C 0.5153 0.91719 0.17253 0.0
C1622 C 0.4585 0.90372 0.93477 0.0
C1623 C 0.46355 0.90444 0.97039 0.0
C1624 C 0.48214 0.92551 0.03922 0.0
C1625 C 0.5006 0.90874 0.12166 0.0
C1626 C 0.49438 0.91072 0.08477 0.0
C1627 C 0.47436 0.91446 0.98003 0.0
C1628 C 0.48132 0.91347 0.01595 0.0
H1629 H 0.50344 0.88251 0.18618 0.0
H1630 H 0.49183 0.887 0.12839 0.0
H1631 H 0.48859 0.93342 0.09153 0.0
H1632 H 0.47931 0.93067 0.89812 0.0
H1633 H 0.48794 0.93204 0.96088 0.0
C1634 C 0.82764 0.72657 0.66796 0.0
C1635 C 0.83943 0.71773 0.6581 0.0
C1636 C 0.82543 0.73042 0.7042 0.0
C1637 C 0.83787 0.72221 0.79861 0.0
H1638 H 0.82773 0.76253 0.8156 0.0
C1639 C 0.85657 0.75551 0.92094 0.0
C1640 C 0.84611 0.76347 0.94025 0.0
C1641 C 0.85283 0.74835 0.88901 0.0
C1642 C 0.8303 0.75118 0.81127 0.0
H1643 H 0.858 0.70576 0.67842 0.0
H1644 H 0.85455 0.7129 0.74126 0.0
H1645 H 0.82663 0.75276 0.75422 0.0
H1646 H 0.82355 0.77019 0.94157 0.0
H1647 H 0.81713 0.75802 0.88432 0.0
H1648 H 0.84256 0.72108 0.85552 0.0
C1649 C 0.84669 0.71654 0.72137 0.0
C1650 C 0.82965 0.74553 0.77614 0.0
C1651 C 0.84876 0.71252 0.68524 0.0
C1652 C 0.83179 0.76409 0.92712 0.0
C1653 C 0.82812 0.75717 0.89455 0.0
C1654 C 0.83876 0.72794 0.83359 0.0
C1655 C 0.8351 0.7257 0.73128 0.0
C1656 C 0.83381 0.73107 0.76921 0.0
C1657 C 0.83864 0.74924 0.87537 0.0
C1658 C 0.83531 0.74256 0.83998 0.0
H1659 H 0.82017 0.73063 0.64763 0.0
H1660 H 0.81624 0.73725 0.71087 0.0
H1661 H 0.84079 0.71094 0.79449 0.0
H1662 H 0.86766 0.75475 0.93061 0.0
H1663 H 0.86115 0.74242 0.87441 0.0
C1664 C 0.48487 0.59392 0.421 0.0
C1665 C 0.47032 0.59451 0.40954 0.0
C1666 C 0.48828 0.59119 0.45719 0.0
C1667 C 0.47396 0.59553 0.54825 0.0
H1668 H 0.50753 0.57225 0.57423 0.0
C1669 C 0.50865 0.60734 0.67219 0.0
C1670 C 0.51369 0.59587 0.69398 0.0
C1671 C 0.50121 0.60455 0.64011 0.0
C1672 C 0.49797 0.57856 0.56753 0.0
H1673 H 0.44791 0.59266 0.42721 0.0
H1674 H 0.45392 0.58807 0.49088 0.0
H1675 H 0.49835 0.57173 0.51199 0.0
H1676 H 0.51492 0.57244 0.69907 0.0
H1677 H 0.50206 0.56754 0.64191 0.0
H1678 H 0.47392 0.60278 0.60342 0.0
C1679 C 0.46265 0.58967 0.47159 0.0
C1680 C 0.4928 0.57838 0.53189 0.0
C1681 C 0.45923 0.5923 0.43519 0.0
C1682 C 0.51115 0.58149 0.68283 0.0
C1683 C 0.50381 0.57869 0.65023 0.0
C1684 C 0.47917 0.59577 0.5838 0.0
C1685 C 0.47722 0.58907 0.48289 0.0
C1686 C 0.48106 0.58725 0.52166 0.0
C1687 C 0.49872 0.59023 0.62874 0.0
C1688 C 0.49153 0.58768 0.59343 0.0
H1689 H 0.4937 0.59556 0.40202 0.0
H1690 H 0.4996 0.5911 0.46522 0.0
H1691 H 0.46492 0.60251 0.54116 0.0
H1692 H 0.51037 0.61855 0.67994 0.0
H1693 H 0.49767 0.61366 0.62374 0.0
C1694 C 0.64202 0.27113 0.90667 0.0
C1695 C 0.64939 0.2659 0.93737 0.0
C1696 C 0.64498 0.26541 0.87238 0.0
C1697 C 0.65994 0.23281 0.8283 0.0
H1698 H 0.6604 0.25748 0.74306 0.0
C1699 C 0.65382 0.21085 0.68303 0.0
C1700 C 0.66134 0.21786 0.65487 0.0
C1701 C 0.65445 0.21623 0.71837 0.0
C1702 C 0.66052 0.25046 0.76664 0.0
H1703 H 0.66599 0.25089 0.95602 0.0
H1704 H 0.67125 0.24107 0.89622 0.0
H1705 H 0.65753 0.26836 0.80286 0.0
H1706 H 0.67609 0.23554 0.64208 0.0
H1707 H 0.67737 0.24476 0.70395 0.0
H1708 H 0.66303 0.21492 0.79209 0.0
C1709 C 0.66298 0.24937 0.89873 0.0
C1710 C 0.65867 0.25668 0.80084 0.0
C1711 C 0.65998 0.25504 0.93298 0.0
C1712 C 0.67008 0.22994 0.66312 0.0
C1713 C 0.67075 0.23528 0.69851 0.0
C1714 C 0.66182 0.22659 0.79411 0.0
C1715 C 0.65543 0.2544 0.86811 0.0
C1716 C 0.65817 0.2479 0.83198 0.0
C1717 C 0.66266 0.22869 0.72632 0.0
C1718 C 0.66195 0.23533 0.76288 0.0
H1719 H 0.63381 0.2795 0.90916 0.0
H1720 H 0.63886 0.26938 0.84934 0.0
H1721 H 0.65948 0.22574 0.85176 0.0
H1722 H 0.64695 0.20155 0.67758 0.0
H1723 H 0.64797 0.21099 0.73912 0.0
C1724 C 0.99479 0.40236 0.18691 0.0
C1725 C 0.98133 0.39559 0.19324 0.0
C1726 C 0.00035 0.40341 0.15179 0.0
C1727 C 0.98925 0.40358 0.05656 0.0
H1728 H 0.02925 0.39289 0.03691 0.0
C1729 C 0.0098 0.39527 0.91169 0.0
C1730 C 0.02375 0.40031 0.90265 0.0
C1731 C 0.00513 0.39522 0.94759 0.0
C1732 C 0.01812 0.39612 0.04205 0.0
H1733 H 0.9631 0.38472 0.16767 0.0
H1734 H 0.9728 0.38662 0.10624 0.0
H1735 H 0.02001 0.39186 0.09901 0.0
H1736 H 0.04382 0.40908 0.92432 0.0
H1737 H 0.03552 0.40922 0.98736 0.0
H1738 H 0.98731 0.40794 -0.00014 0.0
C1739 C 0.97902 0.39112 0.12853 0.0
C1740 C 0.01284 0.39549 0.07754 0.0
C1741 C 0.97351 0.38996 0.16369 0.0
C1742 C 0.03301 0.40514 0.93045 0.0
C1743 C 0.02828 0.40517 0.96653 0.0
C1744 C 0.99455 0.40431 0.02118 0.0
C1745 C 0.99249 0.39784 0.12228 0.0
C1746 C 0.9983 0.39904 0.08501 0.0
C1747 C 0.01424 0.40029 0.9754 0.0
C1748 C 0.00898 0.40039 0.01343 0.0
H1749 H 0.00109 0.40682 0.2091 0.0
H1750 H 0.0107 0.40875 0.14765 0.0
H1751 H 0.97807 0.40663 0.0617 0.0
H1752 H 0.00245 0.39127 0.891 0.0
H1753 H 0.99438 0.39106 0.95358 0.0
C1754 C 0.85849 0.72974 0.41086 0.0
C1755 C 0.85199 0.73603 0.44155 0.0
C1756 C 0.85811 0.73683 0.37748 0.0
C1757 C 0.83895 0.76439 0.32408 0.0
H1758 H 0.87465 0.76394 0.26815 0.0
C1759 C 0.84469 0.79008 0.18014 0.0
C1760 C 0.8508 0.78051 0.15463 0.0
C1761 C 0.84499 0.78669 0.2172 0.0
C1762 C 0.86461 0.76417 0.28349 0.0
H1763 H 0.83948 0.75446 0.4609 0.0
H1764 H 0.83882 0.76685 0.40222 0.0
H1765 H 0.87444 0.75388 0.32926 0.0
H1766 H 0.86229 0.76008 0.14797 0.0
H1767 H 0.86283 0.75427 0.21212 0.0
H1768 H 0.82909 0.77443 0.27767 0.0
C1769 C 0.84423 0.75643 0.40422 0.0
C1770 C 0.86447 0.75837 0.31838 0.0
C1771 C 0.84463 0.74934 0.43779 0.0
C1772 C 0.85741 0.76766 0.16687 0.0
C1773 C 0.85784 0.76438 0.20369 0.0
C1774 C 0.8391 0.77023 0.28902 0.0
C1775 C 0.85121 0.75035 0.37393 0.0
C1776 C 0.85155 0.75803 0.33863 0.0
C1777 C 0.85161 0.77381 0.22923 0.0
C1778 C 0.85184 0.76978 0.26808 0.0
H1779 H 0.86411 0.71943 0.41265 0.0
H1780 H 0.86329 0.73171 0.35439 0.0
H1781 H 0.82884 0.76425 0.3391 0.0
H1782 H 0.83953 0.80006 0.17147 0.0
H1783 H 0.84015 0.79415 0.23643 0.0
C1784 C 0.48262 0.41529 0.07072 0.0
C1785 C 0.46987 0.40857 0.08321 0.0
C1786 C 0.48573 0.41574 0.03372 0.0
C1787 C 0.48394 0.39381 0.95691 0.0
H1788 H 0.49091 0.42803 0.89812 0.0
C1789 C 0.50466 0.3881 0.81088 0.0
C1790 C 0.51435 0.39862 0.79782 0.0
C1791 C 0.49733 0.39025 0.84352 0.0
C1792 C 0.48921 0.41836 0.91424 0.0
H1793 H 0.45021 0.39735 0.06713 0.0
H1794 H 0.45604 0.39757 0.00204 0.0
H1795 H 0.48122 0.43069 0.95953 0.0
H1796 H 0.52401 0.41963 0.80817 0.0
H1797 H 0.51198 0.42304 0.86656 0.0
H1798 H 0.49287 0.38144 0.91354 0.0
C1799 C 0.46338 0.40277 0.02101 0.0
C1800 C 0.4835 0.41991 0.94918 0.0
C1801 C 0.46006 0.40267 0.05804 0.0
C1802 C 0.51656 0.41138 0.81781 0.0
C1803 C 0.50953 0.41336 0.85107 0.0
C1804 C 0.48998 0.39226 0.92244 0.0
C1805 C 0.47632 0.40916 0.00875 0.0
C1806 C 0.48089 0.40764 0.9707 0.0
C1807 C 0.49984 0.40278 0.86447 0.0
C1808 C 0.49278 0.40451 0.90063 0.0
H1809 H 0.49032 0.41996 0.08966 0.0
H1810 H 0.49583 0.42059 0.02473 0.0
H1811 H 0.48223 0.38424 0.97346 0.0
H1812 H 0.50256 0.37828 0.79552 0.0
H1813 H 0.48966 0.38204 0.85218 0.0
C1814 C 0.85685 0.25307 0.06424 0.0
C1815 C 0.84681 0.26233 0.04727 0.0
C1816 C 0.85347 0.24645 0.09718 0.0
C1817 C 0.83519 0.25299 0.1797 0.0
H1818 H 0.83819 0.21157 0.19727 0.0
C1819 C 0.83139 0.23116 0.32469 0.0
C1820 C 0.84073 0.21973 0.33398 0.0
C1821 C 0.82918 0.23484 0.28841 0.0
C1822 C 0.83746 0.22317 0.19299 0.0
H1823 H 0.82535 0.27187 0.05099 0.0
H1824 H 0.81966 0.2607 0.10992 0.0
H1825 H 0.84003 0.22089 0.13537 0.0
H1826 H 0.85484 0.20291 0.3132 0.0
H1827 H 0.85179 0.20984 0.24975 0.0
H1828 H 0.83379 0.25562 0.23695 0.0
C1829 C 0.83 0.25839 0.09712 0.0
C1830 C 0.83836 0.22846 0.1575 0.0
C1831 C 0.83325 0.26475 0.0636 0.0
C1832 C 0.84752 0.21172 0.30648 0.0
C1833 C 0.84566 0.21567 0.27013 0.0
C1834 C 0.83463 0.24777 0.2152 0.0
C1835 C 0.84012 0.24923 0.1141 0.0
C1836 C 0.83739 0.24341 0.15072 0.0
C1837 C 0.83667 0.22748 0.26063 0.0
C1838 C 0.83595 0.2328 0.22245 0.0
H1839 H 0.86734 0.25093 0.05202 0.0
H1840 H 0.86147 0.23953 0.11004 0.0
H1841 H 0.83463 0.26459 0.17504 0.0
H1842 H 0.82588 0.23734 0.34558 0.0
H1843 H 0.82181 0.24366 0.2823 0.0
C1844 C 0.0404 0.5889 0.55652 0.0
C1845 C 0.02916 0.5904 0.58207 0.0
C1846 C 0.03716 0.58655 0.5199 0.0
C1847 C 0.00751 0.5757 0.45738 0.0
H1848 H 0.02524 0.60315 0.39108 0.0
C1849 C 0.98885 0.58318 0.3077 0.0
C1850 C 0.98597 0.59779 0.29913 0.0
C1851 C 0.99615 0.57962 0.33983 0.0
C1852 C 0.02031 0.59531 0.40921 0.0
H1853 H 0.00574 0.59013 0.58941 0.0
H1854 H 0.00018 0.58616 0.52585 0.0
H1855 H 0.03446 0.60109 0.45289 0.0
H1856 H 0.98847 0.62007 0.31757 0.0
H1857 H 0.0011 0.61383 0.37314 0.0
H1858 H 0.99283 0.57053 0.41414 0.0
C1859 C 0.01147 0.58664 0.53404 0.0
C1860 C 0.02567 0.59403 0.44446 0.0
C1861 C 0.01468 0.5891 0.57045 0.0
C1862 C 0.9905 0.6087 0.32326 0.0
C1863 C 0.99788 0.60516 0.35497 0.0
C1864 C 0.00219 0.57693 0.42202 0.0
C1865 C 0.02265 0.58551 0.50831 0.0
C1866 C 0.01895 0.58462 0.4693 0.0
C1867 C 0.00083 0.59061 0.36353 0.0
C1868 C 0.00819 0.58716 0.39812 0.0
H1869 H 0.05166 0.58981 0.56467 0.0
H1870 H 0.04599 0.5857 0.50059 0.0
H1871 H 0.00226 0.56822 0.4759 0.0
H1872 H 0.98548 0.57453 0.28965 0.0
H1873 H 0.99825 0.56831 0.34598 0.0
C1874 C 0.65419 0.7908 0.81166 0.0
C1875 C 0.65694 0.7814 0.84092 0.0
C1876 C 0.65407 0.78546 0.77611 0.0
C1877 C 0.64481 0.75331 0.72672 0.0
H1878 H 0.66879 0.76754 0.64792 0.0
C1879 C 0.6449 0.7248 0.58821 0.0
C1880 C 0.64622 0.73344 0.55705 0.0
C1881 C 0.64703 0.73082 0.62255 0.0
C1882 C 0.66183 0.76358 0.66944 0.0
H1883 H 0.66195 0.75913 0.85587 0.0
H1884 H 0.6614 0.74987 0.79401 0.0
H1885 H 0.67098 0.77842 0.70818 0.0
H1886 H 0.65073 0.75515 0.53719 0.0
H1887 H 0.6538 0.76582 0.59704 0.0
H1888 H 0.6352 0.73889 0.68835 0.0
C1889 C 0.65951 0.76134 0.7986 0.0
C1890 C 0.66317 0.76978 0.7039 0.0
C1891 C 0.6599 0.76669 0.83392 0.0
C1892 C 0.64975 0.7482 0.5608 0.0
C1893 C 0.65161 0.75429 0.59514 0.0
C1894 C 0.64326 0.74731 0.69222 0.0
C1895 C 0.6564 0.77063 0.76953 0.0
C1896 C 0.65476 0.76457 0.73278 0.0
C1897 C 0.65023 0.7457 0.6265 0.0
C1898 C 0.65184 0.75226 0.66316 0.0
H1899 H 0.65186 0.80218 0.81628 0.0
H1900 H 0.6516 0.79278 0.75393 0.0
H1901 H 0.6381 0.74926 0.74865 0.0
H1902 H 0.64234 0.71335 0.58601 0.0
H1903 H 0.64623 0.72377 0.64597 0.0
C1904 C 0.53984 0.41423 0.56025 0.0
C1905 C 0.53006 0.40749 0.58425 0.0
C1906 C 0.53578 0.41696 0.52419 0.0
C1907 C 0.50281 0.41962 0.46629 0.0
H1908 H 0.52846 0.40941 0.38683 0.0
C1909 C 0.48457 0.39749 0.32893 0.0
C1910 C 0.48796 0.40594 0.2984 0.0
C1911 C 0.49054 0.40081 0.36264 0.0
C1912 C 0.52132 0.41256 0.40882 0.0
H1913 H 0.50858 0.39787 0.58883 0.0
H1914 H 0.50173 0.40232 0.52661 0.0
H1915 H 0.53778 0.40937 0.4492 0.0
H1916 H 0.50029 0.42445 0.27897 0.0
H1917 H 0.51118 0.42999 0.33838 0.0
H1918 H 0.48612 0.42175 0.42613 0.0
C1919 C 0.51233 0.40596 0.53559 0.0
C1920 C 0.52662 0.41257 0.44443 0.0
C1921 C 0.51633 0.4033 0.57133 0.0
C1922 C 0.49747 0.41781 0.30218 0.0
C1923 C 0.50372 0.42094 0.33592 0.0
C1924 C 0.4975 0.41941 0.4309 0.0
C1925 C 0.52189 0.41298 0.51167 0.0
C1926 C 0.51725 0.41558 0.47364 0.0
C1927 C 0.50023 0.41247 0.3663 0.0
C1928 C 0.5066 0.41547 0.40212 0.0
H1929 H 0.55051 0.41756 0.56942 0.0
H1930 H 0.5434 0.42235 0.50631 0.0
H1931 H 0.49541 0.42234 0.48811 0.0
H1932 H 0.4772 0.38834 0.3268 0.0
H1933 H 0.48776 0.39415 0.38586 0.0
C1934 C 0.34049 0.76694 0.32988 0.0
C1935 C 0.34365 0.78151 0.33781 0.0
C1936 C 0.34095 0.76188 0.29432 0.0
C1937 C 0.35603 0.77091 0.20387 0.0
H1938 H 0.331 0.73919 0.17389 0.0
C1939 C 0.35161 0.74854 0.05713 0.0
C1940 C 0.35468 0.73363 0.05413 0.0
C1941 C 0.34986 0.75493 0.09114 0.0
C1942 C 0.33805 0.74803 0.18206 0.0
H1943 H 0.34942 0.80235 0.31464 0.0
H1944 H 0.34958 0.79368 0.25195 0.0
H1945 H 0.3277 0.75013 0.23357 0.0
H1946 H 0.35815 0.71368 0.08409 0.0
H1947 H 0.35458 0.72487 0.14387 0.0
H1948 H 0.366 0.76898 0.15149 0.0
C1949 C 0.34716 0.78604 0.27343 0.0
C1950 C 0.33625 0.75426 0.21625 0.0
C1951 C 0.34696 0.79105 0.30927 0.0
C1952 C 0.35583 0.7252 0.08573 0.0
C1953 C 0.35375 0.73155 0.11977 0.0
C1954 C 0.35762 0.76486 0.16936 0.0
C1955 C 0.34432 0.77133 0.26556 0.0
C1956 C 0.34539 0.76561 0.22791 0.0
C1957 C 0.35083 0.74647 0.12264 0.0
C1958 C 0.34879 0.75323 0.1585 0.0
H1959 H 0.33814 0.75925 0.35135 0.0
H1960 H 0.33907 0.75043 0.28962 0.0
H1961 H 0.36342 0.77946 0.212 0.0
H1962 H 0.35075 0.75531 0.03318 0.0
H1963 H 0.34757 0.76646 0.09286 0.0
C1964 C 0.96291 0.59032 0.05986 0.0
C1965 C 0.97199 0.59801 0.08377 0.0
C1966 C 0.96744 0.58747 0.02429 0.0
C1967 C 0.00106 0.58599 0.96905 0.0
H1968 H 0.9754 0.59158 0.88678 0.0
C1969 C 0.02011 0.60316 0.82851 0.0
C1970 C 0.01529 0.59515 0.79847 0.0
C1971 C 0.01457 0.60033 0.86291 0.0
C1972 C 0.98258 0.58971 0.9096 0.0
H1973 H 0.99254 0.60937 0.08877 0.0
H1974 H 0.00022 0.60479 0.02696 0.0
H1975 H 0.96562 0.59309 0.94847 0.0
H1976 H 0.001 0.57785 0.78055 0.0
H1977 H 0.99086 0.57322 0.8412 0.0
H1978 H 0.01816 0.58354 0.93019 0.0
C1979 C 0.98985 0.60048 0.03579 0.0
C1980 C 0.97701 0.59057 0.94484 0.0
C1981 C 0.9854 0.60322 0.07117 0.0
C1982 C 0.00491 0.58412 0.80342 0.0
C1983 C 0.9991 0.58151 0.83788 0.0
C1984 C 0.00663 0.58532 0.93397 0.0
C1985 C 0.98109 0.59234 0.01214 0.0
C1986 C 0.98632 0.58922 0.97491 0.0
C1987 C 0.00391 0.58962 0.8678 0.0
C1988 C 0.99752 0.5876 0.90406 0.0
H1989 H 0.95252 0.58615 0.0689 0.0
H1990 H 0.96045 0.58119 0.00664 0.0
H1991 H 0.00843 0.5845 0.99166 0.0
H1992 H 0.02816 0.61166 0.82538 0.0
H1993 H 0.01833 0.60679 0.88563 0.0
C1994 C 0.16553 0.22878 0.8289 0.0
C1995 C 0.1558 0.2179 0.83998 0.0
C1996 C 0.16572 0.23353 0.79298 0.0
C1997 C 0.15313 0.22497 0.69985 0.0
H1998 H 0.15433 0.26684 0.68867 0.0
C1999 C 0.15385 0.2532 0.55956 0.0
C2000 C 0.14507 0.2656 0.55582 0.0
C2001 C 0.156 0.24688 0.5936 0.0
C2002 C 0.1539 0.25513 0.69134 0.0
H2003 H 0.13904 0.20303 0.82173 0.0
H2004 H 0.1392 0.21151 0.75904 0.0
H2005 H 0.15682 0.25623 0.74873 0.0
H2006 H 0.13164 0.28108 0.58496 0.0
H2007 H 0.13523 0.26996 0.64413 0.0
H2008 H 0.14971 0.22396 0.64243 0.0
C2009 C 0.14682 0.21623 0.77805 0.0
C2010 C 0.15554 0.24903 0.72571 0.0
C2011 C 0.1467 0.21141 0.814 0.0
C2012 C 0.13849 0.27155 0.58685 0.0
C2013 C 0.14062 0.26523 0.62083 0.0
C2014 C 0.15148 0.23109 0.66539 0.0
C2015 C 0.1561 0.22759 0.76737 0.0
C2016 C 0.15509 0.23389 0.73041 0.0
C2017 C 0.14942 0.25285 0.6246 0.0
C2018 C 0.15172 0.24625 0.66084 0.0
H2019 H 0.1728 0.2339 0.84816 0.0
H2020 H 0.17321 0.24208 0.78542 0.0
H2021 H 0.15285 0.21326 0.70257 0.0
H2022 H 0.15913 0.24838 0.53622 0.0
H2023 H 0.16297 0.23745 0.5957 0.0
C2024 C 0.51522 0.59863 0.92141 0.0
C2025 C 0.52888 0.59392 0.90921 0.0
C2026 C 0.51081 0.59603 0.95689 0.0
C2027 C 0.5237 0.58803 0.04878 0.0
H2028 H 0.48288 0.57913 0.06291 0.0
C2029 C 0.49515 0.58354 0.19014 0.0
C2030 C 0.48417 0.59409 0.19291 0.0
C2031 C 0.50135 0.58035 0.15636 0.0
C2032 C 0.49433 0.58143 0.05933 0.0
H2033 H 0.54883 0.58311 0.92507 0.0
H2034 H 0.54099 0.57846 0.98766 0.0
H2035 H 0.49293 0.57944 0.00173 0.0
H2036 H 0.4706 0.60909 0.16284 0.0
H2037 H 0.48107 0.60317 0.10387 0.0
H2038 H 0.52487 0.59029 0.10671 0.0
C2039 C 0.53375 0.5842 0.96948 0.0
C2040 C 0.50008 0.58172 0.02439 0.0
C2041 C 0.53824 0.58687 0.93372 0.0
C2042 C 0.4791 0.60097 0.1614 0.0
C2043 C 0.48503 0.59754 0.12772 0.0
C2044 C 0.51795 0.58757 0.08393 0.0
C2045 C 0.51987 0.58855 0.98118 0.0
C2046 C 0.51466 0.58565 0.01859 0.0
C2047 C 0.49632 0.58737 0.12495 0.0
C2048 C 0.5031 0.58481 0.08925 0.0
H2049 H 0.50783 0.6043 0.90344 0.0
H2050 H 0.50024 0.59994 0.96531 0.0
H2051 H 0.53496 0.5911 0.04519 0.0
H2052 H 0.49927 0.57816 0.21417 0.0
H2053 H 0.51007 0.57248 0.15473 0.0
C2054 C 0.15954 0.78853 0.68138 0.0
C2055 C 0.15442 0.77823 0.65625 0.0
C2056 C 0.15949 0.78538 0.71855 0.0
C2057 C 0.14039 0.76302 0.78432 0.0
H2058 H 0.17548 0.76323 0.84262 0.0
C2059 C 0.14499 0.72826 0.91057 0.0
C2060 C 0.15081 0.7345 0.94214 0.0
C2061 C 0.14595 0.73548 0.87752 0.0
C2062 C 0.16556 0.76336 0.82682 0.0
H2063 H 0.14529 0.75659 0.6503 0.0
H2064 H 0.1451 0.75126 0.71469 0.0
H2065 H 0.17596 0.77329 0.78094 0.0
H2066 H 0.1628 0.75293 0.96352 0.0
H2067 H 0.16444 0.76559 0.90531 0.0
H2068 H 0.13001 0.75284 0.82941 0.0
C2069 C 0.14914 0.76172 0.70577 0.0
C2070 C 0.16584 0.76912 0.7917 0.0
C2071 C 0.14935 0.76476 0.66887 0.0
C2072 C 0.15815 0.74787 0.93966 0.0
C2073 C 0.15912 0.75511 0.90641 0.0
C2074 C 0.14009 0.75735 0.81926 0.0
C2075 C 0.15408 0.77201 0.73092 0.0
C2076 C 0.15336 0.76852 0.76986 0.0
C2077 C 0.15273 0.74911 0.87525 0.0
C2078 C 0.15278 0.75698 0.84035 0.0
H2079 H 0.16353 0.79899 0.67238 0.0
H2080 H 0.16337 0.79344 0.73763 0.0
H2081 H 0.13058 0.76267 0.76808 0.0
H2082 H 0.13944 0.71789 0.91143 0.0
H2083 H 0.14125 0.73043 0.85369 0.0
C2084 C 0.97946 0.4256 0.41176 0.0
C2085 C 0.9673 0.41664 0.40609 0.0
C2086 C 0.98489 0.4278 0.44664 0.0
C2087 C 0.00043 0.41879 0.51522 0.0
H2088 H 0.97725 0.42223 0.60266 0.0
C2089 C 0.01914 0.39766 0.65341 0.0
C2090 C 0.01653 0.40619 0.6843 0.0
C2091 C 0.01366 0.40181 0.61974 0.0
C2092 C 0.98388 0.42149 0.57845 0.0
H2093 H 0.95077 0.4037 0.43287 0.0
H2094 H 0.96036 0.40745 0.49381 0.0
H2095 H 0.96569 0.42511 0.54327 0.0
H2096 H 0.00639 0.42595 0.70405 0.0
H2097 H 0.99659 0.4331 0.64492 0.0
H2098 H 0.01852 0.41474 0.55023 0.0
C2099 C 0.96562 0.41285 0.47124 0.0
C2100 C 0.97725 0.42301 0.54454 0.0
C2101 C 0.96017 0.41064 0.43629 0.0
C2102 C 0.00856 0.41915 0.6807 0.0
C2103 C 0.00291 0.42321 0.64699 0.0
C2104 C 0.00702 0.41718 0.54902 0.0
C2105 C 0.97828 0.4211 0.47661 0.0
C2106 C 0.98543 0.42139 0.51259 0.0
C2107 C 0.00535 0.41452 0.61628 0.0
C2108 C 0.99874 0.41818 0.5809 0.0
H2109 H 0.98513 0.43052 0.38913 0.0
H2110 H 0.99455 0.43439 0.45007 0.0
H2111 H 0.007 0.41733 0.4911 0.0
H2112 H 0.02532 0.38767 0.65529 0.0
H2113 H 0.01557 0.39483 0.59656 0.0
C2114 C 0.3457 0.21167 0.18722 0.0
C2115 C 0.3376 0.21788 0.15895 0.0
C2116 C 0.34313 0.21567 0.22316 0.0
C2117 C 0.32784 0.246 0.27649 0.0
H2118 H 0.33718 0.22031 0.35654 0.0
C2119 C 0.33024 0.2638 0.42844 0.0
C2120 C 0.34444 0.26205 0.4417 0.0
C2121 C 0.32613 0.25732 0.3956 0.0
C2122 C 0.33435 0.22753 0.33442 0.0
H2123 H 0.31988 0.23256 0.14627 0.0
H2124 H 0.31504 0.23918 0.20917 0.0
H2125 H 0.33523 0.21045 0.29525 0.0
H2126 H 0.3653 0.2518 0.43201 0.0
H2127 H 0.35799 0.24021 0.37542 0.0
H2128 H 0.32711 0.26306 0.31605 0.0
C2129 C 0.32369 0.23154 0.20353 0.0
C2130 C 0.33337 0.22195 0.2993 0.0
C2131 C 0.32642 0.22769 0.16748 0.0
C2132 C 0.35432 0.25342 0.42226 0.0
C2133 C 0.35012 0.24669 0.39009 0.0
C2134 C 0.32857 0.25151 0.31176 0.0
C2135 C 0.33224 0.22582 0.23179 0.0
C2136 C 0.33068 0.23121 0.26967 0.0
C2137 C 0.33606 0.2487 0.37632 0.0
C2138 C 0.33233 0.24241 0.34073 0.0
H2139 H 0.35446 0.20415 0.18151 0.0
H2140 H 0.35014 0.21122 0.24396 0.0
H2141 H 0.3259 0.25352 0.25444 0.0
H2142 H 0.32245 0.27043 0.44297 0.0
H2143 H 0.31525 0.25904 0.38524 0.0
C2144 C 0.12392 0.24069 0.39711 0.0
C2145 C 0.11831 0.24995 0.42402 0.0
C2146 C 0.11631 0.22828 0.38653 0.0
C2147 C 0.08804 0.20271 0.41776 0.0
H2148 H 0.08676 0.19183 0.3162 0.0
C2149 C 0.05729 0.15986 0.31522 0.0
C2150 C 0.05903 0.14675 0.33431 0.0
C2151 C 0.06379 0.17261 0.32759 0.0
C2152 C 0.0869 0.19477 0.34465 0.0
H2153 H 0.10011 0.25352 0.4604 0.0
H2154 H 0.08676 0.23194 0.44157 0.0
H2155 H 0.09929 0.21395 0.33416 0.0
H2156 H 0.06855 0.13691 0.38221 0.0
H2157 H 0.08007 0.15923 0.40368 0.0
H2158 H 0.07543 0.18359 0.42809 0.0
C2159 C 0.09717 0.23417 0.42911 0.0
C2160 C 0.09424 0.20737 0.35499 0.0
C2161 C 0.10478 0.2466 0.43968 0.0
C2162 C 0.06701 0.14681 0.36685 0.0
C2163 C 0.07357 0.15962 0.37921 0.0
C2164 C 0.08069 0.19007 0.4074 0.0
C2165 C 0.10288 0.22482 0.40256 0.0
C2166 C 0.09492 0.21149 0.39165 0.0
C2167 C 0.07224 0.17259 0.35933 0.0
C2168 C 0.08001 0.18598 0.3707 0.0
H2169 H 0.13431 0.24293 0.38447 0.0
H2170 H 0.12108 0.22122 0.36627 0.0
H2171 H 0.0885 0.2055 0.44629 0.0
H2172 H 0.05106 0.16026 0.29031 0.0
H2173 H 0.06227 0.18248 0.31208 0.0
C2174 C 0.09132 0.80207 0.58616 0.0
C2175 C 0.10506 0.80763 0.59517 0.0
C2176 C 0.07879 0.80781 0.60187 0.0
C2177 C 0.06551 0.83237 0.67551 0.0
H2178 H 0.03228 0.83613 0.61143 0.0
C2179 C 0.01761 0.87182 0.69969 0.0
C2180 C 0.00351 0.8663 0.69465 0.0
C2181 C 0.02974 0.86344 0.6909 0.0
C2182 C 0.04141 0.83499 0.62977 0.0
H2183 H 0.11653 0.82327 0.62841 0.0
H2184 H 0.09461 0.83376 0.65485 0.0
H2185 H 0.05405 0.8239 0.59 0.0
H2186 H 0.99108 0.84763 0.67667 0.0
H2187 H 0.01238 0.83308 0.66049 0.0
H2188 H 0.05291 0.84416 0.71463 0.0
C2189 C 0.09348 0.8247 0.63634 0.0
C2190 C 0.0539 0.82792 0.6176 0.0
C2191 C 0.10607 0.81875 0.62108 0.0
C2192 C 0.0018 0.85216 0.68092 0.0
C2193 C 0.01397 0.84387 0.67156 0.0
C2194 C 0.05307 0.83965 0.68748 0.0
C2195 C 0.07965 0.81946 0.62646 0.0
C2196 C 0.06616 0.82654 0.64023 0.0
C2197 C 0.02804 0.84946 0.67636 0.0
C2198 C 0.04093 0.84107 0.66464 0.0
H2199 H 0.09025 0.79333 0.56666 0.0
H2200 H 0.06841 0.80318 0.59435 0.0
H2201 H 0.0746 0.83132 0.69395 0.0
H2202 H 0.01928 0.88266 0.71036 0.0
H2203 H 0.04047 0.86806 0.69455 0.0
C2204 C 0.37237 0.76423 0.90892 0.0
C2205 C 0.37985 0.75274 0.92564 0.0
C2206 C 0.37957 0.77712 0.90035 0.0
C2207 C 0.41316 0.79799 0.92168 0.0
H2208 H 0.402 0.81964 0.83586 0.0
C2209 C 0.44549 0.84632 0.85958 0.0
C2210 C 0.43719 0.85854 0.84991 0.0
C2211 C 0.43869 0.83364 0.87173 0.0
C2212 C 0.40514 0.81374 0.86006 0.0
H2213 H 0.40083 0.74557 0.94541 0.0
H2214 H 0.41355 0.76783 0.92915 0.0
H2215 H 0.39006 0.79668 0.84929 0.0
H2216 H 0.41529 0.8672 0.84662 0.0
H2217 H 0.40348 0.84499 0.86728 0.0
H2218 H 0.42863 0.81498 0.93148 0.0
C2219 C 0.40201 0.76711 0.92376 0.0
C2220 C 0.39827 0.80061 0.86789 0.0
C2221 C 0.39475 0.75429 0.93285 0.0
C2222 C 0.42201 0.858 0.85391 0.0
C2223 C 0.41523 0.84527 0.86549 0.0
C2224 C 0.4202 0.81104 0.91348 0.0
C2225 C 0.39449 0.77876 0.90771 0.0
C2226 C 0.4021 0.79259 0.89895 0.0
C2227 C 0.42348 0.83291 0.87386 0.0
C2228 C 0.41616 0.81907 0.88276 0.0
H2229 H 0.36085 0.76341 0.90325 0.0
H2230 H 0.37333 0.78591 0.88862 0.0
H2231 H 0.41625 0.79227 0.94615 0.0
H2232 H 0.45721 0.84644 0.85687 0.0
H2233 H 0.44528 0.82422 0.87799 0.0
C2234 C 0.39228 0.1753 0.11728 0.0
C2235 C 0.39306 0.18999 0.1071 0.0
C2236 C 0.40457 0.16809 0.13028 0.0
C2237 C 0.44166 0.17338 0.167 0.0
H2238 H 0.44899 0.13607 0.12178 0.0
C2239 C 0.49713 0.14394 0.17766 0.0
C2240 C 0.49679 0.1288 0.18248 0.0
C2241 C 0.48436 0.15162 0.17007 0.0
C2242 C 0.44704 0.14638 0.13506 0.0
H2243 H 0.40719 0.20886 0.10484 0.0
H2244 H 0.42861 0.19625 0.12743 0.0
H2245 H 0.4266 0.149 0.10833 0.0
H2246 H 0.48272 0.10987 0.18313 0.0
H2247 H 0.46056 0.12322 0.17046 0.0
H2248 H 0.46217 0.17073 0.19367 0.0
C2249 C 0.41849 0.19031 0.12534 0.0
C2250 C 0.43418 0.15378 0.12738 0.0
C2251 C 0.40621 0.19751 0.11222 0.0
C2252 C 0.48342 0.12152 0.17942 0.0
C2253 C 0.47069 0.12917 0.17196 0.0
C2254 C 0.45453 0.16593 0.1748 0.0
C2255 C 0.41791 0.17542 0.13357 0.0
C2256 C 0.43134 0.16737 0.14321 0.0
C2257 C 0.47099 0.14431 0.16715 0.0
C2258 C 0.45737 0.15234 0.15888 0.0
H2259 H 0.38231 0.1692 0.11391 0.0
H2260 H 0.40372 0.15667 0.13703 0.0
H2261 H 0.43972 0.18378 0.17982 0.0
H2262 H 0.50725 0.14989 0.17972 0.0
H2263 H 0.485 0.16325 0.16604 0.0
C2264 C 0.1133 0.75807 0.04517 0.0
C2265 C 0.12424 0.75261 0.06802 0.0
C2266 C 0.10612 0.77095 0.05356 0.0
C2267 C 0.10876 0.80422 0.10989 0.0
H2268 H 0.0677 0.80693 0.0874 0.0
C2269 C 0.05648 0.843 0.14515 0.0
C2270 C 0.06308 0.85676 0.14319 0.0
C2271 C 0.06391 0.83061 0.13378 0.0
C2272 C 0.07913 0.80636 0.09413 0.0
H2273 H 0.13616 0.75641 0.11786 0.0
H2274 H 0.12327 0.77882 0.1332 0.0
H2275 H 0.08065 0.78454 0.07496 0.0
H2276 H 0.08242 0.86831 0.12591 0.0
H2277 H 0.09523 0.84668 0.105 0.0
H2278 H 0.10704 0.82587 0.13053 0.0
C2279 C 0.12048 0.77324 0.10829 0.0
C2280 C 0.08663 0.79354 0.08654 0.0
C2281 C 0.12781 0.76036 0.09965 0.0
C2282 C 0.07704 0.85788 0.12797 0.0
C2283 C 0.08445 0.84545 0.11633 0.0
C2284 C 0.10121 0.81702 0.11779 0.0
C2285 C 0.10952 0.77868 0.08532 0.0
C2286 C 0.10155 0.7923 0.09422 0.0
C2287 C 0.07808 0.83163 0.11977 0.0
C2288 C 0.08629 0.81824 0.11004 0.0
H2289 H 0.11037 0.75249 0.02035 0.0
H2290 H 0.098 0.77494 0.03479 0.0
H2291 H 0.12027 0.80373 0.11579 0.0
H2292 H 0.04576 0.84169 0.15679 0.0
H2293 H 0.05871 0.82016 0.13728 0.0
C2294 C 0.48314 0.87588 0.30606 0.0
C2295 C 0.49682 0.8691 0.30571 0.0
C2296 C 0.47076 0.86821 0.31644 0.0
C2297 C 0.45601 0.83122 0.32941 0.0
H2298 H 0.42804 0.85146 0.38971 0.0
C2299 C 0.40768 0.80306 0.40231 0.0
C2300 C 0.39438 0.81058 0.40283 0.0
C2301 C 0.42016 0.8096 0.38815 0.0
C2302 C 0.43566 0.84571 0.37252 0.0
H2303 H 0.50819 0.84887 0.31575 0.0
H2304 H 0.48652 0.83549 0.33451 0.0
H2305 H 0.45001 0.8639 0.37035 0.0
H2306 H 0.38366 0.83065 0.38741 0.0
H2307 H 0.4054 0.842 0.36268 0.0
H2308 H 0.44161 0.81293 0.33214 0.0
C2309 C 0.48538 0.84671 0.3262 0.0
C2310 C 0.44826 0.85284 0.3614 0.0
C2311 C 0.4978 0.85439 0.31561 0.0
C2312 C 0.39373 0.82458 0.3877 0.0
C2313 C 0.40621 0.83112 0.37371 0.0
C2314 C 0.44339 0.82404 0.34071 0.0
C2315 C 0.47173 0.85359 0.32703 0.0
C2316 C 0.45854 0.84573 0.33949 0.0
C2317 C 0.41961 0.82381 0.37435 0.0
C2318 C 0.43304 0.83127 0.36217 0.0
H2319 H 0.48194 0.88717 0.29833 0.0
H2320 H 0.46039 0.87377 0.31605 0.0
H2321 H 0.46364 0.82548 0.31225 0.0
H2322 H 0.40855 0.79223 0.4136 0.0
H2323 H 0.43034 0.80372 0.38916 0.0
C2324 C 0.39832 0.24653 0.54999 0.0
C2325 C 0.38314 0.24662 0.55426 0.0
C2326 C 0.40647 0.23448 0.56098 0.0
C2327 C 0.4054 0.20427 0.62488 0.0
H2328 H 0.43415 0.18598 0.56295 0.0
C2329 C 0.44263 0.15931 0.67801 0.0
C2330 C 0.44317 0.14656 0.65704 0.0
C2331 C 0.43659 0.17199 0.66395 0.0
C2332 C 0.42614 0.191 0.58044 0.0
H2333 H 0.36463 0.23418 0.57344 0.0
H2334 H 0.37886 0.21332 0.59284 0.0
H2335 H 0.42086 0.20738 0.54115 0.0
H2336 H 0.4384 0.13736 0.60414 0.0
H2337 H 0.4278 0.15966 0.57952 0.0
H2338 H 0.41051 0.18794 0.66406 0.0
C2339 C 0.38444 0.22253 0.58096 0.0
C2340 C 0.41865 0.20327 0.56812 0.0
C2341 C 0.3763 0.23445 0.56965 0.0
C2342 C 0.43806 0.14697 0.62108 0.0
C2343 C 0.43207 0.15974 0.6069 0.0
C2344 C 0.41298 0.19215 0.63731 0.0
C2345 C 0.39959 0.22244 0.57689 0.0
C2346 C 0.4081 0.2099 0.59015 0.0
C2347 C 0.43102 0.17227 0.62851 0.0
C2348 C 0.42336 0.18535 0.61517 0.0
H2349 H 0.40389 0.25576 0.53821 0.0
H2350 H 0.41816 0.23469 0.55777 0.0
H2351 H 0.3974 0.20925 0.6425 0.0
H2352 H 0.44659 0.15946 0.70569 0.0
H2353 H 0.43609 0.18156 0.68101 0.0
C2354 C 0.10448 0.17655 0.89135 0.0
C2355 C 0.10415 0.19079 0.90504 0.0
C2356 C 0.09199 0.17026 0.87665 0.0
C2357 C 0.0521 0.17327 0.87993 0.0
H2358 H 0.05389 0.1467 0.79843 0.0
C2359 C 0.00097 0.14576 0.81917 0.0
C2360 C 0.00226 0.13082 0.8119 0.0
C2361 C 0.01323 0.15399 0.82817 0.0
C2362 C 0.05324 0.15404 0.82133 0.0
H2363 H 0.09056 0.20981 0.91257 0.0
H2364 H 0.06883 0.19889 0.88644 0.0
H2365 H 0.07573 0.15965 0.8173 0.0
H2366 H 0.01745 0.11283 0.8085 0.0
H2367 H 0.03872 0.12716 0.82426 0.0
H2368 H 0.02961 0.16754 0.8841 0.0
C2369 C 0.07868 0.19249 0.88777 0.0
C2370 C 0.06575 0.16145 0.83217 0.0
C2371 C 0.09116 0.19877 0.90257 0.0
C2372 C 0.01606 0.12432 0.81381 0.0
C2373 C 0.02829 0.13255 0.8226 0.0
C2374 C 0.03957 0.1659 0.869 0.0
C2375 C 0.07888 0.17808 0.87514 0.0
C2376 C 0.06537 0.171 0.86191 0.0
C2377 C 0.02702 0.14747 0.82988 0.0
C2378 C 0.04006 0.15605 0.83991 0.0
H2379 H 0.11429 0.17008 0.89285 0.0
H2380 H 0.0925 0.15909 0.86757 0.0
H2381 H 0.05146 0.18038 0.90327 0.0
H2382 H 0.9905 0.1511 0.81798 0.0
H2383 H 0.01194 0.16549 0.83344 0.0
C2384 C 0.93215 0.85508 0.62829 0.0
C2385 C 0.94062 0.8543 0.65998 0.0
C2386 C 0.92502 0.84272 0.61516 0.0
C2387 C 0.92499 0.80266 0.6199 0.0
H2388 H 0.88431 0.80618 0.59393 0.0
C2389 C 0.89234 0.75539 0.55738 0.0
C2390 C 0.87821 0.75309 0.57067 0.0
C2391 C 0.90017 0.76775 0.56727 0.0
C2392 C 0.89565 0.80503 0.60126 0.0
H2393 H 0.94869 0.83983 0.70189 0.0
H2394 H 0.93633 0.81838 0.67895 0.0
H2395 H 0.89798 0.82779 0.61174 0.0
H2396 H 0.86128 0.76195 0.60516 0.0
H2397 H 0.87502 0.78356 0.62251 0.0
H2398 H 0.92262 0.77988 0.61005 0.0
C2399 C 0.93518 0.8285 0.66423 0.0
C2400 C 0.90351 0.81742 0.61102 0.0
C2401 C 0.9422 0.84083 0.67749 0.0
C2402 C 0.87213 0.7634 0.59437 0.0
C2403 C 0.87995 0.77582 0.60411 0.0
C2404 C 0.91716 0.7903 0.60995 0.0
C2405 C 0.92636 0.82934 0.63323 0.0
C2406 C 0.91824 0.81635 0.62071 0.0
C2407 C 0.89405 0.77814 0.59059 0.0
C2408 C 0.90238 0.79133 0.60075 0.0
H2409 H 0.93072 0.86529 0.61415 0.0
H2410 H 0.9184 0.84365 0.59095 0.0
H2411 H 0.93635 0.80151 0.62699 0.0
H2412 H 0.89738 0.74767 0.53911 0.0
H2413 H 0.91095 0.76929 0.55614 0.0
C2414 C 0.90847 0.19633 0.40337 0.0
C2415 C 0.89447 0.19163 0.39363 0.0
C2416 C 0.92075 0.19012 0.38745 0.0
C2417 C 0.93304 0.15609 0.34942 0.0
H2418 H 0.966 0.17812 0.31386 0.0
C2419 C 0.98296 0.12695 0.29134 0.0
C2420 C 0.99674 0.13275 0.29888 0.0
C2421 C 0.97042 0.13485 0.29908 0.0
C2422 C 0.95698 0.17179 0.32411 0.0
H2423 H 0.88236 0.17703 0.35874 0.0
H2424 H 0.90391 0.16594 0.33143 0.0
H2425 H 0.94412 0.19084 0.33386 0.0
H2426 H 0.00824 0.15144 0.32006 0.0
H2427 H 0.98628 0.16507 0.33508 0.0
H2428 H 0.94591 0.13711 0.34153 0.0
C2429 C 0.90531 0.17449 0.35131 0.0
C2430 C 0.94442 0.17909 0.33531 0.0
C2431 C 0.893 0.18088 0.36681 0.0
C2432 C 0.99774 0.14674 0.31381 0.0
C2433 C 0.98514 0.15457 0.32221 0.0
C2434 C 0.94563 0.14881 0.3388 0.0
C2435 C 0.9193 0.17893 0.36185 0.0
C2436 C 0.93234 0.1713 0.34808 0.0
C2437 C 0.97129 0.14865 0.31529 0.0
C2438 C 0.9578 0.15654 0.32598 0.0
H2439 H 0.90995 0.20467 0.42379 0.0
H2440 H 0.93141 0.19368 0.39621 0.0
H2441 H 0.92397 0.14983 0.35978 0.0
H2442 H 0.98185 0.11627 0.27934 0.0
H2443 H 0.96001 0.13007 0.29238 0.0
C2444 C 0.62715 0.23673 0.09312 0.0
C2445 C 0.62187 0.24584 0.06549 0.0
C2446 C 0.61973 0.22401 0.10241 0.0
C2447 C 0.59283 0.19757 0.06771 0.0
H2448 H 0.58821 0.18795 0.16946 0.0
C2449 C 0.56917 0.14265 0.12015 0.0
C2450 C 0.56002 0.14347 0.15065 0.0
C2451 C 0.5764 0.15507 0.10753 0.0
C2452 C 0.58932 0.19052 0.14091 0.0
H2453 H 0.60455 0.24873 0.02614 0.0
H2454 H 0.59158 0.22663 0.04259 0.0
H2455 H 0.60149 0.20976 0.1524 0.0
H2456 H 0.55061 0.15815 0.19031 0.0
H2457 H 0.56303 0.17964 0.16817 0.0
H2458 H 0.58042 0.17837 0.05638 0.0
C2459 C 0.60157 0.22922 0.05673 0.0
C2460 C 0.59709 0.20294 0.13113 0.0
C2461 C 0.60896 0.24196 0.04751 0.0
C2462 C 0.55774 0.15706 0.16709 0.0
C2463 C 0.56493 0.1694 0.15453 0.0
C2464 C 0.58509 0.18508 0.07752 0.0
C2465 C 0.60687 0.22009 0.08426 0.0
C2466 C 0.59887 0.20666 0.09444 0.0
C2467 C 0.57461 0.1685 0.12519 0.0
C2468 C 0.58314 0.18149 0.11427 0.0
H2469 H 0.63706 0.23937 0.10753 0.0
H2470 H 0.62417 0.21715 0.12354 0.0
H2471 H 0.59414 0.20006 0.03918 0.0
H2472 H 0.57116 0.13235 0.10685 0.0
H2473 H 0.58381 0.15404 0.08485 0.0
C2474 C 0.51254 0.88203 0.84214 0.0
C2475 C 0.50081 0.87445 0.82677 0.0
C2476 C 0.52544 0.87477 0.85074 0.0
C2477 C 0.54546 0.84057 0.83003 0.0
H2478 H 0.56873 0.85195 0.91298 0.0
C2479 C 0.5928 0.80643 0.88935 0.0
C2480 C 0.60554 0.81401 0.89849 0.0
C2481 C 0.58041 0.81394 0.87797 0.0
C2482 C 0.56239 0.84876 0.88952 0.0
H2483 H 0.49313 0.85323 0.81 0.0
H2484 H 0.51532 0.84049 0.8263 0.0
H2485 H 0.54601 0.86461 0.90051 0.0
H2486 H 0.61538 0.8354 0.90185 0.0
H2487 H 0.59367 0.84847 0.8824 0.0
H2488 H 0.56171 0.82439 0.81993 0.0
C2489 C 0.51485 0.85212 0.83048 0.0
C2490 C 0.54938 0.85603 0.88228 0.0
C2491 C 0.50206 0.8594 0.82141 0.0
C2492 C 0.60577 0.82922 0.89486 0.0
C2493 C 0.59332 0.83673 0.88403 0.0
C2494 C 0.55836 0.83317 0.83761 0.0
C2495 C 0.52682 0.85973 0.84465 0.0
C2496 C 0.54072 0.85203 0.85244 0.0
C2497 C 0.58046 0.82918 0.87605 0.0
C2498 C 0.56695 0.83721 0.86739 0.0
H2499 H 0.51193 0.89366 0.8464 0.0
H2500 H 0.53445 0.88106 0.8612 0.0
H2501 H 0.53928 0.83737 0.80634 0.0
H2502 H 0.5923 0.79472 0.89184 0.0
H2503 H 0.57061 0.80786 0.87207 0.0
C2504 C 0.94501 0.15635 0.83701 0.0
C2505 C 0.94028 0.14246 0.84756 0.0
C2506 C 0.93875 0.16877 0.85199 0.0
C2507 C 0.90457 0.18146 0.88763 0.0
H2508 H 0.92644 0.21486 0.92114 0.0
C2509 C 0.87551 0.2324 0.94073 0.0
C2510 C 0.88156 0.24603 0.93275 0.0
C2511 C 0.88321 0.21968 0.93354 0.0
C2512 C 0.92017 0.20571 0.91142 0.0
H2513 H 0.9256 0.13067 0.88287 0.0
H2514 H 0.91438 0.15251 0.90857 0.0
H2515 H 0.93923 0.19265 0.90403 0.0
H2516 H 0.90041 0.25706 0.91091 0.0
H2517 H 0.91368 0.2348 0.89682 0.0
H2518 H 0.88557 0.19453 0.89318 0.0
C2519 C 0.92301 0.15369 0.88883 0.0
C2520 C 0.9275 0.19297 0.90193 0.0
C2521 C 0.92947 0.14123 0.87428 0.0
C2522 C 0.89551 0.24669 0.91746 0.0
C2523 C 0.90314 0.23392 0.90966 0.0
C2524 C 0.89725 0.19424 0.89655 0.0
C2525 C 0.92747 0.16756 0.87742 0.0
C2526 C 0.91976 0.18075 0.88989 0.0
C2527 C 0.89706 0.22023 0.91753 0.0
C2528 C 0.90494 0.20656 0.90853 0.0
H2529 H 0.95341 0.15761 0.81665 0.0
H2530 H 0.94232 0.17933 0.84258 0.0
H2531 H 0.89837 0.17227 0.87778 0.0
H2532 H 0.86486 0.23153 0.95304 0.0
H2533 H 0.87829 0.20941 0.94084 0.0
C2534 C 0.59444 0.19729 0.6047 0.0
C2535 C 0.60769 0.18973 0.60242 0.0
C2536 C 0.58214 0.19061 0.61937 0.0
C2537 C 0.56686 0.15432 0.63072 0.0
H2538 H 0.53864 0.17328 0.69279 0.0
C2539 C 0.51812 0.12326 0.6887 0.0
C2540 C 0.50462 0.13038 0.68942 0.0
C2541 C 0.53079 0.1309 0.68056 0.0
C2542 C 0.54635 0.1679 0.67514 0.0
H2543 H 0.6186 0.16953 0.61588 0.0
H2544 H 0.59716 0.15794 0.64151 0.0
H2545 H 0.56087 0.18612 0.67568 0.0
H2546 H 0.49384 0.15112 0.68221 0.0
H2547 H 0.51599 0.16443 0.66721 0.0
H2548 H 0.55235 0.13625 0.62938 0.0
C2549 C 0.59625 0.16895 0.6314 0.0
C2550 C 0.55908 0.17523 0.66548 0.0
C2551 C 0.60855 0.17563 0.61689 0.0
C2552 C 0.50408 0.14534 0.68199 0.0
C2553 C 0.51678 0.15298 0.67361 0.0
C2554 C 0.55414 0.14704 0.64018 0.0
C2555 C 0.58284 0.17623 0.63195 0.0
C2556 C 0.56948 0.16848 0.64326 0.0
C2557 C 0.53027 0.14581 0.67262 0.0
C2558 C 0.54374 0.15371 0.66258 0.0
H2559 H 0.59342 0.2082 0.594 0.0
H2560 H 0.57194 0.19647 0.61934 0.0
H2561 H 0.57453 0.14895 0.6129 0.0
H2562 H 0.51896 0.11177 0.69457 0.0
H2563 H 0.54102 0.12509 0.68068 0.0
C2564 C 0.60629 0.75684 0.44713 0.0
C2565 C 0.61936 0.75304 0.42976 0.0
C2566 C 0.59891 0.76953 0.43753 0.0
C2567 C 0.59005 0.8011 0.42576 0.0
H2568 H 0.5867 0.81068 0.32367 0.0
C2569 C 0.56754 0.85611 0.37159 0.0
C2570 C 0.55892 0.85542 0.34014 0.0
C2571 C 0.57441 0.8436 0.38482 0.0
C2572 C 0.58744 0.80811 0.3523 0.0
H2573 H 0.63487 0.75962 0.38855 0.0
H2574 H 0.62202 0.78177 0.37199 0.0
H2575 H 0.59968 0.78886 0.34176 0.0
H2576 H 0.54998 0.84092 0.29937 0.0
H2577 H 0.56174 0.81925 0.32263 0.0
H2578 H 0.57755 0.82031 0.4361 0.0
C2579 C 0.61743 0.77487 0.39284 0.0
C2580 C 0.59504 0.79569 0.36268 0.0
C2581 C 0.62483 0.7622 0.40246 0.0
C2582 C 0.55674 0.84189 0.32331 0.0
C2583 C 0.56354 0.82946 0.33653 0.0
C2584 C 0.58245 0.81358 0.41534 0.0
C2585 C 0.60439 0.77868 0.41026 0.0
C2586 C 0.59641 0.79201 0.3995 0.0
C2587 C 0.57274 0.83022 0.36687 0.0
C2588 C 0.58098 0.81716 0.37846 0.0
H2589 H 0.60175 0.75002 0.46822 0.0
H2590 H 0.58879 0.77206 0.4511 0.0
H2591 H 0.59105 0.79863 0.45438 0.0
H2592 H 0.5694 0.86637 0.38519 0.0
H2593 H 0.58146 0.84453 0.40824 0.0
C2594 C 0.99262 0.87492 0.13648 0.0
C2595 C 0.99912 0.87172 0.16999 0.0
C2596 C 0.97985 0.86788 0.12591 0.0
C2597 C 0.95637 0.83598 0.14843 0.0
H2598 H 0.92834 0.85689 0.08981 0.0
C2599 C 0.89803 0.81529 0.11452 0.0
C2600 C 0.89528 0.8146 0.07705 0.0
C2601 C 0.91048 0.82232 0.12751 0.0
C2602 C 0.93609 0.85096 0.10623 0.0
H2603 H 0.99727 0.85879 0.21894 0.0
H2604 H 0.97473 0.84701 0.20136 0.0
H2605 H 0.95049 0.86909 0.1094 0.0
H2606 H 0.90319 0.82097 0.02389 0.0
H2607 H 0.92464 0.83356 0.04672 0.0
H2608 H 0.94158 0.81799 0.14589 0.0
C2609 C 0.97968 0.85455 0.18252 0.0
C2610 C 0.94886 0.85787 0.1172 0.0
C2611 C 0.9926 0.86137 0.19274 0.0
C2612 C 0.90507 0.82124 0.05291 0.0
C2613 C 0.91728 0.82852 0.06591 0.0
C2614 C 0.94345 0.82918 0.13803 0.0
C2615 C 0.97311 0.85769 0.14894 0.0
C2616 C 0.95929 0.85043 0.13809 0.0
C2617 C 0.92014 0.82906 0.10325 0.0
C2618 C 0.9333 0.83656 0.1165 0.0
H2619 H 0.99749 0.88278 0.11828 0.0
H2620 H 0.97535 0.87038 0.0995 0.0
H2621 H 0.9642 0.82977 0.16392 0.0
H2622 H 0.89068 0.81023 0.13367 0.0
H2623 H 0.91249 0.82265 0.15646 0.0
C2624 C 0.60543 0.74486 0.94258 0.0
C2625 C 0.61846 0.74884 0.92535 0.0
C2626 C 0.59838 0.73191 0.93337 0.0
C2627 C 0.59554 0.70488 0.85997 0.0
H2628 H 0.57899 0.6802 0.93464 0.0
C2629 C 0.57 0.64355 0.87147 0.0
C2630 C 0.56123 0.64386 0.84023 0.0
C2631 C 0.5766 0.65631 0.88417 0.0
C2632 C 0.58364 0.68694 0.91355 0.0
H2633 H 0.6342 0.74239 0.88452 0.0
H2634 H 0.62194 0.71987 0.86861 0.0
H2635 H 0.59154 0.70262 0.95178 0.0
H2636 H 0.55179 0.65796 0.79929 0.0
H2637 H 0.56309 0.68001 0.82154 0.0
H2638 H 0.58788 0.6892 0.82178 0.0
C2639 C 0.61711 0.72678 0.8891 0.0
C2640 C 0.59069 0.69985 0.9233 0.0
C2641 C 0.62417 0.73968 0.89835 0.0
C2642 C 0.55868 0.65726 0.82305 0.0
C2643 C 0.56521 0.66992 0.8357 0.0
C2644 C 0.58849 0.69205 0.85026 0.0
C2645 C 0.60417 0.7227 0.9066 0.0
C2646 C 0.59669 0.70897 0.89657 0.0
C2647 C 0.57452 0.66957 0.86585 0.0
C2648 C 0.58237 0.68297 0.87686 0.0
H2649 H 0.60072 0.75165 0.96349 0.0
H2650 H 0.58832 0.72918 0.94699 0.0
H2651 H 0.59993 0.7117 0.83869 0.0
H2652 H 0.57214 0.63341 0.88534 0.0
H2653 H 0.58373 0.65571 0.9075 0.0
C2654 C 0.59335 0.30186 0.09687 0.0
C2655 C 0.60676 0.30917 0.09557 0.0
C2656 C 0.58093 0.30891 0.1098 0.0
C2657 C 0.56599 0.34554 0.11824 0.0
H2658 H 0.53724 0.32766 0.18082 0.0
C2659 C 0.51813 0.3781 0.1764 0.0
C2660 C 0.50451 0.37127 0.17862 0.0
C2661 C 0.53051 0.37017 0.16726 0.0
C2662 C 0.54508 0.33273 0.16295 0.0
H2663 H 0.61775 0.32937 0.10869 0.0
H2664 H 0.59611 0.34158 0.13121 0.0
H2665 H 0.55921 0.31423 0.16464 0.0
H2666 H 0.49319 0.35074 0.17255 0.0
H2667 H 0.51481 0.33694 0.15586 0.0
H2668 H 0.55187 0.36391 0.11589 0.0
C2669 C 0.59518 0.33048 0.12175 0.0
C2670 C 0.55767 0.32506 0.15382 0.0
C2671 C 0.6076 0.32344 0.10904 0.0
C2672 C 0.50354 0.35632 0.17126 0.0
C2673 C 0.51594 0.34839 0.1619 0.0
C2674 C 0.55339 0.35316 0.12715 0.0
C2675 C 0.58166 0.32341 0.1215 0.0
C2676 C 0.56829 0.33143 0.13156 0.0
C2677 C 0.52958 0.35523 0.15982 0.0
C2678 C 0.54281 0.3469 0.14979 0.0
H2679 H 0.59233 0.29085 0.08685 0.0
H2680 H 0.57064 0.3032 0.10921 0.0
H2681 H 0.57384 0.35062 0.1004 0.0
H2682 H 0.51929 0.38959 0.1821 0.0
H2683 H 0.54086 0.37575 0.16651 0.0
C2684 C 0.89486 0.2546 0.4231 0.0
C2685 C 0.8797 0.25454 0.42784 0.0
C2686 C 0.90223 0.26763 0.41647 0.0
C2687 C 0.89624 0.30521 0.38447 0.0
H2688 H 0.93299 0.31299 0.43213 0.0
C2689 C 0.92369 0.36078 0.37158 0.0
C2690 C 0.93838 0.36036 0.36129 0.0
C2691 C 0.91677 0.34827 0.38425 0.0
C2692 C 0.92276 0.31093 0.41856 0.0
H2693 H 0.86041 0.26812 0.42894 0.0
H2694 H 0.87324 0.2907 0.41787 0.0
H2695 H 0.9205 0.28998 0.44318 0.0
H2696 H 0.95762 0.34674 0.35896 0.0
H2697 H 0.94553 0.32495 0.38097 0.0
H2698 H 0.89849 0.32608 0.35974 0.0
C2699 C 0.87943 0.28071 0.41881 0.0
C2700 C 0.91564 0.29774 0.42473 0.0
C2701 C 0.87208 0.26774 0.42534 0.0
C2702 C 0.94625 0.34742 0.36638 0.0
C2703 C 0.93934 0.33493 0.37917 0.0
C2704 C 0.90331 0.31838 0.37843 0.0
C2705 C 0.89459 0.28083 0.4144 0.0
C2706 C 0.9023 0.29474 0.4077 0.0
C2707 C 0.92443 0.33511 0.38709 0.0
C2708 C 0.91665 0.32139 0.39535 0.0
H2709 H 0.90105 0.24462 0.42476 0.0
H2710 H 0.91389 0.26734 0.4127 0.0
H2711 H 0.88611 0.30314 0.37043 0.0
H2712 H 0.91732 0.37058 0.36823 0.0
H2713 H 0.90532 0.34878 0.39081 0.0
C2714 C 0.9979 0.64474 0.67172 0.0
C2715 C 0.99699 0.62984 0.6797 0.0
C2716 C 0.98541 0.6526 0.66242 0.0
C2717 C 0.94794 0.64725 0.62824 0.0
H2718 H 0.94159 0.68637 0.66385 0.0
C2719 C 0.89317 0.67595 0.60918 0.0
C2720 C 0.89372 0.6902 0.59559 0.0
C2721 C 0.90574 0.66916 0.6219 0.0
C2722 C 0.94327 0.67548 0.65354 0.0
H2723 H 0.98219 0.61158 0.68468 0.0
H2724 H 0.96056 0.62526 0.66922 0.0
H2725 H 0.96383 0.67342 0.68035 0.0
H2726 H 0.90781 0.70876 0.58654 0.0
H2727 H 0.92975 0.69686 0.60881 0.0
H2728 H 0.9274 0.64924 0.60163 0.0
C2729 C 0.9709 0.63085 0.66936 0.0
C2730 C 0.95602 0.66808 0.66287 0.0
C2731 C 0.98333 0.62301 0.67845 0.0
C2732 C 0.90701 0.69774 0.59665 0.0
C2733 C 0.91958 0.69096 0.60955 0.0
C2734 C 0.9352 0.6546 0.61911 0.0
C2735 C 0.97177 0.64571 0.66098 0.0
C2736 C 0.95846 0.65384 0.65046 0.0
C2737 C 0.91914 0.67648 0.62153 0.0
C2738 C 0.93268 0.66876 0.63178 0.0
H2739 H 0.00826 0.65031 0.67233 0.0
H2740 H 0.98649 0.664 0.65576 0.0
H2741 H 0.94959 0.63643 0.61753 0.0
H2742 H 0.88311 0.66984 0.609 0.0
H2743 H 0.90502 0.65807 0.63155 0.0
C2744 C 0.63151 0.26515 0.5776 0.0
C2745 C 0.62356 0.25265 0.56861 0.0
C2746 C 0.62438 0.27827 0.58448 0.0
C2747 C 0.58821 0.29637 0.57268 0.0
H2748 H 0.60427 0.32395 0.64133 0.0
C2749 C 0.55708 0.34276 0.64554 0.0
C2750 C 0.56312 0.3567 0.64221 0.0
C2751 C 0.56439 0.33068 0.63177 0.0
C2752 C 0.59978 0.31639 0.6218 0.0
H2753 H 0.60195 0.24386 0.56117 0.0
H2754 H 0.58944 0.26643 0.57527 0.0
H2755 H 0.61711 0.3013 0.62945 0.0
H2756 H 0.58135 0.36906 0.62152 0.0
H2757 H 0.59445 0.3477 0.59847 0.0
H2758 H 0.57042 0.31127 0.56706 0.0
C2759 C 0.60119 0.26641 0.57543 0.0
C2760 C 0.60714 0.30341 0.61481 0.0
C2761 C 0.60835 0.25339 0.56772 0.0
C2762 C 0.57642 0.35843 0.62404 0.0
C2763 C 0.58393 0.34626 0.61111 0.0
C2764 C 0.58071 0.3092 0.58035 0.0
C2765 C 0.6091 0.27912 0.58335 0.0
C2766 C 0.60143 0.29315 0.59026 0.0
C2767 C 0.57802 0.33229 0.6153 0.0
C2768 C 0.58643 0.31928 0.605 0.0
H2769 H 0.64328 0.26492 0.57809 0.0
H2770 H 0.63091 0.28781 0.58983 0.0
H2771 H 0.5836 0.289 0.55291 0.0
H2772 H 0.54685 0.34119 0.65952 0.0
H2773 H 0.55969 0.31999 0.63543 0.0
C2774 C 0.9096 0.30363 0.91028 0.0
C2775 C 0.89582 0.3087 0.89988 0.0
C2776 C 0.92216 0.30934 0.89454 0.0
C2777 C 0.93536 0.33233 0.8176 0.0
H2778 H 0.96867 0.33765 0.88069 0.0
C2779 C 0.98299 0.37155 0.78779 0.0
C2780 C 0.99714 0.36628 0.79356 0.0
C2781 C 0.97092 0.36323 0.79761 0.0
C2782 C 0.95951 0.33606 0.86264 0.0
H2783 H 0.88439 0.32358 0.86441 0.0
H2784 H 0.90629 0.334 0.83794 0.0
H2785 H 0.94697 0.3258 0.90403 0.0
H2786 H 0.00974 0.34811 0.8138 0.0
H2787 H 0.98856 0.33368 0.83172 0.0
H2788 H 0.94785 0.34328 0.77678 0.0
C2789 C 0.90745 0.32532 0.85754 0.0
C2790 C 0.94706 0.32922 0.87593 0.0
C2791 C 0.89486 0.31942 0.87287 0.0
C2792 C 0.99897 0.35242 0.80887 0.0
C2793 C 0.98687 0.34421 0.81929 0.0
C2794 C 0.94775 0.33938 0.80451 0.0
C2795 C 0.9213 0.32047 0.86843 0.0
C2796 C 0.93476 0.3273 0.85366 0.0
C2797 C 0.97275 0.34958 0.81395 0.0
C2798 C 0.95992 0.34137 0.82697 0.0
H2799 H 0.91068 0.29523 0.93067 0.0
H2800 H 0.93256 0.30504 0.90301 0.0
H2801 H 0.92626 0.33082 0.79939 0.0
H2802 H 0.98123 0.38217 0.77597 0.0
H2803 H 0.96016 0.36769 0.79346 0.0
C2804 C 0.94681 0.66167 0.16389 0.0
C2805 C 0.94185 0.6482 0.15099 0.0
C2806 C 0.94177 0.6746 0.14863 0.0
C2807 C 0.92111 0.68955 0.06967 0.0
H2808 H 0.91379 0.72138 0.13614 0.0
C2809 C 0.88093 0.73625 0.04224 0.0
C2810 C 0.88561 0.75047 0.04963 0.0
C2811 C 0.8896 0.72438 0.05137 0.0
C2812 C 0.91598 0.71266 0.11719 0.0
H2813 H 0.92794 0.63766 0.11157 0.0
H2814 H 0.91863 0.6602 0.08586 0.0
H2815 H 0.9253 0.69933 0.1584 0.0
H2816 H 0.90307 0.76346 0.07207 0.0
H2817 H 0.91813 0.74253 0.0891 0.0
H2818 H 0.91097 0.70276 0.02898 0.0
C2819 C 0.92673 0.66085 0.1071 0.0
C2820 C 0.92262 0.7 0.12985 0.0
C2821 C 0.93198 0.6479 0.12197 0.0
C2822 C 0.89923 0.75261 0.06597 0.0
C2823 C 0.9078 0.74067 0.07579 0.0
C2824 C 0.91424 0.70213 0.05718 0.0
C2825 C 0.93144 0.67439 0.1205 0.0
C2826 C 0.92516 0.6882 0.10635 0.0
C2827 C 0.90301 0.72646 0.06867 0.0
C2828 C 0.91149 0.71373 0.08092 0.0
H2829 H 0.9546 0.66223 0.18589 0.0
H2830 H 0.94596 0.68476 0.15909 0.0
H2831 H 0.92314 0.68085 0.05057 0.0
H2832 H 0.87051 0.73427 0.02949 0.0
H2833 H 0.8856 0.71353 0.0459 0.0
C2834 C 0.49982 0.64764 0.31035 0.0
C2835 C 0.50117 0.63259 0.30479 0.0
C2836 C 0.51207 0.65609 0.31816 0.0
C2837 C 0.5521 0.65615 0.31117 0.0
H2838 H 0.55051 0.68276 0.39258 0.0
C2839 C 0.60338 0.6772 0.38346 0.0
C2840 C 0.60333 0.69136 0.39766 0.0
C2841 C 0.59086 0.67139 0.36769 0.0
C2842 C 0.55109 0.67559 0.36933 0.0
H2843 H 0.51648 0.61466 0.30286 0.0
H2844 H 0.5377 0.62936 0.31646 0.0
H2845 H 0.52852 0.67022 0.37326 0.0
H2846 H 0.59029 0.7108 0.40474 0.0
H2847 H 0.56853 0.70072 0.37673 0.0
H2848 H 0.5747 0.66135 0.30749 0.0
C2849 C 0.52723 0.63466 0.31446 0.0
C2850 C 0.53848 0.66839 0.35832 0.0
C2851 C 0.51502 0.62622 0.30694 0.0
C2852 C 0.59066 0.69979 0.39442 0.0
C2853 C 0.57815 0.694 0.37852 0.0
C2854 C 0.56469 0.66339 0.32207 0.0
C2855 C 0.5259 0.64967 0.32024 0.0
C2856 C 0.53891 0.65839 0.32958 0.0
C2857 C 0.57803 0.67964 0.36557 0.0
C2858 C 0.5644 0.673 0.35171 0.0
H2859 H 0.4893 0.65288 0.30892 0.0
H2860 H 0.51073 0.66765 0.32235 0.0
H2861 H 0.5527 0.64868 0.28853 0.0
H2862 H 0.61294 0.6704 0.38552 0.0
H2863 H 0.59111 0.66024 0.35838 0.0
C2864 C 0.37135 0.26663 0.08938 0.0
C2865 C 0.379 0.25389 0.08065 0.0
C2866 C 0.37887 0.27936 0.09806 0.0
C2867 C 0.41167 0.29343 0.13674 0.0
H2868 H 0.40727 0.3269 0.07378 0.0
C2869 C 0.44732 0.34377 0.15765 0.0
C2870 C 0.44105 0.35745 0.15189 0.0
C2871 C 0.44017 0.33119 0.14642 0.0
C2872 C 0.40848 0.31777 0.09205 0.0
H2873 H 0.40038 0.24427 0.07544 0.0
H2874 H 0.4135 0.26644 0.09212 0.0
H2875 H 0.39324 0.3049 0.06189 0.0
H2876 H 0.42258 0.36884 0.12931 0.0
H2877 H 0.40968 0.34689 0.11121 0.0
H2878 H 0.42633 0.30625 0.16802 0.0
C2879 C 0.40173 0.26659 0.09152 0.0
C2880 C 0.40048 0.30517 0.08506 0.0
C2881 C 0.39425 0.25397 0.08197 0.0
C2882 C 0.4277 0.35839 0.13369 0.0
C2883 C 0.42035 0.34578 0.12326 0.0
C2884 C 0.41942 0.30611 0.14426 0.0
C2885 C 0.39411 0.27942 0.09904 0.0
C2886 C 0.40211 0.2929 0.10722 0.0
C2887 C 0.42636 0.33197 0.13011 0.0
C2888 C 0.41805 0.31845 0.12184 0.0
H2889 H 0.35959 0.26688 0.0883 0.0
H2890 H 0.37281 0.28917 0.10394 0.0
H2891 H 0.41299 0.28409 0.15429 0.0
H2892 H 0.45769 0.3428 0.17137 0.0
H2893 H 0.44542 0.32084 0.15112 0.0
C2894 C 0.50032 0.6471 0.81235 0.0
C2895 C 0.49902 0.63204 0.80682 0.0
C2896 C 0.48801 0.65553 0.81963 0.0
C2897 C 0.44802 0.65538 0.81073 0.0
H2898 H 0.44891 0.68258 0.89097 0.0
C2899 C 0.39622 0.67672 0.88022 0.0
C2900 C 0.39616 0.69099 0.8937 0.0
C2901 C 0.40883 0.67085 0.86502 0.0
C2902 C 0.44853 0.67523 0.86804 0.0
H2903 H 0.48376 0.61406 0.80472 0.0
H2904 H 0.46245 0.62872 0.8175 0.0
H2905 H 0.47109 0.66998 0.8733 0.0
H2906 H 0.40907 0.71057 0.89994 0.0
H2907 H 0.43096 0.70039 0.87296 0.0
H2908 H 0.42543 0.66045 0.80578 0.0
C2909 C 0.47292 0.63404 0.81577 0.0
C2910 C 0.46125 0.668 0.85797 0.0
C2911 C 0.48518 0.62563 0.80872 0.0
C2912 C 0.40878 0.69947 0.89017 0.0
C2913 C 0.42137 0.69363 0.87488 0.0
C2914 C 0.43532 0.66264 0.82072 0.0
C2915 C 0.47418 0.64908 0.82127 0.0
C2916 C 0.46106 0.6578 0.82966 0.0
C2917 C 0.42162 0.67916 0.8628 0.0
C2918 C 0.43536 0.67246 0.84991 0.0
H2919 H 0.51083 0.65236 0.8111 0.0
H2920 H 0.48929 0.66711 0.82365 0.0
H2921 H 0.44761 0.64775 0.78838 0.0
H2922 H 0.38669 0.66988 0.88252 0.0
H2923 H 0.40868 0.65962 0.85632 0.0
C2924 C 0.07023 0.64103 0.61789 0.0
C2925 C 0.05942 0.6423 0.64461 0.0
C2926 C 0.07677 0.65347 0.60338 0.0
C2927 C 0.07241 0.69282 0.59051 0.0
H2928 H 0.11441 0.69409 0.59722 0.0
C2929 C 0.10466 0.74636 0.57347 0.0
C2930 C 0.11847 0.74563 0.55741 0.0
C2931 C 0.09701 0.73363 0.58167 0.0
C2932 C 0.10271 0.69388 0.59443 0.0
H2933 H 0.04641 0.65753 0.67559 0.0
H2934 H 0.05763 0.67919 0.64975 0.0
H2935 H 0.10157 0.67191 0.61322 0.0
H2936 H 0.1349 0.73102 0.53627 0.0
H2937 H 0.12144 0.70897 0.54922 0.0
H2938 H 0.07349 0.71472 0.5713 0.0
C2939 C 0.06114 0.66862 0.64029 0.0
C2940 C 0.09536 0.68115 0.6037 0.0
C2941 C 0.05479 0.65622 0.65522 0.0
C2942 C 0.12436 0.73195 0.54911 0.0
C2943 C 0.11665 0.71927 0.55674 0.0
C2944 C 0.07977 0.70552 0.5807 0.0
C2945 C 0.0724 0.66737 0.61482 0.0
C2946 C 0.08015 0.68053 0.60216 0.0
C2947 C 0.10293 0.7199 0.57347 0.0
C2948 C 0.09502 0.70627 0.58285 0.0
H2949 H 0.07403 0.63045 0.60923 0.0
H2950 H 0.08538 0.65223 0.58358 0.0
H2951 H 0.06067 0.69259 0.58891 0.0
H2952 H 0.09987 0.75675 0.58032 0.0
H2953 H 0.08659 0.73457 0.59505 0.0
C2954 C 0.10619 0.33001 0.39918 0.0
C2955 C 0.10583 0.31486 0.40382 0.0
C2956 C 0.09381 0.3375 0.38775 0.0
C2957 C 0.05887 0.33357 0.3413 0.0
H2958 H 0.04671 0.36597 0.40127 0.0
C2959 C 0.00257 0.35966 0.3238 0.0
C2960 C 0.0014 0.37479 0.32765 0.0
C2961 C 0.0154 0.3525 0.33313 0.0
C2962 C 0.05004 0.35711 0.38385 0.0
H2963 H 0.09243 0.29561 0.39837 0.0
H2964 H 0.07087 0.3087 0.37769 0.0
H2965 H 0.06936 0.35338 0.4149 0.0
H2966 H 0.0127 0.39427 0.34477 0.0
H2967 H 0.03527 0.38186 0.36005 0.0
H2968 H 0.03979 0.33739 0.30975 0.0
C2969 C 0.08071 0.31476 0.38323 0.0
C2970 C 0.063 0.34988 0.39175 0.0
C2971 C 0.09303 0.30729 0.39517 0.0
C2972 C 0.01325 0.38259 0.34167 0.0
C2973 C 0.02617 0.37544 0.35056 0.0
C2974 C 0.04601 0.34091 0.33308 0.0
C2975 C 0.0809 0.32997 0.38018 0.0
C2976 C 0.06749 0.33799 0.3707 0.0
C2977 C 0.02746 0.36031 0.34608 0.0
C2978 C 0.04134 0.3527 0.35444 0.0
H2979 H 0.11587 0.33618 0.40567 0.0
H2980 H 0.09428 0.34921 0.38524 0.0
H2981 H 0.06217 0.32451 0.32444 0.0
H2982 H 0.99356 0.35332 0.31346 0.0
H2983 H 0.01583 0.34081 0.33018 0.0
C2984 C 0.38863 0.74112 0.45112 0.0
C2985 C 0.379 0.74786 0.42682 0.0
C2986 C 0.39581 0.72832 0.44141 0.0
C2987 C 0.39423 0.69818 0.37393 0.0
H2988 H 0.43325 0.69029 0.40847 0.0
C2989 C 0.43168 0.65502 0.31135 0.0
C2990 C 0.43754 0.64468 0.33531 0.0
C2991 C 0.42448 0.66723 0.32458 0.0
C2992 C 0.4223 0.69233 0.39898 0.0
H2993 H 0.36972 0.74682 0.37285 0.0
H2994 H 0.38273 0.72492 0.35518 0.0
H2995 H 0.4211 0.71276 0.42634 0.0
H2996 H 0.4407 0.63917 0.39195 0.0
H2997 H 0.4284 0.66098 0.41521 0.0
H2998 H 0.39581 0.678 0.34524 0.0
C2999 C 0.38435 0.72913 0.38231 0.0
C3000 C 0.41529 0.70517 0.40925 0.0
C3001 C 0.37697 0.74177 0.39228 0.0
C3002 C 0.43626 0.64695 0.37289 0.0
C3003 C 0.42929 0.65939 0.38617 0.0
C3004 C 0.40135 0.6855 0.36318 0.0
C3005 C 0.39373 0.72211 0.4069 0.0
C3006 C 0.40118 0.70832 0.39666 0.0
C3007 C 0.42322 0.66953 0.36204 0.0
C3008 C 0.41545 0.68251 0.37545 0.0
H3009 H 0.39032 0.7455 0.47807 0.0
H3010 H 0.40274 0.72316 0.46133 0.0
H3011 H 0.38325 0.69997 0.36442 0.0
H3012 H 0.4324 0.65355 0.28223 0.0
H3013 H 0.41998 0.67496 0.30547 0.0
C3014 C 0.00146 0.64989 0.1821 0.0
C3015 C 0.00247 0.63486 0.18839 0.0
C3016 C 0.01391 0.65801 0.17419 0.0
C3017 C 0.05394 0.65716 0.18176 0.0
H3018 H 0.0531 0.68332 0.09939 0.0
C3019 C 0.10578 0.6766 0.10916 0.0
C3020 C 0.10612 0.69077 0.09504 0.0
C3021 C 0.09309 0.67111 0.12478 0.0
C3022 C 0.05347 0.67627 0.12288 0.0
H3023 H 0.01737 0.61662 0.19154 0.0
H3024 H 0.03895 0.63073 0.17769 0.0
H3025 H 0.03078 0.67143 0.11895 0.0
H3026 H 0.09358 0.71053 0.08783 0.0
H3027 H 0.07152 0.70099 0.11547 0.0
H3028 H 0.07667 0.6618 0.18538 0.0
C3029 C 0.02859 0.63628 0.17924 0.0
C3030 C 0.04068 0.66945 0.13405 0.0
C3031 C 0.01618 0.62817 0.1869 0.0
C3032 C 0.09365 0.69951 0.09809 0.0
C3033 C 0.08098 0.69403 0.11379 0.0
C3034 C 0.06673 0.664 0.17067 0.0
C3035 C 0.02761 0.65126 0.17271 0.0
C3036 C 0.04084 0.65961 0.16317 0.0
C3037 C 0.08048 0.67969 0.12679 0.0
C3038 C 0.06669 0.67344 0.14069 0.0
H3039 H 0.99105 0.65536 0.18301 0.0
H3040 H 0.01285 0.66956 0.16942 0.0
H3041 H 0.05434 0.64981 0.20469 0.0
H3042 H 0.11518 0.66957 0.10729 0.0
H3043 H 0.09303 0.65997 0.13416 0.0
C3044 C 0.06007 0.35219 0.86997 0.0
C3045 C 0.0594 0.35444 0.83227 0.0
C3046 C 0.06701 0.33987 0.88402 0.0
C3047 C 0.09586 0.31445 0.86355 0.0
H3048 H 0.07626 0.28702 0.92653 0.0
C3049 C 0.12111 0.25889 0.8949 0.0
C3050 C 0.11914 0.25296 0.92963 0.0
C3051 C 0.11352 0.27132 0.88441 0.0
C3052 C 0.08201 0.29468 0.90949 0.0
H3053 H 0.06547 0.34557 0.7798 0.0
H3054 H 0.0778 0.32437 0.8044 0.0
H3055 H 0.06367 0.30906 0.90715 0.0
H3056 H 0.10767 0.25537 0.98066 0.0
H3057 H 0.09484 0.27738 0.96293 0.0
H3058 H 0.1143 0.30047 0.86629 0.0
C3059 C 0.07287 0.33204 0.82299 0.0
C3060 C 0.07475 0.30726 0.89835 0.0
C3061 C 0.06573 0.34414 0.80897 0.0
C3062 C 0.10935 0.25965 0.9536 0.0
C3063 C 0.10193 0.27224 0.94334 0.0
C3064 C 0.10319 0.30204 0.87512 0.0
C3065 C 0.07362 0.32982 0.86057 0.0
C3066 C 0.08156 0.31711 0.87485 0.0
C3067 C 0.10397 0.27828 0.90864 0.0
C3068 C 0.09629 0.29184 0.89776 0.0
H3069 H 0.05525 0.35993 0.88854 0.0
H3070 H 0.06749 0.33835 0.91314 0.0
H3071 H 0.10137 0.32201 0.84572 0.0
H3072 H 0.12847 0.25386 0.8757 0.0
H3073 H 0.11512 0.27541 0.85716 0.0
C3074 C 0.50133 0.35343 0.65799 0.0
C3075 C 0.49965 0.36675 0.6761 0.0
C3076 C 0.48914 0.34538 0.64748 0.0
C3077 C 0.45085 0.33921 0.66863 0.0
H3078 H 0.44707 0.32763 0.56796 0.0
C3079 C 0.3965 0.3188 0.6094 0.0
C3080 C 0.39684 0.30857 0.58116 0.0
C3081 C 0.40938 0.32489 0.62254 0.0
C3082 C 0.44803 0.33049 0.59635 0.0
H3083 H 0.48391 0.38196 0.69803 0.0
H3084 H 0.4627 0.36775 0.68028 0.0
H3085 H 0.46914 0.33976 0.58824 0.0
H3086 H 0.41096 0.29615 0.54576 0.0
H3087 H 0.43342 0.30628 0.56958 0.0
H3088 H 0.42991 0.32978 0.67712 0.0
C3089 C 0.47343 0.3636 0.67405 0.0
C3090 C 0.46067 0.3375 0.60787 0.0
C3091 C 0.48557 0.37176 0.68396 0.0
C3092 C 0.41034 0.30417 0.56721 0.0
C3093 C 0.42323 0.31007 0.58074 0.0
C3094 C 0.43829 0.33199 0.65728 0.0
C3095 C 0.47509 0.35038 0.65554 0.0
C3096 C 0.46212 0.34209 0.64398 0.0
C3097 C 0.42293 0.32069 0.60817 0.0
C3098 C 0.43662 0.32769 0.62085 0.0
H3099 H 0.51205 0.34933 0.6515 0.0
H3100 H 0.49069 0.33519 0.6333 0.0
H3101 H 0.45179 0.34252 0.69674 0.0
H3102 H 0.38624 0.32245 0.62057 0.0
H3103 H 0.40865 0.33319 0.64327 0.0
C3104 C 0.12167 0.16615 0.0218 0.0
C3105 C 0.13536 0.17282 0.02125 0.0
C3106 C 0.11901 0.15446 0.04474 0.0
C3107 C 0.12697 0.14205 0.13277 0.0
H3108 H 0.1046 0.10848 0.10242 0.0
C3109 C 0.09047 0.11222 0.23426 0.0
C3110 C 0.07613 0.11106 0.22139 0.0
C3111 C 0.10191 0.11497 0.2102 0.0
C3112 C 0.11094 0.11771 0.11142 0.0
H3113 H 0.15715 0.17242 0.04335 0.0
H3114 H 0.15221 0.15215 0.08539 0.0
H3115 H 0.11767 0.12281 0.05725 0.0
H3116 H 0.06273 0.11065 0.17296 0.0
H3117 H 0.08246 0.11564 0.13137 0.0
H3118 H 0.11916 0.13787 0.18635 0.0
C3119 C 0.14371 0.15586 0.06729 0.0
C3120 C 0.11849 0.12583 0.0856 0.0
C3121 C 0.14651 0.16739 0.04344 0.0
C3122 C 0.07362 0.11165 0.18384 0.0
C3123 C 0.08501 0.11435 0.15988 0.0
C3124 C 0.11927 0.13403 0.15859 0.0
C3125 C 0.12989 0.14937 0.06817 0.0
C3126 C 0.12595 0.13847 0.09586 0.0
C3127 C 0.09922 0.11651 0.17282 0.0
C3128 C 0.11052 0.12225 0.14785 0.0
H3129 H 0.11295 0.17009 0.00467 0.0
H3130 H 0.1082 0.1498 0.04531 0.0
H3131 H 0.13258 0.15182 0.14127 0.0
H3132 H 0.09278 0.11171 0.26305 0.0
H3133 H 0.11276 0.11641 0.22097 0.0
C3134 C 0.13668 0.83884 0.48131 0.0
C3135 C 0.13667 0.82425 0.47003 0.0
C3136 C 0.13454 0.85001 0.45612 0.0
C3137 C 0.1326 0.85759 0.35682 0.0
H3138 H 0.10007 0.88218 0.38312 0.0
C3139 C 0.08601 0.87052 0.26333 0.0
C3140 C 0.07994 0.88448 0.26219 0.0
C3141 C 0.09738 0.86745 0.28694 0.0
C3142 C 0.10944 0.87573 0.37558 0.0
H3143 H 0.13539 0.80999 0.42325 0.0
H3144 H 0.1315 0.82931 0.37969 0.0
H3145 H 0.11271 0.86846 0.43006 0.0
H3146 H 0.08113 0.90631 0.28387 0.0
H3147 H 0.10084 0.90068 0.3269 0.0
H3148 H 0.12842 0.8639 0.30188 0.0
C3149 C 0.13326 0.83223 0.40782 0.0
C3150 C 0.11669 0.86786 0.40245 0.0
C3151 C 0.1353 0.82111 0.43291 0.0
C3152 C 0.08569 0.89547 0.28438 0.0
C3153 C 0.09691 0.89227 0.30882 0.0
C3154 C 0.12527 0.86536 0.32997 0.0
C3155 C 0.1325 0.84678 0.41919 0.0
C3156 C 0.12781 0.85809 0.39302 0.0
C3157 C 0.10275 0.87818 0.3104 0.0
C3158 C 0.11315 0.87387 0.33894 0.0
H3159 H 0.1378 0.84162 0.50974 0.0
H3160 H 0.13409 0.86113 0.46564 0.0
H3161 H 0.14135 0.8504 0.34887 0.0
H3162 H 0.08183 0.86191 0.24622 0.0
H3163 H 0.10153 0.85644 0.28802 0.0
C3164 C 0.41314 0.89648 0.711 0.0
C3165 C 0.42057 0.88554 0.7301 0.0
C3166 C 0.40161 0.89286 0.68776 0.0
C3167 C 0.37523 0.86372 0.66847 0.0
H3168 H 0.38169 0.87165 0.56643 0.0
C3169 C 0.36641 0.8222 0.5587 0.0
C3170 C 0.36085 0.8261 0.52466 0.0
C3171 C 0.36855 0.83267 0.58539 0.0
C3172 C 0.37941 0.86968 0.59484 0.0
H3173 H 0.42138 0.86242 0.74126 0.0
H3174 H 0.40132 0.85621 0.70156 0.0
H3175 H 0.39544 0.88509 0.61228 0.0
H3176 H 0.35273 0.84386 0.49189 0.0
H3177 H 0.35701 0.86249 0.53869 0.0
H3178 H 0.36006 0.84754 0.65111 0.0
C3179 C 0.40436 0.86753 0.70419 0.0
C3180 C 0.38729 0.87737 0.62106 0.0
C3181 C 0.41598 0.87108 0.7266 0.0
C3182 C 0.35698 0.84063 0.51809 0.0
C3183 C 0.35945 0.85124 0.5447 0.0
C3184 C 0.36739 0.85606 0.64236 0.0
C3185 C 0.39714 0.87833 0.68426 0.0
C3186 C 0.38585 0.87384 0.65797 0.0
C3187 C 0.36542 0.84734 0.57844 0.0
C3188 C 0.37003 0.85839 0.60529 0.0
H3189 H 0.4165 0.90772 0.7133 0.0
H3190 H 0.39625 0.90135 0.67244 0.0
H3191 H 0.3738 0.86094 0.69682 0.0
H3192 H 0.36941 0.81105 0.56444 0.0
H3193 H 0.37337 0.82937 0.6109 0.0
C3194 C 0.41122 0.11485 0.76281 0.0
C3195 C 0.42565 0.11302 0.77451 0.0
C3196 C 0.40025 0.11817 0.78779 0.0
C3197 C 0.39263 0.12092 0.88733 0.0
H3198 H 0.37071 0.15515 0.85972 0.0
C3199 C 0.3808 0.16818 0.98131 0.0
C3200 C 0.36685 0.17428 0.98243 0.0
C3201 C 0.38398 0.15706 0.95699 0.0
C3202 C 0.37645 0.14537 0.8676 0.0
H3203 H 0.43966 0.11216 0.82183 0.0
H3204 H 0.42077 0.11814 0.86493 0.0
H3205 H 0.3838 0.14146 0.81346 0.0
H3206 H 0.34518 0.17349 0.95962 0.0
H3207 H 0.35101 0.15426 0.9154 0.0
H3208 H 0.38627 0.12569 0.94197 0.0
C3209 C 0.41777 0.11692 0.83668 0.0
C3210 C 0.38394 0.13749 0.84112 0.0
C3211 C 0.42869 0.11364 0.81182 0.0
C3212 C 0.35601 0.16889 0.95921 0.0
C3213 C 0.35932 0.15796 0.93405 0.0
C3214 C 0.38529 0.12891 0.91379 0.0
C3215 C 0.40349 0.11963 0.82493 0.0
C3216 C 0.39269 0.12559 0.85098 0.0
C3217 C 0.37337 0.15201 0.93275 0.0
C3218 C 0.37767 0.14155 0.90432 0.0
H3219 H 0.4085 0.11435 0.73424 0.0
H3220 H 0.38933 0.12003 0.77792 0.0
H3221 H 0.39896 0.1116 0.89569 0.0
H3222 H 0.38931 0.17207 -0.00086 0.0
H3223 H 0.39495 0.15279 0.95616 0.0
C3224 C 0.91058 0.89047 0.76273 0.0
C3225 C 0.92493 0.88906 0.77535 0.0
C3226 C 0.89885 0.88788 0.786 0.0
C3227 C 0.88949 0.88013 0.88317 0.0
H3228 H 0.8623 0.85292 0.84052 0.0
C3229 C 0.8581 0.84114 0.97448 0.0
C3230 C 0.85945 0.82663 0.96306 0.0
C3231 C 0.86087 0.85254 0.95034 0.0
C3232 C 0.86975 0.86056 0.8529 0.0
H3233 H 0.93817 0.88497 0.82302 0.0
H3234 H 0.91794 0.88008 0.86295 0.0
H3235 H 0.87811 0.86705 0.80138 0.0
H3236 H 0.86344 0.81275 0.91649 0.0
H3237 H 0.86866 0.8324 0.87507 0.0
H3238 H 0.88218 0.8726 0.93475 0.0
C3239 C 0.9156 0.88336 0.83536 0.0
C3240 C 0.8787 0.86885 0.83038 0.0
C3241 C 0.92728 0.886 0.81224 0.0
C3242 C 0.86247 0.82379 0.92637 0.0
C3243 C 0.86531 0.83514 0.90239 0.0
C3244 C 0.88069 0.87169 0.90569 0.0
C3245 C 0.90124 0.88381 0.82231 0.0
C3246 C 0.88923 0.87816 0.84534 0.0
C3247 C 0.86509 0.84964 0.91435 0.0
C3248 C 0.87127 0.86124 0.89083 0.0
H3249 H 0.9084 0.89299 0.73455 0.0
H3250 H 0.88793 0.88855 0.77521 0.0
H3251 H 0.89719 0.88752 0.89557 0.0
H3252 H 0.85559 0.84371 0.00246 0.0
H3253 H 0.86032 0.86359 0.96029 0.0
C3254 C 0.90967 0.11215 0.7352 0.0
C3255 C 0.92422 0.11132 0.72382 0.0
C3256 C 0.89872 0.11586 0.71047 0.0
C3257 C 0.89173 0.12256 0.61148 0.0
H3258 H 0.86776 0.15395 0.64772 0.0
C3259 C 0.86305 0.16176 0.51298 0.0
C3260 C 0.86509 0.17648 0.5218 0.0
C3261 C 0.86589 0.1509 0.53864 0.0
C3262 C 0.87434 0.14517 0.63712 0.0
H3263 H 0.9385 0.1125 0.67703 0.0
H3264 H 0.91968 0.11924 0.63456 0.0
H3265 H 0.88136 0.13906 0.69018 0.0
H3266 H 0.87099 0.19133 0.56515 0.0
H3267 H 0.87629 0.17258 0.6091 0.0
H3268 H 0.88574 0.12951 0.55825 0.0
C3269 C 0.91655 0.11694 0.66228 0.0
C3270 C 0.88199 0.13646 0.66157 0.0
C3271 C 0.92743 0.11323 0.68685 0.0
C3272 C 0.86938 0.18011 0.55726 0.0
C3273 C 0.87227 0.16931 0.58274 0.0
C3274 C 0.88422 0.13139 0.587 0.0
C3275 C 0.90212 0.11877 0.67393 0.0
C3276 C 0.89132 0.12548 0.64895 0.0
C3277 C 0.87084 0.15455 0.57362 0.0
C3278 C 0.87597 0.14323 0.59948 0.0
H3279 H 0.90683 0.11062 0.76346 0.0
H3280 H 0.88768 0.11696 0.72025 0.0
H3281 H 0.89853 0.11396 0.60085 0.0
H3282 H 0.85961 0.15859 0.48601 0.0
H3283 H 0.86451 0.13965 0.53084 0.0
C3284 C 0.62099 0.16494 0.47999 0.0
C3285 C 0.63499 0.17094 0.48082 0.0
C3286 C 0.61772 0.15367 0.4562 0.0
C3287 C 0.62553 0.14162 0.36706 0.0
H3288 H 0.60096 0.10921 0.3945 0.0
C3289 C 0.58988 0.11255 0.26134 0.0
C3290 C 0.57526 0.11175 0.27231 0.0
C3291 C 0.60082 0.11541 0.28675 0.0
C3292 C 0.60789 0.11813 0.38634 0.0
H3293 H 0.65668 0.16976 0.45829 0.0
H3294 H 0.65071 0.15023 0.41501 0.0
H3295 H 0.61413 0.12264 0.44118 0.0
H3296 H 0.56081 0.11232 0.31879 0.0
H3297 H 0.5797 0.11747 0.36266 0.0
H3298 H 0.61836 0.13797 0.31263 0.0
C3299 C 0.64242 0.15413 0.43346 0.0
C3300 C 0.61549 0.12574 0.41302 0.0
C3301 C 0.64581 0.16524 0.45808 0.0
C3302 C 0.57193 0.11301 0.30936 0.0
C3303 C 0.58283 0.1158 0.33465 0.0
C3304 C 0.61781 0.13409 0.34034 0.0
C3305 C 0.62829 0.14835 0.43222 0.0
C3306 C 0.62382 0.13796 0.40378 0.0
C3307 C 0.59736 0.11739 0.32358 0.0
C3308 C 0.60833 0.12273 0.34997 0.0
H3309 H 0.61249 0.1691 0.49747 0.0
H3310 H 0.60669 0.14956 0.45543 0.0
H3311 H 0.63182 0.15106 0.3593 0.0
H3312 H 0.59281 0.11154 0.23299 0.0
H3313 H 0.61193 0.11645 0.27744 0.0
C3314 C 0.64568 0.83428 0.03995 0.0
C3315 C 0.63466 0.82949 0.0165 0.0
C3316 C 0.64293 0.84555 0.06459 0.0
C3317 C 0.61786 0.87569 0.08467 0.0
H3318 H 0.61863 0.86232 0.18438 0.0
C3319 C 0.57315 0.88853 0.18447 0.0
C3320 C 0.5758 0.88899 0.22198 0.0
C3321 C 0.58446 0.886 0.16019 0.0
C3322 C 0.61871 0.86652 0.15693 0.0
H3323 H 0.61255 0.83313 -0.00154 0.0
H3324 H 0.60789 0.85294 0.04057 0.0
H3325 H 0.63195 0.84894 0.13804 0.0
H3326 H 0.59257 0.88816 0.26329 0.0
H3327 H 0.61243 0.88367 0.22061 0.0
H3328 H 0.60399 0.89281 0.10306 0.0
C3329 C 0.61857 0.848 0.04036 0.0
C3330 C 0.62635 0.85883 0.13038 0.0
C3331 C 0.62118 0.83657 0.01655 0.0
C3332 C 0.59017 0.88777 0.23453 0.0
C3333 C 0.60153 0.88516 0.21013 0.0
C3334 C 0.61034 0.88346 0.11121 0.0
C3335 C 0.62928 0.85241 0.06512 0.0
C3336 C 0.6253 0.8629 0.09378 0.0
C3337 C 0.59873 0.88387 0.17276 0.0
C3338 C 0.60997 0.87844 0.14724 0.0
H3339 H 0.65615 0.82892 0.04029 0.0
H3340 H 0.65131 0.84873 0.08364 0.0
H3341 H 0.61703 0.87912 0.05662 0.0
H3342 H 0.56223 0.88958 0.17387 0.0
H3343 H 0.58183 0.88488 0.13168 0.0
C3344 C 0.57369 0.60999 0.68463 0.0
C3345 C 0.57672 0.60941 0.72195 0.0
C3346 C 0.58471 0.61282 0.65972 0.0
C3347 C 0.61876 0.63283 0.65546 0.0
H3348 H 0.61565 0.62182 0.55419 0.0
C3349 C 0.64477 0.66579 0.5374 0.0
C3350 C 0.63339 0.67151 0.5164 0.0
C3351 C 0.64209 0.65438 0.56169 0.0
C3352 C 0.61688 0.62479 0.58248 0.0
H3353 H 0.59389 0.61024 0.76219 0.0
H3354 H 0.61325 0.61518 0.71841 0.0
H3355 H 0.60338 0.60731 0.6004 0.0
H3356 H 0.61061 0.66943 0.50256 0.0
H3357 H 0.60606 0.6493 0.54392 0.0
H3358 H 0.63175 0.6507 0.63707 0.0
C3359 C 0.60228 0.61361 0.70856 0.0
C3360 C 0.60979 0.61657 0.60891 0.0
C3361 C 0.5912 0.61072 0.73361 0.0
C3362 C 0.61952 0.66527 0.51869 0.0
C3363 C 0.61696 0.65368 0.54206 0.0
C3364 C 0.62603 0.64094 0.62901 0.0
C3365 C 0.59906 0.61514 0.67143 0.0
C3366 C 0.60993 0.62101 0.64544 0.0
C3367 C 0.62813 0.64829 0.56421 0.0
C3368 C 0.62447 0.63742 0.59218 0.0
H3369 H 0.56267 0.60887 0.67469 0.0
H3370 H 0.58173 0.6141 0.63147 0.0
H3371 H 0.61908 0.63662 0.68326 0.0
H3372 H 0.65554 0.67051 0.53604 0.0
H3373 H 0.65081 0.65044 0.57879 0.0
C3374 C 0.59147 0.3855 0.75806 0.0
C3375 C 0.57686 0.38616 0.76911 0.0
C3376 C 0.60246 0.38265 0.78337 0.0
C3377 C 0.60974 0.3801 0.88277 0.0
H3378 H 0.63331 0.34684 0.85639 0.0
C3379 C 0.62244 0.3338 0.97804 0.0
C3380 C 0.6362 0.32727 0.97828 0.0
C3381 C 0.61938 0.34507 0.9541 0.0
C3382 C 0.62714 0.35638 0.86397 0.0
H3383 H 0.56244 0.38534 0.81561 0.0
H3384 H 0.58143 0.38031 0.8594 0.0
H3385 H 0.61989 0.35986 0.80951 0.0
H3386 H 0.65772 0.32756 0.95465 0.0
H3387 H 0.65212 0.34713 0.91115 0.0
H3388 H 0.61609 0.37584 0.93765 0.0
C3389 C 0.58451 0.38205 0.83136 0.0
C3390 C 0.61943 0.36386 0.83712 0.0
C3391 C 0.57357 0.38477 0.80615 0.0
C3392 C 0.64705 0.3325 0.9549 0.0
C3393 C 0.64385 0.34363 0.93013 0.0
C3394 C 0.61735 0.37258 0.90958 0.0
C3395 C 0.59904 0.3806 0.82021 0.0
C3396 C 0.61007 0.37533 0.84654 0.0
C3397 C 0.62992 0.34989 0.92936 0.0
C3398 C 0.62554 0.36022 0.90062 0.0
H3399 H 0.59436 0.38657 0.72969 0.0
H3400 H 0.61357 0.38168 0.77401 0.0
H3401 H 0.60288 0.38911 0.89075 0.0
H3402 H 0.61393 0.33 0.99601 0.0
H3403 H 0.60849 0.34954 0.95375 0.0
C3404 C 0.86547 0.3201 0.06152 0.0
C3405 C 0.86391 0.32374 0.02471 0.0
C3406 C 0.86796 0.33084 0.08742 0.0
C3407 C 0.88482 0.36647 0.09523 0.0
H3408 H 0.87304 0.36183 0.19559 0.0
C3409 C 0.91436 0.39549 0.21359 0.0
C3410 C 0.92009 0.38503 0.23735 0.0
C3411 C 0.90354 0.39162 0.18862 0.0
C3412 C 0.87625 0.36342 0.16759 0.0
H3413 H 0.86295 0.34165 0.98651 0.0
H3414 H 0.86736 0.36049 0.032 0.0
H3415 H 0.86049 0.34823 0.14815 0.0
H3416 H 0.91849 0.36269 0.25546 0.0
H3417 H 0.8995 0.35605 0.21272 0.0
H3418 H 0.90105 0.38114 0.11505 0.0
C3419 C 0.86676 0.34926 0.04064 0.0
C3420 C 0.86914 0.35559 0.14046 0.0
C3421 C 0.86419 0.33848 0.01464 0.0
C3422 C 0.91432 0.37093 0.2372 0.0
C3423 C 0.90335 0.36717 0.21299 0.0
C3424 C 0.89187 0.37438 0.12239 0.0
C3425 C 0.86896 0.34552 0.07722 0.0
C3426 C 0.87384 0.35646 0.10423 0.0
C3427 C 0.89807 0.37736 0.18792 0.0
C3428 C 0.88811 0.37236 0.15896 0.0
H3429 H 0.8652 0.30887 0.07029 0.0
H3430 H 0.86981 0.32752 0.11523 0.0
H3431 H 0.88876 0.36735 0.06763 0.0
H3432 H 0.9187 0.40643 0.21324 0.0
H3433 H 0.89966 0.39963 0.16943 0.0
C3434 C 0.91118 0.62204 0.25897 0.0
C3435 C 0.92353 0.61402 0.26858 0.0
C3436 C 0.90058 0.62518 0.28489 0.0
C3437 C 0.89749 0.62794 0.38519 0.0
H3438 H 0.85919 0.64225 0.35983 0.0
C3439 C 0.86083 0.65932 0.48547 0.0
C3440 C 0.86177 0.67395 0.47504 0.0
C3441 C 0.86461 0.64835 0.46093 0.0
C3442 C 0.86975 0.638 0.36737 0.0
H3443 H 0.93397 0.60181 0.31137 0.0
H3444 H 0.91497 0.60628 0.35605 0.0
H3445 H 0.87301 0.62812 0.31558 0.0
H3446 H 0.86635 0.68871 0.43078 0.0
H3447 H 0.87237 0.66949 0.3874 0.0
H3448 H 0.89407 0.6379 0.437 0.0
C3449 C 0.91374 0.61091 0.32923 0.0
C3450 C 0.87779 0.6301 0.34195 0.0
C3451 C 0.92458 0.60819 0.30359 0.0
C3452 C 0.86554 0.67746 0.43924 0.0
C3453 C 0.86888 0.66652 0.41449 0.0
C3454 C 0.88928 0.63547 0.41083 0.0
C3455 C 0.9019 0.62001 0.32077 0.0
C3456 C 0.89207 0.62554 0.34991 0.0
C3457 C 0.86889 0.65194 0.42548 0.0
C3458 C 0.87562 0.64103 0.40162 0.0
H3459 H 0.91021 0.62673 0.2321 0.0
H3460 H 0.89184 0.63239 0.27712 0.0
H3461 H 0.90845 0.62493 0.39256 0.0
H3462 H 0.85808 0.65644 0.51314 0.0
H3463 H 0.86474 0.63716 0.46994 0.0
C3464 C 0.41254 0.38998 0.26425 0.0
C3465 C 0.4272 0.38833 0.2742 0.0
C3466 C 0.40146 0.38656 0.28878 0.0
C3467 C 0.39447 0.37662 0.38565 0.0
H3468 H 0.36562 0.35093 0.34381 0.0
C3469 C 0.36153 0.33872 0.47708 0.0
C3470 C 0.36198 0.32419 0.46532 0.0
C3471 C 0.36503 0.35001 0.45323 0.0
C3472 C 0.37354 0.35815 0.35595 0.0
H3473 H 0.44169 0.38276 0.31854 0.0
H3474 H 0.42252 0.37648 0.36069 0.0
H3475 H 0.38118 0.36516 0.30413 0.0
H3476 H 0.36521 0.31026 0.4185 0.0
H3477 H 0.37159 0.32975 0.37745 0.0
H3478 H 0.38771 0.36866 0.43735 0.0
C3479 C 0.41948 0.38059 0.33422 0.0
C3480 C 0.38236 0.36647 0.33318 0.0
C3481 C 0.43052 0.38405 0.30983 0.0
C3482 C 0.3649 0.3213 0.42861 0.0
C3483 C 0.36843 0.33255 0.40488 0.0
C3484 C 0.38575 0.36819 0.40841 0.0
C3485 C 0.40482 0.38141 0.32372 0.0
C3486 C 0.39337 0.37531 0.34774 0.0
C3487 C 0.36903 0.347 0.41718 0.0
C3488 C 0.37564 0.35836 0.39374 0.0
H3489 H 0.4096 0.39342 0.23713 0.0
H3490 H 0.39027 0.38753 0.28001 0.0
H3491 H 0.40261 0.38359 0.39777 0.0
H3492 H 0.35916 0.34134 0.50511 0.0
H3493 H 0.36514 0.36104 0.46341 0.0
C3494 C 0.42645 0.60999 0.18322 0.0
C3495 C 0.4234 0.60966 0.22054 0.0
C3496 C 0.41547 0.61275 0.15817 0.0
C3497 C 0.38146 0.63289 0.1534 0.0
H3498 H 0.38479 0.62182 0.05222 0.0
C3499 C 0.35553 0.66544 0.03439 0.0
C3500 C 0.36695 0.67135 0.01387 0.0
C3501 C 0.35823 0.6541 0.05884 0.0
C3502 C 0.3835 0.62479 0.08049 0.0
H3503 H 0.4062 0.61077 0.26068 0.0
H3504 H 0.3869 0.61552 0.21665 0.0
H3505 H 0.39692 0.60731 0.09868 0.0
H3506 H 0.38987 0.66969 0.00111 0.0
H3507 H 0.39447 0.64966 0.04278 0.0
H3508 H 0.36852 0.65075 0.13474 0.0
C3509 C 0.39787 0.61387 0.2069 0.0
C3510 C 0.39051 0.61658 0.10706 0.0
C3511 C 0.40891 0.61108 0.23209 0.0
C3512 C 0.38091 0.66538 0.01686 0.0
C3513 C 0.38351 0.65385 0.0404 0.0
C3514 C 0.37426 0.64098 0.12682 0.0
C3515 C 0.40112 0.6152 0.16974 0.0
C3516 C 0.39031 0.62106 0.14356 0.0
C3517 C 0.37227 0.64827 0.062 0.0
C3518 C 0.37589 0.63742 0.09004 0.0
H3519 H 0.43747 0.60878 0.17336 0.0
H3520 H 0.41847 0.61388 0.1299 0.0
H3521 H 0.3811 0.63672 0.18117 0.0
H3522 H 0.34468 0.66994 0.03249 0.0
H3523 H 0.34946 0.65 0.07553 0.0
C3524 C 0.09001 0.61199 0.75583 0.0
C3525 C 0.07553 0.61147 0.76797 0.0
C3526 C 0.10123 0.61555 0.77986 0.0
C3527 C 0.10998 0.62137 0.87768 0.0
H3528 H 0.13227 0.65403 0.84156 0.0
C3529 C 0.13026 0.67782 0.93729 0.0
C3530 C 0.13745 0.67379 0.96932 0.0
C3531 C 0.12725 0.66755 0.91062 0.0
C3532 C 0.12631 0.64478 0.85192 0.0
H3533 H 0.06165 0.61311 0.81537 0.0
H3534 H 0.0811 0.61942 0.85697 0.0
H3535 H 0.11796 0.63952 0.79947 0.0
H3536 H 0.14768 0.65602 -0.00188 0.0
H3537 H 0.14203 0.63778 0.9514 0.0
H3538 H 0.11756 0.62735 0.93057 0.0
C3539 C 0.08386 0.61705 0.82902 0.0
C3540 C 0.11819 0.63638 0.82778 0.0
C3541 C 0.07266 0.61358 0.80504 0.0
C3542 C 0.14213 0.65937 0.97359 0.0
C3543 C 0.13887 0.64897 0.94701 0.0
C3544 C 0.11815 0.62976 0.90184 0.0
C3545 C 0.09821 0.61853 0.81651 0.0
C3546 C 0.1094 0.62499 0.84063 0.0
C3547 C 0.13121 0.65295 0.9155 0.0
C3548 C 0.12584 0.64196 0.88937 0.0
H3549 H 0.09261 0.61032 0.72748 0.0
H3550 H 0.1122 0.61646 0.7695 0.0
H3551 H 0.10349 0.61253 0.88829 0.0
H3552 H 0.12664 0.6889 0.9332 0.0
H3553 H 0.12117 0.67094 0.88692 0.0
C3554 C 0.0755 0.3895 0.68553 0.0
C3555 C 0.07701 0.39013 0.72344 0.0
C3556 C 0.08742 0.38634 0.66358 0.0
C3557 C 0.12023 0.36477 0.66986 0.0
H3558 H 0.12279 0.37477 0.56784 0.0
C3559 C 0.14395 0.3404 0.52534 0.0
C3560 C 0.13758 0.32659 0.52858 0.0
C3561 C 0.1416 0.35094 0.55218 0.0
C3562 C 0.12254 0.37206 0.59644 0.0
H3563 H 0.09251 0.38931 0.76776 0.0
H3564 H 0.11338 0.38378 0.72927 0.0
H3565 H 0.10918 0.39042 0.6091 0.0
H3566 H 0.12468 0.3126 0.56319 0.0
H3567 H 0.12075 0.33078 0.60987 0.0
H3568 H 0.13294 0.34603 0.65684 0.0
C3569 C 0.1029 0.38553 0.71664 0.0
C3570 C 0.11462 0.38095 0.62001 0.0
C3571 C 0.09095 0.38874 0.73867 0.0
C3572 C 0.1296 0.32322 0.55988 0.0
C3573 C 0.12749 0.33359 0.58681 0.0
C3574 C 0.12813 0.35591 0.64633 0.0
C3575 C 0.10115 0.38374 0.67899 0.0
C3576 C 0.11273 0.37696 0.65657 0.0
C3577 C 0.13316 0.34767 0.58292 0.0
C3578 C 0.12869 0.35905 0.60906 0.0
H3579 H 0.06495 0.3907 0.67287 0.0
H3580 H 0.08561 0.38492 0.63476 0.0
H3581 H 0.119 0.36133 0.69779 0.0
H3582 H 0.15015 0.34325 0.5014 0.0
H3583 H 0.14608 0.36172 0.54853 0.0
loop_
_geom_bond_atom_site_label_1
_geom_bond_atom_site_label_2
_geom_bond_distance
_geom_bond_site_symmetry_2
_ccdc_geom_bond_type
Fe0 O2 1.918 . S
Fe0 O5 1.997 . S
Fe0 O6 2.002 . S
Fe0 O11 1.976 . S
Fe0 O14 1.996 . S
Fe1 O2 1.918 . S
Fe1 O9 1.997 . S
Fe1 O12 1.996 . S
Fe1 O16 1.976 . S
Fe1 O19 2.002 . S
O2 Fe0 1.918 . S
O2 Fe1 1.918 . S
O2 Fe3 1.918 . S
Fe3 O2 1.918 . S
Fe3 O4 2.002 . S
Fe3 O13 1.976 . S
Fe3 O17 1.996 . S
Fe3 O20 1.997 . S
O4 Fe3 2.002 . S
O4 C21 1.295 . S
O5 Fe0 1.997 . S
O5 C21 1.235 . S
O6 Fe0 2.002 . S
O6 C7 1.295 . S
C7 O6 1.295 . S
C7 O9 1.235 . S
C8 O13 1.287 . S
C8 O14 1.255 . S
O9 Fe1 1.997 . S
O9 C7 1.235 . S
C10 O16 1.287 . S
C10 O17 1.255 . S
O11 Fe0 1.976 . S
O11 C18 1.287 . S
O12 Fe1 1.996 . S
O12 C18 1.255 . S
O13 Fe3 1.976 . S
O13 C8 1.287 . S
O14 Fe0 1.996 . S
O14 C8 1.255 . S
C15 O19 1.295 . S
C15 O20 1.235 . S
O16 Fe1 1.976 . S
O16 C10 1.287 . S
O17 Fe3 1.996 . S
O17 C10 1.255 . S
C18 O11 1.287 . S
C18 O12 1.255 . S
O19 Fe1 2.002 . S
O19 C15 1.295 . S
O20 Fe3 1.997 . S
O20 C15 1.235 . S
C21 O4 1.295 . S
C21 O5 1.235 . S
Fe22 O24 1.918 . S
Fe22 O27 1.997 . S
Fe22 O28 2.002 . S
Fe22 O33 1.976 . S
Fe22 O36 1.996 . S
Fe23 O24 1.918 . S
Fe23 O31 1.997 . S
Fe23 O34 1.996 . S
Fe23 O38 1.976 . S
Fe23 O41 2.002 . S
O24 Fe22 1.918 . S
O24 Fe23 1.918 . S
O24 Fe25 1.918 . S
Fe25 O24 1.918 . S
Fe25 O26 2.002 . S
Fe25 O35 1.976 . S
Fe25 O39 1.996 . S
Fe25 O42 1.997 . S
O26 Fe25 2.002 . S
O26 C43 1.295 . S
O27 Fe22 1.997 . S
O27 C43 1.235 . S
O28 Fe22 2.002 . S
O28 C29 1.295 . S
C29 O28 1.295 . S
C29 O31 1.235 . S
C30 O35 1.287 . S
C30 O36 1.255 . S
O31 Fe23 1.997 . S
O31 C29 1.235 . S
C32 O38 1.287 . S
C32 O39 1.255 . S
O33 Fe22 1.976 . S
O33 C40 1.287 . S
O34 Fe23 1.996 . S
O34 C40 1.255 . S
O35 Fe25 1.976 . S
O35 C30 1.287 . S
O36 Fe22 1.996 . S
O36 C30 1.255 . S
C37 O41 1.295 . S
C37 O42 1.235 . S
O38 Fe23 1.976 . S
O38 C32 1.287 . S
O39 Fe25 1.996 . S
O39 C32 1.255 . S
C40 O33 1.287 . S
C40 O34 1.255 . S
O41 Fe23 2.002 . S
O41 C37 1.295 . S
O42 Fe25 1.997 . S
O42 C37 1.235 . S
C43 O26 1.295 . S
C43 O27 1.235 . S
Fe44 O46 1.918 . S
Fe44 O49 1.997 . S
Fe44 O50 2.002 . S
Fe44 O55 1.976 . S
Fe44 O58 1.996 . S
Fe45 O46 1.918 . S
Fe45 O53 1.997 . S
Fe45 O56 1.996 . S
Fe45 O60 1.976 . S
Fe45 O63 2.002 . S
O46 Fe44 1.918 . S
O46 Fe45 1.918 . S
O46 Fe47 1.918 . S
Fe47 O46 1.918 . S
Fe47 O48 2.002 . S
Fe47 O57 1.976 . S
Fe47 O61 1.996 . S
Fe47 O64 1.997 . S
O48 Fe47 2.002 . S
O48 C65 1.295 . S
O49 Fe44 1.997 . S
O49 C65 1.235 . S
O50 Fe44 2.002 . S
O50 C51 1.295 . S
C51 O50 1.295 . S
C51 O53 1.235 . S
C52 O57 1.287 . S
C52 O58 1.255 . S
O53 Fe45 1.997 . S
O53 C51 1.235 . S
C54 O60 1.287 . S
C54 O61 1.255 . S
O55 Fe44 1.976 . S
O55 C62 1.287 . S
O56 Fe45 1.996 . S
O56 C62 1.255 . S
O57 Fe47 1.976 . S
O57 C52 1.287 . S
O58 Fe44 1.996 . S
O58 C52 1.255 . S
C59 O63 1.295 . S
C59 O64 1.235 . S
O60 Fe45 1.976 . S
O60 C54 1.287 . S
O61 Fe47 1.996 . S
O61 C54 1.255 . S
C62 O55 1.287 . S
C62 O56 1.255 . S
O63 Fe45 2.002 . S
O63 C59 1.295 . S
O64 Fe47 1.997 . S
O64 C59 1.235 . S
C65 O48 1.295 . S
C65 O49 1.235 . S
Fe66 O68 1.918 . S
Fe66 O71 1.997 . S
Fe66 O72 2.002 . S
Fe66 O77 1.976 1_554 S
Fe66 O80 1.996 1_554 S
Fe67 O68 1.918 . S
Fe67 O75 1.997 . S
Fe67 O78 1.970 1_554 S
Fe67 O82 1.976 . S
Fe67 O85 2.002 . S
O68 Fe66 1.918 . S
O68 Fe67 1.918 . S
O68 Fe69 1.918 . S
Fe69 O68 1.918 . S
Fe69 O70 2.002 . S
Fe69 O79 1.976 . S
Fe69 O83 1.996 . S
Fe69 O86 1.997 . S
O70 Fe69 2.002 . S
O70 C87 1.295 . S
O71 Fe66 1.997 . S
O71 C87 1.235 . S
O72 Fe66 2.002 . S
O72 C73 1.295 . S
C73 O72 1.295 . S
C73 O75 1.235 . S
C74 O79 1.287 1_556 S
C74 O80 1.255 . S
O75 Fe67 1.997 . S
O75 C73 1.235 . S
C76 O82 1.287 . S
C76 O83 1.255 . S
O77 Fe66 1.976 1_556 S
O77 C84 1.287 . S
O78 Fe67 1.970 1_556 S
O78 C84 1.274 . S
O79 Fe69 1.976 . S
O79 C74 1.287 1_554 S
O80 Fe66 1.996 1_556 S
O80 C74 1.255 . S
C81 O85 1.295 . S
C81 O86 1.235 . S
O82 Fe67 1.976 . S
O82 C76 1.287 . S
O83 Fe69 1.996 . S
O83 C76 1.255 . S
C84 O77 1.287 . S
C84 O78 1.274 . S
O85 Fe67 2.002 . S
O85 C81 1.295 . S
O86 Fe69 1.997 . S
O86 C81 1.235 . S
C87 O70 1.295 . S
C87 O71 1.235 . S
Fe88 O90 1.918 . S
Fe88 O93 1.997 . S
Fe88 O94 2.002 . S
Fe88 O99 1.976 . S
Fe88 O102 1.996 . S
Fe89 O90 1.918 . S
Fe89 O97 1.997 . S
Fe89 O100 1.996 . S
Fe89 O104 1.976 . S
Fe89 O107 2.002 . S
O90 Fe88 1.918 . S
O90 Fe89 1.918 . S
O90 Fe91 1.918 . S
Fe91 O90 1.918 . S
Fe91 O92 2.002 . S
Fe91 O101 1.976 . S
Fe91 O105 1.996 . S
Fe91 O108 1.997 . S
O92 Fe91 2.002 . S
O92 C109 1.295 . S
O93 Fe88 1.997 . S
O93 C109 1.235 . S
O94 Fe88 2.002 . S
O94 C95 1.295 . S
C95 O94 1.295 . S
C95 O97 1.235 . S
C96 O101 1.287 . S
C96 O102 1.255 . S
O97 Fe89 1.997 . S
O97 C95 1.235 . S
C98 O104 1.287 . S
C98 O105 1.255 . S
O99 Fe88 1.976 . S
O99 C106 1.287 . S
O100 Fe89 1.996 . S
O100 C106 1.255 . S
O101 Fe91 1.976 . S
O101 C96 1.287 . S
O102 Fe88 1.996 . S
O102 C96 1.255 . S
C103 O107 1.295 . S
C103 O108 1.235 . S
O104 Fe89 1.976 . S
O104 C98 1.287 . S
O105 Fe91 1.996 . S
O105 C98 1.255 . S
C106 O99 1.287 . S
C106 O100 1.255 . S
O107 Fe89 2.002 . S
O107 C103 1.295 . S
O108 Fe91 1.997 . S
O108 C103 1.235 . S
C109 O92 1.295 . S
C109 O93 1.235 . S
Fe110 O112 1.918 . S
Fe110 O115 1.997 . S
Fe110 O116 2.002 . S
Fe110 O121 1.976 . S
Fe110 O124 1.996 . S
Fe111 O112 1.918 . S
Fe111 O119 1.997 . S
Fe111 O122 1.996 . S
Fe111 O126 1.976 . S
Fe111 O129 2.002 . S
O112 Fe110 1.918 . S
O112 Fe111 1.918 . S
O112 Fe113 1.918 . S
Fe113 O112 1.918 . S
Fe113 O114 2.002 . S
Fe113 O123 1.976 . S
Fe113 O127 1.996 . S
Fe113 O130 1.997 . S
O114 Fe113 2.002 . S
O114 C131 1.295 . S
O115 Fe110 1.997 . S
O115 C131 1.235 . S
O116 Fe110 2.002 . S
O116 C117 1.295 . S
C117 O116 1.295 . S
C117 O119 1.235 . S
C118 O123 1.287 . S
C118 O124 1.255 . S
O119 Fe111 1.997 . S
O119 C117 1.235 . S
C120 O126 1.287 . S
C120 O127 1.255 . S
O121 Fe110 1.976 . S
O121 C128 1.287 . S
O122 Fe111 1.996 . S
O122 C128 1.255 . S
O123 Fe113 1.976 . S
O123 C118 1.287 . S
O124 Fe110 1.996 . S
O124 C118 1.255 . S
C125 O129 1.295 . S
C125 O130 1.235 . S
O126 Fe111 1.976 . S
O126 C120 1.287 . S
O127 Fe113 1.996 . S
O127 C120 1.255 . S
C128 O121 1.287 . S
C128 O122 1.255 . S
O129 Fe111 2.002 . S
O129 C125 1.295 . S
O130 Fe113 1.997 . S
O130 C125 1.235 . S
C131 O114 1.295 . S
C131 O115 1.235 . S
Fe132 O134 1.918 . S
Fe132 O137 1.997 . S
Fe132 O138 2.002 . S
Fe132 O143 1.976 . S
Fe132 O146 1.996 . S
Fe133 O134 1.918 . S
Fe133 O141 1.997 . S
Fe133 O144 1.996 . S
Fe133 O148 1.976 . S
Fe133 O151 2.002 . S
O134 Fe132 1.918 . S
O134 Fe133 1.918 . S
O134 Fe135 1.918 . S
Fe135 O134 1.918 . S
Fe135 O136 2.002 . S
Fe135 O145 1.976 . S
Fe135 O149 1.996 . S
Fe135 O152 1.997 . S
O136 Fe135 2.002 . S
O136 C153 1.295 . S
O137 Fe132 1.997 . S
O137 C153 1.235 . S
O138 Fe132 2.002 . S
O138 C139 1.295 . S
C139 O138 1.295 . S
C139 O141 1.235 . S
C140 O145 1.287 . S
C140 O146 1.255 . S
O141 Fe133 1.997 . S
O141 C139 1.235 . S
C142 O148 1.287 . S
C142 O149 1.255 . S
O143 Fe132 1.976 . S
O143 C150 1.287 . S
O144 Fe133 1.996 . S
O144 C150 1.255 . S
O145 Fe135 1.976 . S
O145 C140 1.287 . S
O146 Fe132 1.996 . S
O146 C140 1.255 . S
C147 O151 1.295 . S
C147 O152 1.235 . S
O148 Fe133 1.976 . S
O148 C142 1.287 . S
O149 Fe135 1.996 . S
O149 C142 1.255 . S
C150 O143 1.287 . S
C150 O144 1.255 . S
O151 Fe133 2.002 . S
O151 C147 1.295 . S
O152 Fe135 1.997 . S
O152 C147 1.235 . S
C153 O136 1.295 . S
C153 O137 1.235 . S
Fe154 O156 1.918 . S
Fe154 O159 1.997 . S
Fe154 O160 2.002 . S
Fe154 O165 1.976 . S
Fe154 O168 1.970 1_556 S
Fe155 O156 1.918 . S
Fe155 O163 1.997 . S
Fe155 O166 1.996 . S
Fe155 O170 1.976 . S
Fe155 O173 2.002 . S
O156 Fe154 1.918 . S
O156 Fe155 1.918 . S
O156 Fe157 1.918 . S
Fe157 O156 1.918 . S
Fe157 O158 2.002 . S
Fe157 O167 1.976 1_556 S
Fe157 O171 1.996 1_556 S
Fe157 O174 1.997 . S
O158 Fe157 2.002 . S
O158 C175 1.295 . S
O159 Fe154 1.997 . S
O159 C175 1.235 . S
O160 Fe154 2.002 . S
O160 C161 1.295 . S
C161 O160 1.295 . S
C161 O163 1.235 . S
C162 O167 1.287 . S
C162 O168 1.274 . S
O163 Fe155 1.997 . S
O163 C161 1.235 . S
C164 O170 1.287 1_554 S
C164 O171 1.255 . S
O165 Fe154 1.976 . S
O165 C172 1.287 . S
O166 Fe155 1.996 . S
O166 C172 1.255 . S
O167 Fe157 1.976 1_554 S
O167 C162 1.287 . S
O168 Fe154 1.970 1_554 S
O168 C162 1.274 . S
C169 O173 1.295 . S
C169 O174 1.235 . S
O170 Fe155 1.976 . S
O170 C164 1.287 1_556 S
O171 Fe157 1.996 1_554 S
O171 C164 1.255 . S
C172 O165 1.287 . S
C172 O166 1.255 . S
O173 Fe155 2.002 . S
O173 C169 1.295 . S
O174 Fe157 1.997 . S
O174 C169 1.235 . S
C175 O158 1.295 . S
C175 O159 1.235 . S
Fe176 O178 1.918 . S
Fe176 O181 1.997 . S
Fe176 O182 2.002 . S
Fe176 O187 1.976 . S
Fe176 O190 1.996 . S
Fe177 O178 1.918 . S
Fe177 O185 1.997 . S
Fe177 O188 1.996 . S
Fe177 O192 1.976 . S
Fe177 O195 2.002 . S
O178 Fe176 1.918 . S
O178 Fe177 1.918 . S
O178 Fe179 1.918 . S
Fe179 O178 1.918 . S
Fe179 O180 2.002 . S
Fe179 O189 1.976 . S
Fe179 O193 1.996 . S
Fe179 O196 1.997 . S
O180 Fe179 2.002 . S
O180 C197 1.295 . S
O181 Fe176 1.997 . S
O181 C197 1.235 . S
O182 Fe176 2.002 . S
O182 C183 1.295 . S
C183 O182 1.295 . S
C183 O185 1.235 . S
C184 O189 1.287 . S
C184 O190 1.255 . S
O185 Fe177 1.997 . S
O185 C183 1.235 . S
C186 O192 1.287 . S
C186 O193 1.255 . S
O187 Fe176 1.976 . S
O187 C194 1.287 . S
O188 Fe177 1.996 . S
O188 C194 1.255 . S
O189 Fe179 1.976 . S
O189 C184 1.287 . S
O190 Fe176 1.996 . S
O190 C184 1.255 . S
C191 O195 1.295 . S
C191 O196 1.235 . S
O192 Fe177 1.976 . S
O192 C186 1.287 . S
O193 Fe179 1.996 . S
O193 C186 1.255 . S
C194 O187 1.287 . S
C194 O188 1.255 . S
O195 Fe177 2.002 . S
O195 C191 1.295 . S
O196 Fe179 1.997 . S
O196 C191 1.235 . S
C197 O180 1.295 . S
C197 O181 1.235 . S
Fe198 O200 1.918 . S
Fe198 O203 1.997 . S
Fe198 O204 2.002 . S
Fe198 O209 1.976 . S
Fe198 O212 1.996 . S
Fe199 O200 1.918 . S
Fe199 O207 1.997 . S
Fe199 O210 1.996 . S
Fe199 O214 1.976 . S
Fe199 O217 2.002 . S
O200 Fe198 1.918 . S
O200 Fe199 1.918 . S
O200 Fe201 1.918 . S
Fe201 O200 1.918 . S
Fe201 O202 2.002 . S
Fe201 O211 1.976 . S
Fe201 O215 1.996 . S
Fe201 O218 1.997 . S
O202 Fe201 2.002 . S
O202 C219 1.295 . S
O203 Fe198 1.997 . S
O203 C219 1.235 . S
O204 Fe198 2.002 . S
O204 C205 1.295 . S
C205 O204 1.295 . S
C205 O207 1.235 . S
C206 O211 1.287 . S
C206 O212 1.255 . S
O207 Fe199 1.997 . S
O207 C205 1.235 . S
C208 O214 1.287 . S
C208 O215 1.255 . S
O209 Fe198 1.976 . S
O209 C216 1.287 . S
O210 Fe199 1.996 . S
O210 C216 1.255 . S
O211 Fe201 1.976 . S
O211 C206 1.287 . S
O212 Fe198 1.996 . S
O212 C206 1.255 . S
C213 O217 1.295 . S
C213 O218 1.235 . S
O214 Fe199 1.976 . S
O214 C208 1.287 . S
O215 Fe201 1.996 . S
O215 C208 1.255 . S
C216 O209 1.287 . S
C216 O210 1.255 . S
O217 Fe199 2.002 . S
O217 C213 1.295 . S
O218 Fe201 1.997 . S
O218 C213 1.235 . S
C219 O202 1.295 . S
C219 O203 1.235 . S
Fe220 O222 1.918 . S
Fe220 O225 1.997 . S
Fe220 O226 2.002 . S
Fe220 O231 1.976 . S
Fe220 O234 1.996 . S
Fe221 O222 1.918 . S
Fe221 O229 1.997 . S
Fe221 O232 1.996 . S
Fe221 O236 1.976 . S
Fe221 O239 2.002 . S
O222 Fe220 1.918 . S
O222 Fe221 1.918 . S
O222 Fe223 1.918 . S
Fe223 O222 1.918 . S
Fe223 O224 2.002 . S
Fe223 O233 1.976 . S
Fe223 O237 1.996 . S
Fe223 O240 1.997 . S
O224 Fe223 2.002 . S
O224 C241 1.295 . S
O225 Fe220 1.997 . S
O225 C241 1.235 . S
O226 Fe220 2.002 . S
O226 C227 1.295 . S
C227 O226 1.295 . S
C227 O229 1.235 . S
C228 O233 1.287 . S
C228 O234 1.255 . S
O229 Fe221 1.997 . S
O229 C227 1.235 . S
C230 O236 1.287 . S
C230 O237 1.255 . S
O231 Fe220 1.976 . S
O231 C238 1.287 . S
O232 Fe221 1.996 . S
O232 C238 1.255 . S
O233 Fe223 1.976 . S
O233 C228 1.287 . S
O234 Fe220 1.996 . S
O234 C228 1.255 . S
C235 O239 1.295 . S
C235 O240 1.235 . S
O236 Fe221 1.976 . S
O236 C230 1.287 . S
O237 Fe223 1.996 . S
O237 C230 1.255 . S
C238 O231 1.287 . S
C238 O232 1.255 . S
O239 Fe221 2.002 . S
O239 C235 1.295 . S
O240 Fe223 1.997 . S
O240 C235 1.235 . S
C241 O224 1.295 . S
C241 O225 1.235 . S
Fe242 O244 1.918 . S
Fe242 O247 1.997 . S
Fe242 O248 2.002 . S
Fe242 O253 1.976 1_556 S
Fe242 O256 1.996 1_556 S
Fe243 O244 1.918 . S
Fe243 O251 1.997 . S
Fe243 O254 1.996 . S
Fe243 O258 1.976 . S
Fe243 O261 2.002 . S
O244 Fe242 1.918 . S
O244 Fe243 1.918 . S
O244 Fe245 1.918 . S
Fe245 O244 1.918 . S
Fe245 O246 2.002 . S
Fe245 O255 1.954 1_556 S
Fe245 O259 1.996 . S
Fe245 O262 1.997 . S
O246 Fe245 2.002 . S
O246 C263 1.295 . S
O247 Fe242 1.997 . S
O247 C263 1.235 . S
O248 Fe242 2.002 . S
O248 C249 1.295 . S
C249 O248 1.295 . S
C249 O251 1.235 . S
C250 O255 1.303 . S
C250 O256 1.255 . S
O251 Fe243 1.997 . S
O251 C249 1.235 . S
C252 O258 1.287 . S
C252 O259 1.255 . S
O253 Fe242 1.976 1_554 S
O253 C260 1.287 . S
O254 Fe243 1.996 . S
O254 C260 1.255 1_556 S
O255 Fe245 1.954 1_554 S
O255 C250 1.303 . S
O256 Fe242 1.996 1_554 S
O256 C250 1.255 . S
C257 O261 1.295 . S
C257 O262 1.235 . S
O258 Fe243 1.976 . S
O258 C252 1.287 . S
O259 Fe245 1.996 . S
O259 C252 1.255 . S
C260 O253 1.287 . S
C260 O254 1.255 1_554 S
O261 Fe243 2.002 . S
O261 C257 1.295 . S
O262 Fe245 1.997 . S
O262 C257 1.235 . S
C263 O246 1.295 . S
C263 O247 1.235 . S
Fe264 O266 1.918 . S
Fe264 O269 1.997 . S
Fe264 O270 2.002 . S
Fe264 O275 1.976 . S
Fe264 O278 1.996 . S
Fe265 O266 1.918 . S
Fe265 O273 1.997 . S
Fe265 O276 1.996 . S
Fe265 O280 1.976 . S
Fe265 O283 2.002 . S
O266 Fe264 1.918 . S
O266 Fe265 1.918 . S
O266 Fe267 1.918 . S
Fe267 O266 1.918 . S
Fe267 O268 2.002 . S
Fe267 O277 1.976 . S
Fe267 O281 1.996 . S
Fe267 O284 1.997 . S
O268 Fe267 2.002 . S
O268 C285 1.295 . S
O269 Fe264 1.997 . S
O269 C285 1.235 . S
O270 Fe264 2.002 . S
O270 C271 1.295 . S
C271 O270 1.295 . S
C271 O273 1.235 . S
C272 O277 1.287 . S
C272 O278 1.255 . S
O273 Fe265 1.997 . S
O273 C271 1.235 . S
C274 O280 1.287 . S
C274 O281 1.255 . S
O275 Fe264 1.976 . S
O275 C282 1.287 . S
O276 Fe265 1.996 . S
O276 C282 1.255 . S
O277 Fe267 1.976 . S
O277 C272 1.287 . S
O278 Fe264 1.996 . S
O278 C272 1.255 . S
C279 O283 1.295 . S
C279 O284 1.235 . S
O280 Fe265 1.976 . S
O280 C274 1.287 . S
O281 Fe267 1.996 . S
O281 C274 1.255 . S
C282 O275 1.287 . S
C282 O276 1.255 . S
O283 Fe265 2.002 . S
O283 C279 1.295 . S
O284 Fe267 1.997 . S
O284 C279 1.235 . S
C285 O268 1.295 . S
C285 O269 1.235 . S
Fe286 O288 1.918 . S
Fe286 O291 1.997 . S
Fe286 O292 2.002 . S
Fe286 O297 1.976 . S
Fe286 O300 1.996 . S
Fe287 O288 1.918 . S
Fe287 O295 1.997 . S
Fe287 O298 1.996 . S
Fe287 O302 1.976 . S
Fe287 O305 2.002 . S
O288 Fe286 1.918 . S
O288 Fe287 1.918 . S
O288 Fe289 1.918 . S
Fe289 O288 1.918 . S
Fe289 O290 2.002 . S
Fe289 O299 1.976 . S
Fe289 O303 1.996 . S
Fe289 O306 1.997 . S
O290 Fe289 2.002 . S
O290 C307 1.295 . S
O291 Fe286 1.997 . S
O291 C307 1.235 . S
O292 Fe286 2.002 . S
O292 C293 1.295 . S
C293 O292 1.295 . S
C293 O295 1.235 . S
C294 O299 1.287 . S
C294 O300 1.255 . S
O295 Fe287 1.997 . S
O295 C293 1.235 . S
C296 O302 1.287 . S
C296 O303 1.255 . S
O297 Fe286 1.976 . S
O297 C304 1.287 . S
O298 Fe287 1.996 . S
O298 C304 1.255 . S
O299 Fe289 1.976 . S
O299 C294 1.287 . S
O300 Fe286 1.996 . S
O300 C294 1.255 . S
C301 O305 1.295 . S
C301 O306 1.235 . S
O302 Fe287 1.976 . S
O302 C296 1.287 . S
O303 Fe289 1.996 . S
O303 C296 1.255 . S
C304 O297 1.287 . S
C304 O298 1.255 . S
O305 Fe287 2.002 . S
O305 C301 1.295 . S
O306 Fe289 1.997 . S
O306 C301 1.235 . S
C307 O290 1.295 . S
C307 O291 1.235 . S
Fe308 O310 1.918 . S
Fe308 O313 1.997 . S
Fe308 O314 2.002 . S
Fe308 O319 1.976 . S
Fe308 O322 1.996 . S
Fe309 O310 1.918 . S
Fe309 O317 1.997 . S
Fe309 O320 1.996 . S
Fe309 O324 1.976 . S
Fe309 O327 2.002 . S
O310 Fe308 1.918 . S
O310 Fe309 1.918 . S
O310 Fe311 1.918 . S
Fe311 O310 1.918 . S
Fe311 O312 2.002 . S
Fe311 O321 1.976 . S
Fe311 O325 1.996 . S
Fe311 O328 1.997 . S
O312 Fe311 2.002 . S
O312 C329 1.295 . S
O313 Fe308 1.997 . S
O313 C329 1.235 . S
O314 Fe308 2.002 . S
O314 C315 1.295 . S
C315 O314 1.295 . S
C315 O317 1.235 . S
C316 O321 1.287 . S
C316 O322 1.255 . S
O317 Fe309 1.997 . S
O317 C315 1.235 . S
C318 O324 1.287 . S
C318 O325 1.255 . S
O319 Fe308 1.976 . S
O319 C326 1.287 . S
O320 Fe309 1.996 . S
O320 C326 1.255 . S
O321 Fe311 1.976 . S
O321 C316 1.287 . S
O322 Fe308 1.996 . S
O322 C316 1.255 . S
C323 O327 1.295 . S
C323 O328 1.235 . S
O324 Fe309 1.976 . S
O324 C318 1.287 . S
O325 Fe311 1.996 . S
O325 C318 1.255 . S
C326 O319 1.287 . S
C326 O320 1.255 . S
O327 Fe309 2.002 . S
O327 C323 1.295 . S
O328 Fe311 1.997 . S
O328 C323 1.235 . S
C329 O312 1.295 . S
C329 O313 1.235 . S
Fe330 O332 1.918 . S
Fe330 O335 1.997 . S
Fe330 O336 2.002 . S
Fe330 O341 1.954 1_554 S
Fe330 O344 1.996 . S
Fe331 O332 1.918 . S
Fe331 O339 1.997 . S
Fe331 O342 1.996 1_554 S
Fe331 O346 1.976 1_554 S
Fe331 O349 2.002 . S
O332 Fe330 1.918 . S
O332 Fe331 1.918 . S
O332 Fe333 1.918 . S
Fe333 O332 1.918 . S
Fe333 O334 2.002 . S
Fe333 O343 1.976 . S
Fe333 O347 1.996 . S
Fe333 O350 1.997 . S
O334 Fe333 2.002 . S
O334 C351 1.295 . S
O335 Fe330 1.997 . S
O335 C351 1.235 . S
O336 Fe330 2.002 . S
O336 C337 1.295 . S
C337 O336 1.295 . S
C337 O339 1.235 . S
C338 O343 1.287 . S
C338 O344 1.255 . S
O339 Fe331 1.997 . S
O339 C337 1.235 . S
C340 O346 1.287 . S
C340 O347 1.255 1_556 S
O341 Fe330 1.954 1_556 S
O341 C348 1.303 . S
O342 Fe331 1.996 1_556 S
O342 C348 1.255 . S
O343 Fe333 1.976 . S
O343 C338 1.287 . S
O344 Fe330 1.996 . S
O344 C338 1.255 . S
C345 O349 1.295 . S
C345 O350 1.235 . S
O346 Fe331 1.976 1_556 S
O346 C340 1.287 . S
O347 Fe333 1.996 . S
O347 C340 1.255 1_554 S
C348 O341 1.303 . S
C348 O342 1.255 . S
O349 Fe331 2.002 . S
O349 C345 1.295 . S
O350 Fe333 1.997 . S
O350 C345 1.235 . S
C351 O334 1.295 . S
C351 O335 1.235 . S
Fe352 O354 1.918 . S
Fe352 O357 1.997 . S
Fe352 O358 2.002 . S
Fe352 O363 1.976 . S
Fe352 O366 1.996 . S
Fe353 O354 1.918 . S
Fe353 O361 1.997 . S
Fe353 O364 1.996 . S
Fe353 O368 1.976 . S
Fe353 O371 2.002 . S
O354 Fe352 1.918 . S
O354 Fe353 1.918 . S
O354 Fe355 1.918 . S
Fe355 O354 1.918 . S
Fe355 O356 2.002 . S
Fe355 O365 1.976 . S
Fe355 O369 1.996 . S
Fe355 O372 1.997 . S
O356 Fe355 2.002 . S
O356 C373 1.295 . S
O357 Fe352 1.997 . S
O357 C373 1.235 . S
O358 Fe352 2.002 . S
O358 C359 1.295 . S
C359 O358 1.295 . S
C359 O361 1.235 . S
C360 O365 1.287 . S
C360 O366 1.255 . S
O361 Fe353 1.997 . S
O361 C359 1.235 . S
C362 O368 1.287 . S
C362 O369 1.255 . S
O363 Fe352 1.976 . S
O363 C370 1.287 . S
O364 Fe353 1.996 . S
O364 C370 1.255 . S
O365 Fe355 1.976 . S
O365 C360 1.287 . S
O366 Fe352 1.996 . S
O366 C360 1.255 . S
C367 O371 1.295 . S
C367 O372 1.235 . S
O368 Fe353 1.976 . S
O368 C362 1.287 . S
O369 Fe355 1.996 . S
O369 C362 1.255 . S
C370 O363 1.287 . S
C370 O364 1.255 . S
O371 Fe353 2.002 . S
O371 C367 1.295 . S
O372 Fe355 1.997 . S
O372 C367 1.235 . S
C373 O356 1.295 . S
C373 O357 1.235 . S
Fe374 O376 1.918 . S
Fe374 O379 1.997 . S
Fe374 O380 2.002 . S
Fe374 O385 1.976 . S
Fe374 O388 1.996 . S
Fe375 O376 1.918 . S
Fe375 O383 1.997 . S
Fe375 O386 1.996 1_554 S
Fe375 O390 1.976 1_554 S
Fe375 O393 2.002 . S
O376 Fe374 1.918 . S
O376 Fe375 1.918 . S
O376 Fe377 1.918 . S
Fe377 O376 1.918 . S
Fe377 O378 2.002 . S
Fe377 O387 1.976 . S
Fe377 O391 1.970 1_554 S
Fe377 O394 1.997 . S
O378 Fe377 2.002 . S
O378 C395 1.295 . S
O379 Fe374 1.997 . S
O379 C395 1.235 . S
O380 Fe374 2.002 . S
O380 C381 1.295 . S
C381 O380 1.295 . S
C381 O383 1.235 . S
C382 O387 1.287 . S
C382 O388 1.255 . S
O383 Fe375 1.997 . S
O383 C381 1.235 . S
C384 O390 1.287 . S
C384 O391 1.274 . S
O385 Fe374 1.976 . S
O385 C392 1.287 1_554 S
O386 Fe375 1.996 1_556 S
O386 C392 1.255 . S
O387 Fe377 1.976 . S
O387 C382 1.287 . S
O388 Fe374 1.996 . S
O388 C382 1.255 . S
C389 O393 1.295 . S
C389 O394 1.235 . S
O390 Fe375 1.976 1_556 S
O390 C384 1.287 . S
O391 Fe377 1.970 1_556 S
O391 C384 1.274 . S
C392 O385 1.287 1_556 S
C392 O386 1.255 . S
O393 Fe375 2.002 . S
O393 C389 1.295 . S
O394 Fe377 1.997 . S
O394 C389 1.235 . S
C395 O378 1.295 . S
C395 O379 1.235 . S
Fe396 O398 1.918 . S
Fe396 O401 1.997 . S
Fe396 O402 2.002 . S
Fe396 O407 1.976 . S
Fe396 O410 1.996 . S
Fe397 O398 1.918 . S
Fe397 O405 1.997 . S
Fe397 O408 1.996 . S
Fe397 O412 1.976 . S
Fe397 O415 2.002 . S
O398 Fe396 1.918 . S
O398 Fe397 1.918 . S
O398 Fe399 1.918 . S
Fe399 O398 1.918 . S
Fe399 O400 2.002 . S
Fe399 O409 1.976 . S
Fe399 O413 1.996 . S
Fe399 O416 1.997 . S
O400 Fe399 2.002 . S
O400 C417 1.295 . S
O401 Fe396 1.997 . S
O401 C417 1.235 . S
O402 Fe396 2.002 . S
O402 C403 1.295 . S
C403 O402 1.295 . S
C403 O405 1.235 . S
C404 O409 1.287 . S
C404 O410 1.255 . S
O405 Fe397 1.997 . S
O405 C403 1.235 . S
C406 O412 1.287 . S
C406 O413 1.255 . S
O407 Fe396 1.976 . S
O407 C414 1.287 . S
O408 Fe397 1.996 . S
O408 C414 1.255 . S
O409 Fe399 1.976 . S
O409 C404 1.287 . S
O410 Fe396 1.996 . S
O410 C404 1.255 . S
C411 O415 1.295 . S
C411 O416 1.235 . S
O412 Fe397 1.976 . S
O412 C406 1.287 . S
O413 Fe399 1.996 . S
O413 C406 1.255 . S
C414 O407 1.287 . S
C414 O408 1.255 . S
O415 Fe397 2.002 . S
O415 C411 1.295 . S
O416 Fe399 1.997 . S
O416 C411 1.235 . S
C417 O400 1.295 . S
C417 O401 1.235 . S
Fe418 O420 1.918 . S
Fe418 O423 1.997 . S
Fe418 O424 2.002 . S
Fe418 O429 1.976 . S
Fe418 O432 1.996 . S
Fe419 O420 1.918 . S
Fe419 O427 1.997 . S
Fe419 O430 1.996 . S
Fe419 O434 1.976 . S
Fe419 O437 2.002 . S
O420 Fe418 1.918 . S
O420 Fe419 1.918 . S
O420 Fe421 1.918 . S
Fe421 O420 1.918 . S
Fe421 O422 2.002 . S
Fe421 O431 1.976 . S
Fe421 O435 1.996 . S
Fe421 O438 1.997 . S
O422 Fe421 2.002 . S
O422 C439 1.295 . S
O423 Fe418 1.997 . S
O423 C439 1.235 . S
O424 Fe418 2.002 . S
O424 C425 1.295 . S
C425 O424 1.295 . S
C425 O427 1.235 . S
C426 O431 1.287 . S
C426 O432 1.255 . S
O427 Fe419 1.997 . S
O427 C425 1.235 . S
C428 O434 1.287 . S
C428 O435 1.255 . S
O429 Fe418 1.976 . S
O429 C436 1.287 . S
O430 Fe419 1.996 . S
O430 C436 1.255 . S
O431 Fe421 1.976 . S
O431 C426 1.287 . S
O432 Fe418 1.996 . S
O432 C426 1.255 . S
C433 O437 1.295 . S
C433 O438 1.235 . S
O434 Fe419 1.976 . S
O434 C428 1.287 . S
O435 Fe421 1.996 . S
O435 C428 1.255 . S
C436 O429 1.287 . S
C436 O430 1.255 . S
O437 Fe419 2.002 . S
O437 C433 1.295 . S
O438 Fe421 1.997 . S
O438 C433 1.235 . S
C439 O422 1.295 . S
C439 O423 1.235 . S
Fe440 O442 1.918 . S
Fe440 O445 1.997 . S
Fe440 O446 2.002 . S
Fe440 O451 1.976 . S
Fe440 O454 1.996 . S
Fe441 O442 1.918 . S
Fe441 O449 1.997 . S
Fe441 O452 1.996 . S
Fe441 O456 1.976 . S
Fe441 O459 2.002 . S
O442 Fe440 1.918 . S
O442 Fe441 1.918 . S
O442 Fe443 1.918 . S
Fe443 O442 1.918 . S
Fe443 O444 2.002 . S
Fe443 O453 1.976 . S
Fe443 O457 1.996 . S
Fe443 O460 1.997 . S
O444 Fe443 2.002 . S
O444 C461 1.295 . S
O445 Fe440 1.997 . S
O445 C461 1.235 . S
O446 Fe440 2.002 . S
O446 C447 1.295 . S
C447 O446 1.295 . S
C447 O449 1.235 . S
C448 O453 1.287 . S
C448 O454 1.255 . S
O449 Fe441 1.997 . S
O449 C447 1.235 . S
C450 O456 1.287 . S
C450 O457 1.255 . S
O451 Fe440 1.976 . S
O451 C458 1.287 . S
O452 Fe441 1.996 . S
O452 C458 1.255 . S
O453 Fe443 1.976 . S
O453 C448 1.287 . S
O454 Fe440 1.996 . S
O454 C448 1.255 . S
C455 O459 1.295 . S
C455 O460 1.235 . S
O456 Fe441 1.976 . S
O456 C450 1.287 . S
O457 Fe443 1.996 . S
O457 C450 1.255 . S
C458 O451 1.287 . S
C458 O452 1.255 . S
O459 Fe441 2.002 . S
O459 C455 1.295 . S
O460 Fe443 1.997 . S
O460 C455 1.235 . S
C461 O444 1.295 . S
C461 O445 1.235 . S
Fe462 O464 1.918 . S
Fe462 O467 1.997 . S
Fe462 O468 2.002 . S
Fe462 O473 1.976 1_556 S
Fe462 O476 1.996 1_556 S
Fe463 O464 1.918 . S
Fe463 O471 1.997 . S
Fe463 O474 1.970 1_556 S
Fe463 O478 1.976 . S
Fe463 O481 2.002 . S
O464 Fe462 1.918 . S
O464 Fe463 1.918 . S
O464 Fe465 1.918 . S
Fe465 O464 1.918 . S
Fe465 O466 2.002 . S
Fe465 O475 1.976 . S
Fe465 O479 1.996 . S
Fe465 O482 1.997 . S
O466 Fe465 2.002 . S
O466 C483 1.295 . S
O467 Fe462 1.997 . S
O467 C483 1.235 . S
O468 Fe462 2.002 . S
O468 C469 1.295 . S
C469 O468 1.295 . S
C469 O471 1.235 . S
C470 O475 1.287 1_554 S
C470 O476 1.255 . S
O471 Fe463 1.997 . S
O471 C469 1.235 . S
C472 O478 1.287 . S
C472 O479 1.255 . S
O473 Fe462 1.976 1_554 S
O473 C480 1.287 . S
O474 Fe463 1.970 1_554 S
O474 C480 1.274 . S
O475 Fe465 1.976 . S
O475 C470 1.287 1_556 S
O476 Fe462 1.996 1_554 S
O476 C470 1.255 . S
C477 O481 1.295 . S
C477 O482 1.235 . S
O478 Fe463 1.976 . S
O478 C472 1.287 . S
O479 Fe465 1.996 . S
O479 C472 1.255 . S
C480 O473 1.287 . S
C480 O474 1.274 . S
O481 Fe463 2.002 . S
O481 C477 1.295 . S
O482 Fe465 1.997 . S
O482 C477 1.235 . S
C483 O466 1.295 . S
C483 O467 1.235 . S
Fe484 O486 1.918 . S
Fe484 O489 1.997 . S
Fe484 O490 2.002 . S
Fe484 O495 1.976 . S
Fe484 O498 1.996 . S
Fe485 O486 1.918 . S
Fe485 O493 1.997 . S
Fe485 O496 1.996 . S
Fe485 O500 1.976 . S
Fe485 O503 2.002 . S
O486 Fe484 1.918 . S
O486 Fe485 1.918 . S
O486 Fe487 1.918 . S
Fe487 O486 1.918 . S
Fe487 O488 2.002 . S
Fe487 O497 1.976 . S
Fe487 O501 1.996 . S
Fe487 O504 1.997 . S
O488 Fe487 2.002 . S
O488 C505 1.295 . S
O489 Fe484 1.997 . S
O489 C505 1.235 . S
O490 Fe484 2.002 . S
O490 C491 1.295 . S
C491 O490 1.295 . S
C491 O493 1.235 . S
C492 O497 1.287 . S
C492 O498 1.255 . S
O493 Fe485 1.997 . S
O493 C491 1.235 . S
C494 O500 1.287 . S
C494 O501 1.255 . S
O495 Fe484 1.976 . S
O495 C502 1.287 . S
O496 Fe485 1.996 . S
O496 C502 1.255 . S
O497 Fe487 1.976 . S
O497 C492 1.287 . S
O498 Fe484 1.996 . S
O498 C492 1.255 . S
C499 O503 1.295 . S
C499 O504 1.235 . S
O500 Fe485 1.976 . S
O500 C494 1.287 . S
O501 Fe487 1.996 . S
O501 C494 1.255 . S
C502 O495 1.287 . S
C502 O496 1.255 . S
O503 Fe485 2.002 . S
O503 C499 1.295 . S
O504 Fe487 1.997 . S
O504 C499 1.235 . S
C505 O488 1.295 . S
C505 O489 1.235 . S
Fe506 O508 1.918 . S
Fe506 O511 1.997 . S
Fe506 O512 2.002 . S
Fe506 O517 1.976 . S
Fe506 O520 1.996 . S
Fe507 O508 1.918 . S
Fe507 O515 1.997 . S
Fe507 O518 1.996 . S
Fe507 O522 1.976 . S
Fe507 O525 2.002 . S
O508 Fe506 1.918 . S
O508 Fe507 1.918 . S
O508 Fe509 1.918 . S
Fe509 O508 1.918 . S
Fe509 O510 2.002 . S
Fe509 O519 1.976 . S
Fe509 O523 1.996 . S
Fe509 O526 1.997 . S
O510 Fe509 2.002 . S
O510 C527 1.295 . S
O511 Fe506 1.997 . S
O511 C527 1.235 . S
O512 Fe506 2.002 . S
O512 C513 1.295 . S
C513 O512 1.295 . S
C513 O515 1.235 . S
C514 O519 1.287 . S
C514 O520 1.255 . S
O515 Fe507 1.997 . S
O515 C513 1.235 . S
C516 O522 1.287 . S
C516 O523 1.255 . S
O517 Fe506 1.976 . S
O517 C524 1.287 . S
O518 Fe507 1.996 . S
O518 C524 1.255 . S
O519 Fe509 1.976 . S
O519 C514 1.287 . S
O520 Fe506 1.996 . S
O520 C514 1.255 . S
C521 O525 1.295 . S
C521 O526 1.235 . S
O522 Fe507 1.976 . S
O522 C516 1.287 . S
O523 Fe509 1.996 . S
O523 C516 1.255 . S
C524 O517 1.287 . S
C524 O518 1.255 . S
O525 Fe507 2.002 . S
O525 C521 1.295 . S
O526 Fe509 1.997 . S
O526 C521 1.235 . S
C527 O510 1.295 . S
C527 O511 1.235 . S
Fe528 O530 1.918 . S
Fe528 O533 1.997 . S
Fe528 O534 2.002 . S
Fe528 O539 1.976 . S
Fe528 O542 1.996 . S
Fe529 O530 1.918 . S
Fe529 O537 1.997 . S
Fe529 O540 1.996 . S
Fe529 O544 1.976 . S
Fe529 O547 2.002 . S
O530 Fe528 1.918 . S
O530 Fe529 1.918 . S
O530 Fe531 1.918 . S
Fe531 O530 1.918 . S
Fe531 O532 2.002 . S
Fe531 O541 1.976 . S
Fe531 O545 1.996 . S
Fe531 O548 1.997 . S
O532 Fe531 2.002 . S
O532 C549 1.295 . S
O533 Fe528 1.997 . S
O533 C549 1.235 . S
O534 Fe528 2.002 . S
O534 C535 1.295 . S
C535 O534 1.295 . S
C535 O537 1.235 . S
C536 O541 1.287 . S
C536 O542 1.255 . S
O537 Fe529 1.997 . S
O537 C535 1.235 . S
C538 O544 1.287 . S
C538 O545 1.255 . S
O539 Fe528 1.976 . S
O539 C546 1.287 . S
O540 Fe529 1.996 . S
O540 C546 1.255 . S
O541 Fe531 1.976 . S
O541 C536 1.287 . S
O542 Fe528 1.996 . S
O542 C536 1.255 . S
C543 O547 1.295 . S
C543 O548 1.235 . S
O544 Fe529 1.976 . S
O544 C538 1.287 . S
O545 Fe531 1.996 . S
O545 C538 1.255 . S
C546 O539 1.287 . S
C546 O540 1.255 . S
O547 Fe529 2.002 . S
O547 C543 1.295 . S
O548 Fe531 1.997 . S
O548 C543 1.235 . S
C549 O532 1.295 . S
C549 O533 1.235 . S
Fe550 O552 1.918 . S
Fe550 O555 1.997 . S
Fe550 O556 2.002 . S
Fe550 O561 1.954 1_556 S
Fe550 O564 1.996 . S
Fe551 O552 1.918 . S
Fe551 O559 1.997 . S
Fe551 O562 1.996 1_556 S
Fe551 O566 1.976 1_556 S
Fe551 O569 2.002 . S
O552 Fe550 1.918 . S
O552 Fe551 1.918 . S
O552 Fe553 1.918 . S
Fe553 O552 1.918 . S
Fe553 O554 2.002 . S
Fe553 O563 1.976 . S
Fe553 O567 1.996 . S
Fe553 O570 1.997 . S
O554 Fe553 2.002 . S
O554 C571 1.295 . S
O555 Fe550 1.997 . S
O555 C571 1.235 . S
O556 Fe550 2.002 . S
O556 C557 1.295 . S
C557 O556 1.295 . S
C557 O559 1.235 . S
C558 O563 1.287 . S
C558 O564 1.255 . S
O559 Fe551 1.997 . S
O559 C557 1.235 . S
C560 O566 1.287 . S
C560 O567 1.255 1_554 S
O561 Fe550 1.954 1_554 S
O561 C568 1.303 . S
O562 Fe551 1.996 1_554 S
O562 C568 1.255 . S
O563 Fe553 1.976 . S
O563 C558 1.287 . S
O564 Fe550 1.996 . S
O564 C558 1.255 . S
C565 O569 1.295 . S
C565 O570 1.235 . S
O566 Fe551 1.976 1_554 S
O566 C560 1.287 . S
O567 Fe553 1.996 . S
O567 C560 1.255 1_556 S
C568 O561 1.303 . S
C568 O562 1.255 . S
O569 Fe551 2.002 . S
O569 C565 1.295 . S
O570 Fe553 1.997 . S
O570 C565 1.235 . S
C571 O554 1.295 . S
C571 O555 1.235 . S
Fe572 O574 1.918 . S
Fe572 O577 1.997 . S
Fe572 O578 2.002 . S
Fe572 O583 1.976 . S
Fe572 O586 1.996 . S
Fe573 O574 1.918 . S
Fe573 O581 1.997 . S
Fe573 O584 1.996 . S
Fe573 O588 1.976 . S
Fe573 O591 2.002 . S
O574 Fe572 1.918 . S
O574 Fe573 1.918 . S
O574 Fe575 1.918 . S
Fe575 O574 1.918 . S
Fe575 O576 2.002 . S
Fe575 O585 1.976 . S
Fe575 O589 1.996 . S
Fe575 O592 1.997 . S
O576 Fe575 2.002 . S
O576 C593 1.295 . S
O577 Fe572 1.997 . S
O577 C593 1.235 . S
O578 Fe572 2.002 . S
O578 C579 1.295 . S
C579 O578 1.295 . S
C579 O581 1.235 . S
C580 O585 1.287 . S
C580 O586 1.255 . S
O581 Fe573 1.997 . S
O581 C579 1.235 . S
C582 O588 1.287 . S
C582 O589 1.255 . S
O583 Fe572 1.976 . S
O583 C590 1.287 . S
O584 Fe573 1.996 . S
O584 C590 1.255 . S
O585 Fe575 1.976 . S
O585 C580 1.287 . S
O586 Fe572 1.996 . S
O586 C580 1.255 . S
C587 O591 1.295 . S
C587 O592 1.235 . S
O588 Fe573 1.976 . S
O588 C582 1.287 . S
O589 Fe575 1.996 . S
O589 C582 1.255 . S
C590 O583 1.287 . S
C590 O584 1.255 . S
O591 Fe573 2.002 . S
O591 C587 1.295 . S
O592 Fe575 1.997 . S
O592 C587 1.235 . S
C593 O576 1.295 . S
C593 O577 1.235 . S
Fe594 O596 1.918 . S
Fe594 O599 1.997 . S
Fe594 O600 2.002 . S
Fe594 O605 1.976 . S
Fe594 O608 1.996 . S
Fe595 O596 1.918 . S
Fe595 O603 1.997 . S
Fe595 O606 1.996 . S
Fe595 O610 1.976 . S
Fe595 O613 2.002 . S
O596 Fe594 1.918 . S
O596 Fe595 1.918 . S
O596 Fe597 1.918 . S
Fe597 O596 1.918 . S
Fe597 O598 2.002 . S
Fe597 O607 1.976 . S
Fe597 O611 1.996 . S
Fe597 O614 1.997 . S
O598 Fe597 2.002 . S
O598 C615 1.295 . S
O599 Fe594 1.997 . S
O599 C615 1.235 . S
O600 Fe594 2.002 . S
O600 C601 1.295 . S
C601 O600 1.295 . S
C601 O603 1.235 . S
C602 O607 1.287 . S
C602 O608 1.255 . S
O603 Fe595 1.997 . S
O603 C601 1.235 . S
C604 O610 1.287 . S
C604 O611 1.255 . S
O605 Fe594 1.976 . S
O605 C612 1.287 . S
O606 Fe595 1.996 . S
O606 C612 1.255 . S
O607 Fe597 1.976 . S
O607 C602 1.287 . S
O608 Fe594 1.996 . S
O608 C602 1.255 . S
C609 O613 1.295 . S
C609 O614 1.235 . S
O610 Fe595 1.976 . S
O610 C604 1.287 . S
O611 Fe597 1.996 . S
O611 C604 1.255 . S
C612 O605 1.287 . S
C612 O606 1.255 . S
O613 Fe595 2.002 . S
O613 C609 1.295 . S
O614 Fe597 1.997 . S
O614 C609 1.235 . S
C615 O598 1.295 . S
C615 O599 1.235 . S
Fe616 O618 1.918 . S
Fe616 O621 1.997 . S
Fe616 O622 2.002 . S
Fe616 O627 1.976 . S
Fe616 O630 1.996 . S
Fe617 O618 1.918 . S
Fe617 O625 1.997 . S
Fe617 O628 1.996 . S
Fe617 O632 1.976 . S
Fe617 O635 2.002 . S
O618 Fe616 1.918 . S
O618 Fe617 1.918 . S
O618 Fe619 1.918 . S
Fe619 O618 1.918 . S
Fe619 O620 2.002 . S
Fe619 O629 1.976 . S
Fe619 O633 1.996 . S
Fe619 O636 1.997 . S
O620 Fe619 2.002 . S
O620 C637 1.295 . S
O621 Fe616 1.997 . S
O621 C637 1.235 . S
O622 Fe616 2.002 . S
O622 C623 1.295 . S
C623 O622 1.295 . S
C623 O625 1.235 . S
C624 O629 1.287 . S
C624 O630 1.255 . S
O625 Fe617 1.997 . S
O625 C623 1.235 . S
C626 O632 1.287 . S
C626 O633 1.255 . S
O627 Fe616 1.976 . S
O627 C634 1.287 . S
O628 Fe617 1.996 . S
O628 C634 1.255 . S
O629 Fe619 1.976 . S
O629 C624 1.287 . S
O630 Fe616 1.996 . S
O630 C624 1.255 . S
C631 O635 1.295 . S
C631 O636 1.235 . S
O632 Fe617 1.976 . S
O632 C626 1.287 . S
O633 Fe619 1.996 . S
O633 C626 1.255 . S
C634 O627 1.287 . S
C634 O628 1.255 . S
O635 Fe617 2.002 . S
O635 C631 1.295 . S
O636 Fe619 1.997 . S
O636 C631 1.235 . S
C637 O620 1.295 . S
C637 O621 1.235 . S
Fe638 O640 1.918 . S
Fe638 O643 1.997 . S
Fe638 O644 2.002 . S
Fe638 O649 1.976 . S
Fe638 O652 1.996 . S
Fe639 O640 1.918 . S
Fe639 O647 1.997 . S
Fe639 O650 1.996 . S
Fe639 O654 1.954 1_554 S
Fe639 O657 2.002 . S
O640 Fe638 1.918 . S
O640 Fe639 1.918 . S
O640 Fe641 1.918 . S
Fe641 O640 1.918 . S
Fe641 O642 2.002 . S
Fe641 O651 1.976 1_554 S
Fe641 O655 1.996 1_554 S
Fe641 O658 1.997 . S
O642 Fe641 2.002 . S
O642 C659 1.295 . S
O643 Fe638 1.997 . S
O643 C659 1.235 . S
O644 Fe638 2.002 . S
O644 C645 1.295 . S
C645 O644 1.295 . S
C645 O647 1.235 . S
C646 O651 1.287 . S
C646 O652 1.255 1_556 S
O647 Fe639 1.997 . S
O647 C645 1.235 . S
C648 O654 1.303 . S
C648 O655 1.255 . S
O649 Fe638 1.976 . S
O649 C656 1.287 . S
O650 Fe639 1.996 . S
O650 C656 1.255 . S
O651 Fe641 1.976 1_556 S
O651 C646 1.287 . S
O652 Fe638 1.996 . S
O652 C646 1.255 1_554 S
C653 O657 1.295 . S
C653 O658 1.235 . S
O654 Fe639 1.954 1_556 S
O654 C648 1.303 . S
O655 Fe641 1.996 1_556 S
O655 C648 1.255 . S
C656 O649 1.287 . S
C656 O650 1.255 . S
O657 Fe639 2.002 . S
O657 C653 1.295 . S
O658 Fe641 1.997 . S
O658 C653 1.235 . S
C659 O642 1.295 . S
C659 O643 1.235 . S
Fe660 O662 1.918 . S
Fe660 O665 1.997 . S
Fe660 O666 2.002 . S
Fe660 O671 1.976 . S
Fe660 O674 1.996 . S
Fe661 O662 1.918 . S
Fe661 O669 1.997 . S
Fe661 O672 1.996 . S
Fe661 O676 1.976 . S
Fe661 O679 2.002 . S
O662 Fe660 1.918 . S
O662 Fe661 1.918 . S
O662 Fe663 1.918 . S
Fe663 O662 1.918 . S
Fe663 O664 2.002 . S
Fe663 O673 1.976 . S
Fe663 O677 1.996 . S
Fe663 O680 1.997 . S
O664 Fe663 2.002 . S
O664 C681 1.295 . S
O665 Fe660 1.997 . S
O665 C681 1.235 . S
O666 Fe660 2.002 . S
O666 C667 1.295 . S
C667 O666 1.295 . S
C667 O669 1.235 . S
C668 O673 1.287 . S
C668 O674 1.255 . S
O669 Fe661 1.997 . S
O669 C667 1.235 . S
C670 O676 1.287 . S
C670 O677 1.255 . S
O671 Fe660 1.976 . S
O671 C678 1.287 . S
O672 Fe661 1.996 . S
O672 C678 1.255 . S
O673 Fe663 1.976 . S
O673 C668 1.287 . S
O674 Fe660 1.996 . S
O674 C668 1.255 . S
C675 O679 1.295 . S
C675 O680 1.235 . S
O676 Fe661 1.976 . S
O676 C670 1.287 . S
O677 Fe663 1.996 . S
O677 C670 1.255 . S
C678 O671 1.287 . S
C678 O672 1.255 . S
O679 Fe661 2.002 . S
O679 C675 1.295 . S
O680 Fe663 1.997 . S
O680 C675 1.235 . S
C681 O664 1.295 . S
C681 O665 1.235 . S
Fe682 O684 1.918 . S
Fe682 O687 1.997 . S
Fe682 O688 2.002 . S
Fe682 O693 1.976 . S
Fe682 O696 1.996 . S
Fe683 O684 1.918 . S
Fe683 O691 1.997 . S
Fe683 O694 1.996 . S
Fe683 O698 1.976 . S
Fe683 O701 2.002 . S
O684 Fe682 1.918 . S
O684 Fe683 1.918 . S
O684 Fe685 1.918 . S
Fe685 O684 1.918 . S
Fe685 O686 2.002 . S
Fe685 O695 1.976 . S
Fe685 O699 1.996 . S
Fe685 O702 1.997 . S
O686 Fe685 2.002 . S
O686 C703 1.295 . S
O687 Fe682 1.997 . S
O687 C703 1.235 . S
O688 Fe682 2.002 . S
O688 C689 1.295 . S
C689 O688 1.295 . S
C689 O691 1.235 . S
C690 O695 1.287 . S
C690 O696 1.255 . S
O691 Fe683 1.997 . S
O691 C689 1.235 . S
C692 O698 1.287 . S
C692 O699 1.255 . S
O693 Fe682 1.976 . S
O693 C700 1.287 . S
O694 Fe683 1.996 . S
O694 C700 1.255 . S
O695 Fe685 1.976 . S
O695 C690 1.287 . S
O696 Fe682 1.996 . S
O696 C690 1.255 . S
C697 O701 1.295 . S
C697 O702 1.235 . S
O698 Fe683 1.976 . S
O698 C692 1.287 . S
O699 Fe685 1.996 . S
O699 C692 1.255 . S
C700 O693 1.287 . S
C700 O694 1.255 . S
O701 Fe683 2.002 . S
O701 C697 1.295 . S
O702 Fe685 1.997 . S
O702 C697 1.235 . S
C703 O686 1.295 . S
C703 O687 1.235 . S
C704 C705 1.349 . S
C704 C706 1.327 . S
C704 H729 0.950 . S
C705 C704 1.349 . S
C705 C721 1.349 . S
C706 C704 1.327 . S
C706 C725 1.429 . S
C706 H730 0.950 . S
C707 C724 1.574 1_545 S
C707 C726 1.368 . S
C707 H731 0.949 . S
H708 C712 0.949 . S
C709 C710 1.349 . S
C709 C711 1.327 . S
C709 H732 0.950 . S
C710 C709 1.349 . S
C710 C722 1.349 . S
C711 C709 1.327 . S
C711 C727 1.429 . S
C711 H733 0.950 . S
C712 H708 0.949 . S
C712 C720 1.574 1_565 S
C712 C728 1.368 . S
H713 C721 0.950 . S
H714 C719 0.950 . S
H715 C720 0.949 . S
H716 C722 0.950 . S
H717 C723 0.950 . S
H718 C724 0.949 . S
C719 H714 0.950 . S
C719 C721 1.327 . S
C719 C725 1.429 . S
C720 C712 1.574 1_545 S
C720 H715 0.949 . S
C720 C726 1.368 . S
C721 C705 1.349 . S
C721 H713 0.950 . S
C721 C719 1.327 . S
C722 C710 1.349 . S
C722 H716 0.950 . S
C722 C723 1.327 . S
C723 H717 0.950 . S
C723 C722 1.327 . S
C723 C727 1.429 . S
C724 C707 1.574 1_565 S
C724 H718 0.949 . S
C724 C728 1.368 . S
C725 C706 1.429 . S
C725 C719 1.429 . S
C725 C726 1.523 . S
C726 C707 1.368 . S
C726 C720 1.368 . S
C726 C725 1.523 . S
C727 C711 1.429 . S
C727 C723 1.429 . S
C727 C728 1.523 . S
C728 C712 1.368 . S
C728 C724 1.368 . S
C728 C727 1.523 . S
H729 C704 0.950 . S
H730 C706 0.950 . S
H731 C707 0.949 . S
H732 C709 0.950 . S
H733 C711 0.950 . S
C734 C735 1.349 . S
C734 C736 1.327 . S
C734 H759 0.950 . S
C735 C734 1.349 . S
C735 C751 1.349 . S
C736 C734 1.327 . S
C736 C755 1.429 . S
C736 H760 0.950 . S
C737 C754 1.574 . S
C737 C756 1.368 . S
C737 H761 0.949 . S
H738 C742 0.949 . S
C739 C740 1.349 . S
C739 C741 1.327 . S
C739 H762 0.950 . S
C740 C739 1.349 . S
C740 C752 1.349 . S
C741 C739 1.327 . S
C741 C757 1.429 . S
C741 H763 0.950 . S
C742 H738 0.949 . S
C742 C750 1.574 . S
C742 C758 1.368 . S
H743 C751 0.950 . S
H744 C749 0.950 . S
H745 C750 0.949 . S
H746 C752 0.950 . S
H747 C753 0.950 . S
H748 C754 0.949 . S
C749 H744 0.950 . S
C749 C751 1.327 . S
C749 C755 1.429 . S
C750 C742 1.574 . S
C750 H745 0.949 . S
C750 C756 1.368 . S
C751 C735 1.349 . S
C751 H743 0.950 . S
C751 C749 1.327 . S
C752 C740 1.349 . S
C752 H746 0.950 . S
C752 C753 1.327 . S
C753 H747 0.950 . S
C753 C752 1.327 . S
C753 C757 1.429 . S
C754 C737 1.574 . S
C754 H748 0.949 . S
C754 C758 1.368 . S
C755 C736 1.429 . S
C755 C749 1.429 . S
C755 C756 1.523 . S
C756 C737 1.368 . S
C756 C750 1.368 . S
C756 C755 1.523 . S
C757 C741 1.429 . S
C757 C753 1.429 . S
C757 C758 1.523 . S
C758 C742 1.368 . S
C758 C754 1.368 . S
C758 C757 1.523 . S
H759 C734 0.950 . S
H760 C736 0.950 . S
H761 C737 0.949 . S
H762 C739 0.950 . S
H763 C741 0.950 . S
C764 C765 1.349 . S
C764 C766 1.327 . S
C764 H789 0.950 . S
C765 C764 1.349 . S
C765 C781 1.349 . S
C766 C764 1.327 . S
C766 C785 1.429 . S
C766 H790 0.950 . S
C767 C784 1.574 1_545 S
C767 C786 1.368 . S
C767 H791 0.949 . S
H768 C772 0.949 . S
C769 C770 1.349 . S
C769 C771 1.327 . S
C769 H792 0.950 . S
C770 C769 1.349 . S
C770 C782 1.349 . S
C771 C769 1.327 . S
C771 C787 1.429 . S
C771 H793 0.950 . S
C772 H768 0.949 . S
C772 C780 1.574 1_565 S
C772 C788 1.368 . S
H773 C781 0.950 . S
H774 C779 0.950 . S
H775 C780 0.949 . S
H776 C782 0.950 . S
H777 C783 0.950 . S
H778 C784 0.949 . S
C779 H774 0.950 . S
C779 C781 1.327 . S
C779 C785 1.429 . S
C780 C772 1.574 1_545 S
C780 H775 0.949 . S
C780 C786 1.368 . S
C781 C765 1.349 . S
C781 H773 0.950 . S
C781 C779 1.327 . S
C782 C770 1.349 . S
C782 H776 0.950 . S
C782 C783 1.327 . S
C783 H777 0.950 . S
C783 C782 1.327 . S
C783 C787 1.429 . S
C784 C767 1.574 1_565 S
C784 H778 0.949 . S
C784 C788 1.368 . S
C785 C766 1.429 . S
C785 C779 1.429 . S
C785 C786 1.523 . S
C786 C767 1.368 . S
C786 C780 1.368 . S
C786 C785 1.523 . S
C787 C771 1.429 . S
C787 C783 1.429 . S
C787 C788 1.523 . S
C788 C772 1.368 . S
C788 C784 1.368 . S
C788 C787 1.523 . S
H789 C764 0.950 . S
H790 C766 0.950 . S
H791 C767 0.949 . S
H792 C769 0.950 . S
H793 C771 0.950 . S
C794 C795 1.349 . S
C794 C796 1.327 . S
C794 H819 0.950 . S
C795 C794 1.349 . S
C795 C811 1.349 . S
C796 C794 1.327 . S
C796 C815 1.429 . S
C796 H820 0.950 1_556 S
C797 C814 1.574 . S
C797 C816 1.368 . S
C797 H821 0.949 . S
H798 C802 0.949 . S
C799 C800 1.349 . S
C799 C801 1.327 . S
C799 H822 0.950 . S
C800 C799 1.349 . S
C800 C812 1.349 . S
C801 C799 1.327 . S
C801 C817 1.429 . S
C801 H823 0.950 1_554 S
C802 H798 0.949 . S
C802 C810 1.574 . S
C802 C818 1.368 . S
H803 C811 0.950 . S
H804 C809 0.950 . S
H805 C810 0.949 . S
H806 C812 0.950 . S
H807 C813 0.950 . S
H808 C814 0.949 . S
C809 H804 0.950 . S
C809 C811 1.327 . S
C809 C815 1.429 . S
C810 C802 1.574 . S
C810 H805 0.949 . S
C810 C816 1.368 1_554 S
C811 C795 1.349 . S
C811 H803 0.950 . S
C811 C809 1.327 . S
C812 C800 1.349 . S
C812 H806 0.950 . S
C812 C813 1.327 . S
C813 H807 0.950 . S
C813 C812 1.327 . S
C813 C817 1.429 . S
C814 C797 1.574 . S
C814 H808 0.949 . S
C814 C818 1.368 1_556 S
C815 C796 1.429 . S
C815 C809 1.429 . S
C815 C816 1.523 . S
C816 C797 1.368 . S
C816 C810 1.368 1_556 S
C816 C815 1.523 . S
C817 C801 1.429 . S
C817 C813 1.429 . S
C817 C818 1.523 . S
C818 C802 1.368 . S
C818 C814 1.368 1_554 S
C818 C817 1.523 . S
H819 C794 0.950 . S
H820 C796 0.950 1_554 S
H821 C797 0.949 . S
H822 C799 0.950 . S
H823 C801 0.950 1_556 S
C824 C825 1.349 . S
C824 C826 1.327 . S
C824 H849 0.950 . S
C825 C824 1.349 . S
C825 C841 1.349 . S
C826 C824 1.327 . S
C826 C845 1.429 . S
C826 H850 0.950 . S
C827 C844 1.574 1_565 S
C827 C846 1.368 . S
C827 H851 0.949 . S
H828 C832 0.949 . S
C829 C830 1.349 . S
C829 C831 1.327 . S
C829 H852 0.950 . S
C830 C829 1.349 . S
C830 C842 1.349 . S
C831 C829 1.327 . S
C831 C847 1.429 . S
C831 H853 0.950 . S
C832 H828 0.949 . S
C832 C840 1.574 1_545 S
C832 C848 1.368 . S
H833 C841 0.950 . S
H834 C839 0.950 . S
H835 C840 0.949 . S
H836 C842 0.950 . S
H837 C843 0.950 . S
H838 C844 0.949 . S
C839 H834 0.950 . S
C839 C841 1.327 . S
C839 C845 1.429 . S
C840 C832 1.574 1_565 S
C840 H835 0.949 . S
C840 C846 1.368 . S
C841 C825 1.349 . S
C841 H833 0.950 . S
C841 C839 1.327 . S
C842 C830 1.349 . S
C842 H836 0.950 . S
C842 C843 1.327 . S
C843 H837 0.950 . S
C843 C842 1.327 . S
C843 C847 1.429 . S
C844 C827 1.574 1_545 S
C844 H838 0.949 . S
C844 C848 1.368 . S
C845 C826 1.429 . S
C845 C839 1.429 . S
C845 C846 1.523 . S
C846 C827 1.368 . S
C846 C840 1.368 . S
C846 C845 1.523 . S
C847 C831 1.429 . S
C847 C843 1.429 . S
C847 C848 1.523 . S
C848 C832 1.368 . S
C848 C844 1.368 . S
C848 C847 1.523 . S
H849 C824 0.950 . S
H850 C826 0.950 . S
H851 C827 0.949 . S
H852 C829 0.950 . S
H853 C831 0.950 . S
C854 C855 1.349 . S
C854 C856 1.327 . S
C854 H879 0.950 . S
C855 C854 1.349 . S
C855 C871 1.349 . S
C856 C854 1.327 . S
C856 C875 1.429 . S
C856 H880 0.950 . S
C857 C874 1.574 . S
C857 C876 1.368 . S
C857 H881 0.949 . S
H858 C862 0.949 . S
C859 C860 1.349 . S
C859 C861 1.327 . S
C859 H882 0.950 . S
C860 C859 1.349 . S
C860 C872 1.349 . S
C861 C859 1.327 . S
C861 C877 1.429 . S
C861 H883 0.950 . S
C862 H858 0.949 . S
C862 C870 1.574 . S
C862 C878 1.368 . S
H863 C871 0.950 . S
H864 C869 0.950 . S
H865 C870 0.949 . S
H866 C872 0.950 . S
H867 C873 0.950 . S
H868 C874 0.949 . S
C869 H864 0.950 . S
C869 C871 1.327 . S
C869 C875 1.429 . S
C870 C862 1.574 . S
C870 H865 0.949 . S
C870 C876 1.368 . S
C871 C855 1.349 . S
C871 H863 0.950 . S
C871 C869 1.327 . S
C872 C860 1.349 . S
C872 H866 0.950 . S
C872 C873 1.327 . S
C873 H867 0.950 . S
C873 C872 1.327 . S
C873 C877 1.429 . S
C874 C857 1.574 . S
C874 H868 0.949 . S
C874 C878 1.368 . S
C875 C856 1.429 . S
C875 C869 1.429 . S
C875 C876 1.523 . S
C876 C857 1.368 . S
C876 C870 1.368 . S
C876 C875 1.523 . S
C877 C861 1.429 . S
C877 C873 1.429 . S
C877 C878 1.523 . S
C878 C862 1.368 . S
C878 C874 1.368 . S
C878 C877 1.523 . S
H879 C854 0.950 . S
H880 C856 0.950 . S
H881 C857 0.949 . S
H882 C859 0.950 . S
H883 C861 0.950 . S
C884 C885 1.349 . S
C884 C886 1.327 . S
C884 H909 0.950 . S
C885 C884 1.349 . S
C885 C901 1.349 . S
C886 C884 1.327 . S
C886 C905 1.429 . S
C886 H910 0.950 . S
C887 C904 1.574 1_565 S
C887 C906 1.368 . S
C887 H911 0.949 . S
H888 C892 0.949 . S
C889 C890 1.349 . S
C889 C891 1.327 . S
C889 H912 0.950 . S
C890 C889 1.349 . S
C890 C902 1.349 . S
C891 C889 1.327 . S
C891 C907 1.429 . S
C891 H913 0.950 . S
C892 H888 0.949 . S
C892 C900 1.574 1_545 S
C892 C908 1.368 . S
H893 C901 0.950 . S
H894 C899 0.950 . S
H895 C900 0.949 . S
H896 C902 0.950 . S
H897 C903 0.950 . S
H898 C904 0.949 . S
C899 H894 0.950 . S
C899 C901 1.327 . S
C899 C905 1.429 . S
C900 C892 1.574 1_565 S
C900 H895 0.949 . S
C900 C906 1.368 . S
C901 C885 1.349 . S
C901 H893 0.950 . S
C901 C899 1.327 . S
C902 C890 1.349 . S
C902 H896 0.950 . S
C902 C903 1.327 . S
C903 H897 0.950 . S
C903 C902 1.327 . S
C903 C907 1.429 . S
C904 C887 1.574 1_545 S
C904 H898 0.949 . S
C904 C908 1.368 . S
C905 C886 1.429 . S
C905 C899 1.429 . S
C905 C906 1.523 . S
C906 C887 1.368 . S
C906 C900 1.368 . S
C906 C905 1.523 . S
C907 C891 1.429 . S
C907 C903 1.429 . S
C907 C908 1.523 . S
C908 C892 1.368 . S
C908 C904 1.368 . S
C908 C907 1.523 . S
H909 C884 0.950 . S
H910 C886 0.950 . S
H911 C887 0.949 . S
H912 C889 0.950 . S
H913 C891 0.950 . S
C914 C915 1.349 . S
C914 C916 1.327 . S
C914 H939 0.950 . S
C915 C914 1.349 . S
C915 C931 1.349 . S
C916 C914 1.327 . S
C916 C935 1.429 . S
C916 H940 0.950 1_554 S
C917 C934 1.574 . S
C917 C936 1.368 . S
C917 H941 0.949 . S
H918 C922 0.949 . S
C919 C920 1.349 . S
C919 C921 1.327 . S
C919 H942 0.950 . S
C920 C919 1.349 . S
C920 C932 1.349 . S
C921 C919 1.327 . S
C921 C937 1.429 . S
C921 H943 0.950 1_556 S
C922 H918 0.949 . S
C922 C930 1.574 . S
C922 C938 1.368 . S
H923 C931 0.950 . S
H924 C929 0.950 . S
H925 C930 0.949 . S
H926 C932 0.950 . S
H927 C933 0.950 . S
H928 C934 0.949 . S
C929 H924 0.950 . S
C929 C931 1.327 . S
C929 C935 1.429 . S
C930 C922 1.574 . S
C930 H925 0.949 . S
C930 C936 1.368 1_556 S
C931 C915 1.349 . S
C931 H923 0.950 . S
C931 C929 1.327 . S
C932 C920 1.349 . S
C932 H926 0.950 . S
C932 C933 1.327 . S
C933 H927 0.950 . S
C933 C932 1.327 . S
C933 C937 1.429 . S
C934 C917 1.574 . S
C934 H928 0.949 . S
C934 C938 1.368 1_554 S
C935 C916 1.429 . S
C935 C929 1.429 . S
C935 C936 1.523 . S
C936 C917 1.368 . S
C936 C930 1.368 1_554 S
C936 C935 1.523 . S
C937 C921 1.429 . S
C937 C933 1.429 . S
C937 C938 1.523 . S
C938 C922 1.368 . S
C938 C934 1.368 1_556 S
C938 C937 1.523 . S
H939 C914 0.950 . S
H940 C916 0.950 1_556 S
H941 C917 0.949 . S
H942 C919 0.950 . S
H943 C921 0.950 1_554 S
C944 C945 1.349 . S
C944 C946 1.327 . S
C944 H969 0.950 . S
C945 C944 1.349 . S
C945 C961 1.349 . S
C946 C944 1.327 . S
C946 C965 1.429 . S
C946 H970 0.950 . S
C947 C964 1.574 . S
C947 C966 1.368 . S
C947 H971 0.949 . S
H948 C952 0.949 . S
C949 C950 1.349 . S
C949 C951 1.327 . S
C949 H972 0.950 . S
C950 C949 1.349 . S
C950 C962 1.349 . S
C951 C949 1.327 . S
C951 C967 1.429 . S
C951 H973 0.950 . S
C952 H948 0.949 . S
C952 C960 1.574 . S
C952 C968 1.368 . S
H953 C961 0.950 . S
H954 C959 0.950 . S
H955 C960 0.949 . S
H956 C962 0.950 . S
H957 C963 0.950 . S
H958 C964 0.949 . S
C959 H954 0.950 . S
C959 C961 1.327 . S
C959 C965 1.429 . S
C960 C952 1.574 . S
C960 H955 0.949 . S
C960 C966 1.368 . S
C961 C945 1.349 . S
C961 H953 0.950 . S
C961 C959 1.327 . S
C962 C950 1.349 . S
C962 H956 0.950 . S
C962 C963 1.327 . S
C963 H957 0.950 . S
C963 C962 1.327 . S
C963 C967 1.429 . S
C964 C947 1.574 . S
C964 H958 0.949 . S
C964 C968 1.368 . S
C965 C946 1.429 . S
C965 C959 1.429 . S
C965 C966 1.523 . S
C966 C947 1.368 . S
C966 C960 1.368 . S
C966 C965 1.523 . S
C967 C951 1.429 . S
C967 C963 1.429 . S
C967 C968 1.523 . S
C968 C952 1.368 . S
C968 C964 1.368 . S
C968 C967 1.523 . S
H969 C944 0.950 . S
H970 C946 0.950 . S
H971 C947 0.949 . S
H972 C949 0.950 . S
H973 C951 0.950 . S
C974 C975 1.349 . S
C974 C976 1.327 . S
C974 H999 0.950 . S
C975 C974 1.349 . S
C975 C991 1.349 . S
C976 C974 1.327 . S
C976 C995 1.429 . S
C976 H1000 0.950 . S
C977 C994 1.574 . S
C977 C996 1.368 1_554 S
C977 H1001 0.949 . S
H978 C982 0.949 . S
C979 C980 1.349 . S
C979 C981 1.327 . S
C979 H1002 0.950 . S
C980 C979 1.349 . S
C980 C992 1.349 . S
C981 C979 1.327 . S
C981 C997 1.429 . S
C981 H1003 0.950 . S
C982 H978 0.949 . S
C982 C990 1.574 . S
C982 C998 1.368 1_556 S
H983 C991 0.950 . S
H984 C989 0.950 1_554 S
H985 C990 0.949 . S
H986 C992 0.950 . S
H987 C993 0.950 1_556 S
H988 C994 0.949 . S
C989 H984 0.950 1_556 S
C989 C991 1.327 . S
C989 C995 1.429 . S
C990 C982 1.574 . S
C990 H985 0.949 . S
C990 C996 1.368 . S
C991 C975 1.349 . S
C991 H983 0.950 . S
C991 C989 1.327 . S
C992 C980 1.349 . S
C992 H986 0.950 . S
C992 C993 1.327 . S
C993 H987 0.950 1_554 S
C993 C992 1.327 . S
C993 C997 1.429 . S
C994 C977 1.574 . S
C994 H988 0.949 . S
C994 C998 1.368 . S
C995 C976 1.429 . S
C995 C989 1.429 . S
C995 C996 1.523 . S
C996 C977 1.368 1_556 S
C996 C990 1.368 . S
C996 C995 1.523 . S
C997 C981 1.429 . S
C997 C993 1.429 . S
C997 C998 1.523 . S
C998 C982 1.368 1_554 S
C998 C994 1.368 . S
C998 C997 1.523 . S
H999 C974 0.950 . S
H1000 C976 0.950 . S
H1001 C977 0.949 . S
H1002 C979 0.950 . S
H1003 C981 0.950 . S
C1004 C1005 1.349 . S
C1004 C1006 1.327 . S
C1004 H1029 0.950 . S
C1005 C1004 1.349 . S
C1005 C1021 1.349 . S
C1006 C1004 1.327 . S
C1006 C1025 1.429 . S
C1006 H1030 0.950 . S
C1007 C1024 1.574 . S
C1007 C1026 1.368 . S
C1007 H1031 0.949 . S
H1008 C1012 0.949 . S
C1009 C1010 1.349 . S
C1009 C1011 1.327 . S
C1009 H1032 0.950 . S
C1010 C1009 1.349 . S
C1010 C1022 1.349 . S
C1011 C1009 1.327 . S
C1011 C1027 1.429 . S
C1011 H1033 0.950 . S
C1012 H1008 0.949 . S
C1012 C1020 1.574 . S
C1012 C1028 1.368 . S
H1013 C1021 0.950 . S
H1014 C1019 0.950 . S
H1015 C1020 0.949 . S
H1016 C1022 0.950 . S
H1017 C1023 0.950 . S
H1018 C1024 0.949 . S
C1019 H1014 0.950 . S
C1019 C1021 1.327 . S
C1019 C1025 1.429 . S
C1020 C1012 1.574 . S
C1020 H1015 0.949 . S
C1020 C1026 1.368 . S
C1021 C1005 1.349 . S
C1021 H1013 0.950 . S
C1021 C1019 1.327 . S
C1022 C1010 1.349 . S
C1022 H1016 0.950 . S
C1022 C1023 1.327 . S
C1023 H1017 0.950 . S
C1023 C1022 1.327 . S
C1023 C1027 1.429 . S
C1024 C1007 1.574 . S
C1024 H1018 0.949 . S
C1024 C1028 1.368 . S
C1025 C1006 1.429 . S
C1025 C1019 1.429 . S
C1025 C1026 1.523 . S
C1026 C1007 1.368 . S
C1026 C1020 1.368 . S
C1026 C1025 1.523 . S
C1027 C1011 1.429 . S
C1027 C1023 1.429 . S
C1027 C1028 1.523 . S
C1028 C1012 1.368 . S
C1028 C1024 1.368 . S
C1028 C1027 1.523 . S
H1029 C1004 0.950 . S
H1030 C1006 0.950 . S
H1031 C1007 0.949 . S
H1032 C1009 0.950 . S
H1033 C1011 0.950 . S
C1034 C1035 1.349 . S
C1034 C1036 1.327 . S
C1034 H1059 0.950 . S
C1035 C1034 1.349 . S
C1035 C1051 1.349 . S
C1036 C1034 1.327 . S
C1036 C1055 1.429 . S
C1036 H1060 0.950 . S
C1037 C1054 1.574 . S
C1037 C1056 1.368 . S
C1037 H1061 0.949 . S
H1038 C1042 0.949 . S
C1039 C1040 1.349 . S
C1039 C1041 1.327 . S
C1039 H1062 0.950 . S
C1040 C1039 1.349 . S
C1040 C1052 1.349 . S
C1041 C1039 1.327 . S
C1041 C1057 1.429 . S
C1041 H1063 0.950 . S
C1042 H1038 0.949 . S
C1042 C1050 1.574 . S
C1042 C1058 1.368 . S
H1043 C1051 0.950 . S
H1044 C1049 0.950 . S
H1045 C1050 0.949 . S
H1046 C1052 0.950 . S
H1047 C1053 0.950 . S
H1048 C1054 0.949 . S
C1049 H1044 0.950 . S
C1049 C1051 1.327 . S
C1049 C1055 1.429 . S
C1050 C1042 1.574 . S
C1050 H1045 0.949 . S
C1050 C1056 1.368 . S
C1051 C1035 1.349 . S
C1051 H1043 0.950 . S
C1051 C1049 1.327 . S
C1052 C1040 1.349 . S
C1052 H1046 0.950 . S
C1052 C1053 1.327 . S
C1053 H1047 0.950 . S
C1053 C1052 1.327 . S
C1053 C1057 1.429 . S
C1054 C1037 1.574 . S
C1054 H1048 0.949 . S
C1054 C1058 1.368 . S
C1055 C1036 1.429 . S
C1055 C1049 1.429 . S
C1055 C1056 1.523 . S
C1056 C1037 1.368 . S
C1056 C1050 1.368 . S
C1056 C1055 1.523 . S
C1057 C1041 1.429 . S
C1057 C1053 1.429 . S
C1057 C1058 1.523 . S
C1058 C1042 1.368 . S
C1058 C1054 1.368 . S
C1058 C1057 1.523 . S
H1059 C1034 0.950 . S
H1060 C1036 0.950 . S
H1061 C1037 0.949 . S
H1062 C1039 0.950 . S
H1063 C1041 0.950 . S
C1064 C1065 1.349 . S
C1064 C1066 1.327 . S
C1064 H1089 0.950 . S
C1065 C1064 1.349 . S
C1065 C1081 1.349 . S
C1066 C1064 1.327 . S
C1066 C1085 1.429 . S
C1066 H1090 0.950 . S
C1067 C1084 1.574 . S
C1067 C1086 1.368 . S
C1067 H1091 0.949 . S
H1068 C1072 0.949 . S
C1069 C1070 1.349 . S
C1069 C1071 1.327 . S
C1069 H1092 0.950 . S
C1070 C1069 1.349 . S
C1070 C1082 1.349 . S
C1071 C1069 1.327 . S
C1071 C1087 1.429 . S
C1071 H1093 0.950 . S
C1072 H1068 0.949 . S
C1072 C1080 1.574 . S
C1072 C1088 1.368 . S
H1073 C1081 0.950 . S
H1074 C1079 0.950 . S
H1075 C1080 0.949 . S
H1076 C1082 0.950 . S
H1077 C1083 0.950 . S
H1078 C1084 0.949 . S
C1079 H1074 0.950 . S
C1079 C1081 1.327 . S
C1079 C1085 1.429 . S
C1080 C1072 1.574 . S
C1080 H1075 0.949 . S
C1080 C1086 1.368 . S
C1081 C1065 1.349 . S
C1081 H1073 0.950 . S
C1081 C1079 1.327 . S
C1082 C1070 1.349 . S
C1082 H1076 0.950 . S
C1082 C1083 1.327 . S
C1083 H1077 0.950 . S
C1083 C1082 1.327 . S
C1083 C1087 1.429 . S
C1084 C1067 1.574 . S
C1084 H1078 0.949 . S
C1084 C1088 1.368 . S
C1085 C1066 1.429 . S
C1085 C1079 1.429 . S
C1085 C1086 1.523 . S
C1086 C1067 1.368 . S
C1086 C1080 1.368 . S
C1086 C1085 1.523 . S
C1087 C1071 1.429 . S
C1087 C1083 1.429 . S
C1087 C1088 1.523 . S
C1088 C1072 1.368 . S
C1088 C1084 1.368 . S
C1088 C1087 1.523 . S
H1089 C1064 0.950 . S
H1090 C1066 0.950 . S
H1091 C1067 0.949 . S
H1092 C1069 0.950 . S
H1093 C1071 0.950 . S
C1094 C1095 1.349 . S
C1094 C1096 1.327 . S
C1094 H1119 0.950 . S
C1095 C1094 1.349 . S
C1095 C1111 1.349 . S
C1096 C1094 1.327 . S
C1096 C1115 1.429 . S
C1096 H1120 0.950 1_554 S
C1097 C1114 1.574 . S
C1097 C1116 1.368 . S
C1097 H1121 0.949 . S
H1098 C1102 0.949 . S
C1099 C1100 1.349 . S
C1099 C1101 1.327 . S
C1099 H1122 0.950 . S
C1100 C1099 1.349 . S
C1100 C1112 1.349 . S
C1101 C1099 1.327 . S
C1101 C1117 1.429 . S
C1101 H1123 0.950 1_556 S
C1102 H1098 0.949 . S
C1102 C1110 1.574 . S
C1102 C1118 1.368 . S
H1103 C1111 0.950 . S
H1104 C1109 0.950 . S
H1105 C1110 0.949 . S
H1106 C1112 0.950 . S
H1107 C1113 0.950 . S
H1108 C1114 0.949 . S
C1109 H1104 0.950 . S
C1109 C1111 1.327 . S
C1109 C1115 1.429 . S
C1110 C1102 1.574 . S
C1110 H1105 0.949 . S
C1110 C1116 1.368 1_556 S
C1111 C1095 1.349 . S
C1111 H1103 0.950 . S
C1111 C1109 1.327 . S
C1112 C1100 1.349 . S
C1112 H1106 0.950 . S
C1112 C1113 1.327 . S
C1113 H1107 0.950 . S
C1113 C1112 1.327 . S
C1113 C1117 1.429 . S
C1114 C1097 1.574 . S
C1114 H1108 0.949 . S
C1114 C1118 1.368 1_554 S
C1115 C1096 1.429 . S
C1115 C1109 1.429 . S
C1115 C1116 1.523 . S
C1116 C1097 1.368 . S
C1116 C1110 1.368 1_554 S
C1116 C1115 1.523 . S
C1117 C1101 1.429 . S
C1117 C1113 1.429 . S
C1117 C1118 1.523 . S
C1118 C1102 1.368 . S
C1118 C1114 1.368 1_556 S
C1118 C1117 1.523 . S
H1119 C1094 0.950 . S
H1120 C1096 0.950 1_556 S
H1121 C1097 0.949 . S
H1122 C1099 0.950 . S
H1123 C1101 0.950 1_554 S
C1124 C1125 1.349 . S
C1124 C1126 1.327 . S
C1124 H1149 0.950 . S
C1125 C1124 1.349 . S
C1125 C1141 1.349 . S
C1126 C1124 1.327 . S
C1126 C1145 1.429 . S
C1126 H1150 0.950 . S
C1127 C1144 1.574 . S
C1127 C1146 1.368 . S
C1127 H1151 0.949 . S
H1128 C1132 0.949 . S
C1129 C1130 1.349 . S
C1129 C1131 1.327 . S
C1129 H1152 0.950 . S
C1130 C1129 1.349 . S
C1130 C1142 1.349 . S
C1131 C1129 1.327 . S
C1131 C1147 1.429 . S
C1131 H1153 0.950 . S
C1132 H1128 0.949 . S
C1132 C1140 1.574 . S
C1132 C1148 1.368 . S
H1133 C1141 0.950 . S
H1134 C1139 0.950 . S
H1135 C1140 0.949 . S
H1136 C1142 0.950 . S
H1137 C1143 0.950 . S
H1138 C1144 0.949 . S
C1139 H1134 0.950 . S
C1139 C1141 1.327 . S
C1139 C1145 1.429 . S
C1140 C1132 1.574 . S
C1140 H1135 0.949 . S
C1140 C1146 1.368 . S
C1141 C1125 1.349 . S
C1141 H1133 0.950 . S
C1141 C1139 1.327 . S
C1142 C1130 1.349 . S
C1142 H1136 0.950 . S
C1142 C1143 1.327 . S
C1143 H1137 0.950 . S
C1143 C1142 1.327 . S
C1143 C1147 1.429 . S
C1144 C1127 1.574 . S
C1144 H1138 0.949 . S
C1144 C1148 1.368 . S
C1145 C1126 1.429 . S
C1145 C1139 1.429 . S
C1145 C1146 1.523 . S
C1146 C1127 1.368 . S
C1146 C1140 1.368 . S
C1146 C1145 1.523 . S
C1147 C1131 1.429 . S
C1147 C1143 1.429 . S
C1147 C1148 1.523 . S
C1148 C1132 1.368 . S
C1148 C1144 1.368 . S
C1148 C1147 1.523 . S
H1149 C1124 0.950 . S
H1150 C1126 0.950 . S
H1151 C1127 0.949 . S
H1152 C1129 0.950 . S
H1153 C1131 0.950 . S
C1154 C1155 1.349 . S
C1154 C1156 1.327 . S
C1154 H1179 0.950 . S
C1155 C1154 1.349 . S
C1155 C1171 1.349 . S
C1156 C1154 1.327 . S
C1156 C1175 1.429 . S
C1156 H1180 0.950 . S
C1157 C1174 1.574 . S
C1157 C1176 1.368 . S
C1157 H1181 0.949 . S
H1158 C1162 0.949 . S
C1159 C1160 1.349 . S
C1159 C1161 1.327 . S
C1159 H1182 0.950 . S
C1160 C1159 1.349 . S
C1160 C1172 1.349 . S
C1161 C1159 1.327 . S
C1161 C1177 1.429 . S
C1161 H1183 0.950 . S
C1162 H1158 0.949 . S
C1162 C1170 1.574 . S
C1162 C1178 1.368 . S
H1163 C1171 0.950 . S
H1164 C1169 0.950 . S
H1165 C1170 0.949 . S
H1166 C1172 0.950 . S
H1167 C1173 0.950 . S
H1168 C1174 0.949 . S
C1169 H1164 0.950 . S
C1169 C1171 1.327 . S
C1169 C1175 1.429 . S
C1170 C1162 1.574 . S
C1170 H1165 0.949 . S
C1170 C1176 1.368 . S
C1171 C1155 1.349 . S
C1171 H1163 0.950 . S
C1171 C1169 1.327 . S
C1172 C1160 1.349 . S
C1172 H1166 0.950 . S
C1172 C1173 1.327 . S
C1173 H1167 0.950 . S
C1173 C1172 1.327 . S
C1173 C1177 1.429 . S
C1174 C1157 1.574 . S
C1174 H1168 0.949 . S
C1174 C1178 1.368 . S
C1175 C1156 1.429 . S
C1175 C1169 1.429 . S
C1175 C1176 1.523 . S
C1176 C1157 1.368 . S
C1176 C1170 1.368 . S
C1176 C1175 1.523 . S
C1177 C1161 1.429 . S
C1177 C1173 1.429 . S
C1177 C1178 1.523 . S
C1178 C1162 1.368 . S
C1178 C1174 1.368 . S
C1178 C1177 1.523 . S
H1179 C1154 0.950 . S
H1180 C1156 0.950 . S
H1181 C1157 0.949 . S
H1182 C1159 0.950 . S
H1183 C1161 0.950 . S
C1184 C1185 1.349 . S
C1184 C1186 1.308 1_455 S
C1184 H1209 0.950 . S
C1185 C1184 1.349 . S
C1185 C1201 1.349 . S
C1186 C1184 1.308 1_655 S
C1186 C1205 1.419 1_655 S
C1186 H1210 0.981 . S
C1187 C1204 1.574 1_455 S
C1187 C1206 1.368 1_455 S
C1187 H1211 0.949 . S
H1188 C1192 0.949 . S
C1189 C1190 1.349 . S
C1189 C1191 1.327 . S
C1189 H1212 0.950 . S
C1190 C1189 1.349 . S
C1190 C1202 1.349 . S
C1191 C1189 1.327 . S
C1191 C1207 1.429 . S
C1191 H1213 0.950 . S
C1192 H1188 0.949 . S
C1192 C1200 1.574 . S
C1192 C1208 1.368 . S
H1193 C1201 0.950 . S
H1194 C1199 0.950 . S
H1195 C1200 0.949 . S
H1196 C1202 0.950 . S
H1197 C1203 0.950 . S
H1198 C1204 0.949 . S
C1199 H1194 0.950 . S
C1199 C1201 1.327 . S
C1199 C1205 1.429 . S
C1200 C1192 1.574 . S
C1200 H1195 0.949 . S
C1200 C1206 1.368 . S
C1201 C1185 1.349 . S
C1201 H1193 0.950 . S
C1201 C1199 1.327 . S
C1202 C1190 1.349 . S
C1202 H1196 0.950 . S
C1202 C1203 1.327 . S
C1203 H1197 0.950 . S
C1203 C1202 1.327 . S
C1203 C1207 1.429 . S
C1204 C1187 1.574 1_655 S
C1204 H1198 0.949 . S
C1204 C1208 1.368 . S
C1205 C1186 1.419 1_455 S
C1205 C1199 1.429 . S
C1205 C1206 1.523 1_455 S
C1206 C1187 1.368 1_655 S
C1206 C1200 1.368 . S
C1206 C1205 1.523 1_655 S
C1207 C1191 1.429 . S
C1207 C1203 1.429 . S
C1207 C1208 1.523 1_556 S
C1208 C1192 1.368 . S
C1208 C1204 1.368 . S
C1208 C1207 1.523 1_554 S
H1209 C1184 0.950 . S
H1210 C1186 0.981 . S
H1211 C1187 0.949 . S
H1212 C1189 0.950 . S
H1213 C1191 0.950 . S
C1214 C1215 1.349 . S
C1214 C1216 1.327 . S
C1214 H1239 0.950 . S
C1215 C1214 1.349 . S
C1215 C1231 1.349 . S
C1216 C1214 1.327 . S
C1216 C1235 1.429 . S
C1216 H1240 0.950 . S
C1217 C1234 1.574 . S
C1217 C1236 1.368 . S
C1217 H1241 0.949 . S
H1218 C1222 0.949 . S
C1219 C1220 1.349 . S
C1219 C1221 1.327 . S
C1219 H1242 0.950 . S
C1220 C1219 1.349 . S
C1220 C1232 1.349 . S
C1221 C1219 1.327 . S
C1221 C1237 1.429 . S
C1221 H1243 0.950 . S
C1222 H1218 0.949 . S
C1222 C1230 1.574 . S
C1222 C1238 1.368 . S
H1223 C1231 0.950 . S
H1224 C1229 0.950 . S
H1225 C1230 0.949 . S
H1226 C1232 0.950 . S
H1227 C1233 0.950 . S
H1228 C1234 0.949 . S
C1229 H1224 0.950 . S
C1229 C1231 1.327 . S
C1229 C1235 1.429 . S
C1230 C1222 1.574 . S
C1230 H1225 0.949 . S
C1230 C1236 1.368 . S
C1231 C1215 1.349 . S
C1231 H1223 0.950 . S
C1231 C1229 1.327 . S
C1232 C1220 1.349 . S
C1232 H1226 0.950 . S
C1232 C1233 1.327 . S
C1233 H1227 0.950 . S
C1233 C1232 1.327 . S
C1233 C1237 1.429 . S
C1234 C1217 1.574 . S
C1234 H1228 0.949 . S
C1234 C1238 1.368 . S
C1235 C1216 1.429 . S
C1235 C1229 1.429 . S
C1235 C1236 1.523 . S
C1236 C1217 1.368 . S
C1236 C1230 1.368 . S
C1236 C1235 1.523 . S
C1237 C1221 1.429 . S
C1237 C1233 1.429 . S
C1237 C1238 1.523 . S
C1238 C1222 1.368 . S
C1238 C1234 1.368 . S
C1238 C1237 1.523 . S
H1239 C1214 0.950 . S
H1240 C1216 0.950 . S
H1241 C1217 0.949 . S
H1242 C1219 0.950 . S
H1243 C1221 0.950 . S
C1244 C1245 1.349 . S
C1244 C1246 1.327 . S
C1244 H1269 0.950 . S
C1245 C1244 1.349 . S
C1245 C1261 1.349 . S
C1246 C1244 1.327 . S
C1246 C1265 1.429 . S
C1246 H1270 0.950 . S
C1247 C1264 1.574 . S
C1247 C1266 1.368 . S
C1247 H1271 0.949 . S
H1248 C1252 0.949 . S
C1249 C1250 1.349 . S
C1249 C1251 1.327 . S
C1249 H1272 0.950 . S
C1250 C1249 1.349 . S
C1250 C1262 1.349 . S
C1251 C1249 1.327 . S
C1251 C1267 1.429 . S
C1251 H1273 0.950 . S
C1252 H1248 0.949 . S
C1252 C1260 1.574 . S
C1252 C1268 1.368 . S
H1253 C1261 0.950 . S
H1254 C1259 0.950 . S
H1255 C1260 0.949 . S
H1256 C1262 0.950 . S
H1257 C1263 0.950 . S
H1258 C1264 0.949 . S
C1259 H1254 0.950 . S
C1259 C1261 1.327 . S
C1259 C1265 1.429 . S
C1260 C1252 1.574 . S
C1260 H1255 0.949 . S
C1260 C1266 1.368 . S
C1261 C1245 1.349 . S
C1261 H1253 0.950 . S
C1261 C1259 1.327 . S
C1262 C1250 1.349 . S
C1262 H1256 0.950 . S
C1262 C1263 1.327 . S
C1263 H1257 0.950 . S
C1263 C1262 1.327 . S
C1263 C1267 1.429 . S
C1264 C1247 1.574 . S
C1264 H1258 0.949 . S
C1264 C1268 1.368 . S
C1265 C1246 1.429 . S
C1265 C1259 1.429 . S
C1265 C1266 1.523 . S
C1266 C1247 1.368 . S
C1266 C1260 1.368 . S
C1266 C1265 1.523 . S
C1267 C1251 1.429 . S
C1267 C1263 1.429 . S
C1267 C1268 1.523 . S
C1268 C1252 1.368 . S
C1268 C1264 1.368 . S
C1268 C1267 1.523 . S
H1269 C1244 0.950 . S
H1270 C1246 0.950 . S
H1271 C1247 0.949 . S
H1272 C1249 0.950 . S
H1273 C1251 0.950 . S
C1274 C1275 1.349 . S
C1274 C1276 1.327 . S
C1274 H1299 0.950 . S
C1275 C1274 1.349 . S
C1275 C1291 1.349 . S
C1276 C1274 1.327 . S
C1276 C1295 1.429 . S
C1276 H1300 0.950 . S
C1277 C1294 1.574 . S
C1277 C1296 1.368 . S
C1277 H1301 0.949 . S
H1278 C1282 0.949 . S
C1279 C1280 1.349 . S
C1279 C1281 1.327 . S
C1279 H1302 0.950 . S
C1280 C1279 1.349 . S
C1280 C1292 1.349 . S
C1281 C1279 1.327 . S
C1281 C1297 1.429 . S
C1281 H1303 0.950 . S
C1282 H1278 0.949 . S
C1282 C1290 1.574 . S
C1282 C1298 1.368 . S
H1283 C1291 0.950 . S
H1284 C1289 0.950 . S
H1285 C1290 0.949 . S
H1286 C1292 0.950 . S
H1287 C1293 0.950 . S
H1288 C1294 0.949 . S
C1289 H1284 0.950 . S
C1289 C1291 1.327 . S
C1289 C1295 1.429 . S
C1290 C1282 1.574 . S
C1290 H1285 0.949 . S
C1290 C1296 1.368 . S
C1291 C1275 1.349 . S
C1291 H1283 0.950 . S
C1291 C1289 1.327 . S
C1292 C1280 1.349 . S
C1292 H1286 0.950 . S
C1292 C1293 1.327 . S
C1293 H1287 0.950 . S
C1293 C1292 1.327 . S
C1293 C1297 1.429 . S
C1294 C1277 1.574 . S
C1294 H1288 0.949 . S
C1294 C1298 1.368 . S
C1295 C1276 1.429 . S
C1295 C1289 1.429 . S
C1295 C1296 1.523 . S
C1296 C1277 1.368 . S
C1296 C1290 1.368 . S
C1296 C1295 1.523 . S
C1297 C1281 1.429 . S
C1297 C1293 1.429 . S
C1297 C1298 1.523 . S
C1298 C1282 1.368 . S
C1298 C1294 1.368 . S
C1298 C1297 1.523 . S
H1299 C1274 0.950 . S
H1300 C1276 0.950 . S
H1301 C1277 0.949 . S
H1302 C1279 0.950 . S
H1303 C1281 0.950 . S
C1304 C1305 1.349 . S
C1304 C1306 1.327 . S
C1304 H1329 0.950 . S
C1305 C1304 1.349 . S
C1305 C1321 1.349 . S
C1306 C1304 1.327 . S
C1306 C1325 1.429 . S
C1306 H1330 0.950 . S
C1307 C1324 1.574 . S
C1307 C1326 1.368 . S
C1307 H1331 0.949 . S
H1308 C1312 0.949 . S
C1309 C1310 1.349 . S
C1309 C1311 1.295 1_455 S
C1309 H1332 0.950 . S
C1310 C1309 1.349 . S
C1310 C1322 1.349 . S
C1311 C1309 1.295 1_655 S
C1311 C1327 1.411 1_655 S
C1311 H1333 1.007 . S
C1312 H1308 0.949 . S
C1312 C1320 1.574 1_455 S
C1312 C1328 1.368 1_455 S
H1313 C1321 0.950 . S
H1314 C1319 0.950 . S
H1315 C1320 0.949 . S
H1316 C1322 0.950 . S
H1317 C1323 0.950 . S
H1318 C1324 0.949 . S
C1319 H1314 0.950 . S
C1319 C1321 1.327 . S
C1319 C1325 1.429 . S
C1320 C1312 1.574 1_655 S
C1320 H1315 0.949 . S
C1320 C1326 1.368 . S
C1321 C1305 1.349 . S
C1321 H1313 0.950 . S
C1321 C1319 1.327 . S
C1322 C1310 1.349 . S
C1322 H1316 0.950 . S
C1322 C1323 1.327 . S
C1323 H1317 0.950 . S
C1323 C1322 1.327 . S
C1323 C1327 1.429 . S
C1324 C1307 1.574 . S
C1324 H1318 0.949 . S
C1324 C1328 1.368 . S
C1325 C1306 1.429 . S
C1325 C1319 1.429 . S
C1325 C1326 1.523 . S
C1326 C1307 1.368 . S
C1326 C1320 1.368 . S
C1326 C1325 1.523 . S
C1327 C1311 1.411 1_455 S
C1327 C1323 1.429 . S
C1327 C1328 1.523 1_455 S
C1328 C1312 1.368 1_655 S
C1328 C1324 1.368 . S
C1328 C1327 1.523 1_655 S
H1329 C1304 0.950 . S
H1330 C1306 0.950 . S
H1331 C1307 0.949 . S
H1332 C1309 0.950 . S
H1333 C1311 1.007 . S
C1334 C1335 1.349 . S
C1334 C1336 1.327 . S
C1334 H1359 0.950 . S
C1335 C1334 1.349 . S
C1335 C1351 1.349 . S
C1336 C1334 1.327 . S
C1336 C1355 1.429 . S
C1336 H1360 0.950 . S
C1337 C1354 1.574 . S
C1337 C1356 1.368 . S
C1337 H1361 0.949 . S
H1338 C1342 0.949 . S
C1339 C1340 1.349 . S
C1339 C1341 1.327 . S
C1339 H1362 0.950 . S
C1340 C1339 1.349 . S
C1340 C1352 1.349 . S
C1341 C1339 1.327 . S
C1341 C1357 1.429 . S
C1341 H1363 0.950 . S
C1342 H1338 0.949 . S
C1342 C1350 1.574 . S
C1342 C1358 1.368 . S
H1343 C1351 0.950 . S
H1344 C1349 0.950 . S
H1345 C1350 0.949 . S
H1346 C1352 0.950 . S
H1347 C1353 0.950 . S
H1348 C1354 0.949 . S
C1349 H1344 0.950 . S
C1349 C1351 1.327 . S
C1349 C1355 1.429 . S
C1350 C1342 1.574 . S
C1350 H1345 0.949 . S
C1350 C1356 1.368 . S
C1351 C1335 1.349 . S
C1351 H1343 0.950 . S
C1351 C1349 1.327 . S
C1352 C1340 1.349 . S
C1352 H1346 0.950 . S
C1352 C1353 1.327 . S
C1353 H1347 0.950 . S
C1353 C1352 1.327 . S
C1353 C1357 1.429 . S
C1354 C1337 1.574 . S
C1354 H1348 0.949 . S
C1354 C1358 1.368 . S
C1355 C1336 1.429 . S
C1355 C1349 1.429 . S
C1355 C1356 1.523 . S
C1356 C1337 1.368 . S
C1356 C1350 1.368 . S
C1356 C1355 1.523 . S
C1357 C1341 1.429 . S
C1357 C1353 1.429 . S
C1357 C1358 1.523 . S
C1358 C1342 1.368 . S
C1358 C1354 1.368 . S
C1358 C1357 1.523 . S
H1359 C1334 0.950 . S
H1360 C1336 0.950 . S
H1361 C1337 0.949 . S
H1362 C1339 0.950 . S
H1363 C1341 0.950 . S
C1364 C1365 1.349 . S
C1364 C1366 1.327 . S
C1364 H1389 0.950 . S
C1365 C1364 1.349 . S
C1365 C1381 1.349 . S
C1366 C1364 1.327 . S
C1366 C1385 1.429 . S
C1366 H1390 0.950 . S
C1367 C1384 1.574 . S
C1367 C1386 1.368 . S
C1367 H1391 0.949 . S
H1368 C1372 0.949 . S
C1369 C1370 1.349 . S
C1369 C1371 1.327 . S
C1369 H1392 0.950 . S
C1370 C1369 1.349 . S
C1370 C1382 1.349 . S
C1371 C1369 1.327 . S
C1371 C1387 1.429 . S
C1371 H1393 0.950 . S
C1372 H1368 0.949 . S
C1372 C1380 1.574 . S
C1372 C1388 1.368 . S
H1373 C1381 0.950 . S
H1374 C1379 0.950 . S
H1375 C1380 0.949 . S
H1376 C1382 0.950 . S
H1377 C1383 0.950 . S
H1378 C1384 0.949 . S
C1379 H1374 0.950 . S
C1379 C1381 1.327 . S
C1379 C1385 1.429 . S
C1380 C1372 1.574 . S
C1380 H1375 0.949 . S
C1380 C1386 1.368 . S
C1381 C1365 1.349 . S
C1381 H1373 0.950 . S
C1381 C1379 1.327 . S
C1382 C1370 1.349 . S
C1382 H1376 0.950 . S
C1382 C1383 1.327 . S
C1383 H1377 0.950 . S
C1383 C1382 1.327 . S
C1383 C1387 1.429 . S
C1384 C1367 1.574 . S
C1384 H1378 0.949 . S
C1384 C1388 1.368 . S
C1385 C1366 1.429 . S
C1385 C1379 1.429 . S
C1385 C1386 1.523 1_554 S
C1386 C1367 1.368 . S
C1386 C1380 1.368 . S
C1386 C1385 1.523 1_556 S
C1387 C1371 1.429 . S
C1387 C1383 1.429 . S
C1387 C1388 1.523 . S
C1388 C1372 1.368 . S
C1388 C1384 1.368 . S
C1388 C1387 1.523 . S
H1389 C1364 0.950 . S
H1390 C1366 0.950 . S
H1391 C1367 0.949 . S
H1392 C1369 0.950 . S
H1393 C1371 0.950 . S
C1394 C1395 1.349 . S
C1394 C1396 1.327 . S
C1394 H1419 0.950 . S
C1395 C1394 1.349 . S
C1395 C1411 1.349 . S
C1396 C1394 1.327 . S
C1396 C1415 1.429 . S
C1396 H1420 0.950 . S
C1397 C1414 1.574 . S
C1397 C1416 1.368 . S
C1397 H1421 0.949 . S
H1398 C1402 0.949 . S
C1399 C1400 1.349 . S
C1399 C1401 1.327 . S
C1399 H1422 0.950 . S
C1400 C1399 1.349 . S
C1400 C1412 1.349 . S
C1401 C1399 1.327 . S
C1401 C1417 1.429 . S
C1401 H1423 0.950 . S
C1402 H1398 0.949 . S
C1402 C1410 1.574 . S
C1402 C1418 1.368 . S
H1403 C1411 0.950 . S
H1404 C1409 0.950 . S
H1405 C1410 0.949 . S
H1406 C1412 0.950 . S
H1407 C1413 0.950 . S
H1408 C1414 0.949 . S
C1409 H1404 0.950 . S
C1409 C1411 1.327 . S
C1409 C1415 1.429 . S
C1410 C1402 1.574 . S
C1410 H1405 0.949 . S
C1410 C1416 1.368 . S
C1411 C1395 1.349 . S
C1411 H1403 0.950 . S
C1411 C1409 1.327 . S
C1412 C1400 1.349 . S
C1412 H1406 0.950 . S
C1412 C1413 1.327 . S
C1413 H1407 0.950 . S
C1413 C1412 1.327 . S
C1413 C1417 1.429 . S
C1414 C1397 1.574 . S
C1414 H1408 0.949 . S
C1414 C1418 1.368 . S
C1415 C1396 1.429 . S
C1415 C1409 1.429 . S
C1415 C1416 1.523 . S
C1416 C1397 1.368 . S
C1416 C1410 1.368 . S
C1416 C1415 1.523 . S
C1417 C1401 1.429 . S
C1417 C1413 1.429 . S
C1417 C1418 1.523 . S
C1418 C1402 1.368 . S
C1418 C1414 1.368 . S
C1418 C1417 1.523 . S
H1419 C1394 0.950 . S
H1420 C1396 0.950 . S
H1421 C1397 0.949 . S
H1422 C1399 0.950 . S
H1423 C1401 0.950 . S
C1424 C1425 1.349 . S
C1424 C1426 1.327 . S
C1424 H1449 0.950 . S
C1425 C1424 1.349 . S
C1425 C1441 1.349 . S
C1426 C1424 1.327 . S
C1426 C1445 1.429 . S
C1426 H1450 0.950 . S
C1427 C1444 1.574 1_455 S
C1427 C1446 1.368 . S
C1427 H1451 0.974 . S
H1428 C1432 0.949 . S
C1429 C1430 1.349 . S
C1429 C1431 1.327 . S
C1429 H1452 0.950 . S
C1430 C1429 1.349 . S
C1430 C1442 1.349 . S
C1431 C1429 1.327 . S
C1431 C1447 1.429 . S
C1431 H1453 0.950 . S
C1432 H1428 0.949 . S
C1432 C1440 1.574 . S
C1432 C1448 1.368 . S
H1433 C1441 0.950 . S
H1434 C1439 0.950 . S
H1435 C1440 0.949 . S
H1436 C1442 0.950 . S
H1437 C1443 0.997 . S
H1438 C1444 0.949 . S
C1439 H1434 0.950 . S
C1439 C1441 1.327 . S
C1439 C1445 1.429 . S
C1440 C1432 1.574 . S
C1440 H1435 0.949 . S
C1440 C1446 1.368 . S
C1441 C1425 1.349 . S
C1441 H1433 0.950 . S
C1441 C1439 1.327 . S
C1442 C1430 1.349 . S
C1442 H1436 0.950 . S
C1442 C1443 1.300 1_655 S
C1443 H1437 0.997 . S
C1443 C1442 1.300 1_455 S
C1443 C1447 1.414 1_455 S
C1444 C1427 1.574 1_655 S
C1444 H1438 0.949 . S
C1444 C1448 1.368 1_655 S
C1445 C1426 1.429 . S
C1445 C1439 1.429 . S
C1445 C1446 1.523 1_554 S
C1446 C1427 1.368 . S
C1446 C1440 1.368 . S
C1446 C1445 1.523 1_556 S
C1447 C1431 1.429 . S
C1447 C1443 1.414 1_655 S
C1447 C1448 1.523 1_655 S
C1448 C1432 1.368 . S
C1448 C1444 1.368 1_455 S
C1448 C1447 1.523 1_455 S
H1449 C1424 0.950 . S
H1450 C1426 0.950 . S
H1451 C1427 0.974 . S
H1452 C1429 0.950 . S
H1453 C1431 0.950 . S
C1454 C1455 1.349 . S
C1454 C1456 1.327 . S
C1454 H1479 0.950 . S
C1455 C1454 1.349 . S
C1455 C1471 1.349 . S
C1456 C1454 1.327 . S
C1456 C1475 1.429 . S
C1456 H1480 0.950 . S
C1457 C1474 1.574 . S
C1457 C1476 1.368 . S
C1457 H1481 0.949 . S
H1458 C1462 0.949 . S
C1459 C1460 1.349 . S
C1459 C1461 1.327 . S
C1459 H1482 0.950 . S
C1460 C1459 1.349 . S
C1460 C1472 1.349 . S
C1461 C1459 1.327 . S
C1461 C1477 1.429 . S
C1461 H1483 0.950 . S
C1462 H1458 0.949 . S
C1462 C1470 1.574 . S
C1462 C1478 1.368 . S
H1463 C1471 0.950 . S
H1464 C1469 0.950 . S
H1465 C1470 0.949 . S
H1466 C1472 0.950 . S
H1467 C1473 0.950 . S
H1468 C1474 0.949 . S
C1469 H1464 0.950 . S
C1469 C1471 1.327 . S
C1469 C1475 1.429 . S
C1470 C1462 1.574 . S
C1470 H1465 0.949 . S
C1470 C1476 1.368 . S
C1471 C1455 1.349 . S
C1471 H1463 0.950 . S
C1471 C1469 1.327 . S
C1472 C1460 1.349 . S
C1472 H1466 0.950 . S
C1472 C1473 1.327 . S
C1473 H1467 0.950 . S
C1473 C1472 1.327 . S
C1473 C1477 1.429 . S
C1474 C1457 1.574 . S
C1474 H1468 0.949 . S
C1474 C1478 1.368 . S
C1475 C1456 1.429 . S
C1475 C1469 1.429 . S
C1475 C1476 1.523 . S
C1476 C1457 1.368 . S
C1476 C1470 1.368 . S
C1476 C1475 1.523 . S
C1477 C1461 1.429 . S
C1477 C1473 1.429 . S
C1477 C1478 1.523 . S
C1478 C1462 1.368 . S
C1478 C1474 1.368 . S
C1478 C1477 1.523 . S
H1479 C1454 0.950 . S
H1480 C1456 0.950 . S
H1481 C1457 0.949 . S
H1482 C1459 0.950 . S
H1483 C1461 0.950 . S
C1484 C1485 1.349 . S
C1484 C1486 1.327 . S
C1484 H1509 0.950 . S
C1485 C1484 1.349 . S
C1485 C1501 1.349 . S
C1486 C1484 1.327 . S
C1486 C1505 1.429 . S
C1486 H1510 0.950 . S
C1487 C1504 1.574 . S
C1487 C1506 1.368 . S
C1487 H1511 0.949 . S
H1488 C1492 0.949 . S
C1489 C1490 1.349 . S
C1489 C1491 1.327 . S
C1489 H1512 0.950 . S
C1490 C1489 1.349 . S
C1490 C1502 1.349 . S
C1491 C1489 1.327 . S
C1491 C1507 1.429 . S
C1491 H1513 0.950 . S
C1492 H1488 0.949 . S
C1492 C1500 1.574 . S
C1492 C1508 1.368 . S
H1493 C1501 0.950 . S
H1494 C1499 0.950 . S
H1495 C1500 0.949 . S
H1496 C1502 0.950 . S
H1497 C1503 0.950 . S
H1498 C1504 0.949 . S
C1499 H1494 0.950 . S
C1499 C1501 1.327 . S
C1499 C1505 1.429 . S
C1500 C1492 1.574 . S
C1500 H1495 0.949 . S
C1500 C1506 1.368 . S
C1501 C1485 1.349 . S
C1501 H1493 0.950 . S
C1501 C1499 1.327 . S
C1502 C1490 1.349 . S
C1502 H1496 0.950 . S
C1502 C1503 1.327 . S
C1503 H1497 0.950 . S
C1503 C1502 1.327 . S
C1503 C1507 1.429 . S
C1504 C1487 1.574 . S
C1504 H1498 0.949 . S
C1504 C1508 1.368 . S
C1505 C1486 1.429 . S
C1505 C1499 1.429 . S
C1505 C1506 1.523 . S
C1506 C1487 1.368 . S
C1506 C1500 1.368 . S
C1506 C1505 1.523 . S
C1507 C1491 1.429 . S
C1507 C1503 1.429 . S
C1507 C1508 1.523 . S
C1508 C1492 1.368 . S
C1508 C1504 1.368 . S
C1508 C1507 1.523 . S
H1509 C1484 0.950 . S
H1510 C1486 0.950 . S
H1511 C1487 0.949 . S
H1512 C1489 0.950 . S
H1513 C1491 0.950 . S
C1514 C1515 1.349 . S
C1514 C1516 1.327 . S
C1514 H1539 0.950 . S
C1515 C1514 1.349 . S
C1515 C1531 1.349 . S
C1516 C1514 1.327 . S
C1516 C1535 1.429 . S
C1516 H1540 0.950 . S
C1517 C1534 1.574 . S
C1517 C1536 1.368 . S
C1517 H1541 0.949 . S
H1518 C1522 0.949 . S
C1519 C1520 1.349 . S
C1519 C1521 1.327 . S
C1519 H1542 0.950 . S
C1520 C1519 1.349 . S
C1520 C1532 1.349 . S
C1521 C1519 1.327 . S
C1521 C1537 1.429 . S
C1521 H1543 0.950 . S
C1522 H1518 0.949 . S
C1522 C1530 1.574 . S
C1522 C1538 1.368 . S
H1523 C1531 0.950 . S
H1524 C1529 0.950 . S
H1525 C1530 0.949 . S
H1526 C1532 0.950 . S
H1527 C1533 0.950 . S
H1528 C1534 0.949 . S
C1529 H1524 0.950 . S
C1529 C1531 1.327 . S
C1529 C1535 1.429 . S
C1530 C1522 1.574 . S
C1530 H1525 0.949 . S
C1530 C1536 1.368 . S
C1531 C1515 1.349 . S
C1531 H1523 0.950 . S
C1531 C1529 1.327 . S
C1532 C1520 1.349 . S
C1532 H1526 0.950 . S
C1532 C1533 1.327 . S
C1533 H1527 0.950 . S
C1533 C1532 1.327 . S
C1533 C1537 1.429 . S
C1534 C1517 1.574 . S
C1534 H1528 0.949 . S
C1534 C1538 1.368 . S
C1535 C1516 1.429 . S
C1535 C1529 1.429 . S
C1535 C1536 1.523 . S
C1536 C1517 1.368 . S
C1536 C1530 1.368 . S
C1536 C1535 1.523 . S
C1537 C1521 1.429 . S
C1537 C1533 1.429 . S
C1537 C1538 1.523 . S
C1538 C1522 1.368 . S
C1538 C1534 1.368 . S
C1538 C1537 1.523 . S
H1539 C1514 0.950 . S
H1540 C1516 0.950 . S
H1541 C1517 0.949 . S
H1542 C1519 0.950 . S
H1543 C1521 0.950 . S
C1544 C1545 1.349 . S
C1544 C1546 1.327 . S
C1544 H1569 0.950 . S
C1545 C1544 1.349 . S
C1545 C1561 1.349 . S
C1546 C1544 1.327 . S
C1546 C1565 1.429 . S
C1546 H1570 0.950 . S
C1547 C1564 1.574 1_455 S
C1547 C1566 1.368 . S
C1547 H1571 0.949 . S
H1548 C1552 0.949 . S
C1549 C1550 1.349 . S
C1549 C1551 1.327 . S
C1549 H1572 0.950 . S
C1550 C1549 1.349 . S
C1550 C1562 1.349 . S
C1551 C1549 1.327 . S
C1551 C1567 1.429 . S
C1551 H1573 0.950 . S
C1552 H1548 0.949 . S
C1552 C1560 1.574 . S
C1552 C1568 1.368 . S
H1553 C1561 0.950 . S
H1554 C1559 0.950 . S
H1555 C1560 0.949 . S
H1556 C1562 0.950 . S
H1557 C1563 1.002 . S
H1558 C1564 0.949 . S
C1559 H1554 0.950 . S
C1559 C1561 1.327 . S
C1559 C1565 1.429 . S
C1560 C1552 1.574 . S
C1560 H1555 0.949 . S
C1560 C1566 1.368 . S
C1561 C1545 1.349 . S
C1561 H1553 0.950 . S
C1561 C1559 1.327 . S
C1562 C1550 1.349 . S
C1562 H1556 0.950 . S
C1562 C1563 1.298 1_655 S
C1563 H1557 1.002 . S
C1563 C1562 1.298 1_455 S
C1563 C1567 1.412 1_455 S
C1564 C1547 1.574 1_655 S
C1564 H1558 0.949 . S
C1564 C1568 1.368 1_655 S
C1565 C1546 1.429 . S
C1565 C1559 1.429 . S
C1565 C1566 1.523 . S
C1566 C1547 1.368 . S
C1566 C1560 1.368 . S
C1566 C1565 1.523 . S
C1567 C1551 1.429 . S
C1567 C1563 1.412 1_655 S
C1567 C1568 1.523 1_655 S
C1568 C1552 1.368 . S
C1568 C1564 1.368 1_455 S
C1568 C1567 1.523 1_455 S
H1569 C1544 0.950 . S
H1570 C1546 0.950 . S
H1571 C1547 0.949 . S
H1572 C1549 0.950 . S
H1573 C1551 0.950 . S
C1574 C1575 1.349 . S
C1574 C1576 1.327 . S
C1574 H1599 0.950 . S
C1575 C1574 1.349 . S
C1575 C1591 1.349 . S
C1576 C1574 1.327 . S
C1576 C1595 1.429 . S
C1576 H1600 0.950 . S
C1577 C1594 1.574 . S
C1577 C1596 1.368 . S
C1577 H1601 0.949 . S
H1578 C1582 0.949 . S
C1579 C1580 1.349 . S
C1579 C1581 1.327 . S
C1579 H1602 0.950 . S
C1580 C1579 1.349 . S
C1580 C1592 1.349 . S
C1581 C1579 1.327 . S
C1581 C1597 1.429 . S
C1581 H1603 0.950 . S
C1582 H1578 0.949 . S
C1582 C1590 1.574 . S
C1582 C1598 1.368 . S
H1583 C1591 0.950 . S
H1584 C1589 0.950 . S
H1585 C1590 0.949 . S
H1586 C1592 0.950 . S
H1587 C1593 0.950 . S
H1588 C1594 0.949 . S
C1589 H1584 0.950 . S
C1589 C1591 1.327 . S
C1589 C1595 1.429 . S
C1590 C1582 1.574 . S
C1590 H1585 0.949 . S
C1590 C1596 1.368 . S
C1591 C1575 1.349 . S
C1591 H1583 0.950 . S
C1591 C1589 1.327 . S
C1592 C1580 1.349 . S
C1592 H1586 0.950 . S
C1592 C1593 1.327 . S
C1593 H1587 0.950 . S
C1593 C1592 1.327 . S
C1593 C1597 1.429 . S
C1594 C1577 1.574 . S
C1594 H1588 0.949 . S
C1594 C1598 1.368 . S
C1595 C1576 1.429 . S
C1595 C1589 1.429 . S
C1595 C1596 1.523 . S
C1596 C1577 1.368 . S
C1596 C1590 1.368 . S
C1596 C1595 1.523 . S
C1597 C1581 1.429 . S
C1597 C1593 1.429 . S
C1597 C1598 1.523 . S
C1598 C1582 1.368 . S
C1598 C1594 1.368 . S
C1598 C1597 1.523 . S
H1599 C1574 0.950 . S
H1600 C1576 0.950 . S
H1601 C1577 0.949 . S
H1602 C1579 0.950 . S
H1603 C1581 0.950 . S
C1604 C1605 1.349 . S
C1604 C1606 1.327 . S
C1604 H1629 0.950 . S
C1605 C1604 1.349 . S
C1605 C1621 1.349 . S
C1606 C1604 1.327 . S
C1606 C1625 1.429 . S
C1606 H1630 0.950 . S
C1607 C1624 1.574 . S
C1607 C1626 1.368 . S
C1607 H1631 0.949 . S
H1608 C1612 0.949 . S
C1609 C1610 1.349 . S
C1609 C1611 1.327 . S
C1609 H1632 0.950 . S
C1610 C1609 1.349 . S
C1610 C1622 1.349 . S
C1611 C1609 1.327 . S
C1611 C1627 1.429 . S
C1611 H1633 0.950 . S
C1612 H1608 0.949 . S
C1612 C1620 1.574 . S
C1612 C1628 1.368 . S
H1613 C1621 0.950 . S
H1614 C1619 0.950 . S
H1615 C1620 0.949 . S
H1616 C1622 0.950 . S
H1617 C1623 0.950 . S
H1618 C1624 0.949 . S
C1619 H1614 0.950 . S
C1619 C1621 1.327 . S
C1619 C1625 1.429 . S
C1620 C1612 1.574 . S
C1620 H1615 0.949 . S
C1620 C1626 1.368 . S
C1621 C1605 1.349 . S
C1621 H1613 0.950 . S
C1621 C1619 1.327 . S
C1622 C1610 1.349 . S
C1622 H1616 0.950 . S
C1622 C1623 1.327 . S
C1623 H1617 0.950 . S
C1623 C1622 1.327 . S
C1623 C1627 1.429 . S
C1624 C1607 1.574 . S
C1624 H1618 0.949 . S
C1624 C1628 1.368 . S
C1625 C1606 1.429 . S
C1625 C1619 1.429 . S
C1625 C1626 1.523 . S
C1626 C1607 1.368 . S
C1626 C1620 1.368 . S
C1626 C1625 1.523 . S
C1627 C1611 1.429 . S
C1627 C1623 1.429 . S
C1627 C1628 1.523 1_556 S
C1628 C1612 1.368 . S
C1628 C1624 1.368 . S
C1628 C1627 1.523 1_554 S
H1629 C1604 0.950 . S
H1630 C1606 0.950 . S
H1631 C1607 0.949 . S
H1632 C1609 0.950 . S
H1633 C1611 0.950 . S
C1634 C1635 1.349 . S
C1634 C1636 1.327 . S
C1634 H1659 0.950 . S
C1635 C1634 1.349 . S
C1635 C1651 1.349 . S
C1636 C1634 1.327 . S
C1636 C1655 1.429 . S
C1636 H1660 0.950 . S
C1637 C1654 1.574 . S
C1637 C1656 1.368 . S
C1637 H1661 0.949 . S
H1638 C1642 0.949 . S
C1639 C1640 1.349 . S
C1639 C1641 1.327 . S
C1639 H1662 0.950 . S
C1640 C1639 1.349 . S
C1640 C1652 1.349 . S
C1641 C1639 1.327 . S
C1641 C1657 1.429 . S
C1641 H1663 0.950 . S
C1642 H1638 0.949 . S
C1642 C1650 1.574 . S
C1642 C1658 1.368 . S
H1643 C1651 0.950 . S
H1644 C1649 0.950 . S
H1645 C1650 0.949 . S
H1646 C1652 0.950 . S
H1647 C1653 0.950 . S
H1648 C1654 0.949 . S
C1649 H1644 0.950 . S
C1649 C1651 1.327 . S
C1649 C1655 1.429 . S
C1650 C1642 1.574 . S
C1650 H1645 0.949 . S
C1650 C1656 1.368 . S
C1651 C1635 1.349 . S
C1651 H1643 0.950 . S
C1651 C1649 1.327 . S
C1652 C1640 1.349 . S
C1652 H1646 0.950 . S
C1652 C1653 1.327 . S
C1653 H1647 0.950 . S
C1653 C1652 1.327 . S
C1653 C1657 1.429 . S
C1654 C1637 1.574 . S
C1654 H1648 0.949 . S
C1654 C1658 1.368 . S
C1655 C1636 1.429 . S
C1655 C1649 1.429 . S
C1655 C1656 1.523 . S
C1656 C1637 1.368 . S
C1656 C1650 1.368 . S
C1656 C1655 1.523 . S
C1657 C1641 1.429 . S
C1657 C1653 1.429 . S
C1657 C1658 1.523 . S
C1658 C1642 1.368 . S
C1658 C1654 1.368 . S
C1658 C1657 1.523 . S
H1659 C1634 0.950 . S
H1660 C1636 0.950 . S
H1661 C1637 0.949 . S
H1662 C1639 0.950 . S
H1663 C1641 0.950 . S
C1664 C1665 1.349 . S
C1664 C1666 1.327 . S
C1664 H1689 0.950 . S
C1665 C1664 1.349 . S
C1665 C1681 1.349 . S
C1666 C1664 1.327 . S
C1666 C1685 1.429 . S
C1666 H1690 0.950 . S
C1667 C1684 1.574 . S
C1667 C1686 1.368 . S
C1667 H1691 0.949 . S
H1668 C1672 0.949 . S
C1669 C1670 1.349 . S
C1669 C1671 1.327 . S
C1669 H1692 0.950 . S
C1670 C1669 1.349 . S
C1670 C1682 1.349 . S
C1671 C1669 1.327 . S
C1671 C1687 1.429 . S
C1671 H1693 0.950 . S
C1672 H1668 0.949 . S
C1672 C1680 1.574 . S
C1672 C1688 1.368 . S
H1673 C1681 0.950 . S
H1674 C1679 0.950 . S
H1675 C1680 0.949 . S
H1676 C1682 0.950 . S
H1677 C1683 0.950 . S
H1678 C1684 0.949 . S
C1679 H1674 0.950 . S
C1679 C1681 1.327 . S
C1679 C1685 1.429 . S
C1680 C1672 1.574 . S
C1680 H1675 0.949 . S
C1680 C1686 1.368 . S
C1681 C1665 1.349 . S
C1681 H1673 0.950 . S
C1681 C1679 1.327 . S
C1682 C1670 1.349 . S
C1682 H1676 0.950 . S
C1682 C1683 1.327 . S
C1683 H1677 0.950 . S
C1683 C1682 1.327 . S
C1683 C1687 1.429 . S
C1684 C1667 1.574 . S
C1684 H1678 0.949 . S
C1684 C1688 1.368 . S
C1685 C1666 1.429 . S
C1685 C1679 1.429 . S
C1685 C1686 1.523 . S
C1686 C1667 1.368 . S
C1686 C1680 1.368 . S
C1686 C1685 1.523 . S
C1687 C1671 1.429 . S
C1687 C1683 1.429 . S
C1687 C1688 1.523 . S
C1688 C1672 1.368 . S
C1688 C1684 1.368 . S
C1688 C1687 1.523 . S
H1689 C1664 0.950 . S
H1690 C1666 0.950 . S
H1691 C1667 0.949 . S
H1692 C1669 0.950 . S
H1693 C1671 0.950 . S
C1694 C1695 1.349 . S
C1694 C1696 1.327 . S
C1694 H1719 0.950 . S
C1695 C1694 1.349 . S
C1695 C1711 1.349 . S
C1696 C1694 1.327 . S
C1696 C1715 1.429 . S
C1696 H1720 0.950 . S
C1697 C1714 1.574 . S
C1697 C1716 1.368 . S
C1697 H1721 0.949 . S
H1698 C1702 0.949 . S
C1699 C1700 1.349 . S
C1699 C1701 1.327 . S
C1699 H1722 0.950 . S
C1700 C1699 1.349 . S
C1700 C1712 1.349 . S
C1701 C1699 1.327 . S
C1701 C1717 1.429 . S
C1701 H1723 0.950 . S
C1702 H1698 0.949 . S
C1702 C1710 1.574 . S
C1702 C1718 1.368 . S
H1703 C1711 0.950 . S
H1704 C1709 0.950 . S
H1705 C1710 0.949 . S
H1706 C1712 0.950 . S
H1707 C1713 0.950 . S
H1708 C1714 0.949 . S
C1709 H1704 0.950 . S
C1709 C1711 1.327 . S
C1709 C1715 1.429 . S
C1710 C1702 1.574 . S
C1710 H1705 0.949 . S
C1710 C1716 1.368 . S
C1711 C1695 1.349 . S
C1711 H1703 0.950 . S
C1711 C1709 1.327 . S
C1712 C1700 1.349 . S
C1712 H1706 0.950 . S
C1712 C1713 1.327 . S
C1713 H1707 0.950 . S
C1713 C1712 1.327 . S
C1713 C1717 1.429 . S
C1714 C1697 1.574 . S
C1714 H1708 0.949 . S
C1714 C1718 1.368 . S
C1715 C1696 1.429 . S
C1715 C1709 1.429 . S
C1715 C1716 1.523 . S
C1716 C1697 1.368 . S
C1716 C1710 1.368 . S
C1716 C1715 1.523 . S
C1717 C1701 1.429 . S
C1717 C1713 1.429 . S
C1717 C1718 1.523 . S
C1718 C1702 1.368 . S
C1718 C1714 1.368 . S
C1718 C1717 1.523 . S
H1719 C1694 0.950 . S
H1720 C1696 0.950 . S
H1721 C1697 0.949 . S
H1722 C1699 0.950 . S
H1723 C1701 0.950 . S
C1724 C1725 1.349 . S
C1724 C1726 1.327 1_655 S
C1724 H1749 0.950 . S
C1725 C1724 1.349 . S
C1725 C1741 1.349 . S
C1726 C1724 1.327 1_455 S
C1726 C1745 1.429 1_455 S
C1726 H1750 0.950 . S
C1727 C1744 1.574 1_655 S
C1727 C1746 1.368 1_655 S
C1727 H1751 0.949 . S
H1728 C1732 0.949 . S
C1729 C1730 1.349 . S
C1729 C1731 1.327 . S
C1729 H1752 0.950 . S
C1730 C1729 1.349 . S
C1730 C1742 1.349 . S
C1731 C1729 1.327 . S
C1731 C1747 1.429 . S
C1731 H1753 0.950 . S
C1732 H1728 0.949 . S
C1732 C1740 1.574 . S
C1732 C1748 1.368 . S
H1733 C1741 0.950 . S
H1734 C1739 0.950 . S
H1735 C1740 0.949 . S
H1736 C1742 0.950 . S
H1737 C1743 0.950 . S
H1738 C1744 0.974 . S
C1739 H1734 0.950 . S
C1739 C1741 1.327 . S
C1739 C1745 1.429 . S
C1740 C1732 1.574 . S
C1740 H1735 0.949 . S
C1740 C1746 1.368 . S
C1741 C1725 1.349 . S
C1741 H1733 0.950 . S
C1741 C1739 1.327 . S
C1742 C1730 1.349 . S
C1742 H1736 0.950 . S
C1742 C1743 1.327 . S
C1743 H1737 0.950 . S
C1743 C1742 1.327 . S
C1743 C1747 1.429 . S
C1744 C1727 1.574 1_455 S
C1744 H1738 0.974 . S
C1744 C1748 1.368 . S
C1745 C1726 1.429 1_655 S
C1745 C1739 1.429 . S
C1745 C1746 1.523 1_655 S
C1746 C1727 1.368 1_455 S
C1746 C1740 1.368 . S
C1746 C1745 1.523 1_455 S
C1747 C1731 1.429 . S
C1747 C1743 1.429 . S
C1747 C1748 1.523 1_556 S
C1748 C1732 1.368 . S
C1748 C1744 1.368 . S
C1748 C1747 1.523 1_554 S
H1749 C1724 0.950 . S
H1750 C1726 0.950 . S
H1751 C1727 0.949 . S
H1752 C1729 0.950 . S
H1753 C1731 0.950 . S
C1754 C1755 1.349 . S
C1754 C1756 1.327 . S
C1754 H1779 0.950 . S
C1755 C1754 1.349 . S
C1755 C1771 1.349 . S
C1756 C1754 1.327 . S
C1756 C1775 1.429 . S
C1756 H1780 0.950 . S
C1757 C1774 1.574 . S
C1757 C1776 1.368 . S
C1757 H1781 0.949 . S
H1758 C1762 0.949 . S
C1759 C1760 1.349 . S
C1759 C1761 1.327 . S
C1759 H1782 0.950 . S
C1760 C1759 1.349 . S
C1760 C1772 1.349 . S
C1761 C1759 1.327 . S
C1761 C1777 1.429 . S
C1761 H1783 0.950 . S
C1762 H1758 0.949 . S
C1762 C1770 1.574 . S
C1762 C1778 1.368 . S
H1763 C1771 0.950 . S
H1764 C1769 0.950 . S
H1765 C1770 0.949 . S
H1766 C1772 0.950 . S
H1767 C1773 0.950 . S
H1768 C1774 0.949 . S
C1769 H1764 0.950 . S
C1769 C1771 1.327 . S
C1769 C1775 1.429 . S
C1770 C1762 1.574 . S
C1770 H1765 0.949 . S
C1770 C1776 1.368 . S
C1771 C1755 1.349 . S
C1771 H1763 0.950 . S
C1771 C1769 1.327 . S
C1772 C1760 1.349 . S
C1772 H1766 0.950 . S
C1772 C1773 1.327 . S
C1773 H1767 0.950 . S
C1773 C1772 1.327 . S
C1773 C1777 1.429 . S
C1774 C1757 1.574 . S
C1774 H1768 0.949 . S
C1774 C1778 1.368 . S
C1775 C1756 1.429 . S
C1775 C1769 1.429 . S
C1775 C1776 1.523 . S
C1776 C1757 1.368 . S
C1776 C1770 1.368 . S
C1776 C1775 1.523 . S
C1777 C1761 1.429 . S
C1777 C1773 1.429 . S
C1777 C1778 1.523 . S
C1778 C1762 1.368 . S
C1778 C1774 1.368 . S
C1778 C1777 1.523 . S
H1779 C1754 0.950 . S
H1780 C1756 0.950 . S
H1781 C1757 0.949 . S
H1782 C1759 0.950 . S
H1783 C1761 0.950 . S
C1784 C1785 1.349 . S
C1784 C1786 1.327 . S
C1784 H1809 0.950 . S
C1785 C1784 1.349 . S
C1785 C1801 1.349 . S
C1786 C1784 1.327 . S
C1786 C1805 1.429 . S
C1786 H1810 0.950 . S
C1787 C1804 1.574 . S
C1787 C1806 1.368 . S
C1787 H1811 0.949 . S
H1788 C1792 0.949 . S
C1789 C1790 1.349 . S
C1789 C1791 1.327 . S
C1789 H1812 0.950 . S
C1790 C1789 1.349 . S
C1790 C1802 1.349 . S
C1791 C1789 1.327 . S
C1791 C1807 1.429 . S
C1791 H1813 0.950 . S
C1792 H1788 0.949 . S
C1792 C1800 1.574 . S
C1792 C1808 1.368 . S
H1793 C1801 0.950 . S
H1794 C1799 0.950 . S
H1795 C1800 0.949 . S
H1796 C1802 0.950 . S
H1797 C1803 0.950 . S
H1798 C1804 0.949 . S
C1799 H1794 0.950 . S
C1799 C1801 1.327 . S
C1799 C1805 1.429 . S
C1800 C1792 1.574 . S
C1800 H1795 0.949 . S
C1800 C1806 1.368 . S
C1801 C1785 1.349 . S
C1801 H1793 0.950 . S
C1801 C1799 1.327 . S
C1802 C1790 1.349 . S
C1802 H1796 0.950 . S
C1802 C1803 1.327 . S
C1803 H1797 0.950 . S
C1803 C1802 1.327 . S
C1803 C1807 1.429 . S
C1804 C1787 1.574 . S
C1804 H1798 0.949 . S
C1804 C1808 1.368 . S
C1805 C1786 1.429 . S
C1805 C1799 1.429 . S
C1805 C1806 1.523 1_554 S
C1806 C1787 1.368 . S
C1806 C1800 1.368 . S
C1806 C1805 1.523 1_556 S
C1807 C1791 1.429 . S
C1807 C1803 1.429 . S
C1807 C1808 1.523 . S
C1808 C1792 1.368 . S
C1808 C1804 1.368 . S
C1808 C1807 1.523 . S
H1809 C1784 0.950 . S
H1810 C1786 0.950 . S
H1811 C1787 0.949 . S
H1812 C1789 0.950 . S
H1813 C1791 0.950 . S
C1814 C1815 1.349 . S
C1814 C1816 1.327 . S
C1814 H1839 0.950 . S
C1815 C1814 1.349 . S
C1815 C1831 1.349 . S
C1816 C1814 1.327 . S
C1816 C1835 1.429 . S
C1816 H1840 0.950 . S
C1817 C1834 1.574 . S
C1817 C1836 1.368 . S
C1817 H1841 0.949 . S
H1818 C1822 0.949 . S
C1819 C1820 1.349 . S
C1819 C1821 1.327 . S
C1819 H1842 0.950 . S
C1820 C1819 1.349 . S
C1820 C1832 1.349 . S
C1821 C1819 1.327 . S
C1821 C1837 1.429 . S
C1821 H1843 0.950 . S
C1822 H1818 0.949 . S
C1822 C1830 1.574 . S
C1822 C1838 1.368 . S
H1823 C1831 0.950 . S
H1824 C1829 0.950 . S
H1825 C1830 0.949 . S
H1826 C1832 0.950 . S
H1827 C1833 0.950 . S
H1828 C1834 0.949 . S
C1829 H1824 0.950 . S
C1829 C1831 1.327 . S
C1829 C1835 1.429 . S
C1830 C1822 1.574 . S
C1830 H1825 0.949 . S
C1830 C1836 1.368 . S
C1831 C1815 1.349 . S
C1831 H1823 0.950 . S
C1831 C1829 1.327 . S
C1832 C1820 1.349 . S
C1832 H1826 0.950 . S
C1832 C1833 1.327 . S
C1833 H1827 0.950 . S
C1833 C1832 1.327 . S
C1833 C1837 1.429 . S
C1834 C1817 1.574 . S
C1834 H1828 0.949 . S
C1834 C1838 1.368 . S
C1835 C1816 1.429 . S
C1835 C1829 1.429 . S
C1835 C1836 1.523 . S
C1836 C1817 1.368 . S
C1836 C1830 1.368 . S
C1836 C1835 1.523 . S
C1837 C1821 1.429 . S
C1837 C1833 1.429 . S
C1837 C1838 1.523 . S
C1838 C1822 1.368 . S
C1838 C1834 1.368 . S
C1838 C1837 1.523 . S
H1839 C1814 0.950 . S
H1840 C1816 0.950 . S
H1841 C1817 0.949 . S
H1842 C1819 0.950 . S
H1843 C1821 0.950 . S
C1844 C1845 1.349 . S
C1844 C1846 1.327 . S
C1844 H1869 0.950 . S
C1845 C1844 1.349 . S
C1845 C1861 1.349 . S
C1846 C1844 1.327 . S
C1846 C1865 1.429 . S
C1846 H1870 0.950 . S
C1847 C1864 1.573 . S
C1847 C1866 1.368 . S
C1847 H1871 0.949 . S
H1848 C1852 0.949 . S
C1849 C1850 1.349 . S
C1849 C1851 1.327 . S
C1849 H1872 0.950 . S
C1850 C1849 1.349 . S
C1850 C1862 1.349 . S
C1851 C1849 1.327 . S
C1851 C1867 1.429 . S
C1851 H1873 0.950 . S
C1852 H1848 0.949 . S
C1852 C1860 1.574 . S
C1852 C1868 1.368 . S
H1853 C1861 0.950 . S
H1854 C1859 0.950 . S
H1855 C1860 0.949 . S
H1856 C1862 0.950 . S
H1857 C1863 0.931 1_455 S
H1858 C1864 0.950 1_655 S
C1859 H1854 0.950 . S
C1859 C1861 1.327 . S
C1859 C1865 1.429 . S
C1860 C1852 1.574 . S
C1860 H1855 0.949 . S
C1860 C1866 1.368 . S
C1861 C1845 1.349 . S
C1861 H1853 0.950 . S
C1861 C1859 1.327 . S
C1862 C1850 1.349 . S
C1862 H1856 0.950 . S
C1862 C1863 1.341 . S
C1863 H1857 0.931 1_655 S
C1863 C1862 1.341 . S
C1863 C1867 1.434 . S
C1864 C1847 1.573 . S
C1864 H1858 0.950 1_455 S
C1864 C1868 1.368 . S
C1865 C1846 1.429 . S
C1865 C1859 1.429 . S
C1865 C1866 1.523 . S
C1866 C1847 1.368 . S
C1866 C1860 1.368 . S
C1866 C1865 1.523 . S
C1867 C1851 1.429 . S
C1867 C1863 1.434 . S
C1867 C1868 1.523 1_655 S
C1868 C1852 1.368 . S
C1868 C1864 1.368 . S
C1868 C1867 1.523 1_455 S
H1869 C1844 0.950 . S
H1870 C1846 0.950 . S
H1871 C1847 0.949 . S
H1872 C1849 0.950 . S
H1873 C1851 0.950 . S
C1874 C1875 1.349 . S
C1874 C1876 1.327 . S
C1874 H1899 0.950 . S
C1875 C1874 1.349 . S
C1875 C1891 1.349 . S
C1876 C1874 1.327 . S
C1876 C1895 1.429 . S
C1876 H1900 0.950 . S
C1877 C1894 1.574 . S
C1877 C1896 1.368 . S
C1877 H1901 0.949 . S
H1878 C1882 0.949 . S
C1879 C1880 1.349 . S
C1879 C1881 1.327 . S
C1879 H1902 0.950 . S
C1880 C1879 1.349 . S
C1880 C1892 1.349 . S
C1881 C1879 1.327 . S
C1881 C1897 1.429 . S
C1881 H1903 0.950 . S
C1882 H1878 0.949 . S
C1882 C1890 1.574 . S
C1882 C1898 1.368 . S
H1883 C1891 0.950 . S
H1884 C1889 0.950 . S
H1885 C1890 0.949 . S
H1886 C1892 0.950 . S
H1887 C1893 0.950 . S
H1888 C1894 0.949 . S
C1889 H1884 0.950 . S
C1889 C1891 1.327 . S
C1889 C1895 1.429 . S
C1890 C1882 1.574 . S
C1890 H1885 0.949 . S
C1890 C1896 1.368 . S
C1891 C1875 1.349 . S
C1891 H1883 0.950 . S
C1891 C1889 1.327 . S
C1892 C1880 1.349 . S
C1892 H1886 0.950 . S
C1892 C1893 1.327 . S
C1893 H1887 0.950 . S
C1893 C1892 1.327 . S
C1893 C1897 1.429 . S
C1894 C1877 1.574 . S
C1894 H1888 0.949 . S
C1894 C1898 1.368 . S
C1895 C1876 1.429 . S
C1895 C1889 1.429 . S
C1895 C1896 1.523 . S
C1896 C1877 1.368 . S
C1896 C1890 1.368 . S
C1896 C1895 1.523 . S
C1897 C1881 1.429 . S
C1897 C1893 1.429 . S
C1897 C1898 1.523 . S
C1898 C1882 1.368 . S
C1898 C1894 1.368 . S
C1898 C1897 1.523 . S
H1899 C1874 0.950 . S
H1900 C1876 0.950 . S
H1901 C1877 0.949 . S
H1902 C1879 0.950 . S
H1903 C1881 0.950 . S
C1904 C1905 1.349 . S
C1904 C1906 1.327 . S
C1904 H1929 0.950 . S
C1905 C1904 1.349 . S
C1905 C1921 1.349 . S
C1906 C1904 1.327 . S
C1906 C1925 1.429 . S
C1906 H1930 0.950 . S
C1907 C1924 1.574 . S
C1907 C1926 1.368 . S
C1907 H1931 0.949 . S
H1908 C1912 0.949 . S
C1909 C1910 1.349 . S
C1909 C1911 1.327 . S
C1909 H1932 0.950 . S
C1910 C1909 1.349 . S
C1910 C1922 1.349 . S
C1911 C1909 1.327 . S
C1911 C1927 1.429 . S
C1911 H1933 0.950 . S
C1912 H1908 0.949 . S
C1912 C1920 1.574 . S
C1912 C1928 1.368 . S
H1913 C1921 0.950 . S
H1914 C1919 0.950 . S
H1915 C1920 0.949 . S
H1916 C1922 0.950 . S
H1917 C1923 0.950 . S
H1918 C1924 0.949 . S
C1919 H1914 0.950 . S
C1919 C1921 1.327 . S
C1919 C1925 1.429 . S
C1920 C1912 1.574 . S
C1920 H1915 0.949 . S
C1920 C1926 1.368 . S
C1921 C1905 1.349 . S
C1921 H1913 0.950 . S
C1921 C1919 1.327 . S
C1922 C1910 1.349 . S
C1922 H1916 0.950 . S
C1922 C1923 1.327 . S
C1923 H1917 0.950 . S
C1923 C1922 1.327 . S
C1923 C1927 1.429 . S
C1924 C1907 1.574 . S
C1924 H1918 0.949 . S
C1924 C1928 1.368 . S
C1925 C1906 1.429 . S
C1925 C1919 1.429 . S
C1925 C1926 1.523 . S
C1926 C1907 1.368 . S
C1926 C1920 1.368 . S
C1926 C1925 1.523 . S
C1927 C1911 1.429 . S
C1927 C1923 1.429 . S
C1927 C1928 1.523 . S
C1928 C1912 1.368 . S
C1928 C1924 1.368 . S
C1928 C1927 1.523 . S
H1929 C1904 0.950 . S
H1930 C1906 0.950 . S
H1931 C1907 0.949 . S
H1932 C1909 0.950 . S
H1933 C1911 0.950 . S
C1934 C1935 1.349 . S
C1934 C1936 1.327 . S
C1934 H1959 0.950 . S
C1935 C1934 1.349 . S
C1935 C1951 1.349 . S
C1936 C1934 1.327 . S
C1936 C1955 1.429 . S
C1936 H1960 0.950 . S
C1937 C1954 1.574 . S
C1937 C1956 1.368 . S
C1937 H1961 0.949 . S
H1938 C1942 0.949 . S
C1939 C1940 1.349 . S
C1939 C1941 1.327 . S
C1939 H1962 0.950 . S
C1940 C1939 1.349 . S
C1940 C1952 1.349 . S
C1941 C1939 1.327 . S
C1941 C1957 1.429 . S
C1941 H1963 0.950 . S
C1942 H1938 0.949 . S
C1942 C1950 1.574 . S
C1942 C1958 1.368 . S
H1943 C1951 0.950 . S
H1944 C1949 0.950 . S
H1945 C1950 0.949 . S
H1946 C1952 0.950 . S
H1947 C1953 0.950 . S
H1948 C1954 0.949 . S
C1949 H1944 0.950 . S
C1949 C1951 1.327 . S
C1949 C1955 1.429 . S
C1950 C1942 1.574 . S
C1950 H1945 0.949 . S
C1950 C1956 1.368 . S
C1951 C1935 1.349 . S
C1951 H1943 0.950 . S
C1951 C1949 1.327 . S
C1952 C1940 1.349 . S
C1952 H1946 0.950 . S
C1952 C1953 1.327 . S
C1953 H1947 0.950 . S
C1953 C1952 1.327 . S
C1953 C1957 1.429 . S
C1954 C1937 1.574 . S
C1954 H1948 0.949 . S
C1954 C1958 1.368 . S
C1955 C1936 1.429 . S
C1955 C1949 1.429 . S
C1955 C1956 1.523 . S
C1956 C1937 1.368 . S
C1956 C1950 1.368 . S
C1956 C1955 1.523 . S
C1957 C1941 1.429 . S
C1957 C1953 1.429 . S
C1957 C1958 1.523 . S
C1958 C1942 1.368 . S
C1958 C1954 1.368 . S
C1958 C1957 1.523 . S
H1959 C1934 0.950 . S
H1960 C1936 0.950 . S
H1961 C1937 0.949 . S
H1962 C1939 0.950 . S
H1963 C1941 0.950 . S
C1964 C1965 1.349 . S
C1964 C1966 1.327 . S
C1964 H1989 0.950 . S
C1965 C1964 1.349 . S
C1965 C1981 1.349 . S
C1966 C1964 1.327 . S
C1966 C1985 1.429 . S
C1966 H1990 0.950 . S
C1967 C1984 1.559 1_655 S
C1967 C1986 1.368 . S
C1967 H1991 0.949 . S
H1968 C1972 0.949 . S
C1969 C1970 1.349 . S
C1969 C1971 1.327 . S
C1969 H1992 0.950 . S
C1970 C1969 1.349 . S
C1970 C1982 1.349 . S
C1971 C1969 1.327 . S
C1971 C1987 1.429 . S
C1971 H1993 0.950 . S
C1972 H1968 0.949 . S
C1972 C1980 1.574 . S
C1972 C1988 1.368 . S
H1973 C1981 0.950 . S
H1974 C1979 0.950 . S
H1975 C1980 0.949 . S
H1976 C1982 0.950 . S
H1977 C1983 0.953 1_655 S
H1978 C1984 0.973 . S
C1979 H1974 0.950 . S
C1979 C1981 1.327 . S
C1979 C1985 1.429 . S
C1980 C1972 1.574 . S
C1980 H1975 0.949 . S
C1980 C1986 1.368 . S
C1981 C1965 1.349 . S
C1981 H1973 0.950 . S
C1981 C1979 1.327 . S
C1982 C1970 1.349 . S
C1982 H1976 0.950 . S
C1982 C1983 1.325 . S
C1983 H1977 0.953 1_455 S
C1983 C1982 1.325 . S
C1983 C1987 1.428 . S
C1984 C1967 1.559 1_455 S
C1984 H1978 0.973 . S
C1984 C1988 1.358 1_455 S
C1985 C1966 1.429 . S
C1985 C1979 1.429 . S
C1985 C1986 1.523 1_554 S
C1986 C1967 1.368 . S
C1986 C1980 1.368 . S
C1986 C1985 1.523 1_556 S
C1987 C1971 1.429 . S
C1987 C1983 1.428 . S
C1987 C1988 1.523 1_455 S
C1988 C1972 1.368 . S
C1988 C1984 1.358 1_655 S
C1988 C1987 1.523 1_655 S
H1989 C1964 0.950 . S
H1990 C1966 0.950 . S
H1991 C1967 0.949 . S
H1992 C1969 0.950 . S
H1993 C1971 0.950 . S
C1994 C1995 1.349 . S
C1994 C1996 1.327 . S
C1994 H2019 0.950 . S
C1995 C1994 1.349 . S
C1995 C2011 1.349 . S
C1996 C1994 1.327 . S
C1996 C2015 1.429 . S
C1996 H2020 0.950 . S
C1997 C2014 1.574 . S
C1997 C2016 1.368 . S
C1997 H2021 0.949 . S
H1998 C2002 0.949 . S
C1999 C2000 1.349 . S
C1999 C2001 1.327 . S
C1999 H2022 0.950 . S
C2000 C1999 1.349 . S
C2000 C2012 1.349 . S
C2001 C1999 1.327 . S
C2001 C2017 1.429 . S
C2001 H2023 0.950 . S
C2002 H1998 0.949 . S
C2002 C2010 1.574 . S
C2002 C2018 1.368 . S
H2003 C2011 0.950 . S
H2004 C2009 0.950 . S
H2005 C2010 0.949 . S
H2006 C2012 0.950 . S
H2007 C2013 0.950 . S
H2008 C2014 0.949 . S
C2009 H2004 0.950 . S
C2009 C2011 1.327 . S
C2009 C2015 1.429 . S
C2010 C2002 1.574 . S
C2010 H2005 0.949 . S
C2010 C2016 1.368 . S
C2011 C1995 1.349 . S
C2011 H2003 0.950 . S
C2011 C2009 1.327 . S
C2012 C2000 1.349 . S
C2012 H2006 0.950 . S
C2012 C2013 1.327 . S
C2013 H2007 0.950 . S
C2013 C2012 1.327 . S
C2013 C2017 1.429 . S
C2014 C1997 1.574 . S
C2014 H2008 0.949 . S
C2014 C2018 1.368 . S
C2015 C1996 1.429 . S
C2015 C2009 1.429 . S
C2015 C2016 1.523 . S
C2016 C1997 1.368 . S
C2016 C2010 1.368 . S
C2016 C2015 1.523 . S
C2017 C2001 1.429 . S
C2017 C2013 1.429 . S
C2017 C2018 1.523 . S
C2018 C2002 1.368 . S
C2018 C2014 1.368 . S
C2018 C2017 1.523 . S
H2019 C1994 0.950 . S
H2020 C1996 0.950 . S
H2021 C1997 0.949 . S
H2022 C1999 0.950 . S
H2023 C2001 0.950 . S
C2024 C2025 1.349 . S
C2024 C2026 1.327 . S
C2024 H2049 0.950 . S
C2025 C2024 1.349 . S
C2025 C2041 1.349 . S
C2026 C2024 1.327 . S
C2026 C2045 1.429 . S
C2026 H2050 0.950 . S
C2027 C2044 1.574 . S
C2027 C2046 1.368 . S
C2027 H2051 0.949 . S
H2028 C2032 0.949 . S
C2029 C2030 1.349 . S
C2029 C2031 1.327 . S
C2029 H2052 0.950 . S
C2030 C2029 1.349 . S
C2030 C2042 1.349 . S
C2031 C2029 1.327 . S
C2031 C2047 1.429 . S
C2031 H2053 0.950 . S
C2032 H2028 0.949 . S
C2032 C2040 1.574 . S
C2032 C2048 1.368 . S
H2033 C2041 0.950 . S
H2034 C2039 0.950 . S
H2035 C2040 0.949 . S
H2036 C2042 0.950 . S
H2037 C2043 0.950 . S
H2038 C2044 0.949 . S
C2039 H2034 0.950 . S
C2039 C2041 1.327 . S
C2039 C2045 1.429 . S
C2040 C2032 1.574 . S
C2040 H2035 0.949 . S
C2040 C2046 1.368 . S
C2041 C2025 1.349 . S
C2041 H2033 0.950 . S
C2041 C2039 1.327 . S
C2042 C2030 1.349 . S
C2042 H2036 0.950 . S
C2042 C2043 1.327 . S
C2043 H2037 0.950 . S
C2043 C2042 1.327 . S
C2043 C2047 1.429 . S
C2044 C2027 1.574 . S
C2044 H2038 0.949 . S
C2044 C2048 1.368 . S
C2045 C2026 1.429 . S
C2045 C2039 1.429 . S
C2045 C2046 1.523 1_556 S
C2046 C2027 1.368 . S
C2046 C2040 1.368 . S
C2046 C2045 1.523 1_554 S
C2047 C2031 1.429 . S
C2047 C2043 1.429 . S
C2047 C2048 1.523 . S
C2048 C2032 1.368 . S
C2048 C2044 1.368 . S
C2048 C2047 1.523 . S
H2049 C2024 0.950 . S
H2050 C2026 0.950 . S
H2051 C2027 0.949 . S
H2052 C2029 0.950 . S
H2053 C2031 0.950 . S
C2054 C2055 1.349 . S
C2054 C2056 1.327 . S
C2054 H2079 0.950 . S
C2055 C2054 1.349 . S
C2055 C2071 1.349 . S
C2056 C2054 1.327 . S
C2056 C2075 1.429 . S
C2056 H2080 0.950 . S
C2057 C2074 1.574 . S
C2057 C2076 1.368 . S
C2057 H2081 0.949 . S
H2058 C2062 0.949 . S
C2059 C2060 1.349 . S
C2059 C2061 1.327 . S
C2059 H2082 0.950 . S
C2060 C2059 1.349 . S
C2060 C2072 1.349 . S
C2061 C2059 1.327 . S
C2061 C2077 1.429 . S
C2061 H2083 0.950 . S
C2062 H2058 0.949 . S
C2062 C2070 1.574 . S
C2062 C2078 1.368 . S
H2063 C2071 0.950 . S
H2064 C2069 0.950 . S
H2065 C2070 0.949 . S
H2066 C2072 0.950 . S
H2067 C2073 0.950 . S
H2068 C2074 0.949 . S
C2069 H2064 0.950 . S
C2069 C2071 1.327 . S
C2069 C2075 1.429 . S
C2070 C2062 1.574 . S
C2070 H2065 0.949 . S
C2070 C2076 1.368 . S
C2071 C2055 1.349 . S
C2071 H2063 0.950 . S
C2071 C2069 1.327 . S
C2072 C2060 1.349 . S
C2072 H2066 0.950 . S
C2072 C2073 1.327 . S
C2073 H2067 0.950 . S
C2073 C2072 1.327 . S
C2073 C2077 1.429 . S
C2074 C2057 1.574 . S
C2074 H2068 0.949 . S
C2074 C2078 1.368 . S
C2075 C2056 1.429 . S
C2075 C2069 1.429 . S
C2075 C2076 1.523 . S
C2076 C2057 1.368 . S
C2076 C2070 1.368 . S
C2076 C2075 1.523 . S
C2077 C2061 1.429 . S
C2077 C2073 1.429 . S
C2077 C2078 1.523 . S
C2078 C2062 1.368 . S
C2078 C2074 1.368 . S
C2078 C2077 1.523 . S
H2079 C2054 0.950 . S
H2080 C2056 0.950 . S
H2081 C2057 0.949 . S
H2082 C2059 0.950 . S
H2083 C2061 0.950 . S
C2084 C2085 1.349 . S
C2084 C2086 1.327 . S
C2084 H2109 0.950 . S
C2085 C2084 1.349 . S
C2085 C2101 1.349 . S
C2086 C2084 1.327 . S
C2086 C2105 1.429 . S
C2086 H2110 0.950 . S
C2087 C2104 1.574 1_655 S
C2087 C2106 1.368 . S
C2087 H2111 0.949 . S
H2088 C2092 0.949 . S
C2089 C2090 1.349 . S
C2089 C2091 1.327 . S
C2089 H2112 0.950 . S
C2090 C2089 1.349 . S
C2090 C2102 1.349 . S
C2091 C2089 1.327 . S
C2091 C2107 1.429 . S
C2091 H2113 0.950 . S
C2092 H2088 0.949 . S
C2092 C2100 1.574 . S
C2092 C2108 1.368 . S
H2093 C2101 0.950 . S
H2094 C2099 0.950 . S
H2095 C2100 0.949 . S
H2096 C2102 0.950 . S
H2097 C2103 1.001 . S
H2098 C2104 0.949 . S
C2099 H2094 0.950 . S
C2099 C2101 1.327 . S
C2099 C2105 1.429 . S
C2100 C2092 1.574 . S
C2100 H2095 0.949 . S
C2100 C2106 1.368 . S
C2101 C2085 1.349 . S
C2101 H2093 0.950 . S
C2101 C2099 1.327 . S
C2102 C2090 1.349 . S
C2102 H2096 0.950 . S
C2102 C2103 1.298 1_455 S
C2103 H2097 1.001 . S
C2103 C2102 1.298 1_655 S
C2103 C2107 1.412 1_655 S
C2104 C2087 1.574 1_455 S
C2104 H2098 0.949 . S
C2104 C2108 1.368 1_455 S
C2105 C2086 1.429 . S
C2105 C2099 1.429 . S
C2105 C2106 1.523 . S
C2106 C2087 1.368 . S
C2106 C2100 1.368 . S
C2106 C2105 1.523 . S
C2107 C2091 1.429 . S
C2107 C2103 1.412 1_455 S
C2107 C2108 1.523 1_455 S
C2108 C2092 1.368 . S
C2108 C2104 1.368 1_655 S
C2108 C2107 1.523 1_655 S
H2109 C2084 0.950 . S
H2110 C2086 0.950 . S
H2111 C2087 0.949 . S
H2112 C2089 0.950 . S
H2113 C2091 0.950 . S
C2114 C2115 1.349 . S
C2114 C2116 1.327 . S
C2114 H2139 0.950 . S
C2115 C2114 1.349 . S
C2115 C2131 1.349 . S
C2116 C2114 1.327 . S
C2116 C2135 1.429 . S
C2116 H2140 0.950 . S
C2117 C2134 1.574 . S
C2117 C2136 1.368 . S
C2117 H2141 0.949 . S
H2118 C2122 0.949 . S
C2119 C2120 1.349 . S
C2119 C2121 1.327 . S
C2119 H2142 0.950 . S
C2120 C2119 1.349 . S
C2120 C2132 1.349 . S
C2121 C2119 1.327 . S
C2121 C2137 1.429 . S
C2121 H2143 0.950 . S
C2122 H2118 0.949 . S
C2122 C2130 1.574 . S
C2122 C2138 1.368 . S
H2123 C2131 0.950 . S
H2124 C2129 0.950 . S
H2125 C2130 0.949 . S
H2126 C2132 0.950 . S
H2127 C2133 0.950 . S
H2128 C2134 0.949 . S
C2129 H2124 0.950 . S
C2129 C2131 1.327 . S
C2129 C2135 1.429 . S
C2130 C2122 1.574 . S
C2130 H2125 0.949 . S
C2130 C2136 1.368 . S
C2131 C2115 1.349 . S
C2131 H2123 0.950 . S
C2131 C2129 1.327 . S
C2132 C2120 1.349 . S
C2132 H2126 0.950 . S
C2132 C2133 1.327 . S
C2133 H2127 0.950 . S
C2133 C2132 1.327 . S
C2133 C2137 1.429 . S
C2134 C2117 1.574 . S
C2134 H2128 0.949 . S
C2134 C2138 1.368 . S
C2135 C2116 1.429 . S
C2135 C2129 1.429 . S
C2135 C2136 1.523 . S
C2136 C2117 1.368 . S
C2136 C2130 1.368 . S
C2136 C2135 1.523 . S
C2137 C2121 1.429 . S
C2137 C2133 1.429 . S
C2137 C2138 1.523 . S
C2138 C2122 1.368 . S
C2138 C2134 1.368 . S
C2138 C2137 1.523 . S
H2139 C2114 0.950 . S
H2140 C2116 0.950 . S
H2141 C2117 0.949 . S
H2142 C2119 0.950 . S
H2143 C2121 0.950 . S
C2144 C2145 1.349 . S
C2144 C2146 1.327 . S
C2144 H2169 0.950 . S
C2145 C2144 1.349 . S
C2145 C2161 1.349 . S
C2146 C2144 1.327 . S
C2146 C2165 1.429 . S
C2146 H2170 0.950 . S
C2147 C2164 1.574 . S
C2147 C2166 1.368 . S
C2147 H2171 0.949 . S
H2148 C2152 0.949 . S
C2149 C2150 1.349 . S
C2149 C2151 1.327 . S
C2149 H2172 0.950 . S
C2150 C2149 1.349 . S
C2150 C2162 1.349 . S
C2151 C2149 1.327 . S
C2151 C2167 1.429 . S
C2151 H2173 0.950 . S
C2152 H2148 0.949 . S
C2152 C2160 1.574 . S
C2152 C2168 1.368 . S
H2153 C2161 0.950 . S
H2154 C2159 0.950 . S
H2155 C2160 0.949 . S
H2156 C2162 0.950 . S
H2157 C2163 0.950 . S
H2158 C2164 0.949 . S
C2159 H2154 0.950 . S
C2159 C2161 1.327 . S
C2159 C2165 1.429 . S
C2160 C2152 1.574 . S
C2160 H2155 0.949 . S
C2160 C2166 1.368 . S
C2161 C2145 1.349 . S
C2161 H2153 0.950 . S
C2161 C2159 1.327 . S
C2162 C2150 1.349 . S
C2162 H2156 0.950 . S
C2162 C2163 1.327 . S
C2163 H2157 0.950 . S
C2163 C2162 1.327 . S
C2163 C2167 1.429 . S
C2164 C2147 1.574 . S
C2164 H2158 0.949 . S
C2164 C2168 1.368 . S
C2165 C2146 1.429 . S
C2165 C2159 1.429 . S
C2165 C2166 1.523 . S
C2166 C2147 1.368 . S
C2166 C2160 1.368 . S
C2166 C2165 1.523 . S
C2167 C2151 1.429 . S
C2167 C2163 1.429 . S
C2167 C2168 1.523 . S
C2168 C2152 1.368 . S
C2168 C2164 1.368 . S
C2168 C2167 1.523 . S
H2169 C2144 0.950 . S
H2170 C2146 0.950 . S
H2171 C2147 0.949 . S
H2172 C2149 0.950 . S
H2173 C2151 0.950 . S
C2174 C2175 1.349 . S
C2174 C2176 1.327 . S
C2174 H2199 0.950 . S
C2175 C2174 1.349 . S
C2175 C2191 1.349 . S
C2176 C2174 1.327 . S
C2176 C2195 1.429 . S
C2176 H2200 0.950 . S
C2177 C2194 1.574 . S
C2177 C2196 1.368 . S
C2177 H2201 0.949 . S
H2178 C2182 0.949 . S
C2179 C2180 1.349 . S
C2179 C2181 1.327 . S
C2179 H2202 0.950 . S
C2180 C2179 1.349 . S
C2180 C2192 1.349 . S
C2181 C2179 1.327 . S
C2181 C2197 1.429 . S
C2181 H2203 0.950 . S
C2182 H2178 0.949 . S
C2182 C2190 1.574 . S
C2182 C2198 1.368 . S
H2183 C2191 0.950 . S
H2184 C2189 0.950 . S
H2185 C2190 0.949 . S
H2186 C2192 0.950 1_655 S
H2187 C2193 0.950 . S
H2188 C2194 0.949 . S
C2189 H2184 0.950 . S
C2189 C2191 1.327 . S
C2189 C2195 1.429 . S
C2190 C2182 1.574 . S
C2190 H2185 0.949 . S
C2190 C2196 1.368 . S
C2191 C2175 1.349 . S
C2191 H2183 0.950 . S
C2191 C2189 1.327 . S
C2192 C2180 1.349 . S
C2192 H2186 0.950 1_455 S
C2192 C2193 1.327 . S
C2193 H2187 0.950 . S
C2193 C2192 1.327 . S
C2193 C2197 1.429 . S
C2194 C2177 1.574 . S
C2194 H2188 0.949 . S
C2194 C2198 1.368 . S
C2195 C2176 1.429 . S
C2195 C2189 1.429 . S
C2195 C2196 1.523 . S
C2196 C2177 1.368 . S
C2196 C2190 1.368 . S
C2196 C2195 1.523 . S
C2197 C2181 1.429 . S
C2197 C2193 1.429 . S
C2197 C2198 1.523 . S
C2198 C2182 1.368 . S
C2198 C2194 1.368 . S
C2198 C2197 1.523 . S
H2199 C2174 0.950 . S
H2200 C2176 0.950 . S
H2201 C2177 0.949 . S
H2202 C2179 0.950 . S
H2203 C2181 0.950 . S
C2204 C2205 1.349 . S
C2204 C2206 1.327 . S
C2204 H2229 0.950 . S
C2205 C2204 1.349 . S
C2205 C2221 1.349 . S
C2206 C2204 1.327 . S
C2206 C2225 1.429 . S
C2206 H2230 0.950 . S
C2207 C2224 1.574 . S
C2207 C2226 1.368 . S
C2207 H2231 0.949 . S
H2208 C2212 0.949 . S
C2209 C2210 1.349 . S
C2209 C2211 1.327 . S
C2209 H2232 0.950 . S
C2210 C2209 1.349 . S
C2210 C2222 1.349 . S
C2211 C2209 1.327 . S
C2211 C2227 1.429 . S
C2211 H2233 0.950 . S
C2212 H2208 0.949 . S
C2212 C2220 1.574 . S
C2212 C2228 1.368 . S
H2213 C2221 0.950 . S
H2214 C2219 0.950 . S
H2215 C2220 0.949 . S
H2216 C2222 0.950 . S
H2217 C2223 0.950 . S
H2218 C2224 0.949 . S
C2219 H2214 0.950 . S
C2219 C2221 1.327 . S
C2219 C2225 1.429 . S
C2220 C2212 1.574 . S
C2220 H2215 0.949 . S
C2220 C2226 1.368 . S
C2221 C2205 1.349 . S
C2221 H2213 0.950 . S
C2221 C2219 1.327 . S
C2222 C2210 1.349 . S
C2222 H2216 0.950 . S
C2222 C2223 1.327 . S
C2223 H2217 0.950 . S
C2223 C2222 1.327 . S
C2223 C2227 1.429 . S
C2224 C2207 1.574 . S
C2224 H2218 0.949 . S
C2224 C2228 1.368 . S
C2225 C2206 1.429 . S
C2225 C2219 1.429 . S
C2225 C2226 1.523 . S
C2226 C2207 1.368 . S
C2226 C2220 1.368 . S
C2226 C2225 1.523 . S
C2227 C2211 1.429 . S
C2227 C2223 1.429 . S
C2227 C2228 1.523 . S
C2228 C2212 1.368 . S
C2228 C2224 1.368 . S
C2228 C2227 1.523 . S
H2229 C2204 0.950 . S
H2230 C2206 0.950 . S
H2231 C2207 0.949 . S
H2232 C2209 0.950 . S
H2233 C2211 0.950 . S
C2234 C2235 1.349 . S
C2234 C2236 1.327 . S
C2234 H2259 0.950 . S
C2235 C2234 1.349 . S
C2235 C2251 1.349 . S
C2236 C2234 1.327 . S
C2236 C2255 1.429 . S
C2236 H2260 0.950 . S
C2237 C2254 1.574 . S
C2237 C2256 1.368 . S
C2237 H2261 0.949 . S
H2238 C2242 0.949 . S
C2239 C2240 1.349 . S
C2239 C2241 1.327 . S
C2239 H2262 0.950 . S
C2240 C2239 1.349 . S
C2240 C2252 1.349 . S
C2241 C2239 1.327 . S
C2241 C2257 1.429 . S
C2241 H2263 0.950 . S
C2242 H2238 0.949 . S
C2242 C2250 1.574 . S
C2242 C2258 1.368 . S
H2243 C2251 0.950 . S
H2244 C2249 0.950 . S
H2245 C2250 0.949 . S
H2246 C2252 0.950 . S
H2247 C2253 0.950 . S
H2248 C2254 0.949 . S
C2249 H2244 0.950 . S
C2249 C2251 1.327 . S
C2249 C2255 1.429 . S
C2250 C2242 1.574 . S
C2250 H2245 0.949 . S
C2250 C2256 1.368 . S
C2251 C2235 1.349 . S
C2251 H2243 0.950 . S
C2251 C2249 1.327 . S
C2252 C2240 1.349 . S
C2252 H2246 0.950 . S
C2252 C2253 1.327 . S
C2253 H2247 0.950 . S
C2253 C2252 1.327 . S
C2253 C2257 1.429 . S
C2254 C2237 1.574 . S
C2254 H2248 0.949 . S
C2254 C2258 1.368 . S
C2255 C2236 1.429 . S
C2255 C2249 1.429 . S
C2255 C2256 1.523 . S
C2256 C2237 1.368 . S
C2256 C2250 1.368 . S
C2256 C2255 1.523 . S
C2257 C2241 1.429 . S
C2257 C2253 1.429 . S
C2257 C2258 1.523 . S
C2258 C2242 1.368 . S
C2258 C2254 1.368 . S
C2258 C2257 1.523 . S
H2259 C2234 0.950 . S
H2260 C2236 0.950 . S
H2261 C2237 0.949 . S
H2262 C2239 0.950 . S
H2263 C2241 0.950 . S
C2264 C2265 1.349 . S
C2264 C2266 1.327 . S
C2264 H2289 0.950 . S
C2265 C2264 1.349 . S
C2265 C2281 1.349 . S
C2266 C2264 1.327 . S
C2266 C2285 1.429 . S
C2266 H2290 0.950 . S
C2267 C2284 1.574 . S
C2267 C2286 1.368 . S
C2267 H2291 0.949 . S
H2268 C2272 0.949 . S
C2269 C2270 1.349 . S
C2269 C2271 1.327 . S
C2269 H2292 0.950 . S
C2270 C2269 1.349 . S
C2270 C2282 1.349 . S
C2271 C2269 1.327 . S
C2271 C2287 1.429 . S
C2271 H2293 0.950 . S
C2272 H2268 0.949 . S
C2272 C2280 1.574 . S
C2272 C2288 1.368 . S
H2273 C2281 0.950 . S
H2274 C2279 0.950 . S
H2275 C2280 0.949 . S
H2276 C2282 0.950 . S
H2277 C2283 0.950 . S
H2278 C2284 0.949 . S
C2279 H2274 0.950 . S
C2279 C2281 1.327 . S
C2279 C2285 1.429 . S
C2280 C2272 1.574 . S
C2280 H2275 0.949 . S
C2280 C2286 1.368 . S
C2281 C2265 1.349 . S
C2281 H2273 0.950 . S
C2281 C2279 1.327 . S
C2282 C2270 1.349 . S
C2282 H2276 0.950 . S
C2282 C2283 1.327 . S
C2283 H2277 0.950 . S
C2283 C2282 1.327 . S
C2283 C2287 1.429 . S
C2284 C2267 1.574 . S
C2284 H2278 0.949 . S
C2284 C2288 1.368 . S
C2285 C2266 1.429 . S
C2285 C2279 1.429 . S
C2285 C2286 1.523 . S
C2286 C2267 1.368 . S
C2286 C2280 1.368 . S
C2286 C2285 1.523 . S
C2287 C2271 1.429 . S
C2287 C2283 1.429 . S
C2287 C2288 1.523 . S
C2288 C2272 1.368 . S
C2288 C2284 1.368 . S
C2288 C2287 1.523 . S
H2289 C2264 0.950 . S
H2290 C2266 0.950 . S
H2291 C2267 0.949 . S
H2292 C2269 0.950 . S
H2293 C2271 0.950 . S
C2294 C2295 1.349 . S
C2294 C2296 1.327 . S
C2294 H2319 0.950 . S
C2295 C2294 1.349 . S
C2295 C2311 1.349 . S
C2296 C2294 1.327 . S
C2296 C2315 1.429 . S
C2296 H2320 0.950 . S
C2297 C2314 1.574 . S
C2297 C2316 1.368 . S
C2297 H2321 0.949 . S
H2298 C2302 0.949 . S
C2299 C2300 1.349 . S
C2299 C2301 1.327 . S
C2299 H2322 0.950 . S
C2300 C2299 1.349 . S
C2300 C2312 1.349 . S
C2301 C2299 1.327 . S
C2301 C2317 1.429 . S
C2301 H2323 0.950 . S
C2302 H2298 0.949 . S
C2302 C2310 1.574 . S
C2302 C2318 1.368 . S
H2303 C2311 0.950 . S
H2304 C2309 0.950 . S
H2305 C2310 0.949 . S
H2306 C2312 0.950 . S
H2307 C2313 0.950 . S
H2308 C2314 0.949 . S
C2309 H2304 0.950 . S
C2309 C2311 1.327 . S
C2309 C2315 1.429 . S
C2310 C2302 1.574 . S
C2310 H2305 0.949 . S
C2310 C2316 1.368 . S
C2311 C2295 1.349 . S
C2311 H2303 0.950 . S
C2311 C2309 1.327 . S
C2312 C2300 1.349 . S
C2312 H2306 0.950 . S
C2312 C2313 1.327 . S
C2313 H2307 0.950 . S
C2313 C2312 1.327 . S
C2313 C2317 1.429 . S
C2314 C2297 1.574 . S
C2314 H2308 0.949 . S
C2314 C2318 1.368 . S
C2315 C2296 1.429 . S
C2315 C2309 1.429 . S
C2315 C2316 1.523 . S
C2316 C2297 1.368 . S
C2316 C2310 1.368 . S
C2316 C2315 1.523 . S
C2317 C2301 1.429 . S
C2317 C2313 1.429 . S
C2317 C2318 1.523 . S
C2318 C2302 1.368 . S
C2318 C2314 1.368 . S
C2318 C2317 1.523 . S
H2319 C2294 0.950 . S
H2320 C2296 0.950 . S
H2321 C2297 0.949 . S
H2322 C2299 0.950 . S
H2323 C2301 0.950 . S
C2324 C2325 1.349 . S
C2324 C2326 1.327 . S
C2324 H2349 0.950 . S
C2325 C2324 1.349 . S
C2325 C2341 1.349 . S
C2326 C2324 1.327 . S
C2326 C2345 1.429 . S
C2326 H2350 0.950 . S
C2327 C2344 1.574 . S
C2327 C2346 1.368 . S
C2327 H2351 0.949 . S
H2328 C2332 0.949 . S
C2329 C2330 1.349 . S
C2329 C2331 1.327 . S
C2329 H2352 0.950 . S
C2330 C2329 1.349 . S
C2330 C2342 1.349 . S
C2331 C2329 1.327 . S
C2331 C2347 1.429 . S
C2331 H2353 0.950 . S
C2332 H2328 0.949 . S
C2332 C2340 1.574 . S
C2332 C2348 1.368 . S
H2333 C2341 0.950 . S
H2334 C2339 0.950 . S
H2335 C2340 0.949 . S
H2336 C2342 0.950 . S
H2337 C2343 0.950 . S
H2338 C2344 0.949 . S
C2339 H2334 0.950 . S
C2339 C2341 1.327 . S
C2339 C2345 1.429 . S
C2340 C2332 1.574 . S
C2340 H2335 0.949 . S
C2340 C2346 1.368 . S
C2341 C2325 1.349 . S
C2341 H2333 0.950 . S
C2341 C2339 1.327 . S
C2342 C2330 1.349 . S
C2342 H2336 0.950 . S
C2342 C2343 1.327 . S
C2343 H2337 0.950 . S
C2343 C2342 1.327 . S
C2343 C2347 1.429 . S
C2344 C2327 1.574 . S
C2344 H2338 0.949 . S
C2344 C2348 1.368 . S
C2345 C2326 1.429 . S
C2345 C2339 1.429 . S
C2345 C2346 1.523 . S
C2346 C2327 1.368 . S
C2346 C2340 1.368 . S
C2346 C2345 1.523 . S
C2347 C2331 1.429 . S
C2347 C2343 1.429 . S
C2347 C2348 1.523 . S
C2348 C2332 1.368 . S
C2348 C2344 1.368 . S
C2348 C2347 1.523 . S
H2349 C2324 0.950 . S
H2350 C2326 0.950 . S
H2351 C2327 0.949 . S
H2352 C2329 0.950 . S
H2353 C2331 0.950 . S
C2354 C2355 1.349 . S
C2354 C2356 1.327 . S
C2354 H2379 0.950 . S
C2355 C2354 1.349 . S
C2355 C2371 1.349 . S
C2356 C2354 1.327 . S
C2356 C2375 1.429 . S
C2356 H2380 0.950 . S
C2357 C2374 1.574 . S
C2357 C2376 1.368 . S
C2357 H2381 0.949 . S
H2358 C2362 0.949 . S
C2359 C2360 1.349 . S
C2359 C2361 1.327 . S
C2359 H2382 0.950 1_455 S
C2360 C2359 1.349 . S
C2360 C2372 1.349 . S
C2361 C2359 1.327 . S
C2361 C2377 1.429 . S
C2361 H2383 0.950 . S
C2362 H2358 0.949 . S
C2362 C2370 1.574 . S
C2362 C2378 1.368 . S
H2363 C2371 0.950 . S
H2364 C2369 0.950 . S
H2365 C2370 0.949 . S
H2366 C2372 0.950 . S
H2367 C2373 0.950 . S
H2368 C2374 0.949 . S
C2369 H2364 0.950 . S
C2369 C2371 1.327 . S
C2369 C2375 1.429 . S
C2370 C2362 1.574 . S
C2370 H2365 0.949 . S
C2370 C2376 1.368 . S
C2371 C2355 1.349 . S
C2371 H2363 0.950 . S
C2371 C2369 1.327 . S
C2372 C2360 1.349 . S
C2372 H2366 0.950 . S
C2372 C2373 1.327 . S
C2373 H2367 0.950 . S
C2373 C2372 1.327 . S
C2373 C2377 1.429 . S
C2374 C2357 1.574 . S
C2374 H2368 0.949 . S
C2374 C2378 1.368 . S
C2375 C2356 1.429 . S
C2375 C2369 1.429 . S
C2375 C2376 1.523 . S
C2376 C2357 1.368 . S
C2376 C2370 1.368 . S
C2376 C2375 1.523 . S
C2377 C2361 1.429 . S
C2377 C2373 1.429 . S
C2377 C2378 1.523 . S
C2378 C2362 1.368 . S
C2378 C2374 1.368 . S
C2378 C2377 1.523 . S
H2379 C2354 0.950 . S
H2380 C2356 0.950 . S
H2381 C2357 0.949 . S
H2382 C2359 0.950 1_655 S
H2383 C2361 0.950 . S
C2384 C2385 1.349 . S
C2384 C2386 1.327 . S
C2384 H2409 0.950 . S
C2385 C2384 1.349 . S
C2385 C2401 1.349 . S
C2386 C2384 1.327 . S
C2386 C2405 1.429 . S
C2386 H2410 0.950 . S
C2387 C2404 1.574 . S
C2387 C2406 1.368 . S
C2387 H2411 0.949 . S
H2388 C2392 0.949 . S
C2389 C2390 1.349 . S
C2389 C2391 1.327 . S
C2389 H2412 0.950 . S
C2390 C2389 1.349 . S
C2390 C2402 1.349 . S
C2391 C2389 1.327 . S
C2391 C2407 1.429 . S
C2391 H2413 0.950 . S
C2392 H2388 0.949 . S
C2392 C2400 1.574 . S
C2392 C2408 1.368 . S
H2393 C2401 0.950 . S
H2394 C2399 0.950 . S
H2395 C2400 0.949 . S
H2396 C2402 0.950 . S
H2397 C2403 0.950 . S
H2398 C2404 0.949 . S
C2399 H2394 0.950 . S
C2399 C2401 1.327 . S
C2399 C2405 1.429 . S
C2400 C2392 1.574 . S
C2400 H2395 0.949 . S
C2400 C2406 1.368 . S
C2401 C2385 1.349 . S
C2401 H2393 0.950 . S
C2401 C2399 1.327 . S
C2402 C2390 1.349 . S
C2402 H2396 0.950 . S
C2402 C2403 1.327 . S
C2403 H2397 0.950 . S
C2403 C2402 1.327 . S
C2403 C2407 1.429 . S
C2404 C2387 1.574 . S
C2404 H2398 0.949 . S
C2404 C2408 1.368 . S
C2405 C2386 1.429 . S
C2405 C2399 1.429 . S
C2405 C2406 1.523 . S
C2406 C2387 1.368 . S
C2406 C2400 1.368 . S
C2406 C2405 1.523 . S
C2407 C2391 1.429 . S
C2407 C2403 1.429 . S
C2407 C2408 1.523 . S
C2408 C2392 1.368 . S
C2408 C2404 1.368 . S
C2408 C2407 1.523 . S
H2409 C2384 0.950 . S
H2410 C2386 0.950 . S
H2411 C2387 0.949 . S
H2412 C2389 0.950 . S
H2413 C2391 0.950 . S
C2414 C2415 1.349 . S
C2414 C2416 1.327 . S
C2414 H2439 0.950 . S
C2415 C2414 1.349 . S
C2415 C2431 1.349 . S
C2416 C2414 1.327 . S
C2416 C2435 1.429 . S
C2416 H2440 0.950 . S
C2417 C2434 1.574 . S
C2417 C2436 1.368 . S
C2417 H2441 0.949 . S
H2418 C2422 0.949 . S
C2419 C2420 1.349 . S
C2419 C2421 1.327 . S
C2419 H2442 0.950 . S
C2420 C2419 1.349 . S
C2420 C2432 1.349 . S
C2421 C2419 1.327 . S
C2421 C2437 1.429 . S
C2421 H2443 0.950 . S
C2422 H2418 0.949 . S
C2422 C2430 1.574 . S
C2422 C2438 1.368 . S
H2423 C2431 0.950 . S
H2424 C2429 0.950 . S
H2425 C2430 0.949 . S
H2426 C2432 0.950 . S
H2427 C2433 0.950 . S
H2428 C2434 0.949 . S
C2429 H2424 0.950 . S
C2429 C2431 1.327 . S
C2429 C2435 1.429 . S
C2430 C2422 1.574 . S
C2430 H2425 0.949 . S
C2430 C2436 1.368 . S
C2431 C2415 1.349 . S
C2431 H2423 0.950 . S
C2431 C2429 1.327 . S
C2432 C2420 1.349 . S
C2432 H2426 0.950 . S
C2432 C2433 1.327 . S
C2433 H2427 0.950 . S
C2433 C2432 1.327 . S
C2433 C2437 1.429 . S
C2434 C2417 1.574 . S
C2434 H2428 0.949 . S
C2434 C2438 1.368 . S
C2435 C2416 1.429 . S
C2435 C2429 1.429 . S
C2435 C2436 1.523 . S
C2436 C2417 1.368 . S
C2436 C2430 1.368 . S
C2436 C2435 1.523 . S
C2437 C2421 1.429 . S
C2437 C2433 1.429 . S
C2437 C2438 1.523 . S
C2438 C2422 1.368 . S
C2438 C2434 1.368 . S
C2438 C2437 1.523 . S
H2439 C2414 0.950 . S
H2440 C2416 0.950 . S
H2441 C2417 0.949 . S
H2442 C2419 0.950 . S
H2443 C2421 0.950 . S
C2444 C2445 1.349 . S
C2444 C2446 1.327 . S
C2444 H2469 0.950 . S
C2445 C2444 1.349 . S
C2445 C2461 1.349 . S
C2446 C2444 1.327 . S
C2446 C2465 1.429 . S
C2446 H2470 0.950 . S
C2447 C2464 1.574 . S
C2447 C2466 1.368 . S
C2447 H2471 0.949 . S
H2448 C2452 0.949 . S
C2449 C2450 1.349 . S
C2449 C2451 1.327 . S
C2449 H2472 0.950 . S
C2450 C2449 1.349 . S
C2450 C2462 1.349 . S
C2451 C2449 1.327 . S
C2451 C2467 1.429 . S
C2451 H2473 0.950 . S
C2452 H2448 0.949 . S
C2452 C2460 1.574 . S
C2452 C2468 1.368 . S
H2453 C2461 0.950 . S
H2454 C2459 0.950 . S
H2455 C2460 0.949 . S
H2456 C2462 0.950 . S
H2457 C2463 0.950 . S
H2458 C2464 0.949 . S
C2459 H2454 0.950 . S
C2459 C2461 1.327 . S
C2459 C2465 1.429 . S
C2460 C2452 1.574 . S
C2460 H2455 0.949 . S
C2460 C2466 1.368 . S
C2461 C2445 1.349 . S
C2461 H2453 0.950 . S
C2461 C2459 1.327 . S
C2462 C2450 1.349 . S
C2462 H2456 0.950 . S
C2462 C2463 1.327 . S
C2463 H2457 0.950 . S
C2463 C2462 1.327 . S
C2463 C2467 1.429 . S
C2464 C2447 1.574 . S
C2464 H2458 0.949 . S
C2464 C2468 1.368 . S
C2465 C2446 1.429 . S
C2465 C2459 1.429 . S
C2465 C2466 1.523 . S
C2466 C2447 1.368 . S
C2466 C2460 1.368 . S
C2466 C2465 1.523 . S
C2467 C2451 1.429 . S
C2467 C2463 1.429 . S
C2467 C2468 1.523 . S
C2468 C2452 1.368 . S
C2468 C2464 1.368 . S
C2468 C2467 1.523 . S
H2469 C2444 0.950 . S
H2470 C2446 0.950 . S
H2471 C2447 0.949 . S
H2472 C2449 0.950 . S
H2473 C2451 0.950 . S
C2474 C2475 1.349 . S
C2474 C2476 1.327 . S
C2474 H2499 0.950 . S
C2475 C2474 1.349 . S
C2475 C2491 1.349 . S
C2476 C2474 1.327 . S
C2476 C2495 1.429 . S
C2476 H2500 0.950 . S
C2477 C2494 1.574 . S
C2477 C2496 1.368 . S
C2477 H2501 0.949 . S
H2478 C2482 0.949 . S
C2479 C2480 1.349 . S
C2479 C2481 1.327 . S
C2479 H2502 0.950 . S
C2480 C2479 1.349 . S
C2480 C2492 1.349 . S
C2481 C2479 1.327 . S
C2481 C2497 1.429 . S
C2481 H2503 0.950 . S
C2482 H2478 0.949 . S
C2482 C2490 1.574 . S
C2482 C2498 1.368 . S
H2483 C2491 0.950 . S
H2484 C2489 0.950 . S
H2485 C2490 0.949 . S
H2486 C2492 0.950 . S
H2487 C2493 0.950 . S
H2488 C2494 0.949 . S
C2489 H2484 0.950 . S
C2489 C2491 1.327 . S
C2489 C2495 1.429 . S
C2490 C2482 1.574 . S
C2490 H2485 0.949 . S
C2490 C2496 1.368 . S
C2491 C2475 1.349 . S
C2491 H2483 0.950 . S
C2491 C2489 1.327 . S
C2492 C2480 1.349 . S
C2492 H2486 0.950 . S
C2492 C2493 1.327 . S
C2493 H2487 0.950 . S
C2493 C2492 1.327 . S
C2493 C2497 1.429 . S
C2494 C2477 1.574 . S
C2494 H2488 0.949 . S
C2494 C2498 1.368 . S
C2495 C2476 1.429 . S
C2495 C2489 1.429 . S
C2495 C2496 1.523 . S
C2496 C2477 1.368 . S
C2496 C2490 1.368 . S
C2496 C2495 1.523 . S
C2497 C2481 1.429 . S
C2497 C2493 1.429 . S
C2497 C2498 1.523 . S
C2498 C2482 1.368 . S
C2498 C2494 1.368 . S
C2498 C2497 1.523 . S
H2499 C2474 0.950 . S
H2500 C2476 0.950 . S
H2501 C2477 0.949 . S
H2502 C2479 0.950 . S
H2503 C2481 0.950 . S
C2504 C2505 1.349 . S
C2504 C2506 1.327 . S
C2504 H2529 0.950 . S
C2505 C2504 1.349 . S
C2505 C2521 1.349 . S
C2506 C2504 1.327 . S
C2506 C2525 1.429 . S
C2506 H2530 0.950 . S
C2507 C2524 1.574 . S
C2507 C2526 1.368 . S
C2507 H2531 0.949 . S
H2508 C2512 0.949 . S
C2509 C2510 1.349 . S
C2509 C2511 1.327 . S
C2509 H2532 0.950 . S
C2510 C2509 1.349 . S
C2510 C2522 1.349 . S
C2511 C2509 1.327 . S
C2511 C2527 1.429 . S
C2511 H2533 0.950 . S
C2512 H2508 0.949 . S
C2512 C2520 1.574 . S
C2512 C2528 1.368 . S
H2513 C2521 0.950 . S
H2514 C2519 0.950 . S
H2515 C2520 0.949 . S
H2516 C2522 0.950 . S
H2517 C2523 0.950 . S
H2518 C2524 0.949 . S
C2519 H2514 0.950 . S
C2519 C2521 1.327 . S
C2519 C2525 1.429 . S
C2520 C2512 1.574 . S
C2520 H2515 0.949 . S
C2520 C2526 1.368 . S
C2521 C2505 1.349 . S
C2521 H2513 0.950 . S
C2521 C2519 1.327 . S
C2522 C2510 1.349 . S
C2522 H2516 0.950 . S
C2522 C2523 1.327 . S
C2523 H2517 0.950 . S
C2523 C2522 1.327 . S
C2523 C2527 1.429 . S
C2524 C2507 1.574 . S
C2524 H2518 0.949 . S
C2524 C2528 1.368 . S
C2525 C2506 1.429 . S
C2525 C2519 1.429 . S
C2525 C2526 1.523 . S
C2526 C2507 1.368 . S
C2526 C2520 1.368 . S
C2526 C2525 1.523 . S
C2527 C2511 1.429 . S
C2527 C2523 1.429 . S
C2527 C2528 1.523 . S
C2528 C2512 1.368 . S
C2528 C2524 1.368 . S
C2528 C2527 1.523 . S
H2529 C2504 0.950 . S
H2530 C2506 0.950 . S
H2531 C2507 0.949 . S
H2532 C2509 0.950 . S
H2533 C2511 0.950 . S
C2534 C2535 1.349 . S
C2534 C2536 1.327 . S
C2534 H2559 0.950 . S
C2535 C2534 1.349 . S
C2535 C2551 1.349 . S
C2536 C2534 1.327 . S
C2536 C2555 1.429 . S
C2536 H2560 0.950 . S
C2537 C2554 1.574 . S
C2537 C2556 1.368 . S
C2537 H2561 0.949 . S
H2538 C2542 0.949 . S
C2539 C2540 1.349 . S
C2539 C2541 1.327 . S
C2539 H2562 0.950 . S
C2540 C2539 1.349 . S
C2540 C2552 1.349 . S
C2541 C2539 1.327 . S
C2541 C2557 1.429 . S
C2541 H2563 0.950 . S
C2542 H2538 0.949 . S
C2542 C2550 1.574 . S
C2542 C2558 1.368 . S
H2543 C2551 0.950 . S
H2544 C2549 0.950 . S
H2545 C2550 0.949 . S
H2546 C2552 0.950 . S
H2547 C2553 0.950 . S
H2548 C2554 0.949 . S
C2549 H2544 0.950 . S
C2549 C2551 1.327 . S
C2549 C2555 1.429 . S
C2550 C2542 1.574 . S
C2550 H2545 0.949 . S
C2550 C2556 1.368 . S
C2551 C2535 1.349 . S
C2551 H2543 0.950 . S
C2551 C2549 1.327 . S
C2552 C2540 1.349 . S
C2552 H2546 0.950 . S
C2552 C2553 1.327 . S
C2553 H2547 0.950 . S
C2553 C2552 1.327 . S
C2553 C2557 1.429 . S
C2554 C2537 1.574 . S
C2554 H2548 0.949 . S
C2554 C2558 1.368 . S
C2555 C2536 1.429 . S
C2555 C2549 1.429 . S
C2555 C2556 1.523 . S
C2556 C2537 1.368 . S
C2556 C2550 1.368 . S
C2556 C2555 1.523 . S
C2557 C2541 1.429 . S
C2557 C2553 1.429 . S
C2557 C2558 1.523 . S
C2558 C2542 1.368 . S
C2558 C2554 1.368 . S
C2558 C2557 1.523 . S
H2559 C2534 0.950 . S
H2560 C2536 0.950 . S
H2561 C2537 0.949 . S
H2562 C2539 0.950 . S
H2563 C2541 0.950 . S
C2564 C2565 1.349 . S
C2564 C2566 1.327 . S
C2564 H2589 0.950 . S
C2565 C2564 1.349 . S
C2565 C2581 1.349 . S
C2566 C2564 1.327 . S
C2566 C2585 1.429 . S
C2566 H2590 0.950 . S
C2567 C2584 1.574 . S
C2567 C2586 1.368 . S
C2567 H2591 0.949 . S
H2568 C2572 0.949 . S
C2569 C2570 1.349 . S
C2569 C2571 1.327 . S
C2569 H2592 0.950 . S
C2570 C2569 1.349 . S
C2570 C2582 1.349 . S
C2571 C2569 1.327 . S
C2571 C2587 1.429 . S
C2571 H2593 0.950 . S
C2572 H2568 0.949 . S
C2572 C2580 1.574 . S
C2572 C2588 1.368 . S
H2573 C2581 0.950 . S
H2574 C2579 0.950 . S
H2575 C2580 0.949 . S
H2576 C2582 0.950 . S
H2577 C2583 0.950 . S
H2578 C2584 0.949 . S
C2579 H2574 0.950 . S
C2579 C2581 1.327 . S
C2579 C2585 1.429 . S
C2580 C2572 1.574 . S
C2580 H2575 0.949 . S
C2580 C2586 1.368 . S
C2581 C2565 1.349 . S
C2581 H2573 0.950 . S
C2581 C2579 1.327 . S
C2582 C2570 1.349 . S
C2582 H2576 0.950 . S
C2582 C2583 1.327 . S
C2583 H2577 0.950 . S
C2583 C2582 1.327 . S
C2583 C2587 1.429 . S
C2584 C2567 1.574 . S
C2584 H2578 0.949 . S
C2584 C2588 1.368 . S
C2585 C2566 1.429 . S
C2585 C2579 1.429 . S
C2585 C2586 1.523 . S
C2586 C2567 1.368 . S
C2586 C2580 1.368 . S
C2586 C2585 1.523 . S
C2587 C2571 1.429 . S
C2587 C2583 1.429 . S
C2587 C2588 1.523 . S
C2588 C2572 1.368 . S
C2588 C2584 1.368 . S
C2588 C2587 1.523 . S
H2589 C2564 0.950 . S
H2590 C2566 0.950 . S
H2591 C2567 0.949 . S
H2592 C2569 0.950 . S
H2593 C2571 0.950 . S
C2594 C2595 1.349 . S
C2594 C2596 1.327 . S
C2594 H2619 0.950 . S
C2595 C2594 1.349 . S
C2595 C2611 1.349 . S
C2596 C2594 1.327 . S
C2596 C2615 1.429 . S
C2596 H2620 0.950 . S
C2597 C2614 1.574 . S
C2597 C2616 1.368 . S
C2597 H2621 0.949 . S
H2598 C2602 0.949 . S
C2599 C2600 1.349 . S
C2599 C2601 1.327 . S
C2599 H2622 0.950 . S
C2600 C2599 1.349 . S
C2600 C2612 1.349 . S
C2601 C2599 1.327 . S
C2601 C2617 1.429 . S
C2601 H2623 0.950 . S
C2602 H2598 0.949 . S
C2602 C2610 1.574 . S
C2602 C2618 1.368 . S
H2603 C2611 0.910 1_455 S
H2604 C2609 0.950 . S
H2605 C2610 0.949 . S
H2606 C2612 0.950 . S
H2607 C2613 0.950 . S
H2608 C2614 0.949 . S
C2609 H2604 0.950 . S
C2609 C2611 1.327 . S
C2609 C2615 1.429 . S
C2610 C2602 1.574 . S
C2610 H2605 0.949 . S
C2610 C2616 1.368 . S
C2611 C2595 1.349 . S
C2611 H2603 0.910 1_655 S
C2611 C2609 1.327 . S
C2612 C2600 1.349 . S
C2612 H2606 0.950 . S
C2612 C2613 1.327 . S
C2613 H2607 0.950 . S
C2613 C2612 1.327 . S
C2613 C2617 1.429 . S
C2614 C2597 1.574 . S
C2614 H2608 0.949 . S
C2614 C2618 1.368 . S
C2615 C2596 1.429 . S
C2615 C2609 1.429 . S
C2615 C2616 1.523 . S
C2616 C2597 1.368 . S
C2616 C2610 1.368 . S
C2616 C2615 1.523 . S
C2617 C2601 1.429 . S
C2617 C2613 1.429 . S
C2617 C2618 1.523 . S
C2618 C2602 1.368 . S
C2618 C2614 1.368 . S
C2618 C2617 1.523 . S
H2619 C2594 0.950 . S
H2620 C2596 0.950 . S
H2621 C2597 0.949 . S
H2622 C2599 0.950 . S
H2623 C2601 0.950 . S
C2624 C2625 1.349 . S
C2624 C2626 1.327 . S
C2624 H2649 0.950 . S
C2625 C2624 1.349 . S
C2625 C2641 1.349 . S
C2626 C2624 1.327 . S
C2626 C2645 1.429 . S
C2626 H2650 0.950 . S
C2627 C2644 1.574 . S
C2627 C2646 1.368 . S
C2627 H2651 0.949 . S
H2628 C2632 0.949 . S
C2629 C2630 1.349 . S
C2629 C2631 1.327 . S
C2629 H2652 0.950 . S
C2630 C2629 1.349 . S
C2630 C2642 1.349 . S
C2631 C2629 1.327 . S
C2631 C2647 1.429 . S
C2631 H2653 0.950 . S
C2632 H2628 0.949 . S
C2632 C2640 1.574 . S
C2632 C2648 1.368 . S
H2633 C2641 0.950 . S
H2634 C2639 0.950 . S
H2635 C2640 0.949 . S
H2636 C2642 0.950 . S
H2637 C2643 0.950 . S
H2638 C2644 0.949 . S
C2639 H2634 0.950 . S
C2639 C2641 1.327 . S
C2639 C2645 1.429 . S
C2640 C2632 1.574 . S
C2640 H2635 0.949 . S
C2640 C2646 1.368 . S
C2641 C2625 1.349 . S
C2641 H2633 0.950 . S
C2641 C2639 1.327 . S
C2642 C2630 1.349 . S
C2642 H2636 0.950 . S
C2642 C2643 1.327 . S
C2643 H2637 0.950 . S
C2643 C2642 1.327 . S
C2643 C2647 1.429 . S
C2644 C2627 1.574 . S
C2644 H2638 0.949 . S
C2644 C2648 1.368 . S
C2645 C2626 1.429 . S
C2645 C2639 1.429 . S
C2645 C2646 1.523 . S
C2646 C2627 1.368 . S
C2646 C2640 1.368 . S
C2646 C2645 1.523 . S
C2647 C2631 1.429 . S
C2647 C2643 1.429 . S
C2647 C2648 1.523 . S
C2648 C2632 1.368 . S
C2648 C2644 1.368 . S
C2648 C2647 1.523 . S
H2649 C2624 0.950 . S
H2650 C2626 0.950 . S
H2651 C2627 0.949 . S
H2652 C2629 0.950 . S
H2653 C2631 0.950 . S
C2654 C2655 1.349 . S
C2654 C2656 1.327 . S
C2654 H2679 0.950 . S
C2655 C2654 1.349 . S
C2655 C2671 1.349 . S
C2656 C2654 1.327 . S
C2656 C2675 1.429 . S
C2656 H2680 0.950 . S
C2657 C2674 1.574 . S
C2657 C2676 1.368 . S
C2657 H2681 0.949 . S
H2658 C2662 0.949 . S
C2659 C2660 1.349 . S
C2659 C2661 1.327 . S
C2659 H2682 0.950 . S
C2660 C2659 1.349 . S
C2660 C2672 1.349 . S
C2661 C2659 1.327 . S
C2661 C2677 1.429 . S
C2661 H2683 0.950 . S
C2662 H2658 0.949 . S
C2662 C2670 1.574 . S
C2662 C2678 1.368 . S
H2663 C2671 0.950 . S
H2664 C2669 0.950 . S
H2665 C2670 0.949 . S
H2666 C2672 0.950 . S
H2667 C2673 0.950 . S
H2668 C2674 0.949 . S
C2669 H2664 0.950 . S
C2669 C2671 1.327 . S
C2669 C2675 1.429 . S
C2670 C2662 1.574 . S
C2670 H2665 0.949 . S
C2670 C2676 1.368 . S
C2671 C2655 1.349 . S
C2671 H2663 0.950 . S
C2671 C2669 1.327 . S
C2672 C2660 1.349 . S
C2672 H2666 0.950 . S
C2672 C2673 1.327 . S
C2673 H2667 0.950 . S
C2673 C2672 1.327 . S
C2673 C2677 1.429 . S
C2674 C2657 1.574 . S
C2674 H2668 0.949 . S
C2674 C2678 1.368 . S
C2675 C2656 1.429 . S
C2675 C2669 1.429 . S
C2675 C2676 1.523 . S
C2676 C2657 1.368 . S
C2676 C2670 1.368 . S
C2676 C2675 1.523 . S
C2677 C2661 1.429 . S
C2677 C2673 1.429 . S
C2677 C2678 1.523 . S
C2678 C2662 1.368 . S
C2678 C2674 1.368 . S
C2678 C2677 1.523 . S
H2679 C2654 0.950 . S
H2680 C2656 0.950 . S
H2681 C2657 0.949 . S
H2682 C2659 0.950 . S
H2683 C2661 0.950 . S
C2684 C2685 1.349 . S
C2684 C2686 1.327 . S
C2684 H2709 0.950 . S
C2685 C2684 1.349 . S
C2685 C2701 1.349 . S
C2686 C2684 1.327 . S
C2686 C2705 1.429 . S
C2686 H2710 0.950 . S
C2687 C2704 1.574 . S
C2687 C2706 1.368 . S
C2687 H2711 0.949 . S
H2688 C2692 0.949 . S
C2689 C2690 1.349 . S
C2689 C2691 1.327 . S
C2689 H2712 0.950 . S
C2690 C2689 1.349 . S
C2690 C2702 1.349 . S
C2691 C2689 1.327 . S
C2691 C2707 1.429 . S
C2691 H2713 0.950 . S
C2692 H2688 0.949 . S
C2692 C2700 1.574 . S
C2692 C2708 1.368 . S
H2693 C2701 0.950 . S
H2694 C2699 0.950 . S
H2695 C2700 0.949 . S
H2696 C2702 0.950 . S
H2697 C2703 0.950 . S
H2698 C2704 0.949 . S
C2699 H2694 0.950 . S
C2699 C2701 1.327 . S
C2699 C2705 1.429 . S
C2700 C2692 1.574 . S
C2700 H2695 0.949 . S
C2700 C2706 1.368 . S
C2701 C2685 1.349 . S
C2701 H2693 0.950 . S
C2701 C2699 1.327 . S
C2702 C2690 1.349 . S
C2702 H2696 0.950 . S
C2702 C2703 1.327 . S
C2703 H2697 0.950 . S
C2703 C2702 1.327 . S
C2703 C2707 1.429 . S
C2704 C2687 1.574 . S
C2704 H2698 0.949 . S
C2704 C2708 1.368 . S
C2705 C2686 1.429 . S
C2705 C2699 1.429 . S
C2705 C2706 1.523 . S
C2706 C2687 1.368 . S
C2706 C2700 1.368 . S
C2706 C2705 1.523 . S
C2707 C2691 1.429 . S
C2707 C2703 1.429 . S
C2707 C2708 1.523 . S
C2708 C2692 1.368 . S
C2708 C2704 1.368 . S
C2708 C2707 1.523 . S
H2709 C2684 0.950 . S
H2710 C2686 0.950 . S
H2711 C2687 0.949 . S
H2712 C2689 0.950 . S
H2713 C2691 0.950 . S
C2714 C2715 1.349 . S
C2714 C2716 1.327 . S
C2714 H2739 0.950 1_655 S
C2715 C2714 1.349 . S
C2715 C2731 1.349 . S
C2716 C2714 1.327 . S
C2716 C2735 1.429 . S
C2716 H2740 0.950 . S
C2717 C2734 1.574 . S
C2717 C2736 1.368 . S
C2717 H2741 0.949 . S
H2718 C2722 0.949 . S
C2719 C2720 1.349 . S
C2719 C2721 1.327 . S
C2719 H2742 0.950 . S
C2720 C2719 1.349 . S
C2720 C2732 1.349 . S
C2721 C2719 1.327 . S
C2721 C2737 1.429 . S
C2721 H2743 0.950 . S
C2722 H2718 0.949 . S
C2722 C2730 1.574 . S
C2722 C2738 1.368 . S
H2723 C2731 0.950 . S
H2724 C2729 0.950 . S
H2725 C2730 0.949 . S
H2726 C2732 0.950 . S
H2727 C2733 0.950 . S
H2728 C2734 0.949 . S
C2729 H2724 0.950 . S
C2729 C2731 1.327 . S
C2729 C2735 1.429 . S
C2730 C2722 1.574 . S
C2730 H2725 0.949 . S
C2730 C2736 1.368 . S
C2731 C2715 1.349 . S
C2731 H2723 0.950 . S
C2731 C2729 1.327 . S
C2732 C2720 1.349 . S
C2732 H2726 0.950 . S
C2732 C2733 1.327 . S
C2733 H2727 0.950 . S
C2733 C2732 1.327 . S
C2733 C2737 1.429 . S
C2734 C2717 1.574 . S
C2734 H2728 0.949 . S
C2734 C2738 1.368 . S
C2735 C2716 1.429 . S
C2735 C2729 1.429 . S
C2735 C2736 1.523 . S
C2736 C2717 1.368 . S
C2736 C2730 1.368 . S
C2736 C2735 1.523 . S
C2737 C2721 1.429 . S
C2737 C2733 1.429 . S
C2737 C2738 1.523 . S
C2738 C2722 1.368 . S
C2738 C2734 1.368 . S
C2738 C2737 1.523 . S
H2739 C2714 0.950 1_455 S
H2740 C2716 0.950 . S
H2741 C2717 0.949 . S
H2742 C2719 0.950 . S
H2743 C2721 0.950 . S
C2744 C2745 1.349 . S
C2744 C2746 1.327 . S
C2744 H2769 0.950 . S
C2745 C2744 1.349 . S
C2745 C2761 1.349 . S
C2746 C2744 1.327 . S
C2746 C2765 1.429 . S
C2746 H2770 0.950 . S
C2747 C2764 1.574 . S
C2747 C2766 1.368 . S
C2747 H2771 0.949 . S
H2748 C2752 0.949 . S
C2749 C2750 1.349 . S
C2749 C2751 1.327 . S
C2749 H2772 0.950 . S
C2750 C2749 1.349 . S
C2750 C2762 1.349 . S
C2751 C2749 1.327 . S
C2751 C2767 1.429 . S
C2751 H2773 0.950 . S
C2752 H2748 0.949 . S
C2752 C2760 1.574 . S
C2752 C2768 1.368 . S
H2753 C2761 0.950 . S
H2754 C2759 0.950 . S
H2755 C2760 0.949 . S
H2756 C2762 0.950 . S
H2757 C2763 0.950 . S
H2758 C2764 0.949 . S
C2759 H2754 0.950 . S
C2759 C2761 1.327 . S
C2759 C2765 1.429 . S
C2760 C2752 1.574 . S
C2760 H2755 0.949 . S
C2760 C2766 1.368 . S
C2761 C2745 1.349 . S
C2761 H2753 0.950 . S
C2761 C2759 1.327 . S
C2762 C2750 1.349 . S
C2762 H2756 0.950 . S
C2762 C2763 1.327 . S
C2763 H2757 0.950 . S
C2763 C2762 1.327 . S
C2763 C2767 1.429 . S
C2764 C2747 1.574 . S
C2764 H2758 0.949 . S
C2764 C2768 1.368 . S
C2765 C2746 1.429 . S
C2765 C2759 1.429 . S
C2765 C2766 1.523 . S
C2766 C2747 1.368 . S
C2766 C2760 1.368 . S
C2766 C2765 1.523 . S
C2767 C2751 1.429 . S
C2767 C2763 1.429 . S
C2767 C2768 1.523 . S
C2768 C2752 1.368 . S
C2768 C2764 1.368 . S
C2768 C2767 1.523 . S
H2769 C2744 0.950 . S
H2770 C2746 0.950 . S
H2771 C2747 0.949 . S
H2772 C2749 0.950 . S
H2773 C2751 0.950 . S
C2774 C2775 1.349 . S
C2774 C2776 1.327 . S
C2774 H2799 0.950 . S
C2775 C2774 1.349 . S
C2775 C2791 1.349 . S
C2776 C2774 1.327 . S
C2776 C2795 1.429 . S
C2776 H2800 0.950 . S
C2777 C2794 1.574 . S
C2777 C2796 1.368 . S
C2777 H2801 0.949 . S
H2778 C2782 0.949 . S
C2779 C2780 1.349 . S
C2779 C2781 1.327 . S
C2779 H2802 0.950 . S
C2780 C2779 1.349 . S
C2780 C2792 1.349 . S
C2781 C2779 1.327 . S
C2781 C2797 1.429 . S
C2781 H2803 0.950 . S
C2782 H2778 0.949 . S
C2782 C2790 1.574 . S
C2782 C2798 1.368 . S
H2783 C2791 0.950 . S
H2784 C2789 0.950 . S
H2785 C2790 0.949 . S
H2786 C2792 0.950 1_455 S
H2787 C2793 0.950 . S
H2788 C2794 0.949 . S
C2789 H2784 0.950 . S
C2789 C2791 1.327 . S
C2789 C2795 1.429 . S
C2790 C2782 1.574 . S
C2790 H2785 0.949 . S
C2790 C2796 1.368 . S
C2791 C2775 1.349 . S
C2791 H2783 0.950 . S
C2791 C2789 1.327 . S
C2792 C2780 1.349 . S
C2792 H2786 0.950 1_655 S
C2792 C2793 1.327 . S
C2793 H2787 0.950 . S
C2793 C2792 1.327 . S
C2793 C2797 1.429 . S
C2794 C2777 1.574 . S
C2794 H2788 0.949 . S
C2794 C2798 1.368 . S
C2795 C2776 1.429 . S
C2795 C2789 1.429 . S
C2795 C2796 1.523 . S
C2796 C2777 1.368 . S
C2796 C2790 1.368 . S
C2796 C2795 1.523 . S
C2797 C2781 1.429 . S
C2797 C2793 1.429 . S
C2797 C2798 1.523 . S
C2798 C2782 1.368 . S
C2798 C2794 1.368 . S
C2798 C2797 1.523 . S
H2799 C2774 0.950 . S
H2800 C2776 0.950 . S
H2801 C2777 0.949 . S
H2802 C2779 0.950 . S
H2803 C2781 0.950 . S
C2804 C2805 1.349 . S
C2804 C2806 1.327 . S
C2804 H2829 0.950 . S
C2805 C2804 1.349 . S
C2805 C2821 1.349 . S
C2806 C2804 1.327 . S
C2806 C2825 1.429 . S
C2806 H2830 0.950 . S
C2807 C2824 1.574 . S
C2807 C2826 1.368 . S
C2807 H2831 0.949 . S
H2808 C2812 0.949 . S
C2809 C2810 1.349 . S
C2809 C2811 1.327 . S
C2809 H2832 0.950 . S
C2810 C2809 1.349 . S
C2810 C2822 1.349 . S
C2811 C2809 1.327 . S
C2811 C2827 1.429 . S
C2811 H2833 0.950 . S
C2812 H2808 0.949 . S
C2812 C2820 1.574 . S
C2812 C2828 1.368 . S
H2813 C2821 0.950 . S
H2814 C2819 0.950 . S
H2815 C2820 0.949 . S
H2816 C2822 0.950 . S
H2817 C2823 0.950 . S
H2818 C2824 0.949 . S
C2819 H2814 0.950 . S
C2819 C2821 1.327 . S
C2819 C2825 1.429 . S
C2820 C2812 1.574 . S
C2820 H2815 0.949 . S
C2820 C2826 1.368 . S
C2821 C2805 1.349 . S
C2821 H2813 0.950 . S
C2821 C2819 1.327 . S
C2822 C2810 1.349 . S
C2822 H2816 0.950 . S
C2822 C2823 1.327 . S
C2823 H2817 0.950 . S
C2823 C2822 1.327 . S
C2823 C2827 1.429 . S
C2824 C2807 1.574 . S
C2824 H2818 0.949 . S
C2824 C2828 1.368 . S
C2825 C2806 1.429 . S
C2825 C2819 1.429 . S
C2825 C2826 1.523 . S
C2826 C2807 1.368 . S
C2826 C2820 1.368 . S
C2826 C2825 1.523 . S
C2827 C2811 1.429 . S
C2827 C2823 1.429 . S
C2827 C2828 1.523 . S
C2828 C2812 1.368 . S
C2828 C2824 1.368 . S
C2828 C2827 1.523 . S
H2829 C2804 0.950 . S
H2830 C2806 0.950 . S
H2831 C2807 0.949 . S
H2832 C2809 0.950 . S
H2833 C2811 0.950 . S
C2834 C2835 1.349 . S
C2834 C2836 1.327 . S
C2834 H2859 0.950 . S
C2835 C2834 1.349 . S
C2835 C2851 1.349 . S
C2836 C2834 1.327 . S
C2836 C2855 1.429 . S
C2836 H2860 0.950 . S
C2837 C2854 1.574 . S
C2837 C2856 1.368 . S
C2837 H2861 0.949 . S
H2838 C2842 0.949 . S
C2839 C2840 1.349 . S
C2839 C2841 1.327 . S
C2839 H2862 0.950 . S
C2840 C2839 1.349 . S
C2840 C2852 1.349 . S
C2841 C2839 1.327 . S
C2841 C2857 1.429 . S
C2841 H2863 0.950 . S
C2842 H2838 0.949 . S
C2842 C2850 1.574 . S
C2842 C2858 1.368 . S
H2843 C2851 0.950 . S
H2844 C2849 0.950 . S
H2845 C2850 0.949 . S
H2846 C2852 0.950 . S
H2847 C2853 0.950 . S
H2848 C2854 0.949 . S
C2849 H2844 0.950 . S
C2849 C2851 1.327 . S
C2849 C2855 1.429 . S
C2850 C2842 1.574 . S
C2850 H2845 0.949 . S
C2850 C2856 1.368 . S
C2851 C2835 1.349 . S
C2851 H2843 0.950 . S
C2851 C2849 1.327 . S
C2852 C2840 1.349 . S
C2852 H2846 0.950 . S
C2852 C2853 1.327 . S
C2853 H2847 0.950 . S
C2853 C2852 1.327 . S
C2853 C2857 1.429 . S
C2854 C2837 1.574 . S
C2854 H2848 0.949 . S
C2854 C2858 1.368 . S
C2855 C2836 1.429 . S
C2855 C2849 1.429 . S
C2855 C2856 1.523 . S
C2856 C2837 1.368 . S
C2856 C2850 1.368 . S
C2856 C2855 1.523 . S
C2857 C2841 1.429 . S
C2857 C2853 1.429 . S
C2857 C2858 1.523 . S
C2858 C2842 1.368 . S
C2858 C2854 1.368 . S
C2858 C2857 1.523 . S
H2859 C2834 0.950 . S
H2860 C2836 0.950 . S
H2861 C2837 0.949 . S
H2862 C2839 0.950 . S
H2863 C2841 0.950 . S
C2864 C2865 1.349 . S
C2864 C2866 1.327 . S
C2864 H2889 0.950 . S
C2865 C2864 1.349 . S
C2865 C2881 1.349 . S
C2866 C2864 1.327 . S
C2866 C2885 1.429 . S
C2866 H2890 0.950 . S
C2867 C2884 1.574 . S
C2867 C2886 1.368 . S
C2867 H2891 0.949 . S
H2868 C2872 0.949 . S
C2869 C2870 1.349 . S
C2869 C2871 1.327 . S
C2869 H2892 0.950 . S
C2870 C2869 1.349 . S
C2870 C2882 1.349 . S
C2871 C2869 1.327 . S
C2871 C2887 1.429 . S
C2871 H2893 0.950 . S
C2872 H2868 0.949 . S
C2872 C2880 1.574 . S
C2872 C2888 1.368 . S
H2873 C2881 0.950 . S
H2874 C2879 0.950 . S
H2875 C2880 0.949 . S
H2876 C2882 0.950 . S
H2877 C2883 0.950 . S
H2878 C2884 0.949 . S
C2879 H2874 0.950 . S
C2879 C2881 1.327 . S
C2879 C2885 1.429 . S
C2880 C2872 1.574 . S
C2880 H2875 0.949 . S
C2880 C2886 1.368 . S
C2881 C2865 1.349 . S
C2881 H2873 0.950 . S
C2881 C2879 1.327 . S
C2882 C2870 1.349 . S
C2882 H2876 0.950 . S
C2882 C2883 1.327 . S
C2883 H2877 0.950 . S
C2883 C2882 1.327 . S
C2883 C2887 1.429 . S
C2884 C2867 1.574 . S
C2884 H2878 0.949 . S
C2884 C2888 1.368 . S
C2885 C2866 1.429 . S
C2885 C2879 1.429 . S
C2885 C2886 1.523 . S
C2886 C2867 1.368 . S
C2886 C2880 1.368 . S
C2886 C2885 1.523 . S
C2887 C2871 1.429 . S
C2887 C2883 1.429 . S
C2887 C2888 1.523 . S
C2888 C2872 1.368 . S
C2888 C2884 1.368 . S
C2888 C2887 1.523 . S
H2889 C2864 0.950 . S
H2890 C2866 0.950 . S
H2891 C2867 0.949 . S
H2892 C2869 0.950 . S
H2893 C2871 0.950 . S
C2894 C2895 1.349 . S
C2894 C2896 1.327 . S
C2894 H2919 0.950 . S
C2895 C2894 1.349 . S
C2895 C2911 1.349 . S
C2896 C2894 1.327 . S
C2896 C2915 1.429 . S
C2896 H2920 0.950 . S
C2897 C2914 1.574 . S
C2897 C2916 1.368 . S
C2897 H2921 0.949 . S
H2898 C2902 0.949 . S
C2899 C2900 1.349 . S
C2899 C2901 1.327 . S
C2899 H2922 0.950 . S
C2900 C2899 1.349 . S
C2900 C2912 1.349 . S
C2901 C2899 1.327 . S
C2901 C2917 1.429 . S
C2901 H2923 0.950 . S
C2902 H2898 0.949 . S
C2902 C2910 1.574 . S
C2902 C2918 1.368 . S
H2903 C2911 0.950 . S
H2904 C2909 0.950 . S
H2905 C2910 0.949 . S
H2906 C2912 0.950 . S
H2907 C2913 0.950 . S
H2908 C2914 0.949 . S
C2909 H2904 0.950 . S
C2909 C2911 1.327 . S
C2909 C2915 1.429 . S
C2910 C2902 1.574 . S
C2910 H2905 0.949 . S
C2910 C2916 1.368 . S
C2911 C2895 1.349 . S
C2911 H2903 0.950 . S
C2911 C2909 1.327 . S
C2912 C2900 1.349 . S
C2912 H2906 0.950 . S
C2912 C2913 1.327 . S
C2913 H2907 0.950 . S
C2913 C2912 1.327 . S
C2913 C2917 1.429 . S
C2914 C2897 1.574 . S
C2914 H2908 0.949 . S
C2914 C2918 1.368 . S
C2915 C2896 1.429 . S
C2915 C2909 1.429 . S
C2915 C2916 1.523 . S
C2916 C2897 1.368 . S
C2916 C2910 1.368 . S
C2916 C2915 1.523 . S
C2917 C2901 1.429 . S
C2917 C2913 1.429 . S
C2917 C2918 1.523 . S
C2918 C2902 1.368 . S
C2918 C2914 1.368 . S
C2918 C2917 1.523 . S
H2919 C2894 0.950 . S
H2920 C2896 0.950 . S
H2921 C2897 0.949 . S
H2922 C2899 0.950 . S
H2923 C2901 0.950 . S
C2924 C2925 1.349 . S
C2924 C2926 1.327 . S
C2924 H2949 0.950 . S
C2925 C2924 1.349 . S
C2925 C2941 1.349 . S
C2926 C2924 1.327 . S
C2926 C2945 1.429 . S
C2926 H2950 0.950 . S
C2927 C2944 1.574 . S
C2927 C2946 1.368 . S
C2927 H2951 0.949 . S
H2928 C2932 0.949 . S
C2929 C2930 1.349 . S
C2929 C2931 1.327 . S
C2929 H2952 0.950 . S
C2930 C2929 1.349 . S
C2930 C2942 1.349 . S
C2931 C2929 1.327 . S
C2931 C2947 1.429 . S
C2931 H2953 0.950 . S
C2932 H2928 0.949 . S
C2932 C2940 1.574 . S
C2932 C2948 1.368 . S
H2933 C2941 0.950 . S
H2934 C2939 0.950 . S
H2935 C2940 0.949 . S
H2936 C2942 0.950 . S
H2937 C2943 0.950 . S
H2938 C2944 0.949 . S
C2939 H2934 0.950 . S
C2939 C2941 1.327 . S
C2939 C2945 1.429 . S
C2940 C2932 1.574 . S
C2940 H2935 0.949 . S
C2940 C2946 1.368 . S
C2941 C2925 1.349 . S
C2941 H2933 0.950 . S
C2941 C2939 1.327 . S
C2942 C2930 1.349 . S
C2942 H2936 0.950 . S
C2942 C2943 1.327 . S
C2943 H2937 0.950 . S
C2943 C2942 1.327 . S
C2943 C2947 1.429 . S
C2944 C2927 1.574 . S
C2944 H2938 0.949 . S
C2944 C2948 1.368 . S
C2945 C2926 1.429 . S
C2945 C2939 1.429 . S
C2945 C2946 1.523 . S
C2946 C2927 1.368 . S
C2946 C2940 1.368 . S
C2946 C2945 1.523 . S
C2947 C2931 1.429 . S
C2947 C2943 1.429 . S
C2947 C2948 1.523 . S
C2948 C2932 1.368 . S
C2948 C2944 1.368 . S
C2948 C2947 1.523 . S
H2949 C2924 0.950 . S
H2950 C2926 0.950 . S
H2951 C2927 0.949 . S
H2952 C2929 0.950 . S
H2953 C2931 0.950 . S
C2954 C2955 1.349 . S
C2954 C2956 1.327 . S
C2954 H2979 0.950 . S
C2955 C2954 1.349 . S
C2955 C2971 1.349 . S
C2956 C2954 1.327 . S
C2956 C2975 1.429 . S
C2956 H2980 0.950 . S
C2957 C2974 1.574 . S
C2957 C2976 1.368 . S
C2957 H2981 0.949 . S
H2958 C2962 0.949 . S
C2959 C2960 1.349 . S
C2959 C2961 1.327 . S
C2959 H2982 0.950 1_455 S
C2960 C2959 1.349 . S
C2960 C2972 1.349 . S
C2961 C2959 1.327 . S
C2961 C2977 1.429 . S
C2961 H2983 0.950 . S
C2962 H2958 0.949 . S
C2962 C2970 1.574 . S
C2962 C2978 1.368 . S
H2963 C2971 0.950 . S
H2964 C2969 0.950 . S
H2965 C2970 0.949 . S
H2966 C2972 0.950 . S
H2967 C2973 0.950 . S
H2968 C2974 0.949 . S
C2969 H2964 0.950 . S
C2969 C2971 1.327 . S
C2969 C2975 1.429 . S
C2970 C2962 1.574 . S
C2970 H2965 0.949 . S
C2970 C2976 1.368 . S
C2971 C2955 1.349 . S
C2971 H2963 0.950 . S
C2971 C2969 1.327 . S
C2972 C2960 1.349 . S
C2972 H2966 0.950 . S
C2972 C2973 1.327 . S
C2973 H2967 0.950 . S
C2973 C2972 1.327 . S
C2973 C2977 1.429 . S
C2974 C2957 1.574 . S
C2974 H2968 0.949 . S
C2974 C2978 1.368 . S
C2975 C2956 1.429 . S
C2975 C2969 1.429 . S
C2975 C2976 1.523 . S
C2976 C2957 1.368 . S
C2976 C2970 1.368 . S
C2976 C2975 1.523 . S
C2977 C2961 1.429 . S
C2977 C2973 1.429 . S
C2977 C2978 1.523 . S
C2978 C2962 1.368 . S
C2978 C2974 1.368 . S
C2978 C2977 1.523 . S
H2979 C2954 0.950 . S
H2980 C2956 0.950 . S
H2981 C2957 0.949 . S
H2982 C2959 0.950 1_655 S
H2983 C2961 0.950 . S
C2984 C2985 1.349 . S
C2984 C2986 1.327 . S
C2984 H3009 0.950 . S
C2985 C2984 1.349 . S
C2985 C3001 1.349 . S
C2986 C2984 1.327 . S
C2986 C3005 1.429 . S
C2986 H3010 0.950 . S
C2987 C3004 1.574 . S
C2987 C3006 1.368 . S
C2987 H3011 0.949 . S
H2988 C2992 0.949 . S
C2989 C2990 1.349 . S
C2989 C2991 1.327 . S
C2989 H3012 0.950 . S
C2990 C2989 1.349 . S
C2990 C3002 1.349 . S
C2991 C2989 1.327 . S
C2991 C3007 1.429 . S
C2991 H3013 0.950 . S
C2992 H2988 0.949 . S
C2992 C3000 1.574 . S
C2992 C3008 1.368 . S
H2993 C3001 0.950 . S
H2994 C2999 0.950 . S
H2995 C3000 0.949 . S
H2996 C3002 0.950 . S
H2997 C3003 0.950 . S
H2998 C3004 0.949 . S
C2999 H2994 0.950 . S
C2999 C3001 1.327 . S
C2999 C3005 1.429 . S
C3000 C2992 1.574 . S
C3000 H2995 0.949 . S
C3000 C3006 1.368 . S
C3001 C2985 1.349 . S
C3001 H2993 0.950 . S
C3001 C2999 1.327 . S
C3002 C2990 1.349 . S
C3002 H2996 0.950 . S
C3002 C3003 1.327 . S
C3003 H2997 0.950 . S
C3003 C3002 1.327 . S
C3003 C3007 1.429 . S
C3004 C2987 1.574 . S
C3004 H2998 0.949 . S
C3004 C3008 1.368 . S
C3005 C2986 1.429 . S
C3005 C2999 1.429 . S
C3005 C3006 1.523 . S
C3006 C2987 1.368 . S
C3006 C3000 1.368 . S
C3006 C3005 1.523 . S
C3007 C2991 1.429 . S
C3007 C3003 1.429 . S
C3007 C3008 1.523 . S
C3008 C2992 1.368 . S
C3008 C3004 1.368 . S
C3008 C3007 1.523 . S
H3009 C2984 0.950 . S
H3010 C2986 0.950 . S
H3011 C2987 0.949 . S
H3012 C2989 0.950 . S
H3013 C2991 0.950 . S
C3014 C3015 1.353 . S
C3014 C3016 1.389 . S
C3014 H3039 0.886 1_455 S
C3015 C3014 1.353 . S
C3015 C3031 1.349 . S
C3016 C3014 1.389 . S
C3016 C3035 1.429 . S
C3016 H3040 0.950 . S
C3017 C3034 1.574 . S
C3017 C3036 1.368 . S
C3017 H3041 0.949 . S
H3018 C3022 0.949 . S
C3019 C3020 1.349 . S
C3019 C3021 1.327 . S
C3019 H3042 0.950 . S
C3020 C3019 1.349 . S
C3020 C3032 1.349 . S
C3021 C3019 1.327 . S
C3021 C3037 1.429 . S
C3021 H3043 0.950 . S
C3022 H3018 0.949 . S
C3022 C3030 1.574 . S
C3022 C3038 1.368 . S
H3023 C3031 0.950 . S
H3024 C3029 0.950 . S
H3025 C3030 0.949 . S
H3026 C3032 0.950 . S
H3027 C3033 0.950 . S
H3028 C3034 0.949 . S
C3029 H3024 0.950 . S
C3029 C3031 1.327 . S
C3029 C3035 1.429 . S
C3030 C3022 1.574 . S
C3030 H3025 0.949 . S
C3030 C3036 1.368 . S
C3031 C3015 1.349 . S
C3031 H3023 0.950 . S
C3031 C3029 1.327 . S
C3032 C3020 1.349 . S
C3032 H3026 0.950 . S
C3032 C3033 1.327 . S
C3033 H3027 0.950 . S
C3033 C3032 1.327 . S
C3033 C3037 1.429 . S
C3034 C3017 1.574 . S
C3034 H3028 0.949 . S
C3034 C3038 1.368 . S
C3035 C3016 1.429 . S
C3035 C3029 1.429 . S
C3035 C3036 1.523 . S
C3036 C3017 1.368 . S
C3036 C3030 1.368 . S
C3036 C3035 1.523 . S
C3037 C3021 1.429 . S
C3037 C3033 1.429 . S
C3037 C3038 1.523 . S
C3038 C3022 1.368 . S
C3038 C3034 1.368 . S
C3038 C3037 1.523 . S
H3039 C3014 0.886 1_655 S
H3040 C3016 0.950 . S
H3041 C3017 0.949 . S
H3042 C3019 0.950 . S
H3043 C3021 0.950 . S
C3044 C3045 1.349 . S
C3044 C3046 1.327 . S
C3044 H3069 0.950 . S
C3045 C3044 1.349 . S
C3045 C3061 1.349 . S
C3046 C3044 1.327 . S
C3046 C3065 1.429 . S
C3046 H3070 0.950 . S
C3047 C3064 1.574 . S
C3047 C3066 1.368 . S
C3047 H3071 0.949 . S
H3048 C3052 0.949 . S
C3049 C3050 1.349 . S
C3049 C3051 1.327 . S
C3049 H3072 0.950 . S
C3050 C3049 1.349 . S
C3050 C3062 1.349 . S
C3051 C3049 1.327 . S
C3051 C3067 1.429 . S
C3051 H3073 0.950 . S
C3052 H3048 0.949 . S
C3052 C3060 1.574 . S
C3052 C3068 1.368 . S
H3053 C3061 0.950 . S
H3054 C3059 0.950 . S
H3055 C3060 0.949 . S
H3056 C3062 0.950 . S
H3057 C3063 0.950 . S
H3058 C3064 0.949 . S
C3059 H3054 0.950 . S
C3059 C3061 1.327 . S
C3059 C3065 1.429 . S
C3060 C3052 1.574 . S
C3060 H3055 0.949 . S
C3060 C3066 1.368 . S
C3061 C3045 1.349 . S
C3061 H3053 0.950 . S
C3061 C3059 1.327 . S
C3062 C3050 1.349 . S
C3062 H3056 0.950 . S
C3062 C3063 1.327 . S
C3063 H3057 0.950 . S
C3063 C3062 1.327 . S
C3063 C3067 1.429 . S
C3064 C3047 1.574 . S
C3064 H3058 0.949 . S
C3064 C3068 1.368 . S
C3065 C3046 1.429 . S
C3065 C3059 1.429 . S
C3065 C3066 1.523 . S
C3066 C3047 1.368 . S
C3066 C3060 1.368 . S
C3066 C3065 1.523 . S
C3067 C3051 1.429 . S
C3067 C3063 1.429 . S
C3067 C3068 1.523 . S
C3068 C3052 1.368 . S
C3068 C3064 1.368 . S
C3068 C3067 1.523 . S
H3069 C3044 0.950 . S
H3070 C3046 0.950 . S
H3071 C3047 0.949 . S
H3072 C3049 0.950 . S
H3073 C3051 0.950 . S
C3074 C3075 1.349 . S
C3074 C3076 1.327 . S
C3074 H3099 0.950 . S
C3075 C3074 1.349 . S
C3075 C3091 1.349 . S
C3076 C3074 1.327 . S
C3076 C3095 1.429 . S
C3076 H3100 0.950 . S
C3077 C3094 1.574 . S
C3077 C3096 1.368 . S
C3077 H3101 0.949 . S
H3078 C3082 0.949 . S
C3079 C3080 1.349 . S
C3079 C3081 1.327 . S
C3079 H3102 0.950 . S
C3080 C3079 1.349 . S
C3080 C3092 1.349 . S
C3081 C3079 1.327 . S
C3081 C3097 1.429 . S
C3081 H3103 0.950 . S
C3082 H3078 0.949 . S
C3082 C3090 1.574 . S
C3082 C3098 1.368 . S
H3083 C3091 0.950 . S
H3084 C3089 0.950 . S
H3085 C3090 0.949 . S
H3086 C3092 0.950 . S
H3087 C3093 0.950 . S
H3088 C3094 0.949 . S
C3089 H3084 0.950 . S
C3089 C3091 1.327 . S
C3089 C3095 1.429 . S
C3090 C3082 1.574 . S
C3090 H3085 0.949 . S
C3090 C3096 1.368 . S
C3091 C3075 1.349 . S
C3091 H3083 0.950 . S
C3091 C3089 1.327 . S
C3092 C3080 1.349 . S
C3092 H3086 0.950 . S
C3092 C3093 1.327 . S
C3093 H3087 0.950 . S
C3093 C3092 1.327 . S
C3093 C3097 1.429 . S
C3094 C3077 1.574 . S
C3094 H3088 0.949 . S
C3094 C3098 1.368 . S
C3095 C3076 1.429 . S
C3095 C3089 1.429 . S
C3095 C3096 1.523 . S
C3096 C3077 1.368 . S
C3096 C3090 1.368 . S
C3096 C3095 1.523 . S
C3097 C3081 1.429 . S
C3097 C3093 1.429 . S
C3097 C3098 1.523 . S
C3098 C3082 1.368 . S
C3098 C3094 1.368 . S
C3098 C3097 1.523 . S
H3099 C3074 0.950 . S
H3100 C3076 0.950 . S
H3101 C3077 0.949 . S
H3102 C3079 0.950 . S
H3103 C3081 0.950 . S
C3104 C3105 1.349 . S
C3104 C3106 1.327 . S
C3104 H3129 0.927 1_554 S
C3105 C3104 1.349 . S
C3105 C3121 1.349 . S
C3106 C3104 1.327 . S
C3106 C3125 1.429 . S
C3106 H3130 0.950 . S
C3107 C3124 1.574 . S
C3107 C3126 1.368 . S
C3107 H3131 0.949 . S
H3108 C3112 0.949 . S
C3109 C3110 1.349 . S
C3109 C3111 1.327 . S
C3109 H3132 0.950 . S
C3110 C3109 1.349 . S
C3110 C3122 1.349 . S
C3111 C3109 1.327 . S
C3111 C3127 1.429 . S
C3111 H3133 0.950 . S
C3112 H3108 0.949 . S
C3112 C3120 1.574 . S
C3112 C3128 1.368 . S
H3113 C3121 0.950 . S
H3114 C3119 0.950 . S
H3115 C3120 0.949 . S
H3116 C3122 0.950 . S
H3117 C3123 0.950 . S
H3118 C3124 0.949 . S
C3119 H3114 0.950 . S
C3119 C3121 1.327 . S
C3119 C3125 1.429 . S
C3120 C3112 1.574 . S
C3120 H3115 0.949 . S
C3120 C3126 1.368 . S
C3121 C3105 1.349 . S
C3121 H3113 0.950 . S
C3121 C3119 1.327 . S
C3122 C3110 1.349 . S
C3122 H3116 0.950 . S
C3122 C3123 1.327 . S
C3123 H3117 0.950 . S
C3123 C3122 1.327 . S
C3123 C3127 1.429 . S
C3124 C3107 1.574 . S
C3124 H3118 0.949 . S
C3124 C3128 1.368 . S
C3125 C3106 1.429 . S
C3125 C3119 1.429 . S
C3125 C3126 1.523 . S
C3126 C3107 1.368 . S
C3126 C3120 1.368 . S
C3126 C3125 1.523 . S
C3127 C3111 1.429 . S
C3127 C3123 1.429 . S
C3127 C3128 1.523 . S
C3128 C3112 1.368 . S
C3128 C3124 1.368 . S
C3128 C3127 1.523 . S
H3129 C3104 0.927 1_556 S
H3130 C3106 0.950 . S
H3131 C3107 0.949 . S
H3132 C3109 0.950 . S
H3133 C3111 0.950 . S
C3134 C3135 1.349 . S
C3134 C3136 1.327 . S
C3134 H3159 0.950 . S
C3135 C3134 1.349 . S
C3135 C3151 1.349 . S
C3136 C3134 1.327 . S
C3136 C3155 1.429 . S
C3136 H3160 0.950 . S
C3137 C3154 1.574 . S
C3137 C3156 1.368 . S
C3137 H3161 0.949 . S
H3138 C3142 0.949 . S
C3139 C3140 1.349 . S
C3139 C3141 1.327 . S
C3139 H3162 0.950 . S
C3140 C3139 1.349 . S
C3140 C3152 1.349 . S
C3141 C3139 1.327 . S
C3141 C3157 1.429 . S
C3141 H3163 0.950 . S
C3142 H3138 0.949 . S
C3142 C3150 1.574 . S
C3142 C3158 1.368 . S
H3143 C3151 0.950 . S
H3144 C3149 0.950 . S
H3145 C3150 0.949 . S
H3146 C3152 0.950 . S
H3147 C3153 0.950 . S
H3148 C3154 0.949 . S
C3149 H3144 0.950 . S
C3149 C3151 1.327 . S
C3149 C3155 1.429 . S
C3150 C3142 1.574 . S
C3150 H3145 0.949 . S
C3150 C3156 1.368 . S
C3151 C3135 1.349 . S
C3151 H3143 0.950 . S
C3151 C3149 1.327 . S
C3152 C3140 1.349 . S
C3152 H3146 0.950 . S
C3152 C3153 1.327 . S
C3153 H3147 0.950 . S
C3153 C3152 1.327 . S
C3153 C3157 1.429 . S
C3154 C3137 1.574 . S
C3154 H3148 0.949 . S
C3154 C3158 1.368 . S
C3155 C3136 1.429 . S
C3155 C3149 1.429 . S
C3155 C3156 1.523 . S
C3156 C3137 1.368 . S
C3156 C3150 1.368 . S
C3156 C3155 1.523 . S
C3157 C3141 1.429 . S
C3157 C3153 1.429 . S
C3157 C3158 1.523 . S
C3158 C3142 1.368 . S
C3158 C3154 1.368 . S
C3158 C3157 1.523 . S
H3159 C3134 0.950 . S
H3160 C3136 0.950 . S
H3161 C3137 0.949 . S
H3162 C3139 0.950 . S
H3163 C3141 0.950 . S
C3164 C3165 1.349 . S
C3164 C3166 1.327 . S
C3164 H3189 0.950 . S
C3165 C3164 1.349 . S
C3165 C3181 1.349 . S
C3166 C3164 1.327 . S
C3166 C3185 1.429 . S
C3166 H3190 0.950 . S
C3167 C3184 1.574 . S
C3167 C3186 1.368 . S
C3167 H3191 0.949 . S
H3168 C3172 0.949 . S
C3169 C3170 1.349 . S
C3169 C3171 1.327 . S
C3169 H3192 0.950 . S
C3170 C3169 1.349 . S
C3170 C3182 1.349 . S
C3171 C3169 1.327 . S
C3171 C3187 1.429 . S
C3171 H3193 0.950 . S
C3172 H3168 0.949 . S
C3172 C3180 1.574 . S
C3172 C3188 1.368 . S
H3173 C3181 0.950 . S
H3174 C3179 0.950 . S
H3175 C3180 0.949 . S
H3176 C3182 0.950 . S
H3177 C3183 0.950 . S
H3178 C3184 0.949 . S
C3179 H3174 0.950 . S
C3179 C3181 1.327 . S
C3179 C3185 1.429 . S
C3180 C3172 1.574 . S
C3180 H3175 0.949 . S
C3180 C3186 1.368 . S
C3181 C3165 1.349 . S
C3181 H3173 0.950 . S
C3181 C3179 1.327 . S
C3182 C3170 1.349 . S
C3182 H3176 0.950 . S
C3182 C3183 1.327 . S
C3183 H3177 0.950 . S
C3183 C3182 1.327 . S
C3183 C3187 1.429 . S
C3184 C3167 1.574 . S
C3184 H3178 0.949 . S
C3184 C3188 1.368 . S
C3185 C3166 1.429 . S
C3185 C3179 1.429 . S
C3185 C3186 1.523 . S
C3186 C3167 1.368 . S
C3186 C3180 1.368 . S
C3186 C3185 1.523 . S
C3187 C3171 1.429 . S
C3187 C3183 1.429 . S
C3187 C3188 1.523 . S
C3188 C3172 1.368 . S
C3188 C3184 1.368 . S
C3188 C3187 1.523 . S
H3189 C3164 0.950 . S
H3190 C3166 0.950 . S
H3191 C3167 0.949 . S
H3192 C3169 0.950 . S
H3193 C3171 0.950 . S
C3194 C3195 1.349 . S
C3194 C3196 1.327 . S
C3194 H3219 0.950 . S
C3195 C3194 1.349 . S
C3195 C3211 1.349 . S
C3196 C3194 1.327 . S
C3196 C3215 1.429 . S
C3196 H3220 0.950 . S
C3197 C3214 1.574 . S
C3197 C3216 1.368 . S
C3197 H3221 0.949 . S
H3198 C3202 0.949 . S
C3199 C3200 1.349 . S
C3199 C3201 1.327 . S
C3199 H3222 0.950 1_556 S
C3200 C3199 1.349 . S
C3200 C3212 1.349 . S
C3201 C3199 1.327 . S
C3201 C3217 1.429 . S
C3201 H3223 0.950 . S
C3202 H3198 0.949 . S
C3202 C3210 1.574 . S
C3202 C3218 1.368 . S
H3203 C3211 0.950 . S
H3204 C3209 0.950 . S
H3205 C3210 0.949 . S
H3206 C3212 0.950 . S
H3207 C3213 0.950 . S
H3208 C3214 0.949 . S
C3209 H3204 0.950 . S
C3209 C3211 1.327 . S
C3209 C3215 1.429 . S
C3210 C3202 1.574 . S
C3210 H3205 0.949 . S
C3210 C3216 1.368 . S
C3211 C3195 1.349 . S
C3211 H3203 0.950 . S
C3211 C3209 1.327 . S
C3212 C3200 1.349 . S
C3212 H3206 0.950 . S
C3212 C3213 1.327 . S
C3213 H3207 0.950 . S
C3213 C3212 1.327 . S
C3213 C3217 1.429 . S
C3214 C3197 1.574 . S
C3214 H3208 0.949 . S
C3214 C3218 1.368 . S
C3215 C3196 1.429 . S
C3215 C3209 1.429 . S
C3215 C3216 1.523 . S
C3216 C3197 1.368 . S
C3216 C3210 1.368 . S
C3216 C3215 1.523 . S
C3217 C3201 1.429 . S
C3217 C3213 1.429 . S
C3217 C3218 1.523 . S
C3218 C3202 1.368 . S
C3218 C3214 1.368 . S
C3218 C3217 1.523 . S
H3219 C3194 0.950 . S
H3220 C3196 0.950 . S
H3221 C3197 0.949 . S
H3222 C3199 0.950 1_554 S
H3223 C3201 0.950 . S
C3224 C3225 1.349 . S
C3224 C3226 1.327 . S
C3224 H3249 0.950 . S
C3225 C3224 1.349 . S
C3225 C3241 1.349 . S
C3226 C3224 1.327 . S
C3226 C3245 1.429 . S
C3226 H3250 0.950 . S
C3227 C3244 1.574 . S
C3227 C3246 1.368 . S
C3227 H3251 0.949 . S
H3228 C3232 0.949 . S
C3229 C3230 1.349 . S
C3229 C3231 1.327 . S
C3229 H3252 0.950 . S
C3230 C3229 1.349 . S
C3230 C3242 1.349 . S
C3231 C3229 1.327 . S
C3231 C3247 1.429 . S
C3231 H3253 0.950 . S
C3232 H3228 0.949 . S
C3232 C3240 1.574 . S
C3232 C3248 1.368 . S
H3233 C3241 0.950 . S
H3234 C3239 0.950 . S
H3235 C3240 0.949 . S
H3236 C3242 0.950 . S
H3237 C3243 0.950 . S
H3238 C3244 0.949 . S
C3239 H3234 0.950 . S
C3239 C3241 1.327 . S
C3239 C3245 1.429 . S
C3240 C3232 1.574 . S
C3240 H3235 0.949 . S
C3240 C3246 1.368 . S
C3241 C3225 1.349 . S
C3241 H3233 0.950 . S
C3241 C3239 1.327 . S
C3242 C3230 1.349 . S
C3242 H3236 0.950 . S
C3242 C3243 1.327 . S
C3243 H3237 0.950 . S
C3243 C3242 1.327 . S
C3243 C3247 1.429 . S
C3244 C3227 1.574 . S
C3244 H3238 0.949 . S
C3244 C3248 1.368 . S
C3245 C3226 1.429 . S
C3245 C3239 1.429 . S
C3245 C3246 1.523 . S
C3246 C3227 1.368 . S
C3246 C3240 1.368 . S
C3246 C3245 1.523 . S
C3247 C3231 1.429 . S
C3247 C3243 1.429 . S
C3247 C3248 1.523 . S
C3248 C3232 1.368 . S
C3248 C3244 1.368 . S
C3248 C3247 1.523 . S
H3249 C3224 0.950 . S
H3250 C3226 0.950 . S
H3251 C3227 0.949 . S
H3252 C3229 0.950 . S
H3253 C3231 0.950 . S
C3254 C3255 1.349 . S
C3254 C3256 1.327 . S
C3254 H3279 0.950 . S
C3255 C3254 1.349 . S
C3255 C3271 1.349 . S
C3256 C3254 1.327 . S
C3256 C3275 1.429 . S
C3256 H3280 0.950 . S
C3257 C3274 1.574 . S
C3257 C3276 1.368 . S
C3257 H3281 0.949 . S
H3258 C3262 0.949 . S
C3259 C3260 1.349 . S
C3259 C3261 1.327 . S
C3259 H3282 0.950 . S
C3260 C3259 1.349 . S
C3260 C3272 1.349 . S
C3261 C3259 1.327 . S
C3261 C3277 1.429 . S
C3261 H3283 0.950 . S
C3262 H3258 0.949 . S
C3262 C3270 1.574 . S
C3262 C3278 1.368 . S
H3263 C3271 0.950 . S
H3264 C3269 0.950 . S
H3265 C3270 0.949 . S
H3266 C3272 0.950 . S
H3267 C3273 0.950 . S
H3268 C3274 0.949 . S
C3269 H3264 0.950 . S
C3269 C3271 1.327 . S
C3269 C3275 1.429 . S
C3270 C3262 1.574 . S
C3270 H3265 0.949 . S
C3270 C3276 1.368 . S
C3271 C3255 1.349 . S
C3271 H3263 0.950 . S
C3271 C3269 1.327 . S
C3272 C3260 1.349 . S
C3272 H3266 0.950 . S
C3272 C3273 1.327 . S
C3273 H3267 0.950 . S
C3273 C3272 1.327 . S
C3273 C3277 1.429 . S
C3274 C3257 1.574 . S
C3274 H3268 0.949 . S
C3274 C3278 1.368 . S
C3275 C3256 1.429 . S
C3275 C3269 1.429 . S
C3275 C3276 1.523 . S
C3276 C3257 1.368 . S
C3276 C3270 1.368 . S
C3276 C3275 1.523 . S
C3277 C3261 1.429 . S
C3277 C3273 1.429 . S
C3277 C3278 1.523 . S
C3278 C3262 1.368 . S
C3278 C3274 1.368 . S
C3278 C3277 1.523 . S
H3279 C3254 0.950 . S
H3280 C3256 0.950 . S
H3281 C3257 0.949 . S
H3282 C3259 0.950 . S
H3283 C3261 0.950 . S
C3284 C3285 1.349 . S
C3284 C3286 1.327 . S
C3284 H3309 0.950 . S
C3285 C3284 1.349 . S
C3285 C3301 1.349 . S
C3286 C3284 1.327 . S
C3286 C3305 1.429 . S
C3286 H3310 0.950 . S
C3287 C3304 1.574 . S
C3287 C3306 1.368 . S
C3287 H3311 0.949 . S
H3288 C3292 0.949 . S
C3289 C3290 1.349 . S
C3289 C3291 1.327 . S
C3289 H3312 0.950 . S
C3290 C3289 1.349 . S
C3290 C3302 1.349 . S
C3291 C3289 1.327 . S
C3291 C3307 1.429 . S
C3291 H3313 0.950 . S
C3292 H3288 0.949 . S
C3292 C3300 1.574 . S
C3292 C3308 1.368 . S
H3293 C3301 0.950 . S
H3294 C3299 0.950 . S
H3295 C3300 0.949 . S
H3296 C3302 0.950 . S
H3297 C3303 0.950 . S
H3298 C3304 0.949 . S
C3299 H3294 0.950 . S
C3299 C3301 1.327 . S
C3299 C3305 1.429 . S
C3300 C3292 1.574 . S
C3300 H3295 0.949 . S
C3300 C3306 1.368 . S
C3301 C3285 1.349 . S
C3301 H3293 0.950 . S
C3301 C3299 1.327 . S
C3302 C3290 1.349 . S
C3302 H3296 0.950 . S
C3302 C3303 1.327 . S
C3303 H3297 0.950 . S
C3303 C3302 1.327 . S
C3303 C3307 1.429 . S
C3304 C3287 1.574 . S
C3304 H3298 0.949 . S
C3304 C3308 1.368 . S
C3305 C3286 1.429 . S
C3305 C3299 1.429 . S
C3305 C3306 1.523 . S
C3306 C3287 1.368 . S
C3306 C3300 1.368 . S
C3306 C3305 1.523 . S
C3307 C3291 1.429 . S
C3307 C3303 1.429 . S
C3307 C3308 1.523 . S
C3308 C3292 1.368 . S
C3308 C3304 1.368 . S
C3308 C3307 1.523 . S
H3309 C3284 0.950 . S
H3310 C3286 0.950 . S
H3311 C3287 0.949 . S
H3312 C3289 0.950 . S
H3313 C3291 0.950 . S
C3314 C3315 1.349 . S
C3314 C3316 1.327 . S
C3314 H3339 0.950 . S
C3315 C3314 1.349 . S
C3315 C3331 1.349 . S
C3316 C3314 1.327 . S
C3316 C3335 1.429 . S
C3316 H3340 0.950 . S
C3317 C3334 1.574 . S
C3317 C3336 1.368 . S
C3317 H3341 0.949 . S
H3318 C3322 0.949 . S
C3319 C3320 1.349 . S
C3319 C3321 1.327 . S
C3319 H3342 0.950 . S
C3320 C3319 1.349 . S
C3320 C3332 1.349 . S
C3321 C3319 1.327 . S
C3321 C3337 1.429 . S
C3321 H3343 0.950 . S
C3322 H3318 0.949 . S
C3322 C3330 1.574 . S
C3322 C3338 1.368 . S
H3323 C3331 0.950 1_556 S
H3324 C3329 0.950 . S
H3325 C3330 0.949 . S
H3326 C3332 0.950 . S
H3327 C3333 0.950 . S
H3328 C3334 0.949 . S
C3329 H3324 0.950 . S
C3329 C3331 1.327 . S
C3329 C3335 1.429 . S
C3330 C3322 1.574 . S
C3330 H3325 0.949 . S
C3330 C3336 1.368 . S
C3331 C3315 1.349 . S
C3331 H3323 0.950 1_554 S
C3331 C3329 1.327 . S
C3332 C3320 1.349 . S
C3332 H3326 0.950 . S
C3332 C3333 1.327 . S
C3333 H3327 0.950 . S
C3333 C3332 1.327 . S
C3333 C3337 1.429 . S
C3334 C3317 1.574 . S
C3334 H3328 0.949 . S
C3334 C3338 1.368 . S
C3335 C3316 1.429 . S
C3335 C3329 1.429 . S
C3335 C3336 1.523 . S
C3336 C3317 1.368 . S
C3336 C3330 1.368 . S
C3336 C3335 1.523 . S
C3337 C3321 1.429 . S
C3337 C3333 1.429 . S
C3337 C3338 1.523 . S
C3338 C3322 1.368 . S
C3338 C3334 1.368 . S
C3338 C3337 1.523 . S
H3339 C3314 0.950 . S
H3340 C3316 0.950 . S
H3341 C3317 0.949 . S
H3342 C3319 0.950 . S
H3343 C3321 0.950 . S
C3344 C3345 1.349 . S
C3344 C3346 1.327 . S
C3344 H3369 0.950 . S
C3345 C3344 1.349 . S
C3345 C3361 1.349 . S
C3346 C3344 1.327 . S
C3346 C3365 1.429 . S
C3346 H3370 0.950 . S
C3347 C3364 1.574 . S
C3347 C3366 1.368 . S
C3347 H3371 0.949 . S
H3348 C3352 0.949 . S
C3349 C3350 1.349 . S
C3349 C3351 1.327 . S
C3349 H3372 0.950 . S
C3350 C3349 1.349 . S
C3350 C3362 1.349 . S
C3351 C3349 1.327 . S
C3351 C3367 1.429 . S
C3351 H3373 0.950 . S
C3352 H3348 0.949 . S
C3352 C3360 1.574 . S
C3352 C3368 1.368 . S
H3353 C3361 0.950 . S
H3354 C3359 0.950 . S
H3355 C3360 0.949 . S
H3356 C3362 0.950 . S
H3357 C3363 0.950 . S
H3358 C3364 0.949 . S
C3359 H3354 0.950 . S
C3359 C3361 1.327 . S
C3359 C3365 1.429 . S
C3360 C3352 1.574 . S
C3360 H3355 0.949 . S
C3360 C3366 1.368 . S
C3361 C3345 1.349 . S
C3361 H3353 0.950 . S
C3361 C3359 1.327 . S
C3362 C3350 1.349 . S
C3362 H3356 0.950 . S
C3362 C3363 1.327 . S
C3363 H3357 0.950 . S
C3363 C3362 1.327 . S
C3363 C3367 1.429 . S
C3364 C3347 1.574 . S
C3364 H3358 0.949 . S
C3364 C3368 1.368 . S
C3365 C3346 1.429 . S
C3365 C3359 1.429 . S
C3365 C3366 1.523 . S
C3366 C3347 1.368 . S
C3366 C3360 1.368 . S
C3366 C3365 1.523 . S
C3367 C3351 1.429 . S
C3367 C3363 1.429 . S
C3367 C3368 1.523 . S
C3368 C3352 1.368 . S
C3368 C3364 1.368 . S
C3368 C3367 1.523 . S
H3369 C3344 0.950 . S
H3370 C3346 0.950 . S
H3371 C3347 0.949 . S
H3372 C3349 0.950 . S
H3373 C3351 0.950 . S
C3374 C3375 1.349 . S
C3374 C3376 1.327 . S
C3374 H3399 0.950 . S
C3375 C3374 1.349 . S
C3375 C3391 1.349 . S
C3376 C3374 1.327 . S
C3376 C3395 1.429 . S
C3376 H3400 0.950 . S
C3377 C3394 1.574 . S
C3377 C3396 1.368 . S
C3377 H3401 0.949 . S
H3378 C3382 0.949 . S
C3379 C3380 1.349 . S
C3379 C3381 1.327 . S
C3379 H3402 0.950 . S
C3380 C3379 1.349 . S
C3380 C3392 1.349 . S
C3381 C3379 1.327 . S
C3381 C3397 1.429 . S
C3381 H3403 0.950 . S
C3382 H3378 0.949 . S
C3382 C3390 1.574 . S
C3382 C3398 1.368 . S
H3383 C3391 0.950 . S
H3384 C3389 0.950 . S
H3385 C3390 0.949 . S
H3386 C3392 0.950 . S
H3387 C3393 0.950 . S
H3388 C3394 0.949 . S
C3389 H3384 0.950 . S
C3389 C3391 1.327 . S
C3389 C3395 1.429 . S
C3390 C3382 1.574 . S
C3390 H3385 0.949 . S
C3390 C3396 1.368 . S
C3391 C3375 1.349 . S
C3391 H3383 0.950 . S
C3391 C3389 1.327 . S
C3392 C3380 1.349 . S
C3392 H3386 0.950 . S
C3392 C3393 1.327 . S
C3393 H3387 0.950 . S
C3393 C3392 1.327 . S
C3393 C3397 1.429 . S
C3394 C3377 1.574 . S
C3394 H3388 0.949 . S
C3394 C3398 1.368 . S
C3395 C3376 1.429 . S
C3395 C3389 1.429 . S
C3395 C3396 1.523 . S
C3396 C3377 1.368 . S
C3396 C3390 1.368 . S
C3396 C3395 1.523 . S
C3397 C3381 1.429 . S
C3397 C3393 1.429 . S
C3397 C3398 1.523 . S
C3398 C3382 1.368 . S
C3398 C3394 1.368 . S
C3398 C3397 1.523 . S
H3399 C3374 0.950 . S
H3400 C3376 0.950 . S
H3401 C3377 0.949 . S
H3402 C3379 0.950 . S
H3403 C3381 0.950 . S
C3404 C3405 1.349 . S
C3404 C3406 1.327 . S
C3404 H3429 0.950 . S
C3405 C3404 1.349 . S
C3405 C3421 1.349 . S
C3406 C3404 1.327 . S
C3406 C3425 1.429 . S
C3406 H3430 0.950 . S
C3407 C3424 1.574 . S
C3407 C3426 1.368 . S
C3407 H3431 0.949 . S
H3408 C3412 0.949 . S
C3409 C3410 1.349 . S
C3409 C3411 1.327 . S
C3409 H3432 0.950 . S
C3410 C3409 1.349 . S
C3410 C3422 1.349 . S
C3411 C3409 1.327 . S
C3411 C3427 1.429 . S
C3411 H3433 0.950 . S
C3412 H3408 0.949 . S
C3412 C3420 1.574 . S
C3412 C3428 1.368 . S
H3413 C3421 0.950 1_556 S
H3414 C3419 0.950 . S
H3415 C3420 0.949 . S
H3416 C3422 0.950 . S
H3417 C3423 0.950 . S
H3418 C3424 0.949 . S
C3419 H3414 0.950 . S
C3419 C3421 1.327 . S
C3419 C3425 1.429 . S
C3420 C3412 1.574 . S
C3420 H3415 0.949 . S
C3420 C3426 1.368 . S
C3421 C3405 1.349 . S
C3421 H3413 0.950 1_554 S
C3421 C3419 1.327 . S
C3422 C3410 1.349 . S
C3422 H3416 0.950 . S
C3422 C3423 1.327 . S
C3423 H3417 0.950 . S
C3423 C3422 1.327 . S
C3423 C3427 1.429 . S
C3424 C3407 1.574 . S
C3424 H3418 0.949 . S
C3424 C3428 1.368 . S
C3425 C3406 1.429 . S
C3425 C3419 1.429 . S
C3425 C3426 1.523 . S
C3426 C3407 1.368 . S
C3426 C3420 1.368 . S
C3426 C3425 1.523 . S
C3427 C3411 1.429 . S
C3427 C3423 1.429 . S
C3427 C3428 1.523 . S
C3428 C3412 1.368 . S
C3428 C3424 1.368 . S
C3428 C3427 1.523 . S
H3429 C3404 0.950 . S
H3430 C3406 0.950 . S
H3431 C3407 0.949 . S
H3432 C3409 0.950 . S
H3433 C3411 0.950 . S
C3434 C3435 1.349 . S
C3434 C3436 1.327 . S
C3434 H3459 0.950 . S
C3435 C3434 1.349 . S
C3435 C3451 1.349 . S
C3436 C3434 1.327 . S
C3436 C3455 1.429 . S
C3436 H3460 0.950 . S
C3437 C3454 1.574 . S
C3437 C3456 1.368 . S
C3437 H3461 0.949 . S
H3438 C3442 0.949 . S
C3439 C3440 1.349 . S
C3439 C3441 1.327 . S
C3439 H3462 0.950 . S
C3440 C3439 1.349 . S
C3440 C3452 1.349 . S
C3441 C3439 1.327 . S
C3441 C3457 1.429 . S
C3441 H3463 0.950 . S
C3442 H3438 0.949 . S
C3442 C3450 1.574 . S
C3442 C3458 1.368 . S
H3443 C3451 0.950 . S
H3444 C3449 0.950 . S
H3445 C3450 0.949 . S
H3446 C3452 0.950 . S
H3447 C3453 0.950 . S
H3448 C3454 0.949 . S
C3449 H3444 0.950 . S
C3449 C3451 1.327 . S
C3449 C3455 1.429 . S
C3450 C3442 1.574 . S
C3450 H3445 0.949 . S
C3450 C3456 1.368 . S
C3451 C3435 1.349 . S
C3451 H3443 0.950 . S
C3451 C3449 1.327 . S
C3452 C3440 1.349 . S
C3452 H3446 0.950 . S
C3452 C3453 1.327 . S
C3453 H3447 0.950 . S
C3453 C3452 1.327 . S
C3453 C3457 1.429 . S
C3454 C3437 1.574 . S
C3454 H3448 0.949 . S
C3454 C3458 1.368 . S
C3455 C3436 1.429 . S
C3455 C3449 1.429 . S
C3455 C3456 1.523 . S
C3456 C3437 1.368 . S
C3456 C3450 1.368 . S
C3456 C3455 1.523 . S
C3457 C3441 1.429 . S
C3457 C3453 1.429 . S
C3457 C3458 1.523 . S
C3458 C3442 1.368 . S
C3458 C3454 1.368 . S
C3458 C3457 1.523 . S
H3459 C3434 0.950 . S
H3460 C3436 0.950 . S
H3461 C3437 0.949 . S
H3462 C3439 0.950 . S
H3463 C3441 0.950 . S
C3464 C3465 1.349 . S
C3464 C3466 1.327 . S
C3464 H3489 0.950 . S
C3465 C3464 1.349 . S
C3465 C3481 1.349 . S
C3466 C3464 1.327 . S
C3466 C3485 1.429 . S
C3466 H3490 0.950 . S
C3467 C3484 1.574 . S
C3467 C3486 1.368 . S
C3467 H3491 0.949 . S
H3468 C3472 0.949 . S
C3469 C3470 1.349 . S
C3469 C3471 1.327 . S
C3469 H3492 0.950 . S
C3470 C3469 1.349 . S
C3470 C3482 1.349 . S
C3471 C3469 1.327 . S
C3471 C3487 1.429 . S
C3471 H3493 0.950 . S
C3472 H3468 0.949 . S
C3472 C3480 1.574 . S
C3472 C3488 1.368 . S
H3473 C3481 0.950 . S
H3474 C3479 0.950 . S
H3475 C3480 0.949 . S
H3476 C3482 0.950 . S
H3477 C3483 0.950 . S
H3478 C3484 0.949 . S
C3479 H3474 0.950 . S
C3479 C3481 1.327 . S
C3479 C3485 1.429 . S
C3480 C3472 1.574 . S
C3480 H3475 0.949 . S
C3480 C3486 1.368 . S
C3481 C3465 1.349 . S
C3481 H3473 0.950 . S
C3481 C3479 1.327 . S
C3482 C3470 1.349 . S
C3482 H3476 0.950 . S
C3482 C3483 1.327 . S
C3483 H3477 0.950 . S
C3483 C3482 1.327 . S
C3483 C3487 1.429 . S
C3484 C3467 1.574 . S
C3484 H3478 0.949 . S
C3484 C3488 1.368 . S
C3485 C3466 1.429 . S
C3485 C3479 1.429 . S
C3485 C3486 1.523 . S
C3486 C3467 1.368 . S
C3486 C3480 1.368 . S
C3486 C3485 1.523 . S
C3487 C3471 1.429 . S
C3487 C3483 1.429 . S
C3487 C3488 1.523 . S
C3488 C3472 1.368 . S
C3488 C3484 1.368 . S
C3488 C3487 1.523 . S
H3489 C3464 0.950 . S
H3490 C3466 0.950 . S
H3491 C3467 0.949 . S
H3492 C3469 0.950 . S
H3493 C3471 0.950 . S
C3494 C3495 1.349 . S
C3494 C3496 1.327 . S
C3494 H3519 0.950 . S
C3495 C3494 1.349 . S
C3495 C3511 1.349 . S
C3496 C3494 1.327 . S
C3496 C3515 1.429 . S
C3496 H3520 0.950 . S
C3497 C3514 1.574 . S
C3497 C3516 1.368 . S
C3497 H3521 0.949 . S
H3498 C3502 0.949 . S
C3499 C3500 1.349 . S
C3499 C3501 1.327 . S
C3499 H3522 0.950 . S
C3500 C3499 1.349 . S
C3500 C3512 1.349 . S
C3501 C3499 1.327 . S
C3501 C3517 1.429 . S
C3501 H3523 0.950 . S
C3502 H3498 0.949 . S
C3502 C3510 1.574 . S
C3502 C3518 1.368 . S
H3503 C3511 0.950 . S
H3504 C3509 0.950 . S
H3505 C3510 0.949 . S
H3506 C3512 0.950 1_556 S
H3507 C3513 0.950 . S
H3508 C3514 0.949 . S
C3509 H3504 0.950 . S
C3509 C3511 1.327 . S
C3509 C3515 1.429 . S
C3510 C3502 1.574 . S
C3510 H3505 0.949 . S
C3510 C3516 1.368 . S
C3511 C3495 1.349 . S
C3511 H3503 0.950 . S
C3511 C3509 1.327 . S
C3512 C3500 1.349 . S
C3512 H3506 0.950 1_554 S
C3512 C3513 1.327 . S
C3513 H3507 0.950 . S
C3513 C3512 1.327 . S
C3513 C3517 1.429 . S
C3514 C3497 1.574 . S
C3514 H3508 0.949 . S
C3514 C3518 1.368 . S
C3515 C3496 1.429 . S
C3515 C3509 1.429 . S
C3515 C3516 1.523 . S
C3516 C3497 1.368 . S
C3516 C3510 1.368 . S
C3516 C3515 1.523 . S
C3517 C3501 1.429 . S
C3517 C3513 1.429 . S
C3517 C3518 1.523 . S
C3518 C3502 1.368 . S
C3518 C3514 1.368 . S
C3518 C3517 1.523 . S
H3519 C3494 0.950 . S
H3520 C3496 0.950 . S
H3521 C3497 0.949 . S
H3522 C3499 0.950 . S
H3523 C3501 0.950 . S
C3524 C3525 1.349 . S
C3524 C3526 1.327 . S
C3524 H3549 0.950 . S
C3525 C3524 1.349 . S
C3525 C3541 1.349 . S
C3526 C3524 1.327 . S
C3526 C3545 1.429 . S
C3526 H3550 0.950 . S
C3527 C3544 1.574 . S
C3527 C3546 1.368 . S
C3527 H3551 0.949 . S
H3528 C3532 0.949 . S
C3529 C3530 1.349 . S
C3529 C3531 1.327 . S
C3529 H3552 0.950 . S
C3530 C3529 1.349 . S
C3530 C3542 1.349 . S
C3531 C3529 1.327 . S
C3531 C3547 1.429 . S
C3531 H3553 0.950 . S
C3532 H3528 0.949 . S
C3532 C3540 1.574 . S
C3532 C3548 1.368 . S
H3533 C3541 0.950 . S
H3534 C3539 0.950 . S
H3535 C3540 0.949 . S
H3536 C3542 0.950 . S
H3537 C3543 0.950 . S
H3538 C3544 0.949 . S
C3539 H3534 0.950 . S
C3539 C3541 1.327 . S
C3539 C3545 1.429 . S
C3540 C3532 1.574 . S
C3540 H3535 0.949 . S
C3540 C3546 1.368 . S
C3541 C3525 1.349 . S
C3541 H3533 0.950 . S
C3541 C3539 1.327 . S
C3542 C3530 1.349 . S
C3542 H3536 0.950 . S
C3542 C3543 1.327 . S
C3543 H3537 0.950 . S
C3543 C3542 1.327 . S
C3543 C3547 1.429 . S
C3544 C3527 1.574 . S
C3544 H3538 0.949 . S
C3544 C3548 1.368 . S
C3545 C3526 1.429 . S
C3545 C3539 1.429 . S
C3545 C3546 1.523 . S
C3546 C3527 1.368 . S
C3546 C3540 1.368 . S
C3546 C3545 1.523 . S
C3547 C3531 1.429 . S
C3547 C3543 1.429 . S
C3547 C3548 1.523 . S
C3548 C3532 1.368 . S
C3548 C3544 1.368 . S
C3548 C3547 1.523 . S
H3549 C3524 0.950 . S
H3550 C3526 0.950 . S
H3551 C3527 0.949 . S
H3552 C3529 0.950 . S
H3553 C3531 0.950 . S
C3554 C3555 1.349 . S
C3554 C3556 1.327 . S
C3554 H3579 0.950 . S
C3555 C3554 1.349 . S
C3555 C3571 1.349 . S
C3556 C3554 1.327 . S
C3556 C3575 1.429 . S
C3556 H3580 0.950 . S
C3557 C3574 1.574 . S
C3557 C3576 1.368 . S
C3557 H3581 0.949 . S
H3558 C3562 0.949 . S
C3559 C3560 1.349 . S
C3559 C3561 1.327 . S
C3559 H3582 0.950 . S
C3560 C3559 1.349 . S
C3560 C3572 1.349 . S
C3561 C3559 1.327 . S
C3561 C3577 1.429 . S
C3561 H3583 0.950 . S
C3562 H3558 0.949 . S
C3562 C3570 1.574 . S
C3562 C3578 1.368 . S
H3563 C3571 0.950 . S
H3564 C3569 0.950 . S
H3565 C3570 0.949 . S
H3566 C3572 0.950 . S
H3567 C3573 0.950 . S
H3568 C3574 0.949 . S
C3569 H3564 0.950 . S
C3569 C3571 1.327 . S
C3569 C3575 1.429 . S
C3570 C3562 1.574 . S
C3570 H3565 0.949 . S
C3570 C3576 1.368 . S
C3571 C3555 1.349 . S
C3571 H3563 0.950 . S
C3571 C3569 1.327 . S
C3572 C3560 1.349 . S
C3572 H3566 0.950 . S
C3572 C3573 1.327 . S
C3573 H3567 0.950 . S
C3573 C3572 1.327 . S
C3573 C3577 1.429 . S
C3574 C3557 1.574 . S
C3574 H3568 0.949 . S
C3574 C3578 1.368 . S
C3575 C3556 1.429 . S
C3575 C3569 1.429 . S
C3575 C3576 1.523 . S
C3576 C3557 1.368 . S
C3576 C3570 1.368 . S
C3576 C3575 1.523 . S
C3577 C3561 1.429 . S
C3577 C3573 1.429 . S
C3577 C3578 1.523 . S
C3578 C3562 1.368 . S
C3578 C3574 1.368 . S
C3578 C3577 1.523 . S
H3579 C3554 0.950 . S
H3580 C3556 0.950 . S
H3581 C3557 0.949 . S
H3582 C3559 0.950 . S
H3583 C3561 0.950 . S
C705 C10 1.094 . S
C710 C96 1.094 . S
C735 C30 1.094 . S
C740 C128 1.094 . S
C765 C150 1.094 . S
C770 C62 1.094 . S
C795 C172 1.094 . S
C800 C76 1.094 . S
C825 C194 1.080 . S
C830 C272 1.080 . S
C855 C304 1.080 . S
C860 C208 1.080 . S
C885 C326 1.080 . S
C890 C238 1.080 . S
C915 C338 1.080 . S
C920 C252 1.080 . S
C945 C448 1.094 . S
C950 C362 1.094 . S
C975 C472 1.094 . S
C980 C382 1.094 . S
C1005 C502 1.094 . S
C1010 C414 1.094 . S
C1035 C524 1.094 . S
C1040 C426 1.094 . S
C1065 C634 1.080 . S
C1070 C546 1.080 . S
C1095 C656 1.080 . S
C1100 C558 1.080 . S
C1125 C590 1.080 . S
C1130 C678 1.080 . S
C1155 C690 1.080 . S
C1160 C604 1.080 . S
C1185 C18 1.349 . S
C1190 C285 1.335 . S
C1215 C645 1.335 . S
C1220 C32 1.349 . S
C1245 C52 1.349 . S
C1250 C315 1.335 . S
C1275 C84 1.349 . S
C1280 C703 1.335 . S
C1305 C183 1.335 . S
C1310 C98 1.349 . S
C1335 C118 1.349 . S
C1340 C571 1.335 . S
C1365 C227 1.335 . S
C1370 C140 1.349 . S
C1395 C609 1.335 . S
C1400 C162 1.349 . S
C1425 C109 1.324 . S
C1430 C186 1.340 . S
C1455 C206 1.340 . S
C1460 C477 1.324 . S
C1485 C139 1.324 . S
C1490 C230 1.340 . S
C1515 C513 1.324 . S
C1520 C250 1.340 . S
C1545 C15 1.324 . S
C1550 C282 1.340 . S
C1575 C296 1.340 . S
C1580 C395 1.324 . S
C1605 C318 1.340 . S
C1610 C51 1.324 . S
C1635 C439 1.324 . S
C1640 C348 1.340 . S
C1665 C623 1.335 . S
C1670 C370 1.349 . S
C1695 C384 1.349 . S
C1700 C293 1.335 . S
C1725 C404 1.349 . S
C1730 C667 1.335 . S
C1755 C428 1.349 . S
C1760 C351 1.335 . S
C1785 C535 1.335 . S
C1790 C450 1.349 . S
C1815 C480 1.349 . S
C1820 C213 1.335 . S
C1845 C579 1.335 . S
C1850 C492 1.349 . S
C1875 C257 1.335 . S
C1880 C514 1.349 . S
C1905 C461 1.324 . S
C1910 C538 1.340 . S
C1935 C117 1.324 . S
C1940 C568 1.340 . S
C1965 C491 1.324 . S
C1970 C582 1.340 . S
C1995 C161 1.324 . S
C2000 C602 1.340 . S
C2025 C367 1.324 . S
C2030 C626 1.340 . S
C2055 C43 1.324 . S
C2060 C648 1.340 . S
C2085 C403 1.324 . S
C2090 C670 1.340 . S
C2115 C81 1.324 . S
C2120 C700 1.340 . S
C2145 C615 1.473 . S
C2150 C21 1.456 . S
C2175 C29 1.456 . S
C2180 C191 1.473 1_455 S
C2205 C557 1.473 . S
C2210 C59 1.456 . S
C2235 C87 1.456 . S
C2240 C235 1.473 . S
C2265 C653 1.473 . S
C2270 C95 1.456 . S
C2295 C323 1.473 . S
C2300 C125 1.456 . S
C2325 C689 1.473 . S
C2330 C147 1.456 . S
C2355 C169 1.456 . S
C2360 C271 1.473 1_455 S
C2385 C197 1.460 . S
C2390 C433 1.482 . S
C2415 C205 1.460 . S
C2420 C7 1.482 1_655 S
C2445 C389 1.482 . S
C2450 C241 1.460 . S
C2475 C65 1.482 . S
C2480 C249 1.460 . S
C2505 C279 1.460 . S
C2510 C469 1.482 . S
C2535 C307 1.460 . S
C2540 C153 1.482 . S
C2565 C527 1.482 . S
C2570 C329 1.460 . S
C2595 C103 1.482 1_655 S
C2600 C345 1.460 . S
C2625 C263 1.473 . S
C2630 C373 1.456 . S
C2655 C381 1.456 . S
C2660 C543 1.473 . S
C2685 C219 1.473 . S
C2690 C411 1.456 . S
C2715 C587 1.473 1_655 S
C2720 C425 1.456 . S
C2745 C301 1.473 . S
C2750 C447 1.456 . S
C2775 C483 1.456 . S
C2780 C675 1.473 1_655 S
C2805 C499 1.456 . S
C2810 C337 1.473 . S
C2835 C631 1.473 . S
C2840 C521 1.456 . S
C2865 C73 1.482 . S
C2870 C549 1.460 . S
C2895 C359 1.482 . S
C2900 C565 1.460 . S
C2925 C593 1.460 . S
C2930 C37 1.482 . S
C2955 C601 1.460 . S
C2960 C417 1.482 1_455 S
C2985 C131 1.482 . S
C2990 C637 1.460 . S
C3015 C505 1.482 1_455 S
C3020 C659 1.460 . S
C3045 C681 1.460 . S
C3050 C175 1.482 . S
C3075 C455 1.482 . S
C3080 C697 1.460 . S
C3105 C164 0.754 . S
C3110 C8 0.754 . S
C3135 C40 0.754 . S
C3140 C106 0.754 . S
C3165 C54 0.754 . S
C3170 C120 0.754 . S
C3195 C142 0.754 . S
C3200 C74 0.754 . S
C3225 C184 0.771 . S
C3230 C340 0.771 . S
C3255 C274 0.771 . S
C3260 C216 0.771 . S
C3285 C294 0.771 . S
C3290 C228 0.771 . S
C3315 C260 0.771 . S
C3320 C316 0.771 . S
C3345 C360 0.754 . S
C3350 C516 0.754 . S
C3375 C458 0.754 . S
C3380 C392 0.754 . S
C3405 C470 0.754 . S
C3410 C406 0.754 . S
C3435 C494 0.754 . S
C3440 C436 0.754 . S
C3465 C536 0.771 . S
C3470 C692 0.771 . S
C3495 C624 0.771 . S
C3500 C560 0.771 . S
C3525 C580 0.771 . S
C3530 C646 0.771 . S
C3555 C668 0.771 . S
C3560 C612 0.771 . S
