# Generated by pormake.
# Topology whd, (6)-cn, num edge types: 1
# Building blocks:
#     Node 0, Type 0, BuildingBlock: OJICUG_clean_sbu_0, # of connection points: 6
#     Node 1, Type 0, BuildingBlock: OJICUG_clean_sbu_0, # of connection points: 6
#     Node 2, Type 0, BuildingBlock: OJICUG_clean_sbu_0, # of connection points: 6
#     Node 3, Type 0, BuildingBlock: OJICUG_clean_sbu_0, # of connection points: 6
#     Node 4, Type 0, BuildingBlock: OJICUG_clean_sbu_0, # of connection points: 6
#     Node 5, Type 0, BuildingBlock: OJICUG_clean_sbu_0, # of connection points: 6
#     Node 6, Type 0, BuildingBlock: OJICUG_clean_sbu_0, # of connection points: 6
#     Node 7, Type 0, BuildingBlock: OJICUG_clean_sbu_0, # of connection points: 6
#     Node 8, Type 0, BuildingBlock: OJICUG_clean_sbu_0, # of connection points: 6
#     Node 9, Type 0, BuildingBlock: OJICUG_clean_sbu_0, # of connection points: 6
#     Node 10, Type 0, BuildingBlock: OJICUG_clean_sbu_0, # of connection points: 6
#     Node 11, Type 0, BuildingBlock: OJICUG_clean_sbu_0, # of connection points: 6
#     Node 12, Type 0, BuildingBlock: OJICUG_clean_sbu_0, # of connection points: 6
#     Node 13, Type 0, BuildingBlock: OJICUG_clean_sbu_0, # of connection points: 6
#     Node 14, Type 0, BuildingBlock: OJICUG_clean_sbu_0, # of connection points: 6
#     Node 15, Type 0, BuildingBlock: OJICUG_clean_sbu_0, # of connection points: 6
#     Edge 16, Type (0, 0), BuildingBlock: XUDNAN_clean_linker_2, # of connection points: 2
#     Edge 17, Type (0, 0), BuildingBlock: XUDNAN_clean_linker_2, # of connection points: 2
#     Edge 18, Type (0, 0), BuildingBlock: XUDNAN_clean_linker_2, # of connection points: 2
#     Edge 19, Type (0, 0), BuildingBlock: XUDNAN_clean_linker_2, # of connection points: 2
#     Edge 20, Type (0, 0), BuildingBlock: XUDNAN_clean_linker_2, # of connection points: 2
#     Edge 21, Type (0, 0), BuildingBlock: XUDNAN_clean_linker_2, # of connection points: 2
#     Edge 22, Type (0, 0), BuildingBlock: XUDNAN_clean_linker_2, # of connection points: 2
#     Edge 23, Type (0, 0), BuildingBlock: XUDNAN_clean_linker_2, # of connection points: 2
#     Edge 24, Type (0, 0), BuildingBlock: XUDNAN_clean_linker_2, # of connection points: 2
#     Edge 25, Type (0, 0), BuildingBlock: XUDNAN_clean_linker_2, # of connection points: 2
#     Edge 26, Type (0, 0), BuildingBlock: XUDNAN_clean_linker_2, # of connection points: 2
#     Edge 27, Type (0, 0), BuildingBlock: XUDNAN_clean_linker_2, # of connection points: 2
#     Edge 28, Type (0, 0), BuildingBlock: XUDNAN_clean_linker_2, # of connection points: 2
#     Edge 29, Type (0, 0), BuildingBlock: XUDNAN_clean_linker_2, # of connection points: 2
#     Edge 30, Type (0, 0), BuildingBlock: XUDNAN_clean_linker_2, # of connection points: 2
#     Edge 31, Type (0, 0), BuildingBlock: XUDNAN_clean_linker_2, # of connection points: 2
#     Edge 32, Type (0, 0), BuildingBlock: XUDNAN_clean_linker_2, # of connection points: 2
#     Edge 33, Type (0, 0), BuildingBlock: XUDNAN_clean_linker_2, # of connection points: 2
#     Edge 34, Type (0, 0), BuildingBlock: XUDNAN_clean_linker_2, # of connection points: 2
#     Edge 35, Type (0, 0), BuildingBlock: XUDNAN_clean_linker_2, # of connection points: 2
#     Edge 36, Type (0, 0), BuildingBlock: XUDNAN_clean_linker_2, # of connection points: 2
#     Edge 37, Type (0, 0), BuildingBlock: XUDNAN_clean_linker_2, # of connection points: 2
#     Edge 38, Type (0, 0), BuildingBlock: XUDNAN_clean_linker_2, # of connection points: 2
#     Edge 39, Type (0, 0), BuildingBlock: XUDNAN_clean_linker_2, # of connection points: 2
#     Edge 40, Type (0, 0), BuildingBlock: XUDNAN_clean_linker_2, # of connection points: 2
#     Edge 41, Type (0, 0), BuildingBlock: XUDNAN_clean_linker_2, # of connection points: 2
#     Edge 42, Type (0, 0), BuildingBlock: XUDNAN_clean_linker_2, # of connection points: 2
#     Edge 43, Type (0, 0), BuildingBlock: XUDNAN_clean_linker_2, # of connection points: 2
#     Edge 44, Type (0, 0), BuildingBlock: XUDNAN_clean_linker_2, # of connection points: 2
#     Edge 45, Type (0, 0), BuildingBlock: XUDNAN_clean_linker_2, # of connection points: 2
#     Edge 46, Type (0, 0), BuildingBlock: XUDNAN_clean_linker_2, # of connection points: 2
#     Edge 47, Type (0, 0), BuildingBlock: XUDNAN_clean_linker_2, # of connection points: 2
#     Edge 48, Type (0, 0), BuildingBlock: XUDNAN_clean_linker_2, # of connection points: 2
#     Edge 49, Type (0, 0), BuildingBlock: XUDNAN_clean_linker_2, # of connection points: 2
#     Edge 50, Type (0, 0), BuildingBlock: XUDNAN_clean_linker_2, # of connection points: 2
#     Edge 51, Type (0, 0), BuildingBlock: XUDNAN_clean_linker_2, # of connection points: 2
#     Edge 52, Type (0, 0), BuildingBlock: XUDNAN_clean_linker_2, # of connection points: 2
#     Edge 53, Type (0, 0), BuildingBlock: XUDNAN_clean_linker_2, # of connection points: 2
#     Edge 54, Type (0, 0), BuildingBlock: XUDNAN_clean_linker_2, # of connection points: 2
#     Edge 55, Type (0, 0), BuildingBlock: XUDNAN_clean_linker_2, # of connection points: 2
#     Edge 56, Type (0, 0), BuildingBlock: XUDNAN_clean_linker_2, # of connection points: 2
#     Edge 57, Type (0, 0), BuildingBlock: XUDNAN_clean_linker_2, # of connection points: 2
#     Edge 58, Type (0, 0), BuildingBlock: XUDNAN_clean_linker_2, # of connection points: 2
#     Edge 59, Type (0, 0), BuildingBlock: XUDNAN_clean_linker_2, # of connection points: 2
#     Edge 60, Type (0, 0), BuildingBlock: XUDNAN_clean_linker_2, # of connection points: 2
#     Edge 61, Type (0, 0), BuildingBlock: XUDNAN_clean_linker_2, # of connection points: 2
#     Edge 62, Type (0, 0), BuildingBlock: XUDNAN_clean_linker_2, # of connection points: 2
#     Edge 63, Type (0, 0), BuildingBlock: XUDNAN_clean_linker_2, # of connection points: 2
# Relax obj value: 0.256
# Max RMSD: 0.229
# Mean RMSD: 0.229
data_MOF--net-whd--node1-OJICUG_clean_sbu_0--edge1-XUDNAN_clean_linker_2
_symmetry_space_group_name_H-M    P1
_symmetry_Int_Tables_number       1
_symmetry_cell_setting            triclinic
loop_
_symmetry_equiv_pos_as_xyz
'x, y, z'
_cell_length_a     51.922291
_cell_length_b     51.894173
_cell_length_c     30.608359
_cell_angle_alpha  89.97559
_cell_angle_beta   90.03244
_cell_angle_gamma 90.026328
loop_
_atom_site_label
_atom_site_type_symbol
_atom_site_fract_x
_atom_site_fract_y
_atom_site_fract_z
_atom_type_partial_charge
Sc0 Sc 0.16337 0.34691 0.33694 0.0
Sc1 Sc 0.19265 0.40613 0.31193 0.0
Sc2 Sc 0.15093 0.40147 0.40078 0.0
O3 O 0.16881 0.38477 0.34976 0.0
C4 C 0.10708 0.36517 0.36491 0.0
C5 C 0.16735 0.36835 0.24128 0.0
C6 C 0.1477 0.4449 0.32642 0.0
C7 C 0.22402 0.3552 0.32393 0.0
C8 C 0.1655 0.34633 0.4401 0.0
C9 C 0.20395 0.42956 0.40594 0.0
O10 O 0.12281 0.34869 0.34978 0.0
O11 O 0.18238 0.38628 0.25325 0.0
O12 O 0.14344 0.43632 0.3647 0.0
O13 O 0.20365 0.34154 0.32476 0.0
O14 O 0.15704 0.3692 0.44311 0.0
O15 O 0.2065 0.42965 0.36476 0.0
O16 O 0.1703 0.33551 0.40377 0.0
O17 O 0.22391 0.3797 0.32258 0.0
O18 O 0.18639 0.41707 0.42546 0.0
O19 O 0.15572 0.35378 0.26824 0.0
O20 O 0.11383 0.38677 0.38086 0.0
O21 O 0.16277 0.43389 0.29948 0.0
Sc22 Sc 0.34505 0.83992 0.62122 0.0
Sc23 Sc 0.38778 0.8004 0.68062 0.0
Sc24 Sc 0.41177 0.8454 0.60442 0.0
O25 O 0.38156 0.82857 0.63537 0.0
C26 C 0.37078 0.83649 0.52755 0.0
C27 C 0.337 0.77972 0.63572 0.0
C28 C 0.4284 0.78593 0.60838 0.0
C29 C 0.34559 0.83671 0.72523 0.0
C30 C 0.37453 0.89344 0.61349 0.0
C31 C 0.43398 0.83959 0.70033 0.0
O32 O 0.35118 0.83545 0.55241 0.0
O33 O 0.35726 0.77621 0.65792 0.0
O34 O 0.43027 0.80895 0.59462 0.0
O35 O 0.33684 0.84598 0.68964 0.0
O36 O 0.39704 0.88407 0.61111 0.0
O37 O 0.4195 0.82063 0.70951 0.0
O38 O 0.35445 0.87977 0.61683 0.0
O39 O 0.36313 0.81959 0.7267 0.0
O40 O 0.43291 0.85146 0.66405 0.0
O41 O 0.33016 0.80158 0.62157 0.0
O42 O 0.39359 0.84044 0.54142 0.0
O43 O 0.41306 0.77891 0.63837 0.0
Sc44 Sc 0.81038 0.642 0.33127 0.0
Sc45 Sc 0.7835 0.5808 0.31028 0.0
Sc46 Sc 0.83698 0.58737 0.38064 0.0
O47 O 0.81027 0.60334 0.34065 0.0
C48 C 0.87067 0.62976 0.33402 0.0
C49 C 0.79951 0.62089 0.23563 0.0
C50 C 0.83345 0.54579 0.30392 0.0
C51 C 0.75009 0.62937 0.33471 0.0
C52 C 0.82181 0.63879 0.43247 0.0
C53 C 0.78634 0.5559 0.40533 0.0
O54 O 0.85165 0.64473 0.32812 0.0
O55 O 0.78828 0.60059 0.24907 0.0
O56 O 0.84424 0.55585 0.33701 0.0
O57 O 0.7693 0.64449 0.33443 0.0
O58 O 0.8332 0.61719 0.42913 0.0
O59 O 0.77582 0.55872 0.36816 0.0
O60 O 0.81078 0.64985 0.40046 0.0
O61 O 0.75191 0.60535 0.32794 0.0
O62 O 0.80797 0.56585 0.41529 0.0
O63 O 0.80991 0.63729 0.26107 0.0
O64 O 0.86847 0.60721 0.34969 0.0
O65 O 0.81179 0.5532 0.28923 0.0
Sc66 Sc 0.64034 0.16257 0.65882 0.0
Sc67 Sc 0.58308 0.19727 0.67793 0.0
Sc68 Sc 0.58532 0.14947 0.59581 0.0
O69 O 0.60293 0.16981 0.64412 0.0
C70 C 0.64088 0.15847 0.55494 0.0
C71 C 0.63715 0.224 0.66434 0.0
C72 C 0.5623 0.20561 0.58132 0.0
C73 C 0.61699 0.17165 0.7536 0.0
C74 C 0.6184 0.10615 0.64226 0.0
C75 C 0.54212 0.15212 0.6699 0.0
O76 O 0.65214 0.16296 0.59101 0.0
O77 O 0.61294 0.22546 0.66967 0.0
O78 O 0.56948 0.18377 0.56719 0.0
O79 O 0.63323 0.16113 0.72825 0.0
O80 O 0.59952 0.11309 0.61875 0.0
O81 O 0.55151 0.17155 0.68951 0.0
O82 O 0.63464 0.12172 0.65853 0.0
O83 O 0.59867 0.18569 0.73991 0.0
O84 O 0.55167 0.14274 0.63516 0.0
O85 O 0.64924 0.20279 0.66114 0.0
O86 O 0.61712 0.15311 0.55179 0.0
O87 O 0.56459 0.21259 0.6208 0.0
Sc88 Sc 0.14011 0.58563 0.61645 0.0
Sc89 Sc 0.19161 0.59071 0.69112 0.0
Sc90 Sc 0.14939 0.64326 0.67388 0.0
O91 O 0.16035 0.60647 0.66062 0.0
C92 C 0.14166 0.64024 0.5701 0.0
C93 C 0.19699 0.5656 0.59704 0.0
C94 C 0.21045 0.64656 0.66469 0.0
C95 C 0.14992 0.54585 0.69429 0.0
C96 C 0.09522 0.61605 0.66582 0.0
C97 C 0.16746 0.6244 0.76823 0.0
O98 O 0.14117 0.61578 0.56854 0.0
O99 O 0.20591 0.57154 0.63419 0.0
O100 O 0.18802 0.65631 0.66539 0.0
O101 O 0.13752 0.55389 0.66112 0.0
O102 O 0.10977 0.63329 0.6818 0.0
O103 O 0.18229 0.60714 0.75328 0.0
O104 O 0.10337 0.59825 0.64095 0.0
O105 O 0.16998 0.55683 0.70943 0.0
O106 O 0.15367 0.63864 0.74386 0.0
O107 O 0.17388 0.57001 0.58586 0.0
O108 O 0.14336 0.65275 0.60573 0.0
O109 O 0.21535 0.62316 0.6738 0.0
Sc110 Sc 0.5714 0.84123 0.38268 0.0
Sc111 Sc 0.57184 0.79186 0.30352 0.0
Sc112 Sc 0.62997 0.82066 0.33827 0.0
O113 O 0.59105 0.81793 0.34138 0.0
C114 C 0.61361 0.87963 0.34342 0.0
C115 C 0.53462 0.84068 0.29953 0.0
C116 C 0.61457 0.81229 0.2386 0.0
C117 C 0.5433 0.78674 0.39435 0.0
C118 C 0.62037 0.8277 0.44021 0.0
C119 C 0.62132 0.76019 0.33398 0.0
O120 O 0.59272 0.87492 0.36357 0.0
O121 O 0.5421 0.81875 0.28629 0.0
O122 O 0.63046 0.81764 0.26871 0.0
O123 O 0.54875 0.8096 0.40606 0.0
O124 O 0.63468 0.82353 0.40746 0.0
O125 O 0.5993 0.76165 0.31603 0.0
O126 O 0.59677 0.83372 0.4367 0.0
O127 O 0.54998 0.77717 0.3579 0.0
O128 O 0.63425 0.77987 0.34537 0.0
O129 O 0.54376 0.85157 0.33329 0.0
O130 O 0.62897 0.862 0.33098 0.0
O131 O 0.59188 0.8041 0.24557 0.0
Sc132 Sc 0.84749 0.39833 0.60292 0.0
Sc133 Sc 0.80915 0.39776 0.69666 0.0
Sc134 Sc 0.83744 0.34054 0.65801 0.0
O135 O 0.83136 0.37881 0.65268 0.0
C136 C 0.83334 0.34521 0.5561 0.0
C137 C 0.79298 0.42322 0.60566 0.0
C138 C 0.77758 0.34694 0.68047 0.0
C139 C 0.8506 0.43963 0.68064 0.0
C140 C 0.89312 0.36256 0.63317 0.0
C141 C 0.83942 0.35782 0.75697 0.0
O142 O 0.84256 0.36784 0.55639 0.0
O143 O 0.79192 0.42209 0.64714 0.0
O144 O 0.79759 0.33355 0.67265 0.0
O145 O 0.85368 0.43259 0.64124 0.0
O146 O 0.87789 0.34432 0.6436 0.0
O147 O 0.82385 0.37647 0.75191 0.0
O148 O 0.88525 0.38463 0.62066 0.0
O149 O 0.83825 0.42625 0.70834 0.0
O150 O 0.84745 0.34405 0.72557 0.0
O151 O 0.81059 0.41257 0.58322 0.0
O152 O 0.8283 0.33285 0.5908 0.0
O153 O 0.7782 0.37101 0.68789 0.0
Sc154 Sc 0.4087 0.14671 0.38929 0.0
Sc155 Sc 0.40332 0.18936 0.29988 0.0
Sc156 Sc 0.34809 0.15994 0.34513 0.0
O157 O 0.38677 0.16542 0.34475 0.0
C158 C 0.36879 0.10325 0.365 0.0
C159 C 0.44489 0.14482 0.30504 0.0
C160 C 0.36197 0.15778 0.24406 0.0
C161 C 0.43342 0.20292 0.38747 0.0
C162 C 0.35931 0.16278 0.44621 0.0
C163 C 0.35239 0.21989 0.32181 0.0
O164 O 0.39169 0.10996 0.37409 0.0
O165 O 0.43357 0.16291 0.2849 0.0
O166 O 0.34836 0.15106 0.27664 0.0
O167 O 0.42756 0.18205 0.40694 0.0
O168 O 0.3449 0.16776 0.41373 0.0
O169 O 0.37565 0.2193 0.30951 0.0
O170 O 0.38194 0.1537 0.44203 0.0
O171 O 0.42713 0.20791 0.3482 0.0
O172 O 0.34012 0.19992 0.33371 0.0
O173 O 0.43839 0.13723 0.34288 0.0
O174 O 0.35086 0.11921 0.35714 0.0
O175 O 0.38141 0.17265 0.24702 0.0
Sc176 Sc 0.65379 0.84892 0.84124 0.0
Sc177 Sc 0.69173 0.89866 0.79989 0.0
Sc178 Sc 0.64107 0.91208 0.8709 0.0
O179 O 0.66203 0.88653 0.83704 0.0
C180 C 0.59808 0.87516 0.83816 0.0
C181 C 0.66801 0.85288 0.74301 0.0
C182 C 0.65112 0.94044 0.77964 0.0
C183 C 0.71506 0.85089 0.84624 0.0
C184 C 0.64584 0.86551 0.93789 0.0
C185 C 0.69633 0.93411 0.88381 0.0
O186 O 0.61266 0.85552 0.84125 0.0
O187 O 0.68529 0.86969 0.75046 0.0
O188 O 0.6432 0.94034 0.81903 0.0
O189 O 0.69391 0.83853 0.84401 0.0
O190 O 0.63645 0.8873 0.92749 0.0
O191 O 0.70264 0.92921 0.84454 0.0
O192 O 0.65545 0.85006 0.91043 0.0
O193 O 0.71774 0.87408 0.83402 0.0
O194 O 0.6753 0.92659 0.9007 0.0
O195 O 0.65209 0.84531 0.77169 0.0
O196 O 0.60594 0.89818 0.84271 0.0
O197 O 0.66675 0.92389 0.76454 0.0
Sc198 Sc 0.85848 0.3263 0.1586 0.0
Sc199 Sc 0.90455 0.28113 0.19699 0.0
Sc200 Sc 0.92448 0.33785 0.14441 0.0
O201 O 0.89578 0.3151 0.16686 0.0
C202 C 0.88332 0.34095 0.0672 0.0
C203 C 0.85599 0.26563 0.1402 0.0
C204 C 0.94497 0.28199 0.11954 0.0
C205 C 0.8577 0.30266 0.25423 0.0
C206 C 0.88595 0.37987 0.18108 0.0
C207 C 0.94695 0.31878 0.23594 0.0
O208 O 0.86391 0.33441 0.08996 0.0
O209 O 0.87737 0.26034 0.15817 0.0
O210 O 0.9432 0.3061 0.11371 0.0
O211 O 0.84972 0.31895 0.22626 0.0
O212 O 0.90844 0.37202 0.17204 0.0
O213 O 0.93284 0.29882 0.23892 0.0
O214 O 0.86601 0.36589 0.17643 0.0
O215 O 0.87641 0.28741 0.24734 0.0
O216 O 0.94636 0.33387 0.2033 0.0
O217 O 0.84632 0.28815 0.13993 0.0
O218 O 0.9057 0.34389 0.08312 0.0
O219 O 0.93335 0.27003 0.14981 0.0
Sc220 Sc 0.33533 0.13056 0.84667 0.0
Sc221 Sc 0.28877 0.08858 0.80109 0.0
Sc222 Sc 0.34148 0.06382 0.86011 0.0
O223 O 0.32185 0.09436 0.83587 0.0
C224 C 0.3868 0.09951 0.82585 0.0
C225 C 0.31512 0.13492 0.7489 0.0
C226 C 0.32504 0.04439 0.76507 0.0
C227 C 0.27471 0.13639 0.86086 0.0
C228 C 0.34611 0.10394 0.93846 0.0
C229 C 0.28337 0.04749 0.87734 0.0
O230 O 0.37405 0.12024 0.83007 0.0
O231 O 0.29862 0.11701 0.75288 0.0
O232 O 0.33785 0.04284 0.80031 0.0
O233 O 0.2978 0.14424 0.86453 0.0
O234 O 0.34726 0.08134 0.9228 0.0
O235 O 0.27396 0.05974 0.84523 0.0
O236 O 0.34186 0.12374 0.91514 0.0
O237 O 0.26837 0.11648 0.83924 0.0
O238 O 0.3071 0.04776 0.88723 0.0
O239 O 0.33051 0.14146 0.7792 0.0
O240 O 0.37766 0.07747 0.83508 0.0
O241 O 0.30666 0.06025 0.75963 0.0
Sc242 Sc 0.13794 0.66586 0.17523 0.0
Sc243 Sc 0.08601 0.70908 0.1876 0.0
Sc244 Sc 0.07616 0.64822 0.13897 0.0
O245 O 0.10001 0.6744 0.16729 0.0
C246 C 0.12645 0.64393 0.07973 0.0
C247 C 0.14046 0.72485 0.14761 0.0
C248 C 0.05674 0.70141 0.09776 0.0
C249 C 0.12366 0.69314 0.26551 0.0
C250 C 0.11138 0.61237 0.1981 0.0
C251 C 0.04029 0.67085 0.21401 0.0
O252 O 0.14181 0.65142 0.10951 0.0
O253 O 0.11785 0.73001 0.16068 0.0
O254 O 0.05864 0.67704 0.09922 0.0
O255 O 0.13785 0.67898 0.24172 0.0
O256 O 0.09119 0.61625 0.1757 0.0
O257 O 0.05229 0.69215 0.21601 0.0
O258 O 0.12961 0.6285 0.20139 0.0
O259 O 0.10433 0.70546 0.25076 0.0
O260 O 0.04705 0.65256 0.18883 0.0
O261 O 0.15039 0.70257 0.15067 0.0
O262 O 0.1023 0.64186 0.08545 0.0
O263 O 0.06578 0.71619 0.1271 0.0
Sc264 Sc 0.65251 0.07325 0.12015 0.0
Sc265 Sc 0.70664 0.08506 0.1867 0.0
Sc266 Sc 0.66475 0.1359 0.1576 0.0
O267 O 0.67469 0.09805 0.15483 0.0
C268 C 0.64922 0.12216 0.05894 0.0
C269 C 0.7092 0.05344 0.09843 0.0
C270 C 0.72497 0.13795 0.14257 0.0
C271 C 0.66616 0.0404 0.20514 0.0
C272 C 0.61105 0.108 0.16972 0.0
C273 C 0.68643 0.12678 0.25413 0.0
O274 O 0.65033 0.09786 0.06339 0.0
O275 O 0.72005 0.06307 0.13174 0.0
O276 O 0.70257 0.14737 0.13723 0.0
O277 O 0.6518 0.04615 0.17303 0.0
O278 O 0.62616 0.12669 0.17807 0.0
O279 O 0.69725 0.10541 0.24588 0.0
O280 O 0.61754 0.08851 0.14714 0.0
O281 O 0.68707 0.05203 0.21397 0.0
O282 O 0.67522 0.14025 0.22522 0.0
O283 O 0.68525 0.05517 0.09067 0.0
O284 O 0.65276 0.13763 0.09048 0.0
O285 O 0.72921 0.11663 0.16189 0.0
Sc286 Sc 0.07924 0.33387 0.86622 0.0
Sc287 Sc 0.09496 0.27795 0.80635 0.0
Sc288 Sc 0.14286 0.32345 0.83444 0.0
O289 O 0.10567 0.31166 0.83556 0.0
C290 C 0.11484 0.37644 0.82085 0.0
C291 C 0.05159 0.31818 0.77751 0.0
C292 C 0.13729 0.29833 0.73963 0.0
C293 C 0.05853 0.2774 0.88861 0.0
C294 C 0.12551 0.33798 0.93208 0.0
C295 C 0.14682 0.26363 0.85608 0.0
O296 O 0.09535 0.36939 0.84282 0.0
O297 O 0.06278 0.29643 0.77352 0.0
O298 O 0.1485 0.31283 0.76712 0.0
O299 O 0.0589 0.30168 0.89307 0.0
O300 O 0.1419 0.33575 0.90146 0.0
O301 O 0.12602 0.25726 0.83689 0.0
O302 O 0.10139 0.33573 0.92591 0.0
O303 O 0.07135 0.26551 0.85989 0.0
O304 O 0.15525 0.28661 0.85764 0.0
O305 O 0.05591 0.33382 0.80862 0.0
O306 O 0.13343 0.36146 0.81198 0.0
O307 O 0.11754 0.28502 0.74888 0.0
Sc308 Sc 0.33604 0.92965 0.11191 0.0
Sc309 Sc 0.2878 0.90207 0.17786 0.0
Sc310 Sc 0.3317 0.86214 0.12163 0.0
O311 O 0.31847 0.89796 0.13709 0.0
C312 C 0.33481 0.89126 0.0302 0.0
C313 C 0.2763 0.94432 0.10615 0.0
C314 C 0.27128 0.85301 0.12197 0.0
C315 C 0.32403 0.94844 0.20872 0.0
C316 C 0.384 0.89374 0.13343 0.0
C317 C 0.32084 0.85772 0.22373 0.0
O318 O 0.33616 0.91377 0.04657 0.0
O319 O 0.26829 0.9282 0.13422 0.0
O320 O 0.29385 0.84664 0.11036 0.0
O321 O 0.33742 0.94898 0.174 0.0
O322 O 0.37111 0.87298 0.13167 0.0
O323 O 0.30453 0.87603 0.22496 0.0
O324 O 0.3741 0.91572 0.12644 0.0
O325 O 0.30517 0.93314 0.21397 0.0
O326 O 0.33158 0.85021 0.1887 0.0
O327 O 0.29987 0.94721 0.09616 0.0
O328 O 0.33342 0.87096 0.05329 0.0
O329 O 0.26656 0.87204 0.1466 0.0
Sc330 Sc 0.89093 0.64218 0.86579 0.0
Sc331 Sc 0.88861 0.69967 0.80765 0.0
Sc332 Sc 0.83259 0.66594 0.83062 0.0
O333 O 0.87082 0.66955 0.83509 0.0
C334 C 0.85051 0.61049 0.81119 0.0
C335 C 0.9254 0.65217 0.78483 0.0
C336 C 0.84671 0.68828 0.73737 0.0
C337 C 0.92184 0.69378 0.89052 0.0
C338 C 0.84429 0.64601 0.92735 0.0
C339 C 0.83919 0.72366 0.85385 0.0
O340 O 0.86576 0.61142 0.84373 0.0
O341 O 0.92051 0.67625 0.78531 0.0
O342 O 0.82987 0.68352 0.76639 0.0
O343 O 0.91903 0.66939 0.8902 0.0
O344 O 0.82939 0.64777 0.89438 0.0
O345 O 0.85851 0.72592 0.82838 0.0
O346 O 0.86863 0.64756 0.92403 0.0
O347 O 0.9087 0.70886 0.86674 0.0
O348 O 0.82829 0.70225 0.86202 0.0
O349 O 0.91375 0.6359 0.80874 0.0
O350 O 0.83767 0.62986 0.79827 0.0
O351 O 0.87028 0.69181 0.74641 0.0
H352 H 0.13756 0.46423 0.24464 0.0
H353 H 0.13476 0.48322 0.38272 0.0
H354 H 0.12214 0.52764 0.36452 0.0
H355 H 0.1644 0.52163 0.20839 0.0
H356 H 0.14574 0.52407 0.15888 0.0
H357 H 0.15214 0.49295 0.18242 0.0
H358 H 0.10321 0.48326 0.18536 0.0
H359 H 0.09663 0.51431 0.16141 0.0
H360 H 0.08195 0.5055 0.21264 0.0
H361 H 0.11591 0.57087 0.3319 0.0
H362 H 0.11183 0.60994 0.28596 0.0
H363 H 0.11527 0.56286 0.16922 0.0
C364 C 0.13376 0.47763 0.27097 0.0
C365 C 0.137 0.4703 0.31503 0.0
C366 C 0.13204 0.48835 0.34872 0.0
C367 C 0.12494 0.51365 0.33875 0.0
C368 C 0.12238 0.52042 0.29499 0.0
C369 C 0.12614 0.50288 0.26161 0.0
C370 C 0.12292 0.51546 0.21731 0.0
C371 C 0.14779 0.51341 0.19018 0.0
C372 C 0.0998 0.50395 0.19274 0.0
C373 C 0.11772 0.54298 0.23107 0.0
C374 C 0.11754 0.54538 0.27607 0.0
C375 C 0.11537 0.56921 0.29667 0.0
C376 C 0.11321 0.5912 0.2705 0.0
C377 C 0.1129 0.58902 0.22451 0.0
C378 C 0.11493 0.5647 0.20447 0.0
H379 H 0.47347 0.87438 0.68981 0.0
H380 H 0.44046 0.82035 0.7828 0.0
H381 H 0.47721 0.82737 0.83201 0.0
H382 H 0.53638 0.8546 0.70088 0.0
H383 H 0.55081 0.88609 0.69671 0.0
H384 H 0.52022 0.87989 0.6712 0.0
H385 H 0.49977 0.91786 0.71392 0.0
H386 H 0.53043 0.92435 0.73933 0.0
H387 H 0.50234 0.91878 0.77264 0.0
H388 H 0.5202 0.83421 0.86491 0.0
H389 H 0.56564 0.84402 0.8829 0.0
H390 H 0.56997 0.89557 0.77175 0.0
C391 C 0.4736 0.86454 0.72102 0.0
C392 C 0.45409 0.84674 0.73229 0.0
C393 C 0.45519 0.83402 0.77326 0.0
C394 C 0.47596 0.83792 0.80158 0.0
C395 C 0.49529 0.85486 0.78878 0.0
C396 C 0.49416 0.8683 0.74983 0.0
C397 C 0.51839 0.88397 0.74252 0.0
C398 C 0.53225 0.87562 0.70035 0.0
C399 C 0.51237 0.91296 0.74209 0.0
C400 C 0.53363 0.87651 0.78273 0.0
C401 C 0.51991 0.8597 0.80898 0.0
C402 C 0.53091 0.8479 0.84539 0.0
C403 C 0.55665 0.85343 0.8552 0.0
C404 C 0.5708 0.87081 0.82904 0.0
C405 C 0.55911 0.88277 0.79279 0.0
H406 H 0.8413 0.40764 0.19212 0.0
H407 H 0.92431 0.41196 0.20912 0.0
H408 H 0.91993 0.45579 0.23881 0.0
H409 H 0.83226 0.47442 0.15978 0.0
H410 H 0.8022 0.47762 0.18871 0.0
H411 H 0.81179 0.44671 0.16746 0.0
H412 H 0.8073 0.42665 0.24468 0.0
H413 H 0.79764 0.45745 0.26615 0.0
H414 H 0.82468 0.44069 0.28979 0.0
H415 H 0.90664 0.49789 0.27042 0.0
H416 H 0.88503 0.53627 0.30083 0.0
H417 H 0.81093 0.50546 0.26091 0.0
C418 C 0.85858 0.41782 0.2019 0.0
C419 C 0.88314 0.40633 0.1982 0.0
C420 C 0.90527 0.42036 0.21139 0.0
C421 C 0.90302 0.44529 0.22832 0.0
C422 C 0.87855 0.45601 0.23153 0.0
C423 C 0.85672 0.44283 0.21856 0.0
C424 C 0.83267 0.45865 0.22629 0.0
C425 C 0.81893 0.46471 0.18297 0.0
C426 C 0.81451 0.44505 0.25865 0.0
C427 C 0.84442 0.48265 0.24609 0.0
C428 C 0.87091 0.48069 0.24886 0.0
C429 C 0.88594 0.49982 0.26804 0.0
C430 C 0.87351 0.52147 0.28528 0.0
C431 C 0.84638 0.52385 0.28283 0.0
C432 C 0.83174 0.50433 0.26247 0.0
H433 H 0.41654 0.14248 0.8163 0.0
H434 H 0.41449 0.06052 0.7877 0.0
H435 H 0.45448 0.06492 0.74463 0.0
H436 H 0.43715 0.16265 0.71267 0.0
H437 H 0.45762 0.18811 0.73268 0.0
H438 H 0.42992 0.17825 0.76381 0.0
H439 H 0.45885 0.1694 0.83132 0.0
H440 H 0.48662 0.17963 0.80064 0.0
H441 H 0.48622 0.14827 0.82597 0.0
H442 H 0.49251 0.0792 0.69948 0.0
H443 H 0.52847 0.10142 0.66219 0.0
H444 H 0.50557 0.17358 0.72237 0.0
C445 C 0.42467 0.12534 0.80158 0.0
C446 C 0.41244 0.10116 0.80539 0.0
C447 C 0.42369 0.07921 0.78555 0.0
C448 C 0.44629 0.08154 0.7608 0.0
C449 C 0.4574 0.10586 0.75669 0.0
C450 C 0.44717 0.12728 0.77708 0.0
C451 C 0.46243 0.15133 0.76692 0.0
C452 C 0.44578 0.17125 0.74257 0.0
C453 C 0.47424 0.16282 0.8087 0.0
C454 C 0.48284 0.14014 0.73744 0.0
C455 C 0.47951 0.11394 0.73155 0.0
C456 C 0.49549 0.09965 0.70421 0.0
C457 C 0.5157 0.11245 0.68297 0.0
C458 C 0.51979 0.13915 0.68966 0.0
C459 C 0.50304 0.1531 0.71706 0.0
H460 H 0.17774 0.50564 0.72757 0.0
H461 H 0.09988 0.53391 0.7089 0.0
H462 H 0.08259 0.49418 0.74232 0.0
H463 H 0.16341 0.44079 0.69832 0.0
H464 H 0.18528 0.42657 0.7372 0.0
H465 H 0.19176 0.45815 0.71542 0.0
H466 H 0.19396 0.47674 0.79396 0.0
H467 H 0.18758 0.44517 0.81598 0.0
H468 H 0.1672 0.47193 0.83059 0.0
H469 H 0.07375 0.45171 0.7763 0.0
H470 H 0.07354 0.40746 0.80555 0.0
H471 H 0.15705 0.40531 0.79802 0.0
C472 C 0.15709 0.50354 0.73126 0.0
C473 C 0.14006 0.52275 0.71625 0.0
C474 C 0.11314 0.51928 0.72042 0.0
C475 C 0.10318 0.49689 0.73941 0.0
C476 C 0.12044 0.47811 0.75341 0.0
C477 C 0.14679 0.48103 0.74929 0.0
C478 C 0.16094 0.45711 0.76432 0.0
C479 C 0.17624 0.44494 0.72656 0.0
C480 C 0.17845 0.4631 0.80355 0.0
C481 C 0.13839 0.44034 0.77752 0.0
C482 C 0.11525 0.45298 0.77139 0.0
C483 C 0.09173 0.44157 0.78133 0.0
C484 C 0.09182 0.41649 0.79801 0.0
C485 C 0.11529 0.40302 0.80403 0.0
C486 C 0.13884 0.41513 0.79354 0.0
H487 H 0.50009 0.81947 0.24267 0.0
H488 H 0.52428 0.89251 0.29835 0.0
H489 H 0.49139 0.91502 0.25408 0.0
H490 H 0.48493 0.84275 0.13327 0.0
H491 H 0.45708 0.82223 0.12812 0.0
H492 H 0.48398 0.81218 0.16123 0.0
H493 H 0.45367 0.80636 0.22796 0.0
H494 H 0.42672 0.81602 0.1949 0.0
H495 H 0.43363 0.83287 0.24502 0.0
H496 H 0.45454 0.92917 0.2061 0.0
H497 H 0.41391 0.93327 0.1648 0.0
H498 H 0.41386 0.85067 0.14199 0.0
C499 C 0.4987 0.84024 0.24521 0.0
C500 C 0.51481 0.85427 0.27373 0.0
C501 C 0.51206 0.88138 0.27674 0.0
C502 C 0.49361 0.89435 0.25146 0.0
C503 C 0.47807 0.87989 0.22354 0.0
C504 C 0.48028 0.85341 0.22066 0.0
C505 C 0.45994 0.84206 0.19103 0.0
C506 C 0.47222 0.82904 0.15104 0.0
C507 C 0.44246 0.82323 0.21624 0.0
C508 C 0.44563 0.86626 0.17821 0.0
C509 C 0.4566 0.88795 0.19666 0.0
C510 C 0.4459 0.91235 0.19116 0.0
C511 C 0.42288 0.9145 0.16744 0.0
C512 C 0.41069 0.89229 0.15007 0.0
C513 C 0.42274 0.86804 0.15457 0.0
H514 H 0.85424 0.56058 0.83929 0.0
H515 H 0.847 0.60785 0.72293 0.0
H516 H 0.85163 0.56914 0.67677 0.0
H517 H 0.90007 0.51457 0.79717 0.0
H518 H 0.8852 0.48726 0.82342 0.0
H519 H 0.88281 0.51879 0.84775 0.0
H520 H 0.83297 0.51539 0.84811 0.0
H521 H 0.83527 0.48368 0.82467 0.0
H522 H 0.81627 0.50811 0.79794 0.0
H523 H 0.85798 0.52593 0.64358 0.0
H524 H 0.85711 0.47989 0.62465 0.0
H525 H 0.85729 0.46008 0.76257 0.0
C526 C 0.85354 0.56266 0.8041 0.0
C527 C 0.85026 0.58703 0.78451 0.0
C528 C 0.84922 0.58921 0.73844 0.0
C529 C 0.85217 0.56743 0.712 0.0
C530 C 0.8558 0.54369 0.73229 0.0
C531 C 0.85588 0.54105 0.77723 0.0
C532 C 0.85803 0.51306 0.79062 0.0
C533 C 0.88302 0.50814 0.81626 0.0
C534 C 0.83421 0.50456 0.81686 0.0
C535 C 0.85887 0.50038 0.74614 0.0
C536 C 0.85824 0.51848 0.71302 0.0
C537 C 0.85847 0.51153 0.66915 0.0
C538 C 0.85819 0.4853 0.65878 0.0
C539 C 0.85714 0.4664 0.6922 0.0
C540 C 0.8582 0.4741 0.73639 0.0
H541 H 0.5797 0.14949 0.18336 0.0
H542 H 0.58427 0.06656 0.19961 0.0
H543 H 0.54149 0.06651 0.235 0.0
H544 H 0.54834 0.16382 0.28348 0.0
H545 H 0.528 0.18856 0.26073 0.0
H546 H 0.55888 0.18197 0.23653 0.0
H547 H 0.53694 0.17419 0.16154 0.0
H548 H 0.50597 0.1808 0.18553 0.0
H549 H 0.51137 0.15081 0.1573 0.0
H550 H 0.49979 0.07612 0.27365 0.0
H551 H 0.46016 0.09438 0.3066 0.0
H552 H 0.48156 0.17018 0.25917 0.0
C553 C 0.57161 0.13135 0.19429 0.0
C554 C 0.58515 0.10806 0.18898 0.0
C555 C 0.57399 0.0846 0.20323 0.0
C556 C 0.54981 0.08438 0.22346 0.0
C557 C 0.53693 0.10772 0.22835 0.0
C558 C 0.54726 0.13071 0.2136 0.0
C559 C 0.52929 0.15303 0.22213 0.0
C560 C 0.54188 0.17301 0.25253 0.0
C561 C 0.52036 0.16543 0.17905 0.0
C562 C 0.50745 0.13907 0.24461 0.0
C563 C 0.51229 0.11298 0.24831 0.0
C564 C 0.49556 0.09645 0.27035 0.0
C565 C 0.47323 0.10693 0.28902 0.0
C566 C 0.4678 0.1335 0.28467 0.0
C567 C 0.48505 0.14966 0.262 0.0
H568 H 0.64375 0.99005 0.80381 0.0
H569 H 0.64183 0.93893 0.6918 0.0
H570 H 0.63043 0.9758 0.64405 0.0
H571 H 0.59197 0.03311 0.77065 0.0
H572 H 0.6082 0.06147 0.79057 0.0
H573 H 0.61361 0.0308 0.81659 0.0
H574 H 0.6627 0.03542 0.80432 0.0
H575 H 0.65763 0.06617 0.7786 0.0
H576 H 0.67477 0.04115 0.74994 0.0
H577 H 0.61951 0.01853 0.609 0.0
H578 H 0.61411 0.06448 0.58823 0.0
H579 H 0.62737 0.08707 0.72271 0.0
C580 C 0.64046 0.98657 0.76935 0.0
C581 C 0.64325 0.96179 0.75132 0.0
C582 C 0.63959 0.95791 0.70599 0.0
C583 C 0.63303 0.97864 0.6788 0.0
C584 C 0.63066 0.00298 0.69758 0.0
C585 C 0.63452 0.00705 0.74176 0.0
C586 C 0.63294 0.03527 0.75341 0.0
C587 C 0.61033 0.04045 0.78465 0.0
C588 C 0.65854 0.04506 0.77268 0.0
C589 C 0.62794 0.0465 0.70877 0.0
C590 C 0.6261 0.02761 0.67708 0.0
C591 C 0.62103 0.03351 0.63346 0.0
C592 C 0.61799 0.0595 0.62197 0.0
C593 C 0.62072 0.07897 0.65391 0.0
C594 C 0.62563 0.07239 0.6977 0.0
H595 H 0.06815 0.39191 0.32669 0.0
H596 H 0.08565 0.32192 0.3977 0.0
H597 H 0.04157 0.30589 0.38427 0.0
H598 H -0.0039 0.39487 0.35317 0.0
H599 H 0.98889 0.40554 0.29846 0.0
H600 H 0.01884 0.4147 0.32399 0.0
H601 H 0.04395 0.39556 0.25843 0.0
H602 H 0.01425 0.38618 0.23299 0.0
H603 H 0.03877 0.36236 0.2434 0.0
H604 H -0.00049 0.29406 0.35222 0.0
H605 H 0.96339 0.28652 0.30139 0.0
H606 H 0.97375 0.36343 0.24827 0.0
C607 C 0.06213 0.37379 0.34103 0.0
C608 C 0.07978 0.35827 0.36388 0.0
C609 C 0.07202 0.33411 0.38061 0.0
C610 C 0.04704 0.32495 0.37336 0.0
C611 C 0.03022 0.34018 0.34907 0.0
C612 C 0.03739 0.36416 0.33322 0.0
C613 C 0.01748 0.37464 0.30179 0.0
C614 C 0.00456 0.39888 0.32049 0.0
C615 C 0.02933 0.37997 0.2565 0.0
C616 C -0.00111 0.3522 0.3005 0.0
C617 C 0.00613 0.33286 0.32897 0.0
C618 C 0.99328 0.30927 0.33047 0.0
C619 C 0.97284 0.30512 0.30138 0.0
C620 C 0.96584 0.32433 0.27075 0.0
C621 C 0.97861 0.34838 0.27136 0.0
H622 H 0.39976 0.92634 0.66706 0.0
H623 H 0.33946 0.92207 0.56967 0.0
H624 H 0.32498 0.96581 0.58946 0.0
H625 H 0.36289 0.94921 0.74491 0.0
H626 H 0.38562 0.97056 0.77086 0.0
H627 H 0.39702 0.94338 0.74033 0.0
H628 H 0.42469 0.9732 0.69131 0.0
H629 H 0.41386 0.00065 0.72238 0.0
H630 H 0.40985 0.00012 0.66389 0.0
H631 H 0.31095 0.00442 0.63032 0.0
H632 H 0.2993 0.03569 0.68783 0.0
H633 H 0.36772 0.01393 0.76074 0.0
C634 C 0.38452 0.93535 0.64832 0.0
C635 C 0.37098 0.92135 0.61639 0.0
C636 C 0.35023 0.93291 0.5938 0.0
C637 C 0.34194 0.95771 0.60477 0.0
C638 C 0.3546 0.97054 0.63847 0.0
C639 C 0.3757 0.95991 0.65961 0.0
C640 C 0.38289 0.97534 0.6997 0.0
C641 C 0.38203 0.95862 0.74136 0.0
C642 C 0.4094 0.98809 0.69396 0.0
C643 C 0.3616 -0.00483 0.69933 0.0
C644 C 0.34588 0.99258 0.66321 0.0
C645 C 0.32348 0.00712 0.65821 0.0
C646 C 0.3169 0.02468 0.69118 0.0
C647 C 0.3325 0.02716 0.72888 0.0
C648 C 0.35535 0.01253 0.73234 0.0
H649 H 0.01002 0.62756 0.22506 0.0
H650 H 0.0164 0.70821 0.262 0.0
H651 H 0.97493 0.70539 0.30018 0.0
H652 H 0.94366 0.62771 0.20351 0.0
H653 H 0.9374 0.5962 0.2259 0.0
H654 H 0.96871 0.60365 0.20408 0.0
H655 H 0.98985 0.59088 0.27769 0.0
H656 H 0.95857 0.58323 0.29968 0.0
H657 H 0.97908 0.60597 0.32747 0.0
H658 H 0.93106 0.69574 0.32681 0.0
H659 H 0.88833 0.67834 0.34635 0.0
H660 H 0.91072 0.60335 0.29662 0.0
C661 C 0.00289 0.64453 0.24172 0.0
C662 C 0.01653 0.66812 0.24034 0.0
C663 C 0.00644 0.68988 0.26253 0.0
C664 C 0.98284 0.68851 0.28436 0.0
C665 C 0.96968 0.66518 0.28429 0.0
C666 C 0.97942 0.64346 0.26414 0.0
C667 C 0.96087 0.621 0.26802 0.0
C668 C 0.95215 0.6116 0.22268 0.0
C669 C 0.97281 0.59897 0.29482 0.0
C670 C 0.93898 0.63376 0.29253 0.0
C671 C 0.9445 0.65928 0.30141 0.0
C672 C 0.92664 0.67567 0.32081 0.0
C673 C 0.90243 0.66569 0.33153 0.0
C674 C 0.89648 0.63953 0.32331 0.0
C675 C 0.91506 0.6233 0.30396 0.0
H676 H 0.68835 0.99377 0.22257 0.0
H677 H 0.62245 0.04184 0.25233 0.0
H678 H 0.60402 0.00701 0.29779 0.0
H679 H 0.65266 0.93718 0.20781 0.0
H680 H 0.67635 0.91572 0.23082 0.0
H681 H 0.68635 0.94557 0.20617 0.0
H682 H 0.70957 0.95859 0.27784 0.0
H683 H 0.69968 0.92869 0.30271 0.0
H684 H 0.69184 0.95891 0.32847 0.0
H685 H 0.59131 0.96656 0.33493 0.0
H686 H 0.58354 0.92198 0.3587 0.0
H687 H 0.6567 0.89881 0.30197 0.0
C688 C 0.6704 -0.00297 0.23972 0.0
C689 C 0.65689 0.02041 0.23497 0.0
C690 C 0.63305 0.02401 0.25632 0.0
C691 C 0.62253 0.00443 0.28219 0.0
C692 C 0.63604 0.98134 0.28582 0.0
C693 C 0.65937 0.97744 0.26505 0.0
C694 C 0.66851 0.9499 0.2707 0.0
C695 C 0.67111 0.9363 0.22623 0.0
C696 C 0.69391 0.94898 0.29647 0.0
C697 C 0.64643 0.93888 0.29715 0.0
C698 C 0.62816 0.95748 0.30606 0.0
C699 C 0.60557 0.95183 0.32853 0.0
C700 C 0.60134 0.92639 0.34186 0.0
C701 C 0.6195 0.90678 0.33227 0.0
C702 C 0.64249 0.91331 0.31004 0.0
H703 H 0.91699 0.31813 0.65941 0.0
H704 H 0.93229 0.3978 0.62432 0.0
H705 H 0.9774 0.39252 0.64778 0.0
H706 H 0.95009 0.31839 0.75466 0.0
H707 H 0.96267 0.28609 0.75095 0.0
H708 H 0.9332 0.29424 0.72346 0.0
H709 H 0.95229 0.27883 0.64976 0.0
H710 H 0.98186 0.27032 0.6771 0.0
H711 H 0.98249 0.29193 0.631 0.0
H712 H 0.01751 0.38146 0.68755 0.0
H713 H 0.05092 0.36447 0.73723 0.0
H714 H 0.01056 0.29149 0.74448 0.0
C715 C 0.92997 0.33429 0.65534 0.0
C716 C 0.92104 0.3584 0.63996 0.0
C717 C 0.93865 0.37911 0.63577 0.0
C718 C 0.96435 0.37628 0.64895 0.0
C719 C 0.9722 0.35254 0.6656 0.0
C720 C 0.95563 0.33177 0.66825 0.0
C721 C 0.96803 0.30921 0.69159 0.0
C722 C 0.95259 0.30156 0.73258 0.0
C723 C 0.97137 0.28621 0.66049 0.0
C724 C -0.00624 0.32093 0.70352 0.0
C725 C -0.00415 0.34587 0.68779 0.0
C726 C 0.01646 0.36174 0.69893 0.0
C727 C 0.03522 0.352 0.72728 0.0
C728 C 0.03334 0.32661 0.74383 0.0
C729 C 0.0127 0.31069 0.73107 0.0
H730 H 0.39317 0.07114 0.3093 0.0
H731 H 0.32994 0.07537 0.40113 0.0
H732 H 0.31516 0.03214 0.37785 0.0
H733 H 0.35667 0.04757 0.22601 0.0
H734 H 0.38091 0.02704 0.20229 0.0
H735 H 0.39034 0.05497 0.23308 0.0
H736 H 0.41808 0.02654 0.28442 0.0
H737 H 0.40904 -0.00157 0.25339 0.0
H738 H 0.40361 -0.0007 0.31153 0.0
H739 H 0.3041 0.99169 0.33815 0.0
H740 H 0.29621 0.95792 0.28318 0.0
H741 H 0.36516 0.9816 0.21347 0.0
C742 C 0.37695 0.06232 0.3258 0.0
C743 C 0.36306 0.07594 0.35784 0.0
C744 C 0.34106 0.06474 0.37723 0.0
C745 C 0.33259 0.04027 0.36422 0.0
C746 C 0.34618 0.02758 0.33137 0.0
C747 C 0.36789 0.03823 0.31233 0.0
C748 C 0.37661 0.02267 0.27322 0.0
C749 C 0.37608 0.03904 0.2312 0.0
C750 C 0.40343 0.01104 0.28113 0.0
C751 C 0.35604 0.00202 0.27252 0.0
C752 C 0.339 0.00487 0.30683 0.0
C753 C 0.31752 0.98902 0.3115 0.0
C754 C 0.31318 0.96993 0.27998 0.0
C755 C 0.33003 0.96709 0.24388 0.0
C756 C 0.35194 0.98316 0.2407 0.0
H757 H 0.0686 0.65675 0.69924 0.0
H758 H 0.0595 0.57739 0.6569 0.0
H759 H 0.01351 0.57895 0.6776 0.0
H760 H 0.0291 0.65268 0.7921 0.0
H761 H 0.01596 0.68462 0.78615 0.0
H762 H 0.0476 0.67755 0.76549 0.0
H763 H 0.03377 0.69346 0.68857 0.0
H764 H 0.00201 0.70051 0.70899 0.0
H765 H 0.0059 0.67944 0.66266 0.0
H766 H 0.96971 0.58812 0.70921 0.0
H767 H 0.93106 0.60475 0.74721 0.0
H768 H 0.96898 0.67852 0.76501 0.0
C769 C 0.05695 0.63971 0.69403 0.0
C770 C 0.06759 0.61694 0.67656 0.0
C771 C 0.05167 0.59509 0.67009 0.0
C772 C 0.02556 0.59579 0.68171 0.0
C773 C 0.01576 0.61855 0.69915 0.0
C774 C 0.03094 0.64015 0.70498 0.0
C775 C 0.01608 0.66197 0.72564 0.0
C776 C 0.02789 0.66964 0.76996 0.0
C777 C 0.01434 0.68521 0.6946 0.0
C778 C 0.99022 0.64914 0.73129 0.0
C779 C 0.99037 0.62409 0.71588 0.0
C780 C 0.9692 0.60783 0.72071 0.0
C781 C 0.94743 0.61738 0.74236 0.0
C782 C 0.94707 0.64296 0.75838 0.0
C783 C 0.96856 0.65909 0.75207 0.0
H784 H 0.19464 0.56285 0.50835 0.0
H785 H 0.23354 0.53088 0.62127 0.0
H786 H 0.2501 0.49536 0.57613 0.0
H787 H 0.17059 0.51062 0.4698 0.0
H788 H 0.17507 0.51607 0.41212 0.0
H789 H 0.17342 0.54295 0.4486 0.0
H790 H 0.21781 0.5591 0.42145 0.0
H791 H 0.2195 0.53219 0.38429 0.0
H792 H 0.24521 0.53779 0.42273 0.0
H793 H 0.24837 0.45733 0.52864 0.0
H794 H 0.2342 0.42288 0.47812 0.0
H795 H 0.20133 0.48021 0.39209 0.0
C796 C 0.20772 0.54902 0.52286 0.0
C797 C 0.21278 0.54945 0.56808 0.0
C798 C 0.22965 0.531 0.5865 0.0
C799 C 0.23917 0.51074 0.56106 0.0
C800 C 0.23234 0.50976 0.51706 0.0
C801 C 0.21776 0.52896 0.49763 0.0
C802 C 0.21004 0.52166 0.4516 0.0
C803 C 0.18056 0.52287 0.44525 0.0
C804 C 0.22398 0.5387 0.41803 0.0
C805 C 0.21999 0.49429 0.45009 0.0
C806 C 0.23324 0.48788 0.48784 0.0
C807 C 0.23932 0.46232 0.49793 0.0
C808 C 0.23114 0.44287 0.46934 0.0
C809 C 0.2176 0.44927 0.43091 0.0
C810 C 0.21284 0.47522 0.4204 0.0
H811 H 0.47939 0.7834 0.61613 0.0
H812 H 0.41446 0.74932 0.5498 0.0
H813 H 0.44338 0.7325 0.49261 0.0
H814 H 0.50344 0.8109 0.53707 0.0
H815 H 0.53748 0.80668 0.54644 0.0
H816 H 0.51568 0.80488 0.59134 0.0
H817 H 0.53213 0.75938 0.61113 0.0
H818 H 0.55471 0.7612 0.56647 0.0
H819 H 0.53269 0.73442 0.5702 0.0
H820 H 0.47443 0.73409 0.43226 0.0
H821 H 0.50434 0.75241 0.37752 0.0
H822 H 0.54952 0.78637 0.48142 0.0
C823 C 0.47181 0.7707 0.59116 0.0
C824 C 0.44511 0.76704 0.58738 0.0
C825 C 0.43509 0.75154 0.5536 0.0
C826 C 0.45144 0.742 0.52096 0.0
C827 C 0.47765 0.74801 0.52311 0.0
C828 C 0.48795 0.76142 0.55828 0.0
C829 C 0.51501 0.77069 0.54869 0.0
C830 C 0.518 0.8 0.55625 0.0
C831 C 0.5348 0.7555 0.57571 0.0
C832 C 0.51685 0.76371 0.5009 0.0
C833 C 0.4958 0.74945 0.48717 0.0
C834 C 0.49144 0.74439 0.4429 0.0
C835 C 0.50839 0.75495 0.41196 0.0
C836 C 0.52894 0.77084 0.42566 0.0
C837 C 0.53385 0.77417 0.47051 0.0
H838 H 0.79466 0.47416 0.6167 0.0
H839 H 0.75842 0.4141 0.54063 0.0
H840 H 0.74168 0.44674 0.48912 0.0
H841 H 0.7485 0.53071 0.58583 0.0
H842 H 0.77578 0.55209 0.58216 0.0
H843 H 0.7756 0.52646 0.62198 0.0
H844 H 0.81891 0.50996 0.59137 0.0
H845 H 0.81918 0.53502 0.55121 0.0
H846 H 0.82137 0.50181 0.53425 0.0
H847 H 0.73842 0.4828 0.43773 0.0
H848 H 0.75174 0.51759 0.38799 0.0
H849 H 0.79411 0.55389 0.49352 0.0
C850 C 0.78176 0.46829 0.59068 0.0
C851 C 0.77688 0.44202 0.58306 0.0
C852 C 0.76152 0.43436 0.54736 0.0
C853 C 0.75194 0.45279 0.51814 0.0
C854 C 0.75836 0.47862 0.52488 0.0
C855 C 0.77294 0.4864 0.56047 0.0
C856 C 0.78262 0.51374 0.55489 0.0
C857 C 0.76985 0.53182 0.58819 0.0
C858 C 0.81225 0.51517 0.55805 0.0
C859 C 0.77318 0.51929 0.50911 0.0
C860 C 0.75815 0.49934 0.49326 0.0
C861 C 0.74961 0.49882 0.45011 0.0
C862 C 0.75736 0.51865 0.42203 0.0
C863 C 0.77407 0.53833 0.43696 0.0
C864 C 0.78124 0.5391 0.48139 0.0
H865 H 0.43297 0.21515 0.47327 0.0
H866 H 0.47445 0.22816 0.35277 0.0
H867 H 0.51154 0.2446 0.39444 0.0
H868 H 0.46817 0.27137 0.53962 0.0
H869 H 0.46695 0.25141 0.58779 0.0
H870 H 0.44074 0.25082 0.54909 0.0
H871 H 0.4455 0.20136 0.54272 0.0
H872 H 0.47172 0.20174 0.58049 0.0
H873 H 0.47617 0.18791 0.52698 0.0
H874 H 0.54728 0.2415 0.44554 0.0
H875 H 0.57673 0.22514 0.50253 0.0
H876 H 0.51305 0.2189 0.5927 0.0
C877 C 0.44939 0.22292 0.45588 0.0
C878 C 0.45109 0.22045 0.41019 0.0
C879 C 0.47278 0.23025 0.38787 0.0
C880 C 0.49392 0.23965 0.41135 0.0
C881 C 0.49263 0.23983 0.4569 0.0
C882 C 0.47044 0.23269 0.479 0.0
C883 C 0.47527 0.23029 0.52761 0.0
C884 C 0.462 0.25229 0.55249 0.0
C885 C 0.4667 0.20376 0.54538 0.0
C886 C 0.50422 0.23347 0.52853 0.0
C887 C 0.51383 0.2398 0.48765 0.0
C888 C 0.54009 0.23796 0.47817 0.0
C889 C 0.55669 0.22854 0.51052 0.0
C890 C 0.54698 0.22163 0.5519 0.0
C891 C 0.5208 0.2253 0.56167 0.0
H892 H 0.71413 0.00242 0.10228 0.0
H893 H 0.73474 0.06927 0.02593 0.0
H894 H 0.74701 0.04116 0.9642 0.0
H895 H 0.76113 0.95314 0.04443 0.0
H896 H 0.73642 0.92884 0.04829 0.0
H897 H 0.7401 0.95235 0.09125 0.0
H898 H 0.6921 0.96477 0.08271 0.0
H899 H 0.68833 0.94184 0.03966 0.0
H900 H 0.68039 0.9752 0.03007 0.0
H901 H 0.7439 0.00865 0.90605 0.0
H902 H 0.72477 0.97572 0.85757 0.0
H903 H 0.7043 0.92984 0.97046 0.0
C904 C 0.72287 0.01077 0.07343 0.0
C905 C 0.72429 0.03762 0.06867 0.0
C906 C 0.73437 0.04854 0.03013 0.0
C907 C 0.74138 0.03268 0.99506 0.0
C908 C 0.73814 0.00608 -0.0006 0.0
C909 C 0.72949 -0.00486 0.0381 0.0
C910 C 0.72197 0.96723 0.03184 0.0
C911 C 0.74106 0.94934 0.05533 0.0
C912 C 0.69406 0.96201 0.04689 0.0
C913 C 0.72479 0.96508 0.98287 0.0
C914 C 0.73538 0.98716 0.96493 0.0
C915 C 0.7364 0.99095 0.91977 0.0
C916 C 0.72543 0.97223 0.89244 0.0
C917 C 0.71308 0.95048 0.91065 0.0
C918 C 0.71382 0.94636 0.95607 0.0
H919 H 0.93986 0.28657 0.03322 0.0
H920 H 0.98322 0.24617 0.13256 0.0
H921 H 0.0132 0.22996 0.07568 0.0
H922 H 0.9528 0.23973 0.93866 0.0
H923 H 0.95522 0.26647 0.90127 0.0
H924 H 0.93338 0.26811 0.94698 0.0
H925 H 0.95503 0.31058 0.9724 0.0
H926 H 0.97644 0.30919 0.9269 0.0
H927 H 0.98928 0.31125 0.98158 0.0
H928 H 0.04393 0.22847 0.0125 0.0
H929 H 0.07174 0.24202 0.95078 0.0
H930 H 0.00762 0.28272 0.89304 0.0
C931 C 0.95512 0.27345 0.04256 0.0
C932 C 0.95946 0.26749 0.08673 0.0
C933 C 0.9796 0.2506 0.09852 0.0
C934 C -0.00342 0.24129 0.06642 0.0
C935 C 0.99259 0.24867 0.02298 0.0
C936 C 0.97196 0.26406 0.01107 0.0
C937 C 0.97397 0.27305 0.96431 0.0
C938 C 0.95257 0.26111 0.93614 0.0
C939 C 0.97371 0.30274 0.96118 0.0
C940 C -4e-05 0.26216 0.95263 0.0
C941 C 0.0102 0.24747 0.98625 0.0
C942 C 0.03577 0.23908 0.98539 0.0
C943 C 0.05143 0.24681 0.95034 0.0
C944 C 0.04138 0.263 0.91741 0.0
C945 C 0.01525 0.26975 0.91759 0.0
H946 H 0.27832 0.05856 0.9618 0.0
H947 H 0.25117 0.00675 0.86143 0.0
H948 H 0.23116 0.9791 0.91801 0.0
H949 H 0.30159 0.01812 0.02619 0.0
H950 H 0.29259 0.03164 0.07832 0.0
H951 H 0.29464 0.05205 0.03165 0.0
H952 H 0.24781 0.06698 0.04272 0.0
H953 H 0.24537 0.04657 0.09028 0.0
H954 H 0.22228 0.04354 0.04659 0.0
H955 H 0.22736 0.95138 0.98277 0.0
H956 H 0.24253 0.92621 0.04615 0.0
H957 H 0.27184 -0.00438 0.10584 0.0
C958 C 0.26696 0.04203 0.95199 0.0
C959 C 0.26598 0.0346 0.9079 0.0
C960 C 0.25165 0.01275 0.89532 0.0
C961 C 0.24014 -0.00289 0.92726 0.0
C962 C 0.24274 0.00405 0.97122 0.0
C963 C 0.25538 0.02645 0.98348 0.0
C964 C 0.26034 0.02721 0.03214 0.0
C965 C 0.28898 0.03247 0.0426 0.0
C966 C 0.2429 0.04726 0.05423 0.0
C967 C 0.25217 0.00021 0.04435 0.0
C968 C 0.24055 0.98766 0.00949 0.0
C969 C 0.23546 0.96123 0.01074 0.0
C970 C 0.24402 0.94704 0.04693 0.0
C971 C 0.25784 0.95934 0.08069 0.0
C972 C 0.26051 0.98626 0.0807 0.0
H973 H 0.96912 0.67342 0.89993 0.0
H974 H 0.92187 0.73808 0.93948 0.0
H975 H 0.95694 0.75322 0.98834 0.0
H976 H 0.99293 0.65805 -0.00178 0.0
H977 H 0.02484 0.64952 0.98007 0.0
H978 H -0.00177 0.64723 0.94297 0.0
H979 H 0.02198 0.67733 0.88841 0.0
H980 H 0.0487 0.67957 0.92584 0.0
H981 H 0.03314 0.70845 0.9065 0.0
H982 H 0.99348 0.75586 0.0426 0.0
H983 H 0.02716 0.74536 0.09707 0.0
H984 H 0.05126 0.68062 0.01762 0.0
C985 C 0.96641 0.69105 0.91831 0.0
C986 C 0.94293 0.70451 0.91665 0.0
C987 C 0.93989 0.72758 0.94061 0.0
C988 C 0.95972 0.73636 0.96809 0.0
C989 C 0.98258 0.72222 0.96986 0.0
C990 C 0.98609 0.70025 0.94493 0.0
C991 C 0.0111 0.68689 0.95561 0.0
C992 C 0.00647 0.6588 0.97012 0.0
C993 C 0.02983 0.68816 0.91678 0.0
C994 C 0.02023 0.70357 0.99291 0.0
C995 C 0.00396 0.72426 0.00011 0.0
C996 C 0.00677 0.7402 0.03656 0.0
C997 C 0.02595 0.73416 0.06729 0.0
C998 C 0.04166 0.71218 0.06138 0.0
C999 C 0.03954 0.69762 0.02271 0.0
H1000 H 0.12606 0.34831 0.19447 0.0
H1001 H 0.20371 0.37851 0.18077 0.0
H1002 H 0.20101 0.37339 0.10128 0.0
H1003 H 0.13018 0.30115 0.10597 0.0
H1004 H 0.09769 0.30648 0.08727 0.0
H1005 H 0.1057 0.31131 0.14398 0.0
H1006 H 0.08802 0.35791 0.13975 0.0
H1007 H 0.08007 0.35326 0.083 0.0
H1008 H 0.10054 0.37967 0.09904 0.0
H1009 H 0.19076 0.36592 0.02472 0.0
H1010 H 0.17287 0.35674 0.95225 0.0
H1011 H 0.1009 0.33231 0.01196 0.0
C1012 C 0.1425 0.35357 0.17463 0.0
C1013 C 0.16508 0.36386 0.1938 0.0
C1014 C 0.18614 0.37081 0.16682 0.0
C1015 C 0.18487 0.3679 0.1216 0.0
C1016 C 0.16234 0.35813 0.10361 0.0
C1017 C 0.14146 0.35108 0.12894 0.0
C1018 C 0.11936 0.34186 0.10035 0.0
C1019 C 0.11286 0.31351 0.10997 0.0
C1020 C 0.09559 0.35921 0.10587 0.0
C1021 C 0.13123 0.34495 0.05527 0.0
C1022 C 0.15609 0.35422 0.0583 0.0
C1023 C 0.17131 0.35861 0.02174 0.0
C1024 C 0.16094 0.35328 0.98067 0.0
C1025 C 0.13547 0.34378 0.9763 0.0
C1026 C 0.12037 0.33969 0.01422 0.0
H1027 H 0.34551 0.84793 0.9832 0.0
H1028 H 0.32205 0.92776 0.96869 0.0
H1029 H 0.31861 0.92155 0.88869 0.0
H1030 H 0.38483 0.8457 0.88808 0.0
H1031 H 0.37641 0.81286 0.87527 0.0
H1032 H 0.37587 0.8237 0.93108 0.0
H1033 H 0.32829 0.80889 0.93769 0.0
H1034 H 0.32861 0.79831 0.88164 0.0
H1035 H 0.30471 0.82111 0.89973 0.0
H1036 H 0.31795 0.9062 0.80985 0.0
H1037 H 0.32457 0.88456 0.73877 0.0
H1038 H 0.34916 0.81528 0.80644 0.0
C1039 C 0.33954 0.86413 0.96331 0.0
C1040 C 0.33394 0.8883 0.98219 0.0
C1041 C 0.32654 0.90909 0.95488 0.0
C1042 C 0.32434 0.90569 0.90949 0.0
C1043 C 0.32973 0.88145 0.89207 0.0
C1044 C 0.33747 0.86115 0.91817 0.0
C1045 C 0.34341 0.8374 0.8915 0.0
C1046 C 0.37181 0.82946 0.89679 0.0
C1047 C 0.32516 0.81512 0.90336 0.0
C1048 C 0.33801 0.8475 0.84614 0.0
C1049 C 0.32981 0.87283 0.84704 0.0
C1050 C 0.32425 0.88634 0.8088 0.0
C1051 C 0.32788 0.87382 0.7686 0.0
C1052 C 0.3373 0.8482 0.76709 0.0
C1053 C 0.34186 0.83483 0.8065 0.0
H1054 H 0.86586 0.65522 0.00787 0.0
H1055 H 0.7965 0.62663 0.94496 0.0
H1056 H 0.77703 0.61874 0.01719 0.0
H1057 H 0.86653 0.61085 0.09709 0.0
H1058 H 0.87747 0.63416 0.13662 0.0
H1059 H 0.88594 0.63783 0.07993 0.0
H1060 H 0.86612 0.68365 0.0798 0.0
H1061 H 0.8575 0.68007 0.13649 0.0
H1062 H 0.83315 0.688 0.0967 0.0
H1063 H 0.76603 0.6116 0.09542 0.0
H1064 H 0.76335 0.60742 0.17563 0.0
H1065 H 0.83866 0.64293 0.18841 0.0
C1066 C 0.84659 0.64726 0.00931 0.0
C1067 C 0.83273 0.64143 0.97078 0.0
C1068 C 0.80746 0.6313 0.97403 0.0
C1069 C 0.79623 0.62673 0.01488 0.0
C1070 C 0.81039 0.6327 0.05217 0.0
C1071 C 0.83493 0.64292 0.04986 0.0
C1072 C 0.84588 0.64771 0.09505 0.0
C1073 C 0.8704 0.63168 0.10261 0.0
C1074 C 0.85095 0.67658 0.10243 0.0
C1075 C 0.82379 0.6382 0.12307 0.0
C1076 C 0.80358 0.62954 0.09759 0.0
C1077 C 0.78157 0.61859 0.11578 0.0
C1078 C 0.78026 0.61625 0.16128 0.0
C1079 C 0.80067 0.62509 0.18805 0.0
C1080 C 0.82257 0.63648 0.16867 0.0
H1081 H 0.65669 0.10111 0.97696 0.0
H1082 H 0.62645 0.16841 0.04387 0.0
H1083 H 0.6146 0.18762 0.97319 0.0
H1084 H 0.68446 0.13637 0.88683 0.0
H1085 H 0.67686 0.11219 0.84655 0.0
H1086 H 0.68228 0.10295 0.90253 0.0
H1087 H 0.63762 0.08066 0.90446 0.0
H1088 H 0.63222 0.08987 0.84846 0.0
H1089 H 0.60928 0.09884 0.88993 0.0
H1090 H 0.605 0.19932 0.89679 0.0
H1091 H 0.60071 0.20438 0.81713 0.0
H1092 H 0.63915 0.13094 0.79774 0.0
C1093 C 0.64746 0.11982 0.97663 0.0
C1094 C 0.64243 0.13325 0.01594 0.0
C1095 C 0.63061 0.15783 0.0142 0.0
C1096 C 0.6237 0.16887 0.97423 0.0
C1097 C 0.62896 0.15525 0.93616 0.0
C1098 C 0.64076 0.13139 0.93678 0.0
C1099 C 0.645 0.12145 0.89068 0.0
C1100 C 0.67387 0.11805 0.8811 0.0
C1101 C 0.63013 0.09621 0.88295 0.0
C1102 C 0.63363 0.14346 0.86432 0.0
C1103 C 0.62429 0.16258 0.89139 0.0
C1104 C 0.61235 0.18458 0.87514 0.0
C1105 C 0.60994 0.18723 0.82986 0.0
C1106 C 0.6197 0.16813 0.80128 0.0
C1107 C 0.63177 0.14598 0.81882 0.0
H1108 H 0.1268 0.6415 0.81836 0.0
H1109 H 0.20547 0.61358 0.8265 0.0
H1110 H 0.20348 0.61577 0.90683 0.0
H1111 H 0.13021 0.68535 0.91116 0.0
H1112 H 0.09811 0.67826 0.93001 0.0
H1113 H 0.10565 0.6759 0.8727 0.0
H1114 H 0.0897 0.62872 0.87146 0.0
H1115 H 0.0818 0.63087 0.92861 0.0
H1116 H 0.10303 0.6058 0.90955 0.0
H1117 H 0.19332 0.62083 0.98584 0.0
H1118 H 0.17492 0.62744 0.05941 0.0
H1119 H 0.10205 0.64969 0.0009 0.0
C1120 C 0.14368 0.6362 0.83711 0.0
C1121 C 0.16634 0.6275 0.81621 0.0
C1122 C 0.18791 0.62028 0.84184 0.0
C1123 C 0.18699 0.62148 0.88748 0.0
C1124 C 0.16429 0.62973 0.90712 0.0
C1125 C 0.14298 0.63692 0.8829 0.0
C1126 C 0.12069 0.64417 0.91246 0.0
C1127 C 0.11323 0.67261 0.9062 0.0
C1128 C 0.09744 0.62631 0.90508 0.0
C1129 C 0.13282 0.63968 0.95691 0.0
C1130 C 0.15807 0.63166 0.95301 0.0
C1131 C 0.17352 0.62698 0.98939 0.0
C1132 C 0.16293 0.63078 0.03099 0.0
C1133 C 0.13703 0.63877 0.03582 0.0
C1134 C 0.12178 0.64311 -0.0018 0.0
H1135 H 0.58713 0.83421 0.17226 0.0
H1136 H 0.66144 0.80122 0.20504 0.0
H1137 H 0.67758 0.81197 0.13138 0.0
H1138 H 0.58544 0.81503 0.05825 0.0
H1139 H 0.57104 0.84479 0.04021 0.0
H1140 H 0.56483 0.83299 0.09454 0.0
H1141 H 0.5809 0.87631 0.12665 0.0
H1142 H 0.58747 0.88816 0.07246 0.0
H1143 H 0.61268 0.88775 0.11296 0.0
H1144 H 0.6855 0.82564 0.05538 0.0
H1145 H 0.68525 0.84255 0.98003 0.0
H1146 H 0.60701 0.86988 -0.0022 0.0
C1147 C 0.60662 0.82887 0.16345 0.0
C1148 C 0.62305 0.81663 0.19366 0.0
C1149 C 0.64865 0.81049 0.18189 0.0
C1150 C 0.65795 0.81653 0.14033 0.0
C1151 C 0.64147 0.82906 0.11145 0.0
C1152 C 0.61641 0.83529 0.12237 0.0
C1153 C 0.6032 0.8498 0.08577 0.0
C1154 C 0.57974 0.83475 0.06868 0.0
C1155 C 0.59562 0.87713 0.10035 0.0
C1156 C 0.62471 0.85047 0.05246 0.0
C1157 C 0.64653 0.83824 0.068 0.0
C1158 C 0.66864 0.83542 0.04284 0.0
C1159 C 0.66831 0.84503 0.00025 0.0
C1160 C 0.64619 0.85758 0.9837 0.0
C1161 C 0.62426 0.8607 0.01024 0.0
H1162 H 0.81608 0.36681 0.83598 0.0
H1163 H 0.88615 0.33735 0.77687 0.0
H1164 H 0.90473 0.33041 0.85005 0.0
H1165 H 0.84546 0.39976 0.92572 0.0
H1166 H 0.82095 0.39107 0.96472 0.0
H1167 H 0.81291 0.39395 0.90767 0.0
H1168 H 0.79504 0.34731 0.90777 0.0
H1169 H 0.80289 0.34433 0.96488 0.0
H1170 H 0.8153 0.32127 0.92623 0.0
H1171 H 0.91671 0.32919 0.92807 0.0
H1172 H 0.92004 0.32919 0.00835 0.0
H1173 H 0.84118 0.35606 0.01836 0.0
C1174 C 0.83531 0.35887 0.83857 0.0
C1175 C 0.84975 0.35268 0.8009 0.0
C1176 C 0.87474 0.34208 0.80538 0.0
C1177 C 0.88549 0.33819 0.84674 0.0
C1178 C 0.87084 0.34463 0.88318 0.0
C1179 C 0.84617 0.35436 0.87969 0.0
C1180 C 0.83441 0.35896 0.92434 0.0
C1181 C 0.82807 0.38764 0.93099 0.0
C1182 C 0.8105 0.34195 0.9312 0.0
C1183 C 0.85648 0.35053 0.95341 0.0
C1184 C 0.87737 0.34267 0.92879 0.0
C1185 C 0.90044 0.33504 0.94779 0.0
C1186 C 0.90218 0.33521 0.9933 0.0
C1187 C 0.88086 0.34249 0.01935 0.0
C1188 C 0.85767 0.35021 -0.00086 0.0
H1189 H 0.36004 0.14724 0.98419 0.0
H1190 H 0.33635 0.06758 0.00056 0.0
H1191 H 0.33629 0.07328 0.08058 0.0
H1192 H 0.40353 0.14792 0.07679 0.0
H1193 H 0.39613 0.18078 0.09115 0.0
H1194 H 0.39379 0.17047 0.03511 0.0
H1195 H 0.34642 0.18617 0.03255 0.0
H1196 H 0.34853 0.1963 0.08872 0.0
H1197 H 0.3237 0.17407 0.07209 0.0
H1198 H 0.3368 0.08815 0.15827 0.0
H1199 H 0.34281 0.10975 0.2294 0.0
H1200 H 0.36905 0.17882 0.16284 0.0
C1201 C 0.35491 0.131 0.00465 0.0
C1202 C 0.34802 0.10702 0.98625 0.0
C1203 C 0.34171 0.08611 0.01404 0.0
C1204 C 0.3415 0.08919 0.05948 0.0
C1205 C 0.34807 0.11316 0.07655 0.0
C1206 C 0.35511 0.13357 0.0501 0.0
C1207 C 0.36226 0.15703 0.07688 0.0
C1208 C 0.39061 0.16448 0.06955 0.0
C1209 C 0.34414 0.17973 0.06696 0.0
C1210 C 0.35796 0.14664 0.1225 0.0
C1211 C 0.34945 0.12141 0.12152 0.0
C1212 C 0.34357 0.10786 0.15951 0.0
C1213 C 0.34687 0.12034 0.19967 0.0
C1214 C 0.35633 0.14593 0.20143 0.0
C1215 C 0.36186 0.15922 0.16232 0.0
H1216 H 0.59574 0.82926 0.51964 0.0
H1217 H 0.6714 0.82241 0.46002 0.0
H1218 H 0.69135 0.82253 0.53283 0.0
H1219 H 0.61268 0.87269 0.60012 0.0
H1220 H 0.59262 0.85917 0.64239 0.0
H1221 H 0.58385 0.85518 0.58598 0.0
H1222 H 0.58262 0.80566 0.59633 0.0
H1223 H 0.59142 0.80951 0.65293 0.0
H1224 H 0.61049 0.78925 0.61775 0.0
H1225 H 0.7036 0.82992 0.60951 0.0
H1226 H 0.7072 0.84226 0.68718 0.0
H1227 H 0.62393 0.84207 0.6984 0.0
C1228 C 0.61647 0.82739 0.52191 0.0
C1229 C 0.63199 0.82594 0.48409 0.0
C1230 C 0.65906 0.82353 0.48847 0.0
C1231 C 0.67061 0.82347 0.5297 0.0
C1232 C 0.65482 0.82543 0.56622 0.0
C1233 C 0.62833 0.82706 0.56288 0.0
C1234 C 0.61597 0.83072 0.60723 0.0
C1235 C 0.60038 0.85594 0.60901 0.0
C1236 C 0.59914 0.80739 0.61927 0.0
C1237 C 0.6398 0.83211 0.63566 0.0
C1238 C 0.66198 0.82877 0.61132 0.0
C1239 C 0.68643 0.83193 0.62925 0.0
C1240 C 0.6883 0.83906 0.67317 0.0
C1241 C 0.66585 0.84271 0.69852 0.0
C1242 C 0.64135 0.83866 0.67982 0.0
H1243 H 0.82673 0.36905 0.47775 0.0
H1244 H 0.83154 0.29347 0.53787 0.0
H1245 H 0.83106 0.27336 0.46465 0.0
H1246 H 0.78565 0.34905 0.38184 0.0
H1247 H 0.80249 0.37094 0.3461 0.0
H1248 H 0.7984 0.37885 0.40303 0.0
H1249 H 0.8478 0.38455 0.41088 0.0
H1250 H 0.852 0.37657 0.35427 0.0
H1251 H 0.86882 0.35841 0.39561 0.0
H1252 H 0.83884 0.26249 0.38631 0.0
H1253 H 0.85169 0.26145 0.30862 0.0
H1254 H 0.83948 0.3439 0.29939 0.0
C1255 C 0.82704 0.34822 0.47556 0.0
C1256 C 0.8293 0.33278 0.51334 0.0
C1257 C 0.82968 0.30562 0.50926 0.0
C1258 C 0.82937 0.29406 0.46785 0.0
C1259 C 0.82805 0.30993 0.43112 0.0
C1260 C 0.82643 0.33643 0.43465 0.0
C1261 C 0.8276 0.34937 0.3904 0.0
C1262 C 0.802 0.36284 0.37972 0.0
C1263 C 0.85041 0.36832 0.38766 0.0
C1264 C 0.83171 0.32612 0.36154 0.0
C1265 C 0.83158 0.30351 0.38554 0.0
C1266 C 0.83821 0.27993 0.36693 0.0
C1267 C 0.84561 0.27954 0.32293 0.0
C1268 C 0.84616 0.30255 0.2981 0.0
C1269 C 0.83843 0.32595 0.31737 0.0
H1270 H 0.35916 0.14463 0.70362 0.0
H1271 H 0.27607 0.15116 0.6967 0.0
H1272 H 0.27934 0.16594 0.62013 0.0
H1273 H 0.37574 0.1986 0.62579 0.0
H1274 H 0.40173 0.18032 0.60214 0.0
H1275 H 0.39344 0.17594 0.65886 0.0
H1276 H 0.3878 0.12701 0.64562 0.0
H1277 H 0.39583 0.13117 0.58895 0.0
H1278 H 0.36582 0.11609 0.6039 0.0
H1279 H 0.29092 0.17452 0.54293 0.0
H1280 H 0.30949 0.17378 0.46897 0.0
H1281 H 0.38514 0.15907 0.52442 0.0
C1282 C 0.34181 0.15019 0.68635 0.0
C1283 C 0.31739 0.14735 0.70596 0.0
C1284 C 0.29492 0.15359 0.68212 0.0
C1285 C 0.29663 0.16209 0.63879 0.0
C1286 C 0.32094 0.16396 0.61978 0.0
C1287 C 0.34317 0.15814 0.64272 0.0
C1288 C 0.36648 0.15805 0.61294 0.0
C1289 C 0.38546 0.17951 0.62569 0.0
C1290 C 0.37974 0.13151 0.61285 0.0
C1291 C 0.35371 0.16373 0.56947 0.0
C1292 C 0.32757 0.16773 0.57437 0.0
C1293 C 0.31142 0.17177 0.53868 0.0
C1294 C 0.32218 0.17126 0.49675 0.0
C1295 C 0.34878 0.16628 0.49077 0.0
C1296 C 0.36475 0.163 0.52782 0.0
H1297 H 0.15517 0.62312 0.48902 0.0
H1298 H 0.1244 0.68966 0.55708 0.0
H1299 H 0.11925 0.71231 0.48639 0.0
H1300 H 0.19079 0.65966 0.40629 0.0
H1301 H 0.18414 0.63638 0.36406 0.0
H1302 H 0.18658 0.62615 0.42018 0.0
H1303 H 0.1411 0.60563 0.41547 0.0
H1304 H 0.13877 0.61562 0.35937 0.0
H1305 H 0.11428 0.62511 0.39783 0.0
H1306 H 0.11325 0.7256 0.40711 0.0
H1307 H 0.10944 0.72934 0.32664 0.0
H1308 H 0.14675 0.65502 0.31227 0.0
C1309 C 0.1475 0.64253 0.48914 0.0
C1310 C 0.14002 0.6546 0.52846 0.0
C1311 C 0.13031 0.6801 0.52728 0.0
C1312 C 0.12731 0.69308 0.48732 0.0
C1313 C 0.13457 0.68046 0.44905 0.0
C1314 C 0.14479 0.65587 0.44978 0.0
C1315 C 0.15071 0.64629 0.40425 0.0
C1316 C 0.17979 0.64187 0.39836 0.0
C1317 C 0.13528 0.62172 0.39364 0.0
C1318 C 0.1415 0.66902 0.37759 0.0
C1319 C 0.13225 0.68858 0.40387 0.0
C1320 C 0.12091 0.71064 0.38623 0.0
C1321 C 0.11879 0.71259 0.34056 0.0
C1322 C 0.1282 0.69271 0.3132 0.0
C1323 C 0.14001 0.67089 0.3322 0.0
H1324 H 0.6525 0.11717 0.50531 0.0
H1325 H 0.6609 0.20004 0.51273 0.0
H1326 H 0.67836 0.20064 0.43725 0.0
H1327 H 0.71164 0.10548 0.43645 0.0
H1328 H 0.69591 0.07982 0.40703 0.0
H1329 H 0.68779 0.08584 0.46337 0.0
H1330 H 0.63975 0.09032 0.44172 0.0
H1331 H 0.6477 0.08468 0.3854 0.0
H1332 H 0.63065 0.11355 0.40068 0.0
H1333 H 0.68699 0.1927 0.35757 0.0
H1334 H 0.69085 0.17651 0.28182 0.0
H1335 H 0.67998 0.09833 0.32816 0.0
C1336 C 0.65892 0.13527 0.49139 0.0
C1337 C 0.65583 0.15854 0.51443 0.0
C1338 C 0.66369 0.18205 0.49543 0.0
C1339 C 0.6735 0.18252 0.45271 0.0
C1340 C 0.6757 0.15923 0.43017 0.0
C1341 C 0.66918 0.13596 0.44924 0.0
C1342 C 0.67179 0.11387 0.41729 0.0
C1343 C 0.69305 0.09515 0.43191 0.0
C1344 C 0.64594 0.0998 0.4109 0.0
C1345 C 0.67961 0.12843 0.37662 0.0
C1346 C 0.68182 0.15458 0.38469 0.0
C1347 C 0.68606 0.17222 0.35111 0.0
C1348 C 0.68806 0.1629 0.30824 0.0
C1349 C 0.68611 0.13619 0.29951 0.0
C1350 C 0.68225 0.11877 0.33423 0.0
H1351 H 0.16125 0.33731 0.69613 0.0
H1352 H 0.13332 0.25911 0.68025 0.0
H1353 H 0.14503 0.26049 0.60199 0.0
H1354 H 0.13428 0.36038 0.60245 0.0
H1355 H 0.15981 0.38254 0.58896 0.0
H1356 H 0.1545 0.37352 0.64488 0.0
H1357 H 0.20187 0.35825 0.65112 0.0
H1358 H 0.20737 0.36726 0.595 0.0
H1359 H 0.21415 0.33487 0.61289 0.0
H1360 H 0.15509 0.27216 0.5241 0.0
H1361 H 0.15857 0.29448 0.45281 0.0
H1362 H 0.17765 0.36556 0.51987 0.0
C1363 C 0.1584 0.32019 0.67648 0.0
C1364 C 0.14673 0.298 0.69421 0.0
C1365 C 0.14241 0.27626 0.66721 0.0
C1366 C 0.14916 0.2768 0.62286 0.0
C1367 C 0.16011 0.29925 0.60607 0.0
C1368 C 0.16459 0.32059 0.63209 0.0
C1369 C 0.17304 0.34353 0.60524 0.0
C1370 C 0.15428 0.36631 0.6107 0.0
C1371 C 0.20076 0.35143 0.61675 0.0
C1372 C 0.17158 0.3321 0.55989 0.0
C1373 C 0.16484 0.30634 0.56101 0.0
C1374 C 0.16074 0.29222 0.52282 0.0
C1375 C 0.16282 0.305 0.48251 0.0
C1376 C 0.16834 0.33168 0.48104 0.0
C1377 C 0.17348 0.3451 0.52016 0.0
H1378 H 0.32761 0.84899 0.4817 0.0
H1379 H 0.40482 0.8183 0.46664 0.0
H1380 H 0.39804 0.81519 0.38679 0.0
H1381 H 0.29644 0.81212 0.3935 0.0
H1382 H 0.2768 0.83908 0.3771 0.0
H1383 H 0.28649 0.83565 0.43336 0.0
H1384 H 0.3065 0.88145 0.43171 0.0
H1385 H 0.29681 0.88503 0.37564 0.0
H1386 H 0.33013 0.88918 0.39059 0.0
H1387 H 0.38378 0.81797 0.30872 0.0
H1388 H 0.36508 0.8303 0.23778 0.0
H1389 H 0.29786 0.86106 0.30416 0.0
C1390 C 0.3429 0.84111 0.46169 0.0
C1391 C 0.36664 0.83363 0.48021 0.0
C1392 C 0.38647 0.82409 0.45295 0.0
C1393 C 0.38272 0.82207 0.4077 0.0
C1394 C 0.35911 0.82984 0.39043 0.0
C1395 C 0.33962 0.83937 0.41656 0.0
C1396 C 0.31713 0.84892 0.38964 0.0
C1397 C 0.29277 0.83298 0.39896 0.0
C1398 C 0.31239 0.87785 0.39735 0.0
C1399 C 0.32723 0.84383 0.34417 0.0
C1400 C 0.35123 0.8323 0.34533 0.0
C1401 C 0.36489 0.82676 0.30738 0.0
C1402 C 0.35403 0.83377 0.26721 0.0
C1403 C 0.32994 0.84661 0.26541 0.0
C1404 C 0.31622 0.85116 0.30444 0.0
H1405 H 0.87353 0.66557 0.67232 0.0
H1406 H 0.80235 0.70615 0.69911 0.0
H1407 H 0.7891 0.70055 0.62171 0.0
H1408 H 0.88397 0.68742 0.56091 0.0
H1409 H 0.89525 0.65634 0.54295 0.0
H1410 H 0.90003 0.6662 0.59879 0.0
H1411 H 0.87674 0.6249 0.62561 0.0
H1412 H 0.8718 0.61494 0.56993 0.0
H1413 H 0.84468 0.618 0.60629 0.0
H1414 H 0.78386 0.68972 0.54087 0.0
H1415 H 0.78501 0.6711 0.4663 0.0
H1416 H 0.85809 0.63463 0.49624 0.0
C1417 C 0.85542 0.6738 0.66159 0.0
C1418 C 0.83916 0.68679 0.6911 0.0
C1419 C 0.81515 0.69642 0.67658 0.0
C1420 C 0.80755 0.69337 0.63279 0.0
C1421 C 0.824 0.68021 0.60449 0.0
C1422 C 0.8473 0.67032 0.61856 0.0
C1423 C 0.86043 0.65486 0.58321 0.0
C1424 C 0.88646 0.66694 0.57073 0.0
C1425 C 0.86358 0.6265 0.59709 0.0
C1426 C 0.84097 0.65764 0.5468 0.0
C1427 C 0.82025 0.67263 0.55933 0.0
C1428 C 0.79997 0.67792 0.53078 0.0
C1429 C 0.80081 0.66735 0.48853 0.0
C1430 C 0.82155 0.65134 0.47573 0.0
C1431 C 0.84187 0.64663 0.50528 0.0
H1432 H 0.30602 0.23005 0.35918 0.0
H1433 H 0.36815 0.26607 0.2864 0.0
H1434 H 0.34391 0.30709 0.2856 0.0
H1435 H 0.25593 0.25798 0.30239 0.0
H1436 H 0.23527 0.26167 0.34928 0.0
H1437 H 0.25894 0.23644 0.34834 0.0
H1438 H 0.27835 0.25351 0.42094 0.0
H1439 H 0.25468 0.27888 0.42207 0.0
H1440 H 0.28848 0.28667 0.42465 0.0
H1441 H 0.31064 0.34313 0.28752 0.0
H1442 H 0.27102 0.3699 0.29025 0.0
H1443 H 0.23216 0.30902 0.36166 0.0
C1444 C 0.31475 0.24658 0.34342 0.0
C1445 C 0.3389 0.24485 0.32273 0.0
C1446 C 0.34963 0.26699 0.30256 0.0
C1447 C 0.33607 0.29038 0.30207 0.0
C1448 C 0.31207 0.29126 0.32233 0.0
C1449 C 0.30164 0.26991 0.34279 0.0
C1450 C 0.2749 0.27505 0.35965 0.0
C1451 C 0.25511 0.25671 0.33863 0.0
C1452 C 0.27407 0.27344 0.4098 0.0
C1453 C 0.27144 0.30236 0.34406 0.0
C1454 C 0.29313 0.31168 0.32324 0.0
C1455 C 0.29365 0.33614 0.30422 0.0
C1456 C 0.27117 0.35118 0.30592 0.0
C1457 C 0.24863 0.34134 0.32584 0.0
C1458 C 0.2491 0.31693 0.34591 0.0
H1459 H 0.25827 0.65521 0.6994 0.0
H1460 H 0.20785 0.67486 0.59148 0.0
H1461 H 0.23962 0.70632 0.56466 0.0
H1462 H 0.27497 0.71671 0.72372 0.0
H1463 H 0.3081 0.71076 0.7382 0.0
H1464 H 0.2847 0.68544 0.74343 0.0
H1465 H 0.31226 0.65597 0.6936 0.0
H1466 H 0.33591 0.68125 0.68839 0.0
H1467 H 0.32173 0.66718 0.64021 0.0
H1468 H 0.27171 0.74007 0.55688 0.0
H1469 H 0.3029 0.77508 0.5687 0.0
H1470 H 0.33312 0.73486 0.68211 0.0
C1471 C 0.25452 0.66559 0.66935 0.0
C1472 C 0.23095 0.66277 0.6472 0.0
C1473 C 0.22598 0.67699 0.60872 0.0
C1474 C 0.24395 0.69466 0.59305 0.0
C1475 C 0.26672 0.69782 0.61634 0.0
C1476 C 0.2722 0.68368 0.65359 0.0
C1477 C 0.2963 0.69357 0.67584 0.0
C1478 C 0.29066 0.70213 0.72306 0.0
C1479 C 0.31783 0.67328 0.6744 0.0
C1480 C 0.30252 0.7163 0.64668 0.0
C1481 C 0.28554 0.71796 0.61201 0.0
C1482 C 0.28555 0.73872 0.58324 0.0
C1483 C 0.30315 0.75861 0.59046 0.0
C1484 C 0.32036 0.75755 0.62626 0.0
C1485 C 0.32045 0.73585 0.65404 0.0
H1486 H 0.66424 0.74908 0.38131 0.0
H1487 H 0.60538 0.71364 0.30043 0.0
H1488 H 0.62882 0.67229 0.30387 0.0
H1489 H 0.71489 0.72324 0.33029 0.0
H1490 H 0.73473 0.71861 0.378 0.0
H1491 H 0.71052 0.74325 0.37787 0.0
H1492 H 0.69 0.72353 0.44752 0.0
H1493 H 0.71434 0.69875 0.44796 0.0
H1494 H 0.68073 0.69005 0.44789 0.0
H1495 H 0.6624 0.6374 0.30533 0.0
H1496 H 0.7034 0.61306 0.30295 0.0
H1497 H 0.73978 0.67204 0.38206 0.0
C1498 C 0.65587 0.73248 0.36523 0.0
C1499 C 0.63306 0.7346 0.34049 0.0
C1500 C 0.62282 0.71244 0.31974 0.0
C1501 C 0.63592 0.68883 0.3217 0.0
C1502 C 0.65894 0.68769 0.3451 0.0
C1503 C 0.66865 0.70894 0.36686 0.0
C1504 C 0.69525 0.70395 0.38482 0.0
C1505 C 0.71499 0.7234 0.36662 0.0
C1506 C 0.69505 0.70407 0.43503 0.0
C1507 C 0.69974 0.67718 0.36728 0.0
C1508 C 0.67838 0.66773 0.34555 0.0
C1509 C 0.67904 0.64434 0.32309 0.0
C1510 C 0.70235 0.63066 0.32186 0.0
C1511 C 0.72461 0.64083 0.34219 0.0
C1512 C 0.72297 0.66387 0.36629 0.0
H1513 H 0.76763 0.29975 0.64622 0.0
H1514 H 0.73076 0.36475 0.70997 0.0
H1515 H 0.68891 0.34196 0.7063 0.0
H1516 H 0.71451 0.28383 0.57324 0.0
H1517 H 0.72034 0.24971 0.57795 0.0
H1518 H 0.74671 0.27212 0.58278 0.0
H1519 H 0.75849 0.25286 0.65847 0.0
H1520 H 0.73233 0.23035 0.65375 0.0
H1521 H 0.73425 0.25134 0.70055 0.0
H1522 H 0.65182 0.31029 0.69999 0.0
H1523 H 0.62338 0.27213 0.69393 0.0
H1524 H 0.68571 0.2294 0.6333 0.0
C1525 C 0.75081 0.30933 0.65936 0.0
C1526 C 0.75244 0.33392 0.67862 0.0
C1527 C 0.72989 0.34584 0.69507 0.0
C1528 C 0.70607 0.33313 0.69296 0.0
C1529 C 0.70524 0.30878 0.67382 0.0
C1530 C 0.72706 0.29712 0.65722 0.0
C1531 C 0.72158 0.27045 0.64021 0.0
C1532 C 0.72604 0.26896 0.5906 0.0
C1533 C 0.7376 0.25006 0.66473 0.0
C1534 C 0.69339 0.26848 0.65118 0.0
C1535 C 0.68409 0.29083 0.66997 0.0
C1536 C 0.6588 0.29279 0.68485 0.0
C1537 C 0.64281 0.27109 0.68122 0.0
C1538 C 0.65244 0.24783 0.66334 0.0
C1539 C 0.67782 0.24687 0.64726 0.0
H1540 H 0.76351 0.84867 0.81351 0.0
H1541 H 0.7154 0.82269 0.92023 0.0
H1542 H 0.75064 0.79525 0.94729 0.0
H1543 H 0.78352 0.79181 0.7852 0.0
H1544 H 0.81619 0.79958 0.77015 0.0
H1545 H 0.79196 0.82409 0.76861 0.0
H1546 H 0.81924 0.85251 0.82064 0.0
H1547 H 0.84374 0.82788 0.8223 0.0
H1548 H 0.82982 0.8397 0.87237 0.0
H1549 H 0.78406 0.76335 0.95121 0.0
H1550 H 0.81183 0.72732 0.92915 0.0
H1551 H 0.83912 0.77176 0.81851 0.0
C1552 C 0.76106 0.838 0.84363 0.0
C1553 C 0.73717 0.83768 0.86518 0.0
C1554 C 0.73381 0.823 0.90356 0.0
C1555 C 0.7538 0.80769 0.91942 0.0
C1556 C 0.7769 0.80723 0.89628 0.0
C1557 C 0.78072 0.82207 0.85918 0.0
C1558 C 0.80472 0.81383 0.83491 0.0
C1559 C 0.7987 0.80689 0.78694 0.0
C1560 C 0.82562 0.83473 0.83775 0.0
C1561 C 0.81213 0.79038 0.86146 0.0
C1562 C 0.79658 0.78771 0.89793 0.0
C1563 C 0.79688 0.76556 0.92361 0.0
C1564 C 0.8125 0.7451 0.91059 0.0
C1565 C 0.82742 0.74693 0.8721 0.0
C1566 C 0.82823 0.77024 0.84856 0.0
H1567 H 0.72691 0.18946 0.12509 0.0
H1568 H 0.77354 0.12008 0.12628 0.0
H1569 H 0.81201 0.14591 0.10888 0.0
H1570 H 0.76562 0.22592 0.03917 0.0
H1571 H 0.76121 0.25578 0.06829 0.0
H1572 H 0.73643 0.23143 0.06961 0.0
H1573 H 0.7378 0.23164 0.1543 0.0
H1574 H 0.76247 0.25583 0.15322 0.0
H1575 H 0.76801 0.22594 0.18175 0.0
H1576 H 0.84584 0.17902 0.10589 0.0
H1577 H 0.8728 0.21704 0.12073 0.0
H1578 H 0.80451 0.26526 0.12195 0.0
C1579 C 0.74506 0.17961 0.12014 0.0
C1580 C 0.74728 0.15282 0.1269 0.0
C1581 C 0.77145 0.14064 0.12132 0.0
C1582 C 0.79335 0.15511 0.11096 0.0
C1583 C 0.79069 0.18165 0.10602 0.0
C1584 C 0.76712 0.19381 0.11021 0.0
C1585 C 0.77003 0.2228 0.11026 0.0
C1586 C 0.75758 0.23468 0.06939 0.0
C1587 C 0.75894 0.23472 0.15239 0.0
C1588 C 0.79904 0.22501 0.10856 0.0
C1589 C 0.81055 0.20109 0.10474 0.0
C1590 C 0.83711 0.19792 0.10781 0.0
C1591 C 0.85225 0.21961 0.11653 0.0
C1592 C 0.84071 0.24408 0.12254 0.0
C1593 C 0.8139 0.24689 0.11675 0.0
H1594 H 0.1475 0.21257 0.83566 0.0
H1595 H 0.18228 0.26951 0.92099 0.0
H1596 H 0.21368 0.23729 0.94618 0.0
H1597 H 0.16346 0.15289 0.90683 0.0
H1598 H 0.17008 0.13436 0.85833 0.0
H1599 H 0.14546 0.15887 0.85748 0.0
H1600 H 0.1679 0.18051 0.79134 0.0
H1601 H 0.19251 0.15634 0.79213 0.0
H1602 H 0.20125 0.18989 0.79588 0.0
H1603 H 0.24687 0.20417 0.94776 0.0
H1604 H 0.27958 0.17257 0.9252 0.0
H1605 H 0.22389 0.13641 0.83901 0.0
C1606 C 0.16105 0.21786 0.86103 0.0
C1607 C 0.16258 0.2434 0.87636 0.0
C1608 C 0.18093 0.24999 0.90867 0.0
C1609 C 0.19864 0.23174 0.92358 0.0
C1610 C 0.19757 0.20699 0.90611 0.0
C1611 C 0.17904 0.1999 0.87585 0.0
C1612 C 0.18486 0.17382 0.85621 0.0
C1613 C 0.16477 0.1538 0.87059 0.0
C1614 C 0.18677 0.17526 0.80596 0.0
C1615 C 0.21072 0.16853 0.87706 0.0
C1616 C 0.21726 0.18743 0.90693 0.0
C1617 C 0.24172 0.18881 0.92551 0.0
C1618 C 0.26024 0.17094 0.91217 0.0
C1619 C 0.25419 0.15213 0.88032 0.0
C1620 C 0.22886 0.1503 0.86402 0.0
H1621 H 0.19238 0.72496 0.13186 0.0
H1622 H 0.12392 0.77274 0.12297 0.0
H1623 H 0.15064 0.80953 0.10033 0.0
H1624 H 0.22997 0.76892 0.1814 0.0
H1625 H 0.25964 0.761 0.15398 0.0
H1626 H 0.23497 0.73701 0.1597 0.0
H1627 H 0.2345 0.73021 0.0758 0.0
H1628 H 0.25932 0.75427 0.06981 0.0
H1629 H 0.22949 0.7574 0.04014 0.0
H1630 H 0.1843 0.84244 0.09327 0.0
H1631 H 0.22302 0.86942 0.10249 0.0
H1632 H 0.27008 0.80077 0.11394 0.0
C1633 C 0.18292 0.74293 0.12382 0.0
C1634 C 0.15608 0.74598 0.12922 0.0
C1635 C 0.14447 0.76996 0.11922 0.0
C1636 C 0.15946 0.79093 0.10591 0.0
C1637 C 0.18596 0.78752 0.10229 0.0
C1638 C 0.19762 0.76408 0.1106 0.0
C1639 C 0.22668 0.7664 0.10999 0.0
C1640 C 0.23848 0.75784 0.15387 0.0
C1641 C 0.23817 0.75117 0.07164 0.0
C1642 C 0.22948 0.79512 0.10293 0.0
C1643 C 0.20575 0.80682 0.09754 0.0
C1644 C 0.20305 0.8335 0.09617 0.0
C1645 C 0.22507 0.84865 0.10169 0.0
C1646 C 0.24939 0.83703 0.10844 0.0
C1647 C 0.25175 0.80999 0.10756 0.0
loop_
_geom_bond_atom_site_label_1
_geom_bond_atom_site_label_2
_geom_bond_distance
_geom_bond_site_symmetry_2
_ccdc_geom_bond_type
Sc0 O3 2.025 . S
Sc0 O10 2.105 . S
Sc0 O13 2.105 . S
Sc0 O16 2.105 . S
Sc0 O19 2.105 . S
Sc1 O3 2.025 . S
Sc1 O11 2.105 . S
Sc1 O15 2.105 . S
Sc1 O17 2.105 . S
Sc1 O21 2.105 . S
Sc2 O3 2.025 . S
Sc2 O12 2.105 . S
Sc2 O14 2.105 . S
Sc2 O18 2.105 . S
Sc2 O20 2.105 . S
O3 Sc0 2.025 . S
O3 Sc1 2.025 . S
O3 Sc2 2.025 . S
C4 O10 1.268 . S
C4 O20 1.268 . S
C5 O11 1.268 . S
C5 O19 1.268 . S
C6 O12 1.268 . S
C6 O21 1.268 . S
C7 O13 1.268 . S
C7 O17 1.268 . S
C8 O14 1.268 . S
C8 O16 1.268 . S
C9 O15 1.268 . S
C9 O18 1.268 . S
O10 Sc0 2.105 . S
O10 C4 1.268 . S
O11 Sc1 2.105 . S
O11 C5 1.268 . S
O12 Sc2 2.105 . S
O12 C6 1.268 . S
O13 Sc0 2.105 . S
O13 C7 1.268 . S
O14 Sc2 2.105 . S
O14 C8 1.268 . S
O15 Sc1 2.105 . S
O15 C9 1.268 . S
O16 Sc0 2.105 . S
O16 C8 1.268 . S
O17 Sc1 2.105 . S
O17 C7 1.268 . S
O18 Sc2 2.105 . S
O18 C9 1.268 . S
O19 Sc0 2.105 . S
O19 C5 1.268 . S
O20 Sc2 2.105 . S
O20 C4 1.268 . S
O21 Sc1 2.105 . S
O21 C6 1.268 . S
Sc22 O25 2.025 . S
Sc22 O32 2.105 . S
Sc22 O35 2.105 . S
Sc22 O38 2.105 . S
Sc22 O41 2.105 . S
Sc23 O25 2.025 . S
Sc23 O33 2.105 . S
Sc23 O37 2.105 . S
Sc23 O39 2.105 . S
Sc23 O43 2.105 . S
Sc24 O25 2.025 . S
Sc24 O34 2.105 . S
Sc24 O36 2.105 . S
Sc24 O40 2.105 . S
Sc24 O42 2.105 . S
O25 Sc22 2.025 . S
O25 Sc23 2.025 . S
O25 Sc24 2.025 . S
C26 O32 1.268 . S
C26 O42 1.268 . S
C27 O33 1.268 . S
C27 O41 1.268 . S
C28 O34 1.268 . S
C28 O43 1.268 . S
C29 O35 1.268 . S
C29 O39 1.268 . S
C30 O36 1.268 . S
C30 O38 1.268 . S
C31 O37 1.268 . S
C31 O40 1.268 . S
O32 Sc22 2.105 . S
O32 C26 1.268 . S
O33 Sc23 2.105 . S
O33 C27 1.268 . S
O34 Sc24 2.105 . S
O34 C28 1.268 . S
O35 Sc22 2.105 . S
O35 C29 1.268 . S
O36 Sc24 2.105 . S
O36 C30 1.268 . S
O37 Sc23 2.105 . S
O37 C31 1.268 . S
O38 Sc22 2.105 . S
O38 C30 1.268 . S
O39 Sc23 2.105 . S
O39 C29 1.268 . S
O40 Sc24 2.105 . S
O40 C31 1.268 . S
O41 Sc22 2.105 . S
O41 C27 1.268 . S
O42 Sc24 2.105 . S
O42 C26 1.268 . S
O43 Sc23 2.105 . S
O43 C28 1.268 . S
Sc44 O47 2.025 . S
Sc44 O54 2.105 . S
Sc44 O57 2.105 . S
Sc44 O60 2.105 . S
Sc44 O63 2.105 . S
Sc45 O47 2.025 . S
Sc45 O55 2.105 . S
Sc45 O59 2.105 . S
Sc45 O61 2.105 . S
Sc45 O65 2.105 . S
Sc46 O47 2.025 . S
Sc46 O56 2.105 . S
Sc46 O58 2.105 . S
Sc46 O62 2.105 . S
Sc46 O64 2.105 . S
O47 Sc44 2.025 . S
O47 Sc45 2.025 . S
O47 Sc46 2.025 . S
C48 O54 1.268 . S
C48 O64 1.268 . S
C49 O55 1.268 . S
C49 O63 1.268 . S
C50 O56 1.268 . S
C50 O65 1.268 . S
C51 O57 1.268 . S
C51 O61 1.268 . S
C52 O58 1.268 . S
C52 O60 1.268 . S
C53 O59 1.268 . S
C53 O62 1.268 . S
O54 Sc44 2.105 . S
O54 C48 1.268 . S
O55 Sc45 2.105 . S
O55 C49 1.268 . S
O56 Sc46 2.105 . S
O56 C50 1.268 . S
O57 Sc44 2.105 . S
O57 C51 1.268 . S
O58 Sc46 2.105 . S
O58 C52 1.268 . S
O59 Sc45 2.105 . S
O59 C53 1.268 . S
O60 Sc44 2.105 . S
O60 C52 1.268 . S
O61 Sc45 2.105 . S
O61 C51 1.268 . S
O62 Sc46 2.105 . S
O62 C53 1.268 . S
O63 Sc44 2.105 . S
O63 C49 1.268 . S
O64 Sc46 2.105 . S
O64 C48 1.268 . S
O65 Sc45 2.105 . S
O65 C50 1.268 . S
Sc66 O69 2.025 . S
Sc66 O76 2.105 . S
Sc66 O79 2.105 . S
Sc66 O82 2.105 . S
Sc66 O85 2.105 . S
Sc67 O69 2.025 . S
Sc67 O77 2.105 . S
Sc67 O81 2.105 . S
Sc67 O83 2.105 . S
Sc67 O87 2.105 . S
Sc68 O69 2.025 . S
Sc68 O78 2.105 . S
Sc68 O80 2.105 . S
Sc68 O84 2.105 . S
Sc68 O86 2.105 . S
O69 Sc66 2.025 . S
O69 Sc67 2.025 . S
O69 Sc68 2.025 . S
C70 O76 1.268 . S
C70 O86 1.268 . S
C71 O77 1.268 . S
C71 O85 1.268 . S
C72 O78 1.268 . S
C72 O87 1.268 . S
C73 O79 1.268 . S
C73 O83 1.268 . S
C74 O80 1.268 . S
C74 O82 1.268 . S
C75 O81 1.268 . S
C75 O84 1.268 . S
O76 Sc66 2.105 . S
O76 C70 1.268 . S
O77 Sc67 2.105 . S
O77 C71 1.268 . S
O78 Sc68 2.105 . S
O78 C72 1.268 . S
O79 Sc66 2.105 . S
O79 C73 1.268 . S
O80 Sc68 2.105 . S
O80 C74 1.268 . S
O81 Sc67 2.105 . S
O81 C75 1.268 . S
O82 Sc66 2.105 . S
O82 C74 1.268 . S
O83 Sc67 2.105 . S
O83 C73 1.268 . S
O84 Sc68 2.105 . S
O84 C75 1.268 . S
O85 Sc66 2.105 . S
O85 C71 1.268 . S
O86 Sc68 2.105 . S
O86 C70 1.268 . S
O87 Sc67 2.105 . S
O87 C72 1.268 . S
Sc88 O91 2.025 . S
Sc88 O98 2.105 . S
Sc88 O101 2.105 . S
Sc88 O104 2.105 . S
Sc88 O107 2.105 . S
Sc89 O91 2.025 . S
Sc89 O99 2.105 . S
Sc89 O103 2.105 . S
Sc89 O105 2.105 . S
Sc89 O109 2.105 . S
Sc90 O91 2.025 . S
Sc90 O100 2.105 . S
Sc90 O102 2.105 . S
Sc90 O106 2.105 . S
Sc90 O108 2.105 . S
O91 Sc88 2.025 . S
O91 Sc89 2.025 . S
O91 Sc90 2.025 . S
C92 O98 1.268 . S
C92 O108 1.268 . S
C93 O99 1.268 . S
C93 O107 1.268 . S
C94 O100 1.268 . S
C94 O109 1.268 . S
C95 O101 1.268 . S
C95 O105 1.268 . S
C96 O102 1.268 . S
C96 O104 1.268 . S
C97 O103 1.268 . S
C97 O106 1.268 . S
O98 Sc88 2.105 . S
O98 C92 1.268 . S
O99 Sc89 2.105 . S
O99 C93 1.268 . S
O100 Sc90 2.105 . S
O100 C94 1.268 . S
O101 Sc88 2.105 . S
O101 C95 1.268 . S
O102 Sc90 2.105 . S
O102 C96 1.268 . S
O103 Sc89 2.105 . S
O103 C97 1.268 . S
O104 Sc88 2.105 . S
O104 C96 1.268 . S
O105 Sc89 2.105 . S
O105 C95 1.268 . S
O106 Sc90 2.105 . S
O106 C97 1.268 . S
O107 Sc88 2.105 . S
O107 C93 1.268 . S
O108 Sc90 2.105 . S
O108 C92 1.268 . S
O109 Sc89 2.105 . S
O109 C94 1.268 . S
Sc110 O113 2.025 . S
Sc110 O120 2.105 . S
Sc110 O123 2.105 . S
Sc110 O126 2.105 . S
Sc110 O129 2.105 . S
Sc111 O113 2.025 . S
Sc111 O121 2.105 . S
Sc111 O125 2.105 . S
Sc111 O127 2.105 . S
Sc111 O131 2.105 . S
Sc112 O113 2.025 . S
Sc112 O122 2.105 . S
Sc112 O124 2.105 . S
Sc112 O128 2.105 . S
Sc112 O130 2.105 . S
O113 Sc110 2.025 . S
O113 Sc111 2.025 . S
O113 Sc112 2.025 . S
C114 O120 1.268 . S
C114 O130 1.268 . S
C115 O121 1.268 . S
C115 O129 1.268 . S
C116 O122 1.268 . S
C116 O131 1.268 . S
C117 O123 1.268 . S
C117 O127 1.268 . S
C118 O124 1.268 . S
C118 O126 1.268 . S
C119 O125 1.268 . S
C119 O128 1.268 . S
O120 Sc110 2.105 . S
O120 C114 1.268 . S
O121 Sc111 2.105 . S
O121 C115 1.268 . S
O122 Sc112 2.105 . S
O122 C116 1.268 . S
O123 Sc110 2.105 . S
O123 C117 1.268 . S
O124 Sc112 2.105 . S
O124 C118 1.268 . S
O125 Sc111 2.105 . S
O125 C119 1.268 . S
O126 Sc110 2.105 . S
O126 C118 1.268 . S
O127 Sc111 2.105 . S
O127 C117 1.268 . S
O128 Sc112 2.105 . S
O128 C119 1.268 . S
O129 Sc110 2.105 . S
O129 C115 1.268 . S
O130 Sc112 2.105 . S
O130 C114 1.268 . S
O131 Sc111 2.105 . S
O131 C116 1.268 . S
Sc132 O135 2.025 . S
Sc132 O142 2.105 . S
Sc132 O145 2.105 . S
Sc132 O148 2.105 . S
Sc132 O151 2.105 . S
Sc133 O135 2.025 . S
Sc133 O143 2.105 . S
Sc133 O147 2.105 . S
Sc133 O149 2.105 . S
Sc133 O153 2.105 . S
Sc134 O135 2.025 . S
Sc134 O144 2.105 . S
Sc134 O146 2.105 . S
Sc134 O150 2.105 . S
Sc134 O152 2.105 . S
O135 Sc132 2.025 . S
O135 Sc133 2.025 . S
O135 Sc134 2.025 . S
C136 O142 1.268 . S
C136 O152 1.268 . S
C137 O143 1.268 . S
C137 O151 1.268 . S
C138 O144 1.268 . S
C138 O153 1.268 . S
C139 O145 1.268 . S
C139 O149 1.268 . S
C140 O146 1.268 . S
C140 O148 1.268 . S
C141 O147 1.268 . S
C141 O150 1.268 . S
O142 Sc132 2.105 . S
O142 C136 1.268 . S
O143 Sc133 2.105 . S
O143 C137 1.268 . S
O144 Sc134 2.105 . S
O144 C138 1.268 . S
O145 Sc132 2.105 . S
O145 C139 1.268 . S
O146 Sc134 2.105 . S
O146 C140 1.268 . S
O147 Sc133 2.105 . S
O147 C141 1.268 . S
O148 Sc132 2.105 . S
O148 C140 1.268 . S
O149 Sc133 2.105 . S
O149 C139 1.268 . S
O150 Sc134 2.105 . S
O150 C141 1.268 . S
O151 Sc132 2.105 . S
O151 C137 1.268 . S
O152 Sc134 2.105 . S
O152 C136 1.268 . S
O153 Sc133 2.105 . S
O153 C138 1.268 . S
Sc154 O157 2.025 . S
Sc154 O164 2.105 . S
Sc154 O167 2.105 . S
Sc154 O170 2.105 . S
Sc154 O173 2.105 . S
Sc155 O157 2.025 . S
Sc155 O165 2.105 . S
Sc155 O169 2.105 . S
Sc155 O171 2.105 . S
Sc155 O175 2.105 . S
Sc156 O157 2.025 . S
Sc156 O166 2.105 . S
Sc156 O168 2.105 . S
Sc156 O172 2.105 . S
Sc156 O174 2.105 . S
O157 Sc154 2.025 . S
O157 Sc155 2.025 . S
O157 Sc156 2.025 . S
C158 O164 1.268 . S
C158 O174 1.268 . S
C159 O165 1.268 . S
C159 O173 1.268 . S
C160 O166 1.268 . S
C160 O175 1.268 . S
C161 O167 1.268 . S
C161 O171 1.268 . S
C162 O168 1.268 . S
C162 O170 1.268 . S
C163 O169 1.268 . S
C163 O172 1.268 . S
O164 Sc154 2.105 . S
O164 C158 1.268 . S
O165 Sc155 2.105 . S
O165 C159 1.268 . S
O166 Sc156 2.105 . S
O166 C160 1.268 . S
O167 Sc154 2.105 . S
O167 C161 1.268 . S
O168 Sc156 2.105 . S
O168 C162 1.268 . S
O169 Sc155 2.105 . S
O169 C163 1.268 . S
O170 Sc154 2.105 . S
O170 C162 1.268 . S
O171 Sc155 2.105 . S
O171 C161 1.268 . S
O172 Sc156 2.105 . S
O172 C163 1.268 . S
O173 Sc154 2.105 . S
O173 C159 1.268 . S
O174 Sc156 2.105 . S
O174 C158 1.268 . S
O175 Sc155 2.105 . S
O175 C160 1.268 . S
Sc176 O179 2.025 . S
Sc176 O186 2.105 . S
Sc176 O189 2.105 . S
Sc176 O192 2.105 . S
Sc176 O195 2.105 . S
Sc177 O179 2.025 . S
Sc177 O187 2.105 . S
Sc177 O191 2.105 . S
Sc177 O193 2.105 . S
Sc177 O197 2.105 . S
Sc178 O179 2.025 . S
Sc178 O188 2.105 . S
Sc178 O190 2.105 . S
Sc178 O194 2.105 . S
Sc178 O196 2.105 . S
O179 Sc176 2.025 . S
O179 Sc177 2.025 . S
O179 Sc178 2.025 . S
C180 O186 1.268 . S
C180 O196 1.268 . S
C181 O187 1.268 . S
C181 O195 1.268 . S
C182 O188 1.268 . S
C182 O197 1.268 . S
C183 O189 1.268 . S
C183 O193 1.268 . S
C184 O190 1.268 . S
C184 O192 1.268 . S
C185 O191 1.268 . S
C185 O194 1.268 . S
O186 Sc176 2.105 . S
O186 C180 1.268 . S
O187 Sc177 2.105 . S
O187 C181 1.268 . S
O188 Sc178 2.105 . S
O188 C182 1.268 . S
O189 Sc176 2.105 . S
O189 C183 1.268 . S
O190 Sc178 2.105 . S
O190 C184 1.268 . S
O191 Sc177 2.105 . S
O191 C185 1.268 . S
O192 Sc176 2.105 . S
O192 C184 1.268 . S
O193 Sc177 2.105 . S
O193 C183 1.268 . S
O194 Sc178 2.105 . S
O194 C185 1.268 . S
O195 Sc176 2.105 . S
O195 C181 1.268 . S
O196 Sc178 2.105 . S
O196 C180 1.268 . S
O197 Sc177 2.105 . S
O197 C182 1.268 . S
Sc198 O201 2.025 . S
Sc198 O208 2.105 . S
Sc198 O211 2.105 . S
Sc198 O214 2.105 . S
Sc198 O217 2.105 . S
Sc199 O201 2.025 . S
Sc199 O209 2.105 . S
Sc199 O213 2.105 . S
Sc199 O215 2.105 . S
Sc199 O219 2.105 . S
Sc200 O201 2.025 . S
Sc200 O210 2.105 . S
Sc200 O212 2.105 . S
Sc200 O216 2.105 . S
Sc200 O218 2.105 . S
O201 Sc198 2.025 . S
O201 Sc199 2.025 . S
O201 Sc200 2.025 . S
C202 O208 1.268 . S
C202 O218 1.268 . S
C203 O209 1.268 . S
C203 O217 1.268 . S
C204 O210 1.268 . S
C204 O219 1.268 . S
C205 O211 1.268 . S
C205 O215 1.268 . S
C206 O212 1.268 . S
C206 O214 1.268 . S
C207 O213 1.268 . S
C207 O216 1.268 . S
O208 Sc198 2.105 . S
O208 C202 1.268 . S
O209 Sc199 2.105 . S
O209 C203 1.268 . S
O210 Sc200 2.105 . S
O210 C204 1.268 . S
O211 Sc198 2.105 . S
O211 C205 1.268 . S
O212 Sc200 2.105 . S
O212 C206 1.268 . S
O213 Sc199 2.105 . S
O213 C207 1.268 . S
O214 Sc198 2.105 . S
O214 C206 1.268 . S
O215 Sc199 2.105 . S
O215 C205 1.268 . S
O216 Sc200 2.105 . S
O216 C207 1.268 . S
O217 Sc198 2.105 . S
O217 C203 1.268 . S
O218 Sc200 2.105 . S
O218 C202 1.268 . S
O219 Sc199 2.105 . S
O219 C204 1.268 . S
Sc220 O223 2.025 . S
Sc220 O230 2.105 . S
Sc220 O233 2.105 . S
Sc220 O236 2.105 . S
Sc220 O239 2.105 . S
Sc221 O223 2.025 . S
Sc221 O231 2.105 . S
Sc221 O235 2.105 . S
Sc221 O237 2.105 . S
Sc221 O241 2.105 . S
Sc222 O223 2.025 . S
Sc222 O232 2.105 . S
Sc222 O234 2.105 . S
Sc222 O238 2.105 . S
Sc222 O240 2.105 . S
O223 Sc220 2.025 . S
O223 Sc221 2.025 . S
O223 Sc222 2.025 . S
C224 O230 1.268 . S
C224 O240 1.268 . S
C225 O231 1.268 . S
C225 O239 1.268 . S
C226 O232 1.268 . S
C226 O241 1.268 . S
C227 O233 1.268 . S
C227 O237 1.268 . S
C228 O234 1.268 . S
C228 O236 1.268 . S
C229 O235 1.268 . S
C229 O238 1.268 . S
O230 Sc220 2.105 . S
O230 C224 1.268 . S
O231 Sc221 2.105 . S
O231 C225 1.268 . S
O232 Sc222 2.105 . S
O232 C226 1.268 . S
O233 Sc220 2.105 . S
O233 C227 1.268 . S
O234 Sc222 2.105 . S
O234 C228 1.268 . S
O235 Sc221 2.105 . S
O235 C229 1.268 . S
O236 Sc220 2.105 . S
O236 C228 1.268 . S
O237 Sc221 2.105 . S
O237 C227 1.268 . S
O238 Sc222 2.105 . S
O238 C229 1.268 . S
O239 Sc220 2.105 . S
O239 C225 1.268 . S
O240 Sc222 2.105 . S
O240 C224 1.268 . S
O241 Sc221 2.105 . S
O241 C226 1.268 . S
Sc242 O245 2.025 . S
Sc242 O252 2.105 . S
Sc242 O255 2.105 . S
Sc242 O258 2.105 . S
Sc242 O261 2.105 . S
Sc243 O245 2.025 . S
Sc243 O253 2.105 . S
Sc243 O257 2.105 . S
Sc243 O259 2.105 . S
Sc243 O263 2.105 . S
Sc244 O245 2.025 . S
Sc244 O254 2.105 . S
Sc244 O256 2.105 . S
Sc244 O260 2.105 . S
Sc244 O262 2.105 . S
O245 Sc242 2.025 . S
O245 Sc243 2.025 . S
O245 Sc244 2.025 . S
C246 O252 1.268 . S
C246 O262 1.268 . S
C247 O253 1.268 . S
C247 O261 1.268 . S
C248 O254 1.268 . S
C248 O263 1.268 . S
C249 O255 1.268 . S
C249 O259 1.268 . S
C250 O256 1.268 . S
C250 O258 1.268 . S
C251 O257 1.268 . S
C251 O260 1.268 . S
O252 Sc242 2.105 . S
O252 C246 1.268 . S
O253 Sc243 2.105 . S
O253 C247 1.268 . S
O254 Sc244 2.105 . S
O254 C248 1.268 . S
O255 Sc242 2.105 . S
O255 C249 1.268 . S
O256 Sc244 2.105 . S
O256 C250 1.268 . S
O257 Sc243 2.105 . S
O257 C251 1.268 . S
O258 Sc242 2.105 . S
O258 C250 1.268 . S
O259 Sc243 2.105 . S
O259 C249 1.268 . S
O260 Sc244 2.105 . S
O260 C251 1.268 . S
O261 Sc242 2.105 . S
O261 C247 1.268 . S
O262 Sc244 2.105 . S
O262 C246 1.268 . S
O263 Sc243 2.105 . S
O263 C248 1.268 . S
Sc264 O267 2.025 . S
Sc264 O274 2.105 . S
Sc264 O277 2.105 . S
Sc264 O280 2.105 . S
Sc264 O283 2.105 . S
Sc265 O267 2.025 . S
Sc265 O275 2.105 . S
Sc265 O279 2.105 . S
Sc265 O281 2.105 . S
Sc265 O285 2.105 . S
Sc266 O267 2.025 . S
Sc266 O276 2.105 . S
Sc266 O278 2.105 . S
Sc266 O282 2.105 . S
Sc266 O284 2.105 . S
O267 Sc264 2.025 . S
O267 Sc265 2.025 . S
O267 Sc266 2.025 . S
C268 O274 1.268 . S
C268 O284 1.268 . S
C269 O275 1.268 . S
C269 O283 1.268 . S
C270 O276 1.268 . S
C270 O285 1.268 . S
C271 O277 1.268 . S
C271 O281 1.268 . S
C272 O278 1.268 . S
C272 O280 1.268 . S
C273 O279 1.268 . S
C273 O282 1.268 . S
O274 Sc264 2.105 . S
O274 C268 1.268 . S
O275 Sc265 2.105 . S
O275 C269 1.268 . S
O276 Sc266 2.105 . S
O276 C270 1.268 . S
O277 Sc264 2.105 . S
O277 C271 1.268 . S
O278 Sc266 2.105 . S
O278 C272 1.268 . S
O279 Sc265 2.105 . S
O279 C273 1.268 . S
O280 Sc264 2.105 . S
O280 C272 1.268 . S
O281 Sc265 2.105 . S
O281 C271 1.268 . S
O282 Sc266 2.105 . S
O282 C273 1.268 . S
O283 Sc264 2.105 . S
O283 C269 1.268 . S
O284 Sc266 2.105 . S
O284 C268 1.268 . S
O285 Sc265 2.105 . S
O285 C270 1.268 . S
Sc286 O289 2.025 . S
Sc286 O296 2.105 . S
Sc286 O299 2.105 . S
Sc286 O302 2.105 . S
Sc286 O305 2.105 . S
Sc287 O289 2.025 . S
Sc287 O297 2.105 . S
Sc287 O301 2.105 . S
Sc287 O303 2.105 . S
Sc287 O307 2.105 . S
Sc288 O289 2.025 . S
Sc288 O298 2.105 . S
Sc288 O300 2.105 . S
Sc288 O304 2.105 . S
Sc288 O306 2.105 . S
O289 Sc286 2.025 . S
O289 Sc287 2.025 . S
O289 Sc288 2.025 . S
C290 O296 1.268 . S
C290 O306 1.268 . S
C291 O297 1.268 . S
C291 O305 1.268 . S
C292 O298 1.268 . S
C292 O307 1.268 . S
C293 O299 1.268 . S
C293 O303 1.268 . S
C294 O300 1.268 . S
C294 O302 1.268 . S
C295 O301 1.268 . S
C295 O304 1.268 . S
O296 Sc286 2.105 . S
O296 C290 1.268 . S
O297 Sc287 2.105 . S
O297 C291 1.268 . S
O298 Sc288 2.105 . S
O298 C292 1.268 . S
O299 Sc286 2.105 . S
O299 C293 1.268 . S
O300 Sc288 2.105 . S
O300 C294 1.268 . S
O301 Sc287 2.105 . S
O301 C295 1.268 . S
O302 Sc286 2.105 . S
O302 C294 1.268 . S
O303 Sc287 2.105 . S
O303 C293 1.268 . S
O304 Sc288 2.105 . S
O304 C295 1.268 . S
O305 Sc286 2.105 . S
O305 C291 1.268 . S
O306 Sc288 2.105 . S
O306 C290 1.268 . S
O307 Sc287 2.105 . S
O307 C292 1.268 . S
Sc308 O311 2.025 . S
Sc308 O318 2.105 . S
Sc308 O321 2.105 . S
Sc308 O324 2.105 . S
Sc308 O327 2.105 . S
Sc309 O311 2.025 . S
Sc309 O319 2.105 . S
Sc309 O323 2.105 . S
Sc309 O325 2.105 . S
Sc309 O329 2.105 . S
Sc310 O311 2.025 . S
Sc310 O320 2.105 . S
Sc310 O322 2.105 . S
Sc310 O326 2.105 . S
Sc310 O328 2.105 . S
O311 Sc308 2.025 . S
O311 Sc309 2.025 . S
O311 Sc310 2.025 . S
C312 O318 1.268 . S
C312 O328 1.268 . S
C313 O319 1.268 . S
C313 O327 1.268 . S
C314 O320 1.268 . S
C314 O329 1.268 . S
C315 O321 1.268 . S
C315 O325 1.268 . S
C316 O322 1.268 . S
C316 O324 1.268 . S
C317 O323 1.268 . S
C317 O326 1.268 . S
O318 Sc308 2.105 . S
O318 C312 1.268 . S
O319 Sc309 2.105 . S
O319 C313 1.268 . S
O320 Sc310 2.105 . S
O320 C314 1.268 . S
O321 Sc308 2.105 . S
O321 C315 1.268 . S
O322 Sc310 2.105 . S
O322 C316 1.268 . S
O323 Sc309 2.105 . S
O323 C317 1.268 . S
O324 Sc308 2.105 . S
O324 C316 1.268 . S
O325 Sc309 2.105 . S
O325 C315 1.268 . S
O326 Sc310 2.105 . S
O326 C317 1.268 . S
O327 Sc308 2.105 . S
O327 C313 1.268 . S
O328 Sc310 2.105 . S
O328 C312 1.268 . S
O329 Sc309 2.105 . S
O329 C314 1.268 . S
Sc330 O333 2.025 . S
Sc330 O340 2.105 . S
Sc330 O343 2.105 . S
Sc330 O346 2.105 . S
Sc330 O349 2.105 . S
Sc331 O333 2.025 . S
Sc331 O341 2.105 . S
Sc331 O345 2.105 . S
Sc331 O347 2.105 . S
Sc331 O351 2.105 . S
Sc332 O333 2.025 . S
Sc332 O342 2.105 . S
Sc332 O344 2.105 . S
Sc332 O348 2.105 . S
Sc332 O350 2.105 . S
O333 Sc330 2.025 . S
O333 Sc331 2.025 . S
O333 Sc332 2.025 . S
C334 O340 1.268 . S
C334 O350 1.268 . S
C335 O341 1.268 . S
C335 O349 1.268 . S
C336 O342 1.268 . S
C336 O351 1.268 . S
C337 O343 1.268 . S
C337 O347 1.268 . S
C338 O344 1.268 . S
C338 O346 1.268 . S
C339 O345 1.268 . S
C339 O348 1.268 . S
O340 Sc330 2.105 . S
O340 C334 1.268 . S
O341 Sc331 2.105 . S
O341 C335 1.268 . S
O342 Sc332 2.105 . S
O342 C336 1.268 . S
O343 Sc330 2.105 . S
O343 C337 1.268 . S
O344 Sc332 2.105 . S
O344 C338 1.268 . S
O345 Sc331 2.105 . S
O345 C339 1.268 . S
O346 Sc330 2.105 . S
O346 C338 1.268 . S
O347 Sc331 2.105 . S
O347 C337 1.268 . S
O348 Sc332 2.105 . S
O348 C339 1.268 . S
O349 Sc330 2.105 . S
O349 C335 1.268 . S
O350 Sc332 2.105 . S
O350 C334 1.268 . S
O351 Sc331 2.105 . S
O351 C336 1.268 . S
H352 C364 0.930 . S
H353 C366 0.930 . S
H354 C367 0.930 . S
H355 C371 0.959 . S
H356 C371 0.959 . S
H357 C371 0.961 . S
H358 C372 0.960 . S
H359 C372 0.961 . S
H360 C372 0.959 . S
H361 C375 0.929 . S
H362 C376 0.931 . S
H363 C378 0.930 . S
C364 H352 0.930 . S
C364 C365 1.399 . S
C364 C369 1.399 . S
C365 C364 1.399 . S
C365 C366 1.376 . S
C366 H353 0.930 . S
C366 C365 1.376 . S
C366 C367 1.388 . S
C367 H354 0.930 . S
C367 C366 1.388 . S
C367 C368 1.390 . S
C368 C367 1.390 . S
C368 C369 1.394 . S
C368 C374 1.465 . S
C369 C364 1.399 . S
C369 C368 1.394 . S
C369 C370 1.516 . S
C370 C369 1.516 . S
C370 C371 1.502 . S
C370 C372 1.561 . S
C370 C373 1.526 . S
C371 H355 0.959 . S
C371 H356 0.959 . S
C371 H357 0.961 . S
C371 C370 1.502 . S
C372 H358 0.960 . S
C372 H359 0.961 . S
C372 H360 0.959 . S
C372 C370 1.561 . S
C373 C370 1.526 . S
C373 C374 1.396 . S
C373 C378 1.390 . S
C374 C368 1.465 . S
C374 C373 1.396 . S
C374 C375 1.399 . S
C375 H361 0.929 . S
C375 C374 1.399 . S
C375 C376 1.385 . S
C376 H362 0.931 . S
C376 C375 1.385 . S
C376 C377 1.389 . S
C377 C376 1.389 . S
C377 C378 1.387 . S
C378 H363 0.930 . S
C378 C373 1.390 . S
C378 C377 1.387 . S
H379 C391 0.930 . S
H380 C393 0.930 . S
H381 C394 0.930 . S
H382 C398 0.959 . S
H383 C398 0.959 . S
H384 C398 0.961 . S
H385 C399 0.960 . S
H386 C399 0.961 . S
H387 C399 0.959 . S
H388 C402 0.929 . S
H389 C403 0.931 . S
H390 C405 0.930 . S
C391 H379 0.930 . S
C391 C392 1.399 . S
C391 C396 1.399 . S
C392 C391 1.399 . S
C392 C393 1.376 . S
C393 H380 0.930 . S
C393 C392 1.376 . S
C393 C394 1.388 . S
C394 H381 0.930 . S
C394 C393 1.388 . S
C394 C395 1.390 . S
C395 C394 1.390 . S
C395 C396 1.394 . S
C395 C401 1.465 . S
C396 C391 1.399 . S
C396 C395 1.394 . S
C396 C397 1.516 . S
C397 C396 1.516 . S
C397 C398 1.502 . S
C397 C399 1.561 . S
C397 C400 1.526 . S
C398 H382 0.959 . S
C398 H383 0.959 . S
C398 H384 0.961 . S
C398 C397 1.502 . S
C399 H385 0.960 . S
C399 H386 0.961 . S
C399 H387 0.959 . S
C399 C397 1.561 . S
C400 C397 1.526 . S
C400 C401 1.396 . S
C400 C405 1.390 . S
C401 C395 1.465 . S
C401 C400 1.396 . S
C401 C402 1.399 . S
C402 H388 0.929 . S
C402 C401 1.399 . S
C402 C403 1.385 . S
C403 H389 0.931 . S
C403 C402 1.385 . S
C403 C404 1.389 . S
C404 C403 1.389 . S
C404 C405 1.387 . S
C405 H390 0.930 . S
C405 C400 1.390 . S
C405 C404 1.387 . S
H406 C418 0.930 . S
H407 C420 0.930 . S
H408 C421 0.930 . S
H409 C425 0.959 . S
H410 C425 0.959 . S
H411 C425 0.961 . S
H412 C426 0.960 . S
H413 C426 0.961 . S
H414 C426 0.959 . S
H415 C429 0.929 . S
H416 C430 0.931 . S
H417 C432 0.930 . S
C418 H406 0.930 . S
C418 C419 1.399 . S
C418 C423 1.399 . S
C419 C418 1.399 . S
C419 C420 1.376 . S
C420 H407 0.930 . S
C420 C419 1.376 . S
C420 C421 1.388 . S
C421 H408 0.930 . S
C421 C420 1.388 . S
C421 C422 1.390 . S
C422 C421 1.390 . S
C422 C423 1.394 . S
C422 C428 1.465 . S
C423 C418 1.399 . S
C423 C422 1.394 . S
C423 C424 1.516 . S
C424 C423 1.516 . S
C424 C425 1.502 . S
C424 C426 1.561 . S
C424 C427 1.526 . S
C425 H409 0.959 . S
C425 H410 0.959 . S
C425 H411 0.961 . S
C425 C424 1.502 . S
C426 H412 0.960 . S
C426 H413 0.961 . S
C426 H414 0.959 . S
C426 C424 1.561 . S
C427 C424 1.526 . S
C427 C428 1.396 . S
C427 C432 1.390 . S
C428 C422 1.465 . S
C428 C427 1.396 . S
C428 C429 1.399 . S
C429 H415 0.929 . S
C429 C428 1.399 . S
C429 C430 1.385 . S
C430 H416 0.931 . S
C430 C429 1.385 . S
C430 C431 1.389 . S
C431 C430 1.389 . S
C431 C432 1.387 . S
C432 H417 0.930 . S
C432 C427 1.390 . S
C432 C431 1.387 . S
H433 C445 0.930 . S
H434 C447 0.930 . S
H435 C448 0.930 . S
H436 C452 0.959 . S
H437 C452 0.959 . S
H438 C452 0.961 . S
H439 C453 0.960 . S
H440 C453 0.961 . S
H441 C453 0.959 . S
H442 C456 0.929 . S
H443 C457 0.931 . S
H444 C459 0.930 . S
C445 H433 0.930 . S
C445 C446 1.399 . S
C445 C450 1.399 . S
C446 C445 1.399 . S
C446 C447 1.376 . S
C447 H434 0.930 . S
C447 C446 1.376 . S
C447 C448 1.388 . S
C448 H435 0.930 . S
C448 C447 1.388 . S
C448 C449 1.390 . S
C449 C448 1.390 . S
C449 C450 1.394 . S
C449 C455 1.465 . S
C450 C445 1.399 . S
C450 C449 1.394 . S
C450 C451 1.516 . S
C451 C450 1.516 . S
C451 C452 1.502 . S
C451 C453 1.561 . S
C451 C454 1.526 . S
C452 H436 0.959 . S
C452 H437 0.959 . S
C452 H438 0.961 . S
C452 C451 1.502 . S
C453 H439 0.960 . S
C453 H440 0.961 . S
C453 H441 0.959 . S
C453 C451 1.561 . S
C454 C451 1.526 . S
C454 C455 1.396 . S
C454 C459 1.390 . S
C455 C449 1.465 . S
C455 C454 1.396 . S
C455 C456 1.399 . S
C456 H442 0.929 . S
C456 C455 1.399 . S
C456 C457 1.385 . S
C457 H443 0.931 . S
C457 C456 1.385 . S
C457 C458 1.389 . S
C458 C457 1.389 . S
C458 C459 1.387 . S
C459 H444 0.930 . S
C459 C454 1.390 . S
C459 C458 1.387 . S
H460 C472 0.930 . S
H461 C474 0.930 . S
H462 C475 0.930 . S
H463 C479 0.959 . S
H464 C479 0.959 . S
H465 C479 0.961 . S
H466 C480 0.960 . S
H467 C480 0.961 . S
H468 C480 0.959 . S
H469 C483 0.929 . S
H470 C484 0.931 . S
H471 C486 0.930 . S
C472 H460 0.930 . S
C472 C473 1.399 . S
C472 C477 1.399 . S
C473 C472 1.399 . S
C473 C474 1.376 . S
C474 H461 0.930 . S
C474 C473 1.376 . S
C474 C475 1.388 . S
C475 H462 0.930 . S
C475 C474 1.388 . S
C475 C476 1.390 . S
C476 C475 1.390 . S
C476 C477 1.394 . S
C476 C482 1.465 . S
C477 C472 1.399 . S
C477 C476 1.394 . S
C477 C478 1.516 . S
C478 C477 1.516 . S
C478 C479 1.502 . S
C478 C480 1.561 . S
C478 C481 1.526 . S
C479 H463 0.959 . S
C479 H464 0.959 . S
C479 H465 0.961 . S
C479 C478 1.502 . S
C480 H466 0.960 . S
C480 H467 0.961 . S
C480 H468 0.959 . S
C480 C478 1.561 . S
C481 C478 1.526 . S
C481 C482 1.396 . S
C481 C486 1.390 . S
C482 C476 1.465 . S
C482 C481 1.396 . S
C482 C483 1.399 . S
C483 H469 0.929 . S
C483 C482 1.399 . S
C483 C484 1.385 . S
C484 H470 0.931 . S
C484 C483 1.385 . S
C484 C485 1.389 . S
C485 C484 1.389 . S
C485 C486 1.387 . S
C486 H471 0.930 . S
C486 C481 1.390 . S
C486 C485 1.387 . S
H487 C499 0.930 . S
H488 C501 0.930 . S
H489 C502 0.930 . S
H490 C506 0.959 . S
H491 C506 0.959 . S
H492 C506 0.961 . S
H493 C507 0.960 . S
H494 C507 0.961 . S
H495 C507 0.959 . S
H496 C510 0.929 . S
H497 C511 0.931 . S
H498 C513 0.930 . S
C499 H487 0.930 . S
C499 C500 1.399 . S
C499 C504 1.399 . S
C500 C499 1.399 . S
C500 C501 1.376 . S
C501 H488 0.930 . S
C501 C500 1.376 . S
C501 C502 1.388 . S
C502 H489 0.930 . S
C502 C501 1.388 . S
C502 C503 1.390 . S
C503 C502 1.390 . S
C503 C504 1.394 . S
C503 C509 1.465 . S
C504 C499 1.399 . S
C504 C503 1.394 . S
C504 C505 1.516 . S
C505 C504 1.516 . S
C505 C506 1.502 . S
C505 C507 1.561 . S
C505 C508 1.526 . S
C506 H490 0.959 . S
C506 H491 0.959 . S
C506 H492 0.961 . S
C506 C505 1.502 . S
C507 H493 0.960 . S
C507 H494 0.961 . S
C507 H495 0.959 . S
C507 C505 1.561 . S
C508 C505 1.526 . S
C508 C509 1.396 . S
C508 C513 1.390 . S
C509 C503 1.465 . S
C509 C508 1.396 . S
C509 C510 1.399 . S
C510 H496 0.929 . S
C510 C509 1.399 . S
C510 C511 1.385 . S
C511 H497 0.931 . S
C511 C510 1.385 . S
C511 C512 1.389 . S
C512 C511 1.389 . S
C512 C513 1.387 . S
C513 H498 0.930 . S
C513 C508 1.390 . S
C513 C512 1.387 . S
H514 C526 0.930 . S
H515 C528 0.930 . S
H516 C529 0.930 . S
H517 C533 0.959 . S
H518 C533 0.959 . S
H519 C533 0.961 . S
H520 C534 0.960 . S
H521 C534 0.961 . S
H522 C534 0.959 . S
H523 C537 0.929 . S
H524 C538 0.931 . S
H525 C540 0.930 . S
C526 H514 0.930 . S
C526 C527 1.399 . S
C526 C531 1.399 . S
C527 C526 1.399 . S
C527 C528 1.376 . S
C528 H515 0.930 . S
C528 C527 1.376 . S
C528 C529 1.388 . S
C529 H516 0.930 . S
C529 C528 1.388 . S
C529 C530 1.390 . S
C530 C529 1.390 . S
C530 C531 1.394 . S
C530 C536 1.465 . S
C531 C526 1.399 . S
C531 C530 1.394 . S
C531 C532 1.516 . S
C532 C531 1.516 . S
C532 C533 1.502 . S
C532 C534 1.561 . S
C532 C535 1.526 . S
C533 H517 0.959 . S
C533 H518 0.959 . S
C533 H519 0.961 . S
C533 C532 1.502 . S
C534 H520 0.960 . S
C534 H521 0.961 . S
C534 H522 0.959 . S
C534 C532 1.561 . S
C535 C532 1.526 . S
C535 C536 1.396 . S
C535 C540 1.390 . S
C536 C530 1.465 . S
C536 C535 1.396 . S
C536 C537 1.399 . S
C537 H523 0.929 . S
C537 C536 1.399 . S
C537 C538 1.385 . S
C538 H524 0.931 . S
C538 C537 1.385 . S
C538 C539 1.389 . S
C539 C538 1.389 . S
C539 C540 1.387 . S
C540 H525 0.930 . S
C540 C535 1.390 . S
C540 C539 1.387 . S
H541 C553 0.930 . S
H542 C555 0.930 . S
H543 C556 0.930 . S
H544 C560 0.959 . S
H545 C560 0.959 . S
H546 C560 0.961 . S
H547 C561 0.960 . S
H548 C561 0.961 . S
H549 C561 0.959 . S
H550 C564 0.929 . S
H551 C565 0.931 . S
H552 C567 0.930 . S
C553 H541 0.930 . S
C553 C554 1.399 . S
C553 C558 1.399 . S
C554 C553 1.399 . S
C554 C555 1.376 . S
C555 H542 0.930 . S
C555 C554 1.376 . S
C555 C556 1.388 . S
C556 H543 0.930 . S
C556 C555 1.388 . S
C556 C557 1.390 . S
C557 C556 1.390 . S
C557 C558 1.394 . S
C557 C563 1.465 . S
C558 C553 1.399 . S
C558 C557 1.394 . S
C558 C559 1.516 . S
C559 C558 1.516 . S
C559 C560 1.502 . S
C559 C561 1.561 . S
C559 C562 1.526 . S
C560 H544 0.959 . S
C560 H545 0.959 . S
C560 H546 0.961 . S
C560 C559 1.502 . S
C561 H547 0.960 . S
C561 H548 0.961 . S
C561 H549 0.959 . S
C561 C559 1.561 . S
C562 C559 1.526 . S
C562 C563 1.396 . S
C562 C567 1.390 . S
C563 C557 1.465 . S
C563 C562 1.396 . S
C563 C564 1.399 . S
C564 H550 0.929 . S
C564 C563 1.399 . S
C564 C565 1.385 . S
C565 H551 0.931 . S
C565 C564 1.385 . S
C565 C566 1.389 . S
C566 C565 1.389 . S
C566 C567 1.387 . S
C567 H552 0.930 . S
C567 C562 1.390 . S
C567 C566 1.387 . S
H568 C580 0.930 . S
H569 C582 0.930 . S
H570 C583 0.930 . S
H571 C587 0.959 . S
H572 C587 0.959 . S
H573 C587 0.961 . S
H574 C588 0.960 . S
H575 C588 0.961 . S
H576 C588 0.959 . S
H577 C591 0.929 . S
H578 C592 0.931 . S
H579 C594 0.930 . S
C580 H568 0.930 . S
C580 C581 1.399 . S
C580 C585 1.399 1_565 S
C581 C580 1.399 . S
C581 C582 1.376 . S
C582 H569 0.930 . S
C582 C581 1.376 . S
C582 C583 1.388 1_565 S
C583 H570 0.930 . S
C583 C582 1.388 1_545 S
C583 C584 1.390 . S
C584 C583 1.390 . S
C584 C585 1.394 . S
C584 C590 1.465 . S
C585 C580 1.399 1_545 S
C585 C584 1.394 . S
C585 C586 1.516 . S
C586 C585 1.516 . S
C586 C587 1.502 . S
C586 C588 1.561 . S
C586 C589 1.526 . S
C587 H571 0.959 . S
C587 H572 0.959 . S
C587 H573 0.961 . S
C587 C586 1.502 . S
C588 H574 0.960 . S
C588 H575 0.961 . S
C588 H576 0.959 . S
C588 C586 1.561 . S
C589 C586 1.526 . S
C589 C590 1.396 . S
C589 C594 1.390 . S
C590 C584 1.465 . S
C590 C589 1.396 . S
C590 C591 1.399 . S
C591 H577 0.929 . S
C591 C590 1.399 . S
C591 C592 1.385 . S
C592 H578 0.931 . S
C592 C591 1.385 . S
C592 C593 1.389 . S
C593 C592 1.389 . S
C593 C594 1.387 . S
C594 H579 0.930 . S
C594 C589 1.390 . S
C594 C593 1.387 . S
H595 C607 0.930 . S
H596 C609 0.930 . S
H597 C610 0.930 . S
H598 C614 0.959 . S
H599 C614 0.924 1_655 S
H600 C614 0.961 . S
H601 C615 0.960 . S
H602 C615 0.961 . S
H603 C615 0.959 . S
H604 C618 0.929 . S
H605 C619 0.931 . S
H606 C621 0.930 . S
C607 H595 0.930 . S
C607 C608 1.399 . S
C607 C612 1.399 . S
C608 C607 1.399 . S
C608 C609 1.376 . S
C609 H596 0.930 . S
C609 C608 1.376 . S
C609 C610 1.388 . S
C610 H597 0.930 . S
C610 C609 1.388 . S
C610 C611 1.390 . S
C611 C610 1.390 . S
C611 C612 1.394 . S
C611 C617 1.465 . S
C612 C607 1.399 . S
C612 C611 1.394 . S
C612 C613 1.516 . S
C613 C612 1.516 . S
C613 C614 1.502 . S
C613 C615 1.561 . S
C613 C616 1.526 . S
C614 H598 0.959 . S
C614 H599 0.924 1_455 S
C614 H600 0.961 . S
C614 C613 1.502 . S
C615 H601 0.960 . S
C615 H602 0.961 . S
C615 H603 0.959 . S
C615 C613 1.561 . S
C616 C613 1.526 . S
C616 C617 1.396 . S
C616 C621 1.390 1_455 S
C617 C611 1.465 . S
C617 C616 1.396 . S
C617 C618 1.399 . S
C618 H604 0.929 . S
C618 C617 1.399 . S
C618 C619 1.385 1_455 S
C619 H605 0.931 . S
C619 C618 1.385 1_655 S
C619 C620 1.389 . S
C620 C619 1.389 . S
C620 C621 1.387 . S
C621 H606 0.930 . S
C621 C616 1.390 1_655 S
C621 C620 1.387 . S
H622 C634 0.930 . S
H623 C636 0.930 . S
H624 C637 0.930 . S
H625 C641 0.959 . S
H626 C641 0.959 1_545 S
H627 C641 0.961 . S
H628 C642 0.960 . S
H629 C642 0.961 . S
H630 C642 0.959 . S
H631 C645 0.929 . S
H632 C646 0.931 . S
H633 C648 0.930 . S
C634 H622 0.930 . S
C634 C635 1.399 . S
C634 C639 1.399 . S
C635 C634 1.399 . S
C635 C636 1.376 . S
C636 H623 0.930 . S
C636 C635 1.376 . S
C636 C637 1.388 . S
C637 H624 0.930 . S
C637 C636 1.388 . S
C637 C638 1.390 . S
C638 C637 1.390 . S
C638 C639 1.394 . S
C638 C644 1.465 . S
C639 C634 1.399 . S
C639 C638 1.394 . S
C639 C640 1.516 . S
C640 C639 1.516 . S
C640 C641 1.502 . S
C640 C642 1.561 . S
C640 C643 1.526 . S
C641 H625 0.959 . S
C641 H626 0.959 1_565 S
C641 H627 0.961 . S
C641 C640 1.502 . S
C642 H628 0.960 . S
C642 H629 0.961 . S
C642 H630 0.959 . S
C642 C640 1.561 . S
C643 C640 1.526 . S
C643 C644 1.396 . S
C643 C648 1.390 1_565 S
C644 C638 1.465 . S
C644 C643 1.396 . S
C644 C645 1.399 . S
C645 H631 0.929 . S
C645 C644 1.399 . S
C645 C646 1.385 1_565 S
C646 H632 0.931 . S
C646 C645 1.385 1_545 S
C646 C647 1.389 . S
C647 C646 1.389 . S
C647 C648 1.387 . S
C648 H633 0.930 . S
C648 C643 1.390 1_545 S
C648 C647 1.387 . S
H649 C661 0.930 . S
H650 C663 0.930 . S
H651 C664 0.930 . S
H652 C668 0.959 . S
H653 C668 0.959 . S
H654 C668 0.961 . S
H655 C669 0.960 . S
H656 C669 0.961 . S
H657 C669 0.959 . S
H658 C672 0.929 . S
H659 C673 0.931 . S
H660 C675 0.930 . S
C661 H649 0.930 . S
C661 C662 1.399 . S
C661 C666 1.399 1_455 S
C662 C661 1.399 . S
C662 C663 1.376 . S
C663 H650 0.930 . S
C663 C662 1.376 . S
C663 C664 1.388 1_455 S
C664 H651 0.930 . S
C664 C663 1.388 1_655 S
C664 C665 1.390 . S
C665 C664 1.390 . S
C665 C666 1.394 . S
C665 C671 1.465 . S
C666 C661 1.399 1_655 S
C666 C665 1.394 . S
C666 C667 1.516 . S
C667 C666 1.516 . S
C667 C668 1.502 . S
C667 C669 1.561 . S
C667 C670 1.526 . S
C668 H652 0.959 . S
C668 H653 0.959 . S
C668 H654 0.961 . S
C668 C667 1.502 . S
C669 H655 0.960 . S
C669 H656 0.961 . S
C669 H657 0.959 . S
C669 C667 1.561 . S
C670 C667 1.526 . S
C670 C671 1.396 . S
C670 C675 1.390 . S
C671 C665 1.465 . S
C671 C670 1.396 . S
C671 C672 1.399 . S
C672 H658 0.929 . S
C672 C671 1.399 . S
C672 C673 1.385 . S
C673 H659 0.931 . S
C673 C672 1.385 . S
C673 C674 1.389 . S
C674 C673 1.389 . S
C674 C675 1.387 . S
C675 H660 0.930 . S
C675 C670 1.390 . S
C675 C674 1.387 . S
H676 C688 0.930 . S
H677 C690 0.930 . S
H678 C691 0.930 . S
H679 C695 0.959 . S
H680 C695 0.959 . S
H681 C695 0.961 . S
H682 C696 0.960 . S
H683 C696 0.961 . S
H684 C696 0.959 . S
H685 C699 0.929 . S
H686 C700 0.931 . S
H687 C702 0.930 . S
C688 H676 0.930 . S
C688 C689 1.399 . S
C688 C693 1.399 1_545 S
C689 C688 1.399 . S
C689 C690 1.376 . S
C690 H677 0.930 . S
C690 C689 1.376 . S
C690 C691 1.388 1_545 S
C691 H678 0.930 . S
C691 C690 1.388 1_565 S
C691 C692 1.390 . S
C692 C691 1.390 . S
C692 C693 1.394 . S
C692 C698 1.465 . S
C693 C688 1.399 1_565 S
C693 C692 1.394 . S
C693 C694 1.516 . S
C694 C693 1.516 . S
C694 C695 1.502 . S
C694 C696 1.561 . S
C694 C697 1.526 . S
C695 H679 0.959 . S
C695 H680 0.959 . S
C695 H681 0.961 . S
C695 C694 1.502 . S
C696 H682 0.960 . S
C696 H683 0.961 . S
C696 H684 0.959 . S
C696 C694 1.561 . S
C697 C694 1.526 . S
C697 C698 1.396 . S
C697 C702 1.390 . S
C698 C692 1.465 . S
C698 C697 1.396 . S
C698 C699 1.399 . S
C699 H685 0.929 . S
C699 C698 1.399 . S
C699 C700 1.385 . S
C700 H686 0.931 . S
C700 C699 1.385 . S
C700 C701 1.389 . S
C701 C700 1.389 . S
C701 C702 1.387 . S
C702 H687 0.930 . S
C702 C697 1.390 . S
C702 C701 1.387 . S
H703 C715 0.930 . S
H704 C717 0.930 . S
H705 C718 0.930 . S
H706 C722 0.959 . S
H707 C722 0.959 . S
H708 C722 0.961 . S
H709 C723 0.960 . S
H710 C723 0.961 . S
H711 C723 0.959 . S
H712 C726 0.929 . S
H713 C727 0.931 . S
H714 C729 0.930 . S
C715 H703 0.930 . S
C715 C716 1.399 . S
C715 C720 1.399 . S
C716 C715 1.399 . S
C716 C717 1.376 . S
C717 H704 0.930 . S
C717 C716 1.376 . S
C717 C718 1.388 . S
C718 H705 0.930 . S
C718 C717 1.388 . S
C718 C719 1.390 . S
C719 C718 1.390 . S
C719 C720 1.394 . S
C719 C725 1.465 . S
C720 C715 1.399 . S
C720 C719 1.394 . S
C720 C721 1.516 . S
C721 C720 1.516 . S
C721 C722 1.502 . S
C721 C723 1.561 . S
C721 C724 1.526 . S
C722 H706 0.959 . S
C722 H707 0.959 . S
C722 H708 0.961 . S
C722 C721 1.502 . S
C723 H709 0.960 . S
C723 H710 0.961 . S
C723 H711 0.959 . S
C723 C721 1.561 . S
C724 C721 1.526 . S
C724 C725 1.396 . S
C724 C729 1.390 1_655 S
C725 C719 1.465 . S
C725 C724 1.396 . S
C725 C726 1.399 . S
C726 H712 0.929 . S
C726 C725 1.399 . S
C726 C727 1.385 1_655 S
C727 H713 0.931 . S
C727 C726 1.385 1_455 S
C727 C728 1.389 . S
C728 C727 1.389 . S
C728 C729 1.387 . S
C729 H714 0.930 . S
C729 C724 1.390 1_455 S
C729 C728 1.387 . S
H730 C742 0.930 . S
H731 C744 0.930 . S
H732 C745 0.930 . S
H733 C749 0.959 . S
H734 C749 0.959 . S
H735 C749 0.961 . S
H736 C750 0.960 . S
H737 C750 0.961 1_565 S
H738 C750 0.959 . S
H739 C753 0.929 . S
H740 C754 0.931 . S
H741 C756 0.930 . S
C742 H730 0.930 . S
C742 C743 1.399 . S
C742 C747 1.399 . S
C743 C742 1.399 . S
C743 C744 1.376 . S
C744 H731 0.930 . S
C744 C743 1.376 . S
C744 C745 1.388 . S
C745 H732 0.930 . S
C745 C744 1.388 . S
C745 C746 1.390 . S
C746 C745 1.390 . S
C746 C747 1.394 . S
C746 C752 1.465 . S
C747 C742 1.399 . S
C747 C746 1.394 . S
C747 C748 1.516 . S
C748 C747 1.516 . S
C748 C749 1.502 . S
C748 C750 1.561 . S
C748 C751 1.526 . S
C749 H733 0.959 . S
C749 H734 0.959 . S
C749 H735 0.961 . S
C749 C748 1.502 . S
C750 H736 0.960 . S
C750 H737 0.961 1_545 S
C750 H738 0.959 . S
C750 C748 1.561 . S
C751 C748 1.526 . S
C751 C752 1.396 . S
C751 C756 1.390 1_545 S
C752 C746 1.465 . S
C752 C751 1.396 . S
C752 C753 1.399 . S
C753 H739 0.929 . S
C753 C752 1.399 . S
C753 C754 1.385 1_545 S
C754 H740 0.931 . S
C754 C753 1.385 1_565 S
C754 C755 1.389 . S
C755 C754 1.389 . S
C755 C756 1.387 . S
C756 H741 0.930 . S
C756 C751 1.390 1_565 S
C756 C755 1.387 . S
H757 C769 0.930 . S
H758 C771 0.930 . S
H759 C772 0.930 . S
H760 C776 0.959 . S
H761 C776 0.959 . S
H762 C776 0.961 . S
H763 C777 0.960 . S
H764 C777 0.961 . S
H765 C777 0.959 . S
H766 C780 0.929 . S
H767 C781 0.931 . S
H768 C783 0.930 . S
C769 H757 0.930 . S
C769 C770 1.399 . S
C769 C774 1.399 . S
C770 C769 1.399 . S
C770 C771 1.376 . S
C771 H758 0.930 . S
C771 C770 1.376 . S
C771 C772 1.388 . S
C772 H759 0.930 . S
C772 C771 1.388 . S
C772 C773 1.390 . S
C773 C772 1.390 . S
C773 C774 1.394 . S
C773 C779 1.465 . S
C774 C769 1.399 . S
C774 C773 1.394 . S
C774 C775 1.516 . S
C775 C774 1.516 . S
C775 C776 1.502 . S
C775 C777 1.561 . S
C775 C778 1.526 . S
C776 H760 0.959 . S
C776 H761 0.959 . S
C776 H762 0.961 . S
C776 C775 1.502 . S
C777 H763 0.960 . S
C777 H764 0.961 . S
C777 H765 0.959 . S
C777 C775 1.561 . S
C778 C775 1.526 . S
C778 C779 1.396 . S
C778 C783 1.390 1_455 S
C779 C773 1.465 . S
C779 C778 1.396 . S
C779 C780 1.399 . S
C780 H766 0.929 . S
C780 C779 1.399 . S
C780 C781 1.385 1_455 S
C781 H767 0.931 . S
C781 C780 1.385 1_655 S
C781 C782 1.389 . S
C782 C781 1.389 . S
C782 C783 1.387 . S
C783 H768 0.930 . S
C783 C778 1.390 1_655 S
C783 C782 1.387 . S
H784 C796 0.930 . S
H785 C798 0.930 . S
H786 C799 0.930 . S
H787 C803 0.959 . S
H788 C803 0.959 . S
H789 C803 0.961 . S
H790 C804 0.960 . S
H791 C804 0.961 . S
H792 C804 0.959 . S
H793 C807 0.929 . S
H794 C808 0.931 . S
H795 C810 0.930 . S
C796 H784 0.930 . S
C796 C797 1.399 . S
C796 C801 1.399 . S
C797 C796 1.399 . S
C797 C798 1.376 . S
C798 H785 0.930 . S
C798 C797 1.376 . S
C798 C799 1.388 . S
C799 H786 0.930 . S
C799 C798 1.388 . S
C799 C800 1.390 . S
C800 C799 1.390 . S
C800 C801 1.394 . S
C800 C806 1.465 . S
C801 C796 1.399 . S
C801 C800 1.394 . S
C801 C802 1.516 . S
C802 C801 1.516 . S
C802 C803 1.502 . S
C802 C804 1.561 . S
C802 C805 1.526 . S
C803 H787 0.959 . S
C803 H788 0.959 . S
C803 H789 0.961 . S
C803 C802 1.502 . S
C804 H790 0.960 . S
C804 H791 0.961 . S
C804 H792 0.959 . S
C804 C802 1.561 . S
C805 C802 1.526 . S
C805 C806 1.396 . S
C805 C810 1.390 . S
C806 C800 1.465 . S
C806 C805 1.396 . S
C806 C807 1.399 . S
C807 H793 0.929 . S
C807 C806 1.399 . S
C807 C808 1.385 . S
C808 H794 0.931 . S
C808 C807 1.385 . S
C808 C809 1.389 . S
C809 C808 1.389 . S
C809 C810 1.387 . S
C810 H795 0.930 . S
C810 C805 1.390 . S
C810 C809 1.387 . S
H811 C823 0.930 . S
H812 C825 0.930 . S
H813 C826 0.930 . S
H814 C830 0.959 . S
H815 C830 0.959 . S
H816 C830 0.961 . S
H817 C831 0.960 . S
H818 C831 0.961 . S
H819 C831 0.959 . S
H820 C834 0.929 . S
H821 C835 0.931 . S
H822 C837 0.930 . S
C823 H811 0.930 . S
C823 C824 1.399 . S
C823 C828 1.399 . S
C824 C823 1.399 . S
C824 C825 1.376 . S
C825 H812 0.930 . S
C825 C824 1.376 . S
C825 C826 1.388 . S
C826 H813 0.930 . S
C826 C825 1.388 . S
C826 C827 1.390 . S
C827 C826 1.390 . S
C827 C828 1.394 . S
C827 C833 1.465 . S
C828 C823 1.399 . S
C828 C827 1.394 . S
C828 C829 1.516 . S
C829 C828 1.516 . S
C829 C830 1.502 . S
C829 C831 1.561 . S
C829 C832 1.526 . S
C830 H814 0.959 . S
C830 H815 0.959 . S
C830 H816 0.961 . S
C830 C829 1.502 . S
C831 H817 0.960 . S
C831 H818 0.961 . S
C831 H819 0.959 . S
C831 C829 1.561 . S
C832 C829 1.526 . S
C832 C833 1.396 . S
C832 C837 1.390 . S
C833 C827 1.465 . S
C833 C832 1.396 . S
C833 C834 1.399 . S
C834 H820 0.929 . S
C834 C833 1.399 . S
C834 C835 1.385 . S
C835 H821 0.931 . S
C835 C834 1.385 . S
C835 C836 1.389 . S
C836 C835 1.389 . S
C836 C837 1.387 . S
C837 H822 0.930 . S
C837 C832 1.390 . S
C837 C836 1.387 . S
H838 C850 0.930 . S
H839 C852 0.930 . S
H840 C853 0.930 . S
H841 C857 0.959 . S
H842 C857 0.959 . S
H843 C857 0.961 . S
H844 C858 0.960 . S
H845 C858 0.961 . S
H846 C858 0.959 . S
H847 C861 0.929 . S
H848 C862 0.931 . S
H849 C864 0.930 . S
C850 H838 0.930 . S
C850 C851 1.399 . S
C850 C855 1.399 . S
C851 C850 1.399 . S
C851 C852 1.376 . S
C852 H839 0.930 . S
C852 C851 1.376 . S
C852 C853 1.388 . S
C853 H840 0.930 . S
C853 C852 1.388 . S
C853 C854 1.390 . S
C854 C853 1.390 . S
C854 C855 1.394 . S
C854 C860 1.465 . S
C855 C850 1.399 . S
C855 C854 1.394 . S
C855 C856 1.516 . S
C856 C855 1.516 . S
C856 C857 1.502 . S
C856 C858 1.561 . S
C856 C859 1.526 . S
C857 H841 0.959 . S
C857 H842 0.959 . S
C857 H843 0.961 . S
C857 C856 1.502 . S
C858 H844 0.960 . S
C858 H845 0.961 . S
C858 H846 0.959 . S
C858 C856 1.561 . S
C859 C856 1.526 . S
C859 C860 1.396 . S
C859 C864 1.390 . S
C860 C854 1.465 . S
C860 C859 1.396 . S
C860 C861 1.399 . S
C861 H847 0.929 . S
C861 C860 1.399 . S
C861 C862 1.385 . S
C862 H848 0.931 . S
C862 C861 1.385 . S
C862 C863 1.389 . S
C863 C862 1.389 . S
C863 C864 1.387 . S
C864 H849 0.930 . S
C864 C859 1.390 . S
C864 C863 1.387 . S
H865 C877 0.930 . S
H866 C879 0.930 . S
H867 C880 0.930 . S
H868 C884 0.959 . S
H869 C884 0.959 . S
H870 C884 0.961 . S
H871 C885 0.960 . S
H872 C885 0.961 . S
H873 C885 0.959 . S
H874 C888 0.929 . S
H875 C889 0.931 . S
H876 C891 0.930 . S
C877 H865 0.930 . S
C877 C878 1.399 . S
C877 C882 1.399 . S
C878 C877 1.399 . S
C878 C879 1.376 . S
C879 H866 0.930 . S
C879 C878 1.376 . S
C879 C880 1.388 . S
C880 H867 0.930 . S
C880 C879 1.388 . S
C880 C881 1.390 . S
C881 C880 1.390 . S
C881 C882 1.394 . S
C881 C887 1.465 . S
C882 C877 1.399 . S
C882 C881 1.394 . S
C882 C883 1.516 . S
C883 C882 1.516 . S
C883 C884 1.502 . S
C883 C885 1.561 . S
C883 C886 1.526 . S
C884 H868 0.959 . S
C884 H869 0.959 . S
C884 H870 0.961 . S
C884 C883 1.502 . S
C885 H871 0.960 . S
C885 H872 0.961 . S
C885 H873 0.959 . S
C885 C883 1.561 . S
C886 C883 1.526 . S
C886 C887 1.396 . S
C886 C891 1.390 . S
C887 C881 1.465 . S
C887 C886 1.396 . S
C887 C888 1.399 . S
C888 H874 0.929 . S
C888 C887 1.399 . S
C888 C889 1.385 . S
C889 H875 0.931 . S
C889 C888 1.385 . S
C889 C890 1.389 . S
C890 C889 1.389 . S
C890 C891 1.387 . S
C891 H876 0.930 . S
C891 C886 1.390 . S
C891 C890 1.387 . S
H892 C904 0.930 . S
H893 C906 0.930 . S
H894 C907 0.930 1_556 S
H895 C911 0.959 . S
H896 C911 0.959 . S
H897 C911 0.961 . S
H898 C912 0.960 . S
H899 C912 0.961 . S
H900 C912 0.959 . S
H901 C915 0.929 1_545 S
H902 C916 0.931 . S
H903 C918 0.930 . S
C904 H892 0.930 . S
C904 C905 1.399 . S
C904 C909 1.399 . S
C905 C904 1.399 . S
C905 C906 1.376 . S
C906 H893 0.930 . S
C906 C905 1.376 . S
C906 C907 1.388 . S
C907 H894 0.930 1_554 S
C907 C906 1.388 . S
C907 C908 1.390 . S
C908 C907 1.390 . S
C908 C909 1.394 . S
C908 C914 1.465 1_544 S
C909 C904 1.399 . S
C909 C908 1.394 . S
C909 C910 1.516 1_545 S
C910 C909 1.516 1_565 S
C910 C911 1.502 . S
C910 C912 1.561 . S
C910 C913 1.526 1_554 S
C911 H895 0.959 . S
C911 H896 0.959 . S
C911 H897 0.961 . S
C911 C910 1.502 . S
C912 H898 0.960 . S
C912 H899 0.961 . S
C912 H900 0.959 . S
C912 C910 1.561 . S
C913 C910 1.526 1_556 S
C913 C914 1.396 . S
C913 C918 1.390 . S
C914 C908 1.465 1_566 S
C914 C913 1.396 . S
C914 C915 1.399 . S
C915 H901 0.929 1_565 S
C915 C914 1.399 . S
C915 C916 1.385 . S
C916 H902 0.931 . S
C916 C915 1.385 . S
C916 C917 1.389 . S
C917 C916 1.389 . S
C917 C918 1.387 . S
C918 H903 0.930 . S
C918 C913 1.390 . S
C918 C917 1.387 . S
H919 C931 0.930 . S
H920 C933 0.930 . S
H921 C934 0.940 . S
H922 C938 0.959 . S
H923 C938 0.959 . S
H924 C938 0.961 . S
H925 C939 0.960 1_655 S
H926 C939 0.961 1_556 S
H927 C939 0.959 . S
H928 C942 0.929 1_554 S
H929 C943 0.931 . S
H930 C945 0.930 . S
C931 H919 0.930 . S
C931 C932 1.399 . S
C931 C936 1.399 . S
C932 C931 1.399 . S
C932 C933 1.376 . S
C933 H920 0.930 . S
C933 C932 1.376 . S
C933 C934 1.388 . S
C934 H921 0.940 . S
C934 C933 1.388 . S
C934 C935 1.390 . S
C935 C934 1.390 . S
C935 C936 1.394 . S
C935 C941 1.465 1_654 S
C936 C931 1.399 . S
C936 C935 1.394 . S
C936 C937 1.516 1_554 S
C937 C936 1.516 1_556 S
C937 C938 1.502 . S
C937 C939 1.561 1_656 S
C937 C940 1.526 1_655 S
C938 H922 0.959 . S
C938 H923 0.959 . S
C938 H924 0.961 . S
C938 C937 1.502 . S
C939 H925 0.960 1_455 S
C939 H926 0.961 1_554 S
C939 H927 0.959 . S
C939 C937 1.561 1_454 S
C940 C937 1.526 1_455 S
C940 C941 1.396 . S
C940 C945 1.390 . S
C941 C935 1.465 1_456 S
C941 C940 1.396 . S
C941 C942 1.399 . S
C942 H928 0.929 1_556 S
C942 C941 1.399 . S
C942 C943 1.385 . S
C943 H929 0.931 . S
C943 C942 1.385 . S
C943 C944 1.389 . S
C944 C943 1.389 . S
C944 C945 1.387 . S
C945 H930 0.930 . S
C945 C940 1.390 . S
C945 C944 1.387 . S
H946 C958 0.930 . S
H947 C960 0.930 . S
H948 C961 0.930 1_565 S
H949 C965 0.959 . S
H950 C965 0.959 . S
H951 C965 0.961 . S
H952 C966 0.960 . S
H953 C966 0.961 . S
H954 C966 0.959 . S
H955 C969 0.929 . S
H956 C970 0.931 . S
H957 C972 0.930 . S
C958 H946 0.930 . S
C958 C959 1.399 . S
C958 C963 1.399 . S
C959 C958 1.399 . S
C959 C960 1.376 . S
C960 H947 0.930 . S
C960 C959 1.376 . S
C960 C961 1.388 . S
C961 H948 0.930 1_545 S
C961 C960 1.388 . S
C961 C962 1.390 . S
C962 C961 1.390 . S
C962 C963 1.394 . S
C962 C968 1.465 1_546 S
C963 C958 1.399 . S
C963 C962 1.394 . S
C963 C964 1.516 1_556 S
C964 C963 1.516 1_554 S
C964 C965 1.502 . S
C964 C966 1.561 . S
C964 C967 1.526 1_545 S
C965 H949 0.959 . S
C965 H950 0.959 . S
C965 H951 0.961 . S
C965 C964 1.502 . S
C966 H952 0.960 . S
C966 H953 0.961 . S
C966 H954 0.959 . S
C966 C964 1.561 . S
C967 C964 1.526 1_565 S
C967 C968 1.396 . S
C967 C972 1.390 . S
C968 C962 1.465 1_564 S
C968 C967 1.396 . S
C968 C969 1.399 1_554 S
C969 H955 0.929 . S
C969 C968 1.399 1_556 S
C969 C970 1.385 1_556 S
C970 H956 0.931 . S
C970 C969 1.385 1_554 S
C970 C971 1.389 . S
C971 C970 1.389 . S
C971 C972 1.387 . S
C972 H957 0.930 . S
C972 C967 1.390 . S
C972 C971 1.387 . S
H973 C985 0.930 . S
H974 C987 0.930 . S
H975 C988 0.930 . S
H976 C992 0.959 . S
H977 C992 0.959 . S
H978 C992 0.961 . S
H979 C993 0.960 . S
H980 C993 0.961 . S
H981 C993 0.959 . S
H982 C996 0.929 . S
H983 C997 0.931 . S
H984 C999 0.930 . S
C985 H973 0.930 . S
C985 C986 1.399 . S
C985 C990 1.399 . S
C986 C985 1.399 . S
C986 C987 1.376 . S
C987 H974 0.930 . S
C987 C986 1.376 . S
C987 C988 1.388 . S
C988 H975 0.930 . S
C988 C987 1.388 . S
C988 C989 1.390 . S
C989 C988 1.390 . S
C989 C990 1.394 . S
C989 C995 1.465 1_656 S
C990 C985 1.399 . S
C990 C989 1.394 . S
C990 C991 1.516 1_655 S
C991 C990 1.516 1_455 S
C991 C992 1.502 1_456 S
C991 C993 1.561 . S
C991 C994 1.526 1_556 S
C992 H976 0.959 . S
C992 H977 0.959 . S
C992 H978 0.961 . S
C992 C991 1.502 1_654 S
C993 H979 0.960 . S
C993 H980 0.961 . S
C993 H981 0.959 . S
C993 C991 1.561 . S
C994 C991 1.526 1_554 S
C994 C995 1.396 . S
C994 C999 1.390 . S
C995 C989 1.465 1_454 S
C995 C994 1.396 . S
C995 C996 1.399 . S
C996 H982 0.929 . S
C996 C995 1.399 . S
C996 C997 1.385 . S
C997 H983 0.931 . S
C997 C996 1.385 . S
C997 C998 1.389 . S
C998 C997 1.389 . S
C998 C999 1.387 . S
C999 H984 0.930 . S
C999 C994 1.390 . S
C999 C998 1.387 . S
H1000 C1012 0.930 . S
H1001 C1014 0.930 . S
H1002 C1015 0.930 . S
H1003 C1019 0.959 . S
H1004 C1019 0.959 . S
H1005 C1019 0.961 . S
H1006 C1020 0.960 . S
H1007 C1020 0.961 . S
H1008 C1020 0.959 . S
H1009 C1023 0.929 . S
H1010 C1024 0.931 . S
H1011 C1026 0.930 . S
C1012 H1000 0.930 . S
C1012 C1013 1.399 . S
C1012 C1017 1.399 . S
C1013 C1012 1.399 . S
C1013 C1014 1.376 . S
C1014 H1001 0.930 . S
C1014 C1013 1.376 . S
C1014 C1015 1.388 . S
C1015 H1002 0.930 . S
C1015 C1014 1.388 . S
C1015 C1016 1.390 . S
C1016 C1015 1.390 . S
C1016 C1017 1.394 . S
C1016 C1022 1.465 . S
C1017 C1012 1.399 . S
C1017 C1016 1.394 . S
C1017 C1018 1.516 . S
C1018 C1017 1.516 . S
C1018 C1019 1.502 . S
C1018 C1020 1.561 . S
C1018 C1021 1.526 . S
C1019 H1003 0.959 . S
C1019 H1004 0.959 . S
C1019 H1005 0.961 . S
C1019 C1018 1.502 . S
C1020 H1006 0.960 . S
C1020 H1007 0.961 . S
C1020 H1008 0.959 . S
C1020 C1018 1.561 . S
C1021 C1018 1.526 . S
C1021 C1022 1.396 . S
C1021 C1026 1.390 . S
C1022 C1016 1.465 . S
C1022 C1021 1.396 . S
C1022 C1023 1.399 . S
C1023 H1009 0.929 . S
C1023 C1022 1.399 . S
C1023 C1024 1.385 1_554 S
C1024 H1010 0.931 . S
C1024 C1023 1.385 1_556 S
C1024 C1025 1.389 . S
C1025 C1024 1.389 . S
C1025 C1026 1.387 1_556 S
C1026 H1011 0.930 . S
C1026 C1021 1.390 . S
C1026 C1025 1.387 1_554 S
H1027 C1039 0.930 . S
H1028 C1041 0.930 1_554 S
H1029 C1042 0.930 . S
H1030 C1046 0.959 . S
H1031 C1046 0.959 . S
H1032 C1046 0.961 . S
H1033 C1047 0.960 . S
H1034 C1047 0.961 . S
H1035 C1047 0.959 . S
H1036 C1050 0.929 . S
H1037 C1051 0.931 . S
H1038 C1053 0.930 . S
C1039 H1027 0.930 . S
C1039 C1040 1.399 . S
C1039 C1044 1.399 1_554 S
C1040 C1039 1.399 . S
C1040 C1041 1.376 1_554 S
C1041 H1028 0.930 1_556 S
C1041 C1040 1.376 1_556 S
C1041 C1042 1.388 . S
C1042 H1029 0.930 . S
C1042 C1041 1.388 . S
C1042 C1043 1.390 . S
C1043 C1042 1.390 . S
C1043 C1044 1.394 . S
C1043 C1049 1.465 . S
C1044 C1039 1.399 1_556 S
C1044 C1043 1.394 . S
C1044 C1045 1.516 . S
C1045 C1044 1.516 . S
C1045 C1046 1.502 . S
C1045 C1047 1.561 . S
C1045 C1048 1.526 . S
C1046 H1030 0.959 . S
C1046 H1031 0.959 . S
C1046 H1032 0.961 . S
C1046 C1045 1.502 . S
C1047 H1033 0.960 . S
C1047 H1034 0.961 . S
C1047 H1035 0.959 . S
C1047 C1045 1.561 . S
C1048 C1045 1.526 . S
C1048 C1049 1.396 . S
C1048 C1053 1.390 . S
C1049 C1043 1.465 . S
C1049 C1048 1.396 . S
C1049 C1050 1.399 . S
C1050 H1036 0.929 . S
C1050 C1049 1.399 . S
C1050 C1051 1.385 . S
C1051 H1037 0.931 . S
C1051 C1050 1.385 . S
C1051 C1052 1.389 . S
C1052 C1051 1.389 . S
C1052 C1053 1.387 . S
C1053 H1038 0.930 . S
C1053 C1048 1.390 . S
C1053 C1052 1.387 . S
H1054 C1066 0.930 . S
H1055 C1068 0.930 . S
H1056 C1069 0.930 . S
H1057 C1073 0.959 . S
H1058 C1073 0.959 . S
H1059 C1073 0.961 . S
H1060 C1074 0.960 . S
H1061 C1074 0.961 . S
H1062 C1074 0.959 . S
H1063 C1077 0.929 . S
H1064 C1078 0.931 . S
H1065 C1080 0.930 . S
C1066 H1054 0.930 . S
C1066 C1067 1.399 1_554 S
C1066 C1071 1.399 . S
C1067 C1066 1.399 1_556 S
C1067 C1068 1.376 . S
C1068 H1055 0.930 . S
C1068 C1067 1.376 . S
C1068 C1069 1.388 1_556 S
C1069 H1056 0.930 . S
C1069 C1068 1.388 1_554 S
C1069 C1070 1.390 . S
C1070 C1069 1.390 . S
C1070 C1071 1.394 . S
C1070 C1076 1.465 . S
C1071 C1066 1.399 . S
C1071 C1070 1.394 . S
C1071 C1072 1.516 . S
C1072 C1071 1.516 . S
C1072 C1073 1.502 . S
C1072 C1074 1.561 . S
C1072 C1075 1.526 . S
C1073 H1057 0.959 . S
C1073 H1058 0.959 . S
C1073 H1059 0.961 . S
C1073 C1072 1.502 . S
C1074 H1060 0.960 . S
C1074 H1061 0.961 . S
C1074 H1062 0.959 . S
C1074 C1072 1.561 . S
C1075 C1072 1.526 . S
C1075 C1076 1.396 . S
C1075 C1080 1.390 . S
C1076 C1070 1.465 . S
C1076 C1075 1.396 . S
C1076 C1077 1.399 . S
C1077 H1063 0.929 . S
C1077 C1076 1.399 . S
C1077 C1078 1.385 . S
C1078 H1064 0.931 . S
C1078 C1077 1.385 . S
C1078 C1079 1.389 . S
C1079 C1078 1.389 . S
C1079 C1080 1.387 . S
C1080 H1065 0.930 . S
C1080 C1075 1.390 . S
C1080 C1079 1.387 . S
H1081 C1093 0.930 . S
H1082 C1095 0.930 . S
H1083 C1096 0.930 . S
H1084 C1100 0.959 . S
H1085 C1100 0.959 . S
H1086 C1100 0.961 . S
H1087 C1101 0.960 . S
H1088 C1101 0.961 . S
H1089 C1101 0.959 . S
H1090 C1104 0.929 . S
H1091 C1105 0.931 . S
H1092 C1107 0.930 . S
C1093 H1081 0.930 . S
C1093 C1094 1.399 1_556 S
C1093 C1098 1.399 . S
C1094 C1093 1.399 1_554 S
C1094 C1095 1.376 . S
C1095 H1082 0.930 . S
C1095 C1094 1.376 . S
C1095 C1096 1.388 1_554 S
C1096 H1083 0.930 . S
C1096 C1095 1.388 1_556 S
C1096 C1097 1.390 . S
C1097 C1096 1.390 . S
C1097 C1098 1.394 . S
C1097 C1103 1.465 . S
C1098 C1093 1.399 . S
C1098 C1097 1.394 . S
C1098 C1099 1.516 . S
C1099 C1098 1.516 . S
C1099 C1100 1.502 . S
C1099 C1101 1.561 . S
C1099 C1102 1.526 . S
C1100 H1084 0.959 . S
C1100 H1085 0.959 . S
C1100 H1086 0.961 . S
C1100 C1099 1.502 . S
C1101 H1087 0.960 . S
C1101 H1088 0.961 . S
C1101 H1089 0.959 . S
C1101 C1099 1.561 . S
C1102 C1099 1.526 . S
C1102 C1103 1.396 . S
C1102 C1107 1.390 . S
C1103 C1097 1.465 . S
C1103 C1102 1.396 . S
C1103 C1104 1.399 . S
C1104 H1090 0.929 . S
C1104 C1103 1.399 . S
C1104 C1105 1.385 . S
C1105 H1091 0.931 . S
C1105 C1104 1.385 . S
C1105 C1106 1.389 . S
C1106 C1105 1.389 . S
C1106 C1107 1.387 . S
C1107 H1092 0.930 . S
C1107 C1102 1.390 . S
C1107 C1106 1.387 . S
H1108 C1120 0.930 . S
H1109 C1122 0.930 . S
H1110 C1123 0.930 . S
H1111 C1127 0.959 . S
H1112 C1127 0.959 . S
H1113 C1127 0.961 . S
H1114 C1128 0.960 . S
H1115 C1128 0.961 . S
H1116 C1128 0.959 . S
H1117 C1131 0.929 . S
H1118 C1132 0.931 . S
H1119 C1134 0.930 . S
C1120 H1108 0.930 . S
C1120 C1121 1.399 . S
C1120 C1125 1.399 . S
C1121 C1120 1.399 . S
C1121 C1122 1.376 . S
C1122 H1109 0.930 . S
C1122 C1121 1.376 . S
C1122 C1123 1.388 . S
C1123 H1110 0.930 . S
C1123 C1122 1.388 . S
C1123 C1124 1.390 . S
C1124 C1123 1.390 . S
C1124 C1125 1.394 . S
C1124 C1130 1.465 . S
C1125 C1120 1.399 . S
C1125 C1124 1.394 . S
C1125 C1126 1.516 . S
C1126 C1125 1.516 . S
C1126 C1127 1.502 . S
C1126 C1128 1.561 . S
C1126 C1129 1.526 . S
C1127 H1111 0.959 . S
C1127 H1112 0.959 . S
C1127 H1113 0.961 . S
C1127 C1126 1.502 . S
C1128 H1114 0.960 . S
C1128 H1115 0.961 . S
C1128 H1116 0.959 . S
C1128 C1126 1.561 . S
C1129 C1126 1.526 . S
C1129 C1130 1.396 . S
C1129 C1134 1.390 . S
C1130 C1124 1.465 . S
C1130 C1129 1.396 . S
C1130 C1131 1.399 . S
C1131 H1117 0.929 . S
C1131 C1130 1.399 . S
C1131 C1132 1.385 1_556 S
C1132 H1118 0.931 . S
C1132 C1131 1.385 1_554 S
C1132 C1133 1.389 . S
C1133 C1132 1.389 . S
C1133 C1134 1.387 1_554 S
C1134 H1119 0.930 . S
C1134 C1129 1.390 . S
C1134 C1133 1.387 1_556 S
H1135 C1147 0.930 . S
H1136 C1149 0.930 . S
H1137 C1150 0.930 . S
H1138 C1154 0.959 . S
H1139 C1154 0.959 . S
H1140 C1154 0.961 . S
H1141 C1155 0.960 . S
H1142 C1155 0.961 . S
H1143 C1155 0.959 . S
H1144 C1158 0.929 . S
H1145 C1159 0.931 . S
H1146 C1161 0.940 . S
C1147 H1135 0.930 . S
C1147 C1148 1.399 . S
C1147 C1152 1.399 . S
C1148 C1147 1.399 . S
C1148 C1149 1.376 . S
C1149 H1136 0.930 . S
C1149 C1148 1.376 . S
C1149 C1150 1.388 . S
C1150 H1137 0.930 . S
C1150 C1149 1.388 . S
C1150 C1151 1.390 . S
C1151 C1150 1.390 . S
C1151 C1152 1.394 . S
C1151 C1157 1.465 . S
C1152 C1147 1.399 . S
C1152 C1151 1.394 . S
C1152 C1153 1.516 . S
C1153 C1152 1.516 . S
C1153 C1154 1.502 . S
C1153 C1155 1.561 . S
C1153 C1156 1.526 . S
C1154 H1138 0.959 . S
C1154 H1139 0.959 . S
C1154 H1140 0.961 . S
C1154 C1153 1.502 . S
C1155 H1141 0.960 . S
C1155 H1142 0.961 . S
C1155 H1143 0.959 . S
C1155 C1153 1.561 . S
C1156 C1153 1.526 . S
C1156 C1157 1.396 . S
C1156 C1161 1.367 1_554 S
C1157 C1151 1.465 . S
C1157 C1156 1.396 . S
C1157 C1158 1.399 . S
C1158 H1144 0.929 . S
C1158 C1157 1.399 . S
C1158 C1159 1.385 1_554 S
C1159 H1145 0.931 . S
C1159 C1158 1.385 1_556 S
C1159 C1160 1.389 . S
C1160 C1159 1.389 . S
C1160 C1161 1.399 . S
C1161 H1146 0.940 . S
C1161 C1156 1.367 1_556 S
C1161 C1160 1.399 . S
H1162 C1174 0.930 . S
H1163 C1176 0.930 . S
H1164 C1177 0.930 . S
H1165 C1181 0.959 . S
H1166 C1181 0.959 . S
H1167 C1181 0.961 . S
H1168 C1182 0.960 . S
H1169 C1182 0.961 . S
H1170 C1182 0.959 . S
H1171 C1185 0.929 . S
H1172 C1186 0.923 1_554 S
H1173 C1188 0.930 . S
C1174 H1162 0.930 . S
C1174 C1175 1.399 . S
C1174 C1179 1.399 . S
C1175 C1174 1.399 . S
C1175 C1176 1.376 . S
C1176 H1163 0.930 . S
C1176 C1175 1.376 . S
C1176 C1177 1.388 . S
C1177 H1164 0.930 . S
C1177 C1176 1.388 . S
C1177 C1178 1.390 . S
C1178 C1177 1.390 . S
C1178 C1179 1.394 . S
C1178 C1184 1.465 . S
C1179 C1174 1.399 . S
C1179 C1178 1.394 . S
C1179 C1180 1.516 . S
C1180 C1179 1.516 . S
C1180 C1181 1.502 . S
C1180 C1182 1.561 . S
C1180 C1183 1.526 . S
C1181 H1165 0.959 . S
C1181 H1166 0.959 . S
C1181 H1167 0.961 . S
C1181 C1180 1.502 . S
C1182 H1168 0.960 . S
C1182 H1169 0.961 . S
C1182 H1170 0.959 . S
C1182 C1180 1.561 . S
C1183 C1180 1.526 . S
C1183 C1184 1.396 . S
C1183 C1188 1.390 1_556 S
C1184 C1178 1.465 . S
C1184 C1183 1.396 . S
C1184 C1185 1.399 . S
C1185 H1171 0.929 . S
C1185 C1184 1.399 . S
C1185 C1186 1.403 . S
C1186 H1172 0.923 1_556 S
C1186 C1185 1.403 . S
C1186 C1187 1.379 1_556 S
C1187 C1186 1.379 1_554 S
C1187 C1188 1.387 . S
C1188 H1173 0.930 . S
C1188 C1183 1.390 1_554 S
C1188 C1187 1.387 . S
H1189 C1201 0.930 . S
H1190 C1203 0.927 1_556 S
H1191 C1204 0.930 . S
H1192 C1208 0.959 . S
H1193 C1208 0.959 . S
H1194 C1208 0.961 . S
H1195 C1209 0.960 . S
H1196 C1209 0.961 . S
H1197 C1209 0.959 . S
H1198 C1212 0.929 . S
H1199 C1213 0.931 . S
H1200 C1215 0.930 . S
C1201 H1189 0.930 . S
C1201 C1202 1.399 . S
C1201 C1206 1.399 1_556 S
C1202 C1201 1.399 . S
C1202 C1203 1.376 1_556 S
C1203 H1190 0.927 1_554 S
C1203 C1202 1.376 1_554 S
C1203 C1204 1.388 . S
C1204 H1191 0.930 . S
C1204 C1203 1.388 . S
C1204 C1205 1.390 . S
C1205 C1204 1.390 . S
C1205 C1206 1.394 . S
C1205 C1211 1.465 . S
C1206 C1201 1.399 1_554 S
C1206 C1205 1.394 . S
C1206 C1207 1.516 . S
C1207 C1206 1.516 . S
C1207 C1208 1.502 . S
C1207 C1209 1.561 . S
C1207 C1210 1.526 . S
C1208 H1192 0.959 . S
C1208 H1193 0.959 . S
C1208 H1194 0.961 . S
C1208 C1207 1.502 . S
C1209 H1195 0.960 . S
C1209 H1196 0.961 . S
C1209 H1197 0.959 . S
C1209 C1207 1.561 . S
C1210 C1207 1.526 . S
C1210 C1211 1.396 . S
C1210 C1215 1.390 . S
C1211 C1205 1.465 . S
C1211 C1210 1.396 . S
C1211 C1212 1.399 . S
C1212 H1198 0.929 . S
C1212 C1211 1.399 . S
C1212 C1213 1.385 . S
C1213 H1199 0.931 . S
C1213 C1212 1.385 . S
C1213 C1214 1.389 . S
C1214 C1213 1.389 . S
C1214 C1215 1.387 . S
C1215 H1200 0.930 . S
C1215 C1210 1.390 . S
C1215 C1214 1.387 . S
H1216 C1228 0.930 . S
H1217 C1230 0.930 . S
H1218 C1231 0.930 . S
H1219 C1235 0.959 . S
H1220 C1235 0.959 . S
H1221 C1235 0.961 . S
H1222 C1236 0.960 . S
H1223 C1236 0.961 . S
H1224 C1236 0.959 . S
H1225 C1239 0.929 . S
H1226 C1240 0.931 . S
H1227 C1242 0.930 . S
C1228 H1216 0.930 . S
C1228 C1229 1.399 . S
C1228 C1233 1.399 . S
C1229 C1228 1.399 . S
C1229 C1230 1.376 . S
C1230 H1217 0.930 . S
C1230 C1229 1.376 . S
C1230 C1231 1.388 . S
C1231 H1218 0.930 . S
C1231 C1230 1.388 . S
C1231 C1232 1.390 . S
C1232 C1231 1.390 . S
C1232 C1233 1.394 . S
C1232 C1238 1.465 . S
C1233 C1228 1.399 . S
C1233 C1232 1.394 . S
C1233 C1234 1.516 . S
C1234 C1233 1.516 . S
C1234 C1235 1.502 . S
C1234 C1236 1.561 . S
C1234 C1237 1.526 . S
C1235 H1219 0.959 . S
C1235 H1220 0.959 . S
C1235 H1221 0.961 . S
C1235 C1234 1.502 . S
C1236 H1222 0.960 . S
C1236 H1223 0.961 . S
C1236 H1224 0.959 . S
C1236 C1234 1.561 . S
C1237 C1234 1.526 . S
C1237 C1238 1.396 . S
C1237 C1242 1.390 . S
C1238 C1232 1.465 . S
C1238 C1237 1.396 . S
C1238 C1239 1.399 . S
C1239 H1225 0.929 . S
C1239 C1238 1.399 . S
C1239 C1240 1.385 . S
C1240 H1226 0.931 . S
C1240 C1239 1.385 . S
C1240 C1241 1.389 . S
C1241 C1240 1.389 . S
C1241 C1242 1.387 . S
C1242 H1227 0.930 . S
C1242 C1237 1.390 . S
C1242 C1241 1.387 . S
H1243 C1255 0.930 . S
H1244 C1257 0.930 . S
H1245 C1258 0.930 . S
H1246 C1262 0.959 . S
H1247 C1262 0.959 . S
H1248 C1262 0.961 . S
H1249 C1263 0.960 . S
H1250 C1263 0.961 . S
H1251 C1263 0.959 . S
H1252 C1266 0.929 . S
H1253 C1267 0.931 . S
H1254 C1269 0.930 . S
C1255 H1243 0.930 . S
C1255 C1256 1.399 . S
C1255 C1260 1.399 . S
C1256 C1255 1.399 . S
C1256 C1257 1.376 . S
C1257 H1244 0.930 . S
C1257 C1256 1.376 . S
C1257 C1258 1.388 . S
C1258 H1245 0.930 . S
C1258 C1257 1.388 . S
C1258 C1259 1.390 . S
C1259 C1258 1.390 . S
C1259 C1260 1.394 . S
C1259 C1265 1.465 . S
C1260 C1255 1.399 . S
C1260 C1259 1.394 . S
C1260 C1261 1.516 . S
C1261 C1260 1.516 . S
C1261 C1262 1.502 . S
C1261 C1263 1.561 . S
C1261 C1264 1.526 . S
C1262 H1246 0.959 . S
C1262 H1247 0.959 . S
C1262 H1248 0.961 . S
C1262 C1261 1.502 . S
C1263 H1249 0.960 . S
C1263 H1250 0.961 . S
C1263 H1251 0.959 . S
C1263 C1261 1.561 . S
C1264 C1261 1.526 . S
C1264 C1265 1.396 . S
C1264 C1269 1.390 . S
C1265 C1259 1.465 . S
C1265 C1264 1.396 . S
C1265 C1266 1.399 . S
C1266 H1252 0.929 . S
C1266 C1265 1.399 . S
C1266 C1267 1.385 . S
C1267 H1253 0.931 . S
C1267 C1266 1.385 . S
C1267 C1268 1.389 . S
C1268 C1267 1.389 . S
C1268 C1269 1.387 . S
C1269 H1254 0.930 . S
C1269 C1264 1.390 . S
C1269 C1268 1.387 . S
H1270 C1282 0.930 . S
H1271 C1284 0.930 . S
H1272 C1285 0.930 . S
H1273 C1289 0.959 . S
H1274 C1289 0.959 . S
H1275 C1289 0.961 . S
H1276 C1290 0.960 . S
H1277 C1290 0.961 . S
H1278 C1290 0.959 . S
H1279 C1293 0.929 . S
H1280 C1294 0.931 . S
H1281 C1296 0.930 . S
C1282 H1270 0.930 . S
C1282 C1283 1.399 . S
C1282 C1287 1.399 . S
C1283 C1282 1.399 . S
C1283 C1284 1.376 . S
C1284 H1271 0.930 . S
C1284 C1283 1.376 . S
C1284 C1285 1.388 . S
C1285 H1272 0.930 . S
C1285 C1284 1.388 . S
C1285 C1286 1.390 . S
C1286 C1285 1.390 . S
C1286 C1287 1.394 . S
C1286 C1292 1.465 . S
C1287 C1282 1.399 . S
C1287 C1286 1.394 . S
C1287 C1288 1.516 . S
C1288 C1287 1.516 . S
C1288 C1289 1.502 . S
C1288 C1290 1.561 . S
C1288 C1291 1.526 . S
C1289 H1273 0.959 . S
C1289 H1274 0.959 . S
C1289 H1275 0.961 . S
C1289 C1288 1.502 . S
C1290 H1276 0.960 . S
C1290 H1277 0.961 . S
C1290 H1278 0.959 . S
C1290 C1288 1.561 . S
C1291 C1288 1.526 . S
C1291 C1292 1.396 . S
C1291 C1296 1.390 . S
C1292 C1286 1.465 . S
C1292 C1291 1.396 . S
C1292 C1293 1.399 . S
C1293 H1279 0.929 . S
C1293 C1292 1.399 . S
C1293 C1294 1.385 . S
C1294 H1280 0.931 . S
C1294 C1293 1.385 . S
C1294 C1295 1.389 . S
C1295 C1294 1.389 . S
C1295 C1296 1.387 . S
C1296 H1281 0.930 . S
C1296 C1291 1.390 . S
C1296 C1295 1.387 . S
H1297 C1309 0.930 . S
H1298 C1311 0.930 . S
H1299 C1312 0.930 . S
H1300 C1316 0.959 . S
H1301 C1316 0.959 . S
H1302 C1316 0.961 . S
H1303 C1317 0.960 . S
H1304 C1317 0.961 . S
H1305 C1317 0.959 . S
H1306 C1320 0.929 . S
H1307 C1321 0.931 . S
H1308 C1323 0.930 . S
C1309 H1297 0.930 . S
C1309 C1310 1.399 . S
C1309 C1314 1.399 . S
C1310 C1309 1.399 . S
C1310 C1311 1.376 . S
C1311 H1298 0.930 . S
C1311 C1310 1.376 . S
C1311 C1312 1.388 . S
C1312 H1299 0.930 . S
C1312 C1311 1.388 . S
C1312 C1313 1.390 . S
C1313 C1312 1.390 . S
C1313 C1314 1.394 . S
C1313 C1319 1.465 . S
C1314 C1309 1.399 . S
C1314 C1313 1.394 . S
C1314 C1315 1.516 . S
C1315 C1314 1.516 . S
C1315 C1316 1.502 . S
C1315 C1317 1.561 . S
C1315 C1318 1.526 . S
C1316 H1300 0.959 . S
C1316 H1301 0.959 . S
C1316 H1302 0.961 . S
C1316 C1315 1.502 . S
C1317 H1303 0.960 . S
C1317 H1304 0.961 . S
C1317 H1305 0.959 . S
C1317 C1315 1.561 . S
C1318 C1315 1.526 . S
C1318 C1319 1.396 . S
C1318 C1323 1.390 . S
C1319 C1313 1.465 . S
C1319 C1318 1.396 . S
C1319 C1320 1.399 . S
C1320 H1306 0.929 . S
C1320 C1319 1.399 . S
C1320 C1321 1.385 . S
C1321 H1307 0.931 . S
C1321 C1320 1.385 . S
C1321 C1322 1.389 . S
C1322 C1321 1.389 . S
C1322 C1323 1.387 . S
C1323 H1308 0.930 . S
C1323 C1318 1.390 . S
C1323 C1322 1.387 . S
H1324 C1336 0.930 . S
H1325 C1338 0.930 . S
H1326 C1339 0.930 . S
H1327 C1343 0.959 . S
H1328 C1343 0.959 . S
H1329 C1343 0.961 . S
H1330 C1344 0.960 . S
H1331 C1344 0.961 . S
H1332 C1344 0.959 . S
H1333 C1347 0.929 . S
H1334 C1348 0.931 . S
H1335 C1350 0.930 . S
C1336 H1324 0.930 . S
C1336 C1337 1.399 . S
C1336 C1341 1.399 . S
C1337 C1336 1.399 . S
C1337 C1338 1.376 . S
C1338 H1325 0.930 . S
C1338 C1337 1.376 . S
C1338 C1339 1.388 . S
C1339 H1326 0.930 . S
C1339 C1338 1.388 . S
C1339 C1340 1.390 . S
C1340 C1339 1.390 . S
C1340 C1341 1.394 . S
C1340 C1346 1.465 . S
C1341 C1336 1.399 . S
C1341 C1340 1.394 . S
C1341 C1342 1.516 . S
C1342 C1341 1.516 . S
C1342 C1343 1.502 . S
C1342 C1344 1.561 . S
C1342 C1345 1.526 . S
C1343 H1327 0.959 . S
C1343 H1328 0.959 . S
C1343 H1329 0.961 . S
C1343 C1342 1.502 . S
C1344 H1330 0.960 . S
C1344 H1331 0.961 . S
C1344 H1332 0.959 . S
C1344 C1342 1.561 . S
C1345 C1342 1.526 . S
C1345 C1346 1.396 . S
C1345 C1350 1.390 . S
C1346 C1340 1.465 . S
C1346 C1345 1.396 . S
C1346 C1347 1.399 . S
C1347 H1333 0.929 . S
C1347 C1346 1.399 . S
C1347 C1348 1.385 . S
C1348 H1334 0.931 . S
C1348 C1347 1.385 . S
C1348 C1349 1.389 . S
C1349 C1348 1.389 . S
C1349 C1350 1.387 . S
C1350 H1335 0.930 . S
C1350 C1345 1.390 . S
C1350 C1349 1.387 . S
H1351 C1363 0.930 . S
H1352 C1365 0.930 . S
H1353 C1366 0.930 . S
H1354 C1370 0.959 . S
H1355 C1370 0.959 . S
H1356 C1370 0.961 . S
H1357 C1371 0.960 . S
H1358 C1371 0.961 . S
H1359 C1371 0.959 . S
H1360 C1374 0.929 . S
H1361 C1375 0.931 . S
H1362 C1377 0.930 . S
C1363 H1351 0.930 . S
C1363 C1364 1.399 . S
C1363 C1368 1.399 . S
C1364 C1363 1.399 . S
C1364 C1365 1.376 . S
C1365 H1352 0.930 . S
C1365 C1364 1.376 . S
C1365 C1366 1.388 . S
C1366 H1353 0.930 . S
C1366 C1365 1.388 . S
C1366 C1367 1.390 . S
C1367 C1366 1.390 . S
C1367 C1368 1.394 . S
C1367 C1373 1.465 . S
C1368 C1363 1.399 . S
C1368 C1367 1.394 . S
C1368 C1369 1.516 . S
C1369 C1368 1.516 . S
C1369 C1370 1.502 . S
C1369 C1371 1.561 . S
C1369 C1372 1.526 . S
C1370 H1354 0.959 . S
C1370 H1355 0.959 . S
C1370 H1356 0.961 . S
C1370 C1369 1.502 . S
C1371 H1357 0.960 . S
C1371 H1358 0.961 . S
C1371 H1359 0.959 . S
C1371 C1369 1.561 . S
C1372 C1369 1.526 . S
C1372 C1373 1.396 . S
C1372 C1377 1.390 . S
C1373 C1367 1.465 . S
C1373 C1372 1.396 . S
C1373 C1374 1.399 . S
C1374 H1360 0.929 . S
C1374 C1373 1.399 . S
C1374 C1375 1.385 . S
C1375 H1361 0.931 . S
C1375 C1374 1.385 . S
C1375 C1376 1.389 . S
C1376 C1375 1.389 . S
C1376 C1377 1.387 . S
C1377 H1362 0.930 . S
C1377 C1372 1.390 . S
C1377 C1376 1.387 . S
H1378 C1390 0.930 . S
H1379 C1392 0.930 . S
H1380 C1393 0.930 . S
H1381 C1397 0.959 . S
H1382 C1397 0.959 . S
H1383 C1397 0.961 . S
H1384 C1398 0.960 . S
H1385 C1398 0.961 . S
H1386 C1398 0.959 . S
H1387 C1401 0.929 . S
H1388 C1402 0.931 . S
H1389 C1404 0.930 . S
C1390 H1378 0.930 . S
C1390 C1391 1.399 . S
C1390 C1395 1.399 . S
C1391 C1390 1.399 . S
C1391 C1392 1.376 . S
C1392 H1379 0.930 . S
C1392 C1391 1.376 . S
C1392 C1393 1.388 . S
C1393 H1380 0.930 . S
C1393 C1392 1.388 . S
C1393 C1394 1.390 . S
C1394 C1393 1.390 . S
C1394 C1395 1.394 . S
C1394 C1400 1.465 . S
C1395 C1390 1.399 . S
C1395 C1394 1.394 . S
C1395 C1396 1.516 . S
C1396 C1395 1.516 . S
C1396 C1397 1.502 . S
C1396 C1398 1.561 . S
C1396 C1399 1.526 . S
C1397 H1381 0.959 . S
C1397 H1382 0.959 . S
C1397 H1383 0.961 . S
C1397 C1396 1.502 . S
C1398 H1384 0.960 . S
C1398 H1385 0.961 . S
C1398 H1386 0.959 . S
C1398 C1396 1.561 . S
C1399 C1396 1.526 . S
C1399 C1400 1.396 . S
C1399 C1404 1.390 . S
C1400 C1394 1.465 . S
C1400 C1399 1.396 . S
C1400 C1401 1.399 . S
C1401 H1387 0.929 . S
C1401 C1400 1.399 . S
C1401 C1402 1.385 . S
C1402 H1388 0.931 . S
C1402 C1401 1.385 . S
C1402 C1403 1.389 . S
C1403 C1402 1.389 . S
C1403 C1404 1.387 . S
C1404 H1389 0.930 . S
C1404 C1399 1.390 . S
C1404 C1403 1.387 . S
H1405 C1417 0.930 . S
H1406 C1419 0.930 . S
H1407 C1420 0.930 . S
H1408 C1424 0.959 . S
H1409 C1424 0.959 . S
H1410 C1424 0.961 . S
H1411 C1425 0.960 . S
H1412 C1425 0.961 . S
H1413 C1425 0.959 . S
H1414 C1428 0.929 . S
H1415 C1429 0.931 . S
H1416 C1431 0.930 . S
C1417 H1405 0.930 . S
C1417 C1418 1.399 . S
C1417 C1422 1.399 . S
C1418 C1417 1.399 . S
C1418 C1419 1.376 . S
C1419 H1406 0.930 . S
C1419 C1418 1.376 . S
C1419 C1420 1.388 . S
C1420 H1407 0.930 . S
C1420 C1419 1.388 . S
C1420 C1421 1.390 . S
C1421 C1420 1.390 . S
C1421 C1422 1.394 . S
C1421 C1427 1.465 . S
C1422 C1417 1.399 . S
C1422 C1421 1.394 . S
C1422 C1423 1.516 . S
C1423 C1422 1.516 . S
C1423 C1424 1.502 . S
C1423 C1425 1.561 . S
C1423 C1426 1.526 . S
C1424 H1408 0.959 . S
C1424 H1409 0.959 . S
C1424 H1410 0.961 . S
C1424 C1423 1.502 . S
C1425 H1411 0.960 . S
C1425 H1412 0.961 . S
C1425 H1413 0.959 . S
C1425 C1423 1.561 . S
C1426 C1423 1.526 . S
C1426 C1427 1.396 . S
C1426 C1431 1.390 . S
C1427 C1421 1.465 . S
C1427 C1426 1.396 . S
C1427 C1428 1.399 . S
C1428 H1414 0.929 . S
C1428 C1427 1.399 . S
C1428 C1429 1.385 . S
C1429 H1415 0.931 . S
C1429 C1428 1.385 . S
C1429 C1430 1.389 . S
C1430 C1429 1.389 . S
C1430 C1431 1.387 . S
C1431 H1416 0.930 . S
C1431 C1426 1.390 . S
C1431 C1430 1.387 . S
H1432 C1444 0.930 . S
H1433 C1446 0.930 . S
H1434 C1447 0.930 . S
H1435 C1451 0.959 . S
H1436 C1451 0.959 . S
H1437 C1451 0.961 . S
H1438 C1452 0.960 . S
H1439 C1452 0.961 . S
H1440 C1452 0.959 . S
H1441 C1455 0.929 . S
H1442 C1456 0.931 . S
H1443 C1458 0.930 . S
C1444 H1432 0.930 . S
C1444 C1445 1.399 . S
C1444 C1449 1.399 . S
C1445 C1444 1.399 . S
C1445 C1446 1.376 . S
C1446 H1433 0.930 . S
C1446 C1445 1.376 . S
C1446 C1447 1.388 . S
C1447 H1434 0.930 . S
C1447 C1446 1.388 . S
C1447 C1448 1.390 . S
C1448 C1447 1.390 . S
C1448 C1449 1.394 . S
C1448 C1454 1.465 . S
C1449 C1444 1.399 . S
C1449 C1448 1.394 . S
C1449 C1450 1.516 . S
C1450 C1449 1.516 . S
C1450 C1451 1.502 . S
C1450 C1452 1.561 . S
C1450 C1453 1.526 . S
C1451 H1435 0.959 . S
C1451 H1436 0.959 . S
C1451 H1437 0.961 . S
C1451 C1450 1.502 . S
C1452 H1438 0.960 . S
C1452 H1439 0.961 . S
C1452 H1440 0.959 . S
C1452 C1450 1.561 . S
C1453 C1450 1.526 . S
C1453 C1454 1.396 . S
C1453 C1458 1.390 . S
C1454 C1448 1.465 . S
C1454 C1453 1.396 . S
C1454 C1455 1.399 . S
C1455 H1441 0.929 . S
C1455 C1454 1.399 . S
C1455 C1456 1.385 . S
C1456 H1442 0.931 . S
C1456 C1455 1.385 . S
C1456 C1457 1.389 . S
C1457 C1456 1.389 . S
C1457 C1458 1.387 . S
C1458 H1443 0.930 . S
C1458 C1453 1.390 . S
C1458 C1457 1.387 . S
H1459 C1471 0.930 . S
H1460 C1473 0.930 . S
H1461 C1474 0.930 . S
H1462 C1478 0.959 . S
H1463 C1478 0.959 . S
H1464 C1478 0.961 . S
H1465 C1479 0.960 . S
H1466 C1479 0.961 . S
H1467 C1479 0.959 . S
H1468 C1482 0.929 . S
H1469 C1483 0.931 . S
H1470 C1485 0.930 . S
C1471 H1459 0.930 . S
C1471 C1472 1.399 . S
C1471 C1476 1.399 . S
C1472 C1471 1.399 . S
C1472 C1473 1.376 . S
C1473 H1460 0.930 . S
C1473 C1472 1.376 . S
C1473 C1474 1.388 . S
C1474 H1461 0.930 . S
C1474 C1473 1.388 . S
C1474 C1475 1.390 . S
C1475 C1474 1.390 . S
C1475 C1476 1.394 . S
C1475 C1481 1.465 . S
C1476 C1471 1.399 . S
C1476 C1475 1.394 . S
C1476 C1477 1.516 . S
C1477 C1476 1.516 . S
C1477 C1478 1.502 . S
C1477 C1479 1.561 . S
C1477 C1480 1.526 . S
C1478 H1462 0.959 . S
C1478 H1463 0.959 . S
C1478 H1464 0.961 . S
C1478 C1477 1.502 . S
C1479 H1465 0.960 . S
C1479 H1466 0.961 . S
C1479 H1467 0.959 . S
C1479 C1477 1.561 . S
C1480 C1477 1.526 . S
C1480 C1481 1.396 . S
C1480 C1485 1.390 . S
C1481 C1475 1.465 . S
C1481 C1480 1.396 . S
C1481 C1482 1.399 . S
C1482 H1468 0.929 . S
C1482 C1481 1.399 . S
C1482 C1483 1.385 . S
C1483 H1469 0.931 . S
C1483 C1482 1.385 . S
C1483 C1484 1.389 . S
C1484 C1483 1.389 . S
C1484 C1485 1.387 . S
C1485 H1470 0.930 . S
C1485 C1480 1.390 . S
C1485 C1484 1.387 . S
H1486 C1498 0.930 . S
H1487 C1500 0.930 . S
H1488 C1501 0.930 . S
H1489 C1505 0.959 . S
H1490 C1505 0.959 . S
H1491 C1505 0.961 . S
H1492 C1506 0.960 . S
H1493 C1506 0.961 . S
H1494 C1506 0.959 . S
H1495 C1509 0.929 . S
H1496 C1510 0.931 . S
H1497 C1512 0.930 . S
C1498 H1486 0.930 . S
C1498 C1499 1.399 . S
C1498 C1503 1.399 . S
C1499 C1498 1.399 . S
C1499 C1500 1.376 . S
C1500 H1487 0.930 . S
C1500 C1499 1.376 . S
C1500 C1501 1.388 . S
C1501 H1488 0.930 . S
C1501 C1500 1.388 . S
C1501 C1502 1.390 . S
C1502 C1501 1.390 . S
C1502 C1503 1.394 . S
C1502 C1508 1.465 . S
C1503 C1498 1.399 . S
C1503 C1502 1.394 . S
C1503 C1504 1.516 . S
C1504 C1503 1.516 . S
C1504 C1505 1.502 . S
C1504 C1506 1.561 . S
C1504 C1507 1.526 . S
C1505 H1489 0.959 . S
C1505 H1490 0.959 . S
C1505 H1491 0.961 . S
C1505 C1504 1.502 . S
C1506 H1492 0.960 . S
C1506 H1493 0.961 . S
C1506 H1494 0.959 . S
C1506 C1504 1.561 . S
C1507 C1504 1.526 . S
C1507 C1508 1.396 . S
C1507 C1512 1.390 . S
C1508 C1502 1.465 . S
C1508 C1507 1.396 . S
C1508 C1509 1.399 . S
C1509 H1495 0.929 . S
C1509 C1508 1.399 . S
C1509 C1510 1.385 . S
C1510 H1496 0.931 . S
C1510 C1509 1.385 . S
C1510 C1511 1.389 . S
C1511 C1510 1.389 . S
C1511 C1512 1.387 . S
C1512 H1497 0.930 . S
C1512 C1507 1.390 . S
C1512 C1511 1.387 . S
H1513 C1525 0.930 . S
H1514 C1527 0.930 . S
H1515 C1528 0.930 . S
H1516 C1532 0.959 . S
H1517 C1532 0.959 . S
H1518 C1532 0.961 . S
H1519 C1533 0.960 . S
H1520 C1533 0.961 . S
H1521 C1533 0.959 . S
H1522 C1536 0.929 . S
H1523 C1537 0.931 . S
H1524 C1539 0.930 . S
C1525 H1513 0.930 . S
C1525 C1526 1.399 . S
C1525 C1530 1.399 . S
C1526 C1525 1.399 . S
C1526 C1527 1.376 . S
C1527 H1514 0.930 . S
C1527 C1526 1.376 . S
C1527 C1528 1.388 . S
C1528 H1515 0.930 . S
C1528 C1527 1.388 . S
C1528 C1529 1.390 . S
C1529 C1528 1.390 . S
C1529 C1530 1.394 . S
C1529 C1535 1.465 . S
C1530 C1525 1.399 . S
C1530 C1529 1.394 . S
C1530 C1531 1.516 . S
C1531 C1530 1.516 . S
C1531 C1532 1.502 . S
C1531 C1533 1.561 . S
C1531 C1534 1.526 . S
C1532 H1516 0.959 . S
C1532 H1517 0.959 . S
C1532 H1518 0.961 . S
C1532 C1531 1.502 . S
C1533 H1519 0.960 . S
C1533 H1520 0.961 . S
C1533 H1521 0.959 . S
C1533 C1531 1.561 . S
C1534 C1531 1.526 . S
C1534 C1535 1.396 . S
C1534 C1539 1.390 . S
C1535 C1529 1.465 . S
C1535 C1534 1.396 . S
C1535 C1536 1.399 . S
C1536 H1522 0.929 . S
C1536 C1535 1.399 . S
C1536 C1537 1.385 . S
C1537 H1523 0.931 . S
C1537 C1536 1.385 . S
C1537 C1538 1.389 . S
C1538 C1537 1.389 . S
C1538 C1539 1.387 . S
C1539 H1524 0.930 . S
C1539 C1534 1.390 . S
C1539 C1538 1.387 . S
H1540 C1552 0.930 . S
H1541 C1554 0.930 . S
H1542 C1555 0.930 . S
H1543 C1559 0.959 . S
H1544 C1559 0.959 . S
H1545 C1559 0.961 . S
H1546 C1560 0.960 . S
H1547 C1560 0.961 . S
H1548 C1560 0.959 . S
H1549 C1563 0.929 . S
H1550 C1564 0.931 . S
H1551 C1566 0.930 . S
C1552 H1540 0.930 . S
C1552 C1553 1.399 . S
C1552 C1557 1.399 . S
C1553 C1552 1.399 . S
C1553 C1554 1.376 . S
C1554 H1541 0.930 . S
C1554 C1553 1.376 . S
C1554 C1555 1.388 . S
C1555 H1542 0.930 . S
C1555 C1554 1.388 . S
C1555 C1556 1.390 . S
C1556 C1555 1.390 . S
C1556 C1557 1.394 . S
C1556 C1562 1.465 . S
C1557 C1552 1.399 . S
C1557 C1556 1.394 . S
C1557 C1558 1.516 . S
C1558 C1557 1.516 . S
C1558 C1559 1.502 . S
C1558 C1560 1.561 . S
C1558 C1561 1.526 . S
C1559 H1543 0.959 . S
C1559 H1544 0.959 . S
C1559 H1545 0.961 . S
C1559 C1558 1.502 . S
C1560 H1546 0.960 . S
C1560 H1547 0.961 . S
C1560 H1548 0.959 . S
C1560 C1558 1.561 . S
C1561 C1558 1.526 . S
C1561 C1562 1.396 . S
C1561 C1566 1.390 . S
C1562 C1556 1.465 . S
C1562 C1561 1.396 . S
C1562 C1563 1.399 . S
C1563 H1549 0.929 . S
C1563 C1562 1.399 . S
C1563 C1564 1.385 . S
C1564 H1550 0.931 . S
C1564 C1563 1.385 . S
C1564 C1565 1.389 . S
C1565 C1564 1.389 . S
C1565 C1566 1.387 . S
C1566 H1551 0.930 . S
C1566 C1561 1.390 . S
C1566 C1565 1.387 . S
H1567 C1579 0.930 . S
H1568 C1581 0.930 . S
H1569 C1582 0.930 . S
H1570 C1586 0.959 . S
H1571 C1586 0.959 . S
H1572 C1586 0.961 . S
H1573 C1587 0.960 . S
H1574 C1587 0.961 . S
H1575 C1587 0.959 . S
H1576 C1590 0.929 . S
H1577 C1591 0.931 . S
H1578 C1593 0.930 . S
C1579 H1567 0.930 . S
C1579 C1580 1.399 . S
C1579 C1584 1.399 . S
C1580 C1579 1.399 . S
C1580 C1581 1.376 . S
C1581 H1568 0.930 . S
C1581 C1580 1.376 . S
C1581 C1582 1.388 . S
C1582 H1569 0.930 . S
C1582 C1581 1.388 . S
C1582 C1583 1.390 . S
C1583 C1582 1.390 . S
C1583 C1584 1.394 . S
C1583 C1589 1.465 . S
C1584 C1579 1.399 . S
C1584 C1583 1.394 . S
C1584 C1585 1.516 . S
C1585 C1584 1.516 . S
C1585 C1586 1.502 . S
C1585 C1587 1.561 . S
C1585 C1588 1.526 . S
C1586 H1570 0.959 . S
C1586 H1571 0.959 . S
C1586 H1572 0.961 . S
C1586 C1585 1.502 . S
C1587 H1573 0.960 . S
C1587 H1574 0.961 . S
C1587 H1575 0.959 . S
C1587 C1585 1.561 . S
C1588 C1585 1.526 . S
C1588 C1589 1.396 . S
C1588 C1593 1.390 . S
C1589 C1583 1.465 . S
C1589 C1588 1.396 . S
C1589 C1590 1.399 . S
C1590 H1576 0.929 . S
C1590 C1589 1.399 . S
C1590 C1591 1.385 . S
C1591 H1577 0.931 . S
C1591 C1590 1.385 . S
C1591 C1592 1.389 . S
C1592 C1591 1.389 . S
C1592 C1593 1.387 . S
C1593 H1578 0.930 . S
C1593 C1588 1.390 . S
C1593 C1592 1.387 . S
H1594 C1606 0.930 . S
H1595 C1608 0.930 . S
H1596 C1609 0.930 . S
H1597 C1613 0.959 . S
H1598 C1613 0.959 . S
H1599 C1613 0.961 . S
H1600 C1614 0.960 . S
H1601 C1614 0.961 . S
H1602 C1614 0.959 . S
H1603 C1617 0.929 . S
H1604 C1618 0.931 . S
H1605 C1620 0.930 . S
C1606 H1594 0.930 . S
C1606 C1607 1.399 . S
C1606 C1611 1.399 . S
C1607 C1606 1.399 . S
C1607 C1608 1.376 . S
C1608 H1595 0.930 . S
C1608 C1607 1.376 . S
C1608 C1609 1.388 . S
C1609 H1596 0.930 . S
C1609 C1608 1.388 . S
C1609 C1610 1.390 . S
C1610 C1609 1.390 . S
C1610 C1611 1.394 . S
C1610 C1616 1.465 . S
C1611 C1606 1.399 . S
C1611 C1610 1.394 . S
C1611 C1612 1.516 . S
C1612 C1611 1.516 . S
C1612 C1613 1.502 . S
C1612 C1614 1.561 . S
C1612 C1615 1.526 . S
C1613 H1597 0.959 . S
C1613 H1598 0.959 . S
C1613 H1599 0.961 . S
C1613 C1612 1.502 . S
C1614 H1600 0.960 . S
C1614 H1601 0.961 . S
C1614 H1602 0.959 . S
C1614 C1612 1.561 . S
C1615 C1612 1.526 . S
C1615 C1616 1.396 . S
C1615 C1620 1.390 . S
C1616 C1610 1.465 . S
C1616 C1615 1.396 . S
C1616 C1617 1.399 . S
C1617 H1603 0.929 . S
C1617 C1616 1.399 . S
C1617 C1618 1.385 . S
C1618 H1604 0.931 . S
C1618 C1617 1.385 . S
C1618 C1619 1.389 . S
C1619 C1618 1.389 . S
C1619 C1620 1.387 . S
C1620 H1605 0.930 . S
C1620 C1615 1.390 . S
C1620 C1619 1.387 . S
H1621 C1633 0.930 . S
H1622 C1635 0.930 . S
H1623 C1636 0.930 . S
H1624 C1640 0.959 . S
H1625 C1640 0.959 . S
H1626 C1640 0.961 . S
H1627 C1641 0.960 . S
H1628 C1641 0.961 . S
H1629 C1641 0.959 . S
H1630 C1644 0.929 . S
H1631 C1645 0.931 . S
H1632 C1647 0.930 . S
C1633 H1621 0.930 . S
C1633 C1634 1.399 . S
C1633 C1638 1.399 . S
C1634 C1633 1.399 . S
C1634 C1635 1.376 . S
C1635 H1622 0.930 . S
C1635 C1634 1.376 . S
C1635 C1636 1.388 . S
C1636 H1623 0.930 . S
C1636 C1635 1.388 . S
C1636 C1637 1.390 . S
C1637 C1636 1.390 . S
C1637 C1638 1.394 . S
C1637 C1643 1.465 . S
C1638 C1633 1.399 . S
C1638 C1637 1.394 . S
C1638 C1639 1.516 . S
C1639 C1638 1.516 . S
C1639 C1640 1.502 . S
C1639 C1641 1.561 . S
C1639 C1642 1.526 . S
C1640 H1624 0.959 . S
C1640 H1625 0.959 . S
C1640 H1626 0.961 . S
C1640 C1639 1.502 . S
C1641 H1627 0.960 . S
C1641 H1628 0.961 . S
C1641 H1629 0.959 . S
C1641 C1639 1.561 . S
C1642 C1639 1.526 . S
C1642 C1643 1.396 . S
C1642 C1647 1.390 . S
C1643 C1637 1.465 . S
C1643 C1642 1.396 . S
C1643 C1644 1.399 . S
C1644 H1630 0.929 . S
C1644 C1643 1.399 . S
C1644 C1645 1.385 . S
C1645 H1631 0.931 . S
C1645 C1644 1.385 . S
C1645 C1646 1.389 . S
C1646 C1645 1.389 . S
C1646 C1647 1.387 . S
C1647 H1632 0.930 . S
C1647 C1642 1.390 . S
C1647 C1646 1.387 . S
C365 C6 1.278 . S
C377 C250 1.337 . S
C392 C31 1.326 . S
C404 C180 1.295 . S
C419 C206 1.330 . S
C431 C50 1.270 . S
C446 C224 1.337 . S
C458 C75 1.267 . S
C473 C95 1.293 . S
C485 C290 1.342 . S
C500 C115 1.319 . S
C512 C316 1.329 . S
C527 C334 1.316 . S
C539 C139 1.266 . S
C554 C272 1.342 . S
C566 C159 1.278 . S
C581 C182 1.281 . S
C593 C74 1.299 . S
C608 C4 1.313 . S
C620 C207 1.279 . S
C635 C30 1.320 . S
C647 C226 1.266 . S
C662 C251 1.333 . S
C674 C48 1.298 . S
C689 C271 1.297 . S
C701 C114 1.342 . S
C716 C140 1.338 . S
C728 C291 1.302 . S
C743 C158 1.297 . S
C755 C315 1.285 . S
C770 C96 1.341 . S
C782 C335 1.291 . S
C797 C93 0.900 . S
C809 C9 0.958 . S
C824 C28 0.899 . S
C836 C117 0.846 . S
C851 C137 0.867 . S
C863 C53 0.845 . S
C878 C161 0.939 . S
C890 C72 0.996 . S
C905 C269 0.892 . S
C917 C185 0.851 . S
C932 C204 0.930 . S
C944 C293 0.996 . S
C959 C229 0.942 . S
C971 C313 0.987 . S
C986 C337 0.962 . S
C998 C248 0.992 . S
C1013 C5 1.661 . S
C1025 C294 1.626 . S
C1040 C312 1.655 . S
C1052 C29 1.650 . S
C1067 C338 1.633 . S
C1079 C49 1.677 . S
C1094 C268 1.625 . S
C1106 C73 1.677 . S
C1121 C97 1.677 . S
C1133 C246 1.636 . S
C1148 C116 1.650 . S
C1160 C184 1.671 . S
C1175 C141 1.658 . S
C1187 C202 1.671 . S
C1202 C228 1.662 . S
C1214 C160 1.647 . S
C1229 C118 1.639 . S
C1241 C181 1.678 . S
C1256 C136 1.629 . S
C1268 C205 1.678 . S
C1283 C225 1.674 . S
C1295 C162 1.658 . S
C1310 C92 1.627 . S
C1322 C249 1.668 . S
C1337 C70 1.625 . S
C1349 C273 1.662 . S
C1364 C292 1.670 . S
C1376 C8 1.652 . S
C1391 C26 1.653 . S
C1403 C317 1.647 . S
C1418 C336 1.659 . S
C1430 C52 1.638 . S
C1445 C163 1.202 . S
C1457 C7 1.190 . S
C1472 C94 1.262 . S
C1484 C27 1.263 . S
C1499 C119 1.205 . S
C1511 C51 1.193 . S
C1526 C138 1.175 . S
C1538 C71 1.173 . S
C1553 C183 1.263 . S
C1565 C339 1.259 . S
C1580 C270 1.174 . S
C1592 C203 1.181 . S
C1607 C295 1.219 . S
C1619 C227 1.233 . S
C1634 C247 1.195 . S
C1646 C314 1.185 . S
