# Generated by pormake.
# Topology fne, (5)-cn, num edge types: 1
# Building blocks:
#     Node 0, Type 0, BuildingBlock: XOMCOT_clean_sbu_0, # of connection points: 5
#     Node 1, Type 0, BuildingBlock: XOMCOT_clean_sbu_0, # of connection points: 5
#     Node 2, Type 0, BuildingBlock: XOMCOT_clean_sbu_0, # of connection points: 5
#     Node 3, Type 0, BuildingBlock: XOMCOT_clean_sbu_0, # of connection points: 5
#     Node 4, Type 0, BuildingBlock: XOMCOT_clean_sbu_0, # of connection points: 5
#     Node 5, Type 0, BuildingBlock: XOMCOT_clean_sbu_0, # of connection points: 5
#     Edge 6, Type (0, 0), BuildingBlock: FUNLAD_clean_linker_0, # of connection points: 2
#     Edge 7, Type (0, 0), BuildingBlock: FUNLAD_clean_linker_0, # of connection points: 2
#     Edge 8, Type (0, 0), BuildingBlock: FUNLAD_clean_linker_0, # of connection points: 2
#     Edge 9, Type (0, 0), BuildingBlock: FUNLAD_clean_linker_0, # of connection points: 2
#     Edge 10, Type (0, 0), BuildingBlock: FUNLAD_clean_linker_0, # of connection points: 2
#     Edge 11, Type (0, 0), BuildingBlock: FUNLAD_clean_linker_0, # of connection points: 2
#     Edge 12, Type (0, 0), BuildingBlock: FUNLAD_clean_linker_0, # of connection points: 2
#     Edge 13, Type (0, 0), BuildingBlock: FUNLAD_clean_linker_0, # of connection points: 2
#     Edge 14, Type (0, 0), BuildingBlock: FUNLAD_clean_linker_0, # of connection points: 2
#     Edge 15, Type (0, 0), BuildingBlock: FUNLAD_clean_linker_0, # of connection points: 2
#     Edge 16, Type (0, 0), BuildingBlock: FUNLAD_clean_linker_0, # of connection points: 2
#     Edge 17, Type (0, 0), BuildingBlock: FUNLAD_clean_linker_0, # of connection points: 2
#     Edge 18, Type (0, 0), BuildingBlock: FUNLAD_clean_linker_0, # of connection points: 2
#     Edge 19, Type (0, 0), BuildingBlock: FUNLAD_clean_linker_0, # of connection points: 2
#     Edge 20, Type (0, 0), BuildingBlock: FUNLAD_clean_linker_0, # of connection points: 2
# Relax obj value: 0.062
# Max RMSD: 0.096
# Mean RMSD: 0.096
data_MOF--net-fne--node1-XOMCOT_clean_sbu_0--edge1-FUNLAD_clean_linker_0
_symmetry_space_group_name_H-M    P1
_symmetry_Int_Tables_number       1
_symmetry_cell_setting            triclinic
loop_
_symmetry_equiv_pos_as_xyz
'x, y, z'
_cell_length_a     53.773626
_cell_length_b     53.773001
_cell_length_c     20.002949
_cell_angle_alpha  89.950735
_cell_angle_beta   90.01684
_cell_angle_gamma 120.0814
loop_
_atom_site_label
_atom_site_type_symbol
_atom_site_fract_x
_atom_site_fract_y
_atom_site_fract_z
_atom_type_partial_charge
Co0 Co 0.35385 0.06903 0.05902 0.0
C1 C 0.34964 0.06037 0.20739 0.0
C2 C 0.30861 0.04117 0.15897 0.0
C3 C 0.30425 0.03951 0.22692 0.0
N4 N 0.33707 0.05399 0.14636 0.0
N5 N 0.33007 0.0516 0.25716 0.0
H6 H 0.37241 0.07336 0.21596 0.0
H7 H 0.2922 0.0351 0.12113 0.0
C8 C 0.31438 1.00565 0.03765 0.0
O9 O 0.32291 1.00072 0.09516 0.0
N10 N 0.36989 0.08437 0.972 0.0
C11 C 0.39595 0.10727 0.959 0.0
C12 C 0.39967 0.11026 0.89066 0.0
C13 C 0.3582 0.07365 0.91166 0.0
N14 N 0.37598 0.08898 0.86122 0.0
C15 C 0.405 0.07164 0.11132 0.0
C16 C 0.40538 0.03136 0.02642 0.0
C17 C 0.42813 0.04552 0.07188 0.0
C18 C 0.42764 0.06591 0.11475 0.0
C19 C 0.3831 0.03768 0.02483 0.0
N20 N 0.38249 0.05694 0.06849 0.0
H21 H 0.4064 0.08891 0.14133 0.0
H22 H 0.36718 0.02798 0.98596 0.0
H23 H 0.41142 0.12051 0.99652 0.0
H24 H 0.33717 0.05501 0.90443 0.0
O25 O 0.37517 0.10717 0.09763 0.0
O26 O 0.33137 0.08814 0.05543 0.0
O27 O 0.32498 0.03134 0.01568 0.0
C28 C 0.35282 0.10976 0.08529 0.0
H29 H 0.2838 0.03132 0.25214 0.0
H30 H 0.41866 0.12624 0.86466 0.0
H31 H 0.40531 0.01634 0.99031 0.0
H32 H 0.44482 0.07774 0.15019 0.0
Co33 Co 0.32281 0.34826 0.40875 0.0
C34 C 0.3251 0.34462 0.55634 0.0
C35 C 0.31268 0.30438 0.50922 0.0
C36 C 0.30999 0.30011 0.57719 0.0
N37 N 0.32298 0.33251 0.49598 0.0
N38 N 0.31762 0.32544 0.6066 0.0
H39 H 0.32983 0.36641 0.56356 0.0
H40 H 0.30549 0.2876 0.47204 0.0
C41 C 0.34943 0.31188 0.38143 0.0
O42 O 0.36647 0.32466 0.43258 0.0
N43 N 0.3215 0.36309 0.32227 0.0
C44 C 0.32925 0.3904 0.30666 0.0
C45 C 0.32826 0.39251 0.23817 0.0
C46 C 0.31566 0.34892 0.26387 0.0
N47 N 0.31993 0.36643 0.21152 0.0
C48 C 0.37316 0.39828 0.45977 0.0
C49 C 0.41064 0.4015 0.36126 0.0
C50 C 0.42068 0.42311 0.41009 0.0
C51 C 0.40145 0.42117 0.45986 0.0
C52 C 0.38209 0.37898 0.36291 0.0
N53 N 0.36383 0.37696 0.41302 0.0
H54 H 0.35848 0.39876 0.49538 0.0
H55 H 0.37443 0.36382 0.32208 0.0
H56 H 0.33634 0.40777 0.34231 0.0
H57 H 0.30906 0.3264 0.25968 0.0
O58 O 0.30761 0.37067 0.44815 0.0
O59 O 0.281 0.32616 0.41108 0.0
O60 O 0.33071 0.31882 0.36467 0.0
C61 C 0.28215 0.34853 0.43952 0.0
H62 H 0.30106 0.27961 0.60256 0.0
H63 H 0.33461 0.41201 0.21011 0.0
H64 H 0.42436 0.40259 0.3204 0.0
H65 H 0.40801 0.43754 0.49807 0.0
Co66 Co 1.00131 0.31017 0.72836 0.0
C67 C 1.01053 0.31311 0.87691 0.0
C68 C 0.03364 0.2963 0.82471 0.0
C69 C 0.03716 0.29435 0.89213 0.0
N70 N 0.01754 0.30876 0.81462 0.0
N71 N 0.02248 0.30476 0.9252 0.0
H72 H 0.99526 0.32 0.88722 0.0
H73 H 0.04117 0.28778 0.78574 0.0
C74 C 0.06391 0.33372 0.69813 0.0
O75 O 0.0699 0.3506 0.75038 0.0
N76 N 0.98483 0.3107 0.64267 0.0
C77 C 0.9644 0.31776 0.63233 0.0
C78 C 0.96047 0.31865 0.56457 0.0
C79 C 0.99304 0.3073 0.58109 0.0
N80 N 0.97859 0.31223 0.53225 0.0
C81 C 1.00202 0.36 0.78172 0.0
C82 C 0.03806 0.39878 0.68703 0.0
C83 C 0.02469 0.4077 0.73359 0.0
C84 C 1.00666 0.38799 0.7816 0.0
C85 C 0.03237 0.37032 0.68804 0.0
N86 N 1.015 0.35135 0.73599 0.0
H87 H 0.9863 0.34486 0.81593 0.0
H88 H 0.04068 0.36328 0.64773 0.0
H89 H 0.95369 0.32277 0.67135 0.0
H90 H 1.00998 0.30244 0.5721 0.0
O91 O 0.96415 0.2956 0.77003 0.0
O92 O 0.98029 0.26832 0.72801 0.0
O93 O 0.03769 0.31682 0.68164 0.0
C94 C 0.9598 0.26993 0.75889 0.0
H95 H 0.04898 0.28513 0.9148 0.0
H96 H 0.94557 0.32392 0.54107 0.0
H97 H 0.05142 0.41316 0.64776 0.0
H98 H 0.99543 0.39389 0.81752 0.0
Co99 Co 0.71769 0.99092 0.05633 0.0
C100 C 0.72418 0.99833 0.20481 0.0
C101 C 0.76379 0.02439 0.15323 0.0
C102 C 0.76918 0.02723 0.2208 0.0
N103 N 0.73537 1.00692 0.14277 0.0
N104 N 0.74424 1.01075 0.25335 0.0
H105 H 0.70248 0.98148 0.2146 0.0
H106 H 0.77993 0.03332 0.11446 0.0
C107 C 0.75634 0.05357 0.02462 0.0
O108 O 0.7453 0.05977 0.07621 0.0
N109 N 0.70066 0.97462 0.97059 0.0
C110 C 0.67304 0.95447 0.9599 0.0
C111 C 0.66837 0.95079 0.89205 0.0
C112 C 0.71249 0.98284 0.90922 0.0
N113 N 0.69314 0.96875 0.86014 0.0
C114 C 0.67018 0.99407 0.11356 0.0
C115 C 0.66658 0.02843 0.01581 0.0
C116 C 0.646 0.01804 0.06716 0.0
C117 C 0.64822 1.00077 0.11667 0.0
C118 C 0.68832 0.02131 0.01482 0.0
N119 N 0.69048 1.00491 0.06434 0.0
H120 H 0.66974 0.97886 0.14902 0.0
H121 H 0.70268 0.02806 0.97245 0.0
H122 H 0.65715 0.94389 0.99873 0.0
H123 H 0.73442 0.99964 0.90055 0.0
O124 O 0.69494 0.95354 0.09752 0.0
O125 O 0.73845 0.97004 0.05507 0.0
O126 O 0.74743 0.0273 0.00964 0.0
C127 C 0.71632 0.94933 0.0855 0.0
H128 H 0.79006 0.03978 0.24389 0.0
H129 H 0.64812 0.93629 0.86818 0.0
H130 H 0.66527 0.04099 0.97506 0.0
H131 H 0.6328 0.99195 0.15709 0.0
Co132 Co 0.76217 0.71757 0.39917 0.0
C133 C 0.75392 0.71736 0.54515 0.0
C134 C 0.76126 0.75675 0.50028 0.0
C135 C 0.75984 0.75899 0.56849 0.0
N136 N 0.75752 0.73064 0.48575 0.0
N137 N 0.75547 0.73431 0.59676 0.0
H138 H 0.7518 0.69636 0.55054 0.0
H139 H 0.76587 0.77352 0.46428 0.0
C140 C 0.73414 0.74289 0.3116 0.0
O141 O 0.71706 0.71744 0.2856 0.0
N142 N 0.76796 0.70506 0.31168 0.0
C143 C 0.77131 0.68227 0.29831 0.0
C144 C 0.77548 0.68122 0.23081 0.0
C145 C 0.77209 0.7185 0.2521 0.0
N146 N 0.77576 0.70394 0.20174 0.0
C147 C 0.71523 0.6592 0.39576 0.0
C148 C 0.67168 0.67109 0.4198 0.0
C149 C 0.66445 0.64243 0.40908 0.0
C150 C 0.68681 0.63669 0.39801 0.0
C151 C 0.70051 0.69306 0.41689 0.0
N152 N 0.72182 0.68713 0.40174 0.0
H153 H 0.73191 0.65389 0.39123 0.0
H154 H 0.70568 0.7149 0.42657 0.0
H155 H 0.77162 0.66766 0.33489 0.0
H156 H 0.77275 0.7387 0.24522 0.0
O157 O 0.77913 0.69721 0.44166 0.0
O158 O 0.80337 0.74251 0.40752 0.0
O159 O 0.75279 0.74603 0.35561 0.0
C160 C 0.80367 0.72092 0.43636 0.0
H161 H 0.76253 0.77769 0.59509 0.0
H162 H 0.77862 0.66525 0.20535 0.0
H163 H 0.65522 0.6766 0.42975 0.0
H164 H 0.68249 0.61483 0.39275 0.0
Co165 Co 0.07422 0.74959 0.7389 0.0
C166 C 0.06454 0.7407 0.88482 0.0
C167 C 0.0432 0.76153 0.84213 0.0
C168 C 0.04025 0.76116 0.91045 0.0
N169 N 0.05801 0.74824 0.82597 0.0
N170 N 0.05389 0.74823 0.93711 0.0
H171 H 0.07807 0.73137 0.88998 0.0
H172 H 0.03639 0.77218 0.80681 0.0
C173 C 1.01034 0.72291 0.71517 0.0
O174 O 1.0051 0.70887 0.77196 0.0
N175 N 0.09058 0.75179 0.65242 0.0
C176 C 0.11047 0.74467 0.63597 0.0
C177 C 0.11362 0.74631 0.56748 0.0
C178 C 0.08215 0.75799 0.59461 0.0
N179 N 0.09562 0.75451 0.54162 0.0
C180 C 0.08284 0.70376 0.7837 0.0
C181 C 0.04106 0.66048 0.70642 0.0
C182 C 0.05829 0.65398 0.7474 0.0
C183 C 0.07957 0.67632 0.78589 0.0
C184 C 0.04535 0.68844 0.70499 0.0
N185 N 0.06536 0.70956 0.74527 0.0
H186 H 0.10038 0.72062 0.81136 0.0
H187 H 0.03319 0.69303 0.6693 0.0
H188 H 0.12109 0.73772 0.67097 0.0
H189 H 0.06607 0.7644 0.59149 0.0
O190 O 0.11239 0.76862 0.7779 0.0
O191 O 0.0902 0.79094 0.73932 0.0
O192 O 0.03616 0.73871 0.6946 0.0
C193 C 0.1127 0.79267 0.76826 0.0
H194 H 0.03056 0.77134 0.93843 0.0
H195 H 0.12711 0.7406 0.53894 0.0
H196 H 0.02455 0.64426 0.6749 0.0
H197 H 0.09443 0.67306 0.81597 0.0
C198 C 0.48108 0.06247 0.08277 0.0
C199 C 0.45273 0.03995 0.07245 0.0
C200 C 0.50416 0.0573 0.08271 0.0
C201 C 0.49955 0.0294 0.07168 0.0
C202 C 0.47118 1.00692 0.06192 0.0
C203 C 0.44813 0.01209 0.06218 0.0
C204 C 0.52327 0.02247 0.07165 0.0
C205 C 0.55158 0.04219 0.06748 0.0
C206 C 0.57517 0.03508 0.06743 0.0
C207 C 0.60287 0.0563 0.04729 0.0
C208 C 0.62577 0.05086 0.04713 0.0
C209 C 0.62165 0.024 0.06746 0.0
H210 H 0.55049 0.99139 0.10599 0.0
C211 C 0.59397 1.00279 0.08797 0.0
C212 C 0.5711 1.00825 0.08837 0.0
H213 H 0.58979 0.98171 0.10324 0.0
H214 H 0.48559 0.08429 0.09017 0.0
H215 H 0.5254 0.07528 0.09207 0.0
H216 H 0.46677 0.98515 0.05398 0.0
H217 H 0.42661 0.9941 0.05508 0.0
H218 H 0.5167 0.99984 0.07288 0.0
H219 H 0.55809 0.06469 0.0615 0.0
H220 H 0.60687 0.07727 0.03151 0.0
H221 H 0.64681 0.06789 0.0319 0.0
C222 C 0.6243 0.59561 0.36497 0.0
C223 C 0.63402 0.61844 0.41084 0.0
C224 C 0.59609 0.57249 0.36765 0.0
C225 C 0.57684 0.57145 0.41682 0.0
C226 C 0.58638 0.5946 0.46166 0.0
C227 C 0.61461 0.61777 0.45885 0.0
C228 C 0.54657 0.54714 0.422 0.0
C229 C 0.53733 0.52069 0.39613 0.0
C230 C 0.50717 0.49615 0.40134 0.0
C231 C 0.50178 0.46823 0.38761 0.0
C232 C 0.47386 0.44458 0.39058 0.0
C233 C 0.4505 0.44822 0.40731 0.0
H234 H 0.48648 0.52091 0.42617 0.0
C235 C 0.45579 0.47616 0.42055 0.0
C236 C 0.4837 0.49984 0.41735 0.0
H237 H 0.43824 0.47987 0.43206 0.0
H238 H 0.63848 0.59573 0.32634 0.0
H239 H 0.58951 0.5558 0.33039 0.0
H240 H 0.57205 0.59461 0.49969 0.0
H241 H 0.62137 0.63486 0.49523 0.0
H242 H 0.53185 0.55108 0.45094 0.0
H243 H 0.5527 0.5162 0.37195 0.0
H244 H 0.51929 0.46463 0.3747 0.0
H245 H 0.47062 0.42337 0.38042 0.0
C246 C 0.05429 0.46169 0.72982 0.0
C247 C 0.0273 0.43646 0.72867 0.0
C248 C 0.05634 0.48872 0.72652 0.0
C249 C 0.0314 0.49092 0.72066 0.0
C250 C 1.00455 0.46564 0.71775 0.0
C251 C 1.00247 0.43872 0.72262 0.0
C252 C 0.0327 0.51917 0.71575 0.0
C253 C 0.05162 0.54245 0.75069 0.0
C254 C 0.05191 0.57028 0.74908 0.0
C255 C 0.06 0.5874 0.80672 0.0
C256 C 0.06124 0.61402 0.80665 0.0
C257 C 0.05515 0.62466 0.74823 0.0
H258 H 0.03961 0.56813 0.64503 0.0
C259 C 0.04704 0.6074 0.69035 0.0
C260 C 0.04529 0.58049 0.69085 0.0
H261 H 0.04278 0.61493 0.64391 0.0
H262 H 0.07374 0.46047 0.73414 0.0
H263 H 0.07741 0.50781 0.72747 0.0
H264 H 0.98505 0.46672 0.71266 0.0
H265 H 0.98143 0.41958 0.72087 0.0
H266 H 1.01617 0.52014 0.68652 0.0
H267 H 0.06619 0.54054 0.78524 0.0
H268 H 0.06517 0.58005 0.8523 0.0
H269 H 0.06698 0.6262 0.8527 0.0
C270 C 0.35728 0.05513 0.35967 0.0
C271 C 0.3357 0.05801 0.32722 0.0
C272 C 0.3626 0.06132 0.42795 0.0
C273 C 0.34679 0.07107 0.4645 0.0
C274 C 0.32567 0.07452 0.43157 0.0
C275 C 0.3199 0.06768 0.36385 0.0
C276 C 0.35248 0.07877 0.53633 0.0
C277 C 0.35884 0.06375 0.58012 0.0
C278 C 0.36311 0.07073 0.65253 0.0
C279 C 0.35358 0.04835 0.69938 0.0
C280 C 0.35733 0.05431 0.76788 0.0
C281 C 0.3714 0.08285 0.79079 0.0
H282 H 0.38524 0.11708 0.64047 0.0
C283 C 0.38142 0.10529 0.7439 0.0
C284 C 0.37712 0.09932 0.67543 0.0
H285 H 0.39233 0.12745 0.76034 0.0
H286 H 0.36977 0.04782 0.33224 0.0
H287 H 0.37943 0.05902 0.45172 0.0
H288 H 0.3134 0.08226 0.45848 0.0
H289 H 0.30345 0.07048 0.33969 0.0
H290 H 0.34931 0.09603 0.55447 0.0
H291 H 0.359 0.04461 0.56333 0.0
H292 H 0.34294 0.02617 0.68296 0.0
H293 H 0.34976 0.03664 0.80295 0.0
C294 C 0.3181 0.31336 0.72532 0.0
C295 C 0.31492 0.33024 0.67628 0.0
C296 C 0.31559 0.31801 0.793 0.0
C297 C 0.31 0.33983 0.81299 0.0
C298 C 0.30614 0.35622 0.76389 0.0
C299 C 0.30869 0.35159 0.69626 0.0
C300 C 0.30763 0.3459 0.88427 0.0
C301 C 0.32092 0.34015 0.93385 0.0
C302 C 0.31943 0.34686 0.00509 0.0
C303 C 0.32487 0.33152 0.05404 0.0
C304 C 0.3246 0.33763 0.12165 0.0
C305 C 0.31911 0.35946 0.14185 0.0
H306 H 0.31057 0.38174 0.98904 0.0
C307 C 0.31379 0.37495 0.09292 0.0
C308 C 0.31399 0.36879 0.02517 0.0
H309 H 0.30951 0.39188 0.10701 0.0
H310 H 0.3228 0.2967 0.71136 0.0
H311 H 0.31769 0.3042 0.82912 0.0
H312 H 0.3014 0.37288 0.77789 0.0
H313 H 0.30537 0.36449 0.65972 0.0
H314 H 0.29516 0.35618 0.89547 0.0
H315 H 0.33347 0.32997 0.92242 0.0
H316 H 0.32946 0.31477 0.03994 0.0
H317 H 0.32941 0.32569 0.15791 0.0
C318 C 1.01095 0.32353 0.02698 0.0
C319 C 0.0185 0.3046 0.99684 0.0
C320 C 1.00756 0.32356 0.09652 0.0
C321 C 1.01152 0.30451 0.13763 0.0
C322 C 0.01914 0.28573 0.10742 0.0
C323 C 0.02244 0.28563 0.03814 0.0
C324 C 1.00891 0.30401 0.21203 0.0
C325 C 0.99361 0.3136 0.24568 0.0
C326 C 0.99057 0.3129 0.32013 0.0
C327 C 0.97955 0.32912 0.34935 0.0
C328 C 0.97575 0.32897 0.41851 0.0
C329 C 0.98275 0.31243 0.46073 0.0
H330 H 1.00537 0.28275 0.34253 0.0
C331 C 0.99377 0.29613 0.43174 0.0
C332 C 0.99753 0.29623 0.36235 0.0
H333 H 0.99898 0.28282 0.46253 0.0
H334 H 1.00823 0.33876 0.99703 0.0
H335 H 1.00253 0.33903 0.11763 0.0
H336 H 0.02241 0.27086 0.13757 0.0
H337 H 0.02783 0.27041 0.01714 0.0
H338 H 0.01976 0.2948 0.2394 0.0
H339 H 0.9826 0.32253 0.21772 0.0
H340 H 0.97393 0.34215 0.3185 0.0
H341 H 0.96763 0.34215 0.43884 0.0
C342 C 0.72463 0.98445 0.75992 0.0
C343 C 0.69727 0.97355 0.78886 0.0
C344 C 0.72855 0.9894 0.69089 0.0
C345 C 0.70512 0.98352 0.64909 0.0
C346 C 0.67791 0.97295 0.67826 0.0
C347 C 0.67398 0.9679 0.74704 0.0
C348 C 0.70807 0.98896 0.57554 0.0
C349 C 0.72972 0.99049 0.53824 0.0
C350 C 0.73259 0.99572 0.46452 0.0
C351 C 0.75941 1.00476 0.43458 0.0
C352 C 0.76325 1.00972 0.36571 0.0
C353 C 0.74026 1.00559 0.32459 0.0
H354 H 0.68815 0.98355 0.44341 0.0
C355 C 0.71329 0.99623 0.3543 0.0
C356 C 0.70944 0.99127 0.42329 0.0
H357 H 0.69512 0.99292 0.32432 0.0
H358 H 0.74303 0.98903 0.79056 0.0
H359 H 0.75006 0.99833 0.67106 0.0
H360 H 0.65951 0.96852 0.64765 0.0
H361 H 0.65271 0.96006 0.76749 0.0
H362 H 0.69128 0.99133 0.55163 0.0
H363 H 0.74643 0.98802 0.56238 0.0
H364 H 0.77759 1.00808 0.46466 0.0
H365 H 0.78421 0.0164 0.34474 0.0
C366 C 0.7695 0.75126 0.71312 0.0
C367 C 0.75569 0.72854 0.66721 0.0
C368 C 0.77057 0.74579 0.78102 0.0
C369 C 0.75804 0.71738 0.80481 0.0
C370 C 0.74377 0.69469 0.75917 0.0
C371 C 0.74267 0.70017 0.69118 0.0
C372 C 0.7587 0.71044 0.87668 0.0
C373 C 0.77758 0.7291 0.92152 0.0
C374 C 0.77761 0.72203 0.99338 0.0
C375 C 0.78848 0.7444 0.04044 0.0
C376 C 0.78829 0.7386 0.10864 0.0
C377 C 0.77755 0.71027 0.13124 0.0
H378 H 0.7599 0.67602 0.98101 0.0
C379 C 0.76751 0.68798 0.08391 0.0
C380 C 0.76756 0.69376 0.01577 0.0
H381 H 0.75898 0.66591 0.09956 0.0
H382 H 0.77995 0.77339 0.69668 0.0
H383 H 0.78099 0.76401 0.81432 0.0
H384 H 0.73358 0.67258 0.77606 0.0
H385 H 0.73146 0.68215 0.65754 0.0
H386 H 0.74294 0.68891 0.8928 0.0
H387 H 0.7933 0.75073 0.90616 0.0
H388 H 0.79674 0.76643 0.02451 0.0
H389 H 0.79662 0.75632 0.14358 0.0
C390 C 0.11008 0.76034 0.42276 0.0
C391 C 0.08973 0.75621 0.47202 0.0
C392 C 0.10381 0.76069 0.35514 0.0
C393 C 0.07698 0.75682 0.33545 0.0
C394 C 0.05701 0.75356 0.38459 0.0
C395 C 0.06319 0.75303 0.45209 0.0
C396 C 0.06921 0.75647 0.26433 0.0
C397 C 0.07948 0.74704 0.21519 0.0
C398 C 0.07178 0.74647 0.14384 0.0
C399 C 0.09083 0.74716 0.09506 0.0
C400 C 0.08483 0.74737 0.02731 0.0
C401 C 0.05946 0.74664 0.00686 0.0
H402 H 0.03016 0.74322 0.15935 0.0
C403 C 0.03999 0.74516 0.05561 0.0
C404 C 0.04598 0.74494 0.12344 0.0
H405 H 0.02002 0.74399 0.04124 0.0
H406 H 0.13094 0.76349 0.43638 0.0
H407 H 0.12017 0.76435 0.31866 0.0
H408 H 0.03627 0.75074 0.37067 0.0
H409 H 0.0468 0.74946 0.4883 0.0
H410 H 0.05398 0.76352 0.25297 0.0
H411 H 0.09463 0.73992 0.22713 0.0
H412 H 0.11074 0.74814 0.10941 0.0
H413 H 0.10049 0.74889 0.99116 0.0
C414 C 0.37493 0.15826 0.13972 0.0
C415 C 0.35117 0.1351 0.10865 0.0
C416 C 0.3729 0.1813 0.16611 0.0
C417 C 0.34685 0.18159 0.1628 0.0
C418 C 0.32341 0.15883 0.12976 0.0
C419 C 0.32549 0.13583 0.10316 0.0
C420 C 0.34326 0.20514 0.19267 0.0
C421 C 0.36016 0.22259 0.24207 0.0
C422 C 0.35655 0.24551 0.27551 0.0
C423 C 0.37305 0.25864 0.33288 0.0
C424 C 0.37075 0.28012 0.36674 0.0
C425 C 0.35183 0.28922 0.34427 0.0
H426 H 0.32499 0.2459 0.20779 0.0
C427 C 0.33541 0.27637 0.28652 0.0
C428 C 0.33777 0.25484 0.25234 0.0
H429 H 0.32077 0.28302 0.26748 0.0
H430 H 0.39514 0.15852 0.14421 0.0
H431 H 0.39189 0.19878 0.18865 0.0
H432 H 0.30316 0.15852 0.12563 0.0
H433 H 0.30678 0.11836 0.07945 0.0
H434 H 0.32507 0.20687 0.17548 0.0
H435 H 0.37708 0.21929 0.26175 0.0
H436 H 0.38781 0.25217 0.35203 0.0
H437 H 0.38379 0.28949 0.41092 0.0
C438 C 0.22902 0.32367 0.46458 0.0
C439 C 0.25623 0.34869 0.46455 0.0
C440 C 0.20515 0.32386 0.49263 0.0
C441 C 0.208 0.34921 0.5209 0.0
C442 C 0.23519 0.3742 0.51965 0.0
C443 C 0.25893 0.37397 0.49196 0.0
C444 C 0.184 0.3507 0.55502 0.0
C445 C 0.15598 0.33006 0.55317 0.0
C446 C 0.13286 0.33215 0.58999 0.0
C447 C 0.10415 0.31518 0.56914 0.0
C448 C 0.0818 0.31592 0.60347 0.0
C449 C 0.08758 0.33356 0.65996 0.0
H450 H 0.16013 0.36243 0.66629 0.0
C451 C 0.11627 0.3505 0.68097 0.0
C452 C 0.13858 0.34972 0.64677 0.0
H453 H 0.12154 0.36411 0.72467 0.0
H454 H 0.22628 0.30378 0.44429 0.0
H455 H 0.18485 0.30393 0.49326 0.0
H456 H 0.23826 0.39405 0.54102 0.0
H457 H 0.27955 0.39365 0.4929 0.0
H458 H 0.18997 0.37038 0.58214 0.0
H459 H 0.14931 0.3112 0.52228 0.0
H460 H 0.09895 0.30123 0.52605 0.0
H461 H 0.05997 0.30248 0.58595 0.0
C462 C 0.79156 0.1059 0.00488 0.0
C463 C 0.78004 0.07704 0.98559 0.0
C464 C 0.81454 0.12801 0.96972 0.0
C465 C 0.82647 0.12187 0.91372 0.0
C466 C 0.81493 0.093 0.89459 0.0
C467 C 0.79197 0.07087 0.92985 0.0
C468 C 0.85162 0.14472 0.87601 0.0
C469 C 0.85897 0.17271 0.87621 0.0
C470 C 0.8845 0.19646 0.84139 0.0
C471 C 0.88722 0.22384 0.84052 0.0
C472 C 0.9113 0.24737 0.81235 0.0
C473 C 0.93347 0.24423 0.78396 0.0
H474 H 0.90579 0.17271 0.81197 0.0
C475 C 0.9307 0.21682 0.78333 0.0
C476 C 0.90655 0.19317 0.81194 0.0
H477 H 0.94752 0.21375 0.76223 0.0
H478 H 0.78314 0.11146 0.04795 0.0
H479 H 0.82324 0.14973 0.98792 0.0
H480 H 0.82374 0.0875 0.85215 0.0
H481 H 0.78374 0.04891 0.91363 0.0
H482 H 0.86383 0.1378 0.846 0.0
H483 H 0.84528 0.17887 0.90273 0.0
H484 H 0.87078 0.22724 0.8627 0.0
H485 H 0.91269 0.26816 0.81372 0.0
C486 C 0.74054 0.92026 0.10483 0.0
C487 C 0.71572 0.92269 0.1077 0.0
C488 C 0.74006 0.89543 0.12829 0.0
C489 C 0.71465 0.87243 0.15499 0.0
C490 C 0.68975 0.8747 0.15634 0.0
C491 C 0.69031 0.89958 0.13354 0.0
C492 C 0.71305 0.84553 0.18027 0.0
C493 C 0.73577 0.84453 0.20579 0.0
C494 C 0.7341 0.81791 0.23342 0.0
C495 C 0.75479 0.82064 0.28024 0.0
C496 C 0.7545 0.79634 0.30637 0.0
C497 C 0.73367 0.76859 0.28565 0.0
H498 H 0.69729 0.78704 0.17543 0.0
C499 C 0.71298 0.76578 0.23855 0.0
C500 C 0.71317 0.79013 0.2127 0.0
H501 H 0.69674 0.74477 0.22109 0.0
H502 H 0.76043 0.93764 0.08495 0.0
H503 H 0.7595 0.89423 0.12456 0.0
H504 H 0.66982 0.85727 0.176 0.0
H505 H 0.67077 0.90069 0.13622 0.0
H506 H 0.69196 0.82633 0.18158 0.0
H507 H 0.75626 0.86433 0.21015 0.0
H508 H 0.77129 0.84171 0.29686 0.0
H509 H 0.77087 0.7994 0.34227 0.0
C510 C 0.96137 0.71739 0.70595 0.0
C511 C 0.98623 0.72062 0.67469 0.0
C512 C 0.93899 0.71634 0.6679 0.0
C513 C 0.94075 0.71778 0.59773 0.0
C514 C 0.96526 0.72027 0.56643 0.0
C515 C 0.98803 0.72221 0.60457 0.0
C516 C 0.91675 0.71564 0.55647 0.0
C517 C 0.90292 0.72994 0.57201 0.0
C518 C 0.87856 0.7277 0.53201 0.0
C519 C 0.8757 0.75208 0.52362 0.0
C520 C 0.85197 0.75014 0.48985 0.0
C521 C 0.83014 0.72355 0.46576 0.0
H522 H 0.85846 0.68195 0.5129 0.0
C523 C 0.83298 0.69913 0.47403 0.0
C524 C 0.85713 0.70123 0.50614 0.0
H525 H 0.8164 0.67834 0.45617 0.0
H526 H 0.95946 0.71619 0.75992 0.0
H527 H 0.92011 0.7139 0.69331 0.0
H528 H 0.967 0.72117 0.51241 0.0
H529 H 1.00688 0.72453 0.5792 0.0
H530 H 0.91133 0.70316 0.51061 0.0
H531 H 0.91042 0.74472 0.61409 0.0
H532 H 0.89181 0.77266 0.54358 0.0
H533 H 0.85017 0.76924 0.48482 0.0
C534 C 0.16376 0.82388 0.80525 0.0
C535 C 0.13625 0.82015 0.79464 0.0
C536 C 0.18536 0.84895 0.83551 0.0
C537 C 0.17963 0.87046 0.85717 0.0
C538 C 0.15217 0.86674 0.84624 0.0
C539 C 0.13082 0.84205 0.81432 0.0
C540 C 0.20113 0.89577 0.89582 0.0
C541 C 0.22944 0.9098 0.88173 0.0
C542 C 0.25069 0.93458 0.92215 0.0
C543 C 0.27314 0.95862 0.89018 0.0
C544 C 0.29359 0.98199 0.9276 0.0
C545 C 0.29254 0.98127 0.99782 0.0
H546 H 0.23273 0.9155 0.01844 0.0
C547 C 0.27043 0.95696 0.02985 0.0
C548 C 0.2495 0.93399 0.99241 0.0
H549 H 0.26912 0.95586 0.08392 0.0
H550 H 0.16846 0.80725 0.79091 0.0
H551 H 0.20616 0.85095 0.84436 0.0
H552 H 0.14715 0.88288 0.86297 0.0
H553 H 0.10972 0.8396 0.80753 0.0
H554 H 0.19323 0.90371 0.9357 0.0
H555 H 0.23712 0.90383 0.83774 0.0
H556 H 0.27467 0.95946 0.83613 0.0
H557 H 0.31056 1.00034 0.90165 0.0
loop_
_geom_bond_atom_site_label_1
_geom_bond_atom_site_label_2
_geom_bond_distance
_geom_bond_site_symmetry_2
_ccdc_geom_bond_type
Co0 N4 2.148 . S
Co0 N10 2.128 1_554 S
Co0 N20 2.194 . S
Co0 O25 2.351 . S
Co0 O26 2.155 . S
Co0 O27 2.096 1_545 S
C1 N4 1.301 . S
C1 N5 1.328 . S
C1 H6 0.930 . S
C2 C3 1.333 . S
C2 N4 1.317 1_565 S
C2 H7 0.930 . S
C3 C2 1.333 . S
C3 N5 1.350 1_565 S
C3 H29 0.931 . S
N4 Co0 2.148 . S
N4 C1 1.301 . S
N4 C2 1.317 1_545 S
N5 C1 1.328 . S
N5 C3 1.350 1_545 S
H6 C1 0.930 . S
H7 C2 0.930 . S
C8 O9 1.224 . S
C8 O27 1.247 . S
O9 C8 1.224 . S
N10 Co0 2.128 1_556 S
N10 C11 1.355 . S
N10 C13 1.311 . S
C11 N10 1.355 . S
C11 C12 1.363 . S
C11 H23 0.929 . S
C12 C11 1.363 . S
C12 N14 1.375 . S
C12 H30 0.931 . S
C13 N10 1.311 . S
C13 N14 1.347 . S
C13 H24 0.929 . S
N14 C12 1.375 . S
N14 C13 1.347 . S
C15 C18 1.365 . S
C15 N20 1.328 . S
C15 H21 0.929 . S
C16 C17 1.362 1_565 S
C16 C19 1.378 . S
C16 H31 0.929 . S
C17 C16 1.362 1_545 S
C17 C18 1.366 . S
C18 C15 1.365 . S
C18 C17 1.366 . S
C18 H32 0.930 . S
C19 C16 1.378 . S
C19 N20 1.314 1_565 S
C19 H22 0.931 . S
N20 Co0 2.194 . S
N20 C15 1.328 . S
N20 C19 1.314 1_545 S
H21 C15 0.929 . S
H22 C19 0.931 . S
H23 C11 0.929 . S
H24 C13 0.929 . S
O25 Co0 2.351 . S
O25 C28 1.244 . S
O26 Co0 2.155 . S
O26 C28 1.240 . S
O27 Co0 2.096 1_565 S
O27 C8 1.247 . S
C28 O25 1.244 . S
C28 O26 1.240 . S
H29 C3 0.931 . S
H30 C12 0.931 . S
H31 C16 0.929 . S
H32 C18 0.930 . S
Co33 N37 2.148 . S
Co33 N43 2.128 . S
Co33 N53 2.194 . S
Co33 O58 2.351 . S
Co33 O59 2.155 . S
Co33 O60 2.096 . S
C34 N37 1.301 . S
C34 N38 1.328 . S
C34 H39 0.930 . S
C35 C36 1.333 . S
C35 N37 1.317 . S
C35 H40 0.930 . S
C36 C35 1.333 . S
C36 N38 1.350 . S
C36 H62 0.931 . S
N37 Co33 2.148 . S
N37 C34 1.301 . S
N37 C35 1.317 . S
N38 C34 1.328 . S
N38 C36 1.350 . S
H39 C34 0.930 . S
H40 C35 0.930 . S
C41 O42 1.224 . S
C41 O60 1.247 . S
O42 C41 1.224 . S
N43 Co33 2.128 . S
N43 C44 1.355 . S
N43 C46 1.311 . S
C44 N43 1.355 . S
C44 C45 1.363 . S
C44 H56 0.929 . S
C45 C44 1.363 . S
C45 N47 1.375 . S
C45 H63 0.931 . S
C46 N43 1.311 . S
C46 N47 1.347 . S
C46 H57 0.929 . S
N47 C45 1.375 . S
N47 C46 1.347 . S
C48 C51 1.365 . S
C48 N53 1.328 . S
C48 H54 0.929 . S
C49 C50 1.362 . S
C49 C52 1.378 . S
C49 H64 0.929 . S
C50 C49 1.362 . S
C50 C51 1.366 . S
C51 C48 1.365 . S
C51 C50 1.366 . S
C51 H65 0.930 . S
C52 C49 1.378 . S
C52 N53 1.315 . S
C52 H55 0.930 . S
N53 Co33 2.194 . S
N53 C48 1.328 . S
N53 C52 1.315 . S
H54 C48 0.929 . S
H55 C52 0.930 . S
H56 C44 0.929 . S
H57 C46 0.929 . S
O58 Co33 2.351 . S
O58 C61 1.244 . S
O59 Co33 2.155 . S
O59 C61 1.240 . S
O60 Co33 2.096 . S
O60 C41 1.247 . S
C61 O58 1.244 . S
C61 O59 1.240 . S
H62 C36 0.931 . S
H63 C45 0.931 . S
H64 C49 0.929 . S
H65 C51 0.930 . S
Co66 N70 2.148 . S
Co66 N76 2.128 . S
Co66 N86 2.194 . S
Co66 O91 2.351 1_455 S
Co66 O92 2.155 1_455 S
Co66 O93 2.096 . S
C67 N70 1.301 . S
C67 N71 1.328 . S
C67 H72 0.930 . S
C68 C69 1.333 . S
C68 N70 1.317 . S
C68 H73 0.930 . S
C69 C68 1.333 . S
C69 N71 1.350 . S
C69 H95 0.931 . S
N70 Co66 2.148 . S
N70 C67 1.301 . S
N70 C68 1.317 . S
N71 C67 1.328 . S
N71 C69 1.350 . S
H72 C67 0.930 . S
H73 C68 0.930 . S
C74 O75 1.224 . S
C74 O93 1.247 . S
O75 C74 1.224 . S
N76 Co66 2.128 . S
N76 C77 1.355 1_455 S
N76 C79 1.311 . S
C77 N76 1.355 1_655 S
C77 C78 1.363 . S
C77 H89 0.929 . S
C78 C77 1.363 . S
C78 N80 1.375 1_655 S
C78 H96 0.931 . S
C79 N76 1.311 . S
C79 N80 1.347 . S
C79 H90 0.929 . S
N80 C78 1.375 1_455 S
N80 C79 1.347 . S
C81 C84 1.365 . S
C81 N86 1.328 1_655 S
C81 H87 0.929 . S
C82 C83 1.362 . S
C82 C85 1.378 . S
C82 H97 0.929 . S
C83 C82 1.362 . S
C83 C84 1.366 1_455 S
C84 C81 1.365 . S
C84 C83 1.366 1_655 S
C84 H98 0.930 . S
C85 C82 1.378 . S
C85 N86 1.315 . S
C85 H88 0.930 . S
N86 Co66 2.194 . S
N86 C81 1.328 1_455 S
N86 C85 1.315 . S
H87 C81 0.929 . S
H88 C85 0.930 . S
H89 C77 0.929 . S
H90 C79 0.929 . S
O91 Co66 2.351 1_655 S
O91 C94 1.244 . S
O92 Co66 2.155 1_655 S
O92 C94 1.240 . S
O93 Co66 2.096 . S
O93 C74 1.247 . S
C94 O91 1.244 . S
C94 O92 1.240 . S
H95 C69 0.931 . S
H96 C78 0.931 . S
H97 C82 0.929 . S
H98 C84 0.930 . S
Co99 N103 2.148 . S
Co99 N109 2.128 1_554 S
Co99 N119 2.194 . S
Co99 O124 2.351 1_545 S
Co99 O125 2.155 1_545 S
Co99 O126 2.096 . S
C100 N103 1.301 . S
C100 N104 1.328 . S
C100 H105 0.930 1_545 S
C101 C102 1.333 . S
C101 N103 1.317 . S
C101 H106 0.930 . S
C102 C101 1.333 . S
C102 N104 1.350 . S
C102 H128 0.931 . S
N103 Co99 2.148 . S
N103 C100 1.301 . S
N103 C101 1.317 . S
N104 C100 1.328 . S
N104 C102 1.350 . S
H105 C100 0.930 1_565 S
H106 C101 0.930 . S
C107 O108 1.224 . S
C107 O126 1.247 . S
O108 C107 1.224 . S
N109 Co99 2.128 1_556 S
N109 C110 1.355 1_545 S
N109 C112 1.311 . S
C110 N109 1.355 1_565 S
C110 C111 1.363 . S
C110 H122 0.929 . S
C111 C110 1.363 . S
C111 N113 1.375 1_565 S
C111 H129 0.931 . S
C112 N109 1.311 . S
C112 N113 1.347 . S
C112 H123 0.929 . S
N113 C111 1.375 1_545 S
N113 C112 1.347 . S
C114 C117 1.365 . S
C114 N119 1.328 1_565 S
C114 H120 0.929 . S
C115 C116 1.362 . S
C115 C118 1.378 . S
C115 H130 0.929 . S
C116 C115 1.362 . S
C116 C117 1.366 1_545 S
C117 C114 1.365 . S
C117 C116 1.366 1_565 S
C117 H131 0.930 . S
C118 C115 1.378 . S
C118 N119 1.315 . S
C118 H121 0.930 . S
N119 Co99 2.194 . S
N119 C114 1.328 1_545 S
N119 C118 1.315 . S
H120 C114 0.929 . S
H121 C118 0.930 . S
H122 C110 0.929 . S
H123 C112 0.929 . S
O124 Co99 2.351 1_565 S
O124 C127 1.244 . S
O125 Co99 2.155 1_565 S
O125 C127 1.240 . S
O126 Co99 2.096 . S
O126 C107 1.247 . S
C127 O124 1.244 . S
C127 O125 1.240 . S
H128 C102 0.931 . S
H129 C111 0.931 . S
H130 C115 0.929 . S
H131 C117 0.930 . S
Co132 N136 2.148 . S
Co132 N142 2.128 . S
Co132 N152 2.194 . S
Co132 O157 2.351 . S
Co132 O158 2.155 . S
Co132 O159 2.096 . S
C133 N136 1.301 . S
C133 N137 1.328 . S
C133 H138 0.930 . S
C134 C135 1.333 . S
C134 N136 1.317 . S
C134 H139 0.930 . S
C135 C134 1.333 . S
C135 N137 1.350 . S
C135 H161 0.931 . S
N136 Co132 2.148 . S
N136 C133 1.301 . S
N136 C134 1.317 . S
N137 C133 1.328 . S
N137 C135 1.350 . S
H138 C133 0.930 . S
H139 C134 0.930 . S
C140 O141 1.224 . S
C140 O159 1.247 . S
O141 C140 1.224 . S
N142 Co132 2.128 . S
N142 C143 1.355 . S
N142 C145 1.311 . S
C143 N142 1.355 . S
C143 C144 1.363 . S
C143 H155 0.929 . S
C144 C143 1.363 . S
C144 N146 1.375 . S
C144 H162 0.931 . S
C145 N142 1.311 . S
C145 N146 1.347 . S
C145 H156 0.929 . S
N146 C144 1.375 . S
N146 C145 1.347 . S
C147 C150 1.365 . S
C147 N152 1.328 . S
C147 H153 0.929 . S
C148 C149 1.362 . S
C148 C151 1.378 . S
C148 H163 0.929 . S
C149 C148 1.362 . S
C149 C150 1.366 . S
C150 C147 1.365 . S
C150 C149 1.366 . S
C150 H164 0.930 . S
C151 C148 1.378 . S
C151 N152 1.315 . S
C151 H154 0.930 . S
N152 Co132 2.194 . S
N152 C147 1.328 . S
N152 C151 1.315 . S
H153 C147 0.929 . S
H154 C151 0.930 . S
H155 C143 0.929 . S
H156 C145 0.929 . S
O157 Co132 2.351 . S
O157 C160 1.244 . S
O158 Co132 2.155 . S
O158 C160 1.240 . S
O159 Co132 2.096 . S
O159 C140 1.247 . S
C160 O157 1.244 . S
C160 O158 1.240 . S
H161 C135 0.931 . S
H162 C144 0.931 . S
H163 C148 0.929 . S
H164 C150 0.930 . S
Co165 N169 2.148 . S
Co165 N175 2.128 . S
Co165 N185 2.194 . S
Co165 O190 2.351 . S
Co165 O191 2.155 . S
Co165 O192 2.096 1_455 S
C166 N169 1.301 . S
C166 N170 1.328 . S
C166 H171 0.930 . S
C167 C168 1.333 . S
C167 N169 1.317 1_655 S
C167 H172 0.930 . S
C168 C167 1.333 . S
C168 N170 1.350 1_655 S
C168 H194 0.931 . S
N169 Co165 2.148 . S
N169 C166 1.301 . S
N169 C167 1.317 1_455 S
N170 C166 1.328 . S
N170 C168 1.350 1_455 S
H171 C166 0.930 . S
H172 C167 0.930 . S
C173 O174 1.224 . S
C173 O192 1.247 . S
O174 C173 1.224 . S
N175 Co165 2.128 . S
N175 C176 1.355 . S
N175 C178 1.311 . S
C176 N175 1.355 . S
C176 C177 1.363 . S
C176 H188 0.929 . S
C177 C176 1.363 . S
C177 N179 1.375 . S
C177 H195 0.931 . S
C178 N175 1.311 . S
C178 N179 1.347 . S
C178 H189 0.929 . S
N179 C177 1.375 . S
N179 C178 1.347 . S
C180 C183 1.365 . S
C180 N185 1.328 . S
C180 H186 0.929 . S
C181 C182 1.386 . S
C181 C184 1.367 . S
C181 H196 0.916 1_455 S
C182 C181 1.386 . S
C182 C183 1.366 . S
C183 C180 1.365 . S
C183 C182 1.366 . S
C183 H197 0.930 . S
C184 C181 1.367 . S
C184 N185 1.315 . S
C184 H187 0.930 1_455 S
N185 Co165 2.194 . S
N185 C180 1.328 . S
N185 C184 1.315 . S
H186 C180 0.929 . S
H187 C184 0.930 1_655 S
H188 C176 0.929 . S
H189 C178 0.929 . S
O190 Co165 2.351 . S
O190 C193 1.244 . S
O191 Co165 2.155 . S
O191 C193 1.240 . S
O192 Co165 2.096 1_655 S
O192 C173 1.247 . S
C193 O190 1.244 . S
C193 O191 1.240 . S
H194 C168 0.931 . S
H195 C177 0.931 . S
H196 C181 0.916 1_655 S
H197 C183 0.930 . S
C198 C199 1.386 . S
C198 C200 1.383 . S
C198 H214 0.951 . S
C199 C198 1.386 . S
C199 C203 1.383 1_545 S
C200 C198 1.383 . S
C200 C201 1.402 . S
C200 H215 0.951 . S
C201 C200 1.402 . S
C201 C202 1.375 1_545 S
C201 C204 1.481 . S
C202 C201 1.375 1_565 S
C202 C203 1.367 . S
C202 H216 0.951 . S
C203 C199 1.383 1_565 S
C203 C202 1.367 . S
C203 H217 0.950 . S
C204 C201 1.481 . S
C204 C205 1.297 . S
C204 H218 0.950 1_545 S
C205 C204 1.297 . S
C205 C206 1.479 . S
C205 H219 0.950 . S
C206 C205 1.479 . S
C206 C207 1.375 . S
C206 C212 1.404 . S
C207 C206 1.375 . S
C207 C208 1.369 . S
C207 H220 0.950 . S
C208 C207 1.369 . S
C208 C209 1.392 . S
C208 H221 0.951 . S
C209 C208 1.392 . S
C209 C211 1.369 1_545 S
H210 C212 0.949 1_565 S
C211 C209 1.369 1_565 S
C211 C212 1.361 1_565 S
C211 H213 0.990 . S
C212 C206 1.404 . S
C212 H210 0.949 1_545 S
C212 C211 1.361 1_545 S
H213 C211 0.990 . S
H214 C198 0.951 . S
H215 C200 0.951 . S
H216 C202 0.951 . S
H217 C203 0.950 . S
H218 C204 0.950 1_565 S
H219 C205 0.950 . S
H220 C207 0.950 . S
H221 C208 0.951 . S
C222 C223 1.386 . S
C222 C224 1.383 . S
C222 H238 0.951 . S
C223 C222 1.386 . S
C223 C227 1.383 . S
C224 C222 1.383 . S
C224 C225 1.402 . S
C224 H239 0.951 . S
C225 C224 1.402 . S
C225 C226 1.375 . S
C225 C228 1.481 . S
C226 C225 1.375 . S
C226 C227 1.367 . S
C226 H240 0.951 . S
C227 C223 1.383 . S
C227 C226 1.367 . S
C227 H241 0.950 . S
C228 C225 1.481 . S
C228 C229 1.297 . S
C228 H242 0.950 . S
C229 C228 1.297 . S
C229 C230 1.479 . S
C229 H243 0.950 . S
C230 C229 1.479 . S
C230 C231 1.375 . S
C230 C236 1.404 . S
C231 C230 1.375 . S
C231 C232 1.369 . S
C231 H244 0.950 . S
C232 C231 1.369 . S
C232 C233 1.392 . S
C232 H245 0.951 . S
C233 C232 1.392 . S
C233 C235 1.384 . S
H234 C236 0.949 . S
C235 C233 1.384 . S
C235 C236 1.385 . S
C235 H237 0.950 . S
C236 C230 1.404 . S
C236 H234 0.949 . S
C236 C235 1.385 . S
H237 C235 0.950 . S
H238 C222 0.951 . S
H239 C224 0.951 . S
H240 C226 0.951 . S
H241 C227 0.950 . S
H242 C228 0.950 . S
H243 C229 0.950 . S
H244 C231 0.950 . S
H245 C232 0.951 . S
C246 C247 1.386 . S
C246 C248 1.383 . S
C246 H262 0.951 . S
C247 C246 1.386 . S
C247 C251 1.383 1_455 S
C248 C246 1.383 . S
C248 C249 1.402 . S
C248 H263 0.951 . S
C249 C248 1.402 . S
C249 C250 1.375 1_455 S
C249 C252 1.481 . S
C250 C249 1.375 1_655 S
C250 C251 1.367 . S
C250 H264 0.951 . S
C251 C247 1.383 1_655 S
C251 C250 1.367 . S
C251 H265 0.950 . S
C252 C249 1.481 . S
C252 C253 1.297 . S
C252 H266 0.950 1_455 S
C253 C252 1.297 . S
C253 C254 1.479 . S
C253 H267 0.950 . S
C254 C253 1.479 . S
C254 C255 1.375 . S
C254 C260 1.404 . S
C255 C254 1.375 . S
C255 C256 1.369 . S
C255 H268 0.950 . S
C256 C255 1.369 . S
C256 C257 1.392 . S
C256 H269 0.951 . S
C257 C256 1.392 . S
C257 C259 1.384 . S
H258 C260 0.949 1_655 S
C259 C257 1.384 . S
C259 C260 1.385 . S
C259 H261 0.950 1_455 S
C260 C254 1.404 . S
C260 H258 0.949 1_455 S
C260 C259 1.385 . S
H261 C259 0.950 1_655 S
H262 C246 0.951 . S
H263 C248 0.951 . S
H264 C250 0.951 . S
H265 C251 0.950 . S
H266 C252 0.950 1_655 S
H267 C253 0.950 . S
H268 C255 0.950 . S
H269 C256 0.951 . S
C270 C271 1.386 . S
C270 C272 1.383 . S
C270 H286 0.951 1_545 S
C271 C270 1.386 . S
C271 C275 1.383 . S
C272 C270 1.383 . S
C272 C273 1.402 . S
C272 H287 0.955 . S
C273 C272 1.402 . S
C273 C274 1.375 . S
C273 C276 1.481 . S
C274 C273 1.375 . S
C274 C275 1.367 . S
C274 H288 0.951 . S
C275 C271 1.383 . S
C275 C274 1.367 . S
C275 H289 0.950 . S
C276 C273 1.481 . S
C276 C277 1.297 . S
C276 H290 0.950 . S
C277 C276 1.297 . S
C277 C278 1.479 . S
C277 H291 0.950 . S
C278 C277 1.479 . S
C278 C279 1.375 . S
C278 C284 1.404 . S
C279 C278 1.375 . S
C279 C280 1.369 . S
C279 H292 0.950 . S
C280 C279 1.369 . S
C280 C281 1.392 . S
C280 H293 0.951 . S
C281 C280 1.392 . S
C281 C283 1.384 . S
H282 C284 0.949 . S
C283 C281 1.384 . S
C283 C284 1.385 . S
C283 H285 0.950 . S
C284 C278 1.404 . S
C284 H282 0.949 . S
C284 C283 1.385 . S
H285 C283 0.950 . S
H286 C270 0.951 1_565 S
H287 C272 0.955 . S
H288 C274 0.951 . S
H289 C275 0.950 . S
H290 C276 0.950 . S
H291 C277 0.950 . S
H292 C279 0.950 . S
H293 C280 0.951 . S
C294 C295 1.386 . S
C294 C296 1.383 . S
C294 H310 0.951 . S
C295 C294 1.386 . S
C295 C299 1.383 . S
C296 C294 1.383 . S
C296 C297 1.402 . S
C296 H311 0.951 . S
C297 C296 1.402 . S
C297 C298 1.375 . S
C297 C300 1.481 . S
C298 C297 1.375 . S
C298 C299 1.367 . S
C298 H312 0.951 . S
C299 C295 1.383 . S
C299 C298 1.367 . S
C299 H313 0.950 . S
C300 C297 1.481 . S
C300 C301 1.297 . S
C300 H314 0.950 . S
C301 C300 1.297 . S
C301 C302 1.479 . S
C301 H315 0.950 . S
C302 C301 1.479 . S
C302 C303 1.375 1_556 S
C302 C308 1.404 1_556 S
C303 C302 1.375 1_554 S
C303 C304 1.369 . S
C303 H316 0.950 . S
C304 C303 1.369 . S
C304 C305 1.392 . S
C304 H317 0.951 . S
C305 C304 1.392 . S
C305 C307 1.384 . S
H306 C308 0.949 1_556 S
C307 C305 1.384 . S
C307 C308 1.385 . S
C307 H309 0.950 . S
C308 C302 1.404 1_554 S
C308 H306 0.949 1_554 S
C308 C307 1.385 . S
H309 C307 0.950 . S
H310 C294 0.951 . S
H311 C296 0.951 . S
H312 C298 0.951 . S
H313 C299 0.950 . S
H314 C300 0.950 . S
H315 C301 0.950 . S
H316 C303 0.950 . S
H317 C304 0.951 . S
C318 C319 1.386 1_554 S
C318 C320 1.383 . S
C318 H334 0.951 . S
C319 C318 1.386 1_556 S
C319 C323 1.383 1_556 S
C320 C318 1.383 . S
C320 C321 1.402 . S
C320 H335 0.951 . S
C321 C320 1.402 . S
C321 C322 1.375 . S
C321 C324 1.481 . S
C322 C321 1.375 . S
C322 C323 1.367 . S
C322 H336 0.951 . S
C323 C319 1.383 1_554 S
C323 C322 1.367 . S
C323 H337 0.950 1_554 S
C324 C321 1.481 . S
C324 C325 1.297 . S
C324 H338 0.950 . S
C325 C324 1.297 . S
C325 C326 1.479 . S
C325 H339 0.950 1_455 S
C326 C325 1.479 . S
C326 C327 1.372 . S
C326 C332 1.404 . S
C327 C326 1.372 . S
C327 C328 1.368 . S
C327 H340 0.954 1_455 S
C328 C327 1.368 . S
C328 C329 1.392 . S
C328 H341 0.943 1_455 S
C329 C328 1.392 . S
C329 C331 1.384 . S
H330 C332 0.949 . S
C331 C329 1.384 . S
C331 C332 1.385 . S
C331 H333 0.950 . S
C332 C326 1.404 . S
C332 H330 0.949 . S
C332 C331 1.385 . S
H333 C331 0.950 . S
H334 C318 0.951 . S
H335 C320 0.951 . S
H336 C322 0.951 . S
H337 C323 0.950 1_556 S
H338 C324 0.950 . S
H339 C325 0.950 1_655 S
H340 C327 0.954 1_655 S
H341 C328 0.943 1_655 S
C342 C343 1.386 . S
C342 C344 1.383 . S
C342 H358 0.951 . S
C343 C342 1.386 . S
C343 C347 1.383 1_545 S
C344 C342 1.383 . S
C344 C345 1.402 . S
C344 H359 0.951 . S
C345 C344 1.402 . S
C345 C346 1.375 1_545 S
C345 C348 1.481 . S
C346 C345 1.375 1_565 S
C346 C347 1.367 . S
C346 H360 0.951 . S
C347 C343 1.383 1_565 S
C347 C346 1.367 . S
C347 H361 0.950 . S
C348 C345 1.481 . S
C348 C349 1.297 . S
C348 H362 0.950 1_545 S
C349 C348 1.297 . S
C349 C350 1.479 . S
C349 H363 0.950 . S
C350 C349 1.479 . S
C350 C351 1.375 . S
C350 C356 1.404 1_545 S
C351 C350 1.375 . S
C351 C352 1.369 . S
C351 H364 0.950 . S
C352 C351 1.369 . S
C352 C353 1.392 . S
C352 H365 0.951 . S
C353 C352 1.392 . S
C353 C355 1.384 . S
H354 C356 0.949 . S
C355 C353 1.384 . S
C355 C356 1.385 1_545 S
C355 H357 0.950 1_545 S
C356 C350 1.404 1_565 S
C356 H354 0.949 . S
C356 C355 1.385 1_565 S
H357 C355 0.950 1_565 S
H358 C342 0.951 . S
H359 C344 0.951 . S
H360 C346 0.951 . S
H361 C347 0.950 . S
H362 C348 0.950 1_565 S
H363 C349 0.950 . S
H364 C351 0.950 . S
H365 C352 0.951 . S
C366 C367 1.386 . S
C366 C368 1.383 . S
C366 H382 0.951 . S
C367 C366 1.386 . S
C367 C371 1.383 . S
C368 C366 1.383 . S
C368 C369 1.402 . S
C368 H383 0.951 . S
C369 C368 1.402 . S
C369 C370 1.375 . S
C369 C372 1.481 . S
C370 C369 1.375 . S
C370 C371 1.367 . S
C370 H384 0.951 . S
C371 C367 1.383 . S
C371 C370 1.367 . S
C371 H385 0.950 . S
C372 C369 1.481 . S
C372 C373 1.297 . S
C372 H386 0.950 . S
C373 C372 1.297 . S
C373 C374 1.479 . S
C373 H387 0.950 . S
C374 C373 1.479 . S
C374 C375 1.375 1_556 S
C374 C380 1.404 1_556 S
C375 C374 1.375 1_554 S
C375 C376 1.369 . S
C375 H388 0.950 . S
C376 C375 1.369 . S
C376 C377 1.392 . S
C376 H389 0.951 . S
C377 C376 1.392 . S
C377 C379 1.384 . S
H378 C380 0.949 . S
C379 C377 1.384 . S
C379 C380 1.385 . S
C379 H381 0.950 . S
C380 C374 1.404 1_554 S
C380 H378 0.949 . S
C380 C379 1.385 . S
H381 C379 0.950 . S
H382 C366 0.951 . S
H383 C368 0.951 . S
H384 C370 0.951 . S
H385 C371 0.950 . S
H386 C372 0.950 . S
H387 C373 0.950 . S
H388 C375 0.950 . S
H389 C376 0.951 . S
C390 C391 1.386 . S
C390 C392 1.383 . S
C390 H406 0.951 . S
C391 C390 1.386 . S
C391 C395 1.383 . S
C392 C390 1.383 . S
C392 C393 1.402 . S
C392 H407 0.951 . S
C393 C392 1.402 . S
C393 C394 1.375 1_455 S
C393 C396 1.481 . S
C394 C393 1.375 1_655 S
C394 C395 1.367 1_655 S
C394 H408 0.951 . S
C395 C391 1.383 . S
C395 C394 1.367 1_455 S
C395 H409 0.950 1_455 S
C396 C393 1.481 . S
C396 C397 1.297 . S
C396 H410 0.950 1_455 S
C397 C396 1.297 . S
C397 C398 1.479 . S
C397 H411 0.950 . S
C398 C397 1.479 . S
C398 C399 1.375 . S
C398 C404 1.404 1_455 S
C399 C398 1.375 . S
C399 C400 1.369 . S
C399 H412 0.950 . S
C400 C399 1.369 . S
C400 C401 1.392 1_554 S
C400 H413 0.951 1_554 S
C401 C400 1.392 1_556 S
C401 C403 1.384 1_456 S
H402 C404 0.949 . S
C403 C401 1.384 1_654 S
C403 C404 1.385 . S
C403 H405 0.950 . S
C404 C398 1.404 1_655 S
C404 H402 0.949 . S
C404 C403 1.385 . S
H405 C403 0.950 . S
H406 C390 0.951 . S
H407 C392 0.951 . S
H408 C394 0.951 . S
H409 C395 0.950 1_655 S
H410 C396 0.950 1_655 S
H411 C397 0.950 . S
H412 C399 0.950 . S
H413 C400 0.951 1_556 S
C414 C415 1.386 . S
C414 C416 1.383 . S
C414 H430 0.951 . S
C415 C414 1.386 . S
C415 C419 1.383 . S
C416 C414 1.383 . S
C416 C417 1.402 . S
C416 H431 0.951 . S
C417 C416 1.402 . S
C417 C418 1.375 . S
C417 C420 1.481 . S
C418 C417 1.375 . S
C418 C419 1.367 . S
C418 H432 0.951 . S
C419 C415 1.383 . S
C419 C418 1.367 . S
C419 H433 0.950 . S
C420 C417 1.481 . S
C420 C421 1.297 . S
C420 H434 0.950 . S
C421 C420 1.297 . S
C421 C422 1.479 . S
C421 H435 0.950 . S
C422 C421 1.479 . S
C422 C423 1.375 . S
C422 C428 1.404 . S
C423 C422 1.375 . S
C423 C424 1.369 . S
C423 H436 0.950 . S
C424 C423 1.369 . S
C424 C425 1.392 . S
C424 H437 0.951 . S
C425 C424 1.392 . S
C425 C427 1.384 . S
H426 C428 0.949 . S
C427 C425 1.384 . S
C427 C428 1.385 . S
C427 H429 0.950 . S
C428 C422 1.404 . S
C428 H426 0.949 . S
C428 C427 1.385 . S
H429 C427 0.950 . S
H430 C414 0.951 . S
H431 C416 0.951 . S
H432 C418 0.951 . S
H433 C419 0.950 . S
H434 C420 0.950 . S
H435 C421 0.950 . S
H436 C423 0.950 . S
H437 C424 0.951 . S
C438 C439 1.386 . S
C438 C440 1.383 . S
C438 H454 0.951 . S
C439 C438 1.386 . S
C439 C443 1.383 . S
C440 C438 1.383 . S
C440 C441 1.402 . S
C440 H455 0.951 . S
C441 C440 1.402 . S
C441 C442 1.375 . S
C441 C444 1.481 . S
C442 C441 1.375 . S
C442 C443 1.367 . S
C442 H456 0.951 . S
C443 C439 1.383 . S
C443 C442 1.367 . S
C443 H457 0.950 . S
C444 C441 1.481 . S
C444 C445 1.297 . S
C444 H458 0.950 . S
C445 C444 1.297 . S
C445 C446 1.479 . S
C445 H459 0.950 . S
C446 C445 1.479 . S
C446 C447 1.375 . S
C446 C452 1.404 . S
C447 C446 1.375 . S
C447 C448 1.369 . S
C447 H460 0.950 . S
C448 C447 1.369 . S
C448 C449 1.392 . S
C448 H461 0.951 . S
C449 C448 1.392 . S
C449 C451 1.384 . S
H450 C452 0.949 . S
C451 C449 1.384 . S
C451 C452 1.385 . S
C451 H453 0.950 . S
C452 C446 1.404 . S
C452 H450 0.949 . S
C452 C451 1.385 . S
H453 C451 0.950 . S
H454 C438 0.951 . S
H455 C440 0.951 . S
H456 C442 0.951 . S
H457 C443 0.950 . S
H458 C444 0.950 . S
H459 C445 0.950 . S
H460 C447 0.950 . S
H461 C448 0.951 . S
C462 C463 1.386 1_554 S
C462 C464 1.383 1_554 S
C462 H478 0.951 . S
C463 C462 1.386 1_556 S
C463 C467 1.383 . S
C464 C462 1.383 1_556 S
C464 C465 1.402 . S
C464 H479 0.951 1_556 S
C465 C464 1.402 . S
C465 C466 1.375 . S
C465 C468 1.481 . S
C466 C465 1.375 . S
C466 C467 1.367 . S
C466 H480 0.951 . S
C467 C463 1.383 . S
C467 C466 1.367 . S
C467 H481 0.950 . S
C468 C465 1.481 . S
C468 C469 1.297 . S
C468 H482 0.950 . S
C469 C468 1.297 . S
C469 C470 1.479 . S
C469 H483 0.950 . S
C470 C469 1.479 . S
C470 C471 1.375 . S
C470 C476 1.404 . S
C471 C470 1.375 . S
C471 C472 1.369 . S
C471 H484 0.950 . S
C472 C471 1.369 . S
C472 C473 1.392 . S
C472 H485 0.951 . S
C473 C472 1.392 . S
C473 C475 1.384 . S
H474 C476 0.949 . S
C475 C473 1.384 . S
C475 C476 1.385 . S
C475 H477 0.950 . S
C476 C470 1.404 . S
C476 H474 0.949 . S
C476 C475 1.385 . S
H477 C475 0.950 . S
H478 C462 0.951 . S
H479 C464 0.951 1_554 S
H480 C466 0.951 . S
H481 C467 0.950 . S
H482 C468 0.950 . S
H483 C469 0.950 . S
H484 C471 0.950 . S
H485 C472 0.951 . S
C486 C487 1.386 . S
C486 C488 1.383 . S
C486 H502 0.951 . S
C487 C486 1.386 . S
C487 C491 1.383 . S
C488 C486 1.383 . S
C488 C489 1.402 . S
C488 H503 0.951 . S
C489 C488 1.402 . S
C489 C490 1.375 . S
C489 C492 1.481 . S
C490 C489 1.375 . S
C490 C491 1.367 . S
C490 H504 0.951 . S
C491 C487 1.383 . S
C491 C490 1.367 . S
C491 H505 0.950 . S
C492 C489 1.481 . S
C492 C493 1.297 . S
C492 H506 0.950 . S
C493 C492 1.297 . S
C493 C494 1.479 . S
C493 H507 0.950 . S
C494 C493 1.479 . S
C494 C495 1.375 . S
C494 C500 1.404 . S
C495 C494 1.375 . S
C495 C496 1.369 . S
C495 H508 0.950 . S
C496 C495 1.369 . S
C496 C497 1.392 . S
C496 H509 0.951 . S
C497 C496 1.392 . S
C497 C499 1.384 . S
H498 C500 0.949 . S
C499 C497 1.384 . S
C499 C500 1.385 . S
C499 H501 0.950 . S
C500 C494 1.404 . S
C500 H498 0.949 . S
C500 C499 1.385 . S
H501 C499 0.950 . S
H502 C486 0.951 . S
H503 C488 0.951 . S
H504 C490 0.951 . S
H505 C491 0.950 . S
H506 C492 0.950 . S
H507 C493 0.950 . S
H508 C495 0.950 . S
H509 C496 0.951 . S
C510 C511 1.386 . S
C510 C512 1.383 . S
C510 H526 0.951 . S
C511 C510 1.386 . S
C511 C515 1.383 . S
C512 C510 1.383 . S
C512 C513 1.402 . S
C512 H527 0.951 . S
C513 C512 1.402 . S
C513 C514 1.375 . S
C513 C516 1.481 . S
C514 C513 1.375 . S
C514 C515 1.367 . S
C514 H528 0.951 . S
C515 C511 1.383 . S
C515 C514 1.367 . S
C515 H529 0.950 . S
C516 C513 1.481 . S
C516 C517 1.297 . S
C516 H530 0.950 . S
C517 C516 1.297 . S
C517 C518 1.479 . S
C517 H531 0.950 . S
C518 C517 1.479 . S
C518 C519 1.375 . S
C518 C524 1.404 . S
C519 C518 1.375 . S
C519 C520 1.369 . S
C519 H532 0.950 . S
C520 C519 1.369 . S
C520 C521 1.392 . S
C520 H533 0.951 . S
C521 C520 1.392 . S
C521 C523 1.384 . S
H522 C524 0.949 . S
C523 C521 1.384 . S
C523 C524 1.385 . S
C523 H525 0.950 . S
C524 C518 1.404 . S
C524 H522 0.949 . S
C524 C523 1.385 . S
H525 C523 0.950 . S
H526 C510 0.951 . S
H527 C512 0.951 . S
H528 C514 0.951 . S
H529 C515 0.950 . S
H530 C516 0.950 . S
H531 C517 0.950 . S
H532 C519 0.950 . S
H533 C520 0.951 . S
C534 C535 1.386 . S
C534 C536 1.383 . S
C534 H550 0.951 . S
C535 C534 1.386 . S
C535 C539 1.383 . S
C536 C534 1.383 . S
C536 C537 1.402 . S
C536 H551 0.951 . S
C537 C536 1.402 . S
C537 C538 1.375 . S
C537 C540 1.481 . S
C538 C537 1.375 . S
C538 C539 1.367 . S
C538 H552 0.951 . S
C539 C535 1.383 . S
C539 C538 1.367 . S
C539 H553 0.950 . S
C540 C537 1.481 . S
C540 C541 1.297 . S
C540 H554 0.950 . S
C541 C540 1.297 . S
C541 C542 1.479 . S
C541 H555 0.950 . S
C542 C541 1.479 . S
C542 C543 1.375 . S
C542 C548 1.404 . S
C543 C542 1.375 . S
C543 C544 1.369 . S
C543 H556 0.950 . S
C544 C543 1.369 . S
C544 C545 1.392 . S
C544 H557 0.951 . S
C545 C544 1.392 . S
C545 C547 1.384 1_556 S
H546 C548 0.949 1_554 S
C547 C545 1.384 1_554 S
C547 C548 1.385 1_554 S
C547 H549 0.950 . S
C548 C542 1.404 . S
C548 H546 0.949 1_556 S
C548 C547 1.385 1_556 S
H549 C547 0.950 . S
H550 C534 0.951 . S
H551 C536 0.951 . S
H552 C538 0.951 . S
H553 C539 0.950 . S
H554 C540 0.950 . S
H555 C541 0.950 . S
H556 C543 0.950 . S
H557 C544 0.951 . S
C199 C17 1.596 . S
C209 C116 1.585 . S
C223 C149 1.597 . S
C233 C50 1.584 . S
C247 C83 1.606 . S
C257 C182 1.599 . S
C271 N5 1.174 . S
C281 N14 1.117 . S
C295 N38 1.182 . S
C305 N47 1.126 . S
C319 N71 1.158 . S
C329 N80 1.136 . S
C343 N113 1.144 . S
C353 N104 1.156 . S
C367 N137 1.164 . S
C377 N146 1.185 . S
C391 N179 1.160 . S
C401 N170 1.184 . S
C415 C28 1.505 . S
C425 C41 1.471 . S
C439 C61 1.490 . S
C449 C74 1.493 . S
C463 C107 1.493 1_556 S
C473 C94 1.479 . S
C487 C127 1.492 . S
C497 C140 1.505 . S
C511 C173 1.483 . S
C521 C160 1.490 . S
C535 C193 1.492 . S
C545 C8 1.482 1_556 S
