# Generated by pormake.
# Topology whw, (6)-cn, num edge types: 1
# Building blocks:
#     Node 0, Type 0, BuildingBlock: BETDEL_clean_sbu_0, # of connection points: 6
#     Node 1, Type 0, BuildingBlock: BETDEL_clean_sbu_0, # of connection points: 6
#     Node 2, Type 0, BuildingBlock: BETDEL_clean_sbu_0, # of connection points: 6
#     Node 3, Type 0, BuildingBlock: BETDEL_clean_sbu_0, # of connection points: 6
#     Node 4, Type 0, BuildingBlock: BETDEL_clean_sbu_0, # of connection points: 6
#     Node 5, Type 0, BuildingBlock: BETDEL_clean_sbu_0, # of connection points: 6
#     Node 6, Type 0, BuildingBlock: BETDEL_clean_sbu_0, # of connection points: 6
#     Node 7, Type 0, BuildingBlock: BETDEL_clean_sbu_0, # of connection points: 6
#     Node 8, Type 0, BuildingBlock: BETDEL_clean_sbu_0, # of connection points: 6
#     Node 9, Type 0, BuildingBlock: BETDEL_clean_sbu_0, # of connection points: 6
#     Node 10, Type 0, BuildingBlock: BETDEL_clean_sbu_0, # of connection points: 6
#     Node 11, Type 0, BuildingBlock: BETDEL_clean_sbu_0, # of connection points: 6
#     Node 12, Type 0, BuildingBlock: BETDEL_clean_sbu_0, # of connection points: 6
#     Node 13, Type 0, BuildingBlock: BETDEL_clean_sbu_0, # of connection points: 6
#     Node 14, Type 0, BuildingBlock: BETDEL_clean_sbu_0, # of connection points: 6
#     Node 15, Type 0, BuildingBlock: BETDEL_clean_sbu_0, # of connection points: 6
#     Edge 16, Type (0, 0), BuildingBlock: XUDNAN_clean_linker_2, # of connection points: 2
#     Edge 17, Type (0, 0), BuildingBlock: XUDNAN_clean_linker_2, # of connection points: 2
#     Edge 18, Type (0, 0), BuildingBlock: XUDNAN_clean_linker_2, # of connection points: 2
#     Edge 19, Type (0, 0), BuildingBlock: XUDNAN_clean_linker_2, # of connection points: 2
#     Edge 20, Type (0, 0), BuildingBlock: XUDNAN_clean_linker_2, # of connection points: 2
#     Edge 21, Type (0, 0), BuildingBlock: XUDNAN_clean_linker_2, # of connection points: 2
#     Edge 22, Type (0, 0), BuildingBlock: XUDNAN_clean_linker_2, # of connection points: 2
#     Edge 23, Type (0, 0), BuildingBlock: XUDNAN_clean_linker_2, # of connection points: 2
#     Edge 24, Type (0, 0), BuildingBlock: XUDNAN_clean_linker_2, # of connection points: 2
#     Edge 25, Type (0, 0), BuildingBlock: XUDNAN_clean_linker_2, # of connection points: 2
#     Edge 26, Type (0, 0), BuildingBlock: XUDNAN_clean_linker_2, # of connection points: 2
#     Edge 27, Type (0, 0), BuildingBlock: XUDNAN_clean_linker_2, # of connection points: 2
#     Edge 28, Type (0, 0), BuildingBlock: XUDNAN_clean_linker_2, # of connection points: 2
#     Edge 29, Type (0, 0), BuildingBlock: XUDNAN_clean_linker_2, # of connection points: 2
#     Edge 30, Type (0, 0), BuildingBlock: XUDNAN_clean_linker_2, # of connection points: 2
#     Edge 31, Type (0, 0), BuildingBlock: XUDNAN_clean_linker_2, # of connection points: 2
#     Edge 32, Type (0, 0), BuildingBlock: XUDNAN_clean_linker_2, # of connection points: 2
#     Edge 33, Type (0, 0), BuildingBlock: XUDNAN_clean_linker_2, # of connection points: 2
#     Edge 34, Type (0, 0), BuildingBlock: XUDNAN_clean_linker_2, # of connection points: 2
#     Edge 35, Type (0, 0), BuildingBlock: XUDNAN_clean_linker_2, # of connection points: 2
#     Edge 36, Type (0, 0), BuildingBlock: XUDNAN_clean_linker_2, # of connection points: 2
#     Edge 37, Type (0, 0), BuildingBlock: XUDNAN_clean_linker_2, # of connection points: 2
#     Edge 38, Type (0, 0), BuildingBlock: XUDNAN_clean_linker_2, # of connection points: 2
#     Edge 39, Type (0, 0), BuildingBlock: XUDNAN_clean_linker_2, # of connection points: 2
#     Edge 40, Type (0, 0), BuildingBlock: XUDNAN_clean_linker_2, # of connection points: 2
#     Edge 41, Type (0, 0), BuildingBlock: XUDNAN_clean_linker_2, # of connection points: 2
#     Edge 42, Type (0, 0), BuildingBlock: XUDNAN_clean_linker_2, # of connection points: 2
#     Edge 43, Type (0, 0), BuildingBlock: XUDNAN_clean_linker_2, # of connection points: 2
#     Edge 44, Type (0, 0), BuildingBlock: XUDNAN_clean_linker_2, # of connection points: 2
#     Edge 45, Type (0, 0), BuildingBlock: XUDNAN_clean_linker_2, # of connection points: 2
#     Edge 46, Type (0, 0), BuildingBlock: XUDNAN_clean_linker_2, # of connection points: 2
#     Edge 47, Type (0, 0), BuildingBlock: XUDNAN_clean_linker_2, # of connection points: 2
#     Edge 48, Type (0, 0), BuildingBlock: XUDNAN_clean_linker_2, # of connection points: 2
#     Edge 49, Type (0, 0), BuildingBlock: XUDNAN_clean_linker_2, # of connection points: 2
#     Edge 50, Type (0, 0), BuildingBlock: XUDNAN_clean_linker_2, # of connection points: 2
#     Edge 51, Type (0, 0), BuildingBlock: XUDNAN_clean_linker_2, # of connection points: 2
#     Edge 52, Type (0, 0), BuildingBlock: XUDNAN_clean_linker_2, # of connection points: 2
#     Edge 53, Type (0, 0), BuildingBlock: XUDNAN_clean_linker_2, # of connection points: 2
#     Edge 54, Type (0, 0), BuildingBlock: XUDNAN_clean_linker_2, # of connection points: 2
#     Edge 55, Type (0, 0), BuildingBlock: XUDNAN_clean_linker_2, # of connection points: 2
#     Edge 56, Type (0, 0), BuildingBlock: XUDNAN_clean_linker_2, # of connection points: 2
#     Edge 57, Type (0, 0), BuildingBlock: XUDNAN_clean_linker_2, # of connection points: 2
#     Edge 58, Type (0, 0), BuildingBlock: XUDNAN_clean_linker_2, # of connection points: 2
#     Edge 59, Type (0, 0), BuildingBlock: XUDNAN_clean_linker_2, # of connection points: 2
#     Edge 60, Type (0, 0), BuildingBlock: XUDNAN_clean_linker_2, # of connection points: 2
#     Edge 61, Type (0, 0), BuildingBlock: XUDNAN_clean_linker_2, # of connection points: 2
#     Edge 62, Type (0, 0), BuildingBlock: XUDNAN_clean_linker_2, # of connection points: 2
#     Edge 63, Type (0, 0), BuildingBlock: XUDNAN_clean_linker_2, # of connection points: 2
# Relax obj value: 0.402
# Max RMSD: 0.202
# Mean RMSD: 0.196
data_MOF--net-whw--node1-BETDEL_clean_sbu_0--edge1-XUDNAN_clean_linker_2
_symmetry_space_group_name_H-M    P1
_symmetry_Int_Tables_number       1
_symmetry_cell_setting            triclinic
loop_
_symmetry_equiv_pos_as_xyz
'x, y, z'
_cell_length_a     46.715539
_cell_length_b     46.862126
_cell_length_c     26.95137
_cell_angle_alpha  88.14288
_cell_angle_beta   90.04657
_cell_angle_gamma 91.791913
loop_
_atom_site_label
_atom_site_type_symbol
_atom_site_fract_x
_atom_site_fract_y
_atom_site_fract_z
_atom_type_partial_charge
Dy0 Dy 0.03772 0.12483 0.15723 0.0
C1 C 0.94442 0.09805 1.02349 0.0
C2 C 0.07448 0.13638 0.23369 0.0
Dy3 Dy 0.98196 0.11697 0.09347 0.0
O4 O 0.05268 0.11865 0.2359 0.0
O5 O 0.07686 0.14757 0.18901 0.0
O6 O 0.05662 0.08766 0.11933 0.0
O7 O 0.01234 0.08925 0.13003 0.0
C8 C 0.03178 0.07583 0.11001 0.0
C9 C 0.98477 0.16453 0.14393 0.0
O10 O 0.96512 0.10008 0.16745 0.0
O11 O 0.00195 0.12078 0.2135 0.0
O12 O 0.94073 0.11967 0.0515 0.0
O13 O 0.96859 0.08635 0.03432 0.0
O14 O 0.9607 0.15347 0.12795 0.0
O15 O 0.00569 0.15232 0.12492 0.0
O16 O 0.0531 0.14717 0.086 0.0
O17 O 0.0139 0.13506 0.03606 0.0
C18 C 0.97591 0.10874 0.21042 0.0
C19 C 0.0402 0.14633 0.04184 0.0
Dy20 Dy 0.10986 0.76999 0.42267 0.0
C21 C 0.12113 0.66884 0.30939 0.0
C22 C 0.10994 0.81021 0.49458 0.0
Dy23 Dy 0.1065 0.71137 0.37065 0.0
O24 O 0.09956 0.81395 0.44999 0.0
O25 O 0.12008 0.78492 0.49899 0.0
O26 O 0.15167 0.78068 0.38295 0.0
O27 O 0.14006 0.73829 0.40209 0.0
C28 C 0.15821 0.75411 0.37939 0.0
C29 C 0.0599 0.72411 0.41972 0.0
O30 O 0.1176 0.69558 0.4492 0.0
O31 O 0.10519 0.7372 0.48756 0.0
O32 O 0.09679 0.67002 0.33252 0.0
O33 O 0.13729 0.69088 0.3197 0.0
O34 O 0.06576 0.6979 0.40949 0.0
O35 O 0.07652 0.74139 0.39617 0.0
O36 O 0.08722 0.78459 0.35039 0.0
O37 O 0.09562 0.74333 0.30721 0.0
C38 C 0.11133 0.70955 0.49016 0.0
C39 C 0.08663 0.77022 0.30807 0.0
Dy40 Dy 0.489 0.8609 0.70687 0.0
C41 C 0.55841 0.91129 0.55497 0.0
C42 C 0.46041 0.84713 0.79315 0.0
Dy43 Dy 0.53378 0.88517 0.63766 0.0
O44 O 0.47272 0.87159 0.78186 0.0
O45 O 0.46304 0.82986 0.75646 0.0
O46 O 0.4582 0.8914 0.67352 0.0
O47 O 0.50134 0.90454 0.68068 0.0
C48 C 0.4772 0.91154 0.66413 0.0
C49 C 0.5484 0.83478 0.67314 0.0
O50 O 0.55391 0.89698 0.71227 0.0
O51 O 0.52732 0.86189 0.75516 0.0
O52 O 0.57121 0.89482 0.58696 0.0
O53 O 0.53267 0.91535 0.57079 0.0
O54 O 0.56676 0.8549 0.65973 0.0
O55 O 0.5229 0.84175 0.66256 0.0
O56 O 0.47096 0.8383 0.64139 0.0
O57 O 0.50207 0.8618 0.58547 0.0
C58 C 0.54922 0.8802 0.75281 0.0
C59 C 0.47944 0.84424 0.59502 0.0
Dy60 Dy 0.36914 0.25328 0.93097 0.0
C61 C 0.39416 0.35507 0.80924 0.0
C62 C 0.35922 0.21019 1.00051 0.0
Dy63 Dy 0.39647 0.30712 0.86899 0.0
O64 O 0.34314 0.23199 0.99261 0.0
O65 O 0.37953 0.21081 0.96748 0.0
O66 O 0.32498 0.27044 0.91989 0.0
O67 O 0.35717 0.28053 0.86821 0.0
C68 C 0.332 0.28596 0.8807 0.0
C69 C 0.43226 0.27457 0.91809 0.0
O70 O 0.39191 0.32714 0.94434 0.0
O71 O 0.38224 0.28518 0.99101 0.0
O72 O 0.41642 0.33925 0.81558 0.0
O73 O 0.37398 0.3454 0.83908 0.0
O74 O 0.44195 0.29255 0.88348 0.0
O75 O 0.40685 0.27903 0.92728 0.0
O76 O 0.38462 0.23233 0.85935 0.0
O77 O 0.39977 0.27306 0.8118 0.0
C78 C 0.38869 0.31329 0.98825 0.0
C79 C 0.39568 0.24481 0.81738 0.0
Dy80 Dy 0.99376 0.86786 0.87278 0.0
C81 C 0.89314 0.89509 0.98053 0.0
C82 C 0.04064 0.86594 0.81172 0.0
Dy83 Dy 0.93811 0.87201 0.93315 0.0
O84 O 0.03035 0.88861 0.83015 0.0
O85 O 0.02619 0.8436 0.82935 0.0
O86 O 0.98821 0.91423 0.85333 0.0
O87 O 0.97654 0.89859 0.92356 0.0
C88 C 0.97797 0.9207 0.89589 0.0
C89 C 0.95138 0.81924 0.91553 0.0
O90 O 0.92145 0.87604 0.85225 0.0
O91 O 0.96202 0.86193 0.81102 0.0
O92 O 0.89589 0.86813 0.97254 0.0
O93 O 0.9149 0.90948 0.96143 0.0
O94 O 0.93466 0.82568 0.95199 0.0
O95 O 0.95578 0.84088 0.88708 0.0
O96 O 0.01043 0.85354 0.94868 0.0
O97 O 0.97069 0.86337 0.99707 0.0
C98 C 0.9347 0.86882 0.81044 0.0
C99 C -0.00217 0.85475 0.99322 0.0
Dy100 Dy 0.38001 0.72547 0.20923 0.0
C101 C 0.36697 0.6609 1.02481 0.0
C102 C 0.39331 0.75836 0.29102 0.0
Dy103 Dy 0.35972 0.68799 0.11333 0.0
O104 O 0.41087 0.7524 0.25557 0.0
O105 O 0.36805 0.74731 0.28039 0.0
O106 O 0.41763 0.69522 0.21464 0.0
O107 O 0.39747 0.70384 0.14814 0.0
C108 C 0.41571 0.68878 0.16819 0.0
C109 C 0.31711 0.70795 0.1664 0.0
O110 O 0.36337 0.65544 0.17682 0.0
O111 O 0.35824 0.6864 0.24273 0.0
O112 O 0.35419 0.68495 0.02991 0.0
O113 O 0.37459 0.65099 0.06846 0.0
O114 O 0.31392 0.68687 0.13603 0.0
O115 O 0.34184 0.71968 0.16143 0.0
O116 O 0.38507 0.759 0.14631 0.0
O117 O 0.37541 0.72917 0.07957 0.0
C118 C 0.35839 0.66042 0.22446 0.0
C119 C 0.3835 0.75414 0.09762 0.0
Dy120 Dy 0.4692 0.13362 0.39623 0.0
C121 C 0.56784 0.1095 0.51717 0.0
C122 C 0.42979 0.1438 0.32268 0.0
Dy123 Dy 0.52516 0.12667 0.45538 0.0
O124 O 0.43062 0.15651 0.36493 0.0
O125 O 0.45001 0.12556 0.32132 0.0
O126 O 0.44633 0.09914 0.43971 0.0
O127 O 0.49089 0.09696 0.43108 0.0
C128 C 0.4692 0.08626 0.45397 0.0
C129 C 0.52459 0.17277 0.39506 0.0
O130 O 0.54106 0.11178 0.38112 0.0
O131 O 0.50185 0.12665 0.33549 0.0
O132 O 0.56204 0.13589 0.50633 0.0
O133 O 0.54998 0.09241 0.49497 0.0
O134 O 0.54812 0.1611 0.4098 0.0
O135 O 0.50365 0.16179 0.41925 0.0
O136 O 0.45744 0.15746 0.46559 0.0
O137 O 0.49552 0.14289 0.51522 0.0
C138 C 0.52849 0.11751 0.33768 0.0
C139 C 0.4706 0.15582 0.50965 0.0
Dy140 Dy 0.13411 0.25647 0.61401 0.0
C141 C 0.10976 0.34804 0.74397 0.0
C142 C 0.13749 0.21347 0.54833 0.0
Dy143 Dy 0.11116 0.30396 0.68118 0.0
O144 O 0.15814 0.23165 0.55832 0.0
O145 O 0.11558 0.21785 0.57646 0.0
O146 O 0.17757 0.27814 0.6137 0.0
O147 O 0.15082 0.281 0.67549 0.0
C148 C 0.1741 0.28988 0.65626 0.0
C149 C 0.07323 0.26963 0.63863 0.0
O150 O 0.11776 0.32925 0.60824 0.0
O151 O 0.12177 0.29065 0.55696 0.0
O152 O 0.08929 0.34121 0.71332 0.0
O153 O 0.13102 0.33109 0.7396 0.0
O154 O 0.06787 0.28067 0.68132 0.0
O155 O 0.09608 0.27951 0.62087 0.0
O156 O 0.12296 0.23091 0.68631 0.0
O157 O 0.10852 0.26768 0.73681 0.0
C158 C 0.11837 0.31848 0.56298 0.0
C159 C 0.11316 0.24037 0.72948 0.0
Dy160 Dy 0.87317 0.23286 0.68946 0.0
C161 C 0.88025 0.15809 0.52114 0.0
C162 C 0.8808 0.2622 0.77702 0.0
Dy163 Dy 0.86446 0.18542 0.60545 0.0
O164 O 0.90079 0.25134 0.75074 0.0
O165 O 0.85625 0.25749 0.75478 0.0
O166 O 0.91378 0.24556 0.64762 0.0
O167 O 0.89813 0.20316 0.64986 0.0
C168 C 0.91679 0.21993 0.6318 0.0
C169 C 0.81923 0.19316 0.662 0.0
O170 O 0.87794 0.15745 0.66939 0.0
O171 O 0.86929 0.19028 0.73102 0.0
O172 O 0.85452 0.15697 0.54023 0.0
O173 O 0.89691 0.17361 0.54855 0.0
O174 O 0.82294 0.16979 0.63781 0.0
O175 O 0.83764 0.21248 0.64902 0.0
O176 O 0.85963 0.26195 0.62612 0.0
O177 O 0.86001 0.22755 0.56435 0.0
C178 C 0.87455 0.16399 0.71663 0.0
C179 C 0.85783 0.25426 0.57891 0.0
Dy180 Dy 0.63311 0.73441 0.11832 0.0
C181 C 0.59641 0.82496 0.2458 0.0
C182 C 0.6356 0.69897 0.03947 0.0
Dy183 Dy 0.60771 0.78379 0.1794 0.0
O184 O 0.65439 0.71907 0.04932 0.0
O185 O 0.61674 0.69697 0.07485 0.0
O186 O 0.67445 0.73518 0.15737 0.0
O187 O 0.6507 0.77347 0.15153 0.0
C188 C 0.67186 0.76121 0.17224 0.0
C189 C 0.57182 0.74957 0.12865 0.0
O190 O 0.61936 0.80887 0.10991 0.0
O191 O 0.6206 0.76905 0.06137 0.0
O192 O 0.61799 0.80822 0.24797 0.0
O193 O 0.58083 0.81921 0.20723 0.0
O194 O 0.56528 0.77571 0.13735 0.0
O195 O 0.59404 0.74409 0.15125 0.0
O196 O 0.62099 0.70947 0.19033 0.0
O197 O 0.60877 0.74796 0.23863 0.0
C198 C 0.61913 0.7972 0.06576 0.0
C199 C 0.61275 0.72006 0.23369 0.0
Dy200 Dy 0.61575 0.23046 0.94121 0.0
C201 C 0.63698 0.1344 0.82522 0.0
C202 C 0.62159 0.27096 1.01112 0.0
Dy203 Dy 0.61711 0.1732 0.88901 0.0
O204 O 0.63943 0.25113 1.00271 0.0
O205 O 0.6001 0.26922 0.98026 0.0
O206 O 0.65454 0.24376 0.89621 0.0
O207 O 0.64898 0.20108 0.92182 0.0
C208 C 0.66486 0.2184 0.89698 0.0
C209 C 0.56748 0.18133 0.93003 0.0
O210 O 0.62464 0.15801 0.96982 0.0
O211 O 0.60691 0.19859 1.00438 0.0
O212 O 0.61652 0.12934 0.85726 0.0
O213 O 0.6466 0.16052 0.82871 0.0
O214 O 0.57521 0.15599 0.91794 0.0
O215 O 0.58413 0.2006 0.91144 0.0
O216 O 0.59511 0.24564 0.86936 0.0
O217 O 0.60324 0.20453 0.82539 0.0
C218 C 0.61438 0.17156 1.00875 0.0
C219 C 0.59443 0.23152 0.82695 0.0
Dy220 Dy 0.88333 0.74166 0.42561 0.0
C221 C 0.88034 0.84218 0.29602 0.0
C222 C 0.8861 0.70475 0.50581 0.0
Dy223 Dy 0.89347 0.79947 0.36111 0.0
O224 O 0.87984 0.7314 0.50623 0.0
O225 O 0.89042 0.69727 0.45998 0.0
O226 O 0.83523 0.7449 0.41893 0.0
O227 O 0.86192 0.7646 0.36614 0.0
C228 C 0.83678 0.76337 0.38214 0.0
C229 C 0.93375 0.78761 0.42759 0.0
O230 O 0.87643 0.81659 0.43363 0.0
O231 O 0.88426 0.77597 0.48269 0.0
O232 O 0.9064 0.83549 0.3081 0.0
O233 O 0.86166 0.82525 0.31865 0.0
O234 O 0.93033 0.81358 0.41011 0.0
O235 O 0.9183 0.77038 0.40393 0.0
O236 O 0.90791 0.72497 0.35891 0.0
O237 O 0.91124 0.76684 0.3079 0.0
C238 C 0.87863 0.80341 0.47808 0.0
C239 C 0.91566 0.73881 0.31596 0.0
Dy240 Dy 0.51424 0.61963 0.65312 0.0
C241 C 0.41949 0.58448 0.52284 0.0
C242 C 0.55068 0.63712 0.72643 0.0
Dy243 Dy 0.46084 0.60599 0.58371 0.0
O244 O 0.53321 0.61502 0.7296 0.0
O245 O 0.54861 0.64963 0.68271 0.0
O246 O 0.5335 0.5782 0.63061 0.0
O247 O 0.48914 0.58203 0.63183 0.0
C248 C 0.50891 0.56616 0.62017 0.0
C249 C 0.47481 0.66082 0.59515 0.0
O250 O 0.43991 0.60098 0.66029 0.0
O251 O 0.47694 0.62268 0.70572 0.0
O252 O 0.41529 0.60281 0.55722 0.0
O253 O 0.44608 0.5771 0.52333 0.0
O254 O 0.46323 0.65196 0.55444 0.0
O255 O 0.47653 0.64062 0.6259 0.0
O256 O 0.5308 0.63623 0.5779 0.0
O257 O 0.49921 0.60854 0.53147 0.0
C258 C 0.45034 0.61182 0.70229 0.0
C259 C 0.52243 0.62572 0.53465 0.0
Dy260 Dy 0.95624 0.36876 0.20571 0.0
C261 C 0.04632 0.3904 0.06345 0.0
C262 C 0.91745 0.35485 0.27978 0.0
Dy263 Dy 0.01218 0.37166 0.14042 0.0
O264 O 0.93881 0.37304 0.28314 0.0
O265 O 0.91683 0.34474 0.23545 0.0
O266 O 0.9425 0.41104 0.171 0.0
O267 O 0.98583 0.40171 0.1775 0.0
C268 C 0.96863 0.41928 0.15959 0.0
C269 C 0.00407 0.32417 0.19367 0.0
O270 O 0.03109 0.38576 0.21303 0.0
O271 O 0.99261 0.36821 0.26172 0.0
O272 O 0.05351 0.37131 0.09703 0.0
O273 O 0.02083 0.39909 0.0724 0.0
O274 O 0.02935 0.33243 0.17714 0.0
O275 O 0.98469 0.33875 0.17366 0.0
O276 O 0.93828 0.34989 0.13488 0.0
O277 O 0.97916 0.35501 0.08543 0.0
C278 C 0.01953 0.37819 0.25695 0.0
C279 C 0.95159 0.34757 0.09138 0.0
Dy280 Dy 0.53063 0.34276 0.39228 0.0
C281 C 0.41934 0.3524 0.4772 0.0
C282 C 0.57559 0.3449 0.32779 0.0
Dy283 Dy 0.46844 0.33964 0.43022 0.0
O284 O 0.57281 0.32662 0.36508 0.0
O285 O 0.55471 0.36234 0.32783 0.0
O286 O 0.54244 0.37762 0.44353 0.0
O287 O 0.50034 0.374 0.41596 0.0
C288 C 0.51657 0.3868 0.44608 0.0
C289 C 0.482 0.29712 0.37264 0.0
O290 O 0.45844 0.35493 0.35252 0.0
O291 O 0.50396 0.34784 0.32148 0.0
O292 O 0.42999 0.32707 0.47657 0.0
O293 O 0.43559 0.37048 0.45214 0.0
O294 O 0.45567 0.30438 0.37965 0.0
O295 O 0.4982 0.30947 0.40327 0.0
O296 O 0.53822 0.31727 0.46502 0.0
O297 O 0.49395 0.32698 0.49918 0.0
C298 C 0.47645 0.3536 0.31474 0.0
C299 C 0.52024 0.31672 0.50378 0.0
Dy300 Dy 0.00585 0.64367 0.90399 0.0
C301 C 0.09477 0.58579 1.00853 0.0
C302 C 0.96744 0.65058 0.82862 0.0
Dy303 Dy 0.05829 0.61828 0.95285 0.0
O304 O 0.97971 0.62715 0.84167 0.0
O305 O 0.97552 0.67099 0.85811 0.0
O306 O 0.9803 0.60958 0.94727 0.0
O307 O 0.02056 0.60025 0.91945 0.0
C308 C -0.00065 0.59027 0.94373 0.0
C309 C 0.06227 0.6737 0.95073 0.0
O310 O 0.07307 0.61863 0.87028 0.0
O311 O 0.03714 0.64776 0.84087 0.0
O312 O 0.10252 0.60404 0.97321 0.0
O313 O 0.067 0.58362 1.00923 0.0
O314 O 0.0742 0.6583 0.98515 0.0
O315 O 0.05038 0.65886 0.91776 0.0
O316 O -0.0012 0.66464 0.97632 0.0
O317 O 0.02779 0.63177 1.01643 0.0
C318 C 0.06122 0.63433 0.83331 0.0
C319 C 0.0086 0.65269 1.01809 0.0
H320 H 0.02 0.17987 0.96351 0.0
H321 H 0.09619 0.13865 1.01758 0.0
H322 H 0.12217 0.155 0.94114 0.0
H323 H 0.02856 0.16762 0.83277 0.0
H324 H 0.01676 0.20237 0.81263 0.0
H325 H 0.00365 0.18622 0.87014 0.0
H326 H 0.02127 0.23062 0.91749 0.0
H327 H 0.03409 0.24703 0.86007 0.0
H328 H 0.05817 0.24273 0.91187 0.0
H329 H 0.13948 0.17464 0.85537 0.0
H330 H 0.14855 0.20194 0.77601 0.0
H331 H 0.06296 0.23455 0.7818 0.0
C332 C 0.04215 0.17428 0.95917 0.0
C333 C 0.056 0.15775 0.99661 0.0
C334 C 0.08514 0.1513 0.98968 0.0
C335 C 0.10002 0.16037 0.94611 0.0
C336 C 0.08577 0.1765 0.9098 0.0
C337 C 0.05763 0.18395 0.91647 0.0
C338 C 0.04785 0.20315 0.87345 0.0
C339 C 0.02272 0.18899 0.84561 0.0
C340 C 0.03989 0.23263 0.89182 0.0
C341 C 0.07474 0.2052 0.84141 0.0
C342 C 0.09623 0.1892 0.86246 0.0
C343 C 0.12279 0.18733 0.83886 0.0
C344 C 0.12773 0.2027 0.79349 0.0
C345 C 0.10648 0.22022 0.77243 0.0
C346 C 0.07961 0.22122 0.79683 0.0
H347 H 0.03876 0.80518 0.2833 0.0
H348 H 0.11235 0.76622 0.21854 0.0
H349 H 0.0986 0.78526 0.13598 0.0
H350 H 0.99083 0.78942 0.18554 0.0
H351 H 0.97144 0.82209 0.18175 0.0
H352 H 0.98719 0.81028 0.23968 0.0
H353 H 0.01693 0.85623 0.24832 0.0
H354 H 0.0003 0.87039 0.19274 0.0
H355 H 0.03878 0.86989 0.19727 0.0
H356 H 0.07885 0.81008 0.05978 0.0
H357 H 0.05116 0.8324 0.99299 0.0
H358 H 0.98489 0.85191 0.0986 0.0
C359 C 0.05222 0.80103 0.25184 0.0
C360 C 0.07725 0.78423 0.25859 0.0
C361 C 0.09343 0.77895 0.21547 0.0
C362 C 0.08574 0.78984 0.16797 0.0
C363 C 0.06119 0.80597 0.16248 0.0
C364 C 0.04435 0.8114 0.20302 0.0
C365 C 0.01808 0.82811 0.18505 0.0
C366 C 0.99019 0.81152 0.19875 0.0
C367 C 0.01855 0.85792 0.20718 0.0
C368 C 0.02253 0.83046 0.12822 0.0
C369 C 0.04818 0.81824 0.11691 0.0
C370 C 0.05852 0.81923 0.06833 0.0
C371 C 0.04236 0.83227 0.03015 0.0
C372 C 0.015 0.84379 0.03873 0.0
C373 C 0.00526 0.84304 0.08946 0.0
H374 H 0.44614 0.7826 0.32022 0.0
H375 H 0.35914 0.76545 0.37156 0.0
H376 H 0.37193 0.78514 0.45282 0.0
H377 H 0.48145 0.76546 0.43674 0.0
H378 H 0.50848 0.79365 0.43071 0.0
H379 H 0.49285 0.77846 0.37601 0.0
H380 H 0.47837 0.82873 0.34457 0.0
H381 H 0.49406 0.84402 0.39914 0.0
H382 H 0.45715 0.85023 0.38384 0.0
H383 H 0.3944 0.80441 0.53063 0.0
H384 H 0.42368 0.82525 0.59715 0.0
H385 H 0.49647 0.8333 0.49722 0.0
C386 C 0.42972 0.78324 0.34845 0.0
C387 C 0.40142 0.77237 0.33898 0.0
C388 C 0.3808 0.77359 0.37733 0.0
C389 C 0.38794 0.78472 0.42389 0.0
C390 C 0.4159 0.79496 0.43219 0.0
C391 C 0.43648 0.79464 0.39543 0.0
C392 C 0.46492 0.80727 0.41451 0.0
C393 C 0.4883 0.78488 0.41448 0.0
C394 C 0.47417 0.83416 0.38368 0.0
C395 C 0.45705 0.81473 0.46755 0.0
C396 C 0.4287 0.80706 0.47689 0.0
C397 C 0.41653 0.81069 0.52345 0.0
C398 C 0.43349 0.82253 0.5613 0.0
C399 C 0.46252 0.83122 0.55303 0.0
C400 C 0.47434 0.82724 0.50503 0.0
H401 H 0.43959 0.25428 0.74779 0.0
H402 H 0.36977 0.19462 0.78634 0.0
H403 H 0.38057 0.16693 0.71214 0.0
H404 H 0.43332 0.25307 0.6135 0.0
H405 H 0.47143 0.25411 0.60301 0.0
H406 H 0.45709 0.26968 0.65756 0.0
H407 H 0.4898 0.23793 0.71229 0.0
H408 H 0.50365 0.22244 0.65737 0.0
H409 H 0.48802 0.19972 0.70601 0.0
H410 H 0.39731 0.14703 0.62917 0.0
H411 H 0.422 0.13313 0.55273 0.0
H412 H 0.48484 0.20192 0.57093 0.0
C413 C 0.42654 0.23534 0.74072 0.0
C414 C 0.40349 0.2269 0.77349 0.0
C415 C 0.38744 0.2017 0.76257 0.0
C416 C 0.39341 0.18586 0.72007 0.0
C417 C 0.41607 0.19482 0.68859 0.0
C418 C 0.43279 0.21873 0.69898 0.0
C419 C 0.45688 0.22287 0.6605 0.0
C420 C 0.45452 0.25165 0.63197 0.0
C421 C 0.48633 0.22059 0.68556 0.0
C422 C 0.45087 0.19783 0.62635 0.0
C423 C 0.4269 0.18223 0.64294 0.0
C424 C 0.41627 0.15897 0.61649 0.0
C425 C 0.43041 0.15123 0.57274 0.0
C426 C 0.45551 0.16612 0.55537 0.0
C427 C 0.46584 0.18982 0.58304 0.0
H428 H 0.84161 0.83491 0.22351 0.0
H429 H 0.90458 0.89523 0.27947 0.0
H430 H 0.89757 0.92694 0.20571 0.0
H431 H 0.86991 0.8335 0.11382 0.0
H432 H 0.8373 0.82877 0.07868 0.0
H433 H 0.83808 0.81815 0.14282 0.0
H434 H 0.79475 0.85162 0.158 0.0
H435 H 0.79532 0.86172 0.09287 0.0
H436 H 0.79804 0.88869 0.13896 0.0
H437 H 0.89297 0.94603 0.12079 0.0
H438 H 0.9022 0.94347 0.0312 0.0
H439 H 0.84759 0.86771 1.02478 0.0
C440 C 0.85274 0.85553 0.22097 0.0
C441 C 0.87308 0.86319 0.25704 0.0
C442 C 0.88856 0.88943 0.25219 0.0
C443 C 0.88438 0.90767 0.21075 0.0
C444 C 0.8651 0.899 0.17411 0.0
C445 C 0.84976 0.87322 0.17861 0.0
C446 C 0.83713 0.8647 0.1293 0.0
C447 C 0.84618 0.83456 0.11536 0.0
C448 C 0.80437 0.86679 0.12981 0.0
C449 C 0.85051 0.8878 0.09545 0.0
C450 C 0.86458 0.90864 0.12247 0.0
C451 C 0.88167 0.9301 0.09939 0.0
C452 C 0.88685 0.92855 0.04843 0.0
C453 C 0.87616 0.90499 1.02209 0.0
C454 C 0.8558 0.88596 0.04459 0.0
H455 H 0.85551 0.16476 0.8116 0.0
H456 H 0.90359 0.11409 0.71104 0.0
H457 H 0.91794 0.08271 0.78166 0.0
H458 H 0.90487 0.16888 0.89889 0.0
H459 H 0.88125 0.16702 0.95185 0.0
H460 H 0.86836 0.17994 0.89296 0.0
H461 H 0.82715 0.14156 0.89618 0.0
H462 H 0.83994 0.1285 0.95559 0.0
H463 H 0.8353 0.10441 0.9052 0.0
H464 H 0.93597 0.06445 0.86395 0.0
H465 H 0.95632 0.06203 0.94868 0.0
H466 H 0.89618 0.12439 0.99523 0.0
C467 C 0.86829 0.14648 0.80419 0.0
C468 C 0.87853 0.14186 0.75602 0.0
C469 C 0.89531 0.11786 0.7477 0.0
C470 C 0.90349 0.09988 0.7876 0.0
C471 C 0.89421 0.10591 0.83526 0.0
C472 C 0.87657 0.12847 0.84348 0.0
C473 C 0.87301 0.13337 0.89824 0.0
C474 C 0.88247 0.16409 0.91119 0.0
C475 C 0.84201 0.12654 0.91477 0.0
C476 C 0.89318 0.11155 0.91959 0.0
C477 C 0.90457 0.09527 0.88293 0.0
C478 C 0.92659 0.07646 0.89311 0.0
C479 C 0.93804 0.0752 0.94131 0.0
C480 C 0.92764 0.09298 0.97824 0.0
C481 C 0.90411 0.11024 0.96777 0.0
H482 H 0.65962 0.15337 0.73828 0.0
H483 H 0.62111 0.07848 0.81239 0.0
H484 H 0.613 0.05657 0.73139 0.0
H485 H 0.60876 0.16222 0.66329 0.0
H486 H 0.62805 0.17521 0.60873 0.0
H487 H 0.64375 0.17925 0.66863 0.0
H488 H 0.68833 0.15217 0.64185 0.0
H489 H 0.67294 0.14849 0.58089 0.0
H490 H 0.68403 0.11732 0.6159 0.0
H491 H 0.59611 0.04921 0.64622 0.0
H492 H 0.5693 0.05862 0.56873 0.0
H493 H 0.61267 0.1412 0.55104 0.0
C494 C 0.65111 0.13164 0.73739 0.0
C495 C 0.64122 0.1174 0.78116 0.0
C496 C 0.62916 0.08948 0.77904 0.0
C497 C 0.62458 0.07688 0.73311 0.0
C498 C 0.63198 0.09265 0.68988 0.0
C499 C 0.64528 0.11948 0.69172 0.0
C500 C 0.64413 0.13531 0.64192 0.0
C501 C 0.63032 0.16467 0.64596 0.0
C502 C 0.67415 0.13849 0.61876 0.0
C503 C 0.6254 0.11466 0.61346 0.0
C504 C 0.62011 0.08944 0.64059 0.0
C505 C 0.60066 0.06855 0.62425 0.0
C506 C 0.58535 0.07411 0.58044 0.0
C507 C 0.58881 0.10074 0.55481 0.0
C508 C 0.60991 0.12063 0.57021 0.0
H509 H 0.6052 0.88901 0.51292 0.0
H510 H 0.52763 0.93375 0.47748 0.0
H511 H 0.53273 0.92166 0.38944 0.0
H512 H 0.64362 0.90315 0.38996 0.0
H513 H 0.65742 0.86763 0.39228 0.0
H514 H 0.65167 0.88603 0.44898 0.0
H515 H 0.61977 0.84324 0.48158 0.0
H516 H 0.62477 0.82502 0.42478 0.0
H517 H 0.5891 0.83188 0.44579 0.0
H518 H 0.54064 0.89621 0.30989 0.0
H519 H 0.55301 0.86294 0.2442 0.0
H520 H 0.62483 0.83412 0.33237 0.0
C521 C 0.59012 0.89754 0.4862 0.0
C522 C 0.56626 0.91268 0.50185 0.0
C523 C 0.54639 0.92262 0.4661 0.0
C524 C 0.54903 0.91566 0.41603 0.0
C525 C 0.57177 0.89897 0.40237 0.0
C526 C 0.5923 0.89048 0.43633 0.0
C527 C 0.61243 0.86961 0.41414 0.0
C528 C 0.64311 0.88238 0.41115 0.0
C529 C 0.61143 0.84075 0.44331 0.0
C530 C 0.59945 0.86684 0.36302 0.0
C531 C 0.5762 0.88413 0.35664 0.0
C532 C 0.55925 0.88315 0.31402 0.0
C533 C 0.56632 0.86411 0.27704 0.0
C534 C 0.59 0.84623 0.28313 0.0
C535 C 0.60688 0.84791 0.32642 0.0
H536 H 0.60319 0.73198 0.33296 0.0
H537 H 0.59892 0.66258 0.23029 0.0
H538 H 0.57723 0.63087 0.29601 0.0
H539 H 0.62071 0.68831 0.44446 0.0
H540 H 0.59904 0.70878 0.48472 0.0
H541 H 0.61523 0.72559 0.43011 0.0
H542 H 0.56541 0.74166 0.40067 0.0
H543 H 0.54884 0.72449 0.45445 0.0
H544 H 0.53689 0.71532 0.39339 0.0
H545 H 0.55095 0.60777 0.3715 0.0
H546 H 0.52761 0.59413 0.45148 0.0
H547 H 0.55355 0.67618 0.50934 0.0
C548 C 0.5982 0.70996 0.32443 0.0
C549 C 0.60314 0.69994 0.2759 0.0
C550 C 0.59587 0.67094 0.26683 0.0
C551 C 0.58329 0.65271 0.30408 0.0
C552 C 0.57834 0.66339 0.35107 0.0
C553 C 0.58608 0.69124 0.36163 0.0
C554 C 0.57811 0.69749 0.41504 0.0
C555 C 0.60488 0.70552 0.44537 0.0
C556 C 0.55602 0.72114 0.41593 0.0
C557 C 0.56488 0.66881 0.43308 0.0
C558 C 0.56469 0.64962 0.39518 0.0
C559 C 0.55154 0.62254 0.40155 0.0
C560 C 0.53826 0.61494 0.44736 0.0
C561 C 0.53862 0.63387 0.48743 0.0
C562 C 0.55274 0.66104 0.47999 0.0
H563 H 0.6052 0.22638 0.72349 0.0
H564 H 0.5514 0.26929 0.82698 0.0
H565 H 0.52715 0.29343 0.75704 0.0
H566 H 0.61425 0.28778 0.63764 0.0
H567 H 0.61352 0.26741 0.58203 0.0
H568 H 0.62597 0.25146 0.63953 0.0
H569 H 0.58851 0.21003 0.6323 0.0
H570 H 0.57653 0.22565 0.57425 0.0
H571 H 0.55135 0.21787 0.62379 0.0
H572 H 0.50748 0.31287 0.67669 0.0
H573 H 0.49615 0.32943 0.59194 0.0
H574 H 0.56386 0.27825 0.53465 0.0
C575 C 0.58821 0.24075 0.73139 0.0
C576 C 0.58037 0.24566 0.78174 0.0
C577 C 0.55817 0.26502 0.78959 0.0
C578 C 0.54406 0.27887 0.74976 0.0
C579 C 0.55236 0.27387 0.70111 0.0
C580 C 0.57411 0.25552 0.69147 0.0
C581 C 0.57944 0.25544 0.63512 0.0
C582 C 0.61013 0.26616 0.62286 0.0
C583 C 0.57361 0.22547 0.61517 0.0
C584 C 0.55736 0.27653 0.61494 0.0
C585 C 0.5418 0.28643 0.65409 0.0
C586 C 0.51975 0.30539 0.64591 0.0
C587 C 0.51341 0.31471 0.59703 0.0
C588 C 0.52903 0.30564 0.55541 0.0
C589 C 0.55153 0.28611 0.56503 0.0
H590 H 0.97327 0.32713 1.00348 0.0
H591 H 0.89317 0.33979 0.07983 0.0
H592 H 0.86656 0.32036 1.00836 0.0
H593 H 0.94912 0.34507 0.8795 0.0
H594 H 0.96921 0.31793 0.8505 0.0
H595 H 0.98195 0.33312 0.90728 0.0
H596 H 0.98332 0.28261 0.94876 0.0
H597 H 0.97067 0.26727 0.89207 0.0
H598 H 0.95145 0.25989 0.94924 0.0
H599 H 0.84818 0.30008 0.9259 0.0
H600 H 0.84037 0.27873 0.84378 0.0
H601 H 0.93221 0.27726 0.82203 0.0
C602 C 0.95011 0.32592 1.00528 0.0
C603 C 0.93546 0.33532 0.04783 0.0
C604 C 0.9051 0.33288 0.04818 0.0
C605 C 0.88972 0.32186 1.00748 0.0
C606 C 0.9048 0.31289 0.96625 0.0
C607 C 0.93439 0.31456 0.96512 0.0
C608 C 0.94552 0.30285 0.91686 0.0
C609 C 0.96245 0.32613 0.88676 0.0
C610 C 0.96382 0.2766 0.92737 0.0
C611 C 0.91763 0.29453 0.8908 0.0
C612 C 0.89434 0.30064 0.91979 0.0
C613 C 0.86636 0.29517 0.90318 0.0
C614 C 0.86207 0.28306 0.85625 0.0
C615 C 0.88555 0.27622 0.82605 0.0
C616 C 0.9137 0.28216 0.84397 0.0
H617 H 0.92208 0.75048 0.2123 0.0
H618 H 0.94509 0.68914 0.32838 0.0
H619 H 0.97124 0.66193 0.26702 0.0
H620 H 0.91009 0.69694 0.11794 0.0
H621 H 0.92375 0.71928 0.06709 0.0
H622 H 0.90783 0.73522 0.11999 0.0
H623 H 0.95426 0.76603 0.13312 0.0
H624 H 0.96925 0.75045 0.07915 0.0
H625 H 0.98819 0.7485 0.13721 0.0
H626 H -0.00313 0.64113 0.19209 0.0
H627 H 0.01575 0.62729 0.11095 0.0
H628 H 0.97462 0.69951 0.03985 0.0
C629 C 0.9327 0.73139 0.22497 0.0
C630 C 0.93126 0.72233 0.2763 0.0
C631 C 0.94542 0.69686 0.29008 0.0
C632 C 0.96059 0.68117 0.25516 0.0
C633 C 0.96151 0.69054 0.20533 0.0
C634 C 0.94767 0.71496 0.19 0.0
C635 C 0.95084 0.71933 0.13344 0.0
C636 C 0.92137 0.71759 0.10812 0.0
C637 C 0.96656 0.74781 0.12003 0.0
C638 C 0.96905 0.69406 0.11973 0.0
C639 C 0.97508 0.67782 0.16193 0.0
C640 C 0.99201 0.65376 0.159 0.0
C641 C 0.00285 0.64603 0.11235 0.0
C642 C -0.00306 0.66197 0.06799 0.0
C643 C 0.97964 0.68647 0.0724 0.0
H644 H 0.38705 0.31732 0.53638 0.0
H645 H 0.40684 0.40655 0.50222 0.0
H646 H 0.38844 0.41924 0.58387 0.0
H647 H 0.32505 0.32822 0.63348 0.0
H648 H 0.3388 0.29837 0.66905 0.0
H649 H 0.33992 0.29865 0.60223 0.0
H650 H 0.3944 0.29003 0.60824 0.0
H651 H 0.39347 0.29125 0.67429 0.0
H652 H 0.41729 0.31542 0.63958 0.0
H653 H 0.3853 0.42035 0.67569 0.0
H654 H 0.39338 0.40947 0.76561 0.0
H655 H 0.38004 0.31956 0.7394 0.0
C656 C 0.38574 0.33963 0.54513 0.0
C657 C 0.39837 0.3609 0.51378 0.0
C658 C 0.397 0.38994 0.52601 0.0
C659 C 0.38658 0.39734 0.57241 0.0
C660 C 0.37731 0.37545 0.60541 0.0
C661 C 0.37606 0.3471 0.59168 0.0
C662 C 0.37197 0.32696 0.63606 0.0
C663 C 0.34214 0.31222 0.63517 0.0
C664 C 0.39571 0.3047 0.63974 0.0
C665 C 0.37426 0.34806 0.677 0.0
C666 C 0.3761 0.37604 0.65908 0.0
C667 C 0.38269 0.39866 0.69035 0.0
C668 C 0.38758 0.3924 0.74102 0.0
C669 C 0.38645 0.3638 0.75878 0.0
C670 C 0.3795 0.34167 0.72662 0.0
H671 H 0.43485 0.57359 0.42849 0.0
H672 H 0.36178 0.59072 0.52033 0.0
H673 H 0.33275 0.59936 0.44521 0.0
H674 H 0.42856 0.62892 0.3538 0.0
H675 H 0.43937 0.61366 0.29646 0.0
H676 H 0.45126 0.59847 0.35445 0.0
H677 H 0.42965 0.54906 0.33164 0.0
H678 H 0.41785 0.5641 0.27293 0.0
H679 H 0.3925 0.5457 0.31402 0.0
H680 H 0.31704 0.62013 0.36651 0.0
H681 H 0.31542 0.65032 0.29073 0.0
H682 H 0.39758 0.62021 0.24524 0.0
C683 C 0.41226 0.57748 0.43254 0.0
C684 C 0.40028 0.58098 0.47998 0.0
C685 C 0.3711 0.58746 0.48423 0.0
C686 C 0.35448 0.59235 0.44168 0.0
C687 C 0.3674 0.5907 0.3952 0.0
C688 C 0.3956 0.58305 0.39025 0.0
C689 C 0.40609 0.58843 0.33733 0.0
C690 C 0.43286 0.60857 0.33546 0.0
C691 C 0.41185 0.56013 0.31251 0.0
C692 C 0.38025 0.60256 0.31439 0.0
C693 C 0.35788 0.6028 0.34808 0.0
C694 C 0.33377 0.61892 0.33898 0.0
C695 C 0.33293 0.636 0.29553 0.0
C696 C 0.35573 0.63654 0.2611 0.0
C697 C 0.3792 0.61885 0.26979 0.0
H698 H 0.0872 0.6246 0.27802 0.0
H699 H 0.17022 0.66672 0.25518 0.0
H700 H 0.17848 0.63708 0.18282 0.0
H701 H 0.10748 0.55159 0.22833 0.0
H702 H 0.07265 0.54736 0.20019 0.0
H703 H 0.07658 0.56592 0.25752 0.0
H704 H 0.0524 0.61016 0.21741 0.0
H705 H 0.04811 0.59152 0.16082 0.0
H706 H 0.06677 0.6258 0.16035 0.0
H707 H 0.17243 0.61295 0.10288 0.0
H708 H 0.15173 0.59853 1.02296 0.0
H709 H 0.07428 0.56849 0.09875 0.0
C710 C 0.10756 0.62669 0.25889 0.0
C711 C 0.1281 0.64777 0.2721 0.0
C712 C 0.15426 0.65052 0.24571 0.0
C713 C 0.15922 0.63362 0.20475 0.0
C714 C 0.13802 0.61371 0.19122 0.0
C715 C 0.11283 0.60989 0.21801 0.0
C716 C 0.09166 0.59049 0.19169 0.0
C717 C 0.08682 0.56215 0.2212 0.0
C718 C 0.0631 0.6054 0.18197 0.0
C719 C 0.10785 0.58598 0.144 0.0
C720 C 0.13491 0.59885 0.14496 0.0
C721 C 0.15173 0.60194 0.10218 0.0
C722 C 0.13989 0.59352 0.05683 0.0
C723 C 0.11149 0.58228 0.05475 0.0
C724 C 0.09629 0.57644 0.09941 0.0
H725 H 0.13259 0.34139 0.83548 0.0
H726 H 0.07715 0.39521 0.74718 0.0
H727 H 0.06401 0.42068 0.82243 0.0
H728 H 0.08477 0.32782 0.92507 0.0
H729 H 0.10923 0.32627 0.97678 0.0
H730 H 0.12158 0.3188 0.91571 0.0
H731 H 0.16143 0.35819 0.92203 0.0
H732 H 0.1493 0.36574 0.98363 0.0
H733 H 0.1521 0.39399 0.93673 0.0
H734 H 0.04995 0.43365 0.90675 0.0
H735 H 0.03221 0.43003 0.99282 0.0
H736 H 0.09369 0.36497 1.02783 0.0
C737 C 0.1188 0.3595 0.83182 0.0
C738 C 0.10635 0.36697 0.78573 0.0
C739 C 0.08724 0.38968 0.78225 0.0
C740 C 0.07982 0.4043 0.82473 0.0
C741 C 0.09147 0.39561 0.87029 0.0
C742 C 0.11051 0.37362 0.87412 0.0
C743 C 0.11531 0.36435 0.9278 0.0
C744 C 0.10722 0.33245 0.93683 0.0
C745 C 0.14638 0.37098 0.94347 0.0
C746 C 0.09472 0.38338 0.95343 0.0
C747 C 0.08203 0.402 0.91973 0.0
C748 C 0.06014 0.41961 0.9336 0.0
C749 C 0.05014 0.41734 0.98254 0.0
C750 C 0.06168 0.39723 1.01672 0.0
C751 C 0.08494 0.38087 1.00254 0.0
H752 H 0.95367 0.29886 0.22006 0.0
H753 H 0.0441 0.29909 0.25153 0.0
H754 H 0.03865 0.25306 0.29503 0.0
H755 H 0.93738 0.23112 0.32844 0.0
H756 H 0.91056 0.21661 0.28736 0.0
H757 H 0.91239 0.25439 0.29858 0.0
H758 H 0.91624 0.26745 0.20675 0.0
H759 H 0.9126 0.23058 0.19322 0.0
H760 H 0.94299 0.2514 0.16909 0.0
H761 H 0.03492 0.20615 0.27202 0.0
H762 H 0.03102 0.17402 0.20294 0.0
H763 H 0.94181 0.19247 0.18524 0.0
C764 C 0.9717 0.2894 0.23883 0.0
C765 C -0.00078 0.3017 0.23186 0.0
C766 C 0.02279 0.28974 0.25627 0.0
C767 C 0.0197 0.26347 0.28149 0.0
C768 C 0.99334 0.24866 0.27902 0.0
C769 C 0.9689 0.26206 0.26134 0.0
C770 C 0.94576 0.24006 0.24898 0.0
C771 C 0.92535 0.23521 0.29347 0.0
C772 C 0.92853 0.24785 0.20159 0.0
C773 C 0.96436 0.21446 0.24337 0.0
C774 C 0.99072 0.21878 0.26657 0.0
C775 C 0.0142 0.20238 0.25506 0.0
C776 C 0.0121 0.18438 0.21505 0.0
C777 C 0.98625 0.18133 0.18889 0.0
C778 C 0.96171 0.19477 0.20548 0.0
H779 H 0.97082 0.82003 0.48005 0.0
H780 H 0.92952 0.73734 0.47719 0.0
H781 H 0.95634 0.72108 0.5483 0.0
H782 H 0.02016 0.8112 0.45131 0.0
H783 H 0.05026 0.82245 0.48794 0.0
H784 H 0.01688 0.83922 0.4953 0.0
H785 H 0.01921 0.82846 0.58709 0.0
H786 H 0.0517 0.80911 0.5825 0.0
H787 H 0.02079 0.79242 0.61187 0.0
H788 H 0.0003 0.7008 0.55166 0.0
H789 H 0.03089 0.68762 0.4834 0.0
H790 H 0.05803 0.77571 0.46014 0.0
C791 C 0.96751 0.79879 0.49638 0.0
C792 C 0.94776 0.78004 0.47458 0.0
C793 C 0.94325 0.75252 0.49536 0.0
C794 C 0.95907 0.74318 0.53587 0.0
C795 C 0.98372 0.75905 0.54786 0.0
C796 C 0.98711 0.78765 0.53101 0.0
C797 C 0.01852 0.79609 0.52991 0.0
C798 C 0.02688 0.81849 0.48852 0.0
C799 C 0.02803 0.80713 0.58084 0.0
C800 C 0.0301 0.76673 0.52281 0.0
C801 C 0.01157 0.746 0.54432 0.0
C802 C 0.01416 0.71704 0.53401 0.0
C803 C 0.03092 0.70971 0.49407 0.0
C804 C 0.04541 0.73118 0.46565 0.0
C805 C 0.04657 0.75938 0.48197 0.0
H806 H 0.48282 0.68726 0.68002 0.0
H807 H 0.50446 0.69199 0.52374 0.0
H808 H 0.54215 0.72884 0.5406 0.0
H809 H 0.48188 0.75831 0.6921 0.0
H810 H 0.49513 0.75843 0.755 0.0
H811 H 0.47684 0.72726 0.73286 0.0
H812 H 0.52123 0.69736 0.7574 0.0
H813 H 0.53939 0.72929 0.77846 0.0
H814 H 0.55593 0.70805 0.73269 0.0
H815 H 0.57388 0.76566 0.57108 0.0
H816 H 0.58006 0.81437 0.60036 0.0
H817 H 0.53294 0.79067 0.73428 0.0
C818 C 0.49578 0.69604 0.6495 0.0
C819 C 0.49176 0.68672 0.60098 0.0
C820 C 0.5079 0.69893 0.56128 0.0
C821 C 0.52972 0.71909 0.57077 0.0
C822 C 0.5344 0.7268 0.61977 0.0
C823 C 0.51689 0.71664 0.65812 0.0
C824 C 0.52074 0.73369 0.70422 0.0
C825 C 0.49196 0.74513 0.72197 0.0
C826 C 0.53517 0.71602 0.74565 0.0
C827 C 0.5409 0.75699 0.68397 0.0
C828 C 0.55068 0.75094 0.63692 0.0
C829 C 0.5668 0.77055 0.608 0.0
C830 C 0.57027 0.79812 0.62498 0.0
C831 C 0.55661 0.80556 0.6692 0.0
C832 C 0.54374 0.78468 0.7008 0.0
H833 H 0.56125 0.22798 0.98449 0.0
H834 H 0.52522 0.14389 0.95899 0.0
H835 H 0.48234 0.15533 1.00529 0.0
H836 H 0.49748 0.2333 0.10887 0.0
H837 H 0.50116 0.27133 0.09845 0.0
H838 H 0.5326 0.25019 0.10546 0.0
H839 H 0.55156 0.27136 1.02285 0.0
H840 H 0.52059 0.2925 1.01661 0.0
H841 H 0.53006 0.26948 0.96714 0.0
H842 H 0.44525 0.18352 0.97705 0.0
H843 H 0.42415 0.21817 0.91998 0.0
H844 H 0.47482 0.28635 0.9823 0.0
C845 C 0.5448 0.2117 0.99172 0.0
C846 C 0.54542 0.18585 0.9668 0.0
C847 C 0.52439 0.16435 0.97645 0.0
C848 C 0.50033 0.17046 1.00392 0.0
C849 C 0.49791 0.19803 1.02138 0.0
C850 C 0.52126 0.21727 1.02165 0.0
C851 C 0.51144 0.24684 0.03313 0.0
C852 C 0.51059 0.25058 0.08978 0.0
C853 C 0.52944 0.27148 1.00811 0.0
C854 C 0.48146 0.24381 1.01319 0.0
C855 C 0.473 0.21499 1.01175 0.0
C856 C 0.4509 0.20593 0.98052 0.0
C857 C 0.43926 0.22561 0.94739 0.0
C858 C 0.448 0.25443 0.94791 0.0
C859 C 0.46824 0.26399 0.98225 0.0
H860 H 0.98502 0.79545 0.84678 0.0
H861 H 0.96677 0.79606 1.00443 0.0
H862 H 0.01295 0.77541 1.02267 0.0
H863 H 0.00268 0.72652 0.85887 0.0
H864 H 0.02905 0.72728 0.80984 0.0
H865 H 0.00123 0.7526 0.80837 0.0
H866 H 0.04067 0.79184 0.80054 0.0
H867 H 0.06912 0.76704 0.80832 0.0
H868 H 0.06666 0.79638 0.8496 0.0
H869 H 0.05948 0.75748 1.02701 0.0
H870 H 0.07453 0.70813 1.02586 0.0
H871 H 0.0596 0.70681 0.86757 0.0
C872 C 0.9913 0.79162 0.88506 0.0
C873 C 0.97361 0.79898 0.92432 0.0
C874 C 0.98074 0.79153 0.97379 0.0
C875 C 0.00743 0.78086 0.9846 0.0
C876 C 0.0262 0.77681 0.9455 0.0
C877 C 0.01728 0.77929 0.89656 0.0
C878 C 0.03499 0.76154 0.86334 0.0
C879 C 0.01586 0.74072 0.83349 0.0
C880 C 0.05398 0.78039 0.82843 0.0
C881 C 0.05301 0.7467 0.90248 0.0
C882 C 0.05068 0.75936 0.94814 0.0
C883 C 0.06148 0.74722 0.99183 0.0
C884 C 0.0698 0.71914 0.99097 0.0
C885 C 0.06661 0.7042 0.94685 0.0
C886 C 0.06143 0.71854 0.90145 0.0
H887 H 0.52821 0.75369 0.06019 0.0
H888 H 0.57682 0.69348 0.14793 0.0
H889 H 0.54397 0.6551 0.1275 0.0
H890 H 0.47062 0.74546 0.08838 0.0
H891 H 0.44836 0.74127 0.03414 0.0
H892 H 0.48289 0.75798 1.02766 0.0
H893 H 0.49559 0.72142 0.96235 0.0
H894 H 0.46066 0.7044 0.97078 0.0
H895 H 0.49225 0.68366 0.97719 0.0
H896 H 0.4984 0.63903 0.152 0.0
H897 H 0.45324 0.64685 0.19528 0.0
H898 H 0.42727 0.70277 0.07413 0.0
C899 C 0.53223 0.73201 0.07264 0.0
C900 C 0.55448 0.72671 0.10633 0.0
C901 C 0.55979 0.69833 0.12229 0.0
C902 C 0.54131 0.67599 0.11014 0.0
C903 C 0.51723 0.68216 0.08216 0.0
C904 C 0.51372 0.70908 0.05987 0.0
C905 C 0.4837 0.71125 0.03965 0.0
C906 C 0.47066 0.74069 0.04824 0.0
C907 C 0.48312 0.70478 0.98416 0.0
C908 C 0.46929 0.68673 0.06933 0.0
C909 C 0.48926 0.6688 0.09098 0.0
C910 C 0.48247 0.65193 0.13372 0.0
C911 C 0.45688 0.65654 0.15869 0.0
C912 C 0.43757 0.67593 0.13823 0.0
C913 C 0.44223 0.68796 0.09025 0.0
H914 H 0.5664 0.20177 0.34469 0.0
H915 H 0.47781 0.17575 0.33606 0.0
H916 H 0.47244 0.20256 0.2586 0.0
H917 H 0.56643 0.25385 0.35939 0.0
H918 H 0.5854 0.27919 0.31874 0.0
H919 H 0.59615 0.24288 0.32291 0.0
H920 H 0.59174 0.23726 0.23062 0.0
H921 H 0.58283 0.27431 0.2247 0.0
H922 H 0.56007 0.24741 0.19753 0.0
H923 H 0.46445 0.24966 0.22848 0.0
H924 H 0.44887 0.27879 0.29613 0.0
H925 H 0.53622 0.29153 0.34199 0.0
C926 C 0.54623 0.20164 0.32487 0.0
C927 C 0.52233 0.18719 0.3461 0.0
C928 C 0.49626 0.18682 0.32043 0.0
C929 C 0.49341 0.20196 0.27566 0.0
C930 C 0.51528 0.22158 0.26122 0.0
C931 C 0.54223 0.22049 0.28405 0.0
C932 C 0.55689 0.24951 0.27936 0.0
C933 C 0.5773 0.25678 0.32283 0.0
C934 C 0.57378 0.25227 0.23012 0.0
C935 C 0.53013 0.26699 0.27603 0.0
C936 C 0.50888 0.25159 0.25068 0.0
C937 C 0.48048 0.26029 0.25097 0.0
C938 C 0.47157 0.27621 0.29051 0.0
C939 C 0.4917 0.2858 0.3254 0.0
C940 C 0.52106 0.28371 0.31528 0.0
H941 H 0.04498 0.27773 0.55457 0.0
H942 H 0.06562 0.21367 0.66587 0.0
H943 H 0.03451 0.17855 0.62475 0.0
H944 H 0.98696 0.28053 0.563 0.0
H945 H 0.96927 0.27961 0.50349 0.0
H946 H 0.00608 0.29064 0.50653 0.0
H947 H 0.01971 0.25239 0.44581 0.0
H948 H 0.98224 0.24235 0.44084 0.0
H949 H 0.00795 0.21577 0.45646 0.0
H950 H 0.9892 0.15958 0.60349 0.0
H951 H 0.9423 0.16936 0.63782 0.0
H952 H 0.94081 0.24903 0.55353 0.0
C953 C 0.04316 0.25582 0.56858 0.0
C954 C 0.05632 0.24814 0.61348 0.0
C955 C 0.05462 0.21985 0.632 0.0
C956 C 0.0376 0.19966 0.60776 0.0
C957 C 0.02121 0.20854 0.56677 0.0
C958 C 0.02441 0.23623 0.54647 0.0
C959 C -0.00192 0.24426 0.51728 0.0
C960 C 0.98963 0.27562 0.52322 0.0
C961 C 0.00227 0.23831 0.46189 0.0
C962 C 0.97712 0.22247 0.5404 0.0
C963 C 0.9917 0.19894 0.55927 0.0
C964 C 0.97796 0.17804 0.5896 0.0
C965 C 0.95155 0.18403 0.60987 0.0
C966 C 0.93941 0.21065 0.5995 0.0
C967 C 0.95078 0.22889 0.56178 0.0
H968 H -0.00183 0.02796 0.11501 0.0
H969 H 0.05225 0.08016 1.01552 0.0
H970 H 0.03854 0.04919 0.94585 0.0
H971 H 0.01706 0.9613 0.06566 0.0
H972 H 0.98188 0.94512 0.07492 0.0
H973 H 0.99441 0.97293 0.11474 0.0
H974 H 0.94979 0.00287 0.09194 0.0
H975 H 0.9375 0.97435 0.0537 0.0
H976 H 0.94161 0.01009 1.0274 0.0
H977 H 0.01905 0.01227 0.888 0.0
H978 H 0.00249 0.96779 0.84893 0.0
H979 H 0.96396 0.93794 0.98836 0.0
C980 C 0.00715 0.03267 0.07849 0.0
C981 C 0.02621 0.05611 0.07007 0.0
C982 C 0.03781 0.06191 1.02228 0.0
C983 C 0.02987 0.04471 0.98259 0.0
C984 C 0.01073 0.02172 0.99192 0.0
C985 C 0.0001 0.01531 0.03895 0.0
C986 C 0.98189 0.98811 0.04023 0.0
C987 C 0.99458 0.96554 0.07598 0.0
C988 C 0.95084 -0.00574 0.05406 0.0
C989 C 0.98432 0.97978 0.98666 0.0
C990 C 0.00042 -0.00014 0.95912 0.0
C991 C 0.00642 -0.0036 0.90912 0.0
C992 C -0.00317 0.97112 0.88723 0.0
C993 C 0.98199 0.94947 0.91571 0.0
C994 C 0.97496 0.95428 0.9656 0.0
H995 H 0.19957 0.78454 0.32482 0.0
H996 H 0.17711 0.70015 0.38675 0.0
H997 H 0.2181 0.68039 0.34395 0.0
H998 H 0.22175 0.76467 0.20828 0.0
H999 H 0.25216 0.7892 0.20257 0.0
H1000 H 0.22229 0.79766 0.24095 0.0
H1001 H 0.25628 0.80363 0.31618 0.0
H1002 H 0.28634 0.7953 0.27788 0.0
H1003 H 0.27919 0.7749 0.33459 0.0
H1004 H 0.2545 0.6684 0.28379 0.0
H1005 H 0.29071 0.66538 0.21822 0.0
H1006 H 0.29663 0.75771 0.20362 0.0
C1007 C 0.20368 0.76202 0.32992 0.0
C1008 C 0.18474 0.74365 0.35781 0.0
C1009 C 0.19086 0.7144 0.36428 0.0
C1010 C 0.21425 0.70301 0.34053 0.0
C1011 C 0.23196 0.72139 0.31195 0.0
C1012 C 0.22758 0.75037 0.30747 0.0
C1013 C 0.24989 0.76499 0.27347 0.0
C1014 C 0.23566 0.78001 0.22867 0.0
C1015 C 0.26906 0.78595 0.30226 0.0
C1016 C 0.26652 0.73943 0.25785 0.0
C1017 C 0.25552 0.71454 0.28053 0.0
C1018 C 0.26421 0.68774 0.26738 0.0
C1019 C 0.28479 0.68624 0.2302 0.0
C1020 C 0.2973 0.71129 0.20789 0.0
C1021 C 0.28828 0.73833 0.22203 0.0
H1022 H 0.5096 0.05917 0.51266 0.0
H1023 H 0.42357 0.04956 0.45373 0.0
H1024 H 0.41715 0.00373 0.49984 0.0
H1025 H 0.5273 0.98351 0.51279 0.0
H1026 H 0.54649 0.98476 0.57074 0.0
H1027 H 0.54521 0.01619 0.53054 0.0
H1028 H 0.52366 0.04499 0.60295 0.0
H1029 H 0.5264 0.01343 0.64243 0.0
H1030 H 0.4925 0.03042 0.635 0.0
H1031 H 0.41862 0.96069 0.55407 0.0
H1032 H 0.42846 0.92109 0.61308 0.0
H1033 H 0.51355 0.95749 0.63923 0.0
C1034 C 0.48978 0.04712 0.50862 0.0
C1035 C 0.46728 0.0578 0.47909 0.0
C1036 C 0.44117 0.04177 0.47601 0.0
C1037 C 0.43729 0.01567 0.50201 0.0
C1038 C 0.45967 0.00591 0.53131 0.0
C1039 C 0.48543 0.02099 0.53491 0.0
C1040 C 0.50539 0.006 0.57109 0.0
C1041 C 0.53272 -0.00291 0.54474 0.0
C1042 C 0.51242 0.02482 0.61548 0.0
C1043 C 0.48675 0.9802 0.58691 0.0
C1044 C 0.46046 0.98076 0.56342 0.0
C1045 C 0.43918 0.95985 0.57253 0.0
C1046 C 0.44494 0.93752 0.60629 0.0
C1047 C 0.47178 0.93621 0.63052 0.0
C1048 C 0.49291 0.95794 0.62094 0.0
H1049 H 0.27349 0.28682 0.89124 0.0
H1050 H 0.34268 0.30984 0.79001 0.0
H1051 H 0.30805 0.32443 0.72599 0.0
H1052 H 0.23303 0.25198 0.80794 0.0
H1053 H 0.19838 0.26243 0.82897 0.0
H1054 H 0.22798 0.2617 0.87146 0.0
H1055 H 0.22048 0.31474 0.89101 0.0
H1056 H 0.19069 0.3156 0.84842 0.0
H1057 H 0.22008 0.34122 0.841 0.0
H1058 H 0.26766 0.32533 0.66783 0.0
H1059 H 0.22376 0.31409 0.62027 0.0
H1060 H 0.17943 0.28981 0.75718 0.0
C1061 C 0.28125 0.29594 0.85617 0.0
C1062 C 0.3109 0.29816 0.84583 0.0
C1063 C 0.32024 0.30911 0.79902 0.0
C1064 C 0.30064 0.31718 0.76237 0.0
C1065 C 0.27156 0.31379 0.77285 0.0
C1066 C 0.26176 0.30363 0.81876 0.0
C1067 C 0.22959 0.29806 0.81793 0.0
C1068 C 0.22182 0.26669 0.83239 0.0
C1069 C 0.21432 0.31864 0.85159 0.0
C1070 C 0.22331 0.30475 0.76366 0.0
C1071 C 0.24772 0.31446 0.73863 0.0
C1072 C 0.24818 0.31861 0.68716 0.0
C1073 C 0.22323 0.31207 0.66042 0.0
C1074 C 0.19828 0.30147 0.6852 0.0
C1075 C 0.19807 0.29863 0.73753 0.0
H1076 H 0.69808 0.2524 0.83433 0.0
H1077 H 0.69081 0.16716 0.90183 0.0
H1078 H 0.73299 0.1531 0.85434 0.0
H1079 H 0.71602 0.23231 0.71563 0.0
H1080 H 0.74138 0.26137 0.70266 0.0
H1081 H 0.71263 0.26581 0.74581 0.0
H1082 H 0.7493 0.28001 0.81367 0.0
H1083 H 0.77823 0.27569 0.7706 0.0
H1084 H 0.77786 0.25638 0.82952 0.0
H1085 H 0.7717 0.14672 0.79361 0.0
H1086 H 0.8059 0.14846 0.72398 0.0
H1087 H 0.79035 0.23844 0.69759 0.0
C1088 C 0.70573 0.23094 0.8397 0.0
C1089 C 0.69122 0.21075 0.87141 0.0
C1090 C 0.70163 0.18285 0.87745 0.0
C1091 C 0.72561 0.17473 0.85086 0.0
C1092 C 0.73915 0.19496 0.81914 0.0
C1093 C 0.72983 0.22258 0.81374 0.0
C1094 C 0.74732 0.23962 0.77501 0.0
C1095 C 0.72819 0.2504 0.73225 0.0
C1096 C 0.76418 0.26439 0.79863 0.0
C1097 C 0.76719 0.21692 0.75814 0.0
C1098 C 0.7622 0.19141 0.7845 0.0
C1099 C 0.77614 0.16665 0.77327 0.0
C1100 C 0.79537 0.16782 0.73353 0.0
C1101 C 0.80067 0.19361 0.70585 0.0
C1102 C 0.78691 0.21863 0.71889 0.0
H1103 H 0.82642 0.75664 0.28424 0.0
H1104 H 0.79069 0.7901 0.41775 0.0
H1105 H 0.74663 0.8026 0.37154 0.0
H1106 H 0.79237 0.80442 0.1912 0.0
H1107 H 0.78511 0.77595 0.14914 0.0
H1108 H 0.81598 0.77481 0.18931 0.0
H1109 H 0.79927 0.72549 0.22596 0.0
H1110 H 0.76875 0.72579 0.1854 0.0
H1111 H 0.76369 0.721 0.25148 0.0
H1112 H 0.70464 0.80604 0.31357 0.0
H1113 H 0.66665 0.79438 0.25328 0.0
H1114 H 0.72863 0.75599 0.15938 0.0
C1115 C 0.80961 0.76744 0.30312 0.0
C1116 C 0.81188 0.7731 0.35396 0.0
C1117 C 0.78921 0.78605 0.37846 0.0
C1118 C 0.7643 0.79335 0.35246 0.0
C1119 C 0.76236 0.78703 0.3023 0.0
C1120 C 0.7843 0.77396 0.27812 0.0
C1121 C 0.77523 0.765 0.22692 0.0
C1122 C 0.79325 0.781 0.18671 0.0
C1123 C 0.77681 0.7324 0.22221 0.0
C1124 C 0.74459 0.77457 0.22628 0.0
C1125 C 0.73775 0.78788 0.26953 0.0
C1126 C 0.70994 0.79627 0.27905 0.0
C1127 C 0.68842 0.78992 0.24433 0.0
C1128 C 0.69479 0.77509 0.20118 0.0
C1129 C 0.72336 0.76805 0.19158 0.0
H1130 H 0.54924 0.52738 0.59727 0.0
H1131 H 0.45799 0.54173 0.59399 0.0
H1132 H 0.44986 0.49746 0.54827 0.0
H1133 H 0.55636 0.4969 0.48009 0.0
H1134 H 0.58083 0.46991 0.50039 0.0
H1135 H 0.57968 0.50303 0.53226 0.0
H1136 H 0.56995 0.47519 0.61554 0.0
H1137 H 0.57125 0.44195 0.58397 0.0
H1138 H 0.54019 0.4498 0.62011 0.0
H1139 H 0.45275 0.45545 0.49377 0.0
H1140 H 0.46515 0.4132 0.44715 0.0
H1141 H 0.55267 0.42079 0.49944 0.0
C1142 C 0.52759 0.52107 0.58705 0.0
C1143 C 0.50432 0.5384 0.59721 0.0
C1144 C 0.47619 0.52923 0.58458 0.0
C1145 C 0.47133 0.50404 0.55905 0.0
C1146 C 0.49478 0.48777 0.54826 0.0
C1147 C 0.52224 0.49542 0.56307 0.0
C1148 C 0.54343 0.47338 0.54858 0.0
C1149 C 0.56643 0.4866 0.51323 0.0
C1150 C 0.557 0.45924 0.59481 0.0
C1151 C 0.52367 0.45262 0.52222 0.0
C1152 C 0.49579 0.46157 0.52184 0.0
C1153 C 0.47424 0.4475 0.49555 0.0
C1154 C 0.48132 0.42325 0.46975 0.0
C1155 C 0.50932 0.41274 0.47208 0.0
C1156 C 0.53079 0.42781 0.49836 0.0
H1157 H 0.95418 0.56446 0.99556 0.0
H1158 H 0.04153 0.55165 0.94893 0.0
H1159 H 0.04375 0.50914 1.00506 0.0
H1160 H 0.9571 0.53894 0.12025 0.0
H1161 H 0.92357 0.51884 0.1197 0.0
H1162 H 0.92889 0.54965 0.07862 0.0
H1163 H 0.91667 0.51904 1.00267 0.0
H1164 H 0.91078 0.48825 0.04358 0.0
H1165 H 0.93598 0.48696 0.99314 0.0
H1166 H 0.039 0.47438 0.07733 0.0
H1167 H 0.02306 0.43662 0.13752 0.0
H1168 H 0.93512 0.46217 0.11953 0.0
C1169 C 0.9737 0.55259 0.99714 0.0
C1170 C -0.00157 0.56233 0.97062 0.0
C1171 C 0.02303 0.54551 0.97143 0.0
C1172 C 0.02443 0.52128 1.00292 0.0
C1173 C 0.00031 0.51315 0.0308 0.0
C1174 C 0.97489 0.52725 1.02616 0.0
C1175 C 0.95125 0.51176 0.05606 0.0
C1176 C 0.93952 0.53095 0.09603 0.0
C1177 C 0.92725 0.50085 1.02181 0.0
C1178 C 0.96769 0.48724 0.0792 0.0
C1179 C -0.00382 0.48928 0.0654 0.0
C1180 C 0.0165 0.47155 0.08639 0.0
C1181 C 0.00719 0.45007 0.12028 0.0
C1182 C 0.97767 0.44516 0.1302 0.0
C1183 C 0.95769 0.46462 0.11072 0.0
H1184 H 0.05509 0.13747 0.32847 0.0
H1185 H 0.12982 0.15725 0.23702 0.0
H1186 H 0.15622 0.17391 0.31117 0.0
H1187 H 0.06213 0.19981 0.39958 0.0
H1188 H 0.04894 0.1825 0.45611 0.0
H1189 H 0.03742 0.16959 0.39697 0.0
H1190 H 0.0547 0.11918 0.42291 0.0
H1191 H 0.06651 0.1323 0.48186 0.0
H1192 H 0.09129 0.11492 0.44242 0.0
H1193 H 0.17366 0.18983 0.39474 0.0
H1194 H 0.17918 0.20933 0.47843 0.0
H1195 H 0.09195 0.18159 0.51412 0.0
C1196 C 0.07722 0.14479 0.32434 0.0
C1197 C 0.09079 0.14556 0.27748 0.0
C1198 C 0.11931 0.15623 0.27287 0.0
C1199 C 0.13442 0.16559 0.31475 0.0
C1200 C 0.12044 0.16455 0.3606 0.0
C1201 C 0.09231 0.15483 0.36544 0.0
C1202 C 0.08126 0.15852 0.41764 0.0
C1203 C 0.05595 0.17882 0.41752 0.0
C1204 C 0.07296 0.1295 0.44268 0.0
C1205 C 0.10758 0.17186 0.44155 0.0
C1206 C 0.13008 0.17477 0.40822 0.0
C1207 C 0.15626 0.18751 0.4212 0.0
C1208 C 0.15926 0.19839 0.4689 0.0
C1209 C 0.1361 0.19673 0.50283 0.0
C1210 C 0.11018 0.18271 0.48924 0.0
H1211 H 0.12301 0.79793 0.59078 0.0
H1212 H 0.08714 0.86367 0.4949 0.0
H1213 H 0.07246 0.88956 0.56895 0.0
H1214 H 0.0696 0.79222 0.67266 0.0
H1215 H 0.09086 0.78665 0.72779 0.0
H1216 H 0.10482 0.77757 0.66852 0.0
H1217 H 0.14954 0.80983 0.68219 0.0
H1218 H 0.13577 0.81915 0.74182 0.0
H1219 H 0.14534 0.84681 0.69626 0.0
H1220 H 0.05569 0.90427 0.65267 0.0
H1221 H 0.03611 0.90554 0.73744 0.0
H1222 H 0.08051 0.82851 0.7785 0.0
C1223 C 0.11308 0.81837 0.58534 0.0
C1224 C 0.10623 0.82889 0.53718 0.0
C1225 C 0.0927 0.85536 0.5315 0.0
C1226 C 0.08439 0.87022 0.57338 0.0
C1227 C 0.09027 0.85854 0.62053 0.0
C1228 C 0.10466 0.83336 0.62669 0.0
C1229 C 0.10511 0.82336 0.68079 0.0
C1230 C 0.09173 0.79317 0.68783 0.0
C1231 C 0.13576 0.82489 0.70148 0.0
C1232 C 0.08678 0.84548 0.70366 0.0
C1233 C 0.07944 0.86625 0.66863 0.0
C1234 C 0.06167 0.88834 0.68042 0.0
C1235 C 0.05068 0.88887 0.72875 0.0
C1236 C 0.05673 0.86699 0.76444 0.0
C1237 C 0.07542 0.84533 0.75191 0.0
H1238 H 0.38571 0.74649 0.9983 0.0
H1239 H 0.40485 0.81011 0.10838 0.0
H1240 H 0.42455 0.84267 0.04096 0.0
H1241 H 0.45033 0.75807 0.93214 0.0
H1242 H 0.43372 0.7497 0.87376 0.0
H1243 H 0.41952 0.73406 0.93086 0.0
H1244 H 0.36976 0.75387 0.90795 0.0
H1245 H 0.38424 0.77031 0.85175 0.0
H1246 H 0.36649 0.79172 0.89605 0.0
H1247 H 0.44355 0.86713 0.95911 0.0
H1248 H 0.46163 0.88004 0.87481 0.0
H1249 H 0.43178 0.79768 0.82313 0.0
C1250 C 0.39351 0.76739 1.00904 0.0
C1251 C 0.39334 0.77577 0.05913 0.0
C1252 C 0.40443 0.80326 0.0704 0.0
C1253 C 0.41569 0.82181 0.03231 0.0
C1254 C 0.41586 0.81233 0.9835 0.0
C1255 C 0.40515 0.7856 0.97225 0.0
C1256 C 0.40955 0.77898 0.91833 0.0
C1257 C 0.42948 0.75372 0.91346 0.0
C1258 C 0.38079 0.77341 0.89199 0.0
C1259 C 0.42395 0.80649 0.89993 0.0
C1260 C 0.42743 0.82559 0.93784 0.0
C1261 C 0.4408 0.85229 0.92941 0.0
C1262 C 0.45095 0.85942 0.88137 0.0
C1263 C 0.44795 0.83984 0.84248 0.0
C1264 C 0.43418 0.81312 0.85202 0.0
H1265 H 0.44402 0.13974 0.22569 0.0
H1266 H 0.37681 0.16743 0.32206 0.0
H1267 H 0.34835 0.18197 0.24811 0.0
H1268 H 0.43902 0.19912 0.13902 0.0
H1269 H 0.4483 0.17791 0.08714 0.0
H1270 H 0.46099 0.16849 0.14824 0.0
H1271 H 0.43813 0.11761 0.13713 0.0
H1272 H 0.42438 0.12821 0.07706 0.0
H1273 H 0.40031 0.1138 0.12445 0.0
H1274 H 0.32832 0.19501 0.16342 0.0
H1275 H 0.32066 0.21096 0.07626 0.0
H1276 H 0.40204 0.17631 0.03561 0.0
C1277 C 0.42304 0.14835 0.23114 0.0
C1278 C 0.41218 0.15193 0.27935 0.0
C1279 C 0.38522 0.16425 0.28528 0.0
C1280 C 0.36894 0.17242 0.24354 0.0
C1281 C 0.38023 0.16851 0.19634 0.0
C1282 C 0.40689 0.15718 0.19003 0.0
C1283 C 0.4155 0.15786 0.1358 0.0
C1284 C 0.44254 0.177 0.12708 0.0
C1285 C 0.41982 0.12755 0.11755 0.0
C1286 C 0.38935 0.17104 0.11227 0.0
C1287 C 0.36915 0.17681 0.14779 0.0
C1288 C 0.34388 0.19038 0.1353 0.0
C1289 C 0.33962 0.1992 0.08562 0.0
C1290 C 0.36059 0.19459 0.04905 0.0
C1291 C 0.38537 0.17961 0.06248 0.0
H1292 H 0.92288 0.83473 0.51988 0.0
H1293 H 0.83537 0.80548 0.54627 0.0
H1294 H 0.8383 0.82311 0.63206 0.0
H1295 H 0.94883 0.81135 0.63385 0.0
H1296 H 0.9739 0.84052 0.64496 0.0
H1297 H 0.96476 0.83177 0.58252 0.0
H1298 H 0.94829 0.88172 0.5601 0.0
H1299 H 0.95894 0.89259 0.62112 0.0
H1300 H 0.923 0.89843 0.5995 0.0
H1301 H 0.85246 0.8418 0.71906 0.0
H1302 H 0.87684 0.85613 0.79671 0.0
H1303 H 0.95621 0.86983 0.71505 0.0
C1304 C 0.90408 0.83284 0.54322 0.0
C1305 C 0.87848 0.81959 0.52539 0.0
C1306 C 0.8548 0.81647 0.55816 0.0
C1307 C 0.8564 0.82627 0.60726 0.0
C1308 C 0.88208 0.83883 0.62398 0.0
C1309 C 0.90555 0.84207 0.59274 0.0
C1310 C 0.93141 0.85393 0.62083 0.0
C1311 C 0.95616 0.83309 0.62062 0.0
C1312 C 0.94097 0.88342 0.59909 0.0
C1313 C 0.91915 0.85632 0.67282 0.0
C1314 C 0.89051 0.84807 0.67388 0.0
C1315 C 0.87487 0.84837 0.71823 0.0
C1316 C 0.88889 0.85675 0.76236 0.0
C1317 C 0.91852 0.86433 0.76257 0.0
C1318 C 0.93354 0.86431 0.71663 0.0
H1319 H 0.93363 0.16145 0.47923 0.0
H1320 H 0.84779 0.12661 0.45591 0.0
H1321 H 0.86329 0.10753 0.37573 0.0
H1322 H 0.94743 0.18342 0.35302 0.0
H1323 H 0.98471 0.17482 0.35578 0.0
H1324 H 0.96643 0.18456 0.41122 0.0
H1325 H 0.98183 0.13705 0.45376 0.0
H1326 H -0.0008 0.12685 0.39767 0.0
H1327 H 0.972 0.10361 0.42607 0.0
H1328 H 0.88833 0.09419 0.29508 0.0
H1329 H 0.92001 0.0883 0.22266 0.0
H1330 H 0.98934 0.13153 0.30051 0.0
C1331 C 0.91812 0.14956 0.4575 0.0
C1332 C 0.88946 0.14538 0.47399 0.0
C1333 C 0.86984 0.12994 0.44418 0.0
C1334 C 0.8785 0.11903 0.39856 0.0
C1335 C 0.90691 0.12365 0.38325 0.0
C1336 C 0.92642 0.13854 0.41202 0.0
C1337 C 0.95547 0.14137 0.3868 0.0
C1338 C 0.96402 0.17293 0.3761 0.0
C1339 C 0.97847 0.12631 0.41795 0.0
C1340 C 0.94926 0.12594 0.33914 0.0
C1341 C 0.92119 0.11581 0.33764 0.0
C1342 C 0.91041 0.10184 0.2962 0.0
C1343 C 0.92861 0.09851 0.25516 0.0
C1344 C 0.95738 0.10907 0.25566 0.0
C1345 C 0.96767 0.12269 0.29876 0.0
H1346 H 0.5639 0.17288 0.05967 0.0
H1347 H 0.6475 0.13616 0.06994 0.0
H1348 H 0.63496 0.1164 0.15454 0.0
H1349 H 0.55402 0.19306 0.18149 0.0
H1350 H 0.51648 0.18258 0.18219 0.0
H1351 H 0.53377 0.19259 0.12456 0.0
H1352 H 0.51572 0.14371 0.09138 0.0
H1353 H 0.50026 0.13347 0.15068 0.0
H1354 H 0.52607 0.11117 0.12275 0.0
H1355 H 0.61263 0.10421 0.24411 0.0
H1356 H 0.5834 0.09831 0.32093 0.0
H1357 H 0.51342 0.1403 0.24582 0.0
C1358 C 0.5795 0.16024 0.07884 0.0
C1359 C 0.60673 0.15611 0.05731 0.0
C1360 C 0.62641 0.1395 0.08491 0.0
C1361 C 0.61942 0.1283 0.13327 0.0
C1362 C 0.59229 0.13315 0.15334 0.0
C1363 C 0.57247 0.14823 0.12598 0.0
C1364 C 0.5445 0.15021 0.15433 0.0
C1365 C 0.53679 0.18149 0.16111 0.0
C1366 C 0.5202 0.13366 0.12823 0.0
C1367 C 0.55194 0.13542 0.20338 0.0
C1368 C 0.57947 0.12539 0.20234 0.0
C1369 C 0.59096 0.11171 0.24453 0.0
C1370 C 0.57409 0.10836 0.28825 0.0
C1371 C 0.54572 0.11836 0.29 0.0
C1372 C 0.53473 0.13187 0.2463 0.0
H1373 H 0.57109 0.83058 0.78534 0.0
H1374 H 0.57131 0.92048 0.81741 0.0
H1375 H 0.59351 0.90954 0.89963 0.0
H1376 H 0.54869 0.80593 0.90038 0.0
H1377 H 0.56952 0.77418 0.90252 0.0
H1378 H 0.55895 0.78963 0.84364 0.0
H1379 H 0.6118 0.79348 0.81511 0.0
H1380 H 0.6226 0.7775 0.87362 0.0
H1381 H 0.63803 0.81158 0.85298 0.0
H1382 H 0.60958 0.88679 0.98395 0.0
H1383 H 0.61986 0.85611 0.05784 0.0
H1384 H 0.60782 0.78086 0.96967 0.0
C1385 C 0.57695 0.84819 0.80878 0.0
C1386 C 0.57017 0.87658 0.79423 0.0
C1387 C 0.57717 0.8988 0.82683 0.0
C1388 C 0.58947 0.89261 0.87392 0.0
C1389 C 0.59467 0.86411 0.88786 0.0
C1390 C 0.58894 0.84233 0.85564 0.0
C1391 C 0.59392 0.81325 0.88026 0.0
C1392 C 0.56612 0.79467 0.88179 0.0
C1393 C 0.61803 0.79806 0.85393 0.0
C1394 C 0.60295 0.82179 0.93194 0.0
C1395 C 0.60341 0.8512 0.9357 0.0
C1396 C 0.60964 0.86382 0.98087 0.0
C1397 C 0.61543 0.84612 1.02287 0.0
C1398 C 0.61498 0.81589 1.02 0.0
C1399 C 0.60884 0.80381 0.97343 0.0
H1400 H 0.54132 0.6288 0.82589 0.0
H1401 H 0.60102 0.66841 0.71958 0.0
H1402 H 0.63171 0.68498 0.78873 0.0
H1403 H 0.54635 0.68568 0.91208 0.0
H1404 H 0.54263 0.66231 0.96626 0.0
H1405 H 0.52655 0.65219 0.90843 0.0
H1406 H 0.55385 0.60484 0.91278 0.0
H1407 H 0.57015 0.61498 0.97047 0.0
H1408 H 0.5923 0.60599 0.91887 0.0
H1409 H 0.6556 0.69753 0.87007 0.0
H1410 H 0.66812 0.70956 0.95627 0.0
H1411 H 0.59162 0.66351 1.00941 0.0
C1412 C 0.56105 0.64069 0.81726 0.0
C1413 C 0.56912 0.64703 0.76749 0.0
C1414 C 0.59465 0.6632 0.75751 0.0
C1415 C 0.6122 0.6726 0.79653 0.0
C1416 C 0.60371 0.66592 0.84531 0.0
C1417 C 0.57849 0.65069 0.85577 0.0
C1418 C 0.57318 0.64805 0.91129 0.0
C1419 C 0.54555 0.66294 0.92531 0.0
C1420 C 0.57233 0.61659 0.9294 0.0
C1421 C 0.59949 0.66389 0.93055 0.0
C1422 C 0.61697 0.67383 0.89194 0.0
C1423 C 0.64212 0.68974 0.90054 0.0
C1424 C 0.64918 0.69631 0.94967 0.0
C1425 C 0.63106 0.68719 0.98959 0.0
C1426 C 0.60617 0.67035 0.97978 0.0
H1427 H 0.5576 0.3536 0.23387 0.0
H1428 H 0.62916 0.32306 0.32072 0.0
H1429 H 0.65277 0.3086 0.24347 0.0
H1430 H 0.55227 0.29647 0.1591 0.0
H1431 H 0.54208 0.31602 0.1037 0.0
H1432 H 0.53425 0.3297 0.16353 0.0
H1433 H 0.56138 0.37709 0.13864 0.0
H1434 H 0.56942 0.36321 0.07877 0.0
H1435 H 0.59799 0.37636 0.11769 0.0
H1436 H 0.66541 0.29251 0.15989 0.0
H1437 H 0.66476 0.27125 0.07775 0.0
H1438 H 0.58312 0.30943 0.04533 0.0
C1439 C 0.57882 0.34497 0.23633 0.0
C1440 C 0.59215 0.34013 0.28277 0.0
C1441 C 0.61912 0.32747 0.28518 0.0
C1442 C 0.6326 0.31932 0.24156 0.0
C1443 C 0.61856 0.3238 0.19628 0.0
C1444 C 0.59213 0.33616 0.19341 0.0
C1445 C 0.57951 0.33456 0.14165 0.0
C1446 C 0.55034 0.31821 0.1421 0.0
C1447 C 0.57694 0.3646 0.11778 0.0
C1448 C 0.60239 0.31811 0.11632 0.0
C1449 C 0.62507 0.31293 0.14816 0.0
C1450 C 0.64799 0.29672 0.13447 0.0
C1451 C 0.64737 0.28473 0.08767 0.0
C1452 C 0.62376 0.28856 0.05536 0.0
C1453 C 0.60141 0.30619 0.06927 0.0
H1454 H 0.92748 0.36079 0.37904 0.0
H1455 H 0.86724 0.32379 0.27505 0.0
H1456 H 0.83948 0.30162 0.34503 0.0
H1457 H 0.93131 0.30106 0.45445 0.0
H1458 H 0.93468 0.31904 0.51251 0.0
H1459 H 0.94632 0.33694 0.45577 0.0
H1460 H 0.91301 0.37863 0.47264 0.0
H1461 H 0.90125 0.36086 0.52973 0.0
H1462 H 0.87538 0.37133 0.48349 0.0
H1463 H 0.82226 0.27834 0.42391 0.0
H1464 H 0.81923 0.25206 0.50457 0.0
H1465 H 0.89114 0.30253 0.55895 0.0
C1466 C 0.90788 0.34882 0.37121 0.0
C1467 C 0.89913 0.3444 0.32172 0.0
C1468 C 0.87405 0.32772 0.31271 0.0
C1469 C 0.85809 0.31519 0.35227 0.0
C1470 C 0.86752 0.31948 0.4007 0.0
C1471 C 0.8919 0.33584 0.41036 0.0
C1472 C 0.89965 0.3338 0.46509 0.0
C1473 C 0.92977 0.322 0.47237 0.0
C1474 C 0.89716 0.36289 0.48915 0.0
C1475 C 0.87659 0.31273 0.48438 0.0
C1476 C 0.85784 0.3054 0.44673 0.0
C1477 C 0.83638 0.28437 0.45391 0.0
C1478 C 0.83473 0.26963 0.49993 0.0
C1479 C 0.85444 0.27582 0.53831 0.0
C1480 C 0.87506 0.29826 0.53095 0.0
H1481 H 0.94843 0.69949 0.78041 0.0
H1482 H 0.94973 0.60727 0.77116 0.0
H1483 H 0.92767 0.61026 0.68829 0.0
H1484 H 0.87973 0.70843 0.71671 0.0
H1485 H 0.89151 0.7411 0.68476 0.0
H1486 H 0.90634 0.73158 0.74453 0.0
H1487 H 0.95763 0.73549 0.70706 0.0
H1488 H 0.94268 0.74515 0.64753 0.0
H1489 H 0.96579 0.71515 0.6535 0.0
H1490 H 0.90999 0.62359 0.60205 0.0
H1491 H 0.89322 0.64674 0.52323 0.0
H1492 H 0.89995 0.72913 0.59198 0.0
C1493 C 0.94346 0.67996 0.76133 0.0
C1494 C 0.95065 0.65318 0.7823 0.0
C1495 C 0.9443 0.62806 0.75585 0.0
C1496 C 0.93184 0.62949 0.70862 0.0
C1497 C 0.92557 0.65619 0.68831 0.0
C1498 C 0.93078 0.68096 0.71405 0.0
C1499 C 0.92244 0.70697 0.68331 0.0
C1500 C 0.89858 0.72295 0.70885 0.0
C1501 C 0.9487 0.72684 0.6722 0.0
C1502 C 0.91165 0.69287 0.63674 0.0
C1503 C 0.91405 0.66363 0.63978 0.0
C1504 C 0.90743 0.64646 0.59951 0.0
C1505 C 0.89797 0.65966 0.55498 0.0
C1506 C 0.89475 0.68951 0.55189 0.0
C1507 C 0.90147 0.70609 0.59354 0.0
H1508 H 0.42798 0.32605 0.2791 0.0
H1509 H 0.4999 0.38101 0.2324 0.0
H1510 H 0.48254 0.37995 0.14549 0.0
H1511 H 0.43296 0.28099 0.17292 0.0
H1512 H 0.39494 0.2737 0.16905 0.0
H1513 H 0.41108 0.28132 0.22801 0.0
H1514 H 0.3762 0.32252 0.23888 0.0
H1515 H 0.36004 0.3151 0.17974 0.0
H1516 H 0.37432 0.35043 0.19144 0.0
H1517 H 0.4563 0.37372 0.06336 0.0
H1518 H 0.4292 0.35658 0.99113 0.0
H1519 H 0.3779 0.29988 0.08831 0.0
C1520 C 0.43978 0.33825 0.25064 0.0
C1521 C 0.46491 0.35438 0.26289 0.0
C1522 C 0.48032 0.36909 0.22421 0.0
C1523 C 0.47058 0.36856 0.17468 0.0
C1524 C 0.44579 0.35244 0.16383 0.0
C1525 C 0.43101 0.33692 0.20058 0.0
C1526 C 0.40685 0.31884 0.17816 0.0
C1527 C 0.41177 0.28682 0.18762 0.0
C1528 C 0.37762 0.32723 0.19826 0.0
C1529 C 0.40994 0.32704 0.12322 0.0
C1530 C 0.43221 0.34687 0.116 0.0
C1531 C 0.43894 0.35809 0.06872 0.0
C1532 C 0.42314 0.34835 1.02776 0.0
C1533 C 0.40106 0.32697 0.03355 0.0
C1534 C 0.39437 0.3164 0.08234 0.0
H1535 H 0.39369 0.68794 0.94462 0.0
H1536 H 0.35948 0.6055 0.99687 0.0
H1537 H 0.37344 0.58446 0.91736 0.0
H1538 H 0.37661 0.68284 0.81327 0.0
H1539 H 0.41003 0.69963 0.79305 0.0
H1540 H 0.39483 0.70828 0.8519 0.0
H1541 H 0.44233 0.69473 0.89402 0.0
H1542 H 0.45739 0.68491 0.83609 0.0
H1543 H 0.45586 0.65948 0.8878 0.0
H1544 H 0.39096 0.57264 0.82946 0.0
H1545 H 0.41621 0.56987 0.7486 0.0
H1546 H 0.44344 0.65869 0.75811 0.0
C1547 C 0.38881 0.66556 0.9389 0.0
C1548 C 0.37483 0.64846 0.97648 0.0
C1549 C 0.36975 0.61904 0.96836 0.0
C1550 C 0.37758 0.60695 0.92321 0.0
C1551 C 0.39126 0.62436 0.88674 0.0
C1552 C 0.39739 0.65295 0.89464 0.0
C1553 C 0.41448 0.66644 0.8514 0.0
C1554 C 0.398 0.69073 0.8259 0.0
C1555 C 0.4443 0.67696 0.86836 0.0
C1556 C 0.41679 0.6412 0.81784 0.0
C1557 C 0.40287 0.61717 0.8383 0.0
C1558 C 0.40201 0.59137 0.81343 0.0
C1559 C 0.41625 0.58998 0.76732 0.0
C1560 C 0.43176 0.61402 0.74699 0.0
C1561 C 0.43173 0.63993 0.77268 0.0
H1562 H 0.07765 0.72182 0.5715 0.0
H1563 H 0.13849 0.66058 0.52323 0.0
H1564 H 0.13423 0.63482 0.60504 0.0
H1565 H 0.09815 0.72499 0.69819 0.0
H1566 H 0.06225 0.72606 0.72256 0.0
H1567 H 0.06971 0.73947 0.66045 0.0
H1568 H 0.03043 0.70809 0.6285 0.0
H1569 H 0.02257 0.69088 0.68733 0.0
H1570 H 0.03174 0.6697 0.63528 0.0
H1571 H 0.12323 0.61585 0.69809 0.0
H1572 H 0.10433 0.60531 0.78356 0.0
H1573 H 0.04926 0.67773 0.76659 0.0
C1574 C 0.09018 0.70301 0.57795 0.0
C1575 C 0.10877 0.69362 0.54025 0.0
C1576 C 0.12425 0.66853 0.55091 0.0
C1577 C 0.12193 0.65368 0.59764 0.0
C1578 C 0.10345 0.66352 0.63387 0.0
C1579 C 0.08745 0.68744 0.62389 0.0
C1580 C 0.06819 0.69314 0.66794 0.0
C1581 C 0.07505 0.72267 0.68863 0.0
C1582 C 0.03637 0.69019 0.65384 0.0
C1583 C 0.07632 0.66945 0.70467 0.0
C1584 C 0.09666 0.65237 0.6849 0.0
C1585 C 0.10716 0.62922 0.71331 0.0
C1586 C 0.09638 0.62336 0.76222 0.0
C1587 C 0.07501 0.64037 0.78271 0.0
C1588 C 0.06533 0.66383 0.75283 0.0
H1589 H 0.06109 0.34085 0.28412 0.0
H1590 H 0.01678 0.41425 0.33425 0.0
H1591 H 0.04181 0.41029 0.41535 0.0
H1592 H 0.05221 0.30149 0.39765 0.0
H1593 H 0.08596 0.28396 0.39528 0.0
H1594 H 0.06858 0.29509 0.33867 0.0
H1595 H 0.11361 0.32467 0.311 0.0
H1596 H 0.13162 0.31344 0.36715 0.0
H1597 H 0.12886 0.35095 0.35156 0.0
H1598 H 0.07011 0.39638 0.49324 0.0
H1599 H 0.09472 0.37162 0.56261 0.0
H1600 H 0.11725 0.30439 0.46413 0.0
C1601 C 0.05712 0.35634 0.3119 0.0
C1602 C 0.03752 0.37829 0.30253 0.0
C1603 C 0.03225 0.39775 0.34026 0.0
C1604 C 0.04634 0.39556 0.38647 0.0
C1605 C 0.06521 0.37334 0.39494 0.0
C1606 C 0.07033 0.35385 0.35879 0.0
C1607 C 0.08901 0.33012 0.37898 0.0
C1608 C 0.07297 0.30096 0.37758 0.0
C1609 C 0.11747 0.32979 0.35047 0.0
C1610 C 0.09368 0.33929 0.43205 0.0
C1611 C 0.08014 0.36449 0.44034 0.0
C1612 C 0.08087 0.3767 0.48694 0.0
C1613 C 0.09511 0.3625 0.52623 0.0
C1614 C 0.10824 0.33603 0.51923 0.0
C1615 C 0.1078 0.32469 0.47099 0.0
loop_
_geom_bond_atom_site_label_1
_geom_bond_atom_site_label_2
_geom_bond_distance
_geom_bond_site_symmetry_2
_ccdc_geom_bond_type
Dy0 O4 2.398 . S
Dy0 O5 2.491 . S
Dy0 O6 2.403 . S
Dy0 O7 2.637 1_455 S
Dy0 O11 2.326 1_455 S
Dy0 O15 2.310 . S
Dy0 O16 2.351 . S
C1 O12 1.185 . S
C1 O13 1.355 . S
C2 O4 1.185 . S
C2 O5 1.355 . S
Dy3 O7 2.337 . S
Dy3 O10 2.351 . S
Dy3 O12 2.398 1_554 S
Dy3 O13 2.491 1_554 S
Dy3 O14 2.403 . S
Dy3 O15 2.664 1_655 S
Dy3 O17 2.326 1_655 S
O4 Dy0 2.398 . S
O4 C2 1.185 . S
O5 Dy0 2.491 . S
O5 C2 1.355 . S
O6 Dy0 2.403 . S
O6 C8 1.254 . S
O7 Dy0 2.637 1_655 S
O7 Dy3 2.337 . S
O7 C8 1.252 1_655 S
C8 O6 1.254 . S
C8 O7 1.252 1_455 S
C9 O14 1.254 . S
C9 O15 1.268 1_655 S
O10 Dy3 2.351 . S
O10 C18 1.249 . S
O11 Dy0 2.326 1_655 S
O11 C18 1.267 . S
O12 C1 1.185 . S
O12 Dy3 2.398 1_556 S
O13 C1 1.355 . S
O13 Dy3 2.491 1_556 S
O14 Dy3 2.403 . S
O14 C9 1.254 . S
O15 Dy0 2.310 . S
O15 Dy3 2.664 1_455 S
O15 C9 1.268 1_455 S
O16 Dy0 2.351 . S
O16 C19 1.249 . S
O17 Dy3 2.326 1_455 S
O17 C19 1.267 . S
C18 O10 1.249 . S
C18 O11 1.267 . S
C19 O16 1.249 . S
C19 O17 1.267 . S
Dy20 O24 2.398 . S
Dy20 O25 2.491 . S
Dy20 O26 2.403 . S
Dy20 O27 2.664 . S
Dy20 O31 2.326 . S
Dy20 O35 2.310 . S
Dy20 O36 2.351 . S
C21 O32 1.185 . S
C21 O33 1.355 . S
C22 O24 1.185 . S
C22 O25 1.355 . S
Dy23 O27 2.310 . S
Dy23 O30 2.351 . S
Dy23 O32 2.398 . S
Dy23 O33 2.491 . S
Dy23 O34 2.403 . S
Dy23 O35 2.664 . S
Dy23 O37 2.326 . S
O24 Dy20 2.398 . S
O24 C22 1.185 . S
O25 Dy20 2.491 . S
O25 C22 1.355 . S
O26 Dy20 2.403 . S
O26 C28 1.254 . S
O27 Dy20 2.664 . S
O27 Dy23 2.310 . S
O27 C28 1.268 . S
C28 O26 1.254 . S
C28 O27 1.268 . S
C29 O34 1.254 . S
C29 O35 1.268 . S
O30 Dy23 2.351 . S
O30 C38 1.249 . S
O31 Dy20 2.326 . S
O31 C38 1.267 . S
O32 C21 1.185 . S
O32 Dy23 2.398 . S
O33 C21 1.355 . S
O33 Dy23 2.491 . S
O34 Dy23 2.403 . S
O34 C29 1.254 . S
O35 Dy20 2.310 . S
O35 Dy23 2.664 . S
O35 C29 1.268 . S
O36 Dy20 2.351 . S
O36 C39 1.249 . S
O37 Dy23 2.326 . S
O37 C39 1.267 . S
C38 O30 1.249 . S
C38 O31 1.267 . S
C39 O36 1.249 . S
C39 O37 1.267 . S
Dy40 O44 2.398 . S
Dy40 O45 2.491 . S
Dy40 O46 2.403 . S
Dy40 O47 2.664 . S
Dy40 O51 2.326 . S
Dy40 O55 2.310 . S
Dy40 O56 2.351 . S
C41 O52 1.185 . S
C41 O53 1.355 . S
C42 O44 1.185 . S
C42 O45 1.355 . S
Dy43 O47 2.310 . S
Dy43 O50 2.351 . S
Dy43 O52 2.398 . S
Dy43 O53 2.491 . S
Dy43 O54 2.403 . S
Dy43 O55 2.664 . S
Dy43 O57 2.326 . S
O44 Dy40 2.398 . S
O44 C42 1.185 . S
O45 Dy40 2.491 . S
O45 C42 1.355 . S
O46 Dy40 2.403 . S
O46 C48 1.254 . S
O47 Dy40 2.664 . S
O47 Dy43 2.310 . S
O47 C48 1.268 . S
C48 O46 1.254 . S
C48 O47 1.268 . S
C49 O54 1.254 . S
C49 O55 1.268 . S
O50 Dy43 2.351 . S
O50 C58 1.249 . S
O51 Dy40 2.326 . S
O51 C58 1.267 . S
O52 C41 1.185 . S
O52 Dy43 2.398 . S
O53 C41 1.355 . S
O53 Dy43 2.491 . S
O54 Dy43 2.403 . S
O54 C49 1.254 . S
O55 Dy40 2.310 . S
O55 Dy43 2.664 . S
O55 C49 1.268 . S
O56 Dy40 2.351 . S
O56 C59 1.249 . S
O57 Dy43 2.326 . S
O57 C59 1.267 . S
C58 O50 1.249 . S
C58 O51 1.267 . S
C59 O56 1.249 . S
C59 O57 1.267 . S
Dy60 O64 2.398 . S
Dy60 O65 2.491 . S
Dy60 O66 2.403 . S
Dy60 O67 2.664 . S
Dy60 O71 2.326 . S
Dy60 O75 2.310 . S
Dy60 O76 2.351 . S
C61 O72 1.185 . S
C61 O73 1.355 . S
C62 O64 1.185 1_554 S
C62 O65 1.355 1_554 S
Dy63 O67 2.310 . S
Dy63 O70 2.351 . S
Dy63 O72 2.398 . S
Dy63 O73 2.491 . S
Dy63 O74 2.403 . S
Dy63 O75 2.664 . S
Dy63 O77 2.326 . S
O64 Dy60 2.398 . S
O64 C62 1.185 1_556 S
O65 Dy60 2.491 . S
O65 C62 1.355 1_556 S
O66 Dy60 2.403 . S
O66 C68 1.254 . S
O67 Dy60 2.664 . S
O67 Dy63 2.310 . S
O67 C68 1.268 . S
C68 O66 1.254 . S
C68 O67 1.268 . S
C69 O74 1.254 . S
C69 O75 1.268 . S
O70 Dy63 2.351 . S
O70 C78 1.249 . S
O71 Dy60 2.326 . S
O71 C78 1.267 . S
O72 C61 1.185 . S
O72 Dy63 2.398 . S
O73 C61 1.355 . S
O73 Dy63 2.491 . S
O74 Dy63 2.403 . S
O74 C69 1.254 . S
O75 Dy60 2.310 . S
O75 Dy63 2.664 . S
O75 C69 1.268 . S
O76 Dy60 2.351 . S
O76 C79 1.249 . S
O77 Dy63 2.326 . S
O77 C79 1.267 . S
C78 O70 1.249 . S
C78 O71 1.267 . S
C79 O76 1.249 . S
C79 O77 1.267 . S
Dy80 O84 2.398 . S
Dy80 O85 2.491 . S
Dy80 O86 2.403 . S
Dy80 O87 2.688 . S
Dy80 O91 2.336 . S
Dy80 O95 2.310 . S
Dy80 O96 2.351 . S
C81 O92 1.185 1_554 S
C81 O93 1.355 1_554 S
C82 O84 1.185 . S
C82 O85 1.355 . S
Dy83 O87 2.289 1_655 S
Dy83 O90 2.351 . S
Dy83 O92 2.398 . S
Dy83 O93 2.491 . S
Dy83 O94 2.403 . S
Dy83 O95 2.664 1_655 S
Dy83 O97 2.326 1_655 S
O84 Dy80 2.398 . S
O84 C82 1.185 . S
O85 Dy80 2.491 . S
O85 C82 1.355 . S
O86 Dy80 2.403 . S
O86 C88 1.254 . S
O87 Dy80 2.688 . S
O87 Dy83 2.289 1_455 S
O87 C88 1.280 . S
C88 O86 1.254 . S
C88 O87 1.280 . S
C89 O94 1.254 . S
C89 O95 1.268 1_655 S
O90 Dy83 2.351 . S
O90 C98 1.249 . S
O91 Dy80 2.336 . S
O91 C98 1.256 1_455 S
O92 C81 1.185 1_556 S
O92 Dy83 2.398 . S
O93 C81 1.355 1_556 S
O93 Dy83 2.491 . S
O94 Dy83 2.403 . S
O94 C89 1.254 . S
O95 Dy80 2.310 . S
O95 Dy83 2.664 1_455 S
O95 C89 1.268 1_455 S
O96 Dy80 2.351 . S
O96 C99 1.249 . S
O97 Dy83 2.326 1_455 S
O97 C99 1.267 . S
C98 O90 1.249 . S
C98 O91 1.256 1_655 S
C99 O96 1.249 . S
C99 O97 1.267 . S
Dy100 O104 2.398 . S
Dy100 O105 2.491 . S
Dy100 O106 2.403 . S
Dy100 O107 2.664 . S
Dy100 O111 2.326 . S
Dy100 O115 2.310 . S
Dy100 O116 2.351 . S
C101 O112 1.185 . S
C101 O113 1.355 . S
C102 O104 1.185 . S
C102 O105 1.355 . S
Dy103 O107 2.310 . S
Dy103 O110 2.351 . S
Dy103 O112 2.398 . S
Dy103 O113 2.491 . S
Dy103 O114 2.403 . S
Dy103 O115 2.664 . S
Dy103 O117 2.326 . S
O104 Dy100 2.398 . S
O104 C102 1.185 . S
O105 Dy100 2.491 . S
O105 C102 1.355 . S
O106 Dy100 2.403 . S
O106 C108 1.254 . S
O107 Dy100 2.664 . S
O107 Dy103 2.310 . S
O107 C108 1.268 . S
C108 O106 1.254 . S
C108 O107 1.268 . S
C109 O114 1.254 . S
C109 O115 1.268 . S
O110 Dy103 2.351 . S
O110 C118 1.249 . S
O111 Dy100 2.326 . S
O111 C118 1.267 . S
O112 C101 1.185 . S
O112 Dy103 2.398 . S
O113 C101 1.355 . S
O113 Dy103 2.491 . S
O114 Dy103 2.403 . S
O114 C109 1.254 . S
O115 Dy100 2.310 . S
O115 Dy103 2.664 . S
O115 C109 1.268 . S
O116 Dy100 2.351 . S
O116 C119 1.249 . S
O117 Dy103 2.326 . S
O117 C119 1.267 . S
C118 O110 1.249 . S
C118 O111 1.267 . S
C119 O116 1.249 . S
C119 O117 1.267 . S
Dy120 O124 2.398 . S
Dy120 O125 2.491 . S
Dy120 O126 2.403 . S
Dy120 O127 2.664 . S
Dy120 O131 2.326 . S
Dy120 O135 2.310 . S
Dy120 O136 2.351 . S
C121 O132 1.185 . S
C121 O133 1.355 . S
C122 O124 1.185 . S
C122 O125 1.355 . S
Dy123 O127 2.310 . S
Dy123 O130 2.351 . S
Dy123 O132 2.398 . S
Dy123 O133 2.491 . S
Dy123 O134 2.403 . S
Dy123 O135 2.664 . S
Dy123 O137 2.326 . S
O124 Dy120 2.398 . S
O124 C122 1.185 . S
O125 Dy120 2.491 . S
O125 C122 1.355 . S
O126 Dy120 2.403 . S
O126 C128 1.254 . S
O127 Dy120 2.664 . S
O127 Dy123 2.310 . S
O127 C128 1.268 . S
C128 O126 1.254 . S
C128 O127 1.268 . S
C129 O134 1.254 . S
C129 O135 1.268 . S
O130 Dy123 2.351 . S
O130 C138 1.249 . S
O131 Dy120 2.326 . S
O131 C138 1.267 . S
O132 C121 1.185 . S
O132 Dy123 2.398 . S
O133 C121 1.355 . S
O133 Dy123 2.491 . S
O134 Dy123 2.403 . S
O134 C129 1.254 . S
O135 Dy120 2.310 . S
O135 Dy123 2.664 . S
O135 C129 1.268 . S
O136 Dy120 2.351 . S
O136 C139 1.249 . S
O137 Dy123 2.326 . S
O137 C139 1.267 . S
C138 O130 1.249 . S
C138 O131 1.267 . S
C139 O136 1.249 . S
C139 O137 1.267 . S
Dy140 O144 2.398 . S
Dy140 O145 2.491 . S
Dy140 O146 2.403 . S
Dy140 O147 2.664 . S
Dy140 O151 2.326 . S
Dy140 O155 2.310 . S
Dy140 O156 2.351 . S
C141 O152 1.185 . S
C141 O153 1.355 . S
C142 O144 1.185 . S
C142 O145 1.355 . S
Dy143 O147 2.310 . S
Dy143 O150 2.351 . S
Dy143 O152 2.398 . S
Dy143 O153 2.491 . S
Dy143 O154 2.403 . S
Dy143 O155 2.664 . S
Dy143 O157 2.326 . S
O144 Dy140 2.398 . S
O144 C142 1.185 . S
O145 Dy140 2.491 . S
O145 C142 1.355 . S
O146 Dy140 2.403 . S
O146 C148 1.254 . S
O147 Dy140 2.664 . S
O147 Dy143 2.310 . S
O147 C148 1.268 . S
C148 O146 1.254 . S
C148 O147 1.268 . S
C149 O154 1.254 . S
C149 O155 1.268 . S
O150 Dy143 2.351 . S
O150 C158 1.249 . S
O151 Dy140 2.326 . S
O151 C158 1.267 . S
O152 C141 1.185 . S
O152 Dy143 2.398 . S
O153 C141 1.355 . S
O153 Dy143 2.491 . S
O154 Dy143 2.403 . S
O154 C149 1.254 . S
O155 Dy140 2.310 . S
O155 Dy143 2.664 . S
O155 C149 1.268 . S
O156 Dy140 2.351 . S
O156 C159 1.249 . S
O157 Dy143 2.326 . S
O157 C159 1.267 . S
C158 O150 1.249 . S
C158 O151 1.267 . S
C159 O156 1.249 . S
C159 O157 1.267 . S
Dy160 O164 2.398 . S
Dy160 O165 2.491 . S
Dy160 O166 2.403 . S
Dy160 O167 2.664 . S
Dy160 O171 2.326 . S
Dy160 O175 2.310 . S
Dy160 O176 2.351 . S
C161 O172 1.185 . S
C161 O173 1.355 . S
C162 O164 1.185 . S
C162 O165 1.355 . S
Dy163 O167 2.310 . S
Dy163 O170 2.351 . S
Dy163 O172 2.398 . S
Dy163 O173 2.491 . S
Dy163 O174 2.403 . S
Dy163 O175 2.664 . S
Dy163 O177 2.326 . S
O164 Dy160 2.398 . S
O164 C162 1.185 . S
O165 Dy160 2.491 . S
O165 C162 1.355 . S
O166 Dy160 2.403 . S
O166 C168 1.254 . S
O167 Dy160 2.664 . S
O167 Dy163 2.310 . S
O167 C168 1.268 . S
C168 O166 1.254 . S
C168 O167 1.268 . S
C169 O174 1.254 . S
C169 O175 1.268 . S
O170 Dy163 2.351 . S
O170 C178 1.249 . S
O171 Dy160 2.326 . S
O171 C178 1.267 . S
O172 C161 1.185 . S
O172 Dy163 2.398 . S
O173 C161 1.355 . S
O173 Dy163 2.491 . S
O174 Dy163 2.403 . S
O174 C169 1.254 . S
O175 Dy160 2.310 . S
O175 Dy163 2.664 . S
O175 C169 1.268 . S
O176 Dy160 2.351 . S
O176 C179 1.249 . S
O177 Dy163 2.326 . S
O177 C179 1.267 . S
C178 O170 1.249 . S
C178 O171 1.267 . S
C179 O176 1.249 . S
C179 O177 1.267 . S
Dy180 O184 2.398 . S
Dy180 O185 2.491 . S
Dy180 O186 2.403 . S
Dy180 O187 2.664 . S
Dy180 O191 2.326 . S
Dy180 O195 2.310 . S
Dy180 O196 2.351 . S
C181 O192 1.185 . S
C181 O193 1.355 . S
C182 O184 1.185 . S
C182 O185 1.355 . S
Dy183 O187 2.310 . S
Dy183 O190 2.351 . S
Dy183 O192 2.398 . S
Dy183 O193 2.491 . S
Dy183 O194 2.403 . S
Dy183 O195 2.664 . S
Dy183 O197 2.326 . S
O184 Dy180 2.398 . S
O184 C182 1.185 . S
O185 Dy180 2.491 . S
O185 C182 1.355 . S
O186 Dy180 2.403 . S
O186 C188 1.254 . S
O187 Dy180 2.664 . S
O187 Dy183 2.310 . S
O187 C188 1.268 . S
C188 O186 1.254 . S
C188 O187 1.268 . S
C189 O194 1.254 . S
C189 O195 1.268 . S
O190 Dy183 2.351 . S
O190 C198 1.249 . S
O191 Dy180 2.326 . S
O191 C198 1.267 . S
O192 C181 1.185 . S
O192 Dy183 2.398 . S
O193 C181 1.355 . S
O193 Dy183 2.491 . S
O194 Dy183 2.403 . S
O194 C189 1.254 . S
O195 Dy180 2.310 . S
O195 Dy183 2.664 . S
O195 C189 1.268 . S
O196 Dy180 2.351 . S
O196 C199 1.249 . S
O197 Dy183 2.326 . S
O197 C199 1.267 . S
C198 O190 1.249 . S
C198 O191 1.267 . S
C199 O196 1.249 . S
C199 O197 1.267 . S
Dy200 O204 2.398 . S
Dy200 O205 2.491 . S
Dy200 O206 2.403 . S
Dy200 O207 2.664 . S
Dy200 O211 2.326 . S
Dy200 O215 2.310 . S
Dy200 O216 2.351 . S
C201 O212 1.185 . S
C201 O213 1.355 . S
C202 O204 1.185 . S
C202 O205 1.355 . S
Dy203 O207 2.310 . S
Dy203 O210 2.351 . S
Dy203 O212 2.398 . S
Dy203 O213 2.491 . S
Dy203 O214 2.403 . S
Dy203 O215 2.664 . S
Dy203 O217 2.326 . S
O204 Dy200 2.398 . S
O204 C202 1.185 . S
O205 Dy200 2.491 . S
O205 C202 1.355 . S
O206 Dy200 2.403 . S
O206 C208 1.254 . S
O207 Dy200 2.664 . S
O207 Dy203 2.310 . S
O207 C208 1.268 . S
C208 O206 1.254 . S
C208 O207 1.268 . S
C209 O214 1.254 . S
C209 O215 1.268 . S
O210 Dy203 2.351 . S
O210 C218 1.249 . S
O211 Dy200 2.326 . S
O211 C218 1.267 . S
O212 C201 1.185 . S
O212 Dy203 2.398 . S
O213 C201 1.355 . S
O213 Dy203 2.491 . S
O214 Dy203 2.403 . S
O214 C209 1.254 . S
O215 Dy200 2.310 . S
O215 Dy203 2.664 . S
O215 C209 1.268 . S
O216 Dy200 2.351 . S
O216 C219 1.249 . S
O217 Dy203 2.326 . S
O217 C219 1.267 . S
C218 O210 1.249 . S
C218 O211 1.267 . S
C219 O216 1.249 . S
C219 O217 1.267 . S
Dy220 O224 2.398 . S
Dy220 O225 2.491 . S
Dy220 O226 2.403 . S
Dy220 O227 2.664 . S
Dy220 O231 2.326 . S
Dy220 O235 2.310 . S
Dy220 O236 2.351 . S
C221 O232 1.185 . S
C221 O233 1.355 . S
C222 O224 1.185 . S
C222 O225 1.355 . S
Dy223 O227 2.310 . S
Dy223 O230 2.351 . S
Dy223 O232 2.398 . S
Dy223 O233 2.491 . S
Dy223 O234 2.403 . S
Dy223 O235 2.664 . S
Dy223 O237 2.326 . S
O224 Dy220 2.398 . S
O224 C222 1.185 . S
O225 Dy220 2.491 . S
O225 C222 1.355 . S
O226 Dy220 2.403 . S
O226 C228 1.254 . S
O227 Dy220 2.664 . S
O227 Dy223 2.310 . S
O227 C228 1.268 . S
C228 O226 1.254 . S
C228 O227 1.268 . S
C229 O234 1.254 . S
C229 O235 1.268 . S
O230 Dy223 2.351 . S
O230 C238 1.249 . S
O231 Dy220 2.326 . S
O231 C238 1.267 . S
O232 C221 1.185 . S
O232 Dy223 2.398 . S
O233 C221 1.355 . S
O233 Dy223 2.491 . S
O234 Dy223 2.403 . S
O234 C229 1.254 . S
O235 Dy220 2.310 . S
O235 Dy223 2.664 . S
O235 C229 1.268 . S
O236 Dy220 2.351 . S
O236 C239 1.249 . S
O237 Dy223 2.326 . S
O237 C239 1.267 . S
C238 O230 1.249 . S
C238 O231 1.267 . S
C239 O236 1.249 . S
C239 O237 1.267 . S
Dy240 O244 2.398 . S
Dy240 O245 2.491 . S
Dy240 O246 2.403 . S
Dy240 O247 2.664 . S
Dy240 O251 2.326 . S
Dy240 O255 2.310 . S
Dy240 O256 2.351 . S
C241 O252 1.185 . S
C241 O253 1.355 . S
C242 O244 1.185 . S
C242 O245 1.355 . S
Dy243 O247 2.310 . S
Dy243 O250 2.351 . S
Dy243 O252 2.398 . S
Dy243 O253 2.491 . S
Dy243 O254 2.403 . S
Dy243 O255 2.664 . S
Dy243 O257 2.326 . S
O244 Dy240 2.398 . S
O244 C242 1.185 . S
O245 Dy240 2.491 . S
O245 C242 1.355 . S
O246 Dy240 2.403 . S
O246 C248 1.254 . S
O247 Dy240 2.664 . S
O247 Dy243 2.310 . S
O247 C248 1.268 . S
C248 O246 1.254 . S
C248 O247 1.268 . S
C249 O254 1.254 . S
C249 O255 1.268 . S
O250 Dy243 2.351 . S
O250 C258 1.249 . S
O251 Dy240 2.326 . S
O251 C258 1.267 . S
O252 C241 1.185 . S
O252 Dy243 2.398 . S
O253 C241 1.355 . S
O253 Dy243 2.491 . S
O254 Dy243 2.403 . S
O254 C249 1.254 . S
O255 Dy240 2.310 . S
O255 Dy243 2.664 . S
O255 C249 1.268 . S
O256 Dy240 2.351 . S
O256 C259 1.249 . S
O257 Dy243 2.326 . S
O257 C259 1.267 . S
C258 O250 1.249 . S
C258 O251 1.267 . S
C259 O256 1.249 . S
C259 O257 1.267 . S
Dy260 O264 2.398 . S
Dy260 O265 2.491 . S
Dy260 O266 2.403 . S
Dy260 O267 2.664 1_655 S
Dy260 O271 2.326 1_655 S
Dy260 O275 2.320 . S
Dy260 O276 2.351 . S
C261 O272 1.185 . S
C261 O273 1.355 . S
C262 O264 1.185 . S
C262 O265 1.355 . S
Dy263 O267 2.310 . S
Dy263 O270 2.351 . S
Dy263 O272 2.398 . S
Dy263 O273 2.491 . S
Dy263 O274 2.403 . S
Dy263 O275 2.653 1_455 S
Dy263 O277 2.299 1_455 S
O264 Dy260 2.398 . S
O264 C262 1.185 . S
O265 Dy260 2.491 . S
O265 C262 1.355 . S
O266 Dy260 2.403 . S
O266 C268 1.254 . S
O267 Dy260 2.664 1_455 S
O267 Dy263 2.310 . S
O267 C268 1.268 1_455 S
C268 O266 1.254 . S
C268 O267 1.268 1_655 S
C269 O274 1.254 . S
C269 O275 1.261 1_455 S
O270 Dy263 2.351 . S
O270 C278 1.249 . S
O271 Dy260 2.326 1_455 S
O271 C278 1.267 . S
O272 C261 1.185 . S
O272 Dy263 2.398 . S
O273 C261 1.355 . S
O273 Dy263 2.491 . S
O274 Dy263 2.403 . S
O274 C269 1.254 . S
O275 Dy260 2.320 . S
O275 Dy263 2.653 1_655 S
O275 C269 1.261 1_655 S
O276 Dy260 2.351 . S
O276 C279 1.249 . S
O277 Dy263 2.299 1_655 S
O277 C279 1.300 . S
C278 O270 1.249 . S
C278 O271 1.267 . S
C279 O276 1.249 . S
C279 O277 1.300 . S
Dy280 O284 2.398 . S
Dy280 O285 2.491 . S
Dy280 O286 2.403 . S
Dy280 O287 2.664 . S
Dy280 O291 2.326 . S
Dy280 O295 2.310 . S
Dy280 O296 2.351 . S
C281 O292 1.185 . S
C281 O293 1.355 . S
C282 O284 1.185 . S
C282 O285 1.355 . S
Dy283 O287 2.310 . S
Dy283 O290 2.351 . S
Dy283 O292 2.398 . S
Dy283 O293 2.491 . S
Dy283 O294 2.403 . S
Dy283 O295 2.664 . S
Dy283 O297 2.326 . S
O284 Dy280 2.398 . S
O284 C282 1.185 . S
O285 Dy280 2.491 . S
O285 C282 1.355 . S
O286 Dy280 2.403 . S
O286 C288 1.254 . S
O287 Dy280 2.664 . S
O287 Dy283 2.310 . S
O287 C288 1.268 . S
C288 O286 1.254 . S
C288 O287 1.268 . S
C289 O294 1.254 . S
C289 O295 1.268 . S
O290 Dy283 2.351 . S
O290 C298 1.249 . S
O291 Dy280 2.326 . S
O291 C298 1.267 . S
O292 C281 1.185 . S
O292 Dy283 2.398 . S
O293 C281 1.355 . S
O293 Dy283 2.491 . S
O294 Dy283 2.403 . S
O294 C289 1.254 . S
O295 Dy280 2.310 . S
O295 Dy283 2.664 . S
O295 C289 1.268 . S
O296 Dy280 2.351 . S
O296 C299 1.249 . S
O297 Dy283 2.326 . S
O297 C299 1.267 . S
C298 O290 1.249 . S
C298 O291 1.267 . S
C299 O296 1.249 . S
C299 O297 1.267 . S
Dy300 O304 2.398 . S
Dy300 O305 2.491 . S
Dy300 O306 2.403 . S
Dy300 O307 2.664 1_655 S
Dy300 O311 2.326 1_655 S
Dy300 O315 2.320 . S
Dy300 O316 2.351 . S
C301 O312 1.185 1_554 S
C301 O313 1.355 . S
C302 O304 1.185 . S
C302 O305 1.355 . S
Dy303 O307 2.310 . S
Dy303 O310 2.351 . S
Dy303 O312 2.398 . S
Dy303 O313 2.491 1_556 S
Dy303 O314 2.403 . S
Dy303 O315 2.652 1_455 S
Dy303 O317 2.294 1_455 S
O304 Dy300 2.398 . S
O304 C302 1.185 . S
O305 Dy300 2.491 . S
O305 C302 1.355 . S
O306 Dy300 2.403 . S
O306 C308 1.254 . S
O307 Dy300 2.664 1_455 S
O307 Dy303 2.310 . S
O307 C308 1.268 1_455 S
C308 O306 1.254 . S
C308 O307 1.268 1_655 S
C309 O314 1.254 . S
C309 O315 1.262 1_455 S
O310 Dy303 2.351 . S
O310 C318 1.249 . S
O311 Dy300 2.326 1_455 S
O311 C318 1.267 . S
O312 C301 1.185 1_556 S
O312 Dy303 2.398 . S
O313 C301 1.355 . S
O313 Dy303 2.491 1_554 S
O314 Dy303 2.403 . S
O314 C309 1.254 . S
O315 Dy300 2.320 . S
O315 Dy303 2.652 1_655 S
O315 C309 1.262 1_655 S
O316 Dy300 2.351 . S
O316 C319 1.249 . S
O317 Dy303 2.294 1_655 S
O317 C319 1.304 . S
C318 O310 1.249 . S
C318 O311 1.267 . S
C319 O316 1.249 . S
C319 O317 1.304 . S
H320 C332 0.930 . S
H321 C334 0.930 . S
H322 C335 0.930 . S
H323 C339 0.959 . S
H324 C339 0.959 . S
H325 C339 0.961 . S
H326 C340 0.960 . S
H327 C340 0.961 . S
H328 C340 0.959 . S
H329 C343 0.929 . S
H330 C344 0.931 . S
H331 C346 0.930 . S
C332 H320 0.930 . S
C332 C333 1.399 . S
C332 C337 1.399 . S
C333 C332 1.399 . S
C333 C334 1.376 . S
C334 H321 0.930 . S
C334 C333 1.376 . S
C334 C335 1.388 . S
C335 H322 0.930 . S
C335 C334 1.388 . S
C335 C336 1.390 . S
C336 C335 1.390 . S
C336 C337 1.394 . S
C336 C342 1.465 . S
C337 C332 1.399 . S
C337 C336 1.394 . S
C337 C338 1.516 . S
C338 C337 1.516 . S
C338 C339 1.502 . S
C338 C340 1.561 . S
C338 C341 1.526 . S
C339 H323 0.959 . S
C339 H324 0.959 . S
C339 H325 0.961 . S
C339 C338 1.502 . S
C340 H326 0.960 . S
C340 H327 0.961 . S
C340 H328 0.959 . S
C340 C338 1.561 . S
C341 C338 1.526 . S
C341 C342 1.396 . S
C341 C346 1.390 . S
C342 C336 1.465 . S
C342 C341 1.396 . S
C342 C343 1.399 . S
C343 H329 0.929 . S
C343 C342 1.399 . S
C343 C344 1.385 . S
C344 H330 0.931 . S
C344 C343 1.385 . S
C344 C345 1.389 . S
C345 C344 1.389 . S
C345 C346 1.387 . S
C346 H331 0.930 . S
C346 C341 1.390 . S
C346 C345 1.387 . S
H347 C359 0.930 . S
H348 C361 0.930 . S
H349 C362 0.930 . S
H350 C366 0.959 . S
H351 C366 0.959 . S
H352 C366 0.961 . S
H353 C367 0.960 . S
H354 C367 0.961 . S
H355 C367 0.959 . S
H356 C370 0.929 . S
H357 C371 0.931 1_556 S
H358 C373 0.930 . S
C359 H347 0.930 . S
C359 C360 1.399 . S
C359 C364 1.399 . S
C360 C359 1.399 . S
C360 C361 1.376 . S
C361 H348 0.930 . S
C361 C360 1.376 . S
C361 C362 1.388 . S
C362 H349 0.930 . S
C362 C361 1.388 . S
C362 C363 1.390 . S
C363 C362 1.390 . S
C363 C364 1.394 . S
C363 C369 1.465 . S
C364 C359 1.399 . S
C364 C363 1.394 . S
C364 C365 1.516 . S
C365 C364 1.516 . S
C365 C366 1.502 . S
C365 C367 1.561 . S
C365 C368 1.526 . S
C366 H350 0.959 . S
C366 H351 0.959 . S
C366 H352 0.961 . S
C366 C365 1.502 . S
C367 H353 0.960 . S
C367 H354 0.961 . S
C367 H355 0.959 . S
C367 C365 1.561 . S
C368 C365 1.526 . S
C368 C369 1.396 . S
C368 C373 1.390 . S
C369 C363 1.465 . S
C369 C368 1.396 . S
C369 C370 1.399 . S
C370 H356 0.929 . S
C370 C369 1.399 . S
C370 C371 1.385 . S
C371 H357 0.931 1_554 S
C371 C370 1.385 . S
C371 C372 1.389 . S
C372 C371 1.389 . S
C372 C373 1.387 . S
C373 H358 0.930 . S
C373 C368 1.390 . S
C373 C372 1.387 . S
H374 C386 0.930 . S
H375 C388 0.930 . S
H376 C389 0.930 . S
H377 C393 0.959 . S
H378 C393 0.959 . S
H379 C393 0.961 . S
H380 C394 0.960 . S
H381 C394 0.961 . S
H382 C394 0.959 . S
H383 C397 0.929 . S
H384 C398 0.931 . S
H385 C400 0.930 . S
C386 H374 0.930 . S
C386 C387 1.399 . S
C386 C391 1.399 . S
C387 C386 1.399 . S
C387 C388 1.376 . S
C388 H375 0.930 . S
C388 C387 1.376 . S
C388 C389 1.388 . S
C389 H376 0.930 . S
C389 C388 1.388 . S
C389 C390 1.390 . S
C390 C389 1.390 . S
C390 C391 1.394 . S
C390 C396 1.465 . S
C391 C386 1.399 . S
C391 C390 1.394 . S
C391 C392 1.516 . S
C392 C391 1.516 . S
C392 C393 1.502 . S
C392 C394 1.561 . S
C392 C395 1.526 . S
C393 H377 0.959 . S
C393 H378 0.959 . S
C393 H379 0.961 . S
C393 C392 1.502 . S
C394 H380 0.960 . S
C394 H381 0.961 . S
C394 H382 0.959 . S
C394 C392 1.561 . S
C395 C392 1.526 . S
C395 C396 1.396 . S
C395 C400 1.390 . S
C396 C390 1.465 . S
C396 C395 1.396 . S
C396 C397 1.399 . S
C397 H383 0.929 . S
C397 C396 1.399 . S
C397 C398 1.385 . S
C398 H384 0.931 . S
C398 C397 1.385 . S
C398 C399 1.389 . S
C399 C398 1.389 . S
C399 C400 1.387 . S
C400 H385 0.930 . S
C400 C395 1.390 . S
C400 C399 1.387 . S
H401 C413 0.930 . S
H402 C415 0.930 . S
H403 C416 0.930 . S
H404 C420 0.959 . S
H405 C420 0.959 . S
H406 C420 0.961 . S
H407 C421 0.960 . S
H408 C421 0.961 . S
H409 C421 0.959 . S
H410 C424 0.929 . S
H411 C425 0.931 . S
H412 C427 0.930 . S
C413 H401 0.930 . S
C413 C414 1.399 . S
C413 C418 1.399 . S
C414 C413 1.399 . S
C414 C415 1.376 . S
C415 H402 0.930 . S
C415 C414 1.376 . S
C415 C416 1.388 . S
C416 H403 0.930 . S
C416 C415 1.388 . S
C416 C417 1.390 . S
C417 C416 1.390 . S
C417 C418 1.394 . S
C417 C423 1.465 . S
C418 C413 1.399 . S
C418 C417 1.394 . S
C418 C419 1.516 . S
C419 C418 1.516 . S
C419 C420 1.502 . S
C419 C421 1.561 . S
C419 C422 1.526 . S
C420 H404 0.959 . S
C420 H405 0.959 . S
C420 H406 0.961 . S
C420 C419 1.502 . S
C421 H407 0.960 . S
C421 H408 0.961 . S
C421 H409 0.959 . S
C421 C419 1.561 . S
C422 C419 1.526 . S
C422 C423 1.396 . S
C422 C427 1.390 . S
C423 C417 1.465 . S
C423 C422 1.396 . S
C423 C424 1.399 . S
C424 H410 0.929 . S
C424 C423 1.399 . S
C424 C425 1.385 . S
C425 H411 0.931 . S
C425 C424 1.385 . S
C425 C426 1.389 . S
C426 C425 1.389 . S
C426 C427 1.387 . S
C427 H412 0.930 . S
C427 C422 1.390 . S
C427 C426 1.387 . S
H428 C440 0.930 . S
H429 C442 0.930 . S
H430 C443 0.930 . S
H431 C447 0.959 . S
H432 C447 0.959 . S
H433 C447 0.961 . S
H434 C448 0.960 . S
H435 C448 0.961 . S
H436 C448 0.959 . S
H437 C451 0.929 . S
H438 C452 0.931 . S
H439 C454 0.930 . S
C440 H428 0.930 . S
C440 C441 1.399 . S
C440 C445 1.399 . S
C441 C440 1.399 . S
C441 C442 1.376 . S
C442 H429 0.930 . S
C442 C441 1.376 . S
C442 C443 1.388 . S
C443 H430 0.930 . S
C443 C442 1.388 . S
C443 C444 1.390 . S
C444 C443 1.390 . S
C444 C445 1.394 . S
C444 C450 1.465 . S
C445 C440 1.399 . S
C445 C444 1.394 . S
C445 C446 1.516 . S
C446 C445 1.516 . S
C446 C447 1.502 . S
C446 C448 1.561 . S
C446 C449 1.526 . S
C447 H431 0.959 . S
C447 H432 0.959 . S
C447 H433 0.961 . S
C447 C446 1.502 . S
C448 H434 0.960 . S
C448 H435 0.961 . S
C448 H436 0.959 . S
C448 C446 1.561 . S
C449 C446 1.526 . S
C449 C450 1.396 . S
C449 C454 1.390 . S
C450 C444 1.465 . S
C450 C449 1.396 . S
C450 C451 1.399 . S
C451 H437 0.929 . S
C451 C450 1.399 . S
C451 C452 1.385 . S
C452 H438 0.931 . S
C452 C451 1.385 . S
C452 C453 1.389 . S
C453 C452 1.389 . S
C453 C454 1.387 . S
C454 H439 0.930 . S
C454 C449 1.390 . S
C454 C453 1.387 . S
H455 C467 0.930 . S
H456 C469 0.930 . S
H457 C470 0.930 . S
H458 C474 0.959 . S
H459 C474 0.959 . S
H460 C474 0.961 . S
H461 C475 0.960 . S
H462 C475 0.961 . S
H463 C475 0.959 . S
H464 C478 0.929 . S
H465 C479 0.931 . S
H466 C481 0.930 . S
C467 H455 0.930 . S
C467 C468 1.399 . S
C467 C472 1.399 . S
C468 C467 1.399 . S
C468 C469 1.376 . S
C469 H456 0.930 . S
C469 C468 1.376 . S
C469 C470 1.388 . S
C470 H457 0.930 . S
C470 C469 1.388 . S
C470 C471 1.390 . S
C471 C470 1.390 . S
C471 C472 1.394 . S
C471 C477 1.465 . S
C472 C467 1.399 . S
C472 C471 1.394 . S
C472 C473 1.516 . S
C473 C472 1.516 . S
C473 C474 1.502 . S
C473 C475 1.561 . S
C473 C476 1.526 . S
C474 H458 0.959 . S
C474 H459 0.959 . S
C474 H460 0.961 . S
C474 C473 1.502 . S
C475 H461 0.960 . S
C475 H462 0.961 . S
C475 H463 0.959 . S
C475 C473 1.561 . S
C476 C473 1.526 . S
C476 C477 1.396 . S
C476 C481 1.390 . S
C477 C471 1.465 . S
C477 C476 1.396 . S
C477 C478 1.399 . S
C478 H464 0.929 . S
C478 C477 1.399 . S
C478 C479 1.385 . S
C479 H465 0.931 . S
C479 C478 1.385 . S
C479 C480 1.389 . S
C480 C479 1.389 . S
C480 C481 1.387 . S
C481 H466 0.930 . S
C481 C476 1.390 . S
C481 C480 1.387 . S
H482 C494 0.930 . S
H483 C496 0.930 . S
H484 C497 0.930 . S
H485 C501 0.959 . S
H486 C501 0.959 . S
H487 C501 0.961 . S
H488 C502 0.960 . S
H489 C502 0.961 . S
H490 C502 0.959 . S
H491 C505 0.929 . S
H492 C506 0.931 . S
H493 C508 0.930 . S
C494 H482 0.930 . S
C494 C495 1.399 . S
C494 C499 1.399 . S
C495 C494 1.399 . S
C495 C496 1.376 . S
C496 H483 0.930 . S
C496 C495 1.376 . S
C496 C497 1.388 . S
C497 H484 0.930 . S
C497 C496 1.388 . S
C497 C498 1.390 . S
C498 C497 1.390 . S
C498 C499 1.394 . S
C498 C504 1.465 . S
C499 C494 1.399 . S
C499 C498 1.394 . S
C499 C500 1.516 . S
C500 C499 1.516 . S
C500 C501 1.502 . S
C500 C502 1.561 . S
C500 C503 1.526 . S
C501 H485 0.959 . S
C501 H486 0.959 . S
C501 H487 0.961 . S
C501 C500 1.502 . S
C502 H488 0.960 . S
C502 H489 0.961 . S
C502 H490 0.959 . S
C502 C500 1.561 . S
C503 C500 1.526 . S
C503 C504 1.396 . S
C503 C508 1.390 . S
C504 C498 1.465 . S
C504 C503 1.396 . S
C504 C505 1.399 . S
C505 H491 0.929 . S
C505 C504 1.399 . S
C505 C506 1.385 . S
C506 H492 0.931 . S
C506 C505 1.385 . S
C506 C507 1.389 . S
C507 C506 1.389 . S
C507 C508 1.387 . S
C508 H493 0.930 . S
C508 C503 1.390 . S
C508 C507 1.387 . S
H509 C521 0.930 . S
H510 C523 0.930 . S
H511 C524 0.930 . S
H512 C528 0.959 . S
H513 C528 0.959 . S
H514 C528 0.961 . S
H515 C529 0.960 . S
H516 C529 0.961 . S
H517 C529 0.959 . S
H518 C532 0.929 . S
H519 C533 0.931 . S
H520 C535 0.930 . S
C521 H509 0.930 . S
C521 C522 1.399 . S
C521 C526 1.399 . S
C522 C521 1.399 . S
C522 C523 1.376 . S
C523 H510 0.930 . S
C523 C522 1.376 . S
C523 C524 1.388 . S
C524 H511 0.930 . S
C524 C523 1.388 . S
C524 C525 1.390 . S
C525 C524 1.390 . S
C525 C526 1.394 . S
C525 C531 1.465 . S
C526 C521 1.399 . S
C526 C525 1.394 . S
C526 C527 1.516 . S
C527 C526 1.516 . S
C527 C528 1.502 . S
C527 C529 1.561 . S
C527 C530 1.526 . S
C528 H512 0.959 . S
C528 H513 0.959 . S
C528 H514 0.961 . S
C528 C527 1.502 . S
C529 H515 0.960 . S
C529 H516 0.961 . S
C529 H517 0.959 . S
C529 C527 1.561 . S
C530 C527 1.526 . S
C530 C531 1.396 . S
C530 C535 1.390 . S
C531 C525 1.465 . S
C531 C530 1.396 . S
C531 C532 1.399 . S
C532 H518 0.929 . S
C532 C531 1.399 . S
C532 C533 1.385 . S
C533 H519 0.931 . S
C533 C532 1.385 . S
C533 C534 1.389 . S
C534 C533 1.389 . S
C534 C535 1.387 . S
C535 H520 0.930 . S
C535 C530 1.390 . S
C535 C534 1.387 . S
H536 C548 0.930 . S
H537 C550 0.930 . S
H538 C551 0.930 . S
H539 C555 0.959 . S
H540 C555 0.959 . S
H541 C555 0.961 . S
H542 C556 0.960 . S
H543 C556 0.961 . S
H544 C556 0.959 . S
H545 C559 0.929 . S
H546 C560 0.931 . S
H547 C562 0.930 . S
C548 H536 0.930 . S
C548 C549 1.399 . S
C548 C553 1.399 . S
C549 C548 1.399 . S
C549 C550 1.376 . S
C550 H537 0.930 . S
C550 C549 1.376 . S
C550 C551 1.388 . S
C551 H538 0.930 . S
C551 C550 1.388 . S
C551 C552 1.390 . S
C552 C551 1.390 . S
C552 C553 1.394 . S
C552 C558 1.465 . S
C553 C548 1.399 . S
C553 C552 1.394 . S
C553 C554 1.516 . S
C554 C553 1.516 . S
C554 C555 1.502 . S
C554 C556 1.561 . S
C554 C557 1.526 . S
C555 H539 0.959 . S
C555 H540 0.959 . S
C555 H541 0.961 . S
C555 C554 1.502 . S
C556 H542 0.960 . S
C556 H543 0.961 . S
C556 H544 0.959 . S
C556 C554 1.561 . S
C557 C554 1.526 . S
C557 C558 1.396 . S
C557 C562 1.390 . S
C558 C552 1.465 . S
C558 C557 1.396 . S
C558 C559 1.399 . S
C559 H545 0.929 . S
C559 C558 1.399 . S
C559 C560 1.385 . S
C560 H546 0.931 . S
C560 C559 1.385 . S
C560 C561 1.389 . S
C561 C560 1.389 . S
C561 C562 1.387 . S
C562 H547 0.930 . S
C562 C557 1.390 . S
C562 C561 1.387 . S
H563 C575 0.930 . S
H564 C577 0.930 . S
H565 C578 0.930 . S
H566 C582 0.959 . S
H567 C582 0.959 . S
H568 C582 0.961 . S
H569 C583 0.960 . S
H570 C583 0.961 . S
H571 C583 0.959 . S
H572 C586 0.929 . S
H573 C587 0.931 . S
H574 C589 0.930 . S
C575 H563 0.930 . S
C575 C576 1.399 . S
C575 C580 1.399 . S
C576 C575 1.399 . S
C576 C577 1.376 . S
C577 H564 0.930 . S
C577 C576 1.376 . S
C577 C578 1.388 . S
C578 H565 0.930 . S
C578 C577 1.388 . S
C578 C579 1.390 . S
C579 C578 1.390 . S
C579 C580 1.394 . S
C579 C585 1.465 . S
C580 C575 1.399 . S
C580 C579 1.394 . S
C580 C581 1.516 . S
C581 C580 1.516 . S
C581 C582 1.502 . S
C581 C583 1.561 . S
C581 C584 1.526 . S
C582 H566 0.959 . S
C582 H567 0.959 . S
C582 H568 0.961 . S
C582 C581 1.502 . S
C583 H569 0.960 . S
C583 H570 0.961 . S
C583 H571 0.959 . S
C583 C581 1.561 . S
C584 C581 1.526 . S
C584 C585 1.396 . S
C584 C589 1.390 . S
C585 C579 1.465 . S
C585 C584 1.396 . S
C585 C586 1.399 . S
C586 H572 0.929 . S
C586 C585 1.399 . S
C586 C587 1.385 . S
C587 H573 0.931 . S
C587 C586 1.385 . S
C587 C588 1.389 . S
C588 C587 1.389 . S
C588 C589 1.387 . S
C589 H574 0.930 . S
C589 C584 1.390 . S
C589 C588 1.387 . S
H590 C602 0.930 . S
H591 C604 0.930 . S
H592 C605 0.930 . S
H593 C609 0.959 . S
H594 C609 0.959 . S
H595 C609 0.942 1_455 S
H596 C610 0.960 . S
H597 C610 0.961 . S
H598 C610 0.959 . S
H599 C613 0.929 . S
H600 C614 0.931 . S
H601 C616 0.930 . S
C602 H590 0.930 . S
C602 C603 1.399 1_556 S
C602 C607 1.399 . S
C603 C602 1.399 1_554 S
C603 C604 1.376 . S
C604 H591 0.930 . S
C604 C603 1.376 . S
C604 C605 1.388 1_554 S
C605 H592 0.930 . S
C605 C604 1.388 1_556 S
C605 C606 1.390 . S
C606 C605 1.390 . S
C606 C607 1.394 . S
C606 C612 1.465 . S
C607 C602 1.399 . S
C607 C606 1.394 . S
C607 C608 1.516 . S
C608 C607 1.516 . S
C608 C609 1.502 . S
C608 C610 1.561 . S
C608 C611 1.526 . S
C609 H593 0.959 . S
C609 H594 0.959 . S
C609 H595 0.942 1_655 S
C609 C608 1.502 . S
C610 H596 0.960 . S
C610 H597 0.961 . S
C610 H598 0.959 . S
C610 C608 1.561 . S
C611 C608 1.526 . S
C611 C612 1.396 . S
C611 C616 1.390 . S
C612 C606 1.465 . S
C612 C611 1.396 . S
C612 C613 1.399 . S
C613 H599 0.929 . S
C613 C612 1.399 . S
C613 C614 1.385 . S
C614 H600 0.931 . S
C614 C613 1.385 . S
C614 C615 1.389 . S
C615 C614 1.389 . S
C615 C616 1.387 . S
C616 H601 0.930 . S
C616 C611 1.390 . S
C616 C615 1.387 . S
H617 C629 0.930 . S
H618 C631 0.930 . S
H619 C632 0.930 . S
H620 C636 0.959 . S
H621 C636 0.959 . S
H622 C636 0.961 . S
H623 C637 0.960 . S
H624 C637 0.961 . S
H625 C637 0.959 . S
H626 C640 0.929 . S
H627 C641 0.931 . S
H628 C643 0.930 . S
C629 H617 0.930 . S
C629 C630 1.399 . S
C629 C634 1.399 . S
C630 C629 1.399 . S
C630 C631 1.376 . S
C631 H618 0.930 . S
C631 C630 1.376 . S
C631 C632 1.388 . S
C632 H619 0.930 . S
C632 C631 1.388 . S
C632 C633 1.390 . S
C633 C632 1.390 . S
C633 C634 1.394 . S
C633 C639 1.465 . S
C634 C629 1.399 . S
C634 C633 1.394 . S
C634 C635 1.516 . S
C635 C634 1.516 . S
C635 C636 1.502 . S
C635 C637 1.561 . S
C635 C638 1.526 . S
C636 H620 0.959 . S
C636 H621 0.959 . S
C636 H622 0.961 . S
C636 C635 1.502 . S
C637 H623 0.960 . S
C637 H624 0.961 . S
C637 H625 0.959 . S
C637 C635 1.561 . S
C638 C635 1.526 . S
C638 C639 1.396 . S
C638 C643 1.390 . S
C639 C633 1.465 . S
C639 C638 1.396 . S
C639 C640 1.399 . S
C640 H626 0.929 . S
C640 C639 1.399 . S
C640 C641 1.385 . S
C641 H627 0.931 . S
C641 C640 1.385 . S
C641 C642 1.389 . S
C642 C641 1.389 . S
C642 C643 1.387 . S
C643 H628 0.930 . S
C643 C638 1.390 . S
C643 C642 1.387 . S
H644 C656 0.930 . S
H645 C658 0.930 . S
H646 C659 0.930 . S
H647 C663 0.959 . S
H648 C663 0.959 . S
H649 C663 0.961 . S
H650 C664 0.960 . S
H651 C664 0.961 . S
H652 C664 0.959 . S
H653 C667 0.929 . S
H654 C668 0.931 . S
H655 C670 0.930 . S
C656 H644 0.930 . S
C656 C657 1.399 . S
C656 C661 1.399 . S
C657 C656 1.399 . S
C657 C658 1.376 . S
C658 H645 0.930 . S
C658 C657 1.376 . S
C658 C659 1.388 . S
C659 H646 0.930 . S
C659 C658 1.388 . S
C659 C660 1.390 . S
C660 C659 1.390 . S
C660 C661 1.394 . S
C660 C666 1.465 . S
C661 C656 1.399 . S
C661 C660 1.394 . S
C661 C662 1.516 . S
C662 C661 1.516 . S
C662 C663 1.502 . S
C662 C664 1.561 . S
C662 C665 1.526 . S
C663 H647 0.959 . S
C663 H648 0.959 . S
C663 H649 0.961 . S
C663 C662 1.502 . S
C664 H650 0.960 . S
C664 H651 0.961 . S
C664 H652 0.959 . S
C664 C662 1.561 . S
C665 C662 1.526 . S
C665 C666 1.396 . S
C665 C670 1.390 . S
C666 C660 1.465 . S
C666 C665 1.396 . S
C666 C667 1.399 . S
C667 H653 0.929 . S
C667 C666 1.399 . S
C667 C668 1.385 . S
C668 H654 0.931 . S
C668 C667 1.385 . S
C668 C669 1.389 . S
C669 C668 1.389 . S
C669 C670 1.387 . S
C670 H655 0.930 . S
C670 C665 1.390 . S
C670 C669 1.387 . S
H671 C683 0.930 . S
H672 C685 0.930 . S
H673 C686 0.930 . S
H674 C690 0.959 . S
H675 C690 0.959 . S
H676 C690 0.961 . S
H677 C691 0.960 . S
H678 C691 0.961 . S
H679 C691 0.959 . S
H680 C694 0.929 . S
H681 C695 0.931 . S
H682 C697 0.930 . S
C683 H671 0.930 . S
C683 C684 1.399 . S
C683 C688 1.399 . S
C684 C683 1.399 . S
C684 C685 1.376 . S
C685 H672 0.930 . S
C685 C684 1.376 . S
C685 C686 1.388 . S
C686 H673 0.930 . S
C686 C685 1.388 . S
C686 C687 1.390 . S
C687 C686 1.390 . S
C687 C688 1.394 . S
C687 C693 1.465 . S
C688 C683 1.399 . S
C688 C687 1.394 . S
C688 C689 1.516 . S
C689 C688 1.516 . S
C689 C690 1.502 . S
C689 C691 1.561 . S
C689 C692 1.526 . S
C690 H674 0.959 . S
C690 H675 0.959 . S
C690 H676 0.961 . S
C690 C689 1.502 . S
C691 H677 0.960 . S
C691 H678 0.961 . S
C691 H679 0.959 . S
C691 C689 1.561 . S
C692 C689 1.526 . S
C692 C693 1.396 . S
C692 C697 1.390 . S
C693 C687 1.465 . S
C693 C692 1.396 . S
C693 C694 1.399 . S
C694 H680 0.929 . S
C694 C693 1.399 . S
C694 C695 1.385 . S
C695 H681 0.931 . S
C695 C694 1.385 . S
C695 C696 1.389 . S
C696 C695 1.389 . S
C696 C697 1.387 . S
C697 H682 0.930 . S
C697 C692 1.390 . S
C697 C696 1.387 . S
H698 C710 0.930 . S
H699 C712 0.930 . S
H700 C713 0.930 . S
H701 C717 0.959 . S
H702 C717 0.959 . S
H703 C717 0.961 . S
H704 C718 0.960 . S
H705 C718 0.961 . S
H706 C718 0.959 . S
H707 C721 0.929 . S
H708 C722 0.931 . S
H709 C724 0.930 . S
C710 H698 0.930 . S
C710 C711 1.399 . S
C710 C715 1.399 . S
C711 C710 1.399 . S
C711 C712 1.376 . S
C712 H699 0.930 . S
C712 C711 1.376 . S
C712 C713 1.388 . S
C713 H700 0.930 . S
C713 C712 1.388 . S
C713 C714 1.390 . S
C714 C713 1.390 . S
C714 C715 1.394 . S
C714 C720 1.465 . S
C715 C710 1.399 . S
C715 C714 1.394 . S
C715 C716 1.516 . S
C716 C715 1.516 . S
C716 C717 1.502 . S
C716 C718 1.561 . S
C716 C719 1.526 . S
C717 H701 0.959 . S
C717 H702 0.959 . S
C717 H703 0.961 . S
C717 C716 1.502 . S
C718 H704 0.960 . S
C718 H705 0.961 . S
C718 H706 0.959 . S
C718 C716 1.561 . S
C719 C716 1.526 . S
C719 C720 1.396 . S
C719 C724 1.390 . S
C720 C714 1.465 . S
C720 C719 1.396 . S
C720 C721 1.399 . S
C721 H707 0.929 . S
C721 C720 1.399 . S
C721 C722 1.385 . S
C722 H708 0.931 . S
C722 C721 1.385 . S
C722 C723 1.389 . S
C723 C722 1.389 . S
C723 C724 1.387 . S
C724 H709 0.930 . S
C724 C719 1.390 . S
C724 C723 1.387 . S
H725 C737 0.930 . S
H726 C739 0.930 . S
H727 C740 0.930 . S
H728 C744 0.959 . S
H729 C744 0.959 . S
H730 C744 0.961 . S
H731 C745 0.960 . S
H732 C745 0.961 . S
H733 C745 0.959 . S
H734 C748 0.929 . S
H735 C749 0.931 . S
H736 C751 0.930 . S
C737 H725 0.930 . S
C737 C738 1.399 . S
C737 C742 1.399 . S
C738 C737 1.399 . S
C738 C739 1.376 . S
C739 H726 0.930 . S
C739 C738 1.376 . S
C739 C740 1.388 . S
C740 H727 0.930 . S
C740 C739 1.388 . S
C740 C741 1.390 . S
C741 C740 1.390 . S
C741 C742 1.394 . S
C741 C747 1.465 . S
C742 C737 1.399 . S
C742 C741 1.394 . S
C742 C743 1.516 . S
C743 C742 1.516 . S
C743 C744 1.502 . S
C743 C745 1.561 . S
C743 C746 1.526 . S
C744 H728 0.959 . S
C744 H729 0.959 . S
C744 H730 0.961 . S
C744 C743 1.502 . S
C745 H731 0.960 . S
C745 H732 0.961 . S
C745 H733 0.959 . S
C745 C743 1.561 . S
C746 C743 1.526 . S
C746 C747 1.396 . S
C746 C751 1.390 . S
C747 C741 1.465 . S
C747 C746 1.396 . S
C747 C748 1.399 . S
C748 H734 0.929 . S
C748 C747 1.399 . S
C748 C749 1.385 . S
C749 H735 0.931 . S
C749 C748 1.385 . S
C749 C750 1.389 . S
C750 C749 1.389 . S
C750 C751 1.387 . S
C751 H736 0.930 . S
C751 C746 1.390 . S
C751 C750 1.387 . S
H752 C764 0.935 . S
H753 C766 0.930 . S
H754 C767 0.930 . S
H755 C771 0.959 . S
H756 C771 0.959 . S
H757 C771 0.961 . S
H758 C772 0.960 . S
H759 C772 0.961 . S
H760 C772 0.959 . S
H761 C775 0.929 . S
H762 C776 0.931 . S
H763 C778 0.934 . S
C764 H752 0.935 . S
C764 C765 1.399 . S
C764 C769 1.399 . S
C765 C764 1.399 . S
C765 C766 1.376 . S
C766 H753 0.930 . S
C766 C765 1.376 . S
C766 C767 1.388 . S
C767 H754 0.930 . S
C767 C766 1.388 . S
C767 C768 1.390 . S
C768 C767 1.390 . S
C768 C769 1.394 . S
C768 C774 1.465 . S
C769 C764 1.399 . S
C769 C768 1.394 . S
C769 C770 1.516 . S
C770 C769 1.516 . S
C770 C771 1.502 1_455 S
C770 C772 1.561 . S
C770 C773 1.526 . S
C771 H755 0.959 . S
C771 H756 0.959 . S
C771 H757 0.961 . S
C771 C770 1.502 1_655 S
C772 H758 0.960 . S
C772 H759 0.961 . S
C772 H760 0.959 . S
C772 C770 1.561 . S
C773 C770 1.526 . S
C773 C774 1.396 . S
C773 C778 1.390 . S
C774 C768 1.465 . S
C774 C773 1.396 . S
C774 C775 1.399 . S
C775 H761 0.929 . S
C775 C774 1.399 . S
C775 C776 1.385 . S
C776 H762 0.931 . S
C776 C775 1.385 . S
C776 C777 1.389 . S
C777 C776 1.389 . S
C777 C778 1.387 . S
C778 H763 0.934 . S
C778 C773 1.390 . S
C778 C777 1.387 . S
H779 C791 0.930 . S
H780 C793 0.930 . S
H781 C794 0.930 . S
H782 C798 0.959 . S
H783 C798 0.959 . S
H784 C798 0.961 1_655 S
H785 C799 0.960 1_655 S
H786 C799 0.961 . S
H787 C799 0.959 . S
H788 C802 0.929 . S
H789 C803 0.931 . S
H790 C805 0.930 . S
C791 H779 0.930 . S
C791 C792 1.399 . S
C791 C796 1.399 . S
C792 C791 1.399 . S
C792 C793 1.376 . S
C793 H780 0.930 . S
C793 C792 1.376 . S
C793 C794 1.388 . S
C794 H781 0.930 . S
C794 C793 1.388 . S
C794 C795 1.390 . S
C795 C794 1.390 . S
C795 C796 1.394 . S
C795 C801 1.465 1_655 S
C796 C791 1.399 . S
C796 C795 1.394 . S
C796 C797 1.516 1_655 S
C797 C796 1.516 1_455 S
C797 C798 1.502 . S
C797 C799 1.561 . S
C797 C800 1.526 . S
C798 H782 0.959 . S
C798 H783 0.959 . S
C798 H784 0.961 1_455 S
C798 C797 1.502 . S
C799 H785 0.960 1_455 S
C799 H786 0.961 . S
C799 H787 0.959 . S
C799 C797 1.561 . S
C800 C797 1.526 . S
C800 C801 1.396 . S
C800 C805 1.390 . S
C801 C795 1.465 1_455 S
C801 C800 1.396 . S
C801 C802 1.399 . S
C802 H788 0.929 . S
C802 C801 1.399 . S
C802 C803 1.385 . S
C803 H789 0.931 . S
C803 C802 1.385 . S
C803 C804 1.389 . S
C804 C803 1.389 . S
C804 C805 1.387 . S
C805 H790 0.930 . S
C805 C800 1.390 . S
C805 C804 1.387 . S
H806 C818 0.930 . S
H807 C820 0.930 . S
H808 C821 0.930 . S
H809 C825 0.959 . S
H810 C825 0.959 . S
H811 C825 0.961 . S
H812 C826 0.960 . S
H813 C826 0.961 . S
H814 C826 0.959 . S
H815 C829 0.929 . S
H816 C830 0.931 . S
H817 C832 0.930 . S
C818 H806 0.930 . S
C818 C819 1.399 . S
C818 C823 1.399 . S
C819 C818 1.399 . S
C819 C820 1.376 . S
C820 H807 0.930 . S
C820 C819 1.376 . S
C820 C821 1.388 . S
C821 H808 0.930 . S
C821 C820 1.388 . S
C821 C822 1.390 . S
C822 C821 1.390 . S
C822 C823 1.394 . S
C822 C828 1.465 . S
C823 C818 1.399 . S
C823 C822 1.394 . S
C823 C824 1.516 . S
C824 C823 1.516 . S
C824 C825 1.502 . S
C824 C826 1.561 . S
C824 C827 1.526 . S
C825 H809 0.959 . S
C825 H810 0.959 . S
C825 H811 0.961 . S
C825 C824 1.502 . S
C826 H812 0.960 . S
C826 H813 0.961 . S
C826 H814 0.959 . S
C826 C824 1.561 . S
C827 C824 1.526 . S
C827 C828 1.396 . S
C827 C832 1.390 . S
C828 C822 1.465 . S
C828 C827 1.396 . S
C828 C829 1.399 . S
C829 H815 0.929 . S
C829 C828 1.399 . S
C829 C830 1.385 . S
C830 H816 0.931 . S
C830 C829 1.385 . S
C830 C831 1.389 . S
C831 C830 1.389 . S
C831 C832 1.387 . S
C832 H817 0.930 . S
C832 C827 1.390 . S
C832 C831 1.387 . S
H833 C845 0.930 . S
H834 C847 0.930 . S
H835 C848 0.930 . S
H836 C852 0.959 . S
H837 C852 0.959 . S
H838 C852 0.961 . S
H839 C853 0.960 . S
H840 C853 0.961 . S
H841 C853 0.959 . S
H842 C856 0.929 . S
H843 C857 0.931 . S
H844 C859 0.930 . S
C845 H833 0.930 . S
C845 C846 1.399 . S
C845 C850 1.399 . S
C846 C845 1.399 . S
C846 C847 1.376 . S
C847 H834 0.930 . S
C847 C846 1.376 . S
C847 C848 1.388 . S
C848 H835 0.930 . S
C848 C847 1.388 . S
C848 C849 1.390 . S
C849 C848 1.390 . S
C849 C850 1.394 . S
C849 C855 1.465 . S
C850 C845 1.399 . S
C850 C849 1.394 . S
C850 C851 1.516 . S
C851 C850 1.516 . S
C851 C852 1.502 . S
C851 C853 1.561 . S
C851 C854 1.526 . S
C852 H836 0.959 . S
C852 H837 0.959 . S
C852 H838 0.961 . S
C852 C851 1.502 . S
C853 H839 0.960 . S
C853 H840 0.961 . S
C853 H841 0.959 . S
C853 C851 1.561 . S
C854 C851 1.526 . S
C854 C855 1.396 . S
C854 C859 1.390 . S
C855 C849 1.465 . S
C855 C854 1.396 . S
C855 C856 1.399 . S
C856 H842 0.929 . S
C856 C855 1.399 . S
C856 C857 1.385 . S
C857 H843 0.931 . S
C857 C856 1.385 . S
C857 C858 1.389 . S
C858 C857 1.389 . S
C858 C859 1.387 . S
C859 H844 0.930 . S
C859 C854 1.390 . S
C859 C858 1.387 . S
H860 C872 0.936 . S
H861 C874 0.930 . S
H862 C875 0.930 . S
H863 C879 0.959 . S
H864 C879 0.959 . S
H865 C879 0.961 . S
H866 C880 0.960 . S
H867 C880 0.961 . S
H868 C880 0.959 . S
H869 C883 0.929 . S
H870 C884 0.931 . S
H871 C886 0.930 . S
C872 H860 0.936 . S
C872 C873 1.399 . S
C872 C877 1.399 . S
C873 C872 1.399 . S
C873 C874 1.376 . S
C874 H861 0.930 . S
C874 C873 1.376 . S
C874 C875 1.388 . S
C875 H862 0.930 . S
C875 C874 1.388 . S
C875 C876 1.390 . S
C876 C875 1.390 . S
C876 C877 1.394 . S
C876 C882 1.465 . S
C877 C872 1.399 . S
C877 C876 1.394 . S
C877 C878 1.516 . S
C878 C877 1.516 . S
C878 C879 1.502 1_455 S
C878 C880 1.561 . S
C878 C881 1.526 . S
C879 H863 0.959 . S
C879 H864 0.959 . S
C879 H865 0.961 . S
C879 C878 1.502 1_655 S
C880 H866 0.960 . S
C880 H867 0.961 . S
C880 H868 0.959 . S
C880 C878 1.561 . S
C881 C878 1.526 . S
C881 C882 1.396 . S
C881 C886 1.390 . S
C882 C876 1.465 . S
C882 C881 1.396 . S
C882 C883 1.399 . S
C883 H869 0.929 . S
C883 C882 1.399 . S
C883 C884 1.385 . S
C884 H870 0.931 . S
C884 C883 1.385 . S
C884 C885 1.389 . S
C885 C884 1.389 . S
C885 C886 1.387 . S
C886 H871 0.930 . S
C886 C881 1.390 . S
C886 C885 1.387 . S
H887 C899 0.930 . S
H888 C901 0.930 . S
H889 C902 0.930 . S
H890 C906 0.959 . S
H891 C906 0.959 . S
H892 C906 0.961 . S
H893 C907 0.960 . S
H894 C907 0.961 . S
H895 C907 0.959 . S
H896 C910 0.929 . S
H897 C911 0.931 . S
H898 C913 0.930 . S
C899 H887 0.930 . S
C899 C900 1.399 . S
C899 C904 1.399 . S
C900 C899 1.399 . S
C900 C901 1.376 . S
C901 H888 0.930 . S
C901 C900 1.376 . S
C901 C902 1.388 . S
C902 H889 0.930 . S
C902 C901 1.388 . S
C902 C903 1.390 . S
C903 C902 1.390 . S
C903 C904 1.394 . S
C903 C909 1.465 . S
C904 C899 1.399 . S
C904 C903 1.394 . S
C904 C905 1.516 . S
C905 C904 1.516 . S
C905 C906 1.502 . S
C905 C907 1.561 . S
C905 C908 1.526 . S
C906 H890 0.959 . S
C906 H891 0.959 . S
C906 H892 0.961 . S
C906 C905 1.502 . S
C907 H893 0.960 . S
C907 H894 0.961 . S
C907 H895 0.959 . S
C907 C905 1.561 . S
C908 C905 1.526 . S
C908 C909 1.396 . S
C908 C913 1.390 . S
C909 C903 1.465 . S
C909 C908 1.396 . S
C909 C910 1.399 . S
C910 H896 0.929 . S
C910 C909 1.399 . S
C910 C911 1.385 . S
C911 H897 0.931 . S
C911 C910 1.385 . S
C911 C912 1.389 . S
C912 C911 1.389 . S
C912 C913 1.387 . S
C913 H898 0.930 . S
C913 C908 1.390 . S
C913 C912 1.387 . S
H914 C926 0.930 . S
H915 C928 0.930 . S
H916 C929 0.930 . S
H917 C933 0.959 . S
H918 C933 0.959 . S
H919 C933 0.961 . S
H920 C934 0.960 . S
H921 C934 0.961 . S
H922 C934 0.959 . S
H923 C937 0.929 . S
H924 C938 0.931 . S
H925 C940 0.930 . S
C926 H914 0.930 . S
C926 C927 1.399 . S
C926 C931 1.399 . S
C927 C926 1.399 . S
C927 C928 1.376 . S
C928 H915 0.930 . S
C928 C927 1.376 . S
C928 C929 1.388 . S
C929 H916 0.930 . S
C929 C928 1.388 . S
C929 C930 1.390 . S
C930 C929 1.390 . S
C930 C931 1.394 . S
C930 C936 1.465 . S
C931 C926 1.399 . S
C931 C930 1.394 . S
C931 C932 1.516 . S
C932 C931 1.516 . S
C932 C933 1.502 . S
C932 C934 1.561 . S
C932 C935 1.526 . S
C933 H917 0.959 . S
C933 H918 0.959 . S
C933 H919 0.961 . S
C933 C932 1.502 . S
C934 H920 0.960 . S
C934 H921 0.961 . S
C934 H922 0.959 . S
C934 C932 1.561 . S
C935 C932 1.526 . S
C935 C936 1.396 . S
C935 C940 1.390 . S
C936 C930 1.465 . S
C936 C935 1.396 . S
C936 C937 1.399 . S
C937 H923 0.929 . S
C937 C936 1.399 . S
C937 C938 1.385 . S
C938 H924 0.931 . S
C938 C937 1.385 . S
C938 C939 1.389 . S
C939 C938 1.389 . S
C939 C940 1.387 . S
C940 H925 0.930 . S
C940 C935 1.390 . S
C940 C939 1.387 . S
H941 C953 0.930 . S
H942 C955 0.930 . S
H943 C956 0.930 . S
H944 C960 0.964 . S
H945 C960 0.992 . S
H946 C960 0.929 1_455 S
H947 C961 0.960 . S
H948 C961 0.961 1_655 S
H949 C961 0.959 . S
H950 C964 0.929 . S
H951 C965 0.931 . S
H952 C967 0.930 . S
C953 H941 0.930 . S
C953 C954 1.399 . S
C953 C958 1.399 . S
C954 C953 1.399 . S
C954 C955 1.376 . S
C955 H942 0.930 . S
C955 C954 1.376 . S
C955 C956 1.388 . S
C956 H943 0.930 . S
C956 C955 1.388 . S
C956 C957 1.390 . S
C957 C956 1.390 . S
C957 C958 1.394 . S
C957 C963 1.465 1_455 S
C958 C953 1.399 . S
C958 C957 1.394 . S
C958 C959 1.516 . S
C959 C958 1.516 . S
C959 C960 1.498 1_455 S
C959 C961 1.561 . S
C959 C962 1.526 1_455 S
C960 H944 0.964 . S
C960 H945 0.992 . S
C960 H946 0.929 1_655 S
C960 C959 1.498 1_655 S
C961 H947 0.960 . S
C961 H948 0.961 1_455 S
C961 H949 0.959 . S
C961 C959 1.561 . S
C962 C959 1.526 1_655 S
C962 C963 1.396 . S
C962 C967 1.390 . S
C963 C957 1.465 1_655 S
C963 C962 1.396 . S
C963 C964 1.399 . S
C964 H950 0.929 . S
C964 C963 1.399 . S
C964 C965 1.385 . S
C965 H951 0.931 . S
C965 C964 1.385 . S
C965 C966 1.389 . S
C966 C965 1.389 . S
C966 C967 1.387 . S
C967 H952 0.930 . S
C967 C962 1.390 . S
C967 C966 1.387 . S
H968 C980 0.930 . S
H969 C982 0.929 1_655 S
H970 C983 0.930 1_655 S
H971 C987 0.959 . S
H972 C987 0.959 . S
H973 C987 0.961 . S
H974 C988 0.960 . S
H975 C988 0.961 . S
H976 C988 0.959 . S
H977 C991 0.929 . S
H978 C992 0.931 . S
H979 C994 0.930 . S
C980 H968 0.930 . S
C980 C981 1.399 . S
C980 C985 1.399 . S
C981 C980 1.399 . S
C981 C982 1.378 . S
C982 H969 0.929 1_455 S
C982 C981 1.378 . S
C982 C983 1.389 1_554 S
C983 H970 0.930 1_455 S
C983 C982 1.389 1_556 S
C983 C984 1.389 . S
C984 C983 1.389 . S
C984 C985 1.395 1_556 S
C984 C990 1.471 . S
C985 C980 1.399 . S
C985 C984 1.395 1_554 S
C985 C986 1.516 1_445 S
C986 C985 1.516 1_665 S
C986 C987 1.502 1_655 S
C986 C988 1.561 . S
C986 C989 1.526 1_654 S
C987 H971 0.959 . S
C987 H972 0.959 . S
C987 H973 0.961 . S
C987 C986 1.502 1_455 S
C988 H974 0.960 . S
C988 H975 0.961 . S
C988 H976 0.959 . S
C988 C986 1.561 . S
C989 C986 1.526 1_456 S
C989 C990 1.391 1_565 S
C989 C994 1.390 . S
C990 C984 1.471 . S
C990 C989 1.391 1_545 S
C990 C991 1.399 . S
C991 H977 0.929 . S
C991 C990 1.399 . S
C991 C992 1.385 1_545 S
C992 H978 0.931 . S
C992 C991 1.385 1_565 S
C992 C993 1.389 . S
C993 C992 1.389 . S
C993 C994 1.387 . S
C994 H979 0.930 . S
C994 C989 1.390 . S
C994 C993 1.387 . S
H995 C1007 0.930 . S
H996 C1009 0.930 . S
H997 C1010 0.930 . S
H998 C1014 0.959 . S
H999 C1014 0.959 . S
H1000 C1014 0.961 . S
H1001 C1015 0.960 . S
H1002 C1015 0.961 . S
H1003 C1015 0.959 . S
H1004 C1018 0.929 . S
H1005 C1019 0.931 . S
H1006 C1021 0.930 . S
C1007 H995 0.930 . S
C1007 C1008 1.399 . S
C1007 C1012 1.399 . S
C1008 C1007 1.399 . S
C1008 C1009 1.376 . S
C1009 H996 0.930 . S
C1009 C1008 1.376 . S
C1009 C1010 1.388 . S
C1010 H997 0.930 . S
C1010 C1009 1.388 . S
C1010 C1011 1.390 . S
C1011 C1010 1.390 . S
C1011 C1012 1.394 . S
C1011 C1017 1.465 . S
C1012 C1007 1.399 . S
C1012 C1011 1.394 . S
C1012 C1013 1.516 . S
C1013 C1012 1.516 . S
C1013 C1014 1.502 . S
C1013 C1015 1.561 . S
C1013 C1016 1.526 . S
C1014 H998 0.959 . S
C1014 H999 0.959 . S
C1014 H1000 0.961 . S
C1014 C1013 1.502 . S
C1015 H1001 0.960 . S
C1015 H1002 0.961 . S
C1015 H1003 0.959 . S
C1015 C1013 1.561 . S
C1016 C1013 1.526 . S
C1016 C1017 1.396 . S
C1016 C1021 1.390 . S
C1017 C1011 1.465 . S
C1017 C1016 1.396 . S
C1017 C1018 1.399 . S
C1018 H1004 0.929 . S
C1018 C1017 1.399 . S
C1018 C1019 1.385 . S
C1019 H1005 0.931 . S
C1019 C1018 1.385 . S
C1019 C1020 1.389 . S
C1020 C1019 1.389 . S
C1020 C1021 1.387 . S
C1021 H1006 0.930 . S
C1021 C1016 1.390 . S
C1021 C1020 1.387 . S
H1022 C1034 0.930 . S
H1023 C1036 0.930 . S
H1024 C1037 0.930 1_565 S
H1025 C1041 0.959 . S
H1026 C1041 0.959 . S
H1027 C1041 0.961 . S
H1028 C1042 0.960 . S
H1029 C1042 0.961 . S
H1030 C1042 0.959 . S
H1031 C1045 0.929 . S
H1032 C1046 0.931 . S
H1033 C1048 0.930 . S
C1034 H1022 0.930 . S
C1034 C1035 1.399 . S
C1034 C1039 1.399 . S
C1035 C1034 1.399 . S
C1035 C1036 1.376 . S
C1036 H1023 0.930 . S
C1036 C1035 1.376 . S
C1036 C1037 1.388 . S
C1037 H1024 0.930 1_545 S
C1037 C1036 1.388 . S
C1037 C1038 1.390 . S
C1038 C1037 1.390 . S
C1038 C1039 1.394 . S
C1038 C1044 1.465 1_545 S
C1039 C1034 1.399 . S
C1039 C1038 1.394 . S
C1039 C1040 1.516 . S
C1040 C1039 1.516 . S
C1040 C1041 1.502 . S
C1040 C1042 1.561 . S
C1040 C1043 1.526 1_545 S
C1041 H1025 0.959 . S
C1041 H1026 0.959 . S
C1041 H1027 0.961 . S
C1041 C1040 1.502 . S
C1042 H1028 0.960 . S
C1042 H1029 0.961 . S
C1042 H1030 0.959 . S
C1042 C1040 1.561 . S
C1043 C1040 1.526 1_565 S
C1043 C1044 1.396 . S
C1043 C1048 1.390 . S
C1044 C1038 1.465 1_565 S
C1044 C1043 1.396 . S
C1044 C1045 1.399 . S
C1045 H1031 0.929 . S
C1045 C1044 1.399 . S
C1045 C1046 1.385 . S
C1046 H1032 0.931 . S
C1046 C1045 1.385 . S
C1046 C1047 1.389 . S
C1047 C1046 1.389 . S
C1047 C1048 1.387 . S
C1048 H1033 0.930 . S
C1048 C1043 1.390 . S
C1048 C1047 1.387 . S
H1049 C1061 0.930 . S
H1050 C1063 0.930 . S
H1051 C1064 0.930 . S
H1052 C1068 0.959 . S
H1053 C1068 0.959 . S
H1054 C1068 0.961 . S
H1055 C1069 0.960 . S
H1056 C1069 0.961 . S
H1057 C1069 0.959 . S
H1058 C1072 0.929 . S
H1059 C1073 0.931 . S
H1060 C1075 0.930 . S
C1061 H1049 0.930 . S
C1061 C1062 1.399 . S
C1061 C1066 1.399 . S
C1062 C1061 1.399 . S
C1062 C1063 1.376 . S
C1063 H1050 0.930 . S
C1063 C1062 1.376 . S
C1063 C1064 1.388 . S
C1064 H1051 0.930 . S
C1064 C1063 1.388 . S
C1064 C1065 1.390 . S
C1065 C1064 1.390 . S
C1065 C1066 1.394 . S
C1065 C1071 1.465 . S
C1066 C1061 1.399 . S
C1066 C1065 1.394 . S
C1066 C1067 1.516 . S
C1067 C1066 1.516 . S
C1067 C1068 1.502 . S
C1067 C1069 1.561 . S
C1067 C1070 1.526 . S
C1068 H1052 0.959 . S
C1068 H1053 0.959 . S
C1068 H1054 0.961 . S
C1068 C1067 1.502 . S
C1069 H1055 0.960 . S
C1069 H1056 0.961 . S
C1069 H1057 0.959 . S
C1069 C1067 1.561 . S
C1070 C1067 1.526 . S
C1070 C1071 1.396 . S
C1070 C1075 1.390 . S
C1071 C1065 1.465 . S
C1071 C1070 1.396 . S
C1071 C1072 1.399 . S
C1072 H1058 0.929 . S
C1072 C1071 1.399 . S
C1072 C1073 1.385 . S
C1073 H1059 0.931 . S
C1073 C1072 1.385 . S
C1073 C1074 1.389 . S
C1074 C1073 1.389 . S
C1074 C1075 1.387 . S
C1075 H1060 0.930 . S
C1075 C1070 1.390 . S
C1075 C1074 1.387 . S
H1076 C1088 0.930 . S
H1077 C1090 0.930 . S
H1078 C1091 0.930 . S
H1079 C1095 0.959 . S
H1080 C1095 0.959 . S
H1081 C1095 0.961 . S
H1082 C1096 0.960 . S
H1083 C1096 0.961 . S
H1084 C1096 0.959 . S
H1085 C1099 0.929 . S
H1086 C1100 0.931 . S
H1087 C1102 0.930 . S
C1088 H1076 0.930 . S
C1088 C1089 1.399 . S
C1088 C1093 1.399 . S
C1089 C1088 1.399 . S
C1089 C1090 1.376 . S
C1090 H1077 0.930 . S
C1090 C1089 1.376 . S
C1090 C1091 1.388 . S
C1091 H1078 0.930 . S
C1091 C1090 1.388 . S
C1091 C1092 1.390 . S
C1092 C1091 1.390 . S
C1092 C1093 1.394 . S
C1092 C1098 1.465 . S
C1093 C1088 1.399 . S
C1093 C1092 1.394 . S
C1093 C1094 1.516 . S
C1094 C1093 1.516 . S
C1094 C1095 1.502 . S
C1094 C1096 1.561 . S
C1094 C1097 1.526 . S
C1095 H1079 0.959 . S
C1095 H1080 0.959 . S
C1095 H1081 0.961 . S
C1095 C1094 1.502 . S
C1096 H1082 0.960 . S
C1096 H1083 0.961 . S
C1096 H1084 0.959 . S
C1096 C1094 1.561 . S
C1097 C1094 1.526 . S
C1097 C1098 1.396 . S
C1097 C1102 1.390 . S
C1098 C1092 1.465 . S
C1098 C1097 1.396 . S
C1098 C1099 1.399 . S
C1099 H1085 0.929 . S
C1099 C1098 1.399 . S
C1099 C1100 1.385 . S
C1100 H1086 0.931 . S
C1100 C1099 1.385 . S
C1100 C1101 1.389 . S
C1101 C1100 1.389 . S
C1101 C1102 1.387 . S
C1102 H1087 0.930 . S
C1102 C1097 1.390 . S
C1102 C1101 1.387 . S
H1103 C1115 0.930 . S
H1104 C1117 0.930 . S
H1105 C1118 0.930 . S
H1106 C1122 0.959 . S
H1107 C1122 0.959 . S
H1108 C1122 0.961 . S
H1109 C1123 0.960 . S
H1110 C1123 0.961 . S
H1111 C1123 0.959 . S
H1112 C1126 0.929 . S
H1113 C1127 0.931 . S
H1114 C1129 0.930 . S
C1115 H1103 0.930 . S
C1115 C1116 1.399 . S
C1115 C1120 1.399 . S
C1116 C1115 1.399 . S
C1116 C1117 1.376 . S
C1117 H1104 0.930 . S
C1117 C1116 1.376 . S
C1117 C1118 1.388 . S
C1118 H1105 0.930 . S
C1118 C1117 1.388 . S
C1118 C1119 1.390 . S
C1119 C1118 1.390 . S
C1119 C1120 1.394 . S
C1119 C1125 1.465 . S
C1120 C1115 1.399 . S
C1120 C1119 1.394 . S
C1120 C1121 1.516 . S
C1121 C1120 1.516 . S
C1121 C1122 1.502 . S
C1121 C1123 1.561 . S
C1121 C1124 1.526 . S
C1122 H1106 0.959 . S
C1122 H1107 0.959 . S
C1122 H1108 0.961 . S
C1122 C1121 1.502 . S
C1123 H1109 0.960 . S
C1123 H1110 0.961 . S
C1123 H1111 0.959 . S
C1123 C1121 1.561 . S
C1124 C1121 1.526 . S
C1124 C1125 1.396 . S
C1124 C1129 1.390 . S
C1125 C1119 1.465 . S
C1125 C1124 1.396 . S
C1125 C1126 1.399 . S
C1126 H1112 0.929 . S
C1126 C1125 1.399 . S
C1126 C1127 1.385 . S
C1127 H1113 0.931 . S
C1127 C1126 1.385 . S
C1127 C1128 1.389 . S
C1128 C1127 1.389 . S
C1128 C1129 1.387 . S
C1129 H1114 0.930 . S
C1129 C1124 1.390 . S
C1129 C1128 1.387 . S
H1130 C1142 0.930 . S
H1131 C1144 0.930 . S
H1132 C1145 0.930 . S
H1133 C1149 0.959 . S
H1134 C1149 0.959 . S
H1135 C1149 0.961 . S
H1136 C1150 0.960 . S
H1137 C1150 0.961 . S
H1138 C1150 0.959 . S
H1139 C1153 0.929 . S
H1140 C1154 0.931 . S
H1141 C1156 0.930 . S
C1142 H1130 0.930 . S
C1142 C1143 1.399 . S
C1142 C1147 1.399 . S
C1143 C1142 1.399 . S
C1143 C1144 1.376 . S
C1144 H1131 0.930 . S
C1144 C1143 1.376 . S
C1144 C1145 1.388 . S
C1145 H1132 0.930 . S
C1145 C1144 1.388 . S
C1145 C1146 1.390 . S
C1146 C1145 1.390 . S
C1146 C1147 1.394 . S
C1146 C1152 1.465 . S
C1147 C1142 1.399 . S
C1147 C1146 1.394 . S
C1147 C1148 1.516 . S
C1148 C1147 1.516 . S
C1148 C1149 1.502 . S
C1148 C1150 1.561 . S
C1148 C1151 1.526 . S
C1149 H1133 0.959 . S
C1149 H1134 0.959 . S
C1149 H1135 0.961 . S
C1149 C1148 1.502 . S
C1150 H1136 0.960 . S
C1150 H1137 0.961 . S
C1150 H1138 0.959 . S
C1150 C1148 1.561 . S
C1151 C1148 1.526 . S
C1151 C1152 1.396 . S
C1151 C1156 1.390 . S
C1152 C1146 1.465 . S
C1152 C1151 1.396 . S
C1152 C1153 1.399 . S
C1153 H1139 0.929 . S
C1153 C1152 1.399 . S
C1153 C1154 1.385 . S
C1154 H1140 0.931 . S
C1154 C1153 1.385 . S
C1154 C1155 1.389 . S
C1155 C1154 1.389 . S
C1155 C1156 1.387 . S
C1156 H1141 0.930 . S
C1156 C1151 1.390 . S
C1156 C1155 1.387 . S
H1157 C1169 0.930 . S
H1158 C1171 0.930 . S
H1159 C1172 0.930 . S
H1160 C1176 0.959 1_554 S
H1161 C1176 0.959 . S
H1162 C1176 0.961 . S
H1163 C1177 0.960 . S
H1164 C1177 0.961 . S
H1165 C1177 0.959 1_455 S
H1166 C1180 0.929 . S
H1167 C1181 0.931 . S
H1168 C1183 0.930 . S
C1169 H1157 0.930 . S
C1169 C1170 1.399 1_655 S
C1169 C1174 1.399 . S
C1170 C1169 1.399 1_455 S
C1170 C1171 1.376 . S
C1171 H1158 0.930 . S
C1171 C1170 1.376 . S
C1171 C1172 1.388 1_556 S
C1172 H1159 0.930 . S
C1172 C1171 1.388 1_554 S
C1172 C1173 1.390 . S
C1173 C1172 1.390 . S
C1173 C1174 1.394 1_454 S
C1173 C1179 1.465 . S
C1174 C1169 1.399 . S
C1174 C1173 1.394 1_656 S
C1174 C1175 1.516 . S
C1175 C1174 1.516 . S
C1175 C1176 1.502 . S
C1175 C1177 1.561 . S
C1175 C1178 1.526 1_556 S
C1176 H1160 0.959 1_556 S
C1176 H1161 0.959 . S
C1176 H1162 0.961 . S
C1176 C1175 1.502 . S
C1177 H1163 0.960 . S
C1177 H1164 0.961 . S
C1177 H1165 0.959 1_655 S
C1177 C1175 1.561 . S
C1178 C1175 1.526 1_554 S
C1178 C1179 1.396 1_655 S
C1178 C1183 1.390 . S
C1179 C1173 1.465 . S
C1179 C1178 1.396 1_455 S
C1179 C1180 1.399 . S
C1180 H1166 0.929 . S
C1180 C1179 1.399 . S
C1180 C1181 1.385 . S
C1181 H1167 0.931 . S
C1181 C1180 1.385 . S
C1181 C1182 1.389 . S
C1182 C1181 1.389 . S
C1182 C1183 1.387 1_455 S
C1183 H1168 0.930 . S
C1183 C1178 1.390 . S
C1183 C1182 1.387 1_655 S
H1184 C1196 0.930 . S
H1185 C1198 0.930 . S
H1186 C1199 0.930 . S
H1187 C1203 0.959 . S
H1188 C1203 0.959 . S
H1189 C1203 0.961 . S
H1190 C1204 0.960 . S
H1191 C1204 0.961 . S
H1192 C1204 0.959 . S
H1193 C1207 0.929 . S
H1194 C1208 0.931 . S
H1195 C1210 0.930 . S
C1196 H1184 0.930 . S
C1196 C1197 1.399 . S
C1196 C1201 1.399 . S
C1197 C1196 1.399 . S
C1197 C1198 1.376 . S
C1198 H1185 0.930 . S
C1198 C1197 1.376 . S
C1198 C1199 1.388 . S
C1199 H1186 0.930 . S
C1199 C1198 1.388 . S
C1199 C1200 1.390 . S
C1200 C1199 1.390 . S
C1200 C1201 1.394 . S
C1200 C1206 1.465 . S
C1201 C1196 1.399 . S
C1201 C1200 1.394 . S
C1201 C1202 1.516 . S
C1202 C1201 1.516 . S
C1202 C1203 1.502 . S
C1202 C1204 1.561 . S
C1202 C1205 1.526 . S
C1203 H1187 0.959 . S
C1203 H1188 0.959 . S
C1203 H1189 0.961 . S
C1203 C1202 1.502 . S
C1204 H1190 0.960 . S
C1204 H1191 0.961 . S
C1204 H1192 0.959 . S
C1204 C1202 1.561 . S
C1205 C1202 1.526 . S
C1205 C1206 1.396 . S
C1205 C1210 1.390 . S
C1206 C1200 1.465 . S
C1206 C1205 1.396 . S
C1206 C1207 1.399 . S
C1207 H1193 0.929 . S
C1207 C1206 1.399 . S
C1207 C1208 1.385 . S
C1208 H1194 0.931 . S
C1208 C1207 1.385 . S
C1208 C1209 1.389 . S
C1209 C1208 1.389 . S
C1209 C1210 1.387 . S
C1210 H1195 0.930 . S
C1210 C1205 1.390 . S
C1210 C1209 1.387 . S
H1211 C1223 0.930 . S
H1212 C1225 0.930 . S
H1213 C1226 0.930 . S
H1214 C1230 0.959 . S
H1215 C1230 0.959 . S
H1216 C1230 0.961 . S
H1217 C1231 0.960 . S
H1218 C1231 0.961 . S
H1219 C1231 0.959 . S
H1220 C1234 0.929 . S
H1221 C1235 0.931 . S
H1222 C1237 0.930 . S
C1223 H1211 0.930 . S
C1223 C1224 1.399 . S
C1223 C1228 1.399 . S
C1224 C1223 1.399 . S
C1224 C1225 1.376 . S
C1225 H1212 0.930 . S
C1225 C1224 1.376 . S
C1225 C1226 1.388 . S
C1226 H1213 0.930 . S
C1226 C1225 1.388 . S
C1226 C1227 1.390 . S
C1227 C1226 1.390 . S
C1227 C1228 1.394 . S
C1227 C1233 1.465 . S
C1228 C1223 1.399 . S
C1228 C1227 1.394 . S
C1228 C1229 1.516 . S
C1229 C1228 1.516 . S
C1229 C1230 1.502 . S
C1229 C1231 1.561 . S
C1229 C1232 1.526 . S
C1230 H1214 0.959 . S
C1230 H1215 0.959 . S
C1230 H1216 0.961 . S
C1230 C1229 1.502 . S
C1231 H1217 0.960 . S
C1231 H1218 0.961 . S
C1231 H1219 0.959 . S
C1231 C1229 1.561 . S
C1232 C1229 1.526 . S
C1232 C1233 1.396 . S
C1232 C1237 1.390 . S
C1233 C1227 1.465 . S
C1233 C1232 1.396 . S
C1233 C1234 1.399 . S
C1234 H1220 0.929 . S
C1234 C1233 1.399 . S
C1234 C1235 1.385 . S
C1235 H1221 0.931 . S
C1235 C1234 1.385 . S
C1235 C1236 1.389 . S
C1236 C1235 1.389 . S
C1236 C1237 1.387 . S
C1237 H1222 0.930 . S
C1237 C1232 1.390 . S
C1237 C1236 1.387 . S
H1238 C1250 0.930 1_554 S
H1239 C1252 0.930 . S
H1240 C1253 0.930 . S
H1241 C1257 0.959 . S
H1242 C1257 0.959 . S
H1243 C1257 0.961 . S
H1244 C1258 0.973 . S
H1245 C1258 0.961 . S
H1246 C1258 0.959 . S
H1247 C1261 0.929 . S
H1248 C1262 0.931 . S
H1249 C1264 0.930 . S
C1250 H1238 0.930 1_556 S
C1250 C1251 1.399 1_556 S
C1250 C1255 1.399 . S
C1251 C1250 1.399 1_554 S
C1251 C1252 1.376 1_554 S
C1252 H1239 0.930 . S
C1252 C1251 1.376 1_556 S
C1252 C1253 1.388 . S
C1253 H1240 0.930 . S
C1253 C1252 1.388 . S
C1253 C1254 1.390 . S
C1254 C1253 1.390 . S
C1254 C1255 1.394 . S
C1254 C1260 1.465 . S
C1255 C1250 1.399 . S
C1255 C1254 1.394 . S
C1255 C1256 1.516 . S
C1256 C1255 1.516 . S
C1256 C1257 1.502 . S
C1256 C1258 1.561 . S
C1256 C1259 1.526 . S
C1257 H1241 0.959 . S
C1257 H1242 0.959 . S
C1257 H1243 0.961 . S
C1257 C1256 1.502 . S
C1258 H1244 0.973 . S
C1258 H1245 0.961 . S
C1258 H1246 0.959 . S
C1258 C1256 1.561 . S
C1259 C1256 1.526 . S
C1259 C1260 1.396 . S
C1259 C1264 1.390 . S
C1260 C1254 1.465 . S
C1260 C1259 1.396 . S
C1260 C1261 1.399 . S
C1261 H1247 0.929 . S
C1261 C1260 1.399 . S
C1261 C1262 1.385 . S
C1262 H1248 0.931 . S
C1262 C1261 1.385 . S
C1262 C1263 1.389 . S
C1263 C1262 1.389 . S
C1263 C1264 1.387 . S
C1264 H1249 0.930 . S
C1264 C1259 1.390 . S
C1264 C1263 1.387 . S
H1265 C1277 0.930 . S
H1266 C1279 0.930 . S
H1267 C1280 0.930 . S
H1268 C1284 0.959 . S
H1269 C1284 0.959 . S
H1270 C1284 0.961 . S
H1271 C1285 0.960 . S
H1272 C1285 0.961 . S
H1273 C1285 0.959 . S
H1274 C1288 0.929 . S
H1275 C1289 0.931 . S
H1276 C1291 0.930 . S
C1277 H1265 0.930 . S
C1277 C1278 1.399 . S
C1277 C1282 1.399 . S
C1278 C1277 1.399 . S
C1278 C1279 1.376 . S
C1279 H1266 0.930 . S
C1279 C1278 1.376 . S
C1279 C1280 1.388 . S
C1280 H1267 0.930 . S
C1280 C1279 1.388 . S
C1280 C1281 1.390 . S
C1281 C1280 1.390 . S
C1281 C1282 1.394 . S
C1281 C1287 1.465 . S
C1282 C1277 1.399 . S
C1282 C1281 1.394 . S
C1282 C1283 1.516 . S
C1283 C1282 1.516 . S
C1283 C1284 1.502 . S
C1283 C1285 1.561 . S
C1283 C1286 1.526 . S
C1284 H1268 0.959 . S
C1284 H1269 0.959 . S
C1284 H1270 0.961 . S
C1284 C1283 1.502 . S
C1285 H1271 0.960 . S
C1285 H1272 0.961 . S
C1285 H1273 0.959 . S
C1285 C1283 1.561 . S
C1286 C1283 1.526 . S
C1286 C1287 1.396 . S
C1286 C1291 1.390 . S
C1287 C1281 1.465 . S
C1287 C1286 1.396 . S
C1287 C1288 1.399 . S
C1288 H1274 0.929 . S
C1288 C1287 1.399 . S
C1288 C1289 1.385 . S
C1289 H1275 0.931 . S
C1289 C1288 1.385 . S
C1289 C1290 1.389 . S
C1290 C1289 1.389 . S
C1290 C1291 1.387 . S
C1291 H1276 0.930 . S
C1291 C1286 1.390 . S
C1291 C1290 1.387 . S
H1292 C1304 0.930 . S
H1293 C1306 0.930 . S
H1294 C1307 0.930 . S
H1295 C1311 0.959 . S
H1296 C1311 0.959 . S
H1297 C1311 0.961 . S
H1298 C1312 0.960 . S
H1299 C1312 0.961 . S
H1300 C1312 0.959 . S
H1301 C1315 0.929 . S
H1302 C1316 0.931 . S
H1303 C1318 0.930 . S
C1304 H1292 0.930 . S
C1304 C1305 1.399 . S
C1304 C1309 1.399 . S
C1305 C1304 1.399 . S
C1305 C1306 1.376 . S
C1306 H1293 0.930 . S
C1306 C1305 1.376 . S
C1306 C1307 1.388 . S
C1307 H1294 0.930 . S
C1307 C1306 1.388 . S
C1307 C1308 1.390 . S
C1308 C1307 1.390 . S
C1308 C1309 1.394 . S
C1308 C1314 1.465 . S
C1309 C1304 1.399 . S
C1309 C1308 1.394 . S
C1309 C1310 1.516 . S
C1310 C1309 1.516 . S
C1310 C1311 1.502 . S
C1310 C1312 1.561 . S
C1310 C1313 1.526 . S
C1311 H1295 0.959 . S
C1311 H1296 0.959 . S
C1311 H1297 0.961 . S
C1311 C1310 1.502 . S
C1312 H1298 0.960 . S
C1312 H1299 0.961 . S
C1312 H1300 0.959 . S
C1312 C1310 1.561 . S
C1313 C1310 1.526 . S
C1313 C1314 1.396 . S
C1313 C1318 1.390 . S
C1314 C1308 1.465 . S
C1314 C1313 1.396 . S
C1314 C1315 1.399 . S
C1315 H1301 0.929 . S
C1315 C1314 1.399 . S
C1315 C1316 1.385 . S
C1316 H1302 0.931 . S
C1316 C1315 1.385 . S
C1316 C1317 1.389 . S
C1317 C1316 1.389 . S
C1317 C1318 1.387 . S
C1318 H1303 0.930 . S
C1318 C1313 1.390 . S
C1318 C1317 1.387 . S
H1319 C1331 0.930 . S
H1320 C1333 0.930 . S
H1321 C1334 0.930 . S
H1322 C1338 0.959 . S
H1323 C1338 0.959 . S
H1324 C1338 0.961 . S
H1325 C1339 0.960 . S
H1326 C1339 0.961 . S
H1327 C1339 0.959 . S
H1328 C1342 0.929 . S
H1329 C1343 0.931 . S
H1330 C1345 0.930 . S
C1331 H1319 0.930 . S
C1331 C1332 1.399 . S
C1331 C1336 1.399 . S
C1332 C1331 1.399 . S
C1332 C1333 1.376 . S
C1333 H1320 0.930 . S
C1333 C1332 1.376 . S
C1333 C1334 1.388 . S
C1334 H1321 0.930 . S
C1334 C1333 1.388 . S
C1334 C1335 1.390 . S
C1335 C1334 1.390 . S
C1335 C1336 1.394 . S
C1335 C1341 1.465 . S
C1336 C1331 1.399 . S
C1336 C1335 1.394 . S
C1336 C1337 1.516 . S
C1337 C1336 1.516 . S
C1337 C1338 1.502 . S
C1337 C1339 1.561 . S
C1337 C1340 1.526 . S
C1338 H1322 0.959 . S
C1338 H1323 0.959 . S
C1338 H1324 0.961 . S
C1338 C1337 1.502 . S
C1339 H1325 0.960 . S
C1339 H1326 0.961 . S
C1339 H1327 0.959 . S
C1339 C1337 1.561 . S
C1340 C1337 1.526 . S
C1340 C1341 1.396 . S
C1340 C1345 1.390 . S
C1341 C1335 1.465 . S
C1341 C1340 1.396 . S
C1341 C1342 1.399 . S
C1342 H1328 0.929 . S
C1342 C1341 1.399 . S
C1342 C1343 1.385 . S
C1343 H1329 0.931 . S
C1343 C1342 1.385 . S
C1343 C1344 1.389 . S
C1344 C1343 1.389 . S
C1344 C1345 1.387 . S
C1345 H1330 0.930 . S
C1345 C1340 1.390 . S
C1345 C1344 1.387 . S
H1346 C1358 0.930 . S
H1347 C1360 0.930 . S
H1348 C1361 0.930 . S
H1349 C1365 0.959 . S
H1350 C1365 0.959 . S
H1351 C1365 0.961 . S
H1352 C1366 0.960 . S
H1353 C1366 0.961 . S
H1354 C1366 0.959 . S
H1355 C1369 0.929 . S
H1356 C1370 0.931 . S
H1357 C1372 0.930 . S
C1358 H1346 0.930 . S
C1358 C1359 1.399 . S
C1358 C1363 1.399 . S
C1359 C1358 1.399 . S
C1359 C1360 1.376 . S
C1360 H1347 0.930 . S
C1360 C1359 1.376 . S
C1360 C1361 1.388 . S
C1361 H1348 0.930 . S
C1361 C1360 1.388 . S
C1361 C1362 1.390 . S
C1362 C1361 1.390 . S
C1362 C1363 1.394 . S
C1362 C1368 1.465 . S
C1363 C1358 1.399 . S
C1363 C1362 1.394 . S
C1363 C1364 1.516 . S
C1364 C1363 1.516 . S
C1364 C1365 1.502 . S
C1364 C1366 1.561 . S
C1364 C1367 1.526 . S
C1365 H1349 0.959 . S
C1365 H1350 0.959 . S
C1365 H1351 0.961 . S
C1365 C1364 1.502 . S
C1366 H1352 0.960 . S
C1366 H1353 0.961 . S
C1366 H1354 0.959 . S
C1366 C1364 1.561 . S
C1367 C1364 1.526 . S
C1367 C1368 1.396 . S
C1367 C1372 1.390 . S
C1368 C1362 1.465 . S
C1368 C1367 1.396 . S
C1368 C1369 1.399 . S
C1369 H1355 0.929 . S
C1369 C1368 1.399 . S
C1369 C1370 1.385 . S
C1370 H1356 0.931 . S
C1370 C1369 1.385 . S
C1370 C1371 1.389 . S
C1371 C1370 1.389 . S
C1371 C1372 1.387 . S
C1372 H1357 0.930 . S
C1372 C1367 1.390 . S
C1372 C1371 1.387 . S
H1373 C1385 0.930 . S
H1374 C1387 0.930 . S
H1375 C1388 0.930 . S
H1376 C1392 0.959 . S
H1377 C1392 0.959 . S
H1378 C1392 0.961 . S
H1379 C1393 0.960 . S
H1380 C1393 0.961 . S
H1381 C1393 0.959 . S
H1382 C1396 0.929 . S
H1383 C1397 0.922 1_554 S
H1384 C1399 0.930 . S
C1385 H1373 0.930 . S
C1385 C1386 1.399 . S
C1385 C1390 1.399 . S
C1386 C1385 1.399 . S
C1386 C1387 1.376 . S
C1387 H1374 0.930 . S
C1387 C1386 1.376 . S
C1387 C1388 1.388 . S
C1388 H1375 0.930 . S
C1388 C1387 1.388 . S
C1388 C1389 1.390 . S
C1389 C1388 1.390 . S
C1389 C1390 1.394 . S
C1389 C1395 1.465 . S
C1390 C1385 1.399 . S
C1390 C1389 1.394 . S
C1390 C1391 1.516 . S
C1391 C1390 1.516 . S
C1391 C1392 1.502 . S
C1391 C1393 1.561 . S
C1391 C1394 1.526 . S
C1392 H1376 0.959 . S
C1392 H1377 0.959 . S
C1392 H1378 0.961 . S
C1392 C1391 1.502 . S
C1393 H1379 0.960 . S
C1393 H1380 0.961 . S
C1393 H1381 0.959 . S
C1393 C1391 1.561 . S
C1394 C1391 1.526 . S
C1394 C1395 1.396 . S
C1394 C1399 1.390 . S
C1395 C1389 1.465 . S
C1395 C1394 1.396 . S
C1395 C1396 1.399 . S
C1396 H1382 0.929 . S
C1396 C1395 1.399 . S
C1396 C1397 1.391 . S
C1397 H1383 0.922 1_556 S
C1397 C1396 1.391 . S
C1397 C1398 1.392 . S
C1398 C1397 1.392 . S
C1398 C1399 1.387 . S
C1399 H1384 0.930 . S
C1399 C1394 1.390 . S
C1399 C1398 1.387 . S
H1400 C1412 0.930 . S
H1401 C1414 0.930 . S
H1402 C1415 0.930 . S
H1403 C1419 0.959 . S
H1404 C1419 0.959 . S
H1405 C1419 0.961 . S
H1406 C1420 0.960 . S
H1407 C1420 0.961 . S
H1408 C1420 0.959 . S
H1409 C1423 0.929 . S
H1410 C1424 0.931 . S
H1411 C1426 0.930 . S
C1412 H1400 0.930 . S
C1412 C1413 1.399 . S
C1412 C1417 1.399 . S
C1413 C1412 1.399 . S
C1413 C1414 1.376 . S
C1414 H1401 0.930 . S
C1414 C1413 1.376 . S
C1414 C1415 1.388 . S
C1415 H1402 0.930 . S
C1415 C1414 1.388 . S
C1415 C1416 1.390 . S
C1416 C1415 1.390 . S
C1416 C1417 1.394 . S
C1416 C1422 1.465 . S
C1417 C1412 1.399 . S
C1417 C1416 1.394 . S
C1417 C1418 1.516 . S
C1418 C1417 1.516 . S
C1418 C1419 1.502 . S
C1418 C1420 1.561 . S
C1418 C1421 1.526 . S
C1419 H1403 0.959 . S
C1419 H1404 0.959 . S
C1419 H1405 0.961 . S
C1419 C1418 1.502 . S
C1420 H1406 0.960 . S
C1420 H1407 0.961 . S
C1420 H1408 0.959 . S
C1420 C1418 1.561 . S
C1421 C1418 1.526 . S
C1421 C1422 1.396 . S
C1421 C1426 1.390 . S
C1422 C1416 1.465 . S
C1422 C1421 1.396 . S
C1422 C1423 1.399 . S
C1423 H1409 0.929 . S
C1423 C1422 1.399 . S
C1423 C1424 1.385 . S
C1424 H1410 0.931 . S
C1424 C1423 1.385 . S
C1424 C1425 1.389 . S
C1425 C1424 1.389 . S
C1425 C1426 1.387 . S
C1426 H1411 0.930 . S
C1426 C1421 1.390 . S
C1426 C1425 1.387 . S
H1427 C1439 0.930 . S
H1428 C1441 0.930 . S
H1429 C1442 0.930 . S
H1430 C1446 0.959 . S
H1431 C1446 0.959 . S
H1432 C1446 0.961 . S
H1433 C1447 0.960 . S
H1434 C1447 0.961 . S
H1435 C1447 0.959 . S
H1436 C1450 0.929 . S
H1437 C1451 0.931 . S
H1438 C1453 0.930 . S
C1439 H1427 0.930 . S
C1439 C1440 1.399 . S
C1439 C1444 1.399 . S
C1440 C1439 1.399 . S
C1440 C1441 1.376 . S
C1441 H1428 0.930 . S
C1441 C1440 1.376 . S
C1441 C1442 1.388 . S
C1442 H1429 0.930 . S
C1442 C1441 1.388 . S
C1442 C1443 1.390 . S
C1443 C1442 1.390 . S
C1443 C1444 1.394 . S
C1443 C1449 1.465 . S
C1444 C1439 1.399 . S
C1444 C1443 1.394 . S
C1444 C1445 1.516 . S
C1445 C1444 1.516 . S
C1445 C1446 1.502 . S
C1445 C1447 1.561 . S
C1445 C1448 1.526 . S
C1446 H1430 0.959 . S
C1446 H1431 0.959 . S
C1446 H1432 0.961 . S
C1446 C1445 1.502 . S
C1447 H1433 0.960 . S
C1447 H1434 0.961 . S
C1447 H1435 0.959 . S
C1447 C1445 1.561 . S
C1448 C1445 1.526 . S
C1448 C1449 1.396 . S
C1448 C1453 1.390 . S
C1449 C1443 1.465 . S
C1449 C1448 1.396 . S
C1449 C1450 1.399 . S
C1450 H1436 0.929 . S
C1450 C1449 1.399 . S
C1450 C1451 1.385 . S
C1451 H1437 0.931 . S
C1451 C1450 1.385 . S
C1451 C1452 1.389 . S
C1452 C1451 1.389 . S
C1452 C1453 1.387 . S
C1453 H1438 0.930 . S
C1453 C1448 1.390 . S
C1453 C1452 1.387 . S
H1454 C1466 0.930 . S
H1455 C1468 0.930 . S
H1456 C1469 0.930 . S
H1457 C1473 0.959 . S
H1458 C1473 0.959 . S
H1459 C1473 0.961 . S
H1460 C1474 0.960 . S
H1461 C1474 0.961 . S
H1462 C1474 0.959 . S
H1463 C1477 0.929 . S
H1464 C1478 0.931 . S
H1465 C1480 0.930 . S
C1466 H1454 0.930 . S
C1466 C1467 1.399 . S
C1466 C1471 1.399 . S
C1467 C1466 1.399 . S
C1467 C1468 1.376 . S
C1468 H1455 0.930 . S
C1468 C1467 1.376 . S
C1468 C1469 1.388 . S
C1469 H1456 0.930 . S
C1469 C1468 1.388 . S
C1469 C1470 1.390 . S
C1470 C1469 1.390 . S
C1470 C1471 1.394 . S
C1470 C1476 1.465 . S
C1471 C1466 1.399 . S
C1471 C1470 1.394 . S
C1471 C1472 1.516 . S
C1472 C1471 1.516 . S
C1472 C1473 1.502 . S
C1472 C1474 1.561 . S
C1472 C1475 1.526 . S
C1473 H1457 0.959 . S
C1473 H1458 0.959 . S
C1473 H1459 0.961 . S
C1473 C1472 1.502 . S
C1474 H1460 0.960 . S
C1474 H1461 0.961 . S
C1474 H1462 0.959 . S
C1474 C1472 1.561 . S
C1475 C1472 1.526 . S
C1475 C1476 1.396 . S
C1475 C1480 1.390 . S
C1476 C1470 1.465 . S
C1476 C1475 1.396 . S
C1476 C1477 1.399 . S
C1477 H1463 0.929 . S
C1477 C1476 1.399 . S
C1477 C1478 1.385 . S
C1478 H1464 0.931 . S
C1478 C1477 1.385 . S
C1478 C1479 1.389 . S
C1479 C1478 1.389 . S
C1479 C1480 1.387 . S
C1480 H1465 0.930 . S
C1480 C1475 1.390 . S
C1480 C1479 1.387 . S
H1481 C1493 0.930 . S
H1482 C1495 0.930 . S
H1483 C1496 0.930 . S
H1484 C1500 0.959 . S
H1485 C1500 0.959 . S
H1486 C1500 0.961 . S
H1487 C1501 0.960 . S
H1488 C1501 0.961 . S
H1489 C1501 0.959 . S
H1490 C1504 0.929 . S
H1491 C1505 0.931 . S
H1492 C1507 0.930 . S
C1493 H1481 0.930 . S
C1493 C1494 1.399 . S
C1493 C1498 1.399 . S
C1494 C1493 1.399 . S
C1494 C1495 1.376 . S
C1495 H1482 0.930 . S
C1495 C1494 1.376 . S
C1495 C1496 1.388 . S
C1496 H1483 0.930 . S
C1496 C1495 1.388 . S
C1496 C1497 1.390 . S
C1497 C1496 1.390 . S
C1497 C1498 1.394 . S
C1497 C1503 1.465 . S
C1498 C1493 1.399 . S
C1498 C1497 1.394 . S
C1498 C1499 1.516 . S
C1499 C1498 1.516 . S
C1499 C1500 1.502 . S
C1499 C1501 1.561 . S
C1499 C1502 1.526 . S
C1500 H1484 0.959 . S
C1500 H1485 0.959 . S
C1500 H1486 0.961 . S
C1500 C1499 1.502 . S
C1501 H1487 0.960 . S
C1501 H1488 0.961 . S
C1501 H1489 0.959 . S
C1501 C1499 1.561 . S
C1502 C1499 1.526 . S
C1502 C1503 1.396 . S
C1502 C1507 1.390 . S
C1503 C1497 1.465 . S
C1503 C1502 1.396 . S
C1503 C1504 1.399 . S
C1504 H1490 0.929 . S
C1504 C1503 1.399 . S
C1504 C1505 1.385 . S
C1505 H1491 0.931 . S
C1505 C1504 1.385 . S
C1505 C1506 1.389 . S
C1506 C1505 1.389 . S
C1506 C1507 1.387 . S
C1507 H1492 0.930 . S
C1507 C1502 1.390 . S
C1507 C1506 1.387 . S
H1508 C1520 0.930 . S
H1509 C1522 0.930 . S
H1510 C1523 0.930 . S
H1511 C1527 0.959 . S
H1512 C1527 0.959 . S
H1513 C1527 0.961 . S
H1514 C1528 0.960 . S
H1515 C1528 0.961 . S
H1516 C1528 0.959 . S
H1517 C1531 0.929 . S
H1518 C1532 0.931 1_556 S
H1519 C1534 0.930 . S
C1520 H1508 0.930 . S
C1520 C1521 1.399 . S
C1520 C1525 1.399 . S
C1521 C1520 1.399 . S
C1521 C1522 1.376 . S
C1522 H1509 0.930 . S
C1522 C1521 1.376 . S
C1522 C1523 1.388 . S
C1523 H1510 0.930 . S
C1523 C1522 1.388 . S
C1523 C1524 1.390 . S
C1524 C1523 1.390 . S
C1524 C1525 1.394 . S
C1524 C1530 1.465 . S
C1525 C1520 1.399 . S
C1525 C1524 1.394 . S
C1525 C1526 1.516 . S
C1526 C1525 1.516 . S
C1526 C1527 1.502 . S
C1526 C1528 1.561 . S
C1526 C1529 1.526 . S
C1527 H1511 0.959 . S
C1527 H1512 0.959 . S
C1527 H1513 0.961 . S
C1527 C1526 1.502 . S
C1528 H1514 0.960 . S
C1528 H1515 0.961 . S
C1528 H1516 0.959 . S
C1528 C1526 1.561 . S
C1529 C1526 1.526 . S
C1529 C1530 1.396 . S
C1529 C1534 1.390 . S
C1530 C1524 1.465 . S
C1530 C1529 1.396 . S
C1530 C1531 1.399 . S
C1531 H1517 0.929 . S
C1531 C1530 1.399 . S
C1531 C1532 1.385 . S
C1532 H1518 0.931 1_554 S
C1532 C1531 1.385 . S
C1532 C1533 1.389 . S
C1533 C1532 1.389 . S
C1533 C1534 1.387 . S
C1534 H1519 0.930 . S
C1534 C1529 1.390 . S
C1534 C1533 1.387 . S
H1535 C1547 0.930 . S
H1536 C1549 0.930 . S
H1537 C1550 0.930 . S
H1538 C1554 0.959 . S
H1539 C1554 0.959 . S
H1540 C1554 0.961 . S
H1541 C1555 0.960 . S
H1542 C1555 0.961 . S
H1543 C1555 0.959 . S
H1544 C1558 0.929 . S
H1545 C1559 0.931 . S
H1546 C1561 0.930 . S
C1547 H1535 0.930 . S
C1547 C1548 1.399 . S
C1547 C1552 1.399 . S
C1548 C1547 1.399 . S
C1548 C1549 1.376 . S
C1549 H1536 0.930 . S
C1549 C1548 1.376 . S
C1549 C1550 1.388 . S
C1550 H1537 0.930 . S
C1550 C1549 1.388 . S
C1550 C1551 1.390 . S
C1551 C1550 1.390 . S
C1551 C1552 1.394 . S
C1551 C1557 1.465 . S
C1552 C1547 1.399 . S
C1552 C1551 1.394 . S
C1552 C1553 1.516 . S
C1553 C1552 1.516 . S
C1553 C1554 1.502 . S
C1553 C1555 1.561 . S
C1553 C1556 1.526 . S
C1554 H1538 0.959 . S
C1554 H1539 0.959 . S
C1554 H1540 0.961 . S
C1554 C1553 1.502 . S
C1555 H1541 0.960 . S
C1555 H1542 0.961 . S
C1555 H1543 0.959 . S
C1555 C1553 1.561 . S
C1556 C1553 1.526 . S
C1556 C1557 1.396 . S
C1556 C1561 1.390 . S
C1557 C1551 1.465 . S
C1557 C1556 1.396 . S
C1557 C1558 1.399 . S
C1558 H1544 0.929 . S
C1558 C1557 1.399 . S
C1558 C1559 1.385 . S
C1559 H1545 0.931 . S
C1559 C1558 1.385 . S
C1559 C1560 1.389 . S
C1560 C1559 1.389 . S
C1560 C1561 1.387 . S
C1561 H1546 0.930 . S
C1561 C1556 1.390 . S
C1561 C1560 1.387 . S
H1562 C1574 0.930 . S
H1563 C1576 0.930 . S
H1564 C1577 0.930 . S
H1565 C1581 0.959 . S
H1566 C1581 0.959 . S
H1567 C1581 0.961 . S
H1568 C1582 0.960 . S
H1569 C1582 0.961 . S
H1570 C1582 0.959 . S
H1571 C1585 0.929 . S
H1572 C1586 0.931 . S
H1573 C1588 0.930 . S
C1574 H1562 0.930 . S
C1574 C1575 1.399 . S
C1574 C1579 1.399 . S
C1575 C1574 1.399 . S
C1575 C1576 1.376 . S
C1576 H1563 0.930 . S
C1576 C1575 1.376 . S
C1576 C1577 1.388 . S
C1577 H1564 0.930 . S
C1577 C1576 1.388 . S
C1577 C1578 1.390 . S
C1578 C1577 1.390 . S
C1578 C1579 1.394 . S
C1578 C1584 1.465 . S
C1579 C1574 1.399 . S
C1579 C1578 1.394 . S
C1579 C1580 1.516 . S
C1580 C1579 1.516 . S
C1580 C1581 1.502 . S
C1580 C1582 1.561 . S
C1580 C1583 1.526 . S
C1581 H1565 0.959 . S
C1581 H1566 0.959 . S
C1581 H1567 0.961 . S
C1581 C1580 1.502 . S
C1582 H1568 0.960 . S
C1582 H1569 0.961 . S
C1582 H1570 0.959 . S
C1582 C1580 1.561 . S
C1583 C1580 1.526 . S
C1583 C1584 1.396 . S
C1583 C1588 1.390 . S
C1584 C1578 1.465 . S
C1584 C1583 1.396 . S
C1584 C1585 1.399 . S
C1585 H1571 0.929 . S
C1585 C1584 1.399 . S
C1585 C1586 1.385 . S
C1586 H1572 0.931 . S
C1586 C1585 1.385 . S
C1586 C1587 1.389 . S
C1587 C1586 1.389 . S
C1587 C1588 1.387 . S
C1588 H1573 0.930 . S
C1588 C1583 1.390 . S
C1588 C1587 1.387 . S
H1589 C1601 0.930 . S
H1590 C1603 0.930 . S
H1591 C1604 0.930 . S
H1592 C1608 0.959 . S
H1593 C1608 0.959 . S
H1594 C1608 0.961 . S
H1595 C1609 0.960 . S
H1596 C1609 0.961 . S
H1597 C1609 0.959 . S
H1598 C1612 0.929 . S
H1599 C1613 0.931 . S
H1600 C1615 0.930 . S
C1601 H1589 0.930 . S
C1601 C1602 1.399 . S
C1601 C1606 1.399 . S
C1602 C1601 1.399 . S
C1602 C1603 1.376 . S
C1603 H1590 0.930 . S
C1603 C1602 1.376 . S
C1603 C1604 1.388 . S
C1604 H1591 0.930 . S
C1604 C1603 1.388 . S
C1604 C1605 1.390 . S
C1605 C1604 1.390 . S
C1605 C1606 1.394 . S
C1605 C1611 1.465 . S
C1606 C1601 1.399 . S
C1606 C1605 1.394 . S
C1606 C1607 1.516 . S
C1607 C1606 1.516 . S
C1607 C1608 1.502 . S
C1607 C1609 1.561 . S
C1607 C1610 1.526 . S
C1608 H1592 0.959 . S
C1608 H1593 0.959 . S
C1608 H1594 0.961 . S
C1608 C1607 1.502 . S
C1609 H1595 0.960 . S
C1609 H1596 0.961 . S
C1609 H1597 0.959 . S
C1609 C1607 1.561 . S
C1610 C1607 1.526 . S
C1610 C1611 1.396 . S
C1610 C1615 1.390 . S
C1611 C1605 1.465 . S
C1611 C1610 1.396 . S
C1611 C1612 1.399 . S
C1612 H1598 0.929 . S
C1612 C1611 1.399 . S
C1612 C1613 1.385 . S
C1613 H1599 0.931 . S
C1613 C1612 1.385 . S
C1613 C1614 1.389 . S
C1614 C1613 1.389 . S
C1614 C1615 1.387 . S
C1615 H1600 0.930 . S
C1615 C1610 1.390 . S
C1615 C1614 1.387 . S
C333 C19 1.662 1_556 S
C345 C159 1.662 . S
C360 C39 2.006 . S
C372 C99 1.992 1_554 S
C387 C102 1.498 . S
C399 C59 1.433 . S
C414 C79 1.994 . S
C426 C139 1.954 . S
C441 C221 0.397 . S
C453 C81 0.552 . S
C468 C178 0.863 . S
C480 C1 0.824 . S
C495 C201 0.525 . S
C507 C121 0.464 . S
C522 C41 0.720 . S
C534 C181 0.591 . S
C549 C199 1.610 . S
C561 C259 1.671 . S
C576 C219 1.961 . S
C588 C299 2.004 . S
C603 C279 1.451 . S
C615 C162 1.495 . S
C630 C239 1.956 . S
C642 C319 1.963 1_554 S
C657 C281 0.556 . S
C669 C61 0.367 . S
C684 C241 0.735 . S
C696 C118 0.816 . S
C711 C21 0.361 . S
C723 C301 0.402 . S
C738 C141 0.623 . S
C750 C261 0.641 1_556 S
C765 C269 0.786 . S
C777 C9 0.574 1_455 S
C792 C229 0.670 . S
C804 C29 0.553 . S
C819 C249 0.571 . S
C831 C49 0.650 . S
C846 C209 0.652 . S
C858 C69 0.559 . S
C873 C89 0.635 1_455 S
C885 C309 0.573 . S
C900 C189 0.635 . S
C912 C108 0.706 . S
C927 C129 0.634 . S
C939 C289 0.722 . S
C954 C149 0.678 . S
C966 C168 0.755 . S
C981 C8 1.305 . S
C993 C88 1.349 . S
C1008 C28 1.416 . S
C1020 C109 1.339 . S
C1035 C128 1.406 . S
C1047 C48 1.373 . S
C1062 C68 1.323 . S
C1074 C148 1.340 . S
C1089 C208 1.415 . S
C1101 C169 1.340 . S
C1116 C228 1.407 . S
C1128 C188 1.364 . S
C1143 C248 1.320 . S
C1155 C288 1.278 . S
C1170 C308 1.439 1_455 S
C1182 C268 1.460 1_455 S
C1197 C2 1.227 . S
C1209 C142 1.284 . S
C1224 C22 1.034 . S
C1236 C82 0.989 . S
C1251 C119 1.454 . S
C1263 C42 1.396 . S
C1278 C122 1.014 . S
C1290 C62 1.004 . S
C1305 C238 2.520 . S
C1317 C98 2.506 . S
C1332 C161 1.970 . S
C1344 C18 2.030 . S
C1359 C218 2.508 1_554 S
C1371 C138 2.495 . S
C1386 C58 2.225 . S
C1398 C198 2.202 1_556 S
C1413 C242 1.201 . S
C1425 C182 1.275 1_556 S
C1440 C282 0.933 . S
C1452 C202 1.019 1_554 S
C1467 C262 1.389 . S
C1479 C179 1.469 . S
C1494 C302 1.038 . S
C1506 C222 0.940 . S
C1521 C298 2.520 . S
C1533 C78 2.505 1_554 S
C1548 C101 1.964 1_556 S
C1560 C258 2.030 . S
C1575 C38 2.510 . S
C1587 C318 2.496 . S
C1602 C278 2.226 . S
C1614 C158 2.209 . S
