# Generated by pormake.
# Topology ukf, (4)-cn, num edge types: 1
# Building blocks:
#     Node 0, Type 0, BuildingBlock: QUQFOY_clean_sbu_1, # of connection points: 4
#     Node 1, Type 0, BuildingBlock: QUQFOY_clean_sbu_1, # of connection points: 4
#     Node 2, Type 0, BuildingBlock: QUQFOY_clean_sbu_1, # of connection points: 4
#     Node 3, Type 0, BuildingBlock: QUQFOY_clean_sbu_1, # of connection points: 4
#     Node 4, Type 0, BuildingBlock: QUQFOY_clean_sbu_1, # of connection points: 4
#     Node 5, Type 0, BuildingBlock: QUQFOY_clean_sbu_1, # of connection points: 4
#     Node 6, Type 0, BuildingBlock: QUQFOY_clean_sbu_1, # of connection points: 4
#     Node 7, Type 0, BuildingBlock: QUQFOY_clean_sbu_1, # of connection points: 4
#     Node 8, Type 0, BuildingBlock: QUQFOY_clean_sbu_1, # of connection points: 4
#     Node 9, Type 0, BuildingBlock: QUQFOY_clean_sbu_1, # of connection points: 4
#     Node 10, Type 0, BuildingBlock: QUQFOY_clean_sbu_1, # of connection points: 4
#     Node 11, Type 0, BuildingBlock: QUQFOY_clean_sbu_1, # of connection points: 4
#     Edge 12, Type (0, 0), BuildingBlock: TEMPAE_clean_linker_10, # of connection points: 2
#     Edge 13, Type (0, 0), BuildingBlock: TEMPAE_clean_linker_10, # of connection points: 2
#     Edge 14, Type (0, 0), BuildingBlock: TEMPAE_clean_linker_10, # of connection points: 2
#     Edge 15, Type (0, 0), BuildingBlock: TEMPAE_clean_linker_10, # of connection points: 2
#     Edge 16, Type (0, 0), BuildingBlock: TEMPAE_clean_linker_10, # of connection points: 2
#     Edge 17, Type (0, 0), BuildingBlock: TEMPAE_clean_linker_10, # of connection points: 2
#     Edge 18, Type (0, 0), BuildingBlock: TEMPAE_clean_linker_10, # of connection points: 2
#     Edge 19, Type (0, 0), BuildingBlock: TEMPAE_clean_linker_10, # of connection points: 2
#     Edge 20, Type (0, 0), BuildingBlock: TEMPAE_clean_linker_10, # of connection points: 2
#     Edge 21, Type (0, 0), BuildingBlock: TEMPAE_clean_linker_10, # of connection points: 2
#     Edge 22, Type (0, 0), BuildingBlock: TEMPAE_clean_linker_10, # of connection points: 2
#     Edge 23, Type (0, 0), BuildingBlock: TEMPAE_clean_linker_10, # of connection points: 2
#     Edge 24, Type (0, 0), BuildingBlock: TEMPAE_clean_linker_10, # of connection points: 2
#     Edge 25, Type (0, 0), BuildingBlock: TEMPAE_clean_linker_10, # of connection points: 2
#     Edge 26, Type (0, 0), BuildingBlock: TEMPAE_clean_linker_10, # of connection points: 2
#     Edge 27, Type (0, 0), BuildingBlock: TEMPAE_clean_linker_10, # of connection points: 2
#     Edge 28, Type (0, 0), BuildingBlock: TEMPAE_clean_linker_10, # of connection points: 2
#     Edge 29, Type (0, 0), BuildingBlock: TEMPAE_clean_linker_10, # of connection points: 2
#     Edge 30, Type (0, 0), BuildingBlock: TEMPAE_clean_linker_10, # of connection points: 2
#     Edge 31, Type (0, 0), BuildingBlock: TEMPAE_clean_linker_10, # of connection points: 2
#     Edge 32, Type (0, 0), BuildingBlock: TEMPAE_clean_linker_10, # of connection points: 2
#     Edge 33, Type (0, 0), BuildingBlock: TEMPAE_clean_linker_10, # of connection points: 2
#     Edge 34, Type (0, 0), BuildingBlock: TEMPAE_clean_linker_10, # of connection points: 2
#     Edge 35, Type (0, 0), BuildingBlock: TEMPAE_clean_linker_10, # of connection points: 2
# Relax obj value: 0.115
# Max RMSD: 0.130
# Mean RMSD: 0.130
data_MOF--net-ukf--node1-QUQFOY_clean_sbu_1--edge1-TEMPAE_clean_linker_10
_symmetry_space_group_name_H-M    P1
_symmetry_Int_Tables_number       1
_symmetry_cell_setting            triclinic
loop_
_symmetry_equiv_pos_as_xyz
'x, y, z'
_cell_length_a     32.401547
_cell_length_b     32.383088
_cell_length_c     74.400607
_cell_angle_alpha  89.994263
_cell_angle_beta   90.127381
_cell_angle_gamma 120.01355
loop_
_atom_site_label
_atom_site_type_symbol
_atom_site_fract_x
_atom_site_fract_y
_atom_site_fract_z
_atom_type_partial_charge
O0 O 0.44613 0.3065 0.0698 0.0
Cd1 Cd 0.43277 0.23771 0.07359 0.0
Cd2 Cd 0.3882 0.23211 0.04185 0.0
O3 O 0.39421 0.29676 0.04873 0.0
O4 O 0.46488 0.24713 0.09732 0.0
O5 O 0.38785 0.19784 0.09358 0.0
C6 C 0.42411 0.21823 0.10425 0.0
C7 C 0.31995 0.16086 0.03456 0.0
C8 C 0.42562 0.32332 0.06015 0.0
C9 C 0.47342 0.22125 0.04037 0.0
O10 O 0.44885 0.23554 0.03188 0.0
O11 O 0.4678 0.21347 0.05719 0.0
O12 O 0.33692 0.19675 0.02369 0.0
O13 O 0.33932 0.16703 0.05029 0.0
O14 O 0.16828 0.47003 0.40781 0.0
Cd15 Cd 0.21778 0.45142 0.41556 0.0
Cd16 Cd 0.18447 0.39939 0.38291 0.0
O17 O 0.13348 0.42036 0.38508 0.0
O18 O 0.23514 0.47502 0.44076 0.0
O19 O 0.19821 0.39837 0.43375 0.0
C20 C 0.2159 0.43129 0.44589 0.0
C21 C 0.1712 0.32765 0.37024 0.0
C22 C 0.1364 0.45275 0.39564 0.0
C23 C 0.28695 0.48153 0.38558 0.0
O24 O 0.25229 0.45139 0.37614 0.0
O25 O 0.28202 0.48603 0.40226 0.0
O26 O 0.16917 0.35983 0.36073 0.0
O27 O 0.17542 0.33369 0.38745 0.0
O28 O 0.69465 0.16086 0.74085 0.0
Cd29 Cd 0.76315 0.21249 0.74713 0.0
Cd30 Cd 0.778 0.17725 0.71463 0.0
O31 O 0.70724 0.12436 0.71819 0.0
O32 O 0.75918 0.23147 0.77233 0.0
O33 O 0.79938 0.19534 0.76501 0.0
C34 C 0.78458 0.21306 0.77726 0.0
C35 C 0.83825 0.16644 0.70238 0.0
C36 C 0.67891 0.12755 0.72924 0.0
C37 C 0.79464 0.27837 0.71602 0.0
O38 O 0.78936 0.24298 0.70689 0.0
O39 O 0.78901 0.27536 0.73295 0.0
O40 O 0.80292 0.16152 0.69278 0.0
O41 O 0.83684 0.17232 0.7195 0.0
O42 O 0.53686 0.69684 0.07281 0.0
Cd43 Cd 0.55725 0.76773 0.07693 0.0
Cd44 Cd 0.60626 0.77331 0.04765 0.0
O45 O 0.59638 0.7077 0.0554 0.0
O46 O 0.53105 0.76865 0.10116 0.0
O47 O 0.60831 0.8026 0.09576 0.0
C48 C 0.57417 0.79113 0.10712 0.0
C49 C 0.67629 0.84285 0.04035 0.0
C50 C 0.55979 0.68011 0.06465 0.0
C51 C 0.52361 0.78701 0.04291 0.0
O52 O 0.54796 0.77065 0.03571 0.0
O53 O 0.52788 0.79657 0.05963 0.0
O54 O 0.6594 0.80585 0.03002 0.0
O55 O 0.65587 0.83864 0.05571 0.0
O56 O 0.86766 0.55064 0.40103 0.0
Cd57 Cd 0.80727 0.5542 0.40594 0.0
Cd58 Cd 0.84426 0.61042 0.37421 0.0
O59 O 0.903 0.60212 0.37903 0.0
O60 O 0.78871 0.52021 0.4295 0.0
O61 O 0.80645 0.59508 0.4265 0.0
C62 C 0.79538 0.55904 0.43686 0.0
C63 C 0.84595 0.68112 0.3666 0.0
C64 C 0.90256 0.57243 0.39036 0.0
C65 C 0.74935 0.51877 0.3721 0.0
O66 O 0.78433 0.55253 0.36391 0.0
O67 O 0.74995 0.51446 0.38909 0.0
O68 O 0.86174 0.66127 0.35569 0.0
O69 O 0.83329 0.66319 0.38252 0.0
O70 O 0.30741 0.86418 0.73627 0.0
Cd71 Cd 0.23941 0.809 0.74158 0.0
Cd72 Cd 0.22938 0.84647 0.70976 0.0
O73 O 0.29478 0.90529 0.71559 0.0
O74 O 0.25223 0.78918 0.76539 0.0
O75 O 0.20156 0.81539 0.76208 0.0
C76 C 0.22368 0.80115 0.77259 0.0
C77 C 0.15924 0.84503 0.70175 0.0
C78 C 0.3229 0.90088 0.72634 0.0
C79 C 0.21902 0.75002 0.70864 0.0
O80 O 0.23165 0.78836 0.70003 0.0
O81 O 0.21347 0.74855 0.7256 0.0
O82 O 0.19538 0.86249 0.69104 0.0
O83 O 0.1645 0.83233 0.71769 0.0
O84 O 0.69007 0.54677 0.60847 0.0
Cd85 Cd 0.7545 0.55181 0.60309 0.0
Cd86 Cd 0.77585 0.61116 0.63391 0.0
O87 O 0.70763 0.60047 0.62979 0.0
O88 O 0.73966 0.51818 0.57944 0.0
O89 O 0.79514 0.59375 0.58262 0.0
C90 C 0.7709 0.55762 0.57217 0.0
C91 C 0.84386 0.68319 0.64107 0.0
C92 C 0.67753 0.56928 0.61904 0.0
C93 C 0.78222 0.52121 0.63681 0.0
O94 O 0.78107 0.5555 0.64461 0.0
O95 O 0.775 0.51443 0.61997 0.0
O96 O 0.80871 0.66294 0.65215 0.0
O97 O 0.83842 0.66495 0.62518 0.0
O98 O 0.14261 0.6918 0.94295 0.0
Cd99 Cd 0.19839 0.76008 0.93852 0.0
Cd100 Cd 0.15934 0.76907 0.96967 0.0
O101 O 0.10061 0.70399 0.9633 0.0
O102 O 0.21943 0.74973 0.91459 0.0
O103 O 0.19262 0.79972 0.91856 0.0
C104 C 0.2074 0.77869 0.90775 0.0
C105 C 0.1616 0.8401 0.97684 0.0
C106 C 0.10529 0.67617 0.95249 0.0
C107 C 0.25509 0.77836 0.972 0.0
O108 O 0.21627 0.76593 0.9802 0.0
O109 O 0.25778 0.7845 0.95506 0.0
O110 O 0.14293 0.80423 0.98771 0.0
O111 O 0.17505 0.83407 0.96117 0.0
O112 O 0.4456 0.13062 0.27691 0.0
Cd113 Cd 0.44189 0.1898 0.26978 0.0
Cd114 Cd 0.39415 0.1632 0.30464 0.0
O115 O 0.406 0.10582 0.30245 0.0
O116 O 0.469 0.19945 0.2451 0.0
O117 O 0.39644 0.18651 0.25026 0.0
C118 C 0.42917 0.19304 0.23888 0.0
C119 C 0.32658 0.15892 0.31777 0.0
C120 C 0.43006 0.10123 0.28988 0.0
C121 C 0.48549 0.25992 0.29973 0.0
O122 O 0.45257 0.22916 0.30962 0.0
O123 O 0.48761 0.25211 0.28312 0.0
O124 O 0.35781 0.15502 0.32722 0.0
O125 O 0.33117 0.16071 0.30049 0.0
O126 O 0.30385 0.46114 0.61467 0.0
Cd127 Cd 0.23258 0.43916 0.6102 0.0
Cd128 Cd 0.22923 0.39421 0.64087 0.0
O129 O 0.29609 0.4063 0.63412 0.0
O130 O 0.23215 0.46447 0.58578 0.0
O131 O 0.19794 0.38735 0.59159 0.0
C132 C 0.20929 0.42116 0.58006 0.0
C133 C 0.16432 0.32405 0.6513 0.0
C134 C 0.32222 0.44125 0.62389 0.0
C135 C 0.21175 0.47591 0.64284 0.0
O136 O 0.22854 0.45289 0.65081 0.0
O137 O 0.20274 0.46989 0.62612 0.0
O138 O 0.20137 0.3487 0.66126 0.0
O139 O 0.16601 0.33661 0.6347 0.0
O140 O 0.84358 0.30135 0.94494 0.0
Cd141 Cd 0.79376 0.23003 0.94139 0.0
Cd142 Cd 0.8363 0.22719 0.97131 0.0
O143 O 0.89202 0.29254 0.9633 0.0
O144 O 0.76623 0.22796 0.91714 0.0
O145 O 0.80979 0.19441 0.92289 0.0
C146 C 0.78675 0.20522 0.91141 0.0
C147 C 0.83604 0.15739 0.97875 0.0
C148 C 0.88301 0.31911 0.95338 0.0
C149 C 0.73947 0.21223 0.97493 0.0
O150 O 0.77992 0.22979 0.98251 0.0
O151 O 0.73517 0.20163 0.95831 0.0
O152 O 0.85607 0.19429 0.98915 0.0
O153 O 0.82045 0.16189 0.96326 0.0
O154 O 0.53397 0.83502 0.27893 0.0
Cd155 Cd 0.55438 0.78612 0.27241 0.0
Cd156 Cd 0.61101 0.82756 0.30148 0.0
O157 O 0.59323 0.88029 0.29728 0.0
O158 O 0.52809 0.76276 0.24779 0.0
O159 O 0.60539 0.80532 0.25345 0.0
C160 C 0.57124 0.78412 0.2419 0.0
C161 C 0.68551 0.8361 0.30705 0.0
C162 C 0.556 0.87228 0.28858 0.0
C163 C 0.53068 0.72748 0.30545 0.0
O164 O 0.55979 0.76599 0.31334 0.0
O165 O 0.52586 0.72603 0.28846 0.0
O166 O 0.666 0.85107 0.31847 0.0
O167 O 0.66516 0.8214 0.29155 0.0
C168 C 0.14832 0.89357 0.99746 0.0
C169 C 0.17379 0.88818 0.98331 0.0
C170 C 0.16472 0.93811 1.00582 0.0
C171 C 0.20858 0.97769 1.00036 0.0
C172 C 0.23341 0.97275 0.9856 0.0
C173 C 0.21528 0.92827 0.97708 0.0
C174 C 0.13618 0.94225 0.02099 0.0
C175 C 0.28086 0.01358 0.97958 0.0
C176 C 0.25378 0.10687 0.01375 0.0
C177 C 0.28453 0.11263 0.02804 0.0
C178 C 0.22618 0.06225 1.00536 0.0
C179 C 0.23091 0.02299 0.01096 0.0
C180 C 0.26054 0.02828 0.02585 0.0
C181 C 0.28634 0.07281 0.03439 0.0
C182 C 0.1936 0.0577 0.99003 0.0
C183 C 0.26761 0.9878 0.03202 0.0
H184 H 0.11616 0.86267 1.0023 0.0
H185 H 0.23542 0.92418 0.9663 0.0
H186 H 0.15444 0.9453 0.03396 0.0
H187 H 0.13345 0.97489 0.01942 0.0
H188 H 0.09968 0.91079 0.02169 0.0
H189 H 0.29475 0.00449 0.96748 0.0
H190 H 0.27771 0.04541 0.97654 0.0
H191 H 0.30734 0.02353 0.9906 0.0
H192 H 0.2522 0.13755 0.00881 0.0
H193 H 0.31048 0.07718 0.04528 0.0
H194 H 0.1584 0.02484 0.99152 0.0
H195 H 0.20915 0.05482 0.97715 0.0
H196 H 0.18815 0.08891 0.98921 0.0
H197 H 0.23278 0.95573 0.03497 0.0
H198 H 0.2904 0.99713 0.04422 0.0
H199 H 0.28459 0.97813 0.02112 0.0
C200 C 0.20322 0.30219 0.34501 0.0
C201 C 0.17835 0.29082 0.36133 0.0
C202 C 0.22009 0.27334 0.33788 0.0
C203 C 0.20997 0.23071 0.34685 0.0
C204 C 0.18116 0.21685 0.36249 0.0
C205 C 0.16676 0.24775 0.36985 0.0
C206 C 0.25216 0.29071 0.3216 0.0
C207 C 0.16742 0.17052 0.37193 0.0
C208 C 0.24775 0.1565 0.31902 0.0
C209 C 0.29225 0.16972 0.32666 0.0
C210 C 0.21834 0.17266 0.32644 0.0
C211 C 0.23515 0.20486 0.34116 0.0
C212 C 0.27955 0.2171 0.34917 0.0
C213 C 0.30692 0.1985 0.34207 0.0
C214 C 0.1702 0.15673 0.3181 0.0
C215 C 0.29998 0.25272 0.36439 0.0
H216 H 0.21278 0.33571 0.33846 0.0
H217 H 0.14736 0.23873 0.38243 0.0
H218 H 0.28831 0.29778 0.32535 0.0
H219 H 0.23847 0.26305 0.31096 0.0
H220 H 0.2554 0.32393 0.31591 0.0
H221 H 0.1367 0.15987 0.3811 0.0
H222 H 0.15815 0.14148 0.36204 0.0
H223 H 0.19795 0.17445 0.38003 0.0
H224 H 0.23623 0.13408 0.30714 0.0
H225 H 0.34158 0.20927 0.34789 0.0
H226 H 0.1722 0.18543 0.30937 0.0
H227 H 0.14318 0.14938 0.32863 0.0
H228 H 0.15802 0.12421 0.30974 0.0
H229 H 0.30527 0.2877 0.35985 0.0
H230 H 0.3347 0.2579 0.36926 0.0
H231 H 0.27485 0.24091 0.37585 0.0
C232 C 0.9129 0.16073 0.70119 0.0
C233 C 0.88278 0.17538 0.69353 0.0
C234 C 0.95821 0.17547 0.69379 0.0
C235 C 0.97467 0.20787 0.67916 0.0
C236 C 0.94368 0.22168 0.67117 0.0
C237 C 0.89781 0.2043 0.67818 0.0
C238 C 0.98904 0.15777 0.70207 0.0
C239 C 0.96011 0.25772 0.6561 0.0
C240 C 0.10566 0.30112 0.6759 0.0
C241 C 0.11862 0.28909 0.65962 0.0
C242 C 0.05937 0.27397 0.68274 0.0
C243 C 0.02572 0.23224 0.67353 0.0
C244 C 0.03987 0.21779 0.65781 0.0
C245 C 0.0858 0.24724 0.65071 0.0
C246 C 0.04556 0.29215 0.69905 0.0
C247 C 0.00603 0.17226 0.64812 0.0
H248 H 0.90128 0.13827 0.71303 0.0
H249 H 0.87483 0.21625 0.67239 0.0
H250 H 0.00815 0.14974 0.6915 0.0
H251 H 0.01621 0.18575 0.71092 0.0
H252 H 0.96772 0.12524 0.71028 0.0
H253 H 0.93149 0.26449 0.65134 0.0
H254 H 0.99071 0.29202 0.66073 0.0
H255 H 0.97252 0.24529 0.64454 0.0
H256 H 0.13082 0.33388 0.68267 0.0
H257 H 0.09585 0.23785 0.63812 0.0
H258 H 0.03108 0.26454 0.70968 0.0
H259 H 0.01709 0.30016 0.69535 0.0
H260 H 0.07612 0.32497 0.70473 0.0
H261 H 0.985 0.14325 0.65785 0.0
H262 H 0.02527 0.16055 0.63897 0.0
H263 H 0.9806 0.17788 0.63995 0.0
C264 C 0.71191 0.93114 0.03907 0.0
C265 C 0.71264 0.89021 0.03343 0.0
C266 C 0.73827 0.9747 0.02998 0.0
C267 C 0.76735 0.97789 0.01523 0.0
C268 C 0.77113 0.93759 0.0104 0.0
C269 C 0.74304 0.89397 0.01934 0.0
C270 C 0.73227 0.01636 0.03538 0.0
C271 C 0.8031 0.93989 0.99525 0.0
C272 C 0.78252 0.06923 0.97989 0.0
C273 C 0.82431 0.10983 0.9857 0.0
C274 C 0.76454 0.02557 0.98899 0.0
C275 C 0.78979 0.02192 1.00392 0.0
C276 C 0.83402 0.06183 0.00893 0.0
C277 C 0.85031 0.10558 0.99998 0.0
C278 C 0.71677 0.98435 0.98339 0.0
C279 C 0.86301 0.059 0.02428 0.0
H280 H 0.68811 0.92837 0.04981 0.0
H281 H 0.74383 0.86245 0.01494 0.0
H282 H 0.76748 0.04838 0.03794 0.0
H283 H 0.71522 0.02519 0.02422 0.0
H284 H 0.70998 0.00876 0.0476 0.0
H285 H 0.80826 0.90845 0.99517 0.0
H286 H 0.78714 0.94113 0.9822 0.0
H287 H 0.83847 0.97277 0.99628 0.0
H288 H 0.76197 0.07238 0.969 0.0
H289 H 0.88271 0.13683 1.0045 0.0
H290 H 0.69063 0.97588 0.99439 0.0
H291 H 0.71948 0.95202 0.98097 0.0
H292 H 0.70269 0.99225 0.97103 0.0
H293 H 0.84558 0.05796 0.03722 0.0
H294 H 0.89979 0.09011 0.02452 0.0
H295 H 0.86501 0.02584 0.02335 0.0
C296 C 0.75467 0.85364 0.32709 0.0
C297 C 0.72384 0.82699 0.31304 0.0
C298 C 0.78351 0.83845 0.33568 0.0
C299 C 0.7798 0.79453 0.33063 0.0
C300 C 0.75052 0.76884 0.31583 0.0
C301 C 0.72362 0.78588 0.30701 0.0
C302 C 0.81589 0.86807 0.35081 0.0
C303 C 0.74443 0.72126 0.31023 0.0
C304 C 0.86137 0.74793 0.34565 0.0
C305 C 0.83522 0.71779 0.35988 0.0
C306 C 0.84576 0.77617 0.33685 0.0
C307 C 0.80191 0.77251 0.34189 0.0
C308 C 0.77651 0.74363 0.35677 0.0
C309 C 0.79398 0.71735 0.36578 0.0
C310 C 0.87504 0.80811 0.32162 0.0
C311 C 0.72901 0.73761 0.36236 0.0
H312 H 0.75496 0.88548 0.33179 0.0
H313 H 0.69937 0.76478 0.29633 0.0
H314 H 0.79975 0.85137 0.36387 0.0
H315 H 0.85092 0.86982 0.34989 0.0
H316 H 0.82178 0.90495 0.35076 0.0
H317 H 0.7222 0.70691 0.29793 0.0
H318 H 0.77959 0.72441 0.30769 0.0
H319 H 0.72723 0.6951 0.32127 0.0
H320 H 0.89335 0.74841 0.34106 0.0
H321 H 0.77332 0.69364 0.37662 0.0
H322 H 0.87707 0.84329 0.32253 0.0
H323 H 0.85786 0.79177 0.30861 0.0
H324 H 0.91179 0.81374 0.32156 0.0
H325 H 0.73233 0.77283 0.36501 0.0
H326 H 0.7146 0.71523 0.37459 0.0
H327 H 0.70284 0.72064 0.35127 0.0
C328 C 0.89498 0.75029 0.66198 0.0
C329 C 0.89118 0.72053 0.64761 0.0
C330 C 0.93885 0.77879 0.67074 0.0
C331 C 0.9793 0.77584 0.66549 0.0
C332 C 0.97603 0.74745 0.65045 0.0
C333 C 0.93221 0.72084 0.6415 0.0
C334 C 0.94124 0.81014 0.68618 0.0
C335 C 0.01781 0.7422 0.64465 0.0
C336 C 0.10701 0.85909 0.68072 0.0
C337 C 0.11162 0.83293 0.69482 0.0
C338 C 0.06311 0.84273 0.67186 0.0
C339 C 0.02355 0.79816 0.6767 0.0
C340 C 0.02767 0.77258 0.69141 0.0
C341 C 0.07141 0.79074 0.70049 0.0
C342 C 0.0597 0.87212 0.6568 0.0
C343 C 0.9869 0.72434 0.69677 0.0
H344 H 0.86331 0.75016 0.66674 0.0
H345 H 0.92931 0.69739 0.63057 0.0
H346 H 0.94277 0.79373 0.69906 0.0
H347 H 0.97397 0.84565 0.68529 0.0
H348 H 0.90969 0.81506 0.68648 0.0
H349 H 0.0101 0.72051 0.63222 0.0
H350 H 0.04956 0.77768 0.64225 0.0
H351 H 0.02712 0.72479 0.65553 0.0
H352 H 0.13805 0.89178 0.67632 0.0
H353 H 0.07498 0.77008 0.71122 0.0
H354 H 0.02637 0.87371 0.65795 0.0
H355 H 0.05862 0.85526 0.6437 0.0
H356 H 0.09056 0.90905 0.65674 0.0
H357 H 0.95453 0.72665 0.69956 0.0
H358 H 0.99536 0.70976 0.70885 0.0
H359 H 0.97821 0.69879 0.6855 0.0
C360 C 0.65157 0.17691 0.97932 0.0
C361 C 0.69836 0.20742 0.98521 0.0
C362 C 0.61265 0.17443 0.98856 0.0
C363 C 0.62096 0.20407 1.00371 0.0
C364 C 0.66809 0.23432 0.00987 0.0
C365 C 0.70617 0.2352 1.00066 0.0
C366 C 0.56275 0.14088 0.9819 0.0
C367 C 0.67849 0.2672 0.02575 0.0
C368 C 0.53064 0.2417 0.01511 0.0
C369 C 0.50958 0.21502 0.03066 0.0
C370 C 0.56657 0.238 1.0061 0.0
C371 C 0.58084 0.20589 0.01253 0.0
C372 C 0.55859 0.17768 0.02788 0.0
C373 C 0.52362 0.18309 0.03694 0.0
C374 C 0.59026 0.26954 0.99002 0.0
C375 C 0.57211 0.14224 0.03484 0.0
H376 H 0.64541 0.15509 0.96747 0.0
H377 H 0.74229 0.25906 1.00521 0.0
H378 H 0.54008 0.1185 0.99312 0.0
H379 H 0.54653 0.16168 0.97673 0.0
H380 H 0.56214 0.11716 0.97099 0.0
H381 H 0.71708 0.28761 0.0291 0.0
H382 H 0.66617 0.29289 0.02279 0.0
H383 H 0.65872 0.24649 0.03775 0.0
H384 H 0.52003 0.26662 0.01029 0.0
H385 H 0.50699 0.16207 0.04886 0.0
H386 H 0.58711 0.24749 0.97813 0.0
H387 H 0.62884 0.29312 0.99277 0.0
H388 H 0.57452 0.29217 0.98661 0.0
H389 H 0.56985 0.118 0.02386 0.0
H390 H 0.54887 0.12044 0.04607 0.0
H391 H 0.60956 0.1613 0.03965 0.0
C392 C 0.35238 0.56377 0.37945 0.0
C393 C 0.33147 0.51474 0.37638 0.0
C394 C 0.38849 0.59659 0.36813 0.0
C395 C 0.40504 0.57968 0.35387 0.0
C396 C 0.38653 0.53008 0.35166 0.0
C397 C 0.34911 0.4981 0.36271 0.0
C398 C 0.4064 0.64916 0.37065 0.0
C399 C 0.40461 0.51073 0.3371 0.0
C400 C 0.45094 0.65899 0.31274 0.0
C401 C 0.49977 0.6855 0.31644 0.0
C402 C 0.41974 0.62374 0.3247 0.0
C403 C 0.43826 0.61374 0.34034 0.0
C404 C 0.48802 0.63844 0.3435 0.0
C405 C 0.51815 0.67485 0.33168 0.0
C406 C 0.36678 0.59907 0.32109 0.0
C407 C 0.50926 0.62739 0.3596 0.0
H408 H 0.33815 0.57648 0.38989 0.0
H409 H 0.33282 0.46003 0.36041 0.0
H410 H 0.44583 0.66925 0.37164 0.0
H411 H 0.3964 0.66306 0.35878 0.0
H412 H 0.39148 0.65651 0.38287 0.0
H413 H 0.39204 0.4722 0.339 0.0
H414 H 0.39194 0.51542 0.32381 0.0
H415 H 0.44416 0.53062 0.33681 0.0
H416 H 0.43682 0.66773 0.30103 0.0
H417 H 0.55609 0.69538 0.33444 0.0
H418 H 0.34876 0.60675 0.33219 0.0
H419 H 0.35162 0.55989 0.32062 0.0
H420 H 0.35827 0.61068 0.30823 0.0
H421 H 0.49966 0.63944 0.37204 0.0
H422 H 0.54874 0.64523 0.35881 0.0
H423 H 0.49459 0.58833 0.36078 0.0
C424 C 0.77632 0.34337 0.71083 0.0
C425 C 0.80266 0.32136 0.70632 0.0
C426 C 0.77649 0.3783 0.69961 0.0
C427 C 0.80495 0.3925 0.6839 0.0
C428 C 0.83412 0.3726 0.68 0.0
C429 C 0.83189 0.33653 0.69109 0.0
C430 C 0.74403 0.39784 0.704 0.0
C431 C 0.86629 0.38809 0.66376 0.0
C432 C 0.76456 0.43927 0.64483 0.0
C433 C 0.79097 0.4885 0.64778 0.0
C434 C 0.76894 0.40756 0.65648 0.0
C435 C 0.80176 0.42581 0.67098 0.0
C436 C 0.83015 0.47569 0.67346 0.0
C437 C 0.82373 0.50645 0.66201 0.0
C438 C 0.73719 0.35456 0.65366 0.0
C439 C 0.86677 0.49651 0.68832 0.0
H440 H 0.75322 0.33108 0.72249 0.0
H441 H 0.85232 0.31944 0.68766 0.0
H442 H 0.76457 0.43735 0.70448 0.0
H443 H 0.71678 0.38757 0.69325 0.0
H444 H 0.72549 0.3844 0.71705 0.0
H445 H 0.89097 0.37361 0.66391 0.0
H446 H 0.84444 0.37558 0.65134 0.0
H447 H 0.88763 0.42758 0.6631 0.0
H448 H 0.73894 0.4255 0.6339 0.0
H449 H 0.8444 0.54466 0.66417 0.0
H450 H 0.71486 0.33838 0.66576 0.0
H451 H 0.75912 0.33739 0.65178 0.0
H452 H 0.71338 0.34623 0.64181 0.0
H453 H 0.84875 0.48711 0.70157 0.0
H454 H 0.88879 0.53597 0.68743 0.0
H455 H 0.89069 0.48121 0.68784 0.0
C456 C 0.28958 0.75842 0.99824 0.0
C457 C 0.29667 0.78426 0.98232 0.0
C458 C 0.32825 0.76211 0.00804 0.0
C459 C 0.37522 0.79341 1.00203 0.0
C460 C 0.38268 0.82072 0.98625 0.0
C461 C 0.3432 0.81527 0.97641 0.0
C462 C 0.31875 0.73142 0.02453 0.0
C463 C 0.4323 0.85531 0.9797 0.0
C464 C 0.4718 0.82268 0.03696 0.0
C465 C 0.48803 0.79154 0.03194 0.0
C466 C 0.43651 0.82533 0.02685 0.0
C467 C 0.41617 0.79513 0.01174 0.0
C468 C 0.43288 0.76406 1.00653 0.0
C469 C 0.46902 0.76312 0.01656 0.0
C470 C 0.42038 0.85977 0.03252 0.0
C471 C 0.41131 0.73042 0.99078 0.0
H472 H 0.25361 0.7342 1.0028 0.0
H473 H 0.34873 0.83564 0.96419 0.0
H474 H 0.3336 0.70741 0.0226 0.0
H475 H 0.3368 0.75406 0.03641 0.0
H476 H 0.28009 0.70928 0.0275 0.0
H477 H 0.43203 0.87655 0.96802 0.0
H478 H 0.45358 0.88009 0.99069 0.0
H479 H 0.45066 0.8356 0.9757 0.0
H480 H 0.48673 0.84498 0.04876 0.0
H481 H 0.48122 0.73874 0.01269 0.0
H482 H 0.38293 0.83972 0.03722 0.0
H483 H 0.42144 0.88175 0.02089 0.0
H484 H 0.44281 0.88386 0.0435 0.0
H485 H 0.37295 0.70537 0.99335 0.0
H486 H 0.42917 0.70931 0.98824 0.0
H487 H 0.41364 0.75062 0.97842 0.0
C488 C 0.57098 0.32138 0.30374 0.0
C489 C 0.52312 0.30374 0.30824 0.0
C490 C 0.60753 0.35846 0.31373 0.0
C491 C 0.59567 0.37919 0.32815 0.0
C492 C 0.54725 0.36331 0.33201 0.0
C493 C 0.51152 0.32513 0.3222 0.0
C494 C 0.65874 0.37366 0.30949 0.0
C495 C 0.53317 0.38562 0.34684 0.0
C496 C 0.6841 0.43544 0.3665 0.0
C497 C 0.70826 0.48354 0.3615 0.0
C498 C 0.64749 0.40105 0.35568 0.0
C499 C 0.63381 0.41548 0.33984 0.0
C500 C 0.657 0.46432 0.33511 0.0
C501 C 0.69456 0.49771 0.34584 0.0
C502 C 0.62433 0.34915 0.36096 0.0
C503 C 0.64228 0.48124 0.31868 0.0
H504 H 0.57986 0.3044 0.29306 0.0
H505 H 0.4744 0.31154 0.3256 0.0
H506 H 0.67956 0.41267 0.30716 0.0
H507 H 0.67514 0.36578 0.32114 0.0
H508 H 0.66198 0.35515 0.29746 0.0
H509 H 0.49431 0.37276 0.3468 0.0
H510 H 0.54285 0.37701 0.36007 0.0
H511 H 0.5528 0.42503 0.3455 0.0
H512 H 0.69502 0.42449 0.37852 0.0
H513 H 0.71306 0.53504 0.34206 0.0
H514 H 0.62864 0.3284 0.34999 0.0
H515 H 0.58554 0.33429 0.36298 0.0
H516 H 0.63978 0.34381 0.3735 0.0
H517 H 0.64879 0.46599 0.30639 0.0
H518 H 0.66199 0.52073 0.31749 0.0
H519 H 0.60352 0.46858 0.31916 0.0
C520 C 0.23427 0.53278 0.66835 0.0
C521 C 0.20645 0.51223 0.65294 0.0
C522 C 0.23276 0.56968 0.67756 0.0
C523 C 0.20171 0.58563 0.67148 0.0
C524 C 0.17206 0.56376 0.65634 0.0
C525 C 0.1753 0.52769 0.64706 0.0
C526 C 0.26581 0.59286 0.69337 0.0
C527 C 0.13763 0.57905 0.64979 0.0
C528 C 0.18107 0.66155 0.70515 0.0
C529 C 0.21249 0.70758 0.69882 0.0
C530 C 0.17541 0.62123 0.69589 0.0
C531 C 0.20295 0.62735 0.68031 0.0
C532 C 0.23447 0.6738 0.67384 0.0
C533 C 0.23834 0.71332 0.68304 0.0
C534 C 0.14055 0.57217 0.7029 0.0
C535 C 0.26544 0.68189 0.65757 0.0
H536 H 0.25867 0.52118 0.67289 0.0
H537 H 0.15347 0.51157 0.63523 0.0
H538 H 0.29071 0.63104 0.69039 0.0
H539 H 0.24515 0.59141 0.70545 0.0
H540 H 0.28708 0.57551 0.69661 0.0
H541 H 0.11394 0.55547 0.63894 0.0
H542 H 0.11527 0.57898 0.66108 0.0
H543 H 0.15766 0.61604 0.64457 0.0
H544 H 0.16067 0.65708 0.71725 0.0
H545 H 0.26285 0.74892 0.67818 0.0
H546 H 0.16011 0.55432 0.70772 0.0
H547 H 0.11638 0.54982 0.69195 0.0
H548 H 0.11871 0.57345 0.71414 0.0
H549 H 0.28965 0.66754 0.66015 0.0
H550 H 0.28738 0.72026 0.65408 0.0
H551 H 0.24308 0.66252 0.64579 0.0
C552 C 0.45271 0.2477 0.1352 0.0
C553 C 0.41944 0.21153 0.12397 0.0
C554 C 0.44955 0.24308 0.15394 0.0
C555 C 0.41291 0.20064 0.16171 0.0
C556 C 0.37894 0.16398 0.15045 0.0
C557 C 0.38222 0.17015 0.13167 0.0
C558 C 0.48593 0.28347 0.16543 0.0
C559 C 0.34008 0.11777 0.15822 0.0
C560 C 0.44612 0.17701 0.20789 0.0
C561 C 0.42155 0.19186 0.21924 0.0
C562 C 0.44142 0.17718 0.18916 0.0
C563 C 0.41247 0.19395 0.18154 0.0
C564 C 0.38676 0.20813 0.19295 0.0
C565 C 0.39108 0.20626 0.21173 0.0
C566 C 0.46861 0.16072 0.17753 0.0
C567 C 0.35646 0.2273 0.18534 0.0
H568 H 0.48116 0.28009 0.12932 0.0
H569 H 0.35645 0.14216 0.123 0.0
H570 H 0.46778 0.29364 0.17567 0.0
H571 H 0.50823 0.27179 0.17271 0.0
H572 H 0.50976 0.31552 0.15736 0.0
H573 H 0.31537 0.09359 0.14773 0.0
H574 H 0.35624 0.09915 0.16533 0.0
H575 H 0.31922 0.12495 0.16828 0.0
H576 H 0.4692 0.16519 0.21368 0.0
H577 H 0.37211 0.2178 0.2205 0.0
H578 H 0.49707 0.19156 0.17014 0.0
H579 H 0.44454 0.13462 0.16738 0.0
H580 H 0.48537 0.14401 0.18553 0.0
H581 H 0.37959 0.26146 0.17829 0.0
H582 H 0.33616 0.23367 0.19593 0.0
H583 H 0.33097 0.20217 0.17527 0.0
C584 C 0.17062 0.38344 0.47264 0.0
C585 C 0.2129 0.42 0.46523 0.0
C586 C 0.16528 0.3772 0.49139 0.0
C587 C 0.20375 0.40724 0.50286 0.0
C588 C 0.24744 0.44235 0.49527 0.0
C589 C 0.25113 0.44891 0.47658 0.0
C590 C 0.1177 0.34042 0.49894 0.0
C591 C 0.28987 0.47415 0.50693 0.0
C592 C 0.18838 0.44047 0.55025 0.0
C593 C 0.1999 0.4116 0.56065 0.0
C594 C 0.18618 0.43688 0.53143 0.0
C595 C 0.19768 0.40497 0.52277 0.0
C596 C 0.20777 0.37454 0.53327 0.0
C597 C 0.208 0.3777 0.55214 0.0
C598 C 0.1737 0.46889 0.52081 0.0
C599 C 0.22156 0.34105 0.5246 0.0
H600 H 0.14086 0.36148 0.46384 0.0
H601 H 0.28389 0.47708 0.47081 0.0
H602 H 0.1223 0.31759 0.50892 0.0
H603 H 0.10126 0.35871 0.50605 0.0
H604 H 0.09275 0.31729 0.48828 0.0
H605 H 0.32267 0.49567 0.49889 0.0
H606 H 0.28236 0.49889 0.51469 0.0
H607 H 0.29675 0.45247 0.51674 0.0
H608 H 0.18198 0.4666 0.55684 0.0
H609 H 0.21753 0.3558 0.5602 0.0
H610 H 0.1468 0.4481 0.51032 0.0
H611 H 0.20594 0.49676 0.51388 0.0
H612 H 0.1595 0.4868 0.5295 0.0
H613 H 0.19571 0.31962 0.51393 0.0
H614 H 0.22361 0.31645 0.5345 0.0
H615 H 0.25692 0.36215 0.51811 0.0
C616 C 0.8286 0.20277 0.88361 0.0
C617 C 0.78693 0.19595 0.89197 0.0
C618 C 0.83196 0.20288 0.86475 0.0
C619 C 0.79216 0.19445 0.8541 0.0
C620 C 0.74898 0.18426 0.86259 0.0
C621 C 0.74719 0.18605 0.88141 0.0
C622 C 0.87902 0.21521 0.85627 0.0
C623 C 0.7052 0.17356 0.8518 0.0
C624 C 0.80419 0.24878 0.80786 0.0
C625 C 0.79355 0.21017 0.79654 0.0
C626 C 0.80684 0.24491 0.82656 0.0
C627 C 0.79658 0.20067 0.83419 0.0
C628 C 0.78693 0.16183 0.82275 0.0
C629 C 0.78635 0.16733 0.80399 0.0
C630 C 0.81886 0.28772 0.83818 0.0
C631 C 0.77432 0.11369 0.83032 0.0
H632 H 0.85957 0.21107 0.89178 0.0
H633 H 0.7149 0.18065 0.88788 0.0
H634 H 0.87391 0.18919 0.84558 0.0
H635 H 0.89456 0.2508 0.84982 0.0
H636 H 0.90496 0.21611 0.86627 0.0
H637 H 0.673 0.16036 0.86037 0.0
H638 H 0.71107 0.20638 0.84485 0.0
H639 H 0.69829 0.14646 0.84131 0.0
H640 H 0.80983 0.28193 0.80205 0.0
H641 H 0.77743 0.13725 0.79522 0.0
H642 H 0.84681 0.29342 0.84813 0.0
H643 H 0.78683 0.28142 0.8458 0.0
H644 H 0.83155 0.32078 0.83013 0.0
H645 H 0.80107 0.11725 0.84045 0.0
H646 H 0.7719 0.08845 0.8197 0.0
H647 H 0.73942 0.09816 0.83726 0.0
C648 C 0.55369 0.80943 0.13726 0.0
C649 C 0.58323 0.79937 0.12665 0.0
C650 C 0.55745 0.811 0.1561 0.0
C651 C 0.59021 0.8003 0.16457 0.0
C652 C 0.621 0.79129 0.15386 0.0
C653 C 0.61768 0.79174 0.13499 0.0
C654 C 0.52506 0.82241 0.16694 0.0
C655 C 0.65535 0.77825 0.16229 0.0
C656 C 0.61555 0.82902 0.2145 0.0
C657 C 0.58043 0.78656 0.22236 0.0
C658 C 0.61983 0.83393 0.19568 0.0
C659 C 0.58934 0.79488 0.18453 0.0
C660 C 0.55562 0.75111 0.19252 0.0
C661 C 0.55094 0.74781 0.21131 0.0
C662 C 0.65515 0.88163 0.18775 0.0
C663 C 0.52346 0.70807 0.1812 0.0
H664 H 0.52708 0.81541 0.13081 0.0
H665 H 0.64007 0.78325 0.1268 0.0
H666 H 0.4982 0.78994 0.17406 0.0
H667 H 0.54585 0.84976 0.17729 0.0
H668 H 0.50598 0.83564 0.15838 0.0
H669 H 0.6793 0.77585 0.15221 0.0
H670 H 0.67746 0.8048 0.17266 0.0
H671 H 0.635 0.74325 0.16913 0.0
H672 H 0.63794 0.85924 0.22304 0.0
H673 H 0.52384 0.71492 0.21738 0.0
H674 H 0.63564 0.89678 0.1806 0.0
H675 H 0.67805 0.87743 0.17772 0.0
H676 H 0.67829 0.90749 0.19817 0.0
H677 H 0.49779 0.71478 0.17369 0.0
H678 H 0.503 0.67544 0.18946 0.0
H679 H 0.54472 0.70136 0.17116 0.0
C680 C 0.81913 0.59497 0.54433 0.0
C681 C 0.77625 0.56137 0.55238 0.0
C682 C 0.82399 0.59764 0.52549 0.0
C683 C 0.78457 0.56699 0.5145 0.0
C684 C 0.7408 0.53408 0.52262 0.0
C685 C 0.73742 0.53121 0.54143 0.0
C686 C 0.8716 0.63229 0.51735 0.0
C687 C 0.69756 0.50153 0.51146 0.0
C688 C 0.78327 0.59547 0.46478 0.0
C689 C 0.7931 0.56228 0.45666 0.0
C690 C 0.78065 0.59775 0.48362 0.0
C691 C 0.78949 0.5671 0.49455 0.0
C692 C 0.80077 0.53452 0.48637 0.0
C693 C 0.80176 0.53207 0.46756 0.0
C694 C 0.76726 0.63206 0.49181 0.0
C695 C 0.8115 0.50195 0.49748 0.0
H696 H 0.84921 0.61832 0.55276 0.0
H697 H 0.70395 0.50564 0.54758 0.0
H698 H 0.88539 0.61241 0.50964 0.0
H699 H 0.86758 0.65627 0.50777 0.0
H700 H 0.8984 0.65439 0.5277 0.0
H701 H 0.66525 0.48066 0.51981 0.0
H702 H 0.69018 0.52266 0.50155 0.0
H703 H 0.70443 0.47624 0.50378 0.0
H704 H 0.77654 0.61886 0.45639 0.0
H705 H 0.81006 0.50678 0.46137 0.0
H706 H 0.79515 0.65612 0.50144 0.0
H707 H 0.73361 0.61192 0.49949 0.0
H708 H 0.76238 0.65409 0.48151 0.0
H709 H 0.83992 0.52305 0.50744 0.0
H710 H 0.82307 0.48121 0.48909 0.0
H711 H 0.77932 0.47653 0.5051 0.0
C712 C 0.19997 0.74645 0.87685 0.0
C713 C 0.20765 0.78453 0.88802 0.0
C714 C 0.19943 0.7502 0.85809 0.0
C715 C 0.20834 0.79368 0.85021 0.0
C716 C 0.21604 0.83235 0.86142 0.0
C717 C 0.2148 0.82703 0.88024 0.0
C718 C 0.18984 0.70767 0.84669 0.0
C719 C 0.22707 0.87972 0.85354 0.0
C720 C 0.25901 0.81157 0.80309 0.0
C721 C 0.21932 0.80114 0.79237 0.0
C722 C 0.25641 0.81155 0.8219 0.0
C723 C 0.21254 0.79919 0.83027 0.0
C724 C 0.1723 0.78893 0.81951 0.0
C725 C 0.17641 0.79086 0.80064 0.0
C726 C 0.30053 0.82401 0.83281 0.0
C727 C 0.12456 0.77418 0.82791 0.0
H728 H 0.19368 0.71325 0.88282 0.0
H729 H 0.22076 0.8565 0.88886 0.0
H730 H 0.161 0.69975 0.83686 0.0
H731 H 0.22222 0.71577 0.83893 0.0
H732 H 0.1794 0.67526 0.85489 0.0
H733 H 0.23071 0.90573 0.86404 0.0
H734 H 0.26081 0.89501 0.84582 0.0
H735 H 0.19861 0.87485 0.84401 0.0
H736 H 0.29247 0.82025 0.79672 0.0
H737 H 0.14569 0.78274 0.79235 0.0
H738 H 0.29552 0.79205 0.84017 0.0
H739 H 0.30676 0.85165 0.84296 0.0
H740 H 0.33283 0.83735 0.82429 0.0
H741 H 0.11177 0.74012 0.83527 0.0
H742 H 0.0973 0.76932 0.81775 0.0
H743 H 0.12793 0.80123 0.83784 0.0
C744 C 0.4997 0.59776 0.07466 0.0
C745 C 0.54109 0.62782 0.06487 0.0
C746 C 0.47921 0.54801 0.07406 0.0
C747 C 0.50061 0.52759 0.06346 0.0
C748 C 0.54273 0.55762 0.05374 0.0
C749 C 0.56247 0.60738 0.05455 0.0
C750 C 0.43443 0.51726 0.08469 0.0
C751 C 0.56677 0.53715 0.04239 0.0
C752 C 0.47501 0.40272 0.07487 0.0
C753 C 0.44161 0.37493 0.06161 0.0
C754 C 0.49414 0.45224 0.07567 0.0
C755 C 0.47955 0.47482 0.06294 0.0
C756 C 0.44506 0.44701 0.04976 0.0
C757 C 0.42645 0.39735 0.04925 0.0
C758 C 0.53063 0.48051 0.08999 0.0
C759 C 0.42844 0.46986 0.03602 0.0
H760 H 0.48278 0.61307 0.08267 0.0
H761 H 0.59432 0.63021 0.0469 0.0
H762 H 0.40546 0.49254 0.07554 0.0
H763 H 0.4408 0.49507 0.09443 0.0
H764 H 0.42204 0.53869 0.0922 0.0
H765 H 0.59921 0.56528 0.0356 0.0
H766 H 0.57697 0.5155 0.05089 0.0
H767 H 0.54164 0.51304 0.032 0.0
H768 H 0.48693 0.38586 0.08454 0.0
H769 H 0.40082 0.37628 0.03893 0.0
H770 H 0.51837 0.50092 0.09819 0.0
H771 H 0.56473 0.50675 0.08362 0.0
H772 H 0.53756 0.45744 0.09909 0.0
H773 H 0.41388 0.49025 0.04287 0.0
H774 H 0.40061 0.4432 0.02693 0.0
H775 H 0.45908 0.49556 0.02777 0.0
C776 C 0.97681 0.57683 0.37765 0.0
C777 C 0.94073 0.55971 0.39068 0.0
C778 C 0.01038 0.56129 0.37729 0.0
C779 C 0.00762 0.52779 0.39021 0.0
C780 C 0.97175 0.51103 0.40351 0.0
C781 C 0.93901 0.52727 0.40362 0.0
C782 C 0.0485 0.5803 0.36302 0.0
C783 C 0.96758 0.47545 0.41757 0.0
C784 C 0.06343 0.45005 0.38247 0.0
C785 C 0.10391 0.4724 0.39353 0.0
C786 C 0.03248 0.46854 0.38077 0.0
C787 C 0.04253 0.5106 0.39022 0.0
C788 C 0.08406 0.53402 0.40097 0.0
C789 C 0.11402 0.51455 0.40257 0.0
C790 C 0.98826 0.4423 0.36932 0.0
C791 C 0.09625 0.57906 0.41118 0.0
H792 H 0.97837 0.60173 0.36758 0.0
H793 H 0.91145 0.51379 0.4138 0.0
H794 H 0.08429 0.5974 0.36939 0.0
H795 H 0.04519 0.55048 0.35462 0.0
H796 H 0.04634 0.60674 0.35415 0.0
H797 H 0.93729 0.46558 0.42688 0.0
H798 H 0.96264 0.44254 0.41098 0.0
H799 H 1.00089 0.4904 0.4256 0.0
H800 H 0.05544 0.41763 0.37538 0.0
H801 H 0.14551 0.53253 0.41098 0.0
H802 H 0.98636 0.46699 0.35945 0.0
H803 H 0.95614 0.4284 0.37794 0.0
H804 H 0.9871 0.41192 0.36193 0.0
H805 H 0.09593 0.60589 0.402 0.0
H806 H 0.13174 0.595 0.41778 0.0
H807 H 0.06899 0.57111 0.42167 0.0
C808 C 0.59584 0.10204 0.73909 0.0
C809 C 0.62669 0.09405 0.72828 0.0
C810 C 0.5463 0.07209 0.73818 0.0
C811 C 0.52682 0.03277 0.72627 0.0
C812 C 0.55756 0.02439 0.71527 0.0
C813 C 0.60717 0.05524 0.71636 0.0
C814 C 0.5148 0.08233 0.75013 0.0
C815 C 0.53805 0.98253 0.70252 0.0
C816 C 0.40493 0.9295 0.73832 0.0
C817 C 0.37471 0.93628 0.72664 0.0
C818 C 0.45439 0.96028 0.73816 0.0
C819 C 0.47441 0.99917 0.72608 0.0
C820 C 0.44425 0.0067 0.71436 0.0
C821 C 0.39471 0.97511 0.71476 0.0
C822 C 0.48524 0.95106 0.75092 0.0
C823 C 0.46435 0.04807 0.7014 0.0
H824 H 0.61035 0.13206 0.74828 0.0
H825 H 0.63063 0.04883 0.70792 0.0
H826 H 0.48813 0.08582 0.74188 0.0
H827 H 0.49484 0.05218 0.75952 0.0
H828 H 0.53544 0.11549 0.75812 0.0
H829 H 0.56652 0.98174 0.69449 0.0
H830 H 0.51879 0.94874 0.71019 0.0
H831 H 0.51198 0.98383 0.69318 0.0
H832 H 0.39002 0.89964 0.74756 0.0
H833 H 0.37175 0.98056 0.70563 0.0
H834 H 0.50487 0.98203 0.76004 0.0
H835 H 0.51218 0.94674 0.74326 0.0
H836 H 0.46416 0.91865 0.75922 0.0
H837 H 0.48377 0.08217 0.70892 0.0
H838 H 0.43621 0.04882 0.69309 0.0
H839 H 0.49042 0.04603 0.69234 0.0
C840 C 0.60804 0.57168 0.63308 0.0
C841 C 0.62643 0.55569 0.61941 0.0
C842 C 0.55877 0.55475 0.6343 0.0
C843 C 0.52728 0.52111 0.62156 0.0
C844 C 0.5458 0.50584 0.6075 0.0
C845 C 0.59499 0.52334 0.60658 0.0
C846 C 0.54027 0.57212 0.6494 0.0
C847 C 0.51355 0.47022 0.59358 0.0
C848 C 0.39625 0.43941 0.63276 0.0
C849 C 0.37464 0.46113 0.62332 0.0
C850 C 0.446 0.45903 0.63258 0.0
C851 C 0.47485 0.5015 0.62282 0.0
C852 C 0.4533 0.52381 0.61343 0.0
C853 C 0.40356 0.50331 0.61373 0.0
C854 C 0.46768 0.43397 0.64263 0.0
C855 C 0.48276 0.56913 0.60288 0.0
H856 H 0.63196 0.59651 0.64308 0.0
H857 H 0.60869 0.51084 0.59589 0.0
H858 H 0.51908 0.58753 0.64387 0.0
H859 H 0.51617 0.54167 0.65808 0.0
H860 H 0.56947 0.59948 0.65785 0.0
H861 H 0.5337 0.46249 0.58335 0.0
H862 H 0.4879 0.43629 0.60024 0.0
H863 H 0.49245 0.48383 0.58661 0.0
H864 H 0.3743 0.40696 0.64024 0.0
H865 H 0.38738 0.52066 0.60649 0.0
H866 H 0.49477 0.45884 0.65234 0.0
H867 H 0.4862 0.42246 0.63307 0.0
H868 H 0.44057 0.40218 0.65006 0.0
H869 H 0.51032 0.59696 0.61168 0.0
H870 H 0.46074 0.58321 0.59697 0.0
H871 H 0.50165 0.56246 0.59184 0.0
C872 C 0.03241 0.6035 0.96433 0.0
C873 C 0.06956 0.62446 0.95178 0.0
C874 C 1.00141 0.55382 0.96462 0.0
C875 C 0.0077 0.5245 0.95208 0.0
C876 C 0.0444 0.54557 0.93914 0.0
C877 C 0.07476 0.59516 0.93913 0.0
C878 C 0.96246 0.53261 0.97856 0.0
C879 C 0.05216 0.51566 0.92546 0.0
C880 C 0.95844 0.39303 0.96274 0.0
C881 C 0.91636 0.37139 0.95252 0.0
C882 C 0.98841 0.44285 0.9628 0.0
C883 C 0.97599 0.47172 0.9524 0.0
C884 C 0.93384 0.45008 0.94194 0.0
C885 C 0.90465 0.40029 0.9421 0.0
C886 C 0.03329 0.46464 0.97403 0.0
C887 C 0.91942 0.47955 0.93063 0.0
H888 H 0.02818 0.62575 0.97418 0.0
H889 H 0.10321 0.61089 0.92933 0.0
H890 H 0.92727 0.51138 0.97191 0.0
H891 H 0.96774 0.50795 0.98735 0.0
H892 H 0.96157 0.5603 0.9871 0.0
H893 H 0.08185 0.53764 0.9161 0.0
H894 H 0.06024 0.4902 0.93241 0.0
H895 H 0.01922 0.49429 0.91746 0.0
H896 H 0.96775 0.3711 0.97088 0.0
H897 H 0.87221 0.38408 0.93416 0.0
H898 H 0.03263 0.48998 0.9839 0.0
H899 H 0.06485 0.48522 0.96532 0.0
H900 H 0.03779 0.43733 0.98142 0.0
H901 H 0.91556 0.50536 0.93925 0.0
H902 H 0.8853 0.45727 0.92336 0.0
H903 H 0.94758 0.50053 0.92062 0.0
C904 C 0.48997 0.88991 0.28387 0.0
C905 C 0.53623 0.90475 0.29019 0.0
C906 C 0.47005 0.91953 0.28519 0.0
C907 C 0.49716 0.96549 0.29282 0.0
C908 C 0.54356 0.98051 0.29952 0.0
C909 C 0.56247 0.94983 0.29821 0.0
C910 C 0.42038 0.90202 0.27799 0.0
C911 C 0.57374 0.02951 0.30757 0.0
C912 C 0.46974 0.05979 0.27618 0.0
C913 C 0.44386 0.06384 0.29054 0.0
C914 C 0.48731 0.02815 0.27686 0.0
C915 C 0.47857 0.99927 0.29222 0.0
C916 C 0.4516 0.00221 0.30664 0.0
C917 C 0.4346 0.03459 0.30565 0.0
C918 C 0.51576 0.0261 0.26116 0.0
C919 C 0.44116 0.97151 0.32315 0.0
H920 H 0.46907 0.85491 0.27785 0.0
H921 H 0.5981 0.96151 0.30319 0.0
H922 H 0.39809 0.90624 0.2883 0.0
H923 H 0.42201 0.92375 0.26619 0.0
H924 H 0.40256 0.86399 0.27381 0.0
H925 H 0.60779 0.03467 0.3132 0.0
H926 H 0.58205 0.057 0.29711 0.0
H927 H 0.55387 0.03559 0.31839 0.0
H928 H 0.47709 0.08202 0.26438 0.0
H929 H 0.41482 0.03753 0.31682 0.0
H930 H 0.49811 0.98953 0.25546 0.0
H931 H 0.55176 0.03457 0.26576 0.0
H932 H 0.51985 0.05139 0.25029 0.0
H933 H 0.42235 0.93328 0.31928 0.0
H934 H 0.41896 0.97737 0.33304 0.0
H935 H 0.47503 0.97927 0.32975 0.0
loop_
_geom_bond_atom_site_label_1
_geom_bond_atom_site_label_2
_geom_bond_distance
_geom_bond_site_symmetry_2
_ccdc_geom_bond_type
O0 Cd1 2.223 . S
O0 C8 1.315 . S
Cd1 O0 2.223 . S
Cd1 O4 2.297 . S
Cd1 O5 2.439 . S
Cd1 O11 2.240 . S
Cd2 O3 2.240 . S
Cd2 O10 2.223 . S
Cd2 O12 2.297 . S
Cd2 O13 2.439 . S
O3 Cd2 2.240 . S
O3 C8 1.279 . S
O4 Cd1 2.297 . S
O4 C6 1.247 . S
O5 Cd1 2.439 . S
O5 C6 1.208 . S
C6 O4 1.247 . S
C6 O5 1.208 . S
C7 O12 1.247 . S
C7 O13 1.208 . S
C8 O0 1.315 . S
C8 O3 1.279 . S
C9 O10 1.315 . S
C9 O11 1.279 . S
O10 Cd2 2.223 . S
O10 C9 1.315 . S
O11 Cd1 2.240 . S
O11 C9 1.279 . S
O12 Cd2 2.297 . S
O12 C7 1.247 . S
O13 Cd2 2.439 . S
O13 C7 1.208 . S
O14 Cd15 2.223 . S
O14 C22 1.315 . S
Cd15 O14 2.223 . S
Cd15 O18 2.297 . S
Cd15 O19 2.439 . S
Cd15 O25 2.240 . S
Cd16 O17 2.240 . S
Cd16 O24 2.223 . S
Cd16 O26 2.297 . S
Cd16 O27 2.439 . S
O17 Cd16 2.240 . S
O17 C22 1.279 . S
O18 Cd15 2.297 . S
O18 C20 1.247 . S
O19 Cd15 2.439 . S
O19 C20 1.208 . S
C20 O18 1.247 . S
C20 O19 1.208 . S
C21 O26 1.247 . S
C21 O27 1.208 . S
C22 O14 1.315 . S
C22 O17 1.279 . S
C23 O24 1.315 . S
C23 O25 1.279 . S
O24 Cd16 2.223 . S
O24 C23 1.315 . S
O25 Cd15 2.240 . S
O25 C23 1.279 . S
O26 Cd16 2.297 . S
O26 C21 1.247 . S
O27 Cd16 2.439 . S
O27 C21 1.208 . S
O28 Cd29 2.223 . S
O28 C36 1.315 . S
Cd29 O28 2.223 . S
Cd29 O32 2.297 . S
Cd29 O33 2.439 . S
Cd29 O39 2.240 . S
Cd30 O31 2.240 . S
Cd30 O38 2.223 . S
Cd30 O40 2.297 . S
Cd30 O41 2.439 . S
O31 Cd30 2.240 . S
O31 C36 1.279 . S
O32 Cd29 2.297 . S
O32 C34 1.247 . S
O33 Cd29 2.439 . S
O33 C34 1.208 . S
C34 O32 1.247 . S
C34 O33 1.208 . S
C35 O40 1.247 . S
C35 O41 1.208 . S
C36 O28 1.315 . S
C36 O31 1.279 . S
C37 O38 1.315 . S
C37 O39 1.279 . S
O38 Cd30 2.223 . S
O38 C37 1.315 . S
O39 Cd29 2.240 . S
O39 C37 1.279 . S
O40 Cd30 2.297 . S
O40 C35 1.247 . S
O41 Cd30 2.439 . S
O41 C35 1.208 . S
O42 Cd43 2.223 . S
O42 C50 1.315 . S
Cd43 O42 2.223 . S
Cd43 O46 2.297 . S
Cd43 O47 2.439 . S
Cd43 O53 2.240 . S
Cd44 O45 2.240 . S
Cd44 O52 2.223 . S
Cd44 O54 2.297 . S
Cd44 O55 2.439 . S
O45 Cd44 2.240 . S
O45 C50 1.279 . S
O46 Cd43 2.297 . S
O46 C48 1.247 . S
O47 Cd43 2.439 . S
O47 C48 1.208 . S
C48 O46 1.247 . S
C48 O47 1.208 . S
C49 O54 1.247 . S
C49 O55 1.208 . S
C50 O42 1.315 . S
C50 O45 1.279 . S
C51 O52 1.315 . S
C51 O53 1.279 . S
O52 Cd44 2.223 . S
O52 C51 1.315 . S
O53 Cd43 2.240 . S
O53 C51 1.279 . S
O54 Cd44 2.297 . S
O54 C49 1.247 . S
O55 Cd44 2.439 . S
O55 C49 1.208 . S
O56 Cd57 2.223 . S
O56 C64 1.315 . S
Cd57 O56 2.223 . S
Cd57 O60 2.297 . S
Cd57 O61 2.439 . S
Cd57 O67 2.240 . S
Cd58 O59 2.240 . S
Cd58 O66 2.223 . S
Cd58 O68 2.297 . S
Cd58 O69 2.439 . S
O59 Cd58 2.240 . S
O59 C64 1.279 . S
O60 Cd57 2.297 . S
O60 C62 1.247 . S
O61 Cd57 2.439 . S
O61 C62 1.208 . S
C62 O60 1.247 . S
C62 O61 1.208 . S
C63 O68 1.247 . S
C63 O69 1.208 . S
C64 O56 1.315 . S
C64 O59 1.279 . S
C65 O66 1.315 . S
C65 O67 1.279 . S
O66 Cd58 2.223 . S
O66 C65 1.315 . S
O67 Cd57 2.240 . S
O67 C65 1.279 . S
O68 Cd58 2.297 . S
O68 C63 1.247 . S
O69 Cd58 2.439 . S
O69 C63 1.208 . S
O70 Cd71 2.223 . S
O70 C78 1.315 . S
Cd71 O70 2.223 . S
Cd71 O74 2.297 . S
Cd71 O75 2.439 . S
Cd71 O81 2.240 . S
Cd72 O73 2.240 . S
Cd72 O80 2.223 . S
Cd72 O82 2.297 . S
Cd72 O83 2.439 . S
O73 Cd72 2.240 . S
O73 C78 1.279 . S
O74 Cd71 2.297 . S
O74 C76 1.247 . S
O75 Cd71 2.439 . S
O75 C76 1.208 . S
C76 O74 1.247 . S
C76 O75 1.208 . S
C77 O82 1.247 . S
C77 O83 1.208 . S
C78 O70 1.315 . S
C78 O73 1.279 . S
C79 O80 1.315 . S
C79 O81 1.279 . S
O80 Cd72 2.223 . S
O80 C79 1.315 . S
O81 Cd71 2.240 . S
O81 C79 1.279 . S
O82 Cd72 2.297 . S
O82 C77 1.247 . S
O83 Cd72 2.439 . S
O83 C77 1.208 . S
O84 Cd85 2.223 . S
O84 C92 1.315 . S
Cd85 O84 2.223 . S
Cd85 O88 2.297 . S
Cd85 O89 2.439 . S
Cd85 O95 2.240 . S
Cd86 O87 2.240 . S
Cd86 O94 2.223 . S
Cd86 O96 2.297 . S
Cd86 O97 2.439 . S
O87 Cd86 2.240 . S
O87 C92 1.279 . S
O88 Cd85 2.297 . S
O88 C90 1.247 . S
O89 Cd85 2.439 . S
O89 C90 1.208 . S
C90 O88 1.247 . S
C90 O89 1.208 . S
C91 O96 1.247 . S
C91 O97 1.208 . S
C92 O84 1.315 . S
C92 O87 1.279 . S
C93 O94 1.315 . S
C93 O95 1.279 . S
O94 Cd86 2.223 . S
O94 C93 1.315 . S
O95 Cd85 2.240 . S
O95 C93 1.279 . S
O96 Cd86 2.297 . S
O96 C91 1.247 . S
O97 Cd86 2.439 . S
O97 C91 1.208 . S
O98 Cd99 2.223 . S
O98 C106 1.315 . S
Cd99 O98 2.223 . S
Cd99 O102 2.297 . S
Cd99 O103 2.439 . S
Cd99 O109 2.240 . S
Cd100 O101 2.240 . S
Cd100 O108 2.223 . S
Cd100 O110 2.297 . S
Cd100 O111 2.439 . S
O101 Cd100 2.240 . S
O101 C106 1.279 . S
O102 Cd99 2.297 . S
O102 C104 1.247 . S
O103 Cd99 2.439 . S
O103 C104 1.208 . S
C104 O102 1.247 . S
C104 O103 1.208 . S
C105 O110 1.247 . S
C105 O111 1.208 . S
C106 O98 1.315 . S
C106 O101 1.279 . S
C107 O108 1.315 . S
C107 O109 1.279 . S
O108 Cd100 2.223 . S
O108 C107 1.315 . S
O109 Cd99 2.240 . S
O109 C107 1.279 . S
O110 Cd100 2.297 . S
O110 C105 1.247 . S
O111 Cd100 2.439 . S
O111 C105 1.208 . S
O112 Cd113 2.223 . S
O112 C120 1.315 . S
Cd113 O112 2.223 . S
Cd113 O116 2.297 . S
Cd113 O117 2.439 . S
Cd113 O123 2.240 . S
Cd114 O115 2.240 . S
Cd114 O122 2.223 . S
Cd114 O124 2.297 . S
Cd114 O125 2.439 . S
O115 Cd114 2.240 . S
O115 C120 1.279 . S
O116 Cd113 2.297 . S
O116 C118 1.247 . S
O117 Cd113 2.439 . S
O117 C118 1.208 . S
C118 O116 1.247 . S
C118 O117 1.208 . S
C119 O124 1.247 . S
C119 O125 1.208 . S
C120 O112 1.315 . S
C120 O115 1.279 . S
C121 O122 1.315 . S
C121 O123 1.279 . S
O122 Cd114 2.223 . S
O122 C121 1.315 . S
O123 Cd113 2.240 . S
O123 C121 1.279 . S
O124 Cd114 2.297 . S
O124 C119 1.247 . S
O125 Cd114 2.439 . S
O125 C119 1.208 . S
O126 Cd127 2.223 . S
O126 C134 1.315 . S
Cd127 O126 2.223 . S
Cd127 O130 2.297 . S
Cd127 O131 2.439 . S
Cd127 O137 2.240 . S
Cd128 O129 2.240 . S
Cd128 O136 2.223 . S
Cd128 O138 2.297 . S
Cd128 O139 2.439 . S
O129 Cd128 2.240 . S
O129 C134 1.279 . S
O130 Cd127 2.297 . S
O130 C132 1.247 . S
O131 Cd127 2.439 . S
O131 C132 1.208 . S
C132 O130 1.247 . S
C132 O131 1.208 . S
C133 O138 1.247 . S
C133 O139 1.208 . S
C134 O126 1.315 . S
C134 O129 1.279 . S
C135 O136 1.315 . S
C135 O137 1.279 . S
O136 Cd128 2.223 . S
O136 C135 1.315 . S
O137 Cd127 2.240 . S
O137 C135 1.279 . S
O138 Cd128 2.297 . S
O138 C133 1.247 . S
O139 Cd128 2.439 . S
O139 C133 1.208 . S
O140 Cd141 2.223 . S
O140 C148 1.315 . S
Cd141 O140 2.223 . S
Cd141 O144 2.297 . S
Cd141 O145 2.439 . S
Cd141 O151 2.240 . S
Cd142 O143 2.240 . S
Cd142 O150 2.223 . S
Cd142 O152 2.297 . S
Cd142 O153 2.439 . S
O143 Cd142 2.240 . S
O143 C148 1.279 . S
O144 Cd141 2.297 . S
O144 C146 1.247 . S
O145 Cd141 2.439 . S
O145 C146 1.208 . S
C146 O144 1.247 . S
C146 O145 1.208 . S
C147 O152 1.247 . S
C147 O153 1.208 . S
C148 O140 1.315 . S
C148 O143 1.279 . S
C149 O150 1.315 . S
C149 O151 1.279 . S
O150 Cd142 2.223 . S
O150 C149 1.315 . S
O151 Cd141 2.240 . S
O151 C149 1.279 . S
O152 Cd142 2.297 . S
O152 C147 1.247 . S
O153 Cd142 2.439 . S
O153 C147 1.208 . S
O154 Cd155 2.223 . S
O154 C162 1.315 . S
Cd155 O154 2.223 . S
Cd155 O158 2.297 . S
Cd155 O159 2.439 . S
Cd155 O165 2.240 . S
Cd156 O157 2.240 . S
Cd156 O164 2.223 . S
Cd156 O166 2.297 . S
Cd156 O167 2.439 . S
O157 Cd156 2.240 . S
O157 C162 1.279 . S
O158 Cd155 2.297 . S
O158 C160 1.247 . S
O159 Cd155 2.439 . S
O159 C160 1.208 . S
C160 O158 1.247 . S
C160 O159 1.208 . S
C161 O166 1.247 . S
C161 O167 1.208 . S
C162 O154 1.315 . S
C162 O157 1.279 . S
C163 O164 1.315 . S
C163 O165 1.279 . S
O164 Cd156 2.223 . S
O164 C163 1.315 . S
O165 Cd155 2.240 . S
O165 C163 1.279 . S
O166 Cd156 2.297 . S
O166 C161 1.247 . S
O167 Cd156 2.439 . S
O167 C161 1.208 . S
C168 C169 1.391 . S
C168 C170 1.396 . S
C168 H184 0.931 . S
C169 C168 1.391 . S
C169 C173 1.376 . S
C170 C168 1.396 . S
C170 C171 1.369 . S
C170 C174 1.528 1_556 S
C171 C170 1.369 . S
C171 C172 1.410 . S
C171 C179 1.503 1_566 S
C172 C171 1.410 . S
C172 C173 1.392 . S
C172 C175 1.511 . S
C173 C169 1.376 . S
C173 C172 1.392 . S
C173 H185 0.929 . S
C174 C170 1.528 1_554 S
C174 H186 0.960 . S
C174 H187 0.962 . S
C174 H188 0.960 . S
C175 C172 1.511 . S
C175 H189 0.961 . S
C175 H190 0.961 1_565 S
C175 H191 0.961 . S
C176 C177 1.370 . S
C176 C178 1.363 . S
C176 H192 0.931 . S
C177 C176 1.370 . S
C177 C181 1.408 . S
C178 C176 1.363 . S
C178 C179 1.370 . S
C178 C182 1.525 1_554 S
C179 C171 1.503 1_544 S
C179 C178 1.370 . S
C179 C180 1.403 . S
C180 C179 1.403 . S
C180 C181 1.404 . S
C180 C183 1.539 1_545 S
C181 C177 1.408 . S
C181 C180 1.404 . S
C181 H193 0.930 . S
C182 C178 1.525 1_556 S
C182 H194 0.956 . S
C182 H195 0.961 . S
C182 H196 0.961 . S
C183 C180 1.539 1_565 S
C183 H197 0.958 . S
C183 H198 0.961 . S
C183 H199 0.960 . S
H184 C168 0.931 . S
H185 C173 0.929 . S
H186 C174 0.960 . S
H187 C174 0.962 . S
H188 C174 0.960 . S
H189 C175 0.961 . S
H190 C175 0.961 1_545 S
H191 C175 0.961 . S
H192 C176 0.931 . S
H193 C181 0.930 . S
H194 C182 0.956 . S
H195 C182 0.961 . S
H196 C182 0.961 . S
H197 C183 0.958 . S
H198 C183 0.961 . S
H199 C183 0.960 . S
C200 C201 1.391 . S
C200 C202 1.394 . S
C200 H216 0.931 . S
C201 C200 1.391 . S
C201 C205 1.376 . S
C202 C200 1.394 . S
C202 C203 1.369 . S
C202 C206 1.531 . S
C203 C202 1.369 . S
C203 C204 1.410 . S
C203 C211 1.503 . S
C204 C203 1.410 . S
C204 C205 1.392 . S
C204 C207 1.511 . S
C205 C201 1.376 . S
C205 C204 1.392 . S
C205 H217 0.929 . S
C206 C202 1.531 . S
C206 H218 0.960 . S
C206 H219 0.962 . S
C206 H220 0.960 . S
C207 C204 1.511 . S
C207 H221 0.961 . S
C207 H222 0.961 . S
C207 H223 0.961 . S
C208 C209 1.370 . S
C208 C210 1.363 . S
C208 H224 0.931 . S
C209 C208 1.370 . S
C209 C213 1.408 . S
C210 C208 1.363 . S
C210 C211 1.370 . S
C210 C214 1.524 . S
C211 C203 1.503 . S
C211 C210 1.370 . S
C211 C212 1.403 . S
C212 C211 1.403 . S
C212 C213 1.404 . S
C212 C215 1.539 . S
C213 C209 1.408 . S
C213 C212 1.404 . S
C213 H225 0.930 . S
C214 C210 1.524 . S
C214 H226 0.956 . S
C214 H227 0.961 . S
C214 H228 0.961 . S
C215 C212 1.539 . S
C215 H229 0.958 . S
C215 H230 0.961 . S
C215 H231 0.960 . S
H216 C200 0.931 . S
H217 C205 0.929 . S
H218 C206 0.960 . S
H219 C206 0.962 . S
H220 C206 0.960 . S
H221 C207 0.961 . S
H222 C207 0.961 . S
H223 C207 0.961 . S
H224 C208 0.931 . S
H225 C213 0.930 . S
H226 C214 0.956 . S
H227 C214 0.961 . S
H228 C214 0.961 . S
H229 C215 0.958 . S
H230 C215 0.961 . S
H231 C215 0.960 . S
C232 C233 1.391 . S
C232 C234 1.394 . S
C232 H248 0.931 . S
C233 C232 1.391 . S
C233 C237 1.376 . S
C234 C232 1.394 . S
C234 C235 1.369 . S
C234 C238 1.531 1_655 S
C235 C234 1.369 . S
C235 C236 1.410 . S
C235 C243 1.503 1_655 S
C236 C235 1.410 . S
C236 C237 1.392 . S
C236 C239 1.511 . S
C237 C233 1.376 . S
C237 C236 1.392 . S
C237 H249 0.929 . S
C238 C234 1.531 1_455 S
C238 H250 0.960 . S
C238 H251 0.962 . S
C238 H252 0.963 1_455 S
C239 C236 1.511 . S
C239 H253 0.961 . S
C239 H254 0.961 . S
C239 H255 0.961 . S
C240 C241 1.370 . S
C240 C242 1.363 . S
C240 H256 0.931 . S
C241 C240 1.370 . S
C241 C245 1.408 . S
C242 C240 1.363 . S
C242 C243 1.370 . S
C242 C246 1.524 . S
C243 C235 1.503 1_455 S
C243 C242 1.370 . S
C243 C244 1.403 . S
C244 C243 1.403 . S
C244 C245 1.404 . S
C244 C247 1.539 1_455 S
C245 C241 1.408 . S
C245 C244 1.404 . S
C245 H257 0.930 . S
C246 C242 1.524 . S
C246 H258 0.956 . S
C246 H259 0.961 . S
C246 H260 0.961 . S
C247 C244 1.539 1_655 S
C247 H261 0.958 . S
C247 H262 0.961 . S
C247 H263 0.960 . S
H248 C232 0.931 . S
H249 C237 0.929 . S
H250 C238 0.960 . S
H251 C238 0.962 . S
H252 C238 0.963 1_655 S
H253 C239 0.961 . S
H254 C239 0.961 . S
H255 C239 0.961 . S
H256 C240 0.931 . S
H257 C245 0.930 . S
H258 C246 0.956 . S
H259 C246 0.961 . S
H260 C246 0.961 . S
H261 C247 0.958 . S
H262 C247 0.961 . S
H263 C247 0.960 . S
C264 C265 1.391 . S
C264 C266 1.394 . S
C264 H280 0.931 . S
C265 C264 1.391 . S
C265 C269 1.376 . S
C266 C264 1.394 . S
C266 C267 1.369 . S
C266 C270 1.531 1_565 S
C267 C266 1.369 . S
C267 C268 1.410 1_554 S
C267 C275 1.503 1_564 S
C268 C267 1.410 1_556 S
C268 C269 1.392 1_556 S
C268 C271 1.511 . S
C269 C265 1.376 . S
C269 C268 1.392 1_554 S
C269 H281 0.952 . S
C270 C266 1.531 1_545 S
C270 H282 0.960 . S
C270 H283 0.962 . S
C270 H284 0.960 . S
C271 C268 1.511 . S
C271 H285 0.961 . S
C271 H286 0.961 . S
C271 H287 0.961 . S
C272 C273 1.370 . S
C272 C274 1.363 . S
C272 H288 0.931 . S
C273 C272 1.370 . S
C273 C277 1.408 . S
C274 C272 1.363 . S
C274 C275 1.370 . S
C274 C278 1.524 . S
C275 C267 1.503 1_546 S
C275 C274 1.370 . S
C275 C276 1.403 . S
C276 C275 1.403 . S
C276 C277 1.404 . S
C276 C279 1.539 . S
C277 C273 1.408 . S
C277 C276 1.404 . S
C277 H289 0.930 . S
C278 C274 1.524 . S
C278 H290 0.956 1_556 S
C278 H291 0.961 1_545 S
C278 H292 0.961 . S
C279 C276 1.539 . S
C279 H293 0.958 1_556 S
C279 H294 0.961 . S
C279 H295 0.960 1_545 S
H280 C264 0.931 . S
H281 C269 0.952 . S
H282 C270 0.960 . S
H283 C270 0.962 . S
H284 C270 0.960 . S
H285 C271 0.961 . S
H286 C271 0.961 . S
H287 C271 0.961 . S
H288 C272 0.931 . S
H289 C277 0.930 . S
H290 C278 0.956 1_554 S
H291 C278 0.961 1_565 S
H292 C278 0.961 . S
H293 C279 0.958 1_554 S
H294 C279 0.961 . S
H295 C279 0.960 1_565 S
C296 C297 1.391 . S
C296 C298 1.394 . S
C296 H312 0.931 . S
C297 C296 1.391 . S
C297 C301 1.376 . S
C298 C296 1.394 . S
C298 C299 1.369 . S
C298 C302 1.531 . S
C299 C298 1.369 . S
C299 C300 1.410 . S
C299 C307 1.503 . S
C300 C299 1.410 . S
C300 C301 1.392 . S
C300 C303 1.511 . S
C301 C297 1.376 . S
C301 C300 1.392 . S
C301 H313 0.929 . S
C302 C298 1.531 . S
C302 H314 0.960 . S
C302 H315 0.962 . S
C302 H316 0.960 . S
C303 C300 1.511 . S
C303 H317 0.961 . S
C303 H318 0.961 . S
C303 H319 0.961 . S
C304 C305 1.370 . S
C304 C306 1.363 . S
C304 H320 0.931 . S
C305 C304 1.370 . S
C305 C309 1.408 . S
C306 C304 1.363 . S
C306 C307 1.370 . S
C306 C310 1.524 . S
C307 C299 1.503 . S
C307 C306 1.370 . S
C307 C308 1.403 . S
C308 C307 1.403 . S
C308 C309 1.404 . S
C308 C311 1.539 . S
C309 C305 1.408 . S
C309 C308 1.404 . S
C309 H321 0.930 . S
C310 C306 1.524 . S
C310 H322 0.956 . S
C310 H323 0.961 . S
C310 H324 0.961 . S
C311 C308 1.539 . S
C311 H325 0.958 . S
C311 H326 0.961 . S
C311 H327 0.960 . S
H312 C296 0.931 . S
H313 C301 0.929 . S
H314 C302 0.960 . S
H315 C302 0.962 . S
H316 C302 0.960 . S
H317 C303 0.961 . S
H318 C303 0.961 . S
H319 C303 0.961 . S
H320 C304 0.931 . S
H321 C309 0.930 . S
H322 C310 0.956 . S
H323 C310 0.961 . S
H324 C310 0.961 . S
H325 C311 0.958 . S
H326 C311 0.961 . S
H327 C311 0.960 . S
C328 C329 1.391 . S
C328 C330 1.394 . S
C328 H344 0.931 . S
C329 C328 1.391 . S
C329 C333 1.376 . S
C330 C328 1.394 . S
C330 C331 1.369 . S
C330 C334 1.531 . S
C331 C330 1.369 . S
C331 C332 1.410 . S
C331 C339 1.503 1_655 S
C332 C331 1.410 . S
C332 C333 1.392 . S
C332 C335 1.511 1_655 S
C333 C329 1.376 . S
C333 C332 1.392 . S
C333 H345 0.929 . S
C334 C330 1.531 . S
C334 H346 0.960 . S
C334 H347 0.962 . S
C334 H348 0.960 . S
C335 C332 1.511 1_455 S
C335 H349 0.961 . S
C335 H350 0.961 . S
C335 H351 0.961 . S
C336 C337 1.370 . S
C336 C338 1.363 . S
C336 H352 0.931 . S
C337 C336 1.370 . S
C337 C341 1.408 . S
C338 C336 1.363 . S
C338 C339 1.370 . S
C338 C342 1.524 . S
C339 C331 1.503 1_455 S
C339 C338 1.370 . S
C339 C340 1.403 . S
C340 C339 1.403 . S
C340 C341 1.404 . S
C340 C343 1.539 . S
C341 C337 1.408 . S
C341 C340 1.404 . S
C341 H353 0.930 . S
C342 C338 1.524 . S
C342 H354 0.956 . S
C342 H355 0.961 . S
C342 H356 0.961 . S
C343 C340 1.539 . S
C343 H357 0.958 1_455 S
C343 H358 0.961 . S
C343 H359 0.960 1_455 S
H344 C328 0.931 . S
H345 C333 0.929 . S
H346 C334 0.960 . S
H347 C334 0.962 . S
H348 C334 0.960 . S
H349 C335 0.961 . S
H350 C335 0.961 . S
H351 C335 0.961 . S
H352 C336 0.931 . S
H353 C341 0.930 . S
H354 C342 0.956 . S
H355 C342 0.961 . S
H356 C342 0.961 . S
H357 C343 0.958 1_655 S
H358 C343 0.961 . S
H359 C343 0.960 1_655 S
C360 C361 1.391 . S
C360 C362 1.394 . S
C360 H376 0.931 . S
C361 C360 1.391 . S
C361 C365 1.376 . S
C362 C360 1.394 . S
C362 C363 1.369 . S
C362 C366 1.531 . S
C363 C362 1.369 . S
C363 C364 1.410 1_556 S
C363 C371 1.503 1_556 S
C364 C363 1.410 1_554 S
C364 C365 1.392 1_554 S
C364 C367 1.511 . S
C365 C361 1.376 . S
C365 C364 1.392 1_556 S
C365 H377 0.929 1_556 S
C366 C362 1.531 . S
C366 H378 0.960 . S
C366 H379 0.962 . S
C366 H380 0.960 . S
C367 C364 1.511 . S
C367 H381 0.961 . S
C367 H382 0.961 . S
C367 H383 0.961 . S
C368 C369 1.370 . S
C368 C370 1.363 . S
C368 H384 0.931 . S
C369 C368 1.370 . S
C369 C373 1.408 . S
C370 C368 1.363 . S
C370 C371 1.370 . S
C370 C374 1.524 . S
C371 C363 1.503 1_554 S
C371 C370 1.370 . S
C371 C372 1.403 . S
C372 C371 1.403 . S
C372 C373 1.404 . S
C372 C375 1.554 . S
C373 C369 1.408 . S
C373 C372 1.404 . S
C373 H385 0.930 . S
C374 C370 1.524 . S
C374 H386 0.956 1_554 S
C374 H387 0.961 . S
C374 H388 0.961 . S
C375 C372 1.554 . S
C375 H389 0.908 1_554 S
C375 H390 0.997 . S
C375 H391 0.962 . S
H376 C360 0.931 . S
H377 C365 0.929 1_554 S
H378 C366 0.960 . S
H379 C366 0.962 . S
H380 C366 0.960 . S
H381 C367 0.961 . S
H382 C367 0.961 . S
H383 C367 0.961 . S
H384 C368 0.931 . S
H385 C373 0.930 . S
H386 C374 0.956 1_556 S
H387 C374 0.961 . S
H388 C374 0.961 . S
H389 C375 0.908 1_556 S
H390 C375 0.997 . S
H391 C375 0.962 . S
C392 C393 1.391 . S
C392 C394 1.394 . S
C392 H408 0.931 . S
C393 C392 1.391 . S
C393 C397 1.376 . S
C394 C392 1.394 . S
C394 C395 1.369 . S
C394 C398 1.531 . S
C395 C394 1.369 . S
C395 C396 1.410 . S
C395 C403 1.503 . S
C396 C395 1.410 . S
C396 C397 1.392 . S
C396 C399 1.511 . S
C397 C393 1.376 . S
C397 C396 1.392 . S
C397 H409 0.929 . S
C398 C394 1.531 . S
C398 H410 0.960 . S
C398 H411 0.962 . S
C398 H412 0.960 . S
C399 C396 1.511 . S
C399 H413 0.961 . S
C399 H414 0.961 . S
C399 H415 0.961 . S
C400 C401 1.370 . S
C400 C402 1.363 . S
C400 H416 0.931 . S
C401 C400 1.370 . S
C401 C405 1.408 . S
C402 C400 1.363 . S
C402 C403 1.370 . S
C402 C406 1.524 . S
C403 C395 1.503 . S
C403 C402 1.370 . S
C403 C404 1.403 . S
C404 C403 1.403 . S
C404 C405 1.404 . S
C404 C407 1.539 . S
C405 C401 1.408 . S
C405 C404 1.404 . S
C405 H417 0.930 . S
C406 C402 1.524 . S
C406 H418 0.956 . S
C406 H419 0.961 . S
C406 H420 0.961 . S
C407 C404 1.539 . S
C407 H421 0.958 . S
C407 H422 0.961 . S
C407 H423 0.960 . S
H408 C392 0.931 . S
H409 C397 0.929 . S
H410 C398 0.960 . S
H411 C398 0.962 . S
H412 C398 0.960 . S
H413 C399 0.961 . S
H414 C399 0.961 . S
H415 C399 0.961 . S
H416 C400 0.931 . S
H417 C405 0.930 . S
H418 C406 0.956 . S
H419 C406 0.961 . S
H420 C406 0.961 . S
H421 C407 0.958 . S
H422 C407 0.961 . S
H423 C407 0.960 . S
C424 C425 1.391 . S
C424 C426 1.394 . S
C424 H440 0.931 . S
C425 C424 1.391 . S
C425 C429 1.376 . S
C426 C424 1.394 . S
C426 C427 1.369 . S
C426 C430 1.531 . S
C427 C426 1.369 . S
C427 C428 1.410 . S
C427 C435 1.503 . S
C428 C427 1.410 . S
C428 C429 1.392 . S
C428 C431 1.511 . S
C429 C425 1.376 . S
C429 C428 1.392 . S
C429 H441 0.929 . S
C430 C426 1.531 . S
C430 H442 0.960 . S
C430 H443 0.962 . S
C430 H444 0.960 . S
C431 C428 1.511 . S
C431 H445 0.961 . S
C431 H446 0.961 . S
C431 H447 0.961 . S
C432 C433 1.370 . S
C432 C434 1.363 . S
C432 H448 0.931 . S
C433 C432 1.370 . S
C433 C437 1.408 . S
C434 C432 1.363 . S
C434 C435 1.370 . S
C434 C438 1.524 . S
C435 C427 1.503 . S
C435 C434 1.370 . S
C435 C436 1.403 . S
C436 C435 1.403 . S
C436 C437 1.404 . S
C436 C439 1.539 . S
C437 C433 1.408 . S
C437 C436 1.404 . S
C437 H449 0.930 . S
C438 C434 1.524 . S
C438 H450 0.956 . S
C438 H451 0.961 . S
C438 H452 0.961 . S
C439 C436 1.539 . S
C439 H453 0.958 . S
C439 H454 0.961 . S
C439 H455 0.960 . S
H440 C424 0.931 . S
H441 C429 0.929 . S
H442 C430 0.960 . S
H443 C430 0.962 . S
H444 C430 0.960 . S
H445 C431 0.961 . S
H446 C431 0.961 . S
H447 C431 0.961 . S
H448 C432 0.931 . S
H449 C437 0.930 . S
H450 C438 0.956 . S
H451 C438 0.961 . S
H452 C438 0.961 . S
H453 C439 0.958 . S
H454 C439 0.961 . S
H455 C439 0.960 . S
C456 C457 1.391 . S
C456 C458 1.394 . S
C456 H472 0.931 . S
C457 C456 1.391 . S
C457 C461 1.376 . S
C458 C456 1.394 . S
C458 C459 1.369 . S
C458 C462 1.531 1_556 S
C459 C458 1.369 . S
C459 C460 1.410 . S
C459 C467 1.503 1_556 S
C460 C459 1.410 . S
C460 C461 1.392 . S
C460 C463 1.511 . S
C461 C457 1.376 . S
C461 C460 1.392 . S
C461 H473 0.929 . S
C462 C458 1.531 1_554 S
C462 H474 0.960 . S
C462 H475 0.962 . S
C462 H476 0.960 . S
C463 C460 1.511 . S
C463 H477 0.961 . S
C463 H478 0.961 . S
C463 H479 0.961 . S
C464 C465 1.370 . S
C464 C466 1.363 . S
C464 H480 0.931 . S
C465 C464 1.370 . S
C465 C469 1.408 . S
C466 C464 1.363 . S
C466 C467 1.370 . S
C466 C470 1.524 . S
C467 C459 1.503 1_554 S
C467 C466 1.370 . S
C467 C468 1.403 1_554 S
C468 C467 1.403 1_556 S
C468 C469 1.404 1_556 S
C468 C471 1.539 . S
C469 C465 1.408 . S
C469 C468 1.404 1_554 S
C469 H481 0.924 1_554 S
C470 C466 1.524 . S
C470 H482 0.956 . S
C470 H483 0.961 . S
C470 H484 0.961 . S
C471 C468 1.539 . S
C471 H485 0.958 . S
C471 H486 0.961 . S
C471 H487 0.960 . S
H472 C456 0.931 . S
H473 C461 0.929 . S
H474 C462 0.960 . S
H475 C462 0.962 . S
H476 C462 0.960 . S
H477 C463 0.961 . S
H478 C463 0.961 . S
H479 C463 0.961 . S
H480 C464 0.931 . S
H481 C469 0.924 1_556 S
H482 C470 0.956 . S
H483 C470 0.961 . S
H484 C470 0.961 . S
H485 C471 0.958 . S
H486 C471 0.961 . S
H487 C471 0.960 . S
C488 C489 1.391 . S
C488 C490 1.394 . S
C488 H504 0.931 . S
C489 C488 1.391 . S
C489 C493 1.376 . S
C490 C488 1.394 . S
C490 C491 1.369 . S
C490 C494 1.531 . S
C491 C490 1.369 . S
C491 C492 1.410 . S
C491 C499 1.503 . S
C492 C491 1.410 . S
C492 C493 1.392 . S
C492 C495 1.511 . S
C493 C489 1.376 . S
C493 C492 1.392 . S
C493 H505 0.929 . S
C494 C490 1.531 . S
C494 H506 0.960 . S
C494 H507 0.962 . S
C494 H508 0.960 . S
C495 C492 1.511 . S
C495 H509 0.961 . S
C495 H510 0.961 . S
C495 H511 0.961 . S
C496 C497 1.370 . S
C496 C498 1.363 . S
C496 H512 0.931 . S
C497 C496 1.370 . S
C497 C501 1.408 . S
C498 C496 1.363 . S
C498 C499 1.370 . S
C498 C502 1.524 . S
C499 C491 1.503 . S
C499 C498 1.370 . S
C499 C500 1.403 . S
C500 C499 1.403 . S
C500 C501 1.404 . S
C500 C503 1.539 . S
C501 C497 1.408 . S
C501 C500 1.404 . S
C501 H513 0.930 . S
C502 C498 1.524 . S
C502 H514 0.956 . S
C502 H515 0.961 . S
C502 H516 0.961 . S
C503 C500 1.539 . S
C503 H517 0.958 . S
C503 H518 0.961 . S
C503 H519 0.960 . S
H504 C488 0.931 . S
H505 C493 0.929 . S
H506 C494 0.960 . S
H507 C494 0.962 . S
H508 C494 0.960 . S
H509 C495 0.961 . S
H510 C495 0.961 . S
H511 C495 0.961 . S
H512 C496 0.931 . S
H513 C501 0.930 . S
H514 C502 0.956 . S
H515 C502 0.961 . S
H516 C502 0.961 . S
H517 C503 0.958 . S
H518 C503 0.961 . S
H519 C503 0.960 . S
C520 C521 1.391 . S
C520 C522 1.394 . S
C520 H536 0.931 . S
C521 C520 1.391 . S
C521 C525 1.376 . S
C522 C520 1.394 . S
C522 C523 1.369 . S
C522 C526 1.531 . S
C523 C522 1.369 . S
C523 C524 1.410 . S
C523 C531 1.503 . S
C524 C523 1.410 . S
C524 C525 1.392 . S
C524 C527 1.511 . S
C525 C521 1.376 . S
C525 C524 1.392 . S
C525 H537 0.929 . S
C526 C522 1.531 . S
C526 H538 0.960 . S
C526 H539 0.962 . S
C526 H540 0.960 . S
C527 C524 1.511 . S
C527 H541 0.961 . S
C527 H542 0.961 . S
C527 H543 0.961 . S
C528 C529 1.370 . S
C528 C530 1.363 . S
C528 H544 0.931 . S
C529 C528 1.370 . S
C529 C533 1.408 . S
C530 C528 1.363 . S
C530 C531 1.370 . S
C530 C534 1.524 . S
C531 C523 1.503 . S
C531 C530 1.370 . S
C531 C532 1.403 . S
C532 C531 1.403 . S
C532 C533 1.404 . S
C532 C535 1.539 . S
C533 C529 1.408 . S
C533 C532 1.404 . S
C533 H545 0.930 . S
C534 C530 1.524 . S
C534 H546 0.956 . S
C534 H547 0.961 . S
C534 H548 0.961 . S
C535 C532 1.539 . S
C535 H549 0.958 . S
C535 H550 0.961 . S
C535 H551 0.960 . S
H536 C520 0.931 . S
H537 C525 0.929 . S
H538 C526 0.960 . S
H539 C526 0.962 . S
H540 C526 0.960 . S
H541 C527 0.961 . S
H542 C527 0.961 . S
H543 C527 0.961 . S
H544 C528 0.931 . S
H545 C533 0.930 . S
H546 C534 0.956 . S
H547 C534 0.961 . S
H548 C534 0.961 . S
H549 C535 0.958 . S
H550 C535 0.961 . S
H551 C535 0.960 . S
C552 C553 1.391 . S
C552 C554 1.394 . S
C552 H568 0.931 . S
C553 C552 1.391 . S
C553 C557 1.376 . S
C554 C552 1.394 . S
C554 C555 1.369 . S
C554 C558 1.531 . S
C555 C554 1.369 . S
C555 C556 1.410 . S
C555 C563 1.503 . S
C556 C555 1.410 . S
C556 C557 1.392 . S
C556 C559 1.511 . S
C557 C553 1.376 . S
C557 C556 1.392 . S
C557 H569 0.929 . S
C558 C554 1.531 . S
C558 H570 0.960 . S
C558 H571 0.962 . S
C558 H572 0.960 . S
C559 C556 1.511 . S
C559 H573 0.961 . S
C559 H574 0.961 . S
C559 H575 0.961 . S
C560 C561 1.370 . S
C560 C562 1.363 . S
C560 H576 0.931 . S
C561 C560 1.370 . S
C561 C565 1.408 . S
C562 C560 1.363 . S
C562 C563 1.370 . S
C562 C566 1.524 . S
C563 C555 1.503 . S
C563 C562 1.370 . S
C563 C564 1.403 . S
C564 C563 1.403 . S
C564 C565 1.404 . S
C564 C567 1.539 . S
C565 C561 1.408 . S
C565 C564 1.404 . S
C565 H577 0.930 . S
C566 C562 1.524 . S
C566 H578 0.956 . S
C566 H579 0.961 . S
C566 H580 0.961 . S
C567 C564 1.539 . S
C567 H581 0.958 . S
C567 H582 0.961 . S
C567 H583 0.960 . S
H568 C552 0.931 . S
H569 C557 0.929 . S
H570 C558 0.960 . S
H571 C558 0.962 . S
H572 C558 0.960 . S
H573 C559 0.961 . S
H574 C559 0.961 . S
H575 C559 0.961 . S
H576 C560 0.931 . S
H577 C565 0.930 . S
H578 C566 0.956 . S
H579 C566 0.961 . S
H580 C566 0.961 . S
H581 C567 0.958 . S
H582 C567 0.961 . S
H583 C567 0.960 . S
C584 C585 1.391 . S
C584 C586 1.394 . S
C584 H600 0.931 . S
C585 C584 1.391 . S
C585 C589 1.376 . S
C586 C584 1.394 . S
C586 C587 1.369 . S
C586 C590 1.531 . S
C587 C586 1.369 . S
C587 C588 1.410 . S
C587 C595 1.503 . S
C588 C587 1.410 . S
C588 C589 1.392 . S
C588 C591 1.511 . S
C589 C585 1.376 . S
C589 C588 1.392 . S
C589 H601 0.929 . S
C590 C586 1.531 . S
C590 H602 0.960 . S
C590 H603 0.962 . S
C590 H604 0.960 . S
C591 C588 1.511 . S
C591 H605 0.961 . S
C591 H606 0.961 . S
C591 H607 0.961 . S
C592 C593 1.370 . S
C592 C594 1.363 . S
C592 H608 0.931 . S
C593 C592 1.370 . S
C593 C597 1.408 . S
C594 C592 1.363 . S
C594 C595 1.370 . S
C594 C598 1.524 . S
C595 C587 1.503 . S
C595 C594 1.370 . S
C595 C596 1.403 . S
C596 C595 1.403 . S
C596 C597 1.404 . S
C596 C599 1.539 . S
C597 C593 1.408 . S
C597 C596 1.404 . S
C597 H609 0.930 . S
C598 C594 1.524 . S
C598 H610 0.956 . S
C598 H611 0.961 . S
C598 H612 0.961 . S
C599 C596 1.539 . S
C599 H613 0.958 . S
C599 H614 0.961 . S
C599 H615 0.960 . S
H600 C584 0.931 . S
H601 C589 0.929 . S
H602 C590 0.960 . S
H603 C590 0.962 . S
H604 C590 0.960 . S
H605 C591 0.961 . S
H606 C591 0.961 . S
H607 C591 0.961 . S
H608 C592 0.931 . S
H609 C597 0.930 . S
H610 C598 0.956 . S
H611 C598 0.961 . S
H612 C598 0.961 . S
H613 C599 0.958 . S
H614 C599 0.961 . S
H615 C599 0.960 . S
C616 C617 1.391 . S
C616 C618 1.394 . S
C616 H632 0.931 . S
C617 C616 1.391 . S
C617 C621 1.376 . S
C618 C616 1.394 . S
C618 C619 1.369 . S
C618 C622 1.531 . S
C619 C618 1.369 . S
C619 C620 1.410 . S
C619 C627 1.503 . S
C620 C619 1.410 . S
C620 C621 1.392 . S
C620 C623 1.511 . S
C621 C617 1.376 . S
C621 C620 1.392 . S
C621 H633 0.929 . S
C622 C618 1.531 . S
C622 H634 0.960 . S
C622 H635 0.962 . S
C622 H636 0.960 . S
C623 C620 1.511 . S
C623 H637 0.961 . S
C623 H638 0.961 . S
C623 H639 0.961 . S
C624 C625 1.370 . S
C624 C626 1.363 . S
C624 H640 0.931 . S
C625 C624 1.370 . S
C625 C629 1.408 . S
C626 C624 1.363 . S
C626 C627 1.370 . S
C626 C630 1.524 . S
C627 C619 1.503 . S
C627 C626 1.370 . S
C627 C628 1.403 . S
C628 C627 1.403 . S
C628 C629 1.404 . S
C628 C631 1.539 . S
C629 C625 1.408 . S
C629 C628 1.404 . S
C629 H641 0.930 . S
C630 C626 1.524 . S
C630 H642 0.956 . S
C630 H643 0.961 . S
C630 H644 0.961 . S
C631 C628 1.539 . S
C631 H645 0.958 . S
C631 H646 0.961 . S
C631 H647 0.960 . S
H632 C616 0.931 . S
H633 C621 0.929 . S
H634 C622 0.960 . S
H635 C622 0.962 . S
H636 C622 0.960 . S
H637 C623 0.961 . S
H638 C623 0.961 . S
H639 C623 0.961 . S
H640 C624 0.931 . S
H641 C629 0.930 . S
H642 C630 0.956 . S
H643 C630 0.961 . S
H644 C630 0.961 . S
H645 C631 0.958 . S
H646 C631 0.961 . S
H647 C631 0.960 . S
C648 C649 1.391 . S
C648 C650 1.394 . S
C648 H664 0.931 . S
C649 C648 1.391 . S
C649 C653 1.376 . S
C650 C648 1.394 . S
C650 C651 1.369 . S
C650 C654 1.531 . S
C651 C650 1.369 . S
C651 C652 1.410 . S
C651 C659 1.503 . S
C652 C651 1.410 . S
C652 C653 1.392 . S
C652 C655 1.511 . S
C653 C649 1.376 . S
C653 C652 1.392 . S
C653 H665 0.929 . S
C654 C650 1.531 . S
C654 H666 0.960 . S
C654 H667 0.962 . S
C654 H668 0.960 . S
C655 C652 1.511 . S
C655 H669 0.961 . S
C655 H670 0.961 . S
C655 H671 0.961 . S
C656 C657 1.370 . S
C656 C658 1.363 . S
C656 H672 0.931 . S
C657 C656 1.370 . S
C657 C661 1.408 . S
C658 C656 1.363 . S
C658 C659 1.370 . S
C658 C662 1.524 . S
C659 C651 1.503 . S
C659 C658 1.370 . S
C659 C660 1.403 . S
C660 C659 1.403 . S
C660 C661 1.404 . S
C660 C663 1.539 . S
C661 C657 1.408 . S
C661 C660 1.404 . S
C661 H673 0.930 . S
C662 C658 1.524 . S
C662 H674 0.956 . S
C662 H675 0.961 . S
C662 H676 0.961 . S
C663 C660 1.539 . S
C663 H677 0.958 . S
C663 H678 0.961 . S
C663 H679 0.960 . S
H664 C648 0.931 . S
H665 C653 0.929 . S
H666 C654 0.960 . S
H667 C654 0.962 . S
H668 C654 0.960 . S
H669 C655 0.961 . S
H670 C655 0.961 . S
H671 C655 0.961 . S
H672 C656 0.931 . S
H673 C661 0.930 . S
H674 C662 0.956 . S
H675 C662 0.961 . S
H676 C662 0.961 . S
H677 C663 0.958 . S
H678 C663 0.961 . S
H679 C663 0.960 . S
C680 C681 1.391 . S
C680 C682 1.394 . S
C680 H696 0.931 . S
C681 C680 1.391 . S
C681 C685 1.376 . S
C682 C680 1.394 . S
C682 C683 1.369 . S
C682 C686 1.531 . S
C683 C682 1.369 . S
C683 C684 1.410 . S
C683 C691 1.503 . S
C684 C683 1.410 . S
C684 C685 1.392 . S
C684 C687 1.511 . S
C685 C681 1.376 . S
C685 C684 1.392 . S
C685 H697 0.929 . S
C686 C682 1.531 . S
C686 H698 0.960 . S
C686 H699 0.962 . S
C686 H700 0.960 . S
C687 C684 1.511 . S
C687 H701 0.961 . S
C687 H702 0.961 . S
C687 H703 0.961 . S
C688 C689 1.370 . S
C688 C690 1.363 . S
C688 H704 0.931 . S
C689 C688 1.370 . S
C689 C693 1.408 . S
C690 C688 1.363 . S
C690 C691 1.370 . S
C690 C694 1.524 . S
C691 C683 1.503 . S
C691 C690 1.370 . S
C691 C692 1.403 . S
C692 C691 1.403 . S
C692 C693 1.404 . S
C692 C695 1.539 . S
C693 C689 1.408 . S
C693 C692 1.404 . S
C693 H705 0.930 . S
C694 C690 1.524 . S
C694 H706 0.956 . S
C694 H707 0.961 . S
C694 H708 0.961 . S
C695 C692 1.539 . S
C695 H709 0.958 . S
C695 H710 0.961 . S
C695 H711 0.960 . S
H696 C680 0.931 . S
H697 C685 0.929 . S
H698 C686 0.960 . S
H699 C686 0.962 . S
H700 C686 0.960 . S
H701 C687 0.961 . S
H702 C687 0.961 . S
H703 C687 0.961 . S
H704 C688 0.931 . S
H705 C693 0.930 . S
H706 C694 0.956 . S
H707 C694 0.961 . S
H708 C694 0.961 . S
H709 C695 0.958 . S
H710 C695 0.961 . S
H711 C695 0.960 . S
C712 C713 1.391 . S
C712 C714 1.394 . S
C712 H728 0.931 . S
C713 C712 1.391 . S
C713 C717 1.376 . S
C714 C712 1.394 . S
C714 C715 1.369 . S
C714 C718 1.531 . S
C715 C714 1.369 . S
C715 C716 1.410 . S
C715 C723 1.503 . S
C716 C715 1.410 . S
C716 C717 1.392 . S
C716 C719 1.511 . S
C717 C713 1.376 . S
C717 C716 1.392 . S
C717 H729 0.929 . S
C718 C714 1.531 . S
C718 H730 0.960 . S
C718 H731 0.962 . S
C718 H732 0.960 . S
C719 C716 1.511 . S
C719 H733 0.961 . S
C719 H734 0.961 . S
C719 H735 0.961 . S
C720 C721 1.370 . S
C720 C722 1.363 . S
C720 H736 0.931 . S
C721 C720 1.370 . S
C721 C725 1.408 . S
C722 C720 1.363 . S
C722 C723 1.370 . S
C722 C726 1.524 . S
C723 C715 1.503 . S
C723 C722 1.370 . S
C723 C724 1.403 . S
C724 C723 1.403 . S
C724 C725 1.404 . S
C724 C727 1.539 . S
C725 C721 1.408 . S
C725 C724 1.404 . S
C725 H737 0.930 . S
C726 C722 1.524 . S
C726 H738 0.956 . S
C726 H739 0.961 . S
C726 H740 0.961 . S
C727 C724 1.539 . S
C727 H741 0.958 . S
C727 H742 0.961 . S
C727 H743 0.960 . S
H728 C712 0.931 . S
H729 C717 0.929 . S
H730 C718 0.960 . S
H731 C718 0.962 . S
H732 C718 0.960 . S
H733 C719 0.961 . S
H734 C719 0.961 . S
H735 C719 0.961 . S
H736 C720 0.931 . S
H737 C725 0.930 . S
H738 C726 0.956 . S
H739 C726 0.961 . S
H740 C726 0.961 . S
H741 C727 0.958 . S
H742 C727 0.961 . S
H743 C727 0.960 . S
C744 C745 1.391 . S
C744 C746 1.394 . S
C744 H760 0.931 . S
C745 C744 1.391 . S
C745 C749 1.376 . S
C746 C744 1.394 . S
C746 C747 1.369 . S
C746 C750 1.531 . S
C747 C746 1.369 . S
C747 C748 1.410 . S
C747 C755 1.503 . S
C748 C747 1.410 . S
C748 C749 1.392 . S
C748 C751 1.511 . S
C749 C745 1.376 . S
C749 C748 1.392 . S
C749 H761 0.929 . S
C750 C746 1.531 . S
C750 H762 0.960 . S
C750 H763 0.962 . S
C750 H764 0.960 . S
C751 C748 1.511 . S
C751 H765 0.961 . S
C751 H766 0.961 . S
C751 H767 0.961 . S
C752 C753 1.370 . S
C752 C754 1.363 . S
C752 H768 0.931 . S
C753 C752 1.370 . S
C753 C757 1.408 . S
C754 C752 1.363 . S
C754 C755 1.370 . S
C754 C758 1.524 . S
C755 C747 1.503 . S
C755 C754 1.370 . S
C755 C756 1.403 . S
C756 C755 1.403 . S
C756 C757 1.404 . S
C756 C759 1.539 . S
C757 C753 1.408 . S
C757 C756 1.404 . S
C757 H769 0.930 . S
C758 C754 1.524 . S
C758 H770 0.956 . S
C758 H771 0.961 . S
C758 H772 0.961 . S
C759 C756 1.539 . S
C759 H773 0.958 . S
C759 H774 0.961 . S
C759 H775 0.960 . S
H760 C744 0.931 . S
H761 C749 0.929 . S
H762 C750 0.960 . S
H763 C750 0.962 . S
H764 C750 0.960 . S
H765 C751 0.961 . S
H766 C751 0.961 . S
H767 C751 0.961 . S
H768 C752 0.931 . S
H769 C757 0.930 . S
H770 C758 0.956 . S
H771 C758 0.961 . S
H772 C758 0.961 . S
H773 C759 0.958 . S
H774 C759 0.961 . S
H775 C759 0.960 . S
C776 C777 1.391 . S
C776 C778 1.394 . S
C776 H792 0.931 . S
C777 C776 1.391 . S
C777 C781 1.376 . S
C778 C776 1.394 . S
C778 C779 1.369 . S
C778 C782 1.531 . S
C779 C778 1.369 . S
C779 C780 1.410 . S
C779 C787 1.503 1_655 S
C780 C779 1.410 . S
C780 C781 1.392 . S
C780 C783 1.511 1_655 S
C781 C777 1.376 . S
C781 C780 1.392 . S
C781 H793 0.929 . S
C782 C778 1.531 . S
C782 H794 0.960 . S
C782 H795 0.962 . S
C782 H796 0.960 . S
C783 C780 1.511 1_455 S
C783 H797 0.961 . S
C783 H798 0.961 . S
C783 H799 0.961 . S
C784 C785 1.370 . S
C784 C786 1.363 . S
C784 H800 0.931 . S
C785 C784 1.370 . S
C785 C789 1.408 . S
C786 C784 1.363 . S
C786 C787 1.370 . S
C786 C790 1.524 1_455 S
C787 C779 1.503 1_455 S
C787 C786 1.370 . S
C787 C788 1.403 . S
C788 C787 1.403 . S
C788 C789 1.404 . S
C788 C791 1.539 . S
C789 C785 1.408 . S
C789 C788 1.404 . S
C789 H801 0.930 . S
C790 C786 1.524 1_655 S
C790 H802 0.956 . S
C790 H803 0.961 . S
C790 H804 0.961 . S
C791 C788 1.539 . S
C791 H805 0.958 . S
C791 H806 0.961 . S
C791 H807 0.960 . S
H792 C776 0.931 . S
H793 C781 0.929 . S
H794 C782 0.960 . S
H795 C782 0.962 . S
H796 C782 0.960 . S
H797 C783 0.961 . S
H798 C783 0.961 . S
H799 C783 0.961 . S
H800 C784 0.931 . S
H801 C789 0.930 . S
H802 C790 0.956 . S
H803 C790 0.961 . S
H804 C790 0.961 . S
H805 C791 0.958 . S
H806 C791 0.961 . S
H807 C791 0.960 . S
C808 C809 1.391 . S
C808 C810 1.394 . S
C808 H824 0.931 . S
C809 C808 1.391 . S
C809 C813 1.376 . S
C810 C808 1.394 . S
C810 C811 1.369 . S
C810 C814 1.531 . S
C811 C810 1.369 . S
C811 C812 1.410 . S
C811 C819 1.503 1_545 S
C812 C811 1.410 . S
C812 C813 1.392 . S
C812 C815 1.511 1_545 S
C813 C809 1.376 . S
C813 C812 1.392 . S
C813 H825 0.929 . S
C814 C810 1.531 . S
C814 H826 0.960 . S
C814 H827 0.962 . S
C814 H828 0.960 . S
C815 C812 1.511 1_565 S
C815 H829 0.961 . S
C815 H830 0.961 . S
C815 H831 0.961 . S
C816 C817 1.370 . S
C816 C818 1.363 . S
C816 H832 0.931 . S
C817 C816 1.370 . S
C817 C821 1.408 . S
C818 C816 1.363 . S
C818 C819 1.370 . S
C818 C822 1.524 . S
C819 C811 1.503 1_565 S
C819 C818 1.370 . S
C819 C820 1.403 . S
C820 C819 1.403 . S
C820 C821 1.404 . S
C820 C823 1.539 . S
C821 C817 1.408 . S
C821 C820 1.404 . S
C821 H833 0.930 . S
C822 C818 1.524 . S
C822 H834 0.956 1_565 S
C822 H835 0.961 . S
C822 H836 0.961 . S
C823 C820 1.539 . S
C823 H837 0.932 1_565 S
C823 H838 0.961 . S
C823 H839 0.960 . S
H824 C808 0.931 . S
H825 C813 0.929 . S
H826 C814 0.960 . S
H827 C814 0.962 . S
H828 C814 0.960 . S
H829 C815 0.961 . S
H830 C815 0.961 . S
H831 C815 0.961 . S
H832 C816 0.931 . S
H833 C821 0.930 . S
H834 C822 0.956 1_545 S
H835 C822 0.961 . S
H836 C822 0.961 . S
H837 C823 0.932 1_545 S
H838 C823 0.961 . S
H839 C823 0.960 . S
C840 C841 1.391 . S
C840 C842 1.394 . S
C840 H856 0.931 . S
C841 C840 1.391 . S
C841 C845 1.376 . S
C842 C840 1.394 . S
C842 C843 1.369 . S
C842 C846 1.531 . S
C843 C842 1.369 . S
C843 C844 1.410 . S
C843 C851 1.503 . S
C844 C843 1.410 . S
C844 C845 1.392 . S
C844 C847 1.511 . S
C845 C841 1.376 . S
C845 C844 1.392 . S
C845 H857 0.929 . S
C846 C842 1.531 . S
C846 H858 0.960 . S
C846 H859 0.962 . S
C846 H860 0.960 . S
C847 C844 1.511 . S
C847 H861 0.961 . S
C847 H862 0.961 . S
C847 H863 0.961 . S
C848 C849 1.370 . S
C848 C850 1.363 . S
C848 H864 0.931 . S
C849 C848 1.370 . S
C849 C853 1.408 . S
C850 C848 1.363 . S
C850 C851 1.370 . S
C850 C854 1.524 . S
C851 C843 1.503 . S
C851 C850 1.370 . S
C851 C852 1.403 . S
C852 C851 1.403 . S
C852 C853 1.404 . S
C852 C855 1.539 . S
C853 C849 1.408 . S
C853 C852 1.404 . S
C853 H865 0.930 . S
C854 C850 1.524 . S
C854 H866 0.956 . S
C854 H867 0.961 . S
C854 H868 0.961 . S
C855 C852 1.539 . S
C855 H869 0.958 . S
C855 H870 0.961 . S
C855 H871 0.960 . S
H856 C840 0.931 . S
H857 C845 0.929 . S
H858 C846 0.960 . S
H859 C846 0.962 . S
H860 C846 0.960 . S
H861 C847 0.961 . S
H862 C847 0.961 . S
H863 C847 0.961 . S
H864 C848 0.931 . S
H865 C853 0.930 . S
H866 C854 0.956 . S
H867 C854 0.961 . S
H868 C854 0.961 . S
H869 C855 0.958 . S
H870 C855 0.961 . S
H871 C855 0.960 . S
C872 C873 1.391 . S
C872 C874 1.394 . S
C872 H888 0.931 . S
C873 C872 1.391 . S
C873 C877 1.376 . S
C874 C872 1.394 . S
C874 C875 1.369 . S
C874 C878 1.531 . S
C875 C874 1.369 . S
C875 C876 1.410 . S
C875 C883 1.503 1_455 S
C876 C875 1.410 . S
C876 C877 1.392 . S
C876 C879 1.511 1_455 S
C877 C873 1.376 . S
C877 C876 1.392 . S
C877 H889 0.929 . S
C878 C874 1.531 . S
C878 H890 0.960 . S
C878 H891 0.962 . S
C878 H892 0.960 . S
C879 C876 1.511 1_655 S
C879 H893 0.961 . S
C879 H894 0.961 . S
C879 H895 0.961 . S
C880 C881 1.370 . S
C880 C882 1.363 . S
C880 H896 0.931 . S
C881 C880 1.370 . S
C881 C885 1.408 . S
C882 C880 1.363 . S
C882 C883 1.370 . S
C882 C886 1.524 1_655 S
C883 C875 1.503 1_655 S
C883 C882 1.370 . S
C883 C884 1.403 . S
C884 C883 1.403 . S
C884 C885 1.404 . S
C884 C887 1.539 . S
C885 C881 1.408 . S
C885 C884 1.404 . S
C885 H897 0.930 . S
C886 C882 1.524 1_455 S
C886 H898 0.956 . S
C886 H899 0.961 . S
C886 H900 0.961 . S
C887 C884 1.539 . S
C887 H901 0.958 . S
C887 H902 0.961 . S
C887 H903 0.960 . S
H888 C872 0.931 . S
H889 C877 0.929 . S
H890 C878 0.960 . S
H891 C878 0.962 . S
H892 C878 0.960 . S
H893 C879 0.961 . S
H894 C879 0.961 . S
H895 C879 0.961 . S
H896 C880 0.931 . S
H897 C885 0.930 . S
H898 C886 0.956 . S
H899 C886 0.961 . S
H900 C886 0.961 . S
H901 C887 0.958 . S
H902 C887 0.961 . S
H903 C887 0.960 . S
C904 C905 1.391 . S
C904 C906 1.394 . S
C904 H920 0.931 . S
C905 C904 1.391 . S
C905 C909 1.376 . S
C906 C904 1.394 . S
C906 C907 1.369 . S
C906 C910 1.531 . S
C907 C906 1.369 . S
C907 C908 1.410 . S
C907 C915 1.503 1_565 S
C908 C907 1.410 . S
C908 C909 1.392 . S
C908 C911 1.511 1_565 S
C909 C905 1.376 . S
C909 C908 1.392 . S
C909 H921 0.929 . S
C910 C906 1.531 . S
C910 H922 0.960 . S
C910 H923 0.962 . S
C910 H924 0.960 . S
C911 C908 1.511 1_545 S
C911 H925 0.961 . S
C911 H926 0.961 . S
C911 H927 0.961 . S
C912 C913 1.370 . S
C912 C914 1.363 . S
C912 H928 0.931 . S
C913 C912 1.370 . S
C913 C917 1.408 . S
C914 C912 1.363 . S
C914 C915 1.370 . S
C914 C918 1.524 1_545 S
C915 C907 1.503 1_545 S
C915 C914 1.370 . S
C915 C916 1.403 . S
C916 C915 1.403 . S
C916 C917 1.404 . S
C916 C919 1.539 . S
C917 C913 1.408 . S
C917 C916 1.404 . S
C917 H929 0.930 . S
C918 C914 1.524 1_565 S
C918 H930 0.956 . S
C918 H931 0.961 . S
C918 H932 0.961 . S
C919 C916 1.539 . S
C919 H933 0.958 . S
C919 H934 0.961 . S
C919 H935 0.960 . S
H920 C904 0.931 . S
H921 C909 0.929 . S
H922 C910 0.960 . S
H923 C910 0.962 . S
H924 C910 0.960 . S
H925 C911 0.961 . S
H926 C911 0.961 . S
H927 C911 0.961 . S
H928 C912 0.931 . S
H929 C917 0.930 . S
H930 C918 0.956 . S
H931 C918 0.961 . S
H932 C918 0.961 . S
H933 C919 0.958 . S
H934 C919 0.961 . S
H935 C919 0.960 . S
C169 C105 1.146 . S
C177 C7 1.185 . S
C201 C21 1.193 . S
C209 C119 1.165 . S
C233 C35 1.158 . S
C241 C133 1.187 . S
C265 C49 1.180 . S
C273 C147 1.180 . S
C297 C161 1.145 . S
C305 C63 1.189 . S
C329 C91 1.160 . S
C337 C77 1.177 . S
C361 C149 1.684 . S
C369 C9 1.697 . S
C393 C23 1.699 . S
C401 C163 1.698 . S
C425 C37 1.697 . S
C433 C93 1.697 . S
C457 C107 1.714 . S
C465 C51 1.704 . S
C489 C121 1.702 . S
C497 C65 1.699 . S
C521 C135 1.717 . S
C529 C79 1.709 . S
C553 C6 1.757 . S
C561 C118 1.749 . S
C585 C20 1.764 . S
C593 C132 1.764 . S
C617 C146 1.748 . S
C625 C34 1.759 . S
C649 C48 1.736 . S
C657 C160 1.743 . S
C681 C90 1.726 . S
C689 C62 1.741 . S
C713 C104 1.756 . S
C721 C76 1.749 . S
C745 C50 1.331 . S
C753 C8 1.325 . S
C777 C64 1.341 . S
C785 C22 1.311 . S
C809 C36 1.336 . S
C817 C78 1.323 . S
C841 C92 1.339 . S
C849 C134 1.310 . S
C873 C106 1.340 . S
C881 C148 1.311 . S
C905 C162 1.342 . S
C913 C120 1.318 . S
