# Generated by pormake.
# Topology smm, (6)-cn, num edge types: 1
# Building blocks:
#     Node 0, Type 0, BuildingBlock: VOLQOD_clean_sbu_1, # of connection points: 6
#     Node 1, Type 0, BuildingBlock: VOLQOD_clean_sbu_1, # of connection points: 6
#     Node 2, Type 0, BuildingBlock: VOLQOD_clean_sbu_1, # of connection points: 6
#     Node 3, Type 0, BuildingBlock: VOLQOD_clean_sbu_1, # of connection points: 6
#     Node 4, Type 0, BuildingBlock: VOLQOD_clean_sbu_1, # of connection points: 6
#     Node 5, Type 0, BuildingBlock: VOLQOD_clean_sbu_1, # of connection points: 6
#     Node 6, Type 0, BuildingBlock: VOLQOD_clean_sbu_1, # of connection points: 6
#     Node 7, Type 0, BuildingBlock: VOLQOD_clean_sbu_1, # of connection points: 6
#     Node 8, Type 0, BuildingBlock: VOLQOD_clean_sbu_1, # of connection points: 6
#     Edge 9, Type (0, 0), BuildingBlock: KIFKEQ_clean_linker_1, # of connection points: 2
#     Edge 10, Type (0, 0), BuildingBlock: KIFKEQ_clean_linker_1, # of connection points: 2
#     Edge 11, Type (0, 0), BuildingBlock: KIFKEQ_clean_linker_1, # of connection points: 2
#     Edge 12, Type (0, 0), BuildingBlock: KIFKEQ_clean_linker_1, # of connection points: 2
#     Edge 13, Type (0, 0), BuildingBlock: KIFKEQ_clean_linker_1, # of connection points: 2
#     Edge 14, Type (0, 0), BuildingBlock: KIFKEQ_clean_linker_1, # of connection points: 2
#     Edge 15, Type (0, 0), BuildingBlock: KIFKEQ_clean_linker_1, # of connection points: 2
#     Edge 16, Type (0, 0), BuildingBlock: KIFKEQ_clean_linker_1, # of connection points: 2
#     Edge 17, Type (0, 0), BuildingBlock: KIFKEQ_clean_linker_1, # of connection points: 2
#     Edge 18, Type (0, 0), BuildingBlock: KIFKEQ_clean_linker_1, # of connection points: 2
#     Edge 19, Type (0, 0), BuildingBlock: KIFKEQ_clean_linker_1, # of connection points: 2
#     Edge 20, Type (0, 0), BuildingBlock: KIFKEQ_clean_linker_1, # of connection points: 2
#     Edge 21, Type (0, 0), BuildingBlock: KIFKEQ_clean_linker_1, # of connection points: 2
#     Edge 22, Type (0, 0), BuildingBlock: KIFKEQ_clean_linker_1, # of connection points: 2
#     Edge 23, Type (0, 0), BuildingBlock: KIFKEQ_clean_linker_1, # of connection points: 2
#     Edge 24, Type (0, 0), BuildingBlock: KIFKEQ_clean_linker_1, # of connection points: 2
#     Edge 25, Type (0, 0), BuildingBlock: KIFKEQ_clean_linker_1, # of connection points: 2
#     Edge 26, Type (0, 0), BuildingBlock: KIFKEQ_clean_linker_1, # of connection points: 2
#     Edge 27, Type (0, 0), BuildingBlock: KIFKEQ_clean_linker_1, # of connection points: 2
#     Edge 28, Type (0, 0), BuildingBlock: KIFKEQ_clean_linker_1, # of connection points: 2
#     Edge 29, Type (0, 0), BuildingBlock: KIFKEQ_clean_linker_1, # of connection points: 2
#     Edge 30, Type (0, 0), BuildingBlock: KIFKEQ_clean_linker_1, # of connection points: 2
#     Edge 31, Type (0, 0), BuildingBlock: KIFKEQ_clean_linker_1, # of connection points: 2
#     Edge 32, Type (0, 0), BuildingBlock: KIFKEQ_clean_linker_1, # of connection points: 2
#     Edge 33, Type (0, 0), BuildingBlock: KIFKEQ_clean_linker_1, # of connection points: 2
#     Edge 34, Type (0, 0), BuildingBlock: KIFKEQ_clean_linker_1, # of connection points: 2
#     Edge 35, Type (0, 0), BuildingBlock: KIFKEQ_clean_linker_1, # of connection points: 2
# Relax obj value: 0.260
# Max RMSD: 0.218
# Mean RMSD: 0.217
data_MOF--net-smm--node1-VOLQOD_clean_sbu_1--edge1-KIFKEQ_clean_linker_1
_symmetry_space_group_name_H-M    P1
_symmetry_Int_Tables_number       1
_symmetry_cell_setting            triclinic
loop_
_symmetry_equiv_pos_as_xyz
'x, y, z'
_cell_length_a     54.535977
_cell_length_b     54.708083
_cell_length_c     17.295949
_cell_angle_alpha  89.94427
_cell_angle_beta   90.01327
_cell_angle_gamma 119.99914
loop_
_atom_site_label
_atom_site_type_symbol
_atom_site_fract_x
_atom_site_fract_y
_atom_site_fract_z
_atom_type_partial_charge
O0 O 0.01512 0.17772 0.85145 0.0
Zn1 Zn 0.0056 0.17431 0.96477 0.0
O2 O 0.03874 0.18157 0.0255 0.0
Zn3 Zn 0.05285 0.21611 0.08529 0.0
Zn4 Zn 0.06861 0.18486 0.95856 0.0
Zn5 Zn 0.02877 0.15094 0.09512 0.0
O6 O 0.0586 0.21056 0.19845 0.0
O7 O 0.03151 0.16391 0.20264 0.0
O8 O -0.00776 0.20136 -0.0052 0.0
O9 O 0.02312 0.22721 0.0859 0.0
O10 O 0.08716 0.24815 0.03346 0.0
O11 O 0.09825 0.22521 0.94731 0.0
O12 O 0.08579 0.16162 -0.00541 0.0
O13 O 0.97254 0.13515 0.98509 0.0
O14 O 0.0551 0.13569 0.08575 0.0
O15 O -0.01082 0.12016 0.07985 0.0
C16 C 0.03454 0.17598 0.81514 0.0
C17 C 0.04522 0.18758 0.23647 0.0
C18 C 0.1025 0.24813 0.97783 0.0
C19 C 0.00086 0.22038 0.04678 0.0
C20 C 0.07712 0.14227 0.04569 0.0
C21 C 0.96923 0.11655 0.03483 0.0
O22 O 0.0545 0.17496 0.85047 0.0
O23 O 0.782 0.85325 0.25228 0.0
Zn24 Zn 0.78521 0.86037 0.1357 0.0
O25 O 0.80278 0.84085 0.08495 0.0
Zn26 Zn 0.77472 0.8089 0.02662 0.0
Zn27 Zn 0.81874 0.82711 0.16119 0.0
Zn28 Zn 0.83225 0.86618 0.01486 0.0
O29 O 0.7812 0.81539 0.91213 0.0
O30 O 0.82179 0.85577 0.90391 0.0
O31 O 0.74675 0.84674 0.08714 0.0
O32 O 0.73655 0.80455 0.04281 0.0
O33 O 0.77405 0.77288 0.05366 0.0
O34 O 0.80487 0.78587 0.1501 0.0
O35 O 0.86084 0.84703 0.15355 0.0
O36 O 0.80788 0.90249 0.11604 0.0
O37 O 0.86956 0.86888 0.04004 0.0
O38 O 0.83776 0.9047 0.02531 0.0
C39 C 0.7924 0.84152 0.29453 0.0
C40 C 0.80051 0.83513 0.87201 0.0
C41 C 0.78726 0.76711 0.10454 0.0
C42 C 0.72949 0.82306 0.05657 0.0
C43 C 0.87794 0.86157 0.09996 0.0
C44 C 0.82742 0.91645 0.06701 0.0
O45 O 0.80713 0.83164 0.26603 0.0
O46 O 0.18599 0.97487 0.97792 0.0
Zn47 Zn 0.18718 0.98601 0.09003 0.0
O48 O 0.16128 0.95358 0.15182 0.0
Zn49 Zn 0.18179 0.93972 0.2102 0.0
Zn50 Zn 0.13562 0.92297 0.08605 0.0
Zn51 Zn 0.14072 0.96386 0.22167 0.0
O52 O 0.1685 0.93118 0.32126 0.0
O53 O 0.14923 0.95858 0.33104 0.0
O54 O 0.2268 0.00316 0.13333 0.0
O55 O 0.22197 0.97019 0.21699 0.0
O56 O 0.18124 0.90812 0.14966 0.0
O57 O 0.13768 0.88797 0.10421 0.0
O58 O 0.09583 0.91451 0.09959 0.0
O59 O 0.17578 0.01568 0.09516 0.0
O60 O 0.09884 0.94003 0.20271 0.0
O61 O 0.14982 0.00375 0.20233 0.0
C62 C 0.16801 0.9529 0.9414 0.0
C63 C 0.15857 0.94368 0.36209 0.0
C64 C 0.16125 0.88869 0.11035 0.0
C65 C 0.23704 -0.00598 0.18455 0.0
C66 C 0.08429 0.92232 0.15031 0.0
C67 C 0.16215 0.02074 0.14643 0.0
O68 O 0.14722 0.93248 0.97575 0.0
O69 O 0.6543 0.5059 0.41728 0.0
Zn70 Zn 0.66236 0.50839 0.30221 0.0
O71 O 0.62663 0.48859 0.24363 0.0
Zn72 Zn 0.62191 0.51468 0.17907 0.0
Zn73 Zn 0.59422 0.47118 0.31185 0.0
Zn74 Zn 0.62638 0.45992 0.17879 0.0
O75 O 0.6132 0.50209 0.06873 0.0
O76 O 0.62396 0.46797 0.06773 0.0
O77 O 0.68575 0.5494 0.26782 0.0
O78 O 0.65811 0.55054 0.17545 0.0
O79 O 0.59446 0.52477 0.22504 0.0
O80 O 0.57204 0.49116 0.31223 0.0
O81 O 0.56927 0.42979 0.29358 0.0
O82 O 0.68662 0.49076 0.28165 0.0
O83 O 0.59354 0.42174 0.20415 0.0
O84 O 0.66217 0.45885 0.1914 0.0
C85 C 0.63117 0.4912 0.45404 0.0
C86 C 0.61758 0.48441 0.03238 0.0
C87 C 0.57596 0.5134 0.27804 0.0
C88 C 0.68114 0.5623 0.2133 0.0
C89 C 0.5724 0.41294 0.24957 0.0
C90 C 0.68396 0.47183 0.23408 0.0
O91 O 0.60781 0.47621 0.41932 0.0
O92 O 0.49601 0.15786 0.54108 0.0
Zn93 Zn 0.48931 0.15933 0.42663 0.0
O94 O 0.51674 0.15385 0.36726 0.0
Zn95 Zn 0.49836 0.12023 0.30378 0.0
Zn96 Zn 0.54221 0.15003 0.43681 0.0
Zn97 Zn 0.53875 0.18572 0.30212 0.0
O98 O 0.5089 0.12778 0.19112 0.0
O99 O 0.53301 0.17457 0.19192 0.0
O100 O 0.44932 0.12995 0.39719 0.0
O101 O 0.45696 0.10524 0.30809 0.0
O102 O 0.50351 0.08912 0.34719 0.0
O103 O 0.53005 0.10928 0.4506 0.0
O104 O 0.58262 0.17176 0.40066 0.0
O105 O 0.49298 0.19727 0.40289 0.0
O106 O 0.58016 0.2021 0.32027 0.0
O107 O 0.52691 0.21439 0.3135 0.0
C108 C 0.5181 0.16179 0.57716 0.0
C109 C 0.52184 0.1513 0.15566 0.0
C110 C 0.51505 0.08755 0.40955 0.0
C111 C 0.44022 0.11022 0.34722 0.0
C112 C 0.5945 0.19315 0.35622 0.0
C113 C 0.50864 0.2163 0.35464 0.0
O114 O 0.53904 0.16271 0.54201 0.0
O115 O 0.86747 0.34824 0.38374 0.0
Zn116 Zn 0.85925 0.33611 0.27251 0.0
O117 O 0.86521 0.36757 0.20753 0.0
Zn118 Zn 0.89822 0.37903 0.14476 0.0
Zn119 Zn 0.87093 0.39873 0.27192 0.0
Zn120 Zn 0.83332 0.35715 0.14178 0.0
O121 O 0.89185 0.38639 0.03506 0.0
O122 O 0.84478 0.36142 0.03092 0.0
O123 O 0.88251 0.31896 0.2359 0.0
O124 O 0.9065 0.34752 0.1387 0.0
O125 O 0.93183 0.41132 0.19595 0.0
O126 O 0.91208 0.42742 0.27847 0.0
O127 O 0.84678 0.41542 0.24158 0.0
O128 O 0.81833 0.30587 0.26796 0.0
O129 O 0.81739 0.3826 0.15974 0.0
O130 O 0.8022 0.31802 0.16549 0.0
C131 C 0.86436 0.36711 0.41818 0.0
C132 C 0.86867 0.37525 -0.00268 0.0
C133 C 0.93395 0.42844 0.24897 0.0
C134 C 0.89955 0.32557 0.17909 0.0
C135 C 0.82499 0.40507 0.19828 0.0
C136 C 0.79862 0.30095 0.22021 0.0
O137 O 0.8615 0.38558 0.38085 0.0
O138 O 0.26878 0.83058 0.44907 0.0
Zn139 Zn 0.26465 0.82191 0.56513 0.0
O140 O 0.30125 0.83836 0.61572 0.0
Zn141 Zn 0.30973 0.87282 0.67036 0.0
Zn142 Zn 0.32921 0.84586 0.53895 0.0
Zn143 Zn 0.30257 0.81253 0.68821 0.0
O144 O 0.30855 0.86701 0.78658 0.0
O145 O 0.29987 0.82301 0.79734 0.0
O146 O 0.24337 0.83798 0.62025 0.0
O147 O 0.27793 0.8808 0.65292 0.0
O148 O 0.34853 0.90561 0.64048 0.0
O149 O 0.36148 0.88423 0.55416 0.0
O150 O 0.34611 0.82097 0.54807 0.0
O151 O 0.24319 0.77948 0.58125 0.0
O152 O 0.33819 0.81064 0.67304 0.0
O153 O 0.26951 0.77432 0.67094 0.0
C154 C 0.2906 0.8394 0.40588 0.0
C155 C 0.30307 0.84556 0.82785 0.0
C156 C 0.36684 0.90579 0.59413 0.0
C157 C 0.25166 0.8623 0.64942 0.0
C158 C 0.35132 0.81218 0.61062 0.0
C159 C 0.24777 0.76403 0.62755 0.0
O160 O 0.31449 0.845 0.43331 0.0
O161 O 0.14037 0.49014 0.80868 0.0
Zn162 Zn 0.14053 0.49915 0.69518 0.0
O163 O 0.16436 0.48877 0.63653 0.0
Zn164 Zn 0.14177 0.45346 0.5807 0.0
Zn165 Zn 0.18945 0.48475 0.70609 0.0
Zn166 Zn 0.1861 0.51831 0.56397 0.0
O167 O 0.15215 0.45785 0.46657 0.0
O168 O 0.17481 0.5046 0.457 0.0
O169 O 0.10173 0.47932 0.64864 0.0
O170 O 0.10162 0.44548 0.57727 0.0
O171 O 0.14485 0.4212 0.63029 0.0
O172 O 0.18295 0.44581 0.70323 0.0
O173 O 0.2302 0.51146 0.68268 0.0
O174 O 0.15356 0.54063 0.68364 0.0
O175 O 0.22755 0.53242 0.57568 0.0
O176 O 0.18046 0.55124 0.5789 0.0
C177 C 0.15906 0.48798 0.84765 0.0
C178 C 0.16285 0.48032 0.42588 0.0
C179 C 0.16375 0.4224 0.67629 0.0
C180 C 0.08933 0.45851 0.60249 0.0
C181 C 0.24203 0.5285 0.62676 0.0
C182 C 0.16811 0.55784 0.63019 0.0
O183 O 0.18021 0.48841 0.81518 0.0
O184 O 0.54912 0.73968 0.43466 0.0
Zn185 Zn 0.54372 0.74373 0.55049 0.0
O186 O 0.52815 0.70733 0.60166 0.0
Zn187 Zn 0.55785 0.70322 0.65104 0.0
Zn188 Zn 0.50814 0.67846 0.52742 0.0
Zn189 Zn 0.50158 0.70353 0.67864 0.0
O190 O 0.55508 0.70363 0.7698 0.0
O191 O 0.51738 0.70857 0.78466 0.0
O192 O 0.58053 0.76893 0.60604 0.0
O193 O 0.59482 0.73785 0.62613 0.0
O194 O 0.55746 0.66777 0.61275 0.0
O195 O 0.51912 0.64933 0.53811 0.0
O196 O 0.46622 0.65871 0.54345 0.0
O197 O 0.51731 0.75969 0.56497 0.0
O198 O 0.46526 0.66689 0.66878 0.0
O199 O 0.49118 0.73274 0.66221 0.0
C200 C 0.53695 0.7177 0.3919 0.0
C201 C 0.53839 0.70761 0.81297 0.0
C202 C 0.53932 0.6479 0.5701 0.0
C203 C 0.59931 0.76307 0.62837 0.0
C204 C 0.45294 0.65359 0.60737 0.0
C205 C 0.49787 0.75299 0.61535 0.0
O206 O 0.51972 0.69358 0.42018 0.0
H207 H 0.12387 0.25412 0.83211 0.0
H208 H 0.12198 0.30233 0.02785 0.0
H209 H 0.14365 0.29638 0.75194 0.0
H210 H 0.14249 0.34476 0.94729 0.0
H211 H 0.12561 0.36711 0.63983 0.0
H212 H 0.11748 0.32512 0.71192 0.0
H213 H 0.18796 0.37703 0.86128 0.0
H214 H 0.19664 0.41875 0.78924 0.0
C215 C 0.12849 0.27387 0.85887 0.0
C216 C 0.12113 0.27481 0.93649 0.0
C217 C 0.13961 0.29797 0.81253 0.0
C218 C 0.14423 0.32358 0.84337 0.0
C219 C 0.1391 0.32515 0.92234 0.0
C220 C 0.12742 0.30091 0.96844 0.0
C221 C 0.13979 0.36948 0.68676 0.0
C222 C 0.16154 0.39634 0.70909 0.0
C223 C 0.13517 0.34549 0.72789 0.0
C224 C 0.15199 0.34806 0.79243 0.0
C225 C 0.17461 0.37461 0.81211 0.0
C226 C 0.17953 0.39845 0.77046 0.0
H227 H 0.68119 0.77388 0.02706 0.0
H228 H 0.72149 0.86395 -0.00923 0.0
H229 H 0.64993 0.76617 0.9178 0.0
H230 H 0.69 0.85602 0.88084 0.0
H231 H 0.64874 0.76421 0.6575 0.0
H232 H 0.67735 0.78352 0.77353 0.0
H233 H 0.63035 0.82497 0.83332 0.0
H234 H 0.60138 0.80555 0.71675 0.0
C235 C 0.68252 0.79205 -0.00208 0.0
C236 C 0.70405 0.81945 0.01648 0.0
C237 C 0.66483 0.78764 0.93508 0.0
C238 C 0.66833 0.81053 0.89016 0.0
C239 C 0.68722 0.83812 0.91459 0.0
C240 C 0.705 0.84259 0.97788 0.0
C241 C 0.64515 0.77828 0.6937 0.0
C242 C 0.62257 0.78301 0.67867 0.0
C243 C 0.66132 0.78908 0.76037 0.0
C244 C 0.65531 0.80493 0.81285 0.0
C245 C 0.63504 0.81252 0.79371 0.0
C246 C 0.61872 0.80163 0.72667 0.0
H247 H 0.12893 0.85743 0.98759 0.0
H248 H 0.21147 0.88953 0.09229 0.0
H249 H 0.14724 0.8502 0.86636 0.0
H250 H 0.22948 0.88211 0.97111 0.0
H251 H 0.26239 0.90935 0.73113 0.0
H252 H 0.23674 0.91031 0.84497 0.0
H253 H 0.17101 0.82466 0.80016 0.0
H254 H 0.19661 0.82345 0.68574 0.0
C255 C 0.15068 0.86202 0.98583 0.0
C256 C 0.16891 0.87468 0.0494 0.0
C257 C 0.16116 0.85804 0.91605 0.0
C258 C 0.18994 0.86657 0.90891 0.0
C259 C 0.20736 0.87623 0.97466 0.0
C260 C 0.19692 0.8801 0.04438 0.0
C261 C 0.24212 0.89093 0.74401 0.0
C262 C 0.23193 0.8661 0.70014 0.0
C263 C 0.22762 0.89139 0.80984 0.0
C264 C 0.2025 0.86718 0.83266 0.0
C265 C 0.1906 0.84343 0.78432 0.0
C266 C 0.20521 0.84287 0.71849 0.0
H267 H 0.39876 0.12366 0.37318 0.0
H268 H 0.41296 0.05797 0.28396 0.0
H269 H 0.34878 0.09591 0.33534 0.0
H270 H 0.36347 0.03057 0.24664 0.0
H271 H 0.26785 0.97716 0.26961 0.0
H272 H 0.31621 0.00575 0.31536 0.0
H273 H 0.32193 0.07905 0.20371 0.0
H274 H 0.27315 0.05038 0.15756 0.0
C275 C 0.39115 0.10323 0.3464 0.0
C276 C 0.40969 0.09296 0.33138 0.0
C277 C 0.36272 0.08754 0.3242 0.0
C278 C 0.35244 0.06123 0.288 0.0
C279 C 0.37085 0.05073 0.2749 0.0
C280 C 0.39919 0.06647 0.29605 0.0
C281 C 0.27934 -0.00064 0.25464 0.0
C282 C 0.26673 0.01149 0.20958 0.0
C283 C 0.30702 0.01568 0.28086 0.0
C284 C 0.32266 0.04453 0.26308 0.0
C285 C 0.31012 0.05686 0.2187 0.0
C286 C 0.28238 0.04041 0.1917 0.0
H287 H 0.92378 0.32457 0.04254 0.0
H288 H 0.90249 0.28589 0.26903 0.0
H289 H 0.94585 0.29669 0.00973 0.0
H290 H 0.92482 0.25804 0.23584 0.0
H291 H 0.00408 0.24984 0.17668 0.0
H292 H 0.97671 0.27254 0.20825 0.0
H293 H 0.93238 0.24473 -0.00924 0.0
H294 H 0.95972 0.22169 0.95882 0.0
C295 C 0.92372 0.31003 0.08524 0.0
C296 C 0.91161 0.30757 0.15866 0.0
C297 C 0.93614 0.29393 0.06611 0.0
C298 C 0.93702 0.27531 0.1203 0.0
C299 C 0.92451 0.27242 0.19326 0.0
C300 C 0.9117 0.28827 0.21211 0.0
C301 C -0.01148 0.24852 0.13543 0.0
C302 C 0.98417 0.23412 0.06497 0.0
C303 C 0.97268 0.26129 0.15397 0.0
C304 C 0.95242 0.26023 0.10207 0.0
C305 C 0.94797 0.24585 0.03161 0.0
C306 C 0.96356 0.23269 0.01345 0.0
H307 H 0.7891 0.74163 0.23795 0.0
H308 H 0.76959 0.72621 -0.00525 0.0
H309 H 0.76895 0.69118 0.25995 0.0
H310 H 0.75097 0.67593 0.01559 0.0
H311 H 0.67595 0.5944 0.10232 0.0
H312 H 0.70773 0.64314 0.07204 0.0
H313 H 0.76674 0.64641 0.24448 0.0
H314 H 0.73383 0.59692 0.27739 0.0
C315 C 0.78127 0.72748 0.18884 0.0
C316 C 0.78023 0.73762 0.11496 0.0
C317 C 0.76991 0.69858 0.20133 0.0
C318 C 0.75777 0.67943 0.13982 0.0
C319 C 0.75934 0.69003 0.06467 0.0
C320 C 0.77007 0.7188 0.05255 0.0
C321 C 0.69574 0.60525 0.1338 0.0
C322 C 0.70219 0.59173 0.19292 0.0
C323 C 0.71426 0.6333 0.11552 0.0
C324 C 0.74 0.64873 0.15518 0.0
C325 C 0.74697 0.63512 0.21312 0.0
C326 C 0.72819 0.60681 0.23188 0.0
H327 H 0.06469 0.49148 0.60827 0.0
H328 H 0.05568 0.41551 0.50457 0.0
H329 H 0.03006 0.49062 0.51769 0.0
H330 H 0.02067 0.41438 0.41542 0.0
H331 H 0.94367 0.45685 0.38593 0.0
H332 H 0.98077 0.46514 0.47756 0.0
H333 H 0.02259 0.44253 0.30322 0.0
H334 H 0.98504 0.4334 0.21181 0.0
C335 C 0.05477 0.47414 0.56767 0.0
C336 C 0.06321 0.45371 0.56317 0.0
C337 C 0.03507 0.47381 0.51536 0.0
C338 C 0.02334 0.45296 0.45787 0.0
C339 C 0.03014 0.43133 0.4573 0.0
C340 C 0.04986 0.4317 0.50929 0.0
C341 C 0.96121 0.45449 0.36609 0.0
C342 C 0.96095 0.4437 0.29199 0.0
C343 C 0.98245 0.45914 0.419 0.0
C344 C 0.00398 0.45342 0.39844 0.0
C345 C 0.00562 0.44606 0.32152 0.0
C346 C 0.98432 0.44126 0.26873 0.0
H347 H 0.58907 0.64853 0.54694 0.0
H348 H 0.49826 0.59454 0.53653 0.0
H349 H 0.59491 0.61336 0.47438 0.0
H350 H 0.50412 0.55944 0.46451 0.0
H351 H 0.53506 0.49613 0.38993 0.0
H352 H 0.5254 0.52671 0.47181 0.0
H353 H 0.58131 0.59848 0.33139 0.0
H354 H 0.59095 0.56818 0.2492 0.0
C355 C 0.57045 0.62878 0.53144 0.0
C356 C 0.54325 0.62424 0.54682 0.0
C357 C 0.57375 0.60888 0.48906 0.0
C358 C 0.54991 0.58405 0.46266 0.0
C359 C 0.52279 0.57847 0.48389 0.0
C360 C 0.51949 0.5985 0.52522 0.0
C361 C 0.54474 0.5183 0.37528 0.0
C362 C 0.564 0.52974 0.31342 0.0
C363 C 0.53935 0.53579 0.42253 0.0
C364 C 0.55331 0.56498 0.40904 0.0
C365 C 0.57091 0.5761 0.34409 0.0
C366 C 0.57605 0.55863 0.29635 0.0
H367 H 0.4913 0.03695 0.33478 0.0
H368 H 0.51458 0.07455 0.562 0.0
H369 H 0.46072 -0.00889 0.39357 0.0
H370 H 0.4837 0.02859 0.62065 0.0
H371 H 0.41197 0.90981 0.51587 0.0
H372 H 0.45574 0.95232 0.48215 0.0
H373 H 0.42939 0.00226 0.61364 0.0
H374 H 0.38524 0.95952 0.64798 0.0
C375 C 0.4907 0.03524 0.39725 0.0
C376 C 0.50498 0.05939 0.44363 0.0
C377 C 0.47318 0.00898 0.431 0.0
C378 C 0.46949 0.00651 0.51162 0.0
C379 C 0.48593 0.0301 0.55832 0.0
C380 C 0.50381 0.05632 0.52459 0.0
C381 C 0.41553 0.92978 0.53856 0.0
C382 C 0.3948 0.93138 0.58332 0.0
C383 C 0.44071 0.95407 0.51936 0.0
C384 C 0.44582 0.9805 0.54479 0.0
C385 C 0.42603 0.98204 0.59383 0.0
C386 C 0.40068 0.95763 0.61299 0.0
H387 H 0.14475 0.04485 0.25506 0.0
H388 H 0.1685 0.05089 0.01444 0.0
H389 H 0.12858 0.07845 0.23298 0.0
H390 H 0.15141 0.0838 -0.00824 0.0
H391 H 0.12853 0.15373 0.98602 0.0
H392 H 0.1547 0.12927 0.01501 0.0
H393 H 0.08721 0.0725 0.16719 0.0
H394 H 0.06161 0.09707 0.14006 0.0
C395 C 0.14683 0.05362 0.19765 0.0
C396 C 0.15747 0.04489 0.13624 0.0
C397 C 0.13742 0.07274 0.18487 0.0
C398 C 0.13809 0.08326 0.11022 0.0
C399 C 0.15064 0.07613 0.04996 0.0
C400 C 0.16037 0.0572 0.06295 0.0
C401 C 0.11937 0.13605 0.02576 0.0
C402 C 0.09301 0.1274 0.06082 0.0
C403 C 0.13435 0.12206 0.04231 0.0
C404 C 0.12321 0.09917 0.09414 0.0
C405 C 0.09678 0.0905 0.12858 0.0
C406 C 0.08193 0.10446 0.11235 0.0
H407 H 0.82817 0.9538 0.17391 0.0
H408 H 0.85384 0.94834 0.9412 0.0
H409 H 0.8557 0.00541 0.16602 0.0
H410 H 0.88125 -0.00057 0.9336 0.0
H411 H 0.92621 0.0928 0.92841 0.0
H412 H 0.88364 0.04608 0.93577 0.0
H413 H 0.90834 0.03435 0.16399 0.0
H414 H 0.95038 0.08064 0.15704 0.0
C415 C 0.83911 0.96361 0.1206 0.0
C416 C 0.83943 0.94716 0.05883 0.0
C417 C 0.85486 -0.00693 0.1161 0.0
C418 C 0.87079 0.00638 0.04944 0.0
C419 C 0.86904 0.98984 0.98548 0.0
C420 C 0.85362 0.96053 -0.00975 0.0
C421 C 0.9222 0.08039 0.98058 0.0
C422 C 0.94188 0.09008 0.04146 0.0
C423 C 0.89788 0.05374 0.98483 0.0
C424 C 0.89275 0.03659 0.05038 0.0
C425 C 0.91151 0.04717 0.11313 0.0
C426 C 0.93584 0.07356 0.10861 0.0
H427 H 0.90444 0.85604 0.22707 0.0
H428 H 0.91968 0.88631 -0.00901 0.0
H429 H 0.95415 0.86976 0.24033 0.0
H430 H 0.9695 0.90015 0.00485 0.0
H431 H 0.05114 0.9301 0.25465 0.0
H432 H 0.00098 0.91501 0.24258 0.0
H433 H -0.0021 0.87576 0.02351 0.0
H434 H 0.04802 0.89088 0.03496 0.0
C435 C 0.91837 0.86562 0.178 0.0
C436 C 0.90811 0.87007 0.10789 0.0
C437 C 0.94684 0.87358 0.18585 0.0
C438 C 0.96556 0.88596 0.12361 0.0
C439 C 0.95538 0.89037 0.05346 0.0
C440 C 0.92692 0.8826 0.04573 0.0
C441 C 0.03975 0.91812 0.20411 0.0
C442 C 0.05357 0.91174 0.1457 0.0
C443 C 0.01104 0.90942 0.19739 0.0
C444 C -0.0043 0.89436 0.13195 0.0
C445 C 0.00938 0.88764 0.0741 0.0
C446 C 0.03801 0.89614 0.08102 0.0
H447 H 0.69486 0.44869 0.10952 0.0
H448 H 0.72493 0.48015 0.33953 0.0
H449 H 0.7315 0.4362 0.09541 0.0
H450 H 0.761 0.46637 0.32696 0.0
H451 H 0.83585 0.45583 0.25959 0.0
H452 H 0.80376 0.47483 0.2644 0.0
H453 H 0.74026 0.40115 0.14305 0.0
H454 H 0.77244 0.38292 0.13546 0.0
C455 C 0.70921 0.45273 0.1574 0.0
C456 C 0.70684 0.46508 0.22601 0.0
C457 C 0.73019 0.44549 0.14941 0.0
C458 C 0.74899 0.44991 0.21041 0.0
C459 C 0.74706 0.46292 0.27852 0.0
C460 C 0.72628 0.47062 0.28602 0.0
C461 C 0.81515 0.44392 0.23315 0.0
C462 C 0.80674 0.41791 0.19697 0.0
C463 C 0.79668 0.45469 0.23643 0.0
C464 C 0.76941 0.43954 0.20412 0.0
C465 C 0.76127 0.41372 0.16717 0.0
C466 C 0.77975 0.40316 0.16317 0.0
H467 H 0.53092 0.38502 0.35826 0.0
H468 H 0.56995 0.37143 0.15779 0.0
H469 H 0.50479 0.33423 0.38248 0.0
H470 H 0.54464 0.32125 0.18288 0.0
H471 H 0.51375 0.25553 0.46007 0.0
H472 H 0.52005 0.30204 0.42984 0.0
H473 H 0.5011 0.2778 0.18973 0.0
H474 H 0.49641 0.23212 0.21988 0.0
C475 C 0.53352 0.3712 0.31853 0.0
C476 C 0.55284 0.38227 0.25674 0.0
C477 C 0.51866 0.34214 0.3327 0.0
C478 C 0.52276 0.32371 0.28505 0.0
C479 C 0.54062 0.33472 0.2203 0.0
C480 C 0.55542 0.36363 0.20624 0.0
C481 C 0.51018 0.26004 0.40147 0.0
C482 C 0.50509 0.24077 0.34192 0.0
C483 C 0.51362 0.28655 0.38403 0.0
C484 C 0.51165 0.29379 0.30697 0.0
C485 C 0.50348 0.27312 0.24922 0.0
C486 C 0.50065 0.24698 0.26639 0.0
H487 H 0.63182 0.1764 0.40479 0.0
H488 H 0.62651 0.24046 0.27104 0.0
H489 H 0.68161 0.19695 0.36767 0.0
H490 H 0.67584 0.26089 0.23527 0.0
H491 H 0.75409 0.27815 0.12026 0.0
H492 H 0.70443 0.24791 0.15349 0.0
H493 H 0.72793 0.24125 0.38779 0.0
H494 H 0.77777 0.27102 0.35424 0.0
C495 C 0.64129 0.19494 0.36813 0.0
C496 C 0.62516 0.20669 0.34049 0.0
C497 C 0.66972 0.20661 0.34679 0.0
C498 C 0.68237 0.23012 0.29731 0.0
C499 C 0.66643 0.24226 0.27165 0.0
C500 C 0.63819 0.2307 0.2929 0.0
C501 C 0.74873 0.26969 0.17837 0.0
C502 C 0.76976 0.27742 0.23503 0.0
C503 C 0.7203 0.25252 0.19749 0.0
C504 C 0.71236 0.24292 0.27373 0.0
C505 C 0.73347 0.24844 0.32864 0.0
C506 C 0.76201 0.26551 0.30935 0.0
H507 H 0.46029 0.74725 0.72622 0.0
H508 H 0.49657 0.79037 0.51057 0.0
H509 H 0.42711 0.76409 0.72434 0.0
H510 H 0.46362 0.80855 0.5105 0.0
H511 H 0.37456 0.79953 0.48808 0.0
H512 H 0.4136 0.78983 0.49056 0.0
H513 H 0.42106 0.80336 0.7378 0.0
H514 H 0.38127 0.81167 0.73566 0.0
C515 C 0.46155 0.76081 0.67886 0.0
C516 C 0.4809 0.76719 0.61795 0.0
C517 C 0.44259 0.77073 0.67825 0.0
C518 C 0.44261 0.78765 0.61723 0.0
C519 C 0.46281 0.79519 0.55782 0.0
C520 C 0.48184 0.78503 0.55817 0.0
C521 C 0.38451 0.80029 0.54292 0.0
C522 C 0.37458 0.80585 0.61188 0.0
C523 C 0.40711 0.7951 0.54422 0.0
C524 C 0.42043 0.79575 0.61439 0.0
C525 C 0.41092 0.80212 0.68295 0.0
C526 C 0.38807 0.80683 0.68181 0.0
H527 H 0.18822 0.59523 0.51079 0.0
H528 H 0.15585 0.585 0.74391 0.0
H529 H 0.19965 0.64418 0.51118 0.0
H530 H 0.16715 0.63426 0.74379 0.0
H531 H 0.20955 0.73006 0.51784 0.0
H532 H 0.18207 0.67836 0.51855 0.0
H533 H 0.21457 0.67751 0.74576 0.0
H534 H 0.24163 0.72868 0.74538 0.0
C535 C 0.18315 0.60332 0.56179 0.0
C536 C 0.17163 0.5864 0.62792 0.0
C537 C 0.18939 0.63131 0.56157 0.0
C538 C 0.18438 0.64305 0.6276 0.0
C539 C 0.17141 0.62574 0.6923 0.0
C540 C 0.16495 0.59759 0.69235 0.0
C541 C 0.21032 0.71877 0.56843 0.0
C542 C 0.22809 0.73333 0.63094 0.0
C543 C 0.19467 0.68926 0.56878 0.0
C544 C 0.19631 0.67396 0.63207 0.0
C545 C 0.21263 0.68868 0.69651 0.0
C546 C 0.22842 0.71802 0.69584 0.0
H547 H 0.41793 0.63737 0.7329 0.0
H548 H 0.41904 0.6222 0.48779 0.0
H549 H 0.36712 0.60491 0.73572 0.0
H550 H 0.3682 0.58934 0.49123 0.0
H551 H 0.27454 0.5662 0.51524 0.0
H552 H 0.32593 0.59412 0.50997 0.0
H553 H 0.33154 0.55453 0.72031 0.0
H554 H 0.28004 0.52682 0.72658 0.0
C555 C 0.40741 0.62692 0.67977 0.0
C556 C 0.42249 0.63253 0.60998 0.0
C557 C 0.37833 0.60818 0.68157 0.0
C558 C 0.36376 0.59469 0.61365 0.0
C559 C 0.3789 0.59975 0.54424 0.0
C560 C 0.40801 0.61847 0.54241 0.0
C561 C 0.28669 0.56331 0.56023 0.0
C562 C 0.2732 0.54442 0.62163 0.0
C563 C 0.31613 0.57917 0.55684 0.0
C564 C 0.33266 0.57648 0.61477 0.0
C565 C 0.31924 0.55722 0.67536 0.0
C566 C 0.28978 0.54131 0.67873 0.0
H567 H -0.008 0.16771 0.716 0.0
H568 H 0.07988 0.1893 0.7225 0.0
H569 H -0.00506 0.17304 0.57535 0.0
H570 H 0.08266 0.1947 0.58238 0.0
H571 H 0.08135 0.22883 0.33703 0.0
H572 H 0.07855 0.22734 0.47888 0.0
H573 H 0.00299 0.1454 0.46773 0.0
H574 H 0.00573 0.14664 0.32768 0.0
C575 C 0.01186 0.17352 0.68748 0.0
C576 C 0.0356 0.17781 0.73012 0.0
C577 C 0.01355 0.17662 0.60725 0.0
C578 C 0.03909 0.18445 0.56862 0.0
C579 C 0.06286 0.18899 0.61116 0.0
C580 C 0.0611 0.18553 0.69115 0.0
C581 C 0.06416 0.21061 0.36512 0.0
C582 C 0.04394 0.18778 0.32147 0.0
C583 C 0.0626 0.20973 0.4459 0.0
C584 C 0.0405 0.18628 0.48364 0.0
C585 C 0.02005 0.16381 0.43986 0.0
C586 C 0.02183 0.16447 0.3597 0.0
H587 H 0.76249 0.79193 0.78058 0.0
H588 H 0.83022 0.87882 0.77186 0.0
H589 H 0.75586 0.79287 0.64113 0.0
H590 H 0.82342 0.87963 0.63272 0.0
H591 H 0.78664 0.87767 0.39295 0.0
H592 H 0.78565 0.87562 0.53498 0.0
H593 H 0.78703 0.79743 0.52641 0.0
H594 H 0.78824 0.79955 0.38589 0.0
C595 C 0.77597 0.81119 0.74902 0.0
C596 C 0.79707 0.83521 0.78721 0.0
C597 C 0.77209 0.81173 0.66933 0.0
C598 C 0.78899 0.83639 0.62648 0.0
C599 C 0.80984 0.86048 0.66466 0.0
C600 C 0.81395 0.85986 0.74414 0.0
C601 C 0.78622 0.85986 0.42168 0.0
C602 C 0.78775 0.83891 0.37875 0.0
C603 C 0.78584 0.85877 0.50263 0.0
C604 C 0.7864 0.83642 0.54138 0.0
C605 C 0.78641 0.81478 0.49807 0.0
C606 C 0.78727 0.81611 0.41768 0.0
H607 H 0.14573 0.9053 0.85332 0.0
H608 H 0.1959 -0.00376 0.83887 0.0
H609 H 0.14531 0.90224 0.71248 0.0
H610 H 0.19536 -0.00692 0.69782 0.0
H611 H 0.1486 0.97549 0.46441 0.0
H612 H 0.15418 0.97753 0.60391 0.0
H613 H 0.17784 0.91317 0.59405 0.0
H614 H 0.1724 0.91108 0.45313 0.0
C615 C 0.15687 0.92462 0.82003 0.0
C616 C 0.17051 0.95106 0.85694 0.0
C617 C 0.15678 0.92281 0.73953 0.0
C618 C 0.17003 0.94743 0.6945 0.0
C619 C 0.18469 0.9738 0.73142 0.0
C620 C 0.18511 0.9756 0.81199 0.0
C621 C 0.15485 0.96161 0.49162 0.0
C622 C 0.16003 0.94308 0.44745 0.0
C623 C 0.15833 0.96303 0.57156 0.0
C624 C 0.16678 0.94578 0.60947 0.0
C625 C 0.17135 0.92674 0.56597 0.0
C626 C 0.1682 0.92554 0.48549 0.0
H627 H 0.58599 0.48024 0.54284 0.0
H628 H 0.6745 0.50455 0.55652 0.0
H629 H 0.58312 0.47966 0.683 0.0
H630 H 0.67144 0.50381 0.69823 0.0
H631 H 0.63843 0.45938 0.93756 0.0
H632 H 0.64345 0.46345 0.79752 0.0
H633 H 0.60422 0.51516 0.79432 0.0
H634 H 0.5992 0.51131 0.93488 0.0
C635 C 0.60487 0.48548 0.57589 0.0
C636 C 0.63046 0.49221 0.53892 0.0
C637 C 0.60322 0.48536 0.65605 0.0
C638 C 0.62702 0.49166 0.70094 0.0
C639 C 0.65277 0.49873 0.66438 0.0
C640 C 0.65455 0.49926 0.5837 0.0
C641 C 0.63065 0.47146 0.90711 0.0
C642 C 0.61828 0.48494 0.94723 0.0
C643 C 0.63387 0.47403 0.82713 0.0
C644 C 0.62448 0.48982 0.78573 0.0
C645 C 0.61163 0.50288 0.82534 0.0
C646 C 0.60871 0.5006 0.90555 0.0
H647 H 0.56447 0.18121 0.66948 0.0
H648 H 0.47343 0.14402 0.67692 0.0
H649 H 0.56559 0.17798 0.80959 0.0
H650 H 0.4747 0.14097 0.81786 0.0
H651 H 0.55693 0.19566 0.06478 0.0
H652 H 0.55557 0.19924 0.9249 0.0
H653 H 0.48704 0.11294 0.91365 0.0
H654 H 0.48819 0.10928 0.05455 0.0
C655 C 0.54472 0.17261 0.70111 0.0
C656 C 0.51884 0.16283 0.66226 0.0
C657 C 0.5454 0.17081 0.78128 0.0
C658 C 0.52021 0.15902 0.82416 0.0
C659 C 0.49436 0.1498 0.78574 0.0
C660 C 0.49369 0.15185 0.70536 0.0
C661 C 0.54167 0.17735 0.03257 0.0
C662 C 0.52263 0.15217 0.07056 0.0
C663 C 0.54096 0.17942 0.95252 0.0
C664 C 0.52108 0.15644 0.90885 0.0
C665 C 0.50232 0.13107 0.94641 0.0
C666 C 0.5032 0.12888 0.02673 0.0
H667 H 0.84684 0.39585 0.50965 0.0
H668 H 0.88356 0.34177 0.5186 0.0
H669 H 0.84922 0.39965 0.65001 0.0
H670 H 0.8859 0.3457 0.65961 0.0
H671 H 0.91309 0.38713 0.90143 0.0
H672 H 0.91247 0.38559 0.76007 0.0
H673 H 0.825 0.36496 0.76078 0.0
H674 H 0.82546 0.36643 0.90156 0.0
C675 C 0.85539 0.38475 0.54157 0.0
C676 C 0.86496 0.36845 0.50321 0.0
C677 C 0.85667 0.3869 0.62181 0.0
C678 C 0.86781 0.37304 0.66513 0.0
C679 C 0.87748 0.35679 0.62708 0.0
C680 C 0.8759 0.35436 0.54667 0.0
C681 C 0.89384 0.38259 0.87131 0.0
C682 C 0.8693 0.37686 0.91237 0.0
C683 C 0.89345 0.38147 0.79069 0.0
C684 C 0.86865 0.37502 0.75007 0.0
C685 C 0.8444 0.3701 0.79099 0.0
C686 C 0.84467 0.37087 0.87143 0.0
H687 H 0.24514 0.81039 0.30882 0.0
H688 H 0.33257 0.87707 0.31327 0.0
H689 H 0.24539 0.8134 0.16702 0.0
H690 H 0.33269 0.88022 0.17288 0.0
H691 H 0.31695 0.89155 0.91984 0.0
H692 H 0.31032 0.89199 0.05972 0.0
H693 H 0.27247 0.80135 0.06609 0.0
H694 H 0.27918 0.80077 0.92701 0.0
C695 C 0.26416 0.826 0.27967 0.0
C696 C 0.28889 0.8433 0.32187 0.0
C697 C 0.26436 0.82763 0.19874 0.0
C698 C 0.28911 0.84699 0.1591 0.0
C699 C 0.31328 0.86526 0.20182 0.0
C700 C 0.31324 0.8633 0.28219 0.0
C701 C 0.30716 0.87172 0.95106 0.0
C702 C 0.29894 0.84618 0.91237 0.0
C703 C 0.30331 0.87199 0.03101 0.0
C704 C 0.29076 0.84668 0.07357 0.0
C705 C 0.28187 0.82112 0.03461 0.0
C706 C 0.28605 0.82087 0.95503 0.0
H707 H 0.12738 0.50007 0.94682 0.0
H708 H 0.18357 0.46573 0.93891 0.0
H709 H 0.12472 0.49485 0.08777 0.0
H710 H 0.18075 0.46048 0.07892 0.0
H711 H 0.16838 0.52192 0.32959 0.0
H712 H 0.16333 0.52038 0.19006 0.0
H713 H 0.14506 0.43395 0.189 0.0
H714 H 0.14992 0.43528 0.33031 0.0
C715 C 0.13892 0.49121 0.97502 0.0
C716 C 0.15598 0.4837 0.93206 0.0
C717 C 0.13741 0.48823 0.05542 0.0
C718 C 0.15255 0.47727 0.09384 0.0
C719 C 0.16869 0.46875 0.05059 0.0
C720 C 0.17053 0.47208 0.97056 0.0
C721 C 0.16328 0.50251 0.29995 0.0
C722 C 0.15981 0.47875 0.34095 0.0
C723 C 0.16007 0.50159 0.22006 0.0
C724 C 0.15363 0.47702 0.17909 0.0
C725 C 0.15004 0.45315 0.21963 0.0
C726 C 0.15284 0.45392 0.30019 0.0
H727 H 0.53146 0.67537 0.29838 0.0
H728 H 0.55612 0.76369 0.29519 0.0
H729 H 0.53738 0.67617 0.15876 0.0
H730 H 0.56182 0.76436 0.15424 0.0
H731 H 0.51984 0.73437 0.90824 0.0
H732 H 0.52516 0.7402 0.04763 0.0
H733 H 0.57383 0.69768 0.0496 0.0
H734 H 0.56874 0.692 0.90855 0.0
C735 C 0.53836 0.69506 0.26787 0.0
C736 C 0.543 0.71942 0.30781 0.0
C737 C 0.54203 0.69554 0.18788 0.0
C738 C 0.55004 0.72029 0.14552 0.0
C739 C 0.55552 0.74494 0.1855 0.0
C740 C 0.55231 0.74459 0.26607 0.0
C741 C 0.53186 0.72638 0.93807 0.0
C742 C 0.54355 0.71235 0.89733 0.0
C743 C 0.53516 0.73003 0.01798 0.0
C744 C 0.54991 0.71942 0.05959 0.0
C745 C 0.56225 0.70598 0.01891 0.0
C746 C 0.55936 0.70274 0.93832 0.0
loop_
_geom_bond_atom_site_label_1
_geom_bond_atom_site_label_2
_geom_bond_distance
_geom_bond_site_symmetry_2
_ccdc_geom_bond_type
O0 Zn1 1.953 . S
O0 C16 1.228 1_655 S
Zn1 O0 1.953 . S
Zn1 O2 1.949 1_656 S
Zn1 O8 1.923 . S
Zn1 O13 1.924 . S
O2 Zn1 1.949 1_454 S
O2 Zn3 1.923 . S
O2 Zn4 1.950 1_554 S
O2 Zn5 1.945 . S
Zn3 O2 1.923 . S
Zn3 O6 1.933 . S
Zn3 O9 1.941 1_455 S
Zn3 O10 1.965 . S
Zn4 O2 1.950 1_556 S
Zn4 O11 1.938 . S
Zn4 O12 1.906 . S
Zn4 O22 1.953 . S
Zn5 O2 1.945 . S
Zn5 O7 1.932 . S
Zn5 O14 1.977 . S
Zn5 O15 1.910 1_455 S
O6 Zn3 1.933 . S
O6 C17 1.226 . S
O7 Zn5 1.932 . S
O7 C17 1.307 . S
O8 Zn1 1.923 . S
O8 C19 1.246 1_556 S
O9 Zn3 1.941 1_655 S
O9 C19 1.283 . S
O10 Zn3 1.965 . S
O10 C18 1.303 1_554 S
O11 Zn4 1.938 . S
O11 C18 1.247 . S
O12 Zn4 1.906 . S
O12 C20 1.304 1_556 S
O13 Zn1 1.924 . S
O13 C21 1.311 1_556 S
O14 Zn5 1.977 . S
O14 C20 1.272 . S
O15 Zn5 1.910 1_655 S
O15 C21 1.231 . S
C16 O0 1.228 1_455 S
C16 O22 1.295 . S
C17 O6 1.226 . S
C17 O7 1.307 . S
C18 O10 1.303 1_556 S
C18 O11 1.247 . S
C19 O8 1.246 1_554 S
C19 O9 1.283 . S
C20 O12 1.304 1_554 S
C20 O14 1.272 . S
C21 O13 1.311 1_554 S
C21 O15 1.231 . S
O22 Zn4 1.953 . S
O22 C16 1.295 . S
O23 Zn24 1.953 . S
O23 C39 1.225 . S
Zn24 O23 1.953 . S
Zn24 O25 1.949 . S
Zn24 O31 1.919 . S
Zn24 O36 1.924 . S
O25 Zn24 1.949 . S
O25 Zn26 1.923 1_554 S
O25 Zn27 1.950 . S
O25 Zn28 1.945 1_554 S
Zn26 O25 1.923 1_556 S
Zn26 O29 1.933 . S
Zn26 O32 1.941 . S
Zn26 O33 1.965 . S
Zn27 O25 1.950 . S
Zn27 O34 1.938 . S
Zn27 O35 1.906 . S
Zn27 O45 1.953 . S
Zn28 O25 1.945 1_556 S
Zn28 O30 1.932 . S
Zn28 O37 1.977 . S
Zn28 O38 1.910 . S
O29 Zn26 1.933 . S
O29 C40 1.226 . S
O30 Zn28 1.932 . S
O30 C40 1.307 . S
O31 Zn24 1.919 . S
O31 C42 1.253 1_554 S
O32 Zn26 1.941 . S
O32 C42 1.283 . S
O33 Zn26 1.965 . S
O33 C41 1.303 1_556 S
O34 Zn27 1.938 . S
O34 C41 1.247 . S
O35 Zn27 1.906 . S
O35 C43 1.304 1_554 S
O36 Zn24 1.924 . S
O36 C44 1.311 . S
O37 Zn28 1.977 . S
O37 C43 1.272 . S
O38 Zn28 1.910 . S
O38 C44 1.231 1_556 S
C39 O23 1.225 . S
C39 O45 1.298 . S
C40 O29 1.226 . S
C40 O30 1.307 . S
C41 O33 1.303 1_554 S
C41 O34 1.247 . S
C42 O31 1.253 1_556 S
C42 O32 1.283 . S
C43 O35 1.304 1_556 S
C43 O37 1.272 . S
C44 O36 1.311 . S
C44 O38 1.231 1_554 S
O45 Zn27 1.953 . S
O45 C39 1.298 . S
O46 Zn47 1.953 . S
O46 C62 1.225 . S
Zn47 O46 1.953 . S
Zn47 O48 1.949 1_556 S
Zn47 O54 1.919 . S
Zn47 O59 1.924 . S
O48 Zn47 1.949 1_554 S
O48 Zn49 1.923 . S
O48 Zn50 1.950 1_544 S
O48 Zn51 1.945 . S
Zn49 O48 1.923 . S
Zn49 O52 1.933 1_545 S
Zn49 O55 1.941 . S
Zn49 O56 1.965 1_545 S
Zn50 O48 1.950 1_566 S
Zn50 O57 1.938 . S
Zn50 O58 1.906 . S
Zn50 O68 1.955 . S
Zn51 O48 1.945 . S
Zn51 O53 1.932 . S
Zn51 O60 1.977 1_545 S
Zn51 O61 1.910 . S
O52 Zn49 1.933 1_565 S
O52 C63 1.226 1_565 S
O53 Zn51 1.932 . S
O53 C63 1.307 . S
O54 Zn47 1.919 . S
O54 C65 1.253 1_556 S
O55 Zn49 1.941 . S
O55 C65 1.283 . S
O56 Zn49 1.965 1_565 S
O56 C64 1.303 1_554 S
O57 Zn50 1.938 . S
O57 C64 1.247 . S
O58 Zn50 1.906 . S
O58 C66 1.304 1_556 S
O59 Zn47 1.924 . S
O59 C67 1.311 1_556 S
O60 Zn51 1.977 1_565 S
O60 C66 1.272 . S
O61 Zn51 1.910 . S
O61 C67 1.231 . S
C62 O46 1.225 . S
C62 O68 1.296 1_545 S
C63 O52 1.226 1_545 S
C63 O53 1.307 . S
C64 O56 1.303 1_556 S
C64 O57 1.247 . S
C65 O54 1.253 1_554 S
C65 O55 1.283 . S
C66 O58 1.304 1_554 S
C66 O60 1.272 . S
C67 O59 1.311 1_554 S
C67 O61 1.231 . S
O68 Zn50 1.955 . S
O68 C62 1.296 1_565 S
O69 Zn70 1.953 . S
O69 C85 1.225 . S
Zn70 O69 1.953 . S
Zn70 O71 1.949 . S
Zn70 O77 1.919 . S
Zn70 O82 1.924 . S
O71 Zn70 1.949 . S
O71 Zn72 1.923 . S
O71 Zn73 1.950 . S
O71 Zn74 1.945 . S
Zn72 O71 1.923 . S
Zn72 O75 1.933 . S
Zn72 O78 1.941 . S
Zn72 O79 1.965 . S
Zn73 O71 1.950 . S
Zn73 O80 1.938 . S
Zn73 O81 1.906 . S
Zn73 O91 1.953 . S
Zn74 O71 1.945 . S
Zn74 O76 1.932 . S
Zn74 O83 1.977 . S
Zn74 O84 1.910 . S
O75 Zn72 1.933 . S
O75 C86 1.226 . S
O76 Zn74 1.932 . S
O76 C86 1.307 . S
O77 Zn70 1.919 . S
O77 C88 1.253 . S
O78 Zn72 1.941 . S
O78 C88 1.283 . S
O79 Zn72 1.965 . S
O79 C87 1.303 . S
O80 Zn73 1.938 . S
O80 C87 1.247 . S
O81 Zn73 1.906 . S
O81 C89 1.304 . S
O82 Zn70 1.924 . S
O82 C90 1.311 . S
O83 Zn74 1.977 . S
O83 C89 1.272 . S
O84 Zn74 1.910 . S
O84 C90 1.231 . S
C85 O69 1.225 . S
C85 O91 1.298 . S
C86 O75 1.226 . S
C86 O76 1.307 . S
C87 O79 1.303 . S
C87 O80 1.247 . S
C88 O77 1.253 . S
C88 O78 1.283 . S
C89 O81 1.304 . S
C89 O83 1.272 . S
C90 O82 1.311 . S
C90 O84 1.231 . S
O91 Zn73 1.953 . S
O91 C85 1.298 . S
O92 Zn93 1.953 . S
O92 C108 1.225 . S
Zn93 O92 1.953 . S
Zn93 O94 1.949 . S
Zn93 O100 1.919 . S
Zn93 O105 1.924 . S
O94 Zn93 1.949 . S
O94 Zn95 1.923 . S
O94 Zn96 1.950 . S
O94 Zn97 1.945 . S
Zn95 O94 1.923 . S
Zn95 O98 1.933 . S
Zn95 O101 1.941 . S
Zn95 O102 1.965 . S
Zn96 O94 1.950 . S
Zn96 O103 1.938 . S
Zn96 O104 1.906 . S
Zn96 O114 1.953 . S
Zn97 O94 1.945 . S
Zn97 O99 1.932 . S
Zn97 O106 1.977 . S
Zn97 O107 1.910 . S
O98 Zn95 1.933 . S
O98 C109 1.226 . S
O99 Zn97 1.932 . S
O99 C109 1.307 . S
O100 Zn93 1.919 . S
O100 C111 1.253 . S
O101 Zn95 1.941 . S
O101 C111 1.283 . S
O102 Zn95 1.965 . S
O102 C110 1.303 . S
O103 Zn96 1.938 . S
O103 C110 1.247 . S
O104 Zn96 1.906 . S
O104 C112 1.304 . S
O105 Zn93 1.924 . S
O105 C113 1.311 . S
O106 Zn97 1.977 . S
O106 C112 1.272 . S
O107 Zn97 1.910 . S
O107 C113 1.231 . S
C108 O92 1.225 . S
C108 O114 1.298 . S
C109 O98 1.226 . S
C109 O99 1.307 . S
C110 O102 1.303 . S
C110 O103 1.247 . S
C111 O100 1.253 . S
C111 O101 1.283 . S
C112 O104 1.304 . S
C112 O106 1.272 . S
C113 O105 1.311 . S
C113 O107 1.231 . S
O114 Zn96 1.953 . S
O114 C108 1.298 . S
O115 Zn116 1.953 . S
O115 C131 1.225 . S
Zn116 O115 1.953 . S
Zn116 O117 1.949 . S
Zn116 O123 1.919 . S
Zn116 O128 1.924 . S
O117 Zn116 1.949 . S
O117 Zn118 1.923 . S
O117 Zn119 1.950 . S
O117 Zn120 1.945 . S
Zn118 O117 1.923 . S
Zn118 O121 1.933 . S
Zn118 O124 1.941 . S
Zn118 O125 1.965 . S
Zn119 O117 1.950 . S
Zn119 O126 1.938 . S
Zn119 O127 1.906 . S
Zn119 O137 1.953 . S
Zn120 O117 1.945 . S
Zn120 O122 1.932 . S
Zn120 O129 1.977 . S
Zn120 O130 1.910 . S
O121 Zn118 1.933 . S
O121 C132 1.226 . S
O122 Zn120 1.932 . S
O122 C132 1.307 . S
O123 Zn116 1.919 . S
O123 C134 1.253 . S
O124 Zn118 1.941 . S
O124 C134 1.283 . S
O125 Zn118 1.965 . S
O125 C133 1.303 . S
O126 Zn119 1.938 . S
O126 C133 1.247 . S
O127 Zn119 1.906 . S
O127 C135 1.304 . S
O128 Zn116 1.924 . S
O128 C136 1.311 . S
O129 Zn120 1.977 . S
O129 C135 1.272 . S
O130 Zn120 1.910 . S
O130 C136 1.231 . S
C131 O115 1.225 . S
C131 O137 1.298 . S
C132 O121 1.226 . S
C132 O122 1.307 . S
C133 O125 1.303 . S
C133 O126 1.247 . S
C134 O123 1.253 . S
C134 O124 1.283 . S
C135 O127 1.304 . S
C135 O129 1.272 . S
C136 O128 1.311 . S
C136 O130 1.231 . S
O137 Zn119 1.953 . S
O137 C131 1.298 . S
O138 Zn139 1.953 . S
O138 C154 1.225 . S
Zn139 O138 1.953 . S
Zn139 O140 1.949 . S
Zn139 O146 1.919 . S
Zn139 O151 1.924 . S
O140 Zn139 1.949 . S
O140 Zn141 1.923 . S
O140 Zn142 1.950 . S
O140 Zn143 1.945 . S
Zn141 O140 1.923 . S
Zn141 O144 1.933 . S
Zn141 O147 1.941 . S
Zn141 O148 1.965 . S
Zn142 O140 1.950 . S
Zn142 O149 1.938 . S
Zn142 O150 1.906 . S
Zn142 O160 1.953 . S
Zn143 O140 1.945 . S
Zn143 O145 1.932 . S
Zn143 O152 1.977 . S
Zn143 O153 1.910 . S
O144 Zn141 1.933 . S
O144 C155 1.226 . S
O145 Zn143 1.932 . S
O145 C155 1.307 . S
O146 Zn139 1.919 . S
O146 C157 1.253 . S
O147 Zn141 1.941 . S
O147 C157 1.283 . S
O148 Zn141 1.965 . S
O148 C156 1.303 . S
O149 Zn142 1.938 . S
O149 C156 1.247 . S
O150 Zn142 1.906 . S
O150 C158 1.304 . S
O151 Zn139 1.924 . S
O151 C159 1.311 . S
O152 Zn143 1.977 . S
O152 C158 1.272 . S
O153 Zn143 1.910 . S
O153 C159 1.231 . S
C154 O138 1.225 . S
C154 O160 1.298 . S
C155 O144 1.226 . S
C155 O145 1.307 . S
C156 O148 1.303 . S
C156 O149 1.247 . S
C157 O146 1.253 . S
C157 O147 1.283 . S
C158 O150 1.304 . S
C158 O152 1.272 . S
C159 O151 1.311 . S
C159 O153 1.231 . S
O160 Zn142 1.953 . S
O160 C154 1.298 . S
O161 Zn162 1.953 . S
O161 C177 1.225 . S
Zn162 O161 1.953 . S
Zn162 O163 1.949 . S
Zn162 O169 1.919 . S
Zn162 O174 1.924 . S
O163 Zn162 1.949 . S
O163 Zn164 1.923 . S
O163 Zn165 1.950 . S
O163 Zn166 1.945 . S
Zn164 O163 1.923 . S
Zn164 O167 1.933 . S
Zn164 O170 1.941 . S
Zn164 O171 1.965 . S
Zn165 O163 1.950 . S
Zn165 O172 1.938 . S
Zn165 O173 1.906 . S
Zn165 O183 1.953 . S
Zn166 O163 1.945 . S
Zn166 O168 1.932 . S
Zn166 O175 1.977 . S
Zn166 O176 1.910 . S
O167 Zn164 1.933 . S
O167 C178 1.226 . S
O168 Zn166 1.932 . S
O168 C178 1.307 . S
O169 Zn162 1.919 . S
O169 C180 1.253 . S
O170 Zn164 1.941 . S
O170 C180 1.283 . S
O171 Zn164 1.965 . S
O171 C179 1.303 . S
O172 Zn165 1.938 . S
O172 C179 1.247 . S
O173 Zn165 1.906 . S
O173 C181 1.304 . S
O174 Zn162 1.924 . S
O174 C182 1.311 . S
O175 Zn166 1.977 . S
O175 C181 1.272 . S
O176 Zn166 1.910 . S
O176 C182 1.231 . S
C177 O161 1.225 . S
C177 O183 1.298 . S
C178 O167 1.226 . S
C178 O168 1.307 . S
C179 O171 1.303 . S
C179 O172 1.247 . S
C180 O169 1.253 . S
C180 O170 1.283 . S
C181 O173 1.304 . S
C181 O175 1.272 . S
C182 O174 1.311 . S
C182 O176 1.231 . S
O183 Zn165 1.953 . S
O183 C177 1.298 . S
O184 Zn185 1.953 . S
O184 C200 1.225 . S
Zn185 O184 1.953 . S
Zn185 O186 1.949 . S
Zn185 O192 1.919 . S
Zn185 O197 1.924 . S
O186 Zn185 1.949 . S
O186 Zn187 1.923 . S
O186 Zn188 1.950 . S
O186 Zn189 1.945 . S
Zn187 O186 1.923 . S
Zn187 O190 1.933 . S
Zn187 O193 1.941 . S
Zn187 O194 1.965 . S
Zn188 O186 1.950 . S
Zn188 O195 1.938 . S
Zn188 O196 1.906 . S
Zn188 O206 1.953 . S
Zn189 O186 1.945 . S
Zn189 O191 1.932 . S
Zn189 O198 1.977 . S
Zn189 O199 1.910 . S
O190 Zn187 1.933 . S
O190 C201 1.226 . S
O191 Zn189 1.932 . S
O191 C201 1.307 . S
O192 Zn185 1.919 . S
O192 C203 1.253 . S
O193 Zn187 1.941 . S
O193 C203 1.283 . S
O194 Zn187 1.965 . S
O194 C202 1.303 . S
O195 Zn188 1.938 . S
O195 C202 1.247 . S
O196 Zn188 1.906 . S
O196 C204 1.304 . S
O197 Zn185 1.924 . S
O197 C205 1.311 . S
O198 Zn189 1.977 . S
O198 C204 1.272 . S
O199 Zn189 1.910 . S
O199 C205 1.231 . S
C200 O184 1.225 . S
C200 O206 1.298 . S
C201 O190 1.226 . S
C201 O191 1.307 . S
C202 O194 1.303 . S
C202 O195 1.247 . S
C203 O192 1.253 . S
C203 O193 1.283 . S
C204 O196 1.304 . S
C204 O198 1.272 . S
C205 O197 1.311 . S
C205 O199 1.231 . S
O206 Zn188 1.953 . S
O206 C200 1.298 . S
H207 C215 0.950 . S
H208 C220 0.950 . S
H209 C217 0.950 . S
H210 C219 0.950 . S
H211 C221 0.950 . S
H212 C223 0.950 . S
H213 C225 0.950 . S
H214 C226 0.950 . S
C215 H207 0.950 . S
C215 C216 1.386 . S
C215 C217 1.391 . S
C216 C215 1.386 . S
C216 C220 1.393 . S
C217 H209 0.950 . S
C217 C215 1.391 . S
C217 C218 1.400 . S
C218 C217 1.400 . S
C218 C219 1.398 . S
C218 C224 1.491 . S
C219 H210 0.950 . S
C219 C218 1.398 . S
C219 C220 1.391 . S
C220 H208 0.950 . S
C220 C216 1.393 . S
C220 C219 1.391 . S
C221 H211 0.950 . S
C221 C222 1.386 . S
C221 C223 1.391 . S
C222 C221 1.386 . S
C222 C226 1.393 . S
C223 H212 0.950 . S
C223 C221 1.391 . S
C223 C224 1.400 . S
C224 C218 1.491 . S
C224 C223 1.400 . S
C224 C225 1.398 . S
C225 H213 0.950 . S
C225 C224 1.398 . S
C225 C226 1.391 . S
C226 H214 0.950 . S
C226 C222 1.393 . S
C226 C225 1.391 . S
H227 C235 0.950 1_554 S
H228 C240 0.950 . S
H229 C237 0.950 . S
H230 C239 0.950 . S
H231 C241 0.950 . S
H232 C243 0.950 . S
H233 C245 0.950 . S
H234 C246 0.950 . S
C235 H227 0.950 1_556 S
C235 C236 1.386 . S
C235 C237 1.391 . S
C236 C235 1.386 . S
C236 C240 1.393 . S
C237 H229 0.950 . S
C237 C235 1.391 . S
C237 C238 1.400 . S
C238 C237 1.400 . S
C238 C239 1.398 . S
C238 C244 1.491 . S
C239 H230 0.950 . S
C239 C238 1.398 . S
C239 C240 1.391 . S
C240 H228 0.950 . S
C240 C236 1.393 . S
C240 C239 1.391 . S
C241 H231 0.950 . S
C241 C242 1.386 . S
C241 C243 1.391 . S
C242 C241 1.386 . S
C242 C246 1.393 . S
C243 H232 0.950 . S
C243 C241 1.391 . S
C243 C244 1.400 . S
C244 C238 1.491 . S
C244 C243 1.400 . S
C244 C245 1.398 . S
C245 H233 0.950 . S
C245 C244 1.398 . S
C245 C246 1.391 . S
C246 H234 0.950 . S
C246 C242 1.393 . S
C246 C245 1.391 . S
H247 C255 0.950 . S
H248 C260 0.950 1_554 S
H249 C257 0.950 . S
H250 C259 0.950 . S
H251 C261 0.950 . S
H252 C263 0.950 . S
H253 C265 0.950 . S
H254 C266 0.950 . S
C255 H247 0.950 . S
C255 C256 1.386 . S
C255 C257 1.391 . S
C256 C255 1.386 . S
C256 C260 1.393 . S
C257 H249 0.950 . S
C257 C255 1.391 . S
C257 C258 1.400 . S
C258 C257 1.400 . S
C258 C259 1.398 . S
C258 C264 1.491 . S
C259 H250 0.950 . S
C259 C258 1.398 . S
C259 C260 1.391 . S
C260 H248 0.950 1_556 S
C260 C256 1.393 . S
C260 C259 1.391 . S
C261 H251 0.950 . S
C261 C262 1.386 . S
C261 C263 1.391 . S
C262 C261 1.386 . S
C262 C266 1.393 . S
C263 H252 0.950 . S
C263 C261 1.391 . S
C263 C264 1.400 . S
C264 C258 1.491 . S
C264 C263 1.400 . S
C264 C265 1.398 . S
C265 H253 0.950 . S
C265 C264 1.398 . S
C265 C266 1.391 . S
C266 H254 0.950 . S
C266 C262 1.393 . S
C266 C265 1.391 . S
H267 C275 0.950 . S
H268 C280 0.950 . S
H269 C277 0.950 . S
H270 C279 0.950 . S
H271 C281 0.950 . S
H272 C283 0.950 . S
H273 C285 0.950 . S
H274 C286 0.950 . S
C275 H267 0.950 . S
C275 C276 1.386 . S
C275 C277 1.391 . S
C276 C275 1.386 . S
C276 C280 1.393 . S
C277 H269 0.950 . S
C277 C275 1.391 . S
C277 C278 1.400 . S
C278 C277 1.400 . S
C278 C279 1.398 . S
C278 C284 1.491 . S
C279 H270 0.950 . S
C279 C278 1.398 . S
C279 C280 1.391 . S
C280 H268 0.950 . S
C280 C276 1.393 . S
C280 C279 1.391 . S
C281 H271 0.950 . S
C281 C282 1.386 . S
C281 C283 1.391 . S
C282 C281 1.386 . S
C282 C286 1.393 . S
C283 H272 0.950 . S
C283 C281 1.391 . S
C283 C284 1.400 . S
C284 C278 1.491 . S
C284 C283 1.400 . S
C284 C285 1.398 . S
C285 H273 0.950 . S
C285 C284 1.398 . S
C285 C286 1.391 . S
C286 H274 0.950 . S
C286 C282 1.393 . S
C286 C285 1.391 . S
H287 C295 0.950 . S
H288 C300 0.950 . S
H289 C297 0.950 . S
H290 C299 0.950 . S
H291 C301 0.950 . S
H292 C303 0.950 . S
H293 C305 0.950 . S
H294 C306 0.950 . S
C295 H287 0.950 . S
C295 C296 1.386 . S
C295 C297 1.391 . S
C296 C295 1.386 . S
C296 C300 1.393 . S
C297 H289 0.950 . S
C297 C295 1.391 . S
C297 C298 1.400 . S
C298 C297 1.400 . S
C298 C299 1.398 . S
C298 C304 1.491 . S
C299 H290 0.950 . S
C299 C298 1.398 . S
C299 C300 1.391 . S
C300 H288 0.950 . S
C300 C296 1.393 . S
C300 C299 1.391 . S
C301 H291 0.950 . S
C301 C302 1.386 . S
C301 C303 1.391 . S
C302 C301 1.386 . S
C302 C306 1.393 . S
C303 H292 0.950 . S
C303 C301 1.391 . S
C303 C304 1.400 . S
C304 C298 1.491 . S
C304 C303 1.400 . S
C304 C305 1.398 . S
C305 H293 0.950 . S
C305 C304 1.398 . S
C305 C306 1.391 . S
C306 H294 0.950 . S
C306 C302 1.393 . S
C306 C305 1.391 . S
H307 C315 0.950 . S
H308 C320 0.950 1_556 S
H309 C317 0.950 . S
H310 C319 0.950 . S
H311 C321 0.950 . S
H312 C323 0.950 . S
H313 C325 0.950 . S
H314 C326 0.950 . S
C315 H307 0.950 . S
C315 C316 1.386 . S
C315 C317 1.391 . S
C316 C315 1.386 . S
C316 C320 1.393 . S
C317 H309 0.950 . S
C317 C315 1.391 . S
C317 C318 1.400 . S
C318 C317 1.400 . S
C318 C319 1.398 . S
C318 C324 1.491 . S
C319 H310 0.950 . S
C319 C318 1.398 . S
C319 C320 1.391 . S
C320 H308 0.950 1_554 S
C320 C316 1.393 . S
C320 C319 1.391 . S
C321 H311 0.950 . S
C321 C322 1.386 . S
C321 C323 1.391 . S
C322 C321 1.386 . S
C322 C326 1.393 . S
C323 H312 0.950 . S
C323 C321 1.391 . S
C323 C324 1.400 . S
C324 C318 1.491 . S
C324 C323 1.400 . S
C324 C325 1.398 . S
C325 H313 0.950 . S
C325 C324 1.398 . S
C325 C326 1.391 . S
C326 H314 0.950 . S
C326 C322 1.393 . S
C326 C325 1.391 . S
H327 C335 0.950 . S
H328 C340 0.950 . S
H329 C337 0.950 . S
H330 C339 0.950 . S
H331 C341 0.950 . S
H332 C343 0.950 . S
H333 C345 0.950 1_455 S
H334 C346 0.950 . S
C335 H327 0.950 . S
C335 C336 1.386 . S
C335 C337 1.391 . S
C336 C335 1.386 . S
C336 C340 1.393 . S
C337 H329 0.950 . S
C337 C335 1.391 . S
C337 C338 1.400 . S
C338 C337 1.400 . S
C338 C339 1.398 . S
C338 C344 1.491 1_455 S
C339 H330 0.950 . S
C339 C338 1.398 . S
C339 C340 1.391 . S
C340 H328 0.950 . S
C340 C336 1.393 . S
C340 C339 1.391 . S
C341 H331 0.950 . S
C341 C342 1.386 . S
C341 C343 1.391 . S
C342 C341 1.386 . S
C342 C346 1.393 . S
C343 H332 0.950 . S
C343 C341 1.391 . S
C343 C344 1.400 . S
C344 C338 1.491 1_655 S
C344 C343 1.400 . S
C344 C345 1.398 . S
C345 H333 0.950 1_655 S
C345 C344 1.398 . S
C345 C346 1.391 . S
C346 H334 0.950 . S
C346 C342 1.393 . S
C346 C345 1.391 . S
H347 C355 0.950 . S
H348 C360 0.950 . S
H349 C357 0.950 . S
H350 C359 0.950 . S
H351 C361 0.950 . S
H352 C363 0.950 . S
H353 C365 0.950 . S
H354 C366 0.950 . S
C355 H347 0.950 . S
C355 C356 1.386 . S
C355 C357 1.391 . S
C356 C355 1.386 . S
C356 C360 1.393 . S
C357 H349 0.950 . S
C357 C355 1.391 . S
C357 C358 1.400 . S
C358 C357 1.400 . S
C358 C359 1.398 . S
C358 C364 1.491 . S
C359 H350 0.950 . S
C359 C358 1.398 . S
C359 C360 1.391 . S
C360 H348 0.950 . S
C360 C356 1.393 . S
C360 C359 1.391 . S
C361 H351 0.950 . S
C361 C362 1.386 . S
C361 C363 1.391 . S
C362 C361 1.386 . S
C362 C366 1.393 . S
C363 H352 0.950 . S
C363 C361 1.391 . S
C363 C364 1.400 . S
C364 C358 1.491 . S
C364 C363 1.400 . S
C364 C365 1.398 . S
C365 H353 0.950 . S
C365 C364 1.398 . S
C365 C366 1.391 . S
C366 H354 0.950 . S
C366 C362 1.393 . S
C366 C365 1.391 . S
H367 C375 0.950 . S
H368 C380 0.950 . S
H369 C377 0.950 . S
H370 C379 0.950 . S
H371 C381 0.950 . S
H372 C383 0.950 . S
H373 C385 0.945 1_545 S
H374 C386 0.950 . S
C375 H367 0.950 . S
C375 C376 1.386 . S
C375 C377 1.391 . S
C376 C375 1.386 . S
C376 C380 1.393 . S
C377 H369 0.950 . S
C377 C375 1.391 . S
C377 C378 1.400 . S
C378 C377 1.400 . S
C378 C379 1.398 . S
C378 C384 1.491 1_545 S
C379 H370 0.950 . S
C379 C378 1.398 . S
C379 C380 1.391 . S
C380 H368 0.950 . S
C380 C376 1.393 . S
C380 C379 1.391 . S
C381 H371 0.950 . S
C381 C382 1.386 . S
C381 C383 1.391 . S
C382 C381 1.386 . S
C382 C386 1.393 . S
C383 H372 0.950 . S
C383 C381 1.391 . S
C383 C384 1.400 . S
C384 C378 1.491 1_565 S
C384 C383 1.400 . S
C384 C385 1.398 . S
C385 H373 0.945 1_565 S
C385 C384 1.398 . S
C385 C386 1.391 . S
C386 H374 0.950 . S
C386 C382 1.393 . S
C386 C385 1.391 . S
H387 C395 0.950 . S
H388 C400 0.950 . S
H389 C397 0.950 . S
H390 C399 0.950 . S
H391 C401 0.950 . S
H392 C403 0.950 . S
H393 C405 0.950 . S
H394 C406 0.950 . S
C395 H387 0.950 . S
C395 C396 1.386 1_554 S
C395 C397 1.391 . S
C396 C395 1.386 1_556 S
C396 C400 1.393 . S
C397 H389 0.950 . S
C397 C395 1.391 . S
C397 C398 1.400 . S
C398 C397 1.400 . S
C398 C399 1.398 1_554 S
C398 C404 1.491 . S
C399 H390 0.950 . S
C399 C398 1.398 1_556 S
C399 C400 1.391 . S
C400 H388 0.950 . S
C400 C396 1.393 . S
C400 C399 1.391 . S
C401 H391 0.950 . S
C401 C402 1.386 1_556 S
C401 C403 1.391 . S
C402 C401 1.386 1_554 S
C402 C406 1.393 . S
C403 H392 0.950 . S
C403 C401 1.391 . S
C403 C404 1.400 1_556 S
C404 C398 1.491 . S
C404 C403 1.400 1_554 S
C404 C405 1.398 . S
C405 H393 0.950 . S
C405 C404 1.398 . S
C405 C406 1.391 . S
C406 H394 0.950 . S
C406 C402 1.393 . S
C406 C405 1.391 . S
H407 C415 0.950 . S
H408 C420 0.950 . S
H409 C417 0.950 . S
H410 C419 0.950 . S
H411 C421 0.950 . S
H412 C423 0.950 . S
H413 C425 0.950 . S
H414 C426 0.950 . S
C415 H407 0.950 . S
C415 C416 1.386 . S
C415 C417 1.391 . S
C416 C415 1.386 . S
C416 C420 1.393 1_554 S
C417 H409 0.950 . S
C417 C415 1.391 . S
C417 C418 1.400 . S
C418 C417 1.400 . S
C418 C419 1.398 1_554 S
C418 C424 1.491 1_565 S
C419 H410 0.950 . S
C419 C418 1.398 1_556 S
C419 C420 1.391 . S
C420 H408 0.950 . S
C420 C416 1.393 1_556 S
C420 C419 1.391 . S
C421 H411 0.950 . S
C421 C422 1.386 . S
C421 C423 1.391 . S
C422 C421 1.386 . S
C422 C426 1.393 1_556 S
C423 H412 0.950 . S
C423 C421 1.391 . S
C423 C424 1.400 1_556 S
C424 C418 1.491 1_545 S
C424 C423 1.400 1_554 S
C424 C425 1.398 . S
C425 H413 0.950 . S
C425 C424 1.398 . S
C425 C426 1.391 . S
C426 H414 0.950 . S
C426 C422 1.393 1_554 S
C426 C425 1.391 . S
H427 C435 0.950 . S
H428 C440 0.950 . S
H429 C437 0.950 . S
H430 C439 0.950 . S
H431 C441 0.950 1_556 S
H432 C443 0.950 . S
H433 C445 0.950 . S
H434 C446 0.950 . S
C435 H427 0.950 . S
C435 C436 1.386 1_554 S
C435 C437 1.391 . S
C436 C435 1.386 1_556 S
C436 C440 1.393 . S
C437 H429 0.950 . S
C437 C435 1.391 . S
C437 C438 1.400 . S
C438 C437 1.400 . S
C438 C439 1.398 1_554 S
C438 C444 1.491 1_655 S
C439 H430 0.950 . S
C439 C438 1.398 1_556 S
C439 C440 1.391 . S
C440 H428 0.950 . S
C440 C436 1.393 . S
C440 C439 1.391 . S
C441 H431 0.950 1_554 S
C441 C442 1.386 . S
C441 C443 1.391 1_554 S
C442 C441 1.386 . S
C442 C446 1.393 . S
C443 H432 0.950 . S
C443 C441 1.391 1_556 S
C443 C444 1.400 1_556 S
C444 C438 1.491 1_455 S
C444 C443 1.400 1_554 S
C444 C445 1.398 . S
C445 H433 0.950 . S
C445 C444 1.398 . S
C445 C446 1.391 . S
C446 H434 0.950 . S
C446 C442 1.393 . S
C446 C445 1.391 . S
H447 C455 0.950 . S
H448 C460 0.950 . S
H449 C457 0.950 . S
H450 C459 0.950 . S
H451 C461 0.950 . S
H452 C463 0.950 . S
H453 C465 0.950 . S
H454 C466 0.950 . S
C455 H447 0.950 . S
C455 C456 1.386 . S
C455 C457 1.391 . S
C456 C455 1.386 . S
C456 C460 1.393 . S
C457 H449 0.950 . S
C457 C455 1.391 . S
C457 C458 1.400 . S
C458 C457 1.400 . S
C458 C459 1.398 . S
C458 C464 1.491 . S
C459 H450 0.950 . S
C459 C458 1.398 . S
C459 C460 1.391 . S
C460 H448 0.950 . S
C460 C456 1.393 . S
C460 C459 1.391 . S
C461 H451 0.950 . S
C461 C462 1.386 . S
C461 C463 1.391 . S
C462 C461 1.386 . S
C462 C466 1.393 . S
C463 H452 0.950 . S
C463 C461 1.391 . S
C463 C464 1.400 . S
C464 C458 1.491 . S
C464 C463 1.400 . S
C464 C465 1.398 . S
C465 H453 0.950 . S
C465 C464 1.398 . S
C465 C466 1.391 . S
C466 H454 0.950 . S
C466 C462 1.393 . S
C466 C465 1.391 . S
H467 C475 0.950 . S
H468 C480 0.950 . S
H469 C477 0.950 . S
H470 C479 0.950 . S
H471 C481 0.950 . S
H472 C483 0.950 . S
H473 C485 0.950 . S
H474 C486 0.950 . S
C475 H467 0.950 . S
C475 C476 1.386 . S
C475 C477 1.391 . S
C476 C475 1.386 . S
C476 C480 1.393 . S
C477 H469 0.950 . S
C477 C475 1.391 . S
C477 C478 1.400 . S
C478 C477 1.400 . S
C478 C479 1.398 . S
C478 C484 1.491 . S
C479 H470 0.950 . S
C479 C478 1.398 . S
C479 C480 1.391 . S
C480 H468 0.950 . S
C480 C476 1.393 . S
C480 C479 1.391 . S
C481 H471 0.950 . S
C481 C482 1.386 . S
C481 C483 1.391 . S
C482 C481 1.386 . S
C482 C486 1.393 . S
C483 H472 0.950 . S
C483 C481 1.391 . S
C483 C484 1.400 . S
C484 C478 1.491 . S
C484 C483 1.400 . S
C484 C485 1.398 . S
C485 H473 0.950 . S
C485 C484 1.398 . S
C485 C486 1.391 . S
C486 H474 0.950 . S
C486 C482 1.393 . S
C486 C485 1.391 . S
H487 C495 0.950 . S
H488 C500 0.950 . S
H489 C497 0.950 . S
H490 C499 0.950 . S
H491 C501 0.950 . S
H492 C503 0.950 . S
H493 C505 0.950 . S
H494 C506 0.950 . S
C495 H487 0.950 . S
C495 C496 1.386 . S
C495 C497 1.391 . S
C496 C495 1.386 . S
C496 C500 1.393 . S
C497 H489 0.950 . S
C497 C495 1.391 . S
C497 C498 1.400 . S
C498 C497 1.400 . S
C498 C499 1.398 . S
C498 C504 1.491 . S
C499 H490 0.950 . S
C499 C498 1.398 . S
C499 C500 1.391 . S
C500 H488 0.950 . S
C500 C496 1.393 . S
C500 C499 1.391 . S
C501 H491 0.950 . S
C501 C502 1.386 . S
C501 C503 1.391 . S
C502 C501 1.386 . S
C502 C506 1.393 . S
C503 H492 0.950 . S
C503 C501 1.391 . S
C503 C504 1.400 . S
C504 C498 1.491 . S
C504 C503 1.400 . S
C504 C505 1.398 . S
C505 H493 0.950 . S
C505 C504 1.398 . S
C505 C506 1.391 . S
C506 H494 0.950 . S
C506 C502 1.393 . S
C506 C505 1.391 . S
H507 C515 0.950 . S
H508 C520 0.950 . S
H509 C517 0.950 . S
H510 C519 0.950 . S
H511 C521 0.950 . S
H512 C523 0.950 . S
H513 C525 0.950 . S
H514 C526 0.950 . S
C515 H507 0.950 . S
C515 C516 1.386 . S
C515 C517 1.391 . S
C516 C515 1.386 . S
C516 C520 1.393 . S
C517 H509 0.950 . S
C517 C515 1.391 . S
C517 C518 1.400 . S
C518 C517 1.400 . S
C518 C519 1.398 . S
C518 C524 1.491 . S
C519 H510 0.950 . S
C519 C518 1.398 . S
C519 C520 1.391 . S
C520 H508 0.950 . S
C520 C516 1.393 . S
C520 C519 1.391 . S
C521 H511 0.950 . S
C521 C522 1.386 . S
C521 C523 1.391 . S
C522 C521 1.386 . S
C522 C526 1.393 . S
C523 H512 0.950 . S
C523 C521 1.391 . S
C523 C524 1.400 . S
C524 C518 1.491 . S
C524 C523 1.400 . S
C524 C525 1.398 . S
C525 H513 0.950 . S
C525 C524 1.398 . S
C525 C526 1.391 . S
C526 H514 0.950 . S
C526 C522 1.393 . S
C526 C525 1.391 . S
H527 C535 0.950 . S
H528 C540 0.950 . S
H529 C537 0.950 . S
H530 C539 0.950 . S
H531 C541 0.950 . S
H532 C543 0.950 . S
H533 C545 0.950 . S
H534 C546 0.950 . S
C535 H527 0.950 . S
C535 C536 1.386 . S
C535 C537 1.391 . S
C536 C535 1.386 . S
C536 C540 1.393 . S
C537 H529 0.950 . S
C537 C535 1.391 . S
C537 C538 1.400 . S
C538 C537 1.400 . S
C538 C539 1.398 . S
C538 C544 1.491 . S
C539 H530 0.950 . S
C539 C538 1.398 . S
C539 C540 1.391 . S
C540 H528 0.950 . S
C540 C536 1.393 . S
C540 C539 1.391 . S
C541 H531 0.950 . S
C541 C542 1.386 . S
C541 C543 1.391 . S
C542 C541 1.386 . S
C542 C546 1.393 . S
C543 H532 0.950 . S
C543 C541 1.391 . S
C543 C544 1.400 . S
C544 C538 1.491 . S
C544 C543 1.400 . S
C544 C545 1.398 . S
C545 H533 0.950 . S
C545 C544 1.398 . S
C545 C546 1.391 . S
C546 H534 0.950 . S
C546 C542 1.393 . S
C546 C545 1.391 . S
H547 C555 0.950 . S
H548 C560 0.950 . S
H549 C557 0.950 . S
H550 C559 0.950 . S
H551 C561 0.950 . S
H552 C563 0.950 . S
H553 C565 0.950 . S
H554 C566 0.950 . S
C555 H547 0.950 . S
C555 C556 1.386 . S
C555 C557 1.391 . S
C556 C555 1.386 . S
C556 C560 1.393 . S
C557 H549 0.950 . S
C557 C555 1.391 . S
C557 C558 1.400 . S
C558 C557 1.400 . S
C558 C559 1.398 . S
C558 C564 1.491 . S
C559 H550 0.950 . S
C559 C558 1.398 . S
C559 C560 1.391 . S
C560 H548 0.950 . S
C560 C556 1.393 . S
C560 C559 1.391 . S
C561 H551 0.950 . S
C561 C562 1.386 . S
C561 C563 1.391 . S
C562 C561 1.386 . S
C562 C566 1.393 . S
C563 H552 0.950 . S
C563 C561 1.391 . S
C563 C564 1.400 . S
C564 C558 1.491 . S
C564 C563 1.400 . S
C564 C565 1.398 . S
C565 H553 0.950 . S
C565 C564 1.398 . S
C565 C566 1.391 . S
C566 H554 0.950 . S
C566 C562 1.393 . S
C566 C565 1.391 . S
H567 C575 0.950 . S
H568 C580 0.950 . S
H569 C577 0.950 . S
H570 C579 0.950 . S
H571 C581 0.950 . S
H572 C583 0.950 . S
H573 C585 0.950 . S
H574 C586 0.950 . S
C575 H567 0.950 . S
C575 C576 1.387 1_655 S
C575 C577 1.391 . S
C576 C575 1.387 1_455 S
C576 C580 1.392 . S
C577 H569 0.950 . S
C577 C575 1.391 . S
C577 C578 1.400 1_655 S
C578 C577 1.400 1_455 S
C578 C579 1.398 . S
C578 C584 1.491 . S
C579 H570 0.950 . S
C579 C578 1.398 . S
C579 C580 1.391 . S
C580 H568 0.950 . S
C580 C576 1.392 . S
C580 C579 1.391 . S
C581 H571 0.950 . S
C581 C582 1.386 . S
C581 C583 1.391 . S
C582 C581 1.386 . S
C582 C586 1.393 1_455 S
C583 H572 0.950 . S
C583 C581 1.391 . S
C583 C584 1.400 . S
C584 C578 1.491 . S
C584 C583 1.400 . S
C584 C585 1.398 1_455 S
C585 H573 0.950 . S
C585 C584 1.398 1_655 S
C585 C586 1.391 . S
C586 H574 0.950 . S
C586 C582 1.393 1_655 S
C586 C585 1.391 . S
H587 C595 0.950 . S
H588 C600 0.950 . S
H589 C597 0.950 . S
H590 C599 0.950 . S
H591 C601 0.950 . S
H592 C603 0.950 . S
H593 C605 0.950 . S
H594 C606 0.950 . S
C595 H587 0.950 . S
C595 C596 1.386 . S
C595 C597 1.391 . S
C596 C595 1.386 . S
C596 C600 1.393 . S
C597 H589 0.950 . S
C597 C595 1.391 . S
C597 C598 1.400 . S
C598 C597 1.400 . S
C598 C599 1.398 . S
C598 C604 1.491 . S
C599 H590 0.950 . S
C599 C598 1.398 . S
C599 C600 1.391 . S
C600 H588 0.950 . S
C600 C596 1.393 . S
C600 C599 1.391 . S
C601 H591 0.950 . S
C601 C602 1.386 . S
C601 C603 1.391 . S
C602 C601 1.386 . S
C602 C606 1.393 . S
C603 H592 0.950 . S
C603 C601 1.391 . S
C603 C604 1.400 . S
C604 C598 1.491 . S
C604 C603 1.400 . S
C604 C605 1.398 . S
C605 H593 0.950 . S
C605 C604 1.398 . S
C605 C606 1.391 . S
C606 H594 0.950 . S
C606 C602 1.393 . S
C606 C605 1.391 . S
H607 C615 0.950 . S
H608 C620 0.950 . S
H609 C617 0.950 . S
H610 C619 0.950 . S
H611 C621 0.950 . S
H612 C623 0.950 . S
H613 C625 0.950 . S
H614 C626 0.950 . S
C615 H607 0.950 . S
C615 C616 1.386 1_565 S
C615 C617 1.391 . S
C616 C615 1.386 1_545 S
C616 C620 1.393 . S
C617 H609 0.950 . S
C617 C615 1.391 . S
C617 C618 1.400 1_565 S
C618 C617 1.400 1_545 S
C618 C619 1.398 . S
C618 C624 1.491 . S
C619 H610 0.950 . S
C619 C618 1.398 . S
C619 C620 1.391 . S
C620 H608 0.950 . S
C620 C616 1.393 . S
C620 C619 1.391 . S
C621 H611 0.950 . S
C621 C622 1.386 . S
C621 C623 1.391 . S
C622 C621 1.386 . S
C622 C626 1.393 1_545 S
C623 H612 0.950 . S
C623 C621 1.391 . S
C623 C624 1.400 . S
C624 C618 1.491 . S
C624 C623 1.400 . S
C624 C625 1.398 1_545 S
C625 H613 0.950 . S
C625 C624 1.398 1_565 S
C625 C626 1.391 . S
C626 H614 0.950 . S
C626 C622 1.393 1_565 S
C626 C625 1.391 . S
H627 C635 0.950 . S
H628 C640 0.950 . S
H629 C637 0.950 . S
H630 C639 0.950 . S
H631 C641 0.950 . S
H632 C643 0.950 . S
H633 C645 0.950 . S
H634 C646 0.950 1_554 S
C635 H627 0.950 . S
C635 C636 1.386 . S
C635 C637 1.391 . S
C636 C635 1.386 . S
C636 C640 1.393 . S
C637 H629 0.950 . S
C637 C635 1.391 . S
C637 C638 1.400 . S
C638 C637 1.400 . S
C638 C639 1.398 . S
C638 C644 1.491 . S
C639 H630 0.950 . S
C639 C638 1.398 . S
C639 C640 1.391 . S
C640 H628 0.950 . S
C640 C636 1.393 . S
C640 C639 1.391 . S
C641 H631 0.950 . S
C641 C642 1.386 . S
C641 C643 1.391 1_554 S
C642 C641 1.386 . S
C642 C646 1.393 1_554 S
C643 H632 0.950 . S
C643 C641 1.391 1_556 S
C643 C644 1.400 . S
C644 C638 1.491 . S
C644 C643 1.400 . S
C644 C645 1.398 . S
C645 H633 0.950 . S
C645 C644 1.398 . S
C645 C646 1.391 . S
C646 H634 0.950 1_556 S
C646 C642 1.393 1_556 S
C646 C645 1.391 . S
H647 C655 0.950 . S
H648 C660 0.950 . S
H649 C657 0.950 . S
H650 C659 0.950 . S
H651 C661 0.950 . S
H652 C663 0.950 . S
H653 C665 0.950 . S
H654 C666 0.950 1_554 S
C655 H647 0.950 . S
C655 C656 1.386 . S
C655 C657 1.391 . S
C656 C655 1.386 . S
C656 C660 1.393 . S
C657 H649 0.950 . S
C657 C655 1.391 . S
C657 C658 1.400 . S
C658 C657 1.400 . S
C658 C659 1.398 . S
C658 C664 1.491 . S
C659 H650 0.950 . S
C659 C658 1.398 . S
C659 C660 1.391 . S
C660 H648 0.950 . S
C660 C656 1.393 . S
C660 C659 1.391 . S
C661 H651 0.950 . S
C661 C662 1.386 . S
C661 C663 1.391 1_554 S
C662 C661 1.386 . S
C662 C666 1.393 1_554 S
C663 H652 0.950 . S
C663 C661 1.391 1_556 S
C663 C664 1.400 . S
C664 C658 1.491 . S
C664 C663 1.400 . S
C664 C665 1.398 . S
C665 H653 0.950 . S
C665 C664 1.398 . S
C665 C666 1.391 . S
C666 H654 0.950 1_556 S
C666 C662 1.393 1_556 S
C666 C665 1.391 . S
H667 C675 0.950 . S
H668 C680 0.950 . S
H669 C677 0.950 . S
H670 C679 0.950 . S
H671 C681 0.950 . S
H672 C683 0.950 . S
H673 C685 0.950 . S
H674 C686 0.950 1_554 S
C675 H667 0.950 . S
C675 C676 1.386 . S
C675 C677 1.391 . S
C676 C675 1.386 . S
C676 C680 1.393 . S
C677 H669 0.950 . S
C677 C675 1.391 . S
C677 C678 1.400 . S
C678 C677 1.400 . S
C678 C679 1.398 . S
C678 C684 1.491 . S
C679 H670 0.950 . S
C679 C678 1.398 . S
C679 C680 1.391 . S
C680 H668 0.950 . S
C680 C676 1.393 . S
C680 C679 1.391 . S
C681 H671 0.950 . S
C681 C682 1.386 . S
C681 C683 1.391 1_554 S
C682 C681 1.386 . S
C682 C686 1.393 1_554 S
C683 H672 0.950 . S
C683 C681 1.391 1_556 S
C683 C684 1.400 . S
C684 C678 1.491 . S
C684 C683 1.400 . S
C684 C685 1.398 . S
C685 H673 0.950 . S
C685 C684 1.398 . S
C685 C686 1.391 . S
C686 H674 0.950 1_556 S
C686 C682 1.393 1_556 S
C686 C685 1.391 . S
H687 C695 0.950 . S
H688 C700 0.950 . S
H689 C697 0.950 . S
H690 C699 0.950 . S
H691 C701 0.950 1_556 S
H692 C703 0.950 . S
H693 C705 0.950 . S
H694 C706 0.950 . S
C695 H687 0.950 . S
C695 C696 1.386 . S
C695 C697 1.391 . S
C696 C695 1.386 . S
C696 C700 1.393 . S
C697 H689 0.950 . S
C697 C695 1.391 . S
C697 C698 1.400 . S
C698 C697 1.400 . S
C698 C699 1.398 . S
C698 C704 1.491 . S
C699 H690 0.950 . S
C699 C698 1.398 . S
C699 C700 1.391 . S
C700 H688 0.950 . S
C700 C696 1.393 . S
C700 C699 1.391 . S
C701 H691 0.950 1_554 S
C701 C702 1.386 1_554 S
C701 C703 1.391 . S
C702 C701 1.386 1_556 S
C702 C706 1.393 . S
C703 H692 0.950 . S
C703 C701 1.391 . S
C703 C704 1.400 . S
C704 C698 1.491 . S
C704 C703 1.400 . S
C704 C705 1.398 . S
C705 H693 0.950 . S
C705 C704 1.398 . S
C705 C706 1.391 1_554 S
C706 H694 0.950 . S
C706 C702 1.393 . S
C706 C705 1.391 1_556 S
H707 C715 0.950 . S
H708 C720 0.950 1_556 S
H709 C717 0.950 . S
H710 C719 0.950 . S
H711 C721 0.950 . S
H712 C723 0.950 . S
H713 C725 0.950 . S
H714 C726 0.950 . S
C715 H707 0.950 . S
C715 C716 1.386 . S
C715 C717 1.391 1_556 S
C716 C715 1.386 . S
C716 C720 1.393 1_556 S
C717 H709 0.950 . S
C717 C715 1.391 1_554 S
C717 C718 1.400 . S
C718 C717 1.400 . S
C718 C719 1.398 . S
C718 C724 1.491 . S
C719 H710 0.950 . S
C719 C718 1.398 . S
C719 C720 1.391 . S
C720 H708 0.950 1_554 S
C720 C716 1.393 1_554 S
C720 C719 1.391 . S
C721 H711 0.950 . S
C721 C722 1.386 . S
C721 C723 1.391 . S
C722 C721 1.386 . S
C722 C726 1.393 . S
C723 H712 0.950 . S
C723 C721 1.391 . S
C723 C724 1.400 . S
C724 C718 1.491 . S
C724 C723 1.400 . S
C724 C725 1.398 . S
C725 H713 0.950 . S
C725 C724 1.398 . S
C725 C726 1.391 . S
C726 H714 0.950 . S
C726 C722 1.393 . S
C726 C725 1.391 . S
H727 C735 0.950 . S
H728 C740 0.950 . S
H729 C737 0.950 . S
H730 C739 0.950 . S
H731 C741 0.942 1_556 S
H732 C743 0.950 . S
H733 C745 0.950 . S
H734 C746 0.946 1_556 S
C735 H727 0.950 . S
C735 C736 1.386 . S
C735 C737 1.391 . S
C736 C735 1.386 . S
C736 C740 1.393 . S
C737 H729 0.950 . S
C737 C735 1.391 . S
C737 C738 1.400 . S
C738 C737 1.400 . S
C738 C739 1.398 . S
C738 C744 1.491 . S
C739 H730 0.950 . S
C739 C738 1.398 . S
C739 C740 1.391 . S
C740 H728 0.950 . S
C740 C736 1.393 . S
C740 C739 1.391 . S
C741 H731 0.942 1_554 S
C741 C742 1.381 1_554 S
C741 C743 1.403 . S
C742 C741 1.381 1_556 S
C742 C746 1.393 1_556 S
C743 H732 0.950 . S
C743 C741 1.403 . S
C743 C744 1.400 . S
C744 C738 1.491 . S
C744 C743 1.400 . S
C744 C745 1.398 . S
C745 H733 0.950 . S
C745 C744 1.398 . S
C745 C746 1.391 . S
C746 H734 0.946 1_554 S
C746 C742 1.393 1_554 S
C746 C745 1.391 . S
C216 C18 1.192 . S
C222 C179 1.191 . S
C236 C42 1.160 . S
C242 C203 1.142 . S
C256 C64 1.183 . S
C262 C157 1.173 . S
C276 C111 1.140 . S
C282 C65 1.141 . S
C296 C134 1.135 . S
C302 C19 1.139 . S
C316 C41 1.175 . S
C322 C88 1.163 . S
C336 C180 1.168 . S
C342 C133 1.184 . S
C356 C202 1.200 . S
C362 C87 1.206 . S
C376 C110 1.211 . S
C382 C156 1.209 . S
C396 C67 1.016 1_556 S
C402 C20 0.984 . S
C416 C44 1.007 . S
C422 C21 1.012 1_556 S
C436 C43 1.023 . S
C442 C66 1.017 . S
C456 C90 1.030 . S
C462 C135 0.995 . S
C476 C89 1.017 . S
C482 C113 1.047 . S
C496 C112 1.027 . S
C502 C136 1.023 . S
C516 C205 1.032 . S
C522 C158 1.003 . S
C536 C182 1.034 . S
C542 C159 1.024 . S
C556 C204 0.998 . S
C562 C181 1.024 . S
C576 C16 1.370 . S
C582 C17 1.373 . S
C596 C40 1.371 . S
C602 C39 1.369 . S
C616 C62 1.369 . S
C622 C63 1.371 . S
C636 C85 1.370 . S
C642 C86 1.371 . S
C656 C108 1.374 . S
C662 C109 1.375 . S
C676 C131 1.372 . S
C682 C132 1.374 . S
C696 C154 1.369 . S
C702 C155 1.372 . S
C716 C177 1.365 . S
C722 C178 1.368 . S
C736 C200 1.369 . S
C742 C201 1.371 . S
