# Generated by pormake.
# Topology umz, (4)-cn, num edge types: 1
# Building blocks:
#     Node 0, Type 0, BuildingBlock: NAHDIM_clean_sbu_0, # of connection points: 4
#     Node 1, Type 0, BuildingBlock: NAHDIM_clean_sbu_0, # of connection points: 4
#     Node 2, Type 0, BuildingBlock: NAHDIM_clean_sbu_0, # of connection points: 4
#     Node 3, Type 0, BuildingBlock: NAHDIM_clean_sbu_0, # of connection points: 4
#     Node 4, Type 0, BuildingBlock: NAHDIM_clean_sbu_0, # of connection points: 4
#     Node 5, Type 0, BuildingBlock: NAHDIM_clean_sbu_0, # of connection points: 4
#     Node 6, Type 0, BuildingBlock: NAHDIM_clean_sbu_0, # of connection points: 4
#     Node 7, Type 0, BuildingBlock: NAHDIM_clean_sbu_0, # of connection points: 4
#     Node 8, Type 0, BuildingBlock: NAHDIM_clean_sbu_0, # of connection points: 4
#     Node 9, Type 0, BuildingBlock: NAHDIM_clean_sbu_0, # of connection points: 4
#     Node 10, Type 0, BuildingBlock: NAHDIM_clean_sbu_0, # of connection points: 4
#     Node 11, Type 0, BuildingBlock: NAHDIM_clean_sbu_0, # of connection points: 4
#     Node 12, Type 0, BuildingBlock: NAHDIM_clean_sbu_0, # of connection points: 4
#     Node 13, Type 0, BuildingBlock: NAHDIM_clean_sbu_0, # of connection points: 4
#     Node 14, Type 0, BuildingBlock: NAHDIM_clean_sbu_0, # of connection points: 4
#     Node 15, Type 0, BuildingBlock: NAHDIM_clean_sbu_0, # of connection points: 4
#     Edge 16, Type (0, 0), BuildingBlock: ZUJKAS_clean_linker_0, # of connection points: 2
#     Edge 17, Type (0, 0), BuildingBlock: ZUJKAS_clean_linker_0, # of connection points: 2
#     Edge 18, Type (0, 0), BuildingBlock: ZUJKAS_clean_linker_0, # of connection points: 2
#     Edge 19, Type (0, 0), BuildingBlock: ZUJKAS_clean_linker_0, # of connection points: 2
#     Edge 20, Type (0, 0), BuildingBlock: ZUJKAS_clean_linker_0, # of connection points: 2
#     Edge 21, Type (0, 0), BuildingBlock: ZUJKAS_clean_linker_0, # of connection points: 2
#     Edge 22, Type (0, 0), BuildingBlock: ZUJKAS_clean_linker_0, # of connection points: 2
#     Edge 23, Type (0, 0), BuildingBlock: ZUJKAS_clean_linker_0, # of connection points: 2
#     Edge 24, Type (0, 0), BuildingBlock: ZUJKAS_clean_linker_0, # of connection points: 2
#     Edge 25, Type (0, 0), BuildingBlock: ZUJKAS_clean_linker_0, # of connection points: 2
#     Edge 26, Type (0, 0), BuildingBlock: ZUJKAS_clean_linker_0, # of connection points: 2
#     Edge 27, Type (0, 0), BuildingBlock: ZUJKAS_clean_linker_0, # of connection points: 2
#     Edge 28, Type (0, 0), BuildingBlock: ZUJKAS_clean_linker_0, # of connection points: 2
#     Edge 29, Type (0, 0), BuildingBlock: ZUJKAS_clean_linker_0, # of connection points: 2
#     Edge 30, Type (0, 0), BuildingBlock: ZUJKAS_clean_linker_0, # of connection points: 2
#     Edge 31, Type (0, 0), BuildingBlock: ZUJKAS_clean_linker_0, # of connection points: 2
#     Edge 32, Type (0, 0), BuildingBlock: ZUJKAS_clean_linker_0, # of connection points: 2
#     Edge 33, Type (0, 0), BuildingBlock: ZUJKAS_clean_linker_0, # of connection points: 2
#     Edge 34, Type (0, 0), BuildingBlock: ZUJKAS_clean_linker_0, # of connection points: 2
#     Edge 35, Type (0, 0), BuildingBlock: ZUJKAS_clean_linker_0, # of connection points: 2
#     Edge 36, Type (0, 0), BuildingBlock: ZUJKAS_clean_linker_0, # of connection points: 2
#     Edge 37, Type (0, 0), BuildingBlock: ZUJKAS_clean_linker_0, # of connection points: 2
#     Edge 38, Type (0, 0), BuildingBlock: ZUJKAS_clean_linker_0, # of connection points: 2
#     Edge 39, Type (0, 0), BuildingBlock: ZUJKAS_clean_linker_0, # of connection points: 2
#     Edge 40, Type (0, 0), BuildingBlock: ZUJKAS_clean_linker_0, # of connection points: 2
#     Edge 41, Type (0, 0), BuildingBlock: ZUJKAS_clean_linker_0, # of connection points: 2
#     Edge 42, Type (0, 0), BuildingBlock: ZUJKAS_clean_linker_0, # of connection points: 2
#     Edge 43, Type (0, 0), BuildingBlock: ZUJKAS_clean_linker_0, # of connection points: 2
#     Edge 44, Type (0, 0), BuildingBlock: ZUJKAS_clean_linker_0, # of connection points: 2
#     Edge 45, Type (0, 0), BuildingBlock: ZUJKAS_clean_linker_0, # of connection points: 2
#     Edge 46, Type (0, 0), BuildingBlock: ZUJKAS_clean_linker_0, # of connection points: 2
#     Edge 47, Type (0, 0), BuildingBlock: ZUJKAS_clean_linker_0, # of connection points: 2
# Relax obj value: 0.222
# Max RMSD: 0.162
# Mean RMSD: 0.160
data_MOF--net-umz--node1-NAHDIM_clean_sbu_0--edge1-ZUJKAS_clean_linker_0
_symmetry_space_group_name_H-M    P1
_symmetry_Int_Tables_number       1
_symmetry_cell_setting            triclinic
loop_
_symmetry_equiv_pos_as_xyz
'x, y, z'
_cell_length_a     77.17831
_cell_length_b     77.168399
_cell_length_c     28.219352
_cell_angle_alpha  90.02553
_cell_angle_beta   89.981619
_cell_angle_gamma 90.004044
loop_
_atom_site_label
_atom_site_type_symbol
_atom_site_fract_x
_atom_site_fract_y
_atom_site_fract_z
_atom_type_partial_charge
C0 C 0.0115 0.68488 0.15708 0.0
O1 O 0.99771 0.67536 0.16506 0.0
O2 O 0.00692 0.64419 0.21491 0.0
Zn3 Zn 0.02954 0.65553 0.19773 0.0
O4 O 0.04175 0.64174 0.14756 0.0
C5 C 0.03839 0.65556 0.29686 0.0
O6 O 0.02178 0.65875 0.30202 0.0
O7 O 0.02622 0.67948 0.17086 0.0
C8 C 0.04825 0.6269 0.15561 0.0
O9 O 0.04628 0.61986 0.19766 0.0
C10 C 0.99799 0.6353 0.18596 0.0
O11 O 0.00329 0.63372 0.14193 0.0
O12 O 0.04476 0.65498 0.25537 0.0
C13 C 0.82005 0.01471 0.66682 0.0
O14 O 0.83084 0.00163 0.67091 0.0
O15 O 0.8623 0.0117 0.71219 0.0
Zn16 Zn 0.84855 0.03394 0.7073 0.0
O17 O 0.85988 0.05009 0.66085 0.0
C18 C 0.85379 0.03786 0.80772 0.0
O19 O 0.85625 0.02104 0.80539 0.0
O20 O 0.82447 0.02949 0.6827 0.0
C21 C 0.87333 0.05884 0.67109 0.0
O22 O 0.88038 0.05711 0.7132 0.0
C23 C 0.87581 0.00856 0.68791 0.0
O24 O 0.88099 0.01985 0.65611 0.0
O25 O 0.84897 0.04593 0.77073 0.0
C26 C 0.4901 0.81896 0.19321 0.0
O27 O 0.5038 0.82551 0.2142 0.0
O28 O 0.49738 0.86381 0.22088 0.0
Zn29 Zn 0.47405 0.85268 0.21162 0.0
O30 O 0.46055 0.86454 0.15991 0.0
C31 C 0.45928 0.87252 0.28099 0.0
O32 O 0.46754 0.88355 0.25366 0.0
O33 O 0.4762 0.82777 0.19162 0.0
C34 C 0.46402 0.87894 0.14026 0.0
O35 O 0.47806 0.88744 0.15258 0.0
C36 C 0.50932 0.865 0.19007 0.0
O37 O 0.50697 0.85825 0.1478 0.0
O38 O 0.46026 0.85645 0.27136 0.0
C39 C 0.68212 0.49628 0.64422 0.0
O40 O 0.66974 0.50792 0.64161 0.0
O41 O 0.64195 0.49856 0.7073 0.0
Zn42 Zn 0.65563 0.47699 0.69276 0.0
O43 O 0.64346 0.46296 0.64302 0.0
C44 C 0.65615 0.47008 0.79258 0.0
O45 O 0.65793 0.48699 0.79476 0.0
O46 O 0.67939 0.48235 0.66709 0.0
C47 C 0.62902 0.45551 0.6503 0.0
O48 O 0.62135 0.45735 0.69157 0.0
C49 C 0.6315 0.50571 0.67856 0.0
O50 O 0.6298 0.49936 0.63561 0.0
O51 O 0.65616 0.46273 0.75226 0.0
C52 C 0.00965 0.82485 0.82495 0.0
O53 O 0.99588 0.83475 0.82107 0.0
O54 O 0.00475 0.86891 0.79666 0.0
Zn55 Zn 0.02759 0.85613 0.79746 0.0
O56 O 0.0433 0.86585 0.84788 0.0
C57 C 0.04248 0.87659 0.72894 0.0
O58 O 0.03769 0.88751 0.7622 0.0
O59 O 0.02436 0.83091 0.81328 0.0
C60 C 0.0596 0.86406 0.84366 0.0
O61 O 0.06581 0.85569 0.80681 0.0
C62 C 0.00235 0.88279 0.82002 0.0
O63 O 0.01476 0.88861 0.84762 0.0
O64 O 0.03925 0.86056 0.7346 0.0
C65 C 0.68433 0.00875 0.32211 0.0
O66 O 0.67606 0.99421 0.31347 0.0
O67 O 0.64238 0.00067 0.27981 0.0
Zn68 Zn 0.65273 0.0245 0.28713 0.0
O69 O 0.63984 0.03797 0.33684 0.0
C70 C 0.63964 0.0322 0.19472 0.0
O71 O 0.63163 0.01745 0.20233 0.0
O72 O 0.67733 0.02306 0.31061 0.0
C73 C 0.62519 0.04506 0.33011 0.0
O74 O 0.61734 0.04303 0.28917 0.0
C75 C 0.63341 0.99311 0.31135 0.0
O76 O 0.63107 0.00069 0.35255 0.0
O77 O 0.65034 0.03773 0.22551 0.0
C78 C 0.49756 0.68287 0.84976 0.0
O79 O 0.50993 0.67119 0.84988 0.0
O80 O 0.49995 0.64156 0.79321 0.0
Zn81 Zn 0.47831 0.65567 0.80306 0.0
O82 O 0.46319 0.64396 0.85111 0.0
C83 C 0.47276 0.65292 0.70272 0.0
O84 O 0.48975 0.652 0.70231 0.0
O85 O 0.48336 0.67949 0.82885 0.0
C86 C 0.4556 0.62965 0.84303 0.0
O87 O 0.45805 0.62184 0.80218 0.0
C88 C 0.50683 0.63203 0.82469 0.0
O89 O 0.5001 0.63162 0.86745 0.0
O90 O 0.46504 0.6559 0.74168 0.0
C91 C 0.82312 0.49462 0.31469 0.0
O92 O 0.83002 0.50877 0.29698 0.0
O93 O 0.86749 0.50215 0.28695 0.0
Zn94 Zn 0.85635 0.47864 0.29147 0.0
O95 O 0.86841 0.46366 0.33948 0.0
C96 C 0.8744 0.46847 0.21101 0.0
O97 O 0.88571 0.47808 0.23381 0.0
O98 O 0.83159 0.48051 0.313 0.0
C99 C 0.88391 0.46532 0.35393 0.0
O100 O 0.89346 0.47814 0.33797 0.0
C101 C 0.87056 0.51255 0.32082 0.0
O102 O 0.86581 0.50839 0.36406 0.0
O103 O 0.8593 0.46669 0.22844 0.0
C104 C 0.96444 0.32011 0.8297 0.0
O105 O 0.94956 0.32823 0.82556 0.0
O106 O 0.96536 0.35212 0.71965 0.0
Zn107 Zn 0.97599 0.35098 0.78473 0.0
O108 O 0.96089 0.36501 0.82826 0.0
C109 C -0.00072 0.3785 0.77229 0.0
O110 O 0.98436 0.38628 0.76517 0.0
O111 O 0.97794 0.32694 0.8119 0.0
C112 C 0.96391 0.36608 0.87237 0.0
O113 O 0.97746 0.35806 0.89005 0.0
C114 C 0.94907 0.35408 0.71559 0.0
O115 O 0.93934 0.35306 0.75369 0.0
O116 O -0.00067 0.36241 0.78184 0.0
C117 C 0.18429 0.96398 0.33336 0.0
O118 O 0.17712 0.94861 0.32951 0.0
O119 O 0.15664 0.95885 0.21824 0.0
Zn120 Zn 0.15462 0.97223 0.27939 0.0
O121 O 0.14001 0.95825 0.32419 0.0
C122 C 0.12667 0.99261 0.24988 0.0
O123 O 0.12088 0.97687 0.24162 0.0
O124 O 0.1774 0.9767 0.31186 0.0
C125 C 0.13621 0.96407 0.36494 0.0
O126 O 0.14162 0.97959 0.37717 0.0
C127 C 0.1546 0.9425 0.2187 0.0
O128 O 0.15325 0.93452 0.25961 0.0
O129 O 0.14185 0.99443 0.26658 0.0
C130 C 0.54483 0.18534 0.82027 0.0
O131 O 0.56013 0.17814 0.81488 0.0
O132 O 0.54553 0.15232 0.71454 0.0
Zn133 Zn 0.535 0.15327 0.77986 0.0
O134 O 0.55088 0.14071 0.82472 0.0
C135 C 0.51388 0.12433 0.76586 0.0
O136 O 0.52939 0.11794 0.75792 0.0
O137 O 0.53153 0.17737 0.80514 0.0
C138 C 0.54564 0.13561 0.86502 0.0
O139 O 0.5295 0.13852 0.87745 0.0
C140 C 0.56171 0.14993 0.7094 0.0
O141 O 0.57175 0.15032 0.74696 0.0
O142 O 0.51249 0.14023 0.77698 0.0
C143 C 0.32665 0.54634 0.34904 0.0
O144 O 0.33477 0.56125 0.34575 0.0
O145 O 0.3569 0.54534 0.23532 0.0
Zn146 Zn 0.35711 0.53531 0.30116 0.0
O147 O 0.37115 0.55128 0.34259 0.0
C148 C 0.38436 0.51204 0.28209 0.0
O149 O 0.3915 0.5268 0.26954 0.0
O150 O 0.3334 0.53299 0.3302 0.0
C151 C 0.3802 0.54604 0.3773 0.0
O152 O 0.38076 0.5294 0.38701 0.0
C153 C 0.3579 0.56164 0.22942 0.0
O154 O 0.35709 0.57183 0.26665 0.0
O155 O 0.36892 0.51212 0.29775 0.0
C156 C 0.96419 0.18272 0.16907 0.0
O157 O 0.94875 0.17616 0.17679 0.0
O158 O 0.96362 0.1509 0.27636 0.0
Zn159 Zn 0.97367 0.1506 0.21036 0.0
O160 O 0.95692 0.13803 0.16783 0.0
C161 C 0.99478 0.12115 0.22198 0.0
O162 O 0.97941 0.1146 0.23093 0.0
O163 O 0.97744 0.17434 0.18279 0.0
C164 C 0.96169 0.13084 0.12952 0.0
O165 O 0.97808 0.13151 0.11708 0.0
C166 C 0.94729 0.15013 0.28194 0.0
O167 O 0.93722 0.15082 0.24447 0.0
O168 O 0.99598 0.13716 0.21199 0.0
C169 C 0.31634 0.9693 0.68475 0.0
O170 O 0.32239 0.95367 0.69285 0.0
O171 O 0.35181 0.96638 0.78179 0.0
Zn172 Zn 0.34997 0.9776 0.71751 0.0
O173 O 0.36077 0.96144 0.67013 0.0
C174 C 0.38037 0.99731 0.72331 0.0
O175 O 0.38647 0.98145 0.72643 0.0
O176 O 0.32563 0.98229 0.69565 0.0
C177 C 0.36426 0.96631 0.62827 0.0
O178 O 0.3608 0.98233 0.61567 0.0
C179 C 0.35327 0.95001 0.78493 0.0
O180 O 0.35135 0.94054 0.7466 0.0
O181 O 0.36412 -0.00053 0.71894 0.0
C182 C 0.54342 0.32783 0.14501 0.0
O183 O 0.55854 0.33537 0.15059 0.0
O184 O 0.54359 0.36066 0.25081 0.0
Zn185 Zn 0.53292 0.35966 0.1856 0.0
O186 O 0.5485 0.37229 0.14019 0.0
C187 C 0.50019 0.37035 0.22384 0.0
O188 O 0.50466 0.35956 0.2577 0.0
O189 O 0.52992 0.33546 0.16021 0.0
C190 C 0.55384 0.38764 0.14737 0.0
O191 O 0.54873 0.39598 0.1855 0.0
C192 C 0.55989 0.36165 0.25665 0.0
O193 O 0.57012 0.36028 0.21964 0.0
O194 O 0.51009 0.37213 0.18819 0.0
C195 C 0.18078 0.54258 0.66198 0.0
O196 O 0.17353 0.55771 0.66987 0.0
O197 O 0.14493 0.54126 0.75779 0.0
Zn198 Zn 0.14751 0.53138 0.692 0.0
O199 O 0.13577 0.54736 0.6459 0.0
C200 C 0.13829 0.49737 0.72351 0.0
O201 O 0.14965 0.5011 0.75666 0.0
O202 O 0.17229 0.5289 0.67136 0.0
C203 C 0.11939 0.5489 0.64421 0.0
O204 O 0.10974 0.53944 0.67253 0.0
C205 C 0.14221 0.55734 0.76405 0.0
O206 O 0.14263 0.5678 0.72735 0.0
O207 O 0.13552 0.50831 0.69073 0.0
H208 H 0.98224 0.6999 0.12095 0.0
H209 H 0.98061 0.7231 0.06193 0.0
H210 H 0.03627 0.72769 0.06331 0.0
H211 H 0.03809 0.70455 0.12225 0.0
H212 H 0.99498 0.75853 0.06543 0.0
H213 H 0.02256 0.71766 0.92174 0.0
H214 H 0.01351 0.70861 0.97533 0.0
H215 H 0.03472 0.71815 0.97607 0.0
C216 C 0.99413 0.70596 0.1091 0.0
C217 C 0.01031 0.70029 0.12605 0.0
C218 C 0.99316 0.71918 0.07535 0.0
C219 C 0.00833 0.72682 0.05777 0.0
C220 C 0.02444 0.7217 0.07596 0.0
H221 H 0.03637 0.80399 0.85314 0.0
H222 H 0.03483 0.77938 0.90731 0.0
C223 C 0.02543 0.70856 0.10986 0.0
C224 C 0.00739 0.73997 0.01982 0.0
H225 H 0.01865 0.74747 0.90467 0.0
C226 C 2e-05 0.75613 0.03014 0.0
C227 C 0.01399 0.73669 0.97395 0.0
C228 C 0.02153 0.7193 0.96075 0.0
C229 C -0.00041 0.76937 0.99611 0.0
C230 C 0.00632 0.76615 0.95024 0.0
C231 C 0.01346 0.74987 0.93978 0.0
C232 C 0.00689 0.77983 0.91347 0.0
C233 C 0.99252 0.78688 0.01015 0.0
C234 C 0.99163 0.78777 0.89742 0.0
C235 C 0.99245 0.80192 0.86658 0.0
C236 C 0.00856 0.80824 0.85093 0.0
C237 C 0.02375 0.79951 0.86465 0.0
C238 C 0.02291 0.78544 0.89568 0.0
H239 H 0.99182 0.78841 0.04926 0.0
H240 H 0.00065 0.79748 0.99552 0.0
H241 H 0.97922 0.78834 0.99579 0.0
H242 H 0.9791 0.78333 0.90977 0.0
H243 H 0.9805 0.80824 0.85631 0.0
H244 H 0.70181 0.03667 0.35789 0.0
H245 H 0.72515 0.03638 0.41641 0.0
H246 H 0.72549 0.98052 0.41398 0.0
H247 H 0.70215 0.98062 0.35534 0.0
H248 H 0.72155 0.01908 0.50771 0.0
H249 H 0.7775 0.9949 0.40231 0.0
H250 H 0.75864 0.00457 0.37516 0.0
H251 H 0.75766 0.9828 0.39734 0.0
C252 C 0.70704 0.02431 0.36909 0.0
C253 C 0.70007 0.00866 0.35204 0.0
C254 C 0.72033 0.02418 0.40265 0.0
C255 C 0.72703 0.00844 0.41933 0.0
C256 C 0.7206 0.99281 0.40111 0.0
H257 H 0.80674 0.98514 0.62775 0.0
H258 H 0.78285 0.98286 0.57117 0.0
C259 C 0.70724 0.9929 0.36767 0.0
C260 C 0.73988 0.0084 0.45815 0.0
H261 H 0.78179 0.99834 0.48462 0.0
C262 C 0.73474 0.01458 0.50276 0.0
C263 C 0.75696 0.00233 0.45151 0.0
C264 C 0.76315 0.99587 0.40396 0.0
C265 C 0.74627 0.01481 0.54116 0.0
C266 C 0.7635 0.00909 0.53433 0.0
C267 C 0.76856 0.0027 0.48979 0.0
C268 C 0.77673 0.01022 0.57226 0.0
C269 C 0.73981 0.02094 0.58878 0.0
C270 C 0.78105 0.02632 0.59213 0.0
C271 C 0.79459 0.02765 0.62475 0.0
C272 C 0.80424 0.01293 0.63759 0.0
C273 C 0.79957 0.99673 0.61862 0.0
C274 C 0.78595 0.9954 0.58618 0.0
H275 H 0.72551 0.01962 0.59175 0.0
H276 H 0.74595 0.01359 0.61813 0.0
H277 H 0.74305 0.03486 0.59318 0.0
H278 H 0.77436 0.03798 0.58115 0.0
H279 H 0.79791 0.04034 0.63841 0.0
H280 H 0.519 0.7991 0.17745 0.0
H281 H 0.52222 0.77573 0.11926 0.0
H282 H 0.46802 0.77979 0.0842 0.0
H283 H 0.46462 0.80308 0.142 0.0
H284 H 0.50282 0.74277 0.10724 0.0
H285 H 0.49521 0.78892 0.95759 0.0
H286 H 0.50049 0.79586 0.017 0.0
H287 H 0.47862 0.79002 0.00222 0.0
C288 C 0.5077 0.79484 0.15791 0.0
C289 C 0.49159 0.80309 0.16402 0.0
C290 C 0.50959 0.78153 0.12463 0.0
C291 C 0.49543 0.77634 0.09691 0.0
C292 C 0.47916 0.78386 0.10475 0.0
H293 H 0.47268 0.70722 0.86798 0.0
H294 H 0.47375 0.73032 0.92713 0.0
C295 C 0.47724 0.79711 0.13799 0.0
C296 C 0.49769 0.76354 0.05845 0.0
H297 H 0.49509 0.75899 0.93835 0.0
C298 C 0.50131 0.74628 0.07025 0.0
C299 C 0.49571 0.76827 0.01035 0.0
C300 C 0.49243 0.7868 0.99578 0.0
C301 C 0.50234 0.73342 0.03514 0.0
C302 C 0.50007 0.7381 0.98701 0.0
C303 C 0.49683 0.75546 0.97525 0.0
C304 C 0.50014 0.72504 0.94857 0.0
C305 C 0.50518 0.71485 0.05003 0.0
C306 C 0.51485 0.71485 0.93982 0.0
C307 C 0.51428 0.70159 0.90608 0.0
C308 C 0.49901 0.6984 0.88027 0.0
C309 C 0.48462 0.70928 0.88732 0.0
C310 C 0.48519 0.72247 0.92118 0.0
H311 H 0.50263 0.71293 0.08843 0.0
H312 H 0.49669 0.70596 0.02959 0.0
H313 H 0.51884 0.7112 0.043 0.0
H314 H 0.52666 0.71691 0.95976 0.0
H315 H 0.52564 0.69354 0.90123 0.0
H316 H 0.69227 0.52454 0.59283 0.0
H317 H 0.71641 0.52638 0.53691 0.0
H318 H 0.73143 0.47411 0.57208 0.0
H319 H 0.70758 0.47227 0.62878 0.0
H320 H 0.75932 0.49617 0.56384 0.0
H321 H 0.71562 0.50248 0.40827 0.0
H322 H 0.71259 0.51871 0.45311 0.0
H323 H 0.70784 0.49642 0.46624 0.0
C324 C 0.70081 0.51349 0.58904 0.0
C325 C 0.6979 0.49819 0.61492 0.0
C326 C 0.71452 0.51453 0.55679 0.0
C327 C 0.72543 0.50023 0.5495 0.0
C328 C 0.72306 0.48524 0.57689 0.0
H329 H 0.80721 0.4683 0.36257 0.0
H330 H 0.7831 0.47058 0.41827 0.0
C331 C 0.70943 0.48423 0.60935 0.0
C332 C 0.73911 0.50066 0.51271 0.0
H333 H 0.74573 0.5042 0.39333 0.0
C334 C 0.75635 0.49795 0.52659 0.0
C335 C 0.73518 0.50297 0.46409 0.0
C336 C 0.7168 0.50516 0.44683 0.0
C337 C 0.76978 0.49746 0.49313 0.0
C338 C 0.76581 0.49958 0.44458 0.0
C339 C 0.74866 0.50261 0.43067 0.0
C340 C 0.77934 0.49807 0.40776 0.0
C341 C 0.78814 0.4947 0.50987 0.0
C342 C 0.7847 0.51269 0.38217 0.0
C343 C 0.79851 0.51146 0.35019 0.0
C344 C 0.80705 0.49555 0.3432 0.0
C345 C 0.80099 0.48077 0.36725 0.0
C346 C 0.78727 0.48204 0.39927 0.0
H347 H 0.78949 0.49699 0.54856 0.0
H348 H 0.79205 0.48113 0.50236 0.0
H349 H 0.79721 0.50341 0.49072 0.0
H350 H 0.7786 0.52514 0.38812 0.0
H351 H 0.80282 0.52307 0.33215 0.0
H352 H 0.99379 0.30253 0.85579 0.0
H353 H 0.99608 0.27928 0.91446 0.0
H354 H 0.94059 0.27975 0.93249 0.0
H355 H 0.93816 0.30305 0.87439 0.0
H356 H 0.95964 0.28239 0.01779 0.0
H357 H 0.98262 0.22767 0.90575 0.0
H358 H 0.99477 0.24747 0.90101 0.0
H359 H 0.9727 0.24683 0.881 0.0
C360 C 0.98204 0.29749 0.87166 0.0
C361 C 0.96579 0.30466 0.86048 0.0
C362 C 0.98338 0.28419 0.90509 0.0
C363 C 0.96849 0.27777 0.92757 0.0
C364 C 0.95223 0.28455 0.91549 0.0
H365 H 0.93848 0.20396 0.13735 0.0
H366 H 0.94108 0.22807 0.08194 0.0
C367 C 0.95088 0.29784 0.88216 0.0
C368 C 0.96982 0.26469 0.96572 0.0
H369 H 0.98062 0.2226 0.98808 0.0
C370 C 0.96426 0.26932 0.01136 0.0
C371 C 0.97602 0.24774 0.95722 0.0
C372 C 0.98176 0.24201 0.90856 0.0
C373 C 0.96452 0.25735 0.04873 0.0
C374 C 0.97024 0.24026 0.03994 0.0
C375 C 0.97626 0.23575 0.99463 0.0
C376 C 0.969 0.22654 0.07639 0.0
C377 C 0.95868 0.26311 0.09727 0.0
C378 C 0.98386 0.21764 0.0915 0.0
C379 C 0.98242 0.2038 0.12322 0.0
C380 C 0.96606 0.19851 0.13984 0.0
C381 C 0.95127 0.20772 0.12534 0.0
C382 C 0.95273 0.22157 0.09383 0.0
H383 H 0.9596 0.27741 0.10138 0.0
H384 H 0.94493 0.25935 0.10246 0.0
H385 H 0.96652 0.25686 0.12549 0.0
H386 H 0.99652 0.22126 0.07819 0.0
H387 H 0.99405 0.19692 0.13355 0.0
H388 H 0.30314 -0.00068 0.64742 0.0
H389 H 0.27892 0.00205 0.59181 0.0
H390 H 0.26968 0.94705 0.60144 0.0
H391 H 0.29363 0.94421 0.6572 0.0
H392 H 0.27761 0.9855 0.50423 0.0
H393 H 0.22103 0.96709 0.61378 0.0
H394 H 0.24154 0.97339 0.63932 0.0
H395 H 0.23837 0.95168 0.61771 0.0
C396 C 0.29571 0.98787 0.63849 0.0
C397 C 0.30032 0.97153 0.65667 0.0
C398 C 0.28192 0.98945 0.60661 0.0
C399 C 0.27242 0.97479 0.59288 0.0
C400 C 0.27663 0.95859 0.61226 0.0
H401 H 0.20116 0.93946 0.3852 0.0
H402 H 0.22278 0.94404 0.44703 0.0
C403 C 0.2904 0.95698 0.64397 0.0
C404 C 0.25914 0.97598 0.5552 0.0
H405 H 0.21735 0.96512 0.52939 0.0
C406 C 0.26434 0.98134 0.50981 0.0
C407 C 0.24186 0.97055 0.56269 0.0
C408 C 0.23531 0.96552 0.61114 0.0
C409 C 0.25293 0.98054 0.47112 0.0
C410 C 0.23589 0.97441 0.4783 0.0
C411 C 0.2305 0.96969 0.52401 0.0
C412 C 0.22366 0.97188 0.43856 0.0
C413 C 0.25941 0.98549 0.42252 0.0
C414 C 0.21717 0.98604 0.41293 0.0
C415 C 0.2048 0.98347 0.37735 0.0
C416 C 0.19869 0.9667 0.36711 0.0
C417 C 0.20557 0.95254 0.39216 0.0
C418 C 0.21789 0.95512 0.42762 0.0
H419 H 0.27373 0.98698 0.42161 0.0
H420 H 0.25556 0.97559 0.39594 0.0
H421 H 0.2535 0.99801 0.41191 0.0
H422 H 0.22132 -0.00091 0.42129 0.0
H423 H 0.19969 0.99465 0.35888 0.0
H424 H 0.57071 0.20521 0.85739 0.0
H425 H 0.56785 0.2298 0.91132 0.0
H426 H 0.51219 0.22633 0.90195 0.0
H427 H 0.5149 0.20155 0.84817 0.0
H428 H 0.55069 0.2621 0.89911 0.0
H429 H 0.52228 0.2231 0.04574 0.0
H430 H 0.53295 0.21328 0.9955 0.0
H431 H 0.5114 0.22177 0.98953 0.0
C432 C 0.55784 0.20973 0.86646 0.0
C433 C 0.54303 0.20133 0.84876 0.0
C434 C 0.55624 0.22378 0.8973 0.0
C435 C 0.53982 0.22966 0.91121 0.0
C436 C 0.52498 0.22176 0.89229 0.0
H437 H 0.51392 0.31125 0.11511 0.0
H438 H 0.51197 0.28731 0.05822 0.0
C439 C 0.52656 0.20769 0.86132 0.0
C440 C 0.5384 0.2439 0.94611 0.0
H441 H 0.52615 0.25297 0.05979 0.0
C442 C 0.54525 0.26014 0.93417 0.0
C443 C 0.53124 0.24127 0.99172 0.0
C444 C 0.52415 0.2239 0.00676 0.0
C445 C 0.5453 0.27384 0.96683 0.0
C446 C 0.53861 0.27108 0.01289 0.0
C447 C 0.53132 0.25498 0.02447 0.0
C448 C 0.53971 0.28461 0.04991 0.0
C449 C 0.5525 0.29116 0.95174 0.0
C450 C 0.55594 0.29053 0.06526 0.0
C451 C 0.5571 0.30413 0.09767 0.0
C452 C 0.54204 0.31202 0.11556 0.0
C453 C 0.52576 0.30549 0.10189 0.0
C454 C 0.52462 0.29185 0.06935 0.0
H455 H 0.5527 0.29252 0.91254 0.0
H456 H 0.54479 0.30197 0.96695 0.0
H457 H 0.56602 0.2924 0.96471 0.0
H458 H 0.56773 0.28483 0.05143 0.0
H459 H 0.56983 0.30874 0.10774 0.0
H460 H 0.30881 0.51689 0.37288 0.0
H461 H 0.28444 0.51444 0.428 0.0
H462 H 0.28462 0.56987 0.44757 0.0
H463 H 0.30909 0.57245 0.39314 0.0
H464 H 0.28449 0.55114 0.53238 0.0
H465 H 0.23347 0.5276 0.4091 0.0
H466 H 0.25319 0.51524 0.40891 0.0
H467 H 0.25339 0.53729 0.38852 0.0
C468 C 0.30352 0.52859 0.38843 0.0
C469 C 0.31089 0.54487 0.37862 0.0
C470 C 0.28957 0.52716 0.41981 0.0
C471 C 0.28266 0.54199 0.44153 0.0
C472 C 0.28977 0.55827 0.43111 0.0
H473 H 0.20195 0.56933 0.63653 0.0
H474 H 0.22773 0.56801 0.58652 0.0
C475 C 0.30373 0.55971 0.39989 0.0
C476 C 0.26854 0.54057 0.4768 0.0
H477 H 0.22619 0.52885 0.4904 0.0
C478 C 0.27174 0.54625 0.52325 0.0
C479 C 0.25198 0.53409 0.46478 0.0
C480 C 0.24768 0.52833 0.41505 0.0
C481 C 0.25877 0.54571 0.55805 0.0
C482 C 0.24212 0.53954 0.54581 0.0
C483 C 0.23901 0.53353 0.49963 0.0
C484 C 0.22746 0.54008 0.57956 0.0
C485 C 0.26301 0.55165 0.60765 0.0
C486 C 0.21876 0.52481 0.59219 0.0
C487 C 0.20398 0.52551 0.62075 0.0
C488 C 0.19755 0.54155 0.63671 0.0
C489 C 0.20658 0.55678 0.62496 0.0
C490 C 0.22137 0.55604 0.59654 0.0
H491 H 0.27718 0.5513 0.61453 0.0
H492 H 0.25856 0.56522 0.61226 0.0
H493 H 0.25635 0.5435 0.63447 0.0
H494 H 0.22324 0.51237 0.57922 0.0
H495 H 0.1973 0.51355 0.62905 0.0
H496 H 0.06327 0.59473 0.15916 0.0
H497 H 0.08187 0.58122 0.0991 0.0
H498 H 0.07583 0.62601 0.0094 0.0
H499 H 0.05729 0.6396 0.06882 0.0
H500 H 0.07332 0.57454 -0.00042 0.0
H501 H 0.12932 0.61893 0.02201 0.0
H502 H 0.11264 0.61646 0.06646 0.0
H503 H 0.10877 0.62957 0.01494 0.0
C504 C 0.06589 0.60169 0.12662 0.0
C505 C 0.05886 0.61828 0.11886 0.0
C506 C 0.07652 0.59396 0.09244 0.0
C507 C 0.08042 0.60277 0.05031 0.0
C508 C 0.0732 0.61916 0.04213 0.0
H509 H 0.13174 0.59012 0.78634 0.0
H510 H 0.1182 0.59988 0.8598 0.0
C511 C 0.06252 0.62685 0.07604 0.0
C512 C 0.09172 0.59479 0.01409 0.0
H513 H 0.12936 0.6011 0.95302 0.0
C514 C 0.0857 0.58015 0.98973 0.0
C515 C 0.10782 0.60221 0.00153 0.0
C516 C 0.11514 0.61758 0.02782 0.0
C517 C 0.09499 0.5732 0.95139 0.0
C518 C 0.1109 0.58092 0.93793 0.0
C519 C 0.11717 0.59522 0.96341 0.0
C520 C 0.12054 0.57515 0.89537 0.0
C521 C 0.08726 0.55823 0.92419 0.0
C522 C 0.12686 0.55816 0.89159 0.0
C523 C 0.13455 0.55249 0.84945 0.0
C524 C 0.13617 0.56379 0.81058 0.0
C525 C 0.13064 0.58106 0.81548 0.0
C526 C 0.1229 0.58667 0.85747 0.0
H527 H 0.07332 0.55634 0.93258 0.0
H528 H 0.08861 0.56026 0.88541 0.0
H529 H 0.09423 0.54614 0.93365 0.0
H530 H 0.12553 0.54918 0.92085 0.0
H531 H 0.1388 0.53914 0.84695 0.0
H532 H 0.91328 0.14458 0.30342 0.0
H533 H 0.90156 0.13211 0.37617 0.0
H534 H 0.95252 0.13228 0.43859 0.0
H535 H 0.96449 0.14472 0.36571 0.0
H536 H 0.91738 0.09822 0.41009 0.0
H537 H 0.91684 0.15147 0.54359 0.0
H538 H 0.91522 0.1557 0.48073 0.0
H539 H 0.9355 0.14906 0.50568 0.0
C540 C 0.92198 0.14232 0.33288 0.0
C541 C 0.93986 0.1455 0.32859 0.0
C542 C 0.91524 0.13521 0.37442 0.0
C543 C 0.92619 0.13134 0.41257 0.0
C544 C 0.94387 0.13536 0.40956 0.0
H545 H 0.90459 0.0756 0.67549 0.0
H546 H 0.91808 0.09343 0.61381 0.0
C547 C 0.95067 0.14242 0.36786 0.0
C548 C 0.91942 0.12121 0.45287 0.0
H549 H 0.9075 0.12386 0.5691 0.0
C550 C 0.91522 0.10379 0.44491 0.0
C551 C 0.91691 0.12853 0.49819 0.0
C552 C 0.92126 0.14724 0.50794 0.0
C553 C 0.9084 0.09344 0.48112 0.0
C554 C 0.90524 0.10088 0.52614 0.0
C555 C 0.90983 0.11824 0.53444 0.0
C556 C 0.89678 0.09088 0.56446 0.0
C557 C 0.90483 0.07456 0.47092 0.0
C558 C 0.8802 0.08389 0.55749 0.0
C559 C 0.87255 0.07361 0.59232 0.0
C560 C 0.88124 0.07031 0.63515 0.0
C561 C 0.8976 0.07784 0.64279 0.0
C562 C 0.90531 0.08805 0.60767 0.0
H563 H 0.91263 0.06979 0.44049 0.0
H564 H 0.90768 0.06635 0.50227 0.0
H565 H 0.89094 0.07295 0.4617 0.0
H566 H 0.87322 0.08627 0.52483 0.0
H567 H 0.85984 0.06819 0.58555 0.0
H568 H 0.43258 0.86597 0.11361 0.0
H569 H 0.4122 0.87823 0.05655 0.0
H570 H 0.4471 0.92085 0.03109 0.0
H571 H 0.46769 0.90867 0.08816 0.0
H572 H 0.39655 0.91254 0.05774 0.0
H573 H 0.4367 0.89959 0.8978 0.0
H574 H 0.44046 0.88888 0.95375 0.0
H575 H 0.44736 0.91088 0.94532 0.0
C576 C 0.43599 0.87793 0.09582 0.0
C577 C 0.45182 0.88631 0.10525 0.0
C578 C 0.42428 0.88493 0.06338 0.0
C579 C 0.42823 0.90034 0.03951 0.0
C580 C 0.44394 0.90882 0.04891 0.0
H581 H 0.36298 0.96629 0.86706 0.0
H582 H 0.3796 0.95377 0.93242 0.0
C583 C 0.45565 0.90187 0.08155 0.0
C584 C 0.41589 0.90743 0.00451 0.0
H585 H 0.41082 0.91539 0.88649 0.0
C586 C 0.39963 0.91319 0.02027 0.0
C587 C 0.41994 0.90803 0.95572 0.0
C588 C 0.437 0.90141 0.93685 0.0
C589 C 0.38732 0.91977 0.98836 0.0
C590 C 0.3915 0.92064 0.93968 0.0
C591 C 0.4077 0.91472 0.92393 0.0
C592 C 0.37936 0.92771 0.9041 0.0
C593 C 0.36989 0.9255 0.00673 0.0
C594 C 0.3735 0.91713 0.86703 0.0
C595 C 0.36402 0.92422 0.82965 0.0
C596 C 0.36039 0.94208 0.82847 0.0
C597 C 0.36553 0.95249 0.86693 0.0
C598 C 0.37499 0.94536 0.90439 0.0
H599 H 0.36731 0.92045 0.04292 0.0
H600 H 0.36952 0.93987 0.00821 0.0
H601 H 0.35936 0.92112 0.98273 0.0
H602 H 0.37677 0.90348 0.86624 0.0
H603 H 0.36023 0.91583 0.80068 0.0
H604 H 0.54223 0.36776 0.33927 0.0
H605 H 0.55348 0.38161 0.41109 0.0
H606 H 0.60466 0.38266 0.34999 0.0
H607 H 0.59363 0.36883 0.27816 0.0
H608 H 0.58468 0.3724 0.4744 0.0
H609 H 0.58874 0.43486 0.37646 0.0
H610 H 0.57523 0.41711 0.35697 0.0
H611 H 0.59824 0.41628 0.34795 0.0
C612 C 0.55595 0.37065 0.34141 0.0
C613 C 0.56701 0.36736 0.30277 0.0
C614 C 0.56233 0.37854 0.38247 0.0
C615 C 0.57981 0.3833 0.38538 0.0
C616 C 0.59107 0.37918 0.34807 0.0
H617 H 0.64298 0.44714 0.56447 0.0
H618 H 0.6304 0.42893 0.50275 0.0
C619 C 0.58474 0.37125 0.30712 0.0
C620 C 0.58608 0.39378 0.42567 0.0
H621 H 0.60031 0.43434 0.45382 0.0
C622 C 0.58804 0.38596 0.47018 0.0
C623 C 0.59035 0.41145 0.41975 0.0
C624 C 0.58795 0.42054 0.37285 0.0
C625 C 0.59472 0.3953 0.50885 0.0
C626 C 0.59918 0.41296 0.50277 0.0
C627 C 0.59691 0.42079 0.45834 0.0
C628 C 0.6068 0.4235 0.54139 0.0
C629 C 0.59747 0.38606 0.55534 0.0
C630 C 0.59762 0.42661 0.58351 0.0
C631 C 0.60482 0.43699 0.61908 0.0
C632 C 0.62124 0.44457 0.61286 0.0
C633 C 0.63031 0.44152 0.57044 0.0
C634 C 0.62315 0.4311 0.5351 0.0
H635 H 0.59744 0.37175 0.55089 0.0
H636 H 0.60993 0.39 0.57183 0.0
H637 H 0.58684 0.38953 0.58006 0.0
H638 H 0.58482 0.42119 0.58863 0.0
H639 H 0.59747 0.43917 0.65124 0.0
H640 H 0.15647 0.95456 0.12743 0.0
H641 H 0.14448 0.94074 0.05654 0.0
H642 H 0.13019 0.89604 0.13955 0.0
H643 H 0.14264 0.90942 0.20994 0.0
H644 H 0.14098 0.88677 0.05216 0.0
H645 H 0.09249 0.93983 0.04023 0.0
H646 H 0.11459 0.94689 0.03578 0.0
H647 H 0.10685 0.93749 0.09016 0.0
C648 C 0.15107 0.94165 0.13036 0.0
C649 C 0.15026 0.9332 0.17446 0.0
C650 C 0.14411 0.93383 0.08991 0.0
C651 C 0.13599 0.91758 0.09311 0.0
C652 C 0.13627 0.90864 0.13636 0.0
H653 H 0.05135 0.87715 0.93067 0.0
H654 H 0.07101 0.88975 0.98914 0.0
C655 C 0.14339 0.91634 0.17663 0.0
C656 C 0.12608 0.91034 0.05273 0.0
H657 H 0.09096 0.91797 0.98229 0.0
C658 C 0.1301 0.89361 0.03661 0.0
C659 C 0.1117 0.9192 0.03316 0.0
C660 C 0.106 0.93677 0.05093 0.0
C661 C 0.11999 0.88537 0.0019 0.0
C662 C 0.10576 0.89434 0.98195 0.0
C663 C 0.10193 0.91118 0.9975 0.0
C664 C 0.09409 0.88626 0.94656 0.0
C665 C 0.12425 0.86693 0.98842 0.0
C666 C 0.10053 0.88019 0.9031 0.0
C667 C 0.08934 0.87278 0.86985 0.0
C668 C 0.07147 0.8716 0.87916 0.0
C669 C 0.06504 0.87788 0.92246 0.0
C670 C 0.07626 0.88509 0.95587 0.0
H671 H 0.13242 0.8605 0.01563 0.0
H672 H 0.11227 0.85916 0.98343 0.0
H673 H 0.13156 0.86691 0.95456 0.0
H674 H 0.11416 0.88136 0.89465 0.0
H675 H 0.09466 0.86823 0.83658 0.0
H676 H 0.59479 0.13968 0.6897 0.0
H677 H 0.6048 0.12395 0.61972 0.0
H678 H 0.55423 0.12901 0.55642 0.0
H679 H 0.54402 0.14477 0.62635 0.0
H680 H 0.58681 0.09182 0.59218 0.0
H681 H 0.58981 0.14083 0.4476 0.0
H682 H 0.59121 0.14671 0.50949 0.0
H683 H 0.57074 0.14067 0.48441 0.0
C684 C 0.58587 0.13781 0.66052 0.0
C685 C 0.56856 0.14337 0.6638 0.0
C686 C 0.59162 0.1288 0.6206 0.0
C687 C 0.58025 0.12537 0.58302 0.0
C688 C 0.56324 0.13171 0.58491 0.0
H689 H 0.59392 0.06194 0.32886 0.0
H690 H 0.58198 0.08107 0.39006 0.0
C691 C 0.55743 0.14068 0.62496 0.0
C692 C 0.58567 0.11357 0.54453 0.0
H693 H 0.59541 0.11171 0.42668 0.0
C694 C 0.58872 0.09615 0.55597 0.0
C695 C 0.58785 0.11925 0.49736 0.0
C696 C 0.58485 0.1379 0.48369 0.0
C697 C 0.59401 0.08422 0.52145 0.0
C698 C 0.59675 0.08998 0.47446 0.0
C699 C 0.59335 0.10735 0.46278 0.0
C700 C 0.60382 0.07831 0.43753 0.0
C701 C 0.59642 0.06551 0.53556 0.0
C702 C 0.62009 0.07056 0.44382 0.0
C703 C 0.62687 0.05957 0.40923 0.0
C704 C 0.6176 0.05625 0.3673 0.0
C705 C 0.60135 0.06416 0.36084 0.0
C706 C 0.59453 0.07513 0.39567 0.0
H707 H 0.58884 0.06227 0.56785 0.0
H708 H 0.59246 0.05661 0.50658 0.0
H709 H 0.6103 0.06316 0.54355 0.0
H710 H 0.62765 0.07315 0.47538 0.0
H711 H 0.63949 0.05383 0.41519 0.0
H712 H 0.36427 0.54387 0.1471 0.0
H713 H 0.37823 0.55514 0.0755 0.0
H714 H 0.37803 0.60653 0.13532 0.0
H715 H 0.36409 0.59549 0.20696 0.0
H716 H 0.36943 0.58648 0.01061 0.0
H717 H 0.4307 0.5904 0.11412 0.0
H718 H 0.41275 0.57685 0.13188 0.0
H719 H 0.41176 0.59985 0.14092 0.0
C720 C 0.36685 0.55764 0.14466 0.0
C721 C 0.36327 0.56875 0.183 0.0
C722 C 0.37481 0.56403 0.10371 0.0
C723 C 0.3793 0.58158 0.1006 0.0
C724 C 0.37474 0.5929 0.1374 0.0
H725 H 0.44591 0.644 0.92729 0.0
H726 H 0.42656 0.63182 0.98694 0.0
C727 C 0.36676 0.58655 0.17826 0.0
C728 C 0.39023 0.58781 0.06121 0.0
H729 H 0.43118 0.60175 0.03662 0.0
C730 C 0.38295 0.58977 0.01601 0.0
C731 C 0.40784 0.59198 0.06867 0.0
C732 C 0.41635 0.58958 0.11638 0.0
C733 C 0.39279 0.59635 0.97815 0.0
C734 C 0.41039 0.60071 0.98579 0.0
C735 C 0.41768 0.59845 0.03091 0.0
C736 C 0.42147 0.60818 0.9481 0.0
C737 C 0.38415 0.59908 0.9308 0.0
C738 C 0.42511 0.59886 0.90654 0.0
C739 C 0.43616 0.60583 0.87216 0.0
C740 C 0.44387 0.62215 0.87906 0.0
C741 C 0.44022 0.63139 0.92085 0.0
C742 C 0.42914 0.62446 0.95499 0.0
H743 H 0.3698 0.59914 0.93391 0.0
H744 H 0.38836 0.61149 0.91456 0.0
H745 H 0.38786 0.5884 0.90652 0.0
H746 H 0.41963 0.5861 0.90102 0.0
H747 H 0.43878 0.59836 0.84044 0.0
H748 H 0.91537 0.36265 0.69806 0.0
H749 H 0.90419 0.37898 0.63059 0.0
H750 H 0.95473 0.37804 0.56553 0.0
H751 H 0.9661 0.36164 0.63288 0.0
H752 H 0.91875 0.41216 0.60782 0.0
H753 H 0.92055 0.36648 0.45538 0.0
H754 H 0.9203 0.35922 0.51627 0.0
H755 H 0.93989 0.3676 0.4908 0.0
C756 C 0.92405 0.36555 0.66896 0.0
C757 C 0.94167 0.36096 0.67104 0.0
C758 C 0.91763 0.37491 0.63047 0.0
C759 C 0.92864 0.37967 0.59317 0.0
C760 C 0.94599 0.37429 0.59377 0.0
H761 H 0.91514 0.46652 0.39995 0.0
H762 H 0.92658 0.44553 0.45715 0.0
C763 C 0.95246 0.36496 0.63236 0.0
C764 C 0.92242 0.39184 0.55648 0.0
H765 H 0.91429 0.39592 0.43812 0.0
C766 C 0.91774 0.40862 0.57071 0.0
C767 C 0.92113 0.38711 0.50824 0.0
C768 C 0.9256 0.36909 0.49156 0.0
C769 C 0.91186 0.42089 0.53784 0.0
C770 C 0.91078 0.41625 0.48952 0.0
C771 C 0.91532 0.39943 0.47524 0.0
C772 C 0.9043 0.42858 0.45366 0.0
C773 C 0.90659 0.43864 0.55503 0.0
C774 C 0.88811 0.42581 0.43254 0.0
C775 C 0.88151 0.43777 0.40016 0.0
C776 C 0.89107 0.45266 0.38801 0.0
C777 C 0.90745 0.45523 0.40866 0.0
C778 C 0.91399 0.44328 0.44133 0.0
H779 H 0.90537 0.43917 0.59424 0.0
H780 H 0.9165 0.44825 0.544 0.0
H781 H 0.89404 0.44254 0.53901 0.0
H782 H 0.88047 0.41452 0.4417 0.0
H783 H 0.8689 0.43535 0.38472 0.0
H784 H 0.9671 0.37209 0.96746 0.0
H785 H 0.94764 0.38882 0.01822 0.0
H786 H 0.91445 0.39911 0.89856 0.0
H787 H 0.93398 0.38265 0.8473 0.0
H788 H 0.92143 0.42823 0.94973 0.0
H789 H 0.90019 0.37552 0.06927 0.0
H790 H 0.92335 0.37713 0.06576 0.0
H791 H 0.9111 0.3714 0.01378 0.0
C792 C 0.95562 0.37783 0.95195 0.0
C793 C 0.95208 0.37602 0.90337 0.0
C794 C 0.94444 0.38727 0.9811 0.0
C795 C 0.92944 0.39492 0.96231 0.0
C796 C 0.9259 0.39319 0.91381 0.0
H797 H 0.8564 0.44366 0.16129 0.0
H798 H 0.86714 0.42621 0.09469 0.0
C799 C 0.93709 0.38379 0.88459 0.0
C800 C 0.91796 0.40547 0.99292 0.0
H801 H 0.89555 0.40461 0.09712 0.0
C802 C 0.91556 0.42302 0.9816 0.0
C803 C 0.91 0.39857 0.03393 0.0
C804 C 0.91112 0.37957 0.04618 0.0
C805 C 0.90622 0.43407 0.01166 0.0
C806 C 0.89939 0.42745 0.0545 0.0
C807 C 0.90094 0.4097 0.06446 0.0
C808 C 0.8921 0.43894 0.09147 0.0
C809 C 0.90399 0.4528 0.99761 0.0
C810 C 0.90256 0.45185 0.11153 0.0
C811 C 0.89651 0.46178 0.1493 0.0
C812 C 0.87989 0.45892 0.16815 0.0
C813 C 0.86924 0.44621 0.14742 0.0
C814 C 0.87535 0.43623 0.10949 0.0
H815 H 0.90454 0.45438 0.9585 0.0
H816 H 0.89149 0.4581 0.01066 0.0
H817 H 0.91467 0.46057 0.01312 0.0
H818 H 0.91567 0.45389 0.09896 0.0
H819 H 0.90507 0.47142 0.16445 0.0
H820 H 0.05334 0.85848 0.65024 0.0
H821 H 0.07017 0.86984 0.58298 0.0
H822 H 0.07036 0.92052 0.64732 0.0
H823 H 0.05365 0.90948 0.71392 0.0
H824 H 0.0607 0.90124 0.5222 0.0
H825 H 0.12273 0.90714 0.62055 0.0
H826 H 0.10557 0.89264 0.63868 0.0
H827 H 0.10404 0.91542 0.65112 0.0
C828 C 0.05696 0.87204 0.64992 0.0
C829 C 0.05221 0.88307 0.68746 0.0
C830 C 0.06654 0.87848 0.61158 0.0
C831 C 0.07162 0.89593 0.61071 0.0
C832 C 0.06671 0.90695 0.64776 0.0
H833 H 0.1253 0.97279 0.45388 0.0
H834 H 0.10963 0.95458 0.51031 0.0
C835 C 0.0571 0.90061 0.68572 0.0
C836 C 0.08197 0.90302 0.57123 0.0
H837 H 0.12054 0.92282 0.54806 0.0
C838 C 0.0739 0.9057 0.52734 0.0
C839 C 0.09911 0.90883 0.57845 0.0
C840 C 0.10848 0.90576 0.62461 0.0
C841 C 0.08228 0.91493 0.49108 0.0
C842 C 0.09922 0.92133 0.49898 0.0
C843 C 0.10751 0.91799 0.54227 0.0
C844 C 0.1083 0.93229 0.46387 0.0
C845 C 0.07264 0.91852 0.44561 0.0
C846 C 0.11279 0.92574 0.41916 0.0
C847 C 0.12168 0.93614 0.38674 0.0
C848 C 0.12636 0.95323 0.39869 0.0
C849 C 0.12187 0.95971 0.44356 0.0
C850 C 0.11294 0.94932 0.47586 0.0
H851 H 0.05855 0.9159 0.44909 0.0
H852 H 0.07445 0.9322 0.43444 0.0
H853 H 0.07783 0.91006 0.41716 0.0
H854 H 0.10961 0.91253 0.40958 0.0
H855 H 0.12506 0.93072 0.35256 0.0
H856 H 0.65111 0.06485 0.17163 0.0
H857 H 0.63922 0.08411 0.11069 0.0
H858 H 0.60371 0.04395 0.06743 0.0
H859 H 0.61573 0.02456 0.12698 0.0
H860 H 0.6172 0.06144 0.99188 0.0
H861 H 0.59221 0.10719 0.1281 0.0
H862 H 0.6152 0.10362 0.12922 0.0
H863 H 0.60069 0.08612 0.14309 0.0
C864 C 0.64094 0.06005 0.14866 0.0
C865 C 0.63423 0.04324 0.15451 0.0
C866 C 0.63408 0.07111 0.11412 0.0
C867 C 0.62033 0.06557 0.08528 0.0
C868 C 0.61425 0.04852 0.0895 0.0
H869 H 0.53773 0.1194 0.94828 0.0
H870 H 0.55732 0.10327 6e-05 0.0
C871 C 0.62114 0.03746 0.12369 0.0
C872 C 0.61154 0.07758 0.05214 0.0
H873 H 0.58616 0.11379 0.04847 0.0
C874 C 0.61054 0.07299 0.00409 0.0
C875 C 0.60267 0.09249 0.06842 0.0
C876 C 0.60257 0.09763 0.12005 0.0
C877 C 0.60059 0.08267 0.97201 0.0
C878 C 0.59172 0.09758 0.9883 0.0
C879 C 0.59305 0.1024 0.03611 0.0
C880 C 0.58012 0.10773 0.95706 0.0
C881 C 0.59903 0.07639 0.92151 0.0
C882 C 0.58649 0.11579 0.91604 0.0
C883 C 0.57529 0.12489 0.88615 0.0
C884 C 0.55756 0.12628 0.8971 0.0
C885 C 0.55131 0.11854 0.9388 0.0
C886 C 0.56249 0.10935 0.96846 0.0
H887 H 0.60314 0.06266 0.91775 0.0
H888 H 0.5855 0.07762 0.90858 0.0
H889 H 0.60747 0.0844 0.89841 0.0
H890 H 0.60012 0.11504 0.90714 0.0
H891 H 0.58055 0.13085 0.85451 0.0
H892 H 0.37758 0.58136 0.37602 0.0
H893 H 0.39276 0.60212 0.42655 0.0
H894 H 0.41978 0.56013 0.4952 0.0
H895 H 0.4043 0.53924 0.44571 0.0
H896 H 0.40669 0.58263 0.55824 0.0
H897 H 0.44231 0.6187 0.4189 0.0
H898 H 0.4193 0.6182 0.40984 0.0
H899 H 0.43154 0.59838 0.40743 0.0
C900 C 0.38684 0.57655 0.40167 0.0
C901 C 0.38977 0.55865 0.40684 0.0
C902 C 0.39559 0.58845 0.4303 0.0
C903 C 0.40762 0.5827 0.46408 0.0
C904 C 0.4106 0.56485 0.46919 0.0
H905 H 0.48512 0.63765 0.62221 0.0
H906 H 0.46832 0.62239 0.56198 0.0
C907 C 0.40174 0.55293 0.44089 0.0
C908 C 0.41656 0.59518 0.49569 0.0
H909 H 0.4434 0.63038 0.49678 0.0
C910 C 0.41472 0.59307 0.54481 0.0
C911 C 0.42714 0.6087 0.47804 0.0
C912 C 0.43036 0.61107 0.42569 0.0
C913 C 0.42324 0.60403 0.57686 0.0
C914 C 0.43349 0.61782 0.55927 0.0
C915 C 0.43531 0.61997 0.51013 0.0
C916 C 0.44338 0.6293 0.59152 0.0
C917 C 0.42165 0.60031 0.62922 0.0
C918 C 0.43491 0.63895 0.62677 0.0
C919 C 0.44449 0.64755 0.66162 0.0
C920 C 0.4627 0.64685 0.6613 0.0
C921 C 0.47112 0.63838 0.62365 0.0
C922 C 0.46153 0.62964 0.58915 0.0
H923 H 0.41699 0.58691 0.63602 0.0
H924 H 0.43428 0.60205 0.64744 0.0
H925 H 0.41219 0.60942 0.64519 0.0
H926 H 0.4209 0.63925 0.62845 0.0
H927 H 0.43762 0.65414 0.68984 0.0
H928 H 0.84965 0.07244 0.82642 0.0
H929 H 0.86458 0.08938 0.88733 0.0
H930 H 0.88779 0.04267 0.94215 0.0
H931 H 0.87253 0.02561 0.88255 0.0
H932 H 0.87933 0.06503 0.01272 0.0
H933 H 0.91573 0.09914 0.87079 0.0
H934 H 0.89266 0.10177 0.86731 0.0
H935 H 0.9021 0.08067 0.85895 0.0
C936 C 0.85767 0.06574 0.85202 0.0
C937 C 0.8601 0.04771 0.84923 0.0
C938 C 0.86629 0.07546 0.88657 0.0
C939 C 0.87768 0.06733 0.91834 0.0
C940 C 0.87917 0.04922 0.9177 0.0
H941 H 0.96804 0.11005 0.05312 0.0
H942 H 0.94686 0.09482 0.00402 0.0
C943 C 0.87042 0.03948 0.88356 0.0
C944 C 0.88899 0.07766 0.95005 0.0
H945 H 0.92143 0.10773 0.94939 0.0
C946 C 0.88849 0.07443 -0.00102 0.0
C947 C 0.90115 0.08968 0.93184 0.0
C948 C 0.90312 0.09294 0.87934 0.0
C949 C 0.89989 0.08284 0.03023 0.0
C950 C 0.91181 0.0951 0.01208 0.0
C951 C 0.9122 0.09842 0.96322 0.0
C952 C 0.92451 0.10416 0.04272 0.0
C953 C 0.89947 0.07804 0.08206 0.0
C954 C 0.91897 0.1146 0.08053 0.0
C955 C 0.93106 0.1232 0.10892 0.0
C956 C 0.9489 0.12172 0.09955 0.0
C957 C 0.95439 0.11146 0.06125 0.0
C958 C 0.94231 0.10275 0.03317 0.0
H959 H 0.89305 0.06533 0.08791 0.0
H960 H 0.91276 0.07745 0.09707 0.0
H961 H 0.89205 0.088 0.10186 0.0
H962 H 0.90529 0.11624 0.08782 0.0
H963 H 0.9264 0.13114 0.13792 0.0
H964 H 0.37033 0.9317 0.64067 0.0
H965 H 0.38433 0.91171 0.58534 0.0
H966 H 0.39092 0.95334 0.48501 0.0
H967 H 0.37662 0.97335 0.53963 0.0
H968 H 0.37867 0.92311 0.44399 0.0
H969 H 0.43613 0.90993 0.55757 0.0
H970 H 0.41546 0.90562 0.58439 0.0
H971 H 0.42131 0.92748 0.56943 0.0
C972 C 0.37476 0.93661 0.60682 0.0
C973 C 0.37246 0.95414 0.5946 0.0
C974 C 0.38283 0.92517 0.57538 0.0
C975 C 0.3889 0.93111 0.53145 0.0
C976 C 0.38637 0.94852 0.51886 0.0
H977 H 0.45187 0.90614 0.30051 0.0
H978 H 0.43339 0.91755 0.36306 0.0
C979 C 0.37822 0.95994 0.55013 0.0
C980 C 0.39792 0.9193 0.49827 0.0
H981 H 0.43507 0.89583 0.48356 0.0
C982 C 0.39091 0.91699 0.45282 0.0
C983 C 0.41386 0.91129 0.51001 0.0
C984 C 0.42225 0.91376 0.55783 0.0
C985 C 0.39969 0.90734 0.41828 0.0
C986 C 0.41588 0.89988 0.4295 0.0
C987 C 0.42256 0.90151 0.47544 0.0
C988 C 0.42703 0.89246 0.39225 0.0
C989 C 0.39194 0.90562 0.36945 0.0
C990 C 0.4297 0.87453 0.38855 0.0
C991 C 0.44026 0.86787 0.35245 0.0
C992 C 0.4484 0.87912 0.32014 0.0
C993 C 0.44583 0.89708 0.32475 0.0
C994 C 0.43523 0.90366 0.36037 0.0
H995 H 0.37792 0.90889 0.36921 0.0
H996 H 0.39872 0.91458 0.3449 0.0
H997 H 0.39365 0.89224 0.35576 0.0
H998 H 0.4235 0.86574 0.41319 0.0
H999 H 0.44204 0.85398 0.34981 0.0
H1000 H 0.56746 0.42042 0.15032 0.0
H1001 H 0.58742 0.43372 0.09337 0.0
H1002 H 0.58817 0.38636 0.01223 0.0
H1003 H 0.56812 0.37305 0.06836 0.0
H1004 H 0.62114 0.42296 0.06361 0.0
H1005 H 0.57388 0.4234 0.91524 0.0
H1006 H 0.56747 0.41999 0.97605 0.0
H1007 H 0.57684 0.40256 0.94237 0.0
C1008 C 0.57185 0.41285 0.1203 0.0
C1009 C 0.56606 0.39574 0.1136 0.0
C1010 C 0.58329 0.42045 0.08794 0.0
C1011 C 0.58905 0.41108 0.04834 0.0
C1012 C 0.58361 0.3939 0.04214 0.0
H1013 H 0.64931 0.43539 0.79904 0.0
H1014 H 0.63527 0.42032 0.86477 0.0
C1015 C 0.57217 0.38631 0.07433 0.0
C1016 C 0.60058 0.4193 0.01299 0.0
H1017 H 0.60282 0.43082 0.8965 0.0
C1018 C 0.61716 0.42475 0.02707 0.0
C1019 C 0.59529 0.42161 0.96545 0.0
C1020 C 0.57735 0.41674 0.94883 0.0
C1021 C 0.62875 0.43217 0.99447 0.0
C1022 C 0.62348 0.43436 0.94687 0.0
C1023 C 0.60688 0.42896 0.93295 0.0
C1024 C 0.63462 0.44273 0.91083 0.0
C1025 C 0.64661 0.43733 0.01096 0.0
C1026 C 0.63931 0.46021 0.91547 0.0
C1027 C 0.64738 0.46887 0.87798 0.0
C1028 C 0.65074 0.46022 0.83506 0.0
C1029 C 0.64688 0.44245 0.83155 0.0
C1030 C 0.63883 0.43381 0.86904 0.0
H1031 H 0.65021 0.43069 0.04447 0.0
H1032 H 0.6565 0.4343 0.9836 0.0
H1033 H 0.64687 0.45151 0.01751 0.0
H1034 H 0.63591 0.46741 0.94709 0.0
H1035 H 0.65015 0.48256 0.88184 0.0
H1036 H 0.08502 0.55272 0.62299 0.0
H1037 H 0.07201 0.57331 0.56728 0.0
H1038 H 0.12253 0.59416 0.5359 0.0
H1039 H 0.13571 0.57361 0.5912 0.0
H1040 H 0.09235 0.6194 0.55693 0.0
H1041 H 0.08101 0.56971 0.41701 0.0
H1042 H 0.07456 0.56441 0.47661 0.0
H1043 H 0.0971 0.56695 0.46287 0.0
C1044 C 0.09336 0.56171 0.60433 0.0
C1045 C 0.1114 0.56146 0.61127 0.0
C1046 C 0.08591 0.57344 0.57259 0.0
C1047 C 0.09636 0.58516 0.54758 0.0
C1048 C 0.1143 0.58519 0.55501 0.0
H1049 H 0.07165 0.64341 0.2957 0.0
H1050 H 0.08671 0.6282 0.3594 0.0
C1051 C 0.12178 0.57339 0.58643 0.0
C1052 C 0.08864 0.59703 0.51246 0.0
H1053 H 0.07075 0.59794 0.40204 0.0
C1054 C 0.0876 0.61477 0.52304 0.0
C1055 C 0.08265 0.59087 0.46829 0.0
C1056 C 0.08392 0.57197 0.45507 0.0
C1057 C 0.08046 0.62655 0.49049 0.0
C1058 C 0.07427 0.62034 0.44654 0.0
C1059 C 0.07551 0.60262 0.43587 0.0
C1060 C 0.06629 0.63187 0.41091 0.0
C1061 C 0.07974 0.64554 0.50293 0.0
C1062 C 0.04999 0.6393 0.41927 0.0
C1063 C 0.04129 0.64798 0.38287 0.0
C1064 C 0.04875 0.64928 0.33751 0.0
C1065 C 0.06551 0.64263 0.33016 0.0
C1066 C 0.07414 0.63391 0.36647 0.0
H1067 H 0.08801 0.64868 0.53399 0.0
H1068 H 0.08393 0.65357 0.47235 0.0
H1069 H 0.06618 0.64914 0.51159 0.0
H1070 H 0.04365 0.63768 0.45323 0.0
H1071 H 0.0284 0.65294 0.3897 0.0
H1072 H 0.88239 0.5241 0.23553 0.0
H1073 H 0.90118 0.54883 0.22025 0.0
H1074 H 0.90025 0.56211 0.36869 0.0
H1075 H 0.88155 0.53707 0.38466 0.0
H1076 H 0.89731 0.58451 0.2372 0.0
H1077 H 0.95205 0.55614 0.33968 0.0
H1078 H 0.93324 0.54363 0.32321 0.0
H1079 H 0.93201 0.55885 0.37126 0.0
C1080 C 0.88606 0.53231 0.26502 0.0
C1081 C 0.88063 0.52849 0.31146 0.0
C1082 C 0.89676 0.54648 0.25614 0.0
C1083 C 0.90229 0.55713 0.29341 0.0
C1084 C 0.89635 0.55384 0.33956 0.0
H1085 H 0.98439 0.635 0.27543 0.0
H1086 H 0.95958 0.61832 0.30404 0.0
C1087 C 0.88562 0.53959 0.34857 0.0
C1088 C 0.91493 0.5711 0.2836 0.0
H1089 H 0.95719 0.58249 0.30074 0.0
C1090 C 0.91036 0.5842 0.25144 0.0
C1091 C 0.93194 0.57062 0.30227 0.0
C1092 C 0.93773 0.55651 0.33575 0.0
C1093 C 0.92246 0.59664 0.23666 0.0
C1094 C 0.93962 0.59577 0.254 0.0
C1095 C 0.94401 0.58309 0.28752 0.0
C1096 C 0.95355 0.60713 0.23572 0.0
C1097 C 0.91682 0.61053 0.20236 0.0
C1098 C 0.95836 0.60636 0.18779 0.0
C1099 C 0.97255 0.61585 0.17129 0.0
C1100 C 0.98225 0.62619 0.20255 0.0
C1101 C 0.9772 0.62717 0.2504 0.0
C1102 C 0.96302 0.61766 0.26684 0.0
H1103 H 0.90258 0.61259 0.20364 0.0
H1104 H 0.92341 0.62302 0.20994 0.0
H1105 H 0.92027 0.60649 0.16581 0.0
H1106 H 0.95145 0.59801 0.1634 0.0
H1107 H 0.97613 0.61476 0.13429 0.0
H1108 H 0.86692 0.98039 0.7415 0.0
H1109 H 0.88547 0.95603 0.76397 0.0
H1110 H 0.92745 0.97789 0.68259 0.0
H1111 H 0.90884 0.00193 0.65868 0.0
H1112 H 0.92568 0.94348 0.67114 0.0
H1113 H 0.92289 0.9595 0.86289 0.0
H1114 H 0.90214 0.95526 0.83665 0.0
H1115 H 0.91451 0.9738 0.81791 0.0
C1116 C 0.88007 0.97993 0.72814 0.0
C1117 C 0.88648 0.99315 0.69864 0.0
C1118 C 0.89069 0.96607 0.74127 0.0
C1119 C 0.90797 0.96536 0.72587 0.0
C1120 C 0.91418 0.97823 0.6951 0.0
H1121 H 0.99697 0.91646 0.84536 0.0
H1122 H 0.97266 0.93498 0.8233 0.0
C1123 C 0.90352 0.99197 0.68147 0.0
C1124 C 0.91981 0.9515 0.74242 0.0
H1125 H 0.93863 0.93448 0.84151 0.0
C1126 C 0.92847 0.94144 0.70839 0.0
C1127 C 0.92355 0.94901 0.79106 0.0
C1128 C 0.91543 0.96006 0.82926 0.0
C1129 C 0.94103 0.92921 0.72153 0.0
C1130 C 0.94464 0.9266 0.7702 0.0
C1131 C 0.93572 0.9364 0.80427 0.0
C1132 C 0.9586 0.9148 0.78633 0.0
C1133 C 0.95084 0.91981 0.68301 0.0
C1134 C 0.95855 0.89717 0.77408 0.0
C1135 C 0.97257 0.88658 0.78615 0.0
C1136 C 0.98672 0.89339 0.81144 0.0
C1137 C 0.98629 0.91082 0.82582 0.0
C1138 C 0.97239 0.92143 0.81323 0.0
H1139 H 0.94958 0.92641 0.64819 0.0
H1140 H 0.96481 0.91878 0.69187 0.0
H1141 H 0.94554 0.90652 0.67917 0.0
H1142 H 0.94782 0.89166 0.75449 0.0
H1143 H 0.97244 0.87314 0.77504 0.0
H1144 H 0.51747 0.88078 0.2736 0.0
H1145 H 0.54238 0.89917 0.29063 0.0
H1146 H 0.56219 0.89011 0.14987 0.0
H1147 H 0.53706 0.87179 0.13208 0.0
H1148 H 0.57845 0.89288 0.28762 0.0
H1149 H 0.55783 0.94316 0.15793 0.0
H1150 H 0.54363 0.92592 0.17684 0.0
H1151 H 0.56056 0.92165 0.13473 0.0
C1152 C 0.52714 0.88258 0.24624 0.0
C1153 C 0.52518 0.87497 0.20126 0.0
C1154 C 0.54141 0.89306 0.25614 0.0
C1155 C 0.55397 0.89617 0.22132 0.0
C1156 C 0.55245 0.88807 0.17696 0.0
H1157 H 0.6355 0.97441 0.22933 0.0
H1158 H 0.61851 0.94895 0.20719 0.0
C1159 C 0.53813 0.87757 0.16694 0.0
C1160 C 0.56814 0.90858 0.23122 0.0
H1161 H 0.58299 0.94881 0.20198 0.0
C1162 C 0.57957 0.90505 0.26867 0.0
C1163 C 0.56951 0.92444 0.20641 0.0
C1164 C 0.55718 0.92917 0.16696 0.0
C1165 C 0.59224 0.9171 0.28243 0.0
C1166 C 0.59326 0.93317 0.25854 0.0
C1167 C 0.58217 0.93646 0.22017 0.0
C1168 C 0.605 0.94722 0.27419 0.0
C1169 C 0.60437 0.91256 0.32244 0.0
C1170 C 0.60313 0.9546 0.31939 0.0
C1171 C 0.61283 0.96916 0.33222 0.0
C1172 C 0.62445 0.97669 0.29986 0.0
C1173 C 0.62664 0.96895 0.25508 0.0
C1174 C 0.61696 0.9544 0.24235 0.0
H1175 H 0.60544 0.8983 0.32713 0.0
H1176 H 0.61751 0.91797 0.31623 0.0
H1177 H 0.59927 0.9181 0.35594 0.0
H1178 H 0.5937 0.94949 0.34414 0.0
H1179 H 0.61079 0.97483 0.3669 0.0
H1180 H 0.62915 0.51918 0.76787 0.0
H1181 H 0.6099 0.54225 0.79537 0.0
H1182 H 0.59015 0.54861 0.65359 0.0
H1183 H 0.60932 0.52545 0.62553 0.0
H1184 H 0.60048 0.58111 0.7122 0.0
H1185 H 0.55474 0.53494 0.79831 0.0
H1186 H 0.57755 0.53214 0.80926 0.0
H1187 H 0.56909 0.52842 0.75097 0.0
C1188 C 0.62081 0.52554 0.74238 0.0
C1189 C 0.62069 0.52041 0.69451 0.0
C1190 C 0.60982 0.53869 0.75823 0.0
C1191 C 0.59859 0.54697 0.72651 0.0
C1192 C 0.59876 0.54229 0.67851 0.0
H1193 H 0.52077 0.62665 0.73704 0.0
H1194 H 0.54415 0.60692 0.71556 0.0
C1195 C 0.60968 0.52905 0.66262 0.0
C1196 C 0.58622 0.56012 0.74378 0.0
H1197 H 0.54846 0.56464 0.8053 0.0
C1198 C 0.58911 0.57758 0.73264 0.0
C1199 C 0.57155 0.55538 0.77073 0.0
C1200 C 0.56788 0.53671 0.78299 0.0
C1201 C 0.5776 0.59053 0.74787 0.0
C1202 C 0.56263 0.58575 0.77379 0.0
C1203 C 0.55994 0.56828 0.78547 0.0
C1204 C 0.54917 0.59851 0.78743 0.0
C1205 C 0.58174 0.60919 0.73658 0.0
C1206 C 0.54394 0.60008 0.83491 0.0
C1207 C 0.53036 0.6112 0.84728 0.0
C1208 C 0.52178 0.62092 0.81233 0.0
C1209 C 0.5272 0.61946 0.7649 0.0
C1210 C 0.54067 0.60827 0.75257 0.0
H1211 H 0.59585 0.61111 0.73082 0.0
H1212 H 0.57496 0.61295 0.70348 0.0
H1213 H 0.57741 0.61797 0.76544 0.0
H1214 H 0.55025 0.59256 0.86233 0.0
H1215 H 0.52649 0.61202 0.88411 0.0
H1216 H 0.13876 0.47278 0.79332 0.0
H1217 H 0.11885 0.44837 0.80308 0.0
H1218 H 0.0934 0.46203 0.67229 0.0
H1219 H 0.1133 0.48631 0.66195 0.0
H1220 H 0.08355 0.45209 0.81235 0.0
H1221 H 0.09862 0.40956 0.65978 0.0
H1222 H 0.11324 0.42628 0.68009 0.0
H1223 H 0.09517 0.43168 0.64264 0.0
C1224 C 0.12913 0.47041 0.76618 0.0
C1225 C 0.12758 0.48153 0.72693 0.0
C1226 C 0.11777 0.45645 0.77184 0.0
C1227 C 0.10479 0.45327 0.73814 0.0
C1228 C 0.10356 0.46402 0.6982 0.0
H1229 H 0.00298 0.41328 0.75935 0.0
H1230 H 0.02984 0.42985 0.75445 0.0
C1231 C 0.11488 0.47798 0.69254 0.0
C1232 C 0.09138 0.43994 0.74701 0.0
H1233 H 0.07071 0.40547 0.6964 0.0
C1234 C 0.08092 0.44172 0.7874 0.0
C1235 C 0.08809 0.42632 0.71469 0.0
C1236 C 0.09949 0.42321 0.67211 0.0
C1237 C 0.06668 0.4308 0.79504 0.0
C1238 C 0.06272 0.41793 0.76113 0.0
C1239 C 0.0737 0.41551 0.72205 0.0
C1240 C 0.04659 0.40766 0.76414 0.0
C1241 C 0.05579 0.43334 0.83891 0.0
C1242 C 0.04717 0.38963 0.77029 0.0
C1243 C 0.03179 0.38008 0.77316 0.0
C1244 C 0.01563 0.38842 0.76937 0.0
C1245 C 0.01518 0.40646 0.76258 0.0
C1246 C 0.03052 0.41597 0.75997 0.0
H1247 H 0.06305 0.44032 0.86706 0.0
H1248 H 0.0442 0.44117 0.82977 0.0
H1249 H 0.0513 0.42071 0.85322 0.0
H1250 H 0.05949 0.383 0.77327 0.0
H1251 H 0.03256 0.36619 0.7782 0.0
H1252 H 0.99578 0.08605 0.23224 0.0
H1253 H 0.02128 0.06728 0.23257 0.0
H1254 H 0.05436 0.11172 0.21335 0.0
H1255 H 0.02885 0.13074 0.21266 0.0
H1256 H 0.05135 0.06964 0.15022 0.0
H1257 H 0.06914 0.07981 0.33979 0.0
H1258 H 0.04683 0.08121 0.32083 0.0
H1259 H 0.0619 0.09771 0.30366 0.0
C1260 C 0.00845 0.09189 0.22814 0.0
C1261 C 0.01029 0.1099 0.22249 0.0
C1262 C 0.02298 0.08113 0.22825 0.0
C1263 C 0.03959 0.08818 0.22307 0.0
C1264 C 0.04157 0.10612 0.21746 0.0
H1265 H 0.13433 0.02701 0.26288 0.0
H1266 H 0.11491 0.05182 0.2518 0.0
C1267 C 0.02701 0.11692 0.21707 0.0
C1268 C 0.05477 0.07658 0.22347 0.0
H1269 H 0.0844 0.05833 0.29782 0.0
C1270 C 0.05876 0.06729 0.18224 0.0
C1271 C 0.06442 0.07375 0.26521 0.0
C1272 C 0.06047 0.08359 0.31012 0.0
C1273 C 0.07192 0.05474 0.18207 0.0
C1274 C 0.08095 0.05116 0.22462 0.0
C1275 C 0.07743 0.06104 0.26531 0.0
C1276 C 0.09309 0.03637 0.22866 0.0
C1277 C 0.07591 0.04536 0.13644 0.0
C1278 C 0.08722 0.01948 0.21968 0.0
C1279 C 0.09825 0.00534 0.22581 0.0
C1280 C 0.11535 0.00777 0.2416 0.0
C1281 C 0.12124 0.02471 0.25056 0.0
C1282 C 0.11018 0.03889 0.24426 0.0
H1283 H 0.07235 0.05332 0.10512 0.0
H1284 H 0.08986 0.04195 0.13398 0.0
H1285 H 0.06821 0.03323 0.13492 0.0
H1286 H 0.07395 0.01719 0.20885 0.0
H1287 H 0.09324 0.99247 0.21889 0.0
H1288 H 0.37221 0.03187 0.72911 0.0
H1289 H 0.39244 0.05639 0.73297 0.0
H1290 H 0.43558 0.02101 0.72533 0.0
H1291 H 0.41562 0.99653 0.72158 0.0
H1292 H 0.42041 0.06104 0.80359 0.0
H1293 H 0.44418 0.05759 0.61822 0.0
H1294 H 0.42391 0.04802 0.63685 0.0
H1295 H 0.44404 0.03719 0.64895 0.0
C1296 C 0.38601 0.02933 0.72804 0.0
C1297 C 0.39233 0.01226 0.72494 0.0
C1298 C 0.39751 0.04333 0.73031 0.0
C1299 C 0.41545 0.04046 0.72886 0.0
C1300 C 0.42176 0.02347 0.7258 0.0
H1301 H 0.51314 0.08972 0.74725 0.0
H1302 H 0.4878 0.07113 0.73835 0.0
C1303 C 0.41032 0.0095 0.72388 0.0
C1304 C 0.42778 0.05507 0.73189 0.0
H1305 H 0.46114 0.07418 0.67237 0.0
C1306 C 0.42916 0.06417 0.77476 0.0
C1307 C 0.43911 0.05903 0.6941 0.0
C1308 C 0.43769 0.05007 0.64673 0.0
C1309 C 0.44228 0.07654 0.78172 0.0
C1310 C 0.45404 0.08003 0.74445 0.0
C1311 C 0.45215 0.07142 0.70094 0.0
C1312 C 0.46917 0.09159 0.75078 0.0
C1313 C 0.44398 0.0851 0.82958 0.0
C1314 C 0.46709 0.1093 0.76061 0.0
C1315 C 0.4816 0.12 0.76598 0.0
C1316 C 0.49841 0.11315 0.76119 0.0
C1317 C 0.50039 0.09542 0.75117 0.0
C1318 C 0.48592 0.08477 0.74599 0.0
H1319 H 0.43613 0.07844 0.85709 0.0
H1320 H 0.45773 0.08529 0.84121 0.0
H1321 H 0.43944 0.09871 0.82708 0.0
H1322 H 0.45426 0.11487 0.76363 0.0
H1323 H 0.47965 0.13363 0.77343 0.0
H1324 H 0.4782 0.3723 0.29972 0.0
H1325 H 0.45475 0.39316 0.3122 0.0
H1326 H 0.46429 0.41503 0.17404 0.0
H1327 H 0.48761 0.39419 0.16103 0.0
H1328 H 0.45966 0.42873 0.31334 0.0
H1329 H 0.41141 0.41057 0.17675 0.0
H1330 H 0.42847 0.39611 0.19561 0.0
H1331 H 0.43291 0.413 0.1534 0.0
C1332 C 0.47511 0.38135 0.27163 0.0
C1333 C 0.48481 0.38162 0.22943 0.0
C1334 C 0.46172 0.39325 0.27886 0.0
C1335 C 0.45767 0.4055 0.24385 0.0
C1336 C 0.46697 0.40546 0.20113 0.0
H1337 H 0.41835 0.5082 0.25806 0.0
H1338 H 0.43491 0.48133 0.25233 0.0
C1339 C 0.48038 0.3936 0.1939 0.0
C1340 C 0.44496 0.41942 0.25364 0.0
H1341 H 0.40879 0.43918 0.20974 0.0
C1342 C 0.44839 0.43087 0.29112 0.0
C1343 C 0.43019 0.42208 0.22489 0.0
C1344 C 0.4254 0.40969 0.18569 0.0
C1345 C 0.4379 0.44539 0.29925 0.0
C1346 C 0.42374 0.44861 0.26877 0.0
C1347 C 0.41979 0.43674 0.23271 0.0
C1348 C 0.41351 0.46475 0.27228 0.0
C1349 C 0.44219 0.45734 0.33994 0.0
C1350 C 0.39591 0.46426 0.28458 0.0
C1351 C 0.38638 0.47963 0.28799 0.0
C1352 C 0.39429 0.4957 0.27858 0.0
C1353 C 0.41188 0.49607 0.26566 0.0
C1354 C 0.42139 0.48073 0.26255 0.0
H1355 H 0.45044 0.45083 0.36683 0.0
H1356 H 0.44938 0.46873 0.32623 0.0
H1357 H 0.43021 0.46208 0.35746 0.0
H1358 H 0.38962 0.452 0.29195 0.0
H1359 H 0.37284 0.47892 0.29784 0.0
loop_
_geom_bond_atom_site_label_1
_geom_bond_atom_site_label_2
_geom_bond_distance
_geom_bond_site_symmetry_2
_ccdc_geom_bond_type
C0 O1 1.160 . S
C0 O7 1.185 . S
O1 C0 1.160 . S
O2 Zn3 1.899 . S
O2 C10 1.284 . S
Zn3 O2 1.899 . S
Zn3 O4 2.032 . S
Zn3 O7 2.086 . S
Zn3 O12 1.977 . S
O4 Zn3 2.032 . S
O4 C8 1.278 . S
C5 O6 1.203 . S
C5 O12 1.267 . S
O6 C5 1.203 . S
O7 C0 1.185 . S
O7 Zn3 2.086 . S
C8 O4 1.278 . S
C8 O9 1.211 . S
O9 C8 1.211 . S
C10 O2 1.284 . S
C10 O11 1.273 . S
O11 C10 1.273 . S
O12 Zn3 1.977 . S
O12 C5 1.267 . S
C13 O14 1.160 . S
C13 O20 1.185 . S
O14 C13 1.160 . S
O15 Zn16 1.899 . S
O15 C23 1.284 . S
Zn16 O15 1.899 . S
Zn16 O17 2.032 . S
Zn16 O20 2.086 . S
Zn16 O25 1.977 . S
O17 Zn16 2.032 . S
O17 C21 1.278 . S
C18 O19 1.203 . S
C18 O25 1.267 . S
O19 C18 1.203 . S
O20 C13 1.185 . S
O20 Zn16 2.086 . S
C21 O17 1.278 . S
C21 O22 1.211 . S
O22 C21 1.211 . S
C23 O15 1.284 . S
C23 O24 1.273 . S
O24 C23 1.273 . S
O25 Zn16 1.977 . S
O25 C18 1.267 . S
C26 O27 1.160 . S
C26 O33 1.185 . S
O27 C26 1.160 . S
O28 Zn29 1.899 . S
O28 C36 1.284 . S
Zn29 O28 1.899 . S
Zn29 O30 2.032 . S
Zn29 O33 2.086 . S
Zn29 O38 1.977 . S
O30 Zn29 2.032 . S
O30 C34 1.278 . S
C31 O32 1.203 . S
C31 O38 1.267 . S
O32 C31 1.203 . S
O33 C26 1.185 . S
O33 Zn29 2.086 . S
C34 O30 1.278 . S
C34 O35 1.211 . S
O35 C34 1.211 . S
C36 O28 1.284 . S
C36 O37 1.273 . S
O37 C36 1.273 . S
O38 Zn29 1.977 . S
O38 C31 1.267 . S
C39 O40 1.160 . S
C39 O46 1.185 . S
O40 C39 1.160 . S
O41 Zn42 1.899 . S
O41 C49 1.284 . S
Zn42 O41 1.899 . S
Zn42 O43 2.032 . S
Zn42 O46 2.086 . S
Zn42 O51 1.977 . S
O43 Zn42 2.032 . S
O43 C47 1.278 . S
C44 O45 1.203 . S
C44 O51 1.267 . S
O45 C44 1.203 . S
O46 C39 1.185 . S
O46 Zn42 2.086 . S
C47 O43 1.278 . S
C47 O48 1.211 . S
O48 C47 1.211 . S
C49 O41 1.284 . S
C49 O50 1.273 . S
O50 C49 1.273 . S
O51 Zn42 1.977 . S
O51 C44 1.267 . S
C52 O53 1.160 . S
C52 O59 1.185 . S
O53 C52 1.160 . S
O54 Zn55 1.899 . S
O54 C62 1.284 . S
Zn55 O54 1.899 . S
Zn55 O56 2.032 . S
Zn55 O59 2.086 . S
Zn55 O64 1.977 . S
O56 Zn55 2.032 . S
O56 C60 1.278 . S
C57 O58 1.203 . S
C57 O64 1.267 . S
O58 C57 1.203 . S
O59 C52 1.185 . S
O59 Zn55 2.086 . S
C60 O56 1.278 . S
C60 O61 1.211 . S
O61 C60 1.211 . S
C62 O54 1.284 . S
C62 O63 1.273 . S
O63 C62 1.273 . S
O64 Zn55 1.977 . S
O64 C57 1.267 . S
C65 O66 1.160 . S
C65 O72 1.185 . S
O66 C65 1.160 . S
O67 Zn68 1.899 . S
O67 C75 1.284 . S
Zn68 O67 1.899 . S
Zn68 O69 2.032 . S
Zn68 O72 2.086 . S
Zn68 O77 1.977 . S
O69 Zn68 2.032 . S
O69 C73 1.278 . S
C70 O71 1.203 . S
C70 O77 1.267 . S
O71 C70 1.203 . S
O72 C65 1.185 . S
O72 Zn68 2.086 . S
C73 O69 1.278 . S
C73 O74 1.211 . S
O74 C73 1.211 . S
C75 O67 1.284 . S
C75 O76 1.273 . S
O76 C75 1.273 . S
O77 Zn68 1.977 . S
O77 C70 1.267 . S
C78 O79 1.160 . S
C78 O85 1.185 . S
O79 C78 1.160 . S
O80 Zn81 1.899 . S
O80 C88 1.284 . S
Zn81 O80 1.899 . S
Zn81 O82 2.032 . S
Zn81 O85 2.086 . S
Zn81 O90 1.977 . S
O82 Zn81 2.032 . S
O82 C86 1.278 . S
C83 O84 1.203 . S
C83 O90 1.267 . S
O84 C83 1.203 . S
O85 C78 1.185 . S
O85 Zn81 2.086 . S
C86 O82 1.278 . S
C86 O87 1.211 . S
O87 C86 1.211 . S
C88 O80 1.284 . S
C88 O89 1.273 . S
O89 C88 1.273 . S
O90 Zn81 1.977 . S
O90 C83 1.267 . S
C91 O92 1.160 . S
C91 O98 1.185 . S
O92 C91 1.160 . S
O93 Zn94 1.899 . S
O93 C101 1.284 . S
Zn94 O93 1.899 . S
Zn94 O95 2.032 . S
Zn94 O98 2.086 . S
Zn94 O103 1.977 . S
O95 Zn94 2.032 . S
O95 C99 1.278 . S
C96 O97 1.203 . S
C96 O103 1.267 . S
O97 C96 1.203 . S
O98 C91 1.185 . S
O98 Zn94 2.086 . S
C99 O95 1.278 . S
C99 O100 1.211 . S
O100 C99 1.211 . S
C101 O93 1.284 . S
C101 O102 1.273 . S
O102 C101 1.273 . S
O103 Zn94 1.977 . S
O103 C96 1.267 . S
C104 O105 1.160 . S
C104 O111 1.185 . S
O105 C104 1.160 . S
O106 Zn107 1.899 . S
O106 C114 1.284 . S
Zn107 O106 1.899 . S
Zn107 O108 2.032 . S
Zn107 O111 2.086 . S
Zn107 O116 1.977 1_655 S
O108 Zn107 2.032 . S
O108 C112 1.278 . S
C109 O110 1.203 1_455 S
C109 O116 1.267 . S
O110 C109 1.203 1_655 S
O111 C104 1.185 . S
O111 Zn107 2.086 . S
C112 O108 1.278 . S
C112 O113 1.211 . S
O113 C112 1.211 . S
C114 O106 1.284 . S
C114 O115 1.273 . S
O115 C114 1.273 . S
O116 Zn107 1.977 1_455 S
O116 C109 1.267 . S
C117 O118 1.160 . S
C117 O124 1.185 . S
O118 C117 1.160 . S
O119 Zn120 1.899 . S
O119 C127 1.284 . S
Zn120 O119 1.899 . S
Zn120 O121 2.032 . S
Zn120 O124 2.086 . S
Zn120 O129 1.977 1_565 S
O121 Zn120 2.032 . S
O121 C125 1.278 . S
C122 O123 1.203 1_545 S
C122 O129 1.267 . S
O123 C122 1.203 1_565 S
O124 C117 1.185 . S
O124 Zn120 2.086 . S
C125 O121 1.278 . S
C125 O126 1.211 . S
O126 C125 1.211 . S
C127 O119 1.284 . S
C127 O128 1.273 . S
O128 C127 1.273 . S
O129 Zn120 1.977 1_545 S
O129 C122 1.267 . S
C130 O131 1.160 . S
C130 O137 1.185 . S
O131 C130 1.160 . S
O132 Zn133 1.899 . S
O132 C140 1.284 . S
Zn133 O132 1.899 . S
Zn133 O134 2.032 . S
Zn133 O137 2.086 . S
Zn133 O142 1.977 . S
O134 Zn133 2.032 . S
O134 C138 1.278 . S
C135 O136 1.203 . S
C135 O142 1.267 . S
O136 C135 1.203 . S
O137 C130 1.185 . S
O137 Zn133 2.086 . S
C138 O134 1.278 . S
C138 O139 1.211 . S
O139 C138 1.211 . S
C140 O132 1.284 . S
C140 O141 1.273 . S
O141 C140 1.273 . S
O142 Zn133 1.977 . S
O142 C135 1.267 . S
C143 O144 1.160 . S
C143 O150 1.185 . S
O144 C143 1.160 . S
O145 Zn146 1.899 . S
O145 C153 1.284 . S
Zn146 O145 1.899 . S
Zn146 O147 2.032 . S
Zn146 O150 2.086 . S
Zn146 O155 1.977 . S
O147 Zn146 2.032 . S
O147 C151 1.278 . S
C148 O149 1.203 . S
C148 O155 1.267 . S
O149 C148 1.203 . S
O150 C143 1.185 . S
O150 Zn146 2.086 . S
C151 O147 1.278 . S
C151 O152 1.211 . S
O152 C151 1.211 . S
C153 O145 1.284 . S
C153 O154 1.273 . S
O154 C153 1.273 . S
O155 Zn146 1.977 . S
O155 C148 1.267 . S
C156 O157 1.160 . S
C156 O163 1.185 . S
O157 C156 1.160 . S
O158 Zn159 1.899 . S
O158 C166 1.284 . S
Zn159 O158 1.899 . S
Zn159 O160 2.032 . S
Zn159 O163 2.086 . S
Zn159 O168 1.977 1_655 S
O160 Zn159 2.032 . S
O160 C164 1.278 . S
C161 O162 1.203 1_455 S
C161 O168 1.267 . S
O162 C161 1.203 1_655 S
O163 C156 1.185 . S
O163 Zn159 2.086 . S
C164 O160 1.278 . S
C164 O165 1.211 . S
O165 C164 1.211 . S
C166 O158 1.284 . S
C166 O167 1.273 . S
O167 C166 1.273 . S
O168 Zn159 1.977 1_455 S
O168 C161 1.267 . S
C169 O170 1.160 . S
C169 O176 1.185 . S
O170 C169 1.160 . S
O171 Zn172 1.899 . S
O171 C179 1.284 . S
Zn172 O171 1.899 . S
Zn172 O173 2.032 . S
Zn172 O176 2.086 . S
Zn172 O181 1.977 1_565 S
O173 Zn172 2.032 . S
O173 C177 1.278 . S
C174 O175 1.203 1_545 S
C174 O181 1.267 . S
O175 C174 1.203 1_565 S
O176 C169 1.185 . S
O176 Zn172 2.086 . S
C177 O173 1.278 . S
C177 O178 1.211 . S
O178 C177 1.211 . S
C179 O171 1.284 . S
C179 O180 1.273 . S
O180 C179 1.273 . S
O181 Zn172 1.977 1_545 S
O181 C174 1.267 . S
C182 O183 1.160 . S
C182 O189 1.185 . S
O183 C182 1.160 . S
O184 Zn185 1.899 . S
O184 C192 1.284 . S
Zn185 O184 1.899 . S
Zn185 O186 2.032 . S
Zn185 O189 2.086 . S
Zn185 O194 1.977 . S
O186 Zn185 2.032 . S
O186 C190 1.278 . S
C187 O188 1.203 . S
C187 O194 1.267 . S
O188 C187 1.203 . S
O189 C182 1.185 . S
O189 Zn185 2.086 . S
C190 O186 1.278 . S
C190 O191 1.211 . S
O191 C190 1.211 . S
C192 O184 1.284 . S
C192 O193 1.273 . S
O193 C192 1.273 . S
O194 Zn185 1.977 . S
O194 C187 1.267 . S
C195 O196 1.160 . S
C195 O202 1.185 . S
O196 C195 1.160 . S
O197 Zn198 1.899 . S
O197 C205 1.284 . S
Zn198 O197 1.899 . S
Zn198 O199 2.032 . S
Zn198 O202 2.086 . S
Zn198 O207 1.977 . S
O199 Zn198 2.032 . S
O199 C203 1.278 . S
C200 O201 1.203 . S
C200 O207 1.267 . S
O201 C200 1.203 . S
O202 C195 1.185 . S
O202 Zn198 2.086 . S
C203 O199 1.278 . S
C203 O204 1.211 . S
O204 C203 1.211 . S
C205 O197 1.284 . S
C205 O206 1.273 . S
O206 C205 1.273 . S
O207 Zn198 1.977 . S
O207 C200 1.267 . S
H208 C216 0.929 1_655 S
H209 C218 0.930 1_655 S
H210 C220 0.930 . S
H211 C223 0.929 . S
H212 C226 0.930 . S
H213 C228 0.960 . S
H214 C228 0.960 . S
H215 C228 0.960 . S
C216 H208 0.929 1_455 S
C216 C217 1.377 . S
C216 C218 1.384 . S
C217 C216 1.377 . S
C217 C223 1.390 . S
C218 H209 0.930 1_455 S
C218 C216 1.384 . S
C218 C219 1.372 . S
C219 C218 1.372 . S
C219 C220 1.400 . S
C219 C224 1.490 . S
C220 H210 0.930 . S
C220 C219 1.400 . S
C220 C223 1.386 . S
H221 C237 0.930 . S
H222 C238 0.931 . S
C223 H211 0.929 . S
C223 C217 1.390 . S
C223 C220 1.386 . S
C224 C219 1.490 . S
C224 C226 1.395 . S
C224 C227 1.403 1_554 S
H225 C231 0.930 . S
C226 H212 0.930 . S
C226 C224 1.395 . S
C226 C229 1.403 . S
C227 C224 1.403 1_556 S
C227 C228 1.524 . S
C227 C231 1.400 . S
C228 H213 0.960 . S
C228 H214 0.960 . S
C228 H215 0.960 . S
C228 C227 1.524 . S
C229 C226 1.403 . S
C229 C230 1.392 1_554 S
C229 C233 1.495 1_455 S
C230 C229 1.392 1_556 S
C230 C231 1.385 . S
C230 C232 1.478 . S
C231 H225 0.930 . S
C231 C227 1.400 . S
C231 C230 1.385 . S
C232 C230 1.478 . S
C232 C234 1.381 . S
C232 C238 1.383 . S
C233 C229 1.495 1_655 S
C233 H239 0.959 . S
C233 H240 0.961 1_655 S
C233 H241 0.960 . S
C234 C232 1.381 . S
C234 C235 1.394 . S
C234 H242 0.930 1_455 S
C235 C234 1.394 . S
C235 C236 1.383 . S
C235 H243 0.929 1_455 S
C236 C235 1.383 . S
C236 C237 1.377 . S
C237 H221 0.930 . S
C237 C236 1.377 . S
C237 C238 1.379 . S
C238 H222 0.931 . S
C238 C232 1.383 . S
C238 C237 1.379 . S
H239 C233 0.959 . S
H240 C233 0.961 1_455 S
H241 C233 0.960 . S
H242 C234 0.930 1_655 S
H243 C235 0.929 1_655 S
H244 C252 0.929 . S
H245 C254 0.930 . S
H246 C256 0.930 . S
H247 C259 0.929 . S
H248 C262 0.930 . S
H249 C264 0.960 . S
H250 C264 0.960 . S
H251 C264 0.960 . S
C252 H244 0.929 . S
C252 C253 1.377 . S
C252 C254 1.384 . S
C253 C252 1.377 . S
C253 C259 1.390 . S
C254 H245 0.930 . S
C254 C252 1.384 . S
C254 C255 1.372 . S
C255 C254 1.372 . S
C255 C256 1.400 . S
C255 C260 1.490 . S
C256 H246 0.930 . S
C256 C255 1.400 . S
C256 C259 1.386 . S
H257 C273 0.964 . S
H258 C274 0.952 . S
C259 H247 0.929 . S
C259 C253 1.390 . S
C259 C256 1.386 . S
C260 C255 1.490 . S
C260 C262 1.395 . S
C260 C263 1.403 . S
H261 C267 0.930 . S
C262 H248 0.930 . S
C262 C260 1.395 . S
C262 C265 1.403 . S
C263 C260 1.403 . S
C263 C264 1.524 . S
C263 C267 1.400 . S
C264 H249 0.960 . S
C264 H250 0.960 . S
C264 H251 0.960 . S
C264 C263 1.524 . S
C265 C262 1.403 . S
C265 C266 1.392 . S
C265 C269 1.495 . S
C266 C265 1.392 . S
C266 C267 1.385 . S
C266 C268 1.478 . S
C267 H261 0.930 . S
C267 C263 1.400 . S
C267 C266 1.385 . S
C268 C266 1.478 . S
C268 C270 1.381 . S
C268 C274 1.383 . S
C269 C265 1.495 . S
C269 H275 0.959 . S
C269 H276 0.961 . S
C269 H277 0.960 . S
C270 C268 1.381 . S
C270 C271 1.394 . S
C270 H278 0.930 . S
C271 C270 1.394 . S
C271 C272 1.383 . S
C271 H279 0.929 . S
C272 C271 1.383 . S
C272 C273 1.377 . S
C273 H257 0.964 . S
C273 C272 1.377 . S
C273 C274 1.379 . S
C274 H258 0.952 . S
C274 C268 1.383 . S
C274 C273 1.379 . S
H275 C269 0.959 . S
H276 C269 0.961 . S
H277 C269 0.960 . S
H278 C270 0.930 . S
H279 C271 0.929 . S
H280 C288 0.929 . S
H281 C290 0.930 . S
H282 C292 0.930 . S
H283 C295 0.929 . S
H284 C298 0.930 . S
H285 C300 0.960 . S
H286 C300 0.960 . S
H287 C300 0.960 . S
C288 H280 0.929 . S
C288 C289 1.377 . S
C288 C290 1.384 . S
C289 C288 1.377 . S
C289 C295 1.390 . S
C290 H281 0.930 . S
C290 C288 1.384 . S
C290 C291 1.372 . S
C291 C290 1.372 . S
C291 C292 1.400 . S
C291 C296 1.490 . S
C292 H282 0.930 . S
C292 C291 1.400 . S
C292 C295 1.386 . S
H293 C309 0.930 . S
H294 C310 0.931 . S
C295 H283 0.929 . S
C295 C289 1.390 . S
C295 C292 1.386 . S
C296 C291 1.490 . S
C296 C298 1.395 . S
C296 C299 1.403 1_554 S
H297 C303 0.930 . S
C298 H284 0.930 . S
C298 C296 1.395 . S
C298 C301 1.403 . S
C299 C296 1.403 1_556 S
C299 C300 1.524 . S
C299 C303 1.400 . S
C300 H285 0.960 . S
C300 H286 0.960 . S
C300 H287 0.960 . S
C300 C299 1.524 . S
C301 C298 1.403 . S
C301 C302 1.392 1_554 S
C301 C305 1.495 . S
C302 C301 1.392 1_556 S
C302 C303 1.385 . S
C302 C304 1.478 . S
C303 H297 0.930 . S
C303 C299 1.400 . S
C303 C302 1.385 . S
C304 C302 1.478 . S
C304 C306 1.381 . S
C304 C310 1.383 . S
C305 C301 1.495 . S
C305 H311 0.959 . S
C305 H312 0.961 . S
C305 H313 0.960 . S
C306 C304 1.381 . S
C306 C307 1.394 . S
C306 H314 0.930 . S
C307 C306 1.394 . S
C307 C308 1.383 . S
C307 H315 0.929 . S
C308 C307 1.383 . S
C308 C309 1.377 . S
C309 H293 0.930 . S
C309 C308 1.377 . S
C309 C310 1.379 . S
C310 H294 0.931 . S
C310 C304 1.383 . S
C310 C309 1.379 . S
H311 C305 0.959 . S
H312 C305 0.961 . S
H313 C305 0.960 . S
H314 C306 0.930 . S
H315 C307 0.929 . S
H316 C324 0.929 . S
H317 C326 0.930 . S
H318 C328 0.930 . S
H319 C331 0.929 . S
H320 C334 0.930 . S
H321 C336 0.960 . S
H322 C336 0.960 . S
H323 C336 0.960 . S
C324 H316 0.929 . S
C324 C325 1.377 . S
C324 C326 1.384 . S
C325 C324 1.377 . S
C325 C331 1.390 . S
C326 H317 0.930 . S
C326 C324 1.384 . S
C326 C327 1.372 . S
C327 C326 1.372 . S
C327 C328 1.400 . S
C327 C332 1.490 . S
C328 H318 0.930 . S
C328 C327 1.400 . S
C328 C331 1.386 . S
H329 C345 0.930 . S
H330 C346 0.931 . S
C331 H319 0.929 . S
C331 C325 1.390 . S
C331 C328 1.386 . S
C332 C327 1.490 . S
C332 C334 1.395 . S
C332 C335 1.403 . S
H333 C339 0.930 . S
C334 H320 0.930 . S
C334 C332 1.395 . S
C334 C337 1.403 . S
C335 C332 1.403 . S
C335 C336 1.524 . S
C335 C339 1.400 . S
C336 H321 0.960 . S
C336 H322 0.960 . S
C336 H323 0.960 . S
C336 C335 1.524 . S
C337 C334 1.403 . S
C337 C338 1.392 . S
C337 C341 1.495 . S
C338 C337 1.392 . S
C338 C339 1.385 . S
C338 C340 1.478 . S
C339 H333 0.930 . S
C339 C335 1.400 . S
C339 C338 1.385 . S
C340 C338 1.478 . S
C340 C342 1.381 . S
C340 C346 1.383 . S
C341 C337 1.495 . S
C341 H347 0.959 . S
C341 H348 0.961 . S
C341 H349 0.960 . S
C342 C340 1.381 . S
C342 C343 1.394 . S
C342 H350 0.930 . S
C343 C342 1.394 . S
C343 C344 1.383 . S
C343 H351 0.929 . S
C344 C343 1.383 . S
C344 C345 1.377 . S
C345 H329 0.930 . S
C345 C344 1.377 . S
C345 C346 1.379 . S
C346 H330 0.931 . S
C346 C340 1.383 . S
C346 C345 1.379 . S
H347 C341 0.959 . S
H348 C341 0.961 . S
H349 C341 0.960 . S
H350 C342 0.930 . S
H351 C343 0.929 . S
H352 C360 0.948 . S
H353 C362 0.937 . S
H354 C364 0.930 . S
H355 C367 0.929 . S
H356 C370 0.930 . S
H357 C372 0.960 . S
H358 C372 0.960 . S
H359 C372 0.960 . S
C360 H352 0.948 . S
C360 C361 1.377 . S
C360 C362 1.384 . S
C361 C360 1.377 . S
C361 C367 1.390 . S
C362 H353 0.937 . S
C362 C360 1.384 . S
C362 C363 1.372 . S
C363 C362 1.372 . S
C363 C364 1.400 . S
C363 C368 1.490 . S
C364 H354 0.930 . S
C364 C363 1.400 . S
C364 C367 1.386 . S
H365 C381 0.930 . S
H366 C382 0.931 . S
C367 H355 0.929 . S
C367 C361 1.390 . S
C367 C364 1.386 . S
C368 C363 1.490 . S
C368 C370 1.395 1_556 S
C368 C371 1.403 . S
H369 C375 0.930 . S
C370 H356 0.930 . S
C370 C368 1.395 1_554 S
C370 C373 1.403 . S
C371 C368 1.403 . S
C371 C372 1.524 . S
C371 C375 1.400 . S
C372 H357 0.960 . S
C372 H358 0.960 . S
C372 H359 0.960 . S
C372 C371 1.524 . S
C373 C370 1.403 . S
C373 C374 1.392 . S
C373 C377 1.495 . S
C374 C373 1.392 . S
C374 C375 1.385 1_554 S
C374 C376 1.478 . S
C375 H369 0.930 . S
C375 C371 1.400 . S
C375 C374 1.385 1_556 S
C376 C374 1.478 . S
C376 C378 1.381 . S
C376 C382 1.383 . S
C377 C373 1.495 . S
C377 H383 0.959 . S
C377 H384 0.961 . S
C377 H385 0.960 . S
C378 C376 1.381 . S
C378 C379 1.394 . S
C378 H386 0.928 1_655 S
C379 C378 1.394 . S
C379 C380 1.383 . S
C379 H387 0.901 1_655 S
C380 C379 1.383 . S
C380 C381 1.377 . S
C381 H365 0.930 . S
C381 C380 1.377 . S
C381 C382 1.379 . S
C382 H366 0.931 . S
C382 C376 1.383 . S
C382 C381 1.379 . S
H383 C377 0.959 . S
H384 C377 0.961 . S
H385 C377 0.960 . S
H386 C378 0.928 1_455 S
H387 C379 0.901 1_455 S
H388 C396 0.929 1_545 S
H389 C398 0.930 1_545 S
H390 C400 0.930 . S
H391 C403 0.929 . S
H392 C406 0.930 . S
H393 C408 0.960 . S
H394 C408 0.960 . S
H395 C408 0.960 . S
C396 H388 0.929 1_565 S
C396 C397 1.377 . S
C396 C398 1.384 . S
C397 C396 1.377 . S
C397 C403 1.390 . S
C398 H389 0.930 1_565 S
C398 C396 1.384 . S
C398 C399 1.372 . S
C399 C398 1.372 . S
C399 C400 1.400 . S
C399 C404 1.490 . S
C400 H390 0.930 . S
C400 C399 1.400 . S
C400 C403 1.386 . S
H401 C417 0.930 . S
H402 C418 0.931 . S
C403 H391 0.929 . S
C403 C397 1.390 . S
C403 C400 1.386 . S
C404 C399 1.490 . S
C404 C406 1.395 . S
C404 C407 1.403 . S
H405 C411 0.930 . S
C406 H392 0.930 . S
C406 C404 1.395 . S
C406 C409 1.403 . S
C407 C404 1.403 . S
C407 C408 1.524 . S
C407 C411 1.400 . S
C408 H393 0.960 . S
C408 H394 0.960 . S
C408 H395 0.960 . S
C408 C407 1.524 . S
C409 C406 1.403 . S
C409 C410 1.392 . S
C409 C413 1.495 . S
C410 C409 1.392 . S
C410 C411 1.385 . S
C410 C412 1.478 . S
C411 H405 0.930 . S
C411 C407 1.400 . S
C411 C410 1.385 . S
C412 C410 1.478 . S
C412 C414 1.381 . S
C412 C418 1.383 . S
C413 C409 1.495 . S
C413 H419 0.959 . S
C413 H420 0.961 . S
C413 H421 0.960 1_565 S
C414 C412 1.381 . S
C414 C415 1.394 . S
C414 H422 0.930 1_565 S
C415 C414 1.394 . S
C415 C416 1.383 . S
C415 H423 0.929 1_565 S
C416 C415 1.383 . S
C416 C417 1.377 . S
C417 H401 0.930 . S
C417 C416 1.377 . S
C417 C418 1.379 . S
C418 H402 0.931 . S
C418 C412 1.383 . S
C418 C417 1.379 . S
H419 C413 0.959 . S
H420 C413 0.961 . S
H421 C413 0.960 1_545 S
H422 C414 0.930 1_545 S
H423 C415 0.929 1_545 S
H424 C432 0.929 . S
H425 C434 0.930 . S
H426 C436 0.930 . S
H427 C439 0.929 . S
H428 C442 0.930 . S
H429 C444 0.960 . S
H430 C444 0.960 . S
H431 C444 0.960 . S
C432 H424 0.929 . S
C432 C433 1.377 . S
C432 C434 1.384 . S
C433 C432 1.377 . S
C433 C439 1.390 . S
C434 H425 0.930 . S
C434 C432 1.384 . S
C434 C435 1.372 . S
C435 C434 1.372 . S
C435 C436 1.400 . S
C435 C440 1.490 . S
C436 H426 0.930 . S
C436 C435 1.400 . S
C436 C439 1.386 . S
H437 C453 0.930 . S
H438 C454 0.931 . S
C439 H427 0.929 . S
C439 C433 1.390 . S
C439 C436 1.386 . S
C440 C435 1.490 . S
C440 C442 1.395 . S
C440 C443 1.403 1_556 S
H441 C447 0.930 . S
C442 H428 0.930 . S
C442 C440 1.395 . S
C442 C445 1.403 . S
C443 C440 1.403 1_554 S
C443 C444 1.524 . S
C443 C447 1.400 . S
C444 H429 0.960 . S
C444 H430 0.960 . S
C444 H431 0.960 . S
C444 C443 1.524 . S
C445 C442 1.403 . S
C445 C446 1.392 1_556 S
C445 C449 1.495 . S
C446 C445 1.392 1_554 S
C446 C447 1.385 . S
C446 C448 1.478 . S
C447 H441 0.930 . S
C447 C443 1.400 . S
C447 C446 1.385 . S
C448 C446 1.478 . S
C448 C450 1.381 . S
C448 C454 1.383 . S
C449 C445 1.495 . S
C449 H455 0.959 . S
C449 H456 0.961 . S
C449 H457 0.960 . S
C450 C448 1.381 . S
C450 C451 1.394 . S
C450 H458 0.930 . S
C451 C450 1.394 . S
C451 C452 1.383 . S
C451 H459 0.929 . S
C452 C451 1.383 . S
C452 C453 1.377 . S
C453 H437 0.930 . S
C453 C452 1.377 . S
C453 C454 1.379 . S
C454 H438 0.931 . S
C454 C448 1.383 . S
C454 C453 1.379 . S
H455 C449 0.959 . S
H456 C449 0.961 . S
H457 C449 0.960 . S
H458 C450 0.930 . S
H459 C451 0.929 . S
H460 C468 0.929 . S
H461 C470 0.930 . S
H462 C472 0.930 . S
H463 C475 0.929 . S
H464 C478 0.930 . S
H465 C480 0.960 . S
H466 C480 0.960 . S
H467 C480 0.960 . S
C468 H460 0.929 . S
C468 C469 1.377 . S
C468 C470 1.384 . S
C469 C468 1.377 . S
C469 C475 1.390 . S
C470 H461 0.930 . S
C470 C468 1.384 . S
C470 C471 1.372 . S
C471 C470 1.372 . S
C471 C472 1.400 . S
C471 C476 1.490 . S
C472 H462 0.930 . S
C472 C471 1.400 . S
C472 C475 1.386 . S
H473 C489 0.930 . S
H474 C490 0.931 . S
C475 H463 0.929 . S
C475 C469 1.390 . S
C475 C472 1.386 . S
C476 C471 1.490 . S
C476 C478 1.395 . S
C476 C479 1.403 . S
H477 C483 0.930 . S
C478 H464 0.930 . S
C478 C476 1.395 . S
C478 C481 1.403 . S
C479 C476 1.403 . S
C479 C480 1.524 . S
C479 C483 1.400 . S
C480 H465 0.960 . S
C480 H466 0.960 . S
C480 H467 0.960 . S
C480 C479 1.524 . S
C481 C478 1.403 . S
C481 C482 1.392 . S
C481 C485 1.495 . S
C482 C481 1.392 . S
C482 C483 1.385 . S
C482 C484 1.478 . S
C483 H477 0.930 . S
C483 C479 1.400 . S
C483 C482 1.385 . S
C484 C482 1.478 . S
C484 C486 1.381 . S
C484 C490 1.383 . S
C485 C481 1.495 . S
C485 H491 0.959 . S
C485 H492 0.961 . S
C485 H493 0.960 . S
C486 C484 1.381 . S
C486 C487 1.394 . S
C486 H494 0.930 . S
C487 C486 1.394 . S
C487 C488 1.383 . S
C487 H495 0.929 . S
C488 C487 1.383 . S
C488 C489 1.377 . S
C489 H473 0.930 . S
C489 C488 1.377 . S
C489 C490 1.379 . S
C490 H474 0.931 . S
C490 C484 1.383 . S
C490 C489 1.379 . S
H491 C485 0.959 . S
H492 C485 0.961 . S
H493 C485 0.960 . S
H494 C486 0.930 . S
H495 C487 0.929 . S
H496 C504 0.929 . S
H497 C506 0.929 1_556 S
H498 C508 0.930 . S
H499 C511 0.929 . S
H500 C514 0.930 . S
H501 C516 0.960 . S
H502 C516 0.960 . S
H503 C516 0.960 . S
C504 H496 0.929 . S
C504 C505 1.377 . S
C504 C506 1.396 . S
C505 C504 1.377 . S
C505 C511 1.390 . S
C506 H497 0.929 1_554 S
C506 C504 1.396 . S
C506 C507 1.361 1_554 S
C507 C506 1.361 1_556 S
C507 C508 1.400 . S
C507 C512 1.490 . S
C508 H498 0.930 . S
C508 C507 1.400 . S
C508 C511 1.386 1_556 S
H509 C525 0.930 . S
H510 C526 0.931 . S
C511 H499 0.929 . S
C511 C505 1.390 . S
C511 C508 1.386 1_554 S
C512 C507 1.490 . S
C512 C514 1.395 . S
C512 C515 1.403 . S
H513 C519 0.930 . S
C514 H500 0.930 . S
C514 C512 1.395 . S
C514 C517 1.403 . S
C515 C512 1.403 . S
C515 C516 1.524 . S
C515 C519 1.400 . S
C516 H501 0.960 . S
C516 H502 0.960 . S
C516 H503 0.960 . S
C516 C515 1.524 . S
C517 C514 1.403 . S
C517 C518 1.392 . S
C517 C521 1.495 . S
C518 C517 1.392 . S
C518 C519 1.385 . S
C518 C520 1.478 . S
C519 H513 0.930 . S
C519 C515 1.400 . S
C519 C518 1.385 . S
C520 C518 1.478 . S
C520 C522 1.381 . S
C520 C526 1.383 . S
C521 C517 1.495 . S
C521 H527 0.959 . S
C521 H528 0.961 . S
C521 H529 0.960 . S
C522 C520 1.381 . S
C522 C523 1.394 . S
C522 H530 0.930 . S
C523 C522 1.394 . S
C523 C524 1.383 . S
C523 H531 0.929 . S
C524 C523 1.383 . S
C524 C525 1.377 . S
C525 H509 0.930 . S
C525 C524 1.377 . S
C525 C526 1.379 . S
C526 H510 0.931 . S
C526 C520 1.383 . S
C526 C525 1.379 . S
H527 C521 0.959 . S
H528 C521 0.961 . S
H529 C521 0.960 . S
H530 C522 0.930 . S
H531 C523 0.929 . S
H532 C540 0.929 . S
H533 C542 0.930 . S
H534 C544 0.930 . S
H535 C547 0.929 . S
H536 C550 0.930 . S
H537 C552 0.960 . S
H538 C552 0.960 . S
H539 C552 0.960 . S
C540 H532 0.929 . S
C540 C541 1.377 . S
C540 C542 1.384 . S
C541 C540 1.377 . S
C541 C547 1.390 . S
C542 H533 0.930 . S
C542 C540 1.384 . S
C542 C543 1.372 . S
C543 C542 1.372 . S
C543 C544 1.400 . S
C543 C548 1.490 . S
C544 H534 0.930 . S
C544 C543 1.400 . S
C544 C547 1.386 . S
H545 C561 0.930 . S
H546 C562 0.931 . S
C547 H535 0.929 . S
C547 C541 1.390 . S
C547 C544 1.386 . S
C548 C543 1.490 . S
C548 C550 1.395 . S
C548 C551 1.403 . S
H549 C555 0.930 . S
C550 H536 0.930 . S
C550 C548 1.395 . S
C550 C553 1.403 . S
C551 C548 1.403 . S
C551 C552 1.524 . S
C551 C555 1.400 . S
C552 H537 0.960 . S
C552 H538 0.960 . S
C552 H539 0.960 . S
C552 C551 1.524 . S
C553 C550 1.403 . S
C553 C554 1.392 . S
C553 C557 1.495 . S
C554 C553 1.392 . S
C554 C555 1.385 . S
C554 C556 1.478 . S
C555 H549 0.930 . S
C555 C551 1.400 . S
C555 C554 1.385 . S
C556 C554 1.478 . S
C556 C558 1.381 . S
C556 C562 1.383 . S
C557 C553 1.495 . S
C557 H563 0.959 . S
C557 H564 0.961 . S
C557 H565 0.960 . S
C558 C556 1.381 . S
C558 C559 1.394 . S
C558 H566 0.930 . S
C559 C558 1.394 . S
C559 C560 1.383 . S
C559 H567 0.929 . S
C560 C559 1.383 . S
C560 C561 1.377 . S
C561 H545 0.930 . S
C561 C560 1.377 . S
C561 C562 1.379 . S
C562 H546 0.931 . S
C562 C556 1.383 . S
C562 C561 1.379 . S
H563 C557 0.959 . S
H564 C557 0.961 . S
H565 C557 0.960 . S
H566 C558 0.930 . S
H567 C559 0.929 . S
H568 C576 0.929 . S
H569 C578 0.930 . S
H570 C580 0.930 . S
H571 C583 0.929 . S
H572 C586 0.930 . S
H573 C588 0.960 . S
H574 C588 0.960 . S
H575 C588 0.960 . S
C576 H568 0.929 . S
C576 C577 1.377 . S
C576 C578 1.384 1_554 S
C577 C576 1.377 . S
C577 C583 1.390 . S
C578 H569 0.930 . S
C578 C576 1.384 1_556 S
C578 C579 1.372 . S
C579 C578 1.372 . S
C579 C580 1.400 . S
C579 C584 1.490 . S
C580 H570 0.930 . S
C580 C579 1.400 . S
C580 C583 1.386 1_556 S
H581 C597 0.930 . S
H582 C598 0.931 . S
C583 H571 0.929 . S
C583 C577 1.390 . S
C583 C580 1.386 1_554 S
C584 C579 1.490 . S
C584 C586 1.395 . S
C584 C587 1.403 . S
H585 C591 0.930 . S
C586 H572 0.930 . S
C586 C584 1.395 . S
C586 C589 1.403 . S
C587 C584 1.403 . S
C587 C588 1.524 . S
C587 C591 1.400 . S
C588 H573 0.960 . S
C588 H574 0.960 . S
C588 H575 0.960 . S
C588 C587 1.524 . S
C589 C586 1.403 . S
C589 C590 1.392 . S
C589 C593 1.495 . S
C590 C589 1.392 . S
C590 C591 1.385 . S
C590 C592 1.478 . S
C591 H585 0.930 . S
C591 C587 1.400 . S
C591 C590 1.385 . S
C592 C590 1.478 . S
C592 C594 1.381 . S
C592 C598 1.383 . S
C593 C589 1.495 . S
C593 H599 0.959 . S
C593 H600 0.961 . S
C593 H601 0.960 . S
C594 C592 1.381 . S
C594 C595 1.394 . S
C594 H602 0.930 . S
C595 C594 1.394 . S
C595 C596 1.383 . S
C595 H603 0.929 . S
C596 C595 1.383 . S
C596 C597 1.377 . S
C597 H581 0.930 . S
C597 C596 1.377 . S
C597 C598 1.379 . S
C598 H582 0.931 . S
C598 C592 1.383 . S
C598 C597 1.379 . S
H599 C593 0.959 . S
H600 C593 0.961 . S
H601 C593 0.960 . S
H602 C594 0.930 . S
H603 C595 0.929 . S
H604 C612 0.929 . S
H605 C614 0.930 . S
H606 C616 0.930 . S
H607 C619 0.929 . S
H608 C622 0.930 . S
H609 C624 0.960 . S
H610 C624 0.960 . S
H611 C624 0.960 . S
C612 H604 0.929 . S
C612 C613 1.377 . S
C612 C614 1.384 . S
C613 C612 1.377 . S
C613 C619 1.390 . S
C614 H605 0.930 . S
C614 C612 1.384 . S
C614 C615 1.372 . S
C615 C614 1.372 . S
C615 C616 1.400 . S
C615 C620 1.490 . S
C616 H606 0.930 . S
C616 C615 1.400 . S
C616 C619 1.386 . S
H617 C633 0.930 . S
H618 C634 0.931 . S
C619 H607 0.929 . S
C619 C613 1.390 . S
C619 C616 1.386 . S
C620 C615 1.490 . S
C620 C622 1.395 . S
C620 C623 1.403 . S
H621 C627 0.930 . S
C622 H608 0.930 . S
C622 C620 1.395 . S
C622 C625 1.403 . S
C623 C620 1.403 . S
C623 C624 1.524 . S
C623 C627 1.400 . S
C624 H609 0.960 . S
C624 H610 0.960 . S
C624 H611 0.960 . S
C624 C623 1.524 . S
C625 C622 1.403 . S
C625 C626 1.392 . S
C625 C629 1.495 . S
C626 C625 1.392 . S
C626 C627 1.385 . S
C626 C628 1.478 . S
C627 H621 0.930 . S
C627 C623 1.400 . S
C627 C626 1.385 . S
C628 C626 1.478 . S
C628 C630 1.381 . S
C628 C634 1.383 . S
C629 C625 1.495 . S
C629 H635 0.959 . S
C629 H636 0.961 . S
C629 H637 0.960 . S
C630 C628 1.381 . S
C630 C631 1.394 . S
C630 H638 0.930 . S
C631 C630 1.394 . S
C631 C632 1.383 . S
C631 H639 0.929 . S
C632 C631 1.383 . S
C632 C633 1.377 . S
C633 H617 0.930 . S
C633 C632 1.377 . S
C633 C634 1.379 . S
C634 H618 0.931 . S
C634 C628 1.383 . S
C634 C633 1.379 . S
H635 C629 0.959 . S
H636 C629 0.961 . S
H637 C629 0.960 . S
H638 C630 0.930 . S
H639 C631 0.929 . S
H640 C648 0.929 . S
H641 C650 0.930 . S
H642 C652 0.930 . S
H643 C655 0.929 . S
H644 C658 0.930 . S
H645 C660 0.960 . S
H646 C660 0.960 . S
H647 C660 0.960 . S
C648 H640 0.929 . S
C648 C649 1.377 . S
C648 C650 1.384 . S
C649 C648 1.377 . S
C649 C655 1.390 . S
C650 H641 0.930 . S
C650 C648 1.384 . S
C650 C651 1.372 . S
C651 C650 1.372 . S
C651 C652 1.400 . S
C651 C656 1.490 . S
C652 H642 0.930 . S
C652 C651 1.400 . S
C652 C655 1.386 . S
H653 C669 0.930 . S
H654 C670 0.931 . S
C655 H643 0.929 . S
C655 C649 1.390 . S
C655 C652 1.386 . S
C656 C651 1.490 . S
C656 C658 1.395 . S
C656 C659 1.403 . S
H657 C663 0.930 . S
C658 H644 0.930 . S
C658 C656 1.395 . S
C658 C661 1.403 . S
C659 C656 1.403 . S
C659 C660 1.524 . S
C659 C663 1.400 . S
C660 H645 0.960 . S
C660 H646 0.960 . S
C660 H647 0.960 . S
C660 C659 1.524 . S
C661 C658 1.403 . S
C661 C662 1.392 . S
C661 C665 1.495 . S
C662 C661 1.392 . S
C662 C663 1.385 . S
C662 C664 1.478 . S
C663 H657 0.930 . S
C663 C659 1.400 . S
C663 C662 1.385 . S
C664 C662 1.478 . S
C664 C666 1.381 1_554 S
C664 C670 1.383 . S
C665 C661 1.495 . S
C665 H671 0.959 . S
C665 H672 0.961 . S
C665 H673 0.960 . S
C666 C664 1.381 1_556 S
C666 C667 1.394 . S
C666 H674 0.930 . S
C667 C666 1.394 . S
C667 C668 1.383 . S
C667 H675 0.929 . S
C668 C667 1.383 . S
C668 C669 1.377 1_556 S
C669 H653 0.930 . S
C669 C668 1.377 1_554 S
C669 C670 1.379 . S
C670 H654 0.931 . S
C670 C664 1.383 . S
C670 C669 1.379 . S
H671 C665 0.959 . S
H672 C665 0.961 . S
H673 C665 0.960 . S
H674 C666 0.930 . S
H675 C667 0.929 . S
H676 C684 0.929 . S
H677 C686 0.930 . S
H678 C688 0.930 . S
H679 C691 0.929 . S
H680 C694 0.930 . S
H681 C696 0.960 . S
H682 C696 0.960 . S
H683 C696 0.960 . S
C684 H676 0.929 . S
C684 C685 1.377 . S
C684 C686 1.384 . S
C685 C684 1.377 . S
C685 C691 1.390 . S
C686 H677 0.930 . S
C686 C684 1.384 . S
C686 C687 1.372 . S
C687 C686 1.372 . S
C687 C688 1.400 . S
C687 C692 1.490 . S
C688 H678 0.930 . S
C688 C687 1.400 . S
C688 C691 1.386 . S
H689 C705 0.930 . S
H690 C706 0.931 . S
C691 H679 0.929 . S
C691 C685 1.390 . S
C691 C688 1.386 . S
C692 C687 1.490 . S
C692 C694 1.395 . S
C692 C695 1.403 . S
H693 C699 0.930 . S
C694 H680 0.930 . S
C694 C692 1.395 . S
C694 C697 1.403 . S
C695 C692 1.403 . S
C695 C696 1.524 . S
C695 C699 1.400 . S
C696 H681 0.960 . S
C696 H682 0.960 . S
C696 H683 0.960 . S
C696 C695 1.524 . S
C697 C694 1.403 . S
C697 C698 1.392 . S
C697 C701 1.495 . S
C698 C697 1.392 . S
C698 C699 1.385 . S
C698 C700 1.478 . S
C699 H693 0.930 . S
C699 C695 1.400 . S
C699 C698 1.385 . S
C700 C698 1.478 . S
C700 C702 1.381 . S
C700 C706 1.383 . S
C701 C697 1.495 . S
C701 H707 0.959 . S
C701 H708 0.961 . S
C701 H709 0.960 . S
C702 C700 1.381 . S
C702 C703 1.394 . S
C702 H710 0.930 . S
C703 C702 1.394 . S
C703 C704 1.383 . S
C703 H711 0.929 . S
C704 C703 1.383 . S
C704 C705 1.377 . S
C705 H689 0.930 . S
C705 C704 1.377 . S
C705 C706 1.379 . S
C706 H690 0.931 . S
C706 C700 1.383 . S
C706 C705 1.379 . S
H707 C701 0.959 . S
H708 C701 0.961 . S
H709 C701 0.960 . S
H710 C702 0.930 . S
H711 C703 0.929 . S
H712 C720 0.929 . S
H713 C722 0.930 . S
H714 C724 0.930 . S
H715 C727 0.929 . S
H716 C730 0.930 . S
H717 C732 0.960 . S
H718 C732 0.960 . S
H719 C732 0.960 . S
C720 H712 0.929 . S
C720 C721 1.377 . S
C720 C722 1.384 . S
C721 C720 1.377 . S
C721 C727 1.390 . S
C722 H713 0.930 . S
C722 C720 1.384 . S
C722 C723 1.372 . S
C723 C722 1.372 . S
C723 C724 1.400 . S
C723 C728 1.490 . S
C724 H714 0.930 . S
C724 C723 1.400 . S
C724 C727 1.386 . S
H725 C741 0.930 . S
H726 C742 0.931 . S
C727 H715 0.929 . S
C727 C721 1.390 . S
C727 C724 1.386 . S
C728 C723 1.490 . S
C728 C730 1.395 . S
C728 C731 1.403 . S
H729 C735 0.930 . S
C730 H716 0.930 . S
C730 C728 1.395 . S
C730 C733 1.403 . S
C731 C728 1.403 . S
C731 C732 1.524 . S
C731 C735 1.400 . S
C732 H717 0.960 . S
C732 H718 0.960 . S
C732 H719 0.960 . S
C732 C731 1.524 . S
C733 C730 1.403 . S
C733 C734 1.392 . S
C733 C737 1.495 . S
C734 C733 1.392 . S
C734 C735 1.385 . S
C734 C736 1.478 . S
C735 H729 0.930 . S
C735 C731 1.400 . S
C735 C734 1.385 . S
C736 C734 1.478 . S
C736 C738 1.381 1_554 S
C736 C742 1.383 . S
C737 C733 1.495 . S
C737 H743 0.959 . S
C737 H744 0.961 1_554 S
C737 H745 0.960 1_554 S
C738 C736 1.381 1_556 S
C738 C739 1.394 . S
C738 H746 0.930 . S
C739 C738 1.394 . S
C739 C740 1.383 . S
C739 H747 0.929 . S
C740 C739 1.383 . S
C740 C741 1.377 . S
C741 H725 0.930 . S
C741 C740 1.377 . S
C741 C742 1.379 1_556 S
C742 H726 0.931 . S
C742 C736 1.383 . S
C742 C741 1.379 1_554 S
H743 C737 0.959 . S
H744 C737 0.961 1_556 S
H745 C737 0.960 1_556 S
H746 C738 0.930 . S
H747 C739 0.929 . S
H748 C756 0.929 . S
H749 C758 0.930 . S
H750 C760 0.930 . S
H751 C763 0.929 . S
H752 C766 0.930 . S
H753 C768 0.960 . S
H754 C768 0.960 . S
H755 C768 0.960 . S
C756 H748 0.929 . S
C756 C757 1.377 . S
C756 C758 1.384 . S
C757 C756 1.377 . S
C757 C763 1.390 . S
C758 H749 0.930 . S
C758 C756 1.384 . S
C758 C759 1.372 . S
C759 C758 1.372 . S
C759 C760 1.400 . S
C759 C764 1.490 . S
C760 H750 0.930 . S
C760 C759 1.400 . S
C760 C763 1.386 . S
H761 C777 0.930 . S
H762 C778 0.931 . S
C763 H751 0.929 . S
C763 C757 1.390 . S
C763 C760 1.386 . S
C764 C759 1.490 . S
C764 C766 1.395 . S
C764 C767 1.403 . S
H765 C771 0.930 . S
C766 H752 0.930 . S
C766 C764 1.395 . S
C766 C769 1.403 . S
C767 C764 1.403 . S
C767 C768 1.524 . S
C767 C771 1.400 . S
C768 H753 0.960 . S
C768 H754 0.960 . S
C768 H755 0.960 . S
C768 C767 1.524 . S
C769 C766 1.403 . S
C769 C770 1.392 . S
C769 C773 1.495 . S
C770 C769 1.392 . S
C770 C771 1.385 . S
C770 C772 1.478 . S
C771 H765 0.930 . S
C771 C767 1.400 . S
C771 C770 1.385 . S
C772 C770 1.478 . S
C772 C774 1.381 . S
C772 C778 1.383 . S
C773 C769 1.495 . S
C773 H779 0.959 . S
C773 H780 0.961 . S
C773 H781 0.960 . S
C774 C772 1.381 . S
C774 C775 1.394 . S
C774 H782 0.930 . S
C775 C774 1.394 . S
C775 C776 1.383 . S
C775 H783 0.929 . S
C776 C775 1.383 . S
C776 C777 1.377 . S
C777 H761 0.930 . S
C777 C776 1.377 . S
C777 C778 1.379 . S
C778 H762 0.931 . S
C778 C772 1.383 . S
C778 C777 1.379 . S
H779 C773 0.959 . S
H780 C773 0.961 . S
H781 C773 0.960 . S
H782 C774 0.930 . S
H783 C775 0.929 . S
H784 C792 0.927 1_554 S
H785 C794 0.930 . S
H786 C796 0.930 . S
H787 C799 0.929 . S
H788 C802 0.930 . S
H789 C804 0.960 . S
H790 C804 0.960 . S
H791 C804 0.960 . S
C792 H784 0.927 1_556 S
C792 C793 1.395 . S
C792 C794 1.368 1_556 S
C793 C792 1.395 . S
C793 C799 1.390 . S
C794 H785 0.930 . S
C794 C792 1.368 1_554 S
C794 C795 1.372 . S
C795 C794 1.372 . S
C795 C796 1.400 1_554 S
C795 C800 1.490 . S
C796 H786 0.930 . S
C796 C795 1.400 1_556 S
C796 C799 1.386 . S
H797 C813 0.930 . S
H798 C814 0.931 . S
C799 H787 0.929 . S
C799 C793 1.390 . S
C799 C796 1.386 . S
C800 C795 1.490 . S
C800 C802 1.395 . S
C800 C803 1.403 . S
H801 C807 0.930 . S
C802 H788 0.930 . S
C802 C800 1.395 . S
C802 C805 1.403 . S
C803 C800 1.403 . S
C803 C804 1.524 . S
C803 C807 1.400 . S
C804 H789 0.960 . S
C804 H790 0.960 . S
C804 H791 0.960 . S
C804 C803 1.524 . S
C805 C802 1.403 . S
C805 C806 1.392 . S
C805 C809 1.495 . S
C806 C805 1.392 . S
C806 C807 1.385 . S
C806 C808 1.478 . S
C807 H801 0.930 . S
C807 C803 1.400 . S
C807 C806 1.385 . S
C808 C806 1.478 . S
C808 C810 1.381 . S
C808 C814 1.383 . S
C809 C805 1.495 . S
C809 H815 0.959 . S
C809 H816 0.961 . S
C809 H817 0.960 . S
C810 C808 1.381 . S
C810 C811 1.394 . S
C810 H818 0.930 . S
C811 C810 1.394 . S
C811 C812 1.383 . S
C811 H819 0.929 . S
C812 C811 1.383 . S
C812 C813 1.377 . S
C813 H797 0.930 . S
C813 C812 1.377 . S
C813 C814 1.379 . S
C814 H798 0.931 . S
C814 C808 1.383 . S
C814 C813 1.379 . S
H815 C809 0.959 . S
H816 C809 0.961 . S
H817 C809 0.960 . S
H818 C810 0.930 . S
H819 C811 0.929 . S
H820 C828 0.929 . S
H821 C830 0.930 . S
H822 C832 0.930 . S
H823 C835 0.929 . S
H824 C838 0.930 . S
H825 C840 0.960 . S
H826 C840 0.960 . S
H827 C840 0.960 . S
C828 H820 0.929 . S
C828 C829 1.377 . S
C828 C830 1.384 . S
C829 C828 1.377 . S
C829 C835 1.390 . S
C830 H821 0.930 . S
C830 C828 1.384 . S
C830 C831 1.372 . S
C831 C830 1.372 . S
C831 C832 1.400 . S
C831 C836 1.490 . S
C832 H822 0.930 . S
C832 C831 1.400 . S
C832 C835 1.386 . S
H833 C849 0.930 . S
H834 C850 0.931 . S
C835 H823 0.929 . S
C835 C829 1.390 . S
C835 C832 1.386 . S
C836 C831 1.490 . S
C836 C838 1.395 . S
C836 C839 1.403 . S
H837 C843 0.930 . S
C838 H824 0.930 . S
C838 C836 1.395 . S
C838 C841 1.403 . S
C839 C836 1.403 . S
C839 C840 1.524 . S
C839 C843 1.400 . S
C840 H825 0.960 . S
C840 H826 0.960 . S
C840 H827 0.960 . S
C840 C839 1.524 . S
C841 C838 1.403 . S
C841 C842 1.392 . S
C841 C845 1.495 . S
C842 C841 1.392 . S
C842 C843 1.385 . S
C842 C844 1.478 . S
C843 H837 0.930 . S
C843 C839 1.400 . S
C843 C842 1.385 . S
C844 C842 1.478 . S
C844 C846 1.381 . S
C844 C850 1.383 . S
C845 C841 1.495 . S
C845 H851 0.959 . S
C845 H852 0.961 . S
C845 H853 0.960 . S
C846 C844 1.381 . S
C846 C847 1.394 . S
C846 H854 0.930 . S
C847 C846 1.394 . S
C847 C848 1.383 . S
C847 H855 0.929 . S
C848 C847 1.383 . S
C848 C849 1.377 . S
C849 H833 0.930 . S
C849 C848 1.377 . S
C849 C850 1.379 . S
C850 H834 0.931 . S
C850 C844 1.383 . S
C850 C849 1.379 . S
H851 C845 0.959 . S
H852 C845 0.961 . S
H853 C845 0.960 . S
H854 C846 0.930 . S
H855 C847 0.929 . S
H856 C864 0.929 . S
H857 C866 0.930 . S
H858 C868 0.930 . S
H859 C871 0.929 . S
H860 C874 0.930 . S
H861 C876 0.960 . S
H862 C876 0.960 . S
H863 C876 0.960 . S
C864 H856 0.929 . S
C864 C865 1.377 . S
C864 C866 1.384 . S
C865 C864 1.377 . S
C865 C871 1.390 . S
C866 H857 0.930 . S
C866 C864 1.384 . S
C866 C867 1.372 . S
C867 C866 1.372 . S
C867 C868 1.400 . S
C867 C872 1.490 . S
C868 H858 0.930 . S
C868 C867 1.400 . S
C868 C871 1.386 . S
H869 C885 0.925 1_554 S
H870 C886 0.931 . S
C871 H859 0.929 . S
C871 C865 1.390 . S
C871 C868 1.386 . S
C872 C867 1.490 . S
C872 C874 1.395 . S
C872 C875 1.403 . S
H873 C879 0.930 . S
C874 H860 0.930 . S
C874 C872 1.395 . S
C874 C877 1.403 . S
C875 C872 1.403 . S
C875 C876 1.524 . S
C875 C879 1.400 . S
C876 H861 0.960 . S
C876 H862 0.960 . S
C876 H863 0.960 . S
C876 C875 1.524 . S
C877 C874 1.403 . S
C877 C878 1.392 . S
C877 C881 1.495 . S
C878 C877 1.392 . S
C878 C879 1.385 . S
C878 C880 1.478 . S
C879 H873 0.930 . S
C879 C875 1.400 . S
C879 C878 1.385 . S
C880 C878 1.478 . S
C880 C882 1.381 1_554 S
C880 C886 1.383 . S
C881 C877 1.495 . S
C881 H887 0.959 . S
C881 H888 0.961 . S
C881 H889 0.960 1_554 S
C882 C880 1.381 1_556 S
C882 C883 1.394 . S
C882 H890 0.930 . S
C883 C882 1.394 . S
C883 C884 1.383 . S
C883 H891 0.929 . S
C884 C883 1.383 . S
C884 C885 1.398 . S
C885 H869 0.925 1_556 S
C885 C884 1.398 . S
C885 C886 1.363 1_556 S
C886 H870 0.931 . S
C886 C880 1.383 . S
C886 C885 1.363 1_554 S
H887 C881 0.959 . S
H888 C881 0.961 . S
H889 C881 0.960 1_556 S
H890 C882 0.930 . S
H891 C883 0.929 . S
H892 C900 0.929 . S
H893 C902 0.930 . S
H894 C904 0.930 . S
H895 C907 0.929 . S
H896 C910 0.930 . S
H897 C912 0.960 . S
H898 C912 0.960 . S
H899 C912 0.960 . S
C900 H892 0.929 . S
C900 C901 1.377 . S
C900 C902 1.384 . S
C901 C900 1.377 . S
C901 C907 1.390 . S
C902 H893 0.930 . S
C902 C900 1.384 . S
C902 C903 1.372 . S
C903 C902 1.372 . S
C903 C904 1.400 . S
C903 C908 1.490 . S
C904 H894 0.930 . S
C904 C903 1.400 . S
C904 C907 1.386 . S
H905 C921 0.930 . S
H906 C922 0.931 . S
C907 H895 0.929 . S
C907 C901 1.390 . S
C907 C904 1.386 . S
C908 C903 1.490 . S
C908 C910 1.395 . S
C908 C911 1.403 . S
H909 C915 0.930 . S
C910 H896 0.930 . S
C910 C908 1.395 . S
C910 C913 1.403 . S
C911 C908 1.403 . S
C911 C912 1.524 . S
C911 C915 1.400 . S
C912 H897 0.960 . S
C912 H898 0.960 . S
C912 H899 0.960 . S
C912 C911 1.524 . S
C913 C910 1.403 . S
C913 C914 1.392 . S
C913 C917 1.495 . S
C914 C913 1.392 . S
C914 C915 1.385 . S
C914 C916 1.478 . S
C915 H909 0.930 . S
C915 C911 1.400 . S
C915 C914 1.385 . S
C916 C914 1.478 . S
C916 C918 1.381 . S
C916 C922 1.383 . S
C917 C913 1.495 . S
C917 H923 0.959 . S
C917 H924 0.961 . S
C917 H925 0.960 . S
C918 C916 1.381 . S
C918 C919 1.394 . S
C918 H926 0.930 . S
C919 C918 1.394 . S
C919 C920 1.383 . S
C919 H927 0.929 . S
C920 C919 1.383 . S
C920 C921 1.377 . S
C921 H905 0.930 . S
C921 C920 1.377 . S
C921 C922 1.379 . S
C922 H906 0.931 . S
C922 C916 1.383 . S
C922 C921 1.379 . S
H923 C917 0.959 . S
H924 C917 0.961 . S
H925 C917 0.960 . S
H926 C918 0.930 . S
H927 C919 0.929 . S
H928 C936 0.929 . S
H929 C938 0.930 . S
H930 C940 0.930 . S
H931 C943 0.929 . S
H932 C946 0.930 . S
H933 C948 0.960 . S
H934 C948 0.960 . S
H935 C948 0.960 . S
C936 H928 0.929 . S
C936 C937 1.377 . S
C936 C938 1.384 . S
C937 C936 1.377 . S
C937 C943 1.390 . S
C938 H929 0.930 . S
C938 C936 1.384 . S
C938 C939 1.372 . S
C939 C938 1.372 . S
C939 C940 1.400 . S
C939 C944 1.490 . S
C940 H930 0.930 . S
C940 C939 1.400 . S
C940 C943 1.386 . S
H941 C957 0.930 . S
H942 C958 0.931 . S
C943 H931 0.929 . S
C943 C937 1.390 . S
C943 C940 1.386 . S
C944 C939 1.490 . S
C944 C946 1.395 . S
C944 C947 1.403 . S
H945 C951 0.930 . S
C946 H932 0.930 . S
C946 C944 1.395 . S
C946 C949 1.403 . S
C947 C944 1.403 . S
C947 C948 1.524 . S
C947 C951 1.400 . S
C948 H933 0.960 . S
C948 H934 0.960 . S
C948 H935 0.960 . S
C948 C947 1.524 . S
C949 C946 1.403 . S
C949 C950 1.392 . S
C949 C953 1.495 . S
C950 C949 1.392 . S
C950 C951 1.385 . S
C950 C952 1.478 . S
C951 H945 0.930 . S
C951 C947 1.400 . S
C951 C950 1.385 . S
C952 C950 1.478 . S
C952 C954 1.381 1_556 S
C952 C958 1.383 . S
C953 C949 1.495 . S
C953 H959 0.959 . S
C953 H960 0.961 . S
C953 H961 0.960 . S
C954 C952 1.381 1_554 S
C954 C955 1.394 . S
C954 H962 0.930 . S
C955 C954 1.394 . S
C955 C956 1.383 . S
C955 H963 0.929 . S
C956 C955 1.383 . S
C956 C957 1.377 1_554 S
C957 H941 0.930 . S
C957 C956 1.377 1_556 S
C957 C958 1.379 . S
C958 H942 0.931 . S
C958 C952 1.383 . S
C958 C957 1.379 . S
H959 C953 0.959 . S
H960 C953 0.961 . S
H961 C953 0.960 . S
H962 C954 0.930 . S
H963 C955 0.929 . S
H964 C972 0.929 . S
H965 C974 0.930 . S
H966 C976 0.930 . S
H967 C979 0.929 . S
H968 C982 0.930 . S
H969 C984 0.960 . S
H970 C984 0.960 . S
H971 C984 0.960 . S
C972 H964 0.929 . S
C972 C973 1.377 . S
C972 C974 1.384 . S
C973 C972 1.377 . S
C973 C979 1.390 . S
C974 H965 0.930 . S
C974 C972 1.384 . S
C974 C975 1.372 . S
C975 C974 1.372 . S
C975 C976 1.400 . S
C975 C980 1.490 . S
C976 H966 0.930 . S
C976 C975 1.400 . S
C976 C979 1.386 . S
H977 C993 0.930 . S
H978 C994 0.931 . S
C979 H967 0.929 . S
C979 C973 1.390 . S
C979 C976 1.386 . S
C980 C975 1.490 . S
C980 C982 1.395 . S
C980 C983 1.403 . S
H981 C987 0.930 . S
C982 H968 0.930 . S
C982 C980 1.395 . S
C982 C985 1.403 . S
C983 C980 1.403 . S
C983 C984 1.524 . S
C983 C987 1.400 . S
C984 H969 0.960 . S
C984 H970 0.960 . S
C984 H971 0.960 . S
C984 C983 1.524 . S
C985 C982 1.403 . S
C985 C986 1.392 . S
C985 C989 1.495 . S
C986 C985 1.392 . S
C986 C987 1.385 . S
C986 C988 1.478 . S
C987 H981 0.930 . S
C987 C983 1.400 . S
C987 C986 1.385 . S
C988 C986 1.478 . S
C988 C990 1.381 . S
C988 C994 1.383 . S
C989 C985 1.495 . S
C989 H995 0.959 . S
C989 H996 0.961 . S
C989 H997 0.960 . S
C990 C988 1.381 . S
C990 C991 1.394 . S
C990 H998 0.930 . S
C991 C990 1.394 . S
C991 C992 1.383 . S
C991 H999 0.929 . S
C992 C991 1.383 . S
C992 C993 1.377 . S
C993 H977 0.930 . S
C993 C992 1.377 . S
C993 C994 1.379 . S
C994 H978 0.931 . S
C994 C988 1.383 . S
C994 C993 1.379 . S
H995 C989 0.959 . S
H996 C989 0.961 . S
H997 C989 0.960 . S
H998 C990 0.930 . S
H999 C991 0.929 . S
H1000 C1008 0.929 . S
H1001 C1010 0.930 . S
H1002 C1012 0.930 . S
H1003 C1015 0.929 . S
H1004 C1018 0.930 . S
H1005 C1020 0.960 . S
H1006 C1020 0.960 . S
H1007 C1020 0.960 . S
C1008 H1000 0.929 . S
C1008 C1009 1.377 . S
C1008 C1010 1.384 . S
C1009 C1008 1.377 . S
C1009 C1015 1.390 1_554 S
C1010 H1001 0.930 . S
C1010 C1008 1.384 . S
C1010 C1011 1.372 1_554 S
C1011 C1010 1.372 1_556 S
C1011 C1012 1.400 . S
C1011 C1016 1.490 . S
C1012 H1002 0.930 . S
C1012 C1011 1.400 . S
C1012 C1015 1.386 . S
H1013 C1029 0.930 . S
H1014 C1030 0.931 . S
C1015 H1003 0.929 . S
C1015 C1009 1.390 1_556 S
C1015 C1012 1.386 . S
C1016 C1011 1.490 . S
C1016 C1018 1.395 . S
C1016 C1019 1.403 . S
H1017 C1023 0.930 . S
C1018 H1004 0.930 . S
C1018 C1016 1.395 . S
C1018 C1021 1.403 . S
C1019 C1016 1.403 . S
C1019 C1020 1.524 . S
C1019 C1023 1.400 . S
C1020 H1005 0.960 . S
C1020 H1006 0.960 . S
C1020 H1007 0.960 . S
C1020 C1019 1.524 . S
C1021 C1018 1.403 . S
C1021 C1022 1.392 . S
C1021 C1025 1.495 . S
C1022 C1021 1.392 . S
C1022 C1023 1.385 . S
C1022 C1024 1.478 . S
C1023 H1017 0.930 . S
C1023 C1019 1.400 . S
C1023 C1022 1.385 . S
C1024 C1022 1.478 . S
C1024 C1026 1.381 . S
C1024 C1030 1.383 . S
C1025 C1021 1.495 . S
C1025 H1031 0.959 . S
C1025 H1032 0.961 . S
C1025 H1033 0.960 . S
C1026 C1024 1.381 . S
C1026 C1027 1.394 . S
C1026 H1034 0.930 . S
C1027 C1026 1.394 . S
C1027 C1028 1.383 . S
C1027 H1035 0.929 . S
C1028 C1027 1.383 . S
C1028 C1029 1.377 . S
C1029 H1013 0.930 . S
C1029 C1028 1.377 . S
C1029 C1030 1.379 . S
C1030 H1014 0.931 . S
C1030 C1024 1.383 . S
C1030 C1029 1.379 . S
H1031 C1025 0.959 . S
H1032 C1025 0.961 . S
H1033 C1025 0.960 . S
H1034 C1026 0.930 . S
H1035 C1027 0.929 . S
H1036 C1044 0.929 . S
H1037 C1046 0.930 . S
H1038 C1048 0.930 . S
H1039 C1051 0.929 . S
H1040 C1054 0.930 . S
H1041 C1056 0.960 . S
H1042 C1056 0.960 . S
H1043 C1056 0.960 . S
C1044 H1036 0.929 . S
C1044 C1045 1.377 . S
C1044 C1046 1.384 . S
C1045 C1044 1.377 . S
C1045 C1051 1.390 . S
C1046 H1037 0.930 . S
C1046 C1044 1.384 . S
C1046 C1047 1.372 . S
C1047 C1046 1.372 . S
C1047 C1048 1.400 . S
C1047 C1052 1.490 . S
C1048 H1038 0.930 . S
C1048 C1047 1.400 . S
C1048 C1051 1.386 . S
H1049 C1065 0.930 . S
H1050 C1066 0.931 . S
C1051 H1039 0.929 . S
C1051 C1045 1.390 . S
C1051 C1048 1.386 . S
C1052 C1047 1.490 . S
C1052 C1054 1.395 . S
C1052 C1055 1.403 . S
H1053 C1059 0.930 . S
C1054 H1040 0.930 . S
C1054 C1052 1.395 . S
C1054 C1057 1.403 . S
C1055 C1052 1.403 . S
C1055 C1056 1.524 . S
C1055 C1059 1.400 . S
C1056 H1041 0.960 . S
C1056 H1042 0.960 . S
C1056 H1043 0.960 . S
C1056 C1055 1.524 . S
C1057 C1054 1.403 . S
C1057 C1058 1.392 . S
C1057 C1061 1.495 . S
C1058 C1057 1.392 . S
C1058 C1059 1.385 . S
C1058 C1060 1.478 . S
C1059 H1053 0.930 . S
C1059 C1055 1.400 . S
C1059 C1058 1.385 . S
C1060 C1058 1.478 . S
C1060 C1062 1.381 . S
C1060 C1066 1.383 . S
C1061 C1057 1.495 . S
C1061 H1067 0.959 . S
C1061 H1068 0.961 . S
C1061 H1069 0.960 . S
C1062 C1060 1.381 . S
C1062 C1063 1.394 . S
C1062 H1070 0.930 . S
C1063 C1062 1.394 . S
C1063 C1064 1.383 . S
C1063 H1071 0.929 . S
C1064 C1063 1.383 . S
C1064 C1065 1.377 . S
C1065 H1049 0.930 . S
C1065 C1064 1.377 . S
C1065 C1066 1.379 . S
C1066 H1050 0.931 . S
C1066 C1060 1.383 . S
C1066 C1065 1.379 . S
H1067 C1061 0.959 . S
H1068 C1061 0.961 . S
H1069 C1061 0.960 . S
H1070 C1062 0.930 . S
H1071 C1063 0.929 . S
H1072 C1080 0.929 . S
H1073 C1082 0.930 . S
H1074 C1084 0.930 . S
H1075 C1087 0.929 . S
H1076 C1090 0.930 . S
H1077 C1092 0.960 . S
H1078 C1092 0.960 . S
H1079 C1092 0.960 . S
C1080 H1072 0.929 . S
C1080 C1081 1.377 . S
C1080 C1082 1.384 . S
C1081 C1080 1.377 . S
C1081 C1087 1.390 . S
C1082 H1073 0.930 . S
C1082 C1080 1.384 . S
C1082 C1083 1.372 . S
C1083 C1082 1.372 . S
C1083 C1084 1.400 . S
C1083 C1088 1.490 . S
C1084 H1074 0.930 . S
C1084 C1083 1.400 . S
C1084 C1087 1.386 . S
H1085 C1101 0.930 . S
H1086 C1102 0.931 . S
C1087 H1075 0.929 . S
C1087 C1081 1.390 . S
C1087 C1084 1.386 . S
C1088 C1083 1.490 . S
C1088 C1090 1.395 . S
C1088 C1091 1.403 . S
H1089 C1095 0.930 . S
C1090 H1076 0.930 . S
C1090 C1088 1.395 . S
C1090 C1093 1.403 . S
C1091 C1088 1.403 . S
C1091 C1092 1.524 . S
C1091 C1095 1.400 . S
C1092 H1077 0.960 . S
C1092 H1078 0.960 . S
C1092 H1079 0.960 . S
C1092 C1091 1.524 . S
C1093 C1090 1.403 . S
C1093 C1094 1.392 . S
C1093 C1097 1.495 . S
C1094 C1093 1.392 . S
C1094 C1095 1.385 . S
C1094 C1096 1.478 . S
C1095 H1089 0.930 . S
C1095 C1091 1.400 . S
C1095 C1094 1.385 . S
C1096 C1094 1.478 . S
C1096 C1098 1.381 . S
C1096 C1102 1.383 . S
C1097 C1093 1.495 . S
C1097 H1103 0.959 . S
C1097 H1104 0.961 . S
C1097 H1105 0.960 . S
C1098 C1096 1.381 . S
C1098 C1099 1.394 . S
C1098 H1106 0.930 . S
C1099 C1098 1.394 . S
C1099 C1100 1.383 . S
C1099 H1107 0.929 . S
C1100 C1099 1.383 . S
C1100 C1101 1.377 . S
C1101 H1085 0.930 . S
C1101 C1100 1.377 . S
C1101 C1102 1.379 . S
C1102 H1086 0.931 . S
C1102 C1096 1.383 . S
C1102 C1101 1.379 . S
H1103 C1097 0.959 . S
H1104 C1097 0.961 . S
H1105 C1097 0.960 . S
H1106 C1098 0.930 . S
H1107 C1099 0.929 . S
H1108 C1116 0.929 . S
H1109 C1118 0.930 . S
H1110 C1120 0.930 . S
H1111 C1123 0.929 1_545 S
H1112 C1126 0.930 . S
H1113 C1128 0.960 . S
H1114 C1128 0.960 . S
H1115 C1128 0.960 . S
C1116 H1108 0.929 . S
C1116 C1117 1.377 . S
C1116 C1118 1.384 . S
C1117 C1116 1.377 . S
C1117 C1123 1.390 . S
C1118 H1109 0.930 . S
C1118 C1116 1.384 . S
C1118 C1119 1.372 . S
C1119 C1118 1.372 . S
C1119 C1120 1.400 . S
C1119 C1124 1.490 . S
C1120 H1110 0.930 . S
C1120 C1119 1.400 . S
C1120 C1123 1.386 . S
H1121 C1137 0.930 1_455 S
H1122 C1138 0.931 . S
C1123 H1111 0.929 1_565 S
C1123 C1117 1.390 . S
C1123 C1120 1.386 . S
C1124 C1119 1.490 . S
C1124 C1126 1.395 . S
C1124 C1127 1.403 . S
H1125 C1131 0.930 . S
C1126 H1112 0.930 . S
C1126 C1124 1.395 . S
C1126 C1129 1.403 . S
C1127 C1124 1.403 . S
C1127 C1128 1.524 . S
C1127 C1131 1.400 . S
C1128 H1113 0.960 . S
C1128 H1114 0.960 . S
C1128 H1115 0.960 . S
C1128 C1127 1.524 . S
C1129 C1126 1.403 . S
C1129 C1130 1.392 . S
C1129 C1133 1.495 . S
C1130 C1129 1.392 . S
C1130 C1131 1.385 . S
C1130 C1132 1.478 . S
C1131 H1125 0.930 . S
C1131 C1127 1.400 . S
C1131 C1130 1.385 . S
C1132 C1130 1.478 . S
C1132 C1134 1.381 . S
C1132 C1138 1.383 . S
C1133 C1129 1.495 . S
C1133 H1139 0.959 . S
C1133 H1140 0.961 . S
C1133 H1141 0.960 . S
C1134 C1132 1.381 . S
C1134 C1135 1.394 . S
C1134 H1142 0.930 . S
C1135 C1134 1.394 . S
C1135 C1136 1.383 . S
C1135 H1143 0.929 . S
C1136 C1135 1.383 . S
C1136 C1137 1.377 . S
C1137 H1121 0.930 1_655 S
C1137 C1136 1.377 . S
C1137 C1138 1.379 . S
C1138 H1122 0.931 . S
C1138 C1132 1.383 . S
C1138 C1137 1.379 . S
H1139 C1133 0.959 . S
H1140 C1133 0.961 . S
H1141 C1133 0.960 . S
H1142 C1134 0.930 . S
H1143 C1135 0.929 . S
H1144 C1152 0.929 . S
H1145 C1154 0.930 . S
H1146 C1156 0.930 . S
H1147 C1159 0.929 . S
H1148 C1162 0.930 . S
H1149 C1164 0.960 . S
H1150 C1164 0.960 . S
H1151 C1164 0.960 . S
C1152 H1144 0.929 . S
C1152 C1153 1.377 . S
C1152 C1154 1.384 . S
C1153 C1152 1.377 . S
C1153 C1159 1.390 . S
C1154 H1145 0.930 . S
C1154 C1152 1.384 . S
C1154 C1155 1.372 . S
C1155 C1154 1.372 . S
C1155 C1156 1.400 . S
C1155 C1160 1.490 . S
C1156 H1146 0.930 . S
C1156 C1155 1.400 . S
C1156 C1159 1.386 . S
H1157 C1173 0.930 . S
H1158 C1174 0.931 . S
C1159 H1147 0.929 . S
C1159 C1153 1.390 . S
C1159 C1156 1.386 . S
C1160 C1155 1.490 . S
C1160 C1162 1.395 . S
C1160 C1163 1.403 . S
H1161 C1167 0.930 . S
C1162 H1148 0.930 . S
C1162 C1160 1.395 . S
C1162 C1165 1.403 . S
C1163 C1160 1.403 . S
C1163 C1164 1.524 . S
C1163 C1167 1.400 . S
C1164 H1149 0.960 . S
C1164 H1150 0.960 . S
C1164 H1151 0.960 . S
C1164 C1163 1.524 . S
C1165 C1162 1.403 . S
C1165 C1166 1.392 . S
C1165 C1169 1.495 . S
C1166 C1165 1.392 . S
C1166 C1167 1.385 . S
C1166 C1168 1.478 . S
C1167 H1161 0.930 . S
C1167 C1163 1.400 . S
C1167 C1166 1.385 . S
C1168 C1166 1.478 . S
C1168 C1170 1.381 . S
C1168 C1174 1.383 . S
C1169 C1165 1.495 . S
C1169 H1175 0.959 . S
C1169 H1176 0.961 . S
C1169 H1177 0.960 . S
C1170 C1168 1.381 . S
C1170 C1171 1.394 . S
C1170 H1178 0.930 . S
C1171 C1170 1.394 . S
C1171 C1172 1.383 . S
C1171 H1179 0.929 . S
C1172 C1171 1.383 . S
C1172 C1173 1.377 . S
C1173 H1157 0.930 . S
C1173 C1172 1.377 . S
C1173 C1174 1.379 . S
C1174 H1158 0.931 . S
C1174 C1168 1.383 . S
C1174 C1173 1.379 . S
H1175 C1169 0.959 . S
H1176 C1169 0.961 . S
H1177 C1169 0.960 . S
H1178 C1170 0.930 . S
H1179 C1171 0.929 . S
H1180 C1188 0.929 . S
H1181 C1190 0.930 . S
H1182 C1192 0.930 . S
H1183 C1195 0.929 . S
H1184 C1198 0.930 . S
H1185 C1200 0.960 . S
H1186 C1200 0.960 . S
H1187 C1200 0.960 . S
C1188 H1180 0.929 . S
C1188 C1189 1.377 . S
C1188 C1190 1.384 . S
C1189 C1188 1.377 . S
C1189 C1195 1.390 . S
C1190 H1181 0.930 . S
C1190 C1188 1.384 . S
C1190 C1191 1.372 . S
C1191 C1190 1.372 . S
C1191 C1192 1.400 . S
C1191 C1196 1.490 . S
C1192 H1182 0.930 . S
C1192 C1191 1.400 . S
C1192 C1195 1.386 . S
H1193 C1209 0.930 . S
H1194 C1210 0.931 . S
C1195 H1183 0.929 . S
C1195 C1189 1.390 . S
C1195 C1192 1.386 . S
C1196 C1191 1.490 . S
C1196 C1198 1.395 . S
C1196 C1199 1.403 . S
H1197 C1203 0.930 . S
C1198 H1184 0.930 . S
C1198 C1196 1.395 . S
C1198 C1201 1.403 . S
C1199 C1196 1.403 . S
C1199 C1200 1.524 . S
C1199 C1203 1.400 . S
C1200 H1185 0.960 . S
C1200 H1186 0.960 . S
C1200 H1187 0.960 . S
C1200 C1199 1.524 . S
C1201 C1198 1.403 . S
C1201 C1202 1.392 . S
C1201 C1205 1.495 . S
C1202 C1201 1.392 . S
C1202 C1203 1.385 . S
C1202 C1204 1.478 . S
C1203 H1197 0.930 . S
C1203 C1199 1.400 . S
C1203 C1202 1.385 . S
C1204 C1202 1.478 . S
C1204 C1206 1.381 . S
C1204 C1210 1.383 . S
C1205 C1201 1.495 . S
C1205 H1211 0.959 . S
C1205 H1212 0.961 . S
C1205 H1213 0.960 . S
C1206 C1204 1.381 . S
C1206 C1207 1.394 . S
C1206 H1214 0.930 . S
C1207 C1206 1.394 . S
C1207 C1208 1.383 . S
C1207 H1215 0.929 . S
C1208 C1207 1.383 . S
C1208 C1209 1.377 . S
C1209 H1193 0.930 . S
C1209 C1208 1.377 . S
C1209 C1210 1.379 . S
C1210 H1194 0.931 . S
C1210 C1204 1.383 . S
C1210 C1209 1.379 . S
H1211 C1205 0.959 . S
H1212 C1205 0.961 . S
H1213 C1205 0.960 . S
H1214 C1206 0.930 . S
H1215 C1207 0.929 . S
H1216 C1224 0.929 . S
H1217 C1226 0.930 . S
H1218 C1228 0.930 . S
H1219 C1231 0.929 . S
H1220 C1234 0.930 . S
H1221 C1236 0.960 . S
H1222 C1236 0.960 . S
H1223 C1236 0.960 . S
C1224 H1216 0.929 . S
C1224 C1225 1.377 . S
C1224 C1226 1.384 . S
C1225 C1224 1.377 . S
C1225 C1231 1.390 . S
C1226 H1217 0.930 . S
C1226 C1224 1.384 . S
C1226 C1227 1.372 . S
C1227 C1226 1.372 . S
C1227 C1228 1.400 . S
C1227 C1232 1.490 . S
C1228 H1218 0.930 . S
C1228 C1227 1.400 . S
C1228 C1231 1.386 . S
H1229 C1245 0.930 . S
H1230 C1246 0.931 . S
C1231 H1219 0.929 . S
C1231 C1225 1.390 . S
C1231 C1228 1.386 . S
C1232 C1227 1.490 . S
C1232 C1234 1.395 . S
C1232 C1235 1.403 . S
H1233 C1239 0.930 . S
C1234 H1220 0.930 . S
C1234 C1232 1.395 . S
C1234 C1237 1.403 . S
C1235 C1232 1.403 . S
C1235 C1236 1.524 . S
C1235 C1239 1.400 . S
C1236 H1221 0.960 . S
C1236 H1222 0.960 . S
C1236 H1223 0.960 . S
C1236 C1235 1.524 . S
C1237 C1234 1.403 . S
C1237 C1238 1.392 . S
C1237 C1241 1.495 . S
C1238 C1237 1.392 . S
C1238 C1239 1.385 . S
C1238 C1240 1.478 . S
C1239 H1233 0.930 . S
C1239 C1235 1.400 . S
C1239 C1238 1.385 . S
C1240 C1238 1.478 . S
C1240 C1242 1.381 . S
C1240 C1246 1.383 . S
C1241 C1237 1.495 . S
C1241 H1247 0.959 . S
C1241 H1248 0.961 . S
C1241 H1249 0.960 . S
C1242 C1240 1.381 . S
C1242 C1243 1.394 . S
C1242 H1250 0.930 . S
C1243 C1242 1.394 . S
C1243 C1244 1.383 . S
C1243 H1251 0.929 . S
C1244 C1243 1.383 . S
C1244 C1245 1.377 . S
C1245 H1229 0.930 . S
C1245 C1244 1.377 . S
C1245 C1246 1.379 . S
C1246 H1230 0.931 . S
C1246 C1240 1.383 . S
C1246 C1245 1.379 . S
H1247 C1241 0.959 . S
H1248 C1241 0.961 . S
H1249 C1241 0.960 . S
H1250 C1242 0.930 . S
H1251 C1243 0.929 . S
H1252 C1260 0.929 . S
H1253 C1262 0.930 . S
H1254 C1264 0.930 . S
H1255 C1267 0.929 . S
H1256 C1270 0.930 . S
H1257 C1272 0.960 . S
H1258 C1272 0.960 . S
H1259 C1272 0.960 . S
C1260 H1252 0.929 . S
C1260 C1261 1.377 . S
C1260 C1262 1.384 . S
C1261 C1260 1.377 . S
C1261 C1267 1.390 . S
C1262 H1253 0.930 . S
C1262 C1260 1.384 . S
C1262 C1263 1.372 . S
C1263 C1262 1.372 . S
C1263 C1264 1.400 . S
C1263 C1268 1.490 . S
C1264 H1254 0.930 . S
C1264 C1263 1.400 . S
C1264 C1267 1.386 . S
H1265 C1281 0.930 . S
H1266 C1282 0.931 . S
C1267 H1255 0.929 . S
C1267 C1261 1.390 . S
C1267 C1264 1.386 . S
C1268 C1263 1.490 . S
C1268 C1270 1.395 . S
C1268 C1271 1.403 . S
H1269 C1275 0.930 . S
C1270 H1256 0.930 . S
C1270 C1268 1.395 . S
C1270 C1273 1.403 . S
C1271 C1268 1.403 . S
C1271 C1272 1.524 . S
C1271 C1275 1.400 . S
C1272 H1257 0.960 . S
C1272 H1258 0.960 . S
C1272 H1259 0.960 . S
C1272 C1271 1.524 . S
C1273 C1270 1.403 . S
C1273 C1274 1.392 . S
C1273 C1277 1.495 . S
C1274 C1273 1.392 . S
C1274 C1275 1.385 . S
C1274 C1276 1.478 . S
C1275 H1269 0.930 . S
C1275 C1271 1.400 . S
C1275 C1274 1.385 . S
C1276 C1274 1.478 . S
C1276 C1278 1.381 . S
C1276 C1282 1.383 . S
C1277 C1273 1.495 . S
C1277 H1283 0.959 . S
C1277 H1284 0.961 . S
C1277 H1285 0.960 . S
C1278 C1276 1.381 . S
C1278 C1279 1.394 . S
C1278 H1286 0.930 . S
C1279 C1278 1.394 . S
C1279 C1280 1.383 . S
C1279 H1287 0.929 . S
C1280 C1279 1.383 . S
C1280 C1281 1.377 . S
C1281 H1265 0.930 . S
C1281 C1280 1.377 . S
C1281 C1282 1.379 . S
C1282 H1266 0.931 . S
C1282 C1276 1.383 . S
C1282 C1281 1.379 . S
H1283 C1277 0.959 . S
H1284 C1277 0.961 . S
H1285 C1277 0.960 . S
H1286 C1278 0.930 . S
H1287 C1279 0.929 . S
H1288 C1296 0.929 . S
H1289 C1298 0.930 . S
H1290 C1300 0.930 . S
H1291 C1303 0.929 . S
H1292 C1306 0.930 . S
H1293 C1308 0.960 . S
H1294 C1308 0.960 . S
H1295 C1308 0.960 . S
C1296 H1288 0.929 . S
C1296 C1297 1.377 . S
C1296 C1298 1.384 . S
C1297 C1296 1.377 . S
C1297 C1303 1.390 . S
C1298 H1289 0.930 . S
C1298 C1296 1.384 . S
C1298 C1299 1.372 . S
C1299 C1298 1.372 . S
C1299 C1300 1.400 . S
C1299 C1304 1.490 . S
C1300 H1290 0.930 . S
C1300 C1299 1.400 . S
C1300 C1303 1.386 . S
H1301 C1317 0.930 . S
H1302 C1318 0.931 . S
C1303 H1291 0.929 . S
C1303 C1297 1.390 . S
C1303 C1300 1.386 . S
C1304 C1299 1.490 . S
C1304 C1306 1.395 . S
C1304 C1307 1.403 . S
H1305 C1311 0.930 . S
C1306 H1292 0.930 . S
C1306 C1304 1.395 . S
C1306 C1309 1.403 . S
C1307 C1304 1.403 . S
C1307 C1308 1.524 . S
C1307 C1311 1.400 . S
C1308 H1293 0.960 . S
C1308 H1294 0.960 . S
C1308 H1295 0.960 . S
C1308 C1307 1.524 . S
C1309 C1306 1.403 . S
C1309 C1310 1.392 . S
C1309 C1313 1.495 . S
C1310 C1309 1.392 . S
C1310 C1311 1.385 . S
C1310 C1312 1.478 . S
C1311 H1305 0.930 . S
C1311 C1307 1.400 . S
C1311 C1310 1.385 . S
C1312 C1310 1.478 . S
C1312 C1314 1.381 . S
C1312 C1318 1.383 . S
C1313 C1309 1.495 . S
C1313 H1319 0.959 . S
C1313 H1320 0.961 . S
C1313 H1321 0.960 . S
C1314 C1312 1.381 . S
C1314 C1315 1.394 . S
C1314 H1322 0.930 . S
C1315 C1314 1.394 . S
C1315 C1316 1.383 . S
C1315 H1323 0.929 . S
C1316 C1315 1.383 . S
C1316 C1317 1.377 . S
C1317 H1301 0.930 . S
C1317 C1316 1.377 . S
C1317 C1318 1.379 . S
C1318 H1302 0.931 . S
C1318 C1312 1.383 . S
C1318 C1317 1.379 . S
H1319 C1313 0.959 . S
H1320 C1313 0.961 . S
H1321 C1313 0.960 . S
H1322 C1314 0.930 . S
H1323 C1315 0.929 . S
H1324 C1332 0.929 . S
H1325 C1334 0.930 . S
H1326 C1336 0.930 . S
H1327 C1339 0.929 . S
H1328 C1342 0.930 . S
H1329 C1344 0.960 . S
H1330 C1344 0.960 . S
H1331 C1344 0.960 . S
C1332 H1324 0.929 . S
C1332 C1333 1.377 . S
C1332 C1334 1.384 . S
C1333 C1332 1.377 . S
C1333 C1339 1.390 . S
C1334 H1325 0.930 . S
C1334 C1332 1.384 . S
C1334 C1335 1.372 . S
C1335 C1334 1.372 . S
C1335 C1336 1.400 . S
C1335 C1340 1.490 . S
C1336 H1326 0.930 . S
C1336 C1335 1.400 . S
C1336 C1339 1.386 . S
H1337 C1353 0.930 . S
H1338 C1354 0.931 . S
C1339 H1327 0.929 . S
C1339 C1333 1.390 . S
C1339 C1336 1.386 . S
C1340 C1335 1.490 . S
C1340 C1342 1.395 . S
C1340 C1343 1.403 . S
H1341 C1347 0.930 . S
C1342 H1328 0.930 . S
C1342 C1340 1.395 . S
C1342 C1345 1.403 . S
C1343 C1340 1.403 . S
C1343 C1344 1.524 . S
C1343 C1347 1.400 . S
C1344 H1329 0.960 . S
C1344 H1330 0.960 . S
C1344 H1331 0.960 . S
C1344 C1343 1.524 . S
C1345 C1342 1.403 . S
C1345 C1346 1.392 . S
C1345 C1349 1.495 . S
C1346 C1345 1.392 . S
C1346 C1347 1.385 . S
C1346 C1348 1.478 . S
C1347 H1341 0.930 . S
C1347 C1343 1.400 . S
C1347 C1346 1.385 . S
C1348 C1346 1.478 . S
C1348 C1350 1.381 . S
C1348 C1354 1.383 . S
C1349 C1345 1.495 . S
C1349 H1355 0.959 . S
C1349 H1356 0.961 . S
C1349 H1357 0.960 . S
C1350 C1348 1.381 . S
C1350 C1351 1.394 . S
C1350 H1358 0.930 . S
C1351 C1350 1.394 . S
C1351 C1352 1.383 . S
C1351 H1359 0.929 . S
C1352 C1351 1.383 . S
C1352 C1353 1.377 . S
C1353 H1337 0.930 . S
C1353 C1352 1.377 . S
C1353 C1354 1.379 . S
C1354 H1338 0.931 . S
C1354 C1348 1.383 . S
C1354 C1353 1.379 . S
H1355 C1349 0.959 . S
H1356 C1349 0.961 . S
H1357 C1349 0.960 . S
H1358 C1350 0.930 . S
H1359 C1351 0.929 . S
C217 C0 1.063 . S
C236 C52 1.042 . S
C253 C65 1.072 . S
C272 C13 1.078 . S
C289 C26 1.063 . S
C308 C78 1.052 . S
C325 C39 1.064 . S
C344 C91 1.057 . S
C361 C104 1.126 . S
C380 C156 1.117 . S
C397 C169 1.125 . S
C416 C117 1.127 . S
C433 C130 1.119 . S
C452 C182 1.114 . S
C469 C143 1.125 . S
C488 C195 1.104 . S
C505 C8 1.076 . S
C524 C205 1.032 . S
C541 C166 1.077 . S
C560 C21 1.114 . S
C577 C34 1.089 . S
C596 C179 1.108 . S
C613 C192 1.067 . S
C632 C47 1.049 . S
C649 C127 1.075 . S
C668 C60 1.073 . S
C685 C140 1.069 . S
C704 C73 1.093 . S
C721 C153 1.066 . S
C740 C86 1.047 . S
C757 C114 1.079 . S
C776 C99 1.114 . S
C793 C112 0.994 . S
C812 C96 0.909 . S
C829 C57 0.966 . S
C848 C125 0.968 . S
C865 C70 0.967 . S
C884 C138 0.964 . S
C901 C151 0.993 . S
C920 C83 0.941 . S
C937 C18 0.966 . S
C956 C164 0.962 . S
C973 C177 0.993 . S
C992 C31 0.946 . S
C1009 C190 0.984 . S
C1028 C44 1.001 . S
C1045 C203 0.985 . S
C1064 C5 1.005 . S
C1081 C101 1.227 . S
C1100 C10 1.253 1_655 S
C1117 C23 1.233 1_565 S
C1136 C62 1.248 1_655 S
C1153 C36 1.225 . S
C1172 C75 1.237 1_565 S
C1189 C49 1.233 . S
C1208 C88 1.251 . S
C1225 C200 1.098 . S
C1244 C109 1.071 . S
C1261 C161 1.087 . S
C1280 C122 1.086 . S
C1297 C174 1.101 . S
C1316 C135 1.135 . S
C1333 C187 1.099 . S
C1352 C148 1.075 . S
