# Generated by pormake.
# Topology unw, (4)-cn, num edge types: 1
# Building blocks:
#     Node 0, Type 0, BuildingBlock: CEKHIL_clean_sbu_0, # of connection points: 4
#     Node 1, Type 0, BuildingBlock: CEKHIL_clean_sbu_0, # of connection points: 4
#     Node 2, Type 0, BuildingBlock: CEKHIL_clean_sbu_0, # of connection points: 4
#     Node 3, Type 0, BuildingBlock: CEKHIL_clean_sbu_0, # of connection points: 4
#     Node 4, Type 0, BuildingBlock: CEKHIL_clean_sbu_0, # of connection points: 4
#     Node 5, Type 0, BuildingBlock: CEKHIL_clean_sbu_0, # of connection points: 4
#     Node 6, Type 0, BuildingBlock: CEKHIL_clean_sbu_0, # of connection points: 4
#     Node 7, Type 0, BuildingBlock: CEKHIL_clean_sbu_0, # of connection points: 4
#     Node 8, Type 0, BuildingBlock: CEKHIL_clean_sbu_0, # of connection points: 4
#     Node 9, Type 0, BuildingBlock: CEKHIL_clean_sbu_0, # of connection points: 4
#     Node 10, Type 0, BuildingBlock: CEKHIL_clean_sbu_0, # of connection points: 4
#     Node 11, Type 0, BuildingBlock: CEKHIL_clean_sbu_0, # of connection points: 4
#     Node 12, Type 0, BuildingBlock: CEKHIL_clean_sbu_0, # of connection points: 4
#     Node 13, Type 0, BuildingBlock: CEKHIL_clean_sbu_0, # of connection points: 4
#     Node 14, Type 0, BuildingBlock: CEKHIL_clean_sbu_0, # of connection points: 4
#     Node 15, Type 0, BuildingBlock: CEKHIL_clean_sbu_0, # of connection points: 4
#     Node 16, Type 0, BuildingBlock: CEKHIL_clean_sbu_0, # of connection points: 4
#     Node 17, Type 0, BuildingBlock: CEKHIL_clean_sbu_0, # of connection points: 4
#     Node 18, Type 0, BuildingBlock: CEKHIL_clean_sbu_0, # of connection points: 4
#     Node 19, Type 0, BuildingBlock: CEKHIL_clean_sbu_0, # of connection points: 4
#     Node 20, Type 0, BuildingBlock: CEKHIL_clean_sbu_0, # of connection points: 4
#     Node 21, Type 0, BuildingBlock: CEKHIL_clean_sbu_0, # of connection points: 4
#     Node 22, Type 0, BuildingBlock: CEKHIL_clean_sbu_0, # of connection points: 4
#     Node 23, Type 0, BuildingBlock: CEKHIL_clean_sbu_0, # of connection points: 4
#     Edge 24, Type (0, 0), BuildingBlock: XUDNAN_clean_linker_2, # of connection points: 2
#     Edge 25, Type (0, 0), BuildingBlock: XUDNAN_clean_linker_2, # of connection points: 2
#     Edge 26, Type (0, 0), BuildingBlock: XUDNAN_clean_linker_2, # of connection points: 2
#     Edge 27, Type (0, 0), BuildingBlock: XUDNAN_clean_linker_2, # of connection points: 2
#     Edge 28, Type (0, 0), BuildingBlock: XUDNAN_clean_linker_2, # of connection points: 2
#     Edge 29, Type (0, 0), BuildingBlock: XUDNAN_clean_linker_2, # of connection points: 2
#     Edge 30, Type (0, 0), BuildingBlock: XUDNAN_clean_linker_2, # of connection points: 2
#     Edge 31, Type (0, 0), BuildingBlock: XUDNAN_clean_linker_2, # of connection points: 2
#     Edge 32, Type (0, 0), BuildingBlock: XUDNAN_clean_linker_2, # of connection points: 2
#     Edge 33, Type (0, 0), BuildingBlock: XUDNAN_clean_linker_2, # of connection points: 2
#     Edge 34, Type (0, 0), BuildingBlock: XUDNAN_clean_linker_2, # of connection points: 2
#     Edge 35, Type (0, 0), BuildingBlock: XUDNAN_clean_linker_2, # of connection points: 2
#     Edge 36, Type (0, 0), BuildingBlock: XUDNAN_clean_linker_2, # of connection points: 2
#     Edge 37, Type (0, 0), BuildingBlock: XUDNAN_clean_linker_2, # of connection points: 2
#     Edge 38, Type (0, 0), BuildingBlock: XUDNAN_clean_linker_2, # of connection points: 2
#     Edge 39, Type (0, 0), BuildingBlock: XUDNAN_clean_linker_2, # of connection points: 2
#     Edge 40, Type (0, 0), BuildingBlock: XUDNAN_clean_linker_2, # of connection points: 2
#     Edge 41, Type (0, 0), BuildingBlock: XUDNAN_clean_linker_2, # of connection points: 2
#     Edge 42, Type (0, 0), BuildingBlock: XUDNAN_clean_linker_2, # of connection points: 2
#     Edge 43, Type (0, 0), BuildingBlock: XUDNAN_clean_linker_2, # of connection points: 2
#     Edge 44, Type (0, 0), BuildingBlock: XUDNAN_clean_linker_2, # of connection points: 2
#     Edge 45, Type (0, 0), BuildingBlock: XUDNAN_clean_linker_2, # of connection points: 2
#     Edge 46, Type (0, 0), BuildingBlock: XUDNAN_clean_linker_2, # of connection points: 2
#     Edge 47, Type (0, 0), BuildingBlock: XUDNAN_clean_linker_2, # of connection points: 2
#     Edge 48, Type (0, 0), BuildingBlock: XUDNAN_clean_linker_2, # of connection points: 2
#     Edge 49, Type (0, 0), BuildingBlock: XUDNAN_clean_linker_2, # of connection points: 2
#     Edge 50, Type (0, 0), BuildingBlock: XUDNAN_clean_linker_2, # of connection points: 2
#     Edge 51, Type (0, 0), BuildingBlock: XUDNAN_clean_linker_2, # of connection points: 2
#     Edge 52, Type (0, 0), BuildingBlock: XUDNAN_clean_linker_2, # of connection points: 2
#     Edge 53, Type (0, 0), BuildingBlock: XUDNAN_clean_linker_2, # of connection points: 2
#     Edge 54, Type (0, 0), BuildingBlock: XUDNAN_clean_linker_2, # of connection points: 2
#     Edge 55, Type (0, 0), BuildingBlock: XUDNAN_clean_linker_2, # of connection points: 2
#     Edge 56, Type (0, 0), BuildingBlock: XUDNAN_clean_linker_2, # of connection points: 2
#     Edge 57, Type (0, 0), BuildingBlock: XUDNAN_clean_linker_2, # of connection points: 2
#     Edge 58, Type (0, 0), BuildingBlock: XUDNAN_clean_linker_2, # of connection points: 2
#     Edge 59, Type (0, 0), BuildingBlock: XUDNAN_clean_linker_2, # of connection points: 2
#     Edge 60, Type (0, 0), BuildingBlock: XUDNAN_clean_linker_2, # of connection points: 2
#     Edge 61, Type (0, 0), BuildingBlock: XUDNAN_clean_linker_2, # of connection points: 2
#     Edge 62, Type (0, 0), BuildingBlock: XUDNAN_clean_linker_2, # of connection points: 2
#     Edge 63, Type (0, 0), BuildingBlock: XUDNAN_clean_linker_2, # of connection points: 2
#     Edge 64, Type (0, 0), BuildingBlock: XUDNAN_clean_linker_2, # of connection points: 2
#     Edge 65, Type (0, 0), BuildingBlock: XUDNAN_clean_linker_2, # of connection points: 2
#     Edge 66, Type (0, 0), BuildingBlock: XUDNAN_clean_linker_2, # of connection points: 2
#     Edge 67, Type (0, 0), BuildingBlock: XUDNAN_clean_linker_2, # of connection points: 2
#     Edge 68, Type (0, 0), BuildingBlock: XUDNAN_clean_linker_2, # of connection points: 2
#     Edge 69, Type (0, 0), BuildingBlock: XUDNAN_clean_linker_2, # of connection points: 2
#     Edge 70, Type (0, 0), BuildingBlock: XUDNAN_clean_linker_2, # of connection points: 2
#     Edge 71, Type (0, 0), BuildingBlock: XUDNAN_clean_linker_2, # of connection points: 2
# Relax obj value: 0.378
# Max RMSD: 0.301
# Mean RMSD: 0.288
data_MOF--net-unw--node1-CEKHIL_clean_sbu_0--edge1-XUDNAN_clean_linker_2
_symmetry_space_group_name_H-M    P1
_symmetry_Int_Tables_number       1
_symmetry_cell_setting            triclinic
loop_
_symmetry_equiv_pos_as_xyz
'x, y, z'
_cell_length_a     44.264318
_cell_length_b     45.070069
_cell_length_c     44.670671
_cell_angle_alpha  90.025429
_cell_angle_beta   90.151497
_cell_angle_gamma 90.549298
loop_
_atom_site_label
_atom_site_type_symbol
_atom_site_fract_x
_atom_site_fract_y
_atom_site_fract_z
_atom_type_partial_charge
Co0 Co 0.1132 0.37974 0.26525 0.0
O1 O 0.09627 0.41118 0.24203 0.0
O2 O 0.13944 0.41433 0.26718 0.0
C3 C 0.07152 0.36459 0.28953 0.0
O4 O 0.13669 0.35144 0.29199 0.0
Co5 Co 0.09155 0.3155 0.25044 0.0
O6 O 0.1146 0.30639 0.28737 0.0
C7 C 0.13746 0.34331 0.21239 0.0
C8 C 0.12013 0.42664 0.24909 0.0
C9 C 0.13375 0.32395 0.2996 0.0
O10 O 0.13693 0.36599 0.22971 0.0
O11 O 0.11946 0.32112 0.21544 0.0
O12 O 0.08632 0.388 0.29858 0.0
O13 O 0.07938 0.35455 0.26358 0.0
Co14 Co 0.63866 0.12799 0.23871 0.0
O15 O 0.63363 0.08869 0.25365 0.0
O16 O 0.66421 0.10103 0.21642 0.0
C17 C 0.59043 0.14215 0.23645 0.0
O18 O 0.64777 0.16743 0.21794 0.0
Co19 Co 0.62269 0.17712 0.28431 0.0
O20 O 0.62504 0.20143 0.24722 0.0
C21 C 0.67831 0.14509 0.29265 0.0
C22 C 0.65438 0.08077 0.23495 0.0
C23 C 0.63788 0.19386 0.22285 0.0
O24 O 0.67371 0.13417 0.2666 0.0
O25 O 0.65896 0.16108 0.30621 0.0
O26 O 0.60154 0.12523 0.21567 0.0
O27 O 0.60685 0.14435 0.26043 0.0
Co28 Co 0.92117 0.61365 0.24229 0.0
O29 O 0.93793 0.5794 0.22368 0.0
O30 O 0.9037 0.5785 0.25998 0.0
C31 C 0.96317 0.64091 0.24929 0.0
O32 O 0.89966 0.64488 0.26692 0.0
Co33 Co 0.92412 0.67291 0.20697 0.0
O34 O 0.90859 0.68917 0.24518 0.0
C35 C 0.87733 0.62949 0.19128 0.0
C36 C 0.91973 0.56406 0.2405 0.0
C37 C 0.89786 0.67338 0.26639 0.0
O38 O 0.88657 0.6133 0.21298 0.0
O39 O 0.89086 0.65341 0.1833 0.0
O40 O 0.95677 0.61912 0.26739 0.0
O41 O 0.94742 0.64137 0.22488 0.0
Co42 Co 0.39481 0.87604 0.25671 0.0
O43 O 0.43581 0.86897 0.24579 0.0
O44 O 0.41031 0.84248 0.27918 0.0
C45 C 0.3953 0.92544 0.26199 0.0
O46 O 0.35173 0.87857 0.27324 0.0
Co47 Co 0.3567 0.9082 0.20888 0.0
O48 O 0.32898 0.91203 0.24333 0.0
C49 C 0.36968 0.84623 0.19919 0.0
C50 C 0.43466 0.84589 0.26313 0.0
C51 C 0.32983 0.89635 0.26707 0.0
O52 O 0.38169 0.84682 0.22527 0.0
O53 O 0.35886 0.86934 0.18669 0.0
O54 O 0.40618 0.90851 0.28293 0.0
O55 O 0.39087 0.91228 0.23644 0.0
Co56 Co 0.11488 0.60108 0.74715 0.0
O57 O 0.09583 0.57363 0.77371 0.0
O58 O 0.13656 0.56383 0.74682 0.0
C59 C 0.07321 0.61836 0.72461 0.0
O60 O 0.13981 0.6249 0.71729 0.0
Co61 Co 0.10122 0.6681 0.75723 0.0
O62 O 0.11935 0.67055 0.71661 0.0
C63 C 0.14674 0.63924 0.79471 0.0
C64 C 0.11702 0.5552 0.76688 0.0
C65 C 0.13698 0.65097 0.70598 0.0
O66 O 0.14267 0.61521 0.77981 0.0
O67 O 0.13097 0.6626 0.79089 0.0
O68 O 0.08481 0.59335 0.71604 0.0
O69 O 0.08429 0.62929 0.74904 0.0
Co70 Co 0.37991 0.12835 0.76811 0.0
O71 O 0.38913 0.09142 0.74919 0.0
O72 O 0.35862 0.09677 0.78815 0.0
C73 C 0.42604 0.1487 0.7716 0.0
O74 O 0.36609 0.16271 0.7938 0.0
Co75 Co 0.38904 0.18645 0.73203 0.0
O76 O 0.3778 0.20565 0.77051 0.0
C77 C 0.34044 0.14588 0.71538 0.0
C78 C 0.37021 0.07948 0.76798 0.0
C79 C 0.36791 0.19121 0.79306 0.0
O80 O 0.34412 0.13286 0.74061 0.0
O81 O 0.35841 0.16602 0.70563 0.0
O82 O 0.41757 0.12829 0.79048 0.0
O83 O 0.40875 0.15169 0.7484 0.0
Co84 Co 0.86277 0.41277 0.68673 0.0
O85 O 0.89748 0.41393 0.66141 0.0
O86 O 0.89082 0.38217 0.69876 0.0
C87 C 0.8565 0.46097 0.69656 0.0
O88 O 0.82932 0.40598 0.71736 0.0
Co89 Co 0.80436 0.43958 0.66023 0.0
O90 O 0.78976 0.43308 0.70171 0.0
C91 C 0.82237 0.38129 0.63989 0.0
C92 C 0.90671 0.39062 0.67571 0.0
C93 C 0.80274 0.41684 0.72119 0.0
O94 O 0.84359 0.38282 0.65937 0.0
O95 O 0.80472 0.40294 0.63448 0.0
O96 O 0.87715 0.44604 0.71071 0.0
O97 O 0.84558 0.44802 0.67297 0.0
Co98 Co 0.61204 0.89052 0.76559 0.0
O99 O 0.60434 0.92845 0.7481 0.0
O100 O 0.6367 0.92027 0.78515 0.0
C101 C 0.56487 0.87282 0.77076 0.0
O102 O 0.62485 0.85442 0.78957 0.0
Co103 Co 0.59654 0.83448 0.72796 0.0
O104 O 0.60635 0.81391 0.76603 0.0
C105 C 0.64986 0.86951 0.71236 0.0
C106 C 0.62524 0.93873 0.76589 0.0
C107 C 0.61945 0.82632 0.78829 0.0
O108 O 0.6461 0.88438 0.73651 0.0
O109 O 0.63073 0.85016 0.70299 0.0
O110 O 0.57559 0.89217 0.78976 0.0
O111 O 0.58057 0.86983 0.74659 0.0
Co112 Co 0.29082 0.12684 0.39264 0.0
O113 O 0.303 0.08605 0.39215 0.0
O114 O 0.27438 0.10729 0.35764 0.0
C115 C 0.27731 0.13253 0.44046 0.0
O116 O 0.27354 0.16812 0.38637 0.0
Co117 Co 0.33095 0.17148 0.42751 0.0
O118 O 0.2983 0.19966 0.41721 0.0
C119 C 0.35268 0.14978 0.37054 0.0
C120 C 0.28957 0.08422 0.36627 0.0
C121 C 0.27739 0.19393 0.39833 0.0
O122 O 0.32686 0.13712 0.36789 0.0
O123 O 0.36062 0.16383 0.39422 0.0
O124 O 0.25925 0.11912 0.42166 0.0
O125 O 0.3048 0.13646 0.43112 0.0
Co126 Co 0.89097 0.21143 0.38587 0.0
O127 O 0.88257 0.19259 0.42337 0.0
O128 O 0.85041 0.2208 0.39824 0.0
C129 C 0.93705 0.23021 0.39509 0.0
O130 O 0.89224 0.23419 0.34651 0.0
Co131 Co 0.9409 0.18333 0.3469 0.0
O132 O 0.93102 0.21642 0.31953 0.0
C133 C 0.88279 0.15361 0.34966 0.0
C134 C 0.85546 0.20311 0.42066 0.0
C135 C 0.90925 0.23435 0.32312 0.0
O136 O 0.87389 0.17579 0.36501 0.0
O137 O 0.90994 0.15072 0.34057 0.0
O138 O 0.91308 0.24339 0.40506 0.0
O139 O 0.93257 0.2036 0.38466 0.0
Co140 Co 0.74378 0.87132 0.36457 0.0
O141 O 0.73137 0.912 0.36576 0.0
O142 O 0.75938 0.89201 0.33003 0.0
C143 C 0.75991 0.86377 0.41143 0.0
O144 O 0.76109 0.83043 0.35631 0.0
Co145 Co 0.70569 0.82519 0.39902 0.0
O146 O 0.7391 0.79827 0.38829 0.0
C147 C 0.68197 0.84713 0.34272 0.0
C148 C 0.74464 0.91479 0.33994 0.0
C149 C 0.75876 0.80454 0.36845 0.0
O150 O 0.70686 0.86158 0.34036 0.0
O151 O 0.67553 0.83142 0.36571 0.0
O152 O 0.77646 0.87846 0.39242 0.0
O153 O 0.73176 0.86025 0.40357 0.0
Co154 Co 0.09548 0.81251 0.37686 0.0
O155 O 0.09301 0.83907 0.41009 0.0
O156 O 0.12424 0.80092 0.4071 0.0
C157 C 0.04668 0.80317 0.36758 0.0
O158 O 0.10349 0.78048 0.34588 0.0
Co159 Co 0.07242 0.83597 0.31588 0.0
O160 O 0.08253 0.79527 0.30235 0.0
C161 C 0.1298 0.85788 0.33835 0.0
C162 C 0.11526 0.82429 0.4216 0.0
C163 C 0.09638 0.77616 0.31821 0.0
O164 O 0.12795 0.83811 0.35884 0.0
O165 O 0.10826 0.86335 0.32013 0.0
O166 O 0.06017 0.7902 0.38987 0.0
O167 O 0.06111 0.82582 0.35663 0.0
Co168 Co 0.26578 0.87901 0.63413 0.0
O169 O 0.23205 0.88996 0.61023 0.0
O170 O 0.27331 0.8684 0.59268 0.0
C171 C 0.26923 0.92126 0.66041 0.0
O172 O 0.30542 0.86607 0.6536 0.0
Co173 Co 0.25666 0.87319 0.7028 0.0
O174 O 0.3009 0.87981 0.70179 0.0
C175 C 0.23971 0.8232 0.66366 0.0
C176 C 0.24665 0.87938 0.58761 0.0
C177 C 0.31688 0.87194 0.67954 0.0
O178 O 0.24773 0.83845 0.64073 0.0
O179 O 0.24081 0.8331 0.69051 0.0
O180 O 0.28078 0.91963 0.63375 0.0
O181 O 0.25263 0.89889 0.66839 0.0
Co182 Co 0.11678 0.24696 0.61574 0.0
O183 O 0.08906 0.27633 0.60252 0.0
O184 O 0.07582 0.23495 0.62624 0.0
C185 C 0.14551 0.24424 0.57435 0.0
O186 O 0.14077 0.21159 0.6312 0.0
Co187 Co 0.18306 0.26915 0.62403 0.0
O188 O 0.18955 0.2257 0.62527 0.0
C189 C 0.13928 0.28227 0.67073 0.0
C190 C 0.0679 0.26005 0.61418 0.0
C191 C 0.16929 0.20608 0.63049 0.0
O192 O 0.11991 0.2667 0.65602 0.0
O193 O 0.16577 0.28814 0.66082 0.0
O194 O 0.11959 0.23046 0.57551 0.0
O195 O 0.15026 0.26304 0.5958 0.0
Co196 Co 0.71571 0.12829 0.6113 0.0
O197 O 0.73552 0.11424 0.57635 0.0
O198 O 0.69571 0.14392 0.57612 0.0
C199 C 0.7137 0.08581 0.63703 0.0
O200 O 0.68912 0.14567 0.64397 0.0
Co201 Co 0.75235 0.12865 0.67049 0.0
O202 O 0.71097 0.13165 0.68729 0.0
C203 C 0.76376 0.17569 0.62696 0.0
C204 C 0.71639 0.12988 0.5612 0.0
C205 C 0.68853 0.14154 0.67251 0.0
O206 O 0.74205 0.16474 0.61133 0.0
O207 O 0.77323 0.16357 0.65109 0.0
O208 O 0.6942 0.09093 0.61585 0.0
O209 O 0.73646 0.10405 0.63824 0.0
Co210 Co 0.87609 0.74765 0.61738 0.0
O211 O 0.90908 0.72288 0.60677 0.0
O212 O 0.91265 0.76174 0.63713 0.0
C213 C 0.85625 0.75293 0.57142 0.0
O214 O 0.84578 0.77834 0.63165 0.0
Co215 Co 0.81285 0.71864 0.61031 0.0
O216 O 0.80051 0.76028 0.61671 0.0
C217 C 0.84853 0.70339 0.66283 0.0
C218 C 0.9256 0.73923 0.62427 0.0
C219 C 0.81715 0.78109 0.62724 0.0
O220 O 0.86801 0.72262 0.65386 0.0
O221 O 0.82512 0.69635 0.64742 0.0
O222 O 0.8793 0.76898 0.57972 0.0
O223 O 0.84908 0.73125 0.58918 0.0
Co224 Co 0.38949 0.25166 0.12876 0.0
O225 O 0.43074 0.24211 0.12093 0.0
O226 O 0.41564 0.27627 0.15318 0.0
C227 C 0.37039 0.25334 0.08245 0.0
O228 O 0.34848 0.26764 0.1415 0.0
Co229 Co 0.34247 0.20227 0.11598 0.0
O230 O 0.31376 0.2346 0.12491 0.0
C231 C 0.38097 0.19572 0.16779 0.0
C232 C 0.43764 0.26065 0.14224 0.0
C233 C 0.32088 0.25958 0.13648 0.0
O234 O 0.38971 0.22235 0.16254 0.0
O235 O 0.36291 0.18164 0.15037 0.0
O236 O 0.38649 0.27544 0.09277 0.0
O237 O 0.37219 0.22903 0.09789 0.0
Co238 Co 0.39 0.73232 0.88404 0.0
O239 O 0.38481 0.71543 0.92299 0.0
O240 O 0.36066 0.75501 0.90607 0.0
C241 C 0.44028 0.73302 0.87992 0.0
O242 O 0.39066 0.75578 0.84493 0.0
Co243 Co 0.41317 0.69015 0.83493 0.0
O244 O 0.41052 0.72602 0.80951 0.0
C245 C 0.35185 0.68225 0.85545 0.0
C246 C 0.3641 0.73528 0.92704 0.0
C247 C 0.40015 0.75087 0.8181 0.0
O248 O 0.35576 0.70672 0.8695 0.0
O249 O 0.37305 0.66959 0.84104 0.0
O250 O 0.42653 0.7527 0.8961 0.0
O251 O 0.42377 0.71013 0.87247 0.0
Co252 Co 0.19835 0.35564 0.92214 0.0
O253 O 0.16915 0.38658 0.92521 0.0
O254 O 0.20897 0.38744 0.89515 0.0
C255 C 0.20682 0.34532 0.97048 0.0
O256 O 0.23312 0.32779 0.91346 0.0
Co257 Co 0.17859 0.29245 0.94169 0.0
O258 O 0.22221 0.28422 0.93589 0.0
C259 C 0.15738 0.31457 0.88438 0.0
C260 C 0.18405 0.39979 0.90392 0.0
C261 C 0.24028 0.30146 0.92189 0.0
O262 O 0.17438 0.33731 0.88875 0.0
O263 O 0.15343 0.29434 0.9041 0.0
O264 O 0.21915 0.36865 0.9582 0.0
O265 O 0.18524 0.33311 0.95499 0.0
Co266 Co 0.61024 0.28862 0.87494 0.0
O267 O 0.61949 0.30736 0.91245 0.0
O268 O 0.64325 0.26836 0.89364 0.0
C269 C 0.55995 0.28495 0.87707 0.0
O270 O 0.60655 0.26299 0.83765 0.0
Co271 Co 0.5765 0.32401 0.8262 0.0
O272 O 0.57848 0.28649 0.80298 0.0
C273 C 0.63927 0.33908 0.8388 0.0
C274 C 0.64127 0.28827 0.91458 0.0
C275 C 0.59303 0.26397 0.81212 0.0
O276 O 0.64037 0.31558 0.85488 0.0
O277 O 0.61473 0.34838 0.82707 0.0
O278 O 0.57678 0.26673 0.89215 0.0
O279 O 0.57393 0.3082 0.86674 0.0
Co280 Co 0.73825 0.60858 0.87877 0.0
O281 O 0.75454 0.57043 0.86893 0.0
O282 O 0.72343 0.59614 0.84013 0.0
C283 C 0.72473 0.60083 0.92635 0.0
O284 O 0.71698 0.64823 0.88164 0.0
Co285 Co 0.77362 0.64799 0.92338 0.0
O286 O 0.73923 0.67543 0.9179 0.0
C287 C 0.79737 0.64171 0.86323 0.0
C288 C 0.74095 0.57332 0.84325 0.0
C289 C 0.71874 0.67164 0.89814 0.0
O290 O 0.77288 0.6276 0.85748 0.0
O291 O 0.80396 0.6509 0.88958 0.0
O292 O 0.70789 0.59114 0.90447 0.0
O293 O 0.75145 0.61043 0.91884 0.0
Co294 Co 0.60929 0.69628 0.14384 0.0
O295 O 0.56836 0.70902 0.14313 0.0
O296 O 0.58952 0.68559 0.18123 0.0
C297 C 0.61283 0.67707 0.09769 0.0
O298 O 0.65159 0.67987 0.15065 0.0
Co299 Co 0.65157 0.73259 0.10225 0.0
O300 O 0.68012 0.70115 0.11464 0.0
C301 C 0.63103 0.76022 0.15679 0.0
C302 C 0.5665 0.70019 0.17071 0.0
C303 C 0.67653 0.68254 0.1359 0.0
O304 O 0.62084 0.73452 0.16379 0.0
O305 O 0.64254 0.76577 0.13114 0.0
O306 O 0.60009 0.66185 0.11906 0.0
O307 O 0.61759 0.70484 0.10377 0.0
Co308 Co 0.22114 0.63737 0.12437 0.0
O309 O 0.23839 0.63301 0.08548 0.0
O310 O 0.21101 0.67135 0.09995 0.0
C311 C 0.20219 0.59163 0.13077 0.0
O312 O 0.19951 0.64826 0.16295 0.0
Co313 Co 0.25064 0.60221 0.17616 0.0
O314 O 0.21419 0.6155 0.19806 0.0
C315 C 0.28115 0.65555 0.15442 0.0
C316 C 0.22768 0.65906 0.07949 0.0
C317 C 0.19733 0.63658 0.18922 0.0
O318 O 0.25804 0.65978 0.13775 0.0
O319 O 0.28428 0.63223 0.17043 0.0
O320 O 0.18786 0.61086 0.11447 0.0
O321 O 0.22963 0.59903 0.13795 0.0
Co322 Co 0.79691 0.37424 0.109 0.0
O323 O 0.77912 0.38333 0.0711 0.0
O324 O 0.80274 0.34145 0.08207 0.0
C325 C 0.82136 0.41659 0.11879 0.0
O326 O 0.81824 0.3579 0.14553 0.0
Co327 Co 0.77389 0.4084 0.16471 0.0
O328 O 0.80637 0.38614 0.18543 0.0
C329 C 0.7362 0.36134 0.13955 0.0
C330 C 0.78701 0.3568 0.06303 0.0
C331 C 0.82098 0.36505 0.1733 0.0
O332 O 0.75814 0.35501 0.12212 0.0
O333 O 0.73641 0.38402 0.15678 0.0
O334 O 0.83276 0.39758 0.10014 0.0
O335 O 0.79336 0.41197 0.12592 0.0
H336 H 0.22346 0.55116 0.172 0.0
H337 H 0.14284 0.57739 0.12349 0.0
H338 H 0.11287 0.54069 0.15164 0.0
H339 H 0.20535 0.47266 0.17438 0.0
H340 H 0.22056 0.46755 0.21147 0.0
H341 H 0.23578 0.49615 0.18758 0.0
H342 H 0.2252 0.5352 0.22877 0.0
H343 H 0.20945 0.50678 0.2526 0.0
H344 H 0.18742 0.53891 0.24317 0.0
H345 H 0.09131 0.50222 0.18483 0.0
H346 H 0.08013 0.45968 0.21763 0.0
H347 H 0.17429 0.45707 0.24493 0.0
C348 C 0.19956 0.54896 0.16715 0.0
C349 C 0.18549 0.5672 0.14558 0.0
C350 C 0.15415 0.56369 0.13989 0.0
C351 C 0.13686 0.54303 0.1559 0.0
C352 C 0.1512 0.52592 0.17748 0.0
C353 C 0.18187 0.52828 0.18291 0.0
C354 C 0.19162 0.50646 0.20685 0.0
C355 C 0.21468 0.48439 0.19431 0.0
C356 C 0.20416 0.52282 0.23448 0.0
C357 C 0.16166 0.49131 0.21368 0.0
C358 C 0.13865 0.50324 0.19668 0.0
C359 C 0.10908 0.49266 0.1983 0.0
C360 C 0.10296 0.46853 0.21707 0.0
C361 C 0.12631 0.45513 0.23389 0.0
C362 C 0.15592 0.46714 0.23267 0.0
H363 H 0.56925 0.15445 0.18082 0.0
H364 H 0.56058 0.18083 0.27377 0.0
H365 H 0.52591 0.22113 0.25842 0.0
H366 H 0.56881 0.22913 0.14989 0.0
H367 H 0.5481 0.21765 0.117 0.0
H368 H 0.57299 0.19204 0.1355 0.0
H369 H 0.5289 0.15397 0.14138 0.0
H370 H 0.50429 0.17912 0.1222 0.0
H371 H 0.49429 0.16559 0.15887 0.0
H372 H 0.48951 0.25651 0.23226 0.0
H373 H 0.45122 0.27916 0.19932 0.0
H374 H 0.48704 0.23055 0.12376 0.0
C375 C 0.55997 0.16851 0.19811 0.0
C376 C 0.56733 0.16433 0.22856 0.0
C377 C 0.55496 0.18352 0.25032 0.0
C378 C 0.53559 0.20664 0.24176 0.0
C379 C 0.52934 0.21049 0.21134 0.0
C380 C 0.54118 0.1918 0.18995 0.0
C381 C 0.53027 0.19948 0.15889 0.0
C382 C 0.55661 0.21021 0.13916 0.0
C383 C 0.51343 0.17298 0.14451 0.0
C384 C 0.50916 0.2246 0.16611 0.0
C385 C 0.50931 0.23113 0.19637 0.0
C386 C 0.4896 0.25188 0.20849 0.0
C387 C 0.46808 0.26491 0.1895 0.0
C388 C 0.46621 0.25669 0.15891 0.0
C389 C 0.48815 0.23758 0.14693 0.0
H390 H 0.80529 0.45626 0.16247 0.0
H391 H 0.88287 0.41902 0.11712 0.0
H392 H 0.91693 0.4463 0.15123 0.0
H393 H 0.83643 0.52826 0.17236 0.0
H394 H 0.81928 0.53375 0.20846 0.0
H395 H 0.80165 0.50932 0.18171 0.0
H396 H 0.80252 0.4673 0.22156 0.0
H397 H 0.82129 0.49163 0.24789 0.0
H398 H 0.83799 0.45663 0.23807 0.0
H399 H 0.94255 0.47992 0.18702 0.0
H400 H 0.95787 0.5232 0.21749 0.0
H401 H 0.86431 0.53797 0.24105 0.0
C402 C 0.82944 0.45386 0.15977 0.0
C403 C 0.84143 0.43549 0.1372 0.0
C404 C 0.87315 0.43304 0.1342 0.0
C405 C 0.89271 0.44814 0.15371 0.0
C406 C 0.8802 0.46555 0.17614 0.0
C407 C 0.84934 0.46885 0.17904 0.0
C408 C 0.84187 0.49092 0.20342 0.0
C409 C 0.82377 0.51711 0.19071 0.0
C410 C 0.82492 0.4757 0.22927 0.0
C411 C 0.87342 0.50037 0.21292 0.0
C412 C 0.89518 0.48491 0.19734 0.0
C413 C 0.92583 0.4918 0.19982 0.0
C414 C 0.93437 0.51627 0.21729 0.0
C415 C 0.91231 0.5334 0.23198 0.0
C416 C 0.88167 0.52449 0.23095 0.0
H417 H 0.52931 0.74488 0.15593 0.0
H418 H 0.55373 0.6884 0.23056 0.0
H419 H 0.52159 0.7189 0.26408 0.0
H420 H 0.53762 0.81053 0.19581 0.0
H421 H 0.50784 0.82944 0.17615 0.0
H422 H 0.52839 0.80043 0.1578 0.0
H423 H 0.47844 0.77192 0.14677 0.0
H424 H 0.45742 0.80093 0.16467 0.0
H425 H 0.45316 0.7631 0.17712 0.0
H426 H 0.48515 0.75794 0.289 0.0
H427 H 0.45313 0.8013 0.30208 0.0
H428 H 0.46204 0.83373 0.21121 0.0
C429 C 0.52736 0.73814 0.17912 0.0
C430 C 0.5435 0.71373 0.19043 0.0
C431 C 0.541 0.70661 0.22124 0.0
C432 C 0.52295 0.72395 0.24044 0.0
C433 C 0.5082 0.74861 0.22852 0.0
C434 C 0.51061 0.75562 0.19849 0.0
C435 C 0.49562 0.78459 0.1911 0.0
C436 C 0.51875 0.80759 0.17955 0.0
C437 C 0.46962 0.77985 0.1686 0.0
C438 C 0.48399 0.79296 0.22155 0.0
C439 C 0.49074 0.77191 0.24298 0.0
C440 C 0.48025 0.77469 0.27238 0.0
C441 C 0.46223 0.79938 0.2797 0.0
C442 C 0.45588 0.82129 0.2579 0.0
C443 C 0.46732 0.81796 0.22871 0.0
H444 H 0.20822 0.43148 0.85668 0.0
H445 H 0.12818 0.42285 0.91223 0.0
H446 H 0.10149 0.45793 0.87967 0.0
H447 H 0.20035 0.51052 0.84273 0.0
H448 H 0.21383 0.50821 0.80477 0.0
H449 H 0.22669 0.48205 0.83235 0.0
H450 H 0.20864 0.43878 0.79821 0.0
H451 H 0.1952 0.46489 0.77081 0.0
H452 H 0.16982 0.43727 0.78598 0.0
H453 H 0.08255 0.49165 0.84086 0.0
H454 H 0.07475 0.52997 0.80263 0.0
H455 H 0.16726 0.51957 0.77248 0.0
C456 C 0.18523 0.43732 0.8622 0.0
C457 C 0.17028 0.42438 0.88701 0.0
C458 C 0.14016 0.43251 0.89345 0.0
C459 C 0.12467 0.45221 0.87491 0.0
C460 C 0.13967 0.46382 0.85016 0.0
C461 C 0.16943 0.4573 0.84405 0.0
C462 C 0.1804 0.47403 0.81659 0.0
C463 C 0.20688 0.49495 0.82459 0.0
C464 C 0.18902 0.45245 0.79141 0.0
C465 C 0.15218 0.49121 0.80855 0.0
C466 C 0.12887 0.48436 0.82795 0.0
C467 C 0.10063 0.49737 0.8256 0.0
C468 C 0.09643 0.51906 0.80371 0.0
C469 C 0.12042 0.52783 0.78465 0.0
C470 C 0.14843 0.51308 0.78651 0.0
H471 H 0.53238 0.23185 0.8879 0.0
H472 H 0.52583 0.31064 0.83256 0.0
H473 H 0.49114 0.28378 0.79834 0.0
H474 H 0.5363 0.18125 0.83119 0.0
H475 H 0.51384 0.15273 0.84892 0.0
H476 H 0.53452 0.17911 0.87144 0.0
H477 H 0.48529 0.1946 0.89858 0.0
H478 H 0.46465 0.16746 0.87686 0.0
H479 H 0.453 0.20567 0.87674 0.0
H480 H 0.46414 0.24542 0.76601 0.0
H481 H 0.43765 0.2021 0.74393 0.0
H482 H 0.46109 0.14955 0.82185 0.0
C483 C 0.5229 0.24387 0.86917 0.0
C484 C 0.5323 0.27316 0.86255 0.0
C485 C 0.51923 0.28808 0.83788 0.0
C486 C 0.49966 0.27293 0.81821 0.0
C487 C 0.49289 0.24323 0.82409 0.0
C488 C 0.50333 0.2292 0.84952 0.0
C489 C 0.49371 0.19694 0.85034 0.0
C490 C 0.52124 0.17631 0.85048 0.0
C491 C 0.47292 0.19082 0.87722 0.0
C492 C 0.47666 0.1948 0.8211 0.0
C493 C 0.47662 0.22161 0.8061 0.0
C494 C 0.46344 0.22451 0.7779 0.0
C495 C 0.44866 0.19971 0.76544 0.0
C496 C 0.44685 0.1726 0.78142 0.0
C497 C 0.46182 0.17003 0.80919 0.0
H498 H 0.78217 0.52868 0.84229 0.0
H499 H 0.72296 0.57962 0.78477 0.0
H500 H 0.74693 0.55743 0.74025 0.0
H501 H 0.8471 0.53771 0.79984 0.0
H502 H 0.86146 0.50094 0.8062 0.0
H503 H 0.83737 0.51789 0.83358 0.0
H504 H 0.80029 0.4732 0.83069 0.0
H505 H 0.82421 0.45561 0.80351 0.0
H506 H 0.785 0.46202 0.79497 0.0
H507 H 0.77972 0.53117 0.7018 0.0
H508 H 0.81604 0.50061 0.67327 0.0
H509 H 0.85513 0.47011 0.75677 0.0
C510 C 0.7736 0.53458 0.82038 0.0
C511 C 0.75045 0.55565 0.81705 0.0
C512 C 0.74036 0.56317 0.78791 0.0
C513 C 0.75398 0.55083 0.76246 0.0
C514 C 0.77761 0.53101 0.76658 0.0
C515 C 0.78705 0.52268 0.79485 0.0
C516 C 0.81368 0.50199 0.79339 0.0
C517 C 0.84154 0.51545 0.80919 0.0
C518 C 0.8053 0.47139 0.8064 0.0
C519 C 0.81824 0.50044 0.75991 0.0
C520 C 0.7971 0.51706 0.74472 0.0
C521 C 0.79642 0.51814 0.7135 0.0
C522 C 0.81727 0.50098 0.69749 0.0
C523 C 0.83873 0.48344 0.71276 0.0
C524 C 0.83953 0.48383 0.74437 0.0
H525 H 0.54072 0.86614 0.82649 0.0
H526 H 0.54377 0.82463 0.73891 0.0
H527 H 0.51862 0.77986 0.75959 0.0
H528 H 0.55547 0.80147 0.86959 0.0
H529 H 0.52978 0.81113 0.89921 0.0
H530 H 0.54794 0.83989 0.87758 0.0
H531 H 0.4959 0.86198 0.86306 0.0
H532 H 0.47773 0.83408 0.88566 0.0
H533 H 0.46737 0.83806 0.84682 0.0
H534 H 0.49448 0.73857 0.7912 0.0
H535 H 0.46383 0.70978 0.82755 0.0
H536 H 0.47673 0.77969 0.89316 0.0
C537 C 0.53575 0.84786 0.81147 0.0
C538 C 0.54446 0.84879 0.78114 0.0
C539 C 0.53741 0.82435 0.76229 0.0
C540 C 0.52346 0.7987 0.7739 0.0
C541 C 0.51656 0.79798 0.80433 0.0
C542 C 0.52188 0.82224 0.82262 0.0
C543 C 0.51112 0.81666 0.85415 0.0
C544 C 0.53767 0.81732 0.87644 0.0
C545 C 0.48657 0.839 0.86292 0.0
C546 C 0.49835 0.78564 0.85074 0.0
C547 C 0.50218 0.77487 0.82206 0.0
C548 C 0.49114 0.74695 0.81364 0.0
C549 C 0.47385 0.73068 0.83446 0.0
C550 C 0.46706 0.74298 0.86278 0.0
C551 C 0.48123 0.76982 0.87153 0.0
H552 H 0.14176 0.1994 0.53352 0.0
H553 H 0.20484 0.263 0.57223 0.0
H554 H 0.24671 0.23935 0.54464 0.0
H555 H 0.18984 0.1369 0.53669 0.0
H556 H 0.17691 0.12155 0.5016 0.0
H557 H 0.15199 0.14399 0.52372 0.0
H558 H 0.14382 0.17951 0.47873 0.0
H559 H 0.16818 0.1568 0.45632 0.0
H560 H 0.17618 0.19587 0.46043 0.0
H561 H 0.28195 0.2072 0.51321 0.0
H562 H 0.30615 0.17301 0.47726 0.0
H563 H 0.21915 0.13112 0.46014 0.0
C564 C 0.1643 0.20867 0.53596 0.0
C565 C 0.17005 0.23305 0.55506 0.0
C566 C 0.19991 0.24436 0.55766 0.0
C567 C 0.22385 0.23095 0.54224 0.0
C568 C 0.21746 0.20636 0.52423 0.0
C569 C 0.18831 0.19562 0.52079 0.0
C570 C 0.18715 0.16916 0.50001 0.0
C571 C 0.17581 0.14125 0.5165 0.0
C572 C 0.16769 0.17574 0.47223 0.0
C573 C 0.22019 0.1667 0.49206 0.0
C574 C 0.23746 0.18814 0.50636 0.0
C575 C 0.2686 0.19035 0.50189 0.0
C576 C 0.28218 0.17074 0.48156 0.0
C577 C 0.26456 0.14943 0.46583 0.0
C578 C 0.23332 0.14706 0.47185 0.0
H579 H 0.71939 0.18327 0.53311 0.0
H580 H 0.73102 0.08891 0.52005 0.0
H581 H 0.76208 0.09877 0.47557 0.0
H582 H 0.7257 0.20467 0.44732 0.0
H583 H 0.74582 0.23817 0.45746 0.0
H584 H 0.71625 0.22396 0.48134 0.0
H585 H 0.75376 0.22466 0.52534 0.0
H586 H 0.78421 0.23707 0.50194 0.0
H587 H 0.78797 0.20332 0.52322 0.0
H588 H 0.80426 0.11742 0.44686 0.0
H589 H 0.84732 0.14464 0.42524 0.0
H590 H 0.80764 0.22816 0.45126 0.0
C591 C 0.72666 0.16482 0.51946 0.0
C592 C 0.72251 0.13534 0.52946 0.0
C593 C 0.73359 0.11156 0.51225 0.0
C594 C 0.75138 0.117 0.48706 0.0
C595 C 0.75751 0.14635 0.47925 0.0
C596 C 0.74463 0.17001 0.49412 0.0
C597 C 0.75849 0.19926 0.48377 0.0
C598 C 0.73518 0.2176 0.46643 0.0
C599 C 0.77193 0.21708 0.51015 0.0
C600 C 0.783 0.18808 0.46309 0.0
C601 C 0.78171 0.15747 0.46071 0.0
C602 C 0.80465 0.14142 0.44723 0.0
C603 C 0.82916 0.15701 0.43528 0.0
C604 C 0.83026 0.18831 0.43604 0.0
C605 C 0.80679 0.20418 0.44985 0.0
H606 H 0.74376 0.84552 0.46889 0.0
H607 H 0.81154 0.83504 0.39971 0.0
H608 H 0.83824 0.79897 0.43077 0.0
H609 H 0.79806 0.84613 0.52792 0.0
H610 H 0.7746 0.82712 0.55477 0.0
H611 H 0.7575 0.84887 0.52567 0.0
H612 H 0.72598 0.80324 0.50866 0.0
H613 H 0.74299 0.78127 0.53778 0.0
H614 H 0.74486 0.76919 0.49934 0.0
H615 H 0.86008 0.76718 0.4693 0.0
H616 H 0.87927 0.74576 0.51643 0.0
H617 H 0.80028 0.77772 0.563 0.0
C618 C 0.76399 0.83526 0.46031 0.0
C619 C 0.77532 0.84279 0.43172 0.0
C620 C 0.80236 0.82961 0.42151 0.0
C621 C 0.8176 0.80881 0.43886 0.0
C622 C 0.80607 0.80182 0.46689 0.0
C623 C 0.78027 0.81498 0.47796 0.0
C624 C 0.77534 0.80622 0.51046 0.0
C625 C 0.77645 0.83372 0.5309 0.0
C626 C 0.74551 0.78894 0.51427 0.0
C627 C 0.80243 0.78632 0.51567 0.0
C628 C 0.81947 0.78377 0.48997 0.0
C629 C 0.8467 0.76851 0.48948 0.0
C630 C 0.85736 0.75628 0.51624 0.0
C631 C 0.8408 0.75924 0.54301 0.0
C632 C 0.81275 0.774 0.54264 0.0
H633 H 0.16307 0.79926 0.452 0.0
H634 H 0.10723 0.87795 0.44781 0.0
H635 H 0.13983 0.90239 0.4851 0.0
H636 H 0.17541 0.8025 0.5318 0.0
H637 H 0.21371 0.78945 0.52975 0.0
H638 H 0.18665 0.77847 0.50162 0.0
H639 H 0.22253 0.79884 0.46054 0.0
H640 H 0.2494 0.81052 0.48867 0.0
H641 H 0.23501 0.837 0.46211 0.0
H642 H 0.17705 0.91852 0.5223 0.0
H643 H 0.21284 0.92281 0.56437 0.0
H644 H 0.24517 0.83405 0.54644 0.0
C645 C 0.15763 0.82154 0.45914 0.0
C646 C 0.13264 0.83672 0.44694 0.0
C647 C 0.12617 0.86581 0.45688 0.0
C648 C 0.14474 0.88005 0.47783 0.0
C649 C 0.16961 0.86486 0.4888 0.0
C650 C 0.17583 0.83607 0.48039 0.0
C651 C 0.20298 0.82434 0.49735 0.0
C652 C 0.19415 0.79708 0.51625 0.0
C653 C 0.22902 0.81726 0.47588 0.0
C654 C 0.2106 0.85094 0.51689 0.0
C655 C 0.19131 0.87419 0.51101 0.0
C656 C 0.19246 0.90062 0.52704 0.0
C657 C 0.21291 0.90289 0.55077 0.0
C658 C 0.23185 0.87892 0.55822 0.0
C659 C 0.23147 0.85296 0.54053 0.0
H660 H 0.60414 0.98176 0.72916 0.0
H661 H 0.68015 0.95941 0.78596 0.0
H662 H 0.71041 0.99939 0.76249 0.0
H663 H 0.64248 0.98872 0.66623 0.0
H664 H 0.6223 0.01953 0.65037 0.0
H665 H 0.60381 0.99543 0.67669 0.0
H666 H 0.59162 0.04002 0.7111 0.0
H667 H 0.60936 0.06464 0.68448 0.0
H668 H 0.62162 0.06471 0.72297 0.0
H669 H 0.73511 0.03522 0.72599 0.0
H670 H 0.75035 0.06623 0.68258 0.0
H671 H 0.65838 0.06233 0.64899 0.0
C672 C 0.62669 0.98615 0.73763 0.0
C673 C 0.63977 0.9676 0.75941 0.0
C674 C 0.66954 0.97363 0.76955 0.0
C675 C 0.68696 0.99622 0.75623 0.0
C676 C 0.67405 0.01274 0.73319 0.0
C677 C 0.6443 0.0084 0.72449 0.0
C678 C 0.6367 0.02631 0.69693 0.0
C679 C 0.6257 0.00629 0.67105 0.0
C680 C 0.61345 0.05035 0.70432 0.0
C681 C 0.66724 0.03988 0.69033 0.0
C682 C 0.6884 0.0325 0.71178 0.0
C683 C 0.71857 0.04151 0.70934 0.0
C684 C 0.7271 0.05881 0.68452 0.0
C685 C 0.70563 0.06629 0.66231 0.0
C686 C 0.67541 0.05669 0.66543 0.0
H687 H 0.95253 0.74042 0.67937 0.0
H688 H 0.9651 0.71212 0.58757 0.0
H689 H 0.00784 0.68103 0.60315 0.0
H690 H 0.03584 0.7373 0.7024 0.0
H691 H 0.02587 0.7234 0.73893 0.0
H692 H 0.001 0.74851 0.71968 0.0
H693 H 0.95728 0.71033 0.72549 0.0
H694 H 0.98208 0.68474 0.74391 0.0
H695 H 0.96167 0.67337 0.7108 0.0
H696 H 0.04127 0.64581 0.62926 0.0
H697 H 0.06914 0.61339 0.66397 0.0
H698 H 0.03622 0.66447 0.73929 0.0
C699 C 0.96543 0.72897 0.66243 0.0
C700 C 0.95601 0.72898 0.63223 0.0
C701 C 0.97238 0.71265 0.61075 0.0
C702 C 0.99658 0.69485 0.61941 0.0
C703 C 0.00418 0.69376 0.64963 0.0
C704 C 0.98964 0.71088 0.6708 0.0
C705 C 0.0002 0.70315 0.70215 0.0
C706 C 0.01672 0.72967 0.71664 0.0
C707 C 0.97373 0.69225 0.72172 0.0
C708 C 0.02187 0.67822 0.6953 0.0
C709 C 0.0239 0.67329 0.66485 0.0
C710 C 0.04045 0.64988 0.65312 0.0
C711 C 0.05588 0.63135 0.67301 0.0
C712 C 0.05476 0.63647 0.70424 0.0
C713 C 0.03759 0.66025 0.71547 0.0
H714 H 0.38328 0.04303 0.72145 0.0
H715 H 0.32733 0.04962 0.80073 0.0
H716 H 0.29729 0.00632 0.78362 0.0
H717 H 0.32652 0.03161 0.67283 0.0
H718 H 0.34546 0.00577 0.64864 0.0
H719 H 0.36714 0.03227 0.66996 0.0
H720 H 0.39804 0.99009 0.69421 0.0
H721 H 0.37698 0.96318 0.67253 0.0
H722 H 0.37866 0.95993 0.7127 0.0
H723 H 0.26875 0.96743 0.75399 0.0
H724 H 0.24625 0.93402 0.71573 0.0
H725 H 0.31965 0.95576 0.65519 0.0
C726 C 0.36551 0.03466 0.73587 0.0
C727 C 0.35771 0.04955 0.76247 0.0
C728 C 0.33385 0.03833 0.78037 0.0
C729 C 0.31661 0.01381 0.77079 0.0
C730 C 0.32373 0.00079 0.74343 0.0
C731 C 0.34796 0.01055 0.72647 0.0
C732 C 0.34895 0.99516 0.69643 0.0
C733 C 0.34688 0.01754 0.67046 0.0
C734 C 0.37734 0.97594 0.69382 0.0
C735 C 0.32075 0.97623 0.69855 0.0
C736 C 0.30677 0.97928 0.72598 0.0
C737 C 0.27972 0.9646 0.73257 0.0
C738 C 0.26697 0.94594 0.71067 0.0
C739 C 0.28107 0.94266 0.68248 0.0
C740 C 0.30818 0.95812 0.67642 0.0
H741 H 0.03059 0.26233 0.66314 0.0
H742 H 0.03828 0.28763 0.56986 0.0
H743 H 0.99529 0.32138 0.57549 0.0
H744 H 0.94424 0.27018 0.6677 0.0
H745 H 0.9468 0.2848 0.70519 0.0
H746 H 0.97387 0.25797 0.69245 0.0
H747 H 0.01716 0.29437 0.70682 0.0
H748 H 0.9903 0.32164 0.71871 0.0
H749 H 0.01799 0.33102 0.69067 0.0
H750 H 0.96022 0.35894 0.59274 0.0
H751 H 0.92675 0.3934 0.61868 0.0
H752 H 0.93846 0.34409 0.70141 0.0
C753 C 0.02203 0.2738 0.64363 0.0
C754 C 0.03722 0.27208 0.61588 0.0
C755 C 0.02652 0.28839 0.59109 0.0
C756 C 0.00224 0.3077 0.59414 0.0
C757 C 0.98884 0.31035 0.62213 0.0
C758 C 0.99764 0.29337 0.64635 0.0
C759 C 0.98083 0.30268 0.67446 0.0
C760 C 0.96021 0.2774 0.6856 0.0
C761 C 0.0029 0.31304 0.69911 0.0
C762 C 0.96244 0.32838 0.66242 0.0
C763 C 0.96756 0.33222 0.63217 0.0
C764 C 0.95537 0.35575 0.61626 0.0
C765 C 0.93667 0.37547 0.63138 0.0
C766 C 0.92992 0.37148 0.66211 0.0
C767 C 0.9431 0.34761 0.67789 0.0
H768 H 0.69405 0.94775 0.34066 0.0
H769 H 0.77871 0.93726 0.2935 0.0
H770 H 0.76342 0.97639 0.25745 0.0
H771 H 0.64884 0.95629 0.27473 0.0
H772 H 0.62367 0.9824 0.29199 0.0
H773 H 0.64213 0.95476 0.31448 0.0
H774 H 0.66486 0.99576 0.34888 0.0
H775 H 0.64583 0.02339 0.327 0.0
H776 H 0.68614 0.02587 0.3324 0.0
H777 H 0.73856 0.01925 0.22811 0.0
H778 H 0.70744 0.06095 0.20953 0.0
H779 H 0.63766 0.03743 0.2735 0.0
C780 C 0.70967 0.95404 0.32309 0.0
C781 C 0.73784 0.94008 0.3202 0.0
C782 C 0.75719 0.94814 0.29629 0.0
C783 C 0.7486 0.97014 0.27565 0.0
C784 C 0.72027 0.98314 0.27888 0.0
C785 C 0.70113 0.97514 0.30198 0.0
C786 C 0.67162 0.99152 0.30044 0.0
C787 C 0.645 0.96995 0.29509 0.0
C788 C 0.66686 0.01025 0.32885 0.0
C789 C 0.67733 0.01075 0.27336 0.0
C790 C 0.70544 0.00578 0.26106 0.0
C791 C 0.7163 0.02294 0.23728 0.0
C792 C 0.6984 0.04643 0.22668 0.0
C793 C 0.66998 0.05229 0.23984 0.0
C794 C 0.65906 0.03337 0.26262 0.0
H795 H 0.9872 0.64973 0.30503 0.0
H796 H 0.97197 0.69378 0.22 0.0
H797 H 0.98619 0.7418 0.243 0.0
H798 H 0.95838 0.70543 0.35194 0.0
H799 H 0.98663 0.70128 0.38075 0.0
H800 H 0.97626 0.67009 0.35755 0.0
H801 H 0.03205 0.66335 0.3417 0.0
H802 H 0.04293 0.69401 0.36533 0.0
H803 H 0.05265 0.69437 0.32618 0.0
H804 H 0.99898 0.78554 0.2765 0.0
H805 H 0.01993 0.81976 0.3147 0.0
H806 H 0.02733 0.7463 0.377 0.0
C807 C 0.98735 0.66935 0.29104 0.0
C808 C 0.97807 0.66807 0.26082 0.0
C809 C 0.97877 0.69427 0.24329 0.0
C810 C 0.98655 0.72169 0.25622 0.0
C811 C 0.99395 0.72238 0.28654 0.0
C812 C 0.99521 0.69678 0.30349 0.0
C813 C 0.0049 0.70329 0.3353 0.0
C814 C 0.98005 0.6945 0.3577 0.0
C815 C 0.03491 0.68786 0.34255 0.0
C816 C 0.0088 0.7366 0.33367 0.0
C817 C 0.002 0.7473 0.3055 0.0
C818 C 0.00458 0.77737 0.29858 0.0
C819 C 0.01623 0.79669 0.32051 0.0
C820 C 0.02562 0.78566 0.34869 0.0
C821 C 0.02036 0.7555 0.35572 0.0
H822 H 0.38587 0.94567 0.31842 0.0
H823 H 0.36761 0.96671 0.2254 0.0
H824 H 0.33495 0.00822 0.24173 0.0
H825 H 0.31131 0.95835 0.3446 0.0
H826 H 0.32376 0.97316 0.38007 0.0
H827 H 0.34651 0.94638 0.36073 0.0
H828 H 0.39242 0.98275 0.36183 0.0
H829 H 0.36993 0.0093 0.38169 0.0
H830 H 0.38816 0.01975 0.34717 0.0
H831 H 0.30343 0.04739 0.2696 0.0
H832 H 0.28024 0.0823 0.30543 0.0
H833 H 0.31837 0.03264 0.37933 0.0
C834 C 0.3755 0.95922 0.3013 0.0
C835 C 0.37953 0.95307 0.27057 0.0
C836 C 0.36508 0.97121 0.24907 0.0
C837 C 0.34629 0.99462 0.25817 0.0
C838 C 0.34204 0.99934 0.2888 0.0
C839 C 0.35648 0.98215 0.30993 0.0
C840 C 0.3482 0.99109 0.34143 0.0
C841 C 0.33145 0.96573 0.35765 0.0
C842 C 0.37635 0.00134 0.35905 0.0
C843 C 0.3273 0.01658 0.33497 0.0
C844 C 0.32367 0.02093 0.30452 0.0
C845 C 0.30599 0.04395 0.29345 0.0
C846 C 0.29267 0.06354 0.31399 0.0
C847 C 0.29725 0.06004 0.34523 0.0
C848 C 0.31413 0.03574 0.35566 0.0
H849 H 0.04993 0.30746 0.28293 0.0
H850 H 0.05074 0.38253 0.34385 0.0
H851 H 0.0226 0.35282 0.38101 0.0
H852 H 0.97629 0.28099 0.29931 0.0
H853 H 0.98634 0.24239 0.29678 0.0
H854 H 0.00722 0.26971 0.27585 0.0
H855 H 0.0566 0.25092 0.30076 0.0
H856 H 0.03532 0.22422 0.32237 0.0
H857 H 0.05973 0.25067 0.341 0.0
H858 H 0.99157 0.3168 0.40976 0.0
H859 H 0.95598 0.27802 0.42669 0.0
H860 H 0.97875 0.22414 0.34969 0.0
C861 C 0.04423 0.31763 0.30409 0.0
C862 C 0.05255 0.34732 0.31052 0.0
C863 C 0.0446 0.35983 0.33845 0.0
C864 C 0.02885 0.34305 0.3598 0.0
C865 C 0.0216 0.31367 0.35305 0.0
C866 C 0.02894 0.30103 0.32589 0.0
C867 C 0.01744 0.26929 0.32393 0.0
C868 C 0.99551 0.2654 0.2974 0.0
C869 C 0.04385 0.24748 0.3219 0.0
C870 C 0.00128 0.26653 0.35371 0.0
C871 C 0.00439 0.29231 0.37028 0.0
C872 C 0.98931 0.29633 0.39724 0.0
C873 C 0.96924 0.27412 0.40673 0.0
C874 C 0.96447 0.24819 0.38939 0.0
C875 C 0.98193 0.24367 0.3634 0.0
H876 H 0.73178 0.6473 0.96629 0.0
H877 H 0.68577 0.56299 0.95289 0.0
H878 H 0.65347 0.57288 0.99655 0.0
H879 H 0.72499 0.65035 0.0501 0.0
H880 H 0.71781 0.68962 0.04972 0.0
H881 H 0.74136 0.67342 0.02132 0.0
H882 H 0.70675 0.69584 0.98043 0.0
H883 H 0.68267 0.71146 0.00864 0.0
H884 H 0.66694 0.68708 0.98051 0.0
H885 H 0.62312 0.59333 0.03797 0.0
H886 H 0.59751 0.6225 0.07687 0.0
H887 H 0.65876 0.69643 0.06023 0.0
C888 C 0.71551 0.63064 0.97308 0.0
C889 C 0.71134 0.60428 0.95635 0.0
C890 C 0.68945 0.58317 0.96564 0.0
C891 C 0.67094 0.58864 0.99032 0.0
C892 C 0.67434 0.61554 0.00531 0.0
C893 C 0.69619 0.63617 0.99731 0.0
C894 C 0.69296 0.66449 0.01547 0.0
C895 C 0.72094 0.66977 0.03532 0.0
C896 C 0.68697 0.69129 0.99504 0.0
C897 C 0.66544 0.65673 0.03423 0.0
C898 C 0.65551 0.62817 0.02832 0.0
C899 C 0.63076 0.61568 0.04294 0.0
C900 C 0.61623 0.6325 0.06486 0.0
C901 C 0.62615 0.66169 0.07167 0.0
C902 C 0.65067 0.67418 0.05561 0.0
H903 H 0.26394 0.63801 0.03574 0.0
H904 H 0.21922 0.71799 0.06539 0.0
H905 H 0.24807 0.74713 0.02786 0.0
H906 H 0.33449 0.66859 0.03049 0.0
H907 H 0.34607 0.64788 0.99803 0.0
H908 H 0.31809 0.63259 0.02286 0.0
H909 H 0.28016 0.62658 0.97881 0.0
H910 H 0.30835 0.64111 0.9536 0.0
H911 H 0.27175 0.65813 0.95553 0.0
H912 H 0.28553 0.76777 0.98874 0.0
H913 H 0.32692 0.77721 0.9523 0.0
H914 H 0.34889 0.68369 0.95378 0.0
C915 C 0.25943 0.66151 0.03381 0.0
C916 C 0.23913 0.67569 0.0533 0.0
C917 C 0.23435 0.70659 0.05036 0.0
C918 C 0.25077 0.72333 0.02922 0.0
C919 C 0.27176 0.70875 0.01132 0.0
C920 C 0.27582 0.67843 0.01332 0.0
C921 C 0.30143 0.66813 0.99377 0.0
C922 C 0.32649 0.65345 0.01241 0.0
C923 C 0.28972 0.64726 0.96896 0.0
C924 C 0.31185 0.69745 0.98106 0.0
C925 C 0.29421 0.72066 0.99078 0.0
C926 C 0.2995 0.74972 0.98111 0.0
C927 C 0.32312 0.75493 0.96065 0.0
C928 C 0.34148 0.7313 0.95087 0.0
C929 C 0.33579 0.70237 0.9615 0.0
H930 H 0.26017 0.36142 0.99664 0.0
H931 H 0.19339 0.29036 0.99432 0.0
H932 H 0.2291 0.25751 0.02084 0.0
H933 H 0.32264 0.31887 0.98153 0.0
H934 H 0.34814 0.33839 0.00635 0.0
H935 H 0.31642 0.35738 0.99027 0.0
H936 H 0.29697 0.37173 0.04307 0.0
H937 H 0.32932 0.35386 0.05928 0.0
H938 H 0.2918 0.3432 0.07093 0.0
H939 H 0.27521 0.23084 0.04245 0.0
H940 H 0.32348 0.21589 0.06597 0.0
H941 H 0.35847 0.30534 0.05407 0.0
C942 C 0.25262 0.33922 0.00238 0.0
C943 C 0.22412 0.32834 0.99303 0.0
C944 C 0.21521 0.29914 0.00111 0.0
C945 C 0.23544 0.28024 0.01595 0.0
C946 C 0.26419 0.29114 0.023 0.0
C947 C 0.27238 0.32024 0.0172 0.0
C948 C 0.3046 0.32664 0.02655 0.0
C949 C 0.32409 0.33586 0.99956 0.0
C950 C 0.30573 0.35025 0.05144 0.0
C951 C 0.31353 0.29652 0.03819 0.0
C952 C 0.2901 0.27618 0.03582 0.0
C953 C 0.29353 0.24675 0.0448 0.0
C954 C 0.32111 0.23839 0.05789 0.0
C955 C 0.3446 0.25954 0.06228 0.0
C956 C 0.34095 0.28863 0.05125 0.0
H957 H 0.74351 0.38003 0.02743 0.0
H958 H 0.79825 0.30158 0.03971 0.0
H959 H 0.76742 0.27517 0.00161 0.0
H960 H 0.67528 0.3431 0.02452 0.0
H961 H 0.65816 0.36691 0.997 0.0
H962 H 0.68734 0.38128 0.02123 0.0
H963 H 0.71926 0.39755 0.97537 0.0
H964 H 0.68978 0.38399 0.95094 0.0
H965 H 0.72784 0.37082 0.94666 0.0
H966 H 0.72766 0.2564 0.9649 0.0
H967 H 0.68379 0.24765 0.93136 0.0
H968 H 0.65397 0.33772 0.94713 0.0
C969 C 0.74972 0.35761 0.02148 0.0
C970 C 0.77345 0.34292 0.03627 0.0
C971 C 0.78033 0.31332 0.02835 0.0
C972 C 0.76288 0.29813 0.00687 0.0
C973 C 0.73868 0.3129 0.99374 0.0
C974 C 0.73232 0.34209 0.00059 0.0
C975 C 0.70375 0.35234 0.98538 0.0
C976 C 0.67973 0.36143 0.00841 0.0
C977 C 0.71058 0.37767 0.96327 0.0
C978 C 0.69467 0.32423 0.96924 0.0
C979 C 0.7152 0.30178 0.97398 0.0
C980 C 0.71148 0.27384 0.96101 0.0
C981 C 0.68646 0.26902 0.9422 0.0
C982 C 0.66537 0.2919 0.93704 0.0
C983 C 0.66943 0.31964 0.95108 0.0
H984 H 0.13715 0.26585 0.31634 0.0
H985 H 0.17889 0.35217 0.33179 0.0
H986 H 0.2178 0.32841 0.36331 0.0
H987 H 0.15425 0.23299 0.39047 0.0
H988 H 0.1614 0.19719 0.37412 0.0
H989 H 0.13436 0.22164 0.35704 0.0
H990 H 0.16337 0.21819 0.30682 0.0
H991 H 0.19066 0.19411 0.32376 0.0
H992 H 0.20296 0.22792 0.30581 0.0
H993 H 0.25473 0.2945 0.38894 0.0
H994 H 0.28722 0.25354 0.40573 0.0
H995 H 0.22194 0.18962 0.3711 0.0
C996 C 0.154 0.28002 0.32684 0.0
C997 C 0.15488 0.31096 0.32161 0.0
C998 C 0.17765 0.32845 0.33555 0.0
C999 C 0.1998 0.31516 0.35354 0.0
C1000 C 0.19874 0.28444 0.35737 0.0
C1001 C 0.1763 0.26715 0.3445 0.0
C1002 C 0.18161 0.23442 0.3496 0.0
C1003 C 0.15641 0.22076 0.36897 0.0
C1004 C 0.18485 0.2177 0.31972 0.0
C1005 C 0.2112 0.23586 0.36646 0.0
C1006 C 0.22041 0.26489 0.37127 0.0
C1007 C 0.24759 0.27172 0.38555 0.0
C1008 C 0.26589 0.24827 0.39495 0.0
C1009 C 0.25717 0.21836 0.38959 0.0
C1010 C 0.2293 0.21222 0.3754 0.0
H1011 H 0.8563 0.15111 0.29536 0.0
H1012 H 0.85302 0.11396 0.38441 0.0
H1013 H 0.79838 0.10389 0.37849 0.0
H1014 H 0.79498 0.18943 0.29795 0.0
H1015 H 0.78033 0.18324 0.26076 0.0
H1016 H 0.8201 0.17995 0.26777 0.0
H1017 H 0.82016 0.12616 0.24745 0.0
H1018 H 0.78053 0.12962 0.23885 0.0
H1019 H 0.79339 0.0994 0.26186 0.0
H1020 H 0.74295 0.1117 0.36819 0.0
H1021 H 0.69198 0.12482 0.34907 0.0
H1022 H 0.73195 0.1533 0.26535 0.0
C1023 C 0.84453 0.13869 0.31259 0.0
C1024 C 0.85865 0.13313 0.34028 0.0
C1025 C 0.84238 0.11823 0.36303 0.0
C1026 C 0.81133 0.1126 0.35989 0.0
C1027 C 0.79726 0.12109 0.33335 0.0
C1028 C 0.81358 0.13254 0.30949 0.0
C1029 C 0.79279 0.14256 0.28457 0.0
C1030 C 0.79734 0.17575 0.27738 0.0
C1031 C 0.79696 0.12328 0.25652 0.0
C1032 C 0.76239 0.13681 0.29891 0.0
C1033 C 0.76529 0.12442 0.32703 0.0
C1034 C 0.74032 0.12041 0.34578 0.0
C1035 C 0.71159 0.12833 0.33502 0.0
C1036 C 0.70828 0.13987 0.30581 0.0
C1037 C 0.73399 0.14412 0.28767 0.0
H1038 H 0.88837 0.73289 0.27134 0.0
H1039 H 0.86744 0.64864 0.31411 0.0
H1040 H 0.83284 0.6743 0.34864 0.0
H1041 H 0.88252 0.78031 0.33905 0.0
H1042 H 0.86547 0.80987 0.31796 0.0
H1043 H 0.89215 0.78559 0.30022 0.0
H1044 H 0.8525 0.77321 0.25911 0.0
H1045 H 0.8256 0.79704 0.27689 0.0
H1046 H 0.81601 0.7587 0.26988 0.0
H1047 H 0.79616 0.70813 0.37411 0.0
H1048 H 0.761 0.74738 0.38927 0.0
H1049 H 0.80549 0.80891 0.32846 0.0
C1050 C 0.87713 0.7198 0.28838 0.0
C1051 C 0.88062 0.68871 0.28997 0.0
C1052 C 0.86521 0.6725 0.3125 0.0
C1053 C 0.84554 0.68688 0.33223 0.0
C1054 C 0.84179 0.71741 0.32921 0.0
C1055 C 0.85738 0.7337 0.308 0.0
C1056 C 0.84743 0.76568 0.30739 0.0
C1057 C 0.87344 0.78659 0.31672 0.0
C1058 C 0.83462 0.77413 0.27649 0.0
C1059 C 0.82299 0.76468 0.33087 0.0
C1060 C 0.82036 0.73679 0.34352 0.0
C1061 C 0.79826 0.73014 0.36463 0.0
C1062 C 0.77828 0.75258 0.37295 0.0
C1063 C 0.78036 0.78125 0.35992 0.0
C1064 C 0.80326 0.78729 0.33885 0.0
H1065 H 0.30366 0.85351 0.3027 0.0
H1066 H 0.29638 0.94554 0.27553 0.0
H1067 H 0.24586 0.94807 0.29796 0.0
H1068 H 0.23366 0.83226 0.28467 0.0
H1069 H 0.22615 0.80801 0.31591 0.0
H1070 H 0.2644 0.81485 0.30433 0.0
H1071 H 0.27854 0.83295 0.35766 0.0
H1072 H 0.24032 0.82567 0.36966 0.0
H1073 H 0.25691 0.86198 0.37492 0.0
H1074 H 0.19248 0.93715 0.31078 0.0
H1075 H 0.14201 0.91521 0.32119 0.0
H1076 H 0.18421 0.83177 0.34388 0.0
C1077 C 0.29194 0.87448 0.30276 0.0
C1078 C 0.3037 0.89919 0.28721 0.0
C1079 C 0.28754 0.9262 0.28709 0.0
C1080 C 0.25887 0.92794 0.29989 0.0
C1081 C 0.24688 0.90265 0.3133 0.0
C1082 C 0.26319 0.87665 0.31569 0.0
C1083 C 0.24385 0.85191 0.32858 0.0
C1084 C 0.2419 0.82521 0.30708 0.0
C1085 C 0.25561 0.84259 0.35955 0.0
C1086 C 0.21383 0.86754 0.33105 0.0
C1087 C 0.21605 0.89687 0.32234 0.0
C1088 C 0.19054 0.91455 0.31877 0.0
C1089 C 0.16201 0.90193 0.32443 0.0
C1090 C 0.15946 0.87212 0.33387 0.0
C1091 C 0.18572 0.85495 0.33761 0.0
H1092 H 0.1936 0.66549 0.71956 0.0
H1093 H 0.12821 0.66582 0.64769 0.0
H1094 H 0.15779 0.70459 0.6216 0.0
H1095 H 0.19354 0.73478 0.72903 0.0
H1096 H 0.2326 0.74197 0.73827 0.0
H1097 H 0.21673 0.70583 0.74451 0.0
H1098 H 0.25746 0.68162 0.71145 0.0
H1099 H 0.27451 0.71772 0.70594 0.0
H1100 H 0.26401 0.69529 0.67409 0.0
H1101 H 0.18492 0.75148 0.61089 0.0
H1102 H 0.20631 0.80204 0.61671 0.0
H1103 H 0.24967 0.77543 0.6994 0.0
C1104 C 0.18704 0.67221 0.69719 0.0
C1105 C 0.15951 0.66212 0.68489 0.0
C1106 C 0.14997 0.6726 0.65669 0.0
C1107 C 0.16659 0.69475 0.64188 0.0
C1108 C 0.19232 0.70641 0.65593 0.0
C1109 C 0.20275 0.6952 0.68293 0.0
C1110 C 0.22586 0.7159 0.69717 0.0
C1111 C 0.21657 0.72516 0.72909 0.0
C1112 C 0.25733 0.70179 0.69714 0.0
C1113 C 0.22454 0.74168 0.67559 0.0
C1114 C 0.20632 0.73521 0.65119 0.0
C1115 C 0.19974 0.75653 0.62955 0.0
C1116 C 0.21175 0.78522 0.63314 0.0
C1117 C 0.2292 0.79251 0.65871 0.0
C1118 C 0.23615 0.77033 0.67979 0.0
H1119 H 0.2835 0.14752 0.7367 0.0
H1120 H 0.33499 0.13233 0.6561 0.0
H1121 H 0.28758 0.12844 0.62689 0.0
H1122 H 0.21034 0.10517 0.71342 0.0
H1123 H 0.18766 0.1337 0.73018 0.0
H1124 H 0.22365 0.12426 0.74646 0.0
H1125 H 0.24118 0.17922 0.74278 0.0
H1126 H 0.20526 0.18864 0.72726 0.0
H1127 H 0.23934 0.19783 0.70709 0.0
H1128 H 0.2379 0.13744 0.60511 0.0
H1129 H 0.19459 0.1684 0.59153 0.0
H1130 H 0.17418 0.18139 0.68506 0.0
C1131 C 0.28449 0.14206 0.71311 0.0
C1132 C 0.31254 0.13961 0.69856 0.0
C1133 C 0.31351 0.13388 0.66753 0.0
C1134 C 0.28668 0.13128 0.65092 0.0
C1135 C 0.25914 0.13486 0.66566 0.0
C1136 C 0.2579 0.14044 0.69612 0.0
C1137 C 0.22675 0.15056 0.7054 0.0
C1138 C 0.21118 0.12701 0.72502 0.0
C1139 C 0.22825 0.18085 0.72152 0.0
C1140 C 0.21149 0.15262 0.67505 0.0
C1141 C 0.22996 0.14167 0.65266 0.0
C1142 C 0.22289 0.14523 0.62243 0.0
C1143 C 0.19798 0.1626 0.61484 0.0
C1144 C 0.18087 0.17658 0.63737 0.0
C1145 C 0.18627 0.16976 0.66766 0.0
H1146 H 0.8106 0.20782 0.65227 0.0
H1147 H 0.7434 0.21071 0.58133 0.0
H1148 H 0.75695 0.26269 0.57125 0.0
H1149 H 0.79671 0.27515 0.68184 0.0
H1150 H 0.83526 0.28544 0.69026 0.0
H1151 H 0.82464 0.24696 0.6882 0.0
H1152 H 0.86592 0.23813 0.64817 0.0
H1153 H 0.87677 0.27674 0.65023 0.0
H1154 H 0.8665 0.26049 0.61472 0.0
H1155 H 0.76996 0.31658 0.57578 0.0
H1156 H 0.78463 0.36708 0.59253 0.0
H1157 H 0.84557 0.32851 0.65783 0.0
C1158 C 0.79941 0.21907 0.63399 0.0
C1159 C 0.77588 0.20508 0.61775 0.0
C1160 C 0.76157 0.22079 0.59417 0.0
C1161 C 0.76914 0.25041 0.58814 0.0
C1162 C 0.79157 0.26393 0.60536 0.0
C1163 C 0.80699 0.2486 0.62739 0.0
C1164 C 0.82819 0.26899 0.64449 0.0
C1165 C 0.82073 0.26914 0.67816 0.0
C1166 C 0.86131 0.26058 0.63906 0.0
C1167 C 0.82083 0.29836 0.62989 0.0
C1168 C 0.79994 0.29502 0.60712 0.0
C1169 C 0.78702 0.31947 0.59295 0.0
C1170 C 0.79537 0.34806 0.60267 0.0
C1171 C 0.81646 0.35185 0.62625 0.0
C1172 C 0.82986 0.32655 0.63929 0.0
H1173 H 0.76499 0.80112 0.60396 0.0
H1174 H 0.83299 0.82167 0.67091 0.0
H1175 H 0.79903 0.8591 0.69293 0.0
H1176 H 0.72742 0.87825 0.60149 0.0
H1177 H 0.69088 0.86066 0.59758 0.0
H1178 H 0.72366 0.84403 0.58086 0.0
H1179 H 0.71225 0.79508 0.60887 0.0
H1180 H 0.67973 0.81119 0.62583 0.0
H1181 H 0.70883 0.79549 0.6491 0.0
H1182 H 0.75394 0.88372 0.71478 0.0
H1183 H 0.70304 0.89116 0.73539 0.0
H1184 H 0.66359 0.85204 0.65549 0.0
C1185 C 0.77327 0.81444 0.62247 0.0
C1186 C 0.80151 0.80857 0.63581 0.0
C1187 C 0.81153 0.8261 0.66018 0.0
C1188 C 0.79236 0.84743 0.67275 0.0
C1189 C 0.76361 0.85116 0.6603 0.0
C1190 C 0.75434 0.83537 0.6353 0.0
C1191 C 0.72086 0.83872 0.62947 0.0
C1192 C 0.7154 0.85649 0.60064 0.0
C1193 C 0.7045 0.80833 0.6283 0.0
C1194 C 0.71204 0.85638 0.65676 0.0
C1195 C 0.73713 0.86458 0.67354 0.0
C1196 C 0.73425 0.87807 0.70145 0.0
C1197 C 0.70516 0.88214 0.71302 0.0
C1198 C 0.67936 0.87195 0.69705 0.0
C1199 C 0.68292 0.86014 0.66808 0.0
H1200 H 0.34261 0.11907 0.31909 0.0
H1201 H 0.40456 0.18268 0.35964 0.0
H1202 H 0.42768 0.19153 0.31009 0.0
H1203 H 0.39315 0.09397 0.25433 0.0
H1204 H 0.36066 0.0926 0.22994 0.0
H1205 H 0.35669 0.08375 0.26911 0.0
H1206 H 0.31491 0.12335 0.2734 0.0
H1207 H 0.31925 0.1328 0.2347 0.0
H1208 H 0.32331 0.16118 0.26292 0.0
H1209 H 0.4361 0.20159 0.25615 0.0
H1210 H 0.4271 0.21485 0.20364 0.0
H1211 H 0.3562 0.14795 0.19777 0.0
C1212 C 0.36181 0.1341 0.31789 0.0
C1213 C 0.37175 0.15027 0.34332 0.0
C1214 C 0.39671 0.16987 0.34059 0.0
C1215 C 0.41002 0.17494 0.31249 0.0
C1216 C 0.3982 0.16009 0.28751 0.0
C1217 C 0.37471 0.13986 0.29006 0.0
C1218 C 0.362 0.13117 0.25971 0.0
C1219 C 0.36853 0.09843 0.25286 0.0
C1220 C 0.32788 0.13754 0.25759 0.0
C1221 C 0.38029 0.15154 0.23971 0.0
C1222 C 0.40195 0.16702 0.25605 0.0
C1223 C 0.41959 0.18925 0.24312 0.0
C1224 C 0.4141 0.19677 0.21324 0.0
C1225 C 0.39066 0.18263 0.19665 0.0
C1226 C 0.37447 0.15888 0.20975 0.0
H1227 H 0.86708 0.27893 0.32133 0.0
H1228 H 0.93671 0.23641 0.26845 0.0
H1229 H 0.92456 0.26851 0.22588 0.0
H1230 H 0.81386 0.28403 0.26362 0.0
H1231 H 0.79959 0.31975 0.27451 0.0
H1232 H 0.81575 0.29564 0.30221 0.0
H1233 H 0.85364 0.33715 0.31768 0.0
H1234 H 0.83751 0.36148 0.29002 0.0
H1235 H 0.87745 0.35405 0.28966 0.0
H1236 H 0.90165 0.30087 0.18737 0.0
H1237 H 0.87015 0.33337 0.15585 0.0
H1238 H 0.81629 0.35596 0.23352 0.0
C1239 C 0.88008 0.27668 0.30097 0.0
C1240 C 0.90297 0.25523 0.29842 0.0
C1241 C 0.91925 0.25282 0.2712 0.0
C1242 C 0.91254 0.27097 0.24678 0.0
C1243 C 0.8896 0.29155 0.24989 0.0
C1244 C 0.87373 0.2947 0.2763 0.0
C1245 C 0.84901 0.31744 0.27306 0.0
C1246 C 0.81771 0.30336 0.27867 0.0
C1247 C 0.85476 0.34411 0.29384 0.0
C1248 C 0.85304 0.32592 0.24052 0.0
C1249 C 0.87666 0.31079 0.22762 0.0
C1250 C 0.8834 0.31327 0.19727 0.0
C1251 C 0.86534 0.33162 0.17955 0.0
C1252 C 0.84103 0.3473 0.19235 0.0
C1253 C 0.83512 0.34467 0.22329 0.0
H1254 H 0.61271 0.75258 0.21445 0.0
H1255 H 0.64952 0.81905 0.15402 0.0
H1256 H 0.65422 0.85408 0.19652 0.0
H1257 H 0.57454 0.80481 0.26854 0.0
H1258 H 0.58521 0.78183 0.29978 0.0
H1259 H 0.57718 0.76522 0.26385 0.0
H1260 H 0.62968 0.74029 0.26423 0.0
H1261 H 0.63784 0.75663 0.29997 0.0
H1262 H 0.66313 0.76299 0.269 0.0
H1263 H 0.66278 0.87835 0.24601 0.0
H1264 H 0.68081 0.88741 0.29731 0.0
H1265 H 0.64146 0.8036 0.32581 0.0
C1266 C 0.621 0.77478 0.20978 0.0
C1267 C 0.63073 0.78306 0.18075 0.0
C1268 C 0.64181 0.81221 0.17597 0.0
C1269 C 0.64431 0.83231 0.19997 0.0
C1270 C 0.63547 0.82296 0.22851 0.0
C1271 C 0.62405 0.79478 0.23344 0.0
C1272 C 0.62095 0.78817 0.26655 0.0
C1273 C 0.58749 0.78482 0.27519 0.0
C1274 C 0.63899 0.76041 0.27543 0.0
C1275 C 0.63463 0.8162 0.2797 0.0
C1276 C 0.64158 0.83651 0.25739 0.0
C1277 C 0.65706 0.86281 0.26363 0.0
C1278 C 0.66729 0.8677 0.29291 0.0
C1279 C 0.66271 0.84604 0.31555 0.0
C1280 C 0.6448 0.82075 0.30915 0.0
H1281 H 0.16136 0.68542 0.18234 0.0
H1282 H 0.1858 0.61693 0.24613 0.0
H1283 H 0.1565 0.64219 0.28512 0.0
H1284 H 0.17008 0.7441 0.22926 0.0
H1285 H 0.13852 0.76528 0.21574 0.0
H1286 H 0.15669 0.73927 0.19139 0.0
H1287 H 0.10548 0.71231 0.18207 0.0
H1288 H 0.08705 0.7385 0.20628 0.0
H1289 H 0.08362 0.69928 0.21351 0.0
H1290 H 0.13232 0.67902 0.3191 0.0
H1291 H 0.11247 0.72351 0.34452 0.0
H1292 H 0.10231 0.76678 0.25833 0.0
C1293 C 0.15986 0.67524 0.20425 0.0
C1294 C 0.17605 0.64929 0.21114 0.0
C1295 C 0.17372 0.63689 0.24025 0.0
C1296 C 0.15699 0.65099 0.26258 0.0
C1297 C 0.14229 0.67718 0.25537 0.0
C1298 C 0.14312 0.68894 0.22677 0.0
C1299 C 0.12766 0.71868 0.2255 0.0
C1300 C 0.14955 0.74326 0.21486 0.0
C1301 C 0.09926 0.71708 0.20566 0.0
C1302 C 0.11946 0.72247 0.2581 0.0
C1303 C 0.12771 0.69817 0.27496 0.0
C1304 C 0.12511 0.69792 0.30607 0.0
C1305 C 0.11406 0.72333 0.32033 0.0
C1306 C 0.10574 0.7485 0.3034 0.0
C1307 C 0.10795 0.74768 0.27188 0.0
H1308 H 0.38663 0.74471 0.75943 0.0
H1309 H 0.4111 0.81028 0.82634 0.0
H1310 H 0.40806 0.84976 0.78792 0.0
H1311 H 0.42136 0.78385 0.69169 0.0
H1312 H 0.38984 0.77262 0.66855 0.0
H1313 H 0.40243 0.74893 0.69855 0.0
H1314 H 0.34848 0.74838 0.72131 0.0
H1315 H 0.33588 0.7711 0.69102 0.0
H1316 H 0.33029 0.78316 0.72908 0.0
H1317 H 0.39338 0.88207 0.74609 0.0
H1318 H 0.35824 0.90447 0.71008 0.0
H1319 H 0.34189 0.81863 0.66976 0.0
C1320 C 0.39217 0.76734 0.7657 0.0
C1321 C 0.39917 0.77465 0.79562 0.0
C1322 C 0.40551 0.80442 0.80345 0.0
C1323 C 0.40438 0.82681 0.78165 0.0
C1324 C 0.39687 0.81896 0.75226 0.0
C1325 C 0.39053 0.78988 0.74438 0.0
C1326 C 0.3771 0.78775 0.71326 0.0
C1327 C 0.399 0.77238 0.69174 0.0
C1328 C 0.34612 0.77171 0.71374 0.0
C1329 C 0.37432 0.82038 0.70578 0.0
C1330 C 0.38741 0.83796 0.72787 0.0
C1331 C 0.38376 0.86863 0.72833 0.0
C1332 C 0.36397 0.88127 0.70757 0.0
C1333 C 0.34773 0.86313 0.68718 0.0
C1334 C 0.35492 0.8329 0.68454 0.0
H1335 H 0.17925 0.33903 0.83336 0.0
H1336 H 0.10832 0.28059 0.86633 0.0
H1337 H 0.0909 0.27227 0.81413 0.0
H1338 H 0.13849 0.3703 0.76837 0.0
H1339 H 0.17198 0.36976 0.74552 0.0
H1340 H 0.17517 0.3751 0.78541 0.0
H1341 H 0.21137 0.33034 0.78885 0.0
H1342 H 0.20833 0.32483 0.74912 0.0
H1343 H 0.19931 0.29482 0.77432 0.0
H1344 H 0.08406 0.2676 0.75823 0.0
H1345 H 0.09173 0.26158 0.70404 0.0
H1346 H 0.16986 0.3205 0.7084 0.0
C1347 C 0.15949 0.3251 0.8298 0.0
C1348 C 0.14478 0.3108 0.85394 0.0
C1349 C 0.11971 0.29194 0.84815 0.0
C1350 C 0.10959 0.28728 0.81863 0.0
C1351 C 0.12498 0.30148 0.79532 0.0
C1352 C 0.14957 0.31981 0.80066 0.0
C1353 C 0.16476 0.32939 0.77189 0.0
C1354 C 0.16245 0.36314 0.76754 0.0
C1355 C 0.19788 0.31922 0.77101 0.0
C1356 C 0.14549 0.31278 0.74937 0.0
C1357 C 0.12214 0.29752 0.76324 0.0
C1358 C 0.10214 0.27959 0.74715 0.0
C1359 C 0.10673 0.27636 0.7163 0.0
C1360 C 0.13158 0.29045 0.70191 0.0
C1361 C 0.15065 0.3095 0.71866 0.0
H1362 H 0.65521 0.1917 0.66674 0.0
H1363 H 0.66391 0.11113 0.71867 0.0
H1364 H 0.62899 0.13086 0.75645 0.0
H1365 H 0.66244 0.23793 0.7225 0.0
H1366 H 0.63566 0.26569 0.7112 0.0
H1367 H 0.65257 0.24232 0.68356 0.0
H1368 H 0.5997 0.22508 0.66519 0.0
H1369 H 0.58245 0.2489 0.6926 0.0
H1370 H 0.57297 0.20993 0.69159 0.0
H1371 H 0.60661 0.1634 0.79413 0.0
H1372 H 0.59485 0.20549 0.82742 0.0
H1373 H 0.59887 0.26537 0.75165 0.0
C1374 C 0.64831 0.17772 0.68526 0.0
C1375 C 0.66187 0.14997 0.68989 0.0
C1376 C 0.6535 0.13248 0.71485 0.0
C1377 C 0.63358 0.14344 0.73631 0.0
C1378 C 0.6221 0.17184 0.73233 0.0
C1379 C 0.62862 0.18858 0.70709 0.0
C1380 C 0.61762 0.22012 0.71059 0.0
C1381 C 0.64363 0.24281 0.70676 0.0
C1382 C 0.59163 0.22637 0.68869 0.0
C1383 C 0.60641 0.21912 0.74257 0.0
C1384 C 0.60848 0.19088 0.75446 0.0
C1385 C 0.60384 0.18538 0.78484 0.0
C1386 C 0.59749 0.20939 0.80364 0.0
C1387 C 0.59575 0.23843 0.7919 0.0
C1388 C 0.5993 0.24317 0.76091 0.0
H1389 H 0.81818 0.65659 0.68936 0.0
H1390 H 0.8864 0.72435 0.70669 0.0
H1391 H 0.88662 0.7109 0.76004 0.0
H1392 H 0.77533 0.66718 0.75094 0.0
H1393 H 0.76694 0.62869 0.75853 0.0
H1394 H 0.77577 0.64024 0.72109 0.0
H1395 H 0.81868 0.60167 0.7192 0.0
H1396 H 0.81046 0.59032 0.75702 0.0
H1397 H 0.84801 0.6025 0.74727 0.0
H1398 H 0.87209 0.69681 0.81296 0.0
H1399 H 0.8464 0.68043 0.85949 0.0
H1400 H 0.79136 0.6193 0.807 0.0
C1401 C 0.83376 0.66804 0.70421 0.0
C1402 C 0.85206 0.69164 0.69372 0.0
C1403 C 0.87209 0.70614 0.71402 0.0
C1404 C 0.87246 0.69864 0.74448 0.0
C1405 C 0.85331 0.67603 0.75432 0.0
C1406 C 0.83487 0.66041 0.73463 0.0
C1407 C 0.81504 0.63836 0.75114 0.0
C1408 C 0.7813 0.64399 0.74507 0.0
C1409 C 0.82357 0.60632 0.74317 0.0
C1410 C 0.82361 0.64562 0.78317 0.0
C1411 C 0.84602 0.66705 0.78471 0.0
C1412 C 0.85509 0.67942 0.81207 0.0
C1413 C 0.84039 0.67003 0.83842 0.0
C1414 C 0.81683 0.64862 0.83705 0.0
C1415 C 0.80931 0.63568 0.80906 0.0
H1416 H 0.15188 0.29639 0.17614 0.0
H1417 H 0.1828 0.38417 0.20306 0.0
H1418 H 0.23236 0.37456 0.18053 0.0
H1419 H 0.21337 0.25967 0.19503 0.0
H1420 H 0.21433 0.23403 0.16407 0.0
H1421 H 0.17909 0.24987 0.17532 0.0
H1422 H 0.17033 0.27033 0.12178 0.0
H1423 H 0.20533 0.25385 0.11005 0.0
H1424 H 0.19916 0.2929 0.10433 0.0
H1425 H 0.28153 0.35145 0.1654 0.0
H1426 H 0.32425 0.3185 0.15328 0.0
H1427 H 0.26062 0.24665 0.13554 0.0
C1428 C 0.16858 0.31409 0.17619 0.0
C1429 C 0.16339 0.3409 0.19161 0.0
C1430 C 0.18612 0.36335 0.19146 0.0
C1431 C 0.21445 0.35814 0.17868 0.0
C1432 C 0.21953 0.33066 0.1655 0.0
C1433 C 0.19692 0.30931 0.16338 0.0
C1434 C 0.20893 0.28057 0.15087 0.0
C1435 C 0.20362 0.25453 0.17263 0.0
C1436 C 0.19512 0.27404 0.11992 0.0
C1437 C 0.24209 0.28843 0.14836 0.0
C1438 C 0.24781 0.31752 0.15637 0.0
C1439 C 0.27724 0.32882 0.15834 0.0
C1440 C 0.30138 0.30988 0.15174 0.0
C1441 C 0.29586 0.27997 0.14349 0.0
C1442 C 0.26573 0.26944 0.14152 0.0
H1443 H 0.32398 0.64724 0.81262 0.0
H1444 H 0.3093 0.69034 0.8982 0.0
H1445 H 0.2551 0.67842 0.89506 0.0
H1446 H 0.2607 0.67373 0.77785 0.0
H1447 H 0.25144 0.64071 0.75689 0.0
H1448 H 0.28991 0.64797 0.76784 0.0
H1449 H 0.29215 0.59696 0.79457 0.0
H1450 H 0.25367 0.5894 0.7834 0.0
H1451 H 0.26418 0.58762 0.82237 0.0
H1452 H 0.20187 0.67129 0.87814 0.0
H1453 H 0.15358 0.66359 0.85072 0.0
H1454 H 0.20231 0.62184 0.77828 0.0
C1455 C 0.3095 0.65318 0.83114 0.0
C1456 C 0.32084 0.66978 0.85556 0.0
C1457 C 0.30107 0.67777 0.87913 0.0
C1458 C 0.27022 0.67102 0.87764 0.0
C1459 C 0.25942 0.6559 0.85262 0.0
C1460 C 0.27848 0.64653 0.83004 0.0
C1461 C 0.26065 0.63278 0.8045 0.0
C1462 C 0.266 0.64982 0.77506 0.0
C1463 C 0.26811 0.59972 0.80102 0.0
C1464 C 0.22874 0.63693 0.81583 0.0
C1465 C 0.22846 0.65033 0.84362 0.0
C1466 C 0.20166 0.65985 0.85684 0.0
C1467 C 0.17442 0.65554 0.84117 0.0
C1468 C 0.17433 0.64139 0.81297 0.0
C1469 C 0.20176 0.63165 0.80042 0.0
H1470 H 0.27167 0.31439 0.87116 0.0
H1471 H 0.27286 0.25905 0.9505 0.0
H1472 H 0.31367 0.22925 0.92864 0.0
H1473 H 0.27524 0.25991 0.82185 0.0
H1474 H 0.29933 0.27763 0.7946 0.0
H1475 H 0.27678 0.29981 0.81912 0.0
H1476 H 0.32453 0.32795 0.83781 0.0
H1477 H 0.34736 0.3062 0.81282 0.0
H1478 H 0.35612 0.30737 0.85223 0.0
H1479 H 0.34422 0.19891 0.8943 0.0
H1480 H 0.36579 0.17237 0.85112 0.0
H1481 H 0.34571 0.24745 0.79394 0.0
C1482 C 0.28163 0.29693 0.88448 0.0
C1483 C 0.26931 0.28897 0.91244 0.0
C1484 C 0.28208 0.2654 0.92896 0.0
C1485 C 0.30534 0.24846 0.91679 0.0
C1486 C 0.31573 0.25561 0.88826 0.0
C1487 C 0.30472 0.27966 0.8725 0.0
C1488 C 0.31648 0.28006 0.8407 0.0
C1489 C 0.29041 0.27929 0.81775 0.0
C1490 C 0.33738 0.307 0.8356 0.0
C1491 C 0.3341 0.25146 0.84049 0.0
C1492 C 0.33386 0.23798 0.86828 0.0
C1493 C 0.34539 0.20963 0.87266 0.0
C1494 C 0.3573 0.19462 0.84797 0.0
C1495 C 0.35753 0.20799 0.81932 0.0
C1496 C 0.34639 0.237 0.81576 0.0
H1497 H 0.64848 0.38708 0.80193 0.0
H1498 H 0.6958 0.32485 0.85908 0.0
H1499 H 0.74448 0.34456 0.84112 0.0
H1500 H 0.69195 0.37935 0.74131 0.0
H1501 H 0.69208 0.41759 0.72947 0.0
H1502 H 0.66129 0.40341 0.75143 0.0
H1503 H 0.67052 0.44463 0.79108 0.0
H1504 H 0.70139 0.45908 0.76903 0.0
H1505 H 0.70749 0.44909 0.80761 0.0
H1506 H 0.78726 0.36381 0.80991 0.0
H1507 H 0.82007 0.38225 0.7691 0.0
H1508 H 0.74505 0.43309 0.73398 0.0
C1509 C 0.66905 0.37824 0.81141 0.0
C1510 C 0.6682 0.35431 0.83176 0.0
C1511 C 0.69573 0.34314 0.84335 0.0
C1512 C 0.7236 0.35431 0.83344 0.0
C1513 C 0.72364 0.37705 0.81237 0.0
C1514 C 0.69706 0.38928 0.8019 0.0
C1515 C 0.7031 0.41121 0.77698 0.0
C1516 C 0.68612 0.40233 0.74811 0.0
C1517 C 0.69515 0.44288 0.78677 0.0
C1518 C 0.73688 0.40779 0.77367 0.0
C1519 C 0.74851 0.38852 0.79467 0.0
C1520 C 0.77858 0.37952 0.7938 0.0
C1521 C 0.79702 0.38998 0.77046 0.0
C1522 C 0.78517 0.40902 0.74824 0.0
C1523 C 0.75498 0.4187 0.75064 0.0
H1524 H 0.67501 0.67477 0.85485 0.0
H1525 H 0.71642 0.72525 0.92719 0.0
H1526 H 0.68888 0.76967 0.91103 0.0
H1527 H 0.68258 0.72663 0.80169 0.0
H1528 H 0.64714 0.71995 0.78275 0.0
H1529 H 0.66452 0.69065 0.80363 0.0
H1530 H 0.616 0.68411 0.83547 0.0
H1531 H 0.59823 0.71326 0.81436 0.0
H1532 H 0.60043 0.71568 0.85458 0.0
H1533 H 0.66498 0.81038 0.88144 0.0
H1534 H 0.64429 0.84322 0.84231 0.0
H1535 H 0.61791 0.76581 0.79016 0.0
C1536 C 0.67754 0.69487 0.86794 0.0
C1537 C 0.69801 0.6965 0.89216 0.0
C1538 C 0.70092 0.72339 0.90848 0.0
C1539 C 0.68526 0.74878 0.89956 0.0
C1540 C 0.6664 0.74678 0.87464 0.0
C1541 C 0.66204 0.72035 0.8594 0.0
C1542 C 0.64323 0.72471 0.83149 0.0
C1543 C 0.66041 0.71493 0.80325 0.0
C1544 C 0.61265 0.70848 0.83415 0.0
C1545 C 0.6393 0.75796 0.83243 0.0
C1546 C 0.65231 0.77029 0.85773 0.0
C1547 C 0.65406 0.80093 0.86189 0.0
C1548 C 0.64245 0.81942 0.83945 0.0
C1549 C 0.62949 0.80713 0.81314 0.0
C1550 C 0.62738 0.77598 0.81009 0.0
H1551 H 0.73264 0.68622 0.11145 0.0
H1552 H 0.68071 0.63746 0.17784 0.0
H1553 H 0.7268 0.60985 0.19185 0.0
H1554 H 0.78626 0.6262 0.09118 0.0
H1555 H 0.81709 0.65242 0.08795 0.0
H1556 H 0.77913 0.6636 0.07898 0.0
H1557 H 0.78329 0.70694 0.11694 0.0
H1558 H 0.82121 0.69626 0.12576 0.0
H1559 H 0.79361 0.69916 0.1552 0.0
H1560 H 0.77983 0.59234 0.20256 0.0
H1561 H 0.83424 0.59168 0.21395 0.0
H1562 H 0.8509 0.65411 0.14178 0.0
C1563 C 0.73055 0.66929 0.12852 0.0
C1564 C 0.70293 0.66399 0.14351 0.0
C1565 C 0.70157 0.64188 0.16598 0.0
C1566 C 0.72758 0.62592 0.17387 0.0
C1567 C 0.7546 0.63225 0.15894 0.0
C1568 C 0.75614 0.65355 0.13678 0.0
C1569 C 0.78829 0.65951 0.12699 0.0
C1570 C 0.79296 0.64984 0.09434 0.0
C1571 C 0.7971 0.69239 0.13153 0.0
C1572 C 0.805 0.6395 0.14833 0.0
C1573 C 0.78519 0.6231 0.16583 0.0
C1574 C 0.79548 0.60482 0.18875 0.0
C1575 C 0.82654 0.60456 0.19499 0.0
C1576 C 0.84688 0.62309 0.17887 0.0
C1577 C 0.836 0.63962 0.15439 0.0
H1578 H 0.3252 0.82572 0.161 0.0
H1579 H 0.40711 0.79955 0.207 0.0
H1580 H 0.39707 0.7474 0.19394 0.0
H1581 H 0.28118 0.77008 0.18637 0.0
H1582 H 0.25954 0.76351 0.15274 0.0
H1583 H 0.27621 0.7994 0.1594 0.0
H1584 H 0.30431 0.79679 0.10867 0.0
H1585 H 0.28739 0.76089 0.10164 0.0
H1586 H 0.32787 0.76539 0.10058 0.0
H1587 H 0.37312 0.69783 0.18558 0.0
H1588 H 0.33869 0.65478 0.1784 0.0
H1589 H 0.27331 0.71272 0.13627 0.0
C1590 C 0.34167 0.80915 0.16707 0.0
C1591 C 0.36696 0.81671 0.1849 0.0
C1592 C 0.38757 0.79427 0.19329 0.0
C1593 C 0.38213 0.76453 0.18591 0.0
C1594 C 0.35615 0.7575 0.16975 0.0
C1595 C 0.33652 0.77919 0.15985 0.0
C1596 C 0.30857 0.76537 0.14577 0.0
C1597 C 0.27969 0.77517 0.16206 0.0
C1598 C 0.30695 0.77254 0.11217 0.0
C1599 C 0.31485 0.73276 0.15089 0.0
C1600 C 0.34255 0.7286 0.16439 0.0
C1601 C 0.35172 0.70067 0.17422 0.0
C1602 C 0.33198 0.67637 0.17024 0.0
C1603 C 0.30344 0.68022 0.15652 0.0
C1604 C 0.29521 0.70878 0.1463 0.0
H1605 H 0.74179 0.30201 0.13302 0.0
H1606 H 0.6769 0.36993 0.15528 0.0
H1607 H 0.63927 0.33087 0.16761 0.0
H1608 H 0.68642 0.24216 0.10673 0.0
H1609 H 0.70852 0.21384 0.12468 0.0
H1610 H 0.7269 0.24625 0.10923 0.0
H1611 H 0.75198 0.25691 0.16066 0.0
H1612 H 0.73371 0.22478 0.17621 0.0
H1613 H 0.72849 0.26058 0.19335 0.0
H1614 H 0.61241 0.28594 0.18537 0.0
H1615 H 0.60055 0.24016 0.21308 0.0
H1616 H 0.68438 0.20132 0.18293 0.0
C1617 C 0.71921 0.30866 0.13925 0.0
C1618 C 0.71194 0.33893 0.14267 0.0
C1619 C 0.6827 0.34684 0.15219 0.0
C1620 C 0.66117 0.3248 0.15897 0.0
C1621 C 0.66942 0.29506 0.15633 0.0
C1622 C 0.69786 0.28698 0.14682 0.0
C1623 C 0.70324 0.25413 0.15141 0.0
C1624 C 0.70645 0.23815 0.12121 0.0
C1625 C 0.73097 0.24882 0.17162 0.0
C1626 C 0.67413 0.24527 0.1668 0.0
C1627 C 0.65446 0.26896 0.16827 0.0
C1628 C 0.62741 0.26717 0.18397 0.0
C1629 C 0.62099 0.24113 0.1998 0.0
C1630 C 0.64177 0.21741 0.20028 0.0
C1631 C 0.66796 0.21897 0.18247 0.0
loop_
_geom_bond_atom_site_label_1
_geom_bond_atom_site_label_2
_geom_bond_distance
_geom_bond_site_symmetry_2
_ccdc_geom_bond_type
Co0 O1 2.216 . S
Co0 O2 2.091 . S
Co0 O4 2.004 . S
Co0 O10 2.021 . S
Co0 O12 2.137 . S
Co0 O13 2.244 . S
O1 Co0 2.216 . S
O1 C8 1.247 . S
O2 Co0 2.091 . S
O2 C8 1.261 . S
C3 O12 1.247 . S
C3 O13 1.272 . S
O4 Co0 2.004 . S
O4 C9 1.259 . S
Co5 O6 2.061 . S
Co5 O11 2.052 . S
Co5 O13 2.135 . S
O6 Co5 2.061 . S
O6 C9 1.235 . S
C7 O10 1.238 . S
C7 O11 1.241 . S
C8 O1 1.247 . S
C8 O2 1.261 . S
C9 O4 1.259 . S
C9 O6 1.235 . S
O10 Co0 2.021 . S
O10 C7 1.238 . S
O11 Co5 2.052 . S
O11 C7 1.241 . S
O12 Co0 2.137 . S
O12 C3 1.247 . S
O13 Co0 2.244 . S
O13 C3 1.272 . S
O13 Co5 2.135 . S
Co14 O15 2.216 . S
Co14 O16 2.091 . S
Co14 O18 2.004 . S
Co14 O24 2.021 . S
Co14 O26 2.137 . S
Co14 O27 2.244 . S
O15 Co14 2.216 . S
O15 C22 1.247 . S
O16 Co14 2.091 . S
O16 C22 1.261 . S
C17 O26 1.247 . S
C17 O27 1.272 . S
O18 Co14 2.004 . S
O18 C23 1.259 . S
Co19 O20 2.061 . S
Co19 O25 2.052 . S
Co19 O27 2.135 . S
O20 Co19 2.061 . S
O20 C23 1.235 . S
C21 O24 1.238 . S
C21 O25 1.241 . S
C22 O15 1.247 . S
C22 O16 1.261 . S
C23 O18 1.259 . S
C23 O20 1.235 . S
O24 Co14 2.021 . S
O24 C21 1.238 . S
O25 Co19 2.052 . S
O25 C21 1.241 . S
O26 Co14 2.137 . S
O26 C17 1.247 . S
O27 Co14 2.244 . S
O27 C17 1.272 . S
O27 Co19 2.135 . S
Co28 O29 2.216 . S
Co28 O30 2.091 . S
Co28 O32 2.004 . S
Co28 O38 2.021 . S
Co28 O40 2.137 . S
Co28 O41 2.244 . S
O29 Co28 2.216 . S
O29 C36 1.247 . S
O30 Co28 2.091 . S
O30 C36 1.261 . S
C31 O40 1.247 . S
C31 O41 1.272 . S
O32 Co28 2.004 . S
O32 C37 1.259 . S
Co33 O34 2.061 . S
Co33 O39 2.052 . S
Co33 O41 2.135 . S
O34 Co33 2.061 . S
O34 C37 1.235 . S
C35 O38 1.238 . S
C35 O39 1.241 . S
C36 O29 1.247 . S
C36 O30 1.261 . S
C37 O32 1.259 . S
C37 O34 1.235 . S
O38 Co28 2.021 . S
O38 C35 1.238 . S
O39 Co33 2.052 . S
O39 C35 1.241 . S
O40 Co28 2.137 . S
O40 C31 1.247 . S
O41 Co28 2.244 . S
O41 C31 1.272 . S
O41 Co33 2.135 . S
Co42 O43 2.216 . S
Co42 O44 2.091 . S
Co42 O46 2.004 . S
Co42 O52 2.021 . S
Co42 O54 2.137 . S
Co42 O55 2.244 . S
O43 Co42 2.216 . S
O43 C50 1.247 . S
O44 Co42 2.091 . S
O44 C50 1.261 . S
C45 O54 1.247 . S
C45 O55 1.272 . S
O46 Co42 2.004 . S
O46 C51 1.259 . S
Co47 O48 2.061 . S
Co47 O53 2.052 . S
Co47 O55 2.135 . S
O48 Co47 2.061 . S
O48 C51 1.235 . S
C49 O52 1.238 . S
C49 O53 1.241 . S
C50 O43 1.247 . S
C50 O44 1.261 . S
C51 O46 1.259 . S
C51 O48 1.235 . S
O52 Co42 2.021 . S
O52 C49 1.238 . S
O53 Co47 2.052 . S
O53 C49 1.241 . S
O54 Co42 2.137 . S
O54 C45 1.247 . S
O55 Co42 2.244 . S
O55 C45 1.272 . S
O55 Co47 2.135 . S
Co56 O57 2.216 . S
Co56 O58 2.091 . S
Co56 O60 2.004 . S
Co56 O66 2.021 . S
Co56 O68 2.137 . S
Co56 O69 2.244 . S
O57 Co56 2.216 . S
O57 C64 1.247 . S
O58 Co56 2.091 . S
O58 C64 1.261 . S
C59 O68 1.247 . S
C59 O69 1.272 . S
O60 Co56 2.004 . S
O60 C65 1.259 . S
Co61 O62 2.061 . S
Co61 O67 2.052 . S
Co61 O69 2.135 . S
O62 Co61 2.061 . S
O62 C65 1.235 . S
C63 O66 1.238 . S
C63 O67 1.241 . S
C64 O57 1.247 . S
C64 O58 1.261 . S
C65 O60 1.259 . S
C65 O62 1.235 . S
O66 Co56 2.021 . S
O66 C63 1.238 . S
O67 Co61 2.052 . S
O67 C63 1.241 . S
O68 Co56 2.137 . S
O68 C59 1.247 . S
O69 Co56 2.244 . S
O69 C59 1.272 . S
O69 Co61 2.135 . S
Co70 O71 2.216 . S
Co70 O72 2.091 . S
Co70 O74 2.004 . S
Co70 O80 2.021 . S
Co70 O82 2.137 . S
Co70 O83 2.244 . S
O71 Co70 2.216 . S
O71 C78 1.247 . S
O72 Co70 2.091 . S
O72 C78 1.261 . S
C73 O82 1.247 . S
C73 O83 1.272 . S
O74 Co70 2.004 . S
O74 C79 1.259 . S
Co75 O76 2.061 . S
Co75 O81 2.052 . S
Co75 O83 2.135 . S
O76 Co75 2.061 . S
O76 C79 1.235 . S
C77 O80 1.238 . S
C77 O81 1.241 . S
C78 O71 1.247 . S
C78 O72 1.261 . S
C79 O74 1.259 . S
C79 O76 1.235 . S
O80 Co70 2.021 . S
O80 C77 1.238 . S
O81 Co75 2.052 . S
O81 C77 1.241 . S
O82 Co70 2.137 . S
O82 C73 1.247 . S
O83 Co70 2.244 . S
O83 C73 1.272 . S
O83 Co75 2.135 . S
Co84 O85 2.216 . S
Co84 O86 2.091 . S
Co84 O88 2.004 . S
Co84 O94 2.021 . S
Co84 O96 2.137 . S
Co84 O97 2.244 . S
O85 Co84 2.216 . S
O85 C92 1.247 . S
O86 Co84 2.091 . S
O86 C92 1.261 . S
C87 O96 1.247 . S
C87 O97 1.272 . S
O88 Co84 2.004 . S
O88 C93 1.259 . S
Co89 O90 2.061 . S
Co89 O95 2.052 . S
Co89 O97 2.135 . S
O90 Co89 2.061 . S
O90 C93 1.235 . S
C91 O94 1.238 . S
C91 O95 1.241 . S
C92 O85 1.247 . S
C92 O86 1.261 . S
C93 O88 1.259 . S
C93 O90 1.235 . S
O94 Co84 2.021 . S
O94 C91 1.238 . S
O95 Co89 2.052 . S
O95 C91 1.241 . S
O96 Co84 2.137 . S
O96 C87 1.247 . S
O97 Co84 2.244 . S
O97 C87 1.272 . S
O97 Co89 2.135 . S
Co98 O99 2.216 . S
Co98 O100 2.091 . S
Co98 O102 2.004 . S
Co98 O108 2.021 . S
Co98 O110 2.137 . S
Co98 O111 2.244 . S
O99 Co98 2.216 . S
O99 C106 1.247 . S
O100 Co98 2.091 . S
O100 C106 1.261 . S
C101 O110 1.247 . S
C101 O111 1.272 . S
O102 Co98 2.004 . S
O102 C107 1.259 . S
Co103 O104 2.061 . S
Co103 O109 2.052 . S
Co103 O111 2.135 . S
O104 Co103 2.061 . S
O104 C107 1.235 . S
C105 O108 1.238 . S
C105 O109 1.241 . S
C106 O99 1.247 . S
C106 O100 1.261 . S
C107 O102 1.259 . S
C107 O104 1.235 . S
O108 Co98 2.021 . S
O108 C105 1.238 . S
O109 Co103 2.052 . S
O109 C105 1.241 . S
O110 Co98 2.137 . S
O110 C101 1.247 . S
O111 Co98 2.244 . S
O111 C101 1.272 . S
O111 Co103 2.135 . S
Co112 O113 2.216 . S
Co112 O114 2.091 . S
Co112 O116 2.004 . S
Co112 O122 2.021 . S
Co112 O124 2.137 . S
Co112 O125 2.244 . S
O113 Co112 2.216 . S
O113 C120 1.247 . S
O114 Co112 2.091 . S
O114 C120 1.261 . S
C115 O124 1.247 . S
C115 O125 1.272 . S
O116 Co112 2.004 . S
O116 C121 1.259 . S
Co117 O118 2.061 . S
Co117 O123 2.052 . S
Co117 O125 2.135 . S
O118 Co117 2.061 . S
O118 C121 1.235 . S
C119 O122 1.238 . S
C119 O123 1.241 . S
C120 O113 1.247 . S
C120 O114 1.261 . S
C121 O116 1.259 . S
C121 O118 1.235 . S
O122 Co112 2.021 . S
O122 C119 1.238 . S
O123 Co117 2.052 . S
O123 C119 1.241 . S
O124 Co112 2.137 . S
O124 C115 1.247 . S
O125 Co112 2.244 . S
O125 C115 1.272 . S
O125 Co117 2.135 . S
Co126 O127 2.216 . S
Co126 O128 2.091 . S
Co126 O130 2.004 . S
Co126 O136 2.021 . S
Co126 O138 2.137 . S
Co126 O139 2.244 . S
O127 Co126 2.216 . S
O127 C134 1.247 . S
O128 Co126 2.091 . S
O128 C134 1.261 . S
C129 O138 1.247 . S
C129 O139 1.272 . S
O130 Co126 2.004 . S
O130 C135 1.259 . S
Co131 O132 2.061 . S
Co131 O137 2.052 . S
Co131 O139 2.135 . S
O132 Co131 2.061 . S
O132 C135 1.235 . S
C133 O136 1.238 . S
C133 O137 1.241 . S
C134 O127 1.247 . S
C134 O128 1.261 . S
C135 O130 1.259 . S
C135 O132 1.235 . S
O136 Co126 2.021 . S
O136 C133 1.238 . S
O137 Co131 2.052 . S
O137 C133 1.241 . S
O138 Co126 2.137 . S
O138 C129 1.247 . S
O139 Co126 2.244 . S
O139 C129 1.272 . S
O139 Co131 2.135 . S
Co140 O141 2.216 . S
Co140 O142 2.091 . S
Co140 O144 2.004 . S
Co140 O150 2.021 . S
Co140 O152 2.137 . S
Co140 O153 2.244 . S
O141 Co140 2.216 . S
O141 C148 1.247 . S
O142 Co140 2.091 . S
O142 C148 1.261 . S
C143 O152 1.247 . S
C143 O153 1.272 . S
O144 Co140 2.004 . S
O144 C149 1.259 . S
Co145 O146 2.061 . S
Co145 O151 2.052 . S
Co145 O153 2.135 . S
O146 Co145 2.061 . S
O146 C149 1.235 . S
C147 O150 1.238 . S
C147 O151 1.241 . S
C148 O141 1.247 . S
C148 O142 1.261 . S
C149 O144 1.259 . S
C149 O146 1.235 . S
O150 Co140 2.021 . S
O150 C147 1.238 . S
O151 Co145 2.052 . S
O151 C147 1.241 . S
O152 Co140 2.137 . S
O152 C143 1.247 . S
O153 Co140 2.244 . S
O153 C143 1.272 . S
O153 Co145 2.135 . S
Co154 O155 2.216 . S
Co154 O156 2.091 . S
Co154 O158 2.004 . S
Co154 O164 2.021 . S
Co154 O166 2.137 . S
Co154 O167 2.244 . S
O155 Co154 2.216 . S
O155 C162 1.247 . S
O156 Co154 2.091 . S
O156 C162 1.261 . S
C157 O166 1.247 . S
C157 O167 1.272 . S
O158 Co154 2.004 . S
O158 C163 1.259 . S
Co159 O160 2.061 . S
Co159 O165 2.052 . S
Co159 O167 2.135 . S
O160 Co159 2.061 . S
O160 C163 1.235 . S
C161 O164 1.238 . S
C161 O165 1.241 . S
C162 O155 1.247 . S
C162 O156 1.261 . S
C163 O158 1.259 . S
C163 O160 1.235 . S
O164 Co154 2.021 . S
O164 C161 1.238 . S
O165 Co159 2.052 . S
O165 C161 1.241 . S
O166 Co154 2.137 . S
O166 C157 1.247 . S
O167 Co154 2.244 . S
O167 C157 1.272 . S
O167 Co159 2.135 . S
Co168 O169 2.216 . S
Co168 O170 2.091 . S
Co168 O172 2.004 . S
Co168 O178 2.021 . S
Co168 O180 2.137 . S
Co168 O181 2.244 . S
O169 Co168 2.216 . S
O169 C176 1.247 . S
O170 Co168 2.091 . S
O170 C176 1.261 . S
C171 O180 1.247 . S
C171 O181 1.272 . S
O172 Co168 2.004 . S
O172 C177 1.259 . S
Co173 O174 2.061 . S
Co173 O179 2.052 . S
Co173 O181 2.135 . S
O174 Co173 2.061 . S
O174 C177 1.235 . S
C175 O178 1.238 . S
C175 O179 1.241 . S
C176 O169 1.247 . S
C176 O170 1.261 . S
C177 O172 1.259 . S
C177 O174 1.235 . S
O178 Co168 2.021 . S
O178 C175 1.238 . S
O179 Co173 2.052 . S
O179 C175 1.241 . S
O180 Co168 2.137 . S
O180 C171 1.247 . S
O181 Co168 2.244 . S
O181 C171 1.272 . S
O181 Co173 2.135 . S
Co182 O183 2.216 . S
Co182 O184 2.091 . S
Co182 O186 2.004 . S
Co182 O192 2.021 . S
Co182 O194 2.137 . S
Co182 O195 2.244 . S
O183 Co182 2.216 . S
O183 C190 1.247 . S
O184 Co182 2.091 . S
O184 C190 1.261 . S
C185 O194 1.247 . S
C185 O195 1.272 . S
O186 Co182 2.004 . S
O186 C191 1.259 . S
Co187 O188 2.061 . S
Co187 O193 2.052 . S
Co187 O195 2.135 . S
O188 Co187 2.061 . S
O188 C191 1.235 . S
C189 O192 1.238 . S
C189 O193 1.241 . S
C190 O183 1.247 . S
C190 O184 1.261 . S
C191 O186 1.259 . S
C191 O188 1.235 . S
O192 Co182 2.021 . S
O192 C189 1.238 . S
O193 Co187 2.052 . S
O193 C189 1.241 . S
O194 Co182 2.137 . S
O194 C185 1.247 . S
O195 Co182 2.244 . S
O195 C185 1.272 . S
O195 Co187 2.135 . S
Co196 O197 2.216 . S
Co196 O198 2.091 . S
Co196 O200 2.004 . S
Co196 O206 2.021 . S
Co196 O208 2.137 . S
Co196 O209 2.244 . S
O197 Co196 2.216 . S
O197 C204 1.247 . S
O198 Co196 2.091 . S
O198 C204 1.261 . S
C199 O208 1.247 . S
C199 O209 1.272 . S
O200 Co196 2.004 . S
O200 C205 1.259 . S
Co201 O202 2.061 . S
Co201 O207 2.052 . S
Co201 O209 2.135 . S
O202 Co201 2.061 . S
O202 C205 1.235 . S
C203 O206 1.238 . S
C203 O207 1.241 . S
C204 O197 1.247 . S
C204 O198 1.261 . S
C205 O200 1.259 . S
C205 O202 1.235 . S
O206 Co196 2.021 . S
O206 C203 1.238 . S
O207 Co201 2.052 . S
O207 C203 1.241 . S
O208 Co196 2.137 . S
O208 C199 1.247 . S
O209 Co196 2.244 . S
O209 C199 1.272 . S
O209 Co201 2.135 . S
Co210 O211 2.216 . S
Co210 O212 2.091 . S
Co210 O214 2.004 . S
Co210 O220 2.021 . S
Co210 O222 2.137 . S
Co210 O223 2.244 . S
O211 Co210 2.216 . S
O211 C218 1.247 . S
O212 Co210 2.091 . S
O212 C218 1.261 . S
C213 O222 1.247 . S
C213 O223 1.272 . S
O214 Co210 2.004 . S
O214 C219 1.259 . S
Co215 O216 2.061 . S
Co215 O221 2.052 . S
Co215 O223 2.135 . S
O216 Co215 2.061 . S
O216 C219 1.235 . S
C217 O220 1.238 . S
C217 O221 1.241 . S
C218 O211 1.247 . S
C218 O212 1.261 . S
C219 O214 1.259 . S
C219 O216 1.235 . S
O220 Co210 2.021 . S
O220 C217 1.238 . S
O221 Co215 2.052 . S
O221 C217 1.241 . S
O222 Co210 2.137 . S
O222 C213 1.247 . S
O223 Co210 2.244 . S
O223 C213 1.272 . S
O223 Co215 2.135 . S
Co224 O225 2.216 . S
Co224 O226 2.091 . S
Co224 O228 2.004 . S
Co224 O234 2.021 . S
Co224 O236 2.137 . S
Co224 O237 2.244 . S
O225 Co224 2.216 . S
O225 C232 1.247 . S
O226 Co224 2.091 . S
O226 C232 1.261 . S
C227 O236 1.247 . S
C227 O237 1.272 . S
O228 Co224 2.004 . S
O228 C233 1.259 . S
Co229 O230 2.061 . S
Co229 O235 2.052 . S
Co229 O237 2.135 . S
O230 Co229 2.061 . S
O230 C233 1.235 . S
C231 O234 1.238 . S
C231 O235 1.241 . S
C232 O225 1.247 . S
C232 O226 1.261 . S
C233 O228 1.259 . S
C233 O230 1.235 . S
O234 Co224 2.021 . S
O234 C231 1.238 . S
O235 Co229 2.052 . S
O235 C231 1.241 . S
O236 Co224 2.137 . S
O236 C227 1.247 . S
O237 Co224 2.244 . S
O237 C227 1.272 . S
O237 Co229 2.135 . S
Co238 O239 2.216 . S
Co238 O240 2.091 . S
Co238 O242 2.004 . S
Co238 O248 2.021 . S
Co238 O250 2.137 . S
Co238 O251 2.244 . S
O239 Co238 2.216 . S
O239 C246 1.247 . S
O240 Co238 2.091 . S
O240 C246 1.261 . S
C241 O250 1.247 . S
C241 O251 1.272 . S
O242 Co238 2.004 . S
O242 C247 1.259 . S
Co243 O244 2.061 . S
Co243 O249 2.052 . S
Co243 O251 2.135 . S
O244 Co243 2.061 . S
O244 C247 1.235 . S
C245 O248 1.238 . S
C245 O249 1.241 . S
C246 O239 1.247 . S
C246 O240 1.261 . S
C247 O242 1.259 . S
C247 O244 1.235 . S
O248 Co238 2.021 . S
O248 C245 1.238 . S
O249 Co243 2.052 . S
O249 C245 1.241 . S
O250 Co238 2.137 . S
O250 C241 1.247 . S
O251 Co238 2.244 . S
O251 C241 1.272 . S
O251 Co243 2.135 . S
Co252 O253 2.216 . S
Co252 O254 2.091 . S
Co252 O256 2.004 . S
Co252 O262 2.021 . S
Co252 O264 2.137 . S
Co252 O265 2.244 . S
O253 Co252 2.216 . S
O253 C260 1.247 . S
O254 Co252 2.091 . S
O254 C260 1.261 . S
C255 O264 1.247 . S
C255 O265 1.272 . S
O256 Co252 2.004 . S
O256 C261 1.259 . S
Co257 O258 2.061 . S
Co257 O263 2.052 . S
Co257 O265 2.135 . S
O258 Co257 2.061 . S
O258 C261 1.235 . S
C259 O262 1.238 . S
C259 O263 1.241 . S
C260 O253 1.247 . S
C260 O254 1.261 . S
C261 O256 1.259 . S
C261 O258 1.235 . S
O262 Co252 2.021 . S
O262 C259 1.238 . S
O263 Co257 2.052 . S
O263 C259 1.241 . S
O264 Co252 2.137 . S
O264 C255 1.247 . S
O265 Co252 2.244 . S
O265 C255 1.272 . S
O265 Co257 2.135 . S
Co266 O267 2.216 . S
Co266 O268 2.091 . S
Co266 O270 2.004 . S
Co266 O276 2.021 . S
Co266 O278 2.137 . S
Co266 O279 2.244 . S
O267 Co266 2.216 . S
O267 C274 1.247 . S
O268 Co266 2.091 . S
O268 C274 1.261 . S
C269 O278 1.247 . S
C269 O279 1.272 . S
O270 Co266 2.004 . S
O270 C275 1.259 . S
Co271 O272 2.061 . S
Co271 O277 2.052 . S
Co271 O279 2.135 . S
O272 Co271 2.061 . S
O272 C275 1.235 . S
C273 O276 1.238 . S
C273 O277 1.241 . S
C274 O267 1.247 . S
C274 O268 1.261 . S
C275 O270 1.259 . S
C275 O272 1.235 . S
O276 Co266 2.021 . S
O276 C273 1.238 . S
O277 Co271 2.052 . S
O277 C273 1.241 . S
O278 Co266 2.137 . S
O278 C269 1.247 . S
O279 Co266 2.244 . S
O279 C269 1.272 . S
O279 Co271 2.135 . S
Co280 O281 2.216 . S
Co280 O282 2.091 . S
Co280 O284 2.004 . S
Co280 O290 2.021 . S
Co280 O292 2.137 . S
Co280 O293 2.244 . S
O281 Co280 2.216 . S
O281 C288 1.247 . S
O282 Co280 2.091 . S
O282 C288 1.261 . S
C283 O292 1.247 . S
C283 O293 1.272 . S
O284 Co280 2.004 . S
O284 C289 1.259 . S
Co285 O286 2.061 . S
Co285 O291 2.052 . S
Co285 O293 2.135 . S
O286 Co285 2.061 . S
O286 C289 1.235 . S
C287 O290 1.238 . S
C287 O291 1.241 . S
C288 O281 1.247 . S
C288 O282 1.261 . S
C289 O284 1.259 . S
C289 O286 1.235 . S
O290 Co280 2.021 . S
O290 C287 1.238 . S
O291 Co285 2.052 . S
O291 C287 1.241 . S
O292 Co280 2.137 . S
O292 C283 1.247 . S
O293 Co280 2.244 . S
O293 C283 1.272 . S
O293 Co285 2.135 . S
Co294 O295 2.216 . S
Co294 O296 2.091 . S
Co294 O298 2.004 . S
Co294 O304 2.021 . S
Co294 O306 2.137 . S
Co294 O307 2.244 . S
O295 Co294 2.216 . S
O295 C302 1.247 . S
O296 Co294 2.091 . S
O296 C302 1.261 . S
C297 O306 1.247 . S
C297 O307 1.272 . S
O298 Co294 2.004 . S
O298 C303 1.259 . S
Co299 O300 2.061 . S
Co299 O305 2.052 . S
Co299 O307 2.135 . S
O300 Co299 2.061 . S
O300 C303 1.235 . S
C301 O304 1.238 . S
C301 O305 1.241 . S
C302 O295 1.247 . S
C302 O296 1.261 . S
C303 O298 1.259 . S
C303 O300 1.235 . S
O304 Co294 2.021 . S
O304 C301 1.238 . S
O305 Co299 2.052 . S
O305 C301 1.241 . S
O306 Co294 2.137 . S
O306 C297 1.247 . S
O307 Co294 2.244 . S
O307 C297 1.272 . S
O307 Co299 2.135 . S
Co308 O309 2.216 . S
Co308 O310 2.091 . S
Co308 O312 2.004 . S
Co308 O318 2.021 . S
Co308 O320 2.137 . S
Co308 O321 2.244 . S
O309 Co308 2.216 . S
O309 C316 1.247 . S
O310 Co308 2.091 . S
O310 C316 1.261 . S
C311 O320 1.247 . S
C311 O321 1.272 . S
O312 Co308 2.004 . S
O312 C317 1.259 . S
Co313 O314 2.061 . S
Co313 O319 2.052 . S
Co313 O321 2.135 . S
O314 Co313 2.061 . S
O314 C317 1.235 . S
C315 O318 1.238 . S
C315 O319 1.241 . S
C316 O309 1.247 . S
C316 O310 1.261 . S
C317 O312 1.259 . S
C317 O314 1.235 . S
O318 Co308 2.021 . S
O318 C315 1.238 . S
O319 Co313 2.052 . S
O319 C315 1.241 . S
O320 Co308 2.137 . S
O320 C311 1.247 . S
O321 Co308 2.244 . S
O321 C311 1.272 . S
O321 Co313 2.135 . S
Co322 O323 2.216 . S
Co322 O324 2.091 . S
Co322 O326 2.004 . S
Co322 O332 2.021 . S
Co322 O334 2.137 . S
Co322 O335 2.244 . S
O323 Co322 2.216 . S
O323 C330 1.247 . S
O324 Co322 2.091 . S
O324 C330 1.261 . S
C325 O334 1.247 . S
C325 O335 1.272 . S
O326 Co322 2.004 . S
O326 C331 1.259 . S
Co327 O328 2.061 . S
Co327 O333 2.052 . S
Co327 O335 2.135 . S
O328 Co327 2.061 . S
O328 C331 1.235 . S
C329 O332 1.238 . S
C329 O333 1.241 . S
C330 O323 1.247 . S
C330 O324 1.261 . S
C331 O326 1.259 . S
C331 O328 1.235 . S
O332 Co322 2.021 . S
O332 C329 1.238 . S
O333 Co327 2.052 . S
O333 C329 1.241 . S
O334 Co322 2.137 . S
O334 C325 1.247 . S
O335 Co322 2.244 . S
O335 C325 1.272 . S
O335 Co327 2.135 . S
H336 C348 0.930 . S
H337 C350 0.930 . S
H338 C351 0.930 . S
H339 C355 0.959 . S
H340 C355 0.959 . S
H341 C355 0.961 . S
H342 C356 0.960 . S
H343 C356 0.961 . S
H344 C356 0.959 . S
H345 C359 0.929 . S
H346 C360 0.931 . S
H347 C362 0.930 . S
C348 H336 0.930 . S
C348 C349 1.399 . S
C348 C353 1.399 . S
C349 C348 1.399 . S
C349 C350 1.376 . S
C350 H337 0.930 . S
C350 C349 1.376 . S
C350 C351 1.388 . S
C351 H338 0.930 . S
C351 C350 1.388 . S
C351 C352 1.390 . S
C352 C351 1.390 . S
C352 C353 1.394 . S
C352 C358 1.465 . S
C353 C348 1.399 . S
C353 C352 1.394 . S
C353 C354 1.516 . S
C354 C353 1.516 . S
C354 C355 1.502 . S
C354 C356 1.561 . S
C354 C357 1.526 . S
C355 H339 0.959 . S
C355 H340 0.959 . S
C355 H341 0.961 . S
C355 C354 1.502 . S
C356 H342 0.960 . S
C356 H343 0.961 . S
C356 H344 0.959 . S
C356 C354 1.561 . S
C357 C354 1.526 . S
C357 C358 1.396 . S
C357 C362 1.390 . S
C358 C352 1.465 . S
C358 C357 1.396 . S
C358 C359 1.399 . S
C359 H345 0.929 . S
C359 C358 1.399 . S
C359 C360 1.385 . S
C360 H346 0.931 . S
C360 C359 1.385 . S
C360 C361 1.389 . S
C361 C360 1.389 . S
C361 C362 1.387 . S
C362 H347 0.930 . S
C362 C357 1.390 . S
C362 C361 1.387 . S
H363 C375 0.930 . S
H364 C377 0.930 . S
H365 C378 0.930 . S
H366 C382 0.959 . S
H367 C382 0.959 . S
H368 C382 0.961 . S
H369 C383 0.960 . S
H370 C383 0.961 . S
H371 C383 0.959 . S
H372 C386 0.929 . S
H373 C387 0.931 . S
H374 C389 0.930 . S
C375 H363 0.930 . S
C375 C376 1.399 . S
C375 C380 1.399 . S
C376 C375 1.399 . S
C376 C377 1.376 . S
C377 H364 0.930 . S
C377 C376 1.376 . S
C377 C378 1.388 . S
C378 H365 0.930 . S
C378 C377 1.388 . S
C378 C379 1.390 . S
C379 C378 1.390 . S
C379 C380 1.394 . S
C379 C385 1.465 . S
C380 C375 1.399 . S
C380 C379 1.394 . S
C380 C381 1.516 . S
C381 C380 1.516 . S
C381 C382 1.502 . S
C381 C383 1.561 . S
C381 C384 1.526 . S
C382 H366 0.959 . S
C382 H367 0.959 . S
C382 H368 0.961 . S
C382 C381 1.502 . S
C383 H369 0.960 . S
C383 H370 0.961 . S
C383 H371 0.959 . S
C383 C381 1.561 . S
C384 C381 1.526 . S
C384 C385 1.396 . S
C384 C389 1.390 . S
C385 C379 1.465 . S
C385 C384 1.396 . S
C385 C386 1.399 . S
C386 H372 0.929 . S
C386 C385 1.399 . S
C386 C387 1.385 . S
C387 H373 0.931 . S
C387 C386 1.385 . S
C387 C388 1.389 . S
C388 C387 1.389 . S
C388 C389 1.387 . S
C389 H374 0.930 . S
C389 C384 1.390 . S
C389 C388 1.387 . S
H390 C402 0.930 . S
H391 C404 0.930 . S
H392 C405 0.930 . S
H393 C409 0.959 . S
H394 C409 0.959 . S
H395 C409 0.961 . S
H396 C410 0.960 . S
H397 C410 0.961 . S
H398 C410 0.959 . S
H399 C413 0.929 . S
H400 C414 0.931 . S
H401 C416 0.930 . S
C402 H390 0.930 . S
C402 C403 1.399 . S
C402 C407 1.399 . S
C403 C402 1.399 . S
C403 C404 1.376 . S
C404 H391 0.930 . S
C404 C403 1.376 . S
C404 C405 1.388 . S
C405 H392 0.930 . S
C405 C404 1.388 . S
C405 C406 1.390 . S
C406 C405 1.390 . S
C406 C407 1.394 . S
C406 C412 1.465 . S
C407 C402 1.399 . S
C407 C406 1.394 . S
C407 C408 1.516 . S
C408 C407 1.516 . S
C408 C409 1.502 . S
C408 C410 1.561 . S
C408 C411 1.526 . S
C409 H393 0.959 . S
C409 H394 0.959 . S
C409 H395 0.961 . S
C409 C408 1.502 . S
C410 H396 0.960 . S
C410 H397 0.961 . S
C410 H398 0.959 . S
C410 C408 1.561 . S
C411 C408 1.526 . S
C411 C412 1.396 . S
C411 C416 1.390 . S
C412 C406 1.465 . S
C412 C411 1.396 . S
C412 C413 1.399 . S
C413 H399 0.929 . S
C413 C412 1.399 . S
C413 C414 1.385 . S
C414 H400 0.931 . S
C414 C413 1.385 . S
C414 C415 1.389 . S
C415 C414 1.389 . S
C415 C416 1.387 . S
C416 H401 0.930 . S
C416 C411 1.390 . S
C416 C415 1.387 . S
H417 C429 0.930 . S
H418 C431 0.930 . S
H419 C432 0.930 . S
H420 C436 0.959 . S
H421 C436 0.959 . S
H422 C436 0.961 . S
H423 C437 0.960 . S
H424 C437 0.961 . S
H425 C437 0.959 . S
H426 C440 0.929 . S
H427 C441 0.931 . S
H428 C443 0.930 . S
C429 H417 0.930 . S
C429 C430 1.399 . S
C429 C434 1.399 . S
C430 C429 1.399 . S
C430 C431 1.376 . S
C431 H418 0.930 . S
C431 C430 1.376 . S
C431 C432 1.388 . S
C432 H419 0.930 . S
C432 C431 1.388 . S
C432 C433 1.390 . S
C433 C432 1.390 . S
C433 C434 1.394 . S
C433 C439 1.465 . S
C434 C429 1.399 . S
C434 C433 1.394 . S
C434 C435 1.516 . S
C435 C434 1.516 . S
C435 C436 1.502 . S
C435 C437 1.561 . S
C435 C438 1.526 . S
C436 H420 0.959 . S
C436 H421 0.959 . S
C436 H422 0.961 . S
C436 C435 1.502 . S
C437 H423 0.960 . S
C437 H424 0.961 . S
C437 H425 0.959 . S
C437 C435 1.561 . S
C438 C435 1.526 . S
C438 C439 1.396 . S
C438 C443 1.390 . S
C439 C433 1.465 . S
C439 C438 1.396 . S
C439 C440 1.399 . S
C440 H426 0.929 . S
C440 C439 1.399 . S
C440 C441 1.385 . S
C441 H427 0.931 . S
C441 C440 1.385 . S
C441 C442 1.389 . S
C442 C441 1.389 . S
C442 C443 1.387 . S
C443 H428 0.930 . S
C443 C438 1.390 . S
C443 C442 1.387 . S
H444 C456 0.930 . S
H445 C458 0.930 . S
H446 C459 0.930 . S
H447 C463 0.959 . S
H448 C463 0.959 . S
H449 C463 0.961 . S
H450 C464 0.960 . S
H451 C464 0.961 . S
H452 C464 0.959 . S
H453 C467 0.929 . S
H454 C468 0.931 . S
H455 C470 0.930 . S
C456 H444 0.930 . S
C456 C457 1.399 . S
C456 C461 1.399 . S
C457 C456 1.399 . S
C457 C458 1.376 . S
C458 H445 0.930 . S
C458 C457 1.376 . S
C458 C459 1.388 . S
C459 H446 0.930 . S
C459 C458 1.388 . S
C459 C460 1.390 . S
C460 C459 1.390 . S
C460 C461 1.394 . S
C460 C466 1.465 . S
C461 C456 1.399 . S
C461 C460 1.394 . S
C461 C462 1.516 . S
C462 C461 1.516 . S
C462 C463 1.502 . S
C462 C464 1.561 . S
C462 C465 1.526 . S
C463 H447 0.959 . S
C463 H448 0.959 . S
C463 H449 0.961 . S
C463 C462 1.502 . S
C464 H450 0.960 . S
C464 H451 0.961 . S
C464 H452 0.959 . S
C464 C462 1.561 . S
C465 C462 1.526 . S
C465 C466 1.396 . S
C465 C470 1.390 . S
C466 C460 1.465 . S
C466 C465 1.396 . S
C466 C467 1.399 . S
C467 H453 0.929 . S
C467 C466 1.399 . S
C467 C468 1.385 . S
C468 H454 0.931 . S
C468 C467 1.385 . S
C468 C469 1.389 . S
C469 C468 1.389 . S
C469 C470 1.387 . S
C470 H455 0.930 . S
C470 C465 1.390 . S
C470 C469 1.387 . S
H471 C483 0.930 . S
H472 C485 0.930 . S
H473 C486 0.930 . S
H474 C490 0.959 . S
H475 C490 0.959 . S
H476 C490 0.961 . S
H477 C491 0.960 . S
H478 C491 0.961 . S
H479 C491 0.959 . S
H480 C494 0.929 . S
H481 C495 0.931 . S
H482 C497 0.930 . S
C483 H471 0.930 . S
C483 C484 1.399 . S
C483 C488 1.399 . S
C484 C483 1.399 . S
C484 C485 1.376 . S
C485 H472 0.930 . S
C485 C484 1.376 . S
C485 C486 1.388 . S
C486 H473 0.930 . S
C486 C485 1.388 . S
C486 C487 1.390 . S
C487 C486 1.390 . S
C487 C488 1.394 . S
C487 C493 1.465 . S
C488 C483 1.399 . S
C488 C487 1.394 . S
C488 C489 1.516 . S
C489 C488 1.516 . S
C489 C490 1.502 . S
C489 C491 1.561 . S
C489 C492 1.526 . S
C490 H474 0.959 . S
C490 H475 0.959 . S
C490 H476 0.961 . S
C490 C489 1.502 . S
C491 H477 0.960 . S
C491 H478 0.961 . S
C491 H479 0.959 . S
C491 C489 1.561 . S
C492 C489 1.526 . S
C492 C493 1.396 . S
C492 C497 1.390 . S
C493 C487 1.465 . S
C493 C492 1.396 . S
C493 C494 1.399 . S
C494 H480 0.929 . S
C494 C493 1.399 . S
C494 C495 1.385 . S
C495 H481 0.931 . S
C495 C494 1.385 . S
C495 C496 1.389 . S
C496 C495 1.389 . S
C496 C497 1.387 . S
C497 H482 0.930 . S
C497 C492 1.390 . S
C497 C496 1.387 . S
H498 C510 0.930 . S
H499 C512 0.930 . S
H500 C513 0.930 . S
H501 C517 0.959 . S
H502 C517 0.959 . S
H503 C517 0.961 . S
H504 C518 0.960 . S
H505 C518 0.961 . S
H506 C518 0.959 . S
H507 C521 0.929 . S
H508 C522 0.931 . S
H509 C524 0.930 . S
C510 H498 0.930 . S
C510 C511 1.399 . S
C510 C515 1.399 . S
C511 C510 1.399 . S
C511 C512 1.376 . S
C512 H499 0.930 . S
C512 C511 1.376 . S
C512 C513 1.388 . S
C513 H500 0.930 . S
C513 C512 1.388 . S
C513 C514 1.390 . S
C514 C513 1.390 . S
C514 C515 1.394 . S
C514 C520 1.465 . S
C515 C510 1.399 . S
C515 C514 1.394 . S
C515 C516 1.516 . S
C516 C515 1.516 . S
C516 C517 1.502 . S
C516 C518 1.561 . S
C516 C519 1.526 . S
C517 H501 0.959 . S
C517 H502 0.959 . S
C517 H503 0.961 . S
C517 C516 1.502 . S
C518 H504 0.960 . S
C518 H505 0.961 . S
C518 H506 0.959 . S
C518 C516 1.561 . S
C519 C516 1.526 . S
C519 C520 1.396 . S
C519 C524 1.390 . S
C520 C514 1.465 . S
C520 C519 1.396 . S
C520 C521 1.399 . S
C521 H507 0.929 . S
C521 C520 1.399 . S
C521 C522 1.385 . S
C522 H508 0.931 . S
C522 C521 1.385 . S
C522 C523 1.389 . S
C523 C522 1.389 . S
C523 C524 1.387 . S
C524 H509 0.930 . S
C524 C519 1.390 . S
C524 C523 1.387 . S
H525 C537 0.930 . S
H526 C539 0.930 . S
H527 C540 0.930 . S
H528 C544 0.959 . S
H529 C544 0.959 . S
H530 C544 0.961 . S
H531 C545 0.960 . S
H532 C545 0.961 . S
H533 C545 0.959 . S
H534 C548 0.929 . S
H535 C549 0.931 . S
H536 C551 0.930 . S
C537 H525 0.930 . S
C537 C538 1.399 . S
C537 C542 1.399 . S
C538 C537 1.399 . S
C538 C539 1.376 . S
C539 H526 0.930 . S
C539 C538 1.376 . S
C539 C540 1.388 . S
C540 H527 0.930 . S
C540 C539 1.388 . S
C540 C541 1.390 . S
C541 C540 1.390 . S
C541 C542 1.394 . S
C541 C547 1.465 . S
C542 C537 1.399 . S
C542 C541 1.394 . S
C542 C543 1.516 . S
C543 C542 1.516 . S
C543 C544 1.502 . S
C543 C545 1.561 . S
C543 C546 1.526 . S
C544 H528 0.959 . S
C544 H529 0.959 . S
C544 H530 0.961 . S
C544 C543 1.502 . S
C545 H531 0.960 . S
C545 H532 0.961 . S
C545 H533 0.959 . S
C545 C543 1.561 . S
C546 C543 1.526 . S
C546 C547 1.396 . S
C546 C551 1.390 . S
C547 C541 1.465 . S
C547 C546 1.396 . S
C547 C548 1.399 . S
C548 H534 0.929 . S
C548 C547 1.399 . S
C548 C549 1.385 . S
C549 H535 0.931 . S
C549 C548 1.385 . S
C549 C550 1.389 . S
C550 C549 1.389 . S
C550 C551 1.387 . S
C551 H536 0.930 . S
C551 C546 1.390 . S
C551 C550 1.387 . S
H552 C564 0.930 . S
H553 C566 0.930 . S
H554 C567 0.930 . S
H555 C571 0.959 . S
H556 C571 0.959 . S
H557 C571 0.961 . S
H558 C572 0.960 . S
H559 C572 0.961 . S
H560 C572 0.959 . S
H561 C575 0.929 . S
H562 C576 0.931 . S
H563 C578 0.930 . S
C564 H552 0.930 . S
C564 C565 1.399 . S
C564 C569 1.399 . S
C565 C564 1.399 . S
C565 C566 1.376 . S
C566 H553 0.930 . S
C566 C565 1.376 . S
C566 C567 1.388 . S
C567 H554 0.930 . S
C567 C566 1.388 . S
C567 C568 1.390 . S
C568 C567 1.390 . S
C568 C569 1.394 . S
C568 C574 1.465 . S
C569 C564 1.399 . S
C569 C568 1.394 . S
C569 C570 1.516 . S
C570 C569 1.516 . S
C570 C571 1.502 . S
C570 C572 1.561 . S
C570 C573 1.526 . S
C571 H555 0.959 . S
C571 H556 0.959 . S
C571 H557 0.961 . S
C571 C570 1.502 . S
C572 H558 0.960 . S
C572 H559 0.961 . S
C572 H560 0.959 . S
C572 C570 1.561 . S
C573 C570 1.526 . S
C573 C574 1.396 . S
C573 C578 1.390 . S
C574 C568 1.465 . S
C574 C573 1.396 . S
C574 C575 1.399 . S
C575 H561 0.929 . S
C575 C574 1.399 . S
C575 C576 1.385 . S
C576 H562 0.931 . S
C576 C575 1.385 . S
C576 C577 1.389 . S
C577 C576 1.389 . S
C577 C578 1.387 . S
C578 H563 0.930 . S
C578 C573 1.390 . S
C578 C577 1.387 . S
H579 C591 0.930 . S
H580 C593 0.930 . S
H581 C594 0.930 . S
H582 C598 0.959 . S
H583 C598 0.959 . S
H584 C598 0.961 . S
H585 C599 0.960 . S
H586 C599 0.961 . S
H587 C599 0.959 . S
H588 C602 0.929 . S
H589 C603 0.931 . S
H590 C605 0.930 . S
C591 H579 0.930 . S
C591 C592 1.399 . S
C591 C596 1.399 . S
C592 C591 1.399 . S
C592 C593 1.376 . S
C593 H580 0.930 . S
C593 C592 1.376 . S
C593 C594 1.388 . S
C594 H581 0.930 . S
C594 C593 1.388 . S
C594 C595 1.390 . S
C595 C594 1.390 . S
C595 C596 1.394 . S
C595 C601 1.465 . S
C596 C591 1.399 . S
C596 C595 1.394 . S
C596 C597 1.516 . S
C597 C596 1.516 . S
C597 C598 1.502 . S
C597 C599 1.561 . S
C597 C600 1.526 . S
C598 H582 0.959 . S
C598 H583 0.959 . S
C598 H584 0.961 . S
C598 C597 1.502 . S
C599 H585 0.960 . S
C599 H586 0.961 . S
C599 H587 0.959 . S
C599 C597 1.561 . S
C600 C597 1.526 . S
C600 C601 1.396 . S
C600 C605 1.390 . S
C601 C595 1.465 . S
C601 C600 1.396 . S
C601 C602 1.399 . S
C602 H588 0.929 . S
C602 C601 1.399 . S
C602 C603 1.385 . S
C603 H589 0.931 . S
C603 C602 1.385 . S
C603 C604 1.389 . S
C604 C603 1.389 . S
C604 C605 1.387 . S
C605 H590 0.930 . S
C605 C600 1.390 . S
C605 C604 1.387 . S
H606 C618 0.930 . S
H607 C620 0.930 . S
H608 C621 0.930 . S
H609 C625 0.959 . S
H610 C625 0.959 . S
H611 C625 0.961 . S
H612 C626 0.960 . S
H613 C626 0.961 . S
H614 C626 0.959 . S
H615 C629 0.929 . S
H616 C630 0.931 . S
H617 C632 0.930 . S
C618 H606 0.930 . S
C618 C619 1.399 . S
C618 C623 1.399 . S
C619 C618 1.399 . S
C619 C620 1.376 . S
C620 H607 0.930 . S
C620 C619 1.376 . S
C620 C621 1.388 . S
C621 H608 0.930 . S
C621 C620 1.388 . S
C621 C622 1.390 . S
C622 C621 1.390 . S
C622 C623 1.394 . S
C622 C628 1.465 . S
C623 C618 1.399 . S
C623 C622 1.394 . S
C623 C624 1.516 . S
C624 C623 1.516 . S
C624 C625 1.502 . S
C624 C626 1.561 . S
C624 C627 1.526 . S
C625 H609 0.959 . S
C625 H610 0.959 . S
C625 H611 0.961 . S
C625 C624 1.502 . S
C626 H612 0.960 . S
C626 H613 0.961 . S
C626 H614 0.959 . S
C626 C624 1.561 . S
C627 C624 1.526 . S
C627 C628 1.396 . S
C627 C632 1.390 . S
C628 C622 1.465 . S
C628 C627 1.396 . S
C628 C629 1.399 . S
C629 H615 0.929 . S
C629 C628 1.399 . S
C629 C630 1.385 . S
C630 H616 0.931 . S
C630 C629 1.385 . S
C630 C631 1.389 . S
C631 C630 1.389 . S
C631 C632 1.387 . S
C632 H617 0.930 . S
C632 C627 1.390 . S
C632 C631 1.387 . S
H633 C645 0.930 . S
H634 C647 0.930 . S
H635 C648 0.930 . S
H636 C652 0.959 . S
H637 C652 0.959 . S
H638 C652 0.961 . S
H639 C653 0.960 . S
H640 C653 0.961 . S
H641 C653 0.959 . S
H642 C656 0.929 . S
H643 C657 0.931 . S
H644 C659 0.930 . S
C645 H633 0.930 . S
C645 C646 1.399 . S
C645 C650 1.399 . S
C646 C645 1.399 . S
C646 C647 1.376 . S
C647 H634 0.930 . S
C647 C646 1.376 . S
C647 C648 1.388 . S
C648 H635 0.930 . S
C648 C647 1.388 . S
C648 C649 1.390 . S
C649 C648 1.390 . S
C649 C650 1.394 . S
C649 C655 1.465 . S
C650 C645 1.399 . S
C650 C649 1.394 . S
C650 C651 1.516 . S
C651 C650 1.516 . S
C651 C652 1.502 . S
C651 C653 1.561 . S
C651 C654 1.526 . S
C652 H636 0.959 . S
C652 H637 0.959 . S
C652 H638 0.961 . S
C652 C651 1.502 . S
C653 H639 0.960 . S
C653 H640 0.961 . S
C653 H641 0.959 . S
C653 C651 1.561 . S
C654 C651 1.526 . S
C654 C655 1.396 . S
C654 C659 1.390 . S
C655 C649 1.465 . S
C655 C654 1.396 . S
C655 C656 1.399 . S
C656 H642 0.929 . S
C656 C655 1.399 . S
C656 C657 1.385 . S
C657 H643 0.931 . S
C657 C656 1.385 . S
C657 C658 1.389 . S
C658 C657 1.389 . S
C658 C659 1.387 . S
C659 H644 0.930 . S
C659 C654 1.390 . S
C659 C658 1.387 . S
H660 C672 0.930 . S
H661 C674 0.930 . S
H662 C675 0.930 . S
H663 C679 0.959 1_545 S
H664 C679 0.959 . S
H665 C679 0.961 . S
H666 C680 0.960 . S
H667 C680 0.961 . S
H668 C680 0.959 . S
H669 C683 0.929 . S
H670 C684 0.931 . S
H671 C686 0.930 . S
C672 H660 0.930 . S
C672 C673 1.399 . S
C672 C677 1.399 1_565 S
C673 C672 1.399 . S
C673 C674 1.376 1_565 S
C674 H661 0.930 . S
C674 C673 1.376 1_545 S
C674 C675 1.388 . S
C675 H662 0.930 . S
C675 C674 1.388 . S
C675 C676 1.390 . S
C676 C675 1.390 . S
C676 C677 1.394 . S
C676 C682 1.465 . S
C677 C672 1.399 1_545 S
C677 C676 1.394 . S
C677 C678 1.516 . S
C678 C677 1.516 . S
C678 C679 1.502 1_545 S
C678 C680 1.561 1_545 S
C678 C681 1.526 . S
C679 H663 0.959 1_565 S
C679 H664 0.959 . S
C679 H665 0.961 . S
C679 C678 1.502 1_565 S
C680 H666 0.960 . S
C680 H667 0.961 . S
C680 H668 0.959 . S
C680 C678 1.561 1_565 S
C681 C678 1.526 . S
C681 C682 1.396 . S
C681 C686 1.390 . S
C682 C676 1.465 . S
C682 C681 1.396 . S
C682 C683 1.399 . S
C683 H669 0.929 . S
C683 C682 1.399 . S
C683 C684 1.385 . S
C684 H670 0.931 . S
C684 C683 1.385 . S
C684 C685 1.389 . S
C685 C684 1.389 . S
C685 C686 1.387 . S
C686 H671 0.930 . S
C686 C681 1.390 . S
C686 C685 1.387 . S
H687 C699 0.930 . S
H688 C701 0.930 . S
H689 C702 0.930 . S
H690 C706 0.959 . S
H691 C706 0.959 . S
H692 C706 0.961 . S
H693 C707 0.960 . S
H694 C707 0.961 . S
H695 C707 0.959 . S
H696 C710 0.929 . S
H697 C711 0.931 . S
H698 C713 0.930 . S
C699 H687 0.930 . S
C699 C700 1.399 1_455 S
C699 C704 1.399 . S
C700 C699 1.399 1_655 S
C700 C701 1.376 . S
C701 H688 0.930 . S
C701 C700 1.376 . S
C701 C702 1.388 . S
C702 H689 0.930 . S
C702 C701 1.388 . S
C702 C703 1.390 1_655 S
C703 C702 1.390 1_455 S
C703 C704 1.394 . S
C703 C709 1.465 . S
C704 C699 1.399 . S
C704 C703 1.394 . S
C704 C705 1.516 . S
C705 C704 1.516 . S
C705 C706 1.502 . S
C705 C707 1.561 . S
C705 C708 1.526 . S
C706 H690 0.959 . S
C706 H691 0.959 . S
C706 H692 0.961 . S
C706 C705 1.502 . S
C707 H693 0.960 . S
C707 H694 0.961 . S
C707 H695 0.959 . S
C707 C705 1.561 . S
C708 C705 1.526 . S
C708 C709 1.396 . S
C708 C713 1.390 . S
C709 C703 1.465 . S
C709 C708 1.396 . S
C709 C710 1.399 . S
C710 H696 0.929 . S
C710 C709 1.399 . S
C710 C711 1.385 . S
C711 H697 0.931 . S
C711 C710 1.385 . S
C711 C712 1.389 . S
C712 C711 1.389 . S
C712 C713 1.387 . S
C713 H698 0.930 . S
C713 C708 1.390 . S
C713 C712 1.387 . S
H714 C726 0.930 . S
H715 C728 0.930 . S
H716 C729 0.930 . S
H717 C733 0.956 1_565 S
H718 C733 0.959 . S
H719 C733 0.961 . S
H720 C734 0.960 . S
H721 C734 0.961 . S
H722 C734 0.959 . S
H723 C737 0.929 . S
H724 C738 0.931 . S
H725 C740 0.930 . S
C726 H714 0.930 . S
C726 C727 1.399 . S
C726 C731 1.399 1_545 S
C727 C726 1.399 . S
C727 C728 1.376 1_545 S
C728 H715 0.930 . S
C728 C727 1.376 1_565 S
C728 C729 1.388 . S
C729 H716 0.930 . S
C729 C728 1.388 . S
C729 C730 1.390 . S
C730 C729 1.390 . S
C730 C731 1.394 . S
C730 C736 1.465 . S
C731 C726 1.399 1_565 S
C731 C730 1.394 . S
C731 C732 1.516 . S
C732 C731 1.516 . S
C732 C733 1.502 1_565 S
C732 C734 1.561 1_565 S
C732 C735 1.526 . S
C733 H717 0.956 1_545 S
C733 H718 0.959 . S
C733 H719 0.961 . S
C733 C732 1.502 1_545 S
C734 H720 0.960 . S
C734 H721 0.961 . S
C734 H722 0.959 . S
C734 C732 1.561 1_545 S
C735 C732 1.526 . S
C735 C736 1.396 . S
C735 C740 1.390 . S
C736 C730 1.465 . S
C736 C735 1.396 . S
C736 C737 1.399 . S
C737 H723 0.929 . S
C737 C736 1.399 . S
C737 C738 1.385 . S
C738 H724 0.931 . S
C738 C737 1.385 . S
C738 C739 1.389 . S
C739 C738 1.389 . S
C739 C740 1.387 . S
C740 H725 0.930 . S
C740 C735 1.390 . S
C740 C739 1.387 . S
H741 C753 0.930 . S
H742 C755 0.930 . S
H743 C756 0.930 . S
H744 C760 0.959 . S
H745 C760 0.959 . S
H746 C760 0.961 . S
H747 C761 0.960 . S
H748 C761 0.961 . S
H749 C761 0.959 . S
H750 C764 0.929 . S
H751 C765 0.931 . S
H752 C767 0.930 . S
C753 H741 0.930 . S
C753 C754 1.399 1_655 S
C753 C758 1.399 . S
C754 C753 1.399 1_455 S
C754 C755 1.376 . S
C755 H742 0.930 . S
C755 C754 1.376 . S
C755 C756 1.388 . S
C756 H743 0.930 . S
C756 C755 1.388 . S
C756 C757 1.390 1_455 S
C757 C756 1.390 1_655 S
C757 C758 1.394 . S
C757 C763 1.465 . S
C758 C753 1.399 . S
C758 C757 1.394 . S
C758 C759 1.516 . S
C759 C758 1.516 . S
C759 C760 1.502 . S
C759 C761 1.561 . S
C759 C762 1.526 . S
C760 H744 0.959 . S
C760 H745 0.959 . S
C760 H746 0.961 . S
C760 C759 1.502 . S
C761 H747 0.960 . S
C761 H748 0.961 . S
C761 H749 0.959 . S
C761 C759 1.561 . S
C762 C759 1.526 . S
C762 C763 1.396 . S
C762 C767 1.390 . S
C763 C757 1.465 . S
C763 C762 1.396 . S
C763 C764 1.399 . S
C764 H750 0.929 . S
C764 C763 1.399 . S
C764 C765 1.385 . S
C765 H751 0.931 . S
C765 C764 1.385 . S
C765 C766 1.389 . S
C766 C765 1.389 . S
C766 C767 1.387 . S
C767 H752 0.930 . S
C767 C762 1.390 . S
C767 C766 1.387 . S
H768 C780 0.930 . S
H769 C782 0.930 . S
H770 C783 0.930 . S
H771 C787 0.959 . S
H772 C787 0.959 1_545 S
H773 C787 0.961 . S
H774 C788 0.960 . S
H775 C788 0.961 . S
H776 C788 0.959 . S
H777 C791 0.929 . S
H778 C792 0.931 . S
H779 C794 0.930 . S
C780 H768 0.930 . S
C780 C781 1.399 . S
C780 C785 1.399 . S
C781 C780 1.399 . S
C781 C782 1.376 . S
C782 H769 0.930 . S
C782 C781 1.376 . S
C782 C783 1.388 . S
C783 H770 0.930 . S
C783 C782 1.388 . S
C783 C784 1.390 . S
C784 C783 1.390 . S
C784 C785 1.394 . S
C784 C790 1.465 . S
C785 C780 1.399 . S
C785 C784 1.394 . S
C785 C786 1.516 . S
C786 C785 1.516 . S
C786 C787 1.502 . S
C786 C788 1.561 1_565 S
C786 C789 1.529 . S
C787 H771 0.959 . S
C787 H772 0.959 1_565 S
C787 H773 0.961 . S
C787 C786 1.502 . S
C788 H774 0.960 . S
C788 H775 0.961 . S
C788 H776 0.959 . S
C788 C786 1.561 1_545 S
C789 C786 1.529 . S
C789 C790 1.417 . S
C789 C794 1.369 1_565 S
C790 C784 1.465 . S
C790 C789 1.417 . S
C790 C791 1.399 . S
C791 H777 0.929 . S
C791 C790 1.399 . S
C791 C792 1.385 . S
C792 H778 0.931 . S
C792 C791 1.385 . S
C792 C793 1.389 1_565 S
C793 C792 1.389 1_545 S
C793 C794 1.387 . S
C794 H779 0.930 . S
C794 C789 1.369 1_545 S
C794 C793 1.387 . S
H795 C807 0.930 . S
H796 C809 0.930 . S
H797 C810 0.930 . S
H798 C814 0.959 . S
H799 C814 0.959 . S
H800 C814 0.961 . S
H801 C815 0.960 . S
H802 C815 0.961 . S
H803 C815 0.959 . S
H804 C818 0.929 . S
H805 C819 0.931 . S
H806 C821 0.930 . S
C807 H795 0.930 . S
C807 C808 1.399 . S
C807 C812 1.399 . S
C808 C807 1.399 . S
C808 C809 1.376 . S
C809 H796 0.930 . S
C809 C808 1.376 . S
C809 C810 1.388 . S
C810 H797 0.930 . S
C810 C809 1.388 . S
C810 C811 1.390 . S
C811 C810 1.390 . S
C811 C812 1.394 . S
C811 C817 1.465 . S
C812 C807 1.399 . S
C812 C811 1.394 . S
C812 C813 1.516 . S
C813 C812 1.516 . S
C813 C814 1.502 . S
C813 C815 1.561 . S
C813 C816 1.526 . S
C814 H798 0.959 . S
C814 H799 0.959 . S
C814 H800 0.961 . S
C814 C813 1.502 . S
C815 H801 0.960 . S
C815 H802 0.961 . S
C815 H803 0.959 . S
C815 C813 1.561 . S
C816 C813 1.526 . S
C816 C817 1.396 . S
C816 C821 1.390 . S
C817 C811 1.465 . S
C817 C816 1.396 . S
C817 C818 1.399 1_655 S
C818 H804 0.929 . S
C818 C817 1.399 1_455 S
C818 C819 1.385 . S
C819 H805 0.931 . S
C819 C818 1.385 . S
C819 C820 1.389 . S
C820 C819 1.389 . S
C820 C821 1.387 1_455 S
C821 H806 0.930 . S
C821 C816 1.390 . S
C821 C820 1.387 1_655 S
H822 C834 0.930 . S
H823 C836 0.930 . S
H824 C837 0.930 . S
H825 C841 0.959 . S
H826 C841 0.959 . S
H827 C841 0.961 . S
H828 C842 0.960 . S
H829 C842 0.961 . S
H830 C842 0.959 . S
H831 C845 0.929 . S
H832 C846 0.931 . S
H833 C848 0.930 . S
C834 H822 0.930 . S
C834 C835 1.399 . S
C834 C839 1.399 . S
C835 C834 1.399 . S
C835 C836 1.376 . S
C836 H823 0.930 . S
C836 C835 1.376 . S
C836 C837 1.388 1_565 S
C837 H824 0.930 . S
C837 C836 1.388 1_545 S
C837 C838 1.390 . S
C838 C837 1.390 . S
C838 C839 1.394 1_545 S
C838 C844 1.465 . S
C839 C834 1.399 . S
C839 C838 1.394 1_565 S
C839 C840 1.516 1_565 S
C840 C839 1.516 1_545 S
C840 C841 1.502 1_545 S
C840 C842 1.561 . S
C840 C843 1.526 . S
C841 H825 0.959 . S
C841 H826 0.959 . S
C841 H827 0.961 . S
C841 C840 1.502 1_565 S
C842 H828 0.960 . S
C842 H829 0.961 . S
C842 H830 0.959 . S
C842 C840 1.561 . S
C843 C840 1.526 . S
C843 C844 1.396 . S
C843 C848 1.390 . S
C844 C838 1.465 . S
C844 C843 1.396 . S
C844 C845 1.399 . S
C845 H831 0.929 . S
C845 C844 1.399 . S
C845 C846 1.385 . S
C846 H832 0.931 . S
C846 C845 1.385 . S
C846 C847 1.389 . S
C847 C846 1.389 . S
C847 C848 1.387 . S
C848 H833 0.930 . S
C848 C843 1.390 . S
C848 C847 1.387 . S
H849 C861 0.930 . S
H850 C863 0.930 . S
H851 C864 0.930 . S
H852 C868 0.959 . S
H853 C868 0.959 . S
H854 C868 0.961 . S
H855 C869 0.960 . S
H856 C869 0.961 . S
H857 C869 0.959 . S
H858 C872 0.929 . S
H859 C873 0.933 . S
H860 C875 0.930 . S
C861 H849 0.930 . S
C861 C862 1.399 . S
C861 C866 1.399 . S
C862 C861 1.399 . S
C862 C863 1.376 . S
C863 H850 0.930 . S
C863 C862 1.376 . S
C863 C864 1.388 . S
C864 H851 0.930 . S
C864 C863 1.388 . S
C864 C865 1.390 . S
C865 C864 1.390 . S
C865 C866 1.394 . S
C865 C871 1.465 . S
C866 C861 1.399 . S
C866 C865 1.394 . S
C866 C867 1.516 . S
C867 C866 1.516 . S
C867 C868 1.502 1_455 S
C867 C869 1.561 . S
C867 C870 1.526 . S
C868 H852 0.959 . S
C868 H853 0.959 . S
C868 H854 0.961 . S
C868 C867 1.502 1_655 S
C869 H855 0.960 . S
C869 H856 0.961 . S
C869 H857 0.959 . S
C869 C867 1.561 . S
C870 C867 1.526 . S
C870 C871 1.396 . S
C870 C875 1.390 1_455 S
C871 C865 1.465 . S
C871 C870 1.396 . S
C871 C872 1.399 . S
C872 H858 0.929 . S
C872 C871 1.399 . S
C872 C873 1.371 1_455 S
C873 H859 0.933 . S
C873 C872 1.371 1_655 S
C873 C874 1.401 . S
C874 C873 1.401 . S
C874 C875 1.387 . S
C875 H860 0.930 . S
C875 C870 1.390 1_655 S
C875 C874 1.387 . S
H876 C888 0.930 . S
H877 C890 0.930 . S
H878 C891 0.930 . S
H879 C895 0.959 . S
H880 C895 0.959 . S
H881 C895 0.961 . S
H882 C896 0.960 . S
H883 C896 0.961 . S
H884 C896 0.959 . S
H885 C899 0.929 . S
H886 C900 0.931 . S
H887 C902 0.930 . S
C888 H876 0.930 . S
C888 C889 1.399 . S
C888 C893 1.399 1_556 S
C889 C888 1.399 . S
C889 C890 1.376 . S
C890 H877 0.930 . S
C890 C889 1.376 . S
C890 C891 1.388 1_556 S
C891 H878 0.930 . S
C891 C890 1.388 1_554 S
C891 C892 1.390 . S
C892 C891 1.390 . S
C892 C893 1.394 . S
C892 C898 1.465 . S
C893 C888 1.399 1_554 S
C893 C892 1.394 . S
C893 C894 1.516 . S
C894 C893 1.516 . S
C894 C895 1.502 . S
C894 C896 1.561 1_554 S
C894 C897 1.526 . S
C895 H879 0.959 . S
C895 H880 0.959 . S
C895 H881 0.961 . S
C895 C894 1.502 . S
C896 H882 0.960 . S
C896 H883 0.961 . S
C896 H884 0.959 . S
C896 C894 1.561 1_556 S
C897 C894 1.526 . S
C897 C898 1.396 . S
C897 C902 1.390 . S
C898 C892 1.465 . S
C898 C897 1.396 . S
C898 C899 1.399 . S
C899 H885 0.929 . S
C899 C898 1.399 . S
C899 C900 1.385 . S
C900 H886 0.931 . S
C900 C899 1.385 . S
C900 C901 1.389 . S
C901 C900 1.389 . S
C901 C902 1.387 . S
C902 H887 0.930 . S
C902 C897 1.390 . S
C902 C901 1.387 . S
H903 C915 0.930 . S
H904 C917 0.927 1_554 S
H905 C918 0.930 . S
H906 C922 0.959 . S
H907 C922 0.969 . S
H908 C922 0.961 . S
H909 C923 0.960 . S
H910 C923 0.961 . S
H911 C923 0.959 . S
H912 C926 0.929 . S
H913 C927 0.931 . S
H914 C929 0.930 . S
C915 H903 0.930 . S
C915 C916 1.399 . S
C915 C920 1.399 1_554 S
C916 C915 1.399 . S
C916 C917 1.359 1_554 S
C917 H904 0.927 1_556 S
C917 C916 1.359 1_556 S
C917 C918 1.410 . S
C918 H905 0.930 . S
C918 C917 1.410 . S
C918 C919 1.390 . S
C919 C918 1.390 . S
C919 C920 1.394 . S
C919 C925 1.465 . S
C920 C915 1.399 1_556 S
C920 C919 1.394 . S
C920 C921 1.516 . S
C921 C920 1.516 . S
C921 C922 1.502 1_556 S
C921 C923 1.561 . S
C921 C924 1.526 . S
C922 H906 0.959 . S
C922 H907 0.969 . S
C922 H908 0.961 . S
C922 C921 1.502 1_554 S
C923 H909 0.960 . S
C923 H910 0.961 . S
C923 H911 0.959 . S
C923 C921 1.561 . S
C924 C921 1.526 . S
C924 C925 1.396 . S
C924 C929 1.390 . S
C925 C919 1.465 . S
C925 C924 1.396 . S
C925 C926 1.399 . S
C926 H912 0.929 . S
C926 C925 1.399 . S
C926 C927 1.385 . S
C927 H913 0.931 . S
C927 C926 1.385 . S
C927 C928 1.389 . S
C928 C927 1.389 . S
C928 C929 1.387 . S
C929 H914 0.930 . S
C929 C924 1.390 . S
C929 C928 1.387 . S
H930 C942 0.930 . S
H931 C944 0.930 . S
H932 C945 0.930 . S
H933 C949 0.959 . S
H934 C949 0.959 . S
H935 C949 0.961 . S
H936 C950 0.960 . S
H937 C950 0.961 . S
H938 C950 0.959 . S
H939 C953 0.929 . S
H940 C954 0.931 . S
H941 C956 0.930 . S
C942 H930 0.930 . S
C942 C943 1.399 . S
C942 C947 1.413 . S
C943 C942 1.399 . S
C943 C944 1.376 1_556 S
C944 H931 0.930 . S
C944 C943 1.376 1_554 S
C944 C945 1.388 . S
C945 H932 0.930 . S
C945 C944 1.388 . S
C945 C946 1.390 . S
C946 C945 1.390 . S
C946 C947 1.376 1_554 S
C946 C952 1.465 . S
C947 C942 1.413 . S
C947 C946 1.376 1_556 S
C947 C948 1.516 . S
C948 C947 1.516 . S
C948 C949 1.510 . S
C948 C950 1.567 . S
C948 C951 1.511 1_556 S
C949 H933 0.959 . S
C949 H934 0.959 . S
C949 H935 0.961 . S
C949 C948 1.510 . S
C950 H936 0.960 . S
C950 H937 0.961 . S
C950 H938 0.959 . S
C950 C948 1.567 . S
C951 C948 1.511 1_554 S
C951 C952 1.396 . S
C951 C956 1.390 . S
C952 C946 1.465 . S
C952 C951 1.396 . S
C952 C953 1.399 . S
C953 H939 0.929 . S
C953 C952 1.399 . S
C953 C954 1.385 . S
C954 H940 0.931 . S
C954 C953 1.385 . S
C954 C955 1.389 . S
C955 C954 1.389 . S
C955 C956 1.387 . S
C956 H941 0.930 . S
C956 C951 1.390 . S
C956 C955 1.387 . S
H957 C969 0.930 . S
H958 C971 0.930 . S
H959 C972 0.930 . S
H960 C976 0.969 . S
H961 C976 0.959 . S
H962 C976 0.961 . S
H963 C977 0.960 . S
H964 C977 0.961 . S
H965 C977 0.959 . S
H966 C980 0.929 . S
H967 C981 0.931 . S
H968 C983 0.930 . S
C969 H957 0.930 . S
C969 C970 1.399 . S
C969 C974 1.391 1_554 S
C970 C969 1.399 . S
C970 C971 1.376 1_554 S
C971 H958 0.930 . S
C971 C970 1.376 1_556 S
C971 C972 1.388 . S
C972 H959 0.930 . S
C972 C971 1.388 . S
C972 C973 1.390 . S
C973 C972 1.390 . S
C973 C974 1.405 . S
C973 C979 1.465 . S
C974 C969 1.391 1_556 S
C974 C973 1.405 . S
C974 C975 1.515 1_556 S
C975 C974 1.515 1_554 S
C975 C976 1.502 . S
C975 C977 1.561 . S
C975 C978 1.526 1_554 S
C976 H960 0.969 . S
C976 H961 0.959 . S
C976 H962 0.961 . S
C976 C975 1.502 . S
C977 H963 0.960 . S
C977 H964 0.961 . S
C977 H965 0.959 . S
C977 C975 1.561 . S
C978 C975 1.526 1_556 S
C978 C979 1.396 . S
C978 C983 1.390 . S
C979 C973 1.465 . S
C979 C978 1.396 . S
C979 C980 1.399 . S
C980 H966 0.929 . S
C980 C979 1.399 . S
C980 C981 1.385 . S
C981 H967 0.931 . S
C981 C980 1.385 . S
C981 C982 1.389 . S
C982 C981 1.389 . S
C982 C983 1.387 . S
C983 H968 0.930 . S
C983 C978 1.390 . S
C983 C982 1.387 . S
H984 C996 0.930 . S
H985 C998 0.930 . S
H986 C999 0.930 . S
H987 C1003 0.959 . S
H988 C1003 0.959 . S
H989 C1003 0.961 . S
H990 C1004 0.960 . S
H991 C1004 0.961 . S
H992 C1004 0.959 . S
H993 C1007 0.929 . S
H994 C1008 0.931 . S
H995 C1010 0.930 . S
C996 H984 0.930 . S
C996 C997 1.399 . S
C996 C1001 1.399 . S
C997 C996 1.399 . S
C997 C998 1.376 . S
C998 H985 0.930 . S
C998 C997 1.376 . S
C998 C999 1.388 . S
C999 H986 0.930 . S
C999 C998 1.388 . S
C999 C1000 1.390 . S
C1000 C999 1.390 . S
C1000 C1001 1.394 . S
C1000 C1006 1.465 . S
C1001 C996 1.399 . S
C1001 C1000 1.394 . S
C1001 C1002 1.516 . S
C1002 C1001 1.516 . S
C1002 C1003 1.502 . S
C1002 C1004 1.561 . S
C1002 C1005 1.526 . S
C1003 H987 0.959 . S
C1003 H988 0.959 . S
C1003 H989 0.961 . S
C1003 C1002 1.502 . S
C1004 H990 0.960 . S
C1004 H991 0.961 . S
C1004 H992 0.959 . S
C1004 C1002 1.561 . S
C1005 C1002 1.526 . S
C1005 C1006 1.396 . S
C1005 C1010 1.390 . S
C1006 C1000 1.465 . S
C1006 C1005 1.396 . S
C1006 C1007 1.399 . S
C1007 H993 0.929 . S
C1007 C1006 1.399 . S
C1007 C1008 1.385 . S
C1008 H994 0.931 . S
C1008 C1007 1.385 . S
C1008 C1009 1.389 . S
C1009 C1008 1.389 . S
C1009 C1010 1.387 . S
C1010 H995 0.930 . S
C1010 C1005 1.390 . S
C1010 C1009 1.387 . S
H1011 C1023 0.930 . S
H1012 C1025 0.930 . S
H1013 C1026 0.930 . S
H1014 C1030 0.959 . S
H1015 C1030 0.959 . S
H1016 C1030 0.961 . S
H1017 C1031 0.960 . S
H1018 C1031 0.961 . S
H1019 C1031 0.959 . S
H1020 C1034 0.929 . S
H1021 C1035 0.931 . S
H1022 C1037 0.930 . S
C1023 H1011 0.930 . S
C1023 C1024 1.399 . S
C1023 C1028 1.399 . S
C1024 C1023 1.399 . S
C1024 C1025 1.376 . S
C1025 H1012 0.930 . S
C1025 C1024 1.376 . S
C1025 C1026 1.388 . S
C1026 H1013 0.930 . S
C1026 C1025 1.388 . S
C1026 C1027 1.390 . S
C1027 C1026 1.390 . S
C1027 C1028 1.394 . S
C1027 C1033 1.465 . S
C1028 C1023 1.399 . S
C1028 C1027 1.394 . S
C1028 C1029 1.516 . S
C1029 C1028 1.516 . S
C1029 C1030 1.502 . S
C1029 C1031 1.561 . S
C1029 C1032 1.526 . S
C1030 H1014 0.959 . S
C1030 H1015 0.959 . S
C1030 H1016 0.961 . S
C1030 C1029 1.502 . S
C1031 H1017 0.960 . S
C1031 H1018 0.961 . S
C1031 H1019 0.959 . S
C1031 C1029 1.561 . S
C1032 C1029 1.526 . S
C1032 C1033 1.396 . S
C1032 C1037 1.390 . S
C1033 C1027 1.465 . S
C1033 C1032 1.396 . S
C1033 C1034 1.399 . S
C1034 H1020 0.929 . S
C1034 C1033 1.399 . S
C1034 C1035 1.385 . S
C1035 H1021 0.931 . S
C1035 C1034 1.385 . S
C1035 C1036 1.389 . S
C1036 C1035 1.389 . S
C1036 C1037 1.387 . S
C1037 H1022 0.930 . S
C1037 C1032 1.390 . S
C1037 C1036 1.387 . S
H1038 C1050 0.930 . S
H1039 C1052 0.930 . S
H1040 C1053 0.930 . S
H1041 C1057 0.959 . S
H1042 C1057 0.959 . S
H1043 C1057 0.961 . S
H1044 C1058 0.960 . S
H1045 C1058 0.961 . S
H1046 C1058 0.959 . S
H1047 C1061 0.929 . S
H1048 C1062 0.931 . S
H1049 C1064 0.930 . S
C1050 H1038 0.930 . S
C1050 C1051 1.399 . S
C1050 C1055 1.399 . S
C1051 C1050 1.399 . S
C1051 C1052 1.376 . S
C1052 H1039 0.930 . S
C1052 C1051 1.376 . S
C1052 C1053 1.388 . S
C1053 H1040 0.930 . S
C1053 C1052 1.388 . S
C1053 C1054 1.390 . S
C1054 C1053 1.390 . S
C1054 C1055 1.394 . S
C1054 C1060 1.465 . S
C1055 C1050 1.399 . S
C1055 C1054 1.394 . S
C1055 C1056 1.516 . S
C1056 C1055 1.516 . S
C1056 C1057 1.502 . S
C1056 C1058 1.561 . S
C1056 C1059 1.526 . S
C1057 H1041 0.959 . S
C1057 H1042 0.959 . S
C1057 H1043 0.961 . S
C1057 C1056 1.502 . S
C1058 H1044 0.960 . S
C1058 H1045 0.961 . S
C1058 H1046 0.959 . S
C1058 C1056 1.561 . S
C1059 C1056 1.526 . S
C1059 C1060 1.396 . S
C1059 C1064 1.390 . S
C1060 C1054 1.465 . S
C1060 C1059 1.396 . S
C1060 C1061 1.399 . S
C1061 H1047 0.929 . S
C1061 C1060 1.399 . S
C1061 C1062 1.385 . S
C1062 H1048 0.931 . S
C1062 C1061 1.385 . S
C1062 C1063 1.389 . S
C1063 C1062 1.389 . S
C1063 C1064 1.387 . S
C1064 H1049 0.930 . S
C1064 C1059 1.390 . S
C1064 C1063 1.387 . S
H1065 C1077 0.930 . S
H1066 C1079 0.930 . S
H1067 C1080 0.930 . S
H1068 C1084 0.959 . S
H1069 C1084 0.959 . S
H1070 C1084 0.961 . S
H1071 C1085 0.960 . S
H1072 C1085 0.961 . S
H1073 C1085 0.959 . S
H1074 C1088 0.929 . S
H1075 C1089 0.931 . S
H1076 C1091 0.930 . S
C1077 H1065 0.930 . S
C1077 C1078 1.399 . S
C1077 C1082 1.399 . S
C1078 C1077 1.399 . S
C1078 C1079 1.376 . S
C1079 H1066 0.930 . S
C1079 C1078 1.376 . S
C1079 C1080 1.388 . S
C1080 H1067 0.930 . S
C1080 C1079 1.388 . S
C1080 C1081 1.390 . S
C1081 C1080 1.390 . S
C1081 C1082 1.394 . S
C1081 C1087 1.465 . S
C1082 C1077 1.399 . S
C1082 C1081 1.394 . S
C1082 C1083 1.516 . S
C1083 C1082 1.516 . S
C1083 C1084 1.502 . S
C1083 C1085 1.561 . S
C1083 C1086 1.526 . S
C1084 H1068 0.959 . S
C1084 H1069 0.959 . S
C1084 H1070 0.961 . S
C1084 C1083 1.502 . S
C1085 H1071 0.960 . S
C1085 H1072 0.961 . S
C1085 H1073 0.959 . S
C1085 C1083 1.561 . S
C1086 C1083 1.526 . S
C1086 C1087 1.396 . S
C1086 C1091 1.390 . S
C1087 C1081 1.465 . S
C1087 C1086 1.396 . S
C1087 C1088 1.399 . S
C1088 H1074 0.929 . S
C1088 C1087 1.399 . S
C1088 C1089 1.385 . S
C1089 H1075 0.931 . S
C1089 C1088 1.385 . S
C1089 C1090 1.389 . S
C1090 C1089 1.389 . S
C1090 C1091 1.387 . S
C1091 H1076 0.930 . S
C1091 C1086 1.390 . S
C1091 C1090 1.387 . S
H1092 C1104 0.930 . S
H1093 C1106 0.930 . S
H1094 C1107 0.930 . S
H1095 C1111 0.959 . S
H1096 C1111 0.959 . S
H1097 C1111 0.961 . S
H1098 C1112 0.960 . S
H1099 C1112 0.961 . S
H1100 C1112 0.959 . S
H1101 C1115 0.929 . S
H1102 C1116 0.931 . S
H1103 C1118 0.930 . S
C1104 H1092 0.930 . S
C1104 C1105 1.399 . S
C1104 C1109 1.399 . S
C1105 C1104 1.399 . S
C1105 C1106 1.376 . S
C1106 H1093 0.930 . S
C1106 C1105 1.376 . S
C1106 C1107 1.388 . S
C1107 H1094 0.930 . S
C1107 C1106 1.388 . S
C1107 C1108 1.390 . S
C1108 C1107 1.390 . S
C1108 C1109 1.394 . S
C1108 C1114 1.465 . S
C1109 C1104 1.399 . S
C1109 C1108 1.394 . S
C1109 C1110 1.516 . S
C1110 C1109 1.516 . S
C1110 C1111 1.502 . S
C1110 C1112 1.561 . S
C1110 C1113 1.526 . S
C1111 H1095 0.959 . S
C1111 H1096 0.959 . S
C1111 H1097 0.961 . S
C1111 C1110 1.502 . S
C1112 H1098 0.960 . S
C1112 H1099 0.961 . S
C1112 H1100 0.959 . S
C1112 C1110 1.561 . S
C1113 C1110 1.526 . S
C1113 C1114 1.396 . S
C1113 C1118 1.390 . S
C1114 C1108 1.465 . S
C1114 C1113 1.396 . S
C1114 C1115 1.399 . S
C1115 H1101 0.929 . S
C1115 C1114 1.399 . S
C1115 C1116 1.385 . S
C1116 H1102 0.931 . S
C1116 C1115 1.385 . S
C1116 C1117 1.389 . S
C1117 C1116 1.389 . S
C1117 C1118 1.387 . S
C1118 H1103 0.930 . S
C1118 C1113 1.390 . S
C1118 C1117 1.387 . S
H1119 C1131 0.930 . S
H1120 C1133 0.930 . S
H1121 C1134 0.930 . S
H1122 C1138 0.959 . S
H1123 C1138 0.959 . S
H1124 C1138 0.961 . S
H1125 C1139 0.960 . S
H1126 C1139 0.961 . S
H1127 C1139 0.959 . S
H1128 C1142 0.929 . S
H1129 C1143 0.931 . S
H1130 C1145 0.930 . S
C1131 H1119 0.930 . S
C1131 C1132 1.399 . S
C1131 C1136 1.399 . S
C1132 C1131 1.399 . S
C1132 C1133 1.376 . S
C1133 H1120 0.930 . S
C1133 C1132 1.376 . S
C1133 C1134 1.388 . S
C1134 H1121 0.930 . S
C1134 C1133 1.388 . S
C1134 C1135 1.390 . S
C1135 C1134 1.390 . S
C1135 C1136 1.394 . S
C1135 C1141 1.465 . S
C1136 C1131 1.399 . S
C1136 C1135 1.394 . S
C1136 C1137 1.516 . S
C1137 C1136 1.516 . S
C1137 C1138 1.502 . S
C1137 C1139 1.561 . S
C1137 C1140 1.526 . S
C1138 H1122 0.959 . S
C1138 H1123 0.959 . S
C1138 H1124 0.961 . S
C1138 C1137 1.502 . S
C1139 H1125 0.960 . S
C1139 H1126 0.961 . S
C1139 H1127 0.959 . S
C1139 C1137 1.561 . S
C1140 C1137 1.526 . S
C1140 C1141 1.396 . S
C1140 C1145 1.390 . S
C1141 C1135 1.465 . S
C1141 C1140 1.396 . S
C1141 C1142 1.399 . S
C1142 H1128 0.929 . S
C1142 C1141 1.399 . S
C1142 C1143 1.385 . S
C1143 H1129 0.931 . S
C1143 C1142 1.385 . S
C1143 C1144 1.389 . S
C1144 C1143 1.389 . S
C1144 C1145 1.387 . S
C1145 H1130 0.930 . S
C1145 C1140 1.390 . S
C1145 C1144 1.387 . S
H1146 C1158 0.930 . S
H1147 C1160 0.930 . S
H1148 C1161 0.930 . S
H1149 C1165 0.959 . S
H1150 C1165 0.959 . S
H1151 C1165 0.961 . S
H1152 C1166 0.960 . S
H1153 C1166 0.961 . S
H1154 C1166 0.959 . S
H1155 C1169 0.929 . S
H1156 C1170 0.931 . S
H1157 C1172 0.930 . S
C1158 H1146 0.930 . S
C1158 C1159 1.399 . S
C1158 C1163 1.399 . S
C1159 C1158 1.399 . S
C1159 C1160 1.376 . S
C1160 H1147 0.930 . S
C1160 C1159 1.376 . S
C1160 C1161 1.388 . S
C1161 H1148 0.930 . S
C1161 C1160 1.388 . S
C1161 C1162 1.390 . S
C1162 C1161 1.390 . S
C1162 C1163 1.394 . S
C1162 C1168 1.465 . S
C1163 C1158 1.399 . S
C1163 C1162 1.394 . S
C1163 C1164 1.516 . S
C1164 C1163 1.516 . S
C1164 C1165 1.502 . S
C1164 C1166 1.561 . S
C1164 C1167 1.526 . S
C1165 H1149 0.959 . S
C1165 H1150 0.959 . S
C1165 H1151 0.961 . S
C1165 C1164 1.502 . S
C1166 H1152 0.960 . S
C1166 H1153 0.961 . S
C1166 H1154 0.959 . S
C1166 C1164 1.561 . S
C1167 C1164 1.526 . S
C1167 C1168 1.396 . S
C1167 C1172 1.390 . S
C1168 C1162 1.465 . S
C1168 C1167 1.396 . S
C1168 C1169 1.399 . S
C1169 H1155 0.929 . S
C1169 C1168 1.399 . S
C1169 C1170 1.385 . S
C1170 H1156 0.931 . S
C1170 C1169 1.385 . S
C1170 C1171 1.389 . S
C1171 C1170 1.389 . S
C1171 C1172 1.387 . S
C1172 H1157 0.930 . S
C1172 C1167 1.390 . S
C1172 C1171 1.387 . S
H1173 C1185 0.930 . S
H1174 C1187 0.930 . S
H1175 C1188 0.930 . S
H1176 C1192 0.959 . S
H1177 C1192 0.959 . S
H1178 C1192 0.961 . S
H1179 C1193 0.960 . S
H1180 C1193 0.961 . S
H1181 C1193 0.959 . S
H1182 C1196 0.929 . S
H1183 C1197 0.931 . S
H1184 C1199 0.930 . S
C1185 H1173 0.930 . S
C1185 C1186 1.399 . S
C1185 C1190 1.399 . S
C1186 C1185 1.399 . S
C1186 C1187 1.376 . S
C1187 H1174 0.930 . S
C1187 C1186 1.376 . S
C1187 C1188 1.388 . S
C1188 H1175 0.930 . S
C1188 C1187 1.388 . S
C1188 C1189 1.390 . S
C1189 C1188 1.390 . S
C1189 C1190 1.394 . S
C1189 C1195 1.465 . S
C1190 C1185 1.399 . S
C1190 C1189 1.394 . S
C1190 C1191 1.516 . S
C1191 C1190 1.516 . S
C1191 C1192 1.502 . S
C1191 C1193 1.561 . S
C1191 C1194 1.526 . S
C1192 H1176 0.959 . S
C1192 H1177 0.959 . S
C1192 H1178 0.961 . S
C1192 C1191 1.502 . S
C1193 H1179 0.960 . S
C1193 H1180 0.961 . S
C1193 H1181 0.959 . S
C1193 C1191 1.561 . S
C1194 C1191 1.526 . S
C1194 C1195 1.396 . S
C1194 C1199 1.390 . S
C1195 C1189 1.465 . S
C1195 C1194 1.396 . S
C1195 C1196 1.399 . S
C1196 H1182 0.929 . S
C1196 C1195 1.399 . S
C1196 C1197 1.385 . S
C1197 H1183 0.931 . S
C1197 C1196 1.385 . S
C1197 C1198 1.389 . S
C1198 C1197 1.389 . S
C1198 C1199 1.387 . S
C1199 H1184 0.930 . S
C1199 C1194 1.390 . S
C1199 C1198 1.387 . S
H1200 C1212 0.930 . S
H1201 C1214 0.930 . S
H1202 C1215 0.930 . S
H1203 C1219 0.959 . S
H1204 C1219 0.959 . S
H1205 C1219 0.961 . S
H1206 C1220 0.960 . S
H1207 C1220 0.961 . S
H1208 C1220 0.959 . S
H1209 C1223 0.929 . S
H1210 C1224 0.931 . S
H1211 C1226 0.930 . S
C1212 H1200 0.930 . S
C1212 C1213 1.399 . S
C1212 C1217 1.399 . S
C1213 C1212 1.399 . S
C1213 C1214 1.376 . S
C1214 H1201 0.930 . S
C1214 C1213 1.376 . S
C1214 C1215 1.388 . S
C1215 H1202 0.930 . S
C1215 C1214 1.388 . S
C1215 C1216 1.390 . S
C1216 C1215 1.390 . S
C1216 C1217 1.394 . S
C1216 C1222 1.465 . S
C1217 C1212 1.399 . S
C1217 C1216 1.394 . S
C1217 C1218 1.516 . S
C1218 C1217 1.516 . S
C1218 C1219 1.502 . S
C1218 C1220 1.561 . S
C1218 C1221 1.526 . S
C1219 H1203 0.959 . S
C1219 H1204 0.959 . S
C1219 H1205 0.961 . S
C1219 C1218 1.502 . S
C1220 H1206 0.960 . S
C1220 H1207 0.961 . S
C1220 H1208 0.959 . S
C1220 C1218 1.561 . S
C1221 C1218 1.526 . S
C1221 C1222 1.396 . S
C1221 C1226 1.390 . S
C1222 C1216 1.465 . S
C1222 C1221 1.396 . S
C1222 C1223 1.399 . S
C1223 H1209 0.929 . S
C1223 C1222 1.399 . S
C1223 C1224 1.385 . S
C1224 H1210 0.931 . S
C1224 C1223 1.385 . S
C1224 C1225 1.389 . S
C1225 C1224 1.389 . S
C1225 C1226 1.387 . S
C1226 H1211 0.930 . S
C1226 C1221 1.390 . S
C1226 C1225 1.387 . S
H1227 C1239 0.930 . S
H1228 C1241 0.930 . S
H1229 C1242 0.930 . S
H1230 C1246 0.959 . S
H1231 C1246 0.959 . S
H1232 C1246 0.961 . S
H1233 C1247 0.960 . S
H1234 C1247 0.961 . S
H1235 C1247 0.959 . S
H1236 C1250 0.929 . S
H1237 C1251 0.931 . S
H1238 C1253 0.930 . S
C1239 H1227 0.930 . S
C1239 C1240 1.399 . S
C1239 C1244 1.399 . S
C1240 C1239 1.399 . S
C1240 C1241 1.376 . S
C1241 H1228 0.930 . S
C1241 C1240 1.376 . S
C1241 C1242 1.388 . S
C1242 H1229 0.930 . S
C1242 C1241 1.388 . S
C1242 C1243 1.390 . S
C1243 C1242 1.390 . S
C1243 C1244 1.394 . S
C1243 C1249 1.465 . S
C1244 C1239 1.399 . S
C1244 C1243 1.394 . S
C1244 C1245 1.516 . S
C1245 C1244 1.516 . S
C1245 C1246 1.502 . S
C1245 C1247 1.561 . S
C1245 C1248 1.526 . S
C1246 H1230 0.959 . S
C1246 H1231 0.959 . S
C1246 H1232 0.961 . S
C1246 C1245 1.502 . S
C1247 H1233 0.960 . S
C1247 H1234 0.961 . S
C1247 H1235 0.959 . S
C1247 C1245 1.561 . S
C1248 C1245 1.526 . S
C1248 C1249 1.396 . S
C1248 C1253 1.390 . S
C1249 C1243 1.465 . S
C1249 C1248 1.396 . S
C1249 C1250 1.399 . S
C1250 H1236 0.929 . S
C1250 C1249 1.399 . S
C1250 C1251 1.385 . S
C1251 H1237 0.931 . S
C1251 C1250 1.385 . S
C1251 C1252 1.389 . S
C1252 C1251 1.389 . S
C1252 C1253 1.387 . S
C1253 H1238 0.930 . S
C1253 C1248 1.390 . S
C1253 C1252 1.387 . S
H1254 C1266 0.930 . S
H1255 C1268 0.930 . S
H1256 C1269 0.930 . S
H1257 C1273 0.959 . S
H1258 C1273 0.959 . S
H1259 C1273 0.961 . S
H1260 C1274 0.960 . S
H1261 C1274 0.961 . S
H1262 C1274 0.959 . S
H1263 C1277 0.929 . S
H1264 C1278 0.931 . S
H1265 C1280 0.930 . S
C1266 H1254 0.930 . S
C1266 C1267 1.399 . S
C1266 C1271 1.399 . S
C1267 C1266 1.399 . S
C1267 C1268 1.376 . S
C1268 H1255 0.930 . S
C1268 C1267 1.376 . S
C1268 C1269 1.388 . S
C1269 H1256 0.930 . S
C1269 C1268 1.388 . S
C1269 C1270 1.390 . S
C1270 C1269 1.390 . S
C1270 C1271 1.394 . S
C1270 C1276 1.465 . S
C1271 C1266 1.399 . S
C1271 C1270 1.394 . S
C1271 C1272 1.516 . S
C1272 C1271 1.516 . S
C1272 C1273 1.502 . S
C1272 C1274 1.561 . S
C1272 C1275 1.526 . S
C1273 H1257 0.959 . S
C1273 H1258 0.959 . S
C1273 H1259 0.961 . S
C1273 C1272 1.502 . S
C1274 H1260 0.960 . S
C1274 H1261 0.961 . S
C1274 H1262 0.959 . S
C1274 C1272 1.561 . S
C1275 C1272 1.526 . S
C1275 C1276 1.396 . S
C1275 C1280 1.390 . S
C1276 C1270 1.465 . S
C1276 C1275 1.396 . S
C1276 C1277 1.399 . S
C1277 H1263 0.929 . S
C1277 C1276 1.399 . S
C1277 C1278 1.385 . S
C1278 H1264 0.931 . S
C1278 C1277 1.385 . S
C1278 C1279 1.389 . S
C1279 C1278 1.389 . S
C1279 C1280 1.387 . S
C1280 H1265 0.930 . S
C1280 C1275 1.390 . S
C1280 C1279 1.387 . S
H1281 C1293 0.930 . S
H1282 C1295 0.930 . S
H1283 C1296 0.930 . S
H1284 C1300 0.959 . S
H1285 C1300 0.959 . S
H1286 C1300 0.961 . S
H1287 C1301 0.960 . S
H1288 C1301 0.961 . S
H1289 C1301 0.959 . S
H1290 C1304 0.929 . S
H1291 C1305 0.931 . S
H1292 C1307 0.930 . S
C1293 H1281 0.930 . S
C1293 C1294 1.399 . S
C1293 C1298 1.399 . S
C1294 C1293 1.399 . S
C1294 C1295 1.376 . S
C1295 H1282 0.930 . S
C1295 C1294 1.376 . S
C1295 C1296 1.388 . S
C1296 H1283 0.930 . S
C1296 C1295 1.388 . S
C1296 C1297 1.390 . S
C1297 C1296 1.390 . S
C1297 C1298 1.394 . S
C1297 C1303 1.465 . S
C1298 C1293 1.399 . S
C1298 C1297 1.394 . S
C1298 C1299 1.516 . S
C1299 C1298 1.516 . S
C1299 C1300 1.502 . S
C1299 C1301 1.561 . S
C1299 C1302 1.526 . S
C1300 H1284 0.959 . S
C1300 H1285 0.959 . S
C1300 H1286 0.961 . S
C1300 C1299 1.502 . S
C1301 H1287 0.960 . S
C1301 H1288 0.961 . S
C1301 H1289 0.959 . S
C1301 C1299 1.561 . S
C1302 C1299 1.526 . S
C1302 C1303 1.396 . S
C1302 C1307 1.390 . S
C1303 C1297 1.465 . S
C1303 C1302 1.396 . S
C1303 C1304 1.399 . S
C1304 H1290 0.929 . S
C1304 C1303 1.399 . S
C1304 C1305 1.385 . S
C1305 H1291 0.931 . S
C1305 C1304 1.385 . S
C1305 C1306 1.389 . S
C1306 C1305 1.389 . S
C1306 C1307 1.387 . S
C1307 H1292 0.930 . S
C1307 C1302 1.390 . S
C1307 C1306 1.387 . S
H1308 C1320 0.930 . S
H1309 C1322 0.930 . S
H1310 C1323 0.930 . S
H1311 C1327 0.959 . S
H1312 C1327 0.959 . S
H1313 C1327 0.961 . S
H1314 C1328 0.960 . S
H1315 C1328 0.961 . S
H1316 C1328 0.959 . S
H1317 C1331 0.929 . S
H1318 C1332 0.931 . S
H1319 C1334 0.930 . S
C1320 H1308 0.930 . S
C1320 C1321 1.399 . S
C1320 C1325 1.399 . S
C1321 C1320 1.399 . S
C1321 C1322 1.376 . S
C1322 H1309 0.930 . S
C1322 C1321 1.376 . S
C1322 C1323 1.388 . S
C1323 H1310 0.930 . S
C1323 C1322 1.388 . S
C1323 C1324 1.390 . S
C1324 C1323 1.390 . S
C1324 C1325 1.394 . S
C1324 C1330 1.465 . S
C1325 C1320 1.399 . S
C1325 C1324 1.394 . S
C1325 C1326 1.516 . S
C1326 C1325 1.516 . S
C1326 C1327 1.502 . S
C1326 C1328 1.561 . S
C1326 C1329 1.526 . S
C1327 H1311 0.959 . S
C1327 H1312 0.959 . S
C1327 H1313 0.961 . S
C1327 C1326 1.502 . S
C1328 H1314 0.960 . S
C1328 H1315 0.961 . S
C1328 H1316 0.959 . S
C1328 C1326 1.561 . S
C1329 C1326 1.526 . S
C1329 C1330 1.396 . S
C1329 C1334 1.390 . S
C1330 C1324 1.465 . S
C1330 C1329 1.396 . S
C1330 C1331 1.399 . S
C1331 H1317 0.929 . S
C1331 C1330 1.399 . S
C1331 C1332 1.385 . S
C1332 H1318 0.931 . S
C1332 C1331 1.385 . S
C1332 C1333 1.389 . S
C1333 C1332 1.389 . S
C1333 C1334 1.387 . S
C1334 H1319 0.930 . S
C1334 C1329 1.390 . S
C1334 C1333 1.387 . S
H1335 C1347 0.930 . S
H1336 C1349 0.930 . S
H1337 C1350 0.930 . S
H1338 C1354 0.959 . S
H1339 C1354 0.959 . S
H1340 C1354 0.961 . S
H1341 C1355 0.960 . S
H1342 C1355 0.961 . S
H1343 C1355 0.959 . S
H1344 C1358 0.929 . S
H1345 C1359 0.931 . S
H1346 C1361 0.930 . S
C1347 H1335 0.930 . S
C1347 C1348 1.399 . S
C1347 C1352 1.399 . S
C1348 C1347 1.399 . S
C1348 C1349 1.376 . S
C1349 H1336 0.930 . S
C1349 C1348 1.376 . S
C1349 C1350 1.388 . S
C1350 H1337 0.930 . S
C1350 C1349 1.388 . S
C1350 C1351 1.390 . S
C1351 C1350 1.390 . S
C1351 C1352 1.394 . S
C1351 C1357 1.465 . S
C1352 C1347 1.399 . S
C1352 C1351 1.394 . S
C1352 C1353 1.516 . S
C1353 C1352 1.516 . S
C1353 C1354 1.502 . S
C1353 C1355 1.561 . S
C1353 C1356 1.526 . S
C1354 H1338 0.959 . S
C1354 H1339 0.959 . S
C1354 H1340 0.961 . S
C1354 C1353 1.502 . S
C1355 H1341 0.960 . S
C1355 H1342 0.961 . S
C1355 H1343 0.959 . S
C1355 C1353 1.561 . S
C1356 C1353 1.526 . S
C1356 C1357 1.396 . S
C1356 C1361 1.390 . S
C1357 C1351 1.465 . S
C1357 C1356 1.396 . S
C1357 C1358 1.399 . S
C1358 H1344 0.929 . S
C1358 C1357 1.399 . S
C1358 C1359 1.385 . S
C1359 H1345 0.931 . S
C1359 C1358 1.385 . S
C1359 C1360 1.389 . S
C1360 C1359 1.389 . S
C1360 C1361 1.387 . S
C1361 H1346 0.930 . S
C1361 C1356 1.390 . S
C1361 C1360 1.387 . S
H1362 C1374 0.930 . S
H1363 C1376 0.930 . S
H1364 C1377 0.930 . S
H1365 C1381 0.959 . S
H1366 C1381 0.959 . S
H1367 C1381 0.961 . S
H1368 C1382 0.960 . S
H1369 C1382 0.961 . S
H1370 C1382 0.959 . S
H1371 C1385 0.929 . S
H1372 C1386 0.931 . S
H1373 C1388 0.930 . S
C1374 H1362 0.930 . S
C1374 C1375 1.399 . S
C1374 C1379 1.399 . S
C1375 C1374 1.399 . S
C1375 C1376 1.376 . S
C1376 H1363 0.930 . S
C1376 C1375 1.376 . S
C1376 C1377 1.388 . S
C1377 H1364 0.930 . S
C1377 C1376 1.388 . S
C1377 C1378 1.390 . S
C1378 C1377 1.390 . S
C1378 C1379 1.394 . S
C1378 C1384 1.465 . S
C1379 C1374 1.399 . S
C1379 C1378 1.394 . S
C1379 C1380 1.516 . S
C1380 C1379 1.516 . S
C1380 C1381 1.502 . S
C1380 C1382 1.561 . S
C1380 C1383 1.526 . S
C1381 H1365 0.959 . S
C1381 H1366 0.959 . S
C1381 H1367 0.961 . S
C1381 C1380 1.502 . S
C1382 H1368 0.960 . S
C1382 H1369 0.961 . S
C1382 H1370 0.959 . S
C1382 C1380 1.561 . S
C1383 C1380 1.526 . S
C1383 C1384 1.396 . S
C1383 C1388 1.390 . S
C1384 C1378 1.465 . S
C1384 C1383 1.396 . S
C1384 C1385 1.399 . S
C1385 H1371 0.929 . S
C1385 C1384 1.399 . S
C1385 C1386 1.385 . S
C1386 H1372 0.931 . S
C1386 C1385 1.385 . S
C1386 C1387 1.389 . S
C1387 C1386 1.389 . S
C1387 C1388 1.387 . S
C1388 H1373 0.930 . S
C1388 C1383 1.390 . S
C1388 C1387 1.387 . S
H1389 C1401 0.930 . S
H1390 C1403 0.930 . S
H1391 C1404 0.930 . S
H1392 C1408 0.959 . S
H1393 C1408 0.959 . S
H1394 C1408 0.961 . S
H1395 C1409 0.960 . S
H1396 C1409 0.961 . S
H1397 C1409 0.959 . S
H1398 C1412 0.929 . S
H1399 C1413 0.931 . S
H1400 C1415 0.930 . S
C1401 H1389 0.930 . S
C1401 C1402 1.399 . S
C1401 C1406 1.399 . S
C1402 C1401 1.399 . S
C1402 C1403 1.376 . S
C1403 H1390 0.930 . S
C1403 C1402 1.376 . S
C1403 C1404 1.388 . S
C1404 H1391 0.930 . S
C1404 C1403 1.388 . S
C1404 C1405 1.390 . S
C1405 C1404 1.390 . S
C1405 C1406 1.394 . S
C1405 C1411 1.465 . S
C1406 C1401 1.399 . S
C1406 C1405 1.394 . S
C1406 C1407 1.516 . S
C1407 C1406 1.516 . S
C1407 C1408 1.502 . S
C1407 C1409 1.561 . S
C1407 C1410 1.526 . S
C1408 H1392 0.959 . S
C1408 H1393 0.959 . S
C1408 H1394 0.961 . S
C1408 C1407 1.502 . S
C1409 H1395 0.960 . S
C1409 H1396 0.961 . S
C1409 H1397 0.959 . S
C1409 C1407 1.561 . S
C1410 C1407 1.526 . S
C1410 C1411 1.396 . S
C1410 C1415 1.390 . S
C1411 C1405 1.465 . S
C1411 C1410 1.396 . S
C1411 C1412 1.399 . S
C1412 H1398 0.929 . S
C1412 C1411 1.399 . S
C1412 C1413 1.385 . S
C1413 H1399 0.931 . S
C1413 C1412 1.385 . S
C1413 C1414 1.389 . S
C1414 C1413 1.389 . S
C1414 C1415 1.387 . S
C1415 H1400 0.930 . S
C1415 C1410 1.390 . S
C1415 C1414 1.387 . S
H1416 C1428 0.930 . S
H1417 C1430 0.930 . S
H1418 C1431 0.930 . S
H1419 C1435 0.959 . S
H1420 C1435 0.959 . S
H1421 C1435 0.961 . S
H1422 C1436 0.960 . S
H1423 C1436 0.961 . S
H1424 C1436 0.959 . S
H1425 C1439 0.929 . S
H1426 C1440 0.931 . S
H1427 C1442 0.930 . S
C1428 H1416 0.930 . S
C1428 C1429 1.399 . S
C1428 C1433 1.399 . S
C1429 C1428 1.399 . S
C1429 C1430 1.376 . S
C1430 H1417 0.930 . S
C1430 C1429 1.376 . S
C1430 C1431 1.388 . S
C1431 H1418 0.930 . S
C1431 C1430 1.388 . S
C1431 C1432 1.390 . S
C1432 C1431 1.390 . S
C1432 C1433 1.394 . S
C1432 C1438 1.465 . S
C1433 C1428 1.399 . S
C1433 C1432 1.394 . S
C1433 C1434 1.516 . S
C1434 C1433 1.516 . S
C1434 C1435 1.502 . S
C1434 C1436 1.561 . S
C1434 C1437 1.526 . S
C1435 H1419 0.959 . S
C1435 H1420 0.959 . S
C1435 H1421 0.961 . S
C1435 C1434 1.502 . S
C1436 H1422 0.960 . S
C1436 H1423 0.961 . S
C1436 H1424 0.959 . S
C1436 C1434 1.561 . S
C1437 C1434 1.526 . S
C1437 C1438 1.396 . S
C1437 C1442 1.390 . S
C1438 C1432 1.465 . S
C1438 C1437 1.396 . S
C1438 C1439 1.399 . S
C1439 H1425 0.929 . S
C1439 C1438 1.399 . S
C1439 C1440 1.385 . S
C1440 H1426 0.931 . S
C1440 C1439 1.385 . S
C1440 C1441 1.389 . S
C1441 C1440 1.389 . S
C1441 C1442 1.387 . S
C1442 H1427 0.930 . S
C1442 C1437 1.390 . S
C1442 C1441 1.387 . S
H1443 C1455 0.930 . S
H1444 C1457 0.930 . S
H1445 C1458 0.930 . S
H1446 C1462 0.959 . S
H1447 C1462 0.959 . S
H1448 C1462 0.961 . S
H1449 C1463 0.960 . S
H1450 C1463 0.961 . S
H1451 C1463 0.959 . S
H1452 C1466 0.929 . S
H1453 C1467 0.931 . S
H1454 C1469 0.930 . S
C1455 H1443 0.930 . S
C1455 C1456 1.399 . S
C1455 C1460 1.399 . S
C1456 C1455 1.399 . S
C1456 C1457 1.376 . S
C1457 H1444 0.930 . S
C1457 C1456 1.376 . S
C1457 C1458 1.388 . S
C1458 H1445 0.930 . S
C1458 C1457 1.388 . S
C1458 C1459 1.390 . S
C1459 C1458 1.390 . S
C1459 C1460 1.394 . S
C1459 C1465 1.465 . S
C1460 C1455 1.399 . S
C1460 C1459 1.394 . S
C1460 C1461 1.516 . S
C1461 C1460 1.516 . S
C1461 C1462 1.502 . S
C1461 C1463 1.561 . S
C1461 C1464 1.526 . S
C1462 H1446 0.959 . S
C1462 H1447 0.959 . S
C1462 H1448 0.961 . S
C1462 C1461 1.502 . S
C1463 H1449 0.960 . S
C1463 H1450 0.961 . S
C1463 H1451 0.959 . S
C1463 C1461 1.561 . S
C1464 C1461 1.526 . S
C1464 C1465 1.396 . S
C1464 C1469 1.390 . S
C1465 C1459 1.465 . S
C1465 C1464 1.396 . S
C1465 C1466 1.399 . S
C1466 H1452 0.929 . S
C1466 C1465 1.399 . S
C1466 C1467 1.385 . S
C1467 H1453 0.931 . S
C1467 C1466 1.385 . S
C1467 C1468 1.389 . S
C1468 C1467 1.389 . S
C1468 C1469 1.387 . S
C1469 H1454 0.930 . S
C1469 C1464 1.390 . S
C1469 C1468 1.387 . S
H1470 C1482 0.930 . S
H1471 C1484 0.930 . S
H1472 C1485 0.930 . S
H1473 C1489 0.959 . S
H1474 C1489 0.959 . S
H1475 C1489 0.961 . S
H1476 C1490 0.960 . S
H1477 C1490 0.961 . S
H1478 C1490 0.959 . S
H1479 C1493 0.929 . S
H1480 C1494 0.931 . S
H1481 C1496 0.930 . S
C1482 H1470 0.930 . S
C1482 C1483 1.399 . S
C1482 C1487 1.399 . S
C1483 C1482 1.399 . S
C1483 C1484 1.376 . S
C1484 H1471 0.930 . S
C1484 C1483 1.376 . S
C1484 C1485 1.388 . S
C1485 H1472 0.930 . S
C1485 C1484 1.388 . S
C1485 C1486 1.390 . S
C1486 C1485 1.390 . S
C1486 C1487 1.394 . S
C1486 C1492 1.465 . S
C1487 C1482 1.399 . S
C1487 C1486 1.394 . S
C1487 C1488 1.516 . S
C1488 C1487 1.516 . S
C1488 C1489 1.502 . S
C1488 C1490 1.561 . S
C1488 C1491 1.526 . S
C1489 H1473 0.959 . S
C1489 H1474 0.959 . S
C1489 H1475 0.961 . S
C1489 C1488 1.502 . S
C1490 H1476 0.960 . S
C1490 H1477 0.961 . S
C1490 H1478 0.959 . S
C1490 C1488 1.561 . S
C1491 C1488 1.526 . S
C1491 C1492 1.396 . S
C1491 C1496 1.390 . S
C1492 C1486 1.465 . S
C1492 C1491 1.396 . S
C1492 C1493 1.399 . S
C1493 H1479 0.929 . S
C1493 C1492 1.399 . S
C1493 C1494 1.385 . S
C1494 H1480 0.931 . S
C1494 C1493 1.385 . S
C1494 C1495 1.389 . S
C1495 C1494 1.389 . S
C1495 C1496 1.387 . S
C1496 H1481 0.930 . S
C1496 C1491 1.390 . S
C1496 C1495 1.387 . S
H1497 C1509 0.930 . S
H1498 C1511 0.930 . S
H1499 C1512 0.930 . S
H1500 C1516 0.959 . S
H1501 C1516 0.959 . S
H1502 C1516 0.961 . S
H1503 C1517 0.960 . S
H1504 C1517 0.961 . S
H1505 C1517 0.959 . S
H1506 C1520 0.929 . S
H1507 C1521 0.931 . S
H1508 C1523 0.930 . S
C1509 H1497 0.930 . S
C1509 C1510 1.399 . S
C1509 C1514 1.399 . S
C1510 C1509 1.399 . S
C1510 C1511 1.376 . S
C1511 H1498 0.930 . S
C1511 C1510 1.376 . S
C1511 C1512 1.388 . S
C1512 H1499 0.930 . S
C1512 C1511 1.388 . S
C1512 C1513 1.390 . S
C1513 C1512 1.390 . S
C1513 C1514 1.394 . S
C1513 C1519 1.465 . S
C1514 C1509 1.399 . S
C1514 C1513 1.394 . S
C1514 C1515 1.516 . S
C1515 C1514 1.516 . S
C1515 C1516 1.502 . S
C1515 C1517 1.561 . S
C1515 C1518 1.526 . S
C1516 H1500 0.959 . S
C1516 H1501 0.959 . S
C1516 H1502 0.961 . S
C1516 C1515 1.502 . S
C1517 H1503 0.960 . S
C1517 H1504 0.961 . S
C1517 H1505 0.959 . S
C1517 C1515 1.561 . S
C1518 C1515 1.526 . S
C1518 C1519 1.396 . S
C1518 C1523 1.390 . S
C1519 C1513 1.465 . S
C1519 C1518 1.396 . S
C1519 C1520 1.399 . S
C1520 H1506 0.929 . S
C1520 C1519 1.399 . S
C1520 C1521 1.385 . S
C1521 H1507 0.931 . S
C1521 C1520 1.385 . S
C1521 C1522 1.389 . S
C1522 C1521 1.389 . S
C1522 C1523 1.387 . S
C1523 H1508 0.930 . S
C1523 C1518 1.390 . S
C1523 C1522 1.387 . S
H1524 C1536 0.930 . S
H1525 C1538 0.930 . S
H1526 C1539 0.930 . S
H1527 C1543 0.959 . S
H1528 C1543 0.959 . S
H1529 C1543 0.961 . S
H1530 C1544 0.960 . S
H1531 C1544 0.961 . S
H1532 C1544 0.959 . S
H1533 C1547 0.929 . S
H1534 C1548 0.931 . S
H1535 C1550 0.930 . S
C1536 H1524 0.930 . S
C1536 C1537 1.399 . S
C1536 C1541 1.399 . S
C1537 C1536 1.399 . S
C1537 C1538 1.376 . S
C1538 H1525 0.930 . S
C1538 C1537 1.376 . S
C1538 C1539 1.388 . S
C1539 H1526 0.930 . S
C1539 C1538 1.388 . S
C1539 C1540 1.390 . S
C1540 C1539 1.390 . S
C1540 C1541 1.394 . S
C1540 C1546 1.465 . S
C1541 C1536 1.399 . S
C1541 C1540 1.394 . S
C1541 C1542 1.516 . S
C1542 C1541 1.516 . S
C1542 C1543 1.502 . S
C1542 C1544 1.561 . S
C1542 C1545 1.526 . S
C1543 H1527 0.959 . S
C1543 H1528 0.959 . S
C1543 H1529 0.961 . S
C1543 C1542 1.502 . S
C1544 H1530 0.960 . S
C1544 H1531 0.961 . S
C1544 H1532 0.959 . S
C1544 C1542 1.561 . S
C1545 C1542 1.526 . S
C1545 C1546 1.396 . S
C1545 C1550 1.390 . S
C1546 C1540 1.465 . S
C1546 C1545 1.396 . S
C1546 C1547 1.399 . S
C1547 H1533 0.929 . S
C1547 C1546 1.399 . S
C1547 C1548 1.385 . S
C1548 H1534 0.931 . S
C1548 C1547 1.385 . S
C1548 C1549 1.389 . S
C1549 C1548 1.389 . S
C1549 C1550 1.387 . S
C1550 H1535 0.930 . S
C1550 C1545 1.390 . S
C1550 C1549 1.387 . S
H1551 C1563 0.930 . S
H1552 C1565 0.930 . S
H1553 C1566 0.930 . S
H1554 C1570 0.959 . S
H1555 C1570 0.959 . S
H1556 C1570 0.961 . S
H1557 C1571 0.960 . S
H1558 C1571 0.961 . S
H1559 C1571 0.959 . S
H1560 C1574 0.929 . S
H1561 C1575 0.931 . S
H1562 C1577 0.930 . S
C1563 H1551 0.930 . S
C1563 C1564 1.399 . S
C1563 C1568 1.399 . S
C1564 C1563 1.399 . S
C1564 C1565 1.376 . S
C1565 H1552 0.930 . S
C1565 C1564 1.376 . S
C1565 C1566 1.388 . S
C1566 H1553 0.930 . S
C1566 C1565 1.388 . S
C1566 C1567 1.390 . S
C1567 C1566 1.390 . S
C1567 C1568 1.394 . S
C1567 C1573 1.465 . S
C1568 C1563 1.399 . S
C1568 C1567 1.394 . S
C1568 C1569 1.516 . S
C1569 C1568 1.516 . S
C1569 C1570 1.502 . S
C1569 C1571 1.561 . S
C1569 C1572 1.526 . S
C1570 H1554 0.959 . S
C1570 H1555 0.959 . S
C1570 H1556 0.961 . S
C1570 C1569 1.502 . S
C1571 H1557 0.960 . S
C1571 H1558 0.961 . S
C1571 H1559 0.959 . S
C1571 C1569 1.561 . S
C1572 C1569 1.526 . S
C1572 C1573 1.396 . S
C1572 C1577 1.390 . S
C1573 C1567 1.465 . S
C1573 C1572 1.396 . S
C1573 C1574 1.399 . S
C1574 H1560 0.929 . S
C1574 C1573 1.399 . S
C1574 C1575 1.385 . S
C1575 H1561 0.931 . S
C1575 C1574 1.385 . S
C1575 C1576 1.389 . S
C1576 C1575 1.389 . S
C1576 C1577 1.387 . S
C1577 H1562 0.930 . S
C1577 C1572 1.390 . S
C1577 C1576 1.387 . S
H1578 C1590 0.930 . S
H1579 C1592 0.930 . S
H1580 C1593 0.930 . S
H1581 C1597 0.959 . S
H1582 C1597 0.959 . S
H1583 C1597 0.961 . S
H1584 C1598 0.960 . S
H1585 C1598 0.961 . S
H1586 C1598 0.959 . S
H1587 C1601 0.929 . S
H1588 C1602 0.931 . S
H1589 C1604 0.930 . S
C1590 H1578 0.930 . S
C1590 C1591 1.399 . S
C1590 C1595 1.399 . S
C1591 C1590 1.399 . S
C1591 C1592 1.376 . S
C1592 H1579 0.930 . S
C1592 C1591 1.376 . S
C1592 C1593 1.388 . S
C1593 H1580 0.930 . S
C1593 C1592 1.388 . S
C1593 C1594 1.390 . S
C1594 C1593 1.390 . S
C1594 C1595 1.394 . S
C1594 C1600 1.465 . S
C1595 C1590 1.399 . S
C1595 C1594 1.394 . S
C1595 C1596 1.516 . S
C1596 C1595 1.516 . S
C1596 C1597 1.502 . S
C1596 C1598 1.561 . S
C1596 C1599 1.526 . S
C1597 H1581 0.959 . S
C1597 H1582 0.959 . S
C1597 H1583 0.961 . S
C1597 C1596 1.502 . S
C1598 H1584 0.960 . S
C1598 H1585 0.961 . S
C1598 H1586 0.959 . S
C1598 C1596 1.561 . S
C1599 C1596 1.526 . S
C1599 C1600 1.396 . S
C1599 C1604 1.390 . S
C1600 C1594 1.465 . S
C1600 C1599 1.396 . S
C1600 C1601 1.399 . S
C1601 H1587 0.929 . S
C1601 C1600 1.399 . S
C1601 C1602 1.385 . S
C1602 H1588 0.931 . S
C1602 C1601 1.385 . S
C1602 C1603 1.389 . S
C1603 C1602 1.389 . S
C1603 C1604 1.387 . S
C1604 H1589 0.930 . S
C1604 C1599 1.390 . S
C1604 C1603 1.387 . S
H1605 C1617 0.930 . S
H1606 C1619 0.930 . S
H1607 C1620 0.930 . S
H1608 C1624 0.959 . S
H1609 C1624 0.959 . S
H1610 C1624 0.961 . S
H1611 C1625 0.960 . S
H1612 C1625 0.961 . S
H1613 C1625 0.959 . S
H1614 C1628 0.929 . S
H1615 C1629 0.931 . S
H1616 C1631 0.930 . S
C1617 H1605 0.930 . S
C1617 C1618 1.399 . S
C1617 C1622 1.399 . S
C1618 C1617 1.399 . S
C1618 C1619 1.376 . S
C1619 H1606 0.930 . S
C1619 C1618 1.376 . S
C1619 C1620 1.388 . S
C1620 H1607 0.930 . S
C1620 C1619 1.388 . S
C1620 C1621 1.390 . S
C1621 C1620 1.390 . S
C1621 C1622 1.394 . S
C1621 C1627 1.465 . S
C1622 C1617 1.399 . S
C1622 C1621 1.394 . S
C1622 C1623 1.516 . S
C1623 C1622 1.516 . S
C1623 C1624 1.502 . S
C1623 C1625 1.561 . S
C1623 C1626 1.526 . S
C1624 H1608 0.959 . S
C1624 H1609 0.959 . S
C1624 H1610 0.961 . S
C1624 C1623 1.502 . S
C1625 H1611 0.960 . S
C1625 H1612 0.961 . S
C1625 H1613 0.959 . S
C1625 C1623 1.561 . S
C1626 C1623 1.526 . S
C1626 C1627 1.396 . S
C1626 C1631 1.390 . S
C1627 C1621 1.465 . S
C1627 C1626 1.396 . S
C1627 C1628 1.399 . S
C1628 H1614 0.929 . S
C1628 C1627 1.399 . S
C1628 C1629 1.385 . S
C1629 H1615 0.931 . S
C1629 C1628 1.385 . S
C1629 C1630 1.389 . S
C1630 C1629 1.389 . S
C1630 C1631 1.387 . S
C1631 H1616 0.930 . S
C1631 C1626 1.390 . S
C1631 C1630 1.387 . S
C349 C311 2.021 . S
C361 C8 1.946 . S
C376 C17 2.014 . S
C388 C232 1.897 . S
C403 C325 1.973 . S
C415 C36 1.881 . S
C430 C302 1.956 . S
C442 C50 1.962 . S
C457 C260 1.979 . S
C469 C64 1.923 . S
C484 C269 1.895 . S
C496 C73 1.984 . S
C511 C288 1.995 . S
C523 C87 1.925 . S
C538 C101 2.005 . S
C550 C241 1.824 . S
C565 C185 2.039 . S
C577 C115 1.876 . S
C592 C204 1.895 . S
C604 C134 1.996 . S
C619 C143 1.888 . S
C631 C213 2.046 . S
C646 C162 1.963 . S
C658 C176 1.936 . S
C673 C106 1.984 . S
C685 C199 2.001 . S
C700 C218 1.910 . S
C712 C59 1.998 . S
C727 C78 1.933 . S
C739 C171 1.945 . S
C754 C190 1.901 . S
C766 C92 2.006 . S
C781 C148 1.964 . S
C793 C22 1.934 . S
C808 C31 2.025 . S
C820 C157 1.812 . S
C835 C45 1.929 . S
C847 C120 1.994 . S
C862 C3 1.959 . S
C874 C129 1.883 . S
C889 C283 1.897 . S
C901 C297 2.010 . S
C916 C316 1.934 . S
C928 C246 1.963 . S
C943 C255 1.944 . S
C955 C227 2.008 . S
C970 C330 1.948 . S
C982 C274 1.953 . S
C997 C9 0.706 . S
C1009 C121 0.942 . S
C1024 C133 0.803 . S
C1036 C21 0.848 . S
C1051 C37 0.898 . S
C1063 C149 0.761 . S
C1078 C51 0.786 . S
C1090 C161 0.892 . S
C1105 C65 0.903 . S
C1117 C175 0.856 . S
C1132 C77 0.913 . S
C1144 C191 0.878 . S
C1159 C203 0.812 . S
C1171 C91 0.714 . S
C1186 C219 0.709 . S
C1198 C105 0.858 . S
C1213 C119 0.766 . S
C1225 C231 0.873 . S
C1240 C135 0.763 . S
C1252 C331 0.881 . S
C1267 C301 0.912 . S
C1279 C147 0.814 . S
C1294 C317 0.905 . S
C1306 C163 0.787 . S
C1321 C247 0.897 . S
C1333 C177 0.728 . S
C1348 C259 0.786 . S
C1360 C189 0.901 . S
C1375 C205 0.839 . S
C1387 C275 0.843 . S
C1402 C217 0.909 . S
C1414 C287 0.871 . S
C1429 C7 0.851 . S
C1441 C233 0.736 . S
C1456 C245 0.748 . S
C1468 C63 0.828 . S
C1483 C261 0.815 . S
C1495 C79 0.707 . S
C1510 C273 0.920 . S
C1522 C93 0.828 . S
C1537 C289 0.856 . S
C1549 C107 0.940 . S
C1564 C303 0.690 . S
C1576 C35 0.848 . S
C1591 C49 0.785 . S
C1603 C315 0.841 . S
C1618 C329 0.847 . S
C1630 C23 0.720 . S
