# Generated by pormake.
# Topology pcu-i, (5)-cn, num edge types: 1
# Building blocks:
#     Node 0, Type 0, BuildingBlock: BEQFEK_clean_sbu_0, # of connection points: 5
#     Node 1, Type 0, BuildingBlock: BEQFEK_clean_sbu_0, # of connection points: 5
#     Node 2, Type 0, BuildingBlock: BEQFEK_clean_sbu_0, # of connection points: 5
#     Node 3, Type 0, BuildingBlock: BEQFEK_clean_sbu_0, # of connection points: 5
#     Node 4, Type 0, BuildingBlock: BEQFEK_clean_sbu_0, # of connection points: 5
#     Node 5, Type 0, BuildingBlock: BEQFEK_clean_sbu_0, # of connection points: 5
#     Node 6, Type 0, BuildingBlock: BEQFEK_clean_sbu_0, # of connection points: 5
#     Node 7, Type 0, BuildingBlock: BEQFEK_clean_sbu_0, # of connection points: 5
#     Node 8, Type 0, BuildingBlock: BEQFEK_clean_sbu_0, # of connection points: 5
#     Node 9, Type 0, BuildingBlock: BEQFEK_clean_sbu_0, # of connection points: 5
#     Node 10, Type 0, BuildingBlock: BEQFEK_clean_sbu_0, # of connection points: 5
#     Node 11, Type 0, BuildingBlock: BEQFEK_clean_sbu_0, # of connection points: 5
#     Node 12, Type 0, BuildingBlock: BEQFEK_clean_sbu_0, # of connection points: 5
#     Node 13, Type 0, BuildingBlock: BEQFEK_clean_sbu_0, # of connection points: 5
#     Node 14, Type 0, BuildingBlock: BEQFEK_clean_sbu_0, # of connection points: 5
#     Node 15, Type 0, BuildingBlock: BEQFEK_clean_sbu_0, # of connection points: 5
#     Node 16, Type 0, BuildingBlock: BEQFEK_clean_sbu_0, # of connection points: 5
#     Node 17, Type 0, BuildingBlock: BEQFEK_clean_sbu_0, # of connection points: 5
#     Node 18, Type 0, BuildingBlock: BEQFEK_clean_sbu_0, # of connection points: 5
#     Node 19, Type 0, BuildingBlock: BEQFEK_clean_sbu_0, # of connection points: 5
#     Node 20, Type 0, BuildingBlock: BEQFEK_clean_sbu_0, # of connection points: 5
#     Node 21, Type 0, BuildingBlock: BEQFEK_clean_sbu_0, # of connection points: 5
#     Node 22, Type 0, BuildingBlock: BEQFEK_clean_sbu_0, # of connection points: 5
#     Node 23, Type 0, BuildingBlock: BEQFEK_clean_sbu_0, # of connection points: 5
#     Edge 24, Type (0, 0), BuildingBlock: MIFKUJ_clean_linker_0, # of connection points: 2
#     Edge 25, Type (0, 0), BuildingBlock: MIFKUJ_clean_linker_0, # of connection points: 2
#     Edge 26, Type (0, 0), BuildingBlock: MIFKUJ_clean_linker_0, # of connection points: 2
#     Edge 27, Type (0, 0), BuildingBlock: MIFKUJ_clean_linker_0, # of connection points: 2
#     Edge 28, Type (0, 0), BuildingBlock: MIFKUJ_clean_linker_0, # of connection points: 2
#     Edge 29, Type (0, 0), BuildingBlock: MIFKUJ_clean_linker_0, # of connection points: 2
#     Edge 30, Type (0, 0), BuildingBlock: MIFKUJ_clean_linker_0, # of connection points: 2
#     Edge 31, Type (0, 0), BuildingBlock: MIFKUJ_clean_linker_0, # of connection points: 2
#     Edge 32, Type (0, 0), BuildingBlock: MIFKUJ_clean_linker_0, # of connection points: 2
#     Edge 33, Type (0, 0), BuildingBlock: MIFKUJ_clean_linker_0, # of connection points: 2
#     Edge 34, Type (0, 0), BuildingBlock: MIFKUJ_clean_linker_0, # of connection points: 2
#     Edge 35, Type (0, 0), BuildingBlock: MIFKUJ_clean_linker_0, # of connection points: 2
#     Edge 36, Type (0, 0), BuildingBlock: MIFKUJ_clean_linker_0, # of connection points: 2
#     Edge 37, Type (0, 0), BuildingBlock: MIFKUJ_clean_linker_0, # of connection points: 2
#     Edge 38, Type (0, 0), BuildingBlock: MIFKUJ_clean_linker_0, # of connection points: 2
#     Edge 39, Type (0, 0), BuildingBlock: MIFKUJ_clean_linker_0, # of connection points: 2
#     Edge 40, Type (0, 0), BuildingBlock: MIFKUJ_clean_linker_0, # of connection points: 2
#     Edge 41, Type (0, 0), BuildingBlock: MIFKUJ_clean_linker_0, # of connection points: 2
#     Edge 42, Type (0, 0), BuildingBlock: MIFKUJ_clean_linker_0, # of connection points: 2
#     Edge 43, Type (0, 0), BuildingBlock: MIFKUJ_clean_linker_0, # of connection points: 2
#     Edge 44, Type (0, 0), BuildingBlock: MIFKUJ_clean_linker_0, # of connection points: 2
#     Edge 45, Type (0, 0), BuildingBlock: MIFKUJ_clean_linker_0, # of connection points: 2
#     Edge 46, Type (0, 0), BuildingBlock: MIFKUJ_clean_linker_0, # of connection points: 2
#     Edge 47, Type (0, 0), BuildingBlock: MIFKUJ_clean_linker_0, # of connection points: 2
#     Edge 48, Type (0, 0), BuildingBlock: MIFKUJ_clean_linker_0, # of connection points: 2
#     Edge 49, Type (0, 0), BuildingBlock: MIFKUJ_clean_linker_0, # of connection points: 2
#     Edge 50, Type (0, 0), BuildingBlock: MIFKUJ_clean_linker_0, # of connection points: 2
#     Edge 51, Type (0, 0), BuildingBlock: MIFKUJ_clean_linker_0, # of connection points: 2
#     Edge 52, Type (0, 0), BuildingBlock: MIFKUJ_clean_linker_0, # of connection points: 2
#     Edge 53, Type (0, 0), BuildingBlock: MIFKUJ_clean_linker_0, # of connection points: 2
#     Edge 54, Type (0, 0), BuildingBlock: MIFKUJ_clean_linker_0, # of connection points: 2
#     Edge 55, Type (0, 0), BuildingBlock: MIFKUJ_clean_linker_0, # of connection points: 2
#     Edge 56, Type (0, 0), BuildingBlock: MIFKUJ_clean_linker_0, # of connection points: 2
#     Edge 57, Type (0, 0), BuildingBlock: MIFKUJ_clean_linker_0, # of connection points: 2
#     Edge 58, Type (0, 0), BuildingBlock: MIFKUJ_clean_linker_0, # of connection points: 2
#     Edge 59, Type (0, 0), BuildingBlock: MIFKUJ_clean_linker_0, # of connection points: 2
#     Edge 60, Type (0, 0), BuildingBlock: MIFKUJ_clean_linker_0, # of connection points: 2
#     Edge 61, Type (0, 0), BuildingBlock: MIFKUJ_clean_linker_0, # of connection points: 2
#     Edge 62, Type (0, 0), BuildingBlock: MIFKUJ_clean_linker_0, # of connection points: 2
#     Edge 63, Type (0, 0), BuildingBlock: MIFKUJ_clean_linker_0, # of connection points: 2
#     Edge 64, Type (0, 0), BuildingBlock: MIFKUJ_clean_linker_0, # of connection points: 2
#     Edge 65, Type (0, 0), BuildingBlock: MIFKUJ_clean_linker_0, # of connection points: 2
#     Edge 66, Type (0, 0), BuildingBlock: MIFKUJ_clean_linker_0, # of connection points: 2
#     Edge 67, Type (0, 0), BuildingBlock: MIFKUJ_clean_linker_0, # of connection points: 2
#     Edge 68, Type (0, 0), BuildingBlock: MIFKUJ_clean_linker_0, # of connection points: 2
#     Edge 69, Type (0, 0), BuildingBlock: MIFKUJ_clean_linker_0, # of connection points: 2
#     Edge 70, Type (0, 0), BuildingBlock: MIFKUJ_clean_linker_0, # of connection points: 2
#     Edge 71, Type (0, 0), BuildingBlock: MIFKUJ_clean_linker_0, # of connection points: 2
#     Edge 72, Type (0, 0), BuildingBlock: MIFKUJ_clean_linker_0, # of connection points: 2
#     Edge 73, Type (0, 0), BuildingBlock: MIFKUJ_clean_linker_0, # of connection points: 2
#     Edge 74, Type (0, 0), BuildingBlock: MIFKUJ_clean_linker_0, # of connection points: 2
#     Edge 75, Type (0, 0), BuildingBlock: MIFKUJ_clean_linker_0, # of connection points: 2
#     Edge 76, Type (0, 0), BuildingBlock: MIFKUJ_clean_linker_0, # of connection points: 2
#     Edge 77, Type (0, 0), BuildingBlock: MIFKUJ_clean_linker_0, # of connection points: 2
#     Edge 78, Type (0, 0), BuildingBlock: MIFKUJ_clean_linker_0, # of connection points: 2
#     Edge 79, Type (0, 0), BuildingBlock: MIFKUJ_clean_linker_0, # of connection points: 2
#     Edge 80, Type (0, 0), BuildingBlock: MIFKUJ_clean_linker_0, # of connection points: 2
#     Edge 81, Type (0, 0), BuildingBlock: MIFKUJ_clean_linker_0, # of connection points: 2
#     Edge 82, Type (0, 0), BuildingBlock: MIFKUJ_clean_linker_0, # of connection points: 2
#     Edge 83, Type (0, 0), BuildingBlock: MIFKUJ_clean_linker_0, # of connection points: 2
# Relax obj value: 0.229
# Max RMSD: 0.180
# Mean RMSD: 0.180
data_MOF--net-pcu-i--node1-BEQFEK_clean_sbu_0--edge1-MIFKUJ_clean_linker_0
_symmetry_space_group_name_H-M    P1
_symmetry_Int_Tables_number       1
_symmetry_cell_setting            triclinic
loop_
_symmetry_equiv_pos_as_xyz
'x, y, z'
_cell_length_a     71.54297
_cell_length_b     71.616633
_cell_length_c     71.588905
_cell_angle_alpha  89.999441
_cell_angle_beta   90.031761
_cell_angle_gamma 89.99118
loop_
_atom_site_label
_atom_site_type_symbol
_atom_site_fract_x
_atom_site_fract_y
_atom_site_fract_z
_atom_type_partial_charge
Co0 Co 0.14215 0.11896 0.37273 0.0
Co1 Co 0.14507 0.16168 0.36515 0.0
C2 C 0.10824 0.14195 0.36577 0.0
O3 O 0.11599 0.12625 0.36864 0.0
O4 O 0.11776 0.15689 0.3645 0.0
C5 C 0.12931 0.08173 0.37915 0.0
O6 O 0.11367 0.08999 0.38407 0.0
C7 C 0.14133 0.19497 0.34277 0.0
C8 C 0.15816 0.21569 0.3583 0.0
C9 C 0.14709 0.21349 0.34254 0.0
N10 N 0.14859 0.18677 0.35794 0.0
N11 N 0.15852 0.19919 0.36729 0.0
C12 C 0.13034 0.18456 0.32833 0.0
H13 H 0.13274 0.16931 0.32965 0.0
H14 H 0.13425 0.18921 0.31407 0.0
H15 H 0.11522 0.18724 0.33049 0.0
C16 C 0.169 0.11776 0.34171 0.0
N17 N 0.1571 0.12716 0.35277 0.0
N18 N 0.15856 0.14516 0.3494 0.0
C19 C 0.17168 0.14781 0.33616 0.0
C20 C 0.17858 0.1305 0.3308 0.0
C21 C 0.17189 0.09708 0.34244 0.0
H22 H 0.17769 0.09321 0.35629 0.0
H23 H 0.15823 0.08992 0.34082 0.0
H24 H 0.18151 0.09223 0.3313 0.0
O25 O 0.1518 0.12906 0.3966 0.0
O26 O 0.15452 0.15936 0.39066 0.0
H27 H 0.18111 0.17534 0.34327 0.0
H28 H 0.19296 0.16521 0.32342 0.0
C29 C 0.17933 0.16649 0.33069 0.0
H30 H 0.1693 0.1735 0.32118 0.0
H31 H 0.16567 0.19637 0.37967 0.0
O32 O 0.14319 0.09157 0.37414 0.0
C33 C 0.15643 0.1455 0.40157 0.0
Co34 Co 0.87079 0.14676 0.37679 0.0
Co35 Co 0.82832 0.14649 0.36647 0.0
C36 C 0.84923 0.11113 0.37084 0.0
O37 O 0.86394 0.12011 0.37517 0.0
O38 O 0.83415 0.11955 0.36665 0.0
C39 C 0.90791 0.13648 0.36918 0.0
O40 O 0.89929 0.12415 0.35867 0.0
C41 C 0.79492 0.14107 0.34403 0.0
C42 C 0.77528 0.16148 0.35637 0.0
C43 C 0.77701 0.14828 0.34232 0.0
N44 N 0.80334 0.14961 0.35841 0.0
N45 N 0.79148 0.1616 0.36592 0.0
C46 C 0.80469 0.1278 0.33115 0.0
H47 H 0.82008 0.12936 0.33239 0.0
H48 H 0.80036 0.13024 0.31645 0.0
H49 H 0.80093 0.11328 0.33501 0.0
C50 C 0.872 0.17219 0.34459 0.0
N51 N 0.86284 0.16001 0.35555 0.0
N52 N 0.84501 0.15992 0.35099 0.0
C53 C 0.84232 0.17203 0.33683 0.0
C54 C 0.85934 0.18 0.33229 0.0
C55 C 0.89201 0.17772 0.3472 0.0
H56 H 0.89466 0.1809 0.36214 0.0
H57 H 0.90112 0.16587 0.34312 0.0
H58 H 0.89574 0.19002 0.33855 0.0
O59 O 0.85955 0.15764 0.39937 0.0
O60 O 0.8294 0.15625 0.39211 0.0
H61 H 0.8144 0.18193 0.34115 0.0
H62 H 0.82467 0.18939 0.31932 0.0
C63 C 0.82357 0.17768 0.32942 0.0
H64 H 0.81705 0.16562 0.32226 0.0
H65 H 0.79465 0.17025 0.37722 0.0
O66 O 0.89828 0.14799 0.37865 0.0
C67 C 0.84244 0.16032 0.40348 0.0
Co68 Co 0.85431 0.87379 0.37199 0.0
Co69 Co 0.85384 0.83039 0.36929 0.0
C70 C 0.88968 0.8522 0.36987 0.0
O71 O 0.8812 0.86779 0.37056 0.0
O72 O 0.88074 0.83685 0.36962 0.0
C73 C 0.86274 0.91161 0.37949 0.0
O74 O 0.87636 0.90415 0.3893 0.0
C75 C 0.85846 0.79629 0.34835 0.0
C76 C 0.84116 0.7761 0.36403 0.0
C77 C 0.85159 0.77822 0.34787 0.0
N78 N 0.85194 0.80464 0.36378 0.0
N79 N 0.84192 0.79243 0.37334 0.0
C80 C 0.87097 0.80568 0.33443 0.0
H81 H 0.88155 0.81425 0.34178 0.0
H82 H 0.86262 0.81521 0.32553 0.0
H83 H 0.8782 0.79531 0.32546 0.0
C84 C 0.82977 0.87023 0.33925 0.0
N85 N 0.84129 0.86275 0.35208 0.0
N86 N 0.84039 0.84442 0.35116 0.0
C87 C 0.82786 0.83967 0.33789 0.0
C88 C 0.82103 0.85586 0.32977 0.0
C89 C 0.82617 0.89071 0.33719 0.0
H90 H 0.81889 0.8959 0.34986 0.0
H91 H 0.83967 0.89823 0.33602 0.0
H92 H 0.81749 0.89374 0.3247 0.0
O93 O 0.84315 0.86558 0.39593 0.0
O94 O 0.84283 0.83463 0.39393 0.0
H95 H 0.81944 0.81298 0.34879 0.0
H96 H 0.80578 0.82088 0.32916 0.0
C97 C 0.82004 0.82043 0.33525 0.0
H98 H 0.82909 0.81252 0.32552 0.0
H99 H 0.83493 0.79549 0.38574 0.0
O100 O 0.85151 0.90103 0.37077 0.0
C101 C 0.83921 0.84962 0.40273 0.0
Co102 Co 0.12669 0.84538 0.36637 0.0
Co103 Co 0.17008 0.84921 0.36313 0.0
C104 C 0.14596 0.88271 0.36533 0.0
O105 O 0.13144 0.87256 0.36665 0.0
O106 O 0.16213 0.87553 0.36362 0.0
C107 C 0.08962 0.85328 0.35469 0.0
O108 O 0.09803 0.86658 0.34525 0.0
C109 C 0.20648 0.85856 0.34762 0.0
C110 C 0.22495 0.83812 0.36159 0.0
C111 C 0.22485 0.85244 0.34857 0.0
N112 N 0.19626 0.84834 0.35951 0.0
N113 N 0.2074 0.83638 0.3681 0.0
C114 C 0.19824 0.87228 0.33414 0.0
H115 H 0.18291 0.87022 0.33292 0.0
H116 H 0.20478 0.87079 0.32016 0.0
H117 H 0.20091 0.88665 0.33926 0.0
C118 C 0.13275 0.82109 0.3338 0.0
N119 N 0.13901 0.83369 0.34624 0.0
N120 N 0.15722 0.83553 0.34445 0.0
C121 C 0.16313 0.82432 0.33053 0.0
C122 C 0.14782 0.81476 0.32336 0.0
C123 C 0.11336 0.81318 0.33418 0.0
H124 H 0.10886 0.81108 0.34885 0.0
H125 H 0.10364 0.82328 0.32757 0.0
H126 H 0.11241 0.79966 0.32671 0.0
O127 O 0.13498 0.8343 0.39012 0.0
O128 O 0.16568 0.83778 0.38767 0.0
H129 H 0.1912 0.81614 0.33691 0.0
H130 H 0.18468 0.81262 0.3127 0.0
C131 C 0.18317 0.82193 0.32499 0.0
H132 H 0.18916 0.8357 0.32136 0.0
H133 H 0.20289 0.82658 0.3779 0.0
O134 O 0.09935 0.84213 0.36449 0.0
C135 C 0.15139 0.83234 0.3967 0.0
Co136 Co 0.14559 0.87222 0.62023 0.0
Co137 Co 0.14551 0.8296 0.62956 0.0
C138 C 0.1104 0.85165 0.62944 0.0
O139 O 0.11892 0.8663 0.62422 0.0
O140 O 0.11903 0.83649 0.63255 0.0
C141 C 0.13888 0.90867 0.63172 0.0
O142 O 0.13033 0.89939 0.64505 0.0
C143 C 0.14259 0.79752 0.65415 0.0
C144 C 0.15465 0.77474 0.63713 0.0
C145 C 0.14688 0.77868 0.6544 0.0
N146 N 0.14786 0.80452 0.63759 0.0
N147 N 0.15498 0.79085 0.62742 0.0
C148 C 0.13261 0.8085 0.66893 0.0
H149 H 0.12739 0.82192 0.66333 0.0
H150 H 0.1423 0.81167 0.68058 0.0
H151 H 0.12083 0.80021 0.67468 0.0
C152 C 0.17505 0.8719 0.64934 0.0
N153 N 0.16126 0.86343 0.63969 0.0
N154 N 0.16155 0.84542 0.64337 0.0
C155 C 0.17561 0.84184 0.65539 0.0
C156 C 0.1844 0.85851 0.6597 0.0
C157 C 0.17984 0.8922 0.64785 0.0
H158 H 0.18054 0.89635 0.63295 0.0
H159 H 0.16875 0.90051 0.65474 0.0
H160 H 0.19329 0.89554 0.65478 0.0
O161 O 0.15366 0.86105 0.59641 0.0
O162 O 0.1523 0.8307 0.60295 0.0
H163 H 0.18162 0.81341 0.64792 0.0
H164 H 0.19721 0.82301 0.6652 0.0
C165 C 0.18251 0.82269 0.66026 0.0
H166 H 0.17377 0.81682 0.67159 0.0
H167 H 0.16009 0.79253 0.61387 0.0
O168 O 0.14698 0.89965 0.61877 0.0
C169 C 0.1554 0.84401 0.59157 0.0
Co170 Co 0.12704 0.1437 0.6212 0.0
Co171 Co 0.16958 0.14421 0.63123 0.0
C172 C 0.14752 0.10857 0.62917 0.0
O173 O 0.1325 0.11706 0.62496 0.0
O174 O 0.16269 0.11741 0.63191 0.0
C175 C 0.08986 0.13378 0.61094 0.0
O176 O 0.09794 0.11864 0.60445 0.0
C177 C 0.20026 0.13981 0.65739 0.0
C178 C 0.22392 0.15302 0.64257 0.0
C179 C 0.21906 0.14413 0.65906 0.0
N180 N 0.19421 0.14611 0.64081 0.0
N181 N 0.2084 0.15392 0.63195 0.0
C182 C 0.18843 0.12898 0.67085 0.0
H183 H 0.17602 0.12303 0.66379 0.0
H184 H 0.18337 0.13834 0.68208 0.0
H185 H 0.19673 0.11763 0.6774 0.0
C186 C 0.12568 0.1703 0.65246 0.0
N187 N 0.13501 0.15799 0.64175 0.0
N188 N 0.15298 0.15901 0.64554 0.0
C189 C 0.15571 0.17244 0.65844 0.0
C190 C 0.13848 0.17972 0.6634 0.0
C191 C 0.10521 0.17425 0.65082 0.0
H192 H 0.10221 0.17994 0.63671 0.0
H193 H 0.09725 0.16105 0.65241 0.0
H194 H 0.10049 0.18443 0.66152 0.0
O195 O 0.13933 0.15268 0.59823 0.0
O196 O 0.1696 0.15309 0.60527 0.0
H197 H 0.18402 0.18007 0.65203 0.0
H198 H 0.17331 0.1941 0.6701 0.0
C199 C 0.17444 0.17982 0.66418 0.0
H200 H 0.18048 0.17062 0.67505 0.0
H201 H 0.20748 0.15989 0.61869 0.0
O202 O 0.09982 0.14647 0.6183 0.0
C203 C 0.15629 0.15585 0.5938 0.0
Co204 Co 0.8545 0.11914 0.62407 0.0
Co205 Co 0.85478 0.1621 0.631 0.0
C206 C 0.89021 0.14037 0.62771 0.0
O207 O 0.88131 0.12527 0.62501 0.0
O208 O 0.88164 0.15567 0.63042 0.0
C209 C 0.86345 0.08249 0.63425 0.0
O210 O 0.87438 0.0915 0.64594 0.0
C211 C 0.859 0.19418 0.65504 0.0
C212 C 0.84476 0.21665 0.63934 0.0
C213 C 0.85365 0.21271 0.65607 0.0
N214 N 0.85315 0.18731 0.63864 0.0
N215 N 0.84487 0.20082 0.62916 0.0
C216 C 0.86983 0.18316 0.66918 0.0
H217 H 0.87826 0.17222 0.66221 0.0
H218 H 0.86006 0.1761 0.67888 0.0
H219 H 0.87912 0.19244 0.67744 0.0
C220 C 0.82857 0.12031 0.65603 0.0
N221 N 0.84132 0.1285 0.6449 0.0
N222 N 0.84072 0.1467 0.64738 0.0
C223 C 0.8272 0.1507 0.65987 0.0
C224 C 0.8193 0.1341 0.66592 0.0
C225 C 0.82422 0.09986 0.65591 0.0
H226 H 0.83683 0.09198 0.66024 0.0
H227 H 0.81272 0.0963 0.66565 0.0
H228 H 0.82043 0.09543 0.64155 0.0
O229 O 0.84325 0.1294 0.60099 0.0
O230 O 0.84421 0.16006 0.60585 0.0
H231 H 0.80448 0.16921 0.66759 0.0
H232 H 0.82738 0.17711 0.67391 0.0
C233 C 0.81925 0.16984 0.66294 0.0
H234 H 0.81991 0.17807 0.64986 0.0
H235 H 0.83888 0.19912 0.61598 0.0
O236 O 0.85302 0.09173 0.62327 0.0
C237 C 0.84007 0.14609 0.59568 0.0
Co238 Co 0.87357 0.84608 0.62052 0.0
Co239 Co 0.83194 0.84893 0.63358 0.0
C240 C 0.85581 0.88238 0.63249 0.0
O241 O 0.86927 0.87282 0.62596 0.0
O242 O 0.84028 0.87489 0.63668 0.0
C243 C 0.91029 0.84927 0.63161 0.0
O244 O 0.90145 0.85525 0.64654 0.0
C245 C 0.79918 0.85617 0.65665 0.0
C246 C 0.77841 0.83649 0.64497 0.0
C247 C 0.78095 0.84992 0.65865 0.0
N248 N 0.80712 0.84667 0.64259 0.0
N249 N 0.79463 0.83503 0.63556 0.0
C250 C 0.80864 0.87189 0.66671 0.0
H251 H 0.81096 0.88346 0.6567 0.0
H252 H 0.82252 0.86722 0.67182 0.0
H253 H 0.80022 0.87743 0.67843 0.0
C254 C 0.87361 0.81632 0.64941 0.0
N255 N 0.86528 0.83041 0.64011 0.0
N256 N 0.84804 0.83232 0.64627 0.0
C257 C 0.84508 0.81997 0.66013 0.0
C258 C 0.86118 0.80954 0.66254 0.0
C259 C 0.89277 0.80897 0.64535 0.0
H260 H 0.89604 0.8105 0.6303 0.0
H261 H 0.90314 0.81698 0.65363 0.0
H262 H 0.89408 0.79408 0.64938 0.0
O263 O 0.86049 0.83966 0.5973 0.0
O264 O 0.83105 0.84278 0.6067 0.0
H265 H 0.81602 0.81306 0.65943 0.0
H266 H 0.82757 0.80624 0.68074 0.0
C267 C 0.82675 0.81719 0.66982 0.0
H268 H 0.82229 0.83051 0.67633 0.0
H269 H 0.79722 0.826 0.62442 0.0
O270 O 0.90085 0.84392 0.61755 0.0
C271 C 0.84299 0.83926 0.59401 0.0
Co272 Co 0.37544 0.14851 0.12349 0.0
Co273 Co 0.36375 0.14208 0.16504 0.0
C274 C 0.36317 0.11105 0.13825 0.0
O275 O 0.36994 0.1213 0.12544 0.0
O276 O 0.35956 0.11739 0.15438 0.0
C277 C 0.36371 0.14978 0.08646 0.0
O278 O 0.34829 0.14388 0.0945 0.0
C279 C 0.34161 0.13187 0.19765 0.0
C280 C 0.35268 0.15096 0.21927 0.0
C281 C 0.33931 0.13736 0.21606 0.0
N282 N 0.35547 0.14205 0.19019 0.0
N283 N 0.36224 0.15322 0.20324 0.0
C284 C 0.33129 0.11687 0.18731 0.0
H285 H 0.34133 0.10583 0.18312 0.0
H286 H 0.3251 0.12276 0.17437 0.0
H287 H 0.32028 0.11025 0.19594 0.0
C288 C 0.34717 0.17859 0.1271 0.0
N289 N 0.3562 0.16347 0.13372 0.0
N290 N 0.3507 0.16025 0.15096 0.0
C291 C 0.33739 0.17272 0.15559 0.0
C292 C 0.33481 0.18481 0.14066 0.0
C293 C 0.35221 0.18849 0.10937 0.0
H294 H 0.36709 0.18602 0.10584 0.0
H295 H 0.34331 0.18318 0.09785 0.0
H296 H 0.34983 0.20376 0.11066 0.0
O297 O 0.39883 0.15455 0.13637 0.0
O298 O 0.39083 0.14787 0.1657 0.0
H299 H 0.33682 0.17795 0.18498 0.0
H300 H 0.3147 0.18195 0.17339 0.0
C301 C 0.32726 0.17289 0.17388 0.0
H302 H 0.32278 0.15854 0.17744 0.0
H303 H 0.37306 0.16275 0.20104 0.0
O304 O 0.37794 0.15324 0.0965 0.0
C305 C 0.40279 0.15315 0.15364 0.0
Co306 Co 0.85443 0.37379 0.12226 0.0
Co307 Co 0.85537 0.36658 0.16531 0.0
C308 C 0.89043 0.37101 0.14308 0.0
O309 O 0.88146 0.37309 0.12789 0.0
O310 O 0.882 0.36856 0.1585 0.0
C311 C 0.86372 0.36784 0.0842 0.0
O312 O 0.87835 0.35951 0.09152 0.0
C313 C 0.86239 0.34399 0.19817 0.0
C314 C 0.84324 0.35636 0.219 0.0
C315 C 0.85559 0.34173 0.21616 0.0
N316 N 0.85399 0.35889 0.19055 0.0
N317 N 0.84284 0.36648 0.20316 0.0
C318 C 0.87671 0.33237 0.18824 0.0
H319 H 0.88612 0.34142 0.17998 0.0
H320 H 0.86962 0.32274 0.17839 0.0
H321 H 0.88526 0.32417 0.19824 0.0
C322 C 0.83059 0.34031 0.12335 0.0
N323 N 0.84226 0.35247 0.13166 0.0
N324 N 0.8423 0.34946 0.14979 0.0
C325 C 0.83045 0.33533 0.15362 0.0
C326 C 0.8228 0.32902 0.13697 0.0
C327 C 0.82603 0.34043 0.10294 0.0
H328 H 0.83908 0.33865 0.0948 0.0
H329 H 0.8162 0.32906 0.09915 0.0
H330 H 0.81982 0.35411 0.09913 0.0
O331 O 0.84288 0.39649 0.13299 0.0
O332 O 0.84377 0.3912 0.16357 0.0
H333 H 0.82172 0.34279 0.18128 0.0
H334 H 0.81119 0.32165 0.17264 0.0
C335 C 0.82421 0.33004 0.17288 0.0
H336 H 0.83528 0.32168 0.17974 0.0
H337 H 0.83442 0.37811 0.2007 0.0
O338 O 0.85149 0.37496 0.0949 0.0
C339 C 0.83949 0.40147 0.14974 0.0
Co340 Co 0.62122 0.85131 0.12251 0.0
Co341 Co 0.6317 0.85001 0.16484 0.0
C342 C 0.63168 0.88577 0.14418 0.0
O343 O 0.62623 0.87744 0.12949 0.0
O344 O 0.63493 0.87683 0.15917 0.0
C345 C 0.63316 0.8585 0.08644 0.0
O346 O 0.64723 0.86526 0.09612 0.0
C347 C 0.65615 0.85237 0.19692 0.0
C348 C 0.64243 0.83401 0.21761 0.0
C349 C 0.65814 0.84489 0.21463 0.0
N350 N 0.64018 0.84592 0.18957 0.0
N351 N 0.63186 0.83516 0.20206 0.0
C352 C 0.66886 0.86574 0.18704 0.0
H353 H 0.66234 0.87978 0.18721 0.0
H354 H 0.67044 0.86155 0.1722 0.0
H355 H 0.68275 0.86678 0.19382 0.0
C356 C 0.64888 0.82087 0.12109 0.0
N357 N 0.64033 0.83495 0.13018 0.0
N358 N 0.64512 0.83454 0.14793 0.0
C359 C 0.65714 0.8203 0.15063 0.0
C360 C 0.65981 0.81119 0.13374 0.0
C361 C 0.6444 0.81507 0.10148 0.0
H362 H 0.62931 0.8171 0.09863 0.0
H363 H 0.65253 0.82384 0.09163 0.0
H364 H 0.64807 0.80023 0.09895 0.0
O365 O 0.59757 0.84332 0.13376 0.0
O366 O 0.60481 0.84347 0.16399 0.0
H367 H 0.65376 0.81132 0.17898 0.0
H368 H 0.67495 0.80289 0.16805 0.0
C369 C 0.66521 0.81488 0.16917 0.0
H370 H 0.67315 0.8268 0.17496 0.0
H371 H 0.61925 0.8282 0.19977 0.0
O372 O 0.61944 0.85129 0.09509 0.0
C373 C 0.59309 0.84096 0.15082 0.0
Co374 Co 0.14206 0.6254 0.12078 0.0
Co375 Co 0.14127 0.63102 0.16393 0.0
C376 C 0.10634 0.63238 0.14171 0.0
O377 O 0.11526 0.6294 0.12663 0.0
O378 O 0.11476 0.6334 0.15729 0.0
C379 C 0.13835 0.64061 0.08473 0.0
O380 O 0.13174 0.65478 0.09434 0.0
C381 C 0.13548 0.6493 0.19957 0.0
C382 C 0.15283 0.6323 0.21867 0.0
C383 C 0.14112 0.64773 0.21809 0.0
N384 N 0.14352 0.6355 0.18982 0.0
N385 N 0.15364 0.62519 0.2013 0.0
C386 C 0.12419 0.66451 0.19063 0.0
H387 H 0.12628 0.66453 0.17527 0.0
H388 H 0.12818 0.67835 0.19636 0.0
H389 H 0.10915 0.66207 0.19347 0.0
C390 C 0.17201 0.65381 0.12444 0.0
N391 N 0.1576 0.64403 0.13156 0.0
N392 N 0.15665 0.64707 0.14968 0.0
C393 C 0.17018 0.65918 0.15461 0.0
C394 C 0.1804 0.66376 0.13878 0.0
C395 C 0.17946 0.65127 0.10505 0.0
H396 H 0.17726 0.6367 0.10032 0.0
H397 H 0.17195 0.66083 0.09544 0.0
H398 H 0.19461 0.65453 0.10432 0.0
O399 O 0.15029 0.60059 0.12957 0.0
O400 O 0.14986 0.60541 0.16021 0.0
H401 H 0.17816 0.65332 0.18285 0.0
H402 H 0.18477 0.67643 0.17492 0.0
C403 C 0.17385 0.66546 0.17424 0.0
H404 H 0.1609 0.67133 0.18024 0.0
H405 H 0.16141 0.61358 0.19721 0.0
O406 O 0.14391 0.62614 0.09336 0.0
C407 C 0.15305 0.59498 0.14622 0.0
Co408 Co 0.37163 0.85088 0.87126 0.0
Co409 Co 0.36802 0.85597 0.82803 0.0
C410 C 0.3683 0.88865 0.85382 0.0
O411 O 0.3698 0.8783 0.86816 0.0
O412 O 0.36753 0.88175 0.8375 0.0
C413 C 0.3581 0.85531 0.90764 0.0
O414 O 0.34667 0.86655 0.8987 0.0
C415 C 0.34665 0.8643 0.7948 0.0
C416 C 0.36296 0.85069 0.7724 0.0
C417 C 0.34645 0.86019 0.77589 0.0
N418 N 0.36227 0.85711 0.80223 0.0
N419 N 0.37218 0.84931 0.78876 0.0
C420 C 0.33233 0.87492 0.80579 0.0
H421 H 0.33931 0.88414 0.81606 0.0
H422 H 0.32345 0.86503 0.81372 0.0
H423 H 0.32336 0.88353 0.79652 0.0
C424 C 0.34051 0.82471 0.86458 0.0
N425 N 0.35212 0.83831 0.85876 0.0
N426 N 0.35082 0.83998 0.84049 0.0
C427 C 0.33847 0.82726 0.83408 0.0
C428 C 0.33143 0.81739 0.84915 0.0
C429 C 0.33924 0.81793 0.88433 0.0
H430 H 0.3534 0.81436 0.88953 0.0
H431 H 0.33354 0.82925 0.8932 0.0
H432 H 0.32994 0.80562 0.88567 0.0
O433 O 0.39591 0.84146 0.86164 0.0
O434 O 0.39332 0.84604 0.83095 0.0
H435 H 0.34956 0.82289 0.80655 0.0
H436 H 0.33006 0.80803 0.81224 0.0
C437 C 0.33596 0.82226 0.8139 0.0
H438 H 0.3262 0.83227 0.80728 0.0
H439 H 0.38487 0.84241 0.79085 0.0
O440 O 0.37031 0.84632 0.89841 0.0
C441 C 0.40253 0.84056 0.84513 0.0
Co442 Co 0.14462 0.37138 0.87383 0.0
Co443 Co 0.14315 0.36604 0.83053 0.0
C444 C 0.10859 0.3724 0.85356 0.0
O445 O 0.11762 0.37266 0.86882 0.0
O446 O 0.11688 0.37038 0.838 0.0
C447 C 0.13532 0.36474 0.91162 0.0
O448 O 0.12038 0.35733 0.90395 0.0
C449 C 0.13315 0.34329 0.79873 0.0
C450 C 0.15052 0.3549 0.77603 0.0
C451 C 0.13814 0.34057 0.78018 0.0
N452 N 0.14254 0.35813 0.80527 0.0
N453 N 0.15265 0.36525 0.79159 0.0
C454 C 0.11964 0.33218 0.81025 0.0
H455 H 0.11269 0.34115 0.8207 0.0
H456 H 0.12735 0.32117 0.81798 0.0
H457 H 0.10879 0.32561 0.80133 0.0
C458 C 0.16621 0.33643 0.87126 0.0
N459 N 0.15517 0.34955 0.86357 0.0
N460 N 0.15525 0.34762 0.8453 0.0
C461 C 0.16685 0.3335 0.84072 0.0
C462 C 0.17407 0.32585 0.85705 0.0
C463 C 0.17002 0.33488 0.89176 0.0
H464 H 0.15659 0.33443 0.89944 0.0
H465 H 0.1781 0.3221 0.89516 0.0
H466 H 0.17787 0.34738 0.8965 0.0
O467 O 0.1573 0.39372 0.8633 0.0
O468 O 0.15703 0.38947 0.83251 0.0
H469 H 0.18725 0.32251 0.8211 0.0
H470 H 0.16322 0.32093 0.81385 0.0
C471 C 0.17357 0.32978 0.82123 0.0
H472 H 0.17509 0.34311 0.81353 0.0
H473 H 0.16149 0.37674 0.79305 0.0
O474 O 0.14795 0.37159 0.9012 0.0
C475 C 0.16154 0.39902 0.84682 0.0
Co476 Co 0.62079 0.14711 0.87029 0.0
Co477 Co 0.6302 0.14451 0.82778 0.0
C478 C 0.62705 0.11035 0.85106 0.0
O479 O 0.62311 0.11997 0.86546 0.0
O480 O 0.63038 0.11808 0.83543 0.0
C481 C 0.61103 0.13839 0.90771 0.0
O482 O 0.6026 0.1242 0.89969 0.0
C483 C 0.65255 0.13683 0.79496 0.0
C484 C 0.63969 0.15495 0.7735 0.0
C485 C 0.65415 0.14247 0.77654 0.0
N486 N 0.63794 0.14573 0.80255 0.0
N487 N 0.63009 0.15633 0.78962 0.0
C488 C 0.6643 0.12292 0.80527 0.0
H489 H 0.66592 0.12722 0.82008 0.0
H490 H 0.67819 0.12098 0.79872 0.0
H491 H 0.657 0.10927 0.80511 0.0
C492 C 0.65202 0.17391 0.86903 0.0
N493 N 0.64153 0.16053 0.86101 0.0
N494 N 0.64588 0.15923 0.84321 0.0
C495 C 0.65951 0.17161 0.83935 0.0
C496 C 0.66377 0.18142 0.85556 0.0
C497 C 0.64872 0.18111 0.8884 0.0
H498 H 0.63354 0.18347 0.89052 0.0
H499 H 0.65333 0.17041 0.89863 0.0
H500 H 0.6563 0.19433 0.89111 0.0
O501 O 0.59772 0.15682 0.85881 0.0
O502 O 0.60466 0.15471 0.82863 0.0
H503 H 0.65661 0.17921 0.81056 0.0
H504 H 0.6792 0.18493 0.82046 0.0
C505 C 0.6677 0.17457 0.82033 0.0
H506 H 0.67349 0.16122 0.81516 0.0
H507 H 0.61851 0.16488 0.79195 0.0
O508 O 0.61942 0.15031 0.89762 0.0
C509 C 0.59344 0.15912 0.84169 0.0
Co510 Co 0.84928 0.61274 0.87586 0.0
Co511 Co 0.8487 0.62613 0.83442 0.0
C512 C 0.88445 0.61981 0.85395 0.0
O513 O 0.876 0.61396 0.86843 0.0
O514 O 0.87562 0.62558 0.83969 0.0
C515 C 0.86077 0.61842 0.91271 0.0
O516 O 0.87294 0.62906 0.90404 0.0
C517 C 0.85403 0.65063 0.80268 0.0
C518 C 0.83296 0.64023 0.78258 0.0
C519 C 0.84643 0.65386 0.78519 0.0
N520 N 0.84519 0.63597 0.81022 0.0
N521 N 0.83276 0.62964 0.79811 0.0
C522 C 0.87003 0.6605 0.81192 0.0
H523 H 0.88189 0.65062 0.81328 0.0
H524 H 0.86596 0.6648 0.82624 0.0
H525 H 0.87491 0.67275 0.80383 0.0
C526 C 0.82488 0.64601 0.87998 0.0
N527 N 0.8362 0.63494 0.86979 0.0
N528 N 0.83614 0.64075 0.85235 0.0
C529 C 0.825 0.65583 0.85093 0.0
C530 C 0.81766 0.65971 0.8684 0.0
C531 C 0.82028 0.64289 0.90013 0.0
H532 H 0.81668 0.628 0.90243 0.0
H533 H 0.83274 0.64621 0.90873 0.0
H534 H 0.80854 0.65187 0.9048 0.0
O535 O 0.83741 0.59121 0.86351 0.0
O536 O 0.83823 0.60078 0.83402 0.0
H537 H 0.81507 0.65413 0.82273 0.0
H538 H 0.80812 0.6751 0.83473 0.0
C539 C 0.81962 0.66491 0.83286 0.0
H540 H 0.83186 0.67234 0.827 0.0
H541 H 0.82391 0.61834 0.80059 0.0
O542 O 0.84881 0.60942 0.90317 0.0
C543 C 0.83411 0.58856 0.84622 0.0
Co544 Co 0.12776 0.37265 0.14747 0.0
Co545 Co 0.17108 0.36769 0.14632 0.0
C546 C 0.14867 0.36835 0.11144 0.0
O547 O 0.1336 0.37045 0.12059 0.0
O548 O 0.16436 0.3671 0.11966 0.0
C549 C 0.09062 0.36229 0.13849 0.0
O550 O 0.09909 0.35243 0.12554 0.0
C551 C 0.20648 0.34951 0.13907 0.0
C552 C 0.22575 0.3645 0.158 0.0
C553 C 0.22494 0.35014 0.14502 0.0
N554 N 0.19694 0.36281 0.14813 0.0
N555 N 0.20854 0.37196 0.15919 0.0
C556 C 0.19739 0.33537 0.1266 0.0
H557 H 0.18202 0.33531 0.1287 0.0
H558 H 0.20301 0.3212 0.12942 0.0
H559 H 0.20029 0.33898 0.11181 0.0
C560 C 0.13127 0.34187 0.17443 0.0
N561 N 0.13865 0.3531 0.16132 0.0
N562 N 0.15684 0.35053 0.16059 0.0
C563 C 0.16164 0.33733 0.17311 0.0
C564 C 0.1456 0.33147 0.18235 0.0
C565 C 0.11144 0.34325 0.18101 0.0
H566 H 0.10737 0.35814 0.1822 0.0
H567 H 0.10215 0.33656 0.17055 0.0
H568 H 0.10936 0.33642 0.19474 0.0
O569 O 0.13664 0.39681 0.15716 0.0
O570 O 0.1674 0.39284 0.15632 0.0
H571 H 0.18967 0.34296 0.18198 0.0
H572 H 0.18194 0.31934 0.1868 0.0
C573 C 0.1813 0.33105 0.17669 0.0
H574 H 0.18761 0.32621 0.16346 0.0
H575 H 0.20459 0.38294 0.16793 0.0
O576 O 0.1003 0.37197 0.14978 0.0
C577 C 0.15315 0.40275 0.16009 0.0
Co578 Co 0.12176 0.61917 0.85202 0.0
Co579 Co 0.16405 0.62973 0.84909 0.0
C580 C 0.1437 0.63144 0.8854 0.0
O581 O 0.12861 0.62597 0.87781 0.0
O582 O 0.15856 0.63354 0.8759 0.0
C583 C 0.08451 0.62878 0.85918 0.0
O584 O 0.09276 0.64367 0.86605 0.0
C585 C 0.19579 0.65529 0.84867 0.0
C586 C 0.21744 0.63864 0.83423 0.0
C587 C 0.21395 0.65597 0.84205 0.0
N588 N 0.18869 0.63842 0.84461 0.0
N589 N 0.20173 0.62847 0.83611 0.0
C590 C 0.18564 0.67005 0.8595 0.0
H591 H 0.17304 0.66425 0.86635 0.0
H592 H 0.18111 0.68142 0.85004 0.0
H593 H 0.19509 0.67624 0.87013 0.0
C594 C 0.11923 0.64739 0.82156 0.0
N595 N 0.12886 0.63794 0.83474 0.0
N596 N 0.14671 0.6423 0.83346 0.0
C597 C 0.14898 0.65454 0.81935 0.0
C598 C 0.13166 0.65839 0.81168 0.0
C599 C 0.0987 0.64548 0.81805 0.0
H600 H 0.09095 0.65324 0.82898 0.0
H601 H 0.09466 0.6513 0.80428 0.0
H602 H 0.09459 0.63057 0.81872 0.0
O603 O 0.13368 0.59522 0.84522 0.0
O604 O 0.1637 0.60297 0.84319 0.0
H605 H 0.16598 0.66512 0.79676 0.0
H606 H 0.17305 0.67226 0.81967 0.0
C607 C 0.16744 0.66044 0.81145 0.0
H608 H 0.17749 0.6487 0.81188 0.0
H609 H 0.19982 0.61482 0.83138 0.0
O610 O 0.09441 0.61593 0.85202 0.0
C611 C 0.15068 0.59093 0.84207 0.0
Co612 Co 0.38098 0.12467 0.85368 0.0
Co613 Co 0.36788 0.16609 0.84948 0.0
C614 C 0.37251 0.14891 0.88678 0.0
O615 O 0.37861 0.13385 0.87964 0.0
O616 O 0.36723 0.16253 0.87673 0.0
C617 C 0.37628 0.08826 0.86784 0.0
O618 O 0.36596 0.09733 0.88 0.0
C619 C 0.34099 0.19626 0.85021 0.0
C620 C 0.35504 0.21852 0.83405 0.0
C621 C 0.33878 0.21422 0.84359 0.0
N622 N 0.35775 0.19 0.84468 0.0
N623 N 0.36618 0.20337 0.83512 0.0
C624 C 0.32779 0.18547 0.86231 0.0
H625 H 0.33251 0.1708 0.86389 0.0
H626 H 0.3135 0.18571 0.85632 0.0
H627 H 0.3271 0.19216 0.87628 0.0
C628 C 0.34892 0.1188 0.82807 0.0
N629 N 0.35939 0.1298 0.83923 0.0
N630 N 0.35407 0.14728 0.83713 0.0
C631 C 0.34013 0.14796 0.82451 0.0
C632 C 0.33625 0.12995 0.81863 0.0
C633 C 0.3518 0.09824 0.82567 0.0
H634 H 0.36662 0.09546 0.82206 0.0
H635 H 0.34872 0.09109 0.83906 0.0
H636 H 0.34257 0.0924 0.81467 0.0
O637 O 0.40296 0.13648 0.84192 0.0
O638 O 0.39375 0.16607 0.84017 0.0
H639 H 0.34397 0.17599 0.81442 0.0
H640 H 0.32657 0.16282 0.802 0.0
C641 C 0.33267 0.16554 0.81596 0.0
H642 H 0.32153 0.17133 0.825 0.0
H643 H 0.37944 0.20212 0.82923 0.0
O644 O 0.38456 0.09734 0.85502 0.0
C645 C 0.406 0.15346 0.83753 0.0
Co646 Co 0.8707 0.37442 0.84856 0.0
Co647 Co 0.8275 0.36817 0.84953 0.0
C648 C 0.84978 0.37283 0.88451 0.0
O649 O 0.86492 0.37458 0.87543 0.0
O650 O 0.83426 0.3704 0.87621 0.0
C651 C 0.90828 0.36695 0.85848 0.0
O652 O 0.90019 0.35812 0.87238 0.0
C653 C 0.79416 0.34673 0.85732 0.0
C654 C 0.77243 0.36169 0.84125 0.0
C655 C 0.77529 0.34634 0.85275 0.0
N656 N 0.80196 0.3615 0.84889 0.0
N657 N 0.7889 0.37058 0.83952 0.0
C658 C 0.8052 0.3326 0.86811 0.0
H659 H 0.82037 0.33425 0.86537 0.0
H660 H 0.80077 0.31823 0.86437 0.0
H661 H 0.80279 0.33474 0.88327 0.0
C662 C 0.8688 0.34043 0.82553 0.0
N663 N 0.86075 0.35296 0.83695 0.0
N664 N 0.84253 0.35038 0.83693 0.0
C665 C 0.83838 0.33626 0.82519 0.0
C666 C 0.85492 0.32944 0.81773 0.0
C667 C 0.88925 0.34 0.82112 0.0
H668 H 0.89344 0.35351 0.81479 0.0
H669 H 0.89725 0.33817 0.83425 0.0
H670 H 0.89284 0.32841 0.81149 0.0
O671 O 0.86065 0.39712 0.83637 0.0
O672 O 0.82998 0.3922 0.83682 0.0
H673 H 0.81056 0.34444 0.81736 0.0
H674 H 0.81908 0.32409 0.80521 0.0
C675 C 0.81899 0.33154 0.8188 0.0
H676 H 0.81226 0.32238 0.8293 0.0
H677 H 0.79133 0.38257 0.8316 0.0
O678 O 0.8982 0.37486 0.84618 0.0
C679 C 0.84402 0.4021 0.83236 0.0
Co680 Co 0.61884 0.87319 0.8515 0.0
Co681 Co 0.63388 0.83213 0.85077 0.0
C682 C 0.63078 0.85298 0.88635 0.0
O683 O 0.624 0.86704 0.87791 0.0
O684 O 0.63559 0.83841 0.87749 0.0
C685 C 0.62691 0.9099 0.85965 0.0
O686 O 0.64112 0.90113 0.86729 0.0
C687 C 0.66152 0.80224 0.85373 0.0
C688 C 0.64757 0.77906 0.83883 0.0
C689 C 0.66375 0.78377 0.84836 0.0
N690 N 0.64489 0.80824 0.84743 0.0
N691 N 0.6366 0.79434 0.83855 0.0
C692 C 0.67444 0.81367 0.86561 0.0
H693 H 0.66721 0.826 0.87145 0.0
H694 H 0.68625 0.81882 0.85702 0.0
H695 H 0.68027 0.80502 0.87709 0.0
C696 C 0.64762 0.87738 0.82214 0.0
N697 N 0.6392 0.8674 0.8357 0.0
N698 N 0.64568 0.8502 0.83544 0.0
C699 C 0.65853 0.84873 0.82176 0.0
C700 C 0.66028 0.86593 0.8131 0.0
C701 C 0.64272 0.89708 0.8171 0.0
H702 H 0.62733 0.89892 0.81727 0.0
H703 H 0.64894 0.90665 0.82756 0.0
H704 H 0.64823 0.90099 0.80316 0.0
O705 O 0.59656 0.85926 0.84307 0.0
O706 O 0.6073 0.83008 0.84387 0.0
H707 H 0.65595 0.81988 0.81416 0.0
H708 H 0.67389 0.83223 0.80149 0.0
C709 C 0.66695 0.83071 0.81526 0.0
H710 H 0.67751 0.826 0.82554 0.0
H711 H 0.62341 0.79524 0.8324 0.0
O712 O 0.61445 0.90041 0.85128 0.0
C713 C 0.59417 0.84173 0.84101 0.0
Co714 Co 0.86955 0.62431 0.14877 0.0
Co715 Co 0.82634 0.63002 0.14674 0.0
C716 C 0.84952 0.62868 0.11236 0.0
O717 O 0.86445 0.62656 0.12174 0.0
O718 O 0.83372 0.63019 0.12031 0.0
C719 C 0.90588 0.63704 0.14204 0.0
O720 O 0.89644 0.64922 0.13207 0.0
C721 C 0.79232 0.65026 0.13896 0.0
C722 C 0.77095 0.63404 0.15424 0.0
C723 C 0.77334 0.64962 0.14298 0.0
N724 N 0.80061 0.63578 0.14743 0.0
N725 N 0.7878 0.62598 0.15638 0.0
C726 C 0.80295 0.66501 0.12863 0.0
H727 H 0.81802 0.66444 0.13229 0.0
H728 H 0.79735 0.67909 0.13191 0.0
H729 H 0.8016 0.66255 0.11339 0.0
C730 C 0.86587 0.65521 0.17579 0.0
N731 N 0.85873 0.64415 0.16238 0.0
N732 N 0.84054 0.64679 0.16141 0.0
C733 C 0.83554 0.65968 0.17418 0.0
C734 C 0.85145 0.66548 0.18356 0.0
C735 C 0.88578 0.6546 0.1822 0.0
H736 H 0.89012 0.6399 0.18446 0.0
H737 H 0.89482 0.66065 0.17118 0.0
H738 H 0.88793 0.66272 0.19522 0.0
O739 O 0.85983 0.60015 0.15816 0.0
O740 O 0.82917 0.60485 0.15668 0.0
H741 H 0.80771 0.65092 0.18101 0.0
H742 H 0.81489 0.67214 0.19259 0.0
C743 C 0.81574 0.66406 0.17939 0.0
H744 H 0.8092 0.67238 0.1681 0.0
H745 H 0.79061 0.61398 0.16416 0.0
O746 O 0.89701 0.6247 0.1512 0.0
C747 C 0.84309 0.59456 0.16063 0.0
Co748 Co 0.36716 0.8763 0.14271 0.0
Co749 Co 0.36123 0.83321 0.14361 0.0
C750 C 0.35955 0.85411 0.10799 0.0
O751 O 0.36364 0.86926 0.11627 0.0
O752 O 0.35758 0.83891 0.1169 0.0
C753 C 0.35263 0.91218 0.13661 0.0
O754 O 0.33825 0.90239 0.13076 0.0
C755 C 0.34093 0.79852 0.13966 0.0
C756 C 0.35769 0.77874 0.15644 0.0
C757 C 0.34172 0.78004 0.14551 0.0
N758 N 0.35568 0.80758 0.1468 0.0
N759 N 0.3658 0.7957 0.15665 0.0
C760 C 0.32569 0.80812 0.12899 0.0
H761 H 0.32607 0.8234 0.13155 0.0
H762 H 0.31179 0.80257 0.13305 0.0
H763 H 0.32779 0.80572 0.11382 0.0
C764 C 0.33831 0.87446 0.17232 0.0
N765 N 0.34834 0.86651 0.15852 0.0
N766 N 0.34588 0.84829 0.15903 0.0
C767 C 0.33416 0.84409 0.17314 0.0
C768 C 0.32891 0.86054 0.18189 0.0
C769 C 0.34007 0.89447 0.17818 0.0
H770 H 0.3547 0.89926 0.17644 0.0
H771 H 0.33087 0.90318 0.16927 0.0
H772 H 0.33583 0.89647 0.19295 0.0
O773 O 0.39164 0.86747 0.1515 0.0
O774 O 0.38764 0.8367 0.15081 0.0
H775 H 0.34235 0.8167 0.18192 0.0
H776 H 0.32038 0.8245 0.19175 0.0
C777 C 0.32934 0.82464 0.17912 0.0
H778 H 0.32167 0.81756 0.16772 0.0
H779 H 0.37802 0.79924 0.16376 0.0
O780 O 0.36692 0.90376 0.14293 0.0
C781 C 0.39781 0.85096 0.15387 0.0
Co782 Co 0.62265 0.1222 0.14318 0.0
Co783 Co 0.63185 0.16478 0.14293 0.0
C784 C 0.62705 0.1433 0.10749 0.0
O785 O 0.62358 0.12834 0.11636 0.0
O786 O 0.6307 0.15839 0.11608 0.0
C787 C 0.63212 0.0856 0.13428 0.0
O788 O 0.6441 0.09472 0.12379 0.0
C789 C 0.65764 0.19542 0.13806 0.0
C790 C 0.64334 0.21897 0.15199 0.0
C791 C 0.65972 0.21401 0.14292 0.0
N792 N 0.641 0.18953 0.14431 0.0
N793 N 0.63238 0.20368 0.15245 0.0
C794 C 0.67095 0.18347 0.12717 0.0
H795 H 0.66329 0.17246 0.11946 0.0
H796 H 0.68079 0.17646 0.13685 0.0
H797 H 0.67915 0.19208 0.11722 0.0
C798 C 0.65561 0.12166 0.16829 0.0
N799 N 0.64423 0.13046 0.15612 0.0
N800 N 0.64755 0.14853 0.15679 0.0
C801 C 0.66073 0.15186 0.16984 0.0
C802 C 0.66649 0.13492 0.17728 0.0
C803 C 0.65527 0.10108 0.172 0.0
H804 H 0.65962 0.09358 0.15919 0.0
H805 H 0.665 0.09699 0.18333 0.0
H806 H 0.64087 0.09665 0.17563 0.0
O807 O 0.60012 0.13367 0.15461 0.0
O808 O 0.60664 0.16404 0.15361 0.0
H809 H 0.66951 0.1698 0.1926 0.0
H810 H 0.67634 0.17739 0.16973 0.0
C811 C 0.66493 0.17077 0.17781 0.0
H812 H 0.65237 0.17978 0.17719 0.0
H813 H 0.61921 0.2028 0.15862 0.0
O814 O 0.62084 0.09476 0.14447 0.0
C815 C 0.59571 0.15065 0.15776 0.0
H816 H 0.13184 0.16073 0.56501 0.0
H817 H 0.13939 0.16553 0.53227 0.0
H818 H 0.19801 0.16932 0.54601 0.0
H819 H 0.19063 0.16408 0.57895 0.0
H820 H 0.15613 0.19067 0.51066 0.0
H821 H 0.22158 0.1453 0.51188 0.0
H822 H 0.23697 0.12156 0.53163 0.0
H823 H 0.18345 0.10323 0.55167 0.0
H824 H 0.16778 0.12672 0.53188 0.0
H825 H 0.17405 0.17665 0.4147 0.0
H826 H 0.18259 0.18346 0.44704 0.0
H827 H 0.16297 0.12896 0.46369 0.0
H828 H 0.15489 0.12184 0.43139 0.0
H829 H 0.19291 0.13853 0.48354 0.0
H830 H 0.13411 0.16754 0.46461 0.0
H831 H 0.11484 0.1884 0.44505 0.0
H832 H 0.14894 0.23514 0.46091 0.0
H833 H 0.16854 0.21447 0.4804 0.0
C834 C 0.14633 0.16286 0.56117 0.0
C835 C 0.16067 0.16163 0.57452 0.0
C836 C 0.15061 0.16575 0.54245 0.0
C837 C 0.16927 0.16753 0.53673 0.0
C838 C 0.18354 0.16773 0.55016 0.0
C839 C 0.17928 0.16471 0.56895 0.0
C840 C 0.17355 0.16686 0.51659 0.0
C841 C 0.1645 0.17952 0.5047 0.0
C842 C 0.18435 0.15222 0.50886 0.0
C843 C 0.19357 0.1379 0.52062 0.0
C844 C 0.21313 0.13617 0.52049 0.0
C845 C 0.22189 0.12277 0.53168 0.0
C846 C 0.2112 0.11095 0.54296 0.0
C847 C 0.19172 0.11244 0.54299 0.0
C848 C 0.1829 0.12579 0.5318 0.0
C849 C 0.1718 0.16602 0.42523 0.0
C850 C 0.1635 0.14882 0.4206 0.0
C851 C 0.17674 0.16993 0.44366 0.0
C852 C 0.17314 0.15683 0.45775 0.0
C853 C 0.16589 0.13925 0.45299 0.0
C854 C 0.16115 0.13524 0.43454 0.0
C855 C 0.1749 0.16192 0.47764 0.0
C856 C 0.18517 0.15014 0.48945 0.0
C857 C 0.16474 0.17704 0.48533 0.0
C858 C 0.15291 0.18946 0.47374 0.0
C859 C 0.13755 0.18225 0.46382 0.0
C860 C 0.12657 0.19403 0.45276 0.0
C861 C 0.1307 0.21307 0.45169 0.0
C862 C 0.14579 0.22038 0.46172 0.0
C863 C 0.15684 0.20865 0.47277 0.0
H864 H 0.12219 0.22218 0.44313 0.0
H865 H 0.218 0.1006 0.55163 0.0
H866 H 0.86597 0.17197 0.43118 0.0
H867 H 0.85855 0.17403 0.46437 0.0
H868 H 0.80045 0.1634 0.45233 0.0
H869 H 0.8076 0.16166 0.41905 0.0
H870 H 0.80599 0.18631 0.48425 0.0
H871 H 0.82529 0.12723 0.45897 0.0
H872 H 0.84577 0.10659 0.4405 0.0
H873 H 0.89212 0.12011 0.47615 0.0
H874 H 0.87197 0.1411 0.49464 0.0
H875 H 0.82487 0.12052 0.57174 0.0
H876 H 0.81627 0.12554 0.53911 0.0
H877 H 0.82998 0.184 0.54443 0.0
H878 H 0.83801 0.17925 0.57709 0.0
H879 H 0.84083 0.1346 0.51465 0.0
H880 H 0.80913 0.20988 0.5112 0.0
H881 H 0.78679 0.22922 0.5289 0.0
H882 H 0.76079 0.17982 0.55076 0.0
H883 H 0.78278 0.16017 0.53299 0.0
C884 C 0.85153 0.17061 0.43551 0.0
C885 C 0.83746 0.1661 0.42259 0.0
C886 C 0.84731 0.17187 0.45445 0.0
C887 C 0.82905 0.16843 0.46068 0.0
C888 C 0.81463 0.166 0.4477 0.0
C889 C 0.8188 0.16487 0.42871 0.0
C890 C 0.8258 0.16401 0.48049 0.0
C891 C 0.81354 0.17505 0.49102 0.0
C892 C 0.83509 0.14877 0.48893 0.0
C893 C 0.84716 0.13584 0.4781 0.0
C894 C 0.83988 0.12588 0.4628 0.0
C895 C 0.85142 0.11412 0.45233 0.0
C896 C 0.87024 0.11207 0.45713 0.0
C897 C 0.87754 0.12173 0.47244 0.0
C898 C 0.86606 0.13355 0.48293 0.0
C899 C 0.82567 0.13452 0.56605 0.0
C900 C 0.83242 0.14943 0.57687 0.0
C901 C 0.82068 0.13737 0.54745 0.0
C902 C 0.82248 0.15514 0.53936 0.0
C903 C 0.82816 0.17024 0.55045 0.0
C904 C 0.83295 0.16745 0.56909 0.0
C905 C 0.82145 0.15732 0.51888 0.0
C906 C 0.83298 0.14578 0.50805 0.0
C907 C 0.81113 0.1718 0.51022 0.0
C908 C 0.79772 0.18354 0.52084 0.0
C909 C 0.79859 0.20313 0.5197 0.0
C910 C 0.786 0.21415 0.52977 0.0
C911 C 0.77241 0.20575 0.54098 0.0
C912 C 0.77136 0.18631 0.54212 0.0
C913 C 0.78391 0.17522 0.53208 0.0
H914 H 0.76268 0.21431 0.54877 0.0
H915 H 0.87916 0.10296 0.449 0.0
H916 H 0.83678 0.81886 0.42495 0.0
H917 H 0.82668 0.81761 0.45732 0.0
H918 H 0.81189 0.87604 0.45517 0.0
H919 H 0.82272 0.87756 0.42283 0.0
H920 H 0.83353 0.87081 0.48245 0.0
H921 H 0.77826 0.84105 0.46364 0.0
H922 H 0.75775 0.8193 0.44655 0.0
H923 H 0.7843 0.77272 0.47343 0.0
H924 H 0.80517 0.79415 0.49048 0.0
H925 H 0.80699 0.84069 0.58105 0.0
H926 H 0.79706 0.84198 0.54836 0.0
H927 H 0.85396 0.83293 0.53073 0.0
H928 H 0.8641 0.83173 0.5632 0.0
H929 H 0.80132 0.81887 0.51516 0.0
H930 H 0.86414 0.86837 0.50202 0.0
H931 H 0.88301 0.89112 0.51975 0.0
H932 H 0.8368 0.90112 0.55667 0.0
H933 H 0.81756 0.87868 0.53897 0.0
C934 C 0.83108 0.83138 0.43124 0.0
C935 C 0.83085 0.84839 0.42148 0.0
C936 C 0.82506 0.83059 0.44972 0.0
C937 C 0.81834 0.84669 0.45865 0.0
C938 C 0.81702 0.86344 0.44854 0.0
C939 C 0.82331 0.86431 0.43012 0.0
C940 C 0.81581 0.84663 0.47915 0.0
C941 C 0.82614 0.85964 0.48954 0.0
C942 C 0.80588 0.8323 0.48851 0.0
C943 C 0.79334 0.81926 0.47832 0.0
C944 C 0.77982 0.82617 0.46583 0.0
C945 C 0.76811 0.81389 0.45616 0.0
C946 C 0.76973 0.79464 0.4589 0.0
C947 C 0.78305 0.78764 0.47134 0.0
C948 C 0.7948 0.79985 0.48105 0.0
C949 C 0.81735 0.83859 0.57022 0.0
C950 C 0.83642 0.8365 0.57468 0.0
C951 C 0.8116 0.83924 0.55159 0.0
C952 C 0.82485 0.83787 0.5373 0.0
C953 C 0.84361 0.83424 0.5417 0.0
C954 C 0.84937 0.8336 0.56024 0.0
C955 C 0.81982 0.84237 0.51789 0.0
C956 C 0.80815 0.83027 0.50789 0.0
C957 C 0.82811 0.8578 0.50884 0.0
C958 C 0.83945 0.87175 0.51922 0.0
C959 C 0.85796 0.87553 0.51383 0.0
C960 C 0.86873 0.88835 0.52389 0.0
C961 C 0.86112 0.89753 0.53935 0.0
C962 C 0.84269 0.89397 0.54472 0.0
C963 C 0.83186 0.88119 0.53469 0.0
H964 H 0.86949 0.90742 0.54714 0.0
H965 H 0.76065 0.78516 0.45139 0.0
H966 H 0.15223 0.81027 0.57415 0.0
H967 H 0.15569 0.80389 0.54088 0.0
H968 H 0.17268 0.86097 0.53161 0.0
H969 H 0.16872 0.86763 0.5648 0.0
H970 H 0.1453 0.85227 0.50951 0.0
H971 H 0.20333 0.82396 0.52635 0.0
H972 H 0.2244 0.80304 0.54384 0.0
H973 H 0.19427 0.75532 0.52354 0.0
H974 H 0.17285 0.77597 0.50613 0.0
H975 H 0.18417 0.82815 0.41579 0.0
H976 H 0.18768 0.82397 0.44938 0.0
H977 H 0.12811 0.81648 0.4548 0.0
H978 H 0.12434 0.82099 0.42121 0.0
H979 H 0.1785 0.79991 0.47845 0.0
H980 H 0.1138 0.84673 0.4878 0.0
H981 H 0.09521 0.86942 0.46964 0.0
H982 H 0.14373 0.88372 0.43737 0.0
H983 H 0.16263 0.86133 0.45552 0.0
C984 C 0.15699 0.8214 0.56508 0.0
C985 C 0.15996 0.83953 0.57202 0.0
C986 C 0.15908 0.81768 0.54608 0.0
C987 C 0.16446 0.83195 0.53381 0.0
C988 C 0.16842 0.8498 0.54088 0.0
C989 C 0.16613 0.85358 0.55982 0.0
C990 C 0.16392 0.82889 0.51343 0.0
C991 C 0.15263 0.84084 0.50277 0.0
C992 C 0.17351 0.814 0.50463 0.0
C993 C 0.18638 0.80154 0.51507 0.0
C994 C 0.2011 0.80902 0.52574 0.0
C995 C 0.21312 0.7972 0.53561 0.0
C996 C 0.21065 0.77787 0.53483 0.0
C997 C 0.19616 0.7703 0.52414 0.0
C998 C 0.18409 0.78206 0.51425 0.0
C999 C 0.17183 0.82517 0.42403 0.0
C1000 C 0.15389 0.82547 0.41595 0.0
C1001 C 0.17391 0.82262 0.44321 0.0
C1002 C 0.15811 0.82031 0.4545 0.0
C1003 C 0.14042 0.81851 0.44624 0.0
C1004 C 0.1383 0.82116 0.42707 0.0
C1005 C 0.15976 0.82316 0.47481 0.0
C1006 C 0.17118 0.81124 0.48536 0.0
C1007 C 0.15069 0.83836 0.48355 0.0
C1008 C 0.13955 0.85221 0.47288 0.0
C1009 C 0.1205 0.85478 0.47688 0.0
C1010 C 0.10992 0.86758 0.46659 0.0
C1011 C 0.11827 0.87795 0.45232 0.0
C1012 C 0.13726 0.87563 0.44838 0.0
C1013 C 0.14791 0.86289 0.45866 0.0
H1014 H 0.11004 0.88782 0.44434 0.0
H1015 H 0.21997 0.76874 0.54249 0.0
H1016 H 0.42301 0.18391 0.14511 0.0
H1017 H 0.45565 0.19007 0.15333 0.0
H1018 H 0.45801 0.1376 0.18305 0.0
H1019 H 0.42493 0.13227 0.1761 0.0
H1020 H 0.47971 0.16043 0.1997 0.0
H1021 H 0.47113 0.14303 0.13501 0.0
H1022 H 0.45818 0.14592 0.10319 0.0
H1023 H 0.48191 0.20077 0.09822 0.0
H1024 H 0.49481 0.19828 0.13012 0.0
H1025 H 0.57005 0.12659 0.17273 0.0
H1026 H 0.53736 0.13342 0.18 0.0
H1027 H 0.54622 0.19137 0.16629 0.0
H1028 H 0.57893 0.18482 0.15922 0.0
H1029 H 0.51952 0.17154 0.14408 0.0
H1030 H 0.53406 0.18355 0.20806 0.0
H1031 H 0.548 0.17702 0.23888 0.0
H1032 H 0.5144 0.12761 0.24393 0.0
H1033 H 0.50045 0.13367 0.21301 0.0
C1034 C 0.43051 0.1739 0.15365 0.0
C1035 C 0.42178 0.15751 0.15978 0.0
C1036 C 0.44911 0.17738 0.15831 0.0
C1037 C 0.45945 0.16403 0.16832 0.0
C1038 C 0.45036 0.14808 0.17525 0.0
C1039 C 0.43155 0.14495 0.17119 0.0
C1040 C 0.48001 0.16569 0.17003 0.0
C1041 C 0.48843 0.16281 0.18753 0.0
C1042 C 0.4914 0.16908 0.1542 0.0
C1043 C 0.48372 0.17056 0.13501 0.0
C1044 C 0.47348 0.15575 0.12716 0.0
C1045 C 0.46616 0.15731 0.10912 0.0
C1046 C 0.46917 0.17354 0.09871 0.0
C1047 C 0.47955 0.18823 0.10631 0.0
C1048 C 0.48687 0.18675 0.12437 0.0
C1049 C 0.56516 0.14086 0.17167 0.0
C1050 C 0.57696 0.15509 0.16508 0.0
C1051 C 0.54655 0.14476 0.176 0.0
C1052 C 0.53951 0.16289 0.17368 0.0
C1053 C 0.55152 0.17733 0.16824 0.0
C1054 C 0.57016 0.1735 0.16414 0.0
C1055 C 0.51917 0.16593 0.17362 0.0
C1056 C 0.51079 0.1696 0.15633 0.0
C1057 C 0.50795 0.16271 0.1895 0.0
C1058 C 0.5163 0.15901 0.20813 0.0
C1059 C 0.52976 0.1712 0.21566 0.0
C1060 C 0.53763 0.1676 0.23317 0.0
C1061 C 0.53211 0.15189 0.24334 0.0
C1062 C 0.51867 0.13977 0.23604 0.0
C1063 C 0.51075 0.1433 0.21853 0.0
H1064 H 0.53822 0.14913 0.2569 0.0
H1065 H 0.46349 0.17472 0.08475 0.0
H1066 H 0.86868 0.56698 0.16755 0.0
H1067 H 0.86217 0.53362 0.17028 0.0
H1068 H 0.80294 0.54477 0.16882 0.0
H1069 H 0.8092 0.57811 0.16653 0.0
H1070 H 0.81109 0.51406 0.19033 0.0
H1071 H 0.82352 0.53751 0.12903 0.0
H1072 H 0.8413 0.55501 0.10528 0.0
H1073 H 0.88854 0.51895 0.1136 0.0
H1074 H 0.87112 0.50142 0.13763 0.0
H1075 H 0.82208 0.42476 0.12501 0.0
H1076 H 0.81419 0.45758 0.12997 0.0
H1077 H 0.83271 0.45338 0.18724 0.0
H1078 H 0.83985 0.42054 0.18262 0.0
H1079 H 0.83929 0.48179 0.13585 0.0
H1080 H 0.81608 0.48766 0.21411 0.0
H1081 H 0.79551 0.47101 0.23615 0.0
H1082 H 0.76388 0.4487 0.19032 0.0
H1083 H 0.78407 0.46542 0.168 0.0
C1084 C 0.85427 0.5624 0.16832 0.0
C1085 C 0.83947 0.57512 0.1663 0.0
C1086 C 0.85058 0.54336 0.1699 0.0
C1087 C 0.83209 0.53684 0.16929 0.0
C1088 C 0.81729 0.54959 0.16918 0.0
C1089 C 0.82094 0.56863 0.16772 0.0
C1090 C 0.82834 0.51692 0.16588 0.0
C1091 C 0.81722 0.50688 0.17849 0.0
C1092 C 0.83564 0.50794 0.14989 0.0
C1093 C 0.84607 0.51825 0.13523 0.0
C1094 C 0.83774 0.53339 0.12587 0.0
C1095 C 0.84775 0.54331 0.11236 0.0
C1096 C 0.86605 0.53812 0.10796 0.0
C1097 C 0.87436 0.52296 0.11703 0.0
C1098 C 0.86443 0.51302 0.1306 0.0
C1099 C 0.82402 0.43075 0.13877 0.0
C1100 C 0.83187 0.42021 0.15334 0.0
C1101 C 0.81946 0.44946 0.14161 0.0
C1102 C 0.82288 0.45793 0.15896 0.0
C1103 C 0.82961 0.44709 0.17383 0.0
C1104 C 0.83387 0.42832 0.1711 0.0
C1105 C 0.8225 0.47848 0.16069 0.0
C1106 C 0.83289 0.4888 0.14767 0.0
C1107 C 0.81403 0.4877 0.176 0.0
C1108 C 0.8017 0.47771 0.18936 0.0
C1109 C 0.80468 0.47929 0.20872 0.0
C1110 C 0.79309 0.46981 0.22127 0.0
C1111 C 0.77843 0.45877 0.21464 0.0
C1112 C 0.77529 0.45721 0.19544 0.0
C1113 C 0.78682 0.46665 0.18283 0.0
H1114 H 0.76948 0.45144 0.22437 0.0
H1115 H 0.87378 0.54582 0.0975 0.0
H1116 H 0.56555 0.83 0.1269 0.0
H1117 H 0.53218 0.82826 0.1335 0.0
H1118 H 0.54275 0.84052 0.19153 0.0
H1119 H 0.57631 0.84207 0.18516 0.0
H1120 H 0.51194 0.81545 0.18533 0.0
H1121 H 0.5345 0.87577 0.16622 0.0
H1122 H 0.55229 0.89721 0.14596 0.0
H1123 H 0.51845 0.88136 0.099 0.0
H1124 H 0.50066 0.85959 0.11894 0.0
H1125 H 0.42177 0.87722 0.16764 0.0
H1126 H 0.45494 0.87334 0.17458 0.0
H1127 H 0.4513 0.81499 0.15993 0.0
H1128 H 0.41803 0.81861 0.15346 0.0
H1129 H 0.47957 0.86525 0.14951 0.0
H1130 H 0.48614 0.79031 0.18072 0.0
H1131 H 0.46895 0.76976 0.20236 0.0
H1132 H 0.44427 0.8176 0.22876 0.0
H1133 H 0.4615 0.83846 0.20747 0.0
C1134 C 0.56086 0.83196 0.14115 0.0
C1135 C 0.5735 0.83662 0.15543 0.0
C1136 C 0.54181 0.83086 0.1449 0.0
C1137 C 0.53511 0.83459 0.16291 0.0
C1138 C 0.54775 0.83765 0.17754 0.0
C1139 C 0.56688 0.83864 0.17383 0.0
C1140 C 0.51502 0.83799 0.16569 0.0
C1141 C 0.50476 0.82632 0.17759 0.0
C1142 C 0.50594 0.85258 0.15599 0.0
C1143 C 0.51634 0.86596 0.14404 0.0
C1144 C 0.53092 0.87678 0.15155 0.0
C1145 C 0.541 0.88899 0.14013 0.0
C1146 C 0.53652 0.89062 0.1212 0.0
C1147 C 0.52191 0.88008 0.11367 0.0
C1148 C 0.51181 0.86782 0.12502 0.0
C1149 C 0.42797 0.8635 0.16616 0.0
C1150 C 0.41737 0.84828 0.15976 0.0
C1151 C 0.44689 0.8613 0.17021 0.0
C1152 C 0.45556 0.84388 0.16783 0.0
C1153 C 0.44483 0.82848 0.16218 0.0
C1154 C 0.42585 0.83062 0.15832 0.0
C1155 C 0.47612 0.84239 0.16883 0.0
C1156 C 0.48659 0.85447 0.15753 0.0
C1157 C 0.48532 0.82839 0.17937 0.0
C1158 C 0.47502 0.81595 0.19237 0.0
C1159 C 0.47712 0.79646 0.1912 0.0
C1160 C 0.46735 0.78475 0.2034 0.0
C1161 C 0.45549 0.79237 0.21689 0.0
C1162 C 0.45341 0.81172 0.21826 0.0
C1163 C 0.46315 0.82349 0.2061 0.0
H1164 H 0.44794 0.78328 0.22632 0.0
H1165 H 0.54435 0.90007 0.11237 0.0
H1166 H 0.12705 0.43034 0.16335 0.0
H1167 H 0.13307 0.46349 0.16807 0.0
H1168 H 0.19167 0.45195 0.1765 0.0
H1169 H 0.18587 0.41874 0.17147 0.0
H1170 H 0.14845 0.48716 0.19346 0.0
H1171 H 0.21549 0.48409 0.15055 0.0
H1172 H 0.2318 0.46305 0.1286 0.0
H1173 H 0.17906 0.44165 0.10953 0.0
H1174 H 0.16248 0.46273 0.13118 0.0
H1175 H 0.16979 0.58184 0.17768 0.0
H1176 H 0.17702 0.54939 0.18518 0.0
H1177 H 0.15794 0.53252 0.13052 0.0
H1178 H 0.15113 0.56504 0.12271 0.0
H1179 H 0.18724 0.51188 0.14153 0.0
H1180 H 0.12817 0.5333 0.16808 0.0
H1181 H 0.10894 0.55404 0.18778 0.0
H1182 H 0.14094 0.53828 0.23605 0.0
H1183 H 0.1605 0.51761 0.21656 0.0
C1184 C 0.14115 0.43478 0.16661 0.0
C1185 C 0.15606 0.42203 0.16656 0.0
C1186 C 0.14455 0.45371 0.16944 0.0
C1187 C 0.16286 0.4601 0.1723 0.0
C1188 C 0.1775 0.44723 0.17404 0.0
C1189 C 0.17414 0.4283 0.17109 0.0
C1190 C 0.16674 0.48021 0.17061 0.0
C1191 C 0.15721 0.49261 0.18235 0.0
C1192 C 0.17803 0.48722 0.15597 0.0
C1193 C 0.1878 0.47479 0.14262 0.0
C1194 C 0.20741 0.47492 0.14162 0.0
C1195 C 0.21669 0.463 0.12924 0.0
C1196 C 0.20647 0.45097 0.11773 0.0
C1197 C 0.18696 0.45092 0.1185 0.0
C1198 C 0.17761 0.46285 0.13081 0.0
C1199 C 0.16738 0.57123 0.16716 0.0
C1200 C 0.15956 0.57585 0.14973 0.0
C1201 C 0.17157 0.55275 0.17147 0.0
C1202 C 0.16768 0.53861 0.15853 0.0
C1203 C 0.16101 0.5433 0.14069 0.0
C1204 C 0.15704 0.56184 0.13627 0.0
C1205 C 0.16858 0.51883 0.16409 0.0
C1206 C 0.17903 0.50649 0.15308 0.0
C1207 C 0.15778 0.51186 0.17913 0.0
C1208 C 0.14591 0.5241 0.19085 0.0
C1209 C 0.13116 0.53435 0.18288 0.0
C1210 C 0.1202 0.54608 0.194 0.0
C1211 C 0.12376 0.54752 0.21315 0.0
C1212 C 0.13823 0.53718 0.22121 0.0
C1213 C 0.14925 0.52546 0.21014 0.0
H1214 H 0.11526 0.55661 0.22173 0.0
H1215 H 0.21369 0.44173 0.10819 0.0
H1216 H 0.42041 0.81243 0.86365 0.0
H1217 H 0.4528 0.80214 0.85918 0.0
H1218 H 0.46004 0.84417 0.81647 0.0
H1219 H 0.42749 0.85339 0.81996 0.0
H1220 H 0.47894 0.81617 0.80677 0.0
H1221 H 0.47225 0.84992 0.86569 0.0
H1222 H 0.45963 0.85505 0.89736 0.0
H1223 H 0.48024 0.80141 0.91457 0.0
H1224 H 0.49281 0.79591 0.88293 0.0
H1225 H 0.56572 0.86035 0.82381 0.0
H1226 H 0.53345 0.84969 0.82007 0.0
H1227 H 0.54788 0.79672 0.84483 0.0
H1228 H 0.58031 0.80706 0.84822 0.0
H1229 H 0.51899 0.81935 0.86324 0.0
H1230 H 0.53411 0.7928 0.8042 0.0
H1231 H 0.54803 0.79207 0.77272 0.0
H1232 H 0.51276 0.8375 0.7557 0.0
H1233 H 0.49881 0.83872 0.78716 0.0
C1234 C 0.42896 0.81927 0.85321 0.0
C1235 C 0.42166 0.8338 0.84228 0.0
C1236 C 0.44742 0.81343 0.85067 0.0
C1237 C 0.459 0.82262 0.83775 0.0
C1238 C 0.45142 0.83677 0.82647 0.0
C1239 C 0.43287 0.84216 0.82857 0.0
C1240 C 0.47933 0.81882 0.83679 0.0
C1241 C 0.48769 0.81684 0.81913 0.0
C1242 C 0.49078 0.81911 0.85295 0.0
C1243 C 0.48322 0.8224 0.87192 0.0
C1244 C 0.47397 0.83918 0.87622 0.0
C1245 C 0.46685 0.84216 0.89415 0.0
C1246 C 0.46907 0.82853 0.90795 0.0
C1247 C 0.47848 0.81193 0.90386 0.0
C1248 C 0.4856 0.80887 0.88593 0.0
C1249 C 0.5621 0.8463 0.82809 0.0
C1250 C 0.57542 0.8346 0.83647 0.0
C1251 C 0.54375 0.84019 0.82582 0.0
C1252 C 0.53844 0.82241 0.8321 0.0
C1253 C 0.55185 0.81041 0.83976 0.0
C1254 C 0.57031 0.81637 0.84171 0.0
C1255 C 0.51846 0.81778 0.83323 0.0
C1256 C 0.51019 0.8181 0.85094 0.0
C1257 C 0.50718 0.81661 0.81711 0.0
C1258 C 0.51546 0.81589 0.7981 0.0
C1259 C 0.52941 0.80273 0.7938 0.0
C1260 C 0.53729 0.80221 0.77594 0.0
C1261 C 0.53129 0.81474 0.76222 0.0
C1262 C 0.51738 0.8278 0.76633 0.0
C1263 C 0.50946 0.82838 0.78417 0.0
H1264 H 0.53741 0.81432 0.74841 0.0
H1265 H 0.46355 0.83087 0.92183 0.0
H1266 H 0.16722 0.42616 0.87298 0.0
H1267 H 0.17421 0.45887 0.86698 0.0
H1268 H 0.18252 0.44665 0.80855 0.0
H1269 H 0.17512 0.41387 0.81433 0.0
H1270 H 0.20001 0.48205 0.85186 0.0
H1271 H 0.15773 0.47892 0.78429 0.0
H1272 H 0.13525 0.45827 0.76818 0.0
H1273 H 0.11513 0.43844 0.82109 0.0
H1274 H 0.1373 0.45915 0.83747 0.0
H1275 H 0.18403 0.57763 0.82899 0.0
H1276 H 0.19275 0.54501 0.82392 0.0
H1277 H 0.1374 0.5277 0.8405 0.0
H1278 H 0.12843 0.56018 0.84511 0.0
H1279 H 0.14905 0.5074 0.81216 0.0
H1280 H 0.1748 0.52865 0.87154 0.0
H1281 H 0.19443 0.54906 0.89121 0.0
H1282 H 0.24315 0.53249 0.86035 0.0
H1283 H 0.22374 0.51215 0.84036 0.0
C1284 C 0.171 0.43029 0.85893 0.0
C1285 C 0.17008 0.41755 0.84404 0.0
C1286 C 0.17514 0.449 0.85554 0.0
C1287 C 0.17849 0.45518 0.83726 0.0
C1288 C 0.17967 0.44214 0.82271 0.0
C1289 C 0.17537 0.42344 0.82605 0.0
C1290 C 0.17734 0.47536 0.83323 0.0
C1291 C 0.18913 0.48764 0.8429 0.0
C1292 C 0.16295 0.48259 0.82173 0.0
C1293 C 0.14932 0.47038 0.81205 0.0
C1294 C 0.14846 0.47018 0.79245 0.0
C1295 C 0.13578 0.45848 0.78329 0.0
C1296 C 0.12382 0.447 0.79361 0.0
C1297 C 0.12444 0.44728 0.81312 0.0
C1298 C 0.13705 0.459 0.82234 0.0
C1299 C 0.17366 0.56687 0.83139 0.0
C1300 C 0.15558 0.57144 0.83764 0.0
C1301 C 0.17868 0.54827 0.82848 0.0
C1302 C 0.16579 0.53397 0.83206 0.0
C1303 C 0.14755 0.53855 0.83761 0.0
C1304 C 0.14246 0.55712 0.84032 0.0
C1305 C 0.17137 0.51413 0.83122 0.0
C1306 C 0.16041 0.50189 0.82058 0.0
C1307 C 0.18616 0.50697 0.84226 0.0
C1308 C 0.19781 0.51908 0.85434 0.0
C1309 C 0.18968 0.52947 0.86888 0.0
C1310 C 0.20076 0.541 0.88009 0.0
C1311 C 0.22002 0.54212 0.87699 0.0
C1312 C 0.22823 0.53165 0.8627 0.0
C1313 C 0.2172 0.52011 0.85144 0.0
H1314 H 0.22857 0.55106 0.88568 0.0
H1315 H 0.11405 0.43792 0.78648 0.0
H1316 H 0.41714 0.18806 0.82575 0.0
H1317 H 0.44859 0.19761 0.8165 0.0
H1318 H 0.46785 0.14093 0.82353 0.0
H1319 H 0.43654 0.13121 0.8324 0.0
H1320 H 0.47777 0.1972 0.8379 0.0
H1321 H 0.50328 0.1305 0.7972 0.0
H1322 H 0.49122 0.10955 0.77271 0.0
H1323 H 0.45328 0.15221 0.75431 0.0
H1324 H 0.4653 0.17356 0.7785 0.0
H1325 H 0.56327 0.16329 0.86455 0.0
H1326 H 0.53172 0.17221 0.8556 0.0
H1327 H 0.55 0.18105 0.79882 0.0
H1328 H 0.58162 0.17155 0.80758 0.0
H1329 H 0.52111 0.16024 0.79848 0.0
H1330 H 0.53341 0.21827 0.82556 0.0
H1331 H 0.54544 0.24114 0.8483 0.0
H1332 H 0.50786 0.21998 0.88996 0.0
H1333 H 0.49578 0.19679 0.86759 0.0
C1334 C 0.42801 0.17756 0.825 0.0
C1335 C 0.4244 0.15889 0.82999 0.0
C1336 C 0.44595 0.18306 0.81967 0.0
C1337 C 0.4605 0.16998 0.81915 0.0
C1338 C 0.45674 0.15121 0.82341 0.0
C1339 C 0.43885 0.14569 0.82868 0.0
C1340 C 0.48009 0.17602 0.81663 0.0
C1341 C 0.48727 0.18938 0.82905 0.0
C1342 C 0.49233 0.16643 0.80447 0.0
C1343 C 0.4852 0.15366 0.78972 0.0
C1344 C 0.49248 0.1355 0.78784 0.0
C1345 C 0.48562 0.12352 0.77403 0.0
C1346 C 0.47149 0.12954 0.76197 0.0
C1347 C 0.4642 0.14756 0.76368 0.0
C1348 C 0.47102 0.15959 0.77746 0.0
C1349 C 0.56067 0.16742 0.85022 0.0
C1350 C 0.57487 0.16652 0.83674 0.0
C1351 C 0.54264 0.17272 0.84515 0.0
C1352 C 0.53854 0.17755 0.82657 0.0
C1353 C 0.55288 0.17743 0.81323 0.0
C1354 C 0.5709 0.17194 0.81826 0.0
C1355 C 0.51885 0.18023 0.82089 0.0
C1356 C 0.51164 0.16857 0.80686 0.0
C1357 C 0.50658 0.19174 0.83124 0.0
C1358 C 0.51367 0.20576 0.84483 0.0
C1359 C 0.52776 0.21842 0.83959 0.0
C1360 C 0.53459 0.23145 0.85243 0.0
C1361 C 0.52741 0.23202 0.87056 0.0
C1362 C 0.51338 0.21956 0.8759 0.0
C1363 C 0.50649 0.20649 0.86312 0.0
H1364 H 0.53273 0.24211 0.88049 0.0
H1365 H 0.46619 0.12024 0.75129 0.0
H1366 H 0.82886 0.55706 0.86702 0.0
H1367 H 0.82252 0.52579 0.85533 0.0
H1368 H 0.81618 0.54756 0.79948 0.0
H1369 H 0.82287 0.57897 0.81099 0.0
H1370 H 0.79637 0.50667 0.83647 0.0
H1371 H 0.83956 0.51731 0.7706 0.0
H1372 H 0.86277 0.53915 0.75737 0.0
H1373 H 0.88309 0.55143 0.81248 0.0
H1374 H 0.86016 0.52951 0.82597 0.0
H1375 H 0.81302 0.41339 0.81326 0.0
H1376 H 0.80515 0.44535 0.80417 0.0
H1377 H 0.85924 0.46397 0.82337 0.0
H1378 H 0.86743 0.43206 0.83179 0.0
H1379 H 0.84796 0.48517 0.79539 0.0
H1380 H 0.82071 0.46053 0.85355 0.0
H1381 H 0.80093 0.4383 0.87098 0.0
H1382 H 0.7535 0.4539 0.83764 0.0
H1383 H 0.7731 0.47607 0.81989 0.0
C1384 C 0.82574 0.5553 0.85232 0.0
C1385 C 0.82681 0.5704 0.83986 0.0
C1386 C 0.82199 0.53742 0.84566 0.0
C1387 C 0.81918 0.53438 0.8265 0.0
C1388 C 0.81856 0.54964 0.81428 0.0
C1389 C 0.82245 0.56754 0.82089 0.0
C1390 C 0.81964 0.51507 0.81936 0.0
C1391 C 0.80734 0.50198 0.82711 0.0
C1392 C 0.83403 0.509 0.80721 0.0
C1393 C 0.84801 0.52201 0.79927 0.0
C1394 C 0.84902 0.52467 0.77986 0.0
C1395 C 0.86212 0.53705 0.77233 0.0
C1396 C 0.87434 0.54673 0.78408 0.0
C1397 C 0.87357 0.54398 0.80339 0.0
C1398 C 0.86053 0.53159 0.81099 0.0
C1399 C 0.82339 0.42426 0.81509 0.0
C1400 C 0.84067 0.42039 0.82364 0.0
C1401 C 0.81889 0.44246 0.80984 0.0
C1402 C 0.83143 0.45705 0.81351 0.0
C1403 C 0.84932 0.45291 0.82045 0.0
C1404 C 0.85396 0.43468 0.82538 0.0
C1405 C 0.82522 0.47671 0.81319 0.0
C1406 C 0.83638 0.48988 0.80397 0.0
C1407 C 0.81017 0.48285 0.82448 0.0
C1408 C 0.79837 0.46975 0.83529 0.0
C1409 C 0.80607 0.45914 0.84992 0.0
C1410 C 0.79491 0.44656 0.85983 0.0
C1411 C 0.77598 0.44465 0.85538 0.0
C1412 C 0.76817 0.45536 0.84104 0.0
C1413 C 0.77929 0.46793 0.83105 0.0
H1414 H 0.76736 0.43489 0.86306 0.0
H1415 H 0.88445 0.55633 0.77823 0.0
H1416 H 0.1141 0.90277 0.3716 0.0
H1417 H 0.111 0.93659 0.37406 0.0
H1418 H 0.17 0.94294 0.36336 0.0
H1419 H 0.17335 0.90905 0.36119 0.0
H1420 H 0.15905 0.96414 0.39221 0.0
H1421 H 0.1379 0.95267 0.32968 0.0
H1422 H 0.1189 0.9376 0.3052 0.0
H1423 H 0.06878 0.95846 0.33074 0.0
H1424 H 0.08747 0.97345 0.35553 0.0
H1425 H 0.16015 0.06072 0.37149 0.0
H1426 H 0.16225 0.02677 0.36979 0.0
H1427 H 0.10382 0.02224 0.38393 0.0
H1428 H 0.10152 0.05631 0.38559 0.0
H1429 H 0.11385 0.00016 0.35387 0.0
H1430 H 0.13546 0.01218 0.41613 0.0
H1431 H 0.15479 0.02738 0.44026 0.0
H1432 H 0.2045 0.00559 0.41469 0.0
H1433 H 0.18547 0.99047 0.39024 0.0
C1434 C 0.12643 0.91134 0.36968 0.0
C1435 C 0.14398 0.90322 0.36619 0.0
C1436 C 0.1246 0.93067 0.37103 0.0
C1437 C 0.14024 0.94225 0.36871 0.0
C1438 C 0.15777 0.93422 0.36519 0.0
C1439 C 0.15964 0.91486 0.36391 0.0
C1440 C 0.13836 0.96274 0.37036 0.0
C1441 C 0.14935 0.97206 0.38365 0.0
C1442 C 0.12535 0.97295 0.35951 0.0
C1443 C 0.11408 0.96403 0.34457 0.0
C1444 C 0.12281 0.95392 0.33016 0.0
C1445 C 0.1121 0.94542 0.31621 0.0
C1446 C 0.09264 0.94703 0.31645 0.0
C1447 C 0.08385 0.9572 0.3306 0.0
C1448 C 0.0945 0.96572 0.34459 0.0
C1449 C 0.14774 0.05253 0.37433 0.0
C1450 C 0.13066 0.06119 0.37873 0.0
C1451 C 0.149 0.03313 0.3734 0.0
C1452 C 0.13323 0.02205 0.37689 0.0
C1453 C 0.11614 0.03061 0.38123 0.0
C1454 C 0.11488 0.05004 0.38224 0.0
C1455 C 0.13459 0.00152 0.37564 0.0
C1456 C 0.12351 0.99221 0.36244 0.0
C1457 C 0.14756 0.99132 0.38652 0.0
C1458 C 0.15904 0.00033 0.40125 0.0
C1459 C 0.15052 0.01075 0.41556 0.0
C1460 C 0.16142 0.01933 0.42932 0.0
C1461 C 0.18086 0.01749 0.42898 0.0
C1462 C 0.18944 0.00702 0.41492 0.0
C1463 C 0.1786 -0.00157 0.40112 0.0
H1464 H 0.18928 0.02414 0.43964 0.0
H1465 H 0.08437 0.94043 0.30564 0.0
H1466 H 0.92998 0.16352 0.38472 0.0
H1467 H 0.96413 0.16545 0.38396 0.0
H1468 H 0.96645 0.11391 0.35287 0.0
H1469 H 0.93238 0.11182 0.3536 0.0
H1470 H 0.99167 0.11521 0.38228 0.0
H1471 H 0.97206 0.15419 0.33069 0.0
H1472 H 0.95444 0.18009 0.31635 0.0
H1473 H 0.98235 0.21926 0.35219 0.0
H1474 H -6e-05 0.19355 0.36695 0.0
H1475 H 0.08488 0.11468 0.35351 0.0
H1476 H 0.05078 0.11506 0.35326 0.0
H1477 H 0.05116 0.17097 0.37584 0.0
H1478 H 0.08539 0.17102 0.37508 0.0
H1479 H 0.02429 0.16834 0.35201 0.0
H1480 H 0.04398 0.13071 0.40372 0.0
H1481 H 0.06152 0.10547 0.4193 0.0
H1482 H 0.03332 0.06469 0.38554 0.0
H1483 H 0.01579 0.08971 0.36958 0.0
C1484 C 0.93777 0.15256 0.37778 0.0
C1485 C 0.92851 0.13752 0.3692 0.0
C1486 C 0.95725 0.15374 0.37729 0.0
C1487 C 0.96774 0.13989 0.36823 0.0
C1488 C 0.95856 0.12473 0.35991 0.0
C1489 C 0.9391 0.1236 0.3603 0.0
C1490 C 0.98834 0.14112 0.36742 0.0
C1491 C -0.00116 0.12671 0.3755 0.0
C1492 C 0.99759 0.15644 0.35908 0.0
C1493 C 0.98718 0.17192 0.35005 0.0
C1494 C 0.97433 0.16831 0.33561 0.0
C1495 C 0.96437 0.18296 0.32739 0.0
C1496 C 0.96724 0.20131 0.33339 0.0
C1497 C 0.98012 0.20504 0.34758 0.0
C1498 C 0.9901 0.19044 0.35587 0.0
C1499 C 0.07767 0.1271 0.35827 0.0
C1500 C 0.08772 0.14276 0.36449 0.0
C1501 C 0.05819 0.12728 0.35824 0.0
C1502 C 0.04839 0.14284 0.36505 0.0
C1503 C 0.05842 0.15876 0.37065 0.0
C1504 C 0.07795 0.15877 0.37023 0.0
C1505 C 0.02774 0.1423 0.36673 0.0
C1506 C 0.01719 0.15685 0.35887 0.0
C1507 C 0.01841 0.12721 0.37553 0.0
C1508 C 0.02868 0.1121 0.38536 0.0
C1509 C 0.04158 0.11636 0.39956 0.0
C1510 C 0.05152 0.1021 0.40846 0.0
C1511 C 0.04857 0.08349 0.40338 0.0
C1512 C 0.03561 0.07911 0.38945 0.0
C1513 C 0.02565 0.09332 0.38049 0.0
H1514 H 0.0563 0.07247 0.41027 0.0
H1515 H 0.9595 0.21263 0.32701 0.0
H1516 H 0.88613 0.93834 0.3934 0.0
H1517 H 0.8822 0.97217 0.39181 0.0
H1518 H 0.83002 0.96492 0.36241 0.0
H1519 H 0.83407 0.93108 0.36353 0.0
H1520 H 0.85002 0.99144 0.34651 0.0
H1521 H 0.83093 0.97716 0.40879 0.0
H1522 H 0.8335 0.96346 0.44028 0.0
H1523 H 0.88245 0.99643 0.45104 0.0
H1524 H 0.88034 0.01015 0.4195 0.0
H1525 H 0.82211 0.08679 0.35905 0.0
H1526 H 0.82299 0.05263 0.36033 0.0
H1527 H 0.87814 0.05483 0.38461 0.0
H1528 H 0.87743 0.08884 0.38345 0.0
H1529 H 0.85427 0.03089 0.40333 0.0
H1530 H 0.87351 0.04395 0.33993 0.0
H1531 H 0.86996 0.05782 0.3086 0.0
H1532 H 0.81905 0.02714 0.3004 0.0
H1533 H 0.82217 0.01328 0.33181 0.0
C1534 C 0.8738 0.94394 0.38663 0.0
C1535 C 0.86038 0.93205 0.37865 0.0
C1536 C 0.87153 0.96327 0.3858 0.0
C1537 C 0.85568 0.97104 0.37723 0.0
C1538 C 0.84234 0.95921 0.36913 0.0
C1539 C 0.84466 0.93988 0.36982 0.0
C1540 C 0.8532 0.99154 0.37646 0.0
C1541 C 0.85065 3e-05 0.35897 0.0
C1542 C 0.85426 0.00276 0.39271 0.0
C1543 C 0.85557 0.99456 0.41171 0.0
C1544 C 0.84233 0.98138 0.41781 0.0
C1545 C 0.84369 0.97363 0.43568 0.0
C1546 C 0.85815 0.97904 0.44764 0.0
C1547 C 0.87127 0.99224 0.44176 0.0
C1548 C 0.86998 3e-05 0.42389 0.0
C1549 C 0.83443 0.08 0.36464 0.0
C1550 C 0.84971 0.09052 0.37114 0.0
C1551 C 0.83492 0.06051 0.36531 0.0
C1552 C 0.85066 0.05129 0.37251 0.0
C1553 C 0.86587 0.06174 0.37904 0.0
C1554 C 0.86545 0.08117 0.37829 0.0
C1555 C 0.85134 0.0307 0.3734 0.0
C1556 C 0.85353 0.02223 0.39092 0.0
C1557 C 0.84979 0.0195 0.35722 0.0
C1558 C 0.84797 0.02774 0.3383 0.0
C1559 C 0.86148 0.04029 0.33151 0.0
C1560 C 0.85956 0.04812 0.31373 0.0
C1561 C 0.84426 0.04341 0.30254 0.0
C1562 C 0.83088 0.0308 0.30909 0.0
C1563 C 0.83272 0.02294 0.32688 0.0
H1564 H 0.8428 0.0495 0.28878 0.0
H1565 H 0.85918 0.97302 0.46147 0.0
H1566 H 0.91295 0.88075 0.36001 0.0
H1567 H 0.94701 0.87978 0.35708 0.0
H1568 H 0.94711 0.82223 0.37474 0.0
H1569 H 0.91298 0.82291 0.37737 0.0
H1570 H 0.97463 0.84716 0.39279 0.0
H1571 H 0.9524 0.82764 0.3323 0.0
H1572 H 0.93335 0.8306 0.30374 0.0
H1573 H 0.96005 0.88275 0.29099 0.0
H1574 H 0.97906 0.88025 0.31966 0.0
H1575 H 0.06811 0.82562 0.36978 0.0
H1576 H 0.03404 0.82459 0.37187 0.0
H1577 H 0.03051 0.87719 0.34267 0.0
H1578 H 0.06455 0.87812 0.34015 0.0
H1579 H 0.00433 0.8541 0.33053 0.0
H1580 H 0.02604 0.8748 0.39028 0.0
H1581 H 0.04469 0.87356 0.41923 0.0
H1582 H 0.0188 0.82154 0.43401 0.0
H1583 H 0.00018 0.82233 0.405 0.0
C1584 C 0.92021 0.86791 0.36335 0.0
C1585 C 0.91029 0.85189 0.36887 0.0
C1586 C 0.93964 0.86738 0.36162 0.0
C1587 C 0.94946 0.85092 0.36563 0.0
C1588 C 0.93969 0.83504 0.37159 0.0
C1589 C 0.92023 0.83545 0.37302 0.0
C1590 C 0.96993 0.85023 0.36327 0.0
C1591 C 0.98118 0.84839 0.37918 0.0
C1592 C 0.97833 0.85237 0.34553 0.0
C1593 C 0.96701 0.85385 0.32823 0.0
C1594 C 0.95408 0.83983 0.3235 0.0
C1595 C 0.94332 0.8414 0.30727 0.0
C1596 C 0.94545 0.85688 0.29559 0.0
C1597 C 0.95839 0.87079 0.30008 0.0
C1598 C 0.96918 0.86929 0.3163 0.0
C1599 C 0.06008 0.83692 0.36372 0.0
C1600 C 0.06902 0.85203 0.35492 0.0
C1601 C 0.04062 0.83635 0.36499 0.0
C1602 C 0.02976 0.85098 0.35772 0.0
C1603 C 0.03862 0.86578 0.34843 0.0
C1604 C 0.05809 0.8663 0.34703 0.0
C1605 C 0.00919 0.85101 0.36009 0.0
C1606 C 0.99787 0.85278 0.34417 0.0
C1607 C 0.00073 0.84903 0.37787 0.0
C1608 C 0.01187 0.84853 0.39536 0.0
C1609 C 0.02444 0.86302 0.39963 0.0
C1610 C 0.03498 0.86241 0.41606 0.0
C1611 C 0.03297 0.84745 0.42842 0.0
C1612 C 0.02037 0.8331 0.4244 0.0
C1613 C 0.00981 0.83363 0.40797 0.0
H1614 H 0.04115 0.84701 0.44114 0.0
H1615 H 0.93711 0.85807 0.28303 0.0
H1616 H 0.12169 0.0845 0.61495 0.0
H1617 H 0.12142 0.05055 0.61732 0.0
H1618 H 0.17227 0.05226 0.64979 0.0
H1619 H 0.17301 0.08628 0.64683 0.0
H1620 H 0.17452 0.02523 0.62623 0.0
H1621 H 0.12875 0.04437 0.67031 0.0
H1622 H 0.10116 0.06138 0.68197 0.0
H1623 H 0.06631 0.0327 0.64244 0.0
H1624 H 0.09375 0.01569 0.63036 0.0
H1625 H 0.13046 0.93117 0.66124 0.0
H1626 H 0.13349 0.96507 0.66308 0.0
H1627 H 0.15284 0.96648 0.60599 0.0
H1628 H 0.15044 0.93249 0.60427 0.0
H1629 H 0.11701 0.99193 0.64593 0.0
H1630 H 0.18309 0.00162 0.59938 0.0
H1631 H 0.21211 0.98461 0.59184 0.0
H1632 H 0.20904 0.95548 0.64418 0.0
H1633 H 0.18015 0.97249 0.65214 0.0
C1634 C 0.1328 0.07766 0.62263 0.0
C1635 C 0.14733 0.08804 0.63078 0.0
C1636 C 0.13259 0.05825 0.62405 0.0
C1637 C 0.14664 0.04887 0.63402 0.0
C1638 C 0.16126 0.0592 0.64205 0.0
C1639 C 0.16165 0.07863 0.64038 0.0
C1640 C 0.14614 0.02826 0.63584 0.0
C1641 C 0.16197 0.01795 0.6306 0.0
C1642 C 0.12993 0.01876 0.64203 0.0
C1643 C 0.11334 0.02886 0.64934 0.0
C1644 C 0.11523 0.04177 0.66402 0.0
C1645 C 0.09961 0.05141 0.67071 0.0
C1646 C 0.082 0.04815 0.66292 0.0
C1647 C 0.07996 0.03522 0.64845 0.0
C1648 C 0.09554 0.02556 0.64169 0.0
C1649 C 0.13538 0.9387 0.64908 0.0
C1650 C 0.14026 0.92919 0.63262 0.0
C1651 C 0.1371 0.95807 0.65015 0.0
C1652 C 0.14361 0.9683 0.63476 0.0
C1653 C 0.14818 0.95885 0.61818 0.0
C1654 C 0.14669 0.93944 0.61718 0.0
C1655 C 0.14524 0.98889 0.6359 0.0
C1656 C 0.1296 -0.0008 0.64168 0.0
C1657 C 0.16184 -0.00163 0.63085 0.0
C1658 C 0.17935 0.98822 0.62626 0.0
C1659 C 0.18865 0.99165 0.60931 0.0
C1660 C 0.20507 0.98199 0.60496 0.0
C1661 C 0.21238 0.96893 0.61749 0.0
C1662 C 0.20332 0.96555 0.63444 0.0
C1663 C 0.18691 0.97518 0.63887 0.0
H1664 H 0.22508 0.96146 0.61409 0.0
H1665 H 0.06992 0.05563 0.66812 0.0
H1666 H 0.0691 0.16421 0.62079 0.0
H1667 H 0.03512 0.16638 0.62294 0.0
H1668 H 0.03015 0.10939 0.604 0.0
H1669 H 0.06414 0.10724 0.60138 0.0
H1670 H 0.00427 0.1309 0.58802 0.0
H1671 H 0.02685 0.1206 0.65048 0.0
H1672 H 0.04623 0.12713 0.67822 0.0
H1673 H 0.02116 0.18138 0.68329 0.0
H1674 H 0.0018 0.17526 0.65541 0.0
H1675 H 0.91294 0.11094 0.61912 0.0
H1676 H 0.94688 0.11108 0.61598 0.0
H1677 H 0.94828 0.16936 0.63113 0.0
H1678 H 0.91424 0.16939 0.63442 0.0
H1679 H 0.97577 0.14849 0.64873 0.0
H1680 H 0.95234 0.15803 0.58665 0.0
H1681 H 0.93291 0.15104 0.55907 0.0
H1682 H 0.95952 0.09758 0.55355 0.0
H1683 H 0.97893 0.10414 0.58128 0.0
C1684 C 0.06078 0.15217 0.61695 0.0
C1685 C 0.0693 0.1355 0.61103 0.0
C1686 C 0.04137 0.15342 0.61827 0.0
C1687 C 0.03015 0.13794 0.61395 0.0
C1688 C 0.03858 0.12148 0.60746 0.0
C1689 C 0.058 0.12026 0.606 0.0
C1690 C 0.00964 0.13876 0.61657 0.0
C1691 C 0.99804 0.13454 0.60134 0.0
C1692 C 0.00154 0.14391 0.63387 0.0
C1693 C 0.01302 0.14754 0.65075 0.0
C1694 C 0.02556 0.13397 0.65743 0.0
C1695 C 0.03653 0.13759 0.67319 0.0
C1696 C 0.03496 0.15468 0.68248 0.0
C1697 C 0.02237 0.16816 0.67607 0.0
C1698 C 0.01139 0.16462 0.6603 0.0
C1699 C 0.92043 0.12379 0.62189 0.0
C1700 C 0.91086 0.1402 0.62689 0.0
C1701 C 0.93982 0.12385 0.62001 0.0
C1702 C 0.95001 0.14029 0.62307 0.0
C1703 C 0.94061 0.15655 0.62863 0.0
C1704 C 0.92117 0.15654 0.63046 0.0
C1705 C 0.97046 0.14051 0.62022 0.0
C1706 C 0.98203 0.14492 0.63539 0.0
C1707 C 0.97854 0.13546 0.60291 0.0
C1708 C 0.96697 0.13152 0.58615 0.0
C1709 C 0.95395 0.14472 0.57964 0.0
C1710 C 0.94296 0.14085 0.56397 0.0
C1711 C 0.94495 0.12385 0.55459 0.0
C1712 C 0.95798 0.11072 0.56084 0.0
C1713 C 0.96899 0.11452 0.57652 0.0
H1714 H 0.93643 0.12088 0.54245 0.0
H1715 H 0.04347 0.15746 0.69467 0.0
H1716 H 0.83768 0.90584 0.65645 0.0
H1717 H 0.83987 0.93989 0.65765 0.0
H1718 H 0.88025 0.93886 0.61284 0.0
H1719 H 0.87872 0.90483 0.61221 0.0
H1720 H 0.89022 0.96375 0.63616 0.0
H1721 H 0.83252 0.94895 0.60568 0.0
H1722 H 0.8017 0.93393 0.60222 0.0
H1723 H 0.78181 0.96278 0.65089 0.0
H1724 H 0.81261 0.9778 0.65478 0.0
H1725 H 0.84582 0.05966 0.60931 0.0
H1726 H 0.84529 0.02555 0.60921 0.0
H1727 H 0.87851 0.02479 0.65955 0.0
H1728 H 0.87955 0.05886 0.65945 0.0
H1729 H 0.8318 0.0009 0.63222 0.0
H1730 H 0.90717 0.98726 0.65951 0.0
H1731 H 0.9383 0.00204 0.65827 0.0
H1732 H 0.92328 0.02999 0.60736 0.0
H1733 H 0.89218 0.01517 0.60816 0.0
C1734 C 0.84708 0.91291 0.64694 0.0
C1735 C 0.85791 0.90276 0.63414 0.0
C1736 C 0.84828 0.93235 0.64758 0.0
C1737 C 0.85993 0.94196 0.63506 0.0
C1738 C 0.87115 0.93176 0.62263 0.0
C1739 C 0.87025 0.91232 0.62226 0.0
C1740 C 0.86016 0.96264 0.63455 0.0
C1741 C 0.87744 0.97187 0.63533 0.0
C1742 C 0.84351 0.97324 0.63302 0.0
C1743 C 0.82492 0.96436 0.63062 0.0
C1744 C 0.82161 0.95201 0.61571 0.0
C1745 C 0.80414 0.9435 0.61367 0.0
C1746 C 0.78982 0.94736 0.62636 0.0
C1747 C 0.79292 0.95979 0.64109 0.0
C1748 C 0.81038 0.96831 0.64321 0.0
C1749 C 0.85305 0.05222 0.62034 0.0
C1750 C 0.86284 0.06192 0.63432 0.0
C1751 C 0.85268 0.03274 0.62029 0.0
C1752 C 0.86203 0.02264 0.63425 0.0
C1753 C 0.8715 0.03231 0.64844 0.0
C1754 C 0.87203 0.05178 0.6484 0.0
C1755 C 0.86185 0.00198 0.63396 0.0
C1756 C 0.84457 0.99277 0.63308 0.0
C1757 C 0.87853 0.99139 0.6347 0.0
C1758 C 0.89727 0.00026 0.63403 0.0
C1759 C 0.91053 0.99651 0.64803 0.0
C1760 C 0.92817 0.0049 0.6474 0.0
C1761 C 0.93274 0.017 0.63279 0.0
C1762 C 0.9197 0.02068 0.61872 0.0
C1763 C 0.90206 0.01231 0.61927 0.0
H1764 H 0.94639 0.02348 0.63233 0.0
H1765 H 0.77631 0.94075 0.62476 0.0
H1766 H 0.08882 0.83603 0.65649 0.0
H1767 H 0.05464 0.83566 0.658 0.0
H1768 H 0.05209 0.86597 0.60584 0.0
H1769 H 0.08618 0.86772 0.60528 0.0
H1770 H 0.02685 0.87848 0.62559 0.0
H1771 H 0.04483 0.81544 0.6113 0.0
H1772 H 0.06167 0.78573 0.61591 0.0
H1773 H 0.03475 0.77835 0.66899 0.0
H1774 H 0.01789 0.80813 0.66478 0.0
H1775 H 0.93357 0.84992 0.60146 0.0
H1776 H 0.96788 0.84969 0.60178 0.0
H1777 H 0.96744 0.84536 0.66185 0.0
H1778 H 0.93321 0.84611 0.66171 0.0
H1779 H 0.99328 0.81924 0.63848 0.0
H1780 H 0.97553 0.88402 0.65065 0.0
H1781 H 0.9583 0.9129 0.64318 0.0
H1782 H 0.98486 0.91519 0.58945 0.0
H1783 H 0.00203 0.88614 0.59651 0.0
C1784 C 0.08085 0.84273 0.64549 0.0
C1785 C 0.08996 0.8519 0.63078 0.0
C1786 C 0.06135 0.84236 0.64623 0.0
C1787 C 0.05069 0.85035 0.63177 0.0
C1788 C 0.05992 0.85969 0.61717 0.0
C1789 C 0.07938 0.86067 0.61682 0.0
C1790 C 0.02996 0.84912 0.63179 0.0
C1791 C 0.01963 0.86542 0.62817 0.0
C1792 C 0.02034 0.83216 0.63537 0.0
C1793 C 0.03023 0.8141 0.6378 0.0
C1794 C 0.04257 0.80752 0.62399 0.0
C1795 C 0.05211 0.79067 0.62653 0.0
C1796 C 0.04932 0.78019 0.64276 0.0
C1797 C 0.03691 0.7865 0.65644 0.0
C1798 C 0.02734 0.80335 0.65397 0.0
C1799 C 0.94081 0.84882 0.6147 0.0
C1800 C 0.93081 0.84816 0.63157 0.0
C1801 C 0.96033 0.84868 0.61486 0.0
C1802 C 0.97003 0.84752 0.63185 0.0
C1803 C 0.96009 0.84624 0.64864 0.0
C1804 C 0.94061 0.84678 0.64853 0.0
C1805 C 0.99058 0.84846 0.63215 0.0
C1806 C 0.00074 0.83217 0.63585 0.0
C1807 C 7e-05 0.86526 0.62818 0.0
C1808 C 0.98989 0.88281 0.62403 0.0
C1809 C 0.97755 0.89058 0.63718 0.0
C1810 C 0.96783 0.90701 0.63303 0.0
C1811 C 0.97044 0.91585 0.61583 0.0
C1812 C 0.98283 0.90831 0.60276 0.0
C1813 C 0.99256 0.89188 0.60683 0.0
H1814 H 0.9629 0.92856 0.61265 0.0
H1815 H 0.05675 0.76716 0.64472 0.0
H1816 H 0.34425 0.16358 0.90739 0.0
H1817 H 0.34213 0.16501 0.94146 0.0
H1818 H 0.39722 0.14059 0.94584 0.0
H1819 H 0.39855 0.13771 0.91185 0.0
H1820 H 0.37771 0.12557 0.96996 0.0
H1821 H 0.38572 0.19023 0.95346 0.0
H1822 H 0.37833 0.21946 0.93678 0.0
H1823 H 0.32368 0.22019 0.96153 0.0
H1824 H 0.33069 0.19086 0.97823 0.0
H1825 H 0.39473 0.15128 0.06441 0.0
H1826 H 0.39578 0.15307 0.03026 0.0
H1827 H 0.3356 0.1558 0.02835 0.0
H1828 H 0.33438 0.15366 0.06249 0.0
H1829 H 0.35706 0.18242 0.00378 0.0
H1830 H 0.35072 0.11688 0.02013 0.0
H1831 H 0.35985 0.08832 0.03708 0.0
H1832 H 0.41454 0.09083 0.01252 0.0
H1833 H 0.40581 0.1196 0.99565 0.0
C1834 C 0.35587 0.15857 0.91573 0.0
C1835 C 0.37157 0.15056 0.90717 0.0
C1836 C 0.35475 0.15954 0.93517 0.0
C1837 C 0.36969 0.1533 0.94632 0.0
C1838 C 0.38548 0.14549 0.93762 0.0
C1839 C 0.38629 0.14389 0.91823 0.0
C1840 C 0.3687 0.15421 0.96703 0.0
C1841 C 0.37349 0.13816 0.97726 0.0
C1842 C 0.36279 0.17045 0.97672 0.0
C1843 C 0.35868 0.18827 0.96697 0.0
C1844 C 0.37211 0.19659 0.95528 0.0
C1845 C 0.36799 0.21318 0.94583 0.0
C1846 C 0.35053 0.22165 0.94806 0.0
C1847 C 0.33719 0.2136 0.95981 0.0
C1848 C 0.34124 0.19702 0.9693 0.0
C1849 C 0.38174 0.15243 0.05673 0.0
C1850 C 0.36446 0.15219 0.06605 0.0
C1851 C 0.38237 0.15345 0.03727 0.0
C1852 C 0.36576 0.15452 0.02692 0.0
C1853 C 0.34853 0.15502 0.03619 0.0
C1854 C 0.34787 0.15368 0.05563 0.0
C1855 C 0.36637 0.15397 0.00635 0.0
C1856 C 0.36141 0.16999 0.99627 0.0
C1857 C 0.37247 0.13787 0.99677 0.0
C1858 C 0.37767 0.1205 0.0068 0.0
C1859 C 0.36475 0.11144 0.01849 0.0
C1860 C 0.36984 0.0952 0.02805 0.0
C1861 C 0.38779 0.0878 0.02592 0.0
C1862 C 0.40066 0.0966 0.01418 0.0
C1863 C 0.39564 0.11286 0.0046 0.0
H1864 H 0.3917 0.07522 0.03333 0.0
H1865 H 0.34735 0.23447 0.9407 0.0
H1866 H 0.88932 0.35871 0.05751 0.0
H1867 H 0.88556 0.36062 0.02363 0.0
H1868 H 0.82916 0.38067 0.03077 0.0
H1869 H 0.83276 0.37881 0.06472 0.0
H1870 H 0.83264 0.35257 0.00359 0.0
H1871 H 0.86138 0.41106 0.01994 0.0
H1872 H 0.88511 0.43112 0.03482 0.0
H1873 H 0.9281 0.40528 0.00192 0.0
H1874 H 0.90465 0.38487 0.98703 0.0
H1875 H 0.82071 0.37857 0.90861 0.0
H1876 H 0.82189 0.379 0.94274 0.0
H1877 H 0.88114 0.36773 0.94092 0.0
H1878 H 0.88021 0.36806 0.90689 0.0
H1879 H 0.87468 0.39282 0.96596 0.0
H1880 H 0.84738 0.3333 0.95076 0.0
H1881 H 0.8245 0.31222 0.93593 0.0
H1882 H 0.78003 0.33831 0.96659 0.0
H1883 H 0.80262 0.35973 0.98142 0.0
C1884 C 0.8761 0.3635 0.05188 0.0
C1885 C 0.86137 0.36871 0.06376 0.0
C1886 C 0.87401 0.36463 0.03255 0.0
C1887 C 0.85715 0.37094 0.02478 0.0
C1888 C 0.84228 0.37581 0.03656 0.0
C1889 C 0.84441 0.37481 0.05592 0.0
C1890 C 0.85513 0.37253 0.00432 0.0
C1891 C 0.84162 0.36156 0.99533 0.0
C1892 C 0.86716 0.38397 0.99364 0.0
C1893 C 0.88127 0.39633 0.00249 0.0
C1894 C 0.87591 0.40955 0.01598 0.0
C1895 C 0.88931 0.421 0.0244 0.0
C1896 C 0.90811 0.41944 0.01935 0.0
C1897 C 0.91354 0.40646 0.00583 0.0
C1898 C 0.90019 0.39496 0.99738 0.0
C1899 C 0.83398 0.37622 0.91551 0.0
C1900 C 0.85036 0.37324 0.90509 0.0
C1901 C 0.83462 0.37638 0.935 0.0
C1902 C 0.85155 0.37311 0.94439 0.0
C1903 C 0.86793 0.3703 0.93398 0.0
C1904 C 0.86736 0.37045 0.91453 0.0
C1905 C 0.85235 0.37262 0.96506 0.0
C1906 C 0.86561 0.38386 0.97415 0.0
C1907 C 0.84024 0.36124 0.9758 0.0
C1908 C 0.82666 0.34824 0.96705 0.0
C1909 C 0.8327 0.33462 0.95425 0.0
C1910 C 0.81979 0.3226 0.94585 0.0
C1911 C 0.80082 0.32396 0.95027 0.0
C1912 C 0.79473 0.3373 0.96315 0.0
C1913 C 0.80758 0.34937 0.97157 0.0
H1914 H 0.79084 0.31466 0.94375 0.0
H1915 H 0.91846 0.42832 0.02589 0.0
H1916 H 0.61606 0.8786 0.91042 0.0
H1917 H 0.61855 0.87904 0.94437 0.0
H1918 H 0.65271 0.82939 0.94272 0.0
H1919 H 0.64983 0.82851 0.9087 0.0
H1920 H 0.6279 0.82634 0.96922 0.0
H1921 H 0.67189 0.87286 0.95107 0.0
H1922 H 0.68315 0.90083 0.93443 0.0
H1923 H 0.64278 0.93458 0.96322 0.0
H1924 H 0.63109 0.90677 0.97984 0.0
H1925 H 0.66278 0.86734 0.0642 0.0
H1926 H 0.66443 0.86571 0.03017 0.0
H1927 H 0.60684 0.84787 0.02814 0.0
H1928 H 0.60525 0.84896 0.06221 0.0
H1929 H 0.64701 0.88345 0.00351 0.0
H1930 H 0.60032 0.818 0.99234 0.0
H1931 H 0.59207 0.78898 0.00897 0.0
H1932 H 0.64406 0.79096 0.03889 0.0
H1933 H 0.65275 0.81982 0.02225 0.0
C1934 C 0.62418 0.8678 0.91725 0.0
C1935 C 0.63278 0.85353 0.90687 0.0
C1936 C 0.62565 0.86813 0.93666 0.0
C1937 C 0.63603 0.8544 0.94605 0.0
C1938 C 0.64464 0.84013 0.93574 0.0
C1939 C 0.64301 0.83967 0.91631 0.0
C1940 C 0.63751 0.85474 0.96667 0.0
C1941 C 0.63214 0.8388 0.97672 0.0
C1942 C 0.64341 0.87089 0.97644 0.0
C1943 C 0.65052 0.8877 0.9666 0.0
C1944 C 0.66533 0.88623 0.95377 0.0
C1945 C 0.6718 0.90206 0.94435 0.0
C1946 C 0.66366 0.91946 0.94774 0.0
C1947 C 0.64907 0.92109 0.9606 0.0
C1948 C 0.64253 0.9053 0.97004 0.0
C1949 C 0.65046 0.86308 0.05651 0.0
C1950 C 0.63391 0.85819 0.06587 0.0
C1951 C 0.65142 0.86218 0.03707 0.0
C1952 C 0.63584 0.85644 0.02665 0.0
C1953 C 0.61915 0.85197 0.03594 0.0
C1954 C 0.61823 0.85269 0.05539 0.0
C1955 C 0.63703 0.85518 0.00604 0.0
C1956 C 0.64287 0.87096 0.99601 0.0
C1957 C 0.63206 0.83872 0.99629 0.0
C1958 C 0.62709 0.82118 0.00616 0.0
C1959 C 0.61003 0.81219 0.0024 0.0
C1960 C 0.60527 0.79578 0.01184 0.0
C1961 C 0.61751 0.78816 0.02502 0.0
C1962 C 0.63457 0.7969 0.02873 0.0
C1963 C 0.63941 0.8133 0.01931 0.0
H1964 H 0.61378 0.77546 0.03232 0.0
H1965 H 0.66869 0.9317 0.94042 0.0
H1966 H 0.14499 0.61207 0.06043 0.0
H1967 H 0.14751 0.61382 0.02649 0.0
H1968 H 0.13851 0.67338 0.02876 0.0
H1969 H 0.13534 0.67162 0.06273 0.0
H1970 H 0.11895 0.65943 0.00176 0.0
H1971 H 0.18254 0.65435 0.02057 0.0
H1972 H 0.20963 0.64118 0.03731 0.0
H1973 H 0.20294 0.58933 0.00795 0.0
H1974 H 0.17563 0.60209 0.99122 0.0
H1975 H 0.1716 0.6477 0.90597 0.0
H1976 H 0.17209 0.65308 0.93971 0.0
H1977 H 0.11738 0.62817 0.9445 0.0
H1978 H 0.11655 0.62321 0.91085 0.0
H1979 H 0.17159 0.62978 0.96778 0.0
H1980 H 0.09296 0.64733 0.9791 0.0
H1981 H 0.06731 0.66301 0.96222 0.0
H1982 H 0.10715 0.69538 0.9312 0.0
H1983 H 0.13302 0.68008 0.94805 0.0
C1984 C 0.14359 0.62555 0.05371 0.0
C1985 C 0.13999 0.64172 0.06423 0.0
C1986 C 0.14514 0.62655 0.03432 0.0
C1987 C 0.14352 0.64378 0.0251 0.0
C1988 C 0.13986 0.65994 0.03558 0.0
C1989 C 0.13806 0.65891 0.05498 0.0
C1990 C 0.14512 0.64479 0.00449 0.0
C1991 C 0.13051 0.65305 0.99434 0.0
C1992 C 0.16044 0.63685 0.9948 0.0
C1993 C 0.17695 0.62915 0.00473 0.0
C1994 C 0.18677 0.6401 0.01776 0.0
C1995 C 0.20218 0.63271 0.02724 0.0
C1996 C 0.20799 0.61442 0.02372 0.0
C1997 C 0.19842 0.60349 0.01067 0.0
C1998 C 0.18299 0.6108 0.00117 0.0
C1999 C 0.15963 0.64347 0.9142 0.0
C2000 C 0.14401 0.63507 0.90572 0.0
C2001 C 0.15995 0.64653 0.93347 0.0
C2002 C 0.14469 0.64124 0.94459 0.0
C2003 C 0.12915 0.63275 0.93615 0.0
C2004 C 0.12874 0.62984 0.91691 0.0
C2005 C 0.14517 0.64396 0.96509 0.0
C2006 C 0.16015 0.63637 0.97522 0.0
C2007 C 0.13043 0.65294 0.97476 0.0
C2008 C 0.11493 0.66245 0.96476 0.0
C2009 C 0.09624 0.65787 0.96875 0.0
C2010 C 0.08166 0.66667 0.95917 0.0
C2011 C 0.0856 0.68015 0.94561 0.0
C2012 C 0.10412 0.68489 0.94166 0.0
C2013 C 0.11875 0.67614 0.95121 0.0
H2014 H 0.07429 0.68693 0.9382 0.0
H2015 H 0.21991 0.60872 0.03108 0.0
H2016 H 0.33498 0.83447 0.0865 0.0
H2017 H 0.33293 0.83429 0.05235 0.0
H2018 H 0.37975 0.8723 0.04949 0.0
H2019 H 0.38075 0.87362 0.08353 0.0
H2020 H 0.35764 0.88214 0.02495 0.0
H2021 H 0.3821 0.82169 0.04174 0.0
H2022 H 0.38205 0.79134 0.05805 0.0
H2023 H 0.33055 0.77657 0.03099 0.0
H2024 H 0.33019 0.80693 0.01468 0.0
H2025 H 0.38083 0.83493 0.93065 0.0
H2026 H 0.37992 0.83358 0.96479 0.0
H2027 H 0.33154 0.86955 0.96497 0.0
H2028 H 0.33252 0.87124 0.93094 0.0
H2029 H 0.3548 0.82218 0.99032 0.0
H2030 H 0.3355 0.90022 0.0002 0.0
H2031 H 0.33982 0.93017 0.9837 0.0
H2032 H 0.38941 0.90894 0.95744 0.0
H2033 H 0.38551 0.87896 0.97395 0.0
C2034 C 0.34471 0.84285 0.07849 0.0
C2035 C 0.35803 0.85404 0.08752 0.0
C2036 C 0.34366 0.84263 0.05899 0.0
C2037 C 0.35646 0.85296 0.04824 0.0
C2038 C 0.36968 0.86423 0.05739 0.0
C2039 C 0.37029 0.86495 0.07684 0.0
C2040 C 0.35622 0.85213 0.02749 0.0
C2041 C 0.35701 0.86899 0.01746 0.0
C2042 C 0.35569 0.835 0.01755 0.0
C2043 C 0.35605 0.81664 0.02712 0.0
C2044 C 0.37073 0.81199 0.03933 0.0
C2045 C 0.37078 0.79479 0.04857 0.0
C2046 C 0.35628 0.78205 0.04559 0.0
C2047 C 0.34176 0.78646 0.0333 0.0
C2048 C 0.34164 0.80365 0.02404 0.0
C2049 C 0.36994 0.84247 0.93796 0.0
C2050 C 0.35688 0.85336 0.92812 0.0
C2051 C 0.36939 0.84161 0.95744 0.0
C2052 C 0.35581 0.85165 0.96738 0.0
C2053 C 0.34231 0.86193 0.95756 0.0
C2054 C 0.34289 0.86286 0.93811 0.0
C2055 C 0.35625 0.85212 0.98804 0.0
C2056 C 0.35542 0.83526 -0.00205 0.0
C2057 C 0.35747 0.86917 -0.0021 0.0
C2058 C 0.36008 0.88729 0.98817 0.0
C2059 C 0.34736 0.90198 0.99096 0.0
C2060 C 0.34973 0.91895 0.98159 0.0
C2061 C 0.36485 0.92143 0.96948 0.0
C2062 C 0.37767 0.90697 0.96677 0.0
C2063 C 0.37537 0.88999 0.97611 0.0
H2064 H 0.36664 0.93457 0.96223 0.0
H2065 H 0.35633 0.76875 0.05277 0.0
H2066 H 0.10903 0.35595 0.9377 0.0
H2067 H 0.11239 0.35666 0.97165 0.0
H2068 H 0.1697 0.37441 0.96584 0.0
H2069 H 0.1665 0.37373 0.93179 0.0
H2070 H 0.16456 0.34572 0.99222 0.0
H2071 H 0.13876 0.40586 0.97701 0.0
H2072 H 0.11622 0.42741 0.96236 0.0
H2073 H 0.07158 0.40279 0.99396 0.0
H2074 H 0.09383 0.38089 0.00861 0.0
H2075 H 0.17769 0.37193 0.08691 0.0
H2076 H 0.1762 0.37139 0.05284 0.0
H2077 H 0.11669 0.36183 0.05544 0.0
H2078 H 0.11794 0.36304 0.08948 0.0
H2079 H 0.12393 0.38702 0.03028 0.0
H2080 H 0.14868 0.32643 0.04498 0.0
H2081 H 0.17056 0.30422 0.05965 0.0
H2082 H 0.21617 0.32842 0.02912 0.0
H2083 H 0.19459 0.35096 0.01446 0.0
C2084 C 0.12237 0.35997 0.94363 0.0
C2085 C 0.13747 0.36489 0.9321 0.0
C2086 C 0.12424 0.36042 0.96301 0.0
C2087 C 0.14124 0.36574 0.97117 0.0
C2088 C 0.15647 0.3703 0.95974 0.0
C2089 C 0.15458 0.36999 0.94033 0.0
C2090 C 0.143 0.3667 0.99169 0.0
C2091 C 0.15588 0.35492 0.00058 0.0
C2092 C 0.13133 0.3784 0.00249 0.0
C2093 C 0.11794 0.39162 0.99377 0.0
C2094 C 0.12412 0.40494 0.98072 0.0
C2095 C 0.1114 0.41724 0.97244 0.0
C2096 C 0.09247 0.41644 0.97719 0.0
C2097 C 0.08624 0.40337 0.99028 0.0
C2098 C 0.0989 0.39103 -0.00141 0.0
C2099 C 0.16429 0.36966 0.08022 0.0
C2100 C 0.14793 0.36751 0.09087 0.0
C2101 C 0.16348 0.36927 0.06075 0.0
C2102 C 0.14637 0.36632 0.0516 0.0
C2103 C 0.13004 0.36414 0.06222 0.0
C2104 C 0.13079 0.36479 0.08167 0.0
C2105 C 0.14537 0.36588 0.03095 0.0
C2106 C 0.13264 0.3778 0.02199 0.0
C2107 C 0.15707 0.35417 0.02011 0.0
C2108 C 0.17004 0.3405 0.02876 0.0
C2109 C 0.16339 0.3271 0.04149 0.0
C2110 C 0.17574 0.31444 0.04979 0.0
C2111 C 0.19475 0.31494 0.04536 0.0
C2112 C 0.20144 0.32807 0.03256 0.0
C2113 C 0.18916 0.34077 0.02424 0.0
H2114 H 0.20429 0.30513 0.05181 0.0
H2115 H 0.08265 0.42597 0.97077 0.0
H2116 H 0.61546 0.11497 0.08474 0.0
H2117 H 0.61331 0.1151 0.05077 0.0
H2118 H 0.63505 0.17128 0.04941 0.0
H2119 H 0.63686 0.17146 0.08353 0.0
H2120 H 0.60599 0.16799 0.02656 0.0
H2121 H 0.66237 0.13389 0.03723 0.0
H2122 H 0.68234 0.10959 0.05128 0.0
H2123 H 0.64785 0.06689 0.02708 0.0
H2124 H 0.6275 0.09095 0.0131 0.0
H2125 H 0.62516 0.16707 0.92857 0.0
H2126 H 0.62795 0.16863 0.96257 0.0
H2127 H 0.60182 0.11457 0.96733 0.0
H2128 H 0.59899 0.11284 0.93333 0.0
H2129 H 0.63421 0.11764 0.98821 0.0
H2130 H 0.57751 0.15249 0.97813 0.0
H2131 H 0.5581 0.17721 0.96403 0.0
H2132 H 0.59442 0.21911 0.98691 0.0
H2133 H 0.6142 0.19461 0.00094 0.0
C2134 C 0.61988 0.12735 0.07725 0.0
C2135 C 0.62637 0.1432 0.08686 0.0
C2136 C 0.6187 0.12737 0.05781 0.0
C2137 C 0.62425 0.14311 0.04755 0.0
C2138 C 0.63072 0.15898 0.05707 0.0
C2139 C 0.63179 0.15903 0.07656 0.0
C2140 C 0.62292 0.14309 0.0269 0.0
C2141 C 0.61241 0.15715 0.01815 0.0
C2142 C 0.63103 0.12875 0.01597 0.0
C2143 C 0.64331 0.11423 0.02425 0.0
C2144 C 0.65896 0.11932 0.03502 0.0
C2145 C 0.67036 0.10559 0.04295 0.0
C2146 C 0.66634 0.08671 0.04011 0.0
C2147 C 0.65093 0.08152 0.02928 0.0
C2148 C 0.63947 0.0952 0.02133 0.0
C2149 C 0.61989 0.15556 0.93685 0.0
C2150 C 0.61183 0.13983 0.92827 0.0
C2151 C 0.62146 0.1565 0.95627 0.0
C2152 C 0.61501 0.14175 0.96742 0.0
C2153 C 0.60688 0.12608 0.95892 0.0
C2154 C 0.6052 0.12517 0.93951 0.0
C2155 C 0.61717 0.14242 0.98795 0.0
C2156 C 0.62786 0.1285 0.99665 0.0
C2157 C 0.60936 0.15695 -0.0012 0.0
C2158 C 0.59744 0.1717 0.99042 0.0
C2159 C 0.58145 0.16697 0.98002 0.0
C2160 C 0.57036 0.18094 0.97207 0.0
C2161 C 0.57505 0.19972 0.97453 0.0
C2162 C 0.59082 0.20456 0.985 0.0
C2163 C 0.60196 0.19064 0.99297 0.0
H2164 H 0.56645 0.21052 0.96836 0.0
H2165 H 0.67518 0.0761 0.04627 0.0
H2166 H 0.88607 0.63342 0.93691 0.0
H2167 H 0.88407 0.63464 0.97094 0.0
H2168 H 0.83187 0.60456 0.96911 0.0
H2169 H 0.83369 0.60332 0.935 0.0
H2170 H 0.83076 0.63628 0.99161 0.0
H2171 H 0.87009 0.58233 0.9827 0.0
H2172 H 0.89725 0.56531 0.97008 0.0
H2173 H 0.93445 0.60331 -0.00215 0.0
H2174 H 0.9075 0.62072 0.01044 0.0
H2175 H 0.82213 0.61831 0.08815 0.0
H2176 H 0.82417 0.61618 0.05421 0.0
H2177 H 0.88075 0.63712 0.05626 0.0
H2178 H 0.87909 0.63827 0.09037 0.0
H2179 H 0.87954 0.60994 0.03325 0.0
H2180 H 0.84154 0.66441 0.04187 0.0
H2181 H 0.81509 0.68264 0.05432 0.0
H2182 H 0.77638 0.64594 0.02687 0.0
H2183 H 0.8026 0.62733 0.01445 0.0
C2184 C 0.87421 0.62696 0.94374 0.0
C2185 C 0.86005 0.61824 0.93329 0.0
C2186 C 0.87313 0.62763 0.96317 0.0
C2187 C 0.85789 0.61959 0.97248 0.0
C2188 C 0.84375 0.61082 0.96213 0.0
C2189 C 0.84486 0.61005 0.94268 0.0
C2190 C 0.8565 0.62077 0.99302 0.0
C2191 C 0.84126 0.63032 0.00078 0.0
C2192 C 0.87055 0.61348 0.00482 0.0
C2193 C 0.88677 0.60292 0.99738 0.0
C2194 C 0.88406 0.58714 0.986 0.0
C2195 C 0.89942 0.57741 0.97887 0.0
C2196 C 0.91757 0.58325 0.98312 0.0
C2197 C 0.92039 0.59881 0.99456 0.0
C2198 C 0.90507 0.6086 0.00171 0.0
C2199 C 0.83495 0.62259 0.08134 0.0
C2200 C 0.85043 0.62853 0.09183 0.0
C2201 C 0.83608 0.62145 0.06193 0.0
C2202 C 0.8525 0.62682 0.05263 0.0
C2203 C 0.86793 0.63292 0.06312 0.0
C2204 C 0.86696 0.63363 0.08258 0.0
C2205 C 0.85378 0.62555 0.032 0.0
C2206 C 0.869 0.61596 0.02417 0.0
C2207 C 0.83983 0.63305 0.02011 0.0
C2208 C 0.82404 0.64438 0.02736 0.0
C2209 C 0.82738 0.66016 0.03857 0.0
C2210 C 0.81243 0.67057 0.04562 0.0
C2211 C 0.79406 0.66542 0.04142 0.0
C2212 C 0.79061 0.6499 0.03012 0.0
C2213 C 0.80551 0.63942 0.02306 0.0
H2214 H 0.78251 0.67349 0.04691 0.0
H2215 H 0.92944 0.5757 0.97758 0.0
H2216 H 0.91329 0.36594 0.11298 0.0
H2217 H 0.94747 0.36465 0.11284 0.0
H2218 H 0.94834 0.37503 0.17216 0.0
H2219 H 0.91413 0.37603 0.17255 0.0
H2220 H 0.9744 0.3972 0.14915 0.0
H2221 H 0.95495 0.33374 0.1612 0.0
H2222 H 0.93693 0.30512 0.15472 0.0
H2223 H 0.96309 0.30048 0.10094 0.0
H2224 H 0.98106 0.32926 0.107 0.0
H2225 H 0.06896 0.37511 0.16711 0.0
H2226 H 0.03486 0.37666 0.16828 0.0
H2227 H 0.03177 0.35247 0.11313 0.0
H2228 H 0.06583 0.35033 0.11213 0.0
H2229 H 0.00636 0.3375 0.13432 0.0
H2230 H 0.02563 0.40005 0.12097 0.0
H2231 H 0.04305 0.42941 0.12555 0.0
H2232 H 0.01703 0.43686 0.17907 0.0
H2233 H -0.00037 0.4074 0.17492 0.0
C2234 C 0.92075 0.36804 0.12598 0.0
C2235 C 0.91105 0.37102 0.14279 0.0
C2236 C 0.94023 0.36727 0.12587 0.0
C2237 C 0.95029 0.36968 0.1425 0.0
C2238 C 0.94072 0.37314 0.15921 0.0
C2239 C 0.92122 0.37363 0.1594 0.0
C2240 C 0.97084 0.36813 0.14249 0.0
C2241 C 0.98147 0.38413 0.14616 0.0
C2242 C 0.97986 0.35116 0.13807 0.0
C2243 C 0.9692 0.33376 0.13447 0.0
C2244 C 0.95673 0.32671 0.14792 0.0
C2245 C 0.94655 0.31044 0.14434 0.0
C2246 C 0.94882 0.30101 0.12741 0.0
C2247 C 0.96132 0.30781 0.11404 0.0
C2248 C 0.97152 0.32409 0.11755 0.0
C2249 C 0.061 0.3701 0.15525 0.0
C2250 C 0.07004 0.3627 0.13948 0.0
C2251 C 0.04153 0.37107 0.1559 0.0
C2252 C 0.03078 0.36499 0.14065 0.0
C2253 C 0.03979 0.35728 0.12504 0.0
C2254 C 0.05925 0.35609 0.12448 0.0
C2255 C 0.01014 0.36663 0.14096 0.0
C2256 C -0.00059 0.35062 0.13734 0.0
C2257 C 0.00104 0.38369 0.14517 0.0
C2258 C 0.01148 0.40142 0.14772 0.0
C2259 C 0.02373 0.40787 0.13378 0.0
C2260 C 0.03358 0.42454 0.13629 0.0
C2261 C 0.03119 0.43497 0.15261 0.0
C2262 C 0.01889 0.42876 0.16645 0.0
C2263 C 0.00903 0.41208 0.16402 0.0
H2264 H 0.03882 0.44787 0.15453 0.0
H2265 H 0.94093 0.28842 0.12466 0.0
H2266 H 0.90656 0.64838 0.84281 0.0
H2267 H 0.94067 0.64977 0.84372 0.0
H2268 H 0.94238 0.59316 0.8646 0.0
H2269 H 0.90817 0.59248 0.86522 0.0
H2270 H 0.96654 0.61067 0.88185 0.0
H2271 H 0.95301 0.60735 0.81649 0.0
H2272 H 0.93792 0.61638 0.78685 0.0
H2273 H 0.96326 0.67062 0.79014 0.0
H2274 H 0.97831 0.662 0.81994 0.0
H2275 H 0.0631 0.59745 0.85595 0.0
H2276 H 0.02888 0.59567 0.85481 0.0
H2277 H 0.02548 0.65562 0.85924 0.0
H2278 H 0.05964 0.65752 0.86086 0.0
H2279 H 0.00309 0.6357 0.82855 0.0
H2280 H 0.01606 0.63675 0.89543 0.0
H2281 H 0.03171 0.62509 0.92383 0.0
H2282 H 0.00783 0.57079 0.91502 0.0
H2283 H 0.99226 0.58208 0.88639 0.0
C2284 C 0.91431 0.63627 0.84756 0.0
C2285 C 0.90492 0.6203 0.85386 0.0
C2286 C 0.93379 0.63698 0.84793 0.0
C2287 C 0.94423 0.62139 0.85377 0.0
C2288 C 0.93472 0.60538 0.86001 0.0
C2289 C 0.91522 0.60494 0.8603 0.0
C2290 C 0.965 0.62195 0.8539 0.0
C2291 C 0.97444 0.61587 0.87002 0.0
C2292 C 0.97549 0.62893 0.8386 0.0
C2293 C 0.96667 0.63407 0.82053 0.0
C2294 C 0.95529 0.62123 0.81094 0.0
C2295 C 0.94675 0.62628 0.79411 0.0
C2296 C 0.9496 0.64408 0.78664 0.0
C2297 C 0.96105 0.65685 0.79595 0.0
C2298 C 0.96962 0.65188 0.8128 0.0
C2299 C 0.05504 0.61024 0.85671 0.0
C2300 C 0.06397 0.62762 0.85858 0.0
C2301 C 0.03557 0.60919 0.85606 0.0
C2302 C 0.02481 0.62552 0.85693 0.0
C2303 C 0.03365 0.6429 0.85853 0.0
C2304 C 0.05311 0.64393 0.85956 0.0
C2305 C 0.00425 0.62444 0.85637 0.0
C2306 C 0.99497 0.63042 0.84022 0.0
C2307 C 0.99394 0.61692 0.87138 0.0
C2308 C 0.00318 0.6102 0.88867 0.0
C2309 C 0.0143 0.62228 0.89945 0.0
C2310 C 0.02312 0.61575 0.91561 0.0
C2311 C 0.02082 0.5972 0.9212 0.0
C2312 C 0.00963 0.58515 0.91067 0.0
C2313 C 0.0008 0.59161 0.89448 0.0
H2314 H 0.02766 0.59217 0.93372 0.0
H2315 H 0.94295 0.64797 0.77362 0.0
H2316 H 0.3918 0.06499 0.84185 0.0
H2317 H 0.39027 0.03091 0.84105 0.0
H2318 H 0.36007 0.03084 0.89317 0.0
H2319 H 0.36164 0.06493 0.8942 0.0
H2320 H 0.3871 0.00309 0.89144 0.0
H2321 H 0.33649 0.02651 0.85404 0.0
H2322 H 0.32252 0.04585 0.8292 0.0
H2323 H 0.35561 0.01742 0.78804 0.0
H2324 H 0.37006 -0.00186 0.8127 0.0
H2325 H 0.35741 0.90874 0.88438 0.0
H2326 H 0.35764 0.94271 0.88799 0.0
H2327 H 0.37993 0.94846 0.83223 0.0
H2328 H 0.3787 0.91467 0.82822 0.0
H2329 H 0.35541 0.97379 0.83718 0.0
H2330 H 0.40749 0.95166 0.87441 0.0
H2331 H 0.42209 0.93259 0.89914 0.0
H2332 H 0.38694 0.95848 0.94027 0.0
H2333 H 0.37201 0.97758 0.91575 0.0
C2334 C 0.38501 0.05773 0.85325 0.0
C2335 C 0.37673 0.06765 0.86803 0.0
C2336 C 0.38409 0.03827 0.85273 0.0
C2337 C 0.37485 0.02843 0.86694 0.0
C2338 C 0.36721 0.03822 0.88207 0.0
C2339 C 0.36807 0.05769 0.88258 0.0
C2340 C 0.37249 0.00797 0.8656 0.0
C2341 C 0.38 0.99664 0.8797 0.0
C2342 C 0.36342 -0.00035 0.85015 0.0
C2343 C 0.35448 0.01099 0.83525 0.0
C2344 C 0.34089 0.02446 0.83971 0.0
C2345 C 0.33287 0.03541 0.82566 0.0
C2346 C 0.3382 0.03289 0.80706 0.0
C2347 C 0.35152 0.01937 0.80246 0.0
C2348 C 0.35961 0.00842 0.81647 0.0
C2349 C 0.36229 0.9173 0.8729 0.0
C2350 C 0.36811 0.9091 0.85605 0.0
C2351 C 0.36253 0.9367 0.87501 0.0
C2352 C 0.36918 0.94816 0.86052 0.0
C2353 C 0.37476 0.93994 0.84362 0.0
C2354 C 0.37409 0.92062 0.84134 0.0
C2355 C 0.3704 0.96872 0.86283 0.0
C2356 C 0.36255 0.98015 0.84894 0.0
C2357 C 0.37927 0.97711 0.87843 0.0
C2358 C 0.38853 0.96592 0.89323 0.0
C2359 C 0.40284 0.95323 0.88872 0.0
C2360 C 0.41117 0.94242 0.9027 0.0
C2361 C 0.4054 0.94428 0.92126 0.0
C2362 C 0.39137 0.95703 0.92589 0.0
C2363 C 0.38299 0.96787 0.91196 0.0
H2364 H 0.41184 0.93587 0.93206 0.0
H2365 H 0.33199 0.04139 0.7962 0.0
H2366 H 0.93361 0.35525 0.88446 0.0
H2367 H 0.96765 0.3574 0.8828 0.0
H2368 H 0.96357 0.38255 0.82821 0.0
H2369 H 0.92945 0.38042 0.82969 0.0
H2370 H 0.99072 0.3546 0.83047 0.0
H2371 H 0.9722 0.40972 0.86433 0.0
H2372 H 0.95589 0.42695 0.88929 0.0
H2373 H 0.98701 0.39686 0.93083 0.0
H2374 H 0.00333 0.37925 0.90611 0.0
H2375 H 0.08534 0.38207 0.82491 0.0
H2376 H 0.0512 0.38286 0.82522 0.0
H2377 H 0.05131 0.36567 0.88303 0.0
H2378 H 0.08542 0.36568 0.88303 0.0
H2379 H 0.02574 0.3907 0.87821 0.0
H2380 H 0.0433 0.33463 0.84576 0.0
H2381 H 0.05971 0.31632 0.82164 0.0
H2382 H 0.03046 0.34621 0.77862 0.0
H2383 H 0.01408 0.36491 0.8025 0.0
C2384 C 0.93994 0.3612 0.87207 0.0
C2385 C 0.92885 0.36777 0.85725 0.0
C2386 C 0.95937 0.36246 0.87118 0.0
C2387 C 0.96805 0.37031 0.85547 0.0
C2388 C 0.95708 0.37651 0.84047 0.0
C2389 C 0.93761 0.37534 0.84138 0.0
C2390 C 0.9886 0.37215 0.8548 0.0
C2391 C -0.00159 0.3627 0.84073 0.0
C2392 C -0.00145 0.38235 0.86848 0.0
C2393 C 0.98886 0.39305 0.88336 0.0
C2394 C 0.97546 0.40668 0.87879 0.0
C2395 C 0.96623 0.41653 0.89289 0.0
C2396 C 0.97038 0.41298 0.91163 0.0
C2397 C 0.9838 0.39959 0.91631 0.0
C2398 C 0.99306 0.38968 0.90225 0.0
C2399 C 0.07807 0.37857 0.8377 0.0
C2400 C 0.08802 0.37371 0.85391 0.0
C2401 C 0.05856 0.37893 0.83784 0.0
C2402 C 0.04868 0.37395 0.85404 0.0
C2403 C 0.05863 0.36953 0.87036 0.0
C2404 C 0.07813 0.36951 0.87033 0.0
C2405 C 0.02799 0.373 0.85396 0.0
C2406 C 0.01812 0.38263 0.86789 0.0
C2407 C 0.018 0.36274 0.84028 0.0
C2408 C 0.02759 0.35129 0.82591 0.0
C2409 C 0.04044 0.33737 0.83115 0.0
C2410 C 0.04974 0.32692 0.81753 0.0
C2411 C 0.04616 0.33013 0.79861 0.0
C2412 C 0.03323 0.34376 0.79328 0.0
C2413 C 0.02393 0.35428 0.80685 0.0
H2414 H 0.05339 0.32204 0.78808 0.0
H2415 H 0.96322 0.42062 0.92253 0.0
H2416 H 0.61024 0.08854 0.8774 0.0
H2417 H 0.60993 0.05449 0.87905 0.0
H2418 H 0.64466 0.05171 0.82982 0.0
H2419 H 0.64432 0.08574 0.82765 0.0
H2420 H 0.61925 0.02679 0.82709 0.0
H2421 H 0.66207 0.04433 0.8753 0.0
H2422 H 0.67277 0.0611 0.90343 0.0
H2423 H 0.62938 0.03521 0.93575 0.0
H2424 H 0.61826 0.01846 0.90774 0.0
H2425 H 0.65447 0.93368 0.87064 0.0
H2426 H 0.65438 0.96767 0.86933 0.0
H2427 H 0.59801 0.96683 0.84782 0.0
H2428 H 0.59823 0.93266 0.84854 0.0
H2429 H 0.63518 0.99346 0.88573 0.0
H2430 H 0.59176 0.00302 0.81791 0.0
H2431 H 0.58534 0.98608 0.78859 0.0
H2432 H 0.63789 0.95747 0.7933 0.0
H2433 H 0.64473 0.97444 0.82248 0.0
C2434 C 0.61787 0.08067 0.86697 0.0
C2435 C 0.62736 0.0898 0.85242 0.0
C2436 C 0.61773 0.0612 0.86796 0.0
C2437 C 0.62749 0.05052 0.85471 0.0
C2438 C 0.63699 0.05964 0.84018 0.0
C2439 C 0.63685 0.07909 0.83899 0.0
C2440 C 0.62766 0.02984 0.85586 0.0
C2441 C 0.62274 0.01952 0.83993 0.0
C2442 C 0.63252 0.02031 0.87249 0.0
C2443 C 0.63923 0.03028 0.88939 0.0
C2444 C 0.65473 0.04231 0.88838 0.0
C2445 C 0.66088 0.0518 0.9043 0.0
C2446 C 0.65173 0.04926 0.92135 0.0
C2447 C 0.63644 0.03718 0.92252 0.0
C2448 C 0.63022 0.02767 0.90664 0.0
C2449 C 0.64203 0.9407 0.86565 0.0
C2450 C 0.62638 0.9305 0.85959 0.0
C2451 C 0.64199 0.96015 0.86497 0.0
C2452 C 0.62628 0.9698 0.8583 0.0
C2453 C 0.61042 0.95966 0.8527 0.0
C2454 C 0.61053 0.94016 0.85318 0.0
C2455 C 0.62669 0.99045 0.857 0.0
C2456 C 0.63166 0.00076 0.87292 0.0
C2457 C 0.62252 -5e-05 0.84018 0.0
C2458 C 0.61864 0.98985 0.82249 0.0
C2459 C 0.60196 0.99316 0.81265 0.0
C2460 C 0.59825 0.98355 0.79605 0.0
C2461 C 0.61117 0.97066 0.78912 0.0
C2462 C 0.62786 0.96741 0.79872 0.0
C2463 C 0.63166 0.97701 0.8153 0.0
H2464 H 0.60825 0.96322 0.77628 0.0
H2465 H 0.65651 0.05662 0.93366 0.0
H2466 H 0.08332 0.6305 0.1112 0.0
H2467 H 0.04923 0.63275 0.11069 0.0
H2468 H 0.04871 0.64022 0.17048 0.0
H2469 H 0.08275 0.63828 0.17115 0.0
H2470 H 0.02337 0.61093 0.12692 0.0
H2471 H 0.01278 0.66891 0.18214 0.0
H2472 H 0.02949 0.69647 0.19436 0.0
H2473 H 0.05799 0.7028 0.14197 0.0
H2474 H 0.04127 0.67545 0.12936 0.0
H2475 H 0.9297 0.61235 0.15886 0.0
H2476 H 0.96387 0.61279 0.15833 0.0
H2477 H 0.96284 0.66334 0.12559 0.0
H2478 H 0.92869 0.66308 0.12609 0.0
H2479 H 0.98888 0.6648 0.15365 0.0
H2480 H 0.97081 0.62315 0.10427 0.0
H2481 H 0.95426 0.59629 0.09044 0.0
H2482 H 0.98325 0.55904 0.12747 0.0
H2483 H -0.00022 0.58573 0.14171 0.0
C2484 C 0.07597 0.63273 0.12424 0.0
C2485 C 0.08576 0.63424 0.14121 0.0
C2486 C 0.0565 0.63395 0.12392 0.0
C2487 C 0.04649 0.63679 0.14052 0.0
C2488 C 0.0562 0.63829 0.15747 0.0
C2489 C 0.07566 0.63711 0.15782 0.0
C2490 C 0.02584 0.63784 0.14016 0.0
C2491 C 0.01583 0.62271 0.13274 0.0
C2492 C 0.01604 0.65331 0.14758 0.0
C2493 C 0.02589 0.67003 0.15488 0.0
C2494 C 0.02254 0.67624 0.1732 0.0
C2495 C 0.03203 0.69181 0.1802 0.0
C2496 C 0.04483 0.70134 0.16897 0.0
C2497 C 0.04812 0.69537 0.15068 0.0
C2498 C 0.03866 0.67982 0.14361 0.0
C2499 C 0.93674 0.62361 0.15161 0.0
C2500 C 0.9265 0.63763 0.14242 0.0
C2501 C 0.95625 0.6238 0.15129 0.0
C2502 C 0.96583 0.638 0.14177 0.0
C2503 C 0.95567 0.65226 0.13299 0.0
C2504 C 0.93617 0.65204 0.13324 0.0
C2505 C 0.98646 0.63778 0.14065 0.0
C2506 C 0.99644 0.65303 0.14782 0.0
C2507 C 0.99625 0.62254 0.13277 0.0
C2508 C 0.9864 0.60646 0.12417 0.0
C2509 C 0.97355 0.60925 0.10956 0.0
C2510 C 0.96419 0.59405 0.10163 0.0
C2511 C 0.96767 0.57598 0.1081 0.0
C2512 C 0.98055 0.57305 0.12249 0.0
C2513 C 0.98993 0.58821 0.13048 0.0
H2514 H 0.96041 0.56423 0.10195 0.0
H2515 H 0.05218 0.71338 0.17442 0.0
H2516 H 0.33168 0.09153 0.14563 0.0
H2517 H 0.32706 0.05783 0.14249 0.0
H2518 H 0.38343 0.0522 0.12153 0.0
H2519 H 0.38736 0.08613 0.12316 0.0
H2520 H 0.3638 0.02855 0.10486 0.0
H2521 H 0.36952 0.0448 0.16986 0.0
H2522 H 0.36124 0.06202 0.19853 0.0
H2523 H 0.30593 0.0388 0.1969 0.0
H2524 H 0.31382 0.02161 0.16806 0.0
H2525 H 0.38231 0.93595 0.13695 0.0
H2526 H 0.3816 0.97009 0.13529 0.0
H2527 H 0.32136 0.96895 0.13378 0.0
H2528 H 0.32193 0.93471 0.13501 0.0
H2529 H 0.34064 0.99529 0.1611 0.0
H2530 H 0.33799 0.97709 0.09593 0.0
H2531 H 0.34896 0.9597 0.0683 0.0
H2532 H 0.40259 0.98631 0.07245 0.0
H2533 H 0.39202 0.00364 0.1003 0.0
C2534 C 0.3429 0.08304 0.14005 0.0
C2535 C 0.35988 0.0912 0.1347 0.0
C2536 C 0.34036 0.0638 0.13842 0.0
C2537 C 0.35511 0.05235 0.13236 0.0
C2538 C 0.37186 0.06069 0.12634 0.0
C2539 C 0.37414 0.08002 0.12729 0.0
C2540 C 0.35344 0.0317 0.13299 0.0
C2541 C 0.35889 0.02134 0.11724 0.0
C2542 C 0.34681 0.02218 0.14906 0.0
C2543 C 0.34221 0.03206 0.16671 0.0
C2544 C 0.35558 0.04341 0.17559 0.0
C2545 C 0.35095 0.05317 0.19186 0.0
C2546 C 0.33306 0.05155 0.1995 0.0
C2547 C 0.31978 0.04006 0.19095 0.0
C2548 C 0.32433 0.03029 0.17465 0.0
C2549 C 0.36892 0.94297 0.13629 0.0
C2550 C 0.35217 0.93273 0.13604 0.0
C2551 C 0.36854 0.96241 0.13531 0.0
C2552 C 0.35143 0.97189 0.13435 0.0
C2553 C 0.33467 0.96177 0.13448 0.0
C2554 C 0.33503 0.94228 0.13511 0.0
C2555 C 0.35117 0.99242 0.13311 0.0
C2556 C 0.3454 0.00265 0.14874 0.0
C2557 C 0.35796 0.00181 0.11715 0.0
C2558 C 0.36426 0.99153 0.1003 0.0
C2559 C 0.35217 0.97911 0.09106 0.0
C2560 C 0.35831 0.96929 0.07533 0.0
C2561 C 0.37647 0.97186 0.06865 0.0
C2562 C 0.38852 0.98431 0.07765 0.0
C2563 C 0.38246 0.99415 0.0934 0.0
H2564 H 0.3812 0.96425 0.05648 0.0
H2565 H 0.32949 0.05916 0.21206 0.0
H2566 H 0.60529 0.06176 0.14714 0.0
H2567 H 0.60729 0.02777 0.14965 0.0
H2568 H 0.66356 0.02943 0.12793 0.0
H2569 H 0.66129 0.06326 0.1246 0.0
H2570 H 0.64667 0.00237 0.11267 0.0
H2571 H 0.65341 0.02259 0.17571 0.0
H2572 H 0.64522 0.03969 0.20446 0.0
H2573 H 0.59368 0.0092 0.20828 0.0
H2574 H 0.60144 0.99211 0.17939 0.0
H2575 H 0.65027 0.9082 0.16904 0.0
H2576 H 0.65302 0.94227 0.16812 0.0
H2577 H 0.61911 0.94364 0.11825 0.0
H2578 H 0.61693 0.90974 0.11866 0.0
H2579 H 0.62889 0.96915 0.17082 0.0
H2580 H 0.63108 0.97822 0.09002 0.0
H2581 H 0.64275 0.96118 0.06244 0.0
H2582 H 0.68359 0.93338 0.0965 0.0
H2583 H 0.67235 0.95044 0.12422 0.0
C2584 C 0.61806 0.05483 0.14288 0.0
C2585 C 0.63312 0.06511 0.13566 0.0
C2586 C 0.61925 0.03544 0.14444 0.0
C2587 C 0.63571 0.02605 0.13928 0.0
C2588 C 0.65072 0.03634 0.132 0.0
C2589 C 0.64941 0.05568 0.1301 0.0
C2590 C 0.63716 0.00547 0.14107 0.0
C2591 C 0.64286 0.99513 0.12542 0.0
C2592 C 0.63262 0.99601 0.15783 0.0
C2593 C 0.62795 0.00617 0.1753 0.0
C2594 C 0.64028 0.01962 0.18261 0.0
C2595 C 0.63572 0.0293 0.19894 0.0
C2596 C 0.61892 0.02556 0.20817 0.0
C2597 C 0.60668 0.01209 0.20111 0.0
C2598 C 0.61116 0.00239 0.18477 0.0
C2599 C 0.64352 0.91578 0.15782 0.0
C2600 C 0.63355 0.90628 0.14382 0.0
C2601 C 0.64505 0.93524 0.15734 0.0
C2602 C 0.63652 0.94548 0.14294 0.0
C2603 C 0.62623 0.93601 0.12921 0.0
C2604 C 0.62494 0.91661 0.12951 0.0
C2605 C 0.63806 0.9661 0.14232 0.0
C2606 C 0.63288 0.97643 0.15815 0.0
C2607 C 0.64367 0.9756 0.12591 0.0
C2608 C 0.65076 0.96551 0.10923 0.0
C2609 C 0.64262 0.96855 0.0916 0.0
C2610 C 0.64914 0.95887 0.07595 0.0
C2611 C 0.66386 0.94617 0.07773 0.0
C2612 C 0.67214 0.94318 0.09515 0.0
C2613 C 0.66569 0.95284 0.11084 0.0
H2614 H 0.66888 0.93867 0.06559 0.0
H2615 H 0.61542 0.03307 0.22081 0.0
H2616 H 0.17082 0.24122 0.33228 0.0
H2617 H 0.16721 0.2632 0.30638 0.0
H2618 H 0.113 0.24 0.29398 0.0
H2619 H 0.11601 0.2187 0.32043 0.0
H2620 H 0.14058 0.24081 0.26336 0.0
H2621 H 0.11212 0.2802 0.30992 0.0
H2622 H 0.11068 0.29656 0.34019 0.0
H2623 H 0.16008 0.32756 0.32616 0.0
H2624 H 0.16198 0.31118 0.2959 0.0
H2625 H 0.12179 0.30259 0.1886 0.0
H2626 H 0.11895 0.28388 0.21711 0.0
H2627 H 0.16424 0.31503 0.24205 0.0
H2628 H 0.16617 0.33451 0.2141 0.0
H2629 H 0.13868 0.30998 0.26677 0.0
H2630 H 0.17022 0.27031 0.22309 0.0
H2631 H 0.17486 0.25371 0.19328 0.0
H2632 H 0.1242 0.22283 0.20225 0.0
H2633 H 0.11913 0.23944 0.23202 0.0
C2634 C 0.15801 0.24098 0.32422 0.0
C2635 C 0.144 0.22774 0.32795 0.0
C2636 C 0.15598 0.25352 0.30946 0.0
C2637 C 0.13993 0.25299 0.29826 0.0
C2638 C 0.12558 0.24037 0.3024 0.0
C2639 C 0.12747 0.22802 0.31734 0.0
C2640 C 0.13877 0.26474 0.28145 0.0
C2641 C 0.13981 0.25593 0.26401 0.0
C2642 C 0.13845 0.28442 0.28254 0.0
C2643 C 0.13728 0.29434 0.30071 0.0
C2644 C 0.12278 0.29038 0.31335 0.0
C2645 C 0.12186 0.29969 0.3305 0.0
C2646 C 0.13531 0.31306 0.33511 0.0
C2647 C 0.14968 0.31719 0.32257 0.0
C2648 C 0.15067 0.30791 0.30541 0.0
C2649 C 0.13106 0.3054 0.20024 0.0
C2650 C 0.1444 0.31969 0.19915 0.0
C2651 C 0.12952 0.29468 0.21644 0.0
C2652 C 0.14161 0.29785 0.23158 0.0
C2653 C 0.15482 0.31229 0.23051 0.0
C2654 C 0.1561 0.32322 0.21447 0.0
C2655 C 0.14064 0.28608 0.24853 0.0
C2656 C 0.13926 0.29486 0.26602 0.0
C2657 C 0.14113 0.26635 0.24753 0.0
C2658 C 0.14419 0.25626 0.22968 0.0
C2659 C 0.16 0.26008 0.21864 0.0
C2660 C 0.16272 0.25065 0.20176 0.0
C2661 C 0.1498 0.23726 0.19585 0.0
C2662 C 0.13417 0.23323 0.20683 0.0
C2663 C 0.13138 0.24263 0.22372 0.0
H2664 H 0.15193 0.22998 0.18277 0.0
H2665 H 0.13457 0.32025 0.34839 0.0
H2666 H 0.6576 0.11764 0.20994 0.0
H2667 H 0.67635 0.11664 0.23853 0.0
H2668 H 0.72036 0.14713 0.21079 0.0
H2669 H 0.70188 0.14747 0.18193 0.0
H2670 H 0.73474 0.12115 0.23354 0.0
H2671 H 0.68876 0.16966 0.23702 0.0
H2672 H 0.65696 0.18286 0.23558 0.0
H2673 H 0.63993 0.14759 0.281 0.0
H2674 H 0.67158 0.13394 0.2825 0.0
H2675 H 0.75586 0.17414 0.32455 0.0
H2676 H 0.73593 0.16944 0.2972 0.0
H2677 H 0.74731 0.11028 0.29903 0.0
H2678 H 0.76735 0.11496 0.32635 0.0
H2679 H 0.70527 0.15007 0.28926 0.0
H2680 H 0.7528 0.09478 0.25442 0.0
H2681 H 0.78591 0.08509 0.25496 0.0
H2682 H 0.80228 0.14067 0.27045 0.0
H2683 H 0.76933 0.15075 0.26969 0.0
C2684 C 0.67152 0.12359 0.20983 0.0
C2685 C 0.6785 0.13242 0.19379 0.0
C2686 C 0.68211 0.1232 0.22618 0.0
C2687 C 0.69963 0.13199 0.2268 0.0
C2688 C 0.70689 0.14022 0.21056 0.0
C2689 C 0.69635 0.14048 0.19416 0.0
C2690 C 0.7098 0.13381 0.24468 0.0
C2691 C 0.72827 0.12735 0.24576 0.0
C2692 C 0.70146 0.14231 0.26046 0.0
C2693 C 0.68248 0.15064 0.25974 0.0
C2694 C 0.6782 0.16462 0.24661 0.0
C2695 C 0.66021 0.17219 0.24579 0.0
C2696 C 0.64642 0.16603 0.25816 0.0
C2697 C 0.65062 0.15232 0.27141 0.0
C2698 C 0.66858 0.14467 0.27225 0.0
C2699 C 0.75391 0.16011 0.31923 0.0
C2700 C 0.76347 0.14497 0.3272 0.0
C2701 C 0.74252 0.15744 0.30365 0.0
C2702 C 0.74045 0.13957 0.29592 0.0
C2703 C 0.74909 0.12424 0.30457 0.0
C2704 C 0.76059 0.12694 0.32008 0.0
C2705 C 0.73013 0.13721 0.27819 0.0
C2706 C 0.71165 0.14363 0.27712 0.0
C2707 C 0.73866 0.12922 0.26225 0.0
C2708 C 0.75858 0.12344 0.26219 0.0
C2709 C 0.76348 0.10495 0.25784 0.0
C2710 C 0.78222 0.09939 0.25819 0.0
C2711 C 0.79618 0.11224 0.2628 0.0
C2712 C 0.79145 0.13071 0.26694 0.0
C2713 C 0.77275 0.13635 0.26655 0.0
H2714 H 0.81067 0.1079 0.26312 0.0
H2715 H 0.6325 0.17191 0.25751 0.0
H2716 H 0.85567 0.74043 0.34888 0.0
H2717 H 0.85485 0.71879 0.32221 0.0
H2718 H 0.84604 0.76526 0.28484 0.0
H2719 H 0.84644 0.78664 0.31122 0.0
H2720 H 0.82262 0.73635 0.27755 0.0
H2721 H 0.88874 0.746 0.28922 0.0
H2722 H 0.91724 0.74547 0.30861 0.0
H2723 H 0.91089 0.68642 0.31688 0.0
H2724 H 0.88219 0.68665 0.29773 0.0
H2725 H 0.84471 0.70239 0.18806 0.0
H2726 H 0.84425 0.71986 0.21755 0.0
H2727 H 0.8578 0.66935 0.24766 0.0
H2728 H 0.85884 0.65211 0.21807 0.0
H2729 H 0.87743 0.69736 0.26075 0.0
H2730 H 0.81316 0.68702 0.24607 0.0
H2731 H 0.78473 0.68749 0.22661 0.0
H2732 H 0.78679 0.74738 0.22447 0.0
H2733 H 0.81547 0.74726 0.24359 0.0
C2734 C 0.85367 0.74593 0.33493 0.0
C2735 C 0.85171 0.7652 0.33199 0.0
C2736 C 0.85321 0.73363 0.31977 0.0
C2737 C 0.85061 0.74052 0.3016 0.0
C2738 C 0.8482 0.75971 0.29876 0.0
C2739 C 0.84871 0.77194 0.31383 0.0
C2740 C 0.85044 0.72791 0.28532 0.0
C2741 C 0.83461 0.72788 0.27377 0.0
C2742 C 0.86593 0.71653 0.2808 0.0
C2743 C 0.88322 0.71638 0.29223 0.0
C2744 C 0.89334 0.73293 0.2953 0.0
C2745 C 0.90954 0.73268 0.30622 0.0
C2746 C 0.91584 0.71593 0.31402 0.0
C2747 C 0.90598 0.69939 0.31087 0.0
C2748 C 0.88975 0.69957 0.29997 0.0
C2749 C 0.84773 0.69518 0.20103 0.0
C2750 C 0.85196 0.67611 0.20104 0.0
C2751 C 0.84733 0.70505 0.21781 0.0
C2752 C 0.85071 0.6958 0.2348 0.0
C2753 C 0.85514 0.67672 0.23471 0.0
C2754 C 0.85575 0.66692 0.2179 0.0
C2755 C 0.84972 0.70608 0.25267 0.0
C2756 C 0.86531 0.70563 0.26458 0.0
C2757 C 0.83396 0.71699 0.25754 0.0
C2758 C 0.81659 0.71711 0.24614 0.0
C2759 C 0.80765 0.70028 0.24133 0.0
C2760 C 0.79148 0.70049 0.23036 0.0
C2761 C 0.78398 0.71745 0.22427 0.0
C2762 C 0.79263 0.73425 0.22917 0.0
C2763 C 0.80885 0.73412 0.24007 0.0
H2764 H 0.77146 0.71758 0.21578 0.0
H2765 H 0.92839 0.71577 0.32247 0.0
H2766 H 0.29688 0.87967 0.1884 0.0
H2767 H 0.28049 0.8831 0.21842 0.0
H2768 H 0.32301 0.84985 0.24533 0.0
H2769 H 0.33928 0.84638 0.21539 0.0
H2770 H 0.26637 0.85418 0.24078 0.0
H2771 H 0.32974 0.86857 0.28927 0.0
H2772 H 0.36058 0.88387 0.28768 0.0
H2773 H 0.34093 0.91949 0.24359 0.0
H2774 H 0.30989 0.90463 0.24512 0.0
H2775 H 0.24781 0.82767 0.33169 0.0
H2776 H 0.2683 0.83362 0.30506 0.0
H2777 H 0.25644 0.89254 0.30882 0.0
H2778 H 0.23591 0.88668 0.33566 0.0
H2779 H 0.29608 0.88057 0.2977 0.0
H2780 H 0.23038 0.8741 0.28215 0.0
H2781 H 0.19999 0.8581 0.2851 0.0
H2782 H 0.22401 0.80785 0.26287 0.0
H2783 H 0.25465 0.82345 0.26016 0.0
C2784 C 0.3026 0.87312 0.20079 0.0
C2785 C 0.31906 0.86256 0.19976 0.0
C2786 C 0.29332 0.87509 0.21783 0.0
C2787 C 0.30065 0.86681 0.23402 0.0
C2788 C 0.31726 0.85646 0.23299 0.0
C2789 C 0.32642 0.85436 0.21595 0.0
C2790 C 0.29057 0.86824 0.25192 0.0
C2791 C 0.27279 0.86014 0.25316 0.0
C2792 C 0.29899 0.87608 0.26802 0.0
C2793 C 0.31752 0.88537 0.26722 0.0
C2794 C 0.33196 0.87974 0.27931 0.0
C2795 C 0.34949 0.88833 0.2784 0.0
C2796 C 0.35273 0.90261 0.26551 0.0
C2797 C 0.33843 0.90839 0.25354 0.0
C2798 C 0.32087 0.89987 0.2544 0.0
C2799 C 0.25001 0.84195 0.3272 0.0
C2800 C 0.23999 0.85669 0.33535 0.0
C2801 C 0.26168 0.84531 0.31202 0.0
C2802 C 0.26361 0.86346 0.30495 0.0
C2803 C 0.25502 0.87845 0.31414 0.0
C2804 C 0.24319 0.87507 0.32927 0.0
C2805 C 0.27219 0.86618 0.28649 0.0
C2806 C 0.28963 0.87493 0.2852 0.0
C2807 C 0.26345 0.85906 0.27028 0.0
C2808 C 0.24484 0.84991 0.27108 0.0
C2809 C 0.2292 0.85961 0.27798 0.0
C2810 C 0.21194 0.85062 0.27962 0.0
C2811 C 0.21008 0.83196 0.27422 0.0
C2812 C 0.22547 0.8223 0.26707 0.0
C2813 C 0.24279 0.83122 0.26546 0.0
H2814 H 0.19672 0.82501 0.27555 0.0
H2815 H 0.36631 0.90923 0.26482 0.0
H2816 H 0.13352 0.74319 0.65247 0.0
H2817 H 0.12885 0.72134 0.67851 0.0
H2818 H 0.15032 0.76257 0.7169 0.0
H2819 H 0.15554 0.78404 0.69099 0.0
H2820 H 0.1649 0.72868 0.72346 0.0
H2821 H 0.10404 0.75528 0.7132 0.0
H2822 H 0.07636 0.76362 0.69441 0.0
H2823 H 0.06601 0.70561 0.68333 0.0
H2824 H 0.09382 0.69694 0.70181 0.0
H2825 H 0.13776 0.69541 0.81018 0.0
H2826 H 0.13742 0.7152 0.7823 0.0
H2827 H 0.11843 0.6685 0.74925 0.0
H2828 H 0.11849 0.64872 0.77733 0.0
H2829 H 0.10224 0.70299 0.7386 0.0
H2830 H 0.16374 0.67688 0.74942 0.0
H2831 H 0.19106 0.66939 0.7691 0.0
H2832 H 0.1994 0.72769 0.78027 0.0
H2833 H 0.1722 0.73553 0.76056 0.0
C2834 C 0.13722 0.74749 0.6665 0.0
C2835 C 0.14435 0.76543 0.66988 0.0
C2836 C 0.13448 0.7351 0.68131 0.0
C2837 C 0.13896 0.7405 0.69963 0.0
C2838 C 0.14659 0.75823 0.70289 0.0
C2839 C 0.1493 0.77058 0.68813 0.0
C2840 C 0.13585 0.72774 0.71551 0.0
C2841 C 0.15118 0.72317 0.72683 0.0
C2842 C 0.11799 0.72031 0.71965 0.0
C2843 C 0.10114 0.72547 0.70871 0.0
C2844 C 0.09595 0.74431 0.70663 0.0
C2845 C 0.08023 0.7491 0.69606 0.0
C2846 C 0.06947 0.73516 0.68763 0.0
C2847 C 0.07438 0.7164 0.68983 0.0
C2848 C 0.09012 0.71153 0.70036 0.0
C2849 C 0.13304 0.68958 0.79703 0.0
C2850 C 0.12805 0.67072 0.79572 0.0
C2851 C 0.13294 0.7008 0.78116 0.0
C2852 C 0.12818 0.69318 0.76374 0.0
C2853 C 0.12212 0.67458 0.76261 0.0
C2854 C 0.12211 0.66335 0.77857 0.0
C2855 C 0.13123 0.70421 0.74662 0.0
C2856 C 0.11596 0.70839 0.73507 0.0
C2857 C 0.14912 0.71141 0.74228 0.0
C2858 C 0.16589 0.70678 0.7536 0.0
C2859 C 0.17142 0.6881 0.75607 0.0
C2860 C 0.18691 0.68379 0.76719 0.0
C2861 C 0.19694 0.69805 0.77597 0.0
C2862 C 0.19164 0.71666 0.77345 0.0
C2863 C 0.17625 0.72105 0.76223 0.0
H2864 H 0.20882 0.69467 0.78472 0.0
H2865 H 0.05731 0.7389 0.67944 0.0
H2866 H 0.25533 0.13271 0.65833 0.0
H2867 H 0.27601 0.12732 0.68519 0.0
H2868 H 0.23138 0.14301 0.72257 0.0
H2869 H 0.21104 0.14899 0.69593 0.0
H2870 H 0.26375 0.15991 0.73137 0.0
H2871 H 0.24317 0.09742 0.71645 0.0
H2872 H 0.23864 0.07025 0.69579 0.0
H2873 H 0.29795 0.06632 0.68747 0.0
H2874 H 0.30281 0.09365 0.7079 0.0
H2875 H 0.29878 0.13376 0.81764 0.0
H2876 H 0.27889 0.13265 0.78982 0.0
H2877 H 0.32628 0.11557 0.75665 0.0
H2878 H 0.34607 0.1162 0.78469 0.0
H2879 H 0.29415 0.09902 0.7446 0.0
H2880 H 0.31501 0.1616 0.75794 0.0
H2881 H 0.32024 0.18951 0.77747 0.0
H2882 H 0.26132 0.19353 0.78803 0.0
H2883 H 0.25572 0.16571 0.76844 0.0
C2884 C 0.24999 0.13493 0.67232 0.0
C2885 C 0.23146 0.14074 0.67512 0.0
C2886 C 0.26173 0.13175 0.6876 0.0
C2887 C 0.25508 0.13446 0.70584 0.0
C2888 C 0.23669 0.14062 0.7086 0.0
C2889 C 0.225 0.14378 0.69337 0.0
C2890 C 0.26736 0.1315 0.72217 0.0
C2891 C 0.27021 0.14653 0.73437 0.0
C2892 C 0.27624 0.1142 0.72572 0.0
C2893 C 0.27334 0.0977 0.71355 0.0
C2894 C 0.25523 0.09086 0.7101 0.0
C2895 C 0.25261 0.07541 0.69845 0.0
C2896 C 0.26799 0.0666 0.69028 0.0
C2897 C 0.28604 0.07318 0.69379 0.0
C2898 C 0.28874 0.08864 0.70541 0.0
C2899 C 0.30472 0.12917 0.80449 0.0
C2900 C 0.32378 0.12496 0.80313 0.0
C2901 C 0.29346 0.12871 0.78863 0.0
C2902 C 0.30125 0.12445 0.77114 0.0
C2903 C 0.32005 0.11895 0.77002 0.0
C2904 C 0.33129 0.11923 0.78598 0.0
C2905 C 0.29017 0.12733 0.75396 0.0
C2906 C 0.28766 0.11237 0.74156 0.0
C2907 C 0.28167 0.14475 0.75009 0.0
C2908 C 0.28497 0.1615 0.76186 0.0
C2909 C 0.30318 0.1684 0.76448 0.0
C2910 C 0.3062 0.18424 0.7755 0.0
C2911 C 0.29113 0.19323 0.78406 0.0
C2912 C 0.27298 0.18652 0.78143 0.0
C2913 C 0.26987 0.17078 0.7703 0.0
H2914 H 0.29352 0.20542 0.79267 0.0
H2915 H 0.26593 0.05464 0.68126 0.0
H2916 H 0.86921 0.33814 0.78386 0.0
H2917 H 0.87038 0.31818 0.75608 0.0
H2918 H 0.84525 0.27318 0.78732 0.0
H2919 H 0.84405 0.29323 0.81521 0.0
H2920 H 0.87652 0.26265 0.76428 0.0
H2921 H 0.81833 0.29625 0.76088 0.0
H2922 H 0.79874 0.32456 0.76133 0.0
H2923 H 0.828 0.3459 0.71352 0.0
H2924 H 0.84801 0.31783 0.71299 0.0
H2925 H 0.84554 0.20411 0.69209 0.0
H2926 H 0.84742 0.22451 0.71924 0.0
H2927 H 0.86515 0.27004 0.68394 0.0
H2928 H 0.86312 0.2495 0.6565 0.0
H2929 H 0.83923 0.28106 0.70873 0.0
H2930 H 0.89664 0.24702 0.7111 0.0
H2931 H 0.91651 0.21889 0.71067 0.0
H2932 H 0.88944 0.19864 0.7602 0.0
H2933 H 0.86919 0.22651 0.76077 0.0
C2934 C 0.86421 0.32389 0.7848 0.0
C2935 C 0.85672 0.317 0.80154 0.0
C2936 C 0.86479 0.31259 0.76899 0.0
C2937 C 0.85785 0.29431 0.76975 0.0
C2938 C 0.85072 0.28726 0.78659 0.0
C2939 C 0.85 0.29865 0.80239 0.0
C2940 C 0.85743 0.28279 0.75272 0.0
C2941 C 0.86823 0.2665 0.75218 0.0
C2942 C 0.84697 0.28824 0.73687 0.0
C2943 C 0.8348 0.30503 0.73702 0.0
C2944 C 0.8207 0.30705 0.75056 0.0
C2945 C 0.8095 0.32305 0.75081 0.0
C2946 C 0.81216 0.33705 0.73749 0.0
C2947 C 0.82598 0.33506 0.72385 0.0
C2948 C 0.83725 0.3191 0.72356 0.0
C2949 C 0.8502 0.21835 0.69015 0.0
C2950 C 0.85477 0.22514 0.67235 0.0
C2951 C 0.85117 0.23002 0.70565 0.0
C2952 C 0.85685 0.24864 0.70363 0.0
C2953 C 0.8609 0.25564 0.68577 0.0
C2954 C 0.85979 0.24395 0.67018 0.0
C2955 C 0.85827 0.26076 0.72025 0.0
C2956 C 0.84763 0.2772 0.72075 0.0
C2957 C 0.86896 0.25548 0.73604 0.0
C2958 C 0.88129 0.2388 0.73589 0.0
C2959 C 0.89484 0.23651 0.72184 0.0
C2960 C 0.90618 0.22062 0.72157 0.0
C2961 C 0.90421 0.20697 0.73538 0.0
C2962 C 0.89094 0.20922 0.74951 0.0
C2963 C 0.87953 0.22507 0.74982 0.0
H2964 H 0.913 0.19467 0.73515 0.0
H2965 H 0.80347 0.34942 0.7377 0.0
H2966 H 0.69782 0.867 0.80958 0.0
H2967 H 0.71579 0.87013 0.78058 0.0
H2968 H 0.66446 0.87594 0.74939 0.0
H2969 H 0.6465 0.87293 0.77851 0.0
H2970 H 0.68804 0.84836 0.73578 0.0
H2971 H 0.69152 0.91247 0.752 0.0
H2972 H 0.69666 0.93973 0.77239 0.0
H2973 H 0.75419 0.92412 0.77936 0.0
H2974 H 0.74933 0.89658 0.75925 0.0
H2975 H 0.74408 0.85732 0.65344 0.0
H2976 H 0.72082 0.86502 0.67747 0.0
H2977 H 0.76351 0.86118 0.7199 0.0
H2978 H 0.78659 0.85312 0.69607 0.0
H2979 H 0.74052 0.89222 0.72446 0.0
H2980 H 0.73541 0.82572 0.71331 0.0
H2981 H 0.73057 0.79769 0.69389 0.0
H2982 H 0.67616 0.81758 0.67817 0.0
H2983 H 0.68081 0.84588 0.69732 0.0
C2984 C 0.69049 0.86935 0.79654 0.0
C2985 C 0.67094 0.86995 0.79608 0.0
C2986 C 0.70069 0.87118 0.78006 0.0
C2987 C 0.69141 0.87345 0.76292 0.0
C2988 C 0.67182 0.87435 0.76252 0.0
C2989 C 0.66163 0.87271 0.77906 0.0
C2990 C 0.70223 0.8731 0.7454 0.0
C2991 C 0.69921 0.85823 0.73302 0.0
C2992 C 0.71698 0.8858 0.74209 0.0
C2993 C 0.72002 0.90237 0.7542 0.0
C2994 C 0.70523 0.91475 0.758 0.0
C2995 C 0.7081 0.93028 0.76949 0.0
C2996 C 0.72573 0.93364 0.77719 0.0
C2997 C 0.74054 0.92149 0.77339 0.0
C2998 C 0.73774 0.90594 0.76192 0.0
C2999 C 0.74844 0.85827 0.6679 0.0
C3000 C 0.76715 0.85518 0.67292 0.0
C3001 C 0.73522 0.86268 0.68155 0.0
C3002 C 0.74055 0.86381 0.70039 0.0
C3003 C 0.75924 0.86069 0.70539 0.0
C3004 C 0.7724 0.85621 0.69178 0.0
C3005 C 0.72658 0.86725 0.71515 0.0
C3006 C 0.72905 0.88265 0.727 0.0
C3007 C 0.71136 0.855 0.71804 0.0
C3008 C 0.70856 0.83802 0.70653 0.0
C3009 C 0.72249 0.8242 0.70557 0.0
C3010 C 0.71977 0.80825 0.69464 0.0
C3011 C 0.7031 0.80589 0.68475 0.0
C3012 C 0.68909 0.81945 0.6858 0.0
C3013 C 0.69176 0.83544 0.69669 0.0
H3014 H 0.70101 0.79353 0.6763 0.0
H3015 H 0.72792 0.94567 0.78608 0.0
H3016 H 0.21149 0.11587 0.3423 0.0
H3017 H 0.24017 0.11222 0.32382 0.0
H3018 H 0.21149 0.13348 0.27523 0.0
H3019 H 0.18287 0.13748 0.29383 0.0
H3020 H 0.23642 0.10002 0.26982 0.0
H3021 H 0.23431 0.16275 0.296 0.0
H3022 H 0.23129 0.18497 0.32212 0.0
H3023 H 0.27936 0.16075 0.34868 0.0
H3024 H 0.28242 0.13811 0.32285 0.0
H3025 H 0.30235 0.13664 0.20791 0.0
H3026 H 0.27651 0.13031 0.22916 0.0
H3027 H 0.31556 0.12251 0.27448 0.0
H3028 H 0.34164 0.12888 0.25304 0.0
H3029 H 0.28735 0.14481 0.28441 0.0
H3030 H 0.29283 0.08523 0.25641 0.0
H3031 H 0.29631 0.06258 0.23072 0.0
H3032 H 0.24314 0.07921 0.20841 0.0
H3033 H 0.23946 0.1022 0.23379 0.0
C3034 C 0.21133 0.11949 0.3276 0.0
C3035 C 0.19518 0.1269 0.31932 0.0
C3036 C 0.22761 0.1174 0.31712 0.0
C3037 C 0.22781 0.12254 0.29823 0.0
C3038 C 0.21146 0.12931 0.28978 0.0
C3039 C 0.19525 0.13168 0.30035 0.0
C3040 C 0.24547 0.12241 0.28769 0.0
C3041 C 0.24757 0.10982 0.27287 0.0
C3042 C 0.26013 0.13483 0.29224 0.0
C3043 C 0.25844 0.14859 0.30763 0.0
C3044 C 0.24412 0.16204 0.3075 0.0
C3045 C 0.24242 0.17473 0.32224 0.0
C3046 C 0.25509 0.17424 0.33708 0.0
C3047 C 0.26953 0.16108 0.33719 0.0
C3048 C 0.27125 0.14832 0.32251 0.0
C3049 C 0.30544 0.13306 0.22228 0.0
C3050 C 0.32393 0.13262 0.22879 0.0
C3051 C 0.29069 0.12952 0.23442 0.0
C3052 C 0.29416 0.12551 0.25329 0.0
C3053 C 0.31264 0.12535 0.25991 0.0
C3054 C 0.32746 0.12896 0.24771 0.0
C3055 C 0.27828 0.12264 0.26614 0.0
C3056 C 0.27644 0.13471 0.28146 0.0
C3057 C 0.26396 0.10959 0.26214 0.0
C3058 C 0.26592 0.09555 0.24698 0.0
C3059 C 0.28192 0.08415 0.24597 0.0
C3060 C 0.28393 0.07124 0.23146 0.0
C3061 C 0.26997 0.06948 0.21792 0.0
C3062 C 0.25394 0.08059 0.2189 0.0
C3063 C 0.25188 0.09355 0.23337 0.0
H3064 H 0.27156 0.05949 0.20669 0.0
H3065 H 0.25376 0.18408 0.34848 0.0
H3066 H 0.85684 0.34213 0.25414 0.0
H3067 H 0.85894 0.31514 0.27513 0.0
H3068 H 0.86158 0.27835 0.22743 0.0
H3069 H 0.8582 0.30493 0.20665 0.0
H3070 H 0.83804 0.26547 0.25172 0.0
H3071 H 0.90104 0.28994 0.25468 0.0
H3072 H 0.92482 0.31424 0.26029 0.0
H3073 H 0.90643 0.31956 0.31713 0.0
H3074 H 0.88239 0.29544 0.31179 0.0
H3075 H 0.86494 0.18182 0.29498 0.0
H3076 H 0.86679 0.21024 0.27584 0.0
H3077 H 0.86086 0.24398 0.3255 0.0
H3078 H 0.85955 0.21554 0.34458 0.0
H3079 H 0.88587 0.25904 0.30152 0.0
H3080 H 0.8235 0.23424 0.29887 0.0
H3081 H 0.80006 0.20954 0.29367 0.0
H3082 H 0.8171 0.20501 0.23635 0.0
H3083 H 0.84089 0.22946 0.2413 0.0
C3084 C 0.85802 0.32826 0.24821 0.0
C3085 C 0.85809 0.32568 0.22878 0.0
C3086 C 0.85933 0.3129 0.26017 0.0
C3087 C 0.86082 0.29478 0.25281 0.0
C3088 C 0.86068 0.29223 0.2334 0.0
C3089 C 0.85912 0.3075 0.22151 0.0
C3090 C 0.86176 0.2783 0.26518 0.0
C3091 C 0.84866 0.26398 0.26244 0.0
C3092 C 0.87526 0.27662 0.27954 0.0
C3093 C 0.88981 0.29102 0.28278 0.0
C3094 C 0.90199 0.29638 0.26833 0.0
C3095 C 0.91553 0.31011 0.27147 0.0
C3096 C 0.91711 0.31847 0.28904 0.0
C3097 C 0.90518 0.31309 0.30352 0.0
C3098 C 0.89161 0.29938 0.30045 0.0
C3099 C 0.86434 0.19537 0.30169 0.0
C3100 C 0.8621 0.19679 0.32103 0.0
C3101 C 0.86532 0.2115 0.29085 0.0
C3102 C 0.86369 0.22915 0.29929 0.0
C3103 C 0.86215 0.23049 0.31877 0.0
C3104 C 0.86134 0.21436 0.3296 0.0
C3105 C 0.86243 0.24614 0.28772 0.0
C3106 C 0.87532 0.26057 0.29074 0.0
C3107 C 0.84872 0.24797 0.27362 0.0
C3108 C 0.83409 0.23358 0.2705 0.0
C3109 C 0.82232 0.22791 0.28518 0.0
C3110 C 0.80897 0.21395 0.28228 0.0
C3111 C 0.80711 0.20568 0.2647 0.0
C3112 C 0.81856 0.21141 0.24996 0.0
C3113 C 0.83198 0.22533 0.25281 0.0
H3114 H 0.79679 0.19486 0.26249 0.0
H3115 H 0.92759 0.3291 0.29144 0.0
H3116 H 0.65938 0.85487 0.25122 0.0
H3117 H 0.68729 0.85693 0.27118 0.0
H3118 H 0.72154 0.8381 0.22527 0.0
H3119 H 0.69372 0.8359 0.20544 0.0
H3120 H 0.73035 0.82092 0.25884 0.0
H3121 H 0.72008 0.88308 0.23484 0.0
H3122 H 0.70149 0.91148 0.22897 0.0
H3123 H 0.69456 0.91951 0.288 0.0
H3124 H 0.71288 0.89098 0.29422 0.0
H3125 H 0.81922 0.84349 0.29412 0.0
H3126 H 0.79155 0.8427 0.27389 0.0
H3127 H 0.75907 0.86902 0.31742 0.0
H3128 H 0.78701 0.87061 0.33719 0.0
H3129 H 0.74889 0.88227 0.28526 0.0
H3130 H 0.75957 0.82074 0.30976 0.0
H3131 H 0.77823 0.79247 0.31605 0.0
H3132 H 0.78375 0.78263 0.25715 0.0
H3133 H 0.76544 0.81107 0.25049 0.0
C3134 C 0.67291 0.85118 0.2455 0.0
C3135 C 0.67464 0.84573 0.22678 0.0
C3136 C 0.68877 0.85238 0.25683 0.0
C3137 C 0.70645 0.84791 0.24957 0.0
C3138 C 0.70802 0.84173 0.23106 0.0
C3139 C 0.69222 0.84066 0.21973 0.0
C3140 C 0.72343 0.85009 0.26108 0.0
C3141 C 0.73455 0.83434 0.2645 0.0
C3142 C 0.72858 0.86755 0.26871 0.0
C3143 C 0.71769 0.88479 0.26499 0.0
C3144 C 0.71447 0.89082 0.24657 0.0
C3145 C 0.704 0.90695 0.24317 0.0
C3146 C 0.69681 0.91726 0.2581 0.0
C3147 C 0.70011 0.91149 0.27645 0.0
C3148 C 0.71055 0.89535 0.27992 0.0
C3149 C 0.8062 0.84939 0.29911 0.0
C3150 C 0.80505 0.85718 0.31701 0.0
C3151 C 0.79041 0.8488 0.28769 0.0
C3152 C 0.77315 0.85542 0.29432 0.0
C3153 C 0.77222 0.86379 0.31204 0.0
C3154 C 0.78811 0.86472 0.32329 0.0
C3155 C 0.75592 0.85307 0.28311 0.0
C3156 C 0.74472 0.8688 0.27971 0.0
C3157 C 0.75063 0.83552 0.27563 0.0
C3158 C 0.76126 0.81815 0.27962 0.0
C3159 C 0.76484 0.81261 0.29814 0.0
C3160 C 0.77537 0.79656 0.30178 0.0
C3161 C 0.78221 0.78579 0.28701 0.0
C3162 C 0.77847 0.79101 0.26857 0.0
C3163 C 0.76801 0.80709 0.26486 0.0
H3164 H 0.79038 0.77338 0.28985 0.0
H3165 H 0.68871 0.92975 0.25545 0.0
H3166 H 0.1105 0.66974 0.22567 0.0
H3167 H 0.11011 0.69724 0.24585 0.0
H3168 H 0.16487 0.68302 0.26657 0.0
H3169 H 0.16595 0.65617 0.24553 0.0
H3170 H 0.13412 0.69972 0.2937 0.0
H3171 H 0.16998 0.70854 0.23591 0.0
H3172 H 0.17265 0.70509 0.20174 0.0
H3173 H 0.12382 0.73914 0.1942 0.0
H3174 H 0.12054 0.74231 0.2284 0.0
H3175 H 0.16927 0.78388 0.3278 0.0
H3176 H 0.16708 0.75456 0.31051 0.0
H3177 H 0.12364 0.7781 0.27588 0.0
H3178 H 0.12642 0.80785 0.29274 0.0
H3179 H 0.14672 0.7564 0.25569 0.0
H3180 H 0.11254 0.75112 0.31269 0.0
H3181 H 0.10753 0.75323 0.34669 0.0
H3182 H 0.15048 0.71235 0.35587 0.0
H3183 H 0.15597 0.71023 0.32192 0.0
C3184 C 0.12251 0.6725 0.2344 0.0
C3185 C 0.13866 0.66141 0.23329 0.0
C3186 C 0.12209 0.68798 0.24617 0.0
C3187 C 0.13759 0.69216 0.25736 0.0
C3188 C 0.15283 0.67993 0.25792 0.0
C3189 C 0.15341 0.66465 0.24587 0.0
C3190 C 0.13911 0.7106 0.26617 0.0
C3191 C 0.13704 0.71213 0.28552 0.0
C3192 C 0.14247 0.72668 0.25524 0.0
C3193 C 0.1449 0.72549 0.23469 0.0
C3194 C 0.15973 0.71517 0.22697 0.0
C3195 C 0.16136 0.71327 0.2076 0.0
C3196 C 0.14841 0.72189 0.19581 0.0
C3197 C 0.13383 0.73246 0.20336 0.0
C3198 C 0.13207 0.73429 0.22273 0.0
C3199 C 0.15965 0.78295 0.31615 0.0
C3200 C 0.14807 0.79803 0.31145 0.0
C3201 C 0.15824 0.76616 0.30646 0.0
C3202 C 0.14494 0.76409 0.2922 0.0
C3203 C 0.13393 0.77943 0.28692 0.0
C3204 C 0.13548 0.79633 0.29652 0.0
C3205 C 0.142 0.74566 0.28345 0.0
C3206 C 0.14376 0.74409 0.264 0.0
C3207 C 0.13818 0.72956 0.29432 0.0
C3208 C 0.13477 0.73064 0.31476 0.0
C3209 C 0.12101 0.74268 0.32196 0.0
C3210 C 0.11807 0.74386 0.34123 0.0
C3211 C 0.1287 0.73295 0.35344 0.0
C3212 C 0.14227 0.7208 0.3464 0.0
C3213 C 0.14529 0.71959 0.32714 0.0
H3214 H 0.12641 0.73389 0.36835 0.0
H3215 H 0.14969 0.72039 0.18082 0.0
H3216 H 0.30966 0.85376 0.78302 0.0
H3217 H 0.2837 0.85508 0.76114 0.0
H3218 H 0.32162 0.87004 0.71674 0.0
H3219 H 0.34786 0.86932 0.73897 0.0
H3220 H 0.28818 0.8908 0.71653 0.0
H3221 H 0.30736 0.82677 0.71906 0.0
H3222 H 0.31614 0.79726 0.73448 0.0
H3223 H 0.26188 0.79404 0.75987 0.0
H3224 H 0.25286 0.8237 0.74483 0.0
H3225 H 0.21825 0.8707 0.64761 0.0
H3226 H 0.24736 0.87219 0.66569 0.0
H3227 H 0.21797 0.85225 0.71444 0.0
H3228 H 0.189 0.85043 0.69622 0.0
H3229 H 0.24952 0.83369 0.70952 0.0
H3230 H 0.23096 0.89842 0.70932 0.0
H3231 H 0.22173 0.92812 0.69453 0.0
H3232 H 0.27418 0.93028 0.66548 0.0
H3233 H 0.28361 0.90042 0.67989 0.0
C3234 C 0.31246 0.85788 0.76876 0.0
C3235 C 0.3307 0.86195 0.76276 0.0
C3236 C 0.29764 0.85835 0.7562 0.0
C3237 C 0.30081 0.86253 0.73734 0.0
C3238 C 0.31896 0.86682 0.73129 0.0
C3239 C 0.33387 0.86635 0.74392 0.0
C3240 C 0.28508 0.86185 0.72404 0.0
C3241 C 0.27989 0.87825 0.71469 0.0
C3242 C 0.27416 0.84551 0.72198 0.0
C3243 C 0.27948 0.82754 0.73091 0.0
C3244 C 0.29734 0.81985 0.72803 0.0
C3245 C 0.30236 0.80308 0.73669 0.0
C3246 C 0.28959 0.7938 0.74817 0.0
C3247 C 0.27176 0.80125 0.75098 0.0
C3248 C 0.26668 0.81803 0.74237 0.0
C3249 C 0.21807 0.86694 0.66227 0.0
C3250 C 0.20153 0.86074 0.67075 0.0
C3251 C 0.23462 0.86776 0.67255 0.0
C3252 C 0.23475 0.86252 0.69145 0.0
C3253 C 0.21814 0.85638 0.69988 0.0
C3254 C 0.20165 0.85543 0.68957 0.0
C3255 C 0.25228 0.86278 0.70236 0.0
C3256 C 0.25787 0.84623 0.7112 0.0
C3257 C 0.26346 0.879 0.70401 0.0
C3258 C 0.25791 0.89708 0.69553 0.0
C3259 C 0.24047 0.90515 0.69967 0.0
C3260 C 0.23521 0.92203 0.69137 0.0
C3261 C 0.24733 0.93105 0.67903 0.0
C3262 C 0.26478 0.92325 0.67502 0.0
C3263 C 0.2701 0.90636 0.68326 0.0
H3264 H 0.24323 0.9441 0.6726 0.0
H3265 H 0.2935 0.78083 0.75487 0.0
H3266 H 0.13148 0.304 0.79002 0.0
H3267 H 0.12632 0.27773 0.76957 0.0
H3268 H 0.13351 0.31339 0.72154 0.0
H3269 H 0.13666 0.3405 0.74218 0.0
H3270 H 0.10802 0.28704 0.71438 0.0
H3271 H 0.16993 0.28834 0.74072 0.0
H3272 H 0.19218 0.29037 0.76689 0.0
H3273 H 0.17064 0.23924 0.78964 0.0
H3274 H 0.14789 0.23716 0.7638 0.0
H3275 H 0.13976 0.21569 0.65217 0.0
H3276 H 0.13595 0.24361 0.67171 0.0
H3277 H 0.12572 0.20852 0.71969 0.0
H3278 H 0.12978 0.18063 0.70009 0.0
H3279 H 0.15184 0.23468 0.72655 0.0
H3280 H 0.09046 0.2329 0.69964 0.0
H3281 H 0.06748 0.23149 0.674 0.0
H3282 H 0.08841 0.28319 0.65199 0.0
H3283 H 0.11172 0.28477 0.67735 0.0
C3284 C 0.13093 0.30665 0.7752 0.0
C3285 C 0.13385 0.3246 0.7678 0.0
C3286 C 0.12843 0.2914 0.76345 0.0
C3287 C 0.12988 0.29353 0.74404 0.0
C3288 C 0.13235 0.31144 0.7365 0.0
C3289 C 0.1343 0.32687 0.7483 0.0
C3290 C 0.13033 0.27686 0.73186 0.0
C3291 C 0.11773 0.27567 0.71688 0.0
C3292 C 0.14283 0.26192 0.73535 0.0
C3293 C 0.1571 0.26269 0.75041 0.0
C3294 C 0.16991 0.27755 0.75132 0.0
C3295 C 0.18259 0.27872 0.76613 0.0
C3296 C 0.18282 0.26496 0.77996 0.0
C3297 C 0.17043 0.24991 0.77893 0.0
C3298 C 0.15763 0.24873 0.76422 0.0
C3299 C 0.1365 0.21409 0.66686 0.0
C3300 C 0.13503 0.19629 0.67483 0.0
C3301 C 0.13424 0.22994 0.67795 0.0
C3302 C 0.13039 0.22808 0.69709 0.0
C3303 C 0.12864 0.21019 0.70494 0.0
C3304 C 0.13092 0.19436 0.69383 0.0
C3305 C 0.12943 0.24476 0.70916 0.0
C3306 C 0.14206 0.246 0.72407 0.0
C3307 C 0.11704 0.25973 0.70551 0.0
C3308 C 0.10295 0.25886 0.69031 0.0
C3309 C 0.09027 0.24389 0.68925 0.0
C3310 C 0.07716 0.24308 0.67478 0.0
C3311 C 0.07651 0.25722 0.66135 0.0
C3312 C 0.08894 0.27224 0.66239 0.0
C3313 C 0.10209 0.27311 0.67682 0.0
H3314 H 0.06636 0.25656 0.65015 0.0
H3315 H 0.19256 0.26593 0.79148 0.0
H3316 H 0.69048 0.14932 0.78406 0.0
H3317 H 0.71705 0.1462 0.76287 0.0
H3318 H 0.68013 0.12712 0.71918 0.0
H3319 H 0.65332 0.13016 0.74057 0.0
H3320 H 0.71448 0.1059 0.72346 0.0
H3321 H 0.69353 0.16876 0.7155 0.0
H3322 H 0.68315 0.19991 0.72584 0.0
H3323 H 0.73599 0.20888 0.75285 0.0
H3324 H 0.7466 0.17764 0.74292 0.0
H3325 H 0.78639 0.11879 0.65475 0.0
H3326 H 0.75681 0.11847 0.67202 0.0
H3327 H 0.78385 0.14567 0.71859 0.0
H3328 H 0.81335 0.1462 0.70117 0.0
H3329 H 0.75195 0.16257 0.70966 0.0
H3330 H 0.77212 0.0991 0.7197 0.0
H3331 H 0.78258 0.06775 0.71003 0.0
H3332 H 0.73146 0.05977 0.6796 0.0
H3333 H 0.72081 0.0912 0.68887 0.0
C3334 C 0.6881 0.1441 0.77005 0.0
C3335 C 0.67005 0.13955 0.76396 0.0
C3336 C 0.70321 0.1425 0.75795 0.0
C3337 C 0.70046 0.13647 0.73952 0.0
C3338 C 0.68244 0.13172 0.73341 0.0
C3339 C 0.66723 0.13348 0.74554 0.0
C3340 C 0.71653 0.13572 0.7267 0.0
C3341 C 0.72253 0.1183 0.7201 0.0
C3342 C 0.72707 0.15191 0.72268 0.0
C3343 C 0.7208 0.17078 0.72858 0.0
C3344 C 0.70289 0.1773 0.72377 0.0
C3345 C 0.69697 0.19499 0.72954 0.0
C3346 C 0.70889 0.20635 0.74003 0.0
C3347 C 0.72677 0.20006 0.74473 0.0
C3348 C 0.73275 0.18237 0.73902 0.0
C3349 C 0.78601 0.12433 0.66883 0.0
C3350 C 0.80204 0.13224 0.67689 0.0
C3351 C 0.76917 0.12418 0.67863 0.0
C3352 C 0.76821 0.13188 0.69664 0.0
C3353 C 0.78433 0.13963 0.70472 0.0
C3354 C 0.80113 0.13985 0.69488 0.0
C3355 C 0.75026 0.13266 0.70679 0.0
C3356 C 0.74386 0.15015 0.71284 0.0
C3357 C 0.73941 0.11652 0.71031 0.0
C3358 C 0.74576 0.09758 0.70481 0.0
C3359 C 0.76318 0.09072 0.71082 0.0
C3360 C 0.76913 0.07292 0.70543 0.0
C3361 C 0.75772 0.06179 0.69416 0.0
C3362 C 0.7403 0.06842 0.6883 0.0
C3363 C 0.7343 0.08622 0.69362 0.0
H3364 H 0.76235 0.04802 0.69001 0.0
H3365 H 0.70428 0.22004 0.74448 0.0
H3366 H 0.85171 0.65261 0.74769 0.0
H3367 H 0.85657 0.67916 0.72657 0.0
H3368 H 0.85311 0.71699 0.7734 0.0
H3369 H 0.84771 0.69058 0.79436 0.0
H3370 H 0.83228 0.72859 0.74451 0.0
H3371 H 0.89503 0.70645 0.75399 0.0
H3372 H 0.92013 0.68284 0.75436 0.0
H3373 H 0.91304 0.67398 0.69546 0.0
H3374 H 0.8877 0.69735 0.69479 0.0
H3375 H 0.86255 0.81029 0.70021 0.0
H3376 H 0.86317 0.78335 0.72137 0.0
H3377 H 0.8652 0.74618 0.67393 0.0
H3378 H 0.86486 0.77319 0.65281 0.0
H3379 H 0.88749 0.73407 0.7029 0.0
H3380 H 0.82451 0.75561 0.69348 0.0
H3381 H 0.79951 0.77931 0.69285 0.0
H3382 H 0.80684 0.78898 0.7516 0.0
H3383 H 0.83213 0.76556 0.75251 0.0
C3384 C 0.85212 0.66662 0.75339 0.0
C3385 C 0.84994 0.66963 0.77261 0.0
C3386 C 0.85497 0.68171 0.7414 0.0
C3387 C 0.85555 0.69996 0.74853 0.0
C3388 C 0.85294 0.70297 0.7677 0.0
C3389 C 0.85009 0.68791 0.77966 0.0
C3390 C 0.85828 0.71603 0.73595 0.0
C3391 C 0.84448 0.72993 0.73561 0.0
C3392 C 0.87398 0.71745 0.72403 0.0
C3393 C 0.88934 0.70353 0.72438 0.0
C3394 C 0.89873 0.69937 0.74114 0.0
C3395 C 0.91301 0.68604 0.7414 0.0
C3396 C 0.91815 0.67689 0.72495 0.0
C3397 C 0.90904 0.68107 0.7082 0.0
C3398 C 0.89472 0.69437 0.70786 0.0
C3399 C 0.86346 0.79634 0.69443 0.0
C3400 C 0.86368 0.79358 0.67508 0.0
C3401 C 0.86378 0.78103 0.70643 0.0
C3402 C 0.864 0.76283 0.69914 0.0
C3403 C 0.86507 0.76013 0.67976 0.0
C3404 C 0.86485 0.77547 0.66777 0.0
C3405 C 0.86159 0.74667 0.71164 0.0
C3406 C 0.87536 0.73274 0.71189 0.0
C3407 C 0.84583 0.74515 0.72346 0.0
C3408 C 0.83034 0.75895 0.72303 0.0
C3409 C 0.82087 0.76287 0.70624 0.0
C3410 C 0.80664 0.77625 0.70584 0.0
C3411 C 0.80162 0.78568 0.72217 0.0
C3412 C 0.81076 0.78169 0.73895 0.0
C3413 C 0.82504 0.76836 0.73943 0.0
H3414 H 0.79061 0.79604 0.72182 0.0
H3415 H 0.9292 0.66657 0.72519 0.0
H3416 H 0.31182 0.19635 0.11266 0.0
H3417 H 0.29398 0.2256 0.11114 0.0
H3418 H 0.31428 0.24077 0.16583 0.0
H3419 H 0.33261 0.21196 0.16712 0.0
H3420 H 0.27456 0.24481 0.16026 0.0
H3421 H 0.33375 0.26013 0.13077 0.0
H3422 H 0.35861 0.25549 0.10739 0.0
H3423 H 0.31898 0.26413 0.06315 0.0
H3424 H 0.29381 0.26851 0.08629 0.0
H3425 H 0.2502 0.33741 0.17017 0.0
H3426 H 0.27069 0.3104 0.16687 0.0
H3427 H 0.25328 0.30397 0.10952 0.0
H3428 H 0.23337 0.33162 0.11247 0.0
H3429 H 0.28998 0.2945 0.1144 0.0
H3430 H 0.23117 0.28014 0.14174 0.0
H3431 H 0.20484 0.28386 0.16363 0.0
H3432 H 0.24117 0.27165 0.20981 0.0
H3433 H 0.26783 0.26824 0.18822 0.0
C3434 C 0.31247 0.20599 0.1243 0.0
C3435 C 0.3234 0.20192 0.14008 0.0
C3436 C 0.3023 0.22259 0.12344 0.0
C3437 C 0.3029 0.23522 0.13838 0.0
C3438 C 0.31361 0.23106 0.15424 0.0
C3439 C 0.32394 0.2146 0.15501 0.0
C3440 C 0.29249 0.25293 0.13754 0.0
C3441 C 0.27802 0.25577 0.15039 0.0
C3442 C 0.29667 0.26683 0.12415 0.0
C3443 C 0.31186 0.26444 0.11026 0.0
C3444 C 0.33031 0.26088 0.11606 0.0
C3445 C 0.34446 0.25832 0.10285 0.0
C3446 C 0.34037 0.25946 0.08379 0.0
C3447 C 0.32213 0.26322 0.07791 0.0
C3448 C 0.30791 0.26575 0.09107 0.0
C3449 C 0.25107 0.33054 0.15672 0.0
C3450 C 0.23966 0.33613 0.14177 0.0
C3451 C 0.26269 0.31506 0.15489 0.0
C3452 C 0.26299 0.30491 0.13814 0.0
C3453 C 0.25296 0.31148 0.12265 0.0
C3454 C 0.24141 0.32709 0.12444 0.0
C3455 C 0.27234 0.28658 0.13747 0.0
C3456 C 0.28648 0.28355 0.12426 0.0
C3457 C 0.26762 0.2723 0.1503 0.0
C3458 C 0.25156 0.2741 0.16336 0.0
C3459 C 0.23359 0.27839 0.15658 0.0
C3460 C 0.2186 0.28043 0.16893 0.0
C3461 C 0.22133 0.27802 0.1881 0.0
C3462 C 0.23907 0.27353 0.19495 0.0
C3463 C 0.25414 0.27154 0.18266 0.0
H3464 H 0.2097 0.27959 0.19764 0.0
H3465 H 0.35135 0.25747 0.07359 0.0
H3466 H 0.20629 0.69193 0.83239 0.0
H3467 H 0.22762 0.71853 0.83301 0.0
H3468 H 0.27239 0.68239 0.8511 0.0
H3469 H 0.25083 0.65571 0.85096 0.0
H3470 H 0.27023 0.71469 0.87172 0.0
H3471 H 0.27079 0.69709 0.80724 0.0
H3472 H 0.2572 0.68937 0.77655 0.0
H3473 H 0.23314 0.74417 0.77299 0.0
H3474 H 0.24621 0.7521 0.80387 0.0
H3475 H 0.34149 0.78235 0.85934 0.0
H3476 H 0.32254 0.75392 0.85729 0.0
H3477 H 0.2767 0.78612 0.8348 0.0
H3478 H 0.29593 0.81447 0.83641 0.0
H3479 H 0.28073 0.75465 0.81608 0.0
H3480 H 0.27789 0.77171 0.88099 0.0
H3481 H 0.2909 0.7799 0.91182 0.0
H3482 H 0.31845 0.72671 0.91471 0.0
H3483 H 0.30583 0.71831 0.88375 0.0
C3484 C 0.22057 0.68974 0.83688 0.0
C3485 C 0.22686 0.67194 0.84215 0.0
C3486 C 0.2328 0.70486 0.83693 0.0
C3487 C 0.25156 0.70237 0.84205 0.0
C3488 C 0.25793 0.68455 0.84715 0.0
C3489 C 0.24568 0.66938 0.84702 0.0
C3490 C 0.26439 0.71852 0.84245 0.0
C3491 C 0.27279 0.72328 0.8595 0.0
C3492 C 0.26729 0.7299 0.82657 0.0
C3493 C 0.25936 0.72513 0.80798 0.0
C3494 C 0.26245 0.70744 0.80001 0.0
C3495 C 0.25486 0.70304 0.78256 0.0
C3496 C 0.24431 0.71627 0.77284 0.0
C3497 C 0.24132 0.73394 0.78054 0.0
C3498 C 0.2488 0.73839 0.79803 0.0
C3499 C 0.3273 0.78327 0.85412 0.0
C3500 C 0.3199 0.80045 0.84835 0.0
C3501 C 0.31651 0.76711 0.85295 0.0
C3502 C 0.2981 0.76798 0.8462 0.0
C3503 C 0.29084 0.78517 0.84013 0.0
C3504 C 0.30172 0.80131 0.84113 0.0
C3505 C 0.28641 0.75098 0.84541 0.0
C3506 C 0.27823 0.74603 0.82829 0.0
C3507 C 0.2836 0.73949 0.86126 0.0
C3508 C 0.29106 0.74446 0.87996 0.0
C3509 C 0.28683 0.76181 0.88813 0.0
C3510 C 0.29412 0.76649 0.90564 0.0
C3511 C 0.30553 0.75385 0.9152 0.0
C3512 C 0.30963 0.73649 0.90728 0.0
C3513 C 0.30241 0.73176 0.88976 0.0
H3514 H 0.31117 0.75749 0.92875 0.0
H3515 H 0.23843 0.71283 0.75933 0.0
H3516 H 0.336 0.24827 0.85991 0.0
H3517 H 0.30753 0.26725 0.86336 0.0
H3518 H 0.27602 0.22549 0.83338 0.0
H3519 H 0.30437 0.20649 0.83011 0.0
H3520 H 0.27004 0.26369 0.8218 0.0
H3521 H 0.27206 0.2254 0.87758 0.0
H3522 H 0.28748 0.21306 0.90581 0.0
H3523 H 0.29231 0.2686 0.92786 0.0
H3524 H 0.27719 0.28132 0.89959 0.0
H3525 H 0.17758 0.29171 0.84086 0.0
H3526 H 0.20575 0.27217 0.83975 0.0
H3527 H 0.23466 0.31171 0.8749 0.0
H3528 H 0.20675 0.33142 0.87565 0.0
H3529 H 0.24258 0.27516 0.88443 0.0
H3530 H 0.24064 0.3141 0.83103 0.0
H3531 H 0.2283 0.32873 0.80245 0.0
H3532 H 0.22673 0.27528 0.77535 0.0
H3533 H 0.23833 0.26017 0.80406 0.0
C3534 C 0.32295 0.24327 0.85407 0.0
C3535 C 0.32209 0.22594 0.84503 0.0
C3536 C 0.30679 0.25401 0.85607 0.0
C3537 C 0.28975 0.2476 0.84877 0.0
C3538 C 0.28907 0.23055 0.83918 0.0
C3539 C 0.30514 0.21971 0.83743 0.0
C3540 C 0.27251 0.25855 0.8513 0.0
C3541 C 0.26382 0.26599 0.83543 0.0
C3542 C 0.26495 0.26201 0.8692 0.0
C3543 C 0.27365 0.25433 0.88639 0.0
C3544 C 0.27652 0.235 0.88839 0.0
C3545 C 0.2852 0.22793 0.9044 0.0
C3546 C 0.29092 0.24004 0.9186 0.0
C3547 C 0.2879 0.25924 0.91684 0.0
C3548 C 0.27926 0.26638 0.90083 0.0
C3549 C 0.1899 0.29602 0.84854 0.0
C3550 C 0.19005 0.31292 0.85843 0.0
C3551 C 0.20593 0.28492 0.84789 0.0
C3552 C 0.22226 0.29061 0.85717 0.0
C3553 C 0.22214 0.30707 0.86776 0.0
C3554 C 0.20619 0.31824 0.86825 0.0
C3555 C 0.23981 0.28003 0.85484 0.0
C3556 C 0.24866 0.27276 0.87076 0.0
C3557 C 0.24771 0.277 0.83697 0.0
C3558 C 0.2401 0.28594 0.81984 0.0
C3559 C 0.23733 0.30539 0.81912 0.0
C3560 C 0.23049 0.31379 0.80287 0.0
C3561 C 0.22668 0.30294 0.78712 0.0
C3562 C 0.22963 0.28366 0.7876 0.0
C3563 C 0.23625 0.27516 0.80389 0.0
H3564 H 0.22152 0.30949 0.7745 0.0
H3565 H 0.29766 0.23455 0.93098 0.0
H3566 H 0.69108 0.18913 0.88098 0.0
H3567 H 0.70972 0.21793 0.88333 0.0
H3568 H 0.68045 0.24065 0.83579 0.0
H3569 H 0.6614 0.21236 0.83387 0.0
H3570 H 0.72127 0.24218 0.83446 0.0
H3571 H 0.66851 0.2563 0.87469 0.0
H3572 H 0.64753 0.25023 0.90131 0.0
H3573 H 0.69415 0.25284 0.93902 0.0
H3574 H 0.71547 0.25863 0.91256 0.0
H3575 H 0.7475 0.33501 0.82963 0.0
H3576 H 0.72752 0.30766 0.83304 0.0
H3577 H 0.75222 0.29612 0.88681 0.0
H3578 H 0.77144 0.32418 0.88402 0.0
H3579 H 0.71582 0.28737 0.88677 0.0
H3580 H 0.76859 0.27456 0.84838 0.0
H3581 H 0.79082 0.28 0.82265 0.0
H3582 H 0.74662 0.27316 0.78264 0.0
H3583 H 0.72403 0.26805 0.80816 0.0
C3584 C 0.68864 0.20037 0.87115 0.0
C3585 C 0.67508 0.19854 0.85709 0.0
C3586 C 0.69924 0.21671 0.87248 0.0
C3587 C 0.69644 0.23127 0.85967 0.0
C3588 C 0.68286 0.22946 0.84568 0.0
C3589 C 0.6721 0.2133 0.84454 0.0
C3590 C 0.70775 0.24842 0.86057 0.0
C3591 C 0.72001 0.25217 0.84579 0.0
C3592 C 0.70645 0.261 0.87571 0.0
C3593 C 0.69362 0.25767 0.89162 0.0
C3594 C 0.67432 0.2554 0.88864 0.0
C3595 C 0.66236 0.25204 0.9037 0.0
C3596 C 0.66951 0.25109 0.92184 0.0
C3597 C 0.68864 0.25355 0.92496 0.0
C3598 C 0.70066 0.25687 0.90993 0.0
C3599 C 0.74846 0.32686 0.84235 0.0
C3600 C 0.76162 0.33129 0.85621 0.0
C3601 C 0.73712 0.31117 0.84421 0.0
C3602 C 0.73889 0.29954 0.85989 0.0
C3603 C 0.75093 0.30473 0.87444 0.0
C3604 C 0.76214 0.32059 0.87267 0.0
C3605 C 0.72907 0.28139 0.8604 0.0
C3606 C 0.7172 0.27738 0.87547 0.0
C3607 C 0.73096 0.26835 0.84565 0.0
C3608 C 0.74457 0.27107 0.83021 0.0
C3609 C 0.76358 0.27433 0.8341 0.0
C3610 C 0.77625 0.27736 0.81956 0.0
C3611 C 0.77013 0.27696 0.80102 0.0
C3612 C 0.75133 0.27348 0.79701 0.0
C3613 C 0.73859 0.27051 0.81151 0.0
H3614 H 0.77996 0.27932 0.78978 0.0
H3615 H 0.66023 0.24849 0.93349 0.0
H3616 H 0.66238 0.74692 0.85725 0.0
H3617 H 0.68876 0.72598 0.86345 0.0
H3618 H 0.72718 0.77139 0.85373 0.0
H3619 H 0.70101 0.79204 0.84674 0.0
H3620 H 0.73805 0.74039 0.83623 0.0
H3621 H 0.71708 0.75646 0.89817 0.0
H3622 H 0.69384 0.75948 0.92342 0.0
H3623 H 0.68435 0.70029 0.92218 0.0
H3624 H 0.70735 0.69695 0.89673 0.0
H3625 H 0.81978 0.69736 0.86719 0.0
H3626 H 0.79348 0.71931 0.86734 0.0
H3627 H 0.75536 0.6736 0.87709 0.0
H3628 H 0.78178 0.65175 0.8774 0.0
H3629 H 0.74422 0.70474 0.89538 0.0
H3630 H 0.763 0.6885 0.83281 0.0
H3631 H 0.78525 0.68467 0.80677 0.0
H3632 H 0.79804 0.74321 0.80869 0.0
H3633 H 0.77586 0.74738 0.83477 0.0
C3634 C 0.67647 0.75239 0.85647 0.0
C3635 C 0.67965 0.77123 0.85208 0.0
C3636 C 0.69149 0.74048 0.86014 0.0
C3637 C 0.70988 0.74727 0.85944 0.0
C3638 C 0.71307 0.76597 0.85461 0.0
C3639 C 0.69808 0.77784 0.8509 0.0
C3640 C 0.7259 0.73478 0.86319 0.0
C3641 C 0.73954 0.73282 0.84928 0.0
C3642 C 0.72752 0.72452 0.88 0.0
C3643 C 0.71382 0.72648 0.89543 0.0
C3644 C 0.70994 0.74411 0.90319 0.0
C3645 C 0.69683 0.74587 0.91755 0.0
C3646 C 0.68759 0.73009 0.92437 0.0
C3647 C 0.6915 0.7125 0.91687 0.0
C3648 C 0.70459 0.71066 0.90249 0.0
C3649 C 0.80581 0.69219 0.86992 0.0
C3650 C 0.80262 0.67305 0.87235 0.0
C3651 C 0.79083 0.70463 0.86986 0.0
C3652 C 0.77248 0.69799 0.87185 0.0
C3653 C 0.76943 0.67898 0.8755 0.0
C3654 C 0.78445 0.66655 0.87572 0.0
C3655 C 0.75643 0.71055 0.86851 0.0
C3656 C 0.74276 0.71243 0.8824 0.0
C3657 C 0.75466 0.72065 0.85161 0.0
C3658 C 0.76791 0.71821 0.83585 0.0
C3659 C 0.77062 0.70054 0.82773 0.0
C3660 C 0.78318 0.69832 0.81294 0.0
C3661 C 0.79311 0.71367 0.80614 0.0
C3662 C 0.79038 0.73132 0.81401 0.0
C3663 C 0.77777 0.73363 0.82875 0.0
H3664 H 0.8029 0.7119 0.79474 0.0
H3665 H 0.67744 0.73148 0.93549 0.0
H3666 H 0.6527 0.77898 0.15213 0.0
H3667 H 0.66989 0.74953 0.14966 0.0
H3668 H 0.70392 0.77292 0.10576 0.0
H3669 H 0.6868 0.80263 0.10841 0.0
H3670 H 0.69217 0.73312 0.10125 0.0
H3671 H 0.72186 0.77547 0.14464 0.0
H3672 H 0.72155 0.79745 0.17115 0.0
H3673 H 0.70181 0.75396 0.20739 0.0
H3674 H 0.70162 0.7318 0.18099 0.0
H3675 H 0.76964 0.67123 0.11135 0.0
H3676 H 0.74817 0.69725 0.1068 0.0
H3677 H 0.72131 0.6843 0.15921 0.0
H3678 H 0.74365 0.65911 0.16448 0.0
H3679 H 0.72951 0.7195 0.15811 0.0
H3680 H 0.70014 0.67675 0.11566 0.0
H3681 H 0.69863 0.65466 0.08928 0.0
H3682 H 0.71647 0.69783 0.05168 0.0
H3683 H 0.71832 0.72013 0.07788 0.0
C3684 C 0.6638 0.77775 0.14192 0.0
C3685 C 0.6689 0.79304 0.1308 0.0
C3686 C 0.67345 0.76096 0.1404 0.0
C3687 C 0.68822 0.75924 0.12767 0.0
C3688 C 0.69252 0.77409 0.11565 0.0
C3689 C 0.68289 0.79099 0.11724 0.0
C3690 C 0.70037 0.7427 0.12853 0.0
C3691 C 0.70056 0.73015 0.11353 0.0
C3692 C 0.71092 0.73886 0.14477 0.0
C3693 C 0.71156 0.75202 0.16079 0.0
C3694 C 0.71732 0.77062 0.15823 0.0
C3695 C 0.71725 0.78311 0.17324 0.0
C3696 C 0.71162 0.77712 0.19094 0.0
C3697 C 0.70614 0.75859 0.19367 0.0
C3698 C 0.70613 0.74605 0.17869 0.0
C3699 C 0.75938 0.6741 0.12206 0.0
C3700 C 0.75882 0.66361 0.13864 0.0
C3701 C 0.74683 0.68873 0.11923 0.0
C3702 C 0.73316 0.69274 0.13269 0.0
C3703 C 0.73186 0.68153 0.14871 0.0
C3704 C 0.74456 0.66708 0.15165 0.0
C3705 C 0.72121 0.7095 0.1309 0.0
C3706 C 0.72115 0.72228 0.14577 0.0
C3707 C 0.71073 0.71343 0.11457 0.0
C3708 C 0.70954 0.70006 0.09877 0.0
C3709 C 0.70388 0.6815 0.10179 0.0
C3710 C 0.70293 0.66895 0.08687 0.0
C3711 C 0.7075 0.67483 0.06882 0.0
C3712 C 0.71296 0.69329 0.06566 0.0
C3713 C 0.71394 0.7059 0.08054 0.0
H3714 H 0.70676 0.66508 0.05729 0.0
H3715 H 0.71154 0.78682 0.20253 0.0
H3716 H 0.21117 0.65822 0.16034 0.0
H3717 H 0.24036 0.67605 0.15987 0.0
H3718 H 0.21948 0.70911 0.11401 0.0
H3719 H 0.18992 0.69162 0.11482 0.0
H3720 H 0.25848 0.69583 0.11098 0.0
H3721 H 0.21633 0.7279 0.15306 0.0
H3722 H 0.19456 0.72934 0.17971 0.0
H3723 H 0.23809 0.71076 0.21661 0.0
H3724 H 0.26004 0.70887 0.19009 0.0
H3725 H 0.31944 0.77341 0.1149 0.0
H3726 H 0.29359 0.75144 0.11275 0.0
H3727 H 0.30772 0.72946 0.16712 0.0
H3728 H 0.33276 0.75246 0.16994 0.0
H3729 H 0.27236 0.73582 0.16588 0.0
H3730 H 0.3151 0.70463 0.12536 0.0
H3731 H 0.33734 0.70141 0.09926 0.0
H3732 H 0.29418 0.71619 0.06028 0.0
H3733 H 0.27172 0.71975 0.08617 0.0
C3734 C 0.21277 0.66943 0.1503 0.0
C3735 C 0.19824 0.67396 0.13793 0.0
C3736 C 0.22945 0.67943 0.14993 0.0
C3737 C 0.2319 0.69391 0.137 0.0
C3738 C 0.21774 0.69794 0.12407 0.0
C3739 C 0.20093 0.68805 0.12458 0.0
C3740 C 0.24887 0.7055 0.13775 0.0
C3741 C 0.26151 0.70477 0.12284 0.0
C3742 C 0.25289 0.71662 0.15354 0.0
C3743 C 0.23978 0.71807 0.16955 0.0
C3744 C 0.22122 0.72397 0.16682 0.0
C3745 C 0.20885 0.72489 0.18191 0.0
C3746 C 0.21493 0.72011 0.19984 0.0
C3747 C 0.2334 0.71444 0.20271 0.0
C3748 C 0.24581 0.71345 0.18766 0.0
C3749 C 0.31686 0.76415 0.12655 0.0
C3750 C 0.32767 0.76516 0.1429 0.0
C3751 C 0.30231 0.75128 0.12512 0.0
C3752 C 0.29871 0.73876 0.13977 0.0
C3753 C 0.31016 0.73907 0.15569 0.0
C3754 C 0.32453 0.75215 0.15723 0.0
C3755 C 0.28223 0.72627 0.13904 0.0
C3756 C 0.26955 0.72684 0.154 0.0
C3757 C 0.27832 0.71483 0.12338 0.0
C3758 C 0.29177 0.71261 0.10774 0.0
C3759 C 0.31038 0.70733 0.11124 0.0
C3760 C 0.32302 0.70542 0.09648 0.0
C3761 C 0.31719 0.70863 0.07813 0.0
C3762 C 0.29868 0.71371 0.0745 0.0
C3763 C 0.28598 0.71566 0.08921 0.0
H3764 H 0.327 0.70715 0.06672 0.0
H3765 H 0.20535 0.72085 0.21151 0.0
H3766 H 0.69597 0.20407 0.14886 0.0
H3767 H 0.72364 0.2237 0.146 0.0
H3768 H 0.6889 0.2706 0.13093 0.0
H3769 H 0.661 0.25073 0.13333 0.0
H3770 H 0.72089 0.26687 0.10847 0.0
H3771 H 0.70486 0.26817 0.17368 0.0
H3772 H 0.69701 0.25427 0.2042 0.0
H3773 H 0.75001 0.22614 0.20539 0.0
H3774 H 0.75807 0.23966 0.17473 0.0
H3775 H 0.78842 0.33787 0.1239 0.0
H3776 H 0.7607 0.31786 0.12325 0.0
H3777 H 0.79334 0.27211 0.14521 0.0
H3778 H 0.82098 0.29241 0.14635 0.0
H3779 H 0.76201 0.27531 0.16367 0.0
H3780 H 0.77848 0.2737 0.09885 0.0
H3781 H 0.78661 0.28697 0.06813 0.0
H3782 H 0.73348 0.31478 0.06572 0.0
H3783 H 0.72514 0.3019 0.09657 0.0
C3784 C 0.69423 0.21842 0.14449 0.0
C3785 C 0.67642 0.22581 0.14086 0.0
C3786 C 0.71003 0.22968 0.14311 0.0
C3787 C 0.70825 0.24857 0.13831 0.0
C3788 C 0.69049 0.25601 0.13459 0.0
C3789 C 0.67463 0.24472 0.13604 0.0
C3790 C 0.72499 0.26057 0.13758 0.0
C3791 C 0.72978 0.26897 0.12056 0.0
C3792 C 0.73675 0.26281 0.1533 0.0
C3793 C 0.73199 0.25479 0.17182 0.0
C3794 C 0.71478 0.2589 0.18038 0.0
C3795 C 0.71031 0.25111 0.19771 0.0
C3796 C 0.72298 0.23929 0.2067 0.0
C3797 C 0.74019 0.23528 0.1984 0.0
C3798 C 0.74473 0.24302 0.18105 0.0
C3799 C 0.78966 0.32344 0.12827 0.0
C3800 C 0.8067 0.31647 0.13496 0.0
C3801 C 0.77388 0.31203 0.12787 0.0
C3802 C 0.77503 0.29342 0.13393 0.0
C3803 C 0.79219 0.28641 0.14042 0.0
C3804 C 0.80792 0.2979 0.14099 0.0
C3805 C 0.75809 0.28158 0.13447 0.0
C3806 C 0.7532 0.27323 0.15151 0.0
C3807 C 0.74632 0.27931 0.11873 0.0
C3808 C 0.75125 0.28696 0.1001 0.0
C3809 C 0.76858 0.28276 0.09183 0.0
C3810 C 0.77322 0.29019 0.07438 0.0
C3811 C 0.76059 0.30175 0.065 0.0
C3812 C 0.74326 0.30584 0.07301 0.0
C3813 C 0.73856 0.29846 0.09047 0.0
H3814 H 0.76421 0.30749 0.05149 0.0
H3815 H 0.71949 0.23327 0.22012 0.0
loop_
_geom_bond_atom_site_label_1
_geom_bond_atom_site_label_2
_geom_bond_distance
_geom_bond_site_symmetry_2
_ccdc_geom_bond_type
Co0 O3 1.970 . S
Co0 N17 1.989 . S
Co0 O25 1.967 . S
Co0 O32 1.920 . S
Co1 O4 1.966 . S
Co1 N10 2.022 . S
Co1 N18 1.993 . S
Co1 O26 1.941 . S
C2 O3 1.258 . S
C2 O4 1.263 . S
O3 Co0 1.970 . S
O3 C2 1.258 . S
O4 Co1 1.966 . S
O4 C2 1.263 . S
C5 O6 1.235 . S
C5 O32 1.289 . S
O6 C5 1.235 . S
C7 C9 1.400 . S
C7 N10 1.351 . S
C7 C12 1.501 . S
C8 C9 1.387 . S
C8 N11 1.341 . S
C9 C7 1.400 . S
C9 C8 1.387 . S
N10 Co1 2.022 . S
N10 C7 1.351 . S
N10 N11 1.365 . S
N11 C8 1.341 . S
N11 N10 1.365 . S
N11 H31 0.862 . S
C12 C7 1.501 . S
C12 H13 0.961 . S
C12 H14 0.961 . S
C12 H15 0.960 . S
H13 C12 0.961 . S
H14 C12 0.961 . S
H15 C12 0.960 . S
C16 N17 1.342 . S
C16 C20 1.401 . S
C16 C21 1.499 . S
N17 Co0 1.989 . S
N17 C16 1.342 . S
N17 N18 1.388 . S
N18 Co1 1.993 . S
N18 N17 1.388 . S
N18 C19 1.346 . S
C19 N18 1.346 . S
C19 C20 1.396 . S
C19 C29 1.510 . S
C20 C16 1.401 . S
C20 C19 1.396 . S
C21 C16 1.499 . S
C21 H22 0.959 . S
C21 H23 0.960 . S
C21 H24 0.961 . S
H22 C21 0.959 . S
H23 C21 0.960 . S
H24 C21 0.961 . S
O25 Co0 1.967 . S
O25 C33 1.258 . S
O26 Co1 1.941 . S
O26 C33 1.266 . S
H27 C29 0.959 . S
H28 C29 0.961 . S
C29 C19 1.510 . S
C29 H27 0.959 . S
C29 H28 0.961 . S
C29 H30 0.960 . S
H30 C29 0.960 . S
H31 N11 0.862 . S
O32 Co0 1.920 . S
O32 C5 1.289 . S
C33 O25 1.258 . S
C33 O26 1.266 . S
Co34 O37 1.970 . S
Co34 N51 1.989 . S
Co34 O59 1.967 . S
Co34 O66 1.920 . S
Co35 O38 1.966 . S
Co35 N44 2.022 . S
Co35 N52 1.993 . S
Co35 O60 1.941 . S
C36 O37 1.258 . S
C36 O38 1.263 . S
O37 Co34 1.970 . S
O37 C36 1.258 . S
O38 Co35 1.966 . S
O38 C36 1.263 . S
C39 O40 1.235 . S
C39 O66 1.289 . S
O40 C39 1.235 . S
C41 C43 1.400 . S
C41 N44 1.351 . S
C41 C46 1.501 . S
C42 C43 1.387 . S
C42 N45 1.341 . S
C43 C41 1.400 . S
C43 C42 1.387 . S
N44 Co35 2.022 . S
N44 C41 1.351 . S
N44 N45 1.365 . S
N45 C42 1.341 . S
N45 N44 1.365 . S
N45 H65 0.862 . S
C46 C41 1.501 . S
C46 H47 0.961 . S
C46 H48 0.961 . S
C46 H49 0.960 . S
H47 C46 0.961 . S
H48 C46 0.961 . S
H49 C46 0.960 . S
C50 N51 1.342 . S
C50 C54 1.401 . S
C50 C55 1.499 . S
N51 Co34 1.989 . S
N51 C50 1.342 . S
N51 N52 1.388 . S
N52 Co35 1.993 . S
N52 N51 1.388 . S
N52 C53 1.346 . S
C53 N52 1.346 . S
C53 C54 1.396 . S
C53 C63 1.510 . S
C54 C50 1.401 . S
C54 C53 1.396 . S
C55 C50 1.499 . S
C55 H56 0.959 . S
C55 H57 0.960 . S
C55 H58 0.961 . S
H56 C55 0.959 . S
H57 C55 0.960 . S
H58 C55 0.961 . S
O59 Co34 1.967 . S
O59 C67 1.258 . S
O60 Co35 1.941 . S
O60 C67 1.266 . S
H61 C63 0.959 . S
H62 C63 0.961 . S
C63 C53 1.510 . S
C63 H61 0.959 . S
C63 H62 0.961 . S
C63 H64 0.960 . S
H64 C63 0.960 . S
H65 N45 0.862 . S
O66 Co34 1.920 . S
O66 C39 1.289 . S
C67 O59 1.258 . S
C67 O60 1.266 . S
Co68 O71 1.970 . S
Co68 N85 1.989 . S
Co68 O93 1.967 . S
Co68 O100 1.920 . S
Co69 O72 1.966 . S
Co69 N78 2.022 . S
Co69 N86 1.993 . S
Co69 O94 1.941 . S
C70 O71 1.258 . S
C70 O72 1.263 . S
O71 Co68 1.970 . S
O71 C70 1.258 . S
O72 Co69 1.966 . S
O72 C70 1.263 . S
C73 O74 1.235 . S
C73 O100 1.289 . S
O74 C73 1.235 . S
C75 C77 1.400 . S
C75 N78 1.351 . S
C75 C80 1.501 . S
C76 C77 1.387 . S
C76 N79 1.341 . S
C77 C75 1.400 . S
C77 C76 1.387 . S
N78 Co69 2.022 . S
N78 C75 1.351 . S
N78 N79 1.365 . S
N79 C76 1.341 . S
N79 N78 1.365 . S
N79 H99 0.862 . S
C80 C75 1.501 . S
C80 H81 0.961 . S
C80 H82 0.961 . S
C80 H83 0.960 . S
H81 C80 0.961 . S
H82 C80 0.961 . S
H83 C80 0.960 . S
C84 N85 1.342 . S
C84 C88 1.401 . S
C84 C89 1.499 . S
N85 Co68 1.989 . S
N85 C84 1.342 . S
N85 N86 1.388 . S
N86 Co69 1.993 . S
N86 N85 1.388 . S
N86 C87 1.346 . S
C87 N86 1.346 . S
C87 C88 1.396 . S
C87 C97 1.510 . S
C88 C84 1.401 . S
C88 C87 1.396 . S
C89 C84 1.499 . S
C89 H90 0.959 . S
C89 H91 0.960 . S
C89 H92 0.961 . S
H90 C89 0.959 . S
H91 C89 0.960 . S
H92 C89 0.961 . S
O93 Co68 1.967 . S
O93 C101 1.258 . S
O94 Co69 1.941 . S
O94 C101 1.266 . S
H95 C97 0.959 . S
H96 C97 0.961 . S
C97 C87 1.510 . S
C97 H95 0.959 . S
C97 H96 0.961 . S
C97 H98 0.960 . S
H98 C97 0.960 . S
H99 N79 0.862 . S
O100 Co68 1.920 . S
O100 C73 1.289 . S
C101 O93 1.258 . S
C101 O94 1.266 . S
Co102 O105 1.970 . S
Co102 N119 1.989 . S
Co102 O127 1.967 . S
Co102 O134 1.920 . S
Co103 O106 1.966 . S
Co103 N112 2.022 . S
Co103 N120 1.993 . S
Co103 O128 1.941 . S
C104 O105 1.258 . S
C104 O106 1.263 . S
O105 Co102 1.970 . S
O105 C104 1.258 . S
O106 Co103 1.966 . S
O106 C104 1.263 . S
C107 O108 1.235 . S
C107 O134 1.289 . S
O108 C107 1.235 . S
C109 C111 1.400 . S
C109 N112 1.351 . S
C109 C114 1.501 . S
C110 C111 1.387 . S
C110 N113 1.341 . S
C111 C109 1.400 . S
C111 C110 1.387 . S
N112 Co103 2.022 . S
N112 C109 1.351 . S
N112 N113 1.365 . S
N113 C110 1.341 . S
N113 N112 1.365 . S
N113 H133 0.862 . S
C114 C109 1.501 . S
C114 H115 0.961 . S
C114 H116 0.961 . S
C114 H117 0.960 . S
H115 C114 0.961 . S
H116 C114 0.961 . S
H117 C114 0.960 . S
C118 N119 1.342 . S
C118 C122 1.401 . S
C118 C123 1.499 . S
N119 Co102 1.989 . S
N119 C118 1.342 . S
N119 N120 1.388 . S
N120 Co103 1.993 . S
N120 N119 1.388 . S
N120 C121 1.346 . S
C121 N120 1.346 . S
C121 C122 1.396 . S
C121 C131 1.510 . S
C122 C118 1.401 . S
C122 C121 1.396 . S
C123 C118 1.499 . S
C123 H124 0.959 . S
C123 H125 0.960 . S
C123 H126 0.961 . S
H124 C123 0.959 . S
H125 C123 0.960 . S
H126 C123 0.961 . S
O127 Co102 1.967 . S
O127 C135 1.258 . S
O128 Co103 1.941 . S
O128 C135 1.266 . S
H129 C131 0.959 . S
H130 C131 0.961 . S
C131 C121 1.510 . S
C131 H129 0.959 . S
C131 H130 0.961 . S
C131 H132 0.960 . S
H132 C131 0.960 . S
H133 N113 0.862 . S
O134 Co102 1.920 . S
O134 C107 1.289 . S
C135 O127 1.258 . S
C135 O128 1.266 . S
Co136 O139 1.970 . S
Co136 N153 1.989 . S
Co136 O161 1.967 . S
Co136 O168 1.920 . S
Co137 O140 1.966 . S
Co137 N146 2.022 . S
Co137 N154 1.993 . S
Co137 O162 1.941 . S
C138 O139 1.258 . S
C138 O140 1.263 . S
O139 Co136 1.970 . S
O139 C138 1.258 . S
O140 Co137 1.966 . S
O140 C138 1.263 . S
C141 O142 1.235 . S
C141 O168 1.289 . S
O142 C141 1.235 . S
C143 C145 1.400 . S
C143 N146 1.351 . S
C143 C148 1.501 . S
C144 C145 1.387 . S
C144 N147 1.341 . S
C145 C143 1.400 . S
C145 C144 1.387 . S
N146 Co137 2.022 . S
N146 C143 1.351 . S
N146 N147 1.365 . S
N147 C144 1.341 . S
N147 N146 1.365 . S
N147 H167 0.862 . S
C148 C143 1.501 . S
C148 H149 0.961 . S
C148 H150 0.961 . S
C148 H151 0.960 . S
H149 C148 0.961 . S
H150 C148 0.961 . S
H151 C148 0.960 . S
C152 N153 1.342 . S
C152 C156 1.401 . S
C152 C157 1.499 . S
N153 Co136 1.989 . S
N153 C152 1.342 . S
N153 N154 1.388 . S
N154 Co137 1.993 . S
N154 N153 1.388 . S
N154 C155 1.346 . S
C155 N154 1.346 . S
C155 C156 1.396 . S
C155 C165 1.510 . S
C156 C152 1.401 . S
C156 C155 1.396 . S
C157 C152 1.499 . S
C157 H158 0.959 . S
C157 H159 0.960 . S
C157 H160 0.961 . S
H158 C157 0.959 . S
H159 C157 0.960 . S
H160 C157 0.961 . S
O161 Co136 1.967 . S
O161 C169 1.258 . S
O162 Co137 1.941 . S
O162 C169 1.266 . S
H163 C165 0.959 . S
H164 C165 0.961 . S
C165 C155 1.510 . S
C165 H163 0.959 . S
C165 H164 0.961 . S
C165 H166 0.960 . S
H166 C165 0.960 . S
H167 N147 0.862 . S
O168 Co136 1.920 . S
O168 C141 1.289 . S
C169 O161 1.258 . S
C169 O162 1.266 . S
Co170 O173 1.970 . S
Co170 N187 1.989 . S
Co170 O195 1.967 . S
Co170 O202 1.920 . S
Co171 O174 1.966 . S
Co171 N180 2.022 . S
Co171 N188 1.993 . S
Co171 O196 1.941 . S
C172 O173 1.258 . S
C172 O174 1.263 . S
O173 Co170 1.970 . S
O173 C172 1.258 . S
O174 Co171 1.966 . S
O174 C172 1.263 . S
C175 O176 1.235 . S
C175 O202 1.289 . S
O176 C175 1.235 . S
C177 C179 1.400 . S
C177 N180 1.351 . S
C177 C182 1.501 . S
C178 C179 1.387 . S
C178 N181 1.341 . S
C179 C177 1.400 . S
C179 C178 1.387 . S
N180 Co171 2.022 . S
N180 C177 1.351 . S
N180 N181 1.365 . S
N181 C178 1.341 . S
N181 N180 1.365 . S
N181 H201 0.862 . S
C182 C177 1.501 . S
C182 H183 0.961 . S
C182 H184 0.961 . S
C182 H185 0.960 . S
H183 C182 0.961 . S
H184 C182 0.961 . S
H185 C182 0.960 . S
C186 N187 1.342 . S
C186 C190 1.401 . S
C186 C191 1.499 . S
N187 Co170 1.989 . S
N187 C186 1.342 . S
N187 N188 1.388 . S
N188 Co171 1.993 . S
N188 N187 1.388 . S
N188 C189 1.346 . S
C189 N188 1.346 . S
C189 C190 1.396 . S
C189 C199 1.510 . S
C190 C186 1.401 . S
C190 C189 1.396 . S
C191 C186 1.499 . S
C191 H192 0.959 . S
C191 H193 0.960 . S
C191 H194 0.961 . S
H192 C191 0.959 . S
H193 C191 0.960 . S
H194 C191 0.961 . S
O195 Co170 1.967 . S
O195 C203 1.258 . S
O196 Co171 1.941 . S
O196 C203 1.266 . S
H197 C199 0.959 . S
H198 C199 0.961 . S
C199 C189 1.510 . S
C199 H197 0.959 . S
C199 H198 0.961 . S
C199 H200 0.960 . S
H200 C199 0.960 . S
H201 N181 0.862 . S
O202 Co170 1.920 . S
O202 C175 1.289 . S
C203 O195 1.258 . S
C203 O196 1.266 . S
Co204 O207 1.970 . S
Co204 N221 1.989 . S
Co204 O229 1.967 . S
Co204 O236 1.920 . S
Co205 O208 1.966 . S
Co205 N214 2.022 . S
Co205 N222 1.993 . S
Co205 O230 1.941 . S
C206 O207 1.258 . S
C206 O208 1.263 . S
O207 Co204 1.970 . S
O207 C206 1.258 . S
O208 Co205 1.966 . S
O208 C206 1.263 . S
C209 O210 1.235 . S
C209 O236 1.289 . S
O210 C209 1.235 . S
C211 C213 1.400 . S
C211 N214 1.351 . S
C211 C216 1.501 . S
C212 C213 1.387 . S
C212 N215 1.341 . S
C213 C211 1.400 . S
C213 C212 1.387 . S
N214 Co205 2.022 . S
N214 C211 1.351 . S
N214 N215 1.365 . S
N215 C212 1.341 . S
N215 N214 1.365 . S
N215 H235 0.862 . S
C216 C211 1.501 . S
C216 H217 0.961 . S
C216 H218 0.961 . S
C216 H219 0.960 . S
H217 C216 0.961 . S
H218 C216 0.961 . S
H219 C216 0.960 . S
C220 N221 1.342 . S
C220 C224 1.401 . S
C220 C225 1.499 . S
N221 Co204 1.989 . S
N221 C220 1.342 . S
N221 N222 1.388 . S
N222 Co205 1.993 . S
N222 N221 1.388 . S
N222 C223 1.346 . S
C223 N222 1.346 . S
C223 C224 1.396 . S
C223 C233 1.510 . S
C224 C220 1.401 . S
C224 C223 1.396 . S
C225 C220 1.499 . S
C225 H226 0.959 . S
C225 H227 0.960 . S
C225 H228 0.961 . S
H226 C225 0.959 . S
H227 C225 0.960 . S
H228 C225 0.961 . S
O229 Co204 1.967 . S
O229 C237 1.258 . S
O230 Co205 1.941 . S
O230 C237 1.266 . S
H231 C233 0.959 . S
H232 C233 0.961 . S
C233 C223 1.510 . S
C233 H231 0.959 . S
C233 H232 0.961 . S
C233 H234 0.960 . S
H234 C233 0.960 . S
H235 N215 0.862 . S
O236 Co204 1.920 . S
O236 C209 1.289 . S
C237 O229 1.258 . S
C237 O230 1.266 . S
Co238 O241 1.970 . S
Co238 N255 1.989 . S
Co238 O263 1.967 . S
Co238 O270 1.920 . S
Co239 O242 1.966 . S
Co239 N248 2.022 . S
Co239 N256 1.993 . S
Co239 O264 1.941 . S
C240 O241 1.258 . S
C240 O242 1.263 . S
O241 Co238 1.970 . S
O241 C240 1.258 . S
O242 Co239 1.966 . S
O242 C240 1.263 . S
C243 O244 1.235 . S
C243 O270 1.289 . S
O244 C243 1.235 . S
C245 C247 1.400 . S
C245 N248 1.351 . S
C245 C250 1.501 . S
C246 C247 1.387 . S
C246 N249 1.341 . S
C247 C245 1.400 . S
C247 C246 1.387 . S
N248 Co239 2.022 . S
N248 C245 1.351 . S
N248 N249 1.365 . S
N249 C246 1.341 . S
N249 N248 1.365 . S
N249 H269 0.862 . S
C250 C245 1.501 . S
C250 H251 0.961 . S
C250 H252 0.961 . S
C250 H253 0.960 . S
H251 C250 0.961 . S
H252 C250 0.961 . S
H253 C250 0.960 . S
C254 N255 1.342 . S
C254 C258 1.401 . S
C254 C259 1.499 . S
N255 Co238 1.989 . S
N255 C254 1.342 . S
N255 N256 1.388 . S
N256 Co239 1.993 . S
N256 N255 1.388 . S
N256 C257 1.346 . S
C257 N256 1.346 . S
C257 C258 1.396 . S
C257 C267 1.510 . S
C258 C254 1.401 . S
C258 C257 1.396 . S
C259 C254 1.499 . S
C259 H260 0.959 . S
C259 H261 0.960 . S
C259 H262 0.961 . S
H260 C259 0.959 . S
H261 C259 0.960 . S
H262 C259 0.961 . S
O263 Co238 1.967 . S
O263 C271 1.258 . S
O264 Co239 1.941 . S
O264 C271 1.266 . S
H265 C267 0.959 . S
H266 C267 0.961 . S
C267 C257 1.510 . S
C267 H265 0.959 . S
C267 H266 0.961 . S
C267 H268 0.960 . S
H268 C267 0.960 . S
H269 N249 0.862 . S
O270 Co238 1.920 . S
O270 C243 1.289 . S
C271 O263 1.258 . S
C271 O264 1.266 . S
Co272 O275 1.970 . S
Co272 N289 1.989 . S
Co272 O297 1.967 . S
Co272 O304 1.920 . S
Co273 O276 1.966 . S
Co273 N282 2.022 . S
Co273 N290 1.993 . S
Co273 O298 1.941 . S
C274 O275 1.258 . S
C274 O276 1.263 . S
O275 Co272 1.970 . S
O275 C274 1.258 . S
O276 Co273 1.966 . S
O276 C274 1.263 . S
C277 O278 1.235 . S
C277 O304 1.289 . S
O278 C277 1.235 . S
C279 C281 1.400 . S
C279 N282 1.351 . S
C279 C284 1.501 . S
C280 C281 1.387 . S
C280 N283 1.341 . S
C281 C279 1.400 . S
C281 C280 1.387 . S
N282 Co273 2.022 . S
N282 C279 1.351 . S
N282 N283 1.365 . S
N283 C280 1.341 . S
N283 N282 1.365 . S
N283 H303 0.862 . S
C284 C279 1.501 . S
C284 H285 0.961 . S
C284 H286 0.961 . S
C284 H287 0.960 . S
H285 C284 0.961 . S
H286 C284 0.961 . S
H287 C284 0.960 . S
C288 N289 1.342 . S
C288 C292 1.401 . S
C288 C293 1.499 . S
N289 Co272 1.989 . S
N289 C288 1.342 . S
N289 N290 1.388 . S
N290 Co273 1.993 . S
N290 N289 1.388 . S
N290 C291 1.346 . S
C291 N290 1.346 . S
C291 C292 1.396 . S
C291 C301 1.510 . S
C292 C288 1.401 . S
C292 C291 1.396 . S
C293 C288 1.499 . S
C293 H294 0.959 . S
C293 H295 0.960 . S
C293 H296 0.961 . S
H294 C293 0.959 . S
H295 C293 0.960 . S
H296 C293 0.961 . S
O297 Co272 1.967 . S
O297 C305 1.258 . S
O298 Co273 1.941 . S
O298 C305 1.266 . S
H299 C301 0.959 . S
H300 C301 0.961 . S
C301 C291 1.510 . S
C301 H299 0.959 . S
C301 H300 0.961 . S
C301 H302 0.960 . S
H302 C301 0.960 . S
H303 N283 0.862 . S
O304 Co272 1.920 . S
O304 C277 1.289 . S
C305 O297 1.258 . S
C305 O298 1.266 . S
Co306 O309 1.970 . S
Co306 N323 1.989 . S
Co306 O331 1.967 . S
Co306 O338 1.920 . S
Co307 O310 1.966 . S
Co307 N316 2.022 . S
Co307 N324 1.993 . S
Co307 O332 1.941 . S
C308 O309 1.258 . S
C308 O310 1.263 . S
O309 Co306 1.970 . S
O309 C308 1.258 . S
O310 Co307 1.966 . S
O310 C308 1.263 . S
C311 O312 1.235 . S
C311 O338 1.289 . S
O312 C311 1.235 . S
C313 C315 1.400 . S
C313 N316 1.351 . S
C313 C318 1.501 . S
C314 C315 1.387 . S
C314 N317 1.341 . S
C315 C313 1.400 . S
C315 C314 1.387 . S
N316 Co307 2.022 . S
N316 C313 1.351 . S
N316 N317 1.365 . S
N317 C314 1.341 . S
N317 N316 1.365 . S
N317 H337 0.862 . S
C318 C313 1.501 . S
C318 H319 0.961 . S
C318 H320 0.961 . S
C318 H321 0.960 . S
H319 C318 0.961 . S
H320 C318 0.961 . S
H321 C318 0.960 . S
C322 N323 1.342 . S
C322 C326 1.401 . S
C322 C327 1.499 . S
N323 Co306 1.989 . S
N323 C322 1.342 . S
N323 N324 1.388 . S
N324 Co307 1.993 . S
N324 N323 1.388 . S
N324 C325 1.346 . S
C325 N324 1.346 . S
C325 C326 1.396 . S
C325 C335 1.510 . S
C326 C322 1.401 . S
C326 C325 1.396 . S
C327 C322 1.499 . S
C327 H328 0.959 . S
C327 H329 0.960 . S
C327 H330 0.961 . S
H328 C327 0.959 . S
H329 C327 0.960 . S
H330 C327 0.961 . S
O331 Co306 1.967 . S
O331 C339 1.258 . S
O332 Co307 1.941 . S
O332 C339 1.266 . S
H333 C335 0.959 . S
H334 C335 0.961 . S
C335 C325 1.510 . S
C335 H333 0.959 . S
C335 H334 0.961 . S
C335 H336 0.960 . S
H336 C335 0.960 . S
H337 N317 0.862 . S
O338 Co306 1.920 . S
O338 C311 1.289 . S
C339 O331 1.258 . S
C339 O332 1.266 . S
Co340 O343 1.970 . S
Co340 N357 1.989 . S
Co340 O365 1.967 . S
Co340 O372 1.920 . S
Co341 O344 1.966 . S
Co341 N350 2.022 . S
Co341 N358 1.993 . S
Co341 O366 1.941 . S
C342 O343 1.258 . S
C342 O344 1.263 . S
O343 Co340 1.970 . S
O343 C342 1.258 . S
O344 Co341 1.966 . S
O344 C342 1.263 . S
C345 O346 1.235 . S
C345 O372 1.289 . S
O346 C345 1.235 . S
C347 C349 1.400 . S
C347 N350 1.351 . S
C347 C352 1.501 . S
C348 C349 1.387 . S
C348 N351 1.341 . S
C349 C347 1.400 . S
C349 C348 1.387 . S
N350 Co341 2.022 . S
N350 C347 1.351 . S
N350 N351 1.365 . S
N351 C348 1.341 . S
N351 N350 1.365 . S
N351 H371 0.862 . S
C352 C347 1.501 . S
C352 H353 0.961 . S
C352 H354 0.961 . S
C352 H355 0.960 . S
H353 C352 0.961 . S
H354 C352 0.961 . S
H355 C352 0.960 . S
C356 N357 1.342 . S
C356 C360 1.401 . S
C356 C361 1.499 . S
N357 Co340 1.989 . S
N357 C356 1.342 . S
N357 N358 1.388 . S
N358 Co341 1.993 . S
N358 N357 1.388 . S
N358 C359 1.346 . S
C359 N358 1.346 . S
C359 C360 1.396 . S
C359 C369 1.510 . S
C360 C356 1.401 . S
C360 C359 1.396 . S
C361 C356 1.499 . S
C361 H362 0.959 . S
C361 H363 0.960 . S
C361 H364 0.961 . S
H362 C361 0.959 . S
H363 C361 0.960 . S
H364 C361 0.961 . S
O365 Co340 1.967 . S
O365 C373 1.258 . S
O366 Co341 1.941 . S
O366 C373 1.266 . S
H367 C369 0.959 . S
H368 C369 0.961 . S
C369 C359 1.510 . S
C369 H367 0.959 . S
C369 H368 0.961 . S
C369 H370 0.960 . S
H370 C369 0.960 . S
H371 N351 0.862 . S
O372 Co340 1.920 . S
O372 C345 1.289 . S
C373 O365 1.258 . S
C373 O366 1.266 . S
Co374 O377 1.970 . S
Co374 N391 1.989 . S
Co374 O399 1.967 . S
Co374 O406 1.920 . S
Co375 O378 1.966 . S
Co375 N384 2.022 . S
Co375 N392 1.993 . S
Co375 O400 1.941 . S
C376 O377 1.258 . S
C376 O378 1.263 . S
O377 Co374 1.970 . S
O377 C376 1.258 . S
O378 Co375 1.966 . S
O378 C376 1.263 . S
C379 O380 1.235 . S
C379 O406 1.289 . S
O380 C379 1.235 . S
C381 C383 1.400 . S
C381 N384 1.351 . S
C381 C386 1.501 . S
C382 C383 1.387 . S
C382 N385 1.341 . S
C383 C381 1.400 . S
C383 C382 1.387 . S
N384 Co375 2.022 . S
N384 C381 1.351 . S
N384 N385 1.365 . S
N385 C382 1.341 . S
N385 N384 1.365 . S
N385 H405 0.862 . S
C386 C381 1.501 . S
C386 H387 0.961 . S
C386 H388 0.961 . S
C386 H389 0.960 . S
H387 C386 0.961 . S
H388 C386 0.961 . S
H389 C386 0.960 . S
C390 N391 1.342 . S
C390 C394 1.401 . S
C390 C395 1.499 . S
N391 Co374 1.989 . S
N391 C390 1.342 . S
N391 N392 1.388 . S
N392 Co375 1.993 . S
N392 N391 1.388 . S
N392 C393 1.346 . S
C393 N392 1.346 . S
C393 C394 1.396 . S
C393 C403 1.510 . S
C394 C390 1.401 . S
C394 C393 1.396 . S
C395 C390 1.499 . S
C395 H396 0.959 . S
C395 H397 0.960 . S
C395 H398 0.961 . S
H396 C395 0.959 . S
H397 C395 0.960 . S
H398 C395 0.961 . S
O399 Co374 1.967 . S
O399 C407 1.258 . S
O400 Co375 1.941 . S
O400 C407 1.266 . S
H401 C403 0.959 . S
H402 C403 0.961 . S
C403 C393 1.510 . S
C403 H401 0.959 . S
C403 H402 0.961 . S
C403 H404 0.960 . S
H404 C403 0.960 . S
H405 N385 0.862 . S
O406 Co374 1.920 . S
O406 C379 1.289 . S
C407 O399 1.258 . S
C407 O400 1.266 . S
Co408 O411 1.970 . S
Co408 N425 1.989 . S
Co408 O433 1.967 . S
Co408 O440 1.920 . S
Co409 O412 1.966 . S
Co409 N418 2.022 . S
Co409 N426 1.993 . S
Co409 O434 1.941 . S
C410 O411 1.258 . S
C410 O412 1.263 . S
O411 Co408 1.970 . S
O411 C410 1.258 . S
O412 Co409 1.966 . S
O412 C410 1.263 . S
C413 O414 1.235 . S
C413 O440 1.289 . S
O414 C413 1.235 . S
C415 C417 1.400 . S
C415 N418 1.351 . S
C415 C420 1.501 . S
C416 C417 1.387 . S
C416 N419 1.341 . S
C417 C415 1.400 . S
C417 C416 1.387 . S
N418 Co409 2.022 . S
N418 C415 1.351 . S
N418 N419 1.365 . S
N419 C416 1.341 . S
N419 N418 1.365 . S
N419 H439 0.862 . S
C420 C415 1.501 . S
C420 H421 0.961 . S
C420 H422 0.961 . S
C420 H423 0.960 . S
H421 C420 0.961 . S
H422 C420 0.961 . S
H423 C420 0.960 . S
C424 N425 1.342 . S
C424 C428 1.401 . S
C424 C429 1.499 . S
N425 Co408 1.989 . S
N425 C424 1.342 . S
N425 N426 1.388 . S
N426 Co409 1.993 . S
N426 N425 1.388 . S
N426 C427 1.346 . S
C427 N426 1.346 . S
C427 C428 1.396 . S
C427 C437 1.510 . S
C428 C424 1.401 . S
C428 C427 1.396 . S
C429 C424 1.499 . S
C429 H430 0.959 . S
C429 H431 0.960 . S
C429 H432 0.961 . S
H430 C429 0.959 . S
H431 C429 0.960 . S
H432 C429 0.961 . S
O433 Co408 1.967 . S
O433 C441 1.258 . S
O434 Co409 1.941 . S
O434 C441 1.266 . S
H435 C437 0.959 . S
H436 C437 0.961 . S
C437 C427 1.510 . S
C437 H435 0.959 . S
C437 H436 0.961 . S
C437 H438 0.960 . S
H438 C437 0.960 . S
H439 N419 0.862 . S
O440 Co408 1.920 . S
O440 C413 1.289 . S
C441 O433 1.258 . S
C441 O434 1.266 . S
Co442 O445 1.970 . S
Co442 N459 1.989 . S
Co442 O467 1.967 . S
Co442 O474 1.920 . S
Co443 O446 1.966 . S
Co443 N452 2.022 . S
Co443 N460 1.993 . S
Co443 O468 1.941 . S
C444 O445 1.258 . S
C444 O446 1.263 . S
O445 Co442 1.970 . S
O445 C444 1.258 . S
O446 Co443 1.966 . S
O446 C444 1.263 . S
C447 O448 1.235 . S
C447 O474 1.289 . S
O448 C447 1.235 . S
C449 C451 1.400 . S
C449 N452 1.351 . S
C449 C454 1.501 . S
C450 C451 1.387 . S
C450 N453 1.341 . S
C451 C449 1.400 . S
C451 C450 1.387 . S
N452 Co443 2.022 . S
N452 C449 1.351 . S
N452 N453 1.365 . S
N453 C450 1.341 . S
N453 N452 1.365 . S
N453 H473 0.862 . S
C454 C449 1.501 . S
C454 H455 0.961 . S
C454 H456 0.961 . S
C454 H457 0.960 . S
H455 C454 0.961 . S
H456 C454 0.961 . S
H457 C454 0.960 . S
C458 N459 1.342 . S
C458 C462 1.401 . S
C458 C463 1.499 . S
N459 Co442 1.989 . S
N459 C458 1.342 . S
N459 N460 1.388 . S
N460 Co443 1.993 . S
N460 N459 1.388 . S
N460 C461 1.346 . S
C461 N460 1.346 . S
C461 C462 1.396 . S
C461 C471 1.510 . S
C462 C458 1.401 . S
C462 C461 1.396 . S
C463 C458 1.499 . S
C463 H464 0.959 . S
C463 H465 0.960 . S
C463 H466 0.961 . S
H464 C463 0.959 . S
H465 C463 0.960 . S
H466 C463 0.961 . S
O467 Co442 1.967 . S
O467 C475 1.258 . S
O468 Co443 1.941 . S
O468 C475 1.266 . S
H469 C471 0.959 . S
H470 C471 0.961 . S
C471 C461 1.510 . S
C471 H469 0.959 . S
C471 H470 0.961 . S
C471 H472 0.960 . S
H472 C471 0.960 . S
H473 N453 0.862 . S
O474 Co442 1.920 . S
O474 C447 1.289 . S
C475 O467 1.258 . S
C475 O468 1.266 . S
Co476 O479 1.970 . S
Co476 N493 1.989 . S
Co476 O501 1.967 . S
Co476 O508 1.920 . S
Co477 O480 1.966 . S
Co477 N486 2.022 . S
Co477 N494 1.993 . S
Co477 O502 1.941 . S
C478 O479 1.258 . S
C478 O480 1.263 . S
O479 Co476 1.970 . S
O479 C478 1.258 . S
O480 Co477 1.966 . S
O480 C478 1.263 . S
C481 O482 1.235 . S
C481 O508 1.289 . S
O482 C481 1.235 . S
C483 C485 1.400 . S
C483 N486 1.351 . S
C483 C488 1.501 . S
C484 C485 1.387 . S
C484 N487 1.341 . S
C485 C483 1.400 . S
C485 C484 1.387 . S
N486 Co477 2.022 . S
N486 C483 1.351 . S
N486 N487 1.365 . S
N487 C484 1.341 . S
N487 N486 1.365 . S
N487 H507 0.862 . S
C488 C483 1.501 . S
C488 H489 0.961 . S
C488 H490 0.961 . S
C488 H491 0.960 . S
H489 C488 0.961 . S
H490 C488 0.961 . S
H491 C488 0.960 . S
C492 N493 1.342 . S
C492 C496 1.401 . S
C492 C497 1.499 . S
N493 Co476 1.989 . S
N493 C492 1.342 . S
N493 N494 1.388 . S
N494 Co477 1.993 . S
N494 N493 1.388 . S
N494 C495 1.346 . S
C495 N494 1.346 . S
C495 C496 1.396 . S
C495 C505 1.510 . S
C496 C492 1.401 . S
C496 C495 1.396 . S
C497 C492 1.499 . S
C497 H498 0.959 . S
C497 H499 0.960 . S
C497 H500 0.961 . S
H498 C497 0.959 . S
H499 C497 0.960 . S
H500 C497 0.961 . S
O501 Co476 1.967 . S
O501 C509 1.258 . S
O502 Co477 1.941 . S
O502 C509 1.266 . S
H503 C505 0.959 . S
H504 C505 0.961 . S
C505 C495 1.510 . S
C505 H503 0.959 . S
C505 H504 0.961 . S
C505 H506 0.960 . S
H506 C505 0.960 . S
H507 N487 0.862 . S
O508 Co476 1.920 . S
O508 C481 1.289 . S
C509 O501 1.258 . S
C509 O502 1.266 . S
Co510 O513 1.970 . S
Co510 N527 1.989 . S
Co510 O535 1.967 . S
Co510 O542 1.920 . S
Co511 O514 1.966 . S
Co511 N520 2.022 . S
Co511 N528 1.993 . S
Co511 O536 1.941 . S
C512 O513 1.258 . S
C512 O514 1.263 . S
O513 Co510 1.970 . S
O513 C512 1.258 . S
O514 Co511 1.966 . S
O514 C512 1.263 . S
C515 O516 1.235 . S
C515 O542 1.289 . S
O516 C515 1.235 . S
C517 C519 1.400 . S
C517 N520 1.351 . S
C517 C522 1.501 . S
C518 C519 1.387 . S
C518 N521 1.341 . S
C519 C517 1.400 . S
C519 C518 1.387 . S
N520 Co511 2.022 . S
N520 C517 1.351 . S
N520 N521 1.365 . S
N521 C518 1.341 . S
N521 N520 1.365 . S
N521 H541 0.862 . S
C522 C517 1.501 . S
C522 H523 0.961 . S
C522 H524 0.961 . S
C522 H525 0.960 . S
H523 C522 0.961 . S
H524 C522 0.961 . S
H525 C522 0.960 . S
C526 N527 1.342 . S
C526 C530 1.401 . S
C526 C531 1.499 . S
N527 Co510 1.989 . S
N527 C526 1.342 . S
N527 N528 1.388 . S
N528 Co511 1.993 . S
N528 N527 1.388 . S
N528 C529 1.346 . S
C529 N528 1.346 . S
C529 C530 1.396 . S
C529 C539 1.510 . S
C530 C526 1.401 . S
C530 C529 1.396 . S
C531 C526 1.499 . S
C531 H532 0.959 . S
C531 H533 0.960 . S
C531 H534 0.961 . S
H532 C531 0.959 . S
H533 C531 0.960 . S
H534 C531 0.961 . S
O535 Co510 1.967 . S
O535 C543 1.258 . S
O536 Co511 1.941 . S
O536 C543 1.266 . S
H537 C539 0.959 . S
H538 C539 0.961 . S
C539 C529 1.510 . S
C539 H537 0.959 . S
C539 H538 0.961 . S
C539 H540 0.960 . S
H540 C539 0.960 . S
H541 N521 0.862 . S
O542 Co510 1.920 . S
O542 C515 1.289 . S
C543 O535 1.258 . S
C543 O536 1.266 . S
Co544 O547 1.970 . S
Co544 N561 1.989 . S
Co544 O569 1.967 . S
Co544 O576 1.920 . S
Co545 O548 1.966 . S
Co545 N554 2.022 . S
Co545 N562 1.993 . S
Co545 O570 1.941 . S
C546 O547 1.258 . S
C546 O548 1.263 . S
O547 Co544 1.970 . S
O547 C546 1.258 . S
O548 Co545 1.966 . S
O548 C546 1.263 . S
C549 O550 1.235 . S
C549 O576 1.289 . S
O550 C549 1.235 . S
C551 C553 1.400 . S
C551 N554 1.351 . S
C551 C556 1.501 . S
C552 C553 1.387 . S
C552 N555 1.341 . S
C553 C551 1.400 . S
C553 C552 1.387 . S
N554 Co545 2.022 . S
N554 C551 1.351 . S
N554 N555 1.365 . S
N555 C552 1.341 . S
N555 N554 1.365 . S
N555 H575 0.862 . S
C556 C551 1.501 . S
C556 H557 0.961 . S
C556 H558 0.961 . S
C556 H559 0.960 . S
H557 C556 0.961 . S
H558 C556 0.961 . S
H559 C556 0.960 . S
C560 N561 1.342 . S
C560 C564 1.401 . S
C560 C565 1.499 . S
N561 Co544 1.989 . S
N561 C560 1.342 . S
N561 N562 1.388 . S
N562 Co545 1.993 . S
N562 N561 1.388 . S
N562 C563 1.346 . S
C563 N562 1.346 . S
C563 C564 1.396 . S
C563 C573 1.510 . S
C564 C560 1.401 . S
C564 C563 1.396 . S
C565 C560 1.499 . S
C565 H566 0.959 . S
C565 H567 0.960 . S
C565 H568 0.961 . S
H566 C565 0.959 . S
H567 C565 0.960 . S
H568 C565 0.961 . S
O569 Co544 1.967 . S
O569 C577 1.258 . S
O570 Co545 1.941 . S
O570 C577 1.266 . S
H571 C573 0.959 . S
H572 C573 0.961 . S
C573 C563 1.510 . S
C573 H571 0.959 . S
C573 H572 0.961 . S
C573 H574 0.960 . S
H574 C573 0.960 . S
H575 N555 0.862 . S
O576 Co544 1.920 . S
O576 C549 1.289 . S
C577 O569 1.258 . S
C577 O570 1.266 . S
Co578 O581 1.970 . S
Co578 N595 1.989 . S
Co578 O603 1.967 . S
Co578 O610 1.920 . S
Co579 O582 1.966 . S
Co579 N588 2.022 . S
Co579 N596 1.993 . S
Co579 O604 1.941 . S
C580 O581 1.258 . S
C580 O582 1.263 . S
O581 Co578 1.970 . S
O581 C580 1.258 . S
O582 Co579 1.966 . S
O582 C580 1.263 . S
C583 O584 1.235 . S
C583 O610 1.289 . S
O584 C583 1.235 . S
C585 C587 1.400 . S
C585 N588 1.351 . S
C585 C590 1.501 . S
C586 C587 1.387 . S
C586 N589 1.341 . S
C587 C585 1.400 . S
C587 C586 1.387 . S
N588 Co579 2.022 . S
N588 C585 1.351 . S
N588 N589 1.365 . S
N589 C586 1.341 . S
N589 N588 1.365 . S
N589 H609 0.862 . S
C590 C585 1.501 . S
C590 H591 0.961 . S
C590 H592 0.961 . S
C590 H593 0.960 . S
H591 C590 0.961 . S
H592 C590 0.961 . S
H593 C590 0.960 . S
C594 N595 1.342 . S
C594 C598 1.401 . S
C594 C599 1.499 . S
N595 Co578 1.989 . S
N595 C594 1.342 . S
N595 N596 1.388 . S
N596 Co579 1.993 . S
N596 N595 1.388 . S
N596 C597 1.346 . S
C597 N596 1.346 . S
C597 C598 1.396 . S
C597 C607 1.510 . S
C598 C594 1.401 . S
C598 C597 1.396 . S
C599 C594 1.499 . S
C599 H600 0.959 . S
C599 H601 0.960 . S
C599 H602 0.961 . S
H600 C599 0.959 . S
H601 C599 0.960 . S
H602 C599 0.961 . S
O603 Co578 1.967 . S
O603 C611 1.258 . S
O604 Co579 1.941 . S
O604 C611 1.266 . S
H605 C607 0.959 . S
H606 C607 0.961 . S
C607 C597 1.510 . S
C607 H605 0.959 . S
C607 H606 0.961 . S
C607 H608 0.960 . S
H608 C607 0.960 . S
H609 N589 0.862 . S
O610 Co578 1.920 . S
O610 C583 1.289 . S
C611 O603 1.258 . S
C611 O604 1.266 . S
Co612 O615 1.970 . S
Co612 N629 1.989 . S
Co612 O637 1.967 . S
Co612 O644 1.920 . S
Co613 O616 1.966 . S
Co613 N622 2.022 . S
Co613 N630 1.993 . S
Co613 O638 1.941 . S
C614 O615 1.258 . S
C614 O616 1.263 . S
O615 Co612 1.970 . S
O615 C614 1.258 . S
O616 Co613 1.966 . S
O616 C614 1.263 . S
C617 O618 1.235 . S
C617 O644 1.289 . S
O618 C617 1.235 . S
C619 C621 1.400 . S
C619 N622 1.351 . S
C619 C624 1.501 . S
C620 C621 1.387 . S
C620 N623 1.341 . S
C621 C619 1.400 . S
C621 C620 1.387 . S
N622 Co613 2.022 . S
N622 C619 1.351 . S
N622 N623 1.365 . S
N623 C620 1.341 . S
N623 N622 1.365 . S
N623 H643 0.862 . S
C624 C619 1.501 . S
C624 H625 0.961 . S
C624 H626 0.961 . S
C624 H627 0.960 . S
H625 C624 0.961 . S
H626 C624 0.961 . S
H627 C624 0.960 . S
C628 N629 1.342 . S
C628 C632 1.401 . S
C628 C633 1.499 . S
N629 Co612 1.989 . S
N629 C628 1.342 . S
N629 N630 1.388 . S
N630 Co613 1.993 . S
N630 N629 1.388 . S
N630 C631 1.346 . S
C631 N630 1.346 . S
C631 C632 1.396 . S
C631 C641 1.510 . S
C632 C628 1.401 . S
C632 C631 1.396 . S
C633 C628 1.499 . S
C633 H634 0.959 . S
C633 H635 0.960 . S
C633 H636 0.961 . S
H634 C633 0.959 . S
H635 C633 0.960 . S
H636 C633 0.961 . S
O637 Co612 1.967 . S
O637 C645 1.258 . S
O638 Co613 1.941 . S
O638 C645 1.266 . S
H639 C641 0.959 . S
H640 C641 0.961 . S
C641 C631 1.510 . S
C641 H639 0.959 . S
C641 H640 0.961 . S
C641 H642 0.960 . S
H642 C641 0.960 . S
H643 N623 0.862 . S
O644 Co612 1.920 . S
O644 C617 1.289 . S
C645 O637 1.258 . S
C645 O638 1.266 . S
Co646 O649 1.970 . S
Co646 N663 1.989 . S
Co646 O671 1.967 . S
Co646 O678 1.920 . S
Co647 O650 1.966 . S
Co647 N656 2.022 . S
Co647 N664 1.993 . S
Co647 O672 1.941 . S
C648 O649 1.258 . S
C648 O650 1.263 . S
O649 Co646 1.970 . S
O649 C648 1.258 . S
O650 Co647 1.966 . S
O650 C648 1.263 . S
C651 O652 1.235 . S
C651 O678 1.289 . S
O652 C651 1.235 . S
C653 C655 1.400 . S
C653 N656 1.351 . S
C653 C658 1.501 . S
C654 C655 1.387 . S
C654 N657 1.341 . S
C655 C653 1.400 . S
C655 C654 1.387 . S
N656 Co647 2.022 . S
N656 C653 1.351 . S
N656 N657 1.365 . S
N657 C654 1.341 . S
N657 N656 1.365 . S
N657 H677 0.862 . S
C658 C653 1.501 . S
C658 H659 0.961 . S
C658 H660 0.961 . S
C658 H661 0.960 . S
H659 C658 0.961 . S
H660 C658 0.961 . S
H661 C658 0.960 . S
C662 N663 1.342 . S
C662 C666 1.401 . S
C662 C667 1.499 . S
N663 Co646 1.989 . S
N663 C662 1.342 . S
N663 N664 1.388 . S
N664 Co647 1.993 . S
N664 N663 1.388 . S
N664 C665 1.346 . S
C665 N664 1.346 . S
C665 C666 1.396 . S
C665 C675 1.510 . S
C666 C662 1.401 . S
C666 C665 1.396 . S
C667 C662 1.499 . S
C667 H668 0.959 . S
C667 H669 0.960 . S
C667 H670 0.961 . S
H668 C667 0.959 . S
H669 C667 0.960 . S
H670 C667 0.961 . S
O671 Co646 1.967 . S
O671 C679 1.258 . S
O672 Co647 1.941 . S
O672 C679 1.266 . S
H673 C675 0.959 . S
H674 C675 0.961 . S
C675 C665 1.510 . S
C675 H673 0.959 . S
C675 H674 0.961 . S
C675 H676 0.960 . S
H676 C675 0.960 . S
H677 N657 0.862 . S
O678 Co646 1.920 . S
O678 C651 1.289 . S
C679 O671 1.258 . S
C679 O672 1.266 . S
Co680 O683 1.970 . S
Co680 N697 1.989 . S
Co680 O705 1.967 . S
Co680 O712 1.920 . S
Co681 O684 1.966 . S
Co681 N690 2.022 . S
Co681 N698 1.993 . S
Co681 O706 1.941 . S
C682 O683 1.258 . S
C682 O684 1.263 . S
O683 Co680 1.970 . S
O683 C682 1.258 . S
O684 Co681 1.966 . S
O684 C682 1.263 . S
C685 O686 1.235 . S
C685 O712 1.289 . S
O686 C685 1.235 . S
C687 C689 1.400 . S
C687 N690 1.351 . S
C687 C692 1.501 . S
C688 C689 1.387 . S
C688 N691 1.341 . S
C689 C687 1.400 . S
C689 C688 1.387 . S
N690 Co681 2.022 . S
N690 C687 1.351 . S
N690 N691 1.365 . S
N691 C688 1.341 . S
N691 N690 1.365 . S
N691 H711 0.862 . S
C692 C687 1.501 . S
C692 H693 0.961 . S
C692 H694 0.961 . S
C692 H695 0.960 . S
H693 C692 0.961 . S
H694 C692 0.961 . S
H695 C692 0.960 . S
C696 N697 1.342 . S
C696 C700 1.401 . S
C696 C701 1.499 . S
N697 Co680 1.989 . S
N697 C696 1.342 . S
N697 N698 1.388 . S
N698 Co681 1.993 . S
N698 N697 1.388 . S
N698 C699 1.346 . S
C699 N698 1.346 . S
C699 C700 1.396 . S
C699 C709 1.510 . S
C700 C696 1.401 . S
C700 C699 1.396 . S
C701 C696 1.499 . S
C701 H702 0.959 . S
C701 H703 0.960 . S
C701 H704 0.961 . S
H702 C701 0.959 . S
H703 C701 0.960 . S
H704 C701 0.961 . S
O705 Co680 1.967 . S
O705 C713 1.258 . S
O706 Co681 1.941 . S
O706 C713 1.266 . S
H707 C709 0.959 . S
H708 C709 0.961 . S
C709 C699 1.510 . S
C709 H707 0.959 . S
C709 H708 0.961 . S
C709 H710 0.960 . S
H710 C709 0.960 . S
H711 N691 0.862 . S
O712 Co680 1.920 . S
O712 C685 1.289 . S
C713 O705 1.258 . S
C713 O706 1.266 . S
Co714 O717 1.970 . S
Co714 N731 1.989 . S
Co714 O739 1.967 . S
Co714 O746 1.920 . S
Co715 O718 1.966 . S
Co715 N724 2.022 . S
Co715 N732 1.993 . S
Co715 O740 1.941 . S
C716 O717 1.258 . S
C716 O718 1.263 . S
O717 Co714 1.970 . S
O717 C716 1.258 . S
O718 Co715 1.966 . S
O718 C716 1.263 . S
C719 O720 1.235 . S
C719 O746 1.289 . S
O720 C719 1.235 . S
C721 C723 1.400 . S
C721 N724 1.351 . S
C721 C726 1.501 . S
C722 C723 1.387 . S
C722 N725 1.341 . S
C723 C721 1.400 . S
C723 C722 1.387 . S
N724 Co715 2.022 . S
N724 C721 1.351 . S
N724 N725 1.365 . S
N725 C722 1.341 . S
N725 N724 1.365 . S
N725 H745 0.862 . S
C726 C721 1.501 . S
C726 H727 0.961 . S
C726 H728 0.961 . S
C726 H729 0.960 . S
H727 C726 0.961 . S
H728 C726 0.961 . S
H729 C726 0.960 . S
C730 N731 1.342 . S
C730 C734 1.401 . S
C730 C735 1.499 . S
N731 Co714 1.989 . S
N731 C730 1.342 . S
N731 N732 1.388 . S
N732 Co715 1.993 . S
N732 N731 1.388 . S
N732 C733 1.346 . S
C733 N732 1.346 . S
C733 C734 1.396 . S
C733 C743 1.510 . S
C734 C730 1.401 . S
C734 C733 1.396 . S
C735 C730 1.499 . S
C735 H736 0.959 . S
C735 H737 0.960 . S
C735 H738 0.961 . S
H736 C735 0.959 . S
H737 C735 0.960 . S
H738 C735 0.961 . S
O739 Co714 1.967 . S
O739 C747 1.258 . S
O740 Co715 1.941 . S
O740 C747 1.266 . S
H741 C743 0.959 . S
H742 C743 0.961 . S
C743 C733 1.510 . S
C743 H741 0.959 . S
C743 H742 0.961 . S
C743 H744 0.960 . S
H744 C743 0.960 . S
H745 N725 0.862 . S
O746 Co714 1.920 . S
O746 C719 1.289 . S
C747 O739 1.258 . S
C747 O740 1.266 . S
Co748 O751 1.970 . S
Co748 N765 1.989 . S
Co748 O773 1.967 . S
Co748 O780 1.920 . S
Co749 O752 1.966 . S
Co749 N758 2.022 . S
Co749 N766 1.993 . S
Co749 O774 1.941 . S
C750 O751 1.258 . S
C750 O752 1.263 . S
O751 Co748 1.970 . S
O751 C750 1.258 . S
O752 Co749 1.966 . S
O752 C750 1.263 . S
C753 O754 1.235 . S
C753 O780 1.289 . S
O754 C753 1.235 . S
C755 C757 1.400 . S
C755 N758 1.351 . S
C755 C760 1.501 . S
C756 C757 1.387 . S
C756 N759 1.341 . S
C757 C755 1.400 . S
C757 C756 1.387 . S
N758 Co749 2.022 . S
N758 C755 1.351 . S
N758 N759 1.365 . S
N759 C756 1.341 . S
N759 N758 1.365 . S
N759 H779 0.862 . S
C760 C755 1.501 . S
C760 H761 0.961 . S
C760 H762 0.961 . S
C760 H763 0.960 . S
H761 C760 0.961 . S
H762 C760 0.961 . S
H763 C760 0.960 . S
C764 N765 1.342 . S
C764 C768 1.401 . S
C764 C769 1.499 . S
N765 Co748 1.989 . S
N765 C764 1.342 . S
N765 N766 1.388 . S
N766 Co749 1.993 . S
N766 N765 1.388 . S
N766 C767 1.346 . S
C767 N766 1.346 . S
C767 C768 1.396 . S
C767 C777 1.510 . S
C768 C764 1.401 . S
C768 C767 1.396 . S
C769 C764 1.499 . S
C769 H770 0.959 . S
C769 H771 0.960 . S
C769 H772 0.961 . S
H770 C769 0.959 . S
H771 C769 0.960 . S
H772 C769 0.961 . S
O773 Co748 1.967 . S
O773 C781 1.258 . S
O774 Co749 1.941 . S
O774 C781 1.266 . S
H775 C777 0.959 . S
H776 C777 0.961 . S
C777 C767 1.510 . S
C777 H775 0.959 . S
C777 H776 0.961 . S
C777 H778 0.960 . S
H778 C777 0.960 . S
H779 N759 0.862 . S
O780 Co748 1.920 . S
O780 C753 1.289 . S
C781 O773 1.258 . S
C781 O774 1.266 . S
Co782 O785 1.970 . S
Co782 N799 1.989 . S
Co782 O807 1.967 . S
Co782 O814 1.920 . S
Co783 O786 1.966 . S
Co783 N792 2.022 . S
Co783 N800 1.993 . S
Co783 O808 1.941 . S
C784 O785 1.258 . S
C784 O786 1.263 . S
O785 Co782 1.970 . S
O785 C784 1.258 . S
O786 Co783 1.966 . S
O786 C784 1.263 . S
C787 O788 1.235 . S
C787 O814 1.289 . S
O788 C787 1.235 . S
C789 C791 1.400 . S
C789 N792 1.351 . S
C789 C794 1.501 . S
C790 C791 1.387 . S
C790 N793 1.341 . S
C791 C789 1.400 . S
C791 C790 1.387 . S
N792 Co783 2.022 . S
N792 C789 1.351 . S
N792 N793 1.365 . S
N793 C790 1.341 . S
N793 N792 1.365 . S
N793 H813 0.862 . S
C794 C789 1.501 . S
C794 H795 0.961 . S
C794 H796 0.961 . S
C794 H797 0.960 . S
H795 C794 0.961 . S
H796 C794 0.961 . S
H797 C794 0.960 . S
C798 N799 1.342 . S
C798 C802 1.401 . S
C798 C803 1.499 . S
N799 Co782 1.989 . S
N799 C798 1.342 . S
N799 N800 1.388 . S
N800 Co783 1.993 . S
N800 N799 1.388 . S
N800 C801 1.346 . S
C801 N800 1.346 . S
C801 C802 1.396 . S
C801 C811 1.510 . S
C802 C798 1.401 . S
C802 C801 1.396 . S
C803 C798 1.499 . S
C803 H804 0.959 . S
C803 H805 0.960 . S
C803 H806 0.961 . S
H804 C803 0.959 . S
H805 C803 0.960 . S
H806 C803 0.961 . S
O807 Co782 1.967 . S
O807 C815 1.258 . S
O808 Co783 1.941 . S
O808 C815 1.266 . S
H809 C811 0.959 . S
H810 C811 0.961 . S
C811 C801 1.510 . S
C811 H809 0.959 . S
C811 H810 0.961 . S
C811 H812 0.960 . S
H812 C811 0.960 . S
H813 N793 0.862 . S
O814 Co782 1.920 . S
O814 C787 1.289 . S
C815 O807 1.258 . S
C815 O808 1.266 . S
H816 C834 0.951 . S
H817 C836 0.951 . S
H818 C838 0.950 . S
H819 C839 0.950 . S
H820 C841 0.950 . S
H821 C844 0.950 . S
H822 C845 0.950 . S
H823 C847 0.950 . S
H824 C848 0.950 . S
H825 C849 0.951 . S
H826 C851 0.951 . S
H827 C853 0.950 . S
H828 C854 0.950 . S
H829 C856 0.950 . S
H830 C859 0.950 . S
H831 C860 0.950 . S
H832 C862 0.950 . S
H833 C863 0.950 . S
C834 H816 0.951 . S
C834 C835 1.366 . S
C834 C836 1.388 . S
C835 C834 1.366 . S
C835 C839 1.385 . S
C836 H817 0.951 . S
C836 C834 1.388 . S
C836 C837 1.366 . S
C837 C836 1.366 . S
C837 C838 1.414 . S
C837 C840 1.499 . S
C838 H818 0.950 . S
C838 C837 1.414 . S
C838 C839 1.374 . S
C839 H819 0.950 . S
C839 C835 1.385 . S
C839 C838 1.374 . S
C840 C837 1.499 . S
C840 C841 1.373 . S
C840 C842 1.389 . S
C841 H820 0.950 . S
C841 C840 1.373 . S
C841 C857 1.377 . S
C842 C840 1.389 . S
C842 C843 1.524 . S
C842 C856 1.377 . S
C843 C842 1.524 . S
C843 C844 1.397 . S
C843 C848 1.363 . S
C844 H821 0.950 . S
C844 C843 1.397 . S
C844 C845 1.334 . S
C845 H822 0.950 . S
C845 C844 1.334 . S
C845 C846 1.287 . S
C846 C845 1.287 . S
C846 C847 1.524 . S
C846 H865 0.913 . S
C847 H823 0.950 . S
C847 C846 1.524 . S
C847 C848 1.415 . S
C848 H824 0.950 . S
C848 C843 1.363 . S
C848 C847 1.415 . S
C849 H825 0.951 . S
C849 C850 1.366 . S
C849 C851 1.388 . S
C850 C849 1.366 . S
C850 C854 1.385 . S
C851 H826 0.951 . S
C851 C849 1.388 . S
C851 C852 1.366 . S
C852 C851 1.366 . S
C852 C853 1.414 . S
C852 C855 1.499 . S
C853 H827 0.950 . S
C853 C852 1.414 . S
C853 C854 1.374 . S
C854 H828 0.950 . S
C854 C850 1.385 . S
C854 C853 1.374 . S
C855 C852 1.499 . S
C855 C856 1.373 . S
C855 C857 1.389 . S
C856 H829 0.950 . S
C856 C842 1.377 . S
C856 C855 1.373 . S
C857 C841 1.377 . S
C857 C855 1.389 . S
C857 C858 1.524 . S
C858 C857 1.524 . S
C858 C859 1.397 . S
C858 C863 1.363 . S
C859 H830 0.950 . S
C859 C858 1.397 . S
C859 C860 1.334 . S
C860 H831 0.950 . S
C860 C859 1.334 . S
C860 C861 1.287 . S
C861 C860 1.287 . S
C861 C862 1.524 . S
C861 H864 0.999 . S
C862 H832 0.950 . S
C862 C861 1.524 . S
C862 C863 1.415 . S
C863 H833 0.950 . S
C863 C858 1.363 . S
C863 C862 1.415 . S
H864 C861 0.999 . S
H865 C846 0.913 . S
H866 C884 0.951 . S
H867 C886 0.951 . S
H868 C888 0.950 . S
H869 C889 0.950 . S
H870 C891 0.950 . S
H871 C894 0.950 . S
H872 C895 0.950 . S
H873 C897 0.950 . S
H874 C898 0.950 . S
H875 C899 0.951 . S
H876 C901 0.951 . S
H877 C903 0.950 . S
H878 C904 0.950 . S
H879 C906 0.950 . S
H880 C909 0.950 . S
H881 C910 0.950 . S
H882 C912 0.950 . S
H883 C913 0.950 . S
C884 H866 0.951 . S
C884 C885 1.366 . S
C884 C886 1.388 . S
C885 C884 1.366 . S
C885 C889 1.385 . S
C886 H867 0.951 . S
C886 C884 1.388 . S
C886 C887 1.366 . S
C887 C886 1.366 . S
C887 C888 1.414 . S
C887 C890 1.499 . S
C888 H868 0.950 . S
C888 C887 1.414 . S
C888 C889 1.374 . S
C889 H869 0.950 . S
C889 C885 1.385 . S
C889 C888 1.374 . S
C890 C887 1.499 . S
C890 C891 1.373 . S
C890 C892 1.389 . S
C891 H870 0.950 . S
C891 C890 1.373 . S
C891 C907 1.377 . S
C892 C890 1.389 . S
C892 C893 1.524 . S
C892 C906 1.377 . S
C893 C892 1.524 . S
C893 C894 1.397 . S
C893 C898 1.363 . S
C894 H871 0.950 . S
C894 C893 1.397 . S
C894 C895 1.334 . S
C895 H872 0.950 . S
C895 C894 1.334 . S
C895 C896 1.287 . S
C896 C895 1.287 . S
C896 C897 1.524 . S
C896 H915 0.913 . S
C897 H873 0.950 . S
C897 C896 1.524 . S
C897 C898 1.415 . S
C898 H874 0.950 . S
C898 C893 1.363 . S
C898 C897 1.415 . S
C899 H875 0.951 . S
C899 C900 1.366 . S
C899 C901 1.388 . S
C900 C899 1.366 . S
C900 C904 1.385 . S
C901 H876 0.951 . S
C901 C899 1.388 . S
C901 C902 1.366 . S
C902 C901 1.366 . S
C902 C903 1.414 . S
C902 C905 1.499 . S
C903 H877 0.950 . S
C903 C902 1.414 . S
C903 C904 1.374 . S
C904 H878 0.950 . S
C904 C900 1.385 . S
C904 C903 1.374 . S
C905 C902 1.499 . S
C905 C906 1.373 . S
C905 C907 1.389 . S
C906 H879 0.950 . S
C906 C892 1.377 . S
C906 C905 1.373 . S
C907 C891 1.377 . S
C907 C905 1.389 . S
C907 C908 1.524 . S
C908 C907 1.524 . S
C908 C909 1.397 . S
C908 C913 1.363 . S
C909 H880 0.950 . S
C909 C908 1.397 . S
C909 C910 1.334 . S
C910 H881 0.950 . S
C910 C909 1.334 . S
C910 C911 1.287 . S
C911 C910 1.287 . S
C911 C912 1.524 . S
C911 H914 0.999 . S
C912 H882 0.950 . S
C912 C911 1.524 . S
C912 C913 1.415 . S
C913 H883 0.950 . S
C913 C908 1.363 . S
C913 C912 1.415 . S
H914 C911 0.999 . S
H915 C896 0.913 . S
H916 C934 0.951 . S
H917 C936 0.951 . S
H918 C938 0.950 . S
H919 C939 0.950 . S
H920 C941 0.950 . S
H921 C944 0.950 . S
H922 C945 0.950 . S
H923 C947 0.950 . S
H924 C948 0.950 . S
H925 C949 0.951 . S
H926 C951 0.951 . S
H927 C953 0.950 . S
H928 C954 0.950 . S
H929 C956 0.950 . S
H930 C959 0.950 . S
H931 C960 0.950 . S
H932 C962 0.950 . S
H933 C963 0.950 . S
C934 H916 0.951 . S
C934 C935 1.366 . S
C934 C936 1.388 . S
C935 C934 1.366 . S
C935 C939 1.385 . S
C936 H917 0.951 . S
C936 C934 1.388 . S
C936 C937 1.366 . S
C937 C936 1.366 . S
C937 C938 1.414 . S
C937 C940 1.499 . S
C938 H918 0.950 . S
C938 C937 1.414 . S
C938 C939 1.374 . S
C939 H919 0.950 . S
C939 C935 1.385 . S
C939 C938 1.374 . S
C940 C937 1.499 . S
C940 C941 1.373 . S
C940 C942 1.389 . S
C941 H920 0.950 . S
C941 C940 1.373 . S
C941 C957 1.377 . S
C942 C940 1.389 . S
C942 C943 1.524 . S
C942 C956 1.377 . S
C943 C942 1.524 . S
C943 C944 1.397 . S
C943 C948 1.363 . S
C944 H921 0.950 . S
C944 C943 1.397 . S
C944 C945 1.334 . S
C945 H922 0.950 . S
C945 C944 1.334 . S
C945 C946 1.287 . S
C946 C945 1.287 . S
C946 C947 1.524 . S
C946 H965 0.913 . S
C947 H923 0.950 . S
C947 C946 1.524 . S
C947 C948 1.415 . S
C948 H924 0.950 . S
C948 C943 1.363 . S
C948 C947 1.415 . S
C949 H925 0.951 . S
C949 C950 1.366 . S
C949 C951 1.388 . S
C950 C949 1.366 . S
C950 C954 1.385 . S
C951 H926 0.951 . S
C951 C949 1.388 . S
C951 C952 1.366 . S
C952 C951 1.366 . S
C952 C953 1.414 . S
C952 C955 1.499 . S
C953 H927 0.950 . S
C953 C952 1.414 . S
C953 C954 1.374 . S
C954 H928 0.950 . S
C954 C950 1.385 . S
C954 C953 1.374 . S
C955 C952 1.499 . S
C955 C956 1.373 . S
C955 C957 1.389 . S
C956 H929 0.950 . S
C956 C942 1.377 . S
C956 C955 1.373 . S
C957 C941 1.377 . S
C957 C955 1.389 . S
C957 C958 1.524 . S
C958 C957 1.524 . S
C958 C959 1.397 . S
C958 C963 1.363 . S
C959 H930 0.950 . S
C959 C958 1.397 . S
C959 C960 1.334 . S
C960 H931 0.950 . S
C960 C959 1.334 . S
C960 C961 1.287 . S
C961 C960 1.287 . S
C961 C962 1.524 . S
C961 H964 0.999 . S
C962 H932 0.950 . S
C962 C961 1.524 . S
C962 C963 1.415 . S
C963 H933 0.950 . S
C963 C958 1.363 . S
C963 C962 1.415 . S
H964 C961 0.999 . S
H965 C946 0.913 . S
H966 C984 0.951 . S
H967 C986 0.951 . S
H968 C988 0.950 . S
H969 C989 0.950 . S
H970 C991 0.950 . S
H971 C994 0.950 . S
H972 C995 0.950 . S
H973 C997 0.950 . S
H974 C998 0.950 . S
H975 C999 0.951 . S
H976 C1001 0.951 . S
H977 C1003 0.950 . S
H978 C1004 0.950 . S
H979 C1006 0.950 . S
H980 C1009 0.950 . S
H981 C1010 0.950 . S
H982 C1012 0.950 . S
H983 C1013 0.950 . S
C984 H966 0.951 . S
C984 C985 1.366 . S
C984 C986 1.388 . S
C985 C984 1.366 . S
C985 C989 1.385 . S
C986 H967 0.951 . S
C986 C984 1.388 . S
C986 C987 1.366 . S
C987 C986 1.366 . S
C987 C988 1.414 . S
C987 C990 1.499 . S
C988 H968 0.950 . S
C988 C987 1.414 . S
C988 C989 1.374 . S
C989 H969 0.950 . S
C989 C985 1.385 . S
C989 C988 1.374 . S
C990 C987 1.499 . S
C990 C991 1.373 . S
C990 C992 1.389 . S
C991 H970 0.950 . S
C991 C990 1.373 . S
C991 C1007 1.377 . S
C992 C990 1.389 . S
C992 C993 1.524 . S
C992 C1006 1.377 . S
C993 C992 1.524 . S
C993 C994 1.397 . S
C993 C998 1.363 . S
C994 H971 0.950 . S
C994 C993 1.397 . S
C994 C995 1.334 . S
C995 H972 0.950 . S
C995 C994 1.334 . S
C995 C996 1.287 . S
C996 C995 1.287 . S
C996 C997 1.524 . S
C996 H1015 0.913 . S
C997 H973 0.950 . S
C997 C996 1.524 . S
C997 C998 1.415 . S
C998 H974 0.950 . S
C998 C993 1.363 . S
C998 C997 1.415 . S
C999 H975 0.951 . S
C999 C1000 1.366 . S
C999 C1001 1.388 . S
C1000 C999 1.366 . S
C1000 C1004 1.385 . S
C1001 H976 0.951 . S
C1001 C999 1.388 . S
C1001 C1002 1.366 . S
C1002 C1001 1.366 . S
C1002 C1003 1.414 . S
C1002 C1005 1.499 . S
C1003 H977 0.950 . S
C1003 C1002 1.414 . S
C1003 C1004 1.374 . S
C1004 H978 0.950 . S
C1004 C1000 1.385 . S
C1004 C1003 1.374 . S
C1005 C1002 1.499 . S
C1005 C1006 1.373 . S
C1005 C1007 1.389 . S
C1006 H979 0.950 . S
C1006 C992 1.377 . S
C1006 C1005 1.373 . S
C1007 C991 1.377 . S
C1007 C1005 1.389 . S
C1007 C1008 1.524 . S
C1008 C1007 1.524 . S
C1008 C1009 1.397 . S
C1008 C1013 1.363 . S
C1009 H980 0.950 . S
C1009 C1008 1.397 . S
C1009 C1010 1.334 . S
C1010 H981 0.950 . S
C1010 C1009 1.334 . S
C1010 C1011 1.287 . S
C1011 C1010 1.287 . S
C1011 C1012 1.524 . S
C1011 H1014 0.999 . S
C1012 H982 0.950 . S
C1012 C1011 1.524 . S
C1012 C1013 1.415 . S
C1013 H983 0.950 . S
C1013 C1008 1.363 . S
C1013 C1012 1.415 . S
H1014 C1011 0.999 . S
H1015 C996 0.913 . S
H1016 C1034 0.951 . S
H1017 C1036 0.951 . S
H1018 C1038 0.950 . S
H1019 C1039 0.950 . S
H1020 C1041 0.950 . S
H1021 C1044 0.950 . S
H1022 C1045 0.950 . S
H1023 C1047 0.950 . S
H1024 C1048 0.950 . S
H1025 C1049 0.951 . S
H1026 C1051 0.951 . S
H1027 C1053 0.950 . S
H1028 C1054 0.950 . S
H1029 C1056 0.950 . S
H1030 C1059 0.950 . S
H1031 C1060 0.950 . S
H1032 C1062 0.950 . S
H1033 C1063 0.950 . S
C1034 H1016 0.951 . S
C1034 C1035 1.366 . S
C1034 C1036 1.388 . S
C1035 C1034 1.366 . S
C1035 C1039 1.385 . S
C1036 H1017 0.951 . S
C1036 C1034 1.388 . S
C1036 C1037 1.366 . S
C1037 C1036 1.366 . S
C1037 C1038 1.414 . S
C1037 C1040 1.499 . S
C1038 H1018 0.950 . S
C1038 C1037 1.414 . S
C1038 C1039 1.374 . S
C1039 H1019 0.950 . S
C1039 C1035 1.385 . S
C1039 C1038 1.374 . S
C1040 C1037 1.499 . S
C1040 C1041 1.373 . S
C1040 C1042 1.389 . S
C1041 H1020 0.950 . S
C1041 C1040 1.373 . S
C1041 C1057 1.377 . S
C1042 C1040 1.389 . S
C1042 C1043 1.524 . S
C1042 C1056 1.377 . S
C1043 C1042 1.524 . S
C1043 C1044 1.397 . S
C1043 C1048 1.363 . S
C1044 H1021 0.950 . S
C1044 C1043 1.397 . S
C1044 C1045 1.334 . S
C1045 H1022 0.950 . S
C1045 C1044 1.334 . S
C1045 C1046 1.287 . S
C1046 C1045 1.287 . S
C1046 C1047 1.524 . S
C1046 H1065 0.913 . S
C1047 H1023 0.950 . S
C1047 C1046 1.524 . S
C1047 C1048 1.415 . S
C1048 H1024 0.950 . S
C1048 C1043 1.363 . S
C1048 C1047 1.415 . S
C1049 H1025 0.951 . S
C1049 C1050 1.366 . S
C1049 C1051 1.388 . S
C1050 C1049 1.366 . S
C1050 C1054 1.385 . S
C1051 H1026 0.951 . S
C1051 C1049 1.388 . S
C1051 C1052 1.366 . S
C1052 C1051 1.366 . S
C1052 C1053 1.414 . S
C1052 C1055 1.499 . S
C1053 H1027 0.950 . S
C1053 C1052 1.414 . S
C1053 C1054 1.374 . S
C1054 H1028 0.950 . S
C1054 C1050 1.385 . S
C1054 C1053 1.374 . S
C1055 C1052 1.499 . S
C1055 C1056 1.373 . S
C1055 C1057 1.389 . S
C1056 H1029 0.950 . S
C1056 C1042 1.377 . S
C1056 C1055 1.373 . S
C1057 C1041 1.377 . S
C1057 C1055 1.389 . S
C1057 C1058 1.524 . S
C1058 C1057 1.524 . S
C1058 C1059 1.397 . S
C1058 C1063 1.363 . S
C1059 H1030 0.950 . S
C1059 C1058 1.397 . S
C1059 C1060 1.334 . S
C1060 H1031 0.950 . S
C1060 C1059 1.334 . S
C1060 C1061 1.287 . S
C1061 C1060 1.287 . S
C1061 C1062 1.524 . S
C1061 H1064 0.999 . S
C1062 H1032 0.950 . S
C1062 C1061 1.524 . S
C1062 C1063 1.415 . S
C1063 H1033 0.950 . S
C1063 C1058 1.363 . S
C1063 C1062 1.415 . S
H1064 C1061 0.999 . S
H1065 C1046 0.913 . S
H1066 C1084 0.951 . S
H1067 C1086 0.951 . S
H1068 C1088 0.950 . S
H1069 C1089 0.950 . S
H1070 C1091 0.950 . S
H1071 C1094 0.950 . S
H1072 C1095 0.950 . S
H1073 C1097 0.950 . S
H1074 C1098 0.950 . S
H1075 C1099 0.951 . S
H1076 C1101 0.951 . S
H1077 C1103 0.950 . S
H1078 C1104 0.950 . S
H1079 C1106 0.950 . S
H1080 C1109 0.950 . S
H1081 C1110 0.950 . S
H1082 C1112 0.950 . S
H1083 C1113 0.950 . S
C1084 H1066 0.951 . S
C1084 C1085 1.366 . S
C1084 C1086 1.388 . S
C1085 C1084 1.366 . S
C1085 C1089 1.385 . S
C1086 H1067 0.951 . S
C1086 C1084 1.388 . S
C1086 C1087 1.366 . S
C1087 C1086 1.366 . S
C1087 C1088 1.414 . S
C1087 C1090 1.499 . S
C1088 H1068 0.950 . S
C1088 C1087 1.414 . S
C1088 C1089 1.374 . S
C1089 H1069 0.950 . S
C1089 C1085 1.385 . S
C1089 C1088 1.374 . S
C1090 C1087 1.499 . S
C1090 C1091 1.373 . S
C1090 C1092 1.389 . S
C1091 H1070 0.950 . S
C1091 C1090 1.373 . S
C1091 C1107 1.377 . S
C1092 C1090 1.389 . S
C1092 C1093 1.524 . S
C1092 C1106 1.377 . S
C1093 C1092 1.524 . S
C1093 C1094 1.397 . S
C1093 C1098 1.363 . S
C1094 H1071 0.950 . S
C1094 C1093 1.397 . S
C1094 C1095 1.334 . S
C1095 H1072 0.950 . S
C1095 C1094 1.334 . S
C1095 C1096 1.287 . S
C1096 C1095 1.287 . S
C1096 C1097 1.524 . S
C1096 H1115 0.913 . S
C1097 H1073 0.950 . S
C1097 C1096 1.524 . S
C1097 C1098 1.415 . S
C1098 H1074 0.950 . S
C1098 C1093 1.363 . S
C1098 C1097 1.415 . S
C1099 H1075 0.951 . S
C1099 C1100 1.366 . S
C1099 C1101 1.388 . S
C1100 C1099 1.366 . S
C1100 C1104 1.385 . S
C1101 H1076 0.951 . S
C1101 C1099 1.388 . S
C1101 C1102 1.366 . S
C1102 C1101 1.366 . S
C1102 C1103 1.414 . S
C1102 C1105 1.499 . S
C1103 H1077 0.950 . S
C1103 C1102 1.414 . S
C1103 C1104 1.374 . S
C1104 H1078 0.950 . S
C1104 C1100 1.385 . S
C1104 C1103 1.374 . S
C1105 C1102 1.499 . S
C1105 C1106 1.373 . S
C1105 C1107 1.389 . S
C1106 H1079 0.950 . S
C1106 C1092 1.377 . S
C1106 C1105 1.373 . S
C1107 C1091 1.377 . S
C1107 C1105 1.389 . S
C1107 C1108 1.524 . S
C1108 C1107 1.524 . S
C1108 C1109 1.397 . S
C1108 C1113 1.363 . S
C1109 H1080 0.950 . S
C1109 C1108 1.397 . S
C1109 C1110 1.334 . S
C1110 H1081 0.950 . S
C1110 C1109 1.334 . S
C1110 C1111 1.287 . S
C1111 C1110 1.287 . S
C1111 C1112 1.524 . S
C1111 H1114 0.999 . S
C1112 H1082 0.950 . S
C1112 C1111 1.524 . S
C1112 C1113 1.415 . S
C1113 H1083 0.950 . S
C1113 C1108 1.363 . S
C1113 C1112 1.415 . S
H1114 C1111 0.999 . S
H1115 C1096 0.913 . S
H1116 C1134 0.951 . S
H1117 C1136 0.951 . S
H1118 C1138 0.950 . S
H1119 C1139 0.950 . S
H1120 C1141 0.950 . S
H1121 C1144 0.950 . S
H1122 C1145 0.950 . S
H1123 C1147 0.950 . S
H1124 C1148 0.950 . S
H1125 C1149 0.951 . S
H1126 C1151 0.951 . S
H1127 C1153 0.950 . S
H1128 C1154 0.950 . S
H1129 C1156 0.950 . S
H1130 C1159 0.950 . S
H1131 C1160 0.950 . S
H1132 C1162 0.950 . S
H1133 C1163 0.950 . S
C1134 H1116 0.951 . S
C1134 C1135 1.366 . S
C1134 C1136 1.388 . S
C1135 C1134 1.366 . S
C1135 C1139 1.385 . S
C1136 H1117 0.951 . S
C1136 C1134 1.388 . S
C1136 C1137 1.366 . S
C1137 C1136 1.366 . S
C1137 C1138 1.414 . S
C1137 C1140 1.499 . S
C1138 H1118 0.950 . S
C1138 C1137 1.414 . S
C1138 C1139 1.374 . S
C1139 H1119 0.950 . S
C1139 C1135 1.385 . S
C1139 C1138 1.374 . S
C1140 C1137 1.499 . S
C1140 C1141 1.373 . S
C1140 C1142 1.389 . S
C1141 H1120 0.950 . S
C1141 C1140 1.373 . S
C1141 C1157 1.377 . S
C1142 C1140 1.389 . S
C1142 C1143 1.524 . S
C1142 C1156 1.377 . S
C1143 C1142 1.524 . S
C1143 C1144 1.397 . S
C1143 C1148 1.363 . S
C1144 H1121 0.950 . S
C1144 C1143 1.397 . S
C1144 C1145 1.334 . S
C1145 H1122 0.950 . S
C1145 C1144 1.334 . S
C1145 C1146 1.287 . S
C1146 C1145 1.287 . S
C1146 C1147 1.524 . S
C1146 H1165 0.913 . S
C1147 H1123 0.950 . S
C1147 C1146 1.524 . S
C1147 C1148 1.415 . S
C1148 H1124 0.950 . S
C1148 C1143 1.363 . S
C1148 C1147 1.415 . S
C1149 H1125 0.951 . S
C1149 C1150 1.366 . S
C1149 C1151 1.388 . S
C1150 C1149 1.366 . S
C1150 C1154 1.385 . S
C1151 H1126 0.951 . S
C1151 C1149 1.388 . S
C1151 C1152 1.366 . S
C1152 C1151 1.366 . S
C1152 C1153 1.414 . S
C1152 C1155 1.499 . S
C1153 H1127 0.950 . S
C1153 C1152 1.414 . S
C1153 C1154 1.374 . S
C1154 H1128 0.950 . S
C1154 C1150 1.385 . S
C1154 C1153 1.374 . S
C1155 C1152 1.499 . S
C1155 C1156 1.373 . S
C1155 C1157 1.389 . S
C1156 H1129 0.950 . S
C1156 C1142 1.377 . S
C1156 C1155 1.373 . S
C1157 C1141 1.377 . S
C1157 C1155 1.389 . S
C1157 C1158 1.524 . S
C1158 C1157 1.524 . S
C1158 C1159 1.397 . S
C1158 C1163 1.363 . S
C1159 H1130 0.950 . S
C1159 C1158 1.397 . S
C1159 C1160 1.334 . S
C1160 H1131 0.950 . S
C1160 C1159 1.334 . S
C1160 C1161 1.287 . S
C1161 C1160 1.287 . S
C1161 C1162 1.524 . S
C1161 H1164 0.999 . S
C1162 H1132 0.950 . S
C1162 C1161 1.524 . S
C1162 C1163 1.415 . S
C1163 H1133 0.950 . S
C1163 C1158 1.363 . S
C1163 C1162 1.415 . S
H1164 C1161 0.999 . S
H1165 C1146 0.913 . S
H1166 C1184 0.951 . S
H1167 C1186 0.951 . S
H1168 C1188 0.950 . S
H1169 C1189 0.950 . S
H1170 C1191 0.950 . S
H1171 C1194 0.950 . S
H1172 C1195 0.950 . S
H1173 C1197 0.950 . S
H1174 C1198 0.950 . S
H1175 C1199 0.951 . S
H1176 C1201 0.951 . S
H1177 C1203 0.950 . S
H1178 C1204 0.950 . S
H1179 C1206 0.950 . S
H1180 C1209 0.950 . S
H1181 C1210 0.950 . S
H1182 C1212 0.950 . S
H1183 C1213 0.950 . S
C1184 H1166 0.951 . S
C1184 C1185 1.366 . S
C1184 C1186 1.388 . S
C1185 C1184 1.366 . S
C1185 C1189 1.385 . S
C1186 H1167 0.951 . S
C1186 C1184 1.388 . S
C1186 C1187 1.366 . S
C1187 C1186 1.366 . S
C1187 C1188 1.414 . S
C1187 C1190 1.499 . S
C1188 H1168 0.950 . S
C1188 C1187 1.414 . S
C1188 C1189 1.374 . S
C1189 H1169 0.950 . S
C1189 C1185 1.385 . S
C1189 C1188 1.374 . S
C1190 C1187 1.499 . S
C1190 C1191 1.373 . S
C1190 C1192 1.389 . S
C1191 H1170 0.950 . S
C1191 C1190 1.373 . S
C1191 C1207 1.377 . S
C1192 C1190 1.389 . S
C1192 C1193 1.524 . S
C1192 C1206 1.377 . S
C1193 C1192 1.524 . S
C1193 C1194 1.397 . S
C1193 C1198 1.363 . S
C1194 H1171 0.950 . S
C1194 C1193 1.397 . S
C1194 C1195 1.334 . S
C1195 H1172 0.950 . S
C1195 C1194 1.334 . S
C1195 C1196 1.287 . S
C1196 C1195 1.287 . S
C1196 C1197 1.524 . S
C1196 H1215 0.913 . S
C1197 H1173 0.950 . S
C1197 C1196 1.524 . S
C1197 C1198 1.415 . S
C1198 H1174 0.950 . S
C1198 C1193 1.363 . S
C1198 C1197 1.415 . S
C1199 H1175 0.951 . S
C1199 C1200 1.366 . S
C1199 C1201 1.388 . S
C1200 C1199 1.366 . S
C1200 C1204 1.385 . S
C1201 H1176 0.951 . S
C1201 C1199 1.388 . S
C1201 C1202 1.366 . S
C1202 C1201 1.366 . S
C1202 C1203 1.414 . S
C1202 C1205 1.499 . S
C1203 H1177 0.950 . S
C1203 C1202 1.414 . S
C1203 C1204 1.374 . S
C1204 H1178 0.950 . S
C1204 C1200 1.385 . S
C1204 C1203 1.374 . S
C1205 C1202 1.499 . S
C1205 C1206 1.373 . S
C1205 C1207 1.389 . S
C1206 H1179 0.950 . S
C1206 C1192 1.377 . S
C1206 C1205 1.373 . S
C1207 C1191 1.377 . S
C1207 C1205 1.389 . S
C1207 C1208 1.524 . S
C1208 C1207 1.524 . S
C1208 C1209 1.397 . S
C1208 C1213 1.363 . S
C1209 H1180 0.950 . S
C1209 C1208 1.397 . S
C1209 C1210 1.334 . S
C1210 H1181 0.950 . S
C1210 C1209 1.334 . S
C1210 C1211 1.287 . S
C1211 C1210 1.287 . S
C1211 C1212 1.524 . S
C1211 H1214 0.999 . S
C1212 H1182 0.950 . S
C1212 C1211 1.524 . S
C1212 C1213 1.415 . S
C1213 H1183 0.950 . S
C1213 C1208 1.363 . S
C1213 C1212 1.415 . S
H1214 C1211 0.999 . S
H1215 C1196 0.913 . S
H1216 C1234 0.951 . S
H1217 C1236 0.951 . S
H1218 C1238 0.950 . S
H1219 C1239 0.950 . S
H1220 C1241 0.950 . S
H1221 C1244 0.950 . S
H1222 C1245 0.950 . S
H1223 C1247 0.950 . S
H1224 C1248 0.950 . S
H1225 C1249 0.951 . S
H1226 C1251 0.951 . S
H1227 C1253 0.950 . S
H1228 C1254 0.950 . S
H1229 C1256 0.950 . S
H1230 C1259 0.950 . S
H1231 C1260 0.950 . S
H1232 C1262 0.950 . S
H1233 C1263 0.950 . S
C1234 H1216 0.951 . S
C1234 C1235 1.366 . S
C1234 C1236 1.388 . S
C1235 C1234 1.366 . S
C1235 C1239 1.385 . S
C1236 H1217 0.951 . S
C1236 C1234 1.388 . S
C1236 C1237 1.366 . S
C1237 C1236 1.366 . S
C1237 C1238 1.414 . S
C1237 C1240 1.499 . S
C1238 H1218 0.950 . S
C1238 C1237 1.414 . S
C1238 C1239 1.374 . S
C1239 H1219 0.950 . S
C1239 C1235 1.385 . S
C1239 C1238 1.374 . S
C1240 C1237 1.499 . S
C1240 C1241 1.373 . S
C1240 C1242 1.389 . S
C1241 H1220 0.950 . S
C1241 C1240 1.373 . S
C1241 C1257 1.377 . S
C1242 C1240 1.389 . S
C1242 C1243 1.524 . S
C1242 C1256 1.377 . S
C1243 C1242 1.524 . S
C1243 C1244 1.397 . S
C1243 C1248 1.363 . S
C1244 H1221 0.950 . S
C1244 C1243 1.397 . S
C1244 C1245 1.334 . S
C1245 H1222 0.950 . S
C1245 C1244 1.334 . S
C1245 C1246 1.287 . S
C1246 C1245 1.287 . S
C1246 C1247 1.524 . S
C1246 H1265 0.913 . S
C1247 H1223 0.950 . S
C1247 C1246 1.524 . S
C1247 C1248 1.415 . S
C1248 H1224 0.950 . S
C1248 C1243 1.363 . S
C1248 C1247 1.415 . S
C1249 H1225 0.951 . S
C1249 C1250 1.366 . S
C1249 C1251 1.388 . S
C1250 C1249 1.366 . S
C1250 C1254 1.385 . S
C1251 H1226 0.951 . S
C1251 C1249 1.388 . S
C1251 C1252 1.366 . S
C1252 C1251 1.366 . S
C1252 C1253 1.414 . S
C1252 C1255 1.499 . S
C1253 H1227 0.950 . S
C1253 C1252 1.414 . S
C1253 C1254 1.374 . S
C1254 H1228 0.950 . S
C1254 C1250 1.385 . S
C1254 C1253 1.374 . S
C1255 C1252 1.499 . S
C1255 C1256 1.373 . S
C1255 C1257 1.389 . S
C1256 H1229 0.950 . S
C1256 C1242 1.377 . S
C1256 C1255 1.373 . S
C1257 C1241 1.377 . S
C1257 C1255 1.389 . S
C1257 C1258 1.524 . S
C1258 C1257 1.524 . S
C1258 C1259 1.397 . S
C1258 C1263 1.363 . S
C1259 H1230 0.950 . S
C1259 C1258 1.397 . S
C1259 C1260 1.334 . S
C1260 H1231 0.950 . S
C1260 C1259 1.334 . S
C1260 C1261 1.287 . S
C1261 C1260 1.287 . S
C1261 C1262 1.524 . S
C1261 H1264 0.999 . S
C1262 H1232 0.950 . S
C1262 C1261 1.524 . S
C1262 C1263 1.415 . S
C1263 H1233 0.950 . S
C1263 C1258 1.363 . S
C1263 C1262 1.415 . S
H1264 C1261 0.999 . S
H1265 C1246 0.913 . S
H1266 C1284 0.951 . S
H1267 C1286 0.951 . S
H1268 C1288 0.950 . S
H1269 C1289 0.950 . S
H1270 C1291 0.950 . S
H1271 C1294 0.950 . S
H1272 C1295 0.950 . S
H1273 C1297 0.950 . S
H1274 C1298 0.950 . S
H1275 C1299 0.951 . S
H1276 C1301 0.951 . S
H1277 C1303 0.950 . S
H1278 C1304 0.950 . S
H1279 C1306 0.950 . S
H1280 C1309 0.950 . S
H1281 C1310 0.950 . S
H1282 C1312 0.950 . S
H1283 C1313 0.950 . S
C1284 H1266 0.951 . S
C1284 C1285 1.366 . S
C1284 C1286 1.388 . S
C1285 C1284 1.366 . S
C1285 C1289 1.385 . S
C1286 H1267 0.951 . S
C1286 C1284 1.388 . S
C1286 C1287 1.366 . S
C1287 C1286 1.366 . S
C1287 C1288 1.414 . S
C1287 C1290 1.499 . S
C1288 H1268 0.950 . S
C1288 C1287 1.414 . S
C1288 C1289 1.374 . S
C1289 H1269 0.950 . S
C1289 C1285 1.385 . S
C1289 C1288 1.374 . S
C1290 C1287 1.499 . S
C1290 C1291 1.373 . S
C1290 C1292 1.389 . S
C1291 H1270 0.950 . S
C1291 C1290 1.373 . S
C1291 C1307 1.377 . S
C1292 C1290 1.389 . S
C1292 C1293 1.524 . S
C1292 C1306 1.377 . S
C1293 C1292 1.524 . S
C1293 C1294 1.397 . S
C1293 C1298 1.363 . S
C1294 H1271 0.950 . S
C1294 C1293 1.397 . S
C1294 C1295 1.334 . S
C1295 H1272 0.950 . S
C1295 C1294 1.334 . S
C1295 C1296 1.287 . S
C1296 C1295 1.287 . S
C1296 C1297 1.524 . S
C1296 H1315 0.913 . S
C1297 H1273 0.950 . S
C1297 C1296 1.524 . S
C1297 C1298 1.415 . S
C1298 H1274 0.950 . S
C1298 C1293 1.363 . S
C1298 C1297 1.415 . S
C1299 H1275 0.951 . S
C1299 C1300 1.366 . S
C1299 C1301 1.388 . S
C1300 C1299 1.366 . S
C1300 C1304 1.385 . S
C1301 H1276 0.951 . S
C1301 C1299 1.388 . S
C1301 C1302 1.366 . S
C1302 C1301 1.366 . S
C1302 C1303 1.414 . S
C1302 C1305 1.499 . S
C1303 H1277 0.950 . S
C1303 C1302 1.414 . S
C1303 C1304 1.374 . S
C1304 H1278 0.950 . S
C1304 C1300 1.385 . S
C1304 C1303 1.374 . S
C1305 C1302 1.499 . S
C1305 C1306 1.373 . S
C1305 C1307 1.389 . S
C1306 H1279 0.950 . S
C1306 C1292 1.377 . S
C1306 C1305 1.373 . S
C1307 C1291 1.377 . S
C1307 C1305 1.389 . S
C1307 C1308 1.524 . S
C1308 C1307 1.524 . S
C1308 C1309 1.397 . S
C1308 C1313 1.363 . S
C1309 H1280 0.950 . S
C1309 C1308 1.397 . S
C1309 C1310 1.334 . S
C1310 H1281 0.950 . S
C1310 C1309 1.334 . S
C1310 C1311 1.287 . S
C1311 C1310 1.287 . S
C1311 C1312 1.524 . S
C1311 H1314 0.999 . S
C1312 H1282 0.950 . S
C1312 C1311 1.524 . S
C1312 C1313 1.415 . S
C1313 H1283 0.950 . S
C1313 C1308 1.363 . S
C1313 C1312 1.415 . S
H1314 C1311 0.999 . S
H1315 C1296 0.913 . S
H1316 C1334 0.951 . S
H1317 C1336 0.951 . S
H1318 C1338 0.950 . S
H1319 C1339 0.950 . S
H1320 C1341 0.950 . S
H1321 C1344 0.950 . S
H1322 C1345 0.950 . S
H1323 C1347 0.950 . S
H1324 C1348 0.950 . S
H1325 C1349 0.951 . S
H1326 C1351 0.951 . S
H1327 C1353 0.950 . S
H1328 C1354 0.950 . S
H1329 C1356 0.950 . S
H1330 C1359 0.950 . S
H1331 C1360 0.950 . S
H1332 C1362 0.950 . S
H1333 C1363 0.950 . S
C1334 H1316 0.951 . S
C1334 C1335 1.366 . S
C1334 C1336 1.388 . S
C1335 C1334 1.366 . S
C1335 C1339 1.385 . S
C1336 H1317 0.951 . S
C1336 C1334 1.388 . S
C1336 C1337 1.366 . S
C1337 C1336 1.366 . S
C1337 C1338 1.414 . S
C1337 C1340 1.499 . S
C1338 H1318 0.950 . S
C1338 C1337 1.414 . S
C1338 C1339 1.374 . S
C1339 H1319 0.950 . S
C1339 C1335 1.385 . S
C1339 C1338 1.374 . S
C1340 C1337 1.499 . S
C1340 C1341 1.373 . S
C1340 C1342 1.389 . S
C1341 H1320 0.950 . S
C1341 C1340 1.373 . S
C1341 C1357 1.377 . S
C1342 C1340 1.389 . S
C1342 C1343 1.524 . S
C1342 C1356 1.377 . S
C1343 C1342 1.524 . S
C1343 C1344 1.397 . S
C1343 C1348 1.363 . S
C1344 H1321 0.950 . S
C1344 C1343 1.397 . S
C1344 C1345 1.334 . S
C1345 H1322 0.950 . S
C1345 C1344 1.334 . S
C1345 C1346 1.287 . S
C1346 C1345 1.287 . S
C1346 C1347 1.524 . S
C1346 H1365 0.913 . S
C1347 H1323 0.950 . S
C1347 C1346 1.524 . S
C1347 C1348 1.415 . S
C1348 H1324 0.950 . S
C1348 C1343 1.363 . S
C1348 C1347 1.415 . S
C1349 H1325 0.951 . S
C1349 C1350 1.366 . S
C1349 C1351 1.388 . S
C1350 C1349 1.366 . S
C1350 C1354 1.385 . S
C1351 H1326 0.951 . S
C1351 C1349 1.388 . S
C1351 C1352 1.366 . S
C1352 C1351 1.366 . S
C1352 C1353 1.414 . S
C1352 C1355 1.499 . S
C1353 H1327 0.950 . S
C1353 C1352 1.414 . S
C1353 C1354 1.374 . S
C1354 H1328 0.950 . S
C1354 C1350 1.385 . S
C1354 C1353 1.374 . S
C1355 C1352 1.499 . S
C1355 C1356 1.373 . S
C1355 C1357 1.389 . S
C1356 H1329 0.950 . S
C1356 C1342 1.377 . S
C1356 C1355 1.373 . S
C1357 C1341 1.377 . S
C1357 C1355 1.389 . S
C1357 C1358 1.524 . S
C1358 C1357 1.524 . S
C1358 C1359 1.397 . S
C1358 C1363 1.363 . S
C1359 H1330 0.950 . S
C1359 C1358 1.397 . S
C1359 C1360 1.334 . S
C1360 H1331 0.950 . S
C1360 C1359 1.334 . S
C1360 C1361 1.287 . S
C1361 C1360 1.287 . S
C1361 C1362 1.524 . S
C1361 H1364 0.999 . S
C1362 H1332 0.950 . S
C1362 C1361 1.524 . S
C1362 C1363 1.415 . S
C1363 H1333 0.950 . S
C1363 C1358 1.363 . S
C1363 C1362 1.415 . S
H1364 C1361 0.999 . S
H1365 C1346 0.913 . S
H1366 C1384 0.951 . S
H1367 C1386 0.951 . S
H1368 C1388 0.950 . S
H1369 C1389 0.950 . S
H1370 C1391 0.950 . S
H1371 C1394 0.950 . S
H1372 C1395 0.950 . S
H1373 C1397 0.950 . S
H1374 C1398 0.950 . S
H1375 C1399 0.951 . S
H1376 C1401 0.951 . S
H1377 C1403 0.950 . S
H1378 C1404 0.950 . S
H1379 C1406 0.950 . S
H1380 C1409 0.950 . S
H1381 C1410 0.950 . S
H1382 C1412 0.950 . S
H1383 C1413 0.950 . S
C1384 H1366 0.951 . S
C1384 C1385 1.366 . S
C1384 C1386 1.388 . S
C1385 C1384 1.366 . S
C1385 C1389 1.385 . S
C1386 H1367 0.951 . S
C1386 C1384 1.388 . S
C1386 C1387 1.366 . S
C1387 C1386 1.366 . S
C1387 C1388 1.414 . S
C1387 C1390 1.499 . S
C1388 H1368 0.950 . S
C1388 C1387 1.414 . S
C1388 C1389 1.374 . S
C1389 H1369 0.950 . S
C1389 C1385 1.385 . S
C1389 C1388 1.374 . S
C1390 C1387 1.499 . S
C1390 C1391 1.373 . S
C1390 C1392 1.389 . S
C1391 H1370 0.950 . S
C1391 C1390 1.373 . S
C1391 C1407 1.377 . S
C1392 C1390 1.389 . S
C1392 C1393 1.524 . S
C1392 C1406 1.377 . S
C1393 C1392 1.524 . S
C1393 C1394 1.397 . S
C1393 C1398 1.363 . S
C1394 H1371 0.950 . S
C1394 C1393 1.397 . S
C1394 C1395 1.334 . S
C1395 H1372 0.950 . S
C1395 C1394 1.334 . S
C1395 C1396 1.287 . S
C1396 C1395 1.287 . S
C1396 C1397 1.524 . S
C1396 H1415 0.913 . S
C1397 H1373 0.950 . S
C1397 C1396 1.524 . S
C1397 C1398 1.415 . S
C1398 H1374 0.950 . S
C1398 C1393 1.363 . S
C1398 C1397 1.415 . S
C1399 H1375 0.951 . S
C1399 C1400 1.366 . S
C1399 C1401 1.388 . S
C1400 C1399 1.366 . S
C1400 C1404 1.385 . S
C1401 H1376 0.951 . S
C1401 C1399 1.388 . S
C1401 C1402 1.366 . S
C1402 C1401 1.366 . S
C1402 C1403 1.414 . S
C1402 C1405 1.499 . S
C1403 H1377 0.950 . S
C1403 C1402 1.414 . S
C1403 C1404 1.374 . S
C1404 H1378 0.950 . S
C1404 C1400 1.385 . S
C1404 C1403 1.374 . S
C1405 C1402 1.499 . S
C1405 C1406 1.373 . S
C1405 C1407 1.389 . S
C1406 H1379 0.950 . S
C1406 C1392 1.377 . S
C1406 C1405 1.373 . S
C1407 C1391 1.377 . S
C1407 C1405 1.389 . S
C1407 C1408 1.524 . S
C1408 C1407 1.524 . S
C1408 C1409 1.397 . S
C1408 C1413 1.363 . S
C1409 H1380 0.950 . S
C1409 C1408 1.397 . S
C1409 C1410 1.334 . S
C1410 H1381 0.950 . S
C1410 C1409 1.334 . S
C1410 C1411 1.287 . S
C1411 C1410 1.287 . S
C1411 C1412 1.524 . S
C1411 H1414 0.999 . S
C1412 H1382 0.950 . S
C1412 C1411 1.524 . S
C1412 C1413 1.415 . S
C1413 H1383 0.950 . S
C1413 C1408 1.363 . S
C1413 C1412 1.415 . S
H1414 C1411 0.999 . S
H1415 C1396 0.913 . S
H1416 C1434 0.951 . S
H1417 C1436 0.951 . S
H1418 C1438 0.950 . S
H1419 C1439 0.950 . S
H1420 C1441 0.950 . S
H1421 C1444 0.950 . S
H1422 C1445 0.950 . S
H1423 C1447 0.950 . S
H1424 C1448 0.950 . S
H1425 C1449 0.951 . S
H1426 C1451 0.951 . S
H1427 C1453 0.950 . S
H1428 C1454 0.950 . S
H1429 C1456 0.950 1_545 S
H1430 C1459 0.950 . S
H1431 C1460 0.950 . S
H1432 C1462 0.939 1_565 S
H1433 C1463 0.950 . S
C1434 H1416 0.951 . S
C1434 C1435 1.366 . S
C1434 C1436 1.388 . S
C1435 C1434 1.366 . S
C1435 C1439 1.385 . S
C1436 H1417 0.951 . S
C1436 C1434 1.388 . S
C1436 C1437 1.366 . S
C1437 C1436 1.366 . S
C1437 C1438 1.414 . S
C1437 C1440 1.499 . S
C1438 H1418 0.950 . S
C1438 C1437 1.414 . S
C1438 C1439 1.374 . S
C1439 H1419 0.950 . S
C1439 C1435 1.385 . S
C1439 C1438 1.374 . S
C1440 C1437 1.499 . S
C1440 C1441 1.373 . S
C1440 C1442 1.389 . S
C1441 H1420 0.950 . S
C1441 C1440 1.373 . S
C1441 C1457 1.377 . S
C1442 C1440 1.389 . S
C1442 C1443 1.524 . S
C1442 C1456 1.377 . S
C1443 C1442 1.524 . S
C1443 C1444 1.397 . S
C1443 C1448 1.363 . S
C1444 H1421 0.950 . S
C1444 C1443 1.397 . S
C1444 C1445 1.334 . S
C1445 H1422 0.950 . S
C1445 C1444 1.334 . S
C1445 C1446 1.287 . S
C1446 C1445 1.287 . S
C1446 C1447 1.524 . S
C1446 H1465 0.913 . S
C1447 H1423 0.950 . S
C1447 C1446 1.524 . S
C1447 C1448 1.415 . S
C1448 H1424 0.950 . S
C1448 C1443 1.363 . S
C1448 C1447 1.415 . S
C1449 H1425 0.951 . S
C1449 C1450 1.366 . S
C1449 C1451 1.388 . S
C1450 C1449 1.366 . S
C1450 C1454 1.385 . S
C1451 H1426 0.951 . S
C1451 C1449 1.388 . S
C1451 C1452 1.366 . S
C1452 C1451 1.366 . S
C1452 C1453 1.414 . S
C1452 C1455 1.499 . S
C1453 H1427 0.950 . S
C1453 C1452 1.414 . S
C1453 C1454 1.374 . S
C1454 H1428 0.950 . S
C1454 C1450 1.385 . S
C1454 C1453 1.374 . S
C1455 C1452 1.499 . S
C1455 C1456 1.373 1_545 S
C1455 C1457 1.389 1_545 S
C1456 H1429 0.950 1_565 S
C1456 C1442 1.377 . S
C1456 C1455 1.373 1_565 S
C1457 C1441 1.377 . S
C1457 C1455 1.389 1_565 S
C1457 C1458 1.510 1_565 S
C1458 C1457 1.510 1_545 S
C1458 C1459 1.422 . S
C1458 C1463 1.351 1_545 S
C1459 H1430 0.950 . S
C1459 C1458 1.422 . S
C1459 C1460 1.334 . S
C1460 H1431 0.950 . S
C1460 C1459 1.334 . S
C1460 C1461 1.287 . S
C1461 C1460 1.287 . S
C1461 C1462 1.524 . S
C1461 H1464 0.999 . S
C1462 H1432 0.939 1_545 S
C1462 C1461 1.524 . S
C1462 C1463 1.415 1_545 S
C1463 H1433 0.950 . S
C1463 C1458 1.351 1_565 S
C1463 C1462 1.415 1_565 S
H1464 C1461 0.999 . S
H1465 C1446 0.913 . S
H1466 C1484 0.951 . S
H1467 C1486 0.951 . S
H1468 C1488 0.950 . S
H1469 C1489 0.950 . S
H1470 C1491 0.950 1_655 S
H1471 C1494 0.950 . S
H1472 C1495 0.950 . S
H1473 C1497 0.942 1_455 S
H1474 C1498 0.950 . S
H1475 C1499 0.951 . S
H1476 C1501 0.951 . S
H1477 C1503 0.950 . S
H1478 C1504 0.950 . S
H1479 C1506 0.950 . S
H1480 C1509 0.950 . S
H1481 C1510 0.950 . S
H1482 C1512 0.950 . S
H1483 C1513 0.950 . S
C1484 H1466 0.951 . S
C1484 C1485 1.366 . S
C1484 C1486 1.388 . S
C1485 C1484 1.366 . S
C1485 C1489 1.385 . S
C1486 H1467 0.951 . S
C1486 C1484 1.388 . S
C1486 C1487 1.366 . S
C1487 C1486 1.366 . S
C1487 C1488 1.414 . S
C1487 C1490 1.499 . S
C1488 H1468 0.950 . S
C1488 C1487 1.414 . S
C1488 C1489 1.374 . S
C1489 H1469 0.950 . S
C1489 C1485 1.385 . S
C1489 C1488 1.374 . S
C1490 C1487 1.499 . S
C1490 C1491 1.373 1_655 S
C1490 C1492 1.389 1_655 S
C1491 H1470 0.950 1_455 S
C1491 C1490 1.373 1_455 S
C1491 C1507 1.377 . S
C1492 C1490 1.389 1_455 S
C1492 C1493 1.524 1_455 S
C1492 C1506 1.377 . S
C1493 C1492 1.524 1_655 S
C1493 C1494 1.397 . S
C1493 C1498 1.363 1_655 S
C1494 H1471 0.950 . S
C1494 C1493 1.397 . S
C1494 C1495 1.334 . S
C1495 H1472 0.950 . S
C1495 C1494 1.334 . S
C1495 C1496 1.287 . S
C1496 C1495 1.287 . S
C1496 C1497 1.524 . S
C1496 H1515 0.913 . S
C1497 H1473 0.942 1_655 S
C1497 C1496 1.524 . S
C1497 C1498 1.415 1_655 S
C1498 H1474 0.950 . S
C1498 C1493 1.363 1_455 S
C1498 C1497 1.415 1_455 S
C1499 H1475 0.951 . S
C1499 C1500 1.366 . S
C1499 C1501 1.388 . S
C1500 C1499 1.366 . S
C1500 C1504 1.385 . S
C1501 H1476 0.951 . S
C1501 C1499 1.388 . S
C1501 C1502 1.366 . S
C1502 C1501 1.366 . S
C1502 C1503 1.414 . S
C1502 C1505 1.499 . S
C1503 H1477 0.950 . S
C1503 C1502 1.414 . S
C1503 C1504 1.374 . S
C1504 H1478 0.950 . S
C1504 C1500 1.385 . S
C1504 C1503 1.374 . S
C1505 C1502 1.499 . S
C1505 C1506 1.373 . S
C1505 C1507 1.389 . S
C1506 H1479 0.950 . S
C1506 C1492 1.377 . S
C1506 C1505 1.373 . S
C1507 C1491 1.377 . S
C1507 C1505 1.389 . S
C1507 C1508 1.524 . S
C1508 C1507 1.524 . S
C1508 C1509 1.397 . S
C1508 C1513 1.363 . S
C1509 H1480 0.950 . S
C1509 C1508 1.397 . S
C1509 C1510 1.334 . S
C1510 H1481 0.950 . S
C1510 C1509 1.334 . S
C1510 C1511 1.287 . S
C1511 C1510 1.287 . S
C1511 C1512 1.524 . S
C1511 H1514 0.999 . S
C1512 H1482 0.950 . S
C1512 C1511 1.524 . S
C1512 C1513 1.415 . S
C1513 H1483 0.950 . S
C1513 C1508 1.363 . S
C1513 C1512 1.415 . S
H1514 C1511 0.999 . S
H1515 C1496 0.913 . S
H1516 C1534 0.951 . S
H1517 C1536 0.951 . S
H1518 C1538 0.950 . S
H1519 C1539 0.950 . S
H1520 C1541 0.950 1_565 S
H1521 C1544 0.950 . S
H1522 C1545 0.950 . S
H1523 C1547 0.959 . S
H1524 C1548 0.950 . S
H1525 C1549 0.951 . S
H1526 C1551 0.951 . S
H1527 C1553 0.950 . S
H1528 C1554 0.950 . S
H1529 C1556 0.950 . S
H1530 C1559 0.950 . S
H1531 C1560 0.950 . S
H1532 C1562 0.950 . S
H1533 C1563 0.950 . S
C1534 H1516 0.951 . S
C1534 C1535 1.366 . S
C1534 C1536 1.388 . S
C1535 C1534 1.366 . S
C1535 C1539 1.385 . S
C1536 H1517 0.951 . S
C1536 C1534 1.388 . S
C1536 C1537 1.366 . S
C1537 C1536 1.366 . S
C1537 C1538 1.414 . S
C1537 C1540 1.499 . S
C1538 H1518 0.950 . S
C1538 C1537 1.414 . S
C1538 C1539 1.374 . S
C1539 H1519 0.950 . S
C1539 C1535 1.385 . S
C1539 C1538 1.374 . S
C1540 C1537 1.499 . S
C1540 C1541 1.373 1_565 S
C1540 C1542 1.389 1_565 S
C1541 H1520 0.950 1_545 S
C1541 C1540 1.373 1_545 S
C1541 C1557 1.377 . S
C1542 C1540 1.389 1_545 S
C1542 C1543 1.524 1_545 S
C1542 C1556 1.377 . S
C1543 C1542 1.524 1_565 S
C1543 C1544 1.397 . S
C1543 C1548 1.363 1_565 S
C1544 H1521 0.950 . S
C1544 C1543 1.397 . S
C1544 C1545 1.334 . S
C1545 H1522 0.950 . S
C1545 C1544 1.334 . S
C1545 C1546 1.287 . S
C1546 C1545 1.287 . S
C1546 C1547 1.524 . S
C1546 H1565 0.913 . S
C1547 H1523 0.959 . S
C1547 C1546 1.524 . S
C1547 C1548 1.415 1_565 S
C1548 H1524 0.950 . S
C1548 C1543 1.363 1_545 S
C1548 C1547 1.415 1_545 S
C1549 H1525 0.951 . S
C1549 C1550 1.366 . S
C1549 C1551 1.388 . S
C1550 C1549 1.366 . S
C1550 C1554 1.385 . S
C1551 H1526 0.951 . S
C1551 C1549 1.388 . S
C1551 C1552 1.366 . S
C1552 C1551 1.366 . S
C1552 C1553 1.414 . S
C1552 C1555 1.499 . S
C1553 H1527 0.950 . S
C1553 C1552 1.414 . S
C1553 C1554 1.374 . S
C1554 H1528 0.950 . S
C1554 C1550 1.385 . S
C1554 C1553 1.374 . S
C1555 C1552 1.499 . S
C1555 C1556 1.373 . S
C1555 C1557 1.389 . S
C1556 H1529 0.950 . S
C1556 C1542 1.377 . S
C1556 C1555 1.373 . S
C1557 C1541 1.377 . S
C1557 C1555 1.389 . S
C1557 C1558 1.524 . S
C1558 C1557 1.524 . S
C1558 C1559 1.397 . S
C1558 C1563 1.363 . S
C1559 H1530 0.950 . S
C1559 C1558 1.397 . S
C1559 C1560 1.334 . S
C1560 H1531 0.950 . S
C1560 C1559 1.334 . S
C1560 C1561 1.287 . S
C1561 C1560 1.287 . S
C1561 C1562 1.524 . S
C1561 H1564 0.999 . S
C1562 H1532 0.950 . S
C1562 C1561 1.524 . S
C1562 C1563 1.415 . S
C1563 H1533 0.950 . S
C1563 C1558 1.363 . S
C1563 C1562 1.415 . S
H1564 C1561 0.999 . S
H1565 C1546 0.913 . S
H1566 C1584 0.951 . S
H1567 C1586 0.951 . S
H1568 C1588 0.950 . S
H1569 C1589 0.950 . S
H1570 C1591 0.950 . S
H1571 C1594 0.950 . S
H1572 C1595 0.950 . S
H1573 C1597 0.950 . S
H1574 C1598 0.950 . S
H1575 C1599 0.951 . S
H1576 C1601 0.951 . S
H1577 C1603 0.950 . S
H1578 C1604 0.950 . S
H1579 C1606 0.950 1_455 S
H1580 C1609 0.950 . S
H1581 C1610 0.950 . S
H1582 C1612 0.950 1_655 S
H1583 C1613 0.950 . S
C1584 H1566 0.951 . S
C1584 C1585 1.366 . S
C1584 C1586 1.388 . S
C1585 C1584 1.366 . S
C1585 C1589 1.385 . S
C1586 H1567 0.951 . S
C1586 C1584 1.388 . S
C1586 C1587 1.366 . S
C1587 C1586 1.366 . S
C1587 C1588 1.414 . S
C1587 C1590 1.499 . S
C1588 H1568 0.950 . S
C1588 C1587 1.414 . S
C1588 C1589 1.374 . S
C1589 H1569 0.950 . S
C1589 C1585 1.385 . S
C1589 C1588 1.374 . S
C1590 C1587 1.499 . S
C1590 C1591 1.373 . S
C1590 C1592 1.389 . S
C1591 H1570 0.950 . S
C1591 C1590 1.373 . S
C1591 C1607 1.377 . S
C1592 C1590 1.389 . S
C1592 C1593 1.524 . S
C1592 C1606 1.377 . S
C1593 C1592 1.524 . S
C1593 C1594 1.397 . S
C1593 C1598 1.363 . S
C1594 H1571 0.950 . S
C1594 C1593 1.397 . S
C1594 C1595 1.334 . S
C1595 H1572 0.950 . S
C1595 C1594 1.334 . S
C1595 C1596 1.287 . S
C1596 C1595 1.287 . S
C1596 C1597 1.524 . S
C1596 H1615 0.913 . S
C1597 H1573 0.950 . S
C1597 C1596 1.524 . S
C1597 C1598 1.415 . S
C1598 H1574 0.950 . S
C1598 C1593 1.363 . S
C1598 C1597 1.415 . S
C1599 H1575 0.951 . S
C1599 C1600 1.366 . S
C1599 C1601 1.388 . S
C1600 C1599 1.366 . S
C1600 C1604 1.385 . S
C1601 H1576 0.951 . S
C1601 C1599 1.388 . S
C1601 C1602 1.366 . S
C1602 C1601 1.366 . S
C1602 C1603 1.414 . S
C1602 C1605 1.499 . S
C1603 H1577 0.950 . S
C1603 C1602 1.414 . S
C1603 C1604 1.374 . S
C1604 H1578 0.950 . S
C1604 C1600 1.385 . S
C1604 C1603 1.374 . S
C1605 C1602 1.499 . S
C1605 C1606 1.373 1_455 S
C1605 C1607 1.389 1_455 S
C1606 H1579 0.950 1_655 S
C1606 C1592 1.377 . S
C1606 C1605 1.373 1_655 S
C1607 C1591 1.377 . S
C1607 C1605 1.389 1_655 S
C1607 C1608 1.524 1_655 S
C1608 C1607 1.524 1_455 S
C1608 C1609 1.397 . S
C1608 C1613 1.363 1_455 S
C1609 H1580 0.950 . S
C1609 C1608 1.397 . S
C1609 C1610 1.334 . S
C1610 H1581 0.950 . S
C1610 C1609 1.334 . S
C1610 C1611 1.287 . S
C1611 C1610 1.287 . S
C1611 C1612 1.524 . S
C1611 H1614 0.999 . S
C1612 H1582 0.950 1_455 S
C1612 C1611 1.524 . S
C1612 C1613 1.415 1_455 S
C1613 H1583 0.950 . S
C1613 C1608 1.363 1_655 S
C1613 C1612 1.415 1_655 S
H1614 C1611 0.999 . S
H1615 C1596 0.913 . S
H1616 C1634 0.951 . S
H1617 C1636 0.951 . S
H1618 C1638 0.950 . S
H1619 C1639 0.950 . S
H1620 C1641 0.950 . S
H1621 C1644 0.950 . S
H1622 C1645 0.950 . S
H1623 C1647 0.950 . S
H1624 C1648 0.950 . S
H1625 C1649 0.951 . S
H1626 C1651 0.951 . S
H1627 C1653 0.950 . S
H1628 C1654 0.950 . S
H1629 C1656 0.950 1_565 S
H1630 C1659 0.950 . S
H1631 C1660 0.950 . S
H1632 C1662 0.950 . S
H1633 C1663 0.950 . S
C1634 H1616 0.951 . S
C1634 C1635 1.366 . S
C1634 C1636 1.388 . S
C1635 C1634 1.366 . S
C1635 C1639 1.385 . S
C1636 H1617 0.951 . S
C1636 C1634 1.388 . S
C1636 C1637 1.366 . S
C1637 C1636 1.366 . S
C1637 C1638 1.414 . S
C1637 C1640 1.499 . S
C1638 H1618 0.950 . S
C1638 C1637 1.414 . S
C1638 C1639 1.374 . S
C1639 H1619 0.950 . S
C1639 C1635 1.385 . S
C1639 C1638 1.374 . S
C1640 C1637 1.499 . S
C1640 C1641 1.373 . S
C1640 C1642 1.389 . S
C1641 H1620 0.950 . S
C1641 C1640 1.373 . S
C1641 C1657 1.377 . S
C1642 C1640 1.389 . S
C1642 C1643 1.524 . S
C1642 C1656 1.377 . S
C1643 C1642 1.524 . S
C1643 C1644 1.397 . S
C1643 C1648 1.363 . S
C1644 H1621 0.950 . S
C1644 C1643 1.397 . S
C1644 C1645 1.334 . S
C1645 H1622 0.950 . S
C1645 C1644 1.334 . S
C1645 C1646 1.287 . S
C1646 C1645 1.287 . S
C1646 C1647 1.524 . S
C1646 H1665 0.913 . S
C1647 H1623 0.950 . S
C1647 C1646 1.524 . S
C1647 C1648 1.415 . S
C1648 H1624 0.950 . S
C1648 C1643 1.363 . S
C1648 C1647 1.415 . S
C1649 H1625 0.951 . S
C1649 C1650 1.366 . S
C1649 C1651 1.388 . S
C1650 C1649 1.366 . S
C1650 C1654 1.385 . S
C1651 H1626 0.951 . S
C1651 C1649 1.388 . S
C1651 C1652 1.366 . S
C1652 C1651 1.366 . S
C1652 C1653 1.414 . S
C1652 C1655 1.499 . S
C1653 H1627 0.950 . S
C1653 C1652 1.414 . S
C1653 C1654 1.374 . S
C1654 H1628 0.950 . S
C1654 C1650 1.385 . S
C1654 C1653 1.374 . S
C1655 C1652 1.499 . S
C1655 C1656 1.373 1_565 S
C1655 C1657 1.389 1_565 S
C1656 H1629 0.950 1_545 S
C1656 C1642 1.377 . S
C1656 C1655 1.373 1_545 S
C1657 C1641 1.377 . S
C1657 C1655 1.389 1_545 S
C1657 C1658 1.504 1_545 S
C1658 C1657 1.504 1_565 S
C1658 C1659 1.430 . S
C1658 C1663 1.349 1_565 S
C1659 H1630 0.950 . S
C1659 C1658 1.430 . S
C1659 C1660 1.334 . S
C1660 H1631 0.950 . S
C1660 C1659 1.334 . S
C1660 C1661 1.287 . S
C1661 C1660 1.287 . S
C1661 C1662 1.524 . S
C1661 H1664 0.999 . S
C1662 H1632 0.950 . S
C1662 C1661 1.524 . S
C1662 C1663 1.415 1_565 S
C1663 H1633 0.950 . S
C1663 C1658 1.349 1_545 S
C1663 C1662 1.415 1_545 S
H1664 C1661 0.999 . S
H1665 C1646 0.913 . S
H1666 C1684 0.951 . S
H1667 C1686 0.951 . S
H1668 C1688 0.950 . S
H1669 C1689 0.950 . S
H1670 C1691 0.950 1_455 S
H1671 C1694 0.950 . S
H1672 C1695 0.950 . S
H1673 C1697 0.950 . S
H1674 C1698 0.979 . S
H1675 C1699 0.951 . S
H1676 C1701 0.951 . S
H1677 C1703 0.950 . S
H1678 C1704 0.950 . S
H1679 C1706 0.950 . S
H1680 C1709 0.950 . S
H1681 C1710 0.950 . S
H1682 C1712 0.950 . S
H1683 C1713 0.950 . S
C1684 H1666 0.951 . S
C1684 C1685 1.366 . S
C1684 C1686 1.388 . S
C1685 C1684 1.366 . S
C1685 C1689 1.385 . S
C1686 H1667 0.951 . S
C1686 C1684 1.388 . S
C1686 C1687 1.366 . S
C1687 C1686 1.366 . S
C1687 C1688 1.414 . S
C1687 C1690 1.499 . S
C1688 H1668 0.950 . S
C1688 C1687 1.414 . S
C1688 C1689 1.374 . S
C1689 H1669 0.950 . S
C1689 C1685 1.385 . S
C1689 C1688 1.374 . S
C1690 C1687 1.499 . S
C1690 C1691 1.373 1_455 S
C1690 C1692 1.389 1_455 S
C1691 H1670 0.950 1_655 S
C1691 C1690 1.373 1_655 S
C1691 C1707 1.377 . S
C1692 C1690 1.389 1_655 S
C1692 C1693 1.524 1_655 S
C1692 C1706 1.377 . S
C1693 C1692 1.524 1_455 S
C1693 C1694 1.397 . S
C1693 C1698 1.353 1_455 S
C1694 H1671 0.950 . S
C1694 C1693 1.397 . S
C1694 C1695 1.334 . S
C1695 H1672 0.950 . S
C1695 C1694 1.334 . S
C1695 C1696 1.287 . S
C1696 C1695 1.287 . S
C1696 C1697 1.524 . S
C1696 H1715 0.913 . S
C1697 H1673 0.950 . S
C1697 C1696 1.524 . S
C1697 C1698 1.398 1_455 S
C1698 H1674 0.979 . S
C1698 C1693 1.353 1_655 S
C1698 C1697 1.398 1_655 S
C1699 H1675 0.951 . S
C1699 C1700 1.366 . S
C1699 C1701 1.388 . S
C1700 C1699 1.366 . S
C1700 C1704 1.385 . S
C1701 H1676 0.951 . S
C1701 C1699 1.388 . S
C1701 C1702 1.366 . S
C1702 C1701 1.366 . S
C1702 C1703 1.414 . S
C1702 C1705 1.499 . S
C1703 H1677 0.950 . S
C1703 C1702 1.414 . S
C1703 C1704 1.374 . S
C1704 H1678 0.950 . S
C1704 C1700 1.385 . S
C1704 C1703 1.374 . S
C1705 C1702 1.499 . S
C1705 C1706 1.373 . S
C1705 C1707 1.389 . S
C1706 H1679 0.950 . S
C1706 C1692 1.377 . S
C1706 C1705 1.373 . S
C1707 C1691 1.377 . S
C1707 C1705 1.389 . S
C1707 C1708 1.524 . S
C1708 C1707 1.524 . S
C1708 C1709 1.397 . S
C1708 C1713 1.363 . S
C1709 H1680 0.950 . S
C1709 C1708 1.397 . S
C1709 C1710 1.334 . S
C1710 H1681 0.950 . S
C1710 C1709 1.334 . S
C1710 C1711 1.287 . S
C1711 C1710 1.287 . S
C1711 C1712 1.524 . S
C1711 H1714 0.999 . S
C1712 H1682 0.950 . S
C1712 C1711 1.524 . S
C1712 C1713 1.415 . S
C1713 H1683 0.950 . S
C1713 C1708 1.363 . S
C1713 C1712 1.415 . S
H1714 C1711 0.999 . S
H1715 C1696 0.913 . S
H1716 C1734 0.951 . S
H1717 C1736 0.951 . S
H1718 C1738 0.950 . S
H1719 C1739 0.950 . S
H1720 C1741 0.950 . S
H1721 C1744 0.950 . S
H1722 C1745 0.950 . S
H1723 C1747 0.950 . S
H1724 C1748 0.950 . S
H1725 C1749 0.951 . S
H1726 C1751 0.951 . S
H1727 C1753 0.950 . S
H1728 C1754 0.950 . S
H1729 C1756 0.950 1_545 S
H1730 C1759 0.950 . S
H1731 C1760 0.950 . S
H1732 C1762 0.950 . S
H1733 C1763 0.950 . S
C1734 H1716 0.951 . S
C1734 C1735 1.366 . S
C1734 C1736 1.388 . S
C1735 C1734 1.366 . S
C1735 C1739 1.385 . S
C1736 H1717 0.951 . S
C1736 C1734 1.388 . S
C1736 C1737 1.366 . S
C1737 C1736 1.366 . S
C1737 C1738 1.414 . S
C1737 C1740 1.499 . S
C1738 H1718 0.950 . S
C1738 C1737 1.414 . S
C1738 C1739 1.374 . S
C1739 H1719 0.950 . S
C1739 C1735 1.385 . S
C1739 C1738 1.374 . S
C1740 C1737 1.499 . S
C1740 C1741 1.373 . S
C1740 C1742 1.389 . S
C1741 H1720 0.950 . S
C1741 C1740 1.373 . S
C1741 C1757 1.377 . S
C1742 C1740 1.389 . S
C1742 C1743 1.524 . S
C1742 C1756 1.377 . S
C1743 C1742 1.524 . S
C1743 C1744 1.397 . S
C1743 C1748 1.363 . S
C1744 H1721 0.950 . S
C1744 C1743 1.397 . S
C1744 C1745 1.334 . S
C1745 H1722 0.950 . S
C1745 C1744 1.334 . S
C1745 C1746 1.287 . S
C1746 C1745 1.287 . S
C1746 C1747 1.524 . S
C1746 H1765 0.913 . S
C1747 H1723 0.950 . S
C1747 C1746 1.524 . S
C1747 C1748 1.415 . S
C1748 H1724 0.950 . S
C1748 C1743 1.363 . S
C1748 C1747 1.415 . S
C1749 H1725 0.951 . S
C1749 C1750 1.366 . S
C1749 C1751 1.388 . S
C1750 C1749 1.366 . S
C1750 C1754 1.385 . S
C1751 H1726 0.951 . S
C1751 C1749 1.388 . S
C1751 C1752 1.366 . S
C1752 C1751 1.366 . S
C1752 C1753 1.414 . S
C1752 C1755 1.499 . S
C1753 H1727 0.950 . S
C1753 C1752 1.414 . S
C1753 C1754 1.374 . S
C1754 H1728 0.950 . S
C1754 C1750 1.385 . S
C1754 C1753 1.374 . S
C1755 C1752 1.499 . S
C1755 C1756 1.373 1_545 S
C1755 C1757 1.389 1_545 S
C1756 H1729 0.950 1_565 S
C1756 C1742 1.377 . S
C1756 C1755 1.373 1_565 S
C1757 C1741 1.377 . S
C1757 C1755 1.389 1_565 S
C1757 C1758 1.524 1_565 S
C1758 C1757 1.524 1_545 S
C1758 C1759 1.397 . S
C1758 C1763 1.363 1_545 S
C1759 H1730 0.950 . S
C1759 C1758 1.397 . S
C1759 C1760 1.334 . S
C1760 H1731 0.950 . S
C1760 C1759 1.334 . S
C1760 C1761 1.287 . S
C1761 C1760 1.287 . S
C1761 C1762 1.524 . S
C1761 H1764 0.999 . S
C1762 H1732 0.950 . S
C1762 C1761 1.524 . S
C1762 C1763 1.415 1_545 S
C1763 H1733 0.950 . S
C1763 C1758 1.363 1_565 S
C1763 C1762 1.415 1_565 S
H1764 C1761 0.999 . S
H1765 C1746 0.913 . S
H1766 C1784 0.951 . S
H1767 C1786 0.951 . S
H1768 C1788 0.950 . S
H1769 C1789 0.950 . S
H1770 C1791 0.950 . S
H1771 C1794 0.950 . S
H1772 C1795 0.950 . S
H1773 C1797 0.950 . S
H1774 C1798 0.950 . S
H1775 C1799 0.951 . S
H1776 C1801 0.951 . S
H1777 C1803 0.950 . S
H1778 C1804 0.950 . S
H1779 C1806 0.950 1_655 S
H1780 C1809 0.950 . S
H1781 C1810 0.950 . S
H1782 C1812 0.950 . S
H1783 C1813 0.950 . S
C1784 H1766 0.951 . S
C1784 C1785 1.366 . S
C1784 C1786 1.388 . S
C1785 C1784 1.366 . S
C1785 C1789 1.385 . S
C1786 H1767 0.951 . S
C1786 C1784 1.388 . S
C1786 C1787 1.366 . S
C1787 C1786 1.366 . S
C1787 C1788 1.414 . S
C1787 C1790 1.499 . S
C1788 H1768 0.950 . S
C1788 C1787 1.414 . S
C1788 C1789 1.374 . S
C1789 H1769 0.950 . S
C1789 C1785 1.385 . S
C1789 C1788 1.374 . S
C1790 C1787 1.499 . S
C1790 C1791 1.373 . S
C1790 C1792 1.389 . S
C1791 H1770 0.950 . S
C1791 C1790 1.373 . S
C1791 C1807 1.377 . S
C1792 C1790 1.389 . S
C1792 C1793 1.524 . S
C1792 C1806 1.377 . S
C1793 C1792 1.524 . S
C1793 C1794 1.397 . S
C1793 C1798 1.363 . S
C1794 H1771 0.950 . S
C1794 C1793 1.397 . S
C1794 C1795 1.334 . S
C1795 H1772 0.950 . S
C1795 C1794 1.334 . S
C1795 C1796 1.287 . S
C1796 C1795 1.287 . S
C1796 C1797 1.524 . S
C1796 H1815 0.913 . S
C1797 H1773 0.950 . S
C1797 C1796 1.524 . S
C1797 C1798 1.415 . S
C1798 H1774 0.950 . S
C1798 C1793 1.363 . S
C1798 C1797 1.415 . S
C1799 H1775 0.951 . S
C1799 C1800 1.366 . S
C1799 C1801 1.388 . S
C1800 C1799 1.366 . S
C1800 C1804 1.385 . S
C1801 H1776 0.951 . S
C1801 C1799 1.388 . S
C1801 C1802 1.366 . S
C1802 C1801 1.366 . S
C1802 C1803 1.414 . S
C1802 C1805 1.499 . S
C1803 H1777 0.950 . S
C1803 C1802 1.414 . S
C1803 C1804 1.374 . S
C1804 H1778 0.950 . S
C1804 C1800 1.385 . S
C1804 C1803 1.374 . S
C1805 C1802 1.499 . S
C1805 C1806 1.373 1_655 S
C1805 C1807 1.389 1_655 S
C1806 H1779 0.950 1_455 S
C1806 C1792 1.377 . S
C1806 C1805 1.373 1_455 S
C1807 C1791 1.377 . S
C1807 C1805 1.389 1_455 S
C1807 C1808 1.524 1_455 S
C1808 C1807 1.524 1_655 S
C1808 C1809 1.397 . S
C1808 C1813 1.363 1_655 S
C1809 H1780 0.950 . S
C1809 C1808 1.397 . S
C1809 C1810 1.334 . S
C1810 H1781 0.950 . S
C1810 C1809 1.334 . S
C1810 C1811 1.287 . S
C1811 C1810 1.287 . S
C1811 C1812 1.524 . S
C1811 H1814 0.999 . S
C1812 H1782 0.950 . S
C1812 C1811 1.524 . S
C1812 C1813 1.415 1_655 S
C1813 H1783 0.950 . S
C1813 C1808 1.363 1_455 S
C1813 C1812 1.415 1_455 S
H1814 C1811 0.999 . S
H1815 C1796 0.913 . S
H1816 C1834 0.951 . S
H1817 C1836 0.951 . S
H1818 C1838 0.950 . S
H1819 C1839 0.950 . S
H1820 C1841 0.950 . S
H1821 C1844 0.950 . S
H1822 C1845 0.950 . S
H1823 C1847 0.950 . S
H1824 C1848 0.950 . S
H1825 C1849 0.951 . S
H1826 C1851 0.951 . S
H1827 C1853 0.950 . S
H1828 C1854 0.950 . S
H1829 C1856 0.950 1_554 S
H1830 C1859 0.950 . S
H1831 C1860 0.950 . S
H1832 C1862 0.950 . S
H1833 C1863 0.950 . S
C1834 H1816 0.951 . S
C1834 C1835 1.366 . S
C1834 C1836 1.388 . S
C1835 C1834 1.366 . S
C1835 C1839 1.385 . S
C1836 H1817 0.951 . S
C1836 C1834 1.388 . S
C1836 C1837 1.366 . S
C1837 C1836 1.366 . S
C1837 C1838 1.414 . S
C1837 C1840 1.499 . S
C1838 H1818 0.950 . S
C1838 C1837 1.414 . S
C1838 C1839 1.374 . S
C1839 H1819 0.950 . S
C1839 C1835 1.385 . S
C1839 C1838 1.374 . S
C1840 C1837 1.499 . S
C1840 C1841 1.373 . S
C1840 C1842 1.389 . S
C1841 H1820 0.950 . S
C1841 C1840 1.373 . S
C1841 C1857 1.377 . S
C1842 C1840 1.389 . S
C1842 C1843 1.524 . S
C1842 C1856 1.377 . S
C1843 C1842 1.524 . S
C1843 C1844 1.397 . S
C1843 C1848 1.363 . S
C1844 H1821 0.950 . S
C1844 C1843 1.397 . S
C1844 C1845 1.334 . S
C1845 H1822 0.950 . S
C1845 C1844 1.334 . S
C1845 C1846 1.287 . S
C1846 C1845 1.287 . S
C1846 C1847 1.524 . S
C1846 H1865 0.913 . S
C1847 H1823 0.950 . S
C1847 C1846 1.524 . S
C1847 C1848 1.415 . S
C1848 H1824 0.950 . S
C1848 C1843 1.363 . S
C1848 C1847 1.415 . S
C1849 H1825 0.951 . S
C1849 C1850 1.366 . S
C1849 C1851 1.388 . S
C1850 C1849 1.366 . S
C1850 C1854 1.385 . S
C1851 H1826 0.951 . S
C1851 C1849 1.388 . S
C1851 C1852 1.366 . S
C1852 C1851 1.366 . S
C1852 C1853 1.414 . S
C1852 C1855 1.499 . S
C1853 H1827 0.950 . S
C1853 C1852 1.414 . S
C1853 C1854 1.374 . S
C1854 H1828 0.950 . S
C1854 C1850 1.385 . S
C1854 C1853 1.374 . S
C1855 C1852 1.499 . S
C1855 C1856 1.373 1_554 S
C1855 C1857 1.389 1_554 S
C1856 H1829 0.950 1_556 S
C1856 C1842 1.377 . S
C1856 C1855 1.373 1_556 S
C1857 C1841 1.377 . S
C1857 C1855 1.389 1_556 S
C1857 C1858 1.524 1_556 S
C1858 C1857 1.524 1_554 S
C1858 C1859 1.397 . S
C1858 C1863 1.363 1_554 S
C1859 H1830 0.950 . S
C1859 C1858 1.397 . S
C1859 C1860 1.334 . S
C1860 H1831 0.950 . S
C1860 C1859 1.334 . S
C1860 C1861 1.287 . S
C1861 C1860 1.287 . S
C1861 C1862 1.524 . S
C1861 H1864 0.999 . S
C1862 H1832 0.950 . S
C1862 C1861 1.524 . S
C1862 C1863 1.415 1_554 S
C1863 H1833 0.950 . S
C1863 C1858 1.363 1_556 S
C1863 C1862 1.415 1_556 S
H1864 C1861 0.999 . S
H1865 C1846 0.913 . S
H1866 C1884 0.951 . S
H1867 C1886 0.951 . S
H1868 C1888 0.950 . S
H1869 C1889 0.950 . S
H1870 C1891 0.950 1_554 S
H1871 C1894 0.950 . S
H1872 C1895 0.950 . S
H1873 C1897 0.950 . S
H1874 C1898 0.969 . S
H1875 C1899 0.951 . S
H1876 C1901 0.951 . S
H1877 C1903 0.950 . S
H1878 C1904 0.950 . S
H1879 C1906 0.950 . S
H1880 C1909 0.950 . S
H1881 C1910 0.950 . S
H1882 C1912 0.950 . S
H1883 C1913 0.950 . S
C1884 H1866 0.951 . S
C1884 C1885 1.366 . S
C1884 C1886 1.388 . S
C1885 C1884 1.366 . S
C1885 C1889 1.385 . S
C1886 H1867 0.951 . S
C1886 C1884 1.388 . S
C1886 C1887 1.366 . S
C1887 C1886 1.366 . S
C1887 C1888 1.414 . S
C1887 C1890 1.499 . S
C1888 H1868 0.950 . S
C1888 C1887 1.414 . S
C1888 C1889 1.374 . S
C1889 H1869 0.950 . S
C1889 C1885 1.385 . S
C1889 C1888 1.374 . S
C1890 C1887 1.499 . S
C1890 C1891 1.373 1_554 S
C1890 C1892 1.389 1_554 S
C1891 H1870 0.950 1_556 S
C1891 C1890 1.373 1_556 S
C1891 C1907 1.377 . S
C1892 C1890 1.389 1_556 S
C1892 C1893 1.524 1_556 S
C1892 C1906 1.377 . S
C1893 C1892 1.524 1_554 S
C1893 C1894 1.397 . S
C1893 C1898 1.357 1_554 S
C1894 H1871 0.950 . S
C1894 C1893 1.397 . S
C1894 C1895 1.334 . S
C1895 H1872 0.950 . S
C1895 C1894 1.334 . S
C1895 C1896 1.287 . S
C1896 C1895 1.287 . S
C1896 C1897 1.524 . S
C1896 H1915 0.913 . S
C1897 H1873 0.950 . S
C1897 C1896 1.524 . S
C1897 C1898 1.403 1_554 S
C1898 H1874 0.969 . S
C1898 C1893 1.357 1_556 S
C1898 C1897 1.403 1_556 S
C1899 H1875 0.951 . S
C1899 C1900 1.366 . S
C1899 C1901 1.388 . S
C1900 C1899 1.366 . S
C1900 C1904 1.385 . S
C1901 H1876 0.951 . S
C1901 C1899 1.388 . S
C1901 C1902 1.366 . S
C1902 C1901 1.366 . S
C1902 C1903 1.414 . S
C1902 C1905 1.499 . S
C1903 H1877 0.950 . S
C1903 C1902 1.414 . S
C1903 C1904 1.374 . S
C1904 H1878 0.950 . S
C1904 C1900 1.385 . S
C1904 C1903 1.374 . S
C1905 C1902 1.499 . S
C1905 C1906 1.373 . S
C1905 C1907 1.389 . S
C1906 H1879 0.950 . S
C1906 C1892 1.377 . S
C1906 C1905 1.373 . S
C1907 C1891 1.377 . S
C1907 C1905 1.389 . S
C1907 C1908 1.524 . S
C1908 C1907 1.524 . S
C1908 C1909 1.397 . S
C1908 C1913 1.363 . S
C1909 H1880 0.950 . S
C1909 C1908 1.397 . S
C1909 C1910 1.334 . S
C1910 H1881 0.950 . S
C1910 C1909 1.334 . S
C1910 C1911 1.287 . S
C1911 C1910 1.287 . S
C1911 C1912 1.524 . S
C1911 H1914 0.999 . S
C1912 H1882 0.950 . S
C1912 C1911 1.524 . S
C1912 C1913 1.415 . S
C1913 H1883 0.950 . S
C1913 C1908 1.363 . S
C1913 C1912 1.415 . S
H1914 C1911 0.999 . S
H1915 C1896 0.913 . S
H1916 C1934 0.951 . S
H1917 C1936 0.951 . S
H1918 C1938 0.950 . S
H1919 C1939 0.950 . S
H1920 C1941 0.950 . S
H1921 C1944 0.950 . S
H1922 C1945 0.950 . S
H1923 C1947 0.950 . S
H1924 C1948 0.950 . S
H1925 C1949 0.951 . S
H1926 C1951 0.951 . S
H1927 C1953 0.950 . S
H1928 C1954 0.950 . S
H1929 C1956 0.950 1_554 S
H1930 C1959 0.950 . S
H1931 C1960 0.950 . S
H1932 C1962 0.950 . S
H1933 C1963 0.950 . S
C1934 H1916 0.951 . S
C1934 C1935 1.366 . S
C1934 C1936 1.388 . S
C1935 C1934 1.366 . S
C1935 C1939 1.385 . S
C1936 H1917 0.951 . S
C1936 C1934 1.388 . S
C1936 C1937 1.366 . S
C1937 C1936 1.366 . S
C1937 C1938 1.414 . S
C1937 C1940 1.499 . S
C1938 H1918 0.950 . S
C1938 C1937 1.414 . S
C1938 C1939 1.374 . S
C1939 H1919 0.950 . S
C1939 C1935 1.385 . S
C1939 C1938 1.374 . S
C1940 C1937 1.499 . S
C1940 C1941 1.373 . S
C1940 C1942 1.389 . S
C1941 H1920 0.950 . S
C1941 C1940 1.373 . S
C1941 C1957 1.377 . S
C1942 C1940 1.389 . S
C1942 C1943 1.524 . S
C1942 C1956 1.377 . S
C1943 C1942 1.524 . S
C1943 C1944 1.397 . S
C1943 C1948 1.363 . S
C1944 H1921 0.950 . S
C1944 C1943 1.397 . S
C1944 C1945 1.334 . S
C1945 H1922 0.950 . S
C1945 C1944 1.334 . S
C1945 C1946 1.287 . S
C1946 C1945 1.287 . S
C1946 C1947 1.524 . S
C1946 H1965 0.913 . S
C1947 H1923 0.950 . S
C1947 C1946 1.524 . S
C1947 C1948 1.415 . S
C1948 H1924 0.950 . S
C1948 C1943 1.363 . S
C1948 C1947 1.415 . S
C1949 H1925 0.951 . S
C1949 C1950 1.366 . S
C1949 C1951 1.388 . S
C1950 C1949 1.366 . S
C1950 C1954 1.385 . S
C1951 H1926 0.951 . S
C1951 C1949 1.388 . S
C1951 C1952 1.366 . S
C1952 C1951 1.366 . S
C1952 C1953 1.414 . S
C1952 C1955 1.499 . S
C1953 H1927 0.950 . S
C1953 C1952 1.414 . S
C1953 C1954 1.374 . S
C1954 H1928 0.950 . S
C1954 C1950 1.385 . S
C1954 C1953 1.374 . S
C1955 C1952 1.499 . S
C1955 C1956 1.373 1_554 S
C1955 C1957 1.389 1_554 S
C1956 H1929 0.950 1_556 S
C1956 C1942 1.377 . S
C1956 C1955 1.373 1_556 S
C1957 C1941 1.377 . S
C1957 C1955 1.389 1_556 S
C1957 C1958 1.504 1_556 S
C1958 C1957 1.504 1_554 S
C1958 C1959 1.430 . S
C1958 C1963 1.349 1_554 S
C1959 H1930 0.950 . S
C1959 C1958 1.430 . S
C1959 C1960 1.334 . S
C1960 H1931 0.950 . S
C1960 C1959 1.334 . S
C1960 C1961 1.287 . S
C1961 C1960 1.287 . S
C1961 C1962 1.524 . S
C1961 H1964 0.999 . S
C1962 H1932 0.950 . S
C1962 C1961 1.524 . S
C1962 C1963 1.415 1_554 S
C1963 H1933 0.950 . S
C1963 C1958 1.349 1_556 S
C1963 C1962 1.415 1_556 S
H1964 C1961 0.999 . S
H1965 C1946 0.913 . S
H1966 C1984 0.951 . S
H1967 C1986 0.951 . S
H1968 C1988 0.950 . S
H1969 C1989 0.950 . S
H1970 C1991 0.950 1_554 S
H1971 C1994 0.950 . S
H1972 C1995 0.950 . S
H1973 C1997 0.939 1_556 S
H1974 C1998 0.950 . S
H1975 C1999 0.951 . S
H1976 C2001 0.951 . S
H1977 C2003 0.950 . S
H1978 C2004 0.950 . S
H1979 C2006 0.950 . S
H1980 C2009 0.950 . S
H1981 C2010 0.950 . S
H1982 C2012 0.950 . S
H1983 C2013 0.950 . S
C1984 H1966 0.951 . S
C1984 C1985 1.366 . S
C1984 C1986 1.388 . S
C1985 C1984 1.366 . S
C1985 C1989 1.385 . S
C1986 H1967 0.951 . S
C1986 C1984 1.388 . S
C1986 C1987 1.366 . S
C1987 C1986 1.366 . S
C1987 C1988 1.414 . S
C1987 C1990 1.499 . S
C1988 H1968 0.950 . S
C1988 C1987 1.414 . S
C1988 C1989 1.374 . S
C1989 H1969 0.950 . S
C1989 C1985 1.385 . S
C1989 C1988 1.374 . S
C1990 C1987 1.499 . S
C1990 C1991 1.373 1_554 S
C1990 C1992 1.389 1_554 S
C1991 H1970 0.950 1_556 S
C1991 C1990 1.373 1_556 S
C1991 C2007 1.377 . S
C1992 C1990 1.389 1_556 S
C1992 C1993 1.510 1_556 S
C1992 C2006 1.377 . S
C1993 C1992 1.510 1_554 S
C1993 C1994 1.422 . S
C1993 C1998 1.351 1_554 S
C1994 H1971 0.950 . S
C1994 C1993 1.422 . S
C1994 C1995 1.334 . S
C1995 H1972 0.950 . S
C1995 C1994 1.334 . S
C1995 C1996 1.287 . S
C1996 C1995 1.287 . S
C1996 C1997 1.524 . S
C1996 H2015 0.913 . S
C1997 H1973 0.939 1_554 S
C1997 C1996 1.524 . S
C1997 C1998 1.415 1_554 S
C1998 H1974 0.950 . S
C1998 C1993 1.351 1_556 S
C1998 C1997 1.415 1_556 S
C1999 H1975 0.951 . S
C1999 C2000 1.366 . S
C1999 C2001 1.388 . S
C2000 C1999 1.366 . S
C2000 C2004 1.385 . S
C2001 H1976 0.951 . S
C2001 C1999 1.388 . S
C2001 C2002 1.366 . S
C2002 C2001 1.366 . S
C2002 C2003 1.414 . S
C2002 C2005 1.499 . S
C2003 H1977 0.950 . S
C2003 C2002 1.414 . S
C2003 C2004 1.374 . S
C2004 H1978 0.950 . S
C2004 C2000 1.385 . S
C2004 C2003 1.374 . S
C2005 C2002 1.499 . S
C2005 C2006 1.373 . S
C2005 C2007 1.389 . S
C2006 H1979 0.950 . S
C2006 C1992 1.377 . S
C2006 C2005 1.373 . S
C2007 C1991 1.377 . S
C2007 C2005 1.389 . S
C2007 C2008 1.524 . S
C2008 C2007 1.524 . S
C2008 C2009 1.397 . S
C2008 C2013 1.363 . S
C2009 H1980 0.950 . S
C2009 C2008 1.397 . S
C2009 C2010 1.334 . S
C2010 H1981 0.950 . S
C2010 C2009 1.334 . S
C2010 C2011 1.287 . S
C2011 C2010 1.287 . S
C2011 C2012 1.524 . S
C2011 H2014 0.999 . S
C2012 H1982 0.950 . S
C2012 C2011 1.524 . S
C2012 C2013 1.415 . S
C2013 H1983 0.950 . S
C2013 C2008 1.363 . S
C2013 C2012 1.415 . S
H2014 C2011 0.999 . S
H2015 C1996 0.913 . S
H2016 C2034 0.951 . S
H2017 C2036 0.951 . S
H2018 C2038 0.950 . S
H2019 C2039 0.950 . S
H2020 C2041 0.950 . S
H2021 C2044 0.950 . S
H2022 C2045 0.950 . S
H2023 C2047 0.950 . S
H2024 C2048 0.950 . S
H2025 C2049 0.951 . S
H2026 C2051 0.951 . S
H2027 C2053 0.950 . S
H2028 C2054 0.950 . S
H2029 C2056 0.950 1_556 S
H2030 C2059 0.950 . S
H2031 C2060 0.950 . S
H2032 C2062 0.950 . S
H2033 C2063 0.950 . S
C2034 H2016 0.951 . S
C2034 C2035 1.366 . S
C2034 C2036 1.388 . S
C2035 C2034 1.366 . S
C2035 C2039 1.385 . S
C2036 H2017 0.951 . S
C2036 C2034 1.388 . S
C2036 C2037 1.366 . S
C2037 C2036 1.366 . S
C2037 C2038 1.414 . S
C2037 C2040 1.499 . S
C2038 H2018 0.950 . S
C2038 C2037 1.414 . S
C2038 C2039 1.374 . S
C2039 H2019 0.950 . S
C2039 C2035 1.385 . S
C2039 C2038 1.374 . S
C2040 C2037 1.499 . S
C2040 C2041 1.373 . S
C2040 C2042 1.389 . S
C2041 H2020 0.950 . S
C2041 C2040 1.373 . S
C2041 C2057 1.377 . S
C2042 C2040 1.389 . S
C2042 C2043 1.524 . S
C2042 C2056 1.377 . S
C2043 C2042 1.524 . S
C2043 C2044 1.397 . S
C2043 C2048 1.363 . S
C2044 H2021 0.950 . S
C2044 C2043 1.397 . S
C2044 C2045 1.334 . S
C2045 H2022 0.950 . S
C2045 C2044 1.334 . S
C2045 C2046 1.287 . S
C2046 C2045 1.287 . S
C2046 C2047 1.524 . S
C2046 H2065 0.913 . S
C2047 H2023 0.950 . S
C2047 C2046 1.524 . S
C2047 C2048 1.415 . S
C2048 H2024 0.950 . S
C2048 C2043 1.363 . S
C2048 C2047 1.415 . S
C2049 H2025 0.951 . S
C2049 C2050 1.366 . S
C2049 C2051 1.388 . S
C2050 C2049 1.366 . S
C2050 C2054 1.385 . S
C2051 H2026 0.951 . S
C2051 C2049 1.388 . S
C2051 C2052 1.366 . S
C2052 C2051 1.366 . S
C2052 C2053 1.414 . S
C2052 C2055 1.499 . S
C2053 H2027 0.950 . S
C2053 C2052 1.414 . S
C2053 C2054 1.374 . S
C2054 H2028 0.950 . S
C2054 C2050 1.385 . S
C2054 C2053 1.374 . S
C2055 C2052 1.499 . S
C2055 C2056 1.373 1_556 S
C2055 C2057 1.389 1_556 S
C2056 H2029 0.950 1_554 S
C2056 C2042 1.377 . S
C2056 C2055 1.373 1_554 S
C2057 C2041 1.377 . S
C2057 C2055 1.389 1_554 S
C2057 C2058 1.524 1_554 S
C2058 C2057 1.524 1_556 S
C2058 C2059 1.397 . S
C2058 C2063 1.363 1_556 S
C2059 H2030 0.950 . S
C2059 C2058 1.397 . S
C2059 C2060 1.334 . S
C2060 H2031 0.950 . S
C2060 C2059 1.334 . S
C2060 C2061 1.287 . S
C2061 C2060 1.287 . S
C2061 C2062 1.524 . S
C2061 H2064 0.999 . S
C2062 H2032 0.950 . S
C2062 C2061 1.524 . S
C2062 C2063 1.415 1_556 S
C2063 H2033 0.950 . S
C2063 C2058 1.363 1_554 S
C2063 C2062 1.415 1_554 S
H2064 C2061 0.999 . S
H2065 C2046 0.913 . S
H2066 C2084 0.951 . S
H2067 C2086 0.951 . S
H2068 C2088 0.950 . S
H2069 C2089 0.950 . S
H2070 C2091 0.950 1_556 S
H2071 C2094 0.950 . S
H2072 C2095 0.950 . S
H2073 C2097 0.950 . S
H2074 C2098 0.981 . S
H2075 C2099 0.951 . S
H2076 C2101 0.951 . S
H2077 C2103 0.950 . S
H2078 C2104 0.950 . S
H2079 C2106 0.950 . S
H2080 C2109 0.950 . S
H2081 C2110 0.950 . S
H2082 C2112 0.950 . S
H2083 C2113 0.950 . S
C2084 H2066 0.951 . S
C2084 C2085 1.366 . S
C2084 C2086 1.388 . S
C2085 C2084 1.366 . S
C2085 C2089 1.385 . S
C2086 H2067 0.951 . S
C2086 C2084 1.388 . S
C2086 C2087 1.366 . S
C2087 C2086 1.366 . S
C2087 C2088 1.414 . S
C2087 C2090 1.499 . S
C2088 H2068 0.950 . S
C2088 C2087 1.414 . S
C2088 C2089 1.374 . S
C2089 H2069 0.950 . S
C2089 C2085 1.385 . S
C2089 C2088 1.374 . S
C2090 C2087 1.499 . S
C2090 C2091 1.373 1_556 S
C2090 C2092 1.389 1_556 S
C2091 H2070 0.950 1_554 S
C2091 C2090 1.373 1_554 S
C2091 C2107 1.377 . S
C2092 C2090 1.389 1_554 S
C2092 C2093 1.524 1_554 S
C2092 C2106 1.377 . S
C2093 C2092 1.524 1_556 S
C2093 C2094 1.397 . S
C2093 C2098 1.354 1_556 S
C2094 H2071 0.950 . S
C2094 C2093 1.397 . S
C2094 C2095 1.334 . S
C2095 H2072 0.950 . S
C2095 C2094 1.334 . S
C2095 C2096 1.287 . S
C2096 C2095 1.287 . S
C2096 C2097 1.524 . S
C2096 H2115 0.913 . S
C2097 H2073 0.950 . S
C2097 C2096 1.524 . S
C2097 C2098 1.396 1_556 S
C2098 H2074 0.981 . S
C2098 C2093 1.354 1_554 S
C2098 C2097 1.396 1_554 S
C2099 H2075 0.951 . S
C2099 C2100 1.366 . S
C2099 C2101 1.388 . S
C2100 C2099 1.366 . S
C2100 C2104 1.385 . S
C2101 H2076 0.951 . S
C2101 C2099 1.388 . S
C2101 C2102 1.366 . S
C2102 C2101 1.366 . S
C2102 C2103 1.414 . S
C2102 C2105 1.499 . S
C2103 H2077 0.950 . S
C2103 C2102 1.414 . S
C2103 C2104 1.374 . S
C2104 H2078 0.950 . S
C2104 C2100 1.385 . S
C2104 C2103 1.374 . S
C2105 C2102 1.499 . S
C2105 C2106 1.373 . S
C2105 C2107 1.389 . S
C2106 H2079 0.950 . S
C2106 C2092 1.377 . S
C2106 C2105 1.373 . S
C2107 C2091 1.377 . S
C2107 C2105 1.389 . S
C2107 C2108 1.524 . S
C2108 C2107 1.524 . S
C2108 C2109 1.397 . S
C2108 C2113 1.363 . S
C2109 H2080 0.950 . S
C2109 C2108 1.397 . S
C2109 C2110 1.334 . S
C2110 H2081 0.950 . S
C2110 C2109 1.334 . S
C2110 C2111 1.287 . S
C2111 C2110 1.287 . S
C2111 C2112 1.524 . S
C2111 H2114 0.999 . S
C2112 H2082 0.950 . S
C2112 C2111 1.524 . S
C2112 C2113 1.415 . S
C2113 H2083 0.950 . S
C2113 C2108 1.363 . S
C2113 C2112 1.415 . S
H2114 C2111 0.999 . S
H2115 C2096 0.913 . S
H2116 C2134 0.951 . S
H2117 C2136 0.951 . S
H2118 C2138 0.950 . S
H2119 C2139 0.950 . S
H2120 C2141 0.950 . S
H2121 C2144 0.950 . S
H2122 C2145 0.950 . S
H2123 C2147 0.950 . S
H2124 C2148 0.950 . S
H2125 C2149 0.951 . S
H2126 C2151 0.951 . S
H2127 C2153 0.950 . S
H2128 C2154 0.950 . S
H2129 C2156 0.950 1_556 S
H2130 C2159 0.950 . S
H2131 C2160 0.950 . S
H2132 C2162 0.944 1_554 S
H2133 C2163 0.950 . S
C2134 H2116 0.951 . S
C2134 C2135 1.366 . S
C2134 C2136 1.388 . S
C2135 C2134 1.366 . S
C2135 C2139 1.385 . S
C2136 H2117 0.951 . S
C2136 C2134 1.388 . S
C2136 C2137 1.366 . S
C2137 C2136 1.366 . S
C2137 C2138 1.414 . S
C2137 C2140 1.499 . S
C2138 H2118 0.950 . S
C2138 C2137 1.414 . S
C2138 C2139 1.374 . S
C2139 H2119 0.950 . S
C2139 C2135 1.385 . S
C2139 C2138 1.374 . S
C2140 C2137 1.499 . S
C2140 C2141 1.373 . S
C2140 C2142 1.389 . S
C2141 H2120 0.950 . S
C2141 C2140 1.373 . S
C2141 C2157 1.377 . S
C2142 C2140 1.389 . S
C2142 C2143 1.524 . S
C2142 C2156 1.377 . S
C2143 C2142 1.524 . S
C2143 C2144 1.397 . S
C2143 C2148 1.363 . S
C2144 H2121 0.950 . S
C2144 C2143 1.397 . S
C2144 C2145 1.334 . S
C2145 H2122 0.950 . S
C2145 C2144 1.334 . S
C2145 C2146 1.287 . S
C2146 C2145 1.287 . S
C2146 C2147 1.524 . S
C2146 H2165 0.913 . S
C2147 H2123 0.950 . S
C2147 C2146 1.524 . S
C2147 C2148 1.415 . S
C2148 H2124 0.950 . S
C2148 C2143 1.363 . S
C2148 C2147 1.415 . S
C2149 H2125 0.951 . S
C2149 C2150 1.366 . S
C2149 C2151 1.388 . S
C2150 C2149 1.366 . S
C2150 C2154 1.385 . S
C2151 H2126 0.951 . S
C2151 C2149 1.388 . S
C2151 C2152 1.366 . S
C2152 C2151 1.366 . S
C2152 C2153 1.414 . S
C2152 C2155 1.499 . S
C2153 H2127 0.950 . S
C2153 C2152 1.414 . S
C2153 C2154 1.374 . S
C2154 H2128 0.950 . S
C2154 C2150 1.385 . S
C2154 C2153 1.374 . S
C2155 C2152 1.499 . S
C2155 C2156 1.373 1_556 S
C2155 C2157 1.389 1_556 S
C2156 H2129 0.950 1_554 S
C2156 C2142 1.377 . S
C2156 C2155 1.373 1_554 S
C2157 C2141 1.377 . S
C2157 C2155 1.389 1_554 S
C2157 C2158 1.509 1_554 S
C2158 C2157 1.509 1_556 S
C2158 C2159 1.422 . S
C2158 C2163 1.351 1_556 S
C2159 H2130 0.950 . S
C2159 C2158 1.422 . S
C2159 C2160 1.334 . S
C2160 H2131 0.950 . S
C2160 C2159 1.334 . S
C2160 C2161 1.287 . S
C2161 C2160 1.287 . S
C2161 C2162 1.524 . S
C2161 H2164 0.999 . S
C2162 H2132 0.944 1_556 S
C2162 C2161 1.524 . S
C2162 C2163 1.415 1_556 S
C2163 H2133 0.950 . S
C2163 C2158 1.351 1_554 S
C2163 C2162 1.415 1_554 S
H2164 C2161 0.999 . S
H2165 C2146 0.913 . S
H2166 C2184 0.951 . S
H2167 C2186 0.951 . S
H2168 C2188 0.950 . S
H2169 C2189 0.950 . S
H2170 C2191 0.932 1_556 S
H2171 C2194 0.950 . S
H2172 C2195 0.950 . S
H2173 C2197 0.950 . S
H2174 C2198 0.931 1_554 S
H2175 C2199 0.951 . S
H2176 C2201 0.951 . S
H2177 C2203 0.950 . S
H2178 C2204 0.950 . S
H2179 C2206 0.950 . S
H2180 C2209 0.950 . S
H2181 C2210 0.950 . S
H2182 C2212 0.950 . S
H2183 C2213 0.950 . S
C2184 H2166 0.951 . S
C2184 C2185 1.366 . S
C2184 C2186 1.388 . S
C2185 C2184 1.366 . S
C2185 C2189 1.385 . S
C2186 H2167 0.951 . S
C2186 C2184 1.388 . S
C2186 C2187 1.366 . S
C2187 C2186 1.366 . S
C2187 C2188 1.414 . S
C2187 C2190 1.499 . S
C2188 H2168 0.950 . S
C2188 C2187 1.414 . S
C2188 C2189 1.374 . S
C2189 H2169 0.950 . S
C2189 C2185 1.385 . S
C2189 C2188 1.374 . S
C2190 C2187 1.499 . S
C2190 C2191 1.373 1_556 S
C2190 C2192 1.389 1_556 S
C2191 H2170 0.932 1_554 S
C2191 C2190 1.373 1_554 S
C2191 C2207 1.377 . S
C2192 C2190 1.389 1_554 S
C2192 C2193 1.524 1_554 S
C2192 C2206 1.377 . S
C2193 C2192 1.524 1_556 S
C2193 C2194 1.397 . S
C2193 C2198 1.369 . S
C2194 H2171 0.950 . S
C2194 C2193 1.397 . S
C2194 C2195 1.334 . S
C2195 H2172 0.950 . S
C2195 C2194 1.334 . S
C2195 C2196 1.287 . S
C2196 C2195 1.287 . S
C2196 C2197 1.524 . S
C2196 H2215 0.913 . S
C2197 H2173 0.950 . S
C2197 C2196 1.524 . S
C2197 C2198 1.428 . S
C2198 H2174 0.931 1_556 S
C2198 C2193 1.369 . S
C2198 C2197 1.428 . S
C2199 H2175 0.951 . S
C2199 C2200 1.366 . S
C2199 C2201 1.388 . S
C2200 C2199 1.366 . S
C2200 C2204 1.385 . S
C2201 H2176 0.951 . S
C2201 C2199 1.388 . S
C2201 C2202 1.366 . S
C2202 C2201 1.366 . S
C2202 C2203 1.414 . S
C2202 C2205 1.499 . S
C2203 H2177 0.950 . S
C2203 C2202 1.414 . S
C2203 C2204 1.374 . S
C2204 H2178 0.950 . S
C2204 C2200 1.385 . S
C2204 C2203 1.374 . S
C2205 C2202 1.499 . S
C2205 C2206 1.373 . S
C2205 C2207 1.389 . S
C2206 H2179 0.950 . S
C2206 C2192 1.377 . S
C2206 C2205 1.373 . S
C2207 C2191 1.377 . S
C2207 C2205 1.389 . S
C2207 C2208 1.524 . S
C2208 C2207 1.524 . S
C2208 C2209 1.397 . S
C2208 C2213 1.363 . S
C2209 H2180 0.950 . S
C2209 C2208 1.397 . S
C2209 C2210 1.334 . S
C2210 H2181 0.950 . S
C2210 C2209 1.334 . S
C2210 C2211 1.287 . S
C2211 C2210 1.287 . S
C2211 C2212 1.524 . S
C2211 H2214 0.999 . S
C2212 H2182 0.950 . S
C2212 C2211 1.524 . S
C2212 C2213 1.415 . S
C2213 H2183 0.950 . S
C2213 C2208 1.363 . S
C2213 C2212 1.415 . S
H2214 C2211 0.999 . S
H2215 C2196 0.913 . S
H2216 C2234 0.951 . S
H2217 C2236 0.951 . S
H2218 C2238 0.950 . S
H2219 C2239 0.950 . S
H2220 C2241 0.950 . S
H2221 C2244 0.950 . S
H2222 C2245 0.950 . S
H2223 C2247 0.950 . S
H2224 C2248 0.950 . S
H2225 C2249 0.951 . S
H2226 C2251 0.951 . S
H2227 C2253 0.950 . S
H2228 C2254 0.950 . S
H2229 C2256 0.950 1_455 S
H2230 C2259 0.950 . S
H2231 C2260 0.950 . S
H2232 C2262 0.940 1_655 S
H2233 C2263 0.950 . S
C2234 H2216 0.951 . S
C2234 C2235 1.366 . S
C2234 C2236 1.388 . S
C2235 C2234 1.366 . S
C2235 C2239 1.385 . S
C2236 H2217 0.951 . S
C2236 C2234 1.388 . S
C2236 C2237 1.366 . S
C2237 C2236 1.366 . S
C2237 C2238 1.414 . S
C2237 C2240 1.499 . S
C2238 H2218 0.950 . S
C2238 C2237 1.414 . S
C2238 C2239 1.374 . S
C2239 H2219 0.950 . S
C2239 C2235 1.385 . S
C2239 C2238 1.374 . S
C2240 C2237 1.499 . S
C2240 C2241 1.373 . S
C2240 C2242 1.389 . S
C2241 H2220 0.950 . S
C2241 C2240 1.373 . S
C2241 C2257 1.377 . S
C2242 C2240 1.389 . S
C2242 C2243 1.524 . S
C2242 C2256 1.377 . S
C2243 C2242 1.524 . S
C2243 C2244 1.397 . S
C2243 C2248 1.363 . S
C2244 H2221 0.950 . S
C2244 C2243 1.397 . S
C2244 C2245 1.334 . S
C2245 H2222 0.950 . S
C2245 C2244 1.334 . S
C2245 C2246 1.287 . S
C2246 C2245 1.287 . S
C2246 C2247 1.524 . S
C2246 H2265 0.913 . S
C2247 H2223 0.950 . S
C2247 C2246 1.524 . S
C2247 C2248 1.415 . S
C2248 H2224 0.950 . S
C2248 C2243 1.363 . S
C2248 C2247 1.415 . S
C2249 H2225 0.951 . S
C2249 C2250 1.366 . S
C2249 C2251 1.388 . S
C2250 C2249 1.366 . S
C2250 C2254 1.385 . S
C2251 H2226 0.951 . S
C2251 C2249 1.388 . S
C2251 C2252 1.366 . S
C2252 C2251 1.366 . S
C2252 C2253 1.414 . S
C2252 C2255 1.499 . S
C2253 H2227 0.950 . S
C2253 C2252 1.414 . S
C2253 C2254 1.374 . S
C2254 H2228 0.950 . S
C2254 C2250 1.385 . S
C2254 C2253 1.374 . S
C2255 C2252 1.499 . S
C2255 C2256 1.373 1_455 S
C2255 C2257 1.389 1_455 S
C2256 H2229 0.950 1_655 S
C2256 C2242 1.377 . S
C2256 C2255 1.373 1_655 S
C2257 C2241 1.377 . S
C2257 C2255 1.389 1_655 S
C2257 C2258 1.524 1_655 S
C2258 C2257 1.524 1_455 S
C2258 C2259 1.397 . S
C2258 C2263 1.363 1_455 S
C2259 H2230 0.950 . S
C2259 C2258 1.397 . S
C2259 C2260 1.334 . S
C2260 H2231 0.950 . S
C2260 C2259 1.334 . S
C2260 C2261 1.287 . S
C2261 C2260 1.287 . S
C2261 C2262 1.524 . S
C2261 H2264 0.999 . S
C2262 H2232 0.940 1_455 S
C2262 C2261 1.524 . S
C2262 C2263 1.415 1_455 S
C2263 H2233 0.950 . S
C2263 C2258 1.363 1_655 S
C2263 C2262 1.415 1_655 S
H2264 C2261 0.999 . S
H2265 C2246 0.913 . S
H2266 C2284 0.951 . S
H2267 C2286 0.951 . S
H2268 C2288 0.950 . S
H2269 C2289 0.950 . S
H2270 C2291 0.950 . S
H2271 C2294 0.950 . S
H2272 C2295 0.950 . S
H2273 C2297 0.950 . S
H2274 C2298 0.950 . S
H2275 C2299 0.951 . S
H2276 C2301 0.951 . S
H2277 C2303 0.950 . S
H2278 C2304 0.950 . S
H2279 C2306 0.950 1_455 S
H2280 C2309 0.950 . S
H2281 C2310 0.950 . S
H2282 C2312 0.950 . S
H2283 C2313 0.950 . S
C2284 H2266 0.951 . S
C2284 C2285 1.366 . S
C2284 C2286 1.388 . S
C2285 C2284 1.366 . S
C2285 C2289 1.385 . S
C2286 H2267 0.951 . S
C2286 C2284 1.388 . S
C2286 C2287 1.366 . S
C2287 C2286 1.366 . S
C2287 C2288 1.414 . S
C2287 C2290 1.499 . S
C2288 H2268 0.950 . S
C2288 C2287 1.414 . S
C2288 C2289 1.374 . S
C2289 H2269 0.950 . S
C2289 C2285 1.385 . S
C2289 C2288 1.374 . S
C2290 C2287 1.499 . S
C2290 C2291 1.373 . S
C2290 C2292 1.389 . S
C2291 H2270 0.950 . S
C2291 C2290 1.373 . S
C2291 C2307 1.377 . S
C2292 C2290 1.389 . S
C2292 C2293 1.524 . S
C2292 C2306 1.377 . S
C2293 C2292 1.524 . S
C2293 C2294 1.397 . S
C2293 C2298 1.363 . S
C2294 H2271 0.950 . S
C2294 C2293 1.397 . S
C2294 C2295 1.334 . S
C2295 H2272 0.950 . S
C2295 C2294 1.334 . S
C2295 C2296 1.287 . S
C2296 C2295 1.287 . S
C2296 C2297 1.524 . S
C2296 H2315 0.913 . S
C2297 H2273 0.950 . S
C2297 C2296 1.524 . S
C2297 C2298 1.415 . S
C2298 H2274 0.950 . S
C2298 C2293 1.363 . S
C2298 C2297 1.415 . S
C2299 H2275 0.951 . S
C2299 C2300 1.366 . S
C2299 C2301 1.388 . S
C2300 C2299 1.366 . S
C2300 C2304 1.385 . S
C2301 H2276 0.951 . S
C2301 C2299 1.388 . S
C2301 C2302 1.366 . S
C2302 C2301 1.366 . S
C2302 C2303 1.414 . S
C2302 C2305 1.499 . S
C2303 H2277 0.950 . S
C2303 C2302 1.414 . S
C2303 C2304 1.374 . S
C2304 H2278 0.950 . S
C2304 C2300 1.385 . S
C2304 C2303 1.374 . S
C2305 C2302 1.499 . S
C2305 C2306 1.373 1_455 S
C2305 C2307 1.389 1_455 S
C2306 H2279 0.950 1_655 S
C2306 C2292 1.377 . S
C2306 C2305 1.373 1_655 S
C2307 C2291 1.377 . S
C2307 C2305 1.389 1_655 S
C2307 C2308 1.524 1_655 S
C2308 C2307 1.524 1_455 S
C2308 C2309 1.397 . S
C2308 C2313 1.363 1_455 S
C2309 H2280 0.950 . S
C2309 C2308 1.397 . S
C2309 C2310 1.334 . S
C2310 H2281 0.950 . S
C2310 C2309 1.334 . S
C2310 C2311 1.287 . S
C2311 C2310 1.287 . S
C2311 C2312 1.524 . S
C2311 H2314 0.999 . S
C2312 H2282 0.950 . S
C2312 C2311 1.524 . S
C2312 C2313 1.415 1_455 S
C2313 H2283 0.950 . S
C2313 C2308 1.363 1_655 S
C2313 C2312 1.415 1_655 S
H2314 C2311 0.999 . S
H2315 C2296 0.913 . S
H2316 C2334 0.951 . S
H2317 C2336 0.951 . S
H2318 C2338 0.950 . S
H2319 C2339 0.950 . S
H2320 C2341 0.950 1_545 S
H2321 C2344 0.950 . S
H2322 C2345 0.950 . S
H2323 C2347 0.949 1_565 S
H2324 C2348 0.950 . S
H2325 C2349 0.951 . S
H2326 C2351 0.951 . S
H2327 C2353 0.950 . S
H2328 C2354 0.950 . S
H2329 C2356 0.950 . S
H2330 C2359 0.950 . S
H2331 C2360 0.950 . S
H2332 C2362 0.950 . S
H2333 C2363 0.950 . S
C2334 H2316 0.951 . S
C2334 C2335 1.366 . S
C2334 C2336 1.388 . S
C2335 C2334 1.366 . S
C2335 C2339 1.385 . S
C2336 H2317 0.951 . S
C2336 C2334 1.388 . S
C2336 C2337 1.366 . S
C2337 C2336 1.366 . S
C2337 C2338 1.414 . S
C2337 C2340 1.499 . S
C2338 H2318 0.950 . S
C2338 C2337 1.414 . S
C2338 C2339 1.374 . S
C2339 H2319 0.950 . S
C2339 C2335 1.385 . S
C2339 C2338 1.374 . S
C2340 C2337 1.499 . S
C2340 C2341 1.373 1_545 S
C2340 C2342 1.389 1_545 S
C2341 H2320 0.950 1_565 S
C2341 C2340 1.373 1_565 S
C2341 C2357 1.377 . S
C2342 C2340 1.389 1_565 S
C2342 C2343 1.524 1_565 S
C2342 C2356 1.377 . S
C2343 C2342 1.524 1_545 S
C2343 C2344 1.397 . S
C2343 C2348 1.363 1_545 S
C2344 H2321 0.950 . S
C2344 C2343 1.397 . S
C2344 C2345 1.334 . S
C2345 H2322 0.950 . S
C2345 C2344 1.334 . S
C2345 C2346 1.287 . S
C2346 C2345 1.287 . S
C2346 C2347 1.524 . S
C2346 H2365 0.913 . S
C2347 H2323 0.949 1_545 S
C2347 C2346 1.524 . S
C2347 C2348 1.415 1_545 S
C2348 H2324 0.950 . S
C2348 C2343 1.363 1_565 S
C2348 C2347 1.415 1_565 S
C2349 H2325 0.951 . S
C2349 C2350 1.366 . S
C2349 C2351 1.388 . S
C2350 C2349 1.366 . S
C2350 C2354 1.385 . S
C2351 H2326 0.951 . S
C2351 C2349 1.388 . S
C2351 C2352 1.366 . S
C2352 C2351 1.366 . S
C2352 C2353 1.414 . S
C2352 C2355 1.499 . S
C2353 H2327 0.950 . S
C2353 C2352 1.414 . S
C2353 C2354 1.374 . S
C2354 H2328 0.950 . S
C2354 C2350 1.385 . S
C2354 C2353 1.374 . S
C2355 C2352 1.499 . S
C2355 C2356 1.373 . S
C2355 C2357 1.389 . S
C2356 H2329 0.950 . S
C2356 C2342 1.377 . S
C2356 C2355 1.373 . S
C2357 C2341 1.377 . S
C2357 C2355 1.389 . S
C2357 C2358 1.524 . S
C2358 C2357 1.524 . S
C2358 C2359 1.397 . S
C2358 C2363 1.363 . S
C2359 H2330 0.950 . S
C2359 C2358 1.397 . S
C2359 C2360 1.334 . S
C2360 H2331 0.950 . S
C2360 C2359 1.334 . S
C2360 C2361 1.287 . S
C2361 C2360 1.287 . S
C2361 C2362 1.524 . S
C2361 H2364 0.999 . S
C2362 H2332 0.950 . S
C2362 C2361 1.524 . S
C2362 C2363 1.415 . S
C2363 H2333 0.950 . S
C2363 C2358 1.363 . S
C2363 C2362 1.415 . S
H2364 C2361 0.999 . S
H2365 C2346 0.913 . S
H2366 C2384 0.951 . S
H2367 C2386 0.951 . S
H2368 C2388 0.950 . S
H2369 C2389 0.950 . S
H2370 C2391 0.929 1_655 S
H2371 C2394 0.950 . S
H2372 C2395 0.950 . S
H2373 C2397 0.950 . S
H2374 C2398 0.937 1_455 S
H2375 C2399 0.951 . S
H2376 C2401 0.951 . S
H2377 C2403 0.950 . S
H2378 C2404 0.950 . S
H2379 C2406 0.950 . S
H2380 C2409 0.950 . S
H2381 C2410 0.950 . S
H2382 C2412 0.950 . S
H2383 C2413 0.950 . S
C2384 H2366 0.951 . S
C2384 C2385 1.366 . S
C2384 C2386 1.388 . S
C2385 C2384 1.366 . S
C2385 C2389 1.385 . S
C2386 H2367 0.951 . S
C2386 C2384 1.388 . S
C2386 C2387 1.366 . S
C2387 C2386 1.366 . S
C2387 C2388 1.414 . S
C2387 C2390 1.499 . S
C2388 H2368 0.950 . S
C2388 C2387 1.414 . S
C2388 C2389 1.374 . S
C2389 H2369 0.950 . S
C2389 C2385 1.385 . S
C2389 C2388 1.374 . S
C2390 C2387 1.499 . S
C2390 C2391 1.373 1_655 S
C2390 C2392 1.389 1_655 S
C2391 H2370 0.929 1_455 S
C2391 C2390 1.373 1_455 S
C2391 C2407 1.377 . S
C2392 C2390 1.389 1_455 S
C2392 C2393 1.524 1_455 S
C2392 C2406 1.377 . S
C2393 C2392 1.524 1_655 S
C2393 C2394 1.397 . S
C2393 C2398 1.367 . S
C2394 H2371 0.950 . S
C2394 C2393 1.397 . S
C2394 C2395 1.334 . S
C2395 H2372 0.950 . S
C2395 C2394 1.334 . S
C2395 C2396 1.287 . S
C2396 C2395 1.287 . S
C2396 C2397 1.524 . S
C2396 H2415 0.913 . S
C2397 H2373 0.950 . S
C2397 C2396 1.524 . S
C2397 C2398 1.424 . S
C2398 H2374 0.937 1_655 S
C2398 C2393 1.367 . S
C2398 C2397 1.424 . S
C2399 H2375 0.951 . S
C2399 C2400 1.366 . S
C2399 C2401 1.388 . S
C2400 C2399 1.366 . S
C2400 C2404 1.385 . S
C2401 H2376 0.951 . S
C2401 C2399 1.388 . S
C2401 C2402 1.366 . S
C2402 C2401 1.366 . S
C2402 C2403 1.414 . S
C2402 C2405 1.499 . S
C2403 H2377 0.950 . S
C2403 C2402 1.414 . S
C2403 C2404 1.374 . S
C2404 H2378 0.950 . S
C2404 C2400 1.385 . S
C2404 C2403 1.374 . S
C2405 C2402 1.499 . S
C2405 C2406 1.373 . S
C2405 C2407 1.389 . S
C2406 H2379 0.950 . S
C2406 C2392 1.377 . S
C2406 C2405 1.373 . S
C2407 C2391 1.377 . S
C2407 C2405 1.389 . S
C2407 C2408 1.524 . S
C2408 C2407 1.524 . S
C2408 C2409 1.397 . S
C2408 C2413 1.363 . S
C2409 H2380 0.950 . S
C2409 C2408 1.397 . S
C2409 C2410 1.334 . S
C2410 H2381 0.950 . S
C2410 C2409 1.334 . S
C2410 C2411 1.287 . S
C2411 C2410 1.287 . S
C2411 C2412 1.524 . S
C2411 H2414 0.999 . S
C2412 H2382 0.950 . S
C2412 C2411 1.524 . S
C2412 C2413 1.415 . S
C2413 H2383 0.950 . S
C2413 C2408 1.363 . S
C2413 C2412 1.415 . S
H2414 C2411 0.999 . S
H2415 C2396 0.913 . S
H2416 C2434 0.951 . S
H2417 C2436 0.951 . S
H2418 C2438 0.950 . S
H2419 C2439 0.950 . S
H2420 C2441 0.950 . S
H2421 C2444 0.950 . S
H2422 C2445 0.950 . S
H2423 C2447 0.950 . S
H2424 C2448 0.950 . S
H2425 C2449 0.951 . S
H2426 C2451 0.951 . S
H2427 C2453 0.950 . S
H2428 C2454 0.950 . S
H2429 C2456 0.950 1_565 S
H2430 C2459 0.950 . S
H2431 C2460 0.950 . S
H2432 C2462 0.950 . S
H2433 C2463 0.950 . S
C2434 H2416 0.951 . S
C2434 C2435 1.366 . S
C2434 C2436 1.388 . S
C2435 C2434 1.366 . S
C2435 C2439 1.385 . S
C2436 H2417 0.951 . S
C2436 C2434 1.388 . S
C2436 C2437 1.366 . S
C2437 C2436 1.366 . S
C2437 C2438 1.414 . S
C2437 C2440 1.499 . S
C2438 H2418 0.950 . S
C2438 C2437 1.414 . S
C2438 C2439 1.374 . S
C2439 H2419 0.950 . S
C2439 C2435 1.385 . S
C2439 C2438 1.374 . S
C2440 C2437 1.499 . S
C2440 C2441 1.373 . S
C2440 C2442 1.389 . S
C2441 H2420 0.950 . S
C2441 C2440 1.373 . S
C2441 C2457 1.377 . S
C2442 C2440 1.389 . S
C2442 C2443 1.524 . S
C2442 C2456 1.377 . S
C2443 C2442 1.524 . S
C2443 C2444 1.397 . S
C2443 C2448 1.363 . S
C2444 H2421 0.950 . S
C2444 C2443 1.397 . S
C2444 C2445 1.334 . S
C2445 H2422 0.950 . S
C2445 C2444 1.334 . S
C2445 C2446 1.287 . S
C2446 C2445 1.287 . S
C2446 C2447 1.524 . S
C2446 H2465 0.913 . S
C2447 H2423 0.950 . S
C2447 C2446 1.524 . S
C2447 C2448 1.415 . S
C2448 H2424 0.950 . S
C2448 C2443 1.363 . S
C2448 C2447 1.415 . S
C2449 H2425 0.951 . S
C2449 C2450 1.366 . S
C2449 C2451 1.388 . S
C2450 C2449 1.366 . S
C2450 C2454 1.385 . S
C2451 H2426 0.951 . S
C2451 C2449 1.388 . S
C2451 C2452 1.366 . S
C2452 C2451 1.366 . S
C2452 C2453 1.414 . S
C2452 C2455 1.499 . S
C2453 H2427 0.950 . S
C2453 C2452 1.414 . S
C2453 C2454 1.374 . S
C2454 H2428 0.950 . S
C2454 C2450 1.385 . S
C2454 C2453 1.374 . S
C2455 C2452 1.499 . S
C2455 C2456 1.373 1_565 S
C2455 C2457 1.389 1_565 S
C2456 H2429 0.950 1_545 S
C2456 C2442 1.377 . S
C2456 C2455 1.373 1_545 S
C2457 C2441 1.377 . S
C2457 C2455 1.389 1_545 S
C2457 C2458 1.524 1_545 S
C2458 C2457 1.524 1_565 S
C2458 C2459 1.397 . S
C2458 C2463 1.363 1_565 S
C2459 H2430 0.950 . S
C2459 C2458 1.397 . S
C2459 C2460 1.334 . S
C2460 H2431 0.950 . S
C2460 C2459 1.334 . S
C2460 C2461 1.287 . S
C2461 C2460 1.287 . S
C2461 C2462 1.524 . S
C2461 H2464 0.999 . S
C2462 H2432 0.950 . S
C2462 C2461 1.524 . S
C2462 C2463 1.415 1_565 S
C2463 H2433 0.950 . S
C2463 C2458 1.363 1_545 S
C2463 C2462 1.415 1_545 S
H2464 C2461 0.999 . S
H2465 C2446 0.913 . S
H2466 C2484 0.951 . S
H2467 C2486 0.951 . S
H2468 C2488 0.950 . S
H2469 C2489 0.950 . S
H2470 C2491 0.950 . S
H2471 C2494 0.950 . S
H2472 C2495 0.950 . S
H2473 C2497 0.950 . S
H2474 C2498 0.950 . S
H2475 C2499 0.951 . S
H2476 C2501 0.951 . S
H2477 C2503 0.950 . S
H2478 C2504 0.950 . S
H2479 C2506 0.950 1_655 S
H2480 C2509 0.950 . S
H2481 C2510 0.950 . S
H2482 C2512 0.964 . S
H2483 C2513 0.950 . S
C2484 H2466 0.951 . S
C2484 C2485 1.366 . S
C2484 C2486 1.388 . S
C2485 C2484 1.366 . S
C2485 C2489 1.385 . S
C2486 H2467 0.951 . S
C2486 C2484 1.388 . S
C2486 C2487 1.366 . S
C2487 C2486 1.366 . S
C2487 C2488 1.414 . S
C2487 C2490 1.499 . S
C2488 H2468 0.950 . S
C2488 C2487 1.414 . S
C2488 C2489 1.374 . S
C2489 H2469 0.950 . S
C2489 C2485 1.385 . S
C2489 C2488 1.374 . S
C2490 C2487 1.499 . S
C2490 C2491 1.373 . S
C2490 C2492 1.389 . S
C2491 H2470 0.950 . S
C2491 C2490 1.373 . S
C2491 C2507 1.377 . S
C2492 C2490 1.389 . S
C2492 C2493 1.524 . S
C2492 C2506 1.377 . S
C2493 C2492 1.524 . S
C2493 C2494 1.397 . S
C2493 C2498 1.363 . S
C2494 H2471 0.950 . S
C2494 C2493 1.397 . S
C2494 C2495 1.334 . S
C2495 H2472 0.950 . S
C2495 C2494 1.334 . S
C2495 C2496 1.287 . S
C2496 C2495 1.287 . S
C2496 C2497 1.524 . S
C2496 H2515 0.913 . S
C2497 H2473 0.950 . S
C2497 C2496 1.524 . S
C2497 C2498 1.415 . S
C2498 H2474 0.950 . S
C2498 C2493 1.363 . S
C2498 C2497 1.415 . S
C2499 H2475 0.951 . S
C2499 C2500 1.366 . S
C2499 C2501 1.388 . S
C2500 C2499 1.366 . S
C2500 C2504 1.385 . S
C2501 H2476 0.951 . S
C2501 C2499 1.388 . S
C2501 C2502 1.366 . S
C2502 C2501 1.366 . S
C2502 C2503 1.414 . S
C2502 C2505 1.499 . S
C2503 H2477 0.950 . S
C2503 C2502 1.414 . S
C2503 C2504 1.374 . S
C2504 H2478 0.950 . S
C2504 C2500 1.385 . S
C2504 C2503 1.374 . S
C2505 C2502 1.499 . S
C2505 C2506 1.373 1_655 S
C2505 C2507 1.389 1_655 S
C2506 H2479 0.950 1_455 S
C2506 C2492 1.377 . S
C2506 C2505 1.373 1_455 S
C2507 C2491 1.377 . S
C2507 C2505 1.389 1_455 S
C2507 C2508 1.524 1_455 S
C2508 C2507 1.524 1_655 S
C2508 C2509 1.397 . S
C2508 C2513 1.363 1_655 S
C2509 H2480 0.950 . S
C2509 C2508 1.397 . S
C2509 C2510 1.334 . S
C2510 H2481 0.950 . S
C2510 C2509 1.334 . S
C2510 C2511 1.287 . S
C2511 C2510 1.287 . S
C2511 C2512 1.524 . S
C2511 H2514 0.999 . S
C2512 H2482 0.964 . S
C2512 C2511 1.524 . S
C2512 C2513 1.415 1_655 S
C2513 H2483 0.950 . S
C2513 C2508 1.363 1_455 S
C2513 C2512 1.415 1_455 S
H2514 C2511 0.999 . S
H2515 C2496 0.913 . S
H2516 C2534 0.951 . S
H2517 C2536 0.951 . S
H2518 C2538 0.950 . S
H2519 C2539 0.950 . S
H2520 C2541 0.950 . S
H2521 C2544 0.950 . S
H2522 C2545 0.950 . S
H2523 C2547 0.950 . S
H2524 C2548 0.950 . S
H2525 C2549 0.951 . S
H2526 C2551 0.951 . S
H2527 C2553 0.950 . S
H2528 C2554 0.950 . S
H2529 C2556 0.950 1_565 S
H2530 C2559 0.950 . S
H2531 C2560 0.950 . S
H2532 C2562 0.950 . S
H2533 C2563 0.950 . S
C2534 H2516 0.951 . S
C2534 C2535 1.366 . S
C2534 C2536 1.388 . S
C2535 C2534 1.366 . S
C2535 C2539 1.385 . S
C2536 H2517 0.951 . S
C2536 C2534 1.388 . S
C2536 C2537 1.366 . S
C2537 C2536 1.366 . S
C2537 C2538 1.414 . S
C2537 C2540 1.499 . S
C2538 H2518 0.950 . S
C2538 C2537 1.414 . S
C2538 C2539 1.374 . S
C2539 H2519 0.950 . S
C2539 C2535 1.385 . S
C2539 C2538 1.374 . S
C2540 C2537 1.499 . S
C2540 C2541 1.373 . S
C2540 C2542 1.389 . S
C2541 H2520 0.950 . S
C2541 C2540 1.373 . S
C2541 C2557 1.377 . S
C2542 C2540 1.389 . S
C2542 C2543 1.524 . S
C2542 C2556 1.377 . S
C2543 C2542 1.524 . S
C2543 C2544 1.397 . S
C2543 C2548 1.363 . S
C2544 H2521 0.950 . S
C2544 C2543 1.397 . S
C2544 C2545 1.334 . S
C2545 H2522 0.950 . S
C2545 C2544 1.334 . S
C2545 C2546 1.287 . S
C2546 C2545 1.287 . S
C2546 C2547 1.524 . S
C2546 H2565 0.913 . S
C2547 H2523 0.950 . S
C2547 C2546 1.524 . S
C2547 C2548 1.415 . S
C2548 H2524 0.950 . S
C2548 C2543 1.363 . S
C2548 C2547 1.415 . S
C2549 H2525 0.951 . S
C2549 C2550 1.366 . S
C2549 C2551 1.388 . S
C2550 C2549 1.366 . S
C2550 C2554 1.385 . S
C2551 H2526 0.951 . S
C2551 C2549 1.388 . S
C2551 C2552 1.366 . S
C2552 C2551 1.366 . S
C2552 C2553 1.414 . S
C2552 C2555 1.499 . S
C2553 H2527 0.950 . S
C2553 C2552 1.414 . S
C2553 C2554 1.374 . S
C2554 H2528 0.950 . S
C2554 C2550 1.385 . S
C2554 C2553 1.374 . S
C2555 C2552 1.499 . S
C2555 C2556 1.373 1_565 S
C2555 C2557 1.389 1_565 S
C2556 H2529 0.950 1_545 S
C2556 C2542 1.377 . S
C2556 C2555 1.373 1_545 S
C2557 C2541 1.377 . S
C2557 C2555 1.389 1_545 S
C2557 C2558 1.524 1_545 S
C2558 C2557 1.524 1_565 S
C2558 C2559 1.397 . S
C2558 C2563 1.363 1_565 S
C2559 H2530 0.950 . S
C2559 C2558 1.397 . S
C2559 C2560 1.334 . S
C2560 H2531 0.950 . S
C2560 C2559 1.334 . S
C2560 C2561 1.287 . S
C2561 C2560 1.287 . S
C2561 C2562 1.524 . S
C2561 H2564 0.999 . S
C2562 H2532 0.950 . S
C2562 C2561 1.524 . S
C2562 C2563 1.415 1_565 S
C2563 H2533 0.950 . S
C2563 C2558 1.363 1_545 S
C2563 C2562 1.415 1_545 S
H2564 C2561 0.999 . S
H2565 C2546 0.913 . S
H2566 C2584 0.951 . S
H2567 C2586 0.951 . S
H2568 C2588 0.950 . S
H2569 C2589 0.950 . S
H2570 C2591 0.950 1_545 S
H2571 C2594 0.950 . S
H2572 C2595 0.950 . S
H2573 C2597 0.950 1_565 S
H2574 C2598 0.950 . S
H2575 C2599 0.951 . S
H2576 C2601 0.951 . S
H2577 C2603 0.950 . S
H2578 C2604 0.950 . S
H2579 C2606 0.950 . S
H2580 C2609 0.950 . S
H2581 C2610 0.950 . S
H2582 C2612 0.950 . S
H2583 C2613 0.950 . S
C2584 H2566 0.951 . S
C2584 C2585 1.366 . S
C2584 C2586 1.388 . S
C2585 C2584 1.366 . S
C2585 C2589 1.385 . S
C2586 H2567 0.951 . S
C2586 C2584 1.388 . S
C2586 C2587 1.366 . S
C2587 C2586 1.366 . S
C2587 C2588 1.414 . S
C2587 C2590 1.499 . S
C2588 H2568 0.950 . S
C2588 C2587 1.414 . S
C2588 C2589 1.374 . S
C2589 H2569 0.950 . S
C2589 C2585 1.385 . S
C2589 C2588 1.374 . S
C2590 C2587 1.499 . S
C2590 C2591 1.373 1_545 S
C2590 C2592 1.389 1_545 S
C2591 H2570 0.950 1_565 S
C2591 C2590 1.373 1_565 S
C2591 C2607 1.377 . S
C2592 C2590 1.389 1_565 S
C2592 C2593 1.508 1_565 S
C2592 C2606 1.377 . S
C2593 C2592 1.508 1_545 S
C2593 C2594 1.424 . S
C2593 C2598 1.350 1_545 S
C2594 H2571 0.950 . S
C2594 C2593 1.424 . S
C2594 C2595 1.334 . S
C2595 H2572 0.950 . S
C2595 C2594 1.334 . S
C2595 C2596 1.287 . S
C2596 C2595 1.287 . S
C2596 C2597 1.524 . S
C2596 H2615 0.913 . S
C2597 H2573 0.950 1_545 S
C2597 C2596 1.524 . S
C2597 C2598 1.415 1_545 S
C2598 H2574 0.950 . S
C2598 C2593 1.350 1_565 S
C2598 C2597 1.415 1_565 S
C2599 H2575 0.951 . S
C2599 C2600 1.366 . S
C2599 C2601 1.388 . S
C2600 C2599 1.366 . S
C2600 C2604 1.385 . S
C2601 H2576 0.951 . S
C2601 C2599 1.388 . S
C2601 C2602 1.366 . S
C2602 C2601 1.366 . S
C2602 C2603 1.414 . S
C2602 C2605 1.499 . S
C2603 H2577 0.950 . S
C2603 C2602 1.414 . S
C2603 C2604 1.374 . S
C2604 H2578 0.950 . S
C2604 C2600 1.385 . S
C2604 C2603 1.374 . S
C2605 C2602 1.499 . S
C2605 C2606 1.373 . S
C2605 C2607 1.389 . S
C2606 H2579 0.950 . S
C2606 C2592 1.377 . S
C2606 C2605 1.373 . S
C2607 C2591 1.377 . S
C2607 C2605 1.389 . S
C2607 C2608 1.524 . S
C2608 C2607 1.524 . S
C2608 C2609 1.397 . S
C2608 C2613 1.363 . S
C2609 H2580 0.950 . S
C2609 C2608 1.397 . S
C2609 C2610 1.334 . S
C2610 H2581 0.950 . S
C2610 C2609 1.334 . S
C2610 C2611 1.287 . S
C2611 C2610 1.287 . S
C2611 C2612 1.524 . S
C2611 H2614 0.999 . S
C2612 H2582 0.950 . S
C2612 C2611 1.524 . S
C2612 C2613 1.415 . S
C2613 H2583 0.950 . S
C2613 C2608 1.363 . S
C2613 C2612 1.415 . S
H2614 C2611 0.999 . S
H2615 C2596 0.913 . S
H2616 C2634 0.951 . S
H2617 C2636 0.951 . S
H2618 C2638 0.950 . S
H2619 C2639 0.950 . S
H2620 C2641 0.950 . S
H2621 C2644 0.950 . S
H2622 C2645 0.950 . S
H2623 C2647 0.950 . S
H2624 C2648 0.950 . S
H2625 C2649 0.951 . S
H2626 C2651 0.951 . S
H2627 C2653 0.950 . S
H2628 C2654 0.950 . S
H2629 C2656 0.950 . S
H2630 C2659 0.950 . S
H2631 C2660 0.950 . S
H2632 C2662 0.950 . S
H2633 C2663 0.950 . S
C2634 H2616 0.951 . S
C2634 C2635 1.366 . S
C2634 C2636 1.388 . S
C2635 C2634 1.366 . S
C2635 C2639 1.385 . S
C2636 H2617 0.951 . S
C2636 C2634 1.388 . S
C2636 C2637 1.366 . S
C2637 C2636 1.366 . S
C2637 C2638 1.414 . S
C2637 C2640 1.499 . S
C2638 H2618 0.950 . S
C2638 C2637 1.414 . S
C2638 C2639 1.374 . S
C2639 H2619 0.950 . S
C2639 C2635 1.385 . S
C2639 C2638 1.374 . S
C2640 C2637 1.499 . S
C2640 C2641 1.373 . S
C2640 C2642 1.389 . S
C2641 H2620 0.950 . S
C2641 C2640 1.373 . S
C2641 C2657 1.377 . S
C2642 C2640 1.389 . S
C2642 C2643 1.524 . S
C2642 C2656 1.377 . S
C2643 C2642 1.524 . S
C2643 C2644 1.397 . S
C2643 C2648 1.363 . S
C2644 H2621 0.950 . S
C2644 C2643 1.397 . S
C2644 C2645 1.334 . S
C2645 H2622 0.950 . S
C2645 C2644 1.334 . S
C2645 C2646 1.287 . S
C2646 C2645 1.287 . S
C2646 C2647 1.524 . S
C2646 H2665 0.913 . S
C2647 H2623 0.950 . S
C2647 C2646 1.524 . S
C2647 C2648 1.415 . S
C2648 H2624 0.950 . S
C2648 C2643 1.363 . S
C2648 C2647 1.415 . S
C2649 H2625 0.951 . S
C2649 C2650 1.366 . S
C2649 C2651 1.388 . S
C2650 C2649 1.366 . S
C2650 C2654 1.385 . S
C2651 H2626 0.951 . S
C2651 C2649 1.388 . S
C2651 C2652 1.366 . S
C2652 C2651 1.366 . S
C2652 C2653 1.414 . S
C2652 C2655 1.499 . S
C2653 H2627 0.950 . S
C2653 C2652 1.414 . S
C2653 C2654 1.374 . S
C2654 H2628 0.950 . S
C2654 C2650 1.385 . S
C2654 C2653 1.374 . S
C2655 C2652 1.499 . S
C2655 C2656 1.373 . S
C2655 C2657 1.389 . S
C2656 H2629 0.950 . S
C2656 C2642 1.377 . S
C2656 C2655 1.373 . S
C2657 C2641 1.377 . S
C2657 C2655 1.389 . S
C2657 C2658 1.524 . S
C2658 C2657 1.524 . S
C2658 C2659 1.397 . S
C2658 C2663 1.363 . S
C2659 H2630 0.950 . S
C2659 C2658 1.397 . S
C2659 C2660 1.334 . S
C2660 H2631 0.950 . S
C2660 C2659 1.334 . S
C2660 C2661 1.287 . S
C2661 C2660 1.287 . S
C2661 C2662 1.524 . S
C2661 H2664 0.999 . S
C2662 H2632 0.950 . S
C2662 C2661 1.524 . S
C2662 C2663 1.415 . S
C2663 H2633 0.950 . S
C2663 C2658 1.363 . S
C2663 C2662 1.415 . S
H2664 C2661 0.999 . S
H2665 C2646 0.913 . S
H2666 C2684 0.951 . S
H2667 C2686 0.951 . S
H2668 C2688 0.950 . S
H2669 C2689 0.950 . S
H2670 C2691 0.950 . S
H2671 C2694 0.950 . S
H2672 C2695 0.950 . S
H2673 C2697 0.950 . S
H2674 C2698 0.950 . S
H2675 C2699 0.951 . S
H2676 C2701 0.951 . S
H2677 C2703 0.950 . S
H2678 C2704 0.950 . S
H2679 C2706 0.950 . S
H2680 C2709 0.950 . S
H2681 C2710 0.950 . S
H2682 C2712 0.950 . S
H2683 C2713 0.950 . S
C2684 H2666 0.951 . S
C2684 C2685 1.366 . S
C2684 C2686 1.388 . S
C2685 C2684 1.366 . S
C2685 C2689 1.385 . S
C2686 H2667 0.951 . S
C2686 C2684 1.388 . S
C2686 C2687 1.366 . S
C2687 C2686 1.366 . S
C2687 C2688 1.414 . S
C2687 C2690 1.499 . S
C2688 H2668 0.950 . S
C2688 C2687 1.414 . S
C2688 C2689 1.374 . S
C2689 H2669 0.950 . S
C2689 C2685 1.385 . S
C2689 C2688 1.374 . S
C2690 C2687 1.499 . S
C2690 C2691 1.373 . S
C2690 C2692 1.389 . S
C2691 H2670 0.950 . S
C2691 C2690 1.373 . S
C2691 C2707 1.377 . S
C2692 C2690 1.389 . S
C2692 C2693 1.524 . S
C2692 C2706 1.377 . S
C2693 C2692 1.524 . S
C2693 C2694 1.397 . S
C2693 C2698 1.363 . S
C2694 H2671 0.950 . S
C2694 C2693 1.397 . S
C2694 C2695 1.334 . S
C2695 H2672 0.950 . S
C2695 C2694 1.334 . S
C2695 C2696 1.287 . S
C2696 C2695 1.287 . S
C2696 C2697 1.524 . S
C2696 H2715 0.913 . S
C2697 H2673 0.950 . S
C2697 C2696 1.524 . S
C2697 C2698 1.415 . S
C2698 H2674 0.950 . S
C2698 C2693 1.363 . S
C2698 C2697 1.415 . S
C2699 H2675 0.951 . S
C2699 C2700 1.366 . S
C2699 C2701 1.388 . S
C2700 C2699 1.366 . S
C2700 C2704 1.385 . S
C2701 H2676 0.951 . S
C2701 C2699 1.388 . S
C2701 C2702 1.366 . S
C2702 C2701 1.366 . S
C2702 C2703 1.414 . S
C2702 C2705 1.499 . S
C2703 H2677 0.950 . S
C2703 C2702 1.414 . S
C2703 C2704 1.374 . S
C2704 H2678 0.950 . S
C2704 C2700 1.385 . S
C2704 C2703 1.374 . S
C2705 C2702 1.499 . S
C2705 C2706 1.373 . S
C2705 C2707 1.389 . S
C2706 H2679 0.950 . S
C2706 C2692 1.377 . S
C2706 C2705 1.373 . S
C2707 C2691 1.377 . S
C2707 C2705 1.389 . S
C2707 C2708 1.524 . S
C2708 C2707 1.524 . S
C2708 C2709 1.397 . S
C2708 C2713 1.363 . S
C2709 H2680 0.950 . S
C2709 C2708 1.397 . S
C2709 C2710 1.334 . S
C2710 H2681 0.950 . S
C2710 C2709 1.334 . S
C2710 C2711 1.287 . S
C2711 C2710 1.287 . S
C2711 C2712 1.524 . S
C2711 H2714 0.999 . S
C2712 H2682 0.950 . S
C2712 C2711 1.524 . S
C2712 C2713 1.415 . S
C2713 H2683 0.950 . S
C2713 C2708 1.363 . S
C2713 C2712 1.415 . S
H2714 C2711 0.999 . S
H2715 C2696 0.913 . S
H2716 C2734 0.951 . S
H2717 C2736 0.951 . S
H2718 C2738 0.950 . S
H2719 C2739 0.950 . S
H2720 C2741 0.950 . S
H2721 C2744 0.950 . S
H2722 C2745 0.950 . S
H2723 C2747 0.950 . S
H2724 C2748 0.950 . S
H2725 C2749 0.951 . S
H2726 C2751 0.951 . S
H2727 C2753 0.950 . S
H2728 C2754 0.950 . S
H2729 C2756 0.950 . S
H2730 C2759 0.950 . S
H2731 C2760 0.950 . S
H2732 C2762 0.950 . S
H2733 C2763 0.950 . S
C2734 H2716 0.951 . S
C2734 C2735 1.366 . S
C2734 C2736 1.388 . S
C2735 C2734 1.366 . S
C2735 C2739 1.385 . S
C2736 H2717 0.951 . S
C2736 C2734 1.388 . S
C2736 C2737 1.366 . S
C2737 C2736 1.366 . S
C2737 C2738 1.414 . S
C2737 C2740 1.499 . S
C2738 H2718 0.950 . S
C2738 C2737 1.414 . S
C2738 C2739 1.374 . S
C2739 H2719 0.950 . S
C2739 C2735 1.385 . S
C2739 C2738 1.374 . S
C2740 C2737 1.499 . S
C2740 C2741 1.373 . S
C2740 C2742 1.389 . S
C2741 H2720 0.950 . S
C2741 C2740 1.373 . S
C2741 C2757 1.377 . S
C2742 C2740 1.389 . S
C2742 C2743 1.524 . S
C2742 C2756 1.377 . S
C2743 C2742 1.524 . S
C2743 C2744 1.397 . S
C2743 C2748 1.363 . S
C2744 H2721 0.950 . S
C2744 C2743 1.397 . S
C2744 C2745 1.334 . S
C2745 H2722 0.950 . S
C2745 C2744 1.334 . S
C2745 C2746 1.287 . S
C2746 C2745 1.287 . S
C2746 C2747 1.524 . S
C2746 H2765 0.913 . S
C2747 H2723 0.950 . S
C2747 C2746 1.524 . S
C2747 C2748 1.415 . S
C2748 H2724 0.950 . S
C2748 C2743 1.363 . S
C2748 C2747 1.415 . S
C2749 H2725 0.951 . S
C2749 C2750 1.366 . S
C2749 C2751 1.388 . S
C2750 C2749 1.366 . S
C2750 C2754 1.385 . S
C2751 H2726 0.951 . S
C2751 C2749 1.388 . S
C2751 C2752 1.366 . S
C2752 C2751 1.366 . S
C2752 C2753 1.414 . S
C2752 C2755 1.499 . S
C2753 H2727 0.950 . S
C2753 C2752 1.414 . S
C2753 C2754 1.374 . S
C2754 H2728 0.950 . S
C2754 C2750 1.385 . S
C2754 C2753 1.374 . S
C2755 C2752 1.499 . S
C2755 C2756 1.373 . S
C2755 C2757 1.389 . S
C2756 H2729 0.950 . S
C2756 C2742 1.377 . S
C2756 C2755 1.373 . S
C2757 C2741 1.377 . S
C2757 C2755 1.389 . S
C2757 C2758 1.524 . S
C2758 C2757 1.524 . S
C2758 C2759 1.397 . S
C2758 C2763 1.363 . S
C2759 H2730 0.950 . S
C2759 C2758 1.397 . S
C2759 C2760 1.334 . S
C2760 H2731 0.950 . S
C2760 C2759 1.334 . S
C2760 C2761 1.287 . S
C2761 C2760 1.287 . S
C2761 C2762 1.524 . S
C2761 H2764 0.999 . S
C2762 H2732 0.950 . S
C2762 C2761 1.524 . S
C2762 C2763 1.415 . S
C2763 H2733 0.950 . S
C2763 C2758 1.363 . S
C2763 C2762 1.415 . S
H2764 C2761 0.999 . S
H2765 C2746 0.913 . S
H2766 C2784 0.951 . S
H2767 C2786 0.951 . S
H2768 C2788 0.950 . S
H2769 C2789 0.950 . S
H2770 C2791 0.950 . S
H2771 C2794 0.950 . S
H2772 C2795 0.950 . S
H2773 C2797 0.950 . S
H2774 C2798 0.950 . S
H2775 C2799 0.951 . S
H2776 C2801 0.951 . S
H2777 C2803 0.950 . S
H2778 C2804 0.950 . S
H2779 C2806 0.950 . S
H2780 C2809 0.950 . S
H2781 C2810 0.950 . S
H2782 C2812 0.950 . S
H2783 C2813 0.950 . S
C2784 H2766 0.951 . S
C2784 C2785 1.366 . S
C2784 C2786 1.388 . S
C2785 C2784 1.366 . S
C2785 C2789 1.385 . S
C2786 H2767 0.951 . S
C2786 C2784 1.388 . S
C2786 C2787 1.366 . S
C2787 C2786 1.366 . S
C2787 C2788 1.414 . S
C2787 C2790 1.499 . S
C2788 H2768 0.950 . S
C2788 C2787 1.414 . S
C2788 C2789 1.374 . S
C2789 H2769 0.950 . S
C2789 C2785 1.385 . S
C2789 C2788 1.374 . S
C2790 C2787 1.499 . S
C2790 C2791 1.373 . S
C2790 C2792 1.389 . S
C2791 H2770 0.950 . S
C2791 C2790 1.373 . S
C2791 C2807 1.377 . S
C2792 C2790 1.389 . S
C2792 C2793 1.524 . S
C2792 C2806 1.377 . S
C2793 C2792 1.524 . S
C2793 C2794 1.397 . S
C2793 C2798 1.363 . S
C2794 H2771 0.950 . S
C2794 C2793 1.397 . S
C2794 C2795 1.334 . S
C2795 H2772 0.950 . S
C2795 C2794 1.334 . S
C2795 C2796 1.287 . S
C2796 C2795 1.287 . S
C2796 C2797 1.524 . S
C2796 H2815 0.913 . S
C2797 H2773 0.950 . S
C2797 C2796 1.524 . S
C2797 C2798 1.415 . S
C2798 H2774 0.950 . S
C2798 C2793 1.363 . S
C2798 C2797 1.415 . S
C2799 H2775 0.951 . S
C2799 C2800 1.366 . S
C2799 C2801 1.388 . S
C2800 C2799 1.366 . S
C2800 C2804 1.385 . S
C2801 H2776 0.951 . S
C2801 C2799 1.388 . S
C2801 C2802 1.366 . S
C2802 C2801 1.366 . S
C2802 C2803 1.414 . S
C2802 C2805 1.499 . S
C2803 H2777 0.950 . S
C2803 C2802 1.414 . S
C2803 C2804 1.374 . S
C2804 H2778 0.950 . S
C2804 C2800 1.385 . S
C2804 C2803 1.374 . S
C2805 C2802 1.499 . S
C2805 C2806 1.373 . S
C2805 C2807 1.389 . S
C2806 H2779 0.950 . S
C2806 C2792 1.377 . S
C2806 C2805 1.373 . S
C2807 C2791 1.377 . S
C2807 C2805 1.389 . S
C2807 C2808 1.524 . S
C2808 C2807 1.524 . S
C2808 C2809 1.397 . S
C2808 C2813 1.363 . S
C2809 H2780 0.950 . S
C2809 C2808 1.397 . S
C2809 C2810 1.334 . S
C2810 H2781 0.950 . S
C2810 C2809 1.334 . S
C2810 C2811 1.287 . S
C2811 C2810 1.287 . S
C2811 C2812 1.524 . S
C2811 H2814 0.999 . S
C2812 H2782 0.950 . S
C2812 C2811 1.524 . S
C2812 C2813 1.415 . S
C2813 H2783 0.950 . S
C2813 C2808 1.363 . S
C2813 C2812 1.415 . S
H2814 C2811 0.999 . S
H2815 C2796 0.913 . S
H2816 C2834 0.951 . S
H2817 C2836 0.951 . S
H2818 C2838 0.950 . S
H2819 C2839 0.950 . S
H2820 C2841 0.950 . S
H2821 C2844 0.950 . S
H2822 C2845 0.950 . S
H2823 C2847 0.950 . S
H2824 C2848 0.950 . S
H2825 C2849 0.951 . S
H2826 C2851 0.951 . S
H2827 C2853 0.950 . S
H2828 C2854 0.950 . S
H2829 C2856 0.950 . S
H2830 C2859 0.950 . S
H2831 C2860 0.950 . S
H2832 C2862 0.950 . S
H2833 C2863 0.950 . S
C2834 H2816 0.951 . S
C2834 C2835 1.366 . S
C2834 C2836 1.388 . S
C2835 C2834 1.366 . S
C2835 C2839 1.385 . S
C2836 H2817 0.951 . S
C2836 C2834 1.388 . S
C2836 C2837 1.366 . S
C2837 C2836 1.366 . S
C2837 C2838 1.414 . S
C2837 C2840 1.499 . S
C2838 H2818 0.950 . S
C2838 C2837 1.414 . S
C2838 C2839 1.374 . S
C2839 H2819 0.950 . S
C2839 C2835 1.385 . S
C2839 C2838 1.374 . S
C2840 C2837 1.499 . S
C2840 C2841 1.373 . S
C2840 C2842 1.389 . S
C2841 H2820 0.950 . S
C2841 C2840 1.373 . S
C2841 C2857 1.377 . S
C2842 C2840 1.389 . S
C2842 C2843 1.524 . S
C2842 C2856 1.377 . S
C2843 C2842 1.524 . S
C2843 C2844 1.397 . S
C2843 C2848 1.363 . S
C2844 H2821 0.950 . S
C2844 C2843 1.397 . S
C2844 C2845 1.334 . S
C2845 H2822 0.950 . S
C2845 C2844 1.334 . S
C2845 C2846 1.287 . S
C2846 C2845 1.287 . S
C2846 C2847 1.524 . S
C2846 H2865 0.913 . S
C2847 H2823 0.950 . S
C2847 C2846 1.524 . S
C2847 C2848 1.415 . S
C2848 H2824 0.950 . S
C2848 C2843 1.363 . S
C2848 C2847 1.415 . S
C2849 H2825 0.951 . S
C2849 C2850 1.366 . S
C2849 C2851 1.388 . S
C2850 C2849 1.366 . S
C2850 C2854 1.385 . S
C2851 H2826 0.951 . S
C2851 C2849 1.388 . S
C2851 C2852 1.366 . S
C2852 C2851 1.366 . S
C2852 C2853 1.414 . S
C2852 C2855 1.499 . S
C2853 H2827 0.950 . S
C2853 C2852 1.414 . S
C2853 C2854 1.374 . S
C2854 H2828 0.950 . S
C2854 C2850 1.385 . S
C2854 C2853 1.374 . S
C2855 C2852 1.499 . S
C2855 C2856 1.373 . S
C2855 C2857 1.389 . S
C2856 H2829 0.950 . S
C2856 C2842 1.377 . S
C2856 C2855 1.373 . S
C2857 C2841 1.377 . S
C2857 C2855 1.389 . S
C2857 C2858 1.524 . S
C2858 C2857 1.524 . S
C2858 C2859 1.397 . S
C2858 C2863 1.363 . S
C2859 H2830 0.950 . S
C2859 C2858 1.397 . S
C2859 C2860 1.334 . S
C2860 H2831 0.950 . S
C2860 C2859 1.334 . S
C2860 C2861 1.287 . S
C2861 C2860 1.287 . S
C2861 C2862 1.524 . S
C2861 H2864 0.999 . S
C2862 H2832 0.950 . S
C2862 C2861 1.524 . S
C2862 C2863 1.415 . S
C2863 H2833 0.950 . S
C2863 C2858 1.363 . S
C2863 C2862 1.415 . S
H2864 C2861 0.999 . S
H2865 C2846 0.913 . S
H2866 C2884 0.951 . S
H2867 C2886 0.951 . S
H2868 C2888 0.950 . S
H2869 C2889 0.950 . S
H2870 C2891 0.950 . S
H2871 C2894 0.950 . S
H2872 C2895 0.950 . S
H2873 C2897 0.950 . S
H2874 C2898 0.950 . S
H2875 C2899 0.951 . S
H2876 C2901 0.951 . S
H2877 C2903 0.950 . S
H2878 C2904 0.950 . S
H2879 C2906 0.950 . S
H2880 C2909 0.950 . S
H2881 C2910 0.950 . S
H2882 C2912 0.950 . S
H2883 C2913 0.950 . S
C2884 H2866 0.951 . S
C2884 C2885 1.366 . S
C2884 C2886 1.388 . S
C2885 C2884 1.366 . S
C2885 C2889 1.385 . S
C2886 H2867 0.951 . S
C2886 C2884 1.388 . S
C2886 C2887 1.366 . S
C2887 C2886 1.366 . S
C2887 C2888 1.414 . S
C2887 C2890 1.499 . S
C2888 H2868 0.950 . S
C2888 C2887 1.414 . S
C2888 C2889 1.374 . S
C2889 H2869 0.950 . S
C2889 C2885 1.385 . S
C2889 C2888 1.374 . S
C2890 C2887 1.499 . S
C2890 C2891 1.373 . S
C2890 C2892 1.389 . S
C2891 H2870 0.950 . S
C2891 C2890 1.373 . S
C2891 C2907 1.377 . S
C2892 C2890 1.389 . S
C2892 C2893 1.524 . S
C2892 C2906 1.377 . S
C2893 C2892 1.524 . S
C2893 C2894 1.397 . S
C2893 C2898 1.363 . S
C2894 H2871 0.950 . S
C2894 C2893 1.397 . S
C2894 C2895 1.334 . S
C2895 H2872 0.950 . S
C2895 C2894 1.334 . S
C2895 C2896 1.287 . S
C2896 C2895 1.287 . S
C2896 C2897 1.524 . S
C2896 H2915 0.913 . S
C2897 H2873 0.950 . S
C2897 C2896 1.524 . S
C2897 C2898 1.415 . S
C2898 H2874 0.950 . S
C2898 C2893 1.363 . S
C2898 C2897 1.415 . S
C2899 H2875 0.951 . S
C2899 C2900 1.366 . S
C2899 C2901 1.388 . S
C2900 C2899 1.366 . S
C2900 C2904 1.385 . S
C2901 H2876 0.951 . S
C2901 C2899 1.388 . S
C2901 C2902 1.366 . S
C2902 C2901 1.366 . S
C2902 C2903 1.414 . S
C2902 C2905 1.499 . S
C2903 H2877 0.950 . S
C2903 C2902 1.414 . S
C2903 C2904 1.374 . S
C2904 H2878 0.950 . S
C2904 C2900 1.385 . S
C2904 C2903 1.374 . S
C2905 C2902 1.499 . S
C2905 C2906 1.373 . S
C2905 C2907 1.389 . S
C2906 H2879 0.950 . S
C2906 C2892 1.377 . S
C2906 C2905 1.373 . S
C2907 C2891 1.377 . S
C2907 C2905 1.389 . S
C2907 C2908 1.524 . S
C2908 C2907 1.524 . S
C2908 C2909 1.397 . S
C2908 C2913 1.363 . S
C2909 H2880 0.950 . S
C2909 C2908 1.397 . S
C2909 C2910 1.334 . S
C2910 H2881 0.950 . S
C2910 C2909 1.334 . S
C2910 C2911 1.287 . S
C2911 C2910 1.287 . S
C2911 C2912 1.524 . S
C2911 H2914 0.999 . S
C2912 H2882 0.950 . S
C2912 C2911 1.524 . S
C2912 C2913 1.415 . S
C2913 H2883 0.950 . S
C2913 C2908 1.363 . S
C2913 C2912 1.415 . S
H2914 C2911 0.999 . S
H2915 C2896 0.913 . S
H2916 C2934 0.951 . S
H2917 C2936 0.951 . S
H2918 C2938 0.950 . S
H2919 C2939 0.950 . S
H2920 C2941 0.950 . S
H2921 C2944 0.950 . S
H2922 C2945 0.950 . S
H2923 C2947 0.950 . S
H2924 C2948 0.950 . S
H2925 C2949 0.951 . S
H2926 C2951 0.951 . S
H2927 C2953 0.950 . S
H2928 C2954 0.950 . S
H2929 C2956 0.950 . S
H2930 C2959 0.950 . S
H2931 C2960 0.950 . S
H2932 C2962 0.950 . S
H2933 C2963 0.950 . S
C2934 H2916 0.951 . S
C2934 C2935 1.366 . S
C2934 C2936 1.388 . S
C2935 C2934 1.366 . S
C2935 C2939 1.385 . S
C2936 H2917 0.951 . S
C2936 C2934 1.388 . S
C2936 C2937 1.366 . S
C2937 C2936 1.366 . S
C2937 C2938 1.414 . S
C2937 C2940 1.499 . S
C2938 H2918 0.950 . S
C2938 C2937 1.414 . S
C2938 C2939 1.374 . S
C2939 H2919 0.950 . S
C2939 C2935 1.385 . S
C2939 C2938 1.374 . S
C2940 C2937 1.499 . S
C2940 C2941 1.373 . S
C2940 C2942 1.389 . S
C2941 H2920 0.950 . S
C2941 C2940 1.373 . S
C2941 C2957 1.377 . S
C2942 C2940 1.389 . S
C2942 C2943 1.524 . S
C2942 C2956 1.377 . S
C2943 C2942 1.524 . S
C2943 C2944 1.397 . S
C2943 C2948 1.363 . S
C2944 H2921 0.950 . S
C2944 C2943 1.397 . S
C2944 C2945 1.334 . S
C2945 H2922 0.950 . S
C2945 C2944 1.334 . S
C2945 C2946 1.287 . S
C2946 C2945 1.287 . S
C2946 C2947 1.524 . S
C2946 H2965 0.913 . S
C2947 H2923 0.950 . S
C2947 C2946 1.524 . S
C2947 C2948 1.415 . S
C2948 H2924 0.950 . S
C2948 C2943 1.363 . S
C2948 C2947 1.415 . S
C2949 H2925 0.951 . S
C2949 C2950 1.366 . S
C2949 C2951 1.388 . S
C2950 C2949 1.366 . S
C2950 C2954 1.385 . S
C2951 H2926 0.951 . S
C2951 C2949 1.388 . S
C2951 C2952 1.366 . S
C2952 C2951 1.366 . S
C2952 C2953 1.414 . S
C2952 C2955 1.499 . S
C2953 H2927 0.950 . S
C2953 C2952 1.414 . S
C2953 C2954 1.374 . S
C2954 H2928 0.950 . S
C2954 C2950 1.385 . S
C2954 C2953 1.374 . S
C2955 C2952 1.499 . S
C2955 C2956 1.373 . S
C2955 C2957 1.389 . S
C2956 H2929 0.950 . S
C2956 C2942 1.377 . S
C2956 C2955 1.373 . S
C2957 C2941 1.377 . S
C2957 C2955 1.389 . S
C2957 C2958 1.524 . S
C2958 C2957 1.524 . S
C2958 C2959 1.397 . S
C2958 C2963 1.363 . S
C2959 H2930 0.950 . S
C2959 C2958 1.397 . S
C2959 C2960 1.334 . S
C2960 H2931 0.950 . S
C2960 C2959 1.334 . S
C2960 C2961 1.287 . S
C2961 C2960 1.287 . S
C2961 C2962 1.524 . S
C2961 H2964 0.999 . S
C2962 H2932 0.950 . S
C2962 C2961 1.524 . S
C2962 C2963 1.415 . S
C2963 H2933 0.950 . S
C2963 C2958 1.363 . S
C2963 C2962 1.415 . S
H2964 C2961 0.999 . S
H2965 C2946 0.913 . S
H2966 C2984 0.951 . S
H2967 C2986 0.951 . S
H2968 C2988 0.950 . S
H2969 C2989 0.950 . S
H2970 C2991 0.950 . S
H2971 C2994 0.950 . S
H2972 C2995 0.950 . S
H2973 C2997 0.950 . S
H2974 C2998 0.950 . S
H2975 C2999 0.951 . S
H2976 C3001 0.951 . S
H2977 C3003 0.950 . S
H2978 C3004 0.950 . S
H2979 C3006 0.950 . S
H2980 C3009 0.950 . S
H2981 C3010 0.950 . S
H2982 C3012 0.950 . S
H2983 C3013 0.950 . S
C2984 H2966 0.951 . S
C2984 C2985 1.366 . S
C2984 C2986 1.388 . S
C2985 C2984 1.366 . S
C2985 C2989 1.385 . S
C2986 H2967 0.951 . S
C2986 C2984 1.388 . S
C2986 C2987 1.366 . S
C2987 C2986 1.366 . S
C2987 C2988 1.414 . S
C2987 C2990 1.499 . S
C2988 H2968 0.950 . S
C2988 C2987 1.414 . S
C2988 C2989 1.374 . S
C2989 H2969 0.950 . S
C2989 C2985 1.385 . S
C2989 C2988 1.374 . S
C2990 C2987 1.499 . S
C2990 C2991 1.373 . S
C2990 C2992 1.389 . S
C2991 H2970 0.950 . S
C2991 C2990 1.373 . S
C2991 C3007 1.377 . S
C2992 C2990 1.389 . S
C2992 C2993 1.524 . S
C2992 C3006 1.377 . S
C2993 C2992 1.524 . S
C2993 C2994 1.397 . S
C2993 C2998 1.363 . S
C2994 H2971 0.950 . S
C2994 C2993 1.397 . S
C2994 C2995 1.334 . S
C2995 H2972 0.950 . S
C2995 C2994 1.334 . S
C2995 C2996 1.287 . S
C2996 C2995 1.287 . S
C2996 C2997 1.524 . S
C2996 H3015 0.913 . S
C2997 H2973 0.950 . S
C2997 C2996 1.524 . S
C2997 C2998 1.415 . S
C2998 H2974 0.950 . S
C2998 C2993 1.363 . S
C2998 C2997 1.415 . S
C2999 H2975 0.951 . S
C2999 C3000 1.366 . S
C2999 C3001 1.388 . S
C3000 C2999 1.366 . S
C3000 C3004 1.385 . S
C3001 H2976 0.951 . S
C3001 C2999 1.388 . S
C3001 C3002 1.366 . S
C3002 C3001 1.366 . S
C3002 C3003 1.414 . S
C3002 C3005 1.499 . S
C3003 H2977 0.950 . S
C3003 C3002 1.414 . S
C3003 C3004 1.374 . S
C3004 H2978 0.950 . S
C3004 C3000 1.385 . S
C3004 C3003 1.374 . S
C3005 C3002 1.499 . S
C3005 C3006 1.373 . S
C3005 C3007 1.389 . S
C3006 H2979 0.950 . S
C3006 C2992 1.377 . S
C3006 C3005 1.373 . S
C3007 C2991 1.377 . S
C3007 C3005 1.389 . S
C3007 C3008 1.524 . S
C3008 C3007 1.524 . S
C3008 C3009 1.397 . S
C3008 C3013 1.363 . S
C3009 H2980 0.950 . S
C3009 C3008 1.397 . S
C3009 C3010 1.334 . S
C3010 H2981 0.950 . S
C3010 C3009 1.334 . S
C3010 C3011 1.287 . S
C3011 C3010 1.287 . S
C3011 C3012 1.524 . S
C3011 H3014 0.999 . S
C3012 H2982 0.950 . S
C3012 C3011 1.524 . S
C3012 C3013 1.415 . S
C3013 H2983 0.950 . S
C3013 C3008 1.363 . S
C3013 C3012 1.415 . S
H3014 C3011 0.999 . S
H3015 C2996 0.913 . S
H3016 C3034 0.951 . S
H3017 C3036 0.951 . S
H3018 C3038 0.950 . S
H3019 C3039 0.950 . S
H3020 C3041 0.950 . S
H3021 C3044 0.950 . S
H3022 C3045 0.950 . S
H3023 C3047 0.950 . S
H3024 C3048 0.950 . S
H3025 C3049 0.951 . S
H3026 C3051 0.951 . S
H3027 C3053 0.950 . S
H3028 C3054 0.950 . S
H3029 C3056 0.950 . S
H3030 C3059 0.950 . S
H3031 C3060 0.950 . S
H3032 C3062 0.950 . S
H3033 C3063 0.950 . S
C3034 H3016 0.951 . S
C3034 C3035 1.366 . S
C3034 C3036 1.388 . S
C3035 C3034 1.366 . S
C3035 C3039 1.385 . S
C3036 H3017 0.951 . S
C3036 C3034 1.388 . S
C3036 C3037 1.366 . S
C3037 C3036 1.366 . S
C3037 C3038 1.414 . S
C3037 C3040 1.499 . S
C3038 H3018 0.950 . S
C3038 C3037 1.414 . S
C3038 C3039 1.374 . S
C3039 H3019 0.950 . S
C3039 C3035 1.385 . S
C3039 C3038 1.374 . S
C3040 C3037 1.499 . S
C3040 C3041 1.373 . S
C3040 C3042 1.389 . S
C3041 H3020 0.950 . S
C3041 C3040 1.373 . S
C3041 C3057 1.377 . S
C3042 C3040 1.389 . S
C3042 C3043 1.524 . S
C3042 C3056 1.377 . S
C3043 C3042 1.524 . S
C3043 C3044 1.397 . S
C3043 C3048 1.363 . S
C3044 H3021 0.950 . S
C3044 C3043 1.397 . S
C3044 C3045 1.334 . S
C3045 H3022 0.950 . S
C3045 C3044 1.334 . S
C3045 C3046 1.287 . S
C3046 C3045 1.287 . S
C3046 C3047 1.524 . S
C3046 H3065 0.913 . S
C3047 H3023 0.950 . S
C3047 C3046 1.524 . S
C3047 C3048 1.415 . S
C3048 H3024 0.950 . S
C3048 C3043 1.363 . S
C3048 C3047 1.415 . S
C3049 H3025 0.951 . S
C3049 C3050 1.366 . S
C3049 C3051 1.388 . S
C3050 C3049 1.366 . S
C3050 C3054 1.385 . S
C3051 H3026 0.951 . S
C3051 C3049 1.388 . S
C3051 C3052 1.366 . S
C3052 C3051 1.366 . S
C3052 C3053 1.414 . S
C3052 C3055 1.499 . S
C3053 H3027 0.950 . S
C3053 C3052 1.414 . S
C3053 C3054 1.374 . S
C3054 H3028 0.950 . S
C3054 C3050 1.385 . S
C3054 C3053 1.374 . S
C3055 C3052 1.499 . S
C3055 C3056 1.373 . S
C3055 C3057 1.389 . S
C3056 H3029 0.950 . S
C3056 C3042 1.377 . S
C3056 C3055 1.373 . S
C3057 C3041 1.377 . S
C3057 C3055 1.389 . S
C3057 C3058 1.524 . S
C3058 C3057 1.524 . S
C3058 C3059 1.397 . S
C3058 C3063 1.363 . S
C3059 H3030 0.950 . S
C3059 C3058 1.397 . S
C3059 C3060 1.334 . S
C3060 H3031 0.950 . S
C3060 C3059 1.334 . S
C3060 C3061 1.287 . S
C3061 C3060 1.287 . S
C3061 C3062 1.524 . S
C3061 H3064 0.999 . S
C3062 H3032 0.950 . S
C3062 C3061 1.524 . S
C3062 C3063 1.415 . S
C3063 H3033 0.950 . S
C3063 C3058 1.363 . S
C3063 C3062 1.415 . S
H3064 C3061 0.999 . S
H3065 C3046 0.913 . S
H3066 C3084 0.951 . S
H3067 C3086 0.951 . S
H3068 C3088 0.950 . S
H3069 C3089 0.950 . S
H3070 C3091 0.950 . S
H3071 C3094 0.950 . S
H3072 C3095 0.950 . S
H3073 C3097 0.950 . S
H3074 C3098 0.950 . S
H3075 C3099 0.951 . S
H3076 C3101 0.951 . S
H3077 C3103 0.950 . S
H3078 C3104 0.950 . S
H3079 C3106 0.950 . S
H3080 C3109 0.950 . S
H3081 C3110 0.950 . S
H3082 C3112 0.950 . S
H3083 C3113 0.950 . S
C3084 H3066 0.951 . S
C3084 C3085 1.366 . S
C3084 C3086 1.388 . S
C3085 C3084 1.366 . S
C3085 C3089 1.385 . S
C3086 H3067 0.951 . S
C3086 C3084 1.388 . S
C3086 C3087 1.366 . S
C3087 C3086 1.366 . S
C3087 C3088 1.414 . S
C3087 C3090 1.499 . S
C3088 H3068 0.950 . S
C3088 C3087 1.414 . S
C3088 C3089 1.374 . S
C3089 H3069 0.950 . S
C3089 C3085 1.385 . S
C3089 C3088 1.374 . S
C3090 C3087 1.499 . S
C3090 C3091 1.373 . S
C3090 C3092 1.389 . S
C3091 H3070 0.950 . S
C3091 C3090 1.373 . S
C3091 C3107 1.377 . S
C3092 C3090 1.389 . S
C3092 C3093 1.524 . S
C3092 C3106 1.377 . S
C3093 C3092 1.524 . S
C3093 C3094 1.397 . S
C3093 C3098 1.363 . S
C3094 H3071 0.950 . S
C3094 C3093 1.397 . S
C3094 C3095 1.334 . S
C3095 H3072 0.950 . S
C3095 C3094 1.334 . S
C3095 C3096 1.287 . S
C3096 C3095 1.287 . S
C3096 C3097 1.524 . S
C3096 H3115 0.913 . S
C3097 H3073 0.950 . S
C3097 C3096 1.524 . S
C3097 C3098 1.415 . S
C3098 H3074 0.950 . S
C3098 C3093 1.363 . S
C3098 C3097 1.415 . S
C3099 H3075 0.951 . S
C3099 C3100 1.366 . S
C3099 C3101 1.388 . S
C3100 C3099 1.366 . S
C3100 C3104 1.385 . S
C3101 H3076 0.951 . S
C3101 C3099 1.388 . S
C3101 C3102 1.366 . S
C3102 C3101 1.366 . S
C3102 C3103 1.414 . S
C3102 C3105 1.499 . S
C3103 H3077 0.950 . S
C3103 C3102 1.414 . S
C3103 C3104 1.374 . S
C3104 H3078 0.950 . S
C3104 C3100 1.385 . S
C3104 C3103 1.374 . S
C3105 C3102 1.499 . S
C3105 C3106 1.373 . S
C3105 C3107 1.389 . S
C3106 H3079 0.950 . S
C3106 C3092 1.377 . S
C3106 C3105 1.373 . S
C3107 C3091 1.377 . S
C3107 C3105 1.389 . S
C3107 C3108 1.524 . S
C3108 C3107 1.524 . S
C3108 C3109 1.397 . S
C3108 C3113 1.363 . S
C3109 H3080 0.950 . S
C3109 C3108 1.397 . S
C3109 C3110 1.334 . S
C3110 H3081 0.950 . S
C3110 C3109 1.334 . S
C3110 C3111 1.287 . S
C3111 C3110 1.287 . S
C3111 C3112 1.524 . S
C3111 H3114 0.999 . S
C3112 H3082 0.950 . S
C3112 C3111 1.524 . S
C3112 C3113 1.415 . S
C3113 H3083 0.950 . S
C3113 C3108 1.363 . S
C3113 C3112 1.415 . S
H3114 C3111 0.999 . S
H3115 C3096 0.913 . S
H3116 C3134 0.951 . S
H3117 C3136 0.951 . S
H3118 C3138 0.950 . S
H3119 C3139 0.950 . S
H3120 C3141 0.950 . S
H3121 C3144 0.950 . S
H3122 C3145 0.950 . S
H3123 C3147 0.950 . S
H3124 C3148 0.950 . S
H3125 C3149 0.951 . S
H3126 C3151 0.951 . S
H3127 C3153 0.950 . S
H3128 C3154 0.950 . S
H3129 C3156 0.950 . S
H3130 C3159 0.950 . S
H3131 C3160 0.950 . S
H3132 C3162 0.950 . S
H3133 C3163 0.950 . S
C3134 H3116 0.951 . S
C3134 C3135 1.366 . S
C3134 C3136 1.388 . S
C3135 C3134 1.366 . S
C3135 C3139 1.385 . S
C3136 H3117 0.951 . S
C3136 C3134 1.388 . S
C3136 C3137 1.366 . S
C3137 C3136 1.366 . S
C3137 C3138 1.414 . S
C3137 C3140 1.499 . S
C3138 H3118 0.950 . S
C3138 C3137 1.414 . S
C3138 C3139 1.374 . S
C3139 H3119 0.950 . S
C3139 C3135 1.385 . S
C3139 C3138 1.374 . S
C3140 C3137 1.499 . S
C3140 C3141 1.373 . S
C3140 C3142 1.389 . S
C3141 H3120 0.950 . S
C3141 C3140 1.373 . S
C3141 C3157 1.377 . S
C3142 C3140 1.389 . S
C3142 C3143 1.524 . S
C3142 C3156 1.377 . S
C3143 C3142 1.524 . S
C3143 C3144 1.397 . S
C3143 C3148 1.363 . S
C3144 H3121 0.950 . S
C3144 C3143 1.397 . S
C3144 C3145 1.334 . S
C3145 H3122 0.950 . S
C3145 C3144 1.334 . S
C3145 C3146 1.287 . S
C3146 C3145 1.287 . S
C3146 C3147 1.524 . S
C3146 H3165 0.913 . S
C3147 H3123 0.950 . S
C3147 C3146 1.524 . S
C3147 C3148 1.415 . S
C3148 H3124 0.950 . S
C3148 C3143 1.363 . S
C3148 C3147 1.415 . S
C3149 H3125 0.951 . S
C3149 C3150 1.366 . S
C3149 C3151 1.388 . S
C3150 C3149 1.366 . S
C3150 C3154 1.385 . S
C3151 H3126 0.951 . S
C3151 C3149 1.388 . S
C3151 C3152 1.366 . S
C3152 C3151 1.366 . S
C3152 C3153 1.414 . S
C3152 C3155 1.499 . S
C3153 H3127 0.950 . S
C3153 C3152 1.414 . S
C3153 C3154 1.374 . S
C3154 H3128 0.950 . S
C3154 C3150 1.385 . S
C3154 C3153 1.374 . S
C3155 C3152 1.499 . S
C3155 C3156 1.373 . S
C3155 C3157 1.389 . S
C3156 H3129 0.950 . S
C3156 C3142 1.377 . S
C3156 C3155 1.373 . S
C3157 C3141 1.377 . S
C3157 C3155 1.389 . S
C3157 C3158 1.524 . S
C3158 C3157 1.524 . S
C3158 C3159 1.397 . S
C3158 C3163 1.363 . S
C3159 H3130 0.950 . S
C3159 C3158 1.397 . S
C3159 C3160 1.334 . S
C3160 H3131 0.950 . S
C3160 C3159 1.334 . S
C3160 C3161 1.287 . S
C3161 C3160 1.287 . S
C3161 C3162 1.524 . S
C3161 H3164 0.999 . S
C3162 H3132 0.950 . S
C3162 C3161 1.524 . S
C3162 C3163 1.415 . S
C3163 H3133 0.950 . S
C3163 C3158 1.363 . S
C3163 C3162 1.415 . S
H3164 C3161 0.999 . S
H3165 C3146 0.913 . S
H3166 C3184 0.951 . S
H3167 C3186 0.951 . S
H3168 C3188 0.950 . S
H3169 C3189 0.950 . S
H3170 C3191 0.950 . S
H3171 C3194 0.950 . S
H3172 C3195 0.950 . S
H3173 C3197 0.950 . S
H3174 C3198 0.950 . S
H3175 C3199 0.951 . S
H3176 C3201 0.951 . S
H3177 C3203 0.950 . S
H3178 C3204 0.950 . S
H3179 C3206 0.950 . S
H3180 C3209 0.950 . S
H3181 C3210 0.950 . S
H3182 C3212 0.950 . S
H3183 C3213 0.950 . S
C3184 H3166 0.951 . S
C3184 C3185 1.366 . S
C3184 C3186 1.388 . S
C3185 C3184 1.366 . S
C3185 C3189 1.385 . S
C3186 H3167 0.951 . S
C3186 C3184 1.388 . S
C3186 C3187 1.366 . S
C3187 C3186 1.366 . S
C3187 C3188 1.414 . S
C3187 C3190 1.499 . S
C3188 H3168 0.950 . S
C3188 C3187 1.414 . S
C3188 C3189 1.374 . S
C3189 H3169 0.950 . S
C3189 C3185 1.385 . S
C3189 C3188 1.374 . S
C3190 C3187 1.499 . S
C3190 C3191 1.373 . S
C3190 C3192 1.389 . S
C3191 H3170 0.950 . S
C3191 C3190 1.373 . S
C3191 C3207 1.377 . S
C3192 C3190 1.389 . S
C3192 C3193 1.524 . S
C3192 C3206 1.377 . S
C3193 C3192 1.524 . S
C3193 C3194 1.397 . S
C3193 C3198 1.363 . S
C3194 H3171 0.950 . S
C3194 C3193 1.397 . S
C3194 C3195 1.334 . S
C3195 H3172 0.950 . S
C3195 C3194 1.334 . S
C3195 C3196 1.287 . S
C3196 C3195 1.287 . S
C3196 C3197 1.524 . S
C3196 H3215 0.913 . S
C3197 H3173 0.950 . S
C3197 C3196 1.524 . S
C3197 C3198 1.415 . S
C3198 H3174 0.950 . S
C3198 C3193 1.363 . S
C3198 C3197 1.415 . S
C3199 H3175 0.951 . S
C3199 C3200 1.366 . S
C3199 C3201 1.388 . S
C3200 C3199 1.366 . S
C3200 C3204 1.385 . S
C3201 H3176 0.951 . S
C3201 C3199 1.388 . S
C3201 C3202 1.366 . S
C3202 C3201 1.366 . S
C3202 C3203 1.414 . S
C3202 C3205 1.499 . S
C3203 H3177 0.950 . S
C3203 C3202 1.414 . S
C3203 C3204 1.374 . S
C3204 H3178 0.950 . S
C3204 C3200 1.385 . S
C3204 C3203 1.374 . S
C3205 C3202 1.499 . S
C3205 C3206 1.373 . S
C3205 C3207 1.389 . S
C3206 H3179 0.950 . S
C3206 C3192 1.377 . S
C3206 C3205 1.373 . S
C3207 C3191 1.377 . S
C3207 C3205 1.389 . S
C3207 C3208 1.524 . S
C3208 C3207 1.524 . S
C3208 C3209 1.397 . S
C3208 C3213 1.363 . S
C3209 H3180 0.950 . S
C3209 C3208 1.397 . S
C3209 C3210 1.334 . S
C3210 H3181 0.950 . S
C3210 C3209 1.334 . S
C3210 C3211 1.287 . S
C3211 C3210 1.287 . S
C3211 C3212 1.524 . S
C3211 H3214 0.999 . S
C3212 H3182 0.950 . S
C3212 C3211 1.524 . S
C3212 C3213 1.415 . S
C3213 H3183 0.950 . S
C3213 C3208 1.363 . S
C3213 C3212 1.415 . S
H3214 C3211 0.999 . S
H3215 C3196 0.913 . S
H3216 C3234 0.951 . S
H3217 C3236 0.951 . S
H3218 C3238 0.950 . S
H3219 C3239 0.950 . S
H3220 C3241 0.950 . S
H3221 C3244 0.950 . S
H3222 C3245 0.950 . S
H3223 C3247 0.950 . S
H3224 C3248 0.950 . S
H3225 C3249 0.951 . S
H3226 C3251 0.951 . S
H3227 C3253 0.950 . S
H3228 C3254 0.950 . S
H3229 C3256 0.950 . S
H3230 C3259 0.950 . S
H3231 C3260 0.950 . S
H3232 C3262 0.950 . S
H3233 C3263 0.950 . S
C3234 H3216 0.951 . S
C3234 C3235 1.366 . S
C3234 C3236 1.388 . S
C3235 C3234 1.366 . S
C3235 C3239 1.385 . S
C3236 H3217 0.951 . S
C3236 C3234 1.388 . S
C3236 C3237 1.366 . S
C3237 C3236 1.366 . S
C3237 C3238 1.414 . S
C3237 C3240 1.499 . S
C3238 H3218 0.950 . S
C3238 C3237 1.414 . S
C3238 C3239 1.374 . S
C3239 H3219 0.950 . S
C3239 C3235 1.385 . S
C3239 C3238 1.374 . S
C3240 C3237 1.499 . S
C3240 C3241 1.373 . S
C3240 C3242 1.389 . S
C3241 H3220 0.950 . S
C3241 C3240 1.373 . S
C3241 C3257 1.377 . S
C3242 C3240 1.389 . S
C3242 C3243 1.524 . S
C3242 C3256 1.377 . S
C3243 C3242 1.524 . S
C3243 C3244 1.397 . S
C3243 C3248 1.363 . S
C3244 H3221 0.950 . S
C3244 C3243 1.397 . S
C3244 C3245 1.334 . S
C3245 H3222 0.950 . S
C3245 C3244 1.334 . S
C3245 C3246 1.287 . S
C3246 C3245 1.287 . S
C3246 C3247 1.524 . S
C3246 H3265 0.913 . S
C3247 H3223 0.950 . S
C3247 C3246 1.524 . S
C3247 C3248 1.415 . S
C3248 H3224 0.950 . S
C3248 C3243 1.363 . S
C3248 C3247 1.415 . S
C3249 H3225 0.951 . S
C3249 C3250 1.366 . S
C3249 C3251 1.388 . S
C3250 C3249 1.366 . S
C3250 C3254 1.385 . S
C3251 H3226 0.951 . S
C3251 C3249 1.388 . S
C3251 C3252 1.366 . S
C3252 C3251 1.366 . S
C3252 C3253 1.414 . S
C3252 C3255 1.499 . S
C3253 H3227 0.950 . S
C3253 C3252 1.414 . S
C3253 C3254 1.374 . S
C3254 H3228 0.950 . S
C3254 C3250 1.385 . S
C3254 C3253 1.374 . S
C3255 C3252 1.499 . S
C3255 C3256 1.373 . S
C3255 C3257 1.389 . S
C3256 H3229 0.950 . S
C3256 C3242 1.377 . S
C3256 C3255 1.373 . S
C3257 C3241 1.377 . S
C3257 C3255 1.389 . S
C3257 C3258 1.524 . S
C3258 C3257 1.524 . S
C3258 C3259 1.397 . S
C3258 C3263 1.363 . S
C3259 H3230 0.950 . S
C3259 C3258 1.397 . S
C3259 C3260 1.334 . S
C3260 H3231 0.950 . S
C3260 C3259 1.334 . S
C3260 C3261 1.287 . S
C3261 C3260 1.287 . S
C3261 C3262 1.524 . S
C3261 H3264 0.999 . S
C3262 H3232 0.950 . S
C3262 C3261 1.524 . S
C3262 C3263 1.415 . S
C3263 H3233 0.950 . S
C3263 C3258 1.363 . S
C3263 C3262 1.415 . S
H3264 C3261 0.999 . S
H3265 C3246 0.913 . S
H3266 C3284 0.951 . S
H3267 C3286 0.951 . S
H3268 C3288 0.950 . S
H3269 C3289 0.950 . S
H3270 C3291 0.950 . S
H3271 C3294 0.950 . S
H3272 C3295 0.950 . S
H3273 C3297 0.950 . S
H3274 C3298 0.950 . S
H3275 C3299 0.951 . S
H3276 C3301 0.951 . S
H3277 C3303 0.950 . S
H3278 C3304 0.950 . S
H3279 C3306 0.950 . S
H3280 C3309 0.950 . S
H3281 C3310 0.950 . S
H3282 C3312 0.950 . S
H3283 C3313 0.950 . S
C3284 H3266 0.951 . S
C3284 C3285 1.366 . S
C3284 C3286 1.388 . S
C3285 C3284 1.366 . S
C3285 C3289 1.385 . S
C3286 H3267 0.951 . S
C3286 C3284 1.388 . S
C3286 C3287 1.366 . S
C3287 C3286 1.366 . S
C3287 C3288 1.414 . S
C3287 C3290 1.499 . S
C3288 H3268 0.950 . S
C3288 C3287 1.414 . S
C3288 C3289 1.374 . S
C3289 H3269 0.950 . S
C3289 C3285 1.385 . S
C3289 C3288 1.374 . S
C3290 C3287 1.499 . S
C3290 C3291 1.373 . S
C3290 C3292 1.389 . S
C3291 H3270 0.950 . S
C3291 C3290 1.373 . S
C3291 C3307 1.377 . S
C3292 C3290 1.389 . S
C3292 C3293 1.524 . S
C3292 C3306 1.377 . S
C3293 C3292 1.524 . S
C3293 C3294 1.397 . S
C3293 C3298 1.363 . S
C3294 H3271 0.950 . S
C3294 C3293 1.397 . S
C3294 C3295 1.334 . S
C3295 H3272 0.950 . S
C3295 C3294 1.334 . S
C3295 C3296 1.287 . S
C3296 C3295 1.287 . S
C3296 C3297 1.524 . S
C3296 H3315 0.913 . S
C3297 H3273 0.950 . S
C3297 C3296 1.524 . S
C3297 C3298 1.415 . S
C3298 H3274 0.950 . S
C3298 C3293 1.363 . S
C3298 C3297 1.415 . S
C3299 H3275 0.951 . S
C3299 C3300 1.366 . S
C3299 C3301 1.388 . S
C3300 C3299 1.366 . S
C3300 C3304 1.385 . S
C3301 H3276 0.951 . S
C3301 C3299 1.388 . S
C3301 C3302 1.366 . S
C3302 C3301 1.366 . S
C3302 C3303 1.414 . S
C3302 C3305 1.499 . S
C3303 H3277 0.950 . S
C3303 C3302 1.414 . S
C3303 C3304 1.374 . S
C3304 H3278 0.950 . S
C3304 C3300 1.385 . S
C3304 C3303 1.374 . S
C3305 C3302 1.499 . S
C3305 C3306 1.373 . S
C3305 C3307 1.389 . S
C3306 H3279 0.950 . S
C3306 C3292 1.377 . S
C3306 C3305 1.373 . S
C3307 C3291 1.377 . S
C3307 C3305 1.389 . S
C3307 C3308 1.524 . S
C3308 C3307 1.524 . S
C3308 C3309 1.397 . S
C3308 C3313 1.363 . S
C3309 H3280 0.950 . S
C3309 C3308 1.397 . S
C3309 C3310 1.334 . S
C3310 H3281 0.950 . S
C3310 C3309 1.334 . S
C3310 C3311 1.287 . S
C3311 C3310 1.287 . S
C3311 C3312 1.524 . S
C3311 H3314 0.999 . S
C3312 H3282 0.950 . S
C3312 C3311 1.524 . S
C3312 C3313 1.415 . S
C3313 H3283 0.950 . S
C3313 C3308 1.363 . S
C3313 C3312 1.415 . S
H3314 C3311 0.999 . S
H3315 C3296 0.913 . S
H3316 C3334 0.951 . S
H3317 C3336 0.951 . S
H3318 C3338 0.950 . S
H3319 C3339 0.950 . S
H3320 C3341 0.950 . S
H3321 C3344 0.950 . S
H3322 C3345 0.950 . S
H3323 C3347 0.950 . S
H3324 C3348 0.950 . S
H3325 C3349 0.951 . S
H3326 C3351 0.951 . S
H3327 C3353 0.950 . S
H3328 C3354 0.950 . S
H3329 C3356 0.950 . S
H3330 C3359 0.950 . S
H3331 C3360 0.950 . S
H3332 C3362 0.950 . S
H3333 C3363 0.950 . S
C3334 H3316 0.951 . S
C3334 C3335 1.366 . S
C3334 C3336 1.388 . S
C3335 C3334 1.366 . S
C3335 C3339 1.385 . S
C3336 H3317 0.951 . S
C3336 C3334 1.388 . S
C3336 C3337 1.366 . S
C3337 C3336 1.366 . S
C3337 C3338 1.414 . S
C3337 C3340 1.499 . S
C3338 H3318 0.950 . S
C3338 C3337 1.414 . S
C3338 C3339 1.374 . S
C3339 H3319 0.950 . S
C3339 C3335 1.385 . S
C3339 C3338 1.374 . S
C3340 C3337 1.499 . S
C3340 C3341 1.373 . S
C3340 C3342 1.389 . S
C3341 H3320 0.950 . S
C3341 C3340 1.373 . S
C3341 C3357 1.377 . S
C3342 C3340 1.389 . S
C3342 C3343 1.524 . S
C3342 C3356 1.377 . S
C3343 C3342 1.524 . S
C3343 C3344 1.397 . S
C3343 C3348 1.363 . S
C3344 H3321 0.950 . S
C3344 C3343 1.397 . S
C3344 C3345 1.334 . S
C3345 H3322 0.950 . S
C3345 C3344 1.334 . S
C3345 C3346 1.287 . S
C3346 C3345 1.287 . S
C3346 C3347 1.524 . S
C3346 H3365 0.913 . S
C3347 H3323 0.950 . S
C3347 C3346 1.524 . S
C3347 C3348 1.415 . S
C3348 H3324 0.950 . S
C3348 C3343 1.363 . S
C3348 C3347 1.415 . S
C3349 H3325 0.951 . S
C3349 C3350 1.366 . S
C3349 C3351 1.388 . S
C3350 C3349 1.366 . S
C3350 C3354 1.385 . S
C3351 H3326 0.951 . S
C3351 C3349 1.388 . S
C3351 C3352 1.366 . S
C3352 C3351 1.366 . S
C3352 C3353 1.414 . S
C3352 C3355 1.499 . S
C3353 H3327 0.950 . S
C3353 C3352 1.414 . S
C3353 C3354 1.374 . S
C3354 H3328 0.950 . S
C3354 C3350 1.385 . S
C3354 C3353 1.374 . S
C3355 C3352 1.499 . S
C3355 C3356 1.373 . S
C3355 C3357 1.389 . S
C3356 H3329 0.950 . S
C3356 C3342 1.377 . S
C3356 C3355 1.373 . S
C3357 C3341 1.377 . S
C3357 C3355 1.389 . S
C3357 C3358 1.524 . S
C3358 C3357 1.524 . S
C3358 C3359 1.397 . S
C3358 C3363 1.363 . S
C3359 H3330 0.950 . S
C3359 C3358 1.397 . S
C3359 C3360 1.334 . S
C3360 H3331 0.950 . S
C3360 C3359 1.334 . S
C3360 C3361 1.287 . S
C3361 C3360 1.287 . S
C3361 C3362 1.524 . S
C3361 H3364 0.999 . S
C3362 H3332 0.950 . S
C3362 C3361 1.524 . S
C3362 C3363 1.415 . S
C3363 H3333 0.950 . S
C3363 C3358 1.363 . S
C3363 C3362 1.415 . S
H3364 C3361 0.999 . S
H3365 C3346 0.913 . S
H3366 C3384 0.951 . S
H3367 C3386 0.951 . S
H3368 C3388 0.950 . S
H3369 C3389 0.950 . S
H3370 C3391 0.950 . S
H3371 C3394 0.950 . S
H3372 C3395 0.950 . S
H3373 C3397 0.950 . S
H3374 C3398 0.950 . S
H3375 C3399 0.951 . S
H3376 C3401 0.951 . S
H3377 C3403 0.950 . S
H3378 C3404 0.950 . S
H3379 C3406 0.950 . S
H3380 C3409 0.950 . S
H3381 C3410 0.950 . S
H3382 C3412 0.950 . S
H3383 C3413 0.950 . S
C3384 H3366 0.951 . S
C3384 C3385 1.366 . S
C3384 C3386 1.388 . S
C3385 C3384 1.366 . S
C3385 C3389 1.385 . S
C3386 H3367 0.951 . S
C3386 C3384 1.388 . S
C3386 C3387 1.366 . S
C3387 C3386 1.366 . S
C3387 C3388 1.414 . S
C3387 C3390 1.499 . S
C3388 H3368 0.950 . S
C3388 C3387 1.414 . S
C3388 C3389 1.374 . S
C3389 H3369 0.950 . S
C3389 C3385 1.385 . S
C3389 C3388 1.374 . S
C3390 C3387 1.499 . S
C3390 C3391 1.373 . S
C3390 C3392 1.389 . S
C3391 H3370 0.950 . S
C3391 C3390 1.373 . S
C3391 C3407 1.377 . S
C3392 C3390 1.389 . S
C3392 C3393 1.524 . S
C3392 C3406 1.377 . S
C3393 C3392 1.524 . S
C3393 C3394 1.397 . S
C3393 C3398 1.363 . S
C3394 H3371 0.950 . S
C3394 C3393 1.397 . S
C3394 C3395 1.334 . S
C3395 H3372 0.950 . S
C3395 C3394 1.334 . S
C3395 C3396 1.287 . S
C3396 C3395 1.287 . S
C3396 C3397 1.524 . S
C3396 H3415 0.913 . S
C3397 H3373 0.950 . S
C3397 C3396 1.524 . S
C3397 C3398 1.415 . S
C3398 H3374 0.950 . S
C3398 C3393 1.363 . S
C3398 C3397 1.415 . S
C3399 H3375 0.951 . S
C3399 C3400 1.366 . S
C3399 C3401 1.388 . S
C3400 C3399 1.366 . S
C3400 C3404 1.385 . S
C3401 H3376 0.951 . S
C3401 C3399 1.388 . S
C3401 C3402 1.366 . S
C3402 C3401 1.366 . S
C3402 C3403 1.414 . S
C3402 C3405 1.499 . S
C3403 H3377 0.950 . S
C3403 C3402 1.414 . S
C3403 C3404 1.374 . S
C3404 H3378 0.950 . S
C3404 C3400 1.385 . S
C3404 C3403 1.374 . S
C3405 C3402 1.499 . S
C3405 C3406 1.373 . S
C3405 C3407 1.389 . S
C3406 H3379 0.950 . S
C3406 C3392 1.377 . S
C3406 C3405 1.373 . S
C3407 C3391 1.377 . S
C3407 C3405 1.389 . S
C3407 C3408 1.524 . S
C3408 C3407 1.524 . S
C3408 C3409 1.397 . S
C3408 C3413 1.363 . S
C3409 H3380 0.950 . S
C3409 C3408 1.397 . S
C3409 C3410 1.334 . S
C3410 H3381 0.950 . S
C3410 C3409 1.334 . S
C3410 C3411 1.287 . S
C3411 C3410 1.287 . S
C3411 C3412 1.524 . S
C3411 H3414 0.999 . S
C3412 H3382 0.950 . S
C3412 C3411 1.524 . S
C3412 C3413 1.415 . S
C3413 H3383 0.950 . S
C3413 C3408 1.363 . S
C3413 C3412 1.415 . S
H3414 C3411 0.999 . S
H3415 C3396 0.913 . S
H3416 C3434 0.951 . S
H3417 C3436 0.951 . S
H3418 C3438 0.950 . S
H3419 C3439 0.950 . S
H3420 C3441 0.950 . S
H3421 C3444 0.950 . S
H3422 C3445 0.950 . S
H3423 C3447 0.950 . S
H3424 C3448 0.950 . S
H3425 C3449 0.951 . S
H3426 C3451 0.951 . S
H3427 C3453 0.950 . S
H3428 C3454 0.950 . S
H3429 C3456 0.950 . S
H3430 C3459 0.950 . S
H3431 C3460 0.950 . S
H3432 C3462 0.950 . S
H3433 C3463 0.950 . S
C3434 H3416 0.951 . S
C3434 C3435 1.366 . S
C3434 C3436 1.388 . S
C3435 C3434 1.366 . S
C3435 C3439 1.385 . S
C3436 H3417 0.951 . S
C3436 C3434 1.388 . S
C3436 C3437 1.366 . S
C3437 C3436 1.366 . S
C3437 C3438 1.414 . S
C3437 C3440 1.499 . S
C3438 H3418 0.950 . S
C3438 C3437 1.414 . S
C3438 C3439 1.374 . S
C3439 H3419 0.950 . S
C3439 C3435 1.385 . S
C3439 C3438 1.374 . S
C3440 C3437 1.499 . S
C3440 C3441 1.373 . S
C3440 C3442 1.389 . S
C3441 H3420 0.950 . S
C3441 C3440 1.373 . S
C3441 C3457 1.377 . S
C3442 C3440 1.389 . S
C3442 C3443 1.524 . S
C3442 C3456 1.377 . S
C3443 C3442 1.524 . S
C3443 C3444 1.397 . S
C3443 C3448 1.363 . S
C3444 H3421 0.950 . S
C3444 C3443 1.397 . S
C3444 C3445 1.334 . S
C3445 H3422 0.950 . S
C3445 C3444 1.334 . S
C3445 C3446 1.287 . S
C3446 C3445 1.287 . S
C3446 C3447 1.524 . S
C3446 H3465 0.913 . S
C3447 H3423 0.950 . S
C3447 C3446 1.524 . S
C3447 C3448 1.415 . S
C3448 H3424 0.950 . S
C3448 C3443 1.363 . S
C3448 C3447 1.415 . S
C3449 H3425 0.951 . S
C3449 C3450 1.366 . S
C3449 C3451 1.388 . S
C3450 C3449 1.366 . S
C3450 C3454 1.385 . S
C3451 H3426 0.951 . S
C3451 C3449 1.388 . S
C3451 C3452 1.366 . S
C3452 C3451 1.366 . S
C3452 C3453 1.414 . S
C3452 C3455 1.499 . S
C3453 H3427 0.950 . S
C3453 C3452 1.414 . S
C3453 C3454 1.374 . S
C3454 H3428 0.950 . S
C3454 C3450 1.385 . S
C3454 C3453 1.374 . S
C3455 C3452 1.499 . S
C3455 C3456 1.373 . S
C3455 C3457 1.389 . S
C3456 H3429 0.950 . S
C3456 C3442 1.377 . S
C3456 C3455 1.373 . S
C3457 C3441 1.377 . S
C3457 C3455 1.389 . S
C3457 C3458 1.524 . S
C3458 C3457 1.524 . S
C3458 C3459 1.397 . S
C3458 C3463 1.363 . S
C3459 H3430 0.950 . S
C3459 C3458 1.397 . S
C3459 C3460 1.334 . S
C3460 H3431 0.950 . S
C3460 C3459 1.334 . S
C3460 C3461 1.287 . S
C3461 C3460 1.287 . S
C3461 C3462 1.524 . S
C3461 H3464 0.999 . S
C3462 H3432 0.950 . S
C3462 C3461 1.524 . S
C3462 C3463 1.415 . S
C3463 H3433 0.950 . S
C3463 C3458 1.363 . S
C3463 C3462 1.415 . S
H3464 C3461 0.999 . S
H3465 C3446 0.913 . S
H3466 C3484 0.951 . S
H3467 C3486 0.951 . S
H3468 C3488 0.950 . S
H3469 C3489 0.950 . S
H3470 C3491 0.950 . S
H3471 C3494 0.950 . S
H3472 C3495 0.950 . S
H3473 C3497 0.950 . S
H3474 C3498 0.950 . S
H3475 C3499 0.951 . S
H3476 C3501 0.951 . S
H3477 C3503 0.950 . S
H3478 C3504 0.950 . S
H3479 C3506 0.950 . S
H3480 C3509 0.950 . S
H3481 C3510 0.950 . S
H3482 C3512 0.950 . S
H3483 C3513 0.950 . S
C3484 H3466 0.951 . S
C3484 C3485 1.366 . S
C3484 C3486 1.388 . S
C3485 C3484 1.366 . S
C3485 C3489 1.385 . S
C3486 H3467 0.951 . S
C3486 C3484 1.388 . S
C3486 C3487 1.366 . S
C3487 C3486 1.366 . S
C3487 C3488 1.414 . S
C3487 C3490 1.499 . S
C3488 H3468 0.950 . S
C3488 C3487 1.414 . S
C3488 C3489 1.374 . S
C3489 H3469 0.950 . S
C3489 C3485 1.385 . S
C3489 C3488 1.374 . S
C3490 C3487 1.499 . S
C3490 C3491 1.373 . S
C3490 C3492 1.389 . S
C3491 H3470 0.950 . S
C3491 C3490 1.373 . S
C3491 C3507 1.377 . S
C3492 C3490 1.389 . S
C3492 C3493 1.524 . S
C3492 C3506 1.377 . S
C3493 C3492 1.524 . S
C3493 C3494 1.397 . S
C3493 C3498 1.363 . S
C3494 H3471 0.950 . S
C3494 C3493 1.397 . S
C3494 C3495 1.334 . S
C3495 H3472 0.950 . S
C3495 C3494 1.334 . S
C3495 C3496 1.287 . S
C3496 C3495 1.287 . S
C3496 C3497 1.524 . S
C3496 H3515 0.913 . S
C3497 H3473 0.950 . S
C3497 C3496 1.524 . S
C3497 C3498 1.415 . S
C3498 H3474 0.950 . S
C3498 C3493 1.363 . S
C3498 C3497 1.415 . S
C3499 H3475 0.951 . S
C3499 C3500 1.366 . S
C3499 C3501 1.388 . S
C3500 C3499 1.366 . S
C3500 C3504 1.385 . S
C3501 H3476 0.951 . S
C3501 C3499 1.388 . S
C3501 C3502 1.366 . S
C3502 C3501 1.366 . S
C3502 C3503 1.414 . S
C3502 C3505 1.499 . S
C3503 H3477 0.950 . S
C3503 C3502 1.414 . S
C3503 C3504 1.374 . S
C3504 H3478 0.950 . S
C3504 C3500 1.385 . S
C3504 C3503 1.374 . S
C3505 C3502 1.499 . S
C3505 C3506 1.373 . S
C3505 C3507 1.389 . S
C3506 H3479 0.950 . S
C3506 C3492 1.377 . S
C3506 C3505 1.373 . S
C3507 C3491 1.377 . S
C3507 C3505 1.389 . S
C3507 C3508 1.524 . S
C3508 C3507 1.524 . S
C3508 C3509 1.397 . S
C3508 C3513 1.363 . S
C3509 H3480 0.950 . S
C3509 C3508 1.397 . S
C3509 C3510 1.334 . S
C3510 H3481 0.950 . S
C3510 C3509 1.334 . S
C3510 C3511 1.287 . S
C3511 C3510 1.287 . S
C3511 C3512 1.524 . S
C3511 H3514 0.999 . S
C3512 H3482 0.950 . S
C3512 C3511 1.524 . S
C3512 C3513 1.415 . S
C3513 H3483 0.950 . S
C3513 C3508 1.363 . S
C3513 C3512 1.415 . S
H3514 C3511 0.999 . S
H3515 C3496 0.913 . S
H3516 C3534 0.951 . S
H3517 C3536 0.951 . S
H3518 C3538 0.950 . S
H3519 C3539 0.950 . S
H3520 C3541 0.950 . S
H3521 C3544 0.950 . S
H3522 C3545 0.950 . S
H3523 C3547 0.950 . S
H3524 C3548 0.950 . S
H3525 C3549 0.951 . S
H3526 C3551 0.951 . S
H3527 C3553 0.950 . S
H3528 C3554 0.950 . S
H3529 C3556 0.950 . S
H3530 C3559 0.950 . S
H3531 C3560 0.950 . S
H3532 C3562 0.950 . S
H3533 C3563 0.950 . S
C3534 H3516 0.951 . S
C3534 C3535 1.366 . S
C3534 C3536 1.388 . S
C3535 C3534 1.366 . S
C3535 C3539 1.385 . S
C3536 H3517 0.951 . S
C3536 C3534 1.388 . S
C3536 C3537 1.366 . S
C3537 C3536 1.366 . S
C3537 C3538 1.414 . S
C3537 C3540 1.499 . S
C3538 H3518 0.950 . S
C3538 C3537 1.414 . S
C3538 C3539 1.374 . S
C3539 H3519 0.950 . S
C3539 C3535 1.385 . S
C3539 C3538 1.374 . S
C3540 C3537 1.499 . S
C3540 C3541 1.373 . S
C3540 C3542 1.389 . S
C3541 H3520 0.950 . S
C3541 C3540 1.373 . S
C3541 C3557 1.377 . S
C3542 C3540 1.389 . S
C3542 C3543 1.524 . S
C3542 C3556 1.377 . S
C3543 C3542 1.524 . S
C3543 C3544 1.397 . S
C3543 C3548 1.363 . S
C3544 H3521 0.950 . S
C3544 C3543 1.397 . S
C3544 C3545 1.334 . S
C3545 H3522 0.950 . S
C3545 C3544 1.334 . S
C3545 C3546 1.287 . S
C3546 C3545 1.287 . S
C3546 C3547 1.524 . S
C3546 H3565 0.913 . S
C3547 H3523 0.950 . S
C3547 C3546 1.524 . S
C3547 C3548 1.415 . S
C3548 H3524 0.950 . S
C3548 C3543 1.363 . S
C3548 C3547 1.415 . S
C3549 H3525 0.951 . S
C3549 C3550 1.366 . S
C3549 C3551 1.388 . S
C3550 C3549 1.366 . S
C3550 C3554 1.385 . S
C3551 H3526 0.951 . S
C3551 C3549 1.388 . S
C3551 C3552 1.366 . S
C3552 C3551 1.366 . S
C3552 C3553 1.414 . S
C3552 C3555 1.499 . S
C3553 H3527 0.950 . S
C3553 C3552 1.414 . S
C3553 C3554 1.374 . S
C3554 H3528 0.950 . S
C3554 C3550 1.385 . S
C3554 C3553 1.374 . S
C3555 C3552 1.499 . S
C3555 C3556 1.373 . S
C3555 C3557 1.389 . S
C3556 H3529 0.950 . S
C3556 C3542 1.377 . S
C3556 C3555 1.373 . S
C3557 C3541 1.377 . S
C3557 C3555 1.389 . S
C3557 C3558 1.524 . S
C3558 C3557 1.524 . S
C3558 C3559 1.397 . S
C3558 C3563 1.363 . S
C3559 H3530 0.950 . S
C3559 C3558 1.397 . S
C3559 C3560 1.334 . S
C3560 H3531 0.950 . S
C3560 C3559 1.334 . S
C3560 C3561 1.287 . S
C3561 C3560 1.287 . S
C3561 C3562 1.524 . S
C3561 H3564 0.999 . S
C3562 H3532 0.950 . S
C3562 C3561 1.524 . S
C3562 C3563 1.415 . S
C3563 H3533 0.950 . S
C3563 C3558 1.363 . S
C3563 C3562 1.415 . S
H3564 C3561 0.999 . S
H3565 C3546 0.913 . S
H3566 C3584 0.951 . S
H3567 C3586 0.951 . S
H3568 C3588 0.950 . S
H3569 C3589 0.950 . S
H3570 C3591 0.950 . S
H3571 C3594 0.950 . S
H3572 C3595 0.950 . S
H3573 C3597 0.950 . S
H3574 C3598 0.950 . S
H3575 C3599 0.951 . S
H3576 C3601 0.951 . S
H3577 C3603 0.950 . S
H3578 C3604 0.950 . S
H3579 C3606 0.950 . S
H3580 C3609 0.950 . S
H3581 C3610 0.950 . S
H3582 C3612 0.950 . S
H3583 C3613 0.950 . S
C3584 H3566 0.951 . S
C3584 C3585 1.366 . S
C3584 C3586 1.388 . S
C3585 C3584 1.366 . S
C3585 C3589 1.385 . S
C3586 H3567 0.951 . S
C3586 C3584 1.388 . S
C3586 C3587 1.366 . S
C3587 C3586 1.366 . S
C3587 C3588 1.414 . S
C3587 C3590 1.499 . S
C3588 H3568 0.950 . S
C3588 C3587 1.414 . S
C3588 C3589 1.374 . S
C3589 H3569 0.950 . S
C3589 C3585 1.385 . S
C3589 C3588 1.374 . S
C3590 C3587 1.499 . S
C3590 C3591 1.373 . S
C3590 C3592 1.389 . S
C3591 H3570 0.950 . S
C3591 C3590 1.373 . S
C3591 C3607 1.377 . S
C3592 C3590 1.389 . S
C3592 C3593 1.524 . S
C3592 C3606 1.377 . S
C3593 C3592 1.524 . S
C3593 C3594 1.397 . S
C3593 C3598 1.363 . S
C3594 H3571 0.950 . S
C3594 C3593 1.397 . S
C3594 C3595 1.334 . S
C3595 H3572 0.950 . S
C3595 C3594 1.334 . S
C3595 C3596 1.287 . S
C3596 C3595 1.287 . S
C3596 C3597 1.524 . S
C3596 H3615 0.913 . S
C3597 H3573 0.950 . S
C3597 C3596 1.524 . S
C3597 C3598 1.415 . S
C3598 H3574 0.950 . S
C3598 C3593 1.363 . S
C3598 C3597 1.415 . S
C3599 H3575 0.951 . S
C3599 C3600 1.366 . S
C3599 C3601 1.388 . S
C3600 C3599 1.366 . S
C3600 C3604 1.385 . S
C3601 H3576 0.951 . S
C3601 C3599 1.388 . S
C3601 C3602 1.366 . S
C3602 C3601 1.366 . S
C3602 C3603 1.414 . S
C3602 C3605 1.499 . S
C3603 H3577 0.950 . S
C3603 C3602 1.414 . S
C3603 C3604 1.374 . S
C3604 H3578 0.950 . S
C3604 C3600 1.385 . S
C3604 C3603 1.374 . S
C3605 C3602 1.499 . S
C3605 C3606 1.373 . S
C3605 C3607 1.389 . S
C3606 H3579 0.950 . S
C3606 C3592 1.377 . S
C3606 C3605 1.373 . S
C3607 C3591 1.377 . S
C3607 C3605 1.389 . S
C3607 C3608 1.524 . S
C3608 C3607 1.524 . S
C3608 C3609 1.397 . S
C3608 C3613 1.363 . S
C3609 H3580 0.950 . S
C3609 C3608 1.397 . S
C3609 C3610 1.334 . S
C3610 H3581 0.950 . S
C3610 C3609 1.334 . S
C3610 C3611 1.287 . S
C3611 C3610 1.287 . S
C3611 C3612 1.524 . S
C3611 H3614 0.999 . S
C3612 H3582 0.950 . S
C3612 C3611 1.524 . S
C3612 C3613 1.415 . S
C3613 H3583 0.950 . S
C3613 C3608 1.363 . S
C3613 C3612 1.415 . S
H3614 C3611 0.999 . S
H3615 C3596 0.913 . S
H3616 C3634 0.951 . S
H3617 C3636 0.951 . S
H3618 C3638 0.950 . S
H3619 C3639 0.950 . S
H3620 C3641 0.950 . S
H3621 C3644 0.950 . S
H3622 C3645 0.950 . S
H3623 C3647 0.950 . S
H3624 C3648 0.950 . S
H3625 C3649 0.951 . S
H3626 C3651 0.951 . S
H3627 C3653 0.950 . S
H3628 C3654 0.950 . S
H3629 C3656 0.950 . S
H3630 C3659 0.950 . S
H3631 C3660 0.950 . S
H3632 C3662 0.950 . S
H3633 C3663 0.950 . S
C3634 H3616 0.951 . S
C3634 C3635 1.366 . S
C3634 C3636 1.388 . S
C3635 C3634 1.366 . S
C3635 C3639 1.385 . S
C3636 H3617 0.951 . S
C3636 C3634 1.388 . S
C3636 C3637 1.366 . S
C3637 C3636 1.366 . S
C3637 C3638 1.414 . S
C3637 C3640 1.499 . S
C3638 H3618 0.950 . S
C3638 C3637 1.414 . S
C3638 C3639 1.374 . S
C3639 H3619 0.950 . S
C3639 C3635 1.385 . S
C3639 C3638 1.374 . S
C3640 C3637 1.499 . S
C3640 C3641 1.373 . S
C3640 C3642 1.389 . S
C3641 H3620 0.950 . S
C3641 C3640 1.373 . S
C3641 C3657 1.377 . S
C3642 C3640 1.389 . S
C3642 C3643 1.524 . S
C3642 C3656 1.377 . S
C3643 C3642 1.524 . S
C3643 C3644 1.397 . S
C3643 C3648 1.363 . S
C3644 H3621 0.950 . S
C3644 C3643 1.397 . S
C3644 C3645 1.334 . S
C3645 H3622 0.950 . S
C3645 C3644 1.334 . S
C3645 C3646 1.287 . S
C3646 C3645 1.287 . S
C3646 C3647 1.524 . S
C3646 H3665 0.913 . S
C3647 H3623 0.950 . S
C3647 C3646 1.524 . S
C3647 C3648 1.415 . S
C3648 H3624 0.950 . S
C3648 C3643 1.363 . S
C3648 C3647 1.415 . S
C3649 H3625 0.951 . S
C3649 C3650 1.366 . S
C3649 C3651 1.388 . S
C3650 C3649 1.366 . S
C3650 C3654 1.385 . S
C3651 H3626 0.951 . S
C3651 C3649 1.388 . S
C3651 C3652 1.366 . S
C3652 C3651 1.366 . S
C3652 C3653 1.414 . S
C3652 C3655 1.499 . S
C3653 H3627 0.950 . S
C3653 C3652 1.414 . S
C3653 C3654 1.374 . S
C3654 H3628 0.950 . S
C3654 C3650 1.385 . S
C3654 C3653 1.374 . S
C3655 C3652 1.499 . S
C3655 C3656 1.373 . S
C3655 C3657 1.389 . S
C3656 H3629 0.950 . S
C3656 C3642 1.377 . S
C3656 C3655 1.373 . S
C3657 C3641 1.377 . S
C3657 C3655 1.389 . S
C3657 C3658 1.524 . S
C3658 C3657 1.524 . S
C3658 C3659 1.397 . S
C3658 C3663 1.363 . S
C3659 H3630 0.950 . S
C3659 C3658 1.397 . S
C3659 C3660 1.334 . S
C3660 H3631 0.950 . S
C3660 C3659 1.334 . S
C3660 C3661 1.287 . S
C3661 C3660 1.287 . S
C3661 C3662 1.524 . S
C3661 H3664 0.999 . S
C3662 H3632 0.950 . S
C3662 C3661 1.524 . S
C3662 C3663 1.415 . S
C3663 H3633 0.950 . S
C3663 C3658 1.363 . S
C3663 C3662 1.415 . S
H3664 C3661 0.999 . S
H3665 C3646 0.913 . S
H3666 C3684 0.951 . S
H3667 C3686 0.951 . S
H3668 C3688 0.950 . S
H3669 C3689 0.950 . S
H3670 C3691 0.950 . S
H3671 C3694 0.950 . S
H3672 C3695 0.950 . S
H3673 C3697 0.950 . S
H3674 C3698 0.950 . S
H3675 C3699 0.951 . S
H3676 C3701 0.951 . S
H3677 C3703 0.950 . S
H3678 C3704 0.950 . S
H3679 C3706 0.950 . S
H3680 C3709 0.950 . S
H3681 C3710 0.950 . S
H3682 C3712 0.950 . S
H3683 C3713 0.950 . S
C3684 H3666 0.951 . S
C3684 C3685 1.366 . S
C3684 C3686 1.388 . S
C3685 C3684 1.366 . S
C3685 C3689 1.385 . S
C3686 H3667 0.951 . S
C3686 C3684 1.388 . S
C3686 C3687 1.366 . S
C3687 C3686 1.366 . S
C3687 C3688 1.414 . S
C3687 C3690 1.499 . S
C3688 H3668 0.950 . S
C3688 C3687 1.414 . S
C3688 C3689 1.374 . S
C3689 H3669 0.950 . S
C3689 C3685 1.385 . S
C3689 C3688 1.374 . S
C3690 C3687 1.499 . S
C3690 C3691 1.373 . S
C3690 C3692 1.389 . S
C3691 H3670 0.950 . S
C3691 C3690 1.373 . S
C3691 C3707 1.377 . S
C3692 C3690 1.389 . S
C3692 C3693 1.524 . S
C3692 C3706 1.377 . S
C3693 C3692 1.524 . S
C3693 C3694 1.397 . S
C3693 C3698 1.363 . S
C3694 H3671 0.950 . S
C3694 C3693 1.397 . S
C3694 C3695 1.334 . S
C3695 H3672 0.950 . S
C3695 C3694 1.334 . S
C3695 C3696 1.287 . S
C3696 C3695 1.287 . S
C3696 C3697 1.524 . S
C3696 H3715 0.913 . S
C3697 H3673 0.950 . S
C3697 C3696 1.524 . S
C3697 C3698 1.415 . S
C3698 H3674 0.950 . S
C3698 C3693 1.363 . S
C3698 C3697 1.415 . S
C3699 H3675 0.951 . S
C3699 C3700 1.366 . S
C3699 C3701 1.388 . S
C3700 C3699 1.366 . S
C3700 C3704 1.385 . S
C3701 H3676 0.951 . S
C3701 C3699 1.388 . S
C3701 C3702 1.366 . S
C3702 C3701 1.366 . S
C3702 C3703 1.414 . S
C3702 C3705 1.499 . S
C3703 H3677 0.950 . S
C3703 C3702 1.414 . S
C3703 C3704 1.374 . S
C3704 H3678 0.950 . S
C3704 C3700 1.385 . S
C3704 C3703 1.374 . S
C3705 C3702 1.499 . S
C3705 C3706 1.373 . S
C3705 C3707 1.389 . S
C3706 H3679 0.950 . S
C3706 C3692 1.377 . S
C3706 C3705 1.373 . S
C3707 C3691 1.377 . S
C3707 C3705 1.389 . S
C3707 C3708 1.524 . S
C3708 C3707 1.524 . S
C3708 C3709 1.397 . S
C3708 C3713 1.363 . S
C3709 H3680 0.950 . S
C3709 C3708 1.397 . S
C3709 C3710 1.334 . S
C3710 H3681 0.950 . S
C3710 C3709 1.334 . S
C3710 C3711 1.287 . S
C3711 C3710 1.287 . S
C3711 C3712 1.524 . S
C3711 H3714 0.999 . S
C3712 H3682 0.950 . S
C3712 C3711 1.524 . S
C3712 C3713 1.415 . S
C3713 H3683 0.950 . S
C3713 C3708 1.363 . S
C3713 C3712 1.415 . S
H3714 C3711 0.999 . S
H3715 C3696 0.913 . S
H3716 C3734 0.951 . S
H3717 C3736 0.951 . S
H3718 C3738 0.950 . S
H3719 C3739 0.950 . S
H3720 C3741 0.950 . S
H3721 C3744 0.950 . S
H3722 C3745 0.950 . S
H3723 C3747 0.950 . S
H3724 C3748 0.950 . S
H3725 C3749 0.951 . S
H3726 C3751 0.951 . S
H3727 C3753 0.950 . S
H3728 C3754 0.950 . S
H3729 C3756 0.950 . S
H3730 C3759 0.950 . S
H3731 C3760 0.950 . S
H3732 C3762 0.950 . S
H3733 C3763 0.950 . S
C3734 H3716 0.951 . S
C3734 C3735 1.366 . S
C3734 C3736 1.388 . S
C3735 C3734 1.366 . S
C3735 C3739 1.385 . S
C3736 H3717 0.951 . S
C3736 C3734 1.388 . S
C3736 C3737 1.366 . S
C3737 C3736 1.366 . S
C3737 C3738 1.414 . S
C3737 C3740 1.499 . S
C3738 H3718 0.950 . S
C3738 C3737 1.414 . S
C3738 C3739 1.374 . S
C3739 H3719 0.950 . S
C3739 C3735 1.385 . S
C3739 C3738 1.374 . S
C3740 C3737 1.499 . S
C3740 C3741 1.373 . S
C3740 C3742 1.389 . S
C3741 H3720 0.950 . S
C3741 C3740 1.373 . S
C3741 C3757 1.377 . S
C3742 C3740 1.389 . S
C3742 C3743 1.524 . S
C3742 C3756 1.377 . S
C3743 C3742 1.524 . S
C3743 C3744 1.397 . S
C3743 C3748 1.363 . S
C3744 H3721 0.950 . S
C3744 C3743 1.397 . S
C3744 C3745 1.334 . S
C3745 H3722 0.950 . S
C3745 C3744 1.334 . S
C3745 C3746 1.287 . S
C3746 C3745 1.287 . S
C3746 C3747 1.524 . S
C3746 H3765 0.913 . S
C3747 H3723 0.950 . S
C3747 C3746 1.524 . S
C3747 C3748 1.415 . S
C3748 H3724 0.950 . S
C3748 C3743 1.363 . S
C3748 C3747 1.415 . S
C3749 H3725 0.951 . S
C3749 C3750 1.366 . S
C3749 C3751 1.388 . S
C3750 C3749 1.366 . S
C3750 C3754 1.385 . S
C3751 H3726 0.951 . S
C3751 C3749 1.388 . S
C3751 C3752 1.366 . S
C3752 C3751 1.366 . S
C3752 C3753 1.414 . S
C3752 C3755 1.499 . S
C3753 H3727 0.950 . S
C3753 C3752 1.414 . S
C3753 C3754 1.374 . S
C3754 H3728 0.950 . S
C3754 C3750 1.385 . S
C3754 C3753 1.374 . S
C3755 C3752 1.499 . S
C3755 C3756 1.373 . S
C3755 C3757 1.389 . S
C3756 H3729 0.950 . S
C3756 C3742 1.377 . S
C3756 C3755 1.373 . S
C3757 C3741 1.377 . S
C3757 C3755 1.389 . S
C3757 C3758 1.524 . S
C3758 C3757 1.524 . S
C3758 C3759 1.397 . S
C3758 C3763 1.363 . S
C3759 H3730 0.950 . S
C3759 C3758 1.397 . S
C3759 C3760 1.334 . S
C3760 H3731 0.950 . S
C3760 C3759 1.334 . S
C3760 C3761 1.287 . S
C3761 C3760 1.287 . S
C3761 C3762 1.524 . S
C3761 H3764 0.999 . S
C3762 H3732 0.950 . S
C3762 C3761 1.524 . S
C3762 C3763 1.415 . S
C3763 H3733 0.950 . S
C3763 C3758 1.363 . S
C3763 C3762 1.415 . S
H3764 C3761 0.999 . S
H3765 C3746 0.913 . S
H3766 C3784 0.951 . S
H3767 C3786 0.951 . S
H3768 C3788 0.950 . S
H3769 C3789 0.950 . S
H3770 C3791 0.950 . S
H3771 C3794 0.950 . S
H3772 C3795 0.950 . S
H3773 C3797 0.950 . S
H3774 C3798 0.950 . S
H3775 C3799 0.951 . S
H3776 C3801 0.951 . S
H3777 C3803 0.950 . S
H3778 C3804 0.950 . S
H3779 C3806 0.950 . S
H3780 C3809 0.950 . S
H3781 C3810 0.950 . S
H3782 C3812 0.950 . S
H3783 C3813 0.950 . S
C3784 H3766 0.951 . S
C3784 C3785 1.366 . S
C3784 C3786 1.388 . S
C3785 C3784 1.366 . S
C3785 C3789 1.385 . S
C3786 H3767 0.951 . S
C3786 C3784 1.388 . S
C3786 C3787 1.366 . S
C3787 C3786 1.366 . S
C3787 C3788 1.414 . S
C3787 C3790 1.499 . S
C3788 H3768 0.950 . S
C3788 C3787 1.414 . S
C3788 C3789 1.374 . S
C3789 H3769 0.950 . S
C3789 C3785 1.385 . S
C3789 C3788 1.374 . S
C3790 C3787 1.499 . S
C3790 C3791 1.373 . S
C3790 C3792 1.389 . S
C3791 H3770 0.950 . S
C3791 C3790 1.373 . S
C3791 C3807 1.377 . S
C3792 C3790 1.389 . S
C3792 C3793 1.524 . S
C3792 C3806 1.377 . S
C3793 C3792 1.524 . S
C3793 C3794 1.397 . S
C3793 C3798 1.363 . S
C3794 H3771 0.950 . S
C3794 C3793 1.397 . S
C3794 C3795 1.334 . S
C3795 H3772 0.950 . S
C3795 C3794 1.334 . S
C3795 C3796 1.287 . S
C3796 C3795 1.287 . S
C3796 C3797 1.524 . S
C3796 H3815 0.913 . S
C3797 H3773 0.950 . S
C3797 C3796 1.524 . S
C3797 C3798 1.415 . S
C3798 H3774 0.950 . S
C3798 C3793 1.363 . S
C3798 C3797 1.415 . S
C3799 H3775 0.951 . S
C3799 C3800 1.366 . S
C3799 C3801 1.388 . S
C3800 C3799 1.366 . S
C3800 C3804 1.385 . S
C3801 H3776 0.951 . S
C3801 C3799 1.388 . S
C3801 C3802 1.366 . S
C3802 C3801 1.366 . S
C3802 C3803 1.414 . S
C3802 C3805 1.499 . S
C3803 H3777 0.950 . S
C3803 C3802 1.414 . S
C3803 C3804 1.374 . S
C3804 H3778 0.950 . S
C3804 C3800 1.385 . S
C3804 C3803 1.374 . S
C3805 C3802 1.499 . S
C3805 C3806 1.373 . S
C3805 C3807 1.389 . S
C3806 H3779 0.950 . S
C3806 C3792 1.377 . S
C3806 C3805 1.373 . S
C3807 C3791 1.377 . S
C3807 C3805 1.389 . S
C3807 C3808 1.524 . S
C3808 C3807 1.524 . S
C3808 C3809 1.397 . S
C3808 C3813 1.363 . S
C3809 H3780 0.950 . S
C3809 C3808 1.397 . S
C3809 C3810 1.334 . S
C3810 H3781 0.950 . S
C3810 C3809 1.334 . S
C3810 C3811 1.287 . S
C3811 C3810 1.287 . S
C3811 C3812 1.524 . S
C3811 H3814 0.999 . S
C3812 H3782 0.950 . S
C3812 C3811 1.524 . S
C3812 C3813 1.415 . S
C3813 H3783 0.950 . S
C3813 C3808 1.363 . S
C3813 C3812 1.415 . S
H3814 C3811 0.999 . S
H3815 C3796 0.913 . S
C835 C203 0.406 . S
C850 C33 0.406 . S
C885 C67 0.407 . S
C900 C237 0.405 . S
C935 C101 0.405 . S
C950 C271 0.407 . S
C985 C169 0.405 . S
C1000 C135 0.407 . S
C1035 C305 0.406 . S
C1050 C815 0.405 . S
C1085 C747 0.407 . S
C1100 C339 0.405 . S
C1135 C373 0.407 . S
C1150 C781 0.405 . S
C1185 C577 0.406 . S
C1200 C407 0.406 . S
C1235 C441 0.406 . S
C1250 C713 0.405 . S
C1285 C475 0.406 . S
C1300 C611 0.406 . S
C1335 C645 0.406 . S
C1350 C509 0.406 . S
C1385 C543 0.407 . S
C1400 C679 0.406 . S
C1435 C104 1.963 . S
C1450 C5 1.912 . S
C1485 C39 1.912 . S
C1500 C2 1.963 . S
C1535 C73 1.912 . S
C1550 C36 1.963 . S
C1585 C70 1.963 . S
C1600 C107 1.912 . S
C1635 C172 1.963 . S
C1650 C141 1.912 . S
C1685 C175 1.913 . S
C1700 C206 1.963 . S
C1735 C240 1.963 . S
C1750 C209 1.912 . S
C1785 C138 1.963 . S
C1800 C243 1.912 . S
C1835 C614 1.963 . S
C1850 C277 1.912 . S
C1885 C311 1.912 . S
C1900 C648 1.963 . S
C1935 C682 1.963 . S
C1950 C345 1.912 . S
C1985 C379 1.912 . S
C2000 C580 1.963 . S
C2035 C750 1.963 . S
C2050 C413 1.912 . S
C2085 C447 1.912 . S
C2100 C546 1.963 . S
C2135 C784 1.963 . S
C2150 C481 1.912 . S
C2185 C515 1.912 . S
C2200 C716 1.963 . S
C2235 C308 1.963 . S
C2250 C549 1.912 . S
C2285 C512 1.963 . S
C2300 C583 1.912 . S
C2335 C617 1.912 . S
C2350 C410 1.963 . S
C2385 C651 1.912 . S
C2400 C444 1.963 . S
C2435 C478 1.963 . S
C2450 C685 1.912 . S
C2485 C376 1.963 . S
C2500 C719 1.912 . S
C2535 C274 1.963 . S
C2550 C753 1.912 . S
C2585 C787 1.912 . S
C2600 C342 1.963 . S
C2635 C9 1.239 . S
C2650 C564 1.252 . S
C2685 C802 1.252 . S
C2700 C43 1.239 . S
C2735 C77 1.239 . S
C2750 C734 1.252 . S
C2785 C768 1.252 . S
C2800 C111 1.239 . S
C2835 C145 1.239 . S
C2850 C598 1.252 . S
C2885 C179 1.239 . S
C2900 C632 1.252 . S
C2935 C666 1.252 . S
C2950 C213 1.239 . S
C2985 C700 1.252 . S
C3000 C247 1.239 . S
C3035 C20 1.252 . S
C3050 C281 1.239 . S
C3085 C315 1.239 . S
C3100 C54 1.252 . S
C3135 C349 1.239 . S
C3150 C88 1.252 . S
C3185 C383 1.239 . S
C3200 C122 1.252 . S
C3235 C417 1.240 . S
C3250 C156 1.252 . S
C3285 C451 1.239 . S
C3300 C190 1.252 . S
C3335 C485 1.239 . S
C3350 C224 1.252 . S
C3385 C519 1.239 . S
C3400 C258 1.252 . S
C3435 C292 1.252 . S
C3450 C553 1.239 . S
C3485 C587 1.239 . S
C3500 C428 1.252 . S
C3535 C621 1.239 . S
C3550 C462 1.252 . S
C3585 C496 1.252 . S
C3600 C655 1.239 . S
C3635 C689 1.239 . S
C3650 C530 1.252 . S
C3685 C360 1.252 . S
C3700 C723 1.239 . S
C3735 C394 1.252 . S
C3750 C757 1.239 . S
C3785 C791 1.239 . S
C3800 C326 1.252 . S
