# Generated by pormake.
# Topology fna, (5)-cn, num edge types: 1
# Building blocks:
#     Node 0, Type 0, BuildingBlock: XOMCOT_clean_sbu_1, # of connection points: 5
#     Node 1, Type 0, BuildingBlock: XOMCOT_clean_sbu_1, # of connection points: 5
#     Node 2, Type 0, BuildingBlock: XOMCOT_clean_sbu_1, # of connection points: 5
#     Node 3, Type 0, BuildingBlock: XOMCOT_clean_sbu_1, # of connection points: 5
#     Node 4, Type 0, BuildingBlock: XOMCOT_clean_sbu_1, # of connection points: 5
#     Node 5, Type 0, BuildingBlock: XOMCOT_clean_sbu_1, # of connection points: 5
#     Node 6, Type 0, BuildingBlock: XOMCOT_clean_sbu_1, # of connection points: 5
#     Node 7, Type 0, BuildingBlock: XOMCOT_clean_sbu_1, # of connection points: 5
#     Node 8, Type 0, BuildingBlock: XOMCOT_clean_sbu_1, # of connection points: 5
#     Node 9, Type 0, BuildingBlock: XOMCOT_clean_sbu_1, # of connection points: 5
#     Node 10, Type 0, BuildingBlock: XOMCOT_clean_sbu_1, # of connection points: 5
#     Node 11, Type 0, BuildingBlock: XOMCOT_clean_sbu_1, # of connection points: 5
#     Edge 12, Type (0, 0), BuildingBlock: CIFDUS_clean_linker_0, # of connection points: 2
#     Edge 13, Type (0, 0), BuildingBlock: CIFDUS_clean_linker_0, # of connection points: 2
#     Edge 14, Type (0, 0), BuildingBlock: CIFDUS_clean_linker_0, # of connection points: 2
#     Edge 15, Type (0, 0), BuildingBlock: CIFDUS_clean_linker_0, # of connection points: 2
#     Edge 16, Type (0, 0), BuildingBlock: CIFDUS_clean_linker_0, # of connection points: 2
#     Edge 17, Type (0, 0), BuildingBlock: CIFDUS_clean_linker_0, # of connection points: 2
#     Edge 18, Type (0, 0), BuildingBlock: CIFDUS_clean_linker_0, # of connection points: 2
#     Edge 19, Type (0, 0), BuildingBlock: CIFDUS_clean_linker_0, # of connection points: 2
#     Edge 20, Type (0, 0), BuildingBlock: CIFDUS_clean_linker_0, # of connection points: 2
#     Edge 21, Type (0, 0), BuildingBlock: CIFDUS_clean_linker_0, # of connection points: 2
#     Edge 22, Type (0, 0), BuildingBlock: CIFDUS_clean_linker_0, # of connection points: 2
#     Edge 23, Type (0, 0), BuildingBlock: CIFDUS_clean_linker_0, # of connection points: 2
#     Edge 24, Type (0, 0), BuildingBlock: CIFDUS_clean_linker_0, # of connection points: 2
#     Edge 25, Type (0, 0), BuildingBlock: CIFDUS_clean_linker_0, # of connection points: 2
#     Edge 26, Type (0, 0), BuildingBlock: CIFDUS_clean_linker_0, # of connection points: 2
#     Edge 27, Type (0, 0), BuildingBlock: CIFDUS_clean_linker_0, # of connection points: 2
#     Edge 28, Type (0, 0), BuildingBlock: CIFDUS_clean_linker_0, # of connection points: 2
#     Edge 29, Type (0, 0), BuildingBlock: CIFDUS_clean_linker_0, # of connection points: 2
#     Edge 30, Type (0, 0), BuildingBlock: CIFDUS_clean_linker_0, # of connection points: 2
#     Edge 31, Type (0, 0), BuildingBlock: CIFDUS_clean_linker_0, # of connection points: 2
#     Edge 32, Type (0, 0), BuildingBlock: CIFDUS_clean_linker_0, # of connection points: 2
#     Edge 33, Type (0, 0), BuildingBlock: CIFDUS_clean_linker_0, # of connection points: 2
#     Edge 34, Type (0, 0), BuildingBlock: CIFDUS_clean_linker_0, # of connection points: 2
#     Edge 35, Type (0, 0), BuildingBlock: CIFDUS_clean_linker_0, # of connection points: 2
#     Edge 36, Type (0, 0), BuildingBlock: CIFDUS_clean_linker_0, # of connection points: 2
#     Edge 37, Type (0, 0), BuildingBlock: CIFDUS_clean_linker_0, # of connection points: 2
#     Edge 38, Type (0, 0), BuildingBlock: CIFDUS_clean_linker_0, # of connection points: 2
#     Edge 39, Type (0, 0), BuildingBlock: CIFDUS_clean_linker_0, # of connection points: 2
#     Edge 40, Type (0, 0), BuildingBlock: CIFDUS_clean_linker_0, # of connection points: 2
#     Edge 41, Type (0, 0), BuildingBlock: CIFDUS_clean_linker_0, # of connection points: 2
# Relax obj value: 0.386
# Max RMSD: 0.209
# Mean RMSD: 0.209
data_MOF--net-fna--node1-XOMCOT_clean_sbu_1--edge1-CIFDUS_clean_linker_0
_symmetry_space_group_name_H-M    P1
_symmetry_Int_Tables_number       1
_symmetry_cell_setting            triclinic
loop_
_symmetry_equiv_pos_as_xyz
'x, y, z'
_cell_length_a     40.757318
_cell_length_b     40.735329
_cell_length_c     37.890754
_cell_angle_alpha  89.840736
_cell_angle_beta   90.020469
_cell_angle_gamma 119.92263
loop_
_atom_site_label
_atom_site_type_symbol
_atom_site_fract_x
_atom_site_fract_y
_atom_site_fract_z
_atom_type_partial_charge
C0 C 0.41247 0.34535 0.51527 0.0
C1 C 0.41705 0.35385 0.55061 0.0
N2 N 0.3825 0.33843 0.56576 0.0
N3 N 0.37525 0.32487 0.50803 0.0
C4 C 0.35765 0.32096 0.5392 0.0
H5 H 0.43479 0.35252 0.49619 0.0
Co6 Co 0.35529 0.30204 0.46499 0.0
C7 C 0.28851 0.31597 0.46466 0.0
O8 O 0.30124 0.34072 0.43876 0.0
N9 N 0.3359 0.27755 0.42153 0.0
C10 C 0.31293 0.2602 0.36716 0.0
C11 C 0.32036 0.28588 0.39387 0.0
C12 C 0.3379 0.247 0.41067 0.0
N13 N 0.32392 0.23564 0.37791 0.0
O14 O 0.33523 0.25393 0.48814 0.0
H15 H 0.31617 0.30993 0.39221 0.0
H16 H 0.35082 0.23406 0.42593 0.0
O17 O 0.30767 0.30088 0.47554 0.0
C18 C 0.36042 0.24528 0.49563 0.0
O19 O 0.39484 0.26698 0.48328 0.0
N20 N 0.37799 0.3505 0.4434 0.0
C21 C 0.43045 0.42448 0.42268 0.0
C22 C 0.40418 0.41781 0.44951 0.0
C23 C 0.37825 0.38065 0.45953 0.0
C24 C 0.40264 0.35653 0.41648 0.0
C25 C 0.42865 0.39326 0.40531 0.0
H26 H 0.36026 0.37624 0.48209 0.0
H27 H 0.40405 0.33293 0.40516 0.0
H28 H 0.32725 0.30485 0.54234 0.0
H29 H 0.44389 0.36896 0.56417 0.0
H30 H 0.30079 0.25996 0.34169 0.0
H31 H 0.4048 0.44115 0.46372 0.0
H32 H 0.44897 0.39718 0.38497 0.0
C33 C 0.08674 0.39946 0.67891 0.0
C34 C 0.08379 0.40673 0.71389 0.0
N35 N 0.06425 0.37331 0.73097 0.0
N36 N 0.06867 0.3617 0.67401 0.0
C37 C 0.05549 0.34658 0.70611 0.0
H38 H 0.10189 0.42026 0.65852 0.0
Co39 Co 0.06829 0.33632 0.63344 0.0
C40 C 0.98699 0.2741 0.63334 0.0
O41 O 0.98131 0.28238 0.60118 0.0
N42 N 0.07077 0.31116 0.59297 0.0
C43 C 0.07261 0.26731 0.55921 0.0
C44 C 0.05246 0.27389 0.58472 0.0
C45 C 0.10216 0.32623 0.57253 0.0
N46 N 0.10383 0.30041 0.55163 0.0
O47 O 0.09324 0.31484 0.65906 0.0
H48 H 0.02847 0.25193 0.59874 0.0
H49 H 0.12549 0.35483 0.57566 0.0
O50 O 1.01962 0.29324 0.64747 0.0
C51 C 0.1286 0.33731 0.66238 0.0
O52 O 0.14386 0.36985 0.64545 0.0
N53 N 0.04533 0.36047 0.60864 0.0
C54 C 0.03475 0.42098 0.58907 0.0
C55 C 1.01152 0.39474 0.61474 0.0
C56 C 1.0171 0.3645 0.624 0.0
C57 C 0.06543 0.38357 0.58125 0.0
C58 C 0.06003 0.41334 0.57061 0.0
H59 H 1.00183 0.34727 0.64649 0.0
H60 H 0.08854 0.38187 0.56961 0.0
H61 H 0.04044 0.31645 0.71121 0.0
H62 H 0.09624 0.43442 0.72596 0.0
H63 H 0.0662 0.23999 0.54888 0.0
H64 H 0.99166 0.39936 0.62988 0.0
H65 H 0.07789 0.43211 0.54988 0.0
C66 C 0.69572 0.06892 0.85326 0.0
C67 C 0.68633 0.06356 0.88838 0.0
N68 N 0.70196 0.04439 0.90308 0.0
N69 N 0.71695 0.053 0.84565 0.0
C70 C 0.72058 0.03851 0.87653 0.0
H71 H 0.68834 0.08425 0.83451 0.0
Co72 Co 0.73887 0.05694 0.80186 0.0
C73 C 0.73197 0.98009 0.79339 0.0
O74 O 0.71827 0.97618 0.76143 0.0
N75 N 0.76217 0.06359 0.75659 0.0
C76 C 0.7717 0.06503 0.69842 0.0
C77 C 0.74699 0.04618 0.72558 0.0
C78 C 0.79617 0.09336 0.74701 0.0
N79 N 0.80262 0.09505 0.71187 0.0
O80 O 0.78744 0.08508 0.82398 0.0
H81 H 0.71847 0.02303 0.722 0.0
H82 H 0.81483 0.11525 0.76496 0.0
O83 O 0.74028 1.0099 0.81117 0.0
C84 C 0.79544 0.11882 0.83103 0.0
O85 O 0.77337 0.1309 0.81813 0.0
N86 N 0.68989 0.03117 0.78214 0.0
C87 C 0.61423 1.00989 0.77067 0.0
C88 C 0.62371 0.98703 0.79095 0.0
C89 C 0.66181 0.99805 0.79623 0.0
C90 C 0.68101 0.0529 0.76116 0.0
C91 C 0.64329 0.04235 0.75449 0.0
H92 H 0.66854 0.98205 0.81472 0.0
H93 H 0.70325 0.08009 0.7518 0.0
H94 H 0.73701 0.0245 0.8795 0.0
H95 H 0.67026 0.07414 0.90216 0.0
H96 H 0.76635 0.05807 0.6707 0.0
H97 H 0.60194 0.96213 0.80435 0.0
H98 H 0.63698 0.06109 0.73929 0.0
C99 C 0.61971 0.67029 0.01482 0.0
C100 C 0.61086 0.65305 0.04742 0.0
N101 N 0.64319 0.6657 0.06599 0.0
N102 N 0.65745 0.6935 0.01274 0.0
C103 C 0.67097 0.69016 0.0442 0.0
H104 H 0.59989 0.66695 0.99424 0.0
Co105 Co 0.68358 0.72653 0.97583 0.0
C106 C 0.76264 0.74859 0.99121 0.0
O107 O 0.77235 0.78428 0.98658 0.0
N108 N 0.70905 0.76046 0.93881 0.0
C109 C 0.74224 0.79001 0.89082 0.0
C110 C 0.73086 0.75902 0.91275 0.0
C111 C 0.70752 0.79226 0.93214 0.0
N112 N 0.72762 0.81097 0.90329 0.0
O113 O 0.69887 0.76788 0.00795 0.0
H114 H 0.73778 0.73676 0.90976 0.0
H115 H 0.69109 0.80116 0.94761 0.0
O116 O 0.72822 0.72274 0.98699 0.0
C117 C 0.67082 0.77258 0.01435 0.0
O118 O 0.63957 0.75285 0.99606 0.0
N119 N 0.66534 0.68501 0.94514 0.0
C120 C 0.60797 0.61548 0.92025 0.0
C121 C 0.63614 0.61729 0.943 0.0
C122 C 0.66512 0.65253 0.95465 0.0
C123 C 0.64131 0.68421 0.91977 0.0
C124 C 0.61309 0.64978 0.90623 0.0
H125 H 0.68385 0.65314 0.97517 0.0
H126 H 0.64132 0.70994 0.91266 0.0
H127 H 0.70063 0.70606 0.05106 0.0
H128 H 0.58262 0.63388 0.05706 0.0
H129 H 0.76003 0.79668 0.86767 0.0
H130 H 0.63396 0.59199 0.95461 0.0
H131 H 0.59348 0.65023 0.88725 0.0
C132 C 0.96767 0.63179 0.17972 0.0
C133 C 0.97492 0.62678 0.21417 0.0
N134 N 0.9944 0.66111 0.2295 0.0
N135 N 0.98277 0.6691 0.17324 0.0
C136 C 0.9987 0.68624 0.20402 0.0
H137 H 0.95168 0.60967 0.16075 0.0
Co138 Co 0.97729 0.69048 0.13176 0.0
C139 C 0.05802 0.75754 0.13025 0.0
O140 O 0.06921 0.74643 0.10256 0.0
N141 N 0.96981 0.71155 0.09018 0.0
C142 C 0.97482 0.741 0.03912 0.0
C143 C 0.99288 0.7293 0.0625 0.0
C144 C 0.93758 0.71194 0.08236 0.0
N145 N 0.93997 0.73 0.05173 0.0
O146 O 0.9505 0.70955 0.15837 0.0
H147 H 1.02078 0.73311 0.05893 0.0
H148 H 0.91287 0.69993 0.09917 0.0
O149 O 0.02419 0.73771 0.14187 0.0
C150 C 0.91765 0.68375 0.16774 0.0
O151 O 0.90454 0.64948 0.15496 0.0
N152 N 1.00198 0.66881 0.10673 0.0
C153 C 1.0211 0.6154 0.08363 0.0
C154 C 0.0427 0.64188 0.10953 0.0
C155 C 0.03269 0.66832 0.12074 0.0
C156 C 0.98178 0.64443 0.08022 0.0
C157 C 0.99124 0.61785 0.06788 0.0
H158 H 0.04759 0.68606 0.14301 0.0
H159 H 0.95636 0.64343 0.07048 0.0
H160 H 1.01265 0.71657 0.20771 0.0
H161 H 0.96535 0.59981 0.22716 0.0
H162 H 0.98632 0.75612 0.01459 0.0
H163 H 0.06585 0.64076 0.12244 0.0
H164 H 0.97347 0.59745 0.0482 0.0
C165 C 0.36575 0.96461 0.33396 0.0
C166 C 0.38301 0.97035 0.36633 0.0
N167 N 0.36771 0.98528 0.38792 0.0
N168 N 0.34039 0.97674 0.33509 0.0
C169 C 0.34186 0.9887 0.36848 0.0
H170 H 0.37124 0.95233 0.31103 0.0
Co171 Co 0.30919 0.97455 0.29837 0.0
C172 C 0.32069 0.05302 0.29875 0.0
O173 O 0.32779 0.05667 0.26469 0.0
N174 N 0.27599 0.96957 0.2617 0.0
C175 C 0.22482 0.96413 0.23485 0.0
C176 C 0.25293 0.98447 0.25894 0.0
C177 C 0.26038 0.93946 0.23968 0.0
N178 N 0.22942 0.93564 0.22292 0.0
O179 O 0.26622 0.94739 0.32837 0.0
H180 H 0.25327 1.00578 0.27601 0.0
H181 H 0.26878 0.91812 0.23908 0.0
O182 O 0.31299 0.02211 0.31441 0.0
C183 C 0.25696 0.91317 0.33464 0.0
O184 O 0.27577 0.89894 0.31883 0.0
N185 N 0.35288 1.00021 0.26918 0.0
C186 C 0.42501 0.01949 0.24461 0.0
C187 C 0.42038 0.04209 0.26957 0.0
C188 C 0.38417 0.03202 0.28153 0.0
C189 C 0.35676 0.97976 0.24266 0.0
C190 C 0.39259 0.98918 0.22969 0.0
H191 H 0.38217 0.0471 0.30404 0.0
H192 H 0.33278 0.9536 0.23411 0.0
H193 H 0.32425 0.99959 0.3784 0.0
H194 H 0.40439 0.96326 0.37373 0.0
H195 H 0.2012 0.96826 0.22864 0.0
H196 H 0.44475 0.06562 0.28184 0.0
H197 H 0.39503 0.9707 0.21068 0.0
C198 C 0.68545 0.62642 0.31876 0.0
C199 C 0.67308 0.61987 0.28427 0.0
N200 N 0.69105 0.65298 0.26645 0.0
N201 N 0.71079 0.66351 0.32261 0.0
C202 C 0.7136 0.67885 0.29044 0.0
H203 H 0.67731 0.60542 0.33946 0.0
Co204 Co 0.74021 0.68823 0.36173 0.0
C205 C 0.76485 0.76814 0.3448 0.0
O206 O 0.80003 0.77833 0.35273 0.0
N207 N 0.77056 0.71289 0.40095 0.0
C208 C 0.79782 0.74979 0.44744 0.0
C209 C 0.7677 0.73627 0.42433 0.0
C210 C 0.80198 0.71201 0.41083 0.0
N211 N 0.81938 0.73445 0.43882 0.0
O212 O 0.78425 0.70277 0.33338 0.0
H213 H 0.74567 0.74371 0.42403 0.0
H214 H 0.81279 0.69625 0.39698 0.0
O215 O 0.7389 0.73363 0.34818 0.0
C216 C 0.78873 0.67416 0.32999 0.0
O217 O 0.76712 0.64381 0.34896 0.0
N218 N 0.69616 0.67063 0.38879 0.0
C219 C 0.62411 0.6207 0.41473 0.0
C220 C 0.62958 0.64906 0.39045 0.0
C221 C 0.66605 0.67413 0.37797 0.0
C222 C 0.69173 0.64501 0.4142 0.0
C223 C 0.65593 0.62003 0.42789 0.0
H224 H 0.66936 0.69358 0.35699 0.0
H225 H 0.71553 0.64166 0.42162 0.0
H226 H 0.73251 0.70847 0.2847 0.0
H227 H 0.6534 0.59263 0.27304 0.0
H228 H 0.80354 0.7696 0.46872 0.0
H229 H 0.60565 0.65038 0.37966 0.0
H230 H 0.65282 0.59826 0.4463 0.0
C231 C 0.07831 0.67289 0.48257 0.0
C232 C 0.07206 0.65753 0.44928 0.0
N233 N 0.05467 0.67222 0.4299 0.0
N234 N 0.06467 0.69692 0.48425 0.0
C235 C 0.0506 0.69605 0.45182 0.0
H236 H 0.09246 0.66744 0.50404 0.0
Co237 Co 0.06822 0.72714 0.52236 0.0
C238 C 1.01365 0.75145 0.50275 0.0
O239 O 0.03965 0.78689 0.50831 0.0
N240 N 0.07267 0.75805 0.56077 0.0
C241 C 0.06074 0.785 0.60619 0.0
C242 C 0.04546 0.75482 0.58315 0.0
C243 C 0.10426 0.78985 0.57114 0.0
N244 N 0.09779 0.80704 0.59854 0.0
O245 O 0.09796 0.77085 0.49338 0.0
H246 H 1.01622 0.73239 0.58229 0.0
H247 H 0.13135 0.80095 0.55814 0.0
O248 O 1.02148 0.72512 0.50778 0.0
C249 C 0.13136 0.77597 0.49076 0.0
O250 O 0.14034 0.75498 0.51045 0.0
N251 N 0.04174 0.68342 0.55007 0.0
C252 C 1.0218 0.61109 0.57435 0.0
C253 C 0.99762 0.61655 0.5517 0.0
C254 C 1.00812 0.6531 0.53981 0.0
C255 C 0.06357 0.67917 0.57482 0.0
C256 C 0.05394 0.64327 0.58757 0.0
H257 H 0.99141 0.65625 0.51935 0.0
H258 H 0.09053 0.70323 0.58207 0.0
H259 H 0.03784 0.71283 0.44446 0.0
H260 H 0.08065 0.63788 0.43988 0.0
H261 H 0.04568 0.79034 0.62685 0.0
H262 H 0.97268 0.59263 0.54064 0.0
H263 H 0.07305 0.64054 0.60562 0.0
C264 C 0.40881 0.04783 0.64375 0.0
C265 C 0.4128 0.03707 0.61032 0.0
N266 N 0.38008 0.02548 0.59265 0.0
N267 N 0.37363 0.04266 0.64718 0.0
C268 C 0.35701 0.02933 0.6157 0.0
H269 H 0.43023 0.05896 0.66411 0.0
Co270 Co 0.35188 0.05355 0.68524 0.0
C271 C 0.27068 0.99995 0.67025 0.0
O272 O 0.26179 0.02666 0.67365 0.0
N273 N 0.33022 0.0652 0.72316 0.0
C274 C 0.29808 0.06378 0.77109 0.0
C275 C 0.3073 0.04264 0.74905 0.0
C276 C 0.33466 0.09972 0.73006 0.0
N277 N 0.31521 0.09969 0.7589 0.0
O278 O 0.33888 0.0824 0.65395 0.0
H279 H 0.29774 1.01274 0.75159 0.0
H280 H 0.35227 0.12467 0.71445 0.0
O281 O 0.30466 1.00757 0.67542 0.0
C282 C 0.36891 0.11336 0.64673 0.0
O283 O 0.40005 0.12141 0.66395 0.0
N284 N 0.368 0.02756 0.71505 0.0
C285 C 0.41892 1.00498 0.73692 0.0
C286 C 0.38616 0.97997 0.71826 0.0
C287 C 0.36067 0.99166 0.70782 0.0
C288 C 0.39744 0.05064 0.73642 0.0
C289 C 0.42319 0.03972 0.74796 0.0
H290 H 0.33804 0.97368 0.69011 0.0
H291 H 0.4035 0.07932 0.7411 0.0
H292 H 0.32884 0.02393 0.60955 0.0
H293 H 0.43794 0.03791 0.59998 0.0
H294 H 0.27969 0.05334 0.79392 0.0
H295 H 0.38198 0.95292 0.70928 0.0
H296 H 0.44831 0.05992 0.7621 0.0
C297 C 0.36704 0.39666 0.82097 0.0
C298 C 0.38452 0.40493 0.78865 0.0
N299 N 0.36964 0.37279 0.76959 0.0
N300 N 0.34149 0.35937 0.82257 0.0
C301 C 0.34348 0.34555 0.7908 0.0
H302 H 0.37177 0.41676 0.84168 0.0
Co303 Co 0.30808 0.3365 0.86002 0.0
C304 C 0.31068 0.26427 0.86845 0.0
O305 O 0.31974 0.27118 0.90186 0.0
N306 N 0.27316 0.31475 0.89829 0.0
C307 C 0.2474 0.29634 0.95176 0.0
C308 C 0.27844 0.30517 0.93114 0.0
C309 C 0.23858 0.312 0.90019 0.0
N310 N 0.22231 0.30098 0.9324 0.0
O311 O 0.26717 0.32277 0.82774 0.0
H312 H 0.30435 0.30743 0.9409 0.0
H313 H 0.22649 0.32045 0.87914 0.0
O314 O 0.3061 0.28798 0.8499 0.0
C315 C 0.26505 0.35186 0.81898 0.0
O316 O 0.28621 0.38374 0.8359 0.0
N317 N 0.35015 0.35381 0.89038 0.0
C318 C 0.42212 0.40885 0.91283 0.0
C319 C 0.41726 0.37774 0.89286 0.0
C320 C 0.38094 0.35041 0.88191 0.0
C321 C 0.35395 0.38165 0.91274 0.0
C322 C 0.38957 0.409 0.92483 0.0
H323 H 0.37851 0.32982 0.86263 0.0
H324 H 0.32984 0.38518 0.91817 0.0
H325 H 0.32546 0.31632 0.78315 0.0
H326 H 0.40539 0.43282 0.77939 0.0
H327 H 0.24449 0.28874 0.97943 0.0
H328 H 0.4414 0.37649 0.88262 0.0
H329 H 0.39174 0.43188 0.94098 0.0
C330 C 0.97539 0.36111 0.98036 0.0
C331 C 0.98593 0.37831 0.9479 0.0
N332 N 1.0056 0.36456 0.93098 0.0
N333 N 0.98861 0.33685 0.98406 0.0
C334 C 1.00673 0.33938 0.95354 0.0
H335 H 0.95852 0.36539 -0.00014 0.0
Co336 Co 0.97892 0.30519 0.02273 0.0
C337 C 0.05502 0.31122 0.03229 0.0
O338 O 0.05744 0.32392 0.06447 0.0
N339 N 0.96692 0.27202 0.06239 0.0
C340 C 0.96191 0.24878 0.11676 0.0
C341 C 0.98263 0.27918 0.09493 0.0
C342 C 0.9361 0.2369 0.06569 0.0
N343 N 0.93229 0.22218 0.09849 0.0
O344 O 0.95192 0.26272 0.99185 0.0
H345 H 1.00588 0.30583 0.10367 0.0
H346 H 0.91533 0.22316 0.04515 0.0
O347 O 0.026 0.30355 0.01344 0.0
C348 C 0.92005 0.2596 0.98423 0.0
O349 O 0.90941 0.28064 0.00158 0.0
N350 N 1.00304 0.3487 0.05149 0.0
C351 C 1.02159 0.42022 0.07669 0.0
C352 C 0.0464 0.41577 0.05426 0.0
C353 C 0.03668 0.37969 0.042 0.0
C354 C 0.97943 0.35245 0.07456 0.0
C355 C 0.98855 0.38788 0.08806 0.0
H356 H 0.05423 0.3774 0.02191 0.0
H357 H 0.95185 0.32839 0.0802 0.0
H358 H 1.02 0.32268 0.94787 0.0
H359 H 0.97841 0.3983 0.93712 0.0
H360 H 0.96755 0.24726 0.14444 0.0
H361 H 0.07192 0.44022 0.04456 0.0
H362 H 0.96833 0.39033 0.10479 0.0
C363 C 0.63557 0.96265 0.15635 0.0
C364 C 0.62704 0.9689 0.12288 0.0
N365 N 0.65969 0.98925 0.10497 0.0
N366 N 0.67345 0.97931 0.15973 0.0
C367 C 0.68748 0.99505 0.12791 0.0
H368 H 0.61546 0.94647 0.17687 0.0
Co369 Co 0.69708 0.97555 0.20015 0.0
C370 C 0.76376 0.05376 0.20619 0.0
O371 O 0.75381 0.05646 0.23846 0.0
N372 N 0.71999 0.9692 0.24183 0.0
C373 C 0.74002 0.96932 0.29689 0.0
C374 C 0.72613 0.98577 0.27398 0.0
C375 C 0.72952 0.94196 0.24663 0.0
N376 N 0.7418 0.94156 0.27959 0.0
O377 O 0.71608 0.94928 0.17282 0.0
H378 H 0.71897 1.007 0.28141 0.0
H379 H 0.72678 0.92182 0.22678 0.0
O380 O 0.74336 0.02368 0.18838 0.0
C381 C 0.69051 0.91522 0.16698 0.0
O382 O 0.65774 0.90217 0.18309 0.0
N383 N 0.67483 0.9994 0.22542 0.0
C384 C 0.61946 0.01684 0.24586 0.0
C385 C 0.64852 0.04068 0.22275 0.0
C386 C 0.67601 0.03152 0.21286 0.0
C387 C 0.64765 0.9768 0.24913 0.0
C388 C 0.62008 0.9854 0.26023 0.0
H389 H 0.69571 0.04809 0.19226 0.0
H390 H 0.64544 0.95031 0.2573 0.0
H391 H 0.71737 1.01017 0.12166 0.0
H392 H 0.59889 0.95829 0.11225 0.0
H393 H 0.74626 0.97581 0.32461 0.0
H394 H 0.64872 0.06499 0.21084 0.0
H395 H 0.59768 0.96593 0.27766 0.0
H396 H 0.31184 0.12093 0.61589 0.0
H397 H 0.43153 0.15974 0.6097 0.0
H398 H 0.43829 0.20111 0.56075 0.0
H399 H 0.41173 0.22852 0.52151 0.0
H400 H 0.2933 0.19455 0.52807 0.0
H401 H 0.28444 0.14883 0.57469 0.0
C402 C 0.33926 0.13841 0.60365 0.0
C403 C 0.37118 0.13752 0.61665 0.0
C404 C 0.34323 0.16296 0.57557 0.0
C405 C 0.4066 0.16027 0.60061 0.0
C406 C 0.41053 0.18386 0.57244 0.0
C407 C 0.3838 0.21096 0.53281 0.0
C408 C 0.35325 0.21495 0.52129 0.0
C409 C 0.37922 0.18574 0.56 0.0
C410 C 0.31733 0.19196 0.53643 0.0
C411 C 0.3123 0.16594 0.56318 0.0
H412 H 0.1992 0.38702 0.68391 0.0
H413 H 0.10762 0.27332 0.70243 0.0
H414 H 0.14285 0.26637 0.75166 0.0
H415 H 0.19855 0.29476 0.79195 0.0
H416 H 0.28658 0.41038 0.77435 0.0
H417 H 0.25388 0.4144 0.72229 0.0
C418 C 0.18697 0.36048 0.69837 0.0
C419 C 0.15085 0.33075 0.68949 0.0
C420 C 0.20669 0.35719 0.72711 0.0
C421 C 0.13546 0.29667 0.70873 0.0
C422 C 0.15552 0.29274 0.73696 0.0
C423 C 0.21047 0.32063 0.77649 0.0
C424 C 0.24466 0.35235 0.78708 0.0
C425 C 0.19094 0.32312 0.74681 0.0
C426 C 0.25996 0.38581 0.76701 0.0
C427 C 0.24141 0.3881 0.73713 0.0
H428 H 0.81093 0.18696 0.85543 0.0
H429 H 0.8458 0.10332 0.86572 0.0
H430 H 0.88958 0.14051 0.91322 0.0
H431 H 0.9151 0.19564 0.95438 0.0
H432 H 0.87512 0.27546 0.94452 0.0
H433 H 0.83623 0.24088 0.89443 0.0
C434 C 0.8283 0.17685 0.86772 0.0
C435 C 0.82506 0.1424 0.857 0.0
C436 C 0.85232 0.19763 0.89545 0.0
C437 C 0.8478 0.12984 0.87342 0.0
C438 C 0.8727 0.15102 0.90069 0.0
C439 C 0.89794 0.20536 0.94107 0.0
C440 C 0.89769 0.23783 0.95339 0.0
C441 C 0.87476 0.18474 0.91236 0.0
C442 C 0.87537 0.25023 0.93597 0.0
C443 C 0.85322 0.23059 0.90716 0.0
H444 H 0.73048 0.83529 0.0444 0.0
H445 H 0.60985 0.75952 0.05234 0.0
H446 H 0.60623 0.79549 0.10164 0.0
H447 H 0.63601 0.8492 0.14082 0.0
H448 H 0.75562 0.92877 0.13239 0.0
H449 H 0.76106 0.89058 0.08515 0.0
C450 C 0.70356 0.82676 0.05713 0.0
C451 C 0.67045 0.79501 0.04462 0.0
C452 C 0.70145 0.84819 0.0853 0.0
C453 C 0.63566 0.78416 0.06116 0.0
C454 C 0.63353 0.8046 0.08948 0.0
C455 C 0.66344 0.85817 0.12897 0.0
C456 C 0.69537 0.89168 0.14018 0.0
C457 C 0.66609 0.83679 0.1015 0.0
C458 C 0.73058 0.90298 0.12422 0.0
C459 C 0.73367 0.8812 0.09718 0.0
H460 H 0.86909 0.63121 0.2126 0.0
H461 H 0.92107 0.75021 0.18819 0.0
H462 H 0.88618 0.75859 0.23704 0.0
H463 H 0.83963 0.73094 0.28633 0.0
H464 H 0.79194 0.61202 0.31085 0.0
H465 H 0.82664 0.60492 0.26244 0.0
C466 C 0.87263 0.65899 0.21773 0.0
C467 C 0.89701 0.68991 0.19654 0.0
C468 C 0.85341 0.66363 0.24608 0.0
C469 C 0.90211 0.72591 0.20408 0.0
C470 C 0.88224 0.73067 0.23199 0.0
C471 C 0.83715 0.70362 0.28117 0.0
C472 C 0.81307 0.67208 0.30219 0.0
C473 C 0.85767 0.69962 0.25318 0.0
C474 C 0.81024 0.63686 0.29525 0.0
C475 C 0.82998 0.63263 0.26742 0.0
H476 H 0.25659 0.85865 0.37474 0.0
H477 H 0.19655 0.91949 0.3581 0.0
H478 H 0.15164 0.88238 0.40518 0.0
H479 H 0.12939 0.83168 0.45099 0.0
H480 H 0.19374 0.77501 0.46836 0.0
H481 H 0.23698 0.81153 0.4213 0.0
C482 C 0.23353 0.86366 0.38123 0.0
C483 C 0.22949 0.89129 0.36272 0.0
C484 C 0.20868 0.84306 0.40866 0.0
C485 C 0.20004 0.89813 0.37196 0.0
C486 C 0.17442 0.87695 0.39884 0.0
C487 C 0.15298 0.82755 0.44449 0.0
C488 C 0.15818 0.80056 0.46321 0.0
C489 C 0.17844 0.84922 0.4174 0.0
C490 C 0.18903 0.79564 0.45461 0.0
C491 C 0.21381 0.81643 0.42753 0.0
H492 H 0.318 0.17142 0.40451 0.0
H493 H 0.32734 0.23017 0.30686 0.0
H494 H 0.32708 0.17871 0.27368 0.0
H495 H 0.32522 0.11746 0.27242 0.0
H496 H 0.31569 0.05866 0.37021 0.0
H497 H 0.31552 0.10992 0.40328 0.0
C498 C 0.32028 0.17313 0.37599 0.0
C499 C 0.32284 0.20477 0.35827 0.0
C500 C 0.32021 0.14346 0.35708 0.0
C501 C 0.32498 0.20607 0.32121 0.0
C502 C 0.32507 0.17673 0.30221 0.0
C503 C 0.32318 0.11585 0.30097 0.0
C504 C 0.32059 0.08423 0.31875 0.0
C505 C 0.32284 0.14535 0.31987 0.0
C506 C 0.3177 0.08259 0.35578 0.0
C507 C 0.31761 0.11193 0.37475 0.0
H508 H 0.25076 0.35516 0.46108 0.0
H509 H 0.24521 0.25587 0.50806 0.0
H510 H 0.18583 0.24074 0.53738 0.0
H511 H 0.13626 0.25684 0.55108 0.0
H512 H 0.14437 0.35827 0.50733 0.0
H513 H 0.20184 0.37147 0.47511 0.0
C514 C 0.23648 0.33008 0.47757 0.0
C515 C 0.25235 0.3066 0.48222 0.0
C516 C 0.20274 0.32195 0.49487 0.0
C517 C 0.23366 0.27446 0.50404 0.0
C518 C 0.19965 0.26575 0.52077 0.0
C519 C 0.15042 0.28147 0.53406 0.0
C520 C 0.13606 0.30639 0.53112 0.0
C521 C 0.18399 0.28936 0.51649 0.0
C522 C 0.15502 0.33875 0.50974 0.0
C523 C 0.18781 0.34627 0.49144 0.0
H524 H 0.8735 0.14293 0.7353 0.0
H525 H 0.8009 0.11682 0.64438 0.0
H526 H 0.85146 0.16949 0.61212 0.0
H527 H 0.91599 0.22403 0.60979 0.0
H528 H 0.98867 0.25064 0.70074 0.0
H529 H 0.93835 0.19734 0.73286 0.0
C530 C 0.86864 0.14884 0.70851 0.0
C531 C 0.83325 0.12564 0.69245 0.0
C532 C 0.89787 0.17956 0.69004 0.0
C533 C 0.82783 0.13359 0.65742 0.0
C534 C 0.85673 0.16402 0.63894 0.0
C535 C 0.92087 0.21825 0.63665 0.0
C536 C 0.95614 0.24158 0.65276 0.0
C537 C 0.89182 0.18731 0.65501 0.0
C538 C 0.96186 0.23338 0.68759 0.0
C539 C 0.93306 0.20279 0.70604 0.0
H540 H 0.73396 0.96413 0.8634 0.0
H541 H 0.73627 0.92413 0.75862 0.0
H542 H 0.73713 0.86924 0.78332 0.0
H543 H 0.73414 0.8307 0.83459 0.0
H544 H 0.72929 0.86901 0.93933 0.0
H545 H 0.73238 0.92611 0.9149 0.0
C546 C 0.73506 0.94362 0.84601 0.0
C547 C 0.73505 0.94834 0.80919 0.0
C548 C 0.73479 0.91153 0.86041 0.0
C549 C 0.73606 0.92118 0.78705 0.0
C550 C 0.73657 0.88971 0.80114 0.0
C551 C 0.73424 0.85178 0.85204 0.0
C552 C 0.73139 0.8455 0.88871 0.0
C553 C 0.7355 0.88433 0.83776 0.0
C554 C 0.73099 0.87289 0.91098 0.0
C555 C 0.73291 0.90565 0.89703 0.0
H556 H 0.83935 0.79154 0.98607 0.0
H557 H 0.75027 0.68285 0.02245 0.0
H558 H 0.79735 0.66729 0.04428 0.0
H559 H 0.86407 0.68518 0.05428 0.0
H560 H 0.95292 0.79282 0.01601 0.0
H561 H 0.90585 0.80803 0.99341 0.0
C562 C 0.83023 0.76442 -0.00129 0.0
C563 C 0.79132 0.73852 0.00278 0.0
C564 C 0.85748 0.75544 0.01083 0.0
C565 C 0.78002 0.7033 0.01889 0.0
C566 C 0.80694 0.69441 0.03149 0.0
C567 C 0.87305 0.71196 0.04103 0.0
C568 C 0.91196 0.73791 0.03698 0.0
C569 C 0.84576 0.72036 0.02783 0.0
C570 C 0.92319 0.77226 0.01922 0.0
C571 C 0.89627 0.78105 0.00647 0.0
H572 H 0.1534 0.90159 0.22553 0.0
H573 H 0.24572 0.89728 0.17476 0.0
H574 H 0.20066 0.84213 0.14039 0.0
H575 H 0.13494 0.7948 0.1255 0.0
H576 H 0.04273 0.79753 0.17876 0.0
H577 H 0.0878 0.85383 0.21132 0.0
C578 C 0.16362 0.88884 0.20662 0.0
C579 C 0.20282 0.90367 0.20233 0.0
C580 C 0.13756 0.85685 0.18752 0.0
C581 C 0.21567 0.88627 0.17843 0.0
C582 C 0.18993 0.85485 0.15879 0.0
C583 C 0.12468 0.80784 0.14406 0.0
C584 C 0.08547 0.79208 0.14949 0.0
C585 C 0.15079 0.83984 0.16319 0.0
C586 C 0.07272 0.80906 0.17403 0.0
C587 C 0.09848 0.84128 0.19267 0.0
H588 H 0.9823 0.797 0.50258 0.0
H589 H 0.95866 0.68443 0.47543 0.0
H590 H 0.89605 0.66894 0.45402 0.0
H591 H 0.84825 0.68759 0.44209 0.0
H592 H 0.87154 0.79984 0.46962 0.0
H593 H 0.93365 0.81497 0.49226 0.0
C594 C 0.96346 0.76907 0.49198 0.0
C595 C 0.97531 0.742 0.49052 0.0
C596 C 0.92729 0.7602 0.47992 0.0
C597 C 0.95033 0.70583 0.47697 0.0
C598 C 0.91449 0.69693 0.46465 0.0
C599 C 0.86696 0.7154 0.45293 0.0
C600 C 0.8552 0.74256 0.45398 0.0
C601 C 0.90272 0.72394 0.46584 0.0
C602 C 0.8796 0.77825 0.46876 0.0
C603 C 0.91529 0.78703 0.4815 0.0
H604 H 0.1937 0.96858 0.66665 0.0
H605 H 0.28394 0.94517 0.64459 0.0
H606 H 0.23844 0.88332 0.62103 0.0
H607 H 0.17312 0.83604 0.60546 0.0
H608 H 0.08256 0.85866 0.62772 0.0
H609 H 0.12783 0.92016 0.65268 0.0
C610 C 0.20339 0.94989 0.6568 0.0
C611 C 0.24227 0.96165 0.6575 0.0
C612 C 0.17694 0.91406 0.64331 0.0
C613 C 0.25423 0.9369 0.64472 0.0
C614 C 0.22821 0.90148 0.63105 0.0
C615 C 0.16331 0.85449 0.61564 0.0
C616 C 0.12446 0.84272 0.61455 0.0
C617 C 0.18953 0.88983 0.63001 0.0
C618 C 0.1122 0.86676 0.62849 0.0
C619 C 0.13814 0.90209 0.64259 0.0
H620 H 0.31447 0.24949 0.79842 0.0
H621 H 0.30161 0.20163 0.90271 0.0
H622 H 0.30067 0.14603 0.87801 0.0
H623 H 0.30575 0.11166 0.82715 0.0
H624 H 0.32024 0.15964 0.72289 0.0
H625 H 0.3186 0.21435 0.74712 0.0
C626 C 0.31116 0.22676 0.81568 0.0
C627 C 0.30814 0.22986 0.85239 0.0
C628 C 0.31124 0.19489 0.80132 0.0
C629 C 0.30419 0.20019 0.87438 0.0
C630 C 0.30362 0.16828 0.86028 0.0
C631 C 0.30815 0.13388 0.8097 0.0
C632 C 0.31322 0.1315 0.77327 0.0
C633 C 0.30745 0.16543 0.82385 0.0
C634 C 0.31684 0.16092 0.75109 0.0
C635 C 0.31569 0.19217 0.76492 0.0
H636 H 0.06844 0.29791 0.96379 0.0
H637 H 0.11474 0.3173 0.06922 0.0
H638 H 0.16962 0.31504 0.04775 0.0
H639 H 0.20588 0.3099 -0.00052 0.0
H640 H 0.16135 0.29002 0.89356 0.0
H641 H 0.10489 0.29063 0.91472 0.0
C642 C 0.09044 0.30141 0.98204 0.0
C643 C 0.0873 0.30791 0.01812 0.0
C644 C 0.12251 0.30027 0.96945 0.0
C645 C 0.11625 0.31247 0.04133 0.0
C646 C 0.14781 0.31117 0.02909 0.0
C647 C 0.18371 0.30504 0.98093 0.0
C648 C 0.18812 0.2998 0.9449 0.0
C649 C 0.15138 0.30535 0.99325 0.0
C650 C 0.15909 0.29448 0.92138 0.0
C651 C 0.12664 0.29466 0.93352 0.0
H652 H 0.78849 0.06528 0.13711 0.0
H653 H 0.81525 0.11714 0.24026 0.0
H654 H 0.86956 0.17305 0.2161 0.0
H655 H 0.90854 0.20833 0.16613 0.0
H656 H 0.88396 0.15827 0.06244 0.0
H657 H 0.82959 0.101 0.08629 0.0
C658 C 0.80634 0.08875 0.15428 0.0
C659 C 0.79754 0.08684 0.19051 0.0
C660 C 0.83785 0.12135 0.14013 0.0
C661 C 0.82101 0.11766 0.2123 0.0
C662 C 0.85223 0.1498 0.19853 0.0
C663 C 0.89184 0.1848 0.14866 0.0
C664 C 0.9007 0.18779 0.11248 0.0
C665 C 0.86081 0.15205 0.16253 0.0
C666 C 0.87777 0.15704 0.09033 0.0
C667 C 0.84672 0.12415 0.10401 0.0
H668 H 0.70466 0.86639 0.26901 0.0
H669 H 0.79959 0.95623 0.32345 0.0
H670 H 0.81595 0.91052 0.34824 0.0
H671 H 0.80306 0.8447 0.35419 0.0
H672 H 0.70511 0.7545 0.30289 0.0
H673 H 0.69006 0.80042 0.27711 0.0
C674 C 0.72904 0.87586 0.28613 0.0
C675 C 0.75119 0.91457 0.29416 0.0
C676 C 0.73761 0.8493 0.30089 0.0
C677 C 0.78222 0.92653 0.31698 0.0
C678 C 0.79156 0.90043 0.33105 0.0
C679 C 0.77845 0.83516 0.33736 0.0
C680 C 0.75538 0.79625 0.33033 0.0
C681 C 0.76945 0.86171 0.32319 0.0
C682 C 0.72329 0.78425 0.30881 0.0
C683 C 0.71471 0.81051 0.29396 0.0
H684 H 0.47677 0.47654 0.47045 0.0
H685 H 0.45596 0.45902 0.35864 0.0
H686 H 0.51215 0.5205 0.34657 0.0
H687 H 0.56993 0.57675 0.36771 0.0
H688 H 0.59296 0.59213 0.4793 0.0
H689 H 0.53295 0.53426 0.49172 0.0
C690 C 0.48414 0.48656 0.44348 0.0
C691 C 0.46216 0.46337 0.41545 0.0
C692 C 0.51697 0.52147 0.43677 0.0
C693 C 0.47251 0.47633 0.38061 0.0
C694 C 0.5046 0.51145 0.37374 0.0
C695 C 0.56134 0.56783 0.39477 0.0
C696 C 0.58561 0.58879 0.42261 0.0
C697 C 0.52742 0.53395 0.40157 0.0
C698 C 0.57464 0.57648 0.4575 0.0
C699 C 0.54043 0.54337 0.46456 0.0
H700 H 0.97712 0.43824 0.59122 0.0
H701 H 0.09839 0.48941 0.57975 0.0
H702 H 0.10455 0.55152 0.57475 0.0
H703 H 0.07645 0.59185 0.57321 0.0
H704 H 0.95591 0.54331 0.58633 0.0
H705 H 0.94869 0.47995 0.59128 0.0
C706 C 1.00487 0.46298 0.58769 0.0
C707 C 0.03709 0.45865 0.58513 0.0
C708 C 1.0085 0.49928 0.58535 0.0
C709 C 0.07283 0.49129 0.58063 0.0
C710 C 0.07655 0.52711 0.5782 0.0
C711 C 0.04859 0.5676 0.57789 0.0
C712 C 1.01686 0.57256 0.5799 0.0
C713 C 0.04468 0.53146 0.58054 0.0
C714 C 0.98088 0.54042 0.58473 0.0
C715 C 0.97675 0.50416 0.58757 0.0
H716 H 0.5679 0.99666 0.71434 0.0
H717 H 0.57374 1.00985 0.82729 0.0
H718 H 0.51256 1.0076 0.82766 0.0
H719 H 0.4595 1.00665 0.79502 0.0
H720 H 0.45229 0.99015 0.68237 0.0
H721 H 0.51135 0.98842 0.68262 0.0
C722 C 0.55536 0.99844 0.73899 0.0
C723 C 0.5751 1.00343 0.77071 0.0
C724 C 0.51995 0.99662 0.73902 0.0
C725 C 0.55876 1.0057 0.8026 0.0
C726 C 0.52393 1.00463 0.80279 0.0
C727 C 0.47065 1.00205 0.77071 0.0
C728 C 0.45158 0.99842 0.73877 0.0
C729 C 0.50454 1.00076 0.77108 0.0
C730 C 0.46624 0.99252 0.70735 0.0
C731 C 0.50017 0.99183 0.70742 0.0
H732 H 0.59343 0.54122 0.92084 0.0
H733 H 0.5377 0.60765 0.91117 0.0
H734 H 0.47701 0.5505 0.90747 0.0
H735 H 0.43882 0.48204 0.90821 0.0
H736 H 0.49167 0.41393 0.92338 0.0
H737 H 0.55404 0.47137 0.9243 0.0
C738 C 0.56813 0.54339 0.91811 0.0
C739 C 0.571 0.57939 0.91562 0.0
C740 C 0.53244 0.50998 0.91744 0.0
C741 C 0.53735 0.58093 0.91181 0.0
C742 C 0.50217 0.54803 0.91029 0.0
C743 C 0.46376 0.47951 0.91259 0.0
C744 C 0.46023 0.44348 0.91625 0.0
C745 C 0.49934 0.5125 0.9134 0.0
C746 C 0.49334 0.44117 0.92049 0.0
C747 C 0.52907 0.47406 0.92103 0.0
H748 H 0.03058 0.47379 0.02925 0.0
H749 H 1.0231 0.45096 0.14095 0.0
H750 H 0.02549 0.51122 0.15299 0.0
H751 H 0.02527 0.56812 0.1314 0.0
H752 H 0.02774 0.58859 0.0195 0.0
H753 H 0.03181 0.53157 0.00768 0.0
C754 C 0.0302 0.48246 0.05622 0.0
C755 C 0.02714 0.45834 0.08426 0.0
C756 C 0.03035 0.51649 0.06279 0.0
C757 C 0.02569 0.46927 0.11906 0.0
C758 C 0.02694 0.5036 0.12588 0.0
C759 C 0.02736 0.5604 0.10446 0.0
C760 C 0.02656 0.58265 0.07632 0.0
C761 C 0.02867 0.52714 0.09793 0.0
C762 C 0.02836 0.57189 0.04152 0.0
C763 C 0.03068 0.53934 0.0348 0.0
H764 H 0.47472 0.02365 0.29408 0.0
H765 H 0.45945 0.02317 0.18148 0.0
H766 H 0.52004 0.02531 0.17202 0.0
H767 H 0.57562 0.02385 0.19601 0.0
H768 H 0.58826 0.01979 0.30862 0.0
H769 H 0.53055 0.02319 0.31802 0.0
C770 C 0.48502 0.0247 0.26747 0.0
C771 C 0.46295 0.02375 0.23847 0.0
C772 C 0.51928 0.02493 0.26234 0.0
C773 C 0.47607 0.02405 0.20415 0.0
C774 C 0.51064 0.02524 0.19878 0.0
C775 C 0.56599 0.02434 0.22259 0.0
C776 C 0.58628 0.02197 0.25165 0.0
C777 C 0.53227 0.02526 0.22769 0.0
C778 C 0.57312 0.02171 0.28593 0.0
C779 C 0.54015 0.02361 0.29126 0.0
H780 H 0.32306 0.32166 0.72161 0.0
H781 H 0.43563 0.41687 0.73557 0.0
H782 H 0.4492 0.41499 0.67328 0.0
H783 H 0.42873 0.38772 0.6148 0.0
H784 H 0.31742 0.29037 0.60077 0.0
H785 H 0.3037 0.292 0.6631 0.0
C786 C 0.35073 0.34163 0.71118 0.0
C787 C 0.37817 0.36955 0.73329 0.0
C788 C 0.35848 0.34029 0.67524 0.0
C789 C 0.41374 0.39551 0.71909 0.0
C790 C 0.42161 0.39437 0.68347 0.0
C791 C 0.40162 0.36645 0.62526 0.0
C792 C 0.37424 0.33906 0.60275 0.0
C793 C 0.3941 0.36711 0.66126 0.0
C794 C 0.33897 0.31225 0.61706 0.0
C795 C 0.33114 0.31293 0.65289 0.0
H796 H 0.05758 0.42068 0.77609 0.0
H797 H 0.05141 0.31195 0.76979 0.0
H798 H 0.03341 0.29997 0.83173 0.0
H799 H 1.01718 0.31929 0.88708 0.0
H800 H 0.02564 0.42897 0.89424 0.0
H801 H 0.04522 0.44171 0.83259 0.0
C802 C 0.0528 0.39459 0.78834 0.0
C803 C 0.05546 0.36715 0.76807 0.0
C804 C 0.04273 0.38796 0.82412 0.0
C805 C 0.04876 0.33328 0.78441 0.0
C806 C 0.03872 0.32647 0.81997 0.0
C807 C 1.02389 0.34624 0.87542 0.0
C808 C 1.01966 0.37299 0.8953 0.0
C809 C 0.03528 0.35346 0.83999 0.0
C810 C 0.02799 0.40757 0.87943 0.0
C811 C 0.03938 0.41498 0.8442 0.0
H812 H 0.64751 0.03358 0.94942 0.0
H813 H 0.7516 0.03087 0.93954 0.0
H814 H 0.74805 1.01381 0.00186 0.0
H815 H 0.71512 0.99972 0.05934 0.0
H816 H 0.61231 1.00496 0.0686 0.0
H817 H 0.61597 0.02156 0.00638 0.0
C818 C 0.66975 0.02978 0.96086 0.0
C819 C 0.69983 0.03371 0.9397 0.0
C820 C 0.66779 0.02048 -0.0033 0.0
C821 C 0.72786 0.02767 0.955 0.0
C822 C 0.72601 0.01817 0.99075 0.0
C823 C 0.69381 1.00495 0.04782 0.0
C824 C 0.66337 1.00091 0.06859 0.0
C825 C 0.69612 1.01459 0.01189 0.0
C826 C 0.63568 1.00728 0.05311 0.0
C827 C 0.63783 0.01693 0.01756 0.0
H828 H 0.70159 0.70729 0.11006 0.0
H829 H 0.59308 0.60459 0.10439 0.0
H830 H 0.5982 0.59156 0.16636 0.0
H831 H 0.63301 0.60998 0.22248 0.0
H832 H 0.74326 0.71076 0.22624 0.0
H833 H 0.73781 0.72359 0.16459 0.0
C834 C 0.67922 0.6817 0.12197 0.0
C835 C 0.64692 0.65711 0.10228 0.0
C836 C 0.68252 0.67407 0.15748 0.0
C837 C 0.61804 0.62444 0.11883 0.0
C838 C 0.62102 0.61681 0.1543 0.0
C839 C 0.65605 0.63451 0.20979 0.0
C840 C 0.68825 0.65953 0.2294 0.0
C841 C 0.65307 0.64154 0.17394 0.0
C842 C 0.71767 0.69138 0.21234 0.0
C843 C 0.71476 0.69866 0.17686 0.0
H844 H 1.00678 0.6167 0.27422 0.0
H845 H 1.009 0.72361 0.26724 0.0
H846 H 0.02881 0.73685 0.32863 0.0
H847 H 0.04502 0.71798 0.38444 0.0
H848 H 0.03959 0.60964 0.39239 0.0
H849 H 1.02146 0.59713 0.33047 0.0
C850 C 1.01119 0.64274 0.28612 0.0
C851 C 1.00638 0.66906 0.26586 0.0
C852 C 1.02207 0.64999 0.32169 0.0
C853 C 1.01298 0.70299 0.2818 0.0
C854 C 0.02407 0.71052 0.31709 0.0
C855 C 0.03945 0.69142 0.37288 0.0
C856 C 0.04369 0.66482 0.39328 0.0
C857 C 0.02859 0.68417 0.33731 0.0
C858 C 0.03706 0.63089 0.37736 0.0
C859 C 0.02646 0.62358 0.34194 0.0
H860 H 0.43036 0.038 0.54038 0.0
H861 H 0.31058 0.98542 0.56247 0.0
H862 H 0.29638 0.9695 0.50054 0.0
H863 H 0.31777 0.97102 0.43966 0.0
H864 H 0.43671 0.01929 0.41794 0.0
H865 H 0.4515 0.03581 0.48034 0.0
C866 C 0.40112 0.02265 0.53192 0.0
C867 C 0.37175 1.01364 0.5563 0.0
C868 C 0.39297 1.01279 0.49623 0.0
C869 C 0.33399 0.99378 0.54441 0.0
C870 C 0.32571 0.98435 0.50892 0.0
C871 C 0.34687 0.98532 0.44874 0.0
C872 C 0.3762 0.99435 0.42452 0.0
C873 C 0.35497 0.99405 0.48456 0.0
C874 C 0.4138 1.01212 0.43637 0.0
C875 C 0.4222 0.02159 0.47192 0.0
loop_
_geom_bond_atom_site_label_1
_geom_bond_atom_site_label_2
_geom_bond_distance
_geom_bond_site_symmetry_2
_ccdc_geom_bond_type
C0 C1 1.351 . S
C0 N3 1.368 . S
C0 H5 0.931 . S
C1 C0 1.351 . S
C1 N2 1.373 . S
C1 H29 0.930 . S
N2 C1 1.373 . S
N2 C4 1.340 . S
N3 C0 1.368 . S
N3 C4 1.321 . S
N3 Co6 2.135 . S
C4 N2 1.340 . S
C4 N3 1.321 . S
C4 H28 0.930 . S
H5 C0 0.931 . S
Co6 N3 2.135 . S
Co6 N9 2.121 . S
Co6 O14 2.055 . S
Co6 O17 2.039 . S
Co6 N20 2.140 . S
C7 O8 1.227 . S
C7 O17 1.265 . S
O8 C7 1.227 . S
N9 Co6 2.121 . S
N9 C11 1.375 . S
N9 C12 1.313 . S
C10 C11 1.338 . S
C10 N13 1.377 . S
C10 H30 0.930 . S
C11 N9 1.375 . S
C11 C10 1.338 . S
C11 H15 0.931 . S
C12 N9 1.313 . S
C12 N13 1.344 . S
C12 H16 0.930 . S
N13 C10 1.377 . S
N13 C12 1.344 . S
O14 Co6 2.055 . S
O14 C18 1.253 . S
H15 C11 0.931 . S
H16 C12 0.930 . S
O17 Co6 2.039 . S
O17 C7 1.265 . S
C18 O14 1.253 . S
C18 O19 1.227 . S
O19 C18 1.227 . S
N20 Co6 2.140 . S
N20 C23 1.346 . S
N20 C24 1.345 . S
C21 C22 1.387 . S
C21 C25 1.391 . S
C22 C21 1.387 . S
C22 C23 1.369 . S
C22 H31 0.929 . S
C23 N20 1.346 . S
C23 C22 1.369 . S
C23 H26 0.928 . S
C24 N20 1.345 . S
C24 C25 1.371 . S
C24 H27 0.931 . S
C25 C21 1.391 . S
C25 C24 1.371 . S
C25 H32 0.930 . S
H26 C23 0.928 . S
H27 C24 0.931 . S
H28 C4 0.930 . S
H29 C1 0.930 . S
H30 C10 0.930 . S
H31 C22 0.929 . S
H32 C25 0.930 . S
C33 C34 1.351 . S
C33 N36 1.368 . S
C33 H38 0.931 . S
C34 C33 1.351 . S
C34 N35 1.373 . S
C34 H62 0.930 . S
N35 C34 1.373 . S
N35 C37 1.340 . S
N36 C33 1.368 . S
N36 C37 1.321 . S
N36 Co39 2.135 . S
C37 N35 1.340 . S
C37 N36 1.321 . S
C37 H61 0.930 1_455 S
H38 C33 0.931 . S
Co39 N36 2.135 . S
Co39 N42 2.121 . S
Co39 O47 2.055 . S
Co39 O50 2.039 . S
Co39 N53 2.140 . S
C40 O41 1.227 . S
C40 O50 1.265 1_655 S
O41 C40 1.227 . S
N42 Co39 2.121 . S
N42 C44 1.375 . S
N42 C45 1.313 . S
C43 C44 1.338 . S
C43 N46 1.377 . S
C43 H63 0.930 . S
C44 N42 1.375 . S
C44 C43 1.338 . S
C44 H48 0.931 . S
C45 N42 1.313 . S
C45 N46 1.344 . S
C45 H49 0.930 . S
N46 C43 1.377 . S
N46 C45 1.344 . S
O47 Co39 2.055 . S
O47 C51 1.253 . S
H48 C44 0.931 . S
H49 C45 0.930 . S
O50 Co39 2.039 . S
O50 C40 1.265 1_455 S
C51 O47 1.253 . S
C51 O52 1.227 . S
O52 C51 1.227 . S
N53 Co39 2.140 . S
N53 C56 1.346 . S
N53 C57 1.345 . S
C54 C55 1.387 . S
C54 C58 1.391 . S
C55 C54 1.387 . S
C55 C56 1.369 . S
C55 H64 0.929 . S
C56 N53 1.346 . S
C56 C55 1.369 . S
C56 H59 0.928 . S
C57 N53 1.345 . S
C57 C58 1.371 . S
C57 H60 0.931 . S
C58 C54 1.391 . S
C58 C57 1.371 . S
C58 H65 0.930 . S
H59 C56 0.928 . S
H60 C57 0.931 . S
H61 C37 0.930 1_655 S
H62 C34 0.930 . S
H63 C43 0.930 . S
H64 C55 0.929 . S
H65 C58 0.930 . S
C66 C67 1.351 . S
C66 N69 1.368 . S
C66 H71 0.931 . S
C67 C66 1.351 . S
C67 N68 1.373 . S
C67 H95 0.930 . S
N68 C67 1.373 . S
N68 C70 1.340 . S
N69 C66 1.368 . S
N69 C70 1.321 . S
N69 Co72 2.135 . S
C70 N68 1.340 . S
C70 N69 1.321 . S
C70 H94 0.930 1_545 S
H71 C66 0.931 . S
Co72 N69 2.135 . S
Co72 N75 2.121 . S
Co72 O80 2.055 . S
Co72 O83 2.039 . S
Co72 N86 2.140 . S
C73 O74 1.227 . S
C73 O83 1.265 1_565 S
O74 C73 1.227 . S
N75 Co72 2.121 . S
N75 C77 1.375 . S
N75 C78 1.313 . S
C76 C77 1.338 . S
C76 N79 1.377 . S
C76 H96 0.930 . S
C77 N75 1.375 . S
C77 C76 1.338 . S
C77 H81 0.931 . S
C78 N75 1.313 . S
C78 N79 1.344 . S
C78 H82 0.930 . S
N79 C76 1.377 . S
N79 C78 1.344 . S
O80 Co72 2.055 . S
O80 C84 1.253 . S
H81 C77 0.931 . S
H82 C78 0.930 . S
O83 Co72 2.039 . S
O83 C73 1.265 1_545 S
C84 O80 1.253 . S
C84 O85 1.227 . S
O85 C84 1.227 . S
N86 Co72 2.140 . S
N86 C89 1.346 . S
N86 C90 1.345 . S
C87 C88 1.387 . S
C87 C91 1.391 . S
C88 C87 1.387 . S
C88 C89 1.369 . S
C88 H97 0.929 . S
C89 N86 1.346 . S
C89 C88 1.369 . S
C89 H92 0.928 . S
C90 N86 1.345 . S
C90 C91 1.371 . S
C90 H93 0.931 . S
C91 C87 1.391 . S
C91 C90 1.371 . S
C91 H98 0.930 . S
H92 C89 0.928 . S
H93 C90 0.931 . S
H94 C70 0.930 1_565 S
H95 C67 0.930 . S
H96 C76 0.930 . S
H97 C88 0.929 . S
H98 C91 0.930 . S
C99 C100 1.351 . S
C99 N102 1.368 . S
C99 H104 0.931 . S
C100 C99 1.351 . S
C100 N101 1.373 . S
C100 H128 0.930 . S
N101 C100 1.373 . S
N101 C103 1.340 . S
N102 C99 1.368 . S
N102 C103 1.321 . S
N102 Co105 2.135 1_554 S
C103 N101 1.340 . S
C103 N102 1.321 . S
C103 H127 0.930 . S
H104 C99 0.931 . S
Co105 N102 2.135 1_556 S
Co105 N108 2.121 . S
Co105 O113 2.055 1_556 S
Co105 O116 2.039 . S
Co105 N119 2.140 . S
C106 O107 1.227 . S
C106 O116 1.265 . S
O107 C106 1.227 . S
N108 Co105 2.121 . S
N108 C110 1.375 . S
N108 C111 1.313 . S
C109 C110 1.338 . S
C109 N112 1.377 . S
C109 H129 0.930 . S
C110 N108 1.375 . S
C110 C109 1.338 . S
C110 H114 0.931 . S
C111 N108 1.313 . S
C111 N112 1.344 . S
C111 H115 0.930 . S
N112 C109 1.377 . S
N112 C111 1.344 . S
O113 Co105 2.055 1_554 S
O113 C117 1.253 . S
H114 C110 0.931 . S
H115 C111 0.930 . S
O116 Co105 2.039 . S
O116 C106 1.265 . S
C117 O113 1.253 . S
C117 O118 1.227 1_554 S
O118 C117 1.227 1_556 S
N119 Co105 2.140 . S
N119 C122 1.346 . S
N119 C123 1.345 . S
C120 C121 1.387 . S
C120 C124 1.391 . S
C121 C120 1.387 . S
C121 C122 1.369 . S
C121 H130 0.929 . S
C122 N119 1.346 . S
C122 C121 1.369 . S
C122 H125 0.928 . S
C123 N119 1.345 . S
C123 C124 1.371 . S
C123 H126 0.931 . S
C124 C120 1.391 . S
C124 C123 1.371 . S
C124 H131 0.930 . S
H125 C122 0.928 . S
H126 C123 0.931 . S
H127 C103 0.930 . S
H128 C100 0.930 . S
H129 C109 0.930 . S
H130 C121 0.929 . S
H131 C124 0.930 . S
C132 C133 1.351 . S
C132 N135 1.368 . S
C132 H137 0.931 . S
C133 C132 1.351 . S
C133 N134 1.373 . S
C133 H161 0.930 . S
N134 C133 1.373 . S
N134 C136 1.340 . S
N135 C132 1.368 . S
N135 C136 1.321 . S
N135 Co138 2.135 . S
C136 N134 1.340 . S
C136 N135 1.321 . S
C136 H160 0.930 1_655 S
H137 C132 0.931 . S
Co138 N135 2.135 . S
Co138 N141 2.121 . S
Co138 O146 2.055 . S
Co138 O149 2.039 . S
Co138 N152 2.140 . S
C139 O140 1.227 . S
C139 O149 1.265 1_455 S
O140 C139 1.227 . S
N141 Co138 2.121 . S
N141 C143 1.375 . S
N141 C144 1.313 . S
C142 C143 1.338 . S
C142 N145 1.377 . S
C142 H162 0.930 . S
C143 N141 1.375 . S
C143 C142 1.338 . S
C143 H147 0.931 . S
C144 N141 1.313 . S
C144 N145 1.344 . S
C144 H148 0.930 . S
N145 C142 1.377 . S
N145 C144 1.344 . S
O146 Co138 2.055 . S
O146 C150 1.253 . S
H147 C143 0.931 . S
H148 C144 0.930 . S
O149 Co138 2.039 . S
O149 C139 1.265 1_655 S
C150 O146 1.253 . S
C150 O151 1.227 . S
O151 C150 1.227 . S
N152 Co138 2.140 . S
N152 C155 1.346 . S
N152 C156 1.345 . S
C153 C154 1.387 . S
C153 C157 1.391 . S
C154 C153 1.387 . S
C154 C155 1.369 . S
C154 H163 0.929 . S
C155 N152 1.346 . S
C155 C154 1.369 . S
C155 H158 0.928 . S
C156 N152 1.345 . S
C156 C157 1.371 . S
C156 H159 0.931 . S
C157 C153 1.391 . S
C157 C156 1.371 . S
C157 H164 0.930 . S
H158 C155 0.928 . S
H159 C156 0.931 . S
H160 C136 0.930 1_455 S
H161 C133 0.930 . S
H162 C142 0.930 . S
H163 C154 0.929 . S
H164 C157 0.930 . S
C165 C166 1.351 . S
C165 N168 1.368 . S
C165 H170 0.931 . S
C166 C165 1.351 . S
C166 N167 1.373 . S
C166 H194 0.930 . S
N167 C166 1.373 . S
N167 C169 1.340 . S
N168 C165 1.368 . S
N168 C169 1.321 . S
N168 Co171 2.135 . S
C169 N167 1.340 . S
C169 N168 1.321 . S
C169 H193 0.930 1_565 S
H170 C165 0.931 . S
Co171 N168 2.135 . S
Co171 N174 2.121 . S
Co171 O179 2.055 . S
Co171 O182 2.039 . S
Co171 N185 2.140 . S
C172 O173 1.227 . S
C172 O182 1.265 1_545 S
O173 C172 1.227 . S
N174 Co171 2.121 . S
N174 C176 1.375 . S
N174 C177 1.313 . S
C175 C176 1.338 . S
C175 N178 1.377 . S
C175 H195 0.930 . S
C176 N174 1.375 . S
C176 C175 1.338 . S
C176 H180 0.931 . S
C177 N174 1.313 . S
C177 N178 1.344 . S
C177 H181 0.930 . S
N178 C175 1.377 . S
N178 C177 1.344 . S
O179 Co171 2.055 . S
O179 C183 1.253 . S
H180 C176 0.931 . S
H181 C177 0.930 . S
O182 Co171 2.039 . S
O182 C172 1.265 1_565 S
C183 O179 1.253 . S
C183 O184 1.227 . S
O184 C183 1.227 . S
N185 Co171 2.140 . S
N185 C188 1.346 . S
N185 C189 1.345 . S
C186 C187 1.387 . S
C186 C190 1.391 . S
C187 C186 1.387 . S
C187 C188 1.369 . S
C187 H196 0.929 . S
C188 N185 1.346 . S
C188 C187 1.369 . S
C188 H191 0.928 . S
C189 N185 1.345 . S
C189 C190 1.371 . S
C189 H192 0.931 . S
C190 C186 1.391 . S
C190 C189 1.371 . S
C190 H197 0.930 . S
H191 C188 0.928 . S
H192 C189 0.931 . S
H193 C169 0.930 1_545 S
H194 C166 0.930 . S
H195 C175 0.930 . S
H196 C187 0.929 . S
H197 C190 0.930 . S
C198 C199 1.351 . S
C198 N201 1.368 . S
C198 H203 0.931 . S
C199 C198 1.351 . S
C199 N200 1.373 . S
C199 H227 0.930 . S
N200 C199 1.373 . S
N200 C202 1.340 . S
N201 C198 1.368 . S
N201 C202 1.321 . S
N201 Co204 2.135 . S
C202 N200 1.340 . S
C202 N201 1.321 . S
C202 H226 0.930 . S
H203 C198 0.931 . S
Co204 N201 2.135 . S
Co204 N207 2.121 . S
Co204 O212 2.055 . S
Co204 O215 2.039 . S
Co204 N218 2.140 . S
C205 O206 1.227 . S
C205 O215 1.265 . S
O206 C205 1.227 . S
N207 Co204 2.121 . S
N207 C209 1.375 . S
N207 C210 1.313 . S
C208 C209 1.338 . S
C208 N211 1.377 . S
C208 H228 0.930 . S
C209 N207 1.375 . S
C209 C208 1.338 . S
C209 H213 0.931 . S
C210 N207 1.313 . S
C210 N211 1.344 . S
C210 H214 0.930 . S
N211 C208 1.377 . S
N211 C210 1.344 . S
O212 Co204 2.055 . S
O212 C216 1.253 . S
H213 C209 0.931 . S
H214 C210 0.930 . S
O215 Co204 2.039 . S
O215 C205 1.265 . S
C216 O212 1.253 . S
C216 O217 1.227 . S
O217 C216 1.227 . S
N218 Co204 2.140 . S
N218 C221 1.346 . S
N218 C222 1.345 . S
C219 C220 1.387 . S
C219 C223 1.391 . S
C220 C219 1.387 . S
C220 C221 1.369 . S
C220 H229 0.929 . S
C221 N218 1.346 . S
C221 C220 1.369 . S
C221 H224 0.928 . S
C222 N218 1.345 . S
C222 C223 1.371 . S
C222 H225 0.931 . S
C223 C219 1.391 . S
C223 C222 1.371 . S
C223 H230 0.930 . S
H224 C221 0.928 . S
H225 C222 0.931 . S
H226 C202 0.930 . S
H227 C199 0.930 . S
H228 C208 0.930 . S
H229 C220 0.929 . S
H230 C223 0.930 . S
C231 C232 1.351 . S
C231 N234 1.368 . S
C231 H236 0.931 . S
C232 C231 1.351 . S
C232 N233 1.373 . S
C232 H260 0.930 . S
N233 C232 1.373 . S
N233 C235 1.340 . S
N234 C231 1.368 . S
N234 C235 1.321 . S
N234 Co237 2.135 . S
C235 N233 1.340 . S
C235 N234 1.321 . S
C235 H259 0.930 1_455 S
H236 C231 0.931 . S
Co237 N234 2.135 . S
Co237 N240 2.121 . S
Co237 O245 2.055 . S
Co237 O248 2.039 . S
Co237 N251 2.140 . S
C238 O239 1.227 . S
C238 O248 1.265 1_655 S
O239 C238 1.227 . S
N240 Co237 2.121 . S
N240 C242 1.375 . S
N240 C243 1.313 . S
C241 C242 1.338 . S
C241 N244 1.377 . S
C241 H261 0.930 . S
C242 N240 1.375 . S
C242 C241 1.338 . S
C242 H246 0.931 . S
C243 N240 1.313 . S
C243 N244 1.344 . S
C243 H247 0.930 . S
N244 C241 1.377 . S
N244 C243 1.344 . S
O245 Co237 2.055 . S
O245 C249 1.253 . S
H246 C242 0.931 . S
H247 C243 0.930 . S
O248 Co237 2.039 . S
O248 C238 1.265 1_455 S
C249 O245 1.253 . S
C249 O250 1.227 . S
O250 C249 1.227 . S
N251 Co237 2.140 . S
N251 C254 1.346 . S
N251 C255 1.345 . S
C252 C253 1.387 . S
C252 C256 1.391 . S
C253 C252 1.387 . S
C253 C254 1.369 . S
C253 H262 0.929 . S
C254 N251 1.346 . S
C254 C253 1.369 . S
C254 H257 0.928 . S
C255 N251 1.345 . S
C255 C256 1.371 . S
C255 H258 0.931 . S
C256 C252 1.391 . S
C256 C255 1.371 . S
C256 H263 0.930 . S
H257 C254 0.928 . S
H258 C255 0.931 . S
H259 C235 0.930 1_655 S
H260 C232 0.930 . S
H261 C241 0.930 . S
H262 C253 0.929 . S
H263 C256 0.930 . S
C264 C265 1.351 . S
C264 N267 1.368 . S
C264 H269 0.931 . S
C265 C264 1.351 . S
C265 N266 1.373 . S
C265 H293 0.930 . S
N266 C265 1.373 . S
N266 C268 1.340 . S
N267 C264 1.368 . S
N267 C268 1.321 . S
N267 Co270 2.135 . S
C268 N266 1.340 . S
C268 N267 1.321 . S
C268 H292 0.930 1_545 S
H269 C264 0.931 . S
Co270 N267 2.135 . S
Co270 N273 2.121 . S
Co270 O278 2.055 . S
Co270 O281 2.039 . S
Co270 N284 2.140 . S
C271 O272 1.227 . S
C271 O281 1.265 1_565 S
O272 C271 1.227 . S
N273 Co270 2.121 . S
N273 C275 1.375 . S
N273 C276 1.313 . S
C274 C275 1.338 . S
C274 N277 1.377 . S
C274 H294 0.930 . S
C275 N273 1.375 . S
C275 C274 1.338 . S
C275 H279 0.931 . S
C276 N273 1.313 . S
C276 N277 1.344 . S
C276 H280 0.930 . S
N277 C274 1.377 . S
N277 C276 1.344 . S
O278 Co270 2.055 . S
O278 C282 1.253 . S
H279 C275 0.931 . S
H280 C276 0.930 . S
O281 Co270 2.039 . S
O281 C271 1.265 1_545 S
C282 O278 1.253 . S
C282 O283 1.227 . S
O283 C282 1.227 . S
N284 Co270 2.140 . S
N284 C287 1.346 . S
N284 C288 1.345 . S
C285 C286 1.387 . S
C285 C289 1.391 . S
C286 C285 1.387 . S
C286 C287 1.369 . S
C286 H295 0.929 . S
C287 N284 1.346 . S
C287 C286 1.369 . S
C287 H290 0.928 . S
C288 N284 1.345 . S
C288 C289 1.371 . S
C288 H291 0.931 . S
C289 C285 1.391 . S
C289 C288 1.371 . S
C289 H296 0.930 . S
H290 C287 0.928 . S
H291 C288 0.931 . S
H292 C268 0.930 1_565 S
H293 C265 0.930 . S
H294 C274 0.930 . S
H295 C286 0.929 . S
H296 C289 0.930 . S
C297 C298 1.351 . S
C297 N300 1.368 . S
C297 H302 0.931 . S
C298 C297 1.351 . S
C298 N299 1.373 . S
C298 H326 0.930 . S
N299 C298 1.373 . S
N299 C301 1.340 . S
N300 C297 1.368 . S
N300 C301 1.321 . S
N300 Co303 2.135 . S
C301 N299 1.340 . S
C301 N300 1.321 . S
C301 H325 0.930 . S
H302 C297 0.931 . S
Co303 N300 2.135 . S
Co303 N306 2.121 . S
Co303 O311 2.055 . S
Co303 O314 2.039 . S
Co303 N317 2.140 . S
C304 O305 1.227 . S
C304 O314 1.265 . S
O305 C304 1.227 . S
N306 Co303 2.121 . S
N306 C308 1.375 . S
N306 C309 1.313 . S
C307 C308 1.338 . S
C307 N310 1.377 . S
C307 H327 0.930 . S
C308 N306 1.375 . S
C308 C307 1.338 . S
C308 H312 0.931 . S
C309 N306 1.313 . S
C309 N310 1.344 . S
C309 H313 0.930 . S
N310 C307 1.377 . S
N310 C309 1.344 . S
O311 Co303 2.055 . S
O311 C315 1.253 . S
H312 C308 0.931 . S
H313 C309 0.930 . S
O314 Co303 2.039 . S
O314 C304 1.265 . S
C315 O311 1.253 . S
C315 O316 1.227 . S
O316 C315 1.227 . S
N317 Co303 2.140 . S
N317 C320 1.346 . S
N317 C321 1.345 . S
C318 C319 1.387 . S
C318 C322 1.391 . S
C319 C318 1.387 . S
C319 C320 1.369 . S
C319 H328 0.929 . S
C320 N317 1.346 . S
C320 C319 1.369 . S
C320 H323 0.928 . S
C321 N317 1.345 . S
C321 C322 1.371 . S
C321 H324 0.931 . S
C322 C318 1.391 . S
C322 C321 1.371 . S
C322 H329 0.930 . S
H323 C320 0.928 . S
H324 C321 0.931 . S
H325 C301 0.930 . S
H326 C298 0.930 . S
H327 C307 0.930 . S
H328 C319 0.929 . S
H329 C322 0.930 . S
C330 C331 1.351 . S
C330 N333 1.368 . S
C330 H335 0.931 . S
C331 C330 1.351 . S
C331 N332 1.373 . S
C331 H359 0.930 . S
N332 C331 1.373 . S
N332 C334 1.340 . S
N333 C330 1.368 . S
N333 C334 1.321 . S
N333 Co336 2.135 1_556 S
C334 N332 1.340 . S
C334 N333 1.321 . S
C334 H358 0.930 1_655 S
H335 C330 0.931 . S
Co336 N333 2.135 1_554 S
Co336 N339 2.121 . S
Co336 O344 2.055 1_554 S
Co336 O347 2.039 . S
Co336 N350 2.140 . S
C337 O338 1.227 . S
C337 O347 1.265 1_455 S
O338 C337 1.227 . S
N339 Co336 2.121 . S
N339 C341 1.375 . S
N339 C342 1.313 . S
C340 C341 1.338 . S
C340 N343 1.377 . S
C340 H360 0.930 . S
C341 N339 1.375 . S
C341 C340 1.338 . S
C341 H345 0.931 . S
C342 N339 1.313 . S
C342 N343 1.344 . S
C342 H346 0.930 . S
N343 C340 1.377 . S
N343 C342 1.344 . S
O344 Co336 2.055 1_556 S
O344 C348 1.253 . S
H345 C341 0.931 . S
H346 C342 0.930 . S
O347 Co336 2.039 . S
O347 C337 1.265 1_655 S
C348 O344 1.253 . S
C348 O349 1.227 1_556 S
O349 C348 1.227 1_554 S
N350 Co336 2.140 . S
N350 C353 1.346 . S
N350 C354 1.345 . S
C351 C352 1.387 . S
C351 C355 1.391 . S
C352 C351 1.387 . S
C352 C353 1.369 . S
C352 H361 0.929 . S
C353 N350 1.346 . S
C353 C352 1.369 . S
C353 H356 0.928 . S
C354 N350 1.345 . S
C354 C355 1.371 . S
C354 H357 0.931 . S
C355 C351 1.391 . S
C355 C354 1.371 . S
C355 H362 0.930 . S
H356 C353 0.928 . S
H357 C354 0.931 . S
H358 C334 0.930 1_455 S
H359 C331 0.930 . S
H360 C340 0.930 . S
H361 C352 0.929 . S
H362 C355 0.930 . S
C363 C364 1.351 . S
C363 N366 1.368 . S
C363 H368 0.931 . S
C364 C363 1.351 . S
C364 N365 1.373 . S
C364 H392 0.930 . S
N365 C364 1.373 . S
N365 C367 1.340 . S
N366 C363 1.368 . S
N366 C367 1.321 . S
N366 Co369 2.135 . S
C367 N365 1.340 . S
C367 N366 1.321 . S
C367 H391 0.930 1_565 S
H368 C363 0.931 . S
Co369 N366 2.135 . S
Co369 N372 2.121 . S
Co369 O377 2.055 . S
Co369 O380 2.039 . S
Co369 N383 2.140 . S
C370 O371 1.227 . S
C370 O380 1.265 1_545 S
O371 C370 1.227 . S
N372 Co369 2.121 . S
N372 C374 1.375 . S
N372 C375 1.313 . S
C373 C374 1.338 . S
C373 N376 1.377 . S
C373 H393 0.930 . S
C374 N372 1.375 . S
C374 C373 1.338 . S
C374 H378 0.931 . S
C375 N372 1.313 . S
C375 N376 1.344 . S
C375 H379 0.930 . S
N376 C373 1.377 . S
N376 C375 1.344 . S
O377 Co369 2.055 . S
O377 C381 1.253 . S
H378 C374 0.931 . S
H379 C375 0.930 . S
O380 Co369 2.039 . S
O380 C370 1.265 1_565 S
C381 O377 1.253 . S
C381 O382 1.227 . S
O382 C381 1.227 . S
N383 Co369 2.140 . S
N383 C386 1.346 . S
N383 C387 1.345 . S
C384 C385 1.387 . S
C384 C388 1.391 . S
C385 C384 1.387 . S
C385 C386 1.369 . S
C385 H394 0.929 . S
C386 N383 1.346 . S
C386 C385 1.369 . S
C386 H389 0.928 . S
C387 N383 1.345 . S
C387 C388 1.371 . S
C387 H390 0.931 . S
C388 C384 1.391 . S
C388 C387 1.371 . S
C388 H395 0.930 . S
H389 C386 0.928 . S
H390 C387 0.931 . S
H391 C367 0.930 1_545 S
H392 C364 0.930 . S
H393 C373 0.930 . S
H394 C385 0.929 . S
H395 C388 0.930 . S
H396 C402 0.930 . S
H397 C405 0.930 . S
H398 C406 0.930 . S
H399 C407 0.930 . S
H400 C410 0.930 . S
H401 C411 0.930 . S
C402 H396 0.930 . S
C402 C403 1.355 . S
C402 C404 1.415 . S
C403 C402 1.355 . S
C403 C405 1.419 . S
C404 C402 1.415 . S
C404 C409 1.425 . S
C404 C411 1.409 . S
C405 H397 0.930 . S
C405 C403 1.419 . S
C405 C406 1.362 . S
C406 H398 0.930 . S
C406 C405 1.362 . S
C406 C409 1.409 . S
C407 H399 0.930 . S
C407 C408 1.355 . S
C407 C409 1.415 . S
C408 C407 1.355 . S
C408 C410 1.419 . S
C409 C404 1.425 . S
C409 C406 1.409 . S
C409 C407 1.415 . S
C410 H400 0.930 . S
C410 C408 1.419 . S
C410 C411 1.362 . S
C411 H401 0.930 . S
C411 C404 1.409 . S
C411 C410 1.362 . S
H412 C418 0.930 . S
H413 C421 0.930 . S
H414 C422 0.930 . S
H415 C423 0.930 . S
H416 C426 0.930 . S
H417 C427 0.930 . S
C418 H412 0.930 . S
C418 C419 1.355 . S
C418 C420 1.415 . S
C419 C418 1.355 . S
C419 C421 1.419 . S
C420 C418 1.415 . S
C420 C425 1.425 . S
C420 C427 1.409 . S
C421 H413 0.930 . S
C421 C419 1.419 . S
C421 C422 1.362 . S
C422 H414 0.930 . S
C422 C421 1.362 . S
C422 C425 1.409 . S
C423 H415 0.930 . S
C423 C424 1.355 . S
C423 C425 1.415 . S
C424 C423 1.355 . S
C424 C426 1.419 . S
C425 C420 1.425 . S
C425 C422 1.409 . S
C425 C423 1.415 . S
C426 H416 0.930 . S
C426 C424 1.419 . S
C426 C427 1.362 . S
C427 H417 0.930 . S
C427 C420 1.409 . S
C427 C426 1.362 . S
H428 C434 0.930 . S
H429 C437 0.930 . S
H430 C438 0.930 . S
H431 C439 0.930 . S
H432 C442 0.930 . S
H433 C443 0.930 . S
C434 H428 0.930 . S
C434 C435 1.355 . S
C434 C436 1.415 . S
C435 C434 1.355 . S
C435 C437 1.419 . S
C436 C434 1.415 . S
C436 C441 1.425 . S
C436 C443 1.409 . S
C437 H429 0.930 . S
C437 C435 1.419 . S
C437 C438 1.362 . S
C438 H430 0.930 . S
C438 C437 1.362 . S
C438 C441 1.409 . S
C439 H431 0.930 . S
C439 C440 1.355 . S
C439 C441 1.415 . S
C440 C439 1.355 . S
C440 C442 1.419 . S
C441 C436 1.425 . S
C441 C438 1.409 . S
C441 C439 1.415 . S
C442 H432 0.930 . S
C442 C440 1.419 . S
C442 C443 1.362 . S
C443 H433 0.930 . S
C443 C436 1.409 . S
C443 C442 1.362 . S
H444 C450 0.930 . S
H445 C453 0.930 . S
H446 C454 0.930 . S
H447 C455 0.930 . S
H448 C458 0.930 . S
H449 C459 0.930 . S
C450 H444 0.930 . S
C450 C451 1.355 . S
C450 C452 1.415 . S
C451 C450 1.355 . S
C451 C453 1.419 . S
C452 C450 1.415 . S
C452 C457 1.425 . S
C452 C459 1.409 . S
C453 H445 0.930 . S
C453 C451 1.419 . S
C453 C454 1.362 . S
C454 H446 0.930 . S
C454 C453 1.362 . S
C454 C457 1.409 . S
C455 H447 0.930 . S
C455 C456 1.355 . S
C455 C457 1.415 . S
C456 C455 1.355 . S
C456 C458 1.419 . S
C457 C452 1.425 . S
C457 C454 1.409 . S
C457 C455 1.415 . S
C458 H448 0.930 . S
C458 C456 1.419 . S
C458 C459 1.362 . S
C459 H449 0.930 . S
C459 C452 1.409 . S
C459 C458 1.362 . S
H460 C466 0.930 . S
H461 C469 0.930 . S
H462 C470 0.930 . S
H463 C471 0.930 . S
H464 C474 0.930 . S
H465 C475 0.930 . S
C466 H460 0.930 . S
C466 C467 1.355 . S
C466 C468 1.415 . S
C467 C466 1.355 . S
C467 C469 1.419 . S
C468 C466 1.415 . S
C468 C473 1.425 . S
C468 C475 1.409 . S
C469 H461 0.930 . S
C469 C467 1.419 . S
C469 C470 1.362 . S
C470 H462 0.930 . S
C470 C469 1.362 . S
C470 C473 1.409 . S
C471 H463 0.930 . S
C471 C472 1.355 . S
C471 C473 1.415 . S
C472 C471 1.355 . S
C472 C474 1.419 . S
C473 C468 1.425 . S
C473 C470 1.409 . S
C473 C471 1.415 . S
C474 H464 0.930 . S
C474 C472 1.419 . S
C474 C475 1.362 . S
C475 H465 0.930 . S
C475 C468 1.409 . S
C475 C474 1.362 . S
H476 C482 0.930 . S
H477 C485 0.930 . S
H478 C486 0.930 . S
H479 C487 0.930 . S
H480 C490 0.930 . S
H481 C491 0.930 . S
C482 H476 0.930 . S
C482 C483 1.355 . S
C482 C484 1.415 . S
C483 C482 1.355 . S
C483 C485 1.419 . S
C484 C482 1.415 . S
C484 C489 1.425 . S
C484 C491 1.409 . S
C485 H477 0.930 . S
C485 C483 1.419 . S
C485 C486 1.362 . S
C486 H478 0.930 . S
C486 C485 1.362 . S
C486 C489 1.409 . S
C487 H479 0.930 . S
C487 C488 1.355 . S
C487 C489 1.415 . S
C488 C487 1.355 . S
C488 C490 1.419 . S
C489 C484 1.425 . S
C489 C486 1.409 . S
C489 C487 1.415 . S
C490 H480 0.930 . S
C490 C488 1.419 . S
C490 C491 1.362 . S
C491 H481 0.930 . S
C491 C484 1.409 . S
C491 C490 1.362 . S
H492 C498 0.930 . S
H493 C501 0.930 . S
H494 C502 0.930 . S
H495 C503 0.930 . S
H496 C506 0.930 . S
H497 C507 0.930 . S
C498 H492 0.930 . S
C498 C499 1.355 . S
C498 C500 1.415 . S
C499 C498 1.355 . S
C499 C501 1.419 . S
C500 C498 1.415 . S
C500 C505 1.425 . S
C500 C507 1.409 . S
C501 H493 0.930 . S
C501 C499 1.419 . S
C501 C502 1.362 . S
C502 H494 0.930 . S
C502 C501 1.362 . S
C502 C505 1.409 . S
C503 H495 0.930 . S
C503 C504 1.355 . S
C503 C505 1.415 . S
C504 C503 1.355 . S
C504 C506 1.419 . S
C505 C500 1.425 . S
C505 C502 1.409 . S
C505 C503 1.415 . S
C506 H496 0.930 . S
C506 C504 1.419 . S
C506 C507 1.362 . S
C507 H497 0.930 . S
C507 C500 1.409 . S
C507 C506 1.362 . S
H508 C514 0.930 . S
H509 C517 0.930 . S
H510 C518 0.930 . S
H511 C519 0.930 . S
H512 C522 0.930 . S
H513 C523 0.930 . S
C514 H508 0.930 . S
C514 C515 1.355 . S
C514 C516 1.415 . S
C515 C514 1.355 . S
C515 C517 1.419 . S
C516 C514 1.415 . S
C516 C521 1.425 . S
C516 C523 1.409 . S
C517 H509 0.930 . S
C517 C515 1.419 . S
C517 C518 1.362 . S
C518 H510 0.930 . S
C518 C517 1.362 . S
C518 C521 1.409 . S
C519 H511 0.930 . S
C519 C520 1.355 . S
C519 C521 1.415 . S
C520 C519 1.355 . S
C520 C522 1.419 . S
C521 C516 1.425 . S
C521 C518 1.409 . S
C521 C519 1.415 . S
C522 H512 0.930 . S
C522 C520 1.419 . S
C522 C523 1.362 . S
C523 H513 0.930 . S
C523 C516 1.409 . S
C523 C522 1.362 . S
H524 C530 0.930 . S
H525 C533 0.930 . S
H526 C534 0.930 . S
H527 C535 0.930 . S
H528 C538 0.930 . S
H529 C539 0.930 . S
C530 H524 0.930 . S
C530 C531 1.355 . S
C530 C532 1.415 . S
C531 C530 1.355 . S
C531 C533 1.419 . S
C532 C530 1.415 . S
C532 C537 1.425 . S
C532 C539 1.409 . S
C533 H525 0.930 . S
C533 C531 1.419 . S
C533 C534 1.362 . S
C534 H526 0.930 . S
C534 C533 1.362 . S
C534 C537 1.409 . S
C535 H527 0.930 . S
C535 C536 1.355 . S
C535 C537 1.415 . S
C536 C535 1.355 . S
C536 C538 1.419 . S
C537 C532 1.425 . S
C537 C534 1.409 . S
C537 C535 1.415 . S
C538 H528 0.930 . S
C538 C536 1.419 . S
C538 C539 1.362 . S
C539 H529 0.930 . S
C539 C532 1.409 . S
C539 C538 1.362 . S
H540 C546 0.930 . S
H541 C549 0.930 . S
H542 C550 0.930 . S
H543 C551 0.930 . S
H544 C554 0.930 . S
H545 C555 0.930 . S
C546 H540 0.930 . S
C546 C547 1.355 . S
C546 C548 1.415 . S
C547 C546 1.355 . S
C547 C549 1.419 . S
C548 C546 1.415 . S
C548 C553 1.425 . S
C548 C555 1.409 . S
C549 H541 0.930 . S
C549 C547 1.419 . S
C549 C550 1.362 . S
C550 H542 0.930 . S
C550 C549 1.362 . S
C550 C553 1.409 . S
C551 H543 0.930 . S
C551 C552 1.355 . S
C551 C553 1.415 . S
C552 C551 1.355 . S
C552 C554 1.419 . S
C553 C548 1.425 . S
C553 C550 1.409 . S
C553 C551 1.415 . S
C554 H544 0.930 . S
C554 C552 1.419 . S
C554 C555 1.362 . S
C555 H545 0.930 . S
C555 C548 1.409 . S
C555 C554 1.362 . S
H556 C562 0.931 . S
H557 C565 0.930 . S
H558 C566 0.930 . S
H559 C567 0.930 . S
H560 C570 0.930 . S
H561 C571 0.930 . S
C562 H556 0.931 . S
C562 C563 1.343 1_554 S
C562 C564 1.425 . S
C563 C562 1.343 1_556 S
C563 C565 1.419 . S
C564 C562 1.425 . S
C564 C569 1.425 . S
C564 C571 1.409 . S
C565 H557 0.930 . S
C565 C563 1.419 . S
C565 C566 1.362 . S
C566 H558 0.930 . S
C566 C565 1.362 . S
C566 C569 1.409 1_556 S
C567 H559 0.930 . S
C567 C568 1.355 . S
C567 C569 1.415 . S
C568 C567 1.355 . S
C568 C570 1.419 . S
C569 C564 1.425 . S
C569 C566 1.409 1_554 S
C569 C567 1.415 . S
C570 H560 0.930 . S
C570 C568 1.419 . S
C570 C571 1.362 . S
C571 H561 0.930 . S
C571 C564 1.409 . S
C571 C570 1.362 . S
H572 C578 0.930 . S
H573 C581 0.930 . S
H574 C582 0.930 . S
H575 C583 0.930 . S
H576 C586 0.930 . S
H577 C587 0.930 . S
C578 H572 0.930 . S
C578 C579 1.355 . S
C578 C580 1.415 . S
C579 C578 1.355 . S
C579 C581 1.419 . S
C580 C578 1.415 . S
C580 C585 1.425 . S
C580 C587 1.409 . S
C581 H573 0.930 . S
C581 C579 1.419 . S
C581 C582 1.362 . S
C582 H574 0.930 . S
C582 C581 1.362 . S
C582 C585 1.409 . S
C583 H575 0.930 . S
C583 C584 1.355 . S
C583 C585 1.415 . S
C584 C583 1.355 . S
C584 C586 1.419 . S
C585 C580 1.425 . S
C585 C582 1.409 . S
C585 C583 1.415 . S
C586 H576 0.930 . S
C586 C584 1.419 . S
C586 C587 1.362 . S
C587 H577 0.930 . S
C587 C580 1.409 . S
C587 C586 1.362 . S
H588 C594 0.930 . S
H589 C597 0.930 . S
H590 C598 0.930 . S
H591 C599 0.930 . S
H592 C602 0.930 . S
H593 C603 0.930 . S
C594 H588 0.930 . S
C594 C595 1.355 . S
C594 C596 1.415 . S
C595 C594 1.355 . S
C595 C597 1.419 . S
C596 C594 1.415 . S
C596 C601 1.425 . S
C596 C603 1.409 . S
C597 H589 0.930 . S
C597 C595 1.419 . S
C597 C598 1.362 . S
C598 H590 0.930 . S
C598 C597 1.362 . S
C598 C601 1.409 . S
C599 H591 0.930 . S
C599 C600 1.355 . S
C599 C601 1.415 . S
C600 C599 1.355 . S
C600 C602 1.419 . S
C601 C596 1.425 . S
C601 C598 1.409 . S
C601 C599 1.415 . S
C602 H592 0.930 . S
C602 C600 1.419 . S
C602 C603 1.362 . S
C603 H593 0.930 . S
C603 C596 1.409 . S
C603 C602 1.362 . S
H604 C610 0.930 . S
H605 C613 0.930 . S
H606 C614 0.930 . S
H607 C615 0.930 . S
H608 C618 0.930 . S
H609 C619 0.930 . S
C610 H604 0.930 . S
C610 C611 1.355 . S
C610 C612 1.415 . S
C611 C610 1.355 . S
C611 C613 1.419 . S
C612 C610 1.415 . S
C612 C617 1.425 . S
C612 C619 1.409 . S
C613 H605 0.930 . S
C613 C611 1.419 . S
C613 C614 1.362 . S
C614 H606 0.930 . S
C614 C613 1.362 . S
C614 C617 1.409 . S
C615 H607 0.930 . S
C615 C616 1.355 . S
C615 C617 1.415 . S
C616 C615 1.355 . S
C616 C618 1.419 . S
C617 C612 1.425 . S
C617 C614 1.409 . S
C617 C615 1.415 . S
C618 H608 0.930 . S
C618 C616 1.419 . S
C618 C619 1.362 . S
C619 H609 0.930 . S
C619 C612 1.409 . S
C619 C618 1.362 . S
H620 C626 0.930 . S
H621 C629 0.930 . S
H622 C630 0.930 . S
H623 C631 0.930 . S
H624 C634 0.930 . S
H625 C635 0.930 . S
C626 H620 0.930 . S
C626 C627 1.355 . S
C626 C628 1.415 . S
C627 C626 1.355 . S
C627 C629 1.419 . S
C628 C626 1.415 . S
C628 C633 1.425 . S
C628 C635 1.409 . S
C629 H621 0.930 . S
C629 C627 1.419 . S
C629 C630 1.362 . S
C630 H622 0.930 . S
C630 C629 1.362 . S
C630 C633 1.409 . S
C631 H623 0.930 . S
C631 C632 1.355 . S
C631 C633 1.415 . S
C632 C631 1.355 . S
C632 C634 1.419 . S
C633 C628 1.425 . S
C633 C630 1.409 . S
C633 C631 1.415 . S
C634 H624 0.930 . S
C634 C632 1.419 . S
C634 C635 1.362 . S
C635 H625 0.930 . S
C635 C628 1.409 . S
C635 C634 1.362 . S
H636 C642 0.930 . S
H637 C645 0.930 . S
H638 C646 0.930 . S
H639 C647 0.930 1_554 S
H640 C650 0.930 . S
H641 C651 0.930 . S
C642 H636 0.930 . S
C642 C643 1.355 1_556 S
C642 C644 1.415 . S
C643 C642 1.355 1_554 S
C643 C645 1.419 . S
C644 C642 1.415 . S
C644 C649 1.425 1_556 S
C644 C651 1.409 . S
C645 H637 0.930 . S
C645 C643 1.419 . S
C645 C646 1.362 . S
C646 H638 0.930 . S
C646 C645 1.362 . S
C646 C649 1.409 . S
C647 H639 0.930 1_556 S
C647 C648 1.355 . S
C647 C649 1.415 1_556 S
C648 C647 1.355 . S
C648 C650 1.419 . S
C649 C644 1.425 1_554 S
C649 C646 1.409 . S
C649 C647 1.415 1_554 S
C650 H640 0.930 . S
C650 C648 1.419 . S
C650 C651 1.362 . S
C651 H641 0.930 . S
C651 C644 1.409 . S
C651 C650 1.362 . S
H652 C658 0.930 . S
H653 C661 0.930 . S
H654 C662 0.930 . S
H655 C663 0.930 . S
H656 C666 0.930 . S
H657 C667 0.930 . S
C658 H652 0.930 . S
C658 C659 1.355 . S
C658 C660 1.415 . S
C659 C658 1.355 . S
C659 C661 1.419 . S
C660 C658 1.415 . S
C660 C665 1.425 . S
C660 C667 1.409 . S
C661 H653 0.930 . S
C661 C659 1.419 . S
C661 C662 1.362 . S
C662 H654 0.930 . S
C662 C661 1.362 . S
C662 C665 1.409 . S
C663 H655 0.930 . S
C663 C664 1.355 . S
C663 C665 1.415 . S
C664 C663 1.355 . S
C664 C666 1.419 . S
C665 C660 1.425 . S
C665 C662 1.409 . S
C665 C663 1.415 . S
C666 H656 0.930 . S
C666 C664 1.419 . S
C666 C667 1.362 . S
C667 H657 0.930 . S
C667 C660 1.409 . S
C667 C666 1.362 . S
H668 C674 0.930 . S
H669 C677 0.930 . S
H670 C678 0.930 . S
H671 C679 0.930 . S
H672 C682 0.930 . S
H673 C683 0.930 . S
C674 H668 0.930 . S
C674 C675 1.355 . S
C674 C676 1.415 . S
C675 C674 1.355 . S
C675 C677 1.419 . S
C676 C674 1.415 . S
C676 C681 1.425 . S
C676 C683 1.409 . S
C677 H669 0.930 . S
C677 C675 1.419 . S
C677 C678 1.362 . S
C678 H670 0.930 . S
C678 C677 1.362 . S
C678 C681 1.409 . S
C679 H671 0.930 . S
C679 C680 1.355 . S
C679 C681 1.415 . S
C680 C679 1.355 . S
C680 C682 1.419 . S
C681 C676 1.425 . S
C681 C678 1.409 . S
C681 C679 1.415 . S
C682 H672 0.930 . S
C682 C680 1.419 . S
C682 C683 1.362 . S
C683 H673 0.930 . S
C683 C676 1.409 . S
C683 C682 1.362 . S
H684 C690 0.930 . S
H685 C693 0.930 . S
H686 C694 0.930 . S
H687 C695 0.930 . S
H688 C698 0.930 . S
H689 C699 0.930 . S
C690 H684 0.930 . S
C690 C691 1.355 . S
C690 C692 1.415 . S
C691 C690 1.355 . S
C691 C693 1.419 . S
C692 C690 1.415 . S
C692 C697 1.425 . S
C692 C699 1.409 . S
C693 H685 0.930 . S
C693 C691 1.419 . S
C693 C694 1.362 . S
C694 H686 0.930 . S
C694 C693 1.362 . S
C694 C697 1.409 . S
C695 H687 0.930 . S
C695 C696 1.355 . S
C695 C697 1.415 . S
C696 C695 1.355 . S
C696 C698 1.419 . S
C697 C692 1.425 . S
C697 C694 1.409 . S
C697 C695 1.415 . S
C698 H688 0.930 . S
C698 C696 1.419 . S
C698 C699 1.362 . S
C699 H689 0.930 . S
C699 C692 1.409 . S
C699 C698 1.362 . S
H700 C706 0.930 . S
H701 C709 0.930 . S
H702 C710 0.930 . S
H703 C711 0.930 . S
H704 C714 0.930 1_655 S
H705 C715 0.930 1_655 S
C706 H700 0.930 . S
C706 C707 1.355 . S
C706 C708 1.415 . S
C707 C706 1.355 . S
C707 C709 1.419 . S
C708 C706 1.415 . S
C708 C713 1.425 . S
C708 C715 1.409 . S
C709 H701 0.930 . S
C709 C707 1.419 . S
C709 C710 1.362 . S
C710 H702 0.930 . S
C710 C709 1.362 . S
C710 C713 1.409 . S
C711 H703 0.930 . S
C711 C712 1.355 . S
C711 C713 1.415 . S
C712 C711 1.355 . S
C712 C714 1.419 . S
C713 C708 1.425 . S
C713 C710 1.409 . S
C713 C711 1.415 . S
C714 H704 0.930 1_455 S
C714 C712 1.419 . S
C714 C715 1.362 . S
C715 H705 0.930 1_455 S
C715 C708 1.409 . S
C715 C714 1.362 . S
H716 C722 0.930 . S
H717 C725 0.930 . S
H718 C726 0.930 . S
H719 C727 0.930 . S
H720 C730 0.930 . S
H721 C731 0.930 . S
C722 H716 0.930 . S
C722 C723 1.355 . S
C722 C724 1.415 . S
C723 C722 1.355 . S
C723 C725 1.419 . S
C724 C722 1.415 . S
C724 C729 1.425 . S
C724 C731 1.409 . S
C725 H717 0.930 . S
C725 C723 1.419 . S
C725 C726 1.362 . S
C726 H718 0.930 . S
C726 C725 1.362 . S
C726 C729 1.409 . S
C727 H719 0.930 . S
C727 C728 1.355 . S
C727 C729 1.415 . S
C728 C727 1.355 . S
C728 C730 1.419 . S
C729 C724 1.425 . S
C729 C726 1.409 . S
C729 C727 1.415 . S
C730 H720 0.930 . S
C730 C728 1.419 . S
C730 C731 1.362 . S
C731 H721 0.930 . S
C731 C724 1.409 . S
C731 C730 1.362 . S
H732 C738 0.930 . S
H733 C741 0.930 . S
H734 C742 0.930 . S
H735 C743 0.930 . S
H736 C746 0.930 . S
H737 C747 0.930 . S
C738 H732 0.930 . S
C738 C739 1.355 . S
C738 C740 1.415 . S
C739 C738 1.355 . S
C739 C741 1.419 . S
C740 C738 1.415 . S
C740 C745 1.425 . S
C740 C747 1.409 . S
C741 H733 0.930 . S
C741 C739 1.419 . S
C741 C742 1.362 . S
C742 H734 0.930 . S
C742 C741 1.362 . S
C742 C745 1.409 . S
C743 H735 0.930 . S
C743 C744 1.355 . S
C743 C745 1.415 . S
C744 C743 1.355 . S
C744 C746 1.419 . S
C745 C740 1.425 . S
C745 C742 1.409 . S
C745 C743 1.415 . S
C746 H736 0.930 . S
C746 C744 1.419 . S
C746 C747 1.362 . S
C747 H737 0.930 . S
C747 C740 1.409 . S
C747 C746 1.362 . S
H748 C754 0.930 . S
H749 C757 0.930 . S
H750 C758 0.930 . S
H751 C759 0.930 . S
H752 C762 0.930 . S
H753 C763 0.930 . S
C754 H748 0.930 . S
C754 C755 1.355 . S
C754 C756 1.415 . S
C755 C754 1.355 . S
C755 C757 1.419 . S
C756 C754 1.415 . S
C756 C761 1.425 . S
C756 C763 1.409 . S
C757 H749 0.930 . S
C757 C755 1.419 . S
C757 C758 1.362 . S
C758 H750 0.930 . S
C758 C757 1.362 . S
C758 C761 1.409 . S
C759 H751 0.930 . S
C759 C760 1.355 . S
C759 C761 1.415 . S
C760 C759 1.355 . S
C760 C762 1.419 . S
C761 C756 1.425 . S
C761 C758 1.409 . S
C761 C759 1.415 . S
C762 H752 0.930 . S
C762 C760 1.419 . S
C762 C763 1.362 . S
C763 H753 0.930 . S
C763 C756 1.409 . S
C763 C762 1.362 . S
H764 C770 0.930 . S
H765 C773 0.930 . S
H766 C774 0.930 . S
H767 C775 0.930 . S
H768 C778 0.930 . S
H769 C779 0.930 1_545 S
C770 H764 0.930 . S
C770 C771 1.355 . S
C770 C772 1.415 . S
C771 C770 1.355 . S
C771 C773 1.419 . S
C772 C770 1.415 . S
C772 C777 1.425 . S
C772 C779 1.409 . S
C773 H765 0.930 . S
C773 C771 1.419 . S
C773 C774 1.362 . S
C774 H766 0.930 . S
C774 C773 1.362 . S
C774 C777 1.409 . S
C775 H767 0.930 . S
C775 C776 1.355 . S
C775 C777 1.415 . S
C776 C775 1.355 . S
C776 C778 1.419 . S
C777 C772 1.425 . S
C777 C774 1.409 . S
C777 C775 1.415 . S
C778 H768 0.930 . S
C778 C776 1.419 . S
C778 C779 1.362 . S
C779 H769 0.930 1_565 S
C779 C772 1.409 . S
C779 C778 1.362 . S
H780 C786 0.930 . S
H781 C789 0.930 . S
H782 C790 0.930 . S
H783 C791 0.930 . S
H784 C794 0.930 . S
H785 C795 0.930 . S
C786 H780 0.930 . S
C786 C787 1.355 . S
C786 C788 1.415 . S
C787 C786 1.355 . S
C787 C789 1.419 . S
C788 C786 1.415 . S
C788 C793 1.425 . S
C788 C795 1.409 . S
C789 H781 0.930 . S
C789 C787 1.419 . S
C789 C790 1.362 . S
C790 H782 0.930 . S
C790 C789 1.362 . S
C790 C793 1.409 . S
C791 H783 0.930 . S
C791 C792 1.355 . S
C791 C793 1.415 . S
C792 C791 1.355 . S
C792 C794 1.419 . S
C793 C788 1.425 . S
C793 C790 1.409 . S
C793 C791 1.415 . S
C794 H784 0.930 . S
C794 C792 1.419 . S
C794 C795 1.362 . S
C795 H785 0.930 . S
C795 C788 1.409 . S
C795 C794 1.362 . S
H796 C802 0.930 . S
H797 C805 0.930 . S
H798 C806 0.930 . S
H799 C807 0.930 . S
H800 C810 0.930 . S
H801 C811 0.930 . S
C802 H796 0.930 . S
C802 C803 1.355 1_455 S
C802 C804 1.415 . S
C803 C802 1.355 1_655 S
C803 C805 1.419 . S
C804 C802 1.415 . S
C804 C809 1.425 1_455 S
C804 C811 1.409 . S
C805 H797 0.930 . S
C805 C803 1.419 . S
C805 C806 1.362 . S
C806 H798 0.930 . S
C806 C805 1.362 . S
C806 C809 1.409 . S
C807 H799 0.930 . S
C807 C808 1.355 1_655 S
C807 C809 1.415 . S
C808 C807 1.355 1_455 S
C808 C810 1.419 . S
C809 C804 1.425 1_655 S
C809 C806 1.409 . S
C809 C807 1.415 . S
C810 H800 0.930 . S
C810 C808 1.419 . S
C810 C811 1.362 . S
C811 H801 0.930 . S
C811 C804 1.409 . S
C811 C810 1.362 . S
H812 C818 0.930 . S
H813 C821 0.930 . S
H814 C822 0.930 . S
H815 C823 0.930 . S
H816 C826 0.930 . S
H817 C827 0.930 . S
C818 H812 0.930 . S
C818 C819 1.354 . S
C818 C820 1.415 . S
C819 C818 1.354 . S
C819 C821 1.419 1_565 S
C820 C818 1.415 . S
C820 C825 1.425 1_566 S
C820 C827 1.409 1_556 S
C821 H813 0.930 . S
C821 C819 1.419 1_545 S
C821 C822 1.362 . S
C822 H814 0.930 . S
C822 C821 1.362 . S
C822 C825 1.409 1_556 S
C823 H815 0.930 . S
C823 C824 1.354 . S
C823 C825 1.415 . S
C824 C823 1.354 . S
C824 C826 1.419 1_545 S
C825 C820 1.425 1_544 S
C825 C822 1.409 1_554 S
C825 C823 1.415 . S
C826 H816 0.930 . S
C826 C824 1.419 1_565 S
C826 C827 1.362 . S
C827 H817 0.930 . S
C827 C820 1.409 1_554 S
C827 C826 1.362 . S
H828 C834 0.930 . S
H829 C837 0.930 . S
H830 C838 0.930 . S
H831 C839 0.930 . S
H832 C842 0.930 . S
H833 C843 0.930 . S
C834 H828 0.930 . S
C834 C835 1.355 . S
C834 C836 1.415 . S
C835 C834 1.355 . S
C835 C837 1.419 . S
C836 C834 1.415 . S
C836 C841 1.425 . S
C836 C843 1.409 . S
C837 H829 0.930 . S
C837 C835 1.419 . S
C837 C838 1.362 . S
C838 H830 0.930 . S
C838 C837 1.362 . S
C838 C841 1.409 . S
C839 H831 0.930 . S
C839 C840 1.355 . S
C839 C841 1.415 . S
C840 C839 1.355 . S
C840 C842 1.419 . S
C841 C836 1.425 . S
C841 C838 1.409 . S
C841 C839 1.415 . S
C842 H832 0.930 . S
C842 C840 1.419 . S
C842 C843 1.362 . S
C843 H833 0.930 . S
C843 C836 1.409 . S
C843 C842 1.362 . S
H844 C850 0.930 . S
H845 C853 0.930 . S
H846 C854 0.930 . S
H847 C855 0.930 . S
H848 C858 0.930 . S
H849 C859 0.930 . S
C850 H844 0.930 . S
C850 C851 1.355 . S
C850 C852 1.415 . S
C851 C850 1.355 . S
C851 C853 1.419 1_455 S
C852 C850 1.415 . S
C852 C857 1.425 1_455 S
C852 C859 1.409 . S
C853 H845 0.930 . S
C853 C851 1.419 1_655 S
C853 C854 1.362 . S
C854 H846 0.930 . S
C854 C853 1.362 . S
C854 C857 1.409 . S
C855 H847 0.930 . S
C855 C856 1.355 . S
C855 C857 1.415 . S
C856 C855 1.355 . S
C856 C858 1.419 1_655 S
C857 C852 1.425 1_655 S
C857 C854 1.409 . S
C857 C855 1.415 . S
C858 H848 0.930 . S
C858 C856 1.419 1_455 S
C858 C859 1.362 . S
C859 H849 0.930 . S
C859 C852 1.409 . S
C859 C858 1.362 . S
H860 C866 0.930 . S
H861 C869 0.930 . S
H862 C870 0.930 . S
H863 C871 0.930 . S
H864 C874 0.930 . S
H865 C875 0.930 . S
C866 H860 0.930 . S
C866 C867 1.355 1_545 S
C866 C868 1.415 . S
C867 C866 1.355 1_565 S
C867 C869 1.419 . S
C868 C866 1.415 . S
C868 C873 1.425 1_545 S
C868 C875 1.409 . S
C869 H861 0.930 . S
C869 C867 1.419 . S
C869 C870 1.362 . S
C870 H862 0.930 . S
C870 C869 1.362 . S
C870 C873 1.409 . S
C871 H863 0.930 . S
C871 C872 1.355 1_565 S
C871 C873 1.415 . S
C872 C871 1.355 1_545 S
C872 C874 1.419 . S
C873 C868 1.425 1_565 S
C873 C870 1.409 . S
C873 C871 1.415 . S
C874 H864 0.930 . S
C874 C872 1.419 . S
C874 C875 1.362 . S
C875 H865 0.930 . S
C875 C868 1.409 . S
C875 C874 1.362 . S
C403 C282 0.998 . S
C408 C18 0.994 . S
C419 C51 0.994 . S
C424 C315 0.999 . S
C435 C84 1.022 . S
C440 C348 1.037 . S
C451 C117 1.046 . S
C456 C381 1.030 . S
C467 C150 1.005 . S
C472 C216 1.018 . S
C483 C183 1.050 . S
C488 C249 1.065 . S
C499 N13 1.803 . S
C504 C172 1.716 . S
C515 C7 1.745 . S
C520 N46 1.810 . S
C531 N79 1.796 . S
C536 C40 1.721 . S
C547 C73 1.775 . S
C552 N112 1.794 . S
C563 C106 1.749 . S
C568 N145 1.784 . S
C579 N178 1.804 . S
C584 C139 1.763 . S
C595 C238 1.723 . S
C600 N211 1.795 . S
C611 C271 1.742 . S
C616 N244 1.786 . S
C627 C304 1.753 . S
C632 N277 1.783 . S
C643 C337 1.777 . S
C648 N310 1.788 . S
C659 C370 1.775 . S
C664 N343 1.785 . S
C675 N376 1.800 . S
C680 C205 1.717 . S
C691 C21 1.368 . S
C696 C219 1.368 . S
C707 C54 1.346 . S
C712 C252 1.346 . S
C723 C87 1.327 . S
C728 C285 1.327 . S
C739 C120 1.365 . S
C744 C318 1.365 . S
C755 C351 1.369 . S
C760 C153 1.369 . S
C771 C186 1.367 . S
C776 C384 1.367 . S
C787 N299 0.925 . S
C792 N2 0.884 . S
C803 N35 0.838 1_655 S
C808 N332 0.910 1_455 S
C819 N68 0.719 1_565 S
C824 N365 0.789 1_545 S
C835 N101 0.780 . S
C840 N200 0.717 . S
C851 N134 0.739 1_455 S
C856 N233 0.823 1_655 S
C867 N266 0.854 1_565 S
C872 N167 0.917 1_545 S
