# Generated by pormake.
# Topology uol, (4)-cn, num edge types: 1
# Building blocks:
#     Node 0, Type 0, BuildingBlock: KUFVIS_clean_sbu_0, # of connection points: 4
#     Node 1, Type 0, BuildingBlock: KUFVIS_clean_sbu_0, # of connection points: 4
#     Node 2, Type 0, BuildingBlock: KUFVIS_clean_sbu_0, # of connection points: 4
#     Node 3, Type 0, BuildingBlock: KUFVIS_clean_sbu_0, # of connection points: 4
#     Node 4, Type 0, BuildingBlock: KUFVIS_clean_sbu_0, # of connection points: 4
#     Node 5, Type 0, BuildingBlock: KUFVIS_clean_sbu_0, # of connection points: 4
#     Node 6, Type 0, BuildingBlock: KUFVIS_clean_sbu_0, # of connection points: 4
#     Node 7, Type 0, BuildingBlock: KUFVIS_clean_sbu_0, # of connection points: 4
#     Node 8, Type 0, BuildingBlock: KUFVIS_clean_sbu_0, # of connection points: 4
#     Node 9, Type 0, BuildingBlock: KUFVIS_clean_sbu_0, # of connection points: 4
#     Node 10, Type 0, BuildingBlock: KUFVIS_clean_sbu_0, # of connection points: 4
#     Node 11, Type 0, BuildingBlock: KUFVIS_clean_sbu_0, # of connection points: 4
#     Edge 12, Type (0, 0), BuildingBlock: OJICUG_clean_linker_0, # of connection points: 2
#     Edge 13, Type (0, 0), BuildingBlock: OJICUG_clean_linker_0, # of connection points: 2
#     Edge 14, Type (0, 0), BuildingBlock: OJICUG_clean_linker_0, # of connection points: 2
#     Edge 15, Type (0, 0), BuildingBlock: OJICUG_clean_linker_0, # of connection points: 2
#     Edge 16, Type (0, 0), BuildingBlock: OJICUG_clean_linker_0, # of connection points: 2
#     Edge 17, Type (0, 0), BuildingBlock: OJICUG_clean_linker_0, # of connection points: 2
#     Edge 18, Type (0, 0), BuildingBlock: OJICUG_clean_linker_0, # of connection points: 2
#     Edge 19, Type (0, 0), BuildingBlock: OJICUG_clean_linker_0, # of connection points: 2
#     Edge 20, Type (0, 0), BuildingBlock: OJICUG_clean_linker_0, # of connection points: 2
#     Edge 21, Type (0, 0), BuildingBlock: OJICUG_clean_linker_0, # of connection points: 2
#     Edge 22, Type (0, 0), BuildingBlock: OJICUG_clean_linker_0, # of connection points: 2
#     Edge 23, Type (0, 0), BuildingBlock: OJICUG_clean_linker_0, # of connection points: 2
#     Edge 24, Type (0, 0), BuildingBlock: OJICUG_clean_linker_0, # of connection points: 2
#     Edge 25, Type (0, 0), BuildingBlock: OJICUG_clean_linker_0, # of connection points: 2
#     Edge 26, Type (0, 0), BuildingBlock: OJICUG_clean_linker_0, # of connection points: 2
#     Edge 27, Type (0, 0), BuildingBlock: OJICUG_clean_linker_0, # of connection points: 2
#     Edge 28, Type (0, 0), BuildingBlock: OJICUG_clean_linker_0, # of connection points: 2
#     Edge 29, Type (0, 0), BuildingBlock: OJICUG_clean_linker_0, # of connection points: 2
#     Edge 30, Type (0, 0), BuildingBlock: OJICUG_clean_linker_0, # of connection points: 2
#     Edge 31, Type (0, 0), BuildingBlock: OJICUG_clean_linker_0, # of connection points: 2
#     Edge 32, Type (0, 0), BuildingBlock: OJICUG_clean_linker_0, # of connection points: 2
#     Edge 33, Type (0, 0), BuildingBlock: OJICUG_clean_linker_0, # of connection points: 2
#     Edge 34, Type (0, 0), BuildingBlock: OJICUG_clean_linker_0, # of connection points: 2
#     Edge 35, Type (0, 0), BuildingBlock: OJICUG_clean_linker_0, # of connection points: 2
# Relax obj value: 0.137
# Max RMSD: 0.196
# Mean RMSD: 0.196
data_MOF--net-uol--node1-KUFVIS_clean_sbu_0--edge1-OJICUG_clean_linker_0
_symmetry_space_group_name_H-M    P1
_symmetry_Int_Tables_number       1
_symmetry_cell_setting            triclinic
loop_
_symmetry_equiv_pos_as_xyz
'x, y, z'
_cell_length_a     23.280571
_cell_length_b     23.281567
_cell_length_c     50.161872
_cell_angle_alpha  89.99708
_cell_angle_beta   90.002584
_cell_angle_gamma 119.99844
loop_
_atom_site_label
_atom_site_type_symbol
_atom_site_fract_x
_atom_site_fract_y
_atom_site_fract_z
_atom_type_partial_charge
Mn0 Mn 0.14134 0.32759 0.09777 0.0
Mn1 Mn 0.17899 0.40502 0.15757 0.0
C2 C 0.18732 0.29317 0.13027 0.0
C3 C 0.17481 0.32659 0.05386 0.0
C4 C 0.03924 0.30151 0.14111 0.0
O5 O 0.13546 0.41057 0.09111 0.0
O6 O 0.17363 0.46387 0.13017 0.0
C7 C 0.31529 0.51267 0.14566 0.0
N8 N 0.27265 0.46093 0.16127 0.0
C9 C 0.36084 0.47686 0.19082 0.0
C10 C 0.40568 0.53072 0.1752 0.0
C11 C 0.38282 0.54855 0.15248 0.0
C12 C 0.29409 0.44326 0.18314 0.0
H13 H 0.29784 0.52626 0.12813 0.0
C14 C 0.15375 0.46092 0.10615 0.0
O15 O 0.11232 0.29525 0.0603 0.0
O16 O 0.21667 0.35943 0.07263 0.0
N17 N 0.18599 0.35499 0.18633 0.0
C18 C 0.13792 0.29741 0.19737 0.0
C19 C 0.15362 0.27005 0.21916 0.0
C20 C 0.21789 0.30321 0.22998 0.0
C21 C 0.26625 0.363 0.21857 0.0
C22 C 0.24793 0.38753 0.19664 0.0
H23 H 0.08834 0.27181 0.18926 0.0
O24 O 0.15762 0.25596 0.10985 0.0
O25 O 0.19228 0.35156 0.13055 0.0
O26 O 0.05296 0.28465 0.11875 0.0
O27 O 0.08214 0.34768 0.15593 0.0
C28 C 0.33276 0.39732 0.2272 0.0
C29 C 0.38006 0.45411 0.21328 0.0
H30 H 0.45789 0.55819 0.18026 0.0
H31 H 0.4172 0.58975 0.14022 0.0
H32 H 0.11627 0.22328 0.22749 0.0
H33 H 0.22992 0.2816 0.24667 0.0
H34 H 0.34843 0.37938 0.24404 0.0
H35 H 0.43135 0.47913 0.21971 0.0
Mn36 Mn 0.81332 0.14169 0.26447 0.0
Mn37 Mn 0.77399 0.17994 0.32423 0.0
C38 C 0.89388 0.18759 0.29691 0.0
C39 C 0.84762 0.17484 0.22053 0.0
C40 C 0.73689 0.03992 0.30783 0.0
O41 O 0.7246 0.13617 0.25786 0.0
O42 O 0.71009 0.17525 0.29682 0.0
C43 C 0.80395 0.31669 0.3124 0.0
N44 N 0.81249 0.27367 0.32799 0.0
C45 C 0.88526 0.36146 0.35759 0.0
C46 C 0.87682 0.40669 0.34198 0.0
C47 C 0.83614 0.38422 0.31924 0.0
C48 C 0.85157 0.29473 0.34988 0.0
H49 H 0.77293 0.29954 0.29485 0.0
C50 C 0.69293 0.15507 0.27283 0.0
O51 O 0.81632 0.11239 0.22703 0.0
O52 O 0.85692 0.21686 0.23926 0.0
N53 N 0.8308 0.1863 0.35298 0.0
C54 C 0.83979 0.13786 0.36398 0.0
C55 C 0.88274 0.15311 0.38579 0.0
C56 C 0.91431 0.21733 0.39664 0.0
C57 C 0.90345 0.2661 0.38527 0.0
C58 C 0.86063 0.2482 0.36333 0.0
H59 H 0.81548 0.08832 0.35584 0.0
O60 O 0.90119 0.1577 0.27651 0.0
O61 O 0.84058 0.19277 0.2972 0.0
O62 O 0.7677 0.05345 0.28552 0.0
O63 O 0.73371 0.083 0.32255 0.0
C64 C 0.93612 0.33257 0.39393 0.0
C65 C 0.92719 0.38026 0.38005 0.0
H66 H 0.90199 0.45889 0.34706 0.0
H67 H 0.82978 0.4189 0.30699 0.0
H68 H 0.8917 0.11543 0.39409 0.0
H69 H 0.94788 0.22901 0.41334 0.0
H70 H 0.96972 0.34792 0.41078 0.0
H71 H 0.95386 0.43152 0.3865 0.0
Mn72 Mn 0.6712 0.8138 0.43118 0.0
Mn73 Mn 0.59399 0.77379 0.49102 0.0
C74 C 0.70556 0.89417 0.46369 0.0
C75 C 0.67199 0.84821 0.38729 0.0
C76 C 0.69762 0.73784 0.47444 0.0
O77 O 0.58832 0.72486 0.42456 0.0
O78 O 0.53502 0.70964 0.46363 0.0
C79 C 0.48609 0.80226 0.47936 0.0
N80 N 0.53801 0.81144 0.49487 0.0
C81 C 0.52216 0.88352 0.52455 0.0
C82 C 0.46811 0.87441 0.50903 0.0
C83 C 0.45014 0.83375 0.4863 0.0
C84 C 0.5558 0.85049 0.51676 0.0
H85 H 0.47238 0.77123 0.46182 0.0
C86 C 0.53796 0.69276 0.43959 0.0
O87 O 0.70345 0.81717 0.39371 0.0
O88 O 0.63915 0.85717 0.40607 0.0
N89 N 0.64419 0.8308 0.51977 0.0
C90 C 0.70192 0.84042 0.53069 0.0
C91 C 0.72944 0.88351 0.55247 0.0
C92 C 0.69629 0.91451 0.56339 0.0
C93 C 0.63635 0.90298 0.55209 0.0
C94 C 0.61167 0.86012 0.53016 0.0
H95 H 0.72753 0.81654 0.52251 0.0
O96 O 0.74274 0.90178 0.44325 0.0
O97 O 0.64724 0.84066 0.46399 0.0
O98 O 0.71442 0.76855 0.4521 0.0
O99 O 0.65139 0.73436 0.48926 0.0
C100 C 0.602 0.93503 0.56083 0.0
C101 C 0.54504 0.92544 0.54702 0.0
H102 H 0.44059 0.89904 0.51419 0.0
H103 H 0.40879 0.82686 0.47412 0.0
H104 H 0.77633 0.89302 0.56071 0.0
H105 H 0.71803 0.94818 0.58006 0.0
H106 H 0.62005 0.96863 0.57767 0.0
H107 H 0.51998 0.95161 0.55353 0.0
Mn108 Mn 0.85848 0.67247 0.59764 0.0
Mn109 Mn 0.82064 0.5951 0.65745 0.0
C110 C 0.81249 0.70699 0.6301 0.0
C111 C 0.8251 0.67344 0.55371 0.0
C112 C 0.96049 0.69834 0.64098 0.0
O113 O 0.86423 0.58939 0.59104 0.0
O114 O 0.82564 0.53603 0.63007 0.0
C115 C 0.68411 0.48781 0.64563 0.0
N116 N 0.72695 0.5395 0.66121 0.0
C117 C 0.63899 0.52408 0.69079 0.0
C118 C 0.59395 0.47026 0.6752 0.0
C119 C 0.61659 0.4522 0.65248 0.0
C120 C 0.70572 0.5574 0.68308 0.0
H121 H 0.7014 0.47405 0.6281 0.0
C122 C 0.84564 0.53896 0.60606 0.0
O123 O 0.88757 0.70474 0.56017 0.0
O124 O 0.78319 0.64067 0.57248 0.0
N125 N 0.81399 0.6454 0.68619 0.0
C126 C 0.86226 0.70291 0.6972 0.0
C127 C 0.84681 0.73045 0.719 0.0
C128 C 0.78257 0.69757 0.72984 0.0
C129 C 0.73398 0.63786 0.71846 0.0
C130 C 0.75208 0.61311 0.69653 0.0
H131 H 0.91181 0.7283 0.68907 0.0
O132 O 0.84226 0.74419 0.60968 0.0
O133 O 0.8075 0.6486 0.6304 0.0
O134 O 0.94682 0.71535 0.61864 0.0
O135 O 0.91753 0.65213 0.65576 0.0
C136 C 0.66751 0.6038 0.72712 0.0
C137 C 0.62 0.54706 0.71325 0.0
H138 H 0.54175 0.44301 0.68029 0.0
H139 H 0.58205 0.41104 0.64024 0.0
H140 H 0.88435 0.77714 0.72732 0.0
H141 H 0.77073 0.71934 0.74654 0.0
H142 H 0.65202 0.62192 0.74396 0.0
H143 H 0.56874 0.52225 0.7197 0.0
Mn144 Mn 0.18613 0.85797 0.76447 0.0
Mn145 Mn 0.22571 0.8199 0.82421 0.0
C146 C 0.10561 0.81185 0.79692 0.0
C147 C 0.15186 0.82484 0.72052 0.0
C148 C 0.26228 0.9598 0.80786 0.0
O149 O 0.27497 0.86378 0.75783 0.0
O150 O 0.28977 0.825 0.7968 0.0
C151 C 0.19647 0.68341 0.81231 0.0
N152 N 0.18764 0.7262 0.82792 0.0
C153 C 0.11525 0.63817 0.85751 0.0
C154 C 0.124 0.59318 0.84188 0.0
C155 C 0.16463 0.61589 0.81913 0.0
C156 C 0.14861 0.70492 0.84982 0.0
H157 H 0.22747 0.70075 0.79476 0.0
C158 C 0.30683 0.84513 0.77281 0.0
O159 O 0.18301 0.88727 0.72703 0.0
O160 O 0.14267 0.78281 0.73924 0.0
N161 N 0.16879 0.81314 0.85299 0.0
C162 C 0.15948 0.86135 0.86401 0.0
C163 C 0.11651 0.84582 0.88583 0.0
C164 C 0.08527 0.78158 0.89667 0.0
C165 C 0.09646 0.73306 0.88526 0.0
C166 C 0.13926 0.75122 0.86331 0.0
H167 H 0.18354 0.9109 0.85589 0.0
O168 O 0.09819 0.84169 0.77653 0.0
O169 O 0.15901 0.80684 0.7972 0.0
O170 O 0.23156 0.94621 0.78553 0.0
O171 O 0.26556 0.91679 0.82259 0.0
C172 C 0.06412 0.66657 0.89391 0.0
C173 C 0.07335 0.61912 0.87999 0.0
H174 H 0.0991 0.54097 0.84694 0.0
H175 H 0.17123 0.58138 0.80686 0.0
H176 H 0.10727 0.88329 0.89416 0.0
H177 H 0.05169 0.76968 0.91338 0.0
H178 H 0.03054 0.65103 0.91076 0.0
H179 H 0.04694 0.56784 0.88642 0.0
Mn180 Mn 0.32804 0.18578 0.93124 0.0
Mn181 Mn 0.40541 0.2255 0.99104 0.0
C182 C 0.29353 0.10534 0.96372 0.0
C183 C 0.32707 0.15139 0.88732 0.0
C184 C 0.30203 0.26189 0.97455 0.0
O185 O 0.41106 0.2746 0.92461 0.0
O186 O 0.46443 0.2896 0.96365 0.0
C187 C 0.51291 0.19653 0.97927 0.0
N188 N 0.46114 0.18756 0.99482 0.0
C189 C 0.47676 0.1152 0.02444 0.0
C190 C 0.53065 0.1241 0.00887 0.0
C191 C 0.54866 0.16479 0.98614 0.0
C192 C 0.44331 0.14847 0.0167 0.0
H193 H 0.52664 0.22758 0.96173 0.0
C194 C 0.46148 0.30655 0.93962 0.0
O195 O 0.29576 0.18256 0.89377 0.0
O196 O 0.35986 0.14228 0.90609 0.0
N197 N 0.35518 0.16854 0.0198 0.0
C198 C 0.29759 0.15915 0.03078 0.0
C199 C 0.27006 0.1161 0.05257 0.0
C200 C 0.30306 0.08489 0.06344 0.0
C201 C 0.36285 0.09618 0.05208 0.0
C202 C 0.38756 0.13902 0.03015 0.0
H203 H 0.2721 0.1832 0.02264 0.0
O204 O 0.25635 0.09787 0.94329 0.0
O205 O 0.35193 0.15875 0.96402 0.0
O206 O 0.2851 0.23122 0.95221 0.0
O207 O 0.34824 0.26521 0.98935 0.0
C208 C 0.39703 0.06389 0.06076 0.0
C209 C 0.45384 0.07325 0.0469 0.0
H210 H 0.55801 0.09928 0.01398 0.0
H211 H 0.58989 0.17151 0.97392 0.0
H212 H 0.22327 0.10678 0.06085 0.0
H213 H 0.28131 0.05125 0.08012 0.0
H214 H 0.37895 0.03028 0.0776 0.0
H215 H 0.47875 0.04691 0.05337 0.0
Mn216 Mn 0.67187 0.85853 0.73892 0.0
Mn217 Mn 0.59476 0.82143 0.67906 0.0
C218 C 0.70645 0.81282 0.70637 0.0
C219 C 0.67266 0.82466 0.78279 0.0
C220 C 0.69809 0.96104 0.69575 0.0
O221 O 0.5888 0.86425 0.74557 0.0
O222 O 0.53563 0.82626 0.70646 0.0
C223 C 0.48712 0.68489 0.6906 0.0
N224 N 0.53901 0.72781 0.67513 0.0
C225 C 0.52349 0.64013 0.64536 0.0
C226 C 0.46948 0.59501 0.66085 0.0
C227 C 0.45135 0.61748 0.6836 0.0
C228 C 0.55695 0.70676 0.65321 0.0
H229 H 0.47329 0.70203 0.70816 0.0
C230 C 0.53844 0.84591 0.73052 0.0
O231 O 0.704 0.8872 0.77644 0.0
O232 O 0.63993 0.78296 0.76396 0.0
N233 N 0.64515 0.81496 0.65031 0.0
C234 C 0.70285 0.86323 0.63943 0.0
C235 C 0.73053 0.84789 0.61764 0.0
C236 C 0.69757 0.78379 0.60667 0.0
C237 C 0.63765 0.73522 0.61792 0.0
C238 C 0.6128 0.75317 0.63986 0.0
H239 H 0.72831 0.91268 0.64765 0.0
O240 O 0.74358 0.84237 0.72683 0.0
O241 O 0.64807 0.80787 0.70608 0.0
O242 O 0.71493 0.9471 0.71807 0.0
O243 O 0.65193 0.91827 0.6809 0.0
C244 C 0.60348 0.66886 0.60912 0.0
C245 C 0.54654 0.62131 0.62288 0.0
H246 H 0.4421 0.54289 0.65564 0.0
H247 H 0.41002 0.58287 0.69575 0.0
H248 H 0.77738 0.88542 0.60942 0.0
H249 H 0.71944 0.77203 0.58999 0.0
H250 H 0.62166 0.65348 0.59227 0.0
H251 H 0.52163 0.57013 0.61632 0.0
Mn252 Mn 0.81311 0.67152 0.90563 0.0
Mn253 Mn 0.77358 0.59388 0.84588 0.0
C254 C 0.89365 0.70594 0.87318 0.0
C255 C 0.84739 0.67265 0.94959 0.0
C256 C 0.73695 0.69718 0.86223 0.0
O257 O 0.7243 0.58845 0.91227 0.0
O258 O 0.70958 0.53488 0.8733 0.0
C259 C 0.80297 0.48672 0.85779 0.0
N260 N 0.81173 0.53831 0.84217 0.0
C261 C 0.88416 0.52276 0.81257 0.0
C262 C 0.87548 0.46904 0.82821 0.0
C263 C 0.83487 0.45109 0.85096 0.0
C264 C 0.85075 0.5561 0.82027 0.0
H265 H 0.77198 0.47304 0.87534 0.0
C266 C 0.69251 0.53791 0.8973 0.0
O267 O 0.81623 0.70393 0.94307 0.0
O268 O 0.85659 0.63984 0.93086 0.0
N269 N 0.83048 0.64408 0.81711 0.0
C270 C 0.83974 0.70159 0.80609 0.0
C271 C 0.88269 0.72906 0.78427 0.0
C272 C 0.91396 0.6961 0.77342 0.0
C273 C 0.90283 0.63641 0.78483 0.0
C274 C 0.86005 0.61174 0.80678 0.0
H275 H 0.81565 0.72704 0.81422 0.0
O276 O 0.90105 0.7432 0.89357 0.0
O277 O 0.84026 0.64753 0.8729 0.0
O278 O 0.76767 0.71431 0.88456 0.0
O279 O 0.73365 0.65085 0.84751 0.0
C280 C 0.93522 0.60231 0.77618 0.0
C281 C 0.92605 0.54564 0.79009 0.0
H282 H 0.90043 0.44178 0.82314 0.0
H283 H 0.82832 0.41001 0.86323 0.0
H284 H 0.89189 0.77577 0.77595 0.0
H285 H 0.94753 0.71781 0.75671 0.0
H286 H 0.96879 0.62037 0.75932 0.0
H287 H 0.9525 0.52082 0.78366 0.0
Mn288 Mn 0.14082 0.81291 0.07244 0.0
Mn289 Mn 0.17834 0.77319 0.01261 0.0
C290 C 0.18698 0.89342 0.03998 0.0
C291 C 0.17431 0.84719 0.11637 0.0
C292 C 0.03864 0.737 0.02912 0.0
O293 O 0.13481 0.72395 0.07903 0.0
O294 O 0.17324 0.70905 0.03998 0.0
C295 C 0.31477 0.80195 0.02431 0.0
N296 N 0.27198 0.81102 0.00879 0.0
C297 C 0.35991 0.88329 0.97914 0.0
C298 C 0.4049 0.8743 0.99468 0.0
C299 C 0.38224 0.83361 0.01741 0.0
C300 C 0.29322 0.85011 0.98691 0.0
H301 H 0.29747 0.7709 0.04185 0.0
C302 C 0.15328 0.69203 0.06399 0.0
O303 O 0.11183 0.81617 0.10992 0.0
O304 O 0.21616 0.85621 0.0976 0.0
N305 N 0.18507 0.83022 0.98388 0.0
C306 C 0.13688 0.83966 0.97292 0.0
C307 C 0.15238 0.88268 0.95112 0.0
C308 C 0.21657 0.91385 0.94023 0.0
C309 C 0.26506 0.9025 0.95157 0.0
C310 C 0.24693 0.85965 0.9735 0.0
H311 H 0.08736 0.81565 0.98108 0.0
O312 O 0.15731 0.90095 0.06041 0.0
O313 O 0.19177 0.8399 0.03967 0.0
O314 O 0.05244 0.7677 0.05146 0.0
O315 O 0.08148 0.73358 0.01433 0.0
C316 C 0.33149 0.9347 0.94285 0.0
C317 C 0.37892 0.92524 0.95668 0.0
H318 H 0.45706 0.89905 0.98955 0.0
H319 H 0.41674 0.82682 0.0296 0.0
H320 H 0.11491 0.892 0.94283 0.0
H321 H 0.22845 0.94748 0.92355 0.0
H322 H 0.34701 0.9683 0.92601 0.0
H323 H 0.43016 0.95152 0.95019 0.0
Mn324 Mn 0.32758 0.14103 0.23902 0.0
Mn325 Mn 0.40472 0.17855 0.17917 0.0
C326 C 0.29297 0.18691 0.20654 0.0
C327 C 0.32675 0.17454 0.28295 0.0
C328 C 0.3016 0.03879 0.19578 0.0
O329 O 0.41073 0.13539 0.2456 0.0
O330 O 0.46402 0.17394 0.20655 0.0
C331 C 0.51202 0.31525 0.19071 0.0
N332 N 0.4602 0.27221 0.17524 0.0
C333 C 0.47534 0.35979 0.14549 0.0
C334 C 0.52929 0.40503 0.16097 0.0
C335 C 0.54756 0.38268 0.18372 0.0
C336 C 0.44211 0.29315 0.15333 0.0
H337 H 0.52596 0.29819 0.20827 0.0
C338 C 0.46118 0.15408 0.23058 0.0
O339 O 0.29544 0.11205 0.27651 0.0
O340 O 0.35944 0.2164 0.26416 0.0
N341 N 0.35414 0.18483 0.15045 0.0
C342 C 0.29649 0.13643 0.13958 0.0
C343 C 0.26868 0.15163 0.11779 0.0
C344 C 0.30143 0.21574 0.10682 0.0
C345 C 0.3613 0.26444 0.11806 0.0
C346 C 0.3863 0.24662 0.13999 0.0
H347 H 0.27117 0.08699 0.1478 0.0
O348 O 0.25582 0.15721 0.22698 0.0
O349 O 0.35135 0.19187 0.20623 0.0
O350 O 0.28459 0.0526 0.21809 0.0
O351 O 0.34783 0.08166 0.18099 0.0
C352 C 0.39526 0.33081 0.10926 0.0
C353 C 0.45214 0.37848 0.12302 0.0
H354 H 0.55649 0.45716 0.15578 0.0
H355 H 0.58883 0.41738 0.19587 0.0
H356 H 0.22188 0.11399 0.10958 0.0
H357 H 0.27946 0.22739 0.09015 0.0
H358 H 0.37696 0.34609 0.09242 0.0
H359 H 0.47688 0.42966 0.11646 0.0
Mn360 Mn 0.1863 0.32776 0.40564 0.0
Mn361 Mn 0.2262 0.40504 0.34582 0.0
C362 C 0.10594 0.29327 0.37312 0.0
C363 C 0.15171 0.32688 0.44953 0.0
C364 C 0.2626 0.30173 0.36243 0.0
O365 O 0.27512 0.41081 0.41229 0.0
O366 O 0.29012 0.46417 0.37324 0.0
C367 C 0.19705 0.51249 0.35742 0.0
N368 N 0.1882 0.46069 0.34192 0.0
C369 C 0.11595 0.47612 0.31217 0.0
C370 C 0.12472 0.53005 0.32768 0.0
C371 C 0.16529 0.54817 0.35044 0.0
C372 C 0.14924 0.44276 0.31999 0.0
H373 H 0.228 0.52631 0.37498 0.0
C374 C 0.30704 0.46125 0.39727 0.0
O375 O 0.18289 0.29554 0.44314 0.0
O376 O 0.14273 0.35966 0.43073 0.0
N377 N 0.16937 0.35464 0.31707 0.0
C378 C 0.16 0.29697 0.30618 0.0
C379 C 0.11701 0.2693 0.28438 0.0
C380 C 0.0858 0.30221 0.27342 0.0
C381 C 0.09707 0.36209 0.28468 0.0
C382 C 0.13987 0.38695 0.30662 0.0
H383 H 0.18402 0.27154 0.3144 0.0
O384 O 0.09839 0.25609 0.39355 0.0
O385 O 0.15938 0.35164 0.37283 0.0
O386 O 0.23177 0.28475 0.38474 0.0
O387 O 0.26601 0.34798 0.34763 0.0
C388 C 0.0648 0.39619 0.2759 0.0
C389 C 0.07409 0.45307 0.28968 0.0
H390 H 0.09988 0.55735 0.3225 0.0
H391 H 0.17191 0.58942 0.36262 0.0
H392 H 0.10774 0.22248 0.27616 0.0
H393 H 0.05219 0.28034 0.25674 0.0
H394 H 0.03123 0.37799 0.25905 0.0
H395 H 0.04774 0.47791 0.28314 0.0
Mn396 Mn 0.85806 0.1867 0.57237 0.0
Mn397 Mn 0.82002 0.22617 0.51259 0.0
C398 C 0.81175 0.10609 0.53996 0.0
C399 C 0.82496 0.15257 0.61634 0.0
C400 C 0.95989 0.26253 0.52892 0.0
O401 O 0.86402 0.27563 0.57896 0.0
O402 O 0.82533 0.29039 0.53996 0.0
C403 C 0.68366 0.1973 0.52452 0.0
N404 N 0.72633 0.18826 0.50892 0.0
C405 C 0.63814 0.11582 0.4794 0.0
C406 C 0.59327 0.12479 0.49503 0.0
C407 C 0.61612 0.16555 0.51773 0.0
C408 C 0.70491 0.14909 0.48706 0.0
H409 H 0.7011 0.2284 0.54204 0.0
C410 C 0.84545 0.3075 0.56395 0.0
O411 O 0.88739 0.18362 0.60981 0.0
O412 O 0.78294 0.14342 0.59763 0.0
N413 N 0.81306 0.16908 0.48385 0.0
C414 C 0.86119 0.15967 0.4728 0.0
C415 C 0.84553 0.11663 0.45101 0.0
C416 C 0.78124 0.08541 0.44021 0.0
C417 C 0.73281 0.0967 0.45164 0.0
C418 C 0.7511 0.13957 0.47357 0.0
H419 H 0.91078 0.18373 0.48089 0.0
O420 O 0.84159 0.09866 0.56035 0.0
O421 O 0.80688 0.15956 0.53966 0.0
O422 O 0.94628 0.23194 0.55128 0.0
O423 O 0.9169 0.26584 0.51418 0.0
C424 C 0.66629 0.06441 0.44303 0.0
C425 C 0.61895 0.07382 0.45695 0.0
H426 H 0.54105 0.09997 0.48998 0.0
H427 H 0.58171 0.17232 0.52999 0.0
H428 H 0.88294 0.10731 0.44266 0.0
H429 H 0.76925 0.05178 0.42351 0.0
H430 H 0.65064 0.03078 0.4262 0.0
H431 H 0.56765 0.04747 0.45054 0.0
C432 C 0.15184 0.62259 0.10247 0.0
C433 C 0.15231 0.63239 0.07481 0.0
H434 H 0.15256 0.56115 0.13403 0.0
C435 C 0.15254 0.58493 0.05753 0.0
H436 H 0.15193 0.65834 0.11632 0.0
C437 C 0.15213 0.52883 0.06767 0.0
C438 C 0.15257 0.51948 0.09532 0.0
H439 H 0.15263 0.59088 0.0361 0.0
H440 H 0.15244 0.49328 0.05382 0.0
C441 C 0.15251 0.56702 0.11261 0.0
C442 C 0.62333 0.15316 0.23433 0.0
C443 C 0.6333 0.15407 0.26199 0.0
H444 H 0.56154 0.15307 0.20274 0.0
C445 C 0.58586 0.15442 0.27925 0.0
H446 H 0.65906 0.15314 0.2205 0.0
C447 C 0.52956 0.15358 0.26909 0.0
C448 C 0.51999 0.15346 0.24143 0.0
H449 H 0.59194 0.15486 0.30068 0.0
H450 H 0.494 0.15394 0.28292 0.0
C451 C 0.56757 0.1534 0.22416 0.0
C452 C 0.47012 0.6234 0.40107 0.0
C453 C 0.4794 0.63308 0.42874 0.0
H454 H 0.4082 0.56195 0.36947 0.0
C455 C 0.4318 0.58542 0.44599 0.0
H456 H 0.50571 0.65931 0.38725 0.0
C457 C 0.37627 0.52921 0.4358 0.0
C458 C 0.36657 0.51995 0.40814 0.0
H459 H 0.4376 0.59127 0.46741 0.0
H460 H 0.34049 0.49349 0.44963 0.0
C461 C 0.41407 0.56772 0.39089 0.0
C462 C 0.84654 0.43269 0.61254 0.0
C463 C 0.84661 0.4803 0.59525 0.0
H464 H 0.84687 0.34125 0.61627 0.0
C465 C 0.84699 0.4709 0.5676 0.0
H466 H 0.84652 0.4386 0.63396 0.0
C467 C 0.84642 0.4147 0.55746 0.0
C468 C 0.84654 0.3672 0.57476 0.0
H469 H 0.84679 0.50649 0.55374 0.0
H470 H 0.8463 0.40873 0.53604 0.0
C471 C 0.84704 0.37704 0.60241 0.0
C472 C 0.47022 0.84668 0.76903 0.0
C473 C 0.47972 0.84669 0.74137 0.0
H474 H 0.40794 0.84554 0.80063 0.0
C475 C 0.43214 0.84678 0.72412 0.0
H476 H 0.50579 0.84632 0.78286 0.0
C477 C 0.37642 0.8471 0.73429 0.0
C478 C 0.3665 0.84624 0.76195 0.0
H479 H 0.43811 0.84705 0.70269 0.0
H480 H 0.34067 0.84709 0.72047 0.0
C481 C 0.41397 0.84592 0.77921 0.0
C482 C 0.56768 0.41385 0.94602 0.0
C483 C 0.52009 0.36617 0.92877 0.0
H484 H 0.659 0.50577 0.94965 0.0
C485 C 0.52941 0.37581 0.9011 0.0
H486 H 0.56184 0.40803 0.96744 0.0
C487 C 0.5855 0.43145 0.89092 0.0
C488 C 0.63297 0.47924 0.90817 0.0
H489 H 0.49383 0.33988 0.88728 0.0
H490 H 0.5914 0.43719 0.86949 0.0
C491 C 0.62323 0.47003 0.93583 0.0
C492 C 0.30656 0.28054 0.17774 0.0
C493 C 0.26832 0.21466 0.18629 0.0
H494 H 0.3121 0.35618 0.15154 0.0
C495 C 0.20274 0.1764 0.17738 0.0
H496 H 0.35621 0.31177 0.18537 0.0
C497 C 0.17643 0.20287 0.15947 0.0
C498 C 0.21487 0.26845 0.15057 0.0
H499 H 0.17192 0.12578 0.18418 0.0
H500 H 0.12581 0.17217 0.15265 0.0
C501 C 0.28074 0.30653 0.15916 0.0
C502 C 0.97331 0.17669 0.32611 0.0
C503 C 0.94626 0.21519 0.31717 0.0
H504 H 0.04586 0.17216 0.35082 0.0
C505 C 0.97421 0.28113 0.32569 0.0
H506 H 0.95327 0.12602 0.31935 0.0
C507 C 0.02605 0.30696 0.34425 0.0
C508 C 0.05359 0.26866 0.35285 0.0
H509 H 0.95602 0.31252 0.31802 0.0
H510 H 0.04455 0.35665 0.35185 0.0
C511 C 0.02614 0.20302 0.34399 0.0
C512 C 0.71804 0.02592 0.5112 0.0
C513 C 0.78398 0.05371 0.5197 0.0
H514 H 0.64236 0.95567 0.48506 0.0
C515 C 0.82234 0.02653 0.51074 0.0
H516 H 0.68676 0.04424 0.51887 0.0
C517 C 0.79589 0.97375 0.49284 0.0
C518 C 0.73024 0.94645 0.484 0.0
H519 H 0.87301 0.04646 0.51749 0.0
H520 H 0.82666 0.95395 0.48598 0.0
C521 C 0.69206 0.97409 0.49264 0.0
C522 C 0.82319 0.79719 0.65932 0.0
C523 C 0.7848 0.73165 0.65036 0.0
H524 H 0.82756 0.87412 0.68408 0.0
C525 C 0.71887 0.69353 0.65887 0.0
H526 H 0.87385 0.82791 0.65255 0.0
C527 C 0.69294 0.71941 0.67744 0.0
C528 C 0.73114 0.78523 0.68608 0.0
H529 H 0.68756 0.64393 0.6512 0.0
H530 H 0.64324 0.68814 0.68503 0.0
C531 C 0.79678 0.82355 0.67722 0.0
C532 C 0.97373 0.69244 0.84435 0.0
C533 C 0.946 0.7306 0.85291 0.0
H534 H 0.04387 0.68701 0.81814 0.0
C535 C 0.97324 0.79618 0.84399 0.0
H536 H 0.9554 0.64281 0.852 0.0
C537 C 0.02604 0.82256 0.8261 0.0
C538 C 0.05327 0.7842 0.8172 0.0
H539 H 0.95337 0.82694 0.85078 0.0
H540 H 0.04592 0.87318 0.81929 0.0
C541 C 0.02554 0.71832 0.82577 0.0
C542 C 0.2807 0.97338 0.01119 0.0
C543 C 0.21482 0.94579 0.01973 0.0
H544 H 0.35642 0.04346 0.98501 0.0
C545 C 0.17661 0.97318 0.0108 0.0
H546 H 0.31188 0.9549 0.01883 0.0
C547 C 0.20316 0.02597 0.9929 0.0
C548 C 0.26875 0.05306 0.98402 0.0
H549 H 0.12599 0.95342 0.01759 0.0
H550 H 0.17251 0.04594 0.98608 0.0
C551 C 0.30677 0.02521 0.99262 0.0
C552 C 0.1631 0.26226 0.01193 0.0
C553 C 0.19951 0.31948 0.02758 0.0
H554 H 0.16775 0.19926 0.98168 0.0
C555 C 0.26531 0.36476 0.02041 0.0
H556 H 0.11234 0.2264 0.01706 0.0
C557 C 0.29655 0.34956 1.00016 0.0
C558 C 0.26266 0.28885 0.98659 0.0
H559 H 0.29444 0.40963 0.03189 0.0
H560 H 0.34911 0.38249 0.99683 0.0
C561 C 0.19462 0.24696 0.99152 0.0
C562 C 0.9001 0.1628 0.17862 0.0
C563 C 0.87928 0.1993 0.1942 0.0
H564 H 0.96773 0.16728 0.14839 0.0
C565 C 0.89968 0.26501 0.18694 0.0
H566 H 0.88529 0.11211 0.18383 0.0
C567 C 0.94604 0.29611 0.16665 0.0
C568 C 0.97291 0.26217 0.15315 0.0
H569 H 0.88392 0.2942 0.19837 0.0
H570 H 0.96561 0.34863 0.16324 0.0
C571 C 0.94686 0.19419 0.15818 0.0
C572 C 0.75133 0.94714 0.3248 0.0
C573 C 0.70971 0.97365 0.31995 0.0
H574 H 0.7717 0.88523 0.35029 0.0
C575 C 0.64918 0.94723 0.33364 0.0
H576 H 0.79888 0.96764 0.31485 0.0
C577 C 0.63395 0.90085 0.35392 0.0
C578 C 0.67903 0.88001 0.361 0.0
H579 H 0.61645 0.96713 0.33036 0.0
H580 H 0.58926 0.88544 0.36548 0.0
C581 C 0.736 0.90039 0.34525 0.0
C582 C 0.73474 0.63507 0.5202 0.0
C583 C 0.80045 0.68053 0.52741 0.0
H584 H 0.65091 0.61713 0.49659 0.0
C585 C 0.83674 0.73786 0.51182 0.0
H586 H 0.70571 0.59012 0.53164 0.0
C587 C 0.80514 0.7531 0.49141 0.0
C588 C 0.73716 0.71102 0.48644 0.0
H589 H 0.88742 0.77385 0.51699 0.0
H590 H 0.83189 0.80087 0.48161 0.0
C591 C 0.70343 0.6502 0.49995 0.0
C592 C 0.09956 0.83693 0.67856 0.0
C593 C 0.12024 0.80037 0.69418 0.0
H594 H 0.03212 0.83256 0.64826 0.0
C595 C 0.09981 0.73465 0.68693 0.0
H596 H 0.11441 0.88764 0.68376 0.0
C597 C 0.05353 0.7036 0.6666 0.0
C598 C 0.02678 0.73761 0.65306 0.0
H599 H 0.11546 0.70542 0.69838 0.0
H600 H 0.03392 0.65107 0.6632 0.0
C601 C 0.05289 0.8056 0.65808 0.0
C602 C 0.36519 0.09904 0.85386 0.0
C603 C 0.31998 0.11966 0.86102 0.0
H604 H 0.38283 0.03297 0.83024 0.0
C605 C 0.26285 0.09906 0.84534 0.0
H606 H 0.40999 0.11462 0.86537 0.0
C607 C 0.24754 0.05233 0.82489 0.0
C608 C 0.28932 0.02606 0.81996 0.0
H609 H 0.22706 0.11405 0.85046 0.0
H610 H 0.19989 0.03166 0.81501 0.0
C611 C 0.34998 0.0527 0.83357 0.0
C612 C 0.63441 0.73381 0.81609 0.0
C613 C 0.67961 0.79974 0.80906 0.0
H614 H 0.61665 0.6499 0.8396 0.0
C615 C 0.73658 0.83615 0.82483 0.0
H616 H 0.58973 0.70467 0.80451 0.0
C617 C 0.75175 0.80457 0.84527 0.0
C618 C 0.70999 0.73645 0.85008 0.0
H619 H 0.77236 0.88701 0.81982 0.0
H620 H 0.79929 0.8315 0.85523 0.0
C621 C 0.64949 0.70251 0.83636 0.0
C622 C 0.89913 0.63427 0.98322 0.0
C623 C 0.87895 0.67973 0.97593 0.0
H624 H 0.9648 0.61629 0.00696 0.0
C625 C 0.89985 0.73704 0.99152 0.0
H626 H 0.88331 0.58933 0.97178 0.0
C627 C 0.94649 0.75225 0.01201 0.0
C628 C 0.97235 0.71016 0.01706 0.0
H629 H 0.8852 0.77304 0.9863 0.0
H630 H 0.96744 0.80001 0.02181 0.0
C631 C 0.94537 0.64936 0.00354 0.0
C632 C 0.26482 0.89932 0.14984 0.0
C633 C 0.19903 0.87888 0.14268 0.0
H634 H 0.34863 0.96525 0.17344 0.0
C635 C 0.16264 0.89964 0.15837 0.0
H636 H 0.29393 0.88361 0.13833 0.0
C637 C 0.19417 0.94636 0.17881 0.0
C638 C 0.26221 0.97246 0.18373 0.0
H639 H 0.11188 0.88479 0.15325 0.0
H640 H 0.16732 0.96716 0.18869 0.0
C641 C 0.29607 0.94565 0.17012 0.0
C642 C 0.26269 0.1628 0.32496 0.0
C643 C 0.31982 0.19921 0.30927 0.0
H644 H 0.19988 0.16744 0.35531 0.0
C645 C 0.3652 0.26497 0.31644 0.0
H646 H 0.22676 0.11207 0.31983 0.0
C647 C 0.35017 0.29618 0.33676 0.0
C648 C 0.2895 0.26232 0.35038 0.0
H649 H 0.41001 0.29409 0.30493 0.0
H650 H 0.38316 0.34872 0.3401 0.0
C651 C 0.24754 0.1943 0.34543 0.0
C652 C 0.09914 0.26277 0.49151 0.0
C653 C 0.11985 0.31986 0.4758 0.0
H654 H 0.03163 0.19995 0.52185 0.0
C655 C 0.09924 0.36512 0.48289 0.0
H656 H 0.11412 0.22693 0.48645 0.0
C657 C 0.05283 0.35001 0.50315 0.0
C658 C 0.02613 0.28941 0.5168 0.0
H659 H 0.11489 0.40989 0.47135 0.0
H660 H 0.03315 0.38291 0.50643 0.0
C661 C 0.05236 0.24756 0.51194 0.0
C662 C 0.80548 0.05331 0.67871 0.0
C663 C 0.73753 0.02742 0.68376 0.0
H664 H 0.88756 0.11467 0.65303 0.0
C665 C 0.7037 0.05445 0.67028 0.0
H666 H 0.83229 0.03231 0.68848 0.0
C667 C 0.73485 0.10077 0.64998 0.0
C668 C 0.8005 0.12098 0.64269 0.0
H669 H 0.65121 0.035 0.67371 0.0
H670 H 0.70573 0.11662 0.63856 0.0
C671 C 0.83692 0.10003 0.65825 0.0
loop_
_geom_bond_atom_site_label_1
_geom_bond_atom_site_label_2
_geom_bond_distance
_geom_bond_site_symmetry_2
_ccdc_geom_bond_type
Mn0 O5 2.095 . S
Mn0 O15 2.162 . S
Mn0 O16 2.297 . S
Mn0 O24 2.385 . S
Mn0 O25 2.209 . S
Mn0 O26 2.094 . S
Mn1 O6 2.121 . S
Mn1 N8 2.257 . S
Mn1 N17 2.282 . S
Mn1 O25 2.215 . S
Mn1 O27 2.117 . S
C2 O24 1.234 . S
C2 O25 1.283 . S
C3 O15 1.281 . S
C3 O16 1.236 . S
C4 O26 1.240 . S
C4 O27 1.264 . S
O5 Mn0 2.095 . S
O5 C14 1.250 . S
O6 Mn1 2.121 . S
O6 C14 1.258 . S
C7 N8 1.326 . S
C7 C11 1.460 . S
C7 H13 0.929 . S
N8 Mn1 2.257 . S
N8 C7 1.326 . S
N8 C12 1.362 . S
C9 C10 1.258 . S
C9 C12 1.431 . S
C9 C29 1.449 . S
C10 C9 1.258 . S
C10 C11 1.477 . S
C10 H30 0.931 . S
C11 C7 1.460 . S
C11 C10 1.477 . S
C11 H31 0.930 . S
C12 N8 1.362 . S
C12 C9 1.431 . S
C12 C22 1.476 . S
H13 C7 0.929 . S
C14 O5 1.250 . S
C14 O6 1.258 . S
O15 Mn0 2.162 . S
O15 C3 1.281 . S
O16 Mn0 2.297 . S
O16 C3 1.236 . S
N17 Mn1 2.282 . S
N17 C18 1.328 . S
N17 C22 1.318 . S
C18 N17 1.328 . S
C18 C19 1.457 . S
C18 H23 0.929 . S
C19 C18 1.457 . S
C19 C20 1.291 . S
C19 H32 0.931 . S
C20 C19 1.291 . S
C20 C21 1.373 . S
C20 H33 0.929 . S
C21 C20 1.373 . S
C21 C22 1.396 . S
C21 C28 1.403 . S
C22 C12 1.476 . S
C22 N17 1.318 . S
C22 C21 1.396 . S
H23 C18 0.929 . S
O24 Mn0 2.385 . S
O24 C2 1.234 . S
O25 Mn0 2.209 . S
O25 Mn1 2.215 . S
O25 C2 1.283 . S
O26 Mn0 2.094 . S
O26 C4 1.240 . S
O27 Mn1 2.117 . S
O27 C4 1.264 . S
C28 C21 1.403 . S
C28 C29 1.399 . S
C28 H34 0.929 . S
C29 C9 1.449 . S
C29 C28 1.399 . S
C29 H35 0.930 . S
H30 C10 0.931 . S
H31 C11 0.930 . S
H32 C19 0.931 . S
H33 C20 0.929 . S
H34 C28 0.929 . S
H35 C29 0.930 . S
Mn36 O41 2.095 . S
Mn36 O51 2.162 . S
Mn36 O52 2.297 . S
Mn36 O60 2.385 . S
Mn36 O61 2.209 . S
Mn36 O62 2.094 . S
Mn37 O42 2.121 . S
Mn37 N44 2.257 . S
Mn37 N53 2.282 . S
Mn37 O61 2.215 . S
Mn37 O63 2.117 . S
C38 O60 1.234 . S
C38 O61 1.283 . S
C39 O51 1.281 . S
C39 O52 1.236 . S
C40 O62 1.240 . S
C40 O63 1.264 . S
O41 Mn36 2.095 . S
O41 C50 1.250 . S
O42 Mn37 2.121 . S
O42 C50 1.258 . S
C43 N44 1.326 . S
C43 C47 1.460 . S
C43 H49 0.929 . S
N44 Mn37 2.257 . S
N44 C43 1.326 . S
N44 C48 1.362 . S
C45 C46 1.258 . S
C45 C48 1.431 . S
C45 C65 1.449 . S
C46 C45 1.258 . S
C46 C47 1.477 . S
C46 H66 0.931 . S
C47 C43 1.460 . S
C47 C46 1.477 . S
C47 H67 0.930 . S
C48 N44 1.362 . S
C48 C45 1.431 . S
C48 C58 1.476 . S
H49 C43 0.929 . S
C50 O41 1.250 . S
C50 O42 1.258 . S
O51 Mn36 2.162 . S
O51 C39 1.281 . S
O52 Mn36 2.297 . S
O52 C39 1.236 . S
N53 Mn37 2.282 . S
N53 C54 1.328 . S
N53 C58 1.318 . S
C54 N53 1.328 . S
C54 C55 1.457 . S
C54 H59 0.929 . S
C55 C54 1.457 . S
C55 C56 1.291 . S
C55 H68 0.931 . S
C56 C55 1.291 . S
C56 C57 1.373 . S
C56 H69 0.929 . S
C57 C56 1.373 . S
C57 C58 1.396 . S
C57 C64 1.403 . S
C58 C48 1.476 . S
C58 N53 1.318 . S
C58 C57 1.396 . S
H59 C54 0.929 . S
O60 Mn36 2.385 . S
O60 C38 1.234 . S
O61 Mn36 2.209 . S
O61 Mn37 2.215 . S
O61 C38 1.283 . S
O62 Mn36 2.094 . S
O62 C40 1.240 . S
O63 Mn37 2.117 . S
O63 C40 1.264 . S
C64 C57 1.403 . S
C64 C65 1.399 . S
C64 H70 0.929 . S
C65 C45 1.449 . S
C65 C64 1.399 . S
C65 H71 0.930 . S
H66 C46 0.931 . S
H67 C47 0.930 . S
H68 C55 0.931 . S
H69 C56 0.929 . S
H70 C64 0.929 . S
H71 C65 0.930 . S
Mn72 O77 2.095 . S
Mn72 O87 2.162 . S
Mn72 O88 2.297 . S
Mn72 O96 2.385 . S
Mn72 O97 2.209 . S
Mn72 O98 2.094 . S
Mn73 O78 2.121 . S
Mn73 N80 2.257 . S
Mn73 N89 2.282 . S
Mn73 O97 2.215 . S
Mn73 O99 2.117 . S
C74 O96 1.234 . S
C74 O97 1.283 . S
C75 O87 1.281 . S
C75 O88 1.236 . S
C76 O98 1.240 . S
C76 O99 1.264 . S
O77 Mn72 2.095 . S
O77 C86 1.250 . S
O78 Mn73 2.121 . S
O78 C86 1.258 . S
C79 N80 1.326 . S
C79 C83 1.460 . S
C79 H85 0.929 . S
N80 Mn73 2.257 . S
N80 C79 1.326 . S
N80 C84 1.362 . S
C81 C82 1.258 . S
C81 C84 1.431 . S
C81 C101 1.449 . S
C82 C81 1.258 . S
C82 C83 1.477 . S
C82 H102 0.931 . S
C83 C79 1.460 . S
C83 C82 1.477 . S
C83 H103 0.930 . S
C84 N80 1.362 . S
C84 C81 1.431 . S
C84 C94 1.476 . S
H85 C79 0.929 . S
C86 O77 1.250 . S
C86 O78 1.258 . S
O87 Mn72 2.162 . S
O87 C75 1.281 . S
O88 Mn72 2.297 . S
O88 C75 1.236 . S
N89 Mn73 2.282 . S
N89 C90 1.328 . S
N89 C94 1.318 . S
C90 N89 1.328 . S
C90 C91 1.457 . S
C90 H95 0.929 . S
C91 C90 1.457 . S
C91 C92 1.291 . S
C91 H104 0.931 . S
C92 C91 1.291 . S
C92 C93 1.373 . S
C92 H105 0.929 . S
C93 C92 1.373 . S
C93 C94 1.396 . S
C93 C100 1.403 . S
C94 C84 1.476 . S
C94 N89 1.318 . S
C94 C93 1.396 . S
H95 C90 0.929 . S
O96 Mn72 2.385 . S
O96 C74 1.234 . S
O97 Mn72 2.209 . S
O97 Mn73 2.215 . S
O97 C74 1.283 . S
O98 Mn72 2.094 . S
O98 C76 1.240 . S
O99 Mn73 2.117 . S
O99 C76 1.264 . S
C100 C93 1.403 . S
C100 C101 1.399 . S
C100 H106 0.929 . S
C101 C81 1.449 . S
C101 C100 1.399 . S
C101 H107 0.930 . S
H102 C82 0.931 . S
H103 C83 0.930 . S
H104 C91 0.931 . S
H105 C92 0.929 . S
H106 C100 0.929 . S
H107 C101 0.930 . S
Mn108 O113 2.095 . S
Mn108 O123 2.162 . S
Mn108 O124 2.297 . S
Mn108 O132 2.385 . S
Mn108 O133 2.209 . S
Mn108 O134 2.094 . S
Mn109 O114 2.121 . S
Mn109 N116 2.257 . S
Mn109 N125 2.282 . S
Mn109 O133 2.215 . S
Mn109 O135 2.117 . S
C110 O132 1.234 . S
C110 O133 1.283 . S
C111 O123 1.281 . S
C111 O124 1.236 . S
C112 O134 1.240 . S
C112 O135 1.264 . S
O113 Mn108 2.095 . S
O113 C122 1.250 . S
O114 Mn109 2.121 . S
O114 C122 1.258 . S
C115 N116 1.326 . S
C115 C119 1.460 . S
C115 H121 0.929 . S
N116 Mn109 2.257 . S
N116 C115 1.326 . S
N116 C120 1.362 . S
C117 C118 1.258 . S
C117 C120 1.431 . S
C117 C137 1.449 . S
C118 C117 1.258 . S
C118 C119 1.477 . S
C118 H138 0.931 . S
C119 C115 1.460 . S
C119 C118 1.477 . S
C119 H139 0.930 . S
C120 N116 1.362 . S
C120 C117 1.431 . S
C120 C130 1.476 . S
H121 C115 0.929 . S
C122 O113 1.250 . S
C122 O114 1.258 . S
O123 Mn108 2.162 . S
O123 C111 1.281 . S
O124 Mn108 2.297 . S
O124 C111 1.236 . S
N125 Mn109 2.282 . S
N125 C126 1.328 . S
N125 C130 1.318 . S
C126 N125 1.328 . S
C126 C127 1.457 . S
C126 H131 0.929 . S
C127 C126 1.457 . S
C127 C128 1.291 . S
C127 H140 0.931 . S
C128 C127 1.291 . S
C128 C129 1.373 . S
C128 H141 0.929 . S
C129 C128 1.373 . S
C129 C130 1.396 . S
C129 C136 1.403 . S
C130 C120 1.476 . S
C130 N125 1.318 . S
C130 C129 1.396 . S
H131 C126 0.929 . S
O132 Mn108 2.385 . S
O132 C110 1.234 . S
O133 Mn108 2.209 . S
O133 Mn109 2.215 . S
O133 C110 1.283 . S
O134 Mn108 2.094 . S
O134 C112 1.240 . S
O135 Mn109 2.117 . S
O135 C112 1.264 . S
C136 C129 1.403 . S
C136 C137 1.399 . S
C136 H142 0.929 . S
C137 C117 1.449 . S
C137 C136 1.399 . S
C137 H143 0.930 . S
H138 C118 0.931 . S
H139 C119 0.930 . S
H140 C127 0.931 . S
H141 C128 0.929 . S
H142 C136 0.929 . S
H143 C137 0.930 . S
Mn144 O149 2.095 . S
Mn144 O159 2.162 . S
Mn144 O160 2.297 . S
Mn144 O168 2.385 . S
Mn144 O169 2.209 . S
Mn144 O170 2.094 . S
Mn145 O150 2.121 . S
Mn145 N152 2.257 . S
Mn145 N161 2.282 . S
Mn145 O169 2.215 . S
Mn145 O171 2.117 . S
C146 O168 1.234 . S
C146 O169 1.283 . S
C147 O159 1.281 . S
C147 O160 1.236 . S
C148 O170 1.240 . S
C148 O171 1.264 . S
O149 Mn144 2.095 . S
O149 C158 1.250 . S
O150 Mn145 2.121 . S
O150 C158 1.258 . S
C151 N152 1.326 . S
C151 C155 1.460 . S
C151 H157 0.929 . S
N152 Mn145 2.257 . S
N152 C151 1.326 . S
N152 C156 1.362 . S
C153 C154 1.258 . S
C153 C156 1.431 . S
C153 C173 1.449 . S
C154 C153 1.258 . S
C154 C155 1.477 . S
C154 H174 0.931 . S
C155 C151 1.460 . S
C155 C154 1.477 . S
C155 H175 0.930 . S
C156 N152 1.362 . S
C156 C153 1.431 . S
C156 C166 1.476 . S
H157 C151 0.929 . S
C158 O149 1.250 . S
C158 O150 1.258 . S
O159 Mn144 2.162 . S
O159 C147 1.281 . S
O160 Mn144 2.297 . S
O160 C147 1.236 . S
N161 Mn145 2.282 . S
N161 C162 1.328 . S
N161 C166 1.318 . S
C162 N161 1.328 . S
C162 C163 1.457 . S
C162 H167 0.929 . S
C163 C162 1.457 . S
C163 C164 1.291 . S
C163 H176 0.931 . S
C164 C163 1.291 . S
C164 C165 1.373 . S
C164 H177 0.929 . S
C165 C164 1.373 . S
C165 C166 1.396 . S
C165 C172 1.403 . S
C166 C156 1.476 . S
C166 N161 1.318 . S
C166 C165 1.396 . S
H167 C162 0.929 . S
O168 Mn144 2.385 . S
O168 C146 1.234 . S
O169 Mn144 2.209 . S
O169 Mn145 2.215 . S
O169 C146 1.283 . S
O170 Mn144 2.094 . S
O170 C148 1.240 . S
O171 Mn145 2.117 . S
O171 C148 1.264 . S
C172 C165 1.403 . S
C172 C173 1.399 . S
C172 H178 0.929 . S
C173 C153 1.449 . S
C173 C172 1.399 . S
C173 H179 0.930 . S
H174 C154 0.931 . S
H175 C155 0.930 . S
H176 C163 0.931 . S
H177 C164 0.929 . S
H178 C172 0.929 . S
H179 C173 0.930 . S
Mn180 O185 2.095 . S
Mn180 O195 2.162 . S
Mn180 O196 2.297 . S
Mn180 O204 2.385 . S
Mn180 O205 2.209 . S
Mn180 O206 2.094 . S
Mn181 O186 2.121 . S
Mn181 N188 2.257 1_556 S
Mn181 N197 2.282 1_556 S
Mn181 O205 2.215 . S
Mn181 O207 2.117 . S
C182 O204 1.234 . S
C182 O205 1.283 . S
C183 O195 1.281 . S
C183 O196 1.236 . S
C184 O206 1.240 . S
C184 O207 1.264 . S
O185 Mn180 2.095 . S
O185 C194 1.250 . S
O186 Mn181 2.121 . S
O186 C194 1.258 . S
C187 N188 1.323 1_556 S
C187 C191 1.456 1_556 S
C187 H193 0.936 . S
N188 Mn181 2.257 1_554 S
N188 C187 1.323 1_554 S
N188 C192 1.362 . S
C189 C190 1.258 . S
C189 C192 1.431 . S
C189 C209 1.449 . S
C190 C189 1.258 . S
C190 C191 1.477 . S
C190 H210 0.931 . S
C191 C187 1.456 1_554 S
C191 C190 1.477 . S
C191 H211 0.930 . S
C192 N188 1.362 . S
C192 C189 1.431 . S
C192 C202 1.476 . S
H193 C187 0.936 . S
C194 O185 1.250 . S
C194 O186 1.258 . S
O195 Mn180 2.162 . S
O195 C183 1.281 . S
O196 Mn180 2.297 . S
O196 C183 1.236 . S
N197 Mn181 2.282 1_554 S
N197 C198 1.328 . S
N197 C202 1.318 . S
C198 N197 1.328 . S
C198 C199 1.457 . S
C198 H203 0.929 . S
C199 C198 1.457 . S
C199 C200 1.291 . S
C199 H212 0.931 . S
C200 C199 1.291 . S
C200 C201 1.373 . S
C200 H213 0.929 . S
C201 C200 1.373 . S
C201 C202 1.396 . S
C201 C208 1.403 . S
C202 C192 1.476 . S
C202 N197 1.318 . S
C202 C201 1.396 . S
H203 C198 0.929 . S
O204 Mn180 2.385 . S
O204 C182 1.234 . S
O205 Mn180 2.209 . S
O205 Mn181 2.215 . S
O205 C182 1.283 . S
O206 Mn180 2.094 . S
O206 C184 1.240 . S
O207 Mn181 2.117 . S
O207 C184 1.264 . S
C208 C201 1.403 . S
C208 C209 1.399 . S
C208 H214 0.929 . S
C209 C189 1.449 . S
C209 C208 1.399 . S
C209 H215 0.930 . S
H210 C190 0.931 . S
H211 C191 0.930 . S
H212 C199 0.931 . S
H213 C200 0.929 . S
H214 C208 0.929 . S
H215 C209 0.930 . S
Mn216 O221 2.095 . S
Mn216 O231 2.162 . S
Mn216 O232 2.297 . S
Mn216 O240 2.385 . S
Mn216 O241 2.209 . S
Mn216 O242 2.094 . S
Mn217 O222 2.121 . S
Mn217 N224 2.257 . S
Mn217 N233 2.282 . S
Mn217 O241 2.215 . S
Mn217 O243 2.117 . S
C218 O240 1.234 . S
C218 O241 1.283 . S
C219 O231 1.281 . S
C219 O232 1.236 . S
C220 O242 1.240 . S
C220 O243 1.264 . S
O221 Mn216 2.095 . S
O221 C230 1.250 . S
O222 Mn217 2.121 . S
O222 C230 1.258 . S
C223 N224 1.326 . S
C223 C227 1.460 . S
C223 H229 0.929 . S
N224 Mn217 2.257 . S
N224 C223 1.326 . S
N224 C228 1.362 . S
C225 C226 1.258 . S
C225 C228 1.431 . S
C225 C245 1.449 . S
C226 C225 1.258 . S
C226 C227 1.477 . S
C226 H246 0.931 . S
C227 C223 1.460 . S
C227 C226 1.477 . S
C227 H247 0.930 . S
C228 N224 1.362 . S
C228 C225 1.431 . S
C228 C238 1.476 . S
H229 C223 0.929 . S
C230 O221 1.250 . S
C230 O222 1.258 . S
O231 Mn216 2.162 . S
O231 C219 1.281 . S
O232 Mn216 2.297 . S
O232 C219 1.236 . S
N233 Mn217 2.282 . S
N233 C234 1.328 . S
N233 C238 1.318 . S
C234 N233 1.328 . S
C234 C235 1.457 . S
C234 H239 0.929 . S
C235 C234 1.457 . S
C235 C236 1.291 . S
C235 H248 0.931 . S
C236 C235 1.291 . S
C236 C237 1.373 . S
C236 H249 0.929 . S
C237 C236 1.373 . S
C237 C238 1.396 . S
C237 C244 1.403 . S
C238 C228 1.476 . S
C238 N233 1.318 . S
C238 C237 1.396 . S
H239 C234 0.929 . S
O240 Mn216 2.385 . S
O240 C218 1.234 . S
O241 Mn216 2.209 . S
O241 Mn217 2.215 . S
O241 C218 1.283 . S
O242 Mn216 2.094 . S
O242 C220 1.240 . S
O243 Mn217 2.117 . S
O243 C220 1.264 . S
C244 C237 1.403 . S
C244 C245 1.399 . S
C244 H250 0.929 . S
C245 C225 1.449 . S
C245 C244 1.399 . S
C245 H251 0.930 . S
H246 C226 0.931 . S
H247 C227 0.930 . S
H248 C235 0.931 . S
H249 C236 0.929 . S
H250 C244 0.929 . S
H251 C245 0.930 . S
Mn252 O257 2.095 . S
Mn252 O267 2.162 . S
Mn252 O268 2.297 . S
Mn252 O276 2.385 . S
Mn252 O277 2.209 . S
Mn252 O278 2.094 . S
Mn253 O258 2.121 . S
Mn253 N260 2.257 . S
Mn253 N269 2.282 . S
Mn253 O277 2.215 . S
Mn253 O279 2.117 . S
C254 O276 1.234 . S
C254 O277 1.283 . S
C255 O267 1.281 . S
C255 O268 1.236 . S
C256 O278 1.240 . S
C256 O279 1.264 . S
O257 Mn252 2.095 . S
O257 C266 1.250 . S
O258 Mn253 2.121 . S
O258 C266 1.258 . S
C259 N260 1.326 . S
C259 C263 1.460 . S
C259 H265 0.929 . S
N260 Mn253 2.257 . S
N260 C259 1.326 . S
N260 C264 1.362 . S
C261 C262 1.258 . S
C261 C264 1.431 . S
C261 C281 1.449 . S
C262 C261 1.258 . S
C262 C263 1.477 . S
C262 H282 0.931 . S
C263 C259 1.460 . S
C263 C262 1.477 . S
C263 H283 0.930 . S
C264 N260 1.362 . S
C264 C261 1.431 . S
C264 C274 1.476 . S
H265 C259 0.929 . S
C266 O257 1.250 . S
C266 O258 1.258 . S
O267 Mn252 2.162 . S
O267 C255 1.281 . S
O268 Mn252 2.297 . S
O268 C255 1.236 . S
N269 Mn253 2.282 . S
N269 C270 1.328 . S
N269 C274 1.318 . S
C270 N269 1.328 . S
C270 C271 1.457 . S
C270 H275 0.929 . S
C271 C270 1.457 . S
C271 C272 1.291 . S
C271 H284 0.931 . S
C272 C271 1.291 . S
C272 C273 1.373 . S
C272 H285 0.929 . S
C273 C272 1.373 . S
C273 C274 1.396 . S
C273 C280 1.403 . S
C274 C264 1.476 . S
C274 N269 1.318 . S
C274 C273 1.396 . S
H275 C270 0.929 . S
O276 Mn252 2.385 . S
O276 C254 1.234 . S
O277 Mn252 2.209 . S
O277 Mn253 2.215 . S
O277 C254 1.283 . S
O278 Mn252 2.094 . S
O278 C256 1.240 . S
O279 Mn253 2.117 . S
O279 C256 1.264 . S
C280 C273 1.403 . S
C280 C281 1.399 . S
C280 H286 0.929 . S
C281 C261 1.449 . S
C281 C280 1.399 . S
C281 H287 0.930 . S
H282 C262 0.931 . S
H283 C263 0.930 . S
H284 C271 0.931 . S
H285 C272 0.929 . S
H286 C280 0.929 . S
H287 C281 0.930 . S
Mn288 O293 2.095 . S
Mn288 O303 2.162 . S
Mn288 O304 2.297 . S
Mn288 O312 2.385 . S
Mn288 O313 2.209 . S
Mn288 O314 2.094 . S
Mn289 O294 2.121 . S
Mn289 N296 2.257 1_554 S
Mn289 N305 2.282 1_554 S
Mn289 O313 2.215 . S
Mn289 O315 2.117 . S
C290 O312 1.234 . S
C290 O313 1.283 . S
C291 O303 1.281 . S
C291 O304 1.236 . S
C292 O314 1.240 . S
C292 O315 1.264 . S
O293 Mn288 2.095 . S
O293 C302 1.250 . S
O294 Mn289 2.121 . S
O294 C302 1.258 . S
C295 N296 1.323 1_554 S
C295 C299 1.456 1_554 S
C295 H301 0.936 . S
N296 Mn289 2.257 1_556 S
N296 C295 1.323 1_556 S
N296 C300 1.362 . S
C297 C298 1.258 . S
C297 C300 1.431 . S
C297 C317 1.449 . S
C298 C297 1.258 . S
C298 C299 1.477 . S
C298 H318 0.931 . S
C299 C295 1.456 1_556 S
C299 C298 1.477 . S
C299 H319 0.930 . S
C300 N296 1.362 . S
C300 C297 1.431 . S
C300 C310 1.476 . S
H301 C295 0.936 . S
C302 O293 1.250 . S
C302 O294 1.258 . S
O303 Mn288 2.162 . S
O303 C291 1.281 . S
O304 Mn288 2.297 . S
O304 C291 1.236 . S
N305 Mn289 2.282 1_556 S
N305 C306 1.328 . S
N305 C310 1.318 . S
C306 N305 1.328 . S
C306 C307 1.457 . S
C306 H311 0.929 . S
C307 C306 1.457 . S
C307 C308 1.291 . S
C307 H320 0.931 . S
C308 C307 1.291 . S
C308 C309 1.373 . S
C308 H321 0.929 . S
C309 C308 1.373 . S
C309 C310 1.396 . S
C309 C316 1.403 . S
C310 C300 1.476 . S
C310 N305 1.318 . S
C310 C309 1.396 . S
H311 C306 0.929 . S
O312 Mn288 2.385 . S
O312 C290 1.234 . S
O313 Mn288 2.209 . S
O313 Mn289 2.215 . S
O313 C290 1.283 . S
O314 Mn288 2.094 . S
O314 C292 1.240 . S
O315 Mn289 2.117 . S
O315 C292 1.264 . S
C316 C309 1.403 . S
C316 C317 1.399 . S
C316 H322 0.929 . S
C317 C297 1.449 . S
C317 C316 1.399 . S
C317 H323 0.930 . S
H318 C298 0.931 . S
H319 C299 0.930 . S
H320 C307 0.931 . S
H321 C308 0.929 . S
H322 C316 0.929 . S
H323 C317 0.930 . S
Mn324 O329 2.095 . S
Mn324 O339 2.162 . S
Mn324 O340 2.297 . S
Mn324 O348 2.385 . S
Mn324 O349 2.209 . S
Mn324 O350 2.094 . S
Mn325 O330 2.121 . S
Mn325 N332 2.257 . S
Mn325 N341 2.282 . S
Mn325 O349 2.215 . S
Mn325 O351 2.117 . S
C326 O348 1.234 . S
C326 O349 1.283 . S
C327 O339 1.281 . S
C327 O340 1.236 . S
C328 O350 1.240 . S
C328 O351 1.264 . S
O329 Mn324 2.095 . S
O329 C338 1.250 . S
O330 Mn325 2.121 . S
O330 C338 1.258 . S
C331 N332 1.326 . S
C331 C335 1.460 . S
C331 H337 0.929 . S
N332 Mn325 2.257 . S
N332 C331 1.326 . S
N332 C336 1.362 . S
C333 C334 1.258 . S
C333 C336 1.431 . S
C333 C353 1.449 . S
C334 C333 1.258 . S
C334 C335 1.477 . S
C334 H354 0.931 . S
C335 C331 1.460 . S
C335 C334 1.477 . S
C335 H355 0.930 . S
C336 N332 1.362 . S
C336 C333 1.431 . S
C336 C346 1.476 . S
H337 C331 0.929 . S
C338 O329 1.250 . S
C338 O330 1.258 . S
O339 Mn324 2.162 . S
O339 C327 1.281 . S
O340 Mn324 2.297 . S
O340 C327 1.236 . S
N341 Mn325 2.282 . S
N341 C342 1.328 . S
N341 C346 1.318 . S
C342 N341 1.328 . S
C342 C343 1.457 . S
C342 H347 0.929 . S
C343 C342 1.457 . S
C343 C344 1.291 . S
C343 H356 0.931 . S
C344 C343 1.291 . S
C344 C345 1.373 . S
C344 H357 0.929 . S
C345 C344 1.373 . S
C345 C346 1.396 . S
C345 C352 1.403 . S
C346 C336 1.476 . S
C346 N341 1.318 . S
C346 C345 1.396 . S
H347 C342 0.929 . S
O348 Mn324 2.385 . S
O348 C326 1.234 . S
O349 Mn324 2.209 . S
O349 Mn325 2.215 . S
O349 C326 1.283 . S
O350 Mn324 2.094 . S
O350 C328 1.240 . S
O351 Mn325 2.117 . S
O351 C328 1.264 . S
C352 C345 1.403 . S
C352 C353 1.399 . S
C352 H358 0.929 . S
C353 C333 1.449 . S
C353 C352 1.399 . S
C353 H359 0.930 . S
H354 C334 0.931 . S
H355 C335 0.930 . S
H356 C343 0.931 . S
H357 C344 0.929 . S
H358 C352 0.929 . S
H359 C353 0.930 . S
Mn360 O365 2.095 . S
Mn360 O375 2.162 . S
Mn360 O376 2.297 . S
Mn360 O384 2.385 . S
Mn360 O385 2.209 . S
Mn360 O386 2.094 . S
Mn361 O366 2.121 . S
Mn361 N368 2.257 . S
Mn361 N377 2.282 . S
Mn361 O385 2.215 . S
Mn361 O387 2.117 . S
C362 O384 1.234 . S
C362 O385 1.283 . S
C363 O375 1.281 . S
C363 O376 1.236 . S
C364 O386 1.240 . S
C364 O387 1.264 . S
O365 Mn360 2.095 . S
O365 C374 1.250 . S
O366 Mn361 2.121 . S
O366 C374 1.258 . S
C367 N368 1.326 . S
C367 C371 1.460 . S
C367 H373 0.929 . S
N368 Mn361 2.257 . S
N368 C367 1.326 . S
N368 C372 1.362 . S
C369 C370 1.258 . S
C369 C372 1.431 . S
C369 C389 1.449 . S
C370 C369 1.258 . S
C370 C371 1.477 . S
C370 H390 0.931 . S
C371 C367 1.460 . S
C371 C370 1.477 . S
C371 H391 0.930 . S
C372 N368 1.362 . S
C372 C369 1.431 . S
C372 C382 1.476 . S
H373 C367 0.929 . S
C374 O365 1.250 . S
C374 O366 1.258 . S
O375 Mn360 2.162 . S
O375 C363 1.281 . S
O376 Mn360 2.297 . S
O376 C363 1.236 . S
N377 Mn361 2.282 . S
N377 C378 1.328 . S
N377 C382 1.318 . S
C378 N377 1.328 . S
C378 C379 1.457 . S
C378 H383 0.929 . S
C379 C378 1.457 . S
C379 C380 1.291 . S
C379 H392 0.931 . S
C380 C379 1.291 . S
C380 C381 1.373 . S
C380 H393 0.929 . S
C381 C380 1.373 . S
C381 C382 1.396 . S
C381 C388 1.403 . S
C382 C372 1.476 . S
C382 N377 1.318 . S
C382 C381 1.396 . S
H383 C378 0.929 . S
O384 Mn360 2.385 . S
O384 C362 1.234 . S
O385 Mn360 2.209 . S
O385 Mn361 2.215 . S
O385 C362 1.283 . S
O386 Mn360 2.094 . S
O386 C364 1.240 . S
O387 Mn361 2.117 . S
O387 C364 1.264 . S
C388 C381 1.403 . S
C388 C389 1.399 . S
C388 H394 0.929 . S
C389 C369 1.449 . S
C389 C388 1.399 . S
C389 H395 0.930 . S
H390 C370 0.931 . S
H391 C371 0.930 . S
H392 C379 0.931 . S
H393 C380 0.929 . S
H394 C388 0.929 . S
H395 C389 0.930 . S
Mn396 O401 2.095 . S
Mn396 O411 2.162 . S
Mn396 O412 2.297 . S
Mn396 O420 2.385 . S
Mn396 O421 2.209 . S
Mn396 O422 2.094 . S
Mn397 O402 2.121 . S
Mn397 N404 2.257 . S
Mn397 N413 2.282 . S
Mn397 O421 2.215 . S
Mn397 O423 2.117 . S
C398 O420 1.234 . S
C398 O421 1.283 . S
C399 O411 1.281 . S
C399 O412 1.236 . S
C400 O422 1.240 . S
C400 O423 1.264 . S
O401 Mn396 2.095 . S
O401 C410 1.250 . S
O402 Mn397 2.121 . S
O402 C410 1.258 . S
C403 N404 1.326 . S
C403 C407 1.460 . S
C403 H409 0.929 . S
N404 Mn397 2.257 . S
N404 C403 1.326 . S
N404 C408 1.362 . S
C405 C406 1.258 . S
C405 C408 1.431 . S
C405 C425 1.449 . S
C406 C405 1.258 . S
C406 C407 1.477 . S
C406 H426 0.931 . S
C407 C403 1.460 . S
C407 C406 1.477 . S
C407 H427 0.930 . S
C408 N404 1.362 . S
C408 C405 1.431 . S
C408 C418 1.476 . S
H409 C403 0.929 . S
C410 O401 1.250 . S
C410 O402 1.258 . S
O411 Mn396 2.162 . S
O411 C399 1.281 . S
O412 Mn396 2.297 . S
O412 C399 1.236 . S
N413 Mn397 2.282 . S
N413 C414 1.328 . S
N413 C418 1.318 . S
C414 N413 1.328 . S
C414 C415 1.457 . S
C414 H419 0.929 . S
C415 C414 1.457 . S
C415 C416 1.291 . S
C415 H428 0.931 . S
C416 C415 1.291 . S
C416 C417 1.373 . S
C416 H429 0.929 . S
C417 C416 1.373 . S
C417 C418 1.396 . S
C417 C424 1.403 . S
C418 C408 1.476 . S
C418 N413 1.318 . S
C418 C417 1.396 . S
H419 C414 0.929 . S
O420 Mn396 2.385 . S
O420 C398 1.234 . S
O421 Mn396 2.209 . S
O421 Mn397 2.215 . S
O421 C398 1.283 . S
O422 Mn396 2.094 . S
O422 C400 1.240 . S
O423 Mn397 2.117 . S
O423 C400 1.264 . S
C424 C417 1.403 . S
C424 C425 1.399 . S
C424 H430 0.929 . S
C425 C405 1.449 . S
C425 C424 1.399 . S
C425 H431 0.930 . S
H426 C406 0.931 . S
H427 C407 0.930 . S
H428 C415 0.931 . S
H429 C416 0.929 . S
H430 C424 0.929 . S
H431 C425 0.930 . S
C432 C433 1.387 . S
C432 H436 0.950 . S
C432 C441 1.390 . S
C433 C432 1.387 . S
C433 C435 1.387 . S
H434 C441 0.950 . S
C435 C433 1.387 . S
C435 C437 1.390 . S
C435 H439 0.950 . S
H436 C432 0.950 . S
C437 C435 1.390 . S
C437 C438 1.387 . S
C437 H440 0.950 . S
C438 C437 1.387 . S
C438 C441 1.387 . S
H439 C435 0.950 . S
H440 C437 0.950 . S
C441 C432 1.390 . S
C441 H434 0.950 . S
C441 C438 1.387 . S
C442 C443 1.387 . S
C442 H446 0.950 . S
C442 C451 1.390 . S
C443 C442 1.387 . S
C443 C445 1.387 . S
H444 C451 0.950 . S
C445 C443 1.387 . S
C445 C447 1.390 . S
C445 H449 0.950 . S
H446 C442 0.950 . S
C447 C445 1.390 . S
C447 C448 1.387 . S
C447 H450 0.950 . S
C448 C447 1.387 . S
C448 C451 1.387 . S
H449 C445 0.950 . S
H450 C447 0.950 . S
C451 C442 1.390 . S
C451 H444 0.950 . S
C451 C448 1.387 . S
C452 C453 1.387 . S
C452 H456 0.950 . S
C452 C461 1.390 . S
C453 C452 1.387 . S
C453 C455 1.387 . S
H454 C461 0.950 . S
C455 C453 1.387 . S
C455 C457 1.390 . S
C455 H459 0.950 . S
H456 C452 0.950 . S
C457 C455 1.390 . S
C457 C458 1.387 . S
C457 H460 0.950 . S
C458 C457 1.387 . S
C458 C461 1.387 . S
H459 C455 0.950 . S
H460 C457 0.950 . S
C461 C452 1.390 . S
C461 H454 0.950 . S
C461 C458 1.387 . S
C462 C463 1.387 . S
C462 H466 0.950 . S
C462 C471 1.390 . S
C463 C462 1.387 . S
C463 C465 1.387 . S
H464 C471 0.950 . S
C465 C463 1.387 . S
C465 C467 1.390 . S
C465 H469 0.950 . S
H466 C462 0.950 . S
C467 C465 1.390 . S
C467 C468 1.387 . S
C467 H470 0.950 . S
C468 C467 1.387 . S
C468 C471 1.387 . S
H469 C465 0.950 . S
H470 C467 0.950 . S
C471 C462 1.390 . S
C471 H464 0.950 . S
C471 C468 1.387 . S
C472 C473 1.387 . S
C472 H476 0.950 . S
C472 C481 1.390 . S
C473 C472 1.387 . S
C473 C475 1.387 . S
H474 C481 0.950 . S
C475 C473 1.387 . S
C475 C477 1.390 . S
C475 H479 0.950 . S
H476 C472 0.950 . S
C477 C475 1.390 . S
C477 C478 1.387 . S
C477 H480 0.950 . S
C478 C477 1.387 . S
C478 C481 1.387 . S
H479 C475 0.950 . S
H480 C477 0.950 . S
C481 C472 1.390 . S
C481 H474 0.950 . S
C481 C478 1.387 . S
C482 C483 1.387 . S
C482 H486 0.950 . S
C482 C491 1.390 . S
C483 C482 1.387 . S
C483 C485 1.387 . S
H484 C491 0.950 . S
C485 C483 1.387 . S
C485 C487 1.390 . S
C485 H489 0.950 . S
H486 C482 0.950 . S
C487 C485 1.390 . S
C487 C488 1.387 . S
C487 H490 0.950 . S
C488 C487 1.387 . S
C488 C491 1.387 . S
H489 C485 0.950 . S
H490 C487 0.950 . S
C491 C482 1.390 . S
C491 H484 0.950 . S
C491 C488 1.387 . S
C492 C493 1.387 . S
C492 H496 0.950 . S
C492 C501 1.390 . S
C493 C492 1.387 . S
C493 C495 1.387 . S
H494 C501 0.950 . S
C495 C493 1.387 . S
C495 C497 1.390 . S
C495 H499 0.950 . S
H496 C492 0.950 . S
C497 C495 1.390 . S
C497 C498 1.387 . S
C497 H500 0.950 . S
C498 C497 1.387 . S
C498 C501 1.387 . S
H499 C495 0.950 . S
H500 C497 0.950 . S
C501 C492 1.390 . S
C501 H494 0.950 . S
C501 C498 1.387 . S
C502 C503 1.387 . S
C502 H506 0.950 . S
C502 C511 1.390 1_655 S
C503 C502 1.387 . S
C503 C505 1.387 . S
H504 C511 0.950 . S
C505 C503 1.387 . S
C505 C507 1.390 1_655 S
C505 H509 0.950 . S
H506 C502 0.950 . S
C507 C505 1.390 1_455 S
C507 C508 1.387 . S
C507 H510 0.950 . S
C508 C507 1.387 . S
C508 C511 1.387 . S
H509 C505 0.950 . S
H510 C507 0.950 . S
C511 C502 1.390 1_455 S
C511 H504 0.950 . S
C511 C508 1.387 . S
C512 C513 1.387 . S
C512 H516 0.950 . S
C512 C521 1.390 1_545 S
C513 C512 1.387 . S
C513 C515 1.387 . S
H514 C521 0.950 . S
C515 C513 1.387 . S
C515 C517 1.390 1_545 S
C515 H519 0.950 . S
H516 C512 0.950 . S
C517 C515 1.390 1_565 S
C517 C518 1.387 . S
C517 H520 0.950 . S
C518 C517 1.387 . S
C518 C521 1.387 . S
H519 C515 0.950 . S
H520 C517 0.950 . S
C521 C512 1.390 1_565 S
C521 H514 0.950 . S
C521 C518 1.387 . S
C522 C523 1.387 . S
C522 H526 0.950 . S
C522 C531 1.390 . S
C523 C522 1.387 . S
C523 C525 1.387 . S
H524 C531 0.950 . S
C525 C523 1.387 . S
C525 C527 1.390 . S
C525 H529 0.950 . S
H526 C522 0.950 . S
C527 C525 1.390 . S
C527 C528 1.387 . S
C527 H530 0.950 . S
C528 C527 1.387 . S
C528 C531 1.387 . S
H529 C525 0.950 . S
H530 C527 0.950 . S
C531 C522 1.390 . S
C531 H524 0.950 . S
C531 C528 1.387 . S
C532 C533 1.387 . S
C532 H536 0.950 . S
C532 C541 1.390 1_655 S
C533 C532 1.387 . S
C533 C535 1.387 . S
H534 C541 0.950 . S
C535 C533 1.387 . S
C535 C537 1.390 1_655 S
C535 H539 0.950 . S
H536 C532 0.950 . S
C537 C535 1.390 1_455 S
C537 C538 1.387 . S
C537 H540 0.950 . S
C538 C537 1.387 . S
C538 C541 1.387 . S
H539 C535 0.950 . S
H540 C537 0.950 . S
C541 C532 1.390 1_455 S
C541 H534 0.950 . S
C541 C538 1.387 . S
C542 C543 1.387 . S
C542 H546 0.950 . S
C542 C551 1.390 1_564 S
C543 C542 1.387 . S
C543 C545 1.387 . S
H544 C551 0.950 . S
C545 C543 1.387 . S
C545 C547 1.390 1_564 S
C545 H549 0.950 . S
H546 C542 0.950 . S
C547 C545 1.390 1_546 S
C547 C548 1.387 . S
C547 H550 0.950 . S
C548 C547 1.387 . S
C548 C551 1.387 . S
H549 C545 0.950 . S
H550 C547 0.950 . S
C551 C542 1.390 1_546 S
C551 H544 0.950 . S
C551 C548 1.387 . S
C552 C553 1.387 . S
C552 H556 0.950 . S
C552 C561 1.394 . S
C553 C552 1.387 . S
C553 C555 1.387 . S
H554 C561 0.947 1_556 S
C555 C553 1.387 . S
C555 C557 1.390 . S
C555 H559 0.950 . S
H556 C552 0.950 . S
C557 C555 1.390 . S
C557 C558 1.387 1_554 S
C557 H560 0.950 . S
C558 C557 1.387 1_556 S
C558 C561 1.386 1_556 S
H559 C555 0.950 . S
H560 C557 0.950 . S
C561 C552 1.394 . S
C561 H554 0.947 1_554 S
C561 C558 1.386 1_554 S
C562 C563 1.387 . S
C562 H566 0.950 . S
C562 C571 1.390 . S
C563 C562 1.387 . S
C563 C565 1.387 . S
H564 C571 0.950 . S
C565 C563 1.387 . S
C565 C567 1.390 1_655 S
C565 H569 0.950 . S
H566 C562 0.950 . S
C567 C565 1.390 1_455 S
C567 C568 1.387 . S
C567 H570 0.950 . S
C568 C567 1.387 . S
C568 C571 1.387 1_455 S
H569 C565 0.950 . S
H570 C567 0.950 . S
C571 C562 1.390 . S
C571 H564 0.950 . S
C571 C568 1.387 1_655 S
C572 C573 1.387 . S
C572 H576 0.950 . S
C572 C581 1.390 1_545 S
C573 C572 1.387 . S
C573 C575 1.387 1_545 S
H574 C581 0.950 . S
C575 C573 1.387 1_565 S
C575 C577 1.390 . S
C575 H579 0.950 . S
H576 C572 0.950 . S
C577 C575 1.390 . S
C577 C578 1.387 . S
C577 H580 0.950 . S
C578 C577 1.387 . S
C578 C581 1.387 . S
H579 C575 0.950 . S
H580 C577 0.950 . S
C581 C572 1.390 1_565 S
C581 H574 0.950 . S
C581 C578 1.387 . S
C582 C583 1.387 . S
C582 H586 0.950 . S
C582 C591 1.390 . S
C583 C582 1.387 . S
C583 C585 1.387 . S
H584 C591 0.950 . S
C585 C583 1.387 . S
C585 C587 1.390 . S
C585 H589 0.950 . S
H586 C582 0.950 . S
C587 C585 1.390 . S
C587 C588 1.387 . S
C587 H590 0.950 . S
C588 C587 1.387 . S
C588 C591 1.387 . S
H589 C585 0.950 . S
H590 C587 0.950 . S
C591 C582 1.390 . S
C591 H584 0.950 . S
C591 C588 1.387 . S
C592 C593 1.387 . S
C592 H596 0.950 . S
C592 C601 1.390 . S
C593 C592 1.387 . S
C593 C595 1.387 . S
H594 C601 0.950 . S
C595 C593 1.387 . S
C595 C597 1.390 1_455 S
C595 H599 0.950 . S
H596 C592 0.950 . S
C597 C595 1.390 1_655 S
C597 C598 1.387 . S
C597 H600 0.950 . S
C598 C597 1.387 . S
C598 C601 1.387 1_655 S
H599 C595 0.950 . S
H600 C597 0.950 . S
C601 C592 1.390 . S
C601 H594 0.950 . S
C601 C598 1.387 1_455 S
C602 C603 1.387 . S
C602 H606 0.950 . S
C602 C611 1.390 . S
C603 C602 1.387 . S
C603 C605 1.387 . S
H604 C611 0.950 . S
C605 C603 1.387 . S
C605 C607 1.390 . S
C605 H609 0.950 . S
H606 C602 0.950 . S
C607 C605 1.390 . S
C607 C608 1.387 1_545 S
C607 H610 0.950 1_545 S
C608 C607 1.387 1_565 S
C608 C611 1.387 1_565 S
H609 C605 0.950 . S
H610 C607 0.950 1_565 S
C611 C602 1.390 . S
C611 H604 0.950 . S
C611 C608 1.387 1_545 S
C612 C613 1.387 . S
C612 H616 0.950 . S
C612 C621 1.390 . S
C613 C612 1.387 . S
C613 C615 1.387 . S
H614 C621 0.950 . S
C615 C613 1.387 . S
C615 C617 1.390 . S
C615 H619 0.950 . S
H616 C612 0.950 . S
C617 C615 1.390 . S
C617 C618 1.387 . S
C617 H620 0.950 . S
C618 C617 1.387 . S
C618 C621 1.387 . S
H619 C615 0.950 . S
H620 C617 0.950 . S
C621 C612 1.390 . S
C621 H614 0.950 . S
C621 C618 1.387 . S
C622 C623 1.387 . S
C622 H626 0.950 . S
C622 C631 1.390 1_556 S
C623 C622 1.387 . S
C623 C625 1.387 . S
H624 C631 0.950 . S
C625 C623 1.387 . S
C625 C627 1.390 1_655 S
C625 H629 0.950 1_655 S
H626 C622 0.950 . S
C627 C625 1.390 1_455 S
C627 C628 1.387 1_556 S
C627 H630 0.950 . S
C628 C627 1.387 1_554 S
C628 C631 1.387 1_455 S
H629 C625 0.950 1_455 S
H630 C627 0.950 . S
C631 C622 1.390 1_554 S
C631 H624 0.950 . S
C631 C628 1.387 1_655 S
C632 C633 1.387 . S
C632 H636 0.950 . S
C632 C641 1.390 . S
C633 C632 1.387 . S
C633 C635 1.387 . S
H634 C641 0.950 1_545 S
C635 C633 1.387 . S
C635 C637 1.390 . S
C635 H639 0.950 . S
H636 C632 0.950 . S
C637 C635 1.390 . S
C637 C638 1.387 1_565 S
C637 H640 0.950 1_565 S
C638 C637 1.387 1_545 S
C638 C641 1.387 1_545 S
H639 C635 0.950 . S
H640 C637 0.950 1_545 S
C641 C632 1.390 . S
C641 H634 0.950 1_565 S
C641 C638 1.387 1_565 S
C642 C643 1.387 . S
C642 H646 0.950 . S
C642 C651 1.390 . S
C643 C642 1.387 . S
C643 C645 1.387 . S
H644 C651 0.950 . S
C645 C643 1.387 . S
C645 C647 1.390 . S
C645 H649 0.950 . S
H646 C642 0.950 . S
C647 C645 1.390 . S
C647 C648 1.387 . S
C647 H650 0.950 . S
C648 C647 1.387 . S
C648 C651 1.387 . S
H649 C645 0.950 . S
H650 C647 0.950 . S
C651 C642 1.390 . S
C651 H644 0.950 . S
C651 C648 1.387 . S
C652 C653 1.387 . S
C652 H656 0.950 . S
C652 C661 1.390 . S
C653 C652 1.387 . S
C653 C655 1.387 . S
H654 C661 0.950 . S
C655 C653 1.387 . S
C655 C657 1.390 1_455 S
C655 H659 0.950 . S
H656 C652 0.950 . S
C657 C655 1.390 1_655 S
C657 C658 1.387 . S
C657 H660 0.950 . S
C658 C657 1.387 . S
C658 C661 1.387 1_655 S
H659 C655 0.950 . S
H660 C657 0.950 . S
C661 C652 1.390 . S
C661 H654 0.950 . S
C661 C658 1.387 1_455 S
C662 C663 1.387 . S
C662 H666 0.950 . S
C662 C671 1.390 1_565 S
C663 C662 1.387 . S
C663 C665 1.387 1_565 S
H664 C671 0.950 1_565 S
C665 C663 1.387 1_545 S
C665 C667 1.390 . S
C665 H669 0.950 . S
H666 C662 0.950 . S
C667 C665 1.390 . S
C667 C668 1.387 . S
C667 H670 0.950 . S
C668 C667 1.387 . S
C668 C671 1.387 . S
H669 C665 0.950 . S
H670 C667 0.950 . S
C671 C662 1.390 1_545 S
C671 H664 0.950 1_545 S
C671 C668 1.387 . S
C433 C302 1.251 . S
C438 C14 1.250 . S
C443 C50 1.252 . S
C448 C338 1.252 . S
C453 C86 1.252 . S
C458 C374 1.250 . S
C463 C122 1.249 . S
C468 C410 1.251 . S
C473 C230 1.249 . S
C478 C158 1.249 . S
C483 C194 1.250 . S
C488 C266 1.252 . S
C493 C326 1.047 . S
C498 C2 1.045 . S
C503 C38 1.048 . S
C508 C362 1.046 . S
C513 C398 1.046 . S
C518 C74 1.046 . S
C523 C110 1.046 . S
C528 C218 1.048 . S
C533 C254 1.048 . S
C538 C146 1.045 . S
C543 C290 1.046 . S
C548 C182 1.046 . S
C553 C3 1.496 . S
C558 C184 1.462 . S
C563 C39 1.496 . S
C568 C4 1.462 . S
C573 C40 1.462 . S
C578 C75 1.495 . S
C583 C111 1.497 . S
C588 C76 1.460 . S
C593 C147 1.496 . S
C598 C112 1.462 . S
C603 C183 1.496 . S
C608 C148 1.459 . S
C613 C219 1.496 . S
C618 C256 1.459 . S
C623 C255 1.497 . S
C628 C292 1.460 . S
C633 C291 1.496 . S
C638 C328 1.459 . S
C643 C327 1.496 . S
C648 C364 1.462 . S
C653 C363 1.496 . S
C658 C400 1.462 . S
C663 C220 1.461 . S
C668 C399 1.495 . S
