# Generated by pormake.
# Topology ict, (4)-cn, num edge types: 1
# Building blocks:
#     Node 0, Type 0, BuildingBlock: QUQFOY_clean_sbu_1, # of connection points: 4
#     Node 1, Type 0, BuildingBlock: QUQFOY_clean_sbu_1, # of connection points: 4
#     Node 2, Type 0, BuildingBlock: QUQFOY_clean_sbu_1, # of connection points: 4
#     Node 3, Type 0, BuildingBlock: QUQFOY_clean_sbu_1, # of connection points: 4
#     Node 4, Type 0, BuildingBlock: QUQFOY_clean_sbu_1, # of connection points: 4
#     Node 5, Type 0, BuildingBlock: QUQFOY_clean_sbu_1, # of connection points: 4
#     Node 6, Type 0, BuildingBlock: QUQFOY_clean_sbu_1, # of connection points: 4
#     Node 7, Type 0, BuildingBlock: QUQFOY_clean_sbu_1, # of connection points: 4
#     Node 8, Type 0, BuildingBlock: QUQFOY_clean_sbu_1, # of connection points: 4
#     Node 9, Type 0, BuildingBlock: QUQFOY_clean_sbu_1, # of connection points: 4
#     Node 10, Type 0, BuildingBlock: QUQFOY_clean_sbu_1, # of connection points: 4
#     Node 11, Type 0, BuildingBlock: QUQFOY_clean_sbu_1, # of connection points: 4
#     Node 12, Type 0, BuildingBlock: QUQFOY_clean_sbu_1, # of connection points: 4
#     Node 13, Type 0, BuildingBlock: QUQFOY_clean_sbu_1, # of connection points: 4
#     Node 14, Type 0, BuildingBlock: QUQFOY_clean_sbu_1, # of connection points: 4
#     Node 15, Type 0, BuildingBlock: QUQFOY_clean_sbu_1, # of connection points: 4
#     Node 16, Type 0, BuildingBlock: QUQFOY_clean_sbu_1, # of connection points: 4
#     Node 17, Type 0, BuildingBlock: QUQFOY_clean_sbu_1, # of connection points: 4
#     Node 18, Type 0, BuildingBlock: QUQFOY_clean_sbu_1, # of connection points: 4
#     Node 19, Type 0, BuildingBlock: QUQFOY_clean_sbu_1, # of connection points: 4
#     Node 20, Type 0, BuildingBlock: QUQFOY_clean_sbu_1, # of connection points: 4
#     Node 21, Type 0, BuildingBlock: QUQFOY_clean_sbu_1, # of connection points: 4
#     Node 22, Type 0, BuildingBlock: QUQFOY_clean_sbu_1, # of connection points: 4
#     Node 23, Type 0, BuildingBlock: QUQFOY_clean_sbu_1, # of connection points: 4
#     Node 24, Type 0, BuildingBlock: QUQFOY_clean_sbu_1, # of connection points: 4
#     Node 25, Type 0, BuildingBlock: QUQFOY_clean_sbu_1, # of connection points: 4
#     Node 26, Type 0, BuildingBlock: QUQFOY_clean_sbu_1, # of connection points: 4
#     Node 27, Type 0, BuildingBlock: QUQFOY_clean_sbu_1, # of connection points: 4
#     Node 28, Type 0, BuildingBlock: QUQFOY_clean_sbu_1, # of connection points: 4
#     Node 29, Type 0, BuildingBlock: QUQFOY_clean_sbu_1, # of connection points: 4
#     Node 30, Type 0, BuildingBlock: QUQFOY_clean_sbu_1, # of connection points: 4
#     Node 31, Type 0, BuildingBlock: QUQFOY_clean_sbu_1, # of connection points: 4
#     Node 32, Type 0, BuildingBlock: QUQFOY_clean_sbu_1, # of connection points: 4
#     Node 33, Type 0, BuildingBlock: QUQFOY_clean_sbu_1, # of connection points: 4
#     Node 34, Type 0, BuildingBlock: QUQFOY_clean_sbu_1, # of connection points: 4
#     Node 35, Type 0, BuildingBlock: QUQFOY_clean_sbu_1, # of connection points: 4
#     Edge 36, Type (0, 0), BuildingBlock: CIFDUS_clean_linker_0, # of connection points: 2
#     Edge 37, Type (0, 0), BuildingBlock: CIFDUS_clean_linker_0, # of connection points: 2
#     Edge 38, Type (0, 0), BuildingBlock: CIFDUS_clean_linker_0, # of connection points: 2
#     Edge 39, Type (0, 0), BuildingBlock: CIFDUS_clean_linker_0, # of connection points: 2
#     Edge 40, Type (0, 0), BuildingBlock: CIFDUS_clean_linker_0, # of connection points: 2
#     Edge 41, Type (0, 0), BuildingBlock: CIFDUS_clean_linker_0, # of connection points: 2
#     Edge 42, Type (0, 0), BuildingBlock: CIFDUS_clean_linker_0, # of connection points: 2
#     Edge 43, Type (0, 0), BuildingBlock: CIFDUS_clean_linker_0, # of connection points: 2
#     Edge 44, Type (0, 0), BuildingBlock: CIFDUS_clean_linker_0, # of connection points: 2
#     Edge 45, Type (0, 0), BuildingBlock: CIFDUS_clean_linker_0, # of connection points: 2
#     Edge 46, Type (0, 0), BuildingBlock: CIFDUS_clean_linker_0, # of connection points: 2
#     Edge 47, Type (0, 0), BuildingBlock: CIFDUS_clean_linker_0, # of connection points: 2
#     Edge 48, Type (0, 0), BuildingBlock: CIFDUS_clean_linker_0, # of connection points: 2
#     Edge 49, Type (0, 0), BuildingBlock: CIFDUS_clean_linker_0, # of connection points: 2
#     Edge 50, Type (0, 0), BuildingBlock: CIFDUS_clean_linker_0, # of connection points: 2
#     Edge 51, Type (0, 0), BuildingBlock: CIFDUS_clean_linker_0, # of connection points: 2
#     Edge 52, Type (0, 0), BuildingBlock: CIFDUS_clean_linker_0, # of connection points: 2
#     Edge 53, Type (0, 0), BuildingBlock: CIFDUS_clean_linker_0, # of connection points: 2
#     Edge 54, Type (0, 0), BuildingBlock: CIFDUS_clean_linker_0, # of connection points: 2
#     Edge 55, Type (0, 0), BuildingBlock: CIFDUS_clean_linker_0, # of connection points: 2
#     Edge 56, Type (0, 0), BuildingBlock: CIFDUS_clean_linker_0, # of connection points: 2
#     Edge 57, Type (0, 0), BuildingBlock: CIFDUS_clean_linker_0, # of connection points: 2
#     Edge 58, Type (0, 0), BuildingBlock: CIFDUS_clean_linker_0, # of connection points: 2
#     Edge 59, Type (0, 0), BuildingBlock: CIFDUS_clean_linker_0, # of connection points: 2
#     Edge 60, Type (0, 0), BuildingBlock: CIFDUS_clean_linker_0, # of connection points: 2
#     Edge 61, Type (0, 0), BuildingBlock: CIFDUS_clean_linker_0, # of connection points: 2
#     Edge 62, Type (0, 0), BuildingBlock: CIFDUS_clean_linker_0, # of connection points: 2
#     Edge 63, Type (0, 0), BuildingBlock: CIFDUS_clean_linker_0, # of connection points: 2
#     Edge 64, Type (0, 0), BuildingBlock: CIFDUS_clean_linker_0, # of connection points: 2
#     Edge 65, Type (0, 0), BuildingBlock: CIFDUS_clean_linker_0, # of connection points: 2
#     Edge 66, Type (0, 0), BuildingBlock: CIFDUS_clean_linker_0, # of connection points: 2
#     Edge 67, Type (0, 0), BuildingBlock: CIFDUS_clean_linker_0, # of connection points: 2
#     Edge 68, Type (0, 0), BuildingBlock: CIFDUS_clean_linker_0, # of connection points: 2
#     Edge 69, Type (0, 0), BuildingBlock: CIFDUS_clean_linker_0, # of connection points: 2
#     Edge 70, Type (0, 0), BuildingBlock: CIFDUS_clean_linker_0, # of connection points: 2
#     Edge 71, Type (0, 0), BuildingBlock: CIFDUS_clean_linker_0, # of connection points: 2
#     Edge 72, Type (0, 0), BuildingBlock: CIFDUS_clean_linker_0, # of connection points: 2
#     Edge 73, Type (0, 0), BuildingBlock: CIFDUS_clean_linker_0, # of connection points: 2
#     Edge 74, Type (0, 0), BuildingBlock: CIFDUS_clean_linker_0, # of connection points: 2
#     Edge 75, Type (0, 0), BuildingBlock: CIFDUS_clean_linker_0, # of connection points: 2
#     Edge 76, Type (0, 0), BuildingBlock: CIFDUS_clean_linker_0, # of connection points: 2
#     Edge 77, Type (0, 0), BuildingBlock: CIFDUS_clean_linker_0, # of connection points: 2
#     Edge 78, Type (0, 0), BuildingBlock: CIFDUS_clean_linker_0, # of connection points: 2
#     Edge 79, Type (0, 0), BuildingBlock: CIFDUS_clean_linker_0, # of connection points: 2
#     Edge 80, Type (0, 0), BuildingBlock: CIFDUS_clean_linker_0, # of connection points: 2
#     Edge 81, Type (0, 0), BuildingBlock: CIFDUS_clean_linker_0, # of connection points: 2
#     Edge 82, Type (0, 0), BuildingBlock: CIFDUS_clean_linker_0, # of connection points: 2
#     Edge 83, Type (0, 0), BuildingBlock: CIFDUS_clean_linker_0, # of connection points: 2
#     Edge 84, Type (0, 0), BuildingBlock: CIFDUS_clean_linker_0, # of connection points: 2
#     Edge 85, Type (0, 0), BuildingBlock: CIFDUS_clean_linker_0, # of connection points: 2
#     Edge 86, Type (0, 0), BuildingBlock: CIFDUS_clean_linker_0, # of connection points: 2
#     Edge 87, Type (0, 0), BuildingBlock: CIFDUS_clean_linker_0, # of connection points: 2
#     Edge 88, Type (0, 0), BuildingBlock: CIFDUS_clean_linker_0, # of connection points: 2
#     Edge 89, Type (0, 0), BuildingBlock: CIFDUS_clean_linker_0, # of connection points: 2
#     Edge 90, Type (0, 0), BuildingBlock: CIFDUS_clean_linker_0, # of connection points: 2
#     Edge 91, Type (0, 0), BuildingBlock: CIFDUS_clean_linker_0, # of connection points: 2
#     Edge 92, Type (0, 0), BuildingBlock: CIFDUS_clean_linker_0, # of connection points: 2
#     Edge 93, Type (0, 0), BuildingBlock: CIFDUS_clean_linker_0, # of connection points: 2
#     Edge 94, Type (0, 0), BuildingBlock: CIFDUS_clean_linker_0, # of connection points: 2
#     Edge 95, Type (0, 0), BuildingBlock: CIFDUS_clean_linker_0, # of connection points: 2
#     Edge 96, Type (0, 0), BuildingBlock: CIFDUS_clean_linker_0, # of connection points: 2
#     Edge 97, Type (0, 0), BuildingBlock: CIFDUS_clean_linker_0, # of connection points: 2
#     Edge 98, Type (0, 0), BuildingBlock: CIFDUS_clean_linker_0, # of connection points: 2
#     Edge 99, Type (0, 0), BuildingBlock: CIFDUS_clean_linker_0, # of connection points: 2
#     Edge 100, Type (0, 0), BuildingBlock: CIFDUS_clean_linker_0, # of connection points: 2
#     Edge 101, Type (0, 0), BuildingBlock: CIFDUS_clean_linker_0, # of connection points: 2
#     Edge 102, Type (0, 0), BuildingBlock: CIFDUS_clean_linker_0, # of connection points: 2
#     Edge 103, Type (0, 0), BuildingBlock: CIFDUS_clean_linker_0, # of connection points: 2
#     Edge 104, Type (0, 0), BuildingBlock: CIFDUS_clean_linker_0, # of connection points: 2
#     Edge 105, Type (0, 0), BuildingBlock: CIFDUS_clean_linker_0, # of connection points: 2
#     Edge 106, Type (0, 0), BuildingBlock: CIFDUS_clean_linker_0, # of connection points: 2
#     Edge 107, Type (0, 0), BuildingBlock: CIFDUS_clean_linker_0, # of connection points: 2
# Relax obj value: 0.128
# Max RMSD: 0.189
# Mean RMSD: 0.189
data_MOF--net-ict--node1-QUQFOY_clean_sbu_1--edge1-CIFDUS_clean_linker_0
_symmetry_space_group_name_H-M    P1
_symmetry_Int_Tables_number       1
_symmetry_cell_setting            triclinic
loop_
_symmetry_equiv_pos_as_xyz
'x, y, z'
_cell_length_a     62.652664
_cell_length_b     62.650574
_cell_length_c     31.983117
_cell_angle_alpha  89.932887
_cell_angle_beta   90.005564
_cell_angle_gamma 119.94646
loop_
_atom_site_label
_atom_site_type_symbol
_atom_site_fract_x
_atom_site_fract_y
_atom_site_fract_z
_atom_type_partial_charge
O0 O 0.25451 0.18112 0.03831 0.0
Cd1 Cd 0.26191 0.21708 0.04401 0.0
Cd2 Cd 0.21446 0.19722 0.02846 0.0
O3 O 0.21855 0.16835 0.00805 0.0
O4 O 0.29612 0.23968 0.02446 0.0
O5 O 0.26277 0.23375 0.99026 0.0
C6 C 0.28649 0.2437 0.99179 0.0
C7 C 0.18631 0.20606 -0.00442 0.0
C8 C 0.23567 0.16436 0.01959 0.0
C9 C 0.23276 0.21568 0.11569 0.0
O10 O 0.21499 0.20159 0.09207 0.0
O11 O 0.25458 0.22726 0.10134 0.0
O12 O 0.17929 0.18599 0.01617 0.0
O13 O 0.20969 0.22089 0.99166 0.0
O14 O 0.82546 0.07521 0.04611 0.0
Cd15 Cd 0.78957 0.04695 0.05552 0.0
Cd16 Cd 0.80842 0.01909 0.03546 0.0
O17 O 0.83675 0.05172 0.0127 0.0
O18 O 0.76704 0.06008 0.04483 0.0
O19 O 0.76945 0.03282 0.00379 0.0
C20 C 0.76034 0.04697 0.01117 0.0
C21 C 0.79637 0.98171 0.00143 0.0
C22 C 0.84133 0.07293 0.02475 0.0
C23 C 0.79275 0.01813 0.12442 0.0
O24 O 0.80656 0.01495 0.09925 0.0
O25 O 0.78093 0.02855 0.11209 0.0
O26 O 0.81758 0.99416 0.01898 0.0
O27 O 0.78224 0.99124 0.00084 0.0
O28 O 0.92427 0.76261 0.04359 0.0
Cd29 Cd 0.95015 0.75161 0.05209 0.0
Cd30 Cd 0.98258 0.79903 0.03867 0.0
O31 O 0.95145 0.79832 0.01641 0.0
O32 O 0.93558 0.71663 0.03487 0.0
O33 O 0.9655 0.74791 -0.00011 0.0
C34 C 0.95011 0.72453 0.00289 0.0
C35 C 0.02011 0.82491 0.00533 0.0
C36 C 0.92925 0.78253 0.02505 0.0
C37 C 0.97955 0.7783 0.12502 0.0
O38 O 0.9859 0.7972 0.10239 0.0
O39 O 0.96667 0.75687 0.10981 0.0
O40 O 0.00868 0.83348 0.02677 0.0
O41 O 0.00982 0.8013 0.00152 0.0
O42 O 0.17552 0.25525 0.43442 0.0
Cd43 Cd 0.21189 0.26354 0.4313 0.0
Cd44 Cd 0.19099 0.21355 0.43476 0.0
O45 O 0.15996 0.21575 0.44838 0.0
O46 O 0.2323 0.2987 0.44743 0.0
O47 O 0.22957 0.26792 0.48574 0.0
C48 C 0.23814 0.2913 0.48089 0.0
C49 C 0.19824 0.18506 0.47037 0.0
C50 C 0.15719 0.23439 0.4438 0.0
C51 C 0.21792 0.23969 0.35586 0.0
O52 O 0.20301 0.21954 0.37374 0.0
O53 O 0.22564 0.26004 0.37475 0.0
O54 O 0.18061 0.17818 0.44372 0.0
O55 O 0.21145 0.20834 0.47812 0.0
O56 O 0.76238 0.92245 0.44796 0.0
Cd57 Cd 0.74983 0.94726 0.44087 0.0
Cd58 Cd 0.79939 0.98185 0.44172 0.0
O59 O 0.80045 0.95127 0.46231 0.0
O60 O 0.71575 0.93203 0.46318 0.0
O61 O 0.74777 0.96394 0.49292 0.0
C62 C 0.7245 0.9479 0.49317 0.0
C63 C 0.83127 0.02013 0.46478 0.0
C64 C 0.78414 0.92865 0.45953 0.0
C65 C 0.76983 0.97493 0.36249 0.0
O66 O 0.79058 0.98322 0.38028 0.0
O67 O 0.75007 0.96115 0.38225 0.0
O68 O 0.8352 0.00628 0.44011 0.0
O69 O 0.80903 0.01201 0.47778 0.0
O70 O 0.07597 0.82249 0.44083 0.0
Cd71 Cd 0.04919 0.78565 0.43604 0.0
Cd72 Cd 0.01783 0.80504 0.44554 0.0
O73 O 0.05077 0.83522 0.46245 0.0
O74 O 0.06558 0.76616 0.44851 0.0
O75 O 0.0373 0.76651 0.48966 0.0
C76 C 0.05287 0.75909 0.48256 0.0
C77 C 0.98182 0.80155 0.47487 0.0
C78 C 0.07246 0.8395 0.45476 0.0
C79 C 0.01867 0.78154 0.36288 0.0
O80 O 0.01319 0.79545 0.38348 0.0
O81 O 0.03139 0.77314 0.37944 0.0
O82 O 0.99562 0.81913 0.44981 0.0
O83 O 0.98879 0.786 0.48479 0.0
O84 O 0.74767 0.83011 0.9461 0.0
Cd85 Cd 0.73382 0.79244 0.94048 0.0
Cd86 Cd 0.78158 0.804 0.95022 0.0
O87 O 0.78426 0.83704 0.96604 0.0
O88 O 0.70012 0.77379 0.96452 0.0
O89 O 0.7329 0.77483 0.99322 0.0
C90 C 0.7096 0.76749 0.99463 0.0
C91 C 0.81111 0.79593 0.97992 0.0
C92 C 0.76927 0.84477 0.95949 0.0
C93 C 0.7558 0.78277 0.86718 0.0
O94 O 0.77542 0.79354 0.88862 0.0
O95 O 0.73539 0.77842 0.88281 0.0
O96 O 0.81684 0.81338 0.95341 0.0
O97 O 0.78832 0.78315 0.99109 0.0
O98 O 0.1691 0.92726 0.93838 0.0
Cd99 Cd 0.20638 0.95028 0.93181 0.0
Cd100 Cd 0.19583 0.98935 0.94084 0.0
O101 O 0.16238 0.95782 0.95306 0.0
O102 O 0.22459 0.93451 0.95474 0.0
O103 O 0.22459 0.96662 0.98419 0.0
C104 C 0.2314 0.95023 0.98498 0.0
C105 C 0.19874 0.02581 0.96616 0.0
C106 C 0.15454 0.93487 0.94911 0.0
C107 C 0.2207 0.98473 0.86098 0.0
O108 O 0.21248 0.99586 0.88303 0.0
O109 O 0.21978 0.96513 0.87389 0.0
O110 O 0.18364 0.01309 0.93701 0.0
O111 O 0.21201 0.01751 0.98244 0.0
O112 O 0.07575 0.24425 0.9392 0.0
Cd113 Cd 0.05093 0.25694 0.93457 0.0
Cd114 Cd 0.01632 0.20667 0.93618 0.0
O115 O 0.04746 0.20618 0.95513 0.0
O116 O 0.06711 0.2912 0.95656 0.0
O117 O 0.03591 0.25949 0.98836 0.0
C118 C 0.05223 0.28268 0.98799 0.0
C119 C 0.97859 0.17372 0.95949 0.0
C120 C 0.06996 0.2226 0.95087 0.0
C121 C 0.02228 0.23654 0.85725 0.0
O122 O 0.01448 0.21585 0.87511 0.0
O123 O 0.03591 0.25644 0.87677 0.0
O124 O 0.99256 0.17064 0.93375 0.0
O125 O 0.98624 0.19572 0.97328 0.0
O126 O 0.82767 0.74643 0.5563 0.0
Cd127 Cd 0.79151 0.73871 0.56307 0.0
Cd128 Cd 0.81161 0.78689 0.5481 0.0
O129 O 0.84086 0.78316 0.52869 0.0
O130 O 0.76954 0.7032 0.55048 0.0
O131 O 0.77249 0.73334 0.51 0.0
C132 C 0.76336 0.71001 0.51664 0.0
C133 C 0.80228 0.81415 0.51335 0.0
C134 C 0.84462 0.76567 0.53869 0.0
C135 C 0.79155 0.76834 0.63411 0.0
O136 O 0.80617 0.7864 0.61143 0.0
O137 O 0.7808 0.74661 0.61947 0.0
O138 O 0.8222 0.82176 0.53464 0.0
O139 O 0.78789 0.79065 0.50988 0.0
O140 O 0.23652 0.0773 0.54335 0.0
Cd141 Cd 0.25054 0.05414 0.55245 0.0
Cd142 Cd 0.20009 0.01558 0.54066 0.0
O143 O 0.19904 0.04758 0.52738 0.0
O144 O 0.28617 0.07208 0.53844 0.0
O145 O 0.25814 0.04048 0.50162 0.0
C146 C 0.28087 0.05734 0.50706 0.0
C147 C 0.1684 0.97934 0.5111 0.0
C148 C 0.21467 0.07039 0.53144 0.0
C149 C 0.2278 0.01859 0.62201 0.0
O150 O 0.20866 0.00816 0.59928 0.0
O151 O 0.2469 0.03797 0.60977 0.0
O152 O 0.16423 0.99126 0.53956 0.0
O153 O 0.19073 0.98842 0.49785 0.0
O154 O 0.92536 0.17626 0.53974 0.0
Cd155 Cd 0.9526 0.21267 0.54797 0.0
Cd156 Cd 0.98296 0.19315 0.52959 0.0
O157 O 0.94965 0.1647 0.50972 0.0
O158 O 0.93655 0.23304 0.54127 0.0
O159 O 0.96392 0.23386 0.49643 0.0
C160 C 0.94866 0.24117 0.50678 0.0
C161 C 0.01859 0.19724 0.49752 0.0
C162 C 0.92825 0.1601 0.52061 0.0
C163 C 0.98322 0.21199 0.61727 0.0
O164 O 0.98766 0.19867 0.59297 0.0
O165 O 0.97132 0.22221 0.60431 0.0
O166 O 0.00415 0.17828 0.51951 0.0
O167 O 0.01246 0.21389 0.49215 0.0
O168 O 0.92169 0.52065 0.39468 0.0
Cd169 Cd 0.93122 0.55701 0.39942 0.0
Cd170 Cd 0.88192 0.54017 0.3924 0.0
O171 O 0.88251 0.50769 0.38184 0.0
O172 O 0.96477 0.57778 0.37613 0.0
O173 O 0.9309 0.5737 0.34634 0.0
C174 C 0.95451 0.58269 0.34541 0.0
C175 C 0.85238 0.54591 0.35716 0.0
C176 C 0.90021 0.50334 0.38573 0.0
C177 C 0.90866 0.56673 0.47212 0.0
O178 O 0.88875 0.55541 0.4515 0.0
O179 O 0.92876 0.56985 0.45714 0.0
O180 O 0.84642 0.5296 0.38606 0.0
O181 O 0.87531 0.55852 0.34666 0.0
O182 O 0.49622 0.40353 0.36897 0.0
Cd183 Cd 0.45899 0.37827 0.37467 0.0
Cd184 Cd 0.47482 0.34386 0.36879 0.0
O185 O 0.50611 0.37565 0.35059 0.0
O186 O 0.44034 0.39451 0.3559 0.0
O187 O 0.44059 0.36396 0.32129 0.0
C188 C 0.43353 0.38011 0.32383 0.0
C189 C 0.47015 0.30696 0.34151 0.0
C190 C 0.51203 0.39805 0.3558 0.0
C191 C 0.45117 0.34779 0.44975 0.0
O192 O 0.46372 0.34014 0.43025 0.0
O193 O 0.44531 0.3623 0.43213 0.0
O194 O 0.48739 0.32029 0.3674 0.0
O195 O 0.45553 0.3148 0.3299 0.0
O196 O 0.58755 0.0899 0.38557 0.0
Cd197 Cd 0.61201 0.07692 0.3923 0.0
Cd198 Cd 0.64722 0.12626 0.385 0.0
O199 O 0.61616 0.12739 0.3673 0.0
O200 O 0.59494 0.04176 0.3753 0.0
O201 O 0.62584 0.0715 0.33948 0.0
C202 C 0.60939 0.04848 0.34324 0.0
C203 C 0.68481 0.15572 0.35545 0.0
C204 C 0.59359 0.11135 0.37236 0.0
C205 C 0.64346 0.09957 0.46645 0.0
O206 O 0.65145 0.11968 0.44659 0.0
O207 O 0.62824 0.07929 0.44949 0.0
O208 O 0.67286 0.1616 0.38125 0.0
O209 O 0.67495 0.13286 0.34479 0.0
O210 O 0.83661 0.57171 0.79245 0.0
Cd211 Cd 0.87424 0.58804 0.78818 0.0
Cd212 Cd 0.86597 0.53988 0.79154 0.0
O213 O 0.83057 0.53411 0.80089 0.0
O214 O 0.88945 0.62223 0.80967 0.0
O215 O 0.89298 0.59257 0.84132 0.0
C216 C 0.89773 0.61517 0.84052 0.0
C217 C 0.87481 0.51095 0.82148 0.0
C218 C 0.82218 0.54888 0.79883 0.0
C219 C 0.89108 0.57193 0.71482 0.0
O220 O 0.88317 0.55168 0.73426 0.0
O221 O 0.88915 0.58947 0.73048 0.0
O222 O 0.85959 0.50545 0.79098 0.0
O223 O 0.8846 0.53296 0.83653 0.0
O224 O 0.41431 0.24998 0.77106 0.0
Cd225 Cd 0.40901 0.27987 0.76266 0.0
Cd226 Cd 0.45789 0.30636 0.77387 0.0
O227 O 0.45181 0.27302 0.79591 0.0
O228 O 0.37565 0.27112 0.7832 0.0
O229 O 0.41029 0.29809 0.81478 0.0
C230 C 0.38646 0.28576 0.81428 0.0
C231 C 0.49056 0.34201 0.80324 0.0
C232 C 0.43354 0.25189 0.78804 0.0
C233 C 0.43721 0.30559 0.68808 0.0
O234 O 0.45551 0.30933 0.71039 0.0
O235 O 0.41579 0.29592 0.70394 0.0
O236 O 0.49413 0.32682 0.78156 0.0
O237 O 0.46809 0.33666 0.80969 0.0
O238 O 0.7456 0.16032 0.7869 0.0
Cd239 Cd 0.71996 0.12396 0.77272 0.0
Cd240 Cd 0.68804 0.13884 0.78931 0.0
O241 O 0.71816 0.16688 0.8184 0.0
O242 O 0.73495 0.10314 0.78417 0.0
O243 O 0.70441 0.10157 0.82176 0.0
C244 C 0.72012 0.09421 0.81562 0.0
C245 C 0.64885 0.126 0.81675 0.0
C246 C 0.74045 0.17388 0.80939 0.0
C247 C 0.69313 0.12676 0.70044 0.0
O248 O 0.68765 0.13912 0.7251 0.0
O249 O 0.70412 0.11576 0.71401 0.0
O250 O 0.66207 0.1474 0.80019 0.0
O251 O 0.65839 0.11196 0.81992 0.0
O252 O 0.40972 0.15115 0.2673 0.0
Cd253 Cd 0.39964 0.11427 0.26511 0.0
Cd254 Cd 0.44912 0.13274 0.27664 0.0
O255 O 0.44733 0.16396 0.29053 0.0
O256 O 0.36384 0.09525 0.2777 0.0
O257 O 0.39253 0.09671 0.32018 0.0
C258 C 0.36956 0.08924 0.3128 0.0
C259 C 0.47747 0.12554 0.31292 0.0
C260 C 0.43007 0.16827 0.28144 0.0
C261 C 0.42615 0.10763 0.19465 0.0
O262 O 0.44545 0.12197 0.21508 0.0
O263 O 0.405 0.10012 0.2105 0.0
O264 O 0.4844 0.14351 0.28697 0.0
O265 O 0.45414 0.11191 0.31981 0.0
O266 O 0.83206 0.26831 0.29426 0.0
Cd267 Cd 0.86903 0.29344 0.28399 0.0
Cd268 Cd 0.85199 0.32752 0.29375 0.0
O269 O 0.82231 0.29578 0.316 0.0
O270 O 0.88711 0.27514 0.29244 0.0
O271 O 0.89132 0.30513 0.3343 0.0
C272 C 0.89689 0.28839 0.32529 0.0
C273 C 0.85766 0.36452 0.32239 0.0
C274 C 0.81662 0.27349 0.3103 0.0
C275 C 0.87179 0.32306 0.20938 0.0
O276 O 0.85931 0.33009 0.23063 0.0
O277 O 0.87966 0.30984 0.22586 0.0
O278 O 0.83912 0.35077 0.29904 0.0
O279 O 0.87309 0.35711 0.33049 0.0
O280 O 0.74171 0.58057 0.2837 0.0
Cd281 Cd 0.71732 0.59331 0.27334 0.0
Cd282 Cd 0.68267 0.54428 0.28356 0.0
O283 O 0.71328 0.5441 0.30659 0.0
O284 O 0.73482 0.62904 0.28681 0.0
O285 O 0.70355 0.60092 0.32416 0.0
C286 C 0.72041 0.62366 0.31871 0.0
C287 C 0.64435 0.51547 0.31196 0.0
C288 C 0.7358 0.55991 0.30043 0.0
C289 C 0.6884 0.56813 0.19843 0.0
O290 O 0.68067 0.54868 0.22016 0.0
O291 O 0.70205 0.58912 0.21469 0.0
O292 O 0.65714 0.50897 0.28945 0.0
O293 O 0.65366 0.53864 0.3198 0.0
O294 O 0.49857 0.08193 0.87484 0.0
Cd295 Cd 0.46153 0.06961 0.88522 0.0
Cd296 Cd 0.47614 0.11854 0.87226 0.0
O297 O 0.50518 0.11675 0.84638 0.0
O298 O 0.44263 0.03387 0.87197 0.0
O299 O 0.44061 0.06248 0.83398 0.0
C300 C 0.43423 0.0396 0.83958 0.0
C301 C 0.47031 0.15049 0.84683 0.0
C302 C 0.5125 0.10164 0.85488 0.0
C303 C 0.46014 0.09655 0.95895 0.0
O304 O 0.47223 0.11542 0.93611 0.0
O305 O 0.45103 0.07508 0.94362 0.0
O306 O 0.48957 0.15463 0.86749 0.0
O307 O 0.45412 0.12784 0.83931 0.0
O308 O 0.91824 0.40456 0.88272 0.0
Cd309 Cd 0.93073 0.37982 0.8919 0.0
Cd310 Cd 0.88325 0.346 0.88423 0.0
O311 O 0.88214 0.37574 0.85942 0.0
O312 O 0.96458 0.39371 0.86877 0.0
O313 O 0.93162 0.36199 0.84064 0.0
C314 C 0.95499 0.37763 0.83917 0.0
C315 C 0.8554 0.30692 0.85768 0.0
C316 C 0.8976 0.39835 0.8657 0.0
C317 C 0.90765 0.35338 0.96893 0.0
O318 O 0.888 0.34562 0.94784 0.0
O319 O 0.92849 0.36601 0.95145 0.0
O320 O 0.84832 0.31943 0.87968 0.0
O321 O 0.87858 0.31695 0.84926 0.0
O322 O 0.59221 0.49602 0.88017 0.0
Cd323 Cd 0.62071 0.53199 0.88716 0.0
Cd324 Cd 0.64823 0.51043 0.87636 0.0
O325 O 0.61538 0.4814 0.85623 0.0
O326 O 0.60626 0.55345 0.87638 0.0
O327 O 0.63351 0.55178 0.83435 0.0
C328 C 0.61887 0.56025 0.8422 0.0
C329 C 0.68527 0.52109 0.84231 0.0
C330 C 0.59422 0.47849 0.86435 0.0
C331 C 0.64876 0.53138 0.96086 0.0
O332 O 0.65224 0.51626 0.93969 0.0
O333 O 0.63852 0.54242 0.94428 0.0
O334 O 0.67343 0.50091 0.86324 0.0
O335 O 0.67538 0.53483 0.83882 0.0
O336 O 0.58687 0.83798 0.71184 0.0
Cd337 Cd 0.59426 0.87411 0.71566 0.0
Cd338 Cd 0.5464 0.85321 0.70514 0.0
O339 O 0.54975 0.8238 0.68536 0.0
O340 O 0.62874 0.89598 0.69681 0.0
O341 O 0.59601 0.89045 0.66104 0.0
C342 C 0.61967 0.90013 0.66357 0.0
C343 C 0.51925 0.86351 0.67279 0.0
C344 C 0.56754 0.82052 0.69538 0.0
C345 C 0.56716 0.8748 0.78914 0.0
O346 O 0.5487 0.8591 0.76845 0.0
O347 O 0.58826 0.88631 0.77212 0.0
O348 O 0.51149 0.84356 0.69418 0.0
O349 O 0.54274 0.8772 0.66758 0.0
O350 O 0.16845 0.74149 0.70562 0.0
Cd351 Cd 0.13177 0.71685 0.71894 0.0
Cd352 Cd 0.14748 0.68234 0.70869 0.0
O353 O 0.17597 0.71298 0.68121 0.0
O354 O 0.11278 0.73384 0.7072 0.0
O355 O 0.10904 0.70235 0.66986 0.0
C356 C 0.10303 0.71908 0.67595 0.0
C357 C 0.14198 0.6443 0.68559 0.0
C358 C 0.18262 0.73552 0.68693 0.0
C359 C 0.13161 0.69 0.79464 0.0
O360 O 0.14335 0.68254 0.77241 0.0
O361 O 0.12265 0.70234 0.77848 0.0
O362 O 0.16124 0.65982 0.7058 0.0
O363 O 0.12569 0.65053 0.67715 0.0
O364 O 0.2585 0.41918 0.71902 0.0
Cd365 Cd 0.28157 0.4048 0.72874 0.0
Cd366 Cd 0.3181 0.45273 0.71666 0.0
O367 O 0.28812 0.4553 0.69702 0.0
O368 O 0.26336 0.36928 0.71399 0.0
O369 O 0.29528 0.39743 0.67778 0.0
C370 C 0.27802 0.37477 0.68242 0.0
C371 C 0.35633 0.47959 0.68575 0.0
C372 C 0.26538 0.44032 0.70341 0.0
C373 C 0.31267 0.42904 0.80202 0.0
O374 O 0.32153 0.44832 0.77957 0.0
O375 O 0.29708 0.40829 0.78694 0.0
O376 O 0.34516 0.48732 0.70972 0.0
O377 O 0.34536 0.45631 0.67771 0.0
O378 O 0.50725 0.92267 0.10001 0.0
Cd379 Cd 0.54474 0.93701 0.09194 0.0
Cd380 Cd 0.53316 0.88724 0.10537 0.0
O381 O 0.50137 0.8869 0.12288 0.0
O382 O 0.56216 0.97237 0.10768 0.0
O383 O 0.56453 0.94347 0.14426 0.0
C384 C 0.57034 0.96628 0.13994 0.0
C385 C 0.53614 0.85401 0.13296 0.0
C386 C 0.49331 0.9016 0.11604 0.0
C387 C 0.55434 0.91288 0.02111 0.0
O388 O 0.54438 0.89374 0.04396 0.0
O389 O 0.5578 0.93336 0.03486 0.0
O390 O 0.51971 0.85103 0.10602 0.0
O391 O 0.5512 0.87617 0.14516 0.0
O392 O 0.082 0.59768 0.11474 0.0
Cd393 Cd 0.07492 0.62655 0.11006 0.0
Cd394 Cd 0.12349 0.65435 0.117 0.0
O395 O 0.12036 0.62133 0.13541 0.0
O396 O 0.04152 0.61559 0.13276 0.0
O397 O 0.07601 0.64346 0.16359 0.0
C398 C 0.05225 0.63009 0.16401 0.0
C399 C 0.15222 0.6911 0.14949 0.0
C400 C 0.10208 0.6 0.12858 0.0
C401 C 0.09983 0.65449 0.03476 0.0
O402 O 0.11921 0.65889 0.05444 0.0
O403 O 0.07898 0.64316 0.05266 0.0
O404 O 0.15891 0.67888 0.12579 0.0
O405 O 0.12895 0.68184 0.15652 0.0
O406 O 0.41111 0.50214 0.12003 0.0
Cd407 Cd 0.38305 0.46594 0.11274 0.0
Cd408 Cd 0.35472 0.48576 0.12231 0.0
O409 O 0.38675 0.51539 0.14366 0.0
O410 O 0.39606 0.44404 0.12961 0.0
O411 O 0.36754 0.44737 0.16545 0.0
C412 C 0.38192 0.43819 0.162 0.0
C413 C 0.31686 0.47468 0.15375 0.0
C414 C 0.40826 0.51919 0.13584 0.0
C415 C 0.35616 0.46593 0.03779 0.0
O416 O 0.352 0.48063 0.0588 0.0
O417 O 0.36642 0.45504 0.05481 0.0
O418 O 0.32906 0.49489 0.13307 0.0
O419 O 0.32677 0.46105 0.15856 0.0
O420 O 0.08514 0.48843 0.61415 0.0
Cd421 Cd 0.07796 0.45259 0.6068 0.0
Cd422 Cd 0.12577 0.47268 0.61994 0.0
O423 O 0.12198 0.50162 0.64121 0.0
O424 O 0.04406 0.42957 0.62747 0.0
O425 O 0.07803 0.43578 0.65984 0.0
C426 C 0.05428 0.42558 0.65934 0.0
C427 C 0.15306 0.4626 0.65265 0.0
C428 C 0.10437 0.50533 0.63178 0.0
C429 C 0.1062 0.45419 0.53324 0.0
O430 O 0.12437 0.46819 0.55625 0.0
O431 O 0.08459 0.44274 0.54845 0.0
O432 O 0.16075 0.48277 0.63198 0.0
O433 O 0.12956 0.44841 0.65655 0.0
O434 O 0.50548 0.58426 0.61766 0.0
Cd435 Cd 0.54277 0.60759 0.60687 0.0
Cd436 Cd 0.52937 0.64515 0.62 0.0
O437 O 0.49871 0.61358 0.64064 0.0
O438 O 0.56019 0.58899 0.61851 0.0
O439 O 0.5646 0.62023 0.6574 0.0
C440 C 0.56989 0.60304 0.65061 0.0
C441 C 0.5328 0.68206 0.64485 0.0
C442 C 0.49132 0.59091 0.63445 0.0
C443 C 0.54942 0.64011 0.53493 0.0
O444 O 0.53903 0.64875 0.55794 0.0
O445 O 0.55425 0.62403 0.54899 0.0
O446 O 0.5153 0.66745 0.62049 0.0
O447 O 0.54838 0.67549 0.65661 0.0
O448 O 0.41468 0.90881 0.60829 0.0
Cd449 Cd 0.39096 0.92241 0.597 0.0
Cd450 Cd 0.35597 0.87507 0.6099 0.0
O451 O 0.38555 0.87376 0.63459 0.0
O452 O 0.40828 0.9581 0.61084 0.0
O453 O 0.37674 0.92974 0.64748 0.0
C454 C 0.39357 0.95253 0.64239 0.0
C455 C 0.31699 0.84825 0.63809 0.0
C456 C 0.40817 0.88852 0.62695 0.0
C457 C 0.36222 0.8963 0.52302 0.0
O458 O 0.35468 0.87737 0.54599 0.0
O459 O 0.37549 0.91768 0.53818 0.0
O460 O 0.32929 0.84044 0.61735 0.0
O461 O 0.32723 0.87165 0.64459 0.0
O462 O 0.16561 0.42786 0.20772 0.0
Cd463 Cd 0.12792 0.41372 0.21301 0.0
Cd464 Cd 0.14136 0.46395 0.21176 0.0
O465 O 0.17353 0.46552 0.1929 0.0
O466 O 0.11089 0.37946 0.1909 0.0
O467 O 0.10973 0.4105 0.15966 0.0
C468 C 0.10377 0.38754 0.15982 0.0
C469 C 0.13676 0.49718 0.18911 0.0
C470 C 0.18065 0.44983 0.19642 0.0
C471 C 0.1183 0.4331 0.29055 0.0
O472 O 0.12992 0.45392 0.27255 0.0
O473 O 0.11348 0.41351 0.27118 0.0
O474 O 0.15345 0.49994 0.21539 0.0
O475 O 0.12248 0.47532 0.17477 0.0
O476 O 0.58287 0.74995 0.22504 0.0
Cd477 Cd 0.58805 0.7198 0.22958 0.0
Cd478 Cd 0.53937 0.69443 0.22151 0.0
O479 O 0.54555 0.72777 0.19905 0.0
O480 O 0.62147 0.72981 0.20784 0.0
O481 O 0.58694 0.7037 0.17506 0.0
C482 C 0.61075 0.71644 0.17541 0.0
C483 C 0.50758 0.65814 0.19252 0.0
C484 C 0.56398 0.74866 0.20775 0.0
C485 C 0.56122 0.69333 0.3045 0.0
O486 O 0.5428 0.69148 0.28478 0.0
O487 O 0.58195 0.70184 0.28643 0.0
O488 O 0.50324 0.67296 0.21386 0.0
O489 O 0.5303 0.66437 0.18594 0.0
O490 O 0.26147 0.83946 0.2095 0.0
Cd491 Cd 0.2859 0.87698 0.21421 0.0
Cd492 Cd 0.32046 0.86434 0.20348 0.0
O493 O 0.28997 0.8317 0.18604 0.0
O494 O 0.27026 0.89554 0.19208 0.0
O495 O 0.30097 0.89398 0.16028 0.0
C496 C 0.28497 0.90129 0.16046 0.0
C497 C 0.35794 0.87564 0.17009 0.0
C498 C 0.26751 0.8245 0.19413 0.0
C499 C 0.31757 0.88545 0.28703 0.0
O500 O 0.32508 0.87334 0.26592 0.0
O501 O 0.30264 0.89128 0.271 0.0
O502 O 0.3475 0.85697 0.19479 0.0
O503 O 0.3466 0.88771 0.1628 0.0
H504 H 0.33759 0.27074 0.81631 0.0
H505 H 0.4026 0.30101 0.89375 0.0
H506 H 0.37732 0.29345 0.95617 0.0
H507 H 0.33635 0.27281 0.98913 0.0
H508 H 0.27139 0.24296 0.91157 0.0
H509 H 0.29706 0.25618 0.8489 0.0
C510 C 0.34626 0.27611 0.84679 0.0
C511 C 0.37187 0.28604 0.85046 0.0
C512 C 0.33161 0.2716 0.88258 0.0
C513 C 0.38291 0.29325 0.89006 0.0
C514 C 0.36844 0.28878 0.92583 0.0
C515 C 0.32783 0.26964 0.95853 0.0
C516 C 0.30199 0.25655 0.95502 0.0
C517 C 0.34271 0.27714 0.92256 0.0
C518 C 0.29123 0.25289 0.91519 0.0
C519 C 0.3059 0.26031 0.87927 0.0
H520 H 0.70721 0.08767 0.89754 0.0
H521 H 0.7403 0.06515 0.80175 0.0
H522 H 0.75211 0.04457 0.85416 0.0
H523 H 0.75828 0.03826 0.92791 0.0
H524 H 0.72882 0.06443 0.02415 0.0
H525 H 0.71002 0.07791 0.97106 0.0
C526 C 0.71649 0.07775 0.88807 0.0
C527 C 0.72301 0.07803 0.84594 0.0
C528 C 0.72411 0.06682 0.91859 0.0
C529 C 0.73524 0.06532 0.83409 0.0
C530 C 0.74205 0.0536 0.86404 0.0
C531 C 0.74723 0.04636 0.93725 0.0
C532 C 0.74504 0.05048 0.97982 0.0
C533 C 0.73737 0.05501 0.90653 0.0
C534 C 0.73089 0.06121 0.99151 0.0
C535 C 0.72021 0.069 0.96117 0.0
H536 H 0.93142 0.67509 0.008 0.0
H537 H 0.96199 0.73585 0.92093 0.0
H538 H 0.95012 0.70711 0.8624 0.0
H539 H 0.92671 0.66466 0.83595 0.0
H540 H 0.89771 0.60384 0.92274 0.0
H541 H 0.91353 0.63263 0.98153 0.0
C542 C 0.93584 0.68201 0.97623 0.0
C543 C 0.94723 0.7075 0.96869 0.0
C544 C 0.92905 0.66539 0.94275 0.0
C545 C 0.95319 0.7163 0.92749 0.0
C546 C 0.94627 0.69988 0.894 0.0
C547 C 0.9242 0.65776 0.86775 0.0
C548 C 0.91079 0.63226 0.8752 0.0
C549 C 0.93352 0.67439 0.90124 0.0
C550 C 0.90796 0.62344 0.91636 0.0
C551 C 0.91688 0.63988 0.94994 0.0
H552 H 0.29175 0.38211 0.60092 0.0
H553 H 0.25389 0.325 0.69298 0.0
H554 H 0.24117 0.29353 0.63874 0.0
H555 H 0.23658 0.28262 0.5642 0.0
H556 H 0.27108 0.34009 0.47169 0.0
H557 H 0.28961 0.37098 0.52685 0.0
C558 C 0.28114 0.36276 0.60917 0.0
C559 C 0.27367 0.35587 0.65079 0.0
C560 C 0.27311 0.34482 0.57761 0.0
C561 C 0.25972 0.33074 0.66105 0.0
C562 C 0.25241 0.31275 0.63006 0.0
C563 C 0.24859 0.30184 0.55621 0.0
C564 C 0.25243 0.30912 0.51404 0.0
C565 C 0.25836 0.31961 0.58807 0.0
C566 C 0.26778 0.3341 0.50401 0.0
C567 C 0.27832 0.35177 0.53551 0.0
H568 H 0.66924 0.93088 0.66414 0.0
H569 H 0.60624 0.89792 0.58199 0.0
H570 H 0.63343 0.91202 0.52115 0.0
H571 H 0.67506 0.92894 0.49176 0.0
H572 H 0.73812 0.96288 0.57356 0.0
H573 H 0.71097 0.95342 0.6341 0.0
C574 C 0.66147 0.92719 0.6329 0.0
C575 C 0.63579 0.91305 0.62755 0.0
C576 C 0.67722 0.9353 0.59805 0.0
C577 C 0.62594 0.9087 0.58695 0.0
C578 C 0.64149 0.91661 0.55212 0.0
C579 C 0.68284 0.9346 0.5228 0.0
C580 C 0.70849 0.94622 0.52837 0.0
C581 C 0.66714 0.92917 0.55736 0.0
C582 C 0.71841 0.95384 0.56856 0.0
C583 C 0.70289 0.94832 0.60319 0.0
H584 H 0.04672 0.75851 0.56658 0.0
H585 H 0.071 0.7283 0.46866 0.0
H586 H 0.08555 0.70993 0.52076 0.0
H587 H 0.09595 0.70685 0.59377 0.0
H588 H 0.07537 0.74065 0.69119 0.0
H589 H 0.05457 0.75294 0.63998 0.0
C590 C 0.05471 0.74745 0.55673 0.0
C591 C 0.05784 0.74479 0.51391 0.0
C592 C 0.06393 0.73779 0.58685 0.0
C593 C 0.06851 0.73069 0.5015 0.0
C594 C 0.07688 0.72024 0.53126 0.0
C595 C 0.08645 0.71644 0.60385 0.0
C596 C 0.08722 0.72289 0.64612 0.0
C597 C 0.07538 0.72431 0.57399 0.0
C598 C 0.07512 0.73559 0.65874 0.0
C599 C 0.06327 0.74267 0.62947 0.0
H600 H 0.65994 0.73326 0.17087 0.0
H601 H 0.59426 0.70429 0.09531 0.0
H602 H 0.61921 0.71554 0.0318 0.0
H603 H 0.65989 0.7385 -0.0018 0.0
H604 H 0.72555 0.76667 0.07357 0.0
H605 H 0.70042 0.75062 0.13664 0.0
C606 C 0.65107 0.72899 0.14048 0.0
C607 C 0.62532 0.7183 0.1378 0.0
C608 C 0.66554 0.73562 0.10408 0.0
C609 C 0.61405 0.71257 0.09826 0.0
C610 C 0.62832 0.71916 0.06189 0.0
C611 C 0.66867 0.74078 0.02839 0.0
C612 C 0.6945 0.75409 0.03135 0.0
C613 C 0.65411 0.73147 0.06449 0.0
C614 C 0.70568 0.75657 0.07051 0.0
C615 C 0.69132 0.74751 0.10661 0.0
H616 H 0.26522 0.93122 0.15895 0.0
H617 H 0.29726 0.89896 0.07968 0.0
H618 H 0.28527 0.91323 0.01759 0.0
H619 H 0.26142 0.93064 0.98607 0.0
H620 H 0.23086 0.9644 0.06521 0.0
H621 H 0.24679 0.95408 0.12714 0.0
C622 C 0.26991 0.92768 0.12807 0.0
C623 C 0.28178 0.91378 0.12381 0.0
C624 C 0.26307 0.93605 0.09254 0.0
C625 C 0.2881 0.9096 0.08372 0.0
C626 C 0.28111 0.91762 0.04821 0.0
C627 C 0.25861 0.93606 0.01686 0.0
C628 C 0.24471 0.94792 0.02121 0.0
C629 C 0.26794 0.9302 0.05226 0.0
C630 C 0.24148 0.95521 0.06112 0.0
C631 C 0.25046 0.94919 0.09655 0.0
H632 H 0.07499 0.33776 0.16038 0.0
H633 H 0.10439 0.40096 0.07864 0.0
H634 H 0.08926 0.37388 0.01767 0.0
H635 H 0.07156 0.33227 0.98757 0.0
H636 H 0.04041 0.26904 0.06934 0.0
H637 H 0.05203 0.29605 0.13037 0.0
C638 C 0.07774 0.34557 0.12922 0.0
C639 C 0.09104 0.37129 0.12391 0.0
C640 C 0.06881 0.32989 0.09436 0.0
C641 C 0.0942 0.38121 0.08349 0.0
C642 C 0.08569 0.36574 0.04861 0.0
C643 C 0.067 0.32443 0.01876 0.0
C644 C 0.05544 0.29875 0.02404 0.0
C645 C 0.07356 0.34006 0.05365 0.0
C646 C 0.04931 0.28876 0.06451 0.0
C647 C 0.05609 0.3042 0.09942 0.0
H648 H 0.70827 0.6172 0.40103 0.0
H649 H 0.74302 0.67318 0.30616 0.0
H650 H 0.75628 0.70534 0.35923 0.0
H651 H 0.7625 0.71731 0.43324 0.0
H652 H 0.73115 0.66115 0.52851 0.0
H653 H 0.71179 0.62938 0.47487 0.0
C654 C 0.71829 0.63645 0.39193 0.0
C655 C 0.72475 0.64283 0.34982 0.0
C656 C 0.72667 0.65483 0.42282 0.0
C657 C 0.73796 0.66783 0.33846 0.0
C658 C 0.74559 0.68623 0.3688 0.0
C659 C 0.75098 0.69817 0.44223 0.0
C660 C 0.74832 0.69156 0.48471 0.0
C661 C 0.74072 0.67993 0.41119 0.0
C662 C 0.73357 0.66666 0.49595 0.0
C663 C 0.72255 0.64849 0.4653 0.0
H664 H 0.27509 0.04259 0.42604 0.0
H665 H 0.33024 0.08016 0.52105 0.0
H666 H 0.36286 0.09022 0.46988 0.0
H667 H 0.37569 0.09229 0.39677 0.0
H668 H 0.32055 0.05818 0.30065 0.0
H669 H 0.28799 0.04248 0.35349 0.0
C670 C 0.29424 0.05262 0.43563 0.0
C671 C 0.30027 0.06073 0.47714 0.0
C672 C 0.31292 0.05906 0.40573 0.0
C673 C 0.32516 0.07389 0.48914 0.0
C674 C 0.34382 0.07965 0.45991 0.0
C675 C 0.35657 0.08096 0.38755 0.0
C676 C 0.35048 0.07638 0.34499 0.0
C677 C 0.33793 0.07289 0.41791 0.0
C678 C 0.32564 0.06199 0.33331 0.0
C679 C 0.30703 0.05309 0.36347 0.0
H680 H 0.90419 0.29703 0.40875 0.0
H681 H 0.92404 0.26711 0.30413 0.0
H682 H 0.94513 0.25287 0.35106 0.0
H683 H 0.95378 0.24475 0.42244 0.0
H684 H 0.93042 0.27115 0.52748 0.0
H685 H 0.91519 0.29117 0.48004 0.0
C686 C 0.91356 0.28782 0.39621 0.0
C687 C 0.91252 0.28307 0.3531 0.0
C688 C 0.92487 0.27886 0.42358 0.0
C689 C 0.92447 0.27086 0.33727 0.0
C690 C 0.93651 0.26268 0.36409 0.0
C691 C 0.94583 0.25534 0.4349 0.0
C692 C 0.94321 0.25647 0.47835 0.0
C693 C 0.93623 0.26596 0.40741 0.0
C694 C 0.93256 0.26995 0.4941 0.0
C695 C 0.92379 0.28134 0.46699 0.0
H696 H 0.00306 0.61298 0.1683 0.0
H697 H 0.06911 0.64485 0.24326 0.0
H698 H 0.04443 0.6355 0.30686 0.0
H699 H 0.00397 0.61306 0.34113 0.0
H700 H 0.93792 0.58165 0.26625 0.0
H701 H 0.96271 0.59638 0.20263 0.0
C702 C 0.01206 0.61828 0.19853 0.0
C703 C 0.03782 0.62918 0.20116 0.0
C704 C 0.99775 0.61275 0.23496 0.0
C705 C 0.04929 0.63632 0.24042 0.0
C706 C 0.03518 0.63085 0.27683 0.0
C707 C 0.99502 0.60984 0.31091 0.0
C708 C 0.96919 0.59594 0.30829 0.0
C709 C 0.00938 0.61826 0.2745 0.0
C710 C 0.95779 0.59223 0.26906 0.0
C711 C 0.97196 0.60051 0.23265 0.0
H712 H 0.40403 0.40019 0.3287 0.0
H713 H 0.43306 0.36858 0.24159 0.0
H714 H 0.4172 0.38168 0.18301 0.0
H715 H 0.39973 0.40668 0.15673 0.0
H716 H 0.36968 0.43726 0.24396 0.0
H717 H 0.38093 0.41967 0.30236 0.0
C718 C 0.40651 0.39582 0.2969 0.0
C719 C 0.42 0.38379 0.28937 0.0
C720 C 0.39731 0.40337 0.26344 0.0
C721 C 0.42277 0.37788 0.24813 0.0
C722 C 0.41384 0.3855 0.21463 0.0
C723 C 0.39527 0.40911 0.1885 0.0
C724 C 0.38425 0.42355 0.19611 0.0
C725 C 0.40179 0.39895 0.22191 0.0
C726 C 0.37822 0.42627 0.23731 0.0
C727 C 0.38479 0.41635 0.27074 0.0
H728 H 0.57243 0.95785 0.22249 0.0
H729 H 0.59846 0.01597 0.13064 0.0
H730 H 0.61612 0.04691 0.18595 0.0
H731 H 0.61987 0.05734 0.26068 0.0
H732 H 0.58998 0.99906 0.35241 0.0
H733 H 0.57837 0.96831 0.29714 0.0
C734 C 0.58241 0.97729 0.2146 0.0
C735 C 0.58414 0.98466 0.17266 0.0
C736 C 0.59162 0.99495 0.24664 0.0
C737 C 0.59682 0.00989 0.1628 0.0
C738 C 0.60687 0.02758 0.19439 0.0
C739 C 0.61126 0.03793 0.26853 0.0
C740 C 0.60573 0.03042 0.31044 0.0
C741 C 0.60375 0.02032 0.23648 0.0
C742 C 0.59429 0.00523 0.32027 0.0
C743 C 0.58762 0.98765 0.28871 0.0
H744 H 0.38233 0.94594 0.72499 0.0
H745 H 0.41428 0.00187 0.62946 0.0
H746 H 0.42645 0.03405 0.6823 0.0
H747 H 0.43244 0.04632 0.75624 0.0
H748 H 0.40441 0.99039 0.85208 0.0
H749 H 0.38601 0.95823 0.79881 0.0
C750 C 0.3915 0.96516 0.71573 0.0
C751 C 0.39745 0.97156 0.67348 0.0
C752 C 0.39933 0.98358 0.74646 0.0
C753 C 0.40962 0.99653 0.66188 0.0
C754 C 0.41662 0.01493 0.69207 0.0
C755 C 0.42182 0.02711 0.76542 0.0
C756 C 0.41976 0.02069 0.80794 0.0
C757 C 0.41222 0.0087 0.73457 0.0
C758 C 0.40629 0.99573 0.81947 0.0
C759 C 0.39583 0.97735 0.78903 0.0
H760 H 0.00483 0.39404 0.66308 0.0
H761 H 0.07037 0.42818 0.73928 0.0
H762 H 0.04524 0.41404 0.80252 0.0
H763 H 0.00456 0.39688 0.83597 0.0
H764 H 0.939 0.36165 0.76003 0.0
H765 H 0.96418 0.371 0.69697 0.0
C766 C 0.01361 0.39795 0.69352 0.0
C767 C 0.0394 0.41246 0.69649 0.0
C768 C 0.99904 0.38978 0.72982 0.0
C769 C 0.05055 0.41711 0.7361 0.0
C770 C 0.03618 0.40917 0.77233 0.0
C771 C 0.99581 0.39087 0.80566 0.0
C772 C 0.97 0.37894 0.80255 0.0
C773 C 0.0104 0.39626 0.76956 0.0
C774 C 0.95885 0.37092 0.76321 0.0
C775 C 0.97324 0.37639 0.72711 0.0
H776 H 0.62424 0.56055 0.75808 0.0
H777 H 0.60268 0.59257 0.85708 0.0
H778 H 0.58855 0.61167 0.80563 0.0
H779 H 0.57771 0.61501 0.73295 0.0
H780 H 0.59565 0.57956 0.6346 0.0
H781 H 0.61596 0.56628 0.68505 0.0
C782 C 0.61696 0.57218 0.7683 0.0
C783 C 0.61448 0.57515 0.81124 0.0
C784 C 0.60793 0.58224 0.73859 0.0
C785 C 0.6047 0.58996 0.82414 0.0
C786 C 0.59654 0.60082 0.79474 0.0
C787 C 0.58649 0.60479 0.72251 0.0
C788 C 0.58511 0.59819 0.68019 0.0
C789 C 0.59736 0.59645 0.75193 0.0
C790 C 0.59633 0.58472 0.6671 0.0
C791 C 0.60793 0.5771 0.69593 0.0
H792 H 0.23789 0.0647 0.00412 0.0
H793 H 0.16545 0.04072 0.95386 0.0
H794 H 0.17063 0.0814 0.96585 0.0
H795 H 0.19602 0.124 0.98787 0.0
H796 H 0.26885 0.14907 0.03729 0.0
H797 H 0.26329 0.10783 0.02801 0.0
C798 C 0.22316 0.06835 -0.00363 0.0
C799 C 0.20133 0.04974 0.97817 0.0
C800 C 0.22642 0.09203 0.00263 0.0
C801 C 0.18247 0.05476 0.96782 0.0
C802 C 0.18542 0.07804 0.97453 0.0
C803 C 0.21076 0.12055 -0.00345 0.0
C804 C 0.23287 0.13968 0.01302 0.0
C805 C 0.20743 0.09688 0.99132 0.0
C806 C 0.25166 0.13472 0.02435 0.0
C807 C 0.24848 0.11111 0.01918 0.0
H808 H 0.94056 0.17439 0.00063 0.0
H809 H 0.962 0.12544 0.94373 0.0
H810 H 0.92154 0.09032 0.95828 0.0
H811 H 0.88001 0.07337 0.98597 0.0
H812 H 0.85762 0.12152 0.04301 0.0
H813 H 0.89839 0.15701 0.02933 0.0
C814 C 0.9364 0.15601 0.99173 0.0
C815 C 0.95432 0.1526 0.97112 0.0
C816 C 0.91286 0.13574 -0.00012 0.0
C817 C 0.94858 0.12866 0.95954 0.0
C818 C 0.9254 0.10851 0.96778 0.0
C819 C 0.88393 0.09161 -0.00465 0.0
C820 C 0.86569 0.09472 0.01538 0.0
C821 C 0.90737 0.11185 0.98763 0.0
C822 C 0.87127 0.11855 0.02744 0.0
C823 C 0.89462 0.13887 0.01971 0.0
H824 H 0.85958 0.82123 0.96195 0.0
H825 H 0.80548 0.75805 0.03098 0.0
H826 H 0.83726 0.74804 0.05107 0.0
H827 H 0.88048 0.75698 0.04739 0.0
H828 H 0.93368 0.82047 0.97746 0.0
H829 H 0.90204 0.83044 0.95916 0.0
C830 C 0.85465 0.80529 0.98156 0.0
C831 C 0.83018 0.79039 0.9949 0.0
C832 C 0.87285 0.7996 0.99259 0.0
C833 C 0.82421 0.76986 0.02037 0.0
C834 C 0.84236 0.76409 0.0317 0.0
C835 C 0.8851 0.77294 0.02807 0.0
C836 C 0.90946 0.78789 0.01378 0.0
C837 C 0.86674 0.77874 0.01768 0.0
C838 C 0.91515 0.80861 0.98897 0.0
C839 C 0.89706 0.81439 0.97846 0.0
H840 H 0.11399 0.19204 0.45674 0.0
H841 H 0.14462 0.27055 0.44334 0.0
H842 H 0.10392 0.26586 0.4551 0.0
H843 H 0.05988 0.23954 0.47313 0.0
H844 H 0.03018 0.16124 0.48788 0.0
H845 H 0.07016 0.16578 0.4711 0.0
C846 C 0.11183 0.20817 0.45627 0.0
C847 C 0.13243 0.23163 0.44951 0.0
C848 C 0.08845 0.20537 0.46317 0.0
C849 C 0.12913 0.25226 0.44866 0.0
C850 C 0.10584 0.2496 0.45536 0.0
C851 C 0.06211 0.22346 0.472 0.0
C852 C 0.0421 0.20011 0.48186 0.0
C853 C 0.08539 0.22625 0.4631 0.0
C854 C 0.04531 0.17945 0.48062 0.0
C855 C 0.06819 0.18202 0.47114 0.0
H856 H 0.83012 0.86374 0.51491 0.0
H857 H 0.75928 0.80492 0.4747 0.0
H858 H 0.74727 0.83513 0.45392 0.0
H859 H 0.75647 0.87843 0.4502 0.0
H860 H 0.82763 0.93647 0.49166 0.0
H861 H 0.83976 0.9063 0.50913 0.0
C862 C 0.81209 0.85744 0.5013 0.0
C863 C 0.79561 0.83209 0.49649 0.0
C864 C 0.80525 0.8748 0.49 0.0
C865 C 0.77236 0.82434 0.47868 0.0
C866 C 0.76544 0.84161 0.467 0.0
C867 C 0.77461 0.88446 0.46305 0.0
C868 C 0.79101 0.90975 0.46975 0.0
C869 C 0.78163 0.86691 0.47307 0.0
C870 C 0.81454 0.91719 0.48619 0.0
C871 C 0.82157 0.89994 0.4962 0.0
H872 H 0.07044 0.87983 0.47923 0.0
H873 H 0.12186 0.8561 0.44413 0.0
H874 H 0.15623 0.89794 0.45493 0.0
H875 H 0.17171 0.94107 0.47727 0.0
H876 H 0.11959 0.96356 0.51399 0.0
H877 H 0.08548 0.92248 0.49898 0.0
C878 C 0.08914 0.88371 0.47388 0.0
C879 C 0.09352 0.86475 0.46115 0.0
C880 C 0.10873 0.90769 0.48019 0.0
C881 C 0.11793 0.87029 0.45415 0.0
C882 C 0.1376 0.89423 0.46023 0.0
C883 C 0.15287 0.93701 0.48131 0.0
C884 C 0.14817 0.95531 0.49668 0.0
C885 C 0.13323 0.91308 0.4735 0.0
C886 C 0.12369 0.94977 0.50229 0.0
C887 C 0.10416 0.92626 0.49385 0.0
H888 H 0.82213 0.95777 0.00267 0.0
H889 H 0.75158 0.94854 0.96712 0.0
H890 H 0.73682 0.90523 0.95006 0.0
H891 H 0.74356 0.86941 0.94878 0.0
H892 H 0.81436 0.87982 0.98676 0.0
H893 H 0.82921 0.92313 -0.00041 0.0
C894 C 0.80357 0.94642 0.99081 0.0
C895 C 0.78799 0.95641 0.98624 0.0
C896 C 0.79512 0.92159 0.98193 0.0
C897 C 0.764 0.94134 0.97084 0.0
C898 C 0.75551 0.91653 0.96131 0.0
C899 C 0.76222 0.88117 0.95983 0.0
C900 C 0.7777 0.87119 0.96697 0.0
C901 C 0.77081 0.90633 0.96738 0.0
C902 C 0.80191 0.8868 0.98113 0.0
C903 C 0.81052 0.91168 0.98843 0.0
H904 H 0.13018 0.88459 0.94151 0.0
H905 H 0.11965 0.94527 0.97685 0.0
H906 H 0.07696 0.91663 0.99469 0.0
H907 H 0.04315 0.87461 0.00343 0.0
H908 H 0.05277 0.81337 0.96895 0.0
H909 H 0.09517 0.84202 0.94713 0.0
C910 C 0.11852 0.89155 0.95296 0.0
C911 C 0.12827 0.9171 0.95807 0.0
C912 C 0.09381 0.8749 0.96329 0.0
C913 C 0.11279 0.92575 0.97271 0.0
C914 C 0.08831 0.90937 0.98296 0.0
C915 C 0.05442 0.86745 0.99088 0.0
C916 C 0.04485 0.84188 0.98807 0.0
C917 C 0.07872 0.88395 0.97881 0.0
C918 C 0.05969 0.83298 0.97145 0.0
C919 C 0.08397 0.84936 0.95914 0.0
H920 H 0.13681 0.17764 -0.00057 0.0
H921 H 0.19433 0.24893 0.95795 0.0
H922 H 0.16341 0.26046 0.93982 0.0
H923 H 0.11992 0.25074 0.93892 0.0
H924 H 0.06319 0.17919 0.98172 0.0
H925 H 0.094 0.16749 -0.00363 0.0
C926 C 0.14266 0.19566 0.9861 0.0
C927 C 0.16786 0.21241 0.98018 0.0
C928 C 0.1249 0.20224 0.97636 0.0
C929 C 0.17504 0.23565 0.96277 0.0
C930 C 0.15736 0.2423 0.95261 0.0
C931 C 0.11432 0.2326 0.95144 0.0
C932 C 0.08921 0.21597 0.95938 0.0
C933 C 0.13223 0.22585 0.95985 0.0
C934 C 0.08231 0.19246 0.97536 0.0
C935 C 0.09993 0.18568 0.98374 0.0
H936 H 0.94245 0.76118 0.50998 0.0
H937 H 0.96808 0.83623 0.47151 0.0
H938 H 0.92815 0.8317 0.48825 0.0
H939 H 0.88562 0.80627 0.51082 0.0
H940 H 0.8589 0.73101 0.54897 0.0
H941 H 0.89951 0.73579 0.53522 0.0
C942 C 0.93934 0.7766 0.50578 0.0
C943 C 0.95823 0.79899 0.48942 0.0
C944 C 0.91607 0.77379 0.51496 0.0
C945 C 0.95386 0.81875 0.48387 0.0
C946 C 0.931 0.81619 0.49335 0.0
C947 C 0.88858 0.79084 0.51614 0.0
C948 C 0.86914 0.76826 0.53063 0.0
C949 C 0.91189 0.79372 0.5083 0.0
C950 C 0.87349 0.74859 0.53767 0.0
C951 C 0.89674 0.75131 0.52987 0.0
H952 H 0.17048 0.13534 0.46623 0.0
H953 H 0.23875 0.19366 0.51626 0.0
H954 H 0.24965 0.1633 0.54076 0.0
H955 H 0.24069 0.12022 0.5445 0.0
H956 H 0.17203 0.06227 0.49452 0.0
H957 H 0.16047 0.09249 0.47355 0.0
C958 C 0.18768 0.14145 0.48277 0.0
C959 C 0.20384 0.16676 0.48915 0.0
C960 C 0.19386 0.12394 0.49656 0.0
C961 C 0.22596 0.1743 0.51093 0.0
C962 C 0.23226 0.15694 0.52479 0.0
C963 C 0.22316 0.11419 0.52917 0.0
C964 C 0.20738 0.08895 0.52086 0.0
C965 C 0.21651 0.13172 0.5172 0.0
C966 C 0.18462 0.08151 0.50127 0.0
C967 C 0.17796 0.0988 0.48919 0.0
H968 H 0.9295 0.12084 0.48835 0.0
H969 H 0.87912 0.14316 0.53575 0.0
H970 H 0.84455 0.10146 0.52452 0.0
H971 H 0.82867 0.05854 0.50039 0.0
H972 H 0.88 0.03736 0.45315 0.0
H973 H 0.91412 0.07868 0.46566 0.0
C974 C 0.91098 0.11672 0.49615 0.0
C975 C 0.90696 0.1352 0.5127 0.0
C976 C 0.89132 0.09279 0.48992 0.0
C977 C 0.88278 0.12933 0.52283 0.0
C978 C 0.86299 0.10546 0.51652 0.0
C979 C 0.84735 0.06296 0.49323 0.0
C980 C 0.85174 0.04487 0.47584 0.0
C981 C 0.86705 0.087 0.5001 0.0
C982 C 0.87605 0.05091 0.46644 0.0
C983 C 0.89562 0.07458 0.4735 0.0
H984 H 0.85736 0.46265 0.36326 0.0
H985 H 0.93337 0.4871 0.39278 0.0
H986 H 0.9266 0.44587 0.37863 0.0
H987 H 0.89948 0.40321 0.35456 0.0
H988 H 0.82388 0.3796 0.32331 0.0
H989 H 0.83009 0.42002 0.34181 0.0
C990 C 0.87245 0.45899 0.36683 0.0
C991 C 0.89586 0.47805 0.37888 0.0
C992 C 0.86851 0.43531 0.35831 0.0
C993 C 0.91516 0.47285 0.38338 0.0
C994 C 0.91131 0.44925 0.37531 0.0
C995 C 0.88433 0.40686 0.35227 0.0
C996 C 0.86129 0.38843 0.33745 0.0
C997 C 0.88812 0.43038 0.36233 0.0
C998 C 0.84185 0.39349 0.33442 0.0
C999 C 0.84537 0.41662 0.34495 0.0
H1000 H 0.62271 0.46621 0.30251 0.0
H1001 H 0.60977 0.52264 0.35278 0.0
H1002 H 0.56751 0.49131 0.37108 0.0
H1003 H 0.53386 0.44775 0.37072 0.0
H1004 H 0.54803 0.39215 0.31974 0.0
H1005 H 0.59013 0.42339 0.30367 0.0
C1006 C 0.61075 0.47175 0.31766 0.0
C1007 C 0.61939 0.49675 0.32616 0.0
C1008 C 0.58659 0.45376 0.32774 0.0
C1009 C 0.6036 0.5035 0.34595 0.0
C1010 C 0.5794 0.48559 0.35626 0.0
C1011 C 0.54616 0.44249 0.35607 0.0
C1012 C 0.53765 0.41757 0.34637 0.0
C1013 C 0.57061 0.46065 0.34692 0.0
C1014 C 0.55395 0.41112 0.3276 0.0
C1015 C 0.5781 0.42899 0.31836 0.0
H1016 H 0.527 0.15398 0.30951 0.0
H1017 H 0.46931 0.08467 0.3577 0.0
H1018 H 0.50017 0.07421 0.38145 0.0
H1019 H 0.54363 0.08401 0.38499 0.0
H1020 H 0.60064 0.15369 0.33612 0.0
H1021 H 0.56989 0.16461 0.31614 0.0
C1022 C 0.5211 0.13663 0.32549 0.0
C1023 C 0.49587 0.12008 0.33159 0.0
C1024 C 0.53885 0.13069 0.33866 0.0
C1025 C 0.48863 0.09777 0.35263 0.0
C1026 C 0.50627 0.09173 0.36603 0.0
C1027 C 0.54932 0.1016 0.37008 0.0
C1028 C 0.57447 0.11789 0.36186 0.0
C1029 C 0.53144 0.1079 0.35861 0.0
C1030 C 0.58148 0.14071 0.34278 0.0
C1031 C 0.56389 0.14702 0.33129 0.0
H1032 H 0.7969 0.57354 0.78768 0.0
H1033 H 0.78718 0.5027 0.82331 0.0
H1034 H 0.74363 0.48742 0.8367 0.0
H1035 H 0.70886 0.49473 0.84217 0.0
H1036 H 0.71814 0.56541 0.807 0.0
H1037 H 0.76122 0.58003 0.78897 0.0
C1038 C 0.78525 0.55473 0.79823 0.0
C1039 C 0.79544 0.53939 0.80484 0.0
C1040 C 0.76012 0.54599 0.80588 0.0
C1041 C 0.77995 0.51498 0.81811 0.0
C1042 C 0.75499 0.50619 0.8258 0.0
C1043 C 0.7202 0.51327 0.83015 0.0
C1044 C 0.7103 0.529 0.8262 0.0
C1045 C 0.74496 0.52162 0.82031 0.0
C1046 C 0.72527 0.5529 0.81035 0.0
C1047 C 0.74995 0.56132 0.80025 0.0
H1048 H 0.42842 0.14932 0.81811 0.0
H1049 H 0.50499 0.19878 0.84753 0.0
H1050 H 0.50006 0.23405 0.8324 0.0
H1051 H 0.47431 0.25111 0.81277 0.0
H1052 H 0.39769 0.20295 0.78262 0.0
H1053 H 0.40234 0.16695 0.79631 0.0
C1054 C 0.44403 0.16782 0.8208 0.0
C1055 C 0.46702 0.17136 0.83405 0.0
C1056 C 0.44105 0.18827 0.81234 0.0
C1057 C 0.48706 0.19546 0.8376 0.0
C1058 C 0.48428 0.21571 0.82902 0.0
C1059 C 0.45851 0.23278 0.80928 0.0
C1060 C 0.43564 0.22978 0.79695 0.0
C1061 C 0.46136 0.21234 0.81683 0.0
C1062 C 0.4155 0.20581 0.79223 0.0
C1063 C 0.41817 0.18522 0.79997 0.0
H1064 H 0.78932 0.19877 0.7874 0.0
H1065 H 0.73539 0.20438 0.86368 0.0
H1066 H 0.76613 0.24575 0.88462 0.0
H1067 H 0.80768 0.28065 0.88047 0.0
H1068 H 0.86251 0.27619 0.80532 0.0
H1069 H 0.83199 0.23409 0.78464 0.0
C1070 C 0.78436 0.20899 0.80882 0.0
C1071 C 0.76 0.19842 0.82377 0.0
C1072 C 0.8022 0.23304 0.82072 0.0
C1073 C 0.75391 0.21199 0.85147 0.0
C1074 C 0.77148 0.23573 0.86349 0.0
C1075 C 0.81304 0.27056 0.85944 0.0
C1076 C 0.8373 0.28161 0.84424 0.0
C1077 C 0.79556 0.24649 0.84804 0.0
C1078 C 0.84391 0.26813 0.81735 0.0
C1079 C 0.82648 0.24405 0.80559 0.0
H1080 H 0.47154 0.20873 0.30855 0.0
H1081 H 0.39713 0.18441 0.2682 0.0
H1082 H 0.40337 0.22568 0.28043 0.0
H1083 H 0.4296 0.26842 0.30554 0.0
H1084 H 0.50358 0.29165 0.34717 0.0
H1085 H 0.49788 0.25117 0.33107 0.0
C1086 C 0.45665 0.21239 0.30228 0.0
C1087 C 0.43386 0.1934 0.28768 0.0
C1088 C 0.46031 0.23606 0.30955 0.0
C1089 C 0.41486 0.19863 0.27959 0.0
C1090 C 0.41841 0.22225 0.28656 0.0
C1091 C 0.44454 0.26466 0.31059 0.0
C1092 C 0.46695 0.28302 0.32763 0.0
C1093 C 0.44102 0.24108 0.30187 0.0
C1094 C 0.48609 0.27783 0.33428 0.0
C1095 C 0.48286 0.25466 0.32514 0.0
H1096 H 0.79366 0.22444 0.28978 0.0
H1097 H 0.78295 0.27825 0.35673 0.0
H1098 H 0.74127 0.24679 0.37486 0.0
H1099 H 0.70797 0.20434 0.37247 0.0
H1100 H 0.71741 0.14969 0.30613 0.0
H1101 H 0.75937 0.18123 0.28663 0.0
C1102 C 0.78222 0.22923 0.30847 0.0
C1103 C 0.79153 0.25373 0.3219 0.0
C1104 C 0.75799 0.21098 0.31867 0.0
C1105 C 0.77636 0.25962 0.34585 0.0
C1106 C 0.75245 0.24164 0.35627 0.0
C1107 C 0.7191 0.19925 0.35357 0.0
C1108 C 0.70955 0.17468 0.3408 0.0
C1109 C 0.74309 0.21732 0.34283 0.0
C1110 C 0.72429 0.1685 0.31627 0.0
C1111 C 0.74831 0.1865 0.30528 0.0
H1112 H 0.80325 0.51996 0.37044 0.0
H1113 H 0.85912 0.58321 0.3039 0.0
H1114 H 0.82797 0.59325 0.28017 0.0
H1115 H 0.78494 0.5848 0.28083 0.0
H1116 H 0.72969 0.52118 0.34781 0.0
H1117 H 0.76062 0.51071 0.36901 0.0
C1118 C 0.80867 0.53588 0.3505 0.0
C1119 C 0.8335 0.55086 0.3391 0.0
C1120 C 0.79078 0.54161 0.33734 0.0
C1121 C 0.84011 0.57133 0.31308 0.0
C1122 C 0.82233 0.57715 0.29969 0.0
C1123 C 0.77969 0.56867 0.30009 0.0
C1124 C 0.755 0.5539 0.31285 0.0
C1125 C 0.79763 0.56258 0.31209 0.0
C1126 C 0.7485 0.53292 0.33751 0.0
C1127 C 0.76619 0.52688 0.34969 0.0
H1128 H 0.62294 0.14842 0.79825 0.0
H1129 H 0.61664 0.08457 0.86116 0.0
H1130 H 0.57341 0.07077 0.87784 0.0
H1131 H 0.53745 0.07724 0.87439 0.0
H1132 H 0.545 0.14115 0.8092 0.0
H1133 H 0.58765 0.15431 0.79328 0.0
C1134 C 0.61223 0.13153 0.81586 0.0
C1135 C 0.62305 0.11765 0.82877 0.0
C1136 C 0.58751 0.1236 0.82465 0.0
C1137 C 0.60875 0.09566 0.85106 0.0
C1138 C 0.58404 0.08774 0.86048 0.0
C1139 C 0.5484 0.09395 0.85648 0.0
C1140 C 0.53794 0.10818 0.84318 0.0
C1141 C 0.57319 0.10157 0.84731 0.0
C1142 C 0.55245 0.12981 0.82001 0.0
C1143 C 0.57694 0.13744 0.8109 0.0
H1144 H 0.85413 0.46327 0.79855 0.0
H1145 H 0.91081 0.51774 0.87788 0.0
H1146 H 0.92343 0.48789 0.89806 0.0
H1147 H 0.91867 0.44629 0.89184 0.0
H1148 H 0.86126 0.39238 0.81259 0.0
H1149 H 0.84883 0.42218 0.79346 0.0
C1150 C 0.8692 0.46867 0.82042 0.0
C1151 C 0.88153 0.49272 0.83662 0.0
C1152 C 0.87637 0.45154 0.83164 0.0
C1153 C 0.90095 0.49931 0.86504 0.0
C1154 C 0.90824 0.48228 0.87643 0.0
C1155 C 0.90353 0.44115 0.87023 0.0
C1156 C 0.89099 0.41714 0.85358 0.0
C1157 C 0.8962 0.45837 0.85963 0.0
C1158 C 0.87123 0.41068 0.82595 0.0
C1159 C 0.86406 0.42771 0.81497 0.0
H1160 H 0.59262 0.43605 0.84174 0.0
H1161 H 0.54573 0.46649 0.86918 0.0
H1162 H 0.50925 0.42648 0.85529 0.0
H1163 H 0.49074 0.38303 0.83295 0.0
H1164 H 0.53839 0.35347 0.80532 0.0
H1165 H 0.5744 0.39288 0.82216 0.0
C1166 C 0.57444 0.43402 0.84468 0.0
C1167 C 0.57197 0.45432 0.85619 0.0
C1168 C 0.55362 0.41104 0.83679 0.0
C1169 C 0.54821 0.4512 0.86022 0.0
C1170 C 0.52732 0.42831 0.85232 0.0
C1171 C 0.50899 0.38517 0.83111 0.0
C1172 C 0.51185 0.36534 0.81778 0.0
C1173 C 0.5298 0.4081 0.84037 0.0
C1174 C 0.53564 0.36844 0.81532 0.0
C1175 C 0.5563 0.39101 0.82485 0.0
H1176 H 0.5731 0.7227 0.67687 0.0
H1177 H 0.49781 0.69522 0.6382 0.0
H1178 H 0.502 0.73546 0.65047 0.0
H1179 H 0.52715 0.77866 0.66956 0.0
H1180 H 0.60265 0.80711 0.70778 0.0
H1181 H 0.59828 0.76638 0.6981 0.0
C1182 C 0.55757 0.7255 0.67164 0.0
C1183 C 0.5352 0.70599 0.6566 0.0
C1184 C 0.56018 0.74891 0.67821 0.0
C1185 C 0.51527 0.70993 0.64963 0.0
C1186 C 0.51764 0.73296 0.65654 0.0
C1187 C 0.54272 0.77604 0.67574 0.0
C1188 C 0.56523 0.796 0.68914 0.0
C1189 C 0.54007 0.75265 0.67026 0.0
C1190 C 0.58511 0.79211 0.69728 0.0
C1191 C 0.58262 0.7688 0.69183 0.0
H1192 H 0.20759 0.78494 0.70524 0.0
H1193 H 0.21389 0.72867 0.63751 0.0
H1194 H 0.2558 0.75848 0.61757 0.0
H1195 H 0.29082 0.7999 0.61993 0.0
H1196 H 0.28583 0.85715 0.68635 0.0
H1197 H 0.24328 0.82751 0.70644 0.0
C1198 C 0.21809 0.77927 0.68588 0.0
C1199 C 0.20754 0.75453 0.67304 0.0
C1200 C 0.24246 0.79659 0.67456 0.0
C1201 C 0.22148 0.74751 0.64806 0.0
C1202 C 0.24552 0.76454 0.63662 0.0
C1203 C 0.28054 0.80599 0.63896 0.0
C1204 C 0.29155 0.83068 0.65183 0.0
C1205 C 0.25623 0.78902 0.64995 0.0
C1206 C 0.27781 0.83821 0.67618 0.0
C1207 C 0.25348 0.82128 0.68757 0.0
H1208 H 0.21548 0.41499 0.71684 0.0
H1209 H 0.27423 0.48315 0.66646 0.0
H1210 H 0.24487 0.49636 0.64872 0.0
H1211 H 0.20269 0.48844 0.64564 0.0
H1212 H 0.14331 0.42043 0.69473 0.0
H1213 H 0.17281 0.40747 0.71526 0.0
C1214 C 0.22186 0.43272 0.70198 0.0
C1215 C 0.24709 0.44796 0.69288 0.0
C1216 C 0.2048 0.44033 0.69178 0.0
C1217 C 0.25498 0.47096 0.67379 0.0
C1218 C 0.23819 0.4786 0.66364 0.0
C1219 C 0.19614 0.47084 0.66112 0.0
C1220 C 0.17081 0.45543 0.66858 0.0
C1221 C 0.21309 0.46341 0.67231 0.0
C1222 C 0.16272 0.43268 0.68866 0.0
C1223 C 0.17957 0.42522 0.70025 0.0
H1224 H 0.38354 0.85183 0.17841 0.0
H1225 H 0.38826 0.91715 0.12425 0.0
H1226 H 0.43072 0.93112 0.10212 0.0
H1227 H 0.46707 0.92525 0.10073 0.0
H1228 H 0.46102 0.85949 0.15622 0.0
H1229 H 0.4186 0.84542 0.17539 0.0
C1230 C 0.39374 0.86909 0.16154 0.0
C1231 C 0.38276 0.88345 0.15312 0.0
C1232 C 0.41804 0.87705 0.14941 0.0
C1233 C 0.39627 0.9057 0.13108 0.0
C1234 C 0.42058 0.91375 0.11859 0.0
C1235 C 0.45645 0.90786 0.117 0.0
C1236 C 0.46739 0.89356 0.1271 0.0
C1237 C 0.43178 0.89969 0.12805 0.0
C1238 C 0.45325 0.87097 0.14801 0.0
C1239 C 0.42889 0.86283 0.15903 0.0
H1240 H 0.14168 0.59891 0.16017 0.0
H1241 H 0.06797 0.55142 0.11421 0.0
H1242 H 0.07246 0.51534 0.12683 0.0
H1243 H 0.09727 0.49719 0.15239 0.0
H1244 H 0.17052 0.5454 0.19964 0.0
H1245 H 0.16628 0.58118 0.18467 0.0
C1246 C 0.12655 0.5807 0.15283 0.0
C1247 C 0.10451 0.57795 0.13633 0.0
C1248 C 0.12921 0.56008 0.16028 0.0
C1249 C 0.08514 0.55413 0.12706 0.0
C1250 C 0.0877 0.53346 0.1342 0.0
C1251 C 0.11233 0.51555 0.15904 0.0
C1252 C 0.13416 0.51859 0.17712 0.0
C1253 C 0.10966 0.5362 0.15091 0.0
C1254 C 0.15347 0.54249 0.18588 0.0
C1255 C 0.15108 0.56302 0.17737 0.0
H1256 H 0.50943 0.61787 0.16453 0.0
H1257 H 0.45911 0.64443 0.19057 0.0
H1258 H 0.4242 0.60393 0.1753 0.0
H1259 H 0.40776 0.56073 0.15737 0.0
H1260 H 0.45735 0.5333 0.13143 0.0
H1261 H 0.49269 0.57432 0.14405 0.0
C1262 C 0.49083 0.61483 0.16634 0.0
C1263 C 0.48691 0.63415 0.17875 0.0
C1264 C 0.47068 0.59128 0.15803 0.0
C1265 C 0.46268 0.62989 0.18124 0.0
C1266 C 0.44266 0.60669 0.17262 0.0
C1267 C 0.42627 0.56363 0.15453 0.0
C1268 C 0.42985 0.54388 0.14376 0.0
C1269 C 0.44643 0.5872 0.1616 0.0
C1270 C 0.45403 0.54814 0.13983 0.0
C1271 C 0.47426 0.57161 0.14697 0.0
H1272 H 0.10054 0.60376 0.65591 0.0
H1273 H 0.17622 0.63002 0.69087 0.0
H1274 H 0.17105 0.58949 0.67784 0.0
H1275 H 0.14519 0.54654 0.65816 0.0
H1276 H 0.06946 0.51933 0.62271 0.0
H1277 H 0.0745 0.5602 0.63453 0.0
C1278 C 0.11591 0.60062 0.66032 0.0
C1279 C 0.13871 0.61992 0.67441 0.0
C1280 C 0.11279 0.57706 0.65306 0.0
C1281 C 0.15844 0.61552 0.68017 0.0
C1282 C 0.15552 0.59231 0.67281 0.0
C1283 C 0.1297 0.54943 0.65312 0.0
C1284 C 0.10695 0.52982 0.63978 0.0
C1285 C 0.13275 0.57291 0.65965 0.0
C1286 C 0.08718 0.53407 0.6331 0.0
C1287 C 0.09006 0.55746 0.63977 0.0
H1288 H 0.38211 0.52861 0.69884 0.0
H1289 H 0.38711 0.46975 0.63831 0.0
H1290 H 0.42958 0.4989 0.61714 0.0
H1291 H 0.46562 0.54128 0.61728 0.0
H1292 H 0.4593 0.59924 0.67893 0.0
H1293 H 0.4171 0.57015 0.69838 0.0
C1294 C 0.39237 0.52207 0.68084 0.0
C1295 C 0.38142 0.49702 0.67019 0.0
C1296 C 0.41667 0.53878 0.66919 0.0
C1297 C 0.39507 0.48896 0.64683 0.0
C1298 C 0.41939 0.50561 0.63487 0.0
C1299 C 0.45502 0.5475 0.63506 0.0
C1300 C 0.46576 0.57248 0.64661 0.0
C1301 C 0.43046 0.53058 0.64617 0.0
C1302 C 0.45164 0.58021 0.66949 0.0
C1303 C 0.42742 0.56357 0.68067 0.0
H1304 H 0.45749 0.91183 0.60797 0.0
H1305 H 0.4 0.84834 0.67208 0.0
H1306 H 0.42897 0.83466 0.68964 0.0
H1307 H 0.47032 0.84051 0.68763 0.0
H1308 H 0.5287 0.90392 0.62527 0.0
H1309 H 0.4996 0.91763 0.6058 0.0
C1310 C 0.45134 0.89507 0.62592 0.0
C1311 C 0.42654 0.8812 0.63866 0.0
C1312 C 0.46818 0.88714 0.63597 0.0
C1313 C 0.41891 0.85944 0.66177 0.0
C1314 C 0.43547 0.85152 0.67182 0.0
C1315 C 0.47674 0.85725 0.66948 0.0
C1316 C 0.50165 0.87111 0.65782 0.0
C1317 C 0.46008 0.86516 0.65904 0.0
C1318 C 0.50959 0.89284 0.63453 0.0
C1319 C 0.49298 0.90074 0.62355 0.0
H1320 H 0.20509 0.4242 0.2093 0.0
H1321 H 0.21531 0.49371 0.16396 0.0
H1322 H 0.25835 0.50775 0.14945 0.0
H1323 H 0.29287 0.50033 0.14771 0.0
H1324 H 0.28379 0.43118 0.19189 0.0
H1325 H 0.24068 0.41717 0.2093 0.0
C1326 C 0.21674 0.44239 0.1962 0.0
C1327 C 0.20683 0.45777 0.18761 0.0
C1328 C 0.24174 0.45053 0.18794 0.0
C1329 C 0.22229 0.48139 0.17089 0.0
C1330 C 0.247 0.48952 0.16258 0.0
C1331 C 0.28158 0.48224 0.16144 0.0
C1332 C 0.29156 0.46682 0.1684 0.0
C1333 C 0.25688 0.47424 0.17082 0.0
C1334 C 0.2766 0.44346 0.18629 0.0
C1335 C 0.25191 0.43539 0.19605 0.0
H1336 H 0.57441 0.85317 0.17315 0.0
H1337 H 0.50085 0.80617 0.12592 0.0
H1338 H 0.50303 0.76981 0.1454 0.0
H1339 H 0.52586 0.75117 0.17348 0.0
H1340 H 0.59972 0.79703 0.22013 0.0
H1341 H 0.59738 0.83396 0.20316 0.0
C1342 C 0.55883 0.83496 0.16752 0.0
C1343 C 0.53754 0.83241 0.14802 0.0
C1344 C 0.56029 0.81391 0.17837 0.0
C1345 C 0.51753 0.80869 0.14067 0.0
C1346 C 0.51873 0.78783 0.15177 0.0
C1347 C 0.54152 0.7692 0.18003 0.0
C1348 C 0.56296 0.77127 0.19792 0.0
C1349 C 0.54007 0.79022 0.17018 0.0
C1350 C 0.58298 0.79487 0.20626 0.0
C1351 C 0.58165 0.816 0.19661 0.0
H1352 H 0.20163 0.71361 0.13999 0.0
H1353 H 0.14439 0.72413 0.19374 0.0
H1354 H 0.17504 0.76636 0.21313 0.0
H1355 H 0.21805 0.80093 0.21174 0.0
H1356 H 0.27459 0.7895 0.15689 0.0
H1357 H 0.24418 0.74707 0.14091 0.0
C1358 C 0.1958 0.72502 0.15625 0.0
C1359 C 0.17073 0.71572 0.16526 0.0
C1360 C 0.2134 0.74925 0.1668 0.0
C1361 C 0.16359 0.73081 0.18646 0.0
C1362 C 0.18109 0.755 0.19738 0.0
C1363 C 0.22371 0.78914 0.19634 0.0
C1364 C 0.24862 0.79855 0.18536 0.0
C1365 C 0.20604 0.76455 0.18716 0.0
C1366 C 0.2556 0.7829 0.16564 0.0
C1367 C 0.23821 0.75855 0.15648 0.0
H1368 H 0.25975 0.25257 0.1717 0.0
H1369 H 0.19405 0.18138 0.15989 0.0
H1370 H 0.18444 0.18226 0.2332 0.0
H1371 H 0.19396 0.20315 0.3002 0.0
H1372 H 0.25793 0.27537 0.31316 0.0
H1373 H 0.26895 0.27421 0.23996 0.0
C1374 C 0.24341 0.23729 0.18533 0.0
C1375 C 0.22765 0.21698 0.16038 0.0
C1376 C 0.23764 0.23807 0.22764 0.0
C1377 C 0.2064 0.19734 0.1783 0.0
C1378 C 0.20089 0.19775 0.22029 0.0
C1379 C 0.21043 0.2186 0.28717 0.0
C1380 C 0.22519 0.23922 0.31208 0.0
C1381 C 0.2163 0.21802 0.24516 0.0
C1382 C 0.24625 0.25926 0.29453 0.0
C1383 C 0.25257 0.25859 0.25273 0.0
H1384 H 0.75499 0.00449 0.18009 0.0
H1385 H 0.828 0.01444 0.16693 0.0
H1386 H 0.82713 0.00191 0.23923 0.0
H1387 H 0.80606 0.98842 0.30598 0.0
H1388 H 0.73223 0.97595 0.32005 0.0
H1389 H 0.73285 0.98895 0.24743 0.0
C1390 C 0.77067 0.00395 0.19323 0.0
C1391 C 0.79156 0.01048 0.16835 0.0
C1392 C 0.76987 0.9962 0.23479 0.0
C1393 C 0.81167 0.00942 0.18544 0.0
C1394 C 0.81123 0.0023 0.22678 0.0
C1395 C 0.79008 0.98856 0.29323 0.0
C1396 C 0.76922 0.98146 0.31834 0.0
C1397 C 0.79047 0.99568 0.25167 0.0
C1398 C 0.74851 0.98133 0.30121 0.0
C1399 C 0.7489 0.98885 0.25981 0.0
H1400 H 0.00931 0.80988 0.31175 0.0
H1401 H 0.01159 0.74223 0.31474 0.0
H1402 H 0.99871 0.73457 0.2412 0.0
H1403 H 0.98698 0.74757 0.17592 0.0
H1404 H 0.98779 0.81687 0.17372 0.0
H1405 H 0.99923 0.8234 0.24728 0.0
C1406 C 0.00686 0.79336 0.29643 0.0
C1407 C 0.01114 0.77651 0.31864 0.0
C1408 C 1.00005 0.78943 0.25431 0.0
C1409 C 0.00837 0.75544 0.29818 0.0
C1410 C 1.00098 0.75106 0.25624 0.0
C1411 C 0.9896 0.76402 0.19172 0.0
C1412 C 0.98648 0.78168 0.16956 0.0
C1413 C 0.99676 0.76796 0.23398 0.0
C1414 C 0.99021 0.80308 0.1901 0.0
C1415 C 0.99669 0.80681 0.23216 0.0
H1416 H 0.79582 0.80465 0.81819 0.0
H1417 H 0.71974 0.74688 0.81788 0.0
H1418 H 0.7242 0.7363 0.74568 0.0
H1419 H 0.75024 0.74382 0.68256 0.0
H1420 H 0.82545 0.80372 0.68377 0.0
H1421 H 0.82089 0.813 0.75597 0.0
C1422 C 0.78018 0.78965 0.80245 0.0
C1423 C 0.75755 0.77641 0.82336 0.0
C1424 C 0.7828 0.78405 0.76116 0.0
C1425 C 0.73736 0.75734 0.80231 0.0
C1426 C 0.73994 0.75126 0.76116 0.0
C1427 C 0.76558 0.75879 0.69887 0.0
C1428 C 0.78817 0.77301 0.67807 0.0
C1429 C 0.76264 0.76448 0.74028 0.0
C1430 C 0.80787 0.79258 0.69915 0.0
C1431 C 0.8053 0.7979 0.74042 0.0
H1432 H 0.25236 0.04293 0.69188 0.0
H1433 H 0.20205 0.97039 0.64448 0.0
H1434 H 0.1986 0.95277 0.71402 0.0
H1435 H 0.20664 0.95859 0.78954 0.0
H1436 H 0.25279 0.0317 0.83815 0.0
H1437 H 0.26158 0.04854 0.76708 0.0
C1438 C 0.24093 0.02324 0.69678 0.0
C1439 C 0.22741 0.00797 0.66333 0.0
C1440 C 0.23833 0.01338 0.73711 0.0
C1441 C 0.21245 0.98251 0.66998 0.0
C1442 C 0.21051 0.97242 0.70966 0.0
C1443 C 0.21909 0.97809 0.7843 0.0
C1444 C 0.22933 0.99393 0.81857 0.0
C1445 C 0.22294 0.98774 0.74362 0.0
C1446 C 0.24491 0.01925 0.81189 0.0
C1447 C 0.24979 0.02887 0.77139 0.0
H1448 H 0.99345 0.24923 0.6728 0.0
H1449 H 0.98983 0.17883 0.66079 0.0
H1450 H 0.00141 0.18041 0.7337 0.0
H1451 H 0.01218 0.20119 0.80076 0.0
H1452 H 0.01863 0.27264 0.81418 0.0
H1453 H 0.0065 0.27138 0.74075 0.0
C1454 C 0.9952 0.23429 0.6863 0.0
C1455 C 0.99071 0.21392 0.66148 0.0
C1456 C 0.0024 0.2355 0.72835 0.0
C1457 C 0.9933 0.19478 0.67914 0.0
C1458 C 0.99986 0.1956 0.72088 0.0
C1459 C 0.01088 0.2165 0.7877 0.0
C1460 C 0.016 0.23684 0.81284 0.0
C1461 C 0.00439 0.2158 0.74571 0.0
C1462 C 0.01473 0.25675 0.79532 0.0
C1463 C 0.00774 0.25599 0.75345 0.0
H1464 H 0.9298 0.56001 0.5404 0.0
H1465 H 0.88433 0.58968 0.4995 0.0
H1466 H 0.87788 0.59746 0.57214 0.0
H1467 H 0.88147 0.59149 0.64725 0.0
H1468 H 0.92201 0.55632 0.68777 0.0
H1469 H 0.93438 0.55515 0.61558 0.0
C1470 C 0.91894 0.56865 0.54755 0.0
C1471 C 0.90769 0.57448 0.51505 0.0
C1472 C 0.91429 0.57183 0.58932 0.0
C1473 C 0.89317 0.58515 0.52433 0.0
C1474 C 0.88944 0.58951 0.56574 0.0
C1475 C 0.89341 0.58404 0.64018 0.0
C1476 C 0.901 0.57414 0.67243 0.0
C1477 C 0.89937 0.58232 0.59851 0.0
C1478 C 0.91603 0.56404 0.66317 0.0
C1479 C 0.92304 0.56333 0.622 0.0
H1480 H 0.47217 0.32977 0.50158 0.0
H1481 H 0.41509 0.34911 0.49681 0.0
H1482 H 0.40455 0.33646 0.57004 0.0
H1483 H 0.4124 0.32052 0.63606 0.0
H1484 H 0.47155 0.30404 0.63964 0.0
H1485 H 0.48031 0.31479 0.56611 0.0
C1486 C 0.45731 0.33111 0.51638 0.0
C1487 C 0.44435 0.34023 0.49376 0.0
C1488 C 0.45173 0.32431 0.55834 0.0
C1489 C 0.42537 0.34216 0.51364 0.0
C1490 C 0.41932 0.3349 0.55544 0.0
C1491 C 0.42706 0.31917 0.62051 0.0
C1492 C 0.4413 0.3115 0.64315 0.0
C1493 C 0.43246 0.326 0.57819 0.0
C1494 C 0.46044 0.31006 0.62291 0.0
C1495 C 0.46546 0.31616 0.58086 0.0
H1496 H 0.6765 0.08751 0.64783 0.0
H1497 H 0.69468 0.16352 0.65427 0.0
H1498 H 0.68156 0.1619 0.58197 0.0
H1499 H 0.66376 0.13874 0.51808 0.0
H1500 H 0.64248 0.06185 0.51174 0.0
H1501 H 0.65774 0.06381 0.58302 0.0
C1502 C 0.67778 0.10371 0.63307 0.0
C1503 C 0.68664 0.12564 0.656 0.0
C1504 C 0.66943 0.10241 0.59183 0.0
C1505 C 0.68788 0.14645 0.63706 0.0
C1506 C 0.68037 0.14553 0.59582 0.0
C1507 C 0.66252 0.12239 0.53217 0.0
C1508 C 0.6521 0.10021 0.50966 0.0
C1509 C 0.6709 0.12357 0.57311 0.0
C1510 C 0.65036 0.07913 0.52855 0.0
C1511 C 0.65916 0.08027 0.5692 0.0
H1512 H 0.46572 0.13133 0.14446 0.0
H1513 H 0.39209 0.06875 0.14791 0.0
H1514 H 0.39659 0.05854 0.07566 0.0
H1515 H 0.42129 0.06851 0.01053 0.0
H1516 H 0.49364 0.13312 0.00741 0.0
H1517 H 0.48989 0.14133 0.08066 0.0
C1518 C 0.45069 0.11533 0.12959 0.0
C1519 C 0.42865 0.10076 0.15151 0.0
C1520 C 0.4532 0.10997 0.08805 0.0
C1521 C 0.40923 0.08028 0.13158 0.0
C1522 C 0.41182 0.07443 0.09034 0.0
C1523 C 0.43624 0.08421 0.02616 0.0
C1524 C 0.4577 0.10018 0.00379 0.0
C1525 C 0.43368 0.08927 0.06814 0.0
C1526 C 0.47689 0.12067 0.02403 0.0
C1527 C 0.47479 0.12537 0.06588 0.0
H1528 H 0.91006 0.32884 0.16026 0.0
H1529 H 0.84254 0.33154 0.15805 0.0
H1530 H 0.84779 0.34093 0.08362 0.0
H1531 H 0.87098 0.34786 0.01918 0.0
H1532 H 0.93997 0.34823 0.02028 0.0
H1533 H 0.93488 0.33831 0.09526 0.0
C1534 C 0.89655 0.33149 0.14335 0.0
C1535 C 0.87588 0.32937 0.16452 0.0
C1536 C 0.89995 0.33745 0.10052 0.0
C1537 C 0.85865 0.33316 0.14249 0.0
C1538 C 0.86158 0.33846 0.0999 0.0
C1539 C 0.8849 0.34572 0.03579 0.0
C1540 C 0.90566 0.34846 0.0143 0.0
C1541 C 0.88207 0.34056 0.07864 0.0
C1542 C 0.92381 0.34615 0.0363 0.0
C1543 C 0.92085 0.34042 0.07905 0.0
H1544 H 0.67597 0.52887 0.14921 0.0
H1545 H 0.68644 0.60233 0.14729 0.0
H1546 H 0.67442 0.59736 0.07337 0.0
H1547 H 0.66063 0.57169 0.00935 0.0
H1548 H 0.65289 0.49924 0.01206 0.0
H1549 H 0.6641 0.50426 0.08572 0.0
C1550 C 0.67556 0.54379 0.13269 0.0
C1551 C 0.68185 0.56583 0.15368 0.0
C1552 C 0.66911 0.54097 0.09036 0.0
C1553 C 0.68165 0.58517 0.1317 0.0
C1554 C 0.67473 0.58231 0.08954 0.0
C1555 C 0.66138 0.55704 0.0262 0.0
C1556 C 0.65585 0.5351 0.00538 0.0
C1557 C 0.66835 0.56023 0.06855 0.0
C1558 C 0.65715 0.51635 0.02735 0.0
C1559 C 0.66351 0.51915 0.06949 0.0
H1560 H 0.53558 0.87123 0.97606 0.0
H1561 H 0.58721 0.94921 0.96842 0.0
H1562 H 0.59711 0.94424 0.8961 0.0
H1563 H 0.59016 0.9174 0.83445 0.0
H1564 H 0.53606 0.8401 0.84285 0.0
H1565 H 0.5282 0.84509 0.91572 0.0
C1566 C 0.54914 0.88718 0.95875 0.0
C1567 C 0.56077 0.91051 0.97759 0.0
C1568 C 0.55429 0.88426 0.91733 0.0
C1569 C 0.57799 0.93103 0.9545 0.0
C1570 C 0.58368 0.92818 0.91324 0.0
C1571 C 0.57683 0.90171 0.85251 0.0
C1572 C 0.56373 0.87842 0.83354 0.0
C1573 C 0.57186 0.90485 0.89426 0.0
C1574 C 0.54625 0.85822 0.85685 0.0
C1575 C 0.54176 0.86104 0.89848 0.0
H1576 H 0.13739 0.6645 0.98262 0.0
H1577 H 0.06671 0.66061 0.98729 0.0
H1578 H 0.07075 0.67261 0.91342 0.0
H1579 H 0.09437 0.68347 0.84702 0.0
H1580 H 0.16369 0.6844 0.84325 0.0
H1581 H 0.16025 0.67443 0.91742 0.0
C1582 C 0.12289 0.66641 0.96762 0.0
C1583 C 0.10186 0.66183 0.99039 0.0
C1584 C 0.12512 0.67278 0.92529 0.0
C1585 C 0.08309 0.66403 0.97033 0.0
C1586 C 0.08542 0.67092 0.92817 0.0
C1587 C 0.10872 0.68163 0.86265 0.0
C1588 C 0.12926 0.68469 0.83983 0.0
C1589 C 0.10635 0.67527 0.90528 0.0
C1590 C 0.14765 0.68198 0.86016 0.0
C1591 C 0.14573 0.67633 0.90256 0.0
H1592 H 0.3408 0.42451 0.99059 0.0
H1593 H 0.357 0.49999 0.98517 0.0
H1594 H 0.34569 0.49527 0.91152 0.0
H1595 H 0.33055 0.46982 0.8493 0.0
H1596 H 0.31122 0.39343 0.85406 0.0
H1597 H 0.32425 0.39828 0.92746 0.0
C1598 C 0.34195 0.43988 0.97306 0.0
C1599 C 0.34977 0.46257 0.99307 0.0
C1600 C 0.33476 0.43685 0.93083 0.0
C1601 C 0.35092 0.48232 0.97038 0.0
C1602 C 0.34449 0.47967 0.9283 0.0
C1603 C 0.32929 0.45422 0.86628 0.0
C1604 C 0.32013 0.43136 0.8463 0.0
C1605 C 0.33628 0.45702 0.90832 0.0
C1606 C 0.31821 0.41123 0.86889 0.0
C1607 C 0.32571 0.41401 0.91075 0.0
H1608 H 0.08036 0.41629 0.47805 0.0
H1609 H 0.14214 0.49028 0.48736 0.0
H1610 H 0.15059 0.49031 0.41324 0.0
H1611 H 0.14107 0.46964 0.34619 0.0
H1612 H 0.08149 0.39476 0.33515 0.0
H1613 H 0.07156 0.39466 0.4095 0.0
C1614 C 0.09559 0.43236 0.46366 0.0
C1615 C 0.11059 0.45325 0.48812 0.0
C1616 C 0.10078 0.4321 0.42084 0.0
C1617 C 0.13043 0.47391 0.46929 0.0
C1618 C 0.13526 0.474 0.42687 0.0
C1619 C 0.12579 0.4533 0.3599 0.0
C1620 C 0.11187 0.43233 0.33519 0.0
C1621 C 0.12063 0.45323 0.40244 0.0
C1622 C 0.09245 0.41115 0.35363 0.0
C1623 C 0.08677 0.41112 0.39606 0.0
H1624 H 0.58398 0.67268 0.34798 0.0
H1625 H 0.53093 0.69714 0.35991 0.0
H1626 H 0.52321 0.68333 0.43233 0.0
H1627 H 0.53044 0.66346 0.4913 0.0
H1628 H 0.5814 0.63635 0.48039 0.0
H1629 H 0.59092 0.65184 0.40835 0.0
C1630 C 0.57093 0.67513 0.3667 0.0
C1631 C 0.55808 0.68595 0.34882 0.0
C1632 C 0.56606 0.66651 0.40823 0.0
C1633 C 0.54095 0.68876 0.37303 0.0
C1634 C 0.53652 0.68088 0.41441 0.0
C1635 C 0.54374 0.66099 0.47334 0.0
C1636 C 0.55528 0.64888 0.49123 0.0
C1637 C 0.54879 0.66956 0.43215 0.0
C1638 C 0.57222 0.64558 0.46726 0.0
C1639 C 0.57771 0.65449 0.42615 0.0
H1640 H 0.33423 0.8624 0.33694 0.0
H1641 H 0.31911 0.92244 0.33539 0.0
H1642 H 0.33332 0.93244 0.40801 0.0
H1643 H 0.34937 0.92328 0.4726 0.0
H1644 H 0.36098 0.86096 0.47372 0.0
H1645 H 0.34906 0.85281 0.40039 0.0
C1646 C 0.33415 0.87778 0.35236 0.0
C1647 C 0.32579 0.89176 0.33083 0.0
C1648 C 0.34179 0.88302 0.39401 0.0
C1649 C 0.32544 0.91138 0.35143 0.0
C1650 C 0.33362 0.91713 0.39285 0.0
C1651 C 0.34946 0.9081 0.45648 0.0
C1652 C 0.35614 0.8928 0.47822 0.0
C1653 C 0.34179 0.90301 0.41452 0.0
C1654 C 0.35585 0.87292 0.45748 0.0
C1655 C 0.34904 0.86825 0.41563 0.0
loop_
_geom_bond_atom_site_label_1
_geom_bond_atom_site_label_2
_geom_bond_distance
_geom_bond_site_symmetry_2
_ccdc_geom_bond_type
O0 Cd1 2.223 . S
O0 C8 1.315 . S
Cd1 O0 2.223 . S
Cd1 O4 2.314 . S
Cd1 O5 2.439 1_554 S
Cd1 O11 2.240 . S
Cd2 O3 2.240 . S
Cd2 O10 2.223 . S
Cd2 O12 2.297 . S
Cd2 O13 2.439 . S
O3 Cd2 2.240 . S
O3 C8 1.279 . S
O4 Cd1 2.314 . S
O4 C6 1.233 1_554 S
O5 Cd1 2.439 1_556 S
O5 C6 1.208 . S
C6 O4 1.233 1_556 S
C6 O5 1.208 . S
C7 O12 1.247 . S
C7 O13 1.208 . S
C8 O0 1.315 . S
C8 O3 1.279 . S
C9 O10 1.315 . S
C9 O11 1.279 . S
O10 Cd2 2.223 . S
O10 C9 1.315 . S
O11 Cd1 2.240 . S
O11 C9 1.279 . S
O12 Cd2 2.297 . S
O12 C7 1.247 . S
O13 Cd2 2.439 . S
O13 C7 1.208 . S
O14 Cd15 2.223 . S
O14 C22 1.315 . S
Cd15 O14 2.223 . S
Cd15 O18 2.314 . S
Cd15 O19 2.439 1_554 S
Cd15 O25 2.240 1_545 S
Cd16 O17 2.240 1_565 S
Cd16 O24 2.223 1_565 S
Cd16 O26 2.297 . S
Cd16 O27 2.439 . S
O17 Cd16 2.240 1_545 S
O17 C22 1.279 . S
O18 Cd15 2.314 . S
O18 C20 1.233 1_554 S
O19 Cd15 2.439 1_556 S
O19 C20 1.208 . S
C20 O18 1.233 1_556 S
C20 O19 1.208 . S
C21 O26 1.247 . S
C21 O27 1.208 . S
C22 O14 1.315 . S
C22 O17 1.279 . S
C23 O24 1.315 . S
C23 O25 1.279 1_545 S
O24 Cd16 2.223 1_545 S
O24 C23 1.315 . S
O25 Cd15 2.240 1_565 S
O25 C23 1.279 1_565 S
O26 Cd16 2.297 . S
O26 C21 1.247 . S
O27 Cd16 2.439 . S
O27 C21 1.208 . S
O28 Cd29 2.223 . S
O28 C36 1.315 . S
Cd29 O28 2.223 . S
Cd29 O32 2.314 . S
Cd29 O33 2.439 1_554 S
Cd29 O39 2.240 1_655 S
Cd30 O31 2.240 1_455 S
Cd30 O38 2.223 1_455 S
Cd30 O40 2.297 . S
Cd30 O41 2.439 . S
O31 Cd30 2.240 1_655 S
O31 C36 1.279 . S
O32 Cd29 2.314 . S
O32 C34 1.233 1_554 S
O33 Cd29 2.439 1_556 S
O33 C34 1.208 . S
C34 O32 1.233 1_556 S
C34 O33 1.208 . S
C35 O40 1.247 . S
C35 O41 1.208 . S
C36 O28 1.315 . S
C36 O31 1.279 . S
C37 O38 1.315 . S
C37 O39 1.279 1_655 S
O38 Cd30 2.223 1_655 S
O38 C37 1.315 . S
O39 Cd29 2.240 1_455 S
O39 C37 1.279 1_455 S
O40 Cd30 2.297 . S
O40 C35 1.247 . S
O41 Cd30 2.439 . S
O41 C35 1.208 . S
O42 Cd43 2.223 . S
O42 C50 1.315 . S
Cd43 O42 2.223 . S
Cd43 O46 2.297 . S
Cd43 O47 2.439 . S
Cd43 O53 2.240 . S
Cd44 O45 2.240 . S
Cd44 O52 2.223 . S
Cd44 O54 2.297 . S
Cd44 O55 2.439 . S
O45 Cd44 2.240 . S
O45 C50 1.279 . S
O46 Cd43 2.297 . S
O46 C48 1.247 . S
O47 Cd43 2.439 . S
O47 C48 1.208 . S
C48 O46 1.247 . S
C48 O47 1.208 . S
C49 O54 1.247 . S
C49 O55 1.208 . S
C50 O42 1.315 . S
C50 O45 1.279 . S
C51 O52 1.315 . S
C51 O53 1.279 . S
O52 Cd44 2.223 . S
O52 C51 1.315 . S
O53 Cd43 2.240 . S
O53 C51 1.279 . S
O54 Cd44 2.297 . S
O54 C49 1.247 . S
O55 Cd44 2.439 . S
O55 C49 1.208 . S
O56 Cd57 2.223 . S
O56 C64 1.315 . S
Cd57 O56 2.223 . S
Cd57 O60 2.297 . S
Cd57 O61 2.439 . S
Cd57 O67 2.240 1_565 S
Cd58 O59 2.240 1_545 S
Cd58 O66 2.223 1_545 S
Cd58 O68 2.297 . S
Cd58 O69 2.439 . S
O59 Cd58 2.240 1_565 S
O59 C64 1.279 . S
O60 Cd57 2.297 . S
O60 C62 1.247 . S
O61 Cd57 2.439 . S
O61 C62 1.208 . S
C62 O60 1.247 . S
C62 O61 1.208 . S
C63 O68 1.247 . S
C63 O69 1.208 . S
C64 O56 1.315 . S
C64 O59 1.279 . S
C65 O66 1.315 . S
C65 O67 1.279 1_565 S
O66 Cd58 2.223 1_565 S
O66 C65 1.315 . S
O67 Cd57 2.240 1_545 S
O67 C65 1.279 1_545 S
O68 Cd58 2.297 . S
O68 C63 1.247 . S
O69 Cd58 2.439 . S
O69 C63 1.208 . S
O70 Cd71 2.223 . S
O70 C78 1.315 . S
Cd71 O70 2.223 . S
Cd71 O74 2.297 . S
Cd71 O75 2.439 . S
Cd71 O81 2.240 1_455 S
Cd72 O73 2.240 1_655 S
Cd72 O80 2.223 1_655 S
Cd72 O82 2.297 . S
Cd72 O83 2.439 . S
O73 Cd72 2.240 1_455 S
O73 C78 1.279 . S
O74 Cd71 2.297 . S
O74 C76 1.247 . S
O75 Cd71 2.439 . S
O75 C76 1.208 . S
C76 O74 1.247 . S
C76 O75 1.208 . S
C77 O82 1.247 . S
C77 O83 1.208 . S
C78 O70 1.315 . S
C78 O73 1.279 . S
C79 O80 1.315 . S
C79 O81 1.279 1_455 S
O80 Cd72 2.223 1_455 S
O80 C79 1.315 . S
O81 Cd71 2.240 1_655 S
O81 C79 1.279 1_655 S
O82 Cd72 2.297 . S
O82 C77 1.247 . S
O83 Cd72 2.439 . S
O83 C77 1.208 . S
O84 Cd85 2.223 . S
O84 C92 1.315 . S
Cd85 O84 2.223 . S
Cd85 O88 2.314 . S
Cd85 O89 2.439 1_556 S
Cd85 O95 2.240 . S
Cd86 O87 2.240 . S
Cd86 O94 2.223 . S
Cd86 O96 2.297 . S
Cd86 O97 2.439 . S
O87 Cd86 2.240 . S
O87 C92 1.279 . S
O88 Cd85 2.314 . S
O88 C90 1.233 1_556 S
O89 Cd85 2.439 1_554 S
O89 C90 1.208 . S
C90 O88 1.233 1_554 S
C90 O89 1.208 . S
C91 O96 1.247 . S
C91 O97 1.208 . S
C92 O84 1.315 . S
C92 O87 1.279 . S
C93 O94 1.315 . S
C93 O95 1.279 . S
O94 Cd86 2.223 . S
O94 C93 1.315 . S
O95 Cd85 2.240 . S
O95 C93 1.279 . S
O96 Cd86 2.297 . S
O96 C91 1.247 . S
O97 Cd86 2.439 . S
O97 C91 1.208 . S
O98 Cd99 2.223 . S
O98 C106 1.315 . S
Cd99 O98 2.223 . S
Cd99 O102 2.314 . S
Cd99 O103 2.439 1_556 S
Cd99 O109 2.240 1_565 S
Cd100 O101 2.240 1_545 S
Cd100 O108 2.223 1_545 S
Cd100 O110 2.297 . S
Cd100 O111 2.439 . S
O101 Cd100 2.240 1_565 S
O101 C106 1.279 . S
O102 Cd99 2.314 . S
O102 C104 1.233 1_556 S
O103 Cd99 2.439 1_554 S
O103 C104 1.208 . S
C104 O102 1.233 1_554 S
C104 O103 1.208 . S
C105 O110 1.247 . S
C105 O111 1.208 . S
C106 O98 1.315 . S
C106 O101 1.279 . S
C107 O108 1.315 . S
C107 O109 1.279 1_565 S
O108 Cd100 2.223 1_565 S
O108 C107 1.315 . S
O109 Cd99 2.240 1_545 S
O109 C107 1.279 1_545 S
O110 Cd100 2.297 . S
O110 C105 1.247 . S
O111 Cd100 2.439 . S
O111 C105 1.208 . S
O112 Cd113 2.223 . S
O112 C120 1.315 . S
Cd113 O112 2.223 . S
Cd113 O116 2.314 . S
Cd113 O117 2.439 1_556 S
Cd113 O123 2.240 1_455 S
Cd114 O115 2.240 1_655 S
Cd114 O122 2.223 1_655 S
Cd114 O124 2.297 . S
Cd114 O125 2.439 . S
O115 Cd114 2.240 1_455 S
O115 C120 1.279 . S
O116 Cd113 2.314 . S
O116 C118 1.233 1_556 S
O117 Cd113 2.439 1_554 S
O117 C118 1.208 . S
C118 O116 1.233 1_554 S
C118 O117 1.208 . S
C119 O124 1.247 . S
C119 O125 1.208 . S
C120 O112 1.315 . S
C120 O115 1.279 . S
C121 O122 1.315 . S
C121 O123 1.279 1_455 S
O122 Cd114 2.223 1_455 S
O122 C121 1.315 . S
O123 Cd113 2.240 1_655 S
O123 C121 1.279 1_655 S
O124 Cd114 2.297 . S
O124 C119 1.247 . S
O125 Cd114 2.439 . S
O125 C119 1.208 . S
O126 Cd127 2.223 . S
O126 C134 1.315 . S
Cd127 O126 2.223 . S
Cd127 O130 2.297 . S
Cd127 O131 2.439 . S
Cd127 O137 2.240 . S
Cd128 O129 2.240 . S
Cd128 O136 2.223 . S
Cd128 O138 2.297 . S
Cd128 O139 2.439 . S
O129 Cd128 2.240 . S
O129 C134 1.279 . S
O130 Cd127 2.297 . S
O130 C132 1.247 . S
O131 Cd127 2.439 . S
O131 C132 1.208 . S
C132 O130 1.247 . S
C132 O131 1.208 . S
C133 O138 1.247 . S
C133 O139 1.208 . S
C134 O126 1.315 . S
C134 O129 1.279 . S
C135 O136 1.315 . S
C135 O137 1.279 . S
O136 Cd128 2.223 . S
O136 C135 1.315 . S
O137 Cd127 2.240 . S
O137 C135 1.279 . S
O138 Cd128 2.297 . S
O138 C133 1.247 . S
O139 Cd128 2.439 . S
O139 C133 1.208 . S
O140 Cd141 2.223 . S
O140 C148 1.315 . S
Cd141 O140 2.223 . S
Cd141 O144 2.297 . S
Cd141 O145 2.439 . S
Cd141 O151 2.240 1_545 S
Cd142 O143 2.240 1_565 S
Cd142 O150 2.223 1_565 S
Cd142 O152 2.297 . S
Cd142 O153 2.439 . S
O143 Cd142 2.240 1_545 S
O143 C148 1.279 . S
O144 Cd141 2.297 . S
O144 C146 1.247 . S
O145 Cd141 2.439 . S
O145 C146 1.208 . S
C146 O144 1.247 . S
C146 O145 1.208 . S
C147 O152 1.247 . S
C147 O153 1.208 . S
C148 O140 1.315 . S
C148 O143 1.279 . S
C149 O150 1.315 . S
C149 O151 1.279 1_545 S
O150 Cd142 2.223 1_545 S
O150 C149 1.315 . S
O151 Cd141 2.240 1_565 S
O151 C149 1.279 1_565 S
O152 Cd142 2.297 . S
O152 C147 1.247 . S
O153 Cd142 2.439 . S
O153 C147 1.208 . S
O154 Cd155 2.223 . S
O154 C162 1.315 . S
Cd155 O154 2.223 . S
Cd155 O158 2.297 . S
Cd155 O159 2.439 . S
Cd155 O165 2.240 1_655 S
Cd156 O157 2.240 1_455 S
Cd156 O164 2.223 1_455 S
Cd156 O166 2.297 . S
Cd156 O167 2.439 . S
O157 Cd156 2.240 1_655 S
O157 C162 1.279 . S
O158 Cd155 2.297 . S
O158 C160 1.247 . S
O159 Cd155 2.439 . S
O159 C160 1.208 . S
C160 O158 1.247 . S
C160 O159 1.208 . S
C161 O166 1.247 . S
C161 O167 1.208 . S
C162 O154 1.315 . S
C162 O157 1.279 . S
C163 O164 1.315 . S
C163 O165 1.279 1_655 S
O164 Cd156 2.223 1_655 S
O164 C163 1.315 . S
O165 Cd155 2.240 1_455 S
O165 C163 1.279 1_455 S
O166 Cd156 2.297 . S
O166 C161 1.247 . S
O167 Cd156 2.439 . S
O167 C161 1.208 . S
O168 Cd169 2.223 . S
O168 C176 1.315 . S
Cd169 O168 2.223 . S
Cd169 O172 2.297 . S
Cd169 O173 2.439 . S
Cd169 O179 2.240 . S
Cd170 O171 2.240 . S
Cd170 O178 2.223 . S
Cd170 O180 2.297 . S
Cd170 O181 2.439 . S
O171 Cd170 2.240 . S
O171 C176 1.279 . S
O172 Cd169 2.297 . S
O172 C174 1.247 . S
O173 Cd169 2.439 . S
O173 C174 1.208 . S
C174 O172 1.247 . S
C174 O173 1.208 . S
C175 O180 1.247 . S
C175 O181 1.208 . S
C176 O168 1.315 . S
C176 O171 1.279 . S
C177 O178 1.315 . S
C177 O179 1.279 . S
O178 Cd170 2.223 . S
O178 C177 1.315 . S
O179 Cd169 2.240 . S
O179 C177 1.279 . S
O180 Cd170 2.297 . S
O180 C175 1.247 . S
O181 Cd170 2.439 . S
O181 C175 1.208 . S
O182 Cd183 2.223 . S
O182 C190 1.315 . S
Cd183 O182 2.223 . S
Cd183 O186 2.297 . S
Cd183 O187 2.439 . S
Cd183 O193 2.240 . S
Cd184 O185 2.240 . S
Cd184 O192 2.223 . S
Cd184 O194 2.297 . S
Cd184 O195 2.439 . S
O185 Cd184 2.240 . S
O185 C190 1.279 . S
O186 Cd183 2.297 . S
O186 C188 1.247 . S
O187 Cd183 2.439 . S
O187 C188 1.208 . S
C188 O186 1.247 . S
C188 O187 1.208 . S
C189 O194 1.247 . S
C189 O195 1.208 . S
C190 O182 1.315 . S
C190 O185 1.279 . S
C191 O192 1.315 . S
C191 O193 1.279 . S
O192 Cd184 2.223 . S
O192 C191 1.315 . S
O193 Cd183 2.240 . S
O193 C191 1.279 . S
O194 Cd184 2.297 . S
O194 C189 1.247 . S
O195 Cd184 2.439 . S
O195 C189 1.208 . S
O196 Cd197 2.223 . S
O196 C204 1.315 . S
Cd197 O196 2.223 . S
Cd197 O200 2.297 . S
Cd197 O201 2.439 . S
Cd197 O207 2.240 . S
Cd198 O199 2.240 . S
Cd198 O206 2.223 . S
Cd198 O208 2.297 . S
Cd198 O209 2.439 . S
O199 Cd198 2.240 . S
O199 C204 1.279 . S
O200 Cd197 2.297 . S
O200 C202 1.247 . S
O201 Cd197 2.439 . S
O201 C202 1.208 . S
C202 O200 1.247 . S
C202 O201 1.208 . S
C203 O208 1.247 . S
C203 O209 1.208 . S
C204 O196 1.315 . S
C204 O199 1.279 . S
C205 O206 1.315 . S
C205 O207 1.279 . S
O206 Cd198 2.223 . S
O206 C205 1.315 . S
O207 Cd197 2.240 . S
O207 C205 1.279 . S
O208 Cd198 2.297 . S
O208 C203 1.247 . S
O209 Cd198 2.439 . S
O209 C203 1.208 . S
O210 Cd211 2.223 . S
O210 C218 1.315 . S
Cd211 O210 2.223 . S
Cd211 O214 2.297 . S
Cd211 O215 2.439 . S
Cd211 O221 2.240 . S
Cd212 O213 2.240 . S
Cd212 O220 2.223 . S
Cd212 O222 2.297 . S
Cd212 O223 2.439 . S
O213 Cd212 2.240 . S
O213 C218 1.279 . S
O214 Cd211 2.297 . S
O214 C216 1.247 . S
O215 Cd211 2.439 . S
O215 C216 1.208 . S
C216 O214 1.247 . S
C216 O215 1.208 . S
C217 O222 1.247 . S
C217 O223 1.208 . S
C218 O210 1.315 . S
C218 O213 1.279 . S
C219 O220 1.315 . S
C219 O221 1.279 . S
O220 Cd212 2.223 . S
O220 C219 1.315 . S
O221 Cd211 2.240 . S
O221 C219 1.279 . S
O222 Cd212 2.297 . S
O222 C217 1.247 . S
O223 Cd212 2.439 . S
O223 C217 1.208 . S
O224 Cd225 2.223 . S
O224 C232 1.315 . S
Cd225 O224 2.223 . S
Cd225 O228 2.297 . S
Cd225 O229 2.439 . S
Cd225 O235 2.240 . S
Cd226 O227 2.240 . S
Cd226 O234 2.223 . S
Cd226 O236 2.297 . S
Cd226 O237 2.439 . S
O227 Cd226 2.240 . S
O227 C232 1.279 . S
O228 Cd225 2.297 . S
O228 C230 1.247 . S
O229 Cd225 2.439 . S
O229 C230 1.208 . S
C230 O228 1.247 . S
C230 O229 1.208 . S
C231 O236 1.247 . S
C231 O237 1.208 . S
C232 O224 1.315 . S
C232 O227 1.279 . S
C233 O234 1.315 . S
C233 O235 1.279 . S
O234 Cd226 2.223 . S
O234 C233 1.315 . S
O235 Cd225 2.240 . S
O235 C233 1.279 . S
O236 Cd226 2.297 . S
O236 C231 1.247 . S
O237 Cd226 2.439 . S
O237 C231 1.208 . S
O238 Cd239 2.223 . S
O238 C246 1.315 . S
Cd239 O238 2.223 . S
Cd239 O242 2.297 . S
Cd239 O243 2.439 . S
Cd239 O249 2.240 . S
Cd240 O241 2.240 . S
Cd240 O248 2.223 . S
Cd240 O250 2.297 . S
Cd240 O251 2.439 . S
O241 Cd240 2.240 . S
O241 C246 1.279 . S
O242 Cd239 2.297 . S
O242 C244 1.247 . S
O243 Cd239 2.439 . S
O243 C244 1.208 . S
C244 O242 1.247 . S
C244 O243 1.208 . S
C245 O250 1.247 . S
C245 O251 1.208 . S
C246 O238 1.315 . S
C246 O241 1.279 . S
C247 O248 1.315 . S
C247 O249 1.279 . S
O248 Cd240 2.223 . S
O248 C247 1.315 . S
O249 Cd239 2.240 . S
O249 C247 1.279 . S
O250 Cd240 2.297 . S
O250 C245 1.247 . S
O251 Cd240 2.439 . S
O251 C245 1.208 . S
O252 Cd253 2.223 . S
O252 C260 1.315 . S
Cd253 O252 2.223 . S
Cd253 O256 2.297 . S
Cd253 O257 2.439 . S
Cd253 O263 2.240 . S
Cd254 O255 2.240 . S
Cd254 O262 2.223 . S
Cd254 O264 2.297 . S
Cd254 O265 2.439 . S
O255 Cd254 2.240 . S
O255 C260 1.279 . S
O256 Cd253 2.297 . S
O256 C258 1.247 . S
O257 Cd253 2.439 . S
O257 C258 1.208 . S
C258 O256 1.247 . S
C258 O257 1.208 . S
C259 O264 1.247 . S
C259 O265 1.208 . S
C260 O252 1.315 . S
C260 O255 1.279 . S
C261 O262 1.315 . S
C261 O263 1.279 . S
O262 Cd254 2.223 . S
O262 C261 1.315 . S
O263 Cd253 2.240 . S
O263 C261 1.279 . S
O264 Cd254 2.297 . S
O264 C259 1.247 . S
O265 Cd254 2.439 . S
O265 C259 1.208 . S
O266 Cd267 2.223 . S
O266 C274 1.315 . S
Cd267 O266 2.223 . S
Cd267 O270 2.297 . S
Cd267 O271 2.439 . S
Cd267 O277 2.240 . S
Cd268 O269 2.240 . S
Cd268 O276 2.223 . S
Cd268 O278 2.297 . S
Cd268 O279 2.439 . S
O269 Cd268 2.240 . S
O269 C274 1.279 . S
O270 Cd267 2.297 . S
O270 C272 1.247 . S
O271 Cd267 2.439 . S
O271 C272 1.208 . S
C272 O270 1.247 . S
C272 O271 1.208 . S
C273 O278 1.247 . S
C273 O279 1.208 . S
C274 O266 1.315 . S
C274 O269 1.279 . S
C275 O276 1.315 . S
C275 O277 1.279 . S
O276 Cd268 2.223 . S
O276 C275 1.315 . S
O277 Cd267 2.240 . S
O277 C275 1.279 . S
O278 Cd268 2.297 . S
O278 C273 1.247 . S
O279 Cd268 2.439 . S
O279 C273 1.208 . S
O280 Cd281 2.223 . S
O280 C288 1.315 . S
Cd281 O280 2.223 . S
Cd281 O284 2.297 . S
Cd281 O285 2.439 . S
Cd281 O291 2.240 . S
Cd282 O283 2.240 . S
Cd282 O290 2.223 . S
Cd282 O292 2.297 . S
Cd282 O293 2.439 . S
O283 Cd282 2.240 . S
O283 C288 1.279 . S
O284 Cd281 2.297 . S
O284 C286 1.247 . S
O285 Cd281 2.439 . S
O285 C286 1.208 . S
C286 O284 1.247 . S
C286 O285 1.208 . S
C287 O292 1.247 . S
C287 O293 1.208 . S
C288 O280 1.315 . S
C288 O283 1.279 . S
C289 O290 1.315 . S
C289 O291 1.279 . S
O290 Cd282 2.223 . S
O290 C289 1.315 . S
O291 Cd281 2.240 . S
O291 C289 1.279 . S
O292 Cd282 2.297 . S
O292 C287 1.247 . S
O293 Cd282 2.439 . S
O293 C287 1.208 . S
O294 Cd295 2.223 . S
O294 C302 1.315 . S
Cd295 O294 2.223 . S
Cd295 O298 2.297 . S
Cd295 O299 2.439 . S
Cd295 O305 2.240 . S
Cd296 O297 2.240 . S
Cd296 O304 2.223 . S
Cd296 O306 2.297 . S
Cd296 O307 2.439 . S
O297 Cd296 2.240 . S
O297 C302 1.279 . S
O298 Cd295 2.297 . S
O298 C300 1.247 . S
O299 Cd295 2.439 . S
O299 C300 1.208 . S
C300 O298 1.247 . S
C300 O299 1.208 . S
C301 O306 1.247 . S
C301 O307 1.208 . S
C302 O294 1.315 . S
C302 O297 1.279 . S
C303 O304 1.315 . S
C303 O305 1.279 . S
O304 Cd296 2.223 . S
O304 C303 1.315 . S
O305 Cd295 2.240 . S
O305 C303 1.279 . S
O306 Cd296 2.297 . S
O306 C301 1.247 . S
O307 Cd296 2.439 . S
O307 C301 1.208 . S
O308 Cd309 2.223 . S
O308 C316 1.315 . S
Cd309 O308 2.223 . S
Cd309 O312 2.297 . S
Cd309 O313 2.439 . S
Cd309 O319 2.240 . S
Cd310 O311 2.240 . S
Cd310 O318 2.223 . S
Cd310 O320 2.297 . S
Cd310 O321 2.439 . S
O311 Cd310 2.240 . S
O311 C316 1.279 . S
O312 Cd309 2.297 . S
O312 C314 1.247 . S
O313 Cd309 2.439 . S
O313 C314 1.208 . S
C314 O312 1.247 . S
C314 O313 1.208 . S
C315 O320 1.247 . S
C315 O321 1.208 . S
C316 O308 1.315 . S
C316 O311 1.279 . S
C317 O318 1.315 . S
C317 O319 1.279 . S
O318 Cd310 2.223 . S
O318 C317 1.315 . S
O319 Cd309 2.240 . S
O319 C317 1.279 . S
O320 Cd310 2.297 . S
O320 C315 1.247 . S
O321 Cd310 2.439 . S
O321 C315 1.208 . S
O322 Cd323 2.223 . S
O322 C330 1.315 . S
Cd323 O322 2.223 . S
Cd323 O326 2.297 . S
Cd323 O327 2.439 . S
Cd323 O333 2.240 . S
Cd324 O325 2.240 . S
Cd324 O332 2.223 . S
Cd324 O334 2.297 . S
Cd324 O335 2.439 . S
O325 Cd324 2.240 . S
O325 C330 1.279 . S
O326 Cd323 2.297 . S
O326 C328 1.247 . S
O327 Cd323 2.439 . S
O327 C328 1.208 . S
C328 O326 1.247 . S
C328 O327 1.208 . S
C329 O334 1.247 . S
C329 O335 1.208 . S
C330 O322 1.315 . S
C330 O325 1.279 . S
C331 O332 1.315 . S
C331 O333 1.279 . S
O332 Cd324 2.223 . S
O332 C331 1.315 . S
O333 Cd323 2.240 . S
O333 C331 1.279 . S
O334 Cd324 2.297 . S
O334 C329 1.247 . S
O335 Cd324 2.439 . S
O335 C329 1.208 . S
O336 Cd337 2.223 . S
O336 C344 1.315 . S
Cd337 O336 2.223 . S
Cd337 O340 2.297 . S
Cd337 O341 2.439 . S
Cd337 O347 2.240 . S
Cd338 O339 2.240 . S
Cd338 O346 2.223 . S
Cd338 O348 2.297 . S
Cd338 O349 2.439 . S
O339 Cd338 2.240 . S
O339 C344 1.279 . S
O340 Cd337 2.297 . S
O340 C342 1.247 . S
O341 Cd337 2.439 . S
O341 C342 1.208 . S
C342 O340 1.247 . S
C342 O341 1.208 . S
C343 O348 1.247 . S
C343 O349 1.208 . S
C344 O336 1.315 . S
C344 O339 1.279 . S
C345 O346 1.315 . S
C345 O347 1.279 . S
O346 Cd338 2.223 . S
O346 C345 1.315 . S
O347 Cd337 2.240 . S
O347 C345 1.279 . S
O348 Cd338 2.297 . S
O348 C343 1.247 . S
O349 Cd338 2.439 . S
O349 C343 1.208 . S
O350 Cd351 2.223 . S
O350 C358 1.315 . S
Cd351 O350 2.223 . S
Cd351 O354 2.297 . S
Cd351 O355 2.439 . S
Cd351 O361 2.240 . S
Cd352 O353 2.240 . S
Cd352 O360 2.223 . S
Cd352 O362 2.297 . S
Cd352 O363 2.439 . S
O353 Cd352 2.240 . S
O353 C358 1.279 . S
O354 Cd351 2.297 . S
O354 C356 1.247 . S
O355 Cd351 2.439 . S
O355 C356 1.208 . S
C356 O354 1.247 . S
C356 O355 1.208 . S
C357 O362 1.247 . S
C357 O363 1.208 . S
C358 O350 1.315 . S
C358 O353 1.279 . S
C359 O360 1.315 . S
C359 O361 1.279 . S
O360 Cd352 2.223 . S
O360 C359 1.315 . S
O361 Cd351 2.240 . S
O361 C359 1.279 . S
O362 Cd352 2.297 . S
O362 C357 1.247 . S
O363 Cd352 2.439 . S
O363 C357 1.208 . S
O364 Cd365 2.223 . S
O364 C372 1.315 . S
Cd365 O364 2.223 . S
Cd365 O368 2.297 . S
Cd365 O369 2.439 . S
Cd365 O375 2.240 . S
Cd366 O367 2.240 . S
Cd366 O374 2.223 . S
Cd366 O376 2.297 . S
Cd366 O377 2.439 . S
O367 Cd366 2.240 . S
O367 C372 1.279 . S
O368 Cd365 2.297 . S
O368 C370 1.247 . S
O369 Cd365 2.439 . S
O369 C370 1.208 . S
C370 O368 1.247 . S
C370 O369 1.208 . S
C371 O376 1.247 . S
C371 O377 1.208 . S
C372 O364 1.315 . S
C372 O367 1.279 . S
C373 O374 1.315 . S
C373 O375 1.279 . S
O374 Cd366 2.223 . S
O374 C373 1.315 . S
O375 Cd365 2.240 . S
O375 C373 1.279 . S
O376 Cd366 2.297 . S
O376 C371 1.247 . S
O377 Cd366 2.439 . S
O377 C371 1.208 . S
O378 Cd379 2.223 . S
O378 C386 1.315 . S
Cd379 O378 2.223 . S
Cd379 O382 2.297 . S
Cd379 O383 2.439 . S
Cd379 O389 2.240 . S
Cd380 O381 2.240 . S
Cd380 O388 2.223 . S
Cd380 O390 2.297 . S
Cd380 O391 2.439 . S
O381 Cd380 2.240 . S
O381 C386 1.279 . S
O382 Cd379 2.297 . S
O382 C384 1.247 . S
O383 Cd379 2.439 . S
O383 C384 1.208 . S
C384 O382 1.247 . S
C384 O383 1.208 . S
C385 O390 1.247 . S
C385 O391 1.208 . S
C386 O378 1.315 . S
C386 O381 1.279 . S
C387 O388 1.315 . S
C387 O389 1.279 . S
O388 Cd380 2.223 . S
O388 C387 1.315 . S
O389 Cd379 2.240 . S
O389 C387 1.279 . S
O390 Cd380 2.297 . S
O390 C385 1.247 . S
O391 Cd380 2.439 . S
O391 C385 1.208 . S
O392 Cd393 2.223 . S
O392 C400 1.315 . S
Cd393 O392 2.223 . S
Cd393 O396 2.297 . S
Cd393 O397 2.439 . S
Cd393 O403 2.240 . S
Cd394 O395 2.240 . S
Cd394 O402 2.223 . S
Cd394 O404 2.297 . S
Cd394 O405 2.439 . S
O395 Cd394 2.240 . S
O395 C400 1.279 . S
O396 Cd393 2.297 . S
O396 C398 1.247 . S
O397 Cd393 2.439 . S
O397 C398 1.208 . S
C398 O396 1.247 . S
C398 O397 1.208 . S
C399 O404 1.247 . S
C399 O405 1.208 . S
C400 O392 1.315 . S
C400 O395 1.279 . S
C401 O402 1.315 . S
C401 O403 1.279 . S
O402 Cd394 2.223 . S
O402 C401 1.315 . S
O403 Cd393 2.240 . S
O403 C401 1.279 . S
O404 Cd394 2.297 . S
O404 C399 1.247 . S
O405 Cd394 2.439 . S
O405 C399 1.208 . S
O406 Cd407 2.223 . S
O406 C414 1.315 . S
Cd407 O406 2.223 . S
Cd407 O410 2.297 . S
Cd407 O411 2.439 . S
Cd407 O417 2.240 . S
Cd408 O409 2.240 . S
Cd408 O416 2.223 . S
Cd408 O418 2.297 . S
Cd408 O419 2.439 . S
O409 Cd408 2.240 . S
O409 C414 1.279 . S
O410 Cd407 2.297 . S
O410 C412 1.247 . S
O411 Cd407 2.439 . S
O411 C412 1.208 . S
C412 O410 1.247 . S
C412 O411 1.208 . S
C413 O418 1.247 . S
C413 O419 1.208 . S
C414 O406 1.315 . S
C414 O409 1.279 . S
C415 O416 1.315 . S
C415 O417 1.279 . S
O416 Cd408 2.223 . S
O416 C415 1.315 . S
O417 Cd407 2.240 . S
O417 C415 1.279 . S
O418 Cd408 2.297 . S
O418 C413 1.247 . S
O419 Cd408 2.439 . S
O419 C413 1.208 . S
O420 Cd421 2.223 . S
O420 C428 1.315 . S
Cd421 O420 2.223 . S
Cd421 O424 2.297 . S
Cd421 O425 2.439 . S
Cd421 O431 2.240 . S
Cd422 O423 2.240 . S
Cd422 O430 2.223 . S
Cd422 O432 2.297 . S
Cd422 O433 2.439 . S
O423 Cd422 2.240 . S
O423 C428 1.279 . S
O424 Cd421 2.297 . S
O424 C426 1.247 . S
O425 Cd421 2.439 . S
O425 C426 1.208 . S
C426 O424 1.247 . S
C426 O425 1.208 . S
C427 O432 1.247 . S
C427 O433 1.208 . S
C428 O420 1.315 . S
C428 O423 1.279 . S
C429 O430 1.315 . S
C429 O431 1.279 . S
O430 Cd422 2.223 . S
O430 C429 1.315 . S
O431 Cd421 2.240 . S
O431 C429 1.279 . S
O432 Cd422 2.297 . S
O432 C427 1.247 . S
O433 Cd422 2.439 . S
O433 C427 1.208 . S
O434 Cd435 2.223 . S
O434 C442 1.315 . S
Cd435 O434 2.223 . S
Cd435 O438 2.297 . S
Cd435 O439 2.439 . S
Cd435 O445 2.240 . S
Cd436 O437 2.240 . S
Cd436 O444 2.223 . S
Cd436 O446 2.297 . S
Cd436 O447 2.439 . S
O437 Cd436 2.240 . S
O437 C442 1.279 . S
O438 Cd435 2.297 . S
O438 C440 1.247 . S
O439 Cd435 2.439 . S
O439 C440 1.208 . S
C440 O438 1.247 . S
C440 O439 1.208 . S
C441 O446 1.247 . S
C441 O447 1.208 . S
C442 O434 1.315 . S
C442 O437 1.279 . S
C443 O444 1.315 . S
C443 O445 1.279 . S
O444 Cd436 2.223 . S
O444 C443 1.315 . S
O445 Cd435 2.240 . S
O445 C443 1.279 . S
O446 Cd436 2.297 . S
O446 C441 1.247 . S
O447 Cd436 2.439 . S
O447 C441 1.208 . S
O448 Cd449 2.223 . S
O448 C456 1.315 . S
Cd449 O448 2.223 . S
Cd449 O452 2.297 . S
Cd449 O453 2.439 . S
Cd449 O459 2.240 . S
Cd450 O451 2.240 . S
Cd450 O458 2.223 . S
Cd450 O460 2.297 . S
Cd450 O461 2.439 . S
O451 Cd450 2.240 . S
O451 C456 1.279 . S
O452 Cd449 2.297 . S
O452 C454 1.247 . S
O453 Cd449 2.439 . S
O453 C454 1.208 . S
C454 O452 1.247 . S
C454 O453 1.208 . S
C455 O460 1.247 . S
C455 O461 1.208 . S
C456 O448 1.315 . S
C456 O451 1.279 . S
C457 O458 1.315 . S
C457 O459 1.279 . S
O458 Cd450 2.223 . S
O458 C457 1.315 . S
O459 Cd449 2.240 . S
O459 C457 1.279 . S
O460 Cd450 2.297 . S
O460 C455 1.247 . S
O461 Cd450 2.439 . S
O461 C455 1.208 . S
O462 Cd463 2.223 . S
O462 C470 1.315 . S
Cd463 O462 2.223 . S
Cd463 O466 2.297 . S
Cd463 O467 2.439 . S
Cd463 O473 2.240 . S
Cd464 O465 2.240 . S
Cd464 O472 2.223 . S
Cd464 O474 2.297 . S
Cd464 O475 2.439 . S
O465 Cd464 2.240 . S
O465 C470 1.279 . S
O466 Cd463 2.297 . S
O466 C468 1.247 . S
O467 Cd463 2.439 . S
O467 C468 1.208 . S
C468 O466 1.247 . S
C468 O467 1.208 . S
C469 O474 1.247 . S
C469 O475 1.208 . S
C470 O462 1.315 . S
C470 O465 1.279 . S
C471 O472 1.315 . S
C471 O473 1.279 . S
O472 Cd464 2.223 . S
O472 C471 1.315 . S
O473 Cd463 2.240 . S
O473 C471 1.279 . S
O474 Cd464 2.297 . S
O474 C469 1.247 . S
O475 Cd464 2.439 . S
O475 C469 1.208 . S
O476 Cd477 2.223 . S
O476 C484 1.315 . S
Cd477 O476 2.223 . S
Cd477 O480 2.297 . S
Cd477 O481 2.439 . S
Cd477 O487 2.240 . S
Cd478 O479 2.240 . S
Cd478 O486 2.223 . S
Cd478 O488 2.297 . S
Cd478 O489 2.439 . S
O479 Cd478 2.240 . S
O479 C484 1.279 . S
O480 Cd477 2.297 . S
O480 C482 1.247 . S
O481 Cd477 2.439 . S
O481 C482 1.208 . S
C482 O480 1.247 . S
C482 O481 1.208 . S
C483 O488 1.247 . S
C483 O489 1.208 . S
C484 O476 1.315 . S
C484 O479 1.279 . S
C485 O486 1.315 . S
C485 O487 1.279 . S
O486 Cd478 2.223 . S
O486 C485 1.315 . S
O487 Cd477 2.240 . S
O487 C485 1.279 . S
O488 Cd478 2.297 . S
O488 C483 1.247 . S
O489 Cd478 2.439 . S
O489 C483 1.208 . S
O490 Cd491 2.223 . S
O490 C498 1.315 . S
Cd491 O490 2.223 . S
Cd491 O494 2.297 . S
Cd491 O495 2.439 . S
Cd491 O501 2.240 . S
Cd492 O493 2.240 . S
Cd492 O500 2.223 . S
Cd492 O502 2.297 . S
Cd492 O503 2.439 . S
O493 Cd492 2.240 . S
O493 C498 1.279 . S
O494 Cd491 2.297 . S
O494 C496 1.247 . S
O495 Cd491 2.439 . S
O495 C496 1.208 . S
C496 O494 1.247 . S
C496 O495 1.208 . S
C497 O502 1.247 . S
C497 O503 1.208 . S
C498 O490 1.315 . S
C498 O493 1.279 . S
C499 O500 1.315 . S
C499 O501 1.279 . S
O500 Cd492 2.223 . S
O500 C499 1.315 . S
O501 Cd491 2.240 . S
O501 C499 1.279 . S
O502 Cd492 2.297 . S
O502 C497 1.247 . S
O503 Cd492 2.439 . S
O503 C497 1.208 . S
H504 C510 0.930 . S
H505 C513 0.930 . S
H506 C514 0.930 . S
H507 C515 0.930 . S
H508 C518 0.930 . S
H509 C519 0.930 . S
C510 H504 0.930 . S
C510 C511 1.355 . S
C510 C512 1.415 . S
C511 C510 1.355 . S
C511 C513 1.419 . S
C512 C510 1.415 . S
C512 C517 1.425 . S
C512 C519 1.409 . S
C513 H505 0.930 . S
C513 C511 1.419 . S
C513 C514 1.362 . S
C514 H506 0.930 . S
C514 C513 1.362 . S
C514 C517 1.409 . S
C515 H507 0.930 . S
C515 C516 1.355 . S
C515 C517 1.415 . S
C516 C515 1.355 . S
C516 C518 1.419 . S
C517 C512 1.425 . S
C517 C514 1.409 . S
C517 C515 1.415 . S
C518 H508 0.930 . S
C518 C516 1.419 . S
C518 C519 1.362 . S
C519 H509 0.930 . S
C519 C512 1.409 . S
C519 C518 1.362 . S
H520 C526 0.930 . S
H521 C529 0.930 . S
H522 C530 0.930 . S
H523 C531 0.930 . S
H524 C534 0.930 . S
H525 C535 0.930 . S
C526 H520 0.930 . S
C526 C527 1.355 . S
C526 C528 1.415 . S
C527 C526 1.355 . S
C527 C529 1.419 . S
C528 C526 1.415 . S
C528 C533 1.425 . S
C528 C535 1.409 . S
C529 H521 0.930 . S
C529 C527 1.419 . S
C529 C530 1.362 . S
C530 H522 0.930 . S
C530 C529 1.362 . S
C530 C533 1.409 . S
C531 H523 0.930 . S
C531 C532 1.355 . S
C531 C533 1.415 . S
C532 C531 1.355 . S
C532 C534 1.419 . S
C533 C528 1.425 . S
C533 C530 1.409 . S
C533 C531 1.415 . S
C534 H524 0.930 . S
C534 C532 1.419 . S
C534 C535 1.362 . S
C535 H525 0.930 . S
C535 C528 1.409 . S
C535 C534 1.362 . S
H536 C542 0.930 . S
H537 C545 0.930 . S
H538 C546 0.930 . S
H539 C547 0.930 . S
H540 C550 0.930 . S
H541 C551 0.930 . S
C542 H536 0.930 . S
C542 C543 1.355 . S
C542 C544 1.415 . S
C543 C542 1.355 . S
C543 C545 1.419 . S
C544 C542 1.415 . S
C544 C549 1.425 . S
C544 C551 1.409 . S
C545 H537 0.930 . S
C545 C543 1.419 . S
C545 C546 1.362 . S
C546 H538 0.930 . S
C546 C545 1.362 . S
C546 C549 1.409 . S
C547 H539 0.930 . S
C547 C548 1.355 . S
C547 C549 1.415 . S
C548 C547 1.355 . S
C548 C550 1.419 . S
C549 C544 1.425 . S
C549 C546 1.409 . S
C549 C547 1.415 . S
C550 H540 0.930 . S
C550 C548 1.419 . S
C550 C551 1.362 . S
C551 H541 0.930 . S
C551 C544 1.409 . S
C551 C550 1.362 . S
H552 C558 0.930 . S
H553 C561 0.930 . S
H554 C562 0.930 . S
H555 C563 0.930 . S
H556 C566 0.930 . S
H557 C567 0.930 . S
C558 H552 0.930 . S
C558 C559 1.355 . S
C558 C560 1.415 . S
C559 C558 1.355 . S
C559 C561 1.419 . S
C560 C558 1.415 . S
C560 C565 1.425 . S
C560 C567 1.409 . S
C561 H553 0.930 . S
C561 C559 1.419 . S
C561 C562 1.362 . S
C562 H554 0.930 . S
C562 C561 1.362 . S
C562 C565 1.409 . S
C563 H555 0.930 . S
C563 C564 1.355 . S
C563 C565 1.415 . S
C564 C563 1.355 . S
C564 C566 1.419 . S
C565 C560 1.425 . S
C565 C562 1.409 . S
C565 C563 1.415 . S
C566 H556 0.930 . S
C566 C564 1.419 . S
C566 C567 1.362 . S
C567 H557 0.930 . S
C567 C560 1.409 . S
C567 C566 1.362 . S
H568 C574 0.930 . S
H569 C577 0.930 . S
H570 C578 0.930 . S
H571 C579 0.930 . S
H572 C582 0.930 . S
H573 C583 0.930 . S
C574 H568 0.930 . S
C574 C575 1.355 . S
C574 C576 1.415 . S
C575 C574 1.355 . S
C575 C577 1.419 . S
C576 C574 1.415 . S
C576 C581 1.425 . S
C576 C583 1.409 . S
C577 H569 0.930 . S
C577 C575 1.419 . S
C577 C578 1.362 . S
C578 H570 0.930 . S
C578 C577 1.362 . S
C578 C581 1.409 . S
C579 H571 0.930 . S
C579 C580 1.355 . S
C579 C581 1.415 . S
C580 C579 1.355 . S
C580 C582 1.419 . S
C581 C576 1.425 . S
C581 C578 1.409 . S
C581 C579 1.415 . S
C582 H572 0.930 . S
C582 C580 1.419 . S
C582 C583 1.362 . S
C583 H573 0.930 . S
C583 C576 1.409 . S
C583 C582 1.362 . S
H584 C590 0.930 . S
H585 C593 0.930 . S
H586 C594 0.930 . S
H587 C595 0.930 . S
H588 C598 0.930 . S
H589 C599 0.930 . S
C590 H584 0.930 . S
C590 C591 1.355 . S
C590 C592 1.415 . S
C591 C590 1.355 . S
C591 C593 1.419 . S
C592 C590 1.415 . S
C592 C597 1.425 . S
C592 C599 1.409 . S
C593 H585 0.930 . S
C593 C591 1.419 . S
C593 C594 1.362 . S
C594 H586 0.930 . S
C594 C593 1.362 . S
C594 C597 1.409 . S
C595 H587 0.930 . S
C595 C596 1.355 . S
C595 C597 1.415 . S
C596 C595 1.355 . S
C596 C598 1.419 . S
C597 C592 1.425 . S
C597 C594 1.409 . S
C597 C595 1.415 . S
C598 H588 0.930 . S
C598 C596 1.419 . S
C598 C599 1.362 . S
C599 H589 0.930 . S
C599 C592 1.409 . S
C599 C598 1.362 . S
H600 C606 0.930 . S
H601 C609 0.930 . S
H602 C610 0.930 . S
H603 C611 0.930 . S
H604 C614 0.930 . S
H605 C615 0.930 . S
C606 H600 0.930 . S
C606 C607 1.355 . S
C606 C608 1.415 . S
C607 C606 1.355 . S
C607 C609 1.419 . S
C608 C606 1.415 . S
C608 C613 1.425 . S
C608 C615 1.409 . S
C609 H601 0.930 . S
C609 C607 1.419 . S
C609 C610 1.362 . S
C610 H602 0.930 . S
C610 C609 1.362 . S
C610 C613 1.409 . S
C611 H603 0.930 . S
C611 C612 1.355 . S
C611 C613 1.415 . S
C612 C611 1.355 . S
C612 C614 1.419 . S
C613 C608 1.425 . S
C613 C610 1.409 . S
C613 C611 1.415 . S
C614 H604 0.930 . S
C614 C612 1.419 . S
C614 C615 1.362 . S
C615 H605 0.930 . S
C615 C608 1.409 . S
C615 C614 1.362 . S
H616 C622 0.930 . S
H617 C625 0.930 . S
H618 C626 0.930 . S
H619 C627 0.930 . S
H620 C630 0.930 1_545 S
H621 C631 0.930 . S
C622 H616 0.930 . S
C622 C623 1.355 . S
C622 C624 1.415 . S
C623 C622 1.355 . S
C623 C625 1.419 . S
C624 C622 1.415 . S
C624 C629 1.425 . S
C624 C631 1.409 . S
C625 H617 0.930 . S
C625 C623 1.419 . S
C625 C626 1.362 . S
C626 H618 0.930 . S
C626 C625 1.362 . S
C626 C629 1.409 . S
C627 H619 0.930 . S
C627 C628 1.355 . S
C627 C629 1.415 . S
C628 C627 1.355 . S
C628 C630 1.419 . S
C629 C624 1.425 . S
C629 C626 1.409 . S
C629 C627 1.415 . S
C630 H620 0.930 1_565 S
C630 C628 1.419 . S
C630 C631 1.362 . S
C631 H621 0.930 . S
C631 C624 1.409 . S
C631 C630 1.362 . S
H632 C638 0.930 . S
H633 C641 0.930 . S
H634 C642 0.930 . S
H635 C643 0.930 . S
H636 C646 0.930 . S
H637 C647 0.930 . S
C638 H632 0.930 . S
C638 C639 1.355 . S
C638 C640 1.415 . S
C639 C638 1.355 . S
C639 C641 1.419 . S
C640 C638 1.415 . S
C640 C645 1.425 . S
C640 C647 1.409 . S
C641 H633 0.930 . S
C641 C639 1.419 . S
C641 C642 1.362 . S
C642 H634 0.930 . S
C642 C641 1.362 . S
C642 C645 1.409 . S
C643 H635 0.930 . S
C643 C644 1.355 . S
C643 C645 1.415 . S
C644 C643 1.355 . S
C644 C646 1.419 . S
C645 C640 1.425 . S
C645 C642 1.409 . S
C645 C643 1.415 . S
C646 H636 0.930 . S
C646 C644 1.419 . S
C646 C647 1.362 . S
C647 H637 0.930 . S
C647 C640 1.409 . S
C647 C646 1.362 . S
H648 C654 0.930 . S
H649 C657 0.930 . S
H650 C658 0.930 . S
H651 C659 0.930 . S
H652 C662 0.930 . S
H653 C663 0.930 . S
C654 H648 0.930 . S
C654 C655 1.355 . S
C654 C656 1.415 . S
C655 C654 1.355 . S
C655 C657 1.419 . S
C656 C654 1.415 . S
C656 C661 1.425 . S
C656 C663 1.409 . S
C657 H649 0.930 . S
C657 C655 1.419 . S
C657 C658 1.362 . S
C658 H650 0.930 . S
C658 C657 1.362 . S
C658 C661 1.409 . S
C659 H651 0.930 . S
C659 C660 1.355 . S
C659 C661 1.415 . S
C660 C659 1.355 . S
C660 C662 1.419 . S
C661 C656 1.425 . S
C661 C658 1.409 . S
C661 C659 1.415 . S
C662 H652 0.930 . S
C662 C660 1.419 . S
C662 C663 1.362 . S
C663 H653 0.930 . S
C663 C656 1.409 . S
C663 C662 1.362 . S
H664 C670 0.930 . S
H665 C673 0.930 . S
H666 C674 0.930 . S
H667 C675 0.930 . S
H668 C678 0.930 . S
H669 C679 0.930 . S
C670 H664 0.930 . S
C670 C671 1.355 . S
C670 C672 1.415 . S
C671 C670 1.355 . S
C671 C673 1.419 . S
C672 C670 1.415 . S
C672 C677 1.425 . S
C672 C679 1.409 . S
C673 H665 0.930 . S
C673 C671 1.419 . S
C673 C674 1.362 . S
C674 H666 0.930 . S
C674 C673 1.362 . S
C674 C677 1.409 . S
C675 H667 0.930 . S
C675 C676 1.355 . S
C675 C677 1.415 . S
C676 C675 1.355 . S
C676 C678 1.419 . S
C677 C672 1.425 . S
C677 C674 1.409 . S
C677 C675 1.415 . S
C678 H668 0.930 . S
C678 C676 1.419 . S
C678 C679 1.362 . S
C679 H669 0.930 . S
C679 C672 1.409 . S
C679 C678 1.362 . S
H680 C686 0.930 . S
H681 C689 0.930 . S
H682 C690 0.930 . S
H683 C691 0.930 . S
H684 C694 0.930 . S
H685 C695 0.930 . S
C686 H680 0.930 . S
C686 C687 1.355 . S
C686 C688 1.415 . S
C687 C686 1.355 . S
C687 C689 1.419 . S
C688 C686 1.415 . S
C688 C693 1.425 . S
C688 C695 1.409 . S
C689 H681 0.930 . S
C689 C687 1.419 . S
C689 C690 1.362 . S
C690 H682 0.930 . S
C690 C689 1.362 . S
C690 C693 1.409 . S
C691 H683 0.930 . S
C691 C692 1.355 . S
C691 C693 1.415 . S
C692 C691 1.355 . S
C692 C694 1.419 . S
C693 C688 1.425 . S
C693 C690 1.409 . S
C693 C691 1.415 . S
C694 H684 0.930 . S
C694 C692 1.419 . S
C694 C695 1.362 . S
C695 H685 0.930 . S
C695 C688 1.409 . S
C695 C694 1.362 . S
H696 C702 0.930 . S
H697 C705 0.930 . S
H698 C706 0.930 . S
H699 C707 0.930 . S
H700 C710 0.930 . S
H701 C711 0.930 . S
C702 H696 0.930 . S
C702 C703 1.355 . S
C702 C704 1.387 1_455 S
C703 C702 1.355 . S
C703 C705 1.419 . S
C704 C702 1.387 1_655 S
C704 C709 1.412 1_655 S
C704 C711 1.445 . S
C705 H697 0.930 . S
C705 C703 1.419 . S
C705 C706 1.362 . S
C706 H698 0.930 . S
C706 C705 1.362 . S
C706 C709 1.445 . S
C707 H699 0.930 . S
C707 C708 1.355 . S
C707 C709 1.387 1_655 S
C708 C707 1.355 . S
C708 C710 1.419 . S
C709 C704 1.412 1_455 S
C709 C706 1.445 . S
C709 C707 1.387 1_455 S
C710 H700 0.930 . S
C710 C708 1.419 . S
C710 C711 1.362 . S
C711 H701 0.930 . S
C711 C704 1.445 . S
C711 C710 1.362 . S
H712 C718 0.930 . S
H713 C721 0.930 . S
H714 C722 0.930 . S
H715 C723 0.930 . S
H716 C726 0.930 . S
H717 C727 0.930 . S
C718 H712 0.930 . S
C718 C719 1.355 . S
C718 C720 1.415 . S
C719 C718 1.355 . S
C719 C721 1.419 . S
C720 C718 1.415 . S
C720 C725 1.425 . S
C720 C727 1.409 . S
C721 H713 0.930 . S
C721 C719 1.419 . S
C721 C722 1.362 . S
C722 H714 0.930 . S
C722 C721 1.362 . S
C722 C725 1.409 . S
C723 H715 0.930 . S
C723 C724 1.355 . S
C723 C725 1.415 . S
C724 C723 1.355 . S
C724 C726 1.419 . S
C725 C720 1.425 . S
C725 C722 1.409 . S
C725 C723 1.415 . S
C726 H716 0.930 . S
C726 C724 1.419 . S
C726 C727 1.362 . S
C727 H717 0.930 . S
C727 C720 1.409 . S
C727 C726 1.362 . S
H728 C734 0.930 . S
H729 C737 0.930 . S
H730 C738 0.930 1_545 S
H731 C739 0.930 . S
H732 C742 0.930 . S
H733 C743 0.930 1_565 S
C734 H728 0.930 . S
C734 C735 1.355 . S
C734 C736 1.415 . S
C735 C734 1.355 . S
C735 C737 1.419 . S
C736 C734 1.415 . S
C736 C741 1.425 1_565 S
C736 C743 1.409 1_565 S
C737 H729 0.930 . S
C737 C735 1.419 . S
C737 C738 1.362 . S
C738 H730 0.930 1_565 S
C738 C737 1.362 . S
C738 C741 1.409 1_565 S
C739 H731 0.930 . S
C739 C740 1.355 . S
C739 C741 1.415 . S
C740 C739 1.355 . S
C740 C742 1.419 . S
C741 C736 1.425 1_545 S
C741 C738 1.409 1_545 S
C741 C739 1.415 . S
C742 H732 0.930 . S
C742 C740 1.419 . S
C742 C743 1.362 . S
C743 H733 0.930 1_545 S
C743 C736 1.409 1_545 S
C743 C742 1.362 . S
H744 C750 0.930 . S
H745 C753 0.930 . S
H746 C754 0.930 1_545 S
H747 C755 0.930 . S
H748 C758 0.930 . S
H749 C759 0.930 1_565 S
C750 H744 0.930 . S
C750 C751 1.355 . S
C750 C752 1.415 . S
C751 C750 1.355 . S
C751 C753 1.419 . S
C752 C750 1.415 . S
C752 C757 1.425 1_565 S
C752 C759 1.409 1_565 S
C753 H745 0.930 . S
C753 C751 1.419 . S
C753 C754 1.362 . S
C754 H746 0.930 1_565 S
C754 C753 1.362 . S
C754 C757 1.409 1_565 S
C755 H747 0.930 . S
C755 C756 1.355 . S
C755 C757 1.415 . S
C756 C755 1.355 . S
C756 C758 1.419 . S
C757 C752 1.425 1_545 S
C757 C754 1.409 1_545 S
C757 C755 1.415 . S
C758 H748 0.930 . S
C758 C756 1.419 . S
C758 C759 1.362 . S
C759 H749 0.930 1_545 S
C759 C752 1.409 1_545 S
C759 C758 1.362 . S
H760 C766 0.930 . S
H761 C769 0.930 . S
H762 C770 0.930 . S
H763 C771 0.930 . S
H764 C774 0.930 . S
H765 C775 0.930 . S
C766 H760 0.930 . S
C766 C767 1.355 . S
C766 C768 1.398 1_455 S
C767 C766 1.355 . S
C767 C769 1.419 . S
C768 C766 1.398 1_655 S
C768 C773 1.415 1_655 S
C768 C775 1.431 . S
C769 H761 0.930 . S
C769 C767 1.419 . S
C769 C770 1.362 . S
C770 H762 0.930 . S
C770 C769 1.362 . S
C770 C773 1.431 . S
C771 H763 0.930 . S
C771 C772 1.355 . S
C771 C773 1.398 1_655 S
C772 C771 1.355 . S
C772 C774 1.419 . S
C773 C768 1.415 1_455 S
C773 C770 1.431 . S
C773 C771 1.398 1_455 S
C774 H764 0.930 . S
C774 C772 1.419 . S
C774 C775 1.362 . S
C775 H765 0.930 . S
C775 C768 1.431 . S
C775 C774 1.362 . S
H776 C782 0.930 . S
H777 C785 0.930 . S
H778 C786 0.930 . S
H779 C787 0.930 . S
H780 C790 0.930 . S
H781 C791 0.930 . S
C782 H776 0.930 . S
C782 C783 1.355 . S
C782 C784 1.415 . S
C783 C782 1.355 . S
C783 C785 1.419 . S
C784 C782 1.415 . S
C784 C789 1.425 . S
C784 C791 1.409 . S
C785 H777 0.930 . S
C785 C783 1.419 . S
C785 C786 1.362 . S
C786 H778 0.930 . S
C786 C785 1.362 . S
C786 C789 1.409 . S
C787 H779 0.930 . S
C787 C788 1.355 . S
C787 C789 1.415 . S
C788 C787 1.355 . S
C788 C790 1.419 . S
C789 C784 1.425 . S
C789 C786 1.409 . S
C789 C787 1.415 . S
C790 H780 0.930 . S
C790 C788 1.419 . S
C790 C791 1.362 . S
C791 H781 0.930 . S
C791 C784 1.409 . S
C791 C790 1.362 . S
H792 C798 0.930 . S
H793 C801 0.930 . S
H794 C802 0.930 . S
H795 C803 0.930 . S
H796 C806 0.930 . S
H797 C807 0.930 . S
C798 H792 0.930 . S
C798 C799 1.355 1_554 S
C798 C800 1.415 . S
C799 C798 1.355 1_556 S
C799 C801 1.419 . S
C800 C798 1.415 . S
C800 C805 1.425 . S
C800 C807 1.409 . S
C801 H793 0.930 . S
C801 C799 1.419 . S
C801 C802 1.362 . S
C802 H794 0.930 . S
C802 C801 1.362 . S
C802 C805 1.409 1_556 S
C803 H795 0.930 . S
C803 C804 1.355 . S
C803 C805 1.415 . S
C804 C803 1.355 . S
C804 C806 1.419 . S
C805 C800 1.425 . S
C805 C802 1.409 1_554 S
C805 C803 1.415 . S
C806 H796 0.930 . S
C806 C804 1.419 . S
C806 C807 1.362 . S
C807 H797 0.930 . S
C807 C800 1.409 . S
C807 C806 1.362 . S
H808 C814 0.930 . S
H809 C817 0.928 1_556 S
H810 C818 0.930 . S
H811 C819 0.930 . S
H812 C822 0.930 . S
H813 C823 0.929 . S
C814 H808 0.930 . S
C814 C815 1.355 . S
C814 C816 1.415 1_556 S
C815 C814 1.355 . S
C815 C817 1.419 1_556 S
C816 C814 1.415 1_554 S
C816 C821 1.425 . S
C816 C823 1.409 . S
C817 H809 0.928 1_554 S
C817 C815 1.419 1_554 S
C817 C818 1.362 . S
C818 H810 0.930 . S
C818 C817 1.362 . S
C818 C821 1.409 . S
C819 H811 0.930 . S
C819 C820 1.355 . S
C819 C821 1.415 . S
C820 C819 1.355 . S
C820 C822 1.419 . S
C821 C816 1.425 . S
C821 C818 1.409 . S
C821 C819 1.415 . S
C822 H812 0.930 . S
C822 C820 1.419 . S
C822 C823 1.362 . S
C823 H813 0.929 . S
C823 C816 1.409 . S
C823 C822 1.362 . S
H824 C830 0.930 . S
H825 C833 0.930 . S
H826 C834 0.930 . S
H827 C835 0.930 . S
H828 C838 0.930 . S
H829 C839 0.930 . S
C830 H824 0.930 . S
C830 C831 1.355 . S
C830 C832 1.415 . S
C831 C830 1.355 . S
C831 C833 1.419 1_556 S
C832 C830 1.415 . S
C832 C837 1.425 1_556 S
C832 C839 1.409 . S
C833 H825 0.930 . S
C833 C831 1.419 1_554 S
C833 C834 1.362 . S
C834 H826 0.930 . S
C834 C833 1.362 . S
C834 C837 1.409 . S
C835 H827 0.930 . S
C835 C836 1.355 . S
C835 C837 1.415 . S
C836 C835 1.355 . S
C836 C838 1.419 1_554 S
C837 C832 1.425 1_554 S
C837 C834 1.409 . S
C837 C835 1.415 . S
C838 H828 0.930 . S
C838 C836 1.419 1_556 S
C838 C839 1.362 . S
C839 H829 0.930 . S
C839 C832 1.409 . S
C839 C838 1.362 . S
H840 C846 0.930 . S
H841 C849 0.930 . S
H842 C850 0.930 . S
H843 C851 0.930 . S
H844 C854 0.930 . S
H845 C855 0.930 . S
C846 H840 0.930 . S
C846 C847 1.355 . S
C846 C848 1.415 . S
C847 C846 1.355 . S
C847 C849 1.419 . S
C848 C846 1.415 . S
C848 C853 1.425 . S
C848 C855 1.409 . S
C849 H841 0.930 . S
C849 C847 1.419 . S
C849 C850 1.362 . S
C850 H842 0.930 . S
C850 C849 1.362 . S
C850 C853 1.409 . S
C851 H843 0.930 . S
C851 C852 1.355 . S
C851 C853 1.415 . S
C852 C851 1.355 . S
C852 C854 1.419 . S
C853 C848 1.425 . S
C853 C850 1.409 . S
C853 C851 1.415 . S
C854 H844 0.930 . S
C854 C852 1.419 . S
C854 C855 1.362 . S
C855 H845 0.930 . S
C855 C848 1.409 . S
C855 C854 1.362 . S
H856 C862 0.930 . S
H857 C865 0.930 . S
H858 C866 0.930 . S
H859 C867 0.930 . S
H860 C870 0.930 . S
H861 C871 0.930 . S
C862 H856 0.930 . S
C862 C863 1.355 . S
C862 C864 1.415 . S
C863 C862 1.355 . S
C863 C865 1.419 . S
C864 C862 1.415 . S
C864 C869 1.425 . S
C864 C871 1.409 . S
C865 H857 0.930 . S
C865 C863 1.419 . S
C865 C866 1.362 . S
C866 H858 0.930 . S
C866 C865 1.362 . S
C866 C869 1.409 . S
C867 H859 0.930 . S
C867 C868 1.355 . S
C867 C869 1.415 . S
C868 C867 1.355 . S
C868 C870 1.419 . S
C869 C864 1.425 . S
C869 C866 1.409 . S
C869 C867 1.415 . S
C870 H860 0.930 . S
C870 C868 1.419 . S
C870 C871 1.362 . S
C871 H861 0.930 . S
C871 C864 1.409 . S
C871 C870 1.362 . S
H872 C878 0.930 . S
H873 C881 0.930 . S
H874 C882 0.930 . S
H875 C883 0.930 . S
H876 C886 0.930 . S
H877 C887 0.930 . S
C878 H872 0.930 . S
C878 C879 1.355 . S
C878 C880 1.415 . S
C879 C878 1.355 . S
C879 C881 1.419 . S
C880 C878 1.415 . S
C880 C885 1.425 . S
C880 C887 1.409 . S
C881 H873 0.930 . S
C881 C879 1.419 . S
C881 C882 1.362 . S
C882 H874 0.930 . S
C882 C881 1.362 . S
C882 C885 1.409 . S
C883 H875 0.930 . S
C883 C884 1.355 . S
C883 C885 1.415 . S
C884 C883 1.355 . S
C884 C886 1.419 . S
C885 C880 1.425 . S
C885 C882 1.409 . S
C885 C883 1.415 . S
C886 H876 0.930 . S
C886 C884 1.419 . S
C886 C887 1.362 . S
C887 H877 0.930 . S
C887 C880 1.409 . S
C887 C886 1.362 . S
H888 C894 0.930 . S
H889 C897 0.930 . S
H890 C898 0.930 . S
H891 C899 0.930 . S
H892 C902 0.930 . S
H893 C903 0.930 . S
C894 H888 0.930 . S
C894 C895 1.355 1_556 S
C894 C896 1.415 . S
C895 C894 1.355 1_554 S
C895 C897 1.419 . S
C896 C894 1.415 . S
C896 C901 1.425 . S
C896 C903 1.409 . S
C897 H889 0.930 . S
C897 C895 1.419 . S
C897 C898 1.362 . S
C898 H890 0.930 . S
C898 C897 1.362 . S
C898 C901 1.409 1_554 S
C899 H891 0.930 . S
C899 C900 1.355 . S
C899 C901 1.415 . S
C900 C899 1.355 . S
C900 C902 1.419 . S
C901 C896 1.425 . S
C901 C898 1.409 1_556 S
C901 C899 1.415 . S
C902 H892 0.930 . S
C902 C900 1.419 . S
C902 C903 1.362 . S
C903 H893 0.930 . S
C903 C896 1.409 . S
C903 C902 1.362 . S
H904 C910 0.930 . S
H905 C913 0.930 . S
H906 C914 0.930 . S
H907 C915 0.930 . S
H908 C918 0.930 . S
H909 C919 0.930 . S
C910 H904 0.930 . S
C910 C911 1.355 1_554 S
C910 C912 1.415 . S
C911 C910 1.355 1_556 S
C911 C913 1.419 . S
C912 C910 1.415 . S
C912 C917 1.425 1_554 S
C912 C919 1.409 . S
C913 H905 0.930 . S
C913 C911 1.419 . S
C913 C914 1.362 . S
C914 H906 0.930 . S
C914 C913 1.362 . S
C914 C917 1.409 . S
C915 H907 0.930 . S
C915 C916 1.355 1_556 S
C915 C917 1.415 . S
C916 C915 1.355 1_554 S
C916 C918 1.419 . S
C917 C912 1.425 1_556 S
C917 C914 1.409 . S
C917 C915 1.415 . S
C918 H908 0.930 . S
C918 C916 1.419 . S
C918 C919 1.362 . S
C919 H909 0.930 . S
C919 C912 1.409 . S
C919 C918 1.362 . S
H920 C926 0.930 . S
H921 C929 0.930 . S
H922 C930 0.930 . S
H923 C931 0.930 1_554 S
H924 C934 0.930 . S
H925 C935 0.930 . S
C926 H920 0.930 . S
C926 C927 1.355 1_556 S
C926 C928 1.415 . S
C927 C926 1.355 1_554 S
C927 C929 1.419 . S
C928 C926 1.415 . S
C928 C933 1.423 1_556 S
C928 C935 1.409 . S
C929 H921 0.930 . S
C929 C927 1.419 . S
C929 C930 1.362 . S
C930 H922 0.930 . S
C930 C929 1.362 . S
C930 C933 1.412 . S
C931 H923 0.930 1_556 S
C931 C932 1.355 . S
C931 C933 1.414 1_556 S
C932 C931 1.355 . S
C932 C934 1.419 . S
C933 C928 1.423 1_554 S
C933 C930 1.412 . S
C933 C931 1.414 1_554 S
C934 H924 0.930 . S
C934 C932 1.419 . S
C934 C935 1.362 . S
C935 H925 0.930 . S
C935 C928 1.409 . S
C935 C934 1.362 . S
H936 C942 0.930 . S
H937 C945 0.930 . S
H938 C946 0.930 . S
H939 C947 0.930 . S
H940 C950 0.930 . S
H941 C951 0.930 . S
C942 H936 0.930 . S
C942 C943 1.355 . S
C942 C944 1.415 . S
C943 C942 1.355 . S
C943 C945 1.419 . S
C944 C942 1.415 . S
C944 C949 1.425 . S
C944 C951 1.409 . S
C945 H937 0.930 . S
C945 C943 1.419 . S
C945 C946 1.362 . S
C946 H938 0.930 . S
C946 C945 1.362 . S
C946 C949 1.409 . S
C947 H939 0.930 . S
C947 C948 1.355 . S
C947 C949 1.415 . S
C948 C947 1.355 . S
C948 C950 1.419 . S
C949 C944 1.425 . S
C949 C946 1.409 . S
C949 C947 1.415 . S
C950 H940 0.930 . S
C950 C948 1.419 . S
C950 C951 1.362 . S
C951 H941 0.930 . S
C951 C944 1.409 . S
C951 C950 1.362 . S
H952 C958 0.930 . S
H953 C961 0.930 . S
H954 C962 0.930 . S
H955 C963 0.930 . S
H956 C966 0.930 . S
H957 C967 0.930 . S
C958 H952 0.930 . S
C958 C959 1.355 . S
C958 C960 1.415 . S
C959 C958 1.355 . S
C959 C961 1.419 . S
C960 C958 1.415 . S
C960 C965 1.425 . S
C960 C967 1.409 . S
C961 H953 0.930 . S
C961 C959 1.419 . S
C961 C962 1.362 . S
C962 H954 0.930 . S
C962 C961 1.362 . S
C962 C965 1.409 . S
C963 H955 0.930 . S
C963 C964 1.355 . S
C963 C965 1.415 . S
C964 C963 1.355 . S
C964 C966 1.419 . S
C965 C960 1.425 . S
C965 C962 1.409 . S
C965 C963 1.415 . S
C966 H956 0.930 . S
C966 C964 1.419 . S
C966 C967 1.362 . S
C967 H957 0.930 . S
C967 C960 1.409 . S
C967 C966 1.362 . S
H968 C974 0.930 . S
H969 C977 0.930 . S
H970 C978 0.930 . S
H971 C979 0.930 . S
H972 C982 0.930 . S
H973 C983 0.930 . S
C974 H968 0.930 . S
C974 C975 1.355 . S
C974 C976 1.415 . S
C975 C974 1.355 . S
C975 C977 1.419 . S
C976 C974 1.415 . S
C976 C981 1.425 . S
C976 C983 1.409 . S
C977 H969 0.930 . S
C977 C975 1.419 . S
C977 C978 1.362 . S
C978 H970 0.930 . S
C978 C977 1.362 . S
C978 C981 1.409 . S
C979 H971 0.930 . S
C979 C980 1.355 . S
C979 C981 1.415 . S
C980 C979 1.355 . S
C980 C982 1.419 . S
C981 C976 1.425 . S
C981 C978 1.409 . S
C981 C979 1.415 . S
C982 H972 0.930 . S
C982 C980 1.419 . S
C982 C983 1.362 . S
C983 H973 0.930 . S
C983 C976 1.409 . S
C983 C982 1.362 . S
H984 C990 0.930 . S
H985 C993 0.930 . S
H986 C994 0.930 . S
H987 C995 0.930 . S
H988 C998 0.930 . S
H989 C999 0.930 . S
C990 H984 0.930 . S
C990 C991 1.355 . S
C990 C992 1.415 . S
C991 C990 1.355 . S
C991 C993 1.419 . S
C992 C990 1.415 . S
C992 C997 1.425 . S
C992 C999 1.409 . S
C993 H985 0.930 . S
C993 C991 1.419 . S
C993 C994 1.362 . S
C994 H986 0.930 . S
C994 C993 1.362 . S
C994 C997 1.409 . S
C995 H987 0.930 . S
C995 C996 1.355 . S
C995 C997 1.415 . S
C996 C995 1.355 . S
C996 C998 1.419 . S
C997 C992 1.425 . S
C997 C994 1.409 . S
C997 C995 1.415 . S
C998 H988 0.930 . S
C998 C996 1.419 . S
C998 C999 1.362 . S
C999 H989 0.930 . S
C999 C992 1.409 . S
C999 C998 1.362 . S
H1000 C1006 0.930 . S
H1001 C1009 0.930 . S
H1002 C1010 0.930 . S
H1003 C1011 0.930 . S
H1004 C1014 0.930 . S
H1005 C1015 0.930 . S
C1006 H1000 0.930 . S
C1006 C1007 1.355 . S
C1006 C1008 1.415 . S
C1007 C1006 1.355 . S
C1007 C1009 1.419 . S
C1008 C1006 1.415 . S
C1008 C1013 1.425 . S
C1008 C1015 1.409 . S
C1009 H1001 0.930 . S
C1009 C1007 1.419 . S
C1009 C1010 1.362 . S
C1010 H1002 0.930 . S
C1010 C1009 1.362 . S
C1010 C1013 1.409 . S
C1011 H1003 0.930 . S
C1011 C1012 1.355 . S
C1011 C1013 1.415 . S
C1012 C1011 1.355 . S
C1012 C1014 1.419 . S
C1013 C1008 1.425 . S
C1013 C1010 1.409 . S
C1013 C1011 1.415 . S
C1014 H1004 0.930 . S
C1014 C1012 1.419 . S
C1014 C1015 1.362 . S
C1015 H1005 0.930 . S
C1015 C1008 1.409 . S
C1015 C1014 1.362 . S
H1016 C1022 0.930 . S
H1017 C1025 0.930 . S
H1018 C1026 0.930 . S
H1019 C1027 0.930 . S
H1020 C1030 0.930 . S
H1021 C1031 0.930 . S
C1022 H1016 0.930 . S
C1022 C1023 1.355 . S
C1022 C1024 1.415 . S
C1023 C1022 1.355 . S
C1023 C1025 1.419 . S
C1024 C1022 1.415 . S
C1024 C1029 1.425 . S
C1024 C1031 1.409 . S
C1025 H1017 0.930 . S
C1025 C1023 1.419 . S
C1025 C1026 1.362 . S
C1026 H1018 0.930 . S
C1026 C1025 1.362 . S
C1026 C1029 1.409 . S
C1027 H1019 0.930 . S
C1027 C1028 1.355 . S
C1027 C1029 1.415 . S
C1028 C1027 1.355 . S
C1028 C1030 1.419 . S
C1029 C1024 1.425 . S
C1029 C1026 1.409 . S
C1029 C1027 1.415 . S
C1030 H1020 0.930 . S
C1030 C1028 1.419 . S
C1030 C1031 1.362 . S
C1031 H1021 0.930 . S
C1031 C1024 1.409 . S
C1031 C1030 1.362 . S
H1032 C1038 0.930 . S
H1033 C1041 0.930 . S
H1034 C1042 0.930 . S
H1035 C1043 0.930 . S
H1036 C1046 0.930 . S
H1037 C1047 0.930 . S
C1038 H1032 0.930 . S
C1038 C1039 1.355 . S
C1038 C1040 1.415 . S
C1039 C1038 1.355 . S
C1039 C1041 1.419 . S
C1040 C1038 1.415 . S
C1040 C1045 1.425 . S
C1040 C1047 1.409 . S
C1041 H1033 0.930 . S
C1041 C1039 1.419 . S
C1041 C1042 1.362 . S
C1042 H1034 0.930 . S
C1042 C1041 1.362 . S
C1042 C1045 1.409 . S
C1043 H1035 0.930 . S
C1043 C1044 1.355 . S
C1043 C1045 1.415 . S
C1044 C1043 1.355 . S
C1044 C1046 1.419 . S
C1045 C1040 1.425 . S
C1045 C1042 1.409 . S
C1045 C1043 1.415 . S
C1046 H1036 0.930 . S
C1046 C1044 1.419 . S
C1046 C1047 1.362 . S
C1047 H1037 0.930 . S
C1047 C1040 1.409 . S
C1047 C1046 1.362 . S
H1048 C1054 0.930 . S
H1049 C1057 0.930 . S
H1050 C1058 0.930 . S
H1051 C1059 0.930 . S
H1052 C1062 0.930 . S
H1053 C1063 0.930 . S
C1054 H1048 0.930 . S
C1054 C1055 1.355 . S
C1054 C1056 1.415 . S
C1055 C1054 1.355 . S
C1055 C1057 1.419 . S
C1056 C1054 1.415 . S
C1056 C1061 1.425 . S
C1056 C1063 1.409 . S
C1057 H1049 0.930 . S
C1057 C1055 1.419 . S
C1057 C1058 1.362 . S
C1058 H1050 0.930 . S
C1058 C1057 1.362 . S
C1058 C1061 1.409 . S
C1059 H1051 0.930 . S
C1059 C1060 1.355 . S
C1059 C1061 1.415 . S
C1060 C1059 1.355 . S
C1060 C1062 1.419 . S
C1061 C1056 1.425 . S
C1061 C1058 1.409 . S
C1061 C1059 1.415 . S
C1062 H1052 0.930 . S
C1062 C1060 1.419 . S
C1062 C1063 1.362 . S
C1063 H1053 0.930 . S
C1063 C1056 1.409 . S
C1063 C1062 1.362 . S
H1064 C1070 0.930 . S
H1065 C1073 0.930 . S
H1066 C1074 0.930 . S
H1067 C1075 0.930 . S
H1068 C1078 0.930 . S
H1069 C1079 0.930 . S
C1070 H1064 0.930 . S
C1070 C1071 1.355 . S
C1070 C1072 1.415 . S
C1071 C1070 1.355 . S
C1071 C1073 1.419 . S
C1072 C1070 1.415 . S
C1072 C1077 1.425 . S
C1072 C1079 1.409 . S
C1073 H1065 0.930 . S
C1073 C1071 1.419 . S
C1073 C1074 1.362 . S
C1074 H1066 0.930 . S
C1074 C1073 1.362 . S
C1074 C1077 1.409 . S
C1075 H1067 0.930 . S
C1075 C1076 1.355 . S
C1075 C1077 1.415 . S
C1076 C1075 1.355 . S
C1076 C1078 1.419 . S
C1077 C1072 1.425 . S
C1077 C1074 1.409 . S
C1077 C1075 1.415 . S
C1078 H1068 0.930 . S
C1078 C1076 1.419 . S
C1078 C1079 1.362 . S
C1079 H1069 0.930 . S
C1079 C1072 1.409 . S
C1079 C1078 1.362 . S
H1080 C1086 0.930 . S
H1081 C1089 0.930 . S
H1082 C1090 0.930 . S
H1083 C1091 0.930 . S
H1084 C1094 0.930 . S
H1085 C1095 0.930 . S
C1086 H1080 0.930 . S
C1086 C1087 1.355 . S
C1086 C1088 1.415 . S
C1087 C1086 1.355 . S
C1087 C1089 1.419 . S
C1088 C1086 1.415 . S
C1088 C1093 1.425 . S
C1088 C1095 1.409 . S
C1089 H1081 0.930 . S
C1089 C1087 1.419 . S
C1089 C1090 1.362 . S
C1090 H1082 0.930 . S
C1090 C1089 1.362 . S
C1090 C1093 1.409 . S
C1091 H1083 0.930 . S
C1091 C1092 1.355 . S
C1091 C1093 1.415 . S
C1092 C1091 1.355 . S
C1092 C1094 1.419 . S
C1093 C1088 1.425 . S
C1093 C1090 1.409 . S
C1093 C1091 1.415 . S
C1094 H1084 0.930 . S
C1094 C1092 1.419 . S
C1094 C1095 1.362 . S
C1095 H1085 0.930 . S
C1095 C1088 1.409 . S
C1095 C1094 1.362 . S
H1096 C1102 0.930 . S
H1097 C1105 0.930 . S
H1098 C1106 0.930 . S
H1099 C1107 0.930 . S
H1100 C1110 0.930 . S
H1101 C1111 0.930 . S
C1102 H1096 0.930 . S
C1102 C1103 1.355 . S
C1102 C1104 1.415 . S
C1103 C1102 1.355 . S
C1103 C1105 1.419 . S
C1104 C1102 1.415 . S
C1104 C1109 1.425 . S
C1104 C1111 1.409 . S
C1105 H1097 0.930 . S
C1105 C1103 1.419 . S
C1105 C1106 1.362 . S
C1106 H1098 0.930 . S
C1106 C1105 1.362 . S
C1106 C1109 1.409 . S
C1107 H1099 0.930 . S
C1107 C1108 1.355 . S
C1107 C1109 1.415 . S
C1108 C1107 1.355 . S
C1108 C1110 1.419 . S
C1109 C1104 1.425 . S
C1109 C1106 1.409 . S
C1109 C1107 1.415 . S
C1110 H1100 0.930 . S
C1110 C1108 1.419 . S
C1110 C1111 1.362 . S
C1111 H1101 0.930 . S
C1111 C1104 1.409 . S
C1111 C1110 1.362 . S
H1112 C1118 0.930 . S
H1113 C1121 0.930 . S
H1114 C1122 0.930 . S
H1115 C1123 0.930 . S
H1116 C1126 0.930 . S
H1117 C1127 0.930 . S
C1118 H1112 0.930 . S
C1118 C1119 1.355 . S
C1118 C1120 1.415 . S
C1119 C1118 1.355 . S
C1119 C1121 1.419 . S
C1120 C1118 1.415 . S
C1120 C1125 1.425 . S
C1120 C1127 1.409 . S
C1121 H1113 0.930 . S
C1121 C1119 1.419 . S
C1121 C1122 1.362 . S
C1122 H1114 0.930 . S
C1122 C1121 1.362 . S
C1122 C1125 1.409 . S
C1123 H1115 0.930 . S
C1123 C1124 1.355 . S
C1123 C1125 1.415 . S
C1124 C1123 1.355 . S
C1124 C1126 1.419 . S
C1125 C1120 1.425 . S
C1125 C1122 1.409 . S
C1125 C1123 1.415 . S
C1126 H1116 0.930 . S
C1126 C1124 1.419 . S
C1126 C1127 1.362 . S
C1127 H1117 0.930 . S
C1127 C1120 1.409 . S
C1127 C1126 1.362 . S
H1128 C1134 0.930 . S
H1129 C1137 0.930 . S
H1130 C1138 0.930 . S
H1131 C1139 0.930 . S
H1132 C1142 0.930 . S
H1133 C1143 0.930 . S
C1134 H1128 0.930 . S
C1134 C1135 1.355 . S
C1134 C1136 1.415 . S
C1135 C1134 1.355 . S
C1135 C1137 1.419 . S
C1136 C1134 1.415 . S
C1136 C1141 1.425 . S
C1136 C1143 1.409 . S
C1137 H1129 0.930 . S
C1137 C1135 1.419 . S
C1137 C1138 1.362 . S
C1138 H1130 0.930 . S
C1138 C1137 1.362 . S
C1138 C1141 1.409 . S
C1139 H1131 0.930 . S
C1139 C1140 1.355 . S
C1139 C1141 1.415 . S
C1140 C1139 1.355 . S
C1140 C1142 1.419 . S
C1141 C1136 1.425 . S
C1141 C1138 1.409 . S
C1141 C1139 1.415 . S
C1142 H1132 0.930 . S
C1142 C1140 1.419 . S
C1142 C1143 1.362 . S
C1143 H1133 0.930 . S
C1143 C1136 1.409 . S
C1143 C1142 1.362 . S
H1144 C1150 0.930 . S
H1145 C1153 0.930 . S
H1146 C1154 0.930 . S
H1147 C1155 0.930 . S
H1148 C1158 0.930 . S
H1149 C1159 0.930 . S
C1150 H1144 0.930 . S
C1150 C1151 1.355 . S
C1150 C1152 1.415 . S
C1151 C1150 1.355 . S
C1151 C1153 1.419 . S
C1152 C1150 1.415 . S
C1152 C1157 1.425 . S
C1152 C1159 1.409 . S
C1153 H1145 0.930 . S
C1153 C1151 1.419 . S
C1153 C1154 1.362 . S
C1154 H1146 0.930 . S
C1154 C1153 1.362 . S
C1154 C1157 1.409 . S
C1155 H1147 0.930 . S
C1155 C1156 1.355 . S
C1155 C1157 1.415 . S
C1156 C1155 1.355 . S
C1156 C1158 1.419 . S
C1157 C1152 1.425 . S
C1157 C1154 1.409 . S
C1157 C1155 1.415 . S
C1158 H1148 0.930 . S
C1158 C1156 1.419 . S
C1158 C1159 1.362 . S
C1159 H1149 0.930 . S
C1159 C1152 1.409 . S
C1159 C1158 1.362 . S
H1160 C1166 0.930 . S
H1161 C1169 0.930 . S
H1162 C1170 0.930 . S
H1163 C1171 0.930 . S
H1164 C1174 0.930 . S
H1165 C1175 0.930 . S
C1166 H1160 0.930 . S
C1166 C1167 1.355 . S
C1166 C1168 1.415 . S
C1167 C1166 1.355 . S
C1167 C1169 1.419 . S
C1168 C1166 1.415 . S
C1168 C1173 1.425 . S
C1168 C1175 1.409 . S
C1169 H1161 0.930 . S
C1169 C1167 1.419 . S
C1169 C1170 1.362 . S
C1170 H1162 0.930 . S
C1170 C1169 1.362 . S
C1170 C1173 1.409 . S
C1171 H1163 0.930 . S
C1171 C1172 1.355 . S
C1171 C1173 1.415 . S
C1172 C1171 1.355 . S
C1172 C1174 1.419 . S
C1173 C1168 1.425 . S
C1173 C1170 1.409 . S
C1173 C1171 1.415 . S
C1174 H1164 0.930 . S
C1174 C1172 1.419 . S
C1174 C1175 1.362 . S
C1175 H1165 0.930 . S
C1175 C1168 1.409 . S
C1175 C1174 1.362 . S
H1176 C1182 0.930 . S
H1177 C1185 0.930 . S
H1178 C1186 0.930 . S
H1179 C1187 0.930 . S
H1180 C1190 0.930 . S
H1181 C1191 0.930 . S
C1182 H1176 0.930 . S
C1182 C1183 1.355 . S
C1182 C1184 1.415 . S
C1183 C1182 1.355 . S
C1183 C1185 1.419 . S
C1184 C1182 1.415 . S
C1184 C1189 1.425 . S
C1184 C1191 1.409 . S
C1185 H1177 0.930 . S
C1185 C1183 1.419 . S
C1185 C1186 1.362 . S
C1186 H1178 0.930 . S
C1186 C1185 1.362 . S
C1186 C1189 1.409 . S
C1187 H1179 0.930 . S
C1187 C1188 1.355 . S
C1187 C1189 1.415 . S
C1188 C1187 1.355 . S
C1188 C1190 1.419 . S
C1189 C1184 1.425 . S
C1189 C1186 1.409 . S
C1189 C1187 1.415 . S
C1190 H1180 0.930 . S
C1190 C1188 1.419 . S
C1190 C1191 1.362 . S
C1191 H1181 0.930 . S
C1191 C1184 1.409 . S
C1191 C1190 1.362 . S
H1192 C1198 0.930 . S
H1193 C1201 0.930 . S
H1194 C1202 0.930 . S
H1195 C1203 0.930 . S
H1196 C1206 0.930 . S
H1197 C1207 0.930 . S
C1198 H1192 0.930 . S
C1198 C1199 1.355 . S
C1198 C1200 1.415 . S
C1199 C1198 1.355 . S
C1199 C1201 1.419 . S
C1200 C1198 1.415 . S
C1200 C1205 1.425 . S
C1200 C1207 1.409 . S
C1201 H1193 0.930 . S
C1201 C1199 1.419 . S
C1201 C1202 1.362 . S
C1202 H1194 0.930 . S
C1202 C1201 1.362 . S
C1202 C1205 1.409 . S
C1203 H1195 0.930 . S
C1203 C1204 1.355 . S
C1203 C1205 1.415 . S
C1204 C1203 1.355 . S
C1204 C1206 1.419 . S
C1205 C1200 1.425 . S
C1205 C1202 1.409 . S
C1205 C1203 1.415 . S
C1206 H1196 0.930 . S
C1206 C1204 1.419 . S
C1206 C1207 1.362 . S
C1207 H1197 0.930 . S
C1207 C1200 1.409 . S
C1207 C1206 1.362 . S
H1208 C1214 0.930 . S
H1209 C1217 0.930 . S
H1210 C1218 0.930 . S
H1211 C1219 0.930 . S
H1212 C1222 0.930 . S
H1213 C1223 0.930 . S
C1214 H1208 0.930 . S
C1214 C1215 1.355 . S
C1214 C1216 1.415 . S
C1215 C1214 1.355 . S
C1215 C1217 1.419 . S
C1216 C1214 1.415 . S
C1216 C1221 1.425 . S
C1216 C1223 1.409 . S
C1217 H1209 0.930 . S
C1217 C1215 1.419 . S
C1217 C1218 1.362 . S
C1218 H1210 0.930 . S
C1218 C1217 1.362 . S
C1218 C1221 1.409 . S
C1219 H1211 0.930 . S
C1219 C1220 1.355 . S
C1219 C1221 1.415 . S
C1220 C1219 1.355 . S
C1220 C1222 1.419 . S
C1221 C1216 1.425 . S
C1221 C1218 1.409 . S
C1221 C1219 1.415 . S
C1222 H1212 0.930 . S
C1222 C1220 1.419 . S
C1222 C1223 1.362 . S
C1223 H1213 0.930 . S
C1223 C1216 1.409 . S
C1223 C1222 1.362 . S
H1224 C1230 0.930 . S
H1225 C1233 0.930 . S
H1226 C1234 0.930 . S
H1227 C1235 0.930 . S
H1228 C1238 0.930 . S
H1229 C1239 0.930 . S
C1230 H1224 0.930 . S
C1230 C1231 1.355 . S
C1230 C1232 1.415 . S
C1231 C1230 1.355 . S
C1231 C1233 1.419 . S
C1232 C1230 1.415 . S
C1232 C1237 1.425 . S
C1232 C1239 1.409 . S
C1233 H1225 0.930 . S
C1233 C1231 1.419 . S
C1233 C1234 1.362 . S
C1234 H1226 0.930 . S
C1234 C1233 1.362 . S
C1234 C1237 1.409 . S
C1235 H1227 0.930 . S
C1235 C1236 1.355 . S
C1235 C1237 1.415 . S
C1236 C1235 1.355 . S
C1236 C1238 1.419 . S
C1237 C1232 1.425 . S
C1237 C1234 1.409 . S
C1237 C1235 1.415 . S
C1238 H1228 0.930 . S
C1238 C1236 1.419 . S
C1238 C1239 1.362 . S
C1239 H1229 0.930 . S
C1239 C1232 1.409 . S
C1239 C1238 1.362 . S
H1240 C1246 0.930 . S
H1241 C1249 0.930 . S
H1242 C1250 0.930 . S
H1243 C1251 0.930 . S
H1244 C1254 0.930 . S
H1245 C1255 0.930 . S
C1246 H1240 0.930 . S
C1246 C1247 1.355 . S
C1246 C1248 1.415 . S
C1247 C1246 1.355 . S
C1247 C1249 1.419 . S
C1248 C1246 1.415 . S
C1248 C1253 1.425 . S
C1248 C1255 1.409 . S
C1249 H1241 0.930 . S
C1249 C1247 1.419 . S
C1249 C1250 1.362 . S
C1250 H1242 0.930 . S
C1250 C1249 1.362 . S
C1250 C1253 1.409 . S
C1251 H1243 0.930 . S
C1251 C1252 1.355 . S
C1251 C1253 1.415 . S
C1252 C1251 1.355 . S
C1252 C1254 1.419 . S
C1253 C1248 1.425 . S
C1253 C1250 1.409 . S
C1253 C1251 1.415 . S
C1254 H1244 0.930 . S
C1254 C1252 1.419 . S
C1254 C1255 1.362 . S
C1255 H1245 0.930 . S
C1255 C1248 1.409 . S
C1255 C1254 1.362 . S
H1256 C1262 0.930 . S
H1257 C1265 0.930 . S
H1258 C1266 0.930 . S
H1259 C1267 0.930 . S
H1260 C1270 0.930 . S
H1261 C1271 0.930 . S
C1262 H1256 0.930 . S
C1262 C1263 1.355 . S
C1262 C1264 1.415 . S
C1263 C1262 1.355 . S
C1263 C1265 1.419 . S
C1264 C1262 1.415 . S
C1264 C1269 1.425 . S
C1264 C1271 1.409 . S
C1265 H1257 0.930 . S
C1265 C1263 1.419 . S
C1265 C1266 1.362 . S
C1266 H1258 0.930 . S
C1266 C1265 1.362 . S
C1266 C1269 1.409 . S
C1267 H1259 0.930 . S
C1267 C1268 1.355 . S
C1267 C1269 1.415 . S
C1268 C1267 1.355 . S
C1268 C1270 1.419 . S
C1269 C1264 1.425 . S
C1269 C1266 1.409 . S
C1269 C1267 1.415 . S
C1270 H1260 0.930 . S
C1270 C1268 1.419 . S
C1270 C1271 1.362 . S
C1271 H1261 0.930 . S
C1271 C1264 1.409 . S
C1271 C1270 1.362 . S
H1272 C1278 0.930 . S
H1273 C1281 0.930 . S
H1274 C1282 0.930 . S
H1275 C1283 0.930 . S
H1276 C1286 0.930 . S
H1277 C1287 0.930 . S
C1278 H1272 0.930 . S
C1278 C1279 1.355 . S
C1278 C1280 1.415 . S
C1279 C1278 1.355 . S
C1279 C1281 1.419 . S
C1280 C1278 1.415 . S
C1280 C1285 1.425 . S
C1280 C1287 1.409 . S
C1281 H1273 0.930 . S
C1281 C1279 1.419 . S
C1281 C1282 1.362 . S
C1282 H1274 0.930 . S
C1282 C1281 1.362 . S
C1282 C1285 1.409 . S
C1283 H1275 0.930 . S
C1283 C1284 1.355 . S
C1283 C1285 1.415 . S
C1284 C1283 1.355 . S
C1284 C1286 1.419 . S
C1285 C1280 1.425 . S
C1285 C1282 1.409 . S
C1285 C1283 1.415 . S
C1286 H1276 0.930 . S
C1286 C1284 1.419 . S
C1286 C1287 1.362 . S
C1287 H1277 0.930 . S
C1287 C1280 1.409 . S
C1287 C1286 1.362 . S
H1288 C1294 0.930 . S
H1289 C1297 0.930 . S
H1290 C1298 0.930 . S
H1291 C1299 0.930 . S
H1292 C1302 0.930 . S
H1293 C1303 0.930 . S
C1294 H1288 0.930 . S
C1294 C1295 1.355 . S
C1294 C1296 1.415 . S
C1295 C1294 1.355 . S
C1295 C1297 1.419 . S
C1296 C1294 1.415 . S
C1296 C1301 1.425 . S
C1296 C1303 1.409 . S
C1297 H1289 0.930 . S
C1297 C1295 1.419 . S
C1297 C1298 1.362 . S
C1298 H1290 0.930 . S
C1298 C1297 1.362 . S
C1298 C1301 1.409 . S
C1299 H1291 0.930 . S
C1299 C1300 1.355 . S
C1299 C1301 1.415 . S
C1300 C1299 1.355 . S
C1300 C1302 1.419 . S
C1301 C1296 1.425 . S
C1301 C1298 1.409 . S
C1301 C1299 1.415 . S
C1302 H1292 0.930 . S
C1302 C1300 1.419 . S
C1302 C1303 1.362 . S
C1303 H1293 0.930 . S
C1303 C1296 1.409 . S
C1303 C1302 1.362 . S
H1304 C1310 0.930 . S
H1305 C1313 0.930 . S
H1306 C1314 0.930 . S
H1307 C1315 0.930 . S
H1308 C1318 0.930 . S
H1309 C1319 0.930 . S
C1310 H1304 0.930 . S
C1310 C1311 1.355 . S
C1310 C1312 1.415 . S
C1311 C1310 1.355 . S
C1311 C1313 1.419 . S
C1312 C1310 1.415 . S
C1312 C1317 1.425 . S
C1312 C1319 1.409 . S
C1313 H1305 0.930 . S
C1313 C1311 1.419 . S
C1313 C1314 1.362 . S
C1314 H1306 0.930 . S
C1314 C1313 1.362 . S
C1314 C1317 1.409 . S
C1315 H1307 0.930 . S
C1315 C1316 1.355 . S
C1315 C1317 1.415 . S
C1316 C1315 1.355 . S
C1316 C1318 1.419 . S
C1317 C1312 1.425 . S
C1317 C1314 1.409 . S
C1317 C1315 1.415 . S
C1318 H1308 0.930 . S
C1318 C1316 1.419 . S
C1318 C1319 1.362 . S
C1319 H1309 0.930 . S
C1319 C1312 1.409 . S
C1319 C1318 1.362 . S
H1320 C1326 0.930 . S
H1321 C1329 0.930 . S
H1322 C1330 0.930 . S
H1323 C1331 0.930 . S
H1324 C1334 0.930 . S
H1325 C1335 0.930 . S
C1326 H1320 0.930 . S
C1326 C1327 1.355 . S
C1326 C1328 1.415 . S
C1327 C1326 1.355 . S
C1327 C1329 1.419 . S
C1328 C1326 1.415 . S
C1328 C1333 1.425 . S
C1328 C1335 1.409 . S
C1329 H1321 0.930 . S
C1329 C1327 1.419 . S
C1329 C1330 1.362 . S
C1330 H1322 0.930 . S
C1330 C1329 1.362 . S
C1330 C1333 1.409 . S
C1331 H1323 0.930 . S
C1331 C1332 1.355 . S
C1331 C1333 1.415 . S
C1332 C1331 1.355 . S
C1332 C1334 1.419 . S
C1333 C1328 1.425 . S
C1333 C1330 1.409 . S
C1333 C1331 1.415 . S
C1334 H1324 0.930 . S
C1334 C1332 1.419 . S
C1334 C1335 1.362 . S
C1335 H1325 0.930 . S
C1335 C1328 1.409 . S
C1335 C1334 1.362 . S
H1336 C1342 0.930 . S
H1337 C1345 0.930 . S
H1338 C1346 0.930 . S
H1339 C1347 0.930 . S
H1340 C1350 0.930 . S
H1341 C1351 0.930 . S
C1342 H1336 0.930 . S
C1342 C1343 1.355 . S
C1342 C1344 1.415 . S
C1343 C1342 1.355 . S
C1343 C1345 1.419 . S
C1344 C1342 1.415 . S
C1344 C1349 1.425 . S
C1344 C1351 1.409 . S
C1345 H1337 0.930 . S
C1345 C1343 1.419 . S
C1345 C1346 1.362 . S
C1346 H1338 0.930 . S
C1346 C1345 1.362 . S
C1346 C1349 1.409 . S
C1347 H1339 0.930 . S
C1347 C1348 1.355 . S
C1347 C1349 1.415 . S
C1348 C1347 1.355 . S
C1348 C1350 1.419 . S
C1349 C1344 1.425 . S
C1349 C1346 1.409 . S
C1349 C1347 1.415 . S
C1350 H1340 0.930 . S
C1350 C1348 1.419 . S
C1350 C1351 1.362 . S
C1351 H1341 0.930 . S
C1351 C1344 1.409 . S
C1351 C1350 1.362 . S
H1352 C1358 0.930 . S
H1353 C1361 0.930 . S
H1354 C1362 0.930 . S
H1355 C1363 0.930 . S
H1356 C1366 0.930 . S
H1357 C1367 0.930 . S
C1358 H1352 0.930 . S
C1358 C1359 1.355 . S
C1358 C1360 1.415 . S
C1359 C1358 1.355 . S
C1359 C1361 1.419 . S
C1360 C1358 1.415 . S
C1360 C1365 1.425 . S
C1360 C1367 1.409 . S
C1361 H1353 0.930 . S
C1361 C1359 1.419 . S
C1361 C1362 1.362 . S
C1362 H1354 0.930 . S
C1362 C1361 1.362 . S
C1362 C1365 1.409 . S
C1363 H1355 0.930 . S
C1363 C1364 1.355 . S
C1363 C1365 1.415 . S
C1364 C1363 1.355 . S
C1364 C1366 1.419 . S
C1365 C1360 1.425 . S
C1365 C1362 1.409 . S
C1365 C1363 1.415 . S
C1366 H1356 0.930 . S
C1366 C1364 1.419 . S
C1366 C1367 1.362 . S
C1367 H1357 0.930 . S
C1367 C1360 1.409 . S
C1367 C1366 1.362 . S
H1368 C1374 0.930 . S
H1369 C1377 0.930 . S
H1370 C1378 0.930 . S
H1371 C1379 0.930 . S
H1372 C1382 0.930 . S
H1373 C1383 0.930 . S
C1374 H1368 0.930 . S
C1374 C1375 1.355 . S
C1374 C1376 1.415 . S
C1375 C1374 1.355 . S
C1375 C1377 1.419 . S
C1376 C1374 1.415 . S
C1376 C1381 1.425 . S
C1376 C1383 1.409 . S
C1377 H1369 0.930 . S
C1377 C1375 1.419 . S
C1377 C1378 1.362 . S
C1378 H1370 0.930 . S
C1378 C1377 1.362 . S
C1378 C1381 1.409 . S
C1379 H1371 0.930 . S
C1379 C1380 1.355 . S
C1379 C1381 1.415 . S
C1380 C1379 1.355 . S
C1380 C1382 1.419 . S
C1381 C1376 1.425 . S
C1381 C1378 1.409 . S
C1381 C1379 1.415 . S
C1382 H1372 0.930 . S
C1382 C1380 1.419 . S
C1382 C1383 1.362 . S
C1383 H1373 0.930 . S
C1383 C1376 1.409 . S
C1383 C1382 1.362 . S
H1384 C1390 0.930 . S
H1385 C1393 0.930 . S
H1386 C1394 0.930 . S
H1387 C1395 0.930 . S
H1388 C1398 0.930 . S
H1389 C1399 0.930 . S
C1390 H1384 0.930 . S
C1390 C1391 1.355 . S
C1390 C1392 1.415 . S
C1391 C1390 1.355 . S
C1391 C1393 1.419 1_545 S
C1392 C1390 1.415 . S
C1392 C1397 1.425 1_545 S
C1392 C1399 1.409 . S
C1393 H1385 0.930 . S
C1393 C1391 1.419 1_565 S
C1393 C1394 1.362 . S
C1394 H1386 0.930 . S
C1394 C1393 1.362 . S
C1394 C1397 1.409 . S
C1395 H1387 0.930 . S
C1395 C1396 1.355 . S
C1395 C1397 1.415 . S
C1396 C1395 1.355 . S
C1396 C1398 1.419 1_565 S
C1397 C1392 1.425 1_565 S
C1397 C1394 1.409 . S
C1397 C1395 1.415 . S
C1398 H1388 0.930 . S
C1398 C1396 1.419 1_545 S
C1398 C1399 1.362 . S
C1399 H1389 0.930 . S
C1399 C1392 1.409 . S
C1399 C1398 1.362 . S
H1400 C1406 0.930 . S
H1401 C1409 0.930 . S
H1402 C1410 0.930 . S
H1403 C1411 0.930 . S
H1404 C1414 0.930 . S
H1405 C1415 0.930 . S
C1406 H1400 0.930 . S
C1406 C1407 1.355 . S
C1406 C1408 1.415 . S
C1407 C1406 1.355 . S
C1407 C1409 1.419 1_455 S
C1408 C1406 1.415 . S
C1408 C1413 1.425 1_455 S
C1408 C1415 1.409 . S
C1409 H1401 0.930 . S
C1409 C1407 1.419 1_655 S
C1409 C1410 1.362 . S
C1410 H1402 0.930 . S
C1410 C1409 1.362 . S
C1410 C1413 1.409 . S
C1411 H1403 0.930 . S
C1411 C1412 1.355 . S
C1411 C1413 1.415 . S
C1412 C1411 1.355 . S
C1412 C1414 1.419 1_655 S
C1413 C1408 1.425 1_655 S
C1413 C1410 1.409 . S
C1413 C1411 1.415 . S
C1414 H1404 0.930 . S
C1414 C1412 1.419 1_455 S
C1414 C1415 1.362 . S
C1415 H1405 0.930 . S
C1415 C1408 1.409 . S
C1415 C1414 1.362 . S
H1416 C1422 0.930 . S
H1417 C1425 0.930 . S
H1418 C1426 0.930 . S
H1419 C1427 0.930 . S
H1420 C1430 0.930 . S
H1421 C1431 0.930 . S
C1422 H1416 0.930 . S
C1422 C1423 1.355 . S
C1422 C1424 1.415 . S
C1423 C1422 1.355 . S
C1423 C1425 1.419 . S
C1424 C1422 1.415 . S
C1424 C1429 1.425 . S
C1424 C1431 1.409 . S
C1425 H1417 0.930 . S
C1425 C1423 1.419 . S
C1425 C1426 1.362 . S
C1426 H1418 0.930 . S
C1426 C1425 1.362 . S
C1426 C1429 1.409 . S
C1427 H1419 0.930 . S
C1427 C1428 1.355 . S
C1427 C1429 1.415 . S
C1428 C1427 1.355 . S
C1428 C1430 1.419 . S
C1429 C1424 1.425 . S
C1429 C1426 1.409 . S
C1429 C1427 1.415 . S
C1430 H1420 0.930 . S
C1430 C1428 1.419 . S
C1430 C1431 1.362 . S
C1431 H1421 0.930 . S
C1431 C1424 1.409 . S
C1431 C1430 1.362 . S
H1432 C1438 0.930 . S
H1433 C1441 0.930 . S
H1434 C1442 0.930 . S
H1435 C1443 0.930 . S
H1436 C1446 0.930 . S
H1437 C1447 0.930 . S
C1438 H1432 0.930 . S
C1438 C1439 1.355 . S
C1438 C1440 1.415 . S
C1439 C1438 1.355 . S
C1439 C1441 1.419 1_545 S
C1440 C1438 1.415 . S
C1440 C1445 1.425 1_545 S
C1440 C1447 1.409 . S
C1441 H1433 0.930 . S
C1441 C1439 1.419 1_565 S
C1441 C1442 1.362 . S
C1442 H1434 0.930 . S
C1442 C1441 1.362 . S
C1442 C1445 1.409 . S
C1443 H1435 0.930 . S
C1443 C1444 1.355 . S
C1443 C1445 1.415 . S
C1444 C1443 1.355 . S
C1444 C1446 1.419 1_565 S
C1445 C1440 1.425 1_565 S
C1445 C1442 1.409 . S
C1445 C1443 1.415 . S
C1446 H1436 0.930 . S
C1446 C1444 1.419 1_545 S
C1446 C1447 1.362 . S
C1447 H1437 0.930 . S
C1447 C1440 1.409 . S
C1447 C1446 1.362 . S
H1448 C1454 0.930 . S
H1449 C1457 0.930 . S
H1450 C1458 0.930 . S
H1451 C1459 0.930 . S
H1452 C1462 0.930 . S
H1453 C1463 0.930 . S
C1454 H1448 0.930 . S
C1454 C1455 1.355 1_455 S
C1454 C1456 1.415 . S
C1455 C1454 1.355 1_655 S
C1455 C1457 1.419 . S
C1456 C1454 1.415 . S
C1456 C1461 1.425 1_455 S
C1456 C1463 1.409 . S
C1457 H1449 0.930 . S
C1457 C1455 1.419 . S
C1457 C1458 1.362 . S
C1458 H1450 0.930 . S
C1458 C1457 1.362 . S
C1458 C1461 1.409 . S
C1459 H1451 0.930 . S
C1459 C1460 1.355 1_655 S
C1459 C1461 1.415 . S
C1460 C1459 1.355 1_455 S
C1460 C1462 1.419 . S
C1461 C1456 1.425 1_655 S
C1461 C1458 1.409 . S
C1461 C1459 1.415 . S
C1462 H1452 0.930 . S
C1462 C1460 1.419 . S
C1462 C1463 1.362 . S
C1463 H1453 0.930 . S
C1463 C1456 1.409 . S
C1463 C1462 1.362 . S
H1464 C1470 0.930 . S
H1465 C1473 0.930 . S
H1466 C1474 0.930 . S
H1467 C1475 0.930 . S
H1468 C1478 0.930 . S
H1469 C1479 0.930 . S
C1470 H1464 0.930 . S
C1470 C1471 1.355 . S
C1470 C1472 1.415 . S
C1471 C1470 1.355 . S
C1471 C1473 1.419 . S
C1472 C1470 1.415 . S
C1472 C1477 1.425 . S
C1472 C1479 1.409 . S
C1473 H1465 0.930 . S
C1473 C1471 1.419 . S
C1473 C1474 1.362 . S
C1474 H1466 0.930 . S
C1474 C1473 1.362 . S
C1474 C1477 1.409 . S
C1475 H1467 0.930 . S
C1475 C1476 1.355 . S
C1475 C1477 1.415 . S
C1476 C1475 1.355 . S
C1476 C1478 1.419 . S
C1477 C1472 1.425 . S
C1477 C1474 1.409 . S
C1477 C1475 1.415 . S
C1478 H1468 0.930 . S
C1478 C1476 1.419 . S
C1478 C1479 1.362 . S
C1479 H1469 0.930 . S
C1479 C1472 1.409 . S
C1479 C1478 1.362 . S
H1480 C1486 0.930 . S
H1481 C1489 0.930 . S
H1482 C1490 0.930 . S
H1483 C1491 0.930 . S
H1484 C1494 0.930 . S
H1485 C1495 0.930 . S
C1486 H1480 0.930 . S
C1486 C1487 1.355 . S
C1486 C1488 1.415 . S
C1487 C1486 1.355 . S
C1487 C1489 1.419 . S
C1488 C1486 1.415 . S
C1488 C1493 1.425 . S
C1488 C1495 1.409 . S
C1489 H1481 0.930 . S
C1489 C1487 1.419 . S
C1489 C1490 1.362 . S
C1490 H1482 0.930 . S
C1490 C1489 1.362 . S
C1490 C1493 1.409 . S
C1491 H1483 0.930 . S
C1491 C1492 1.355 . S
C1491 C1493 1.415 . S
C1492 C1491 1.355 . S
C1492 C1494 1.419 . S
C1493 C1488 1.425 . S
C1493 C1490 1.409 . S
C1493 C1491 1.415 . S
C1494 H1484 0.930 . S
C1494 C1492 1.419 . S
C1494 C1495 1.362 . S
C1495 H1485 0.930 . S
C1495 C1488 1.409 . S
C1495 C1494 1.362 . S
H1496 C1502 0.930 . S
H1497 C1505 0.930 . S
H1498 C1506 0.930 . S
H1499 C1507 0.930 . S
H1500 C1510 0.930 . S
H1501 C1511 0.930 . S
C1502 H1496 0.930 . S
C1502 C1503 1.355 . S
C1502 C1504 1.415 . S
C1503 C1502 1.355 . S
C1503 C1505 1.419 . S
C1504 C1502 1.415 . S
C1504 C1509 1.425 . S
C1504 C1511 1.409 . S
C1505 H1497 0.930 . S
C1505 C1503 1.419 . S
C1505 C1506 1.362 . S
C1506 H1498 0.930 . S
C1506 C1505 1.362 . S
C1506 C1509 1.409 . S
C1507 H1499 0.930 . S
C1507 C1508 1.355 . S
C1507 C1509 1.415 . S
C1508 C1507 1.355 . S
C1508 C1510 1.419 . S
C1509 C1504 1.425 . S
C1509 C1506 1.409 . S
C1509 C1507 1.415 . S
C1510 H1500 0.930 . S
C1510 C1508 1.419 . S
C1510 C1511 1.362 . S
C1511 H1501 0.930 . S
C1511 C1504 1.409 . S
C1511 C1510 1.362 . S
H1512 C1518 0.930 . S
H1513 C1521 0.930 . S
H1514 C1522 0.930 . S
H1515 C1523 0.930 . S
H1516 C1526 0.930 1_556 S
H1517 C1527 0.930 . S
C1518 H1512 0.930 . S
C1518 C1519 1.355 . S
C1518 C1520 1.415 . S
C1519 C1518 1.355 . S
C1519 C1521 1.419 . S
C1520 C1518 1.415 . S
C1520 C1525 1.425 . S
C1520 C1527 1.409 . S
C1521 H1513 0.930 . S
C1521 C1519 1.419 . S
C1521 C1522 1.362 . S
C1522 H1514 0.930 . S
C1522 C1521 1.362 . S
C1522 C1525 1.409 . S
C1523 H1515 0.930 . S
C1523 C1524 1.355 . S
C1523 C1525 1.415 . S
C1524 C1523 1.355 . S
C1524 C1526 1.419 . S
C1525 C1520 1.425 . S
C1525 C1522 1.409 . S
C1525 C1523 1.415 . S
C1526 H1516 0.930 1_554 S
C1526 C1524 1.419 . S
C1526 C1527 1.362 . S
C1527 H1517 0.930 . S
C1527 C1520 1.409 . S
C1527 C1526 1.362 . S
H1528 C1534 0.930 . S
H1529 C1537 0.930 . S
H1530 C1538 0.930 . S
H1531 C1539 0.930 . S
H1532 C1542 0.930 . S
H1533 C1543 0.930 . S
C1534 H1528 0.930 . S
C1534 C1535 1.355 . S
C1534 C1536 1.415 . S
C1535 C1534 1.355 . S
C1535 C1537 1.419 . S
C1536 C1534 1.415 . S
C1536 C1541 1.425 . S
C1536 C1543 1.409 . S
C1537 H1529 0.930 . S
C1537 C1535 1.419 . S
C1537 C1538 1.362 . S
C1538 H1530 0.930 . S
C1538 C1537 1.362 . S
C1538 C1541 1.409 . S
C1539 H1531 0.930 . S
C1539 C1540 1.355 . S
C1539 C1541 1.415 . S
C1540 C1539 1.355 . S
C1540 C1542 1.419 . S
C1541 C1536 1.425 . S
C1541 C1538 1.409 . S
C1541 C1539 1.415 . S
C1542 H1532 0.930 . S
C1542 C1540 1.419 . S
C1542 C1543 1.362 . S
C1543 H1533 0.930 . S
C1543 C1536 1.409 . S
C1543 C1542 1.362 . S
H1544 C1550 0.930 . S
H1545 C1553 0.930 . S
H1546 C1554 0.930 . S
H1547 C1555 0.930 . S
H1548 C1558 0.930 . S
H1549 C1559 0.930 . S
C1550 H1544 0.930 . S
C1550 C1551 1.355 . S
C1550 C1552 1.415 . S
C1551 C1550 1.355 . S
C1551 C1553 1.419 . S
C1552 C1550 1.415 . S
C1552 C1557 1.425 . S
C1552 C1559 1.409 . S
C1553 H1545 0.930 . S
C1553 C1551 1.419 . S
C1553 C1554 1.362 . S
C1554 H1546 0.930 . S
C1554 C1553 1.362 . S
C1554 C1557 1.409 . S
C1555 H1547 0.930 . S
C1555 C1556 1.355 . S
C1555 C1557 1.415 . S
C1556 C1555 1.355 . S
C1556 C1558 1.419 . S
C1557 C1552 1.425 . S
C1557 C1554 1.409 . S
C1557 C1555 1.415 . S
C1558 H1548 0.930 . S
C1558 C1556 1.419 . S
C1558 C1559 1.362 . S
C1559 H1549 0.930 . S
C1559 C1552 1.409 . S
C1559 C1558 1.362 . S
H1560 C1566 0.930 . S
H1561 C1569 0.930 1_554 S
H1562 C1570 0.930 . S
H1563 C1571 0.930 . S
H1564 C1574 0.930 . S
H1565 C1575 0.930 . S
C1566 H1560 0.930 . S
C1566 C1567 1.355 . S
C1566 C1568 1.415 . S
C1567 C1566 1.355 . S
C1567 C1569 1.419 . S
C1568 C1566 1.415 . S
C1568 C1573 1.425 . S
C1568 C1575 1.409 . S
C1569 H1561 0.930 1_556 S
C1569 C1567 1.419 . S
C1569 C1570 1.362 . S
C1570 H1562 0.930 . S
C1570 C1569 1.362 . S
C1570 C1573 1.409 . S
C1571 H1563 0.930 . S
C1571 C1572 1.355 . S
C1571 C1573 1.415 . S
C1572 C1571 1.355 . S
C1572 C1574 1.419 . S
C1573 C1568 1.425 . S
C1573 C1570 1.409 . S
C1573 C1571 1.415 . S
C1574 H1564 0.930 . S
C1574 C1572 1.419 . S
C1574 C1575 1.362 . S
C1575 H1565 0.930 . S
C1575 C1568 1.409 . S
C1575 C1574 1.362 . S
H1576 C1582 0.930 . S
H1577 C1585 0.930 1_554 S
H1578 C1586 0.930 . S
H1579 C1587 0.930 . S
H1580 C1590 0.930 . S
H1581 C1591 0.930 . S
C1582 H1576 0.930 . S
C1582 C1583 1.355 . S
C1582 C1584 1.415 . S
C1583 C1582 1.355 . S
C1583 C1585 1.419 . S
C1584 C1582 1.415 . S
C1584 C1589 1.425 . S
C1584 C1591 1.409 . S
C1585 H1577 0.930 1_556 S
C1585 C1583 1.419 . S
C1585 C1586 1.362 . S
C1586 H1578 0.930 . S
C1586 C1585 1.362 . S
C1586 C1589 1.409 . S
C1587 H1579 0.930 . S
C1587 C1588 1.355 . S
C1587 C1589 1.415 . S
C1588 C1587 1.355 . S
C1588 C1590 1.419 . S
C1589 C1584 1.425 . S
C1589 C1586 1.409 . S
C1589 C1587 1.415 . S
C1590 H1580 0.930 . S
C1590 C1588 1.419 . S
C1590 C1591 1.362 . S
C1591 H1581 0.930 . S
C1591 C1584 1.409 . S
C1591 C1590 1.362 . S
H1592 C1598 0.930 . S
H1593 C1601 0.930 . S
H1594 C1602 0.930 . S
H1595 C1603 0.930 . S
H1596 C1606 0.930 . S
H1597 C1607 0.930 . S
C1598 H1592 0.930 . S
C1598 C1599 1.355 . S
C1598 C1600 1.415 . S
C1599 C1598 1.355 . S
C1599 C1601 1.419 . S
C1600 C1598 1.415 . S
C1600 C1605 1.425 . S
C1600 C1607 1.409 . S
C1601 H1593 0.930 . S
C1601 C1599 1.419 . S
C1601 C1602 1.362 . S
C1602 H1594 0.930 . S
C1602 C1601 1.362 . S
C1602 C1605 1.409 . S
C1603 H1595 0.930 . S
C1603 C1604 1.355 . S
C1603 C1605 1.415 . S
C1604 C1603 1.355 . S
C1604 C1606 1.419 . S
C1605 C1600 1.425 . S
C1605 C1602 1.409 . S
C1605 C1603 1.415 . S
C1606 H1596 0.930 . S
C1606 C1604 1.419 . S
C1606 C1607 1.362 . S
C1607 H1597 0.930 . S
C1607 C1600 1.409 . S
C1607 C1606 1.362 . S
H1608 C1614 0.930 . S
H1609 C1617 0.930 . S
H1610 C1618 0.930 . S
H1611 C1619 0.930 . S
H1612 C1622 0.930 . S
H1613 C1623 0.930 . S
C1614 H1608 0.930 . S
C1614 C1615 1.355 . S
C1614 C1616 1.415 . S
C1615 C1614 1.355 . S
C1615 C1617 1.419 . S
C1616 C1614 1.415 . S
C1616 C1621 1.425 . S
C1616 C1623 1.409 . S
C1617 H1609 0.930 . S
C1617 C1615 1.419 . S
C1617 C1618 1.362 . S
C1618 H1610 0.930 . S
C1618 C1617 1.362 . S
C1618 C1621 1.409 . S
C1619 H1611 0.930 . S
C1619 C1620 1.355 . S
C1619 C1621 1.415 . S
C1620 C1619 1.355 . S
C1620 C1622 1.419 . S
C1621 C1616 1.425 . S
C1621 C1618 1.409 . S
C1621 C1619 1.415 . S
C1622 H1612 0.930 . S
C1622 C1620 1.419 . S
C1622 C1623 1.362 . S
C1623 H1613 0.930 . S
C1623 C1616 1.409 . S
C1623 C1622 1.362 . S
H1624 C1630 0.930 . S
H1625 C1633 0.930 . S
H1626 C1634 0.930 . S
H1627 C1635 0.930 . S
H1628 C1638 0.930 . S
H1629 C1639 0.930 . S
C1630 H1624 0.930 . S
C1630 C1631 1.355 . S
C1630 C1632 1.415 . S
C1631 C1630 1.355 . S
C1631 C1633 1.419 . S
C1632 C1630 1.415 . S
C1632 C1637 1.425 . S
C1632 C1639 1.409 . S
C1633 H1625 0.930 . S
C1633 C1631 1.419 . S
C1633 C1634 1.362 . S
C1634 H1626 0.930 . S
C1634 C1633 1.362 . S
C1634 C1637 1.409 . S
C1635 H1627 0.930 . S
C1635 C1636 1.355 . S
C1635 C1637 1.415 . S
C1636 C1635 1.355 . S
C1636 C1638 1.419 . S
C1637 C1632 1.425 . S
C1637 C1634 1.409 . S
C1637 C1635 1.415 . S
C1638 H1628 0.930 . S
C1638 C1636 1.419 . S
C1638 C1639 1.362 . S
C1639 H1629 0.930 . S
C1639 C1632 1.409 . S
C1639 C1638 1.362 . S
H1640 C1646 0.930 . S
H1641 C1649 0.930 . S
H1642 C1650 0.930 . S
H1643 C1651 0.930 . S
H1644 C1654 0.930 . S
H1645 C1655 0.930 . S
C1646 H1640 0.930 . S
C1646 C1647 1.355 . S
C1646 C1648 1.415 . S
C1647 C1646 1.355 . S
C1647 C1649 1.419 . S
C1648 C1646 1.415 . S
C1648 C1653 1.425 . S
C1648 C1655 1.409 . S
C1649 H1641 0.930 . S
C1649 C1647 1.419 . S
C1649 C1650 1.362 . S
C1650 H1642 0.930 . S
C1650 C1649 1.362 . S
C1650 C1653 1.409 . S
C1651 H1643 0.930 . S
C1651 C1652 1.355 . S
C1651 C1653 1.415 . S
C1652 C1651 1.355 . S
C1652 C1654 1.419 . S
C1653 C1648 1.425 . S
C1653 C1650 1.409 . S
C1653 C1651 1.415 . S
C1654 H1644 0.930 . S
C1654 C1652 1.419 . S
C1654 C1655 1.362 . S
C1655 H1645 0.930 . S
C1655 C1648 1.409 . S
C1655 C1654 1.362 . S
C511 C230 1.202 . S
C516 C6 1.224 . S
C527 C244 1.142 . S
C532 C20 1.121 . S
C543 C34 1.207 . S
C548 C216 1.226 . S
C559 C370 1.137 . S
C564 C48 1.120 . S
C575 C342 1.217 . S
C580 C62 1.228 . S
C591 C76 1.121 . S
C596 C356 1.123 . S
C607 C482 1.195 . S
C612 C90 1.221 . S
C623 C496 1.164 . S
C628 C104 1.198 . S
C639 C468 1.200 . S
C644 C118 1.166 . S
C655 C286 1.123 . S
C660 C132 1.145 . S
C671 C146 1.175 . S
C676 C258 1.142 . S
C687 C272 1.194 . S
C692 C160 1.159 . S
C703 C398 1.226 . S
C708 C174 1.225 . S
C719 C188 1.225 . S
C724 C412 1.204 . S
C735 C384 1.134 . S
C740 C202 1.165 . S
C751 C454 1.165 . S
C756 C300 1.134 . S
C767 C426 1.227 . S
C772 C314 1.223 . S
C783 C328 1.130 . S
C788 C440 1.119 . S
C799 C105 1.560 . S
C804 C8 1.623 . S
C815 C119 1.564 . S
C820 C22 1.622 . S
C831 C91 1.630 . S
C836 C36 1.657 . S
C847 C50 1.621 . S
C852 C161 1.563 . S
C863 C133 1.613 . S
C868 C64 1.670 . S
C879 C78 1.633 . S
C884 C147 1.562 . S
C895 C21 1.638 . S
C900 C92 1.669 . S
C911 C106 1.661 . S
C916 C35 1.595 . S
C927 C7 1.636 . S
C932 C120 1.674 . S
C943 C77 1.561 . S
C948 C134 1.622 . S
C959 C49 1.629 . S
C964 C148 1.675 . S
C975 C162 1.622 . S
C980 C63 1.570 . S
C991 C176 1.641 . S
C996 C273 1.569 . S
C1007 C287 1.599 . S
C1012 C190 1.663 . S
C1023 C259 1.637 . S
C1028 C204 1.673 . S
C1039 C218 1.673 . S
C1044 C329 1.637 . S
C1055 C301 1.579 . S
C1060 C232 1.650 . S
C1071 C246 1.650 . S
C1076 C315 1.622 . S
C1087 C260 1.633 . S
C1092 C189 1.562 . S
C1103 C274 1.666 . S
C1108 C203 1.604 . S
C1119 C175 1.583 . S
C1124 C288 1.625 . S
C1135 C245 1.623 . S
C1140 C302 1.674 . S
C1151 C217 1.578 . S
C1156 C316 1.623 . S
C1167 C330 1.624 . S
C1172 C231 1.560 . S
C1183 C441 1.560 . S
C1188 C344 1.623 . S
C1199 C358 1.665 . S
C1204 C455 1.636 . S
C1215 C372 1.649 . S
C1220 C427 1.622 . S
C1231 C497 1.603 . S
C1236 C386 1.666 . S
C1247 C400 1.622 . S
C1252 C469 1.561 . S
C1263 C483 1.560 . S
C1268 C414 1.624 . S
C1279 C357 1.563 . S
C1284 C428 1.634 . S
C1295 C371 1.623 . S
C1300 C442 1.674 . S
C1311 C456 1.633 . S
C1316 C343 1.599 . S
C1327 C470 1.635 . S
C1332 C413 1.603 . S
C1343 C385 1.570 . S
C1348 C484 1.643 . S
C1359 C399 1.611 . S
C1364 C498 1.640 . S
C1375 C9 1.742 . S
C1380 C51 1.758 . S
C1391 C23 1.743 . S
C1396 C65 1.760 . S
C1407 C79 1.754 . S
C1412 C37 1.742 . S
C1423 C93 1.772 . S
C1428 C135 1.772 . S
C1439 C149 1.753 . S
C1444 C107 1.743 . S
C1455 C163 1.753 . S
C1460 C121 1.773 . S
C1471 C177 1.742 . S
C1476 C219 1.754 . S
C1487 C191 1.776 . S
C1492 C233 1.760 . S
C1503 C247 1.765 . S
C1508 C205 1.775 . S
C1519 C261 1.765 . S
C1524 C303 1.744 1_554 S
C1535 C275 1.750 . S
C1540 C317 1.772 1_554 S
C1551 C289 1.773 . S
C1556 C331 1.770 1_554 S
C1567 C387 1.752 1_556 S
C1572 C345 1.743 . S
C1583 C401 1.747 1_556 S
C1588 C359 1.745 . S
C1599 C415 1.771 1_556 S
C1604 C373 1.773 . S
C1615 C429 1.757 . S
C1620 C471 1.775 . S
C1631 C485 1.759 . S
C1636 C443 1.776 . S
C1647 C499 1.763 . S
C1652 C457 1.743 . S
