# Generated by pormake.
# Topology snz, (6)-cn, num edge types: 1
# Building blocks:
#     Node 0, Type 0, BuildingBlock: CIFDUS_clean_sbu_1, # of connection points: 6
#     Node 1, Type 0, BuildingBlock: CIFDUS_clean_sbu_1, # of connection points: 6
#     Node 2, Type 0, BuildingBlock: CIFDUS_clean_sbu_1, # of connection points: 6
#     Node 3, Type 0, BuildingBlock: CIFDUS_clean_sbu_1, # of connection points: 6
#     Node 4, Type 0, BuildingBlock: CIFDUS_clean_sbu_1, # of connection points: 6
#     Node 5, Type 0, BuildingBlock: CIFDUS_clean_sbu_1, # of connection points: 6
#     Node 6, Type 0, BuildingBlock: CIFDUS_clean_sbu_1, # of connection points: 6
#     Node 7, Type 0, BuildingBlock: CIFDUS_clean_sbu_1, # of connection points: 6
#     Node 8, Type 0, BuildingBlock: CIFDUS_clean_sbu_1, # of connection points: 6
#     Edge 9, Type (0, 0), BuildingBlock: XIVTED_clean_linker_0, # of connection points: 2
#     Edge 10, Type (0, 0), BuildingBlock: XIVTED_clean_linker_0, # of connection points: 2
#     Edge 11, Type (0, 0), BuildingBlock: XIVTED_clean_linker_0, # of connection points: 2
#     Edge 12, Type (0, 0), BuildingBlock: XIVTED_clean_linker_0, # of connection points: 2
#     Edge 13, Type (0, 0), BuildingBlock: XIVTED_clean_linker_0, # of connection points: 2
#     Edge 14, Type (0, 0), BuildingBlock: XIVTED_clean_linker_0, # of connection points: 2
#     Edge 15, Type (0, 0), BuildingBlock: XIVTED_clean_linker_0, # of connection points: 2
#     Edge 16, Type (0, 0), BuildingBlock: XIVTED_clean_linker_0, # of connection points: 2
#     Edge 17, Type (0, 0), BuildingBlock: XIVTED_clean_linker_0, # of connection points: 2
#     Edge 18, Type (0, 0), BuildingBlock: XIVTED_clean_linker_0, # of connection points: 2
#     Edge 19, Type (0, 0), BuildingBlock: XIVTED_clean_linker_0, # of connection points: 2
#     Edge 20, Type (0, 0), BuildingBlock: XIVTED_clean_linker_0, # of connection points: 2
#     Edge 21, Type (0, 0), BuildingBlock: XIVTED_clean_linker_0, # of connection points: 2
#     Edge 22, Type (0, 0), BuildingBlock: XIVTED_clean_linker_0, # of connection points: 2
#     Edge 23, Type (0, 0), BuildingBlock: XIVTED_clean_linker_0, # of connection points: 2
#     Edge 24, Type (0, 0), BuildingBlock: XIVTED_clean_linker_0, # of connection points: 2
#     Edge 25, Type (0, 0), BuildingBlock: XIVTED_clean_linker_0, # of connection points: 2
#     Edge 26, Type (0, 0), BuildingBlock: XIVTED_clean_linker_0, # of connection points: 2
#     Edge 27, Type (0, 0), BuildingBlock: XIVTED_clean_linker_0, # of connection points: 2
#     Edge 28, Type (0, 0), BuildingBlock: XIVTED_clean_linker_0, # of connection points: 2
#     Edge 29, Type (0, 0), BuildingBlock: XIVTED_clean_linker_0, # of connection points: 2
#     Edge 30, Type (0, 0), BuildingBlock: XIVTED_clean_linker_0, # of connection points: 2
#     Edge 31, Type (0, 0), BuildingBlock: XIVTED_clean_linker_0, # of connection points: 2
#     Edge 32, Type (0, 0), BuildingBlock: XIVTED_clean_linker_0, # of connection points: 2
#     Edge 33, Type (0, 0), BuildingBlock: XIVTED_clean_linker_0, # of connection points: 2
#     Edge 34, Type (0, 0), BuildingBlock: XIVTED_clean_linker_0, # of connection points: 2
#     Edge 35, Type (0, 0), BuildingBlock: XIVTED_clean_linker_0, # of connection points: 2
# Relax obj value: 0.262
# Max RMSD: 0.273
# Mean RMSD: 0.244
data_MOF--net-snz--node1-CIFDUS_clean_sbu_1--edge1-XIVTED_clean_linker_0
_symmetry_space_group_name_H-M    P1
_symmetry_Int_Tables_number       1
_symmetry_cell_setting            triclinic
loop_
_symmetry_equiv_pos_as_xyz
'x, y, z'
_cell_length_a     49.547158
_cell_length_b     50.039003
_cell_length_c     14.906801
_cell_angle_alpha  91.849583
_cell_angle_beta   91.95556
_cell_angle_gamma 120.08757
loop_
_atom_site_label
_atom_site_type_symbol
_atom_site_fract_x
_atom_site_fract_y
_atom_site_fract_z
_atom_type_partial_charge
O0 O 0.05078 0.53697 0.09387 0.0
Mn1 Mn 0.0249 0.48987 0.05657 0.0
O2 O 0.01758 0.54708 0.16798 0.0
Mn3 Mn 0.98309 0.50706 0.16002 0.0
O4 O 1.00052 0.44305 0.01985 0.0
O5 O 0.04905 0.49592 0.94341 0.0
Mn6 Mn 0.0709 0.47787 0.96593 0.0
O7 O 0.05534 0.48101 0.13921 0.0
O8 O 0.04025 0.43619 0.97879 0.0
O9 O 0.99446 0.49847 0.97398 0.0
O10 O 0.95687 0.49517 0.05898 0.0
O11 O 0.08185 0.49231 0.85515 0.0
O12 O 0.09722 0.50048 0.06241 0.0
C13 C 0.98735 0.47644 0.24476 0.0
C14 C 0.04443 0.5555 0.13787 0.0
C15 C 0.01148 0.42552 -0.00384 0.0
C16 C 0.06128 0.50072 0.86546 0.0
C17 C 0.08462 0.49049 0.13483 0.0
C18 C 0.9682 0.4975 0.98303 0.0
O19 O 0.99948 0.48305 0.1668 0.0
O20 O 0.96904 0.48715 0.26282 0.0
O21 O 0.53937 0.44387 0.04761 0.0
Mn22 Mn 0.55786 0.4915 0.04422 0.0
O23 O 0.48904 0.4246 -0.00176 0.0
Mn24 Mn 0.49172 0.46095 0.95958 0.0
O25 O 0.5765 0.53923 0.03936 0.0
O26 O 0.58537 0.49865 0.15794 0.0
Mn27 Mn 0.62413 0.5224 0.12704 0.0
O28 O 0.59234 0.4956 0.9559 0.0
O29 O 0.62666 0.55891 0.0907 0.0
O30 O 0.52285 0.4873 0.132 0.0
O31 O 0.48413 0.48365 0.04325 0.0
O32 O 0.62806 0.5162 0.24547 0.0
O33 O 0.6327 0.50116 0.04054 0.0
C34 C 0.51895 0.48213 0.84925 0.0
C35 C 0.51128 0.42121 0.03132 0.0
C36 C 0.60455 0.56207 0.05549 0.0
C37 C 0.59781 0.50058 0.23809 0.0
C38 C 0.61895 0.49695 0.96395 0.0
C39 C 0.49686 0.48723 0.12098 0.0
O40 O 0.53061 0.48413 0.93035 0.0
O41 O 0.48874 0.46681 0.84012 0.0
O42 O 0.56587 0.98373 0.00638 0.0
Mn43 Mn 0.55156 0.01645 0.02283 0.0
O44 O 0.61297 0.00869 0.08231 0.0
Mn45 Mn 0.6089 0.04023 0.13684 0.0
O46 O 0.54011 0.05179 0.04375 0.0
O47 O 0.53482 0.00828 0.89235 0.0
Mn48 Mn 0.50433 0.01711 0.90128 0.0
O49 O 0.50776 0.98178 0.06219 0.0
O50 O 0.52761 0.05922 0.90658 0.0
O51 O 0.59323 0.05013 0.96953 0.0
O52 O 0.62641 0.07714 0.08246 0.0
O53 O 0.49098 0.98692 0.81206 0.0
O54 O 0.4815 0.00245 0.00179 0.0
C55 C 0.5791 0.03013 0.23925 0.0
C56 C 0.59195 0.98589 0.03309 0.0
C57 C 0.53713 0.06928 0.98728 0.0
C58 C 0.51638 0.98661 0.83283 0.0
C59 C 0.48205 0.98166 0.04644 0.0
C60 C 0.61832 0.07431 0.00025 0.0
O61 O 0.56857 0.02489 0.15495 0.0
O62 O 0.60895 0.04248 0.25652 0.0
O63 O 0.70945 0.86074 0.1327 0.0
Mn64 Mn 0.73349 0.8382 0.16971 0.0
O65 O 0.7475 0.90551 0.08189 0.0
Mn66 Mn 0.78013 0.89675 0.08326 0.0
O67 O 0.7569 0.81508 0.20617 0.0
O68 O 0.707 0.81989 0.27796 0.0
Mn69 Mn 0.68546 0.77995 0.24907 0.0
O70 O 0.70466 0.7999 0.07898 0.0
O71 O 0.71657 0.76894 0.24129 0.0
O72 O 0.76253 0.87673 0.25978 0.0
O73 O 0.80481 0.90647 0.18722 0.0
O74 O 0.67241 0.78404 0.35871 0.0
O75 O 0.66104 0.77475 0.1474 0.0
C76 C 0.77278 0.86207 0.98505 0.0
C77 C 0.71899 0.88739 0.10015 0.0
C78 C 0.74568 0.7869 0.22846 0.0
C79 C 0.69391 0.81273 0.35472 0.0
C80 C 0.67567 0.77893 0.07701 0.0
C81 C 0.7906 0.89973 0.25905 0.0
O82 O 0.76044 0.85643 0.06294 0.0
O83 O 0.79361 0.89073 0.97623 0.0
O84 O 0.19056 0.80253 0.26671 0.0
Mn85 Mn 0.21066 0.85031 0.28774 0.0
O86 O 0.14423 0.78732 0.19165 0.0
Mn87 Mn 0.14782 0.8261 0.18473 0.0
O88 O 0.23081 0.89807 0.30921 0.0
O89 O 0.23319 0.8503 0.40394 0.0
Mn90 Mn 0.27328 0.87386 0.39014 0.0
O91 O 0.24822 0.8569 0.20712 0.0
O92 O 0.27906 0.91304 0.36921 0.0
O93 O 0.17334 0.84245 0.36911 0.0
O94 O 0.13541 0.84053 0.28012 0.0
O95 O 0.2711 0.86133 0.50434 0.0
O96 O 0.28207 0.85391 0.302 0.0
C97 C 0.17919 0.85465 0.09215 0.0
C98 C 0.16456 0.78167 0.22725 0.0
C99 C 0.25837 0.91917 0.33895 0.0
C100 C 0.24128 0.84792 0.48572 0.0
C101 C 0.27201 0.85336 0.22266 0.0
C102 C 0.14687 0.84125 0.35786 0.0
O103 O 0.1879 0.85135 0.17245 0.0
O104 O 0.14929 0.84128 0.07485 0.0
O105 O 0.26534 0.36744 0.32022 0.0
Mn106 Mn 0.21725 0.33928 0.33388 0.0
O107 O 0.27843 0.33196 0.27701 0.0
Mn108 Mn 0.23798 0.29861 0.24825 0.0
O109 O 0.16964 0.31017 0.34863 0.0
O110 O 0.21992 0.36314 0.44933 0.0
Mn111 Mn 0.19331 0.37626 0.44052 0.0
O112 O 0.20626 0.36728 0.25278 0.0
O113 O 0.15466 0.33972 0.42618 0.0
O114 O 0.22658 0.31184 0.41927 0.0
O115 O 0.21839 0.27131 0.33512 0.0
O116 O 0.21177 0.38922 0.55396 0.0
O117 O 0.20617 0.4025 0.34892 0.0
C118 C 0.21312 0.30227 0.13755 0.0
C119 C 0.2859 0.35975 0.30162 0.0
C120 C 0.14903 0.31401 0.38798 0.0
C121 C 0.22487 0.37327 0.53287 0.0
C122 C 0.2051 0.39217 0.26948 0.0
C123 C 0.22088 0.28391 0.41181 0.0
O124 O 0.21541 0.31552 0.21668 0.0
O125 O 0.22546 0.28481 0.13227 0.0
O126 O 0.39676 0.14867 0.7854 0.0
Mn127 Mn 0.37176 0.1674 0.73165 0.0
O128 O 0.3632 0.11277 0.87546 0.0
Mn129 Mn 0.32609 0.11169 0.83548 0.0
O130 O 0.34616 0.18673 0.68234 0.0
O131 O 0.4114 0.20897 0.73683 0.0
Mn132 Mn 0.41554 0.22557 0.63258 0.0
O133 O 0.37816 0.15673 0.60194 0.0
O134 O 0.38089 0.23077 0.62072 0.0
O135 O 0.36519 0.17798 0.86146 0.0
O136 O 0.31862 0.14006 0.89411 0.0
O137 O 0.44983 0.2536 0.70385 0.0
O138 O 0.41812 0.19896 0.54984 0.0
C139 C 0.31062 0.09841 0.6963 0.0
C140 C 0.39066 0.12936 0.84686 0.0
C141 C 0.35343 0.21209 0.64514 0.0
C142 C 0.43662 0.23407 0.76511 0.0
C143 C 0.3976 0.1704 0.54188 0.0
C144 C 0.34259 0.16627 0.91383 0.0
O145 O 0.33327 0.12507 0.72641 0.0
O146 O 0.29614 0.08005 0.75894 0.0
O147 O 0.91758 0.17684 0.59338 0.0
Mn148 Mn 0.87355 0.16229 0.64105 0.0
O149 O 0.92289 0.21441 0.50212 0.0
Mn150 Mn 0.88933 0.21911 0.53575 0.0
O151 O 0.82951 0.15009 0.68405 0.0
O152 O 0.86355 0.11703 0.63602 0.0
Mn153 Mn 0.84818 0.10397 0.74166 0.0
O154 O 0.89148 0.17141 0.77398 0.0
O155 O 0.81117 0.10465 0.7477 0.0
O156 O 0.85577 0.15332 0.50811 0.0
O157 O 0.85164 0.19377 0.47403 0.0
O158 O 0.84703 0.07061 0.68835 0.0
O159 O 0.87876 0.12606 0.83028 0.0
C160 C 0.89032 0.23441 0.67145 0.0
C161 C 0.93224 0.19677 0.53448 0.0
C162 C 0.80797 0.12692 0.72151 0.0
C163 C 0.858 0.08869 0.62248 0.0
C164 C 0.89288 0.15535 0.83721 0.0
C165 C 0.84632 0.16672 0.45416 0.0
O166 O 0.88352 0.2067 0.64575 0.0
O167 O 0.89562 0.25272 0.60674 0.0
O168 O 0.82916 0.631 0.63447 0.0
Mn169 Mn 0.87486 0.66018 0.59688 0.0
O170 O 0.81744 0.66274 0.71391 0.0
Mn171 Mn 0.85459 0.70008 0.70245 0.0
O172 O 0.92075 0.69018 0.56287 0.0
O173 O 0.8832 0.62389 0.59754 0.0
Mn174 Mn 0.89763 0.62371 0.49076 0.0
O175 O 0.85929 0.65238 0.46302 0.0
O176 O 0.93569 0.66045 0.48842 0.0
O177 O 0.89062 0.66866 0.73047 0.0
O178 O 0.8878 0.70944 0.78163 0.0
O179 O 0.89725 0.59139 0.54244 0.0
O180 O 0.86709 0.61565 0.40378 0.0
C181 C 0.86141 0.71789 0.57268 0.0
C182 C 0.81032 0.63595 0.68027 0.0
C183 C 0.94145 0.68654 0.52339 0.0
C184 C 0.88796 0.60081 0.61033 0.0
C185 C 0.85595 0.63347 0.39822 0.0
C186 C 0.89705 0.69013 0.79061 0.0
O187 O 0.86652 0.69596 0.59592 0.0
O188 O 0.85375 0.73016 0.63744 0.0
H189 H 0.99989 0.47033 0.80788 0.0
H190 H 0.04855 0.50361 0.29953 0.0
H191 H 0.0918 0.53786 0.73325 0.0
H192 H 0.95611 0.43637 0.37097 0.0
H193 H 0.06595 0.51319 0.45841 0.0
H194 H 0.98241 0.45885 0.64837 0.0
C195 C 0.01593 0.48386 0.75809 0.0
C196 C 0.04725 0.50518 0.78337 0.0
C197 C 0.04202 0.49573 0.43937 0.0
C198 C 0.02814 0.49095 0.60137 0.0
C199 C 0.03237 0.48949 0.34819 0.0
C200 C 1.0009 0.46902 0.32216 0.0
C201 C 0.01997 0.48136 0.50441 0.0
C202 C 0.98064 0.45221 0.38858 0.0
C203 C 0.00625 0.47668 0.66692 0.0
C204 C 0.06738 0.5214 0.71614 0.0
N205 N 0.99031 0.45923 0.4769 0.0
N206 N 0.05766 0.51358 0.62815 0.0
H207 H 0.51055 0.51195 0.71388 0.0
H208 H 0.61014 0.4738 0.37546 0.0
H209 H 0.56425 0.4699 0.79538 0.0
H210 H 0.54961 0.50821 0.29249 0.0
H211 H 0.59363 0.47172 0.52898 0.0
H212 H 0.52715 0.51337 0.56086 0.0
C213 C 0.52677 0.50399 0.69998 0.0
C214 C 0.53671 0.49153 0.76774 0.0
C215 C 0.58344 0.47914 0.47704 0.0
C216 C 0.55472 0.49172 0.59165 0.0
C217 C 0.59252 0.47994 0.38913 0.0
C218 C 0.5807 0.49058 0.32078 0.0
C219 C 0.5627 0.48956 0.49729 0.0
C220 C 0.55853 0.49894 0.34236 0.0
C221 C 0.53583 0.50433 0.61231 0.0
C222 C 0.55695 0.48068 0.74585 0.0
N223 N 0.55049 0.49857 0.42901 0.0
N224 N 0.56513 0.48082 0.65939 0.0
H225 H 0.48456 0.93885 0.70715 0.0
H226 H 0.58299 0.06507 0.38385 0.0
H227 H 0.57652 0.01517 0.78246 0.0
H228 H 0.53412 0.97117 0.27128 0.0
H229 H 0.5705 0.04591 0.53386 0.0
H230 H 0.49665 0.9458 0.54864 0.0
C231 C 0.5079 0.95607 0.69061 0.0
C232 C 0.5291 0.97761 0.75739 0.0
C233 C 0.56207 0.02947 0.47626 0.0
C234 C 0.54241 0.98614 0.57797 0.0
C235 C 0.5684 0.0404 0.39072 0.0
C236 C 0.55936 0.01962 0.31568 0.0
C237 C 0.54637 0.99752 0.48673 0.0
C238 C 0.54104 0.98784 0.32787 0.0
C239 C 0.5145 0.96032 0.60014 0.0
C240 C 0.5591 0.99898 0.73276 0.0
N241 N 0.53528 0.97756 0.41256 0.0
N242 N 0.56447 0.00369 0.64448 0.0
H243 H 0.75546 0.84265 0.41362 0.0
H244 H 0.71108 0.83274 0.92926 0.0
H245 H 0.66366 0.81792 0.4957 0.0
H246 H 0.8016 0.8533 0.84615 0.0
H247 H 0.69235 0.82473 0.77109 0.0
H248 H 0.77371 0.84974 0.57225 0.0
C249 C 0.73954 0.84021 0.46497 0.0
C250 C 0.70811 0.83013 0.44147 0.0
C251 C 0.71613 0.83026 0.78735 0.0
C252 C 0.72824 0.83633 0.62308 0.0
C253 C 0.72654 0.83391 0.87793 0.0
C254 C 0.75781 0.84318 0.90096 0.0
C255 C 0.73724 0.83615 0.71955 0.0
C256 C 0.77719 0.84574 0.83119 0.0
C257 C 0.74971 0.84339 0.55566 0.0
C258 C 0.68819 0.82609 0.51106 0.0
N259 N 0.76679 0.84277 0.74381 0.0
N260 N 0.69843 0.82879 0.59849 0.0
H261 H 0.20284 0.86969 0.53085 0.0
H262 H 0.21979 0.83591 0.04454 0.0
H263 H 0.23833 0.81125 0.61726 0.0
H264 H 0.17909 0.89013 0.96001 0.0
H265 H 0.23079 0.83032 0.88872 0.0
H266 H 0.1918 0.87605 0.68644 0.0
C267 C 0.2067 0.85684 0.58184 0.0
C268 C 0.22109 0.83959 0.56144 0.0
C269 C 0.22008 0.84405 0.90439 0.0
C270 C 0.21069 0.84843 0.73978 0.0
C271 C 0.21474 0.84808 -0.00608 0.0
C272 C 0.19892 0.86386 0.01511 0.0
C273 C 0.2093 0.85577 0.83608 0.0
C274 C 0.19164 0.87804 0.94615 0.0
C275 C 0.20131 0.86122 0.67112 0.0
C276 C 0.22688 0.82447 0.63056 0.0
N277 N 0.19639 0.87324 0.85941 0.0
N278 N 0.22218 0.82965 0.71694 0.0
H279 H 0.19787 0.31255 0.56627 0.0
H280 H 0.23338 0.36132 0.09098 0.0
H281 H 0.26617 0.40392 0.67299 0.0
H282 H 0.18151 0.26625 -0.01126 0.0
H283 H 0.24118 0.3776 0.93614 0.0
H284 H 0.19165 0.29414 0.71822 0.0
C285 C 0.21298 0.32832 0.62099 0.0
C286 C 0.23311 0.35967 0.60692 0.0
C287 C 0.22759 0.35318 0.94754 0.0
C288 C 0.22422 0.33946 0.78166 0.0
C289 C 0.2224 0.34396 0.03592 0.0
C290 C 0.20647 0.31245 0.0524 0.0
C291 C 0.21665 0.33066 0.87561 0.0
C292 C 0.19366 0.29082 0.97854 0.0
C293 C 0.20869 0.31804 0.70826 0.0
C294 C 0.25082 0.37947 0.68109 0.0
N295 N 0.19928 0.30028 0.89335 0.0
N296 N 0.24551 0.36922 0.7655 0.0
H297 H 0.43718 0.17824 0.40988 0.0
H298 H 0.30275 0.1522 0.0495 0.0
H299 H 0.33957 0.13427 0.46484 0.0
H300 H 0.40066 0.19544 -0.00285 0.0
H301 H 0.31553 0.14509 0.20323 0.0
H302 H 0.42316 0.17857 0.2517 0.0
C303 C 0.4127 0.16733 0.38778 0.0
C304 C 0.38954 0.15663 0.45023 0.0
C305 C 0.33423 0.1566 0.15822 0.0
C306 C 0.37349 0.15832 0.27192 0.0
C307 C 0.32702 0.1613 0.07129 0.0
C308 C 0.3506 0.1743 0.01019 0.0
C309 C 0.36518 0.16515 0.18363 0.0
C310 C 0.38169 0.18567 0.04173 0.0
C311 C 0.40472 0.16812 0.29806 0.0
C312 C 0.35815 0.14263 0.41875 0.0
N313 N 0.388 0.18032 0.12593 0.0
N314 N 0.35105 0.14466 0.33179 0.0
H315 H 0.83011 0.19105 0.31471 0.0
H316 H 0.91749 0.13849 0.97514 0.0
H317 H 0.85935 0.12497 0.3727 0.0
H318 H 0.88428 0.20075 0.90944 0.0
H319 H 0.90289 0.13926 0.12926 0.0
H320 H 0.84997 0.19529 0.16556 0.0
C321 C 0.83981 0.17669 0.29517 0.0
C322 C 0.84404 0.15844 0.35746 0.0
C323 C 0.89945 0.15333 0.08167 0.0
C324 C 0.8676 0.16393 0.18828 0.0
C325 C 0.9085 0.1535 -0.00564 0.0
C326 C 0.90134 0.16897 0.92931 0.0
C327 C 0.88333 0.16886 0.10328 0.0
C328 C 0.88993 0.18827 0.95742 0.0
C329 C 0.85174 0.17963 0.21066 0.0
C330 C 0.85621 0.13991 0.32779 0.0
N331 N 0.88036 0.18696 0.04208 0.0
N332 N 0.86823 0.14366 0.24582 0.0
H333 H 0.86786 0.68888 0.34061 0.0
H334 H 0.89345 0.63829 0.85662 0.0
H335 H 0.83439 0.59418 0.24879 0.0
H336 H 0.9169 0.73165 0.93531 0.0
H337 H 0.87822 0.6233 0.00809 0.0
H338 H 0.88457 0.70519 0.1917 0.0
C339 C 0.86243 0.67125 0.28799 0.0
C340 C 0.85022 0.64017 0.3073 0.0
C341 C 0.8871 0.64717 -0.0075 0.0
C342 C 0.87118 0.65891 0.13868 0.0
C343 C 0.89655 0.65597 0.90656 0.0
C344 C 0.90484 0.68589 0.88258 0.0
C345 C 0.88659 0.66869 0.05406 0.0
C346 C 0.90936 0.70799 0.95058 0.0
C347 C 0.87298 0.68074 0.20347 0.0
C348 C 0.84431 0.61847 0.23662 0.0
N349 N 0.89921 0.69872 0.03313 0.0
N350 N 0.85568 0.62836 0.15551 0.0
H351 H 0.1479 0.36075 0.18251 0.0
H352 H 0.14364 0.51861 0.20941 0.0
H353 H 0.2296 0.45129 0.22067 0.0
H354 H 0.06087 0.42923 0.16077 0.0
H355 H 0.17504 0.49359 0.21939 0.0
H356 H 0.11572 0.38479 0.16123 0.0
C357 C 0.15934 0.38572 0.18101 0.0
C358 C 0.19152 0.40406 0.20357 0.0
C359 C 0.14994 0.47928 0.20834 0.0
C360 C 0.15468 0.43175 0.18464 0.0
C361 C 0.13191 0.49357 0.20529 0.0
C362 C 0.09954 0.47602 0.18545 0.0
C363 C 0.13558 0.44712 0.19096 0.0
C364 C 0.08567 0.44364 0.17785 0.0
C365 C 0.1408 0.39945 0.17177 0.0
C366 C 0.20491 0.4363 0.20303 0.0
N367 N 0.10381 0.43025 0.17905 0.0
N368 N 0.1864 0.4491 0.19622 0.0
H369 H 0.56526 0.58521 0.01926 0.0
H370 H 0.7093 0.75667 -0.00694 0.0
H371 H 0.6625 0.61069 0.03075 0.0
H372 H 0.6149 0.73607 0.02897 0.0
H373 H 0.68977 0.70173 0.95971 0.0
H374 H 0.58076 0.63856 0.98452 0.0
C375 C 0.58978 0.60188 0.01386 0.0
C376 C 0.61262 0.59356 0.02984 0.0
C377 C 0.67318 0.70929 0.97238 0.0
C378 C 0.63045 0.65436 -0.01151 0.0
C379 C 0.6843 0.74084 -0.0102 0.0
C380 C 0.66377 0.75094 0.01583 0.0
C381 C 0.64135 0.6878 0.98082 0.0
C382 C 0.63159 0.72917 0.01061 0.0
C383 C 0.5986 0.63228 -0.00628 0.0
C384 C 0.64405 0.61611 0.02101 0.0
N385 N 0.62142 0.69852 -0.00386 0.0
N386 N 0.65199 0.64538 0.00156 0.0
H387 H 0.46163 0.93946 0.18242 0.0
H388 H 0.2875 0.89061 0.07958 0.0
H389 H 0.43115 0.96142 0.93481 0.0
H390 H 0.31043 0.82946 0.21726 0.0
H391 H 0.33982 0.91633 0.02177 0.0
H392 H 0.40673 0.89894 0.20067 0.0
C393 C 0.44364 0.93558 0.13178 0.0
C394 C 0.45086 0.95445 0.05864 0.0
C395 C 0.33307 0.8967 0.06274 0.0
C396 C 0.38872 0.9087 0.0785 0.0
C397 C 0.30295 0.88165 0.09428 0.0
C398 C 0.29482 0.85826 0.15456 0.0
C399 C 0.3551 0.88856 0.09323 0.0
C400 C 0.31606 0.84783 0.17201 0.0
C401 C 0.41243 0.91251 0.14186 0.0
C402 C 0.42662 0.94822 -0.00582 0.0
N403 N 0.34564 0.86375 0.14438 0.0
N404 N 0.39675 0.92636 0.00634 0.0
H405 H 0.49966 0.06596 0.12033 0.0
H406 H 0.45257 0.16389 0.81349 0.0
H407 H 0.55651 0.1252 0.91853 0.0
H408 H 0.38978 0.09282 0.98227 0.0
H409 H 0.49616 0.16149 0.88461 0.0
H410 H 0.46684 0.08952 0.11029 0.0
C411 C 0.50632 0.08518 0.07766 0.0
C412 C 0.53035 0.09327 0.01862 0.0
C413 C 0.47289 0.14658 0.90664 0.0
C414 C 0.49243 0.11939 0.00439 0.0
C415 C 0.44785 0.14767 0.86537 0.0
C416 C 0.41721 0.12788 0.8901 0.0
C417 C 0.46741 0.12545 0.97297 0.0
C418 C 0.41285 0.10801 0.95951 0.0
C419 C 0.48718 0.0982 0.0706 0.0
C420 C 0.53786 0.1181 0.96419 0.0
N421 N 0.43763 0.10703 -0.00225 0.0
N422 N 0.5184 0.12972 0.95641 0.0
H423 H 0.8614 0.25961 0.7616 0.0
H424 H 0.02659 0.37985 0.98527 0.0
H425 H 0.93811 0.24243 0.78526 0.0
H426 H 0.94724 0.3936 0.97927 0.0
H427 H 0.99162 0.32508 0.94363 0.0
H428 H 0.8879 0.30216 0.87572 0.0
C429 C 0.88317 0.26386 0.7944 0.0
C430 C 0.89759 0.24752 0.76448 0.0
C431 C 0.98174 0.33992 0.95271 0.0
C432 C 0.92905 0.29737 0.891 0.0
C433 C 1.00175 0.37131 0.97605 0.0
C434 C 0.98996 0.39158 0.98378 0.0
C435 C 0.94966 0.32865 0.93565 0.0
C436 C 0.95747 0.37897 0.97294 0.0
C437 C 0.89858 0.28851 0.85857 0.0
C438 C 0.92613 0.25436 0.80728 0.0
N439 N 0.93856 0.34847 0.94784 0.0
N440 N 0.94136 0.27934 0.86673 0.0
H441 H 0.75674 0.63805 0.6903 0.0
H442 H 0.66582 0.48427 0.93623 0.0
H443 H 0.79176 0.57486 0.7067 0.0
H444 H 0.62033 0.53048 0.8213 0.0
H445 H 0.71026 0.51355 0.84371 0.0
H446 H 0.70574 0.59719 0.73164 0.0
C447 C 0.75358 0.61541 0.70188 0.0
C448 C 0.77863 0.60993 0.69566 0.0
C449 C 0.69016 0.5166 0.8366 0.0
C450 C 0.72011 0.5629 0.74441 0.0
C451 C 0.66463 0.49968 0.88888 0.0
C452 C 0.63924 0.50489 0.88665 0.0
C453 C 0.69065 0.53943 0.78319 0.0
C454 C 0.63917 0.52544 0.8248 0.0
C455 C 0.72435 0.59199 0.72498 0.0
C456 C 0.77308 0.58006 0.7107 0.0
N457 N 0.66479 0.54249 0.77731 0.0
N458 N 0.74456 0.55781 0.73609 0.0
H459 H 0.8485 0.5454 0.67594 0.0
H460 H 0.99883 0.54602 0.87673 0.0
H461 H 0.93665 0.62912 0.7321 0.0
H462 H 0.90656 0.47494 0.93794 0.0
H463 H 0.97579 0.57374 0.80322 0.0
H464 H 0.86758 0.51735 0.76549 0.0
C465 C 0.87124 0.55821 0.71146 0.0
C466 C 0.89085 0.58971 0.69791 0.0
C467 C 0.96057 0.55183 0.83165 0.0
C468 C 0.91373 0.55742 0.79409 0.0
C469 C 0.97365 0.53564 0.87152 0.0
C470 C 0.95453 0.50796 0.91247 0.0
C471 C 0.92814 0.54001 0.83165 0.0
C472 C 0.92206 0.49605 0.9062 0.0
C473 C 0.88243 0.54206 0.7606 0.0
C474 C 0.9206 0.60496 0.74241 0.0
N475 N 0.90987 0.51214 0.86687 0.0
N476 N 0.9315 0.58854 0.7864 0.0
H477 H 0.54989 0.39662 0.01972 0.0
H478 H 0.40151 0.23797 0.89438 0.0
H479 H 0.45566 0.37275 0.07358 0.0
H480 H 0.49478 0.25845 0.84378 0.0
H481 H 0.42272 0.27922 0.01214 0.0
H482 H 0.53286 0.34138 0.00432 0.0
C483 C 0.52584 0.37978 0.03082 0.0
C484 C 0.50391 0.38916 0.04495 0.0
C485 C 0.43864 0.27404 0.97803 0.0
C486 C 0.4842 0.32612 0.02692 0.0
C487 C 0.42636 0.24986 0.91195 0.0
C488 C 0.44643 0.24479 0.85953 0.0
C489 C 0.47121 0.29393 -0.01126 0.0
C490 C 0.47858 0.26179 0.88293 0.0
C491 C 0.51607 0.34822 0.02192 0.0
C492 C 0.47311 0.36643 0.05972 0.0
N493 N 0.49012 0.28632 0.94378 0.0
N494 N 0.46406 0.33601 0.04859 0.0
H495 H 0.74936 0.07945 0.67945 0.0
H496 H 0.6741 0.12783 0.04074 0.0
H497 H 0.79989 0.1722 0.80061 0.0
H498 H 0.61825 0.06447 0.81826 0.0
H499 H 0.71966 0.14829 0.94966 0.0
H500 H 0.70044 0.07533 0.72411 0.0
C501 C 0.74997 0.09908 0.71447 0.0
C502 C 0.77845 0.12606 0.73723 0.0
C503 C 0.69723 0.13048 0.91996 0.0
C504 C 0.72291 0.12138 0.79028 0.0
C505 C 0.67116 0.11876 0.97191 0.0
C506 C 0.6425 0.09352 0.93817 0.0
C507 C 0.69463 0.11647 0.83458 0.0
C508 C 0.64002 0.08319 0.84803 0.0
C509 C 0.72212 0.09685 0.73939 0.0
C510 C 0.77822 0.151 0.78215 0.0
N511 N 0.66597 0.09403 0.8002 0.0
N512 N 0.75085 0.1478 0.80939 0.0
H513 H 0.57044 0.93089 0.11068 0.0
H514 H 0.72691 0.93384 -0.00603 0.0
H515 H 0.63276 0.98792 0.91483 0.0
H516 H 0.6587 0.86387 0.15462 0.0
H517 H 0.69015 0.951 0.95764 0.0
H518 H 0.59823 0.90175 0.11681 0.0
C519 C 0.589 0.93622 0.0657 0.0
C520 C 0.59902 0.96135 0.01076 0.0
C521 C 0.683 0.93176 0.00044 0.0
C522 C 0.63182 0.92938 0.02058 0.0
C523 C 0.70417 0.92206 0.02197 0.0
C524 C 0.69611 0.89752 0.07839 0.0
C525 C 0.65342 0.91719 0.03619 0.0
C526 C 0.66602 0.88298 0.11127 0.0
C527 C 0.60519 0.91996 0.07028 0.0
C528 C 0.62399 0.96828 0.95664 0.0
N529 N 0.64585 0.89324 0.09045 0.0
N530 N 0.63979 0.95269 0.9638 0.0
H531 H 0.1545 0.74333 0.36371 0.0
H532 H 0.09259 0.59217 0.03315 0.0
H533 H 0.15645 0.74673 0.07549 0.0
H534 H 0.0524 0.59292 0.28479 0.0
H535 H 0.12992 0.64788 0.06042 0.0
H536 H 0.13124 0.68675 0.34744 0.0
C537 C 0.15086 0.73218 0.29734 0.0
C538 C 0.15722 0.74935 0.22074 0.0
C539 C 0.11314 0.63563 0.10998 0.0
C540 C 0.13086 0.68531 0.20158 0.0
C541 C 0.09194 0.60396 0.09458 0.0
C542 C 0.06911 0.58814 0.15612 0.0
C543 C 0.11185 0.65124 0.18835 0.0
C544 C 0.06929 0.60442 0.23486 0.0
C545 C 0.13744 0.70003 0.28799 0.0
C546 C 0.15173 0.73404 0.13595 0.0
N547 N 0.09026 0.63509 0.24865 0.0
N548 N 0.13872 0.70279 0.12847 0.0
H549 H 0.48439 0.44539 0.24928 0.0
H550 H 0.31328 0.423 0.28934 0.0
H551 H 0.4575 0.50931 0.15185 0.0
H552 H 0.33597 0.35098 0.32119 0.0
H553 H 0.3691 0.46031 0.27717 0.0
H554 H 0.43413 0.41731 0.31889 0.0
C555 C 0.46861 0.45447 0.24638 0.0
C556 C 0.47518 0.47976 0.19455 0.0
C557 C 0.36185 0.43641 0.28813 0.0
C558 C 0.41709 0.44709 0.2714 0.0
C559 C 0.32998 0.4151 0.29528 0.0
C560 C 0.31977 0.38367 0.30519 0.0
C561 C 0.38377 0.42633 0.29201 0.0
C562 C 0.3426 0.37485 0.31228 0.0
C563 C 0.4396 0.43804 0.28463 0.0
C564 C 0.4534 0.48996 0.19135 0.0
N565 N 0.37335 0.39594 0.30505 0.0
N566 N 0.42517 0.47334 0.22764 0.0
H567 H 0.89164 0.77242 0.49337 0.0
H568 H 0.73092 0.7265 0.23764 0.0
H569 H 0.81582 0.67865 0.45014 0.0
H570 H 0.80961 0.81963 0.26054 0.0
H571 H 0.76511 0.70735 0.28849 0.0
H572 H 0.86695 0.78853 0.37916 0.0
C573 C 0.87058 0.75495 0.4562 0.0
C574 C 0.85596 0.72411 0.48017 0.0
C575 C 0.77508 0.73194 0.28116 0.0
C576 C 0.82647 0.74257 0.35332 0.0
C577 C 0.75549 0.74295 0.25237 0.0
C578 C 0.76725 0.77483 0.24615 0.0
C579 C 0.80669 0.75293 0.3053 0.0
C580 C 0.79942 0.79489 0.26491 0.0
C581 C 0.85617 0.76422 0.39204 0.0
C582 C 0.82811 0.70256 0.43242 0.0
N583 N 0.81788 0.78367 0.29508 0.0
N584 N 0.81391 0.71229 0.3727 0.0
H585 H 0.35339 0.09663 0.59045 0.0
H586 H 0.21812 0.94187 0.34992 0.0
H587 H 0.25571 0.06752 0.59748 0.0
H588 H 0.31619 0.97112 0.35134 0.0
H589 H 0.23199 0.99436 0.40217 0.0
H590 H 0.34118 0.05916 0.4645 0.0
C591 C 0.32956 0.08349 0.56231 0.0
C592 C 0.30559 0.08557 0.60308 0.0
C593 C 0.2505 0.98947 0.38915 0.0
C594 C 0.29101 0.04098 0.46325 0.0
C595 C 0.24257 0.95949 0.35893 0.0
C596 C 0.26601 0.95188 0.34852 0.0
C597 C 0.28207 0.01191 0.40912 0.0
C598 C 0.29731 0.97574 0.36074 0.0
C599 C 0.32244 0.0616 0.49137 0.0
C600 C 0.27488 0.06681 0.5669 0.0
N601 N 0.30439 0.00447 0.3918 0.0
N602 N 0.26836 0.04488 0.50021 0.0
H603 H 0.97874 0.19424 0.6327 0.0
H604 H 0.10236 0.27864 0.25916 0.0
H605 H 0.95437 0.21072 0.36795 0.0
H606 H 0.12574 0.28879 0.54392 0.0
H607 H 0.04816 0.2395 0.28734 0.0
H608 H 0.03261 0.21403 0.58891 0.0
C609 C 0.98454 0.20123 0.56472 0.0
C610 C 0.96235 0.20146 0.50438 0.0
C611 C 0.06535 0.24989 0.34338 0.0
C612 C 0.02359 0.2241 0.45405 0.0
C613 C 0.09615 0.27206 0.32721 0.0
C614 C 0.11812 0.28699 0.39959 0.0
C615 C 0.05683 0.2426 0.43233 0.0
C616 C 0.10917 0.27789 0.48666 0.0
C617 C 0.01526 0.21269 0.53992 0.0
C618 C 0.97103 0.21077 0.41704 0.0
N619 N 0.07915 0.25644 0.50076 0.0
N620 N 1.00104 0.22206 0.39478 0.0
H621 H 0.36294 0.27044 0.64715 0.0
H622 H 0.19898 0.22282 0.43626 0.0
H623 H 0.28969 0.17469 0.62281 0.0
H624 H 0.26183 0.31417 0.55607 0.0
H625 H 0.22728 0.20291 0.52229 0.0
H626 H 0.32391 0.28598 0.62678 0.0
C627 C 0.33856 0.25266 0.63733 0.0
C628 C 0.32954 0.22124 0.6348 0.0
C629 C 0.23426 0.22711 0.53214 0.0
C630 C 0.2846 0.23887 0.61181 0.0
C631 C 0.21799 0.23845 0.48346 0.0
C632 C 0.22858 0.2703 0.4876 0.0
C633 C 0.26153 0.24794 0.58372 0.0
C634 C 0.2531 0.28952 0.55013 0.0
C635 C 0.31622 0.26155 0.62696 0.0
C636 C 0.29759 0.19918 0.62413 0.0
N637 N 0.26938 0.2782 0.59383 0.0
N638 N 0.27623 0.20841 0.61125 0.0
H639 H 0.85077 0.93713 0.3244 0.0
H640 H 0.81459 0.06921 0.4846 0.0
H641 H 0.75785 0.92298 0.34062 0.0
H642 H 0.89895 0.07088 0.57384 0.0
H643 H 0.7981 0.02068 0.39689 0.0
H644 H 0.87211 0.98927 0.39531 0.0
C645 C 0.83483 0.94465 0.34575 0.0
C646 C 0.80246 0.9255 0.32808 0.0
C647 C 0.82067 0.03215 0.43356 0.0
C648 C 0.82678 0.98571 0.40372 0.0
C649 C 0.83051 0.06034 0.48136 0.0
C650 C 0.85828 0.07416 0.53588 0.0
C651 C 0.83898 0.01801 0.43969 0.0
C652 C 0.87757 0.06113 0.53159 0.0
C653 C 0.84703 0.97456 0.38462 0.0
C654 C 0.78287 0.93669 0.3548 0.0
N655 N 0.86736 0.03348 0.48571 0.0
N656 N 0.79536 0.96623 0.38996 0.0
H657 H 0.99502 0.68423 0.51392 0.0
H658 H 0.10103 0.85498 0.38825 0.0
H659 H 0.96195 0.74915 0.53093 0.0
H660 H 0.13885 0.79908 0.48096 0.0
H661 H 0.05145 0.81974 0.45246 0.0
H662 H 0.04827 0.72722 0.50743 0.0
C663 C 0.99896 0.70758 0.51624 0.0
C664 C 0.97387 0.71303 0.52177 0.0
C665 C 0.07088 0.81571 0.46144 0.0
C666 C 0.03516 0.76264 0.51447 0.0
C667 C 0.09934 0.83605 0.42572 0.0
C668 C 0.12405 0.82984 0.4286 0.0
C669 C 0.06693 0.78864 0.4986 0.0
C670 C 0.12047 0.80481 0.47718 0.0
C671 C 0.02949 0.73218 0.51356 0.0
C672 C 0.98057 0.74388 0.52613 0.0
N673 N 0.09213 0.78461 0.5079 0.0
N674 N 0.01053 0.76752 0.52084 0.0
loop_
_geom_bond_atom_site_label_1
_geom_bond_atom_site_label_2
_geom_bond_distance
_geom_bond_site_symmetry_2
_ccdc_geom_bond_type
O0 Mn1 2.163 . S
O0 C14 1.244 . S
Mn1 O0 2.163 . S
Mn1 O4 2.160 1_455 S
Mn1 O5 2.221 1_554 S
Mn1 O7 2.163 . S
Mn1 O9 2.160 1_455 S
Mn1 O19 2.231 . S
O2 Mn3 2.087 . S
O2 C14 1.256 . S
Mn3 O2 2.087 . S
Mn3 O10 2.089 1_455 S
Mn3 O19 2.278 . S
Mn3 O20 2.251 . S
O4 Mn1 2.160 1_655 S
O4 C15 1.239 . S
O5 Mn1 2.221 1_556 S
O5 Mn6 2.290 . S
O5 C16 1.278 . S
Mn6 O5 2.290 . S
Mn6 O8 2.089 1_455 S
Mn6 O11 2.251 . S
Mn6 O12 2.087 . S
O7 Mn1 2.163 . S
O7 C17 1.244 . S
O8 Mn6 2.089 1_655 S
O8 C15 1.256 1_556 S
O9 Mn1 2.160 1_655 S
O9 C18 1.239 . S
O10 Mn3 2.089 1_655 S
O10 C18 1.256 . S
O11 Mn6 2.251 . S
O11 C16 1.241 . S
O12 Mn6 2.087 . S
O12 C17 1.256 1_556 S
C13 O19 1.285 . S
C13 O20 1.241 . S
C14 O0 1.244 . S
C14 O2 1.256 . S
C15 O4 1.239 . S
C15 O8 1.256 1_554 S
C16 O5 1.278 . S
C16 O11 1.241 . S
C17 O7 1.244 . S
C17 O12 1.256 1_554 S
C18 O9 1.239 . S
C18 O10 1.256 . S
O19 Mn1 2.231 . S
O19 Mn3 2.278 . S
O19 C13 1.285 . S
O20 Mn3 2.251 . S
O20 C13 1.241 . S
O21 Mn22 2.163 . S
O21 C35 1.244 . S
Mn22 O21 2.163 . S
Mn22 O25 2.160 . S
Mn22 O26 2.221 . S
Mn22 O28 2.163 . S
Mn22 O30 2.160 . S
Mn22 O40 2.221 1_554 S
O23 Mn24 2.087 . S
O23 C35 1.256 1_556 S
Mn24 O23 2.087 . S
Mn24 O31 2.089 1_556 S
Mn24 O40 2.290 . S
Mn24 O41 2.251 . S
O25 Mn22 2.160 . S
O25 C36 1.239 . S
O26 Mn22 2.221 . S
O26 Mn27 2.290 . S
O26 C37 1.278 . S
Mn27 O26 2.290 . S
Mn27 O29 2.089 . S
Mn27 O32 2.251 . S
Mn27 O33 2.087 . S
O28 Mn22 2.163 . S
O28 C38 1.244 . S
O29 Mn27 2.089 . S
O29 C36 1.256 . S
O30 Mn22 2.160 . S
O30 C39 1.239 . S
O31 Mn24 2.089 1_554 S
O31 C39 1.256 . S
O32 Mn27 2.251 . S
O32 C37 1.241 . S
O33 Mn27 2.087 . S
O33 C38 1.256 . S
C34 O40 1.278 . S
C34 O41 1.241 . S
C35 O21 1.244 . S
C35 O23 1.256 1_554 S
C36 O25 1.239 . S
C36 O29 1.256 . S
C37 O26 1.278 . S
C37 O32 1.241 . S
C38 O28 1.244 . S
C38 O33 1.256 . S
C39 O30 1.239 . S
C39 O31 1.256 . S
O40 Mn22 2.221 1_556 S
O40 Mn24 2.290 . S
O40 C34 1.278 . S
O41 Mn24 2.251 . S
O41 C34 1.241 . S
O42 Mn43 2.163 1_565 S
O42 C56 1.244 . S
Mn43 O42 2.163 1_545 S
Mn43 O46 2.160 . S
Mn43 O47 2.221 1_554 S
Mn43 O49 2.163 1_545 S
Mn43 O51 2.160 . S
Mn43 O61 2.221 . S
O44 Mn45 2.087 1_565 S
O44 C56 1.256 . S
Mn45 O44 2.087 1_545 S
Mn45 O52 2.089 . S
Mn45 O61 2.290 . S
Mn45 O62 2.251 . S
O46 Mn43 2.160 . S
O46 C57 1.239 . S
O47 Mn43 2.221 1_556 S
O47 Mn48 2.290 . S
O47 C58 1.278 1_545 S
Mn48 O47 2.290 . S
Mn48 O50 2.089 . S
Mn48 O53 2.251 1_545 S
Mn48 O54 2.087 1_546 S
O49 Mn43 2.163 1_565 S
O49 C59 1.244 . S
O50 Mn48 2.089 . S
O50 C57 1.256 1_556 S
O51 Mn43 2.160 . S
O51 C60 1.239 . S
O52 Mn45 2.089 . S
O52 C60 1.256 . S
O53 Mn48 2.251 1_565 S
O53 C58 1.241 . S
O54 Mn48 2.087 1_564 S
O54 C59 1.256 . S
C55 O61 1.278 . S
C55 O62 1.241 . S
C56 O42 1.244 . S
C56 O44 1.256 . S
C57 O46 1.239 . S
C57 O50 1.256 1_554 S
C58 O47 1.278 1_565 S
C58 O53 1.241 . S
C59 O49 1.244 . S
C59 O54 1.256 . S
C60 O51 1.239 . S
C60 O52 1.256 . S
O61 Mn43 2.221 . S
O61 Mn45 2.290 . S
O61 C55 1.278 . S
O62 Mn45 2.251 . S
O62 C55 1.241 . S
O63 Mn64 2.163 . S
O63 C77 1.244 . S
Mn64 O63 2.163 . S
Mn64 O67 2.160 . S
Mn64 O68 2.221 . S
Mn64 O70 2.163 . S
Mn64 O72 2.160 . S
Mn64 O82 2.221 . S
O65 Mn66 2.087 . S
O65 C77 1.256 . S
Mn66 O65 2.087 . S
Mn66 O73 2.089 . S
Mn66 O82 2.290 . S
Mn66 O83 2.251 1_554 S
O67 Mn64 2.160 . S
O67 C78 1.239 . S
O68 Mn64 2.221 . S
O68 Mn69 2.290 . S
O68 C79 1.278 . S
Mn69 O68 2.290 . S
Mn69 O71 2.089 . S
Mn69 O74 2.251 . S
Mn69 O75 2.087 . S
O70 Mn64 2.163 . S
O70 C80 1.244 . S
O71 Mn69 2.089 . S
O71 C78 1.256 . S
O72 Mn64 2.160 . S
O72 C81 1.239 . S
O73 Mn66 2.089 . S
O73 C81 1.256 . S
O74 Mn69 2.251 . S
O74 C79 1.241 . S
O75 Mn69 2.087 . S
O75 C80 1.256 . S
C76 O82 1.278 . S
C76 O83 1.241 1_554 S
C77 O63 1.244 . S
C77 O65 1.256 . S
C78 O67 1.239 . S
C78 O71 1.256 . S
C79 O68 1.278 . S
C79 O74 1.241 . S
C80 O70 1.244 . S
C80 O75 1.256 . S
C81 O72 1.239 . S
C81 O73 1.256 . S
O82 Mn64 2.221 . S
O82 Mn66 2.290 . S
O82 C76 1.278 . S
O83 Mn66 2.251 1_556 S
O83 C76 1.241 1_556 S
O84 Mn85 2.163 . S
O84 C98 1.244 . S
Mn85 O84 2.163 . S
Mn85 O88 2.160 . S
Mn85 O89 2.221 . S
Mn85 O91 2.163 . S
Mn85 O93 2.160 . S
Mn85 O103 2.221 . S
O86 Mn87 2.087 . S
O86 C98 1.256 . S
Mn87 O86 2.087 . S
Mn87 O94 2.089 . S
Mn87 O103 2.290 . S
Mn87 O104 2.251 1_554 S
O88 Mn85 2.160 . S
O88 C99 1.239 . S
O89 Mn85 2.221 . S
O89 Mn90 2.290 . S
O89 C100 1.278 . S
Mn90 O89 2.290 . S
Mn90 O92 2.089 . S
Mn90 O95 2.251 . S
Mn90 O96 2.087 . S
O91 Mn85 2.163 . S
O91 C101 1.244 . S
O92 Mn90 2.089 . S
O92 C99 1.256 . S
O93 Mn85 2.160 . S
O93 C102 1.239 . S
O94 Mn87 2.089 . S
O94 C102 1.256 . S
O95 Mn90 2.251 . S
O95 C100 1.241 . S
O96 Mn90 2.087 . S
O96 C101 1.256 . S
C97 O103 1.278 . S
C97 O104 1.241 1_554 S
C98 O84 1.244 . S
C98 O86 1.256 . S
C99 O88 1.239 . S
C99 O92 1.256 . S
C100 O89 1.278 . S
C100 O95 1.241 . S
C101 O91 1.244 . S
C101 O96 1.256 . S
C102 O93 1.239 . S
C102 O94 1.256 . S
O103 Mn85 2.221 . S
O103 Mn87 2.290 . S
O103 C97 1.278 . S
O104 Mn87 2.251 1_556 S
O104 C97 1.241 1_556 S
O105 Mn106 2.163 . S
O105 C119 1.244 . S
Mn106 O105 2.163 . S
Mn106 O109 2.160 . S
Mn106 O110 2.221 . S
Mn106 O112 2.163 . S
Mn106 O114 2.160 . S
Mn106 O124 2.221 . S
O107 Mn108 2.087 . S
O107 C119 1.256 . S
Mn108 O107 2.087 . S
Mn108 O115 2.089 . S
Mn108 O124 2.290 . S
Mn108 O125 2.251 . S
O109 Mn106 2.160 . S
O109 C120 1.239 . S
O110 Mn106 2.221 . S
O110 Mn111 2.290 . S
O110 C121 1.278 . S
Mn111 O110 2.290 . S
Mn111 O113 2.089 . S
Mn111 O116 2.251 . S
Mn111 O117 2.087 . S
O112 Mn106 2.163 . S
O112 C122 1.244 . S
O113 Mn111 2.089 . S
O113 C120 1.256 . S
O114 Mn106 2.160 . S
O114 C123 1.239 . S
O115 Mn108 2.089 . S
O115 C123 1.256 . S
O116 Mn111 2.251 . S
O116 C121 1.241 . S
O117 Mn111 2.087 . S
O117 C122 1.256 . S
C118 O124 1.278 . S
C118 O125 1.241 . S
C119 O105 1.244 . S
C119 O107 1.256 . S
C120 O109 1.239 . S
C120 O113 1.256 . S
C121 O110 1.278 . S
C121 O116 1.241 . S
C122 O112 1.244 . S
C122 O117 1.256 . S
C123 O114 1.239 . S
C123 O115 1.256 . S
O124 Mn106 2.221 . S
O124 Mn108 2.290 . S
O124 C118 1.278 . S
O125 Mn108 2.251 . S
O125 C118 1.241 . S
O126 Mn127 2.163 . S
O126 C140 1.244 . S
Mn127 O126 2.163 . S
Mn127 O130 2.160 . S
Mn127 O131 2.221 . S
Mn127 O133 2.163 . S
Mn127 O135 2.160 . S
Mn127 O145 2.221 . S
O128 Mn129 2.087 . S
O128 C140 1.256 . S
Mn129 O128 2.087 . S
Mn129 O136 2.089 . S
Mn129 O145 2.290 . S
Mn129 O146 2.251 . S
O130 Mn127 2.160 . S
O130 C141 1.239 . S
O131 Mn127 2.221 . S
O131 Mn132 2.290 . S
O131 C142 1.278 . S
Mn132 O131 2.290 . S
Mn132 O134 2.089 . S
Mn132 O137 2.251 . S
Mn132 O138 2.087 . S
O133 Mn127 2.163 . S
O133 C143 1.244 . S
O134 Mn132 2.089 . S
O134 C141 1.256 . S
O135 Mn127 2.160 . S
O135 C144 1.239 . S
O136 Mn129 2.089 . S
O136 C144 1.256 . S
O137 Mn132 2.251 . S
O137 C142 1.241 . S
O138 Mn132 2.087 . S
O138 C143 1.256 . S
C139 O145 1.278 . S
C139 O146 1.241 . S
C140 O126 1.244 . S
C140 O128 1.256 . S
C141 O130 1.239 . S
C141 O134 1.256 . S
C142 O131 1.278 . S
C142 O137 1.241 . S
C143 O133 1.244 . S
C143 O138 1.256 . S
C144 O135 1.239 . S
C144 O136 1.256 . S
O145 Mn127 2.221 . S
O145 Mn129 2.290 . S
O145 C139 1.278 . S
O146 Mn129 2.251 . S
O146 C139 1.241 . S
O147 Mn148 2.163 . S
O147 C161 1.244 . S
Mn148 O147 2.163 . S
Mn148 O151 2.160 . S
Mn148 O152 2.221 . S
Mn148 O154 2.163 . S
Mn148 O156 2.160 . S
Mn148 O166 2.221 . S
O149 Mn150 2.087 . S
O149 C161 1.256 . S
Mn150 O149 2.087 . S
Mn150 O157 2.089 . S
Mn150 O166 2.290 . S
Mn150 O167 2.251 . S
O151 Mn148 2.160 . S
O151 C162 1.239 . S
O152 Mn148 2.221 . S
O152 Mn153 2.290 . S
O152 C163 1.278 . S
Mn153 O152 2.290 . S
Mn153 O155 2.089 . S
Mn153 O158 2.251 . S
Mn153 O159 2.087 . S
O154 Mn148 2.163 . S
O154 C164 1.244 . S
O155 Mn153 2.089 . S
O155 C162 1.256 . S
O156 Mn148 2.160 . S
O156 C165 1.239 . S
O157 Mn150 2.089 . S
O157 C165 1.256 . S
O158 Mn153 2.251 . S
O158 C163 1.241 . S
O159 Mn153 2.087 . S
O159 C164 1.256 . S
C160 O166 1.278 . S
C160 O167 1.241 . S
C161 O147 1.244 . S
C161 O149 1.256 . S
C162 O151 1.239 . S
C162 O155 1.256 . S
C163 O152 1.278 . S
C163 O158 1.241 . S
C164 O154 1.244 . S
C164 O159 1.256 . S
C165 O156 1.239 . S
C165 O157 1.256 . S
O166 Mn148 2.221 . S
O166 Mn150 2.290 . S
O166 C160 1.278 . S
O167 Mn150 2.251 . S
O167 C160 1.241 . S
O168 Mn169 2.163 . S
O168 C182 1.244 . S
Mn169 O168 2.163 . S
Mn169 O172 2.160 . S
Mn169 O173 2.221 . S
Mn169 O175 2.163 . S
Mn169 O177 2.160 . S
Mn169 O187 2.221 . S
O170 Mn171 2.087 . S
O170 C182 1.256 . S
Mn171 O170 2.087 . S
Mn171 O178 2.089 . S
Mn171 O187 2.290 . S
Mn171 O188 2.251 . S
O172 Mn169 2.160 . S
O172 C183 1.239 . S
O173 Mn169 2.221 . S
O173 Mn174 2.290 . S
O173 C184 1.278 . S
Mn174 O173 2.290 . S
Mn174 O176 2.089 . S
Mn174 O179 2.251 . S
Mn174 O180 2.087 . S
O175 Mn169 2.163 . S
O175 C185 1.244 . S
O176 Mn174 2.089 . S
O176 C183 1.256 . S
O177 Mn169 2.160 . S
O177 C186 1.239 . S
O178 Mn171 2.089 . S
O178 C186 1.256 . S
O179 Mn174 2.251 . S
O179 C184 1.241 . S
O180 Mn174 2.087 . S
O180 C185 1.256 . S
C181 O187 1.278 . S
C181 O188 1.241 . S
C182 O168 1.244 . S
C182 O170 1.256 . S
C183 O172 1.239 . S
C183 O176 1.256 . S
C184 O173 1.278 . S
C184 O179 1.241 . S
C185 O175 1.244 . S
C185 O180 1.256 . S
C186 O177 1.239 . S
C186 O178 1.256 . S
O187 Mn169 2.221 . S
O187 Mn171 2.290 . S
O187 C181 1.278 . S
O188 Mn171 2.251 . S
O188 C181 1.241 . S
H189 C195 0.930 . S
H190 C199 0.930 . S
H191 C204 0.929 . S
H192 C202 0.929 . S
H193 C197 0.929 . S
H194 C203 0.929 1_655 S
C195 H189 0.930 . S
C195 C196 1.367 . S
C195 C203 1.378 . S
C196 C195 1.367 . S
C196 C204 1.433 . S
C197 H193 0.929 . S
C197 C199 1.378 . S
C197 C201 1.350 . S
C198 C201 1.463 . S
C198 C203 1.350 . S
C198 N206 1.427 . S
C199 H190 0.930 . S
C199 C197 1.378 . S
C199 C200 1.367 . S
C200 C199 1.367 . S
C200 C202 1.433 1_455 S
C201 C197 1.350 . S
C201 C198 1.463 . S
C201 N205 1.415 1_455 S
C202 H192 0.929 . S
C202 C200 1.433 1_655 S
C202 N205 1.388 . S
C203 H194 0.929 1_455 S
C203 C195 1.378 . S
C203 C198 1.350 . S
C204 H191 0.929 . S
C204 C196 1.433 . S
C204 N206 1.384 . S
N205 C201 1.415 1_655 S
N205 C202 1.388 . S
N206 C198 1.427 . S
N206 C204 1.384 . S
H207 C213 0.930 . S
H208 C217 0.930 . S
H209 C222 0.929 . S
H210 C220 0.929 . S
H211 C215 0.929 . S
H212 C221 0.929 . S
C213 H207 0.930 . S
C213 C214 1.367 . S
C213 C221 1.378 . S
C214 C213 1.367 . S
C214 C222 1.433 . S
C215 H211 0.929 . S
C215 C217 1.378 . S
C215 C219 1.350 . S
C216 C219 1.463 . S
C216 C221 1.350 . S
C216 N224 1.427 . S
C217 H208 0.930 . S
C217 C215 1.378 . S
C217 C218 1.367 . S
C218 C217 1.367 . S
C218 C220 1.433 . S
C219 C215 1.350 . S
C219 C216 1.463 . S
C219 N223 1.427 . S
C220 H210 0.929 . S
C220 C218 1.433 . S
C220 N223 1.384 . S
C221 H212 0.929 . S
C221 C213 1.378 . S
C221 C216 1.350 . S
C222 H209 0.929 . S
C222 C214 1.433 . S
C222 N224 1.384 . S
N223 C219 1.427 . S
N223 C220 1.384 . S
N224 C216 1.427 . S
N224 C222 1.384 . S
H225 C231 0.930 . S
H226 C235 0.930 . S
H227 C240 0.929 . S
H228 C238 0.929 . S
H229 C233 0.929 . S
H230 C239 0.929 . S
C231 H225 0.930 . S
C231 C232 1.367 . S
C231 C239 1.378 . S
C232 C231 1.367 . S
C232 C240 1.433 1_565 S
C233 H229 0.929 . S
C233 C235 1.378 . S
C233 C237 1.350 . S
C234 C237 1.463 . S
C234 C239 1.350 1_545 S
C234 N242 1.427 . S
C235 H226 0.930 . S
C235 C233 1.378 . S
C235 C236 1.367 . S
C236 C235 1.367 . S
C236 C238 1.433 . S
C237 C233 1.350 . S
C237 C234 1.463 . S
C237 N241 1.427 . S
C238 H228 0.929 . S
C238 C236 1.433 . S
C238 N241 1.384 . S
C239 H230 0.929 . S
C239 C231 1.378 . S
C239 C234 1.350 1_565 S
C240 H227 0.929 . S
C240 C232 1.433 1_545 S
C240 N242 1.384 . S
N241 C237 1.427 . S
N241 C238 1.384 . S
N242 C234 1.427 . S
N242 C240 1.384 . S
H243 C249 0.930 . S
H244 C253 0.930 . S
H245 C258 0.929 . S
H246 C256 0.929 . S
H247 C251 0.929 . S
H248 C257 0.929 . S
C249 H243 0.930 . S
C249 C250 1.367 . S
C249 C257 1.378 . S
C250 C249 1.367 . S
C250 C258 1.433 . S
C251 H247 0.929 . S
C251 C253 1.378 . S
C251 C255 1.350 . S
C252 C255 1.463 . S
C252 C257 1.350 . S
C252 N260 1.427 . S
C253 H244 0.930 . S
C253 C251 1.378 . S
C253 C254 1.367 . S
C254 C253 1.367 . S
C254 C256 1.433 . S
C255 C251 1.350 . S
C255 C252 1.463 . S
C255 N259 1.427 . S
C256 H246 0.929 . S
C256 C254 1.433 . S
C256 N259 1.384 . S
C257 H248 0.929 . S
C257 C249 1.378 . S
C257 C252 1.350 . S
C258 H245 0.929 . S
C258 C250 1.433 . S
C258 N260 1.384 . S
N259 C255 1.427 . S
N259 C256 1.384 . S
N260 C252 1.427 . S
N260 C258 1.384 . S
H261 C267 0.930 . S
H262 C271 0.930 1_554 S
H263 C276 0.929 . S
H264 C274 0.929 . S
H265 C269 0.929 . S
H266 C275 0.929 . S
C267 H261 0.930 . S
C267 C268 1.367 . S
C267 C275 1.378 . S
C268 C267 1.367 . S
C268 C276 1.433 . S
C269 H265 0.929 . S
C269 C271 1.378 . S
C269 C273 1.350 . S
C270 C273 1.463 . S
C270 C275 1.350 . S
C270 N278 1.427 . S
C271 H262 0.930 1_556 S
C271 C269 1.378 . S
C271 C272 1.367 . S
C272 C271 1.367 . S
C272 C274 1.433 . S
C273 C269 1.350 . S
C273 C270 1.463 . S
C273 N277 1.427 . S
C274 H264 0.929 . S
C274 C272 1.433 . S
C274 N277 1.384 . S
C275 H266 0.929 . S
C275 C267 1.378 . S
C275 C270 1.350 . S
C276 H263 0.929 . S
C276 C268 1.433 . S
C276 N278 1.384 . S
N277 C273 1.427 . S
N277 C274 1.384 . S
N278 C270 1.427 . S
N278 C276 1.384 . S
H279 C285 0.930 . S
H280 C289 0.930 1_554 S
H281 C294 0.929 . S
H282 C292 0.929 1_554 S
H283 C287 0.929 . S
H284 C293 0.929 . S
C285 H279 0.930 . S
C285 C286 1.367 . S
C285 C293 1.378 . S
C286 C285 1.367 . S
C286 C294 1.433 . S
C287 H283 0.929 . S
C287 C289 1.378 . S
C287 C291 1.350 . S
C288 C291 1.463 . S
C288 C293 1.350 . S
C288 N296 1.427 . S
C289 H280 0.930 1_556 S
C289 C287 1.378 . S
C289 C290 1.367 1_556 S
C290 C289 1.367 1_554 S
C290 C292 1.433 1_554 S
C291 C287 1.350 . S
C291 C288 1.463 . S
C291 N295 1.427 . S
C292 H282 0.929 1_556 S
C292 C290 1.433 1_556 S
C292 N295 1.384 . S
C293 H284 0.929 . S
C293 C285 1.378 . S
C293 C288 1.350 . S
C294 H281 0.929 . S
C294 C286 1.433 . S
C294 N296 1.384 . S
N295 C291 1.427 . S
N295 C292 1.384 . S
N296 C288 1.427 . S
N296 C294 1.384 . S
H297 C303 0.930 . S
H298 C307 0.930 . S
H299 C312 0.929 . S
H300 C310 0.929 . S
H301 C305 0.929 . S
H302 C311 0.929 . S
C303 H297 0.930 . S
C303 C304 1.367 . S
C303 C311 1.378 . S
C304 C303 1.367 . S
C304 C312 1.433 . S
C305 H301 0.929 . S
C305 C307 1.378 . S
C305 C309 1.350 . S
C306 C309 1.463 . S
C306 C311 1.350 . S
C306 N314 1.427 . S
C307 H298 0.930 . S
C307 C305 1.378 . S
C307 C308 1.367 . S
C308 C307 1.367 . S
C308 C310 1.433 . S
C309 C305 1.350 . S
C309 C306 1.463 . S
C309 N313 1.427 . S
C310 H300 0.929 . S
C310 C308 1.433 . S
C310 N313 1.384 . S
C311 H302 0.929 . S
C311 C303 1.378 . S
C311 C306 1.350 . S
C312 H299 0.929 . S
C312 C304 1.433 . S
C312 N314 1.384 . S
N313 C309 1.427 . S
N313 C310 1.384 . S
N314 C306 1.427 . S
N314 C312 1.384 . S
H315 C321 0.930 . S
H316 C325 0.930 . S
H317 C330 0.929 . S
H318 C328 0.929 . S
H319 C323 0.929 . S
H320 C329 0.929 . S
C321 H315 0.930 . S
C321 C322 1.367 . S
C321 C329 1.378 . S
C322 C321 1.367 . S
C322 C330 1.433 . S
C323 H319 0.929 . S
C323 C325 1.378 1_554 S
C323 C327 1.350 . S
C324 C327 1.463 . S
C324 C329 1.350 . S
C324 N332 1.427 . S
C325 H316 0.930 . S
C325 C323 1.378 1_556 S
C325 C326 1.367 . S
C326 C325 1.367 . S
C326 C328 1.433 . S
C327 C323 1.350 . S
C327 C324 1.463 . S
C327 N331 1.427 . S
C328 H318 0.929 . S
C328 C326 1.433 . S
C328 N331 1.384 1_556 S
C329 H320 0.929 . S
C329 C321 1.378 . S
C329 C324 1.350 . S
C330 H317 0.929 . S
C330 C322 1.433 . S
C330 N332 1.384 . S
N331 C327 1.427 . S
N331 C328 1.384 1_554 S
N332 C324 1.427 . S
N332 C330 1.384 . S
H333 C339 0.930 . S
H334 C343 0.930 . S
H335 C348 0.929 . S
H336 C346 0.929 . S
H337 C341 0.929 . S
H338 C347 0.929 . S
C339 H333 0.930 . S
C339 C340 1.367 . S
C339 C347 1.378 . S
C340 C339 1.367 . S
C340 C348 1.433 . S
C341 H337 0.929 . S
C341 C343 1.378 1_554 S
C341 C345 1.350 . S
C342 C345 1.463 . S
C342 C347 1.350 . S
C342 N350 1.427 . S
C343 H334 0.930 . S
C343 C341 1.378 1_556 S
C343 C344 1.367 . S
C344 C343 1.367 . S
C344 C346 1.433 . S
C345 C341 1.350 . S
C345 C342 1.463 . S
C345 N349 1.427 . S
C346 H336 0.929 . S
C346 C344 1.433 . S
C346 N349 1.384 1_556 S
C347 H338 0.929 . S
C347 C339 1.378 . S
C347 C342 1.350 . S
C348 H335 0.929 . S
C348 C340 1.433 . S
C348 N350 1.384 . S
N349 C345 1.427 . S
N349 C346 1.384 1_554 S
N350 C342 1.427 . S
N350 C348 1.384 . S
H351 C357 0.930 . S
H352 C361 0.930 . S
H353 C366 0.929 . S
H354 C364 0.929 . S
H355 C359 0.929 . S
H356 C365 0.929 . S
C357 H351 0.930 . S
C357 C358 1.367 . S
C357 C365 1.378 . S
C358 C357 1.367 . S
C358 C366 1.433 . S
C359 H355 0.929 . S
C359 C361 1.378 . S
C359 C363 1.350 . S
C360 C363 1.463 . S
C360 C365 1.350 . S
C360 N368 1.427 . S
C361 H352 0.930 . S
C361 C359 1.378 . S
C361 C362 1.367 . S
C362 C361 1.367 . S
C362 C364 1.433 . S
C363 C359 1.350 . S
C363 C360 1.463 . S
C363 N367 1.427 . S
C364 H354 0.929 . S
C364 C362 1.433 . S
C364 N367 1.384 . S
C365 H356 0.929 . S
C365 C357 1.378 . S
C365 C360 1.350 . S
C366 H353 0.929 . S
C366 C358 1.433 . S
C366 N368 1.384 . S
N367 C363 1.427 . S
N367 C364 1.384 . S
N368 C360 1.427 . S
N368 C366 1.384 . S
H369 C375 0.930 . S
H370 C379 0.930 . S
H371 C384 0.929 . S
H372 C382 0.929 . S
H373 C377 0.929 . S
H374 C383 0.929 . S
C375 H369 0.930 . S
C375 C376 1.367 . S
C375 C383 1.378 . S
C376 C375 1.367 . S
C376 C384 1.433 . S
C377 H373 0.929 . S
C377 C379 1.378 . S
C377 C381 1.350 . S
C378 C381 1.463 . S
C378 C383 1.350 . S
C378 N386 1.427 . S
C379 H370 0.930 . S
C379 C377 1.378 . S
C379 C380 1.367 . S
C380 C379 1.367 . S
C380 C382 1.433 . S
C381 C377 1.350 . S
C381 C378 1.463 . S
C381 N385 1.427 . S
C382 H372 0.929 . S
C382 C380 1.433 . S
C382 N385 1.384 . S
C383 H374 0.929 . S
C383 C375 1.378 . S
C383 C378 1.350 . S
C384 H371 0.929 . S
C384 C376 1.433 . S
C384 N386 1.384 . S
N385 C381 1.427 . S
N385 C382 1.384 . S
N386 C378 1.427 . S
N386 C384 1.384 . S
H387 C393 0.930 . S
H388 C397 0.930 . S
H389 C402 0.929 . S
H390 C400 0.929 . S
H391 C395 0.929 . S
H392 C401 0.929 . S
C393 H387 0.930 . S
C393 C394 1.367 . S
C393 C401 1.378 . S
C394 C393 1.367 . S
C394 C402 1.433 . S
C395 H391 0.929 . S
C395 C397 1.378 . S
C395 C399 1.350 . S
C396 C399 1.463 . S
C396 C401 1.350 . S
C396 N404 1.427 . S
C397 H388 0.930 . S
C397 C395 1.378 . S
C397 C398 1.367 . S
C398 C397 1.367 . S
C398 C400 1.433 . S
C399 C395 1.350 . S
C399 C396 1.463 . S
C399 N403 1.427 . S
C400 H390 0.929 . S
C400 C398 1.433 . S
C400 N403 1.384 . S
C401 H392 0.929 . S
C401 C393 1.378 . S
C401 C396 1.350 . S
C402 H389 0.929 . S
C402 C394 1.433 . S
C402 N404 1.384 . S
N403 C399 1.427 . S
N403 C400 1.384 . S
N404 C396 1.427 . S
N404 C402 1.384 . S
H405 C411 0.930 . S
H406 C415 0.930 . S
H407 C420 0.929 . S
H408 C418 0.929 . S
H409 C413 0.929 . S
H410 C419 0.929 . S
C411 H405 0.930 . S
C411 C412 1.367 . S
C411 C419 1.378 1_554 S
C412 C411 1.367 . S
C412 C420 1.433 . S
C413 H409 0.929 . S
C413 C415 1.378 . S
C413 C417 1.350 . S
C414 C417 1.463 . S
C414 C419 1.350 . S
C414 N422 1.427 . S
C415 H406 0.930 . S
C415 C413 1.378 . S
C415 C416 1.367 . S
C416 C415 1.367 . S
C416 C418 1.433 . S
C417 C413 1.350 . S
C417 C414 1.463 . S
C417 N421 1.427 . S
C418 H408 0.929 . S
C418 C416 1.433 . S
C418 N421 1.384 . S
C419 H410 0.929 . S
C419 C411 1.378 1_556 S
C419 C414 1.350 . S
C420 H407 0.929 . S
C420 C412 1.433 . S
C420 N422 1.384 1_554 S
N421 C417 1.427 . S
N421 C418 1.384 . S
N422 C414 1.427 . S
N422 C420 1.384 1_556 S
H423 C429 0.930 . S
H424 C433 0.930 . S
H425 C438 0.929 . S
H426 C436 0.929 . S
H427 C431 0.929 . S
H428 C437 0.929 . S
C429 H423 0.930 . S
C429 C430 1.367 . S
C429 C437 1.378 . S
C430 C429 1.367 . S
C430 C438 1.433 . S
C431 H427 0.929 . S
C431 C433 1.378 . S
C431 C435 1.350 1_554 S
C432 C435 1.463 . S
C432 C437 1.350 . S
C432 N440 1.427 . S
C433 H424 0.930 . S
C433 C431 1.378 . S
C433 C434 1.367 . S
C434 C433 1.367 . S
C434 C436 1.433 1_554 S
C435 C431 1.350 1_556 S
C435 C432 1.463 . S
C435 N439 1.427 . S
C436 H426 0.929 . S
C436 C434 1.433 1_556 S
C436 N439 1.384 . S
C437 H428 0.929 . S
C437 C429 1.378 . S
C437 C432 1.350 . S
C438 H425 0.929 . S
C438 C430 1.433 . S
C438 N440 1.384 . S
N439 C435 1.427 . S
N439 C436 1.384 . S
N440 C432 1.427 . S
N440 C438 1.384 . S
H441 C447 0.930 . S
H442 C451 0.930 . S
H443 C456 0.929 . S
H444 C454 0.929 . S
H445 C449 0.929 . S
H446 C455 0.929 . S
C447 H441 0.930 . S
C447 C448 1.367 . S
C447 C455 1.378 . S
C448 C447 1.367 . S
C448 C456 1.433 . S
C449 H445 0.929 . S
C449 C451 1.378 1_556 S
C449 C453 1.350 . S
C450 C453 1.463 . S
C450 C455 1.350 . S
C450 N458 1.427 . S
C451 H442 0.930 . S
C451 C449 1.378 1_554 S
C451 C452 1.367 1_554 S
C452 C451 1.367 1_556 S
C452 C454 1.433 . S
C453 C449 1.350 . S
C453 C450 1.463 . S
C453 N457 1.427 . S
C454 H444 0.929 . S
C454 C452 1.433 . S
C454 N457 1.384 . S
C455 H446 0.929 . S
C455 C447 1.378 . S
C455 C450 1.350 . S
C456 H443 0.929 . S
C456 C448 1.433 . S
C456 N458 1.384 . S
N457 C453 1.427 . S
N457 C454 1.384 . S
N458 C450 1.427 . S
N458 C456 1.384 . S
H459 C465 0.930 . S
H460 C469 0.930 . S
H461 C474 0.929 . S
H462 C472 0.929 . S
H463 C467 0.929 . S
H464 C473 0.929 . S
C465 H459 0.930 . S
C465 C466 1.367 . S
C465 C473 1.378 . S
C466 C465 1.367 . S
C466 C474 1.433 . S
C467 H463 0.929 . S
C467 C469 1.378 . S
C467 C471 1.350 . S
C468 C471 1.463 . S
C468 C473 1.350 . S
C468 N476 1.427 . S
C469 H460 0.930 . S
C469 C467 1.378 . S
C469 C470 1.367 . S
C470 C469 1.367 . S
C470 C472 1.433 . S
C471 C467 1.350 . S
C471 C468 1.463 . S
C471 N475 1.427 . S
C472 H462 0.929 . S
C472 C470 1.433 . S
C472 N475 1.384 . S
C473 H464 0.929 . S
C473 C465 1.378 . S
C473 C468 1.350 . S
C474 H461 0.929 . S
C474 C466 1.433 . S
C474 N476 1.384 . S
N475 C471 1.427 . S
N475 C472 1.384 . S
N476 C468 1.427 . S
N476 C474 1.384 . S
H477 C483 0.930 . S
H478 C487 0.930 . S
H479 C492 0.929 . S
H480 C490 0.929 . S
H481 C485 0.929 1_554 S
H482 C491 0.929 . S
C483 H477 0.930 . S
C483 C484 1.367 1_556 S
C483 C491 1.378 . S
C484 C483 1.367 1_554 S
C484 C492 1.433 . S
C485 H481 0.929 1_556 S
C485 C487 1.378 . S
C485 C489 1.350 . S
C486 C489 1.463 . S
C486 C491 1.350 . S
C486 N494 1.427 1_556 S
C487 H478 0.930 . S
C487 C485 1.378 . S
C487 C488 1.367 . S
C488 C487 1.367 . S
C488 C490 1.433 . S
C489 C485 1.350 . S
C489 C486 1.463 . S
C489 N493 1.427 . S
C490 H480 0.929 . S
C490 C488 1.433 . S
C490 N493 1.384 . S
C491 H482 0.929 . S
C491 C483 1.378 . S
C491 C486 1.350 . S
C492 H479 0.929 . S
C492 C484 1.433 . S
C492 N494 1.384 . S
N493 C489 1.427 . S
N493 C490 1.384 . S
N494 C486 1.427 1_554 S
N494 C492 1.384 . S
H495 C501 0.930 . S
H496 C505 0.930 . S
H497 C510 0.929 . S
H498 C508 0.934 . S
H499 C503 0.929 . S
H500 C509 0.929 . S
C501 H495 0.930 . S
C501 C502 1.367 . S
C501 C509 1.378 . S
C502 C501 1.367 . S
C502 C510 1.433 . S
C503 H499 0.929 . S
C503 C505 1.378 . S
C503 C507 1.350 . S
C504 C507 1.463 . S
C504 C509 1.350 . S
C504 N512 1.427 . S
C505 H496 0.930 . S
C505 C503 1.378 . S
C505 C506 1.367 1_556 S
C506 C505 1.367 1_554 S
C506 C508 1.434 . S
C507 C503 1.350 . S
C507 C504 1.463 . S
C507 N511 1.427 . S
C508 H498 0.934 . S
C508 C506 1.434 . S
C508 N511 1.378 1_554 S
C509 H500 0.929 . S
C509 C501 1.378 . S
C509 C504 1.350 . S
C510 H497 0.929 . S
C510 C502 1.433 . S
C510 N512 1.384 . S
N511 C507 1.427 . S
N511 C508 1.378 1_556 S
N512 C504 1.427 . S
N512 C510 1.384 . S
H513 C519 0.930 . S
H514 C523 0.930 . S
H515 C528 0.929 1_545 S
H516 C526 0.929 . S
H517 C521 0.929 . S
H518 C527 0.929 . S
C519 H513 0.930 . S
C519 C520 1.367 . S
C519 C527 1.378 . S
C520 C519 1.367 . S
C520 C528 1.433 . S
C521 H517 0.929 . S
C521 C523 1.378 . S
C521 C525 1.350 . S
C522 C525 1.463 . S
C522 C527 1.350 . S
C522 N530 1.427 . S
C523 H514 0.930 . S
C523 C521 1.378 . S
C523 C524 1.367 . S
C524 C523 1.367 . S
C524 C526 1.433 . S
C525 C521 1.350 . S
C525 C522 1.463 . S
C525 N529 1.427 . S
C526 H516 0.929 . S
C526 C524 1.433 . S
C526 N529 1.384 . S
C527 H518 0.929 . S
C527 C519 1.378 . S
C527 C522 1.350 . S
C528 H515 0.929 1_565 S
C528 C520 1.433 . S
C528 N530 1.384 . S
N529 C525 1.427 . S
N529 C526 1.384 . S
N530 C522 1.427 . S
N530 C528 1.384 . S
H531 C537 0.930 . S
H532 C541 0.930 1_556 S
H533 C546 0.929 . S
H534 C544 0.929 . S
H535 C539 0.929 . S
H536 C545 0.929 . S
C537 H531 0.930 . S
C537 C538 1.367 . S
C537 C545 1.378 . S
C538 C537 1.367 . S
C538 C546 1.433 . S
C539 H535 0.929 . S
C539 C541 1.378 . S
C539 C543 1.350 . S
C540 C543 1.463 . S
C540 C545 1.350 . S
C540 N548 1.427 . S
C541 H532 0.930 1_554 S
C541 C539 1.378 . S
C541 C542 1.367 . S
C542 C541 1.367 . S
C542 C544 1.433 . S
C543 C539 1.350 . S
C543 C540 1.463 . S
C543 N547 1.427 . S
C544 H534 0.929 . S
C544 C542 1.433 . S
C544 N547 1.384 . S
C545 H536 0.929 . S
C545 C537 1.378 . S
C545 C540 1.350 . S
C546 H533 0.929 . S
C546 C538 1.433 . S
C546 N548 1.384 . S
N547 C543 1.427 . S
N547 C544 1.384 . S
N548 C540 1.427 . S
N548 C546 1.384 . S
H549 C555 0.930 . S
H550 C559 0.930 . S
H551 C564 0.929 . S
H552 C562 0.929 . S
H553 C557 0.929 . S
H554 C563 0.929 . S
C555 H549 0.930 . S
C555 C556 1.367 . S
C555 C563 1.378 . S
C556 C555 1.367 . S
C556 C564 1.433 . S
C557 H553 0.929 . S
C557 C559 1.378 . S
C557 C561 1.350 . S
C558 C561 1.463 . S
C558 C563 1.350 . S
C558 N566 1.427 . S
C559 H550 0.930 . S
C559 C557 1.378 . S
C559 C560 1.367 . S
C560 C559 1.367 . S
C560 C562 1.433 . S
C561 C557 1.350 . S
C561 C558 1.463 . S
C561 N565 1.427 . S
C562 H552 0.929 . S
C562 C560 1.433 . S
C562 N565 1.384 . S
C563 H554 0.929 . S
C563 C555 1.378 . S
C563 C558 1.350 . S
C564 H551 0.929 . S
C564 C556 1.433 . S
C564 N566 1.384 . S
N565 C561 1.427 . S
N565 C562 1.384 . S
N566 C558 1.427 . S
N566 C564 1.384 . S
H567 C573 0.930 . S
H568 C577 0.930 . S
H569 C582 0.929 . S
H570 C580 0.929 . S
H571 C575 0.929 . S
H572 C581 0.929 . S
C573 H567 0.930 . S
C573 C574 1.367 . S
C573 C581 1.378 . S
C574 C573 1.367 . S
C574 C582 1.433 . S
C575 H571 0.929 . S
C575 C577 1.378 . S
C575 C579 1.350 . S
C576 C579 1.463 . S
C576 C581 1.350 . S
C576 N584 1.427 . S
C577 H568 0.930 . S
C577 C575 1.378 . S
C577 C578 1.367 . S
C578 C577 1.367 . S
C578 C580 1.433 . S
C579 C575 1.350 . S
C579 C576 1.463 . S
C579 N583 1.427 . S
C580 H570 0.929 . S
C580 C578 1.433 . S
C580 N583 1.384 . S
C581 H572 0.929 . S
C581 C573 1.378 . S
C581 C576 1.350 . S
C582 H569 0.929 . S
C582 C574 1.433 . S
C582 N584 1.384 . S
N583 C579 1.427 . S
N583 C580 1.384 . S
N584 C576 1.427 . S
N584 C582 1.384 . S
H585 C591 0.930 . S
H586 C595 0.930 . S
H587 C600 0.929 . S
H588 C598 0.929 . S
H589 C593 0.929 1_545 S
H590 C599 0.929 . S
C591 H585 0.930 . S
C591 C592 1.367 . S
C591 C599 1.378 . S
C592 C591 1.367 . S
C592 C600 1.433 . S
C593 H589 0.929 1_565 S
C593 C595 1.378 . S
C593 C597 1.350 . S
C594 C597 1.463 1_545 S
C594 C599 1.350 . S
C594 N602 1.427 . S
C595 H586 0.930 . S
C595 C593 1.378 . S
C595 C596 1.367 . S
C596 C595 1.367 . S
C596 C598 1.433 . S
C597 C593 1.350 . S
C597 C594 1.463 1_565 S
C597 N601 1.427 . S
C598 H588 0.929 . S
C598 C596 1.433 . S
C598 N601 1.384 . S
C599 H590 0.929 . S
C599 C591 1.378 . S
C599 C594 1.350 . S
C600 H587 0.929 . S
C600 C592 1.433 . S
C600 N602 1.384 . S
N601 C597 1.427 . S
N601 C598 1.384 . S
N602 C594 1.427 . S
N602 C600 1.384 . S
H603 C609 0.930 . S
H604 C613 0.930 . S
H605 C618 0.929 . S
H606 C616 0.929 . S
H607 C611 0.929 . S
H608 C617 0.929 . S
C609 H603 0.930 . S
C609 C610 1.367 . S
C609 C617 1.378 1_655 S
C610 C609 1.367 . S
C610 C618 1.433 . S
C611 H607 0.929 . S
C611 C613 1.378 . S
C611 C615 1.350 . S
C612 C615 1.463 . S
C612 C617 1.350 . S
C612 N620 1.427 1_455 S
C613 H604 0.930 . S
C613 C611 1.378 . S
C613 C614 1.367 . S
C614 C613 1.367 . S
C614 C616 1.433 . S
C615 C611 1.350 . S
C615 C612 1.463 . S
C615 N619 1.427 . S
C616 H606 0.929 . S
C616 C614 1.433 . S
C616 N619 1.384 . S
C617 H608 0.929 . S
C617 C609 1.378 1_455 S
C617 C612 1.350 . S
C618 H605 0.929 . S
C618 C610 1.433 . S
C618 N620 1.384 . S
N619 C615 1.427 . S
N619 C616 1.384 . S
N620 C612 1.427 1_655 S
N620 C618 1.384 . S
H621 C627 0.930 . S
H622 C631 0.930 . S
H623 C636 0.929 . S
H624 C634 0.929 . S
H625 C629 0.929 . S
H626 C635 0.929 . S
C627 H621 0.930 . S
C627 C628 1.367 . S
C627 C635 1.378 . S
C628 C627 1.367 . S
C628 C636 1.433 . S
C629 H625 0.929 . S
C629 C631 1.378 . S
C629 C633 1.350 . S
C630 C633 1.463 . S
C630 C635 1.350 . S
C630 N638 1.427 . S
C631 H622 0.930 . S
C631 C629 1.378 . S
C631 C632 1.367 . S
C632 C631 1.367 . S
C632 C634 1.433 . S
C633 C629 1.350 . S
C633 C630 1.463 . S
C633 N637 1.427 . S
C634 H624 0.929 . S
C634 C632 1.433 . S
C634 N637 1.384 . S
C635 H626 0.929 . S
C635 C627 1.378 . S
C635 C630 1.350 . S
C636 H623 0.929 . S
C636 C628 1.433 . S
C636 N638 1.384 . S
N637 C633 1.427 . S
N637 C634 1.384 . S
N638 C630 1.427 . S
N638 C636 1.384 . S
H639 C645 0.930 . S
H640 C649 0.930 . S
H641 C654 0.929 . S
H642 C652 0.929 . S
H643 C647 0.929 . S
H644 C653 0.929 . S
C645 H639 0.930 . S
C645 C646 1.367 . S
C645 C653 1.378 . S
C646 C645 1.367 . S
C646 C654 1.433 . S
C647 H643 0.929 . S
C647 C649 1.378 . S
C647 C651 1.350 . S
C648 C651 1.463 1_565 S
C648 C653 1.350 . S
C648 N656 1.427 . S
C649 H640 0.930 . S
C649 C647 1.378 . S
C649 C650 1.367 . S
C650 C649 1.367 . S
C650 C652 1.433 . S
C651 C647 1.350 . S
C651 C648 1.463 1_545 S
C651 N655 1.427 . S
C652 H642 0.929 . S
C652 C650 1.433 . S
C652 N655 1.384 . S
C653 H644 0.929 . S
C653 C645 1.378 . S
C653 C648 1.350 . S
C654 H641 0.929 . S
C654 C646 1.433 . S
C654 N656 1.384 . S
N655 C651 1.427 . S
N655 C652 1.384 . S
N656 C648 1.427 . S
N656 C654 1.384 . S
H657 C663 0.930 . S
H658 C667 0.930 . S
H659 C672 0.929 . S
H660 C670 0.929 . S
H661 C665 0.929 . S
H662 C671 0.929 . S
C663 H657 0.930 . S
C663 C664 1.367 . S
C663 C671 1.378 1_655 S
C664 C663 1.367 . S
C664 C672 1.433 . S
C665 H661 0.929 . S
C665 C667 1.378 . S
C665 C669 1.350 . S
C666 C669 1.463 . S
C666 C671 1.350 . S
C666 N674 1.427 . S
C667 H658 0.930 . S
C667 C665 1.378 . S
C667 C668 1.367 . S
C668 C667 1.367 . S
C668 C670 1.433 . S
C669 C665 1.350 . S
C669 C666 1.463 . S
C669 N673 1.427 . S
C670 H660 0.929 . S
C670 C668 1.433 . S
C670 N673 1.384 . S
C671 H662 0.929 . S
C671 C663 1.378 1_455 S
C671 C666 1.350 . S
C672 H659 0.929 . S
C672 C664 1.433 . S
C672 N674 1.384 1_655 S
N673 C669 1.427 . S
N673 C670 1.384 . S
N674 C666 1.427 . S
N674 C672 1.384 1_455 S
C196 C16 0.963 . S
C200 C13 0.966 . S
C214 C34 0.981 . S
C218 C37 0.979 . S
C232 C58 0.971 . S
C236 C55 0.974 . S
C250 C79 0.933 . S
C254 C76 0.935 1_556 S
C268 C100 0.993 . S
C272 C97 0.997 1_556 S
C286 C121 1.024 . S
C290 C118 1.027 . S
C304 C143 0.882 . S
C308 C144 0.879 1_554 S
C322 C165 0.890 . S
C326 C164 0.900 . S
C340 C185 0.932 . S
C344 C186 0.916 . S
C358 C122 1.487 . S
C362 C17 1.492 . S
C376 C36 1.385 . S
C380 C80 1.365 . S
C394 C59 1.459 . S
C398 C101 1.463 . S
C412 C57 1.083 . S
C416 C140 1.168 . S
C430 C160 1.009 . S
C434 C15 1.037 . S
C448 C182 1.326 . S
C452 C38 1.396 1_556 S
C466 C184 1.194 . S
C470 C18 1.297 1_556 S
C484 C35 1.005 . S
C488 C142 1.015 . S
C502 C162 1.133 . S
C506 C60 1.224 . S
C520 C56 1.439 . S
C524 C77 1.429 . S
C538 C98 1.373 . S
C542 C14 1.381 . S
C556 C39 1.709 . S
C560 C119 1.623 . S
C574 C181 1.182 . S
C578 C78 1.108 . S
C592 C139 1.115 . S
C596 C99 1.117 . S
C610 C161 1.226 . S
C614 C120 1.190 . S
C628 C141 1.041 . S
C632 C123 1.134 . S
C646 C81 1.243 . S
C650 C163 1.134 . S
C664 C183 1.043 . S
C668 C102 1.108 . S
