# Generated by pormake.
# Topology smu, (6)-cn, num edge types: 1
# Building blocks:
#     Node 0, Type 0, BuildingBlock: OJICUG_clean_sbu_0, # of connection points: 6
#     Node 1, Type 0, BuildingBlock: OJICUG_clean_sbu_0, # of connection points: 6
#     Node 2, Type 0, BuildingBlock: OJICUG_clean_sbu_0, # of connection points: 6
#     Node 3, Type 0, BuildingBlock: OJICUG_clean_sbu_0, # of connection points: 6
#     Node 4, Type 0, BuildingBlock: OJICUG_clean_sbu_0, # of connection points: 6
#     Node 5, Type 0, BuildingBlock: OJICUG_clean_sbu_0, # of connection points: 6
#     Edge 6, Type (0, 0), BuildingBlock: EZIPEK_clean_linker_0, # of connection points: 2
#     Edge 7, Type (0, 0), BuildingBlock: EZIPEK_clean_linker_0, # of connection points: 2
#     Edge 8, Type (0, 0), BuildingBlock: EZIPEK_clean_linker_0, # of connection points: 2
#     Edge 9, Type (0, 0), BuildingBlock: EZIPEK_clean_linker_0, # of connection points: 2
#     Edge 10, Type (0, 0), BuildingBlock: EZIPEK_clean_linker_0, # of connection points: 2
#     Edge 11, Type (0, 0), BuildingBlock: EZIPEK_clean_linker_0, # of connection points: 2
#     Edge 12, Type (0, 0), BuildingBlock: EZIPEK_clean_linker_0, # of connection points: 2
#     Edge 13, Type (0, 0), BuildingBlock: EZIPEK_clean_linker_0, # of connection points: 2
#     Edge 14, Type (0, 0), BuildingBlock: EZIPEK_clean_linker_0, # of connection points: 2
#     Edge 15, Type (0, 0), BuildingBlock: EZIPEK_clean_linker_0, # of connection points: 2
#     Edge 16, Type (0, 0), BuildingBlock: EZIPEK_clean_linker_0, # of connection points: 2
#     Edge 17, Type (0, 0), BuildingBlock: EZIPEK_clean_linker_0, # of connection points: 2
#     Edge 18, Type (0, 0), BuildingBlock: EZIPEK_clean_linker_0, # of connection points: 2
#     Edge 19, Type (0, 0), BuildingBlock: EZIPEK_clean_linker_0, # of connection points: 2
#     Edge 20, Type (0, 0), BuildingBlock: EZIPEK_clean_linker_0, # of connection points: 2
#     Edge 21, Type (0, 0), BuildingBlock: EZIPEK_clean_linker_0, # of connection points: 2
#     Edge 22, Type (0, 0), BuildingBlock: EZIPEK_clean_linker_0, # of connection points: 2
#     Edge 23, Type (0, 0), BuildingBlock: EZIPEK_clean_linker_0, # of connection points: 2
# Relax obj value: 0.250
# Max RMSD: 0.294
# Mean RMSD: 0.265
data_MOF--net-smu--node1-OJICUG_clean_sbu_0--edge1-EZIPEK_clean_linker_0
_symmetry_space_group_name_H-M    P1
_symmetry_Int_Tables_number       1
_symmetry_cell_setting            triclinic
loop_
_symmetry_equiv_pos_as_xyz
'x, y, z'
_cell_length_a     22.896235
_cell_length_b     22.901858
_cell_length_c     23.112563
_cell_angle_alpha  94.988059
_cell_angle_beta   95.562394
_cell_angle_gamma 119.92077
loop_
_atom_site_label
_atom_site_type_symbol
_atom_site_fract_x
_atom_site_fract_y
_atom_site_fract_z
_atom_type_partial_charge
Sc0 Sc 0.30964 0.07382 0.17358 0.0
Sc1 Sc 0.33347 0.96944 0.25646 0.0
Sc2 Sc 0.37586 0.13314 0.31942 0.0
O3 O 0.33588 0.05846 0.25189 0.0
C4 C 0.43026 0.22213 0.21864 0.0
C5 C 0.35575 0.98257 0.12806 0.0
C6 C 0.48547 0.08616 0.29317 0.0
C7 C 0.19047 0.92704 0.19844 0.0
C8 C 0.24781 0.13789 0.25768 0.0
C9 C 0.3286 0.01054 0.38998 0.0
O10 O 0.39547 0.17418 0.17609 0.0
O11 O 0.32473 0.94127 0.16221 0.0
O12 O 0.46946 0.12517 0.32312 0.0
O13 O 0.21754 0.97152 0.16411 0.0
O14 O 0.28549 0.1443 0.30579 0.0
O15 O 0.33861 0.9752 0.35126 0.0
O16 O 0.25224 0.11488 0.20718 0.0
O17 O 0.22508 0.92169 0.2424 0.0
O18 O 0.33034 0.065 0.38094 0.0
O19 O 0.37643 0.04411 0.14315 0.0
O20 O 0.42443 0.21409 0.27143 0.0
O21 O 0.44208 0.02636 0.26599 0.0
Sc22 Sc 0.76826 0.60904 0.1859 0.0
Sc23 Sc 0.67008 0.65293 0.27007 0.0
Sc24 Sc 0.84344 0.71301 0.32316 0.0
O25 O 0.76036 0.65838 0.25959 0.0
C26 C 0.85484 0.58416 0.28686 0.0
C27 C 0.62368 0.50178 0.21552 0.0
C28 C 0.72619 0.65465 0.40276 0.0
C29 C 0.66801 0.65505 0.13171 0.0
C30 C 0.91195 0.74308 0.20681 0.0
C31 C 0.7806 0.80953 0.31223 0.0
O32 O 0.82564 0.57401 0.23442 0.0
O33 O 0.61391 0.54439 0.24554 0.0
O34 O 0.78711 0.67867 0.39388 0.0
O35 O 0.71185 0.63718 0.12854 0.0
O36 O 0.91274 0.75312 0.26175 0.0
O37 O 0.71934 0.76094 0.29597 0.0
O38 O 0.86113 0.69566 0.17123 0.0
O39 O 0.64888 0.66512 0.17957 0.0
O40 O 0.83104 0.80061 0.32317 0.0
O41 O 0.67679 0.5172 0.19271 0.0
O42 O 0.86166 0.62987 0.32677 0.0
O43 O 0.67773 0.64122 0.36204 0.0
Sc44 Sc 0.88548 0.17224 0.19182 0.0
Sc45 Sc 0.02171 0.33561 0.25378 0.0
Sc46 Sc 0.90154 0.24027 0.33391 0.0
O47 O 0.93094 0.25014 0.25652 0.0
C48 C 0.76106 0.1722 0.25127 0.0
C49 C 0.9542 0.28729 0.11627 0.0
C50 C 0.93942 0.38989 0.30224 0.0
C51 C 0.04587 0.21671 0.22083 0.0
C52 C 0.86204 0.08771 0.29731 0.0
C53 C 0.03611 0.32548 0.38632 0.0
O54 O 0.7832 0.15747 0.20574 0.0
O55 O 0.00603 0.32179 0.15684 0.0
O56 O 0.92197 0.34567 0.33759 0.0
O57 O -0.01357 0.1807 0.18816 0.0
O58 O 0.87294 0.13562 0.33664 0.0
O59 O 0.05152 0.36817 0.35092 0.0
O60 O 0.86781 0.09536 0.24433 0.0
O61 O 0.067 0.27445 0.25175 0.0
O62 O 0.00288 0.26548 0.36121 0.0
O63 O 0.89808 0.23879 0.12654 0.0
O64 O 0.79938 0.20659 0.2998 0.0
O65 O 0.97023 0.38992 0.25918 0.0
Sc66 Sc 0.05553 0.27724 0.66606 0.0
Sc67 Sc 0.95667 0.33013 0.7375 0.0
Sc68 Sc 0.1273 0.38892 0.80016 0.0
O69 O 0.04618 0.33098 0.7354 0.0
C70 C 0.13119 0.24962 0.77254 0.0
C71 C 0.90393 0.17591 0.68952 0.0
C72 C 0.00472 0.33705 0.87588 0.0
C73 C 0.97722 0.34084 0.60362 0.0
C74 C 0.2038 0.40777 0.68908 0.0
C75 C 0.06907 0.48849 0.76896 0.0
O76 O 0.09735 0.23363 0.72124 0.0
O77 O 0.89754 0.22059 0.72025 0.0
O78 O 0.06693 0.36029 0.8705 0.0
O79 O 0.01894 0.32004 0.60646 0.0
O80 O 0.19927 0.42561 0.74107 0.0
O81 O 0.00891 0.43871 0.75104 0.0
O82 O 0.15578 0.35571 0.65546 0.0
O83 O 0.94315 0.33942 0.64441 0.0
O84 O 0.11701 0.47915 0.79062 0.0
O85 O 0.95611 0.18959 0.66569 0.0
O86 O 0.14641 0.30352 0.80806 0.0
O87 O 0.95883 0.32341 0.83216 0.0
Sc88 Sc 0.13147 0.88006 0.68462 0.0
Sc89 Sc 0.29807 0.98784 0.76096 0.0
Sc90 Sc 0.17931 0.84129 0.81138 0.0
O91 O 0.20431 0.9051 0.75249 0.0
C92 C 0.05365 0.85275 0.79519 0.0
C93 C 0.19598 0.04107 0.73349 0.0
C94 C 0.29388 0.97503 0.89239 0.0
C95 C 0.26211 0.94948 0.62093 0.0
C96 C 0.10227 0.73631 0.70303 0.0
C97 C 0.3166 0.86128 0.77967 0.0
O98 O 0.05339 0.84268 0.74 0.0
O99 O 0.2558 0.05211 0.75019 0.0
O100 O 0.25291 0.91198 0.88016 0.0
O101 O 0.19815 0.91544 0.62022 0.0
O102 O 0.09804 0.75692 0.75351 0.0
O103 O 0.33986 0.92381 0.77445 0.0
O104 O 0.12026 0.77709 0.66502 0.0
O105 O 0.30475 0.9748 0.66845 0.0
O106 O 0.25559 0.81925 0.78719 0.0
O107 O 0.14551 0.98256 0.70813 0.0
O108 O 0.10505 0.86741 0.83331 0.0
O109 O 0.30837 0.01484 0.8546 0.0
Sc110 Sc 0.59585 0.74976 0.67351 0.0
Sc111 Sc 0.63018 0.64923 0.76352 0.0
Sc112 Sc 0.66295 0.81208 0.8186 0.0
O113 O 0.63016 0.73601 0.75175 0.0
C114 C 0.71497 0.89695 0.7138 0.0
C115 C 0.65414 0.65753 0.62958 0.0
C116 C 0.77842 0.77252 0.81736 0.0
C117 C 0.48264 0.59963 0.69408 0.0
C118 C 0.53344 0.80694 0.76232 0.0
C119 C 0.61778 0.69318 0.89481 0.0
O120 O 0.68907 0.84527 0.67369 0.0
O121 O 0.6542 0.63341 0.67696 0.0
O122 O 0.76012 0.81657 0.82738 0.0
O123 O 0.50188 0.65352 0.67028 0.0
O124 O 0.56395 0.80096 0.80821 0.0
O125 O 0.61074 0.64805 0.8541 0.0
O126 O 0.55192 0.80481 0.7126 0.0
O127 O 0.52212 0.59004 0.72996 0.0
O128 O 0.63333 0.75233 0.88637 0.0
O129 O 0.63604 0.70062 0.62318 0.0
O130 O 0.6998 0.89211 0.76516 0.0
O131 O 0.73776 0.7097 0.79604 0.0
C132 C 0.26909 0.97604 0.9902 0.0
C133 C 0.32072 -0.0015 0.95481 0.0
C134 C 0.39686 -0.0066 0.03317 0.0
C135 C 0.34119 0.9622 0.06435 0.0
N136 N 0.2192 0.89845 0.05867 0.0
N137 N 0.43296 0.02355 0.93947 0.0
C138 C 0.27541 0.94518 0.03833 0.0
C139 C 0.38498 0.0065 0.97558 0.0
N140 N 0.21166 0.97882 0.9743 0.0
N141 N 0.4609 0.01204 0.05964 0.0
H142 H 0.42619 0.03625 0.89807 0.0
H143 H 0.47764 0.02235 0.94968 0.0
H144 H 0.46953 -0.00055 0.10072 0.0
H145 H 0.50483 0.04172 0.042 0.0
H146 H 0.17354 0.96556 1.00042 0.0
H147 H 0.20619 0.00048 0.93768 0.0
H148 H 0.16947 0.88183 0.03883 0.0
H149 H 0.223 0.87057 0.09057 0.0
C150 C 0.63138 0.58933 0.53129 0.0
C151 C 0.67896 0.6386 0.57891 0.0
C152 C 0.75923 0.69593 0.51299 0.0
C153 C 0.71228 0.64596 0.46426 0.0
N154 N 0.61275 0.53343 0.4321 0.0
N155 N 0.79523 0.72194 0.6188 0.0
C156 C 0.65117 0.58874 0.47497 0.0
C157 C 0.74572 0.68539 0.57085 0.0
N158 N 0.56638 0.54505 0.53941 0.0
N159 N 0.81295 0.75663 0.50466 0.0
H160 H 0.78549 0.7143 0.66156 0.0
H161 H 0.84658 0.75343 0.6157 0.0
H162 H 0.82187 0.77138 0.46367 0.0
H163 H 0.84404 0.79642 0.53905 0.0
H164 H 0.5267 0.51348 0.50498 0.0
H165 H 0.55193 0.54284 0.58089 0.0
H166 H 0.57132 0.48811 0.43944 0.0
H167 H 0.62648 0.53018 0.39093 0.0
C168 C 0.97051 0.25163 0.01506 0.0
C169 C 0.96229 0.29821 0.05341 0.0
C170 C 0.97117 0.36462 0.97216 0.0
C171 C 0.98531 0.32133 0.93564 0.0
N172 N 0.00527 0.22753 0.92436 0.0
N173 N 0.95924 0.40169 0.07032 0.0
C174 C -0.01337 0.26584 0.95775 0.0
C175 C 0.96372 0.35542 0.03233 0.0
N176 N 0.96224 0.19306 0.0332 0.0
N177 N 0.96471 0.4145 0.94916 0.0
H178 H 0.95109 0.39503 0.11351 0.0
H179 H 0.9672 0.44834 0.06049 0.0
H180 H 0.9721 0.42397 0.90634 0.0
H181 H 0.94787 0.44371 0.97077 0.0
H182 H 0.95895 0.15292 0.00537 0.0
H183 H 0.95363 0.18194 0.07537 0.0
H184 H 0.01628 0.19231 0.94012 0.0
H185 H 0.01408 0.23404 0.88139 0.0
C186 C 0.35711 0.04122 0.49977 0.0
C187 C 0.3184 -0.00924 0.44957 0.0
C188 C 0.25848 0.90884 0.51505 0.0
C189 C 0.28705 0.96287 0.56347 0.0
N190 N 0.3555 0.08479 0.59792 0.0
N191 N 0.22469 0.87723 0.40939 0.0
C192 C 0.33475 0.03025 0.55505 0.0
C193 C 0.26736 0.92438 0.45706 0.0
N194 N 0.4161 0.0993 0.495 0.0
N195 N 0.22413 0.84263 0.52449 0.0
H196 H 0.22761 0.88683 0.36621 0.0
H197 H 0.18223 0.83072 0.41312 0.0
H198 H 0.21922 0.82936 0.56657 0.0
H199 H 0.20746 0.80131 0.4913 0.0
H200 H 0.44924 0.13482 0.53141 0.0
H201 H 0.4358 0.10788 0.4557 0.0
H202 H 0.3846 0.13513 0.5909 0.0
H203 H 0.33799 0.08076 0.63811 0.0
C204 C 0.57077 0.63471 0.98159 0.0
C205 C 0.62579 0.68448 0.95744 0.0
C206 C 0.69745 0.72798 0.05497 0.0
C207 C 0.64634 0.67265 0.0771 0.0
N208 N 0.53389 0.57338 0.06422 0.0
N209 N 0.74518 0.77366 0.97029 0.0
C210 C 0.58235 0.62636 0.04137 0.0
C211 C 0.68977 0.73048 0.99412 0.0
N212 N 0.50755 0.59685 0.94784 0.0
N213 N 0.75445 0.77768 0.09232 0.0
H214 H 0.74366 0.77672 0.92578 0.0
H215 H 0.79479 0.8017 0.99348 0.0
H216 H 0.7642 0.77498 0.13669 0.0
H217 H 0.78926 0.82414 0.08069 0.0
H218 H 0.46372 0.56396 0.96406 0.0
H219 H 0.4981 0.6018 0.90399 0.0
H220 H 0.48931 0.53297 0.03919 0.0
H221 H 0.53966 0.56904 0.10869 0.0
C222 C 0.96209 0.28412 0.46496 0.0
C223 C 0.01722 0.33961 0.4446 0.0
C224 C 0.01995 0.41455 0.52948 0.0
C225 C 0.96375 0.35726 0.54555 0.0
N226 N 0.86256 0.24962 0.51179 0.0
N227 N 0.09842 0.46134 0.45973 0.0
C228 C 0.92611 0.29816 0.50431 0.0
C229 C 0.0452 0.40669 0.47663 0.0
N230 N 0.95121 0.2196 0.45531 0.0
N231 N 0.05295 0.47384 0.56854 0.0
H232 H 0.12566 0.45641 0.42799 0.0
H233 H 0.11554 0.51166 0.47732 0.0
H234 H 0.03376 0.47858 0.60681 0.0
H235 H 0.09904 0.51635 0.56424 0.0
H236 H 0.913 0.17906 0.47184 0.0
H237 H -0.0122 0.20993 0.441 0.0
H238 H 0.83315 0.20427 0.48215 0.0
H239 H 0.83881 0.25856 0.54504 0.0
C240 C 0.57831 0.13944 0.23079 0.0
C241 C 0.55743 0.11254 0.2835 0.0
C242 C 0.66173 0.10774 0.3032 0.0
C243 C 0.68664 0.14222 0.25444 0.0
N244 N 0.67093 0.19723 0.17535 0.0
N245 N 0.583 0.0791 0.37361 0.0
C246 C 0.64528 0.15931 0.21882 0.0
C247 C 0.60037 0.09913 0.32077 0.0
N248 N 0.53358 0.14514 0.19159 0.0
N249 N 0.69615 0.08145 0.332 0.0
H250 H 0.53806 0.07184 0.38738 0.0
H251 H 0.61567 0.07569 0.40595 0.0
H252 H 0.74084 0.08596 0.32051 0.0
H253 H 0.67718 0.04958 0.36337 0.0
H254 H 0.54175 0.15567 0.1492 0.0
H255 H 0.48653 0.13615 0.20091 0.0
H256 H 0.6467 0.21866 0.15262 0.0
H257 H 0.71889 0.21117 0.16458 0.0
C258 C 0.58257 0.39635 0.25873 0.0
C259 C 0.57452 0.42951 0.21277 0.0
C260 C 0.47058 0.32481 0.16585 0.0
C261 C 0.48313 0.29009 0.20912 0.0
N262 N 0.56557 0.29011 0.28343 0.0
N263 N 0.5203 0.4234 0.11583 0.0
C264 C 0.54388 0.32502 0.25127 0.0
C265 C 0.52175 0.39302 0.1638 0.0
N266 N 0.62589 0.43267 0.31014 0.0
N267 N 0.40905 0.29531 0.12958 0.0
H268 H 0.55709 0.47359 0.11347 0.0
H269 H 0.48634 0.39693 0.07676 0.0
H270 H 0.36869 0.2465 0.13051 0.0
H271 H 0.39579 0.32197 0.10202 0.0
H272 H 0.62751 0.41023 0.34718 0.0
H273 H 0.65682 0.48564 0.31693 0.0
H274 H 0.61247 0.31379 0.31135 0.0
H275 H 0.54053 0.23713 0.2771 0.0
C276 C 0.96427 0.50854 0.33029 0.0
C277 C 0.91661 0.4391 0.30771 0.0
C278 C 0.82648 0.46485 0.2874 0.0
C279 C 0.87582 0.53545 0.30179 0.0
N280 N -0.00666 0.62594 0.33153 0.0
N281 N 0.80499 0.35155 0.25699 0.0
C282 C 0.94518 0.55797 0.32274 0.0
C283 C 0.84818 0.4171 0.28475 0.0
N284 N 0.02758 0.52692 0.35861 0.0
N285 N 0.75864 0.44353 0.27627 0.0
H286 H 0.8193 0.31497 0.25304 0.0
H287 H 0.75703 0.335 0.23316 0.0
H288 H 0.74113 0.47757 0.27703 0.0
H289 H 0.71992 0.39266 0.27156 0.0
H290 H 0.06226 0.57564 0.38133 0.0
H291 H 0.04325 0.4917 0.36334 0.0
H292 H 0.04563 0.64471 0.34029 0.0
H293 H 0.98157 0.66375 0.32573 0.0
C294 C 0.14466 0.60757 0.73999 0.0
C295 C 0.0817 0.55739 0.75521 0.0
C296 C 0.02623 0.61576 0.71073 0.0
C297 C 0.08858 0.66487 0.69537 0.0
N298 N 0.20071 0.69528 0.6792 0.0
N299 N 0.97065 0.53279 0.77466 0.0
C300 C 0.14556 0.65641 0.70477 0.0
C301 C 0.02434 0.56645 0.7454 0.0
N302 N 0.20484 0.61442 0.76442 0.0
N303 N 0.96886 0.61799 0.69291 0.0
H304 H 0.97159 0.50347 0.80649 0.0
H305 H 0.92975 0.54097 0.77353 0.0
H306 H 0.97032 0.65443 0.66786 0.0
H307 H 0.91995 0.58054 0.69771 0.0
H308 H 0.25215 0.6556 0.76053 0.0
H309 H 0.20843 0.58606 0.79582 0.0
H310 H 0.24216 0.68805 0.6795 0.0
H311 H 0.20032 0.7291 0.65189 0.0
C312 C 0.37462 0.81751 0.72026 0.0
C313 C 0.36486 0.83797 0.77604 0.0
C314 C 0.47216 0.85135 0.82036 0.0
C315 C 0.47546 0.81823 0.76667 0.0
N316 N 0.4154 0.75361 0.66855 0.0
N317 N 0.39819 0.86441 0.88144 0.0
C318 C 0.42258 0.7964 0.71732 0.0
C319 C 0.41106 0.85045 0.82704 0.0
N320 N 0.3402 0.82047 0.66992 0.0
N321 N 0.52865 0.88931 0.86263 0.0
H322 H 0.3541 0.86542 0.88755 0.0
H323 H 0.42824 0.86869 0.92031 0.0
H324 H 0.57747 0.90079 0.85632 0.0
H325 H 0.52891 0.91803 0.9003 0.0
H326 H 0.35144 0.81262 0.6283 0.0
H327 H 0.30467 0.83633 0.6701 0.0
H328 H 0.37358 0.73303 0.63482 0.0
H329 H 0.44463 0.7309 0.66453 0.0
C330 C 0.29184 0.52265 0.6782 0.0
C331 C 0.26836 0.45252 0.66828 0.0
C332 C 0.3846 0.47889 0.65967 0.0
C333 C 0.4089 0.54808 0.68315 0.0
N334 N 0.38403 0.63088 0.72794 0.0
N335 N 0.28969 0.36156 0.64176 0.0
C336 C 0.36214 0.5691 0.69508 0.0
C337 C 0.31374 0.42971 0.65561 0.0
N338 N 0.24649 0.54461 0.67245 0.0
N339 N 0.429 0.46051 0.64155 0.0
H340 H 0.23794 0.32485 0.63584 0.0
H341 H 0.32079 0.3409 0.6375 0.0
H342 H 0.48131 0.49466 0.64648 0.0
H343 H 0.41393 0.41278 0.61861 0.0
H344 H 0.26255 0.59594 0.67254 0.0
H345 H 0.19398 0.51072 0.66031 0.0
H346 H 0.35042 0.64524 0.74192 0.0
H347 H 0.43497 0.66426 0.74662 0.0
C348 C 0.20985 0.21477 0.22224 0.0
C349 C 0.19921 0.16283 0.25666 0.0
C350 C 0.08603 0.14453 0.26673 0.0
C351 C 0.0936 0.19065 0.22655 0.0
N352 N 0.15891 0.26285 0.15972 0.0
N353 N 0.12436 0.07227 0.30616 0.0
C354 C 0.15452 0.22372 0.2024 0.0
C355 C 0.13655 0.12609 0.27758 0.0
N356 N 0.2737 0.25671 0.20988 0.0
N357 N 0.03219 0.12079 0.29674 0.0
H358 H 0.16106 0.05887 0.31651 0.0
H359 H 0.07654 0.03812 0.3159 0.0
H360 H -0.00537 0.13356 0.29034 0.0
H361 H 0.02809 0.0933 0.33121 0.0
H362 H 0.28651 0.29934 0.18942 0.0
H363 H 0.31573 0.25281 0.22556 0.0
H364 H 0.19941 0.28311 0.13617 0.0
H365 H 0.11879 0.26974 0.14402 0.0
C366 C -0.00277 0.85099 0.17694 0.0
C367 C 0.97704 0.78382 0.18581 0.0
C368 C 0.09284 0.80653 0.18245 0.0
C369 C 0.11591 0.87711 0.18548 0.0
N370 N 0.08976 0.96755 0.18721 0.0
N371 N 0.00313 0.69519 0.19633 0.0
C372 C 0.0679 0.89961 0.18168 0.0
C373 C 0.02388 0.76047 0.18723 0.0
N374 N 0.94857 0.86818 0.16506 0.0
N375 N 0.13673 0.78352 0.1744 0.0
H376 H 0.95221 0.65901 0.19699 0.0
H377 H 0.0366 0.67778 0.20613 0.0
H378 H 0.18781 0.81578 0.17098 0.0
H379 H 0.12127 0.73204 0.16581 0.0
H380 H 0.95885 0.91459 0.15264 0.0
H381 H 0.89656 0.83302 0.16216 0.0
H382 H 0.05778 0.98723 0.19128 0.0
H383 H 0.1408 0.00525 0.19225 0.0
C384 C 0.77713 0.96449 0.27018 0.0
C385 C 0.83376 0.01737 0.31016 0.0
C386 C 0.83985 0.9315 0.36203 0.0
C387 C 0.79437 0.88015 0.31422 0.0
N388 N 0.72808 0.8519 0.21651 0.0
N389 N 0.92283 0.05118 0.39314 0.0
C390 C 0.76448 0.8974 0.26685 0.0
C391 C 0.86581 0.00111 0.35646 0.0
N392 N 0.7352 0.97815 0.23508 0.0
N393 N 0.85684 0.91382 0.41316 0.0
H394 H 0.94462 0.10254 0.38948 0.0
H395 H 0.95213 0.04118 0.42351 0.0
H396 H 0.83615 0.8632 0.41945 0.0
H397 H 0.88493 0.94898 0.45121 0.0
H398 H 0.6893 0.93992 0.20975 0.0
H399 H 0.74224 0.02681 0.23594 0.0
H400 H 0.71266 0.86565 0.17868 0.0
H401 H 0.71933 0.80263 0.20949 0.0
C402 C 0.21725 0.21858 0.75372 0.0
C403 C 0.16259 0.20756 0.7839 0.0
C404 C 0.14318 0.09392 0.79446 0.0
C405 C 0.18459 0.0986 0.7509 0.0
N406 N 0.26224 0.16783 0.68863 0.0
N407 N 0.07252 0.13358 0.83372 0.0
C408 C 0.22288 0.16207 0.73103 0.0
C409 C 0.12551 0.14494 0.80493 0.0
N410 N 0.26356 0.28334 0.74667 0.0
N411 N 0.12441 0.04352 0.82844 0.0
H412 H 0.06143 0.17173 0.84446 0.0
H413 H 0.03868 0.086 0.84425 0.0
H414 H 0.13986 0.00771 0.8243 0.0
H415 H 0.0991 0.04133 0.86405 0.0
H416 H 0.30898 0.29576 0.73119 0.0
H417 H 0.2598 0.32517 0.76285 0.0
H418 H 0.28609 0.21122 0.66865 0.0
H419 H 0.26615 0.1271 0.66982 0.0
C420 C 0.95457 0.86905 0.77968 0.0
C421 C -0.01089 0.84248 0.81264 0.0
C422 C 0.88722 0.77808 0.85784 0.0
C423 C 0.85136 0.79814 0.81867 0.0
N424 N 0.84618 0.84509 0.72997 0.0
N425 N 0.98374 0.76224 0.87696 0.0
C426 C 0.8837 0.83915 0.77644 0.0
C427 C 0.95481 0.79523 0.85104 0.0
N428 N -0.01086 0.92225 0.75025 0.0
N429 N 0.85624 0.74138 0.90045 0.0
H430 H 0.03205 0.77101 0.87225 0.0
H431 H 0.95747 0.72162 0.89947 0.0
H432 H 0.80504 0.72312 0.90334 0.0
H433 H 0.88236 0.73255 0.93481 0.0
H434 H 0.96727 0.94801 0.73128 0.0
H435 H 0.04103 0.94454 0.74963 0.0
H436 H 0.86722 0.86843 0.69447 0.0
H437 H 0.79304 0.82101 0.72368 0.0
C438 C 0.79989 0.06218 0.64745 0.0
C439 C 0.85637 0.10361 0.69263 0.0
C440 C 0.82725 0.00611 0.74385 0.0
C441 C 0.76576 0.96606 0.70266 0.0
N442 N 0.68834 0.9599 0.62005 0.0
N443 N 0.92055 0.11826 0.78726 0.0
C444 C 0.75085 -0.0052 0.65522 0.0
C445 C 0.86908 0.07644 0.74171 0.0
N446 N 0.79324 0.08724 0.59725 0.0
N447 N 0.84724 0.97662 0.7841 0.0
H448 H 0.95533 0.16947 0.78622 0.0
H449 H 0.92579 0.1035 0.82791 0.0
H450 H 0.81805 0.92567 0.78846 0.0
H451 H 0.89563 0.00097 0.80956 0.0
H452 H 0.75732 0.05729 0.56003 0.0
H453 H 0.82732 0.13704 0.59123 0.0
H454 H 0.67214 0.98124 0.58892 0.0
H455 H 0.64994 0.91161 0.62531 0.0
loop_
_geom_bond_atom_site_label_1
_geom_bond_atom_site_label_2
_geom_bond_distance
_geom_bond_site_symmetry_2
_ccdc_geom_bond_type
Sc0 O3 2.025 . S
Sc0 O10 2.105 . S
Sc0 O13 2.105 1_545 S
Sc0 O16 2.105 . S
Sc0 O19 2.105 . S
Sc1 O3 2.025 1_565 S
Sc1 O11 2.105 . S
Sc1 O15 2.105 . S
Sc1 O17 2.105 . S
Sc1 O21 2.105 1_565 S
Sc2 O3 2.025 . S
Sc2 O12 2.105 . S
Sc2 O14 2.105 . S
Sc2 O18 2.105 . S
Sc2 O20 2.105 . S
O3 Sc0 2.025 . S
O3 Sc1 2.025 1_545 S
O3 Sc2 2.025 . S
C4 O10 1.268 . S
C4 O20 1.268 . S
C5 O11 1.268 1_545 S
C5 O19 1.268 . S
C6 O12 1.268 . S
C6 O21 1.268 . S
C7 O13 1.268 . S
C7 O17 1.268 . S
C8 O14 1.268 . S
C8 O16 1.268 . S
C9 O15 1.268 1_545 S
C9 O18 1.268 . S
O10 Sc0 2.105 . S
O10 C4 1.268 . S
O11 Sc1 2.105 . S
O11 C5 1.268 1_565 S
O12 Sc2 2.105 . S
O12 C6 1.268 . S
O13 Sc0 2.105 1_565 S
O13 C7 1.268 . S
O14 Sc2 2.105 . S
O14 C8 1.268 . S
O15 Sc1 2.105 . S
O15 C9 1.268 1_565 S
O16 Sc0 2.105 . S
O16 C8 1.268 . S
O17 Sc1 2.105 . S
O17 C7 1.268 . S
O18 Sc2 2.105 . S
O18 C9 1.268 . S
O19 Sc0 2.105 . S
O19 C5 1.268 . S
O20 Sc2 2.105 . S
O20 C4 1.268 . S
O21 Sc1 2.105 1_545 S
O21 C6 1.268 . S
Sc22 O25 2.025 . S
Sc22 O32 2.105 . S
Sc22 O35 2.105 . S
Sc22 O38 2.105 . S
Sc22 O41 2.105 . S
Sc23 O25 2.025 . S
Sc23 O33 2.105 . S
Sc23 O37 2.105 . S
Sc23 O39 2.105 . S
Sc23 O43 2.105 . S
Sc24 O25 2.025 . S
Sc24 O34 2.105 . S
Sc24 O36 2.105 . S
Sc24 O40 2.105 . S
Sc24 O42 2.105 . S
O25 Sc22 2.025 . S
O25 Sc23 2.025 . S
O25 Sc24 2.025 . S
C26 O32 1.268 . S
C26 O42 1.268 . S
C27 O33 1.268 . S
C27 O41 1.268 . S
C28 O34 1.268 . S
C28 O43 1.268 . S
C29 O35 1.268 . S
C29 O39 1.268 . S
C30 O36 1.268 . S
C30 O38 1.268 . S
C31 O37 1.268 . S
C31 O40 1.268 . S
O32 Sc22 2.105 . S
O32 C26 1.268 . S
O33 Sc23 2.105 . S
O33 C27 1.268 . S
O34 Sc24 2.105 . S
O34 C28 1.268 . S
O35 Sc22 2.105 . S
O35 C29 1.268 . S
O36 Sc24 2.105 . S
O36 C30 1.268 . S
O37 Sc23 2.105 . S
O37 C31 1.268 . S
O38 Sc22 2.105 . S
O38 C30 1.268 . S
O39 Sc23 2.105 . S
O39 C29 1.268 . S
O40 Sc24 2.105 . S
O40 C31 1.268 . S
O41 Sc22 2.105 . S
O41 C27 1.268 . S
O42 Sc24 2.105 . S
O42 C26 1.268 . S
O43 Sc23 2.105 . S
O43 C28 1.268 . S
Sc44 O47 2.025 . S
Sc44 O54 2.105 . S
Sc44 O57 2.105 . S
Sc44 O60 2.105 . S
Sc44 O63 2.105 . S
Sc45 O47 2.025 1_455 S
Sc45 O55 2.105 . S
Sc45 O59 2.105 . S
Sc45 O61 2.105 . S
Sc45 O65 2.105 1_455 S
Sc46 O47 2.025 . S
Sc46 O56 2.105 . S
Sc46 O58 2.105 . S
Sc46 O62 2.105 . S
Sc46 O64 2.105 . S
O47 Sc44 2.025 . S
O47 Sc45 2.025 1_655 S
O47 Sc46 2.025 . S
C48 O54 1.268 . S
C48 O64 1.268 . S
C49 O55 1.268 1_655 S
C49 O63 1.268 . S
C50 O56 1.268 . S
C50 O65 1.268 . S
C51 O57 1.268 1_455 S
C51 O61 1.268 . S
C52 O58 1.268 . S
C52 O60 1.268 . S
C53 O59 1.268 . S
C53 O62 1.268 1_455 S
O54 Sc44 2.105 . S
O54 C48 1.268 . S
O55 Sc45 2.105 . S
O55 C49 1.268 1_455 S
O56 Sc46 2.105 . S
O56 C50 1.268 . S
O57 Sc44 2.105 . S
O57 C51 1.268 1_655 S
O58 Sc46 2.105 . S
O58 C52 1.268 . S
O59 Sc45 2.105 . S
O59 C53 1.268 . S
O60 Sc44 2.105 . S
O60 C52 1.268 . S
O61 Sc45 2.105 . S
O61 C51 1.268 . S
O62 Sc46 2.105 . S
O62 C53 1.268 1_655 S
O63 Sc44 2.105 . S
O63 C49 1.268 . S
O64 Sc46 2.105 . S
O64 C48 1.268 . S
O65 Sc45 2.105 1_655 S
O65 C50 1.268 . S
Sc66 O69 2.025 . S
Sc66 O76 2.105 . S
Sc66 O79 2.105 . S
Sc66 O82 2.105 . S
Sc66 O85 2.105 1_455 S
Sc67 O69 2.025 1_655 S
Sc67 O77 2.105 . S
Sc67 O81 2.105 1_655 S
Sc67 O83 2.105 . S
Sc67 O87 2.105 . S
Sc68 O69 2.025 . S
Sc68 O78 2.105 . S
Sc68 O80 2.105 . S
Sc68 O84 2.105 . S
Sc68 O86 2.105 . S
O69 Sc66 2.025 . S
O69 Sc67 2.025 1_455 S
O69 Sc68 2.025 . S
C70 O76 1.268 . S
C70 O86 1.268 . S
C71 O77 1.268 . S
C71 O85 1.268 . S
C72 O78 1.268 . S
C72 O87 1.268 1_455 S
C73 O79 1.268 . S
C73 O83 1.268 1_455 S
C74 O80 1.268 . S
C74 O82 1.268 . S
C75 O81 1.268 . S
C75 O84 1.268 . S
O76 Sc66 2.105 . S
O76 C70 1.268 . S
O77 Sc67 2.105 . S
O77 C71 1.268 . S
O78 Sc68 2.105 . S
O78 C72 1.268 . S
O79 Sc66 2.105 . S
O79 C73 1.268 . S
O80 Sc68 2.105 . S
O80 C74 1.268 . S
O81 Sc67 2.105 1_455 S
O81 C75 1.268 . S
O82 Sc66 2.105 . S
O82 C74 1.268 . S
O83 Sc67 2.105 . S
O83 C73 1.268 1_655 S
O84 Sc68 2.105 . S
O84 C75 1.268 . S
O85 Sc66 2.105 1_655 S
O85 C71 1.268 . S
O86 Sc68 2.105 . S
O86 C70 1.268 . S
O87 Sc67 2.105 . S
O87 C72 1.268 1_655 S
Sc88 O91 2.025 . S
Sc88 O98 2.105 . S
Sc88 O101 2.105 . S
Sc88 O104 2.105 . S
Sc88 O107 2.105 . S
Sc89 O91 2.025 1_545 S
Sc89 O99 2.105 . S
Sc89 O103 2.105 1_545 S
Sc89 O105 2.105 . S
Sc89 O109 2.105 . S
Sc90 O91 2.025 . S
Sc90 O100 2.105 . S
Sc90 O102 2.105 . S
Sc90 O106 2.105 . S
Sc90 O108 2.105 . S
O91 Sc88 2.025 . S
O91 Sc89 2.025 1_565 S
O91 Sc90 2.025 . S
C92 O98 1.268 . S
C92 O108 1.268 . S
C93 O99 1.268 . S
C93 O107 1.268 1_545 S
C94 O100 1.268 1_545 S
C94 O109 1.268 . S
C95 O101 1.268 . S
C95 O105 1.268 1_565 S
C96 O102 1.268 . S
C96 O104 1.268 . S
C97 O103 1.268 . S
C97 O106 1.268 . S
O98 Sc88 2.105 . S
O98 C92 1.268 . S
O99 Sc89 2.105 . S
O99 C93 1.268 . S
O100 Sc90 2.105 . S
O100 C94 1.268 1_565 S
O101 Sc88 2.105 . S
O101 C95 1.268 . S
O102 Sc90 2.105 . S
O102 C96 1.268 . S
O103 Sc89 2.105 1_565 S
O103 C97 1.268 . S
O104 Sc88 2.105 . S
O104 C96 1.268 . S
O105 Sc89 2.105 . S
O105 C95 1.268 1_545 S
O106 Sc90 2.105 . S
O106 C97 1.268 . S
O107 Sc88 2.105 . S
O107 C93 1.268 1_565 S
O108 Sc90 2.105 . S
O108 C92 1.268 . S
O109 Sc89 2.105 . S
O109 C94 1.268 . S
Sc110 O113 2.025 . S
Sc110 O120 2.105 . S
Sc110 O123 2.105 . S
Sc110 O126 2.105 . S
Sc110 O129 2.105 . S
Sc111 O113 2.025 . S
Sc111 O121 2.105 . S
Sc111 O125 2.105 . S
Sc111 O127 2.105 . S
Sc111 O131 2.105 . S
Sc112 O113 2.025 . S
Sc112 O122 2.105 . S
Sc112 O124 2.105 . S
Sc112 O128 2.105 . S
Sc112 O130 2.105 . S
O113 Sc110 2.025 . S
O113 Sc111 2.025 . S
O113 Sc112 2.025 . S
C114 O120 1.268 . S
C114 O130 1.268 . S
C115 O121 1.268 . S
C115 O129 1.268 . S
C116 O122 1.268 . S
C116 O131 1.268 . S
C117 O123 1.268 . S
C117 O127 1.268 . S
C118 O124 1.268 . S
C118 O126 1.268 . S
C119 O125 1.268 . S
C119 O128 1.268 . S
O120 Sc110 2.105 . S
O120 C114 1.268 . S
O121 Sc111 2.105 . S
O121 C115 1.268 . S
O122 Sc112 2.105 . S
O122 C116 1.268 . S
O123 Sc110 2.105 . S
O123 C117 1.268 . S
O124 Sc112 2.105 . S
O124 C118 1.268 . S
O125 Sc111 2.105 . S
O125 C119 1.268 . S
O126 Sc110 2.105 . S
O126 C118 1.268 . S
O127 Sc111 2.105 . S
O127 C117 1.268 . S
O128 Sc112 2.105 . S
O128 C119 1.268 . S
O129 Sc110 2.105 . S
O129 C115 1.268 . S
O130 Sc112 2.105 . S
O130 C114 1.268 . S
O131 Sc111 2.105 . S
O131 C116 1.268 . S
C132 C133 1.363 1_565 S
C132 C138 1.379 1_556 S
C132 N140 1.356 . S
C133 C132 1.363 1_545 S
C133 C139 1.363 . S
C134 C135 1.363 . S
C134 C139 1.379 1_554 S
C134 N141 1.356 . S
C135 C134 1.363 . S
C135 C138 1.363 1_545 S
N136 C138 1.356 . S
N136 H148 0.984 . S
N136 H149 0.985 . S
N137 C139 1.356 . S
N137 H142 0.984 . S
N137 H143 0.985 . S
C138 C132 1.379 1_554 S
C138 C135 1.363 1_565 S
C138 N136 1.356 . S
C139 C133 1.363 . S
C139 C134 1.379 1_556 S
C139 N137 1.356 . S
N140 C132 1.356 . S
N140 H146 0.984 . S
N140 H147 0.984 . S
N141 C134 1.356 . S
N141 H144 0.984 . S
N141 H145 0.985 . S
H142 N137 0.984 . S
H143 N137 0.985 . S
H144 N141 0.984 . S
H145 N141 0.985 . S
H146 N140 0.984 . S
H147 N140 0.984 . S
H148 N136 0.984 . S
H149 N136 0.985 . S
C150 C151 1.363 . S
C150 C156 1.379 . S
C150 N158 1.356 . S
C151 C150 1.363 . S
C151 C157 1.363 . S
C152 C153 1.363 . S
C152 C157 1.379 . S
C152 N159 1.356 . S
C153 C152 1.363 . S
C153 C156 1.363 . S
N154 C156 1.356 . S
N154 H166 0.984 . S
N154 H167 0.985 . S
N155 C157 1.356 . S
N155 H160 0.984 . S
N155 H161 0.985 . S
C156 C150 1.379 . S
C156 C153 1.363 . S
C156 N154 1.356 . S
C157 C151 1.363 . S
C157 C152 1.379 . S
C157 N155 1.356 . S
N158 C150 1.356 . S
N158 H164 0.984 . S
N158 H165 0.984 . S
N159 C152 1.356 . S
N159 H162 0.984 . S
N159 H163 0.985 . S
H160 N155 0.984 . S
H161 N155 0.985 . S
H162 N159 0.984 . S
H163 N159 0.985 . S
H164 N158 0.984 . S
H165 N158 0.984 . S
H166 N154 0.984 . S
H167 N154 0.985 . S
C168 C169 1.363 . S
C168 C174 1.379 1_554 S
C168 N176 1.356 . S
C169 C168 1.363 . S
C169 C175 1.363 . S
C170 C171 1.359 1_655 S
C170 C175 1.379 1_556 S
C170 N177 1.356 . S
C171 C170 1.359 1_455 S
C171 C174 1.365 1_455 S
N172 C174 1.356 1_455 S
N172 H184 0.984 . S
N172 H185 0.985 . S
N173 C175 1.356 . S
N173 H178 0.984 . S
N173 H179 0.985 . S
C174 C168 1.379 1_556 S
C174 C171 1.365 1_655 S
C174 N172 1.356 1_655 S
C175 C169 1.363 . S
C175 C170 1.379 1_554 S
C175 N173 1.356 . S
N176 C168 1.356 . S
N176 H182 0.984 . S
N176 H183 0.984 . S
N177 C170 1.356 . S
N177 H180 0.984 1_655 S
N177 H181 0.985 . S
H178 N173 0.984 . S
H179 N173 0.985 . S
H180 N177 0.984 1_455 S
H181 N177 0.985 . S
H182 N176 0.984 . S
H183 N176 0.984 . S
H184 N172 0.984 . S
H185 N172 0.985 . S
C186 C187 1.364 . S
C186 C192 1.379 . S
C186 N194 1.356 . S
C187 C186 1.364 . S
C187 C193 1.360 1_545 S
C188 C189 1.363 . S
C188 C193 1.379 . S
C188 N195 1.356 . S
C189 C188 1.363 . S
C189 C192 1.363 1_565 S
N190 C192 1.356 . S
N190 H202 0.984 . S
N190 H203 0.985 . S
N191 C193 1.356 . S
N191 H196 0.984 . S
N191 H197 0.985 . S
C192 C186 1.379 . S
C192 C189 1.363 1_545 S
C192 N190 1.356 . S
C193 C187 1.360 1_565 S
C193 C188 1.379 . S
C193 N191 1.356 . S
N194 C186 1.356 . S
N194 H200 0.984 . S
N194 H201 0.984 . S
N195 C188 1.356 . S
N195 H198 0.984 . S
N195 H199 0.985 . S
H196 N191 0.984 . S
H197 N191 0.985 . S
H198 N195 0.984 . S
H199 N195 0.985 . S
H200 N194 0.984 . S
H201 N194 0.984 . S
H202 N190 0.984 . S
H203 N190 0.985 . S
C204 C205 1.363 . S
C204 C210 1.379 1_556 S
C204 N212 1.356 . S
C205 C204 1.363 . S
C205 C211 1.363 . S
C206 C207 1.363 . S
C206 C211 1.379 1_554 S
C206 N213 1.356 . S
C207 C206 1.363 . S
C207 C210 1.363 . S
N208 C210 1.356 . S
N208 H220 0.984 . S
N208 H221 0.985 . S
N209 C211 1.356 . S
N209 H214 0.984 . S
N209 H215 0.985 . S
C210 C204 1.379 1_554 S
C210 C207 1.363 . S
C210 N208 1.356 . S
C211 C205 1.363 . S
C211 C206 1.379 1_556 S
C211 N209 1.356 . S
N212 C204 1.356 . S
N212 H218 0.984 . S
N212 H219 0.984 . S
N213 C206 1.356 . S
N213 H216 0.984 . S
N213 H217 0.985 . S
H214 N209 0.984 . S
H215 N209 0.985 . S
H216 N213 0.984 . S
H217 N213 0.985 . S
H218 N212 0.984 . S
H219 N212 0.984 . S
H220 N208 0.984 . S
H221 N208 0.985 . S
C222 C223 1.363 1_655 S
C222 C228 1.379 . S
C222 N230 1.356 . S
C223 C222 1.363 1_455 S
C223 C229 1.363 . S
C224 C225 1.363 . S
C224 C229 1.379 . S
C224 N231 1.356 . S
C225 C224 1.363 . S
C225 C228 1.363 1_455 S
N226 C228 1.356 . S
N226 H238 0.984 . S
N226 H239 0.985 . S
N227 C229 1.356 . S
N227 H232 0.984 . S
N227 H233 0.985 . S
C228 C222 1.379 . S
C228 C225 1.363 1_655 S
C228 N226 1.356 . S
C229 C223 1.363 . S
C229 C224 1.379 . S
C229 N227 1.356 . S
N230 C222 1.356 . S
N230 H236 0.984 . S
N230 H237 0.984 . S
N231 C224 1.356 . S
N231 H234 0.984 . S
N231 H235 0.985 . S
H232 N227 0.984 . S
H233 N227 0.985 . S
H234 N231 0.984 . S
H235 N231 0.985 . S
H236 N230 0.984 . S
H237 N230 0.984 . S
H238 N226 0.984 . S
H239 N226 0.985 . S
C240 C241 1.363 . S
C240 C246 1.379 . S
C240 N248 1.356 . S
C241 C240 1.363 . S
C241 C247 1.363 . S
C242 C243 1.363 . S
C242 C247 1.379 . S
C242 N249 1.356 . S
C243 C242 1.363 . S
C243 C246 1.363 . S
N244 C246 1.356 . S
N244 H256 0.984 . S
N244 H257 0.985 . S
N245 C247 1.356 . S
N245 H250 0.984 . S
N245 H251 0.985 . S
C246 C240 1.379 . S
C246 C243 1.363 . S
C246 N244 1.356 . S
C247 C241 1.363 . S
C247 C242 1.379 . S
C247 N245 1.356 . S
N248 C240 1.356 . S
N248 H254 0.984 . S
N248 H255 0.984 . S
N249 C242 1.356 . S
N249 H252 0.984 . S
N249 H253 0.985 . S
H250 N245 0.984 . S
H251 N245 0.985 . S
H252 N249 0.984 . S
H253 N249 0.985 . S
H254 N248 0.984 . S
H255 N248 0.984 . S
H256 N244 0.984 . S
H257 N244 0.985 . S
C258 C259 1.363 . S
C258 C264 1.379 . S
C258 N266 1.356 . S
C259 C258 1.363 . S
C259 C265 1.363 . S
C260 C261 1.363 . S
C260 C265 1.379 . S
C260 N267 1.356 . S
C261 C260 1.363 . S
C261 C264 1.363 . S
N262 C264 1.356 . S
N262 H274 0.984 . S
N262 H275 0.985 . S
N263 C265 1.356 . S
N263 H268 0.984 . S
N263 H269 0.985 . S
C264 C258 1.379 . S
C264 C261 1.363 . S
C264 N262 1.356 . S
C265 C259 1.363 . S
C265 C260 1.379 . S
C265 N263 1.356 . S
N266 C258 1.356 . S
N266 H272 0.984 . S
N266 H273 0.984 . S
N267 C260 1.356 . S
N267 H270 0.984 . S
N267 H271 0.985 . S
H268 N263 0.984 . S
H269 N263 0.985 . S
H270 N267 0.984 . S
H271 N267 0.985 . S
H272 N266 0.984 . S
H273 N266 0.984 . S
H274 N262 0.984 . S
H275 N262 0.985 . S
C276 C277 1.363 . S
C276 C282 1.379 . S
C276 N284 1.356 . S
C277 C276 1.363 . S
C277 C283 1.363 . S
C278 C279 1.363 . S
C278 C283 1.379 . S
C278 N285 1.356 . S
C279 C278 1.363 . S
C279 C282 1.363 . S
N280 C282 1.356 . S
N280 H292 0.984 . S
N280 H293 0.985 . S
N281 C283 1.356 . S
N281 H286 0.984 . S
N281 H287 0.985 . S
C282 C276 1.379 . S
C282 C279 1.363 . S
C282 N280 1.356 . S
C283 C277 1.363 . S
C283 C278 1.379 . S
C283 N281 1.356 . S
N284 C276 1.356 . S
N284 H290 0.984 . S
N284 H291 0.984 . S
N285 C278 1.356 . S
N285 H288 0.984 . S
N285 H289 0.985 . S
H286 N281 0.984 . S
H287 N281 0.985 . S
H288 N285 0.984 . S
H289 N285 0.985 . S
H290 N284 0.984 . S
H291 N284 0.984 . S
H292 N280 0.984 . S
H293 N280 0.985 . S
C294 C295 1.363 . S
C294 C300 1.379 . S
C294 N302 1.356 . S
C295 C294 1.363 . S
C295 C301 1.363 . S
C296 C297 1.363 . S
C296 C301 1.379 . S
C296 N303 1.356 . S
C297 C296 1.363 . S
C297 C300 1.363 . S
N298 C300 1.356 . S
N298 H310 0.984 . S
N298 H311 0.985 . S
N299 C301 1.356 . S
N299 H304 0.984 . S
N299 H305 0.985 1_455 S
C300 C294 1.379 . S
C300 C297 1.363 . S
C300 N298 1.356 . S
C301 C295 1.363 . S
C301 C296 1.379 . S
C301 N299 1.356 . S
N302 C294 1.356 . S
N302 H308 0.984 . S
N302 H309 0.984 . S
N303 C296 1.356 . S
N303 H306 0.984 . S
N303 H307 0.985 . S
H304 N299 0.984 . S
H305 N299 0.985 1_655 S
H306 N303 0.984 . S
H307 N303 0.985 . S
H308 N302 0.984 . S
H309 N302 0.984 . S
H310 N298 0.984 . S
H311 N298 0.985 . S
C312 C313 1.363 . S
C312 C318 1.379 . S
C312 N320 1.356 . S
C313 C312 1.363 . S
C313 C319 1.363 . S
C314 C315 1.363 . S
C314 C319 1.379 . S
C314 N321 1.356 . S
C315 C314 1.363 . S
C315 C318 1.363 . S
N316 C318 1.356 . S
N316 H328 0.984 . S
N316 H329 0.985 . S
N317 C319 1.356 . S
N317 H322 0.984 . S
N317 H323 0.985 . S
C318 C312 1.379 . S
C318 C315 1.363 . S
C318 N316 1.356 . S
C319 C313 1.363 . S
C319 C314 1.379 . S
C319 N317 1.356 . S
N320 C312 1.356 . S
N320 H326 0.984 . S
N320 H327 0.984 . S
N321 C314 1.356 . S
N321 H324 0.984 . S
N321 H325 0.985 . S
H322 N317 0.984 . S
H323 N317 0.985 . S
H324 N321 0.984 . S
H325 N321 0.985 . S
H326 N320 0.984 . S
H327 N320 0.984 . S
H328 N316 0.984 . S
H329 N316 0.985 . S
C330 C331 1.363 . S
C330 C336 1.379 . S
C330 N338 1.356 . S
C331 C330 1.363 . S
C331 C337 1.363 . S
C332 C333 1.363 . S
C332 C337 1.379 . S
C332 N339 1.356 . S
C333 C332 1.363 . S
C333 C336 1.363 . S
N334 C336 1.356 . S
N334 H346 0.984 . S
N334 H347 0.985 . S
N335 C337 1.356 . S
N335 H340 0.984 . S
N335 H341 0.985 . S
C336 C330 1.379 . S
C336 C333 1.363 . S
C336 N334 1.356 . S
C337 C331 1.363 . S
C337 C332 1.379 . S
C337 N335 1.356 . S
N338 C330 1.356 . S
N338 H344 0.984 . S
N338 H345 0.984 . S
N339 C332 1.356 . S
N339 H342 0.984 . S
N339 H343 0.985 . S
H340 N335 0.984 . S
H341 N335 0.985 . S
H342 N339 0.984 . S
H343 N339 0.985 . S
H344 N338 0.984 . S
H345 N338 0.984 . S
H346 N334 0.984 . S
H347 N334 0.985 . S
C348 C349 1.363 . S
C348 C354 1.379 . S
C348 N356 1.356 . S
C349 C348 1.363 . S
C349 C355 1.363 . S
C350 C351 1.363 . S
C350 C355 1.379 . S
C350 N357 1.356 . S
C351 C350 1.363 . S
C351 C354 1.363 . S
N352 C354 1.356 . S
N352 H364 0.984 . S
N352 H365 0.985 . S
N353 C355 1.356 . S
N353 H358 0.984 . S
N353 H359 0.985 . S
C354 C348 1.379 . S
C354 C351 1.363 . S
C354 N352 1.356 . S
C355 C349 1.363 . S
C355 C350 1.379 . S
C355 N353 1.356 . S
N356 C348 1.356 . S
N356 H362 0.984 . S
N356 H363 0.984 . S
N357 C350 1.356 . S
N357 H360 0.984 . S
N357 H361 0.985 . S
H358 N353 0.984 . S
H359 N353 0.985 . S
H360 N357 0.984 . S
H361 N357 0.985 . S
H362 N356 0.984 . S
H363 N356 0.984 . S
H364 N352 0.984 . S
H365 N352 0.985 . S
C366 C367 1.363 . S
C366 C372 1.379 1_655 S
C366 N374 1.356 . S
C367 C366 1.363 . S
C367 C373 1.363 1_655 S
C368 C369 1.363 . S
C368 C373 1.379 . S
C368 N375 1.356 . S
C369 C368 1.363 . S
C369 C372 1.363 . S
N370 C372 1.356 . S
N370 H382 0.984 . S
N370 H383 0.985 . S
N371 C373 1.356 1_655 S
N371 H376 0.984 . S
N371 H377 0.985 . S
C372 C366 1.379 1_455 S
C372 C369 1.363 . S
C372 N370 1.356 . S
C373 C367 1.363 1_455 S
C373 C368 1.379 . S
C373 N371 1.356 1_455 S
N374 C366 1.356 . S
N374 H380 0.984 . S
N374 H381 0.984 . S
N375 C368 1.356 . S
N375 H378 0.984 . S
N375 H379 0.985 . S
H376 N371 0.984 . S
H377 N371 0.985 . S
H378 N375 0.984 . S
H379 N375 0.985 . S
H380 N374 0.984 . S
H381 N374 0.984 . S
H382 N370 0.984 . S
H383 N370 0.985 . S
C384 C385 1.363 1_565 S
C384 C390 1.379 . S
C384 N392 1.356 1_565 S
C385 C384 1.363 1_545 S
C385 C391 1.363 . S
C386 C387 1.363 . S
C386 C391 1.379 1_565 S
C386 N393 1.356 . S
C387 C386 1.363 . S
C387 C390 1.363 . S
N388 C390 1.356 . S
N388 H400 0.984 . S
N388 H401 0.985 . S
N389 C391 1.356 . S
N389 H394 0.984 . S
N389 H395 0.985 . S
C390 C384 1.379 . S
C390 C387 1.363 . S
C390 N388 1.356 . S
C391 C385 1.363 . S
C391 C386 1.379 1_545 S
C391 N389 1.356 . S
N392 C384 1.356 1_545 S
N392 H398 0.984 . S
N392 H399 0.984 . S
N393 C386 1.356 . S
N393 H396 0.984 . S
N393 H397 0.985 . S
H394 N389 0.984 . S
H395 N389 0.985 . S
H396 N393 0.984 . S
H397 N393 0.985 . S
H398 N392 0.984 . S
H399 N392 0.984 . S
H400 N388 0.984 . S
H401 N388 0.985 . S
C402 C403 1.363 . S
C402 C408 1.379 . S
C402 N410 1.356 . S
C403 C402 1.363 . S
C403 C409 1.363 . S
C404 C405 1.363 . S
C404 C409 1.379 . S
C404 N411 1.356 . S
C405 C404 1.363 . S
C405 C408 1.363 . S
N406 C408 1.356 . S
N406 H418 0.984 . S
N406 H419 0.985 . S
N407 C409 1.356 . S
N407 H412 0.984 . S
N407 H413 0.985 . S
C408 C402 1.379 . S
C408 C405 1.363 . S
C408 N406 1.356 . S
C409 C403 1.363 . S
C409 C404 1.379 . S
C409 N407 1.356 . S
N410 C402 1.356 . S
N410 H416 0.984 . S
N410 H417 0.984 . S
N411 C404 1.356 . S
N411 H414 0.984 . S
N411 H415 0.985 . S
H412 N407 0.984 . S
H413 N407 0.985 . S
H414 N411 0.984 . S
H415 N411 0.985 . S
H416 N410 0.984 . S
H417 N410 0.984 . S
H418 N406 0.984 . S
H419 N406 0.985 . S
C420 C421 1.363 . S
C420 C426 1.379 1_455 S
C420 N428 1.356 . S
C421 C420 1.363 . S
C421 C427 1.363 1_455 S
C422 C423 1.363 . S
C422 C427 1.379 . S
C422 N429 1.356 . S
C423 C422 1.363 . S
C423 C426 1.363 . S
N424 C426 1.356 . S
N424 H436 0.984 . S
N424 H437 0.985 . S
N425 C427 1.356 1_455 S
N425 H430 0.984 . S
N425 H431 0.985 . S
C426 C420 1.379 1_655 S
C426 C423 1.363 . S
C426 N424 1.356 . S
C427 C421 1.363 1_655 S
C427 C422 1.379 . S
C427 N425 1.356 1_655 S
N428 C420 1.356 . S
N428 H434 0.984 . S
N428 H435 0.984 . S
N429 C422 1.356 . S
N429 H432 0.984 . S
N429 H433 0.985 . S
H430 N425 0.984 . S
H431 N425 0.985 . S
H432 N429 0.984 . S
H433 N429 0.985 . S
H434 N428 0.984 . S
H435 N428 0.984 . S
H436 N424 0.984 . S
H437 N424 0.985 . S
C438 C439 1.363 . S
C438 C444 1.379 . S
C438 N446 1.356 . S
C439 C438 1.363 . S
C439 C445 1.363 . S
C440 C441 1.363 . S
C440 C445 1.379 1_565 S
C440 N447 1.356 . S
C441 C440 1.363 . S
C441 C444 1.363 1_565 S
N442 C444 1.356 1_565 S
N442 H454 0.984 . S
N442 H455 0.985 . S
N443 C445 1.356 . S
N443 H448 0.984 . S
N443 H449 0.985 . S
C444 C438 1.379 . S
C444 C441 1.363 1_545 S
C444 N442 1.356 1_545 S
C445 C439 1.363 . S
C445 C440 1.379 1_545 S
C445 N443 1.356 . S
N446 C438 1.356 . S
N446 H452 0.984 . S
N446 H453 0.984 . S
N447 C440 1.356 . S
N447 H450 0.984 . S
N447 H451 0.985 . S
H448 N443 0.984 . S
H449 N443 0.985 . S
H450 N447 0.984 . S
H451 N447 0.985 . S
H452 N446 0.984 . S
H453 N446 0.984 . S
H454 N442 0.984 . S
H455 N442 0.985 . S
C133 C94 0.919 . S
C135 C5 0.925 . S
C151 C115 1.427 . S
C153 C28 1.406 . S
C169 C49 1.962 . S
C171 C72 2.038 . S
C187 C9 2.038 . S
C189 C95 1.962 . S
C205 C119 1.406 . S
C207 C29 1.427 . S
C223 C53 0.919 . S
C225 C73 0.925 . S
C241 C6 1.647 . S
C243 C48 1.441 . S
C259 C27 1.368 . S
C261 C4 1.311 . S
C277 C50 1.390 . S
C279 C26 1.328 . S
C295 C75 1.647 . S
C297 C96 1.441 . S
C313 C97 1.390 . S
C315 C118 1.328 . S
C331 C74 1.311 . S
C333 C117 1.368 . S
C349 C8 1.360 . S
C351 C51 1.479 . S
C367 C30 1.343 . S
C369 C7 1.386 . S
C385 C52 1.365 . S
C387 C31 1.438 . S
C403 C70 1.360 . S
C405 C93 1.479 . S
C421 C92 1.365 . S
C423 C116 1.438 . S
C439 C71 1.386 . S
C441 C114 1.343 . S
