# Generated by pormake.
# Topology tzs, (4)-cn, num edge types: 1
# Building blocks:
#     Node 0, Type 0, BuildingBlock: AZAVOO_clean_sbu_0, # of connection points: 4
#     Node 1, Type 0, BuildingBlock: AZAVOO_clean_sbu_0, # of connection points: 4
#     Node 2, Type 0, BuildingBlock: AZAVOO_clean_sbu_0, # of connection points: 4
#     Node 3, Type 0, BuildingBlock: AZAVOO_clean_sbu_0, # of connection points: 4
#     Node 4, Type 0, BuildingBlock: AZAVOO_clean_sbu_0, # of connection points: 4
#     Node 5, Type 0, BuildingBlock: AZAVOO_clean_sbu_0, # of connection points: 4
#     Node 6, Type 0, BuildingBlock: AZAVOO_clean_sbu_0, # of connection points: 4
#     Node 7, Type 0, BuildingBlock: AZAVOO_clean_sbu_0, # of connection points: 4
#     Node 8, Type 0, BuildingBlock: AZAVOO_clean_sbu_0, # of connection points: 4
#     Node 9, Type 0, BuildingBlock: AZAVOO_clean_sbu_0, # of connection points: 4
#     Node 10, Type 0, BuildingBlock: AZAVOO_clean_sbu_0, # of connection points: 4
#     Node 11, Type 0, BuildingBlock: AZAVOO_clean_sbu_0, # of connection points: 4
#     Node 12, Type 0, BuildingBlock: AZAVOO_clean_sbu_0, # of connection points: 4
#     Node 13, Type 0, BuildingBlock: AZAVOO_clean_sbu_0, # of connection points: 4
#     Node 14, Type 0, BuildingBlock: AZAVOO_clean_sbu_0, # of connection points: 4
#     Node 15, Type 0, BuildingBlock: AZAVOO_clean_sbu_0, # of connection points: 4
#     Edge 16, Type (0, 0), BuildingBlock: MIFKUJ_clean_linker_0, # of connection points: 2
#     Edge 17, Type (0, 0), BuildingBlock: MIFKUJ_clean_linker_0, # of connection points: 2
#     Edge 18, Type (0, 0), BuildingBlock: MIFKUJ_clean_linker_0, # of connection points: 2
#     Edge 19, Type (0, 0), BuildingBlock: MIFKUJ_clean_linker_0, # of connection points: 2
#     Edge 20, Type (0, 0), BuildingBlock: MIFKUJ_clean_linker_0, # of connection points: 2
#     Edge 21, Type (0, 0), BuildingBlock: MIFKUJ_clean_linker_0, # of connection points: 2
#     Edge 22, Type (0, 0), BuildingBlock: MIFKUJ_clean_linker_0, # of connection points: 2
#     Edge 23, Type (0, 0), BuildingBlock: MIFKUJ_clean_linker_0, # of connection points: 2
#     Edge 24, Type (0, 0), BuildingBlock: MIFKUJ_clean_linker_0, # of connection points: 2
#     Edge 25, Type (0, 0), BuildingBlock: MIFKUJ_clean_linker_0, # of connection points: 2
#     Edge 26, Type (0, 0), BuildingBlock: MIFKUJ_clean_linker_0, # of connection points: 2
#     Edge 27, Type (0, 0), BuildingBlock: MIFKUJ_clean_linker_0, # of connection points: 2
#     Edge 28, Type (0, 0), BuildingBlock: MIFKUJ_clean_linker_0, # of connection points: 2
#     Edge 29, Type (0, 0), BuildingBlock: MIFKUJ_clean_linker_0, # of connection points: 2
#     Edge 30, Type (0, 0), BuildingBlock: MIFKUJ_clean_linker_0, # of connection points: 2
#     Edge 31, Type (0, 0), BuildingBlock: MIFKUJ_clean_linker_0, # of connection points: 2
#     Edge 32, Type (0, 0), BuildingBlock: MIFKUJ_clean_linker_0, # of connection points: 2
#     Edge 33, Type (0, 0), BuildingBlock: MIFKUJ_clean_linker_0, # of connection points: 2
#     Edge 34, Type (0, 0), BuildingBlock: MIFKUJ_clean_linker_0, # of connection points: 2
#     Edge 35, Type (0, 0), BuildingBlock: MIFKUJ_clean_linker_0, # of connection points: 2
#     Edge 36, Type (0, 0), BuildingBlock: MIFKUJ_clean_linker_0, # of connection points: 2
#     Edge 37, Type (0, 0), BuildingBlock: MIFKUJ_clean_linker_0, # of connection points: 2
#     Edge 38, Type (0, 0), BuildingBlock: MIFKUJ_clean_linker_0, # of connection points: 2
#     Edge 39, Type (0, 0), BuildingBlock: MIFKUJ_clean_linker_0, # of connection points: 2
#     Edge 40, Type (0, 0), BuildingBlock: MIFKUJ_clean_linker_0, # of connection points: 2
#     Edge 41, Type (0, 0), BuildingBlock: MIFKUJ_clean_linker_0, # of connection points: 2
#     Edge 42, Type (0, 0), BuildingBlock: MIFKUJ_clean_linker_0, # of connection points: 2
#     Edge 43, Type (0, 0), BuildingBlock: MIFKUJ_clean_linker_0, # of connection points: 2
#     Edge 44, Type (0, 0), BuildingBlock: MIFKUJ_clean_linker_0, # of connection points: 2
#     Edge 45, Type (0, 0), BuildingBlock: MIFKUJ_clean_linker_0, # of connection points: 2
#     Edge 46, Type (0, 0), BuildingBlock: MIFKUJ_clean_linker_0, # of connection points: 2
#     Edge 47, Type (0, 0), BuildingBlock: MIFKUJ_clean_linker_0, # of connection points: 2
# Relax obj value: 0.106
# Max RMSD: 0.117
# Mean RMSD: 0.117
data_MOF--net-tzs--node1-AZAVOO_clean_sbu_0--edge1-MIFKUJ_clean_linker_0
_symmetry_space_group_name_H-M    P1
_symmetry_Int_Tables_number       1
_symmetry_cell_setting            triclinic
loop_
_symmetry_equiv_pos_as_xyz
'x, y, z'
_cell_length_a     61.645361
_cell_length_b     61.68375
_cell_length_c     53.019283
_cell_angle_alpha  90.021171
_cell_angle_beta   89.97326
_cell_angle_gamma 90.018106
loop_
_atom_site_label
_atom_site_type_symbol
_atom_site_fract_x
_atom_site_fract_y
_atom_site_fract_z
_atom_type_partial_charge
Mg0 Mg 0.15035 0.35832 0.17968 0.0
O1 O 0.11513 0.35137 0.19134 0.0
O2 O 0.10231 0.32535 0.16601 0.0
Mg3 Mg 0.12969 0.31467 0.13976 0.0
C4 C 0.09987 0.33887 0.18401 0.0
C5 C 0.17354 0.38843 0.21666 0.0
O6 O 0.1898 0.38104 0.20313 0.0
O7 O 0.16161 0.32788 0.19972 0.0
O8 O 0.14943 0.30196 0.17376 0.0
O9 O 0.13954 0.38186 0.15083 0.0
O10 O 0.14452 0.34694 0.14338 0.0
C11 C 0.1597 0.30796 0.19353 0.0
C12 C 0.13871 0.36576 0.13522 0.0
O13 O 0.15489 0.38006 0.21365 0.0
Mg14 Mg 0.63873 0.14832 0.16644 0.0
O15 O 0.64541 0.11354 0.17955 0.0
O16 O 0.67398 0.10141 0.15768 0.0
Mg17 Mg 0.68415 0.12749 0.12939 0.0
C18 C 0.6593 0.09882 0.17442 0.0
C19 C 0.60765 0.17264 0.20121 0.0
O20 O 0.6152 0.18829 0.18688 0.0
O21 O 0.66852 0.16039 0.18759 0.0
O22 O 0.69529 0.14908 0.16234 0.0
O23 O 0.61623 0.13616 0.13713 0.0
O24 O 0.65136 0.14132 0.13112 0.0
C25 C 0.68861 0.15936 0.18179 0.0
C26 C 0.63296 0.13474 0.12246 0.0
O27 O 0.61602 0.15389 0.19934 0.0
Mg28 Mg 0.84452 0.6358 0.18066 0.0
O29 O 0.87969 0.64328 0.19207 0.0
O30 O 0.8921 0.66873 0.16567 0.0
Mg31 Mg 0.86462 0.67847 0.1391 0.0
C32 C 0.89479 0.65571 0.18411 0.0
C33 C 0.82083 0.6073 0.21814 0.0
O34 O 0.80496 0.61515 0.20435 0.0
O35 O 0.83292 0.66659 0.19942 0.0
O36 O 0.84442 0.69199 0.1724 0.0
O37 O 0.85553 0.6114 0.15293 0.0
O38 O 0.85039 0.64605 0.14399 0.0
C39 C 0.83428 0.68634 0.19241 0.0
C40 C 0.85635 0.62701 0.13667 0.0
O41 O 0.83972 0.61516 0.21537 0.0
Mg42 Mg 0.36155 0.84743 0.16515 0.0
O43 O 0.35571 0.88232 0.17851 0.0
O44 O 0.33024 0.89672 0.15354 0.0
Mg45 Mg 0.3194 0.87088 0.12519 0.0
C46 C 0.34362 0.89813 0.17185 0.0
C47 C 0.39602 0.82551 0.19476 0.0
O48 O 0.39492 0.81544 0.17294 0.0
O49 O 0.33026 0.83693 0.18405 0.0
O50 O 0.30532 0.84975 0.15729 0.0
O51 O 0.38616 0.85851 0.13745 0.0
O52 O 0.3512 0.85525 0.12901 0.0
C53 C 0.31057 0.83903 0.17702 0.0
C54 C 0.37034 0.86078 0.12163 0.0
O55 O 0.38224 0.84028 0.19944 0.0
Mg56 Mg 0.15317 0.64412 0.31312 0.0
O57 O 0.11797 0.64966 0.30056 0.0
O58 O 0.10424 0.67602 0.32476 0.0
Mg59 Mg 0.13068 0.68777 0.35171 0.0
C60 C 0.10233 0.662 0.30717 0.0
C61 C 0.17739 0.61225 0.28008 0.0
O62 O 0.19227 0.61885 0.29607 0.0
O63 O 0.16371 0.67462 0.29249 0.0
O64 O 0.15126 0.70037 0.31842 0.0
O65 O 0.14248 0.62057 0.34207 0.0
O66 O 0.14601 0.65573 0.34902 0.0
C67 C 0.16174 0.69452 0.29873 0.0
C68 C 0.14043 0.63686 0.35724 0.0
O69 O 0.15919 0.62191 0.27985 0.0
Mg70 Mg 0.358 0.14902 0.31795 0.0
O71 O 0.3524 0.11408 0.30462 0.0
O72 O 0.32646 0.09947 0.3287 0.0
Mg73 Mg 0.3148 0.12547 0.35631 0.0
C74 C 0.34032 0.09815 0.31086 0.0
C75 C 0.38808 0.17399 0.28228 0.0
O76 O 0.38147 0.1895 0.29744 0.0
O77 O 0.32729 0.15995 0.29826 0.0
O78 O 0.30155 0.14626 0.32344 0.0
O79 O 0.38177 0.13802 0.34644 0.0
O80 O 0.34663 0.14154 0.35381 0.0
C81 C 0.30738 0.15739 0.30424 0.0
C82 C 0.3656 0.1361 0.36186 0.0
O83 O 0.37949 0.15534 0.28416 0.0
Mg84 Mg 0.84389 0.35692 0.31624 0.0
O85 O 0.87875 0.34941 0.3041 0.0
O86 O 0.89182 0.32435 0.33052 0.0
Mg87 Mg 0.86507 0.31551 0.35874 0.0
C88 C 0.89404 0.33705 0.31167 0.0
C89 C 0.8192 0.38431 0.27856 0.0
O90 O 0.80382 0.37721 0.29361 0.0
O91 O 0.83251 0.32548 0.2987 0.0
O92 O 0.84385 0.30102 0.32692 0.0
O93 O 0.85559 0.38211 0.34265 0.0
O94 O 0.85075 0.34772 0.35299 0.0
C95 C 0.83367 0.306 0.30671 0.0
C96 C 0.8571 0.36688 0.35932 0.0
O97 O 0.83815 0.37649 0.28089 0.0
Mg98 Mg 0.6438 0.85191 0.33135 0.0
O99 O 0.64993 0.88507 0.31292 0.0
O100 O 0.68027 0.89835 0.33018 0.0
Mg101 Mg 0.69269 0.87459 0.35981 0.0
C102 C 0.66439 0.89983 0.31483 0.0
C103 C 0.6041 0.83075 0.31229 0.0
O104 O 0.60767 0.82339 0.33518 0.0
O105 O 0.67116 0.8367 0.30872 0.0
O106 O 0.70047 0.85042 0.3279 0.0
O107 O 0.62438 0.86773 0.36104 0.0
O108 O 0.65967 0.86158 0.36399 0.0
C109 C 0.69171 0.83832 0.31119 0.0
C110 C 0.64224 0.86966 0.37365 0.0
O111 O 0.61799 0.84348 0.30255 0.0
Mg112 Mg 0.85785 0.64987 0.83209 0.0
O113 O 0.85296 0.61652 0.81336 0.0
O114 O 0.82273 0.60252 0.83023 0.0
Mg115 Mg 0.80961 0.62541 0.86031 0.0
C116 C 0.83876 0.60147 0.81502 0.0
C117 C 0.89665 0.67289 0.81197 0.0
O118 O 0.89355 0.68042 0.83488 0.0
O119 O 0.82991 0.66422 0.80975 0.0
O120 O 0.801 0.64988 0.82912 0.0
O121 O 0.8781 0.63495 0.86166 0.0
O122 O 0.84249 0.63882 0.86444 0.0
C123 C 0.80943 0.66227 0.81246 0.0
C124 C 0.86031 0.63159 0.87402 0.0
O125 O 0.88295 0.65955 0.80302 0.0
Mg126 Mg 0.3442 0.85722 0.81821 0.0
O127 O 0.37851 0.84826 0.80536 0.0
O128 O 0.38973 0.82036 0.82883 0.0
Mg129 Mg 0.36287 0.81213 0.85718 0.0
C130 C 0.39284 0.83421 0.81129 0.0
C131 C 0.32145 0.88773 0.78104 0.0
O132 O 0.30505 0.88109 0.79488 0.0
O133 O 0.33063 0.82751 0.79833 0.0
O134 O 0.3404 0.80105 0.82486 0.0
O135 O 0.35785 0.87998 0.8463 0.0
O136 O 0.35073 0.84549 0.85415 0.0
C137 C 0.33048 0.80765 0.80512 0.0
C138 C 0.35862 0.86373 0.8617 0.0
O139 O 0.33991 0.87902 0.78426 0.0
Mg140 Mg 0.14428 0.34892 0.82707 0.0
O141 O 0.15009 0.38308 0.81099 0.0
O142 O 0.1796 0.39624 0.83025 0.0
Mg143 Mg 0.19107 0.37192 0.85983 0.0
C144 C 0.16423 0.39798 0.81426 0.0
C145 C 0.10659 0.32704 0.8022 0.0
O146 O 0.10837 0.31795 0.82453 0.0
O147 O 0.17331 0.33562 0.80565 0.0
O148 O 0.20123 0.34868 0.82793 0.0
O149 O 0.12263 0.36223 0.85646 0.0
O150 O 0.15808 0.35823 0.86108 0.0
C151 C 0.19363 0.33717 0.80993 0.0
C152 C 0.13981 0.3648 0.87016 0.0
O153 O 0.12069 0.34097 0.79564 0.0
Mg154 Mg 0.65534 0.14319 0.81605 0.0
O155 O 0.62064 0.15099 0.80349 0.0
O156 O 0.60798 0.17736 0.82846 0.0
Mg157 Mg 0.63523 0.18746 0.85531 0.0
C158 C 0.60552 0.16382 0.81047 0.0
C159 C 0.67866 0.11271 0.78012 0.0
O160 O 0.69452 0.11971 0.79454 0.0
O161 O 0.66782 0.1732 0.79626 0.0
O162 O 0.65633 0.19952 0.82201 0.0
O163 O 0.64277 0.11997 0.84424 0.0
O164 O 0.64887 0.15468 0.85208 0.0
C165 C 0.6667 0.19317 0.80245 0.0
C166 C 0.64175 0.13615 0.85973 0.0
O167 O 0.66014 0.12154 0.78216 0.0
Mg168 Mg 0.86114 0.35336 0.66172 0.0
O169 O 0.85524 0.38677 0.67954 0.0
O170 O 0.82603 0.4007 0.66044 0.0
Mg171 Mg 0.81439 0.37727 0.62992 0.0
C172 C 0.84128 0.40188 0.67669 0.0
C173 C 0.89863 0.33033 0.68387 0.0
O174 O 0.89563 0.32242 0.66112 0.0
O175 O 0.83219 0.33929 0.68272 0.0
O176 O 0.80441 0.35291 0.66073 0.0
O177 O 0.88254 0.36834 0.63311 0.0
O178 O 0.84722 0.36363 0.62824 0.0
C179 C 0.81187 0.34088 0.67834 0.0
C180 C 0.86529 0.37109 0.61959 0.0
O181 O 0.88512 0.34414 0.69222 0.0
Mg182 Mg 0.64923 0.85995 0.6802 0.0
O183 O 0.61479 0.85088 0.69277 0.0
O184 O 0.60379 0.82312 0.66894 0.0
Mg185 Mg 0.63096 0.81484 0.64113 0.0
C186 C 0.60052 0.83685 0.68656 0.0
C187 C 0.67246 0.8893 0.71735 0.0
O188 O 0.68849 0.88118 0.70401 0.0
O189 O 0.66308 0.83045 0.69982 0.0
O190 O 0.65267 0.80359 0.67413 0.0
O191 O 0.63606 0.88264 0.65189 0.0
O192 O 0.64349 0.84817 0.64418 0.0
C193 C 0.6628 0.81046 0.69361 0.0
C194 C 0.63614 0.86652 0.63626 0.0
O195 O 0.65351 0.88174 0.71409 0.0
Mg196 Mg 0.13841 0.64665 0.66426 0.0
O197 O 0.1455 0.61282 0.68004 0.0
O198 O 0.17449 0.60039 0.65912 0.0
Mg199 Mg 0.18357 0.62452 0.62793 0.0
C200 C 0.1599 0.59832 0.67608 0.0
C201 C 0.10333 0.67004 0.69175 0.0
O202 O 0.10522 0.67968 0.66976 0.0
O203 O 0.16846 0.66013 0.68367 0.0
O204 O 0.19492 0.64929 0.65761 0.0
O205 O 0.11528 0.633 0.63636 0.0
O206 O 0.15038 0.63728 0.62945 0.0
C207 C 0.18828 0.66011 0.67667 0.0
C208 C 0.13179 0.63054 0.62155 0.0
O209 O 0.11649 0.65489 0.69716 0.0
Mg210 Mg 0.35141 0.14075 0.67099 0.0
O211 O 0.38588 0.14736 0.68577 0.0
O212 O 0.39906 0.1755 0.664 0.0
Mg213 Mg 0.37304 0.18741 0.63676 0.0
C214 C 0.4011 0.16075 0.68071 0.0
C215 C 0.32645 0.10822 0.7032 0.0
O216 O 0.31124 0.11585 0.6883 0.0
O217 O 0.3384 0.16957 0.69278 0.0
O218 O 0.35118 0.19744 0.67019 0.0
O219 O 0.36421 0.11921 0.64118 0.0
O220 O 0.35931 0.1545 0.63637 0.0
C221 C 0.34007 0.18988 0.68857 0.0
C222 C 0.36599 0.13632 0.6272 0.0
O223 O 0.3451 0.11698 0.70267 0.0
H224 H 0.31297 0.1935 0.27526 0.0
H225 H 0.28468 0.21644 0.25701 0.0
H226 H 0.23568 0.17185 0.28287 0.0
H227 H 0.26383 0.14897 0.30187 0.0
H228 H 0.23803 0.19477 0.22434 0.0
H229 H 0.23018 0.20377 0.31669 0.0
H230 H 0.24616 0.20982 0.35877 0.0
H231 H 0.27585 0.26863 0.33252 0.0
H232 H 0.26029 0.2627 0.29016 0.0
H233 H 0.15041 0.26477 0.19754 0.0
H234 H 0.17241 0.2368 0.21786 0.0
H235 H 0.21839 0.2856 0.24136 0.0
H236 H 0.19587 0.31366 0.22229 0.0
H237 H 0.21582 0.25793 0.27634 0.0
H238 H 0.2251 0.25216 0.18667 0.0
H239 H 0.21358 0.24782 0.14241 0.0
H240 H 0.1863 0.18553 0.15983 0.0
H241 H 0.19743 0.18963 0.20428 0.0
C242 C 0.29622 0.18834 0.27673 0.0
C243 C 0.29061 0.16947 0.29012 0.0
C244 C 0.28011 0.2015 0.26635 0.0
C245 C 0.25821 0.19582 0.26881 0.0
C246 C 0.25256 0.17644 0.28092 0.0
C247 C 0.26863 0.16345 0.29175 0.0
C248 C 0.2413 0.21093 0.26005 0.0
C249 C 0.23276 0.20837 0.23579 0.0
C250 C 0.23517 0.22898 0.27477 0.0
C251 C 0.2443 0.23266 0.30025 0.0
C252 C 0.2403 0.21786 0.31985 0.0
C253 C 0.24923 0.2213 0.34375 0.0
C254 C 0.26207 0.23956 0.3483 0.0
C255 C 0.26594 0.25447 0.32896 0.0
C256 C 0.25706 0.25109 0.30502 0.0
C257 C 0.16506 0.26953 0.20737 0.0
C258 C 0.17149 0.29138 0.20821 0.0
C259 C 0.17771 0.25352 0.21881 0.0
C260 C 0.19739 0.25898 0.23059 0.0
C261 C 0.20333 0.28092 0.23233 0.0
C262 C 0.19044 0.29698 0.22142 0.0
C263 C 0.2122 0.24192 0.24038 0.0
C264 C 0.22061 0.24418 0.26486 0.0
C265 C 0.21856 0.22383 0.22555 0.0
C266 C 0.21188 0.22132 0.19884 0.0
C267 C 0.21651 0.23761 0.18109 0.0
C268 C 0.21007 0.23518 0.15597 0.0
C269 C 0.19915 0.21644 0.14833 0.0
C270 C 0.19471 0.20006 0.16578 0.0
C271 C 0.20109 0.20242 0.19094 0.0
H272 H 0.19418 0.21459 0.12887 0.0
H273 H 0.26897 0.24219 0.36682 0.0
H274 H 0.82168 0.26612 0.32429 0.0
H275 H 0.79864 0.23945 0.30337 0.0
H276 H 0.79556 0.28025 0.23735 0.0
H277 H 0.81795 0.30738 0.25853 0.0
H278 H 0.75717 0.26707 0.24798 0.0
H279 H 0.82597 0.2319 0.23963 0.0
H280 H 0.86088 0.21683 0.25405 0.0
H281 H 0.8272 0.17178 0.30179 0.0
H282 H 0.79208 0.18677 0.2879 0.0
H283 H 0.73235 0.16231 0.17398 0.0
H284 H 0.75821 0.18532 0.1961 0.0
H285 H 0.70759 0.20674 0.24647 0.0
H286 H 0.68137 0.18406 0.22408 0.0
H287 H 0.77354 0.18846 0.2425 0.0
H288 H 0.71481 0.26031 0.25873 0.0
H289 H 0.68186 0.27605 0.23967 0.0
H290 H 0.69928 0.24902 0.16781 0.0
H291 H 0.73244 0.23338 0.18636 0.0
C292 C 0.81632 0.26931 0.3052 0.0
C293 C 0.82162 0.28889 0.29308 0.0
C294 C 0.80319 0.254 0.29322 0.0
C295 C 0.79548 0.25774 0.26869 0.0
C296 C 0.80123 0.27703 0.25632 0.0
C297 C 0.8141 0.2925 0.26841 0.0
C298 C 0.78054 0.2421 0.25639 0.0
C299 C 0.76081 0.24989 0.24679 0.0
C300 C 0.78531 0.21969 0.25456 0.0
C301 C 0.8064 0.2106 0.26289 0.0
C302 C 0.82601 0.21889 0.25334 0.0
C303 C 0.84584 0.21034 0.2614 0.0
C304 C 0.84626 0.19339 0.27887 0.0
C305 C 0.82685 0.18492 0.28828 0.0
C306 C 0.80698 0.19342 0.2803 0.0
C307 C 0.72667 0.17175 0.18989 0.0
C308 C 0.70468 0.17151 0.19705 0.0
C309 C 0.74155 0.18485 0.20258 0.0
C310 C 0.73478 0.19798 0.22268 0.0
C311 C 0.71308 0.197 0.23071 0.0
C312 C 0.69813 0.18396 0.21794 0.0
C313 C 0.75022 0.21347 0.2343 0.0
C314 C 0.76996 0.20565 0.24381 0.0
C315 C 0.74576 0.23595 0.23542 0.0
C316 C 0.72596 0.24548 0.22402 0.0
C317 C 0.71162 0.25779 0.23885 0.0
C318 C 0.69291 0.26668 0.22814 0.0
C319 C 0.68844 0.26347 0.20257 0.0
C320 C 0.70271 0.25143 0.18764 0.0
C321 C 0.72145 0.24252 0.19825 0.0
H322 H 0.67394 0.27036 0.19432 0.0
H323 H 0.86162 0.1868 0.28509 0.0
H324 H 0.84056 0.73028 0.19254 0.0
H325 H 0.81734 0.75783 0.21218 0.0
H326 H 0.77622 0.70757 0.24229 0.0
H327 H 0.79952 0.67993 0.22332 0.0
H328 H 0.75559 0.74351 0.21143 0.0
H329 H 0.80395 0.72933 0.2822 0.0
H330 H 0.84003 0.72672 0.30202 0.0
H331 H 0.85252 0.79348 0.28422 0.0
H332 H 0.8166 0.79638 0.26396 0.0
H333 H 0.6833 0.79806 0.29253 0.0
H334 H 0.70852 0.77395 0.27081 0.0
H335 H 0.75732 0.82422 0.27167 0.0
H336 H 0.7325 0.84786 0.29488 0.0
H337 H 0.77564 0.78984 0.28427 0.0
H338 H 0.72884 0.80659 0.2158 0.0
H339 H 0.69436 0.81123 0.19289 0.0
H340 H 0.68063 0.74336 0.20128 0.0
H341 H 0.7149 0.73836 0.22454 0.0
C342 C 0.82674 0.7251 0.20364 0.0
C343 C 0.82187 0.70295 0.2064 0.0
C344 C 0.81353 0.74083 0.21479 0.0
C345 C 0.79509 0.73463 0.22849 0.0
C346 C 0.79039 0.71258 0.23169 0.0
C347 C 0.8038 0.69685 0.22098 0.0
C348 C 0.78019 0.75113 0.23878 0.0
C349 C 0.75978 0.75356 0.22751 0.0
C350 C 0.78618 0.76472 0.25901 0.0
C351 C 0.8077 0.76299 0.27131 0.0
C352 C 0.81447 0.74338 0.28229 0.0
C353 C 0.83488 0.74187 0.29366 0.0
C354 C 0.84859 0.7599 0.29431 0.0
C355 C 0.8419 0.77951 0.28366 0.0
C356 C 0.82152 0.7811 0.27225 0.0
C357 C 0.69931 0.80404 0.28775 0.0
C358 C 0.70598 0.8248 0.29534 0.0
C359 C 0.71372 0.79029 0.2752 0.0
C360 C 0.73481 0.7973 0.26921 0.0
C361 C 0.7412 0.81835 0.27612 0.0
C362 C 0.72699 0.83189 0.28928 0.0
C363 C 0.75059 0.78226 0.25717 0.0
C364 C 0.77128 0.78004 0.26804 0.0
C365 C 0.74502 0.76923 0.23611 0.0
C366 C 0.72438 0.77215 0.22211 0.0
C367 C 0.7184 0.79268 0.21292 0.0
C368 C 0.6989 0.79537 0.19984 0.0
C369 C 0.68529 0.77761 0.19568 0.0
C370 C 0.69118 0.75711 0.20454 0.0
C371 C 0.71066 0.75433 0.21764 0.0
H372 H 0.6702 0.77972 0.18555 0.0
H373 H 0.86438 0.7587 0.30311 0.0
H374 H 0.2694 0.82974 0.16129 0.0
H375 H 0.24236 0.80755 0.18272 0.0
H376 H 0.28548 0.80022 0.24627 0.0
H377 H 0.31297 0.82177 0.22449 0.0
H378 H 0.27 0.76303 0.23492 0.0
H379 H 0.23838 0.83264 0.24821 0.0
H380 H 0.22453 0.86879 0.23662 0.0
H381 H 0.1763 0.83948 0.18917 0.0
H382 H 0.19005 0.80314 0.20022 0.0
H383 H 0.1652 0.73782 0.30925 0.0
H384 H 0.18857 0.76432 0.28863 0.0
H385 H 0.20819 0.71607 0.2343 0.0
H386 H 0.18523 0.68923 0.25518 0.0
H387 H 0.19223 0.7823 0.24374 0.0
H388 H 0.26167 0.72174 0.22202 0.0
H389 H 0.27636 0.68738 0.23863 0.0
H390 H 0.25066 0.7022 0.31193 0.0
H391 H 0.23609 0.73676 0.29584 0.0
C392 C 0.27305 0.82364 0.17997 0.0
C393 C 0.29338 0.82749 0.19116 0.0
C394 C 0.25751 0.81101 0.19226 0.0
C395 C 0.26177 0.80234 0.21623 0.0
C396 C 0.28183 0.80667 0.22775 0.0
C397 C 0.29751 0.81904 0.21531 0.0
C398 C 0.24585 0.78772 0.22863 0.0
C399 C 0.25301 0.76732 0.23687 0.0
C400 C 0.22371 0.79335 0.23154 0.0
C401 C 0.21537 0.81517 0.22488 0.0
C402 C 0.22492 0.83391 0.23516 0.0
C403 C 0.21707 0.85443 0.22871 0.0
C404 C 0.19958 0.85643 0.21213 0.0
C405 C 0.18986 0.8379 0.202 0.0
C406 C 0.19766 0.81734 0.20837 0.0
C407 C 0.17428 0.73284 0.29275 0.0
C408 C 0.17354 0.71127 0.28409 0.0
C409 C 0.1876 0.74807 0.28093 0.0
C410 C 0.20042 0.74208 0.26022 0.0
C411 C 0.19876 0.72093 0.25059 0.0
C412 C 0.18554 0.70562 0.2625 0.0
C413 C 0.21639 0.75761 0.24964 0.0
C414 C 0.20923 0.7781 0.24172 0.0
C415 C 0.23867 0.75235 0.24771 0.0
C416 C 0.24759 0.73171 0.25763 0.0
C417 C 0.25922 0.71769 0.24169 0.0
C418 C 0.26752 0.69818 0.25102 0.0
C419 C 0.26438 0.69258 0.2763 0.0
C420 C 0.25301 0.70651 0.29233 0.0
C421 C 0.24471 0.72605 0.28311 0.0
H422 H 0.2708 0.67746 0.28347 0.0
H423 H 0.19352 0.87233 0.20716 0.0
H424 H 0.65762 0.76656 0.69703 0.0
H425 H 0.68196 0.7406 0.71763 0.0
H426 H 0.72287 0.79317 0.74231 0.0
H427 H 0.6984 0.81929 0.72235 0.0
H428 H 0.74328 0.75588 0.71326 0.0
H429 H 0.69753 0.77316 0.78506 0.0
H430 H 0.66231 0.77686 0.80671 0.0
H431 H 0.6491 0.70936 0.79416 0.0
H432 H 0.68413 0.70534 0.77209 0.0
H433 H 0.81779 0.70221 0.79285 0.0
H434 H 0.79225 0.72648 0.77195 0.0
H435 H 0.74272 0.67705 0.77592 0.0
H436 H 0.76794 0.65321 0.79818 0.0
H437 H 0.72563 0.71226 0.78913 0.0
H438 H 0.76964 0.69297 0.71874 0.0
H439 H 0.80331 0.68736 0.69448 0.0
H440 H 0.81809 0.75522 0.70013 0.0
H441 H 0.78464 0.76119 0.72472 0.0
C442 C 0.67164 0.7726 0.70713 0.0
C443 C 0.67611 0.79495 0.7081 0.0
C444 C 0.68549 0.75778 0.71884 0.0
C445 C 0.70416 0.76507 0.73132 0.0
C446 C 0.7085 0.78733 0.73269 0.0
C447 C 0.69445 0.8022 0.72143 0.0
C448 C 0.71963 0.74936 0.74211 0.0
C449 C 0.73964 0.74647 0.73002 0.0
C450 C 0.71434 0.73662 0.76332 0.0
C451 C 0.69333 0.73901 0.77667 0.0
C452 C 0.68702 0.75916 0.78669 0.0
C453 C 0.66711 0.7613 0.79909 0.0
C454 C 0.65345 0.74337 0.80174 0.0
C455 C 0.65969 0.72324 0.79206 0.0
C456 C 0.67957 0.72102 0.77962 0.0
C457 C 0.80155 0.69643 0.78893 0.0
C458 C 0.79483 0.67584 0.7971 0.0
C459 C 0.78695 0.71029 0.77687 0.0
C460 C 0.76556 0.70355 0.77201 0.0
C461 C 0.75908 0.68269 0.77951 0.0
C462 C 0.77351 0.66904 0.79212 0.0
C463 C 0.74965 0.71865 0.76041 0.0
C464 C 0.72944 0.72149 0.77228 0.0
C465 C 0.75459 0.731 0.7386 0.0
C466 C 0.77472 0.72749 0.72378 0.0
C467 C 0.78015 0.70667 0.71497 0.0
C468 C 0.79918 0.70343 0.70113 0.0
C469 C 0.81286 0.72091 0.69582 0.0
C470 C 0.80749 0.74168 0.70428 0.0
C471 C 0.78849 0.74501 0.71815 0.0
H472 H 0.82759 0.71837 0.6851 0.0
H473 H 0.63805 0.74506 0.81136 0.0
H474 H 0.2234 0.68048 0.65685 0.0
H475 H 0.24828 0.7052 0.67803 0.0
H476 H 0.21403 0.69528 0.74818 0.0
H477 H 0.18818 0.67157 0.7265 0.0
H478 H 0.22251 0.7349 0.74514 0.0
H479 H 0.26647 0.67198 0.73327 0.0
H480 H 0.28366 0.64193 0.71 0.0
H481 H 0.31745 0.68754 0.6631 0.0
H482 H 0.30025 0.71789 0.68589 0.0
H483 H 0.3145 0.76891 0.82139 0.0
H484 H 0.29116 0.74372 0.79832 0.0
H485 H 0.29395 0.78503 0.73287 0.0
H486 H 0.31691 0.81077 0.75603 0.0
H487 H 0.30231 0.72994 0.7341 0.0
H488 H 0.2533 0.79274 0.74704 0.0
H489 H 0.23713 0.82059 0.77465 0.0
H490 H 0.21434 0.771 0.82496 0.0
H491 H 0.2307 0.74289 0.79779 0.0
C492 C 0.22129 0.68346 0.67684 0.0
C493 C 0.20396 0.67402 0.6901 0.0
C494 C 0.23561 0.69751 0.68899 0.0
C495 C 0.23341 0.70181 0.71489 0.0
C496 C 0.21614 0.69224 0.7282 0.0
C497 C 0.20142 0.67863 0.71586 0.0
C498 C 0.24862 0.71688 0.72783 0.0
C499 C 0.23995 0.73357 0.7428 0.0
C500 C 0.27146 0.71542 0.72483 0.0
C501 C 0.28191 0.6972 0.71115 0.0
C502 C 0.27745 0.6756 0.71789 0.0
C503 C 0.28722 0.65852 0.7048 0.0
C504 C 0.3016 0.66282 0.68504 0.0
C505 C 0.30629 0.68423 0.67839 0.0
C506 C 0.29656 0.70138 0.6914 0.0
C507 C 0.3103 0.77261 0.80203 0.0
C508 C 0.31751 0.79186 0.79053 0.0
C509 C 0.29695 0.75822 0.78894 0.0
C510 C 0.29086 0.76265 0.76404 0.0
C511 C 0.2985 0.78147 0.75217 0.0
C512 C 0.31154 0.79612 0.76541 0.0
C513 C 0.27603 0.74777 0.75079 0.0
C514 C 0.28483 0.73112 0.73607 0.0
C515 C 0.25339 0.74892 0.75441 0.0
C516 C 0.24345 0.76578 0.77059 0.0
C517 C 0.24505 0.78781 0.76414 0.0
C518 C 0.2358 0.80363 0.77966 0.0
C519 C 0.22478 0.79757 0.8016 0.0
C520 C 0.22292 0.77567 0.808 0.0
C521 C 0.23217 0.7598 0.79254 0.0
H522 H 0.21762 0.80984 0.81359 0.0
H523 H 0.30914 0.64957 0.67493 0.0
H524 H 0.18522 0.29942 0.78492 0.0
H525 H 0.21153 0.2754 0.76445 0.0
H526 H 0.26272 0.32099 0.78043 0.0
H527 H 0.23664 0.34491 0.8015 0.0
H528 H 0.26034 0.30058 0.72767 0.0
H529 H 0.26273 0.28437 0.81738 0.0
H530 H 0.24589 0.27509 0.85818 0.0
H531 H 0.21955 0.21687 0.82601 0.0
H532 H 0.23597 0.22599 0.7849 0.0
H533 H 0.34855 0.23256 0.6981 0.0
H534 H 0.32515 0.25857 0.7198 0.0
H535 H 0.27832 0.20788 0.73372 0.0
H536 H 0.30221 0.18166 0.71332 0.0
H537 H 0.27884 0.23219 0.77203 0.0
H538 H 0.2741 0.24646 0.68336 0.0
H539 H 0.28771 0.25474 0.64068 0.0
H540 H 0.3144 0.31478 0.66751 0.0
H541 H 0.30117 0.30672 0.71044 0.0
C542 C 0.20201 0.30448 0.78376 0.0
C543 C 0.20891 0.324 0.79489 0.0
C544 C 0.217 0.29072 0.77216 0.0
C545 C 0.23899 0.29645 0.77113 0.0
C546 C 0.24578 0.31636 0.78112 0.0
C547 C 0.23089 0.32994 0.79317 0.0
C548 C 0.25506 0.28112 0.76074 0.0
C549 C 0.26468 0.28574 0.73743 0.0
C550 C 0.2601 0.26156 0.77326 0.0
C551 C 0.25038 0.25598 0.79801 0.0
C552 C 0.25317 0.2697 0.81895 0.0
C553 C 0.24374 0.26445 0.84214 0.0
C554 C 0.2316 0.24543 0.84467 0.0
C555 C 0.22893 0.2316 0.82402 0.0
C556 C 0.23831 0.2368 0.80078 0.0
C557 C 0.33338 0.22695 0.70609 0.0
C558 C 0.32714 0.20512 0.70392 0.0
C559 C 0.31992 0.24185 0.71831 0.0
C560 C 0.29965 0.23535 0.72782 0.0
C561 C 0.29381 0.21336 0.72647 0.0
C562 C 0.3075 0.19836 0.71481 0.0
C563 C 0.28428 0.25144 0.73864 0.0
C564 C 0.2747 0.24701 0.76212 0.0
C565 C 0.27891 0.27097 0.72595 0.0
C566 C 0.28685 0.27588 0.70015 0.0
C567 C 0.283 0.26136 0.68019 0.0
C568 C 0.29063 0.26602 0.65596 0.0
C569 C 0.30197 0.28525 0.65141 0.0
C570 C 0.30565 0.29988 0.67107 0.0
C571 C 0.29808 0.29528 0.69535 0.0
H572 H 0.30785 0.28883 0.63263 0.0
H573 H 0.22432 0.24139 0.86264 0.0
H574 H 0.69442 0.18558 0.76304 0.0
H575 H 0.7182 0.21161 0.74214 0.0
H576 H 0.69124 0.26324 0.78722 0.0
H577 H 0.66766 0.23728 0.8086 0.0
H578 H 0.71246 0.24677 0.71423 0.0
H579 H 0.73154 0.29874 0.80232 0.0
H580 H 0.73301 0.2948 0.8486 0.0
H581 H 0.74585 0.22673 0.84059 0.0
H582 H 0.74475 0.23032 0.79428 0.0
H583 H 0.76754 0.34134 0.67601 0.0
H584 H 0.74222 0.31723 0.6975 0.0
H585 H 0.7956 0.28568 0.73511 0.0
H586 H 0.82114 0.30997 0.71395 0.0
H587 H 0.76207 0.29129 0.76674 0.0
H588 H 0.77284 0.26282 0.68359 0.0
H589 H 0.77405 0.26395 0.63712 0.0
H590 H 0.70627 0.27989 0.6349 0.0
H591 H 0.70474 0.27915 0.6814 0.0
C592 C 0.69336 0.20249 0.76839 0.0
C593 C 0.67926 0.20928 0.78771 0.0
C594 C 0.70697 0.21736 0.75637 0.0
C595 C 0.70675 0.23929 0.76342 0.0
C596 C 0.69197 0.24631 0.78183 0.0
C597 C 0.67843 0.23144 0.79396 0.0
C598 C 0.72249 0.25462 0.75205 0.0
C599 C 0.72324 0.25657 0.72571 0.0
C600 C 0.73687 0.26708 0.76703 0.0
C601 C 0.73782 0.26478 0.79485 0.0
C602 C 0.73475 0.28295 0.81045 0.0
C603 C 0.73551 0.28078 0.83668 0.0
C604 C 0.73945 0.26052 0.84753 0.0
C605 C 0.74272 0.2424 0.83217 0.0
C606 C 0.742 0.24449 0.80593 0.0
C607 C 0.77396 0.32941 0.68899 0.0
C608 C 0.79644 0.32748 0.69307 0.0
C609 C 0.75943 0.31558 0.70119 0.0
C610 C 0.76706 0.29944 0.71756 0.0
C611 C 0.78939 0.298 0.72246 0.0
C612 C 0.80396 0.31187 0.71031 0.0
C613 C 0.75181 0.28365 0.72894 0.0
C614 C 0.75117 0.2816 0.75528 0.0
C615 C 0.73787 0.27073 0.71394 0.0
C616 C 0.73873 0.27114 0.68598 0.0
C617 C 0.75824 0.26674 0.6732 0.0
C618 C 0.75897 0.26728 0.64685 0.0
C619 C 0.74026 0.27205 0.63307 0.0
C620 C 0.72076 0.27623 0.6456 0.0
C621 C 0.71994 0.27574 0.67195 0.0
H622 H 0.74086 0.27245 0.61267 0.0
H623 H 0.74001 0.25887 0.86784 0.0
H624 H 0.10383 0.36586 0.89959 0.0
H625 H 0.10205 0.37343 0.94457 0.0
H626 H 0.16986 0.39105 0.94427 0.0
H627 H 0.17195 0.38232 0.8994 0.0
H628 H 0.16415 0.36411 0.97873 0.0
H629 H 0.12688 0.42854 0.95718 0.0
H630 H 0.09996 0.45175 0.93592 0.0
H631 H 0.04825 0.41711 0.97227 0.0
H632 H 0.07483 0.39348 0.99348 0.0
H633 H 0.13253 0.40436 0.11115 0.0
H634 H 0.13045 0.41032 0.06564 0.0
H635 H 0.13009 0.34118 0.05334 0.0
H636 H 0.13287 0.33508 0.09864 0.0
H637 H 0.10497 0.40021 0.0263 0.0
H638 H 0.16408 0.32876 0.00681 0.0
H639 H 0.19346 0.30914 0.02863 0.0
H640 H 0.20629 0.36516 0.07435 0.0
H641 H 0.17721 0.38521 0.05257 0.0
C642 C 0.11826 0.37179 0.90899 0.0
C643 C 0.1381 0.37327 0.89606 0.0
C644 C 0.11718 0.37629 0.93473 0.0
C645 C 0.13579 0.38295 0.94789 0.0
C646 C 0.1553 0.38581 0.93457 0.0
C647 C 0.1565 0.38083 0.90892 0.0
C648 C 0.13552 0.38409 0.97584 0.0
C649 C 0.15129 0.37224 0.98903 0.0
C650 C 0.11897 0.39492 0.98948 0.0
C651 C 0.10288 0.40914 0.97682 0.0
C652 C 0.10977 0.42577 0.96052 0.0
C653 C 0.09456 0.43902 0.94849 0.0
C654 C 0.07241 0.43589 0.95271 0.0
C655 C 0.06542 0.41952 0.96901 0.0
C656 C 0.08055 0.40622 0.98108 0.0
C657 C 0.13162 0.39041 0.09878 0.0
C658 C 0.13321 0.36923 0.10845 0.0
C659 C 0.13037 0.39386 0.07279 0.0
C660 C 0.13062 0.3762 0.05615 0.0
C661 C 0.13036 0.35504 0.06589 0.0
C662 C 0.13185 0.35157 0.09181 0.0
C663 C 0.13316 0.37973 0.02872 0.0
C664 C 0.11789 0.39239 0.01579 0.0
C665 C 0.15056 0.37024 0.01527 0.0
C666 C 0.16834 0.35841 0.02819 0.0
C667 C 0.17325 0.33692 0.02143 0.0
C668 C 0.18983 0.32572 0.03381 0.0
C669 C 0.20169 0.33588 0.05291 0.0
C670 C 0.19705 0.35729 0.05961 0.0
C671 C 0.1805 0.36857 0.04727 0.0
H672 H 0.21451 0.32717 0.06249 0.0
H673 H 0.06067 0.44616 0.94338 0.0
H674 H 0.64128 0.16592 0.89772 0.0
H675 H 0.63255 0.15957 0.94192 0.0
H676 H 0.61471 0.09356 0.92464 0.0
H677 H 0.62377 0.09969 0.88027 0.0
H678 H 0.59811 0.1472 0.96934 0.0
H679 H 0.63395 0.0619 0.97299 0.0
H680 H 0.65877 0.03835 0.94876 0.0
H681 H 0.69372 0.0943 0.9228 0.0
H682 H 0.66927 0.11812 0.9471 0.0
H683 H 0.59629 0.12011 0.09904 0.0
H684 H 0.5916 0.11293 0.05398 0.0
H685 H 0.65969 0.12523 0.0417 0.0
H686 H 0.66456 0.13225 0.08655 0.0
H687 H 0.64502 0.09276 0.01148 0.0
H688 H 0.62331 0.16578 0.03624 0.0
H689 H 0.60148 0.1921 0.06041 0.0
H690 H 0.54301 0.16512 0.02952 0.0
H691 H 0.56453 0.13846 0.0054 0.0
C692 C 0.63512 0.15016 0.90318 0.0
C693 C 0.63344 0.13324 0.88558 0.0
C694 C 0.63006 0.14657 0.92846 0.0
C695 C 0.62325 0.12602 0.93657 0.0
C696 C 0.62021 0.10946 0.91877 0.0
C697 C 0.62538 0.11301 0.89346 0.0
C698 C 0.62148 0.12166 0.96391 0.0
C699 C 0.60807 0.13504 0.97854 0.0
C700 C 0.63459 0.10589 0.97589 0.0
C701 C 0.64964 0.09175 0.96159 0.0
C702 C 0.64698 0.06914 0.96215 0.0
C703 C 0.66097 0.05576 0.94841 0.0
C704 C 0.67776 0.06483 0.93417 0.0
C705 C 0.68066 0.0873 0.93375 0.0
C706 C 0.66674 0.10074 0.94749 0.0
C707 C 0.61035 0.12084 0.08681 0.0
C708 C 0.63076 0.12698 0.09628 0.0
C709 C 0.60763 0.11674 0.0611 0.0
C710 C 0.62524 0.11882 0.04453 0.0
C711 C 0.64589 0.1235 0.05421 0.0
C712 C 0.64864 0.12759 0.07987 0.0
C713 C 0.62201 0.11862 0.01691 0.0
C714 C 0.63448 0.10439 0.00224 0.0
C715 C 0.60838 0.13392 0.00491 0.0
C716 C 0.59548 0.14998 0.0193 0.0
C717 C 0.60579 0.16537 0.03476 0.0
C718 C 0.59348 0.18036 0.04842 0.0
C719 C 0.57087 0.18024 0.04657 0.0
C720 C 0.56052 0.16516 0.03099 0.0
C721 C 0.57276 0.15011 0.01732 0.0
H722 H 0.56137 0.19186 0.05716 0.0
H723 H 0.68854 0.05445 0.9235 0.0
H724 H 0.89529 0.6266 0.90449 0.0
H725 H 0.89523 0.61639 0.94875 0.0
H726 H 0.82667 0.60245 0.94447 0.0
H727 H 0.82647 0.61379 0.90037 0.0
H728 H 0.83255 0.62797 0.9803 0.0
H729 H 0.86651 0.56228 0.95833 0.0
H730 H 0.89233 0.53765 0.93738 0.0
H731 H 0.9453 0.56802 0.97631 0.0
H732 H 0.91986 0.59307 -0.00277 0.0
H733 H 0.86073 0.58766 0.11377 0.0
H734 H 0.86281 0.58066 0.06844 0.0
H735 H 0.8671 0.64941 0.05436 0.0
H736 H 0.86428 0.65657 0.09944 0.0
H737 H 0.88893 0.58861 0.02884 0.0
H738 H 0.83382 0.66305 0.00815 0.0
H739 H 0.80536 0.68428 0.02961 0.0
H740 H 0.78943 0.6293 0.07569 0.0
H741 H 0.81756 0.60765 0.05425 0.0
C742 C 0.88029 0.62089 0.9128 0.0
C743 C 0.86081 0.6213 0.89908 0.0
C744 C 0.88031 0.61484 0.93813 0.0
C745 C 0.86096 0.60855 0.95002 0.0
C746 C 0.84179 0.60737 0.93575 0.0
C747 C 0.84167 0.61387 0.91054 0.0
C748 C 0.86017 0.60658 0.97787 0.0
C749 C 0.84474 0.61909 0.9908 0.0
C750 C 0.8758 0.59471 0.99176 0.0
C751 C 0.89124 0.57965 0.97927 0.0
C752 C 0.88368 0.56383 0.9623 0.0
C753 C 0.89826 0.54976 0.95045 0.0
C754 C 0.92045 0.55128 0.95549 0.0
C755 C 0.92811 0.56685 0.97244 0.0
C756 C 0.9136 0.58097 0.98434 0.0
C757 C 0.86252 0.60128 0.10104 0.0
C758 C 0.86197 0.62271 0.11012 0.0
C759 C 0.86376 0.59722 0.07516 0.0
C760 C 0.86458 0.61453 0.05809 0.0
C761 C 0.86597 0.63584 0.06727 0.0
C762 C 0.86444 0.63992 0.09305 0.0
C763 C 0.86193 0.61066 0.03075 0.0
C764 C 0.87661 0.59711 0.01811 0.0
C765 C 0.84518 0.62098 0.01705 0.0
C766 C 0.82791 0.63378 0.02971 0.0
C767 C 0.82415 0.65545 0.02275 0.0
C768 C 0.8081 0.66757 0.03494 0.0
C769 C 0.79563 0.65816 0.05404 0.0
C770 C 0.79914 0.63659 0.06094 0.0
C771 C 0.81515 0.62439 0.04879 0.0
H772 H 0.78323 0.66758 0.06347 0.0
H773 H 0.9317 0.54038 0.94629 0.0
H774 H 0.4093 0.87041 0.09971 0.0
H775 H 0.41612 0.87839 0.05516 0.0
H776 H 0.34735 0.87579 0.04039 0.0
H777 H 0.34042 0.86781 0.0846 0.0
H778 H 0.40703 0.85175 0.01655 0.0
H779 H 0.33401 0.9091 0.99366 0.0
H780 H 0.31489 0.93977 0.01354 0.0
H781 H 0.37143 0.95439 0.05764 0.0
H782 H 0.39102 0.92404 0.03776 0.0
H783 H 0.35858 0.83407 0.89982 0.0
H784 H 0.37021 0.8396 0.94324 0.0
H785 H 0.39129 0.90441 0.92479 0.0
H786 H 0.37933 0.89909 0.88124 0.0
H787 H 0.36663 0.9052 0.96483 0.0
H788 H 0.42858 0.8655 0.94088 0.0
H789 H 0.44961 0.83619 0.92083 0.0
H790 H 0.41989 0.78954 0.97001 0.0
H791 H 0.39842 0.8185 0.99012 0.0
C792 C 0.39561 0.87195 0.08704 0.0
C793 C 0.3743 0.86846 0.09567 0.0
C794 C 0.39955 0.87647 0.06163 0.0
C795 C 0.38225 0.87783 0.04455 0.0
C796 C 0.36093 0.87518 0.05334 0.0
C797 C 0.35699 0.87055 0.07865 0.0
C798 C 0.38624 0.87982 0.01714 0.0
C799 C 0.39847 0.8636 0.00519 0.0
C800 C 0.37561 0.8957 0.00245 0.0
C801 C 0.36396 0.91419 0.01426 0.0
C802 C 0.34243 0.91894 0.00746 0.0
C803 C 0.33149 0.93626 0.01877 0.0
C804 C 0.34193 0.949 0.03687 0.0
C805 C 0.36334 0.94448 0.04367 0.0
C806 C 0.37436 0.92719 0.03241 0.0
C807 C 0.36606 0.84935 0.90485 0.0
C808 C 0.36797 0.86616 0.88714 0.0
C809 C 0.37282 0.85247 0.92968 0.0
C810 C 0.38183 0.87236 0.93721 0.0
C811 C 0.38443 0.88893 0.91935 0.0
C812 C 0.37759 0.88585 0.8945 0.0
C813 C 0.38638 0.87637 0.96423 0.0
C814 C 0.37571 0.89369 0.97611 0.0
C815 C 0.39881 0.86175 0.97883 0.0
C816 C 0.41183 0.84422 0.96698 0.0
C817 C 0.42643 0.84898 0.94734 0.0
C818 C 0.43845 0.83242 0.93597 0.0
C819 C 0.43608 0.81102 0.94413 0.0
C820 C 0.42172 0.80614 0.96372 0.0
C821 C 0.40966 0.82263 0.97515 0.0
H822 H 0.44538 0.79822 0.93529 0.0
H823 H 0.33342 0.96239 0.04562 0.0
H824 H 0.16275 0.61366 0.59029 0.0
H825 H 0.15958 0.60826 0.54484 0.0
H826 H 0.09165 0.62478 0.54849 0.0
H827 H 0.09454 0.62943 0.59413 0.0
H828 H 0.09913 0.59656 0.5104 0.0
H829 H 0.12845 0.66434 0.53995 0.0
H830 H 0.15359 0.68721 0.56449 0.0
H831 H 0.20769 0.66052 0.52397 0.0
H832 H 0.18286 0.63725 0.49943 0.0
H833 H 0.12946 0.66793 0.39176 0.0
H834 H 0.12175 0.66269 0.43639 0.0
H835 H 0.12817 0.59347 0.42704 0.0
H836 H 0.13501 0.59856 0.38209 0.0
H837 H 0.14921 0.64816 0.46832 0.0
H838 H 0.10184 0.56678 0.47456 0.0
H839 H 0.07393 0.54678 0.45066 0.0
H840 H 0.05052 0.60649 0.41922 0.0
H841 H 0.07806 0.62687 0.44318 0.0
C842 C 0.14703 0.61559 0.58154 0.0
C843 C 0.12902 0.62246 0.59562 0.0
C844 C 0.14522 0.61245 0.55558 0.0
C845 C 0.12552 0.61674 0.54327 0.0
C846 C 0.10702 0.62153 0.55763 0.0
C847 C 0.10874 0.62426 0.58369 0.0
C848 C 0.12503 0.61957 0.51558 0.0
C849 C 0.11011 0.60773 0.50109 0.0
C850 C 0.1389 0.63469 0.50362 0.0
C851 C 0.15383 0.64893 0.51803 0.0
C852 C 0.14572 0.66328 0.53637 0.0
C853 C 0.15991 0.67631 0.55027 0.0
C854 C 0.18223 0.67528 0.54583 0.0
C855 C 0.1904 0.66127 0.52741 0.0
C856 C 0.17628 0.64817 0.51349 0.0
C857 C 0.12873 0.65157 0.39902 0.0
C858 C 0.13295 0.63368 0.38341 0.0
C859 C 0.12437 0.64859 0.42459 0.0
C860 C 0.1244 0.6277 0.43509 0.0
C861 C 0.12772 0.60972 0.41932 0.0
C862 C 0.13176 0.61268 0.39364 0.0
C863 C 0.12342 0.62501 0.46282 0.0
C864 C 0.13817 0.63691 0.47743 0.0
C865 C 0.10897 0.61041 0.47479 0.0
C866 C 0.09218 0.59832 0.46049 0.0
C867 C 0.09068 0.57565 0.46263 0.0
C868 C 0.07493 0.56425 0.44905 0.0
C869 C 0.06051 0.57535 0.43337 0.0
C870 C 0.06176 0.59789 0.43129 0.0
C871 C 0.07746 0.60938 0.44484 0.0
H872 H 0.04834 0.56649 0.42287 0.0
H873 H 0.19319 0.68537 0.55662 0.0
H874 H 0.36754 0.10013 0.59812 0.0
H875 H 0.37438 0.09817 0.55295 0.0
H876 H 0.38968 0.16649 0.55202 0.0
H877 H 0.38176 0.1687 0.59704 0.0
H878 H 0.3622 0.15939 0.51824 0.0
H879 H 0.42846 0.12499 0.53926 0.0
H880 H 0.45291 0.09913 0.56042 0.0
H881 H 0.42002 0.04594 0.52482 0.0
H882 H 0.39516 0.07145 0.50371 0.0
H883 H 0.40429 0.13091 0.38609 0.0
H884 H 0.41001 0.1282 0.43158 0.0
H885 H 0.34084 0.12449 0.44314 0.0
H886 H 0.33494 0.12788 0.39785 0.0
H887 H 0.40073 0.10184 0.47057 0.0
H888 H 0.3267 0.15758 0.49003 0.0
H889 H 0.30579 0.18611 0.46831 0.0
H890 H 0.36135 0.20178 0.42296 0.0
H891 H 0.38267 0.17357 0.44465 0.0
C892 C 0.37279 0.11465 0.58839 0.0
C893 C 0.37388 0.13463 0.60105 0.0
C894 C 0.37686 0.11348 0.56254 0.0
C895 C 0.38266 0.13216 0.54901 0.0
C896 C 0.3851 0.15187 0.56201 0.0
C897 C 0.38058 0.15314 0.58777 0.0
C898 C 0.38344 0.1317 0.52106 0.0
C899 C 0.37082 0.14688 0.50792 0.0
C900 C 0.3949 0.11559 0.5074 0.0
C901 C 0.40985 0.10016 0.52002 0.0
C902 C 0.42634 0.10777 0.53607 0.0
C903 C 0.44029 0.09317 0.54804 0.0
C904 C 0.43799 0.07091 0.544 0.0
C905 C 0.42177 0.06319 0.52794 0.0
C906 C 0.40777 0.07772 0.51593 0.0
C907 C 0.3903 0.12908 0.39827 0.0
C908 C 0.36913 0.12997 0.38843 0.0
C909 C 0.39362 0.12748 0.42426 0.0
C910 C 0.37584 0.12665 0.44071 0.0
C911 C 0.35477 0.12558 0.43074 0.0
C912 C 0.35142 0.12744 0.40483 0.0
C913 C 0.37906 0.12913 0.4682 0.0
C914 C 0.39235 0.11439 0.4811 0.0
C915 C 0.36881 0.14606 0.48168 0.0
C916 C 0.3562 0.16332 0.46882 0.0
C917 C 0.33447 0.16719 0.47551 0.0
C918 C 0.32255 0.18329 0.46318 0.0
C919 C 0.33221 0.1957 0.44421 0.0
C920 C 0.35386 0.1921 0.43759 0.0
C921 C 0.36586 0.17605 0.44988 0.0
H922 H 0.32294 0.20814 0.43468 0.0
H923 H 0.44881 0.05963 0.55329 0.0
H924 H 0.8597 0.33889 0.39898 0.0
H925 H 0.86772 0.34775 0.44274 0.0
H926 H 0.88006 0.41423 0.42189 0.0
H927 H 0.87184 0.40552 0.37787 0.0
H928 H 0.90141 0.36404 0.46882 0.0
H929 H 0.85791 0.44585 0.46954 0.0
H930 H 0.83071 0.46627 0.44497 0.0
H931 H 0.80103 0.40658 0.42154 0.0
H932 H 0.82789 0.38586 0.4462 0.0
H933 H 0.90046 0.3903 0.59758 0.0
H934 H 0.9046 0.39961 0.553 0.0
H935 H 0.83764 0.38262 0.53985 0.0
H936 H 0.83326 0.37374 0.58432 0.0
H937 H 0.84987 0.41519 0.50928 0.0
H938 H 0.87771 0.34443 0.53536 0.0
H939 H 0.90157 0.32058 0.56037 0.0
H940 H 0.95767 0.35279 0.53028 0.0
H941 H 0.93408 0.37699 0.50531 0.0
C942 C 0.86452 0.35531 0.40355 0.0
C943 C 0.86495 0.37154 0.38502 0.0
C944 C 0.86916 0.36034 0.42859 0.0
C945 C 0.87426 0.38169 0.43556 0.0
C946 C 0.87593 0.39771 0.41689 0.0
C947 C 0.87125 0.39268 0.39179 0.0
C948 C 0.87584 0.3872 0.46262 0.0
C949 C 0.89044 0.37553 0.47763 0.0
C950 C 0.86142 0.40211 0.47409 0.0
C951 C 0.84507 0.41435 0.4594 0.0
C952 C 0.84555 0.43712 0.45915 0.0
C953 C 0.8302 0.44873 0.44523 0.0
C954 C 0.81421 0.43772 0.43161 0.0
C955 C 0.81348 0.41508 0.43199 0.0
C956 C 0.82877 0.4034 0.44592 0.0
C957 C 0.88647 0.38909 0.5853 0.0
C958 C 0.86663 0.38091 0.59431 0.0
C959 C 0.88887 0.39443 0.55986 0.0
C960 C 0.87155 0.39138 0.54308 0.0
C961 C 0.85123 0.38505 0.55249 0.0
C962 C 0.84878 0.37988 0.57792 0.0
C963 C 0.87507 0.39161 0.5155 0.0
C964 C 0.86144 0.40434 0.50039 0.0
C965 C 0.89002 0.37729 0.50393 0.0
C966 C 0.90417 0.36265 0.51875 0.0
C967 C 0.89514 0.34649 0.53421 0.0
C968 C 0.9086 0.33291 0.54836 0.0
C969 C 0.93113 0.33522 0.54698 0.0
C970 C 0.94023 0.35106 0.53138 0.0
C971 C 0.92682 0.36471 0.51723 0.0
H972 H 0.94153 0.32469 0.55794 0.0
H973 H 0.80236 0.44674 0.42083 0.0
H974 H 0.64201 0.83832 0.59728 0.0
H975 H 0.63846 0.84629 0.55232 0.0
H976 H 0.61337 0.90974 0.56985 0.0
H977 H 0.61723 0.90214 0.61499 0.0
H978 H 0.59691 0.86841 0.5227 0.0
H979 H 0.64619 0.92938 0.55222 0.0
H980 H 0.67588 0.94104 0.58039 0.0
H981 H 0.7152 0.88802 0.55455 0.0
H982 H 0.68557 0.87594 0.52649 0.0
H983 H 0.611 0.89487 0.39521 0.0
H984 H 0.60696 0.90297 0.44012 0.0
H985 H 0.66823 0.87166 0.45511 0.0
H986 H 0.67276 0.86437 0.4102 0.0
H987 H 0.66285 0.90322 0.48719 0.0
H988 H 0.61874 0.84365 0.45645 0.0
H989 H 0.5909 0.82688 0.42931 0.0
H990 H 0.5431 0.87115 0.45796 0.0
H991 H 0.57076 0.88834 0.48505 0.0
C992 C 0.6353 0.8538 0.59163 0.0
C993 C 0.6301 0.86969 0.60963 0.0
C994 C 0.63332 0.85832 0.56597 0.0
C995 C 0.62593 0.87866 0.55799 0.0
C996 C 0.6193 0.89404 0.57582 0.0
C997 C 0.62148 0.88963 0.60153 0.0
C998 C 0.62714 0.88423 0.53105 0.0
C999 C 0.61097 0.87658 0.51485 0.0
C1000 C 0.64582 0.89427 0.52103 0.0
C1001 C 0.66368 0.9017 0.5375 0.0
C1002 C 0.66113 0.92017 0.5527 0.0
C1003 C 0.67794 0.92685 0.56861 0.0
C1004 C 0.6974 0.91525 0.56931 0.0
C1005 C 0.70011 0.89697 0.55403 0.0
C1006 C 0.68333 0.89021 0.53812 0.0
C1007 C 0.62386 0.89025 0.40804 0.0
C1008 C 0.64202 0.87868 0.39935 0.0
C1009 C 0.6215 0.8948 0.43368 0.0
C1010 C 0.63698 0.88735 0.45102 0.0
C1011 C 0.656 0.87745 0.44208 0.0
C1012 C 0.65856 0.87325 0.41639 0.0
C1013 C 0.63246 0.88756 0.47846 0.0
C1014 C 0.64826 0.89591 0.49486 0.0
C1015 C 0.61349 0.87787 0.48862 0.0
C1016 C 0.59685 0.86743 0.47252 0.0
C1017 C 0.60232 0.84987 0.45684 0.0
C1018 C 0.58657 0.84029 0.44148 0.0
C1019 C 0.56526 0.84799 0.44185 0.0
C1020 C 0.55963 0.86524 0.45765 0.0
C1021 C 0.57532 0.8749 0.47301 0.0
H1022 H 0.55309 0.84056 0.42994 0.0
H1023 H 0.71039 0.92044 0.58164 0.0
H1024 H 0.21392 0.58738 0.27616 0.0
H1025 H 0.21562 0.54887 0.26523 0.0
H1026 H 0.14743 0.54951 0.24721 0.0
H1027 H 0.14557 0.58799 0.25786 0.0
H1028 H 0.15973 0.51842 0.28398 0.0
H1029 H 0.18201 0.5431 0.20137 0.0
H1030 H 0.20507 0.56343 0.1716 0.0
H1031 H 0.26101 0.52812 0.19686 0.0
H1032 H 0.23832 0.50779 0.22704 0.0
H1033 H 0.14096 0.4154 0.23172 0.0
H1034 H 0.14434 0.45313 0.24427 0.0
H1035 H 0.21413 0.44727 0.24381 0.0
H1036 H 0.21082 0.40956 0.23 0.0
H1037 H 0.20384 0.48111 0.2189 0.0
H1038 H 0.18321 0.45521 0.2998 0.0
H1039 H 0.1618 0.43501 0.33129 0.0
H1040 H 0.10535 0.47245 0.31262 0.0
H1041 H 0.12633 0.49269 0.28076 0.0
C1042 C 0.19941 0.57947 0.26926 0.0
C1043 C 0.17957 0.5907 0.2681 0.0
C1044 C 0.20041 0.55747 0.26305 0.0
C1045 C 0.1816 0.54637 0.25567 0.0
C1046 C 0.16208 0.55782 0.25303 0.0
C1047 C 0.1611 0.57985 0.25897 0.0
C1048 C 0.18178 0.52251 0.25286 0.0
C1049 C 0.16915 0.5102 0.26957 0.0
C1050 C 0.19487 0.51189 0.23482 0.0
C1051 C 0.2085 0.52409 0.21666 0.0
C1052 C 0.19926 0.53982 0.20075 0.0
C1053 C 0.21226 0.55131 0.18376 0.0
C1054 C 0.2345 0.54712 0.18239 0.0
C1055 C 0.24379 0.53138 0.19796 0.0
C1056 C 0.23086 0.51986 0.215 0.0
C1057 C 0.15705 0.42193 0.23487 0.0
C1058 C 0.17564 0.4095 0.22974 0.0
C1059 C 0.15897 0.44358 0.24216 0.0
C1060 C 0.17951 0.45311 0.24516 0.0
C1061 C 0.1981 0.44033 0.24151 0.0
C1062 C 0.1962 0.41874 0.23378 0.0
C1063 C 0.18143 0.4768 0.24981 0.0
C1064 C 0.19451 0.48917 0.23351 0.0
C1065 C 0.16903 0.48748 0.26856 0.0
C1066 C 0.15633 0.47537 0.28775 0.0
C1067 C 0.16619 0.45904 0.30227 0.0
C1068 C 0.15413 0.44759 0.32021 0.0
C1069 C 0.13222 0.45241 0.32391 0.0
C1070 C 0.12232 0.46873 0.30972 0.0
C1071 C 0.1343 0.48021 0.29175 0.0
H1072 H 0.12291 0.44354 0.33781 0.0
H1073 H 0.24454 0.55602 0.16923 0.0
H1074 H 0.58538 0.21032 0.20962 0.0
H1075 H 0.54757 0.21375 0.22329 0.0
H1076 H 0.54425 0.14464 0.23481 0.0
H1077 H 0.58199 0.14103 0.22151 0.0
H1078 H 0.51226 0.1623 0.20124 0.0
H1079 H 0.54312 0.17507 0.28398 0.0
H1080 H 0.56657 0.19406 0.31449 0.0
H1081 H 0.53357 0.2539 0.29909 0.0
H1082 H 0.5101 0.23531 0.26821 0.0
H1083 H 0.41288 0.14226 0.26106 0.0
H1084 H 0.44972 0.14572 0.24529 0.0
H1085 H 0.44655 0.21514 0.25494 0.0
H1086 H 0.40978 0.21165 0.27189 0.0
H1087 H 0.4818 0.20145 0.27488 0.0
H1088 H 0.44928 0.18995 0.19492 0.0
H1089 H 0.42585 0.1727 0.16303 0.0
H1090 H 0.46169 0.11335 0.17019 0.0
H1091 H 0.48516 0.13014 0.20239 0.0
C1092 C 0.57676 0.19591 0.21563 0.0
C1093 C 0.58663 0.17538 0.21427 0.0
C1094 C 0.55517 0.19791 0.2234 0.0
C1095 C 0.54315 0.17941 0.22978 0.0
C1096 C 0.55329 0.15907 0.22978 0.0
C1097 C 0.5749 0.15708 0.22231 0.0
C1098 C 0.51957 0.18091 0.23451 0.0
C1099 C 0.50553 0.17066 0.21746 0.0
C1100 C 0.51092 0.19269 0.255 0.0
C1101 C 0.52503 0.20385 0.27356 0.0
C1102 C 0.541 0.19232 0.28691 0.0
C1103 C 0.55427 0.203 0.30432 0.0
C1104 C 0.55161 0.22519 0.30867 0.0
C1105 C 0.53564 0.23673 0.29567 0.0
C1106 C 0.52234 0.22612 0.27823 0.0
C1107 C 0.41979 0.15834 0.25931 0.0
C1108 C 0.40843 0.17668 0.26786 0.0
C1109 C 0.44091 0.16031 0.25017 0.0
C1110 C 0.45095 0.18072 0.24873 0.0
C1111 C 0.43919 0.19921 0.25595 0.0
C1112 C 0.41813 0.19721 0.26549 0.0
C1113 C 0.47426 0.18236 0.24188 0.0
C1114 C 0.48835 0.19326 0.25844 0.0
C1115 C 0.48296 0.17148 0.22064 0.0
C1116 C 0.4689 0.16129 0.20122 0.0
C1117 C 0.45208 0.17318 0.18983 0.0
C1118 C 0.4388 0.16348 0.17167 0.0
C1119 C 0.44226 0.14193 0.16462 0.0
C1120 C 0.45903 0.13004 0.17568 0.0
C1121 C 0.47235 0.13965 0.19386 0.0
H1122 H 0.43196 0.13446 0.15056 0.0
H1123 H 0.56189 0.23343 0.32216 0.0
H1124 H 0.78308 0.58544 0.22756 0.0
H1125 H 0.77956 0.5469 0.23788 0.0
H1126 H 0.84903 0.54195 0.24523 0.0
H1127 H 0.85274 0.5804 0.23536 0.0
H1128 H 0.82904 0.51339 0.20851 0.0
H1129 H 0.82161 0.53642 0.29534 0.0
H1130 H 0.80505 0.55713 0.33015 0.0
H1131 H 0.74358 0.52687 0.31556 0.0
H1132 H 0.75973 0.50618 0.28041 0.0
H1133 H 0.85031 0.40949 0.25652 0.0
H1134 H 0.8466 0.44714 0.24381 0.0
H1135 H 0.77755 0.44385 0.25678 0.0
H1136 H 0.78128 0.40619 0.27047 0.0
H1137 H 0.79313 0.47685 0.28061 0.0
H1138 H 0.79977 0.45169 0.19646 0.0
H1139 H 0.81483 0.43111 0.16065 0.0
H1140 H 0.87518 0.46535 0.16775 0.0
H1141 H 0.86059 0.48593 0.20384 0.0
C1142 C 0.79756 0.57629 0.23207 0.0
C1143 C 0.8182 0.58592 0.23035 0.0
C1144 C 0.79551 0.55429 0.2379 0.0
C1145 C 0.81407 0.54163 0.24195 0.0
C1146 C 0.83455 0.5515 0.24195 0.0
C1147 C 0.8366 0.57351 0.23646 0.0
C1148 C 0.81239 0.51781 0.24383 0.0
C1149 C 0.8214 0.5053 0.22437 0.0
C1150 C 0.80153 0.5075 0.26395 0.0
C1151 C 0.79182 0.51996 0.28504 0.0
C1152 C 0.80451 0.53435 0.29938 0.0
C1153 C 0.79521 0.54604 0.31922 0.0
C1154 C 0.77326 0.54337 0.32501 0.0
C1155 C 0.76058 0.52895 0.31102 0.0
C1156 C 0.7698 0.51723 0.29115 0.0
C1157 C 0.83422 0.41654 0.25604 0.0
C1158 C 0.81611 0.40491 0.26479 0.0
C1159 C 0.83211 0.43814 0.24866 0.0
C1160 C 0.81178 0.44839 0.24933 0.0
C1161 C 0.79341 0.43632 0.25627 0.0
C1162 C 0.79556 0.41475 0.26394 0.0
C1163 C 0.81023 0.47217 0.24548 0.0
C1164 C 0.80057 0.48478 0.26452 0.0
C1165 C 0.82023 0.48261 0.22473 0.0
C1166 C 0.82911 0.47026 0.203 0.0
C1167 C 0.81631 0.45473 0.19051 0.0
C1168 C 0.82475 0.44307 0.17014 0.0
C1169 C 0.84596 0.44689 0.16195 0.0
C1170 C 0.85875 0.4624 0.17411 0.0
C1171 C 0.85039 0.47409 0.19451 0.0
H1172 H 0.85247 0.43785 0.14617 0.0
H1173 H 0.76609 0.55243 0.34039 0.0
H1174 H 0.59011 0.84483 0.26597 0.0
H1175 H 0.55364 0.84106 0.24823 0.0
H1176 H 0.53379 0.80431 0.31352 0.0
H1177 H 0.57019 0.80746 0.33098 0.0
H1178 H 0.51616 0.78754 0.27334 0.0
H1179 H 0.52237 0.85861 0.30843 0.0
H1180 H 0.53864 0.89472 0.31483 0.0
H1181 H 0.52859 0.90987 0.23666 0.0
H1182 H 0.51253 0.8737 0.22971 0.0
H1183 H 0.40515 0.84532 0.23986 0.0
H1184 H 0.439 0.84299 0.26386 0.0
H1185 H 0.46396 0.79665 0.2102 0.0
H1186 H 0.43015 0.79838 0.18669 0.0
H1187 H 0.47738 0.8549 0.24931 0.0
H1188 H 0.50126 0.76418 0.23603 0.0
H1189 H 0.48342 0.72841 0.23433 0.0
H1190 H 0.42994 0.7531 0.27756 0.0
H1191 H 0.44758 0.78893 0.27982 0.0
C1192 C 0.57805 0.8357 0.27636 0.0
C1193 C 0.58299 0.82661 0.29997 0.0
C1194 C 0.55719 0.83367 0.26629 0.0
C1195 C 0.54088 0.82276 0.2798 0.0
C1196 C 0.54608 0.81286 0.30281 0.0
C1197 C 0.56692 0.81474 0.31279 0.0
C1198 C 0.5182 0.82232 0.27051 0.0
C1199 C 0.50767 0.80225 0.26804 0.0
C1200 C 0.50688 0.84157 0.26439 0.0
C1201 C 0.51644 0.86337 0.2685 0.0
C1202 C 0.52377 0.86958 0.29256 0.0
C1203 C 0.53293 0.89007 0.2963 0.0
C1204 C 0.53469 0.90456 0.27615 0.0
C1205 C 0.52724 0.89861 0.25224 0.0
C1206 C 0.51809 0.87813 0.2484 0.0
C1207 C 0.41769 0.8343 0.2335 0.0
C1208 C 0.41499 0.8221 0.21132 0.0
C1209 C 0.43705 0.83306 0.24716 0.0
C1210 C 0.45401 0.81959 0.2389 0.0
C1211 C 0.45102 0.80687 0.21724 0.0
C1212 C 0.43166 0.80797 0.20371 0.0
C1213 C 0.47544 0.82006 0.2516 0.0
C1214 C 0.48578 0.84016 0.25469 0.0
C1215 C 0.48633 0.80087 0.25896 0.0
C1216 C 0.47568 0.7793 0.2579 0.0
C1217 C 0.48574 0.76195 0.24527 0.0
C1218 C 0.47565 0.74167 0.24419 0.0
C1219 C 0.45553 0.7385 0.25577 0.0
C1220 C 0.44549 0.75559 0.26852 0.0
C1221 C 0.45551 0.77591 0.26967 0.0
H1222 H 0.44775 0.72279 0.2549 0.0
H1223 H 0.54179 0.92041 0.27907 0.0
H1224 H 0.80648 0.57553 0.79768 0.0
H1225 H 0.80994 0.5415 0.7747 0.0
H1226 H 0.87966 0.54811 0.77527 0.0
H1227 H 0.87616 0.58293 0.7973 0.0
H1228 H 0.8681 0.53197 0.73242 0.0
H1229 H 0.85204 0.51361 0.81731 0.0
H1230 H 0.8326 0.51483 0.85794 0.0
H1231 H 0.77457 0.49205 0.82183 0.0
H1232 H 0.79357 0.49099 0.7809 0.0
H1233 H 0.87708 0.4179 0.70101 0.0
H1234 H 0.87968 0.4516 0.72548 0.0
H1235 H 0.81175 0.46389 0.7125 0.0
H1236 H 0.80906 0.43057 0.68773 0.0
H1237 H 0.82678 0.46863 0.76448 0.0
H1238 H 0.84472 0.4902 0.67848 0.0
H1239 H 0.86629 0.48788 0.63939 0.0
H1240 H 0.92422 0.50274 0.68092 0.0
H1241 H 0.903 0.50485 0.72034 0.0
C1242 C 0.82255 0.5698 0.79278 0.0
C1243 C 0.84106 0.58175 0.79948 0.0
C1244 C 0.82453 0.55026 0.77978 0.0
C1245 C 0.8451 0.54186 0.77392 0.0
C1246 C 0.86363 0.55415 0.77978 0.0
C1247 C 0.86162 0.57403 0.79234 0.0
C1248 C 0.84705 0.52017 0.76189 0.0
C1249 C 0.85937 0.51805 0.73973 0.0
C1250 C 0.8357 0.5019 0.77136 0.0
C1251 C 0.82421 0.50236 0.79599 0.0
C1252 C 0.8351 0.50898 0.818 0.0
C1253 C 0.82416 0.50963 0.84109 0.0
C1254 C 0.80235 0.50356 0.84245 0.0
C1255 C 0.79146 0.49676 0.82074 0.0
C1256 C 0.80232 0.4961 0.79759 0.0
C1257 C 0.86269 0.42774 0.70348 0.0
C1258 C 0.84287 0.42163 0.69239 0.0
C1259 C 0.86423 0.44698 0.71736 0.0
C1260 C 0.84592 0.46018 0.72066 0.0
C1261 C 0.82605 0.45387 0.71011 0.0
C1262 C 0.82457 0.43489 0.69591 0.0
C1263 C 0.8473 0.48075 0.73487 0.0
C1264 C 0.83567 0.48256 0.75746 0.0
C1265 C 0.85963 0.49854 0.7261 0.0
C1266 C 0.87232 0.49743 0.70238 0.0
C1267 C 0.86209 0.49278 0.67931 0.0
C1268 C 0.87424 0.49154 0.65709 0.0
C1269 C 0.89662 0.49509 0.65768 0.0
C1270 C 0.90689 0.49996 0.68049 0.0
C1271 C 0.8948 0.50119 0.70277 0.0
H1272 H 0.90601 0.49413 0.64046 0.0
H1273 H 0.79391 0.50408 0.86035 0.0
H1274 H 0.56696 0.80818 0.6806 0.0
H1275 H 0.53191 0.80831 0.702 0.0
H1276 H 0.55082 0.86519 0.74394 0.0
H1277 H 0.58612 0.865 0.72295 0.0
H1278 H 0.53075 0.83708 0.77396 0.0
H1279 H 0.51677 0.86916 0.69343 0.0
H1280 H 0.51709 0.87153 0.647 0.0
H1281 H 0.47849 0.81372 0.64223 0.0
H1282 H 0.47818 0.81084 0.68865 0.0
H1283 H 0.40705 0.86325 0.77585 0.0
H1284 H 0.44237 0.86429 0.75503 0.0
H1285 H 0.46162 0.80647 0.7949 0.0
H1286 H 0.42651 0.8055 0.8162 0.0
H1287 H 0.46264 0.83749 0.7241 0.0
H1288 H 0.51544 0.8089 0.80808 0.0
H1289 H 0.51485 0.80992 0.8546 0.0
H1290 H 0.47559 0.86739 0.85268 0.0
H1291 H 0.47621 0.86688 0.80618 0.0
C1292 C 0.56373 0.82073 0.6944 0.0
C1293 C 0.57937 0.83666 0.69994 0.0
C1294 C 0.54362 0.82081 0.70656 0.0
C1295 C 0.53863 0.83692 0.72434 0.0
C1296 C 0.55431 0.85261 0.73026 0.0
C1297 C 0.57448 0.85251 0.71817 0.0
C1298 C 0.51699 0.83748 0.73662 0.0
C1299 C 0.51586 0.83715 0.76306 0.0
C1300 C 0.49755 0.83796 0.72242 0.0
C1301 C 0.49763 0.83968 0.69451 0.0
C1302 C 0.50849 0.85687 0.68247 0.0
C1303 C 0.50864 0.85831 0.65616 0.0
C1304 C 0.49786 0.84275 0.64167 0.0
C1305 C 0.48685 0.82574 0.65348 0.0
C1306 C 0.48667 0.82421 0.67979 0.0
C1307 C 0.41876 0.85071 0.7802 0.0
C1308 C 0.41395 0.83436 0.79785 0.0
C1309 C 0.43894 0.85131 0.76821 0.0
C1310 C 0.45474 0.83562 0.77363 0.0
C1311 C 0.44983 0.81898 0.79077 0.0
C1312 C 0.42969 0.81841 0.80286 0.0
C1313 C 0.4764 0.83675 0.76143 0.0
C1314 C 0.47753 0.83737 0.73501 0.0
C1315 C 0.49583 0.83701 0.77566 0.0
C1316 C 0.49571 0.83771 0.80364 0.0
C1317 C 0.50677 0.82181 0.81759 0.0
C1318 C 0.50642 0.82229 0.84396 0.0
C1319 C 0.49513 0.83867 0.85659 0.0
C1320 C 0.48426 0.85466 0.84288 0.0
C1321 C 0.48459 0.85427 0.81652 0.0
H1322 H 0.49483 0.83898 0.877 0.0
H1323 H 0.498 0.8439 0.6213 0.0
H1324 H 0.19735 0.42429 0.79978 0.0
H1325 H 0.19506 0.45832 0.77653 0.0
H1326 H 0.12537 0.45193 0.77299 0.0
H1327 H 0.12777 0.41713 0.79508 0.0
H1328 H 0.13817 0.46706 0.73103 0.0
H1329 H 0.15256 0.48735 0.81593 0.0
H1330 H 0.17129 0.48719 0.85702 0.0
H1331 H 0.2299 0.50921 0.8215 0.0
H1332 H 0.21161 0.50923 0.78013 0.0
H1333 H 0.12543 0.58063 0.70127 0.0
H1334 H 0.12469 0.54663 0.72522 0.0
H1335 H 0.19262 0.53689 0.70959 0.0
H1336 H 0.19345 0.57056 0.6852 0.0
H1337 H 0.17822 0.53134 0.76273 0.0
H1338 H 0.16132 0.50916 0.67685 0.0
H1339 H 0.14002 0.51079 0.63754 0.0
H1340 H 0.0822 0.49436 0.6785 0.0
H1341 H 0.10314 0.49295 0.71814 0.0
C1342 C 0.18154 0.43012 0.79398 0.0
C1343 C 0.16272 0.41817 0.79939 0.0
C1344 C 0.18022 0.44967 0.78084 0.0
C1345 C 0.15998 0.45808 0.77358 0.0
C1346 C 0.14117 0.44589 0.7785 0.0
C1347 C 0.14255 0.42602 0.79113 0.0
C1348 C 0.15857 0.4795 0.76077 0.0
C1349 C 0.14666 0.48116 0.73826 0.0
C1350 C 0.16969 0.49801 0.77002 0.0
C1351 C 0.18075 0.49812 0.79489 0.0
C1352 C 0.16948 0.49203 0.81685 0.0
C1353 C 0.18002 0.49198 0.8402 0.0
C1354 C 0.20178 0.49814 0.84186 0.0
C1355 C 0.21304 0.50442 0.82018 0.0
C1356 C 0.20259 0.50448 0.79678 0.0
C1357 C 0.14023 0.57128 0.70301 0.0
C1358 C 0.1595 0.57823 0.6913 0.0
C1359 C 0.13974 0.55187 0.71662 0.0
C1360 C 0.15858 0.53931 0.71905 0.0
C1361 C 0.17793 0.54641 0.70787 0.0
C1362 C 0.17834 0.56559 0.69389 0.0
C1363 C 0.15816 0.5186 0.73306 0.0
C1364 C 0.16966 0.51717 0.75576 0.0
C1365 C 0.14628 0.5005 0.72433 0.0
C1366 C 0.13375 0.5012 0.70049 0.0
C1367 C 0.14403 0.5061 0.67751 0.0
C1368 C 0.13203 0.50694 0.65516 0.0
C1369 C 0.10976 0.50275 0.65553 0.0
C1370 C 0.09945 0.49764 0.67825 0.0
C1371 C 0.11138 0.4968 0.70065 0.0
H1372 H 0.1005 0.5034 0.63821 0.0
H1373 H 0.20991 0.49809 0.85995 0.0
H1374 H 0.40855 0.14263 0.7271 0.0
H1375 H 0.44302 0.14159 0.75033 0.0
H1376 H 0.47502 0.17369 0.68846 0.0
H1377 H 0.4407 0.17535 0.66541 0.0
H1378 H 0.4915 0.12657 0.72129 0.0
H1379 H 0.477 0.20733 0.71781 0.0
H1380 H 0.45145 0.23759 0.72458 0.0
H1381 H 0.43944 0.21543 0.80009 0.0
H1382 H 0.46472 0.18486 0.79356 0.0
H1383 H 0.59738 0.15261 0.76161 0.0
H1384 H 0.56218 0.15079 0.74055 0.0
H1385 H 0.53046 0.1691 0.81001 0.0
H1386 H 0.56576 0.17226 0.83062 0.0
H1387 H 0.51172 0.18904 0.77543 0.0
H1388 H 0.53113 0.1147 0.78471 0.0
H1389 H 0.55419 0.08216 0.78146 0.0
H1390 H 0.55397 0.08745 0.70071 0.0
H1391 H 0.53113 0.1202 0.70348 0.0
C1392 C 0.42295 0.14939 0.71843 0.0
C1393 C 0.4219 0.1592 0.6945 0.0
C1394 C 0.44256 0.14878 0.7317 0.0
C1395 C 0.4614 0.15766 0.72106 0.0
C1396 C 0.46055 0.16689 0.69696 0.0
C1397 C 0.44093 0.16787 0.68389 0.0
C1398 C 0.48195 0.15785 0.73529 0.0
C1399 C 0.49613 0.14023 0.73301 0.0
C1400 C 0.48744 0.17533 0.75117 0.0
C1401 C 0.47248 0.19375 0.75511 0.0
C1402 C 0.46874 0.20883 0.73576 0.0
C1403 C 0.45436 0.22605 0.73956 0.0
C1404 C 0.44377 0.2284 0.76273 0.0
C1405 C 0.44761 0.21357 0.78215 0.0
C1406 C 0.46195 0.1963 0.7784 0.0
C1407 C 0.58287 0.15625 0.77233 0.0
C1408 C 0.58427 0.16257 0.79773 0.0
C1409 C 0.56271 0.15503 0.76035 0.0
C1410 C 0.5435 0.15935 0.77378 0.0
C1411 C 0.54497 0.16568 0.79918 0.0
C1412 C 0.56515 0.16747 0.81097 0.0
C1413 C 0.52196 0.15784 0.7612 0.0
C1414 C 0.50737 0.17521 0.76384 0.0
C1415 C 0.51595 0.13981 0.74608 0.0
C1416 C 0.52956 0.12002 0.74432 0.0
C1417 C 0.53611 0.10901 0.76626 0.0
C1418 C 0.54913 0.09051 0.76451 0.0
C1419 C 0.55558 0.08277 0.7409 0.0
C1420 C 0.54897 0.09347 0.71899 0.0
C1421 C 0.53597 0.11199 0.72064 0.0
H1422 H 0.56567 0.06846 0.73958 0.0
H1423 H 0.43265 0.24174 0.76565 0.0
H1424 H 0.64608 0.08793 0.7604 0.0
H1425 H 0.6481 0.04952 0.74965 0.0
H1426 H 0.71732 0.05047 0.76103 0.0
H1427 H 0.71551 0.08897 0.7722 0.0
H1428 H 0.70069 0.02372 0.71811 0.0
H1429 H 0.69198 0.03541 0.80786 0.0
H1430 H 0.67442 0.052 0.84495 0.0
H1431 H 0.6137 0.02293 0.82419 0.0
H1432 H 0.63084 0.00644 0.78673 0.0
H1433 H 0.71043 0.91062 0.72708 0.0
H1434 H 0.7144 0.94854 0.73966 0.0
H1435 H 0.64499 0.95376 0.74828 0.0
H1436 H 0.64093 0.91578 0.73647 0.0
H1437 H 0.66441 0.97776 0.78245 0.0
H1438 H 0.67051 0.96793 0.69275 0.0
H1439 H 0.68559 0.95249 0.65357 0.0
H1440 H 0.74821 0.9787 0.67168 0.0
H1441 H 0.73356 0.99407 0.71116 0.0
C1442 C 0.66184 0.08018 0.76 0.0
C1443 C 0.68061 0.09142 0.76754 0.0
C1444 C 0.66293 0.05821 0.75392 0.0
C1445 C 0.68279 0.0472 0.75501 0.0
C1446 C 0.70184 0.05876 0.76026 0.0
C1447 C 0.70075 0.08072 0.76663 0.0
C1448 C 0.68324 0.02333 0.75323 0.0
C1449 C 0.6931 0.01359 0.73233 0.0
C1450 C 0.6729 0.0103 0.7716 0.0
C1451 C 0.66265 0.01986 0.79437 0.0
C1452 C 0.67485 0.03269 0.8111 0.0
C1453 C 0.66498 0.04205 0.8322 0.0
C1454 C 0.64295 0.03856 0.83689 0.0
C1455 C 0.63076 0.02563 0.82052 0.0
C1456 C 0.64055 0.01626 0.79936 0.0
C1457 C 0.69606 0.91969 0.73225 0.0
C1458 C 0.67534 0.9103 0.73037 0.0
C1459 C 0.69834 0.9414 0.73927 0.0
C1460 C 0.67994 0.95413 0.74417 0.0
C1461 C 0.65941 0.94429 0.74435 0.0
C1462 C 0.65712 0.92255 0.73759 0.0
C1463 C 0.68177 0.97796 0.74715 0.0
C1464 C 0.67227 0.98777 0.76832 0.0
C1465 C 0.69217 0.99107 0.72879 0.0
C1466 C 0.701 0.98193 0.70503 0.0
C1467 C 0.68754 0.97026 0.68846 0.0
C1468 C 0.69599 0.96154 0.66619 0.0
C1469 C 0.71786 0.96456 0.66018 0.0
C1470 C 0.73129 0.97635 0.67639 0.0
C1471 C 0.72292 0.98507 0.69871 0.0
H1472 H 0.72438 0.9578 0.64292 0.0
H1473 H 0.63533 0.04584 0.85323 0.0
H1474 H 0.90917 0.65909 0.76502 0.0
H1475 H 0.94521 0.66244 0.74607 0.0
H1476 H 0.96701 0.69921 0.8105 0.0
H1477 H 0.93098 0.69647 0.82921 0.0
H1478 H 0.98475 0.7149 0.76915 0.0
H1479 H 0.97653 0.64479 0.80664 0.0
H1480 H 0.95883 0.60953 0.81424 0.0
H1481 H 0.9671 0.59255 0.73627 0.0
H1482 H 0.98459 0.62786 0.72814 0.0
H1483 H 0.09333 0.6521 0.73759 0.0
H1484 H 0.05963 0.65658 0.76144 0.0
H1485 H 0.03647 0.70199 0.70571 0.0
H1486 H 0.07019 0.69808 0.68225 0.0
H1487 H 0.02089 0.64559 0.74698 0.0
H1488 H 0.0002 0.73667 0.73069 0.0
H1489 H 0.01927 0.77172 0.72751 0.0
H1490 H 0.07212 0.74639 0.7712 0.0
H1491 H 0.05325 0.71129 0.77495 0.0
C1492 C 0.92154 0.66819 0.77496 0.0
C1493 C 0.9173 0.67728 0.79875 0.0
C1494 C 0.94215 0.67 0.76417 0.0
C1495 C 0.9589 0.68068 0.77715 0.0
C1496 C 0.95435 0.69082 0.80022 0.0
C1497 C 0.93374 0.68917 0.81091 0.0
C1498 C 0.98146 0.68016 0.7675 0.0
C1499 C 0.99267 0.69977 0.76424 0.0
C1500 C 0.99202 0.66037 0.76187 0.0
C1501 C 0.98169 0.63904 0.76674 0.0
C1502 C 0.97445 0.63359 0.79109 0.0
C1503 C 0.96447 0.61359 0.79549 0.0
C1504 C 0.9618 0.59883 0.77574 0.0
C1505 C 0.96916 0.60401 0.75155 0.0
C1506 C 0.97912 0.62401 0.74703 0.0
C1507 C 0.08123 0.66335 0.7307 0.0
C1508 C 0.08439 0.67465 0.70798 0.0
C1509 C 0.06195 0.66584 0.74429 0.0
C1510 C 0.04554 0.67967 0.73541 0.0
C1511 C 0.04901 0.69151 0.71318 0.0
C1512 C 0.0683 0.68915 0.6997 0.0
C1513 C 0.02412 0.68038 0.74811 0.0
C1514 C 0.01307 0.66076 0.75193 0.0
C1515 C 0.01397 0.70014 0.75486 0.0
C1516 C 0.02538 0.72127 0.7529 0.0
C1517 C 0.01585 0.7386 0.73971 0.0
C1518 C 0.02664 0.75848 0.73779 0.0
C1519 C 0.04692 0.76126 0.74908 0.0
C1520 C 0.05645 0.74419 0.76238 0.0
C1521 C 0.04573 0.72428 0.76437 0.0
H1522 H 0.05525 0.77666 0.74756 0.0
H1523 H 0.95406 0.58336 0.77919 0.0
H1524 H 0.28875 0.08544 0.70928 0.0
H1525 H 0.28517 0.04745 0.72206 0.0
H1526 H 0.35393 0.04452 0.73655 0.0
H1527 H 0.35766 0.08245 0.72411 0.0
H1528 H 0.33793 0.01251 0.70238 0.0
H1529 H 0.32152 0.04283 0.7844 0.0
H1530 H 0.30129 0.06607 0.81405 0.0
H1531 H 0.24212 0.03316 0.79506 0.0
H1532 H 0.26196 0.0099 0.76502 0.0
H1533 H 0.35448 0.9124 0.76235 0.0
H1534 H 0.35216 0.94938 0.74683 0.0
H1535 H 0.2823 0.94673 0.75159 0.0
H1536 H 0.28458 0.90981 0.76825 0.0
H1537 H 0.29539 0.98159 0.77316 0.0
H1538 H 0.31052 0.94974 0.69355 0.0
H1539 H 0.32924 0.92654 0.66255 0.0
H1540 H 0.38832 0.96206 0.67413 0.0
H1541 H 0.37004 0.9853 0.70546 0.0
C1542 C 0.30303 0.07685 0.71572 0.0
C1543 C 0.32351 0.08691 0.7155 0.0
C1544 C 0.30095 0.05516 0.72298 0.0
C1545 C 0.31933 0.04321 0.73 0.0
C1546 C 0.33959 0.0535 0.73103 0.0
C1547 C 0.34165 0.07522 0.72406 0.0
C1548 C 0.31779 0.01961 0.7345 0.0
C1549 C 0.32883 0.00568 0.718 0.0
C1550 C 0.30511 0.01082 0.75419 0.0
C1551 C 0.29319 0.0248 0.77225 0.0
C1552 C 0.30416 0.04069 0.78636 0.0
C1553 C 0.29277 0.05383 0.80329 0.0
C1554 C 0.27042 0.05114 0.80638 0.0
C1555 C 0.25942 0.03525 0.79261 0.0
C1556 C 0.27074 0.02208 0.77565 0.0
C1557 C 0.33857 0.91945 0.75958 0.0
C1558 C 0.3197 0.9082 0.76668 0.0
C1559 C 0.33725 0.94066 0.75057 0.0
C1560 C 0.31703 0.95088 0.74787 0.0
C1561 C 0.29809 0.93922 0.75361 0.0
C1562 C 0.29941 0.91808 0.76299 0.0
C1563 C 0.31593 0.97427 0.74129 0.0
C1564 C 0.30433 0.98825 0.75733 0.0
C1565 C 0.32784 0.9831 0.7209 0.0
C1566 C 0.33892 0.96918 0.70201 0.0
C1567 C 0.32755 0.95251 0.68963 0.0
C1568 C 0.33807 0.93937 0.67197 0.0
C1569 C 0.35996 0.9428 0.66641 0.0
C1570 C 0.37136 0.95942 0.67846 0.0
C1571 C 0.36091 0.97261 0.69614 0.0
H1572 H 0.36808 0.9326 0.65273 0.0
H1573 H 0.26164 0.06133 0.8195 0.0
H1574 H 0.0723 0.30083 0.81337 0.0
H1575 H 0.03783 0.2983 0.79114 0.0
H1576 H 0.06164 0.34215 0.73409 0.0
H1577 H 0.09615 0.34518 0.75662 0.0
H1578 H 0.02341 0.35477 0.74975 0.0
H1579 H 0.05329 0.28799 0.72139 0.0
H1580 H 0.07105 0.25232 0.72492 0.0
H1581 H 0.01806 0.22884 0.76985 0.0
H1582 H 0.0001 0.26448 0.76689 0.0
H1583 H 0.93246 0.30559 0.66767 0.0
H1584 H 0.96817 0.3022 0.68687 0.0
H1585 H 0.94684 0.34067 0.75017 0.0
H1586 H 0.91109 0.34473 0.73064 0.0
H1587 H 0.98496 0.28656 0.72823 0.0
H1588 H 0.9875 0.37364 0.76881 0.0
H1589 H 0.9712 0.40947 0.76054 0.0
H1590 H 0.96263 0.39265 0.68258 0.0
H1591 H 0.97914 0.35685 0.69032 0.0
C1592 C 0.07036 0.30972 0.7959 0.0
C1593 C 0.08694 0.32331 0.78683 0.0
C1594 C 0.05064 0.30817 0.78315 0.0
C1595 C 0.04717 0.31996 0.76089 0.0
C1596 C 0.06396 0.33295 0.75128 0.0
C1597 C 0.0837 0.33459 0.76411 0.0
C1598 C 0.02551 0.3199 0.74874 0.0
C1599 C 0.01505 0.33984 0.74497 0.0
C1600 C 0.01469 0.30045 0.74221 0.0
C1601 C 0.02544 0.27899 0.7441 0.0
C1602 C 0.0455 0.27528 0.7322 0.0
C1603 C 0.05559 0.25506 0.73407 0.0
C1604 C 0.04572 0.23834 0.74765 0.0
C1605 C 0.0257 0.24181 0.75936 0.0
C1606 C 0.01555 0.26202 0.75757 0.0
C1607 C 0.93523 0.31316 0.68582 0.0
C1608 C 0.91902 0.32569 0.69748 0.0
C1609 C 0.95568 0.31113 0.69681 0.0
C1610 C 0.96031 0.32151 0.71971 0.0
C1611 C 0.94374 0.33291 0.7322 0.0
C1612 C 0.9233 0.33512 0.7211 0.0
C1613 C 0.98278 0.32139 0.72965 0.0
C1614 C 0.99336 0.30145 0.73303 0.0
C1615 C 0.99398 0.34087 0.73517 0.0
C1616 C 0.98436 0.36249 0.73022 0.0
C1617 C 0.98222 0.37763 0.74989 0.0
C1618 C 0.97293 0.39793 0.7453 0.0
C1619 C 0.96582 0.40331 0.72107 0.0
C1620 C 0.96807 0.38844 0.70136 0.0
C1621 C 0.97738 0.36814 0.70584 0.0
H1622 H 0.9586 0.41901 0.71757 0.0
H1623 H 0.05355 0.22269 0.74906 0.0
H1624 H 0.35405 0.09228 0.26234 0.0
H1625 H 0.35589 0.05811 0.23873 0.0
H1626 H 0.33349 0.02329 0.30422 0.0
H1627 H 0.33095 0.05742 0.32776 0.0
H1628 H 0.37538 0.00774 0.27164 0.0
H1629 H 0.29767 0.02571 0.27129 0.0
H1630 H 0.26738 0.05098 0.26367 0.0
H1631 H 0.28739 0.05823 0.18654 0.0
H1632 H 0.31802 0.03323 0.19385 0.0
H1633 H 0.35284 0.90379 0.22172 0.0
H1634 H 0.35349 0.93781 0.24532 0.0
H1635 H 0.33928 0.9731 0.17694 0.0
H1636 H 0.33722 0.93893 0.15371 0.0
H1637 H 0.3169 0.98967 0.21088 0.0
H1638 H 0.39201 0.97134 0.20732 0.0
H1639 H 0.42457 0.9485 0.21215 0.0
H1640 H 0.41352 0.94467 0.29199 0.0
H1641 H 0.38072 0.96725 0.2876 0.0
C1642 C 0.3496 0.07733 0.27174 0.0
C1643 C 0.34227 0.07751 0.29686 0.0
C1644 C 0.35066 0.05788 0.25824 0.0
C1645 C 0.34483 0.0383 0.26982 0.0
C1646 C 0.33806 0.03831 0.29505 0.0
C1647 C 0.33653 0.05779 0.30839 0.0
C1648 C 0.34514 0.01788 0.2553 0.0
C1649 C 0.36253 0.00355 0.25853 0.0
C1650 C 0.32875 0.01299 0.23763 0.0
C1651 C 0.31026 0.02784 0.2332 0.0
C1652 C 0.29574 0.03287 0.25279 0.0
C1653 C 0.27848 0.0471 0.24851 0.0
C1654 C 0.2755 0.05626 0.22466 0.0
C1655 C 0.28974 0.05115 0.20502 0.0
C1656 C 0.30704 0.03695 0.20921 0.0
C1657 C 0.34995 0.91884 0.21176 0.0
C1658 C 0.345 0.91876 0.18591 0.0
C1659 C 0.35048 0.93833 0.22521 0.0
C1660 C 0.34685 0.9582 0.2129 0.0
C1661 C 0.34211 0.95806 0.18696 0.0
C1662 C 0.34098 0.93854 0.17366 0.0
C1663 C 0.34721 0.97903 0.22714 0.0
C1664 C 0.32991 0.99361 0.22387 0.0
C1665 C 0.36402 0.98436 0.24435 0.0
C1666 C 0.38378 0.97082 0.24709 0.0
C1667 C 0.39643 0.9655 0.22589 0.0
C1668 C 0.41495 0.95262 0.22855 0.0
C1669 C 0.42108 0.94509 0.25236 0.0
C1670 C 0.40874 0.95049 0.27356 0.0
C1671 C 0.39019 0.96334 0.271 0.0
H1672 H 0.43542 0.93512 0.25438 0.0
H1673 H 0.26213 0.06727 0.22138 0.0
H1674 H 0.934 0.32721 0.33062 0.0
H1675 H 0.96895 0.32866 0.30858 0.0
H1676 H 0.93659 0.34895 0.24053 0.0
H1677 H 0.9016 0.3482 0.2626 0.0
H1678 H 0.97061 0.3089 0.24185 0.0
H1679 H 0.95809 0.38588 0.25955 0.0
H1680 H 0.9497 0.41613 0.28839 0.0
H1681 H 0.00483 0.39972 0.33402 0.0
H1682 H 0.01334 0.36915 0.30564 0.0
H1683 H 0.06001 0.33137 0.16374 0.0
H1684 H 0.02496 0.33216 0.18518 0.0
H1685 H 0.05698 0.348 0.25525 0.0
H1686 H 0.09195 0.34859 0.23338 0.0
H1687 H 0.02252 0.36953 0.25395 0.0
H1688 H 0.03715 0.2947 0.2393 0.0
H1689 H 0.04656 0.26197 0.21492 0.0
H1690 H 0.98962 0.27024 0.16931 0.0
H1691 H 0.98001 0.3032 0.19321 0.0
C1692 C 0.93432 0.33198 0.31096 0.0
C1693 C 0.91508 0.33761 0.29832 0.0
C1694 C 0.95427 0.33284 0.29846 0.0
C1695 C 0.95523 0.33894 0.27303 0.0
C1696 C 0.93607 0.34425 0.26021 0.0
C1697 C 0.91617 0.34387 0.27284 0.0
C1698 C 0.97629 0.33963 0.2598 0.0
C1699 C 0.98191 0.32225 0.24412 0.0
C1700 C 0.99121 0.35664 0.26373 0.0
C1701 C 0.98618 0.37509 0.28066 0.0
C1702 C 0.96828 0.38858 0.27589 0.0
C1703 C 0.96354 0.40582 0.29211 0.0
C1704 C 0.97668 0.4098 0.31307 0.0
C1705 C 0.99464 0.3966 0.3178 0.0
C1706 C 0.99943 0.37933 0.30165 0.0
C1707 C 0.05952 0.33508 0.18371 0.0
C1708 C 0.07867 0.3398 0.19695 0.0
C1709 C 0.0395 0.33537 0.19602 0.0
C1710 C 0.03827 0.33959 0.22204 0.0
C1711 C 0.05742 0.34464 0.2352 0.0
C1712 C 0.07741 0.34494 0.22272 0.0
C1713 C 0.01706 0.3388 0.23548 0.0
C1714 C 0.01135 0.35611 0.25142 0.0
C1715 C 0.00227 0.32137 0.23229 0.0
C1716 C 0.00798 0.30153 0.21789 0.0
C1717 C 0.02672 0.28962 0.22395 0.0
C1718 C 0.03208 0.27102 0.21024 0.0
C1719 C 0.01873 0.26406 0.19053 0.0
C1720 C 0.99996 0.27567 0.18455 0.0
C1721 C 0.99454 0.2943 0.19819 0.0
H1722 H 0.02291 0.24965 0.17994 0.0
H1723 H 0.97299 0.42315 0.32561 0.0
H1724 H 0.69726 0.9259 0.29899 0.0
H1725 H 0.69459 0.95927 0.27456 0.0
H1726 H 0.62495 0.95224 0.27161 0.0
H1727 H 0.6277 0.91811 0.29505 0.0
H1728 H 0.63791 0.96656 0.22881 0.0
H1729 H 0.65131 0.98847 0.31338 0.0
H1730 H 0.6697 0.98923 0.35467 0.0
H1731 H 0.72833 0.01138 0.31929 0.0
H1732 H 0.71038 0.01048 0.27773 0.0
H1733 H 0.62455 0.0806 0.19858 0.0
H1734 H 0.62367 0.04624 0.22188 0.0
H1735 H 0.69152 0.03639 0.20588 0.0
H1736 H 0.69248 0.07037 0.1821 0.0
H1737 H 0.67683 0.03187 0.2595 0.0
H1738 H 0.66109 0.00816 0.17397 0.0
H1739 H 0.64021 0.0088 0.13432 0.0
H1740 H 0.58221 0.99206 0.17476 0.0
H1741 H 0.60271 0.99164 0.21474 0.0
C1742 C 0.68138 0.93143 0.29307 0.0
C1743 C 0.66266 0.91952 0.29911 0.0
C1744 C 0.67985 0.95059 0.27923 0.0
C1745 C 0.65951 0.95864 0.2718 0.0
C1746 C 0.64082 0.94645 0.27725 0.0
C1747 C 0.64239 0.92698 0.29066 0.0
C1748 C 0.65789 0.97978 0.25847 0.0
C1749 C 0.64616 0.98089 0.23579 0.0
C1750 C 0.66868 0.99858 0.26742 0.0
C1751 C 0.67954 0.99923 0.29241 0.0
C1752 C 0.66817 0.99337 0.31438 0.0
C1753 C 0.67851 0.99384 0.33784 0.0
C1754 C 0.70018 0.00031 0.33959 0.0
C1755 C 0.71154 0.00636 0.3179 0.0
C1756 C 0.70129 0.00589 0.29439 0.0
C1757 C 0.63927 0.07109 0.2 0.0
C1758 C 0.65858 0.07815 0.18849 0.0
C1759 C 0.63871 0.05149 0.21323 0.0
C1760 C 0.65752 0.03887 0.21549 0.0
C1761 C 0.67685 0.04596 0.20427 0.0
C1762 C 0.67733 0.06531 0.19064 0.0
C1763 C 0.65723 0.01836 0.22987 0.0
C1764 C 0.66853 0.01748 0.25275 0.0
C1765 C 0.64566 -2e-05 0.2214 0.0
C1766 C 0.63338 0.00013 0.19737 0.0
C1767 C 0.64384 0.00483 0.17444 0.0
C1768 C 0.63209 0.0051 0.1519 0.0
C1769 C 0.60988 0.00054 0.15203 0.0
C1770 C 0.5994 0.99563 0.1747 0.0
C1771 C 0.61108 0.99536 0.1973 0.0
H1772 H 0.60081 0.00075 0.13456 0.0
H1773 H 0.70816 0.00066 0.35777 0.0
H1774 H 0.06232 0.67192 0.3258 0.0
H1775 H 0.02732 0.6689 0.3042 0.0
H1776 H 0.05959 0.64522 0.23753 0.0
H1777 H 0.09469 0.64758 0.25923 0.0
H1778 H 0.02621 0.6848 0.23542 0.0
H1779 H 0.03722 0.60949 0.26048 0.0
H1780 H 0.04521 0.58113 0.29189 0.0
H1781 H 0.99034 0.60124 0.33599 0.0
H1782 H 0.98223 0.62996 0.305 0.0
H1783 H 0.93429 0.66074 0.16211 0.0
H1784 H 0.96981 0.65994 0.18242 0.0
H1785 H 0.93901 0.64958 0.25461 0.0
H1786 H 0.90351 0.64886 0.23393 0.0
H1787 H 0.97265 0.62694 0.25419 0.0
H1788 H 0.96034 0.70117 0.23323 0.0
H1789 H 0.95159 0.73248 0.20617 0.0
H1790 H 0.00711 0.7189 0.15987 0.0
H1791 H 0.01604 0.68733 0.18647 0.0
C1792 C 0.06197 0.66602 0.30656 0.0
C1793 C 0.08123 0.66 0.29417 0.0
C1794 C 0.04199 0.66426 0.29431 0.0
C1795 C 0.04099 0.65682 0.26937 0.0
C1796 C 0.06014 0.65096 0.25683 0.0
C1797 C 0.0801 0.65225 0.26926 0.0
C1798 C 0.01989 0.65562 0.25629 0.0
C1799 C 0.01456 0.672 0.23912 0.0
C1800 C 0.00452 0.6394 0.26209 0.0
C1801 C 0.00927 0.62202 0.28057 0.0
C1802 C 0.02699 0.608 0.277 0.0
C1803 C 0.03151 0.59183 0.2947 0.0
C1804 C 0.01833 0.58942 0.31596 0.0
C1805 C 0.00056 0.60314 0.31953 0.0
C1806 C 0.99598 0.61936 0.30189 0.0
C1807 C 0.93515 0.65825 0.18231 0.0
C1808 C 0.9162 0.65502 0.19651 0.0
C1809 C 0.95545 0.65795 0.19396 0.0
C1810 C 0.95718 0.65528 0.22022 0.0
C1811 C 0.93819 0.65173 0.23436 0.0
C1812 C 0.9179 0.65138 0.22257 0.0
C1813 C 0.97873 0.65615 0.23289 0.0
C1814 C 0.98419 0.63976 0.25019 0.0
C1815 C 0.99403 0.67277 0.22773 0.0
C1816 C 0.98873 0.69176 0.2117 0.0
C1817 C 0.9706 0.70477 0.21718 0.0
C1818 C 0.96562 0.72258 0.20194 0.0
C1819 C 0.97875 0.72764 0.18128 0.0
C1820 C 0.99693 0.71494 0.17585 0.0
C1821 C 0.00197 0.6971 0.19102 0.0
H1822 H 0.97487 0.74143 0.1695 0.0
H1823 H 0.02186 0.57689 0.32965 0.0
loop_
_geom_bond_atom_site_label_1
_geom_bond_atom_site_label_2
_geom_bond_distance
_geom_bond_site_symmetry_2
_ccdc_geom_bond_type
Mg0 O1 2.028 . S
Mg0 O7 1.986 . S
Mg0 O9 2.114 . S
Mg0 O10 2.251 . S
Mg0 O13 2.010 . S
O1 Mg0 2.028 . S
O1 C4 1.250 . S
O2 Mg3 2.028 . S
O2 C4 1.248 . S
Mg3 O2 2.028 . S
Mg3 O8 2.032 . S
Mg3 O10 2.079 . S
C4 O1 1.250 . S
C4 O2 1.248 . S
C5 O6 1.264 . S
C5 O13 1.249 . S
O6 C5 1.264 . S
O7 Mg0 1.986 . S
O7 C11 1.246 . S
O8 Mg3 2.032 . S
O8 C11 1.259 . S
O9 Mg0 2.114 . S
O9 C12 1.252 . S
O10 Mg0 2.251 . S
O10 Mg3 2.079 . S
O10 C12 1.273 . S
C11 O7 1.246 . S
C11 O8 1.259 . S
C12 O9 1.252 . S
C12 O10 1.273 . S
O13 Mg0 2.010 . S
O13 C5 1.249 . S
Mg14 O15 2.028 . S
Mg14 O21 1.986 . S
Mg14 O23 2.114 . S
Mg14 O24 2.251 . S
Mg14 O27 2.010 . S
O15 Mg14 2.028 . S
O15 C18 1.250 . S
O16 Mg17 2.028 . S
O16 C18 1.248 . S
Mg17 O16 2.028 . S
Mg17 O22 2.032 . S
Mg17 O24 2.079 . S
C18 O15 1.250 . S
C18 O16 1.248 . S
C19 O20 1.264 . S
C19 O27 1.249 . S
O20 C19 1.264 . S
O21 Mg14 1.986 . S
O21 C25 1.246 . S
O22 Mg17 2.032 . S
O22 C25 1.259 . S
O23 Mg14 2.114 . S
O23 C26 1.252 . S
O24 Mg14 2.251 . S
O24 Mg17 2.079 . S
O24 C26 1.273 . S
C25 O21 1.246 . S
C25 O22 1.259 . S
C26 O23 1.252 . S
C26 O24 1.273 . S
O27 Mg14 2.010 . S
O27 C19 1.249 . S
Mg28 O29 2.028 . S
Mg28 O35 1.986 . S
Mg28 O37 2.114 . S
Mg28 O38 2.251 . S
Mg28 O41 2.010 . S
O29 Mg28 2.028 . S
O29 C32 1.250 . S
O30 Mg31 2.028 . S
O30 C32 1.248 . S
Mg31 O30 2.028 . S
Mg31 O36 2.032 . S
Mg31 O38 2.079 . S
C32 O29 1.250 . S
C32 O30 1.248 . S
C33 O34 1.264 . S
C33 O41 1.249 . S
O34 C33 1.264 . S
O35 Mg28 1.986 . S
O35 C39 1.246 . S
O36 Mg31 2.032 . S
O36 C39 1.259 . S
O37 Mg28 2.114 . S
O37 C40 1.252 . S
O38 Mg28 2.251 . S
O38 Mg31 2.079 . S
O38 C40 1.273 . S
C39 O35 1.246 . S
C39 O36 1.259 . S
C40 O37 1.252 . S
C40 O38 1.273 . S
O41 Mg28 2.010 . S
O41 C33 1.249 . S
Mg42 O43 2.028 . S
Mg42 O49 1.986 . S
Mg42 O51 2.114 . S
Mg42 O52 2.251 . S
Mg42 O55 2.010 . S
O43 Mg42 2.028 . S
O43 C46 1.250 . S
O44 Mg45 2.028 . S
O44 C46 1.248 . S
Mg45 O44 2.028 . S
Mg45 O50 2.032 . S
Mg45 O52 2.079 . S
C46 O43 1.250 . S
C46 O44 1.248 . S
C47 O48 1.264 . S
C47 O55 1.249 . S
O48 C47 1.264 . S
O49 Mg42 1.986 . S
O49 C53 1.246 . S
O50 Mg45 2.032 . S
O50 C53 1.259 . S
O51 Mg42 2.114 . S
O51 C54 1.252 . S
O52 Mg42 2.251 . S
O52 Mg45 2.079 . S
O52 C54 1.273 . S
C53 O49 1.246 . S
C53 O50 1.259 . S
C54 O51 1.252 . S
C54 O52 1.273 . S
O55 Mg42 2.010 . S
O55 C47 1.249 . S
Mg56 O57 2.028 . S
Mg56 O63 1.986 . S
Mg56 O65 2.114 . S
Mg56 O66 2.251 . S
Mg56 O69 2.010 . S
O57 Mg56 2.028 . S
O57 C60 1.250 . S
O58 Mg59 2.028 . S
O58 C60 1.248 . S
Mg59 O58 2.028 . S
Mg59 O64 2.032 . S
Mg59 O66 2.079 . S
C60 O57 1.250 . S
C60 O58 1.248 . S
C61 O62 1.264 . S
C61 O69 1.249 . S
O62 C61 1.264 . S
O63 Mg56 1.986 . S
O63 C67 1.246 . S
O64 Mg59 2.032 . S
O64 C67 1.259 . S
O65 Mg56 2.114 . S
O65 C68 1.252 . S
O66 Mg56 2.251 . S
O66 Mg59 2.079 . S
O66 C68 1.273 . S
C67 O63 1.246 . S
C67 O64 1.259 . S
C68 O65 1.252 . S
C68 O66 1.273 . S
O69 Mg56 2.010 . S
O69 C61 1.249 . S
Mg70 O71 2.028 . S
Mg70 O77 1.986 . S
Mg70 O79 2.114 . S
Mg70 O80 2.251 . S
Mg70 O83 2.010 . S
O71 Mg70 2.028 . S
O71 C74 1.250 . S
O72 Mg73 2.028 . S
O72 C74 1.248 . S
Mg73 O72 2.028 . S
Mg73 O78 2.032 . S
Mg73 O80 2.079 . S
C74 O71 1.250 . S
C74 O72 1.248 . S
C75 O76 1.264 . S
C75 O83 1.249 . S
O76 C75 1.264 . S
O77 Mg70 1.986 . S
O77 C81 1.246 . S
O78 Mg73 2.032 . S
O78 C81 1.259 . S
O79 Mg70 2.114 . S
O79 C82 1.252 . S
O80 Mg70 2.251 . S
O80 Mg73 2.079 . S
O80 C82 1.273 . S
C81 O77 1.246 . S
C81 O78 1.259 . S
C82 O79 1.252 . S
C82 O80 1.273 . S
O83 Mg70 2.010 . S
O83 C75 1.249 . S
Mg84 O85 2.028 . S
Mg84 O91 1.986 . S
Mg84 O93 2.114 . S
Mg84 O94 2.251 . S
Mg84 O97 2.010 . S
O85 Mg84 2.028 . S
O85 C88 1.250 . S
O86 Mg87 2.028 . S
O86 C88 1.248 . S
Mg87 O86 2.028 . S
Mg87 O92 2.032 . S
Mg87 O94 2.079 . S
C88 O85 1.250 . S
C88 O86 1.248 . S
C89 O90 1.264 . S
C89 O97 1.249 . S
O90 C89 1.264 . S
O91 Mg84 1.986 . S
O91 C95 1.246 . S
O92 Mg87 2.032 . S
O92 C95 1.259 . S
O93 Mg84 2.114 . S
O93 C96 1.252 . S
O94 Mg84 2.251 . S
O94 Mg87 2.079 . S
O94 C96 1.273 . S
C95 O91 1.246 . S
C95 O92 1.259 . S
C96 O93 1.252 . S
C96 O94 1.273 . S
O97 Mg84 2.010 . S
O97 C89 1.249 . S
Mg98 O99 2.028 . S
Mg98 O105 1.986 . S
Mg98 O107 2.114 . S
Mg98 O108 2.251 . S
Mg98 O111 2.010 . S
O99 Mg98 2.028 . S
O99 C102 1.250 . S
O100 Mg101 2.028 . S
O100 C102 1.248 . S
Mg101 O100 2.028 . S
Mg101 O106 2.032 . S
Mg101 O108 2.079 . S
C102 O99 1.250 . S
C102 O100 1.248 . S
C103 O104 1.264 . S
C103 O111 1.249 . S
O104 C103 1.264 . S
O105 Mg98 1.986 . S
O105 C109 1.246 . S
O106 Mg101 2.032 . S
O106 C109 1.259 . S
O107 Mg98 2.114 . S
O107 C110 1.252 . S
O108 Mg98 2.251 . S
O108 Mg101 2.079 . S
O108 C110 1.273 . S
C109 O105 1.246 . S
C109 O106 1.259 . S
C110 O107 1.252 . S
C110 O108 1.273 . S
O111 Mg98 2.010 . S
O111 C103 1.249 . S
Mg112 O113 2.028 . S
Mg112 O119 1.986 . S
Mg112 O121 2.114 . S
Mg112 O122 2.251 . S
Mg112 O125 2.010 . S
O113 Mg112 2.028 . S
O113 C116 1.250 . S
O114 Mg115 2.028 . S
O114 C116 1.248 . S
Mg115 O114 2.028 . S
Mg115 O120 2.032 . S
Mg115 O122 2.079 . S
C116 O113 1.250 . S
C116 O114 1.248 . S
C117 O118 1.264 . S
C117 O125 1.249 . S
O118 C117 1.264 . S
O119 Mg112 1.986 . S
O119 C123 1.246 . S
O120 Mg115 2.032 . S
O120 C123 1.259 . S
O121 Mg112 2.114 . S
O121 C124 1.252 . S
O122 Mg112 2.251 . S
O122 Mg115 2.079 . S
O122 C124 1.273 . S
C123 O119 1.246 . S
C123 O120 1.259 . S
C124 O121 1.252 . S
C124 O122 1.273 . S
O125 Mg112 2.010 . S
O125 C117 1.249 . S
Mg126 O127 2.028 . S
Mg126 O133 1.986 . S
Mg126 O135 2.114 . S
Mg126 O136 2.251 . S
Mg126 O139 2.010 . S
O127 Mg126 2.028 . S
O127 C130 1.250 . S
O128 Mg129 2.028 . S
O128 C130 1.248 . S
Mg129 O128 2.028 . S
Mg129 O134 2.032 . S
Mg129 O136 2.079 . S
C130 O127 1.250 . S
C130 O128 1.248 . S
C131 O132 1.264 . S
C131 O139 1.249 . S
O132 C131 1.264 . S
O133 Mg126 1.986 . S
O133 C137 1.246 . S
O134 Mg129 2.032 . S
O134 C137 1.259 . S
O135 Mg126 2.114 . S
O135 C138 1.252 . S
O136 Mg126 2.251 . S
O136 Mg129 2.079 . S
O136 C138 1.273 . S
C137 O133 1.246 . S
C137 O134 1.259 . S
C138 O135 1.252 . S
C138 O136 1.273 . S
O139 Mg126 2.010 . S
O139 C131 1.249 . S
Mg140 O141 2.028 . S
Mg140 O147 1.986 . S
Mg140 O149 2.114 . S
Mg140 O150 2.251 . S
Mg140 O153 2.010 . S
O141 Mg140 2.028 . S
O141 C144 1.250 . S
O142 Mg143 2.028 . S
O142 C144 1.248 . S
Mg143 O142 2.028 . S
Mg143 O148 2.032 . S
Mg143 O150 2.079 . S
C144 O141 1.250 . S
C144 O142 1.248 . S
C145 O146 1.264 . S
C145 O153 1.249 . S
O146 C145 1.264 . S
O147 Mg140 1.986 . S
O147 C151 1.246 . S
O148 Mg143 2.032 . S
O148 C151 1.259 . S
O149 Mg140 2.114 . S
O149 C152 1.252 . S
O150 Mg140 2.251 . S
O150 Mg143 2.079 . S
O150 C152 1.273 . S
C151 O147 1.246 . S
C151 O148 1.259 . S
C152 O149 1.252 . S
C152 O150 1.273 . S
O153 Mg140 2.010 . S
O153 C145 1.249 . S
Mg154 O155 2.028 . S
Mg154 O161 1.986 . S
Mg154 O163 2.114 . S
Mg154 O164 2.251 . S
Mg154 O167 2.010 . S
O155 Mg154 2.028 . S
O155 C158 1.250 . S
O156 Mg157 2.028 . S
O156 C158 1.248 . S
Mg157 O156 2.028 . S
Mg157 O162 2.032 . S
Mg157 O164 2.079 . S
C158 O155 1.250 . S
C158 O156 1.248 . S
C159 O160 1.264 . S
C159 O167 1.249 . S
O160 C159 1.264 . S
O161 Mg154 1.986 . S
O161 C165 1.246 . S
O162 Mg157 2.032 . S
O162 C165 1.259 . S
O163 Mg154 2.114 . S
O163 C166 1.252 . S
O164 Mg154 2.251 . S
O164 Mg157 2.079 . S
O164 C166 1.273 . S
C165 O161 1.246 . S
C165 O162 1.259 . S
C166 O163 1.252 . S
C166 O164 1.273 . S
O167 Mg154 2.010 . S
O167 C159 1.249 . S
Mg168 O169 2.028 . S
Mg168 O175 1.986 . S
Mg168 O177 2.114 . S
Mg168 O178 2.251 . S
Mg168 O181 2.010 . S
O169 Mg168 2.028 . S
O169 C172 1.250 . S
O170 Mg171 2.028 . S
O170 C172 1.248 . S
Mg171 O170 2.028 . S
Mg171 O176 2.032 . S
Mg171 O178 2.079 . S
C172 O169 1.250 . S
C172 O170 1.248 . S
C173 O174 1.264 . S
C173 O181 1.249 . S
O174 C173 1.264 . S
O175 Mg168 1.986 . S
O175 C179 1.246 . S
O176 Mg171 2.032 . S
O176 C179 1.259 . S
O177 Mg168 2.114 . S
O177 C180 1.252 . S
O178 Mg168 2.251 . S
O178 Mg171 2.079 . S
O178 C180 1.273 . S
C179 O175 1.246 . S
C179 O176 1.259 . S
C180 O177 1.252 . S
C180 O178 1.273 . S
O181 Mg168 2.010 . S
O181 C173 1.249 . S
Mg182 O183 2.028 . S
Mg182 O189 1.986 . S
Mg182 O191 2.114 . S
Mg182 O192 2.251 . S
Mg182 O195 2.010 . S
O183 Mg182 2.028 . S
O183 C186 1.250 . S
O184 Mg185 2.028 . S
O184 C186 1.248 . S
Mg185 O184 2.028 . S
Mg185 O190 2.032 . S
Mg185 O192 2.079 . S
C186 O183 1.250 . S
C186 O184 1.248 . S
C187 O188 1.264 . S
C187 O195 1.249 . S
O188 C187 1.264 . S
O189 Mg182 1.986 . S
O189 C193 1.246 . S
O190 Mg185 2.032 . S
O190 C193 1.259 . S
O191 Mg182 2.114 . S
O191 C194 1.252 . S
O192 Mg182 2.251 . S
O192 Mg185 2.079 . S
O192 C194 1.273 . S
C193 O189 1.246 . S
C193 O190 1.259 . S
C194 O191 1.252 . S
C194 O192 1.273 . S
O195 Mg182 2.010 . S
O195 C187 1.249 . S
Mg196 O197 2.028 . S
Mg196 O203 1.986 . S
Mg196 O205 2.114 . S
Mg196 O206 2.251 . S
Mg196 O209 2.010 . S
O197 Mg196 2.028 . S
O197 C200 1.250 . S
O198 Mg199 2.028 . S
O198 C200 1.248 . S
Mg199 O198 2.028 . S
Mg199 O204 2.032 . S
Mg199 O206 2.079 . S
C200 O197 1.250 . S
C200 O198 1.248 . S
C201 O202 1.264 . S
C201 O209 1.249 . S
O202 C201 1.264 . S
O203 Mg196 1.986 . S
O203 C207 1.246 . S
O204 Mg199 2.032 . S
O204 C207 1.259 . S
O205 Mg196 2.114 . S
O205 C208 1.252 . S
O206 Mg196 2.251 . S
O206 Mg199 2.079 . S
O206 C208 1.273 . S
C207 O203 1.246 . S
C207 O204 1.259 . S
C208 O205 1.252 . S
C208 O206 1.273 . S
O209 Mg196 2.010 . S
O209 C201 1.249 . S
Mg210 O211 2.028 . S
Mg210 O217 1.986 . S
Mg210 O219 2.114 . S
Mg210 O220 2.251 . S
Mg210 O223 2.010 . S
O211 Mg210 2.028 . S
O211 C214 1.250 . S
O212 Mg213 2.028 . S
O212 C214 1.248 . S
Mg213 O212 2.028 . S
Mg213 O218 2.032 . S
Mg213 O220 2.079 . S
C214 O211 1.250 . S
C214 O212 1.248 . S
C215 O216 1.264 . S
C215 O223 1.249 . S
O216 C215 1.264 . S
O217 Mg210 1.986 . S
O217 C221 1.246 . S
O218 Mg213 2.032 . S
O218 C221 1.259 . S
O219 Mg210 2.114 . S
O219 C222 1.252 . S
O220 Mg210 2.251 . S
O220 Mg213 2.079 . S
O220 C222 1.273 . S
C221 O217 1.246 . S
C221 O218 1.259 . S
C222 O219 1.252 . S
C222 O220 1.273 . S
O223 Mg210 2.010 . S
O223 C215 1.249 . S
H224 C242 0.951 . S
H225 C244 0.951 . S
H226 C246 0.950 . S
H227 C247 0.950 . S
H228 C249 0.950 . S
H229 C252 0.950 . S
H230 C253 0.950 . S
H231 C255 0.950 . S
H232 C256 0.950 . S
H233 C257 0.951 . S
H234 C259 0.951 . S
H235 C261 0.950 . S
H236 C262 0.950 . S
H237 C264 0.950 . S
H238 C267 0.950 . S
H239 C268 0.950 . S
H240 C270 0.950 . S
H241 C271 0.950 . S
C242 H224 0.951 . S
C242 C243 1.366 . S
C242 C244 1.388 . S
C243 C242 1.366 . S
C243 C247 1.385 . S
C244 H225 0.951 . S
C244 C242 1.388 . S
C244 C245 1.366 . S
C245 C244 1.366 . S
C245 C246 1.414 . S
C245 C248 1.499 . S
C246 H226 0.950 . S
C246 C245 1.414 . S
C246 C247 1.374 . S
C247 H227 0.950 . S
C247 C243 1.385 . S
C247 C246 1.374 . S
C248 C245 1.499 . S
C248 C249 1.373 . S
C248 C250 1.389 . S
C249 H228 0.950 . S
C249 C248 1.373 . S
C249 C265 1.377 . S
C250 C248 1.389 . S
C250 C251 1.524 . S
C250 C264 1.377 . S
C251 C250 1.524 . S
C251 C252 1.397 . S
C251 C256 1.363 . S
C252 H229 0.950 . S
C252 C251 1.397 . S
C252 C253 1.334 . S
C253 H230 0.950 . S
C253 C252 1.334 . S
C253 C254 1.287 . S
C254 C253 1.287 . S
C254 C255 1.524 . S
C254 H273 0.913 . S
C255 H231 0.950 . S
C255 C254 1.524 . S
C255 C256 1.415 . S
C256 H232 0.950 . S
C256 C251 1.363 . S
C256 C255 1.415 . S
C257 H233 0.951 . S
C257 C258 1.366 . S
C257 C259 1.388 . S
C258 C257 1.366 . S
C258 C262 1.385 . S
C259 H234 0.951 . S
C259 C257 1.388 . S
C259 C260 1.366 . S
C260 C259 1.366 . S
C260 C261 1.414 . S
C260 C263 1.499 . S
C261 H235 0.950 . S
C261 C260 1.414 . S
C261 C262 1.374 . S
C262 H236 0.950 . S
C262 C258 1.385 . S
C262 C261 1.374 . S
C263 C260 1.499 . S
C263 C264 1.373 . S
C263 C265 1.389 . S
C264 H237 0.950 . S
C264 C250 1.377 . S
C264 C263 1.373 . S
C265 C249 1.377 . S
C265 C263 1.389 . S
C265 C266 1.524 . S
C266 C265 1.524 . S
C266 C267 1.397 . S
C266 C271 1.363 . S
C267 H238 0.950 . S
C267 C266 1.397 . S
C267 C268 1.334 . S
C268 H239 0.950 . S
C268 C267 1.334 . S
C268 C269 1.287 . S
C269 C268 1.287 . S
C269 C270 1.524 . S
C269 H272 0.999 . S
C270 H240 0.950 . S
C270 C269 1.524 . S
C270 C271 1.415 . S
C271 H241 0.950 . S
C271 C266 1.363 . S
C271 C270 1.415 . S
H272 C269 0.999 . S
H273 C254 0.913 . S
H274 C292 0.951 . S
H275 C294 0.951 . S
H276 C296 0.950 . S
H277 C297 0.950 . S
H278 C299 0.950 . S
H279 C302 0.950 . S
H280 C303 0.950 . S
H281 C305 0.950 . S
H282 C306 0.950 . S
H283 C307 0.951 . S
H284 C309 0.951 . S
H285 C311 0.950 . S
H286 C312 0.950 . S
H287 C314 0.950 . S
H288 C317 0.950 . S
H289 C318 0.950 . S
H290 C320 0.950 . S
H291 C321 0.950 . S
C292 H274 0.951 . S
C292 C293 1.366 . S
C292 C294 1.388 . S
C293 C292 1.366 . S
C293 C297 1.385 . S
C294 H275 0.951 . S
C294 C292 1.388 . S
C294 C295 1.366 . S
C295 C294 1.366 . S
C295 C296 1.414 . S
C295 C298 1.499 . S
C296 H276 0.950 . S
C296 C295 1.414 . S
C296 C297 1.374 . S
C297 H277 0.950 . S
C297 C293 1.385 . S
C297 C296 1.374 . S
C298 C295 1.499 . S
C298 C299 1.373 . S
C298 C300 1.389 . S
C299 H278 0.950 . S
C299 C298 1.373 . S
C299 C315 1.377 . S
C300 C298 1.389 . S
C300 C301 1.524 . S
C300 C314 1.377 . S
C301 C300 1.524 . S
C301 C302 1.397 . S
C301 C306 1.363 . S
C302 H279 0.950 . S
C302 C301 1.397 . S
C302 C303 1.334 . S
C303 H280 0.950 . S
C303 C302 1.334 . S
C303 C304 1.287 . S
C304 C303 1.287 . S
C304 C305 1.524 . S
C304 H323 0.913 . S
C305 H281 0.950 . S
C305 C304 1.524 . S
C305 C306 1.415 . S
C306 H282 0.950 . S
C306 C301 1.363 . S
C306 C305 1.415 . S
C307 H283 0.951 . S
C307 C308 1.366 . S
C307 C309 1.388 . S
C308 C307 1.366 . S
C308 C312 1.385 . S
C309 H284 0.951 . S
C309 C307 1.388 . S
C309 C310 1.366 . S
C310 C309 1.366 . S
C310 C311 1.414 . S
C310 C313 1.499 . S
C311 H285 0.950 . S
C311 C310 1.414 . S
C311 C312 1.374 . S
C312 H286 0.950 . S
C312 C308 1.385 . S
C312 C311 1.374 . S
C313 C310 1.499 . S
C313 C314 1.373 . S
C313 C315 1.389 . S
C314 H287 0.950 . S
C314 C300 1.377 . S
C314 C313 1.373 . S
C315 C299 1.377 . S
C315 C313 1.389 . S
C315 C316 1.524 . S
C316 C315 1.524 . S
C316 C317 1.397 . S
C316 C321 1.363 . S
C317 H288 0.950 . S
C317 C316 1.397 . S
C317 C318 1.334 . S
C318 H289 0.950 . S
C318 C317 1.334 . S
C318 C319 1.287 . S
C319 C318 1.287 . S
C319 C320 1.524 . S
C319 H322 0.999 . S
C320 H290 0.950 . S
C320 C319 1.524 . S
C320 C321 1.415 . S
C321 H291 0.950 . S
C321 C316 1.363 . S
C321 C320 1.415 . S
H322 C319 0.999 . S
H323 C304 0.913 . S
H324 C342 0.951 . S
H325 C344 0.951 . S
H326 C346 0.950 . S
H327 C347 0.950 . S
H328 C349 0.950 . S
H329 C352 0.950 . S
H330 C353 0.950 . S
H331 C355 0.950 . S
H332 C356 0.950 . S
H333 C357 0.951 . S
H334 C359 0.951 . S
H335 C361 0.950 . S
H336 C362 0.950 . S
H337 C364 0.950 . S
H338 C367 0.950 . S
H339 C368 0.950 . S
H340 C370 0.950 . S
H341 C371 0.950 . S
C342 H324 0.951 . S
C342 C343 1.366 . S
C342 C344 1.388 . S
C343 C342 1.366 . S
C343 C347 1.385 . S
C344 H325 0.951 . S
C344 C342 1.388 . S
C344 C345 1.366 . S
C345 C344 1.366 . S
C345 C346 1.414 . S
C345 C348 1.499 . S
C346 H326 0.950 . S
C346 C345 1.414 . S
C346 C347 1.374 . S
C347 H327 0.950 . S
C347 C343 1.385 . S
C347 C346 1.374 . S
C348 C345 1.499 . S
C348 C349 1.373 . S
C348 C350 1.389 . S
C349 H328 0.950 . S
C349 C348 1.373 . S
C349 C365 1.377 . S
C350 C348 1.389 . S
C350 C351 1.524 . S
C350 C364 1.377 . S
C351 C350 1.524 . S
C351 C352 1.397 . S
C351 C356 1.363 . S
C352 H329 0.950 . S
C352 C351 1.397 . S
C352 C353 1.334 . S
C353 H330 0.950 . S
C353 C352 1.334 . S
C353 C354 1.287 . S
C354 C353 1.287 . S
C354 C355 1.524 . S
C354 H373 0.913 . S
C355 H331 0.950 . S
C355 C354 1.524 . S
C355 C356 1.415 . S
C356 H332 0.950 . S
C356 C351 1.363 . S
C356 C355 1.415 . S
C357 H333 0.951 . S
C357 C358 1.366 . S
C357 C359 1.388 . S
C358 C357 1.366 . S
C358 C362 1.385 . S
C359 H334 0.951 . S
C359 C357 1.388 . S
C359 C360 1.366 . S
C360 C359 1.366 . S
C360 C361 1.414 . S
C360 C363 1.499 . S
C361 H335 0.950 . S
C361 C360 1.414 . S
C361 C362 1.374 . S
C362 H336 0.950 . S
C362 C358 1.385 . S
C362 C361 1.374 . S
C363 C360 1.499 . S
C363 C364 1.373 . S
C363 C365 1.389 . S
C364 H337 0.950 . S
C364 C350 1.377 . S
C364 C363 1.373 . S
C365 C349 1.377 . S
C365 C363 1.389 . S
C365 C366 1.524 . S
C366 C365 1.524 . S
C366 C367 1.397 . S
C366 C371 1.363 . S
C367 H338 0.950 . S
C367 C366 1.397 . S
C367 C368 1.334 . S
C368 H339 0.950 . S
C368 C367 1.334 . S
C368 C369 1.287 . S
C369 C368 1.287 . S
C369 C370 1.524 . S
C369 H372 0.999 . S
C370 H340 0.950 . S
C370 C369 1.524 . S
C370 C371 1.415 . S
C371 H341 0.950 . S
C371 C366 1.363 . S
C371 C370 1.415 . S
H372 C369 0.999 . S
H373 C354 0.913 . S
H374 C392 0.951 . S
H375 C394 0.951 . S
H376 C396 0.950 . S
H377 C397 0.950 . S
H378 C399 0.950 . S
H379 C402 0.950 . S
H380 C403 0.950 . S
H381 C405 0.950 . S
H382 C406 0.950 . S
H383 C407 0.951 . S
H384 C409 0.951 . S
H385 C411 0.950 . S
H386 C412 0.950 . S
H387 C414 0.950 . S
H388 C417 0.950 . S
H389 C418 0.950 . S
H390 C420 0.950 . S
H391 C421 0.950 . S
C392 H374 0.951 . S
C392 C393 1.366 . S
C392 C394 1.388 . S
C393 C392 1.366 . S
C393 C397 1.385 . S
C394 H375 0.951 . S
C394 C392 1.388 . S
C394 C395 1.366 . S
C395 C394 1.366 . S
C395 C396 1.414 . S
C395 C398 1.499 . S
C396 H376 0.950 . S
C396 C395 1.414 . S
C396 C397 1.374 . S
C397 H377 0.950 . S
C397 C393 1.385 . S
C397 C396 1.374 . S
C398 C395 1.499 . S
C398 C399 1.373 . S
C398 C400 1.389 . S
C399 H378 0.950 . S
C399 C398 1.373 . S
C399 C415 1.377 . S
C400 C398 1.389 . S
C400 C401 1.524 . S
C400 C414 1.377 . S
C401 C400 1.524 . S
C401 C402 1.397 . S
C401 C406 1.363 . S
C402 H379 0.950 . S
C402 C401 1.397 . S
C402 C403 1.334 . S
C403 H380 0.950 . S
C403 C402 1.334 . S
C403 C404 1.287 . S
C404 C403 1.287 . S
C404 C405 1.524 . S
C404 H423 0.913 . S
C405 H381 0.950 . S
C405 C404 1.524 . S
C405 C406 1.415 . S
C406 H382 0.950 . S
C406 C401 1.363 . S
C406 C405 1.415 . S
C407 H383 0.951 . S
C407 C408 1.366 . S
C407 C409 1.388 . S
C408 C407 1.366 . S
C408 C412 1.385 . S
C409 H384 0.951 . S
C409 C407 1.388 . S
C409 C410 1.366 . S
C410 C409 1.366 . S
C410 C411 1.414 . S
C410 C413 1.499 . S
C411 H385 0.950 . S
C411 C410 1.414 . S
C411 C412 1.374 . S
C412 H386 0.950 . S
C412 C408 1.385 . S
C412 C411 1.374 . S
C413 C410 1.499 . S
C413 C414 1.373 . S
C413 C415 1.389 . S
C414 H387 0.950 . S
C414 C400 1.377 . S
C414 C413 1.373 . S
C415 C399 1.377 . S
C415 C413 1.389 . S
C415 C416 1.524 . S
C416 C415 1.524 . S
C416 C417 1.397 . S
C416 C421 1.363 . S
C417 H388 0.950 . S
C417 C416 1.397 . S
C417 C418 1.334 . S
C418 H389 0.950 . S
C418 C417 1.334 . S
C418 C419 1.287 . S
C419 C418 1.287 . S
C419 C420 1.524 . S
C419 H422 0.999 . S
C420 H390 0.950 . S
C420 C419 1.524 . S
C420 C421 1.415 . S
C421 H391 0.950 . S
C421 C416 1.363 . S
C421 C420 1.415 . S
H422 C419 0.999 . S
H423 C404 0.913 . S
H424 C442 0.951 . S
H425 C444 0.951 . S
H426 C446 0.950 . S
H427 C447 0.950 . S
H428 C449 0.950 . S
H429 C452 0.950 . S
H430 C453 0.950 . S
H431 C455 0.950 . S
H432 C456 0.950 . S
H433 C457 0.951 . S
H434 C459 0.951 . S
H435 C461 0.950 . S
H436 C462 0.950 . S
H437 C464 0.950 . S
H438 C467 0.950 . S
H439 C468 0.950 . S
H440 C470 0.950 . S
H441 C471 0.950 . S
C442 H424 0.951 . S
C442 C443 1.366 . S
C442 C444 1.388 . S
C443 C442 1.366 . S
C443 C447 1.385 . S
C444 H425 0.951 . S
C444 C442 1.388 . S
C444 C445 1.366 . S
C445 C444 1.366 . S
C445 C446 1.414 . S
C445 C448 1.499 . S
C446 H426 0.950 . S
C446 C445 1.414 . S
C446 C447 1.374 . S
C447 H427 0.950 . S
C447 C443 1.385 . S
C447 C446 1.374 . S
C448 C445 1.499 . S
C448 C449 1.373 . S
C448 C450 1.389 . S
C449 H428 0.950 . S
C449 C448 1.373 . S
C449 C465 1.377 . S
C450 C448 1.389 . S
C450 C451 1.524 . S
C450 C464 1.377 . S
C451 C450 1.524 . S
C451 C452 1.397 . S
C451 C456 1.363 . S
C452 H429 0.950 . S
C452 C451 1.397 . S
C452 C453 1.334 . S
C453 H430 0.950 . S
C453 C452 1.334 . S
C453 C454 1.287 . S
C454 C453 1.287 . S
C454 C455 1.524 . S
C454 H473 0.913 . S
C455 H431 0.950 . S
C455 C454 1.524 . S
C455 C456 1.415 . S
C456 H432 0.950 . S
C456 C451 1.363 . S
C456 C455 1.415 . S
C457 H433 0.951 . S
C457 C458 1.366 . S
C457 C459 1.388 . S
C458 C457 1.366 . S
C458 C462 1.385 . S
C459 H434 0.951 . S
C459 C457 1.388 . S
C459 C460 1.366 . S
C460 C459 1.366 . S
C460 C461 1.414 . S
C460 C463 1.499 . S
C461 H435 0.950 . S
C461 C460 1.414 . S
C461 C462 1.374 . S
C462 H436 0.950 . S
C462 C458 1.385 . S
C462 C461 1.374 . S
C463 C460 1.499 . S
C463 C464 1.373 . S
C463 C465 1.389 . S
C464 H437 0.950 . S
C464 C450 1.377 . S
C464 C463 1.373 . S
C465 C449 1.377 . S
C465 C463 1.389 . S
C465 C466 1.524 . S
C466 C465 1.524 . S
C466 C467 1.397 . S
C466 C471 1.363 . S
C467 H438 0.950 . S
C467 C466 1.397 . S
C467 C468 1.334 . S
C468 H439 0.950 . S
C468 C467 1.334 . S
C468 C469 1.287 . S
C469 C468 1.287 . S
C469 C470 1.524 . S
C469 H472 0.999 . S
C470 H440 0.950 . S
C470 C469 1.524 . S
C470 C471 1.415 . S
C471 H441 0.950 . S
C471 C466 1.363 . S
C471 C470 1.415 . S
H472 C469 0.999 . S
H473 C454 0.913 . S
H474 C492 0.951 . S
H475 C494 0.951 . S
H476 C496 0.950 . S
H477 C497 0.950 . S
H478 C499 0.950 . S
H479 C502 0.950 . S
H480 C503 0.950 . S
H481 C505 0.950 . S
H482 C506 0.950 . S
H483 C507 0.951 . S
H484 C509 0.951 . S
H485 C511 0.950 . S
H486 C512 0.950 . S
H487 C514 0.950 . S
H488 C517 0.950 . S
H489 C518 0.950 . S
H490 C520 0.950 . S
H491 C521 0.950 . S
C492 H474 0.951 . S
C492 C493 1.366 . S
C492 C494 1.388 . S
C493 C492 1.366 . S
C493 C497 1.385 . S
C494 H475 0.951 . S
C494 C492 1.388 . S
C494 C495 1.366 . S
C495 C494 1.366 . S
C495 C496 1.414 . S
C495 C498 1.499 . S
C496 H476 0.950 . S
C496 C495 1.414 . S
C496 C497 1.374 . S
C497 H477 0.950 . S
C497 C493 1.385 . S
C497 C496 1.374 . S
C498 C495 1.499 . S
C498 C499 1.373 . S
C498 C500 1.389 . S
C499 H478 0.950 . S
C499 C498 1.373 . S
C499 C515 1.377 . S
C500 C498 1.389 . S
C500 C501 1.524 . S
C500 C514 1.377 . S
C501 C500 1.524 . S
C501 C502 1.397 . S
C501 C506 1.363 . S
C502 H479 0.950 . S
C502 C501 1.397 . S
C502 C503 1.334 . S
C503 H480 0.950 . S
C503 C502 1.334 . S
C503 C504 1.287 . S
C504 C503 1.287 . S
C504 C505 1.524 . S
C504 H523 0.913 . S
C505 H481 0.950 . S
C505 C504 1.524 . S
C505 C506 1.415 . S
C506 H482 0.950 . S
C506 C501 1.363 . S
C506 C505 1.415 . S
C507 H483 0.951 . S
C507 C508 1.366 . S
C507 C509 1.388 . S
C508 C507 1.366 . S
C508 C512 1.385 . S
C509 H484 0.951 . S
C509 C507 1.388 . S
C509 C510 1.366 . S
C510 C509 1.366 . S
C510 C511 1.414 . S
C510 C513 1.499 . S
C511 H485 0.950 . S
C511 C510 1.414 . S
C511 C512 1.374 . S
C512 H486 0.950 . S
C512 C508 1.385 . S
C512 C511 1.374 . S
C513 C510 1.499 . S
C513 C514 1.373 . S
C513 C515 1.389 . S
C514 H487 0.950 . S
C514 C500 1.377 . S
C514 C513 1.373 . S
C515 C499 1.377 . S
C515 C513 1.389 . S
C515 C516 1.524 . S
C516 C515 1.524 . S
C516 C517 1.397 . S
C516 C521 1.363 . S
C517 H488 0.950 . S
C517 C516 1.397 . S
C517 C518 1.334 . S
C518 H489 0.950 . S
C518 C517 1.334 . S
C518 C519 1.287 . S
C519 C518 1.287 . S
C519 C520 1.524 . S
C519 H522 0.999 . S
C520 H490 0.950 . S
C520 C519 1.524 . S
C520 C521 1.415 . S
C521 H491 0.950 . S
C521 C516 1.363 . S
C521 C520 1.415 . S
H522 C519 0.999 . S
H523 C504 0.913 . S
H524 C542 0.951 . S
H525 C544 0.951 . S
H526 C546 0.950 . S
H527 C547 0.950 . S
H528 C549 0.950 . S
H529 C552 0.950 . S
H530 C553 0.950 . S
H531 C555 0.950 . S
H532 C556 0.950 . S
H533 C557 0.951 . S
H534 C559 0.951 . S
H535 C561 0.950 . S
H536 C562 0.950 . S
H537 C564 0.950 . S
H538 C567 0.950 . S
H539 C568 0.950 . S
H540 C570 0.950 . S
H541 C571 0.950 . S
C542 H524 0.951 . S
C542 C543 1.366 . S
C542 C544 1.388 . S
C543 C542 1.366 . S
C543 C547 1.385 . S
C544 H525 0.951 . S
C544 C542 1.388 . S
C544 C545 1.366 . S
C545 C544 1.366 . S
C545 C546 1.414 . S
C545 C548 1.499 . S
C546 H526 0.950 . S
C546 C545 1.414 . S
C546 C547 1.374 . S
C547 H527 0.950 . S
C547 C543 1.385 . S
C547 C546 1.374 . S
C548 C545 1.499 . S
C548 C549 1.373 . S
C548 C550 1.389 . S
C549 H528 0.950 . S
C549 C548 1.373 . S
C549 C565 1.377 . S
C550 C548 1.389 . S
C550 C551 1.524 . S
C550 C564 1.377 . S
C551 C550 1.524 . S
C551 C552 1.397 . S
C551 C556 1.363 . S
C552 H529 0.950 . S
C552 C551 1.397 . S
C552 C553 1.334 . S
C553 H530 0.950 . S
C553 C552 1.334 . S
C553 C554 1.287 . S
C554 C553 1.287 . S
C554 C555 1.524 . S
C554 H573 0.913 . S
C555 H531 0.950 . S
C555 C554 1.524 . S
C555 C556 1.415 . S
C556 H532 0.950 . S
C556 C551 1.363 . S
C556 C555 1.415 . S
C557 H533 0.951 . S
C557 C558 1.366 . S
C557 C559 1.388 . S
C558 C557 1.366 . S
C558 C562 1.385 . S
C559 H534 0.951 . S
C559 C557 1.388 . S
C559 C560 1.366 . S
C560 C559 1.366 . S
C560 C561 1.414 . S
C560 C563 1.499 . S
C561 H535 0.950 . S
C561 C560 1.414 . S
C561 C562 1.374 . S
C562 H536 0.950 . S
C562 C558 1.385 . S
C562 C561 1.374 . S
C563 C560 1.499 . S
C563 C564 1.373 . S
C563 C565 1.389 . S
C564 H537 0.950 . S
C564 C550 1.377 . S
C564 C563 1.373 . S
C565 C549 1.377 . S
C565 C563 1.389 . S
C565 C566 1.524 . S
C566 C565 1.524 . S
C566 C567 1.397 . S
C566 C571 1.363 . S
C567 H538 0.950 . S
C567 C566 1.397 . S
C567 C568 1.334 . S
C568 H539 0.950 . S
C568 C567 1.334 . S
C568 C569 1.287 . S
C569 C568 1.287 . S
C569 C570 1.524 . S
C569 H572 0.999 . S
C570 H540 0.950 . S
C570 C569 1.524 . S
C570 C571 1.415 . S
C571 H541 0.950 . S
C571 C566 1.363 . S
C571 C570 1.415 . S
H572 C569 0.999 . S
H573 C554 0.913 . S
H574 C592 0.951 . S
H575 C594 0.951 . S
H576 C596 0.950 . S
H577 C597 0.950 . S
H578 C599 0.950 . S
H579 C602 0.950 . S
H580 C603 0.950 . S
H581 C605 0.950 . S
H582 C606 0.950 . S
H583 C607 0.951 . S
H584 C609 0.951 . S
H585 C611 0.950 . S
H586 C612 0.950 . S
H587 C614 0.950 . S
H588 C617 0.950 . S
H589 C618 0.950 . S
H590 C620 0.950 . S
H591 C621 0.950 . S
C592 H574 0.951 . S
C592 C593 1.366 . S
C592 C594 1.388 . S
C593 C592 1.366 . S
C593 C597 1.385 . S
C594 H575 0.951 . S
C594 C592 1.388 . S
C594 C595 1.366 . S
C595 C594 1.366 . S
C595 C596 1.414 . S
C595 C598 1.499 . S
C596 H576 0.950 . S
C596 C595 1.414 . S
C596 C597 1.374 . S
C597 H577 0.950 . S
C597 C593 1.385 . S
C597 C596 1.374 . S
C598 C595 1.499 . S
C598 C599 1.373 . S
C598 C600 1.389 . S
C599 H578 0.950 . S
C599 C598 1.373 . S
C599 C615 1.377 . S
C600 C598 1.389 . S
C600 C601 1.524 . S
C600 C614 1.377 . S
C601 C600 1.524 . S
C601 C602 1.397 . S
C601 C606 1.363 . S
C602 H579 0.950 . S
C602 C601 1.397 . S
C602 C603 1.334 . S
C603 H580 0.950 . S
C603 C602 1.334 . S
C603 C604 1.287 . S
C604 C603 1.287 . S
C604 C605 1.524 . S
C604 H623 0.913 . S
C605 H581 0.950 . S
C605 C604 1.524 . S
C605 C606 1.415 . S
C606 H582 0.950 . S
C606 C601 1.363 . S
C606 C605 1.415 . S
C607 H583 0.951 . S
C607 C608 1.366 . S
C607 C609 1.388 . S
C608 C607 1.366 . S
C608 C612 1.385 . S
C609 H584 0.951 . S
C609 C607 1.388 . S
C609 C610 1.366 . S
C610 C609 1.366 . S
C610 C611 1.414 . S
C610 C613 1.499 . S
C611 H585 0.950 . S
C611 C610 1.414 . S
C611 C612 1.374 . S
C612 H586 0.950 . S
C612 C608 1.385 . S
C612 C611 1.374 . S
C613 C610 1.499 . S
C613 C614 1.373 . S
C613 C615 1.389 . S
C614 H587 0.950 . S
C614 C600 1.377 . S
C614 C613 1.373 . S
C615 C599 1.377 . S
C615 C613 1.389 . S
C615 C616 1.524 . S
C616 C615 1.524 . S
C616 C617 1.397 . S
C616 C621 1.363 . S
C617 H588 0.950 . S
C617 C616 1.397 . S
C617 C618 1.334 . S
C618 H589 0.950 . S
C618 C617 1.334 . S
C618 C619 1.287 . S
C619 C618 1.287 . S
C619 C620 1.524 . S
C619 H622 0.999 . S
C620 H590 0.950 . S
C620 C619 1.524 . S
C620 C621 1.415 . S
C621 H591 0.950 . S
C621 C616 1.363 . S
C621 C620 1.415 . S
H622 C619 0.999 . S
H623 C604 0.913 . S
H624 C642 0.951 . S
H625 C644 0.951 . S
H626 C646 0.950 . S
H627 C647 0.950 . S
H628 C649 0.950 . S
H629 C652 0.950 . S
H630 C653 0.950 . S
H631 C655 0.950 . S
H632 C656 0.950 . S
H633 C657 0.951 . S
H634 C659 0.951 . S
H635 C661 0.950 . S
H636 C662 0.950 . S
H637 C664 0.950 . S
H638 C667 0.950 . S
H639 C668 0.950 . S
H640 C670 0.950 . S
H641 C671 0.950 . S
C642 H624 0.951 . S
C642 C643 1.366 . S
C642 C644 1.388 . S
C643 C642 1.366 . S
C643 C647 1.385 . S
C644 H625 0.951 . S
C644 C642 1.388 . S
C644 C645 1.366 . S
C645 C644 1.366 . S
C645 C646 1.414 . S
C645 C648 1.499 . S
C646 H626 0.950 . S
C646 C645 1.414 . S
C646 C647 1.374 . S
C647 H627 0.950 . S
C647 C643 1.385 . S
C647 C646 1.374 . S
C648 C645 1.499 . S
C648 C649 1.373 . S
C648 C650 1.389 . S
C649 H628 0.950 . S
C649 C648 1.373 . S
C649 C665 1.377 1_556 S
C650 C648 1.389 . S
C650 C651 1.524 . S
C650 C664 1.377 1_556 S
C651 C650 1.524 . S
C651 C652 1.397 . S
C651 C656 1.363 . S
C652 H629 0.950 . S
C652 C651 1.397 . S
C652 C653 1.334 . S
C653 H630 0.950 . S
C653 C652 1.334 . S
C653 C654 1.287 . S
C654 C653 1.287 . S
C654 C655 1.524 . S
C654 H673 0.913 . S
C655 H631 0.950 . S
C655 C654 1.524 . S
C655 C656 1.415 . S
C656 H632 0.950 . S
C656 C651 1.363 . S
C656 C655 1.415 . S
C657 H633 0.951 . S
C657 C658 1.366 . S
C657 C659 1.388 . S
C658 C657 1.366 . S
C658 C662 1.385 . S
C659 H634 0.951 . S
C659 C657 1.388 . S
C659 C660 1.366 . S
C660 C659 1.366 . S
C660 C661 1.414 . S
C660 C663 1.499 . S
C661 H635 0.950 . S
C661 C660 1.414 . S
C661 C662 1.374 . S
C662 H636 0.950 . S
C662 C658 1.385 . S
C662 C661 1.374 . S
C663 C660 1.499 . S
C663 C664 1.373 . S
C663 C665 1.389 . S
C664 H637 0.950 . S
C664 C650 1.377 1_554 S
C664 C663 1.373 . S
C665 C649 1.377 1_554 S
C665 C663 1.389 . S
C665 C666 1.524 . S
C666 C665 1.524 . S
C666 C667 1.397 . S
C666 C671 1.363 . S
C667 H638 0.950 . S
C667 C666 1.397 . S
C667 C668 1.334 . S
C668 H639 0.950 . S
C668 C667 1.334 . S
C668 C669 1.287 . S
C669 C668 1.287 . S
C669 C670 1.524 . S
C669 H672 0.999 . S
C670 H640 0.950 . S
C670 C669 1.524 . S
C670 C671 1.415 . S
C671 H641 0.950 . S
C671 C666 1.363 . S
C671 C670 1.415 . S
H672 C669 0.999 . S
H673 C654 0.913 . S
H674 C692 0.951 . S
H675 C694 0.951 . S
H676 C696 0.950 . S
H677 C697 0.950 . S
H678 C699 0.950 . S
H679 C702 0.950 . S
H680 C703 0.950 . S
H681 C705 0.950 . S
H682 C706 0.950 . S
H683 C707 0.951 . S
H684 C709 0.951 . S
H685 C711 0.950 . S
H686 C712 0.950 . S
H687 C714 0.950 . S
H688 C717 0.950 . S
H689 C718 0.950 . S
H690 C720 0.950 . S
H691 C721 0.950 . S
C692 H674 0.951 . S
C692 C693 1.366 . S
C692 C694 1.388 . S
C693 C692 1.366 . S
C693 C697 1.385 . S
C694 H675 0.951 . S
C694 C692 1.388 . S
C694 C695 1.366 . S
C695 C694 1.366 . S
C695 C696 1.414 . S
C695 C698 1.499 . S
C696 H676 0.950 . S
C696 C695 1.414 . S
C696 C697 1.374 . S
C697 H677 0.950 . S
C697 C693 1.385 . S
C697 C696 1.374 . S
C698 C695 1.499 . S
C698 C699 1.373 . S
C698 C700 1.389 . S
C699 H678 0.950 . S
C699 C698 1.373 . S
C699 C715 1.377 1_556 S
C700 C698 1.389 . S
C700 C701 1.524 . S
C700 C714 1.377 1_556 S
C701 C700 1.524 . S
C701 C702 1.397 . S
C701 C706 1.363 . S
C702 H679 0.950 . S
C702 C701 1.397 . S
C702 C703 1.334 . S
C703 H680 0.950 . S
C703 C702 1.334 . S
C703 C704 1.287 . S
C704 C703 1.287 . S
C704 C705 1.524 . S
C704 H723 0.913 . S
C705 H681 0.950 . S
C705 C704 1.524 . S
C705 C706 1.415 . S
C706 H682 0.950 . S
C706 C701 1.363 . S
C706 C705 1.415 . S
C707 H683 0.951 . S
C707 C708 1.366 . S
C707 C709 1.388 . S
C708 C707 1.366 . S
C708 C712 1.385 . S
C709 H684 0.951 . S
C709 C707 1.388 . S
C709 C710 1.366 . S
C710 C709 1.366 . S
C710 C711 1.414 . S
C710 C713 1.499 . S
C711 H685 0.950 . S
C711 C710 1.414 . S
C711 C712 1.374 . S
C712 H686 0.950 . S
C712 C708 1.385 . S
C712 C711 1.374 . S
C713 C710 1.499 . S
C713 C714 1.373 . S
C713 C715 1.389 . S
C714 H687 0.950 . S
C714 C700 1.377 1_554 S
C714 C713 1.373 . S
C715 C699 1.377 1_554 S
C715 C713 1.389 . S
C715 C716 1.524 . S
C716 C715 1.524 . S
C716 C717 1.397 . S
C716 C721 1.363 . S
C717 H688 0.950 . S
C717 C716 1.397 . S
C717 C718 1.334 . S
C718 H689 0.950 . S
C718 C717 1.334 . S
C718 C719 1.287 . S
C719 C718 1.287 . S
C719 C720 1.524 . S
C719 H722 0.999 . S
C720 H690 0.950 . S
C720 C719 1.524 . S
C720 C721 1.415 . S
C721 H691 0.950 . S
C721 C716 1.363 . S
C721 C720 1.415 . S
H722 C719 0.999 . S
H723 C704 0.913 . S
H724 C742 0.951 . S
H725 C744 0.951 . S
H726 C746 0.950 . S
H727 C747 0.950 . S
H728 C749 0.950 . S
H729 C752 0.950 . S
H730 C753 0.950 . S
H731 C755 0.950 . S
H732 C756 0.950 . S
H733 C757 0.951 . S
H734 C759 0.951 . S
H735 C761 0.950 . S
H736 C762 0.950 . S
H737 C764 0.950 . S
H738 C767 0.950 . S
H739 C768 0.950 . S
H740 C770 0.950 . S
H741 C771 0.950 . S
C742 H724 0.951 . S
C742 C743 1.366 . S
C742 C744 1.388 . S
C743 C742 1.366 . S
C743 C747 1.385 . S
C744 H725 0.951 . S
C744 C742 1.388 . S
C744 C745 1.366 . S
C745 C744 1.366 . S
C745 C746 1.414 . S
C745 C748 1.499 . S
C746 H726 0.950 . S
C746 C745 1.414 . S
C746 C747 1.374 . S
C747 H727 0.950 . S
C747 C743 1.385 . S
C747 C746 1.374 . S
C748 C745 1.499 . S
C748 C749 1.373 . S
C748 C750 1.389 . S
C749 H728 0.950 . S
C749 C748 1.373 . S
C749 C765 1.377 1_556 S
C750 C748 1.389 . S
C750 C751 1.524 . S
C750 C764 1.377 1_556 S
C751 C750 1.524 . S
C751 C752 1.397 . S
C751 C756 1.363 . S
C752 H729 0.950 . S
C752 C751 1.397 . S
C752 C753 1.334 . S
C753 H730 0.950 . S
C753 C752 1.334 . S
C753 C754 1.287 . S
C754 C753 1.287 . S
C754 C755 1.524 . S
C754 H773 0.913 . S
C755 H731 0.950 . S
C755 C754 1.524 . S
C755 C756 1.415 . S
C756 H732 0.950 . S
C756 C751 1.363 . S
C756 C755 1.415 . S
C757 H733 0.951 . S
C757 C758 1.366 . S
C757 C759 1.388 . S
C758 C757 1.366 . S
C758 C762 1.385 . S
C759 H734 0.951 . S
C759 C757 1.388 . S
C759 C760 1.366 . S
C760 C759 1.366 . S
C760 C761 1.414 . S
C760 C763 1.499 . S
C761 H735 0.950 . S
C761 C760 1.414 . S
C761 C762 1.374 . S
C762 H736 0.950 . S
C762 C758 1.385 . S
C762 C761 1.374 . S
C763 C760 1.499 . S
C763 C764 1.373 . S
C763 C765 1.389 . S
C764 H737 0.950 . S
C764 C750 1.377 1_554 S
C764 C763 1.373 . S
C765 C749 1.377 1_554 S
C765 C763 1.389 . S
C765 C766 1.524 . S
C766 C765 1.524 . S
C766 C767 1.397 . S
C766 C771 1.363 . S
C767 H738 0.950 . S
C767 C766 1.397 . S
C767 C768 1.334 . S
C768 H739 0.950 . S
C768 C767 1.334 . S
C768 C769 1.287 . S
C769 C768 1.287 . S
C769 C770 1.524 . S
C769 H772 0.999 . S
C770 H740 0.950 . S
C770 C769 1.524 . S
C770 C771 1.415 . S
C771 H741 0.950 . S
C771 C766 1.363 . S
C771 C770 1.415 . S
H772 C769 0.999 . S
H773 C754 0.913 . S
H774 C792 0.951 . S
H775 C794 0.951 . S
H776 C796 0.950 . S
H777 C797 0.950 . S
H778 C799 0.950 . S
H779 C802 0.950 . S
H780 C803 0.950 . S
H781 C805 0.950 . S
H782 C806 0.950 . S
H783 C807 0.951 . S
H784 C809 0.951 . S
H785 C811 0.950 . S
H786 C812 0.950 . S
H787 C814 0.950 . S
H788 C817 0.950 . S
H789 C818 0.950 . S
H790 C820 0.950 . S
H791 C821 0.950 . S
C792 H774 0.951 . S
C792 C793 1.366 . S
C792 C794 1.388 . S
C793 C792 1.366 . S
C793 C797 1.385 . S
C794 H775 0.951 . S
C794 C792 1.388 . S
C794 C795 1.366 . S
C795 C794 1.366 . S
C795 C796 1.414 . S
C795 C798 1.499 . S
C796 H776 0.950 . S
C796 C795 1.414 . S
C796 C797 1.374 . S
C797 H777 0.950 . S
C797 C793 1.385 . S
C797 C796 1.374 . S
C798 C795 1.499 . S
C798 C799 1.373 . S
C798 C800 1.389 . S
C799 H778 0.950 . S
C799 C798 1.373 . S
C799 C815 1.377 1_554 S
C800 C798 1.389 . S
C800 C801 1.524 . S
C800 C814 1.377 1_554 S
C801 C800 1.524 . S
C801 C802 1.397 . S
C801 C806 1.363 . S
C802 H779 0.950 . S
C802 C801 1.397 . S
C802 C803 1.334 . S
C803 H780 0.950 . S
C803 C802 1.334 . S
C803 C804 1.287 . S
C804 C803 1.287 . S
C804 C805 1.524 . S
C804 H823 0.913 . S
C805 H781 0.950 . S
C805 C804 1.524 . S
C805 C806 1.415 . S
C806 H782 0.950 . S
C806 C801 1.363 . S
C806 C805 1.415 . S
C807 H783 0.951 . S
C807 C808 1.366 . S
C807 C809 1.388 . S
C808 C807 1.366 . S
C808 C812 1.385 . S
C809 H784 0.951 . S
C809 C807 1.388 . S
C809 C810 1.366 . S
C810 C809 1.366 . S
C810 C811 1.414 . S
C810 C813 1.499 . S
C811 H785 0.950 . S
C811 C810 1.414 . S
C811 C812 1.374 . S
C812 H786 0.950 . S
C812 C808 1.385 . S
C812 C811 1.374 . S
C813 C810 1.499 . S
C813 C814 1.373 . S
C813 C815 1.389 . S
C814 H787 0.950 . S
C814 C800 1.377 1_556 S
C814 C813 1.373 . S
C815 C799 1.377 1_556 S
C815 C813 1.389 . S
C815 C816 1.524 . S
C816 C815 1.524 . S
C816 C817 1.397 . S
C816 C821 1.363 . S
C817 H788 0.950 . S
C817 C816 1.397 . S
C817 C818 1.334 . S
C818 H789 0.950 . S
C818 C817 1.334 . S
C818 C819 1.287 . S
C819 C818 1.287 . S
C819 C820 1.524 . S
C819 H822 0.999 . S
C820 H790 0.950 . S
C820 C819 1.524 . S
C820 C821 1.415 . S
C821 H791 0.950 . S
C821 C816 1.363 . S
C821 C820 1.415 . S
H822 C819 0.999 . S
H823 C804 0.913 . S
H824 C842 0.951 . S
H825 C844 0.951 . S
H826 C846 0.950 . S
H827 C847 0.950 . S
H828 C849 0.950 . S
H829 C852 0.950 . S
H830 C853 0.950 . S
H831 C855 0.950 . S
H832 C856 0.950 . S
H833 C857 0.951 . S
H834 C859 0.951 . S
H835 C861 0.950 . S
H836 C862 0.950 . S
H837 C864 0.950 . S
H838 C867 0.950 . S
H839 C868 0.950 . S
H840 C870 0.950 . S
H841 C871 0.950 . S
C842 H824 0.951 . S
C842 C843 1.366 . S
C842 C844 1.388 . S
C843 C842 1.366 . S
C843 C847 1.385 . S
C844 H825 0.951 . S
C844 C842 1.388 . S
C844 C845 1.366 . S
C845 C844 1.366 . S
C845 C846 1.414 . S
C845 C848 1.499 . S
C846 H826 0.950 . S
C846 C845 1.414 . S
C846 C847 1.374 . S
C847 H827 0.950 . S
C847 C843 1.385 . S
C847 C846 1.374 . S
C848 C845 1.499 . S
C848 C849 1.373 . S
C848 C850 1.389 . S
C849 H828 0.950 . S
C849 C848 1.373 . S
C849 C865 1.377 . S
C850 C848 1.389 . S
C850 C851 1.524 . S
C850 C864 1.377 . S
C851 C850 1.524 . S
C851 C852 1.397 . S
C851 C856 1.363 . S
C852 H829 0.950 . S
C852 C851 1.397 . S
C852 C853 1.334 . S
C853 H830 0.950 . S
C853 C852 1.334 . S
C853 C854 1.287 . S
C854 C853 1.287 . S
C854 C855 1.524 . S
C854 H873 0.913 . S
C855 H831 0.950 . S
C855 C854 1.524 . S
C855 C856 1.415 . S
C856 H832 0.950 . S
C856 C851 1.363 . S
C856 C855 1.415 . S
C857 H833 0.951 . S
C857 C858 1.366 . S
C857 C859 1.388 . S
C858 C857 1.366 . S
C858 C862 1.385 . S
C859 H834 0.951 . S
C859 C857 1.388 . S
C859 C860 1.366 . S
C860 C859 1.366 . S
C860 C861 1.414 . S
C860 C863 1.499 . S
C861 H835 0.950 . S
C861 C860 1.414 . S
C861 C862 1.374 . S
C862 H836 0.950 . S
C862 C858 1.385 . S
C862 C861 1.374 . S
C863 C860 1.499 . S
C863 C864 1.373 . S
C863 C865 1.389 . S
C864 H837 0.950 . S
C864 C850 1.377 . S
C864 C863 1.373 . S
C865 C849 1.377 . S
C865 C863 1.389 . S
C865 C866 1.524 . S
C866 C865 1.524 . S
C866 C867 1.397 . S
C866 C871 1.363 . S
C867 H838 0.950 . S
C867 C866 1.397 . S
C867 C868 1.334 . S
C868 H839 0.950 . S
C868 C867 1.334 . S
C868 C869 1.287 . S
C869 C868 1.287 . S
C869 C870 1.524 . S
C869 H872 0.999 . S
C870 H840 0.950 . S
C870 C869 1.524 . S
C870 C871 1.415 . S
C871 H841 0.950 . S
C871 C866 1.363 . S
C871 C870 1.415 . S
H872 C869 0.999 . S
H873 C854 0.913 . S
H874 C892 0.951 . S
H875 C894 0.951 . S
H876 C896 0.950 . S
H877 C897 0.950 . S
H878 C899 0.950 . S
H879 C902 0.950 . S
H880 C903 0.950 . S
H881 C905 0.950 . S
H882 C906 0.950 . S
H883 C907 0.951 . S
H884 C909 0.951 . S
H885 C911 0.950 . S
H886 C912 0.950 . S
H887 C914 0.950 . S
H888 C917 0.950 . S
H889 C918 0.950 . S
H890 C920 0.950 . S
H891 C921 0.950 . S
C892 H874 0.951 . S
C892 C893 1.366 . S
C892 C894 1.388 . S
C893 C892 1.366 . S
C893 C897 1.385 . S
C894 H875 0.951 . S
C894 C892 1.388 . S
C894 C895 1.366 . S
C895 C894 1.366 . S
C895 C896 1.414 . S
C895 C898 1.499 . S
C896 H876 0.950 . S
C896 C895 1.414 . S
C896 C897 1.374 . S
C897 H877 0.950 . S
C897 C893 1.385 . S
C897 C896 1.374 . S
C898 C895 1.499 . S
C898 C899 1.373 . S
C898 C900 1.389 . S
C899 H878 0.950 . S
C899 C898 1.373 . S
C899 C915 1.377 . S
C900 C898 1.389 . S
C900 C901 1.524 . S
C900 C914 1.377 . S
C901 C900 1.524 . S
C901 C902 1.397 . S
C901 C906 1.363 . S
C902 H879 0.950 . S
C902 C901 1.397 . S
C902 C903 1.334 . S
C903 H880 0.950 . S
C903 C902 1.334 . S
C903 C904 1.287 . S
C904 C903 1.287 . S
C904 C905 1.524 . S
C904 H923 0.913 . S
C905 H881 0.950 . S
C905 C904 1.524 . S
C905 C906 1.415 . S
C906 H882 0.950 . S
C906 C901 1.363 . S
C906 C905 1.415 . S
C907 H883 0.951 . S
C907 C908 1.366 . S
C907 C909 1.388 . S
C908 C907 1.366 . S
C908 C912 1.385 . S
C909 H884 0.951 . S
C909 C907 1.388 . S
C909 C910 1.366 . S
C910 C909 1.366 . S
C910 C911 1.414 . S
C910 C913 1.499 . S
C911 H885 0.950 . S
C911 C910 1.414 . S
C911 C912 1.374 . S
C912 H886 0.950 . S
C912 C908 1.385 . S
C912 C911 1.374 . S
C913 C910 1.499 . S
C913 C914 1.373 . S
C913 C915 1.389 . S
C914 H887 0.950 . S
C914 C900 1.377 . S
C914 C913 1.373 . S
C915 C899 1.377 . S
C915 C913 1.389 . S
C915 C916 1.524 . S
C916 C915 1.524 . S
C916 C917 1.397 . S
C916 C921 1.363 . S
C917 H888 0.950 . S
C917 C916 1.397 . S
C917 C918 1.334 . S
C918 H889 0.950 . S
C918 C917 1.334 . S
C918 C919 1.287 . S
C919 C918 1.287 . S
C919 C920 1.524 . S
C919 H922 0.999 . S
C920 H890 0.950 . S
C920 C919 1.524 . S
C920 C921 1.415 . S
C921 H891 0.950 . S
C921 C916 1.363 . S
C921 C920 1.415 . S
H922 C919 0.999 . S
H923 C904 0.913 . S
H924 C942 0.951 . S
H925 C944 0.951 . S
H926 C946 0.950 . S
H927 C947 0.950 . S
H928 C949 0.950 . S
H929 C952 0.950 . S
H930 C953 0.950 . S
H931 C955 0.950 . S
H932 C956 0.950 . S
H933 C957 0.951 . S
H934 C959 0.951 . S
H935 C961 0.950 . S
H936 C962 0.950 . S
H937 C964 0.950 . S
H938 C967 0.950 . S
H939 C968 0.950 . S
H940 C970 0.950 . S
H941 C971 0.950 . S
C942 H924 0.951 . S
C942 C943 1.366 . S
C942 C944 1.388 . S
C943 C942 1.366 . S
C943 C947 1.385 . S
C944 H925 0.951 . S
C944 C942 1.388 . S
C944 C945 1.366 . S
C945 C944 1.366 . S
C945 C946 1.414 . S
C945 C948 1.499 . S
C946 H926 0.950 . S
C946 C945 1.414 . S
C946 C947 1.374 . S
C947 H927 0.950 . S
C947 C943 1.385 . S
C947 C946 1.374 . S
C948 C945 1.499 . S
C948 C949 1.373 . S
C948 C950 1.389 . S
C949 H928 0.950 . S
C949 C948 1.373 . S
C949 C965 1.377 . S
C950 C948 1.389 . S
C950 C951 1.524 . S
C950 C964 1.377 . S
C951 C950 1.524 . S
C951 C952 1.397 . S
C951 C956 1.363 . S
C952 H929 0.950 . S
C952 C951 1.397 . S
C952 C953 1.334 . S
C953 H930 0.950 . S
C953 C952 1.334 . S
C953 C954 1.287 . S
C954 C953 1.287 . S
C954 C955 1.524 . S
C954 H973 0.913 . S
C955 H931 0.950 . S
C955 C954 1.524 . S
C955 C956 1.415 . S
C956 H932 0.950 . S
C956 C951 1.363 . S
C956 C955 1.415 . S
C957 H933 0.951 . S
C957 C958 1.366 . S
C957 C959 1.388 . S
C958 C957 1.366 . S
C958 C962 1.385 . S
C959 H934 0.951 . S
C959 C957 1.388 . S
C959 C960 1.366 . S
C960 C959 1.366 . S
C960 C961 1.414 . S
C960 C963 1.499 . S
C961 H935 0.950 . S
C961 C960 1.414 . S
C961 C962 1.374 . S
C962 H936 0.950 . S
C962 C958 1.385 . S
C962 C961 1.374 . S
C963 C960 1.499 . S
C963 C964 1.373 . S
C963 C965 1.389 . S
C964 H937 0.950 . S
C964 C950 1.377 . S
C964 C963 1.373 . S
C965 C949 1.377 . S
C965 C963 1.389 . S
C965 C966 1.524 . S
C966 C965 1.524 . S
C966 C967 1.397 . S
C966 C971 1.363 . S
C967 H938 0.950 . S
C967 C966 1.397 . S
C967 C968 1.334 . S
C968 H939 0.950 . S
C968 C967 1.334 . S
C968 C969 1.287 . S
C969 C968 1.287 . S
C969 C970 1.524 . S
C969 H972 0.999 . S
C970 H940 0.950 . S
C970 C969 1.524 . S
C970 C971 1.415 . S
C971 H941 0.950 . S
C971 C966 1.363 . S
C971 C970 1.415 . S
H972 C969 0.999 . S
H973 C954 0.913 . S
H974 C992 0.951 . S
H975 C994 0.951 . S
H976 C996 0.950 . S
H977 C997 0.950 . S
H978 C999 0.950 . S
H979 C1002 0.950 . S
H980 C1003 0.950 . S
H981 C1005 0.950 . S
H982 C1006 0.950 . S
H983 C1007 0.951 . S
H984 C1009 0.951 . S
H985 C1011 0.950 . S
H986 C1012 0.950 . S
H987 C1014 0.950 . S
H988 C1017 0.950 . S
H989 C1018 0.950 . S
H990 C1020 0.950 . S
H991 C1021 0.950 . S
C992 H974 0.951 . S
C992 C993 1.366 . S
C992 C994 1.388 . S
C993 C992 1.366 . S
C993 C997 1.385 . S
C994 H975 0.951 . S
C994 C992 1.388 . S
C994 C995 1.366 . S
C995 C994 1.366 . S
C995 C996 1.414 . S
C995 C998 1.499 . S
C996 H976 0.950 . S
C996 C995 1.414 . S
C996 C997 1.374 . S
C997 H977 0.950 . S
C997 C993 1.385 . S
C997 C996 1.374 . S
C998 C995 1.499 . S
C998 C999 1.373 . S
C998 C1000 1.389 . S
C999 H978 0.950 . S
C999 C998 1.373 . S
C999 C1015 1.377 . S
C1000 C998 1.389 . S
C1000 C1001 1.524 . S
C1000 C1014 1.377 . S
C1001 C1000 1.524 . S
C1001 C1002 1.397 . S
C1001 C1006 1.363 . S
C1002 H979 0.950 . S
C1002 C1001 1.397 . S
C1002 C1003 1.334 . S
C1003 H980 0.950 . S
C1003 C1002 1.334 . S
C1003 C1004 1.287 . S
C1004 C1003 1.287 . S
C1004 C1005 1.524 . S
C1004 H1023 0.913 . S
C1005 H981 0.950 . S
C1005 C1004 1.524 . S
C1005 C1006 1.415 . S
C1006 H982 0.950 . S
C1006 C1001 1.363 . S
C1006 C1005 1.415 . S
C1007 H983 0.951 . S
C1007 C1008 1.366 . S
C1007 C1009 1.388 . S
C1008 C1007 1.366 . S
C1008 C1012 1.385 . S
C1009 H984 0.951 . S
C1009 C1007 1.388 . S
C1009 C1010 1.366 . S
C1010 C1009 1.366 . S
C1010 C1011 1.414 . S
C1010 C1013 1.499 . S
C1011 H985 0.950 . S
C1011 C1010 1.414 . S
C1011 C1012 1.374 . S
C1012 H986 0.950 . S
C1012 C1008 1.385 . S
C1012 C1011 1.374 . S
C1013 C1010 1.499 . S
C1013 C1014 1.373 . S
C1013 C1015 1.389 . S
C1014 H987 0.950 . S
C1014 C1000 1.377 . S
C1014 C1013 1.373 . S
C1015 C999 1.377 . S
C1015 C1013 1.389 . S
C1015 C1016 1.524 . S
C1016 C1015 1.524 . S
C1016 C1017 1.397 . S
C1016 C1021 1.363 . S
C1017 H988 0.950 . S
C1017 C1016 1.397 . S
C1017 C1018 1.334 . S
C1018 H989 0.950 . S
C1018 C1017 1.334 . S
C1018 C1019 1.287 . S
C1019 C1018 1.287 . S
C1019 C1020 1.524 . S
C1019 H1022 0.999 . S
C1020 H990 0.950 . S
C1020 C1019 1.524 . S
C1020 C1021 1.415 . S
C1021 H991 0.950 . S
C1021 C1016 1.363 . S
C1021 C1020 1.415 . S
H1022 C1019 0.999 . S
H1023 C1004 0.913 . S
H1024 C1042 0.951 . S
H1025 C1044 0.951 . S
H1026 C1046 0.950 . S
H1027 C1047 0.950 . S
H1028 C1049 0.950 . S
H1029 C1052 0.950 . S
H1030 C1053 0.950 . S
H1031 C1055 0.950 . S
H1032 C1056 0.950 . S
H1033 C1057 0.951 . S
H1034 C1059 0.951 . S
H1035 C1061 0.950 . S
H1036 C1062 0.950 . S
H1037 C1064 0.950 . S
H1038 C1067 0.950 . S
H1039 C1068 0.950 . S
H1040 C1070 0.950 . S
H1041 C1071 0.950 . S
C1042 H1024 0.951 . S
C1042 C1043 1.366 . S
C1042 C1044 1.388 . S
C1043 C1042 1.366 . S
C1043 C1047 1.385 . S
C1044 H1025 0.951 . S
C1044 C1042 1.388 . S
C1044 C1045 1.366 . S
C1045 C1044 1.366 . S
C1045 C1046 1.414 . S
C1045 C1048 1.499 . S
C1046 H1026 0.950 . S
C1046 C1045 1.414 . S
C1046 C1047 1.374 . S
C1047 H1027 0.950 . S
C1047 C1043 1.385 . S
C1047 C1046 1.374 . S
C1048 C1045 1.499 . S
C1048 C1049 1.373 . S
C1048 C1050 1.389 . S
C1049 H1028 0.950 . S
C1049 C1048 1.373 . S
C1049 C1065 1.377 . S
C1050 C1048 1.389 . S
C1050 C1051 1.524 . S
C1050 C1064 1.377 . S
C1051 C1050 1.524 . S
C1051 C1052 1.397 . S
C1051 C1056 1.363 . S
C1052 H1029 0.950 . S
C1052 C1051 1.397 . S
C1052 C1053 1.334 . S
C1053 H1030 0.950 . S
C1053 C1052 1.334 . S
C1053 C1054 1.287 . S
C1054 C1053 1.287 . S
C1054 C1055 1.524 . S
C1054 H1073 0.913 . S
C1055 H1031 0.950 . S
C1055 C1054 1.524 . S
C1055 C1056 1.415 . S
C1056 H1032 0.950 . S
C1056 C1051 1.363 . S
C1056 C1055 1.415 . S
C1057 H1033 0.951 . S
C1057 C1058 1.366 . S
C1057 C1059 1.388 . S
C1058 C1057 1.366 . S
C1058 C1062 1.385 . S
C1059 H1034 0.951 . S
C1059 C1057 1.388 . S
C1059 C1060 1.366 . S
C1060 C1059 1.366 . S
C1060 C1061 1.414 . S
C1060 C1063 1.499 . S
C1061 H1035 0.950 . S
C1061 C1060 1.414 . S
C1061 C1062 1.374 . S
C1062 H1036 0.950 . S
C1062 C1058 1.385 . S
C1062 C1061 1.374 . S
C1063 C1060 1.499 . S
C1063 C1064 1.373 . S
C1063 C1065 1.389 . S
C1064 H1037 0.950 . S
C1064 C1050 1.377 . S
C1064 C1063 1.373 . S
C1065 C1049 1.377 . S
C1065 C1063 1.389 . S
C1065 C1066 1.524 . S
C1066 C1065 1.524 . S
C1066 C1067 1.397 . S
C1066 C1071 1.363 . S
C1067 H1038 0.950 . S
C1067 C1066 1.397 . S
C1067 C1068 1.334 . S
C1068 H1039 0.950 . S
C1068 C1067 1.334 . S
C1068 C1069 1.287 . S
C1069 C1068 1.287 . S
C1069 C1070 1.524 . S
C1069 H1072 0.999 . S
C1070 H1040 0.950 . S
C1070 C1069 1.524 . S
C1070 C1071 1.415 . S
C1071 H1041 0.950 . S
C1071 C1066 1.363 . S
C1071 C1070 1.415 . S
H1072 C1069 0.999 . S
H1073 C1054 0.913 . S
H1074 C1092 0.951 . S
H1075 C1094 0.951 . S
H1076 C1096 0.950 . S
H1077 C1097 0.950 . S
H1078 C1099 0.950 . S
H1079 C1102 0.950 . S
H1080 C1103 0.950 . S
H1081 C1105 0.950 . S
H1082 C1106 0.950 . S
H1083 C1107 0.951 . S
H1084 C1109 0.951 . S
H1085 C1111 0.950 . S
H1086 C1112 0.950 . S
H1087 C1114 0.950 . S
H1088 C1117 0.950 . S
H1089 C1118 0.950 . S
H1090 C1120 0.950 . S
H1091 C1121 0.950 . S
C1092 H1074 0.951 . S
C1092 C1093 1.366 . S
C1092 C1094 1.388 . S
C1093 C1092 1.366 . S
C1093 C1097 1.385 . S
C1094 H1075 0.951 . S
C1094 C1092 1.388 . S
C1094 C1095 1.366 . S
C1095 C1094 1.366 . S
C1095 C1096 1.414 . S
C1095 C1098 1.499 . S
C1096 H1076 0.950 . S
C1096 C1095 1.414 . S
C1096 C1097 1.374 . S
C1097 H1077 0.950 . S
C1097 C1093 1.385 . S
C1097 C1096 1.374 . S
C1098 C1095 1.499 . S
C1098 C1099 1.373 . S
C1098 C1100 1.389 . S
C1099 H1078 0.950 . S
C1099 C1098 1.373 . S
C1099 C1115 1.377 . S
C1100 C1098 1.389 . S
C1100 C1101 1.524 . S
C1100 C1114 1.377 . S
C1101 C1100 1.524 . S
C1101 C1102 1.397 . S
C1101 C1106 1.363 . S
C1102 H1079 0.950 . S
C1102 C1101 1.397 . S
C1102 C1103 1.334 . S
C1103 H1080 0.950 . S
C1103 C1102 1.334 . S
C1103 C1104 1.287 . S
C1104 C1103 1.287 . S
C1104 C1105 1.524 . S
C1104 H1123 0.913 . S
C1105 H1081 0.950 . S
C1105 C1104 1.524 . S
C1105 C1106 1.415 . S
C1106 H1082 0.950 . S
C1106 C1101 1.363 . S
C1106 C1105 1.415 . S
C1107 H1083 0.951 . S
C1107 C1108 1.366 . S
C1107 C1109 1.388 . S
C1108 C1107 1.366 . S
C1108 C1112 1.385 . S
C1109 H1084 0.951 . S
C1109 C1107 1.388 . S
C1109 C1110 1.366 . S
C1110 C1109 1.366 . S
C1110 C1111 1.414 . S
C1110 C1113 1.499 . S
C1111 H1085 0.950 . S
C1111 C1110 1.414 . S
C1111 C1112 1.374 . S
C1112 H1086 0.950 . S
C1112 C1108 1.385 . S
C1112 C1111 1.374 . S
C1113 C1110 1.499 . S
C1113 C1114 1.373 . S
C1113 C1115 1.389 . S
C1114 H1087 0.950 . S
C1114 C1100 1.377 . S
C1114 C1113 1.373 . S
C1115 C1099 1.377 . S
C1115 C1113 1.389 . S
C1115 C1116 1.524 . S
C1116 C1115 1.524 . S
C1116 C1117 1.397 . S
C1116 C1121 1.363 . S
C1117 H1088 0.950 . S
C1117 C1116 1.397 . S
C1117 C1118 1.334 . S
C1118 H1089 0.950 . S
C1118 C1117 1.334 . S
C1118 C1119 1.287 . S
C1119 C1118 1.287 . S
C1119 C1120 1.524 . S
C1119 H1122 0.999 . S
C1120 H1090 0.950 . S
C1120 C1119 1.524 . S
C1120 C1121 1.415 . S
C1121 H1091 0.950 . S
C1121 C1116 1.363 . S
C1121 C1120 1.415 . S
H1122 C1119 0.999 . S
H1123 C1104 0.913 . S
H1124 C1142 0.951 . S
H1125 C1144 0.951 . S
H1126 C1146 0.950 . S
H1127 C1147 0.950 . S
H1128 C1149 0.950 . S
H1129 C1152 0.950 . S
H1130 C1153 0.950 . S
H1131 C1155 0.950 . S
H1132 C1156 0.950 . S
H1133 C1157 0.951 . S
H1134 C1159 0.951 . S
H1135 C1161 0.950 . S
H1136 C1162 0.950 . S
H1137 C1164 0.950 . S
H1138 C1167 0.950 . S
H1139 C1168 0.950 . S
H1140 C1170 0.950 . S
H1141 C1171 0.950 . S
C1142 H1124 0.951 . S
C1142 C1143 1.366 . S
C1142 C1144 1.388 . S
C1143 C1142 1.366 . S
C1143 C1147 1.385 . S
C1144 H1125 0.951 . S
C1144 C1142 1.388 . S
C1144 C1145 1.366 . S
C1145 C1144 1.366 . S
C1145 C1146 1.414 . S
C1145 C1148 1.499 . S
C1146 H1126 0.950 . S
C1146 C1145 1.414 . S
C1146 C1147 1.374 . S
C1147 H1127 0.950 . S
C1147 C1143 1.385 . S
C1147 C1146 1.374 . S
C1148 C1145 1.499 . S
C1148 C1149 1.373 . S
C1148 C1150 1.389 . S
C1149 H1128 0.950 . S
C1149 C1148 1.373 . S
C1149 C1165 1.377 . S
C1150 C1148 1.389 . S
C1150 C1151 1.524 . S
C1150 C1164 1.377 . S
C1151 C1150 1.524 . S
C1151 C1152 1.397 . S
C1151 C1156 1.363 . S
C1152 H1129 0.950 . S
C1152 C1151 1.397 . S
C1152 C1153 1.334 . S
C1153 H1130 0.950 . S
C1153 C1152 1.334 . S
C1153 C1154 1.287 . S
C1154 C1153 1.287 . S
C1154 C1155 1.524 . S
C1154 H1173 0.913 . S
C1155 H1131 0.950 . S
C1155 C1154 1.524 . S
C1155 C1156 1.415 . S
C1156 H1132 0.950 . S
C1156 C1151 1.363 . S
C1156 C1155 1.415 . S
C1157 H1133 0.951 . S
C1157 C1158 1.366 . S
C1157 C1159 1.388 . S
C1158 C1157 1.366 . S
C1158 C1162 1.385 . S
C1159 H1134 0.951 . S
C1159 C1157 1.388 . S
C1159 C1160 1.366 . S
C1160 C1159 1.366 . S
C1160 C1161 1.414 . S
C1160 C1163 1.499 . S
C1161 H1135 0.950 . S
C1161 C1160 1.414 . S
C1161 C1162 1.374 . S
C1162 H1136 0.950 . S
C1162 C1158 1.385 . S
C1162 C1161 1.374 . S
C1163 C1160 1.499 . S
C1163 C1164 1.373 . S
C1163 C1165 1.389 . S
C1164 H1137 0.950 . S
C1164 C1150 1.377 . S
C1164 C1163 1.373 . S
C1165 C1149 1.377 . S
C1165 C1163 1.389 . S
C1165 C1166 1.524 . S
C1166 C1165 1.524 . S
C1166 C1167 1.397 . S
C1166 C1171 1.363 . S
C1167 H1138 0.950 . S
C1167 C1166 1.397 . S
C1167 C1168 1.334 . S
C1168 H1139 0.950 . S
C1168 C1167 1.334 . S
C1168 C1169 1.287 . S
C1169 C1168 1.287 . S
C1169 C1170 1.524 . S
C1169 H1172 0.999 . S
C1170 H1140 0.950 . S
C1170 C1169 1.524 . S
C1170 C1171 1.415 . S
C1171 H1141 0.950 . S
C1171 C1166 1.363 . S
C1171 C1170 1.415 . S
H1172 C1169 0.999 . S
H1173 C1154 0.913 . S
H1174 C1192 0.951 . S
H1175 C1194 0.951 . S
H1176 C1196 0.950 . S
H1177 C1197 0.950 . S
H1178 C1199 0.950 . S
H1179 C1202 0.950 . S
H1180 C1203 0.950 . S
H1181 C1205 0.950 . S
H1182 C1206 0.950 . S
H1183 C1207 0.951 . S
H1184 C1209 0.951 . S
H1185 C1211 0.950 . S
H1186 C1212 0.950 . S
H1187 C1214 0.950 . S
H1188 C1217 0.950 . S
H1189 C1218 0.950 . S
H1190 C1220 0.950 . S
H1191 C1221 0.950 . S
C1192 H1174 0.951 . S
C1192 C1193 1.366 . S
C1192 C1194 1.388 . S
C1193 C1192 1.366 . S
C1193 C1197 1.385 . S
C1194 H1175 0.951 . S
C1194 C1192 1.388 . S
C1194 C1195 1.366 . S
C1195 C1194 1.366 . S
C1195 C1196 1.414 . S
C1195 C1198 1.499 . S
C1196 H1176 0.950 . S
C1196 C1195 1.414 . S
C1196 C1197 1.374 . S
C1197 H1177 0.950 . S
C1197 C1193 1.385 . S
C1197 C1196 1.374 . S
C1198 C1195 1.499 . S
C1198 C1199 1.373 . S
C1198 C1200 1.389 . S
C1199 H1178 0.950 . S
C1199 C1198 1.373 . S
C1199 C1215 1.377 . S
C1200 C1198 1.389 . S
C1200 C1201 1.524 . S
C1200 C1214 1.377 . S
C1201 C1200 1.524 . S
C1201 C1202 1.397 . S
C1201 C1206 1.363 . S
C1202 H1179 0.950 . S
C1202 C1201 1.397 . S
C1202 C1203 1.334 . S
C1203 H1180 0.950 . S
C1203 C1202 1.334 . S
C1203 C1204 1.287 . S
C1204 C1203 1.287 . S
C1204 C1205 1.524 . S
C1204 H1223 0.913 . S
C1205 H1181 0.950 . S
C1205 C1204 1.524 . S
C1205 C1206 1.415 . S
C1206 H1182 0.950 . S
C1206 C1201 1.363 . S
C1206 C1205 1.415 . S
C1207 H1183 0.951 . S
C1207 C1208 1.366 . S
C1207 C1209 1.388 . S
C1208 C1207 1.366 . S
C1208 C1212 1.385 . S
C1209 H1184 0.951 . S
C1209 C1207 1.388 . S
C1209 C1210 1.366 . S
C1210 C1209 1.366 . S
C1210 C1211 1.414 . S
C1210 C1213 1.499 . S
C1211 H1185 0.950 . S
C1211 C1210 1.414 . S
C1211 C1212 1.374 . S
C1212 H1186 0.950 . S
C1212 C1208 1.385 . S
C1212 C1211 1.374 . S
C1213 C1210 1.499 . S
C1213 C1214 1.373 . S
C1213 C1215 1.389 . S
C1214 H1187 0.950 . S
C1214 C1200 1.377 . S
C1214 C1213 1.373 . S
C1215 C1199 1.377 . S
C1215 C1213 1.389 . S
C1215 C1216 1.524 . S
C1216 C1215 1.524 . S
C1216 C1217 1.397 . S
C1216 C1221 1.363 . S
C1217 H1188 0.950 . S
C1217 C1216 1.397 . S
C1217 C1218 1.334 . S
C1218 H1189 0.950 . S
C1218 C1217 1.334 . S
C1218 C1219 1.287 . S
C1219 C1218 1.287 . S
C1219 C1220 1.524 . S
C1219 H1222 0.999 . S
C1220 H1190 0.950 . S
C1220 C1219 1.524 . S
C1220 C1221 1.415 . S
C1221 H1191 0.950 . S
C1221 C1216 1.363 . S
C1221 C1220 1.415 . S
H1222 C1219 0.999 . S
H1223 C1204 0.913 . S
H1224 C1242 0.951 . S
H1225 C1244 0.951 . S
H1226 C1246 0.950 . S
H1227 C1247 0.950 . S
H1228 C1249 0.950 . S
H1229 C1252 0.950 . S
H1230 C1253 0.950 . S
H1231 C1255 0.950 . S
H1232 C1256 0.950 . S
H1233 C1257 0.951 . S
H1234 C1259 0.951 . S
H1235 C1261 0.950 . S
H1236 C1262 0.950 . S
H1237 C1264 0.950 . S
H1238 C1267 0.950 . S
H1239 C1268 0.950 . S
H1240 C1270 0.950 . S
H1241 C1271 0.950 . S
C1242 H1224 0.951 . S
C1242 C1243 1.366 . S
C1242 C1244 1.388 . S
C1243 C1242 1.366 . S
C1243 C1247 1.385 . S
C1244 H1225 0.951 . S
C1244 C1242 1.388 . S
C1244 C1245 1.366 . S
C1245 C1244 1.366 . S
C1245 C1246 1.414 . S
C1245 C1248 1.499 . S
C1246 H1226 0.950 . S
C1246 C1245 1.414 . S
C1246 C1247 1.374 . S
C1247 H1227 0.950 . S
C1247 C1243 1.385 . S
C1247 C1246 1.374 . S
C1248 C1245 1.499 . S
C1248 C1249 1.373 . S
C1248 C1250 1.389 . S
C1249 H1228 0.950 . S
C1249 C1248 1.373 . S
C1249 C1265 1.377 . S
C1250 C1248 1.389 . S
C1250 C1251 1.524 . S
C1250 C1264 1.377 . S
C1251 C1250 1.524 . S
C1251 C1252 1.397 . S
C1251 C1256 1.363 . S
C1252 H1229 0.950 . S
C1252 C1251 1.397 . S
C1252 C1253 1.334 . S
C1253 H1230 0.950 . S
C1253 C1252 1.334 . S
C1253 C1254 1.287 . S
C1254 C1253 1.287 . S
C1254 C1255 1.524 . S
C1254 H1273 0.913 . S
C1255 H1231 0.950 . S
C1255 C1254 1.524 . S
C1255 C1256 1.415 . S
C1256 H1232 0.950 . S
C1256 C1251 1.363 . S
C1256 C1255 1.415 . S
C1257 H1233 0.951 . S
C1257 C1258 1.366 . S
C1257 C1259 1.388 . S
C1258 C1257 1.366 . S
C1258 C1262 1.385 . S
C1259 H1234 0.951 . S
C1259 C1257 1.388 . S
C1259 C1260 1.366 . S
C1260 C1259 1.366 . S
C1260 C1261 1.414 . S
C1260 C1263 1.499 . S
C1261 H1235 0.950 . S
C1261 C1260 1.414 . S
C1261 C1262 1.374 . S
C1262 H1236 0.950 . S
C1262 C1258 1.385 . S
C1262 C1261 1.374 . S
C1263 C1260 1.499 . S
C1263 C1264 1.373 . S
C1263 C1265 1.389 . S
C1264 H1237 0.950 . S
C1264 C1250 1.377 . S
C1264 C1263 1.373 . S
C1265 C1249 1.377 . S
C1265 C1263 1.389 . S
C1265 C1266 1.524 . S
C1266 C1265 1.524 . S
C1266 C1267 1.397 . S
C1266 C1271 1.363 . S
C1267 H1238 0.950 . S
C1267 C1266 1.397 . S
C1267 C1268 1.334 . S
C1268 H1239 0.950 . S
C1268 C1267 1.334 . S
C1268 C1269 1.287 . S
C1269 C1268 1.287 . S
C1269 C1270 1.524 . S
C1269 H1272 0.999 . S
C1270 H1240 0.950 . S
C1270 C1269 1.524 . S
C1270 C1271 1.415 . S
C1271 H1241 0.950 . S
C1271 C1266 1.363 . S
C1271 C1270 1.415 . S
H1272 C1269 0.999 . S
H1273 C1254 0.913 . S
H1274 C1292 0.951 . S
H1275 C1294 0.951 . S
H1276 C1296 0.950 . S
H1277 C1297 0.950 . S
H1278 C1299 0.950 . S
H1279 C1302 0.950 . S
H1280 C1303 0.950 . S
H1281 C1305 0.950 . S
H1282 C1306 0.950 . S
H1283 C1307 0.951 . S
H1284 C1309 0.951 . S
H1285 C1311 0.950 . S
H1286 C1312 0.950 . S
H1287 C1314 0.950 . S
H1288 C1317 0.950 . S
H1289 C1318 0.950 . S
H1290 C1320 0.950 . S
H1291 C1321 0.950 . S
C1292 H1274 0.951 . S
C1292 C1293 1.366 . S
C1292 C1294 1.388 . S
C1293 C1292 1.366 . S
C1293 C1297 1.385 . S
C1294 H1275 0.951 . S
C1294 C1292 1.388 . S
C1294 C1295 1.366 . S
C1295 C1294 1.366 . S
C1295 C1296 1.414 . S
C1295 C1298 1.499 . S
C1296 H1276 0.950 . S
C1296 C1295 1.414 . S
C1296 C1297 1.374 . S
C1297 H1277 0.950 . S
C1297 C1293 1.385 . S
C1297 C1296 1.374 . S
C1298 C1295 1.499 . S
C1298 C1299 1.373 . S
C1298 C1300 1.389 . S
C1299 H1278 0.950 . S
C1299 C1298 1.373 . S
C1299 C1315 1.377 . S
C1300 C1298 1.389 . S
C1300 C1301 1.524 . S
C1300 C1314 1.377 . S
C1301 C1300 1.524 . S
C1301 C1302 1.397 . S
C1301 C1306 1.363 . S
C1302 H1279 0.950 . S
C1302 C1301 1.397 . S
C1302 C1303 1.334 . S
C1303 H1280 0.950 . S
C1303 C1302 1.334 . S
C1303 C1304 1.287 . S
C1304 C1303 1.287 . S
C1304 C1305 1.524 . S
C1304 H1323 0.913 . S
C1305 H1281 0.950 . S
C1305 C1304 1.524 . S
C1305 C1306 1.415 . S
C1306 H1282 0.950 . S
C1306 C1301 1.363 . S
C1306 C1305 1.415 . S
C1307 H1283 0.951 . S
C1307 C1308 1.366 . S
C1307 C1309 1.388 . S
C1308 C1307 1.366 . S
C1308 C1312 1.385 . S
C1309 H1284 0.951 . S
C1309 C1307 1.388 . S
C1309 C1310 1.366 . S
C1310 C1309 1.366 . S
C1310 C1311 1.414 . S
C1310 C1313 1.499 . S
C1311 H1285 0.950 . S
C1311 C1310 1.414 . S
C1311 C1312 1.374 . S
C1312 H1286 0.950 . S
C1312 C1308 1.385 . S
C1312 C1311 1.374 . S
C1313 C1310 1.499 . S
C1313 C1314 1.373 . S
C1313 C1315 1.389 . S
C1314 H1287 0.950 . S
C1314 C1300 1.377 . S
C1314 C1313 1.373 . S
C1315 C1299 1.377 . S
C1315 C1313 1.389 . S
C1315 C1316 1.524 . S
C1316 C1315 1.524 . S
C1316 C1317 1.397 . S
C1316 C1321 1.363 . S
C1317 H1288 0.950 . S
C1317 C1316 1.397 . S
C1317 C1318 1.334 . S
C1318 H1289 0.950 . S
C1318 C1317 1.334 . S
C1318 C1319 1.287 . S
C1319 C1318 1.287 . S
C1319 C1320 1.524 . S
C1319 H1322 0.999 . S
C1320 H1290 0.950 . S
C1320 C1319 1.524 . S
C1320 C1321 1.415 . S
C1321 H1291 0.950 . S
C1321 C1316 1.363 . S
C1321 C1320 1.415 . S
H1322 C1319 0.999 . S
H1323 C1304 0.913 . S
H1324 C1342 0.951 . S
H1325 C1344 0.951 . S
H1326 C1346 0.950 . S
H1327 C1347 0.950 . S
H1328 C1349 0.950 . S
H1329 C1352 0.950 . S
H1330 C1353 0.950 . S
H1331 C1355 0.950 . S
H1332 C1356 0.950 . S
H1333 C1357 0.951 . S
H1334 C1359 0.951 . S
H1335 C1361 0.950 . S
H1336 C1362 0.950 . S
H1337 C1364 0.950 . S
H1338 C1367 0.950 . S
H1339 C1368 0.950 . S
H1340 C1370 0.950 . S
H1341 C1371 0.950 . S
C1342 H1324 0.951 . S
C1342 C1343 1.366 . S
C1342 C1344 1.388 . S
C1343 C1342 1.366 . S
C1343 C1347 1.385 . S
C1344 H1325 0.951 . S
C1344 C1342 1.388 . S
C1344 C1345 1.366 . S
C1345 C1344 1.366 . S
C1345 C1346 1.414 . S
C1345 C1348 1.499 . S
C1346 H1326 0.950 . S
C1346 C1345 1.414 . S
C1346 C1347 1.374 . S
C1347 H1327 0.950 . S
C1347 C1343 1.385 . S
C1347 C1346 1.374 . S
C1348 C1345 1.499 . S
C1348 C1349 1.373 . S
C1348 C1350 1.389 . S
C1349 H1328 0.950 . S
C1349 C1348 1.373 . S
C1349 C1365 1.377 . S
C1350 C1348 1.389 . S
C1350 C1351 1.524 . S
C1350 C1364 1.377 . S
C1351 C1350 1.524 . S
C1351 C1352 1.397 . S
C1351 C1356 1.363 . S
C1352 H1329 0.950 . S
C1352 C1351 1.397 . S
C1352 C1353 1.334 . S
C1353 H1330 0.950 . S
C1353 C1352 1.334 . S
C1353 C1354 1.287 . S
C1354 C1353 1.287 . S
C1354 C1355 1.524 . S
C1354 H1373 0.913 . S
C1355 H1331 0.950 . S
C1355 C1354 1.524 . S
C1355 C1356 1.415 . S
C1356 H1332 0.950 . S
C1356 C1351 1.363 . S
C1356 C1355 1.415 . S
C1357 H1333 0.951 . S
C1357 C1358 1.366 . S
C1357 C1359 1.388 . S
C1358 C1357 1.366 . S
C1358 C1362 1.385 . S
C1359 H1334 0.951 . S
C1359 C1357 1.388 . S
C1359 C1360 1.366 . S
C1360 C1359 1.366 . S
C1360 C1361 1.414 . S
C1360 C1363 1.499 . S
C1361 H1335 0.950 . S
C1361 C1360 1.414 . S
C1361 C1362 1.374 . S
C1362 H1336 0.950 . S
C1362 C1358 1.385 . S
C1362 C1361 1.374 . S
C1363 C1360 1.499 . S
C1363 C1364 1.373 . S
C1363 C1365 1.389 . S
C1364 H1337 0.950 . S
C1364 C1350 1.377 . S
C1364 C1363 1.373 . S
C1365 C1349 1.377 . S
C1365 C1363 1.389 . S
C1365 C1366 1.524 . S
C1366 C1365 1.524 . S
C1366 C1367 1.397 . S
C1366 C1371 1.363 . S
C1367 H1338 0.950 . S
C1367 C1366 1.397 . S
C1367 C1368 1.334 . S
C1368 H1339 0.950 . S
C1368 C1367 1.334 . S
C1368 C1369 1.287 . S
C1369 C1368 1.287 . S
C1369 C1370 1.524 . S
C1369 H1372 0.999 . S
C1370 H1340 0.950 . S
C1370 C1369 1.524 . S
C1370 C1371 1.415 . S
C1371 H1341 0.950 . S
C1371 C1366 1.363 . S
C1371 C1370 1.415 . S
H1372 C1369 0.999 . S
H1373 C1354 0.913 . S
H1374 C1392 0.951 . S
H1375 C1394 0.951 . S
H1376 C1396 0.950 . S
H1377 C1397 0.950 . S
H1378 C1399 0.950 . S
H1379 C1402 0.950 . S
H1380 C1403 0.950 . S
H1381 C1405 0.950 . S
H1382 C1406 0.950 . S
H1383 C1407 0.951 . S
H1384 C1409 0.951 . S
H1385 C1411 0.950 . S
H1386 C1412 0.950 . S
H1387 C1414 0.950 . S
H1388 C1417 0.950 . S
H1389 C1418 0.950 . S
H1390 C1420 0.950 . S
H1391 C1421 0.950 . S
C1392 H1374 0.951 . S
C1392 C1393 1.366 . S
C1392 C1394 1.388 . S
C1393 C1392 1.366 . S
C1393 C1397 1.385 . S
C1394 H1375 0.951 . S
C1394 C1392 1.388 . S
C1394 C1395 1.366 . S
C1395 C1394 1.366 . S
C1395 C1396 1.414 . S
C1395 C1398 1.499 . S
C1396 H1376 0.950 . S
C1396 C1395 1.414 . S
C1396 C1397 1.374 . S
C1397 H1377 0.950 . S
C1397 C1393 1.385 . S
C1397 C1396 1.374 . S
C1398 C1395 1.499 . S
C1398 C1399 1.373 . S
C1398 C1400 1.389 . S
C1399 H1378 0.950 . S
C1399 C1398 1.373 . S
C1399 C1415 1.377 . S
C1400 C1398 1.389 . S
C1400 C1401 1.524 . S
C1400 C1414 1.377 . S
C1401 C1400 1.524 . S
C1401 C1402 1.397 . S
C1401 C1406 1.363 . S
C1402 H1379 0.950 . S
C1402 C1401 1.397 . S
C1402 C1403 1.334 . S
C1403 H1380 0.950 . S
C1403 C1402 1.334 . S
C1403 C1404 1.287 . S
C1404 C1403 1.287 . S
C1404 C1405 1.524 . S
C1404 H1423 0.913 . S
C1405 H1381 0.950 . S
C1405 C1404 1.524 . S
C1405 C1406 1.415 . S
C1406 H1382 0.950 . S
C1406 C1401 1.363 . S
C1406 C1405 1.415 . S
C1407 H1383 0.951 . S
C1407 C1408 1.366 . S
C1407 C1409 1.388 . S
C1408 C1407 1.366 . S
C1408 C1412 1.385 . S
C1409 H1384 0.951 . S
C1409 C1407 1.388 . S
C1409 C1410 1.366 . S
C1410 C1409 1.366 . S
C1410 C1411 1.414 . S
C1410 C1413 1.499 . S
C1411 H1385 0.950 . S
C1411 C1410 1.414 . S
C1411 C1412 1.374 . S
C1412 H1386 0.950 . S
C1412 C1408 1.385 . S
C1412 C1411 1.374 . S
C1413 C1410 1.499 . S
C1413 C1414 1.373 . S
C1413 C1415 1.389 . S
C1414 H1387 0.950 . S
C1414 C1400 1.377 . S
C1414 C1413 1.373 . S
C1415 C1399 1.377 . S
C1415 C1413 1.389 . S
C1415 C1416 1.524 . S
C1416 C1415 1.524 . S
C1416 C1417 1.397 . S
C1416 C1421 1.363 . S
C1417 H1388 0.950 . S
C1417 C1416 1.397 . S
C1417 C1418 1.334 . S
C1418 H1389 0.950 . S
C1418 C1417 1.334 . S
C1418 C1419 1.287 . S
C1419 C1418 1.287 . S
C1419 C1420 1.524 . S
C1419 H1422 0.999 . S
C1420 H1390 0.950 . S
C1420 C1419 1.524 . S
C1420 C1421 1.415 . S
C1421 H1391 0.950 . S
C1421 C1416 1.363 . S
C1421 C1420 1.415 . S
H1422 C1419 0.999 . S
H1423 C1404 0.913 . S
H1424 C1442 0.951 . S
H1425 C1444 0.951 . S
H1426 C1446 0.950 . S
H1427 C1447 0.950 . S
H1428 C1449 0.950 . S
H1429 C1452 0.950 . S
H1430 C1453 0.950 . S
H1431 C1455 0.950 . S
H1432 C1456 0.936 1_565 S
H1433 C1457 0.951 . S
H1434 C1459 0.951 . S
H1435 C1461 0.950 . S
H1436 C1462 0.950 . S
H1437 C1464 0.950 . S
H1438 C1467 0.950 . S
H1439 C1468 0.950 . S
H1440 C1470 0.950 . S
H1441 C1471 0.936 1_545 S
C1442 H1424 0.951 . S
C1442 C1443 1.366 . S
C1442 C1444 1.388 . S
C1443 C1442 1.366 . S
C1443 C1447 1.385 . S
C1444 H1425 0.951 . S
C1444 C1442 1.388 . S
C1444 C1445 1.366 . S
C1445 C1444 1.366 . S
C1445 C1446 1.414 . S
C1445 C1448 1.499 . S
C1446 H1426 0.950 . S
C1446 C1445 1.414 . S
C1446 C1447 1.374 . S
C1447 H1427 0.950 . S
C1447 C1443 1.385 . S
C1447 C1446 1.374 . S
C1448 C1445 1.499 . S
C1448 C1449 1.373 . S
C1448 C1450 1.389 . S
C1449 H1428 0.950 . S
C1449 C1448 1.373 . S
C1449 C1465 1.377 1_545 S
C1450 C1448 1.389 . S
C1450 C1451 1.524 . S
C1450 C1464 1.377 1_545 S
C1451 C1450 1.524 . S
C1451 C1452 1.397 . S
C1451 C1456 1.363 . S
C1452 H1429 0.950 . S
C1452 C1451 1.397 . S
C1452 C1453 1.334 . S
C1453 H1430 0.950 . S
C1453 C1452 1.334 . S
C1453 C1454 1.287 . S
C1454 C1453 1.287 . S
C1454 C1455 1.524 . S
C1454 H1473 0.913 . S
C1455 H1431 0.950 . S
C1455 C1454 1.524 . S
C1455 C1456 1.415 . S
C1456 H1432 0.936 1_545 S
C1456 C1451 1.363 . S
C1456 C1455 1.415 . S
C1457 H1433 0.951 . S
C1457 C1458 1.366 . S
C1457 C1459 1.388 . S
C1458 C1457 1.366 . S
C1458 C1462 1.385 . S
C1459 H1434 0.951 . S
C1459 C1457 1.388 . S
C1459 C1460 1.366 . S
C1460 C1459 1.366 . S
C1460 C1461 1.414 . S
C1460 C1463 1.499 . S
C1461 H1435 0.950 . S
C1461 C1460 1.414 . S
C1461 C1462 1.374 . S
C1462 H1436 0.950 . S
C1462 C1458 1.385 . S
C1462 C1461 1.374 . S
C1463 C1460 1.499 . S
C1463 C1464 1.373 . S
C1463 C1465 1.389 . S
C1464 H1437 0.950 . S
C1464 C1450 1.377 1_565 S
C1464 C1463 1.373 . S
C1465 C1449 1.377 1_565 S
C1465 C1463 1.389 . S
C1465 C1466 1.524 . S
C1466 C1465 1.524 . S
C1466 C1467 1.397 . S
C1466 C1471 1.363 . S
C1467 H1438 0.950 . S
C1467 C1466 1.397 . S
C1467 C1468 1.334 . S
C1468 H1439 0.950 . S
C1468 C1467 1.334 . S
C1468 C1469 1.287 . S
C1469 C1468 1.287 . S
C1469 C1470 1.524 . S
C1469 H1472 0.999 . S
C1470 H1440 0.950 . S
C1470 C1469 1.524 . S
C1470 C1471 1.415 . S
C1471 H1441 0.936 1_565 S
C1471 C1466 1.363 . S
C1471 C1470 1.415 . S
H1472 C1469 0.999 . S
H1473 C1454 0.913 . S
H1474 C1492 0.951 . S
H1475 C1494 0.951 . S
H1476 C1496 0.950 . S
H1477 C1497 0.950 . S
H1478 C1499 0.950 . S
H1479 C1502 0.950 . S
H1480 C1503 0.950 . S
H1481 C1505 0.950 . S
H1482 C1506 0.950 . S
H1483 C1507 0.951 . S
H1484 C1509 0.951 . S
H1485 C1511 0.950 . S
H1486 C1512 0.950 . S
H1487 C1514 0.950 . S
H1488 C1517 0.950 . S
H1489 C1518 0.950 . S
H1490 C1520 0.950 . S
H1491 C1521 0.950 . S
C1492 H1474 0.951 . S
C1492 C1493 1.366 . S
C1492 C1494 1.388 . S
C1493 C1492 1.366 . S
C1493 C1497 1.385 . S
C1494 H1475 0.951 . S
C1494 C1492 1.388 . S
C1494 C1495 1.366 . S
C1495 C1494 1.366 . S
C1495 C1496 1.414 . S
C1495 C1498 1.499 . S
C1496 H1476 0.950 . S
C1496 C1495 1.414 . S
C1496 C1497 1.374 . S
C1497 H1477 0.950 . S
C1497 C1493 1.385 . S
C1497 C1496 1.374 . S
C1498 C1495 1.499 . S
C1498 C1499 1.373 . S
C1498 C1500 1.389 . S
C1499 H1478 0.950 . S
C1499 C1498 1.373 . S
C1499 C1515 1.377 1_655 S
C1500 C1498 1.389 . S
C1500 C1501 1.524 . S
C1500 C1514 1.377 1_655 S
C1501 C1500 1.524 . S
C1501 C1502 1.397 . S
C1501 C1506 1.363 . S
C1502 H1479 0.950 . S
C1502 C1501 1.397 . S
C1502 C1503 1.334 . S
C1503 H1480 0.950 . S
C1503 C1502 1.334 . S
C1503 C1504 1.287 . S
C1504 C1503 1.287 . S
C1504 C1505 1.524 . S
C1504 H1523 0.913 . S
C1505 H1481 0.950 . S
C1505 C1504 1.524 . S
C1505 C1506 1.415 . S
C1506 H1482 0.950 . S
C1506 C1501 1.363 . S
C1506 C1505 1.415 . S
C1507 H1483 0.951 . S
C1507 C1508 1.366 . S
C1507 C1509 1.388 . S
C1508 C1507 1.366 . S
C1508 C1512 1.385 . S
C1509 H1484 0.951 . S
C1509 C1507 1.388 . S
C1509 C1510 1.366 . S
C1510 C1509 1.366 . S
C1510 C1511 1.414 . S
C1510 C1513 1.499 . S
C1511 H1485 0.950 . S
C1511 C1510 1.414 . S
C1511 C1512 1.374 . S
C1512 H1486 0.950 . S
C1512 C1508 1.385 . S
C1512 C1511 1.374 . S
C1513 C1510 1.499 . S
C1513 C1514 1.373 . S
C1513 C1515 1.389 . S
C1514 H1487 0.950 . S
C1514 C1500 1.377 1_455 S
C1514 C1513 1.373 . S
C1515 C1499 1.377 1_455 S
C1515 C1513 1.389 . S
C1515 C1516 1.524 . S
C1516 C1515 1.524 . S
C1516 C1517 1.397 . S
C1516 C1521 1.363 . S
C1517 H1488 0.950 . S
C1517 C1516 1.397 . S
C1517 C1518 1.334 . S
C1518 H1489 0.950 . S
C1518 C1517 1.334 . S
C1518 C1519 1.287 . S
C1519 C1518 1.287 . S
C1519 C1520 1.524 . S
C1519 H1522 0.999 . S
C1520 H1490 0.950 . S
C1520 C1519 1.524 . S
C1520 C1521 1.415 . S
C1521 H1491 0.950 . S
C1521 C1516 1.363 . S
C1521 C1520 1.415 . S
H1522 C1519 0.999 . S
H1523 C1504 0.913 . S
H1524 C1542 0.951 . S
H1525 C1544 0.951 . S
H1526 C1546 0.950 . S
H1527 C1547 0.950 . S
H1528 C1549 0.950 . S
H1529 C1552 0.950 . S
H1530 C1553 0.950 . S
H1531 C1555 0.950 . S
H1532 C1556 0.950 . S
H1533 C1557 0.951 . S
H1534 C1559 0.951 . S
H1535 C1561 0.950 . S
H1536 C1562 0.950 . S
H1537 C1564 0.950 . S
H1538 C1567 0.950 . S
H1539 C1568 0.950 . S
H1540 C1570 0.950 . S
H1541 C1571 0.950 . S
C1542 H1524 0.951 . S
C1542 C1543 1.366 . S
C1542 C1544 1.388 . S
C1543 C1542 1.366 . S
C1543 C1547 1.385 . S
C1544 H1525 0.951 . S
C1544 C1542 1.388 . S
C1544 C1545 1.366 . S
C1545 C1544 1.366 . S
C1545 C1546 1.414 . S
C1545 C1548 1.499 . S
C1546 H1526 0.950 . S
C1546 C1545 1.414 . S
C1546 C1547 1.374 . S
C1547 H1527 0.950 . S
C1547 C1543 1.385 . S
C1547 C1546 1.374 . S
C1548 C1545 1.499 . S
C1548 C1549 1.373 . S
C1548 C1550 1.389 . S
C1549 H1528 0.950 . S
C1549 C1548 1.373 . S
C1549 C1565 1.377 1_545 S
C1550 C1548 1.389 . S
C1550 C1551 1.524 . S
C1550 C1564 1.377 1_545 S
C1551 C1550 1.524 . S
C1551 C1552 1.397 . S
C1551 C1556 1.363 . S
C1552 H1529 0.950 . S
C1552 C1551 1.397 . S
C1552 C1553 1.334 . S
C1553 H1530 0.950 . S
C1553 C1552 1.334 . S
C1553 C1554 1.287 . S
C1554 C1553 1.287 . S
C1554 C1555 1.524 . S
C1554 H1573 0.913 . S
C1555 H1531 0.950 . S
C1555 C1554 1.524 . S
C1555 C1556 1.415 . S
C1556 H1532 0.950 . S
C1556 C1551 1.363 . S
C1556 C1555 1.415 . S
C1557 H1533 0.951 . S
C1557 C1558 1.366 . S
C1557 C1559 1.388 . S
C1558 C1557 1.366 . S
C1558 C1562 1.385 . S
C1559 H1534 0.951 . S
C1559 C1557 1.388 . S
C1559 C1560 1.366 . S
C1560 C1559 1.366 . S
C1560 C1561 1.414 . S
C1560 C1563 1.499 . S
C1561 H1535 0.950 . S
C1561 C1560 1.414 . S
C1561 C1562 1.374 . S
C1562 H1536 0.950 . S
C1562 C1558 1.385 . S
C1562 C1561 1.374 . S
C1563 C1560 1.499 . S
C1563 C1564 1.373 . S
C1563 C1565 1.389 . S
C1564 H1537 0.950 . S
C1564 C1550 1.377 1_565 S
C1564 C1563 1.373 . S
C1565 C1549 1.377 1_565 S
C1565 C1563 1.389 . S
C1565 C1566 1.524 . S
C1566 C1565 1.524 . S
C1566 C1567 1.397 . S
C1566 C1571 1.363 . S
C1567 H1538 0.950 . S
C1567 C1566 1.397 . S
C1567 C1568 1.334 . S
C1568 H1539 0.950 . S
C1568 C1567 1.334 . S
C1568 C1569 1.287 . S
C1569 C1568 1.287 . S
C1569 C1570 1.524 . S
C1569 H1572 0.999 . S
C1570 H1540 0.950 . S
C1570 C1569 1.524 . S
C1570 C1571 1.415 . S
C1571 H1541 0.950 . S
C1571 C1566 1.363 . S
C1571 C1570 1.415 . S
H1572 C1569 0.999 . S
H1573 C1554 0.913 . S
H1574 C1592 0.951 . S
H1575 C1594 0.951 . S
H1576 C1596 0.950 . S
H1577 C1597 0.950 . S
H1578 C1599 0.950 . S
H1579 C1602 0.950 . S
H1580 C1603 0.950 . S
H1581 C1605 0.950 . S
H1582 C1606 0.950 . S
H1583 C1607 0.951 . S
H1584 C1609 0.951 . S
H1585 C1611 0.950 . S
H1586 C1612 0.950 . S
H1587 C1614 0.950 . S
H1588 C1617 0.950 . S
H1589 C1618 0.950 . S
H1590 C1620 0.950 . S
H1591 C1621 0.950 . S
C1592 H1574 0.951 . S
C1592 C1593 1.366 . S
C1592 C1594 1.388 . S
C1593 C1592 1.366 . S
C1593 C1597 1.385 . S
C1594 H1575 0.951 . S
C1594 C1592 1.388 . S
C1594 C1595 1.366 . S
C1595 C1594 1.366 . S
C1595 C1596 1.414 . S
C1595 C1598 1.499 . S
C1596 H1576 0.950 . S
C1596 C1595 1.414 . S
C1596 C1597 1.374 . S
C1597 H1577 0.950 . S
C1597 C1593 1.385 . S
C1597 C1596 1.374 . S
C1598 C1595 1.499 . S
C1598 C1599 1.373 . S
C1598 C1600 1.389 . S
C1599 H1578 0.950 . S
C1599 C1598 1.373 . S
C1599 C1615 1.377 1_455 S
C1600 C1598 1.389 . S
C1600 C1601 1.524 . S
C1600 C1614 1.377 1_455 S
C1601 C1600 1.524 . S
C1601 C1602 1.397 . S
C1601 C1606 1.363 . S
C1602 H1579 0.950 . S
C1602 C1601 1.397 . S
C1602 C1603 1.334 . S
C1603 H1580 0.950 . S
C1603 C1602 1.334 . S
C1603 C1604 1.287 . S
C1604 C1603 1.287 . S
C1604 C1605 1.524 . S
C1604 H1623 0.913 . S
C1605 H1581 0.950 . S
C1605 C1604 1.524 . S
C1605 C1606 1.415 . S
C1606 H1582 0.950 . S
C1606 C1601 1.363 . S
C1606 C1605 1.415 . S
C1607 H1583 0.951 . S
C1607 C1608 1.366 . S
C1607 C1609 1.388 . S
C1608 C1607 1.366 . S
C1608 C1612 1.385 . S
C1609 H1584 0.951 . S
C1609 C1607 1.388 . S
C1609 C1610 1.366 . S
C1610 C1609 1.366 . S
C1610 C1611 1.414 . S
C1610 C1613 1.499 . S
C1611 H1585 0.950 . S
C1611 C1610 1.414 . S
C1611 C1612 1.374 . S
C1612 H1586 0.950 . S
C1612 C1608 1.385 . S
C1612 C1611 1.374 . S
C1613 C1610 1.499 . S
C1613 C1614 1.373 . S
C1613 C1615 1.389 . S
C1614 H1587 0.950 . S
C1614 C1600 1.377 1_655 S
C1614 C1613 1.373 . S
C1615 C1599 1.377 1_655 S
C1615 C1613 1.389 . S
C1615 C1616 1.524 . S
C1616 C1615 1.524 . S
C1616 C1617 1.397 . S
C1616 C1621 1.363 . S
C1617 H1588 0.950 . S
C1617 C1616 1.397 . S
C1617 C1618 1.334 . S
C1618 H1589 0.950 . S
C1618 C1617 1.334 . S
C1618 C1619 1.287 . S
C1619 C1618 1.287 . S
C1619 C1620 1.524 . S
C1619 H1622 0.999 . S
C1620 H1590 0.950 . S
C1620 C1619 1.524 . S
C1620 C1621 1.415 . S
C1621 H1591 0.950 . S
C1621 C1616 1.363 . S
C1621 C1620 1.415 . S
H1622 C1619 0.999 . S
H1623 C1604 0.913 . S
H1624 C1642 0.951 . S
H1625 C1644 0.951 . S
H1626 C1646 0.950 . S
H1627 C1647 0.950 . S
H1628 C1649 0.950 . S
H1629 C1652 0.950 . S
H1630 C1653 0.950 . S
H1631 C1655 0.950 . S
H1632 C1656 0.950 . S
H1633 C1657 0.951 . S
H1634 C1659 0.951 . S
H1635 C1661 0.950 . S
H1636 C1662 0.950 . S
H1637 C1664 0.950 . S
H1638 C1667 0.950 . S
H1639 C1668 0.950 . S
H1640 C1670 0.950 . S
H1641 C1671 0.950 . S
C1642 H1624 0.951 . S
C1642 C1643 1.366 . S
C1642 C1644 1.388 . S
C1643 C1642 1.366 . S
C1643 C1647 1.385 . S
C1644 H1625 0.951 . S
C1644 C1642 1.388 . S
C1644 C1645 1.366 . S
C1645 C1644 1.366 . S
C1645 C1646 1.414 . S
C1645 C1648 1.499 . S
C1646 H1626 0.950 . S
C1646 C1645 1.414 . S
C1646 C1647 1.374 . S
C1647 H1627 0.950 . S
C1647 C1643 1.385 . S
C1647 C1646 1.374 . S
C1648 C1645 1.499 . S
C1648 C1649 1.373 . S
C1648 C1650 1.389 . S
C1649 H1628 0.950 . S
C1649 C1648 1.373 . S
C1649 C1665 1.377 1_545 S
C1650 C1648 1.389 . S
C1650 C1651 1.524 . S
C1650 C1664 1.377 1_545 S
C1651 C1650 1.524 . S
C1651 C1652 1.397 . S
C1651 C1656 1.363 . S
C1652 H1629 0.950 . S
C1652 C1651 1.397 . S
C1652 C1653 1.334 . S
C1653 H1630 0.950 . S
C1653 C1652 1.334 . S
C1653 C1654 1.287 . S
C1654 C1653 1.287 . S
C1654 C1655 1.524 . S
C1654 H1673 0.913 . S
C1655 H1631 0.950 . S
C1655 C1654 1.524 . S
C1655 C1656 1.415 . S
C1656 H1632 0.950 . S
C1656 C1651 1.363 . S
C1656 C1655 1.415 . S
C1657 H1633 0.951 . S
C1657 C1658 1.366 . S
C1657 C1659 1.388 . S
C1658 C1657 1.366 . S
C1658 C1662 1.385 . S
C1659 H1634 0.951 . S
C1659 C1657 1.388 . S
C1659 C1660 1.366 . S
C1660 C1659 1.366 . S
C1660 C1661 1.414 . S
C1660 C1663 1.499 . S
C1661 H1635 0.950 . S
C1661 C1660 1.414 . S
C1661 C1662 1.374 . S
C1662 H1636 0.950 . S
C1662 C1658 1.385 . S
C1662 C1661 1.374 . S
C1663 C1660 1.499 . S
C1663 C1664 1.373 . S
C1663 C1665 1.389 . S
C1664 H1637 0.950 . S
C1664 C1650 1.377 1_565 S
C1664 C1663 1.373 . S
C1665 C1649 1.377 1_565 S
C1665 C1663 1.389 . S
C1665 C1666 1.524 . S
C1666 C1665 1.524 . S
C1666 C1667 1.397 . S
C1666 C1671 1.363 . S
C1667 H1638 0.950 . S
C1667 C1666 1.397 . S
C1667 C1668 1.334 . S
C1668 H1639 0.950 . S
C1668 C1667 1.334 . S
C1668 C1669 1.287 . S
C1669 C1668 1.287 . S
C1669 C1670 1.524 . S
C1669 H1672 0.999 . S
C1670 H1640 0.950 . S
C1670 C1669 1.524 . S
C1670 C1671 1.415 . S
C1671 H1641 0.950 . S
C1671 C1666 1.363 . S
C1671 C1670 1.415 . S
H1672 C1669 0.999 . S
H1673 C1654 0.913 . S
H1674 C1692 0.951 . S
H1675 C1694 0.951 . S
H1676 C1696 0.950 . S
H1677 C1697 0.950 . S
H1678 C1699 0.950 . S
H1679 C1702 0.950 . S
H1680 C1703 0.950 . S
H1681 C1705 0.950 . S
H1682 C1706 0.950 . S
H1683 C1707 0.951 . S
H1684 C1709 0.951 . S
H1685 C1711 0.950 . S
H1686 C1712 0.950 . S
H1687 C1714 0.950 . S
H1688 C1717 0.950 . S
H1689 C1718 0.950 . S
H1690 C1720 0.950 . S
H1691 C1721 0.950 . S
C1692 H1674 0.951 . S
C1692 C1693 1.366 . S
C1692 C1694 1.388 . S
C1693 C1692 1.366 . S
C1693 C1697 1.385 . S
C1694 H1675 0.951 . S
C1694 C1692 1.388 . S
C1694 C1695 1.366 . S
C1695 C1694 1.366 . S
C1695 C1696 1.414 . S
C1695 C1698 1.499 . S
C1696 H1676 0.950 . S
C1696 C1695 1.414 . S
C1696 C1697 1.374 . S
C1697 H1677 0.950 . S
C1697 C1693 1.385 . S
C1697 C1696 1.374 . S
C1698 C1695 1.499 . S
C1698 C1699 1.373 . S
C1698 C1700 1.389 . S
C1699 H1678 0.950 . S
C1699 C1698 1.373 . S
C1699 C1715 1.377 1_655 S
C1700 C1698 1.389 . S
C1700 C1701 1.524 . S
C1700 C1714 1.377 1_655 S
C1701 C1700 1.524 . S
C1701 C1702 1.397 . S
C1701 C1706 1.363 1_655 S
C1702 H1679 0.950 . S
C1702 C1701 1.397 . S
C1702 C1703 1.334 . S
C1703 H1680 0.950 . S
C1703 C1702 1.334 . S
C1703 C1704 1.287 . S
C1704 C1703 1.287 . S
C1704 C1705 1.524 1_655 S
C1704 H1723 0.913 . S
C1705 H1681 0.950 . S
C1705 C1704 1.524 1_455 S
C1705 C1706 1.415 . S
C1706 H1682 0.950 . S
C1706 C1701 1.363 1_455 S
C1706 C1705 1.415 . S
C1707 H1683 0.951 . S
C1707 C1708 1.366 . S
C1707 C1709 1.388 . S
C1708 C1707 1.366 . S
C1708 C1712 1.385 . S
C1709 H1684 0.951 . S
C1709 C1707 1.388 . S
C1709 C1710 1.366 . S
C1710 C1709 1.366 . S
C1710 C1711 1.414 . S
C1710 C1713 1.499 . S
C1711 H1685 0.950 . S
C1711 C1710 1.414 . S
C1711 C1712 1.374 . S
C1712 H1686 0.950 . S
C1712 C1708 1.385 . S
C1712 C1711 1.374 . S
C1713 C1710 1.499 . S
C1713 C1714 1.373 . S
C1713 C1715 1.389 . S
C1714 H1687 0.950 . S
C1714 C1700 1.377 1_455 S
C1714 C1713 1.373 . S
C1715 C1699 1.377 1_455 S
C1715 C1713 1.389 . S
C1715 C1716 1.524 . S
C1716 C1715 1.524 . S
C1716 C1717 1.397 . S
C1716 C1721 1.363 1_455 S
C1717 H1688 0.950 . S
C1717 C1716 1.397 . S
C1717 C1718 1.334 . S
C1718 H1689 0.950 . S
C1718 C1717 1.334 . S
C1718 C1719 1.287 . S
C1719 C1718 1.287 . S
C1719 C1720 1.524 1_455 S
C1719 H1722 0.999 . S
C1720 H1690 0.950 . S
C1720 C1719 1.524 1_655 S
C1720 C1721 1.415 . S
C1721 H1691 0.950 . S
C1721 C1716 1.363 1_655 S
C1721 C1720 1.415 . S
H1722 C1719 0.999 . S
H1723 C1704 0.913 . S
H1724 C1742 0.951 . S
H1725 C1744 0.951 . S
H1726 C1746 0.950 . S
H1727 C1747 0.950 . S
H1728 C1749 0.950 . S
H1729 C1752 0.950 . S
H1730 C1753 0.950 . S
H1731 C1755 0.950 1_545 S
H1732 C1756 0.952 1_545 S
H1733 C1757 0.951 . S
H1734 C1759 0.951 . S
H1735 C1761 0.950 . S
H1736 C1762 0.950 . S
H1737 C1764 0.950 . S
H1738 C1767 0.950 . S
H1739 C1768 0.950 . S
H1740 C1770 0.950 1_565 S
H1741 C1771 0.952 1_565 S
C1742 H1724 0.951 . S
C1742 C1743 1.366 . S
C1742 C1744 1.388 . S
C1743 C1742 1.366 . S
C1743 C1747 1.385 . S
C1744 H1725 0.951 . S
C1744 C1742 1.388 . S
C1744 C1745 1.366 . S
C1745 C1744 1.366 . S
C1745 C1746 1.414 . S
C1745 C1748 1.499 . S
C1746 H1726 0.950 . S
C1746 C1745 1.414 . S
C1746 C1747 1.374 . S
C1747 H1727 0.950 . S
C1747 C1743 1.385 . S
C1747 C1746 1.374 . S
C1748 C1745 1.499 . S
C1748 C1749 1.373 . S
C1748 C1750 1.389 . S
C1749 H1728 0.950 . S
C1749 C1748 1.373 . S
C1749 C1765 1.377 1_565 S
C1750 C1748 1.389 . S
C1750 C1751 1.524 . S
C1750 C1764 1.377 1_565 S
C1751 C1750 1.524 . S
C1751 C1752 1.397 . S
C1751 C1756 1.362 . S
C1752 H1729 0.950 . S
C1752 C1751 1.397 . S
C1752 C1753 1.334 . S
C1753 H1730 0.950 . S
C1753 C1752 1.334 . S
C1753 C1754 1.287 . S
C1754 C1753 1.287 . S
C1754 C1755 1.524 . S
C1754 H1773 0.913 . S
C1755 H1731 0.950 1_565 S
C1755 C1754 1.524 . S
C1755 C1756 1.415 . S
C1756 H1732 0.952 1_565 S
C1756 C1751 1.362 . S
C1756 C1755 1.415 . S
C1757 H1733 0.951 . S
C1757 C1758 1.366 . S
C1757 C1759 1.388 . S
C1758 C1757 1.366 . S
C1758 C1762 1.385 . S
C1759 H1734 0.951 . S
C1759 C1757 1.388 . S
C1759 C1760 1.366 . S
C1760 C1759 1.366 . S
C1760 C1761 1.414 . S
C1760 C1763 1.499 . S
C1761 H1735 0.950 . S
C1761 C1760 1.414 . S
C1761 C1762 1.374 . S
C1762 H1736 0.950 . S
C1762 C1758 1.385 . S
C1762 C1761 1.374 . S
C1763 C1760 1.499 . S
C1763 C1764 1.373 . S
C1763 C1765 1.389 . S
C1764 H1737 0.950 . S
C1764 C1750 1.377 1_545 S
C1764 C1763 1.373 . S
C1765 C1749 1.377 1_545 S
C1765 C1763 1.389 . S
C1765 C1766 1.524 . S
C1766 C1765 1.524 . S
C1766 C1767 1.397 . S
C1766 C1771 1.362 . S
C1767 H1738 0.950 . S
C1767 C1766 1.397 . S
C1767 C1768 1.334 . S
C1768 H1739 0.950 . S
C1768 C1767 1.334 . S
C1768 C1769 1.287 . S
C1769 C1768 1.287 . S
C1769 C1770 1.524 . S
C1769 H1772 0.999 . S
C1770 H1740 0.950 1_545 S
C1770 C1769 1.524 . S
C1770 C1771 1.415 . S
C1771 H1741 0.952 1_545 S
C1771 C1766 1.362 . S
C1771 C1770 1.415 . S
H1772 C1769 0.999 . S
H1773 C1754 0.913 . S
H1774 C1792 0.951 . S
H1775 C1794 0.951 . S
H1776 C1796 0.950 . S
H1777 C1797 0.950 . S
H1778 C1799 0.950 . S
H1779 C1802 0.950 . S
H1780 C1803 0.950 . S
H1781 C1805 0.950 . S
H1782 C1806 0.950 . S
H1783 C1807 0.951 . S
H1784 C1809 0.951 . S
H1785 C1811 0.950 . S
H1786 C1812 0.950 . S
H1787 C1814 0.950 . S
H1788 C1817 0.950 . S
H1789 C1818 0.950 . S
H1790 C1820 0.950 . S
H1791 C1821 0.950 . S
C1792 H1774 0.951 . S
C1792 C1793 1.366 . S
C1792 C1794 1.388 . S
C1793 C1792 1.366 . S
C1793 C1797 1.385 . S
C1794 H1775 0.951 . S
C1794 C1792 1.388 . S
C1794 C1795 1.366 . S
C1795 C1794 1.366 . S
C1795 C1796 1.414 . S
C1795 C1798 1.499 . S
C1796 H1776 0.950 . S
C1796 C1795 1.414 . S
C1796 C1797 1.374 . S
C1797 H1777 0.950 . S
C1797 C1793 1.385 . S
C1797 C1796 1.374 . S
C1798 C1795 1.499 . S
C1798 C1799 1.373 . S
C1798 C1800 1.389 . S
C1799 H1778 0.950 . S
C1799 C1798 1.373 . S
C1799 C1815 1.377 1_455 S
C1800 C1798 1.389 . S
C1800 C1801 1.524 . S
C1800 C1814 1.377 1_455 S
C1801 C1800 1.524 . S
C1801 C1802 1.397 . S
C1801 C1806 1.363 1_455 S
C1802 H1779 0.950 . S
C1802 C1801 1.397 . S
C1802 C1803 1.334 . S
C1803 H1780 0.950 . S
C1803 C1802 1.334 . S
C1803 C1804 1.287 . S
C1804 C1803 1.287 . S
C1804 C1805 1.524 1_455 S
C1804 H1823 0.913 . S
C1805 H1781 0.950 . S
C1805 C1804 1.524 1_655 S
C1805 C1806 1.415 . S
C1806 H1782 0.950 . S
C1806 C1801 1.363 1_655 S
C1806 C1805 1.415 . S
C1807 H1783 0.951 . S
C1807 C1808 1.366 . S
C1807 C1809 1.388 . S
C1808 C1807 1.366 . S
C1808 C1812 1.385 . S
C1809 H1784 0.951 . S
C1809 C1807 1.388 . S
C1809 C1810 1.366 . S
C1810 C1809 1.366 . S
C1810 C1811 1.414 . S
C1810 C1813 1.499 . S
C1811 H1785 0.950 . S
C1811 C1810 1.414 . S
C1811 C1812 1.374 . S
C1812 H1786 0.950 . S
C1812 C1808 1.385 . S
C1812 C1811 1.374 . S
C1813 C1810 1.499 . S
C1813 C1814 1.373 . S
C1813 C1815 1.389 . S
C1814 H1787 0.950 . S
C1814 C1800 1.377 1_655 S
C1814 C1813 1.373 . S
C1815 C1799 1.377 1_655 S
C1815 C1813 1.389 . S
C1815 C1816 1.524 . S
C1816 C1815 1.524 . S
C1816 C1817 1.397 . S
C1816 C1821 1.363 1_655 S
C1817 H1788 0.950 . S
C1817 C1816 1.397 . S
C1817 C1818 1.334 . S
C1818 H1789 0.950 . S
C1818 C1817 1.334 . S
C1818 C1819 1.287 . S
C1819 C1818 1.287 . S
C1819 C1820 1.524 1_655 S
C1819 H1822 0.999 . S
C1820 H1790 0.950 . S
C1820 C1819 1.524 1_455 S
C1820 C1821 1.415 . S
C1821 H1791 0.950 . S
C1821 C1816 1.363 1_455 S
C1821 C1820 1.415 . S
H1822 C1819 0.999 . S
H1823 C1804 0.913 . S
C243 C81 1.110 . S
C258 C11 1.111 . S
C293 C95 1.111 . S
C308 C25 1.110 . S
C343 C39 1.110 . S
C358 C109 1.110 . S
C393 C53 1.111 . S
C408 C67 1.110 . S
C443 C193 1.110 . S
C458 C123 1.110 . S
C493 C207 1.111 . S
C508 C137 1.110 . S
C543 C151 1.110 . S
C558 C221 1.111 . S
C593 C165 1.111 . S
C608 C179 1.110 . S
C643 C152 1.518 . S
C658 C12 1.518 . S
C693 C166 1.518 . S
C708 C26 1.518 . S
C743 C124 1.518 . S
C758 C40 1.518 . S
C793 C54 1.518 . S
C808 C138 1.518 . S
C843 C208 1.518 . S
C858 C68 1.518 . S
C893 C222 1.518 . S
C908 C82 1.518 . S
C943 C96 1.518 . S
C958 C180 1.518 . S
C993 C194 1.518 . S
C1008 C110 1.518 . S
C1043 C61 1.033 . S
C1058 C5 1.031 . S
C1093 C19 1.032 . S
C1108 C75 1.031 . S
C1143 C33 1.031 . S
C1158 C89 1.032 . S
C1193 C103 1.031 . S
C1208 C47 1.034 . S
C1243 C116 1.573 . S
C1258 C172 1.573 . S
C1293 C186 1.573 . S
C1308 C130 1.573 . S
C1343 C144 1.573 . S
C1358 C200 1.573 . S
C1393 C214 1.573 . S
C1408 C158 1.572 . S
C1443 C159 1.032 . S
C1458 C187 1.033 . S
C1493 C117 1.031 . S
C1508 C201 1.033 . S
C1543 C215 1.032 . S
C1558 C131 1.031 . S
C1593 C145 1.033 . S
C1608 C173 1.031 . S
C1643 C74 1.573 . S
C1658 C46 1.572 . S
C1693 C88 1.573 . S
C1708 C4 1.573 . S
C1743 C102 1.573 . S
C1758 C18 1.573 . S
C1793 C60 1.573 . S
C1808 C32 1.573 . S
