# Generated by pormake.
# Topology wig, (6)-cn, num edge types: 1
# Building blocks:
#     Node 0, Type 0, BuildingBlock: OJICUG_clean_sbu_0, # of connection points: 6
#     Node 1, Type 0, BuildingBlock: OJICUG_clean_sbu_0, # of connection points: 6
#     Node 2, Type 0, BuildingBlock: OJICUG_clean_sbu_0, # of connection points: 6
#     Node 3, Type 0, BuildingBlock: OJICUG_clean_sbu_0, # of connection points: 6
#     Node 4, Type 0, BuildingBlock: OJICUG_clean_sbu_0, # of connection points: 6
#     Node 5, Type 0, BuildingBlock: OJICUG_clean_sbu_0, # of connection points: 6
#     Node 6, Type 0, BuildingBlock: OJICUG_clean_sbu_0, # of connection points: 6
#     Node 7, Type 0, BuildingBlock: OJICUG_clean_sbu_0, # of connection points: 6
#     Node 8, Type 0, BuildingBlock: OJICUG_clean_sbu_0, # of connection points: 6
#     Node 9, Type 0, BuildingBlock: OJICUG_clean_sbu_0, # of connection points: 6
#     Node 10, Type 0, BuildingBlock: OJICUG_clean_sbu_0, # of connection points: 6
#     Node 11, Type 0, BuildingBlock: OJICUG_clean_sbu_0, # of connection points: 6
#     Node 12, Type 0, BuildingBlock: OJICUG_clean_sbu_0, # of connection points: 6
#     Node 13, Type 0, BuildingBlock: OJICUG_clean_sbu_0, # of connection points: 6
#     Node 14, Type 0, BuildingBlock: OJICUG_clean_sbu_0, # of connection points: 6
#     Node 15, Type 0, BuildingBlock: OJICUG_clean_sbu_0, # of connection points: 6
#     Edge 16, Type (0, 0), BuildingBlock: XUDNAN_clean_linker_2, # of connection points: 2
#     Edge 17, Type (0, 0), BuildingBlock: XUDNAN_clean_linker_2, # of connection points: 2
#     Edge 18, Type (0, 0), BuildingBlock: XUDNAN_clean_linker_2, # of connection points: 2
#     Edge 19, Type (0, 0), BuildingBlock: XUDNAN_clean_linker_2, # of connection points: 2
#     Edge 20, Type (0, 0), BuildingBlock: XUDNAN_clean_linker_2, # of connection points: 2
#     Edge 21, Type (0, 0), BuildingBlock: XUDNAN_clean_linker_2, # of connection points: 2
#     Edge 22, Type (0, 0), BuildingBlock: XUDNAN_clean_linker_2, # of connection points: 2
#     Edge 23, Type (0, 0), BuildingBlock: XUDNAN_clean_linker_2, # of connection points: 2
#     Edge 24, Type (0, 0), BuildingBlock: XUDNAN_clean_linker_2, # of connection points: 2
#     Edge 25, Type (0, 0), BuildingBlock: XUDNAN_clean_linker_2, # of connection points: 2
#     Edge 26, Type (0, 0), BuildingBlock: XUDNAN_clean_linker_2, # of connection points: 2
#     Edge 27, Type (0, 0), BuildingBlock: XUDNAN_clean_linker_2, # of connection points: 2
#     Edge 28, Type (0, 0), BuildingBlock: XUDNAN_clean_linker_2, # of connection points: 2
#     Edge 29, Type (0, 0), BuildingBlock: XUDNAN_clean_linker_2, # of connection points: 2
#     Edge 30, Type (0, 0), BuildingBlock: XUDNAN_clean_linker_2, # of connection points: 2
#     Edge 31, Type (0, 0), BuildingBlock: XUDNAN_clean_linker_2, # of connection points: 2
#     Edge 32, Type (0, 0), BuildingBlock: XUDNAN_clean_linker_2, # of connection points: 2
#     Edge 33, Type (0, 0), BuildingBlock: XUDNAN_clean_linker_2, # of connection points: 2
#     Edge 34, Type (0, 0), BuildingBlock: XUDNAN_clean_linker_2, # of connection points: 2
#     Edge 35, Type (0, 0), BuildingBlock: XUDNAN_clean_linker_2, # of connection points: 2
#     Edge 36, Type (0, 0), BuildingBlock: XUDNAN_clean_linker_2, # of connection points: 2
#     Edge 37, Type (0, 0), BuildingBlock: XUDNAN_clean_linker_2, # of connection points: 2
#     Edge 38, Type (0, 0), BuildingBlock: XUDNAN_clean_linker_2, # of connection points: 2
#     Edge 39, Type (0, 0), BuildingBlock: XUDNAN_clean_linker_2, # of connection points: 2
#     Edge 40, Type (0, 0), BuildingBlock: XUDNAN_clean_linker_2, # of connection points: 2
#     Edge 41, Type (0, 0), BuildingBlock: XUDNAN_clean_linker_2, # of connection points: 2
#     Edge 42, Type (0, 0), BuildingBlock: XUDNAN_clean_linker_2, # of connection points: 2
#     Edge 43, Type (0, 0), BuildingBlock: XUDNAN_clean_linker_2, # of connection points: 2
#     Edge 44, Type (0, 0), BuildingBlock: XUDNAN_clean_linker_2, # of connection points: 2
#     Edge 45, Type (0, 0), BuildingBlock: XUDNAN_clean_linker_2, # of connection points: 2
#     Edge 46, Type (0, 0), BuildingBlock: XUDNAN_clean_linker_2, # of connection points: 2
#     Edge 47, Type (0, 0), BuildingBlock: XUDNAN_clean_linker_2, # of connection points: 2
#     Edge 48, Type (0, 0), BuildingBlock: XUDNAN_clean_linker_2, # of connection points: 2
#     Edge 49, Type (0, 0), BuildingBlock: XUDNAN_clean_linker_2, # of connection points: 2
#     Edge 50, Type (0, 0), BuildingBlock: XUDNAN_clean_linker_2, # of connection points: 2
#     Edge 51, Type (0, 0), BuildingBlock: XUDNAN_clean_linker_2, # of connection points: 2
#     Edge 52, Type (0, 0), BuildingBlock: XUDNAN_clean_linker_2, # of connection points: 2
#     Edge 53, Type (0, 0), BuildingBlock: XUDNAN_clean_linker_2, # of connection points: 2
#     Edge 54, Type (0, 0), BuildingBlock: XUDNAN_clean_linker_2, # of connection points: 2
#     Edge 55, Type (0, 0), BuildingBlock: XUDNAN_clean_linker_2, # of connection points: 2
#     Edge 56, Type (0, 0), BuildingBlock: XUDNAN_clean_linker_2, # of connection points: 2
#     Edge 57, Type (0, 0), BuildingBlock: XUDNAN_clean_linker_2, # of connection points: 2
#     Edge 58, Type (0, 0), BuildingBlock: XUDNAN_clean_linker_2, # of connection points: 2
#     Edge 59, Type (0, 0), BuildingBlock: XUDNAN_clean_linker_2, # of connection points: 2
#     Edge 60, Type (0, 0), BuildingBlock: XUDNAN_clean_linker_2, # of connection points: 2
#     Edge 61, Type (0, 0), BuildingBlock: XUDNAN_clean_linker_2, # of connection points: 2
#     Edge 62, Type (0, 0), BuildingBlock: XUDNAN_clean_linker_2, # of connection points: 2
#     Edge 63, Type (0, 0), BuildingBlock: XUDNAN_clean_linker_2, # of connection points: 2
# Relax obj value: 0.258
# Max RMSD: 0.298
# Mean RMSD: 0.298
data_MOF--net-wig--node1-OJICUG_clean_sbu_0--edge1-XUDNAN_clean_linker_2
_symmetry_space_group_name_H-M    P1
_symmetry_Int_Tables_number       1
_symmetry_cell_setting            triclinic
loop_
_symmetry_equiv_pos_as_xyz
'x, y, z'
_cell_length_a     28.991998
_cell_length_b     28.980072
_cell_length_c     86.699341
_cell_angle_alpha  89.97634
_cell_angle_beta   89.975724
_cell_angle_gamma 89.942864
loop_
_atom_site_label
_atom_site_type_symbol
_atom_site_fract_x
_atom_site_fract_y
_atom_site_fract_z
_atom_type_partial_charge
Sc0 Sc 0.1249 0.2368 0.2885 0.0
Sc1 Sc 0.19194 0.21917 0.25554 0.0
Sc2 Sc 0.1991 0.14123 0.28624 0.0
O3 O 0.17179 0.19904 0.27681 0.0
C4 C 0.19094 0.20714 0.31564 0.0
C5 C 0.19255 0.31259 0.27416 0.0
C6 C 0.28597 0.18225 0.27022 0.0
C7 C 0.08613 0.24687 0.25467 0.0
C8 C 0.09318 0.13242 0.29464 0.0
C9 C 0.18416 0.1135 0.25077 0.0
O10 O 0.16497 0.2365 0.30917 0.0
O11 O 0.21032 0.28582 0.26416 0.0
O12 O 0.26877 0.16509 0.28242 0.0
O13 O 0.07951 0.24139 0.26902 0.0
O14 O 0.1313 0.11393 0.29072 0.0
O15 O 0.17476 0.15361 0.24585 0.0
O16 O 0.08724 0.17595 0.29535 0.0
O17 O 0.12554 0.24372 0.24847 0.0
O18 O 0.19813 0.10505 0.26441 0.0
O19 O 0.15892 0.30086 0.28277 0.0
O20 O 0.20333 0.16974 0.3092 0.0
O21 O 0.26156 0.19762 0.25921 0.0
Sc22 Sc 0.24718 0.86116 0.70348 0.0
Sc23 Sc 0.236 0.8019 0.73778 0.0
Sc24 Sc 0.17639 0.76454 0.70528 0.0
O25 O 0.21865 0.80945 0.71552 0.0
C26 C 0.14308 0.86518 0.69383 0.0
C27 C 0.22979 0.90599 0.73694 0.0
C28 C 0.13124 0.76911 0.73811 0.0
C29 C 0.32972 0.82328 0.72194 0.0
C30 C 0.24345 0.78358 0.67777 0.0
C31 C 0.24519 0.7015 0.72493 0.0
O32 O 0.17957 0.88648 0.698 0.0
O33 O 0.21317 0.86989 0.74306 0.0
O34 O 0.12712 0.76903 0.72355 0.0
O35 O 0.31439 0.83273 0.70856 0.0
O36 O 0.22185 0.75491 0.68609 0.0
O37 O 0.2609 0.73435 0.73305 0.0
O38 O 0.24965 0.82524 0.68171 0.0
O39 O 0.30465 0.8276 0.73386 0.0
O40 O 0.21074 0.70554 0.71585 0.0
O41 O 0.24856 0.90583 0.72362 0.0
O42 O 0.13925 0.82114 0.69421 0.0
O43 O 0.16957 0.77565 0.74486 0.0
Sc44 Sc 0.73904 0.87927 0.28551 0.0
Sc45 Sc 0.7455 0.80624 0.25389 0.0
Sc46 Sc 0.82843 0.79853 0.28273 0.0
O47 O 0.77138 0.82831 0.27411 0.0
C48 C 0.8438 0.90574 0.29023 0.0
C49 C 0.73609 0.91118 0.24976 0.0
C50 C 0.85265 0.79161 0.24801 0.0
C51 C 0.65339 0.83178 0.27206 0.0
C52 C 0.76976 0.81276 0.31298 0.0
C53 C 0.76613 0.71466 0.27117 0.0
O54 O 0.80196 0.91707 0.288 0.0
O55 O 0.75189 0.87393 0.24398 0.0
O56 O 0.86452 0.80536 0.26131 0.0
O57 O 0.67293 0.84567 0.28427 0.0
O58 O 0.79735 0.78864 0.30497 0.0
O59 O 0.73728 0.73915 0.26374 0.0
O60 O 0.74894 0.84819 0.30783 0.0
O61 O 0.67566 0.82207 0.2599 0.0
O62 O 0.80393 0.73013 0.27663 0.0
O63 O 0.72623 0.91545 0.26406 0.0
O64 O 0.85814 0.86418 0.28953 0.0
O65 O 0.81088 0.7854 0.24425 0.0
Sc66 Sc 0.90208 0.20464 0.70437 0.0
Sc67 Sc 0.84786 0.19124 0.73946 0.0
Sc68 Sc 0.80446 0.13467 0.70682 0.0
O69 O 0.85137 0.17594 0.71685 0.0
C70 C 0.82263 0.20146 0.67901 0.0
C71 C 0.86893 0.2871 0.72397 0.0
C72 C 0.74547 0.20363 0.72788 0.0
C73 C 0.95193 0.18573 0.73684 0.0
C74 C 0.90388 0.10003 0.69455 0.0
C75 C 0.81191 0.08782 0.73968 0.0
O76 O 0.86353 0.20977 0.68332 0.0
O77 O 0.87093 0.26111 0.73577 0.0
O78 O 0.7475 0.17222 0.71753 0.0
O79 O 0.9498 0.20459 0.72359 0.0
O80 O 0.86002 0.09547 0.69582 0.0
O81 O 0.82388 0.12442 0.74658 0.0
O82 O 0.92528 0.1371 0.69802 0.0
O83 O 0.91679 0.16886 0.74344 0.0
O84 O 0.80688 0.08558 0.72518 0.0
O85 O 0.87651 0.27197 0.71044 0.0
O86 O 0.79471 0.1782 0.68708 0.0
O87 O 0.77937 0.21492 0.73634 0.0
Sc88 Sc 0.18861 0.32945 0.95192 0.0
Sc89 Sc 0.16356 0.2691 0.98587 0.0
Sc90 Sc 0.09716 0.25043 0.95234 0.0
O91 O 0.14934 0.28324 0.96343 0.0
C92 C 0.0874 0.35686 0.9422 0.0
C93 C 0.19049 0.3739 0.9858 0.0
C94 C 0.05447 0.26713 0.98614 0.0
C95 C 0.26211 0.26795 0.96914 0.0
C96 C 0.16617 0.25937 0.92461 0.0
C97 C 0.14113 0.16935 0.97191 0.0
O98 O 0.12813 0.36887 0.94606 0.0
O99 O 0.17285 0.33985 0.99282 0.0
O100 O 0.05141 0.25891 0.97175 0.0
O101 O 0.25018 0.29041 0.95714 0.0
O102 O 0.13589 0.23614 0.93168 0.0
O103 O 0.15762 0.19651 0.98198 0.0
O104 O 0.18516 0.29475 0.93028 0.0
O105 O 0.23551 0.26186 0.98065 0.0
O106 O 0.11841 0.18326 0.96027 0.0
O107 O 0.19925 0.37306 0.97149 0.0
O108 O 0.07257 0.31544 0.94311 0.0
O109 O 0.09274 0.27323 0.99296 0.0
Sc110 Sc 0.25119 0.82009 0.03785 0.0
Sc111 Sc 0.28839 0.76332 0.00415 0.0
Sc112 Sc 0.35279 0.7538 0.03817 0.0
O113 O 0.29759 0.77957 0.02673 0.0
C114 C 0.34966 0.86004 0.04818 0.0
C115 C 0.24987 0.86573 0.00441 0.0
C116 C 0.39533 0.77506 0.00454 0.0
C117 C 0.18912 0.74849 0.01918 0.0
C118 C 0.27813 0.75273 0.06508 0.0
C119 C 0.32057 0.66773 0.01895 0.0
O120 O 0.30611 0.86386 0.04629 0.0
O121 O 0.26541 0.83092 -0.00274 0.0
O122 O 0.39791 0.76197 0.01853 0.0
O123 O 0.19406 0.77764 0.03009 0.0
O124 O 0.31619 0.74038 0.05924 0.0
O125 O 0.30893 0.69312 0.00766 0.0
O126 O 0.25099 0.78096 0.05869 0.0
O127 O 0.21964 0.74088 0.00897 0.0
O128 O 0.33505 0.68405 0.03167 0.0
O129 O 0.24393 0.86624 0.01888 0.0
O130 O 0.3718 0.82265 0.04559 0.0
O131 O 0.35719 0.78246 -0.00221 0.0
Sc132 Sc 0.86048 0.70243 0.95642 0.0
Sc133 Sc 0.78915 0.65155 0.98371 0.0
Sc134 Sc 0.76864 0.6335 0.94437 0.0
O135 O 0.80594 0.66203 0.96141 0.0
C136 C 0.799 0.72355 0.92685 0.0
C137 C 0.81383 0.75866 0.98212 0.0
C138 C 0.6933 0.6748 0.96738 0.0
C139 C 0.89397 0.65241 0.98735 0.0
C140 C 0.87496 0.61258 0.9364 0.0
C141 C 0.76116 0.55438 0.96968 0.0
O142 O 0.83543 0.72841 0.93471 0.0
O143 O 0.80615 0.72155 0.98953 0.0
O144 O 0.705 0.65934 0.95416 0.0
O145 O 0.89675 0.68377 0.97717 0.0
O146 O 0.83168 0.60686 0.93413 0.0
O147 O 0.76961 0.58056 0.98103 0.0
O148 O 0.89154 0.6449 0.94474 0.0
O149 O 0.8576 0.6292 0.9897 0.0
O150 O 0.76145 0.56855 0.95586 0.0
O151 O 0.82846 0.7593 0.96826 0.0
O152 O 0.76885 0.69362 0.93011 0.0
O153 O 0.71997 0.67422 0.97906 0.0
Sc154 Sc 0.59428 0.2037 0.03306 0.0
Sc155 Sc 0.66295 0.14616 0.00558 0.0
Sc156 Sc 0.67708 0.12363 0.04499 0.0
O157 O 0.64458 0.15789 0.02783 0.0
C158 C 0.65588 0.21774 0.06255 0.0
C159 C 0.64798 0.25545 0.00634 0.0
C160 C 0.75824 0.15913 0.02405 0.0
C161 C 0.5555 0.15643 0.00214 0.0
C162 C 0.57087 0.11189 0.05246 0.0
C163 C 0.68043 0.04709 0.0186 0.0
O164 O 0.62955 0.23453 0.05235 0.0
O165 O 0.66215 0.21803 0.00041 0.0
O166 O 0.74246 0.15158 0.03757 0.0
O167 O 0.55207 0.1802 0.01439 0.0
O168 O 0.6118 0.09561 0.05217 0.0
O169 O 0.66625 0.07244 0.00769 0.0
O170 O 0.56042 0.15203 0.04736 0.0
O171 O 0.59331 0.13964 -0.00268 0.0
O172 O 0.68832 0.06252 0.03196 0.0
O173 O 0.62448 0.25718 0.01876 0.0
O174 O 0.67239 0.1775 0.06163 0.0
O175 O 0.73438 0.15386 0.01182 0.0
Sc176 Sc 0.65944 0.70707 0.79428 0.0
Sc177 Sc 0.72504 0.68629 0.76086 0.0
Sc178 Sc 0.75108 0.62744 0.79523 0.0
O179 O 0.71164 0.67324 0.78341 0.0
C180 C 0.73465 0.70328 0.82098 0.0
C181 C 0.7063 0.78655 0.775 0.0
C182 C 0.8262 0.68011 0.77518 0.0
C183 C 0.6168 0.69325 0.76036 0.0
C184 C 0.64789 0.6045 0.80633 0.0
C185 C 0.7433 0.57822 0.76233 0.0
O186 O 0.69611 0.71625 0.81561 0.0
O187 O 0.71905 0.75903 0.76442 0.0
O188 O 0.81489 0.65538 0.78667 0.0
O189 O 0.61462 0.70422 0.77453 0.0
O190 O 0.69075 0.59517 0.80517 0.0
O191 O 0.73377 0.61494 0.755 0.0
O192 O 0.63053 0.64293 0.80216 0.0
O193 O 0.65424 0.68189 0.75381 0.0
O194 O 0.74915 0.57727 0.77688 0.0
O195 O 0.68575 0.77331 0.78719 0.0
O196 O 0.75954 0.6729 0.81455 0.0
O197 O 0.79744 0.69354 0.76509 0.0
Sc198 Sc 0.70684 0.38279 0.19821 0.0
Sc199 Sc 0.68445 0.30663 0.22893 0.0
Sc200 Sc 0.6161 0.30203 0.19571 0.0
O201 O 0.66913 0.33046 0.20757 0.0
C202 C 0.6019 0.41104 0.19203 0.0
C203 C 0.70414 0.41187 0.23385 0.0
C204 C 0.57687 0.29527 0.23027 0.0
C205 C 0.78383 0.32075 0.21315 0.0
C206 C 0.68308 0.32706 0.16779 0.0
C207 C 0.66533 0.21438 0.20959 0.0
O208 O 0.64446 0.42096 0.19379 0.0
O209 O 0.689 0.37391 0.23899 0.0
O210 O 0.57317 0.29323 0.2157 0.0
O211 O 0.77116 0.34733 0.20225 0.0
O212 O 0.6504 0.30462 0.17389 0.0
O213 O 0.6804 0.23661 0.22118 0.0
O214 O 0.70665 0.35668 0.17503 0.0
O215 O 0.75643 0.30618 0.22352 0.0
O216 O 0.64299 0.23288 0.19856 0.0
O217 O 0.71387 0.41859 0.21977 0.0
O218 O 0.58625 0.36984 0.19238 0.0
O219 O 0.61474 0.3036 0.23696 0.0
Sc220 Sc 0.31034 0.35837 0.79832 0.0
Sc221 Sc 0.3408 0.29942 0.76496 0.0
Sc222 Sc 0.39067 0.26852 0.80043 0.0
O223 O 0.34768 0.30864 0.78791 0.0
C224 C 0.40967 0.37201 0.81217 0.0
C225 C 0.33306 0.40548 0.76591 0.0
C226 C 0.44771 0.28182 0.76955 0.0
C227 C 0.23766 0.31256 0.77693 0.0
C228 C 0.31123 0.28131 0.82461 0.0
C229 C 0.34133 0.19712 0.77775 0.0
O230 O 0.37272 0.38932 0.80665 0.0
O231 O 0.35265 0.37069 0.76002 0.0
O232 O 0.44569 0.27661 0.78406 0.0
O233 O 0.24798 0.32701 0.79033 0.0
O234 O 0.34075 0.25544 0.81819 0.0
O235 O 0.32897 0.22769 0.76811 0.0
O236 O 0.30127 0.32103 0.81946 0.0
O237 O 0.26707 0.30893 0.76608 0.0
O238 O 0.36577 0.20582 0.78962 0.0
O239 O 0.3117 0.4042 0.77869 0.0
O240 O 0.41826 0.32872 0.81216 0.0
O241 O 0.41273 0.28784 0.76105 0.0
Sc242 Sc 0.30949 0.7389 0.20125 0.0
Sc243 Sc 0.24381 0.7217 0.23491 0.0
Sc244 Sc 0.24278 0.63823 0.20549 0.0
O245 O 0.26562 0.69956 0.21389 0.0
C246 C 0.24868 0.69623 0.1744 0.0
C247 C 0.23979 0.81326 0.21446 0.0
C248 C 0.15218 0.68329 0.21915 0.0
C249 C 0.34772 0.75489 0.23547 0.0
C250 C 0.34986 0.63629 0.19766 0.0
C251 C 0.25467 0.61575 0.24146 0.0
O252 O 0.27297 0.72857 0.17996 0.0
O253 O 0.22774 0.78862 0.22588 0.0
O254 O 0.17132 0.65816 0.20893 0.0
O255 O 0.35185 0.75469 0.22088 0.0
O256 O 0.31253 0.61552 0.20117 0.0
O257 O 0.25642 0.65704 0.24619 0.0
O258 O 0.35311 0.68009 0.19682 0.0
O259 O 0.31089 0.74323 0.24232 0.0
O260 O 0.24726 0.60504 0.2275 0.0
O261 O 0.26981 0.80094 0.20461 0.0
O262 O 0.23649 0.6613 0.18216 0.0
O263 O 0.17445 0.70365 0.22974 0.0
Sc264 Sc 0.73266 0.86749 0.45206 0.0
Sc265 Sc 0.70097 0.80322 0.48479 0.0
Sc266 Sc 0.6382 0.79143 0.45064 0.0
O267 O 0.69062 0.82104 0.46246 0.0
C268 C 0.63067 0.89841 0.44236 0.0
C269 C 0.73019 0.90837 0.4862 0.0
C270 C 0.59443 0.80329 0.48461 0.0
C271 C 0.8013 0.80101 0.47 0.0
C272 C 0.71151 0.80236 0.42356 0.0
C273 C 0.67569 0.70682 0.46893 0.0
O274 O 0.67365 0.90637 0.44414 0.0
O275 O 0.7178 0.87128 0.4927 0.0
O276 O 0.59336 0.79137 0.47049 0.0
O277 O 0.79396 0.83088 0.45948 0.0
O278 O 0.67485 0.78562 0.42918 0.0
O279 O 0.68604 0.73227 0.48032 0.0
O280 O 0.7364 0.83123 0.43065 0.0
O281 O 0.77124 0.78825 0.47976 0.0
O282 O 0.66193 0.72279 0.45607 0.0
O283 O 0.73559 0.91168 0.47174 0.0
O284 O 0.61238 0.85887 0.44454 0.0
O285 O 0.63117 0.81553 0.49136 0.0
Sc286 Sc 0.77664 0.36913 0.5441 0.0
Sc287 Sc 0.80263 0.30622 0.51039 0.0
Sc288 Sc 0.86899 0.29072 0.54359 0.0
O289 O 0.81603 0.32232 0.53268 0.0
C290 C 0.88107 0.39568 0.55271 0.0
C291 C 0.78066 0.41305 0.51017 0.0
C292 C 0.90941 0.29724 0.50913 0.0
C293 C 0.70215 0.31188 0.52544 0.0
C294 C 0.79937 0.30271 0.57182 0.0
C295 C 0.82316 0.20824 0.52624 0.0
O296 O 0.83784 0.40414 0.5523 0.0
O297 O 0.79191 0.3761 0.50332 0.0
O298 O 0.91113 0.28693 0.52334 0.0
O299 O 0.71308 0.33759 0.53675 0.0
O300 O 0.83622 0.28853 0.5656 0.0
O301 O 0.81135 0.2343 0.5151 0.0
O302 O 0.77139 0.32943 0.56503 0.0
O303 O 0.73089 0.29846 0.51533 0.0
O304 O 0.84118 0.22325 0.53865 0.0
O305 O 0.77492 0.41541 0.52469 0.0
O306 O 0.8985 0.35678 0.54901 0.0
O307 O 0.87281 0.31145 0.50272 0.0
Sc308 Sc 0.35494 0.23524 0.45092 0.0
Sc309 Sc 0.29318 0.20743 0.48447 0.0
Sc310 Sc 0.28372 0.13722 0.45196 0.0
O311 O 0.31098 0.1933 0.46242 0.0
C312 C 0.28878 0.20731 0.42362 0.0
C313 C 0.28805 0.30539 0.46837 0.0
C314 C 0.19781 0.17602 0.46935 0.0
C315 C 0.39818 0.23747 0.48459 0.0
C316 C 0.38927 0.1327 0.44269 0.0
C317 C 0.29915 0.10118 0.48669 0.0
O318 O 0.31387 0.23673 0.4304 0.0
O319 O 0.27527 0.276 0.47833 0.0
O320 O 0.21421 0.16012 0.45682 0.0
O321 O 0.40192 0.23937 0.47002 0.0
O322 O 0.35171 0.11275 0.44643 0.0
O323 O 0.30909 0.13996 0.49249 0.0
O324 O 0.3944 0.17647 0.44283 0.0
O325 O 0.36069 0.22817 0.49139 0.0
O326 O 0.28595 0.09628 0.47279 0.0
O327 O 0.31832 0.29688 0.45809 0.0
O328 O 0.27771 0.16902 0.42966 0.0
O329 O 0.22295 0.18875 0.48055 0.0
Sc330 Sc 0.15079 0.7313 0.54642 0.0
Sc331 Sc 0.20197 0.70807 0.51043 0.0
Sc332 Sc 0.22464 0.63537 0.54184 0.0
O333 O 0.19227 0.6915 0.53292 0.0
C334 C 0.22802 0.70372 0.57067 0.0
C335 C 0.20516 0.80621 0.52697 0.0
C336 C 0.30313 0.68232 0.52205 0.0
C337 C 0.09614 0.72968 0.51447 0.0
C338 C 0.12278 0.62745 0.55508 0.0
C339 C 0.20124 0.60039 0.50763 0.0
O340 O 0.19777 0.73143 0.56555 0.0
O341 O 0.21279 0.77842 0.516 0.0
O342 O 0.29109 0.65952 0.53394 0.0
O343 O 0.09795 0.73589 0.52896 0.0
O344 O 0.16014 0.60907 0.55034 0.0
O345 O 0.19299 0.6398 0.50205 0.0
O346 O 0.11557 0.67087 0.55499 0.0
O347 O 0.13054 0.71896 0.50626 0.0
O348 O 0.2145 0.59418 0.52144 0.0
O349 O 0.18291 0.79497 0.53905 0.0
O350 O 0.23952 0.6672 0.5636 0.0
O351 O 0.27455 0.69878 0.51241 0.0
H352 H 0.28564 0.89405 0.21154 0.0
H353 H 0.14933 0.83529 0.21641 0.0
H354 H 0.11675 0.91316 0.22062 0.0
H355 H 0.27799 0.96228 0.24184 0.0
H356 H 0.30978 0.01099 0.23449 0.0
H357 H 0.32039 0.9545 0.22683 0.0
H358 H 0.3025 0.98373 0.19923 0.0
H359 H 0.29233 0.0408 0.2068 0.0
H360 H 0.24864 0.01267 0.19541 0.0
H361 H 0.10196 0.99181 0.22994 0.0
H362 H 0.10651 0.06568 0.24421 0.0
H363 H 0.25286 0.07319 0.23475 0.0
C364 C 0.24866 0.89818 0.21268 0.0
C365 C 0.21958 0.85941 0.21338 0.0
C366 C 0.17169 0.86512 0.21566 0.0
C367 C 0.15299 0.90909 0.21796 0.0
C368 C 0.18283 0.94675 0.21803 0.0
C369 C 0.22971 0.94182 0.21536 0.0
C370 C 0.25548 0.9859 0.21897 0.0
C371 C 0.29307 0.9779 0.23127 0.0
C372 C 0.27593 0.00703 0.20422 0.0
C373 C 0.21637 0.01513 0.22513 0.0
C374 C 0.17447 0.99255 0.22398 0.0
C375 C 0.13422 0.0105 0.23047 0.0
C376 C 0.13704 0.0522 0.23857 0.0
C377 C 0.17984 0.07472 0.2402 0.0
C378 C 0.21968 0.05665 0.2332 0.0
H379 H 0.04159 0.77599 0.72899 0.0
H380 H 0.12742 0.7397 0.7682 0.0
H381 H 0.05778 0.71677 0.78279 0.0
H382 H 0.94369 0.82102 0.75141 0.0
H383 H 0.90211 0.79833 0.73797 0.0
H384 H 0.95837 0.81557 0.73129 0.0
H385 H 0.97083 0.7342 0.71955 0.0
H386 H 0.91486 0.7166 0.72628 0.0
H387 H 0.9653 0.68405 0.73172 0.0
H388 H 0.97918 0.69094 0.79203 0.0
H389 H 0.89771 0.66829 0.79569 0.0
H390 H 0.86492 0.72325 0.75036 0.0
C391 C 0.04579 0.76375 0.74071 0.0
C392 C 0.08986 0.75944 0.74745 0.0
C393 C 0.09389 0.74345 0.76284 0.0
C394 C 0.05459 0.73031 0.7712 0.0
C395 C 0.0117 0.73405 0.76405 0.0
C396 C 0.0071 0.75096 0.74922 0.0
C397 C 0.95753 0.75002 0.74389 0.0
C398 C 0.93937 0.79916 0.74098 0.0
C399 C 0.95183 0.71938 0.72952 0.0
C400 C 0.93506 0.72864 0.75787 0.0
C401 C 0.96667 0.71986 0.76943 0.0
C402 C 0.95401 0.69818 0.78314 0.0
C403 C 0.90773 0.68525 0.78507 0.0
C404 C 0.87487 0.69405 0.77333 0.0
C405 C 0.88898 0.71629 0.75963 0.0
H406 H 0.68483 0.98638 0.25698 0.0
H407 H 0.76381 0.92577 0.21956 0.0
H408 H 0.74648 0.99423 0.20333 0.0
H409 H 0.59595 0.04029 0.23328 0.0
H410 H 0.59252 0.08986 0.24578 0.0
H411 H 0.60778 0.03428 0.25359 0.0
H412 H 0.68314 0.06873 0.26492 0.0
H413 H 0.66791 0.12431 0.25728 0.0
H414 H 0.72257 0.09861 0.25231 0.0
H415 H 0.72442 0.07382 0.1921 0.0
H416 H 0.7038 0.15637 0.18791 0.0
H417 H 0.64044 0.16063 0.2331 0.0
C418 C 0.69845 0.98706 0.24535 0.0
C419 C 0.72593 0.95083 0.23957 0.0
C420 C 0.74265 0.95323 0.22423 0.0
C421 C 0.73281 0.99183 0.21492 0.0
C422 C 0.70576 0.02717 0.22111 0.0
C423 C 0.68882 0.02477 0.23599 0.0
C424 C 0.66305 0.06784 0.2405 0.0
C425 C 0.61179 0.05743 0.24346 0.0
C426 C 0.68554 0.09124 0.25457 0.0
C427 C 0.66939 0.09587 0.22604 0.0
C428 C 0.69333 0.07192 0.21479 0.0
C429 C 0.70515 0.09258 0.20076 0.0
C430 C 0.69322 0.13921 0.19843 0.0
C431 C 0.67053 0.16417 0.2102 0.0
C432 C 0.65759 0.14187 0.22393 0.0
H433 H 0.19995 0.28966 0.74916 0.0
H434 H 0.17059 0.29268 0.7983 0.0
H435 H 0.09703 0.25211 0.79357 0.0
H436 H 0.0852 0.31021 0.73633 0.0
H437 H 0.09054 0.27247 0.7199 0.0
H438 H 0.14074 0.30094 0.72748 0.0
H439 H 0.18104 0.22128 0.73058 0.0
H440 H 0.13042 0.19265 0.72326 0.0
H441 H 0.1534 0.17693 0.74184 0.0
H442 H 0.02735 0.21035 0.7834 0.0
H443 H 0.96133 0.18165 0.76826 0.0
H444 H 0.0376 0.20638 0.72594 0.0
C445 C 0.17803 0.28211 0.75895 0.0
C446 C 0.19103 0.29429 0.7741 0.0
C447 C 0.16117 0.28395 0.78657 0.0
C448 C 0.11962 0.26044 0.78403 0.0
C449 C 0.10867 0.24767 0.76898 0.0
C450 C 0.13669 0.25879 0.75665 0.0
C451 C 0.11637 0.24291 0.74153 0.0
C452 C 0.10768 0.28408 0.73068 0.0
C453 C 0.14716 0.20628 0.73385 0.0
C454 C 0.07186 0.22205 0.74723 0.0
C455 C 0.06843 0.22421 0.76312 0.0
C456 C 0.02965 0.20834 0.77096 0.0
C457 C 0.99249 0.19178 0.76225 0.0
C458 C 0.99437 0.19199 0.74592 0.0
C459 C 0.03522 0.20577 0.73841 0.0
H460 H 0.21495 0.45713 0.97395 0.0
H461 H 0.20193 0.38326 0.0173 0.0
H462 H 0.23837 0.44911 0.03089 0.0
H463 H 0.32469 0.50362 0.98063 0.0
H464 H 0.31244 0.5579 0.97133 0.0
H465 H 0.28263 0.5065 0.96535 0.0
H466 H 0.20348 0.54572 0.9705 0.0
H467 H 0.2331 0.59763 0.97607 0.0
H468 H 0.19243 0.57131 0.98909 0.0
H469 H 0.27926 0.52405 0.03937 0.0
H470 H 0.31298 0.60229 0.04204 0.0
H471 H 0.3016 0.62139 0.99252 0.0
C472 C 0.21923 0.45474 0.98634 0.0
C473 C 0.20568 0.41497 0.99455 0.0
C474 C 0.21178 0.41356 0.01077 0.0
C475 C 0.23278 0.45061 0.01856 0.0
C476 C 0.2473 0.4886 0.00994 0.0
C477 C 0.24014 0.49092 0.9942 0.0
C478 C 0.25877 0.53497 0.98738 0.0
C479 C 0.2969 0.52512 0.97547 0.0
C480 C 0.21962 0.56412 0.98036 0.0
C481 C 0.2781 0.55715 0.0017 0.0
C482 C 0.27123 0.53028 0.01466 0.0
C483 C 0.28493 0.54523 0.02927 0.0
C484 C 0.30451 0.58949 0.03066 0.0
C485 C 0.31013 0.61797 0.01749 0.0
C486 C 0.29803 0.6006 0.00284 0.0
H487 H 0.48394 0.77563 0.01522 0.0
H488 H 0.40341 0.77257 0.97304 0.0
H489 H 0.47377 0.7547 0.95821 0.0
H490 H 0.59376 0.82223 0.99701 0.0
H491 H 0.6286 0.78705 0.00959 0.0
H492 H 0.57398 0.80924 0.01625 0.0
H493 H 0.54831 0.72592 0.02296 0.0
H494 H 0.60218 0.70337 0.01603 0.0
H495 H 0.5487 0.68237 0.0081 0.0
H496 H 0.54935 0.72286 0.94885 0.0
H497 H 0.62595 0.68696 0.94534 0.0
H498 H 0.65638 0.71139 0.99372 0.0
C499 C 0.48133 0.77277 0.0028 0.0
C500 C 0.43818 0.77537 0.99531 0.0
C501 C 0.43614 0.77107 0.97904 0.0
C502 C 0.47594 0.76081 0.9705 0.0
C503 C 0.51753 0.7559 0.97838 0.0
C504 C 0.52068 0.76284 0.99413 0.0
C505 C 0.56838 0.75147 7e-05 0.0
C506 C 0.59261 0.79509 0.00608 0.0
C507 C 0.56675 0.71353 0.01251 0.0
C508 C 0.59065 0.73427 0.9854 0.0
C509 C 0.56115 0.73778 0.97295 0.0
C510 C 0.57312 0.72086 0.95844 0.0
C511 C 0.61656 0.70014 0.9566 0.0
C512 C 0.64727 0.69621 0.96925 0.0
C513 C 0.63395 0.71391 0.98377 0.0
H514 H 0.66292 0.342 0.01859 0.0
H515 H 0.66326 0.26459 0.9757 0.0
H516 H 0.69328 0.33235 0.96193 0.0
H517 H 0.62975 0.45319 0.00178 0.0
H518 H 0.6669 0.48582 0.01437 0.0
H519 H 0.64288 0.43185 0.02082 0.0
H520 H 0.72521 0.40182 0.02676 0.0
H521 H 0.74955 0.45543 0.02011 0.0
H522 H 0.76808 0.40166 0.01168 0.0
H523 H 0.72558 0.40604 0.95287 0.0
H524 H 0.75499 0.48464 0.94862 0.0
H525 H 0.73537 0.51523 -0.00273 0.0
C526 C 0.66852 0.33974 0.00627 0.0
C527 C 0.66076 0.29816 -0.0018 0.0
C528 C 0.66919 0.29612 0.98211 0.0
C529 C 0.68625 0.33436 0.97417 0.0
C530 C 0.69478 0.3744 0.98249 0.0
C531 C 0.68598 0.37767 -0.00188 0.0
C532 C 0.6995 0.42471 0.00425 0.0
C533 C 0.65724 0.45041 0.01068 0.0
C534 C 0.73787 0.42063 0.01642 0.0
C535 C 0.71716 0.44709 0.98959 0.0
C536 C 0.71411 0.41732 0.97721 0.0
C537 C 0.72804 0.42987 0.96244 0.0
C538 C 0.74476 0.47457 0.96016 0.0
C539 C 0.74747 0.50613 0.9726 0.0
C540 C 0.73403 0.49184 0.98755 0.0
H541 H 0.29806 0.21925 0.99312 0.0
H542 H 0.32971 0.26528 0.94663 0.0
H543 H 0.40553 0.2261 0.94828 0.0
H544 H 0.40462 0.24028 0.00857 0.0
H545 H 0.40385 0.19127 0.02138 0.0
H546 H 0.35059 0.21708 0.01533 0.0
H547 H 0.32322 0.13762 0.0052 0.0
H548 H 0.37707 0.11159 0.0109 0.0
H549 H 0.35757 0.10695 0.99122 0.0
H550 H 0.48093 0.18891 0.95628 0.0
H551 H 0.55088 0.16668 0.97087 0.0
H552 H 0.46781 0.14549 0.01178 0.0
C553 C 0.32046 0.22077 0.98314 0.0
C554 C 0.30786 0.2454 0.96974 0.0
C555 C 0.33864 0.24669 0.95705 0.0
C556 C 0.38152 0.2241 0.95782 0.0
C557 C 0.3927 0.20008 0.97127 0.0
C558 C 0.36295 0.19857 0.98371 0.0
C559 C 0.38446 0.17517 -0.00251 0.0
C560 C 0.386 0.20791 0.0115 0.0
C561 C 0.35908 0.13014 0.00142 0.0
C562 C 0.43197 0.1656 0.99117 0.0
C563 C 0.43587 0.17894 0.97589 0.0
C564 C 0.47803 0.17751 0.96813 0.0
C565 C 0.51752 0.16451 0.97645 0.0
C566 C 0.51429 0.15413 0.99236 0.0
C567 C 0.47081 0.15259 -0.00045 0.0
H568 H 0.76639 0.49281 0.77347 0.0
H569 H 0.74558 0.56866 0.7308 0.0
H570 H 0.77588 0.50245 0.71607 0.0
H571 H 0.87144 0.44368 0.76385 0.0
H572 H 0.86056 0.38873 0.77289 0.0
H573 H 0.83255 0.43985 0.78004 0.0
H574 H 0.75234 0.4018 0.77635 0.0
H575 H 0.78009 0.3501 0.76948 0.0
H576 H 0.73709 0.37829 0.7578 0.0
H577 H 0.81467 0.4297 0.70616 0.0
H578 H 0.85162 0.35366 0.70194 0.0
H579 H 0.84788 0.32832 0.75132 0.0
C580 C 0.76724 0.49531 0.76101 0.0
C581 C 0.75367 0.53607 0.75334 0.0
C582 C 0.75563 0.53778 0.73699 0.0
C583 C 0.77299 0.50042 0.72849 0.0
C584 C 0.78787 0.46153 0.73651 0.0
C585 C 0.78441 0.45849 0.75238 0.0
C586 C 0.80401 0.4136 0.75832 0.0
C587 C 0.84454 0.422 0.76943 0.0
C588 C 0.76613 0.38421 0.76593 0.0
C589 C 0.82017 0.39241 0.74336 0.0
C590 C 0.8104 0.42025 0.73087 0.0
C591 C 0.82229 0.40747 0.71587 0.0
C592 C 0.84363 0.36444 0.71359 0.0
C593 C 0.85293 0.33504 0.72628 0.0
C594 C 0.84161 0.34989 0.74133 0.0
H595 H 0.49717 0.25637 0.22008 0.0
H596 H 0.56673 0.30069 0.26187 0.0
H597 H 0.50282 0.26845 0.27747 0.0
H598 H 0.38286 0.28091 0.23214 0.0
H599 H 0.3592 0.23124 0.22246 0.0
H600 H 0.41062 0.25811 0.21516 0.0
H601 H 0.45294 0.17922 0.21676 0.0
H602 H 0.40188 0.15241 0.22449 0.0
H603 H 0.45552 0.1491 0.23494 0.0
H604 H 0.42877 0.23228 0.2883 0.0
H605 H 0.34957 0.2025 0.29283 0.0
H606 H 0.33404 0.17919 0.24373 0.0
C607 C 0.49901 0.25987 0.23251 0.0
C608 C 0.53686 0.28131 0.23974 0.0
C609 C 0.53789 0.28456 0.25606 0.0
C610 C 0.50198 0.26604 0.26502 0.0
C611 C 0.46574 0.244 0.25746 0.0
C612 C 0.46409 0.24117 0.24155 0.0
C613 C 0.42139 0.21667 0.23604 0.0
C614 C 0.39177 0.24865 0.22586 0.0
C615 C 0.4337 0.17168 0.22756 0.0
C616 C 0.39853 0.20694 0.2513 0.0
C617 C 0.42453 0.22244 0.2636 0.0
C618 C 0.40837 0.21956 0.27876 0.0
C619 C 0.36365 0.20223 0.28126 0.0
C620 C 0.33604 0.18853 0.26862 0.0
C621 C 0.35459 0.18925 0.25361 0.0
H622 H 0.20417 0.61783 0.72855 0.0
H623 H 0.33716 0.68568 0.72637 0.0
H624 H 0.3758 0.61262 0.73337 0.0
H625 H 0.22662 0.5595 0.76184 0.0
H626 H 0.19565 0.50753 0.75706 0.0
H627 H 0.17905 0.56146 0.74846 0.0
H628 H 0.18909 0.52643 0.72115 0.0
H629 H 0.20527 0.47203 0.72969 0.0
H630 H 0.24303 0.49958 0.71597 0.0
H631 H 0.39916 0.53515 0.74333 0.0
H632 H 0.40472 0.46004 0.75701 0.0
H633 H 0.25617 0.44572 0.75487 0.0
C634 C 0.24149 0.6166 0.72897 0.0
C635 C 0.26792 0.65667 0.72667 0.0
C636 C 0.31657 0.65482 0.72793 0.0
C637 C 0.33877 0.61356 0.73184 0.0
C638 C 0.31168 0.57477 0.73456 0.0
C639 C 0.26407 0.57593 0.73322 0.0
C640 C 0.24253 0.5316 0.7389 0.0
C641 C 0.20902 0.5406 0.75236 0.0
C642 C 0.21857 0.50589 0.72564 0.0
C643 C 0.2852 0.50619 0.74421 0.0
C644 C 0.32489 0.53102 0.7412 0.0
C645 C 0.36841 0.51511 0.74559 0.0
C646 C 0.37131 0.47273 0.75334 0.0
C647 C 0.33082 0.44792 0.75691 0.0
C648 C 0.28745 0.46454 0.7522 0.0
H649 H 0.4253 0.79766 0.22516 0.0
H650 H 0.3602 0.74605 0.26684 0.0
H651 H 0.42896 0.76888 0.28191 0.0
H652 H 0.53478 0.75704 0.23286 0.0
H653 H 0.5642 0.80599 0.22463 0.0
H654 H 0.5079 0.79036 0.21776 0.0
H655 H 0.47819 0.87292 0.22382 0.0
H656 H 0.53453 0.88876 0.2308 0.0
H657 H 0.48471 0.89593 0.24301 0.0
H658 H 0.50886 0.79136 0.29186 0.0
H659 H 0.59228 0.8085 0.29522 0.0
H660 H 0.60135 0.84526 0.24683 0.0
C661 C 0.4251 0.7915 0.23748 0.0
C662 C 0.38748 0.76996 0.2448 0.0
C663 C 0.38871 0.76265 0.26098 0.0
C664 C 0.42749 0.77565 0.26964 0.0
C665 C 0.46429 0.79639 0.26197 0.0
C666 C 0.46312 0.80441 0.24625 0.0
C667 C 0.50785 0.82421 0.24042 0.0
C668 C 0.52997 0.79249 0.22821 0.0
C669 C 0.50089 0.87338 0.23415 0.0
C670 C 0.53514 0.82453 0.2552 0.0
C671 C 0.50954 0.80914 0.26762 0.0
C672 C 0.52904 0.80403 0.28226 0.0
C673 C 0.57625 0.81389 0.28409 0.0
C674 C 0.60296 0.82786 0.27126 0.0
C675 C 0.58168 0.83439 0.25682 0.0
H676 H 0.7558 0.9932 0.47599 0.0
H677 H 0.73142 0.91517 0.51799 0.0
H678 H 0.75644 0.98256 0.53344 0.0
H679 H 0.85752 0.05008 0.48852 0.0
H680 H 0.84362 0.1031 0.47868 0.0
H681 H 0.82317 0.04893 0.47119 0.0
H682 H 0.73882 0.0791 0.472 0.0
H683 H 0.75909 0.13355 0.47927 0.0
H684 H 0.71599 0.10171 0.48981 0.0
H685 H 0.78529 0.06039 0.5441 0.0
H686 H 0.80973 0.14149 0.54863 0.0
H687 H 0.81578 0.16339 0.49915 0.0
C688 C 0.75544 0.99001 0.48843 0.0
C689 C 0.74168 0.94887 0.49576 0.0
C690 C 0.74174 0.94647 0.51211 0.0
C691 C 0.75611 0.98444 0.52097 0.0
C692 C 0.77029 0.02422 0.51328 0.0
C693 C 0.76972 0.02708 0.49736 0.0
C694 C 0.78604 0.07332 0.49167 0.0
C695 C 0.83021 0.06854 0.48195 0.0
C696 C 0.74769 0.09839 0.48266 0.0
C697 C 0.79567 0.09643 0.50687 0.0
C698 C 0.78675 0.06788 0.51927 0.0
C699 C 0.79247 0.08297 0.53445 0.0
C700 C 0.80658 0.12884 0.53692 0.0
C701 C 0.81434 0.15862 0.52424 0.0
C702 C 0.80975 0.14159 0.5091 0.0
H703 H 0.15085 0.1797 0.49607 0.0
H704 H 0.13376 0.19585 0.44667 0.0
H705 H 0.05611 0.22986 0.45108 0.0
H706 H 0.03088 0.15612 0.50624 0.0
H707 H 0.03575 0.18912 0.52378 0.0
H708 H 0.08551 0.15991 0.51608 0.0
H709 H 0.12994 0.23767 0.51618 0.0
H710 H 0.0799 0.26744 0.52336 0.0
H711 H 0.10683 0.28621 0.5057 0.0
H712 H 0.98232 0.26878 0.46181 0.0
H713 H 0.91836 0.30151 0.47736 0.0
H714 H 0.99166 0.26431 0.51924 0.0
C715 C 0.1304 0.18926 0.4861 0.0
C716 C 0.1481 0.18511 0.47104 0.0
C717 C 0.12041 0.19818 0.45831 0.0
C718 C 0.07658 0.21796 0.46074 0.0
C719 C 0.06149 0.22419 0.4759 0.0
C720 C 0.08759 0.20957 0.48832 0.0
C721 C 0.06615 0.22264 0.50352 0.0
C722 C 0.05382 0.17938 0.51295 0.0
C723 C 0.09758 0.25543 0.51272 0.0
C724 C 0.0237 0.24717 0.49783 0.0
C725 C 0.02111 0.24775 0.48192 0.0
C726 C 0.98406 0.26833 0.47428 0.0
C727 C 0.94813 0.28721 0.4832 0.0
C728 C 0.94994 0.28555 0.49954 0.0
C729 C 0.98898 0.26635 0.5068 0.0
H730 H 0.24846 0.84079 0.50178 0.0
H731 H 0.20485 0.87785 0.54811 0.0
H732 H 0.23654 0.95643 0.54413 0.0
H733 H 0.35433 0.90944 0.50048 0.0
H734 H 0.34555 0.92462 0.48053 0.0
H735 H 0.32503 0.87004 0.48773 0.0
H736 H 0.24245 0.88855 0.47835 0.0
H737 H 0.26237 0.9427 0.47082 0.0
H738 H 0.21522 0.94152 0.48438 0.0
H739 H 0.26681 0.03251 0.53395 0.0
H740 H 0.28542 0.10047 0.51791 0.0
H741 H 0.30708 0.01125 0.4784 0.0
C742 C 0.24602 0.86494 0.51128 0.0
C743 C 0.22421 0.85312 0.52529 0.0
C744 C 0.22142 0.8862 0.53727 0.0
C745 C 0.23967 0.93068 0.53516 0.0
C746 C 0.26072 0.94104 0.52108 0.0
C747 C 0.26373 0.90897 0.50936 0.0
C748 C 0.28329 0.92934 0.49475 0.0
C749 C 0.32984 0.90705 0.49064 0.0
C750 C 0.24876 0.92531 0.4813 0.0
C751 C 0.28932 0.97862 0.49983 0.0
C752 C 0.27724 0.98464 0.51515 0.0
C753 C 0.27696 0.02806 0.52202 0.0
C754 C 0.2877 0.06639 0.51284 0.0
C755 C 0.29758 0.06084 0.49693 0.0
C756 C 0.29981 0.01632 0.49054 0.0
H757 H 0.05642 0.80379 0.50065 0.0
H758 H 0.03753 0.6587 0.51086 0.0
H759 H 0.96409 0.65893 0.4963 0.0
H760 H 0.94045 0.83634 0.50556 0.0
H761 H 0.94023 0.87823 0.49018 0.0
H762 H 0.99313 0.86498 0.50005 0.0
H763 H 0.03127 0.8448 0.47383 0.0
H764 H 0.978 0.8572 0.46393 0.0
H765 H 0.0053 0.80172 0.46162 0.0
H766 H 0.89147 0.67597 0.48288 0.0
H767 H 0.81898 0.71046 0.4735 0.0
H768 H 0.88437 0.84475 0.47138 0.0
C769 C 0.03657 0.77226 0.49972 0.0
C770 C 0.05161 0.73128 0.50682 0.0
C771 C 0.02566 0.69035 0.5055 0.0
C772 C 0.98445 0.69009 0.49714 0.0
C773 C 0.97038 0.73101 0.49013 0.0
C774 C -0.00466 0.77146 0.49141 0.0
C775 C 0.97049 0.81146 0.48385 0.0
C776 C 0.96046 0.84999 0.49561 0.0
C777 C -0.00209 0.82987 0.46998 0.0
C778 C 0.92677 0.78754 0.47869 0.0
C779 C 0.92803 0.7409 0.48214 0.0
C780 C 0.89027 0.71217 0.47984 0.0
C781 C 0.8494 0.73198 0.47451 0.0
C782 C 0.84682 0.77991 0.47156 0.0
C783 C 0.88627 0.80777 0.47312 0.0
H784 H 0.21438 0.14457 0.33789 0.0
H785 H 0.20198 0.29153 0.32908 0.0
H786 H 0.22606 0.30788 0.35586 0.0
H787 H 0.16822 0.14828 0.37609 0.0
H788 H 0.20618 0.1042 0.38347 0.0
H789 H 0.19012 0.10409 0.36341 0.0
H790 H 0.2764 0.10512 0.35553 0.0
H791 H 0.29274 0.10497 0.37557 0.0
H792 H 0.31354 0.14978 0.36294 0.0
H793 H 0.25262 0.30809 0.3834 0.0
H794 H 0.27659 0.29195 0.41024 0.0
H795 H 0.26707 0.1449 0.40125 0.0
C796 C 0.21719 0.18018 0.34156 0.0
C797 C 0.20665 0.21682 0.33145 0.0
C798 C 0.20989 0.26298 0.33671 0.0
C799 C 0.2236 0.2726 0.35185 0.0
C800 C 0.23337 0.23565 0.36158 0.0
C801 C 0.23006 0.19038 0.35669 0.0
C802 C 0.24085 0.15698 0.36959 0.0
C803 C 0.19883 0.12661 0.37336 0.0
C804 C 0.28342 0.12749 0.36567 0.0
C805 C 0.25092 0.19056 0.38248 0.0
C806 C 0.24681 0.23577 0.37761 0.0
C807 C 0.25571 0.27284 0.38739 0.0
C808 C 0.26933 0.26336 0.40257 0.0
C809 C 0.27327 0.21723 0.4078 0.0
C810 C 0.26367 0.18051 0.39762 0.0
H811 H 0.23526 0.83101 0.65094 0.0
H812 H 0.28241 0.70126 0.67015 0.0
H813 H 0.29775 0.6719 0.64387 0.0
H814 H 0.17107 0.78248 0.62269 0.0
H815 H 0.18148 0.82556 0.6081 0.0
H816 H 0.18543 0.84078 0.62813 0.0
H817 H 0.26886 0.87033 0.62393 0.0
H818 H 0.26508 0.85534 0.60379 0.0
H819 H 0.31133 0.83263 0.61543 0.0
H820 H 0.29761 0.65296 0.616 0.0
H821 H 0.2758 0.64286 0.58878 0.0
H822 H 0.2236 0.78335 0.58765 0.0
C823 C 0.25056 0.79714 0.64956 0.0
C824 C 0.25857 0.76855 0.66243 0.0
C825 C 0.27661 0.72367 0.66033 0.0
C826 C 0.28569 0.70691 0.64549 0.0
C827 C 0.27608 0.73541 0.63294 0.0
C828 C 0.25872 0.77955 0.63481 0.0
C829 C 0.24409 0.80022 0.61954 0.0
C830 C 0.19248 0.81296 0.61963 0.0
C831 C 0.27415 0.84211 0.61543 0.0
C832 C 0.25387 0.76003 0.60891 0.0
C833 C 0.27368 0.72357 0.61678 0.0
C834 C 0.28279 0.6815 0.60965 0.0
C835 C 0.27019 0.6761 0.59417 0.0
C836 C 0.24782 0.71229 0.5861 0.0
C837 C 0.24078 0.75512 0.5935 0.0
H838 H 0.76852 0.8708 0.33739 0.0
H839 H 0.75596 0.72658 0.32488 0.0
H840 H 0.74173 0.70654 0.35232 0.0
H841 H 0.83014 0.85006 0.37319 0.0
H842 H 0.80269 0.89759 0.38298 0.0
H843 H 0.81145 0.8999 0.36242 0.0
H844 H 0.72396 0.91427 0.35837 0.0
H845 H 0.71496 0.91207 0.37889 0.0
H846 H 0.6829 0.87419 0.36638 0.0
H847 H 0.7218 0.70439 0.38091 0.0
H848 H 0.7061 0.71911 0.40865 0.0
H849 H 0.7404 0.86335 0.40215 0.0
C850 C 0.76275 0.83503 0.34047 0.0
C851 C 0.76271 0.80018 0.32918 0.0
C852 C 0.75594 0.75362 0.33351 0.0
C853 C 0.74781 0.74202 0.349 0.0
C854 C 0.74782 0.77736 0.35991 0.0
C855 C 0.75594 0.82279 0.35584 0.0
C856 C 0.75529 0.85426 0.3697 0.0
C857 C 0.80272 0.87676 0.37222 0.0
C858 C 0.71699 0.89083 0.36824 0.0
C859 C 0.74453 0.81967 0.3822 0.0
C860 C 0.73983 0.77553 0.37637 0.0
C861 C 0.72633 0.73861 0.38567 0.0
C862 C 0.71741 0.7472 0.40133 0.0
C863 C 0.72306 0.79206 0.40746 0.0
C864 C 0.73715 0.82847 0.39779 0.0
H865 H 0.87816 0.22576 0.65515 0.0
H866 H 0.73415 0.21407 0.66824 0.0
H867 H 0.71109 0.24116 0.64223 0.0
H868 H 0.86799 0.3274 0.63161 0.0
H869 H 0.90946 0.30709 0.61768 0.0
H870 H 0.91374 0.2891 0.63751 0.0
H871 H 0.91183 0.20336 0.62891 0.0
H872 H 0.90746 0.22108 0.60907 0.0
H873 H 0.86465 0.1831 0.6172 0.0
H874 H 0.70484 0.2707 0.61439 0.0
H875 H 0.71622 0.2946 0.58711 0.0
H876 H 0.86428 0.28198 0.59305 0.0
C877 C 0.84172 0.22931 0.65265 0.0
C878 C 0.80794 0.21822 0.66372 0.0
C879 C 0.7606 0.22249 0.65988 0.0
C880 C 0.74721 0.23796 0.64518 0.0
C881 C 0.78162 0.24849 0.63451 0.0
C882 C 0.82787 0.24397 0.63809 0.0
C883 C 0.85837 0.25533 0.62453 0.0
C884 C 0.88919 0.29722 0.62805 0.0
C885 C 0.88726 0.2132 0.61964 0.0
C886 C 0.82215 0.26686 0.61268 0.0
C887 C 0.77803 0.26335 0.61859 0.0
C888 C 0.73925 0.27331 0.60963 0.0
C889 C 0.74598 0.28689 0.59421 0.0
C890 C 0.79105 0.28952 0.58799 0.0
C891 C 0.82935 0.27953 0.59742 0.0
H892 H 0.16625 0.31722 0.90059 0.0
H893 H 0.19631 0.17599 0.91342 0.0
H894 H 0.23171 0.16276 0.88765 0.0
H895 H 0.14231 0.2944 0.85883 0.0
H896 H 0.16844 0.34839 0.85336 0.0
H897 H 0.13945 0.34324 0.87167 0.0
H898 H 0.21364 0.37118 0.8855 0.0
H899 H 0.2431 0.37562 0.86733 0.0
H900 H 0.26697 0.34039 0.8825 0.0
H901 H 0.2745 0.17021 0.86198 0.0
H902 H 0.31455 0.19511 0.83815 0.0
H903 H 0.25337 0.33122 0.84284 0.0
C904 C 0.17905 0.28311 0.89776 0.0
C905 C 0.17864 0.24748 0.90875 0.0
C906 C 0.19597 0.20337 0.90492 0.0
C907 C 0.21618 0.19573 0.89038 0.0
C908 C 0.21766 0.23239 0.87992 0.0
C909 C 0.19859 0.27492 0.88337 0.0
C910 C 0.20719 0.30982 0.8708 0.0
C911 C 0.16163 0.32482 0.86322 0.0
C912 C 0.23435 0.35168 0.8769 0.0
C913 C 0.23592 0.28106 0.85997 0.0
C914 C 0.24144 0.2364 0.86526 0.0
C915 C 0.26962 0.20483 0.85759 0.0
C916 C 0.29247 0.21938 0.84414 0.0
C917 C 0.28704 0.26511 0.8386 0.0
C918 C 0.25803 0.29591 0.84663 0.0
H919 H 0.26007 0.8032 0.09055 0.0
H920 H 0.26999 0.66289 0.07367 0.0
H921 H 0.2506 0.6334 0.09974 0.0
H922 H 0.31837 0.78138 0.12485 0.0
H923 H 0.28537 0.82126 0.13639 0.0
H924 H 0.29168 0.83102 0.11602 0.0
H925 H 0.2027 0.83342 0.11307 0.0
H926 H 0.19614 0.82333 0.13348 0.0
H927 H 0.16863 0.78546 0.11981 0.0
H928 H 0.23458 0.61967 0.12762 0.0
H929 H 0.2354 0.62125 0.15602 0.0
H930 H 0.24309 0.77082 0.15509 0.0
C931 C 0.25709 0.76633 0.09236 0.0
C932 C 0.26558 0.73505 0.08028 0.0
C933 C 0.26311 0.68705 0.08293 0.0
C934 C 0.25178 0.67017 0.09759 0.0
C935 C 0.24381 0.70193 0.10938 0.0
C936 C 0.24708 0.74899 0.10698 0.0
C937 C 0.24337 0.77552 0.12195 0.0
C938 C 0.28731 0.80394 0.12498 0.0
C939 C 0.20013 0.80624 0.12208 0.0
C940 C 0.23877 0.73597 0.13321 0.0
C941 C 0.2376 0.69394 0.12568 0.0
C942 C 0.23514 0.65234 0.13365 0.0
C943 C 0.23545 0.65365 0.14978 0.0
C944 C 0.23936 0.69621 0.15771 0.0
C945 C 0.23993 0.73787 0.1493 0.0
H946 H 0.72099 0.73788 0.90998 0.0
H947 H 0.8692 0.75752 0.90916 0.0
H948 H 0.8661 0.77024 0.88112 0.0
H949 H 0.71321 0.67118 0.88019 0.0
H950 H 0.66054 0.69275 0.87181 0.0
H951 H 0.67097 0.70007 0.89203 0.0
H952 H 0.66074 0.7885 0.88957 0.0
H953 H 0.64893 0.78154 0.86928 0.0
H954 H 0.69406 0.81997 0.87551 0.0
H955 H 0.85099 0.75565 0.85351 0.0
H956 H 0.82258 0.72786 0.82829 0.0
H957 H 0.6835 0.7223 0.84646 0.0
C958 C 0.75241 0.74723 0.90399 0.0
C959 C 0.79529 0.74655 0.9117 0.0
C960 C 0.83588 0.75829 0.90352 0.0
C961 C 0.83446 0.76545 0.88755 0.0
C962 C 0.79206 0.76207 0.88006 0.0
C963 C 0.75143 0.75485 0.88808 0.0
C964 C 0.71142 0.74645 0.87721 0.0
C965 C 0.68772 0.69986 0.88051 0.0
C966 C 0.67674 0.78652 0.87793 0.0
C967 C 0.73661 0.74587 0.86194 0.0
C968 C 0.783 0.75565 0.86379 0.0
C969 C 0.81449 0.74985 0.85178 0.0
C970 C 0.79821 0.73359 0.83757 0.0
C971 C 0.75087 0.72374 0.83549 0.0
C972 C 0.71964 0.731 0.8477 0.0
H973 H 0.66889 0.18276 0.09106 0.0
H974 H 0.66394 0.31196 0.06587 0.0
H975 H 0.68057 0.35446 0.09012 0.0
H976 H 0.60872 0.22286 0.12327 0.0
H977 H 0.64072 0.18847 0.1369 0.0
H978 H 0.63437 0.16901 0.11734 0.0
H979 H 0.72335 0.16321 0.11476 0.0
H980 H 0.72996 0.1831 0.13432 0.0
H981 H 0.75841 0.2131 0.11879 0.0
H982 H 0.69584 0.38212 0.11756 0.0
H983 H 0.69675 0.39339 0.14592 0.0
H984 H 0.68551 0.24564 0.15255 0.0
C985 C 0.67212 0.21998 0.09057 0.0
C986 C 0.66588 0.2442 0.07663 0.0
C987 C 0.66888 0.29292 0.07649 0.0
C988 C 0.67866 0.31717 0.09015 0.0
C989 C 0.68472 0.29204 0.10375 0.0
C990 C 0.68088 0.24452 0.10404 0.0
C991 C 0.68387 0.22559 0.12023 0.0
C992 C 0.63927 0.20001 0.12469 0.0
C993 C 0.72644 0.19441 0.12213 0.0
C994 C 0.6892 0.26993 0.12913 0.0
C995 C 0.69087 0.30788 0.11946 0.0
C996 C 0.69476 0.35264 0.12522 0.0
C997 C 0.69552 0.35871 0.14129 0.0
C998 C 0.69128 0.32027 0.15125 0.0
C999 C 0.68898 0.27545 0.14509 0.0
H1000 H 0.25665 0.35305 0.25557 0.0
H1001 H 0.16841 0.37987 0.29503 0.0
H1002 H 0.1916 0.46169 0.29452 0.0
H1003 H 0.34782 0.44426 0.26449 0.0
H1004 H 0.35338 0.45744 0.24426 0.0
H1005 H 0.3404 0.39935 0.25033 0.0
H1006 H 0.26778 0.39926 0.2329 0.0
H1007 H 0.28063 0.45686 0.22678 0.0
H1008 H 0.22524 0.44417 0.23524 0.0
H1009 H 0.21146 0.54175 0.28664 0.0
H1010 H 0.22139 0.61238 0.27095 0.0
H1011 H 0.29489 0.53319 0.23642 0.0
C1012 C 0.24331 0.37572 0.26444 0.0
C1013 C 0.21066 0.36007 0.27531 0.0
C1014 C 0.19347 0.39108 0.28656 0.0
C1015 C 0.20682 0.43755 0.28646 0.0
C1016 C 0.23774 0.45227 0.27517 0.0
C1017 C 0.25599 0.42208 0.26441 0.0
C1018 C 0.28219 0.44729 0.25193 0.0
C1019 C 0.33403 0.43644 0.25282 0.0
C1020 C 0.26274 0.43626 0.23578 0.0
C1021 C 0.27255 0.49653 0.25662 0.0
C1022 C 0.24852 0.49886 0.27039 0.0
C1023 C 0.23127 0.54052 0.27606 0.0
C1024 C 0.23703 0.58042 0.26711 0.0
C1025 C 0.25879 0.57776 0.25255 0.0
C1026 C 0.2784 0.53585 0.2476 0.0
H1027 H 0.36619 0.78979 0.74853 0.0
H1028 H 0.39767 0.80929 0.69998 0.0
H1029 H 0.47244 0.76917 0.70383 0.0
H1030 H 0.47703 0.80937 0.76317 0.0
H1031 H 0.47202 0.76611 0.77803 0.0
H1032 H 0.42123 0.79465 0.77093 0.0
H1033 H 0.38528 0.71498 0.76434 0.0
H1034 H 0.43645 0.68624 0.77121 0.0
H1035 H 0.41608 0.67586 0.75189 0.0
H1036 H 0.54537 0.72927 0.71367 0.0
H1037 H 0.61149 0.69996 0.72876 0.0
H1038 H 0.5285 0.70553 0.7704 0.0
C1039 C 0.3887 0.78605 0.73864 0.0
C1040 C 0.37622 0.80317 0.72397 0.0
C1041 C 0.4067 0.79684 0.71137 0.0
C1042 C 0.44898 0.77373 0.71342 0.0
C1043 C 0.45971 0.75674 0.72806 0.0
C1044 C 0.43033 0.76283 0.74042 0.0
C1045 C 0.44989 0.74291 0.75512 0.0
C1046 C 0.45539 0.7805 0.76753 0.0
C1047 C 0.42015 0.7026 0.76098 0.0
C1048 C 0.49593 0.72609 0.74928 0.0
C1049 C 0.50083 0.73353 0.73361 0.0
C1050 C 0.54169 0.72292 0.72591 0.0
C1051 C 0.57899 0.70604 0.73458 0.0
C1052 C 0.5752 0.70052 0.75079 0.0
C1053 C 0.53253 0.7092 0.75804 0.0
H1054 H 0.77645 0.47055 0.23406 0.0
H1055 H 0.64841 0.439 0.25759 0.0
H1056 H 0.65722 0.50949 0.27349 0.0
H1057 H 0.83617 0.5226 0.26873 0.0
H1058 H 0.86484 0.56464 0.25678 0.0
H1059 H 0.85199 0.50815 0.24921 0.0
H1060 H 0.80797 0.54567 0.22638 0.0
H1061 H 0.82055 0.602 0.23387 0.0
H1062 H 0.76157 0.58543 0.23034 0.0
H1063 H 0.67147 0.59027 0.28229 0.0
H1064 H 0.69372 0.67239 0.28505 0.0
H1065 H 0.81631 0.64767 0.25778 0.0
C1066 C 0.7509 0.47806 0.24283 0.0
C1067 C 0.71167 0.44999 0.24464 0.0
C1068 C 0.67878 0.46033 0.25617 0.0
C1069 C 0.68361 0.50008 0.26524 0.0
C1070 C 0.72222 0.52791 0.26289 0.0
C1071 C 0.75584 0.51679 0.25219 0.0
C1072 C 0.79216 0.55398 0.25101 0.0
C1073 C 0.83906 0.53628 0.25678 0.0
C1074 C 0.79571 0.57288 0.23443 0.0
C1075 C 0.77212 0.58926 0.26193 0.0
C1076 C 0.73198 0.57347 0.2688 0.0
C1077 C 0.70371 0.60245 0.2775 0.0
C1078 C 0.71641 0.64887 0.27897 0.0
C1079 C 0.75723 0.66524 0.27197 0.0
C1080 C 0.78596 0.635 0.26372 0.0
H1081 H 0.65659 0.17286 0.7236 0.0
H1082 H 0.73703 0.29018 0.73927 0.0
H1083 H 0.66671 0.32716 0.74907 0.0
H1084 H 0.54897 0.24211 0.71347 0.0
H1085 H 0.51186 0.19646 0.72019 0.0
H1086 H 0.56707 0.1828 0.71175 0.0
H1087 H 0.58875 0.13674 0.73632 0.0
H1088 H 0.53413 0.15085 0.74494 0.0
H1089 H 0.58691 0.16507 0.75483 0.0
H1090 H 0.59317 0.34375 0.76185 0.0
H1091 H 0.5159 0.34379 0.77401 0.0
H1092 H 0.48051 0.21934 0.74902 0.0
C1093 C 0.65898 0.20705 0.72857 0.0
C1094 C 0.7021 0.22847 0.7308 0.0
C1095 C 0.70426 0.2729 0.73762 0.0
C1096 C 0.66453 0.29438 0.74315 0.0
C1097 C 0.62282 0.27137 0.74155 0.0
C1098 C 0.61939 0.22921 0.73414 0.0
C1099 C 0.57083 0.21028 0.73523 0.0
C1100 C 0.54835 0.20779 0.7192 0.0
C1101 C 0.57016 0.16295 0.74331 0.0
C1102 C 0.54847 0.24717 0.74509 0.0
C1103 C 0.57909 0.28221 0.74852 0.0
C1104 C 0.5683 0.3174 0.75888 0.0
C1105 C 0.52476 0.31697 0.76582 0.0
C1106 C 0.49286 0.28192 0.76219 0.0
C1107 C 0.50447 0.24693 0.75162 0.0
H1108 H 0.17367 0.12631 -0.00247 0.0
H1109 H 0.13395 0.1007 0.95001 0.0
H1110 H 0.16015 0.01963 0.9526 0.0
H1111 H 0.27588 0.05952 -0.0028 0.0
H1112 H 0.26868 0.03918 0.0167 0.0
H1113 H 0.24544 0.09433 0.01112 0.0
H1114 H 0.16399 0.0692 0.02023 0.0
H1115 H 0.18706 0.01422 0.02605 0.0
H1116 H 0.13927 0.01667 0.01278 0.0
H1117 H 0.19415 0.94153 0.96053 0.0
H1118 H 0.22566 0.87244 0.97377 0.0
H1119 H 0.2421 0.95258 0.01568 0.0
C1120 C 0.1701 0.10375 0.98764 0.0
C1121 C 0.15184 0.11983 0.97356 0.0
C1122 C 0.14762 0.08898 0.96096 0.0
C1123 C 0.16269 0.04304 0.96229 0.0
C1124 C 0.18161 0.02876 0.97629 0.0
C1125 C 0.1848 0.05824 0.98876 0.0
C1126 C 0.20612 0.03502 0.00259 0.0
C1127 C 0.25174 0.05841 0.00716 0.0
C1128 C 0.17207 0.03368 0.01621 0.0
C1129 C 0.21435 0.98762 0.99602 0.0
C1130 C 0.20047 0.98449 0.98081 0.0
C1131 C 0.205 0.9436 0.97246 0.0
C1132 C 0.22316 0.9047 0.98001 0.0
C1133 C 0.23603 0.90721 0.99575 0.0
C1134 C 0.23221 0.94947 0.00368 0.0
H1135 H 0.10066 0.77456 0.02606 0.0
H1136 H 0.18302 0.65919 0.01004 0.0
H1137 H 0.11246 0.6136 0.00585 0.0
H1138 H 0.00256 0.70441 0.04351 0.0
H1139 H 0.96041 0.74522 0.0366 0.0
H1140 H 0.01718 0.7647 0.04204 0.0
H1141 H 0.02783 0.80192 0.01506 0.0
H1142 H 0.97122 0.78298 0.00967 0.0
H1143 H 0.02028 0.76687 -0.00193 0.0
H1144 H 0.03444 0.58592 -0.00109 0.0
H1145 H 0.95565 0.58156 0.98796 0.0
H1146 H 0.92347 0.71458 0.00788 0.0
C1147 C 0.10368 0.73914 0.0222 0.0
C1148 C 0.147 0.72024 0.01845 0.0
C1149 C 0.14992 0.67429 0.01295 0.0
C1150 C 0.1101 0.64793 0.0107 0.0
C1151 C 0.06758 0.66795 0.01403 0.0
C1152 C 0.06408 0.71258 0.01965 0.0
C1153 C 0.01446 0.72869 0.01987 0.0
C1154 C -0.00233 0.73618 0.0365 0.0
C1155 C 0.00811 0.77266 0.01008 0.0
C1156 C 0.99107 0.68736 0.01262 0.0
C1157 C 0.02201 0.652 0.0098 0.0
C1158 C 0.0095 0.61264 0.00149 0.0
C1159 C 0.96475 0.61023 0.99538 0.0
C1160 C 0.93372 0.64718 -0.00246 0.0
C1161 C 0.94647 0.6853 0.00665 0.0
H1162 H 0.69623 0.00584 0.99049 0.0
H1163 H 0.69553 0.97992 0.03989 0.0
H1164 H 0.73258 0.90482 0.03558 0.0
H1165 H 0.67393 0.88386 0.97926 0.0
H1166 H 0.71052 0.88805 0.9625 0.0
H1167 H 0.68018 0.93827 0.96939 0.0
H1168 H 0.75795 0.98213 0.971 0.0
H1169 H 0.78868 0.93163 0.96458 0.0
H1170 H 0.80408 0.95874 0.98256 0.0
H1171 H 0.77638 0.83785 0.02666 0.0
H1172 H 0.8129 0.77326 0.01294 0.0
H1173 H 0.78411 0.83992 0.96908 0.0
C1174 C 0.70276 0.98382 0.00035 0.0
C1175 C 0.69346 -0.00111 0.01553 0.0
C1176 C 0.7028 0.96926 0.02816 0.0
C1177 C 0.72395 0.9266 0.02586 0.0
C1178 C 0.73498 0.91391 0.01086 0.0
C1179 C 0.72374 0.94084 -0.00174 0.0
C1180 C 0.73996 0.91869 0.98339 0.0
C1181 C 0.69869 0.90648 0.97302 0.0
C1182 C 0.77473 0.94966 0.97488 0.0
C1183 C 0.76301 0.87576 0.9897 0.0
C1184 C 0.7598 0.87406 0.00559 0.0
C1185 C 0.77864 0.83831 0.0142 0.0
C1186 C 0.79951 0.802 0.00631 0.0
C1187 C 0.80108 0.80166 0.98997 0.0
C1188 C 0.78379 0.83963 0.98157 0.0
H1189 H 0.96565 0.26188 0.97582 0.0
H1190 H 0.04764 0.26154 0.01772 0.0
H1191 H 0.97882 0.23907 0.03271 0.0
H1192 H 0.85555 0.3024 0.99392 0.0
H1193 H 0.82197 0.26572 0.98146 0.0
H1194 H 0.87568 0.28961 0.97471 0.0
H1195 H 0.90452 0.20709 0.96826 0.0
H1196 H 0.85148 0.18285 0.97528 0.0
H1197 H 0.90572 0.16393 0.98325 0.0
H1198 H 0.90304 0.20594 0.04246 0.0
H1199 H 0.82592 0.1708 0.04619 0.0
H1200 H 0.79643 0.19222 -0.00242 0.0
C1201 C 0.969 0.25842 0.98821 0.0
C1202 C 0.01209 0.2634 0.99556 0.0
C1203 C 0.01492 0.2582 0.01181 0.0
C1204 C 0.97603 0.2453 0.02043 0.0
C1205 C 0.93456 0.23838 0.01266 0.0
C1206 C 0.9307 0.24562 0.99694 0.0
C1207 C 0.88351 0.2325 0.99106 0.0
C1208 C 0.85765 0.27509 0.98493 0.0
C1209 C 0.88653 0.19433 0.97874 0.0
C1210 C 0.86206 0.21485 0.00578 0.0
C1211 C 0.89156 0.21901 0.0182 0.0
C1212 C 0.87942 0.20309 0.03284 0.0
C1213 C 0.83572 0.18291 0.03484 0.0
C1214 C 0.80514 0.17841 0.02218 0.0
C1215 C 0.81886 0.19475 0.00753 0.0
H1216 H 0.80958 -0.00082 0.72959 0.0
H1217 H 0.78722 0.08367 0.77024 0.0
H1218 H 0.75843 0.01514 0.78432 0.0
H1219 H 0.71025 0.93319 0.73256 0.0
H1220 H 0.73652 0.88023 0.72608 0.0
H1221 H 0.75933 0.93478 0.71979 0.0
H1222 H 0.84021 0.91266 0.7303 0.0
H1223 H 0.81782 0.85765 0.7364 0.0
H1224 H 0.84613 0.89472 0.75012 0.0
H1225 H 0.72592 0.93768 0.79306 0.0
H1226 H 0.69883 0.85715 0.79627 0.0
H1227 H 0.74308 0.82665 0.74948 0.0
C1228 C 0.79923 0.00325 0.74152 0.0
C1229 C 0.80042 0.04662 0.74882 0.0
C1230 C 0.7868 0.05054 0.76447 0.0
C1231 C 0.77024 0.01193 0.77252 0.0
C1232 C 0.76817 0.96986 0.76477 0.0
C1233 C 0.78302 0.9653 0.74969 0.0
C1234 C 0.77626 0.91695 0.74373 0.0
C1235 C 0.74364 0.91629 0.72972 0.0
C1236 C 0.82287 0.89416 0.73992 0.0
C1237 C 0.75415 0.89518 0.75767 0.0
C1238 C 0.74984 0.9259 0.76976 0.0
C1239 C 0.72948 0.91321 0.78371 0.0
C1240 C 0.71392 0.86757 0.78539 0.0
C1241 C 0.71885 0.83556 0.77314 0.0
C1242 C 0.73886 0.85003 0.75912 0.0
H1243 H 0.82131 0.26571 0.23523 0.0
H1244 H 0.85746 0.34706 0.1949 0.0
H1245 H 0.94007 0.33088 0.1998 0.0
H1246 H 0.90695 0.30718 0.25868 0.0
H1247 H 0.9172 0.2535 0.26862 0.0
H1248 H 0.86133 0.26531 0.26055 0.0
H1249 H 0.86519 0.18962 0.24465 0.0
H1250 H 0.92101 0.17725 0.2528 0.0
H1251 H 0.91386 0.17929 0.23216 0.0
H1252 H 0.01887 0.31096 0.21065 0.0
H1253 H 0.08655 0.29079 0.22668 0.0
H1254 H -0.00384 0.22634 0.26027 0.0
C1255 C 0.84629 0.27955 0.22718 0.0
C1256 C 0.83285 0.30766 0.21465 0.0
C1257 C 0.86695 0.32527 0.20454 0.0
C1258 C 0.91388 0.3162 0.20722 0.0
C1259 C 0.9258 0.28942 0.21999 0.0
C1260 C 0.89283 0.27126 0.22975 0.0
C1261 C 0.91409 0.24709 0.24343 0.0
C1262 C 0.899 0.26965 0.25871 0.0
C1263 C 0.90288 0.19524 0.24324 0.0
C1264 C 0.96438 0.25563 0.24015 0.0
C1265 C 0.97066 0.2793 0.22646 0.0
C1266 C 0.01434 0.2921 0.22132 0.0
C1267 C 0.05248 0.28056 0.2305 0.0
C1268 C 0.04637 0.25727 0.24473 0.0
C1269 C 0.00178 0.24443 0.2495 0.0
H1270 H 0.31198 0.16134 0.75057 0.0
H1271 H 0.33131 0.12687 0.79888 0.0
H1272 H 0.29589 0.0503 0.79423 0.0
H1273 H 0.20223 0.10398 0.74544 0.0
H1274 H 0.21615 0.08536 0.72617 0.0
H1275 H 0.24062 0.13791 0.73365 0.0
H1276 H 0.32309 0.10713 0.72787 0.0
H1277 H 0.29867 0.05489 0.72026 0.0
H1278 H 0.34051 0.05204 0.7356 0.0
H1279 H 0.25864 0.97752 0.78397 0.0
H1280 H 0.23332 0.91072 0.76845 0.0
H1281 H 0.24037 0.99434 0.72698 0.0
C1282 C 0.3087 0.13783 0.76023 0.0
C1283 C 0.32419 0.14999 0.77511 0.0
C1284 C 0.31986 0.11802 0.78737 0.0
C1285 C 0.29934 0.07478 0.78487 0.0
C1286 C 0.28359 0.06438 0.77007 0.0
C1287 C 0.28865 0.09485 0.75794 0.0
C1288 C 0.27164 0.07474 0.74293 0.0
C1289 C 0.2302 0.10214 0.73668 0.0
C1290 C 0.31081 0.07202 0.73097 0.0
C1291 C 0.25718 0.02752 0.7484 0.0
C1292 C 0.26331 0.02245 0.76413 0.0
C1293 C 0.25354 0.98115 0.77166 0.0
C1294 C 0.23888 0.94354 0.76276 0.0
C1295 C 0.23502 0.94752 0.74652 0.0
C1296 C 0.24298 0.99042 0.73938 0.0
H1297 H 0.93826 0.82771 0.24535 0.0
H1298 H 0.84988 0.71952 0.22768 0.0
H1299 H 0.91689 0.68366 0.21465 0.0
H1300 H 0.01999 0.83149 0.21112 0.0
H1301 H 0.06766 0.84245 0.22392 0.0
H1302 H 0.0111 0.86394 0.22862 0.0
H1303 H 0.01639 0.82243 0.25508 0.0
H1304 H 0.07223 0.80003 0.25024 0.0
H1305 H 0.02655 0.76104 0.25561 0.0
H1306 H -0.00318 0.6522 0.20784 0.0
H1307 H 0.08017 0.63156 0.207 0.0
H1308 H 0.11286 0.7619 0.229 0.0
C1309 C 0.93279 0.79744 0.23825 0.0
C1310 C 0.88921 0.77646 0.23741 0.0
C1311 C 0.88311 0.7365 0.22823 0.0
C1312 C 0.92097 0.71583 0.22083 0.0
C1313 C 0.9642 0.73625 0.2225 0.0
C1314 C 0.96991 0.77682 0.23074 0.0
C1315 C 0.01999 0.78969 0.23224 0.0
C1316 C 0.03026 0.83455 0.22344 0.0
C1317 C 0.0346 0.79346 0.2493 0.0
C1318 C 0.04185 0.74861 0.22446 0.0
C1319 C 0.00951 0.71837 0.21862 0.0
C1320 C 0.02246 0.67612 0.2121 0.0
C1321 C 0.06968 0.66453 0.21172 0.0
C1322 C 0.10275 0.69483 0.21811 0.0
C1323 C 0.08838 0.73768 0.22416 0.0
H1324 H 0.6733 0.65996 0.49578 0.0
H1325 H 0.69844 0.64242 0.4468 0.0
H1326 H 0.72735 0.56312 0.45179 0.0
H1327 H 0.7736 0.60868 0.50823 0.0
H1328 H 0.7488 0.58201 0.52508 0.0
H1329 H 0.72392 0.63408 0.51743 0.0
H1330 H 0.64424 0.59419 0.51485 0.0
H1331 H 0.66849 0.54227 0.5229 0.0
H1332 H 0.63984 0.54049 0.50446 0.0
H1333 H 0.76085 0.48868 0.46293 0.0
H1334 H 0.7892 0.42348 0.47871 0.0
H1335 H 0.74385 0.49431 0.5202 0.0
C1336 C 0.6839 0.63913 0.48602 0.0
C1337 C 0.68373 0.65709 0.47091 0.0
C1338 C 0.69788 0.62891 0.45845 0.0
C1339 C 0.71464 0.5841 0.4612 0.0
C1340 C 0.71651 0.56839 0.47642 0.0
C1341 C 0.70079 0.59496 0.48856 0.0
C1342 C 0.70868 0.5719 0.50393 0.0
C1343 C 0.74065 0.6009 0.51426 0.0
C1344 C 0.66257 0.56158 0.512 0.0
C1345 C 0.73211 0.52831 0.49863 0.0
C1346 C 0.73624 0.52659 0.48276 0.0
C1347 C 0.75743 0.48955 0.47536 0.0
C1348 C 0.77368 0.45286 0.48443 0.0
C1349 C 0.76881 0.45377 0.50072 0.0
C1350 C 0.74835 0.49245 0.50782 0.0
H1351 H 0.66444 0.27241 0.49996 0.0
H1352 H 0.6298 0.32212 0.5458 0.0
H1353 H 0.54776 0.30349 0.54096 0.0
H1354 H 0.56963 0.32005 0.48127 0.0
H1355 H 0.56237 0.27285 0.46796 0.0
H1356 H 0.61853 0.28537 0.47569 0.0
H1357 H 0.62535 0.20144 0.48587 0.0
H1358 H 0.56924 0.18853 0.47807 0.0
H1359 H 0.58085 0.1786 0.49822 0.0
H1360 H 0.46924 0.28275 0.53044 0.0
H1361 H 0.40033 0.26441 0.51485 0.0
H1362 H 0.48824 0.23156 0.47579 0.0
C1363 C 0.63991 0.27875 0.50914 0.0
C1364 C 0.65355 0.2985 0.5233 0.0
C1365 C 0.62007 0.30691 0.53487 0.0
C1366 C 0.57351 0.29631 0.53225 0.0
C1367 C 0.56132 0.27749 0.51803 0.0
C1368 C 0.59364 0.26885 0.50669 0.0
C1369 C 0.57168 0.25147 0.49202 0.0
C1370 C 0.58111 0.28441 0.47844 0.0
C1371 C 0.58773 0.20207 0.48833 0.0
C1372 C 0.52167 0.25248 0.49674 0.0
C1373 C 0.51632 0.2669 0.51184 0.0
C1374 C 0.47303 0.27121 0.51863 0.0
C1375 C 0.43418 0.26072 0.50969 0.0
C1376 C 0.4391 0.2468 0.49411 0.0
C1377 C 0.48344 0.24242 0.48764 0.0
H1378 H 0.18298 0.51115 0.51507 0.0
H1379 H 0.21969 0.60034 0.47684 0.0
H1380 H 0.23452 0.53212 0.46057 0.0
H1381 H 0.26669 0.43469 0.511 0.0
H1382 H 0.23437 0.38335 0.51555 0.0
H1383 H 0.21588 0.43809 0.52296 0.0
H1384 H 0.13536 0.42717 0.51054 0.0
H1385 H 0.15335 0.37175 0.50323 0.0
H1386 H 0.13097 0.41479 0.49022 0.0
H1387 H 0.26293 0.4561 0.45086 0.0
H1388 H 0.29441 0.37728 0.44759 0.0
H1389 H 0.23513 0.33836 0.49173 0.0
C1390 C 0.19253 0.51615 0.5031 0.0
C1391 C 0.20036 0.56063 0.49717 0.0
C1392 C 0.21314 0.56631 0.48152 0.0
C1393 C 0.22162 0.52782 0.4722 0.0
C1394 C 0.21583 0.48417 0.47862 0.0
C1395 C 0.20029 0.47816 0.4936 0.0
C1396 C 0.20146 0.42805 0.49831 0.0
C1397 C 0.2314 0.42067 0.51279 0.0
C1398 C 0.15236 0.40934 0.50071 0.0
C1399 C 0.22353 0.40743 0.48412 0.0
C1400 C 0.23091 0.44 0.47276 0.0
C1401 C 0.25605 0.42987 0.45945 0.0
C1402 C 0.27418 0.38523 0.45775 0.0
C1403 C 0.26711 0.35165 0.46936 0.0
C1404 C 0.24063 0.36294 0.4825 0.0
H1405 H 0.50677 0.79174 0.47419 0.0
H1406 H 0.58888 0.79353 0.51605 0.0
H1407 H 0.52304 0.76147 0.53062 0.0
H1408 H 0.39566 0.81962 0.4927 0.0
H1409 H 0.36443 0.78236 0.47975 0.0
H1410 H 0.41625 0.8107 0.47331 0.0
H1411 H 0.45078 0.73128 0.46575 0.0
H1412 H 0.39974 0.70235 0.47248 0.0
H1413 H 0.45536 0.68654 0.48013 0.0
H1414 H 0.4502 0.72084 0.53987 0.0
H1415 H 0.37293 0.68585 0.54361 0.0
H1416 H 0.34239 0.70944 0.49522 0.0
C1417 C 0.51063 0.78652 0.4865 0.0
C1418 C 0.55289 0.79498 0.49397 0.0
C1419 C 0.55659 0.78763 0.5101 0.0
C1420 C 0.51955 0.76904 0.51845 0.0
C1421 C 0.47918 0.75859 0.51049 0.0
C1422 C 0.47428 0.76804 0.49494 0.0
C1423 C 0.42825 0.75228 0.48887 0.0
C1424 C 0.39943 0.79369 0.48333 0.0
C1425 C 0.43392 0.71596 0.47605 0.0
C1426 C 0.40841 0.73131 0.50333 0.0
C1427 C 0.43798 0.73525 0.51573 0.0
C1428 C 0.42659 0.71789 0.53026 0.0
C1429 C 0.38298 0.69759 0.53224 0.0
C1430 C 0.35175 0.69503 0.51972 0.0
C1431 C 0.3654 0.71106 0.50505 0.0
H1432 H 0.08374 0.04007 0.28793 0.0
H1433 H 0.01087 0.15715 0.30765 0.0
H1434 H 0.94098 0.10966 0.31024 0.0
H1435 H 0.99207 -0.00041 0.26545 0.0
H1436 H 0.0041 0.93915 0.26829 0.0
H1437 H 0.05014 0.98063 0.26938 0.0
H1438 H 0.07103 0.95155 0.29677 0.0
H1439 H 0.02513 0.90976 0.29573 0.0
H1440 H 0.0272 0.95015 0.31152 0.0
H1441 H 0.87752 0.05293 0.30849 0.0
H1442 H 0.82414 0.98872 0.30334 0.0
H1443 H 0.93754 0.90721 0.28514 0.0
C1444 C 0.05342 0.05546 0.29311 0.0
C1445 C 0.05292 0.10236 0.29764 0.0
C1446 C 0.01219 0.12135 0.30409 0.0
C1447 C 0.9723 0.09463 0.30565 0.0
C1448 C 0.97368 0.04891 0.30077 0.0
C1449 C 0.01317 0.02927 0.29473 0.0
C1450 C 0.00446 0.98005 0.28956 0.0
C1451 C 0.0132 0.97456 0.27214 0.0
C1452 C 0.03369 0.94586 0.29896 0.0
C1453 C 0.95366 0.97552 0.29339 0.0
C1454 C 0.93676 0.01567 0.29989 0.0
C1455 C 0.89039 0.02106 0.30361 0.0
C1456 C 0.86033 0.98448 0.30056 0.0
C1457 C 0.87676 0.94293 0.29392 0.0
C1458 C 0.92417 0.9383 0.29045 0.0
H1459 H -0.0022 0.09579 0.69188 0.0
H1460 H 0.87439 0.01186 0.6877 0.0
H1461 H 0.92309 0.94283 0.6837 0.0
H1462 H 0.07039 0.03114 0.66402 0.0
H1463 H 0.12115 0.03857 0.67575 0.0
H1464 H 0.07658 0.08197 0.67582 0.0
H1465 H 0.0702 0.07497 0.70556 0.0
H1466 H 0.11446 0.03153 0.70558 0.0
H1467 H 0.05904 0.01932 0.71407 0.0
H1468 H 0.98559 0.88177 0.68334 0.0
H1469 H 0.05562 0.83444 0.68694 0.0
H1470 H 0.13713 0.95933 0.69163 0.0
C1471 C 0.98074 0.0632 0.68974 0.0
C1472 C 0.93211 0.05946 0.69003 0.0
C1473 C 0.91152 0.0158 0.68742 0.0
C1474 C 0.93893 0.97636 0.68512 0.0
C1475 C 0.9868 0.98122 0.68535 0.0
C1476 C 0.00744 0.02368 0.68751 0.0
C1477 C 0.05931 0.01939 0.68874 0.0
C1478 C 0.08326 0.04424 0.67528 0.0
C1479 C 0.07674 0.03734 0.70442 0.0
C1480 C 0.06465 0.96766 0.68746 0.0
C1481 C 0.0226 0.9462 0.68528 0.0
C1482 C 0.01877 0.89828 0.6848 0.0
C1483 C 0.05882 0.87167 0.68686 0.0
C1484 C 0.10209 0.89305 0.68952 0.0
C1485 C 0.10483 0.94174 0.68948 0.0
H1486 H 0.08894 0.44921 0.94873 0.0
H1487 H 0.01271 0.34503 0.92343 0.0
H1488 H 0.95608 0.40398 0.91542 0.0
H1489 H 0.99316 0.50346 0.96407 0.0
H1490 H 0.01633 0.56108 0.96315 0.0
H1491 H 0.05465 0.51256 0.9647 0.0
H1492 H 0.09721 0.53928 0.93994 0.0
H1493 H 0.05853 0.58777 0.93826 0.0
H1494 H 0.065 0.54809 0.9224 0.0
H1495 H 0.90346 0.47131 0.91264 0.0
H1496 H 0.85563 0.54045 0.91693 0.0
H1497 H 0.96563 0.60074 0.94429 0.0
C1498 C 0.06098 0.43908 0.94118 0.0
C1499 C 0.05535 0.3927 0.93659 0.0
C1500 C 0.01763 0.38044 0.92707 0.0
C1501 C 0.98554 0.41373 0.92235 0.0
C1502 C 0.99165 0.45907 0.92726 0.0
C1503 C 0.02833 0.47177 0.93652 0.0
C1504 C 0.02404 0.52144 0.94172 0.0
C1505 C 0.02189 0.52479 0.95945 0.0
C1506 C 0.06355 0.55088 0.93519 0.0
C1507 C 0.97839 0.53414 0.93438 0.0
C1508 C 0.96075 0.49801 0.92583 0.0
C1509 C 0.9172 0.50015 0.91908 0.0
C1510 C 0.89026 0.53961 0.9216 0.0
C1511 C 0.90684 0.57619 0.93091 0.0
C1512 C 0.95215 0.57386 0.93689 0.0
H1513 H 0.4439 0.87049 0.05006 0.0
H1514 H 0.31509 0.945 0.05619 0.0
H1515 H 0.35862 0.01634 0.0613 0.0
H1516 H 0.51137 0.93486 0.07937 0.0
H1517 H 0.56287 0.93378 0.06772 0.0
H1518 H 0.52179 0.88729 0.06644 0.0
H1519 H 0.51542 0.90008 0.03692 0.0
H1520 H 0.55645 0.94641 0.03812 0.0
H1521 H 0.50052 0.9565 0.02969 0.0
H1522 H 0.41559 0.08142 0.06264 0.0
H1523 H 0.48161 0.13469 0.06001 0.0
H1524 H 0.57316 0.01757 0.05368 0.0
C1525 C 0.42474 0.9015 0.05283 0.0
C1526 C 0.37594 0.90185 0.05278 0.0
C1527 C 0.35241 0.94358 0.05619 0.0
C1528 C 0.37686 0.98437 0.05917 0.0
C1529 C 0.42487 0.98296 0.05883 0.0
C1530 C 0.44859 0.94254 0.05583 0.0
C1531 C 0.50008 0.95101 0.05495 0.0
C1532 C 0.52552 0.9252 0.0679 0.0
C1533 C 0.51921 0.93773 0.03897 0.0
C1534 C 0.50149 0.00271 0.05747 0.0
C1535 C 0.45781 0.02048 0.05983 0.0
C1536 C 0.45007 0.06783 0.06111 0.0
C1537 C 0.4878 0.09784 0.0596 0.0
C1538 C 0.53274 0.08041 0.05686 0.0
C1539 C 0.53954 0.03209 0.05618 0.0
H1540 H 0.55391 0.60087 0.8035 0.0
H1541 H 0.67119 0.5249 0.82159 0.0
H1542 H 0.61959 0.46076 0.82879 0.0
H1543 H 0.4667 0.55861 0.83178 0.0
H1544 H 0.42254 0.55535 0.81719 0.0
H1545 H 0.46732 0.59826 0.81576 0.0
H1546 H 0.48828 0.56844 0.78845 0.0
H1547 H 0.44369 0.52562 0.78979 0.0
H1548 H 0.50223 0.5083 0.78584 0.0
H1549 H 0.55753 0.40135 0.83095 0.0
H1550 H 0.49042 0.35042 0.82711 0.0
H1551 H 0.4138 0.46536 0.80762 0.0
C1552 C 0.56863 0.57132 0.80936 0.0
C1553 C 0.61657 0.56806 0.81207 0.0
C1554 C 0.63455 0.52824 0.81942 0.0
C1555 C 0.60548 0.49173 0.82364 0.0
C1556 C 0.55852 0.49565 0.82049 0.0
C1557 C 0.54019 0.5345 0.81355 0.0
C1558 C 0.48955 0.52819 0.80991 0.0
C1559 C 0.45977 0.56212 0.81922 0.0
C1560 C 0.48044 0.53289 0.79247 0.0
C1561 C 0.48267 0.47911 0.81539 0.0
C1562 C 0.52263 0.46119 0.82169 0.0
C1563 C 0.52577 0.41523 0.82631 0.0
C1564 C 0.48746 0.38654 0.82405 0.0
C1565 C 0.44666 0.40387 0.81714 0.0
C1566 C 0.44406 0.45114 0.8132 0.0
H1567 H 0.36149 0.5424 0.20103 0.0
H1568 H 0.43364 0.66751 0.18752 0.0
H1569 H 0.50439 0.6224 0.18323 0.0
H1570 H 0.45419 0.49233 0.22173 0.0
H1571 H 0.44215 0.43402 0.21573 0.0
H1572 H 0.3961 0.47557 0.2169 0.0
H1573 H 0.37498 0.4597 0.18838 0.0
H1574 H 0.42104 0.41807 0.18709 0.0
H1575 H 0.41857 0.46553 0.17367 0.0
H1576 H 0.56815 0.56532 0.18168 0.0
H1577 H 0.62148 0.49919 0.183 0.0
H1578 H 0.50834 0.4106 0.1972 0.0
C1579 C 0.39198 0.5603 0.19701 0.0
C1580 C 0.39181 0.60858 0.19459 0.0
C1581 C 0.43272 0.63061 0.18947 0.0
C1582 C 0.47315 0.60528 0.18696 0.0
C1583 C 0.47217 0.55792 0.18955 0.0
C1584 C 0.43273 0.53555 0.19444 0.0
C1585 C 0.44158 0.48453 0.19691 0.0
C1586 C 0.43301 0.47083 0.21382 0.0
C1587 C 0.4123 0.45524 0.18585 0.0
C1588 C 0.49234 0.48196 0.19281 0.0
C1589 C 0.50917 0.52469 0.18856 0.0
C1590 C 0.55537 0.53156 0.18486 0.0
C1591 C 0.58539 0.49379 0.18568 0.0
C1592 C 0.56906 0.44966 0.19012 0.0
C1593 C 0.52175 0.44372 0.19355 0.0
H1594 H 0.53639 0.90183 0.44436 0.0
H1595 H 0.65599 0.98446 0.43224 0.0
H1596 H 0.6056 0.05216 0.42849 0.0
H1597 H 0.45372 0.95825 0.41785 0.0
H1598 H 0.40739 0.95461 0.43167 0.0
H1599 H 0.45208 0.91134 0.43151 0.0
H1600 H 0.46857 0.92746 0.46039 0.0
H1601 H 0.42416 0.97081 0.46062 0.0
H1602 H 0.482 0.98542 0.46645 0.0
H1603 H 0.5436 0.11242 0.42857 0.0
H1604 H 0.47455 0.16078 0.43254 0.0
H1605 H 0.39584 0.03849 0.44468 0.0
C1606 C 0.55196 0.93382 0.44055 0.0
C1607 C 0.60016 0.93771 0.43851 0.0
C1608 C 0.61915 0.98056 0.43385 0.0
C1609 C 0.59081 0.01921 0.43163 0.0
C1610 C 0.54357 0.01439 0.43408 0.0
C1611 C 0.52425 0.97273 0.43837 0.0
C1612 C 0.47309 0.97753 0.44144 0.0
C1613 C 0.44492 0.94873 0.42993 0.0
C1614 C 0.4613 0.96456 0.45822 0.0
C1615 C 0.46691 0.02865 0.43859 0.0
C1616 C 0.50782 0.04922 0.43419 0.0
C1617 C 0.51119 0.09663 0.43179 0.0
C1618 C 0.47176 0.12382 0.43411 0.0
C1619 C 0.4296 0.10351 0.43885 0.0
C1620 C 0.42727 0.05516 0.44087 0.0
H1621 H 0.97466 0.39933 0.5486 0.0
H1622 H 0.8587 0.47793 0.56645 0.0
H1623 H 0.91073 0.54311 0.57202 0.0
H1624 H 0.06288 0.44442 0.5755 0.0
H1625 H 0.10656 0.44571 0.56071 0.0
H1626 H 0.06139 0.40308 0.55998 0.0
H1627 H 0.03981 0.43014 0.53241 0.0
H1628 H 0.08476 0.47276 0.53306 0.0
H1629 H 0.02621 0.49006 0.52911 0.0
H1630 H 0.97328 0.60219 0.57315 0.0
H1631 H 0.04142 0.65162 0.56912 0.0
H1632 H 0.11632 0.53419 0.55054 0.0
C1633 C 0.9603 0.42981 0.554 0.0
C1634 C 0.91262 0.4334 0.55716 0.0
C1635 C 0.89512 0.47434 0.56393 0.0
C1636 C 0.92443 0.51147 0.56722 0.0
C1637 C 0.9711 0.50703 0.56372 0.0
C1638 C 0.98897 0.46722 0.55727 0.0
C1639 C 0.03953 0.47267 0.55336 0.0
C1640 C 0.06934 0.4395 0.56297 0.0
C1641 C 0.04804 0.46604 0.53596 0.0
C1642 C 0.04696 0.52223 0.5582 0.0
C1643 C 0.00727 0.54126 0.56433 0.0
C1644 C 0.0048 0.58753 0.56859 0.0
C1645 C 0.04368 0.61534 0.56622 0.0
C1646 C 0.08435 0.59678 0.55959 0.0
C1647 C 0.08611 0.54934 0.55588 0.0
loop_
_geom_bond_atom_site_label_1
_geom_bond_atom_site_label_2
_geom_bond_distance
_geom_bond_site_symmetry_2
_ccdc_geom_bond_type
Sc0 O3 2.025 . S
Sc0 O10 2.105 . S
Sc0 O13 2.105 . S
Sc0 O16 2.105 . S
Sc0 O19 2.105 . S
Sc1 O3 2.025 . S
Sc1 O11 2.105 . S
Sc1 O15 2.105 . S
Sc1 O17 2.105 . S
Sc1 O21 2.105 . S
Sc2 O3 2.025 . S
Sc2 O12 2.105 . S
Sc2 O14 2.105 . S
Sc2 O18 2.105 . S
Sc2 O20 2.105 . S
O3 Sc0 2.025 . S
O3 Sc1 2.025 . S
O3 Sc2 2.025 . S
C4 O10 1.268 . S
C4 O20 1.268 . S
C5 O11 1.268 . S
C5 O19 1.268 . S
C6 O12 1.268 . S
C6 O21 1.268 . S
C7 O13 1.268 . S
C7 O17 1.268 . S
C8 O14 1.268 . S
C8 O16 1.268 . S
C9 O15 1.268 . S
C9 O18 1.268 . S
O10 Sc0 2.105 . S
O10 C4 1.268 . S
O11 Sc1 2.105 . S
O11 C5 1.268 . S
O12 Sc2 2.105 . S
O12 C6 1.268 . S
O13 Sc0 2.105 . S
O13 C7 1.268 . S
O14 Sc2 2.105 . S
O14 C8 1.268 . S
O15 Sc1 2.105 . S
O15 C9 1.268 . S
O16 Sc0 2.105 . S
O16 C8 1.268 . S
O17 Sc1 2.105 . S
O17 C7 1.268 . S
O18 Sc2 2.105 . S
O18 C9 1.268 . S
O19 Sc0 2.105 . S
O19 C5 1.268 . S
O20 Sc2 2.105 . S
O20 C4 1.268 . S
O21 Sc1 2.105 . S
O21 C6 1.268 . S
Sc22 O25 2.025 . S
Sc22 O32 2.105 . S
Sc22 O35 2.105 . S
Sc22 O38 2.105 . S
Sc22 O41 2.105 . S
Sc23 O25 2.025 . S
Sc23 O33 2.105 . S
Sc23 O37 2.105 . S
Sc23 O39 2.105 . S
Sc23 O43 2.105 . S
Sc24 O25 2.025 . S
Sc24 O34 2.105 . S
Sc24 O36 2.105 . S
Sc24 O40 2.105 . S
Sc24 O42 2.105 . S
O25 Sc22 2.025 . S
O25 Sc23 2.025 . S
O25 Sc24 2.025 . S
C26 O32 1.268 . S
C26 O42 1.268 . S
C27 O33 1.268 . S
C27 O41 1.268 . S
C28 O34 1.268 . S
C28 O43 1.268 . S
C29 O35 1.268 . S
C29 O39 1.268 . S
C30 O36 1.268 . S
C30 O38 1.268 . S
C31 O37 1.268 . S
C31 O40 1.268 . S
O32 Sc22 2.105 . S
O32 C26 1.268 . S
O33 Sc23 2.105 . S
O33 C27 1.268 . S
O34 Sc24 2.105 . S
O34 C28 1.268 . S
O35 Sc22 2.105 . S
O35 C29 1.268 . S
O36 Sc24 2.105 . S
O36 C30 1.268 . S
O37 Sc23 2.105 . S
O37 C31 1.268 . S
O38 Sc22 2.105 . S
O38 C30 1.268 . S
O39 Sc23 2.105 . S
O39 C29 1.268 . S
O40 Sc24 2.105 . S
O40 C31 1.268 . S
O41 Sc22 2.105 . S
O41 C27 1.268 . S
O42 Sc24 2.105 . S
O42 C26 1.268 . S
O43 Sc23 2.105 . S
O43 C28 1.268 . S
Sc44 O47 2.025 . S
Sc44 O54 2.105 . S
Sc44 O57 2.105 . S
Sc44 O60 2.105 . S
Sc44 O63 2.105 . S
Sc45 O47 2.025 . S
Sc45 O55 2.105 . S
Sc45 O59 2.105 . S
Sc45 O61 2.105 . S
Sc45 O65 2.105 . S
Sc46 O47 2.025 . S
Sc46 O56 2.105 . S
Sc46 O58 2.105 . S
Sc46 O62 2.105 . S
Sc46 O64 2.105 . S
O47 Sc44 2.025 . S
O47 Sc45 2.025 . S
O47 Sc46 2.025 . S
C48 O54 1.268 . S
C48 O64 1.268 . S
C49 O55 1.268 . S
C49 O63 1.268 . S
C50 O56 1.268 . S
C50 O65 1.268 . S
C51 O57 1.268 . S
C51 O61 1.268 . S
C52 O58 1.268 . S
C52 O60 1.268 . S
C53 O59 1.268 . S
C53 O62 1.268 . S
O54 Sc44 2.105 . S
O54 C48 1.268 . S
O55 Sc45 2.105 . S
O55 C49 1.268 . S
O56 Sc46 2.105 . S
O56 C50 1.268 . S
O57 Sc44 2.105 . S
O57 C51 1.268 . S
O58 Sc46 2.105 . S
O58 C52 1.268 . S
O59 Sc45 2.105 . S
O59 C53 1.268 . S
O60 Sc44 2.105 . S
O60 C52 1.268 . S
O61 Sc45 2.105 . S
O61 C51 1.268 . S
O62 Sc46 2.105 . S
O62 C53 1.268 . S
O63 Sc44 2.105 . S
O63 C49 1.268 . S
O64 Sc46 2.105 . S
O64 C48 1.268 . S
O65 Sc45 2.105 . S
O65 C50 1.268 . S
Sc66 O69 2.025 . S
Sc66 O76 2.105 . S
Sc66 O79 2.105 . S
Sc66 O82 2.105 . S
Sc66 O85 2.105 . S
Sc67 O69 2.025 . S
Sc67 O77 2.105 . S
Sc67 O81 2.105 . S
Sc67 O83 2.105 . S
Sc67 O87 2.105 . S
Sc68 O69 2.025 . S
Sc68 O78 2.105 . S
Sc68 O80 2.105 . S
Sc68 O84 2.105 . S
Sc68 O86 2.105 . S
O69 Sc66 2.025 . S
O69 Sc67 2.025 . S
O69 Sc68 2.025 . S
C70 O76 1.268 . S
C70 O86 1.268 . S
C71 O77 1.268 . S
C71 O85 1.268 . S
C72 O78 1.268 . S
C72 O87 1.268 . S
C73 O79 1.268 . S
C73 O83 1.268 . S
C74 O80 1.268 . S
C74 O82 1.268 . S
C75 O81 1.268 . S
C75 O84 1.268 . S
O76 Sc66 2.105 . S
O76 C70 1.268 . S
O77 Sc67 2.105 . S
O77 C71 1.268 . S
O78 Sc68 2.105 . S
O78 C72 1.268 . S
O79 Sc66 2.105 . S
O79 C73 1.268 . S
O80 Sc68 2.105 . S
O80 C74 1.268 . S
O81 Sc67 2.105 . S
O81 C75 1.268 . S
O82 Sc66 2.105 . S
O82 C74 1.268 . S
O83 Sc67 2.105 . S
O83 C73 1.268 . S
O84 Sc68 2.105 . S
O84 C75 1.268 . S
O85 Sc66 2.105 . S
O85 C71 1.268 . S
O86 Sc68 2.105 . S
O86 C70 1.268 . S
O87 Sc67 2.105 . S
O87 C72 1.268 . S
Sc88 O91 2.025 . S
Sc88 O98 2.105 . S
Sc88 O101 2.105 . S
Sc88 O104 2.105 . S
Sc88 O107 2.105 . S
Sc89 O91 2.025 . S
Sc89 O99 2.105 . S
Sc89 O103 2.105 . S
Sc89 O105 2.105 . S
Sc89 O109 2.105 . S
Sc90 O91 2.025 . S
Sc90 O100 2.105 . S
Sc90 O102 2.105 . S
Sc90 O106 2.105 . S
Sc90 O108 2.105 . S
O91 Sc88 2.025 . S
O91 Sc89 2.025 . S
O91 Sc90 2.025 . S
C92 O98 1.268 . S
C92 O108 1.268 . S
C93 O99 1.268 . S
C93 O107 1.268 . S
C94 O100 1.268 . S
C94 O109 1.268 . S
C95 O101 1.268 . S
C95 O105 1.268 . S
C96 O102 1.268 . S
C96 O104 1.268 . S
C97 O103 1.268 . S
C97 O106 1.268 . S
O98 Sc88 2.105 . S
O98 C92 1.268 . S
O99 Sc89 2.105 . S
O99 C93 1.268 . S
O100 Sc90 2.105 . S
O100 C94 1.268 . S
O101 Sc88 2.105 . S
O101 C95 1.268 . S
O102 Sc90 2.105 . S
O102 C96 1.268 . S
O103 Sc89 2.105 . S
O103 C97 1.268 . S
O104 Sc88 2.105 . S
O104 C96 1.268 . S
O105 Sc89 2.105 . S
O105 C95 1.268 . S
O106 Sc90 2.105 . S
O106 C97 1.268 . S
O107 Sc88 2.105 . S
O107 C93 1.268 . S
O108 Sc90 2.105 . S
O108 C92 1.268 . S
O109 Sc89 2.105 . S
O109 C94 1.268 . S
Sc110 O113 2.025 . S
Sc110 O120 2.105 . S
Sc110 O123 2.105 . S
Sc110 O126 2.105 . S
Sc110 O129 2.105 . S
Sc111 O113 2.025 . S
Sc111 O121 2.105 . S
Sc111 O125 2.105 . S
Sc111 O127 2.105 . S
Sc111 O131 2.105 . S
Sc112 O113 2.025 . S
Sc112 O122 2.105 . S
Sc112 O124 2.105 . S
Sc112 O128 2.105 . S
Sc112 O130 2.105 . S
O113 Sc110 2.025 . S
O113 Sc111 2.025 . S
O113 Sc112 2.025 . S
C114 O120 1.268 . S
C114 O130 1.268 . S
C115 O121 1.268 . S
C115 O129 1.268 . S
C116 O122 1.268 . S
C116 O131 1.268 . S
C117 O123 1.268 . S
C117 O127 1.268 . S
C118 O124 1.268 . S
C118 O126 1.268 . S
C119 O125 1.268 . S
C119 O128 1.268 . S
O120 Sc110 2.105 . S
O120 C114 1.268 . S
O121 Sc111 2.105 . S
O121 C115 1.268 . S
O122 Sc112 2.105 . S
O122 C116 1.268 . S
O123 Sc110 2.105 . S
O123 C117 1.268 . S
O124 Sc112 2.105 . S
O124 C118 1.268 . S
O125 Sc111 2.105 . S
O125 C119 1.268 . S
O126 Sc110 2.105 . S
O126 C118 1.268 . S
O127 Sc111 2.105 . S
O127 C117 1.268 . S
O128 Sc112 2.105 . S
O128 C119 1.268 . S
O129 Sc110 2.105 . S
O129 C115 1.268 . S
O130 Sc112 2.105 . S
O130 C114 1.268 . S
O131 Sc111 2.105 . S
O131 C116 1.268 . S
Sc132 O135 2.025 . S
Sc132 O142 2.105 . S
Sc132 O145 2.105 . S
Sc132 O148 2.105 . S
Sc132 O151 2.105 . S
Sc133 O135 2.025 . S
Sc133 O143 2.105 . S
Sc133 O147 2.105 . S
Sc133 O149 2.105 . S
Sc133 O153 2.105 . S
Sc134 O135 2.025 . S
Sc134 O144 2.105 . S
Sc134 O146 2.105 . S
Sc134 O150 2.105 . S
Sc134 O152 2.105 . S
O135 Sc132 2.025 . S
O135 Sc133 2.025 . S
O135 Sc134 2.025 . S
C136 O142 1.268 . S
C136 O152 1.268 . S
C137 O143 1.268 . S
C137 O151 1.268 . S
C138 O144 1.268 . S
C138 O153 1.268 . S
C139 O145 1.268 . S
C139 O149 1.268 . S
C140 O146 1.268 . S
C140 O148 1.268 . S
C141 O147 1.268 . S
C141 O150 1.268 . S
O142 Sc132 2.105 . S
O142 C136 1.268 . S
O143 Sc133 2.105 . S
O143 C137 1.268 . S
O144 Sc134 2.105 . S
O144 C138 1.268 . S
O145 Sc132 2.105 . S
O145 C139 1.268 . S
O146 Sc134 2.105 . S
O146 C140 1.268 . S
O147 Sc133 2.105 . S
O147 C141 1.268 . S
O148 Sc132 2.105 . S
O148 C140 1.268 . S
O149 Sc133 2.105 . S
O149 C139 1.268 . S
O150 Sc134 2.105 . S
O150 C141 1.268 . S
O151 Sc132 2.105 . S
O151 C137 1.268 . S
O152 Sc134 2.105 . S
O152 C136 1.268 . S
O153 Sc133 2.105 . S
O153 C138 1.268 . S
Sc154 O157 2.025 . S
Sc154 O164 2.105 . S
Sc154 O167 2.105 . S
Sc154 O170 2.105 . S
Sc154 O173 2.105 . S
Sc155 O157 2.025 . S
Sc155 O165 2.105 . S
Sc155 O169 2.105 . S
Sc155 O171 2.105 . S
Sc155 O175 2.105 . S
Sc156 O157 2.025 . S
Sc156 O166 2.105 . S
Sc156 O168 2.105 . S
Sc156 O172 2.105 . S
Sc156 O174 2.105 . S
O157 Sc154 2.025 . S
O157 Sc155 2.025 . S
O157 Sc156 2.025 . S
C158 O164 1.268 . S
C158 O174 1.268 . S
C159 O165 1.268 . S
C159 O173 1.268 . S
C160 O166 1.268 . S
C160 O175 1.268 . S
C161 O167 1.268 . S
C161 O171 1.268 . S
C162 O168 1.268 . S
C162 O170 1.268 . S
C163 O169 1.268 . S
C163 O172 1.268 . S
O164 Sc154 2.105 . S
O164 C158 1.268 . S
O165 Sc155 2.105 . S
O165 C159 1.268 . S
O166 Sc156 2.105 . S
O166 C160 1.268 . S
O167 Sc154 2.105 . S
O167 C161 1.268 . S
O168 Sc156 2.105 . S
O168 C162 1.268 . S
O169 Sc155 2.105 . S
O169 C163 1.268 . S
O170 Sc154 2.105 . S
O170 C162 1.268 . S
O171 Sc155 2.105 . S
O171 C161 1.268 . S
O172 Sc156 2.105 . S
O172 C163 1.268 . S
O173 Sc154 2.105 . S
O173 C159 1.268 . S
O174 Sc156 2.105 . S
O174 C158 1.268 . S
O175 Sc155 2.105 . S
O175 C160 1.268 . S
Sc176 O179 2.025 . S
Sc176 O186 2.105 . S
Sc176 O189 2.105 . S
Sc176 O192 2.105 . S
Sc176 O195 2.105 . S
Sc177 O179 2.025 . S
Sc177 O187 2.105 . S
Sc177 O191 2.105 . S
Sc177 O193 2.105 . S
Sc177 O197 2.105 . S
Sc178 O179 2.025 . S
Sc178 O188 2.105 . S
Sc178 O190 2.105 . S
Sc178 O194 2.105 . S
Sc178 O196 2.105 . S
O179 Sc176 2.025 . S
O179 Sc177 2.025 . S
O179 Sc178 2.025 . S
C180 O186 1.268 . S
C180 O196 1.268 . S
C181 O187 1.268 . S
C181 O195 1.268 . S
C182 O188 1.268 . S
C182 O197 1.268 . S
C183 O189 1.268 . S
C183 O193 1.268 . S
C184 O190 1.268 . S
C184 O192 1.268 . S
C185 O191 1.268 . S
C185 O194 1.268 . S
O186 Sc176 2.105 . S
O186 C180 1.268 . S
O187 Sc177 2.105 . S
O187 C181 1.268 . S
O188 Sc178 2.105 . S
O188 C182 1.268 . S
O189 Sc176 2.105 . S
O189 C183 1.268 . S
O190 Sc178 2.105 . S
O190 C184 1.268 . S
O191 Sc177 2.105 . S
O191 C185 1.268 . S
O192 Sc176 2.105 . S
O192 C184 1.268 . S
O193 Sc177 2.105 . S
O193 C183 1.268 . S
O194 Sc178 2.105 . S
O194 C185 1.268 . S
O195 Sc176 2.105 . S
O195 C181 1.268 . S
O196 Sc178 2.105 . S
O196 C180 1.268 . S
O197 Sc177 2.105 . S
O197 C182 1.268 . S
Sc198 O201 2.025 . S
Sc198 O208 2.105 . S
Sc198 O211 2.105 . S
Sc198 O214 2.105 . S
Sc198 O217 2.105 . S
Sc199 O201 2.025 . S
Sc199 O209 2.105 . S
Sc199 O213 2.105 . S
Sc199 O215 2.105 . S
Sc199 O219 2.105 . S
Sc200 O201 2.025 . S
Sc200 O210 2.105 . S
Sc200 O212 2.105 . S
Sc200 O216 2.105 . S
Sc200 O218 2.105 . S
O201 Sc198 2.025 . S
O201 Sc199 2.025 . S
O201 Sc200 2.025 . S
C202 O208 1.268 . S
C202 O218 1.268 . S
C203 O209 1.268 . S
C203 O217 1.268 . S
C204 O210 1.268 . S
C204 O219 1.268 . S
C205 O211 1.268 . S
C205 O215 1.268 . S
C206 O212 1.268 . S
C206 O214 1.268 . S
C207 O213 1.268 . S
C207 O216 1.268 . S
O208 Sc198 2.105 . S
O208 C202 1.268 . S
O209 Sc199 2.105 . S
O209 C203 1.268 . S
O210 Sc200 2.105 . S
O210 C204 1.268 . S
O211 Sc198 2.105 . S
O211 C205 1.268 . S
O212 Sc200 2.105 . S
O212 C206 1.268 . S
O213 Sc199 2.105 . S
O213 C207 1.268 . S
O214 Sc198 2.105 . S
O214 C206 1.268 . S
O215 Sc199 2.105 . S
O215 C205 1.268 . S
O216 Sc200 2.105 . S
O216 C207 1.268 . S
O217 Sc198 2.105 . S
O217 C203 1.268 . S
O218 Sc200 2.105 . S
O218 C202 1.268 . S
O219 Sc199 2.105 . S
O219 C204 1.268 . S
Sc220 O223 2.025 . S
Sc220 O230 2.105 . S
Sc220 O233 2.105 . S
Sc220 O236 2.105 . S
Sc220 O239 2.105 . S
Sc221 O223 2.025 . S
Sc221 O231 2.105 . S
Sc221 O235 2.105 . S
Sc221 O237 2.105 . S
Sc221 O241 2.105 . S
Sc222 O223 2.025 . S
Sc222 O232 2.105 . S
Sc222 O234 2.105 . S
Sc222 O238 2.105 . S
Sc222 O240 2.105 . S
O223 Sc220 2.025 . S
O223 Sc221 2.025 . S
O223 Sc222 2.025 . S
C224 O230 1.268 . S
C224 O240 1.268 . S
C225 O231 1.268 . S
C225 O239 1.268 . S
C226 O232 1.268 . S
C226 O241 1.268 . S
C227 O233 1.268 . S
C227 O237 1.268 . S
C228 O234 1.268 . S
C228 O236 1.268 . S
C229 O235 1.268 . S
C229 O238 1.268 . S
O230 Sc220 2.105 . S
O230 C224 1.268 . S
O231 Sc221 2.105 . S
O231 C225 1.268 . S
O232 Sc222 2.105 . S
O232 C226 1.268 . S
O233 Sc220 2.105 . S
O233 C227 1.268 . S
O234 Sc222 2.105 . S
O234 C228 1.268 . S
O235 Sc221 2.105 . S
O235 C229 1.268 . S
O236 Sc220 2.105 . S
O236 C228 1.268 . S
O237 Sc221 2.105 . S
O237 C227 1.268 . S
O238 Sc222 2.105 . S
O238 C229 1.268 . S
O239 Sc220 2.105 . S
O239 C225 1.268 . S
O240 Sc222 2.105 . S
O240 C224 1.268 . S
O241 Sc221 2.105 . S
O241 C226 1.268 . S
Sc242 O245 2.025 . S
Sc242 O252 2.105 . S
Sc242 O255 2.105 . S
Sc242 O258 2.105 . S
Sc242 O261 2.105 . S
Sc243 O245 2.025 . S
Sc243 O253 2.105 . S
Sc243 O257 2.105 . S
Sc243 O259 2.105 . S
Sc243 O263 2.105 . S
Sc244 O245 2.025 . S
Sc244 O254 2.105 . S
Sc244 O256 2.105 . S
Sc244 O260 2.105 . S
Sc244 O262 2.105 . S
O245 Sc242 2.025 . S
O245 Sc243 2.025 . S
O245 Sc244 2.025 . S
C246 O252 1.268 . S
C246 O262 1.268 . S
C247 O253 1.268 . S
C247 O261 1.268 . S
C248 O254 1.268 . S
C248 O263 1.268 . S
C249 O255 1.268 . S
C249 O259 1.268 . S
C250 O256 1.268 . S
C250 O258 1.268 . S
C251 O257 1.268 . S
C251 O260 1.268 . S
O252 Sc242 2.105 . S
O252 C246 1.268 . S
O253 Sc243 2.105 . S
O253 C247 1.268 . S
O254 Sc244 2.105 . S
O254 C248 1.268 . S
O255 Sc242 2.105 . S
O255 C249 1.268 . S
O256 Sc244 2.105 . S
O256 C250 1.268 . S
O257 Sc243 2.105 . S
O257 C251 1.268 . S
O258 Sc242 2.105 . S
O258 C250 1.268 . S
O259 Sc243 2.105 . S
O259 C249 1.268 . S
O260 Sc244 2.105 . S
O260 C251 1.268 . S
O261 Sc242 2.105 . S
O261 C247 1.268 . S
O262 Sc244 2.105 . S
O262 C246 1.268 . S
O263 Sc243 2.105 . S
O263 C248 1.268 . S
Sc264 O267 2.025 . S
Sc264 O274 2.105 . S
Sc264 O277 2.105 . S
Sc264 O280 2.105 . S
Sc264 O283 2.105 . S
Sc265 O267 2.025 . S
Sc265 O275 2.105 . S
Sc265 O279 2.105 . S
Sc265 O281 2.105 . S
Sc265 O285 2.105 . S
Sc266 O267 2.025 . S
Sc266 O276 2.105 . S
Sc266 O278 2.105 . S
Sc266 O282 2.105 . S
Sc266 O284 2.105 . S
O267 Sc264 2.025 . S
O267 Sc265 2.025 . S
O267 Sc266 2.025 . S
C268 O274 1.268 . S
C268 O284 1.268 . S
C269 O275 1.268 . S
C269 O283 1.268 . S
C270 O276 1.268 . S
C270 O285 1.268 . S
C271 O277 1.268 . S
C271 O281 1.268 . S
C272 O278 1.268 . S
C272 O280 1.268 . S
C273 O279 1.268 . S
C273 O282 1.268 . S
O274 Sc264 2.105 . S
O274 C268 1.268 . S
O275 Sc265 2.105 . S
O275 C269 1.268 . S
O276 Sc266 2.105 . S
O276 C270 1.268 . S
O277 Sc264 2.105 . S
O277 C271 1.268 . S
O278 Sc266 2.105 . S
O278 C272 1.268 . S
O279 Sc265 2.105 . S
O279 C273 1.268 . S
O280 Sc264 2.105 . S
O280 C272 1.268 . S
O281 Sc265 2.105 . S
O281 C271 1.268 . S
O282 Sc266 2.105 . S
O282 C273 1.268 . S
O283 Sc264 2.105 . S
O283 C269 1.268 . S
O284 Sc266 2.105 . S
O284 C268 1.268 . S
O285 Sc265 2.105 . S
O285 C270 1.268 . S
Sc286 O289 2.025 . S
Sc286 O296 2.105 . S
Sc286 O299 2.105 . S
Sc286 O302 2.105 . S
Sc286 O305 2.105 . S
Sc287 O289 2.025 . S
Sc287 O297 2.105 . S
Sc287 O301 2.105 . S
Sc287 O303 2.105 . S
Sc287 O307 2.105 . S
Sc288 O289 2.025 . S
Sc288 O298 2.105 . S
Sc288 O300 2.105 . S
Sc288 O304 2.105 . S
Sc288 O306 2.105 . S
O289 Sc286 2.025 . S
O289 Sc287 2.025 . S
O289 Sc288 2.025 . S
C290 O296 1.268 . S
C290 O306 1.268 . S
C291 O297 1.268 . S
C291 O305 1.268 . S
C292 O298 1.268 . S
C292 O307 1.268 . S
C293 O299 1.268 . S
C293 O303 1.268 . S
C294 O300 1.268 . S
C294 O302 1.268 . S
C295 O301 1.268 . S
C295 O304 1.268 . S
O296 Sc286 2.105 . S
O296 C290 1.268 . S
O297 Sc287 2.105 . S
O297 C291 1.268 . S
O298 Sc288 2.105 . S
O298 C292 1.268 . S
O299 Sc286 2.105 . S
O299 C293 1.268 . S
O300 Sc288 2.105 . S
O300 C294 1.268 . S
O301 Sc287 2.105 . S
O301 C295 1.268 . S
O302 Sc286 2.105 . S
O302 C294 1.268 . S
O303 Sc287 2.105 . S
O303 C293 1.268 . S
O304 Sc288 2.105 . S
O304 C295 1.268 . S
O305 Sc286 2.105 . S
O305 C291 1.268 . S
O306 Sc288 2.105 . S
O306 C290 1.268 . S
O307 Sc287 2.105 . S
O307 C292 1.268 . S
Sc308 O311 2.025 . S
Sc308 O318 2.105 . S
Sc308 O321 2.105 . S
Sc308 O324 2.105 . S
Sc308 O327 2.105 . S
Sc309 O311 2.025 . S
Sc309 O319 2.105 . S
Sc309 O323 2.105 . S
Sc309 O325 2.105 . S
Sc309 O329 2.105 . S
Sc310 O311 2.025 . S
Sc310 O320 2.105 . S
Sc310 O322 2.105 . S
Sc310 O326 2.105 . S
Sc310 O328 2.105 . S
O311 Sc308 2.025 . S
O311 Sc309 2.025 . S
O311 Sc310 2.025 . S
C312 O318 1.268 . S
C312 O328 1.268 . S
C313 O319 1.268 . S
C313 O327 1.268 . S
C314 O320 1.268 . S
C314 O329 1.268 . S
C315 O321 1.268 . S
C315 O325 1.268 . S
C316 O322 1.268 . S
C316 O324 1.268 . S
C317 O323 1.268 . S
C317 O326 1.268 . S
O318 Sc308 2.105 . S
O318 C312 1.268 . S
O319 Sc309 2.105 . S
O319 C313 1.268 . S
O320 Sc310 2.105 . S
O320 C314 1.268 . S
O321 Sc308 2.105 . S
O321 C315 1.268 . S
O322 Sc310 2.105 . S
O322 C316 1.268 . S
O323 Sc309 2.105 . S
O323 C317 1.268 . S
O324 Sc308 2.105 . S
O324 C316 1.268 . S
O325 Sc309 2.105 . S
O325 C315 1.268 . S
O326 Sc310 2.105 . S
O326 C317 1.268 . S
O327 Sc308 2.105 . S
O327 C313 1.268 . S
O328 Sc310 2.105 . S
O328 C312 1.268 . S
O329 Sc309 2.105 . S
O329 C314 1.268 . S
Sc330 O333 2.025 . S
Sc330 O340 2.105 . S
Sc330 O343 2.105 . S
Sc330 O346 2.105 . S
Sc330 O349 2.105 . S
Sc331 O333 2.025 . S
Sc331 O341 2.105 . S
Sc331 O345 2.105 . S
Sc331 O347 2.105 . S
Sc331 O351 2.105 . S
Sc332 O333 2.025 . S
Sc332 O342 2.105 . S
Sc332 O344 2.105 . S
Sc332 O348 2.105 . S
Sc332 O350 2.105 . S
O333 Sc330 2.025 . S
O333 Sc331 2.025 . S
O333 Sc332 2.025 . S
C334 O340 1.268 . S
C334 O350 1.268 . S
C335 O341 1.268 . S
C335 O349 1.268 . S
C336 O342 1.268 . S
C336 O351 1.268 . S
C337 O343 1.268 . S
C337 O347 1.268 . S
C338 O344 1.268 . S
C338 O346 1.268 . S
C339 O345 1.268 . S
C339 O348 1.268 . S
O340 Sc330 2.105 . S
O340 C334 1.268 . S
O341 Sc331 2.105 . S
O341 C335 1.268 . S
O342 Sc332 2.105 . S
O342 C336 1.268 . S
O343 Sc330 2.105 . S
O343 C337 1.268 . S
O344 Sc332 2.105 . S
O344 C338 1.268 . S
O345 Sc331 2.105 . S
O345 C339 1.268 . S
O346 Sc330 2.105 . S
O346 C338 1.268 . S
O347 Sc331 2.105 . S
O347 C337 1.268 . S
O348 Sc332 2.105 . S
O348 C339 1.268 . S
O349 Sc330 2.105 . S
O349 C335 1.268 . S
O350 Sc332 2.105 . S
O350 C334 1.268 . S
O351 Sc331 2.105 . S
O351 C336 1.268 . S
H352 C364 0.930 . S
H353 C366 0.930 . S
H354 C367 0.930 . S
H355 C371 0.959 . S
H356 C371 0.959 . S
H357 C371 0.961 1_565 S
H358 C372 0.960 . S
H359 C372 0.961 1_545 S
H360 C372 0.959 . S
H361 C375 0.929 . S
H362 C376 0.931 . S
H363 C378 0.930 . S
C364 H352 0.930 . S
C364 C365 1.399 . S
C364 C369 1.399 . S
C365 C364 1.399 . S
C365 C366 1.376 . S
C366 H353 0.930 . S
C366 C365 1.376 . S
C366 C367 1.388 . S
C367 H354 0.930 . S
C367 C366 1.388 . S
C367 C368 1.390 . S
C368 C367 1.390 . S
C368 C369 1.394 . S
C368 C374 1.465 . S
C369 C364 1.399 . S
C369 C368 1.394 . S
C369 C370 1.516 . S
C370 C369 1.516 . S
C370 C371 1.502 1_565 S
C370 C372 1.561 . S
C370 C373 1.526 1_565 S
C371 H355 0.959 . S
C371 H356 0.959 . S
C371 H357 0.961 1_545 S
C371 C370 1.502 1_545 S
C372 H358 0.960 . S
C372 H359 0.961 1_565 S
C372 H360 0.959 . S
C372 C370 1.561 . S
C373 C370 1.526 1_545 S
C373 C374 1.396 1_545 S
C373 C378 1.390 . S
C374 C368 1.465 . S
C374 C373 1.396 1_565 S
C374 C375 1.399 . S
C375 H361 0.929 . S
C375 C374 1.399 . S
C375 C376 1.385 1_565 S
C376 H362 0.931 . S
C376 C375 1.385 1_545 S
C376 C377 1.389 . S
C377 C376 1.389 . S
C377 C378 1.387 . S
C378 H363 0.930 . S
C378 C373 1.390 . S
C378 C377 1.387 . S
H379 C391 0.930 . S
H380 C393 0.930 . S
H381 C394 0.930 . S
H382 C398 0.959 . S
H383 C398 0.959 . S
H384 C398 0.961 . S
H385 C399 0.960 . S
H386 C399 0.961 . S
H387 C399 0.959 . S
H388 C402 0.929 . S
H389 C403 0.931 . S
H390 C405 0.930 . S
C391 H379 0.930 . S
C391 C392 1.399 . S
C391 C396 1.399 1_455 S
C392 C391 1.399 . S
C392 C393 1.376 . S
C393 H380 0.930 . S
C393 C392 1.376 . S
C393 C394 1.388 . S
C394 H381 0.930 . S
C394 C393 1.388 . S
C394 C395 1.390 1_455 S
C395 C394 1.390 1_655 S
C395 C396 1.394 . S
C395 C401 1.465 . S
C396 C391 1.399 1_655 S
C396 C395 1.394 . S
C396 C397 1.516 . S
C397 C396 1.516 . S
C397 C398 1.502 . S
C397 C399 1.561 . S
C397 C400 1.526 . S
C398 H382 0.959 . S
C398 H383 0.959 . S
C398 H384 0.961 . S
C398 C397 1.502 . S
C399 H385 0.960 . S
C399 H386 0.961 . S
C399 H387 0.959 . S
C399 C397 1.561 . S
C400 C397 1.526 . S
C400 C401 1.396 . S
C400 C405 1.390 . S
C401 C395 1.465 . S
C401 C400 1.396 . S
C401 C402 1.399 . S
C402 H388 0.929 . S
C402 C401 1.399 . S
C402 C403 1.385 . S
C403 H389 0.931 . S
C403 C402 1.385 . S
C403 C404 1.389 . S
C404 C403 1.389 . S
C404 C405 1.387 . S
C405 H390 0.930 . S
C405 C400 1.390 . S
C405 C404 1.387 . S
H406 C418 0.930 . S
H407 C420 0.930 . S
H408 C421 0.930 . S
H409 C425 0.959 . S
H410 C425 0.959 . S
H411 C425 0.961 1_565 S
H412 C426 0.960 . S
H413 C426 0.961 1_545 S
H414 C426 0.959 1_545 S
H415 C429 0.929 . S
H416 C430 0.931 . S
H417 C432 0.930 . S
C418 H406 0.930 . S
C418 C419 1.399 . S
C418 C423 1.399 . S
C419 C418 1.399 . S
C419 C420 1.376 . S
C420 H407 0.930 . S
C420 C419 1.376 . S
C420 C421 1.388 1_565 S
C421 H408 0.930 . S
C421 C420 1.388 1_545 S
C421 C422 1.390 . S
C422 C421 1.390 . S
C422 C423 1.394 1_545 S
C422 C428 1.465 . S
C423 C418 1.399 . S
C423 C422 1.394 1_565 S
C423 C424 1.516 1_565 S
C424 C423 1.516 1_545 S
C424 C425 1.502 . S
C424 C426 1.561 1_545 S
C424 C427 1.526 . S
C425 H409 0.959 . S
C425 H410 0.959 . S
C425 H411 0.961 1_545 S
C425 C424 1.502 . S
C426 H412 0.960 . S
C426 H413 0.961 1_565 S
C426 H414 0.959 1_565 S
C426 C424 1.561 1_565 S
C427 C424 1.526 . S
C427 C428 1.396 . S
C427 C432 1.390 . S
C428 C422 1.465 . S
C428 C427 1.396 . S
C428 C429 1.399 . S
C429 H415 0.929 . S
C429 C428 1.399 . S
C429 C430 1.385 . S
C430 H416 0.931 . S
C430 C429 1.385 . S
C430 C431 1.389 . S
C431 C430 1.389 . S
C431 C432 1.387 . S
C432 H417 0.930 . S
C432 C427 1.390 . S
C432 C431 1.387 . S
H433 C445 0.930 . S
H434 C447 0.930 . S
H435 C448 0.930 . S
H436 C452 0.959 . S
H437 C452 0.964 . S
H438 C452 0.961 . S
H439 C453 0.960 . S
H440 C453 0.961 . S
H441 C453 0.959 . S
H442 C456 0.931 . S
H443 C457 0.931 . S
H444 C459 0.930 . S
C445 H433 0.930 . S
C445 C446 1.399 . S
C445 C450 1.399 . S
C446 C445 1.399 . S
C446 C447 1.376 . S
C447 H434 0.930 . S
C447 C446 1.376 . S
C447 C448 1.388 . S
C448 H435 0.930 . S
C448 C447 1.388 . S
C448 C449 1.390 . S
C449 C448 1.390 . S
C449 C450 1.394 . S
C449 C455 1.465 . S
C450 C445 1.399 . S
C450 C449 1.394 . S
C450 C451 1.516 . S
C451 C450 1.516 . S
C451 C452 1.502 . S
C451 C453 1.561 . S
C451 C454 1.526 . S
C452 H436 0.959 . S
C452 H437 0.964 . S
C452 H438 0.961 . S
C452 C451 1.502 . S
C453 H439 0.960 . S
C453 H440 0.961 . S
C453 H441 0.959 . S
C453 C451 1.561 . S
C454 C451 1.526 . S
C454 C455 1.396 . S
C454 C459 1.390 1_455 S
C455 C449 1.465 . S
C455 C454 1.396 . S
C455 C456 1.399 1_455 S
C456 H442 0.931 . S
C456 C455 1.399 1_655 S
C456 C457 1.385 . S
C457 H443 0.931 . S
C457 C456 1.385 . S
C457 C458 1.389 . S
C458 C457 1.389 . S
C458 C459 1.387 . S
C459 H444 0.930 . S
C459 C454 1.390 1_655 S
C459 C458 1.387 . S
H460 C472 0.930 . S
H461 C474 0.930 . S
H462 C475 0.930 . S
H463 C479 0.959 . S
H464 C479 0.959 . S
H465 C479 0.961 . S
H466 C480 0.960 . S
H467 C480 0.961 . S
H468 C480 0.959 . S
H469 C483 0.929 . S
H470 C484 0.931 . S
H471 C486 0.930 . S
C472 H460 0.930 . S
C472 C473 1.410 . S
C472 C477 1.402 1_556 S
C473 C472 1.410 . S
C473 C474 1.354 1_556 S
C474 H461 0.930 . S
C474 C473 1.354 1_554 S
C474 C475 1.388 . S
C475 H462 0.930 . S
C475 C474 1.388 . S
C475 C476 1.390 . S
C476 C475 1.390 . S
C476 C477 1.389 . S
C476 C482 1.465 . S
C477 C472 1.402 1_554 S
C477 C476 1.389 . S
C477 C478 1.518 1_554 S
C478 C477 1.518 1_556 S
C478 C479 1.502 . S
C478 C480 1.561 . S
C478 C481 1.526 1_556 S
C479 H463 0.959 . S
C479 H464 0.959 . S
C479 H465 0.961 . S
C479 C478 1.502 . S
C480 H466 0.960 . S
C480 H467 0.961 . S
C480 H468 0.959 . S
C480 C478 1.561 . S
C481 C478 1.526 1_554 S
C481 C482 1.396 . S
C481 C486 1.390 . S
C482 C476 1.465 . S
C482 C481 1.396 . S
C482 C483 1.399 . S
C483 H469 0.929 . S
C483 C482 1.399 . S
C483 C484 1.385 . S
C484 H470 0.931 . S
C484 C483 1.385 . S
C484 C485 1.389 . S
C485 C484 1.389 . S
C485 C486 1.387 . S
C486 H471 0.930 . S
C486 C481 1.390 . S
C486 C485 1.387 . S
H487 C499 0.930 . S
H488 C501 0.930 . S
H489 C502 0.930 . S
H490 C506 0.959 . S
H491 C506 0.959 . S
H492 C506 0.961 . S
H493 C507 0.960 . S
H494 C507 0.961 . S
H495 C507 0.926 1_556 S
H496 C510 0.929 . S
H497 C511 0.931 . S
H498 C513 0.930 . S
C499 H487 0.930 . S
C499 C500 1.399 1_554 S
C499 C504 1.378 1_554 S
C500 C499 1.399 1_556 S
C500 C501 1.377 . S
C501 H488 0.930 . S
C501 C500 1.377 . S
C501 C502 1.388 . S
C502 H489 0.930 . S
C502 C501 1.388 . S
C502 C503 1.390 . S
C503 C502 1.390 . S
C503 C504 1.434 . S
C503 C509 1.465 . S
C504 C499 1.378 1_556 S
C504 C503 1.434 . S
C504 C505 1.504 1_556 S
C505 C504 1.504 1_554 S
C505 C506 1.502 . S
C505 C507 1.561 . S
C505 C508 1.526 1_554 S
C506 H490 0.959 . S
C506 H491 0.959 . S
C506 H492 0.961 . S
C506 C505 1.502 . S
C507 H493 0.960 . S
C507 H494 0.961 . S
C507 H495 0.926 1_554 S
C507 C505 1.561 . S
C508 C505 1.526 1_556 S
C508 C509 1.396 . S
C508 C513 1.390 . S
C509 C503 1.465 . S
C509 C508 1.396 . S
C509 C510 1.399 . S
C510 H496 0.929 . S
C510 C509 1.399 . S
C510 C511 1.385 . S
C511 H497 0.931 . S
C511 C510 1.385 . S
C511 C512 1.389 . S
C512 C511 1.389 . S
C512 C513 1.387 . S
C513 H498 0.930 . S
C513 C508 1.390 . S
C513 C512 1.387 . S
H514 C526 0.930 . S
H515 C528 0.930 . S
H516 C529 0.930 . S
H517 C533 0.959 . S
H518 C533 0.959 . S
H519 C533 0.961 . S
H520 C534 0.960 . S
H521 C534 0.961 . S
H522 C534 0.959 . S
H523 C537 0.929 . S
H524 C538 0.931 . S
H525 C540 0.930 . S
C526 H514 0.930 . S
C526 C527 1.399 . S
C526 C531 1.399 . S
C527 C526 1.399 . S
C527 C528 1.376 . S
C528 H515 0.930 . S
C528 C527 1.376 . S
C528 C529 1.388 1_554 S
C529 H516 0.930 . S
C529 C528 1.388 1_556 S
C529 C530 1.390 1_556 S
C530 C529 1.390 1_554 S
C530 C531 1.394 . S
C530 C536 1.465 . S
C531 C526 1.399 . S
C531 C530 1.394 . S
C531 C532 1.516 . S
C532 C531 1.516 . S
C532 C533 1.502 . S
C532 C534 1.561 . S
C532 C535 1.526 . S
C533 H517 0.959 . S
C533 H518 0.959 . S
C533 H519 0.961 . S
C533 C532 1.502 . S
C534 H520 0.960 . S
C534 H521 0.961 . S
C534 H522 0.959 . S
C534 C532 1.561 . S
C535 C532 1.526 . S
C535 C536 1.396 . S
C535 C540 1.390 . S
C536 C530 1.465 . S
C536 C535 1.396 . S
C536 C537 1.399 1_554 S
C537 H523 0.929 . S
C537 C536 1.399 1_556 S
C537 C538 1.385 . S
C538 H524 0.931 . S
C538 C537 1.385 . S
C538 C539 1.389 . S
C539 C538 1.389 . S
C539 C540 1.387 1_556 S
C540 H525 0.930 . S
C540 C535 1.390 . S
C540 C539 1.387 1_554 S
H541 C553 0.930 . S
H542 C555 0.930 . S
H543 C556 0.930 . S
H544 C560 0.959 1_554 S
H545 C560 0.959 . S
H546 C560 0.961 . S
H547 C561 0.960 . S
H548 C561 0.961 . S
H549 C561 0.959 . S
H550 C564 0.929 . S
H551 C565 0.954 . S
H552 C567 0.930 . S
C553 H541 0.930 . S
C553 C554 1.399 . S
C553 C558 1.399 . S
C554 C553 1.399 . S
C554 C555 1.376 . S
C555 H542 0.930 . S
C555 C554 1.376 . S
C555 C556 1.388 . S
C556 H543 0.930 . S
C556 C555 1.388 . S
C556 C557 1.390 . S
C557 C556 1.390 . S
C557 C558 1.394 . S
C557 C563 1.465 . S
C558 C553 1.399 . S
C558 C557 1.394 . S
C558 C559 1.516 . S
C559 C558 1.516 . S
C559 C560 1.502 . S
C559 C561 1.561 . S
C559 C562 1.526 . S
C560 H544 0.959 1_556 S
C560 H545 0.959 . S
C560 H546 0.961 . S
C560 C559 1.502 . S
C561 H547 0.960 . S
C561 H548 0.961 . S
C561 H549 0.959 . S
C561 C559 1.561 . S
C562 C559 1.526 . S
C562 C563 1.396 . S
C562 C567 1.390 . S
C563 C557 1.465 . S
C563 C562 1.396 . S
C563 C564 1.399 . S
C564 H550 0.929 . S
C564 C563 1.399 . S
C564 C565 1.364 1_556 S
C565 H551 0.954 . S
C565 C564 1.364 1_554 S
C565 C566 1.393 . S
C566 C565 1.393 . S
C566 C567 1.387 1_554 S
C567 H552 0.930 . S
C567 C562 1.390 . S
C567 C566 1.387 1_556 S
H568 C580 0.930 . S
H569 C582 0.930 . S
H570 C583 0.930 . S
H571 C587 0.959 . S
H572 C587 0.959 . S
H573 C587 0.961 . S
H574 C588 0.960 . S
H575 C588 0.961 . S
H576 C588 0.959 . S
H577 C591 0.929 . S
H578 C592 0.931 . S
H579 C594 0.930 . S
C580 H568 0.930 . S
C580 C581 1.399 . S
C580 C585 1.399 . S
C581 C580 1.399 . S
C581 C582 1.376 . S
C582 H569 0.930 . S
C582 C581 1.376 . S
C582 C583 1.388 . S
C583 H570 0.930 . S
C583 C582 1.388 . S
C583 C584 1.390 . S
C584 C583 1.390 . S
C584 C585 1.394 . S
C584 C590 1.465 . S
C585 C580 1.399 . S
C585 C584 1.394 . S
C585 C586 1.516 . S
C586 C585 1.516 . S
C586 C587 1.502 . S
C586 C588 1.561 . S
C586 C589 1.526 . S
C587 H571 0.959 . S
C587 H572 0.959 . S
C587 H573 0.961 . S
C587 C586 1.502 . S
C588 H574 0.960 . S
C588 H575 0.961 . S
C588 H576 0.959 . S
C588 C586 1.561 . S
C589 C586 1.526 . S
C589 C590 1.396 . S
C589 C594 1.390 . S
C590 C584 1.465 . S
C590 C589 1.396 . S
C590 C591 1.399 . S
C591 H577 0.929 . S
C591 C590 1.399 . S
C591 C592 1.385 . S
C592 H578 0.931 . S
C592 C591 1.385 . S
C592 C593 1.389 . S
C593 C592 1.389 . S
C593 C594 1.387 . S
C594 H579 0.930 . S
C594 C589 1.390 . S
C594 C593 1.387 . S
H595 C607 0.930 . S
H596 C609 0.930 . S
H597 C610 0.930 . S
H598 C614 0.959 . S
H599 C614 0.959 . S
H600 C614 0.961 . S
H601 C615 0.960 . S
H602 C615 0.961 . S
H603 C615 0.959 . S
H604 C618 0.929 . S
H605 C619 0.931 . S
H606 C621 0.930 . S
C607 H595 0.930 . S
C607 C608 1.399 . S
C607 C612 1.399 . S
C608 C607 1.399 . S
C608 C609 1.376 . S
C609 H596 0.930 . S
C609 C608 1.376 . S
C609 C610 1.388 . S
C610 H597 0.930 . S
C610 C609 1.388 . S
C610 C611 1.390 . S
C611 C610 1.390 . S
C611 C612 1.394 . S
C611 C617 1.465 . S
C612 C607 1.399 . S
C612 C611 1.394 . S
C612 C613 1.516 . S
C613 C612 1.516 . S
C613 C614 1.502 . S
C613 C615 1.561 . S
C613 C616 1.526 . S
C614 H598 0.959 . S
C614 H599 0.959 . S
C614 H600 0.961 . S
C614 C613 1.502 . S
C615 H601 0.960 . S
C615 H602 0.961 . S
C615 H603 0.959 . S
C615 C613 1.561 . S
C616 C613 1.526 . S
C616 C617 1.396 . S
C616 C621 1.390 . S
C617 C611 1.465 . S
C617 C616 1.396 . S
C617 C618 1.399 . S
C618 H604 0.929 . S
C618 C617 1.399 . S
C618 C619 1.385 . S
C619 H605 0.931 . S
C619 C618 1.385 . S
C619 C620 1.389 . S
C620 C619 1.389 . S
C620 C621 1.387 . S
C621 H606 0.930 . S
C621 C616 1.390 . S
C621 C620 1.387 . S
H622 C634 0.930 . S
H623 C636 0.930 . S
H624 C637 0.930 . S
H625 C641 0.959 . S
H626 C641 0.959 . S
H627 C641 0.961 . S
H628 C642 0.960 . S
H629 C642 0.961 . S
H630 C642 0.959 . S
H631 C645 0.929 . S
H632 C646 0.931 . S
H633 C648 0.930 . S
C634 H622 0.930 . S
C634 C635 1.399 . S
C634 C639 1.399 . S
C635 C634 1.399 . S
C635 C636 1.376 . S
C636 H623 0.930 . S
C636 C635 1.376 . S
C636 C637 1.388 . S
C637 H624 0.930 . S
C637 C636 1.388 . S
C637 C638 1.390 . S
C638 C637 1.390 . S
C638 C639 1.394 . S
C638 C644 1.465 . S
C639 C634 1.399 . S
C639 C638 1.394 . S
C639 C640 1.516 . S
C640 C639 1.516 . S
C640 C641 1.502 . S
C640 C642 1.561 . S
C640 C643 1.526 . S
C641 H625 0.959 . S
C641 H626 0.959 . S
C641 H627 0.961 . S
C641 C640 1.502 . S
C642 H628 0.960 . S
C642 H629 0.961 . S
C642 H630 0.959 . S
C642 C640 1.561 . S
C643 C640 1.526 . S
C643 C644 1.396 . S
C643 C648 1.390 . S
C644 C638 1.465 . S
C644 C643 1.396 . S
C644 C645 1.399 . S
C645 H631 0.929 . S
C645 C644 1.399 . S
C645 C646 1.385 . S
C646 H632 0.931 . S
C646 C645 1.385 . S
C646 C647 1.389 . S
C647 C646 1.389 . S
C647 C648 1.387 . S
C648 H633 0.930 . S
C648 C643 1.390 . S
C648 C647 1.387 . S
H649 C661 0.930 . S
H650 C663 0.930 . S
H651 C664 0.930 . S
H652 C668 0.959 . S
H653 C668 0.959 . S
H654 C668 0.961 . S
H655 C669 0.960 . S
H656 C669 0.961 . S
H657 C669 0.959 . S
H658 C672 0.929 . S
H659 C673 0.931 . S
H660 C675 0.930 . S
C661 H649 0.930 . S
C661 C662 1.399 . S
C661 C666 1.399 . S
C662 C661 1.399 . S
C662 C663 1.376 . S
C663 H650 0.930 . S
C663 C662 1.376 . S
C663 C664 1.388 . S
C664 H651 0.930 . S
C664 C663 1.388 . S
C664 C665 1.390 . S
C665 C664 1.390 . S
C665 C666 1.394 . S
C665 C671 1.465 . S
C666 C661 1.399 . S
C666 C665 1.394 . S
C666 C667 1.516 . S
C667 C666 1.516 . S
C667 C668 1.502 . S
C667 C669 1.561 . S
C667 C670 1.526 . S
C668 H652 0.959 . S
C668 H653 0.959 . S
C668 H654 0.961 . S
C668 C667 1.502 . S
C669 H655 0.960 . S
C669 H656 0.961 . S
C669 H657 0.959 . S
C669 C667 1.561 . S
C670 C667 1.526 . S
C670 C671 1.396 . S
C670 C675 1.390 . S
C671 C665 1.465 . S
C671 C670 1.396 . S
C671 C672 1.399 . S
C672 H658 0.929 . S
C672 C671 1.399 . S
C672 C673 1.385 . S
C673 H659 0.931 . S
C673 C672 1.385 . S
C673 C674 1.389 . S
C674 C673 1.389 . S
C674 C675 1.387 . S
C675 H660 0.930 . S
C675 C670 1.390 . S
C675 C674 1.387 . S
H676 C688 0.930 . S
H677 C690 0.930 . S
H678 C691 0.930 . S
H679 C695 0.959 . S
H680 C695 0.959 . S
H681 C695 0.961 . S
H682 C696 0.960 . S
H683 C696 0.961 . S
H684 C696 0.959 . S
H685 C699 0.929 . S
H686 C700 0.931 . S
H687 C702 0.930 . S
C688 H676 0.930 . S
C688 C689 1.399 . S
C688 C693 1.399 1_565 S
C689 C688 1.399 . S
C689 C690 1.376 . S
C690 H677 0.930 . S
C690 C689 1.376 . S
C690 C691 1.388 . S
C691 H678 0.930 . S
C691 C690 1.388 . S
C691 C692 1.390 1_565 S
C692 C691 1.390 1_545 S
C692 C693 1.394 . S
C692 C698 1.465 . S
C693 C688 1.399 1_545 S
C693 C692 1.394 . S
C693 C694 1.516 . S
C694 C693 1.516 . S
C694 C695 1.502 . S
C694 C696 1.561 . S
C694 C697 1.526 . S
C695 H679 0.959 . S
C695 H680 0.959 . S
C695 H681 0.961 . S
C695 C694 1.502 . S
C696 H682 0.960 . S
C696 H683 0.961 . S
C696 H684 0.959 . S
C696 C694 1.561 . S
C697 C694 1.526 . S
C697 C698 1.396 . S
C697 C702 1.390 . S
C698 C692 1.465 . S
C698 C697 1.396 . S
C698 C699 1.399 . S
C699 H685 0.929 . S
C699 C698 1.399 . S
C699 C700 1.385 . S
C700 H686 0.931 . S
C700 C699 1.385 . S
C700 C701 1.389 . S
C701 C700 1.389 . S
C701 C702 1.387 . S
C702 H687 0.930 . S
C702 C697 1.390 . S
C702 C701 1.387 . S
H703 C715 0.930 . S
H704 C717 0.930 . S
H705 C718 0.930 . S
H706 C722 0.959 . S
H707 C722 0.959 . S
H708 C722 0.961 1_455 S
H709 C723 0.960 . S
H710 C723 0.961 1_655 S
H711 C723 0.959 . S
H712 C726 0.929 . S
H713 C727 0.931 . S
H714 C729 0.930 . S
C715 H703 0.930 . S
C715 C716 1.399 . S
C715 C720 1.399 . S
C716 C715 1.399 . S
C716 C717 1.376 . S
C717 H704 0.930 . S
C717 C716 1.376 . S
C717 C718 1.388 . S
C718 H705 0.930 . S
C718 C717 1.388 . S
C718 C719 1.390 . S
C719 C718 1.390 . S
C719 C720 1.394 . S
C719 C725 1.465 . S
C720 C715 1.399 . S
C720 C719 1.394 . S
C720 C721 1.516 . S
C721 C720 1.516 . S
C721 C722 1.502 1_455 S
C721 C723 1.561 . S
C721 C724 1.526 1_455 S
C722 H706 0.959 . S
C722 H707 0.959 . S
C722 H708 0.961 1_655 S
C722 C721 1.502 1_655 S
C723 H709 0.960 . S
C723 H710 0.961 1_455 S
C723 H711 0.959 . S
C723 C721 1.561 . S
C724 C721 1.526 1_655 S
C724 C725 1.396 1_655 S
C724 C729 1.390 . S
C725 C719 1.465 . S
C725 C724 1.396 1_455 S
C725 C726 1.399 . S
C726 H712 0.929 . S
C726 C725 1.399 . S
C726 C727 1.385 1_455 S
C727 H713 0.931 . S
C727 C726 1.385 1_655 S
C727 C728 1.389 . S
C728 C727 1.389 . S
C728 C729 1.387 . S
C729 H714 0.930 . S
C729 C724 1.390 . S
C729 C728 1.387 . S
H730 C742 0.930 . S
H731 C744 0.930 . S
H732 C745 0.930 . S
H733 C749 0.959 . S
H734 C749 0.959 . S
H735 C749 0.961 . S
H736 C750 0.960 . S
H737 C750 0.961 . S
H738 C750 0.959 . S
H739 C753 0.929 . S
H740 C754 0.931 . S
H741 C756 0.930 . S
C742 H730 0.930 . S
C742 C743 1.399 . S
C742 C747 1.399 . S
C743 C742 1.399 . S
C743 C744 1.376 . S
C744 H731 0.930 . S
C744 C743 1.376 . S
C744 C745 1.388 . S
C745 H732 0.930 . S
C745 C744 1.388 . S
C745 C746 1.390 . S
C746 C745 1.390 . S
C746 C747 1.394 . S
C746 C752 1.465 . S
C747 C742 1.399 . S
C747 C746 1.394 . S
C747 C748 1.516 . S
C748 C747 1.516 . S
C748 C749 1.502 . S
C748 C750 1.561 . S
C748 C751 1.526 . S
C749 H733 0.959 . S
C749 H734 0.959 . S
C749 H735 0.961 . S
C749 C748 1.502 . S
C750 H736 0.960 . S
C750 H737 0.961 . S
C750 H738 0.959 . S
C750 C748 1.561 . S
C751 C748 1.526 . S
C751 C752 1.396 . S
C751 C756 1.390 1_565 S
C752 C746 1.465 . S
C752 C751 1.396 . S
C752 C753 1.399 1_565 S
C753 H739 0.929 . S
C753 C752 1.399 1_545 S
C753 C754 1.385 . S
C754 H740 0.931 . S
C754 C753 1.385 . S
C754 C755 1.389 . S
C755 C754 1.389 . S
C755 C756 1.387 . S
C756 H741 0.930 . S
C756 C751 1.390 1_545 S
C756 C755 1.387 . S
H757 C769 0.930 . S
H758 C771 0.930 . S
H759 C772 0.930 . S
H760 C776 0.959 1_655 S
H761 C776 0.959 1_655 S
H762 C776 0.961 . S
H763 C777 0.960 1_455 S
H764 C777 0.961 . S
H765 C777 0.959 . S
H766 C780 0.929 . S
H767 C781 0.931 . S
H768 C783 0.930 . S
C769 H757 0.930 . S
C769 C770 1.399 . S
C769 C774 1.399 . S
C770 C769 1.399 . S
C770 C771 1.376 . S
C771 H758 0.930 . S
C771 C770 1.376 . S
C771 C772 1.388 1_455 S
C772 H759 0.930 . S
C772 C771 1.388 1_655 S
C772 C773 1.390 . S
C773 C772 1.390 . S
C773 C774 1.394 1_655 S
C773 C779 1.465 . S
C774 C769 1.399 . S
C774 C773 1.394 1_455 S
C774 C775 1.516 1_455 S
C775 C774 1.516 1_655 S
C775 C776 1.502 1_655 S
C775 C777 1.561 . S
C775 C778 1.526 . S
C776 H760 0.959 1_455 S
C776 H761 0.959 1_455 S
C776 H762 0.961 . S
C776 C775 1.502 1_455 S
C777 H763 0.960 1_655 S
C777 H764 0.961 . S
C777 H765 0.959 . S
C777 C775 1.561 . S
C778 C775 1.526 . S
C778 C779 1.396 . S
C778 C783 1.390 . S
C779 C773 1.465 . S
C779 C778 1.396 . S
C779 C780 1.399 . S
C780 H766 0.929 . S
C780 C779 1.399 . S
C780 C781 1.385 . S
C781 H767 0.931 . S
C781 C780 1.385 . S
C781 C782 1.389 . S
C782 C781 1.389 . S
C782 C783 1.387 . S
C783 H768 0.930 . S
C783 C778 1.390 . S
C783 C782 1.387 . S
H784 C796 0.930 . S
H785 C798 0.930 . S
H786 C799 0.930 . S
H787 C803 0.959 . S
H788 C803 0.959 . S
H789 C803 0.961 . S
H790 C804 0.960 . S
H791 C804 0.961 . S
H792 C804 0.959 . S
H793 C807 0.929 . S
H794 C808 0.931 . S
H795 C810 0.930 . S
C796 H784 0.930 . S
C796 C797 1.399 . S
C796 C801 1.399 . S
C797 C796 1.399 . S
C797 C798 1.376 . S
C798 H785 0.930 . S
C798 C797 1.376 . S
C798 C799 1.388 . S
C799 H786 0.930 . S
C799 C798 1.388 . S
C799 C800 1.390 . S
C800 C799 1.390 . S
C800 C801 1.394 . S
C800 C806 1.465 . S
C801 C796 1.399 . S
C801 C800 1.394 . S
C801 C802 1.516 . S
C802 C801 1.516 . S
C802 C803 1.502 . S
C802 C804 1.561 . S
C802 C805 1.526 . S
C803 H787 0.959 . S
C803 H788 0.959 . S
C803 H789 0.961 . S
C803 C802 1.502 . S
C804 H790 0.960 . S
C804 H791 0.961 . S
C804 H792 0.959 . S
C804 C802 1.561 . S
C805 C802 1.526 . S
C805 C806 1.396 . S
C805 C810 1.390 . S
C806 C800 1.465 . S
C806 C805 1.396 . S
C806 C807 1.399 . S
C807 H793 0.929 . S
C807 C806 1.399 . S
C807 C808 1.385 . S
C808 H794 0.931 . S
C808 C807 1.385 . S
C808 C809 1.389 . S
C809 C808 1.389 . S
C809 C810 1.387 . S
C810 H795 0.930 . S
C810 C805 1.390 . S
C810 C809 1.387 . S
H811 C823 0.930 . S
H812 C825 0.930 . S
H813 C826 0.930 . S
H814 C830 0.959 . S
H815 C830 0.959 . S
H816 C830 0.961 . S
H817 C831 0.960 . S
H818 C831 0.961 . S
H819 C831 0.959 . S
H820 C834 0.929 . S
H821 C835 0.931 . S
H822 C837 0.930 . S
C823 H811 0.930 . S
C823 C824 1.399 . S
C823 C828 1.399 . S
C824 C823 1.399 . S
C824 C825 1.376 . S
C825 H812 0.930 . S
C825 C824 1.376 . S
C825 C826 1.388 . S
C826 H813 0.930 . S
C826 C825 1.388 . S
C826 C827 1.390 . S
C827 C826 1.390 . S
C827 C828 1.394 . S
C827 C833 1.465 . S
C828 C823 1.399 . S
C828 C827 1.394 . S
C828 C829 1.516 . S
C829 C828 1.516 . S
C829 C830 1.502 . S
C829 C831 1.561 . S
C829 C832 1.526 . S
C830 H814 0.959 . S
C830 H815 0.959 . S
C830 H816 0.961 . S
C830 C829 1.502 . S
C831 H817 0.960 . S
C831 H818 0.961 . S
C831 H819 0.959 . S
C831 C829 1.561 . S
C832 C829 1.526 . S
C832 C833 1.396 . S
C832 C837 1.390 . S
C833 C827 1.465 . S
C833 C832 1.396 . S
C833 C834 1.399 . S
C834 H820 0.929 . S
C834 C833 1.399 . S
C834 C835 1.385 . S
C835 H821 0.931 . S
C835 C834 1.385 . S
C835 C836 1.389 . S
C836 C835 1.389 . S
C836 C837 1.387 . S
C837 H822 0.930 . S
C837 C832 1.390 . S
C837 C836 1.387 . S
H838 C850 0.930 . S
H839 C852 0.930 . S
H840 C853 0.930 . S
H841 C857 0.959 . S
H842 C857 0.959 . S
H843 C857 0.961 . S
H844 C858 0.960 . S
H845 C858 0.961 . S
H846 C858 0.959 . S
H847 C861 0.929 . S
H848 C862 0.931 . S
H849 C864 0.930 . S
C850 H838 0.930 . S
C850 C851 1.399 . S
C850 C855 1.399 . S
C851 C850 1.399 . S
C851 C852 1.376 . S
C852 H839 0.930 . S
C852 C851 1.376 . S
C852 C853 1.388 . S
C853 H840 0.930 . S
C853 C852 1.388 . S
C853 C854 1.390 . S
C854 C853 1.390 . S
C854 C855 1.394 . S
C854 C860 1.465 . S
C855 C850 1.399 . S
C855 C854 1.394 . S
C855 C856 1.516 . S
C856 C855 1.516 . S
C856 C857 1.502 . S
C856 C858 1.561 . S
C856 C859 1.526 . S
C857 H841 0.959 . S
C857 H842 0.959 . S
C857 H843 0.961 . S
C857 C856 1.502 . S
C858 H844 0.960 . S
C858 H845 0.961 . S
C858 H846 0.959 . S
C858 C856 1.561 . S
C859 C856 1.526 . S
C859 C860 1.396 . S
C859 C864 1.390 . S
C860 C854 1.465 . S
C860 C859 1.396 . S
C860 C861 1.399 . S
C861 H847 0.929 . S
C861 C860 1.399 . S
C861 C862 1.385 . S
C862 H848 0.931 . S
C862 C861 1.385 . S
C862 C863 1.389 . S
C863 C862 1.389 . S
C863 C864 1.387 . S
C864 H849 0.930 . S
C864 C859 1.390 . S
C864 C863 1.387 . S
H865 C877 0.930 . S
H866 C879 0.930 . S
H867 C880 0.930 . S
H868 C884 0.959 . S
H869 C884 0.959 . S
H870 C884 0.961 . S
H871 C885 0.960 . S
H872 C885 0.961 . S
H873 C885 0.959 . S
H874 C888 0.929 . S
H875 C889 0.931 . S
H876 C891 0.930 . S
C877 H865 0.930 . S
C877 C878 1.399 . S
C877 C882 1.399 . S
C878 C877 1.399 . S
C878 C879 1.376 . S
C879 H866 0.930 . S
C879 C878 1.376 . S
C879 C880 1.388 . S
C880 H867 0.930 . S
C880 C879 1.388 . S
C880 C881 1.390 . S
C881 C880 1.390 . S
C881 C882 1.394 . S
C881 C887 1.465 . S
C882 C877 1.399 . S
C882 C881 1.394 . S
C882 C883 1.516 . S
C883 C882 1.516 . S
C883 C884 1.502 . S
C883 C885 1.561 . S
C883 C886 1.526 . S
C884 H868 0.959 . S
C884 H869 0.959 . S
C884 H870 0.961 . S
C884 C883 1.502 . S
C885 H871 0.960 . S
C885 H872 0.961 . S
C885 H873 0.959 . S
C885 C883 1.561 . S
C886 C883 1.526 . S
C886 C887 1.396 . S
C886 C891 1.390 . S
C887 C881 1.465 . S
C887 C886 1.396 . S
C887 C888 1.399 . S
C888 H874 0.929 . S
C888 C887 1.399 . S
C888 C889 1.385 . S
C889 H875 0.931 . S
C889 C888 1.385 . S
C889 C890 1.389 . S
C890 C889 1.389 . S
C890 C891 1.387 . S
C891 H876 0.930 . S
C891 C886 1.390 . S
C891 C890 1.387 . S
H892 C904 0.930 . S
H893 C906 0.930 . S
H894 C907 0.930 . S
H895 C911 0.959 . S
H896 C911 0.959 . S
H897 C911 0.961 . S
H898 C912 0.960 . S
H899 C912 0.961 . S
H900 C912 0.959 . S
H901 C915 0.929 . S
H902 C916 0.931 . S
H903 C918 0.930 . S
C904 H892 0.930 . S
C904 C905 1.399 . S
C904 C909 1.399 . S
C905 C904 1.399 . S
C905 C906 1.376 . S
C906 H893 0.930 . S
C906 C905 1.376 . S
C906 C907 1.388 . S
C907 H894 0.930 . S
C907 C906 1.388 . S
C907 C908 1.390 . S
C908 C907 1.390 . S
C908 C909 1.394 . S
C908 C914 1.465 . S
C909 C904 1.399 . S
C909 C908 1.394 . S
C909 C910 1.516 . S
C910 C909 1.516 . S
C910 C911 1.502 . S
C910 C912 1.561 . S
C910 C913 1.526 . S
C911 H895 0.959 . S
C911 H896 0.959 . S
C911 H897 0.961 . S
C911 C910 1.502 . S
C912 H898 0.960 . S
C912 H899 0.961 . S
C912 H900 0.959 . S
C912 C910 1.561 . S
C913 C910 1.526 . S
C913 C914 1.396 . S
C913 C918 1.390 . S
C914 C908 1.465 . S
C914 C913 1.396 . S
C914 C915 1.399 . S
C915 H901 0.929 . S
C915 C914 1.399 . S
C915 C916 1.385 . S
C916 H902 0.931 . S
C916 C915 1.385 . S
C916 C917 1.389 . S
C917 C916 1.389 . S
C917 C918 1.387 . S
C918 H903 0.930 . S
C918 C913 1.390 . S
C918 C917 1.387 . S
H919 C931 0.930 . S
H920 C933 0.930 . S
H921 C934 0.930 . S
H922 C938 0.959 . S
H923 C938 0.959 . S
H924 C938 0.961 . S
H925 C939 0.960 . S
H926 C939 0.961 . S
H927 C939 0.959 . S
H928 C942 0.929 . S
H929 C943 0.931 . S
H930 C945 0.930 . S
C931 H919 0.930 . S
C931 C932 1.399 . S
C931 C936 1.399 . S
C932 C931 1.399 . S
C932 C933 1.376 . S
C933 H920 0.930 . S
C933 C932 1.376 . S
C933 C934 1.388 . S
C934 H921 0.930 . S
C934 C933 1.388 . S
C934 C935 1.390 . S
C935 C934 1.390 . S
C935 C936 1.394 . S
C935 C941 1.465 . S
C936 C931 1.399 . S
C936 C935 1.394 . S
C936 C937 1.516 . S
C937 C936 1.516 . S
C937 C938 1.502 . S
C937 C939 1.561 . S
C937 C940 1.526 . S
C938 H922 0.959 . S
C938 H923 0.959 . S
C938 H924 0.961 . S
C938 C937 1.502 . S
C939 H925 0.960 . S
C939 H926 0.961 . S
C939 H927 0.959 . S
C939 C937 1.561 . S
C940 C937 1.526 . S
C940 C941 1.396 . S
C940 C945 1.390 . S
C941 C935 1.465 . S
C941 C940 1.396 . S
C941 C942 1.399 . S
C942 H928 0.929 . S
C942 C941 1.399 . S
C942 C943 1.385 . S
C943 H929 0.931 . S
C943 C942 1.385 . S
C943 C944 1.389 . S
C944 C943 1.389 . S
C944 C945 1.387 . S
C945 H930 0.930 . S
C945 C940 1.390 . S
C945 C944 1.387 . S
H946 C958 0.930 . S
H947 C960 0.930 . S
H948 C961 0.930 . S
H949 C965 0.959 . S
H950 C965 0.959 . S
H951 C965 0.961 . S
H952 C966 0.960 . S
H953 C966 0.961 . S
H954 C966 0.959 . S
H955 C969 0.929 . S
H956 C970 0.931 . S
H957 C972 0.930 . S
C958 H946 0.930 . S
C958 C959 1.399 . S
C958 C963 1.399 . S
C959 C958 1.399 . S
C959 C960 1.376 . S
C960 H947 0.930 . S
C960 C959 1.376 . S
C960 C961 1.388 . S
C961 H948 0.930 . S
C961 C960 1.388 . S
C961 C962 1.390 . S
C962 C961 1.390 . S
C962 C963 1.394 . S
C962 C968 1.465 . S
C963 C958 1.399 . S
C963 C962 1.394 . S
C963 C964 1.516 . S
C964 C963 1.516 . S
C964 C965 1.502 . S
C964 C966 1.561 . S
C964 C967 1.526 . S
C965 H949 0.959 . S
C965 H950 0.959 . S
C965 H951 0.961 . S
C965 C964 1.502 . S
C966 H952 0.960 . S
C966 H953 0.961 . S
C966 H954 0.959 . S
C966 C964 1.561 . S
C967 C964 1.526 . S
C967 C968 1.396 . S
C967 C972 1.390 . S
C968 C962 1.465 . S
C968 C967 1.396 . S
C968 C969 1.399 . S
C969 H955 0.929 . S
C969 C968 1.399 . S
C969 C970 1.385 . S
C970 H956 0.931 . S
C970 C969 1.385 . S
C970 C971 1.389 . S
C971 C970 1.389 . S
C971 C972 1.387 . S
C972 H957 0.930 . S
C972 C967 1.390 . S
C972 C971 1.387 . S
H973 C985 0.930 . S
H974 C987 0.930 . S
H975 C988 0.930 . S
H976 C992 0.959 . S
H977 C992 0.959 . S
H978 C992 0.961 . S
H979 C993 0.960 . S
H980 C993 0.961 . S
H981 C993 0.959 . S
H982 C996 0.929 . S
H983 C997 0.931 . S
H984 C999 0.930 . S
C985 H973 0.930 . S
C985 C986 1.399 . S
C985 C990 1.399 . S
C986 C985 1.399 . S
C986 C987 1.376 . S
C987 H974 0.930 . S
C987 C986 1.376 . S
C987 C988 1.388 . S
C988 H975 0.930 . S
C988 C987 1.388 . S
C988 C989 1.390 . S
C989 C988 1.390 . S
C989 C990 1.394 . S
C989 C995 1.465 . S
C990 C985 1.399 . S
C990 C989 1.394 . S
C990 C991 1.516 . S
C991 C990 1.516 . S
C991 C992 1.502 . S
C991 C993 1.561 . S
C991 C994 1.526 . S
C992 H976 0.959 . S
C992 H977 0.959 . S
C992 H978 0.961 . S
C992 C991 1.502 . S
C993 H979 0.960 . S
C993 H980 0.961 . S
C993 H981 0.959 . S
C993 C991 1.561 . S
C994 C991 1.526 . S
C994 C995 1.396 . S
C994 C999 1.390 . S
C995 C989 1.465 . S
C995 C994 1.396 . S
C995 C996 1.399 . S
C996 H982 0.929 . S
C996 C995 1.399 . S
C996 C997 1.385 . S
C997 H983 0.931 . S
C997 C996 1.385 . S
C997 C998 1.389 . S
C998 C997 1.389 . S
C998 C999 1.387 . S
C999 H984 0.930 . S
C999 C994 1.390 . S
C999 C998 1.387 . S
H1000 C1012 0.930 . S
H1001 C1014 0.930 . S
H1002 C1015 0.930 . S
H1003 C1019 0.959 . S
H1004 C1019 0.959 . S
H1005 C1019 0.961 . S
H1006 C1020 0.960 . S
H1007 C1020 0.961 . S
H1008 C1020 0.959 . S
H1009 C1023 0.929 . S
H1010 C1024 0.931 . S
H1011 C1026 0.930 . S
C1012 H1000 0.930 . S
C1012 C1013 1.399 . S
C1012 C1017 1.399 . S
C1013 C1012 1.399 . S
C1013 C1014 1.376 . S
C1014 H1001 0.930 . S
C1014 C1013 1.376 . S
C1014 C1015 1.388 . S
C1015 H1002 0.930 . S
C1015 C1014 1.388 . S
C1015 C1016 1.390 . S
C1016 C1015 1.390 . S
C1016 C1017 1.394 . S
C1016 C1022 1.465 . S
C1017 C1012 1.399 . S
C1017 C1016 1.394 . S
C1017 C1018 1.516 . S
C1018 C1017 1.516 . S
C1018 C1019 1.502 . S
C1018 C1020 1.561 . S
C1018 C1021 1.526 . S
C1019 H1003 0.959 . S
C1019 H1004 0.959 . S
C1019 H1005 0.961 . S
C1019 C1018 1.502 . S
C1020 H1006 0.960 . S
C1020 H1007 0.961 . S
C1020 H1008 0.959 . S
C1020 C1018 1.561 . S
C1021 C1018 1.526 . S
C1021 C1022 1.396 . S
C1021 C1026 1.390 . S
C1022 C1016 1.465 . S
C1022 C1021 1.396 . S
C1022 C1023 1.399 . S
C1023 H1009 0.929 . S
C1023 C1022 1.399 . S
C1023 C1024 1.385 . S
C1024 H1010 0.931 . S
C1024 C1023 1.385 . S
C1024 C1025 1.389 . S
C1025 C1024 1.389 . S
C1025 C1026 1.387 . S
C1026 H1011 0.930 . S
C1026 C1021 1.390 . S
C1026 C1025 1.387 . S
H1027 C1039 0.930 . S
H1028 C1041 0.930 . S
H1029 C1042 0.930 . S
H1030 C1046 0.959 . S
H1031 C1046 0.959 . S
H1032 C1046 0.961 . S
H1033 C1047 0.960 . S
H1034 C1047 0.961 . S
H1035 C1047 0.959 . S
H1036 C1050 0.929 . S
H1037 C1051 0.931 . S
H1038 C1053 0.930 . S
C1039 H1027 0.930 . S
C1039 C1040 1.399 . S
C1039 C1044 1.399 . S
C1040 C1039 1.399 . S
C1040 C1041 1.376 . S
C1041 H1028 0.930 . S
C1041 C1040 1.376 . S
C1041 C1042 1.388 . S
C1042 H1029 0.930 . S
C1042 C1041 1.388 . S
C1042 C1043 1.390 . S
C1043 C1042 1.390 . S
C1043 C1044 1.394 . S
C1043 C1049 1.465 . S
C1044 C1039 1.399 . S
C1044 C1043 1.394 . S
C1044 C1045 1.516 . S
C1045 C1044 1.516 . S
C1045 C1046 1.502 . S
C1045 C1047 1.561 . S
C1045 C1048 1.526 . S
C1046 H1030 0.959 . S
C1046 H1031 0.959 . S
C1046 H1032 0.961 . S
C1046 C1045 1.502 . S
C1047 H1033 0.960 . S
C1047 H1034 0.961 . S
C1047 H1035 0.959 . S
C1047 C1045 1.561 . S
C1048 C1045 1.526 . S
C1048 C1049 1.396 . S
C1048 C1053 1.390 . S
C1049 C1043 1.465 . S
C1049 C1048 1.396 . S
C1049 C1050 1.399 . S
C1050 H1036 0.929 . S
C1050 C1049 1.399 . S
C1050 C1051 1.385 . S
C1051 H1037 0.931 . S
C1051 C1050 1.385 . S
C1051 C1052 1.389 . S
C1052 C1051 1.389 . S
C1052 C1053 1.387 . S
C1053 H1038 0.930 . S
C1053 C1048 1.390 . S
C1053 C1052 1.387 . S
H1054 C1066 0.930 . S
H1055 C1068 0.930 . S
H1056 C1069 0.930 . S
H1057 C1073 0.959 . S
H1058 C1073 0.959 . S
H1059 C1073 0.961 . S
H1060 C1074 0.960 . S
H1061 C1074 0.961 . S
H1062 C1074 0.959 . S
H1063 C1077 0.929 . S
H1064 C1078 0.931 . S
H1065 C1080 0.930 . S
C1066 H1054 0.930 . S
C1066 C1067 1.399 . S
C1066 C1071 1.399 . S
C1067 C1066 1.399 . S
C1067 C1068 1.376 . S
C1068 H1055 0.930 . S
C1068 C1067 1.376 . S
C1068 C1069 1.388 . S
C1069 H1056 0.930 . S
C1069 C1068 1.388 . S
C1069 C1070 1.390 . S
C1070 C1069 1.390 . S
C1070 C1071 1.394 . S
C1070 C1076 1.465 . S
C1071 C1066 1.399 . S
C1071 C1070 1.394 . S
C1071 C1072 1.516 . S
C1072 C1071 1.516 . S
C1072 C1073 1.502 . S
C1072 C1074 1.561 . S
C1072 C1075 1.526 . S
C1073 H1057 0.959 . S
C1073 H1058 0.959 . S
C1073 H1059 0.961 . S
C1073 C1072 1.502 . S
C1074 H1060 0.960 . S
C1074 H1061 0.961 . S
C1074 H1062 0.959 . S
C1074 C1072 1.561 . S
C1075 C1072 1.526 . S
C1075 C1076 1.396 . S
C1075 C1080 1.390 . S
C1076 C1070 1.465 . S
C1076 C1075 1.396 . S
C1076 C1077 1.399 . S
C1077 H1063 0.929 . S
C1077 C1076 1.399 . S
C1077 C1078 1.385 . S
C1078 H1064 0.931 . S
C1078 C1077 1.385 . S
C1078 C1079 1.389 . S
C1079 C1078 1.389 . S
C1079 C1080 1.387 . S
C1080 H1065 0.930 . S
C1080 C1075 1.390 . S
C1080 C1079 1.387 . S
H1081 C1093 0.930 . S
H1082 C1095 0.930 . S
H1083 C1096 0.930 . S
H1084 C1100 0.959 . S
H1085 C1100 0.959 . S
H1086 C1100 0.961 . S
H1087 C1101 0.960 . S
H1088 C1101 0.961 . S
H1089 C1101 0.959 . S
H1090 C1104 0.929 . S
H1091 C1105 0.931 . S
H1092 C1107 0.930 . S
C1093 H1081 0.930 . S
C1093 C1094 1.399 . S
C1093 C1098 1.399 . S
C1094 C1093 1.399 . S
C1094 C1095 1.376 . S
C1095 H1082 0.930 . S
C1095 C1094 1.376 . S
C1095 C1096 1.388 . S
C1096 H1083 0.930 . S
C1096 C1095 1.388 . S
C1096 C1097 1.390 . S
C1097 C1096 1.390 . S
C1097 C1098 1.394 . S
C1097 C1103 1.465 . S
C1098 C1093 1.399 . S
C1098 C1097 1.394 . S
C1098 C1099 1.516 . S
C1099 C1098 1.516 . S
C1099 C1100 1.502 . S
C1099 C1101 1.561 . S
C1099 C1102 1.526 . S
C1100 H1084 0.959 . S
C1100 H1085 0.959 . S
C1100 H1086 0.961 . S
C1100 C1099 1.502 . S
C1101 H1087 0.960 . S
C1101 H1088 0.961 . S
C1101 H1089 0.959 . S
C1101 C1099 1.561 . S
C1102 C1099 1.526 . S
C1102 C1103 1.396 . S
C1102 C1107 1.390 . S
C1103 C1097 1.465 . S
C1103 C1102 1.396 . S
C1103 C1104 1.399 . S
C1104 H1090 0.929 . S
C1104 C1103 1.399 . S
C1104 C1105 1.385 . S
C1105 H1091 0.931 . S
C1105 C1104 1.385 . S
C1105 C1106 1.389 . S
C1106 C1105 1.389 . S
C1106 C1107 1.387 . S
C1107 H1092 0.930 . S
C1107 C1102 1.390 . S
C1107 C1106 1.387 . S
H1108 C1120 0.930 . S
H1109 C1122 0.930 . S
H1110 C1123 0.930 . S
H1111 C1127 0.959 . S
H1112 C1127 0.959 . S
H1113 C1127 0.961 . S
H1114 C1128 0.960 . S
H1115 C1128 0.949 1_554 S
H1116 C1128 0.959 1_554 S
H1117 C1131 0.929 . S
H1118 C1132 0.931 . S
H1119 C1134 0.930 . S
C1120 H1108 0.930 . S
C1120 C1121 1.399 . S
C1120 C1125 1.399 . S
C1121 C1120 1.399 . S
C1121 C1122 1.376 . S
C1122 H1109 0.930 . S
C1122 C1121 1.376 . S
C1122 C1123 1.388 . S
C1123 H1110 0.930 . S
C1123 C1122 1.388 . S
C1123 C1124 1.390 . S
C1124 C1123 1.390 . S
C1124 C1125 1.394 . S
C1124 C1130 1.465 . S
C1125 C1120 1.399 . S
C1125 C1124 1.394 . S
C1125 C1126 1.516 . S
C1126 C1125 1.516 . S
C1126 C1127 1.502 . S
C1126 C1128 1.561 . S
C1126 C1129 1.526 . S
C1127 H1111 0.959 . S
C1127 H1112 0.959 . S
C1127 H1113 0.961 . S
C1127 C1126 1.502 . S
C1128 H1114 0.960 . S
C1128 H1115 0.949 1_556 S
C1128 H1116 0.959 1_556 S
C1128 C1126 1.561 . S
C1129 C1126 1.526 . S
C1129 C1130 1.396 . S
C1129 C1134 1.390 1_545 S
C1130 C1124 1.465 . S
C1130 C1129 1.396 . S
C1130 C1131 1.399 1_546 S
C1131 H1117 0.929 . S
C1131 C1130 1.399 1_564 S
C1131 C1132 1.385 . S
C1132 H1118 0.931 . S
C1132 C1131 1.385 . S
C1132 C1133 1.389 . S
C1133 C1132 1.389 . S
C1133 C1134 1.387 1_554 S
C1134 H1119 0.930 . S
C1134 C1129 1.390 1_565 S
C1134 C1133 1.387 1_556 S
H1135 C1147 0.930 . S
H1136 C1149 0.930 . S
H1137 C1150 0.930 . S
H1138 C1154 0.959 . S
H1139 C1154 0.959 1_656 S
H1140 C1154 0.961 . S
H1141 C1155 0.960 . S
H1142 C1155 0.961 . S
H1143 C1155 0.959 . S
H1144 C1158 0.929 1_455 S
H1145 C1159 0.931 . S
H1146 C1161 0.930 . S
C1147 H1135 0.930 . S
C1147 C1148 1.399 . S
C1147 C1152 1.399 . S
C1148 C1147 1.399 . S
C1148 C1149 1.376 . S
C1149 H1136 0.930 . S
C1149 C1148 1.376 . S
C1149 C1150 1.388 . S
C1150 H1137 0.930 . S
C1150 C1149 1.388 . S
C1150 C1151 1.390 . S
C1151 C1150 1.390 . S
C1151 C1152 1.394 . S
C1151 C1157 1.465 . S
C1152 C1147 1.399 . S
C1152 C1151 1.394 . S
C1152 C1153 1.516 . S
C1153 C1152 1.516 . S
C1153 C1154 1.502 . S
C1153 C1155 1.561 1_554 S
C1153 C1156 1.526 . S
C1154 H1138 0.959 . S
C1154 H1139 0.959 1_454 S
C1154 H1140 0.961 . S
C1154 C1153 1.502 . S
C1155 H1141 0.960 . S
C1155 H1142 0.961 . S
C1155 H1143 0.959 . S
C1155 C1153 1.561 1_556 S
C1156 C1153 1.526 . S
C1156 C1157 1.396 . S
C1156 C1161 1.390 1_454 S
C1157 C1151 1.465 . S
C1157 C1156 1.396 . S
C1157 C1158 1.399 1_455 S
C1158 H1144 0.929 1_655 S
C1158 C1157 1.399 1_655 S
C1158 C1159 1.385 . S
C1159 H1145 0.931 . S
C1159 C1158 1.385 . S
C1159 C1160 1.389 1_554 S
C1160 C1159 1.389 1_556 S
C1160 C1161 1.387 . S
C1161 H1146 0.930 . S
C1161 C1156 1.390 1_656 S
C1161 C1160 1.387 . S
H1162 C1174 0.930 . S
H1163 C1176 0.930 . S
H1164 C1177 0.930 . S
H1165 C1181 0.959 . S
H1166 C1181 0.959 . S
H1167 C1181 0.961 1_545 S
H1168 C1182 0.960 . S
H1169 C1182 0.961 1_565 S
H1170 C1182 0.959 . S
H1171 C1185 0.900 1_554 S
H1172 C1186 0.931 . S
H1173 C1188 0.930 . S
C1174 H1162 0.930 . S
C1174 C1175 1.399 1_556 S
C1174 C1179 1.399 . S
C1175 C1174 1.399 1_554 S
C1175 C1176 1.376 . S
C1176 H1163 0.930 . S
C1176 C1175 1.376 . S
C1176 C1177 1.388 1_545 S
C1177 H1164 0.930 . S
C1177 C1176 1.388 1_565 S
C1177 C1178 1.333 1_554 S
C1178 C1177 1.333 1_556 S
C1178 C1179 1.439 1_565 S
C1178 C1184 1.490 . S
C1179 C1174 1.399 . S
C1179 C1178 1.439 1_545 S
C1179 C1180 1.516 1_545 S
C1180 C1179 1.516 1_565 S
C1180 C1181 1.502 . S
C1180 C1182 1.561 1_565 S
C1180 C1183 1.526 . S
C1181 H1165 0.959 . S
C1181 H1166 0.959 . S
C1181 H1167 0.961 1_565 S
C1181 C1180 1.502 . S
C1182 H1168 0.960 . S
C1182 H1169 0.961 1_545 S
C1182 H1170 0.959 . S
C1182 C1180 1.561 1_545 S
C1183 C1180 1.526 . S
C1183 C1184 1.396 . S
C1183 C1188 1.390 . S
C1184 C1178 1.490 . S
C1184 C1183 1.396 . S
C1184 C1185 1.412 . S
C1185 H1171 0.900 1_556 S
C1185 C1184 1.412 . S
C1185 C1186 1.403 . S
C1186 H1172 0.931 . S
C1186 C1185 1.403 . S
C1186 C1187 1.389 . S
C1187 C1186 1.389 . S
C1187 C1188 1.387 . S
C1188 H1173 0.930 . S
C1188 C1183 1.390 . S
C1188 C1187 1.387 . S
H1189 C1201 0.930 . S
H1190 C1203 0.930 . S
H1191 C1204 0.930 . S
H1192 C1208 0.959 1_655 S
H1193 C1208 0.959 1_655 S
H1194 C1208 0.961 . S
H1195 C1209 0.960 . S
H1196 C1209 0.961 1_655 S
H1197 C1209 0.959 1_655 S
H1198 C1212 0.905 1_556 S
H1199 C1213 0.931 . S
H1200 C1215 0.930 . S
C1201 H1189 0.930 . S
C1201 C1202 1.399 1_554 S
C1201 C1206 1.399 . S
C1202 C1201 1.399 1_556 S
C1202 C1203 1.376 . S
C1203 H1190 0.930 . S
C1203 C1202 1.376 . S
C1203 C1204 1.388 1_455 S
C1204 H1191 0.930 . S
C1204 C1203 1.388 1_655 S
C1204 C1205 1.390 1_556 S
C1205 C1204 1.390 1_554 S
C1205 C1206 1.394 1_655 S
C1205 C1211 1.465 . S
C1206 C1201 1.399 . S
C1206 C1205 1.394 1_455 S
C1206 C1207 1.516 1_455 S
C1207 C1206 1.516 1_655 S
C1207 C1208 1.502 1_655 S
C1207 C1209 1.561 1_655 S
C1207 C1210 1.526 . S
C1208 H1192 0.959 1_455 S
C1208 H1193 0.959 1_455 S
C1208 H1194 0.961 . S
C1208 C1207 1.502 1_455 S
C1209 H1195 0.960 . S
C1209 H1196 0.961 1_455 S
C1209 H1197 0.959 1_455 S
C1209 C1207 1.561 1_455 S
C1210 C1207 1.526 . S
C1210 C1211 1.396 . S
C1210 C1215 1.390 . S
C1211 C1205 1.465 . S
C1211 C1210 1.396 . S
C1211 C1212 1.399 . S
C1212 H1198 0.905 1_554 S
C1212 C1211 1.399 . S
C1212 C1213 1.385 . S
C1213 H1199 0.931 . S
C1213 C1212 1.385 . S
C1213 C1214 1.389 . S
C1214 C1213 1.389 . S
C1214 C1215 1.387 . S
C1215 H1200 0.930 . S
C1215 C1210 1.390 . S
C1215 C1214 1.387 . S
H1216 C1228 0.930 . S
H1217 C1230 0.930 . S
H1218 C1231 0.919 1_565 S
H1219 C1235 0.959 . S
H1220 C1235 0.959 . S
H1221 C1235 0.961 . S
H1222 C1236 0.950 1_545 S
H1223 C1236 0.967 . S
H1224 C1236 0.958 1_545 S
H1225 C1239 0.929 . S
H1226 C1240 0.931 . S
H1227 C1242 0.930 . S
C1228 H1216 0.930 . S
C1228 C1229 1.399 . S
C1228 C1233 1.399 . S
C1229 C1228 1.399 . S
C1229 C1230 1.376 . S
C1230 H1217 0.930 . S
C1230 C1229 1.376 . S
C1230 C1231 1.410 . S
C1231 H1218 0.919 1_545 S
C1231 C1230 1.410 . S
C1231 C1232 1.379 1_545 S
C1232 C1231 1.379 1_565 S
C1232 C1233 1.394 1_565 S
C1232 C1238 1.465 . S
C1233 C1228 1.399 . S
C1233 C1232 1.394 1_545 S
C1233 C1234 1.516 1_545 S
C1234 C1233 1.516 1_565 S
C1234 C1235 1.502 . S
C1234 C1236 1.567 . S
C1234 C1237 1.526 . S
C1235 H1219 0.959 . S
C1235 H1220 0.959 . S
C1235 H1221 0.961 . S
C1235 C1234 1.502 . S
C1236 H1222 0.950 1_565 S
C1236 H1223 0.967 . S
C1236 H1224 0.958 1_565 S
C1236 C1234 1.567 . S
C1237 C1234 1.526 . S
C1237 C1238 1.396 . S
C1237 C1242 1.390 . S
C1238 C1232 1.465 . S
C1238 C1237 1.396 . S
C1238 C1239 1.399 . S
C1239 H1225 0.929 . S
C1239 C1238 1.399 . S
C1239 C1240 1.385 . S
C1240 H1226 0.931 . S
C1240 C1239 1.385 . S
C1240 C1241 1.389 . S
C1241 C1240 1.389 . S
C1241 C1242 1.387 . S
C1242 H1227 0.930 . S
C1242 C1237 1.390 . S
C1242 C1241 1.387 . S
H1243 C1255 0.930 . S
H1244 C1257 0.930 . S
H1245 C1258 0.930 . S
H1246 C1262 0.959 . S
H1247 C1262 0.959 1_455 S
H1248 C1262 0.961 . S
H1249 C1263 0.960 1_655 S
H1250 C1263 0.961 . S
H1251 C1263 0.959 . S
H1252 C1266 0.929 . S
H1253 C1267 0.931 . S
H1254 C1269 0.930 . S
C1255 H1243 0.930 . S
C1255 C1256 1.399 . S
C1255 C1260 1.399 . S
C1256 C1255 1.399 . S
C1256 C1257 1.376 . S
C1257 H1244 0.930 . S
C1257 C1256 1.376 . S
C1257 C1258 1.388 . S
C1258 H1245 0.930 . S
C1258 C1257 1.388 . S
C1258 C1259 1.390 . S
C1259 C1258 1.390 . S
C1259 C1260 1.394 . S
C1259 C1265 1.465 . S
C1260 C1255 1.399 . S
C1260 C1259 1.394 . S
C1260 C1261 1.516 . S
C1261 C1260 1.516 . S
C1261 C1262 1.502 . S
C1261 C1263 1.561 1_655 S
C1261 C1264 1.526 1_655 S
C1262 H1246 0.959 . S
C1262 H1247 0.959 1_655 S
C1262 H1248 0.961 . S
C1262 C1261 1.502 . S
C1263 H1249 0.960 1_455 S
C1263 H1250 0.961 . S
C1263 H1251 0.959 . S
C1263 C1261 1.561 1_455 S
C1264 C1261 1.526 1_455 S
C1264 C1265 1.396 1_455 S
C1264 C1269 1.390 . S
C1265 C1259 1.465 . S
C1265 C1264 1.396 1_655 S
C1265 C1266 1.399 . S
C1266 H1252 0.929 . S
C1266 C1265 1.399 . S
C1266 C1267 1.385 1_655 S
C1267 H1253 0.931 . S
C1267 C1266 1.385 1_455 S
C1267 C1268 1.389 . S
C1268 C1267 1.389 . S
C1268 C1269 1.387 . S
C1269 H1254 0.930 . S
C1269 C1264 1.390 . S
C1269 C1268 1.387 . S
H1270 C1282 0.930 . S
H1271 C1284 0.930 . S
H1272 C1285 0.930 . S
H1273 C1289 0.959 . S
H1274 C1289 0.959 . S
H1275 C1289 0.961 . S
H1276 C1290 0.960 . S
H1277 C1290 0.961 . S
H1278 C1290 0.959 . S
H1279 C1293 0.929 . S
H1280 C1294 0.931 . S
H1281 C1296 0.930 . S
C1282 H1270 0.930 . S
C1282 C1283 1.399 . S
C1282 C1287 1.399 . S
C1283 C1282 1.399 . S
C1283 C1284 1.376 . S
C1284 H1271 0.930 . S
C1284 C1283 1.376 . S
C1284 C1285 1.388 . S
C1285 H1272 0.930 . S
C1285 C1284 1.388 . S
C1285 C1286 1.390 . S
C1286 C1285 1.390 . S
C1286 C1287 1.394 . S
C1286 C1292 1.465 . S
C1287 C1282 1.399 . S
C1287 C1286 1.394 . S
C1287 C1288 1.516 . S
C1288 C1287 1.516 . S
C1288 C1289 1.502 . S
C1288 C1290 1.561 . S
C1288 C1291 1.526 . S
C1289 H1273 0.959 . S
C1289 H1274 0.959 . S
C1289 H1275 0.961 . S
C1289 C1288 1.502 . S
C1290 H1276 0.960 . S
C1290 H1277 0.961 . S
C1290 H1278 0.959 . S
C1290 C1288 1.561 . S
C1291 C1288 1.526 . S
C1291 C1292 1.396 . S
C1291 C1296 1.390 1_545 S
C1292 C1286 1.465 . S
C1292 C1291 1.396 . S
C1292 C1293 1.399 1_545 S
C1293 H1279 0.929 . S
C1293 C1292 1.399 1_565 S
C1293 C1294 1.385 . S
C1294 H1280 0.931 . S
C1294 C1293 1.385 . S
C1294 C1295 1.389 . S
C1295 C1294 1.389 . S
C1295 C1296 1.387 . S
C1296 H1281 0.930 . S
C1296 C1291 1.390 1_565 S
C1296 C1295 1.387 . S
H1297 C1309 0.930 . S
H1298 C1311 0.930 . S
H1299 C1312 0.921 1_455 S
H1300 C1316 0.959 . S
H1301 C1316 0.959 . S
H1302 C1316 0.961 1_655 S
H1303 C1317 0.960 . S
H1304 C1317 0.961 . S
H1305 C1317 0.959 . S
H1306 C1320 0.929 . S
H1307 C1321 0.931 . S
H1308 C1323 0.930 . S
C1309 H1297 0.930 . S
C1309 C1310 1.399 . S
C1309 C1314 1.399 1_655 S
C1310 C1309 1.399 . S
C1310 C1311 1.376 . S
C1311 H1298 0.930 . S
C1311 C1310 1.376 . S
C1311 C1312 1.409 . S
C1312 H1299 0.921 1_655 S
C1312 C1311 1.409 . S
C1312 C1313 1.379 1_655 S
C1313 C1312 1.379 1_455 S
C1313 C1314 1.394 . S
C1313 C1319 1.465 . S
C1314 C1309 1.399 1_455 S
C1314 C1313 1.394 . S
C1314 C1315 1.516 . S
C1315 C1314 1.516 . S
C1315 C1316 1.502 . S
C1315 C1317 1.561 . S
C1315 C1318 1.526 . S
C1316 H1300 0.959 . S
C1316 H1301 0.959 . S
C1316 H1302 0.961 1_455 S
C1316 C1315 1.502 . S
C1317 H1303 0.960 . S
C1317 H1304 0.961 . S
C1317 H1305 0.959 . S
C1317 C1315 1.561 . S
C1318 C1315 1.526 . S
C1318 C1319 1.396 . S
C1318 C1323 1.390 . S
C1319 C1313 1.465 . S
C1319 C1318 1.396 . S
C1319 C1320 1.399 . S
C1320 H1306 0.929 . S
C1320 C1319 1.399 . S
C1320 C1321 1.385 . S
C1321 H1307 0.931 . S
C1321 C1320 1.385 . S
C1321 C1322 1.389 . S
C1322 C1321 1.389 . S
C1322 C1323 1.387 . S
C1323 H1308 0.930 . S
C1323 C1318 1.390 . S
C1323 C1322 1.387 . S
H1324 C1336 0.930 . S
H1325 C1338 0.930 . S
H1326 C1339 0.930 . S
H1327 C1343 0.959 . S
H1328 C1343 0.959 . S
H1329 C1343 0.961 . S
H1330 C1344 0.960 . S
H1331 C1344 0.961 . S
H1332 C1344 0.959 . S
H1333 C1347 0.929 . S
H1334 C1348 0.931 . S
H1335 C1350 0.930 . S
C1336 H1324 0.930 . S
C1336 C1337 1.399 . S
C1336 C1341 1.399 . S
C1337 C1336 1.399 . S
C1337 C1338 1.376 . S
C1338 H1325 0.930 . S
C1338 C1337 1.376 . S
C1338 C1339 1.388 . S
C1339 H1326 0.930 . S
C1339 C1338 1.388 . S
C1339 C1340 1.390 . S
C1340 C1339 1.390 . S
C1340 C1341 1.394 . S
C1340 C1346 1.465 . S
C1341 C1336 1.399 . S
C1341 C1340 1.394 . S
C1341 C1342 1.516 . S
C1342 C1341 1.516 . S
C1342 C1343 1.502 . S
C1342 C1344 1.561 . S
C1342 C1345 1.526 . S
C1343 H1327 0.959 . S
C1343 H1328 0.959 . S
C1343 H1329 0.961 . S
C1343 C1342 1.502 . S
C1344 H1330 0.960 . S
C1344 H1331 0.961 . S
C1344 H1332 0.959 . S
C1344 C1342 1.561 . S
C1345 C1342 1.526 . S
C1345 C1346 1.396 . S
C1345 C1350 1.390 . S
C1346 C1340 1.465 . S
C1346 C1345 1.396 . S
C1346 C1347 1.399 . S
C1347 H1333 0.929 . S
C1347 C1346 1.399 . S
C1347 C1348 1.385 . S
C1348 H1334 0.931 . S
C1348 C1347 1.385 . S
C1348 C1349 1.389 . S
C1349 C1348 1.389 . S
C1349 C1350 1.387 . S
C1350 H1335 0.930 . S
C1350 C1345 1.390 . S
C1350 C1349 1.387 . S
H1351 C1363 0.930 . S
H1352 C1365 0.930 . S
H1353 C1366 0.930 . S
H1354 C1370 0.959 . S
H1355 C1370 0.959 . S
H1356 C1370 0.961 . S
H1357 C1371 0.960 . S
H1358 C1371 0.961 . S
H1359 C1371 0.959 . S
H1360 C1374 0.929 . S
H1361 C1375 0.931 . S
H1362 C1377 0.930 . S
C1363 H1351 0.930 . S
C1363 C1364 1.399 . S
C1363 C1368 1.399 . S
C1364 C1363 1.399 . S
C1364 C1365 1.376 . S
C1365 H1352 0.930 . S
C1365 C1364 1.376 . S
C1365 C1366 1.388 . S
C1366 H1353 0.930 . S
C1366 C1365 1.388 . S
C1366 C1367 1.390 . S
C1367 C1366 1.390 . S
C1367 C1368 1.394 . S
C1367 C1373 1.465 . S
C1368 C1363 1.399 . S
C1368 C1367 1.394 . S
C1368 C1369 1.516 . S
C1369 C1368 1.516 . S
C1369 C1370 1.502 . S
C1369 C1371 1.561 . S
C1369 C1372 1.526 . S
C1370 H1354 0.959 . S
C1370 H1355 0.959 . S
C1370 H1356 0.961 . S
C1370 C1369 1.502 . S
C1371 H1357 0.960 . S
C1371 H1358 0.961 . S
C1371 H1359 0.959 . S
C1371 C1369 1.561 . S
C1372 C1369 1.526 . S
C1372 C1373 1.396 . S
C1372 C1377 1.390 . S
C1373 C1367 1.465 . S
C1373 C1372 1.396 . S
C1373 C1374 1.399 . S
C1374 H1360 0.929 . S
C1374 C1373 1.399 . S
C1374 C1375 1.385 . S
C1375 H1361 0.931 . S
C1375 C1374 1.385 . S
C1375 C1376 1.389 . S
C1376 C1375 1.389 . S
C1376 C1377 1.387 . S
C1377 H1362 0.930 . S
C1377 C1372 1.390 . S
C1377 C1376 1.387 . S
H1378 C1390 0.930 . S
H1379 C1392 0.930 . S
H1380 C1393 0.930 . S
H1381 C1397 0.959 . S
H1382 C1397 0.959 . S
H1383 C1397 0.961 . S
H1384 C1398 0.960 . S
H1385 C1398 0.961 . S
H1386 C1398 0.959 . S
H1387 C1401 0.929 . S
H1388 C1402 0.931 . S
H1389 C1404 0.930 . S
C1390 H1378 0.930 . S
C1390 C1391 1.399 . S
C1390 C1395 1.399 . S
C1391 C1390 1.399 . S
C1391 C1392 1.376 . S
C1392 H1379 0.930 . S
C1392 C1391 1.376 . S
C1392 C1393 1.388 . S
C1393 H1380 0.930 . S
C1393 C1392 1.388 . S
C1393 C1394 1.390 . S
C1394 C1393 1.390 . S
C1394 C1395 1.394 . S
C1394 C1400 1.465 . S
C1395 C1390 1.399 . S
C1395 C1394 1.394 . S
C1395 C1396 1.516 . S
C1396 C1395 1.516 . S
C1396 C1397 1.502 . S
C1396 C1398 1.561 . S
C1396 C1399 1.526 . S
C1397 H1381 0.959 . S
C1397 H1382 0.959 . S
C1397 H1383 0.961 . S
C1397 C1396 1.502 . S
C1398 H1384 0.960 . S
C1398 H1385 0.961 . S
C1398 H1386 0.959 . S
C1398 C1396 1.561 . S
C1399 C1396 1.526 . S
C1399 C1400 1.396 . S
C1399 C1404 1.390 . S
C1400 C1394 1.465 . S
C1400 C1399 1.396 . S
C1400 C1401 1.399 . S
C1401 H1387 0.929 . S
C1401 C1400 1.399 . S
C1401 C1402 1.385 . S
C1402 H1388 0.931 . S
C1402 C1401 1.385 . S
C1402 C1403 1.389 . S
C1403 C1402 1.389 . S
C1403 C1404 1.387 . S
C1404 H1389 0.930 . S
C1404 C1399 1.390 . S
C1404 C1403 1.387 . S
H1405 C1417 0.930 . S
H1406 C1419 0.930 . S
H1407 C1420 0.930 . S
H1408 C1424 0.959 . S
H1409 C1424 0.959 . S
H1410 C1424 0.961 . S
H1411 C1425 0.960 . S
H1412 C1425 0.961 . S
H1413 C1425 0.959 . S
H1414 C1428 0.929 . S
H1415 C1429 0.931 . S
H1416 C1431 0.930 . S
C1417 H1405 0.930 . S
C1417 C1418 1.399 . S
C1417 C1422 1.399 . S
C1418 C1417 1.399 . S
C1418 C1419 1.376 . S
C1419 H1406 0.930 . S
C1419 C1418 1.376 . S
C1419 C1420 1.388 . S
C1420 H1407 0.930 . S
C1420 C1419 1.388 . S
C1420 C1421 1.390 . S
C1421 C1420 1.390 . S
C1421 C1422 1.394 . S
C1421 C1427 1.465 . S
C1422 C1417 1.399 . S
C1422 C1421 1.394 . S
C1422 C1423 1.516 . S
C1423 C1422 1.516 . S
C1423 C1424 1.502 . S
C1423 C1425 1.561 . S
C1423 C1426 1.526 . S
C1424 H1408 0.959 . S
C1424 H1409 0.959 . S
C1424 H1410 0.961 . S
C1424 C1423 1.502 . S
C1425 H1411 0.960 . S
C1425 H1412 0.961 . S
C1425 H1413 0.959 . S
C1425 C1423 1.561 . S
C1426 C1423 1.526 . S
C1426 C1427 1.396 . S
C1426 C1431 1.390 . S
C1427 C1421 1.465 . S
C1427 C1426 1.396 . S
C1427 C1428 1.399 . S
C1428 H1414 0.929 . S
C1428 C1427 1.399 . S
C1428 C1429 1.385 . S
C1429 H1415 0.931 . S
C1429 C1428 1.385 . S
C1429 C1430 1.389 . S
C1430 C1429 1.389 . S
C1430 C1431 1.387 . S
C1431 H1416 0.930 . S
C1431 C1426 1.390 . S
C1431 C1430 1.387 . S
H1432 C1444 0.930 . S
H1433 C1446 0.930 . S
H1434 C1447 0.930 . S
H1435 C1451 0.959 . S
H1436 C1451 0.959 . S
H1437 C1451 0.961 . S
H1438 C1452 0.960 . S
H1439 C1452 0.961 . S
H1440 C1452 0.959 . S
H1441 C1455 0.929 . S
H1442 C1456 0.931 . S
H1443 C1458 0.930 . S
C1444 H1432 0.930 . S
C1444 C1445 1.399 . S
C1444 C1449 1.399 . S
C1445 C1444 1.399 . S
C1445 C1446 1.376 . S
C1446 H1433 0.930 . S
C1446 C1445 1.376 . S
C1446 C1447 1.388 . S
C1447 H1434 0.930 . S
C1447 C1446 1.388 . S
C1447 C1448 1.390 . S
C1448 C1447 1.390 . S
C1448 C1449 1.394 . S
C1448 C1454 1.465 1_445 S
C1449 C1444 1.399 . S
C1449 C1448 1.394 . S
C1449 C1450 1.529 1_545 S
C1450 C1449 1.529 1_565 S
C1450 C1451 1.516 . S
C1450 C1452 1.546 1_465 S
C1450 C1453 1.512 1_455 S
C1451 H1435 0.959 . S
C1451 H1436 0.959 . S
C1451 H1437 0.961 . S
C1451 C1450 1.516 . S
C1452 H1438 0.960 . S
C1452 H1439 0.961 . S
C1452 H1440 0.959 . S
C1452 C1450 1.546 1_645 S
C1453 C1450 1.512 1_655 S
C1453 C1454 1.396 . S
C1453 C1458 1.390 . S
C1454 C1448 1.465 1_665 S
C1454 C1453 1.396 . S
C1454 C1455 1.399 . S
C1455 H1441 0.929 . S
C1455 C1454 1.399 . S
C1455 C1456 1.385 . S
C1456 H1442 0.931 . S
C1456 C1455 1.385 . S
C1456 C1457 1.389 . S
C1457 C1456 1.389 . S
C1457 C1458 1.387 . S
C1458 H1443 0.930 . S
C1458 C1453 1.390 . S
C1458 C1457 1.387 . S
H1459 C1471 0.930 . S
H1460 C1473 0.930 . S
H1461 C1474 0.930 . S
H1462 C1478 0.959 . S
H1463 C1478 0.959 1_455 S
H1464 C1478 0.961 1_545 S
H1465 C1479 0.960 . S
H1466 C1479 0.961 . S
H1467 C1479 0.959 . S
H1468 C1482 0.929 . S
H1469 C1483 0.931 . S
H1470 C1485 0.930 . S
C1471 H1459 0.930 . S
C1471 C1472 1.399 . S
C1471 C1476 1.399 . S
C1472 C1471 1.399 . S
C1472 C1473 1.376 . S
C1473 H1460 0.930 . S
C1473 C1472 1.376 . S
C1473 C1474 1.388 . S
C1474 H1461 0.930 . S
C1474 C1473 1.388 . S
C1474 C1475 1.390 . S
C1475 C1474 1.390 . S
C1475 C1476 1.394 . S
C1475 C1481 1.465 1_645 S
C1476 C1471 1.399 . S
C1476 C1475 1.394 . S
C1476 C1477 1.516 1_655 S
C1477 C1476 1.516 1_455 S
C1477 C1478 1.502 1_445 S
C1477 C1479 1.561 . S
C1477 C1480 1.526 1_545 S
C1478 H1462 0.959 . S
C1478 H1463 0.959 1_655 S
C1478 H1464 0.961 1_565 S
C1478 C1477 1.502 1_665 S
C1479 H1465 0.960 . S
C1479 H1466 0.961 . S
C1479 H1467 0.959 . S
C1479 C1477 1.561 . S
C1480 C1477 1.526 1_565 S
C1480 C1481 1.396 . S
C1480 C1485 1.390 . S
C1481 C1475 1.465 1_465 S
C1481 C1480 1.396 . S
C1481 C1482 1.399 . S
C1482 H1468 0.929 . S
C1482 C1481 1.399 . S
C1482 C1483 1.385 . S
C1483 H1469 0.931 . S
C1483 C1482 1.385 . S
C1483 C1484 1.389 . S
C1484 C1483 1.389 . S
C1484 C1485 1.387 . S
C1485 H1470 0.930 . S
C1485 C1480 1.390 . S
C1485 C1484 1.387 . S
H1486 C1498 0.930 . S
H1487 C1500 0.930 . S
H1488 C1501 0.930 . S
H1489 C1505 0.959 . S
H1490 C1505 0.959 . S
H1491 C1505 0.961 . S
H1492 C1506 0.960 1_455 S
H1493 C1506 0.961 . S
H1494 C1506 0.959 . S
H1495 C1509 0.929 . S
H1496 C1510 0.931 . S
H1497 C1512 0.930 . S
C1498 H1486 0.930 . S
C1498 C1499 1.399 . S
C1498 C1503 1.399 . S
C1499 C1498 1.399 . S
C1499 C1500 1.376 . S
C1500 H1487 0.930 . S
C1500 C1499 1.376 . S
C1500 C1501 1.388 . S
C1501 H1488 0.930 . S
C1501 C1500 1.388 . S
C1501 C1502 1.390 . S
C1502 C1501 1.390 . S
C1502 C1503 1.394 . S
C1502 C1508 1.465 1_455 S
C1503 C1498 1.399 . S
C1503 C1502 1.394 . S
C1503 C1504 1.516 . S
C1504 C1503 1.516 . S
C1504 C1505 1.502 . S
C1504 C1506 1.561 1_455 S
C1504 C1507 1.526 1_455 S
C1505 H1489 0.959 . S
C1505 H1490 0.959 . S
C1505 H1491 0.961 . S
C1505 C1504 1.502 . S
C1506 H1492 0.960 1_655 S
C1506 H1493 0.961 . S
C1506 H1494 0.959 . S
C1506 C1504 1.561 1_655 S
C1507 C1504 1.526 1_655 S
C1507 C1508 1.396 . S
C1507 C1512 1.390 . S
C1508 C1502 1.465 1_655 S
C1508 C1507 1.396 . S
C1508 C1509 1.399 . S
C1509 H1495 0.929 . S
C1509 C1508 1.399 . S
C1509 C1510 1.385 . S
C1510 H1496 0.931 . S
C1510 C1509 1.385 . S
C1510 C1511 1.389 . S
C1511 C1510 1.389 . S
C1511 C1512 1.387 . S
C1512 H1497 0.930 . S
C1512 C1507 1.390 . S
C1512 C1511 1.387 . S
H1513 C1525 0.930 . S
H1514 C1527 0.930 . S
H1515 C1528 0.930 . S
H1516 C1532 0.959 . S
H1517 C1532 0.959 . S
H1518 C1532 0.961 . S
H1519 C1533 0.960 . S
H1520 C1533 0.961 . S
H1521 C1533 0.959 . S
H1522 C1536 0.929 . S
H1523 C1537 0.931 . S
H1524 C1539 0.930 . S
C1525 H1513 0.930 . S
C1525 C1526 1.399 . S
C1525 C1530 1.399 . S
C1526 C1525 1.399 . S
C1526 C1527 1.376 . S
C1527 H1514 0.930 . S
C1527 C1526 1.376 . S
C1527 C1528 1.388 . S
C1528 H1515 0.930 . S
C1528 C1527 1.388 . S
C1528 C1529 1.390 . S
C1529 C1528 1.390 . S
C1529 C1530 1.394 . S
C1529 C1535 1.465 1_565 S
C1530 C1525 1.399 . S
C1530 C1529 1.394 . S
C1530 C1531 1.516 . S
C1531 C1530 1.516 . S
C1531 C1532 1.502 . S
C1531 C1533 1.561 1_565 S
C1531 C1534 1.526 1_565 S
C1532 H1516 0.959 . S
C1532 H1517 0.959 . S
C1532 H1518 0.961 . S
C1532 C1531 1.502 . S
C1533 H1519 0.960 . S
C1533 H1520 0.961 . S
C1533 H1521 0.959 . S
C1533 C1531 1.561 1_545 S
C1534 C1531 1.526 1_545 S
C1534 C1535 1.396 . S
C1534 C1539 1.390 . S
C1535 C1529 1.465 1_545 S
C1535 C1534 1.396 . S
C1535 C1536 1.399 . S
C1536 H1522 0.929 . S
C1536 C1535 1.399 . S
C1536 C1537 1.385 . S
C1537 H1523 0.931 . S
C1537 C1536 1.385 . S
C1537 C1538 1.389 . S
C1538 C1537 1.389 . S
C1538 C1539 1.387 . S
C1539 H1524 0.930 . S
C1539 C1534 1.390 . S
C1539 C1538 1.387 . S
H1540 C1552 0.930 . S
H1541 C1554 0.930 . S
H1542 C1555 0.930 . S
H1543 C1559 0.959 . S
H1544 C1559 0.959 . S
H1545 C1559 0.961 . S
H1546 C1560 0.960 . S
H1547 C1560 0.961 . S
H1548 C1560 0.959 . S
H1549 C1563 0.929 . S
H1550 C1564 0.931 . S
H1551 C1566 0.930 . S
C1552 H1540 0.930 . S
C1552 C1553 1.399 . S
C1552 C1557 1.399 . S
C1553 C1552 1.399 . S
C1553 C1554 1.376 . S
C1554 H1541 0.930 . S
C1554 C1553 1.376 . S
C1554 C1555 1.388 . S
C1555 H1542 0.930 . S
C1555 C1554 1.388 . S
C1555 C1556 1.390 . S
C1556 C1555 1.390 . S
C1556 C1557 1.394 . S
C1556 C1562 1.465 . S
C1557 C1552 1.399 . S
C1557 C1556 1.394 . S
C1557 C1558 1.516 . S
C1558 C1557 1.516 . S
C1558 C1559 1.502 . S
C1558 C1560 1.561 . S
C1558 C1561 1.526 . S
C1559 H1543 0.959 . S
C1559 H1544 0.959 . S
C1559 H1545 0.961 . S
C1559 C1558 1.502 . S
C1560 H1546 0.960 . S
C1560 H1547 0.961 . S
C1560 H1548 0.959 . S
C1560 C1558 1.561 . S
C1561 C1558 1.526 . S
C1561 C1562 1.396 . S
C1561 C1566 1.390 . S
C1562 C1556 1.465 . S
C1562 C1561 1.396 . S
C1562 C1563 1.399 . S
C1563 H1549 0.929 . S
C1563 C1562 1.399 . S
C1563 C1564 1.385 . S
C1564 H1550 0.931 . S
C1564 C1563 1.385 . S
C1564 C1565 1.389 . S
C1565 C1564 1.389 . S
C1565 C1566 1.387 . S
C1566 H1551 0.930 . S
C1566 C1561 1.390 . S
C1566 C1565 1.387 . S
H1567 C1579 0.930 . S
H1568 C1581 0.930 . S
H1569 C1582 0.930 . S
H1570 C1586 0.959 . S
H1571 C1586 0.959 . S
H1572 C1586 0.961 . S
H1573 C1587 0.960 . S
H1574 C1587 0.961 . S
H1575 C1587 0.959 . S
H1576 C1590 0.929 . S
H1577 C1591 0.931 . S
H1578 C1593 0.930 . S
C1579 H1567 0.930 . S
C1579 C1580 1.399 . S
C1579 C1584 1.399 . S
C1580 C1579 1.399 . S
C1580 C1581 1.376 . S
C1581 H1568 0.930 . S
C1581 C1580 1.376 . S
C1581 C1582 1.388 . S
C1582 H1569 0.930 . S
C1582 C1581 1.388 . S
C1582 C1583 1.390 . S
C1583 C1582 1.390 . S
C1583 C1584 1.394 . S
C1583 C1589 1.465 . S
C1584 C1579 1.399 . S
C1584 C1583 1.394 . S
C1584 C1585 1.516 . S
C1585 C1584 1.516 . S
C1585 C1586 1.502 . S
C1585 C1587 1.561 . S
C1585 C1588 1.526 . S
C1586 H1570 0.959 . S
C1586 H1571 0.959 . S
C1586 H1572 0.961 . S
C1586 C1585 1.502 . S
C1587 H1573 0.960 . S
C1587 H1574 0.961 . S
C1587 H1575 0.959 . S
C1587 C1585 1.561 . S
C1588 C1585 1.526 . S
C1588 C1589 1.396 . S
C1588 C1593 1.390 . S
C1589 C1583 1.465 . S
C1589 C1588 1.396 . S
C1589 C1590 1.399 . S
C1590 H1576 0.929 . S
C1590 C1589 1.399 . S
C1590 C1591 1.385 . S
C1591 H1577 0.931 . S
C1591 C1590 1.385 . S
C1591 C1592 1.389 . S
C1592 C1591 1.389 . S
C1592 C1593 1.387 . S
C1593 H1578 0.930 . S
C1593 C1588 1.390 . S
C1593 C1592 1.387 . S
H1594 C1606 0.930 . S
H1595 C1608 0.930 . S
H1596 C1609 0.930 . S
H1597 C1613 0.959 . S
H1598 C1613 0.959 . S
H1599 C1613 0.961 . S
H1600 C1614 0.960 1_565 S
H1601 C1614 0.961 . S
H1602 C1614 0.959 . S
H1603 C1617 0.929 . S
H1604 C1618 0.931 . S
H1605 C1620 0.930 . S
C1606 H1594 0.930 . S
C1606 C1607 1.399 . S
C1606 C1611 1.399 . S
C1607 C1606 1.399 . S
C1607 C1608 1.376 . S
C1608 H1595 0.930 . S
C1608 C1607 1.376 . S
C1608 C1609 1.388 . S
C1609 H1596 0.930 . S
C1609 C1608 1.388 . S
C1609 C1610 1.390 . S
C1610 C1609 1.390 . S
C1610 C1611 1.394 . S
C1610 C1616 1.465 1_565 S
C1611 C1606 1.399 . S
C1611 C1610 1.394 . S
C1611 C1612 1.516 . S
C1612 C1611 1.516 . S
C1612 C1613 1.502 . S
C1612 C1614 1.561 1_565 S
C1612 C1615 1.526 1_565 S
C1613 H1597 0.959 . S
C1613 H1598 0.959 . S
C1613 H1599 0.961 . S
C1613 C1612 1.502 . S
C1614 H1600 0.960 1_545 S
C1614 H1601 0.961 . S
C1614 H1602 0.959 . S
C1614 C1612 1.561 1_545 S
C1615 C1612 1.526 1_545 S
C1615 C1616 1.396 . S
C1615 C1620 1.390 . S
C1616 C1610 1.465 1_545 S
C1616 C1615 1.396 . S
C1616 C1617 1.399 . S
C1617 H1603 0.929 . S
C1617 C1616 1.399 . S
C1617 C1618 1.385 . S
C1618 H1604 0.931 . S
C1618 C1617 1.385 . S
C1618 C1619 1.389 . S
C1619 C1618 1.389 . S
C1619 C1620 1.387 . S
C1620 H1605 0.930 . S
C1620 C1615 1.390 . S
C1620 C1619 1.387 . S
H1621 C1633 0.930 . S
H1622 C1635 0.930 . S
H1623 C1636 0.930 . S
H1624 C1640 0.959 . S
H1625 C1640 0.959 . S
H1626 C1640 0.961 . S
H1627 C1641 0.960 . S
H1628 C1641 0.961 1_455 S
H1629 C1641 0.959 . S
H1630 C1644 0.929 . S
H1631 C1645 0.931 . S
H1632 C1647 0.930 . S
C1633 H1621 0.930 . S
C1633 C1634 1.399 . S
C1633 C1638 1.399 . S
C1634 C1633 1.399 . S
C1634 C1635 1.376 . S
C1635 H1622 0.930 . S
C1635 C1634 1.376 . S
C1635 C1636 1.388 . S
C1636 H1623 0.930 . S
C1636 C1635 1.388 . S
C1636 C1637 1.390 . S
C1637 C1636 1.390 . S
C1637 C1638 1.394 . S
C1637 C1643 1.465 1_655 S
C1638 C1633 1.399 . S
C1638 C1637 1.394 . S
C1638 C1639 1.516 1_655 S
C1639 C1638 1.516 1_455 S
C1639 C1640 1.502 . S
C1639 C1641 1.561 1_455 S
C1639 C1642 1.526 . S
C1640 H1624 0.959 . S
C1640 H1625 0.959 . S
C1640 H1626 0.961 . S
C1640 C1639 1.502 . S
C1641 H1627 0.960 . S
C1641 H1628 0.961 1_655 S
C1641 H1629 0.959 . S
C1641 C1639 1.561 1_655 S
C1642 C1639 1.526 . S
C1642 C1643 1.396 . S
C1642 C1647 1.390 . S
C1643 C1637 1.465 1_455 S
C1643 C1642 1.396 . S
C1643 C1644 1.399 . S
C1644 H1630 0.929 . S
C1644 C1643 1.399 . S
C1644 C1645 1.385 . S
C1645 H1631 0.931 . S
C1645 C1644 1.385 . S
C1645 C1646 1.389 . S
C1646 C1645 1.389 . S
C1646 C1647 1.387 . S
C1647 H1632 0.930 . S
C1647 C1642 1.390 . S
C1647 C1646 1.387 . S
C365 C247 1.432 . S
C377 C9 1.414 . S
C392 C28 1.434 . S
C404 C182 1.481 . S
C419 C49 1.388 . S
C431 C207 1.423 . S
C446 C227 1.463 . S
C458 C73 1.462 . S
C473 C93 1.476 . S
C485 C119 1.479 . S
C500 C116 1.439 1_556 S
C512 C138 1.481 . S
C527 C159 1.427 . S
C539 C141 1.405 . S
C554 C95 1.460 . S
C566 C161 1.388 . S
C581 C185 1.458 . S
C593 C71 1.481 . S
C608 C204 1.457 . S
C620 C6 1.476 . S
C635 C31 1.431 . S
C647 C225 1.413 . S
C662 C249 1.454 . S
C674 C51 1.478 . S
C689 C269 1.461 . S
C701 C295 1.481 . S
C716 C314 1.438 . S
C728 C292 1.448 . S
C743 C335 1.465 . S
C755 C317 1.415 . S
C770 C337 1.438 . S
C782 C271 1.432 . S
C797 C4 1.479 . S
C809 C312 1.445 . S
C824 C30 1.480 . S
C836 C334 1.452 . S
C851 C52 1.482 . S
C863 C272 1.460 . S
C878 C70 1.400 . S
C890 C294 1.444 . S
C905 C96 1.481 . S
C917 C228 1.452 . S
C932 C118 1.483 . S
C944 C246 1.436 . S
C959 C136 1.400 . S
C971 C180 1.423 . S
C986 C158 1.481 . S
C998 C206 1.428 . S
C1013 C5 1.155 . S
C1025 C251 1.127 . S
C1040 C29 1.139 . S
C1052 C183 1.191 . S
C1067 C203 1.192 . S
C1079 C53 1.169 . S
C1094 C72 1.100 . S
C1106 C226 1.128 . S
C1121 C97 1.113 . S
C1133 C115 1.106 . S
C1148 C117 1.154 . S
C1160 C139 1.194 . S
C1175 C163 1.115 . S
C1187 C137 1.099 . S
C1202 C94 1.182 . S
C1214 C160 1.122 . S
C1229 C75 1.106 . S
C1241 C181 1.106 . S
C1256 C205 1.104 . S
C1268 C7 1.122 . S
C1283 C229 1.185 . S
C1295 C27 1.161 . S
C1310 C50 1.122 . S
C1322 C248 1.104 . S
C1337 C273 1.187 . S
C1349 C291 1.164 . S
C1364 C293 1.148 . S
C1376 C315 1.193 . S
C1391 C339 1.161 . S
C1403 C313 1.184 . S
C1418 C270 1.188 . S
C1430 C336 1.178 . S
C1445 C8 1.699 . S
C1457 C48 1.696 . S
C1472 C74 1.696 . S
C1484 C26 1.696 . S
C1499 C92 1.701 . S
C1511 C140 1.696 . S
C1526 C114 1.714 . S
C1538 C162 1.713 . S
C1553 C184 1.696 . S
C1565 C224 1.700 . S
C1580 C250 1.697 . S
C1592 C202 1.699 . S
C1607 C268 1.709 . S
C1619 C316 1.714 . S
C1634 C290 1.713 . S
C1646 C338 1.712 . S
