# Generated by pormake.
# Topology uoy, (4)-cn, num edge types: 1
# Building blocks:
#     Node 0, Type 0, BuildingBlock: GALJAG_clean_sbu_0, # of connection points: 4
#     Node 1, Type 0, BuildingBlock: GALJAG_clean_sbu_0, # of connection points: 4
#     Node 2, Type 0, BuildingBlock: GALJAG_clean_sbu_0, # of connection points: 4
#     Node 3, Type 0, BuildingBlock: GALJAG_clean_sbu_0, # of connection points: 4
#     Node 4, Type 0, BuildingBlock: GALJAG_clean_sbu_0, # of connection points: 4
#     Node 5, Type 0, BuildingBlock: GALJAG_clean_sbu_0, # of connection points: 4
#     Node 6, Type 0, BuildingBlock: GALJAG_clean_sbu_0, # of connection points: 4
#     Node 7, Type 0, BuildingBlock: GALJAG_clean_sbu_0, # of connection points: 4
#     Node 8, Type 0, BuildingBlock: GALJAG_clean_sbu_0, # of connection points: 4
#     Node 9, Type 0, BuildingBlock: GALJAG_clean_sbu_0, # of connection points: 4
#     Node 10, Type 0, BuildingBlock: GALJAG_clean_sbu_0, # of connection points: 4
#     Node 11, Type 0, BuildingBlock: GALJAG_clean_sbu_0, # of connection points: 4
#     Node 12, Type 0, BuildingBlock: GALJAG_clean_sbu_0, # of connection points: 4
#     Node 13, Type 0, BuildingBlock: GALJAG_clean_sbu_0, # of connection points: 4
#     Node 14, Type 0, BuildingBlock: GALJAG_clean_sbu_0, # of connection points: 4
#     Node 15, Type 0, BuildingBlock: GALJAG_clean_sbu_0, # of connection points: 4
#     Edge 16, Type (0, 0), BuildingBlock: TEMPAE_clean_linker_10, # of connection points: 2
#     Edge 17, Type (0, 0), BuildingBlock: TEMPAE_clean_linker_10, # of connection points: 2
#     Edge 18, Type (0, 0), BuildingBlock: TEMPAE_clean_linker_10, # of connection points: 2
#     Edge 19, Type (0, 0), BuildingBlock: TEMPAE_clean_linker_10, # of connection points: 2
#     Edge 20, Type (0, 0), BuildingBlock: TEMPAE_clean_linker_10, # of connection points: 2
#     Edge 21, Type (0, 0), BuildingBlock: TEMPAE_clean_linker_10, # of connection points: 2
#     Edge 22, Type (0, 0), BuildingBlock: TEMPAE_clean_linker_10, # of connection points: 2
#     Edge 23, Type (0, 0), BuildingBlock: TEMPAE_clean_linker_10, # of connection points: 2
#     Edge 24, Type (0, 0), BuildingBlock: TEMPAE_clean_linker_10, # of connection points: 2
#     Edge 25, Type (0, 0), BuildingBlock: TEMPAE_clean_linker_10, # of connection points: 2
#     Edge 26, Type (0, 0), BuildingBlock: TEMPAE_clean_linker_10, # of connection points: 2
#     Edge 27, Type (0, 0), BuildingBlock: TEMPAE_clean_linker_10, # of connection points: 2
#     Edge 28, Type (0, 0), BuildingBlock: TEMPAE_clean_linker_10, # of connection points: 2
#     Edge 29, Type (0, 0), BuildingBlock: TEMPAE_clean_linker_10, # of connection points: 2
#     Edge 30, Type (0, 0), BuildingBlock: TEMPAE_clean_linker_10, # of connection points: 2
#     Edge 31, Type (0, 0), BuildingBlock: TEMPAE_clean_linker_10, # of connection points: 2
#     Edge 32, Type (0, 0), BuildingBlock: TEMPAE_clean_linker_10, # of connection points: 2
#     Edge 33, Type (0, 0), BuildingBlock: TEMPAE_clean_linker_10, # of connection points: 2
#     Edge 34, Type (0, 0), BuildingBlock: TEMPAE_clean_linker_10, # of connection points: 2
#     Edge 35, Type (0, 0), BuildingBlock: TEMPAE_clean_linker_10, # of connection points: 2
#     Edge 36, Type (0, 0), BuildingBlock: TEMPAE_clean_linker_10, # of connection points: 2
#     Edge 37, Type (0, 0), BuildingBlock: TEMPAE_clean_linker_10, # of connection points: 2
#     Edge 38, Type (0, 0), BuildingBlock: TEMPAE_clean_linker_10, # of connection points: 2
#     Edge 39, Type (0, 0), BuildingBlock: TEMPAE_clean_linker_10, # of connection points: 2
#     Edge 40, Type (0, 0), BuildingBlock: TEMPAE_clean_linker_10, # of connection points: 2
#     Edge 41, Type (0, 0), BuildingBlock: TEMPAE_clean_linker_10, # of connection points: 2
#     Edge 42, Type (0, 0), BuildingBlock: TEMPAE_clean_linker_10, # of connection points: 2
#     Edge 43, Type (0, 0), BuildingBlock: TEMPAE_clean_linker_10, # of connection points: 2
#     Edge 44, Type (0, 0), BuildingBlock: TEMPAE_clean_linker_10, # of connection points: 2
#     Edge 45, Type (0, 0), BuildingBlock: TEMPAE_clean_linker_10, # of connection points: 2
#     Edge 46, Type (0, 0), BuildingBlock: TEMPAE_clean_linker_10, # of connection points: 2
#     Edge 47, Type (0, 0), BuildingBlock: TEMPAE_clean_linker_10, # of connection points: 2
# Relax obj value: 0.037
# Max RMSD: 0.056
# Mean RMSD: 0.056
data_MOF--net-uoy--node1-GALJAG_clean_sbu_0--edge1-TEMPAE_clean_linker_10
_symmetry_space_group_name_H-M    P1
_symmetry_Int_Tables_number       1
_symmetry_cell_setting            triclinic
loop_
_symmetry_equiv_pos_as_xyz
'x, y, z'
_cell_length_a     27.908204
_cell_length_b     27.918813
_cell_length_c     111.43074
_cell_angle_alpha  90.00189
_cell_angle_beta   89.99585
_cell_angle_gamma 89.979512
loop_
_atom_site_label
_atom_site_type_symbol
_atom_site_fract_x
_atom_site_fract_y
_atom_site_fract_z
_atom_type_partial_charge
In0 In 0.25345 0.11828 0.1855 0.0
O1 O 0.23826 0.18303 0.1736 0.0
O2 O 0.26582 0.11965 0.16541 0.0
C3 C 0.24967 0.15824 0.20764 0.0
C4 C 0.17076 0.06936 0.18347 0.0
C5 C 0.34199 0.07963 0.18531 0.0
O6 O 0.26193 0.182 0.19851 0.0
O7 O 0.23868 0.11544 0.20549 0.0
O8 O 0.30474 0.05448 0.18656 0.0
O9 O 0.33458 0.12394 0.1842 0.0
C10 C 0.2518 0.16235 0.16407 0.0
O11 O 0.20924 0.04964 0.1868 0.0
O12 O 0.17411 0.11335 0.18106 0.0
In13 In 0.878 0.75107 0.43606 0.0
O14 O 0.94468 0.70465 0.43916 0.0
O15 O 0.88344 0.67201 0.43137 0.0
C16 C 0.91964 0.83805 0.43511 0.0
C17 C 0.82739 0.7514 0.41551 0.0
C18 C 0.83944 0.75184 0.45827 0.0
O19 O 0.9401 0.80085 0.43115 0.0
O20 O 0.87855 0.83118 0.4395 0.0
O21 O 0.81424 0.75799 0.44898 0.0
O22 O 0.88319 0.74407 0.45626 0.0
C23 C 0.92582 0.66704 0.43503 0.0
O24 O 0.81114 0.73324 0.42507 0.0
O25 O 0.86847 0.76985 0.41641 0.0
In26 In 0.25132 0.38055 0.68583 0.0
O27 O 0.2567 0.31574 0.67344 0.0
O28 O 0.24593 0.38454 0.66555 0.0
C29 C 0.24986 0.34047 0.70794 0.0
C30 C 0.33839 0.4219 0.68482 0.0
C31 C 0.1645 0.42289 0.6855 0.0
O32 O 0.24596 0.31551 0.69854 0.0
O33 O 0.25505 0.38461 0.70608 0.0
O34 O 0.20264 0.44612 0.68731 0.0
O35 O 0.17018 0.37859 0.6838 0.0
C36 C 0.25139 0.34006 0.66394 0.0
O37 O 0.3007 0.44566 0.68678 0.0
O38 O 0.33215 0.37757 0.68336 0.0
In39 In 0.61984 0.75086 0.93532 0.0
O40 O 0.55473 0.8003 0.93413 0.0
O41 O 0.62205 0.83094 0.93885 0.0
C42 C 0.57678 0.66439 0.93366 0.0
C43 C 0.66964 0.75424 0.91453 0.0
C44 C 0.65437 0.7478 0.95783 0.0
O45 O 0.55522 0.70272 0.93099 0.0
O46 O 0.61942 0.66988 0.93706 0.0
O47 O 0.68126 0.75457 0.94884 0.0
O48 O 0.61038 0.74325 0.9554 0.0
C49 C 0.57802 0.83758 0.93687 0.0
O50 O 0.68752 0.73783 0.92408 0.0
O51 O 0.62735 0.76931 0.91554 0.0
In52 In 0.25167 0.38406 0.06396 0.0
O53 O 0.23275 0.31739 0.07492 0.0
O54 O 0.2759 0.371 0.08312 0.0
C55 C 0.24901 0.34097 0.04225 0.0
C56 C 0.16863 0.43387 0.06541 0.0
C57 C 0.33747 0.42892 0.06403 0.0
O58 O 0.26181 0.31899 0.05163 0.0
O59 O 0.23643 0.38379 0.04395 0.0
O60 O 0.30131 0.44588 0.06937 0.0
O61 O 0.3301 0.38994 0.05863 0.0
C62 C 0.25508 0.33114 0.08417 0.0
O63 O 0.20499 0.44985 0.06 0.0
O64 O 0.17446 0.39348 0.07022 0.0
In65 In 0.61751 0.74343 0.3139 0.0
O66 O 0.55291 0.69454 0.31715 0.0
O67 O 0.61715 0.6633 0.31053 0.0
C68 C 0.57774 0.83111 0.31501 0.0
C69 C 0.66239 0.73892 0.33523 0.0
C70 C 0.65459 0.75199 0.29169 0.0
O71 O 0.5537 0.79434 0.31224 0.0
O72 O 0.62147 0.8235 0.31716 0.0
O73 O 0.68097 0.75011 0.30091 0.0
O74 O 0.61025 0.74943 0.29377 0.0
C75 C 0.57437 0.65704 0.31378 0.0
O76 O 0.68417 0.73079 0.32548 0.0
O77 O 0.61847 0.74856 0.33414 0.0
In78 In 0.24746 0.11982 0.56375 0.0
O79 O 0.27954 0.17964 0.57549 0.0
O80 O 0.2127 0.15047 0.58059 0.0
C81 C 0.24316 0.15831 0.54162 0.0
C82 C 0.33156 0.07119 0.56475 0.0
C83 C 0.16492 0.0691 0.56332 0.0
O84 O 0.24266 0.18409 0.55097 0.0
O85 O 0.24619 0.11384 0.54354 0.0
O86 O 0.20286 0.05236 0.56791 0.0
O87 O 0.16906 0.11055 0.55898 0.0
C88 C 0.24577 0.17946 0.583 0.0
O89 O 0.29756 0.06262 0.57192 0.0
O90 O 0.32263 0.10319 0.55713 0.0
In91 In 0.88617 0.75134 0.81371 0.0
O92 O 0.81808 0.73947 0.82479 0.0
O93 O 0.88118 0.7632 0.83375 0.0
C94 C 0.85051 0.75244 0.79126 0.0
C95 C 0.92891 0.83756 0.81314 0.0
C96 C 0.92838 0.66474 0.81562 0.0
O97 O 0.82399 0.75871 0.80033 0.0
O98 O 0.89429 0.74643 0.7936 0.0
O99 O 0.94896 0.70267 0.81903 0.0
O100 O 0.88699 0.6707 0.81137 0.0
C101 C 0.83768 0.75153 0.83457 0.0
O102 O 0.95149 0.79934 0.81089 0.0
O103 O 0.88515 0.83214 0.81562 0.0
In104 In 0.75063 0.6178 0.68675 0.0
O105 O 0.70395 0.55059 0.68793 0.0
O106 O 0.67066 0.61605 0.68288 0.0
C107 C 0.8373 0.57505 0.68654 0.0
C108 C 0.74949 0.66057 0.66518 0.0
C109 C 0.75117 0.66143 0.70846 0.0
O110 O 0.79927 0.55232 0.68882 0.0
O111 O 0.83162 0.61902 0.6844 0.0
O112 O 0.7616 0.68353 0.69894 0.0
O113 O 0.73988 0.61828 0.70693 0.0
C114 C 0.6659 0.57198 0.68498 0.0
O115 O 0.73556 0.68164 0.67461 0.0
O116 O 0.76388 0.61807 0.66666 0.0
In117 In 0.38248 0.25052 0.93635 0.0
O118 O 0.31463 0.26562 0.92527 0.0
O119 O 0.37036 0.22562 0.91715 0.0
C120 C 0.34917 0.25395 0.95899 0.0
C121 C 0.42892 0.16624 0.938 0.0
C122 C 0.42452 0.3373 0.93409 0.0
O123 O 0.32271 0.2422 0.95025 0.0
O124 O 0.39213 0.26315 0.95627 0.0
O125 O 0.44657 0.29894 0.93171 0.0
O126 O 0.38187 0.33168 0.93747 0.0
C127 C 0.32963 0.24433 0.91603 0.0
O128 O 0.44875 0.20345 0.93385 0.0
O129 O 0.38612 0.17177 0.94138 0.0
In130 In 0.7542 0.88366 0.186 0.0
O131 O 0.73993 0.81793 0.17441 0.0
O132 O 0.76806 0.88055 0.16596 0.0
C133 C 0.74933 0.84644 0.20839 0.0
C134 C 0.84308 0.92068 0.18543 0.0
C135 C 0.67072 0.93191 0.18393 0.0
O136 O 0.75341 0.82011 0.19923 0.0
O137 O 0.74802 0.89057 0.20617 0.0
O138 O 0.70893 0.95198 0.18729 0.0
O139 O 0.6748 0.88809 0.18148 0.0
C140 C 0.75392 0.83781 0.16482 0.0
O141 O 0.80608 0.94666 0.18596 0.0
O142 O 0.8353 0.87617 0.18522 0.0
In143 In 0.11546 0.25134 0.43576 0.0
O144 O 0.0519 0.30197 0.4381 0.0
O145 O 0.11983 0.33206 0.43368 0.0
C146 C 0.07198 0.16514 0.43465 0.0
C147 C 0.16163 0.24951 0.41455 0.0
C148 C 0.15112 0.25234 0.45822 0.0
O149 O 0.05126 0.20313 0.43133 0.0
O150 O 0.11413 0.17082 0.43843 0.0
O151 O 0.17813 0.25364 0.4491 0.0
O152 O 0.1069 0.25136 0.4559 0.0
C153 C 0.07608 0.33925 0.43591 0.0
O154 O 0.18303 0.24127 0.42435 0.0
O155 O 0.1175 0.25837 0.41554 0.0
In156 In 0.74795 0.87928 0.56468 0.0
O157 O 0.69877 0.94473 0.56725 0.0
O158 O 0.66666 0.87708 0.56401 0.0
C159 C 0.83615 0.91887 0.56466 0.0
C160 C 0.75057 0.82821 0.58523 0.0
C161 C 0.74975 0.8469 0.54194 0.0
O162 O 0.79906 0.94263 0.56738 0.0
O163 O 0.82853 0.87563 0.56197 0.0
O164 O 0.75099 0.81901 0.55087 0.0
O165 O 0.74707 0.89088 0.54452 0.0
C166 C 0.66053 0.92109 0.56594 0.0
O167 O 0.73717 0.81011 0.57542 0.0
O168 O 0.76265 0.87159 0.58464 0.0
In169 In 0.12259 0.25094 0.81396 0.0
O170 O 0.05803 0.2022 0.81101 0.0
O171 O 0.1245 0.17015 0.81597 0.0
C172 C 0.08104 0.33794 0.81564 0.0
C173 C 0.16801 0.24976 0.83524 0.0
C174 C 0.15855 0.24996 0.79152 0.0
O175 O 0.05938 0.30002 0.8186 0.0
O176 O 0.12318 0.33178 0.81188 0.0
O177 O 0.18542 0.24723 0.80065 0.0
O178 O 0.1144 0.25262 0.79382 0.0
C179 C 0.08092 0.16426 0.81335 0.0
O180 O 0.18991 0.25885 0.82556 0.0
O181 O 0.12383 0.24153 0.8341 0.0
In182 In 0.75218 0.6235 0.06368 0.0
O183 O 0.74213 0.69152 0.07486 0.0
O184 O 0.76025 0.62683 0.08391 0.0
C185 C 0.75277 0.65936 0.04123 0.0
C186 C 0.84033 0.58421 0.0637 0.0
C187 C 0.66548 0.58048 0.06476 0.0
O188 O 0.75286 0.68615 0.05038 0.0
O189 O 0.75345 0.61509 0.04348 0.0
O190 O 0.7035 0.55903 0.06777 0.0
O191 O 0.67145 0.62303 0.06133 0.0
C192 C 0.75107 0.67093 0.08471 0.0
O193 O 0.80297 0.55968 0.06183 0.0
O194 O 0.83309 0.62827 0.06547 0.0
In195 In 0.38139 0.24267 0.31422 0.0
O196 O 0.314 0.22613 0.3252 0.0
O197 O 0.36825 0.26912 0.33319 0.0
C198 C 0.34345 0.23222 0.29208 0.0
C199 C 0.42481 0.32875 0.3134 0.0
C200 C 0.43113 0.16046 0.31711 0.0
O201 O 0.31909 0.24833 0.30076 0.0
O202 O 0.386 0.22134 0.29468 0.0
O203 O 0.44882 0.19678 0.31203 0.0
O204 O 0.38906 0.16604 0.32096 0.0
C205 C 0.32808 0.24902 0.33433 0.0
O206 O 0.44294 0.29331 0.31879 0.0
O207 O 0.38518 0.32056 0.30836 0.0
C208 C 0.22191 0.26755 0.0976 0.0
C209 C 0.25542 0.30399 0.09554 0.0
C210 C 0.22025 0.24357 0.10867 0.0
C211 C 0.25346 0.25584 0.11778 0.0
C212 C 0.28803 0.29192 0.11562 0.0
C213 C 0.28831 0.31585 0.10456 0.0
C214 C 0.18249 0.20571 0.1107 0.0
C215 C 0.32458 0.30541 0.12503 0.0
C216 C 0.22558 0.22839 0.15043 0.0
C217 C 0.25157 0.18607 0.15223 0.0
C218 C 0.2251 0.251 0.13918 0.0
C219 C 0.252 0.23123 0.1296 0.0
C220 C 0.27843 0.18856 0.1314 0.0
C221 C 0.27755 0.16626 0.14268 0.0
C222 C 0.1959 0.29607 0.13754 0.0
C223 C 0.30823 0.16688 0.12147 0.0
H224 H 0.19624 0.25853 0.09065 0.0
H225 H 0.31441 0.3439 0.10298 0.0
H226 H 0.19967 0.17108 0.11299 0.0
H227 H 0.15953 0.21598 0.11842 0.0
H228 H 0.15932 0.20039 0.1027 0.0
H229 H 0.35006 0.3331 0.12179 0.0
H230 H 0.3062 0.3193 0.13314 0.0
H231 H 0.34526 0.2733 0.12779 0.0
H232 H 0.20524 0.24361 0.15779 0.0
H233 H 0.29787 0.13362 0.14406 0.0
H234 H 0.17028 0.29142 0.13001 0.0
H235 H 0.21979 0.32637 0.13517 0.0
H236 H 0.17548 0.30576 0.14575 0.0
H237 H 0.28526 0.15862 0.11362 0.0
H238 H 0.32663 0.13349 0.12434 0.0
H239 H 0.33567 0.19298 0.11845 0.0
C240 C 0.81453 0.78084 0.39467 0.0
C241 C 0.80164 0.74958 0.40396 0.0
C242 C 0.79171 0.77869 0.38348 0.0
C243 C 0.75594 0.74368 0.38146 0.0
C244 C 0.74298 0.71179 0.3908 0.0
C245 C 0.76565 0.71551 0.40201 0.0
C246 C 0.8057 0.81407 0.37384 0.0
C247 C 0.70562 0.67344 0.38889 0.0
C248 C 0.66618 0.76531 0.35651 0.0
C249 C 0.68628 0.73913 0.34703 0.0
C250 C 0.68858 0.76718 0.36775 0.0
C251 C 0.73146 0.74119 0.36963 0.0
C252 C 0.75145 0.71391 0.36015 0.0
C253 C 0.72892 0.71375 0.34887 0.0
C254 C 0.66683 0.79767 0.37754 0.0
C255 C 0.79657 0.68491 0.36192 0.0
H256 H 0.84229 0.80731 0.39618 0.0
H257 H 0.75599 0.69101 0.40916 0.0
H258 H 0.81963 0.79476 0.36587 0.0
H259 H 0.77375 0.83463 0.3709 0.0
H260 H 0.83348 0.83972 0.37695 0.0
H261 H 0.70067 0.65058 0.39696 0.0
H262 H 0.67072 0.69009 0.38659 0.0
H263 H 0.71605 0.65029 0.38123 0.0
H264 H 0.63335 0.78527 0.35505 0.0
H265 H 0.74428 0.69328 0.34155 0.0
H266 H 0.69298 0.82521 0.38047 0.0
H267 H 0.65834 0.77525 0.38547 0.0
H268 H 0.63354 0.816 0.37457 0.0
H269 H 0.82689 0.70899 0.36414 0.0
H270 H 0.80618 0.66382 0.35381 0.0
H271 H 0.79199 0.65995 0.36958 0.0
C272 C 0.28764 0.2322 0.59783 0.0
C273 C 0.24617 0.20793 0.59418 0.0
C274 C 0.28957 0.25557 0.60899 0.0
C275 C 0.24891 0.2549 0.6166 0.0
C276 C 0.20649 0.23168 0.61278 0.0
C277 C 0.20571 0.20832 0.60164 0.0
C278 C 0.33548 0.27981 0.61278 0.0
C279 C 0.16222 0.23062 0.62058 0.0
C280 C 0.26443 0.27031 0.65025 0.0
C281 C 0.25151 0.3184 0.65184 0.0
C282 C 0.26459 0.24944 0.63879 0.0
C283 C 0.25099 0.27722 0.62871 0.0
C284 C 0.23803 0.32584 0.63026 0.0
C285 C 0.23869 0.34591 0.64181 0.0
C286 C 0.279 0.19756 0.63747 0.0
C287 C 0.22283 0.35645 0.61976 0.0
H288 H 0.31905 0.23183 0.59211 0.0
H289 H 0.1735 0.1897 0.59885 0.0
H290 H 0.32846 0.31778 0.61513 0.0
H291 H 0.34988 0.26211 0.62093 0.0
H292 H 0.36329 0.27861 0.60565 0.0
H293 H 0.13145 0.213 0.61605 0.0
H294 H 0.16998 0.21105 0.62902 0.0
H295 H 0.15161 0.26759 0.62308 0.0
H296 H 0.27459 0.24898 0.65797 0.0
H297 H 0.22858 0.38311 0.64299 0.0
H298 H 0.30901 0.19433 0.63099 0.0
H299 H 0.24857 0.17654 0.63383 0.0
H300 H 0.29022 0.1814 0.64614 0.0
H301 H 0.25152 0.3571 0.61287 0.0
H302 H 0.21465 0.39387 0.62246 0.0
H303 H 0.19051 0.34082 0.61548 0.0
C304 C 0.82921 0.7812 0.8555 0.0
C305 C 0.81218 0.75227 0.84615 0.0
C306 C 0.80604 0.78222 0.86665 0.0
C307 C 0.76564 0.75261 0.86859 0.0
C308 C 0.74849 0.723 0.85919 0.0
C309 C 0.77165 0.72368 0.848 0.0
C310 C 0.82463 0.81521 0.87633 0.0
C311 C 0.70609 0.69023 0.86102 0.0
C312 C 0.73433 0.72416 0.90099 0.0
C313 C 0.6952 0.7546 0.90294 0.0
C314 C 0.7572 0.72259 0.88978 0.0
C315 C 0.74116 0.75301 0.88043 0.0
C316 C 0.70217 0.78442 0.88244 0.0
C317 C 0.6793 0.78442 0.89364 0.0
C318 C 0.79813 0.68802 0.88788 0.0
C319 C 0.68477 0.8182 0.87279 0.0
H320 H 0.8604 0.8036 0.85403 0.0
H321 H 0.75871 0.70105 0.84079 0.0
H322 H 0.79574 0.83984 0.8793 0.0
H323 H 0.83579 0.79404 0.88428 0.0
H324 H 0.85564 0.83693 0.87326 0.0
H325 H 0.698 0.66857 0.8529 0.0
H326 H 0.71315 0.66557 0.86863 0.0
H327 H 0.67388 0.71154 0.86337 0.0
H328 H 0.74638 0.70079 0.90815 0.0
H329 H 0.64912 0.80813 0.89516 0.0
H330 H 0.83122 0.70796 0.88555 0.0
H331 H 0.78997 0.66389 0.88024 0.0
H332 H 0.80534 0.66584 0.89596 0.0
H333 H 0.71457 0.8417 0.86983 0.0
H334 H 0.65466 0.84109 0.8759 0.0
H335 H 0.67272 0.79757 0.86484 0.0
C336 C 0.72252 0.76082 0.59818 0.0
C337 C 0.75137 0.80138 0.59662 0.0
C338 C 0.72124 0.7367 0.60923 0.0
C339 C 0.75045 0.75293 0.6188 0.0
C340 C 0.78055 0.79319 0.61714 0.0
C341 C 0.78017 0.81731 0.60611 0.0
C342 C 0.68795 0.69452 0.61075 0.0
C343 C 0.81305 0.81087 0.62703 0.0
C344 C 0.71903 0.72289 0.65107 0.0
C345 C 0.74914 0.68376 0.6533 0.0
C346 C 0.71821 0.74501 0.63977 0.0
C347 C 0.74919 0.7283 0.63061 0.0
C348 C 0.77988 0.68893 0.63285 0.0
C349 C 0.77903 0.66671 0.64414 0.0
C350 C 0.68424 0.78625 0.63763 0.0
C351 C 0.81424 0.67086 0.62341 0.0
H352 H 0.7 0.74871 0.59086 0.0
H353 H 0.80274 0.84853 0.60488 0.0
H354 H 0.70864 0.66218 0.61332 0.0
H355 H 0.66221 0.70183 0.61812 0.0
H356 H 0.66745 0.68653 0.60245 0.0
H357 H 0.8359 0.84128 0.6241 0.0
H358 H 0.79134 0.82264 0.63483 0.0
H359 H 0.8366 0.78137 0.63016 0.0
H360 H 0.69563 0.73583 0.65813 0.0
H361 H 0.80254 0.63658 0.64588 0.0
H362 H 0.66134 0.77868 0.62971 0.0
H363 H 0.70484 0.81926 0.63562 0.0
H364 H 0.66077 0.79326 0.64549 0.0
H365 H 0.79426 0.6599 0.61526 0.0
H366 H 0.83578 0.63991 0.6266 0.0
H367 H 0.83904 0.70003 0.62073 0.0
C368 C 0.26831 0.27796 0.90205 0.0
C369 C 0.30331 0.24342 0.90456 0.0
C370 C 0.24598 0.27968 0.89076 0.0
C371 C 0.25826 0.24533 0.88192 0.0
C372 C 0.29265 0.20957 0.88455 0.0
C373 C 0.31518 0.20941 0.8958 0.0
C374 C 0.21004 0.3188 0.88821 0.0
C375 C 0.30583 0.17163 0.87547 0.0
C376 C 0.16994 0.22396 0.85661 0.0
C377 C 0.19172 0.24841 0.84707 0.0
C378 C 0.19141 0.22234 0.86798 0.0
C379 C 0.23518 0.24671 0.86991 0.0
C380 C 0.25715 0.27184 0.86032 0.0
C381 C 0.23539 0.2719 0.84895 0.0
C382 C 0.16748 0.19422 0.87788 0.0
C383 C 0.30339 0.29897 0.86211 0.0
H384 H 0.25942 0.30454 0.90879 0.0
H385 H 0.34214 0.18254 0.89775 0.0
H386 H 0.22224 0.34053 0.88045 0.0
H387 H 0.17498 0.30292 0.88574 0.0
H388 H 0.20471 0.34295 0.89602 0.0
H389 H 0.33184 0.14523 0.8791 0.0
H390 H 0.27321 0.1522 0.87252 0.0
H391 H 0.32172 0.18862 0.8674 0.0
H392 H 0.13627 0.2055 0.85515 0.0
H393 H 0.25208 0.29107 0.8416 0.0
H394 H 0.15877 0.21823 0.88551 0.0
H395 H 0.19231 0.16635 0.88131 0.0
H396 H 0.13397 0.17653 0.87484 0.0
H397 H 0.29903 0.32567 0.86941 0.0
H398 H 0.31506 0.31789 0.85384 0.0
H399 H 0.33221 0.27397 0.8649 0.0
C400 C 0.72453 0.73809 0.09795 0.0
C401 C 0.75137 0.6962 0.09632 0.0
C402 C 0.72368 0.76144 0.10911 0.0
C403 C 0.75147 0.74313 0.11872 0.0
C404 C 0.77932 0.7013 0.11702 0.0
C405 C 0.77837 0.67794 0.10589 0.0
C406 C 0.69265 0.8053 0.11068 0.0
C407 C 0.81042 0.68142 0.12693 0.0
C408 C 0.78437 0.82831 0.14396 0.0
C409 C 0.75336 0.81335 0.1531 0.0
C410 C 0.78441 0.80549 0.13274 0.0
C411 C 0.75167 0.76778 0.13054 0.0
C412 C 0.71975 0.75304 0.13971 0.0
C413 C 0.72148 0.77559 0.15096 0.0
C414 C 0.8199 0.82131 0.12331 0.0
C415 C 0.68357 0.71374 0.1376 0.0
H416 H 0.7034 0.752 0.09057 0.0
H417 H 0.79943 0.6457 0.1046 0.0
H418 H 0.66699 0.79957 0.11815 0.0
H419 H 0.71513 0.83658 0.1131 0.0
H420 H 0.67213 0.81412 0.10242 0.0
H421 H 0.83113 0.64947 0.12402 0.0
H422 H 0.83594 0.70924 0.13005 0.0
H423 H 0.78794 0.67127 0.13473 0.0
H424 H 0.80923 0.85737 0.14564 0.0
H425 H 0.69721 0.76432 0.15802 0.0
H426 H 0.80066 0.83396 0.1152 0.0
H427 H 0.84254 0.79053 0.12055 0.0
H428 H 0.84361 0.85055 0.12654 0.0
H429 H 0.66089 0.72269 0.12973 0.0
H430 H 0.65997 0.70792 0.1455 0.0
H431 H 0.70225 0.67966 0.13553 0.0
C432 C 0.16472 0.27289 0.39302 0.0
C433 C 0.1859 0.24941 0.40279 0.0
C434 C 0.18695 0.27344 0.38174 0.0
C435 C 0.2309 0.24898 0.38014 0.0
C436 C 0.25221 0.22472 0.38995 0.0
C437 C 0.22969 0.22572 0.40122 0.0
C438 C 0.16367 0.30064 0.37157 0.0
C439 C 0.29863 0.19752 0.38852 0.0
C440 C 0.26649 0.21558 0.34828 0.0
C441 C 0.30132 0.25026 0.34575 0.0
C442 C 0.24347 0.21448 0.35949 0.0
C443 C 0.25493 0.24951 0.36823 0.0
C444 C 0.28927 0.28528 0.36558 0.0
C445 C 0.31242 0.2849 0.35442 0.0
C446 C 0.20758 0.17535 0.36206 0.0
C447 C 0.30167 0.32387 0.37456 0.0
H448 H 0.13096 0.29151 0.39423 0.0
H449 H 0.24593 0.2073 0.40876 0.0
H450 H 0.18861 0.3284 0.36814 0.0
H451 H 0.15579 0.276 0.36402 0.0
H452 H 0.12979 0.31835 0.37435 0.0
H453 H 0.30964 0.17921 0.39693 0.0
H454 H 0.29492 0.1703 0.38132 0.0
H455 H 0.32763 0.22235 0.38577 0.0
H456 H 0.25817 0.18852 0.34163 0.0
H457 H 0.33926 0.31186 0.35246 0.0
H458 H 0.17223 0.19125 0.36427 0.0
H459 H 0.21926 0.15436 0.37 0.0
H460 H 0.20306 0.15054 0.35435 0.0
H461 H 0.26881 0.34352 0.37725 0.0
H462 H 0.32799 0.35 0.37095 0.0
H463 H 0.31686 0.30747 0.38279 0.0
C464 C 0.23897 0.14722 0.22964 0.0
C465 C 0.25253 0.17678 0.22005 0.0
C466 C 0.24812 0.16052 0.24154 0.0
C467 C 0.27127 0.20459 0.24392 0.0
C468 C 0.28203 0.23611 0.23432 0.0
C469 C 0.27261 0.22176 0.22246 0.0
C470 C 0.23608 0.12581 0.25149 0.0
C471 C 0.30626 0.28363 0.23652 0.0
C472 C 0.27889 0.24339 0.27663 0.0
C473 C 0.32453 0.22652 0.27978 0.0
C474 C 0.2613 0.23773 0.26489 0.0
C475 C 0.28993 0.2143 0.25618 0.0
C476 C 0.33617 0.19762 0.25932 0.0
C477 C 0.35291 0.20409 0.27105 0.0
C478 C 0.212 0.25626 0.26182 0.0
C479 C 0.36773 0.17207 0.25034 0.0
H480 H 0.22302 0.11255 0.22783 0.0
H481 H 0.2829 0.24486 0.21508 0.0
H482 H 0.26967 0.11069 0.25524 0.0
H483 H 0.21719 0.14443 0.2589 0.0
H484 H 0.21333 0.09574 0.24831 0.0
H485 H 0.3057 0.30683 0.22842 0.0
H486 H 0.28872 0.30294 0.24403 0.0
H487 H 0.34414 0.27743 0.23912 0.0
H488 H 0.25697 0.261 0.28334 0.0
H489 H 0.38824 0.19101 0.27342 0.0
H490 H 0.1883 0.22594 0.25935 0.0
H491 H 0.21394 0.28039 0.25392 0.0
H492 H 0.19538 0.27604 0.2694 0.0
H493 H 0.3498 0.13886 0.24722 0.0
H494 H 0.40319 0.16231 0.25416 0.0
H495 H 0.37358 0.19506 0.24236 0.0
C496 C 0.77183 0.76567 0.47269 0.0
C497 C 0.82076 0.75799 0.47059 0.0
C498 C 0.75496 0.77636 0.48428 0.0
C499 C 0.78797 0.78014 0.49389 0.0
C500 C 0.83716 0.77082 0.49186 0.0
C501 C 0.85286 0.75952 0.48026 0.0
C502 C 0.70213 0.7852 0.48616 0.0
C503 C 0.87362 0.77494 0.50183 0.0
C504 C 0.76349 0.8626 0.52019 0.0
C505 C 0.75442 0.82982 0.52944 0.0
C506 C 0.77271 0.84691 0.50846 0.0
C507 C 0.77215 0.79725 0.50589 0.0
C508 C 0.76069 0.7641 0.51507 0.0
C509 C 0.75234 0.78078 0.52678 0.0
C510 C 0.78534 0.8834 0.49897 0.0
C511 C 0.75896 0.71096 0.51262 0.0
H512 H 0.74687 0.76432 0.46525 0.0
H513 H 0.89075 0.75362 0.4787 0.0
H514 H 0.68885 0.76407 0.49391 0.0
H515 H 0.69608 0.82355 0.48827 0.0
H516 H 0.68064 0.77579 0.4781 0.0
H517 H 0.91017 0.76447 0.49888 0.0
H518 H 0.87486 0.81244 0.50512 0.0
H519 H 0.86317 0.75199 0.50952 0.0
H520 H 0.76513 0.90056 0.5222 0.0
H521 H 0.74499 0.75533 0.53389 0.0
H522 H 0.76217 0.8787 0.49097 0.0
H523 H 0.82294 0.87796 0.49603 0.0
H524 H 0.78147 0.92077 0.50225 0.0
H525 H 0.73678 0.70354 0.50456 0.0
H526 H 0.74418 0.69052 0.52033 0.0
H527 H 0.79562 0.69758 0.51072 0.0
C528 C 0.24028 0.27163 0.72226 0.0
C529 C 0.24529 0.32093 0.72022 0.0
C530 C 0.23158 0.2539 0.73387 0.0
C531 C 0.22709 0.28638 0.74358 0.0
C532 C 0.23404 0.33597 0.74161 0.0
C533 C 0.24336 0.35255 0.72999 0.0
C534 C 0.22525 0.20071 0.73568 0.0
C535 C 0.22907 0.37193 0.75168 0.0
C536 C 0.14425 0.26075 0.76965 0.0
C537 C 0.1767 0.25328 0.77907 0.0
C538 C 0.16027 0.26924 0.75794 0.0
C539 C 0.21005 0.2698 0.75553 0.0
C540 C 0.243 0.25965 0.76486 0.0
C541 C 0.22592 0.25177 0.77658 0.0
C542 C 0.12388 0.28028 0.74828 0.0
C543 C 0.2963 0.25919 0.76259 0.0
H544 H 0.24211 0.24702 0.71474 0.0
H545 H 0.24738 0.3907 0.7285 0.0
H546 H 0.24642 0.18831 0.74351 0.0
H547 H 0.18706 0.19279 0.73758 0.0
H548 H 0.23629 0.17988 0.72764 0.0
H549 H 0.23854 0.40883 0.7488 0.0
H550 H 0.19154 0.37211 0.75498 0.0
H551 H 0.25234 0.36181 0.75933 0.0
H552 H 0.10612 0.26169 0.7715 0.0
H553 H 0.25114 0.24568 0.78382 0.0
H554 H 0.12987 0.25714 0.74034 0.0
H555 H 0.12807 0.318 0.74531 0.0
H556 H 0.08647 0.27514 0.75144 0.0
H557 H 0.30469 0.2379 0.75444 0.0
H558 H 0.31658 0.24419 0.7703 0.0
H559 H 0.30897 0.29627 0.76095 0.0
C560 C 0.74054 0.72655 0.02663 0.0
C561 C 0.7478 0.67765 0.02884 0.0
C562 C 0.72988 0.74308 0.01501 0.0
C563 C 0.72627 0.70981 0.00546 0.0
C564 C 0.73593 0.66076 0.00756 0.0
C565 C 0.74664 0.64531 0.01922 0.0
C566 C 0.72023 0.79571 0.01308 0.0
C567 C 0.73249 0.62411 0.99762 0.0
C568 C 0.64117 0.73208 0.97958 0.0
C569 C 0.67284 0.74282 0.9702 0.0
C570 C 0.65808 0.72307 0.9912 0.0
C571 C 0.70791 0.72506 0.99353 0.0
C572 C 0.73995 0.73782 0.98421 0.0
C573 C 0.72202 0.74642 0.97262 0.0
C574 C 0.6227 0.70946 0.00089 0.0
C575 C 0.79326 0.74067 0.98637 0.0
H576 H 0.74156 0.75171 0.03403 0.0
H577 H 0.7525 0.60748 0.02086 0.0
H578 H 0.7404 0.80906 0.00519 0.0
H579 H 0.68156 0.80116 0.01121 0.0
H580 H 0.73011 0.81754 0.02104 0.0
H581 H 0.74471 0.58807 0.00054 0.0
H582 H 0.69477 0.62128 0.99455 0.0
H583 H 0.75431 0.63543 0.9898 0.0
H584 H 0.60309 0.72942 0.97778 0.0
H585 H 0.74663 0.75493 0.9654 0.0
H586 H 0.62744 0.73275 0.00886 0.0
H587 H 0.62935 0.67202 0.00379 0.0
H588 H 0.58496 0.71234 0.9978 0.0
H589 H 0.8009 0.76302 0.99438 0.0
H590 H 0.81275 0.75582 0.97855 0.0
H591 H 0.80754 0.70431 0.98821 0.0
C592 C 0.24376 0.34921 0.02004 0.0
C593 C 0.25376 0.32057 0.03006 0.0
C594 C 0.25492 0.33362 0.00841 0.0
C595 C 0.27626 0.2881 0.00677 0.0
C596 C 0.28355 0.25772 0.01678 0.0
C597 C 0.27238 0.27443 0.02835 0.0
C598 C 0.24669 0.36721 0.99799 0.0
C599 C 0.30557 0.20866 0.01536 0.0
C600 C 0.28455 0.24476 0.97446 0.0
C601 C 0.33117 0.25898 0.97141 0.0
C602 C 0.26661 0.2522 0.98611 0.0
C603 C 0.29582 0.27498 0.99479 0.0
C604 C 0.34328 0.28833 0.9918 0.0
C605 C 0.36043 0.2799 0.98018 0.0
C606 C 0.2161 0.23685 0.98903 0.0
C607 C 0.37548 0.31312 0.00076 0.0
H608 H 0.22912 0.38483 0.0213 0.0
H609 H 0.27995 0.25204 0.03607 0.0
H610 H 0.28174 0.37901 0.99432 0.0
H611 H 0.22729 0.34861 0.99066 0.0
H612 H 0.22591 0.39948 0.00063 0.0
H613 H 0.30262 0.18703 0.02369 0.0
H614 H 0.28812 0.18891 0.00791 0.0
H615 H 0.34407 0.21239 0.01306 0.0
H616 H 0.2619 0.22832 0.96772 0.0
H617 H 0.39651 0.29097 0.97787 0.0
H618 H 0.19353 0.2689 0.99067 0.0
H619 H 0.21566 0.21511 0.99737 0.0
H620 H 0.19968 0.21563 0.98167 0.0
H621 H 0.35961 0.34807 0.00335 0.0
H622 H 0.41201 0.3196 0.99714 0.0
H623 H 0.37864 0.29129 0.00904 0.0
C624 C 0.64122 0.76491 0.26985 0.0
C625 C 0.67334 0.75862 0.2794 0.0
C626 C 0.65764 0.77471 0.25824 0.0
C627 C 0.70749 0.77793 0.25607 0.0
C628 C 0.74025 0.76964 0.26555 0.0
C629 C 0.72275 0.7603 0.27715 0.0
C630 C 0.62148 0.78368 0.2484 0.0
C631 C 0.79366 0.77229 0.26354 0.0
C632 C 0.74155 0.77857 0.22303 0.0
C633 C 0.74389 0.82788 0.22074 0.0
C634 C 0.73211 0.76144 0.23467 0.0
C635 C 0.72461 0.79448 0.24413 0.0
C636 C 0.72896 0.84419 0.24193 0.0
C637 C 0.73864 0.86023 0.23027 0.0
C638 C 0.7282 0.70816 0.23672 0.0
C639 C 0.72106 0.88066 0.25175 0.0
H640 H 0.60297 0.76348 0.27152 0.0
H641 H 0.74771 0.75514 0.28449 0.0
H642 H 0.62413 0.82141 0.24533 0.0
H643 H 0.62914 0.76049 0.24055 0.0
H644 H 0.58412 0.77693 0.2514 0.0
H645 H 0.81425 0.75978 0.27147 0.0
H646 H 0.80401 0.75036 0.25565 0.0
H647 H 0.80409 0.80983 0.26158 0.0
H648 H 0.74584 0.75343 0.2157 0.0
H649 H 0.74073 0.89841 0.22858 0.0
H650 H 0.69034 0.69861 0.23858 0.0
H651 H 0.74957 0.69741 0.24468 0.0
H652 H 0.74057 0.6872 0.22883 0.0
H653 H 0.68321 0.87926 0.25478 0.0
H654 H 0.72907 0.91775 0.24874 0.0
H655 H 0.74389 0.87232 0.25962 0.0
C656 C 0.21842 0.24794 0.47312 0.0
C657 C 0.16916 0.24832 0.47066 0.0
C658 C 0.23533 0.23909 0.4848 0.0
C659 C 0.20214 0.22989 0.49414 0.0
C660 C 0.15238 0.23234 0.49177 0.0
C661 C 0.13655 0.24176 0.48009 0.0
C662 C 0.28864 0.23748 0.48703 0.0
C663 C 0.11575 0.22241 0.50145 0.0
C664 C 0.23369 0.14607 0.51963 0.0
C665 C 0.23767 0.17771 0.52935 0.0
C666 C 0.22411 0.16289 0.50804 0.0
C667 C 0.21879 0.21269 0.50607 0.0
C668 C 0.225 0.24507 0.51573 0.0
C669 C 0.23413 0.22714 0.5273 0.0
C670 C 0.2174 0.12709 0.498 0.0
C671 C 0.22023 0.29843 0.51393 0.0
H672 H 0.24377 0.25328 0.46587 0.0
H673 H 0.09839 0.24222 0.47826 0.0
H674 H 0.29795 0.25856 0.49515 0.0
H675 H 0.29989 0.19995 0.4887 0.0
H676 H 0.3094 0.25154 0.47929 0.0
H677 H 0.07852 0.22904 0.49834 0.0
H678 H 0.1186 0.18448 0.50435 0.0
H679 H 0.12272 0.24509 0.50943 0.0
H680 H 0.23658 0.10782 0.52113 0.0
H681 H 0.23748 0.25176 0.53478 0.0
H682 H 0.24076 0.13628 0.49029 0.0
H683 H 0.17978 0.12833 0.49479 0.0
H684 H 0.22559 0.08987 0.50087 0.0
H685 H 0.24186 0.31018 0.50611 0.0
H686 H 0.23176 0.31894 0.52197 0.0
H687 H 0.18232 0.30748 0.51198 0.0
C688 C 0.74977 0.65326 0.73069 0.0
C689 C 0.75594 0.68248 0.72057 0.0
C690 C 0.76032 0.67016 0.74222 0.0
C691 C 0.77689 0.71769 0.7437 0.0
C692 C 0.78017 0.7484 0.73361 0.0
C693 C 0.76996 0.73029 0.72212 0.0
C694 C 0.7567 0.63607 0.75271 0.0
C695 C 0.79683 0.79957 0.73488 0.0
C696 C 0.784 0.75885 0.77618 0.0
C697 C 0.83202 0.74872 0.77887 0.0
C698 C 0.76589 0.75148 0.76454 0.0
C699 C 0.79639 0.73273 0.75553 0.0
C700 C 0.84525 0.72402 0.75813 0.0
C701 C 0.8625 0.73249 0.76973 0.0
C702 C 0.71385 0.76212 0.76201 0.0
C703 C 0.87889 0.70346 0.74883 0.0
H704 H 0.73867 0.61632 0.72956 0.0
H705 H 0.77441 0.75313 0.71434 0.0
H706 H 0.79312 0.62836 0.75622 0.0
H707 H 0.73582 0.6525 0.76011 0.0
H708 H 0.73953 0.6016 0.7502 0.0
H709 H 0.79032 0.82069 0.72659 0.0
H710 H 0.77838 0.81732 0.7425 0.0
H711 H 0.83581 0.80011 0.73682 0.0
H712 H 0.76041 0.77176 0.7832 0.0
H713 H 0.89969 0.72466 0.77175 0.0
H714 H 0.69405 0.72807 0.76071 0.0
H715 H 0.71026 0.78313 0.75361 0.0
H716 H 0.69666 0.7823 0.76945 0.0
H717 H 0.86672 0.66707 0.74624 0.0
H718 H 0.91635 0.70093 0.75214 0.0
H719 H 0.87856 0.72586 0.74062 0.0
C720 C 0.08951 0.0579 0.17477 0.0
C721 C 0.12468 0.04386 0.18301 0.0
C722 C 0.04439 0.03581 0.17466 0.0
C723 C 0.03378 0.00019 0.18331 0.0
C724 C 0.06938 0.98574 0.19162 0.0
C725 C 0.11481 0.00724 0.19122 0.0
C726 C 0.00792 0.05101 0.1654 0.0
C727 C 0.05895 0.94893 0.20119 0.0
C728 C 0.90215 0.98387 0.19081 0.0
C729 C 0.89176 0.94077 0.18495 0.0
C730 C 0.94859 0.00304 0.19057 0.0
C731 C 0.98486 0.97937 0.18394 0.0
C732 C 0.97422 0.93618 0.17783 0.0
C733 C 0.9279 0.9169 0.17861 0.0
C734 C 0.95893 0.04839 0.19749 0.0
C735 C 0.01149 0.91082 0.17034 0.0
H736 H 0.0974 0.08609 0.16838 0.0
H737 H 0.14199 0.99679 0.19767 0.0
H738 H 0.99373 0.01918 0.16062 0.0
H739 H 0.97719 0.06876 0.16988 0.0
H740 H 0.02321 0.07619 0.1587 0.0
H741 H 0.0907 0.94137 0.2069 0.0
H742 H 0.02938 0.96182 0.20702 0.0
H743 H 0.04687 0.91493 0.19704 0.0
H744 H 0.87415 0.00206 0.19578 0.0
H745 H 0.91959 0.88372 0.174 0.0
H746 H 0.96989 0.07727 0.19124 0.0
H747 H 0.98916 0.04237 0.20378 0.0
H748 H 0.92738 0.06094 0.2027 0.0
H749 H 0.02535 0.93543 0.16333 0.0
H750 H 0.99703 0.87825 0.1659 0.0
H751 H 0.04235 0.90025 0.17602 0.0
C752 C 0.07681 0.42434 0.42923 0.0
C753 C 0.05498 0.38765 0.43584 0.0
C754 C 0.05695 0.47047 0.42889 0.0
C755 C 0.01506 0.48037 0.43561 0.0
C756 C 0.99337 0.44359 0.44248 0.0
C757 C 0.01325 0.39739 0.44237 0.0
C758 C 0.08035 0.50839 0.42121 0.0
C759 C 0.94931 0.45308 0.44998 0.0
C760 C 0.98745 0.61043 0.44294 0.0
C761 C 0.95035 0.62028 0.43485 0.0
C762 C 0.00872 0.56487 0.44335 0.0
C763 C 0.9933 0.52894 0.43525 0.0
C764 C 0.95672 0.53925 0.42684 0.0
C765 C 0.93522 0.58464 0.42685 0.0
C766 C 0.04688 0.55483 0.45262 0.0
C767 C 0.94018 0.5023 0.41785 0.0
H768 H 0.10895 0.41669 0.4241 0.0
H769 H 0.9966 0.36907 0.44756 0.0
H770 H 0.05434 0.52191 0.41448 0.0
H771 H 0.09122 0.5393 0.42683 0.0
H772 H 0.11245 0.49468 0.41641 0.0
H773 H 0.93818 0.42118 0.45525 0.0
H774 H 0.95616 0.48313 0.45627 0.0
H775 H 0.9191 0.46394 0.44411 0.0
H776 H 0.99886 0.63791 0.44919 0.0
H777 H 0.90666 0.59236 0.42055 0.0
H778 H 0.08057 0.54356 0.44816 0.0
H779 H 0.03534 0.52485 0.45849 0.0
H780 H 0.05455 0.58655 0.45833 0.0
H781 H 0.97117 0.48893 0.41258 0.0
H782 H 0.91298 0.5168 0.41154 0.0
H783 H 0.92446 0.47113 0.42259 0.0
C784 C 0.42247 0.42338 0.6774 0.0
C785 C 0.38628 0.44391 0.68443 0.0
C786 C 0.46842 0.44366 0.67699 0.0
C787 C 0.47868 0.48438 0.68411 0.0
C788 C 0.44227 0.50488 0.69134 0.0
C789 C 0.39618 0.48483 0.69124 0.0
C790 C 0.50584 0.42175 0.66888 0.0
C791 C 0.45222 0.5475 0.6993 0.0
C792 C 0.60895 0.5089 0.6918 0.0
C793 C 0.61901 0.54799 0.68435 0.0
C794 C 0.56324 0.48795 0.69187 0.0
C795 C 0.52748 0.50561 0.68401 0.0
C796 C 0.53809 0.54413 0.67619 0.0
C797 C 0.58356 0.56542 0.67661 0.0
C798 C 0.55284 0.44782 0.70058 0.0
C799 C 0.5014 0.56294 0.66741 0.0
H800 H 0.4146 0.39187 0.67207 0.0
H801 H 0.36819 0.5004 0.69675 0.0
H802 H 0.51986 0.44926 0.66261 0.0
H803 H 0.53656 0.40873 0.67429 0.0
H804 H 0.49149 0.39133 0.66356 0.0
H805 H 0.42041 0.5581 0.70468 0.0
H806 H 0.48213 0.53914 0.70552 0.0
H807 H 0.46352 0.57856 0.69378 0.0
H808 H 0.63635 0.49576 0.69787 0.0
H809 H 0.59156 0.59551 0.67079 0.0
H810 H 0.54138 0.41531 0.69564 0.0
H811 H 0.52287 0.45824 0.70658 0.0
H812 H 0.58445 0.43862 0.70618 0.0
H813 H 0.48757 0.53322 0.66177 0.0
H814 H 0.51635 0.59107 0.66143 0.0
H815 H 0.47046 0.57822 0.67234 0.0
C816 C 0.4895 0.10814 0.93027 0.0
C817 C 0.45293 0.1192 0.93842 0.0
C818 C 0.51016 0.06227 0.93004 0.0
C819 C 0.49479 0.02725 0.93839 0.0
C820 C 0.45886 0.03883 0.94689 0.0
C821 C 0.43784 0.08448 0.94667 0.0
C822 C 0.54757 0.05093 0.92067 0.0
C823 C 0.44249 0.00294 0.95616 0.0
C824 C 0.51338 0.89535 0.93131 0.0
C825 C 0.55598 0.88558 0.93749 0.0
C826 C 0.49331 0.94148 0.93143 0.0
C827 C 0.51577 0.97826 0.93814 0.0
C828 C 0.55828 0.96823 0.9446 0.0
C829 C 0.57823 0.92213 0.94407 0.0
C830 C 0.44851 0.95105 0.92422 0.0
C831 C 0.58259 0.00613 0.95211 0.0
H832 H 0.50087 0.13489 0.92382 0.0
H833 H 0.40971 0.09315 0.95303 0.0
H834 H 0.58138 0.03953 0.92505 0.0
H835 H 0.53521 0.02066 0.915 0.0
H836 H 0.55531 0.08205 0.91477 0.0
H837 H 0.4161 0.01846 0.96253 0.0
H838 H 0.42585 0.97166 0.95166 0.0
H839 H 0.4737 0.98949 0.96133 0.0
H840 H 0.49633 0.86718 0.92616 0.0
H841 H 0.61105 0.91454 0.94891 0.0
H842 H 0.45522 0.98026 0.91768 0.0
H843 H 0.41925 0.96319 0.93023 0.0
H844 H 0.43611 0.91885 0.91925 0.0
H845 H 0.5941 0.03635 0.94633 0.0
H846 H 0.61446 0.99204 0.95694 0.0
H847 H 0.55701 0.02076 0.9588 0.0
C848 C 0.08779 0.44739 0.0743 0.0
C849 C 0.12204 0.4589 0.06557 0.0
C850 C 0.04237 0.46895 0.07424 0.0
C851 C 0.03055 0.50186 0.06503 0.0
C852 C 0.06513 0.51375 0.05622 0.0
C853 C 0.11074 0.49254 0.05668 0.0
C854 C 0.00692 0.45626 0.08397 0.0
C855 C 0.05355 0.54793 0.04612 0.0
C856 C 0.89797 0.51895 0.05846 0.0
C857 C 0.88887 0.56316 0.06395 0.0
C858 C 0.94417 0.49898 0.05855 0.0
C859 C 0.98175 0.52328 0.06455 0.0
C860 C 0.97255 0.56772 0.07022 0.0
C861 C 0.92632 0.58741 0.06972 0.0
C862 C 0.95281 0.45199 0.0522 0.0
C863 C 0.01138 0.59417 0.07694 0.0
H864 H 0.09657 0.42151 0.08122 0.0
H865 H 0.13707 0.50116 0.04987 0.0
H866 H 0.99415 0.48926 0.08851 0.0
H867 H 0.97514 0.43854 0.07997 0.0
H868 H 0.02256 0.43194 0.09083 0.0
H869 H 0.08442 0.55341 0.03998 0.0
H870 H 0.02289 0.53394 0.04084 0.0
H871 H 0.04258 0.58317 0.04981 0.0
H872 H 0.8691 0.5003 0.05393 0.0
H873 H 0.91928 0.62148 0.07404 0.0
H874 H 0.96477 0.42452 0.05874 0.0
H875 H 0.98184 0.4562 0.04548 0.0
H876 H 0.9202 0.43859 0.04757 0.0
H877 H 0.02595 0.57107 0.08418 0.0
H878 H 0.99817 0.62803 0.081 0.0
H879 H 0.04146 0.60273 0.0708 0.0
C880 C 0.50941 0.60079 0.32009 0.0
C881 C 0.55163 0.60935 0.31364 0.0
C882 C 0.48841 0.55509 0.32022 0.0
C883 C 0.50973 0.51751 0.31355 0.0
C884 C 0.55199 0.52623 0.30688 0.0
C885 C 0.57268 0.57196 0.3071 0.0
C886 C 0.44375 0.54689 0.32759 0.0
C887 C 0.57526 0.4873 0.29949 0.0
C888 C 0.48292 0.38816 0.32166 0.0
C889 C 0.4472 0.3766 0.31331 0.0
C890 C 0.50315 0.43416 0.32195 0.0
C891 C 0.4879 0.46898 0.31353 0.0
C892 C 0.45228 0.45724 0.30498 0.0
C893 C 0.432 0.41128 0.30505 0.0
C894 C 0.54053 0.44562 0.33131 0.0
C895 C 0.43579 0.49312 0.29572 0.0
H896 H 0.49322 0.62963 0.32519 0.0
H897 H 0.60521 0.57856 0.30205 0.0
H898 H 0.41408 0.53473 0.32171 0.0
H899 H 0.45025 0.51812 0.33426 0.0
H900 H 0.43207 0.5797 0.33241 0.0
H901 H 0.60736 0.5003 0.29457 0.0
H902 H 0.58614 0.45714 0.30537 0.0
H903 H 0.54922 0.47292 0.29288 0.0
H904 H 0.49446 0.36148 0.32811 0.0
H905 H 0.40448 0.40234 0.29856 0.0
H906 H 0.52875 0.47669 0.33678 0.0
H907 H 0.57465 0.45584 0.3269 0.0
H908 H 0.54754 0.4149 0.3374 0.0
H909 H 0.4206 0.52514 0.30022 0.0
H910 H 0.40827 0.47807 0.28958 0.0
H911 H 0.46678 0.50536 0.29028 0.0
C912 C 0.60537 0.98937 0.57075 0.0
C913 C 0.61215 0.94272 0.56643 0.0
C914 C 0.55937 0.00989 0.57116 0.0
C915 C 0.51945 0.98336 0.56696 0.0
C916 C 0.52617 0.93617 0.56264 0.0
C917 C 0.57235 0.91632 0.56252 0.0
C918 C 0.55353 0.0601 0.57598 0.0
C919 C 0.48473 0.90699 0.5579 0.0
C920 C 0.39256 0.02077 0.57544 0.0
C921 C 0.37883 0.04729 0.56532 0.0
C922 C 0.43848 0.00018 0.57618 0.0
C923 C 0.471 0.00569 0.56651 0.0
C924 C 0.45695 0.0319 0.55622 0.0
C925 C 0.41122 0.05263 0.5558 0.0
C926 C 0.45239 0.97291 0.58735 0.0
C927 C 0.4902 0.03797 0.54563 0.0
H928 H 0.63599 0.00977 0.57386 0.0
H929 H 0.57739 0.88026 0.55914 0.0
H930 H 0.54035 0.08408 0.56876 0.0
H931 H 0.52637 0.06052 0.58325 0.0
H932 H 0.58765 0.07487 0.57953 0.0
H933 H 0.49583 0.87042 0.55511 0.0
H934 H 0.45644 0.90379 0.56484 0.0
H935 H 0.46854 0.92538 0.55006 0.0
H936 H 0.36774 0.01685 0.58285 0.0
H937 H 0.40074 0.07301 0.54794 0.0
H938 H 0.48485 0.98916 0.59141 0.0
H939 H 0.46147 0.93537 0.58501 0.0
H940 H 0.42332 0.9726 0.59416 0.0
H941 H 0.52349 0.0564 0.5485 0.0
H942 H 0.47358 0.05895 0.53825 0.0
H943 H 0.50073 0.00236 0.54208 0.0
C944 C 0.07674 0.07998 0.82048 0.0
C945 C 0.05862 0.11649 0.81315 0.0
C946 C 0.05578 0.03435 0.82052 0.0
C947 C 0.01682 0.02473 0.81276 0.0
C948 C 0.99897 0.06132 0.80517 0.0
C949 C 0.01964 0.10712 0.8056 0.0
C950 C 0.07485 0.99671 0.82901 0.0
C951 C 0.95833 0.05199 0.79653 0.0
C952 C 0.99184 0.89387 0.80582 0.0
C953 C 0.95171 0.88511 0.81303 0.0
C954 C 0.01289 0.93952 0.80545 0.0
C955 C 0.99417 0.97659 0.81276 0.0
C956 C 0.95408 0.96755 0.8202 0.0
C957 C 0.93286 0.92206 0.8201 0.0
C958 C 0.0548 0.94821 0.79716 0.0
C959 C 0.93398 0.00573 0.82838 0.0
H960 H 0.10674 0.08742 0.82637 0.0
H961 H 0.00596 0.13535 0.79987 0.0
H962 H 0.04567 0.98398 0.83497 0.0
H963 H 0.0879 0.96528 0.82387 0.0
H964 H 0.10465 0.01036 0.83466 0.0
H965 H 0.95019 0.08365 0.79085 0.0
H966 H 0.96741 0.02135 0.79061 0.0
H967 H 0.92552 0.04207 0.80157 0.0
H968 H 0.00613 0.86531 0.80028 0.0
H969 H 0.90197 0.91511 0.82574 0.0
H970 H 0.08683 0.95859 0.80244 0.0
H971 H 0.04659 0.97836 0.791 0.0
H972 H 0.06381 0.91612 0.79171 0.0
H973 H 0.96241 0.01891 0.83451 0.0
H974 H 0.90351 0.99243 0.83387 0.0
H975 H 0.92152 0.03678 0.82302 0.0
C976 C 0.58878 0.9413 0.17547 0.0
C977 C 0.62419 0.95671 0.18349 0.0
C978 C 0.5433 0.96269 0.17538 0.0
C979 C 0.53261 0.99915 0.18379 0.0
C980 C 0.56839 0.01489 0.1919 0.0
C981 C 0.61412 0.99397 0.19151 0.0
C982 C 0.50662 0.94601 0.16633 0.0
C983 C 0.55792 0.05273 0.20123 0.0
C984 C 0.42671 0.08175 0.17836 0.0
C985 C 0.39055 0.059 0.18496 0.0
C986 C 0.47301 0.06232 0.17777 0.0
C987 C 0.48365 0.02007 0.18427 0.0
C988 C 0.44737 0.99746 0.19112 0.0
C989 C 0.40093 0.01679 0.19121 0.0
C990 C 0.51029 0.08657 0.17005 0.0
C991 C 0.4577 0.95312 0.19844 0.0
H992 H 0.59675 0.91258 0.16923 0.0
H993 H 0.64145 0.00549 0.1978 0.0
H994 H 0.47592 0.92914 0.17103 0.0
H995 H 0.4924 0.97706 0.16123 0.0
H996 H 0.52171 0.91969 0.15988 0.0
H997 H 0.58966 0.06087 0.20689 0.0
H998 H 0.5459 0.08627 0.19683 0.0
H999 H 0.52831 0.04053 0.20713 0.0
H1000 H 0.41847 0.11425 0.17345 0.0
H1001 H 0.37296 0.99945 0.19638 0.0
H1002 H 0.5242 0.06095 0.16328 0.0
H1003 H 0.5411 0.09797 0.17564 0.0
H1004 H 0.49583 0.11846 0.16531 0.0
H1005 H 0.46882 0.92341 0.19245 0.0
H1006 H 0.42611 0.94125 0.20373 0.0
H1007 H 0.48784 0.96006 0.2047 0.0
C1008 C 0.98046 0.89529 0.42701 0.0
C1009 C 0.94163 0.88609 0.43464 0.0
C1010 C 0.00112 0.94111 0.42644 0.0
C1011 C 0.98309 0.97814 0.43387 0.0
C1012 C 0.94397 0.96889 0.44162 0.0
C1013 C 0.92341 0.92308 0.44181 0.0
C1014 C 0.04225 0.94987 0.41792 0.0
C1015 C 0.92437 0.00715 0.44985 0.0
C1016 C 0.06669 0.08066 0.44162 0.0
C1017 C 0.04897 0.11758 0.43435 0.0
C1018 C 0.0454 0.0352 0.44159 0.0
C1019 C 0.00615 0.02615 0.43388 0.0
C1020 C 0.9885 0.06315 0.42638 0.0
C1021 C 0.00979 0.10872 0.42682 0.0
C1022 C 0.06454 0.99704 0.44992 0.0
C1023 C 0.94734 0.05451 0.41786 0.0
H1024 H 0.99437 0.86681 0.42139 0.0
H1025 H 0.89347 0.916 0.44776 0.0
H1026 H 0.03374 0.98039 0.41191 0.0
H1027 H 0.07485 0.95971 0.42305 0.0
H1028 H 0.05047 0.91796 0.41233 0.0
H1029 H 0.89373 0.99414 0.45532 0.0
H1030 H 0.95299 0.01972 0.45601 0.0
H1031 H 0.91239 0.03854 0.44454 0.0
H1032 H 0.09683 0.08755 0.44751 0.0
H1033 H 0.99629 0.13719 0.42113 0.0
H1034 H 0.07686 0.96563 0.44467 0.0
H1035 H 0.0356 0.98448 0.45598 0.0
H1036 H 0.09487 0.01012 0.45549 0.0
H1037 H 0.95592 0.02416 0.4118 0.0
H1038 H 0.93903 0.08653 0.41232 0.0
H1039 H 0.91477 0.04443 0.42298 0.0
C1040 C 0.07952 0.42564 0.67872 0.0
C1041 C 0.11678 0.4455 0.68551 0.0
C1042 C 0.03383 0.44663 0.67863 0.0
C1043 C 0.0249 0.48744 0.68584 0.0
C1044 C 0.06233 0.50719 0.69286 0.0
C1045 C 0.10812 0.48642 0.69244 0.0
C1046 C 0.99529 0.42545 0.67074 0.0
C1047 C 0.05384 0.54982 0.70092 0.0
C1048 C 0.9204 0.56961 0.67858 0.0
C1049 C 0.88485 0.55216 0.68629 0.0
C1050 C 0.96588 0.54824 0.67817 0.0
C1051 C 0.97646 0.50967 0.68598 0.0
C1052 C 0.94077 0.49238 0.69392 0.0
C1053 C 0.89501 0.51333 0.69382 0.0
C1054 C 0.00242 0.56665 0.6693 0.0
C1055 C 0.95114 0.4523 0.70264 0.0
H1056 H 0.08637 0.39413 0.67329 0.0
H1057 H 0.1369 0.50148 0.69778 0.0
H1058 H 0.96482 0.41304 0.67632 0.0
H1059 H 0.98124 0.45324 0.66454 0.0
H1060 H 0.00859 0.39475 0.66534 0.0
H1061 H 0.08626 0.55966 0.70616 0.0
H1062 H 0.04273 0.58122 0.6955 0.0
H1063 H 0.02425 0.54195 0.70728 0.0
H1064 H 0.91231 0.59946 0.67269 0.0
H1065 H 0.86752 0.50015 0.69985 0.0
H1066 H 0.01505 0.5369 0.6635 0.0
H1067 H 0.03412 0.5808 0.67414 0.0
H1068 H 0.98778 0.5955 0.66349 0.0
H1069 H 0.96111 0.41933 0.69768 0.0
H1070 H 0.91996 0.44415 0.70849 0.0
H1071 H 0.98208 0.46205 0.7084 0.0
C1072 C 0.4283 0.4227 0.94034 0.0
C1073 C 0.44674 0.38516 0.93338 0.0
C1074 C 0.44918 0.46835 0.94007 0.0
C1075 C 0.48862 0.47702 0.93239 0.0
C1076 C 0.50673 0.43947 0.92513 0.0
C1077 C 0.48599 0.39368 0.92585 0.0
C1078 C 0.42968 0.50698 0.94821 0.0
C1079 C 0.54799 0.44768 0.91661 0.0
C1080 C 0.51521 0.60786 0.92553 0.0
C1081 C 0.55416 0.61667 0.93314 0.0
C1082 C 0.49432 0.56211 0.92492 0.0
C1083 C 0.51199 0.52491 0.93236 0.0
C1084 C 0.55108 0.53391 0.94013 0.0
C1085 C 0.57211 0.57949 0.9403 0.0
C1086 C 0.45346 0.55353 0.91631 0.0
C1087 C 0.5701 0.49566 0.94846 0.0
H1088 H 0.39811 0.41607 0.94624 0.0
H1089 H 0.5 0.36472 0.9204 0.0
H1090 H 0.45831 0.51966 0.95435 0.0
H1091 H 0.41784 0.53823 0.94283 0.0
H1092 H 0.39895 0.4943 0.9537 0.0
H1093 H 0.55589 0.4156 0.91105 0.0
H1094 H 0.53983 0.47821 0.91057 0.0
H1095 H 0.58067 0.45724 0.92174 0.0
H1096 H 0.50159 0.63653 0.91993 0.0
H1097 H 0.60209 0.58636 0.94624 0.0
H1098 H 0.42056 0.54408 0.92137 0.0
H1099 H 0.46195 0.52282 0.91035 0.0
H1100 H 0.44575 0.58541 0.91066 0.0
H1101 H 0.54111 0.4832 0.95452 0.0
H1102 H 0.60046 0.50863 0.95403 0.0
H1103 H 0.58233 0.46421 0.94321 0.0
C1104 C 0.60966 0.51515 0.07125 0.0
C1105 C 0.61758 0.55792 0.06499 0.0
C1106 C 0.56394 0.49404 0.07154 0.0
C1107 C 0.52564 0.51583 0.06521 0.0
C1108 C 0.53364 0.55888 0.05882 0.0
C1109 C 0.57939 0.5796 0.05887 0.0
C1110 C 0.55658 0.44851 0.07861 0.0
C1111 C 0.494 0.58275 0.05178 0.0
C1112 C 0.42025 0.43821 0.05595 0.0
C1113 C 0.38518 0.4518 0.06429 0.0
C1114 C 0.46606 0.45884 0.05614 0.0
C1115 C 0.47737 0.4932 0.06504 0.0
C1116 C 0.44221 0.50674 0.07357 0.0
C1117 C 0.3963 0.48621 0.07301 0.0
C1118 C 0.50221 0.44419 0.04674 0.0
C1119 C 0.45318 0.54272 0.0833 0.0
H1120 H 0.63907 0.49845 0.07604 0.0
H1121 H 0.58541 0.61258 0.05396 0.0
H1122 H 0.52759 0.45366 0.0853 0.0
H1123 H 0.54513 0.41925 0.07252 0.0
H1124 H 0.5896 0.43702 0.08337 0.0
H1125 H 0.50622 0.61597 0.04723 0.0
H1126 H 0.47995 0.5577 0.0449 0.0
H1127 H 0.4638 0.59192 0.05783 0.0
H1128 H 0.41169 0.4117 0.04917 0.0
H1129 H 0.36936 0.49649 0.07953 0.0
H1130 H 0.53451 0.42895 0.05111 0.0
H1131 H 0.5139 0.47607 0.04157 0.0
H1132 H 0.4876 0.41727 0.04038 0.0
H1133 H 0.48454 0.5306 0.08861 0.0
H1134 H 0.42241 0.54819 0.08948 0.0
H1135 H 0.46276 0.57769 0.07923 0.0
C1136 C 0.44061 0.07874 0.32581 0.0
C1137 C 0.45592 0.11383 0.31768 0.0
C1138 C 0.4614 0.03298 0.32587 0.0
C1139 C 0.49748 0.02178 0.31739 0.0
C1140 C 0.51342 0.0573 0.30924 0.0
C1141 C 0.4928 0.10315 0.30958 0.0
C1142 C 0.44429 0.99643 0.33489 0.0
C1143 C 0.55121 0.04645 0.29993 0.0
C1144 C 0.57915 0.91501 0.3226 0.0
C1145 C 0.55666 0.87947 0.31574 0.0
C1146 C 0.55987 0.96132 0.32338 0.0
C1147 C 0.51781 0.97259 0.31687 0.0
C1148 C 0.49516 0.93687 0.30984 0.0
C1149 C 0.51455 0.89048 0.30949 0.0
C1150 C 0.58435 0.99808 0.3312 0.0
C1151 C 0.4508 0.94782 0.30258 0.0
H1152 H 0.41218 0.08703 0.33211 0.0
H1153 H 0.50437 0.13014 0.30321 0.0
H1154 H 0.42716 0.96594 0.33017 0.0
H1155 H 0.47517 0.98186 0.34 0.0
H1156 H 0.41807 0.01173 0.34134 0.0
H1157 H 0.55994 0.07817 0.29432 0.0
H1158 H 0.58451 0.03379 0.30433 0.0
H1159 H 0.5386 0.0172 0.29397 0.0
H1160 H 0.61157 0.90642 0.32752 0.0
H1161 H 0.49733 0.86306 0.30411 0.0
H1162 H 0.55873 0.01217 0.33795 0.0
H1163 H 0.59631 0.02885 0.32567 0.0
H1164 H 0.61593 0.98311 0.33598 0.0
H1165 H 0.42145 0.95967 0.3086 0.0
H1166 H 0.43822 0.91635 0.29736 0.0
H1167 H 0.45817 0.97765 0.29626 0.0
C1168 C 0.89496 0.98165 0.571 0.0
C1169 C 0.8849 0.93964 0.56461 0.0
C1170 C 0.94143 0.00105 0.57114 0.0
C1171 C 0.97837 0.97849 0.56448 0.0
C1172 C 0.96824 0.93619 0.55795 0.0
C1173 C 0.92176 0.91698 0.55821 0.0
C1174 C 0.951 0.04572 0.57838 0.0
C1175 C 0.00626 0.91171 0.5505 0.0
C1176 C 0.0828 0.05727 0.55512 0.0
C1177 C 0.1185 0.04358 0.56328 0.0
C1178 C 0.03745 0.03564 0.55526 0.0
C1179 C 0.02712 0.00019 0.56396 0.0
C1180 C 0.06317 0.98597 0.57219 0.0
C1181 C 0.10871 0.00749 0.57166 0.0
C1182 C 0.00047 0.05103 0.54614 0.0
C1183 C 0.05326 0.94888 0.58173 0.0
H1184 H 0.86661 0.99903 0.57604 0.0
H1185 H 0.91405 0.88458 0.55321 0.0
H1186 H 0.98103 0.03937 0.58472 0.0
H1187 H 0.96196 0.07533 0.57234 0.0
H1188 H 0.9191 0.05742 0.58358 0.0
H1189 H 0.99262 0.87895 0.54599 0.0
H1190 H 0.0198 0.93673 0.54354 0.0
H1191 H 0.03716 0.90169 0.55623 0.0
H1192 H 0.09035 0.08501 0.54858 0.0
H1193 H 0.13616 0.99712 0.57803 0.0
H1194 H 0.96929 0.06734 0.55077 0.0
H1195 H 0.98712 0.01942 0.54112 0.0
H1196 H 0.01495 0.07741 0.53962 0.0
H1197 H 0.02353 0.96123 0.58758 0.0
H1198 H 0.08514 0.94164 0.58742 0.0
H1199 H 0.04163 0.91482 0.57752 0.0
C1200 C 0.93406 0.58006 0.80885 0.0
C1201 C 0.95089 0.617 0.81624 0.0
C1202 C 0.95527 0.53456 0.80907 0.0
C1203 C 0.99346 0.52547 0.81711 0.0
C1204 C 0.01001 0.56241 0.82478 0.0
C1205 C 0.98889 0.60804 0.82414 0.0
C1206 C 0.93737 0.4965 0.80055 0.0
C1207 C 0.04997 0.55371 0.83365 0.0
C1208 C 0.01915 0.39431 0.82364 0.0
C1209 C 0.05897 0.38589 0.81628 0.0
C1210 C 0.99825 0.44003 0.82428 0.0
C1211 C 0.01697 0.47768 0.81717 0.0
C1212 C 0.05713 0.46921 0.8097 0.0
C1213 C 0.078 0.42354 0.80946 0.0
C1214 C 0.95608 0.44801 0.83253 0.0
C1215 C 0.07744 0.5081 0.80177 0.0
H1216 H 0.90483 0.58702 0.80268 0.0
H1217 H 0.00168 0.63652 0.82993 0.0
H1218 H 0.96706 0.4844 0.79465 0.0
H1219 H 0.92481 0.4648 0.80565 0.0
H1220 H 0.90751 0.50948 0.79481 0.0
H1221 H 0.05699 0.58546 0.83939 0.0
H1222 H 0.04094 0.52284 0.8395 0.0
H1223 H 0.08341 0.54443 0.8288 0.0
H1224 H 0.00465 0.36529 0.82898 0.0
H1225 H 0.10868 0.41703 0.80372 0.0
H1226 H 0.92394 0.45763 0.8272 0.0
H1227 H 0.96352 0.47841 0.83867 0.0
H1228 H 0.94766 0.4158 0.83799 0.0
H1229 H 0.04952 0.52075 0.79542 0.0
H1230 H 0.10892 0.49567 0.79652 0.0
H1231 H 0.0884 0.5393 0.80728 0.0
loop_
_geom_bond_atom_site_label_1
_geom_bond_atom_site_label_2
_geom_bond_distance
_geom_bond_site_symmetry_2
_ccdc_geom_bond_type
In0 O1 2.294 . S
In0 O2 2.326 . S
In0 O6 2.266 . S
In0 O7 2.326 . S
In0 O8 2.266 . S
In0 O9 2.326 . S
In0 O11 2.294 . S
In0 O12 2.326 . S
O1 In0 2.294 . S
O1 C10 1.240 . S
O2 In0 2.326 . S
O2 C10 1.252 . S
C3 O6 1.252 . S
C3 O7 1.260 . S
C4 O11 1.240 . S
C4 O12 1.252 . S
C5 O8 1.252 . S
C5 O9 1.260 . S
O6 In0 2.266 . S
O6 C3 1.252 . S
O7 In0 2.326 . S
O7 C3 1.260 . S
O8 In0 2.266 . S
O8 C5 1.252 . S
O9 In0 2.326 . S
O9 C5 1.260 . S
C10 O1 1.240 . S
C10 O2 1.252 . S
O11 In0 2.294 . S
O11 C4 1.240 . S
O12 In0 2.326 . S
O12 C4 1.252 . S
In13 O14 2.294 . S
In13 O15 2.326 . S
In13 O19 2.266 . S
In13 O20 2.326 . S
In13 O21 2.266 . S
In13 O22 2.326 . S
In13 O24 2.294 . S
In13 O25 2.326 . S
O14 In13 2.294 . S
O14 C23 1.240 . S
O15 In13 2.326 . S
O15 C23 1.252 . S
C16 O19 1.252 . S
C16 O20 1.260 . S
C17 O24 1.240 . S
C17 O25 1.252 . S
C18 O21 1.252 . S
C18 O22 1.260 . S
O19 In13 2.266 . S
O19 C16 1.252 . S
O20 In13 2.326 . S
O20 C16 1.260 . S
O21 In13 2.266 . S
O21 C18 1.252 . S
O22 In13 2.326 . S
O22 C18 1.260 . S
C23 O14 1.240 . S
C23 O15 1.252 . S
O24 In13 2.294 . S
O24 C17 1.240 . S
O25 In13 2.326 . S
O25 C17 1.252 . S
In26 O27 2.294 . S
In26 O28 2.326 . S
In26 O32 2.266 . S
In26 O33 2.326 . S
In26 O34 2.266 . S
In26 O35 2.326 . S
In26 O37 2.294 . S
In26 O38 2.326 . S
O27 In26 2.294 . S
O27 C36 1.240 . S
O28 In26 2.326 . S
O28 C36 1.252 . S
C29 O32 1.252 . S
C29 O33 1.260 . S
C30 O37 1.240 . S
C30 O38 1.252 . S
C31 O34 1.252 . S
C31 O35 1.260 . S
O32 In26 2.266 . S
O32 C29 1.252 . S
O33 In26 2.326 . S
O33 C29 1.260 . S
O34 In26 2.266 . S
O34 C31 1.252 . S
O35 In26 2.326 . S
O35 C31 1.260 . S
C36 O27 1.240 . S
C36 O28 1.252 . S
O37 In26 2.294 . S
O37 C30 1.240 . S
O38 In26 2.326 . S
O38 C30 1.252 . S
In39 O40 2.294 . S
In39 O41 2.326 . S
In39 O45 2.266 . S
In39 O46 2.326 . S
In39 O47 2.266 . S
In39 O48 2.326 . S
In39 O50 2.294 . S
In39 O51 2.326 . S
O40 In39 2.294 . S
O40 C49 1.240 . S
O41 In39 2.326 . S
O41 C49 1.252 . S
C42 O45 1.252 . S
C42 O46 1.260 . S
C43 O50 1.240 . S
C43 O51 1.252 . S
C44 O47 1.252 . S
C44 O48 1.260 . S
O45 In39 2.266 . S
O45 C42 1.252 . S
O46 In39 2.326 . S
O46 C42 1.260 . S
O47 In39 2.266 . S
O47 C44 1.252 . S
O48 In39 2.326 . S
O48 C44 1.260 . S
C49 O40 1.240 . S
C49 O41 1.252 . S
O50 In39 2.294 . S
O50 C43 1.240 . S
O51 In39 2.326 . S
O51 C43 1.252 . S
In52 O53 2.294 . S
In52 O54 2.326 . S
In52 O58 2.266 . S
In52 O59 2.326 . S
In52 O60 2.266 . S
In52 O61 2.326 . S
In52 O63 2.294 . S
In52 O64 2.326 . S
O53 In52 2.294 . S
O53 C62 1.240 . S
O54 In52 2.326 . S
O54 C62 1.252 . S
C55 O58 1.252 . S
C55 O59 1.260 . S
C56 O63 1.240 . S
C56 O64 1.252 . S
C57 O60 1.252 . S
C57 O61 1.260 . S
O58 In52 2.266 . S
O58 C55 1.252 . S
O59 In52 2.326 . S
O59 C55 1.260 . S
O60 In52 2.266 . S
O60 C57 1.252 . S
O61 In52 2.326 . S
O61 C57 1.260 . S
C62 O53 1.240 . S
C62 O54 1.252 . S
O63 In52 2.294 . S
O63 C56 1.240 . S
O64 In52 2.326 . S
O64 C56 1.252 . S
In65 O66 2.294 . S
In65 O67 2.326 . S
In65 O71 2.266 . S
In65 O72 2.326 . S
In65 O73 2.266 . S
In65 O74 2.326 . S
In65 O76 2.294 . S
In65 O77 2.326 . S
O66 In65 2.294 . S
O66 C75 1.240 . S
O67 In65 2.326 . S
O67 C75 1.252 . S
C68 O71 1.252 . S
C68 O72 1.260 . S
C69 O76 1.240 . S
C69 O77 1.252 . S
C70 O73 1.252 . S
C70 O74 1.260 . S
O71 In65 2.266 . S
O71 C68 1.252 . S
O72 In65 2.326 . S
O72 C68 1.260 . S
O73 In65 2.266 . S
O73 C70 1.252 . S
O74 In65 2.326 . S
O74 C70 1.260 . S
C75 O66 1.240 . S
C75 O67 1.252 . S
O76 In65 2.294 . S
O76 C69 1.240 . S
O77 In65 2.326 . S
O77 C69 1.252 . S
In78 O79 2.294 . S
In78 O80 2.326 . S
In78 O84 2.266 . S
In78 O85 2.326 . S
In78 O86 2.266 . S
In78 O87 2.326 . S
In78 O89 2.294 . S
In78 O90 2.326 . S
O79 In78 2.294 . S
O79 C88 1.240 . S
O80 In78 2.326 . S
O80 C88 1.252 . S
C81 O84 1.252 . S
C81 O85 1.260 . S
C82 O89 1.240 . S
C82 O90 1.252 . S
C83 O86 1.252 . S
C83 O87 1.260 . S
O84 In78 2.266 . S
O84 C81 1.252 . S
O85 In78 2.326 . S
O85 C81 1.260 . S
O86 In78 2.266 . S
O86 C83 1.252 . S
O87 In78 2.326 . S
O87 C83 1.260 . S
C88 O79 1.240 . S
C88 O80 1.252 . S
O89 In78 2.294 . S
O89 C82 1.240 . S
O90 In78 2.326 . S
O90 C82 1.252 . S
In91 O92 2.294 . S
In91 O93 2.326 . S
In91 O97 2.266 . S
In91 O98 2.326 . S
In91 O99 2.266 . S
In91 O100 2.326 . S
In91 O102 2.294 . S
In91 O103 2.326 . S
O92 In91 2.294 . S
O92 C101 1.240 . S
O93 In91 2.326 . S
O93 C101 1.252 . S
C94 O97 1.252 . S
C94 O98 1.260 . S
C95 O102 1.240 . S
C95 O103 1.252 . S
C96 O99 1.252 . S
C96 O100 1.260 . S
O97 In91 2.266 . S
O97 C94 1.252 . S
O98 In91 2.326 . S
O98 C94 1.260 . S
O99 In91 2.266 . S
O99 C96 1.252 . S
O100 In91 2.326 . S
O100 C96 1.260 . S
C101 O92 1.240 . S
C101 O93 1.252 . S
O102 In91 2.294 . S
O102 C95 1.240 . S
O103 In91 2.326 . S
O103 C95 1.252 . S
In104 O105 2.294 . S
In104 O106 2.326 . S
In104 O110 2.266 . S
In104 O111 2.326 . S
In104 O112 2.266 . S
In104 O113 2.326 . S
In104 O115 2.294 . S
In104 O116 2.326 . S
O105 In104 2.294 . S
O105 C114 1.240 . S
O106 In104 2.326 . S
O106 C114 1.252 . S
C107 O110 1.252 . S
C107 O111 1.260 . S
C108 O115 1.240 . S
C108 O116 1.252 . S
C109 O112 1.252 . S
C109 O113 1.260 . S
O110 In104 2.266 . S
O110 C107 1.252 . S
O111 In104 2.326 . S
O111 C107 1.260 . S
O112 In104 2.266 . S
O112 C109 1.252 . S
O113 In104 2.326 . S
O113 C109 1.260 . S
C114 O105 1.240 . S
C114 O106 1.252 . S
O115 In104 2.294 . S
O115 C108 1.240 . S
O116 In104 2.326 . S
O116 C108 1.252 . S
In117 O118 2.294 . S
In117 O119 2.326 . S
In117 O123 2.266 . S
In117 O124 2.326 . S
In117 O125 2.266 . S
In117 O126 2.326 . S
In117 O128 2.294 . S
In117 O129 2.326 . S
O118 In117 2.294 . S
O118 C127 1.240 . S
O119 In117 2.326 . S
O119 C127 1.252 . S
C120 O123 1.252 . S
C120 O124 1.260 . S
C121 O128 1.240 . S
C121 O129 1.252 . S
C122 O125 1.252 . S
C122 O126 1.260 . S
O123 In117 2.266 . S
O123 C120 1.252 . S
O124 In117 2.326 . S
O124 C120 1.260 . S
O125 In117 2.266 . S
O125 C122 1.252 . S
O126 In117 2.326 . S
O126 C122 1.260 . S
C127 O118 1.240 . S
C127 O119 1.252 . S
O128 In117 2.294 . S
O128 C121 1.240 . S
O129 In117 2.326 . S
O129 C121 1.252 . S
In130 O131 2.294 . S
In130 O132 2.326 . S
In130 O136 2.266 . S
In130 O137 2.326 . S
In130 O138 2.266 . S
In130 O139 2.326 . S
In130 O141 2.294 . S
In130 O142 2.326 . S
O131 In130 2.294 . S
O131 C140 1.240 . S
O132 In130 2.326 . S
O132 C140 1.252 . S
C133 O136 1.252 . S
C133 O137 1.260 . S
C134 O141 1.240 . S
C134 O142 1.252 . S
C135 O138 1.252 . S
C135 O139 1.260 . S
O136 In130 2.266 . S
O136 C133 1.252 . S
O137 In130 2.326 . S
O137 C133 1.260 . S
O138 In130 2.266 . S
O138 C135 1.252 . S
O139 In130 2.326 . S
O139 C135 1.260 . S
C140 O131 1.240 . S
C140 O132 1.252 . S
O141 In130 2.294 . S
O141 C134 1.240 . S
O142 In130 2.326 . S
O142 C134 1.252 . S
In143 O144 2.294 . S
In143 O145 2.326 . S
In143 O149 2.266 . S
In143 O150 2.326 . S
In143 O151 2.266 . S
In143 O152 2.326 . S
In143 O154 2.294 . S
In143 O155 2.326 . S
O144 In143 2.294 . S
O144 C153 1.240 . S
O145 In143 2.326 . S
O145 C153 1.252 . S
C146 O149 1.252 . S
C146 O150 1.260 . S
C147 O154 1.240 . S
C147 O155 1.252 . S
C148 O151 1.252 . S
C148 O152 1.260 . S
O149 In143 2.266 . S
O149 C146 1.252 . S
O150 In143 2.326 . S
O150 C146 1.260 . S
O151 In143 2.266 . S
O151 C148 1.252 . S
O152 In143 2.326 . S
O152 C148 1.260 . S
C153 O144 1.240 . S
C153 O145 1.252 . S
O154 In143 2.294 . S
O154 C147 1.240 . S
O155 In143 2.326 . S
O155 C147 1.252 . S
In156 O157 2.294 . S
In156 O158 2.326 . S
In156 O162 2.266 . S
In156 O163 2.326 . S
In156 O164 2.266 . S
In156 O165 2.326 . S
In156 O167 2.294 . S
In156 O168 2.326 . S
O157 In156 2.294 . S
O157 C166 1.240 . S
O158 In156 2.326 . S
O158 C166 1.252 . S
C159 O162 1.252 . S
C159 O163 1.260 . S
C160 O167 1.240 . S
C160 O168 1.252 . S
C161 O164 1.252 . S
C161 O165 1.260 . S
O162 In156 2.266 . S
O162 C159 1.252 . S
O163 In156 2.326 . S
O163 C159 1.260 . S
O164 In156 2.266 . S
O164 C161 1.252 . S
O165 In156 2.326 . S
O165 C161 1.260 . S
C166 O157 1.240 . S
C166 O158 1.252 . S
O167 In156 2.294 . S
O167 C160 1.240 . S
O168 In156 2.326 . S
O168 C160 1.252 . S
In169 O170 2.294 . S
In169 O171 2.326 . S
In169 O175 2.266 . S
In169 O176 2.326 . S
In169 O177 2.266 . S
In169 O178 2.326 . S
In169 O180 2.294 . S
In169 O181 2.326 . S
O170 In169 2.294 . S
O170 C179 1.240 . S
O171 In169 2.326 . S
O171 C179 1.252 . S
C172 O175 1.252 . S
C172 O176 1.260 . S
C173 O180 1.240 . S
C173 O181 1.252 . S
C174 O177 1.252 . S
C174 O178 1.260 . S
O175 In169 2.266 . S
O175 C172 1.252 . S
O176 In169 2.326 . S
O176 C172 1.260 . S
O177 In169 2.266 . S
O177 C174 1.252 . S
O178 In169 2.326 . S
O178 C174 1.260 . S
C179 O170 1.240 . S
C179 O171 1.252 . S
O180 In169 2.294 . S
O180 C173 1.240 . S
O181 In169 2.326 . S
O181 C173 1.252 . S
In182 O183 2.294 . S
In182 O184 2.326 . S
In182 O188 2.266 . S
In182 O189 2.326 . S
In182 O190 2.266 . S
In182 O191 2.326 . S
In182 O193 2.294 . S
In182 O194 2.326 . S
O183 In182 2.294 . S
O183 C192 1.240 . S
O184 In182 2.326 . S
O184 C192 1.252 . S
C185 O188 1.252 . S
C185 O189 1.260 . S
C186 O193 1.240 . S
C186 O194 1.252 . S
C187 O190 1.252 . S
C187 O191 1.260 . S
O188 In182 2.266 . S
O188 C185 1.252 . S
O189 In182 2.326 . S
O189 C185 1.260 . S
O190 In182 2.266 . S
O190 C187 1.252 . S
O191 In182 2.326 . S
O191 C187 1.260 . S
C192 O183 1.240 . S
C192 O184 1.252 . S
O193 In182 2.294 . S
O193 C186 1.240 . S
O194 In182 2.326 . S
O194 C186 1.252 . S
In195 O196 2.294 . S
In195 O197 2.326 . S
In195 O201 2.266 . S
In195 O202 2.326 . S
In195 O203 2.266 . S
In195 O204 2.326 . S
In195 O206 2.294 . S
In195 O207 2.326 . S
O196 In195 2.294 . S
O196 C205 1.240 . S
O197 In195 2.326 . S
O197 C205 1.252 . S
C198 O201 1.252 . S
C198 O202 1.260 . S
C199 O206 1.240 . S
C199 O207 1.252 . S
C200 O203 1.252 . S
C200 O204 1.260 . S
O201 In195 2.266 . S
O201 C198 1.252 . S
O202 In195 2.326 . S
O202 C198 1.260 . S
O203 In195 2.266 . S
O203 C200 1.252 . S
O204 In195 2.326 . S
O204 C200 1.260 . S
C205 O196 1.240 . S
C205 O197 1.252 . S
O206 In195 2.294 . S
O206 C199 1.240 . S
O207 In195 2.326 . S
O207 C199 1.252 . S
C208 C209 1.391 . S
C208 C210 1.394 . S
C208 H224 0.931 . S
C209 C208 1.391 . S
C209 C213 1.376 . S
C210 C208 1.394 . S
C210 C211 1.369 . S
C210 C214 1.531 . S
C211 C210 1.369 . S
C211 C212 1.410 . S
C211 C219 1.503 . S
C212 C211 1.410 . S
C212 C213 1.392 . S
C212 C215 1.511 . S
C213 C209 1.376 . S
C213 C212 1.392 . S
C213 H225 0.929 . S
C214 C210 1.531 . S
C214 H226 0.960 . S
C214 H227 0.962 . S
C214 H228 0.960 . S
C215 C212 1.511 . S
C215 H229 0.961 . S
C215 H230 0.961 . S
C215 H231 0.961 . S
C216 C217 1.370 . S
C216 C218 1.363 . S
C216 H232 0.931 . S
C217 C216 1.370 . S
C217 C221 1.408 . S
C218 C216 1.363 . S
C218 C219 1.370 . S
C218 C222 1.524 . S
C219 C211 1.503 . S
C219 C218 1.370 . S
C219 C220 1.403 . S
C220 C219 1.403 . S
C220 C221 1.404 . S
C220 C223 1.539 . S
C221 C217 1.408 . S
C221 C220 1.404 . S
C221 H233 0.930 . S
C222 C218 1.524 . S
C222 H234 0.956 . S
C222 H235 0.961 . S
C222 H236 0.961 . S
C223 C220 1.539 . S
C223 H237 0.958 . S
C223 H238 0.961 . S
C223 H239 0.960 . S
H224 C208 0.931 . S
H225 C213 0.929 . S
H226 C214 0.960 . S
H227 C214 0.962 . S
H228 C214 0.960 . S
H229 C215 0.961 . S
H230 C215 0.961 . S
H231 C215 0.961 . S
H232 C216 0.931 . S
H233 C221 0.930 . S
H234 C222 0.956 . S
H235 C222 0.961 . S
H236 C222 0.961 . S
H237 C223 0.958 . S
H238 C223 0.961 . S
H239 C223 0.960 . S
C240 C241 1.391 . S
C240 C242 1.394 . S
C240 H256 0.931 . S
C241 C240 1.391 . S
C241 C245 1.376 . S
C242 C240 1.394 . S
C242 C243 1.369 . S
C242 C246 1.531 . S
C243 C242 1.369 . S
C243 C244 1.410 . S
C243 C251 1.503 . S
C244 C243 1.410 . S
C244 C245 1.392 . S
C244 C247 1.511 . S
C245 C241 1.376 . S
C245 C244 1.392 . S
C245 H257 0.929 . S
C246 C242 1.531 . S
C246 H258 0.960 . S
C246 H259 0.962 . S
C246 H260 0.960 . S
C247 C244 1.511 . S
C247 H261 0.961 . S
C247 H262 0.961 . S
C247 H263 0.961 . S
C248 C249 1.370 . S
C248 C250 1.363 . S
C248 H264 0.931 . S
C249 C248 1.370 . S
C249 C253 1.408 . S
C250 C248 1.363 . S
C250 C251 1.370 . S
C250 C254 1.524 . S
C251 C243 1.503 . S
C251 C250 1.370 . S
C251 C252 1.403 . S
C252 C251 1.403 . S
C252 C253 1.404 . S
C252 C255 1.539 . S
C253 C249 1.408 . S
C253 C252 1.404 . S
C253 H265 0.930 . S
C254 C250 1.524 . S
C254 H266 0.956 . S
C254 H267 0.961 . S
C254 H268 0.961 . S
C255 C252 1.539 . S
C255 H269 0.958 . S
C255 H270 0.961 . S
C255 H271 0.960 . S
H256 C240 0.931 . S
H257 C245 0.929 . S
H258 C246 0.960 . S
H259 C246 0.962 . S
H260 C246 0.960 . S
H261 C247 0.961 . S
H262 C247 0.961 . S
H263 C247 0.961 . S
H264 C248 0.931 . S
H265 C253 0.930 . S
H266 C254 0.956 . S
H267 C254 0.961 . S
H268 C254 0.961 . S
H269 C255 0.958 . S
H270 C255 0.961 . S
H271 C255 0.960 . S
C272 C273 1.391 . S
C272 C274 1.394 . S
C272 H288 0.931 . S
C273 C272 1.391 . S
C273 C277 1.376 . S
C274 C272 1.394 . S
C274 C275 1.369 . S
C274 C278 1.531 . S
C275 C274 1.369 . S
C275 C276 1.410 . S
C275 C283 1.503 . S
C276 C275 1.410 . S
C276 C277 1.392 . S
C276 C279 1.511 . S
C277 C273 1.376 . S
C277 C276 1.392 . S
C277 H289 0.929 . S
C278 C274 1.531 . S
C278 H290 0.960 . S
C278 H291 0.962 . S
C278 H292 0.960 . S
C279 C276 1.511 . S
C279 H293 0.961 . S
C279 H294 0.961 . S
C279 H295 0.961 . S
C280 C281 1.370 . S
C280 C282 1.363 . S
C280 H296 0.931 . S
C281 C280 1.370 . S
C281 C285 1.408 . S
C282 C280 1.363 . S
C282 C283 1.370 . S
C282 C286 1.524 . S
C283 C275 1.503 . S
C283 C282 1.370 . S
C283 C284 1.403 . S
C284 C283 1.403 . S
C284 C285 1.404 . S
C284 C287 1.539 . S
C285 C281 1.408 . S
C285 C284 1.404 . S
C285 H297 0.930 . S
C286 C282 1.524 . S
C286 H298 0.956 . S
C286 H299 0.961 . S
C286 H300 0.961 . S
C287 C284 1.539 . S
C287 H301 0.958 . S
C287 H302 0.961 . S
C287 H303 0.960 . S
H288 C272 0.931 . S
H289 C277 0.929 . S
H290 C278 0.960 . S
H291 C278 0.962 . S
H292 C278 0.960 . S
H293 C279 0.961 . S
H294 C279 0.961 . S
H295 C279 0.961 . S
H296 C280 0.931 . S
H297 C285 0.930 . S
H298 C286 0.956 . S
H299 C286 0.961 . S
H300 C286 0.961 . S
H301 C287 0.958 . S
H302 C287 0.961 . S
H303 C287 0.960 . S
C304 C305 1.391 . S
C304 C306 1.394 . S
C304 H320 0.931 . S
C305 C304 1.391 . S
C305 C309 1.376 . S
C306 C304 1.394 . S
C306 C307 1.369 . S
C306 C310 1.531 . S
C307 C306 1.369 . S
C307 C308 1.410 . S
C307 C315 1.503 . S
C308 C307 1.410 . S
C308 C309 1.392 . S
C308 C311 1.511 . S
C309 C305 1.376 . S
C309 C308 1.392 . S
C309 H321 0.929 . S
C310 C306 1.531 . S
C310 H322 0.960 . S
C310 H323 0.962 . S
C310 H324 0.960 . S
C311 C308 1.511 . S
C311 H325 0.961 . S
C311 H326 0.961 . S
C311 H327 0.961 . S
C312 C313 1.370 . S
C312 C314 1.363 . S
C312 H328 0.931 . S
C313 C312 1.370 . S
C313 C317 1.408 . S
C314 C312 1.363 . S
C314 C315 1.370 . S
C314 C318 1.524 . S
C315 C307 1.503 . S
C315 C314 1.370 . S
C315 C316 1.403 . S
C316 C315 1.403 . S
C316 C317 1.404 . S
C316 C319 1.539 . S
C317 C313 1.408 . S
C317 C316 1.404 . S
C317 H329 0.930 . S
C318 C314 1.524 . S
C318 H330 0.956 . S
C318 H331 0.961 . S
C318 H332 0.961 . S
C319 C316 1.539 . S
C319 H333 0.958 . S
C319 H334 0.961 . S
C319 H335 0.960 . S
H320 C304 0.931 . S
H321 C309 0.929 . S
H322 C310 0.960 . S
H323 C310 0.962 . S
H324 C310 0.960 . S
H325 C311 0.961 . S
H326 C311 0.961 . S
H327 C311 0.961 . S
H328 C312 0.931 . S
H329 C317 0.930 . S
H330 C318 0.956 . S
H331 C318 0.961 . S
H332 C318 0.961 . S
H333 C319 0.958 . S
H334 C319 0.961 . S
H335 C319 0.960 . S
C336 C337 1.391 . S
C336 C338 1.394 . S
C336 H352 0.931 . S
C337 C336 1.391 . S
C337 C341 1.376 . S
C338 C336 1.394 . S
C338 C339 1.369 . S
C338 C342 1.531 . S
C339 C338 1.369 . S
C339 C340 1.410 . S
C339 C347 1.503 . S
C340 C339 1.410 . S
C340 C341 1.392 . S
C340 C343 1.511 . S
C341 C337 1.376 . S
C341 C340 1.392 . S
C341 H353 0.929 . S
C342 C338 1.531 . S
C342 H354 0.960 . S
C342 H355 0.962 . S
C342 H356 0.960 . S
C343 C340 1.511 . S
C343 H357 0.961 . S
C343 H358 0.961 . S
C343 H359 0.961 . S
C344 C345 1.370 . S
C344 C346 1.363 . S
C344 H360 0.931 . S
C345 C344 1.370 . S
C345 C349 1.408 . S
C346 C344 1.363 . S
C346 C347 1.370 . S
C346 C350 1.524 . S
C347 C339 1.503 . S
C347 C346 1.370 . S
C347 C348 1.403 . S
C348 C347 1.403 . S
C348 C349 1.404 . S
C348 C351 1.539 . S
C349 C345 1.408 . S
C349 C348 1.404 . S
C349 H361 0.930 . S
C350 C346 1.524 . S
C350 H362 0.956 . S
C350 H363 0.961 . S
C350 H364 0.961 . S
C351 C348 1.539 . S
C351 H365 0.958 . S
C351 H366 0.961 . S
C351 H367 0.960 . S
H352 C336 0.931 . S
H353 C341 0.929 . S
H354 C342 0.960 . S
H355 C342 0.962 . S
H356 C342 0.960 . S
H357 C343 0.961 . S
H358 C343 0.961 . S
H359 C343 0.961 . S
H360 C344 0.931 . S
H361 C349 0.930 . S
H362 C350 0.956 . S
H363 C350 0.961 . S
H364 C350 0.961 . S
H365 C351 0.958 . S
H366 C351 0.961 . S
H367 C351 0.960 . S
C368 C369 1.391 . S
C368 C370 1.394 . S
C368 H384 0.931 . S
C369 C368 1.391 . S
C369 C373 1.376 . S
C370 C368 1.394 . S
C370 C371 1.369 . S
C370 C374 1.531 . S
C371 C370 1.369 . S
C371 C372 1.410 . S
C371 C379 1.503 . S
C372 C371 1.410 . S
C372 C373 1.392 . S
C372 C375 1.511 . S
C373 C369 1.376 . S
C373 C372 1.392 . S
C373 H385 0.929 . S
C374 C370 1.531 . S
C374 H386 0.960 . S
C374 H387 0.962 . S
C374 H388 0.960 . S
C375 C372 1.511 . S
C375 H389 0.961 . S
C375 H390 0.961 . S
C375 H391 0.961 . S
C376 C377 1.370 . S
C376 C378 1.363 . S
C376 H392 0.931 . S
C377 C376 1.370 . S
C377 C381 1.408 . S
C378 C376 1.363 . S
C378 C379 1.370 . S
C378 C382 1.524 . S
C379 C371 1.503 . S
C379 C378 1.370 . S
C379 C380 1.403 . S
C380 C379 1.403 . S
C380 C381 1.404 . S
C380 C383 1.539 . S
C381 C377 1.408 . S
C381 C380 1.404 . S
C381 H393 0.930 . S
C382 C378 1.524 . S
C382 H394 0.956 . S
C382 H395 0.961 . S
C382 H396 0.961 . S
C383 C380 1.539 . S
C383 H397 0.958 . S
C383 H398 0.961 . S
C383 H399 0.960 . S
H384 C368 0.931 . S
H385 C373 0.929 . S
H386 C374 0.960 . S
H387 C374 0.962 . S
H388 C374 0.960 . S
H389 C375 0.961 . S
H390 C375 0.961 . S
H391 C375 0.961 . S
H392 C376 0.931 . S
H393 C381 0.930 . S
H394 C382 0.956 . S
H395 C382 0.961 . S
H396 C382 0.961 . S
H397 C383 0.958 . S
H398 C383 0.961 . S
H399 C383 0.960 . S
C400 C401 1.391 . S
C400 C402 1.394 . S
C400 H416 0.931 . S
C401 C400 1.391 . S
C401 C405 1.376 . S
C402 C400 1.394 . S
C402 C403 1.369 . S
C402 C406 1.531 . S
C403 C402 1.369 . S
C403 C404 1.410 . S
C403 C411 1.503 . S
C404 C403 1.410 . S
C404 C405 1.392 . S
C404 C407 1.511 . S
C405 C401 1.376 . S
C405 C404 1.392 . S
C405 H417 0.929 . S
C406 C402 1.531 . S
C406 H418 0.960 . S
C406 H419 0.962 . S
C406 H420 0.960 . S
C407 C404 1.511 . S
C407 H421 0.961 . S
C407 H422 0.961 . S
C407 H423 0.961 . S
C408 C409 1.370 . S
C408 C410 1.363 . S
C408 H424 0.931 . S
C409 C408 1.370 . S
C409 C413 1.408 . S
C410 C408 1.363 . S
C410 C411 1.370 . S
C410 C414 1.524 . S
C411 C403 1.503 . S
C411 C410 1.370 . S
C411 C412 1.403 . S
C412 C411 1.403 . S
C412 C413 1.404 . S
C412 C415 1.539 . S
C413 C409 1.408 . S
C413 C412 1.404 . S
C413 H425 0.930 . S
C414 C410 1.524 . S
C414 H426 0.956 . S
C414 H427 0.961 . S
C414 H428 0.961 . S
C415 C412 1.539 . S
C415 H429 0.958 . S
C415 H430 0.961 . S
C415 H431 0.960 . S
H416 C400 0.931 . S
H417 C405 0.929 . S
H418 C406 0.960 . S
H419 C406 0.962 . S
H420 C406 0.960 . S
H421 C407 0.961 . S
H422 C407 0.961 . S
H423 C407 0.961 . S
H424 C408 0.931 . S
H425 C413 0.930 . S
H426 C414 0.956 . S
H427 C414 0.961 . S
H428 C414 0.961 . S
H429 C415 0.958 . S
H430 C415 0.961 . S
H431 C415 0.960 . S
C432 C433 1.391 . S
C432 C434 1.394 . S
C432 H448 0.931 . S
C433 C432 1.391 . S
C433 C437 1.376 . S
C434 C432 1.394 . S
C434 C435 1.369 . S
C434 C438 1.531 . S
C435 C434 1.369 . S
C435 C436 1.410 . S
C435 C443 1.503 . S
C436 C435 1.410 . S
C436 C437 1.392 . S
C436 C439 1.511 . S
C437 C433 1.376 . S
C437 C436 1.392 . S
C437 H449 0.929 . S
C438 C434 1.531 . S
C438 H450 0.960 . S
C438 H451 0.962 . S
C438 H452 0.960 . S
C439 C436 1.511 . S
C439 H453 0.961 . S
C439 H454 0.961 . S
C439 H455 0.961 . S
C440 C441 1.370 . S
C440 C442 1.363 . S
C440 H456 0.931 . S
C441 C440 1.370 . S
C441 C445 1.408 . S
C442 C440 1.363 . S
C442 C443 1.370 . S
C442 C446 1.524 . S
C443 C435 1.503 . S
C443 C442 1.370 . S
C443 C444 1.403 . S
C444 C443 1.403 . S
C444 C445 1.404 . S
C444 C447 1.539 . S
C445 C441 1.408 . S
C445 C444 1.404 . S
C445 H457 0.930 . S
C446 C442 1.524 . S
C446 H458 0.956 . S
C446 H459 0.961 . S
C446 H460 0.961 . S
C447 C444 1.539 . S
C447 H461 0.958 . S
C447 H462 0.961 . S
C447 H463 0.960 . S
H448 C432 0.931 . S
H449 C437 0.929 . S
H450 C438 0.960 . S
H451 C438 0.962 . S
H452 C438 0.960 . S
H453 C439 0.961 . S
H454 C439 0.961 . S
H455 C439 0.961 . S
H456 C440 0.931 . S
H457 C445 0.930 . S
H458 C446 0.956 . S
H459 C446 0.961 . S
H460 C446 0.961 . S
H461 C447 0.958 . S
H462 C447 0.961 . S
H463 C447 0.960 . S
C464 C465 1.391 . S
C464 C466 1.394 . S
C464 H480 0.931 . S
C465 C464 1.391 . S
C465 C469 1.376 . S
C466 C464 1.394 . S
C466 C467 1.369 . S
C466 C470 1.531 . S
C467 C466 1.369 . S
C467 C468 1.410 . S
C467 C475 1.503 . S
C468 C467 1.410 . S
C468 C469 1.392 . S
C468 C471 1.511 . S
C469 C465 1.376 . S
C469 C468 1.392 . S
C469 H481 0.929 . S
C470 C466 1.531 . S
C470 H482 0.960 . S
C470 H483 0.962 . S
C470 H484 0.960 . S
C471 C468 1.511 . S
C471 H485 0.961 . S
C471 H486 0.961 . S
C471 H487 0.961 . S
C472 C473 1.370 . S
C472 C474 1.363 . S
C472 H488 0.931 . S
C473 C472 1.370 . S
C473 C477 1.408 . S
C474 C472 1.363 . S
C474 C475 1.370 . S
C474 C478 1.524 . S
C475 C467 1.503 . S
C475 C474 1.370 . S
C475 C476 1.403 . S
C476 C475 1.403 . S
C476 C477 1.404 . S
C476 C479 1.539 . S
C477 C473 1.408 . S
C477 C476 1.404 . S
C477 H489 0.930 . S
C478 C474 1.524 . S
C478 H490 0.956 . S
C478 H491 0.961 . S
C478 H492 0.961 . S
C479 C476 1.539 . S
C479 H493 0.958 . S
C479 H494 0.961 . S
C479 H495 0.960 . S
H480 C464 0.931 . S
H481 C469 0.929 . S
H482 C470 0.960 . S
H483 C470 0.962 . S
H484 C470 0.960 . S
H485 C471 0.961 . S
H486 C471 0.961 . S
H487 C471 0.961 . S
H488 C472 0.931 . S
H489 C477 0.930 . S
H490 C478 0.956 . S
H491 C478 0.961 . S
H492 C478 0.961 . S
H493 C479 0.958 . S
H494 C479 0.961 . S
H495 C479 0.960 . S
C496 C497 1.391 . S
C496 C498 1.394 . S
C496 H512 0.931 . S
C497 C496 1.391 . S
C497 C501 1.376 . S
C498 C496 1.394 . S
C498 C499 1.369 . S
C498 C502 1.531 . S
C499 C498 1.369 . S
C499 C500 1.410 . S
C499 C507 1.503 . S
C500 C499 1.410 . S
C500 C501 1.392 . S
C500 C503 1.511 . S
C501 C497 1.376 . S
C501 C500 1.392 . S
C501 H513 0.929 . S
C502 C498 1.531 . S
C502 H514 0.960 . S
C502 H515 0.962 . S
C502 H516 0.960 . S
C503 C500 1.511 . S
C503 H517 0.961 . S
C503 H518 0.961 . S
C503 H519 0.961 . S
C504 C505 1.370 . S
C504 C506 1.363 . S
C504 H520 0.931 . S
C505 C504 1.370 . S
C505 C509 1.408 . S
C506 C504 1.363 . S
C506 C507 1.370 . S
C506 C510 1.524 . S
C507 C499 1.503 . S
C507 C506 1.370 . S
C507 C508 1.403 . S
C508 C507 1.403 . S
C508 C509 1.404 . S
C508 C511 1.539 . S
C509 C505 1.408 . S
C509 C508 1.404 . S
C509 H521 0.930 . S
C510 C506 1.524 . S
C510 H522 0.956 . S
C510 H523 0.961 . S
C510 H524 0.961 . S
C511 C508 1.539 . S
C511 H525 0.958 . S
C511 H526 0.961 . S
C511 H527 0.960 . S
H512 C496 0.931 . S
H513 C501 0.929 . S
H514 C502 0.960 . S
H515 C502 0.962 . S
H516 C502 0.960 . S
H517 C503 0.961 . S
H518 C503 0.961 . S
H519 C503 0.961 . S
H520 C504 0.931 . S
H521 C509 0.930 . S
H522 C510 0.956 . S
H523 C510 0.961 . S
H524 C510 0.961 . S
H525 C511 0.958 . S
H526 C511 0.961 . S
H527 C511 0.960 . S
C528 C529 1.391 . S
C528 C530 1.394 . S
C528 H544 0.931 . S
C529 C528 1.391 . S
C529 C533 1.376 . S
C530 C528 1.394 . S
C530 C531 1.369 . S
C530 C534 1.531 . S
C531 C530 1.369 . S
C531 C532 1.410 . S
C531 C539 1.503 . S
C532 C531 1.410 . S
C532 C533 1.392 . S
C532 C535 1.511 . S
C533 C529 1.376 . S
C533 C532 1.392 . S
C533 H545 0.929 . S
C534 C530 1.531 . S
C534 H546 0.960 . S
C534 H547 0.962 . S
C534 H548 0.960 . S
C535 C532 1.511 . S
C535 H549 0.961 . S
C535 H550 0.961 . S
C535 H551 0.961 . S
C536 C537 1.370 . S
C536 C538 1.363 . S
C536 H552 0.931 . S
C537 C536 1.370 . S
C537 C541 1.408 . S
C538 C536 1.363 . S
C538 C539 1.370 . S
C538 C542 1.524 . S
C539 C531 1.503 . S
C539 C538 1.370 . S
C539 C540 1.403 . S
C540 C539 1.403 . S
C540 C541 1.404 . S
C540 C543 1.539 . S
C541 C537 1.408 . S
C541 C540 1.404 . S
C541 H553 0.930 . S
C542 C538 1.524 . S
C542 H554 0.956 . S
C542 H555 0.961 . S
C542 H556 0.961 . S
C543 C540 1.539 . S
C543 H557 0.958 . S
C543 H558 0.961 . S
C543 H559 0.960 . S
H544 C528 0.931 . S
H545 C533 0.929 . S
H546 C534 0.960 . S
H547 C534 0.962 . S
H548 C534 0.960 . S
H549 C535 0.961 . S
H550 C535 0.961 . S
H551 C535 0.961 . S
H552 C536 0.931 . S
H553 C541 0.930 . S
H554 C542 0.956 . S
H555 C542 0.961 . S
H556 C542 0.961 . S
H557 C543 0.958 . S
H558 C543 0.961 . S
H559 C543 0.960 . S
C560 C561 1.391 . S
C560 C562 1.394 . S
C560 H576 0.931 . S
C561 C560 1.391 . S
C561 C565 1.376 . S
C562 C560 1.394 . S
C562 C563 1.369 . S
C562 C566 1.531 . S
C563 C562 1.369 . S
C563 C564 1.410 . S
C563 C571 1.503 1_554 S
C564 C563 1.410 . S
C564 C565 1.392 . S
C564 C567 1.511 1_554 S
C565 C561 1.376 . S
C565 C564 1.392 . S
C565 H577 0.929 . S
C566 C562 1.531 . S
C566 H578 0.960 . S
C566 H579 0.962 . S
C566 H580 0.960 . S
C567 C564 1.511 1_556 S
C567 H581 0.965 . S
C567 H582 0.961 . S
C567 H583 0.961 . S
C568 C569 1.370 . S
C568 C570 1.363 . S
C568 H584 0.931 . S
C569 C568 1.370 . S
C569 C573 1.408 . S
C570 C568 1.363 . S
C570 C571 1.370 . S
C570 C574 1.524 . S
C571 C563 1.503 1_556 S
C571 C570 1.370 . S
C571 C572 1.403 . S
C572 C571 1.403 . S
C572 C573 1.404 . S
C572 C575 1.539 . S
C573 C569 1.408 . S
C573 C572 1.404 . S
C573 H585 0.930 . S
C574 C570 1.524 . S
C574 H586 0.956 1_556 S
C574 H587 0.961 . S
C574 H588 0.961 . S
C575 C572 1.539 . S
C575 H589 0.958 . S
C575 H590 0.961 . S
C575 H591 1.000 . S
H576 C560 0.931 . S
H577 C565 0.929 . S
H578 C566 0.960 . S
H579 C566 0.962 . S
H580 C566 0.960 . S
H581 C567 0.965 . S
H582 C567 0.961 . S
H583 C567 0.961 . S
H584 C568 0.931 . S
H585 C573 0.930 . S
H586 C574 0.956 1_554 S
H587 C574 0.961 . S
H588 C574 0.961 . S
H589 C575 0.958 . S
H590 C575 0.961 . S
H591 C575 1.000 . S
C592 C593 1.391 . S
C592 C594 1.394 . S
C592 H608 0.931 . S
C593 C592 1.391 . S
C593 C597 1.376 . S
C594 C592 1.394 . S
C594 C595 1.369 . S
C594 C598 1.531 1_554 S
C595 C594 1.369 . S
C595 C596 1.410 . S
C595 C603 1.503 1_554 S
C596 C595 1.410 . S
C596 C597 1.392 . S
C596 C599 1.511 . S
C597 C593 1.376 . S
C597 C596 1.392 . S
C597 H609 0.929 . S
C598 C594 1.531 1_556 S
C598 H610 0.960 . S
C598 H611 0.962 . S
C598 H612 0.969 . S
C599 C596 1.511 . S
C599 H613 0.961 . S
C599 H614 0.961 . S
C599 H615 0.961 . S
C600 C601 1.370 . S
C600 C602 1.363 . S
C600 H616 0.931 . S
C601 C600 1.370 . S
C601 C605 1.408 . S
C602 C600 1.363 . S
C602 C603 1.370 . S
C602 C606 1.524 . S
C603 C595 1.503 1_556 S
C603 C602 1.370 . S
C603 C604 1.403 . S
C604 C603 1.403 . S
C604 C605 1.404 . S
C604 C607 1.539 . S
C605 C601 1.408 . S
C605 C604 1.404 . S
C605 H617 0.930 . S
C606 C602 1.524 . S
C606 H618 0.969 . S
C606 H619 0.961 1_556 S
C606 H620 0.961 . S
C607 C604 1.539 . S
C607 H621 0.958 . S
C607 H622 0.961 . S
C607 H623 0.960 . S
H608 C592 0.931 . S
H609 C597 0.929 . S
H610 C598 0.960 . S
H611 C598 0.962 . S
H612 C598 0.969 . S
H613 C599 0.961 . S
H614 C599 0.961 . S
H615 C599 0.961 . S
H616 C600 0.931 . S
H617 C605 0.930 . S
H618 C606 0.969 . S
H619 C606 0.961 1_554 S
H620 C606 0.961 . S
H621 C607 0.958 . S
H622 C607 0.961 . S
H623 C607 0.960 . S
C624 C625 1.391 . S
C624 C626 1.394 . S
C624 H640 0.931 . S
C625 C624 1.391 . S
C625 C629 1.376 . S
C626 C624 1.394 . S
C626 C627 1.369 . S
C626 C630 1.531 . S
C627 C626 1.369 . S
C627 C628 1.410 . S
C627 C635 1.503 . S
C628 C627 1.410 . S
C628 C629 1.392 . S
C628 C631 1.511 . S
C629 C625 1.376 . S
C629 C628 1.392 . S
C629 H641 0.929 . S
C630 C626 1.531 . S
C630 H642 0.960 . S
C630 H643 0.962 . S
C630 H644 0.960 . S
C631 C628 1.511 . S
C631 H645 0.961 . S
C631 H646 0.961 . S
C631 H647 0.961 . S
C632 C633 1.370 . S
C632 C634 1.363 . S
C632 H648 0.931 . S
C633 C632 1.370 . S
C633 C637 1.408 . S
C634 C632 1.363 . S
C634 C635 1.370 . S
C634 C638 1.524 . S
C635 C627 1.503 . S
C635 C634 1.370 . S
C635 C636 1.403 . S
C636 C635 1.403 . S
C636 C637 1.404 . S
C636 C639 1.539 . S
C637 C633 1.408 . S
C637 C636 1.404 . S
C637 H649 0.930 . S
C638 C634 1.524 . S
C638 H650 0.956 . S
C638 H651 0.961 . S
C638 H652 0.961 . S
C639 C636 1.539 . S
C639 H653 0.958 . S
C639 H654 0.961 . S
C639 H655 0.960 . S
H640 C624 0.931 . S
H641 C629 0.929 . S
H642 C630 0.960 . S
H643 C630 0.962 . S
H644 C630 0.960 . S
H645 C631 0.961 . S
H646 C631 0.961 . S
H647 C631 0.961 . S
H648 C632 0.931 . S
H649 C637 0.930 . S
H650 C638 0.956 . S
H651 C638 0.961 . S
H652 C638 0.961 . S
H653 C639 0.958 . S
H654 C639 0.961 . S
H655 C639 0.960 . S
C656 C657 1.391 . S
C656 C658 1.394 . S
C656 H672 0.931 . S
C657 C656 1.391 . S
C657 C661 1.376 . S
C658 C656 1.394 . S
C658 C659 1.369 . S
C658 C662 1.531 . S
C659 C658 1.369 . S
C659 C660 1.410 . S
C659 C667 1.503 . S
C660 C659 1.410 . S
C660 C661 1.392 . S
C660 C663 1.511 . S
C661 C657 1.376 . S
C661 C660 1.392 . S
C661 H673 0.929 . S
C662 C658 1.531 . S
C662 H674 0.960 . S
C662 H675 0.962 . S
C662 H676 0.960 . S
C663 C660 1.511 . S
C663 H677 0.961 . S
C663 H678 0.961 . S
C663 H679 0.961 . S
C664 C665 1.370 . S
C664 C666 1.363 . S
C664 H680 0.931 . S
C665 C664 1.370 . S
C665 C669 1.408 . S
C666 C664 1.363 . S
C666 C667 1.370 . S
C666 C670 1.524 . S
C667 C659 1.503 . S
C667 C666 1.370 . S
C667 C668 1.403 . S
C668 C667 1.403 . S
C668 C669 1.404 . S
C668 C671 1.539 . S
C669 C665 1.408 . S
C669 C668 1.404 . S
C669 H681 0.930 . S
C670 C666 1.524 . S
C670 H682 0.956 . S
C670 H683 0.961 . S
C670 H684 0.961 . S
C671 C668 1.539 . S
C671 H685 0.958 . S
C671 H686 0.961 . S
C671 H687 0.960 . S
H672 C656 0.931 . S
H673 C661 0.929 . S
H674 C662 0.960 . S
H675 C662 0.962 . S
H676 C662 0.960 . S
H677 C663 0.961 . S
H678 C663 0.961 . S
H679 C663 0.961 . S
H680 C664 0.931 . S
H681 C669 0.930 . S
H682 C670 0.956 . S
H683 C670 0.961 . S
H684 C670 0.961 . S
H685 C671 0.958 . S
H686 C671 0.961 . S
H687 C671 0.960 . S
C688 C689 1.391 . S
C688 C690 1.394 . S
C688 H704 0.931 . S
C689 C688 1.391 . S
C689 C693 1.376 . S
C690 C688 1.394 . S
C690 C691 1.369 . S
C690 C694 1.531 . S
C691 C690 1.369 . S
C691 C692 1.410 . S
C691 C699 1.503 . S
C692 C691 1.410 . S
C692 C693 1.392 . S
C692 C695 1.511 . S
C693 C689 1.376 . S
C693 C692 1.392 . S
C693 H705 0.929 . S
C694 C690 1.531 . S
C694 H706 0.960 . S
C694 H707 0.962 . S
C694 H708 0.960 . S
C695 C692 1.511 . S
C695 H709 0.961 . S
C695 H710 0.961 . S
C695 H711 0.961 . S
C696 C697 1.370 . S
C696 C698 1.363 . S
C696 H712 0.931 . S
C697 C696 1.370 . S
C697 C701 1.408 . S
C698 C696 1.363 . S
C698 C699 1.370 . S
C698 C702 1.524 . S
C699 C691 1.503 . S
C699 C698 1.370 . S
C699 C700 1.403 . S
C700 C699 1.403 . S
C700 C701 1.404 . S
C700 C703 1.539 . S
C701 C697 1.408 . S
C701 C700 1.404 . S
C701 H713 0.930 . S
C702 C698 1.524 . S
C702 H714 0.956 . S
C702 H715 0.961 . S
C702 H716 0.961 . S
C703 C700 1.539 . S
C703 H717 0.958 . S
C703 H718 0.961 . S
C703 H719 0.960 . S
H704 C688 0.931 . S
H705 C693 0.929 . S
H706 C694 0.960 . S
H707 C694 0.962 . S
H708 C694 0.960 . S
H709 C695 0.961 . S
H710 C695 0.961 . S
H711 C695 0.961 . S
H712 C696 0.931 . S
H713 C701 0.930 . S
H714 C702 0.956 . S
H715 C702 0.961 . S
H716 C702 0.961 . S
H717 C703 0.958 . S
H718 C703 0.961 . S
H719 C703 0.960 . S
C720 C721 1.391 . S
C720 C722 1.394 . S
C720 H736 0.931 . S
C721 C720 1.391 . S
C721 C725 1.376 . S
C722 C720 1.394 . S
C722 C723 1.369 . S
C722 C726 1.531 1_455 S
C723 C722 1.369 . S
C723 C724 1.410 1_545 S
C723 C731 1.503 1_445 S
C724 C723 1.410 1_565 S
C724 C725 1.392 1_565 S
C724 C727 1.511 . S
C725 C721 1.376 . S
C725 C724 1.392 1_545 S
C725 H737 0.929 . S
C726 C722 1.531 1_655 S
C726 H738 0.960 . S
C726 H739 0.962 . S
C726 H740 0.960 1_655 S
C727 C724 1.511 . S
C727 H741 0.961 . S
C727 H742 0.961 . S
C727 H743 0.961 . S
C728 C729 1.370 . S
C728 C730 1.363 . S
C728 H744 0.931 . S
C729 C728 1.370 . S
C729 C733 1.408 . S
C730 C728 1.363 . S
C730 C731 1.370 . S
C730 C734 1.524 1_565 S
C731 C723 1.503 1_665 S
C731 C730 1.370 . S
C731 C732 1.403 . S
C732 C731 1.403 . S
C732 C733 1.404 . S
C732 C735 1.539 1_655 S
C733 C729 1.408 . S
C733 C732 1.404 . S
C733 H745 0.930 . S
C734 C730 1.524 1_545 S
C734 H746 0.956 . S
C734 H747 0.961 . S
C734 H748 0.961 . S
C735 C732 1.539 1_455 S
C735 H749 0.958 1_455 S
C735 H750 0.961 1_455 S
C735 H751 0.960 . S
H736 C720 0.931 . S
H737 C725 0.929 . S
H738 C726 0.960 . S
H739 C726 0.962 . S
H740 C726 0.960 1_455 S
H741 C727 0.961 . S
H742 C727 0.961 . S
H743 C727 0.961 . S
H744 C728 0.931 . S
H745 C733 0.930 . S
H746 C734 0.956 . S
H747 C734 0.961 . S
H748 C734 0.961 . S
H749 C735 0.958 1_655 S
H750 C735 0.961 1_655 S
H751 C735 0.960 . S
C752 C753 1.391 . S
C752 C754 1.394 . S
C752 H768 0.931 . S
C753 C752 1.391 . S
C753 C757 1.376 . S
C754 C752 1.394 . S
C754 C755 1.369 . S
C754 C758 1.531 . S
C755 C754 1.369 . S
C755 C756 1.410 1_455 S
C755 C763 1.503 1_455 S
C756 C755 1.410 1_655 S
C756 C757 1.392 1_655 S
C756 C759 1.511 . S
C757 C753 1.376 . S
C757 C756 1.392 1_455 S
C757 H769 0.929 . S
C758 C754 1.531 . S
C758 H770 0.960 . S
C758 H771 0.962 . S
C758 H772 0.960 . S
C759 C756 1.511 . S
C759 H773 0.961 . S
C759 H774 0.961 . S
C759 H775 0.961 . S
C760 C761 1.370 . S
C760 C762 1.363 . S
C760 H776 0.931 . S
C761 C760 1.370 . S
C761 C765 1.408 . S
C762 C760 1.363 . S
C762 C763 1.370 . S
C762 C766 1.524 1_655 S
C763 C755 1.503 1_655 S
C763 C762 1.370 . S
C763 C764 1.403 . S
C764 C763 1.403 . S
C764 C765 1.404 . S
C764 C767 1.539 . S
C765 C761 1.408 . S
C765 C764 1.404 . S
C765 H777 0.930 . S
C766 C762 1.524 1_455 S
C766 H778 0.956 . S
C766 H779 0.961 . S
C766 H780 0.961 . S
C767 C764 1.539 . S
C767 H781 0.958 . S
C767 H782 0.961 . S
C767 H783 0.960 . S
H768 C752 0.931 . S
H769 C757 0.929 . S
H770 C758 0.960 . S
H771 C758 0.962 . S
H772 C758 0.960 . S
H773 C759 0.961 . S
H774 C759 0.961 . S
H775 C759 0.961 . S
H776 C760 0.931 . S
H777 C765 0.930 . S
H778 C766 0.956 . S
H779 C766 0.961 . S
H780 C766 0.961 . S
H781 C767 0.958 . S
H782 C767 0.961 . S
H783 C767 0.960 . S
C784 C785 1.391 . S
C784 C786 1.394 . S
C784 H800 0.931 . S
C785 C784 1.391 . S
C785 C789 1.376 . S
C786 C784 1.394 . S
C786 C787 1.369 . S
C786 C790 1.531 . S
C787 C786 1.369 . S
C787 C788 1.410 . S
C787 C795 1.503 . S
C788 C787 1.410 . S
C788 C789 1.392 . S
C788 C791 1.511 . S
C789 C785 1.376 . S
C789 C788 1.392 . S
C789 H801 0.929 . S
C790 C786 1.531 . S
C790 H802 0.960 . S
C790 H803 0.962 . S
C790 H804 0.960 . S
C791 C788 1.511 . S
C791 H805 0.961 . S
C791 H806 0.961 . S
C791 H807 0.961 . S
C792 C793 1.370 . S
C792 C794 1.363 . S
C792 H808 0.931 . S
C793 C792 1.370 . S
C793 C797 1.408 . S
C794 C792 1.363 . S
C794 C795 1.370 . S
C794 C798 1.524 . S
C795 C787 1.503 . S
C795 C794 1.370 . S
C795 C796 1.403 . S
C796 C795 1.403 . S
C796 C797 1.404 . S
C796 C799 1.539 . S
C797 C793 1.408 . S
C797 C796 1.404 . S
C797 H809 0.930 . S
C798 C794 1.524 . S
C798 H810 0.956 . S
C798 H811 0.961 . S
C798 H812 0.961 . S
C799 C796 1.539 . S
C799 H813 0.958 . S
C799 H814 0.961 . S
C799 H815 0.960 . S
H800 C784 0.931 . S
H801 C789 0.929 . S
H802 C790 0.960 . S
H803 C790 0.962 . S
H804 C790 0.960 . S
H805 C791 0.961 . S
H806 C791 0.961 . S
H807 C791 0.961 . S
H808 C792 0.931 . S
H809 C797 0.930 . S
H810 C798 0.956 . S
H811 C798 0.961 . S
H812 C798 0.961 . S
H813 C799 0.958 . S
H814 C799 0.961 . S
H815 C799 0.960 . S
C816 C817 1.391 . S
C816 C818 1.394 . S
C816 H832 0.931 . S
C817 C816 1.391 . S
C817 C821 1.376 . S
C818 C816 1.394 . S
C818 C819 1.369 . S
C818 C822 1.531 . S
C819 C818 1.369 . S
C819 C820 1.410 . S
C819 C827 1.503 1_545 S
C820 C819 1.410 . S
C820 C821 1.392 . S
C820 C823 1.511 . S
C821 C817 1.376 . S
C821 C820 1.392 . S
C821 H833 0.929 . S
C822 C818 1.531 . S
C822 H834 0.960 . S
C822 H835 0.962 1_545 S
C822 H836 0.960 . S
C823 C820 1.511 . S
C823 H837 0.961 . S
C823 H838 0.961 . S
C823 H839 0.961 . S
C824 C825 1.370 . S
C824 C826 1.363 . S
C824 H840 0.931 . S
C825 C824 1.370 . S
C825 C829 1.408 . S
C826 C824 1.363 . S
C826 C827 1.370 . S
C826 C830 1.524 . S
C827 C819 1.503 1_565 S
C827 C826 1.370 . S
C827 C828 1.403 . S
C828 C827 1.403 . S
C828 C829 1.404 . S
C828 C831 1.539 1_565 S
C829 C825 1.408 . S
C829 C828 1.404 . S
C829 H841 0.930 . S
C830 C826 1.524 . S
C830 H842 0.956 . S
C830 H843 0.961 . S
C830 H844 0.961 . S
C831 C828 1.539 1_545 S
C831 H845 0.958 . S
C831 H846 0.961 . S
C831 H847 0.960 . S
H832 C816 0.931 . S
H833 C821 0.929 . S
H834 C822 0.960 . S
H835 C822 0.962 1_565 S
H836 C822 0.960 . S
H837 C823 0.961 . S
H838 C823 0.961 . S
H839 C823 0.961 . S
H840 C824 0.931 . S
H841 C829 0.930 . S
H842 C830 0.956 . S
H843 C830 0.961 . S
H844 C830 0.961 . S
H845 C831 0.958 . S
H846 C831 0.961 . S
H847 C831 0.960 . S
C848 C849 1.391 . S
C848 C850 1.394 . S
C848 H864 0.931 . S
C849 C848 1.391 . S
C849 C853 1.376 . S
C850 C848 1.394 . S
C850 C851 1.369 . S
C850 C854 1.531 . S
C851 C850 1.369 . S
C851 C852 1.410 . S
C851 C859 1.503 1_455 S
C852 C851 1.410 . S
C852 C853 1.392 . S
C852 C855 1.511 . S
C853 C849 1.376 . S
C853 C852 1.392 . S
C853 H865 0.929 . S
C854 C850 1.531 . S
C854 H866 0.960 1_455 S
C854 H867 0.962 1_455 S
C854 H868 0.960 . S
C855 C852 1.511 . S
C855 H869 0.961 . S
C855 H870 0.961 . S
C855 H871 0.961 . S
C856 C857 1.370 . S
C856 C858 1.363 . S
C856 H872 0.931 . S
C857 C856 1.370 . S
C857 C861 1.408 . S
C858 C856 1.363 . S
C858 C859 1.370 . S
C858 C862 1.524 . S
C859 C851 1.503 1_655 S
C859 C858 1.370 . S
C859 C860 1.403 . S
C860 C859 1.403 . S
C860 C861 1.404 . S
C860 C863 1.539 1_655 S
C861 C857 1.408 . S
C861 C860 1.404 . S
C861 H873 0.930 . S
C862 C858 1.524 . S
C862 H874 0.956 . S
C862 H875 0.961 . S
C862 H876 0.961 . S
C863 C860 1.539 1_455 S
C863 H877 0.958 . S
C863 H878 0.961 . S
C863 H879 0.960 . S
H864 C848 0.931 . S
H865 C853 0.929 . S
H866 C854 0.960 1_655 S
H867 C854 0.962 1_655 S
H868 C854 0.960 . S
H869 C855 0.961 . S
H870 C855 0.961 . S
H871 C855 0.961 . S
H872 C856 0.931 . S
H873 C861 0.930 . S
H874 C862 0.956 . S
H875 C862 0.961 . S
H876 C862 0.961 . S
H877 C863 0.958 . S
H878 C863 0.961 . S
H879 C863 0.960 . S
C880 C881 1.391 . S
C880 C882 1.394 . S
C880 H896 0.931 . S
C881 C880 1.391 . S
C881 C885 1.376 . S
C882 C880 1.394 . S
C882 C883 1.369 . S
C882 C886 1.531 . S
C883 C882 1.369 . S
C883 C884 1.410 . S
C883 C891 1.503 . S
C884 C883 1.410 . S
C884 C885 1.392 . S
C884 C887 1.511 . S
C885 C881 1.376 . S
C885 C884 1.392 . S
C885 H897 0.929 . S
C886 C882 1.531 . S
C886 H898 0.960 . S
C886 H899 0.962 . S
C886 H900 0.960 . S
C887 C884 1.511 . S
C887 H901 0.961 . S
C887 H902 0.961 . S
C887 H903 0.961 . S
C888 C889 1.370 . S
C888 C890 1.363 . S
C888 H904 0.931 . S
C889 C888 1.370 . S
C889 C893 1.408 . S
C890 C888 1.363 . S
C890 C891 1.370 . S
C890 C894 1.524 . S
C891 C883 1.503 . S
C891 C890 1.370 . S
C891 C892 1.403 . S
C892 C891 1.403 . S
C892 C893 1.404 . S
C892 C895 1.539 . S
C893 C889 1.408 . S
C893 C892 1.404 . S
C893 H905 0.930 . S
C894 C890 1.524 . S
C894 H906 0.956 . S
C894 H907 0.961 . S
C894 H908 0.961 . S
C895 C892 1.539 . S
C895 H909 0.958 . S
C895 H910 0.961 . S
C895 H911 0.960 . S
H896 C880 0.931 . S
H897 C885 0.929 . S
H898 C886 0.960 . S
H899 C886 0.962 . S
H900 C886 0.960 . S
H901 C887 0.961 . S
H902 C887 0.961 . S
H903 C887 0.961 . S
H904 C888 0.931 . S
H905 C893 0.930 . S
H906 C894 0.956 . S
H907 C894 0.961 . S
H908 C894 0.961 . S
H909 C895 0.958 . S
H910 C895 0.961 . S
H911 C895 0.960 . S
C912 C913 1.391 . S
C912 C914 1.394 1_565 S
C912 H928 0.931 1_565 S
C913 C912 1.391 . S
C913 C917 1.376 . S
C914 C912 1.394 1_545 S
C914 C915 1.369 1_545 S
C914 C918 1.531 . S
C915 C914 1.369 1_565 S
C915 C916 1.410 . S
C915 C923 1.503 1_565 S
C916 C915 1.410 . S
C916 C917 1.392 . S
C916 C919 1.511 . S
C917 C913 1.376 . S
C917 C916 1.392 . S
C917 H929 0.929 . S
C918 C914 1.531 . S
C918 H930 0.960 . S
C918 H931 0.962 . S
C918 H932 0.960 . S
C919 C916 1.511 . S
C919 H933 0.961 . S
C919 H934 0.961 . S
C919 H935 0.961 . S
C920 C921 1.370 . S
C920 C922 1.363 . S
C920 H936 0.931 . S
C921 C920 1.370 . S
C921 C925 1.408 . S
C922 C920 1.363 . S
C922 C923 1.370 . S
C922 C926 1.524 1_545 S
C923 C915 1.503 1_545 S
C923 C922 1.370 . S
C923 C924 1.403 . S
C924 C923 1.403 . S
C924 C925 1.404 . S
C924 C927 1.539 . S
C925 C921 1.408 . S
C925 C924 1.404 . S
C925 H937 0.930 . S
C926 C922 1.524 1_565 S
C926 H938 0.956 1_565 S
C926 H939 0.961 . S
C926 H940 0.961 . S
C927 C924 1.539 . S
C927 H941 0.958 . S
C927 H942 0.961 . S
C927 H943 0.960 . S
H928 C912 0.931 1_545 S
H929 C917 0.929 . S
H930 C918 0.960 . S
H931 C918 0.962 . S
H932 C918 0.960 . S
H933 C919 0.961 . S
H934 C919 0.961 . S
H935 C919 0.961 . S
H936 C920 0.931 . S
H937 C925 0.930 . S
H938 C926 0.956 1_545 S
H939 C926 0.961 . S
H940 C926 0.961 . S
H941 C927 0.958 . S
H942 C927 0.961 . S
H943 C927 0.960 . S
C944 C945 1.391 . S
C944 C946 1.394 . S
C944 H960 0.931 . S
C945 C944 1.391 . S
C945 C949 1.376 . S
C946 C944 1.394 . S
C946 C947 1.369 . S
C946 C950 1.531 . S
C947 C946 1.369 . S
C947 C948 1.410 1_455 S
C947 C955 1.503 1_445 S
C948 C947 1.410 1_655 S
C948 C949 1.392 1_655 S
C948 C951 1.511 . S
C949 C945 1.376 . S
C949 C948 1.392 1_455 S
C949 H961 0.929 . S
C950 C946 1.531 . S
C950 H962 0.960 1_545 S
C950 H963 0.962 1_545 S
C950 H964 0.960 . S
C951 C948 1.511 . S
C951 H965 0.961 . S
C951 H966 0.961 . S
C951 H967 0.961 . S
C952 C953 1.370 . S
C952 C954 1.363 1_655 S
C952 H968 0.931 . S
C953 C952 1.370 . S
C953 C957 1.408 . S
C954 C952 1.363 1_455 S
C954 C955 1.370 1_455 S
C954 C958 1.524 . S
C955 C947 1.503 1_665 S
C955 C954 1.370 1_655 S
C955 C956 1.403 . S
C956 C955 1.403 . S
C956 C957 1.404 . S
C956 C959 1.539 1_565 S
C957 C953 1.408 . S
C957 C956 1.404 . S
C957 H969 0.930 . S
C958 C954 1.524 . S
C958 H970 0.956 . S
C958 H971 0.961 . S
C958 H972 0.961 . S
C959 C956 1.539 1_545 S
C959 H973 0.958 . S
C959 H974 0.961 . S
C959 H975 0.960 . S
H960 C944 0.931 . S
H961 C949 0.929 . S
H962 C950 0.960 1_565 S
H963 C950 0.962 1_565 S
H964 C950 0.960 . S
H965 C951 0.961 . S
H966 C951 0.961 . S
H967 C951 0.961 . S
H968 C952 0.931 . S
H969 C957 0.930 . S
H970 C958 0.956 . S
H971 C958 0.961 . S
H972 C958 0.961 . S
H973 C959 0.958 . S
H974 C959 0.961 . S
H975 C959 0.960 . S
C976 C977 1.391 . S
C976 C978 1.394 . S
C976 H992 0.931 . S
C977 C976 1.391 . S
C977 C981 1.376 . S
C978 C976 1.394 . S
C978 C979 1.369 . S
C978 C982 1.531 . S
C979 C978 1.369 . S
C979 C980 1.410 . S
C979 C987 1.503 1_565 S
C980 C979 1.410 . S
C980 C981 1.392 . S
C980 C983 1.511 1_565 S
C981 C977 1.376 . S
C981 C980 1.392 . S
C981 H993 0.929 . S
C982 C978 1.531 . S
C982 H994 0.960 . S
C982 H995 0.962 . S
C982 H996 0.960 . S
C983 C980 1.511 1_545 S
C983 H997 0.961 . S
C983 H998 0.961 . S
C983 H999 0.961 . S
C984 C985 1.370 . S
C984 C986 1.363 . S
C984 H1000 0.931 . S
C985 C984 1.370 . S
C985 C989 1.408 . S
C986 C984 1.363 . S
C986 C987 1.370 . S
C986 C990 1.524 . S
C987 C979 1.503 1_545 S
C987 C986 1.370 . S
C987 C988 1.403 1_545 S
C988 C987 1.403 1_565 S
C988 C989 1.404 1_565 S
C988 C991 1.539 . S
C989 C985 1.408 . S
C989 C988 1.404 1_545 S
C989 H1001 0.930 1_545 S
C990 C986 1.524 . S
C990 H1002 0.956 . S
C990 H1003 0.961 . S
C990 H1004 0.961 . S
C991 C988 1.539 . S
C991 H1005 0.958 . S
C991 H1006 0.961 . S
C991 H1007 0.960 . S
H992 C976 0.931 . S
H993 C981 0.929 . S
H994 C982 0.960 . S
H995 C982 0.962 . S
H996 C982 0.960 . S
H997 C983 0.961 . S
H998 C983 0.961 . S
H999 C983 0.961 . S
H1000 C984 0.931 . S
H1001 C989 0.930 1_565 S
H1002 C990 0.956 . S
H1003 C990 0.961 . S
H1004 C990 0.961 . S
H1005 C991 0.958 . S
H1006 C991 0.961 . S
H1007 C991 0.960 . S
C1008 C1009 1.391 . S
C1008 C1010 1.394 1_655 S
C1008 H1024 0.931 1_655 S
C1009 C1008 1.391 . S
C1009 C1013 1.376 . S
C1010 C1008 1.394 1_455 S
C1010 C1011 1.369 1_455 S
C1010 C1014 1.531 . S
C1011 C1010 1.369 1_655 S
C1011 C1012 1.410 . S
C1011 C1019 1.503 1_665 S
C1012 C1011 1.410 . S
C1012 C1013 1.392 . S
C1012 C1015 1.511 1_565 S
C1013 C1009 1.376 . S
C1013 C1012 1.392 . S
C1013 H1025 0.929 . S
C1014 C1010 1.531 . S
C1014 H1026 0.960 . S
C1014 H1027 0.962 . S
C1014 H1028 0.960 . S
C1015 C1012 1.511 1_545 S
C1015 H1029 0.961 . S
C1015 H1030 0.961 . S
C1015 H1031 0.961 . S
C1016 C1017 1.370 . S
C1016 C1018 1.363 . S
C1016 H1032 0.931 . S
C1017 C1016 1.370 . S
C1017 C1021 1.408 . S
C1018 C1016 1.363 . S
C1018 C1019 1.370 . S
C1018 C1022 1.524 . S
C1019 C1011 1.503 1_445 S
C1019 C1018 1.370 . S
C1019 C1020 1.403 . S
C1020 C1019 1.403 . S
C1020 C1021 1.404 . S
C1020 C1023 1.539 . S
C1021 C1017 1.408 . S
C1021 C1020 1.404 . S
C1021 H1033 0.930 . S
C1022 C1018 1.524 . S
C1022 H1034 0.956 1_545 S
C1022 H1035 0.961 1_455 S
C1022 H1036 0.961 . S
C1023 C1020 1.539 . S
C1023 H1037 0.958 . S
C1023 H1038 0.961 . S
C1023 H1039 0.960 1_455 S
H1024 C1008 0.931 1_455 S
H1025 C1013 0.929 . S
H1026 C1014 0.960 . S
H1027 C1014 0.962 . S
H1028 C1014 0.960 . S
H1029 C1015 0.961 . S
H1030 C1015 0.961 . S
H1031 C1015 0.961 . S
H1032 C1016 0.931 . S
H1033 C1021 0.930 . S
H1034 C1022 0.956 1_565 S
H1035 C1022 0.961 1_655 S
H1036 C1022 0.961 . S
H1037 C1023 0.958 . S
H1038 C1023 0.961 . S
H1039 C1023 0.960 1_655 S
C1040 C1041 1.391 . S
C1040 C1042 1.394 . S
C1040 H1056 0.931 . S
C1041 C1040 1.391 . S
C1041 C1045 1.376 . S
C1042 C1040 1.394 . S
C1042 C1043 1.369 . S
C1042 C1046 1.531 1_455 S
C1043 C1042 1.369 . S
C1043 C1044 1.410 . S
C1043 C1051 1.503 1_455 S
C1044 C1043 1.410 . S
C1044 C1045 1.392 . S
C1044 C1047 1.511 . S
C1045 C1041 1.376 . S
C1045 C1044 1.392 . S
C1045 H1057 0.929 . S
C1046 C1042 1.531 1_655 S
C1046 H1058 0.960 . S
C1046 H1059 0.962 . S
C1046 H1060 0.960 . S
C1047 C1044 1.511 . S
C1047 H1061 0.961 . S
C1047 H1062 0.961 . S
C1047 H1063 0.961 . S
C1048 C1049 1.370 . S
C1048 C1050 1.363 . S
C1048 H1064 0.931 . S
C1049 C1048 1.370 . S
C1049 C1053 1.408 . S
C1050 C1048 1.363 . S
C1050 C1051 1.370 . S
C1050 C1054 1.524 1_655 S
C1051 C1043 1.503 1_655 S
C1051 C1050 1.370 . S
C1051 C1052 1.403 . S
C1052 C1051 1.403 . S
C1052 C1053 1.404 . S
C1052 C1055 1.539 . S
C1053 C1049 1.408 . S
C1053 C1052 1.404 . S
C1053 H1065 0.930 . S
C1054 C1050 1.524 1_455 S
C1054 H1066 0.956 . S
C1054 H1067 0.961 . S
C1054 H1068 0.961 1_455 S
C1055 C1052 1.539 . S
C1055 H1069 0.958 . S
C1055 H1070 0.961 . S
C1055 H1071 0.960 . S
H1056 C1040 0.931 . S
H1057 C1045 0.929 . S
H1058 C1046 0.960 . S
H1059 C1046 0.962 . S
H1060 C1046 0.960 . S
H1061 C1047 0.961 . S
H1062 C1047 0.961 . S
H1063 C1047 0.961 . S
H1064 C1048 0.931 . S
H1065 C1053 0.930 . S
H1066 C1054 0.956 . S
H1067 C1054 0.961 . S
H1068 C1054 0.961 1_655 S
H1069 C1055 0.958 . S
H1070 C1055 0.961 . S
H1071 C1055 0.960 . S
C1072 C1073 1.391 . S
C1072 C1074 1.394 . S
C1072 H1088 0.931 . S
C1073 C1072 1.391 . S
C1073 C1077 1.376 . S
C1074 C1072 1.394 . S
C1074 C1075 1.369 . S
C1074 C1078 1.531 . S
C1075 C1074 1.369 . S
C1075 C1076 1.410 . S
C1075 C1083 1.503 . S
C1076 C1075 1.410 . S
C1076 C1077 1.392 . S
C1076 C1079 1.511 . S
C1077 C1073 1.376 . S
C1077 C1076 1.392 . S
C1077 H1089 0.929 . S
C1078 C1074 1.531 . S
C1078 H1090 0.960 . S
C1078 H1091 0.962 . S
C1078 H1092 0.960 . S
C1079 C1076 1.511 . S
C1079 H1093 0.961 . S
C1079 H1094 0.961 . S
C1079 H1095 0.961 . S
C1080 C1081 1.370 . S
C1080 C1082 1.363 . S
C1080 H1096 0.931 . S
C1081 C1080 1.370 . S
C1081 C1085 1.408 . S
C1082 C1080 1.363 . S
C1082 C1083 1.370 . S
C1082 C1086 1.524 . S
C1083 C1075 1.503 . S
C1083 C1082 1.370 . S
C1083 C1084 1.403 . S
C1084 C1083 1.403 . S
C1084 C1085 1.404 . S
C1084 C1087 1.539 . S
C1085 C1081 1.408 . S
C1085 C1084 1.404 . S
C1085 H1097 0.930 . S
C1086 C1082 1.524 . S
C1086 H1098 0.956 . S
C1086 H1099 0.961 . S
C1086 H1100 0.961 . S
C1087 C1084 1.539 . S
C1087 H1101 0.958 . S
C1087 H1102 0.961 . S
C1087 H1103 0.960 . S
H1088 C1072 0.931 . S
H1089 C1077 0.929 . S
H1090 C1078 0.960 . S
H1091 C1078 0.962 . S
H1092 C1078 0.960 . S
H1093 C1079 0.961 . S
H1094 C1079 0.961 . S
H1095 C1079 0.961 . S
H1096 C1080 0.931 . S
H1097 C1085 0.930 . S
H1098 C1086 0.956 . S
H1099 C1086 0.961 . S
H1100 C1086 0.961 . S
H1101 C1087 0.958 . S
H1102 C1087 0.961 . S
H1103 C1087 0.960 . S
C1104 C1105 1.391 . S
C1104 C1106 1.394 . S
C1104 H1120 0.931 . S
C1105 C1104 1.391 . S
C1105 C1109 1.376 . S
C1106 C1104 1.394 . S
C1106 C1107 1.369 . S
C1106 C1110 1.531 . S
C1107 C1106 1.369 . S
C1107 C1108 1.410 . S
C1107 C1115 1.503 . S
C1108 C1107 1.410 . S
C1108 C1109 1.392 . S
C1108 C1111 1.511 . S
C1109 C1105 1.376 . S
C1109 C1108 1.392 . S
C1109 H1121 0.929 . S
C1110 C1106 1.531 . S
C1110 H1122 0.960 . S
C1110 H1123 0.962 . S
C1110 H1124 0.960 . S
C1111 C1108 1.511 . S
C1111 H1125 0.961 . S
C1111 H1126 0.961 . S
C1111 H1127 0.961 . S
C1112 C1113 1.370 . S
C1112 C1114 1.363 . S
C1112 H1128 0.931 . S
C1113 C1112 1.370 . S
C1113 C1117 1.408 . S
C1114 C1112 1.363 . S
C1114 C1115 1.370 . S
C1114 C1118 1.524 . S
C1115 C1107 1.503 . S
C1115 C1114 1.370 . S
C1115 C1116 1.403 . S
C1116 C1115 1.403 . S
C1116 C1117 1.404 . S
C1116 C1119 1.539 . S
C1117 C1113 1.408 . S
C1117 C1116 1.404 . S
C1117 H1129 0.930 . S
C1118 C1114 1.524 . S
C1118 H1130 0.956 . S
C1118 H1131 0.961 . S
C1118 H1132 0.961 . S
C1119 C1116 1.539 . S
C1119 H1133 0.958 . S
C1119 H1134 0.961 . S
C1119 H1135 0.960 . S
H1120 C1104 0.931 . S
H1121 C1109 0.929 . S
H1122 C1110 0.960 . S
H1123 C1110 0.962 . S
H1124 C1110 0.960 . S
H1125 C1111 0.961 . S
H1126 C1111 0.961 . S
H1127 C1111 0.961 . S
H1128 C1112 0.931 . S
H1129 C1117 0.930 . S
H1130 C1118 0.956 . S
H1131 C1118 0.961 . S
H1132 C1118 0.961 . S
H1133 C1119 0.958 . S
H1134 C1119 0.961 . S
H1135 C1119 0.960 . S
C1136 C1137 1.391 . S
C1136 C1138 1.394 . S
C1136 H1152 0.931 . S
C1137 C1136 1.391 . S
C1137 C1141 1.376 . S
C1138 C1136 1.394 . S
C1138 C1139 1.369 . S
C1138 C1142 1.531 1_545 S
C1139 C1138 1.369 . S
C1139 C1140 1.410 . S
C1139 C1147 1.503 1_545 S
C1140 C1139 1.410 . S
C1140 C1141 1.392 . S
C1140 C1143 1.511 . S
C1141 C1137 1.376 . S
C1141 C1140 1.392 . S
C1141 H1153 0.929 . S
C1142 C1138 1.531 1_565 S
C1142 H1154 0.960 . S
C1142 H1155 0.962 . S
C1142 H1156 0.960 . S
C1143 C1140 1.511 . S
C1143 H1157 0.961 . S
C1143 H1158 0.961 . S
C1143 H1159 0.961 . S
C1144 C1145 1.370 . S
C1144 C1146 1.363 . S
C1144 H1160 0.931 . S
C1145 C1144 1.370 . S
C1145 C1149 1.408 . S
C1146 C1144 1.363 . S
C1146 C1147 1.370 . S
C1146 C1150 1.524 . S
C1147 C1139 1.503 1_565 S
C1147 C1146 1.370 . S
C1147 C1148 1.403 . S
C1148 C1147 1.403 . S
C1148 C1149 1.404 . S
C1148 C1151 1.539 . S
C1149 C1145 1.408 . S
C1149 C1148 1.404 . S
C1149 H1161 0.930 . S
C1150 C1146 1.524 . S
C1150 H1162 0.956 . S
C1150 H1163 0.961 1_565 S
C1150 H1164 0.961 . S
C1151 C1148 1.539 . S
C1151 H1165 0.958 . S
C1151 H1166 0.961 . S
C1151 H1167 0.960 . S
H1152 C1136 0.931 . S
H1153 C1141 0.929 . S
H1154 C1142 0.960 . S
H1155 C1142 0.962 . S
H1156 C1142 0.960 . S
H1157 C1143 0.961 . S
H1158 C1143 0.961 . S
H1159 C1143 0.961 . S
H1160 C1144 0.931 . S
H1161 C1149 0.930 . S
H1162 C1150 0.956 . S
H1163 C1150 0.961 1_545 S
H1164 C1150 0.961 . S
H1165 C1151 0.958 . S
H1166 C1151 0.961 . S
H1167 C1151 0.960 . S
C1168 C1169 1.391 . S
C1168 C1170 1.394 1_565 S
C1168 H1184 0.931 . S
C1169 C1168 1.391 . S
C1169 C1173 1.376 . S
C1170 C1168 1.394 1_545 S
C1170 C1171 1.369 1_545 S
C1170 C1174 1.531 . S
C1171 C1170 1.369 1_565 S
C1171 C1172 1.410 . S
C1171 C1179 1.503 1_665 S
C1172 C1171 1.410 . S
C1172 C1173 1.392 . S
C1172 C1175 1.511 1_655 S
C1173 C1169 1.376 . S
C1173 C1172 1.392 . S
C1173 H1185 0.929 . S
C1174 C1170 1.531 . S
C1174 H1186 0.960 . S
C1174 H1187 0.962 . S
C1174 H1188 0.960 . S
C1175 C1172 1.511 1_455 S
C1175 H1189 0.961 1_455 S
C1175 H1190 0.961 . S
C1175 H1191 0.961 . S
C1176 C1177 1.370 . S
C1176 C1178 1.363 . S
C1176 H1192 0.931 . S
C1177 C1176 1.370 . S
C1177 C1181 1.408 . S
C1178 C1176 1.363 . S
C1178 C1179 1.370 . S
C1178 C1182 1.524 1_455 S
C1179 C1171 1.503 1_445 S
C1179 C1178 1.370 . S
C1179 C1180 1.403 1_545 S
C1180 C1179 1.403 1_565 S
C1180 C1181 1.404 1_565 S
C1180 C1183 1.539 . S
C1181 C1177 1.408 . S
C1181 C1180 1.404 1_545 S
C1181 H1193 0.930 . S
C1182 C1178 1.524 1_655 S
C1182 H1194 0.956 . S
C1182 H1195 0.961 . S
C1182 H1196 0.961 1_655 S
C1183 C1180 1.539 . S
C1183 H1197 0.958 . S
C1183 H1198 0.961 . S
C1183 H1199 0.960 . S
H1184 C1168 0.931 . S
H1185 C1173 0.929 . S
H1186 C1174 0.960 . S
H1187 C1174 0.962 . S
H1188 C1174 0.960 . S
H1189 C1175 0.961 1_655 S
H1190 C1175 0.961 . S
H1191 C1175 0.961 . S
H1192 C1176 0.931 . S
H1193 C1181 0.930 . S
H1194 C1182 0.956 . S
H1195 C1182 0.961 . S
H1196 C1182 0.961 1_455 S
H1197 C1183 0.958 . S
H1198 C1183 0.961 . S
H1199 C1183 0.960 . S
C1200 C1201 1.391 . S
C1200 C1202 1.394 . S
C1200 H1216 0.931 . S
C1201 C1200 1.391 . S
C1201 C1205 1.376 . S
C1202 C1200 1.394 . S
C1202 C1203 1.369 . S
C1202 C1206 1.531 . S
C1203 C1202 1.369 . S
C1203 C1204 1.410 1_655 S
C1203 C1211 1.503 1_655 S
C1204 C1203 1.410 1_455 S
C1204 C1205 1.392 1_455 S
C1204 C1207 1.511 . S
C1205 C1201 1.376 . S
C1205 C1204 1.392 1_655 S
C1205 H1217 0.929 . S
C1206 C1202 1.531 . S
C1206 H1218 0.960 . S
C1206 H1219 0.962 . S
C1206 H1220 0.960 . S
C1207 C1204 1.511 . S
C1207 H1221 0.961 . S
C1207 H1222 0.961 . S
C1207 H1223 0.961 . S
C1208 C1209 1.370 . S
C1208 C1210 1.363 1_455 S
C1208 H1224 0.931 1_455 S
C1209 C1208 1.370 . S
C1209 C1213 1.408 . S
C1210 C1208 1.363 1_655 S
C1210 C1211 1.370 1_655 S
C1210 C1214 1.524 . S
C1211 C1203 1.503 1_455 S
C1211 C1210 1.370 1_455 S
C1211 C1212 1.403 . S
C1212 C1211 1.403 . S
C1212 C1213 1.404 . S
C1212 C1215 1.539 . S
C1213 C1209 1.408 . S
C1213 C1212 1.404 . S
C1213 H1225 0.930 . S
C1214 C1210 1.524 . S
C1214 H1226 0.956 . S
C1214 H1227 0.961 . S
C1214 H1228 0.961 . S
C1215 C1212 1.539 . S
C1215 H1229 0.958 . S
C1215 H1230 0.961 . S
C1215 H1231 0.960 . S
H1216 C1200 0.931 . S
H1217 C1205 0.929 . S
H1218 C1206 0.960 . S
H1219 C1206 0.962 . S
H1220 C1206 0.960 . S
H1221 C1207 0.961 . S
H1222 C1207 0.961 . S
H1223 C1207 0.961 . S
H1224 C1208 0.931 1_655 S
H1225 C1213 0.930 . S
H1226 C1214 0.956 . S
H1227 C1214 0.961 . S
H1228 C1214 0.961 . S
H1229 C1215 0.958 . S
H1230 C1215 0.961 . S
H1231 C1215 0.960 . S
C209 C62 1.557 . S
C217 C10 1.564 . S
C241 C17 1.566 . S
C249 C69 1.568 . S
C273 C88 1.559 . S
C281 C36 1.565 . S
C305 C101 1.562 . S
C313 C43 1.566 . S
C337 C160 1.557 . S
C345 C108 1.564 . S
C369 C127 1.558 . S
C377 C173 1.564 . S
C401 C192 1.558 . S
C409 C140 1.564 . S
C433 C147 1.564 . S
C441 C205 1.566 . S
C465 C3 1.527 . S
C473 C198 1.535 . S
C497 C18 1.540 . S
C505 C161 1.539 . S
C529 C29 1.537 . S
C537 C174 1.536 . S
C561 C185 1.539 . S
C569 C44 1.540 . S
C593 C55 1.528 . S
C601 C120 1.535 . S
C625 C70 1.530 . S
C633 C133 1.538 . S
C657 C148 1.538 . S
C665 C81 1.537 . S
C689 C109 1.528 . S
C697 C94 1.535 . S
C721 C4 1.568 . S
C729 C134 1.578 . S
C753 C153 1.568 . S
C761 C23 1.579 . S
C785 C30 1.566 . S
C793 C114 1.579 . S
C817 C121 1.565 . S
C825 C49 1.579 . S
C849 C56 1.565 . S
C857 C186 1.579 . S
C881 C75 1.572 . S
C889 C199 1.575 . S
C913 C166 1.570 . S
C921 C82 1.576 . S
C945 C179 1.566 . S
C953 C95 1.579 . S
C977 C135 1.439 . S
C985 C5 1.446 . S
C1009 C16 1.444 . S
C1017 C146 1.447 . S
C1041 C31 1.439 . S
C1049 C107 1.445 . S
C1073 C122 1.443 . S
C1081 C42 1.445 . S
C1105 C187 1.443 . S
C1113 C57 1.447 . S
C1137 C200 1.439 . S
C1145 C68 1.445 . S
C1169 C159 1.442 . S
C1177 C83 1.447 . S
C1201 C96 1.443 . S
C1209 C172 1.444 . S
