# Generated by pormake.
# Topology uop, (4)-cn, num edge types: 1
# Building blocks:
#     Node 0, Type 0, BuildingBlock: CEKHIL_clean_sbu_0, # of connection points: 4
#     Node 1, Type 0, BuildingBlock: CEKHIL_clean_sbu_0, # of connection points: 4
#     Node 2, Type 0, BuildingBlock: CEKHIL_clean_sbu_0, # of connection points: 4
#     Node 3, Type 0, BuildingBlock: CEKHIL_clean_sbu_0, # of connection points: 4
#     Node 4, Type 0, BuildingBlock: CEKHIL_clean_sbu_0, # of connection points: 4
#     Node 5, Type 0, BuildingBlock: CEKHIL_clean_sbu_0, # of connection points: 4
#     Node 6, Type 0, BuildingBlock: CEKHIL_clean_sbu_0, # of connection points: 4
#     Node 7, Type 0, BuildingBlock: CEKHIL_clean_sbu_0, # of connection points: 4
#     Node 8, Type 0, BuildingBlock: CEKHIL_clean_sbu_0, # of connection points: 4
#     Node 9, Type 0, BuildingBlock: CEKHIL_clean_sbu_0, # of connection points: 4
#     Node 10, Type 0, BuildingBlock: CEKHIL_clean_sbu_0, # of connection points: 4
#     Node 11, Type 0, BuildingBlock: CEKHIL_clean_sbu_0, # of connection points: 4
#     Edge 12, Type (0, 0), BuildingBlock: CIFDUS_clean_linker_0, # of connection points: 2
#     Edge 13, Type (0, 0), BuildingBlock: CIFDUS_clean_linker_0, # of connection points: 2
#     Edge 14, Type (0, 0), BuildingBlock: CIFDUS_clean_linker_0, # of connection points: 2
#     Edge 15, Type (0, 0), BuildingBlock: CIFDUS_clean_linker_0, # of connection points: 2
#     Edge 16, Type (0, 0), BuildingBlock: CIFDUS_clean_linker_0, # of connection points: 2
#     Edge 17, Type (0, 0), BuildingBlock: CIFDUS_clean_linker_0, # of connection points: 2
#     Edge 18, Type (0, 0), BuildingBlock: CIFDUS_clean_linker_0, # of connection points: 2
#     Edge 19, Type (0, 0), BuildingBlock: CIFDUS_clean_linker_0, # of connection points: 2
#     Edge 20, Type (0, 0), BuildingBlock: CIFDUS_clean_linker_0, # of connection points: 2
#     Edge 21, Type (0, 0), BuildingBlock: CIFDUS_clean_linker_0, # of connection points: 2
#     Edge 22, Type (0, 0), BuildingBlock: CIFDUS_clean_linker_0, # of connection points: 2
#     Edge 23, Type (0, 0), BuildingBlock: CIFDUS_clean_linker_0, # of connection points: 2
#     Edge 24, Type (0, 0), BuildingBlock: CIFDUS_clean_linker_0, # of connection points: 2
#     Edge 25, Type (0, 0), BuildingBlock: CIFDUS_clean_linker_0, # of connection points: 2
#     Edge 26, Type (0, 0), BuildingBlock: CIFDUS_clean_linker_0, # of connection points: 2
#     Edge 27, Type (0, 0), BuildingBlock: CIFDUS_clean_linker_0, # of connection points: 2
#     Edge 28, Type (0, 0), BuildingBlock: CIFDUS_clean_linker_0, # of connection points: 2
#     Edge 29, Type (0, 0), BuildingBlock: CIFDUS_clean_linker_0, # of connection points: 2
#     Edge 30, Type (0, 0), BuildingBlock: CIFDUS_clean_linker_0, # of connection points: 2
#     Edge 31, Type (0, 0), BuildingBlock: CIFDUS_clean_linker_0, # of connection points: 2
#     Edge 32, Type (0, 0), BuildingBlock: CIFDUS_clean_linker_0, # of connection points: 2
#     Edge 33, Type (0, 0), BuildingBlock: CIFDUS_clean_linker_0, # of connection points: 2
#     Edge 34, Type (0, 0), BuildingBlock: CIFDUS_clean_linker_0, # of connection points: 2
#     Edge 35, Type (0, 0), BuildingBlock: CIFDUS_clean_linker_0, # of connection points: 2
# Relax obj value: 0.152
# Max RMSD: 0.166
# Mean RMSD: 0.161
data_MOF--net-uop--node1-CEKHIL_clean_sbu_0--edge1-CIFDUS_clean_linker_0
_symmetry_space_group_name_H-M    P1
_symmetry_Int_Tables_number       1
_symmetry_cell_setting            triclinic
loop_
_symmetry_equiv_pos_as_xyz
'x, y, z'
_cell_length_a     29.12608
_cell_length_b     27.999765
_cell_length_c     38.749094
_cell_angle_alpha  90.043062
_cell_angle_beta   89.964159
_cell_angle_gamma 121.05484
loop_
_atom_site_label
_atom_site_type_symbol
_atom_site_fract_x
_atom_site_fract_y
_atom_site_fract_z
_atom_type_partial_charge
Co0 Co 0.22373 0.36988 0.21268 0.0
O1 O 0.14907 0.32553 0.22223 0.0
O2 O 0.18768 0.32338 0.17325 0.0
C3 C 0.25313 0.35634 0.26278 0.0
O4 O 0.30007 0.40806 0.19521 0.0
Co5 Co 0.29096 0.47621 0.25706 0.0
O6 O 0.35133 0.47958 0.23111 0.0
C7 C 0.21969 0.47589 0.20416 0.0
C8 C 0.14413 0.3054 0.1914 0.0
C9 C 0.34565 0.4484 0.20545 0.0
O10 O 0.21333 0.42993 0.19251 0.0
O11 O 0.24448 0.4984 0.23227 0.0
O12 O 0.23781 0.31931 0.2384 0.0
O13 O 0.24348 0.39598 0.25784 0.0
Co14 Co 0.84786 0.24056 0.54823 0.0
O15 O 0.91888 0.26582 0.5645 0.0
O16 O 0.85911 0.27949 0.59133 0.0
C17 C 0.82438 0.15306 0.53528 0.0
O18 O 0.77103 0.21954 0.53907 0.0
Co19 Co 0.82431 0.2122 0.47078 0.0
O20 O 0.74961 0.18735 0.48466 0.0
C21 C 0.88412 0.32902 0.49134 0.0
C22 C 0.90682 0.28635 0.5906 0.0
C23 C 0.73724 0.1979 0.5141 0.0
O24 O 0.87484 0.31213 0.5227 0.0
O25 O 0.87162 0.29585 0.46562 0.0
O26 O 0.82231 0.1672 0.56687 0.0
O27 O 0.84755 0.19375 0.51327 0.0
Co28 Co 0.59829 0.85024 0.8634 0.0
O29 O 0.65025 0.83037 0.87367 0.0
O30 O 0.63384 0.8498 0.82125 0.0
C31 C 0.62061 0.91225 0.90606 0.0
O32 O 0.54882 0.87499 0.84449 0.0
Co33 Co 0.50938 0.819 0.91781 0.0
O34 O 0.48819 0.85959 0.88589 0.0
C35 C 0.50207 0.73189 0.87283 0.0
C36 C 0.6611 0.83563 0.841 0.0
C37 C 0.50876 0.8775 0.85617 0.0
O38 O 0.54213 0.76965 0.85567 0.0
O39 O 0.48578 0.74204 0.90099 0.0
O40 O 0.64731 0.92665 0.87731 0.0
O41 O 0.58607 0.85962 0.90973 0.0
Co42 Co 0.76269 0.60682 0.21708 0.0
O43 O 0.83818 0.64791 0.22436 0.0
O44 O 0.79806 0.63836 0.17387 0.0
C45 C 0.7412 0.64109 0.26219 0.0
O46 O 0.68581 0.57019 0.2007 0.0
Co47 Co 0.69095 0.51883 0.27173 0.0
O48 O 0.63211 0.51154 0.24223 0.0
C49 C 0.75538 0.49471 0.22528 0.0
C50 C 0.84219 0.65941 0.19167 0.0
C51 C 0.63937 0.53552 0.21309 0.0
O52 O 0.7652 0.53756 0.20737 0.0
O53 O 0.73076 0.48281 0.25423 0.0
O54 O 0.75766 0.66928 0.23367 0.0
O55 O 0.74435 0.59671 0.26394 0.0
Co56 Co 0.12194 0.74487 0.52344 0.0
O57 O 0.05414 0.73117 0.54044 0.0
O58 O 0.10686 0.70741 0.56725 0.0
C59 C 0.15621 0.83414 0.50837 0.0
O60 O 0.19471 0.75345 0.5149 0.0
Co61 Co 0.15088 0.76921 0.44632 0.0
O62 O 0.22247 0.78463 0.461 0.0
C63 C 0.07397 0.65483 0.46737 0.0
C64 C 0.06273 0.7084 0.56691 0.0
C65 C 0.23032 0.77131 0.49091 0.0
O66 O 0.08404 0.67131 0.49887 0.0
O67 O 0.09448 0.6878 0.44162 0.0
O68 O 0.15776 0.82081 0.54026 0.0
O69 O 0.12881 0.79287 0.48733 0.0
Co70 Co 0.38843 0.15558 0.86895 0.0
O71 O 0.34123 0.18006 0.88344 0.0
O72 O 0.34928 0.15857 0.82956 0.0
C73 C 0.36776 0.09223 0.91047 0.0
O74 O 0.4315 0.12607 0.84585 0.0
Co75 Co 0.48211 0.1811 0.91812 0.0
O76 O 0.49462 0.13637 0.88391 0.0
C77 C 0.49112 0.27067 0.87491 0.0
C78 C 0.32616 0.1748 0.85153 0.0
C79 C 0.47048 0.11977 0.85503 0.0
O80 O 0.44726 0.23487 0.85996 0.0
O81 O 0.50967 0.25892 0.90136 0.0
O82 O 0.33762 0.08009 0.88336 0.0
O83 O 0.40482 0.14417 0.91393 0.0
Co84 Co 0.58754 0.74893 0.46101 0.0
O85 O 0.64375 0.74106 0.44153 0.0
O86 O 0.56152 0.70377 0.41993 0.0
C87 C 0.63797 0.84086 0.47061 0.0
O88 O 0.52047 0.75086 0.47234 0.0
Co89 Co 0.58998 0.78153 0.5366 0.0
O90 O 0.52933 0.79125 0.5239 0.0
C91 C 0.56192 0.66767 0.52103 0.0
C92 C 0.60932 0.71119 0.41782 0.0
C93 C 0.50425 0.77146 0.49566 0.0
O94 O 0.56302 0.67977 0.48901 0.0
O95 O 0.57377 0.70325 0.54525 0.0
O96 O 0.61763 0.82184 0.4403 0.0
O97 O 0.63106 0.80383 0.4935 0.0
Co98 Co 0.85533 0.63532 0.79013 0.0
O99 O 0.82368 0.67727 0.77612 0.0
O100 O 0.85851 0.68219 0.82783 0.0
C101 C 0.9053 0.6505 0.74293 0.0
O102 O 0.89341 0.59948 0.81229 0.0
Co103 Co 0.82606 0.52959 0.74759 0.0
O104 O 0.87836 0.52666 0.77897 0.0
C105 C 0.74734 0.52646 0.79544 0.0
C106 C 0.8344 0.69858 0.80684 0.0
C107 C 0.90006 0.55865 0.8049 0.0
O108 O 0.78383 0.57367 0.80758 0.0
O109 O 0.75413 0.50416 0.76862 0.0
O110 O 0.92222 0.68745 0.76741 0.0
O111 O 0.85637 0.60952 0.74565 0.0
Co112 Co 0.2269 0.8408 0.11813 0.0
O113 O 0.15301 0.81119 0.10779 0.0
O114 O 0.19051 0.84124 0.15935 0.0
C115 C 0.2622 0.89858 0.07347 0.0
O116 O 0.30188 0.87663 0.13747 0.0
Co117 Co 0.29312 0.81301 0.06846 0.0
O118 O 0.35344 0.86808 0.09751 0.0
C119 C 0.2192 0.72732 0.11612 0.0
C120 C 0.14776 0.81957 0.14013 0.0
C121 C 0.34745 0.88699 0.12603 0.0
O122 O 0.21169 0.76417 0.13032 0.0
O123 O 0.24686 0.73671 0.08861 0.0
O124 O 0.24564 0.91307 0.10038 0.0
O125 O 0.24944 0.84688 0.07214 0.0
Co126 Co 0.4031 0.2455 0.45992 0.0
O127 O 0.35702 0.26682 0.43869 0.0
O128 O 0.43061 0.27619 0.41483 0.0
C129 C 0.33932 0.16078 0.47756 0.0
O130 O 0.45891 0.22646 0.47381 0.0
Co131 Co 0.39922 0.23062 0.53871 0.0
O132 O 0.44824 0.20233 0.52987 0.0
C133 C 0.452 0.34341 0.51073 0.0
C134 C 0.38936 0.28228 0.41249 0.0
C135 C 0.4707 0.20797 0.50068 0.0
O136 O 0.44631 0.32152 0.48079 0.0
O137 O 0.43172 0.31425 0.53805 0.0
O138 O 0.35649 0.16929 0.44597 0.0
O139 O 0.35639 0.20507 0.49657 0.0
Co140 Co 0.12789 0.37081 0.80708 0.0
O141 O 0.15306 0.32285 0.79385 0.0
O142 O 0.12694 0.32816 0.84676 0.0
C143 C 0.07288 0.35284 0.76242 0.0
O144 O 0.09719 0.41498 0.8282 0.0
Co145 Co 0.16036 0.47151 0.75853 0.0
O146 O 0.11238 0.48219 0.78974 0.0
C147 C 0.24065 0.47386 0.80421 0.0
C148 C 0.14632 0.30658 0.82567 0.0
C149 C 0.09219 0.45576 0.81782 0.0
O150 O 0.20304 0.43076 0.81957 0.0
O151 O 0.2332 0.49356 0.77644 0.0
O152 O 0.05707 0.31927 0.78871 0.0
O153 O 0.12312 0.39102 0.76196 0.0
Co154 Co 0.76369 0.1576 0.11773 0.0
O155 O 0.83838 0.1885 0.10917 0.0
O156 O 0.79851 0.15891 0.16014 0.0
C157 C 0.73268 0.09869 0.07309 0.0
O158 O 0.68773 0.12015 0.13549 0.0
Co159 Co 0.69632 0.17856 0.06446 0.0
O160 O 0.63593 0.12356 0.09352 0.0
C161 C 0.76738 0.26841 0.11129 0.0
C162 C 0.84196 0.17959 0.14165 0.0
C163 C 0.64199 0.10716 0.12294 0.0
O164 O 0.77564 0.23387 0.12802 0.0
O165 O 0.74138 0.25614 0.08288 0.0
O166 O 0.74802 0.08542 0.10107 0.0
O167 O 0.74343 0.1496 0.07126 0.0
H168 H 0.21188 0.63185 0.09229 0.0
H169 H 0.1869 0.70499 0.18323 0.0
H170 H 0.17752 0.62844 0.21827 0.0
H171 H 0.19097 0.54937 0.22459 0.0
H172 H 0.21438 0.47485 0.13396 0.0
H173 H 0.20889 0.54267 0.09732 0.0
C174 C 0.2034 0.6305 0.11965 0.0
C175 C 0.20155 0.67488 0.13519 0.0
C176 C 0.19829 0.5864 0.13983 0.0
C177 C 0.18926 0.67182 0.17056 0.0
C178 C 0.18412 0.62814 0.19075 0.0
C179 C 0.19383 0.5474 0.19677 0.0
C180 C 0.20424 0.50813 0.18204 0.0
C181 C 0.19088 0.58658 0.1759 0.0
C182 C 0.20672 0.50505 0.14593 0.0
C183 C 0.20395 0.54404 0.12497 0.0
H184 H 0.66571 0.18032 0.46365 0.0
H185 H 0.68785 0.19888 0.57409 0.0
H186 H 0.60392 0.19812 0.57992 0.0
H187 H 0.52906 0.20101 0.55307 0.0
H188 H 0.51076 0.18846 0.44226 0.0
H189 H 0.58847 0.17774 0.43724 0.0
C190 C 0.65191 0.18335 0.48911 0.0
C191 C 0.68327 0.19001 0.51838 0.0
C192 C 0.60456 0.18449 0.49217 0.0
C193 C 0.6647 0.1941 0.5511 0.0
C194 C 0.61677 0.19377 0.55445 0.0
C195 C 0.54161 0.19518 0.52785 0.0
C196 C 0.51438 0.19595 0.49806 0.0
C197 C 0.5871 0.19038 0.52507 0.0
C198 C 0.53134 0.18859 0.46557 0.0
C199 C 0.57573 0.1824 0.46267 0.0
H200 H 0.42438 0.63588 0.90278 0.0
H201 H 0.50196 0.70488 0.80513 0.0
H202 H 0.43007 0.62508 0.7749 0.0
H203 H 0.33754 0.54552 0.77556 0.0
H204 H 0.2601 0.47615 0.87311 0.0
H205 H 0.33982 0.54572 0.90388 0.0
C206 C 0.42622 0.63281 0.87496 0.0
C207 C 0.46766 0.67706 0.85623 0.0
C208 C 0.38434 0.58713 0.8576 0.0
C209 C 0.47017 0.67182 0.82025 0.0
C210 C 0.42882 0.62632 0.80283 0.0
C211 C 0.3386 0.54497 0.80354 0.0
C212 C 0.29262 0.50678 0.82202 0.0
C213 C 0.38444 0.58529 0.82112 0.0
C214 C 0.29484 0.50555 0.85824 0.0
C215 C 0.34033 0.54552 0.87591 0.0
H216 H 0.78202 0.48939 0.15878 0.0
H217 H 0.75894 0.41016 0.2581 0.0
H218 H 0.76983 0.33737 0.23179 0.0
H219 H 0.77441 0.29019 0.17975 0.0
H220 H 0.78954 0.36528 0.07996 0.0
H221 H 0.79434 0.44636 0.1074 0.0
C222 C 0.78019 0.45673 0.17483 0.0
C223 C 0.76899 0.45489 0.21031 0.0
C224 C 0.7849 0.41413 0.1594 0.0
C225 C 0.76683 0.41222 0.23065 0.0
C226 C 0.77309 0.37057 0.21564 0.0
C227 C 0.78011 0.32493 0.16406 0.0
C228 C 0.78138 0.32171 0.12789 0.0
C229 C 0.78051 0.37022 0.1799 0.0
C230 C 0.78816 0.36673 0.10787 0.0
C231 C 0.79067 0.41294 0.12352 0.0
H232 H 0.43941 0.77917 0.54315 0.0
H233 H 0.45756 0.76524 0.43365 0.0
H234 H 0.37572 0.7664 0.42256 0.0
H235 H 0.29836 0.76974 0.44385 0.0
H236 H 0.27714 0.77889 0.55341 0.0
H237 H 0.36099 0.7814 0.56457 0.0
C238 C 0.42554 0.77658 0.51686 0.0
C239 C 0.45455 0.77213 0.48928 0.0
C240 C 0.37795 0.7764 0.51068 0.0
C241 C 0.4358 0.76832 0.45538 0.0
C242 C 0.38909 0.76916 0.44898 0.0
C243 C 0.31224 0.77269 0.47018 0.0
C244 C 0.28169 0.77436 0.49774 0.0
C245 C 0.35979 0.77299 0.47643 0.0
C246 C 0.29987 0.7774 0.53173 0.0
C247 C 0.34781 0.77889 0.53813 0.0
H248 H 0.57636 0.36482 0.90175 0.0
H249 H 0.48489 0.29724 0.80808 0.0
H250 H 0.55439 0.37516 0.77523 0.0
H251 H 0.64736 0.45379 0.77169 0.0
H252 H 0.73799 0.52312 0.86526 0.0
H253 H 0.66252 0.45362 0.89951 0.0
C254 C 0.57108 0.36779 0.87428 0.0
C255 C 0.52605 0.32455 0.85734 0.0
C256 C 0.61142 0.41264 0.85539 0.0
C257 C 0.51933 0.3296 0.82183 0.0
C258 C 0.55929 0.37401 0.80288 0.0
C259 C 0.65003 0.4543 0.79963 0.0
C260 C 0.69825 0.49273 0.81592 0.0
C261 C 0.60648 0.41437 0.81916 0.0
C262 C 0.70119 0.49375 0.85214 0.0
C263 C 0.65819 0.45382 0.87174 0.0
H264 H 0.55067 0.43807 0.19688 0.0
H265 H 0.62157 0.61617 0.19129 0.0
H266 H 0.53344 0.60429 0.18079 0.0
H267 H 0.43568 0.54373 0.18726 0.0
H268 H 0.36494 0.36554 0.19238 0.0
H269 H 0.45358 0.3765 0.18799 0.0
C270 C 0.54679 0.474 0.19201 0.0
C271 C 0.5917 0.5278 0.19535 0.0
C272 C 0.49612 0.46676 0.18636 0.0
C273 C 0.58709 0.57439 0.1888 0.0
C274 C 0.53674 0.5676 0.18315 0.0
C275 C 0.43978 0.50738 0.18606 0.0
C276 C 0.39455 0.4541 0.19073 0.0
C277 C 0.49079 0.51411 0.18395 0.0
C278 C 0.39957 0.40696 0.18882 0.0
C279 C 0.45022 0.41325 0.1867 0.0
H280 H 0.99026 0.58698 0.50703 0.0
H281 H 0.07407 0.58807 0.41508 0.0
H282 H 0.01855 0.48581 0.41186 0.0
H283 H 0.95196 0.3954 0.43941 0.0
H284 H 0.87109 0.39892 0.53202 0.0
H285 H 0.91935 0.49991 0.53056 0.0
C286 C -0.00387 0.5649 0.48607 0.0
C287 C 0.03659 0.59467 0.46166 0.0
C288 C 0.96471 0.5068 0.48464 0.0
C289 C 0.04311 0.5658 0.43424 0.0
C290 C 0.0116 0.5074 0.43254 0.0
C291 C 0.94441 0.41843 0.45883 0.0
C292 C 0.90871 0.38969 0.48612 0.0
C293 C 0.97308 0.47727 0.45816 0.0
C294 C 0.89913 0.42001 0.51111 0.0
C295 C 0.92662 0.47784 0.51032 0.0
H296 H 0.4016 0.01431 0.83667 0.0
H297 H 0.56768 0.14426 0.83098 0.0
H298 H 0.5934 0.07528 0.8196 0.0
H299 H 0.57068 0.97887 0.82826 0.0
H300 H 0.40609 0.85008 0.8446 0.0
H301 H 0.37713 0.91659 0.83395 0.0
C302 C 0.44302 0.02742 0.83116 0.0
C303 C 0.48282 0.08379 0.83459 0.0
C304 C 0.45769 0.98724 0.82738 0.0
C305 C 0.53658 0.10082 0.82827 0.0
C306 C 0.55125 0.06135 0.82219 0.0
C307 C 0.52835 0.96505 0.82784 0.0
C308 C 0.49048 0.91016 0.83738 0.0
C309 C 0.51255 0.00437 0.82418 0.0
C310 C 0.43576 0.89245 0.8374 0.0
C311 C 0.41932 0.93055 0.83161 0.0
H312 H 0.57997 0.60026 0.48193 0.0
H313 H 0.50752 0.60459 0.57798 0.0
H314 H 0.47016 0.50391 0.5854 0.0
H315 H 0.45086 0.41293 0.56085 0.0
H316 H 0.52458 0.41295 0.46398 0.0
H317 H 0.56865 0.51353 0.46077 0.0
C318 C 0.55637 0.57933 0.5047 0.0
C319 C 0.54578 0.60947 0.52911 0.0
C320 C 0.53485 0.52201 0.50849 0.0
C321 C 0.51609 0.5821 0.55879 0.0
C322 C 0.49449 0.52454 0.56289 0.0
C323 C 0.47721 0.43513 0.53938 0.0
C324 C 0.48351 0.40514 0.51242 0.0
C325 C 0.50249 0.49372 0.5374 0.0
C326 C 0.51805 0.43464 0.48481 0.0
C327 C 0.5435 0.49233 0.4829 0.0
H328 H 0.88742 0.46285 0.83011 0.0
H329 H 0.00148 0.63892 0.82129 0.0
H330 H 0.07488 0.62314 0.83397 0.0
H331 H 0.10629 0.5567 0.83233 0.0
H332 H 0.99216 0.38047 0.84001 0.0
H333 H 0.91884 0.39867 0.84437 0.0
C334 C 0.92821 0.49783 0.83237 0.0
C335 C 0.93955 0.55173 0.82427 0.0
C336 C 0.97006 0.48824 0.83911 0.0
C337 C 0.99213 0.59709 0.82746 0.0
C338 C 0.03407 0.58797 0.83436 0.0
C339 C 0.06554 0.5226 0.83656 0.0
C340 C 0.05421 0.4674 0.83526 0.0
C341 C 0.02364 0.53338 0.83805 0.0
C342 C 0.00163 0.4233 0.84098 0.0
C343 C 0.95965 0.43368 0.84294 0.0
H344 H 0.4348 0.88261 0.14346 0.0
H345 H 0.36865 0.98924 0.14424 0.0
H346 H 0.45828 0.0713 0.15058 0.0
H347 H 0.55509 0.11197 0.14107 0.0
H348 H 0.62125 0.00538 0.14147 0.0
H349 H 0.53204 0.92366 0.15039 0.0
C350 C 0.44011 0.9237 0.14656 0.0
C351 C 0.39601 0.93054 0.14287 0.0
C352 C 0.49166 0.9705 0.14985 0.0
C353 C 0.4025 0.98346 0.14707 0.0
C354 C 0.4537 0.03035 0.15028 0.0
C355 C 0.54993 0.07103 0.14459 0.0
C356 C 0.59377 0.06395 0.1402 0.0
C357 C 0.49863 0.02444 0.14949 0.0
C358 C 0.58754 0.01126 0.14488 0.0
C359 C 0.53659 0.96459 0.14961 0.0
H360 H 0.32103 0.3181 0.266 0.0
H361 H 0.24894 0.39044 0.32763 0.0
H362 H 0.2888 0.37772 0.37985 0.0
H363 H 0.33734 0.33831 0.40811 0.0
H364 H 0.41353 0.27048 0.34635 0.0
H365 H 0.37963 0.29 0.29366 0.0
C366 C 0.31442 0.33129 0.29091 0.0
C367 C 0.2814 0.354 0.2934 0.0
C368 C 0.33815 0.32473 0.32055 0.0
C369 C 0.274 0.37242 0.32542 0.0
C370 C 0.29663 0.36507 0.35516 0.0
C371 C 0.34704 0.32852 0.38304 0.0
C372 C 0.37707 0.30237 0.38088 0.0
C373 C 0.32776 0.34014 0.35308 0.0
C374 C 0.39034 0.29063 0.34844 0.0
C375 C 0.37069 0.30141 0.31842 0.0
H376 H 0.88377 0.28302 0.6583 0.0
H377 H 0.01507 0.34773 0.5861 0.0
H378 H 0.07934 0.38112 0.63373 0.0
H379 H 0.09739 0.38248 0.69567 0.0
H380 H 0.9655 0.30819 0.76753 0.0
H381 H 0.90211 0.28825 0.72049 0.0
C382 C 0.92651 0.30542 0.65314 0.0
C383 C 0.94498 0.31307 0.61902 0.0
C384 C 0.96295 0.32213 0.68059 0.0
C385 C 0.00025 0.34132 0.61236 0.0
C386 C 0.03689 0.36026 0.63951 0.0
C387 C 0.05482 0.36268 0.70097 0.0
C388 C 0.03583 0.3464 0.73471 0.0
C389 C 0.01862 0.34946 0.6737 0.0
C390 C 0.98072 0.32045 0.7415 0.0
C391 C 0.94455 0.30913 0.7147 0.0
H392 H 0.61036 0.89217 0.97462 0.0
H393 H 0.6618 0.02338 0.89931 0.0
H394 H 0.69651 0.09338 0.94521 0.0
H395 H 0.72045 0.11749 0.00618 0.0
H396 H 0.67587 0.98634 0.08072 0.0
H397 H 0.63008 0.91604 0.03589 0.0
C398 C 0.6283 0.93604 0.96842 0.0
C399 C 0.63389 0.95291 0.93387 0.0
C400 C 0.65001 0.97601 0.99477 0.0
C401 C 0.65756 0.00974 0.9259 0.0
C402 C 0.67747 0.04969 0.95206 0.0
C403 C 0.70022 0.0735 0.01255 0.0
C404 C 0.70196 0.05693 0.04642 0.0
C405 C 0.67531 0.03339 0.9865 0.0
C406 C 0.67568 -7e-05 0.05458 0.0
C407 C 0.64936 0.95975 0.02903 0.0
H408 H 0.69718 0.76727 0.37917 0.0
H409 H 0.55637 0.60491 0.39307 0.0
H410 H 0.58653 0.56701 0.34698 0.0
H411 H 0.65392 0.58113 0.30273 0.0
H412 H 0.78887 0.74655 0.28524 0.0
H413 H 0.76043 0.78271 0.33282 0.0
C414 C 0.67322 0.72364 0.37195 0.0
C415 C 0.62509 0.68859 0.38923 0.0
C416 C 0.68995 0.70295 0.34499 0.0
C417 C 0.59357 0.63237 0.3797 0.0
C418 C 0.61091 0.61081 0.35358 0.0
C419 C 0.67701 0.62492 0.30966 0.0
C420 C 0.72366 0.66123 0.29119 0.0
C421 C 0.65918 0.64575 0.33611 0.0
C422 C 0.75294 0.7181 0.29949 0.0
C423 C 0.73674 0.73871 0.32658 0.0
H424 H 0.08711 0.7111 0.63419 0.0
H425 H 0.95439 0.65908 0.5644 0.0
H426 H 0.8922 0.62987 0.61324 0.0
H427 H 0.87689 0.62604 0.67601 0.0
H428 H 0.01148 0.68883 0.74535 0.0
H429 H 0.07182 0.70659 0.69669 0.0
C430 C 0.04446 0.69267 0.62978 0.0
C431 C 0.02505 0.68698 0.596 0.0
C432 C 0.0095 0.67825 0.65793 0.0
C433 C 0.96998 0.66394 0.59037 0.0
C434 C 0.93453 0.64727 0.61822 0.0
C435 C 0.91933 0.64286 0.68031 0.0
C436 C 0.94003 0.65608 0.71391 0.0
C437 C 0.95398 0.6552 0.65213 0.0
C438 C -0.00497 0.67865 0.71948 0.0
C439 C 0.02942 0.68878 0.69175 0.0
H440 H 0.26796 0.88111 0.00526 0.0
H441 H 0.33057 0.00875 0.08363 0.0
H442 H 0.37692 0.08064 0.03978 0.0
H443 H 0.38959 0.10794 0.97878 0.0
H444 H 0.31991 0.98096 0.90017 0.0
H445 H 0.28706 0.90815 0.94417 0.0
C446 C 0.29254 0.92461 0.01261 0.0
C447 C 0.29544 0.93998 0.04731 0.0
C448 C 0.31741 0.96586 0.98717 0.0
C449 C 0.3272 0.99629 0.05682 0.0
C450 C 0.35373 0.03736 0.03183 0.0
C451 C 0.36819 0.06431 0.97138 0.0
C452 C 0.3566 0.04957 0.93655 0.0
C453 C 0.34762 0.0228 0.99684 0.0
C454 C 0.32865 0.99304 0.92704 0.0
C455 C 0.30981 0.95145 0.95214 0.0
H456 H 0.93188 0.20397 0.10695 0.0
H457 H 0.86689 0.18312 0.20975 0.0
H458 H 0.95479 0.21245 0.23434 0.0
H459 H 0.05105 0.25352 0.22637 0.0
H460 H 0.11702 0.27776 0.12368 0.0
H461 H 0.02698 0.23578 0.09913 0.0
C462 C 0.93691 0.20555 0.13474 0.0
C463 C 0.89345 0.19258 0.15658 0.0
C464 C 0.98742 0.2227 0.14861 0.0
C465 C 0.90005 0.19359 0.19249 0.0
C466 C 0.95018 0.21028 0.20652 0.0
C467 C 0.04567 0.24884 0.19861 0.0
C468 C 0.09045 0.26947 0.17677 0.0
C469 C -0.0057 0.22628 0.18479 0.0
C470 C 0.08302 0.26235 0.14095 0.0
C471 C 0.03168 0.23883 0.12693 0.0
H472 H 0.7779 0.10398 0.47398 0.0
H473 H 0.8095 0.06918 0.57678 0.0
H474 H 0.75475 0.9693 0.56598 0.0
H475 H 0.69406 0.89179 0.52859 0.0
H476 H 0.65939 0.92548 0.4263 0.0
H477 H 0.71835 0.02551 0.43573 0.0
C478 C 0.77339 0.0744 0.4937 0.0
C479 C 0.79761 0.09368 0.52604 0.0
C480 C 0.74052 0.01681 0.48765 0.0
C481 C 0.79104 0.05511 0.55164 0.0
C482 C 0.75957 -0.00198 0.54558 0.0
C483 C 0.69934 0.92102 0.5084 0.0
C484 C 0.67224 0.9013 0.47692 0.0
C485 C 0.7333 0.9784 0.51394 0.0
C486 C 0.67967 0.93966 0.45089 0.0
C487 C 0.71355 0.99689 0.45618 0.0
H488 H 0.78829 0.74092 0.76653 0.0
H489 H 0.8371 0.73912 0.8715 0.0
H490 H 0.79241 0.7883 0.89051 0.0
H491 H 0.73113 0.8213 0.87821 0.0
H492 H 0.67867 0.81923 0.77376 0.0
H493 H 0.73405 0.78243 0.75339 0.0
C494 C 0.78977 0.75189 0.79353 0.0
C495 C 0.81524 0.73573 0.81772 0.0
C496 C 0.76313 0.779 0.80429 0.0
C497 C 0.81744 0.75082 0.85247 0.0
C498 C 0.79174 0.77871 0.86334 0.0
C499 C 0.73223 0.8134 0.8509 0.0
C500 C 0.70029 0.82206 0.82752 0.0
C501 C 0.76313 0.79135 0.83962 0.0
C502 C 0.70275 0.81256 0.79221 0.0
C503 C 0.73417 0.79132 0.78063 0.0
H504 H 0.93546 0.7225 0.22501 0.0
H505 H 0.86717 0.67422 0.123 0.0
H506 H 0.95698 0.72507 0.09766 0.0
H507 H 0.05439 0.77572 0.10521 0.0
H508 H 0.12215 0.82167 0.20755 0.0
H509 H 0.03236 0.77951 0.23222 0.0
C510 C 0.94018 0.72333 0.1972 0.0
C511 C 0.89511 0.69407 0.17585 0.0
C512 C 0.99157 0.75202 0.183 0.0
C513 C 0.90152 0.69624 0.13989 0.0
C514 C 0.95274 0.72514 0.12545 0.0
C515 C 0.04955 0.77703 0.13289 0.0
C516 C 0.09461 0.80102 0.15464 0.0
C517 C -0.002 0.75206 0.14686 0.0
C518 C 0.08793 0.80306 0.19036 0.0
C519 C 0.03669 0.77885 0.20446 0.0
H520 H 0.20425 0.92594 0.54914 0.0
H521 H 0.17402 0.87392 0.4425 0.0
H522 H 0.22646 0.97116 0.42402 0.0
H523 H 0.28328 0.0698 0.43805 0.0
H524 H 0.31371 0.12328 0.54434 0.0
H525 H 0.25804 0.02603 0.56327 0.0
C526 C 0.20903 0.93591 0.52185 0.0
C527 C 0.18565 0.89285 0.49715 0.0
C528 C 0.23908 0.99187 0.51146 0.0
C529 C 0.1917 0.90632 0.46194 0.0
C530 C 0.22171 0.96185 0.45139 0.0
C531 C 0.27766 0.0603 0.46542 0.0
C532 C 0.30282 0.10347 0.48985 0.0
C533 C 0.24593 0.00477 0.47592 0.0
C534 C 0.29465 0.09066 0.52513 0.0
C535 C 0.26306 0.03515 0.53589 0.0
H536 H 0.17848 0.25137 0.78499 0.0
H537 H 0.16089 0.28249 0.8919 0.0
H538 H 0.21169 0.23895 0.90942 0.0
H539 H 0.26981 0.20292 0.89368 0.0
H540 H 0.29117 0.17685 0.78642 0.0
H541 H 0.22991 0.208 0.76957 0.0
C542 C 0.18506 0.24797 0.8122 0.0
C543 C 0.16665 0.27075 0.83715 0.0
C544 C 0.21554 0.22467 0.82188 0.0
C545 C 0.1748 0.26535 0.87226 0.0
C546 C 0.20418 0.24091 0.88222 0.0
C547 C 0.26077 0.20362 0.8666 0.0
C548 C 0.28556 0.18843 0.84123 0.0
C549 C 0.22623 0.22223 0.85715 0.0
C550 C 0.27294 0.18882 0.80635 0.0
C551 C 0.23796 0.2066 0.79674 0.0
loop_
_geom_bond_atom_site_label_1
_geom_bond_atom_site_label_2
_geom_bond_distance
_geom_bond_site_symmetry_2
_ccdc_geom_bond_type
Co0 O1 2.216 . S
Co0 O2 2.091 . S
Co0 O4 2.004 . S
Co0 O10 2.021 . S
Co0 O12 2.137 . S
Co0 O13 2.244 . S
O1 Co0 2.216 . S
O1 C8 1.247 . S
O2 Co0 2.091 . S
O2 C8 1.261 . S
C3 O12 1.247 . S
C3 O13 1.272 . S
O4 Co0 2.004 . S
O4 C9 1.259 . S
Co5 O6 2.061 . S
Co5 O11 2.052 . S
Co5 O13 2.135 . S
O6 Co5 2.061 . S
O6 C9 1.235 . S
C7 O10 1.238 . S
C7 O11 1.241 . S
C8 O1 1.247 . S
C8 O2 1.261 . S
C9 O4 1.259 . S
C9 O6 1.235 . S
O10 Co0 2.021 . S
O10 C7 1.238 . S
O11 Co5 2.052 . S
O11 C7 1.241 . S
O12 Co0 2.137 . S
O12 C3 1.247 . S
O13 Co0 2.244 . S
O13 C3 1.272 . S
O13 Co5 2.135 . S
Co14 O15 2.216 . S
Co14 O16 2.091 . S
Co14 O18 2.004 . S
Co14 O24 2.021 . S
Co14 O26 2.137 . S
Co14 O27 2.244 . S
O15 Co14 2.216 . S
O15 C22 1.247 . S
O16 Co14 2.091 . S
O16 C22 1.261 . S
C17 O26 1.247 . S
C17 O27 1.272 . S
O18 Co14 2.004 . S
O18 C23 1.259 . S
Co19 O20 2.061 . S
Co19 O25 2.052 . S
Co19 O27 2.135 . S
O20 Co19 2.061 . S
O20 C23 1.235 . S
C21 O24 1.238 . S
C21 O25 1.241 . S
C22 O15 1.247 . S
C22 O16 1.261 . S
C23 O18 1.259 . S
C23 O20 1.235 . S
O24 Co14 2.021 . S
O24 C21 1.238 . S
O25 Co19 2.052 . S
O25 C21 1.241 . S
O26 Co14 2.137 . S
O26 C17 1.247 . S
O27 Co14 2.244 . S
O27 C17 1.272 . S
O27 Co19 2.135 . S
Co28 O29 2.216 . S
Co28 O30 2.091 . S
Co28 O32 2.004 . S
Co28 O38 2.021 . S
Co28 O40 2.137 . S
Co28 O41 2.244 . S
O29 Co28 2.216 . S
O29 C36 1.247 . S
O30 Co28 2.091 . S
O30 C36 1.261 . S
C31 O40 1.247 . S
C31 O41 1.272 . S
O32 Co28 2.004 . S
O32 C37 1.259 . S
Co33 O34 2.061 . S
Co33 O39 2.052 . S
Co33 O41 2.135 . S
O34 Co33 2.061 . S
O34 C37 1.235 . S
C35 O38 1.238 . S
C35 O39 1.241 . S
C36 O29 1.247 . S
C36 O30 1.261 . S
C37 O32 1.259 . S
C37 O34 1.235 . S
O38 Co28 2.021 . S
O38 C35 1.238 . S
O39 Co33 2.052 . S
O39 C35 1.241 . S
O40 Co28 2.137 . S
O40 C31 1.247 . S
O41 Co28 2.244 . S
O41 C31 1.272 . S
O41 Co33 2.135 . S
Co42 O43 2.216 . S
Co42 O44 2.091 . S
Co42 O46 2.004 . S
Co42 O52 2.021 . S
Co42 O54 2.137 . S
Co42 O55 2.244 . S
O43 Co42 2.216 . S
O43 C50 1.247 . S
O44 Co42 2.091 . S
O44 C50 1.261 . S
C45 O54 1.247 . S
C45 O55 1.272 . S
O46 Co42 2.004 . S
O46 C51 1.259 . S
Co47 O48 2.061 . S
Co47 O53 2.052 . S
Co47 O55 2.135 . S
O48 Co47 2.061 . S
O48 C51 1.235 . S
C49 O52 1.238 . S
C49 O53 1.241 . S
C50 O43 1.247 . S
C50 O44 1.261 . S
C51 O46 1.259 . S
C51 O48 1.235 . S
O52 Co42 2.021 . S
O52 C49 1.238 . S
O53 Co47 2.052 . S
O53 C49 1.241 . S
O54 Co42 2.137 . S
O54 C45 1.247 . S
O55 Co42 2.244 . S
O55 C45 1.272 . S
O55 Co47 2.135 . S
Co56 O57 2.216 . S
Co56 O58 2.091 . S
Co56 O60 2.004 . S
Co56 O66 2.021 . S
Co56 O68 2.137 . S
Co56 O69 2.244 . S
O57 Co56 2.216 . S
O57 C64 1.247 . S
O58 Co56 2.091 . S
O58 C64 1.261 . S
C59 O68 1.247 . S
C59 O69 1.272 . S
O60 Co56 2.004 . S
O60 C65 1.259 . S
Co61 O62 2.061 . S
Co61 O67 2.052 . S
Co61 O69 2.135 . S
O62 Co61 2.061 . S
O62 C65 1.235 . S
C63 O66 1.238 . S
C63 O67 1.241 . S
C64 O57 1.247 . S
C64 O58 1.261 . S
C65 O60 1.259 . S
C65 O62 1.235 . S
O66 Co56 2.021 . S
O66 C63 1.238 . S
O67 Co61 2.052 . S
O67 C63 1.241 . S
O68 Co56 2.137 . S
O68 C59 1.247 . S
O69 Co56 2.244 . S
O69 C59 1.272 . S
O69 Co61 2.135 . S
Co70 O71 2.216 . S
Co70 O72 2.091 . S
Co70 O74 2.004 . S
Co70 O80 2.021 . S
Co70 O82 2.137 . S
Co70 O83 2.244 . S
O71 Co70 2.216 . S
O71 C78 1.247 . S
O72 Co70 2.091 . S
O72 C78 1.261 . S
C73 O82 1.247 . S
C73 O83 1.272 . S
O74 Co70 2.004 . S
O74 C79 1.259 . S
Co75 O76 2.061 . S
Co75 O81 2.052 . S
Co75 O83 2.135 . S
O76 Co75 2.061 . S
O76 C79 1.235 . S
C77 O80 1.238 . S
C77 O81 1.241 . S
C78 O71 1.247 . S
C78 O72 1.261 . S
C79 O74 1.259 . S
C79 O76 1.235 . S
O80 Co70 2.021 . S
O80 C77 1.238 . S
O81 Co75 2.052 . S
O81 C77 1.241 . S
O82 Co70 2.137 . S
O82 C73 1.247 . S
O83 Co70 2.244 . S
O83 C73 1.272 . S
O83 Co75 2.135 . S
Co84 O85 2.216 . S
Co84 O86 2.091 . S
Co84 O88 2.004 . S
Co84 O94 2.021 . S
Co84 O96 2.137 . S
Co84 O97 2.244 . S
O85 Co84 2.216 . S
O85 C92 1.247 . S
O86 Co84 2.091 . S
O86 C92 1.261 . S
C87 O96 1.247 . S
C87 O97 1.272 . S
O88 Co84 2.004 . S
O88 C93 1.259 . S
Co89 O90 2.061 . S
Co89 O95 2.052 . S
Co89 O97 2.135 . S
O90 Co89 2.061 . S
O90 C93 1.235 . S
C91 O94 1.238 . S
C91 O95 1.241 . S
C92 O85 1.247 . S
C92 O86 1.261 . S
C93 O88 1.259 . S
C93 O90 1.235 . S
O94 Co84 2.021 . S
O94 C91 1.238 . S
O95 Co89 2.052 . S
O95 C91 1.241 . S
O96 Co84 2.137 . S
O96 C87 1.247 . S
O97 Co84 2.244 . S
O97 C87 1.272 . S
O97 Co89 2.135 . S
Co98 O99 2.216 . S
Co98 O100 2.091 . S
Co98 O102 2.004 . S
Co98 O108 2.021 . S
Co98 O110 2.137 . S
Co98 O111 2.244 . S
O99 Co98 2.216 . S
O99 C106 1.247 . S
O100 Co98 2.091 . S
O100 C106 1.261 . S
C101 O110 1.247 . S
C101 O111 1.272 . S
O102 Co98 2.004 . S
O102 C107 1.259 . S
Co103 O104 2.061 . S
Co103 O109 2.052 . S
Co103 O111 2.135 . S
O104 Co103 2.061 . S
O104 C107 1.235 . S
C105 O108 1.238 . S
C105 O109 1.241 . S
C106 O99 1.247 . S
C106 O100 1.261 . S
C107 O102 1.259 . S
C107 O104 1.235 . S
O108 Co98 2.021 . S
O108 C105 1.238 . S
O109 Co103 2.052 . S
O109 C105 1.241 . S
O110 Co98 2.137 . S
O110 C101 1.247 . S
O111 Co98 2.244 . S
O111 C101 1.272 . S
O111 Co103 2.135 . S
Co112 O113 2.216 . S
Co112 O114 2.091 . S
Co112 O116 2.004 . S
Co112 O122 2.021 . S
Co112 O124 2.137 . S
Co112 O125 2.244 . S
O113 Co112 2.216 . S
O113 C120 1.247 . S
O114 Co112 2.091 . S
O114 C120 1.261 . S
C115 O124 1.247 . S
C115 O125 1.272 . S
O116 Co112 2.004 . S
O116 C121 1.259 . S
Co117 O118 2.061 . S
Co117 O123 2.052 . S
Co117 O125 2.135 . S
O118 Co117 2.061 . S
O118 C121 1.235 . S
C119 O122 1.238 . S
C119 O123 1.241 . S
C120 O113 1.247 . S
C120 O114 1.261 . S
C121 O116 1.259 . S
C121 O118 1.235 . S
O122 Co112 2.021 . S
O122 C119 1.238 . S
O123 Co117 2.052 . S
O123 C119 1.241 . S
O124 Co112 2.137 . S
O124 C115 1.247 . S
O125 Co112 2.244 . S
O125 C115 1.272 . S
O125 Co117 2.135 . S
Co126 O127 2.216 . S
Co126 O128 2.091 . S
Co126 O130 2.004 . S
Co126 O136 2.021 . S
Co126 O138 2.137 . S
Co126 O139 2.244 . S
O127 Co126 2.216 . S
O127 C134 1.247 . S
O128 Co126 2.091 . S
O128 C134 1.261 . S
C129 O138 1.247 . S
C129 O139 1.272 . S
O130 Co126 2.004 . S
O130 C135 1.259 . S
Co131 O132 2.061 . S
Co131 O137 2.052 . S
Co131 O139 2.135 . S
O132 Co131 2.061 . S
O132 C135 1.235 . S
C133 O136 1.238 . S
C133 O137 1.241 . S
C134 O127 1.247 . S
C134 O128 1.261 . S
C135 O130 1.259 . S
C135 O132 1.235 . S
O136 Co126 2.021 . S
O136 C133 1.238 . S
O137 Co131 2.052 . S
O137 C133 1.241 . S
O138 Co126 2.137 . S
O138 C129 1.247 . S
O139 Co126 2.244 . S
O139 C129 1.272 . S
O139 Co131 2.135 . S
Co140 O141 2.216 . S
Co140 O142 2.091 . S
Co140 O144 2.004 . S
Co140 O150 2.021 . S
Co140 O152 2.137 . S
Co140 O153 2.244 . S
O141 Co140 2.216 . S
O141 C148 1.247 . S
O142 Co140 2.091 . S
O142 C148 1.261 . S
C143 O152 1.247 . S
C143 O153 1.272 . S
O144 Co140 2.004 . S
O144 C149 1.259 . S
Co145 O146 2.061 . S
Co145 O151 2.052 . S
Co145 O153 2.135 . S
O146 Co145 2.061 . S
O146 C149 1.235 . S
C147 O150 1.238 . S
C147 O151 1.241 . S
C148 O141 1.247 . S
C148 O142 1.261 . S
C149 O144 1.259 . S
C149 O146 1.235 . S
O150 Co140 2.021 . S
O150 C147 1.238 . S
O151 Co145 2.052 . S
O151 C147 1.241 . S
O152 Co140 2.137 . S
O152 C143 1.247 . S
O153 Co140 2.244 . S
O153 C143 1.272 . S
O153 Co145 2.135 . S
Co154 O155 2.216 . S
Co154 O156 2.091 . S
Co154 O158 2.004 . S
Co154 O164 2.021 . S
Co154 O166 2.137 . S
Co154 O167 2.244 . S
O155 Co154 2.216 . S
O155 C162 1.247 . S
O156 Co154 2.091 . S
O156 C162 1.261 . S
C157 O166 1.247 . S
C157 O167 1.272 . S
O158 Co154 2.004 . S
O158 C163 1.259 . S
Co159 O160 2.061 . S
Co159 O165 2.052 . S
Co159 O167 2.135 . S
O160 Co159 2.061 . S
O160 C163 1.235 . S
C161 O164 1.238 . S
C161 O165 1.241 . S
C162 O155 1.247 . S
C162 O156 1.261 . S
C163 O158 1.259 . S
C163 O160 1.235 . S
O164 Co154 2.021 . S
O164 C161 1.238 . S
O165 Co159 2.052 . S
O165 C161 1.241 . S
O166 Co154 2.137 . S
O166 C157 1.247 . S
O167 Co154 2.244 . S
O167 C157 1.272 . S
O167 Co159 2.135 . S
H168 C174 0.930 . S
H169 C177 0.930 . S
H170 C178 0.930 . S
H171 C179 0.930 . S
H172 C182 0.930 . S
H173 C183 0.930 . S
C174 H168 0.930 . S
C174 C175 1.355 . S
C174 C176 1.415 . S
C175 C174 1.355 . S
C175 C177 1.419 . S
C176 C174 1.415 . S
C176 C181 1.425 . S
C176 C183 1.409 . S
C177 H169 0.930 . S
C177 C175 1.419 . S
C177 C178 1.362 . S
C178 H170 0.930 . S
C178 C177 1.362 . S
C178 C181 1.409 . S
C179 H171 0.930 . S
C179 C180 1.355 . S
C179 C181 1.415 . S
C180 C179 1.355 . S
C180 C182 1.419 . S
C181 C176 1.425 . S
C181 C178 1.409 . S
C181 C179 1.415 . S
C182 H172 0.930 . S
C182 C180 1.419 . S
C182 C183 1.362 . S
C183 H173 0.930 . S
C183 C176 1.409 . S
C183 C182 1.362 . S
H184 C190 0.930 . S
H185 C193 0.930 . S
H186 C194 0.930 . S
H187 C195 0.930 . S
H188 C198 0.930 . S
H189 C199 0.930 . S
C190 H184 0.930 . S
C190 C191 1.355 . S
C190 C192 1.415 . S
C191 C190 1.355 . S
C191 C193 1.419 . S
C192 C190 1.415 . S
C192 C197 1.425 . S
C192 C199 1.409 . S
C193 H185 0.930 . S
C193 C191 1.419 . S
C193 C194 1.362 . S
C194 H186 0.930 . S
C194 C193 1.362 . S
C194 C197 1.409 . S
C195 H187 0.930 . S
C195 C196 1.355 . S
C195 C197 1.415 . S
C196 C195 1.355 . S
C196 C198 1.419 . S
C197 C192 1.425 . S
C197 C194 1.409 . S
C197 C195 1.415 . S
C198 H188 0.930 . S
C198 C196 1.419 . S
C198 C199 1.362 . S
C199 H189 0.930 . S
C199 C192 1.409 . S
C199 C198 1.362 . S
H200 C206 0.930 . S
H201 C209 0.930 . S
H202 C210 0.930 . S
H203 C211 0.930 . S
H204 C214 0.930 . S
H205 C215 0.930 . S
C206 H200 0.930 . S
C206 C207 1.355 . S
C206 C208 1.415 . S
C207 C206 1.355 . S
C207 C209 1.419 . S
C208 C206 1.415 . S
C208 C213 1.425 . S
C208 C215 1.409 . S
C209 H201 0.930 . S
C209 C207 1.419 . S
C209 C210 1.362 . S
C210 H202 0.930 . S
C210 C209 1.362 . S
C210 C213 1.409 . S
C211 H203 0.930 . S
C211 C212 1.355 . S
C211 C213 1.415 . S
C212 C211 1.355 . S
C212 C214 1.419 . S
C213 C208 1.425 . S
C213 C210 1.409 . S
C213 C211 1.415 . S
C214 H204 0.930 . S
C214 C212 1.419 . S
C214 C215 1.362 . S
C215 H205 0.930 . S
C215 C208 1.409 . S
C215 C214 1.362 . S
H216 C222 0.930 . S
H217 C225 0.930 . S
H218 C226 0.930 . S
H219 C227 0.930 . S
H220 C230 0.930 . S
H221 C231 0.930 . S
C222 H216 0.930 . S
C222 C223 1.355 . S
C222 C224 1.415 . S
C223 C222 1.355 . S
C223 C225 1.419 . S
C224 C222 1.415 . S
C224 C229 1.425 . S
C224 C231 1.409 . S
C225 H217 0.930 . S
C225 C223 1.419 . S
C225 C226 1.362 . S
C226 H218 0.930 . S
C226 C225 1.362 . S
C226 C229 1.409 . S
C227 H219 0.930 . S
C227 C228 1.355 . S
C227 C229 1.415 . S
C228 C227 1.355 . S
C228 C230 1.419 . S
C229 C224 1.425 . S
C229 C226 1.409 . S
C229 C227 1.415 . S
C230 H220 0.930 . S
C230 C228 1.419 . S
C230 C231 1.362 . S
C231 H221 0.930 . S
C231 C224 1.409 . S
C231 C230 1.362 . S
H232 C238 0.930 . S
H233 C241 0.930 . S
H234 C242 0.930 . S
H235 C243 0.930 . S
H236 C246 0.930 . S
H237 C247 0.930 . S
C238 H232 0.930 . S
C238 C239 1.355 . S
C238 C240 1.415 . S
C239 C238 1.355 . S
C239 C241 1.419 . S
C240 C238 1.415 . S
C240 C245 1.425 . S
C240 C247 1.409 . S
C241 H233 0.930 . S
C241 C239 1.419 . S
C241 C242 1.362 . S
C242 H234 0.930 . S
C242 C241 1.362 . S
C242 C245 1.409 . S
C243 H235 0.930 . S
C243 C244 1.355 . S
C243 C245 1.415 . S
C244 C243 1.355 . S
C244 C246 1.419 . S
C245 C240 1.425 . S
C245 C242 1.409 . S
C245 C243 1.415 . S
C246 H236 0.930 . S
C246 C244 1.419 . S
C246 C247 1.362 . S
C247 H237 0.930 . S
C247 C240 1.409 . S
C247 C246 1.362 . S
H248 C254 0.930 . S
H249 C257 0.930 . S
H250 C258 0.930 . S
H251 C259 0.930 . S
H252 C262 0.930 . S
H253 C263 0.930 . S
C254 H248 0.930 . S
C254 C255 1.355 . S
C254 C256 1.415 . S
C255 C254 1.355 . S
C255 C257 1.419 . S
C256 C254 1.415 . S
C256 C261 1.425 . S
C256 C263 1.409 . S
C257 H249 0.930 . S
C257 C255 1.419 . S
C257 C258 1.362 . S
C258 H250 0.930 . S
C258 C257 1.362 . S
C258 C261 1.409 . S
C259 H251 0.930 . S
C259 C260 1.355 . S
C259 C261 1.415 . S
C260 C259 1.355 . S
C260 C262 1.419 . S
C261 C256 1.425 . S
C261 C258 1.409 . S
C261 C259 1.415 . S
C262 H252 0.930 . S
C262 C260 1.419 . S
C262 C263 1.362 . S
C263 H253 0.930 . S
C263 C256 1.409 . S
C263 C262 1.362 . S
H264 C270 0.930 . S
H265 C273 0.930 . S
H266 C274 0.930 . S
H267 C275 0.930 . S
H268 C278 0.930 . S
H269 C279 0.930 . S
C270 H264 0.930 . S
C270 C271 1.355 . S
C270 C272 1.415 . S
C271 C270 1.355 . S
C271 C273 1.419 . S
C272 C270 1.415 . S
C272 C277 1.425 . S
C272 C279 1.409 . S
C273 H265 0.930 . S
C273 C271 1.419 . S
C273 C274 1.362 . S
C274 H266 0.930 . S
C274 C273 1.362 . S
C274 C277 1.409 . S
C275 H267 0.930 . S
C275 C276 1.355 . S
C275 C277 1.415 . S
C276 C275 1.355 . S
C276 C278 1.419 . S
C277 C272 1.425 . S
C277 C274 1.409 . S
C277 C275 1.415 . S
C278 H268 0.930 . S
C278 C276 1.419 . S
C278 C279 1.362 . S
C279 H269 0.930 . S
C279 C272 1.409 . S
C279 C278 1.362 . S
H280 C286 0.930 . S
H281 C289 0.930 . S
H282 C290 0.930 . S
H283 C291 0.930 . S
H284 C294 0.930 . S
H285 C295 0.930 . S
C286 H280 0.930 . S
C286 C287 1.355 1_655 S
C286 C288 1.415 . S
C287 C286 1.355 1_455 S
C287 C289 1.419 . S
C288 C286 1.415 . S
C288 C293 1.425 1_655 S
C288 C295 1.409 . S
C289 H281 0.930 . S
C289 C287 1.419 . S
C289 C290 1.362 . S
C290 H282 0.930 . S
C290 C289 1.362 . S
C290 C293 1.409 . S
C291 H283 0.930 . S
C291 C292 1.355 1_455 S
C291 C293 1.415 . S
C292 C291 1.355 1_655 S
C292 C294 1.419 . S
C293 C288 1.425 1_455 S
C293 C290 1.409 . S
C293 C291 1.415 . S
C294 H284 0.930 . S
C294 C292 1.419 . S
C294 C295 1.362 . S
C295 H285 0.930 . S
C295 C288 1.409 . S
C295 C294 1.362 . S
H296 C302 0.930 . S
H297 C305 0.930 . S
H298 C306 0.930 . S
H299 C307 0.930 . S
H300 C310 0.930 . S
H301 C311 0.930 . S
C302 H296 0.930 . S
C302 C303 1.355 1_565 S
C302 C304 1.415 . S
C303 C302 1.355 1_545 S
C303 C305 1.419 . S
C304 C302 1.415 . S
C304 C309 1.425 1_565 S
C304 C311 1.409 . S
C305 H297 0.930 . S
C305 C303 1.419 . S
C305 C306 1.362 . S
C306 H298 0.930 . S
C306 C305 1.362 . S
C306 C309 1.409 . S
C307 H299 0.930 . S
C307 C308 1.355 1_545 S
C307 C309 1.415 . S
C308 C307 1.355 1_565 S
C308 C310 1.419 . S
C309 C304 1.425 1_545 S
C309 C306 1.409 . S
C309 C307 1.415 . S
C310 H300 0.930 . S
C310 C308 1.419 . S
C310 C311 1.362 . S
C311 H301 0.930 . S
C311 C304 1.409 . S
C311 C310 1.362 . S
H312 C318 0.930 . S
H313 C321 0.930 . S
H314 C322 0.930 . S
H315 C323 0.930 . S
H316 C326 0.930 . S
H317 C327 0.930 . S
C318 H312 0.930 . S
C318 C319 1.355 . S
C318 C320 1.415 . S
C319 C318 1.355 . S
C319 C321 1.419 . S
C320 C318 1.415 . S
C320 C325 1.425 . S
C320 C327 1.409 . S
C321 H313 0.930 . S
C321 C319 1.419 . S
C321 C322 1.362 . S
C322 H314 0.930 . S
C322 C321 1.362 . S
C322 C325 1.409 . S
C323 H315 0.930 . S
C323 C324 1.355 . S
C323 C325 1.415 . S
C324 C323 1.355 . S
C324 C326 1.419 . S
C325 C320 1.425 . S
C325 C322 1.409 . S
C325 C323 1.415 . S
C326 H316 0.930 . S
C326 C324 1.419 . S
C326 C327 1.362 . S
C327 H317 0.930 . S
C327 C320 1.409 . S
C327 C326 1.362 . S
H328 C334 0.930 . S
H329 C337 0.930 . S
H330 C338 0.930 . S
H331 C339 0.930 . S
H332 C342 0.930 . S
H333 C343 0.930 . S
C334 H328 0.930 . S
C334 C335 1.355 . S
C334 C336 1.415 . S
C335 C334 1.355 . S
C335 C337 1.419 1_655 S
C336 C334 1.415 . S
C336 C341 1.425 1_655 S
C336 C343 1.409 . S
C337 H329 0.930 . S
C337 C335 1.419 1_455 S
C337 C338 1.362 . S
C338 H330 0.930 . S
C338 C337 1.362 . S
C338 C341 1.409 . S
C339 H331 0.930 . S
C339 C340 1.355 . S
C339 C341 1.415 . S
C340 C339 1.355 . S
C340 C342 1.419 1_455 S
C341 C336 1.425 1_455 S
C341 C338 1.409 . S
C341 C339 1.415 . S
C342 H332 0.930 . S
C342 C340 1.419 1_655 S
C342 C343 1.362 . S
C343 H333 0.930 . S
C343 C336 1.409 . S
C343 C342 1.362 . S
H344 C350 0.930 . S
H345 C353 0.930 . S
H346 C354 0.931 1_545 S
H347 C355 0.930 . S
H348 C358 0.930 . S
H349 C359 0.931 1_565 S
C350 H344 0.930 . S
C350 C351 1.355 . S
C350 C352 1.415 . S
C351 C350 1.355 . S
C351 C353 1.419 . S
C352 C350 1.415 . S
C352 C357 1.425 1_565 S
C352 C359 1.409 1_565 S
C353 H345 0.930 . S
C353 C351 1.419 . S
C353 C354 1.362 . S
C354 H346 0.931 1_565 S
C354 C353 1.362 . S
C354 C357 1.409 1_565 S
C355 H347 0.930 . S
C355 C356 1.355 . S
C355 C357 1.415 . S
C356 C355 1.355 . S
C356 C358 1.419 . S
C357 C352 1.425 1_545 S
C357 C354 1.409 1_545 S
C357 C355 1.415 . S
C358 H348 0.930 . S
C358 C356 1.419 . S
C358 C359 1.362 . S
C359 H349 0.931 1_545 S
C359 C352 1.409 1_545 S
C359 C358 1.362 . S
H360 C366 0.930 . S
H361 C369 0.930 . S
H362 C370 0.930 . S
H363 C371 0.930 . S
H364 C374 0.930 . S
H365 C375 0.930 . S
C366 H360 0.930 . S
C366 C367 1.355 . S
C366 C368 1.415 . S
C367 C366 1.355 . S
C367 C369 1.419 . S
C368 C366 1.415 . S
C368 C373 1.425 . S
C368 C375 1.409 . S
C369 H361 0.930 . S
C369 C367 1.419 . S
C369 C370 1.362 . S
C370 H362 0.930 . S
C370 C369 1.362 . S
C370 C373 1.409 . S
C371 H363 0.930 . S
C371 C372 1.355 . S
C371 C373 1.415 . S
C372 C371 1.355 . S
C372 C374 1.419 . S
C373 C368 1.425 . S
C373 C370 1.409 . S
C373 C371 1.415 . S
C374 H364 0.930 . S
C374 C372 1.419 . S
C374 C375 1.362 . S
C375 H365 0.930 . S
C375 C368 1.409 . S
C375 C374 1.362 . S
H376 C382 0.930 . S
H377 C385 0.930 . S
H378 C386 0.930 . S
H379 C387 0.930 . S
H380 C390 0.930 . S
H381 C391 0.930 . S
C382 H376 0.930 . S
C382 C383 1.355 . S
C382 C384 1.415 . S
C383 C382 1.355 . S
C383 C385 1.419 1_655 S
C384 C382 1.415 . S
C384 C389 1.425 1_655 S
C384 C391 1.409 . S
C385 H377 0.930 . S
C385 C383 1.419 1_455 S
C385 C386 1.362 . S
C386 H378 0.930 . S
C386 C385 1.362 . S
C386 C389 1.409 . S
C387 H379 0.930 . S
C387 C388 1.355 . S
C387 C389 1.415 . S
C388 C387 1.355 . S
C388 C390 1.419 1_455 S
C389 C384 1.425 1_455 S
C389 C386 1.409 . S
C389 C387 1.415 . S
C390 H380 0.930 . S
C390 C388 1.419 1_655 S
C390 C391 1.362 . S
C391 H381 0.930 . S
C391 C384 1.409 . S
C391 C390 1.362 . S
H392 C398 0.930 . S
H393 C401 0.930 . S
H394 C402 0.930 . S
H395 C403 0.930 . S
H396 C406 0.930 . S
H397 C407 0.930 . S
C398 H392 0.930 . S
C398 C399 1.355 . S
C398 C400 1.415 1_556 S
C399 C398 1.355 . S
C399 C401 1.419 1_565 S
C400 C398 1.415 1_554 S
C400 C405 1.425 1_564 S
C400 C407 1.409 . S
C401 H393 0.930 . S
C401 C399 1.419 1_545 S
C401 C402 1.362 . S
C402 H394 0.930 . S
C402 C401 1.362 . S
C402 C405 1.409 . S
C403 H395 0.930 . S
C403 C404 1.355 . S
C403 C405 1.415 1_554 S
C404 C403 1.355 . S
C404 C406 1.419 1_545 S
C405 C400 1.425 1_546 S
C405 C402 1.409 . S
C405 C403 1.415 1_556 S
C406 H396 0.930 . S
C406 C404 1.419 1_565 S
C406 C407 1.362 . S
C407 H397 0.930 . S
C407 C400 1.409 . S
C407 C406 1.362 . S
H408 C414 0.930 . S
H409 C417 0.930 . S
H410 C418 0.930 . S
H411 C419 0.930 . S
H412 C422 0.930 . S
H413 C423 0.930 . S
C414 H408 0.930 . S
C414 C415 1.355 . S
C414 C416 1.415 . S
C415 C414 1.355 . S
C415 C417 1.419 . S
C416 C414 1.415 . S
C416 C421 1.425 . S
C416 C423 1.409 . S
C417 H409 0.930 . S
C417 C415 1.419 . S
C417 C418 1.362 . S
C418 H410 0.930 . S
C418 C417 1.362 . S
C418 C421 1.409 . S
C419 H411 0.930 . S
C419 C420 1.355 . S
C419 C421 1.415 . S
C420 C419 1.355 . S
C420 C422 1.419 . S
C421 C416 1.425 . S
C421 C418 1.409 . S
C421 C419 1.415 . S
C422 H412 0.930 . S
C422 C420 1.419 . S
C422 C423 1.362 . S
C423 H413 0.930 . S
C423 C416 1.409 . S
C423 C422 1.362 . S
H424 C430 0.930 . S
H425 C433 0.930 1_655 S
H426 C434 0.930 . S
H427 C435 0.930 . S
H428 C438 0.930 . S
H429 C439 0.930 . S
C430 H424 0.930 . S
C430 C431 1.355 . S
C430 C432 1.415 . S
C431 C430 1.355 . S
C431 C433 1.419 . S
C432 C430 1.415 . S
C432 C437 1.425 1_455 S
C432 C439 1.409 . S
C433 H425 0.930 1_455 S
C433 C431 1.419 . S
C433 C434 1.362 1_455 S
C434 H426 0.930 . S
C434 C433 1.362 1_655 S
C434 C437 1.409 . S
C435 H427 0.930 . S
C435 C436 1.355 . S
C435 C437 1.415 . S
C436 C435 1.355 . S
C436 C438 1.419 . S
C437 C432 1.425 1_655 S
C437 C434 1.409 . S
C437 C435 1.415 . S
C438 H428 0.930 . S
C438 C436 1.419 . S
C438 C439 1.362 1_655 S
C439 H429 0.930 . S
C439 C432 1.409 . S
C439 C438 1.362 1_455 S
H440 C446 0.930 . S
H441 C449 0.930 . S
H442 C450 0.930 . S
H443 C451 0.930 . S
H444 C454 0.930 . S
H445 C455 0.930 . S
C446 H440 0.930 . S
C446 C447 1.355 . S
C446 C448 1.415 . S
C447 C446 1.355 . S
C447 C449 1.419 . S
C448 C446 1.415 . S
C448 C453 1.425 1_564 S
C448 C455 1.409 1_564 S
C449 H441 0.930 . S
C449 C447 1.419 . S
C449 C450 1.362 . S
C450 H442 0.930 . S
C450 C449 1.362 . S
C450 C453 1.409 1_564 S
C451 H443 0.930 . S
C451 C452 1.355 . S
C451 C453 1.415 . S
C452 C451 1.355 . S
C452 C454 1.419 . S
C453 C448 1.425 1_546 S
C453 C450 1.409 1_546 S
C453 C451 1.415 . S
C454 H444 0.930 . S
C454 C452 1.419 . S
C454 C455 1.362 . S
C455 H445 0.930 . S
C455 C448 1.409 1_546 S
C455 C454 1.362 . S
H456 C462 0.930 . S
H457 C465 0.930 . S
H458 C466 0.930 . S
H459 C467 0.930 . S
H460 C470 0.930 . S
H461 C471 0.930 1_655 S
C462 H456 0.930 . S
C462 C463 1.355 . S
C462 C464 1.415 . S
C463 C462 1.355 . S
C463 C465 1.419 . S
C464 C462 1.415 . S
C464 C469 1.425 1_655 S
C464 C471 1.409 1_655 S
C465 H457 0.930 . S
C465 C463 1.419 . S
C465 C466 1.362 . S
C466 H458 0.930 . S
C466 C465 1.362 . S
C466 C469 1.409 1_655 S
C467 H459 0.930 . S
C467 C468 1.355 . S
C467 C469 1.415 . S
C468 C467 1.355 . S
C468 C470 1.419 . S
C469 C464 1.425 1_455 S
C469 C466 1.409 1_455 S
C469 C467 1.415 . S
C470 H460 0.930 . S
C470 C468 1.419 . S
C470 C471 1.362 . S
C471 H461 0.930 1_455 S
C471 C464 1.409 1_455 S
C471 C470 1.362 . S
H472 C478 0.930 . S
H473 C481 0.930 . S
H474 C482 0.930 . S
H475 C483 0.930 . S
H476 C486 0.930 . S
H477 C487 0.930 . S
C478 H472 0.930 . S
C478 C479 1.355 . S
C478 C480 1.415 . S
C479 C478 1.355 . S
C479 C481 1.419 . S
C480 C478 1.415 . S
C480 C485 1.425 1_545 S
C480 C487 1.409 1_545 S
C481 H473 0.930 . S
C481 C479 1.419 . S
C481 C482 1.362 . S
C482 H474 0.930 . S
C482 C481 1.362 . S
C482 C485 1.409 1_545 S
C483 H475 0.930 . S
C483 C484 1.355 . S
C483 C485 1.415 . S
C484 C483 1.355 . S
C484 C486 1.419 . S
C485 C480 1.425 1_565 S
C485 C482 1.409 1_565 S
C485 C483 1.415 . S
C486 H476 0.930 . S
C486 C484 1.419 . S
C486 C487 1.362 . S
C487 H477 0.930 . S
C487 C480 1.409 1_565 S
C487 C486 1.362 . S
H488 C494 0.930 . S
H489 C497 0.930 . S
H490 C498 0.930 . S
H491 C499 0.930 . S
H492 C502 0.930 . S
H493 C503 0.930 . S
C494 H488 0.930 . S
C494 C495 1.355 . S
C494 C496 1.415 . S
C495 C494 1.355 . S
C495 C497 1.419 . S
C496 C494 1.415 . S
C496 C501 1.425 . S
C496 C503 1.409 . S
C497 H489 0.930 . S
C497 C495 1.419 . S
C497 C498 1.362 . S
C498 H490 0.930 . S
C498 C497 1.362 . S
C498 C501 1.409 . S
C499 H491 0.930 . S
C499 C500 1.355 . S
C499 C501 1.415 . S
C500 C499 1.355 . S
C500 C502 1.419 . S
C501 C496 1.425 . S
C501 C498 1.409 . S
C501 C499 1.415 . S
C502 H492 0.930 . S
C502 C500 1.419 . S
C502 C503 1.362 . S
C503 H493 0.930 . S
C503 C496 1.409 . S
C503 C502 1.362 . S
H504 C510 0.930 . S
H505 C513 0.930 . S
H506 C514 0.930 . S
H507 C515 0.930 . S
H508 C518 0.930 . S
H509 C519 0.930 . S
C510 H504 0.930 . S
C510 C511 1.355 . S
C510 C512 1.415 . S
C511 C510 1.355 . S
C511 C513 1.419 . S
C512 C510 1.415 . S
C512 C517 1.425 1_655 S
C512 C519 1.409 1_655 S
C513 H505 0.930 . S
C513 C511 1.419 . S
C513 C514 1.362 . S
C514 H506 0.930 . S
C514 C513 1.362 . S
C514 C517 1.409 1_655 S
C515 H507 0.930 . S
C515 C516 1.355 . S
C515 C517 1.415 . S
C516 C515 1.355 . S
C516 C518 1.419 . S
C517 C512 1.425 1_455 S
C517 C514 1.409 1_455 S
C517 C515 1.415 . S
C518 H508 0.930 . S
C518 C516 1.419 . S
C518 C519 1.362 . S
C519 H509 0.930 . S
C519 C512 1.409 1_455 S
C519 C518 1.362 . S
H520 C526 0.930 . S
H521 C529 0.930 . S
H522 C530 0.930 . S
H523 C531 0.930 . S
H524 C534 0.930 . S
H525 C535 0.930 . S
C526 H520 0.930 . S
C526 C527 1.355 . S
C526 C528 1.415 . S
C527 C526 1.355 . S
C527 C529 1.419 . S
C528 C526 1.415 . S
C528 C533 1.425 1_565 S
C528 C535 1.409 1_565 S
C529 H521 0.930 . S
C529 C527 1.419 . S
C529 C530 1.362 . S
C530 H522 0.930 . S
C530 C529 1.362 . S
C530 C533 1.409 1_565 S
C531 H523 0.930 . S
C531 C532 1.355 . S
C531 C533 1.415 . S
C532 C531 1.355 . S
C532 C534 1.419 . S
C533 C528 1.425 1_545 S
C533 C530 1.409 1_545 S
C533 C531 1.415 . S
C534 H524 0.930 . S
C534 C532 1.419 . S
C534 C535 1.362 . S
C535 H525 0.930 . S
C535 C528 1.409 1_545 S
C535 C534 1.362 . S
H536 C542 0.930 . S
H537 C545 0.930 . S
H538 C546 0.930 . S
H539 C547 0.930 . S
H540 C550 0.930 . S
H541 C551 0.930 . S
C542 H536 0.930 . S
C542 C543 1.355 . S
C542 C544 1.415 . S
C543 C542 1.355 . S
C543 C545 1.419 . S
C544 C542 1.415 . S
C544 C549 1.425 . S
C544 C551 1.409 . S
C545 H537 0.930 . S
C545 C543 1.419 . S
C545 C546 1.362 . S
C546 H538 0.930 . S
C546 C545 1.362 . S
C546 C549 1.409 . S
C547 H539 0.930 . S
C547 C548 1.355 . S
C547 C549 1.415 . S
C548 C547 1.355 . S
C548 C550 1.419 . S
C549 C544 1.425 . S
C549 C546 1.409 . S
C549 C547 1.415 . S
C550 H540 0.930 . S
C550 C548 1.419 . S
C550 C551 1.362 . S
C551 H541 0.930 . S
C551 C544 1.409 . S
C551 C550 1.362 . S
C175 C119 1.720 . S
C180 C7 1.689 . S
C191 C23 1.792 . S
C196 C135 1.790 . S
C207 C35 1.729 . S
C212 C147 1.703 . S
C223 C49 1.683 . S
C228 C161 1.695 . S
C239 C93 1.798 . S
C244 C65 1.798 . S
C255 C77 1.708 . S
C260 C105 1.683 . S
C271 C51 1.137 . S
C276 C9 1.116 . S
C287 C63 1.139 . S
C292 C21 1.138 . S
C303 C79 0.905 . S
C308 C37 0.960 . S
C319 C91 1.149 . S
C324 C133 1.146 . S
C335 C107 1.154 . S
C340 C149 1.062 . S
C351 C121 1.021 . S
C356 C163 0.903 . S
C367 C3 1.569 . S
C372 C134 1.548 . S
C383 C22 1.559 . S
C388 C143 1.557 . S
C399 C31 1.542 . S
C404 C157 1.542 . S
C415 C92 1.544 . S
C420 C45 1.568 . S
C431 C64 1.547 . S
C436 C101 1.565 . S
C447 C115 1.543 . S
C452 C73 1.556 . S
C463 C162 1.321 . S
C468 C8 1.314 . S
C479 C17 1.313 . S
C484 C87 1.296 . S
C495 C106 1.282 . S
C500 C36 1.263 . S
C511 C50 1.284 . S
C516 C120 1.310 . S
C527 C59 1.341 . S
C532 C129 1.378 . S
C543 C148 1.317 . S
C548 C78 1.303 . S
