# Generated by pormake.
# Topology hjm, (4)-cn, num edge types: 1
# Building blocks:
#     Node 0, Type 0, BuildingBlock: QUQFOY_clean_sbu_3, # of connection points: 4
#     Node 1, Type 0, BuildingBlock: QUQFOY_clean_sbu_3, # of connection points: 4
#     Node 2, Type 0, BuildingBlock: QUQFOY_clean_sbu_3, # of connection points: 4
#     Node 3, Type 0, BuildingBlock: QUQFOY_clean_sbu_3, # of connection points: 4
#     Node 4, Type 0, BuildingBlock: QUQFOY_clean_sbu_3, # of connection points: 4
#     Node 5, Type 0, BuildingBlock: QUQFOY_clean_sbu_3, # of connection points: 4
#     Node 6, Type 0, BuildingBlock: QUQFOY_clean_sbu_3, # of connection points: 4
#     Node 7, Type 0, BuildingBlock: QUQFOY_clean_sbu_3, # of connection points: 4
#     Edge 8, Type (0, 0), BuildingBlock: AJUNOK_clean_linker_0, # of connection points: 2
#     Edge 9, Type (0, 0), BuildingBlock: AJUNOK_clean_linker_0, # of connection points: 2
#     Edge 10, Type (0, 0), BuildingBlock: AJUNOK_clean_linker_0, # of connection points: 2
#     Edge 11, Type (0, 0), BuildingBlock: AJUNOK_clean_linker_0, # of connection points: 2
#     Edge 12, Type (0, 0), BuildingBlock: AJUNOK_clean_linker_0, # of connection points: 2
#     Edge 13, Type (0, 0), BuildingBlock: AJUNOK_clean_linker_0, # of connection points: 2
#     Edge 14, Type (0, 0), BuildingBlock: AJUNOK_clean_linker_0, # of connection points: 2
#     Edge 15, Type (0, 0), BuildingBlock: AJUNOK_clean_linker_0, # of connection points: 2
#     Edge 16, Type (0, 0), BuildingBlock: AJUNOK_clean_linker_0, # of connection points: 2
#     Edge 17, Type (0, 0), BuildingBlock: AJUNOK_clean_linker_0, # of connection points: 2
#     Edge 18, Type (0, 0), BuildingBlock: AJUNOK_clean_linker_0, # of connection points: 2
#     Edge 19, Type (0, 0), BuildingBlock: AJUNOK_clean_linker_0, # of connection points: 2
#     Edge 20, Type (0, 0), BuildingBlock: AJUNOK_clean_linker_0, # of connection points: 2
#     Edge 21, Type (0, 0), BuildingBlock: AJUNOK_clean_linker_0, # of connection points: 2
#     Edge 22, Type (0, 0), BuildingBlock: AJUNOK_clean_linker_0, # of connection points: 2
#     Edge 23, Type (0, 0), BuildingBlock: AJUNOK_clean_linker_0, # of connection points: 2
# Relax obj value: 0.091
# Max RMSD: 0.135
# Mean RMSD: 0.135
data_MOF--net-hjm--node1-QUQFOY_clean_sbu_3--edge1-AJUNOK_clean_linker_0
_symmetry_space_group_name_H-M    P1
_symmetry_Int_Tables_number       1
_symmetry_cell_setting            triclinic
loop_
_symmetry_equiv_pos_as_xyz
'x, y, z'
_cell_length_a     20.923054
_cell_length_b     17.662854
_cell_length_c     20.504864
_cell_angle_alpha  90.440734
_cell_angle_beta   59.873806
_cell_angle_gamma 90.345973
loop_
_atom_site_label
_atom_site_type_symbol
_atom_site_fract_x
_atom_site_fract_y
_atom_site_fract_z
_atom_type_partial_charge
C0 C 0.18603 0.30451 0.16509 0.0
O1 O 0.1904 0.37114 0.18617 0.0
Cd2 Cd 0.18421 0.40395 0.30066 0.0
O3 O 0.17696 0.24773 0.2073 0.0
Cd4 Cd 0.16199 0.22849 0.3356 0.0
C5 C 0.33369 0.30077 0.27669 0.0
O6 O 0.07869 0.33364 0.38911 0.0
O7 O 0.12286 0.29432 0.4571 0.0
O8 O 0.069 0.12788 0.36787 0.0
C9 C 0.07619 0.33527 0.45177 0.0
O10 O 0.30428 0.36511 0.28195 0.0
C11 C 0.09433 0.08511 0.39904 0.0
O12 O 0.29552 0.24048 0.28961 0.0
O13 O 0.15441 0.10618 0.39485 0.0
C14 C 0.80129 0.29818 0.2882 0.0
O15 O 0.79434 0.36451 0.26933 0.0
Cd16 Cd 0.79937 0.40013 0.15664 0.0
O17 O 0.81018 0.24139 0.2452 0.0
Cd18 Cd 0.82054 0.22451 0.11779 0.0
C19 C 0.64912 0.29952 0.17878 0.0
O20 O 0.90435 0.32939 0.06912 0.0
O21 O 0.8652 0.29219 -0.00407 0.0
O22 O 0.90941 0.11852 0.08139 0.0
C23 C 0.9104 0.33261 0.00503 0.0
O24 O 0.67922 0.36371 0.17372 0.0
C25 C 0.88187 0.08054 0.04851 0.0
O26 O 0.68668 0.23904 0.16555 0.0
O27 O 0.82278 0.10633 0.05427 0.0
C28 C 0.91624 0.58834 0.64577 0.0
O29 O 0.94186 0.62167 0.68283 0.0
Cd30 Cd 0.89586 0.73175 0.75644 0.0
O31 O 0.85941 0.61428 0.64525 0.0
Cd32 Cd 0.77378 0.72543 0.70524 0.0
C33 C 0.91884 0.84945 0.61366 0.0
O34 O 0.76816 0.69831 0.82203 0.0
O35 O 0.71829 0.80391 0.82343 0.0
O36 O 0.66552 0.65569 0.71466 0.0
C37 C 0.72928 0.75339 0.86023 0.0
O38 O 0.93841 0.83099 0.66098 0.0
C39 C 0.6399 0.71319 0.69857 0.0
O40 O 0.86277 0.81825 0.61581 0.0
O41 O 0.67925 0.77267 0.6807 0.0
C42 C 0.07025 0.58052 0.80473 0.0
O43 O 0.04177 0.6063 0.76753 0.0
Cd44 Cd 0.08233 0.71588 0.69228 0.0
O45 O 0.12554 0.61349 0.80315 0.0
Cd46 Cd 0.20531 0.72606 0.74012 0.0
C47 C 0.05555 0.84245 0.83258 0.0
O48 O 0.21257 0.69716 0.62113 0.0
O49 O 0.25177 0.80775 0.62797 0.0
O50 O 0.31495 0.65709 0.72557 0.0
C51 C 0.24593 0.75681 0.58746 0.0
O52 O 0.03754 0.81835 0.78533 0.0
C53 C 0.34189 0.71446 0.74107 0.0
O54 O 0.11288 0.81646 0.83138 0.0
O55 O 0.30279 0.77403 0.76105 0.0
C56 C 0.69242 0.81228 0.15525 0.0
O57 O 0.70175 0.881 0.16704 0.0
Cd58 Cd 0.70614 0.9254 0.27347 0.0
O59 O 0.68335 0.76101 0.20287 0.0
Cd60 Cd 0.67381 0.75618 0.32968 0.0
C61 C 0.85062 0.81747 0.25701 0.0
O62 O 0.5983 0.86835 0.37358 0.0
O63 O 0.64555 0.8352 0.44094 0.0
O64 O 0.57518 0.66013 0.37249 0.0
C65 C 0.59994 0.87621 0.43386 0.0
O66 O 0.82508 0.88241 0.25579 0.0
C67 C 0.59822 0.6207 0.408 0.0
O68 O 0.80851 0.75956 0.2776 0.0
O69 O 0.6588 0.64157 0.40273 0.0
C70 C 0.30911 0.80015 0.28007 0.0
O71 O 0.30913 0.8669 0.25772 0.0
Cd72 Cd 0.31776 0.8995 0.1424 0.0
O73 O 0.31492 0.74294 0.23875 0.0
Cd74 Cd 0.33148 0.72282 0.10959 0.0
C75 C 0.16426 0.80218 0.16503 0.0
O76 O 0.41921 0.82466 0.05392 0.0
O77 O 0.36989 0.78847 -0.01089 0.0
O78 O 0.42079 0.61966 0.07963 0.0
C79 C 0.4192 0.8274 -0.00741 0.0
O80 O 0.19693 0.865 0.15919 0.0
C81 C 0.39508 0.57748 0.04777 0.0
O82 O 0.19891 0.73997 0.15407 0.0
O83 O 0.33644 0.60026 0.05023 0.0
C84 C 0.43792 0.12639 0.63235 0.0
O85 O 0.46025 0.15602 0.6739 0.0
Cd86 Cd 0.4043 0.25815 0.75713 0.0
O87 O 0.37941 0.15057 0.63429 0.0
Cd88 Cd 0.28516 0.25209 0.70502 0.0
C89 C 0.42132 0.38486 0.62267 0.0
O90 O 0.27819 0.21769 0.82157 0.0
O91 O 0.2316 0.32633 0.82429 0.0
O92 O 0.18493 0.17327 0.70877 0.0
C93 C 0.23901 0.27248 0.86046 0.0
O94 O 0.44041 0.36485 0.66998 0.0
C95 C 0.15119 0.22855 0.70038 0.0
O96 O 0.3681 0.35132 0.62097 0.0
O97 O 0.18226 0.29284 0.68947 0.0
C98 C 0.57552 0.08256 0.80288 0.0
O99 O 0.55057 0.11383 0.7648 0.0
Cd100 Cd 0.59771 0.22181 0.68953 0.0
O101 O 0.63295 0.1088 0.80237 0.0
Cd102 Cd 0.71781 0.22003 0.74011 0.0
C103 C 0.57181 0.34099 0.83341 0.0
O104 O 0.72648 0.19323 0.62059 0.0
O105 O 0.76565 0.30338 0.62772 0.0
O106 O 0.82768 0.15246 0.72646 0.0
C107 C 0.76037 0.25243 0.58683 0.0
O108 O 0.5541 0.3225 0.78442 0.0
C109 C 0.85383 0.21004 0.74272 0.0
O110 O 0.62726 0.31023 0.83233 0.0
O111 O 0.81433 0.26929 0.76241 0.0
C112 C 0.07799 0.98038 0.48766 0.0
C113 C 0.05183 0.01924 0.44603 0.0
C114 C 0.03497 0.9252 0.54061 0.0
C115 C 0.96375 0.90614 0.55445 0.0
H116 H 0.13148 -0.00594 0.48104 0.0
H117 H 0.05772 0.89788 0.57154 0.0
S118 S 0.87142 0.98675 0.45614 0.0
N119 N 0.95156 0.03142 0.41902 0.0
N120 N 0.87071 0.92771 0.51856 0.0
C121 C 0.93794 0.94229 0.51104 0.0
C122 C 0.98189 -0.00125 0.45696 0.0
C123 C 0.02918 0.93094 0.9404 0.0
C124 C 0.00833 0.90027 0.89009 0.0
C125 C 0.9866 0.98704 -0.0066 0.0
C126 C 0.92112 0.01467 -0.00131 0.0
H127 H 0.0795 0.91247 0.93818 0.0
H128 H 0.00613 0.00999 0.02944 0.0
S129 S 0.84047 0.95196 0.8818 0.0
N130 N 0.91585 0.90062 0.85106 0.0
N131 N 0.83668 0.00566 0.94979 0.0
C132 C 0.89858 0.98316 0.95007 0.0
C133 C 0.94191 0.92624 0.89607 0.0
C134 C 0.53004 0.47285 0.56232 0.0
C135 C 0.46477 0.44482 0.5667 0.0
C136 C 0.57362 0.52778 0.50942 0.0
C137 C 0.55379 0.55782 0.45868 0.0
H138 H 0.54811 0.4522 0.60002 0.0
H139 H 0.62269 0.54776 0.5094 0.0
S140 S 0.38903 0.50341 0.44512 0.0
N141 N 0.38317 0.45088 0.5142 0.0
N142 N 0.46484 0.55466 0.41526 0.0
C143 C 0.48902 0.53016 0.4618 0.0
C144 C 0.44465 0.47368 0.51558 0.0
C145 C 0.41549 0.47801 0.95188 0.0
C146 C 0.4364 0.51078 0.00119 0.0
C147 C 0.45922 0.42294 0.89881 0.0
C148 C 0.5257 0.39752 0.89285 0.0
H149 H 0.36611 0.49681 0.95228 0.0
H150 H 0.4409 0.40095 0.86144 0.0
S151 S 0.60142 0.4594 0.0144 0.0
N152 N 0.5254 0.50979 0.04456 0.0
N153 N 0.60735 0.40575 0.94528 0.0
C154 C 0.5456 0.42723 0.94425 0.0
C155 C 0.50107 0.48384 -0.00177 0.0
C156 C 0.94805 0.40815 0.88897 0.0
C157 C 0.95724 0.39095 0.95046 0.0
C158 C 0.98657 0.46823 0.84094 0.0
C159 C 0.03617 0.51309 0.85223 0.0
H160 H 0.90916 0.37657 0.8791 0.0
H161 H 0.97616 0.4803 0.7954 0.0
S162 S 0.08289 0.48864 0.00307 0.0
N163 N 0.02226 0.42105 0.01822 0.0
N164 N 0.09444 0.53416 0.92792 0.0
C165 C 0.04804 0.49462 0.91185 0.0
C166 C 0.00858 0.43355 0.96099 0.0
C167 C 0.96802 0.42153 0.51102 0.0
C168 C 0.03244 0.39382 0.50777 0.0
C169 C 0.92952 0.48303 0.55737 0.0
C170 C 0.95465 0.51976 0.60144 0.0
H171 H 0.94779 0.3962 0.47638 0.0
H172 H 0.88078 0.50296 0.55715 0.0
S173 S 0.12144 0.46817 0.61235 0.0
N174 N 0.11925 0.406 0.55306 0.0
N175 N 0.04844 0.52244 0.6391 0.0
C176 C 0.01848 0.49115 0.59974 0.0
C177 C 0.05693 0.42789 0.55325 0.0
C178 C 0.56978 0.96831 0.87738 0.0
C179 C 0.53575 0.01585 0.84906 0.0
C180 C 0.53221 0.90567 0.92199 0.0
C181 C 0.46005 0.88779 0.93868 0.0
H182 H 0.62551 0.97975 0.86554 0.0
H183 H 0.55956 0.87114 0.94423 0.0
S184 S 0.34474 -0.00489 0.88157 0.0
N185 N 0.42372 0.04191 0.84415 0.0
N186 N 0.35511 0.9224 0.92543 0.0
C187 C 0.42558 0.93391 0.91025 0.0
C188 C 0.46294 -0.00143 0.86625 0.0
C189 C 0.4912 0.9615 0.49519 0.0
C190 C 0.5594 0.9385 0.48614 0.0
C191 C 0.45223 0.02228 0.54248 0.0
C192 C 0.48064 0.06294 0.58165 0.0
H193 H 0.46744 0.93185 0.46585 0.0
H194 H 0.39946 0.03723 0.54839 0.0
S195 S 0.65982 0.02687 0.57318 0.0
N196 N 0.65498 0.96131 0.51806 0.0
N197 N 0.58351 0.07709 0.60526 0.0
C198 C 0.5499 0.04111 0.57163 0.0
C199 C 0.58878 0.97838 0.52443 0.0
C200 C 0.27865 0.71818 0.39097 0.0
C201 C 0.29903 0.78947 0.35633 0.0
C202 C 0.26292 0.70818 0.46525 0.0
C203 C 0.2674 0.7689 0.50771 0.0
H204 H 0.2729 0.66999 0.36131 0.0
H205 H 0.24617 0.65235 0.48977 0.0
S206 S 0.32405 0.96597 0.44137 0.0
N207 N 0.32707 0.9212 0.36894 0.0
N208 N 0.29759 0.902 0.50839 0.0
C209 C 0.29023 0.83996 0.47304 0.0
C210 C 0.30595 0.85032 0.39744 0.0
C211 C 0.68862 0.83558 -0.02616 0.0
C212 C 0.71144 0.76437 0.93912 0.0
C213 C 0.68069 0.84973 0.04473 0.0
C214 C 0.694 0.7928 0.08422 0.0
H215 H 0.67977 0.88178 0.94483 0.0
H216 H 0.66538 0.90634 0.06807 0.0
S217 S 0.74689 0.59397 0.02149 0.0
N218 N 0.74145 0.63422 0.95205 0.0
N219 N 0.72577 0.66087 0.08573 0.0
C220 C 0.7127 0.72007 0.05208 0.0
C221 C 0.72157 0.70583 -0.02056 0.0
C222 C 0.79043 0.21464 0.39146 0.0
C223 C 0.79728 0.28769 0.3619 0.0
C224 C 0.78102 0.20399 0.46334 0.0
C225 C 0.77829 0.26581 0.50842 0.0
H226 H 0.7905 0.16527 0.35976 0.0
H227 H 0.77475 0.14672 0.48417 0.0
S228 S 0.7995 0.46848 0.45544 0.0
N229 N 0.80554 0.42306 0.38193 0.0
N230 N 0.78727 0.40233 0.51705 0.0
C231 C 0.78811 0.33894 0.47859 0.0
C232 C 0.79757 0.35003 0.40542 0.0
C233 C 0.20797 0.35811 0.04314 0.0
C234 C 0.19394 0.29428 0.08953 0.0
C235 C 0.21986 0.35093 0.96996 0.0
C236 C 0.21843 0.27975 0.94015 0.0
H237 H 0.21137 0.41432 0.0627 0.0
H238 H 0.2329 0.4013 0.93558 0.0
S239 S 0.17805 0.09548 0.03897 0.0
N240 N 0.17484 0.15773 0.10104 0.0
N241 N 0.19776 0.14456 0.96287 0.0
C242 C 0.20245 0.21564 -0.01393 0.0
C243 C 0.18994 0.22283 0.06094 0.0
C244 C 0.45556 0.3647 0.23346 0.0
C245 C 0.41383 0.29728 0.25247 0.0
C246 C 0.53114 0.36431 0.20922 0.0
C247 C 0.56906 0.29648 0.20257 0.0
H248 H 0.42985 0.41882 0.23703 0.0
H249 H 0.55997 0.41815 0.19557 0.0
S250 S 0.48587 0.10386 0.24606 0.0
N251 N 0.4164 0.16029 0.26336 0.0
N252 N 0.55864 0.15957 0.21769 0.0
C253 C 0.52828 0.22837 0.22122 0.0
C254 C 0.45083 0.22877 0.24619 0.0
C255 C 0.52577 0.64546 0.71591 0.0
C256 C 0.56521 0.71342 0.70622 0.0
C257 C 0.45355 0.64579 0.72721 0.0
C258 C 0.4175 0.71417 0.73084 0.0
H259 H 0.55077 0.59161 0.71479 0.0
H260 H 0.4256 0.59217 0.73383 0.0
S261 S 0.49708 0.90702 0.70638 0.0
N262 N 0.56292 0.85072 0.69898 0.0
N263 N 0.42781 0.85117 0.72116 0.0
C264 C 0.45652 0.78224 0.72079 0.0
C265 C 0.53011 0.78191 0.7082 0.0
C266 C 0.04779 0.87268 0.19989 0.0
C267 C 0.08456 0.80286 0.18717 0.0
C268 C 0.97268 0.87635 0.22239 0.0
C269 C 0.93032 0.81041 0.23355 0.0
H270 H 0.07705 0.92554 0.19271 0.0
H271 H 0.94768 0.9318 0.23147 0.0
S272 S -0.00031 0.61283 0.20642 0.0
N273 N 0.07259 0.66566 0.18643 0.0
N274 N 0.93126 0.67261 0.22888 0.0
C275 C 0.96617 0.73996 0.22081 0.0
C276 C 0.04314 0.73619 0.19756 0.0
C277 C 0.03335 0.28578 0.72177 0.0
C278 C 0.07649 0.22062 0.70901 0.0
C279 C 0.96139 0.28121 0.73385 0.0
C280 C 0.92909 0.21116 0.73349 0.0
H281 H 0.05484 0.3411 0.72371 0.0
H282 H 0.93122 0.33349 0.74281 0.0
S283 S 0.01854 0.02305 0.70221 0.0
N284 N 0.08159 0.0834 0.69682 0.0
N285 N 0.94631 0.07467 0.71869 0.0
C286 C 0.97156 0.14525 0.72051 0.0
C287 C 0.04507 0.14997 0.70866 0.0
loop_
_geom_bond_atom_site_label_1
_geom_bond_atom_site_label_2
_geom_bond_distance
_geom_bond_site_symmetry_2
_ccdc_geom_bond_type
C0 O1 1.306 . S
C0 O3 1.160 . S
O1 C0 1.306 . S
O1 Cd2 2.228 . S
Cd2 O1 2.228 . S
Cd2 O6 2.273 . S
Cd2 O10 2.277 . S
O3 C0 1.160 . S
O3 Cd4 2.203 . S
Cd4 O3 2.203 . S
Cd4 O6 2.411 . S
Cd4 O7 2.333 . S
Cd4 O8 2.352 . S
Cd4 O12 2.277 . S
Cd4 O13 2.356 . S
C5 O10 1.209 . S
C5 O12 1.226 . S
O6 Cd2 2.273 . S
O6 Cd4 2.411 . S
O6 C9 1.320 . S
O7 Cd4 2.333 . S
O7 C9 1.214 . S
O8 Cd4 2.352 . S
O8 C11 1.258 . S
C9 O6 1.320 . S
C9 O7 1.214 . S
O10 Cd2 2.277 . S
O10 C5 1.209 . S
C11 O8 1.258 . S
C11 O13 1.282 . S
O12 Cd4 2.277 . S
O12 C5 1.226 . S
O13 Cd4 2.356 . S
O13 C11 1.282 . S
C14 O15 1.306 . S
C14 O17 1.160 . S
O15 C14 1.306 . S
O15 Cd16 2.228 . S
Cd16 O15 2.228 . S
Cd16 O20 2.273 . S
Cd16 O24 2.277 . S
O17 C14 1.160 . S
O17 Cd18 2.203 . S
Cd18 O17 2.203 . S
Cd18 O20 2.411 . S
Cd18 O21 2.333 . S
Cd18 O22 2.352 . S
Cd18 O26 2.277 . S
Cd18 O27 2.356 . S
C19 O24 1.209 . S
C19 O26 1.226 . S
O20 Cd16 2.273 . S
O20 Cd18 2.411 . S
O20 C23 1.320 . S
O21 Cd18 2.333 . S
O21 C23 1.214 . S
O22 Cd18 2.352 . S
O22 C25 1.258 . S
C23 O20 1.320 . S
C23 O21 1.214 . S
O24 Cd16 2.277 . S
O24 C19 1.209 . S
C25 O22 1.258 . S
C25 O27 1.282 . S
O26 Cd18 2.277 . S
O26 C19 1.226 . S
O27 Cd18 2.356 . S
O27 C25 1.282 . S
C28 O29 1.306 . S
C28 O31 1.160 . S
O29 C28 1.306 . S
O29 Cd30 2.228 . S
Cd30 O29 2.228 . S
Cd30 O34 2.273 . S
Cd30 O38 2.277 . S
O31 C28 1.160 . S
O31 Cd32 2.203 . S
Cd32 O31 2.203 . S
Cd32 O34 2.411 . S
Cd32 O35 2.333 . S
Cd32 O36 2.352 . S
Cd32 O40 2.277 . S
Cd32 O41 2.356 . S
C33 O38 1.209 . S
C33 O40 1.226 . S
O34 Cd30 2.273 . S
O34 Cd32 2.411 . S
O34 C37 1.320 . S
O35 Cd32 2.333 . S
O35 C37 1.214 . S
O36 Cd32 2.352 . S
O36 C39 1.258 . S
C37 O34 1.320 . S
C37 O35 1.214 . S
O38 Cd30 2.277 . S
O38 C33 1.209 . S
C39 O36 1.258 . S
C39 O41 1.282 . S
O40 Cd32 2.277 . S
O40 C33 1.226 . S
O41 Cd32 2.356 . S
O41 C39 1.282 . S
C42 O43 1.306 . S
C42 O45 1.160 . S
O43 C42 1.306 . S
O43 Cd44 2.228 . S
Cd44 O43 2.228 . S
Cd44 O48 2.273 . S
Cd44 O52 2.277 . S
O45 C42 1.160 . S
O45 Cd46 2.203 . S
Cd46 O45 2.203 . S
Cd46 O48 2.411 . S
Cd46 O49 2.333 . S
Cd46 O50 2.352 . S
Cd46 O54 2.277 . S
Cd46 O55 2.356 . S
C47 O52 1.209 . S
C47 O54 1.226 . S
O48 Cd44 2.273 . S
O48 Cd46 2.411 . S
O48 C51 1.320 . S
O49 Cd46 2.333 . S
O49 C51 1.214 . S
O50 Cd46 2.352 . S
O50 C53 1.258 . S
C51 O48 1.320 . S
C51 O49 1.214 . S
O52 Cd44 2.277 . S
O52 C47 1.209 . S
C53 O50 1.258 . S
C53 O55 1.282 . S
O54 Cd46 2.277 . S
O54 C47 1.226 . S
O55 Cd46 2.356 . S
O55 C53 1.282 . S
C56 O57 1.306 . S
C56 O59 1.160 . S
O57 C56 1.306 . S
O57 Cd58 2.228 . S
Cd58 O57 2.228 . S
Cd58 O62 2.273 . S
Cd58 O66 2.277 . S
O59 C56 1.160 . S
O59 Cd60 2.203 . S
Cd60 O59 2.203 . S
Cd60 O62 2.411 . S
Cd60 O63 2.333 . S
Cd60 O64 2.352 . S
Cd60 O68 2.277 . S
Cd60 O69 2.356 . S
C61 O66 1.209 . S
C61 O68 1.226 . S
O62 Cd58 2.273 . S
O62 Cd60 2.411 . S
O62 C65 1.320 . S
O63 Cd60 2.333 . S
O63 C65 1.214 . S
O64 Cd60 2.352 . S
O64 C67 1.258 . S
C65 O62 1.320 . S
C65 O63 1.214 . S
O66 Cd58 2.277 . S
O66 C61 1.209 . S
C67 O64 1.258 . S
C67 O69 1.282 . S
O68 Cd60 2.277 . S
O68 C61 1.226 . S
O69 Cd60 2.356 . S
O69 C67 1.282 . S
C70 O71 1.306 . S
C70 O73 1.160 . S
O71 C70 1.306 . S
O71 Cd72 2.228 . S
Cd72 O71 2.228 . S
Cd72 O76 2.273 . S
Cd72 O80 2.277 . S
O73 C70 1.160 . S
O73 Cd74 2.203 . S
Cd74 O73 2.203 . S
Cd74 O76 2.411 . S
Cd74 O77 2.333 . S
Cd74 O78 2.352 . S
Cd74 O82 2.277 . S
Cd74 O83 2.356 . S
C75 O80 1.209 . S
C75 O82 1.226 . S
O76 Cd72 2.273 . S
O76 Cd74 2.411 . S
O76 C79 1.320 . S
O77 Cd74 2.333 . S
O77 C79 1.214 . S
O78 Cd74 2.352 . S
O78 C81 1.258 . S
C79 O76 1.320 . S
C79 O77 1.214 . S
O80 Cd72 2.277 . S
O80 C75 1.209 . S
C81 O78 1.258 . S
C81 O83 1.282 . S
O82 Cd74 2.277 . S
O82 C75 1.226 . S
O83 Cd74 2.356 . S
O83 C81 1.282 . S
C84 O85 1.306 . S
C84 O87 1.160 . S
O85 C84 1.306 . S
O85 Cd86 2.228 . S
Cd86 O85 2.228 . S
Cd86 O90 2.273 . S
Cd86 O94 2.277 . S
O87 C84 1.160 . S
O87 Cd88 2.203 . S
Cd88 O87 2.203 . S
Cd88 O90 2.411 . S
Cd88 O91 2.333 . S
Cd88 O92 2.352 . S
Cd88 O96 2.277 . S
Cd88 O97 2.356 . S
C89 O94 1.209 . S
C89 O96 1.226 . S
O90 Cd86 2.273 . S
O90 Cd88 2.411 . S
O90 C93 1.320 . S
O91 Cd88 2.333 . S
O91 C93 1.214 . S
O92 Cd88 2.352 . S
O92 C95 1.258 . S
C93 O90 1.320 . S
C93 O91 1.214 . S
O94 Cd86 2.277 . S
O94 C89 1.209 . S
C95 O92 1.258 . S
C95 O97 1.282 . S
O96 Cd88 2.277 . S
O96 C89 1.226 . S
O97 Cd88 2.356 . S
O97 C95 1.282 . S
C98 O99 1.306 . S
C98 O101 1.160 . S
O99 C98 1.306 . S
O99 Cd100 2.228 . S
Cd100 O99 2.228 . S
Cd100 O104 2.273 . S
Cd100 O108 2.277 . S
O101 C98 1.160 . S
O101 Cd102 2.203 . S
Cd102 O101 2.203 . S
Cd102 O104 2.411 . S
Cd102 O105 2.333 . S
Cd102 O106 2.352 . S
Cd102 O110 2.277 . S
Cd102 O111 2.356 . S
C103 O108 1.209 . S
C103 O110 1.226 . S
O104 Cd100 2.273 . S
O104 Cd102 2.411 . S
O104 C107 1.320 . S
O105 Cd102 2.333 . S
O105 C107 1.214 . S
O106 Cd102 2.352 . S
O106 C109 1.258 . S
C107 O104 1.320 . S
C107 O105 1.214 . S
O108 Cd100 2.277 . S
O108 C103 1.209 . S
C109 O106 1.258 . S
C109 O111 1.282 . S
O110 Cd102 2.277 . S
O110 C103 1.226 . S
O111 Cd102 2.356 . S
O111 C109 1.282 . S
C112 C113 1.369 1_565 S
C112 C114 1.419 . S
C112 H116 0.930 . S
C113 C112 1.369 1_545 S
C113 C122 1.429 1_455 S
C114 C112 1.419 . S
C114 C115 1.363 1_455 S
C114 H117 0.929 . S
C115 C114 1.363 1_655 S
C115 C121 1.428 . S
H116 C112 0.930 . S
H117 C114 0.929 . S
S118 N119 1.613 . S
S118 N120 1.619 . S
N119 S118 1.613 . S
N119 C122 1.350 . S
N120 S118 1.619 . S
N120 C121 1.350 1_545 S
C121 C115 1.428 . S
C121 N120 1.350 1_565 S
C121 C122 1.434 1_565 S
C122 C113 1.429 1_655 S
C122 N119 1.350 . S
C122 C121 1.434 1_545 S
C123 C124 1.369 1_554 S
C123 C125 1.419 1_465 S
C123 H127 0.930 . S
C124 C123 1.369 1_556 S
C124 C133 1.427 1_455 S
C125 C123 1.419 1_645 S
C125 C126 1.363 . S
C125 H128 0.929 . S
C126 C125 1.363 . S
C126 C132 1.428 1_554 S
H127 C123 0.930 . S
H128 C125 0.929 . S
S129 N130 1.613 1_645 S
S129 N131 1.610 . S
N130 S129 1.613 1_465 S
N130 C133 1.351 1_455 S
N131 S129 1.610 . S
N131 C132 1.351 . S
C132 C126 1.428 1_556 S
C132 N131 1.351 . S
C132 C133 1.434 1_545 S
C133 C124 1.427 1_655 S
C133 N130 1.351 1_655 S
C133 C132 1.434 1_565 S
C134 C135 1.369 . S
C134 C136 1.419 . S
C134 H138 0.930 . S
C135 C134 1.369 . S
C135 C144 1.429 . S
C136 C134 1.419 . S
C136 C137 1.363 . S
C136 H139 0.929 . S
C137 C136 1.363 . S
C137 C143 1.428 . S
H138 C134 0.930 . S
H139 C136 0.929 . S
S140 N141 1.613 . S
S140 N142 1.610 . S
N141 S140 1.613 . S
N141 C144 1.350 . S
N142 S140 1.610 . S
N142 C143 1.351 . S
C143 C137 1.428 . S
C143 N142 1.351 . S
C143 C144 1.434 . S
C144 C135 1.429 . S
C144 N141 1.350 . S
C144 C143 1.434 . S
C145 C146 1.369 1_556 S
C145 C147 1.419 . S
C145 H149 0.930 . S
C146 C145 1.369 1_554 S
C146 C155 1.429 . S
C147 C145 1.419 . S
C147 C148 1.363 . S
C147 H150 0.929 . S
C148 C147 1.363 . S
C148 C154 1.428 1_556 S
H149 C145 0.930 . S
H150 C147 0.929 . S
S151 N152 1.613 . S
S151 N153 1.610 . S
N152 S151 1.613 . S
N152 C155 1.350 . S
N153 S151 1.610 . S
N153 C154 1.351 . S
C154 C148 1.428 1_554 S
C154 N153 1.351 . S
C154 C155 1.434 . S
C155 C146 1.429 . S
C155 N152 1.350 . S
C155 C154 1.434 . S
C156 C157 1.369 . S
C156 C158 1.419 1_554 S
C156 H160 0.930 . S
C157 C156 1.369 . S
C157 C166 1.429 . S
C158 C156 1.419 1_556 S
C158 C159 1.363 1_655 S
C158 H161 0.929 . S
C159 C158 1.363 1_455 S
C159 C165 1.428 . S
H160 C156 0.930 . S
H161 C158 0.929 . S
S162 N163 1.613 . S
S162 N164 1.615 . S
N163 S162 1.613 . S
N163 C166 1.350 1_455 S
N164 S162 1.615 . S
N164 C165 1.346 1_554 S
C165 C159 1.428 . S
C165 N164 1.346 1_556 S
C165 C166 1.434 1_456 S
C166 C157 1.429 . S
C166 N163 1.350 1_655 S
C166 C165 1.434 1_654 S
C167 C168 1.369 . S
C167 C169 1.419 . S
C167 H171 0.930 . S
C168 C167 1.369 . S
C168 C177 1.429 . S
C169 C167 1.419 . S
C169 C170 1.363 1_455 S
C169 H172 0.929 . S
C170 C169 1.363 1_655 S
C170 C176 1.428 . S
H171 C167 0.930 . S
H172 C169 0.929 . S
S173 N174 1.613 . S
S173 N175 1.610 . S
N174 S173 1.613 . S
N174 C177 1.350 1_655 S
N175 S173 1.610 . S
N175 C176 1.351 . S
C176 C170 1.428 . S
C176 N175 1.351 . S
C176 C177 1.434 1_655 S
C177 C168 1.429 . S
C177 N174 1.350 1_455 S
C177 C176 1.434 1_455 S
C178 C179 1.369 1_565 S
C178 C180 1.419 1_556 S
C178 H182 0.930 . S
C179 C178 1.369 1_545 S
C179 C188 1.429 . S
C180 C178 1.419 1_554 S
C180 C181 1.363 . S
C180 H183 0.929 . S
C181 C180 1.363 . S
C181 C187 1.428 1_565 S
H182 C178 0.930 . S
H183 C180 0.929 . S
S184 N185 1.613 . S
S184 N186 1.610 1_556 S
N185 S184 1.613 . S
N185 C188 1.350 . S
N186 S184 1.610 1_554 S
N186 C187 1.351 . S
C187 C181 1.428 1_545 S
C187 N186 1.351 . S
C187 C188 1.434 1_554 S
C188 C179 1.429 . S
C188 N185 1.350 . S
C188 C187 1.434 1_556 S
C189 C190 1.369 . S
C189 C191 1.419 1_565 S
C189 H193 0.930 . S
C190 C189 1.369 . S
C190 C199 1.429 1_565 S
C191 C189 1.419 1_545 S
C191 C192 1.363 . S
C191 H194 0.929 1_545 S
C192 C191 1.363 . S
C192 C198 1.428 . S
H193 C189 0.930 . S
H194 C191 0.929 1_565 S
S195 N196 1.613 . S
S195 N197 1.610 . S
N196 S195 1.613 . S
N196 C199 1.350 . S
N197 S195 1.610 . S
N197 C198 1.351 . S
C198 C192 1.428 . S
C198 N197 1.351 . S
C198 C199 1.434 . S
C199 C190 1.429 1_545 S
C199 N196 1.350 . S
C199 C198 1.434 . S
C200 C201 1.369 . S
C200 C202 1.419 . S
C200 H204 0.930 . S
C201 C200 1.369 . S
C201 C210 1.429 . S
C202 C200 1.419 . S
C202 C203 1.363 . S
C202 H205 0.929 . S
C203 C202 1.363 . S
C203 C209 1.428 . S
H204 C200 0.930 . S
H205 C202 0.929 . S
S206 N207 1.613 . S
S206 N208 1.610 . S
N207 S206 1.613 . S
N207 C210 1.350 . S
N208 S206 1.610 . S
N208 C209 1.351 . S
C209 C203 1.428 . S
C209 N208 1.351 . S
C209 C210 1.434 . S
C210 C201 1.429 . S
C210 N207 1.350 . S
C210 C209 1.434 . S
C211 C212 1.369 . S
C211 C213 1.419 1_556 S
C211 H215 0.930 . S
C212 C211 1.369 . S
C212 C221 1.429 . S
C213 C211 1.419 1_554 S
C213 C214 1.363 . S
C213 H216 0.929 . S
C214 C213 1.363 . S
C214 C220 1.428 . S
H215 C211 0.930 . S
H216 C213 0.929 . S
S217 N218 1.613 . S
S217 N219 1.610 1_556 S
N218 S217 1.613 . S
N218 C221 1.350 . S
N219 S217 1.610 1_554 S
N219 C220 1.351 . S
C220 C214 1.428 . S
C220 N219 1.351 . S
C220 C221 1.434 1_554 S
C221 C212 1.429 . S
C221 N218 1.350 . S
C221 C220 1.434 1_556 S
C222 C223 1.369 . S
C222 C224 1.419 . S
C222 H226 0.930 . S
C223 C222 1.369 . S
C223 C232 1.429 . S
C224 C222 1.419 . S
C224 C225 1.363 . S
C224 H227 0.929 . S
C225 C224 1.363 . S
C225 C231 1.428 . S
H226 C222 0.930 . S
H227 C224 0.929 . S
S228 N229 1.613 . S
S228 N230 1.610 . S
N229 S228 1.613 . S
N229 C232 1.350 . S
N230 S228 1.610 . S
N230 C231 1.351 . S
C231 C225 1.428 . S
C231 N230 1.351 . S
C231 C232 1.434 . S
C232 C223 1.429 . S
C232 N229 1.350 . S
C232 C231 1.434 . S
C233 C234 1.369 . S
C233 C235 1.419 1_554 S
C233 H237 0.930 . S
C234 C233 1.369 . S
C234 C243 1.429 . S
C235 C233 1.419 1_556 S
C235 C236 1.363 . S
C235 H238 0.929 . S
C236 C235 1.363 . S
C236 C242 1.428 . S
H237 C233 0.930 . S
H238 C235 0.929 . S
S239 N240 1.613 . S
S239 N241 1.610 1_554 S
N240 S239 1.613 . S
N240 C243 1.350 . S
N241 S239 1.610 1_556 S
N241 C242 1.351 . S
C242 C236 1.428 . S
C242 N241 1.351 . S
C242 C243 1.434 1_556 S
C243 C234 1.429 . S
C243 N240 1.350 . S
C243 C242 1.434 1_554 S
C244 C245 1.369 . S
C244 C246 1.419 . S
C244 H248 0.930 . S
C245 C244 1.369 . S
C245 C254 1.429 . S
C246 C244 1.419 . S
C246 C247 1.363 . S
C246 H249 0.929 . S
C247 C246 1.363 . S
C247 C253 1.428 . S
H248 C244 0.930 . S
H249 C246 0.929 . S
S250 N251 1.613 . S
S250 N252 1.610 . S
N251 S250 1.613 . S
N251 C254 1.350 . S
N252 S250 1.610 . S
N252 C253 1.351 . S
C253 C247 1.428 . S
C253 N252 1.351 . S
C253 C254 1.434 . S
C254 C245 1.429 . S
C254 N251 1.350 . S
C254 C253 1.434 . S
C255 C256 1.369 . S
C255 C257 1.419 . S
C255 H259 0.930 . S
C256 C255 1.369 . S
C256 C265 1.429 . S
C257 C255 1.419 . S
C257 C258 1.363 . S
C257 H260 0.929 . S
C258 C257 1.363 . S
C258 C264 1.428 . S
H259 C255 0.930 . S
H260 C257 0.929 . S
S261 N262 1.613 . S
S261 N263 1.610 . S
N262 S261 1.613 . S
N262 C265 1.350 . S
N263 S261 1.610 . S
N263 C264 1.351 . S
C264 C258 1.428 . S
C264 N263 1.351 . S
C264 C265 1.434 . S
C265 C256 1.429 . S
C265 N262 1.350 . S
C265 C264 1.434 . S
C266 C267 1.369 . S
C266 C268 1.419 1_455 S
C266 H270 0.930 . S
C267 C266 1.369 . S
C267 C276 1.429 . S
C268 C266 1.419 1_655 S
C268 C269 1.363 . S
C268 H271 0.929 . S
C269 C268 1.363 . S
C269 C275 1.428 . S
H270 C266 0.930 . S
H271 C268 0.929 . S
S272 N273 1.613 . S
S272 N274 1.610 1_455 S
N273 S272 1.613 . S
N273 C276 1.350 . S
N274 S272 1.610 1_655 S
N274 C275 1.351 . S
C275 C269 1.428 . S
C275 N274 1.351 . S
C275 C276 1.434 1_655 S
C276 C267 1.429 . S
C276 N273 1.350 . S
C276 C275 1.434 1_455 S
C277 C278 1.369 . S
C277 C279 1.419 1_455 S
C277 H281 0.930 . S
C278 C277 1.369 . S
C278 C287 1.429 . S
C279 C277 1.419 1_655 S
C279 C280 1.363 . S
C279 H282 0.929 . S
C280 C279 1.363 . S
C280 C286 1.428 . S
H281 C277 0.930 . S
H282 C279 0.929 . S
S283 N284 1.613 . S
S283 N285 1.610 1_455 S
N284 S283 1.613 . S
N284 C287 1.350 . S
N285 S283 1.610 1_655 S
N285 C286 1.351 . S
C286 C280 1.428 . S
C286 N285 1.351 . S
C286 C287 1.434 1_655 S
C287 C278 1.429 . S
C287 N284 1.350 . S
C287 C286 1.434 1_455 S
C113 C11 1.751 . S
C115 C33 1.768 . S
C124 C47 1.769 . S
C126 C25 1.749 . S
C135 C89 1.766 . S
C137 C67 1.752 . S
C146 C81 1.753 . S
C148 C103 1.767 . S
C157 C23 1.351 . S
C159 C42 1.338 . S
C168 C9 1.351 . S
C170 C28 1.336 . S
C179 C98 1.331 . S
C181 C79 1.357 . S
C190 C65 1.357 . S
C192 C84 1.330 . S
C201 C70 1.505 . S
C203 C51 1.523 . S
C212 C37 1.522 . S
C214 C56 1.510 . S
C223 C14 1.506 . S
C225 C107 1.522 . S
C234 C0 1.511 . S
C236 C93 1.521 . S
C245 C5 1.549 . S
C247 C19 1.549 . S
C256 C39 1.570 . S
C258 C53 1.571 . S
C267 C75 1.548 . S
C269 C61 1.548 . S
C278 C95 1.570 . S
C280 C109 1.571 . S
