# Generated by pormake.
# Topology wme, (6)-cn, num edge types: 1
# Building blocks:
#     Node 0, Type 0, BuildingBlock: CUKXOW_clean_sbu_0, # of connection points: 6
#     Node 1, Type 0, BuildingBlock: CUKXOW_clean_sbu_0, # of connection points: 6
#     Node 2, Type 0, BuildingBlock: CUKXOW_clean_sbu_0, # of connection points: 6
#     Node 3, Type 0, BuildingBlock: CUKXOW_clean_sbu_0, # of connection points: 6
#     Node 4, Type 0, BuildingBlock: CUKXOW_clean_sbu_0, # of connection points: 6
#     Node 5, Type 0, BuildingBlock: CUKXOW_clean_sbu_0, # of connection points: 6
#     Node 6, Type 0, BuildingBlock: CUKXOW_clean_sbu_0, # of connection points: 6
#     Node 7, Type 0, BuildingBlock: CUKXOW_clean_sbu_0, # of connection points: 6
#     Node 8, Type 0, BuildingBlock: CUKXOW_clean_sbu_0, # of connection points: 6
#     Node 9, Type 0, BuildingBlock: CUKXOW_clean_sbu_0, # of connection points: 6
#     Node 10, Type 0, BuildingBlock: CUKXOW_clean_sbu_0, # of connection points: 6
#     Node 11, Type 0, BuildingBlock: CUKXOW_clean_sbu_0, # of connection points: 6
#     Edge 12, Type (0, 0), BuildingBlock: EZIPEK_clean_linker_0, # of connection points: 2
#     Edge 13, Type (0, 0), BuildingBlock: EZIPEK_clean_linker_0, # of connection points: 2
#     Edge 14, Type (0, 0), BuildingBlock: EZIPEK_clean_linker_0, # of connection points: 2
#     Edge 15, Type (0, 0), BuildingBlock: EZIPEK_clean_linker_0, # of connection points: 2
#     Edge 16, Type (0, 0), BuildingBlock: EZIPEK_clean_linker_0, # of connection points: 2
#     Edge 17, Type (0, 0), BuildingBlock: EZIPEK_clean_linker_0, # of connection points: 2
#     Edge 18, Type (0, 0), BuildingBlock: EZIPEK_clean_linker_0, # of connection points: 2
#     Edge 19, Type (0, 0), BuildingBlock: EZIPEK_clean_linker_0, # of connection points: 2
#     Edge 20, Type (0, 0), BuildingBlock: EZIPEK_clean_linker_0, # of connection points: 2
#     Edge 21, Type (0, 0), BuildingBlock: EZIPEK_clean_linker_0, # of connection points: 2
#     Edge 22, Type (0, 0), BuildingBlock: EZIPEK_clean_linker_0, # of connection points: 2
#     Edge 23, Type (0, 0), BuildingBlock: EZIPEK_clean_linker_0, # of connection points: 2
#     Edge 24, Type (0, 0), BuildingBlock: EZIPEK_clean_linker_0, # of connection points: 2
#     Edge 25, Type (0, 0), BuildingBlock: EZIPEK_clean_linker_0, # of connection points: 2
#     Edge 26, Type (0, 0), BuildingBlock: EZIPEK_clean_linker_0, # of connection points: 2
#     Edge 27, Type (0, 0), BuildingBlock: EZIPEK_clean_linker_0, # of connection points: 2
#     Edge 28, Type (0, 0), BuildingBlock: EZIPEK_clean_linker_0, # of connection points: 2
#     Edge 29, Type (0, 0), BuildingBlock: EZIPEK_clean_linker_0, # of connection points: 2
#     Edge 30, Type (0, 0), BuildingBlock: EZIPEK_clean_linker_0, # of connection points: 2
#     Edge 31, Type (0, 0), BuildingBlock: EZIPEK_clean_linker_0, # of connection points: 2
#     Edge 32, Type (0, 0), BuildingBlock: EZIPEK_clean_linker_0, # of connection points: 2
#     Edge 33, Type (0, 0), BuildingBlock: EZIPEK_clean_linker_0, # of connection points: 2
#     Edge 34, Type (0, 0), BuildingBlock: EZIPEK_clean_linker_0, # of connection points: 2
#     Edge 35, Type (0, 0), BuildingBlock: EZIPEK_clean_linker_0, # of connection points: 2
#     Edge 36, Type (0, 0), BuildingBlock: EZIPEK_clean_linker_0, # of connection points: 2
#     Edge 37, Type (0, 0), BuildingBlock: EZIPEK_clean_linker_0, # of connection points: 2
#     Edge 38, Type (0, 0), BuildingBlock: EZIPEK_clean_linker_0, # of connection points: 2
#     Edge 39, Type (0, 0), BuildingBlock: EZIPEK_clean_linker_0, # of connection points: 2
#     Edge 40, Type (0, 0), BuildingBlock: EZIPEK_clean_linker_0, # of connection points: 2
#     Edge 41, Type (0, 0), BuildingBlock: EZIPEK_clean_linker_0, # of connection points: 2
#     Edge 42, Type (0, 0), BuildingBlock: EZIPEK_clean_linker_0, # of connection points: 2
#     Edge 43, Type (0, 0), BuildingBlock: EZIPEK_clean_linker_0, # of connection points: 2
#     Edge 44, Type (0, 0), BuildingBlock: EZIPEK_clean_linker_0, # of connection points: 2
#     Edge 45, Type (0, 0), BuildingBlock: EZIPEK_clean_linker_0, # of connection points: 2
#     Edge 46, Type (0, 0), BuildingBlock: EZIPEK_clean_linker_0, # of connection points: 2
#     Edge 47, Type (0, 0), BuildingBlock: EZIPEK_clean_linker_0, # of connection points: 2
# Relax obj value: 0.056
# Max RMSD: 0.151
# Mean RMSD: 0.151
data_MOF--net-wme--node1-CUKXOW_clean_sbu_0--edge1-EZIPEK_clean_linker_0
_symmetry_space_group_name_H-M    P1
_symmetry_Int_Tables_number       1
_symmetry_cell_setting            triclinic
loop_
_symmetry_equiv_pos_as_xyz
'x, y, z'
_cell_length_a     24.000086
_cell_length_b     23.914769
_cell_length_c     41.585007
_cell_angle_alpha  90.049334
_cell_angle_beta   89.857395
_cell_angle_gamma 120.08653
loop_
_atom_site_label
_atom_site_type_symbol
_atom_site_fract_x
_atom_site_fract_y
_atom_site_fract_z
_atom_type_partial_charge
Tb0 Tb 0.2864 0.38799 0.12551 0.0
C1 C 0.22677 0.30011 0.06346 0.0
Tb2 Tb 0.14543 0.27984 0.12786 0.0
O3 O 0.32565 0.32274 0.12203 0.0
O4 O 0.23512 0.29195 0.14098 0.0
O5 O 0.27287 0.35522 0.0758 0.0
C6 C 0.02782 0.17709 0.12925 0.0
O7 O 0.17512 0.26032 0.08079 0.0
C8 C 0.16495 0.39867 0.12665 0.0
C9 C 0.21226 0.34943 0.19265 0.0
O10 O 0.04501 0.22856 0.11216 0.0
O11 O 0.07723 0.18233 0.14464 0.0
O12 O 0.11597 0.35001 0.14 0.0
O13 O 0.19685 0.37807 0.11167 0.0
O14 O 0.16493 0.296 0.17951 0.0
O15 O 0.26062 0.39488 0.17558 0.0
C16 C 0.39042 0.50443 0.11755 0.0
O17 O 0.37892 0.46721 0.14242 0.0
O18 O 0.34311 0.47609 0.09752 0.0
C19 C 0.27166 0.27232 0.13066 0.0
Tb20 Tb 0.8842 0.27738 0.6242 0.0
C21 C 0.93237 0.2306 0.56514 0.0
Tb22 Tb 0.84038 0.13004 0.61842 0.0
O23 O 0.98314 0.31061 0.64146 0.0
O24 O 0.91902 0.21539 0.63482 0.0
O25 O 0.91631 0.27338 0.57552 0.0
C26 C 0.81604 1.00902 0.62054 0.0
O27 O 0.91171 0.17305 0.57913 0.0
C28 C 0.74953 0.16071 0.61047 0.0
C29 C 0.84093 0.1909 0.68662 0.0
O30 O 0.81735 0.03927 0.59423 0.0
O31 O 0.8303 0.04737 0.64487 0.0
O32 O 0.73917 0.10499 0.62005 0.0
O33 O 0.80796 0.19366 0.60244 0.0
O34 O 0.84219 0.14382 0.67038 0.0
O35 O 0.84848 0.24444 0.67284 0.0
C36 C 0.86754 0.37905 0.62178 0.0
O37 O 0.82361 0.32113 0.63003 0.0
O38 O 0.9213 0.38021 0.61576 0.0
C39 C 0.97689 0.25306 0.64246 0.0
Tb40 Tb 0.64504 0.88274 0.12181 0.0
C41 C 0.72925 0.91992 0.05801 0.0
Tb42 Tb 0.74023 0.83533 0.1145 0.0
O43 O 0.71243 0.96968 0.14888 0.0
O44 O 0.7468 0.92612 0.11864 0.0
O45 O 0.67672 0.91341 0.07229 0.0
C46 C 0.82927 0.79802 0.11772 0.0
O47 O 0.76477 0.89732 0.07124 0.0
C48 C 0.6206 0.75151 0.09786 0.0
C49 C 0.68131 0.8366 0.18335 0.0
O50 O 0.82496 0.83401 0.09573 0.0
O51 O 0.78546 0.78677 0.13901 0.0
O52 O 0.67128 0.75568 0.08453 0.0
O53 O 0.63959 0.79147 0.12054 0.0
O54 O 0.73029 0.83893 0.16722 0.0
O55 O 0.63431 0.84043 0.16892 0.0
C56 C 0.53058 0.87458 0.11338 0.0
O57 O 0.57378 0.91145 0.13433 0.0
O58 O 0.55248 0.84356 0.09704 0.0
C59 C 0.76415 0.96853 0.14021 0.0
Tb60 Tb 0.76501 0.64418 0.62326 0.0
C61 C 0.82267 0.73303 0.56099 0.0
Tb62 Tb 0.91303 0.74812 0.62134 0.0
O63 O 0.74206 0.70965 0.65066 0.0
O64 O 0.82388 0.74497 0.62383 0.0
O65 O 0.77448 0.67879 0.57354 0.0
C66 C 0.03332 0.84824 0.62645 0.0
O67 O 0.8795 0.76908 0.57569 0.0
C68 C 0.8854 0.62684 0.61738 0.0
C69 C 0.84537 0.68236 0.68714 0.0
O70 O 1.00401 0.8225 0.59945 0.0
O71 O 0.99466 0.81827 0.65016 0.0
O72 O 0.94157 0.67436 0.62458 0.0
O73 O 0.85215 0.65072 0.60791 0.0
O74 O 0.88735 0.73698 0.67255 0.0
O75 O 0.79619 0.63578 0.6712 0.0
C76 C 0.65692 0.53038 0.61553 0.0
O77 O 0.71291 0.53811 0.62281 0.0
O78 O 0.66149 0.58678 0.61303 0.0
C79 C 0.79595 0.76236 0.64363 0.0
Tb80 Tb 0.13836 0.7363 0.12548 0.0
C81 C 0.10985 0.78666 0.06036 0.0
Tb82 Tb 0.1886 0.88583 0.11786 0.0
O83 O 0.05008 0.72025 0.15035 0.0
O84 O 0.10013 0.79833 0.12097 0.0
O85 O 0.11413 0.7393 0.07492 0.0
C86 C 0.20755 1.00519 0.11873 0.0
O87 O 0.13274 0.84557 0.07311 0.0
C88 C 0.28405 0.86045 0.11207 0.0
C89 C 0.18015 0.82319 0.18675 0.0
O90 O 0.20487 0.97325 0.09288 0.0
O91 O 0.19798 0.96943 0.14394 0.0
O92 O 0.29112 0.9173 0.10843 0.0
O93 O 0.22514 0.8231 0.11735 0.0
O94 O 0.17803 0.86965 0.17007 0.0
O95 O 0.1746 0.77016 0.17341 0.0
C96 C 0.145 0.62886 0.12078 0.0
O97 O 0.09293 0.63066 0.12746 0.0
O98 O 0.1927 0.68714 0.11674 0.0
C99 C 0.05447 0.77455 0.14099 0.0
Tb100 Tb 0.40115 0.16153 0.61659 0.0
C101 C 0.31147 0.12071 0.5542 0.0
Tb102 Tb 0.28997 0.19142 0.6146 0.0
O103 O 0.34479 0.07342 0.64548 0.0
O104 O 0.29989 0.10886 0.61646 0.0
O105 O 0.36581 0.12941 0.56759 0.0
C106 C 0.18279 0.19897 0.61642 0.0
O107 O 0.27517 0.1424 0.56769 0.0
C108 C 0.40828 0.29293 0.61356 0.0
C109 C 0.35416 0.19352 0.68111 0.0
O110 O 0.22779 0.22575 0.59467 0.0
O111 O 0.19682 0.1654 0.6359 0.0
O112 O 0.3584 0.29379 0.62472 0.0
O113 O 0.38876 0.23842 0.60086 0.0
O114 O 0.30033 0.18098 0.66613 0.0
O115 O 0.40489 0.19916 0.66518 0.0
C116 C 0.51854 0.17741 0.60737 0.0
O117 O 0.50637 0.22278 0.61511 0.0
O118 O 0.46468 0.1228 0.60573 0.0
C119 C 0.28948 0.06754 0.63776 0.0
Tb120 Tb 0.65205 0.75809 0.38499 0.0
C121 C 0.74288 0.81181 0.44577 0.0
Tb122 Tb 0.74813 0.89995 0.38587 0.0
O123 O 0.71212 0.73433 0.35419 0.0
O124 O 0.75443 0.81481 0.3828 0.0
O125 O 0.69539 0.7602 0.4314 0.0
C126 C 0.84372 0.02232 0.38311 0.0
O127 O 0.77089 0.87096 0.43264 0.0
C128 C 0.62598 0.87164 0.3879 0.0
C129 C 0.67695 0.83771 0.32198 0.0
O130 O 0.80053 0.99821 0.40578 0.0
O131 O 0.83527 0.97687 0.36327 0.0
O132 O 0.67276 0.92332 0.37546 0.0
O133 O 0.65007 0.84146 0.40139 0.0
O134 O 0.73308 0.87893 0.33483 0.0
O135 O 0.63254 0.79068 0.33962 0.0
C136 C 0.54008 0.64754 0.39577 0.0
O137 O 0.57134 0.66526 0.36876 0.0
O138 O 0.57371 0.69081 0.41714 0.0
C139 C 0.7664 0.78631 0.36063 0.0
Tb140 Tb 0.89516 0.63624 0.88695 0.0
C141 C 0.93355 0.71422 0.95264 0.0
Tb142 Tb 0.85292 0.73579 0.89756 0.0
O143 O 0.98507 0.70542 0.86209 0.0
O144 O 0.94075 0.73711 0.89319 0.0
O145 O 0.92349 0.66123 0.93738 0.0
C146 C 0.82837 0.83369 0.89502 0.0
O147 O 0.91598 0.75438 0.93997 0.0
C148 C 0.76257 0.61395 0.90842 0.0
C149 C 0.85366 0.68299 0.82692 0.0
O150 O 0.836 0.8086 0.92112 0.0
O151 O 0.83559 0.80448 0.87051 0.0
O152 O 0.76576 0.66357 0.92268 0.0
O153 O 0.80612 0.63549 0.88745 0.0
O154 O 0.85749 0.73134 0.8446 0.0
O155 O 0.85548 0.63317 0.83979 0.0
C156 C 0.88675 0.52149 0.89529 0.0
O157 O 0.92135 0.56361 0.87332 0.0
O158 O 0.85624 0.54351 0.91198 0.0
C159 C 0.98403 0.75678 0.87201 0.0
Tb160 Tb 0.28695 0.89244 0.39012 0.0
C161 C 0.23458 0.93336 0.44927 0.0
Tb162 Tb 0.14746 0.86236 0.38998 0.0
O163 O 0.32588 0.99629 0.39452 0.0
O164 O 0.23718 0.93929 0.37344 0.0
O165 O 0.26822 0.90546 0.4406 0.0
C166 C 0.02806 0.84016 0.37715 0.0
O167 O 0.18629 0.92737 0.43124 0.0
C168 C 0.16786 0.76885 0.41233 0.0
C169 C 0.21327 0.85656 0.32431 0.0
O170 O 0.0707 0.8874 0.39461 0.0
O171 O 0.05296 0.80626 0.36712 0.0
O172 O 0.12388 0.78071 0.42289 0.0
O173 O 0.19535 0.80767 0.38963 0.0
O174 O 0.16503 0.85949 0.33849 0.0
O175 O 0.26461 0.86365 0.33995 0.0
C176 C 0.39125 0.8808 0.39429 0.0
O177 O 0.38556 0.92126 0.37569 0.0
O178 O 0.33818 0.84634 0.41022 0.0
C179 C 0.276 0.99629 0.38265 0.0
Tb180 Tb 0.39284 0.2814 0.88827 0.0
C181 C 0.31774 0.21861 0.95237 0.0
Tb182 Tb 0.29931 0.13637 0.88729 0.0
O183 O 0.31819 0.30528 0.89957 0.0
O184 O 0.29489 0.22005 0.87464 0.0
O185 O 0.3687 0.2683 0.93892 0.0
C186 C 0.20782 1.01154 0.88516 0.0
O187 O 0.2813 0.16437 0.9358 0.0
C188 C 0.42177 0.17179 0.88529 0.0
C189 C 0.35216 0.20869 0.82104 0.0
O190 O 0.24597 0.03975 0.90934 0.0
O191 O 0.21962 0.05381 0.8629 0.0
O192 O 0.37653 0.11794 0.87395 0.0
O193 O 0.39601 0.19773 0.90096 0.0
O194 O 0.30639 0.15655 0.83572 0.0
O195 O 0.39346 0.26174 0.83675 0.0
C196 C 0.51332 0.38389 0.88936 0.0
O197 O 0.46315 0.38286 0.87655 0.0
O198 O 0.49332 0.32856 0.90315 0.0
C199 C 0.2712 0.25042 0.88876 0.0
Tb200 Tb 0.14768 0.40323 0.39238 0.0
C201 C 0.11059 0.31802 0.45662 0.0
Tb202 Tb 0.19285 0.29972 0.40072 0.0
O203 O 0.06372 0.33371 0.3632 0.0
O204 O 0.10669 0.3019 0.39478 0.0
O205 O 0.11818 0.37141 0.44234 0.0
C206 C 0.21267 0.19926 0.39698 0.0
O207 O 0.13223 0.28087 0.44407 0.0
C208 C 0.28953 0.41901 0.41056 0.0
C209 C 0.20155 0.36607 0.33221 0.0
O210 O 0.20219 0.2217 0.42347 0.0
O211 O 0.20984 0.23198 0.37278 0.0
O212 O 0.29373 0.36744 0.41334 0.0
O213 O 0.23116 0.39957 0.40482 0.0
O214 O 0.19056 0.313 0.34816 0.0
O215 O 0.19409 0.41166 0.34635 0.0
C216 C 0.1503 0.51681 0.39953 0.0
O217 O 0.19986 0.50863 0.39991 0.0
O218 O 0.09903 0.4608 0.39466 0.0
C219 C 0.06476 0.28217 0.37298 0.0
Tb220 Tb 0.75042 0.13817 0.89204 0.0
C221 C 0.80013 0.10258 0.95234 0.0
Tb222 Tb 0.88791 0.17197 0.89181 0.0
O223 O 0.7129 0.03485 0.89659 0.0
O224 O 0.80102 0.09294 0.87439 0.0
O225 O 0.76358 0.12634 0.94285 0.0
C226 C 1.00714 0.19339 0.89591 0.0
O227 O 0.85004 0.1109 0.9348 0.0
C228 C 0.86821 0.271 0.89467 0.0
C229 C 0.82583 0.16937 0.82517 0.0
O230 O 0.98348 0.22094 0.91371 0.0
O231 O 0.96331 0.15195 0.87674 0.0
O232 O 0.9161 0.27186 0.8801 0.0
O233 O 0.83653 0.21762 0.90924 0.0
O234 O 0.8763 0.17286 0.84003 0.0
O235 O 0.77214 0.15707 0.84054 0.0
C236 C 0.65146 0.15822 0.89158 0.0
O237 O 0.64705 0.10219 0.89483 0.0
O238 O 0.71117 0.20264 0.88833 0.0
C239 C 0.76322 0.03602 0.88427 0.0
C240 C 0.27388 0.12136 0.10217 0.0
C241 C 0.22146 0.07264 0.11978 0.0
C242 C 0.20806 0.15505 0.14745 0.0
C243 C 0.2547 0.20352 0.12683 0.0
N244 N 0.31973 0.22662 0.07819 0.0
N245 N 0.12746 0.04242 0.15264 0.0
C246 C 0.28407 0.18509 0.10227 0.0
C247 C 0.18491 0.0892 0.14031 0.0
N248 N 0.31621 0.10816 0.08658 0.0
N249 N 0.18876 0.17106 0.17515 0.0
H250 H 0.10777 0.99353 0.14729 0.0
H251 H 0.09623 0.05312 0.16515 0.0
H252 H 0.20898 0.21813 0.18345 0.0
H253 H 0.15893 0.13683 0.19204 0.0
H254 H 0.35903 0.14406 0.07638 0.0
H255 H 0.31264 0.06292 0.08683 0.0
H256 H 0.33541 0.21194 0.05819 0.0
H257 H 0.32771 0.2732 0.07575 0.0
C258 C 0.06676 0.1619 0.62734 0.0
C259 C 0.13043 0.21371 0.62272 0.0
C260 C 0.09651 0.29013 0.64108 0.0
C261 C 0.03156 0.23892 0.64208 0.0
N262 N 0.96545 0.12652 0.65421 0.0
N263 N 0.20646 0.32867 0.62407 0.0
C264 C 1.01917 0.17461 0.63997 0.0
C265 C 0.14545 0.27833 0.62911 0.0
N266 N 0.05112 0.10048 0.61887 0.0
N267 N 0.11254 0.34817 0.65487 0.0
H268 H 0.24552 0.32289 0.61843 0.0
H269 H 0.21783 0.37679 0.62359 0.0
H270 H 0.08007 0.35497 0.66862 0.0
H271 H 0.15955 0.38629 0.6572 0.0
H272 H 1.00395 0.0619 0.61869 0.0
H273 H 0.08441 0.08921 0.60914 0.0
H274 H 0.95573 0.07901 0.6561 0.0
H275 H 0.93738 0.13734 0.66914 0.0
C276 C 0.84964 0.08679 0.15196 0.0
C277 C 0.8331 0.022 0.1444 0.0
C278 C 0.94484 0.06051 0.12733 0.0
C279 C 0.96086 0.12451 0.13415 0.0
N280 N 0.93414 0.19812 0.16021 0.0
N281 N 0.87403 0.94855 0.139 0.0
C282 C 0.91479 0.13771 0.14835 0.0
C283 C 0.88347 1.00933 0.13631 0.0
N284 N 0.80401 0.10041 0.16277 0.0
N285 N 0.98745 0.04827 0.11129 0.0
H286 H 0.83178 0.91112 0.14818 0.0
H287 H 0.91086 0.93772 0.13672 0.0
H288 H 0.03317 0.08456 0.10417 0.0
H289 H 0.97513 1.00272 0.10244 0.0
H290 H 0.8098 0.14657 0.16208 0.0
H291 H 0.76123 0.06641 0.17356 0.0
H292 H 0.905 0.20934 0.17415 0.0
H293 H 0.98137 0.23638 0.15851 0.0
C294 C 0.85485 0.87672 0.62337 0.0
C295 C 0.80449 0.82915 0.64264 0.0
C296 C 0.75744 0.89958 0.64593 0.0
C297 C 0.80455 0.94266 0.62363 0.0
N298 N 0.88998 0.96502 0.58604 0.0
N299 N 0.71969 0.80515 0.6806 0.0
C300 C 0.8501 0.92853 0.61046 0.0
C301 C 0.75847 0.84301 0.65622 0.0
N302 N 0.91093 0.87632 0.62047 0.0
N303 N 0.71075 0.91224 0.65633 0.0
H304 H 0.72578 0.76915 0.69128 0.0
H305 H 0.68653 0.81327 0.69277 0.0
H306 H 0.70801 0.95214 0.64831 0.0
H307 H 0.6721 0.88151 0.67086 0.0
H308 H 0.95186 0.91229 0.60893 0.0
H309 H 0.91866 0.84562 0.63477 0.0
H310 H 0.91923 0.95178 0.57346 0.0
H311 H 0.88965 1.00487 0.57622 0.0
C312 C 0.99781 0.8282 0.11564 0.0
C313 C 0.99778 0.78535 0.13917 0.0
C314 C 0.88123 0.7419 0.14634 0.0
C315 C 0.88257 0.78327 0.12134 0.0
N316 N 0.93784 0.84026 0.07293 0.0
N317 N 0.94229 0.71577 0.18398 0.0
C318 C 0.93936 0.81865 0.10311 0.0
C319 C 0.94 0.74567 0.15648 0.0
N320 N 0.05357 0.88182 0.10716 0.0
N321 N 0.82335 0.69545 0.15841 0.0
H322 H 0.98557 0.72353 0.19367 0.0
H323 H 0.90325 0.69041 0.19936 0.0
H324 H 0.77956 0.68652 0.14879 0.0
H325 H 0.8182 0.6603 0.17479 0.0
H326 H 0.05562 0.91724 0.09176 0.0
H327 H 0.09518 0.89498 0.11998 0.0
H328 H 0.97869 0.86298 0.05832 0.0
H329 H 0.89505 0.82589 0.06059 0.0
C330 C 0.11367 0.95308 0.65248 0.0
C331 C 0.10043 0.90251 0.63032 0.0
C332 C 0.21492 0.95683 0.61557 0.0
C333 C 0.22789 1.00547 0.63877 0.0
N334 N 0.19385 0.03825 0.68592 0.0
N335 N 0.14138 0.8482 0.59698 0.0
C336 C 0.17852 0.99987 0.65932 0.0
C337 C 0.1519 0.90196 0.61362 0.0
N338 N 0.06464 0.95872 0.66583 0.0
N339 N 0.26212 0.96393 0.59469 0.0
H340 H 0.09657 0.80618 0.59578 0.0
H341 H 0.17828 0.84281 0.58704 0.0
H342 H 0.3095 1.00194 0.59609 0.0
H343 H 0.25332 0.93453 0.57464 0.0
H344 H 0.07223 0.99875 0.67926 0.0
H345 H 1.01629 0.92711 0.66088 0.0
H346 H 0.16026 0.03291 0.70335 0.0
H347 H 0.24149 0.06965 0.69252 0.0
C348 C 0.90879 0.76089 0.3758 0.0
C349 C 0.96068 0.82468 0.3703 0.0
C350 C 0.88435 0.85471 0.34813 0.0
C351 C 0.83211 0.7934 0.35671 0.0
N352 N 0.79708 0.68069 0.36634 0.0
N353 N 0.99813 0.93342 0.35184 0.0
C354 C 0.84499 0.74395 0.36649 0.0
C355 C 0.9485 0.87191 0.35663 0.0
N356 N 0.91955 0.71772 0.39232 0.0
N357 N 0.87279 0.89372 0.32874 0.0
H358 H 0.04616 0.94667 0.35516 0.0
H359 H 0.99153 0.97213 0.34624 0.0
H360 H 0.82771 0.87744 0.31852 0.0
H361 H 0.90848 0.93731 0.31916 0.0
H362 H 0.88302 0.67306 0.40042 0.0
H363 H 0.96455 0.7288 0.40114 0.0
H364 H 0.80509 0.64229 0.37017 0.0
H365 H 0.75061 0.66516 0.35843 0.0
C366 C 0.09589 0.84284 0.85185 0.0
C367 C 0.04047 0.8249 0.87125 0.0
C368 C 0.10102 0.92342 0.9033 0.0
C369 C 0.15518 0.9435 0.88329 0.0
N370 N 0.20458 0.92599 0.83681 0.0
N371 N 0.98617 0.86773 0.9028 0.0
C372 C 0.15276 0.90412 0.85702 0.0
C373 C 0.04183 0.87054 0.89357 0.0
N374 N 0.09367 0.80273 0.82788 0.0
N375 N 0.10478 0.95578 0.93103 0.0
H376 H 0.94352 0.83714 0.8911 0.0
H377 H 0.98441 0.90241 0.91731 0.0
H378 H 0.14708 0.9957 0.93909 0.0
H379 H 0.06695 0.93865 0.94756 0.0
H380 H 0.1342 0.80776 0.81607 0.0
H381 H 0.05061 0.76465 0.81923 0.0
H382 H 0.20414 0.90402 0.81514 0.0
H383 H 0.24828 0.968 0.84136 0.0
C384 C 0.28119 0.15047 0.41031 0.0
C385 C 0.22734 0.14608 0.39397 0.0
C386 C 0.21418 0.0511 0.36416 0.0
C387 C 0.26531 0.0531 0.38227 0.0
N388 N 0.36661 0.12557 0.40819 0.0
N389 N 0.13971 0.09113 0.35659 0.0
C390 C 0.30426 0.10834 0.40153 0.0
C391 C 0.19321 0.09618 0.37106 0.0
N392 N 0.31173 0.19579 0.43377 0.0
N393 N 0.18985 1.00999 0.33854 0.0
H394 H 0.12061 0.12043 0.36258 0.0
H395 H 0.11141 0.05596 0.33995 0.0
H396 H 0.21141 0.9846 0.32979 0.0
H397 H 0.15422 1.00674 0.32322 0.0
H398 H 0.34532 0.19499 0.44929 0.0
H399 H 0.30082 0.23158 0.43949 0.0
H400 H 0.39861 0.16812 0.42001 0.0
H401 H 0.3904 0.10457 0.397 0.0
C402 C 0.18643 0.28082 0.87687 0.0
C403 C 0.20212 0.23387 0.88761 0.0
C404 C 0.09155 0.16617 0.90762 0.0
C405 C 0.07508 0.21053 0.89519 0.0
N406 N 0.10263 0.3064 0.86453 0.0
N407 N 0.16175 0.12288 0.90333 0.0
C408 C 0.12144 0.2672 0.879 0.0
C409 C 0.15252 0.17407 0.90024 0.0
N410 N 0.23316 0.33758 0.86378 0.0
N411 N 0.04914 0.11658 0.92691 0.0
H412 H 0.20309 0.12514 0.89501 0.0
H413 H 0.12538 0.07643 0.90929 0.0
H414 H 1.00347 0.10895 0.93263 0.0
H415 H 0.06165 0.08707 0.93973 0.0
H416 H 0.22745 0.37735 0.85972 0.0
H417 H 0.27854 0.34548 0.85731 0.0
H418 H 0.13192 0.34447 0.84927 0.0
H419 H 0.05585 0.29853 0.86621 0.0
C420 C 1.00776 0.16673 0.39324 0.0
C421 C 1.00949 0.21275 0.371 0.0
C422 C 0.89998 0.1299 0.35422 0.0
C423 C 0.89668 0.0903 0.38058 0.0
N424 N 0.94437 0.07816 0.42911 0.0
N425 N 0.95744 0.23381 0.32686 0.0
C426 C 0.94909 0.11162 0.40164 0.0
C427 C 0.95539 0.1932 0.35046 0.0
N428 N 0.06337 0.17141 0.40351 0.0
N429 N 0.85054 0.10647 0.33261 0.0
H430 H 1.00008 0.27445 0.31962 0.0
H431 H 0.91718 0.22689 0.31415 0.0
H432 H 0.80808 0.0625 0.33589 0.0
H433 H 0.85225 0.12898 0.31093 0.0
H434 H 0.0657 0.137 0.41795 0.0
H435 H 0.10563 0.20312 0.39201 0.0
H436 H 0.98034 0.09618 0.44658 0.0
H437 H 0.90272 0.03584 0.43583 0.0
C438 C 0.75423 0.87699 0.90698 0.0
C439 C 0.81192 0.8857 0.89283 0.0
C440 C 0.82873 0.98479 0.8664 0.0
C441 C 0.77427 0.97943 0.88277 0.0
N442 N 0.66962 0.90341 0.90473 0.0
N443 N 0.90977 0.95311 0.86328 0.0
C444 C 0.73261 0.92105 0.8995 0.0
C445 C 0.8506 0.94093 0.87361 0.0
N446 N 0.71937 0.82626 0.92735 0.0
N447 N 0.85514 0.0269 0.8413 0.0
H448 H 0.9278 0.92242 0.86803 0.0
H449 H 0.94355 0.99665 0.85277 0.0
H450 H 0.83336 0.05128 0.83167 0.0
H451 H 0.89179 0.0297 0.82672 0.0
H452 H 0.68261 0.823 0.94202 0.0
H453 H 0.72972 0.78951 0.9315 0.0
H454 H 0.63586 0.85958 0.91493 0.0
H455 H 0.64768 0.92654 0.89386 0.0
C456 C 0.19864 0.56886 0.1403 0.0
C457 C 0.15123 0.57036 0.12064 0.0
C458 C 0.11677 0.46051 0.10169 0.0
C459 C 0.16643 0.46055 0.12024 0.0
N460 N 0.26491 0.52112 0.14984 0.0
N461 N 0.07317 0.5233 0.07803 0.0
C462 C 0.21066 0.51684 0.13718 0.0
C463 C 0.11232 0.51769 0.10004 0.0
N464 N 0.22993 0.61531 0.16323 0.0
N465 N 0.07365 0.40566 0.08581 0.0
H466 H 0.06916 0.56459 0.07595 0.0
H467 H 0.04865 0.48939 0.06009 0.0
H468 H 0.07877 0.36492 0.08414 0.0
H469 H 0.03155 0.39953 0.07538 0.0
H470 H 0.25988 0.6127 0.18052 0.0
H471 H 0.22096 0.65311 0.16731 0.0
H472 H 0.30196 0.56299 0.16014 0.0
H473 H 0.27657 0.48547 0.14584 0.0
C474 C 0.68423 0.20506 0.58356 0.0
C475 C 0.69919 0.18019 0.61121 0.0
C476 C 0.59819 0.1593 0.63693 0.0
C477 C 0.58287 0.18332 0.60934 0.0
N478 N 0.61707 0.24388 0.55995 0.0
N479 N 0.68105 0.15553 0.66766 0.0
C480 C 0.62804 0.21143 0.58384 0.0
C481 C 0.65915 0.16375 0.63888 0.0
N482 N 0.72119 0.219 0.55648 0.0
N483 N 0.55434 0.1317 0.66134 0.0
H484 H 0.7271 0.16285 0.67002 0.0
H485 H 0.65744 0.14978 0.68951 0.0
H486 H 0.51099 0.13188 0.66225 0.0
H487 H 0.55931 0.10533 0.67992 0.0
H488 H 0.70857 0.23009 0.53445 0.0
H489 H 0.76297 0.21601 0.55545 0.0
H490 H 0.65101 0.27109 0.54244 0.0
H491 H 0.57577 0.24795 0.55925 0.0
C492 C 0.56454 0.63984 0.12084 0.0
C493 C 0.56226 0.68771 0.10165 0.0
C494 C 0.44605 0.61845 0.09591 0.0
C495 C 0.44946 0.56762 0.11195 0.0
N496 N 0.51691 0.52562 0.13063 0.0
N497 N 0.50412 0.71638 0.06438 0.0
C498 C 0.51004 0.57698 0.12198 0.0
C499 C 0.50401 0.67512 0.0871 0.0
N500 N 0.61822 0.65418 0.13835 0.0
N501 N 0.38809 0.61455 0.09046 0.0
H502 H 0.54635 0.75725 0.05673 0.0
H503 H 0.46358 0.70643 0.05094 0.0
H504 H 0.34431 0.57578 0.09792 0.0
H505 H 0.38407 0.6532 0.08171 0.0
H506 H 0.61912 0.62266 0.15537 0.0
H507 H 0.65981 0.69942 0.13817 0.0
H508 H 0.56155 0.5299 0.13527 0.0
H509 H 0.47981 0.47777 0.12915 0.0
C510 C 0.83248 0.51101 0.59716 0.0
C511 C 0.86652 0.55773 0.62148 0.0
C512 C 0.8936 0.48283 0.6481 0.0
C513 C 0.86069 0.43695 0.62363 0.0
N514 N 0.78432 0.39902 0.58014 0.0
N515 N 0.91122 0.57958 0.67516 0.0
C516 C 0.82487 0.44814 0.60003 0.0
C517 C 0.89138 0.5409 0.64853 0.0
N518 N 0.81155 0.5276 0.57022 0.0
N519 N 0.928 0.47143 0.67075 0.0
H520 H 0.90987 0.6222 0.67677 0.0
H521 H 0.92282 0.56634 0.69689 0.0
H522 H 0.92682 0.42739 0.67289 0.0
H523 H 0.9604 0.50676 0.6864 0.0
H524 H 0.79372 0.49799 0.55006 0.0
H525 H 0.81567 0.57261 0.56686 0.0
H526 H 0.75164 0.40202 0.56482 0.0
H527 H 0.77936 0.35316 0.58099 0.0
C528 C 0.43705 0.86886 0.08264 0.0
C529 C 0.46314 0.8615 0.11191 0.0
C530 C 0.36506 0.84014 0.14056 0.0
C531 C 0.3384 0.84705 0.11139 0.0
N532 N 0.34214 0.85299 0.0537 0.0
N533 N 0.44375 0.81977 0.16606 0.0
C534 C 0.37228 0.85633 0.08207 0.0
C535 C 0.42454 0.84075 0.14004 0.0
N536 N 0.4751 0.89105 0.05583 0.0
N537 N 0.33583 0.8371 0.16915 0.0
H538 H 0.48624 0.8179 0.16636 0.0
H539 H 0.41435 0.7978 0.18597 0.0
H540 H 0.29248 0.83651 0.17043 0.0
H541 H 0.35698 0.84038 0.19144 0.0
H542 H 0.46131 0.90415 0.03473 0.0
H543 H 0.52266 0.90101 0.05534 0.0
H544 H 0.36162 0.85357 0.03122 0.0
H545 H 0.29468 0.84343 0.05278 0.0
C546 C 0.55197 0.45177 0.64131 0.0
C547 C 0.59571 0.46734 0.61543 0.0
C548 C 0.51869 0.36665 0.58796 0.0
C549 C 0.47585 0.34939 0.61472 0.0
N550 N 0.46304 0.36733 0.67075 0.0
N551 N 0.6276 0.43361 0.5676 0.0
C552 C 0.4957 0.38978 0.64246 0.0
C553 C 0.58143 0.42257 0.58999 0.0
N554 N 0.5642 0.49593 0.66512 0.0
N555 N 0.4986 0.33269 0.55984 0.0
H556 H 0.67285 0.4753 0.5675 0.0
H557 H 0.62287 0.3992 0.55077 0.0
H558 H 0.45287 0.29299 0.5565 0.0
H559 H 0.52541 0.34745 0.53866 0.0
H560 H 0.53004 0.4904 0.68225 0.0
H561 H 0.60693 0.54016 0.66665 0.0
H562 H 0.47872 0.39169 0.69257 0.0
H563 H 0.42482 0.32061 0.67329 0.0
C564 C 0.50347 0.91998 0.4139 0.0
C565 C 0.44901 0.87395 0.39639 0.0
C566 C 0.50519 0.81552 0.38243 0.0
C567 C 0.56272 0.86621 0.39592 0.0
N568 N 0.61656 0.96416 0.42707 0.0
N569 N 0.39719 0.77927 0.36284 0.0
C570 C 0.56165 0.91759 0.41261 0.0
C571 C 0.44937 0.82166 0.38062 0.0
N572 N 0.49879 0.96489 0.43233 0.0
N573 N 0.50376 0.76096 0.37187 0.0
H574 H 0.35482 0.78128 0.36158 0.0
H575 H 0.39703 0.7447 0.34757 0.0
H576 H 0.54297 0.75455 0.3748 0.0
H577 H 0.4625 0.71962 0.36406 0.0
H578 H 0.53436 0.99649 0.44804 0.0
H579 H 0.45698 0.96798 0.43355 0.0
H580 H 0.62229 1.00732 0.43608 0.0
H581 H 0.65755 0.95998 0.42966 0.0
C582 C 0.65651 0.55506 0.87943 0.0
C583 C 0.69965 0.5546 0.90267 0.0
C584 C 0.62883 0.43808 0.91008 0.0
C585 C 0.58155 0.43975 0.88998 0.0
N586 N 0.56541 0.49236 0.84447 0.0
N587 N 0.72274 0.4985 0.94377 0.0
C588 C 0.59929 0.49633 0.87159 0.0
C589 C 0.68464 0.49691 0.919 0.0
N590 N 0.66922 0.61205 0.86545 0.0
N591 N 0.62434 0.3805 0.91799 0.0
H592 H 0.76388 0.54083 0.95103 0.0
H593 H 0.71021 0.4594 0.95902 0.0
H594 H 0.59141 0.3369 0.90741 0.0
H595 H 0.65997 0.37699 0.93054 0.0
H596 H 0.63586 0.61717 0.85169 0.0
H597 H 0.71157 0.65572 0.86935 0.0
H598 H 0.57898 0.53034 0.82837 0.0
H599 H 0.52935 0.44855 0.83529 0.0
C600 C 0.11661 0.65658 0.38844 0.0
C601 C 0.15856 0.70195 0.41157 0.0
C602 C 0.18789 0.62205 0.4299 0.0
C603 C 0.15224 0.58014 0.40408 0.0
N604 N 0.09259 0.56425 0.355 0.0
N605 N 0.23845 0.73018 0.45278 0.0
C606 C 0.11885 0.59899 0.38247 0.0
C607 C 0.19551 0.6853 0.43184 0.0
N608 N 0.07373 0.66789 0.3723 0.0
N609 N 0.21182 0.60034 0.45355 0.0
H610 H 0.24248 0.77531 0.45612 0.0
H611 H 0.27269 0.72429 0.4653 0.0
H612 H 0.205 0.55374 0.45385 0.0
H613 H 0.23285 0.62604 0.47453 0.0
H614 H 0.03703 0.63336 0.35797 0.0
H615 H 0.07124 0.70976 0.37531 0.0
H616 H 0.07428 0.57985 0.33658 0.0
H617 H 0.09511 0.52332 0.34888 0.0
C618 C 0.58825 0.20436 0.86718 0.0
C619 C 0.597 0.17 0.89257 0.0
C620 C 0.49484 0.14699 0.91692 0.0
C621 C 0.48631 0.1815 0.89156 0.0
N622 N 0.53215 0.25829 0.84832 0.0
N623 N 0.56882 0.12448 0.94594 0.0
C624 C 0.53557 0.21533 0.8686 0.0
C625 C 0.55336 0.14608 0.91883 0.0
N626 N 0.62755 0.22285 0.84073 0.0
N627 N 0.44622 0.11335 0.93851 0.0
H628 H 0.61218 0.12477 0.94852 0.0
H629 H 0.54173 0.11225 0.96703 0.0
H630 H 0.40397 0.11567 0.93892 0.0
H631 H 0.44631 0.08057 0.95496 0.0
H632 H 0.61874 0.24151 0.81998 0.0
H633 H 0.66588 0.21437 0.83813 0.0
H634 H 0.5696 0.28928 0.83316 0.0
H635 H 0.49446 0.26781 0.84937 0.0
C636 C 0.36391 0.5377 0.42279 0.0
C637 C 0.347 0.48293 0.40337 0.0
C638 C 0.45729 0.5335 0.38255 0.0
C639 C 0.47389 0.59075 0.39991 0.0
N640 N 0.43696 0.65196 0.43115 0.0
N641 N 0.3721 0.43811 0.35743 0.0
C642 C 0.42557 0.59439 0.41857 0.0
C643 C 0.39201 0.48414 0.38085 0.0
N644 N 0.32219 0.53494 0.44596 0.0
N645 N 0.50408 0.52408 0.36919 0.0
H646 H 0.32404 0.40254 0.35499 0.0
H647 H 0.40156 0.43997 0.33851 0.0
H648 H 0.55315 0.55651 0.37194 0.0
H649 H 0.4944 0.48043 0.35882 0.0
H650 H 0.33461 0.57055 0.4634 0.0
H651 H 0.27624 0.49486 0.44886 0.0
H652 H 0.4011 0.65825 0.44174 0.0
H653 H 0.48026 0.69503 0.42845 0.0
C654 C 0.84256 0.41141 0.87183 0.0
C655 C 0.87487 0.45444 0.89739 0.0
C656 C 0.88419 0.36892 0.9256 0.0
C657 C 0.86101 0.32946 0.89772 0.0
N658 N 0.82132 0.31529 0.84331 0.0
N659 N 0.92757 0.47634 0.94881 0.0
C660 C 0.84076 0.35126 0.87068 0.0
C661 C 0.89519 0.43352 0.92462 0.0
N662 N 0.81142 0.42704 0.84912 0.0
N663 N 0.89614 0.3448 0.95285 0.0
H664 H 0.93556 0.52343 0.94897 0.0
H665 H 0.94998 0.46691 0.96772 0.0
H666 H 0.88985 0.29844 0.95408 0.0
H667 H 0.9074 0.36845 0.97492 0.0
H668 H 0.78057 0.39451 0.83199 0.0
H669 H 0.81113 0.47052 0.84928 0.0
H670 H 0.81503 0.33227 0.82134 0.0
H671 H 0.81499 0.26939 0.8423 0.0
C672 C 0.24108 0.33359 0.2817 0.0
C673 C 0.21726 0.37172 0.29643 0.0
C674 C 0.19151 0.39554 0.2426 0.0
C675 C 0.21419 0.35714 0.22822 0.0
N676 N 0.28007 0.30801 0.23306 0.0
N677 N 0.20618 0.46618 0.28692 0.0
C678 C 0.24448 0.33125 0.24747 0.0
C679 C 0.20278 0.41073 0.27589 0.0
N680 N 0.26313 0.30151 0.30008 0.0
N681 N 0.16013 0.41873 0.22446 0.0
H682 H 0.22872 0.48825 0.30835 0.0
H683 H 0.1988 0.49713 0.27221 0.0
H684 H 0.15293 0.41053 0.19979 0.0
H685 H 0.13679 0.44143 0.23452 0.0
H686 H 0.26912 0.26405 0.29125 0.0
H687 H 0.27661 0.31285 0.32398 0.0
H688 H 0.30874 0.29424 0.24562 0.0
H689 H 0.28657 0.30897 0.20823 0.0
C690 C 0.88397 0.23519 0.74131 0.0
C691 C 0.83584 0.18523 0.72211 0.0
C692 C 0.7841 0.12209 0.77077 0.0
C693 C 0.82814 0.17518 0.7898 0.0
N694 N 0.91455 0.28592 0.79348 0.0
N695 N 0.7363 0.08273 0.71855 0.0
C696 C 0.87643 0.23278 0.77516 0.0
C697 C 0.78485 0.12905 0.73681 0.0
N698 N 0.93923 0.28288 0.72749 0.0
N699 N 0.74374 0.06383 0.78496 0.0
H700 H 0.7361 0.08317 0.69354 0.0
H701 H 0.69367 0.04567 0.72824 0.0
H702 H 0.74133 0.05639 0.80973 0.0
H703 H 0.7165 0.02122 0.77212 0.0
H704 H 0.97908 0.31603 0.74066 0.0
H705 H 0.94848 0.28549 0.70294 0.0
H706 H 0.94457 0.3316 0.78379 0.0
H707 H 0.91247 0.2859 0.81847 0.0
C708 C 0.72526 0.89079 0.23636 0.0
C709 C 0.68055 0.83505 0.21902 0.0
C710 C 0.61917 0.78813 0.26881 0.0
C711 C 0.66776 0.84128 0.28642 0.0
N712 N 0.74278 0.95554 0.28388 0.0
N713 N 0.58877 0.72747 0.21875 0.0
C714 C 0.71405 0.89635 0.26932 0.0
C715 C 0.6283 0.78291 0.23526 0.0
N716 N 0.77937 0.93819 0.22171 0.0
N717 N 0.56155 0.74682 0.28305 0.0
H718 H 0.5946 0.72205 0.19428 0.0
H719 H 0.55425 0.68493 0.22974 0.0
H720 H 0.54811 0.75624 0.3053 0.0
H721 H 0.52285 0.7095 0.27094 0.0
H722 H 0.81661 0.97638 0.2342 0.0
H723 H 0.79061 0.93591 0.19783 0.0
H724 H 0.77294 0.99862 0.27188 0.0
H725 H 0.72854 0.96245 0.30656 0.0
C726 C 0.90673 0.72348 0.73968 0.0
C727 C 0.85155 0.67582 0.72302 0.0
C728 C 0.79795 0.63237 0.77505 0.0
C729 C 0.84997 0.68469 0.79121 0.0
N730 N 0.95139 0.78515 0.78836 0.0
N731 N 0.76336 0.56567 0.72748 0.0
C732 C 0.9034 0.73196 0.77335 0.0
C733 C 0.80177 0.62467 0.74128 0.0
N734 N 0.96485 0.75456 0.72424 0.0
N735 N 0.74388 0.59074 0.79192 0.0
H736 H 0.77351 0.55309 0.70516 0.0
H737 H 0.72907 0.52552 0.74017 0.0
H738 H 0.73936 0.59499 0.81662 0.0
H739 H 0.70138 0.55622 0.781 0.0
H740 H 1.00802 0.78612 0.73562 0.0
H741 H 0.97175 0.74037 0.70156 0.0
H742 H 0.98729 0.82463 0.77589 0.0
H743 H 0.95261 0.79276 0.81303 0.0
C744 C 0.1492 0.78065 0.24328 0.0
C745 C 0.19063 0.83139 0.22206 0.0
C746 C 0.24867 0.89917 0.26846 0.0
C747 C 0.20972 0.84689 0.2892 0.0
N748 N 0.13374 0.73383 0.29647 0.0
N749 N 0.28892 0.93371 0.21444 0.0
C750 C 0.1633 0.78636 0.27661 0.0
C751 C 0.24297 0.88932 0.23462 0.0
N752 N 0.09443 0.72834 0.23202 0.0
N753 N 0.2898 0.95876 0.28103 0.0
H754 H 0.28775 0.92831 0.18955 0.0
H755 H 0.33163 0.9731 0.22253 0.0
H756 H 0.29706 0.96738 0.30567 0.0
H757 H 0.31332 1.00055 0.26713 0.0
H758 H 0.0589 0.69391 0.24695 0.0
H759 H 0.08113 0.72226 0.20797 0.0
H760 H 0.10435 0.68682 0.2882 0.0
H761 H 0.14397 0.73642 0.32096 0.0
C762 C 0.32614 0.23545 0.76668 0.0
C763 C 0.35568 0.2081 0.7854 0.0
C764 C 0.38127 0.16818 0.73641 0.0
C765 C 0.35665 0.20025 0.71711 0.0
N766 N 0.31666 0.2754 0.71478 0.0
N767 N 0.42201 0.15915 0.78827 0.0
C768 C 0.33201 0.23688 0.73251 0.0
C769 C 0.3867 0.17802 0.77028 0.0
N770 N 0.291 0.25873 0.78153 0.0
N771 N 0.39544 0.12461 0.72298 0.0
H772 H 0.42542 0.16365 0.81322 0.0
H773 H 0.45234 0.14434 0.77825 0.0
H774 H 0.39012 0.11317 0.69872 0.0
H775 H 0.40611 0.09448 0.73645 0.0
H776 H 0.26157 0.27184 0.76918 0.0
H777 H 0.28718 0.26024 0.80648 0.0
H778 H 0.3058 0.30858 0.72501 0.0
H779 H 0.32063 0.27937 0.68988 0.0
C780 C 0.23283 0.18941 0.99754 0.0
C781 C 0.29527 0.2314 0.98444 0.0
C782 C 0.30117 0.3203 0.01634 0.0
C783 C 0.24121 0.27893 0.0314 0.0
N784 N 0.13963 0.17978 0.02594 0.0
N785 N 0.39776 0.3258 0.99668 0.0
C786 C 0.20396 0.21463 0.01928 0.0
C787 C 0.33214 0.29356 0.99839 0.0
N788 N 0.20359 0.12458 0.99175 0.0
N789 N 0.32722 0.38576 0.01723 0.0
H790 H 0.42305 0.30387 0.98807 0.0
H791 H 0.42631 0.3698 0.00833 0.0
H792 H 0.30154 0.40727 0.02584 0.0
H793 H 0.36943 0.41723 1.0049 0.0
H794 H 0.16053 0.09067 1.00249 0.0
H795 H 0.22716 0.10352 0.9803 0.0
H796 H 0.10864 0.13487 0.01583 0.0
H797 H 0.11524 0.19996 0.03741 0.0
C798 C 0.99832 0.25237 0.47964 0.0
C799 C 0.06575 0.29287 0.48467 0.0
C800 C 0.04515 0.29663 0.54204 0.0
C801 C 0.97866 0.25018 0.53758 0.0
N802 N 0.89432 0.17578 0.50239 0.0
N803 N 0.1544 0.34412 0.52154 0.0
C804 C 0.95617 0.225 0.50648 0.0
C805 C 0.08949 0.31169 0.5162 0.0
N806 N 0.97378 0.24327 0.44931 0.0
N807 N 0.06578 0.32899 0.57044 0.0
H808 H 0.18807 0.35725 0.50299 0.0
H809 H 0.17447 0.35289 0.54447 0.0
H810 H 0.03456 0.32194 0.58923 0.0
H811 H 0.11222 0.36752 0.57408 0.0
H812 H 0.92466 0.21906 0.44431 0.0
H813 H 1.00242 0.26634 0.42944 0.0
H814 H 0.87752 0.15081 0.48078 0.0
H815 H 0.86128 0.15646 0.52126 0.0
C816 C 0.81233 0.0231 0.03006 0.0
C817 C 0.75288 0.96342 0.02933 0.0
C818 C 0.71916 1.00188 0.98276 0.0
C819 C 0.78126 0.0588 0.98108 0.0
N820 N 0.88894 0.12119 1.00234 0.0
N821 N 0.65773 0.89019 1.00004 0.0
C822 C 0.82858 0.06822 1.00433 0.0
C823 C 0.70905 0.95113 1.00404 0.0
N824 N 0.85173 0.03889 0.05619 0.0
N825 N 0.66846 0.99632 0.96531 0.0
H826 H 0.64959 0.8517 0.01496 0.0
H827 H 0.62776 0.87635 0.97999 0.0
H828 H 0.67017 0.03278 0.95118 0.0
H829 H 0.62152 0.95813 0.9682 0.0
H830 H 0.89092 0.08486 0.06019 0.0
H831 H 0.84299 1.0074 0.07515 0.0
H832 H 0.928 0.12595 0.01547 0.0
H833 H 0.9007 0.15956 0.98666 0.0
C834 C 0.82857 0.75028 0.50106 0.0
C835 C 0.80813 0.75918 0.53157 0.0
C836 C 0.75823 0.81654 0.50596 0.0
C837 C 0.77111 0.7999 0.47527 0.0
N838 N 0.81317 0.74496 0.44351 0.0
N839 N 0.74542 0.79301 0.56299 0.0
C840 C 0.80513 0.7654 0.47284 0.0
C841 C 0.77109 0.79061 0.53404 0.0
N842 N 0.87047 0.7274 0.49899 0.0
N843 N 0.73313 0.85657 0.50829 0.0
H844 H 0.75206 0.7731 0.5838 0.0
H845 H 0.71291 0.80942 0.56591 0.0
H846 H 0.72135 0.87462 0.4882 0.0
H847 H 0.72917 0.87628 0.52993 0.0
H848 H 0.89278 0.72642 0.47765 0.0
H849 H 0.88697 0.71408 0.51914 0.0
H850 H 0.82913 0.71207 0.44043 0.0
H851 H 0.79933 0.75748 0.42234 0.0
C852 C 0.95458 0.72315 0.01201 0.0
C853 C 0.97887 0.73609 0.98028 0.0
C854 C 0.08965 0.78943 1.00129 0.0
C855 C 0.06513 0.76892 0.03264 0.0
N856 N 0.97306 0.70521 0.0671 0.0
N857 N 0.06984 0.76993 0.94445 0.0
C858 C 0.99721 0.73271 0.03785 0.0
C859 C 0.04656 0.76629 0.97479 0.0
N860 N 0.89084 0.70171 0.01752 0.0
N861 N 0.15409 0.83046 0.99672 0.0
H862 H 0.04 0.75018 0.9247 0.0
H863 H 0.11806 0.78604 0.93935 0.0
H864 H 0.1874 0.84607 0.01545 0.0
H865 H 0.17365 0.85291 0.97479 0.0
H866 H 0.87171 0.69833 0.04043 0.0
H867 H 0.85813 0.69278 0.99901 0.0
H868 H 0.92432 0.67357 0.07139 0.0
H869 H 1.00205 0.70862 0.08634 0.0
C870 C 0.319 0.03122 0.48066 0.0
C871 C 0.25463 0.97814 0.47788 0.0
C872 C 0.22455 0.01998 0.52533 0.0
C873 C 0.2872 0.07629 0.52561 0.0
N874 N 0.38717 0.14216 0.49783 0.0
N875 N 0.14486 0.92432 0.49705 0.0
C876 C 0.33207 0.08375 0.50145 0.0
C877 C 0.20699 0.97388 0.49984 0.0
N878 N 0.36885 0.03163 0.46451 0.0
N879 N 0.18289 1.00756 0.55039 0.0
H880 H 0.13157 0.88426 0.48234 0.0
H881 H 0.10604 0.92395 0.50852 0.0
H882 H 0.19267 0.03772 0.5701 0.0
H883 H 0.14007 0.96398 0.55333 0.0
H884 H 0.41689 0.06617 0.46853 0.0
H885 H 0.36452 0.99427 0.45014 0.0
H886 H 0.41906 0.15284 0.4787 0.0
H887 H 0.39706 0.18241 0.51178 0.0
loop_
_geom_bond_atom_site_label_1
_geom_bond_atom_site_label_2
_geom_bond_distance
_geom_bond_site_symmetry_2
_ccdc_geom_bond_type
Tb0 O3 2.453 . S
Tb0 O4 2.596 . S
Tb0 O5 2.374 . S
Tb0 O13 2.343 . S
Tb0 O15 2.353 . S
Tb0 O17 2.427 . S
Tb0 O18 2.513 . S
C1 O5 1.251 . S
C1 O7 1.263 . S
Tb2 O4 2.343 . S
Tb2 O7 2.353 . S
Tb2 O10 2.427 . S
Tb2 O11 2.513 . S
Tb2 O12 2.453 . S
Tb2 O13 2.596 . S
Tb2 O14 2.374 . S
O3 Tb0 2.453 . S
O3 C19 1.245 . S
O4 Tb0 2.596 . S
O4 Tb2 2.343 . S
O4 C19 1.259 . S
O5 Tb0 2.374 . S
O5 C1 1.251 . S
C6 O10 1.275 . S
C6 O11 1.246 . S
O7 C1 1.263 . S
O7 Tb2 2.353 . S
C8 O12 1.245 . S
C8 O13 1.259 . S
C9 O14 1.250 . S
C9 O15 1.263 . S
O10 Tb2 2.427 . S
O10 C6 1.275 . S
O11 Tb2 2.513 . S
O11 C6 1.246 . S
O12 Tb2 2.453 . S
O12 C8 1.245 . S
O13 Tb0 2.343 . S
O13 Tb2 2.596 . S
O13 C8 1.259 . S
O14 Tb2 2.374 . S
O14 C9 1.250 . S
O15 Tb0 2.353 . S
O15 C9 1.263 . S
C16 O17 1.275 . S
C16 O18 1.246 . S
O17 Tb0 2.427 . S
O17 C16 1.275 . S
O18 Tb0 2.513 . S
O18 C16 1.246 . S
C19 O3 1.245 . S
C19 O4 1.259 . S
Tb20 O23 2.453 . S
Tb20 O24 2.596 . S
Tb20 O25 2.374 . S
Tb20 O33 2.343 . S
Tb20 O35 2.353 . S
Tb20 O37 2.427 . S
Tb20 O38 2.513 . S
C21 O25 1.251 . S
C21 O27 1.263 . S
Tb22 O24 2.343 . S
Tb22 O27 2.353 . S
Tb22 O30 2.427 . S
Tb22 O31 2.513 . S
Tb22 O32 2.453 . S
Tb22 O33 2.596 . S
Tb22 O34 2.374 . S
O23 Tb20 2.453 . S
O23 C39 1.245 . S
O24 Tb20 2.596 . S
O24 Tb22 2.343 . S
O24 C39 1.259 . S
O25 Tb20 2.374 . S
O25 C21 1.251 . S
C26 O30 1.275 . S
C26 O31 1.246 . S
O27 C21 1.263 . S
O27 Tb22 2.353 . S
C28 O32 1.245 . S
C28 O33 1.259 . S
C29 O34 1.250 . S
C29 O35 1.263 . S
O30 Tb22 2.427 . S
O30 C26 1.275 . S
O31 Tb22 2.513 . S
O31 C26 1.246 . S
O32 Tb22 2.453 . S
O32 C28 1.245 . S
O33 Tb20 2.343 . S
O33 Tb22 2.596 . S
O33 C28 1.259 . S
O34 Tb22 2.374 . S
O34 C29 1.250 . S
O35 Tb20 2.353 . S
O35 C29 1.263 . S
C36 O37 1.275 . S
C36 O38 1.246 . S
O37 Tb20 2.427 . S
O37 C36 1.275 . S
O38 Tb20 2.513 . S
O38 C36 1.246 . S
C39 O23 1.245 . S
C39 O24 1.259 . S
Tb40 O43 2.453 . S
Tb40 O44 2.596 . S
Tb40 O45 2.374 . S
Tb40 O53 2.343 . S
Tb40 O55 2.353 . S
Tb40 O57 2.427 . S
Tb40 O58 2.513 . S
C41 O45 1.251 . S
C41 O47 1.263 . S
Tb42 O44 2.343 . S
Tb42 O47 2.353 . S
Tb42 O50 2.427 . S
Tb42 O51 2.513 . S
Tb42 O52 2.453 . S
Tb42 O53 2.596 . S
Tb42 O54 2.374 . S
O43 Tb40 2.453 . S
O43 C59 1.245 . S
O44 Tb40 2.596 . S
O44 Tb42 2.343 . S
O44 C59 1.259 . S
O45 Tb40 2.374 . S
O45 C41 1.251 . S
C46 O50 1.275 . S
C46 O51 1.246 . S
O47 C41 1.263 . S
O47 Tb42 2.353 . S
C48 O52 1.245 . S
C48 O53 1.259 . S
C49 O54 1.250 . S
C49 O55 1.263 . S
O50 Tb42 2.427 . S
O50 C46 1.275 . S
O51 Tb42 2.513 . S
O51 C46 1.246 . S
O52 Tb42 2.453 . S
O52 C48 1.245 . S
O53 Tb40 2.343 . S
O53 Tb42 2.596 . S
O53 C48 1.259 . S
O54 Tb42 2.374 . S
O54 C49 1.250 . S
O55 Tb40 2.353 . S
O55 C49 1.263 . S
C56 O57 1.275 . S
C56 O58 1.246 . S
O57 Tb40 2.427 . S
O57 C56 1.275 . S
O58 Tb40 2.513 . S
O58 C56 1.246 . S
C59 O43 1.245 . S
C59 O44 1.259 . S
Tb60 O63 2.453 . S
Tb60 O64 2.596 . S
Tb60 O65 2.374 . S
Tb60 O73 2.343 . S
Tb60 O75 2.353 . S
Tb60 O77 2.427 . S
Tb60 O78 2.513 . S
C61 O65 1.251 . S
C61 O67 1.263 . S
Tb62 O64 2.343 . S
Tb62 O67 2.353 . S
Tb62 O70 2.427 . S
Tb62 O71 2.513 . S
Tb62 O72 2.453 . S
Tb62 O73 2.596 . S
Tb62 O74 2.374 . S
O63 Tb60 2.453 . S
O63 C79 1.245 . S
O64 Tb60 2.596 . S
O64 Tb62 2.343 . S
O64 C79 1.259 . S
O65 Tb60 2.374 . S
O65 C61 1.251 . S
C66 O70 1.275 . S
C66 O71 1.246 . S
O67 C61 1.263 . S
O67 Tb62 2.353 . S
C68 O72 1.245 . S
C68 O73 1.259 . S
C69 O74 1.250 . S
C69 O75 1.263 . S
O70 Tb62 2.427 . S
O70 C66 1.275 . S
O71 Tb62 2.513 . S
O71 C66 1.246 . S
O72 Tb62 2.453 . S
O72 C68 1.245 . S
O73 Tb60 2.343 . S
O73 Tb62 2.596 . S
O73 C68 1.259 . S
O74 Tb62 2.374 . S
O74 C69 1.250 . S
O75 Tb60 2.353 . S
O75 C69 1.263 . S
C76 O77 1.275 . S
C76 O78 1.246 . S
O77 Tb60 2.427 . S
O77 C76 1.275 . S
O78 Tb60 2.513 . S
O78 C76 1.246 . S
C79 O63 1.245 . S
C79 O64 1.259 . S
Tb80 O83 2.453 . S
Tb80 O84 2.596 . S
Tb80 O85 2.374 . S
Tb80 O93 2.343 . S
Tb80 O95 2.353 . S
Tb80 O97 2.427 . S
Tb80 O98 2.513 . S
C81 O85 1.251 . S
C81 O87 1.263 . S
Tb82 O84 2.343 . S
Tb82 O87 2.353 . S
Tb82 O90 2.427 . S
Tb82 O91 2.513 . S
Tb82 O92 2.453 . S
Tb82 O93 2.596 . S
Tb82 O94 2.374 . S
O83 Tb80 2.453 . S
O83 C99 1.245 . S
O84 Tb80 2.596 . S
O84 Tb82 2.343 . S
O84 C99 1.259 . S
O85 Tb80 2.374 . S
O85 C81 1.251 . S
C86 O90 1.275 . S
C86 O91 1.246 . S
O87 C81 1.263 . S
O87 Tb82 2.353 . S
C88 O92 1.245 . S
C88 O93 1.259 . S
C89 O94 1.250 . S
C89 O95 1.263 . S
O90 Tb82 2.427 . S
O90 C86 1.275 . S
O91 Tb82 2.513 . S
O91 C86 1.246 . S
O92 Tb82 2.453 . S
O92 C88 1.245 . S
O93 Tb80 2.343 . S
O93 Tb82 2.596 . S
O93 C88 1.259 . S
O94 Tb82 2.374 . S
O94 C89 1.250 . S
O95 Tb80 2.353 . S
O95 C89 1.263 . S
C96 O97 1.275 . S
C96 O98 1.246 . S
O97 Tb80 2.427 . S
O97 C96 1.275 . S
O98 Tb80 2.513 . S
O98 C96 1.246 . S
C99 O83 1.245 . S
C99 O84 1.259 . S
Tb100 O103 2.453 . S
Tb100 O104 2.596 . S
Tb100 O105 2.374 . S
Tb100 O113 2.343 . S
Tb100 O115 2.353 . S
Tb100 O117 2.427 . S
Tb100 O118 2.513 . S
C101 O105 1.251 . S
C101 O107 1.263 . S
Tb102 O104 2.343 . S
Tb102 O107 2.353 . S
Tb102 O110 2.427 . S
Tb102 O111 2.513 . S
Tb102 O112 2.453 . S
Tb102 O113 2.596 . S
Tb102 O114 2.374 . S
O103 Tb100 2.453 . S
O103 C119 1.245 . S
O104 Tb100 2.596 . S
O104 Tb102 2.343 . S
O104 C119 1.259 . S
O105 Tb100 2.374 . S
O105 C101 1.251 . S
C106 O110 1.275 . S
C106 O111 1.246 . S
O107 C101 1.263 . S
O107 Tb102 2.353 . S
C108 O112 1.245 . S
C108 O113 1.259 . S
C109 O114 1.250 . S
C109 O115 1.263 . S
O110 Tb102 2.427 . S
O110 C106 1.275 . S
O111 Tb102 2.513 . S
O111 C106 1.246 . S
O112 Tb102 2.453 . S
O112 C108 1.245 . S
O113 Tb100 2.343 . S
O113 Tb102 2.596 . S
O113 C108 1.259 . S
O114 Tb102 2.374 . S
O114 C109 1.250 . S
O115 Tb100 2.353 . S
O115 C109 1.263 . S
C116 O117 1.275 . S
C116 O118 1.246 . S
O117 Tb100 2.427 . S
O117 C116 1.275 . S
O118 Tb100 2.513 . S
O118 C116 1.246 . S
C119 O103 1.245 . S
C119 O104 1.259 . S
Tb120 O123 2.453 . S
Tb120 O124 2.596 . S
Tb120 O125 2.374 . S
Tb120 O133 2.343 . S
Tb120 O135 2.353 . S
Tb120 O137 2.427 . S
Tb120 O138 2.513 . S
C121 O125 1.251 . S
C121 O127 1.263 . S
Tb122 O124 2.343 . S
Tb122 O127 2.353 . S
Tb122 O130 2.427 . S
Tb122 O131 2.513 . S
Tb122 O132 2.453 . S
Tb122 O133 2.596 . S
Tb122 O134 2.374 . S
O123 Tb120 2.453 . S
O123 C139 1.245 . S
O124 Tb120 2.596 . S
O124 Tb122 2.343 . S
O124 C139 1.259 . S
O125 Tb120 2.374 . S
O125 C121 1.251 . S
C126 O130 1.275 . S
C126 O131 1.246 . S
O127 C121 1.263 . S
O127 Tb122 2.353 . S
C128 O132 1.245 . S
C128 O133 1.259 . S
C129 O134 1.250 . S
C129 O135 1.263 . S
O130 Tb122 2.427 . S
O130 C126 1.275 . S
O131 Tb122 2.513 . S
O131 C126 1.246 . S
O132 Tb122 2.453 . S
O132 C128 1.245 . S
O133 Tb120 2.343 . S
O133 Tb122 2.596 . S
O133 C128 1.259 . S
O134 Tb122 2.374 . S
O134 C129 1.250 . S
O135 Tb120 2.353 . S
O135 C129 1.263 . S
C136 O137 1.275 . S
C136 O138 1.246 . S
O137 Tb120 2.427 . S
O137 C136 1.275 . S
O138 Tb120 2.513 . S
O138 C136 1.246 . S
C139 O123 1.245 . S
C139 O124 1.259 . S
Tb140 O143 2.453 . S
Tb140 O144 2.596 . S
Tb140 O145 2.374 . S
Tb140 O153 2.343 . S
Tb140 O155 2.353 . S
Tb140 O157 2.427 . S
Tb140 O158 2.513 . S
C141 O145 1.251 . S
C141 O147 1.263 . S
Tb142 O144 2.343 . S
Tb142 O147 2.353 . S
Tb142 O150 2.427 . S
Tb142 O151 2.513 . S
Tb142 O152 2.453 . S
Tb142 O153 2.596 . S
Tb142 O154 2.374 . S
O143 Tb140 2.453 . S
O143 C159 1.245 . S
O144 Tb140 2.596 . S
O144 Tb142 2.343 . S
O144 C159 1.259 . S
O145 Tb140 2.374 . S
O145 C141 1.251 . S
C146 O150 1.275 . S
C146 O151 1.246 . S
O147 C141 1.263 . S
O147 Tb142 2.353 . S
C148 O152 1.245 . S
C148 O153 1.259 . S
C149 O154 1.250 . S
C149 O155 1.263 . S
O150 Tb142 2.427 . S
O150 C146 1.275 . S
O151 Tb142 2.513 . S
O151 C146 1.246 . S
O152 Tb142 2.453 . S
O152 C148 1.245 . S
O153 Tb140 2.343 . S
O153 Tb142 2.596 . S
O153 C148 1.259 . S
O154 Tb142 2.374 . S
O154 C149 1.250 . S
O155 Tb140 2.353 . S
O155 C149 1.263 . S
C156 O157 1.275 . S
C156 O158 1.246 . S
O157 Tb140 2.427 . S
O157 C156 1.275 . S
O158 Tb140 2.513 . S
O158 C156 1.246 . S
C159 O143 1.245 . S
C159 O144 1.259 . S
Tb160 O163 2.453 . S
Tb160 O164 2.596 . S
Tb160 O165 2.374 . S
Tb160 O173 2.343 . S
Tb160 O175 2.353 . S
Tb160 O177 2.427 . S
Tb160 O178 2.513 . S
C161 O165 1.251 . S
C161 O167 1.263 . S
Tb162 O164 2.343 . S
Tb162 O167 2.353 . S
Tb162 O170 2.427 . S
Tb162 O171 2.513 . S
Tb162 O172 2.453 . S
Tb162 O173 2.596 . S
Tb162 O174 2.374 . S
O163 Tb160 2.453 . S
O163 C179 1.245 . S
O164 Tb160 2.596 . S
O164 Tb162 2.343 . S
O164 C179 1.259 . S
O165 Tb160 2.374 . S
O165 C161 1.251 . S
C166 O170 1.275 . S
C166 O171 1.246 . S
O167 C161 1.263 . S
O167 Tb162 2.353 . S
C168 O172 1.245 . S
C168 O173 1.259 . S
C169 O174 1.250 . S
C169 O175 1.263 . S
O170 Tb162 2.427 . S
O170 C166 1.275 . S
O171 Tb162 2.513 . S
O171 C166 1.246 . S
O172 Tb162 2.453 . S
O172 C168 1.245 . S
O173 Tb160 2.343 . S
O173 Tb162 2.596 . S
O173 C168 1.259 . S
O174 Tb162 2.374 . S
O174 C169 1.250 . S
O175 Tb160 2.353 . S
O175 C169 1.263 . S
C176 O177 1.275 . S
C176 O178 1.246 . S
O177 Tb160 2.427 . S
O177 C176 1.275 . S
O178 Tb160 2.513 . S
O178 C176 1.246 . S
C179 O163 1.245 . S
C179 O164 1.259 . S
Tb180 O183 2.453 . S
Tb180 O184 2.596 . S
Tb180 O185 2.374 . S
Tb180 O193 2.343 . S
Tb180 O195 2.353 . S
Tb180 O197 2.427 . S
Tb180 O198 2.513 . S
C181 O185 1.251 . S
C181 O187 1.263 . S
Tb182 O184 2.343 . S
Tb182 O187 2.353 . S
Tb182 O190 2.427 . S
Tb182 O191 2.513 . S
Tb182 O192 2.453 . S
Tb182 O193 2.596 . S
Tb182 O194 2.374 . S
O183 Tb180 2.453 . S
O183 C199 1.245 . S
O184 Tb180 2.596 . S
O184 Tb182 2.343 . S
O184 C199 1.259 . S
O185 Tb180 2.374 . S
O185 C181 1.251 . S
C186 O190 1.275 . S
C186 O191 1.246 . S
O187 C181 1.263 . S
O187 Tb182 2.353 . S
C188 O192 1.245 . S
C188 O193 1.259 . S
C189 O194 1.250 . S
C189 O195 1.263 . S
O190 Tb182 2.427 . S
O190 C186 1.275 . S
O191 Tb182 2.513 . S
O191 C186 1.246 . S
O192 Tb182 2.453 . S
O192 C188 1.245 . S
O193 Tb180 2.343 . S
O193 Tb182 2.596 . S
O193 C188 1.259 . S
O194 Tb182 2.374 . S
O194 C189 1.250 . S
O195 Tb180 2.353 . S
O195 C189 1.263 . S
C196 O197 1.275 . S
C196 O198 1.246 . S
O197 Tb180 2.427 . S
O197 C196 1.275 . S
O198 Tb180 2.513 . S
O198 C196 1.246 . S
C199 O183 1.245 . S
C199 O184 1.259 . S
Tb200 O203 2.453 . S
Tb200 O204 2.596 . S
Tb200 O205 2.374 . S
Tb200 O213 2.343 . S
Tb200 O215 2.353 . S
Tb200 O217 2.427 . S
Tb200 O218 2.513 . S
C201 O205 1.251 . S
C201 O207 1.263 . S
Tb202 O204 2.343 . S
Tb202 O207 2.353 . S
Tb202 O210 2.427 . S
Tb202 O211 2.513 . S
Tb202 O212 2.453 . S
Tb202 O213 2.596 . S
Tb202 O214 2.374 . S
O203 Tb200 2.453 . S
O203 C219 1.245 . S
O204 Tb200 2.596 . S
O204 Tb202 2.343 . S
O204 C219 1.259 . S
O205 Tb200 2.374 . S
O205 C201 1.251 . S
C206 O210 1.275 . S
C206 O211 1.246 . S
O207 C201 1.263 . S
O207 Tb202 2.353 . S
C208 O212 1.245 . S
C208 O213 1.259 . S
C209 O214 1.250 . S
C209 O215 1.263 . S
O210 Tb202 2.427 . S
O210 C206 1.275 . S
O211 Tb202 2.513 . S
O211 C206 1.246 . S
O212 Tb202 2.453 . S
O212 C208 1.245 . S
O213 Tb200 2.343 . S
O213 Tb202 2.596 . S
O213 C208 1.259 . S
O214 Tb202 2.374 . S
O214 C209 1.250 . S
O215 Tb200 2.353 . S
O215 C209 1.263 . S
C216 O217 1.275 . S
C216 O218 1.246 . S
O217 Tb200 2.427 . S
O217 C216 1.275 . S
O218 Tb200 2.513 . S
O218 C216 1.246 . S
C219 O203 1.245 . S
C219 O204 1.259 . S
Tb220 O223 2.453 . S
Tb220 O224 2.596 . S
Tb220 O225 2.374 . S
Tb220 O233 2.343 . S
Tb220 O235 2.353 . S
Tb220 O237 2.427 . S
Tb220 O238 2.513 . S
C221 O225 1.251 . S
C221 O227 1.263 . S
Tb222 O224 2.343 . S
Tb222 O227 2.353 . S
Tb222 O230 2.427 . S
Tb222 O231 2.513 . S
Tb222 O232 2.453 . S
Tb222 O233 2.596 . S
Tb222 O234 2.374 . S
O223 Tb220 2.453 . S
O223 C239 1.245 . S
O224 Tb220 2.596 . S
O224 Tb222 2.343 . S
O224 C239 1.259 . S
O225 Tb220 2.374 . S
O225 C221 1.251 . S
C226 O230 1.275 . S
C226 O231 1.246 . S
O227 C221 1.263 . S
O227 Tb222 2.353 . S
C228 O232 1.245 . S
C228 O233 1.259 . S
C229 O234 1.250 . S
C229 O235 1.263 . S
O230 Tb222 2.427 . S
O230 C226 1.275 . S
O231 Tb222 2.513 . S
O231 C226 1.246 . S
O232 Tb222 2.453 . S
O232 C228 1.245 . S
O233 Tb220 2.343 . S
O233 Tb222 2.596 . S
O233 C228 1.259 . S
O234 Tb222 2.374 . S
O234 C229 1.250 . S
O235 Tb220 2.353 . S
O235 C229 1.263 . S
C236 O237 1.275 . S
C236 O238 1.246 . S
O237 Tb220 2.427 . S
O237 C236 1.275 . S
O238 Tb220 2.513 . S
O238 C236 1.246 . S
C239 O223 1.245 . S
C239 O224 1.259 . S
C240 C241 1.363 . S
C240 C246 1.379 . S
C240 N248 1.356 . S
C241 C240 1.363 . S
C241 C247 1.363 . S
C242 C243 1.363 . S
C242 C247 1.379 . S
C242 N249 1.356 . S
C243 C242 1.363 . S
C243 C246 1.363 . S
N244 C246 1.356 . S
N244 H256 0.984 . S
N244 H257 0.985 . S
N245 C247 1.356 . S
N245 H250 0.984 1_545 S
N245 H251 0.985 . S
C246 C240 1.379 . S
C246 C243 1.363 . S
C246 N244 1.356 . S
C247 C241 1.363 . S
C247 C242 1.379 . S
C247 N245 1.356 . S
N248 C240 1.356 . S
N248 H254 0.984 . S
N248 H255 0.984 . S
N249 C242 1.356 . S
N249 H252 0.984 . S
N249 H253 0.985 . S
H250 N245 0.984 1_565 S
H251 N245 0.985 . S
H252 N249 0.984 . S
H253 N249 0.985 . S
H254 N248 0.984 . S
H255 N248 0.984 . S
H256 N244 0.984 . S
H257 N244 0.985 . S
C258 C259 1.363 . S
C258 C264 1.379 1_455 S
C258 N266 1.356 . S
C259 C258 1.363 . S
C259 C265 1.363 . S
C260 C261 1.363 . S
C260 C265 1.379 . S
C260 N267 1.356 . S
C261 C260 1.363 . S
C261 C264 1.363 1_455 S
N262 C264 1.356 . S
N262 H274 0.984 . S
N262 H275 0.985 . S
N263 C265 1.356 . S
N263 H268 0.984 . S
N263 H269 0.985 . S
C264 C258 1.379 1_655 S
C264 C261 1.363 1_655 S
C264 N262 1.356 . S
C265 C259 1.363 . S
C265 C260 1.379 . S
C265 N263 1.356 . S
N266 C258 1.356 . S
N266 H272 0.984 . S
N266 H273 0.984 . S
N267 C260 1.356 . S
N267 H270 0.984 . S
N267 H271 0.985 . S
H268 N263 0.984 . S
H269 N263 0.985 . S
H270 N267 0.984 . S
H271 N267 0.985 . S
H272 N266 0.984 . S
H273 N266 0.984 . S
H274 N262 0.984 . S
H275 N262 0.985 . S
C276 C277 1.363 . S
C276 C282 1.379 . S
C276 N284 1.356 . S
C277 C276 1.363 . S
C277 C283 1.363 . S
C278 C279 1.363 . S
C278 C283 1.379 . S
C278 N285 1.356 . S
C279 C278 1.363 . S
C279 C282 1.363 . S
N280 C282 1.356 . S
N280 H292 0.984 . S
N280 H293 0.985 1_655 S
N281 C283 1.356 1_565 S
N281 H286 0.984 . S
N281 H287 0.985 . S
C282 C276 1.379 . S
C282 C279 1.363 . S
C282 N280 1.356 . S
C283 C277 1.363 . S
C283 C278 1.379 . S
C283 N281 1.356 1_545 S
N284 C276 1.356 . S
N284 H290 0.984 . S
N284 H291 0.993 . S
N285 C278 1.356 . S
N285 H288 0.984 1_655 S
N285 H289 0.985 . S
H286 N281 0.984 . S
H287 N281 0.985 . S
H288 N285 0.984 1_455 S
H289 N285 0.985 . S
H290 N284 0.984 . S
H291 N284 0.993 . S
H292 N280 0.984 . S
H293 N280 0.985 1_455 S
C294 C295 1.363 . S
C294 C300 1.379 . S
C294 N302 1.356 . S
C295 C294 1.363 . S
C295 C301 1.363 . S
C296 C297 1.363 . S
C296 C301 1.379 . S
C296 N303 1.356 . S
C297 C296 1.363 . S
C297 C300 1.363 . S
N298 C300 1.356 . S
N298 H310 0.984 . S
N298 H311 0.985 1_565 S
N299 C301 1.356 . S
N299 H304 0.984 . S
N299 H305 0.985 . S
C300 C294 1.379 . S
C300 C297 1.363 . S
C300 N298 1.356 . S
C301 C295 1.363 . S
C301 C296 1.379 . S
C301 N299 1.356 . S
N302 C294 1.356 . S
N302 H308 0.984 . S
N302 H309 0.984 . S
N303 C296 1.356 . S
N303 H306 0.984 1_565 S
N303 H307 0.985 . S
H304 N299 0.984 . S
H305 N299 0.985 . S
H306 N303 0.984 1_545 S
H307 N303 0.985 . S
H308 N302 0.984 . S
H309 N302 0.984 . S
H310 N298 0.984 . S
H311 N298 0.985 1_545 S
C312 C313 1.363 . S
C312 C318 1.379 . S
C312 N320 1.356 1_655 S
C313 C312 1.363 . S
C313 C319 1.363 . S
C314 C315 1.363 . S
C314 C319 1.379 . S
C314 N321 1.356 . S
C315 C314 1.363 . S
C315 C318 1.363 . S
N316 C318 1.356 . S
N316 H328 0.984 . S
N316 H329 0.985 . S
N317 C319 1.356 . S
N317 H322 0.984 1_655 S
N317 H323 0.985 . S
C318 C312 1.379 . S
C318 C315 1.363 . S
C318 N316 1.356 . S
C319 C313 1.363 . S
C319 C314 1.379 . S
C319 N317 1.356 . S
N320 C312 1.356 1_455 S
N320 H326 0.984 . S
N320 H327 0.984 . S
N321 C314 1.356 . S
N321 H324 0.984 . S
N321 H325 0.985 . S
H322 N317 0.984 1_455 S
H323 N317 0.985 . S
H324 N321 0.984 . S
H325 N321 0.985 . S
H326 N320 0.984 . S
H327 N320 0.984 . S
H328 N316 0.984 . S
H329 N316 0.985 . S
C330 C331 1.363 . S
C330 C336 1.379 . S
C330 N338 1.356 . S
C331 C330 1.363 . S
C331 C337 1.363 . S
C332 C333 1.363 . S
C332 C337 1.379 . S
C332 N339 1.356 . S
C333 C332 1.363 . S
C333 C336 1.363 . S
N334 C336 1.356 1_545 S
N334 H346 0.984 . S
N334 H347 0.985 . S
N335 C337 1.356 . S
N335 H340 0.984 . S
N335 H341 0.985 . S
C336 C330 1.379 . S
C336 C333 1.363 . S
C336 N334 1.356 1_565 S
C337 C331 1.363 . S
C337 C332 1.379 . S
C337 N335 1.356 . S
N338 C330 1.356 . S
N338 H344 0.984 . S
N338 H345 0.984 1_455 S
N339 C332 1.356 . S
N339 H342 0.984 1_565 S
N339 H343 0.985 . S
H340 N335 0.984 . S
H341 N335 0.985 . S
H342 N339 0.984 1_545 S
H343 N339 0.985 . S
H344 N338 0.984 . S
H345 N338 0.984 1_655 S
H346 N334 0.984 . S
H347 N334 0.985 . S
C348 C349 1.363 . S
C348 C354 1.379 . S
C348 N356 1.356 . S
C349 C348 1.363 . S
C349 C355 1.363 . S
C350 C351 1.363 . S
C350 C355 1.379 . S
C350 N357 1.356 . S
C351 C350 1.363 . S
C351 C354 1.363 . S
N352 C354 1.356 . S
N352 H364 0.984 . S
N352 H365 0.985 . S
N353 C355 1.345 1_455 S
N353 H358 1.002 . S
N353 H359 0.978 . S
C354 C348 1.379 . S
C354 C351 1.363 . S
C354 N352 1.356 . S
C355 C349 1.363 . S
C355 C350 1.379 . S
C355 N353 1.345 1_655 S
N356 C348 1.356 . S
N356 H362 0.984 . S
N356 H363 0.984 . S
N357 C350 1.356 . S
N357 H360 0.984 . S
N357 H361 0.985 . S
H358 N353 1.002 . S
H359 N353 0.978 . S
H360 N357 0.984 . S
H361 N357 0.985 . S
H362 N356 0.984 . S
H363 N356 0.984 . S
H364 N352 0.984 . S
H365 N352 0.985 . S
C366 C367 1.363 . S
C366 C372 1.379 . S
C366 N374 1.356 . S
C367 C366 1.363 . S
C367 C373 1.363 1_455 S
C368 C369 1.363 . S
C368 C373 1.379 1_455 S
C368 N375 1.356 . S
C369 C368 1.363 . S
C369 C372 1.363 . S
N370 C372 1.356 . S
N370 H382 0.984 . S
N370 H383 0.985 . S
N371 C373 1.356 . S
N371 H376 0.984 . S
N371 H377 0.985 . S
C372 C366 1.379 . S
C372 C369 1.363 . S
C372 N370 1.356 . S
C373 C367 1.363 1_655 S
C373 C368 1.379 1_655 S
C373 N371 1.356 . S
N374 C366 1.356 . S
N374 H380 0.984 . S
N374 H381 0.984 . S
N375 C368 1.356 . S
N375 H378 0.984 1_565 S
N375 H379 0.985 . S
H376 N371 0.984 . S
H377 N371 0.985 . S
H378 N375 0.984 1_545 S
H379 N375 0.985 . S
H380 N374 0.984 . S
H381 N374 0.984 . S
H382 N370 0.984 . S
H383 N370 0.985 . S
C384 C385 1.363 . S
C384 C390 1.379 . S
C384 N392 1.356 . S
C385 C384 1.363 . S
C385 C391 1.363 . S
C386 C387 1.363 . S
C386 C391 1.379 . S
C386 N393 1.356 1_545 S
C387 C386 1.363 . S
C387 C390 1.363 . S
N388 C390 1.356 . S
N388 H400 0.984 . S
N388 H401 0.985 1_545 S
N389 C391 1.356 . S
N389 H394 0.984 . S
N389 H395 0.985 . S
C390 C384 1.379 . S
C390 C387 1.363 . S
C390 N388 1.356 . S
C391 C385 1.363 . S
C391 C386 1.379 . S
C391 N389 1.356 . S
N392 C384 1.356 . S
N392 H398 0.984 . S
N392 H399 0.984 . S
N393 C386 1.356 1_565 S
N393 H396 0.984 . S
N393 H397 0.985 . S
H394 N389 0.984 . S
H395 N389 0.985 . S
H396 N393 0.984 . S
H397 N393 0.985 . S
H398 N392 0.984 . S
H399 N392 0.984 . S
H400 N388 0.984 . S
H401 N388 0.985 1_565 S
C402 C403 1.363 . S
C402 C408 1.379 . S
C402 N410 1.356 . S
C403 C402 1.363 . S
C403 C409 1.363 . S
C404 C405 1.363 . S
C404 C409 1.379 . S
C404 N411 1.356 . S
C405 C404 1.363 . S
C405 C408 1.363 . S
N406 C408 1.356 . S
N406 H418 0.984 . S
N406 H419 0.985 1_455 S
N407 C409 1.356 . S
N407 H412 0.984 . S
N407 H413 0.985 . S
C408 C402 1.379 . S
C408 C405 1.363 . S
C408 N406 1.356 . S
C409 C403 1.363 . S
C409 C404 1.379 . S
C409 N407 1.356 . S
N410 C402 1.356 . S
N410 H416 0.984 . S
N410 H417 0.984 . S
N411 C404 1.356 . S
N411 H414 0.984 1_455 S
N411 H415 0.985 . S
H412 N407 0.984 . S
H413 N407 0.985 . S
H414 N411 0.984 1_655 S
H415 N411 0.985 . S
H416 N410 0.984 . S
H417 N410 0.984 . S
H418 N406 0.984 . S
H419 N406 0.985 1_655 S
C420 C421 1.363 . S
C420 C426 1.379 . S
C420 N428 1.356 1_655 S
C421 C420 1.363 . S
C421 C427 1.363 . S
C422 C423 1.363 . S
C422 C427 1.379 . S
C422 N429 1.356 . S
C423 C422 1.363 . S
C423 C426 1.363 . S
N424 C426 1.356 . S
N424 H436 0.984 . S
N424 H437 0.985 1_545 S
N425 C427 1.356 . S
N425 H430 0.991 . S
N425 H431 0.985 . S
C426 C420 1.379 . S
C426 C423 1.363 . S
C426 N424 1.356 . S
C427 C421 1.363 . S
C427 C422 1.379 . S
C427 N425 1.356 . S
N428 C420 1.356 1_455 S
N428 H434 0.984 . S
N428 H435 0.984 . S
N429 C422 1.356 . S
N429 H432 0.984 1_545 S
N429 H433 0.985 . S
H430 N425 0.991 . S
H431 N425 0.985 . S
H432 N429 0.984 1_565 S
H433 N429 0.985 . S
H434 N428 0.984 . S
H435 N428 0.984 . S
H436 N424 0.984 . S
H437 N424 0.985 1_565 S
C438 C439 1.363 . S
C438 C444 1.379 . S
C438 N446 1.356 . S
C439 C438 1.363 . S
C439 C445 1.363 . S
C440 C441 1.363 . S
C440 C445 1.379 . S
C440 N447 1.356 1_565 S
C441 C440 1.363 . S
C441 C444 1.363 . S
N442 C444 1.356 . S
N442 H454 0.984 . S
N442 H455 0.985 1_565 S
N443 C445 1.356 . S
N443 H448 0.984 . S
N443 H449 0.985 . S
C444 C438 1.379 . S
C444 C441 1.363 . S
C444 N442 1.356 . S
C445 C439 1.363 . S
C445 C440 1.379 . S
C445 N443 1.356 . S
N446 C438 1.356 . S
N446 H452 0.984 . S
N446 H453 0.984 . S
N447 C440 1.356 1_545 S
N447 H450 0.984 . S
N447 H451 0.985 . S
H448 N443 0.984 . S
H449 N443 0.985 . S
H450 N447 0.984 . S
H451 N447 0.985 . S
H452 N446 0.984 . S
H453 N446 0.984 . S
H454 N442 0.984 . S
H455 N442 0.985 1_545 S
C456 C457 1.363 . S
C456 C462 1.379 . S
C456 N464 1.356 . S
C457 C456 1.363 . S
C457 C463 1.363 . S
C458 C459 1.363 . S
C458 C463 1.379 . S
C458 N465 1.356 . S
C459 C458 1.363 . S
C459 C462 1.363 . S
N460 C462 1.356 . S
N460 H472 0.984 . S
N460 H473 0.985 . S
N461 C463 1.356 . S
N461 H466 0.984 . S
N461 H467 0.985 . S
C462 C456 1.379 . S
C462 C459 1.363 . S
C462 N460 1.356 . S
C463 C457 1.363 . S
C463 C458 1.379 . S
C463 N461 1.356 . S
N464 C456 1.356 . S
N464 H470 0.984 . S
N464 H471 0.984 . S
N465 C458 1.356 . S
N465 H468 0.984 . S
N465 H469 0.985 . S
H466 N461 0.984 . S
H467 N461 0.985 . S
H468 N465 0.984 . S
H469 N465 0.985 . S
H470 N464 0.984 . S
H471 N464 0.984 . S
H472 N460 0.984 . S
H473 N460 0.985 . S
C474 C475 1.363 . S
C474 C480 1.379 . S
C474 N482 1.356 . S
C475 C474 1.363 . S
C475 C481 1.363 . S
C476 C477 1.363 . S
C476 C481 1.379 . S
C476 N483 1.356 . S
C477 C476 1.363 . S
C477 C480 1.363 . S
N478 C480 1.356 . S
N478 H490 0.984 . S
N478 H491 0.985 . S
N479 C481 1.356 . S
N479 H484 0.984 . S
N479 H485 0.985 . S
C480 C474 1.379 . S
C480 C477 1.363 . S
C480 N478 1.356 . S
C481 C475 1.363 . S
C481 C476 1.379 . S
C481 N479 1.356 . S
N482 C474 1.356 . S
N482 H488 0.984 . S
N482 H489 0.984 . S
N483 C476 1.356 . S
N483 H486 0.984 . S
N483 H487 0.985 . S
H484 N479 0.984 . S
H485 N479 0.985 . S
H486 N483 0.984 . S
H487 N483 0.985 . S
H488 N482 0.984 . S
H489 N482 0.984 . S
H490 N478 0.984 . S
H491 N478 0.985 . S
C492 C493 1.363 . S
C492 C498 1.379 . S
C492 N500 1.356 . S
C493 C492 1.363 . S
C493 C499 1.363 . S
C494 C495 1.363 . S
C494 C499 1.379 . S
C494 N501 1.356 . S
C495 C494 1.363 . S
C495 C498 1.363 . S
N496 C498 1.356 . S
N496 H508 0.984 . S
N496 H509 0.985 . S
N497 C499 1.356 . S
N497 H502 0.984 . S
N497 H503 0.985 . S
C498 C492 1.379 . S
C498 C495 1.363 . S
C498 N496 1.356 . S
C499 C493 1.363 . S
C499 C494 1.379 . S
C499 N497 1.356 . S
N500 C492 1.356 . S
N500 H506 0.984 . S
N500 H507 0.984 . S
N501 C494 1.356 . S
N501 H504 0.984 . S
N501 H505 0.985 . S
H502 N497 0.984 . S
H503 N497 0.985 . S
H504 N501 0.984 . S
H505 N501 0.985 . S
H506 N500 0.984 . S
H507 N500 0.984 . S
H508 N496 0.984 . S
H509 N496 0.985 . S
C510 C511 1.363 . S
C510 C516 1.379 . S
C510 N518 1.356 . S
C511 C510 1.363 . S
C511 C517 1.363 . S
C512 C513 1.363 . S
C512 C517 1.379 . S
C512 N519 1.356 . S
C513 C512 1.363 . S
C513 C516 1.363 . S
N514 C516 1.356 . S
N514 H526 0.984 . S
N514 H527 0.985 . S
N515 C517 1.356 . S
N515 H520 0.984 . S
N515 H521 0.985 . S
C516 C510 1.379 . S
C516 C513 1.363 . S
C516 N514 1.356 . S
C517 C511 1.363 . S
C517 C512 1.379 . S
C517 N515 1.356 . S
N518 C510 1.356 . S
N518 H524 0.984 . S
N518 H525 0.984 . S
N519 C512 1.356 . S
N519 H522 0.984 . S
N519 H523 0.985 . S
H520 N515 0.984 . S
H521 N515 0.985 . S
H522 N519 0.984 . S
H523 N519 0.985 . S
H524 N518 0.984 . S
H525 N518 0.984 . S
H526 N514 0.984 . S
H527 N514 0.985 . S
C528 C529 1.363 . S
C528 C534 1.379 . S
C528 N536 1.356 . S
C529 C528 1.363 . S
C529 C535 1.363 . S
C530 C531 1.363 . S
C530 C535 1.379 . S
C530 N537 1.356 . S
C531 C530 1.363 . S
C531 C534 1.363 . S
N532 C534 1.356 . S
N532 H544 0.984 . S
N532 H545 0.985 . S
N533 C535 1.356 . S
N533 H538 0.984 . S
N533 H539 0.985 . S
C534 C528 1.379 . S
C534 C531 1.363 . S
C534 N532 1.356 . S
C535 C529 1.363 . S
C535 C530 1.379 . S
C535 N533 1.356 . S
N536 C528 1.356 . S
N536 H542 0.984 . S
N536 H543 0.984 . S
N537 C530 1.356 . S
N537 H540 0.984 . S
N537 H541 0.985 . S
H538 N533 0.984 . S
H539 N533 0.985 . S
H540 N537 0.984 . S
H541 N537 0.985 . S
H542 N536 0.984 . S
H543 N536 0.984 . S
H544 N532 0.984 . S
H545 N532 0.985 . S
C546 C547 1.363 . S
C546 C552 1.379 . S
C546 N554 1.356 . S
C547 C546 1.363 . S
C547 C553 1.363 . S
C548 C549 1.363 . S
C548 C553 1.379 . S
C548 N555 1.356 . S
C549 C548 1.363 . S
C549 C552 1.363 . S
N550 C552 1.356 . S
N550 H562 0.984 . S
N550 H563 0.985 . S
N551 C553 1.356 . S
N551 H556 0.984 . S
N551 H557 0.985 . S
C552 C546 1.379 . S
C552 C549 1.363 . S
C552 N550 1.356 . S
C553 C547 1.363 . S
C553 C548 1.379 . S
C553 N551 1.356 . S
N554 C546 1.356 . S
N554 H560 0.984 . S
N554 H561 0.984 . S
N555 C548 1.356 . S
N555 H558 0.984 . S
N555 H559 0.985 . S
H556 N551 0.984 . S
H557 N551 0.985 . S
H558 N555 0.984 . S
H559 N555 0.985 . S
H560 N554 0.984 . S
H561 N554 0.984 . S
H562 N550 0.984 . S
H563 N550 0.985 . S
C564 C565 1.363 . S
C564 C570 1.379 . S
C564 N572 1.356 . S
C565 C564 1.363 . S
C565 C571 1.363 . S
C566 C567 1.363 . S
C566 C571 1.379 . S
C566 N573 1.356 . S
C567 C566 1.363 . S
C567 C570 1.363 . S
N568 C570 1.356 . S
N568 H580 0.984 . S
N568 H581 0.985 . S
N569 C571 1.356 . S
N569 H574 0.984 . S
N569 H575 0.985 . S
C570 C564 1.379 . S
C570 C567 1.363 . S
C570 N568 1.356 . S
C571 C565 1.363 . S
C571 C566 1.379 . S
C571 N569 1.356 . S
N572 C564 1.356 . S
N572 H578 0.984 . S
N572 H579 0.984 . S
N573 C566 1.356 . S
N573 H576 0.984 . S
N573 H577 0.985 . S
H574 N569 0.984 . S
H575 N569 0.985 . S
H576 N573 0.984 . S
H577 N573 0.985 . S
H578 N572 0.984 . S
H579 N572 0.984 . S
H580 N568 0.984 . S
H581 N568 0.985 . S
C582 C583 1.363 . S
C582 C588 1.379 . S
C582 N590 1.356 . S
C583 C582 1.363 . S
C583 C589 1.363 . S
C584 C585 1.363 . S
C584 C589 1.379 . S
C584 N591 1.356 . S
C585 C584 1.363 . S
C585 C588 1.363 . S
N586 C588 1.356 . S
N586 H598 0.984 . S
N586 H599 0.985 . S
N587 C589 1.356 . S
N587 H592 0.984 . S
N587 H593 0.985 . S
C588 C582 1.379 . S
C588 C585 1.363 . S
C588 N586 1.356 . S
C589 C583 1.363 . S
C589 C584 1.379 . S
C589 N587 1.356 . S
N590 C582 1.356 . S
N590 H596 0.984 . S
N590 H597 0.984 . S
N591 C584 1.356 . S
N591 H594 0.984 . S
N591 H595 0.985 . S
H592 N587 0.984 . S
H593 N587 0.985 . S
H594 N591 0.984 . S
H595 N591 0.985 . S
H596 N590 0.984 . S
H597 N590 0.984 . S
H598 N586 0.984 . S
H599 N586 0.985 . S
C600 C601 1.363 . S
C600 C606 1.379 . S
C600 N608 1.356 . S
C601 C600 1.363 . S
C601 C607 1.363 . S
C602 C603 1.363 . S
C602 C607 1.379 . S
C602 N609 1.356 . S
C603 C602 1.363 . S
C603 C606 1.363 . S
N604 C606 1.356 . S
N604 H616 0.984 . S
N604 H617 0.985 . S
N605 C607 1.356 . S
N605 H610 0.984 . S
N605 H611 0.985 . S
C606 C600 1.379 . S
C606 C603 1.363 . S
C606 N604 1.356 . S
C607 C601 1.363 . S
C607 C602 1.379 . S
C607 N605 1.356 . S
N608 C600 1.356 . S
N608 H614 0.984 . S
N608 H615 0.984 . S
N609 C602 1.356 . S
N609 H612 0.984 . S
N609 H613 0.985 . S
H610 N605 0.984 . S
H611 N605 0.985 . S
H612 N609 0.984 . S
H613 N609 0.985 . S
H614 N608 0.984 . S
H615 N608 0.984 . S
H616 N604 0.984 . S
H617 N604 0.985 . S
C618 C619 1.363 . S
C618 C624 1.379 . S
C618 N626 1.356 . S
C619 C618 1.363 . S
C619 C625 1.363 . S
C620 C621 1.363 . S
C620 C625 1.379 . S
C620 N627 1.356 . S
C621 C620 1.363 . S
C621 C624 1.363 . S
N622 C624 1.356 . S
N622 H634 0.984 . S
N622 H635 0.985 . S
N623 C625 1.356 . S
N623 H628 0.984 . S
N623 H629 0.985 . S
C624 C618 1.379 . S
C624 C621 1.363 . S
C624 N622 1.356 . S
C625 C619 1.363 . S
C625 C620 1.379 . S
C625 N623 1.356 . S
N626 C618 1.356 . S
N626 H632 0.984 . S
N626 H633 0.984 . S
N627 C620 1.356 . S
N627 H630 0.984 . S
N627 H631 0.985 . S
H628 N623 0.984 . S
H629 N623 0.985 . S
H630 N627 0.984 . S
H631 N627 0.985 . S
H632 N626 0.984 . S
H633 N626 0.984 . S
H634 N622 0.984 . S
H635 N622 0.985 . S
C636 C637 1.363 . S
C636 C642 1.379 . S
C636 N644 1.356 . S
C637 C636 1.363 . S
C637 C643 1.363 . S
C638 C639 1.363 . S
C638 C643 1.379 . S
C638 N645 1.356 . S
C639 C638 1.363 . S
C639 C642 1.363 . S
N640 C642 1.356 . S
N640 H652 0.984 . S
N640 H653 0.985 . S
N641 C643 1.356 . S
N641 H646 0.984 . S
N641 H647 0.985 . S
C642 C636 1.379 . S
C642 C639 1.363 . S
C642 N640 1.356 . S
C643 C637 1.363 . S
C643 C638 1.379 . S
C643 N641 1.356 . S
N644 C636 1.356 . S
N644 H650 0.984 . S
N644 H651 0.984 . S
N645 C638 1.356 . S
N645 H648 0.984 . S
N645 H649 0.985 . S
H646 N641 0.984 . S
H647 N641 0.985 . S
H648 N645 0.984 . S
H649 N645 0.985 . S
H650 N644 0.984 . S
H651 N644 0.984 . S
H652 N640 0.984 . S
H653 N640 0.985 . S
C654 C655 1.363 . S
C654 C660 1.379 . S
C654 N662 1.356 . S
C655 C654 1.363 . S
C655 C661 1.363 . S
C656 C657 1.363 . S
C656 C661 1.379 . S
C656 N663 1.356 . S
C657 C656 1.363 . S
C657 C660 1.363 . S
N658 C660 1.356 . S
N658 H670 0.984 . S
N658 H671 0.985 . S
N659 C661 1.356 . S
N659 H664 0.984 . S
N659 H665 0.985 . S
C660 C654 1.379 . S
C660 C657 1.363 . S
C660 N658 1.356 . S
C661 C655 1.363 . S
C661 C656 1.379 . S
C661 N659 1.356 . S
N662 C654 1.356 . S
N662 H668 0.984 . S
N662 H669 0.984 . S
N663 C656 1.356 . S
N663 H666 0.984 . S
N663 H667 0.985 . S
H664 N659 0.984 . S
H665 N659 0.985 . S
H666 N663 0.984 . S
H667 N663 0.985 . S
H668 N662 0.984 . S
H669 N662 0.984 . S
H670 N658 0.984 . S
H671 N658 0.985 . S
C672 C673 1.363 . S
C672 C678 1.379 . S
C672 N680 1.356 . S
C673 C672 1.363 . S
C673 C679 1.363 . S
C674 C675 1.363 . S
C674 C679 1.379 . S
C674 N681 1.356 . S
C675 C674 1.363 . S
C675 C678 1.363 . S
N676 C678 1.356 . S
N676 H688 0.984 . S
N676 H689 0.985 . S
N677 C679 1.356 . S
N677 H682 0.984 . S
N677 H683 0.985 . S
C678 C672 1.379 . S
C678 C675 1.363 . S
C678 N676 1.356 . S
C679 C673 1.363 . S
C679 C674 1.379 . S
C679 N677 1.356 . S
N680 C672 1.356 . S
N680 H686 0.984 . S
N680 H687 0.984 . S
N681 C674 1.356 . S
N681 H684 0.984 . S
N681 H685 0.985 . S
H682 N677 0.984 . S
H683 N677 0.985 . S
H684 N681 0.984 . S
H685 N681 0.985 . S
H686 N680 0.984 . S
H687 N680 0.984 . S
H688 N676 0.984 . S
H689 N676 0.985 . S
C690 C691 1.363 . S
C690 C696 1.379 . S
C690 N698 1.356 . S
C691 C690 1.363 . S
C691 C697 1.363 . S
C692 C693 1.363 . S
C692 C697 1.379 . S
C692 N699 1.356 . S
C693 C692 1.363 . S
C693 C696 1.363 . S
N694 C696 1.356 . S
N694 H706 0.984 . S
N694 H707 0.985 . S
N695 C697 1.356 . S
N695 H700 0.984 . S
N695 H701 0.985 . S
C696 C690 1.379 . S
C696 C693 1.363 . S
C696 N694 1.356 . S
C697 C691 1.363 . S
C697 C692 1.379 . S
C697 N695 1.356 . S
N698 C690 1.356 . S
N698 H704 0.984 . S
N698 H705 0.984 . S
N699 C692 1.356 . S
N699 H702 0.984 . S
N699 H703 0.985 . S
H700 N695 0.984 . S
H701 N695 0.985 . S
H702 N699 0.984 . S
H703 N699 0.985 . S
H704 N698 0.984 . S
H705 N698 0.984 . S
H706 N694 0.984 . S
H707 N694 0.985 . S
C708 C709 1.363 . S
C708 C714 1.379 . S
C708 N716 1.356 . S
C709 C708 1.363 . S
C709 C715 1.363 . S
C710 C711 1.363 . S
C710 C715 1.379 . S
C710 N717 1.356 . S
C711 C710 1.363 . S
C711 C714 1.363 . S
N712 C714 1.356 . S
N712 H724 0.984 . S
N712 H725 0.985 . S
N713 C715 1.356 . S
N713 H718 0.984 . S
N713 H719 0.985 . S
C714 C708 1.379 . S
C714 C711 1.363 . S
C714 N712 1.356 . S
C715 C709 1.363 . S
C715 C710 1.379 . S
C715 N713 1.356 . S
N716 C708 1.356 . S
N716 H722 0.984 . S
N716 H723 0.984 . S
N717 C710 1.356 . S
N717 H720 0.984 . S
N717 H721 0.985 . S
H718 N713 0.984 . S
H719 N713 0.985 . S
H720 N717 0.984 . S
H721 N717 0.985 . S
H722 N716 0.984 . S
H723 N716 0.984 . S
H724 N712 0.984 . S
H725 N712 0.985 . S
C726 C727 1.363 . S
C726 C732 1.379 . S
C726 N734 1.356 . S
C727 C726 1.363 . S
C727 C733 1.363 . S
C728 C729 1.363 . S
C728 C733 1.379 . S
C728 N735 1.356 . S
C729 C728 1.363 . S
C729 C732 1.363 . S
N730 C732 1.356 . S
N730 H742 0.984 . S
N730 H743 0.985 . S
N731 C733 1.356 . S
N731 H736 0.984 . S
N731 H737 0.985 . S
C732 C726 1.379 . S
C732 C729 1.363 . S
C732 N730 1.356 . S
C733 C727 1.363 . S
C733 C728 1.379 . S
C733 N731 1.356 . S
N734 C726 1.356 . S
N734 H740 0.984 . S
N734 H741 0.984 . S
N735 C728 1.356 . S
N735 H738 0.984 . S
N735 H739 0.985 . S
H736 N731 0.984 . S
H737 N731 0.985 . S
H738 N735 0.984 . S
H739 N735 0.985 . S
H740 N734 0.984 . S
H741 N734 0.984 . S
H742 N730 0.984 . S
H743 N730 0.985 . S
C744 C745 1.363 . S
C744 C750 1.379 . S
C744 N752 1.356 . S
C745 C744 1.363 . S
C745 C751 1.363 . S
C746 C747 1.363 . S
C746 C751 1.379 . S
C746 N753 1.356 . S
C747 C746 1.363 . S
C747 C750 1.363 . S
N748 C750 1.356 . S
N748 H760 0.984 . S
N748 H761 0.985 . S
N749 C751 1.356 . S
N749 H754 0.984 . S
N749 H755 0.985 . S
C750 C744 1.379 . S
C750 C747 1.363 . S
C750 N748 1.356 . S
C751 C745 1.363 . S
C751 C746 1.379 . S
C751 N749 1.356 . S
N752 C744 1.356 . S
N752 H758 0.984 . S
N752 H759 0.984 . S
N753 C746 1.356 . S
N753 H756 0.984 . S
N753 H757 0.985 . S
H754 N749 0.984 . S
H755 N749 0.985 . S
H756 N753 0.984 . S
H757 N753 0.985 . S
H758 N752 0.984 . S
H759 N752 0.984 . S
H760 N748 0.984 . S
H761 N748 0.985 . S
C762 C763 1.363 . S
C762 C768 1.379 . S
C762 N770 1.356 . S
C763 C762 1.363 . S
C763 C769 1.363 . S
C764 C765 1.363 . S
C764 C769 1.379 . S
C764 N771 1.356 . S
C765 C764 1.363 . S
C765 C768 1.363 . S
N766 C768 1.356 . S
N766 H778 0.984 . S
N766 H779 0.985 . S
N767 C769 1.356 . S
N767 H772 0.984 . S
N767 H773 0.985 . S
C768 C762 1.379 . S
C768 C765 1.363 . S
C768 N766 1.356 . S
C769 C763 1.363 . S
C769 C764 1.379 . S
C769 N767 1.356 . S
N770 C762 1.356 . S
N770 H776 0.984 . S
N770 H777 0.984 . S
N771 C764 1.356 . S
N771 H774 0.984 . S
N771 H775 0.985 . S
H772 N767 0.984 . S
H773 N767 0.985 . S
H774 N771 0.984 . S
H775 N771 0.985 . S
H776 N770 0.984 . S
H777 N770 0.984 . S
H778 N766 0.984 . S
H779 N766 0.985 . S
C780 C781 1.363 . S
C780 C786 1.379 1_556 S
C780 N788 1.356 . S
C781 C780 1.363 . S
C781 C787 1.363 . S
C782 C783 1.363 . S
C782 C787 1.379 1_554 S
C782 N789 1.356 . S
C783 C782 1.363 . S
C783 C786 1.363 . S
N784 C786 1.356 . S
N784 H796 0.984 . S
N784 H797 0.985 . S
N785 C787 1.356 . S
N785 H790 0.984 . S
N785 H791 0.985 . S
C786 C780 1.379 1_554 S
C786 C783 1.363 . S
C786 N784 1.356 . S
C787 C781 1.363 . S
C787 C782 1.379 1_556 S
C787 N785 1.356 . S
N788 C780 1.356 . S
N788 H794 0.995 . S
N788 H795 0.984 . S
N789 C782 1.356 . S
N789 H792 0.984 . S
N789 H793 0.995 . S
H790 N785 0.984 . S
H791 N785 0.985 . S
H792 N789 0.984 . S
H793 N789 0.995 . S
H794 N788 0.995 . S
H795 N788 0.984 . S
H796 N784 0.984 . S
H797 N784 0.985 . S
C798 C799 1.363 1_655 S
C798 C804 1.379 . S
C798 N806 1.356 1_655 S
C799 C798 1.363 1_455 S
C799 C805 1.363 . S
C800 C801 1.363 1_455 S
C800 C805 1.379 . S
C800 N807 1.356 1_455 S
C801 C800 1.363 1_655 S
C801 C804 1.363 . S
N802 C804 1.356 . S
N802 H814 0.984 . S
N802 H815 0.985 . S
N803 C805 1.356 . S
N803 H808 0.984 . S
N803 H809 0.985 . S
C804 C798 1.379 . S
C804 C801 1.363 . S
C804 N802 1.356 . S
C805 C799 1.363 . S
C805 C800 1.379 . S
C805 N803 1.356 . S
N806 C798 1.356 1_455 S
N806 H812 0.984 1_455 S
N806 H813 0.984 . S
N807 C800 1.356 1_655 S
N807 H810 0.984 . S
N807 H811 0.985 1_655 S
H808 N803 0.984 . S
H809 N803 0.985 . S
H810 N807 0.984 . S
H811 N807 0.985 1_455 S
H812 N806 0.984 1_655 S
H813 N806 0.984 . S
H814 N802 0.984 . S
H815 N802 0.985 . S
C816 C817 1.363 1_545 S
C816 C822 1.379 . S
C816 N824 1.356 1_545 S
C817 C816 1.363 1_565 S
C817 C823 1.363 1_554 S
C818 C819 1.363 1_565 S
C818 C823 1.379 . S
C818 N825 1.356 1_565 S
C819 C818 1.363 1_545 S
C819 C822 1.363 1_556 S
N820 C822 1.356 . S
N820 H832 0.984 . S
N820 H833 0.985 1_554 S
N821 C823 1.356 . S
N821 H826 0.984 1_556 S
N821 H827 0.985 . S
C822 C816 1.379 . S
C822 C819 1.363 1_554 S
C822 N820 1.356 . S
C823 C817 1.363 1_556 S
C823 C818 1.379 . S
C823 N821 1.356 . S
N824 C816 1.356 1_565 S
N824 H830 0.984 1_565 S
N824 H831 0.984 . S
N825 C818 1.356 1_545 S
N825 H828 0.984 . S
N825 H829 0.985 1_545 S
H826 N821 0.984 1_554 S
H827 N821 0.985 . S
H828 N825 0.984 . S
H829 N825 0.985 1_565 S
H830 N824 0.984 1_545 S
H831 N824 0.984 . S
H832 N820 0.984 . S
H833 N820 0.985 1_556 S
C834 C835 1.363 . S
C834 C840 1.379 . S
C834 N842 1.356 . S
C835 C834 1.363 . S
C835 C841 1.363 . S
C836 C837 1.363 . S
C836 C841 1.379 . S
C836 N843 1.356 . S
C837 C836 1.363 . S
C837 C840 1.363 . S
N838 C840 1.356 . S
N838 H850 0.984 . S
N838 H851 0.985 . S
N839 C841 1.356 . S
N839 H844 0.984 . S
N839 H845 0.985 . S
C840 C834 1.379 . S
C840 C837 1.363 . S
C840 N838 1.356 . S
C841 C835 1.363 . S
C841 C836 1.379 . S
C841 N839 1.356 . S
N842 C834 1.356 . S
N842 H848 0.984 . S
N842 H849 0.984 . S
N843 C836 1.356 . S
N843 H846 0.984 . S
N843 H847 0.985 . S
H844 N839 0.984 . S
H845 N839 0.985 . S
H846 N843 0.984 . S
H847 N843 0.985 . S
H848 N842 0.984 . S
H849 N842 0.984 . S
H850 N838 0.984 . S
H851 N838 0.985 . S
C852 C853 1.363 1_554 S
C852 C858 1.379 . S
C852 N860 1.356 . S
C853 C852 1.363 1_556 S
C853 C859 1.363 1_655 S
C854 C855 1.363 1_556 S
C854 C859 1.379 . S
C854 N861 1.356 . S
C855 C854 1.363 1_554 S
C855 C858 1.363 1_455 S
N856 C858 1.356 1_455 S
N856 H868 0.984 1_455 S
N856 H869 0.985 . S
N857 C859 1.356 1_655 S
N857 H862 0.984 . S
N857 H863 0.985 1_655 S
C858 C852 1.379 . S
C858 C855 1.363 1_655 S
C858 N856 1.356 1_655 S
C859 C853 1.363 1_455 S
C859 C854 1.379 . S
C859 N857 1.356 1_455 S
N860 C852 1.356 . S
N860 H866 0.984 . S
N860 H867 0.984 1_554 S
N861 C854 1.356 . S
N861 H864 0.984 1_556 S
N861 H865 0.985 . S
H862 N857 0.984 . S
H863 N857 0.985 1_455 S
H864 N861 0.984 1_554 S
H865 N861 0.985 . S
H866 N860 0.984 . S
H867 N860 0.984 1_556 S
H868 N856 0.984 1_655 S
H869 N856 0.985 . S
C870 C871 1.363 . S
C870 C876 1.379 1_565 S
C870 N878 1.356 . S
C871 C870 1.363 . S
C871 C877 1.363 . S
C872 C873 1.363 . S
C872 C877 1.379 1_545 S
C872 N879 1.356 . S
C873 C872 1.363 . S
C873 C876 1.363 . S
N874 C876 1.356 . S
N874 H886 0.984 . S
N874 H887 0.985 . S
N875 C877 1.356 . S
N875 H880 0.984 . S
N875 H881 0.985 . S
C876 C870 1.379 1_545 S
C876 C873 1.363 . S
C876 N874 1.356 . S
C877 C871 1.363 . S
C877 C872 1.379 1_565 S
C877 N875 1.356 . S
N878 C870 1.356 . S
N878 H884 0.983 1_565 S
N878 H885 0.984 . S
N879 C872 1.356 . S
N879 H882 0.984 . S
N879 H883 0.983 1_545 S
H880 N875 0.984 . S
H881 N875 0.985 . S
H882 N879 0.984 . S
H883 N879 0.983 1_565 S
H884 N878 0.983 1_545 S
H885 N878 0.984 . S
H886 N874 0.984 . S
H887 N874 0.985 . S
C241 C86 1.403 1_545 S
C243 C19 1.458 . S
C259 C106 1.403 . S
C261 C39 1.458 1_455 S
C277 C59 1.458 1_545 S
C279 C6 1.404 1_655 S
C295 C79 1.458 . S
C297 C26 1.403 1_565 S
C313 C99 1.458 1_655 S
C315 C46 1.403 . S
C331 C66 1.404 1_455 S
C333 C119 1.458 1_565 S
C349 C166 1.403 1_655 S
C351 C139 1.458 . S
C367 C159 1.458 1_455 S
C369 C186 1.404 1_565 S
C385 C206 1.403 . S
C387 C179 1.458 1_545 S
C403 C199 1.458 . S
C405 C226 1.403 1_455 S
C421 C219 1.458 1_655 S
C423 C126 1.404 1_545 S
C439 C146 1.403 . S
C441 C239 1.458 1_565 S
C457 C96 1.571 . S
C459 C8 1.486 . S
C475 C28 1.486 . S
C477 C116 1.571 . S
C493 C48 1.486 . S
C495 C16 1.572 . S
C511 C68 1.486 . S
C513 C36 1.571 . S
C529 C56 1.571 . S
C531 C88 1.486 . S
C547 C76 1.572 . S
C549 C108 1.486 . S
C565 C176 1.571 . S
C567 C128 1.486 . S
C583 C148 1.486 . S
C585 C196 1.572 . S
C601 C168 1.486 . S
C603 C216 1.571 . S
C619 C236 1.571 . S
C621 C188 1.486 . S
C637 C208 1.486 . S
C639 C136 1.572 . S
C655 C156 1.571 . S
C657 C228 1.486 . S
C673 C209 1.682 . S
C675 C9 1.682 . S
C691 C29 1.682 . S
C693 C229 1.682 . S
C709 C49 1.682 . S
C711 C129 1.682 . S
C727 C69 1.682 . S
C729 C149 1.682 . S
C745 C89 1.682 . S
C747 C169 1.682 . S
C763 C189 1.682 . S
C765 C109 1.682 . S
C781 C181 1.851 . S
C783 C1 1.851 . S
C799 C201 1.851 . S
C801 C21 1.851 . S
C817 C41 1.851 . S
C819 C221 1.851 . S
C835 C61 1.851 . S
C837 C121 1.851 . S
C853 C141 1.851 . S
C855 C81 1.851 . S
C871 C161 1.851 . S
C873 C101 1.851 . S
