# Generated by pormake.
# Topology wmc, (6)-cn, num edge types: 1
# Building blocks:
#     Node 0, Type 0, BuildingBlock: FUNLAD_clean_sbu_0, # of connection points: 6
#     Node 1, Type 0, BuildingBlock: FUNLAD_clean_sbu_0, # of connection points: 6
#     Node 2, Type 0, BuildingBlock: FUNLAD_clean_sbu_0, # of connection points: 6
#     Node 3, Type 0, BuildingBlock: FUNLAD_clean_sbu_0, # of connection points: 6
#     Node 4, Type 0, BuildingBlock: FUNLAD_clean_sbu_0, # of connection points: 6
#     Node 5, Type 0, BuildingBlock: FUNLAD_clean_sbu_0, # of connection points: 6
#     Node 6, Type 0, BuildingBlock: FUNLAD_clean_sbu_0, # of connection points: 6
#     Node 7, Type 0, BuildingBlock: FUNLAD_clean_sbu_0, # of connection points: 6
#     Node 8, Type 0, BuildingBlock: FUNLAD_clean_sbu_0, # of connection points: 6
#     Node 9, Type 0, BuildingBlock: FUNLAD_clean_sbu_0, # of connection points: 6
#     Node 10, Type 0, BuildingBlock: FUNLAD_clean_sbu_0, # of connection points: 6
#     Node 11, Type 0, BuildingBlock: FUNLAD_clean_sbu_0, # of connection points: 6
#     Node 12, Type 0, BuildingBlock: FUNLAD_clean_sbu_0, # of connection points: 6
#     Node 13, Type 0, BuildingBlock: FUNLAD_clean_sbu_0, # of connection points: 6
#     Node 14, Type 0, BuildingBlock: FUNLAD_clean_sbu_0, # of connection points: 6
#     Node 15, Type 0, BuildingBlock: FUNLAD_clean_sbu_0, # of connection points: 6
#     Node 16, Type 0, BuildingBlock: FUNLAD_clean_sbu_0, # of connection points: 6
#     Node 17, Type 0, BuildingBlock: FUNLAD_clean_sbu_0, # of connection points: 6
#     Edge 18, Type (0, 0), BuildingBlock: KIFKEQ_clean_linker_1, # of connection points: 2
#     Edge 19, Type (0, 0), BuildingBlock: KIFKEQ_clean_linker_1, # of connection points: 2
#     Edge 20, Type (0, 0), BuildingBlock: KIFKEQ_clean_linker_1, # of connection points: 2
#     Edge 21, Type (0, 0), BuildingBlock: KIFKEQ_clean_linker_1, # of connection points: 2
#     Edge 22, Type (0, 0), BuildingBlock: KIFKEQ_clean_linker_1, # of connection points: 2
#     Edge 23, Type (0, 0), BuildingBlock: KIFKEQ_clean_linker_1, # of connection points: 2
#     Edge 24, Type (0, 0), BuildingBlock: KIFKEQ_clean_linker_1, # of connection points: 2
#     Edge 25, Type (0, 0), BuildingBlock: KIFKEQ_clean_linker_1, # of connection points: 2
#     Edge 26, Type (0, 0), BuildingBlock: KIFKEQ_clean_linker_1, # of connection points: 2
#     Edge 27, Type (0, 0), BuildingBlock: KIFKEQ_clean_linker_1, # of connection points: 2
#     Edge 28, Type (0, 0), BuildingBlock: KIFKEQ_clean_linker_1, # of connection points: 2
#     Edge 29, Type (0, 0), BuildingBlock: KIFKEQ_clean_linker_1, # of connection points: 2
#     Edge 30, Type (0, 0), BuildingBlock: KIFKEQ_clean_linker_1, # of connection points: 2
#     Edge 31, Type (0, 0), BuildingBlock: KIFKEQ_clean_linker_1, # of connection points: 2
#     Edge 32, Type (0, 0), BuildingBlock: KIFKEQ_clean_linker_1, # of connection points: 2
#     Edge 33, Type (0, 0), BuildingBlock: KIFKEQ_clean_linker_1, # of connection points: 2
#     Edge 34, Type (0, 0), BuildingBlock: KIFKEQ_clean_linker_1, # of connection points: 2
#     Edge 35, Type (0, 0), BuildingBlock: KIFKEQ_clean_linker_1, # of connection points: 2
#     Edge 36, Type (0, 0), BuildingBlock: KIFKEQ_clean_linker_1, # of connection points: 2
#     Edge 37, Type (0, 0), BuildingBlock: KIFKEQ_clean_linker_1, # of connection points: 2
#     Edge 38, Type (0, 0), BuildingBlock: KIFKEQ_clean_linker_1, # of connection points: 2
#     Edge 39, Type (0, 0), BuildingBlock: KIFKEQ_clean_linker_1, # of connection points: 2
#     Edge 40, Type (0, 0), BuildingBlock: KIFKEQ_clean_linker_1, # of connection points: 2
#     Edge 41, Type (0, 0), BuildingBlock: KIFKEQ_clean_linker_1, # of connection points: 2
#     Edge 42, Type (0, 0), BuildingBlock: KIFKEQ_clean_linker_1, # of connection points: 2
#     Edge 43, Type (0, 0), BuildingBlock: KIFKEQ_clean_linker_1, # of connection points: 2
#     Edge 44, Type (0, 0), BuildingBlock: KIFKEQ_clean_linker_1, # of connection points: 2
#     Edge 45, Type (0, 0), BuildingBlock: KIFKEQ_clean_linker_1, # of connection points: 2
#     Edge 46, Type (0, 0), BuildingBlock: KIFKEQ_clean_linker_1, # of connection points: 2
#     Edge 47, Type (0, 0), BuildingBlock: KIFKEQ_clean_linker_1, # of connection points: 2
#     Edge 48, Type (0, 0), BuildingBlock: KIFKEQ_clean_linker_1, # of connection points: 2
#     Edge 49, Type (0, 0), BuildingBlock: KIFKEQ_clean_linker_1, # of connection points: 2
#     Edge 50, Type (0, 0), BuildingBlock: KIFKEQ_clean_linker_1, # of connection points: 2
#     Edge 51, Type (0, 0), BuildingBlock: KIFKEQ_clean_linker_1, # of connection points: 2
#     Edge 52, Type (0, 0), BuildingBlock: KIFKEQ_clean_linker_1, # of connection points: 2
#     Edge 53, Type (0, 0), BuildingBlock: KIFKEQ_clean_linker_1, # of connection points: 2
#     Edge 54, Type (0, 0), BuildingBlock: KIFKEQ_clean_linker_1, # of connection points: 2
#     Edge 55, Type (0, 0), BuildingBlock: KIFKEQ_clean_linker_1, # of connection points: 2
#     Edge 56, Type (0, 0), BuildingBlock: KIFKEQ_clean_linker_1, # of connection points: 2
#     Edge 57, Type (0, 0), BuildingBlock: KIFKEQ_clean_linker_1, # of connection points: 2
#     Edge 58, Type (0, 0), BuildingBlock: KIFKEQ_clean_linker_1, # of connection points: 2
#     Edge 59, Type (0, 0), BuildingBlock: KIFKEQ_clean_linker_1, # of connection points: 2
#     Edge 60, Type (0, 0), BuildingBlock: KIFKEQ_clean_linker_1, # of connection points: 2
#     Edge 61, Type (0, 0), BuildingBlock: KIFKEQ_clean_linker_1, # of connection points: 2
#     Edge 62, Type (0, 0), BuildingBlock: KIFKEQ_clean_linker_1, # of connection points: 2
#     Edge 63, Type (0, 0), BuildingBlock: KIFKEQ_clean_linker_1, # of connection points: 2
#     Edge 64, Type (0, 0), BuildingBlock: KIFKEQ_clean_linker_1, # of connection points: 2
#     Edge 65, Type (0, 0), BuildingBlock: KIFKEQ_clean_linker_1, # of connection points: 2
#     Edge 66, Type (0, 0), BuildingBlock: KIFKEQ_clean_linker_1, # of connection points: 2
#     Edge 67, Type (0, 0), BuildingBlock: KIFKEQ_clean_linker_1, # of connection points: 2
#     Edge 68, Type (0, 0), BuildingBlock: KIFKEQ_clean_linker_1, # of connection points: 2
#     Edge 69, Type (0, 0), BuildingBlock: KIFKEQ_clean_linker_1, # of connection points: 2
#     Edge 70, Type (0, 0), BuildingBlock: KIFKEQ_clean_linker_1, # of connection points: 2
#     Edge 71, Type (0, 0), BuildingBlock: KIFKEQ_clean_linker_1, # of connection points: 2
# Relax obj value: 0.569
# Max RMSD: 0.257
# Mean RMSD: 0.257
data_MOF--net-wmc--node1-FUNLAD_clean_sbu_0--edge1-KIFKEQ_clean_linker_1
_symmetry_space_group_name_H-M    P1
_symmetry_Int_Tables_number       1
_symmetry_cell_setting            triclinic
loop_
_symmetry_equiv_pos_as_xyz
'x, y, z'
_cell_length_a     54.586486
_cell_length_b     54.640458
_cell_length_c     28.915702
_cell_angle_alpha  89.992408
_cell_angle_beta   90.038061
_cell_angle_gamma 119.99577
loop_
_atom_site_label
_atom_site_type_symbol
_atom_site_fract_x
_atom_site_fract_y
_atom_site_fract_z
_atom_type_partial_charge
C0 C 0.5939 0.12434 0.09209 0.0
N1 N 0.66464 0.18181 0.01163 0.0
C2 C 0.6648 0.20347 0.03497 0.0
C3 C 0.68927 0.22995 0.03637 0.0
C4 C 0.7138 0.2343 0.0132 0.0
C5 C 0.71326 0.21129 0.99068 0.0
C6 C 0.68836 0.18511 0.99036 0.0
Zn7 Zn 0.62784 0.14415 0.00492 0.0
C8 C 0.63875 0.09685 0.02741 0.0
N9 N 0.5499 0.06443 0.98805 0.0
C10 C 0.52708 0.06247 0.01069 0.0
C11 C 0.5461 0.0464 0.95264 0.0
C12 C 0.51877 0.02688 0.93705 0.0
C13 C 0.4948 0.02542 0.95833 0.0
C14 C 0.49948 0.04292 -0.00311 0.0
Zn15 Zn 0.58885 0.10145 -0.00153 0.0
O16 O 0.61648 0.14515 0.07605 0.0
C17 C 0.58079 0.15149 0.97819 0.0
O18 O 0.57949 0.10278 0.06698 0.0
H19 H 0.56422 0.04826 0.93435 0.0
H20 H 0.64575 0.20038 0.05172 0.0
H21 H 0.53004 0.07729 0.0378 0.0
O22 O 0.60709 0.16512 0.98603 0.0
O23 O 0.56734 0.12467 0.98139 0.0
H24 H 0.68779 0.16757 0.97206 0.0
O25 O 0.59858 0.10134 0.92905 0.0
O26 O 0.63691 0.14291 0.93372 0.0
O27 O 0.61259 0.08013 0.01794 0.0
O28 O 0.64907 0.12329 0.02399 0.0
C29 C 0.6196 0.12189 0.90959 0.0
H30 H 0.68886 0.24694 0.05499 0.0
H31 H 0.73156 0.21368 0.97211 0.0
H32 H 0.5167 0.01422 0.90696 0.0
H33 H 0.48203 0.04234 0.01559 0.0
C34 C 0.90442 0.49109 0.10226 0.0
N35 N 0.84209 0.49487 0.02031 0.0
C36 C 0.82183 0.47862 0.0516 0.0
C37 C 0.79681 0.4797 0.05431 0.0
C38 C 0.79264 0.49767 0.02453 0.0
C39 C 0.81416 0.51454 -0.00676 0.0
C40 C 0.83875 0.51277 -0.00834 0.0
Zn41 Zn 0.87842 0.49301 0.01358 0.0
C42 C 0.92729 0.55247 0.01306 0.0
N43 N 0.95628 0.49149 -0.00632 0.0
C44 C 0.9596 0.47316 0.02148 0.0
C45 C 0.97256 0.50229 0.95508 0.0
C46 C 0.9917 0.49347 0.94191 0.0
C47 C 0.99464 0.47372 0.96906 0.0
C48 C 0.97892 0.46429 0.01011 0.0
Zn49 Zn 0.92022 0.49529 0.00392 0.0
O50 O 0.88348 0.49284 0.08682 0.0
C51 C 0.86833 0.43606 0.00849 0.0
O52 O 0.92288 0.49219 0.07441 0.0
H53 H 0.96972 0.51664 0.93297 0.0
H54 H 0.82489 0.46451 0.074 0.0
H55 H 0.94608 0.46397 0.05124 0.0
O56 O 0.85606 0.45014 0.01555 0.0
O57 O 0.89481 0.44894 -5e-05 0.0
H58 H 0.85513 0.52561 0.9671 0.0
O59 O 0.91649 0.49797 0.93292 0.0
O60 O 0.87352 0.49115 0.9404 0.0
O61 O 0.94349 0.54182 0.01043 0.0
O62 O 0.90077 0.53636 0.01276 0.0
C63 C 0.89372 0.49416 0.91477 0.0
H64 H 0.7806 0.46602 0.07855 0.0
H65 H 0.812 0.52891 0.97004 0.0
H66 H 1.00361 0.5015 0.91017 0.0
H67 H 0.98031 0.4489 0.03189 0.0
C68 C 0.53364 0.41609 0.09587 0.0
N69 N 0.53545 0.35624 0.00595 0.0
C70 C 0.55235 0.35261 0.03643 0.0
C71 C 0.55332 0.32754 0.0363 0.0
C72 C 0.5367 0.30606 0.00454 0.0
C73 C 0.51888 0.31012 0.97447 0.0
C74 C 0.51863 0.33547 0.97569 0.0
Zn75 Zn 0.53502 0.39329 0.00286 0.0
C76 C 0.47421 0.37927 0.00217 0.0
N77 N 0.53111 0.46993 -0.00726 0.0
C78 C 0.55036 0.49234 0.01817 0.0
C79 C 0.51808 0.47406 0.95583 0.0
C80 C 0.52581 0.50146 0.94123 0.0
C81 C 0.54701 0.52515 0.96501 0.0
C82 C 0.55845 0.52009 0.00513 0.0
Zn83 Zn 0.52992 0.4314 0.00029 0.0
O84 O 0.53402 0.39555 0.0758 0.0
C85 C 0.5906 0.44243 0.00477 0.0
O86 O 0.53122 0.43438 0.07223 0.0
H87 H 0.50307 0.45616 0.93555 0.0
H88 H 0.56544 0.36934 0.06033 0.0
H89 H 0.5609 0.48887 0.04698 0.0
O90 O 0.57805 0.41576 0.00683 0.0
O91 O 0.57626 0.45483 -0.00059 0.0
H92 H 0.50537 0.33878 0.95168 0.0
O93 O 0.52933 0.42805 0.92806 0.0
O94 O 0.53809 0.39305 0.93012 0.0
O95 O 0.48354 0.4059 0.00347 0.0
O96 O 0.49149 0.37027 8e-05 0.0
C97 C 0.53459 0.41084 0.90713 0.0
H98 H 0.56717 0.32512 0.06038 0.0
H99 H 0.50605 0.29431 0.94901 0.0
H100 H 0.51637 0.50387 0.9099 0.0
H101 H 0.57427 0.53739 0.02554 0.0
C102 C 0.90233 0.41574 0.41852 0.0
N103 N 0.96034 0.47274 0.5119 0.0
C104 C 0.97859 0.47724 0.47647 0.0
C105 C 0.99828 0.50479 0.46252 0.0
C106 C 0.99979 0.52809 0.48581 0.0
C107 C 0.98258 0.52288 0.52485 0.0
C108 C 0.96272 0.49496 0.53705 0.0
Zn109 Zn 0.92232 0.43417 0.51522 0.0
C110 C 0.87315 0.44593 0.51015 0.0
N111 N 0.84095 0.35945 0.50955 0.0
C112 C 0.83819 0.33866 0.48038 0.0
C113 C 0.81913 0.35594 0.53682 0.0
C114 C 0.79311 0.3309 0.53465 0.0
C115 C 0.78958 0.30928 0.50426 0.0
C116 C 0.81263 0.31328 0.47729 0.0
Zn117 Zn 0.87884 0.39624 0.51086 0.0
O118 O 0.92298 0.43241 0.44366 0.0
C119 C 0.92486 0.38129 0.51892 0.0
O120 O 0.8798 0.39681 0.43745 0.0
H121 H 0.82183 0.37268 0.55993 0.0
H122 H 0.97648 0.45954 0.45655 0.0
H123 H 0.85578 0.34188 0.45893 0.0
O124 O 0.94237 0.40787 0.52168 0.0
O125 O 0.89882 0.37268 0.51324 0.0
H126 H 0.94775 0.49123 0.5644 0.0
O127 O 0.87808 0.39777 0.58434 0.0
O128 O 0.92054 0.43566 0.58659 0.0
O129 O 0.85867 0.41924 0.50957 0.0
O130 O 0.90008 0.45814 0.51056 0.0
C131 C 0.8983 0.41742 0.60722 0.0
H132 H 1.01138 0.50786 0.43252 0.0
H133 H 0.98299 0.54022 0.54369 0.0
H134 H 0.77589 0.32852 0.55636 0.0
H135 H 0.8107 0.29733 0.45298 0.0
C136 C 0.61403 0.49322 0.4069 0.0
N137 N 0.55314 0.49121 0.49589 0.0
C138 C 0.54736 0.50592 0.46389 0.0
C139 C 0.51923 0.49769 0.45243 0.0
C140 C 0.49655 0.47365 0.4733 0.0
C141 C 0.50338 0.45992 0.50795 0.0
C142 C 0.53168 0.46917 0.51892 0.0
Zn143 Zn 0.59308 0.49485 0.50085 0.0
C144 C 0.58565 0.43556 0.50152 0.0
N145 N 0.67106 0.49387 0.50431 0.0
C146 C 0.69189 0.51126 0.47459 0.0
C147 C 0.67554 0.47817 0.53611 0.0
C148 C 0.7018 0.47971 0.53899 0.0
C149 C 0.72371 0.49752 0.50881 0.0
C150 C 0.71845 0.51336 0.47617 0.0
Zn151 Zn 0.63282 0.49231 0.50201 0.0
O152 O 0.59609 0.4971 0.42869 0.0
C153 C 0.64368 0.55187 0.50514 0.0
O154 O 0.63265 0.49054 0.42904 0.0
H155 H 0.65871 0.46441 0.55933 0.0
H156 H 0.56454 0.52317 0.4454 0.0
H157 H 0.68796 0.5237 0.44974 0.0
O158 O 0.6168 0.54126 0.50685 0.0
O159 O 0.65394 0.53572 0.50112 0.0
H160 H 0.53644 0.45739 0.54388 0.0
O161 O 0.63075 0.49209 0.57521 0.0
O162 O 0.59042 0.49208 0.57261 0.0
O163 O 0.61232 0.44941 0.50405 0.0
O164 O 0.57187 0.44859 0.49712 0.0
C165 C 0.60955 0.49086 0.59573 0.0
H166 H 0.51547 0.50968 0.42645 0.0
H167 H 0.4872 0.44115 0.52498 0.0
H168 H 0.70476 0.46673 0.56415 0.0
H169 H 0.73479 0.52746 0.45245 0.0
C170 C 0.52484 0.1228 0.41013 0.0
N171 N 0.53471 0.06553 0.49257 0.0
C172 C 0.51729 0.04389 0.46401 0.0
C173 C 0.52378 0.02277 0.4523 0.0
C174 C 0.54869 0.02437 0.46937 0.0
C175 C 0.56545 0.04615 0.50022 0.0
C176 C 0.55797 0.06637 0.51164 0.0
Zn177 Zn 0.53298 0.10258 0.4999 0.0
C178 C 0.59223 0.15257 0.48169 0.0
N179 N 0.53886 0.1833 0.51127 0.0
C180 C 0.51898 0.18661 0.48812 0.0
C181 C 0.55946 0.20474 0.53639 0.0
C182 C 0.561 0.23099 0.53798 0.0
C183 C 0.54132 0.23533 0.51315 0.0
C184 C 0.51984 0.21257 0.48854 0.0
Zn185 Zn 0.53813 0.14574 0.50597 0.0
O186 O 0.52402 0.10174 0.43009 0.0
C187 C 0.47861 0.09892 0.52417 0.0
O188 O 0.52931 0.14423 0.43389 0.0
H189 H 0.57498 0.20162 0.55464 0.0
H190 H 0.49919 0.04374 0.44846 0.0
H191 H 0.5027 0.16923 0.4685 0.0
O192 O 0.48749 0.08154 0.51682 0.0
O193 O 0.49568 0.12522 0.52168 0.0
H194 H 0.57188 0.08375 0.5338 0.0
O195 O 0.54903 0.14676 0.57803 0.0
O196 O 0.54274 0.10411 0.56884 0.0
O197 O 0.58011 0.16668 0.48969 0.0
O198 O 0.57819 0.12573 0.48395 0.0
C199 C 0.55012 0.1256 0.59413 0.0
H200 H 0.51031 1.00625 0.4283 0.0
H201 H 0.58465 0.04797 0.51448 0.0
H202 H 0.57762 0.24779 0.55817 0.0
H203 H 0.50438 0.21499 0.46862 0.0
C204 C 0.26347 0.45331 0.44001 0.0
N205 N 0.33277 0.51216 0.3592 0.0
C206 C 0.33503 0.53362 0.38605 0.0
C207 C 0.36009 0.55966 0.38634 0.0
C208 C 0.38297 0.56361 0.35866 0.0
C209 C 0.38041 0.54068 0.33295 0.0
C210 C 0.35501 0.51505 0.33369 0.0
Zn211 Zn 0.29511 0.47548 0.35273 0.0
C212 C 0.30538 0.42688 0.36398 0.0
N213 N 0.21615 0.39759 0.33375 0.0
C214 C 0.19383 0.39868 0.35267 0.0
C215 C 0.21167 0.3762 0.30444 0.0
C216 C 0.18397 0.35555 0.29196 0.0
C217 C 0.16077 0.35735 0.30899 0.0
C218 C 0.16603 0.37895 0.34044 0.0
Zn219 Zn 0.2557 0.43375 0.34299 0.0
O220 O 0.28689 0.47378 0.42575 0.0
C221 C 0.24885 0.48574 0.33609 0.0
O222 O 0.24771 0.43381 0.4122 0.0
H223 H 0.22953 0.37582 0.28905 0.0
H224 H 0.31712 0.53082 0.40619 0.0
H225 H 0.19753 0.41578 0.3757 0.0
O226 O 0.27498 0.49795 0.34499 0.0
O227 O 0.23517 0.45902 0.33064 0.0
H228 H 0.35276 0.49772 0.31256 0.0
O229 O 0.2636 0.43435 0.27318 0.0
O230 O 0.30069 0.47682 0.2792 0.0
O231 O 0.27872 0.41081 0.35769 0.0
O232 O 0.31611 0.45338 0.36188 0.0
C233 C 0.28356 0.4561 0.25423 0.0
H234 H 0.36132 0.57672 0.40714 0.0
H235 H 0.39736 0.54287 0.31073 0.0
H236 H 0.1808 0.33919 0.26754 0.0
H237 H 0.14876 0.38091 0.35478 0.0
C238 C 0.55634 0.80628 0.43292 0.0
N239 N 0.50571 0.8178 0.33399 0.0
C240 C 0.48231 0.79659 0.35456 0.0
C241 C 0.45632 0.79556 0.35084 0.0
C242 C 0.45436 0.81653 0.32566 0.0
C243 C 0.479 0.83856 0.3058 0.0
C244 C 0.50456 0.83875 0.31033 0.0
Zn245 Zn 0.5431 0.81781 0.3371 0.0
C246 C 0.58962 0.87615 0.3628 0.0
N247 N 0.6224 0.81876 0.34413 0.0
C248 C 0.62071 0.79511 0.36298 0.0
C249 C 0.64469 0.8361 0.31675 0.0
C250 C 0.66518 0.82883 0.30485 0.0
C251 C 0.66255 0.80313 0.32043 0.0
C252 C 0.64037 0.7868 0.35134 0.0
Zn253 Zn 0.5855 0.82112 0.34429 0.0
O254 O 0.53677 0.80651 0.40918 0.0
C255 C 0.53611 0.76263 0.32067 0.0
O256 O 0.57978 0.81267 0.41411 0.0
H257 H 0.64565 0.85467 0.30161 0.0
H258 H 0.48371 0.78022 0.37335 0.0
H259 H 0.60276 0.78132 0.38428 0.0
O260 O 0.52253 0.77577 0.3199 0.0
O261 O 0.56237 0.77591 0.33034 0.0
H262 H 0.52344 0.85541 0.29425 0.0
O263 O 0.59062 0.82912 0.27363 0.0
O264 O 0.54984 0.82734 0.26547 0.0
O265 O 0.60646 0.86627 0.36022 0.0
O266 O 0.56352 0.86025 0.35458 0.0
C267 C 0.57233 0.82997 0.24772 0.0
H268 H 0.43791 0.77841 0.36728 0.0
H269 H 0.47838 0.85498 0.28575 0.0
H270 H 0.68225 0.84277 0.28214 0.0
H271 H 0.63691 0.76674 0.36426 0.0
C272 C 0.21592 0.75633 0.42217 0.0
N273 N 0.20252 0.68956 0.33132 0.0
C274 C 0.2217 0.68656 0.35708 0.0
C275 C 0.2206 0.66049 0.35904 0.0
C276 C 0.19974 0.63743 0.33391 0.0
C277 C 0.18049 0.64122 0.30716 0.0
C278 C 0.18214 0.66753 0.30662 0.0
Zn279 Zn 0.20249 0.72691 0.33044 0.0
C280 C 0.14334 0.71382 0.35476 0.0
N281 N 0.1989 0.80421 0.32711 0.0
C282 C 0.22046 0.82665 0.34936 0.0
C283 C 0.18326 0.80849 0.29478 0.0
C284 C 0.19031 0.83599 0.28161 0.0
C285 C 0.2135 0.85964 0.30225 0.0
C286 C 0.22785 0.85442 0.33793 0.0
Zn287 Zn 0.19755 0.76527 0.33182 0.0
O288 O 0.21387 0.73443 0.40275 0.0
C289 C 0.2565 0.77508 0.30851 0.0
O290 O 0.20871 0.77186 0.40031 0.0
H291 H 0.16643 0.79064 0.27679 0.0
H292 H 0.23775 0.70433 0.37633 0.0
H293 H 0.23329 0.82323 0.37407 0.0
O294 O 0.24451 0.74856 0.31353 0.0
O295 O 0.24242 0.78771 0.31415 0.0
H296 H 0.16686 0.67023 0.28681 0.0
O297 O 0.18753 0.75873 0.26205 0.0
O298 O 0.19344 0.722 0.2584 0.0
O299 O 0.15234 0.74038 0.35143 0.0
O300 O 0.1601 0.70463 0.34704 0.0
C301 C 0.18872 0.73989 0.23826 0.0
H302 H 0.23607 0.65845 0.37962 0.0
H303 H 0.16403 0.6239 0.28757 0.0
H304 H 0.17855 0.83846 0.25363 0.0
H305 H 0.24535 0.8716 0.35602 0.0
C306 C 0.55638 0.73549 0.74751 0.0
N307 N 0.6225 0.80174 0.81959 0.0
C308 C 0.63779 0.80548 0.78034 0.0
C309 C 0.657 0.83278 0.76438 0.0
C310 C 0.66088 0.85673 0.78908 0.0
C311 C 0.64608 0.85205 0.83097 0.0
C312 C 0.62685 0.82448 0.84531 0.0
Zn313 Zn 0.58618 0.76302 0.83406 0.0
C314 C 0.53599 0.77304 0.84097 0.0
N315 N 0.50701 0.68781 0.8585 0.0
C316 C 0.50226 0.66552 0.8313 0.0
C317 C 0.48733 0.68572 0.88953 0.0
C318 C 0.46123 0.66076 0.89268 0.0
C319 C 0.4554 0.63781 0.86364 0.0
C320 C 0.47658 0.64026 0.83337 0.0
Zn321 Zn 0.54388 0.72492 0.84786 0.0
O322 O 0.57983 0.75463 0.76344 0.0
C323 C 0.59138 0.71202 0.84492 0.0
O324 O 0.5368 0.71948 0.77513 0.0
H325 H 0.49158 0.70366 0.91092 0.0
H326 H 0.63397 0.78738 0.75976 0.0
H327 H 0.5181 0.66759 0.80671 0.0
O328 O 0.60823 0.73857 0.83951 0.0
O329 O 0.56505 0.70259 0.84754 0.0
H330 H 0.61425 0.82147 0.87585 0.0
O331 O 0.55112 0.7325 0.92031 0.0
O332 O 0.59141 0.77089 0.90447 0.0
O333 O 0.52277 0.74682 0.84932 0.0
O334 O 0.56224 0.78533 0.831 0.0
C335 C 0.57305 0.755 0.93383 0.0
H336 H 0.66755 0.83495 0.7317 0.0
H337 H 0.64866 0.86953 0.85211 0.0
H338 H 0.44557 0.65966 0.91686 0.0
H339 H 0.47291 0.62334 0.80985 0.0
C340 C 0.28473 0.82441 0.7398 0.0
N341 N 0.21902 0.82014 0.81821 0.0
C342 C 0.21435 0.83581 0.78646 0.0
C343 C 0.18659 0.82844 0.77394 0.0
C344 C 0.16353 0.80438 0.7935 0.0
C345 C 0.16898 0.78933 0.8273 0.0
C346 C 0.19687 0.79774 0.83949 0.0
Zn347 Zn 0.25865 0.82413 0.8285 0.0
C348 C 0.25174 0.76476 0.83134 0.0
N349 N 0.33621 0.824 0.84665 0.0
C350 C 0.35752 0.84236 0.81854 0.0
C351 C 0.34035 0.80784 0.87795 0.0
C352 C 0.36669 0.8095 0.88121 0.0
C353 C 0.38888 0.8279 0.8519 0.0
C354 C 0.38408 0.84463 0.82056 0.0
Zn355 Zn 0.29782 0.82149 0.83917 0.0
O356 O 0.26522 0.82732 0.75797 0.0
C357 C 0.30817 0.88108 0.83999 0.0
O358 O 0.30207 0.82163 0.76552 0.0
H359 H 0.32312 0.79337 0.8999 0.0
H360 H 0.2321 0.85328 0.76936 0.0
H361 H 0.35389 0.85518 0.79408 0.0
O362 O 0.28144 0.87061 0.83537 0.0
O363 O 0.31839 0.86483 0.84113 0.0
H364 H 0.20077 0.78541 0.86459 0.0
O365 O 0.29093 0.81917 0.91278 0.0
O366 O 0.25201 0.82037 0.89842 0.0
O367 O 0.27811 0.77872 0.83825 0.0
O368 O 0.23824 0.77783 0.82379 0.0
C369 C 0.26814 0.81775 0.92704 0.0
H370 H 0.18323 0.84061 0.74772 0.0
H371 H 0.15179 0.77089 0.84362 0.0
H372 H 0.36941 0.79594 0.90548 0.0
H373 H 0.40067 0.85927 0.7977 0.0
C374 C 0.18879 0.4529 0.75397 0.0
N375 N 0.19912 0.39714 0.83849 0.0
C376 C 0.18254 0.37597 0.80861 0.0
C377 C 0.18986 0.35561 0.7958 0.0
C378 C 0.21473 0.35712 0.81332 0.0
C379 C 0.23053 0.37845 0.84582 0.0
C380 C 0.22231 0.39808 0.858 0.0
Zn381 Zn 0.19611 0.43363 0.84548 0.0
C382 C 0.25517 0.48499 0.82949 0.0
N383 N 0.19865 0.51301 0.85276 0.0
C384 C 0.1781 0.51451 0.82833 0.0
C385 C 0.21779 0.53521 0.87847 0.0
C386 C 0.21684 0.56028 0.87986 0.0
C387 C 0.19608 0.5625 0.85437 0.0
C388 C 0.17649 0.53918 0.82851 0.0
Zn389 Zn 0.19993 0.47637 0.84904 0.0
O390 O 0.18828 0.43244 0.77541 0.0
C391 C 0.14064 0.42832 0.86608 0.0
O392 O 0.1923 0.47441 0.77643 0.0
H393 H 0.23399 0.53359 0.89749 0.0
H394 H 0.16441 0.37564 0.79282 0.0
H395 H 0.16293 0.49654 0.80836 0.0
O396 O 0.15022 0.41138 0.86035 0.0
O397 O 0.15723 0.45466 0.86299 0.0
H398 H 0.2357 0.41525 0.88093 0.0
O399 O 0.20989 0.4779 0.92178 0.0
O400 O 0.20486 0.43555 0.91469 0.0
O401 O 0.24215 0.49849 0.83491 0.0
O402 O 0.24168 0.45811 0.83218 0.0
C403 C 0.21151 0.45727 0.93908 0.0
H404 H 0.1765 0.33934 0.77142 0.0
H405 H 0.25006 0.38112 0.86003 0.0
H406 H 0.23262 0.57796 0.89974 0.0
H407 H 0.16005 0.53998 0.80871 0.0
C408 C 0.92991 0.7895 0.76635 0.0
N409 N 0.99907 0.84901 0.68539 0.0
C410 C 1.00028 0.87108 0.7091 0.0
C411 C 0.02501 0.89744 0.7086 0.0
C412 C 0.04863 0.90113 0.68325 0.0
C413 C 0.04708 0.87762 0.66084 0.0
C414 C 0.02204 0.85169 0.66239 0.0
Zn415 Zn 0.96202 0.81164 0.67859 0.0
C416 C 0.97369 0.76395 0.69395 0.0
N417 N 0.88472 0.73198 0.65964 0.0
C418 C 0.86199 0.72951 0.68329 0.0
C419 C 0.88086 0.71458 0.62324 0.0
C420 C 0.85353 0.69527 0.60756 0.0
C421 C 0.82963 0.69339 0.62977 0.0
C422 C 0.83436 0.71017 0.66933 0.0
Zn423 Zn 0.92356 0.7688 0.6703 0.0
O424 O 0.95201 0.81096 0.75053 0.0
C425 C 0.91464 0.81916 0.65716 0.0
O426 O 0.91531 0.76853 0.74012 0.0
H427 H 0.89895 0.71686 0.60428 0.0
H428 H 0.98179 0.86846 0.72723 0.0
H429 H 0.86508 0.7438 0.71141 0.0
O430 O 0.94101 0.83295 0.66441 0.0
O431 O 0.90161 0.79227 0.65802 0.0
H432 H 0.02064 0.83391 0.64368 0.0
O433 O 0.93218 0.77023 0.59985 0.0
O434 O 0.96981 0.81218 0.60656 0.0
O435 O 0.94755 0.74714 0.68468 0.0
O436 O 0.98348 0.79038 0.69308 0.0
C437 C 0.95277 0.79165 0.58137 0.0
H438 H 0.0254 0.9149 0.727 0.0
H439 H 0.06455 0.87948 0.64042 0.0
H440 H 0.85138 0.68316 0.5767 0.0
H441 H 0.81692 0.70918 0.68866 0.0
C442 C 0.22772 0.14029 0.75646 0.0
N443 N 0.17355 0.15546 0.67029 0.0
C444 C 0.15158 0.13605 0.69608 0.0
C445 C 0.12656 0.13705 0.69915 0.0
C446 C 0.12406 0.15803 0.67504 0.0
C447 C 0.14695 0.17766 0.64847 0.0
C448 C 0.1717 0.17612 0.64687 0.0
Zn449 Zn 0.21059 0.15474 0.66664 0.0
C450 C 0.25827 0.2128 0.69062 0.0
N451 N 0.29013 0.15543 0.65814 0.0
C452 C 0.29099 0.13414 0.68133 0.0
C453 C 0.30978 0.17029 0.62504 0.0
C454 C 0.33009 0.16288 0.61248 0.0
C455 C 0.33069 0.14014 0.63456 0.0
C456 C 0.31127 0.12649 0.67065 0.0
Zn457 Zn 0.25325 0.158 0.66472 0.0
O458 O 0.20755 0.14245 0.73846 0.0
C459 C 0.20268 0.09992 0.64339 0.0
O460 O 0.24998 0.14739 0.73328 0.0
H461 H 0.30876 0.18688 0.60626 0.0
H462 H 0.15343 0.11975 0.71427 0.0
H463 H 0.2749 0.12181 0.7065 0.0
O464 O 0.18906 0.11286 0.64846 0.0
O465 O 0.22946 0.11318 0.64827 0.0
H466 H 0.18952 0.19156 0.62697 0.0
O467 O 0.25549 0.16776 0.59498 0.0
O468 O 0.21398 0.16488 0.59494 0.0
O469 O 0.27497 0.20303 0.68379 0.0
O470 O 0.23191 0.19692 0.68517 0.0
C471 C 0.23572 0.16844 0.5731 0.0
H472 H 0.10918 0.1213 0.71956 0.0
H473 H 0.14585 0.19422 0.62963 0.0
H474 H 0.34416 0.17407 0.58407 0.0
H475 H 0.31103 0.10937 0.68984 0.0
C476 C 0.8676 0.08829 0.7678 0.0
N477 N 0.86535 0.02091 0.69179 0.0
C478 C 0.88305 0.01861 0.72232 0.0
C479 C 0.88405 0.99357 0.72484 0.0
C480 C 0.86668 0.9708 0.69564 0.0
C481 C 0.8478 0.97345 0.66599 0.0
C482 C 0.84752 0.99877 0.66457 0.0
Zn483 Zn 0.86591 0.05815 0.68174 0.0
C484 C 0.80568 0.04567 0.67912 0.0
N485 N 0.86486 0.13539 0.65443 0.0
C486 C 0.88342 0.15788 0.6805 0.0
C487 C 0.853 0.1395 0.61588 0.0
C488 C 0.86078 0.16695 0.60115 0.0
C489 C 0.88088 0.19065 0.62636 0.0
C490 C 0.89147 0.18556 0.66739 0.0
Zn491 Zn 0.86221 0.09649 0.66788 0.0
O492 O 0.8669 0.06573 0.75436 0.0
C493 C 0.92228 0.10583 0.67376 0.0
O494 O 0.86505 0.1041 0.73839 0.0
H495 H 0.83861 0.12161 0.59499 0.0
H496 H 0.89697 0.03645 0.74374 0.0
H497 H 0.89328 0.15458 0.71044 0.0
O498 O 0.9089 0.07963 0.68224 0.0
O499 O 0.90861 0.11851 0.66439 0.0
H500 H 0.83366 1.00102 0.64038 0.0
O501 O 0.85989 0.08841 0.59724 0.0
O502 O 0.86693 0.05271 0.60882 0.0
O503 O 0.81558 0.07222 0.67329 0.0
O504 O 0.82243 0.0361 0.6822 0.0
C505 C 0.86364 0.06894 0.58126 0.0
H506 H 0.89873 0.9923 0.74856 0.0
H507 H 0.83435 0.95666 0.64238 0.0
H508 H 0.85208 0.16945 0.56903 0.0
H509 H 0.90645 0.20283 0.68884 0.0
C510 C 0.22831 0.07098 0.07299 0.0
N511 N 0.29069 0.13733 0.15042 0.0
C512 C 0.30762 0.14058 0.11359 0.0
C513 C 0.32741 0.16768 0.09768 0.0
C514 C 0.33017 0.19187 0.12004 0.0
C515 C 0.31388 0.18773 0.15998 0.0
C516 C 0.29409 0.16037 0.17421 0.0
Zn517 Zn 0.25304 0.09944 0.16179 0.0
C518 C 0.20427 0.1114 0.14959 0.0
N519 N 0.17135 0.02659 0.17841 0.0
C520 C 0.16724 1.0035 0.15412 0.0
C521 C 0.15086 0.02558 0.20637 0.0
C522 C 0.1248 1.00069 0.21 0.0
C523 C 0.11972 0.97672 0.18427 0.0
C524 C 0.1415 0.97832 0.1564 0.0
Zn525 Zn 0.20919 0.06276 0.17047 0.0
O526 O 0.25063 0.0904 0.09156 0.0
C527 C 0.25504 0.04764 0.18309 0.0
O528 O 0.2073 0.05499 0.09823 0.0
H529 H 0.15465 0.04415 0.22554 0.0
H530 H 0.30455 0.12225 0.09448 0.0
H531 H 0.18387 1.00466 0.13231 0.0
O532 O 0.2731 0.07369 0.17562 0.0
O533 O 0.2289 0.03952 0.18234 0.0
H534 H 0.28015 0.15782 0.20257 0.0
O535 O 0.21132 0.07286 0.24269 0.0
O536 O 0.25436 0.10827 0.23139 0.0
O537 O 0.1892 0.08531 0.15816 0.0
O538 O 0.23112 0.12299 0.14924 0.0
C539 C 0.23342 0.09453 0.25802 0.0
H540 H 0.3392 0.16947 0.06656 0.0
H541 H 0.31556 0.20545 0.17936 0.0
H542 H 0.10879 1.00029 0.23257 0.0
H543 H 0.13849 0.96058 0.13551 0.0
C544 C 0.94293 0.16442 0.0816 0.0
N545 N 0.88096 0.15297 0.1769 0.0
C546 C 0.8762 0.17019 0.14884 0.0
C547 C 0.84848 0.16315 0.13693 0.0
C548 C 0.82524 0.13793 0.1535 0.0
C549 C 0.83089 0.12168 0.1849 0.0
C550 C 0.85885 0.12964 0.19624 0.0
Zn551 Zn 0.92021 0.1551 0.17775 0.0
C552 C 0.91101 0.09665 0.15328 0.0
N553 N 0.99659 0.15161 0.16867 0.0
C554 C 0.01896 0.17306 0.14627 0.0
C555 C 0.99862 0.13011 0.18842 0.0
C556 C 0.02373 0.12934 0.18524 0.0
C557 C 0.047 0.15094 0.1616 0.0
C558 C 0.04451 0.17319 0.14245 0.0
Zn559 Zn 0.95929 0.15172 0.17124 0.0
O560 O 0.92364 0.16351 0.10716 0.0
C561 C 0.97144 0.21002 0.19795 0.0
O562 O 0.96267 0.16174 0.09976 0.0
H563 H 0.98062 0.11335 0.20623 0.0
H564 H 0.8939 0.18847 0.13324 0.0
H565 H 0.01688 0.18993 0.13075 0.0
O566 O 0.94475 0.20035 0.19467 0.0
O567 O 0.98146 0.194 0.18969 0.0
H568 H 0.86284 0.11586 0.21788 0.0
O569 O 0.95375 0.13988 0.24305 0.0
O570 O 0.91698 0.14619 0.24747 0.0
O571 O 0.93774 0.10981 0.15315 0.0
O572 O 0.89794 0.10984 0.16297 0.0
C573 C 0.93383 0.13958 0.26647 0.0
H574 H 0.84545 0.1769 0.1136 0.0
H575 H 0.81405 0.10196 0.1985 0.0
H576 H 0.02489 0.11196 0.201 0.0
H577 H 0.06184 0.19008 0.12355 0.0
C578 C 0.85896 0.78732 0.08596 0.0
N579 N 0.86533 0.72979 0.17246 0.0
C580 C 0.85198 0.7121 0.13622 0.0
C581 C 0.86095 0.69362 0.12026 0.0
C582 C 0.88348 0.69279 0.1423 0.0
C583 C 0.89521 0.70943 0.182 0.0
C584 C 0.886 0.72805 0.19625 0.0
Zn585 Zn 0.86251 0.76634 0.18023 0.0
C586 C 0.92131 0.81751 0.17304 0.0
N587 N 0.864 0.84548 0.18427 0.0
C588 C 0.84488 0.84837 0.15801 0.0
C589 C 0.88328 0.86715 0.21076 0.0
C590 C 0.88448 0.89328 0.21017 0.0
C591 C 0.86567 0.89716 0.18203 0.0
C592 C 0.84531 0.87411 0.15644 0.0
Zn593 Zn 0.8645 0.80838 0.18067 0.0
O594 O 0.85805 0.76706 0.1087 0.0
C595 C 0.80557 0.75995 0.19314 0.0
O596 O 0.86092 0.80848 0.10746 0.0
H597 H 0.89821 0.86439 0.23154 0.0
H598 H 0.8357 0.71369 0.11742 0.0
H599 H 0.82973 0.83088 0.13718 0.0
O600 O 0.81654 0.74404 0.19066 0.0
O601 O 0.82107 0.78641 0.18855 0.0
H602 H 0.89694 0.74262 0.22423 0.0
O603 O 0.8702 0.80823 0.2538 0.0
O604 O 0.86769 0.76671 0.25116 0.0
O605 O 0.90742 0.83033 0.17442 0.0
O606 O 0.90835 0.79062 0.17301 0.0
C607 C 0.87143 0.78814 0.27402 0.0
H608 H 0.85106 0.68087 0.08985 0.0
H609 H 0.91268 0.70953 0.19994 0.0
H610 H 0.90029 0.91042 0.23093 0.0
H611 H 0.83062 0.87624 0.13392 0.0
H612 H 0.59936 0.197 0.92323 0.0
H613 H 0.53132 0.14349 0.01553 0.0
H614 H 0.58472 0.23237 0.92602 0.0
H615 H 0.5169 0.17943 0.01938 0.0
H616 H 0.49462 0.25097 -0.00808 0.0
H617 H 0.50034 0.20985 0.97778 0.0
H618 H 0.59077 0.26274 -0.00647 0.0
H619 H 0.58522 0.30362 0.0063 0.0
C620 C 0.58073 0.19253 0.94307 0.0
C621 C 0.56653 0.16776 0.96941 0.0
C622 C 0.57253 0.21286 0.94506 0.0
C623 C 0.55021 0.20897 0.97397 0.0
C624 C 0.53426 0.18298 -0.00305 0.0
C625 C 0.54237 0.16238 -0.00542 0.0
C626 C 0.51569 0.25372 -0.00771 0.0
C627 C 0.5395 0.28054 0.00013 0.0
C628 C 0.51891 0.2302 0.98441 0.0
C629 C 0.546 0.23322 0.98376 0.0
C630 C 0.56965 0.25988 -0.00718 0.0
C631 C 0.56644 0.28324 0.00087 0.0
H632 H 0.71509 0.28435 0.00139 0.0
H633 H 0.77006 0.2492 0.01834 0.0
H634 H 0.756 0.33165 0.00118 0.0
H635 H 0.81138 0.29709 0.01699 0.0
H636 H 0.87207 0.39451 0.9595 0.0
H637 H 0.83662 0.34356 0.95992 0.0
H638 H 0.79101 0.35796 0.06844 0.0
H639 H 0.82568 0.40797 0.06793 0.0
C640 C 0.73588 0.28668 0.00534 0.0
C641 C 0.73921 0.26297 0.01088 0.0
C642 C 0.75933 0.31379 0.00484 0.0
C643 C 0.78676 0.31794 0.00957 0.0
C644 C 0.79041 0.29436 0.01319 0.0
C645 C 0.76678 0.26704 0.014 0.0
C646 C 0.85477 0.3865 0.98401 0.0
C647 C 0.85122 0.40511 0.01303 0.0
C648 C 0.83457 0.35751 0.98424 0.0
C649 C 0.81085 0.34712 0.01355 0.0
C650 C 0.80874 0.36555 0.04483 0.0
C651 C 0.82862 0.39416 0.04451 0.0
H652 H 0.63138 0.49136 0.96309 0.0
H653 H 0.61882 0.42824 0.06471 0.0
H654 H 0.683 0.51225 0.97116 0.0
H655 H 0.66952 0.44875 0.07287 0.0
H656 H 0.76104 0.49627 0.09907 0.0
H657 H 0.71373 0.49055 0.09829 0.0
H658 H 0.71553 0.49355 0.94904 0.0
H659 H 0.7627 0.49915 0.9497 0.0
C660 C 0.63968 0.48239 0.9877 0.0
C661 C 0.62132 0.45808 0.01286 0.0
C662 C 0.66907 0.49418 -0.00779 0.0
C663 C 0.68028 0.48212 0.02268 0.0
C664 C 0.66166 0.45879 0.04957 0.0
C665 C 0.63259 0.44685 0.04454 0.0
C666 C 0.75143 0.49594 0.06612 0.0
C667 C 0.76546 0.49773 0.02446 0.0
C668 C 0.72444 0.49286 0.06568 0.0
C669 C 0.71087 0.49143 0.02357 0.0
C670 C 0.72557 0.49495 0.98202 0.0
C671 C 0.75257 0.49803 0.98245 0.0
H672 H 0.75406 0.50006 0.58562 0.0
H673 H 0.75626 0.4979 0.4364 0.0
H674 H 0.79625 0.49551 0.58929 0.0
H675 H 0.79852 0.49337 0.44014 0.0
H676 H 0.88155 0.49346 0.46335 0.0
H677 H 0.85004 0.51371 0.46505 0.0
H678 H 0.79905 0.45293 0.56957 0.0
H679 H 0.82997 0.43298 0.56748 0.0
C680 C 0.76371 0.49888 0.5536 0.0
C681 C 0.75151 0.49878 0.51076 0.0
C682 C 0.78796 0.49646 0.5557 0.0
C683 C 0.80052 0.49381 0.51501 0.0
C684 C 0.78948 0.49565 0.47207 0.0
C685 C 0.76519 0.49811 0.46996 0.0
C686 C 0.86392 0.48503 0.48726 0.0
C687 C 0.85795 0.46165 0.51508 0.0
C688 C 0.84586 0.49642 0.48808 0.0
C689 C 0.82211 0.48492 0.5175 0.0
C690 C 0.81732 0.46255 0.54699 0.0
C691 C 0.83491 0.45097 0.54556 0.0
H692 H 0.58988 0.28604 0.50608 0.0
H693 H 0.49908 0.24905 0.51476 0.0
H694 H 0.5953 0.33291 0.50571 0.0
H695 H 0.50471 0.29653 0.51325 0.0
H696 H 0.54089 0.39301 0.45346 0.0
H697 H 0.52596 0.34227 0.45706 0.0
H698 H 0.58478 0.35936 0.56898 0.0
H699 H 0.5997 0.40929 0.56504 0.0
C700 C 0.57106 0.28788 0.5083 0.0
C701 C 0.54409 0.26377 0.51136 0.0
C702 C 0.57417 0.31474 0.50778 0.0
C703 C 0.55042 0.31826 0.51003 0.0
C704 C 0.52332 0.29429 0.51145 0.0
C705 C 0.52017 0.26721 0.5123 0.0
C706 C 0.54995 0.3856 0.47945 0.0
C707 C 0.57171 0.40487 0.50843 0.0
C708 C 0.5415 0.35674 0.48151 0.0
C709 C 0.55474 0.34718 0.51265 0.0
C710 C 0.57472 0.3663 0.54401 0.0
C711 C 0.58319 0.39482 0.54179 0.0
H712 H 0.63388 0.14675 0.52361 0.0
H713 H 0.61873 0.19487 0.42079 0.0
H714 H 0.68419 0.18313 0.52538 0.0
H715 H 0.66871 0.23063 0.42147 0.0
H716 H 0.73835 0.30601 0.49807 0.0
H717 H 0.69243 0.26425 0.48568 0.0
H718 H 0.73133 0.21217 0.48339 0.0
H719 H 0.77765 0.25425 0.49697 0.0
C720 C 0.64161 0.16445 0.49995 0.0
C721 C 0.62268 0.16828 0.47226 0.0
C722 C 0.67029 0.18531 0.50109 0.0
C723 C 0.68013 0.21002 0.4744 0.0
C724 C 0.66155 0.21216 0.44324 0.0
C725 C 0.63305 0.19159 0.44247 0.0
C726 C 0.73715 0.28566 0.49546 0.0
C727 C 0.7616 0.28343 0.49858 0.0
C728 C 0.71089 0.26177 0.48767 0.0
C729 C 0.70838 0.23501 0.48278 0.0
C730 C 0.7327 0.23255 0.48681 0.0
C731 C 0.75914 0.25661 0.49436 0.0
H732 H 0.20143 0.60914 0.41007 0.0
H733 H 0.19473 0.60315 0.26124 0.0
H734 H 0.20548 0.56668 0.41245 0.0
H735 H 0.19932 0.5608 0.26352 0.0
H736 H 0.20039 0.47731 0.29089 0.0
H737 H 0.18095 0.50957 0.29177 0.0
H738 H 0.24735 0.56476 0.38569 0.0
H739 H 0.26632 0.53331 0.38487 0.0
C740 C 0.20057 0.59855 0.37793 0.0
C741 C 0.19839 0.60971 0.33544 0.0
C742 C 0.20272 0.5742 0.37926 0.0
C743 C 0.2031 0.56069 0.3381 0.0
C744 C 0.19889 0.57066 0.29577 0.0
C745 C 0.19647 0.59498 0.29447 0.0
C746 C 0.21046 0.49622 0.31195 0.0
C747 C 0.23499 0.50298 0.33736 0.0
C748 C 0.19946 0.51464 0.3124 0.0
C749 C 0.21252 0.53954 0.33915 0.0
C750 C 0.23648 0.54557 0.3654 0.0
C751 C 0.24756 0.52763 0.36444 0.0
H752 H 0.54345 0.72326 0.36744 0.0
H753 H 0.49186 0.73272 0.26377 0.0
H754 H 0.50804 0.67295 0.37467 0.0
H755 H 0.45706 0.68269 0.26995 0.0
H756 H 0.38411 0.6137 0.34979 0.0
H757 H 0.42466 0.66004 0.33532 0.0
H758 H 0.47975 0.6245 0.33786 0.0
H759 H 0.4389 0.57778 0.35394 0.0
C760 C 0.52511 0.71431 0.34494 0.0
C761 C 0.52009 0.73176 0.31546 0.0
C762 C 0.50482 0.68561 0.34919 0.0
C763 C 0.47947 0.67416 0.32376 0.0
C764 C 0.47603 0.69114 0.29092 0.0
C765 C 0.49604 0.71969 0.28706 0.0
C766 C 0.40487 0.61573 0.34809 0.0
C767 C 0.40827 0.59205 0.35314 0.0
C768 C 0.42809 0.64224 0.33901 0.0
C769 C 0.45532 0.64578 0.33457 0.0
C770 C 0.45898 0.62232 0.34088 0.0
C771 C 0.43561 0.59563 0.34986 0.0
H772 H 0.44149 0.85919 0.32873 0.0
H773 H 0.4043 0.76943 0.30553 0.0
H774 H 0.39525 0.85525 0.31587 0.0
H775 H 0.35839 0.76537 0.29438 0.0
H776 H 0.28316 0.76311 0.2418 0.0
H777 H 0.33334 0.7781 0.23943 0.0
H778 H 0.3484 0.83434 0.35459 0.0
H779 H 0.29802 0.81995 0.3555 0.0
C780 C 0.42349 0.83868 0.32075 0.0
C781 C 0.42651 0.81458 0.31835 0.0
C782 C 0.39704 0.83642 0.31367 0.0
C783 C 0.37321 0.81008 0.3036 0.0
C784 C 0.37638 0.78611 0.30111 0.0
C785 C 0.40266 0.78834 0.30827 0.0
C786 C 0.29745 0.77947 0.26541 0.0
C787 C 0.28695 0.79039 0.29887 0.0
C788 C 0.32608 0.78782 0.26445 0.0
C789 C 0.34468 0.80679 0.29767 0.0
C790 C 0.3346 0.81968 0.32854 0.0
C791 C 0.30583 0.81157 0.32901 0.0
H792 H 0.49343 0.7603 0.90011 0.0
H793 H 0.54361 0.8205 0.79447 0.0
H794 H 0.4634 0.781 0.90529 0.0
H795 H 0.51304 0.84168 0.79972 0.0
H796 H 0.42022 0.82871 0.77766 0.0
H797 H 0.46193 0.8233 0.77813 0.0
H798 H 0.46142 0.8232 0.9275 0.0
H799 H 0.41955 0.82844 0.92704 0.0
C800 C 0.49822 0.77828 0.87829 0.0
C801 C 0.52059 0.7886 0.84642 0.0
C802 C 0.48117 0.79037 0.88167 0.0
C803 C 0.48588 0.81303 0.85303 0.0
C804 C 0.50893 0.82416 0.82215 0.0
C805 C 0.52642 0.81218 0.81922 0.0
C806 C 0.42943 0.82824 0.81061 0.0
C807 C 0.41634 0.82851 0.85236 0.0
C808 C 0.45342 0.82529 0.81084 0.0
C809 C 0.46477 0.82256 0.85282 0.0
C810 C 0.45284 0.82481 0.89458 0.0
C811 C 0.42881 0.82766 0.89435 0.0
H812 H 0.20183 0.59669 0.9272 0.0
H813 H 0.1895 0.58909 0.7792 0.0
H814 H 0.20813 0.64412 0.92416 0.0
H815 H 0.19597 0.63668 0.77618 0.0
H816 H 0.20092 0.72364 0.79407 0.0
H817 H 0.18007 0.67202 0.80215 0.0
H818 H 0.24996 0.68564 0.88966 0.0
H819 H 0.27043 0.73608 0.88167 0.0
C820 C 0.20016 0.60505 0.89413 0.0
C821 C 0.19573 0.58944 0.85336 0.0
C822 C 0.20358 0.63209 0.8924 0.0
C823 C 0.20286 0.64417 0.84984 0.0
C824 C 0.1964 0.62781 0.80947 0.0
C825 C 0.19285 0.60064 0.81122 0.0
C826 C 0.21152 0.71539 0.81525 0.0
C827 C 0.23741 0.7338 0.83675 0.0
C828 C 0.19968 0.68601 0.81983 0.0
C829 C 0.2133 0.67489 0.84689 0.0
C830 C 0.2387 0.69349 0.86926 0.0
C831 C 0.25061 0.72248 0.86415 0.0
H832 H 0.29512 0.47609 0.87105 0.0
H833 H 0.2844 0.5318 0.77804 0.0
H834 H 0.34547 0.51158 0.87948 0.0
H835 H 0.33435 0.56672 0.78545 0.0
H836 H 0.40496 0.63661 0.86597 0.0
H837 H 0.35803 0.59636 0.85369 0.0
H838 H 0.39347 0.54152 0.84104 0.0
H839 H 0.44079 0.58196 0.85494 0.0
C840 C 0.30381 0.49542 0.85105 0.0
C841 C 0.28604 0.50144 0.82419 0.0
C842 C 0.3325 0.51577 0.85607 0.0
C843 C 0.34358 0.5422 0.83411 0.0
C844 C 0.32621 0.54688 0.80383 0.0
C845 C 0.29772 0.5268 0.79917 0.0
C846 C 0.40281 0.61594 0.86159 0.0
C847 C 0.42666 0.61255 0.86133 0.0
C848 C 0.37593 0.59291 0.85379 0.0
C849 C 0.37218 0.5659 0.84539 0.0
C850 C 0.39579 0.56214 0.84712 0.0
C851 C 0.42283 0.5853 0.85484 0.0
H852 H 0.91595 0.9697 0.6962 0.0
H853 H 0.82537 0.91502 0.68637 0.0
H854 H 0.92258 0.92961 0.68216 0.0
H855 H 0.83218 0.87475 0.67062 0.0
H856 H 0.86562 0.80956 0.69859 0.0
H857 H 0.85046 0.84473 0.70759 0.0
H858 H 0.91628 0.90038 0.61336 0.0
H859 H 0.93167 0.86577 0.60551 0.0
C860 C 0.8974 0.94905 0.6917 0.0
C861 C 0.87014 0.94559 0.69233 0.0
C862 C 0.90122 0.92612 0.68285 0.0
C863 C 0.8779 0.89917 0.67425 0.0
C864 C 0.85052 0.89533 0.67682 0.0
C865 C 0.84667 0.91839 0.68561 0.0
C866 C 0.87607 0.82891 0.67863 0.0
C867 C 0.89988 0.83522 0.65167 0.0
C868 C 0.86755 0.84908 0.68397 0.0
C869 C 0.88275 0.87557 0.66218 0.0
C870 C 0.90472 0.88047 0.63161 0.0
C871 C 0.91333 0.86058 0.62669 0.0
H872 H 0.20984 0.06003 0.68818 0.0
H873 H 0.15786 0.07089 0.58719 0.0
H874 H 0.17391 0.01 0.69574 0.0
H875 H 0.12258 0.02096 0.59309 0.0
H876 H 0.04936 0.95088 0.67004 0.0
H877 H 0.08974 0.99712 0.65481 0.0
H878 H 0.14539 0.96234 0.6632 0.0
H879 H 0.1048 0.91593 0.68085 0.0
C880 C 0.1913 0.05137 0.66616 0.0
C881 C 0.18638 0.06914 0.63733 0.0
C882 C 0.17066 0.0228 0.67062 0.0
C883 C 0.14504 0.01173 0.64595 0.0
C884 C 0.14167 0.02905 0.61366 0.0
C885 C 0.16199 0.05753 0.60978 0.0
C886 C 0.0702 0.95307 0.66952 0.0
C887 C 0.07378 0.92965 0.67681 0.0
C888 C 0.09337 0.97954 0.65986 0.0
C889 C 0.12077 0.98333 0.65684 0.0
C890 C 0.12455 0.96009 0.66512 0.0
C891 C 0.10128 0.9335 0.67494 0.0
H892 H 0.9622 0.15396 0.6284 0.0
H893 H 0.95243 0.09091 0.7283 0.0
H894 H 0.01393 0.17414 0.63116 0.0
H895 H 1.003 0.11044 0.73073 0.0
H896 H 0.09392 0.15549 0.75159 0.0
H897 H 0.04713 0.15086 0.75449 0.0
H898 H 0.04702 0.15734 0.60557 0.0
H899 H 0.09426 0.16271 0.60291 0.0
C900 C 0.97111 0.14476 0.65134 0.0
C901 C 0.95337 0.12075 0.67774 0.0
C902 C 1.00058 0.15615 0.65278 0.0
C903 C 1.01256 0.14395 0.68132 0.0
C904 C 0.99464 0.12071 0.70898 0.0
C905 C 0.96553 0.10928 0.70716 0.0
C906 C 0.08402 0.1563 0.71958 0.0
C907 C 0.09741 0.15891 0.677 0.0
C908 C 0.0573 0.15373 0.72118 0.0
C909 C 0.04319 0.15329 0.68018 0.0
C910 C 0.0574 0.1578 0.63777 0.0
C911 C 0.08434 0.16068 0.63622 0.0
H912 H 0.16877 0.10257 0.07925 0.0
H913 H 0.20559 0.15389 0.20064 0.0
H914 H 0.13342 0.11738 0.07593 0.0
H915 H 0.16954 0.16817 0.19853 0.0
H916 H 0.10212 0.1938 0.1699 0.0
H917 H 0.14509 0.19082 0.15881 0.0
H918 H 0.09355 0.10175 0.1286 0.0
H919 H 0.05104 0.10489 0.13837 0.0
C920 C 0.16977 0.11782 0.10428 0.0
C921 C 0.18975 0.12726 0.14006 0.0
C922 C 0.1494 0.12603 0.10277 0.0
C923 C 0.14829 0.14337 0.13763 0.0
C924 C 0.1699 0.15484 0.17114 0.0
C925 C 0.19058 0.14681 0.17231 0.0
C926 C 0.10009 0.17369 0.16043 0.0
C927 C 0.07322 0.14953 0.1552 0.0
C928 C 0.12465 0.17198 0.15432 0.0
C929 C 0.12272 0.14615 0.14234 0.0
C930 C 0.09581 0.12211 0.13691 0.0
C931 C 0.0714 0.12379 0.14322 0.0
H932 H 0.91453 0.9474 0.17323 0.0
H933 H 0.82377 0.91115 0.17764 0.0
H934 H 0.9202 0.99387 0.16083 0.0
H935 H 0.82951 0.95804 0.1638 0.0
H936 H 0.8643 0.0562 0.19893 0.0
H937 H 0.84955 1.0058 0.20323 0.0
H938 H 0.91052 0.01788 0.09758 0.0
H939 H 0.92558 0.06794 0.09428 0.0
C940 C 0.89576 0.94938 0.17191 0.0
C941 C 0.86871 0.92558 0.17658 0.0
C942 C 0.89899 0.97598 0.16406 0.0
C943 C 0.87526 0.97954 0.16056 0.0
C944 C 0.84815 0.9559 0.16617 0.0
C945 C 0.84489 0.9291 0.17385 0.0
C946 C 0.87377 0.04776 0.17561 0.0
C947 C 0.89624 0.06585 0.14664 0.0
C948 C 0.86545 0.01899 0.17817 0.0
C949 C 0.87943 1.00812 0.1516 0.0
C950 C 0.89991 0.02582 0.11939 0.0
C951 C 0.90835 0.05441 0.11718 0.0
H952 H 0.10741 0.92129 0.18208 0.0
H953 H 0.06809 0.97309 0.1864 0.0
H954 H 0.06054 0.87872 0.18102 0.0
H955 H 0.02177 0.9308 0.18677 0.0
H956 H 0.9468 0.85494 0.24046 0.0
H957 H 0.99645 0.89091 0.24575 0.0
H958 H 0.01471 0.8556 0.12592 0.0
H959 H 0.9643 0.81882 0.12103 0.0
C960 C 0.08887 0.92364 0.18271 0.0
C961 C 0.09153 0.95065 0.18481 0.0
C962 C 0.06212 0.89928 0.18214 0.0
C963 C 0.03769 0.90157 0.18427 0.0
C964 C 0.04035 0.92848 0.18595 0.0
C965 C 0.06692 0.95271 0.18606 0.0
C966 C 0.96154 0.85447 0.21585 0.0
C967 C 0.95194 0.8345 0.18002 0.0
C968 C 0.98986 0.87507 0.21879 0.0
C969 C 1.00917 0.87631 0.18569 0.0
C970 C 1.00009 0.85501 0.15179 0.0
C971 C 0.97143 0.83406 0.14897 0.0
H972 H 0.54838 0.17 0.35551 0.0
H973 H 0.50711 0.07887 0.35068 0.0
H974 H 0.5634 0.17237 0.27515 0.0
H975 H 0.52266 0.0812 0.27165 0.0
H976 H 0.61988 0.1625 0.16299 0.0
H977 H 0.59858 0.16394 0.23687 0.0
H978 H 0.51917 0.09226 0.19396 0.0
H979 H 0.54049 0.08998 0.12222 0.0
C980 C 0.54177 0.15048 0.33687 0.0
C981 C 0.52669 0.12424 0.35934 0.0
C982 C 0.55078 0.15187 0.29117 0.0
C983 C 0.54464 0.12703 0.26728 0.0
C984 C 0.52765 0.10077 0.28881 0.0
C985 C 0.51869 0.0994 0.33423 0.0
C986 C 0.59796 0.14701 0.16969 0.0
C987 C 0.58209 0.12581 0.13722 0.0
C988 C 0.58563 0.14804 0.21162 0.0
C989 C 0.55718 0.12809 0.22134 0.0
C990 C 0.54125 0.10757 0.18805 0.0
C991 C 0.55358 0.10628 0.14682 0.0
H992 H 0.85866 0.39431 0.35589 0.0
H993 H 0.94824 0.4533 0.36994 0.0
H994 H 0.8594 0.4134 0.27905 0.0
H995 H 0.94866 0.47312 0.29521 0.0
H996 H 0.86436 0.47672 0.17027 0.0
H997 H 0.86381 0.45617 0.24572 0.0
H998 H 0.94534 0.46465 0.21593 0.0
H999 H 0.9466 0.48635 0.1427 0.0
C1000 C 0.87855 0.41094 0.34228 0.0
C1001 C 0.90336 0.42233 0.36896 0.0
C1002 C 0.87888 0.42221 0.2987 0.0
C1003 C 0.90399 0.44506 0.28131 0.0
C1004 C 0.92899 0.45539 0.30722 0.0
C1005 C 0.92873 0.44399 0.35026 0.0
C1006 C 0.88241 0.4748 0.18051 0.0
C1007 C 0.90553 0.48324 0.15062 0.0
C1008 C 0.88189 0.46257 0.22329 0.0
C1009 C 0.9044 0.45848 0.2366 0.0
C1010 C 0.92779 0.46775 0.20712 0.0
C1011 C 0.92847 0.48021 0.16494 0.0
H1012 H 0.59622 0.51639 0.34132 0.0
H1013 H 0.61814 0.45163 0.36372 0.0
H1014 H 0.57696 0.49645 0.26568 0.0
H1015 H 0.59684 0.43008 0.29019 0.0
H1016 H 0.57319 0.40856 0.13902 0.0
H1017 H 0.59663 0.42971 0.21149 0.0
H1018 H 0.53717 0.45907 0.23473 0.0
H1019 H 0.51544 0.43982 0.15999 0.0
C1020 C 0.59728 0.49811 0.32952 0.0
C1021 C 0.60884 0.48566 0.35785 0.0
C1022 C 0.5857 0.48626 0.28666 0.0
C1023 C 0.58454 0.4611 0.27206 0.0
C1024 C 0.59748 0.44954 0.29973 0.0
C1025 C 0.60985 0.46195 0.34193 0.0
C1026 C 0.56479 0.419 0.16026 0.0
C1027 C 0.54244 0.42247 0.14431 0.0
C1028 C 0.5783 0.43126 0.20185 0.0
C1029 C 0.56922 0.44662 0.22896 0.0
C1030 C 0.5455 0.44834 0.21417 0.0
C1031 C 0.53259 0.43682 0.17184 0.0
H1032 H 0.84687 0.45178 0.87455 0.0
H1033 H 0.93146 0.51935 0.84557 0.0
H1034 H 0.84563 0.43006 0.8003 0.0
H1035 H 0.92978 0.4988 0.77013 0.0
H1036 H 0.93796 0.44 0.67465 0.0
H1037 H 0.93365 0.45956 0.74776 0.0
H1038 H 0.84538 0.42969 0.71857 0.0
H1039 H 0.84951 0.40874 0.64664 0.0
C1040 C 0.86465 0.46266 0.85122 0.0
C1041 C 0.8893 0.48712 0.86551 0.0
C1042 C 0.86406 0.45013 0.80882 0.0
C1043 C 0.88797 0.4622 0.77989 0.0
C1044 C 0.91143 0.48833 0.79239 0.0
C1045 C 0.91224 0.50046 0.83511 0.0
C1046 C 0.91749 0.43696 0.68467 0.0
C1047 C 0.89407 0.42284 0.65536 0.0
C1048 C 0.91508 0.44861 0.72604 0.0
C1049 C 0.88937 0.44703 0.73832 0.0
C1050 C 0.86549 0.43135 0.7102 0.0
C1051 C 0.86778 0.41916 0.66917 0.0
H1052 H 0.58563 0.50833 0.66032 0.0
H1053 H 0.61906 0.45247 0.63864 0.0
H1054 H 0.56719 0.48659 0.73526 0.0
H1055 H 0.59881 0.42904 0.71169 0.0
H1056 H 0.57748 0.40827 0.86506 0.0
H1057 H 0.59869 0.4294 0.79115 0.0
H1058 H 0.53005 0.44573 0.76477 0.0
H1059 H 0.51031 0.42658 0.84048 0.0
C1060 C 0.58929 0.4916 0.67209 0.0
C1061 C 0.60392 0.48221 0.64427 0.0
C1062 C 0.57826 0.47869 0.71453 0.0
C1063 C 0.58077 0.45545 0.72919 0.0
C1064 C 0.59657 0.44695 0.70196 0.0
C1065 C 0.60832 0.46045 0.66012 0.0
C1066 C 0.56662 0.41576 0.84278 0.0
C1067 C 0.54232 0.41586 0.85815 0.0
C1068 C 0.57883 0.42801 0.80042 0.0
C1069 C 0.56652 0.43996 0.77221 0.0
C1070 C 0.5408 0.43779 0.78624 0.0
C1071 C 0.52909 0.4263 0.82915 0.0
H1072 H 0.59344 0.07833 0.84956 0.0
H1073 H 0.64356 0.16939 0.85573 0.0
H1074 H 0.57951 0.08116 0.77122 0.0
H1075 H 0.63024 0.17231 0.77597 0.0
H1076 H 0.56869 0.09067 0.62285 0.0
H1077 H 0.59293 0.09248 0.69354 0.0
H1078 H 0.5865 0.16443 0.73898 0.0
H1079 H 0.56313 0.16352 0.66591 0.0
C1080 C 0.60235 0.09895 0.83345 0.0
C1081 C 0.61943 0.12362 0.85882 0.0
C1082 C 0.59434 0.10062 0.78843 0.0
C1083 C 0.60342 0.12703 0.76752 0.0
C1084 C 0.62246 0.15169 0.79153 0.0
C1085 C 0.63051 0.15 0.83684 0.0
C1086 C 0.57225 0.1069 0.6478 0.0
C1087 C 0.56346 0.12668 0.63909 0.0
C1088 C 0.58627 0.10793 0.68845 0.0
C1089 C 0.59144 0.12839 0.72216 0.0
C1090 C 0.58309 0.14855 0.7134 0.0
C1091 C 0.56936 0.14783 0.67196 0.0
H1092 H 0.28881 0.49113 0.51171 0.0
H1093 H 0.21097 0.41651 0.47125 0.0
H1094 H 0.26658 0.4923 0.58473 0.0
H1095 H 0.18873 0.41866 0.54174 0.0
H1096 H 0.1725 0.40818 0.69699 0.0
H1097 H 0.19041 0.40939 0.62013 0.0
H1098 H 0.23049 0.50056 0.619 0.0
H1099 H 0.21329 0.49932 0.69757 0.0
C1100 C 0.26712 0.475 0.51842 0.0
C1101 C 0.25188 0.45352 0.48601 0.0
C1102 C 0.25422 0.47592 0.55978 0.0
C1103 C 0.22583 0.45556 0.56901 0.0
C1104 C 0.21072 0.43436 0.53625 0.0
C1105 C 0.22362 0.43316 0.49566 0.0
C1106 C 0.18446 0.42846 0.6799 0.0
C1107 C 0.19166 0.45365 0.70336 0.0
C1108 C 0.1948 0.42919 0.63572 0.0
C1109 C 0.21229 0.45514 0.61364 0.0
C1110 C 0.21758 0.48029 0.63558 0.0
C1111 C 0.20727 0.47955 0.68014 0.0
H1112 H 0.50804 0.76336 0.47077 0.0
H1113 H 0.59464 0.82549 0.50182 0.0
H1114 H 0.50446 0.73998 0.54498 0.0
H1115 H 0.59092 0.80314 0.57605 0.0
H1116 H 0.59302 0.74584 0.67744 0.0
H1117 H 0.5893 0.76043 0.59947 0.0
H1118 H 0.5047 0.74372 0.62928 0.0
H1119 H 0.50806 0.72773 0.70682 0.0
C1120 C 0.52597 0.77245 0.49413 0.0
C1121 C 0.55166 0.79605 0.48079 0.0
C1122 C 0.52401 0.75899 0.53635 0.0
C1123 C 0.54769 0.76919 0.56571 0.0
C1124 C 0.57263 0.79407 0.55346 0.0
C1125 C 0.57467 0.80716 0.5113 0.0
C1126 C 0.57329 0.74434 0.66666 0.0
C1127 C 0.5509 0.73587 0.69793 0.0
C1128 C 0.57126 0.75308 0.62233 0.0
C1129 C 0.54708 0.75422 0.60884 0.0
C1130 C 0.52365 0.74325 0.63873 0.0
C1131 C 0.52551 0.73395 0.683 0.0
H1132 H 0.30249 0.79306 0.69139 0.0
H1133 H 0.26326 0.84439 0.6758 0.0
H1134 H 0.28998 0.77683 0.61116 0.0
H1135 H 0.2504 0.82801 0.59701 0.0
H1136 H 0.24522 0.81061 0.44913 0.0
H1137 H 0.26918 0.82974 0.52159 0.0
H1138 H 0.24441 0.74554 0.56928 0.0
H1139 H 0.22103 0.72617 0.49459 0.0
C1140 C 0.29197 0.80148 0.6704 0.0
C1141 C 0.28384 0.81999 0.68958 0.0
C1142 C 0.28444 0.79188 0.62487 0.0
C1143 C 0.26904 0.80097 0.59795 0.0
C1144 C 0.26253 0.8208 0.61657 0.0
C1145 C 0.26987 0.83021 0.66179 0.0
C1146 C 0.24474 0.79603 0.47495 0.0
C1147 C 0.23052 0.76676 0.46677 0.0
C1148 C 0.25864 0.80708 0.51647 0.0
C1149 C 0.25827 0.78915 0.55143 0.0
C1150 C 0.24511 0.75988 0.54278 0.0
C1151 C 0.23148 0.74876 0.50042 0.0
H1152 H 0.61676 0.80245 0.97105 0.0
H1153 H 0.53376 0.73246 0.00335 0.0
H1154 H 0.61701 0.8253 0.04295 0.0
H1155 H 0.53455 0.75499 0.0767 0.0
H1156 H 0.53061 0.81284 0.18242 0.0
H1157 H 0.53177 0.79545 0.10513 0.0
H1158 H 0.62006 0.82152 0.12402 0.0
H1159 H 0.61917 0.8397 0.20003 0.0
C1160 C 0.59878 0.7916 -0.006 0.0
C1161 C 0.5752 0.7656 0.98144 0.0
C1162 C 0.59894 0.80479 0.03526 0.0
C1163 C 0.57564 0.79218 0.06526 0.0
C1164 C 0.55254 0.76558 0.05373 0.0
C1165 C 0.55229 0.75241 0.01214 0.0
C1166 C 0.55048 0.81575 0.16934 0.0
C1167 C 0.57473 0.8274 0.19742 0.0
C1168 C 0.55102 0.80531 0.12545 0.0
C1169 C 0.57581 0.80645 0.10896 0.0
C1170 C 0.6006 0.82027 0.1356 0.0
C1171 C 0.6001 0.83075 0.17924 0.0
H1172 H 0.21961 0.81164 0.96287 0.0
H1173 H 0.29088 0.80099 -0.00302 0.0
H1174 H 0.19602 0.7876 0.0328 0.0
H1175 H 0.26773 0.77828 0.06974 0.0
H1176 H 0.21019 0.71702 0.17726 0.0
H1177 H 0.22915 0.7357 0.10066 0.0
H1178 H 0.19672 0.7933 0.1116 0.0
H1179 H 0.17662 0.77368 0.18608 0.0
C1180 C 0.23065 0.80478 0.98594 0.0
C1181 C 0.25723 0.8083 0.97426 0.0
C1182 C 0.21701 0.79095 0.02632 0.0
C1183 C 0.22982 0.78082 0.05697 0.0
C1184 C 0.25697 0.78528 0.04636 0.0
C1185 C 0.27051 0.79878 0.00519 0.0
C1186 C 0.20617 0.73287 0.16235 0.0
C1187 C 0.19207 0.74402 0.18781 0.0
C1188 C 0.21758 0.74402 0.11892 0.0
C1189 C 0.21509 0.76649 0.10037 0.0
C1190 C 0.19901 0.77595 0.12445 0.0
C1191 C 0.18739 0.76463 0.16736 0.0
H1192 H 0.2351 0.42661 0.96676 0.0
H1193 H 0.22064 0.4938 0.01177 0.0
H1194 H 0.25977 0.43011 0.03767 0.0
H1195 H 0.24446 0.49627 0.08526 0.0
H1196 H 0.25988 0.41358 0.19215 0.0
H1197 H 0.24522 0.4164 0.11438 0.0
H1198 H 0.2892 0.50758 0.12387 0.0
H1199 H 0.30324 0.50457 0.20325 0.0
C1200 C 0.23676 0.4419 -0.00777 0.0
C1201 C 0.22527 0.45951 0.98407 0.0
C1202 C 0.25105 0.44392 0.033 0.0
C1203 C 0.25377 0.46315 0.06745 0.0
C1204 C 0.24289 0.48135 0.05915 0.0
C1205 C 0.22892 0.4797 0.01748 0.0
C1206 C 0.26713 0.43428 0.17724 0.0
C1207 C 0.28262 0.45882 0.20374 0.0
C1208 C 0.25871 0.43596 0.13255 0.0
C1209 C 0.2658 0.46225 0.11302 0.0
C1210 C 0.28304 0.48701 0.13831 0.0
C1211 C 0.29151 0.48532 0.18336 0.0
H1212 H 0.87924 0.75048 0.80161 0.0
H1213 H 0.95466 0.82923 0.83541 0.0
H1214 H 0.85831 0.75154 0.87455 0.0
H1215 H 0.93389 0.8296 0.91035 0.0
H1216 H 0.84772 0.74281 0.031 0.0
H1217 H 0.86455 0.74446 0.95312 0.0
H1218 H 0.8963 0.83448 0.94799 0.0
H1219 H 0.88013 0.83293 0.02749 0.0
C1220 C 0.89161 0.76788 0.82495 0.0
C1221 C 0.91882 0.78964 0.81286 0.0
C1222 C 0.87952 0.76846 0.86691 0.0
C1223 C 0.89443 0.79056 0.89841 0.0
C1224 C 0.92169 0.81244 0.8865 0.0
C1225 C 0.93376 0.81205 0.84395 0.0
C1226 C 0.85775 0.7629 0.01302 0.0
C1227 C 0.86272 0.78776 0.03545 0.0
C1228 C 0.86739 0.76386 0.96821 0.0
C1229 C 0.88204 0.78967 0.94444 0.0
C1230 C 0.88552 0.81436 0.96577 0.0
C1231 C 0.87586 0.8134 0.01094 0.0
H1232 H 0.19172 0.13287 0.82902 0.0
H1233 H 0.25582 0.11391 0.78347 0.0
H1234 H 0.18874 0.10937 0.90305 0.0
H1235 H 0.25192 0.08971 0.85512 0.0
H1236 H 0.17959 0.05149 0.02284 0.0
H1237 H 0.1762 0.0643 0.94289 0.0
H1238 H 0.2673 0.10651 0.93139 0.0
H1239 H 0.27055 0.09323 0.01004 0.0
C1240 C 0.20495 0.12357 0.83468 0.0
C1241 C 0.22455 0.12595 0.80105 0.0
C1242 C 0.20304 0.10985 0.87666 0.0
C1243 C 0.22038 0.09799 0.88504 0.0
C1244 C 0.2388 0.09922 0.85026 0.0
C1245 C 0.24107 0.11323 0.80912 0.0
C1246 C 0.19874 0.06259 0.0025 0.0
C1247 C 0.22536 0.0714 0.02252 0.0
C1248 C 0.19682 0.07032 0.95709 0.0
C1249 C 0.22147 0.08668 0.93106 0.0
C1250 C 0.24785 0.09369 0.95027 0.0
C1251 C 0.24976 0.08607 -0.00459 0.0
H1252 H 0.88478 0.06617 0.83752 0.0
H1253 H 0.87119 0.1357 0.80464 0.0
H1254 H 0.90648 0.08895 0.91084 0.0
H1255 H 0.89378 0.15882 0.87636 0.0
H1256 H 0.9059 0.17391 0.03308 0.0
H1257 H 0.88697 0.15536 0.95716 0.0
H1258 H 0.94941 0.12949 0.93973 0.0
H1259 H 0.9678 0.14723 0.01699 0.0
C1260 C 0.88608 0.08608 0.84617 0.0
C1261 C 0.87618 0.09904 0.81533 0.0
C1262 C 0.89897 0.09939 0.88773 0.0
C1263 C 0.90228 0.12594 0.89908 0.0
C1264 C 0.89148 0.13835 0.86888 0.0
C1265 C 0.87845 0.125 0.82768 0.0
C1266 C 0.91611 0.16494 0.01263 0.0
C1267 C 0.93814 0.16174 0.03124 0.0
C1268 C 0.9052 0.15423 0.96902 0.0
C1269 C 0.91627 0.14036 0.9428 0.0
C1270 C 0.93994 0.13938 0.95971 0.0
C1271 C 0.95083 0.15003 0.00357 0.0
H1272 H 0.27334 0.14554 0.29081 0.0
H1273 H 0.19398 0.07179 0.32784 0.0
H1274 H 0.27252 0.16867 0.36134 0.0
H1275 H 0.194 0.09464 0.40066 0.0
H1276 H 0.19043 0.14852 0.51425 0.0
H1277 H 0.18918 0.13238 0.435 0.0
H1278 H 0.27963 0.16592 0.44017 0.0
H1279 H 0.28095 0.18291 0.51779 0.0
C1280 C 0.25589 0.13398 0.31445 0.0
C1281 C 0.23382 0.10662 0.30386 0.0
C1282 C 0.25545 0.14735 0.35505 0.0
C1283 C 0.23324 0.13357 0.38679 0.0
C1284 C 0.21119 0.10607 0.37654 0.0
C1285 C 0.21139 0.09276 0.33525 0.0
C1286 C 0.21014 0.15339 0.49765 0.0
C1287 C 0.23576 0.16677 0.52228 0.0
C1288 C 0.20936 0.14367 0.45261 0.0
C1289 C 0.23419 0.14728 0.43158 0.0
C1290 C 0.26007 0.16282 0.45502 0.0
C1291 C 0.26086 0.17262 0.49969 0.0
H1292 H 0.93927 0.09671 0.30435 0.0
H1293 H 0.91409 0.15829 0.33506 0.0
H1294 H 0.91941 0.07318 0.37843 0.0
H1295 H 0.89544 0.13584 0.40918 0.0
H1296 H 0.83684 0.07886 0.51145 0.0
H1297 H 0.85471 0.09318 0.4332 0.0
H1298 H 0.92297 0.07693 0.46248 0.0
H1299 H 0.90401 0.06114 0.54024 0.0
C1300 C 0.93023 0.10563 0.3276 0.0
C1301 C 0.92799 0.12913 0.31421 0.0
C1302 C 0.91871 0.0921 0.36975 0.0
C1303 C 0.90506 0.10213 0.39901 0.0
C1304 C 0.90477 0.12688 0.38667 0.0
C1305 C 0.91584 0.14004 0.34457 0.0
C1306 C 0.85504 0.07739 0.50048 0.0
C1307 C 0.86917 0.06909 0.53163 0.0
C1308 C 0.86556 0.08598 0.45599 0.0
C1309 C 0.89087 0.08719 0.44226 0.0
C1310 C 0.90354 0.07639 0.47208 0.0
C1311 C 0.89261 0.06721 0.51649 0.0
H1312 H 0.85572 0.74772 0.33976 0.0
H1313 H 0.9133 0.83601 0.31272 0.0
H1314 H 0.88051 0.75111 0.41148 0.0
H1315 H 0.93966 0.8392 0.38264 0.0
H1316 H 0.96114 0.83875 0.53729 0.0
H1317 H 0.94163 0.83981 0.46235 0.0
H1318 H 0.92168 0.75365 0.4375 0.0
H1319 H 0.93924 0.75216 0.51429 0.0
C1320 C 0.87356 0.76794 0.34964 0.0
C1321 C 0.88248 0.79165 0.32124 0.0
C1322 C 0.88822 0.76982 0.39018 0.0
C1323 C 0.9127 0.79526 0.40241 0.0
C1324 C 0.9209 0.81929 0.37465 0.0
C1325 C 0.90571 0.81756 0.33469 0.0
C1326 C 0.95352 0.82042 0.51501 0.0
C1327 C 0.95157 0.79534 0.53138 0.0
C1328 C 0.9421 0.82092 0.47203 0.0
C1329 C 0.92916 0.7965 0.44428 0.0
C1330 C 0.93033 0.77248 0.45872 0.0
C1331 C 0.94099 0.77174 0.50222 0.0
H1332 H 0.352 0.91416 0.78504 0.0
H1333 H 0.31304 0.91387 0.91469 0.0
H1334 H 0.39729 0.95231 0.81285 0.0
H1335 H 0.35852 0.95261 0.94257 0.0
H1336 H 0.44914 0.03448 0.96014 0.0
H1337 H 0.40181 1.00484 0.92847 0.0
H1338 H 0.4263 0.94585 0.87855 0.0
H1339 H 0.47309 0.97433 0.91229 0.0
C1340 C 0.35274 0.92345 0.81851 0.0
C1341 C 0.32878 0.91132 0.84732 0.0
C1342 C 0.37885 0.94491 0.83481 0.0
C1343 C 0.38163 0.95505 0.88025 0.0
C1344 C 0.35704 0.94521 0.90738 0.0
C1345 C 0.33084 0.92336 0.89113 0.0
C1346 C 0.4445 0.01493 0.94333 0.0
C1347 C 0.46543 1.00702 0.93922 0.0
C1348 C 0.41729 0.99809 0.92474 0.0
C1349 C 0.41038 0.9732 0.90053 0.0
C1350 C 0.43112 0.96522 0.89629 0.0
C1351 C 0.45811 0.98171 0.9156 0.0
H1352 H 0.03408 0.46748 0.01877 0.0
H1353 H 0.99518 0.45203 0.88415 0.0
H1354 H 0.06378 0.44855 -0.00745 0.0
H1355 H 0.02348 0.43155 0.85832 0.0
H1356 H 0.10583 0.43573 0.81008 0.0
H1357 H 0.06778 0.44318 0.83505 0.0
H1358 H 0.07081 0.41169 0.97095 0.0
H1359 H 0.11036 0.40578 0.94569 0.0
C1360 C 0.03166 0.4597 0.98365 0.0
C1361 C 1.01258 0.4617 0.95336 0.0
C1362 C 0.0485 0.44848 0.96859 0.0
C1363 C 0.04637 0.43836 0.92298 0.0
C1364 C 0.0265 0.43963 0.89327 0.0
C1365 C 1.01013 0.45138 0.90808 0.0
C1366 C 0.0974 0.42906 0.84463 0.0
C1367 C 0.11073 0.41956 0.87553 0.0
C1368 C 0.07557 0.43359 0.85933 0.0
C1369 C 0.06614 0.4286 0.90556 0.0
C1370 C 0.07779 0.41655 0.93541 0.0
C1371 C 0.09999 0.41231 0.92066 0.0
H1372 H 0.579 0.66732 0.79087 0.0
H1373 H 0.61962 0.70711 0.91904 0.0
H1374 H 0.57157 0.62209 0.81933 0.0
H1375 H 0.61233 0.66166 0.9478 0.0
H1376 H 0.60139 0.57101 0.97039 0.0
H1377 H 0.61961 0.61823 0.93781 0.0
H1378 H 0.53692 0.5934 0.88308 0.0
H1379 H 0.51824 0.54675 0.91714 0.0
C1380 C 0.58784 0.66672 0.82415 0.0
C1381 C 0.60038 0.69092 0.85233 0.0
C1382 C 0.58302 0.64065 0.84088 0.0
C1383 C 0.59074 0.63811 0.88625 0.0
C1384 C 0.60611 0.6629 0.9127 0.0
C1385 C 0.61075 0.68908 0.89594 0.0
C1386 C 0.58683 0.57562 0.95219 0.0
C1387 C 0.55815 0.55462 0.94658 0.0
C1388 C 0.59747 0.60274 0.93313 0.0
C1389 C 0.57988 0.60949 0.9072 0.0
C1390 C 0.55124 0.58872 0.90194 0.0
C1391 C 0.54051 0.56182 0.92153 0.0
H1392 H 0.99926 0.54586 0.39811 0.0
H1393 H 0.03894 0.57647 0.53073 0.0
H1394 H 0.0271 0.593 0.36569 0.0
H1395 H 0.06844 0.62363 0.49786 0.0
H1396 H 0.11469 0.71032 0.43517 0.0
H1397 H 0.07595 0.66649 0.46763 0.0
H1398 H 0.07134 0.62328 0.33977 0.0
H1399 H 0.1085 0.66692 0.30764 0.0
C1400 C 0.0143 0.56272 0.42021 0.0
C1401 C 0.0172 0.5573 0.4668 0.0
C1402 C 0.03045 0.5899 0.4016 0.0
C1403 C 0.05064 0.61254 0.42864 0.0
C1404 C 0.05302 0.60713 0.47573 0.0
C1405 C 0.03631 0.57996 0.49463 0.0
C1406 C 0.10421 0.69173 0.4134 0.0
C1407 C 0.11423 0.69224 0.36848 0.0
C1408 C 0.08245 0.66631 0.43234 0.0
C1409 C 0.07045 0.64079 0.40688 0.0
C1410 C 0.07934 0.64214 0.36074 0.0
C1411 C 0.10074 0.6674 0.34194 0.0
H1412 H 0.44693 0.44307 0.5235 0.0
H1413 H 0.47657 0.47717 0.38687 0.0
H1414 H 0.39857 0.42204 0.49698 0.0
H1415 H 0.42825 0.45877 0.3618 0.0
H1416 H 0.34024 0.41563 0.31214 0.0
H1417 H 0.38557 0.42225 0.33896 0.0
H1418 H 0.3628 0.43001 0.47927 0.0
H1419 H 0.31714 0.42139 0.45221 0.0
C1420 C 0.44337 0.44625 0.48776 0.0
C1421 C 0.46631 0.46206 0.45764 0.0
C1422 C 0.41526 0.43441 0.47257 0.0
C1423 C 0.40886 0.43844 0.42692 0.0
C1424 C 0.4318 0.45442 0.3969 0.0
C1425 C 0.4599 0.46574 0.41181 0.0
C1426 C 0.34434 0.41695 0.34898 0.0
C1427 C 0.32471 0.41709 0.38017 0.0
C1428 C 0.3708 0.42171 0.36444 0.0
C1429 C 0.37871 0.42762 0.41144 0.0
C1430 C 0.35795 0.42539 0.44295 0.0
C1431 C 0.33135 0.42004 0.42751 0.0
H1432 H 0.60522 0.9247 0.31498 0.0
H1433 H 0.58739 0.88873 0.4518 0.0
H1434 H 0.59821 0.96334 0.34231 0.0
H1435 H 0.57953 0.9267 0.47885 0.0
H1436 H 0.51976 0.96652 0.47271 0.0
H1437 H 0.53681 0.93434 0.4498 0.0
H1438 H 0.61616 1.00551 0.40663 0.0
H1439 H 0.5994 0.03772 0.4307 0.0
C1440 C 0.60133 0.92593 0.35141 0.0
C1441 C 0.59778 0.90426 0.38163 0.0
C1442 C 0.59686 0.94775 0.36691 0.0
C1443 C 0.58794 0.94776 0.41255 0.0
C1444 C 0.58621 0.92711 0.44344 0.0
C1445 C 0.59127 0.90571 0.42819 0.0
C1446 C 0.5408 0.97523 0.4583 0.0
C1447 C 0.55827 1.00458 0.45361 0.0
C1448 C 0.55065 0.95689 0.44552 0.0
C1449 C 0.57792 0.96748 0.42679 0.0
C1450 C 0.59513 0.9968 0.42109 0.0
C1451 C 0.58554 0.01516 0.43489 0.0
H1452 H 0.13188 0.29943 0.30967 0.0
H1453 H 0.12309 0.37106 0.27213 0.0
H1454 H 0.08278 0.26745 0.28574 0.0
H1455 H 0.07423 0.33904 0.24696 0.0
H1456 H 1.00464 0.25941 0.15194 0.0
H1457 H 0.05023 0.29773 0.18041 0.0
H1458 H 0.03211 0.25895 0.31531 0.0
H1459 H 0.98635 0.22132 0.2872 0.0
C1460 C 0.1195 0.3083 0.29605 0.0
C1461 C 0.1313 0.33773 0.29293 0.0
C1462 C 0.09137 0.29005 0.28264 0.0
C1463 C 0.0746 0.30078 0.26479 0.0
C1464 C 0.0866 0.33019 0.26069 0.0
C1465 C 0.1145 0.34846 0.27517 0.0
C1466 C 1.0097 0.26007 0.18832 0.0
C1467 C 0.9915 0.2379 0.21775 0.0
C1468 C 0.03598 0.28173 0.20446 0.0
C1469 C 0.04487 0.28111 0.24994 0.0
C1470 C 0.0259 0.2599 0.28005 0.0
C1471 C 0.99947 0.23867 0.2642 0.0
H1472 H 0.68824 0.81259 0.23492 0.0
H1473 H 0.67945 0.7686 0.36357 0.0
H1474 H 0.71787 0.79512 0.20491 0.0
H1475 H 0.70675 0.74872 0.33166 0.0
H1476 H 0.78783 0.74971 0.28139 0.0
H1477 H 0.75099 0.75735 0.31301 0.0
H1478 H 0.72196 0.75884 0.17432 0.0
H1479 H 0.76041 0.75325 0.14326 0.0
C1480 C 0.69252 0.79921 0.25707 0.0
C1481 C 0.68133 0.79242 0.30217 0.0
C1482 C 0.70911 0.78845 0.23919 0.0
C1483 C 0.71471 0.76999 0.26529 0.0
C1484 C 0.70334 0.763 0.31028 0.0
C1485 C 0.68719 0.77421 0.32852 0.0
C1486 C 0.77264 0.75024 0.25783 0.0
C1487 C 0.77663 0.75024 0.20988 0.0
C1488 C 0.75154 0.755 0.27595 0.0
C1489 C 0.7336 0.75955 0.24646 0.0
C1490 C 0.73583 0.75649 0.19841 0.0
C1491 C 0.75737 0.75239 0.18038 0.0
H1492 H 0.18218 0.88166 0.26384 0.0
H1493 H 0.26811 0.90553 0.30077 0.0
H1494 H 0.19903 0.92846 0.23135 0.0
H1495 H 0.28445 0.9529 0.27044 0.0
H1496 H 0.28302 0.04232 0.25805 0.0
H1497 H 0.27606 0.99694 0.28734 0.0
H1498 H 0.23201 0.95602 0.16168 0.0
H1499 H 0.23935 1.00106 0.13248 0.0
C1500 C 0.20463 0.89665 0.2651 0.0
C1501 C 0.2236 0.88923 0.28502 0.0
C1502 C 0.21428 0.92366 0.24657 0.0
C1503 C 0.24313 0.94435 0.24801 0.0
C1504 C 0.26209 0.93746 0.26897 0.0
C1505 C 0.25254 0.91021 0.28675 0.0
C1506 C 0.27333 0.02393 0.23574 0.0
C1507 C 0.26224 0.02537 0.19257 0.0
C1508 C 0.26892 0.99785 0.25276 0.0
C1509 C 0.25296 0.9728 0.22715 0.0
C1510 C 0.24402 0.97482 0.18249 0.0
C1511 C 0.24869 1.00075 0.16542 0.0
H1512 H 0.7734 1.00286 0.62162 0.0
H1513 H 0.77218 0.0387 0.75363 0.0
H1514 H 0.73492 0.95698 0.64652 0.0
H1515 H 0.73345 0.99266 0.77889 0.0
H1516 H 0.65381 0.90325 0.79857 0.0
H1517 H 0.68337 0.95089 0.76816 0.0
H1518 H 0.73829 0.92491 0.70504 0.0
H1519 H 0.70961 0.87766 0.73673 0.0
C1520 C 0.76375 1.0013 0.65506 0.0
C1521 C 0.77543 0.02459 0.68525 0.0
C1522 C 0.74212 0.97482 0.66976 0.0
C1523 C 0.73152 0.97093 0.7151 0.0
C1524 C 0.74111 0.99489 0.74373 0.0
C1525 C 0.76299 0.02145 0.72901 0.0
C1526 C 0.67241 0.90764 0.77885 0.0
C1527 C 0.67914 0.88619 0.77048 0.0
C1528 C 0.68924 0.93504 0.76107 0.0
C1529 C 0.71303 0.94172 0.73368 0.0
C1530 C 0.71976 0.92038 0.72515 0.0
C1531 C 0.7032 0.89314 0.74341 0.0
H1532 H 1.00526 0.74774 0.64286 0.0
H1533 H 0.98933 0.76449 0.78189 0.0
H1534 H 0.05125 0.75417 0.66768 0.0
H1535 H 0.03539 0.77177 0.80629 0.0
H1536 H 0.13523 0.8339 0.79086 0.0
H1537 H 0.08579 0.81639 0.76859 0.0
H1538 H 0.07579 0.73469 0.73766 0.0
H1539 H 0.12505 0.75193 0.76135 0.0
C1540 C 1.01086 0.75118 0.67917 0.0
C1541 C 0.99333 0.75476 0.71075 0.0
C1542 C 0.03736 0.75534 0.69323 0.0
C1543 C 0.04696 0.76383 0.73877 0.0
C1544 C 0.02855 0.76535 0.77098 0.0
C1545 C 1.00197 0.76066 0.75718 0.0
C1546 C 0.12249 0.81224 0.77924 0.0
C1547 C 0.13394 0.79427 0.778 0.0
C1548 C 0.09421 0.80218 0.76673 0.0
C1549 C 0.07697 0.77414 0.75165 0.0
C1550 C 0.0886 0.75634 0.74924 0.0
C1551 C 0.1167 0.7662 0.76287 0.0
H1552 H 0.26152 0.22668 0.78052 0.0
H1553 H 0.27003 0.26045 0.64329 0.0
H1554 H 0.25351 0.26351 0.81108 0.0
H1555 H 0.26362 0.29859 0.67369 0.0
H1556 H 0.20852 0.33354 0.72655 0.0
H1557 H 0.22582 0.30316 0.69854 0.0
H1558 H 0.2646 0.30863 0.83136 0.0
H1559 H 0.24518 0.33697 0.86059 0.0
C1560 C 0.26349 0.24314 0.75731 0.0
C1561 C 0.26721 0.2411 0.7097 0.0
C1562 C 0.25853 0.26424 0.77473 0.0
C1563 C 0.25726 0.28403 0.74495 0.0
C1564 C 0.26359 0.28341 0.69777 0.0
C1565 C 0.26813 0.262 0.68033 0.0
C1566 C 0.22025 0.3279 0.75025 0.0
C1567 C 0.22513 0.33787 0.79617 0.0
C1568 C 0.23084 0.31085 0.73372 0.0
C1569 C 0.24706 0.30341 0.76227 0.0
C1570 C 0.25207 0.3135 0.80812 0.0
C1571 C 0.24113 0.33022 0.82485 0.0
H1572 H 0.64797 0.58344 0.5813 0.0
H1573 H 0.6884 0.58581 0.45211 0.0
H1574 H 0.69318 0.62155 0.61125 0.0
H1575 H 0.73337 0.6234 0.48191 0.0
H1576 H 0.80788 0.64296 0.58197 0.0
H1577 H 0.76129 0.61529 0.54724 0.0
H1578 H 0.73696 0.6738 0.60019 0.0
H1579 H 0.78415 0.70263 0.63306 0.0
C1580 C 0.66605 0.59325 0.55835 0.0
C1581 C 0.66453 0.58187 0.51412 0.0
C1582 C 0.69209 0.61474 0.57576 0.0
C1583 C 0.71697 0.62495 0.54929 0.0
C1584 C 0.71469 0.61564 0.5034 0.0
C1585 C 0.68879 0.59448 0.48599 0.0
C1586 C 0.79297 0.65039 0.58579 0.0
C1587 C 0.80029 0.67535 0.61049 0.0
C1588 C 0.7661 0.63438 0.56589 0.0
C1589 C 0.7455 0.6425 0.57059 0.0
C1590 C 0.75236 0.66697 0.59605 0.0
C1591 C 0.77946 0.68334 0.61529 0.0
H1592 H 0.32245 0.08574 0.63744 0.0
H1593 H 0.38377 0.1707 0.59489 0.0
H1594 H 0.35387 0.06908 0.61019 0.0
H1595 H 0.41398 0.15335 0.56516 0.0
H1596 H 0.44481 0.10909 0.47033 0.0
H1597 H 0.4066 0.11628 0.49767 0.0
H1598 H 0.40876 0.08114 0.63011 0.0
H1599 H 0.44778 0.07451 0.60277 0.0
C1600 C 0.34261 0.10105 0.62281 0.0
C1601 C 0.35028 0.12982 0.61869 0.0
C1602 C 0.3605 0.09129 0.60679 0.0
C1603 C 0.38621 0.10981 0.58516 0.0
C1604 C 0.39404 0.13846 0.58111 0.0
C1605 C 0.37652 0.14837 0.59798 0.0
C1606 C 0.43618 0.10155 0.50452 0.0
C1607 C 0.44891 0.09067 0.53405 0.0
C1608 C 0.41464 0.10615 0.52043 0.0
C1609 C 0.40502 0.09971 0.56623 0.0
C1610 C 0.41576 0.08627 0.59459 0.0
C1611 C 0.43777 0.08202 0.57874 0.0
H1612 H 0.95058 0.37341 0.5944 0.0
H1613 H 0.91204 0.33708 0.46324 0.0
H1614 H 0.94312 0.32724 0.61975 0.0
H1615 H 0.90458 0.29125 0.48819 0.0
H1616 H 0.85203 0.2117 0.57731 0.0
H1617 H 0.86979 0.25925 0.54745 0.0
H1618 H 0.95161 0.28542 0.60736 0.0
H1619 H 0.93432 0.23749 0.63592 0.0
C1620 C 0.94198 0.35599 0.57009 0.0
C1621 C 0.93228 0.35898 0.52657 0.0
C1622 C 0.93729 0.3294 0.58481 0.0
C1623 C 0.92259 0.30537 0.55638 0.0
C1624 C 0.91541 0.30913 0.51132 0.0
C1625 C 0.92019 0.33555 0.49666 0.0
C1626 C 0.87393 0.22731 0.58369 0.0
C1627 C 0.89157 0.22031 0.60918 0.0
C1628 C 0.88415 0.25472 0.56654 0.0
C1629 C 0.91225 0.27617 0.57464 0.0
C1630 C 0.92984 0.26947 0.60066 0.0
C1631 C 0.91974 0.2419 0.61734 0.0
H1632 H 0.38069 0.21278 0.07288 0.0
H1633 H 0.32149 0.23758 0.12229 0.0
H1634 H 0.4094 0.25944 0.03901 0.0
H1635 H 0.35106 0.28466 0.0899 0.0
H1636 H 0.43955 0.37343 0.07467 0.0
H1637 H 0.40105 0.32775 0.102 0.0
H1638 H 0.40531 0.28866 0.97491 0.0
H1639 H 0.44348 0.33408 0.94791 0.0
C1640 C 0.37359 0.22797 0.07642 0.0
C1641 C 0.34856 0.22101 0.10058 0.0
C1642 C 0.39015 0.25485 0.05696 0.0
C1643 C 0.3824 0.27575 0.0614 0.0
C1644 C 0.35768 0.2691 0.08602 0.0
C1645 C 0.34086 0.24205 0.10496 0.0
C1646 C 0.43108 0.35542 0.05156 0.0
C1647 C 0.44428 0.35741 0.0089 0.0
C1648 C 0.40933 0.32912 0.06748 0.0
C1649 C 0.40065 0.30443 0.04108 0.0
C1650 C 0.4119 0.30713 -0.00353 0.0
C1651 C 0.43339 0.33328 0.98059 0.0
H1652 H 0.77427 0.10665 0.19947 0.0
H1653 H 0.80849 0.14509 0.06692 0.0
H1654 H 0.72663 0.08779 0.1693 0.0
H1655 H 0.76104 0.12819 0.03801 0.0
H1656 H 0.67466 0.08484 0.98058 0.0
H1657 H 0.71878 0.09039 0.01184 0.0
H1658 H 0.6931 0.10003 0.1489 0.0
H1659 H 0.64872 0.09302 0.11746 0.0
C1660 C 0.7718 0.11121 0.1639 0.0
C1661 C 0.79567 0.12762 0.13594 0.0
C1662 C 0.74425 0.10057 0.14663 0.0
C1663 C 0.73955 0.1062 0.1009 0.0
C1664 C 0.76344 0.12272 0.07305 0.0
C1665 C 0.79094 0.13307 0.09013 0.0
C1666 C 0.67785 0.08647 0.01769 0.0
C1667 C 0.65784 0.08759 0.04673 0.0
C1668 C 0.70353 0.09049 0.03564 0.0
C1669 C 0.71015 0.09642 0.08301 0.0
C1670 C 0.68902 0.09532 0.11242 0.0
C1671 C 0.66326 0.09095 0.09448 0.0
H1672 H 0.95706 0.58454 0.0874 0.0
H1673 H 0.91517 0.58614 0.96223 0.0
H1674 H 0.95212 0.62354 0.11844 0.0
H1675 H 0.90883 0.62369 -0.00681 0.0
H1676 H 0.90005 0.69375 0.05307 0.0
H1677 H 0.9209 0.66773 0.01872 0.0
H1678 H 0.91562 0.6282 0.1508 0.0
H1679 H 0.89628 0.65572 0.1854 0.0
C1680 C 0.94813 0.59423 0.06555 0.0
C1681 C 0.93699 0.58261 0.022 0.0
C1682 C 0.94447 0.61607 0.08384 0.0
C1683 C 0.92934 0.62659 0.05909 0.0
C1684 C 0.92078 0.61668 0.01362 0.0
C1685 C 0.92467 0.59515 -0.0046 0.0
C1686 C 0.90339 0.67948 0.07472 0.0
C1687 C 0.89612 0.6765 0.12182 0.0
C1688 C 0.91536 0.66444 0.05501 0.0
C1689 C 0.9199 0.64539 0.08154 0.0
C1690 C 0.91305 0.64288 0.12905 0.0
C1691 C 0.9016 0.65843 0.14897 0.0
loop_
_geom_bond_atom_site_label_1
_geom_bond_atom_site_label_2
_geom_bond_distance
_geom_bond_site_symmetry_2
_ccdc_geom_bond_type
C0 O16 1.251 . S
C0 O18 1.254 . S
N1 C2 1.333 . S
N1 C6 1.307 1_554 S
N1 Zn7 2.020 . S
C2 N1 1.333 . S
C2 C3 1.379 . S
C2 H20 0.952 . S
C3 C2 1.379 . S
C3 C4 1.390 . S
C3 H30 0.949 . S
C4 C3 1.390 . S
C4 C5 1.357 1_554 S
C5 C4 1.357 1_556 S
C5 C6 1.370 . S
C5 H31 0.950 . S
C6 N1 1.307 1_556 S
C6 C5 1.370 . S
C6 H24 0.948 . S
Zn7 N1 2.020 . S
Zn7 O16 2.039 . S
Zn7 O22 2.034 . S
Zn7 O26 2.025 1_554 S
Zn7 O28 2.024 . S
C8 O27 1.246 . S
C8 O28 1.249 . S
N9 C10 1.307 . S
N9 C11 1.333 1_554 S
N9 Zn15 2.020 . S
C10 N9 1.307 . S
C10 C14 1.370 . S
C10 H21 0.948 . S
C11 N9 1.333 1_556 S
C11 C12 1.379 . S
C11 H19 0.952 . S
C12 C11 1.379 . S
C12 C13 1.390 . S
C12 H32 0.949 . S
C13 C12 1.390 . S
C13 C14 1.357 1_556 S
C14 C10 1.370 . S
C14 C13 1.357 1_554 S
C14 H33 0.950 . S
Zn15 N9 2.020 . S
Zn15 O18 2.025 . S
Zn15 O23 2.024 . S
Zn15 O25 2.039 1_554 S
Zn15 O27 2.034 . S
O16 C0 1.251 . S
O16 Zn7 2.039 . S
C17 O22 1.246 . S
C17 O23 1.249 . S
O18 C0 1.254 . S
O18 Zn15 2.025 . S
H19 C11 0.952 . S
H20 C2 0.952 . S
H21 C10 0.948 . S
O22 Zn7 2.034 . S
O22 C17 1.246 . S
O23 Zn15 2.024 . S
O23 C17 1.249 . S
H24 C6 0.948 . S
O25 Zn15 2.039 1_556 S
O25 C29 1.251 . S
O26 Zn7 2.025 1_556 S
O26 C29 1.254 . S
O27 C8 1.246 . S
O27 Zn15 2.034 . S
O28 Zn7 2.024 . S
O28 C8 1.249 . S
C29 O25 1.251 . S
C29 O26 1.254 . S
H30 C3 0.949 . S
H31 C5 0.950 . S
H32 C12 0.949 . S
H33 C14 0.950 . S
C34 O50 1.251 . S
C34 O52 1.254 . S
N35 C36 1.333 . S
N35 C40 1.307 1_554 S
N35 Zn41 2.020 . S
C36 N35 1.333 . S
C36 C37 1.379 . S
C36 H54 0.952 . S
C37 C36 1.379 . S
C37 C38 1.390 . S
C37 H64 0.949 . S
C38 C37 1.390 . S
C38 C39 1.357 1_554 S
C39 C38 1.357 1_556 S
C39 C40 1.370 . S
C39 H65 0.950 . S
C40 N35 1.307 1_556 S
C40 C39 1.370 . S
C40 H58 0.948 . S
Zn41 N35 2.020 . S
Zn41 O50 2.039 . S
Zn41 O56 2.034 . S
Zn41 O60 2.025 1_554 S
Zn41 O62 2.024 . S
C42 O61 1.246 . S
C42 O62 1.249 . S
N43 C44 1.307 . S
N43 C45 1.333 1_554 S
N43 Zn49 2.020 . S
C44 N43 1.307 . S
C44 C48 1.370 . S
C44 H55 0.948 . S
C45 N43 1.333 1_556 S
C45 C46 1.379 . S
C45 H53 0.952 . S
C46 C45 1.379 . S
C46 C47 1.390 . S
C46 H66 0.949 . S
C47 C46 1.390 . S
C47 C48 1.357 1_556 S
C48 C44 1.370 . S
C48 C47 1.357 1_554 S
C48 H67 0.950 . S
Zn49 N43 2.020 . S
Zn49 O52 2.025 . S
Zn49 O57 2.024 . S
Zn49 O59 2.039 1_554 S
Zn49 O61 2.034 . S
O50 C34 1.251 . S
O50 Zn41 2.039 . S
C51 O56 1.246 . S
C51 O57 1.249 . S
O52 C34 1.254 . S
O52 Zn49 2.025 . S
H53 C45 0.952 . S
H54 C36 0.952 . S
H55 C44 0.948 . S
O56 Zn41 2.034 . S
O56 C51 1.246 . S
O57 Zn49 2.024 . S
O57 C51 1.249 . S
H58 C40 0.948 . S
O59 Zn49 2.039 1_556 S
O59 C63 1.251 . S
O60 Zn41 2.025 1_556 S
O60 C63 1.254 . S
O61 C42 1.246 . S
O61 Zn49 2.034 . S
O62 Zn41 2.024 . S
O62 C42 1.249 . S
C63 O59 1.251 . S
C63 O60 1.254 . S
H64 C37 0.949 . S
H65 C39 0.950 . S
H66 C46 0.949 . S
H67 C48 0.950 . S
C68 O84 1.251 . S
C68 O86 1.254 . S
N69 C70 1.333 . S
N69 C74 1.307 1_554 S
N69 Zn75 2.020 . S
C70 N69 1.333 . S
C70 C71 1.379 . S
C70 H88 0.952 . S
C71 C70 1.379 . S
C71 C72 1.390 . S
C71 H98 0.949 . S
C72 C71 1.390 . S
C72 C73 1.357 1_554 S
C73 C72 1.357 1_556 S
C73 C74 1.370 . S
C73 H99 0.950 . S
C74 N69 1.307 1_556 S
C74 C73 1.370 . S
C74 H92 0.948 . S
Zn75 N69 2.020 . S
Zn75 O84 2.039 . S
Zn75 O90 2.034 . S
Zn75 O94 2.025 1_554 S
Zn75 O96 2.024 . S
C76 O95 1.246 . S
C76 O96 1.249 . S
N77 C78 1.307 . S
N77 C79 1.333 1_554 S
N77 Zn83 2.020 . S
C78 N77 1.307 . S
C78 C82 1.370 . S
C78 H89 0.948 . S
C79 N77 1.333 1_556 S
C79 C80 1.379 . S
C79 H87 0.952 . S
C80 C79 1.379 . S
C80 C81 1.390 . S
C80 H100 0.949 . S
C81 C80 1.390 . S
C81 C82 1.357 1_556 S
C82 C78 1.370 . S
C82 C81 1.357 1_554 S
C82 H101 0.950 . S
Zn83 N77 2.020 . S
Zn83 O86 2.025 . S
Zn83 O91 2.024 . S
Zn83 O93 2.039 1_554 S
Zn83 O95 2.034 . S
O84 C68 1.251 . S
O84 Zn75 2.039 . S
C85 O90 1.246 . S
C85 O91 1.249 . S
O86 C68 1.254 . S
O86 Zn83 2.025 . S
H87 C79 0.952 . S
H88 C70 0.952 . S
H89 C78 0.948 . S
O90 Zn75 2.034 . S
O90 C85 1.246 . S
O91 Zn83 2.024 . S
O91 C85 1.249 . S
H92 C74 0.948 . S
O93 Zn83 2.039 1_556 S
O93 C97 1.251 . S
O94 Zn75 2.025 1_556 S
O94 C97 1.254 . S
O95 C76 1.246 . S
O95 Zn83 2.034 . S
O96 Zn75 2.024 . S
O96 C76 1.249 . S
C97 O93 1.251 . S
C97 O94 1.254 . S
H98 C71 0.949 . S
H99 C73 0.950 . S
H100 C80 0.949 . S
H101 C82 0.950 . S
C102 O118 1.251 . S
C102 O120 1.254 . S
N103 C104 1.333 . S
N103 C108 1.307 . S
N103 Zn109 2.020 . S
C104 N103 1.333 . S
C104 C105 1.379 . S
C104 H122 0.952 . S
C105 C104 1.379 . S
C105 C106 1.390 . S
C105 H132 0.949 . S
C106 C105 1.390 . S
C106 C107 1.357 . S
C107 C106 1.357 . S
C107 C108 1.370 . S
C107 H133 0.950 . S
C108 N103 1.307 . S
C108 C107 1.370 . S
C108 H126 0.948 . S
Zn109 N103 2.020 . S
Zn109 O118 2.039 . S
Zn109 O124 2.034 . S
Zn109 O128 2.025 . S
Zn109 O130 2.024 . S
C110 O129 1.246 . S
C110 O130 1.249 . S
N111 C112 1.307 . S
N111 C113 1.333 . S
N111 Zn117 2.020 . S
C112 N111 1.307 . S
C112 C116 1.370 . S
C112 H123 0.948 . S
C113 N111 1.333 . S
C113 C114 1.379 . S
C113 H121 0.952 . S
C114 C113 1.379 . S
C114 C115 1.390 . S
C114 H134 0.949 . S
C115 C114 1.390 . S
C115 C116 1.357 . S
C116 C112 1.370 . S
C116 C115 1.357 . S
C116 H135 0.950 . S
Zn117 N111 2.020 . S
Zn117 O120 2.025 . S
Zn117 O125 2.024 . S
Zn117 O127 2.039 . S
Zn117 O129 2.034 . S
O118 C102 1.251 . S
O118 Zn109 2.039 . S
C119 O124 1.246 . S
C119 O125 1.249 . S
O120 C102 1.254 . S
O120 Zn117 2.025 . S
H121 C113 0.952 . S
H122 C104 0.952 . S
H123 C112 0.948 . S
O124 Zn109 2.034 . S
O124 C119 1.246 . S
O125 Zn117 2.024 . S
O125 C119 1.249 . S
H126 C108 0.948 . S
O127 Zn117 2.039 . S
O127 C131 1.251 . S
O128 Zn109 2.025 . S
O128 C131 1.254 . S
O129 C110 1.246 . S
O129 Zn117 2.034 . S
O130 Zn109 2.024 . S
O130 C110 1.249 . S
C131 O127 1.251 . S
C131 O128 1.254 . S
H132 C105 0.949 . S
H133 C107 0.950 . S
H134 C114 0.949 . S
H135 C116 0.950 . S
C136 O152 1.251 . S
C136 O154 1.254 . S
N137 C138 1.333 . S
N137 C142 1.307 . S
N137 Zn143 2.020 . S
C138 N137 1.333 . S
C138 C139 1.379 . S
C138 H156 0.952 . S
C139 C138 1.379 . S
C139 C140 1.390 . S
C139 H166 0.949 . S
C140 C139 1.390 . S
C140 C141 1.357 . S
C141 C140 1.357 . S
C141 C142 1.370 . S
C141 H167 0.950 . S
C142 N137 1.307 . S
C142 C141 1.370 . S
C142 H160 0.948 . S
Zn143 N137 2.020 . S
Zn143 O152 2.039 . S
Zn143 O158 2.034 . S
Zn143 O162 2.025 . S
Zn143 O164 2.024 . S
C144 O163 1.246 . S
C144 O164 1.249 . S
N145 C146 1.307 . S
N145 C147 1.333 . S
N145 Zn151 2.020 . S
C146 N145 1.307 . S
C146 C150 1.370 . S
C146 H157 0.948 . S
C147 N145 1.333 . S
C147 C148 1.379 . S
C147 H155 0.952 . S
C148 C147 1.379 . S
C148 C149 1.390 . S
C148 H168 0.949 . S
C149 C148 1.390 . S
C149 C150 1.357 . S
C150 C146 1.370 . S
C150 C149 1.357 . S
C150 H169 0.950 . S
Zn151 N145 2.020 . S
Zn151 O154 2.025 . S
Zn151 O159 2.024 . S
Zn151 O161 2.039 . S
Zn151 O163 2.034 . S
O152 C136 1.251 . S
O152 Zn143 2.039 . S
C153 O158 1.246 . S
C153 O159 1.249 . S
O154 C136 1.254 . S
O154 Zn151 2.025 . S
H155 C147 0.952 . S
H156 C138 0.952 . S
H157 C146 0.948 . S
O158 Zn143 2.034 . S
O158 C153 1.246 . S
O159 Zn151 2.024 . S
O159 C153 1.249 . S
H160 C142 0.948 . S
O161 Zn151 2.039 . S
O161 C165 1.251 . S
O162 Zn143 2.025 . S
O162 C165 1.254 . S
O163 C144 1.246 . S
O163 Zn151 2.034 . S
O164 Zn143 2.024 . S
O164 C144 1.249 . S
C165 O161 1.251 . S
C165 O162 1.254 . S
H166 C139 0.949 . S
H167 C141 0.950 . S
H168 C148 0.949 . S
H169 C150 0.950 . S
C170 O186 1.251 . S
C170 O188 1.254 . S
N171 C172 1.333 . S
N171 C176 1.307 . S
N171 Zn177 2.020 . S
C172 N171 1.333 . S
C172 C173 1.379 . S
C172 H190 0.952 . S
C173 C172 1.379 . S
C173 C174 1.390 . S
C173 H200 0.949 . S
C174 C173 1.390 . S
C174 C175 1.357 . S
C175 C174 1.357 . S
C175 C176 1.370 . S
C175 H201 0.950 . S
C176 N171 1.307 . S
C176 C175 1.370 . S
C176 H194 0.948 . S
Zn177 N171 2.020 . S
Zn177 O186 2.039 . S
Zn177 O192 2.034 . S
Zn177 O196 2.025 . S
Zn177 O198 2.024 . S
C178 O197 1.246 . S
C178 O198 1.249 . S
N179 C180 1.307 . S
N179 C181 1.333 . S
N179 Zn185 2.020 . S
C180 N179 1.307 . S
C180 C184 1.370 . S
C180 H191 0.948 . S
C181 N179 1.333 . S
C181 C182 1.379 . S
C181 H189 0.952 . S
C182 C181 1.379 . S
C182 C183 1.390 . S
C182 H202 0.949 . S
C183 C182 1.390 . S
C183 C184 1.357 . S
C184 C180 1.370 . S
C184 C183 1.357 . S
C184 H203 0.950 . S
Zn185 N179 2.020 . S
Zn185 O188 2.025 . S
Zn185 O193 2.024 . S
Zn185 O195 2.039 . S
Zn185 O197 2.034 . S
O186 C170 1.251 . S
O186 Zn177 2.039 . S
C187 O192 1.246 . S
C187 O193 1.249 . S
O188 C170 1.254 . S
O188 Zn185 2.025 . S
H189 C181 0.952 . S
H190 C172 0.952 . S
H191 C180 0.948 . S
O192 Zn177 2.034 . S
O192 C187 1.246 . S
O193 Zn185 2.024 . S
O193 C187 1.249 . S
H194 C176 0.948 . S
O195 Zn185 2.039 . S
O195 C199 1.251 . S
O196 Zn177 2.025 . S
O196 C199 1.254 . S
O197 C178 1.246 . S
O197 Zn185 2.034 . S
O198 Zn177 2.024 . S
O198 C178 1.249 . S
C199 O195 1.251 . S
C199 O196 1.254 . S
H200 C173 0.949 . S
H201 C175 0.950 . S
H202 C182 0.949 . S
H203 C184 0.950 . S
C204 O220 1.251 . S
C204 O222 1.254 . S
N205 C206 1.333 . S
N205 C210 1.307 . S
N205 Zn211 2.020 . S
C206 N205 1.333 . S
C206 C207 1.379 . S
C206 H224 0.952 . S
C207 C206 1.379 . S
C207 C208 1.390 . S
C207 H234 0.949 . S
C208 C207 1.390 . S
C208 C209 1.357 . S
C209 C208 1.357 . S
C209 C210 1.370 . S
C209 H235 0.950 . S
C210 N205 1.307 . S
C210 C209 1.370 . S
C210 H228 0.948 . S
Zn211 N205 2.020 . S
Zn211 O220 2.039 . S
Zn211 O226 2.034 . S
Zn211 O230 2.025 . S
Zn211 O232 2.024 . S
C212 O231 1.246 . S
C212 O232 1.249 . S
N213 C214 1.307 . S
N213 C215 1.333 . S
N213 Zn219 2.020 . S
C214 N213 1.307 . S
C214 C218 1.370 . S
C214 H225 0.948 . S
C215 N213 1.333 . S
C215 C216 1.379 . S
C215 H223 0.952 . S
C216 C215 1.379 . S
C216 C217 1.390 . S
C216 H236 0.949 . S
C217 C216 1.390 . S
C217 C218 1.357 . S
C218 C214 1.370 . S
C218 C217 1.357 . S
C218 H237 0.950 . S
Zn219 N213 2.020 . S
Zn219 O222 2.025 . S
Zn219 O227 2.024 . S
Zn219 O229 2.039 . S
Zn219 O231 2.034 . S
O220 C204 1.251 . S
O220 Zn211 2.039 . S
C221 O226 1.246 . S
C221 O227 1.249 . S
O222 C204 1.254 . S
O222 Zn219 2.025 . S
H223 C215 0.952 . S
H224 C206 0.952 . S
H225 C214 0.948 . S
O226 Zn211 2.034 . S
O226 C221 1.246 . S
O227 Zn219 2.024 . S
O227 C221 1.249 . S
H228 C210 0.948 . S
O229 Zn219 2.039 . S
O229 C233 1.251 . S
O230 Zn211 2.025 . S
O230 C233 1.254 . S
O231 C212 1.246 . S
O231 Zn219 2.034 . S
O232 Zn211 2.024 . S
O232 C212 1.249 . S
C233 O229 1.251 . S
C233 O230 1.254 . S
H234 C207 0.949 . S
H235 C209 0.950 . S
H236 C216 0.949 . S
H237 C218 0.950 . S
C238 O254 1.251 . S
C238 O256 1.254 . S
N239 C240 1.333 . S
N239 C244 1.307 . S
N239 Zn245 2.020 . S
C240 N239 1.333 . S
C240 C241 1.379 . S
C240 H258 0.952 . S
C241 C240 1.379 . S
C241 C242 1.390 . S
C241 H268 0.949 . S
C242 C241 1.390 . S
C242 C243 1.357 . S
C243 C242 1.357 . S
C243 C244 1.370 . S
C243 H269 0.950 . S
C244 N239 1.307 . S
C244 C243 1.370 . S
C244 H262 0.948 . S
Zn245 N239 2.020 . S
Zn245 O254 2.039 . S
Zn245 O260 2.034 . S
Zn245 O264 2.025 . S
Zn245 O266 2.024 . S
C246 O265 1.246 . S
C246 O266 1.249 . S
N247 C248 1.307 . S
N247 C249 1.333 . S
N247 Zn253 2.020 . S
C248 N247 1.307 . S
C248 C252 1.370 . S
C248 H259 0.948 . S
C249 N247 1.333 . S
C249 C250 1.379 . S
C249 H257 0.952 . S
C250 C249 1.379 . S
C250 C251 1.390 . S
C250 H270 0.949 . S
C251 C250 1.390 . S
C251 C252 1.357 . S
C252 C248 1.370 . S
C252 C251 1.357 . S
C252 H271 0.950 . S
Zn253 N247 2.020 . S
Zn253 O256 2.025 . S
Zn253 O261 2.024 . S
Zn253 O263 2.039 . S
Zn253 O265 2.034 . S
O254 C238 1.251 . S
O254 Zn245 2.039 . S
C255 O260 1.246 . S
C255 O261 1.249 . S
O256 C238 1.254 . S
O256 Zn253 2.025 . S
H257 C249 0.952 . S
H258 C240 0.952 . S
H259 C248 0.948 . S
O260 Zn245 2.034 . S
O260 C255 1.246 . S
O261 Zn253 2.024 . S
O261 C255 1.249 . S
H262 C244 0.948 . S
O263 Zn253 2.039 . S
O263 C267 1.251 . S
O264 Zn245 2.025 . S
O264 C267 1.254 . S
O265 C246 1.246 . S
O265 Zn253 2.034 . S
O266 Zn245 2.024 . S
O266 C246 1.249 . S
C267 O263 1.251 . S
C267 O264 1.254 . S
H268 C241 0.949 . S
H269 C243 0.950 . S
H270 C250 0.949 . S
H271 C252 0.950 . S
C272 O288 1.251 . S
C272 O290 1.254 . S
N273 C274 1.333 . S
N273 C278 1.307 . S
N273 Zn279 2.020 . S
C274 N273 1.333 . S
C274 C275 1.379 . S
C274 H292 0.952 . S
C275 C274 1.379 . S
C275 C276 1.390 . S
C275 H302 0.949 . S
C276 C275 1.390 . S
C276 C277 1.357 . S
C277 C276 1.357 . S
C277 C278 1.370 . S
C277 H303 0.950 . S
C278 N273 1.307 . S
C278 C277 1.370 . S
C278 H296 0.948 . S
Zn279 N273 2.020 . S
Zn279 O288 2.039 . S
Zn279 O294 2.034 . S
Zn279 O298 2.025 . S
Zn279 O300 2.024 . S
C280 O299 1.246 . S
C280 O300 1.249 . S
N281 C282 1.307 . S
N281 C283 1.333 . S
N281 Zn287 2.020 . S
C282 N281 1.307 . S
C282 C286 1.370 . S
C282 H293 0.948 . S
C283 N281 1.333 . S
C283 C284 1.379 . S
C283 H291 0.952 . S
C284 C283 1.379 . S
C284 C285 1.390 . S
C284 H304 0.949 . S
C285 C284 1.390 . S
C285 C286 1.357 . S
C286 C282 1.370 . S
C286 C285 1.357 . S
C286 H305 0.950 . S
Zn287 N281 2.020 . S
Zn287 O290 2.025 . S
Zn287 O295 2.024 . S
Zn287 O297 2.039 . S
Zn287 O299 2.034 . S
O288 C272 1.251 . S
O288 Zn279 2.039 . S
C289 O294 1.246 . S
C289 O295 1.249 . S
O290 C272 1.254 . S
O290 Zn287 2.025 . S
H291 C283 0.952 . S
H292 C274 0.952 . S
H293 C282 0.948 . S
O294 Zn279 2.034 . S
O294 C289 1.246 . S
O295 Zn287 2.024 . S
O295 C289 1.249 . S
H296 C278 0.948 . S
O297 Zn287 2.039 . S
O297 C301 1.251 . S
O298 Zn279 2.025 . S
O298 C301 1.254 . S
O299 C280 1.246 . S
O299 Zn287 2.034 . S
O300 Zn279 2.024 . S
O300 C280 1.249 . S
C301 O297 1.251 . S
C301 O298 1.254 . S
H302 C275 0.949 . S
H303 C277 0.950 . S
H304 C284 0.949 . S
H305 C286 0.950 . S
C306 O322 1.251 . S
C306 O324 1.254 . S
N307 C308 1.333 . S
N307 C312 1.307 . S
N307 Zn313 2.020 . S
C308 N307 1.333 . S
C308 C309 1.379 . S
C308 H326 0.952 . S
C309 C308 1.379 . S
C309 C310 1.390 . S
C309 H336 0.949 . S
C310 C309 1.390 . S
C310 C311 1.357 . S
C311 C310 1.357 . S
C311 C312 1.370 . S
C311 H337 0.950 . S
C312 N307 1.307 . S
C312 C311 1.370 . S
C312 H330 0.948 . S
Zn313 N307 2.020 . S
Zn313 O322 2.039 . S
Zn313 O328 2.034 . S
Zn313 O332 2.025 . S
Zn313 O334 2.024 . S
C314 O333 1.246 . S
C314 O334 1.249 . S
N315 C316 1.307 . S
N315 C317 1.333 . S
N315 Zn321 2.020 . S
C316 N315 1.307 . S
C316 C320 1.370 . S
C316 H327 0.948 . S
C317 N315 1.333 . S
C317 C318 1.379 . S
C317 H325 0.952 . S
C318 C317 1.379 . S
C318 C319 1.390 . S
C318 H338 0.949 . S
C319 C318 1.390 . S
C319 C320 1.357 . S
C320 C316 1.370 . S
C320 C319 1.357 . S
C320 H339 0.950 . S
Zn321 N315 2.020 . S
Zn321 O324 2.025 . S
Zn321 O329 2.024 . S
Zn321 O331 2.039 . S
Zn321 O333 2.034 . S
O322 C306 1.251 . S
O322 Zn313 2.039 . S
C323 O328 1.246 . S
C323 O329 1.249 . S
O324 C306 1.254 . S
O324 Zn321 2.025 . S
H325 C317 0.952 . S
H326 C308 0.952 . S
H327 C316 0.948 . S
O328 Zn313 2.034 . S
O328 C323 1.246 . S
O329 Zn321 2.024 . S
O329 C323 1.249 . S
H330 C312 0.948 . S
O331 Zn321 2.039 . S
O331 C335 1.251 . S
O332 Zn313 2.025 . S
O332 C335 1.254 . S
O333 C314 1.246 . S
O333 Zn321 2.034 . S
O334 Zn313 2.024 . S
O334 C314 1.249 . S
C335 O331 1.251 . S
C335 O332 1.254 . S
H336 C309 0.949 . S
H337 C311 0.950 . S
H338 C318 0.949 . S
H339 C320 0.950 . S
C340 O356 1.251 . S
C340 O358 1.254 . S
N341 C342 1.333 . S
N341 C346 1.307 . S
N341 Zn347 2.020 . S
C342 N341 1.333 . S
C342 C343 1.379 . S
C342 H360 0.952 . S
C343 C342 1.379 . S
C343 C344 1.390 . S
C343 H370 0.949 . S
C344 C343 1.390 . S
C344 C345 1.357 . S
C345 C344 1.357 . S
C345 C346 1.370 . S
C345 H371 0.950 . S
C346 N341 1.307 . S
C346 C345 1.370 . S
C346 H364 0.948 . S
Zn347 N341 2.020 . S
Zn347 O356 2.039 . S
Zn347 O362 2.034 . S
Zn347 O366 2.025 . S
Zn347 O368 2.024 . S
C348 O367 1.246 . S
C348 O368 1.249 . S
N349 C350 1.307 . S
N349 C351 1.333 . S
N349 Zn355 2.020 . S
C350 N349 1.307 . S
C350 C354 1.370 . S
C350 H361 0.948 . S
C351 N349 1.333 . S
C351 C352 1.379 . S
C351 H359 0.952 . S
C352 C351 1.379 . S
C352 C353 1.390 . S
C352 H372 0.949 . S
C353 C352 1.390 . S
C353 C354 1.357 . S
C354 C350 1.370 . S
C354 C353 1.357 . S
C354 H373 0.950 . S
Zn355 N349 2.020 . S
Zn355 O358 2.025 . S
Zn355 O363 2.024 . S
Zn355 O365 2.039 . S
Zn355 O367 2.034 . S
O356 C340 1.251 . S
O356 Zn347 2.039 . S
C357 O362 1.246 . S
C357 O363 1.249 . S
O358 C340 1.254 . S
O358 Zn355 2.025 . S
H359 C351 0.952 . S
H360 C342 0.952 . S
H361 C350 0.948 . S
O362 Zn347 2.034 . S
O362 C357 1.246 . S
O363 Zn355 2.024 . S
O363 C357 1.249 . S
H364 C346 0.948 . S
O365 Zn355 2.039 . S
O365 C369 1.251 . S
O366 Zn347 2.025 . S
O366 C369 1.254 . S
O367 C348 1.246 . S
O367 Zn355 2.034 . S
O368 Zn347 2.024 . S
O368 C348 1.249 . S
C369 O365 1.251 . S
C369 O366 1.254 . S
H370 C343 0.949 . S
H371 C345 0.950 . S
H372 C352 0.949 . S
H373 C354 0.950 . S
C374 O390 1.251 . S
C374 O392 1.254 . S
N375 C376 1.333 . S
N375 C380 1.307 . S
N375 Zn381 2.020 . S
C376 N375 1.333 . S
C376 C377 1.379 . S
C376 H394 0.952 . S
C377 C376 1.379 . S
C377 C378 1.390 . S
C377 H404 0.949 . S
C378 C377 1.390 . S
C378 C379 1.357 . S
C379 C378 1.357 . S
C379 C380 1.370 . S
C379 H405 0.950 . S
C380 N375 1.307 . S
C380 C379 1.370 . S
C380 H398 0.948 . S
Zn381 N375 2.020 . S
Zn381 O390 2.039 . S
Zn381 O396 2.034 . S
Zn381 O400 2.025 . S
Zn381 O402 2.024 . S
C382 O401 1.246 . S
C382 O402 1.249 . S
N383 C384 1.307 . S
N383 C385 1.333 . S
N383 Zn389 2.020 . S
C384 N383 1.307 . S
C384 C388 1.370 . S
C384 H395 0.948 . S
C385 N383 1.333 . S
C385 C386 1.379 . S
C385 H393 0.952 . S
C386 C385 1.379 . S
C386 C387 1.390 . S
C386 H406 0.949 . S
C387 C386 1.390 . S
C387 C388 1.357 . S
C388 C384 1.370 . S
C388 C387 1.357 . S
C388 H407 0.950 . S
Zn389 N383 2.020 . S
Zn389 O392 2.025 . S
Zn389 O397 2.024 . S
Zn389 O399 2.039 . S
Zn389 O401 2.034 . S
O390 C374 1.251 . S
O390 Zn381 2.039 . S
C391 O396 1.246 . S
C391 O397 1.249 . S
O392 C374 1.254 . S
O392 Zn389 2.025 . S
H393 C385 0.952 . S
H394 C376 0.952 . S
H395 C384 0.948 . S
O396 Zn381 2.034 . S
O396 C391 1.246 . S
O397 Zn389 2.024 . S
O397 C391 1.249 . S
H398 C380 0.948 . S
O399 Zn389 2.039 . S
O399 C403 1.251 . S
O400 Zn381 2.025 . S
O400 C403 1.254 . S
O401 C382 1.246 . S
O401 Zn389 2.034 . S
O402 Zn381 2.024 . S
O402 C382 1.249 . S
C403 O399 1.251 . S
C403 O400 1.254 . S
H404 C377 0.949 . S
H405 C379 0.950 . S
H406 C386 0.949 . S
H407 C388 0.950 . S
C408 O424 1.251 . S
C408 O426 1.254 . S
N409 C410 1.333 . S
N409 C414 1.307 1_655 S
N409 Zn415 2.020 . S
C410 N409 1.333 . S
C410 C411 1.379 1_655 S
C410 H428 0.952 . S
C411 C410 1.379 1_455 S
C411 C412 1.390 . S
C411 H438 0.949 . S
C412 C411 1.390 . S
C412 C413 1.357 . S
C413 C412 1.357 . S
C413 C414 1.370 . S
C413 H439 0.950 . S
C414 N409 1.307 1_455 S
C414 C413 1.370 . S
C414 H432 0.948 . S
Zn415 N409 2.020 . S
Zn415 O424 2.039 . S
Zn415 O430 2.034 . S
Zn415 O434 2.025 . S
Zn415 O436 2.024 . S
C416 O435 1.246 . S
C416 O436 1.249 . S
N417 C418 1.307 . S
N417 C419 1.333 . S
N417 Zn423 2.020 . S
C418 N417 1.307 . S
C418 C422 1.370 . S
C418 H429 0.948 . S
C419 N417 1.333 . S
C419 C420 1.379 . S
C419 H427 0.952 . S
C420 C419 1.379 . S
C420 C421 1.390 . S
C420 H440 0.949 . S
C421 C420 1.390 . S
C421 C422 1.357 . S
C422 C418 1.370 . S
C422 C421 1.357 . S
C422 H441 0.950 . S
Zn423 N417 2.020 . S
Zn423 O426 2.025 . S
Zn423 O431 2.024 . S
Zn423 O433 2.039 . S
Zn423 O435 2.034 . S
O424 C408 1.251 . S
O424 Zn415 2.039 . S
C425 O430 1.246 . S
C425 O431 1.249 . S
O426 C408 1.254 . S
O426 Zn423 2.025 . S
H427 C419 0.952 . S
H428 C410 0.952 . S
H429 C418 0.948 . S
O430 Zn415 2.034 . S
O430 C425 1.246 . S
O431 Zn423 2.024 . S
O431 C425 1.249 . S
H432 C414 0.948 . S
O433 Zn423 2.039 . S
O433 C437 1.251 . S
O434 Zn415 2.025 . S
O434 C437 1.254 . S
O435 C416 1.246 . S
O435 Zn423 2.034 . S
O436 Zn415 2.024 . S
O436 C416 1.249 . S
C437 O433 1.251 . S
C437 O434 1.254 . S
H438 C411 0.949 . S
H439 C413 0.950 . S
H440 C420 0.949 . S
H441 C422 0.950 . S
C442 O458 1.251 . S
C442 O460 1.254 . S
N443 C444 1.333 . S
N443 C448 1.307 . S
N443 Zn449 2.020 . S
C444 N443 1.333 . S
C444 C445 1.379 . S
C444 H462 0.952 . S
C445 C444 1.379 . S
C445 C446 1.390 . S
C445 H472 0.949 . S
C446 C445 1.390 . S
C446 C447 1.357 . S
C447 C446 1.357 . S
C447 C448 1.370 . S
C447 H473 0.950 . S
C448 N443 1.307 . S
C448 C447 1.370 . S
C448 H466 0.948 . S
Zn449 N443 2.020 . S
Zn449 O458 2.039 . S
Zn449 O464 2.034 . S
Zn449 O468 2.025 . S
Zn449 O470 2.024 . S
C450 O469 1.246 . S
C450 O470 1.249 . S
N451 C452 1.307 . S
N451 C453 1.333 . S
N451 Zn457 2.020 . S
C452 N451 1.307 . S
C452 C456 1.370 . S
C452 H463 0.948 . S
C453 N451 1.333 . S
C453 C454 1.379 . S
C453 H461 0.952 . S
C454 C453 1.379 . S
C454 C455 1.390 . S
C454 H474 0.949 . S
C455 C454 1.390 . S
C455 C456 1.357 . S
C456 C452 1.370 . S
C456 C455 1.357 . S
C456 H475 0.950 . S
Zn457 N451 2.020 . S
Zn457 O460 2.025 . S
Zn457 O465 2.024 . S
Zn457 O467 2.039 . S
Zn457 O469 2.034 . S
O458 C442 1.251 . S
O458 Zn449 2.039 . S
C459 O464 1.246 . S
C459 O465 1.249 . S
O460 C442 1.254 . S
O460 Zn457 2.025 . S
H461 C453 0.952 . S
H462 C444 0.952 . S
H463 C452 0.948 . S
O464 Zn449 2.034 . S
O464 C459 1.246 . S
O465 Zn457 2.024 . S
O465 C459 1.249 . S
H466 C448 0.948 . S
O467 Zn457 2.039 . S
O467 C471 1.251 . S
O468 Zn449 2.025 . S
O468 C471 1.254 . S
O469 C450 1.246 . S
O469 Zn457 2.034 . S
O470 Zn449 2.024 . S
O470 C450 1.249 . S
C471 O467 1.251 . S
C471 O468 1.254 . S
H472 C445 0.949 . S
H473 C447 0.950 . S
H474 C454 0.949 . S
H475 C456 0.950 . S
C476 O492 1.251 . S
C476 O494 1.254 . S
N477 C478 1.333 . S
N477 C482 1.307 1_545 S
N477 Zn483 2.020 . S
C478 N477 1.333 . S
C478 C479 1.379 1_545 S
C478 H496 0.952 . S
C479 C478 1.379 1_565 S
C479 C480 1.390 . S
C479 H506 0.949 . S
C480 C479 1.390 . S
C480 C481 1.357 . S
C481 C480 1.357 . S
C481 C482 1.370 . S
C481 H507 0.950 . S
C482 N477 1.307 1_565 S
C482 C481 1.370 . S
C482 H500 0.948 . S
Zn483 N477 2.020 . S
Zn483 O492 2.039 . S
Zn483 O498 2.034 . S
Zn483 O502 2.025 . S
Zn483 O504 2.024 . S
C484 O503 1.246 . S
C484 O504 1.249 . S
N485 C486 1.307 . S
N485 C487 1.333 . S
N485 Zn491 2.020 . S
C486 N485 1.307 . S
C486 C490 1.370 . S
C486 H497 0.948 . S
C487 N485 1.333 . S
C487 C488 1.379 . S
C487 H495 0.952 . S
C488 C487 1.379 . S
C488 C489 1.390 . S
C488 H508 0.949 . S
C489 C488 1.390 . S
C489 C490 1.357 . S
C490 C486 1.370 . S
C490 C489 1.357 . S
C490 H509 0.950 . S
Zn491 N485 2.020 . S
Zn491 O494 2.025 . S
Zn491 O499 2.024 . S
Zn491 O501 2.039 . S
Zn491 O503 2.034 . S
O492 C476 1.251 . S
O492 Zn483 2.039 . S
C493 O498 1.246 . S
C493 O499 1.249 . S
O494 C476 1.254 . S
O494 Zn491 2.025 . S
H495 C487 0.952 . S
H496 C478 0.952 . S
H497 C486 0.948 . S
O498 Zn483 2.034 . S
O498 C493 1.246 . S
O499 Zn491 2.024 . S
O499 C493 1.249 . S
H500 C482 0.948 . S
O501 Zn491 2.039 . S
O501 C505 1.251 . S
O502 Zn483 2.025 . S
O502 C505 1.254 . S
O503 C484 1.246 . S
O503 Zn491 2.034 . S
O504 Zn483 2.024 . S
O504 C484 1.249 . S
C505 O501 1.251 . S
C505 O502 1.254 . S
H506 C479 0.949 . S
H507 C481 0.950 . S
H508 C488 0.949 . S
H509 C490 0.950 . S
C510 O526 1.251 . S
C510 O528 1.254 . S
N511 C512 1.333 . S
N511 C516 1.307 . S
N511 Zn517 2.020 . S
C512 N511 1.333 . S
C512 C513 1.379 . S
C512 H530 0.952 . S
C513 C512 1.379 . S
C513 C514 1.390 . S
C513 H540 0.949 . S
C514 C513 1.390 . S
C514 C515 1.357 . S
C515 C514 1.357 . S
C515 C516 1.370 . S
C515 H541 0.950 . S
C516 N511 1.307 . S
C516 C515 1.370 . S
C516 H534 0.948 . S
Zn517 N511 2.020 . S
Zn517 O526 2.039 . S
Zn517 O532 2.034 . S
Zn517 O536 2.025 . S
Zn517 O538 2.024 . S
C518 O537 1.246 . S
C518 O538 1.249 . S
N519 C520 1.307 1_545 S
N519 C521 1.333 . S
N519 Zn525 2.020 . S
C520 N519 1.307 1_565 S
C520 C524 1.370 . S
C520 H531 0.948 . S
C521 N519 1.333 . S
C521 C522 1.379 1_545 S
C521 H529 0.952 . S
C522 C521 1.379 1_565 S
C522 C523 1.390 . S
C522 H542 0.949 . S
C523 C522 1.390 . S
C523 C524 1.357 . S
C524 C520 1.370 . S
C524 C523 1.357 . S
C524 H543 0.950 . S
Zn525 N519 2.020 . S
Zn525 O528 2.025 . S
Zn525 O533 2.024 . S
Zn525 O535 2.039 . S
Zn525 O537 2.034 . S
O526 C510 1.251 . S
O526 Zn517 2.039 . S
C527 O532 1.246 . S
C527 O533 1.249 . S
O528 C510 1.254 . S
O528 Zn525 2.025 . S
H529 C521 0.952 . S
H530 C512 0.952 . S
H531 C520 0.948 . S
O532 Zn517 2.034 . S
O532 C527 1.246 . S
O533 Zn525 2.024 . S
O533 C527 1.249 . S
H534 C516 0.948 . S
O535 Zn525 2.039 . S
O535 C539 1.251 . S
O536 Zn517 2.025 . S
O536 C539 1.254 . S
O537 C518 1.246 . S
O537 Zn525 2.034 . S
O538 Zn517 2.024 . S
O538 C518 1.249 . S
C539 O535 1.251 . S
C539 O536 1.254 . S
H540 C513 0.949 . S
H541 C515 0.950 . S
H542 C522 0.949 . S
H543 C524 0.950 . S
C544 O560 1.251 . S
C544 O562 1.254 . S
N545 C546 1.333 . S
N545 C550 1.307 . S
N545 Zn551 2.020 . S
C546 N545 1.333 . S
C546 C547 1.379 . S
C546 H564 0.952 . S
C547 C546 1.379 . S
C547 C548 1.390 . S
C547 H574 0.949 . S
C548 C547 1.390 . S
C548 C549 1.357 . S
C549 C548 1.357 . S
C549 C550 1.370 . S
C549 H575 0.950 . S
C550 N545 1.307 . S
C550 C549 1.370 . S
C550 H568 0.948 . S
Zn551 N545 2.020 . S
Zn551 O560 2.039 . S
Zn551 O566 2.034 . S
Zn551 O570 2.025 . S
Zn551 O572 2.024 . S
C552 O571 1.246 . S
C552 O572 1.249 . S
N553 C554 1.307 1_655 S
N553 C555 1.333 . S
N553 Zn559 2.020 . S
C554 N553 1.307 1_455 S
C554 C558 1.370 . S
C554 H565 0.948 . S
C555 N553 1.333 . S
C555 C556 1.379 1_655 S
C555 H563 0.952 . S
C556 C555 1.379 1_455 S
C556 C557 1.390 . S
C556 H576 0.949 . S
C557 C556 1.390 . S
C557 C558 1.357 . S
C558 C554 1.370 . S
C558 C557 1.357 . S
C558 H577 0.950 . S
Zn559 N553 2.020 . S
Zn559 O562 2.025 . S
Zn559 O567 2.024 . S
Zn559 O569 2.039 . S
Zn559 O571 2.034 . S
O560 C544 1.251 . S
O560 Zn551 2.039 . S
C561 O566 1.246 . S
C561 O567 1.249 . S
O562 C544 1.254 . S
O562 Zn559 2.025 . S
H563 C555 0.952 . S
H564 C546 0.952 . S
H565 C554 0.948 . S
O566 Zn551 2.034 . S
O566 C561 1.246 . S
O567 Zn559 2.024 . S
O567 C561 1.249 . S
H568 C550 0.948 . S
O569 Zn559 2.039 . S
O569 C573 1.251 . S
O570 Zn551 2.025 . S
O570 C573 1.254 . S
O571 C552 1.246 . S
O571 Zn559 2.034 . S
O572 Zn551 2.024 . S
O572 C552 1.249 . S
C573 O569 1.251 . S
C573 O570 1.254 . S
H574 C547 0.949 . S
H575 C549 0.950 . S
H576 C556 0.949 . S
H577 C558 0.950 . S
C578 O594 1.251 . S
C578 O596 1.254 . S
N579 C580 1.333 . S
N579 C584 1.307 . S
N579 Zn585 2.020 . S
C580 N579 1.333 . S
C580 C581 1.379 . S
C580 H598 0.952 . S
C581 C580 1.379 . S
C581 C582 1.390 . S
C581 H608 0.949 . S
C582 C581 1.390 . S
C582 C583 1.357 . S
C583 C582 1.357 . S
C583 C584 1.370 . S
C583 H609 0.950 . S
C584 N579 1.307 . S
C584 C583 1.370 . S
C584 H602 0.948 . S
Zn585 N579 2.020 . S
Zn585 O594 2.039 . S
Zn585 O600 2.034 . S
Zn585 O604 2.025 . S
Zn585 O606 2.024 . S
C586 O605 1.246 . S
C586 O606 1.249 . S
N587 C588 1.307 . S
N587 C589 1.333 . S
N587 Zn593 2.020 . S
C588 N587 1.307 . S
C588 C592 1.370 . S
C588 H599 0.948 . S
C589 N587 1.333 . S
C589 C590 1.379 . S
C589 H597 0.952 . S
C590 C589 1.379 . S
C590 C591 1.390 . S
C590 H610 0.949 . S
C591 C590 1.390 . S
C591 C592 1.357 . S
C592 C588 1.370 . S
C592 C591 1.357 . S
C592 H611 0.950 . S
Zn593 N587 2.020 . S
Zn593 O596 2.025 . S
Zn593 O601 2.024 . S
Zn593 O603 2.039 . S
Zn593 O605 2.034 . S
O594 C578 1.251 . S
O594 Zn585 2.039 . S
C595 O600 1.246 . S
C595 O601 1.249 . S
O596 C578 1.254 . S
O596 Zn593 2.025 . S
H597 C589 0.952 . S
H598 C580 0.952 . S
H599 C588 0.948 . S
O600 Zn585 2.034 . S
O600 C595 1.246 . S
O601 Zn593 2.024 . S
O601 C595 1.249 . S
H602 C584 0.948 . S
O603 Zn593 2.039 . S
O603 C607 1.251 . S
O604 Zn585 2.025 . S
O604 C607 1.254 . S
O605 C586 1.246 . S
O605 Zn593 2.034 . S
O606 Zn585 2.024 . S
O606 C586 1.249 . S
C607 O603 1.251 . S
C607 O604 1.254 . S
H608 C581 0.949 . S
H609 C583 0.950 . S
H610 C590 0.949 . S
H611 C592 0.950 . S
H612 C620 0.950 . S
H613 C625 0.950 . S
H614 C622 0.950 . S
H615 C624 0.950 . S
H616 C626 0.950 . S
H617 C628 0.950 . S
H618 C630 0.950 . S
H619 C631 0.950 . S
C620 H612 0.950 . S
C620 C621 1.386 . S
C620 C622 1.391 . S
C621 C620 1.386 . S
C621 C625 1.393 1_556 S
C622 H614 0.950 . S
C622 C620 1.391 . S
C622 C623 1.400 1_556 S
C623 C622 1.400 1_554 S
C623 C624 1.398 . S
C623 C629 1.491 . S
C624 H615 0.950 . S
C624 C623 1.398 . S
C624 C625 1.391 . S
C625 H613 0.950 . S
C625 C621 1.393 1_554 S
C625 C624 1.391 . S
C626 H616 0.950 . S
C626 C627 1.386 . S
C626 C628 1.391 . S
C627 C626 1.386 . S
C627 C631 1.393 1_554 S
C628 H617 0.950 . S
C628 C626 1.391 . S
C628 C629 1.400 . S
C629 C623 1.491 . S
C629 C628 1.400 . S
C629 C630 1.398 1_554 S
C630 H618 0.950 . S
C630 C629 1.398 1_556 S
C630 C631 1.391 . S
C631 H619 0.950 . S
C631 C627 1.393 1_556 S
C631 C630 1.391 . S
H632 C640 0.950 . S
H633 C645 0.950 1_556 S
H634 C642 0.950 . S
H635 C644 0.950 . S
H636 C646 0.950 . S
H637 C648 0.950 . S
H638 C650 0.950 . S
H639 C651 0.950 . S
C640 H632 0.950 . S
C640 C641 1.386 . S
C640 C642 1.391 . S
C641 C640 1.386 . S
C641 C645 1.393 . S
C642 H634 0.950 . S
C642 C640 1.391 . S
C642 C643 1.400 . S
C643 C642 1.400 . S
C643 C644 1.398 1_554 S
C643 C649 1.491 . S
C644 H635 0.950 . S
C644 C643 1.398 1_556 S
C644 C645 1.391 1_556 S
C645 H633 0.950 1_554 S
C645 C641 1.393 . S
C645 C644 1.391 1_554 S
C646 H636 0.950 . S
C646 C647 1.386 . S
C646 C648 1.391 . S
C647 C646 1.386 . S
C647 C651 1.393 1_556 S
C648 H637 0.950 . S
C648 C646 1.391 . S
C648 C649 1.400 1_556 S
C649 C643 1.491 . S
C649 C648 1.400 1_554 S
C649 C650 1.398 . S
C650 H638 0.950 . S
C650 C649 1.398 . S
C650 C651 1.391 . S
C651 H639 0.950 . S
C651 C647 1.393 1_554 S
C651 C650 1.391 . S
H652 C660 0.950 . S
H653 C665 0.950 . S
H654 C662 0.950 . S
H655 C664 0.950 . S
H656 C666 0.950 . S
H657 C668 0.950 . S
H658 C670 0.950 . S
H659 C671 0.950 . S
C660 H652 0.950 . S
C660 C661 1.386 . S
C660 C662 1.391 . S
C661 C660 1.386 . S
C661 C665 1.393 1_556 S
C662 H654 0.950 . S
C662 C660 1.391 . S
C662 C663 1.400 1_556 S
C663 C662 1.400 1_554 S
C663 C664 1.398 . S
C663 C669 1.491 . S
C664 H655 0.950 . S
C664 C663 1.398 . S
C664 C665 1.391 . S
C665 H653 0.950 . S
C665 C661 1.393 1_554 S
C665 C664 1.391 . S
C666 H656 0.950 . S
C666 C667 1.386 . S
C666 C668 1.391 . S
C667 C666 1.386 . S
C667 C671 1.393 1_554 S
C668 H657 0.950 . S
C668 C666 1.391 . S
C668 C669 1.400 . S
C669 C663 1.491 . S
C669 C668 1.400 . S
C669 C670 1.398 1_554 S
C670 H658 0.950 . S
C670 C669 1.398 1_556 S
C670 C671 1.391 . S
C671 H659 0.950 . S
C671 C667 1.393 1_556 S
C671 C670 1.391 . S
H672 C680 0.950 . S
H673 C685 0.950 . S
H674 C682 0.950 . S
H675 C684 0.950 . S
H676 C686 0.950 . S
H677 C688 0.950 . S
H678 C690 0.950 . S
H679 C691 0.950 . S
C680 H672 0.950 . S
C680 C681 1.386 . S
C680 C682 1.391 . S
C681 C680 1.386 . S
C681 C685 1.393 . S
C682 H674 0.950 . S
C682 C680 1.391 . S
C682 C683 1.400 . S
C683 C682 1.400 . S
C683 C684 1.398 . S
C683 C689 1.491 . S
C684 H675 0.950 . S
C684 C683 1.398 . S
C684 C685 1.391 . S
C685 H673 0.950 . S
C685 C681 1.393 . S
C685 C684 1.391 . S
C686 H676 0.950 . S
C686 C687 1.386 . S
C686 C688 1.391 . S
C687 C686 1.386 . S
C687 C691 1.393 . S
C688 H677 0.950 . S
C688 C686 1.391 . S
C688 C689 1.400 . S
C689 C683 1.491 . S
C689 C688 1.400 . S
C689 C690 1.398 . S
C690 H678 0.950 . S
C690 C689 1.398 . S
C690 C691 1.391 . S
C691 H679 0.950 . S
C691 C687 1.393 . S
C691 C690 1.391 . S
H692 C700 0.950 . S
H693 C705 0.950 . S
H694 C702 0.950 . S
H695 C704 0.950 . S
H696 C706 0.950 . S
H697 C708 0.950 . S
H698 C710 0.950 . S
H699 C711 0.950 . S
C700 H692 0.950 . S
C700 C701 1.386 . S
C700 C702 1.391 . S
C701 C700 1.386 . S
C701 C705 1.393 . S
C702 H694 0.950 . S
C702 C700 1.391 . S
C702 C703 1.400 . S
C703 C702 1.400 . S
C703 C704 1.398 . S
C703 C709 1.491 . S
C704 H695 0.950 . S
C704 C703 1.398 . S
C704 C705 1.391 . S
C705 H693 0.950 . S
C705 C701 1.393 . S
C705 C704 1.391 . S
C706 H696 0.950 . S
C706 C707 1.386 . S
C706 C708 1.391 . S
C707 C706 1.386 . S
C707 C711 1.393 . S
C708 H697 0.950 . S
C708 C706 1.391 . S
C708 C709 1.400 . S
C709 C703 1.491 . S
C709 C708 1.400 . S
C709 C710 1.398 . S
C710 H698 0.950 . S
C710 C709 1.398 . S
C710 C711 1.391 . S
C711 H699 0.950 . S
C711 C707 1.393 . S
C711 C710 1.391 . S
H712 C720 0.950 . S
H713 C725 0.950 . S
H714 C722 0.950 . S
H715 C724 0.950 . S
H716 C726 0.950 . S
H717 C728 0.950 . S
H718 C730 0.950 . S
H719 C731 0.950 . S
C720 H712 0.950 . S
C720 C721 1.386 . S
C720 C722 1.391 . S
C721 C720 1.386 . S
C721 C725 1.393 . S
C722 H714 0.950 . S
C722 C720 1.391 . S
C722 C723 1.400 . S
C723 C722 1.400 . S
C723 C724 1.398 . S
C723 C729 1.491 . S
C724 H715 0.950 . S
C724 C723 1.398 . S
C724 C725 1.391 . S
C725 H713 0.950 . S
C725 C721 1.393 . S
C725 C724 1.391 . S
C726 H716 0.950 . S
C726 C727 1.386 . S
C726 C728 1.391 . S
C727 C726 1.386 . S
C727 C731 1.393 . S
C728 H717 0.950 . S
C728 C726 1.391 . S
C728 C729 1.400 . S
C729 C723 1.491 . S
C729 C728 1.400 . S
C729 C730 1.398 . S
C730 H718 0.950 . S
C730 C729 1.398 . S
C730 C731 1.391 . S
C731 H719 0.950 . S
C731 C727 1.393 . S
C731 C730 1.391 . S
H732 C740 0.950 . S
H733 C745 0.950 . S
H734 C742 0.950 . S
H735 C744 0.950 . S
H736 C746 0.950 . S
H737 C748 0.950 . S
H738 C750 0.950 . S
H739 C751 0.950 . S
C740 H732 0.950 . S
C740 C741 1.386 . S
C740 C742 1.391 . S
C741 C740 1.386 . S
C741 C745 1.393 . S
C742 H734 0.950 . S
C742 C740 1.391 . S
C742 C743 1.400 . S
C743 C742 1.400 . S
C743 C744 1.398 . S
C743 C749 1.491 . S
C744 H735 0.950 . S
C744 C743 1.398 . S
C744 C745 1.391 . S
C745 H733 0.950 . S
C745 C741 1.393 . S
C745 C744 1.391 . S
C746 H736 0.950 . S
C746 C747 1.386 . S
C746 C748 1.391 . S
C747 C746 1.386 . S
C747 C751 1.393 . S
C748 H737 0.950 . S
C748 C746 1.391 . S
C748 C749 1.400 . S
C749 C743 1.491 . S
C749 C748 1.400 . S
C749 C750 1.398 . S
C750 H738 0.950 . S
C750 C749 1.398 . S
C750 C751 1.391 . S
C751 H739 0.950 . S
C751 C747 1.393 . S
C751 C750 1.391 . S
H752 C760 0.950 . S
H753 C765 0.950 . S
H754 C762 0.950 . S
H755 C764 0.950 . S
H756 C766 0.950 . S
H757 C768 0.950 . S
H758 C770 0.950 . S
H759 C771 0.950 . S
C760 H752 0.950 . S
C760 C761 1.386 . S
C760 C762 1.391 . S
C761 C760 1.386 . S
C761 C765 1.393 . S
C762 H754 0.950 . S
C762 C760 1.391 . S
C762 C763 1.400 . S
C763 C762 1.400 . S
C763 C764 1.398 . S
C763 C769 1.491 . S
C764 H755 0.950 . S
C764 C763 1.398 . S
C764 C765 1.391 . S
C765 H753 0.950 . S
C765 C761 1.393 . S
C765 C764 1.391 . S
C766 H756 0.950 . S
C766 C767 1.386 . S
C766 C768 1.391 . S
C767 C766 1.386 . S
C767 C771 1.393 . S
C768 H757 0.950 . S
C768 C766 1.391 . S
C768 C769 1.400 . S
C769 C763 1.491 . S
C769 C768 1.400 . S
C769 C770 1.398 . S
C770 H758 0.950 . S
C770 C769 1.398 . S
C770 C771 1.391 . S
C771 H759 0.950 . S
C771 C767 1.393 . S
C771 C770 1.391 . S
H772 C780 0.950 . S
H773 C785 0.950 . S
H774 C782 0.950 . S
H775 C784 0.950 . S
H776 C786 0.950 . S
H777 C788 0.950 . S
H778 C790 0.950 . S
H779 C791 0.950 . S
C780 H772 0.950 . S
C780 C781 1.386 . S
C780 C782 1.391 . S
C781 C780 1.386 . S
C781 C785 1.393 . S
C782 H774 0.950 . S
C782 C780 1.391 . S
C782 C783 1.400 . S
C783 C782 1.400 . S
C783 C784 1.398 . S
C783 C789 1.491 . S
C784 H775 0.950 . S
C784 C783 1.398 . S
C784 C785 1.391 . S
C785 H773 0.950 . S
C785 C781 1.393 . S
C785 C784 1.391 . S
C786 H776 0.950 . S
C786 C787 1.386 . S
C786 C788 1.391 . S
C787 C786 1.386 . S
C787 C791 1.393 . S
C788 H777 0.950 . S
C788 C786 1.391 . S
C788 C789 1.400 . S
C789 C783 1.491 . S
C789 C788 1.400 . S
C789 C790 1.398 . S
C790 H778 0.950 . S
C790 C789 1.398 . S
C790 C791 1.391 . S
C791 H779 0.950 . S
C791 C787 1.393 . S
C791 C790 1.391 . S
H792 C800 0.950 . S
H793 C805 0.950 . S
H794 C802 0.950 . S
H795 C804 0.950 . S
H796 C806 0.950 . S
H797 C808 0.950 . S
H798 C810 0.950 . S
H799 C811 0.950 . S
C800 H792 0.950 . S
C800 C801 1.386 . S
C800 C802 1.391 . S
C801 C800 1.386 . S
C801 C805 1.393 . S
C802 H794 0.950 . S
C802 C800 1.391 . S
C802 C803 1.400 . S
C803 C802 1.400 . S
C803 C804 1.398 . S
C803 C809 1.491 . S
C804 H795 0.950 . S
C804 C803 1.398 . S
C804 C805 1.391 . S
C805 H793 0.950 . S
C805 C801 1.393 . S
C805 C804 1.391 . S
C806 H796 0.950 . S
C806 C807 1.386 . S
C806 C808 1.391 . S
C807 C806 1.386 . S
C807 C811 1.393 . S
C808 H797 0.950 . S
C808 C806 1.391 . S
C808 C809 1.400 . S
C809 C803 1.491 . S
C809 C808 1.400 . S
C809 C810 1.398 . S
C810 H798 0.950 . S
C810 C809 1.398 . S
C810 C811 1.391 . S
C811 H799 0.950 . S
C811 C807 1.393 . S
C811 C810 1.391 . S
H812 C820 0.950 . S
H813 C825 0.950 . S
H814 C822 0.950 . S
H815 C824 0.950 . S
H816 C826 0.950 . S
H817 C828 0.950 . S
H818 C830 0.950 . S
H819 C831 0.950 . S
C820 H812 0.950 . S
C820 C821 1.386 . S
C820 C822 1.391 . S
C821 C820 1.386 . S
C821 C825 1.393 . S
C822 H814 0.950 . S
C822 C820 1.391 . S
C822 C823 1.400 . S
C823 C822 1.400 . S
C823 C824 1.398 . S
C823 C829 1.491 . S
C824 H815 0.950 . S
C824 C823 1.398 . S
C824 C825 1.391 . S
C825 H813 0.950 . S
C825 C821 1.393 . S
C825 C824 1.391 . S
C826 H816 0.950 . S
C826 C827 1.386 . S
C826 C828 1.391 . S
C827 C826 1.386 . S
C827 C831 1.393 . S
C828 H817 0.950 . S
C828 C826 1.391 . S
C828 C829 1.400 . S
C829 C823 1.491 . S
C829 C828 1.400 . S
C829 C830 1.398 . S
C830 H818 0.950 . S
C830 C829 1.398 . S
C830 C831 1.391 . S
C831 H819 0.950 . S
C831 C827 1.393 . S
C831 C830 1.391 . S
H832 C840 0.950 . S
H833 C845 0.950 . S
H834 C842 0.950 . S
H835 C844 0.950 . S
H836 C846 0.950 . S
H837 C848 0.950 . S
H838 C850 0.950 . S
H839 C851 0.950 . S
C840 H832 0.950 . S
C840 C841 1.386 . S
C840 C842 1.391 . S
C841 C840 1.386 . S
C841 C845 1.393 . S
C842 H834 0.950 . S
C842 C840 1.391 . S
C842 C843 1.400 . S
C843 C842 1.400 . S
C843 C844 1.398 . S
C843 C849 1.491 . S
C844 H835 0.950 . S
C844 C843 1.398 . S
C844 C845 1.391 . S
C845 H833 0.950 . S
C845 C841 1.393 . S
C845 C844 1.391 . S
C846 H836 0.950 . S
C846 C847 1.386 . S
C846 C848 1.391 . S
C847 C846 1.386 . S
C847 C851 1.393 . S
C848 H837 0.950 . S
C848 C846 1.391 . S
C848 C849 1.400 . S
C849 C843 1.491 . S
C849 C848 1.400 . S
C849 C850 1.398 . S
C850 H838 0.950 . S
C850 C849 1.398 . S
C850 C851 1.391 . S
C851 H839 0.950 . S
C851 C847 1.393 . S
C851 C850 1.391 . S
H852 C860 0.950 . S
H853 C865 0.950 . S
H854 C862 0.950 . S
H855 C864 0.950 . S
H856 C866 0.950 . S
H857 C868 0.950 . S
H858 C870 0.950 . S
H859 C871 0.950 . S
C860 H852 0.950 . S
C860 C861 1.386 . S
C860 C862 1.391 . S
C861 C860 1.386 . S
C861 C865 1.393 . S
C862 H854 0.950 . S
C862 C860 1.391 . S
C862 C863 1.400 . S
C863 C862 1.400 . S
C863 C864 1.398 . S
C863 C869 1.491 . S
C864 H855 0.950 . S
C864 C863 1.398 . S
C864 C865 1.391 . S
C865 H853 0.950 . S
C865 C861 1.393 . S
C865 C864 1.391 . S
C866 H856 0.950 . S
C866 C867 1.386 . S
C866 C868 1.391 . S
C867 C866 1.386 . S
C867 C871 1.393 . S
C868 H857 0.950 . S
C868 C866 1.391 . S
C868 C869 1.400 . S
C869 C863 1.491 . S
C869 C868 1.400 . S
C869 C870 1.398 . S
C870 H858 0.950 . S
C870 C869 1.398 . S
C870 C871 1.391 . S
C871 H859 0.950 . S
C871 C867 1.393 . S
C871 C870 1.391 . S
H872 C880 0.950 . S
H873 C885 0.950 . S
H874 C882 0.950 . S
H875 C884 0.950 . S
H876 C886 0.950 . S
H877 C888 0.950 . S
H878 C890 0.950 . S
H879 C891 0.950 . S
C880 H872 0.950 . S
C880 C881 1.386 . S
C880 C882 1.391 . S
C881 C880 1.386 . S
C881 C885 1.393 . S
C882 H874 0.950 . S
C882 C880 1.391 . S
C882 C883 1.400 . S
C883 C882 1.400 . S
C883 C884 1.398 . S
C883 C889 1.491 1_545 S
C884 H875 0.950 . S
C884 C883 1.398 . S
C884 C885 1.391 . S
C885 H873 0.950 . S
C885 C881 1.393 . S
C885 C884 1.391 . S
C886 H876 0.950 . S
C886 C887 1.386 . S
C886 C888 1.391 . S
C887 C886 1.386 . S
C887 C891 1.393 . S
C888 H877 0.950 . S
C888 C886 1.391 . S
C888 C889 1.400 . S
C889 C883 1.491 1_565 S
C889 C888 1.400 . S
C889 C890 1.398 . S
C890 H878 0.950 . S
C890 C889 1.398 . S
C890 C891 1.391 . S
C891 H879 0.950 . S
C891 C887 1.393 . S
C891 C890 1.391 . S
H892 C900 0.950 . S
H893 C905 0.950 . S
H894 C902 0.950 . S
H895 C904 0.950 . S
H896 C906 0.950 . S
H897 C908 0.950 . S
H898 C910 0.950 . S
H899 C911 0.950 . S
C900 H892 0.950 . S
C900 C901 1.386 . S
C900 C902 1.391 . S
C901 C900 1.386 . S
C901 C905 1.393 . S
C902 H894 0.950 . S
C902 C900 1.391 . S
C902 C903 1.400 . S
C903 C902 1.400 . S
C903 C904 1.398 . S
C903 C909 1.491 1_655 S
C904 H895 0.950 . S
C904 C903 1.398 . S
C904 C905 1.391 . S
C905 H893 0.950 . S
C905 C901 1.393 . S
C905 C904 1.391 . S
C906 H896 0.950 . S
C906 C907 1.386 . S
C906 C908 1.391 . S
C907 C906 1.386 . S
C907 C911 1.393 . S
C908 H897 0.950 . S
C908 C906 1.391 . S
C908 C909 1.400 . S
C909 C903 1.491 1_455 S
C909 C908 1.400 . S
C909 C910 1.398 . S
C910 H898 0.950 . S
C910 C909 1.398 . S
C910 C911 1.391 . S
C911 H899 0.950 . S
C911 C907 1.393 . S
C911 C910 1.391 . S
H912 C920 0.950 . S
H913 C925 0.950 . S
H914 C922 0.950 . S
H915 C924 0.950 . S
H916 C926 0.950 . S
H917 C928 0.950 . S
H918 C930 0.950 . S
H919 C931 0.950 . S
C920 H912 0.950 . S
C920 C921 1.386 . S
C920 C922 1.391 . S
C921 C920 1.386 . S
C921 C925 1.393 . S
C922 H914 0.950 . S
C922 C920 1.391 . S
C922 C923 1.400 . S
C923 C922 1.400 . S
C923 C924 1.398 . S
C923 C929 1.491 . S
C924 H915 0.950 . S
C924 C923 1.398 . S
C924 C925 1.391 . S
C925 H913 0.950 . S
C925 C921 1.393 . S
C925 C924 1.391 . S
C926 H916 0.950 . S
C926 C927 1.386 . S
C926 C928 1.391 . S
C927 C926 1.386 . S
C927 C931 1.393 . S
C928 H917 0.950 . S
C928 C926 1.391 . S
C928 C929 1.400 . S
C929 C923 1.491 . S
C929 C928 1.400 . S
C929 C930 1.398 . S
C930 H918 0.950 . S
C930 C929 1.398 . S
C930 C931 1.391 . S
C931 H919 0.950 . S
C931 C927 1.393 . S
C931 C930 1.391 . S
H932 C940 0.950 . S
H933 C945 0.950 . S
H934 C942 0.950 . S
H935 C944 0.950 . S
H936 C946 0.950 . S
H937 C948 0.950 . S
H938 C950 0.950 . S
H939 C951 0.950 . S
C940 H932 0.950 . S
C940 C941 1.386 . S
C940 C942 1.391 . S
C941 C940 1.386 . S
C941 C945 1.393 . S
C942 H934 0.950 . S
C942 C940 1.391 . S
C942 C943 1.400 . S
C943 C942 1.400 . S
C943 C944 1.398 . S
C943 C949 1.491 1_565 S
C944 H935 0.950 . S
C944 C943 1.398 . S
C944 C945 1.391 . S
C945 H933 0.950 . S
C945 C941 1.393 . S
C945 C944 1.391 . S
C946 H936 0.950 . S
C946 C947 1.386 . S
C946 C948 1.391 . S
C947 C946 1.386 . S
C947 C951 1.393 . S
C948 H937 0.950 . S
C948 C946 1.391 . S
C948 C949 1.400 . S
C949 C943 1.491 1_545 S
C949 C948 1.400 . S
C949 C950 1.398 . S
C950 H938 0.950 . S
C950 C949 1.398 . S
C950 C951 1.391 . S
C951 H939 0.950 . S
C951 C947 1.393 . S
C951 C950 1.391 . S
H952 C960 0.950 . S
H953 C965 0.950 . S
H954 C962 0.950 . S
H955 C964 0.950 . S
H956 C966 0.950 . S
H957 C968 0.950 . S
H958 C970 0.950 1_455 S
H959 C971 0.950 . S
C960 H952 0.950 . S
C960 C961 1.386 . S
C960 C962 1.391 . S
C961 C960 1.386 . S
C961 C965 1.393 . S
C962 H954 0.950 . S
C962 C960 1.391 . S
C962 C963 1.400 . S
C963 C962 1.400 . S
C963 C964 1.398 . S
C963 C969 1.491 1_455 S
C964 H955 0.950 . S
C964 C963 1.398 . S
C964 C965 1.391 . S
C965 H953 0.950 . S
C965 C961 1.393 . S
C965 C964 1.391 . S
C966 H956 0.950 . S
C966 C967 1.386 . S
C966 C968 1.391 . S
C967 C966 1.386 . S
C967 C971 1.393 . S
C968 H957 0.950 . S
C968 C966 1.391 . S
C968 C969 1.400 . S
C969 C963 1.491 1_655 S
C969 C968 1.400 . S
C969 C970 1.398 . S
C970 H958 0.950 1_655 S
C970 C969 1.398 . S
C970 C971 1.391 . S
C971 H959 0.950 . S
C971 C967 1.393 . S
C971 C970 1.391 . S
H972 C980 0.950 . S
H973 C985 0.950 . S
H974 C982 0.950 . S
H975 C984 0.950 . S
H976 C986 0.950 . S
H977 C988 0.950 . S
H978 C990 0.950 . S
H979 C991 0.950 . S
C980 H972 0.950 . S
C980 C981 1.386 . S
C980 C982 1.391 . S
C981 C980 1.386 . S
C981 C985 1.393 . S
C982 H974 0.950 . S
C982 C980 1.391 . S
C982 C983 1.400 . S
C983 C982 1.400 . S
C983 C984 1.398 . S
C983 C989 1.491 . S
C984 H975 0.950 . S
C984 C983 1.398 . S
C984 C985 1.391 . S
C985 H973 0.950 . S
C985 C981 1.393 . S
C985 C984 1.391 . S
C986 H976 0.950 . S
C986 C987 1.386 . S
C986 C988 1.391 . S
C987 C986 1.386 . S
C987 C991 1.393 . S
C988 H977 0.950 . S
C988 C986 1.391 . S
C988 C989 1.400 . S
C989 C983 1.491 . S
C989 C988 1.400 . S
C989 C990 1.398 . S
C990 H978 0.950 . S
C990 C989 1.398 . S
C990 C991 1.391 . S
C991 H979 0.950 . S
C991 C987 1.393 . S
C991 C990 1.391 . S
H992 C1000 0.950 . S
H993 C1005 0.950 . S
H994 C1002 0.950 . S
H995 C1004 0.950 . S
H996 C1006 0.950 . S
H997 C1008 0.950 . S
H998 C1010 0.950 . S
H999 C1011 0.950 . S
C1000 H992 0.950 . S
C1000 C1001 1.386 . S
C1000 C1002 1.391 . S
C1001 C1000 1.386 . S
C1001 C1005 1.393 . S
C1002 H994 0.950 . S
C1002 C1000 1.391 . S
C1002 C1003 1.400 . S
C1003 C1002 1.400 . S
C1003 C1004 1.398 . S
C1003 C1009 1.491 . S
C1004 H995 0.950 . S
C1004 C1003 1.398 . S
C1004 C1005 1.391 . S
C1005 H993 0.950 . S
C1005 C1001 1.393 . S
C1005 C1004 1.391 . S
C1006 H996 0.950 . S
C1006 C1007 1.386 . S
C1006 C1008 1.391 . S
C1007 C1006 1.386 . S
C1007 C1011 1.393 . S
C1008 H997 0.950 . S
C1008 C1006 1.391 . S
C1008 C1009 1.400 . S
C1009 C1003 1.491 . S
C1009 C1008 1.400 . S
C1009 C1010 1.398 . S
C1010 H998 0.950 . S
C1010 C1009 1.398 . S
C1010 C1011 1.391 . S
C1011 H999 0.950 . S
C1011 C1007 1.393 . S
C1011 C1010 1.391 . S
H1012 C1020 0.950 . S
H1013 C1025 0.950 . S
H1014 C1022 0.950 . S
H1015 C1024 0.950 . S
H1016 C1026 0.950 . S
H1017 C1028 0.950 . S
H1018 C1030 0.950 . S
H1019 C1031 0.950 . S
C1020 H1012 0.950 . S
C1020 C1021 1.386 . S
C1020 C1022 1.391 . S
C1021 C1020 1.386 . S
C1021 C1025 1.393 . S
C1022 H1014 0.950 . S
C1022 C1020 1.391 . S
C1022 C1023 1.400 . S
C1023 C1022 1.400 . S
C1023 C1024 1.398 . S
C1023 C1029 1.491 . S
C1024 H1015 0.950 . S
C1024 C1023 1.398 . S
C1024 C1025 1.391 . S
C1025 H1013 0.950 . S
C1025 C1021 1.393 . S
C1025 C1024 1.391 . S
C1026 H1016 0.950 . S
C1026 C1027 1.386 . S
C1026 C1028 1.391 . S
C1027 C1026 1.386 . S
C1027 C1031 1.393 . S
C1028 H1017 0.950 . S
C1028 C1026 1.391 . S
C1028 C1029 1.400 . S
C1029 C1023 1.491 . S
C1029 C1028 1.400 . S
C1029 C1030 1.398 . S
C1030 H1018 0.950 . S
C1030 C1029 1.398 . S
C1030 C1031 1.391 . S
C1031 H1019 0.950 . S
C1031 C1027 1.393 . S
C1031 C1030 1.391 . S
H1032 C1040 0.950 . S
H1033 C1045 0.950 . S
H1034 C1042 0.950 . S
H1035 C1044 0.950 . S
H1036 C1046 0.950 . S
H1037 C1048 0.950 . S
H1038 C1050 0.950 . S
H1039 C1051 0.950 . S
C1040 H1032 0.950 . S
C1040 C1041 1.386 . S
C1040 C1042 1.391 . S
C1041 C1040 1.386 . S
C1041 C1045 1.393 . S
C1042 H1034 0.950 . S
C1042 C1040 1.391 . S
C1042 C1043 1.400 . S
C1043 C1042 1.400 . S
C1043 C1044 1.398 . S
C1043 C1049 1.491 . S
C1044 H1035 0.950 . S
C1044 C1043 1.398 . S
C1044 C1045 1.391 . S
C1045 H1033 0.950 . S
C1045 C1041 1.393 . S
C1045 C1044 1.391 . S
C1046 H1036 0.950 . S
C1046 C1047 1.386 . S
C1046 C1048 1.391 . S
C1047 C1046 1.386 . S
C1047 C1051 1.393 . S
C1048 H1037 0.950 . S
C1048 C1046 1.391 . S
C1048 C1049 1.400 . S
C1049 C1043 1.491 . S
C1049 C1048 1.400 . S
C1049 C1050 1.398 . S
C1050 H1038 0.950 . S
C1050 C1049 1.398 . S
C1050 C1051 1.391 . S
C1051 H1039 0.950 . S
C1051 C1047 1.393 . S
C1051 C1050 1.391 . S
H1052 C1060 0.950 . S
H1053 C1065 0.950 . S
H1054 C1062 0.950 . S
H1055 C1064 0.950 . S
H1056 C1066 0.950 . S
H1057 C1068 0.950 . S
H1058 C1070 0.950 . S
H1059 C1071 0.950 . S
C1060 H1052 0.950 . S
C1060 C1061 1.386 . S
C1060 C1062 1.391 . S
C1061 C1060 1.386 . S
C1061 C1065 1.393 . S
C1062 H1054 0.950 . S
C1062 C1060 1.391 . S
C1062 C1063 1.400 . S
C1063 C1062 1.400 . S
C1063 C1064 1.398 . S
C1063 C1069 1.491 . S
C1064 H1055 0.950 . S
C1064 C1063 1.398 . S
C1064 C1065 1.391 . S
C1065 H1053 0.950 . S
C1065 C1061 1.393 . S
C1065 C1064 1.391 . S
C1066 H1056 0.950 . S
C1066 C1067 1.386 . S
C1066 C1068 1.391 . S
C1067 C1066 1.386 . S
C1067 C1071 1.393 . S
C1068 H1057 0.950 . S
C1068 C1066 1.391 . S
C1068 C1069 1.400 . S
C1069 C1063 1.491 . S
C1069 C1068 1.400 . S
C1069 C1070 1.398 . S
C1070 H1058 0.950 . S
C1070 C1069 1.398 . S
C1070 C1071 1.391 . S
C1071 H1059 0.950 . S
C1071 C1067 1.393 . S
C1071 C1070 1.391 . S
H1072 C1080 0.950 . S
H1073 C1085 0.950 . S
H1074 C1082 0.950 . S
H1075 C1084 0.950 . S
H1076 C1086 0.950 . S
H1077 C1088 0.950 . S
H1078 C1090 0.950 . S
H1079 C1091 0.950 . S
C1080 H1072 0.950 . S
C1080 C1081 1.386 . S
C1080 C1082 1.391 . S
C1081 C1080 1.386 . S
C1081 C1085 1.393 . S
C1082 H1074 0.950 . S
C1082 C1080 1.391 . S
C1082 C1083 1.400 . S
C1083 C1082 1.400 . S
C1083 C1084 1.398 . S
C1083 C1089 1.491 . S
C1084 H1075 0.950 . S
C1084 C1083 1.398 . S
C1084 C1085 1.391 . S
C1085 H1073 0.950 . S
C1085 C1081 1.393 . S
C1085 C1084 1.391 . S
C1086 H1076 0.950 . S
C1086 C1087 1.386 . S
C1086 C1088 1.391 . S
C1087 C1086 1.386 . S
C1087 C1091 1.393 . S
C1088 H1077 0.950 . S
C1088 C1086 1.391 . S
C1088 C1089 1.400 . S
C1089 C1083 1.491 . S
C1089 C1088 1.400 . S
C1089 C1090 1.398 . S
C1090 H1078 0.950 . S
C1090 C1089 1.398 . S
C1090 C1091 1.391 . S
C1091 H1079 0.950 . S
C1091 C1087 1.393 . S
C1091 C1090 1.391 . S
H1092 C1100 0.950 . S
H1093 C1105 0.950 . S
H1094 C1102 0.950 . S
H1095 C1104 0.950 . S
H1096 C1106 0.950 . S
H1097 C1108 0.950 . S
H1098 C1110 0.950 . S
H1099 C1111 0.950 . S
C1100 H1092 0.950 . S
C1100 C1101 1.386 . S
C1100 C1102 1.391 . S
C1101 C1100 1.386 . S
C1101 C1105 1.393 . S
C1102 H1094 0.950 . S
C1102 C1100 1.391 . S
C1102 C1103 1.400 . S
C1103 C1102 1.400 . S
C1103 C1104 1.398 . S
C1103 C1109 1.491 . S
C1104 H1095 0.950 . S
C1104 C1103 1.398 . S
C1104 C1105 1.391 . S
C1105 H1093 0.950 . S
C1105 C1101 1.393 . S
C1105 C1104 1.391 . S
C1106 H1096 0.950 . S
C1106 C1107 1.386 . S
C1106 C1108 1.391 . S
C1107 C1106 1.386 . S
C1107 C1111 1.393 . S
C1108 H1097 0.950 . S
C1108 C1106 1.391 . S
C1108 C1109 1.400 . S
C1109 C1103 1.491 . S
C1109 C1108 1.400 . S
C1109 C1110 1.398 . S
C1110 H1098 0.950 . S
C1110 C1109 1.398 . S
C1110 C1111 1.391 . S
C1111 H1099 0.950 . S
C1111 C1107 1.393 . S
C1111 C1110 1.391 . S
H1112 C1120 0.950 . S
H1113 C1125 0.950 . S
H1114 C1122 0.950 . S
H1115 C1124 0.950 . S
H1116 C1126 0.950 . S
H1117 C1128 0.950 . S
H1118 C1130 0.950 . S
H1119 C1131 0.950 . S
C1120 H1112 0.950 . S
C1120 C1121 1.386 . S
C1120 C1122 1.391 . S
C1121 C1120 1.386 . S
C1121 C1125 1.393 . S
C1122 H1114 0.950 . S
C1122 C1120 1.391 . S
C1122 C1123 1.400 . S
C1123 C1122 1.400 . S
C1123 C1124 1.398 . S
C1123 C1129 1.491 . S
C1124 H1115 0.950 . S
C1124 C1123 1.398 . S
C1124 C1125 1.391 . S
C1125 H1113 0.950 . S
C1125 C1121 1.393 . S
C1125 C1124 1.391 . S
C1126 H1116 0.950 . S
C1126 C1127 1.386 . S
C1126 C1128 1.391 . S
C1127 C1126 1.386 . S
C1127 C1131 1.393 . S
C1128 H1117 0.950 . S
C1128 C1126 1.391 . S
C1128 C1129 1.400 . S
C1129 C1123 1.491 . S
C1129 C1128 1.400 . S
C1129 C1130 1.398 . S
C1130 H1118 0.950 . S
C1130 C1129 1.398 . S
C1130 C1131 1.391 . S
C1131 H1119 0.950 . S
C1131 C1127 1.393 . S
C1131 C1130 1.391 . S
H1132 C1140 0.950 . S
H1133 C1145 0.950 . S
H1134 C1142 0.950 . S
H1135 C1144 0.950 . S
H1136 C1146 0.950 . S
H1137 C1148 0.950 . S
H1138 C1150 0.950 . S
H1139 C1151 0.950 . S
C1140 H1132 0.950 . S
C1140 C1141 1.386 . S
C1140 C1142 1.391 . S
C1141 C1140 1.386 . S
C1141 C1145 1.393 . S
C1142 H1134 0.950 . S
C1142 C1140 1.391 . S
C1142 C1143 1.400 . S
C1143 C1142 1.400 . S
C1143 C1144 1.398 . S
C1143 C1149 1.491 . S
C1144 H1135 0.950 . S
C1144 C1143 1.398 . S
C1144 C1145 1.391 . S
C1145 H1133 0.950 . S
C1145 C1141 1.393 . S
C1145 C1144 1.391 . S
C1146 H1136 0.950 . S
C1146 C1147 1.386 . S
C1146 C1148 1.391 . S
C1147 C1146 1.386 . S
C1147 C1151 1.393 . S
C1148 H1137 0.950 . S
C1148 C1146 1.391 . S
C1148 C1149 1.400 . S
C1149 C1143 1.491 . S
C1149 C1148 1.400 . S
C1149 C1150 1.398 . S
C1150 H1138 0.950 . S
C1150 C1149 1.398 . S
C1150 C1151 1.391 . S
C1151 H1139 0.950 . S
C1151 C1147 1.393 . S
C1151 C1150 1.391 . S
H1152 C1160 0.950 . S
H1153 C1165 0.954 . S
H1154 C1162 0.950 . S
H1155 C1164 0.950 . S
H1156 C1166 0.950 . S
H1157 C1168 0.950 . S
H1158 C1170 0.950 . S
H1159 C1171 0.950 . S
C1160 H1152 0.950 . S
C1160 C1161 1.386 . S
C1160 C1162 1.391 1_556 S
C1161 C1160 1.386 . S
C1161 C1165 1.393 1_556 S
C1162 H1154 0.950 . S
C1162 C1160 1.391 1_554 S
C1162 C1163 1.400 . S
C1163 C1162 1.400 . S
C1163 C1164 1.398 . S
C1163 C1169 1.491 . S
C1164 H1155 0.950 . S
C1164 C1163 1.398 . S
C1164 C1165 1.391 . S
C1165 H1153 0.954 . S
C1165 C1161 1.393 1_554 S
C1165 C1164 1.391 . S
C1166 H1156 0.950 . S
C1166 C1167 1.386 . S
C1166 C1168 1.391 . S
C1167 C1166 1.386 . S
C1167 C1171 1.393 . S
C1168 H1157 0.950 . S
C1168 C1166 1.391 . S
C1168 C1169 1.400 . S
C1169 C1163 1.491 . S
C1169 C1168 1.400 . S
C1169 C1170 1.398 . S
C1170 H1158 0.950 . S
C1170 C1169 1.398 . S
C1170 C1171 1.391 . S
C1171 H1159 0.950 . S
C1171 C1167 1.393 . S
C1171 C1170 1.391 . S
H1172 C1180 0.950 . S
H1173 C1185 0.950 . S
H1174 C1182 0.950 . S
H1175 C1184 0.950 . S
H1176 C1186 0.950 . S
H1177 C1188 0.950 . S
H1178 C1190 0.950 . S
H1179 C1191 0.950 . S
C1180 H1172 0.950 . S
C1180 C1181 1.386 1_554 S
C1180 C1182 1.391 . S
C1181 C1180 1.386 1_556 S
C1181 C1185 1.393 . S
C1182 H1174 0.950 . S
C1182 C1180 1.391 . S
C1182 C1183 1.400 . S
C1183 C1182 1.400 . S
C1183 C1184 1.398 . S
C1183 C1189 1.491 . S
C1184 H1175 0.950 . S
C1184 C1183 1.398 . S
C1184 C1185 1.391 1_554 S
C1185 H1173 0.950 . S
C1185 C1181 1.393 . S
C1185 C1184 1.391 1_556 S
C1186 H1176 0.950 . S
C1186 C1187 1.386 . S
C1186 C1188 1.391 . S
C1187 C1186 1.386 . S
C1187 C1191 1.393 . S
C1188 H1177 0.950 . S
C1188 C1186 1.391 . S
C1188 C1189 1.400 . S
C1189 C1183 1.491 . S
C1189 C1188 1.400 . S
C1189 C1190 1.398 . S
C1190 H1178 0.950 . S
C1190 C1189 1.398 . S
C1190 C1191 1.391 . S
C1191 H1179 0.950 . S
C1191 C1187 1.393 . S
C1191 C1190 1.391 . S
H1192 C1200 0.950 . S
H1193 C1205 0.950 . S
H1194 C1202 0.950 . S
H1195 C1204 0.950 . S
H1196 C1206 0.950 . S
H1197 C1208 0.950 . S
H1198 C1210 0.950 . S
H1199 C1211 0.950 . S
C1200 H1192 0.950 . S
C1200 C1201 1.386 . S
C1200 C1202 1.391 1_556 S
C1201 C1200 1.386 . S
C1201 C1205 1.393 1_556 S
C1202 H1194 0.950 . S
C1202 C1200 1.391 1_554 S
C1202 C1203 1.400 . S
C1203 C1202 1.400 . S
C1203 C1204 1.398 . S
C1203 C1209 1.491 . S
C1204 H1195 0.950 . S
C1204 C1203 1.398 . S
C1204 C1205 1.391 . S
C1205 H1193 0.950 . S
C1205 C1201 1.393 1_554 S
C1205 C1204 1.391 . S
C1206 H1196 0.950 . S
C1206 C1207 1.386 . S
C1206 C1208 1.391 . S
C1207 C1206 1.386 . S
C1207 C1211 1.393 . S
C1208 H1197 0.950 . S
C1208 C1206 1.391 . S
C1208 C1209 1.400 . S
C1209 C1203 1.491 . S
C1209 C1208 1.400 . S
C1209 C1210 1.398 . S
C1210 H1198 0.950 . S
C1210 C1209 1.398 . S
C1210 C1211 1.391 . S
C1211 H1199 0.950 . S
C1211 C1207 1.393 . S
C1211 C1210 1.391 . S
H1212 C1220 0.950 . S
H1213 C1225 0.950 . S
H1214 C1222 0.950 . S
H1215 C1224 0.950 . S
H1216 C1226 0.950 . S
H1217 C1228 0.950 . S
H1218 C1230 0.950 . S
H1219 C1231 0.950 . S
C1220 H1212 0.950 . S
C1220 C1221 1.386 . S
C1220 C1222 1.391 . S
C1221 C1220 1.386 . S
C1221 C1225 1.393 . S
C1222 H1214 0.950 . S
C1222 C1220 1.391 . S
C1222 C1223 1.400 . S
C1223 C1222 1.400 . S
C1223 C1224 1.398 . S
C1223 C1229 1.491 . S
C1224 H1215 0.950 . S
C1224 C1223 1.398 . S
C1224 C1225 1.391 . S
C1225 H1213 0.950 . S
C1225 C1221 1.393 . S
C1225 C1224 1.391 . S
C1226 H1216 0.950 . S
C1226 C1227 1.386 . S
C1226 C1228 1.391 1_554 S
C1227 C1226 1.386 . S
C1227 C1231 1.393 . S
C1228 H1217 0.950 . S
C1228 C1226 1.391 1_556 S
C1228 C1229 1.400 . S
C1229 C1223 1.491 . S
C1229 C1228 1.400 . S
C1229 C1230 1.398 . S
C1230 H1218 0.950 . S
C1230 C1229 1.398 . S
C1230 C1231 1.391 1_556 S
C1231 H1219 0.950 . S
C1231 C1227 1.393 . S
C1231 C1230 1.391 1_554 S
H1232 C1240 0.950 . S
H1233 C1245 0.950 . S
H1234 C1242 0.950 . S
H1235 C1244 0.950 . S
H1236 C1246 0.950 . S
H1237 C1248 0.950 . S
H1238 C1250 0.950 . S
H1239 C1251 0.950 . S
C1240 H1232 0.950 . S
C1240 C1241 1.386 . S
C1240 C1242 1.391 . S
C1241 C1240 1.386 . S
C1241 C1245 1.393 . S
C1242 H1234 0.950 . S
C1242 C1240 1.391 . S
C1242 C1243 1.400 . S
C1243 C1242 1.400 . S
C1243 C1244 1.398 . S
C1243 C1249 1.491 . S
C1244 H1235 0.950 . S
C1244 C1243 1.398 . S
C1244 C1245 1.391 . S
C1245 H1233 0.950 . S
C1245 C1241 1.393 . S
C1245 C1244 1.391 . S
C1246 H1236 0.950 . S
C1246 C1247 1.386 . S
C1246 C1248 1.391 1_554 S
C1247 C1246 1.386 . S
C1247 C1251 1.393 . S
C1248 H1237 0.950 . S
C1248 C1246 1.391 1_556 S
C1248 C1249 1.400 . S
C1249 C1243 1.491 . S
C1249 C1248 1.400 . S
C1249 C1250 1.398 . S
C1250 H1238 0.950 . S
C1250 C1249 1.398 . S
C1250 C1251 1.391 1_556 S
C1251 H1239 0.950 . S
C1251 C1247 1.393 . S
C1251 C1250 1.391 1_554 S
H1252 C1260 0.950 . S
H1253 C1265 0.950 . S
H1254 C1262 0.950 . S
H1255 C1264 0.950 . S
H1256 C1266 0.950 . S
H1257 C1268 0.950 . S
H1258 C1270 0.950 . S
H1259 C1271 0.950 . S
C1260 H1252 0.950 . S
C1260 C1261 1.386 . S
C1260 C1262 1.391 . S
C1261 C1260 1.386 . S
C1261 C1265 1.393 . S
C1262 H1254 0.950 . S
C1262 C1260 1.391 . S
C1262 C1263 1.400 . S
C1263 C1262 1.400 . S
C1263 C1264 1.398 . S
C1263 C1269 1.491 . S
C1264 H1255 0.950 . S
C1264 C1263 1.398 . S
C1264 C1265 1.391 . S
C1265 H1253 0.950 . S
C1265 C1261 1.393 . S
C1265 C1264 1.391 . S
C1266 H1256 0.950 . S
C1266 C1267 1.386 . S
C1266 C1268 1.391 1_554 S
C1267 C1266 1.386 . S
C1267 C1271 1.393 . S
C1268 H1257 0.950 . S
C1268 C1266 1.391 1_556 S
C1268 C1269 1.400 . S
C1269 C1263 1.491 . S
C1269 C1268 1.400 . S
C1269 C1270 1.398 . S
C1270 H1258 0.950 . S
C1270 C1269 1.398 . S
C1270 C1271 1.391 1_556 S
C1271 H1259 0.950 . S
C1271 C1267 1.393 . S
C1271 C1270 1.391 1_554 S
H1272 C1280 0.950 . S
H1273 C1285 0.950 . S
H1274 C1282 0.950 . S
H1275 C1284 0.950 . S
H1276 C1286 0.950 . S
H1277 C1288 0.950 . S
H1278 C1290 0.950 . S
H1279 C1291 0.950 . S
C1280 H1272 0.950 . S
C1280 C1281 1.386 . S
C1280 C1282 1.391 . S
C1281 C1280 1.386 . S
C1281 C1285 1.393 . S
C1282 H1274 0.950 . S
C1282 C1280 1.391 . S
C1282 C1283 1.400 . S
C1283 C1282 1.400 . S
C1283 C1284 1.398 . S
C1283 C1289 1.491 . S
C1284 H1275 0.950 . S
C1284 C1283 1.398 . S
C1284 C1285 1.391 . S
C1285 H1273 0.950 . S
C1285 C1281 1.393 . S
C1285 C1284 1.391 . S
C1286 H1276 0.950 . S
C1286 C1287 1.386 . S
C1286 C1288 1.391 . S
C1287 C1286 1.386 . S
C1287 C1291 1.393 . S
C1288 H1277 0.950 . S
C1288 C1286 1.391 . S
C1288 C1289 1.400 . S
C1289 C1283 1.491 . S
C1289 C1288 1.400 . S
C1289 C1290 1.398 . S
C1290 H1278 0.950 . S
C1290 C1289 1.398 . S
C1290 C1291 1.391 . S
C1291 H1279 0.950 . S
C1291 C1287 1.393 . S
C1291 C1290 1.391 . S
H1292 C1300 0.950 . S
H1293 C1305 0.950 . S
H1294 C1302 0.950 . S
H1295 C1304 0.950 . S
H1296 C1306 0.950 . S
H1297 C1308 0.950 . S
H1298 C1310 0.950 . S
H1299 C1311 0.950 . S
C1300 H1292 0.950 . S
C1300 C1301 1.386 . S
C1300 C1302 1.391 . S
C1301 C1300 1.386 . S
C1301 C1305 1.393 . S
C1302 H1294 0.950 . S
C1302 C1300 1.391 . S
C1302 C1303 1.400 . S
C1303 C1302 1.400 . S
C1303 C1304 1.398 . S
C1303 C1309 1.491 . S
C1304 H1295 0.950 . S
C1304 C1303 1.398 . S
C1304 C1305 1.391 . S
C1305 H1293 0.950 . S
C1305 C1301 1.393 . S
C1305 C1304 1.391 . S
C1306 H1296 0.950 . S
C1306 C1307 1.386 . S
C1306 C1308 1.391 . S
C1307 C1306 1.386 . S
C1307 C1311 1.393 . S
C1308 H1297 0.950 . S
C1308 C1306 1.391 . S
C1308 C1309 1.400 . S
C1309 C1303 1.491 . S
C1309 C1308 1.400 . S
C1309 C1310 1.398 . S
C1310 H1298 0.950 . S
C1310 C1309 1.398 . S
C1310 C1311 1.391 . S
C1311 H1299 0.950 . S
C1311 C1307 1.393 . S
C1311 C1310 1.391 . S
H1312 C1320 0.950 . S
H1313 C1325 0.950 . S
H1314 C1322 0.950 . S
H1315 C1324 0.950 . S
H1316 C1326 0.950 . S
H1317 C1328 0.950 . S
H1318 C1330 0.950 . S
H1319 C1331 0.950 . S
C1320 H1312 0.950 . S
C1320 C1321 1.386 . S
C1320 C1322 1.391 . S
C1321 C1320 1.386 . S
C1321 C1325 1.393 . S
C1322 H1314 0.950 . S
C1322 C1320 1.391 . S
C1322 C1323 1.400 . S
C1323 C1322 1.400 . S
C1323 C1324 1.398 . S
C1323 C1329 1.491 . S
C1324 H1315 0.950 . S
C1324 C1323 1.398 . S
C1324 C1325 1.391 . S
C1325 H1313 0.950 . S
C1325 C1321 1.393 . S
C1325 C1324 1.391 . S
C1326 H1316 0.950 . S
C1326 C1327 1.386 . S
C1326 C1328 1.391 . S
C1327 C1326 1.386 . S
C1327 C1331 1.393 . S
C1328 H1317 0.950 . S
C1328 C1326 1.391 . S
C1328 C1329 1.400 . S
C1329 C1323 1.491 . S
C1329 C1328 1.400 . S
C1329 C1330 1.398 . S
C1330 H1318 0.950 . S
C1330 C1329 1.398 . S
C1330 C1331 1.391 . S
C1331 H1319 0.950 . S
C1331 C1327 1.393 . S
C1331 C1330 1.391 . S
H1332 C1340 0.950 . S
H1333 C1345 0.950 . S
H1334 C1342 0.950 . S
H1335 C1344 0.950 . S
H1336 C1346 0.950 1_545 S
H1337 C1348 0.950 . S
H1338 C1350 0.950 . S
H1339 C1351 0.950 . S
C1340 H1332 0.950 . S
C1340 C1341 1.386 . S
C1340 C1342 1.391 . S
C1341 C1340 1.386 . S
C1341 C1345 1.393 . S
C1342 H1334 0.950 . S
C1342 C1340 1.391 . S
C1342 C1343 1.400 . S
C1343 C1342 1.400 . S
C1343 C1344 1.398 . S
C1343 C1349 1.491 . S
C1344 H1335 0.950 . S
C1344 C1343 1.398 . S
C1344 C1345 1.391 . S
C1345 H1333 0.950 . S
C1345 C1341 1.393 . S
C1345 C1344 1.391 . S
C1346 H1336 0.950 1_565 S
C1346 C1347 1.386 . S
C1346 C1348 1.391 . S
C1347 C1346 1.386 . S
C1347 C1351 1.393 . S
C1348 H1337 0.950 . S
C1348 C1346 1.391 . S
C1348 C1349 1.400 . S
C1349 C1343 1.491 . S
C1349 C1348 1.400 . S
C1349 C1350 1.398 . S
C1350 H1338 0.950 . S
C1350 C1349 1.398 . S
C1350 C1351 1.391 . S
C1351 H1339 0.950 . S
C1351 C1347 1.393 . S
C1351 C1350 1.391 . S
H1352 C1360 0.950 1_554 S
H1353 C1365 0.950 1_655 S
H1354 C1362 0.950 . S
H1355 C1364 0.950 . S
H1356 C1366 0.950 . S
H1357 C1368 0.950 . S
H1358 C1370 0.950 . S
H1359 C1371 0.950 . S
C1360 H1352 0.950 1_556 S
C1360 C1361 1.386 . S
C1360 C1362 1.391 . S
C1361 C1360 1.386 . S
C1361 C1365 1.393 . S
C1362 H1354 0.950 . S
C1362 C1360 1.391 . S
C1362 C1363 1.400 . S
C1363 C1362 1.400 . S
C1363 C1364 1.398 . S
C1363 C1369 1.491 . S
C1364 H1355 0.950 . S
C1364 C1363 1.398 . S
C1364 C1365 1.391 . S
C1365 H1353 0.950 1_455 S
C1365 C1361 1.393 . S
C1365 C1364 1.391 . S
C1366 H1356 0.950 . S
C1366 C1367 1.386 . S
C1366 C1368 1.391 . S
C1367 C1366 1.386 . S
C1367 C1371 1.393 . S
C1368 H1357 0.950 . S
C1368 C1366 1.391 . S
C1368 C1369 1.400 . S
C1369 C1363 1.491 . S
C1369 C1368 1.400 . S
C1369 C1370 1.398 . S
C1370 H1358 0.950 . S
C1370 C1369 1.398 . S
C1370 C1371 1.391 . S
C1371 H1359 0.950 . S
C1371 C1367 1.393 . S
C1371 C1370 1.391 . S
H1372 C1380 0.950 . S
H1373 C1385 0.950 . S
H1374 C1382 0.950 . S
H1375 C1384 0.950 . S
H1376 C1386 0.950 1_554 S
H1377 C1388 0.950 . S
H1378 C1390 0.950 . S
H1379 C1391 0.950 . S
C1380 H1372 0.950 . S
C1380 C1381 1.386 . S
C1380 C1382 1.391 . S
C1381 C1380 1.386 . S
C1381 C1385 1.393 . S
C1382 H1374 0.950 . S
C1382 C1380 1.391 . S
C1382 C1383 1.400 . S
C1383 C1382 1.400 . S
C1383 C1384 1.398 . S
C1383 C1389 1.491 . S
C1384 H1375 0.950 . S
C1384 C1383 1.398 . S
C1384 C1385 1.391 . S
C1385 H1373 0.950 . S
C1385 C1381 1.393 . S
C1385 C1384 1.391 . S
C1386 H1376 0.950 1_556 S
C1386 C1387 1.386 . S
C1386 C1388 1.391 . S
C1387 C1386 1.386 . S
C1387 C1391 1.393 . S
C1388 H1377 0.950 . S
C1388 C1386 1.391 . S
C1388 C1389 1.400 . S
C1389 C1383 1.491 . S
C1389 C1388 1.400 . S
C1389 C1390 1.398 . S
C1390 H1378 0.950 . S
C1390 C1389 1.398 . S
C1390 C1391 1.391 . S
C1391 H1379 0.950 . S
C1391 C1387 1.393 . S
C1391 C1390 1.391 . S
H1392 C1400 0.950 . S
H1393 C1405 0.950 . S
H1394 C1402 0.950 . S
H1395 C1404 0.950 . S
H1396 C1406 0.950 . S
H1397 C1408 0.950 . S
H1398 C1410 0.950 . S
H1399 C1411 0.950 . S
C1400 H1392 0.950 . S
C1400 C1401 1.386 . S
C1400 C1402 1.391 . S
C1401 C1400 1.386 . S
C1401 C1405 1.393 . S
C1402 H1394 0.950 . S
C1402 C1400 1.391 . S
C1402 C1403 1.400 . S
C1403 C1402 1.400 . S
C1403 C1404 1.398 . S
C1403 C1409 1.491 . S
C1404 H1395 0.950 . S
C1404 C1403 1.398 . S
C1404 C1405 1.391 . S
C1405 H1393 0.950 . S
C1405 C1401 1.393 . S
C1405 C1404 1.391 . S
C1406 H1396 0.950 . S
C1406 C1407 1.386 . S
C1406 C1408 1.391 . S
C1407 C1406 1.386 . S
C1407 C1411 1.393 . S
C1408 H1397 0.950 . S
C1408 C1406 1.391 . S
C1408 C1409 1.400 . S
C1409 C1403 1.491 . S
C1409 C1408 1.400 . S
C1409 C1410 1.398 . S
C1410 H1398 0.950 . S
C1410 C1409 1.398 . S
C1410 C1411 1.391 . S
C1411 H1399 0.950 . S
C1411 C1407 1.393 . S
C1411 C1410 1.391 . S
H1412 C1420 0.950 . S
H1413 C1425 0.950 . S
H1414 C1422 0.950 . S
H1415 C1424 0.950 . S
H1416 C1426 0.950 . S
H1417 C1428 0.950 . S
H1418 C1430 0.950 . S
H1419 C1431 0.950 . S
C1420 H1412 0.950 . S
C1420 C1421 1.386 . S
C1420 C1422 1.391 . S
C1421 C1420 1.386 . S
C1421 C1425 1.393 . S
C1422 H1414 0.950 . S
C1422 C1420 1.391 . S
C1422 C1423 1.400 . S
C1423 C1422 1.400 . S
C1423 C1424 1.398 . S
C1423 C1429 1.491 . S
C1424 H1415 0.950 . S
C1424 C1423 1.398 . S
C1424 C1425 1.391 . S
C1425 H1413 0.950 . S
C1425 C1421 1.393 . S
C1425 C1424 1.391 . S
C1426 H1416 0.950 . S
C1426 C1427 1.386 . S
C1426 C1428 1.391 . S
C1427 C1426 1.386 . S
C1427 C1431 1.393 . S
C1428 H1417 0.950 . S
C1428 C1426 1.391 . S
C1428 C1429 1.400 . S
C1429 C1423 1.491 . S
C1429 C1428 1.400 . S
C1429 C1430 1.398 . S
C1430 H1418 0.950 . S
C1430 C1429 1.398 . S
C1430 C1431 1.391 . S
C1431 H1419 0.950 . S
C1431 C1427 1.393 . S
C1431 C1430 1.391 . S
H1432 C1440 0.950 . S
H1433 C1445 0.950 . S
H1434 C1442 0.950 . S
H1435 C1444 0.950 . S
H1436 C1446 0.950 . S
H1437 C1448 0.950 . S
H1438 C1450 0.950 . S
H1439 C1451 0.950 1_545 S
C1440 H1432 0.950 . S
C1440 C1441 1.386 . S
C1440 C1442 1.391 . S
C1441 C1440 1.386 . S
C1441 C1445 1.393 . S
C1442 H1434 0.950 . S
C1442 C1440 1.391 . S
C1442 C1443 1.400 . S
C1443 C1442 1.400 . S
C1443 C1444 1.398 . S
C1443 C1449 1.491 . S
C1444 H1435 0.950 . S
C1444 C1443 1.398 . S
C1444 C1445 1.391 . S
C1445 H1433 0.950 . S
C1445 C1441 1.393 . S
C1445 C1444 1.391 . S
C1446 H1436 0.950 . S
C1446 C1447 1.386 . S
C1446 C1448 1.391 . S
C1447 C1446 1.386 . S
C1447 C1451 1.393 . S
C1448 H1437 0.950 . S
C1448 C1446 1.391 . S
C1448 C1449 1.400 . S
C1449 C1443 1.491 . S
C1449 C1448 1.400 . S
C1449 C1450 1.398 . S
C1450 H1438 0.950 . S
C1450 C1449 1.398 . S
C1450 C1451 1.391 . S
C1451 H1439 0.950 1_565 S
C1451 C1447 1.393 . S
C1451 C1450 1.391 . S
H1452 C1460 0.950 . S
H1453 C1465 0.950 . S
H1454 C1462 0.950 . S
H1455 C1464 0.950 . S
H1456 C1466 0.950 1_655 S
H1457 C1468 0.950 . S
H1458 C1470 0.950 . S
H1459 C1471 0.950 . S
C1460 H1452 0.950 . S
C1460 C1461 1.386 . S
C1460 C1462 1.391 . S
C1461 C1460 1.386 . S
C1461 C1465 1.393 . S
C1462 H1454 0.950 . S
C1462 C1460 1.391 . S
C1462 C1463 1.400 . S
C1463 C1462 1.400 . S
C1463 C1464 1.398 . S
C1463 C1469 1.491 . S
C1464 H1455 0.950 . S
C1464 C1463 1.398 . S
C1464 C1465 1.391 . S
C1465 H1453 0.950 . S
C1465 C1461 1.393 . S
C1465 C1464 1.391 . S
C1466 H1456 0.950 1_455 S
C1466 C1467 1.386 1_455 S
C1466 C1468 1.391 . S
C1467 C1466 1.386 1_655 S
C1467 C1471 1.393 1_655 S
C1468 H1457 0.950 . S
C1468 C1466 1.391 . S
C1468 C1469 1.400 . S
C1469 C1463 1.491 . S
C1469 C1468 1.400 . S
C1469 C1470 1.398 . S
C1470 H1458 0.950 . S
C1470 C1469 1.398 . S
C1470 C1471 1.391 . S
C1471 H1459 0.950 . S
C1471 C1467 1.393 1_455 S
C1471 C1470 1.391 . S
H1472 C1480 0.950 . S
H1473 C1485 0.950 . S
H1474 C1482 0.950 . S
H1475 C1484 0.950 . S
H1476 C1486 0.950 . S
H1477 C1488 0.950 . S
H1478 C1490 0.950 . S
H1479 C1491 0.950 . S
C1480 H1472 0.950 . S
C1480 C1481 1.386 . S
C1480 C1482 1.391 . S
C1481 C1480 1.386 . S
C1481 C1485 1.393 . S
C1482 H1474 0.950 . S
C1482 C1480 1.391 . S
C1482 C1483 1.400 . S
C1483 C1482 1.400 . S
C1483 C1484 1.398 . S
C1483 C1489 1.491 . S
C1484 H1475 0.950 . S
C1484 C1483 1.398 . S
C1484 C1485 1.391 . S
C1485 H1473 0.950 . S
C1485 C1481 1.393 . S
C1485 C1484 1.391 . S
C1486 H1476 0.950 . S
C1486 C1487 1.386 . S
C1486 C1488 1.391 . S
C1487 C1486 1.386 . S
C1487 C1491 1.393 . S
C1488 H1477 0.950 . S
C1488 C1486 1.391 . S
C1488 C1489 1.400 . S
C1489 C1483 1.491 . S
C1489 C1488 1.400 . S
C1489 C1490 1.398 . S
C1490 H1478 0.950 . S
C1490 C1489 1.398 . S
C1490 C1491 1.391 . S
C1491 H1479 0.950 . S
C1491 C1487 1.393 . S
C1491 C1490 1.391 . S
H1492 C1500 0.950 . S
H1493 C1505 0.950 . S
H1494 C1502 0.950 . S
H1495 C1504 0.950 . S
H1496 C1506 0.950 . S
H1497 C1508 0.950 . S
H1498 C1510 0.950 . S
H1499 C1511 0.950 . S
C1500 H1492 0.950 . S
C1500 C1501 1.386 . S
C1500 C1502 1.391 . S
C1501 C1500 1.386 . S
C1501 C1505 1.393 . S
C1502 H1494 0.950 . S
C1502 C1500 1.391 . S
C1502 C1503 1.400 . S
C1503 C1502 1.400 . S
C1503 C1504 1.398 . S
C1503 C1509 1.491 . S
C1504 H1495 0.950 . S
C1504 C1503 1.398 . S
C1504 C1505 1.391 . S
C1505 H1493 0.950 . S
C1505 C1501 1.393 . S
C1505 C1504 1.391 . S
C1506 H1496 0.950 . S
C1506 C1507 1.386 . S
C1506 C1508 1.391 1_545 S
C1507 C1506 1.386 . S
C1507 C1511 1.393 1_545 S
C1508 H1497 0.950 . S
C1508 C1506 1.391 1_565 S
C1508 C1509 1.400 . S
C1509 C1503 1.491 . S
C1509 C1508 1.400 . S
C1509 C1510 1.398 . S
C1510 H1498 0.950 . S
C1510 C1509 1.398 . S
C1510 C1511 1.391 . S
C1511 H1499 0.950 . S
C1511 C1507 1.393 1_565 S
C1511 C1510 1.391 . S
H1512 C1520 0.950 . S
H1513 C1525 0.950 . S
H1514 C1522 0.950 . S
H1515 C1524 0.950 . S
H1516 C1526 0.950 . S
H1517 C1528 0.950 . S
H1518 C1530 0.950 . S
H1519 C1531 0.950 . S
C1520 H1512 0.950 . S
C1520 C1521 1.386 1_565 S
C1520 C1522 1.391 . S
C1521 C1520 1.386 1_545 S
C1521 C1525 1.393 . S
C1522 H1514 0.950 . S
C1522 C1520 1.391 . S
C1522 C1523 1.400 . S
C1523 C1522 1.400 . S
C1523 C1524 1.398 . S
C1523 C1529 1.491 . S
C1524 H1515 0.950 . S
C1524 C1523 1.398 . S
C1524 C1525 1.391 1_565 S
C1525 H1513 0.950 . S
C1525 C1521 1.393 . S
C1525 C1524 1.391 1_545 S
C1526 H1516 0.950 . S
C1526 C1527 1.386 . S
C1526 C1528 1.391 . S
C1527 C1526 1.386 . S
C1527 C1531 1.393 . S
C1528 H1517 0.950 . S
C1528 C1526 1.391 . S
C1528 C1529 1.400 . S
C1529 C1523 1.491 . S
C1529 C1528 1.400 . S
C1529 C1530 1.398 . S
C1530 H1518 0.950 . S
C1530 C1529 1.398 . S
C1530 C1531 1.391 . S
C1531 H1519 0.950 . S
C1531 C1527 1.393 . S
C1531 C1530 1.391 . S
H1532 C1540 0.949 . S
H1533 C1545 0.950 . S
H1534 C1542 0.950 . S
H1535 C1544 0.950 . S
H1536 C1546 0.950 . S
H1537 C1548 0.950 . S
H1538 C1550 0.950 . S
H1539 C1551 0.950 . S
C1540 H1532 0.949 . S
C1540 C1541 1.384 . S
C1540 C1542 1.393 1_655 S
C1541 C1540 1.384 . S
C1541 C1545 1.393 1_655 S
C1542 H1534 0.950 . S
C1542 C1540 1.393 1_455 S
C1542 C1543 1.400 . S
C1543 C1542 1.400 . S
C1543 C1544 1.398 . S
C1543 C1549 1.491 . S
C1544 H1535 0.950 . S
C1544 C1543 1.398 . S
C1544 C1545 1.391 . S
C1545 H1533 0.950 . S
C1545 C1541 1.393 1_455 S
C1545 C1544 1.391 . S
C1546 H1536 0.950 . S
C1546 C1547 1.386 . S
C1546 C1548 1.391 . S
C1547 C1546 1.386 . S
C1547 C1551 1.393 . S
C1548 H1537 0.950 . S
C1548 C1546 1.391 . S
C1548 C1549 1.400 . S
C1549 C1543 1.491 . S
C1549 C1548 1.400 . S
C1549 C1550 1.398 . S
C1550 H1538 0.950 . S
C1550 C1549 1.398 . S
C1550 C1551 1.391 . S
C1551 H1539 0.950 . S
C1551 C1547 1.393 . S
C1551 C1550 1.391 . S
H1552 C1560 0.950 . S
H1553 C1565 0.950 . S
H1554 C1562 0.950 . S
H1555 C1564 0.950 . S
H1556 C1566 0.950 . S
H1557 C1568 0.950 . S
H1558 C1570 0.950 . S
H1559 C1571 0.950 . S
C1560 H1552 0.950 . S
C1560 C1561 1.386 . S
C1560 C1562 1.391 . S
C1561 C1560 1.386 . S
C1561 C1565 1.393 . S
C1562 H1554 0.950 . S
C1562 C1560 1.391 . S
C1562 C1563 1.400 . S
C1563 C1562 1.400 . S
C1563 C1564 1.398 . S
C1563 C1569 1.491 . S
C1564 H1555 0.950 . S
C1564 C1563 1.398 . S
C1564 C1565 1.391 . S
C1565 H1553 0.950 . S
C1565 C1561 1.393 . S
C1565 C1564 1.391 . S
C1566 H1556 0.950 . S
C1566 C1567 1.386 . S
C1566 C1568 1.391 . S
C1567 C1566 1.386 . S
C1567 C1571 1.393 . S
C1568 H1557 0.950 . S
C1568 C1566 1.391 . S
C1568 C1569 1.400 . S
C1569 C1563 1.491 . S
C1569 C1568 1.400 . S
C1569 C1570 1.398 . S
C1570 H1558 0.950 . S
C1570 C1569 1.398 . S
C1570 C1571 1.391 . S
C1571 H1559 0.950 . S
C1571 C1567 1.393 . S
C1571 C1570 1.391 . S
H1572 C1580 0.950 . S
H1573 C1585 0.950 . S
H1574 C1582 0.950 . S
H1575 C1584 0.950 . S
H1576 C1586 0.950 . S
H1577 C1588 0.950 . S
H1578 C1590 0.950 . S
H1579 C1591 0.950 . S
C1580 H1572 0.950 . S
C1580 C1581 1.386 . S
C1580 C1582 1.391 . S
C1581 C1580 1.386 . S
C1581 C1585 1.393 . S
C1582 H1574 0.950 . S
C1582 C1580 1.391 . S
C1582 C1583 1.400 . S
C1583 C1582 1.400 . S
C1583 C1584 1.398 . S
C1583 C1589 1.491 . S
C1584 H1575 0.950 . S
C1584 C1583 1.398 . S
C1584 C1585 1.391 . S
C1585 H1573 0.950 . S
C1585 C1581 1.393 . S
C1585 C1584 1.391 . S
C1586 H1576 0.950 . S
C1586 C1587 1.386 . S
C1586 C1588 1.391 . S
C1587 C1586 1.386 . S
C1587 C1591 1.393 . S
C1588 H1577 0.950 . S
C1588 C1586 1.391 . S
C1588 C1589 1.400 . S
C1589 C1583 1.491 . S
C1589 C1588 1.400 . S
C1589 C1590 1.398 . S
C1590 H1578 0.950 . S
C1590 C1589 1.398 . S
C1590 C1591 1.391 . S
C1591 H1579 0.950 . S
C1591 C1587 1.393 . S
C1591 C1590 1.391 . S
H1592 C1600 0.950 . S
H1593 C1605 0.950 . S
H1594 C1602 0.950 . S
H1595 C1604 0.950 . S
H1596 C1606 0.950 . S
H1597 C1608 0.950 . S
H1598 C1610 0.950 . S
H1599 C1611 0.950 . S
C1600 H1592 0.950 . S
C1600 C1601 1.386 . S
C1600 C1602 1.391 . S
C1601 C1600 1.386 . S
C1601 C1605 1.393 . S
C1602 H1594 0.950 . S
C1602 C1600 1.391 . S
C1602 C1603 1.400 . S
C1603 C1602 1.400 . S
C1603 C1604 1.398 . S
C1603 C1609 1.491 . S
C1604 H1595 0.950 . S
C1604 C1603 1.398 . S
C1604 C1605 1.391 . S
C1605 H1593 0.950 . S
C1605 C1601 1.393 . S
C1605 C1604 1.391 . S
C1606 H1596 0.950 . S
C1606 C1607 1.386 . S
C1606 C1608 1.391 . S
C1607 C1606 1.386 . S
C1607 C1611 1.393 . S
C1608 H1597 0.950 . S
C1608 C1606 1.391 . S
C1608 C1609 1.400 . S
C1609 C1603 1.491 . S
C1609 C1608 1.400 . S
C1609 C1610 1.398 . S
C1610 H1598 0.950 . S
C1610 C1609 1.398 . S
C1610 C1611 1.391 . S
C1611 H1599 0.950 . S
C1611 C1607 1.393 . S
C1611 C1610 1.391 . S
H1612 C1620 0.950 . S
H1613 C1625 0.950 . S
H1614 C1622 0.950 . S
H1615 C1624 0.950 . S
H1616 C1626 0.950 . S
H1617 C1628 0.950 . S
H1618 C1630 0.950 . S
H1619 C1631 0.950 . S
C1620 H1612 0.950 . S
C1620 C1621 1.386 . S
C1620 C1622 1.391 . S
C1621 C1620 1.386 . S
C1621 C1625 1.393 . S
C1622 H1614 0.950 . S
C1622 C1620 1.391 . S
C1622 C1623 1.400 . S
C1623 C1622 1.400 . S
C1623 C1624 1.398 . S
C1623 C1629 1.491 . S
C1624 H1615 0.950 . S
C1624 C1623 1.398 . S
C1624 C1625 1.391 . S
C1625 H1613 0.950 . S
C1625 C1621 1.393 . S
C1625 C1624 1.391 . S
C1626 H1616 0.950 . S
C1626 C1627 1.386 . S
C1626 C1628 1.391 . S
C1627 C1626 1.386 . S
C1627 C1631 1.393 . S
C1628 H1617 0.950 . S
C1628 C1626 1.391 . S
C1628 C1629 1.400 . S
C1629 C1623 1.491 . S
C1629 C1628 1.400 . S
C1629 C1630 1.398 . S
C1630 H1618 0.950 . S
C1630 C1629 1.398 . S
C1630 C1631 1.391 . S
C1631 H1619 0.950 . S
C1631 C1627 1.393 . S
C1631 C1630 1.391 . S
H1632 C1640 0.950 . S
H1633 C1645 0.950 . S
H1634 C1642 0.950 . S
H1635 C1644 0.950 . S
H1636 C1646 0.950 . S
H1637 C1648 0.950 . S
H1638 C1650 0.950 . S
H1639 C1651 0.950 . S
C1640 H1632 0.950 . S
C1640 C1641 1.386 . S
C1640 C1642 1.391 . S
C1641 C1640 1.386 . S
C1641 C1645 1.393 . S
C1642 H1634 0.950 . S
C1642 C1640 1.391 . S
C1642 C1643 1.400 . S
C1643 C1642 1.400 . S
C1643 C1644 1.398 . S
C1643 C1649 1.491 . S
C1644 H1635 0.950 . S
C1644 C1643 1.398 . S
C1644 C1645 1.391 . S
C1645 H1633 0.950 . S
C1645 C1641 1.393 . S
C1645 C1644 1.391 . S
C1646 H1636 0.950 . S
C1646 C1647 1.386 . S
C1646 C1648 1.391 . S
C1647 C1646 1.386 . S
C1647 C1651 1.393 . S
C1648 H1637 0.950 . S
C1648 C1646 1.391 . S
C1648 C1649 1.400 . S
C1649 C1643 1.491 . S
C1649 C1648 1.400 . S
C1649 C1650 1.398 . S
C1650 H1638 0.950 . S
C1650 C1649 1.398 . S
C1650 C1651 1.391 . S
C1651 H1639 0.950 . S
C1651 C1647 1.393 . S
C1651 C1650 1.391 . S
H1652 C1660 0.950 . S
H1653 C1665 0.950 . S
H1654 C1662 0.950 . S
H1655 C1664 0.950 . S
H1656 C1666 0.938 1_556 S
H1657 C1668 0.950 . S
H1658 C1670 0.950 . S
H1659 C1671 0.950 . S
C1660 H1652 0.950 . S
C1660 C1661 1.386 . S
C1660 C1662 1.391 . S
C1661 C1660 1.386 . S
C1661 C1665 1.393 . S
C1662 H1654 0.950 . S
C1662 C1660 1.391 . S
C1662 C1663 1.400 . S
C1663 C1662 1.400 . S
C1663 C1664 1.398 . S
C1663 C1669 1.491 . S
C1664 H1655 0.950 . S
C1664 C1663 1.398 . S
C1664 C1665 1.391 . S
C1665 H1653 0.950 . S
C1665 C1661 1.393 . S
C1665 C1664 1.391 . S
C1666 H1656 0.938 1_554 S
C1666 C1667 1.386 . S
C1666 C1668 1.391 . S
C1667 C1666 1.386 . S
C1667 C1671 1.393 . S
C1668 H1657 0.950 . S
C1668 C1666 1.391 . S
C1668 C1669 1.400 . S
C1669 C1663 1.491 . S
C1669 C1668 1.400 . S
C1669 C1670 1.398 . S
C1670 H1658 0.950 . S
C1670 C1669 1.398 . S
C1670 C1671 1.391 . S
C1671 H1659 0.950 . S
C1671 C1667 1.393 . S
C1671 C1670 1.391 . S
H1672 C1680 0.950 . S
H1673 C1685 0.950 1_556 S
H1674 C1682 0.950 . S
H1675 C1684 0.950 . S
H1676 C1686 0.950 . S
H1677 C1688 0.950 . S
H1678 C1690 0.950 . S
H1679 C1691 0.950 . S
C1680 H1672 0.950 . S
C1680 C1681 1.386 . S
C1680 C1682 1.391 . S
C1681 C1680 1.386 . S
C1681 C1685 1.393 . S
C1682 H1674 0.950 . S
C1682 C1680 1.391 . S
C1682 C1683 1.400 . S
C1683 C1682 1.400 . S
C1683 C1684 1.398 . S
C1683 C1689 1.491 . S
C1684 H1675 0.950 . S
C1684 C1683 1.398 . S
C1684 C1685 1.391 . S
C1685 H1673 0.950 1_554 S
C1685 C1681 1.393 . S
C1685 C1684 1.391 . S
C1686 H1676 0.950 . S
C1686 C1687 1.386 . S
C1686 C1688 1.391 . S
C1687 C1686 1.386 . S
C1687 C1691 1.393 . S
C1688 H1677 0.950 . S
C1688 C1686 1.391 . S
C1688 C1689 1.400 . S
C1689 C1683 1.491 . S
C1689 C1688 1.400 . S
C1689 C1690 1.398 . S
C1690 H1678 0.950 . S
C1690 C1689 1.398 . S
C1690 C1691 1.391 . S
C1691 H1679 0.950 . S
C1691 C1687 1.393 . S
C1691 C1690 1.391 . S
C621 C17 0.527 1_556 S
C627 C72 0.414 . S
C641 C4 0.418 . S
C647 C51 0.480 1_556 S
C661 C85 0.519 1_556 S
C667 C38 0.403 . S
C681 C149 0.404 . S
C687 C110 0.520 . S
C701 C183 0.368 . S
C707 C144 0.464 . S
C721 C178 0.496 . S
C727 C115 0.425 . S
C741 C276 0.405 . S
C747 C221 0.461 . S
C761 C255 0.463 . S
C767 C208 0.368 . S
C781 C242 0.367 . S
C787 C289 0.456 . S
C801 C314 0.524 . S
C807 C353 0.410 . S
C821 C387 0.389 . S
C827 C348 0.505 . S
C841 C382 0.515 . S
C847 C319 0.430 . S
C861 C480 0.422 . S
C867 C425 0.529 . S
C881 C459 0.442 . S
C887 C412 0.384 . S
C901 C493 0.515 . S
C907 C446 0.399 . S
C921 C518 0.446 . S
C927 C557 0.368 . S
C941 C591 0.383 . S
C947 C552 0.442 . S
C961 C523 0.420 . S
C967 C586 0.483 . S
C981 C170 1.233 . S
C987 C0 1.233 . S
C1001 C102 1.234 . S
C1007 C34 1.233 . S
C1021 C136 1.240 . S
C1027 C68 1.239 . S
C1041 C63 1.244 . S
C1047 C131 1.244 . S
C1061 C165 1.226 . S
C1067 C97 1.226 . S
C1081 C29 1.240 . S
C1087 C199 1.239 . S
C1101 C204 1.230 . S
C1107 C374 1.230 . S
C1121 C238 1.226 . S
C1127 C306 1.226 . S
C1141 C340 1.227 . S
C1147 C272 1.227 . S
C1161 C335 1.229 . S
C1167 C267 1.229 . S
C1181 C369 1.230 . S
C1187 C301 1.230 . S
C1201 C403 1.237 . S
C1207 C233 1.237 . S
C1221 C408 1.242 . S
C1227 C578 1.242 . S
C1241 C442 1.233 . S
C1247 C510 1.233 . S
C1261 C476 1.225 . S
C1267 C544 1.226 . S
C1281 C539 1.229 . S
C1287 C471 1.229 . S
C1301 C573 1.247 . S
C1307 C505 1.247 . S
C1321 C607 1.229 . S
C1327 C437 1.230 . S
C1341 C357 2.088 . S
C1347 C13 2.166 1_565 S
C1361 C47 2.159 1_455 S
C1367 C391 2.074 . S
C1381 C323 2.092 . S
C1387 C81 2.167 . S
C1401 C106 2.159 1_455 S
C1407 C280 2.074 . S
C1421 C140 2.162 . S
C1427 C212 2.089 . S
C1441 C246 2.083 . S
C1447 C174 2.164 1_565 S
C1461 C217 2.162 . S
C1467 C561 2.078 . S
C1481 C251 2.163 . S
C1487 C595 2.092 . S
C1501 C285 2.167 . S
C1507 C527 2.091 . S
C1521 C484 2.075 . S
C1527 C310 2.158 . S
C1541 C416 2.083 . S
C1547 C344 2.164 . S
C1561 C450 2.093 . S
C1567 C378 2.165 . S
C1581 C153 2.075 . S
C1587 C421 2.158 . S
C1601 C455 2.158 . S
C1607 C187 2.079 . S
C1621 C119 2.075 . S
C1627 C489 2.158 . S
C1641 C514 2.158 . S
C1647 C76 2.079 . S
C1661 C548 2.162 . S
C1667 C8 2.089 . S
C1681 C42 2.095 . S
C1687 C582 2.167 . S
