# Generated by pormake.
# Topology whr, (6)-cn, num edge types: 1
# Building blocks:
#     Node 0, Type 0, BuildingBlock: OJICUG_clean_sbu_0, # of connection points: 6
#     Node 1, Type 0, BuildingBlock: OJICUG_clean_sbu_0, # of connection points: 6
#     Node 2, Type 0, BuildingBlock: OJICUG_clean_sbu_0, # of connection points: 6
#     Node 3, Type 0, BuildingBlock: OJICUG_clean_sbu_0, # of connection points: 6
#     Node 4, Type 0, BuildingBlock: OJICUG_clean_sbu_0, # of connection points: 6
#     Node 5, Type 0, BuildingBlock: OJICUG_clean_sbu_0, # of connection points: 6
#     Node 6, Type 0, BuildingBlock: OJICUG_clean_sbu_0, # of connection points: 6
#     Node 7, Type 0, BuildingBlock: OJICUG_clean_sbu_0, # of connection points: 6
#     Node 8, Type 0, BuildingBlock: OJICUG_clean_sbu_0, # of connection points: 6
#     Node 9, Type 0, BuildingBlock: OJICUG_clean_sbu_0, # of connection points: 6
#     Node 10, Type 0, BuildingBlock: OJICUG_clean_sbu_0, # of connection points: 6
#     Node 11, Type 0, BuildingBlock: OJICUG_clean_sbu_0, # of connection points: 6
#     Node 12, Type 0, BuildingBlock: OJICUG_clean_sbu_0, # of connection points: 6
#     Node 13, Type 0, BuildingBlock: OJICUG_clean_sbu_0, # of connection points: 6
#     Node 14, Type 0, BuildingBlock: OJICUG_clean_sbu_0, # of connection points: 6
#     Node 15, Type 0, BuildingBlock: OJICUG_clean_sbu_0, # of connection points: 6
#     Edge 16, Type (0, 0), None
#     Edge 17, Type (0, 0), None
#     Edge 18, Type (0, 0), None
#     Edge 19, Type (0, 0), None
#     Edge 20, Type (0, 0), None
#     Edge 21, Type (0, 0), None
#     Edge 22, Type (0, 0), None
#     Edge 23, Type (0, 0), None
#     Edge 24, Type (0, 0), None
#     Edge 25, Type (0, 0), None
#     Edge 26, Type (0, 0), None
#     Edge 27, Type (0, 0), None
#     Edge 28, Type (0, 0), None
#     Edge 29, Type (0, 0), None
#     Edge 30, Type (0, 0), None
#     Edge 31, Type (0, 0), None
#     Edge 32, Type (0, 0), None
#     Edge 33, Type (0, 0), None
#     Edge 34, Type (0, 0), None
#     Edge 35, Type (0, 0), None
#     Edge 36, Type (0, 0), None
#     Edge 37, Type (0, 0), None
#     Edge 38, Type (0, 0), None
#     Edge 39, Type (0, 0), None
#     Edge 40, Type (0, 0), None
#     Edge 41, Type (0, 0), None
#     Edge 42, Type (0, 0), None
#     Edge 43, Type (0, 0), None
#     Edge 44, Type (0, 0), None
#     Edge 45, Type (0, 0), None
#     Edge 46, Type (0, 0), None
#     Edge 47, Type (0, 0), None
#     Edge 48, Type (0, 0), None
#     Edge 49, Type (0, 0), None
#     Edge 50, Type (0, 0), None
#     Edge 51, Type (0, 0), None
#     Edge 52, Type (0, 0), None
#     Edge 53, Type (0, 0), None
#     Edge 54, Type (0, 0), None
#     Edge 55, Type (0, 0), None
#     Edge 56, Type (0, 0), None
#     Edge 57, Type (0, 0), None
#     Edge 58, Type (0, 0), None
#     Edge 59, Type (0, 0), None
#     Edge 60, Type (0, 0), None
#     Edge 61, Type (0, 0), None
#     Edge 62, Type (0, 0), None
#     Edge 63, Type (0, 0), None
# Relax obj value: 0.342
# Max RMSD: 0.271
# Mean RMSD: 0.271
data_MOF--net-whr--node1-OJICUG_clean_sbu_0--edge1-none
_symmetry_space_group_name_H-M    P1
_symmetry_Int_Tables_number       1
_symmetry_cell_setting            triclinic
loop_
_symmetry_equiv_pos_as_xyz
'x, y, z'
_cell_length_a     23.506374
_cell_length_b     23.506318
_cell_length_c     14.271754
_cell_angle_alpha  90.000005
_cell_angle_beta   89.999995
_cell_angle_gamma 90.000761
loop_
_atom_site_label
_atom_site_type_symbol
_atom_site_fract_x
_atom_site_fract_y
_atom_site_fract_z
_atom_type_partial_charge
Sc0 Sc 0.17109 0.04985 0.1508 0.0
Sc1 Sc 0.25402 0.1394 0.01913 0.0
Sc2 Sc 0.29334 0.99761 0.05132 0.0
O3 O 0.23833 0.06236 0.07076 0.0
C4 C 0.26753 0.97819 0.25615 0.0
C5 C 0.20468 0.16774 0.22587 0.0
C6 C 0.37438 0.10533 0.03775 0.0
C7 C 0.12443 0.1411 0.99981 0.0
C8 C 0.17144 0.93903 0.04458 0.0
C9 C 0.27974 0.04688 0.85434 0.0
O10 O 0.21527 0.98786 0.23796 0.0
O11 O 0.22089 0.18445 0.1446 0.0
O12 O 0.36763 0.0525 0.02196 0.0
O13 O 0.11874 0.10989 0.07241 0.0
O14 O 0.2246 0.93467 0.06244 0.0
O15 O 0.27993 0.09843 0.88517 0.0
O16 O 0.14374 0.98456 0.05768 0.0
O17 O 0.17179 0.14998 0.96006 0.0
O18 O 0.27722 1.00334 0.90674 0.0
O19 O 0.19928 0.11525 0.24496 0.0
O20 O 0.30751 0.99179 0.20001 0.0
O21 O 0.33599 0.13202 0.08123 0.0
Sc22 Sc 0.04985 0.84278 0.8583 0.0
Sc23 Sc 0.1394 0.75983 0.98994 0.0
Sc24 Sc 0.9976 0.72052 0.95775 0.0
O25 O 0.06237 0.77552 0.9383 0.0
C26 C 0.93904 0.84243 0.96452 0.0
C27 C 0.14109 0.88942 0.00929 0.0
C28 C 0.04688 0.73408 0.15473 0.0
C29 C 0.16775 0.80917 0.7832 0.0
C30 C 0.9782 0.74635 0.7529 0.0
C31 C 0.10531 0.63946 0.97132 0.0
O32 O 0.98457 0.87012 0.95143 0.0
O33 O 0.15 0.84205 0.04902 0.0
O34 O 1.00335 0.73663 0.10232 0.0
O35 O 0.11526 0.81462 0.76413 0.0
O36 O 0.99177 0.70637 0.80904 0.0
O37 O 0.13202 0.67785 0.92787 0.0
O38 O 0.98786 0.79861 0.77111 0.0
O39 O 0.18445 0.79295 0.86447 0.0
O40 O 0.05248 0.64623 0.98708 0.0
O41 O 0.10989 0.89513 0.9367 0.0
O42 O 0.93467 0.78926 0.94663 0.0
O43 O 0.09843 0.73391 0.12389 0.0
Sc44 Sc 0.72051 0.01625 0.05131 0.0
Sc45 Sc 0.75984 0.87446 0.01913 0.0
Sc46 Sc 0.84276 0.96401 0.15079 0.0
O47 O 0.77552 0.95149 0.07076 0.0
C48 C 0.84242 0.07482 0.04458 0.0
C49 C 0.73411 0.96698 0.85433 0.0
C50 C 0.88942 0.87277 0.9998 0.0
C51 C 0.63947 0.90853 0.03775 0.0
C52 C 0.74632 0.03566 0.25614 0.0
C53 C 0.80917 0.84611 0.22587 0.0
O54 O 0.78925 0.07918 0.06244 0.0
O55 O 0.73392 0.91543 0.88517 0.0
O56 O 0.89512 0.90397 0.07241 0.0
O57 O 0.64622 0.96135 0.02196 0.0
O58 O 0.79858 0.026 0.23796 0.0
O59 O 0.79296 0.82941 0.1446 0.0
O60 O 0.70635 0.02206 0.20001 0.0
O61 O 0.67786 0.88183 0.08122 0.0
O62 O 0.81457 0.89861 0.24496 0.0
O63 O 0.73663 0.01051 0.90674 0.0
O64 O 0.87011 0.02929 0.05768 0.0
O65 O 0.84206 0.86387 0.96006 0.0
Sc66 Sc 0.01625 0.29334 0.95774 0.0
Sc67 Sc 0.87446 0.25402 0.98994 0.0
Sc68 Sc 0.96401 0.17108 0.8583 0.0
O69 O 0.95149 0.23833 0.9383 0.0
C70 C 0.03565 0.26751 0.7529 0.0
C71 C 0.90854 0.37439 0.97132 0.0
C72 C 0.8461 0.20468 0.7832 0.0
C73 C 0.96697 0.27978 0.15473 0.0
C74 C 0.07482 0.17143 0.96453 0.0
C75 C 0.87276 0.12443 0.00929 0.0
O76 O 0.02208 0.30749 0.80904 0.0
O77 O 0.88183 0.336 0.92786 0.0
O78 O 0.89859 0.19923 0.76413 0.0
O79 O 0.0105 0.27723 0.10232 0.0
O80 O 0.02929 0.14374 0.95143 0.0
O81 O 0.86385 0.1718 0.04901 0.0
O82 O 0.07918 0.2246 0.94663 0.0
O83 O 0.91542 0.27994 0.12389 0.0
O84 O 0.90397 0.11873 0.9367 0.0
O85 O 0.96137 0.36763 0.98708 0.0
O86 O 0.02599 0.21525 0.77111 0.0
O87 O 0.82941 0.22091 0.86447 0.0
Sc88 Sc 0.72052 0.9976 0.55134 0.0
Sc89 Sc 0.75984 0.1394 0.5191 0.0
Sc90 Sc 0.84279 0.04985 0.65075 0.0
O91 O 0.77553 0.06237 0.57075 0.0
C92 C 0.74639 0.97815 0.75612 0.0
C93 C 0.63947 0.10532 0.53774 0.0
C94 C 0.80911 0.16772 0.72587 0.0
C95 C 0.73402 0.04687 0.35434 0.0
C96 C 0.84243 0.93905 0.54452 0.0
C97 C 0.88943 0.14111 0.49979 0.0
O98 O 0.70639 0.99178 0.70005 0.0
O99 O 0.67786 0.13204 0.58117 0.0
O100 O 0.81462 0.11523 0.74494 0.0
O101 O 0.73659 1.00334 0.40675 0.0
O102 O 0.87012 0.98458 0.5576 0.0
O103 O 0.84207 0.14999 0.46003 0.0
O104 O 0.78927 0.93468 0.56242 0.0
O105 O 0.73393 0.09842 0.38515 0.0
O106 O 0.89513 0.1099 0.57238 0.0
O107 O 0.64622 0.05248 0.52202 0.0
O108 O 0.79864 0.98784 0.73792 0.0
O109 O 0.79296 0.18444 0.64458 0.0
Sc110 Sc 0.04984 0.17109 0.35827 0.0
Sc111 Sc 0.13939 0.254 0.48994 0.0
Sc112 Sc 0.99761 0.29335 0.45771 0.0
O113 O 0.06236 0.23833 0.43829 0.0
C114 C 0.97814 0.2675 0.25294 0.0
C115 C 0.16771 0.20473 0.28317 0.0
C116 C 0.10534 0.37438 0.4713 0.0
C117 C 0.14109 0.12442 0.50923 0.0
C118 C 0.93904 0.17145 0.4645 0.0
C119 C 0.04686 0.27981 0.6547 0.0
O120 O 0.98783 0.21525 0.27112 0.0
O121 O 0.18444 0.22088 0.36446 0.0
O122 O 0.0525 0.36764 0.48704 0.0
O123 O 0.10989 0.11873 0.43663 0.0
O124 O 0.93468 0.22461 0.44661 0.0
O125 O 0.09842 0.27991 0.62391 0.0
O126 O 0.98457 0.14375 0.45141 0.0
O127 O 0.14997 0.17178 0.54901 0.0
O128 O 1.00333 0.27727 0.60229 0.0
O129 O 0.11522 0.19928 0.26409 0.0
O130 O 0.9918 0.30749 0.309 0.0
O131 O 0.13204 0.33598 0.42785 0.0
Sc132 Sc 0.17106 0.96401 0.65075 0.0
Sc133 Sc 0.25401 0.87446 0.5191 0.0
Sc134 Sc 0.29334 0.01625 0.55134 0.0
O135 O 0.23833 0.95149 0.57075 0.0
C136 C 0.17143 0.07481 0.54451 0.0
C137 C 0.12442 0.87275 0.49979 0.0
C138 C 0.27984 0.96699 0.35434 0.0
C139 C 0.20474 0.84613 0.72588 0.0
C140 C 0.26747 0.0357 0.75612 0.0
C141 C 0.37438 0.90854 0.53774 0.0
O142 O 0.14373 0.02928 0.55759 0.0
O143 O 0.17178 0.86387 0.46003 0.0
O144 O 0.27726 0.01052 0.40676 0.0
O145 O 0.19923 0.89862 0.74494 0.0
O146 O 0.30747 0.02207 0.70005 0.0
O147 O 0.33599 0.88182 0.58117 0.0
O148 O 0.21521 0.02602 0.73792 0.0
O149 O 0.2209 0.82941 0.64458 0.0
O150 O 0.36763 0.96137 0.52202 0.0
O151 O 0.11872 0.90396 0.57238 0.0
O152 O 0.22459 0.07918 0.56242 0.0
O153 O 0.27992 0.91543 0.38515 0.0
Sc154 Sc 0.01624 0.7205 0.45771 0.0
Sc155 Sc 0.87446 0.75985 0.48994 0.0
Sc156 Sc 0.96402 0.84277 0.35827 0.0
O157 O 0.95149 0.77552 0.4383 0.0
C158 C 0.07481 0.84241 0.4645 0.0
C159 C 0.967 0.73404 0.65471 0.0
C160 C 0.87277 0.88943 0.50925 0.0
C161 C 0.90851 0.63948 0.4713 0.0
C162 C 0.03571 0.74635 0.25294 0.0
C163 C 0.84614 0.80912 0.28317 0.0
O164 O 0.07918 0.78924 0.44661 0.0
O165 O 0.91543 0.73394 0.62391 0.0
O166 O 0.90396 0.89512 0.43663 0.0
O167 O 0.96135 0.64621 0.48704 0.0
O168 O 0.02602 0.79861 0.27112 0.0
O169 O 0.82941 0.79297 0.36446 0.0
O170 O 0.02205 0.70636 0.309 0.0
O171 O 0.88181 0.67788 0.42786 0.0
O172 O 0.89863 0.81458 0.26409 0.0
O173 O 0.01052 0.73659 0.60229 0.0
O174 O 0.02928 0.87011 0.45141 0.0
O175 O 0.86389 0.84208 0.54901 0.0
Sc176 Sc 0.67109 0.54985 0.6508 0.0
Sc177 Sc 0.754 0.6394 0.51912 0.0
Sc178 Sc 0.79334 0.49761 0.5513 0.0
O179 O 0.73833 0.56237 0.57076 0.0
C180 C 0.76753 0.47818 0.75613 0.0
C181 C 0.70468 0.66775 0.72586 0.0
C182 C 0.87437 0.60533 0.53781 0.0
C183 C 0.62442 0.64108 0.49982 0.0
C184 C 0.67143 0.43904 0.54457 0.0
C185 C 0.77975 0.54689 0.35432 0.0
O186 O 0.71527 0.48785 0.73796 0.0
O187 O 0.72087 0.68445 0.64458 0.0
O188 O 0.86762 0.55252 0.52196 0.0
O189 O 0.61873 0.6099 0.57244 0.0
O190 O 0.7246 0.43468 0.56242 0.0
O191 O 0.77993 0.59844 0.38516 0.0
O192 O 0.64373 0.48457 0.55769 0.0
O193 O 0.67178 0.64995 0.46003 0.0
O194 O 0.77722 0.50335 0.40673 0.0
O195 O 0.6993 0.61525 0.74496 0.0
O196 O 0.80751 0.49179 0.7 0.0
O197 O 0.83598 0.63208 0.58121 0.0
Sc198 Sc 0.54985 0.34278 0.35829 0.0
Sc199 Sc 0.6394 0.25985 0.48995 0.0
Sc200 Sc 0.49761 0.22053 0.45776 0.0
O201 O 0.56237 0.27552 0.4383 0.0
C202 C 0.43904 0.34243 0.46453 0.0
C203 C 0.64108 0.38943 0.50929 0.0
C204 C 0.54689 0.23408 0.65474 0.0
C205 C 0.66775 0.30917 0.28321 0.0
C206 C 0.47819 0.24635 0.25292 0.0
C207 C 0.60532 0.13947 0.47125 0.0
O208 O 0.48458 0.37013 0.45142 0.0
O209 O 0.64997 0.34207 0.54904 0.0
O210 O 0.50336 0.23663 0.60234 0.0
O211 O 0.61526 0.3146 0.26412 0.0
O212 O 0.49177 0.20637 0.30906 0.0
O213 O 0.63208 0.17786 0.42788 0.0
O214 O 0.48786 0.29861 0.27112 0.0
O215 O 0.68445 0.29297 0.36449 0.0
O216 O 0.5525 0.14624 0.48708 0.0
O217 O 0.6099 0.39513 0.43667 0.0
O218 O 0.43468 0.28927 0.44666 0.0
O219 O 0.59844 0.23391 0.6239 0.0
Sc220 Sc 0.22052 0.51624 0.5513 0.0
Sc221 Sc 0.25985 0.37445 0.51911 0.0
Sc222 Sc 0.34276 0.464 0.6508 0.0
O223 O 0.27552 0.45149 0.57076 0.0
C224 C 0.34242 0.57481 0.54457 0.0
C225 C 0.23411 0.46697 0.35432 0.0
C226 C 0.38943 0.37278 0.4998 0.0
C227 C 0.13948 0.40852 0.53781 0.0
C228 C 0.24632 0.53567 0.75613 0.0
C229 C 0.30918 0.34611 0.72586 0.0
O230 O 0.28925 0.57918 0.56242 0.0
O231 O 0.23392 0.41542 0.38516 0.0
O232 O 0.39512 0.40396 0.57243 0.0
O233 O 0.14624 0.46134 0.52196 0.0
O234 O 0.29858 0.526 0.73795 0.0
O235 O 0.29299 0.32941 0.64458 0.0
O236 O 0.20635 0.52207 0.7 0.0
O237 O 0.17787 0.38178 0.58121 0.0
O238 O 0.31456 0.3986 0.74496 0.0
O239 O 0.23664 0.5105 0.40673 0.0
O240 O 0.37012 0.52928 0.55769 0.0
O241 O 0.34208 0.3639 0.46003 0.0
Sc242 Sc 0.51625 0.79333 0.45776 0.0
Sc243 Sc 0.37445 0.75401 0.48995 0.0
Sc244 Sc 0.464 0.67108 0.35829 0.0
O245 O 0.45148 0.73833 0.4383 0.0
C246 C 0.53566 0.76751 0.25291 0.0
C247 C 0.40854 0.87438 0.47125 0.0
C248 C 0.3461 0.70468 0.2832 0.0
C249 C 0.46696 0.77978 0.65474 0.0
C250 C 0.57481 0.67143 0.46454 0.0
C251 C 0.37277 0.62442 0.50929 0.0
O252 O 0.52208 0.80749 0.30905 0.0
O253 O 0.38177 0.836 0.42788 0.0
O254 O 0.39859 0.69924 0.26412 0.0
O255 O 0.51049 0.77722 0.60233 0.0
O256 O 0.52928 0.64373 0.45143 0.0
O257 O 0.36388 0.67178 0.54904 0.0
O258 O 0.57918 0.72459 0.44665 0.0
O259 O 0.41541 0.77994 0.6239 0.0
O260 O 0.40396 0.61872 0.43668 0.0
O261 O 0.46136 0.86762 0.48708 0.0
O262 O 0.526 0.71525 0.27112 0.0
O263 O 0.3294 0.72088 0.36449 0.0
Sc264 Sc 0.22052 0.49761 0.05133 0.0
Sc265 Sc 0.25986 0.6394 0.01908 0.0
Sc266 Sc 0.34279 0.54985 0.15076 0.0
O267 O 0.27553 0.56237 0.07075 0.0
C268 C 0.24639 0.47814 0.25611 0.0
C269 C 0.13948 0.60532 0.03781 0.0
C270 C 0.30912 0.66772 0.22587 0.0
C271 C 0.23401 0.54687 0.85433 0.0
C272 C 0.34244 0.43906 0.04451 0.0
C273 C 0.38944 0.6411 0.99979 0.0
O274 O 0.20639 0.49178 0.20004 0.0
O275 O 0.17787 0.6321 0.08115 0.0
O276 O 0.3146 0.61523 0.24495 0.0
O277 O 0.2366 0.50335 0.90674 0.0
O278 O 0.37013 0.48459 0.0576 0.0
O279 O 0.34208 0.64996 0.96 0.0
O280 O 0.28927 0.43468 0.0624 0.0
O281 O 0.23393 0.59843 0.88514 0.0
O282 O 0.39513 0.60991 0.07241 0.0
O283 O 0.14623 0.5525 0.02202 0.0
O284 O 0.29864 0.48783 0.23791 0.0
O285 O 0.29299 0.68444 0.14456 0.0
Sc286 Sc 0.54984 0.67109 0.85826 0.0
Sc287 Sc 0.6394 0.75399 0.98996 0.0
Sc288 Sc 0.49762 0.79335 0.95772 0.0
O289 O 0.56237 0.73833 0.93829 0.0
C290 C 0.47813 0.7675 0.75295 0.0
C291 C 0.66771 0.70473 0.78318 0.0
C292 C 0.60535 0.87437 0.97123 0.0
C293 C 0.64108 0.62441 0.00923 0.0
C294 C 0.43905 0.67144 0.96451 0.0
C295 C 0.54687 0.77982 0.15472 0.0
O296 O 0.48783 0.71525 0.77112 0.0
O297 O 0.68444 0.72086 0.86448 0.0
O298 O 0.55252 0.86763 0.98704 0.0
O299 O 0.6099 0.61873 0.9366 0.0
O300 O 0.43468 0.72461 0.94663 0.0
O301 O 0.59843 0.77992 0.12392 0.0
O302 O 0.48458 0.64374 0.95141 0.0
O303 O 0.64994 0.67176 0.04904 0.0
O304 O 0.50334 0.77726 0.1023 0.0
O305 O 0.61522 0.69929 0.76408 0.0
O306 O 0.4918 0.80749 0.80902 0.0
O307 O 0.6321 0.83597 0.92787 0.0
Sc308 Sc 0.67107 0.46401 0.15075 0.0
Sc309 Sc 0.75399 0.37445 0.01909 0.0
Sc310 Sc 0.79333 0.51625 0.05133 0.0
O311 O 0.73833 0.45148 0.07075 0.0
C312 C 0.67142 0.5748 0.0445 0.0
C313 C 0.62441 0.37276 0.99979 0.0
C314 C 0.77984 0.46698 0.85433 0.0
C315 C 0.70473 0.34613 0.22587 0.0
C316 C 0.76747 0.53571 0.25611 0.0
C317 C 0.87438 0.40853 0.03781 0.0
O318 O 0.64373 0.52927 0.0576 0.0
O319 O 0.67177 0.3639 0.96001 0.0
O320 O 0.77726 0.51051 0.90674 0.0
O321 O 0.69924 0.39862 0.24495 0.0
O322 O 0.80746 0.52208 0.20004 0.0
O323 O 0.83598 0.38176 0.08115 0.0
O324 O 0.71521 0.52602 0.23791 0.0
O325 O 0.72087 0.32941 0.14456 0.0
O326 O 0.86762 0.46136 0.02202 0.0
O327 O 0.61872 0.40395 0.0724 0.0
O328 O 0.72458 0.57917 0.0624 0.0
O329 O 0.77992 0.41542 0.88514 0.0
Sc330 Sc 0.51624 0.22051 0.95772 0.0
Sc331 Sc 0.37445 0.25987 0.98996 0.0
Sc332 Sc 0.46401 0.34277 0.85826 0.0
O333 O 0.45148 0.27552 0.9383 0.0
C334 C 0.5748 0.34242 0.96451 0.0
C335 C 0.46699 0.23404 0.15472 0.0
C336 C 0.37278 0.38944 0.00924 0.0
C337 C 0.40851 0.13949 0.97123 0.0
C338 C 0.53572 0.24635 0.75295 0.0
C339 C 0.34614 0.30913 0.78318 0.0
O340 O 0.57917 0.28925 0.94663 0.0
O341 O 0.41543 0.23394 0.12392 0.0
O342 O 0.40395 0.39512 0.9366 0.0
O343 O 0.46133 0.14623 0.98704 0.0
O344 O 0.52602 0.29861 0.77112 0.0
O345 O 0.32941 0.293 0.86448 0.0
O346 O 0.52205 0.20636 0.80902 0.0
O347 O 0.38176 0.17788 0.92787 0.0
O348 O 0.39863 0.31456 0.76408 0.0
O349 O 0.51051 0.23659 0.1023 0.0
O350 O 0.52927 0.37012 0.95141 0.0
O351 O 0.36392 0.34209 0.04904 0.0
loop_
_geom_bond_atom_site_label_1
_geom_bond_atom_site_label_2
_geom_bond_distance
_geom_bond_site_symmetry_2
_ccdc_geom_bond_type
Sc0 O3 2.025 . S
Sc0 O10 2.105 . S
Sc0 O13 2.105 . S
Sc0 O16 2.105 1_545 S
Sc0 O19 2.105 . S
Sc1 O3 2.025 1_556 S
Sc1 O11 2.105 1_556 S
Sc1 O15 2.105 . S
Sc1 O17 2.105 . S
Sc1 O21 2.105 1_556 S
Sc2 O3 2.025 . S
Sc2 O12 2.105 . S
Sc2 O14 2.105 1_545 S
Sc2 O18 2.105 1_554 S
Sc2 O20 2.105 1_545 S
O3 Sc0 2.025 . S
O3 Sc1 2.025 1_554 S
O3 Sc2 2.025 . S
C4 O10 1.268 1_565 S
C4 O20 1.268 . S
C5 O11 1.268 . S
C5 O19 1.268 . S
C6 O12 1.268 . S
C6 O21 1.268 . S
C7 O13 1.268 1_556 S
C7 O17 1.268 . S
C8 O14 1.268 . S
C8 O16 1.268 . S
C9 O15 1.268 . S
C9 O18 1.268 . S
O10 Sc0 2.105 . S
O10 C4 1.268 1_545 S
O11 Sc1 2.105 1_554 S
O11 C5 1.268 . S
O12 Sc2 2.105 . S
O12 C6 1.268 . S
O13 Sc0 2.105 . S
O13 C7 1.268 1_554 S
O14 Sc2 2.105 1_565 S
O14 C8 1.268 . S
O15 Sc1 2.105 . S
O15 C9 1.268 . S
O16 Sc0 2.105 1_565 S
O16 C8 1.268 . S
O17 Sc1 2.105 . S
O17 C7 1.268 . S
O18 Sc2 2.105 1_556 S
O18 C9 1.268 . S
O19 Sc0 2.105 . S
O19 C5 1.268 . S
O20 Sc2 2.105 1_565 S
O20 C4 1.268 . S
O21 Sc1 2.105 1_554 S
O21 C6 1.268 . S
Sc22 O25 2.025 . S
Sc22 O32 2.105 1_455 S
Sc22 O35 2.105 . S
Sc22 O38 2.105 . S
Sc22 O41 2.105 . S
Sc23 O25 2.025 1_554 S
Sc23 O33 2.105 . S
Sc23 O37 2.105 1_554 S
Sc23 O39 2.105 1_554 S
Sc23 O43 2.105 . S
Sc24 O25 2.025 . S
Sc24 O34 2.105 1_556 S
Sc24 O36 2.105 1_455 S
Sc24 O40 2.105 . S
Sc24 O42 2.105 1_455 S
O25 Sc22 2.025 . S
O25 Sc23 2.025 1_556 S
O25 Sc24 2.025 . S
C26 O32 1.268 . S
C26 O42 1.268 . S
C27 O33 1.268 . S
C27 O41 1.268 1_554 S
C28 O34 1.268 . S
C28 O43 1.268 . S
C29 O35 1.268 . S
C29 O39 1.268 . S
C30 O36 1.268 . S
C30 O38 1.268 1_655 S
C31 O37 1.268 . S
C31 O40 1.268 . S
O32 Sc22 2.105 1_655 S
O32 C26 1.268 . S
O33 Sc23 2.105 . S
O33 C27 1.268 . S
O34 Sc24 2.105 1_554 S
O34 C28 1.268 . S
O35 Sc22 2.105 . S
O35 C29 1.268 . S
O36 Sc24 2.105 1_655 S
O36 C30 1.268 . S
O37 Sc23 2.105 1_556 S
O37 C31 1.268 . S
O38 Sc22 2.105 . S
O38 C30 1.268 1_455 S
O39 Sc23 2.105 1_556 S
O39 C29 1.268 . S
O40 Sc24 2.105 . S
O40 C31 1.268 . S
O41 Sc22 2.105 . S
O41 C27 1.268 1_556 S
O42 Sc24 2.105 1_655 S
O42 C26 1.268 . S
O43 Sc23 2.105 . S
O43 C28 1.268 . S
Sc44 O47 2.025 . S
Sc44 O54 2.105 1_565 S
Sc44 O57 2.105 . S
Sc44 O60 2.105 1_565 S
Sc44 O63 2.105 1_554 S
Sc45 O47 2.025 1_556 S
Sc45 O55 2.105 . S
Sc45 O59 2.105 1_556 S
Sc45 O61 2.105 1_556 S
Sc45 O65 2.105 . S
Sc46 O47 2.025 . S
Sc46 O56 2.105 . S
Sc46 O58 2.105 . S
Sc46 O62 2.105 . S
Sc46 O64 2.105 1_565 S
O47 Sc44 2.025 . S
O47 Sc45 2.025 1_554 S
O47 Sc46 2.025 . S
C48 O54 1.268 . S
C48 O64 1.268 . S
C49 O55 1.268 . S
C49 O63 1.268 . S
C50 O56 1.268 1_556 S
C50 O65 1.268 . S
C51 O57 1.268 . S
C51 O61 1.268 . S
C52 O58 1.268 1_545 S
C52 O60 1.268 . S
C53 O59 1.268 . S
C53 O62 1.268 . S
O54 Sc44 2.105 1_545 S
O54 C48 1.268 . S
O55 Sc45 2.105 . S
O55 C49 1.268 . S
O56 Sc46 2.105 . S
O56 C50 1.268 1_554 S
O57 Sc44 2.105 . S
O57 C51 1.268 . S
O58 Sc46 2.105 . S
O58 C52 1.268 1_565 S
O59 Sc45 2.105 1_554 S
O59 C53 1.268 . S
O60 Sc44 2.105 1_545 S
O60 C52 1.268 . S
O61 Sc45 2.105 1_554 S
O61 C51 1.268 . S
O62 Sc46 2.105 . S
O62 C53 1.268 . S
O63 Sc44 2.105 1_556 S
O63 C49 1.268 . S
O64 Sc46 2.105 1_545 S
O64 C48 1.268 . S
O65 Sc45 2.105 . S
O65 C50 1.268 . S
Sc66 O69 2.025 . S
Sc66 O76 2.105 1_655 S
Sc66 O79 2.105 1_556 S
Sc66 O82 2.105 1_655 S
Sc66 O85 2.105 . S
Sc67 O69 2.025 1_554 S
Sc67 O77 2.105 1_554 S
Sc67 O81 2.105 . S
Sc67 O83 2.105 . S
Sc67 O87 2.105 1_554 S
Sc68 O69 2.025 . S
Sc68 O78 2.105 . S
Sc68 O80 2.105 1_655 S
Sc68 O84 2.105 . S
Sc68 O86 2.105 . S
O69 Sc66 2.025 . S
O69 Sc67 2.025 1_556 S
O69 Sc68 2.025 . S
C70 O76 1.268 . S
C70 O86 1.268 1_455 S
C71 O77 1.268 . S
C71 O85 1.268 . S
C72 O78 1.268 . S
C72 O87 1.268 . S
C73 O79 1.268 . S
C73 O83 1.268 . S
C74 O80 1.268 . S
C74 O82 1.268 . S
C75 O81 1.268 . S
C75 O84 1.268 1_554 S
O76 Sc66 2.105 1_455 S
O76 C70 1.268 . S
O77 Sc67 2.105 1_556 S
O77 C71 1.268 . S
O78 Sc68 2.105 . S
O78 C72 1.268 . S
O79 Sc66 2.105 1_554 S
O79 C73 1.268 . S
O80 Sc68 2.105 1_455 S
O80 C74 1.268 . S
O81 Sc67 2.105 . S
O81 C75 1.268 . S
O82 Sc66 2.105 1_455 S
O82 C74 1.268 . S
O83 Sc67 2.105 . S
O83 C73 1.268 . S
O84 Sc68 2.105 . S
O84 C75 1.268 1_556 S
O85 Sc66 2.105 . S
O85 C71 1.268 . S
O86 Sc68 2.105 . S
O86 C70 1.268 1_655 S
O87 Sc67 2.105 1_556 S
O87 C72 1.268 . S
Sc88 O91 2.025 . S
Sc88 O98 2.105 1_545 S
Sc88 O101 2.105 . S
Sc88 O104 2.105 1_545 S
Sc88 O107 2.105 . S
Sc89 O91 2.025 . S
Sc89 O99 2.105 . S
Sc89 O103 2.105 . S
Sc89 O105 2.105 . S
Sc89 O109 2.105 . S
Sc90 O91 2.025 . S
Sc90 O100 2.105 . S
Sc90 O102 2.105 1_545 S
Sc90 O106 2.105 . S
Sc90 O108 2.105 . S
O91 Sc88 2.025 . S
O91 Sc89 2.025 . S
O91 Sc90 2.025 . S
C92 O98 1.268 . S
C92 O108 1.268 1_565 S
C93 O99 1.268 . S
C93 O107 1.268 . S
C94 O100 1.268 . S
C94 O109 1.268 . S
C95 O101 1.268 . S
C95 O105 1.268 . S
C96 O102 1.268 . S
C96 O104 1.268 . S
C97 O103 1.268 . S
C97 O106 1.268 . S
O98 Sc88 2.105 1_565 S
O98 C92 1.268 . S
O99 Sc89 2.105 . S
O99 C93 1.268 . S
O100 Sc90 2.105 . S
O100 C94 1.268 . S
O101 Sc88 2.105 . S
O101 C95 1.268 . S
O102 Sc90 2.105 1_565 S
O102 C96 1.268 . S
O103 Sc89 2.105 . S
O103 C97 1.268 . S
O104 Sc88 2.105 1_565 S
O104 C96 1.268 . S
O105 Sc89 2.105 . S
O105 C95 1.268 . S
O106 Sc90 2.105 . S
O106 C97 1.268 . S
O107 Sc88 2.105 . S
O107 C93 1.268 . S
O108 Sc90 2.105 . S
O108 C92 1.268 1_545 S
O109 Sc89 2.105 . S
O109 C94 1.268 . S
Sc110 O113 2.025 . S
Sc110 O120 2.105 . S
Sc110 O123 2.105 . S
Sc110 O126 2.105 1_455 S
Sc110 O129 2.105 . S
Sc111 O113 2.025 . S
Sc111 O121 2.105 . S
Sc111 O125 2.105 . S
Sc111 O127 2.105 . S
Sc111 O131 2.105 . S
Sc112 O113 2.025 . S
Sc112 O122 2.105 . S
Sc112 O124 2.105 1_455 S
Sc112 O128 2.105 . S
Sc112 O130 2.105 1_455 S
O113 Sc110 2.025 . S
O113 Sc111 2.025 . S
O113 Sc112 2.025 . S
C114 O120 1.268 1_655 S
C114 O130 1.268 . S
C115 O121 1.268 . S
C115 O129 1.268 . S
C116 O122 1.268 . S
C116 O131 1.268 . S
C117 O123 1.268 . S
C117 O127 1.268 . S
C118 O124 1.268 . S
C118 O126 1.268 . S
C119 O125 1.268 . S
C119 O128 1.268 . S
O120 Sc110 2.105 . S
O120 C114 1.268 1_455 S
O121 Sc111 2.105 . S
O121 C115 1.268 . S
O122 Sc112 2.105 . S
O122 C116 1.268 . S
O123 Sc110 2.105 . S
O123 C117 1.268 . S
O124 Sc112 2.105 1_655 S
O124 C118 1.268 . S
O125 Sc111 2.105 . S
O125 C119 1.268 . S
O126 Sc110 2.105 1_655 S
O126 C118 1.268 . S
O127 Sc111 2.105 . S
O127 C117 1.268 . S
O128 Sc112 2.105 . S
O128 C119 1.268 . S
O129 Sc110 2.105 . S
O129 C115 1.268 . S
O130 Sc112 2.105 1_655 S
O130 C114 1.268 . S
O131 Sc111 2.105 . S
O131 C116 1.268 . S
Sc132 O135 2.025 . S
Sc132 O142 2.105 1_565 S
Sc132 O145 2.105 . S
Sc132 O148 2.105 . S
Sc132 O151 2.105 . S
Sc133 O135 2.025 . S
Sc133 O143 2.105 . S
Sc133 O147 2.105 . S
Sc133 O149 2.105 . S
Sc133 O153 2.105 . S
Sc134 O135 2.025 . S
Sc134 O144 2.105 . S
Sc134 O146 2.105 1_565 S
Sc134 O150 2.105 . S
Sc134 O152 2.105 1_565 S
O135 Sc132 2.025 . S
O135 Sc133 2.025 . S
O135 Sc134 2.025 . S
C136 O142 1.268 . S
C136 O152 1.268 . S
C137 O143 1.268 . S
C137 O151 1.268 . S
C138 O144 1.268 . S
C138 O153 1.268 . S
C139 O145 1.268 . S
C139 O149 1.268 . S
C140 O146 1.268 . S
C140 O148 1.268 1_545 S
C141 O147 1.268 . S
C141 O150 1.268 . S
O142 Sc132 2.105 1_545 S
O142 C136 1.268 . S
O143 Sc133 2.105 . S
O143 C137 1.268 . S
O144 Sc134 2.105 . S
O144 C138 1.268 . S
O145 Sc132 2.105 . S
O145 C139 1.268 . S
O146 Sc134 2.105 1_545 S
O146 C140 1.268 . S
O147 Sc133 2.105 . S
O147 C141 1.268 . S
O148 Sc132 2.105 . S
O148 C140 1.268 1_565 S
O149 Sc133 2.105 . S
O149 C139 1.268 . S
O150 Sc134 2.105 . S
O150 C141 1.268 . S
O151 Sc132 2.105 . S
O151 C137 1.268 . S
O152 Sc134 2.105 1_545 S
O152 C136 1.268 . S
O153 Sc133 2.105 . S
O153 C138 1.268 . S
Sc154 O157 2.025 . S
Sc154 O164 2.105 1_655 S
Sc154 O167 2.105 . S
Sc154 O170 2.105 1_655 S
Sc154 O173 2.105 . S
Sc155 O157 2.025 . S
Sc155 O165 2.105 . S
Sc155 O169 2.105 . S
Sc155 O171 2.105 . S
Sc155 O175 2.105 . S
Sc156 O157 2.025 . S
Sc156 O166 2.105 . S
Sc156 O168 2.105 . S
Sc156 O172 2.105 . S
Sc156 O174 2.105 1_655 S
O157 Sc154 2.025 . S
O157 Sc155 2.025 . S
O157 Sc156 2.025 . S
C158 O164 1.268 . S
C158 O174 1.268 . S
C159 O165 1.268 . S
C159 O173 1.268 . S
C160 O166 1.268 . S
C160 O175 1.268 . S
C161 O167 1.268 . S
C161 O171 1.268 . S
C162 O168 1.268 1_455 S
C162 O170 1.268 . S
C163 O169 1.268 . S
C163 O172 1.268 . S
O164 Sc154 2.105 1_455 S
O164 C158 1.268 . S
O165 Sc155 2.105 . S
O165 C159 1.268 . S
O166 Sc156 2.105 . S
O166 C160 1.268 . S
O167 Sc154 2.105 . S
O167 C161 1.268 . S
O168 Sc156 2.105 . S
O168 C162 1.268 1_655 S
O169 Sc155 2.105 . S
O169 C163 1.268 . S
O170 Sc154 2.105 1_455 S
O170 C162 1.268 . S
O171 Sc155 2.105 . S
O171 C161 1.268 . S
O172 Sc156 2.105 . S
O172 C163 1.268 . S
O173 Sc154 2.105 . S
O173 C159 1.268 . S
O174 Sc156 2.105 1_455 S
O174 C158 1.268 . S
O175 Sc155 2.105 . S
O175 C160 1.268 . S
Sc176 O179 2.025 . S
Sc176 O186 2.105 . S
Sc176 O189 2.105 . S
Sc176 O192 2.105 . S
Sc176 O195 2.105 . S
Sc177 O179 2.025 . S
Sc177 O187 2.105 . S
Sc177 O191 2.105 . S
Sc177 O193 2.105 . S
Sc177 O197 2.105 . S
Sc178 O179 2.025 . S
Sc178 O188 2.105 . S
Sc178 O190 2.105 . S
Sc178 O194 2.105 . S
Sc178 O196 2.105 . S
O179 Sc176 2.025 . S
O179 Sc177 2.025 . S
O179 Sc178 2.025 . S
C180 O186 1.268 . S
C180 O196 1.268 . S
C181 O187 1.268 . S
C181 O195 1.268 . S
C182 O188 1.268 . S
C182 O197 1.268 . S
C183 O189 1.268 . S
C183 O193 1.268 . S
C184 O190 1.268 . S
C184 O192 1.268 . S
C185 O191 1.268 . S
C185 O194 1.268 . S
O186 Sc176 2.105 . S
O186 C180 1.268 . S
O187 Sc177 2.105 . S
O187 C181 1.268 . S
O188 Sc178 2.105 . S
O188 C182 1.268 . S
O189 Sc176 2.105 . S
O189 C183 1.268 . S
O190 Sc178 2.105 . S
O190 C184 1.268 . S
O191 Sc177 2.105 . S
O191 C185 1.268 . S
O192 Sc176 2.105 . S
O192 C184 1.268 . S
O193 Sc177 2.105 . S
O193 C183 1.268 . S
O194 Sc178 2.105 . S
O194 C185 1.268 . S
O195 Sc176 2.105 . S
O195 C181 1.268 . S
O196 Sc178 2.105 . S
O196 C180 1.268 . S
O197 Sc177 2.105 . S
O197 C182 1.268 . S
Sc198 O201 2.025 . S
Sc198 O208 2.105 . S
Sc198 O211 2.105 . S
Sc198 O214 2.105 . S
Sc198 O217 2.105 . S
Sc199 O201 2.025 . S
Sc199 O209 2.105 . S
Sc199 O213 2.105 . S
Sc199 O215 2.105 . S
Sc199 O219 2.105 . S
Sc200 O201 2.025 . S
Sc200 O210 2.105 . S
Sc200 O212 2.105 . S
Sc200 O216 2.105 . S
Sc200 O218 2.105 . S
O201 Sc198 2.025 . S
O201 Sc199 2.025 . S
O201 Sc200 2.025 . S
C202 O208 1.268 . S
C202 O218 1.268 . S
C203 O209 1.268 . S
C203 O217 1.268 . S
C204 O210 1.268 . S
C204 O219 1.268 . S
C205 O211 1.268 . S
C205 O215 1.268 . S
C206 O212 1.268 . S
C206 O214 1.268 . S
C207 O213 1.268 . S
C207 O216 1.268 . S
O208 Sc198 2.105 . S
O208 C202 1.268 . S
O209 Sc199 2.105 . S
O209 C203 1.268 . S
O210 Sc200 2.105 . S
O210 C204 1.268 . S
O211 Sc198 2.105 . S
O211 C205 1.268 . S
O212 Sc200 2.105 . S
O212 C206 1.268 . S
O213 Sc199 2.105 . S
O213 C207 1.268 . S
O214 Sc198 2.105 . S
O214 C206 1.268 . S
O215 Sc199 2.105 . S
O215 C205 1.268 . S
O216 Sc200 2.105 . S
O216 C207 1.268 . S
O217 Sc198 2.105 . S
O217 C203 1.268 . S
O218 Sc200 2.105 . S
O218 C202 1.268 . S
O219 Sc199 2.105 . S
O219 C204 1.268 . S
Sc220 O223 2.025 . S
Sc220 O230 2.105 . S
Sc220 O233 2.105 . S
Sc220 O236 2.105 . S
Sc220 O239 2.105 . S
Sc221 O223 2.025 . S
Sc221 O231 2.105 . S
Sc221 O235 2.105 . S
Sc221 O237 2.105 . S
Sc221 O241 2.105 . S
Sc222 O223 2.025 . S
Sc222 O232 2.105 . S
Sc222 O234 2.105 . S
Sc222 O238 2.105 . S
Sc222 O240 2.105 . S
O223 Sc220 2.025 . S
O223 Sc221 2.025 . S
O223 Sc222 2.025 . S
C224 O230 1.268 . S
C224 O240 1.268 . S
C225 O231 1.268 . S
C225 O239 1.268 . S
C226 O232 1.268 . S
C226 O241 1.268 . S
C227 O233 1.268 . S
C227 O237 1.268 . S
C228 O234 1.268 . S
C228 O236 1.268 . S
C229 O235 1.268 . S
C229 O238 1.268 . S
O230 Sc220 2.105 . S
O230 C224 1.268 . S
O231 Sc221 2.105 . S
O231 C225 1.268 . S
O232 Sc222 2.105 . S
O232 C226 1.268 . S
O233 Sc220 2.105 . S
O233 C227 1.268 . S
O234 Sc222 2.105 . S
O234 C228 1.268 . S
O235 Sc221 2.105 . S
O235 C229 1.268 . S
O236 Sc220 2.105 . S
O236 C228 1.268 . S
O237 Sc221 2.105 . S
O237 C227 1.268 . S
O238 Sc222 2.105 . S
O238 C229 1.268 . S
O239 Sc220 2.105 . S
O239 C225 1.268 . S
O240 Sc222 2.105 . S
O240 C224 1.268 . S
O241 Sc221 2.105 . S
O241 C226 1.268 . S
Sc242 O245 2.025 . S
Sc242 O252 2.105 . S
Sc242 O255 2.105 . S
Sc242 O258 2.105 . S
Sc242 O261 2.105 . S
Sc243 O245 2.025 . S
Sc243 O253 2.105 . S
Sc243 O257 2.105 . S
Sc243 O259 2.105 . S
Sc243 O263 2.105 . S
Sc244 O245 2.025 . S
Sc244 O254 2.105 . S
Sc244 O256 2.105 . S
Sc244 O260 2.105 . S
Sc244 O262 2.105 . S
O245 Sc242 2.025 . S
O245 Sc243 2.025 . S
O245 Sc244 2.025 . S
C246 O252 1.268 . S
C246 O262 1.268 . S
C247 O253 1.268 . S
C247 O261 1.268 . S
C248 O254 1.268 . S
C248 O263 1.268 . S
C249 O255 1.268 . S
C249 O259 1.268 . S
C250 O256 1.268 . S
C250 O258 1.268 . S
C251 O257 1.268 . S
C251 O260 1.268 . S
O252 Sc242 2.105 . S
O252 C246 1.268 . S
O253 Sc243 2.105 . S
O253 C247 1.268 . S
O254 Sc244 2.105 . S
O254 C248 1.268 . S
O255 Sc242 2.105 . S
O255 C249 1.268 . S
O256 Sc244 2.105 . S
O256 C250 1.268 . S
O257 Sc243 2.105 . S
O257 C251 1.268 . S
O258 Sc242 2.105 . S
O258 C250 1.268 . S
O259 Sc243 2.105 . S
O259 C249 1.268 . S
O260 Sc244 2.105 . S
O260 C251 1.268 . S
O261 Sc242 2.105 . S
O261 C247 1.268 . S
O262 Sc244 2.105 . S
O262 C246 1.268 . S
O263 Sc243 2.105 . S
O263 C248 1.268 . S
Sc264 O267 2.025 . S
Sc264 O274 2.105 . S
Sc264 O277 2.105 1_554 S
Sc264 O280 2.105 . S
Sc264 O283 2.105 . S
Sc265 O267 2.025 1_556 S
Sc265 O275 2.105 1_556 S
Sc265 O279 2.105 . S
Sc265 O281 2.105 . S
Sc265 O285 2.105 1_556 S
Sc266 O267 2.025 . S
Sc266 O276 2.105 . S
Sc266 O278 2.105 . S
Sc266 O282 2.105 . S
Sc266 O284 2.105 . S
O267 Sc264 2.025 . S
O267 Sc265 2.025 1_554 S
O267 Sc266 2.025 . S
C268 O274 1.268 . S
C268 O284 1.268 . S
C269 O275 1.268 . S
C269 O283 1.268 . S
C270 O276 1.268 . S
C270 O285 1.268 . S
C271 O277 1.268 . S
C271 O281 1.268 . S
C272 O278 1.268 . S
C272 O280 1.268 . S
C273 O279 1.268 . S
C273 O282 1.268 1_556 S
O274 Sc264 2.105 . S
O274 C268 1.268 . S
O275 Sc265 2.105 1_554 S
O275 C269 1.268 . S
O276 Sc266 2.105 . S
O276 C270 1.268 . S
O277 Sc264 2.105 1_556 S
O277 C271 1.268 . S
O278 Sc266 2.105 . S
O278 C272 1.268 . S
O279 Sc265 2.105 . S
O279 C273 1.268 . S
O280 Sc264 2.105 . S
O280 C272 1.268 . S
O281 Sc265 2.105 . S
O281 C271 1.268 . S
O282 Sc266 2.105 . S
O282 C273 1.268 1_554 S
O283 Sc264 2.105 . S
O283 C269 1.268 . S
O284 Sc266 2.105 . S
O284 C268 1.268 . S
O285 Sc265 2.105 1_554 S
O285 C270 1.268 . S
Sc286 O289 2.025 . S
Sc286 O296 2.105 . S
Sc286 O299 2.105 . S
Sc286 O302 2.105 . S
Sc286 O305 2.105 . S
Sc287 O289 2.025 1_554 S
Sc287 O297 2.105 1_554 S
Sc287 O301 2.105 . S
Sc287 O303 2.105 . S
Sc287 O307 2.105 1_554 S
Sc288 O289 2.025 . S
Sc288 O298 2.105 . S
Sc288 O300 2.105 . S
Sc288 O304 2.105 1_556 S
Sc288 O306 2.105 . S
O289 Sc286 2.025 . S
O289 Sc287 2.025 1_556 S
O289 Sc288 2.025 . S
C290 O296 1.268 . S
C290 O306 1.268 . S
C291 O297 1.268 . S
C291 O305 1.268 . S
C292 O298 1.268 . S
C292 O307 1.268 . S
C293 O299 1.268 1_554 S
C293 O303 1.268 . S
C294 O300 1.268 . S
C294 O302 1.268 . S
C295 O301 1.268 . S
C295 O304 1.268 . S
O296 Sc286 2.105 . S
O296 C290 1.268 . S
O297 Sc287 2.105 1_556 S
O297 C291 1.268 . S
O298 Sc288 2.105 . S
O298 C292 1.268 . S
O299 Sc286 2.105 . S
O299 C293 1.268 1_556 S
O300 Sc288 2.105 . S
O300 C294 1.268 . S
O301 Sc287 2.105 . S
O301 C295 1.268 . S
O302 Sc286 2.105 . S
O302 C294 1.268 . S
O303 Sc287 2.105 . S
O303 C293 1.268 . S
O304 Sc288 2.105 1_554 S
O304 C295 1.268 . S
O305 Sc286 2.105 . S
O305 C291 1.268 . S
O306 Sc288 2.105 . S
O306 C290 1.268 . S
O307 Sc287 2.105 1_556 S
O307 C292 1.268 . S
Sc308 O311 2.025 . S
Sc308 O318 2.105 . S
Sc308 O321 2.105 . S
Sc308 O324 2.105 . S
Sc308 O327 2.105 . S
Sc309 O311 2.025 1_556 S
Sc309 O319 2.105 . S
Sc309 O323 2.105 1_556 S
Sc309 O325 2.105 1_556 S
Sc309 O329 2.105 . S
Sc310 O311 2.025 . S
Sc310 O320 2.105 1_554 S
Sc310 O322 2.105 . S
Sc310 O326 2.105 . S
Sc310 O328 2.105 . S
O311 Sc308 2.025 . S
O311 Sc309 2.025 1_554 S
O311 Sc310 2.025 . S
C312 O318 1.268 . S
C312 O328 1.268 . S
C313 O319 1.268 . S
C313 O327 1.268 1_556 S
C314 O320 1.268 . S
C314 O329 1.268 . S
C315 O321 1.268 . S
C315 O325 1.268 . S
C316 O322 1.268 . S
C316 O324 1.268 . S
C317 O323 1.268 . S
C317 O326 1.268 . S
O318 Sc308 2.105 . S
O318 C312 1.268 . S
O319 Sc309 2.105 . S
O319 C313 1.268 . S
O320 Sc310 2.105 1_556 S
O320 C314 1.268 . S
O321 Sc308 2.105 . S
O321 C315 1.268 . S
O322 Sc310 2.105 . S
O322 C316 1.268 . S
O323 Sc309 2.105 1_554 S
O323 C317 1.268 . S
O324 Sc308 2.105 . S
O324 C316 1.268 . S
O325 Sc309 2.105 1_554 S
O325 C315 1.268 . S
O326 Sc310 2.105 . S
O326 C317 1.268 . S
O327 Sc308 2.105 . S
O327 C313 1.268 1_554 S
O328 Sc310 2.105 . S
O328 C312 1.268 . S
O329 Sc309 2.105 . S
O329 C314 1.268 . S
Sc330 O333 2.025 . S
Sc330 O340 2.105 . S
Sc330 O343 2.105 . S
Sc330 O346 2.105 . S
Sc330 O349 2.105 1_556 S
Sc331 O333 2.025 1_554 S
Sc331 O341 2.105 . S
Sc331 O345 2.105 1_554 S
Sc331 O347 2.105 1_554 S
Sc331 O351 2.105 . S
Sc332 O333 2.025 . S
Sc332 O342 2.105 . S
Sc332 O344 2.105 . S
Sc332 O348 2.105 . S
Sc332 O350 2.105 . S
O333 Sc330 2.025 . S
O333 Sc331 2.025 1_556 S
O333 Sc332 2.025 . S
C334 O340 1.268 . S
C334 O350 1.268 . S
C335 O341 1.268 . S
C335 O349 1.268 . S
C336 O342 1.268 1_554 S
C336 O351 1.268 . S
C337 O343 1.268 . S
C337 O347 1.268 . S
C338 O344 1.268 . S
C338 O346 1.268 . S
C339 O345 1.268 . S
C339 O348 1.268 . S
O340 Sc330 2.105 . S
O340 C334 1.268 . S
O341 Sc331 2.105 . S
O341 C335 1.268 . S
O342 Sc332 2.105 . S
O342 C336 1.268 1_556 S
O343 Sc330 2.105 . S
O343 C337 1.268 . S
O344 Sc332 2.105 . S
O344 C338 1.268 . S
O345 Sc331 2.105 1_556 S
O345 C339 1.268 . S
O346 Sc330 2.105 . S
O346 C338 1.268 . S
O347 Sc331 2.105 1_556 S
O347 C337 1.268 . S
O348 Sc332 2.105 . S
O348 C339 1.268 . S
O349 Sc330 2.105 1_554 S
O349 C335 1.268 . S
O350 Sc332 2.105 . S
O350 C334 1.268 . S
O351 Sc331 2.105 . S
O351 C336 1.268 . S
C5 C115 1.508 . S
C29 C139 1.508 . S
C163 C53 1.508 . S
C94 C72 1.508 . S
C291 C181 1.508 . S
C205 C315 1.508 . S
C339 C229 1.508 . S
C270 C248 1.508 . S
C8 C27 1.697 . S
C50 C26 1.697 . S
C75 C48 1.697 . S
C74 C7 1.697 . S
C96 C160 1.697 . S
C97 C118 1.697 . S
C117 C136 1.697 . S
C137 C158 1.697 . S
C184 C203 1.697 . S
C226 C202 1.697 . S
C224 C251 1.697 . S
C250 C183 1.697 . S
C336 C272 1.697 . S
C273 C294 1.697 . S
C293 C312 1.697 . S
C334 C313 1.697 . S
C140 C9 1.715 . S
C162 C28 1.715 . S
C49 C92 1.715 . S
C73 C114 1.715 . S
C52 C95 1.715 . S
C119 C70 1.715 . S
C138 C4 1.715 . S
C30 C159 1.715 . S
C185 C316 1.715 . S
C204 C338 1.715 . S
C268 C225 1.715 . S
C249 C290 1.715 . S
C271 C228 1.715 . S
C295 C246 1.715 . S
C314 C180 1.715 . S
C206 C335 1.715 . S
C337 C6 2.003 1_556 S
C269 C31 2.003 1_554 S
C51 C292 2.003 1_554 S
C317 C71 2.003 1_554 S
C93 C207 2.003 . S
C116 C227 2.003 . S
C247 C141 2.003 . S
C161 C182 2.003 . S
