# Generated by pormake.
# Topology wjd, (6)-cn, num edge types: 1
# Building blocks:
#     Node 0, Type 0, BuildingBlock: PAMTUU_clean_sbu_0, # of connection points: 6
#     Node 1, Type 0, BuildingBlock: PAMTUU_clean_sbu_0, # of connection points: 6
#     Node 2, Type 0, BuildingBlock: PAMTUU_clean_sbu_0, # of connection points: 6
#     Node 3, Type 0, BuildingBlock: PAMTUU_clean_sbu_0, # of connection points: 6
#     Node 4, Type 0, BuildingBlock: PAMTUU_clean_sbu_0, # of connection points: 6
#     Node 5, Type 0, BuildingBlock: PAMTUU_clean_sbu_0, # of connection points: 6
#     Node 6, Type 0, BuildingBlock: PAMTUU_clean_sbu_0, # of connection points: 6
#     Node 7, Type 0, BuildingBlock: PAMTUU_clean_sbu_0, # of connection points: 6
#     Node 8, Type 0, BuildingBlock: PAMTUU_clean_sbu_0, # of connection points: 6
#     Node 9, Type 0, BuildingBlock: PAMTUU_clean_sbu_0, # of connection points: 6
#     Node 10, Type 0, BuildingBlock: PAMTUU_clean_sbu_0, # of connection points: 6
#     Node 11, Type 0, BuildingBlock: PAMTUU_clean_sbu_0, # of connection points: 6
#     Edge 12, Type (0, 0), BuildingBlock: XUDNAN_clean_linker_2, # of connection points: 2
#     Edge 13, Type (0, 0), BuildingBlock: XUDNAN_clean_linker_2, # of connection points: 2
#     Edge 14, Type (0, 0), BuildingBlock: XUDNAN_clean_linker_2, # of connection points: 2
#     Edge 15, Type (0, 0), BuildingBlock: XUDNAN_clean_linker_2, # of connection points: 2
#     Edge 16, Type (0, 0), BuildingBlock: XUDNAN_clean_linker_2, # of connection points: 2
#     Edge 17, Type (0, 0), BuildingBlock: XUDNAN_clean_linker_2, # of connection points: 2
#     Edge 18, Type (0, 0), BuildingBlock: XUDNAN_clean_linker_2, # of connection points: 2
#     Edge 19, Type (0, 0), BuildingBlock: XUDNAN_clean_linker_2, # of connection points: 2
#     Edge 20, Type (0, 0), BuildingBlock: XUDNAN_clean_linker_2, # of connection points: 2
#     Edge 21, Type (0, 0), BuildingBlock: XUDNAN_clean_linker_2, # of connection points: 2
#     Edge 22, Type (0, 0), BuildingBlock: XUDNAN_clean_linker_2, # of connection points: 2
#     Edge 23, Type (0, 0), BuildingBlock: XUDNAN_clean_linker_2, # of connection points: 2
#     Edge 24, Type (0, 0), BuildingBlock: XUDNAN_clean_linker_2, # of connection points: 2
#     Edge 25, Type (0, 0), BuildingBlock: XUDNAN_clean_linker_2, # of connection points: 2
#     Edge 26, Type (0, 0), BuildingBlock: XUDNAN_clean_linker_2, # of connection points: 2
#     Edge 27, Type (0, 0), BuildingBlock: XUDNAN_clean_linker_2, # of connection points: 2
#     Edge 28, Type (0, 0), BuildingBlock: XUDNAN_clean_linker_2, # of connection points: 2
#     Edge 29, Type (0, 0), BuildingBlock: XUDNAN_clean_linker_2, # of connection points: 2
#     Edge 30, Type (0, 0), BuildingBlock: XUDNAN_clean_linker_2, # of connection points: 2
#     Edge 31, Type (0, 0), BuildingBlock: XUDNAN_clean_linker_2, # of connection points: 2
#     Edge 32, Type (0, 0), BuildingBlock: XUDNAN_clean_linker_2, # of connection points: 2
#     Edge 33, Type (0, 0), BuildingBlock: XUDNAN_clean_linker_2, # of connection points: 2
#     Edge 34, Type (0, 0), BuildingBlock: XUDNAN_clean_linker_2, # of connection points: 2
#     Edge 35, Type (0, 0), BuildingBlock: XUDNAN_clean_linker_2, # of connection points: 2
#     Edge 36, Type (0, 0), BuildingBlock: XUDNAN_clean_linker_2, # of connection points: 2
#     Edge 37, Type (0, 0), BuildingBlock: XUDNAN_clean_linker_2, # of connection points: 2
#     Edge 38, Type (0, 0), BuildingBlock: XUDNAN_clean_linker_2, # of connection points: 2
#     Edge 39, Type (0, 0), BuildingBlock: XUDNAN_clean_linker_2, # of connection points: 2
#     Edge 40, Type (0, 0), BuildingBlock: XUDNAN_clean_linker_2, # of connection points: 2
#     Edge 41, Type (0, 0), BuildingBlock: XUDNAN_clean_linker_2, # of connection points: 2
#     Edge 42, Type (0, 0), BuildingBlock: XUDNAN_clean_linker_2, # of connection points: 2
#     Edge 43, Type (0, 0), BuildingBlock: XUDNAN_clean_linker_2, # of connection points: 2
#     Edge 44, Type (0, 0), BuildingBlock: XUDNAN_clean_linker_2, # of connection points: 2
#     Edge 45, Type (0, 0), BuildingBlock: XUDNAN_clean_linker_2, # of connection points: 2
#     Edge 46, Type (0, 0), BuildingBlock: XUDNAN_clean_linker_2, # of connection points: 2
#     Edge 47, Type (0, 0), BuildingBlock: XUDNAN_clean_linker_2, # of connection points: 2
# Relax obj value: 0.088
# Max RMSD: 0.211
# Mean RMSD: 0.211
data_MOF--net-wjd--node1-PAMTUU_clean_sbu_0--edge1-XUDNAN_clean_linker_2
_symmetry_space_group_name_H-M    P1
_symmetry_Int_Tables_number       1
_symmetry_cell_setting            triclinic
loop_
_symmetry_equiv_pos_as_xyz
'x, y, z'
_cell_length_a     40.039544
_cell_length_b     39.89205
_cell_length_c     53.733208
_cell_angle_alpha  90.023596
_cell_angle_beta   89.860221
_cell_angle_gamma 120.0505
loop_
_atom_site_label
_atom_site_type_symbol
_atom_site_fract_x
_atom_site_fract_y
_atom_site_fract_z
_atom_type_partial_charge
Tb0 Tb 0.32687 0.09251 0.13416 0.0
Tb1 Tb 0.38046 0.18337 0.11579 0.0
C2 C 0.37154 0.159 0.17294 0.0
C3 C 0.24056 0.99644 0.13899 0.0
C4 C 0.16042 0.94914 0.13149 0.0
C5 C 0.17987 0.98795 0.12349 0.0
C6 C 0.21956 1.01134 0.12717 0.0
C7 C 0.22162 0.95754 0.14645 0.0
C8 C 0.18183 0.93399 0.14266 0.0
C9 C 0.28188 0.02191 0.14409 0.0
O10 O 0.29295 0.12022 0.14097 0.0
O11 O 0.32028 0.16871 0.11184 0.0
O12 O 0.37054 0.14426 0.08449 0.0
O13 O 0.31084 0.09833 0.09673 0.0
O14 O 0.38862 0.23944 0.11324 0.0
O15 O 0.42765 0.22502 0.09481 0.0
O16 O 0.42128 0.16725 0.12979 0.0
O17 O 0.38392 0.1012 0.12485 0.0
O18 O 0.35941 0.12276 0.16683 0.0
O19 O 0.37718 0.18577 0.15637 0.0
C20 C 0.29199 0.14693 0.12724 0.0
O21 O 0.30429 0.034 0.12457 0.0
O22 O 0.29003 0.05006 0.15964 0.0
C23 C 0.33715 0.11362 0.07944 0.0
C24 C 0.45372 0.29042 0.10825 0.0
C25 C 0.51384 0.36688 0.118 0.0
C26 C 0.48028 0.34964 0.13279 0.0
C27 C 0.45056 0.31186 0.12798 0.0
C28 C 0.48777 0.30715 0.094 0.0
C29 C 0.51758 0.34487 0.09889 0.0
C30 C 0.42061 0.25259 0.10064 0.0
C31 C 0.41783 0.13284 0.12755 0.0
H32 H 0.16433 1.00035 0.11453 0.0
H33 H 0.23379 0.04129 0.12114 0.0
H34 H 0.23744 0.94559 0.15558 0.0
H35 H 0.16763 0.90433 0.14921 0.0
H36 H 0.47671 0.36561 0.14787 0.0
H37 H 0.42472 0.29994 0.13934 0.0
H38 H 0.49084 0.29148 0.07852 0.0
H39 H 0.54286 0.35736 0.08699 0.0
Tb40 Tb 0.84106 0.66764 0.40729 0.0
Tb41 Tb 0.80522 0.71946 0.38315 0.0
C42 C 0.82501 0.72466 0.43849 0.0
C43 C 0.8785 0.59778 0.41988 0.0
C44 C 0.89709 0.53904 0.40986 0.0
C45 C 0.91924 0.56934 0.42656 0.0
C46 C 0.91007 0.59824 0.43145 0.0
C47 C 0.85586 0.56749 0.40335 0.0
C48 C 0.86499 0.53829 0.39846 0.0
C49 C 0.87088 0.62976 0.4254 0.0
O50 O 0.78225 0.62573 0.39719 0.0
O51 O 0.75647 0.66594 0.39798 0.0
O52 O 0.79623 0.67761 0.35479 0.0
O53 O 0.84349 0.66378 0.3665 0.0
O54 O 0.76778 0.74144 0.38812 0.0
O55 O 0.80491 0.75744 0.35593 0.0
O56 O 0.86568 0.74711 0.37241 0.0
O57 O 0.8881 0.72748 0.4052 0.0
O58 O 0.82027 0.68948 0.43806 0.0
O59 O 0.83271 0.74461 0.41796 0.0
C60 C 0.75242 0.63097 0.39853 0.0
O61 O 0.88956 0.66098 0.41202 0.0
O62 O 0.83538 0.62133 0.42942 0.0
C63 C 0.81982 0.6646 0.34968 0.0
C64 C 0.79595 0.80632 0.37442 0.0
C65 C 0.81982 0.88463 0.38547 0.0
C66 C 0.80329 0.86857 0.36225 0.0
C67 C 0.79134 0.8297 0.35683 0.0
C68 C 0.81358 0.82271 0.39725 0.0
C69 C 0.82525 0.86129 0.40274 0.0
C70 C 0.78209 0.76494 0.36917 0.0
C71 C 0.89422 0.75099 0.38642 0.0
H72 H 0.94366 0.57063 0.43609 0.0
H73 H 0.92787 0.6212 0.44434 0.0
H74 H 0.8314 0.56658 0.39411 0.0
H75 H 0.8474 0.51558 0.38539 0.0
H76 H 0.7985 0.88567 0.34859 0.0
H77 H 0.778 0.81776 0.33904 0.0
H78 H 0.81784 0.80547 0.41103 0.0
H79 H 0.83839 0.87282 0.42065 0.0
Tb80 Tb 0.95102 0.25097 0.12853 0.0
Tb81 Tb 0.85935 0.20948 0.1117 0.0
C82 C 0.88357 0.21816 0.16788 0.0
C83 C 0.0483 0.2616 0.13791 0.0
C84 C 0.0964 0.22816 0.13852 0.0
C85 C 0.06975 0.22083 0.15789 0.0
C86 C 0.04593 0.23724 0.15756 0.0
C87 C 0.07553 0.26973 0.11891 0.0
C88 C 0.09914 0.25313 0.11914 0.0
C89 C 1.0223 0.27807 0.13643 0.0
O90 O 0.93447 0.19268 0.11589 0.0
O91 O 0.86928 0.163 0.12277 0.0
O92 O 0.89564 0.21329 0.07993 0.0
O93 O 0.94412 0.27096 0.09257 0.0
O94 O 0.80327 0.16185 0.11257 0.0
O95 O 0.81696 0.21079 0.08899 0.0
O96 O 0.8795 0.27122 0.11461 0.0
O97 O 0.93569 0.29481 0.13762 0.0
O98 O 0.91678 0.22148 0.1612 0.0
O99 O 0.8597 0.21947 0.1516 0.0
C100 C 0.90082 0.16129 0.11936 0.0
O101 O 1.00752 0.27645 0.1146 0.0
O102 O 0.99682 0.26957 0.1541 0.0
C103 C 0.92744 0.24576 0.07485 0.0
C104 C 0.75249 0.1753 0.10523 0.0
C105 C 0.67682 0.16113 0.11496 0.0
C106 C 0.69864 0.18524 0.09512 0.0
C107 C 0.73598 0.19204 0.09022 0.0
C108 C 0.73124 0.15258 0.12572 0.0
C109 C 0.69393 0.14561 0.1305 0.0
C110 C 0.78958 0.17797 0.09784 0.0
C111 C 0.90764 0.29873 0.1278 0.0
H112 H 0.06727 0.20239 0.17339 0.0
H113 H 1.02548 0.23054 0.1726 0.0
H114 H 0.07811 0.2885 0.10356 0.0
H115 H 0.11888 0.25918 0.10376 0.0
H116 H 0.68622 0.19743 0.0827 0.0
H117 H 0.75142 0.20932 0.07416 0.0
H118 H 0.74286 0.1391 0.1377 0.0
H119 H 0.67812 0.12736 0.14614 0.0
Tb120 Tb 0.38408 0.18832 0.41181 0.0
Tb121 Tb 0.33558 0.09636 0.39437 0.0
C122 C 0.35341 0.11906 0.44798 0.0
C123 C 0.45574 0.29616 0.41963 0.0
C124 C 0.51769 0.3729 0.41194 0.0
C125 C 0.5203 0.34885 0.43007 0.0
C126 C 0.48958 0.31102 0.43397 0.0
C127 C 0.45384 0.31978 0.40088 0.0
C128 C 0.48437 0.35753 0.39707 0.0
C129 C 0.42111 0.25833 0.4261 0.0
O130 O 0.42672 0.16992 0.40816 0.0
O131 O 0.39491 0.11379 0.38475 0.0
O132 O 0.33872 0.13083 0.36235 0.0
O133 O 0.3937 0.18829 0.3718 0.0
O134 O 0.30508 0.03931 0.40752 0.0
O135 O 0.31071 0.05104 0.36812 0.0
O136 O 0.29287 0.11113 0.40743 0.0
O137 O 0.32719 0.17681 0.40109 0.0
O138 O 0.35183 0.15054 0.44329 0.0
O139 O 0.36312 0.10375 0.43002 0.0
C140 C 0.42662 0.14239 0.39449 0.0
O141 O 0.39235 0.24447 0.41054 0.0
O142 O 0.42621 0.23096 0.43535 0.0
C143 C 0.3686 0.16404 0.35556 0.0
C144 C 0.25112 0.99814 0.38251 0.0
C145 C 0.17083 0.94676 0.37692 0.0
C146 C 0.19534 0.96017 0.356 0.0
C147 C 0.23503 0.98544 0.35878 0.0
C148 C 0.22663 0.98445 0.40345 0.0
C149 C 0.18702 0.95913 0.40067 0.0
C150 C 0.29324 0.02493 0.38539 0.0
C151 C 0.29436 0.14453 0.4043 0.0
H152 H 0.54538 0.35981 0.44198 0.0
H153 H 0.49184 0.29385 0.44878 0.0
H154 H 0.42824 0.30958 0.38953 0.0
H155 H 0.48158 0.37497 0.38269 0.0
H156 H 0.1839 0.95079 0.33746 0.0
H157 H 0.25317 0.99505 0.34233 0.0
H158 H 0.23796 0.99337 0.42207 0.0
H159 H 0.16896 0.94972 0.41715 0.0
Tb160 Tb 0.79761 0.71705 0.13281 0.0
Tb161 Tb 0.83211 0.66298 0.11112 0.0
C162 C 0.81887 0.66893 0.16878 0.0
C163 C 0.79365 0.80623 0.14328 0.0
C164 C 0.82805 0.88696 0.1351 0.0
C165 C 0.84852 0.87158 0.14721 0.0
C166 C 0.83157 0.83173 0.15122 0.0
C167 C 0.773 0.82148 0.13138 0.0
C168 C 0.78999 0.8614 0.12731 0.0
C169 C 0.77605 0.76379 0.1463 0.0
O170 O 0.85963 0.74965 0.13762 0.0
O171 O 0.87739 0.72314 0.10602 0.0
O172 O 0.80187 0.6741 0.08112 0.0
O173 O 0.81582 0.73358 0.09465 0.0
O174 O 0.87916 0.6541 0.10671 0.0
O175 O 0.8244 0.61526 0.08975 0.0
O176 O 0.77548 0.62258 0.12597 0.0
O177 O 0.74775 0.661 0.12327 0.0
O178 O 0.79439 0.68084 0.16375 0.0
O179 O 0.84073 0.6661 0.15147 0.0
C180 C 0.88554 0.75118 0.12197 0.0
O181 O 0.7642 0.74336 0.12593 0.0
O182 O 0.7941 0.75185 0.16079 0.0
C183 C 0.80411 0.70763 0.07705 0.0
C184 C 0.86288 0.58859 0.10246 0.0
C185 C 0.87548 0.52739 0.11622 0.0
C186 C 0.86869 0.53267 0.09123 0.0
C187 C 0.86254 0.563 0.08445 0.0
C188 C 0.86865 0.58292 0.12754 0.0
C189 C 0.87503 0.55267 0.13434 0.0
C190 C 0.85909 0.62192 0.09445 0.0
C191 C 0.74488 0.62665 0.12499 0.0
H192 H 0.87762 0.89037 0.15382 0.0
H193 H 0.84835 0.82096 0.16045 0.0
H194 H 0.74383 0.80243 0.12494 0.0
H195 H 0.77351 0.87213 0.11765 0.0
H196 H 0.86926 0.51405 0.07677 0.0
H197 H 0.85826 0.56694 0.065 0.0
H198 H 0.8688 0.60219 0.14181 0.0
H199 H 0.87968 0.54912 0.15377 0.0
Tb200 Tb 0.86549 0.21957 0.40806 0.0
Tb201 Tb 0.95189 0.2457 0.3872 0.0
C202 C 0.93726 0.24606 0.44267 0.0
C203 C 0.7621 0.19421 0.41665 0.0
C204 C 0.68892 0.18167 0.40246 0.0
C205 C 0.70063 0.18863 0.4275 0.0
C206 C 0.73685 0.19478 0.4345 0.0
C207 C 0.75111 0.18837 0.39151 0.0
C208 C 0.71473 0.18201 0.38449 0.0
C209 C 0.79861 0.19748 0.42495 0.0
O210 O 0.88444 0.27497 0.39059 0.0
O211 O 0.94974 0.29921 0.39425 0.0
O212 O 0.92104 0.24889 0.35544 0.0
O213 O 0.85901 0.20607 0.36805 0.0
O214 O 1.01186 0.27776 0.39322 0.0
O215 O 0.9883 0.24287 0.3602 0.0
O216 O 0.91814 0.18235 0.38502 0.0
O217 O 0.87742 0.17362 0.41729 0.0
O218 O 0.90801 0.2511 0.43742 0.0
O219 O 0.95 0.23128 0.4261 0.0
C220 C 0.91974 0.30444 0.39178 0.0
O221 O 0.80878 0.17477 0.41404 0.0
O222 O 0.82779 0.23232 0.42796 0.0
C223 C 0.88471 0.22469 0.35038 0.0
C224 C 0.04299 0.2446 0.37844 0.0
C225 C 0.08953 0.21114 0.38801 0.0
C226 C 0.05137 0.18821 0.37954 0.0
C227 C 0.0283 0.20469 0.37494 0.0
C228 C 0.08095 0.26754 0.38693 0.0
C229 C 0.10394 0.25102 0.39175 0.0
C230 C 1.01896 0.26249 0.37389 0.0
C231 C 0.89316 0.1599 0.40194 0.0
H232 H 0.68132 0.18809 0.44184 0.0
H233 H 0.7448 0.1991 0.45399 0.0
H234 H 0.77032 0.188 0.37742 0.0
H235 H 0.70672 0.17719 0.36503 0.0
H236 H 0.03938 0.15756 0.37612 0.0
H237 H 0.99898 0.18613 0.3686 0.0
H238 H 0.09277 0.29829 0.38999 0.0
H239 H 0.13288 0.2695 0.39869 0.0
Tb240 Tb 0.19881 0.38678 0.61232 0.0
Tb241 Tb 0.11604 0.31783 0.63613 0.0
C242 C 0.12507 0.33477 0.57797 0.0
C243 C 0.30412 0.46044 0.60366 0.0
C244 C 0.38286 0.50805 0.61608 0.0
C245 C 0.37161 0.49609 0.59136 0.0
C246 C 0.33268 0.47266 0.58524 0.0
C247 C 0.31519 0.47078 0.62857 0.0
C248 C 0.35421 0.49439 0.63472 0.0
C249 C 0.26318 0.4395 0.59616 0.0
O250 O 0.15646 0.40454 0.60841 0.0
O251 O 0.12237 0.37533 0.64347 0.0
O252 O 0.15843 0.33565 0.66534 0.0
O253 O 0.20231 0.3972 0.65254 0.0
O254 O 0.0566 0.29542 0.64235 0.0
O255 O 0.0866 0.26861 0.6588 0.0
O256 O 0.14384 0.28824 0.61908 0.0
O257 O 0.20598 0.33835 0.62289 0.0
O258 O 0.16229 0.36026 0.57962 0.0
O259 O 0.10294 0.31689 0.59715 0.0
C260 C 0.13507 0.4037 0.62702 0.0
O261 O 0.24821 0.40302 0.59023 0.0
O262 O 0.23956 0.44579 0.60947 0.0
C263 C 0.18689 0.3706 0.67002 0.0
C264 C 1.02061 0.22752 0.64866 0.0
C265 C 0.95672 0.1537 0.63801 0.0
C266 C 0.95198 0.18126 0.65155 0.0
C267 C 0.98356 0.21768 0.6568 0.0
C268 C 1.0257 0.20016 0.63517 0.0
C269 C 0.99401 0.16346 0.62999 0.0
C270 C 0.05326 0.26608 0.65509 0.0
C271 C 0.18122 0.30138 0.61976 0.0
H272 H 0.39289 0.50538 0.5766 0.0
H273 H 0.32479 0.46489 0.56594 0.0
H274 H 0.29364 0.46158 0.64316 0.0
H275 H 0.36173 0.50318 0.65391 0.0
H276 H 0.9238 0.17453 0.65834 0.0
H277 H 0.97902 0.23821 0.66738 0.0
H278 H 0.05409 0.20712 0.62865 0.0
H279 H 0.99856 0.14299 0.61938 0.0
Tb280 Tb 0.2443 0.9415 0.88701 0.0
Tb281 Tb 0.21555 0.85405 0.90779 0.0
C282 C 0.22005 0.87332 0.85025 0.0
C283 C 0.24943 0.03534 0.87884 0.0
C284 C 0.21875 0.08385 0.88883 0.0
C285 C 0.2449 0.0922 0.86904 0.0
C286 C 0.26011 0.06809 0.86411 0.0
C287 C 0.22355 0.02691 0.89868 0.0
C288 C 0.20841 0.05103 0.90368 0.0
C289 C 0.26407 1.00919 0.8729 0.0
O290 O 0.18123 0.91004 0.8867 0.0
O291 O 0.17269 0.86922 0.91888 0.0
O292 O 0.24856 0.89571 0.93729 0.0
O293 O 0.23334 0.94167 0.92637 0.0
O294 O 0.16899 0.798 0.91366 0.0
O295 O 0.22604 0.81411 0.92673 0.0
O296 O 0.27019 0.87135 0.88994 0.0
O297 O 0.29622 0.93727 0.89309 0.0
O298 O 0.24537 0.90946 0.85518 0.0
O299 O 0.20085 0.84805 0.86802 0.0
C300 C 0.15946 0.88621 0.9043 0.0
O301 O 0.28046 1.00145 0.89121 0.0
O302 O 0.24024 0.97809 0.86067 0.0
C303 C 0.24627 0.92669 0.94268 0.0
C304 C 0.18515 0.74852 0.91395 0.0
C305 C 0.17216 0.67528 0.89831 0.0
C306 C 0.14106 0.68168 0.90209 0.0
C307 C 0.14749 0.7178 0.90993 0.0
C308 C 0.21639 0.74237 0.9099 0.0
C309 C 0.20993 0.70606 0.90219 0.0
C310 C 0.19078 0.78584 0.92343 0.0
C311 C 0.30011 0.90651 0.89037 0.0
H312 H 0.25299 0.11691 0.85703 0.0
H313 H 0.2798 0.07474 0.8486 0.0
H314 H 0.21489 1.00154 0.91018 0.0
H315 H 0.18872 0.04406 0.91922 0.0
H316 H 0.11161 0.65841 0.89966 0.0
H317 H 0.12285 0.72157 0.91321 0.0
H318 H 0.24579 0.76539 0.91291 0.0
H319 H 0.23448 0.70206 0.89927 0.0
Tb320 Tb 0.6655 0.81726 0.61238 0.0
Tb321 Tb 0.72833 0.79735 0.63811 0.0
C322 C 0.71939 0.79727 0.58053 0.0
C323 C 0.58716 0.84171 0.60117 0.0
C324 C 0.5324 0.86439 0.61354 0.0
C325 C 0.56984 0.89198 0.60566 0.0
C326 C 0.59686 0.88074 0.59945 0.0
C327 C 0.54984 0.81425 0.60928 0.0
C328 C 0.52292 0.82546 0.61547 0.0
C329 C 0.6146 0.82898 0.5931 0.0
O330 O 0.64568 0.75598 0.60935 0.0
O331 O 0.67132 0.74692 0.64475 0.0
O332 O 0.70337 0.81119 0.66923 0.0
O333 O 0.65118 0.81283 0.65208 0.0
O334 O 0.75589 0.76412 0.63908 0.0
O335 O 0.77209 0.81185 0.66433 0.0
O336 O 0.75959 0.85678 0.62382 0.0
O337 O 0.7109 0.87049 0.62802 0.0
O338 O 0.70475 0.82033 0.58258 0.0
O339 O 0.72245 0.77892 0.59976 0.0
C340 C 0.64374 0.73397 0.62801 0.0
O341 O 0.65142 0.85448 0.59291 0.0
O342 O 0.60814 0.79566 0.60158 0.0
C343 C 0.67174 0.81317 0.67131 0.0
C344 C 0.82236 0.80305 0.64839 0.0
C345 C 0.90062 0.83235 0.63533 0.0
C346 C 0.87396 0.79236 0.63414 0.0
C347 C 0.8353 0.77789 0.64071 0.0
C348 C 0.84883 0.84307 0.64935 0.0
C349 C 0.8875 0.8575 0.64299 0.0
C350 C 0.78134 0.78734 0.65515 0.0
C351 C 0.74768 0.88199 0.62579 0.0
H352 H 0.57798 0.92213 0.60364 0.0
H353 H 0.62514 0.90255 0.59293 0.0
H354 H 0.54114 0.78386 0.61061 0.0
H355 H 0.49457 0.8035 0.62178 0.0
H356 H 0.88285 0.77217 0.62795 0.0
H357 H 0.81545 0.74697 0.63969 0.0
H358 H 0.83983 0.86337 0.65512 0.0
H359 H 0.90721 0.88836 0.64452 0.0
Tb360 Tb 0.10589 0.32695 0.88385 0.0
Tb361 Tb 0.19356 0.37896 0.90814 0.0
C362 C 0.18123 0.37056 0.85066 0.0
C363 C 1.00913 0.24143 0.87461 0.0
C364 C 0.95331 0.16468 0.88784 0.0
C365 C 0.95261 0.17964 0.86424 0.0
C366 C 0.98025 0.21766 0.85772 0.0
C367 C 1.0102 0.2266 0.8981 0.0
C368 C 0.98251 0.18868 0.90468 0.0
C369 C 0.03925 0.28073 0.86712 0.0
O370 O 0.11983 0.28749 0.9026 0.0
O371 O 0.18483 0.32293 0.89653 0.0
O372 O 0.15372 0.34498 0.93826 0.0
O373 O 0.0996 0.34174 0.92167 0.0
O374 O 0.24895 0.3863 0.91267 0.0
O375 O 0.23305 0.42401 0.9314 0.0
O376 O 0.16865 0.41638 0.90566 0.0
O377 O 0.1229 0.38655 0.87488 0.0
O378 O 0.14789 0.33891 0.85452 0.0
O379 O 0.20091 0.39441 0.86881 0.0
C380 C 0.15341 0.28963 0.90054 0.0
O381 O 0.04664 0.30871 0.88267 0.0
O382 O 0.07085 0.28329 0.85852 0.0
C383 C 0.11838 0.33894 0.94068 0.0
C384 C 0.29982 0.44933 0.92171 0.0
C385 C 0.37637 0.5093 0.91182 0.0
C386 C 0.34462 0.51006 0.90111 0.0
C387 C 0.30664 0.48022 0.90592 0.0
C388 C 0.33134 0.44887 0.93264 0.0
C389 C 0.36907 0.4784 0.9278 0.0
C390 C 0.26067 0.41654 0.92686 0.0
C391 C 0.14531 0.41699 0.88864 0.0
H392 H 0.93036 0.16214 0.85092 0.0
H393 H 0.97916 0.22846 0.83942 0.0
H394 H 0.03265 0.24426 0.91129 0.0
H395 H 0.98428 0.17799 0.92286 0.0
H396 H 0.34915 0.53327 0.88861 0.0
H397 H 0.28273 0.48108 0.89717 0.0
H398 H 0.32676 0.42538 0.94492 0.0
H399 H 0.3926 0.4771 0.93676 0.0
Tb400 Tb 0.21529 0.84776 0.6121 0.0
Tb401 Tb 0.25753 0.94035 0.62886 0.0
C402 C 0.25303 0.91638 0.57515 0.0
C403 C 0.17729 0.73917 0.608 0.0
C404 C 0.16339 0.66393 0.62069 0.0
C405 C 0.19614 0.68963 0.60666 0.0
C406 C 0.20296 0.72673 0.60036 0.0
C407 C 0.14481 0.71361 0.62221 0.0
C408 C 0.13805 0.67666 0.62854 0.0
C409 C 0.18189 0.77688 0.59952 0.0
O410 O 0.27678 0.8676 0.61498 0.0
O411 O 0.30028 0.92391 0.6382 0.0
O412 O 0.22608 0.90572 0.66096 0.0
O413 O 0.22483 0.84865 0.65203 0.0
O414 O 0.28631 0.99767 0.61608 0.0
O415 O 0.27355 0.98529 0.65509 0.0
O416 O 0.20112 0.92525 0.61417 0.0
O417 O 0.17004 0.86009 0.62223 0.0
O418 O 0.22068 0.8841 0.57982 0.0
O419 O 0.27775 0.93301 0.59308 0.0
C420 C 0.30424 0.89589 0.62816 0.0
O421 O 0.16649 0.79222 0.61351 0.0
O422 O 0.21519 0.80326 0.59063 0.0
C423 C 0.22263 0.87251 0.66798 0.0
C424 C 0.27326 0.04049 0.63862 0.0
C425 C 0.25533 0.10048 0.63482 0.0
C426 C 0.28745 0.1057 0.64862 0.0
C427 C 0.29631 0.07606 0.65045 0.0
C428 C 0.23998 0.03428 0.62588 0.0
C429 C 0.231 0.06402 0.62406 0.0
C430 C 0.28645 1.01192 0.6379 0.0
C431 C 0.16933 0.89204 0.6177 0.0
H432 H 0.21656 0.68108 0.60049 0.0
H433 H 0.22804 0.7454 0.58917 0.0
H434 H 0.12397 0.72182 0.62804 0.0
H435 H 0.1122 0.65761 0.63897 0.0
H436 H 0.30641 0.13319 0.65749 0.0
H437 H 0.32202 0.08141 0.66042 0.0
H438 H 0.22176 1.00699 0.61657 0.0
H439 H 0.20616 0.05911 0.61325 0.0
Tb440 Tb 0.72189 0.80481 0.88903 0.0
Tb441 Tb 0.66258 0.83265 0.90981 0.0
C442 C 0.67236 0.82208 0.85223 0.0
C443 C 0.81155 0.79981 0.88165 0.0
C444 C 0.88887 0.82344 0.89381 0.0
C445 C 0.87377 0.80728 0.87037 0.0
C446 C 0.83544 0.79551 0.86439 0.0
C447 C 0.82669 0.81673 0.90487 0.0
C448 C 0.86493 0.8283 0.91092 0.0
C449 C 0.77098 0.78638 0.8753 0.0
O450 O 0.75144 0.86807 0.88633 0.0
O451 O 0.72095 0.87666 0.91935 0.0
O452 O 0.67267 0.801 0.93965 0.0
O453 O 0.73383 0.8176 0.92812 0.0
O454 O 0.65464 0.88017 0.91591 0.0
O455 O 0.6125 0.82306 0.92883 0.0
O456 O 0.62447 0.7759 0.89468 0.0
O457 O 0.66609 0.7518 0.89626 0.0
O458 O 0.68592 0.79917 0.85785 0.0
O459 O 0.66752 0.8431 0.86933 0.0
C460 C 0.74997 0.8904 0.90373 0.0
O461 O 0.74577 0.7688 0.893 0.0
O462 O 0.76451 0.81104 0.86341 0.0
C463 C 0.70624 0.80401 0.94471 0.0
C464 C 0.59053 0.86715 0.91903 0.0
C465 C 0.53335 0.88557 0.90573 0.0
C466 C 0.53177 0.85168 0.89661 0.0
C467 C 0.56027 0.8426 0.90312 0.0
C468 C 0.59199 0.90074 0.92818 0.0
C469 C 0.56379 0.90988 0.92163 0.0
C470 C 0.6212 0.8591 0.92655 0.0
C471 C 0.63077 0.74662 0.89496 0.0
H472 H 0.89127 0.80276 0.85688 0.0
H473 H 0.8243 0.78262 0.84635 0.0
H474 H 0.80886 0.82069 0.91841 0.0
H475 H 0.87577 0.84107 0.92902 0.0
H476 H 0.50882 0.83247 0.88421 0.0
H477 H 0.55869 0.81657 0.89573 0.0
H478 H 0.61503 0.91998 0.94054 0.0
H479 H 0.56554 0.93579 0.92937 0.0
H480 H 0.17211 0.25849 0.12276 0.0
H481 H 0.07507 0.15413 0.1532 0.0
H482 H 0.11421 0.12228 0.15291 0.0
H483 H 0.20504 0.2091 0.08118 0.0
H484 H 0.25543 0.24372 0.08572 0.0
H485 H 0.22 0.25876 0.0885 0.0
H486 H 0.24465 0.28478 0.13283 0.0
H487 H 0.28016 0.26985 0.13018 0.0
H488 H 0.24655 0.2529 0.15584 0.0
H489 H 0.16393 0.10192 0.15021 0.0
H490 H 0.2208 0.09414 0.1449 0.0
H491 H 0.28524 0.21035 0.11432 0.0
C492 C 0.15887 0.22881 0.12915 0.0
C493 C 0.12039 0.20905 0.13821 0.0
C494 C 0.10461 0.17034 0.14667 0.0
C495 C 0.12653 0.1518 0.14637 0.0
C496 C 0.16423 0.17213 0.13737 0.0
C497 C 0.18029 0.20971 0.12882 0.0
C498 C 0.22156 0.22498 0.12015 0.0
C499 C 0.22574 0.2347 0.09223 0.0
C500 C 0.2499 0.26021 0.13568 0.0
C501 C 0.22624 0.19016 0.12533 0.0
C502 C 0.19277 0.16004 0.13529 0.0
C503 C 0.19022 0.12523 0.14231 0.0
C504 C 0.22278 0.12114 0.13925 0.0
C505 C 0.25752 0.15157 0.12911 0.0
C506 C 0.25902 0.18641 0.12186 0.0
H507 H 0.12249 0.88313 0.40537 0.0
H508 H 0.12325 0.95096 0.34199 0.0
H509 H 0.05293 0.90802 0.3374 0.0
H510 H 0.05092 0.78997 0.38165 0.0
H511 H 0.0286 0.7719 0.41156 0.0
H512 H 0.07911 0.80766 0.40969 0.0
H513 H 0.06804 0.85263 0.43917 0.0
H514 H 1.0175 0.81701 0.44113 0.0
H515 H 0.03228 0.86569 0.43129 0.0
H516 H 0.98244 0.85849 0.3401 0.0
H517 H 0.91681 0.80523 0.34938 0.0
H518 H 0.96155 0.76959 0.41127 0.0
C519 C 0.10786 0.8891 0.3906 0.0
C520 C 0.1285 0.92044 0.374 0.0
C521 C 0.10824 0.92687 0.35472 0.0
C522 C 0.06824 0.90278 0.35206 0.0
C523 C 0.04883 0.87227 0.36877 0.0
C524 C 0.06794 0.86528 0.38764 0.0
C525 C 0.04023 0.8305 0.40309 0.0
C526 C 0.05032 0.79809 0.40138 0.0
C527 C 0.03947 0.84217 0.43028 0.0
C528 C 1.0025 0.81914 0.39005 0.0
C529 C 1.00815 0.84363 0.3703 0.0
C530 C 0.97767 0.83909 0.35549 0.0
C531 C 0.94044 0.80869 0.36094 0.0
C532 C 0.93387 0.78309 0.38107 0.0
C533 C 0.96549 0.78857 0.39577 0.0
H534 H 0.83674 0.09113 0.12927 0.0
H535 H 0.95831 0.14399 0.11042 0.0
H536 H 0.95286 0.07943 0.1116 0.0
H537 H 0.83418 0.02171 0.17222 0.0
H538 H 0.78654 0.98434 0.16325 0.0
H539 H 0.80001 0.03452 0.16024 0.0
H540 H 0.78198 0.02392 0.11347 0.0
H541 H 0.7685 0.97371 0.11632 0.0
H542 H 0.80386 1.00395 0.09347 0.0
H543 H 0.93372 1.00853 0.11513 0.0
H544 H 0.90303 0.93785 0.12129 0.0
H545 H 0.79458 0.93251 0.13893 0.0
C546 C 0.86229 0.08929 0.12526 0.0
C547 C 0.89797 0.12274 0.11966 0.0
C548 C 0.93064 0.11884 0.11471 0.0
C549 C 0.92782 0.08227 0.11531 0.0
C550 C 0.89216 0.04993 0.12094 0.0
C551 C 0.86002 0.05318 0.12586 0.0
C552 C 0.8252 1.0142 0.13187 0.0
C553 C 0.81064 1.01368 0.15848 0.0
C554 C 0.79299 1.00331 0.11263 0.0
C555 C 0.8427 0.98839 0.12963 0.0
C556 C 0.88131 1.00947 0.12324 0.0
C557 C 0.90353 0.99181 0.12022 0.0
C558 C 0.88587 0.95163 0.12393 0.0
C559 C 0.84635 0.92947 0.1307 0.0
C560 C 0.82466 0.94836 0.13347 0.0
H561 H 0.28568 0.2051 0.38917 0.0
H562 H 0.22138 0.08808 0.41847 0.0
H563 H 0.16168 0.09221 0.4179 0.0
H564 H 0.23603 0.24455 0.42278 0.0
H565 H 0.23731 0.27452 0.39728 0.0
H566 H 0.27468 0.26222 0.40029 0.0
H567 H 0.26057 0.23394 0.35562 0.0
H568 H 0.22323 0.24625 0.35243 0.0
H569 H 0.21224 0.19705 0.34754 0.0
H570 H 0.10915 0.11025 0.41468 0.0
H571 H 0.06813 0.13936 0.40783 0.0
H572 H 0.16728 0.24325 0.37881 0.0
C573 C 0.25913 0.1803 0.39559 0.0
C574 C 0.25827 0.14631 0.40401 0.0
C575 C 0.22276 0.11443 0.41196 0.0
C576 C 0.18874 0.11655 0.41174 0.0
C577 C 0.19072 0.15062 0.40336 0.0
C578 C 0.22503 0.1818 0.3953 0.0
C579 C 0.21955 0.21485 0.38672 0.0
C580 C 0.2433 0.25117 0.40273 0.0
C581 C 0.22948 0.22351 0.35893 0.0
C582 C 0.17676 0.19757 0.39132 0.0
C583 C 0.1606 0.16057 0.40099 0.0
C584 C 0.1215 0.13909 0.40694 0.0
C585 C 0.09836 0.15583 0.40282 0.0
C586 C 0.11429 0.19366 0.39268 0.0
C587 C 0.15411 0.21456 0.3869 0.0
H588 H 0.11642 0.8729 0.11658 0.0
H589 H 0.10784 0.97153 0.14223 0.0
H590 H 0.03691 0.93238 0.14028 0.0
H591 H 0.03456 0.83517 0.07383 0.0
H592 H 1.01892 0.78524 0.08078 0.0
H593 H 0.06926 0.82139 0.08309 0.0
H594 H 0.07013 0.80109 0.12877 0.0
H595 H 1.01984 0.76489 0.12659 0.0
H596 H 0.03599 0.801 0.15075 0.0
H597 H 0.9675 0.88214 0.1383 0.0
H598 H 0.90316 0.82389 0.13522 0.0
H599 H 0.95535 0.75733 0.10974 0.0
C600 C 0.09957 0.88623 0.12171 0.0
C601 C 0.11772 0.92539 0.12943 0.0
C602 C 0.09465 0.94183 0.13589 0.0
C603 C 0.05432 0.91977 0.13495 0.0
C604 C 0.03738 0.88132 0.12734 0.0
C605 C 0.05915 0.86465 0.12069 0.0
C606 C 0.03344 0.82243 0.11362 0.0
C607 C 0.03941 0.81567 0.0862 0.0
C608 C 0.04026 0.79579 0.13097 0.0
C609 C 0.99387 0.81787 0.11779 0.0
C610 C 0.99695 0.85228 0.12571 0.0
C611 C 0.96468 0.85511 0.13191 0.0
C612 C 0.92827 0.82182 0.1302 0.0
C613 C 0.92428 0.78617 0.12217 0.0
C614 C 0.95754 0.78434 0.11559 0.0
H615 H 0.85693 0.95177 0.35714 0.0
H616 H 0.80419 0.90827 0.42941 0.0
H617 H 0.81952 0.97398 0.44162 0.0
H618 H 0.93512 0.04417 0.37946 0.0
H619 H 0.93409 0.07117 0.35287 0.0
H620 H 0.91969 0.02074 0.34962 0.0
H621 H 0.85376 1.00641 0.33184 0.0
H622 H 0.86801 0.05679 0.33494 0.0
H623 H 0.82417 0.0202 0.34947 0.0
H624 H 0.83799 0.04324 0.44574 0.0
H625 H 0.85941 0.11258 0.44183 0.0
H626 H 0.90205 0.11337 0.36731 0.0
C627 C 0.84858 0.95613 0.3755 0.0
C628 C 0.82952 0.92477 0.39238 0.0
C629 C 0.8193 0.93179 0.41629 0.0
C630 C 0.82774 0.96904 0.42338 0.0
C631 C 0.84665 0.99925 0.40643 0.0
C632 C 0.85713 0.99339 0.38301 0.0
C633 C 0.87713 0.03116 0.36844 0.0
C634 C 0.91899 0.04247 0.36223 0.0
C635 C 0.8544 0.02847 0.34477 0.0
C636 C 0.87572 0.05893 0.38723 0.0
C637 C 0.85799 0.03975 0.40899 0.0
C638 C 0.85212 0.05864 0.42885 0.0
C639 C 0.86437 0.0981 0.42641 0.0
C640 C 0.88255 0.11859 0.4043 0.0
C641 C 0.88862 0.09867 0.38454 0.0
H642 H 0.18757 0.10381 0.63676 0.0
H643 H 0.31037 0.17331 0.6216 0.0
H644 H 0.30321 0.2302 0.61415 0.0
H645 H 0.15675 0.15038 0.59035 0.0
H646 H 0.11911 0.14859 0.60976 0.0
H647 H 0.13295 0.11221 0.613 0.0
H648 H 0.14607 0.12824 0.6599 0.0
H649 H 0.1322 0.16458 0.6568 0.0
H650 H 0.17882 0.17741 0.66934 0.0
H651 H 0.2844 0.27983 0.60959 0.0
H652 H 0.25509 0.32106 0.60916 0.0
H653 H 0.14349 0.22145 0.6271 0.0
C654 C 0.21281 0.13095 0.63165 0.0
C655 C 0.24966 0.13412 0.62998 0.0
C656 C 0.28202 0.17024 0.62343 0.0
C657 C 0.27821 0.20271 0.61895 0.0
C658 C 0.24177 0.1988 0.621 0.0
C659 C 0.20955 0.16399 0.6272 0.0
C660 C 0.17407 0.16858 0.62893 0.0
C661 C 0.14394 0.14344 0.60934 0.0
C662 C 0.15678 0.15914 0.65531 0.0
C663 C 0.19165 0.21147 0.62305 0.0
C664 C 0.23071 0.22802 0.61836 0.0
C665 C 0.25381 0.26724 0.61313 0.0
C666 C 0.2368 0.29046 0.613 0.0
C667 C 0.19693 0.27464 0.61812 0.0
C668 C 0.17394 0.23438 0.62288 0.0
H669 H 0.11342 0.89792 0.87146 0.0
H670 H 0.11478 0.85573 0.9457 0.0
H671 H 0.04705 0.83866 0.95178 0.0
H672 H 0.0499 0.93725 0.88581 0.0
H673 H 1.02489 0.92208 0.8565 0.0
H674 H 0.07456 0.93397 0.85862 0.0
H675 H 0.05617 0.86648 0.84091 0.0
H676 H 1.00647 0.85431 0.83883 0.0
H677 H 1.01913 0.82358 0.85613 0.0
H678 H 0.97857 0.82339 0.94935 0.0
H679 H 0.9131 0.80926 0.93808 0.0
H680 H 0.955 0.86011 0.86516 0.0
C681 C 0.09962 0.88564 0.88912 0.0
C682 C 0.11949 0.87831 0.90815 0.0
C683 C 0.10019 0.86158 0.93084 0.0
C684 C 0.06172 0.85189 0.93452 0.0
C685 C 0.04277 0.85893 0.9153 0.0
C686 C 0.06097 0.87538 0.89303 0.0
C687 C 0.03325 0.8779 0.87495 0.0
C688 C 0.04644 0.92032 0.8686 0.0
C689 C 0.02848 0.85415 0.85131 0.0
C690 C 0.99656 0.85975 0.89042 0.0
C691 C 1.00287 0.84945 0.91374 0.0
C692 C 0.97332 0.8316 0.93122 0.0
C693 C 0.93624 0.82385 0.92468 0.0
C694 C 0.92885 0.83368 0.90078 0.0
C695 C 0.95963 0.85205 0.88352 0.0
H696 H 0.82676 0.92131 0.63383 0.0
H697 H 0.73099 0.9384 0.61462 0.0
H698 H 0.77503 1.00876 0.6131 0.0
H699 H 0.87326 1.00284 0.67426 0.0
H700 H 0.9217 1.01581 0.66534 0.0
H701 H 0.88342 0.96619 0.66316 0.0
H702 H 0.89936 0.96498 0.61661 0.0
H703 H 0.93769 1.01467 0.61856 0.0
H704 H 0.90008 1.00074 0.59575 0.0
H705 H 0.82771 0.07682 0.61497 0.0
H706 H 0.88645 0.13978 0.62177 0.0
H707 H 0.9493 0.08088 0.64098 0.0
C708 C 0.81523 0.9399 0.62903 0.0
C709 C 0.77535 0.92423 0.62431 0.0
C710 C 0.76131 0.94958 0.61843 0.0
C711 C 0.78615 0.98967 0.61738 0.0
C712 C 0.82509 1.00424 0.62234 0.0
C713 C 0.83971 0.98032 0.62814 0.0
C714 C 0.88255 1.00407 0.63394 0.0
C715 C 0.8907 0.99679 0.66077 0.0
C716 C 0.90632 0.9956 0.61509 0.0
C717 C 0.88941 0.04494 0.63079 0.0
C718 C 0.85582 0.04414 0.62386 0.0
C719 C 0.85424 0.07789 0.62039 0.0
C720 C 0.88773 0.11353 0.62445 0.0
C721 C 0.92246 0.11537 0.63209 0.0
C722 C 0.92333 0.08048 0.63493 0.0
H723 H 0.21739 0.28261 0.89371 0.0
H724 H 0.09475 0.21581 0.9102 0.0
H725 H 0.09858 0.15591 0.91078 0.0
H726 H 0.22012 0.21501 0.85249 0.0
H727 H 0.26677 0.22388 0.86256 0.0
H728 H 0.2548 0.26167 0.86488 0.0
H729 H 0.2703 0.26846 0.91205 0.0
H730 H 0.28247 0.23077 0.90986 0.0
H731 H 0.24645 0.22642 0.93186 0.0
H732 H 0.1154 0.10304 0.90771 0.0
H733 H 0.14382 0.06124 0.90104 0.0
H734 H 0.25545 0.16316 0.88717 0.0
C735 C 0.19135 0.25548 0.89768 0.0
C736 C 0.15579 0.25391 0.90194 0.0
C737 C 0.12236 0.21773 0.90689 0.0
C738 C 0.12424 0.18356 0.9073 0.0
C739 C 0.15974 0.18613 0.90278 0.0
C740 C 0.19269 0.22118 0.89812 0.0
C741 C 0.22701 0.21601 0.89304 0.0
C742 C 0.2431 0.22996 0.86667 0.0
C743 C 0.25841 0.23663 0.91289 0.0
C744 C 0.20814 0.17249 0.89526 0.0
C745 C 0.16939 0.15577 0.90102 0.0
C746 C 0.14579 0.11583 0.90342 0.0
C747 C 0.16224 0.09236 0.89972 0.0
C748 C 0.20188 0.10893 0.89364 0.0
C749 C 0.22501 0.14957 0.89158 0.0
H750 H 0.10032 0.83356 0.63482 0.0
H751 H 0.15303 0.94675 0.59968 0.0
H752 H 0.08955 0.94329 0.59923 0.0
H753 H 1.00987 0.79078 0.60223 0.0
H754 H 0.982 0.76442 0.62907 0.0
H755 H 0.03129 0.77551 0.62588 0.0
H756 H 0.04755 0.8094 0.66891 0.0
H757 H 0.99831 0.79831 0.67228 0.0
H758 H 0.03709 0.84773 0.6747 0.0
H759 H 1.01971 0.92679 0.60258 0.0
H760 H 0.95031 0.90023 0.61102 0.0
H761 H 0.94508 0.79943 0.6458 0.0
C762 C 0.09857 0.85757 0.62685 0.0
C763 C 0.13159 0.89035 0.61714 0.0
C764 C 0.12809 0.92134 0.60722 0.0
C765 C 0.09216 0.91958 0.60682 0.0
C766 C 0.06018 0.88676 0.61656 0.0
C767 C 0.06317 0.85645 0.62652 0.0
C768 C 1.02485 0.82501 0.63658 0.0
C769 C 1.01121 0.78667 0.6226 0.0
C770 C 1.0271 0.81983 0.66479 0.0
C771 C 0.9997 0.84227 0.63071 0.0
C772 C 1.02047 0.87777 0.61904 0.0
C773 C 1.00324 0.89911 0.61184 0.0
C774 C 0.96382 0.88386 0.61687 0.0
C775 C 0.94207 0.84773 0.62918 0.0
C776 C 0.96052 0.8268 0.63605 0.0
H777 H 0.92266 0.09775 0.85961 0.0
H778 H 0.91556 0.14084 0.93249 0.0
H779 H 0.86524 0.07506 0.94476 0.0
H780 H 0.82158 0.03108 0.85266 0.0
H781 H 0.82786 0.99435 0.83741 0.0
H782 H 0.86443 0.04457 0.83452 0.0
H783 H 0.91563 0.02875 0.85121 0.0
H784 H 0.87917 0.97846 0.8542 0.0
H785 H 0.90786 1.00454 0.88076 0.0
H786 H 0.81379 1.00573 0.94866 0.0
H787 H 0.76494 0.93678 0.94427 0.0
H788 H 0.80511 0.9371 0.86908 0.0
C789 C 0.91047 0.09335 0.87814 0.0
C790 C 0.92328 0.1246 0.89512 0.0
C791 C 0.90675 0.11742 0.91926 0.0
C792 C 0.87798 0.08014 0.92638 0.0
C793 C 0.86605 0.05011 0.90923 0.0
C794 C 0.8818 0.05617 0.88563 0.0
C795 C 0.86333 1.01877 0.87073 0.0
C796 C 0.84309 0.02242 0.84746 0.0
C797 C 0.89329 1.00694 0.86382 0.0
C798 C 0.83435 0.9909 0.88954 0.0
C799 C 0.83653 1.00971 0.91161 0.0
C800 C 0.81198 0.99064 0.93153 0.0
C801 C 0.78423 0.95141 0.9288 0.0
C802 C 0.78119 0.93137 0.90636 0.0
C803 C 0.80696 0.95143 0.88657 0.0
H804 H 0.33764 0.11278 0.31739 0.0
H805 H 0.41361 0.23487 0.33276 0.0
H806 H 0.4232 0.24793 0.28736 0.0
H807 H 0.3921 0.10714 0.26658 0.0
H808 H 0.35 0.07289 0.24951 0.0
H809 H 0.34854 0.07401 0.28298 0.0
H810 H 0.28922 0.0837 0.28099 0.0
H811 H 0.2904 0.0825 0.24752 0.0
H812 H 0.29218 0.12336 0.26313 0.0
H813 H 0.42248 0.24684 0.23937 0.0
H814 H 0.41429 0.23129 0.19428 0.0
H815 H 0.34144 0.10952 0.21217 0.0
C816 C 0.35608 0.1424 0.31131 0.0
C817 C 0.37456 0.1729 0.32861 0.0
C818 C 0.39905 0.21107 0.3198 0.0
C819 C 0.40461 0.21874 0.29407 0.0
C820 C 0.38585 0.18782 0.27752 0.0
C821 C 0.36232 0.15039 0.28591 0.0
C822 C 0.34621 0.12189 0.26466 0.0
C823 C 0.36006 0.09225 0.26602 0.0
C824 C 0.30188 0.10169 0.26404 0.0
C825 C 0.3641 0.14903 0.24284 0.0
C826 C 0.38667 0.18701 0.25046 0.0
C827 C 0.40509 0.21714 0.23327 0.0
C828 C 0.40026 0.20807 0.20772 0.0
C829 C 0.3776 0.16917 0.1997 0.0
C830 C 0.35948 0.13949 0.21763 0.0
H831 H 0.77073 0.65676 0.31222 0.0
H832 H 0.87394 0.65061 0.32737 0.0
H833 H 0.88158 0.64371 0.28218 0.0
H834 H 0.73602 0.59005 0.25835 0.0
H835 H 0.7196 0.61906 0.24265 0.0
H836 H 0.71937 0.61718 0.27616 0.0
H837 H 0.76084 0.69208 0.27771 0.0
H838 H 0.76152 0.69421 0.2443 0.0
H839 H 0.80627 0.7161 0.26131 0.0
H840 H 0.88158 0.64539 0.23439 0.0
H841 H 0.87385 0.65521 0.18969 0.0
H842 H 0.77135 0.66157 0.20742 0.0
C843 C 0.79453 0.65307 0.30623 0.0
C844 C 0.82171 0.65417 0.32341 0.0
C845 C 0.85254 0.64953 0.3146 0.0
C846 C 0.85713 0.64565 0.28894 0.0
C847 C 0.83045 0.64614 0.27245 0.0
C848 C 0.79955 0.64938 0.28089 0.0
C849 C 0.77668 0.65261 0.25963 0.0
C850 C 0.73548 0.61763 0.25918 0.0
C851 C 0.77635 0.69103 0.26082 0.0
C852 C 0.80011 0.65188 0.23779 0.0
C853 C 0.83073 0.6476 0.24538 0.0
C854 C 0.85738 0.64825 0.22829 0.0
C855 C 0.85278 0.65387 0.20293 0.0
C856 C 0.82203 0.65924 0.195 0.0
C857 C 0.79517 0.65753 0.21275 0.0
H858 H 0.93215 0.2312 0.20675 0.0
H859 H 0.81319 0.1964 0.18995 0.0
H860 H 0.79859 0.19131 0.23515 0.0
H861 H 0.91387 0.17021 0.26047 0.0
H862 H 0.95584 0.20641 0.27673 0.0
H863 H 0.95563 0.20504 0.24323 0.0
H864 H 0.97224 0.27675 0.24178 0.0
H865 H 0.97246 0.27834 0.27525 0.0
H866 H 0.94173 0.29088 0.25797 0.0
H867 H 0.7981 0.19065 0.28346 0.0
H868 H 0.81295 0.19829 0.32876 0.0
H869 H 0.93254 0.23571 0.31171 0.0
C870 C 0.90285 0.22207 0.21244 0.0
C871 C 0.87375 0.21391 0.19476 0.0
C872 C 0.83597 0.20273 0.20316 0.0
C873 C 0.8274 0.19966 0.2288 0.0
C874 C 0.85698 0.20812 0.24574 0.0
C875 C 0.89397 0.21928 0.23776 0.0
C876 C 0.92129 0.22855 0.25933 0.0
C877 C 0.9376 0.2009 0.25997 0.0
C878 C 0.95383 0.27116 0.25853 0.0
C879 C 0.89408 0.22112 0.28082 0.0
C880 C 0.85696 0.20894 0.27285 0.0
C881 C 0.82714 0.20027 0.28982 0.0
C882 C 0.83575 0.20459 0.31548 0.0
C883 C 0.87394 0.21799 0.32374 0.0
C884 C 0.90312 0.22593 0.30605 0.0
H885 H 0.1661 0.31941 0.70824 0.0
H886 H 0.23519 0.44206 0.69157 0.0
H887 H 0.24833 0.45576 0.73669 0.0
H888 H 0.11993 0.32904 0.75929 0.0
H889 H 0.11821 0.28936 0.77641 0.0
H890 H 0.11968 0.2894 0.743 0.0
H891 H 0.18063 0.28236 0.7442 0.0
H892 H 0.17928 0.28214 0.77772 0.0
H893 H 0.22232 0.31683 0.76151 0.0
H894 H 0.24761 0.45549 0.78486 0.0
H895 H 0.23176 0.44152 0.82974 0.0
H896 H 0.16191 0.31922 0.81278 0.0
C897 C 0.18466 0.34922 0.71386 0.0
C898 C 0.19963 0.37968 0.6963 0.0
C899 C 0.22359 0.4182 0.70465 0.0
C900 C 0.23118 0.42621 0.73025 0.0
C901 C 0.21485 0.39535 0.74711 0.0
C902 C 0.19225 0.3576 0.73907 0.0
C903 C 0.17504 0.32962 0.76054 0.0
C904 C 0.13061 0.30813 0.75975 0.0
C905 C 0.19024 0.30106 0.76102 0.0
C906 C 0.1905 0.35747 0.78211 0.0
C907 C 0.21391 0.39524 0.77423 0.0
C908 C 0.22969 0.42594 0.79116 0.0
C909 C 0.22064 0.41776 0.81661 0.0
C910 C 0.19558 0.3793 0.82472 0.0
C911 C 0.18115 0.34894 0.80719 0.0
H912 H 0.23096 0.92095 0.81155 0.0
H913 H 0.19408 0.80119 0.8289 0.0
H914 H 0.18835 0.78626 0.7836 0.0
H915 H 0.16815 0.90185 0.75858 0.0
H916 H 0.20374 0.94409 0.74204 0.0
H917 H 0.20295 0.94388 0.77556 0.0
H918 H 0.2746 0.96117 0.7762 0.0
H919 H 0.27558 0.96125 0.74273 0.0
H920 H 0.28869 0.93071 0.75984 0.0
H921 H 0.1919 0.78695 0.73541 0.0
H922 H 0.20009 0.80188 0.69023 0.0
H923 H 0.2327 0.92095 0.70657 0.0
C924 C 0.2215 0.89144 0.80593 0.0
C925 C 0.21327 0.86224 0.82369 0.0
C926 C 0.20046 0.82395 0.81553 0.0
C927 C 0.19726 0.81531 0.78989 0.0
C928 C 0.20642 0.84521 0.77284 0.0
C929 C 0.2178 0.88238 0.78069 0.0
C930 C 0.22648 0.90975 0.75909 0.0
C931 C 0.19866 0.92582 0.75881 0.0
C932 C 0.26884 0.94264 0.7595 0.0
C933 C 0.21888 0.88249 0.73764 0.0
C934 C 0.2074 0.84535 0.74574 0.0
C935 C 0.20044 0.81584 0.72895 0.0
C936 C 0.20529 0.82461 0.70333 0.0
C937 C 0.21676 0.86252 0.69481 0.0
C938 C 0.22341 0.89155 0.71234 0.0
H939 H 0.67586 0.77344 0.71033 0.0
H940 H 0.64116 0.85671 0.69038 0.0
H941 H 0.63197 0.8656 0.7353 0.0
H942 H 0.6108 0.73028 0.76412 0.0
H943 H 0.64666 0.72472 0.78089 0.0
H944 H 0.64528 0.72228 0.7474 0.0
H945 H 0.71703 0.77679 0.74569 0.0
H946 H 0.71852 0.77973 0.77907 0.0
H947 H 0.73136 0.82238 0.76077 0.0
H948 H 0.63506 0.87033 0.78405 0.0
H949 H 0.64627 0.86741 0.82934 0.0
H950 H 0.67787 0.77992 0.81447 0.0
C951 C 0.6655 0.79296 0.71535 0.0
C952 C 0.65918 0.81439 0.69702 0.0
C953 C 0.64573 0.83971 0.70423 0.0
C954 C 0.64066 0.84503 0.72968 0.0
C955 C 0.64861 0.8243 0.74744 0.0
C956 C 0.66012 0.79828 0.74034 0.0
C957 C 0.66912 0.78091 0.76243 0.0
C958 C 0.64129 0.73695 0.76379 0.0
C959 C 0.7115 0.79055 0.76195 0.0
C960 C 0.66185 0.80176 0.78328 0.0
C961 C 0.6499 0.82665 0.77459 0.0
C962 C 0.64386 0.85044 0.79094 0.0
C963 C 0.65036 0.84868 0.81664 0.0
C964 C 0.66291 0.82342 0.82562 0.0
C965 C 0.66812 0.79951 0.80852 0.0
H966 H 0.21754 0.96115 0.97289 0.0
H967 H 0.31599 0.94514 0.96244 0.0
H968 H 0.35152 0.99408 0.99513 0.0
H969 H 0.26735 0.06121 0.98329 0.0
H970 H 0.23579 0.06074 1.00743 0.0
H971 H 0.21743 0.02346 0.98402 0.0
H972 H 0.1941 0.9704 0.01811 0.0
H973 H 0.21152 1.00748 0.04165 0.0
H974 H 0.22775 0.97273 0.04124 0.0
H975 H 0.37849 0.05022 0.02563 0.0
H976 H 0.39032 0.09906 0.05808 0.0
H977 H 0.27205 0.0737 0.05139 0.0
C978 C 0.24625 0.96735 0.97796 0.0
C979 C 0.26408 0.94934 0.96539 0.0
C980 C 0.30172 0.95824 0.97223 0.0
C981 C 0.32221 0.98629 0.99054 0.0
C982 C 0.30423 1.00444 1.00211 0.0
C983 C 0.26663 0.99442 0.99664 0.0
C984 C 0.25351 1.01736 0.01225 0.0
C985 C 0.2429 0.04216 0.99576 0.0
C986 C 0.21973 0.99039 0.02933 0.0
C987 C 0.28981 0.04241 0.02705 0.0
C988 C 0.31899 0.03506 0.0206 0.0
C989 C 0.3557 0.05584 0.03105 0.0
C990 C 0.36231 0.08383 0.04922 0.0
C991 C 0.33215 0.09019 0.05703 0.0
C992 C 0.29561 0.06945 0.04562 0.0
H993 H 0.78096 0.68837 0.48072 0.0
H994 H 0.85301 0.80109 0.44682 0.0
H995 H 0.83124 0.83103 0.47799 0.0
H996 H 0.70237 0.70041 0.49668 0.0
H997 H 0.69294 0.67708 0.52665 0.0
H998 H 0.71512 0.66369 0.50238 0.0
H999 H 0.77297 0.67921 0.53111 0.0
H1000 H 0.75049 0.69176 0.55567 0.0
H1001 H 0.79888 0.72605 0.54578 0.0
H1002 H 0.79636 0.84817 0.50976 0.0
H1003 H 0.76062 0.85335 0.54591 0.0
H1004 H 0.71562 0.73165 0.56205 0.0
C1005 C 0.79294 0.71945 0.48032 0.0
C1006 C 0.81824 0.74219 0.46099 0.0
C1007 C 0.83302 0.78283 0.46109 0.0
C1008 C 0.82082 0.80023 0.47874 0.0
C1009 C 0.79442 0.7769 0.49674 0.0
C1010 C 0.78154 0.73763 0.49824 0.0
C1011 C 0.75374 0.7196 0.51992 0.0
C1012 C 0.71367 0.68834 0.51085 0.0
C1013 C 0.77 0.70319 0.53927 0.0
C1014 C 0.75272 0.75472 0.52996 0.0
C1015 C 0.77592 0.78735 0.51604 0.0
C1016 C 0.77848 0.82293 0.52105 0.0
C1017 C 0.75778 0.82557 0.54141 0.0
C1018 C 0.73546 0.79299 0.5567 0.0
C1019 C 0.73261 0.75707 0.55066 0.0
H1020 H 0.08487 0.3681 0.97135 0.0
H1021 H 0.09764 0.26783 0.95903 0.0
H1022 H 0.04683 0.2311 0.99055 0.0
H1023 H 0.06918 0.35368 0.03939 0.0
H1024 H 0.03565 0.37137 0.0396 0.0
H1025 H 0.07392 0.38933 0.01688 0.0
H1026 H 1.02315 0.36943 0.9818 0.0
H1027 H 0.98465 0.35038 1.00437 0.0
H1028 H 0.98469 0.31981 0.97967 0.0
H1029 H 0.98965 0.20364 0.02053 0.0
H1030 H 0.94016 0.19154 0.05259 0.0
H1031 H 0.96873 0.31142 0.04757 0.0
C1032 C 0.07771 0.3388 0.97593 0.0
C1033 C 0.09551 0.32088 0.96327 0.0
C1034 C 0.08493 0.28224 0.96912 0.0
C1035 C 0.05579 0.26107 0.98672 0.0
C1036 C 0.03801 0.27925 0.9985 0.0
C1037 C 0.0494 0.31763 0.99387 0.0
C1038 C 1.02638 0.3307 1.0094 0.0
C1039 C 0.05286 0.36318 0.02739 0.0
C1040 C 1.00336 0.34332 0.99281 0.0
C1041 C 0.99983 0.29358 0.02322 0.0
C1042 C 1.00645 0.264 0.01638 0.0
C1043 C 0.98451 0.22671 0.02617 0.0
C1044 C 0.95613 0.21994 0.0441 0.0
C1045 C 0.95048 0.25046 0.05228 0.0
C1046 C 0.97231 0.28753 0.04144 0.0
H1047 H 0.379 0.08008 0.47621 0.0
H1048 H 0.28239 0.09918 0.46693 0.0
H1049 H 0.24382 0.04561 0.49651 0.0
H1050 H 0.32708 0.9788 0.47999 0.0
H1051 H 0.35659 0.9749 0.5038 0.0
H1052 H 0.37711 1.01568 0.48288 0.0
H1053 H 0.39857 0.06331 0.52011 0.0
H1054 H 0.3792 0.02272 0.54115 0.0
H1055 H 0.36353 0.05784 0.54328 0.0
H1056 H 0.21415 0.98524 0.52449 0.0
H1057 H 0.20033 0.93268 0.55463 0.0
H1058 H 0.31807 0.95673 0.54742 0.0
C1059 C 0.35007 0.07364 0.48099 0.0
C1060 C 0.33378 0.09404 0.46966 0.0
C1061 C 0.29565 0.08446 0.47592 0.0
C1062 C 0.27341 0.05373 0.4924 0.0
C1063 C 0.28999 0.03334 0.50271 0.0
C1064 C 0.32788 0.04372 0.49777 0.0
C1065 C 0.33939 1.01803 0.51164 0.0
C1066 C 0.35071 0.99553 0.49349 0.0
C1067 C 0.3721 0.04189 0.53015 0.0
C1068 C 0.30199 0.99118 0.52498 0.0
C1069 C 0.27354 0.99992 0.51929 0.0
C1070 C 0.23633 0.97837 0.52914 0.0
C1071 C 0.22853 0.9482 0.54595 0.0
C1072 C 0.25798 0.94034 0.55297 0.0
C1073 C 0.29491 0.96181 0.54204 0.0
H1074 H 0.83041 0.77274 0.0484 0.0
H1075 H 0.73412 0.65618 0.05777 0.0
H1076 H 0.69665 0.66964 0.02674 0.0
H1077 H 0.77819 0.82131 0.04062 0.0
H1078 H 0.80862 0.85367 0.0165 0.0
H1079 H 0.8284 0.83491 0.03897 0.0
H1080 H 0.85175 0.8073 1.00358 0.0
H1081 H 0.83292 0.82684 0.98098 0.0
H1082 H 0.81779 0.77603 0.98051 0.0
H1083 H 0.66764 0.69842 0.9976 0.0
H1084 H 0.65412 0.73518 0.96591 0.0
H1085 H 0.77144 0.83059 0.97267 0.0
C1086 C 0.80173 0.74986 0.04347 0.0
C1087 C 0.78513 0.71335 0.05527 0.0
C1088 C 0.74749 0.68412 0.04858 0.0
C1089 C 0.72588 0.69167 0.03122 0.0
C1090 C 0.74269 0.72835 0.02036 0.0
C1091 C 0.78022 0.75655 0.02563 0.0
C1092 C 0.7921 0.79299 0.0106 0.0
C1093 C 0.80243 0.82776 0.0277 0.0
C1094 C 0.82561 0.80126 0.99287 0.0
C1095 C 0.75518 0.78117 0.9964 0.0
C1096 C 0.72676 0.74405 1.00262 0.0
C1097 C 0.68982 0.72735 0.99241 0.0
C1098 C 0.68222 0.74859 0.97468 0.0
C1099 C 0.71164 0.78573 0.96705 0.0
C1100 C 0.74837 0.80231 0.97833 0.0
H1101 H 0.07992 0.26729 0.55287 0.0
H1102 H 0.12231 0.39071 0.5511 0.0
H1103 H 0.07594 0.38093 0.51754 0.0
H1104 H 0.06611 0.25376 0.48428 0.0
H1105 H 1.02408 0.20644 0.4878 0.0
H1106 H 0.06189 0.22405 0.51072 0.0
H1107 H 1.01146 0.21182 0.54508 0.0
H1108 H 0.97372 0.19528 0.52218 0.0
H1109 H 0.98245 0.2346 0.54269 0.0
H1110 H 1.01912 0.3562 0.488 0.0
H1111 H 0.96657 0.32069 0.45752 0.0
H1112 H 0.9659 0.21445 0.47537 0.0
C1113 C 0.08019 0.2923 0.54479 0.0
C1114 C 0.10494 0.32982 0.55417 0.0
C1115 C 0.10413 0.36189 0.54366 0.0
C1116 C 0.07755 0.35652 0.52486 0.0
C1117 C 0.05261 0.31896 0.51651 0.0
C1118 C 0.05465 0.28756 0.5255 0.0
C1119 C 1.02531 0.25037 0.51288 0.0
C1120 C 0.04556 0.23262 0.49803 0.0
C1121 C 0.99654 0.22132 0.53185 0.0
C1122 C 1.00586 0.26559 0.49578 0.0
C1123 C 1.02149 0.30511 0.49851 0.0
C1124 C 1.00703 0.32535 0.48547 0.0
C1125 C 0.97687 0.30491 0.46847 0.0
C1126 C 0.96211 0.26491 0.46438 0.0
C1127 C 0.97656 0.24501 0.47838 0.0
H1128 H 0.64406 0.20789 0.11337 0.0
H1129 H 0.61607 0.08879 0.1242 0.0
H1130 H 0.54739 0.06898 0.12937 0.0
H1131 H 0.57538 0.20588 0.15842 0.0
H1132 H 0.56335 0.23615 0.14006 0.0
H1133 H 0.61054 0.24124 0.13741 0.0
H1134 H 0.60108 0.22996 0.08984 0.0
H1135 H 0.5539 0.22488 0.09237 0.0
H1136 H 0.55943 0.18689 0.07833 0.0
H1137 H 0.48135 0.06143 0.13185 0.0
H1138 H 0.42276 0.06715 0.13294 0.0
H1139 H 0.49321 0.19129 0.12159 0.0
C1140 C 0.62344 0.17766 0.11681 0.0
C1141 C 0.63556 0.14993 0.11852 0.0
C1142 C 0.60765 0.11067 0.12319 0.0
C1143 C 0.5685 0.09907 0.12602 0.0
C1144 C 0.55754 0.12706 0.12428 0.0
C1145 C 0.58416 0.16558 0.11992 0.0
C1146 C 0.56461 0.18979 0.119 0.0
C1147 C 0.57935 0.22005 0.13998 0.0
C1148 C 0.57008 0.209 0.09336 0.0
C1149 C 0.52286 0.15878 0.1233 0.0
C1150 C 0.51944 0.1228 0.12621 0.0
C1151 C 0.4837 0.08951 0.12975 0.0
C1152 C 0.45054 0.09305 0.1303 0.0
C1153 C 0.45326 0.12966 0.12751 0.0
C1154 C 0.49008 0.16292 0.12406 0.0
H1155 H 0.73317 0.55474 0.40456 0.0
H1156 H 0.68243 0.6282 0.39663 0.0
H1157 H 0.61735 0.5704 0.39911 0.0
H1158 H 0.66313 0.47495 0.36811 0.0
H1159 H 0.6632 0.43846 0.38784 0.0
H1160 H 0.70579 0.48556 0.38547 0.0
H1161 H 0.70616 0.4934 0.43333 0.0
H1162 H 0.66357 0.44632 0.43587 0.0
H1163 H 0.66374 0.48814 0.44873 0.0
H1164 H 0.55762 0.50436 0.4019 0.0
H1165 H 0.50776 0.4355 0.40596 0.0
H1166 H 0.5971 0.4047 0.41249 0.0
C1167 C 0.70843 0.55881 0.40333 0.0
C1168 C 0.7131 0.59624 0.40034 0.0
C1169 C 0.67979 0.6 0.39893 0.0
C1170 C 0.64264 0.56728 0.4003 0.0
C1171 C 0.63914 0.53089 0.40318 0.0
C1172 C 0.67114 0.52648 0.40478 0.0
C1173 C 0.65944 0.48416 0.40804 0.0
C1174 C 0.67374 0.46995 0.38605 0.0
C1175 C 0.6741 0.47764 0.43298 0.0
C1176 C 0.61581 0.46539 0.40797 0.0
C1177 C 0.60474 0.49289 0.40505 0.0
C1178 C 0.566 0.48262 0.40416 0.0
C1179 C 0.53785 0.44332 0.40632 0.0
C1180 C 0.54836 0.41448 0.40941 0.0
C1181 C 0.58802 0.42594 0.41032 0.0
H1182 H 0.85958 0.32031 0.1057 0.0
H1183 H 0.95656 0.36172 0.15643 0.0
H1184 H 0.95726 0.42386 0.16046 0.0
H1185 H 0.8919 0.40903 0.0736 0.0
H1186 H 0.84431 0.40264 0.07 0.0
H1187 H 0.85041 0.36099 0.07214 0.0
H1188 H 0.8027 0.33514 0.10932 0.0
H1189 H 0.7964 0.37672 0.1073 0.0
H1190 H 0.81149 0.36552 0.13619 0.0
H1191 H 0.94794 0.48231 0.15809 0.0
H1192 H 0.93096 0.53254 0.14846 0.0
H1193 H 0.84033 0.45232 0.09919 0.0
C1194 C 0.88088 0.34224 0.11783 0.0
C1195 C 0.90799 0.33595 0.13081 0.0
C1196 C 0.93548 0.36574 0.14629 0.0
C1197 C 0.93605 0.40112 0.14874 0.0
C1198 C 0.90897 0.40632 0.13558 0.0
C1199 C 0.88195 0.37766 0.12039 0.0
C1200 C 0.85674 0.39074 0.10762 0.0
C1201 C 0.86113 0.39086 0.07916 0.0
C1202 C 0.81432 0.36553 0.11559 0.0
C1203 C 0.874 0.43147 0.11776 0.0
C1204 C 0.90389 0.43986 0.13401 0.0
C1205 C 0.92446 0.47594 0.14548 0.0
C1206 C 0.91445 0.50423 0.14001 0.0
C1207 C 0.88428 0.49643 0.12309 0.0
C1208 C 0.86373 0.45936 0.11203 0.0
H1209 H 0.49667 0.19304 0.41507 0.0
H1210 H 0.44103 0.09413 0.36541 0.0
H1211 H 0.50314 0.09567 0.36005 0.0
H1212 H 0.58858 0.24301 0.38264 0.0
H1213 H 0.61596 0.25953 0.41104 0.0
H1214 H 0.56762 0.25176 0.40985 0.0
H1215 H 0.54827 0.20497 0.44747 0.0
H1216 H 0.59649 0.21258 0.4488 0.0
H1217 H 0.55594 0.16417 0.44596 0.0
H1218 H 0.5713 0.10688 0.36139 0.0
H1219 H 0.63886 0.12529 0.37047 0.0
H1220 H 0.64911 0.21681 0.41912 0.0
C1221 C 0.49742 0.1718 0.40288 0.0
C1222 C 0.46384 0.14347 0.39063 0.0
C1223 C 0.46629 0.11613 0.37502 0.0
C1224 C 0.50148 0.11684 0.37179 0.0
C1225 C 0.53394 0.14508 0.38427 0.0
C1226 C 0.53215 0.17203 0.39952 0.0
C1227 C 0.57069 0.19849 0.41161 0.0
C1228 C 0.58665 0.24069 0.40328 0.0
C1229 C 0.56765 0.19481 0.44015 0.0
C1230 C 0.59442 0.18189 0.40109 0.0
C1231 C 0.57287 0.15134 0.38518 0.0
C1232 C 0.58849 0.13094 0.37368 0.0
C1233 C 0.62697 0.14175 0.37883 0.0
C1234 C 0.64932 0.17252 0.39548 0.0
C1235 C 0.63274 0.193 0.40646 0.0
H1236 H 0.59302 0.39967 0.11714 0.0
H1237 H 0.50223 0.428 0.12629 0.0
H1238 H 0.55128 0.49718 0.13024 0.0
H1239 H 0.66057 0.47134 0.16063 0.0
H1240 H 0.70229 0.4821 0.14202 0.0
H1241 H 0.66004 0.43461 0.14079 0.0
H1242 H 0.65713 0.44081 0.09294 0.0
H1243 H 0.69932 0.48831 0.09404 0.0
H1244 H 0.65555 0.48172 0.08007 0.0
H1245 H 0.61019 0.56381 0.13109 0.0
H1246 H 0.6747 0.62256 0.13038 0.0
H1247 H 0.72713 0.55078 0.12115 0.0
C1248 C 0.58346 0.42042 0.12002 0.0
C1249 C 0.54372 0.40831 0.12152 0.0
C1250 C 0.53247 0.43643 0.12547 0.0
C1251 C 0.56012 0.47586 0.12758 0.0
C1252 C 0.599 0.48681 0.12585 0.0
C1253 C 0.6107 0.45991 0.12231 0.0
C1254 C 0.6543 0.47938 0.12088 0.0
C1255 C 0.67023 0.46606 0.14236 0.0
C1256 C 0.66733 0.47212 0.09547 0.0
C1257 C 0.66523 0.52144 0.12384 0.0
C1258 C 0.63292 0.52513 0.12667 0.0
C1259 C 0.63572 0.56126 0.12907 0.0
C1260 C 0.67252 0.59449 0.12859 0.0
C1261 C 0.70609 0.59141 0.12583 0.0
C1262 C 0.70215 0.55425 0.12351 0.0
H1263 H 0.84935 0.45978 0.40422 0.0
H1264 H 0.96989 0.54982 0.40335 0.0
H1265 H 0.98894 0.50038 0.39727 0.0
H1266 H 0.86182 0.39001 0.43756 0.0
H1267 H 0.82617 0.349 0.42021 0.0
H1268 H 0.82184 0.39159 0.42342 0.0
H1269 H 0.81957 0.39669 0.37546 0.0
H1270 H 0.8238 0.35402 0.37213 0.0
H1271 H 0.85786 0.39838 0.35679 0.0
H1272 H 0.99525 0.44026 0.3933 0.0
H1273 H 0.98766 0.37479 0.391 0.0
H1274 H 0.8632 0.32432 0.39333 0.0
C1275 C 0.87972 0.4692 0.40235 0.0
C1276 C 0.90806 0.50889 0.40446 0.0
C1277 C 0.94755 0.51968 0.40224 0.0
C1278 C 0.95871 0.49177 0.39861 0.0
C1279 C 0.93014 0.45294 0.39705 0.0
C1280 C 0.89143 0.44165 0.3987 0.0
C1281 C 0.86651 0.39792 0.39705 0.0
C1282 C 0.84269 0.38116 0.42099 0.0
C1283 C 0.8404 0.38607 0.37398 0.0
C1284 C 0.89722 0.38643 0.39443 0.0
C1285 C 0.93377 0.41854 0.39443 0.0
C1286 C 0.9667 0.41493 0.39306 0.0
C1287 C 0.96214 0.37758 0.39176 0.0
C1288 C 0.92491 0.3442 0.39177 0.0
C1289 C 0.89216 0.34906 0.39298 0.0
H1290 H 0.17342 0.61369 0.59048 0.0
H1291 H 0.13402 0.62257 0.66419 0.0
H1292 H 0.11836 0.55551 0.67334 0.0
H1293 H 0.10231 0.51394 0.57946 0.0
H1294 H 0.13552 0.50323 0.5635 0.0
H1295 H 0.14275 0.55156 0.56265 0.0
H1296 H 0.21185 0.57885 0.58016 0.0
H1297 H 0.20496 0.53068 0.58082 0.0
H1298 H 0.21867 0.55948 0.60877 0.0
H1299 H 0.10836 0.48654 0.67464 0.0
H1300 H 0.1077 0.42456 0.66819 0.0
H1301 H 0.15345 0.46211 0.59371 0.0
C1302 C 0.16182 0.60178 0.60865 0.0
C1303 C 0.15496 0.62368 0.62656 0.0
C1304 C 0.13914 0.60642 0.64997 0.0
C1305 C 0.13023 0.56829 0.65539 0.0
C1306 C 0.13716 0.5475 0.63723 0.0
C1307 C 0.15271 0.56379 0.61435 0.0
C1308 C 0.15808 0.53578 0.59813 0.0
C1309 C 0.13317 0.52553 0.57454 0.0
C1310 C 0.20093 0.55218 0.5916 0.0
C1311 C 0.1435 0.50132 0.61549 0.0
C1312 C 0.13134 0.50835 0.63795 0.0
C1313 C 0.11767 0.48075 0.65704 0.0
C1314 C 0.11718 0.4455 0.65319 0.0
C1315 C 0.13039 0.43821 0.63046 0.0
C1316 C 0.14302 0.46647 0.61135 0.0
H1317 H 0.31922 0.84971 0.89444 0.0
H1318 H 0.36948 0.97363 0.88367 0.0
H1319 H 0.43462 0.98102 0.88346 0.0
H1320 H 0.38927 0.8557 0.93656 0.0
H1321 H 0.38907 0.81311 0.92513 0.0
H1322 H 0.34648 0.81722 0.92229 0.0
H1323 H 0.3457 0.80631 0.87474 0.0
H1324 H 0.38835 0.80217 0.87739 0.0
H1325 H 0.38792 0.83723 0.85644 0.0
H1326 H 0.49431 0.97514 0.88639 0.0
H1327 H 0.5441 0.95702 0.89354 0.0
H1328 H 0.45463 0.83711 0.90356 0.0
C1329 C 0.34383 0.87839 0.89163 0.0
C1330 C 0.33918 0.91111 0.88886 0.0
C1331 C 0.37228 0.94815 0.88573 0.0
C1332 C 0.40938 0.9526 0.88552 0.0
C1333 C 0.41289 0.91976 0.88853 0.0
C1334 C 0.38098 0.88338 0.89156 0.0
C1335 C 0.3926 0.85306 0.89589 0.0
C1336 C 0.37853 0.83365 0.92149 0.0
C1337 C 0.37776 0.82291 0.87485 0.0
C1338 C 0.43613 0.87811 0.89509 0.0
C1339 C 0.44723 0.91644 0.89062 0.0
C1340 C 0.48593 0.94521 0.88983 0.0
C1341 C 0.514 0.93465 0.89406 0.0
C1342 C 0.50332 0.89565 0.89919 0.0
C1343 C 0.46379 0.86704 0.89934 0.0
H1344 H 0.5843 0.7002 0.59509 0.0
H1345 H 0.62338 0.67996 0.66582 0.0
H1346 H 0.5617 0.6178 0.67003 0.0
H1347 H 0.48843 0.66619 0.61315 0.0
H1348 H 0.4684 0.64524 0.5833 0.0
H1349 H 0.5166 0.68599 0.58521 0.0
H1350 H 0.54295 0.64706 0.56192 0.0
H1351 H 0.49477 0.60616 0.55985 0.0
H1352 H 0.53256 0.60056 0.57383 0.0
H1353 H 0.4929 0.559 0.66705 0.0
H1354 H 0.42543 0.50975 0.657 0.0
H1355 H 0.43313 0.57155 0.58884 0.0
C1356 C 0.58038 0.6826 0.61137 0.0
C1357 C 0.6089 0.69495 0.63008 0.0
C1358 C 0.60212 0.67099 0.65114 0.0
C1359 C 0.56713 0.63569 0.6537 0.0
C1360 C 0.53936 0.62483 0.63502 0.0
C1361 C 0.54586 0.64767 0.61423 0.0
C1362 C 0.51117 0.63091 0.59723 0.0
C1363 C 0.49522 0.65874 0.59458 0.0
C1364 C 0.52096 0.62055 0.5717 0.0
C1365 C 0.48378 0.59502 0.61169 0.0
C1366 C 0.50039 0.59176 0.63341 0.0
C1367 C 0.47981 0.56126 0.65001 0.0
C1368 C 0.44141 0.53354 0.64422 0.0
C1369 C 0.42393 0.53649 0.62202 0.0
C1370 C 0.44572 0.56778 0.60567 0.0
H1371 H 0.20618 0.63619 0.91768 0.0
H1372 H 0.12109 0.62562 0.86364 0.0
H1373 H 0.10594 0.55877 0.85421 0.0
H1374 H 0.24057 0.58031 0.88325 0.0
H1375 H 0.24648 0.55851 0.91102 0.0
H1376 H 0.25189 0.60611 0.91238 0.0
H1377 H 0.19992 0.58279 0.94712 0.0
H1378 H 0.1942 0.53511 0.94576 0.0
H1379 H 0.15294 0.54128 0.9416 0.0
H1380 H 0.09849 0.49191 0.85192 0.0
H1381 H 0.09954 0.43081 0.85695 0.0
H1382 H 0.18961 0.48605 0.91254 0.0
C1383 C 0.18489 0.62011 0.90351 0.0
C1384 C 0.1649 0.63615 0.89133 0.0
C1385 C 0.13658 0.61379 0.87332 0.0
C1386 C 0.12791 0.57588 0.86776 0.0
C1387 C 0.14782 0.56077 0.88036 0.0
C1388 C 0.17581 0.58226 0.89781 0.0
C1389 C 0.19201 0.55888 0.90943 0.0
C1390 C 0.2353 0.57703 0.90367 0.0
C1391 C 0.18429 0.55424 0.93764 0.0
C1392 C 0.16854 0.52078 0.89597 0.0
C1393 C 0.14332 0.5224 0.87919 0.0
C1394 C 0.11826 0.49036 0.86494 0.0
C1395 C 0.11903 0.45576 0.86795 0.0
C1396 C 0.14458 0.45348 0.88516 0.0
C1397 C 0.16966 0.48663 0.89922 0.0
H1398 H 0.32314 0.84282 0.61064 0.0
H1399 H 0.37089 0.95202 0.65039 0.0
H1400 H 0.43424 0.95548 0.6518 0.0
H1401 H 0.37674 0.80547 0.64341 0.0
H1402 H 0.3829 0.78309 0.61598 0.0
H1403 H 0.34114 0.78869 0.61902 0.0
H1404 H 0.35789 0.82558 0.57703 0.0
H1405 H 0.39974 0.82022 0.57387 0.0
H1406 H 0.40488 0.86775 0.57275 0.0
H1407 H 0.49343 0.94799 0.6473 0.0
H1408 H 0.54251 0.92922 0.63837 0.0
H1409 H 0.4555 0.82548 0.60121 0.0
C1410 C 0.34674 0.8674 0.61984 0.0
C1411 C 0.34186 0.89716 0.63042 0.0
C1412 C 0.37373 0.92877 0.64219 0.0
C1413 C 0.4099 0.93103 0.64306 0.0
C1414 C 0.41375 0.90139 0.63216 0.0
C1415 C 0.38292 0.87009 0.62089 0.0
C1416 C 0.39464 0.84237 0.61015 0.0
C1417 C 0.37254 0.80255 0.62291 0.0
C1418 C 0.38895 0.83879 0.58177 0.0
C1419 C 0.437 0.8631 0.61693 0.0
C1420 C 0.44754 0.89707 0.62964 0.0
C1421 C 0.48543 0.92138 0.63741 0.0
C1422 C 0.51317 0.9106 0.63211 0.0
C1423 C 0.50295 0.8758 0.61915 0.0
C1424 C 0.46424 0.85193 0.61151 0.0
H1425 H 0.5543 0.72583 0.89857 0.0
H1426 H 0.62942 0.67696 0.89155 0.0
H1427 H 0.57228 0.61106 0.89311 0.0
H1428 H 0.48942 0.65712 0.94217 0.0
H1429 H 0.44719 0.65588 0.92947 0.0
H1430 H 0.49369 0.69894 0.92634 0.0
H1431 H 0.48503 0.69697 0.87852 0.0
H1432 H 0.43846 0.65386 0.88147 0.0
H1433 H 0.47479 0.65383 0.86161 0.0
H1434 H 0.50669 0.55032 0.89677 0.0
H1435 H 0.43868 0.49985 0.90299 0.0
H1436 H 0.40652 0.58857 0.90853 0.0
C1437 C 0.5589 0.70137 0.89707 0.0
C1438 C 0.59658 0.70676 0.89477 0.0
C1439 C 0.601 0.67373 0.89322 0.0
C1440 C 0.56865 0.63615 0.89407 0.0
C1441 C 0.53202 0.63199 0.89651 0.0
C1442 C 0.52702 0.66375 0.898 0.0
C1443 C 0.48479 0.65152 0.90152 0.0
C1444 C 0.47842 0.66677 0.92635 0.0
C1445 C 0.4699 0.66484 0.87946 0.0
C1446 C 0.46668 0.60782 0.90193 0.0
C1447 C 0.49442 0.59716 0.8989 0.0
C1448 C 0.48481 0.55842 0.89916 0.0
C1449 C 0.44603 0.52993 0.90286 0.0
C1450 C 0.41706 0.54008 0.90641 0.0
C1451 C 0.42773 0.57969 0.90562 0.0
loop_
_geom_bond_atom_site_label_1
_geom_bond_atom_site_label_2
_geom_bond_distance
_geom_bond_site_symmetry_2
_ccdc_geom_bond_type
Tb0 C9 2.764 . S
Tb0 O10 2.325 . S
Tb0 O13 2.303 . S
Tb0 O17 2.322 . S
Tb0 O18 2.349 . S
Tb0 O21 2.415 . S
Tb0 O22 2.399 . S
Tb1 O11 2.322 . S
Tb1 O12 2.349 . S
Tb1 O14 2.415 . S
Tb1 O15 2.399 . S
Tb1 O16 2.325 . S
Tb1 O19 2.303 . S
Tb1 C30 2.764 . S
C2 O18 1.261 . S
C2 O19 1.257 . S
C3 C6 1.358 . S
C3 C7 1.332 . S
C3 C9 1.504 1_565 S
C4 C5 1.373 . S
C4 C8 1.308 . S
C5 C4 1.373 . S
C5 C6 1.429 . S
C5 H32 0.932 . S
C6 C3 1.358 . S
C6 C5 1.429 . S
C6 H33 0.930 . S
C7 C3 1.332 . S
C7 C8 1.394 . S
C7 H34 0.932 . S
C8 C4 1.308 . S
C8 C7 1.394 . S
C8 H35 0.929 . S
C9 Tb0 2.764 . S
C9 C3 1.504 1_545 S
C9 O21 1.239 . S
C9 O22 1.263 . S
O10 Tb0 2.325 . S
O10 C20 1.236 . S
O11 Tb1 2.322 . S
O11 C20 1.257 . S
O12 Tb1 2.349 . S
O12 C23 1.261 . S
O13 Tb0 2.303 . S
O13 C23 1.257 . S
O14 Tb1 2.415 . S
O14 C30 1.239 . S
O15 Tb1 2.399 . S
O15 C30 1.263 . S
O16 Tb1 2.325 . S
O16 C31 1.236 . S
O17 Tb0 2.322 . S
O17 C31 1.257 . S
O18 Tb0 2.349 . S
O18 C2 1.261 . S
O19 Tb1 2.303 . S
O19 C2 1.257 . S
C20 O10 1.236 . S
C20 O11 1.257 . S
O21 Tb0 2.415 . S
O21 C9 1.239 . S
O22 Tb0 2.399 . S
O22 C9 1.263 . S
C23 O12 1.261 . S
C23 O13 1.257 . S
C24 C27 1.358 . S
C24 C28 1.332 . S
C24 C30 1.504 . S
C25 C26 1.373 . S
C25 C29 1.308 . S
C26 C25 1.373 . S
C26 C27 1.429 . S
C26 H36 0.932 . S
C27 C24 1.358 . S
C27 C26 1.429 . S
C27 H37 0.930 . S
C28 C24 1.332 . S
C28 C29 1.394 . S
C28 H38 0.932 . S
C29 C25 1.308 . S
C29 C28 1.394 . S
C29 H39 0.929 . S
C30 Tb1 2.764 . S
C30 O14 1.239 . S
C30 O15 1.263 . S
C30 C24 1.504 . S
C31 O16 1.236 . S
C31 O17 1.257 . S
H32 C5 0.932 . S
H33 C6 0.930 . S
H34 C7 0.932 . S
H35 C8 0.929 . S
H36 C26 0.932 . S
H37 C27 0.930 . S
H38 C28 0.932 . S
H39 C29 0.929 . S
Tb40 C49 2.764 . S
Tb40 O50 2.325 . S
Tb40 O53 2.303 . S
Tb40 O57 2.322 . S
Tb40 O58 2.349 . S
Tb40 O61 2.415 . S
Tb40 O62 2.399 . S
Tb41 O51 2.322 . S
Tb41 O52 2.349 . S
Tb41 O54 2.415 . S
Tb41 O55 2.399 . S
Tb41 O56 2.325 . S
Tb41 O59 2.303 . S
Tb41 C70 2.764 . S
C42 O58 1.261 . S
C42 O59 1.257 . S
C43 C46 1.358 . S
C43 C47 1.332 . S
C43 C49 1.504 . S
C44 C45 1.373 . S
C44 C48 1.308 . S
C45 C44 1.373 . S
C45 C46 1.429 . S
C45 H72 0.932 . S
C46 C43 1.358 . S
C46 C45 1.429 . S
C46 H73 0.930 . S
C47 C43 1.332 . S
C47 C48 1.394 . S
C47 H74 0.932 . S
C48 C44 1.308 . S
C48 C47 1.394 . S
C48 H75 0.929 . S
C49 Tb40 2.764 . S
C49 C43 1.504 . S
C49 O61 1.239 . S
C49 O62 1.263 . S
O50 Tb40 2.325 . S
O50 C60 1.236 . S
O51 Tb41 2.322 . S
O51 C60 1.257 . S
O52 Tb41 2.349 . S
O52 C63 1.261 . S
O53 Tb40 2.303 . S
O53 C63 1.257 . S
O54 Tb41 2.415 . S
O54 C70 1.239 . S
O55 Tb41 2.399 . S
O55 C70 1.263 . S
O56 Tb41 2.325 . S
O56 C71 1.236 . S
O57 Tb40 2.322 . S
O57 C71 1.257 . S
O58 Tb40 2.349 . S
O58 C42 1.261 . S
O59 Tb41 2.303 . S
O59 C42 1.257 . S
C60 O50 1.236 . S
C60 O51 1.257 . S
O61 Tb40 2.415 . S
O61 C49 1.239 . S
O62 Tb40 2.399 . S
O62 C49 1.263 . S
C63 O52 1.261 . S
C63 O53 1.257 . S
C64 C67 1.358 . S
C64 C68 1.332 . S
C64 C70 1.504 . S
C65 C66 1.373 . S
C65 C69 1.308 . S
C66 C65 1.373 . S
C66 C67 1.429 . S
C66 H76 0.932 . S
C67 C64 1.358 . S
C67 C66 1.429 . S
C67 H77 0.930 . S
C68 C64 1.332 . S
C68 C69 1.394 . S
C68 H78 0.932 . S
C69 C65 1.308 . S
C69 C68 1.394 . S
C69 H79 0.929 . S
C70 Tb41 2.764 . S
C70 O54 1.239 . S
C70 O55 1.263 . S
C70 C64 1.504 . S
C71 O56 1.236 . S
C71 O57 1.257 . S
H72 C45 0.932 . S
H73 C46 0.930 . S
H74 C47 0.932 . S
H75 C48 0.929 . S
H76 C66 0.932 . S
H77 C67 0.930 . S
H78 C68 0.932 . S
H79 C69 0.929 . S
Tb80 C89 2.764 . S
Tb80 O90 2.325 . S
Tb80 O93 2.303 . S
Tb80 O97 2.322 . S
Tb80 O98 2.349 . S
Tb80 O101 2.415 . S
Tb80 O102 2.399 . S
Tb81 O91 2.322 . S
Tb81 O92 2.349 . S
Tb81 O94 2.415 . S
Tb81 O95 2.399 . S
Tb81 O96 2.325 . S
Tb81 O99 2.303 . S
Tb81 C110 2.764 . S
C82 O98 1.261 . S
C82 O99 1.257 . S
C83 C86 1.358 . S
C83 C87 1.332 . S
C83 C89 1.504 1_455 S
C84 C85 1.373 . S
C84 C88 1.308 . S
C85 C84 1.373 . S
C85 C86 1.429 . S
C85 H112 0.932 . S
C86 C83 1.358 . S
C86 C85 1.429 . S
C86 H113 0.930 . S
C87 C83 1.332 . S
C87 C88 1.394 . S
C87 H114 0.932 . S
C88 C84 1.308 . S
C88 C87 1.394 . S
C88 H115 0.929 . S
C89 Tb80 2.764 . S
C89 C83 1.504 1_655 S
C89 O101 1.239 . S
C89 O102 1.263 . S
O90 Tb80 2.325 . S
O90 C100 1.236 . S
O91 Tb81 2.322 . S
O91 C100 1.257 . S
O92 Tb81 2.349 . S
O92 C103 1.261 . S
O93 Tb80 2.303 . S
O93 C103 1.257 . S
O94 Tb81 2.415 . S
O94 C110 1.239 . S
O95 Tb81 2.399 . S
O95 C110 1.263 . S
O96 Tb81 2.325 . S
O96 C111 1.236 . S
O97 Tb80 2.322 . S
O97 C111 1.257 . S
O98 Tb80 2.349 . S
O98 C82 1.261 . S
O99 Tb81 2.303 . S
O99 C82 1.257 . S
C100 O90 1.236 . S
C100 O91 1.257 . S
O101 Tb80 2.415 . S
O101 C89 1.239 . S
O102 Tb80 2.399 . S
O102 C89 1.263 . S
C103 O92 1.261 . S
C103 O93 1.257 . S
C104 C107 1.358 . S
C104 C108 1.332 . S
C104 C110 1.504 . S
C105 C106 1.373 . S
C105 C109 1.308 . S
C106 C105 1.373 . S
C106 C107 1.429 . S
C106 H116 0.932 . S
C107 C104 1.358 . S
C107 C106 1.429 . S
C107 H117 0.930 . S
C108 C104 1.332 . S
C108 C109 1.394 . S
C108 H118 0.932 . S
C109 C105 1.308 . S
C109 C108 1.394 . S
C109 H119 0.929 . S
C110 Tb81 2.764 . S
C110 O94 1.239 . S
C110 O95 1.263 . S
C110 C104 1.504 . S
C111 O96 1.236 . S
C111 O97 1.257 . S
H112 C85 0.932 . S
H113 C86 0.930 . S
H114 C87 0.932 . S
H115 C88 0.929 . S
H116 C106 0.932 . S
H117 C107 0.930 . S
H118 C108 0.932 . S
H119 C109 0.929 . S
Tb120 C129 2.764 . S
Tb120 O130 2.325 . S
Tb120 O133 2.303 . S
Tb120 O137 2.322 . S
Tb120 O138 2.349 . S
Tb120 O141 2.415 . S
Tb120 O142 2.399 . S
Tb121 O131 2.322 . S
Tb121 O132 2.349 . S
Tb121 O134 2.415 . S
Tb121 O135 2.399 . S
Tb121 O136 2.325 . S
Tb121 O139 2.303 . S
Tb121 C150 2.764 . S
C122 O138 1.261 . S
C122 O139 1.257 . S
C123 C126 1.358 . S
C123 C127 1.332 . S
C123 C129 1.504 . S
C124 C125 1.373 . S
C124 C128 1.308 . S
C125 C124 1.373 . S
C125 C126 1.429 . S
C125 H152 0.932 . S
C126 C123 1.358 . S
C126 C125 1.429 . S
C126 H153 0.930 . S
C127 C123 1.332 . S
C127 C128 1.394 . S
C127 H154 0.932 . S
C128 C124 1.308 . S
C128 C127 1.394 . S
C128 H155 0.929 . S
C129 Tb120 2.764 . S
C129 C123 1.504 . S
C129 O141 1.239 . S
C129 O142 1.263 . S
O130 Tb120 2.325 . S
O130 C140 1.236 . S
O131 Tb121 2.322 . S
O131 C140 1.257 . S
O132 Tb121 2.349 . S
O132 C143 1.261 . S
O133 Tb120 2.303 . S
O133 C143 1.257 . S
O134 Tb121 2.415 . S
O134 C150 1.239 . S
O135 Tb121 2.399 . S
O135 C150 1.263 . S
O136 Tb121 2.325 . S
O136 C151 1.236 . S
O137 Tb120 2.322 . S
O137 C151 1.257 . S
O138 Tb120 2.349 . S
O138 C122 1.261 . S
O139 Tb121 2.303 . S
O139 C122 1.257 . S
C140 O130 1.236 . S
C140 O131 1.257 . S
O141 Tb120 2.415 . S
O141 C129 1.239 . S
O142 Tb120 2.399 . S
O142 C129 1.263 . S
C143 O132 1.261 . S
C143 O133 1.257 . S
C144 C147 1.358 . S
C144 C148 1.332 . S
C144 C150 1.504 1_565 S
C145 C146 1.373 . S
C145 C149 1.308 . S
C146 C145 1.373 . S
C146 C147 1.429 . S
C146 H156 0.932 . S
C147 C144 1.358 . S
C147 C146 1.429 . S
C147 H157 0.930 . S
C148 C144 1.332 . S
C148 C149 1.394 . S
C148 H158 0.932 . S
C149 C145 1.308 . S
C149 C148 1.394 . S
C149 H159 0.929 . S
C150 Tb121 2.764 . S
C150 O134 1.239 . S
C150 O135 1.263 . S
C150 C144 1.504 1_545 S
C151 O136 1.236 . S
C151 O137 1.257 . S
H152 C125 0.932 . S
H153 C126 0.930 . S
H154 C127 0.932 . S
H155 C128 0.929 . S
H156 C146 0.932 . S
H157 C147 0.930 . S
H158 C148 0.932 . S
H159 C149 0.929 . S
Tb160 C169 2.764 . S
Tb160 O170 2.325 . S
Tb160 O173 2.303 . S
Tb160 O177 2.322 . S
Tb160 O178 2.349 . S
Tb160 O181 2.415 . S
Tb160 O182 2.399 . S
Tb161 O171 2.322 . S
Tb161 O172 2.349 . S
Tb161 O174 2.415 . S
Tb161 O175 2.399 . S
Tb161 O176 2.325 . S
Tb161 O179 2.303 . S
Tb161 C190 2.764 . S
C162 O178 1.261 . S
C162 O179 1.257 . S
C163 C166 1.358 . S
C163 C167 1.332 . S
C163 C169 1.504 . S
C164 C165 1.373 . S
C164 C168 1.308 . S
C165 C164 1.373 . S
C165 C166 1.429 . S
C165 H192 0.932 . S
C166 C163 1.358 . S
C166 C165 1.429 . S
C166 H193 0.930 . S
C167 C163 1.332 . S
C167 C168 1.394 . S
C167 H194 0.932 . S
C168 C164 1.308 . S
C168 C167 1.394 . S
C168 H195 0.929 . S
C169 Tb160 2.764 . S
C169 C163 1.504 . S
C169 O181 1.239 . S
C169 O182 1.263 . S
O170 Tb160 2.325 . S
O170 C180 1.236 . S
O171 Tb161 2.322 . S
O171 C180 1.257 . S
O172 Tb161 2.349 . S
O172 C183 1.261 . S
O173 Tb160 2.303 . S
O173 C183 1.257 . S
O174 Tb161 2.415 . S
O174 C190 1.239 . S
O175 Tb161 2.399 . S
O175 C190 1.263 . S
O176 Tb161 2.325 . S
O176 C191 1.236 . S
O177 Tb160 2.322 . S
O177 C191 1.257 . S
O178 Tb160 2.349 . S
O178 C162 1.261 . S
O179 Tb161 2.303 . S
O179 C162 1.257 . S
C180 O170 1.236 . S
C180 O171 1.257 . S
O181 Tb160 2.415 . S
O181 C169 1.239 . S
O182 Tb160 2.399 . S
O182 C169 1.263 . S
C183 O172 1.261 . S
C183 O173 1.257 . S
C184 C187 1.358 . S
C184 C188 1.332 . S
C184 C190 1.504 . S
C185 C186 1.373 . S
C185 C189 1.308 . S
C186 C185 1.373 . S
C186 C187 1.429 . S
C186 H196 0.932 . S
C187 C184 1.358 . S
C187 C186 1.429 . S
C187 H197 0.930 . S
C188 C184 1.332 . S
C188 C189 1.394 . S
C188 H198 0.932 . S
C189 C185 1.308 . S
C189 C188 1.394 . S
C189 H199 0.929 . S
C190 Tb161 2.764 . S
C190 O174 1.239 . S
C190 O175 1.263 . S
C190 C184 1.504 . S
C191 O176 1.236 . S
C191 O177 1.257 . S
H192 C165 0.932 . S
H193 C166 0.930 . S
H194 C167 0.932 . S
H195 C168 0.929 . S
H196 C186 0.932 . S
H197 C187 0.930 . S
H198 C188 0.932 . S
H199 C189 0.929 . S
Tb200 C209 2.764 . S
Tb200 O210 2.325 . S
Tb200 O213 2.303 . S
Tb200 O217 2.322 . S
Tb200 O218 2.349 . S
Tb200 O221 2.415 . S
Tb200 O222 2.399 . S
Tb201 O211 2.322 . S
Tb201 O212 2.349 . S
Tb201 O214 2.415 . S
Tb201 O215 2.399 . S
Tb201 O216 2.325 . S
Tb201 O219 2.303 . S
Tb201 C230 2.764 . S
C202 O218 1.261 . S
C202 O219 1.257 . S
C203 C206 1.358 . S
C203 C207 1.332 . S
C203 C209 1.504 . S
C204 C205 1.373 . S
C204 C208 1.308 . S
C205 C204 1.373 . S
C205 C206 1.429 . S
C205 H232 0.932 . S
C206 C203 1.358 . S
C206 C205 1.429 . S
C206 H233 0.930 . S
C207 C203 1.332 . S
C207 C208 1.394 . S
C207 H234 0.932 . S
C208 C204 1.308 . S
C208 C207 1.394 . S
C208 H235 0.929 . S
C209 Tb200 2.764 . S
C209 C203 1.504 . S
C209 O221 1.239 . S
C209 O222 1.263 . S
O210 Tb200 2.325 . S
O210 C220 1.236 . S
O211 Tb201 2.322 . S
O211 C220 1.257 . S
O212 Tb201 2.349 . S
O212 C223 1.261 . S
O213 Tb200 2.303 . S
O213 C223 1.257 . S
O214 Tb201 2.415 . S
O214 C230 1.239 . S
O215 Tb201 2.399 . S
O215 C230 1.263 . S
O216 Tb201 2.325 . S
O216 C231 1.236 . S
O217 Tb200 2.322 . S
O217 C231 1.257 . S
O218 Tb200 2.349 . S
O218 C202 1.261 . S
O219 Tb201 2.303 . S
O219 C202 1.257 . S
C220 O210 1.236 . S
C220 O211 1.257 . S
O221 Tb200 2.415 . S
O221 C209 1.239 . S
O222 Tb200 2.399 . S
O222 C209 1.263 . S
C223 O212 1.261 . S
C223 O213 1.257 . S
C224 C227 1.358 . S
C224 C228 1.332 . S
C224 C230 1.504 1_455 S
C225 C226 1.373 . S
C225 C229 1.308 . S
C226 C225 1.373 . S
C226 C227 1.429 . S
C226 H236 0.932 . S
C227 C224 1.358 . S
C227 C226 1.429 . S
C227 H237 0.930 . S
C228 C224 1.332 . S
C228 C229 1.394 . S
C228 H238 0.932 . S
C229 C225 1.308 . S
C229 C228 1.394 . S
C229 H239 0.929 . S
C230 Tb201 2.764 . S
C230 O214 1.239 . S
C230 O215 1.263 . S
C230 C224 1.504 1_655 S
C231 O216 1.236 . S
C231 O217 1.257 . S
H232 C205 0.932 . S
H233 C206 0.930 . S
H234 C207 0.932 . S
H235 C208 0.929 . S
H236 C226 0.932 . S
H237 C227 0.930 . S
H238 C228 0.932 . S
H239 C229 0.929 . S
Tb240 C249 2.764 . S
Tb240 O250 2.325 . S
Tb240 O253 2.303 . S
Tb240 O257 2.322 . S
Tb240 O258 2.349 . S
Tb240 O261 2.415 . S
Tb240 O262 2.399 . S
Tb241 O251 2.322 . S
Tb241 O252 2.349 . S
Tb241 O254 2.415 . S
Tb241 O255 2.399 . S
Tb241 O256 2.325 . S
Tb241 O259 2.303 . S
Tb241 C270 2.764 . S
C242 O258 1.261 . S
C242 O259 1.257 . S
C243 C246 1.358 . S
C243 C247 1.332 . S
C243 C249 1.504 . S
C244 C245 1.373 . S
C244 C248 1.308 . S
C245 C244 1.373 . S
C245 C246 1.429 . S
C245 H272 0.932 . S
C246 C243 1.358 . S
C246 C245 1.429 . S
C246 H273 0.930 . S
C247 C243 1.332 . S
C247 C248 1.394 . S
C247 H274 0.932 . S
C248 C244 1.308 . S
C248 C247 1.394 . S
C248 H275 0.929 . S
C249 Tb240 2.764 . S
C249 C243 1.504 . S
C249 O261 1.239 . S
C249 O262 1.263 . S
O250 Tb240 2.325 . S
O250 C260 1.236 . S
O251 Tb241 2.322 . S
O251 C260 1.257 . S
O252 Tb241 2.349 . S
O252 C263 1.261 . S
O253 Tb240 2.303 . S
O253 C263 1.257 . S
O254 Tb241 2.415 . S
O254 C270 1.239 . S
O255 Tb241 2.399 . S
O255 C270 1.263 . S
O256 Tb241 2.325 . S
O256 C271 1.236 . S
O257 Tb240 2.322 . S
O257 C271 1.257 . S
O258 Tb240 2.349 . S
O258 C242 1.261 . S
O259 Tb241 2.303 . S
O259 C242 1.257 . S
C260 O250 1.236 . S
C260 O251 1.257 . S
O261 Tb240 2.415 . S
O261 C249 1.239 . S
O262 Tb240 2.399 . S
O262 C249 1.263 . S
C263 O252 1.261 . S
C263 O253 1.257 . S
C264 C267 1.358 . S
C264 C268 1.332 . S
C264 C270 1.504 1_655 S
C265 C266 1.373 . S
C265 C269 1.308 . S
C266 C265 1.373 . S
C266 C267 1.429 . S
C266 H276 0.932 . S
C267 C264 1.358 . S
C267 C266 1.429 . S
C267 H277 0.930 . S
C268 C264 1.332 . S
C268 C269 1.394 . S
C268 H278 0.932 . S
C269 C265 1.308 . S
C269 C268 1.394 . S
C269 H279 0.929 . S
C270 Tb241 2.764 . S
C270 O254 1.239 . S
C270 O255 1.263 . S
C270 C264 1.504 1_455 S
C271 O256 1.236 . S
C271 O257 1.257 . S
H272 C245 0.932 . S
H273 C246 0.930 . S
H274 C247 0.932 . S
H275 C248 0.929 . S
H276 C266 0.932 . S
H277 C267 0.930 . S
H278 C268 0.932 . S
H279 C269 0.929 . S
Tb280 C289 2.764 . S
Tb280 O290 2.325 . S
Tb280 O293 2.303 . S
Tb280 O297 2.322 . S
Tb280 O298 2.349 . S
Tb280 O301 2.415 . S
Tb280 O302 2.399 . S
Tb281 O291 2.322 . S
Tb281 O292 2.349 . S
Tb281 O294 2.415 . S
Tb281 O295 2.399 . S
Tb281 O296 2.325 . S
Tb281 O299 2.303 . S
Tb281 C310 2.764 . S
C282 O298 1.261 . S
C282 O299 1.257 . S
C283 C286 1.358 . S
C283 C287 1.332 . S
C283 C289 1.504 1_545 S
C284 C285 1.373 . S
C284 C288 1.308 . S
C285 C284 1.373 . S
C285 C286 1.429 . S
C285 H312 0.932 . S
C286 C283 1.358 . S
C286 C285 1.429 . S
C286 H313 0.930 . S
C287 C283 1.332 . S
C287 C288 1.394 . S
C287 H314 0.932 . S
C288 C284 1.308 . S
C288 C287 1.394 . S
C288 H315 0.929 . S
C289 Tb280 2.764 . S
C289 C283 1.504 1_565 S
C289 O301 1.239 . S
C289 O302 1.263 . S
O290 Tb280 2.325 . S
O290 C300 1.236 . S
O291 Tb281 2.322 . S
O291 C300 1.257 . S
O292 Tb281 2.349 . S
O292 C303 1.261 . S
O293 Tb280 2.303 . S
O293 C303 1.257 . S
O294 Tb281 2.415 . S
O294 C310 1.239 . S
O295 Tb281 2.399 . S
O295 C310 1.263 . S
O296 Tb281 2.325 . S
O296 C311 1.236 . S
O297 Tb280 2.322 . S
O297 C311 1.257 . S
O298 Tb280 2.349 . S
O298 C282 1.261 . S
O299 Tb281 2.303 . S
O299 C282 1.257 . S
C300 O290 1.236 . S
C300 O291 1.257 . S
O301 Tb280 2.415 . S
O301 C289 1.239 . S
O302 Tb280 2.399 . S
O302 C289 1.263 . S
C303 O292 1.261 . S
C303 O293 1.257 . S
C304 C307 1.358 . S
C304 C308 1.332 . S
C304 C310 1.504 . S
C305 C306 1.373 . S
C305 C309 1.308 . S
C306 C305 1.373 . S
C306 C307 1.429 . S
C306 H316 0.932 . S
C307 C304 1.358 . S
C307 C306 1.429 . S
C307 H317 0.930 . S
C308 C304 1.332 . S
C308 C309 1.394 . S
C308 H318 0.932 . S
C309 C305 1.308 . S
C309 C308 1.394 . S
C309 H319 0.929 . S
C310 Tb281 2.764 . S
C310 O294 1.239 . S
C310 O295 1.263 . S
C310 C304 1.504 . S
C311 O296 1.236 . S
C311 O297 1.257 . S
H312 C285 0.932 . S
H313 C286 0.930 . S
H314 C287 0.932 . S
H315 C288 0.929 . S
H316 C306 0.932 . S
H317 C307 0.930 . S
H318 C308 0.932 . S
H319 C309 0.929 . S
Tb320 C329 2.764 . S
Tb320 O330 2.325 . S
Tb320 O333 2.303 . S
Tb320 O337 2.322 . S
Tb320 O338 2.349 . S
Tb320 O341 2.415 . S
Tb320 O342 2.399 . S
Tb321 O331 2.322 . S
Tb321 O332 2.349 . S
Tb321 O334 2.415 . S
Tb321 O335 2.399 . S
Tb321 O336 2.325 . S
Tb321 O339 2.303 . S
Tb321 C350 2.764 . S
C322 O338 1.261 . S
C322 O339 1.257 . S
C323 C326 1.358 . S
C323 C327 1.332 . S
C323 C329 1.504 . S
C324 C325 1.373 . S
C324 C328 1.308 . S
C325 C324 1.373 . S
C325 C326 1.429 . S
C325 H352 0.932 . S
C326 C323 1.358 . S
C326 C325 1.429 . S
C326 H353 0.930 . S
C327 C323 1.332 . S
C327 C328 1.394 . S
C327 H354 0.932 . S
C328 C324 1.308 . S
C328 C327 1.394 . S
C328 H355 0.929 . S
C329 Tb320 2.764 . S
C329 C323 1.504 . S
C329 O341 1.239 . S
C329 O342 1.263 . S
O330 Tb320 2.325 . S
O330 C340 1.236 . S
O331 Tb321 2.322 . S
O331 C340 1.257 . S
O332 Tb321 2.349 . S
O332 C343 1.261 . S
O333 Tb320 2.303 . S
O333 C343 1.257 . S
O334 Tb321 2.415 . S
O334 C350 1.239 . S
O335 Tb321 2.399 . S
O335 C350 1.263 . S
O336 Tb321 2.325 . S
O336 C351 1.236 . S
O337 Tb320 2.322 . S
O337 C351 1.257 . S
O338 Tb320 2.349 . S
O338 C322 1.261 . S
O339 Tb321 2.303 . S
O339 C322 1.257 . S
C340 O330 1.236 . S
C340 O331 1.257 . S
O341 Tb320 2.415 . S
O341 C329 1.239 . S
O342 Tb320 2.399 . S
O342 C329 1.263 . S
C343 O332 1.261 . S
C343 O333 1.257 . S
C344 C347 1.358 . S
C344 C348 1.332 . S
C344 C350 1.504 . S
C345 C346 1.373 . S
C345 C349 1.308 . S
C346 C345 1.373 . S
C346 C347 1.429 . S
C346 H356 0.932 . S
C347 C344 1.358 . S
C347 C346 1.429 . S
C347 H357 0.930 . S
C348 C344 1.332 . S
C348 C349 1.394 . S
C348 H358 0.932 . S
C349 C345 1.308 . S
C349 C348 1.394 . S
C349 H359 0.929 . S
C350 Tb321 2.764 . S
C350 O334 1.239 . S
C350 O335 1.263 . S
C350 C344 1.504 . S
C351 O336 1.236 . S
C351 O337 1.257 . S
H352 C325 0.932 . S
H353 C326 0.930 . S
H354 C327 0.932 . S
H355 C328 0.929 . S
H356 C346 0.932 . S
H357 C347 0.930 . S
H358 C348 0.932 . S
H359 C349 0.929 . S
Tb360 C369 2.764 . S
Tb360 O370 2.325 . S
Tb360 O373 2.303 . S
Tb360 O377 2.322 . S
Tb360 O378 2.349 . S
Tb360 O381 2.415 . S
Tb360 O382 2.399 . S
Tb361 O371 2.322 . S
Tb361 O372 2.349 . S
Tb361 O374 2.415 . S
Tb361 O375 2.399 . S
Tb361 O376 2.325 . S
Tb361 O379 2.303 . S
Tb361 C390 2.764 . S
C362 O378 1.261 . S
C362 O379 1.257 . S
C363 C366 1.358 . S
C363 C367 1.332 . S
C363 C369 1.504 1_655 S
C364 C365 1.373 . S
C364 C368 1.308 . S
C365 C364 1.373 . S
C365 C366 1.429 . S
C365 H392 0.932 . S
C366 C363 1.358 . S
C366 C365 1.429 . S
C366 H393 0.930 . S
C367 C363 1.332 . S
C367 C368 1.394 . S
C367 H394 0.932 . S
C368 C364 1.308 . S
C368 C367 1.394 . S
C368 H395 0.929 . S
C369 Tb360 2.764 . S
C369 C363 1.504 1_455 S
C369 O381 1.239 . S
C369 O382 1.263 . S
O370 Tb360 2.325 . S
O370 C380 1.236 . S
O371 Tb361 2.322 . S
O371 C380 1.257 . S
O372 Tb361 2.349 . S
O372 C383 1.261 . S
O373 Tb360 2.303 . S
O373 C383 1.257 . S
O374 Tb361 2.415 . S
O374 C390 1.239 . S
O375 Tb361 2.399 . S
O375 C390 1.263 . S
O376 Tb361 2.325 . S
O376 C391 1.236 . S
O377 Tb360 2.322 . S
O377 C391 1.257 . S
O378 Tb360 2.349 . S
O378 C362 1.261 . S
O379 Tb361 2.303 . S
O379 C362 1.257 . S
C380 O370 1.236 . S
C380 O371 1.257 . S
O381 Tb360 2.415 . S
O381 C369 1.239 . S
O382 Tb360 2.399 . S
O382 C369 1.263 . S
C383 O372 1.261 . S
C383 O373 1.257 . S
C384 C387 1.358 . S
C384 C388 1.332 . S
C384 C390 1.504 . S
C385 C386 1.373 . S
C385 C389 1.308 . S
C386 C385 1.373 . S
C386 C387 1.429 . S
C386 H396 0.932 . S
C387 C384 1.358 . S
C387 C386 1.429 . S
C387 H397 0.930 . S
C388 C384 1.332 . S
C388 C389 1.394 . S
C388 H398 0.932 . S
C389 C385 1.308 . S
C389 C388 1.394 . S
C389 H399 0.929 . S
C390 Tb361 2.764 . S
C390 O374 1.239 . S
C390 O375 1.263 . S
C390 C384 1.504 . S
C391 O376 1.236 . S
C391 O377 1.257 . S
H392 C365 0.932 . S
H393 C366 0.930 . S
H394 C367 0.932 . S
H395 C368 0.929 . S
H396 C386 0.932 . S
H397 C387 0.930 . S
H398 C388 0.932 . S
H399 C389 0.929 . S
Tb400 C409 2.764 . S
Tb400 O410 2.325 . S
Tb400 O413 2.303 . S
Tb400 O417 2.322 . S
Tb400 O418 2.349 . S
Tb400 O421 2.415 . S
Tb400 O422 2.399 . S
Tb401 O411 2.322 . S
Tb401 O412 2.349 . S
Tb401 O414 2.415 . S
Tb401 O415 2.399 . S
Tb401 O416 2.325 . S
Tb401 O419 2.303 . S
Tb401 C430 2.764 . S
C402 O418 1.261 . S
C402 O419 1.257 . S
C403 C406 1.358 . S
C403 C407 1.332 . S
C403 C409 1.504 . S
C404 C405 1.373 . S
C404 C408 1.308 . S
C405 C404 1.373 . S
C405 C406 1.429 . S
C405 H432 0.932 . S
C406 C403 1.358 . S
C406 C405 1.429 . S
C406 H433 0.930 . S
C407 C403 1.332 . S
C407 C408 1.394 . S
C407 H434 0.932 . S
C408 C404 1.308 . S
C408 C407 1.394 . S
C408 H435 0.929 . S
C409 Tb400 2.764 . S
C409 C403 1.504 . S
C409 O421 1.239 . S
C409 O422 1.263 . S
O410 Tb400 2.325 . S
O410 C420 1.236 . S
O411 Tb401 2.322 . S
O411 C420 1.257 . S
O412 Tb401 2.349 . S
O412 C423 1.261 . S
O413 Tb400 2.303 . S
O413 C423 1.257 . S
O414 Tb401 2.415 . S
O414 C430 1.239 . S
O415 Tb401 2.399 . S
O415 C430 1.263 . S
O416 Tb401 2.325 . S
O416 C431 1.236 . S
O417 Tb400 2.322 . S
O417 C431 1.257 . S
O418 Tb400 2.349 . S
O418 C402 1.261 . S
O419 Tb401 2.303 . S
O419 C402 1.257 . S
C420 O410 1.236 . S
C420 O411 1.257 . S
O421 Tb400 2.415 . S
O421 C409 1.239 . S
O422 Tb400 2.399 . S
O422 C409 1.263 . S
C423 O412 1.261 . S
C423 O413 1.257 . S
C424 C427 1.358 . S
C424 C428 1.332 . S
C424 C430 1.504 1_545 S
C425 C426 1.373 . S
C425 C429 1.308 . S
C426 C425 1.373 . S
C426 C427 1.429 . S
C426 H436 0.932 . S
C427 C424 1.358 . S
C427 C426 1.429 . S
C427 H437 0.930 . S
C428 C424 1.332 . S
C428 C429 1.394 . S
C428 H438 0.932 . S
C429 C425 1.308 . S
C429 C428 1.394 . S
C429 H439 0.929 . S
C430 Tb401 2.764 . S
C430 O414 1.239 . S
C430 O415 1.263 . S
C430 C424 1.504 1_565 S
C431 O416 1.236 . S
C431 O417 1.257 . S
H432 C405 0.932 . S
H433 C406 0.930 . S
H434 C407 0.932 . S
H435 C408 0.929 . S
H436 C426 0.932 . S
H437 C427 0.930 . S
H438 C428 0.932 . S
H439 C429 0.929 . S
Tb440 C449 2.764 . S
Tb440 O450 2.325 . S
Tb440 O453 2.303 . S
Tb440 O457 2.322 . S
Tb440 O458 2.349 . S
Tb440 O461 2.415 . S
Tb440 O462 2.399 . S
Tb441 O451 2.322 . S
Tb441 O452 2.349 . S
Tb441 O454 2.415 . S
Tb441 O455 2.399 . S
Tb441 O456 2.325 . S
Tb441 O459 2.303 . S
Tb441 C470 2.764 . S
C442 O458 1.261 . S
C442 O459 1.257 . S
C443 C446 1.358 . S
C443 C447 1.332 . S
C443 C449 1.504 . S
C444 C445 1.373 . S
C444 C448 1.308 . S
C445 C444 1.373 . S
C445 C446 1.429 . S
C445 H472 0.932 . S
C446 C443 1.358 . S
C446 C445 1.429 . S
C446 H473 0.930 . S
C447 C443 1.332 . S
C447 C448 1.394 . S
C447 H474 0.932 . S
C448 C444 1.308 . S
C448 C447 1.394 . S
C448 H475 0.929 . S
C449 Tb440 2.764 . S
C449 C443 1.504 . S
C449 O461 1.239 . S
C449 O462 1.263 . S
O450 Tb440 2.325 . S
O450 C460 1.236 . S
O451 Tb441 2.322 . S
O451 C460 1.257 . S
O452 Tb441 2.349 . S
O452 C463 1.261 . S
O453 Tb440 2.303 . S
O453 C463 1.257 . S
O454 Tb441 2.415 . S
O454 C470 1.239 . S
O455 Tb441 2.399 . S
O455 C470 1.263 . S
O456 Tb441 2.325 . S
O456 C471 1.236 . S
O457 Tb440 2.322 . S
O457 C471 1.257 . S
O458 Tb440 2.349 . S
O458 C442 1.261 . S
O459 Tb441 2.303 . S
O459 C442 1.257 . S
C460 O450 1.236 . S
C460 O451 1.257 . S
O461 Tb440 2.415 . S
O461 C449 1.239 . S
O462 Tb440 2.399 . S
O462 C449 1.263 . S
C463 O452 1.261 . S
C463 O453 1.257 . S
C464 C467 1.358 . S
C464 C468 1.332 . S
C464 C470 1.504 . S
C465 C466 1.373 . S
C465 C469 1.308 . S
C466 C465 1.373 . S
C466 C467 1.429 . S
C466 H476 0.932 . S
C467 C464 1.358 . S
C467 C466 1.429 . S
C467 H477 0.930 . S
C468 C464 1.332 . S
C468 C469 1.394 . S
C468 H478 0.932 . S
C469 C465 1.308 . S
C469 C468 1.394 . S
C469 H479 0.929 . S
C470 Tb441 2.764 . S
C470 O454 1.239 . S
C470 O455 1.263 . S
C470 C464 1.504 . S
C471 O456 1.236 . S
C471 O457 1.257 . S
H472 C445 0.932 . S
H473 C446 0.930 . S
H474 C447 0.932 . S
H475 C448 0.929 . S
H476 C466 0.932 . S
H477 C467 0.930 . S
H478 C468 0.932 . S
H479 C469 0.929 . S
H480 C492 0.930 . S
H481 C494 0.930 . S
H482 C495 0.930 . S
H483 C499 0.959 . S
H484 C499 0.959 . S
H485 C499 0.961 . S
H486 C500 0.960 . S
H487 C500 0.961 . S
H488 C500 0.959 . S
H489 C503 0.929 . S
H490 C504 0.931 . S
H491 C506 0.930 . S
C492 H480 0.930 . S
C492 C493 1.399 . S
C492 C497 1.399 . S
C493 C492 1.399 . S
C493 C494 1.376 . S
C494 H481 0.930 . S
C494 C493 1.376 . S
C494 C495 1.388 . S
C495 H482 0.930 . S
C495 C494 1.388 . S
C495 C496 1.390 . S
C496 C495 1.390 . S
C496 C497 1.394 . S
C496 C502 1.465 . S
C497 C492 1.399 . S
C497 C496 1.394 . S
C497 C498 1.516 . S
C498 C497 1.516 . S
C498 C499 1.502 . S
C498 C500 1.561 . S
C498 C501 1.526 . S
C499 H483 0.959 . S
C499 H484 0.959 . S
C499 H485 0.961 . S
C499 C498 1.502 . S
C500 H486 0.960 . S
C500 H487 0.961 . S
C500 H488 0.959 . S
C500 C498 1.561 . S
C501 C498 1.526 . S
C501 C502 1.396 . S
C501 C506 1.390 . S
C502 C496 1.465 . S
C502 C501 1.396 . S
C502 C503 1.399 . S
C503 H489 0.929 . S
C503 C502 1.399 . S
C503 C504 1.385 . S
C504 H490 0.931 . S
C504 C503 1.385 . S
C504 C505 1.389 . S
C505 C504 1.389 . S
C505 C506 1.387 . S
C506 H491 0.930 . S
C506 C501 1.390 . S
C506 C505 1.387 . S
H507 C519 0.930 . S
H508 C521 0.930 . S
H509 C522 0.930 . S
H510 C526 0.959 . S
H511 C526 0.959 1_655 S
H512 C526 0.961 . S
H513 C527 0.960 1_455 S
H514 C527 0.961 . S
H515 C527 0.959 . S
H516 C530 0.929 . S
H517 C531 0.931 . S
H518 C533 0.930 . S
C519 H507 0.930 . S
C519 C520 1.399 . S
C519 C524 1.399 . S
C520 C519 1.399 . S
C520 C521 1.376 . S
C521 H508 0.930 . S
C521 C520 1.376 . S
C521 C522 1.388 . S
C522 H509 0.930 . S
C522 C521 1.388 . S
C522 C523 1.390 . S
C523 C522 1.390 . S
C523 C524 1.394 . S
C523 C529 1.465 1_455 S
C524 C519 1.399 . S
C524 C523 1.394 . S
C524 C525 1.516 . S
C525 C524 1.516 . S
C525 C526 1.502 . S
C525 C527 1.561 1_455 S
C525 C528 1.526 1_455 S
C526 H510 0.959 . S
C526 H511 0.959 1_455 S
C526 H512 0.961 . S
C526 C525 1.502 . S
C527 H513 0.960 1_655 S
C527 H514 0.961 . S
C527 H515 0.959 . S
C527 C525 1.561 1_655 S
C528 C525 1.526 1_655 S
C528 C529 1.396 . S
C528 C533 1.390 . S
C529 C523 1.465 1_655 S
C529 C528 1.396 . S
C529 C530 1.399 . S
C530 H516 0.929 . S
C530 C529 1.399 . S
C530 C531 1.385 . S
C531 H517 0.931 . S
C531 C530 1.385 . S
C531 C532 1.389 . S
C532 C531 1.389 . S
C532 C533 1.387 . S
C533 H518 0.930 . S
C533 C528 1.390 . S
C533 C532 1.387 . S
H534 C546 0.930 . S
H535 C548 0.930 . S
H536 C549 0.930 . S
H537 C553 0.959 . S
H538 C553 0.959 . S
H539 C553 0.961 . S
H540 C554 0.960 1_545 S
H541 C554 0.961 . S
H542 C554 0.959 1_545 S
H543 C557 0.929 . S
H544 C558 0.931 . S
H545 C560 0.930 . S
C546 H534 0.930 . S
C546 C547 1.399 . S
C546 C551 1.399 . S
C547 C546 1.399 . S
C547 C548 1.376 . S
C548 H535 0.930 . S
C548 C547 1.376 . S
C548 C549 1.388 . S
C549 H536 0.930 . S
C549 C548 1.388 . S
C549 C550 1.390 . S
C550 C549 1.390 . S
C550 C551 1.394 . S
C550 C556 1.465 1_545 S
C551 C546 1.399 . S
C551 C550 1.394 . S
C551 C552 1.516 1_545 S
C552 C551 1.516 1_565 S
C552 C553 1.502 . S
C552 C554 1.561 . S
C552 C555 1.526 . S
C553 H537 0.959 . S
C553 H538 0.959 . S
C553 H539 0.961 . S
C553 C552 1.502 . S
C554 H540 0.960 1_565 S
C554 H541 0.961 . S
C554 H542 0.959 1_565 S
C554 C552 1.561 . S
C555 C552 1.526 . S
C555 C556 1.396 . S
C555 C560 1.390 . S
C556 C550 1.465 1_565 S
C556 C555 1.396 . S
C556 C557 1.399 . S
C557 H543 0.929 . S
C557 C556 1.399 . S
C557 C558 1.385 . S
C558 H544 0.931 . S
C558 C557 1.385 . S
C558 C559 1.389 . S
C559 C558 1.389 . S
C559 C560 1.387 . S
C560 H545 0.930 . S
C560 C555 1.390 . S
C560 C559 1.387 . S
H561 C573 0.930 . S
H562 C575 0.930 . S
H563 C576 0.930 . S
H564 C580 0.959 . S
H565 C580 0.959 . S
H566 C580 0.961 . S
H567 C581 0.960 . S
H568 C581 0.961 . S
H569 C581 0.959 . S
H570 C584 0.929 . S
H571 C585 0.931 . S
H572 C587 0.930 . S
C573 H561 0.930 . S
C573 C574 1.399 . S
C573 C578 1.399 . S
C574 C573 1.399 . S
C574 C575 1.376 . S
C575 H562 0.930 . S
C575 C574 1.376 . S
C575 C576 1.388 . S
C576 H563 0.930 . S
C576 C575 1.388 . S
C576 C577 1.390 . S
C577 C576 1.390 . S
C577 C578 1.394 . S
C577 C583 1.465 . S
C578 C573 1.399 . S
C578 C577 1.394 . S
C578 C579 1.516 . S
C579 C578 1.516 . S
C579 C580 1.502 . S
C579 C581 1.561 . S
C579 C582 1.526 . S
C580 H564 0.959 . S
C580 H565 0.959 . S
C580 H566 0.961 . S
C580 C579 1.502 . S
C581 H567 0.960 . S
C581 H568 0.961 . S
C581 H569 0.959 . S
C581 C579 1.561 . S
C582 C579 1.526 . S
C582 C583 1.396 . S
C582 C587 1.390 . S
C583 C577 1.465 . S
C583 C582 1.396 . S
C583 C584 1.399 . S
C584 H570 0.929 . S
C584 C583 1.399 . S
C584 C585 1.385 . S
C585 H571 0.931 . S
C585 C584 1.385 . S
C585 C586 1.389 . S
C586 C585 1.389 . S
C586 C587 1.387 . S
C587 H572 0.930 . S
C587 C582 1.390 . S
C587 C586 1.387 . S
H588 C600 0.930 . S
H589 C602 0.930 . S
H590 C603 0.930 . S
H591 C607 0.959 . S
H592 C607 0.959 . S
H593 C607 0.961 1_455 S
H594 C608 0.960 . S
H595 C608 0.961 1_655 S
H596 C608 0.959 . S
H597 C611 0.929 . S
H598 C612 0.931 . S
H599 C614 0.930 . S
C600 H588 0.930 . S
C600 C601 1.399 . S
C600 C605 1.399 . S
C601 C600 1.399 . S
C601 C602 1.376 . S
C602 H589 0.930 . S
C602 C601 1.376 . S
C602 C603 1.388 . S
C603 H590 0.930 . S
C603 C602 1.388 . S
C603 C604 1.390 . S
C604 C603 1.390 . S
C604 C605 1.394 . S
C604 C610 1.465 1_455 S
C605 C600 1.399 . S
C605 C604 1.394 . S
C605 C606 1.516 1_455 S
C606 C605 1.516 1_655 S
C606 C607 1.502 . S
C606 C608 1.561 1_655 S
C606 C609 1.526 . S
C607 H591 0.959 . S
C607 H592 0.959 . S
C607 H593 0.961 1_655 S
C607 C606 1.502 . S
C608 H594 0.960 . S
C608 H595 0.961 1_455 S
C608 H596 0.959 . S
C608 C606 1.561 1_455 S
C609 C606 1.526 . S
C609 C610 1.396 . S
C609 C614 1.390 . S
C610 C604 1.465 1_655 S
C610 C609 1.396 . S
C610 C611 1.399 . S
C611 H597 0.929 . S
C611 C610 1.399 . S
C611 C612 1.385 . S
C612 H598 0.931 . S
C612 C611 1.385 . S
C612 C613 1.389 . S
C613 C612 1.389 . S
C613 C614 1.387 . S
C614 H599 0.930 . S
C614 C609 1.390 . S
C614 C613 1.387 . S
H615 C627 0.930 . S
H616 C629 0.930 . S
H617 C630 0.930 . S
H618 C634 0.959 . S
H619 C634 0.959 . S
H620 C634 0.961 . S
H621 C635 0.960 1_565 S
H622 C635 0.961 . S
H623 C635 0.959 1_565 S
H624 C638 0.929 . S
H625 C639 0.931 . S
H626 C641 0.930 . S
C627 H615 0.930 . S
C627 C628 1.399 . S
C627 C632 1.399 . S
C628 C627 1.399 . S
C628 C629 1.376 . S
C629 H616 0.930 . S
C629 C628 1.376 . S
C629 C630 1.388 . S
C630 H617 0.930 . S
C630 C629 1.388 . S
C630 C631 1.390 . S
C631 C630 1.390 . S
C631 C632 1.394 . S
C631 C637 1.465 1_565 S
C632 C627 1.399 . S
C632 C631 1.394 . S
C632 C633 1.516 1_565 S
C633 C632 1.516 1_545 S
C633 C634 1.502 . S
C633 C635 1.561 . S
C633 C636 1.526 . S
C634 H618 0.959 . S
C634 H619 0.959 . S
C634 H620 0.961 . S
C634 C633 1.502 . S
C635 H621 0.960 1_545 S
C635 H622 0.961 . S
C635 H623 0.959 1_545 S
C635 C633 1.561 . S
C636 C633 1.526 . S
C636 C637 1.396 . S
C636 C641 1.390 . S
C637 C631 1.465 1_545 S
C637 C636 1.396 . S
C637 C638 1.399 . S
C638 H624 0.929 . S
C638 C637 1.399 . S
C638 C639 1.385 . S
C639 H625 0.931 . S
C639 C638 1.385 . S
C639 C640 1.389 . S
C640 C639 1.389 . S
C640 C641 1.387 . S
C641 H626 0.930 . S
C641 C636 1.390 . S
C641 C640 1.387 . S
H642 C654 0.930 . S
H643 C656 0.930 . S
H644 C657 0.930 . S
H645 C661 0.959 . S
H646 C661 0.959 . S
H647 C661 0.961 . S
H648 C662 0.960 . S
H649 C662 0.961 . S
H650 C662 0.959 . S
H651 C665 0.929 . S
H652 C666 0.931 . S
H653 C668 0.930 . S
C654 H642 0.930 . S
C654 C655 1.399 . S
C654 C659 1.399 . S
C655 C654 1.399 . S
C655 C656 1.376 . S
C656 H643 0.930 . S
C656 C655 1.376 . S
C656 C657 1.388 . S
C657 H644 0.930 . S
C657 C656 1.388 . S
C657 C658 1.390 . S
C658 C657 1.390 . S
C658 C659 1.394 . S
C658 C664 1.465 . S
C659 C654 1.399 . S
C659 C658 1.394 . S
C659 C660 1.516 . S
C660 C659 1.516 . S
C660 C661 1.502 . S
C660 C662 1.561 . S
C660 C663 1.526 . S
C661 H645 0.959 . S
C661 H646 0.959 . S
C661 H647 0.961 . S
C661 C660 1.502 . S
C662 H648 0.960 . S
C662 H649 0.961 . S
C662 H650 0.959 . S
C662 C660 1.561 . S
C663 C660 1.526 . S
C663 C664 1.396 . S
C663 C668 1.390 . S
C664 C658 1.465 . S
C664 C663 1.396 . S
C664 C665 1.399 . S
C665 H651 0.929 . S
C665 C664 1.399 . S
C665 C666 1.385 . S
C666 H652 0.931 . S
C666 C665 1.385 . S
C666 C667 1.389 . S
C667 C666 1.389 . S
C667 C668 1.387 . S
C668 H653 0.930 . S
C668 C663 1.390 . S
C668 C667 1.387 . S
H669 C681 0.930 . S
H670 C683 0.930 . S
H671 C684 0.930 . S
H672 C688 0.959 . S
H673 C688 0.959 . S
H674 C688 0.961 . S
H675 C689 0.960 . S
H676 C689 0.961 . S
H677 C689 0.959 . S
H678 C692 0.929 . S
H679 C693 0.931 . S
H680 C695 0.930 . S
C681 H669 0.930 . S
C681 C682 1.399 . S
C681 C686 1.399 . S
C682 C681 1.399 . S
C682 C683 1.376 . S
C683 H670 0.930 . S
C683 C682 1.376 . S
C683 C684 1.388 . S
C684 H671 0.930 . S
C684 C683 1.388 . S
C684 C685 1.390 . S
C685 C684 1.390 . S
C685 C686 1.394 . S
C685 C691 1.465 1_455 S
C686 C681 1.399 . S
C686 C685 1.394 . S
C686 C687 1.516 . S
C687 C686 1.516 . S
C687 C688 1.502 . S
C687 C689 1.561 . S
C687 C690 1.526 1_455 S
C688 H672 0.959 . S
C688 H673 0.959 . S
C688 H674 0.961 . S
C688 C687 1.502 . S
C689 H675 0.960 . S
C689 H676 0.961 . S
C689 H677 0.959 . S
C689 C687 1.561 . S
C690 C687 1.526 1_655 S
C690 C691 1.396 . S
C690 C695 1.390 . S
C691 C685 1.465 1_655 S
C691 C690 1.396 . S
C691 C692 1.399 . S
C692 H678 0.929 . S
C692 C691 1.399 . S
C692 C693 1.385 . S
C693 H679 0.931 . S
C693 C692 1.385 . S
C693 C694 1.389 . S
C694 C693 1.389 . S
C694 C695 1.387 . S
C695 H680 0.930 . S
C695 C690 1.390 . S
C695 C694 1.387 . S
H696 C708 0.930 . S
H697 C710 0.930 . S
H698 C711 0.930 . S
H699 C715 0.959 . S
H700 C715 0.959 1_545 S
H701 C715 0.961 . S
H702 C716 0.960 1_565 S
H703 C716 0.961 . S
H704 C716 0.959 . S
H705 C719 0.929 . S
H706 C720 0.931 . S
H707 C722 0.930 . S
C708 H696 0.930 . S
C708 C709 1.399 . S
C708 C713 1.399 . S
C709 C708 1.399 . S
C709 C710 1.376 . S
C710 H697 0.930 . S
C710 C709 1.376 . S
C710 C711 1.388 . S
C711 H698 0.930 . S
C711 C710 1.388 . S
C711 C712 1.390 . S
C712 C711 1.390 . S
C712 C713 1.394 . S
C712 C718 1.465 1_565 S
C713 C708 1.399 . S
C713 C712 1.394 . S
C713 C714 1.518 . S
C714 C713 1.518 . S
C714 C715 1.504 . S
C714 C716 1.560 1_565 S
C714 C717 1.524 1_565 S
C715 H699 0.959 . S
C715 H700 0.959 1_565 S
C715 H701 0.961 . S
C715 C714 1.504 . S
C716 H702 0.960 1_545 S
C716 H703 0.961 . S
C716 H704 0.959 . S
C716 C714 1.560 1_545 S
C717 C714 1.524 1_545 S
C717 C718 1.396 . S
C717 C722 1.390 . S
C718 C712 1.465 1_545 S
C718 C717 1.396 . S
C718 C719 1.399 . S
C719 H705 0.929 . S
C719 C718 1.399 . S
C719 C720 1.385 . S
C720 H706 0.931 . S
C720 C719 1.385 . S
C720 C721 1.389 . S
C721 C720 1.389 . S
C721 C722 1.387 . S
C722 H707 0.930 . S
C722 C717 1.390 . S
C722 C721 1.387 . S
H723 C735 0.930 . S
H724 C737 0.930 . S
H725 C738 0.930 . S
H726 C742 0.959 . S
H727 C742 0.959 . S
H728 C742 0.961 . S
H729 C743 0.960 . S
H730 C743 0.961 . S
H731 C743 0.959 . S
H732 C746 0.929 . S
H733 C747 0.931 . S
H734 C749 0.930 . S
C735 H723 0.930 . S
C735 C736 1.399 . S
C735 C740 1.399 . S
C736 C735 1.399 . S
C736 C737 1.376 . S
C737 H724 0.930 . S
C737 C736 1.376 . S
C737 C738 1.388 . S
C738 H725 0.930 . S
C738 C737 1.388 . S
C738 C739 1.390 . S
C739 C738 1.390 . S
C739 C740 1.394 . S
C739 C745 1.465 . S
C740 C735 1.399 . S
C740 C739 1.394 . S
C740 C741 1.516 . S
C741 C740 1.516 . S
C741 C742 1.502 . S
C741 C743 1.561 . S
C741 C744 1.526 . S
C742 H726 0.959 . S
C742 H727 0.959 . S
C742 H728 0.961 . S
C742 C741 1.502 . S
C743 H729 0.960 . S
C743 H730 0.961 . S
C743 H731 0.959 . S
C743 C741 1.561 . S
C744 C741 1.526 . S
C744 C745 1.396 . S
C744 C749 1.390 . S
C745 C739 1.465 . S
C745 C744 1.396 . S
C745 C746 1.399 . S
C746 H732 0.929 . S
C746 C745 1.399 . S
C746 C747 1.385 . S
C747 H733 0.931 . S
C747 C746 1.385 . S
C747 C748 1.389 . S
C748 C747 1.389 . S
C748 C749 1.387 . S
C749 H734 0.930 . S
C749 C744 1.390 . S
C749 C748 1.387 . S
H750 C762 0.930 . S
H751 C764 0.930 . S
H752 C765 0.930 . S
H753 C769 0.957 . S
H754 C769 0.959 1_655 S
H755 C769 0.961 . S
H756 C770 0.960 . S
H757 C770 0.961 . S
H758 C770 0.959 . S
H759 C773 0.929 . S
H760 C774 0.931 . S
H761 C776 0.930 . S
C762 H750 0.930 . S
C762 C763 1.399 . S
C762 C767 1.399 . S
C763 C762 1.399 . S
C763 C764 1.376 . S
C764 H751 0.930 . S
C764 C763 1.376 . S
C764 C765 1.388 . S
C765 H752 0.930 . S
C765 C764 1.388 . S
C765 C766 1.390 . S
C766 C765 1.390 . S
C766 C767 1.394 . S
C766 C772 1.465 1_455 S
C767 C762 1.399 . S
C767 C766 1.394 . S
C767 C768 1.516 . S
C768 C767 1.516 . S
C768 C769 1.502 . S
C768 C770 1.561 . S
C768 C771 1.526 1_455 S
C769 H753 0.957 . S
C769 H754 0.959 1_455 S
C769 H755 0.961 . S
C769 C768 1.502 . S
C770 H756 0.960 . S
C770 H757 0.961 . S
C770 H758 0.959 . S
C770 C768 1.561 . S
C771 C768 1.526 1_655 S
C771 C772 1.396 . S
C771 C776 1.390 . S
C772 C766 1.465 1_655 S
C772 C771 1.396 . S
C772 C773 1.399 . S
C773 H759 0.929 . S
C773 C772 1.399 . S
C773 C774 1.385 . S
C774 H760 0.931 . S
C774 C773 1.385 . S
C774 C775 1.389 . S
C775 C774 1.389 . S
C775 C776 1.387 . S
C776 H761 0.930 . S
C776 C771 1.390 . S
C776 C775 1.387 . S
H777 C789 0.930 . S
H778 C791 0.930 . S
H779 C792 0.930 . S
H780 C796 0.951 1_545 S
H781 C796 0.969 . S
H782 C796 0.950 1_545 S
H783 C797 0.966 . S
H784 C797 0.961 . S
H785 C797 0.959 . S
H786 C800 0.929 . S
H787 C801 0.931 . S
H788 C803 0.930 . S
C789 H777 0.930 . S
C789 C790 1.399 . S
C789 C794 1.399 . S
C790 C789 1.399 . S
C790 C791 1.376 . S
C791 H778 0.930 . S
C791 C790 1.376 . S
C791 C792 1.388 . S
C792 H779 0.930 . S
C792 C791 1.388 . S
C792 C793 1.390 . S
C793 C792 1.390 . S
C793 C794 1.394 . S
C793 C799 1.465 1_545 S
C794 C789 1.399 . S
C794 C793 1.394 . S
C794 C795 1.516 1_545 S
C795 C794 1.516 1_565 S
C795 C796 1.512 . S
C795 C797 1.561 . S
C795 C798 1.526 . S
C796 H780 0.951 1_565 S
C796 H781 0.969 . S
C796 H782 0.950 1_565 S
C796 C795 1.512 . S
C797 H783 0.966 . S
C797 H784 0.961 . S
C797 H785 0.959 . S
C797 C795 1.561 . S
C798 C795 1.526 . S
C798 C799 1.396 . S
C798 C803 1.390 . S
C799 C793 1.465 1_565 S
C799 C798 1.396 . S
C799 C800 1.399 . S
C800 H786 0.929 . S
C800 C799 1.399 . S
C800 C801 1.385 . S
C801 H787 0.931 . S
C801 C800 1.385 . S
C801 C802 1.389 . S
C802 C801 1.389 . S
C802 C803 1.387 . S
C803 H788 0.930 . S
C803 C798 1.390 . S
C803 C802 1.387 . S
H804 C816 0.930 . S
H805 C818 0.930 . S
H806 C819 0.930 . S
H807 C823 0.959 . S
H808 C823 0.959 . S
H809 C823 0.961 . S
H810 C824 0.960 . S
H811 C824 0.961 . S
H812 C824 0.959 . S
H813 C827 0.929 . S
H814 C828 0.931 . S
H815 C830 0.930 . S
C816 H804 0.930 . S
C816 C817 1.399 . S
C816 C821 1.399 . S
C817 C816 1.399 . S
C817 C818 1.376 . S
C818 H805 0.930 . S
C818 C817 1.376 . S
C818 C819 1.388 . S
C819 H806 0.930 . S
C819 C818 1.388 . S
C819 C820 1.390 . S
C820 C819 1.390 . S
C820 C821 1.394 . S
C820 C826 1.465 . S
C821 C816 1.399 . S
C821 C820 1.394 . S
C821 C822 1.516 . S
C822 C821 1.516 . S
C822 C823 1.502 . S
C822 C824 1.561 . S
C822 C825 1.526 . S
C823 H807 0.959 . S
C823 H808 0.959 . S
C823 H809 0.961 . S
C823 C822 1.502 . S
C824 H810 0.960 . S
C824 H811 0.961 . S
C824 H812 0.959 . S
C824 C822 1.561 . S
C825 C822 1.526 . S
C825 C826 1.396 . S
C825 C830 1.390 . S
C826 C820 1.465 . S
C826 C825 1.396 . S
C826 C827 1.399 . S
C827 H813 0.929 . S
C827 C826 1.399 . S
C827 C828 1.385 . S
C828 H814 0.931 . S
C828 C827 1.385 . S
C828 C829 1.389 . S
C829 C828 1.389 . S
C829 C830 1.387 . S
C830 H815 0.930 . S
C830 C825 1.390 . S
C830 C829 1.387 . S
H831 C843 0.930 . S
H832 C845 0.930 . S
H833 C846 0.930 . S
H834 C850 0.959 . S
H835 C850 0.959 . S
H836 C850 0.961 . S
H837 C851 0.960 . S
H838 C851 0.961 . S
H839 C851 0.959 . S
H840 C854 0.929 . S
H841 C855 0.931 . S
H842 C857 0.930 . S
C843 H831 0.930 . S
C843 C844 1.399 . S
C843 C848 1.399 . S
C844 C843 1.399 . S
C844 C845 1.376 . S
C845 H832 0.930 . S
C845 C844 1.376 . S
C845 C846 1.388 . S
C846 H833 0.930 . S
C846 C845 1.388 . S
C846 C847 1.390 . S
C847 C846 1.390 . S
C847 C848 1.394 . S
C847 C853 1.465 . S
C848 C843 1.399 . S
C848 C847 1.394 . S
C848 C849 1.516 . S
C849 C848 1.516 . S
C849 C850 1.502 . S
C849 C851 1.561 . S
C849 C852 1.526 . S
C850 H834 0.959 . S
C850 H835 0.959 . S
C850 H836 0.961 . S
C850 C849 1.502 . S
C851 H837 0.960 . S
C851 H838 0.961 . S
C851 H839 0.959 . S
C851 C849 1.561 . S
C852 C849 1.526 . S
C852 C853 1.396 . S
C852 C857 1.390 . S
C853 C847 1.465 . S
C853 C852 1.396 . S
C853 C854 1.399 . S
C854 H840 0.929 . S
C854 C853 1.399 . S
C854 C855 1.385 . S
C855 H841 0.931 . S
C855 C854 1.385 . S
C855 C856 1.389 . S
C856 C855 1.389 . S
C856 C857 1.387 . S
C857 H842 0.930 . S
C857 C852 1.390 . S
C857 C856 1.387 . S
H858 C870 0.930 . S
H859 C872 0.930 . S
H860 C873 0.930 . S
H861 C877 0.959 . S
H862 C877 0.959 . S
H863 C877 0.961 . S
H864 C878 0.960 . S
H865 C878 0.961 . S
H866 C878 0.959 . S
H867 C881 0.929 . S
H868 C882 0.931 . S
H869 C884 0.930 . S
C870 H858 0.930 . S
C870 C871 1.399 . S
C870 C875 1.399 . S
C871 C870 1.399 . S
C871 C872 1.376 . S
C872 H859 0.930 . S
C872 C871 1.376 . S
C872 C873 1.388 . S
C873 H860 0.930 . S
C873 C872 1.388 . S
C873 C874 1.390 . S
C874 C873 1.390 . S
C874 C875 1.394 . S
C874 C880 1.465 . S
C875 C870 1.399 . S
C875 C874 1.394 . S
C875 C876 1.516 . S
C876 C875 1.516 . S
C876 C877 1.502 . S
C876 C878 1.561 . S
C876 C879 1.526 . S
C877 H861 0.959 . S
C877 H862 0.959 . S
C877 H863 0.961 . S
C877 C876 1.502 . S
C878 H864 0.960 . S
C878 H865 0.961 . S
C878 H866 0.959 . S
C878 C876 1.561 . S
C879 C876 1.526 . S
C879 C880 1.396 . S
C879 C884 1.390 . S
C880 C874 1.465 . S
C880 C879 1.396 . S
C880 C881 1.399 . S
C881 H867 0.929 . S
C881 C880 1.399 . S
C881 C882 1.385 . S
C882 H868 0.931 . S
C882 C881 1.385 . S
C882 C883 1.389 . S
C883 C882 1.389 . S
C883 C884 1.387 . S
C884 H869 0.930 . S
C884 C879 1.390 . S
C884 C883 1.387 . S
H885 C897 0.930 . S
H886 C899 0.930 . S
H887 C900 0.930 . S
H888 C904 0.959 . S
H889 C904 0.959 . S
H890 C904 0.961 . S
H891 C905 0.960 . S
H892 C905 0.961 . S
H893 C905 0.959 . S
H894 C908 0.929 . S
H895 C909 0.931 . S
H896 C911 0.930 . S
C897 H885 0.930 . S
C897 C898 1.399 . S
C897 C902 1.399 . S
C898 C897 1.399 . S
C898 C899 1.376 . S
C899 H886 0.930 . S
C899 C898 1.376 . S
C899 C900 1.388 . S
C900 H887 0.930 . S
C900 C899 1.388 . S
C900 C901 1.390 . S
C901 C900 1.390 . S
C901 C902 1.394 . S
C901 C907 1.465 . S
C902 C897 1.399 . S
C902 C901 1.394 . S
C902 C903 1.516 . S
C903 C902 1.516 . S
C903 C904 1.502 . S
C903 C905 1.561 . S
C903 C906 1.526 . S
C904 H888 0.959 . S
C904 H889 0.959 . S
C904 H890 0.961 . S
C904 C903 1.502 . S
C905 H891 0.960 . S
C905 H892 0.961 . S
C905 H893 0.959 . S
C905 C903 1.561 . S
C906 C903 1.526 . S
C906 C907 1.396 . S
C906 C911 1.390 . S
C907 C901 1.465 . S
C907 C906 1.396 . S
C907 C908 1.399 . S
C908 H894 0.929 . S
C908 C907 1.399 . S
C908 C909 1.385 . S
C909 H895 0.931 . S
C909 C908 1.385 . S
C909 C910 1.389 . S
C910 C909 1.389 . S
C910 C911 1.387 . S
C911 H896 0.930 . S
C911 C906 1.390 . S
C911 C910 1.387 . S
H912 C924 0.930 . S
H913 C926 0.930 . S
H914 C927 0.930 . S
H915 C931 0.959 . S
H916 C931 0.959 . S
H917 C931 0.961 . S
H918 C932 0.960 . S
H919 C932 0.961 . S
H920 C932 0.959 . S
H921 C935 0.929 . S
H922 C936 0.931 . S
H923 C938 0.930 . S
C924 H912 0.930 . S
C924 C925 1.399 . S
C924 C929 1.399 . S
C925 C924 1.399 . S
C925 C926 1.376 . S
C926 H913 0.930 . S
C926 C925 1.376 . S
C926 C927 1.388 . S
C927 H914 0.930 . S
C927 C926 1.388 . S
C927 C928 1.390 . S
C928 C927 1.390 . S
C928 C929 1.394 . S
C928 C934 1.465 . S
C929 C924 1.399 . S
C929 C928 1.394 . S
C929 C930 1.516 . S
C930 C929 1.516 . S
C930 C931 1.502 . S
C930 C932 1.561 . S
C930 C933 1.526 . S
C931 H915 0.959 . S
C931 H916 0.959 . S
C931 H917 0.961 . S
C931 C930 1.502 . S
C932 H918 0.960 . S
C932 H919 0.961 . S
C932 H920 0.959 . S
C932 C930 1.561 . S
C933 C930 1.526 . S
C933 C934 1.396 . S
C933 C938 1.390 . S
C934 C928 1.465 . S
C934 C933 1.396 . S
C934 C935 1.399 . S
C935 H921 0.929 . S
C935 C934 1.399 . S
C935 C936 1.385 . S
C936 H922 0.931 . S
C936 C935 1.385 . S
C936 C937 1.389 . S
C937 C936 1.389 . S
C937 C938 1.387 . S
C938 H923 0.930 . S
C938 C933 1.390 . S
C938 C937 1.387 . S
H939 C951 0.930 . S
H940 C953 0.930 . S
H941 C954 0.930 . S
H942 C958 0.959 . S
H943 C958 0.959 . S
H944 C958 0.961 . S
H945 C959 0.960 . S
H946 C959 0.961 . S
H947 C959 0.959 . S
H948 C962 0.929 . S
H949 C963 0.931 . S
H950 C965 0.930 . S
C951 H939 0.930 . S
C951 C952 1.399 . S
C951 C956 1.399 . S
C952 C951 1.399 . S
C952 C953 1.376 . S
C953 H940 0.930 . S
C953 C952 1.376 . S
C953 C954 1.388 . S
C954 H941 0.930 . S
C954 C953 1.388 . S
C954 C955 1.390 . S
C955 C954 1.390 . S
C955 C956 1.394 . S
C955 C961 1.465 . S
C956 C951 1.399 . S
C956 C955 1.394 . S
C956 C957 1.516 . S
C957 C956 1.516 . S
C957 C958 1.502 . S
C957 C959 1.561 . S
C957 C960 1.526 . S
C958 H942 0.959 . S
C958 H943 0.959 . S
C958 H944 0.961 . S
C958 C957 1.502 . S
C959 H945 0.960 . S
C959 H946 0.961 . S
C959 H947 0.959 . S
C959 C957 1.561 . S
C960 C957 1.526 . S
C960 C961 1.396 . S
C960 C965 1.390 . S
C961 C955 1.465 . S
C961 C960 1.396 . S
C961 C962 1.399 . S
C962 H948 0.929 . S
C962 C961 1.399 . S
C962 C963 1.385 . S
C963 H949 0.931 . S
C963 C962 1.385 . S
C963 C964 1.389 . S
C964 C963 1.389 . S
C964 C965 1.387 . S
C965 H950 0.930 . S
C965 C960 1.390 . S
C965 C964 1.387 . S
H966 C978 0.930 . S
H967 C980 0.930 . S
H968 C981 0.930 . S
H969 C985 0.959 . S
H970 C985 0.959 . S
H971 C985 0.961 . S
H972 C986 0.960 . S
H973 C986 0.961 . S
H974 C986 0.959 . S
H975 C989 0.929 1_565 S
H976 C990 0.931 . S
H977 C992 0.930 . S
C978 H966 0.930 . S
C978 C979 1.399 . S
C978 C983 1.399 . S
C979 C978 1.399 . S
C979 C980 1.376 . S
C980 H967 0.930 . S
C980 C979 1.376 . S
C980 C981 1.388 1_556 S
C981 H968 0.930 . S
C981 C980 1.388 1_554 S
C981 C982 1.390 . S
C982 C981 1.390 . S
C982 C983 1.394 1_554 S
C982 C988 1.465 1_565 S
C983 C978 1.399 . S
C983 C982 1.394 1_556 S
C983 C984 1.516 1_565 S
C984 C983 1.516 1_545 S
C984 C985 1.502 . S
C984 C986 1.561 . S
C984 C987 1.526 1_556 S
C985 H969 0.959 . S
C985 H970 0.959 . S
C985 H971 0.961 . S
C985 C984 1.502 . S
C986 H972 0.960 . S
C986 H973 0.961 . S
C986 H974 0.959 . S
C986 C984 1.561 . S
C987 C984 1.526 1_554 S
C987 C988 1.396 . S
C987 C992 1.390 . S
C988 C982 1.465 1_545 S
C988 C987 1.396 . S
C988 C989 1.399 . S
C989 H975 0.929 1_545 S
C989 C988 1.399 . S
C989 C990 1.385 . S
C990 H976 0.931 . S
C990 C989 1.385 . S
C990 C991 1.389 . S
C991 C990 1.389 . S
C991 C992 1.387 . S
C992 H977 0.930 . S
C992 C987 1.390 . S
C992 C991 1.387 . S
H993 C1005 0.930 . S
H994 C1007 0.930 . S
H995 C1008 0.930 . S
H996 C1012 0.959 . S
H997 C1012 0.959 . S
H998 C1012 0.961 . S
H999 C1013 0.960 . S
H1000 C1013 0.961 . S
H1001 C1013 0.959 . S
H1002 C1016 0.929 . S
H1003 C1017 0.931 . S
H1004 C1019 0.930 . S
C1005 H993 0.930 . S
C1005 C1006 1.399 . S
C1005 C1010 1.399 . S
C1006 C1005 1.399 . S
C1006 C1007 1.376 . S
C1007 H994 0.930 . S
C1007 C1006 1.376 . S
C1007 C1008 1.388 . S
C1008 H995 0.930 . S
C1008 C1007 1.388 . S
C1008 C1009 1.390 . S
C1009 C1008 1.390 . S
C1009 C1010 1.394 . S
C1009 C1015 1.465 . S
C1010 C1005 1.399 . S
C1010 C1009 1.394 . S
C1010 C1011 1.516 . S
C1011 C1010 1.516 . S
C1011 C1012 1.502 . S
C1011 C1013 1.561 . S
C1011 C1014 1.526 . S
C1012 H996 0.959 . S
C1012 H997 0.959 . S
C1012 H998 0.961 . S
C1012 C1011 1.502 . S
C1013 H999 0.960 . S
C1013 H1000 0.961 . S
C1013 H1001 0.959 . S
C1013 C1011 1.561 . S
C1014 C1011 1.526 . S
C1014 C1015 1.396 . S
C1014 C1019 1.390 . S
C1015 C1009 1.465 . S
C1015 C1014 1.396 . S
C1015 C1016 1.399 . S
C1016 H1002 0.929 . S
C1016 C1015 1.399 . S
C1016 C1017 1.385 . S
C1017 H1003 0.931 . S
C1017 C1016 1.385 . S
C1017 C1018 1.389 . S
C1018 C1017 1.389 . S
C1018 C1019 1.387 . S
C1019 H1004 0.930 . S
C1019 C1014 1.390 . S
C1019 C1018 1.387 . S
H1020 C1032 0.930 . S
H1021 C1034 0.930 . S
H1022 C1035 0.930 1_655 S
H1023 C1039 0.959 . S
H1024 C1039 0.959 . S
H1025 C1039 0.961 . S
H1026 C1040 0.960 . S
H1027 C1040 0.961 . S
H1028 C1040 0.957 . S
H1029 C1043 0.929 . S
H1030 C1044 0.931 . S
H1031 C1046 0.930 . S
C1032 H1020 0.930 . S
C1032 C1033 1.399 . S
C1032 C1037 1.399 . S
C1033 C1032 1.399 . S
C1033 C1034 1.376 . S
C1034 H1021 0.930 . S
C1034 C1033 1.376 . S
C1034 C1035 1.388 . S
C1035 H1022 0.930 1_455 S
C1035 C1034 1.388 . S
C1035 C1036 1.390 . S
C1036 C1035 1.390 . S
C1036 C1037 1.394 . S
C1036 C1042 1.465 1_455 S
C1037 C1032 1.399 . S
C1037 C1036 1.394 . S
C1037 C1038 1.516 1_556 S
C1038 C1037 1.516 1_554 S
C1038 C1039 1.502 . S
C1038 C1040 1.561 . S
C1038 C1041 1.526 1_455 S
C1039 H1023 0.959 . S
C1039 H1024 0.959 . S
C1039 H1025 0.961 . S
C1039 C1038 1.502 . S
C1040 H1026 0.960 . S
C1040 H1027 0.961 . S
C1040 H1028 0.957 . S
C1040 C1038 1.561 . S
C1041 C1038 1.526 1_655 S
C1041 C1042 1.396 1_554 S
C1041 C1046 1.390 . S
C1042 C1036 1.465 1_655 S
C1042 C1041 1.396 1_556 S
C1042 C1043 1.399 . S
C1043 H1029 0.929 . S
C1043 C1042 1.399 . S
C1043 C1044 1.385 1_556 S
C1044 H1030 0.931 . S
C1044 C1043 1.385 1_554 S
C1044 C1045 1.389 . S
C1045 C1044 1.389 . S
C1045 C1046 1.387 . S
C1046 H1031 0.930 . S
C1046 C1041 1.390 . S
C1046 C1045 1.387 . S
H1047 C1059 0.930 . S
H1048 C1061 0.930 . S
H1049 C1062 0.930 . S
H1050 C1066 0.959 . S
H1051 C1066 0.959 . S
H1052 C1066 0.961 . S
H1053 C1067 0.960 . S
H1054 C1067 0.961 . S
H1055 C1067 0.959 . S
H1056 C1070 0.929 . S
H1057 C1071 0.931 . S
H1058 C1073 0.930 . S
C1059 H1047 0.930 . S
C1059 C1060 1.399 . S
C1059 C1064 1.399 . S
C1060 C1059 1.399 . S
C1060 C1061 1.376 . S
C1061 H1048 0.930 . S
C1061 C1060 1.376 . S
C1061 C1062 1.388 . S
C1062 H1049 0.930 . S
C1062 C1061 1.388 . S
C1062 C1063 1.390 . S
C1063 C1062 1.390 . S
C1063 C1064 1.394 . S
C1063 C1069 1.465 1_545 S
C1064 C1059 1.399 . S
C1064 C1063 1.394 . S
C1064 C1065 1.516 . S
C1065 C1064 1.516 . S
C1065 C1066 1.502 . S
C1065 C1067 1.561 . S
C1065 C1068 1.526 1_545 S
C1066 H1050 0.959 . S
C1066 H1051 0.959 . S
C1066 H1052 0.961 . S
C1066 C1065 1.502 . S
C1067 H1053 0.960 . S
C1067 H1054 0.961 . S
C1067 H1055 0.959 . S
C1067 C1065 1.561 . S
C1068 C1065 1.526 1_565 S
C1068 C1069 1.396 . S
C1068 C1073 1.390 . S
C1069 C1063 1.465 1_565 S
C1069 C1068 1.396 . S
C1069 C1070 1.399 . S
C1070 H1056 0.929 . S
C1070 C1069 1.399 . S
C1070 C1071 1.385 . S
C1071 H1057 0.931 . S
C1071 C1070 1.385 . S
C1071 C1072 1.389 . S
C1072 C1071 1.389 . S
C1072 C1073 1.387 . S
C1073 H1058 0.930 . S
C1073 C1068 1.390 . S
C1073 C1072 1.387 . S
H1074 C1086 0.930 . S
H1075 C1088 0.930 . S
H1076 C1089 0.930 . S
H1077 C1093 0.959 . S
H1078 C1093 0.959 . S
H1079 C1093 0.961 . S
H1080 C1094 0.960 . S
H1081 C1094 0.961 . S
H1082 C1094 0.959 . S
H1083 C1097 0.929 . S
H1084 C1098 0.931 . S
H1085 C1100 0.930 . S
C1086 H1074 0.930 . S
C1086 C1087 1.399 . S
C1086 C1091 1.399 . S
C1087 C1086 1.399 . S
C1087 C1088 1.376 . S
C1088 H1075 0.930 . S
C1088 C1087 1.376 . S
C1088 C1089 1.388 1_554 S
C1089 H1076 0.930 . S
C1089 C1088 1.388 1_556 S
C1089 C1090 1.390 . S
C1090 C1089 1.390 . S
C1090 C1091 1.394 1_556 S
C1090 C1096 1.465 . S
C1091 C1086 1.399 . S
C1091 C1090 1.394 1_554 S
C1091 C1092 1.516 . S
C1092 C1091 1.516 . S
C1092 C1093 1.502 . S
C1092 C1094 1.561 . S
C1092 C1095 1.526 1_554 S
C1093 H1077 0.959 . S
C1093 H1078 0.959 . S
C1093 H1079 0.961 . S
C1093 C1092 1.502 . S
C1094 H1080 0.960 . S
C1094 H1081 0.961 . S
C1094 H1082 0.959 . S
C1094 C1092 1.561 . S
C1095 C1092 1.526 1_556 S
C1095 C1096 1.396 . S
C1095 C1100 1.390 . S
C1096 C1090 1.465 . S
C1096 C1095 1.396 . S
C1096 C1097 1.399 . S
C1097 H1083 0.929 . S
C1097 C1096 1.399 . S
C1097 C1098 1.385 . S
C1098 H1084 0.931 . S
C1098 C1097 1.385 . S
C1098 C1099 1.389 . S
C1099 C1098 1.389 . S
C1099 C1100 1.387 . S
C1100 H1085 0.930 . S
C1100 C1095 1.390 . S
C1100 C1099 1.387 . S
H1101 C1113 0.930 . S
H1102 C1115 0.930 . S
H1103 C1116 0.930 . S
H1104 C1120 0.959 . S
H1105 C1120 0.959 . S
H1106 C1120 0.961 . S
H1107 C1121 0.960 . S
H1108 C1121 0.961 . S
H1109 C1121 0.959 . S
H1110 C1124 0.929 1_455 S
H1111 C1125 0.931 . S
H1112 C1127 0.930 . S
C1113 H1101 0.930 . S
C1113 C1114 1.399 . S
C1113 C1118 1.399 . S
C1114 C1113 1.399 . S
C1114 C1115 1.376 . S
C1115 H1102 0.930 . S
C1115 C1114 1.376 . S
C1115 C1116 1.388 . S
C1116 H1103 0.930 . S
C1116 C1115 1.388 . S
C1116 C1117 1.390 . S
C1117 C1116 1.390 . S
C1117 C1118 1.394 . S
C1117 C1123 1.465 1_455 S
C1118 C1113 1.399 . S
C1118 C1117 1.394 . S
C1118 C1119 1.516 1_455 S
C1119 C1118 1.516 1_655 S
C1119 C1120 1.502 . S
C1119 C1121 1.561 . S
C1119 C1122 1.526 . S
C1120 H1104 0.959 . S
C1120 H1105 0.959 . S
C1120 H1106 0.961 . S
C1120 C1119 1.502 . S
C1121 H1107 0.960 . S
C1121 H1108 0.961 . S
C1121 H1109 0.959 . S
C1121 C1119 1.561 . S
C1122 C1119 1.526 . S
C1122 C1123 1.396 . S
C1122 C1127 1.390 . S
C1123 C1117 1.465 1_655 S
C1123 C1122 1.396 . S
C1123 C1124 1.399 . S
C1124 H1110 0.929 1_655 S
C1124 C1123 1.399 . S
C1124 C1125 1.385 . S
C1125 H1111 0.931 . S
C1125 C1124 1.385 . S
C1125 C1126 1.389 . S
C1126 C1125 1.389 . S
C1126 C1127 1.387 . S
C1127 H1112 0.930 . S
C1127 C1122 1.390 . S
C1127 C1126 1.387 . S
H1128 C1140 0.930 . S
H1129 C1142 0.930 . S
H1130 C1143 0.930 . S
H1131 C1147 0.959 . S
H1132 C1147 0.959 . S
H1133 C1147 0.961 . S
H1134 C1148 0.960 . S
H1135 C1148 0.961 . S
H1136 C1148 0.959 . S
H1137 C1151 0.929 . S
H1138 C1152 0.931 . S
H1139 C1154 0.930 . S
C1140 H1128 0.930 . S
C1140 C1141 1.399 . S
C1140 C1145 1.399 . S
C1141 C1140 1.399 . S
C1141 C1142 1.376 . S
C1142 H1129 0.930 . S
C1142 C1141 1.376 . S
C1142 C1143 1.388 . S
C1143 H1130 0.930 . S
C1143 C1142 1.388 . S
C1143 C1144 1.390 . S
C1144 C1143 1.390 . S
C1144 C1145 1.394 . S
C1144 C1150 1.465 . S
C1145 C1140 1.399 . S
C1145 C1144 1.394 . S
C1145 C1146 1.516 . S
C1146 C1145 1.516 . S
C1146 C1147 1.502 . S
C1146 C1148 1.561 . S
C1146 C1149 1.526 . S
C1147 H1131 0.959 . S
C1147 H1132 0.959 . S
C1147 H1133 0.961 . S
C1147 C1146 1.502 . S
C1148 H1134 0.960 . S
C1148 H1135 0.961 . S
C1148 H1136 0.959 . S
C1148 C1146 1.561 . S
C1149 C1146 1.526 . S
C1149 C1150 1.396 . S
C1149 C1154 1.390 . S
C1150 C1144 1.465 . S
C1150 C1149 1.396 . S
C1150 C1151 1.399 . S
C1151 H1137 0.929 . S
C1151 C1150 1.399 . S
C1151 C1152 1.385 . S
C1152 H1138 0.931 . S
C1152 C1151 1.385 . S
C1152 C1153 1.389 . S
C1153 C1152 1.389 . S
C1153 C1154 1.387 . S
C1154 H1139 0.930 . S
C1154 C1149 1.390 . S
C1154 C1153 1.387 . S
H1155 C1167 0.930 . S
H1156 C1169 0.930 . S
H1157 C1170 0.930 . S
H1158 C1174 0.959 . S
H1159 C1174 0.959 . S
H1160 C1174 0.961 . S
H1161 C1175 0.960 . S
H1162 C1175 0.961 . S
H1163 C1175 0.959 . S
H1164 C1178 0.929 . S
H1165 C1179 0.931 . S
H1166 C1181 0.930 . S
C1167 H1155 0.930 . S
C1167 C1168 1.399 . S
C1167 C1172 1.399 . S
C1168 C1167 1.399 . S
C1168 C1169 1.376 . S
C1169 H1156 0.930 . S
C1169 C1168 1.376 . S
C1169 C1170 1.388 . S
C1170 H1157 0.930 . S
C1170 C1169 1.388 . S
C1170 C1171 1.390 . S
C1171 C1170 1.390 . S
C1171 C1172 1.394 . S
C1171 C1177 1.465 . S
C1172 C1167 1.399 . S
C1172 C1171 1.394 . S
C1172 C1173 1.516 . S
C1173 C1172 1.516 . S
C1173 C1174 1.502 . S
C1173 C1175 1.561 . S
C1173 C1176 1.526 . S
C1174 H1158 0.959 . S
C1174 H1159 0.959 . S
C1174 H1160 0.961 . S
C1174 C1173 1.502 . S
C1175 H1161 0.960 . S
C1175 H1162 0.961 . S
C1175 H1163 0.959 . S
C1175 C1173 1.561 . S
C1176 C1173 1.526 . S
C1176 C1177 1.396 . S
C1176 C1181 1.390 . S
C1177 C1171 1.465 . S
C1177 C1176 1.396 . S
C1177 C1178 1.399 . S
C1178 H1164 0.929 . S
C1178 C1177 1.399 . S
C1178 C1179 1.385 . S
C1179 H1165 0.931 . S
C1179 C1178 1.385 . S
C1179 C1180 1.389 . S
C1180 C1179 1.389 . S
C1180 C1181 1.387 . S
C1181 H1166 0.930 . S
C1181 C1176 1.390 . S
C1181 C1180 1.387 . S
H1182 C1194 0.930 . S
H1183 C1196 0.930 . S
H1184 C1197 0.930 . S
H1185 C1201 0.959 . S
H1186 C1201 0.959 . S
H1187 C1201 0.961 . S
H1188 C1202 0.960 . S
H1189 C1202 0.961 . S
H1190 C1202 0.959 . S
H1191 C1205 0.929 . S
H1192 C1206 0.931 . S
H1193 C1208 0.930 . S
C1194 H1182 0.930 . S
C1194 C1195 1.399 . S
C1194 C1199 1.399 . S
C1195 C1194 1.399 . S
C1195 C1196 1.376 . S
C1196 H1183 0.930 . S
C1196 C1195 1.376 . S
C1196 C1197 1.388 . S
C1197 H1184 0.930 . S
C1197 C1196 1.388 . S
C1197 C1198 1.390 . S
C1198 C1197 1.390 . S
C1198 C1199 1.394 . S
C1198 C1204 1.465 . S
C1199 C1194 1.399 . S
C1199 C1198 1.394 . S
C1199 C1200 1.516 . S
C1200 C1199 1.516 . S
C1200 C1201 1.502 . S
C1200 C1202 1.561 . S
C1200 C1203 1.526 . S
C1201 H1185 0.959 . S
C1201 H1186 0.959 . S
C1201 H1187 0.961 . S
C1201 C1200 1.502 . S
C1202 H1188 0.960 . S
C1202 H1189 0.961 . S
C1202 H1190 0.959 . S
C1202 C1200 1.561 . S
C1203 C1200 1.526 . S
C1203 C1204 1.396 . S
C1203 C1208 1.390 . S
C1204 C1198 1.465 . S
C1204 C1203 1.396 . S
C1204 C1205 1.399 . S
C1205 H1191 0.929 . S
C1205 C1204 1.399 . S
C1205 C1206 1.385 . S
C1206 H1192 0.931 . S
C1206 C1205 1.385 . S
C1206 C1207 1.389 . S
C1207 C1206 1.389 . S
C1207 C1208 1.387 . S
C1208 H1193 0.930 . S
C1208 C1203 1.390 . S
C1208 C1207 1.387 . S
H1209 C1221 0.930 . S
H1210 C1223 0.930 . S
H1211 C1224 0.930 . S
H1212 C1228 0.959 . S
H1213 C1228 0.959 . S
H1214 C1228 0.961 . S
H1215 C1229 0.960 . S
H1216 C1229 0.961 . S
H1217 C1229 0.959 . S
H1218 C1232 0.929 . S
H1219 C1233 0.931 . S
H1220 C1235 0.930 . S
C1221 H1209 0.930 . S
C1221 C1222 1.399 . S
C1221 C1226 1.399 . S
C1222 C1221 1.399 . S
C1222 C1223 1.376 . S
C1223 H1210 0.930 . S
C1223 C1222 1.376 . S
C1223 C1224 1.388 . S
C1224 H1211 0.930 . S
C1224 C1223 1.388 . S
C1224 C1225 1.390 . S
C1225 C1224 1.390 . S
C1225 C1226 1.394 . S
C1225 C1231 1.465 . S
C1226 C1221 1.399 . S
C1226 C1225 1.394 . S
C1226 C1227 1.516 . S
C1227 C1226 1.516 . S
C1227 C1228 1.502 . S
C1227 C1229 1.561 . S
C1227 C1230 1.526 . S
C1228 H1212 0.959 . S
C1228 H1213 0.959 . S
C1228 H1214 0.961 . S
C1228 C1227 1.502 . S
C1229 H1215 0.960 . S
C1229 H1216 0.961 . S
C1229 H1217 0.959 . S
C1229 C1227 1.561 . S
C1230 C1227 1.526 . S
C1230 C1231 1.396 . S
C1230 C1235 1.390 . S
C1231 C1225 1.465 . S
C1231 C1230 1.396 . S
C1231 C1232 1.399 . S
C1232 H1218 0.929 . S
C1232 C1231 1.399 . S
C1232 C1233 1.385 . S
C1233 H1219 0.931 . S
C1233 C1232 1.385 . S
C1233 C1234 1.389 . S
C1234 C1233 1.389 . S
C1234 C1235 1.387 . S
C1235 H1220 0.930 . S
C1235 C1230 1.390 . S
C1235 C1234 1.387 . S
H1236 C1248 0.930 . S
H1237 C1250 0.930 . S
H1238 C1251 0.930 . S
H1239 C1255 0.959 . S
H1240 C1255 0.959 . S
H1241 C1255 0.961 . S
H1242 C1256 0.960 . S
H1243 C1256 0.961 . S
H1244 C1256 0.959 . S
H1245 C1259 0.929 . S
H1246 C1260 0.931 . S
H1247 C1262 0.930 . S
C1248 H1236 0.930 . S
C1248 C1249 1.399 . S
C1248 C1253 1.399 . S
C1249 C1248 1.399 . S
C1249 C1250 1.376 . S
C1250 H1237 0.930 . S
C1250 C1249 1.376 . S
C1250 C1251 1.388 . S
C1251 H1238 0.930 . S
C1251 C1250 1.388 . S
C1251 C1252 1.390 . S
C1252 C1251 1.390 . S
C1252 C1253 1.394 . S
C1252 C1258 1.465 . S
C1253 C1248 1.399 . S
C1253 C1252 1.394 . S
C1253 C1254 1.516 . S
C1254 C1253 1.516 . S
C1254 C1255 1.502 . S
C1254 C1256 1.561 . S
C1254 C1257 1.526 . S
C1255 H1239 0.959 . S
C1255 H1240 0.959 . S
C1255 H1241 0.961 . S
C1255 C1254 1.502 . S
C1256 H1242 0.960 . S
C1256 H1243 0.961 . S
C1256 H1244 0.959 . S
C1256 C1254 1.561 . S
C1257 C1254 1.526 . S
C1257 C1258 1.396 . S
C1257 C1262 1.390 . S
C1258 C1252 1.465 . S
C1258 C1257 1.396 . S
C1258 C1259 1.399 . S
C1259 H1245 0.929 . S
C1259 C1258 1.399 . S
C1259 C1260 1.385 . S
C1260 H1246 0.931 . S
C1260 C1259 1.385 . S
C1260 C1261 1.389 . S
C1261 C1260 1.389 . S
C1261 C1262 1.387 . S
C1262 H1247 0.930 . S
C1262 C1257 1.390 . S
C1262 C1261 1.387 . S
H1263 C1275 0.930 . S
H1264 C1277 0.930 . S
H1265 C1278 0.930 . S
H1266 C1282 0.959 . S
H1267 C1282 0.959 . S
H1268 C1282 0.961 . S
H1269 C1283 0.960 . S
H1270 C1283 0.961 . S
H1271 C1283 0.959 . S
H1272 C1286 0.929 . S
H1273 C1287 0.931 . S
H1274 C1289 0.930 . S
C1275 H1263 0.930 . S
C1275 C1276 1.399 . S
C1275 C1280 1.399 . S
C1276 C1275 1.399 . S
C1276 C1277 1.376 . S
C1277 H1264 0.930 . S
C1277 C1276 1.376 . S
C1277 C1278 1.388 . S
C1278 H1265 0.930 . S
C1278 C1277 1.388 . S
C1278 C1279 1.390 . S
C1279 C1278 1.390 . S
C1279 C1280 1.394 . S
C1279 C1285 1.465 . S
C1280 C1275 1.399 . S
C1280 C1279 1.394 . S
C1280 C1281 1.516 . S
C1281 C1280 1.516 . S
C1281 C1282 1.502 . S
C1281 C1283 1.561 . S
C1281 C1284 1.526 . S
C1282 H1266 0.959 . S
C1282 H1267 0.959 . S
C1282 H1268 0.961 . S
C1282 C1281 1.502 . S
C1283 H1269 0.960 . S
C1283 H1270 0.961 . S
C1283 H1271 0.959 . S
C1283 C1281 1.561 . S
C1284 C1281 1.526 . S
C1284 C1285 1.396 . S
C1284 C1289 1.390 . S
C1285 C1279 1.465 . S
C1285 C1284 1.396 . S
C1285 C1286 1.399 . S
C1286 H1272 0.929 . S
C1286 C1285 1.399 . S
C1286 C1287 1.385 . S
C1287 H1273 0.931 . S
C1287 C1286 1.385 . S
C1287 C1288 1.389 . S
C1288 C1287 1.389 . S
C1288 C1289 1.387 . S
C1289 H1274 0.930 . S
C1289 C1284 1.390 . S
C1289 C1288 1.387 . S
H1290 C1302 0.930 . S
H1291 C1304 0.930 . S
H1292 C1305 0.930 . S
H1293 C1309 0.959 . S
H1294 C1309 0.959 . S
H1295 C1309 0.961 . S
H1296 C1310 0.960 . S
H1297 C1310 0.961 . S
H1298 C1310 0.959 . S
H1299 C1313 0.929 . S
H1300 C1314 0.931 . S
H1301 C1316 0.930 . S
C1302 H1290 0.930 . S
C1302 C1303 1.399 . S
C1302 C1307 1.399 . S
C1303 C1302 1.399 . S
C1303 C1304 1.376 . S
C1304 H1291 0.930 . S
C1304 C1303 1.376 . S
C1304 C1305 1.388 . S
C1305 H1292 0.930 . S
C1305 C1304 1.388 . S
C1305 C1306 1.390 . S
C1306 C1305 1.390 . S
C1306 C1307 1.394 . S
C1306 C1312 1.465 . S
C1307 C1302 1.399 . S
C1307 C1306 1.394 . S
C1307 C1308 1.516 . S
C1308 C1307 1.516 . S
C1308 C1309 1.502 . S
C1308 C1310 1.561 . S
C1308 C1311 1.526 . S
C1309 H1293 0.959 . S
C1309 H1294 0.959 . S
C1309 H1295 0.961 . S
C1309 C1308 1.502 . S
C1310 H1296 0.960 . S
C1310 H1297 0.961 . S
C1310 H1298 0.959 . S
C1310 C1308 1.561 . S
C1311 C1308 1.526 . S
C1311 C1312 1.396 . S
C1311 C1316 1.390 . S
C1312 C1306 1.465 . S
C1312 C1311 1.396 . S
C1312 C1313 1.399 . S
C1313 H1299 0.929 . S
C1313 C1312 1.399 . S
C1313 C1314 1.385 . S
C1314 H1300 0.931 . S
C1314 C1313 1.385 . S
C1314 C1315 1.389 . S
C1315 C1314 1.389 . S
C1315 C1316 1.387 . S
C1316 H1301 0.930 . S
C1316 C1311 1.390 . S
C1316 C1315 1.387 . S
H1317 C1329 0.930 . S
H1318 C1331 0.930 . S
H1319 C1332 0.930 . S
H1320 C1336 0.959 . S
H1321 C1336 0.959 . S
H1322 C1336 0.961 . S
H1323 C1337 0.960 . S
H1324 C1337 0.961 . S
H1325 C1337 0.959 . S
H1326 C1340 0.929 . S
H1327 C1341 0.931 . S
H1328 C1343 0.930 . S
C1329 H1317 0.930 . S
C1329 C1330 1.399 . S
C1329 C1334 1.399 . S
C1330 C1329 1.399 . S
C1330 C1331 1.376 . S
C1331 H1318 0.930 . S
C1331 C1330 1.376 . S
C1331 C1332 1.388 . S
C1332 H1319 0.930 . S
C1332 C1331 1.388 . S
C1332 C1333 1.390 . S
C1333 C1332 1.390 . S
C1333 C1334 1.394 . S
C1333 C1339 1.465 . S
C1334 C1329 1.399 . S
C1334 C1333 1.394 . S
C1334 C1335 1.516 . S
C1335 C1334 1.516 . S
C1335 C1336 1.502 . S
C1335 C1337 1.561 . S
C1335 C1338 1.526 . S
C1336 H1320 0.959 . S
C1336 H1321 0.959 . S
C1336 H1322 0.961 . S
C1336 C1335 1.502 . S
C1337 H1323 0.960 . S
C1337 H1324 0.961 . S
C1337 H1325 0.959 . S
C1337 C1335 1.561 . S
C1338 C1335 1.526 . S
C1338 C1339 1.396 . S
C1338 C1343 1.390 . S
C1339 C1333 1.465 . S
C1339 C1338 1.396 . S
C1339 C1340 1.399 . S
C1340 H1326 0.929 . S
C1340 C1339 1.399 . S
C1340 C1341 1.385 . S
C1341 H1327 0.931 . S
C1341 C1340 1.385 . S
C1341 C1342 1.389 . S
C1342 C1341 1.389 . S
C1342 C1343 1.387 . S
C1343 H1328 0.930 . S
C1343 C1338 1.390 . S
C1343 C1342 1.387 . S
H1344 C1356 0.930 . S
H1345 C1358 0.930 . S
H1346 C1359 0.930 . S
H1347 C1363 0.959 . S
H1348 C1363 0.959 . S
H1349 C1363 0.961 . S
H1350 C1364 0.960 . S
H1351 C1364 0.961 . S
H1352 C1364 0.959 . S
H1353 C1367 0.929 . S
H1354 C1368 0.931 . S
H1355 C1370 0.930 . S
C1356 H1344 0.930 . S
C1356 C1357 1.399 . S
C1356 C1361 1.399 . S
C1357 C1356 1.399 . S
C1357 C1358 1.376 . S
C1358 H1345 0.930 . S
C1358 C1357 1.376 . S
C1358 C1359 1.388 . S
C1359 H1346 0.930 . S
C1359 C1358 1.388 . S
C1359 C1360 1.390 . S
C1360 C1359 1.390 . S
C1360 C1361 1.394 . S
C1360 C1366 1.465 . S
C1361 C1356 1.399 . S
C1361 C1360 1.394 . S
C1361 C1362 1.516 . S
C1362 C1361 1.516 . S
C1362 C1363 1.502 . S
C1362 C1364 1.561 . S
C1362 C1365 1.526 . S
C1363 H1347 0.959 . S
C1363 H1348 0.959 . S
C1363 H1349 0.961 . S
C1363 C1362 1.502 . S
C1364 H1350 0.960 . S
C1364 H1351 0.961 . S
C1364 H1352 0.959 . S
C1364 C1362 1.561 . S
C1365 C1362 1.526 . S
C1365 C1366 1.396 . S
C1365 C1370 1.390 . S
C1366 C1360 1.465 . S
C1366 C1365 1.396 . S
C1366 C1367 1.399 . S
C1367 H1353 0.929 . S
C1367 C1366 1.399 . S
C1367 C1368 1.385 . S
C1368 H1354 0.931 . S
C1368 C1367 1.385 . S
C1368 C1369 1.389 . S
C1369 C1368 1.389 . S
C1369 C1370 1.387 . S
C1370 H1355 0.930 . S
C1370 C1365 1.390 . S
C1370 C1369 1.387 . S
H1371 C1383 0.930 . S
H1372 C1385 0.930 . S
H1373 C1386 0.930 . S
H1374 C1390 0.959 . S
H1375 C1390 0.959 . S
H1376 C1390 0.961 . S
H1377 C1391 0.960 . S
H1378 C1391 0.961 . S
H1379 C1391 0.959 . S
H1380 C1394 0.929 . S
H1381 C1395 0.931 . S
H1382 C1397 0.930 . S
C1383 H1371 0.930 . S
C1383 C1384 1.399 . S
C1383 C1388 1.399 . S
C1384 C1383 1.399 . S
C1384 C1385 1.376 . S
C1385 H1372 0.930 . S
C1385 C1384 1.376 . S
C1385 C1386 1.388 . S
C1386 H1373 0.930 . S
C1386 C1385 1.388 . S
C1386 C1387 1.390 . S
C1387 C1386 1.390 . S
C1387 C1388 1.394 . S
C1387 C1393 1.465 . S
C1388 C1383 1.399 . S
C1388 C1387 1.394 . S
C1388 C1389 1.516 . S
C1389 C1388 1.516 . S
C1389 C1390 1.502 . S
C1389 C1391 1.561 . S
C1389 C1392 1.526 . S
C1390 H1374 0.959 . S
C1390 H1375 0.959 . S
C1390 H1376 0.961 . S
C1390 C1389 1.502 . S
C1391 H1377 0.960 . S
C1391 H1378 0.961 . S
C1391 H1379 0.959 . S
C1391 C1389 1.561 . S
C1392 C1389 1.526 . S
C1392 C1393 1.396 . S
C1392 C1397 1.390 . S
C1393 C1387 1.465 . S
C1393 C1392 1.396 . S
C1393 C1394 1.399 . S
C1394 H1380 0.929 . S
C1394 C1393 1.399 . S
C1394 C1395 1.385 . S
C1395 H1381 0.931 . S
C1395 C1394 1.385 . S
C1395 C1396 1.389 . S
C1396 C1395 1.389 . S
C1396 C1397 1.387 . S
C1397 H1382 0.930 . S
C1397 C1392 1.390 . S
C1397 C1396 1.387 . S
H1398 C1410 0.930 . S
H1399 C1412 0.930 . S
H1400 C1413 0.930 . S
H1401 C1417 0.959 . S
H1402 C1417 0.959 . S
H1403 C1417 0.961 . S
H1404 C1418 0.960 . S
H1405 C1418 0.961 . S
H1406 C1418 0.959 . S
H1407 C1421 0.929 . S
H1408 C1422 0.931 . S
H1409 C1424 0.930 . S
C1410 H1398 0.930 . S
C1410 C1411 1.399 . S
C1410 C1415 1.399 . S
C1411 C1410 1.399 . S
C1411 C1412 1.376 . S
C1412 H1399 0.930 . S
C1412 C1411 1.376 . S
C1412 C1413 1.388 . S
C1413 H1400 0.930 . S
C1413 C1412 1.388 . S
C1413 C1414 1.390 . S
C1414 C1413 1.390 . S
C1414 C1415 1.394 . S
C1414 C1420 1.465 . S
C1415 C1410 1.399 . S
C1415 C1414 1.394 . S
C1415 C1416 1.516 . S
C1416 C1415 1.516 . S
C1416 C1417 1.502 . S
C1416 C1418 1.561 . S
C1416 C1419 1.526 . S
C1417 H1401 0.959 . S
C1417 H1402 0.959 . S
C1417 H1403 0.961 . S
C1417 C1416 1.502 . S
C1418 H1404 0.960 . S
C1418 H1405 0.961 . S
C1418 H1406 0.959 . S
C1418 C1416 1.561 . S
C1419 C1416 1.526 . S
C1419 C1420 1.396 . S
C1419 C1424 1.390 . S
C1420 C1414 1.465 . S
C1420 C1419 1.396 . S
C1420 C1421 1.399 . S
C1421 H1407 0.929 . S
C1421 C1420 1.399 . S
C1421 C1422 1.385 . S
C1422 H1408 0.931 . S
C1422 C1421 1.385 . S
C1422 C1423 1.389 . S
C1423 C1422 1.389 . S
C1423 C1424 1.387 . S
C1424 H1409 0.930 . S
C1424 C1419 1.390 . S
C1424 C1423 1.387 . S
H1425 C1437 0.930 . S
H1426 C1439 0.930 . S
H1427 C1440 0.930 . S
H1428 C1444 0.959 . S
H1429 C1444 0.959 . S
H1430 C1444 0.961 . S
H1431 C1445 0.960 . S
H1432 C1445 0.961 . S
H1433 C1445 0.959 . S
H1434 C1448 0.929 . S
H1435 C1449 0.931 . S
H1436 C1451 0.930 . S
C1437 H1425 0.930 . S
C1437 C1438 1.399 . S
C1437 C1442 1.399 . S
C1438 C1437 1.399 . S
C1438 C1439 1.376 . S
C1439 H1426 0.930 . S
C1439 C1438 1.376 . S
C1439 C1440 1.388 . S
C1440 H1427 0.930 . S
C1440 C1439 1.388 . S
C1440 C1441 1.390 . S
C1441 C1440 1.390 . S
C1441 C1442 1.394 . S
C1441 C1447 1.465 . S
C1442 C1437 1.399 . S
C1442 C1441 1.394 . S
C1442 C1443 1.516 . S
C1443 C1442 1.516 . S
C1443 C1444 1.502 . S
C1443 C1445 1.561 . S
C1443 C1446 1.526 . S
C1444 H1428 0.959 . S
C1444 H1429 0.959 . S
C1444 H1430 0.961 . S
C1444 C1443 1.502 . S
C1445 H1431 0.960 . S
C1445 H1432 0.961 . S
C1445 H1433 0.959 . S
C1445 C1443 1.561 . S
C1446 C1443 1.526 . S
C1446 C1447 1.396 . S
C1446 C1451 1.390 . S
C1447 C1441 1.465 . S
C1447 C1446 1.396 . S
C1447 C1448 1.399 . S
C1448 H1434 0.929 . S
C1448 C1447 1.399 . S
C1448 C1449 1.385 . S
C1449 H1435 0.931 . S
C1449 C1448 1.385 . S
C1449 C1450 1.389 . S
C1450 C1449 1.389 . S
C1450 C1451 1.387 . S
C1451 H1436 0.930 . S
C1451 C1446 1.390 . S
C1451 C1450 1.387 . S
C493 C84 1.231 . S
C505 C20 1.197 . S
C520 C145 1.219 . S
C532 C71 1.188 . S
C547 C100 1.207 . S
C559 C164 1.222 . S
C574 C151 1.180 . S
C586 C225 1.227 . S
C601 C4 1.248 . S
C613 C180 1.169 . S
C628 C65 1.212 . S
C640 C231 1.225 . S
C655 C425 1.238 . S
C667 C271 1.172 . S
C682 C300 1.176 . S
C694 C444 1.235 . S
C709 C351 1.168 . S
C721 C265 1.246 . S
C736 C380 1.243 . S
C748 C284 1.181 . S
C763 C431 1.241 . S
C775 C345 1.194 . S
C790 C364 1.180 . S
C802 C460 1.244 . S
C817 C143 1.716 . S
C829 C2 1.707 . S
C844 C63 1.696 . S
C856 C162 1.695 . S
C871 C82 1.693 . S
C883 C223 1.696 . S
C898 C263 1.774 . S
C910 C362 1.772 . S
C925 C282 1.701 . S
C937 C423 1.696 . S
C952 C343 1.753 . S
C964 C442 1.741 . S
C979 C303 2.336 . S
C991 C23 2.309 . S
C1006 C42 2.337 . S
C1018 C322 2.323 . S
C1033 C383 2.311 . S
C1045 C103 2.338 . S
C1060 C122 2.325 . S
C1072 C402 2.337 . S
C1087 C183 2.337 . S
C1099 C463 2.310 . S
C1114 C242 2.332 . S
C1126 C202 2.310 . S
C1141 C105 1.535 . S
C1153 C31 1.573 . S
C1168 C60 1.572 . S
C1180 C124 1.534 . S
C1195 C111 1.574 . S
C1207 C185 1.535 . S
C1222 C140 1.573 . S
C1234 C204 1.539 . S
C1249 C25 1.577 . S
C1261 C191 1.525 . S
C1276 C44 1.554 . S
C1288 C220 1.539 . S
C1303 C404 1.554 . S
C1315 C260 1.561 . S
C1330 C311 1.549 . S
C1342 C465 1.552 . S
C1357 C340 1.571 . S
C1369 C244 1.534 . S
C1384 C305 1.574 . S
C1396 C391 1.530 . S
C1411 C420 1.535 . S
C1423 C324 1.558 . S
C1438 C471 1.554 . S
C1450 C385 1.548 . S
