# Generated by pormake.
# Topology pem, (4)-cn, num edge types: 1
# Building blocks:
#     Node 0, Type 0, BuildingBlock: NAHDIM_clean_sbu_0, # of connection points: 4
#     Node 1, Type 0, BuildingBlock: NAHDIM_clean_sbu_0, # of connection points: 4
#     Node 2, Type 0, BuildingBlock: NAHDIM_clean_sbu_0, # of connection points: 4
#     Node 3, Type 0, BuildingBlock: NAHDIM_clean_sbu_0, # of connection points: 4
#     Node 4, Type 0, BuildingBlock: NAHDIM_clean_sbu_0, # of connection points: 4
#     Node 5, Type 0, BuildingBlock: NAHDIM_clean_sbu_0, # of connection points: 4
#     Node 6, Type 0, BuildingBlock: NAHDIM_clean_sbu_0, # of connection points: 4
#     Node 7, Type 0, BuildingBlock: NAHDIM_clean_sbu_0, # of connection points: 4
#     Node 8, Type 0, BuildingBlock: NAHDIM_clean_sbu_0, # of connection points: 4
#     Node 9, Type 0, BuildingBlock: NAHDIM_clean_sbu_0, # of connection points: 4
#     Node 10, Type 0, BuildingBlock: NAHDIM_clean_sbu_0, # of connection points: 4
#     Node 11, Type 0, BuildingBlock: NAHDIM_clean_sbu_0, # of connection points: 4
#     Node 12, Type 0, BuildingBlock: NAHDIM_clean_sbu_0, # of connection points: 4
#     Node 13, Type 0, BuildingBlock: NAHDIM_clean_sbu_0, # of connection points: 4
#     Node 14, Type 0, BuildingBlock: NAHDIM_clean_sbu_0, # of connection points: 4
#     Node 15, Type 0, BuildingBlock: NAHDIM_clean_sbu_0, # of connection points: 4
#     Node 16, Type 0, BuildingBlock: NAHDIM_clean_sbu_0, # of connection points: 4
#     Node 17, Type 0, BuildingBlock: NAHDIM_clean_sbu_0, # of connection points: 4
#     Node 18, Type 0, BuildingBlock: NAHDIM_clean_sbu_0, # of connection points: 4
#     Node 19, Type 0, BuildingBlock: NAHDIM_clean_sbu_0, # of connection points: 4
#     Node 20, Type 0, BuildingBlock: NAHDIM_clean_sbu_0, # of connection points: 4
#     Node 21, Type 0, BuildingBlock: NAHDIM_clean_sbu_0, # of connection points: 4
#     Node 22, Type 0, BuildingBlock: NAHDIM_clean_sbu_0, # of connection points: 4
#     Node 23, Type 0, BuildingBlock: NAHDIM_clean_sbu_0, # of connection points: 4
#     Node 24, Type 0, BuildingBlock: NAHDIM_clean_sbu_0, # of connection points: 4
#     Node 25, Type 0, BuildingBlock: NAHDIM_clean_sbu_0, # of connection points: 4
#     Node 26, Type 0, BuildingBlock: NAHDIM_clean_sbu_0, # of connection points: 4
#     Node 27, Type 0, BuildingBlock: NAHDIM_clean_sbu_0, # of connection points: 4
#     Node 28, Type 0, BuildingBlock: NAHDIM_clean_sbu_0, # of connection points: 4
#     Node 29, Type 0, BuildingBlock: NAHDIM_clean_sbu_0, # of connection points: 4
#     Node 30, Type 0, BuildingBlock: NAHDIM_clean_sbu_0, # of connection points: 4
#     Node 31, Type 0, BuildingBlock: NAHDIM_clean_sbu_0, # of connection points: 4
#     Edge 32, Type (0, 0), BuildingBlock: XUDNAN_clean_linker_2, # of connection points: 2
#     Edge 33, Type (0, 0), BuildingBlock: XUDNAN_clean_linker_2, # of connection points: 2
#     Edge 34, Type (0, 0), BuildingBlock: XUDNAN_clean_linker_2, # of connection points: 2
#     Edge 35, Type (0, 0), BuildingBlock: XUDNAN_clean_linker_2, # of connection points: 2
#     Edge 36, Type (0, 0), BuildingBlock: XUDNAN_clean_linker_2, # of connection points: 2
#     Edge 37, Type (0, 0), BuildingBlock: XUDNAN_clean_linker_2, # of connection points: 2
#     Edge 38, Type (0, 0), BuildingBlock: XUDNAN_clean_linker_2, # of connection points: 2
#     Edge 39, Type (0, 0), BuildingBlock: XUDNAN_clean_linker_2, # of connection points: 2
#     Edge 40, Type (0, 0), BuildingBlock: XUDNAN_clean_linker_2, # of connection points: 2
#     Edge 41, Type (0, 0), BuildingBlock: XUDNAN_clean_linker_2, # of connection points: 2
#     Edge 42, Type (0, 0), BuildingBlock: XUDNAN_clean_linker_2, # of connection points: 2
#     Edge 43, Type (0, 0), BuildingBlock: XUDNAN_clean_linker_2, # of connection points: 2
#     Edge 44, Type (0, 0), BuildingBlock: XUDNAN_clean_linker_2, # of connection points: 2
#     Edge 45, Type (0, 0), BuildingBlock: XUDNAN_clean_linker_2, # of connection points: 2
#     Edge 46, Type (0, 0), BuildingBlock: XUDNAN_clean_linker_2, # of connection points: 2
#     Edge 47, Type (0, 0), BuildingBlock: XUDNAN_clean_linker_2, # of connection points: 2
#     Edge 48, Type (0, 0), BuildingBlock: XUDNAN_clean_linker_2, # of connection points: 2
#     Edge 49, Type (0, 0), BuildingBlock: XUDNAN_clean_linker_2, # of connection points: 2
#     Edge 50, Type (0, 0), BuildingBlock: XUDNAN_clean_linker_2, # of connection points: 2
#     Edge 51, Type (0, 0), BuildingBlock: XUDNAN_clean_linker_2, # of connection points: 2
#     Edge 52, Type (0, 0), BuildingBlock: XUDNAN_clean_linker_2, # of connection points: 2
#     Edge 53, Type (0, 0), BuildingBlock: XUDNAN_clean_linker_2, # of connection points: 2
#     Edge 54, Type (0, 0), BuildingBlock: XUDNAN_clean_linker_2, # of connection points: 2
#     Edge 55, Type (0, 0), BuildingBlock: XUDNAN_clean_linker_2, # of connection points: 2
#     Edge 56, Type (0, 0), BuildingBlock: XUDNAN_clean_linker_2, # of connection points: 2
#     Edge 57, Type (0, 0), BuildingBlock: XUDNAN_clean_linker_2, # of connection points: 2
#     Edge 58, Type (0, 0), BuildingBlock: XUDNAN_clean_linker_2, # of connection points: 2
#     Edge 59, Type (0, 0), BuildingBlock: XUDNAN_clean_linker_2, # of connection points: 2
#     Edge 60, Type (0, 0), BuildingBlock: XUDNAN_clean_linker_2, # of connection points: 2
#     Edge 61, Type (0, 0), BuildingBlock: XUDNAN_clean_linker_2, # of connection points: 2
#     Edge 62, Type (0, 0), BuildingBlock: XUDNAN_clean_linker_2, # of connection points: 2
#     Edge 63, Type (0, 0), BuildingBlock: XUDNAN_clean_linker_2, # of connection points: 2
#     Edge 64, Type (0, 0), BuildingBlock: XUDNAN_clean_linker_2, # of connection points: 2
#     Edge 65, Type (0, 0), BuildingBlock: XUDNAN_clean_linker_2, # of connection points: 2
#     Edge 66, Type (0, 0), BuildingBlock: XUDNAN_clean_linker_2, # of connection points: 2
#     Edge 67, Type (0, 0), BuildingBlock: XUDNAN_clean_linker_2, # of connection points: 2
#     Edge 68, Type (0, 0), BuildingBlock: XUDNAN_clean_linker_2, # of connection points: 2
#     Edge 69, Type (0, 0), BuildingBlock: XUDNAN_clean_linker_2, # of connection points: 2
#     Edge 70, Type (0, 0), BuildingBlock: XUDNAN_clean_linker_2, # of connection points: 2
#     Edge 71, Type (0, 0), BuildingBlock: XUDNAN_clean_linker_2, # of connection points: 2
#     Edge 72, Type (0, 0), BuildingBlock: XUDNAN_clean_linker_2, # of connection points: 2
#     Edge 73, Type (0, 0), BuildingBlock: XUDNAN_clean_linker_2, # of connection points: 2
#     Edge 74, Type (0, 0), BuildingBlock: XUDNAN_clean_linker_2, # of connection points: 2
#     Edge 75, Type (0, 0), BuildingBlock: XUDNAN_clean_linker_2, # of connection points: 2
#     Edge 76, Type (0, 0), BuildingBlock: XUDNAN_clean_linker_2, # of connection points: 2
#     Edge 77, Type (0, 0), BuildingBlock: XUDNAN_clean_linker_2, # of connection points: 2
#     Edge 78, Type (0, 0), BuildingBlock: XUDNAN_clean_linker_2, # of connection points: 2
#     Edge 79, Type (0, 0), BuildingBlock: XUDNAN_clean_linker_2, # of connection points: 2
#     Edge 80, Type (0, 0), BuildingBlock: XUDNAN_clean_linker_2, # of connection points: 2
#     Edge 81, Type (0, 0), BuildingBlock: XUDNAN_clean_linker_2, # of connection points: 2
#     Edge 82, Type (0, 0), BuildingBlock: XUDNAN_clean_linker_2, # of connection points: 2
#     Edge 83, Type (0, 0), BuildingBlock: XUDNAN_clean_linker_2, # of connection points: 2
#     Edge 84, Type (0, 0), BuildingBlock: XUDNAN_clean_linker_2, # of connection points: 2
#     Edge 85, Type (0, 0), BuildingBlock: XUDNAN_clean_linker_2, # of connection points: 2
#     Edge 86, Type (0, 0), BuildingBlock: XUDNAN_clean_linker_2, # of connection points: 2
#     Edge 87, Type (0, 0), BuildingBlock: XUDNAN_clean_linker_2, # of connection points: 2
#     Edge 88, Type (0, 0), BuildingBlock: XUDNAN_clean_linker_2, # of connection points: 2
#     Edge 89, Type (0, 0), BuildingBlock: XUDNAN_clean_linker_2, # of connection points: 2
#     Edge 90, Type (0, 0), BuildingBlock: XUDNAN_clean_linker_2, # of connection points: 2
#     Edge 91, Type (0, 0), BuildingBlock: XUDNAN_clean_linker_2, # of connection points: 2
#     Edge 92, Type (0, 0), BuildingBlock: XUDNAN_clean_linker_2, # of connection points: 2
#     Edge 93, Type (0, 0), BuildingBlock: XUDNAN_clean_linker_2, # of connection points: 2
#     Edge 94, Type (0, 0), BuildingBlock: XUDNAN_clean_linker_2, # of connection points: 2
#     Edge 95, Type (0, 0), BuildingBlock: XUDNAN_clean_linker_2, # of connection points: 2
# Relax obj value: 0.110
# Max RMSD: 0.076
# Mean RMSD: 0.073
data_MOF--net-pem--node1-NAHDIM_clean_sbu_0--edge1-XUDNAN_clean_linker_2
_symmetry_space_group_name_H-M    P1
_symmetry_Int_Tables_number       1
_symmetry_cell_setting            triclinic
loop_
_symmetry_equiv_pos_as_xyz
'x, y, z'
_cell_length_a     43.244495
_cell_length_b     42.876314
_cell_length_c     41.738052
_cell_angle_alpha  89.954894
_cell_angle_beta   89.955977
_cell_angle_gamma 93.733046
loop_
_atom_site_label
_atom_site_type_symbol
_atom_site_fract_x
_atom_site_fract_y
_atom_site_fract_z
_atom_type_partial_charge
C0 C 0.03981 0.15534 0.0831 0.0
O1 O 0.02748 0.12654 0.0843 0.0
O2 O 0.10711 0.10028 0.11969 0.0
Zn3 Zn 0.09681 0.12369 0.07915 0.0
O4 O 0.07557 0.09265 0.051 0.0
C5 C 0.14914 0.1147 0.04028 0.0
O6 O 0.13964 0.08552 0.04614 0.0
O7 O 0.0692 0.15997 0.08294 0.0
C8 C 0.07031 0.0988 0.0219 0.0
O9 O 0.07601 0.12732 0.01093 0.0
C10 C 0.09138 0.07569 0.12904 0.0
O11 O 0.06518 0.06728 0.11462 0.0
O12 O 0.13559 0.1365 0.05414 0.0
C13 C 0.19707 0.88355 0.37816 0.0
O14 O 0.21062 0.88768 0.35021 0.0
O15 O 0.13877 0.89425 0.30649 0.0
Zn16 Zn 0.14868 0.85969 0.33732 0.0
O17 O 0.18145 0.83552 0.3184 0.0
C18 C 0.10605 0.80596 0.32696 0.0
O19 O 0.12114 0.80465 0.29971 0.0
O20 O 0.16841 0.87468 0.37904 0.0
C21 C 0.18879 0.81099 0.33273 0.0
O22 O 0.17299 0.8007 0.35791 0.0
C23 C 0.15935 0.90459 0.28662 0.0
O24 O 0.18666 0.89289 0.28675 0.0
O25 O 0.11249 0.82865 0.34601 0.0
C26 C 0.47927 0.86583 0.59609 0.0
O27 O 0.48873 0.89401 0.60567 0.0
O28 O 0.40954 0.91661 0.622 0.0
Zn29 Zn 0.42073 0.89311 0.58213 0.0
O30 O 0.43997 0.9241 0.55186 0.0
C31 C 0.35779 0.88697 0.56014 0.0
O32 O 0.35419 0.90929 0.58113 0.0
O33 O 0.45129 0.86027 0.58745 0.0
C34 C 0.42451 0.94392 0.53732 0.0
O35 O 0.39474 0.94502 0.54279 0.0
C36 C 0.42626 0.94094 0.6299 0.0
O37 O 0.45197 0.94811 0.61402 0.0
O38 O 0.3836 0.87459 0.5586 0.0
C39 C 0.3081 0.11957 0.8722 0.0
O40 O 0.29836 0.10604 0.84553 0.0
O41 O 0.37072 0.10488 0.80914 0.0
Zn42 Zn 0.35848 0.14303 0.83244 0.0
O43 O 0.32788 0.16189 0.8049 0.0
C44 C 0.39868 0.19932 0.82306 0.0
O45 O 0.38923 0.19791 0.79317 0.0
O46 O 0.33459 0.13421 0.87294 0.0
C47 C 0.3159 0.18576 0.81615 0.0
O48 O 0.32557 0.19727 0.84382 0.0
C49 C 0.39161 0.10487 0.7877 0.0
O50 O 0.40996 0.13009 0.78305 0.0
O51 O 0.39117 0.1769 0.84206 0.0
C52 C 0.12503 0.87682 0.46647 0.0
O53 O 0.0955 0.8769 0.47384 0.0
O54 O 0.07208 0.87066 0.38718 0.0
Zn55 Zn 0.10148 0.90311 0.40883 0.0
O56 O 0.07577 0.92673 0.4383 0.0
C57 C 0.10669 0.94285 0.35184 0.0
O58 O 0.08042 0.92765 0.34397 0.0
O59 O 0.13365 0.88498 0.43827 0.0
C60 C 0.05737 0.94719 0.43034 0.0
O61 O 0.05512 0.95547 0.4002 0.0
C62 C 0.04674 0.86119 0.40077 0.0
O63 O 0.04084 0.87096 0.42981 0.0
O64 O 0.12058 0.93503 0.37725 0.0
C65 C 0.39306 0.81684 0.6206 0.0
O66 O 0.36897 0.80901 0.60251 0.0
O67 O 0.31466 0.86112 0.62802 0.0
Zn68 Zn 0.3495 0.8518 0.6596 0.0
O69 O 0.33395 0.8176 0.68861 0.0
C70 C 0.33276 0.89759 0.70408 0.0
O71 O 0.30558 0.88462 0.69578 0.0
O72 O 0.39041 0.83699 0.64267 0.0
C73 C 0.33304 0.78839 0.68341 0.0
O74 O 0.34091 0.77761 0.65537 0.0
C75 C 0.29728 0.84119 0.6126 0.0
O76 O 0.30259 0.81145 0.61378 0.0
O77 O 0.3569 0.88836 0.69048 0.0
C78 C 0.34147 0.10816 0.96794 0.0
O79 O 0.34898 0.0791 0.97069 0.0
O80 O 0.41355 0.14075 0.89369 0.0
Zn81 Zn 0.38613 0.1071 0.9162 0.0
O82 O 0.41595 0.08535 0.94319 0.0
C83 C 0.38365 0.05727 0.86849 0.0
O84 O 0.41382 0.05962 0.87264 0.0
O85 O 0.35384 0.12504 0.94561 0.0
C86 C 0.41494 0.05626 0.94899 0.0
O87 O 0.39149 0.03805 0.93856 0.0
C88 C 0.43206 0.15905 0.90978 0.0
O89 O 0.43102 0.15785 0.94121 0.0
O90 O 0.36695 0.07559 0.88394 0.0
C91 C 0.08547 0.20599 0.1407 0.0
O92 O 0.11213 0.21972 0.13178 0.0
O93 O 0.15757 0.16241 0.12564 0.0
Zn94 Zn 0.1277 0.16535 0.16319 0.0
O95 O 0.14305 0.20054 0.19025 0.0
C96 C 0.14637 0.12764 0.21639 0.0
O97 O 0.16639 0.15166 0.22044 0.0
O98 O 0.08508 0.17834 0.15188 0.0
C99 C 0.164 0.22131 0.18304 0.0
O100 O 0.17746 0.22083 0.15483 0.0
C101 C 0.18037 0.14512 0.12736 0.0
O102 O 0.18324 0.12736 0.15267 0.0
O103 O 0.12747 0.12763 0.19285 0.0
C104 C 0.61008 0.37762 0.93912 0.0
O105 O 0.58309 0.36684 0.95034 0.0
O106 O 0.54056 0.38579 0.87909 0.0
Zn107 Zn 0.57396 0.41507 0.89825 0.0
O108 O 0.55782 0.43436 0.93722 0.0
C109 C 0.57153 0.46775 0.85388 0.0
O110 O 0.54123 0.46313 0.8549 0.0
O111 O 0.61117 0.39513 0.91452 0.0
C112 C 0.57118 0.45897 0.94888 0.0
O113 O 0.59533 0.47267 0.93429 0.0
C114 C 0.51266 0.3914 0.88538 0.0
O115 O 0.50702 0.41581 0.90288 0.0
O116 O 0.58846 0.44954 0.86886 0.0
C117 C 0.87674 0.30386 0.08559 0.0
O118 O 0.84948 0.28864 0.08797 0.0
O119 O 0.80841 0.35881 0.0871 0.0
Zn120 Zn 0.84212 0.34782 0.11732 0.0
O121 O 0.8271 0.3118 0.14439 0.0
C122 C 0.82834 0.39682 0.15993 0.0
O123 O 0.8002 0.3875 0.15073 0.0
O124 O 0.87958 0.33232 0.09449 0.0
C125 C 0.83641 0.30871 0.17294 0.0
O126 O 0.85463 0.33069 0.18627 0.0
C127 C 0.78373 0.34158 0.0826 0.0
O128 O 0.78032 0.31418 0.09671 0.0
O129 O 0.85131 0.38418 0.14752 0.0
C130 C 0.8706 0.61748 0.43636 0.0
O131 O 0.88771 0.64376 0.43319 0.0
O132 O 0.92631 0.62947 0.36792 0.0
Zn133 Zn 0.90473 0.58908 0.38139 0.0
O134 O 0.93837 0.56697 0.40129 0.0
C135 C 0.89679 0.53919 0.33397 0.0
O136 O 0.92431 0.53231 0.34398 0.0
O137 O 0.87408 0.59491 0.41708 0.0
C138 C 0.93383 0.54236 0.41786 0.0
O139 O 0.90571 0.52904 0.42052 0.0
C140 C 0.94876 0.6313 0.34817 0.0
O141 O 0.95505 0.60662 0.33136 0.0
O142 O 0.88458 0.563 0.3455 0.0
C143 C 0.80453 0.60114 0.37753 0.0
O144 O 0.79984 0.58934 0.34879 0.0
O145 O 0.85904 0.61878 0.30804 0.0
Zn146 Zn 0.84848 0.64632 0.34573 0.0
O147 O 0.81857 0.67651 0.33209 0.0
C148 C 0.89634 0.69159 0.3357 0.0
O149 O 0.88507 0.68576 0.30694 0.0
O150 O 0.82551 0.62308 0.38162 0.0
C151 C 0.81418 0.69847 0.35166 0.0
O152 O 0.82866 0.69941 0.37934 0.0
C153 C 0.83904 0.61379 0.28597 0.0
O154 O 0.81202 0.62588 0.28864 0.0
O155 O 0.88536 0.67535 0.35912 0.0
C156 C 0.69116 0.39267 0.8875 0.0
O157 O 0.69589 0.41092 0.86244 0.0
O158 O 0.6319 0.40542 0.82309 0.0
Zn159 Zn 0.63926 0.36656 0.84969 0.0
O160 O 0.66723 0.34346 0.82269 0.0
C161 C 0.59283 0.31717 0.83707 0.0
O162 O 0.60595 0.32032 0.80876 0.0
O163 O 0.66697 0.37411 0.88855 0.0
C164 C 0.67491 0.31691 0.83199 0.0
O165 O 0.66244 0.30425 0.85801 0.0
C166 C 0.60922 0.40815 0.80405 0.0
O167 O 0.58619 0.38662 0.80405 0.0
O168 O 0.60152 0.3363 0.85917 0.0
C169 C 0.95007 0.86516 0.90532 0.0
O170 O 0.94724 0.87753 0.93385 0.0
O171 O 0.86734 0.88334 0.9323 0.0
Zn172 Zn 0.89737 0.90081 0.89735 0.0
O173 O 0.92439 0.93399 0.91761 0.0
C174 C 0.86173 0.94544 0.86278 0.0
O175 O 0.85327 0.95276 0.89189 0.0
O176 O 0.92923 0.8693 0.88439 0.0
C177 C 0.94026 0.95394 0.90095 0.0
O178 O 0.93636 0.95522 0.8698 0.0
C179 C 0.85795 0.89963 0.95561 0.0
O180 O 0.86573 0.92973 0.95647 0.0
O181 O 0.87843 0.92234 0.8588 0.0
C182 C 0.80909 0.18209 0.62731 0.0
O183 O 0.82081 0.20957 0.63682 0.0
O184 O 0.8916 0.19092 0.65228 0.0
Zn185 Zn 0.85486 0.16397 0.6702 0.0
O186 O 0.8353 0.1899 0.70248 0.0
C187 C 0.86432 0.11989 0.72108 0.0
O188 O 0.86374 0.14516 0.73872 0.0
O189 O 0.82128 0.1576 0.63707 0.0
C190 C 0.8094 0.18286 0.71561 0.0
O191 O 0.79475 0.15566 0.70975 0.0
C192 C 0.90131 0.21534 0.6677 0.0
O193 O 0.88972 0.22049 0.69614 0.0
O194 O 0.86325 0.12229 0.6907 0.0
C195 C 0.58339 0.158 0.40047 0.0
O196 O 0.5861 0.15803 0.43181 0.0
O197 O 0.65062 0.12771 0.44147 0.0
Zn198 Zn 0.62414 0.10822 0.406 0.0
O199 O 0.59084 0.08072 0.4249 0.0
C200 C 0.64596 0.05183 0.37902 0.0
O201 O 0.63468 0.04034 0.40609 0.0
O202 O 0.59994 0.14058 0.38382 0.0
C203 C 0.56787 0.07319 0.40694 0.0
O204 O 0.56747 0.08331 0.37725 0.0
C205 C 0.65457 0.11511 0.46867 0.0
O206 O 0.64219 0.08684 0.47428 0.0
O207 O 0.64619 0.08119 0.37424 0.0
C208 C 0.71464 0.83179 0.12912 0.0
O209 O 0.71428 0.80714 0.14784 0.0
O210 O 0.62564 0.81165 0.16363 0.0
Zn211 Zn 0.66278 0.84454 0.16956 0.0
O212 O 0.68753 0.82827 0.20502 0.0
C213 C 0.64151 0.88654 0.21612 0.0
O214 O 0.63276 0.85983 0.22988 0.0
O215 O 0.69333 0.85079 0.13215 0.0
C216 C 0.70641 0.84422 0.22274 0.0
O217 O 0.71147 0.8744 0.21793 0.0
C218 C 0.63032 0.78363 0.17194 0.0
O219 O 0.65847 0.77711 0.18016 0.0
O220 O 0.65169 0.88626 0.18748 0.0
C221 C 0.8976 0.04079 0.6742 0.0
O222 O 0.92472 0.05229 0.66403 0.0
O223 O 0.91447 0.11541 0.63227 0.0
Zn224 Zn 0.88366 0.07779 0.62055 0.0
O225 O 0.90743 0.04948 0.59397 0.0
C226 C 0.84909 0.11559 0.57599 0.0
O227 O 0.87262 0.13562 0.5821 0.0
O228 O 0.8733 0.04957 0.6603 0.0
C229 C 0.90827 0.04916 0.56361 0.0
O230 O 0.89274 0.06904 0.54715 0.0
C231 C 0.93827 0.1229 0.61498 0.0
O232 O 0.94242 0.10733 0.58843 0.0
O233 O 0.84708 0.0897 0.59124 0.0
C234 C 0.61868 0.21356 0.33218 0.0
O235 O 0.62878 0.2092 0.30293 0.0
O236 O 0.64098 0.12361 0.32474 0.0
Zn237 Zn 0.66067 0.1635 0.34697 0.0
O238 O 0.69324 0.18193 0.31769 0.0
C239 C 0.70478 0.13477 0.39344 0.0
O240 O 0.70711 0.11212 0.37262 0.0
O241 O 0.62879 0.19693 0.35481 0.0
C242 C 0.71213 0.16466 0.30416 0.0
O243 O 0.70907 0.13421 0.30794 0.0
C244 C 0.63876 0.12182 0.29422 0.0
O245 O 0.64762 0.14636 0.27687 0.0
O246 O 0.68591 0.15596 0.38808 0.0
C247 C 0.60518 0.93683 0.15348 0.0
O248 O 0.5834 0.9141 0.15537 0.0
O249 O 0.58004 0.87536 0.09339 0.0
Zn250 Zn 0.61315 0.91163 0.08797 0.0
O251 O 0.59433 0.94156 0.05884 0.0
C252 C 0.6545 0.86752 0.06061 0.0
O253 O 0.63604 0.84756 0.07662 0.0
O254 O 0.62246 0.93852 0.12866 0.0
C255 C 0.57759 0.93301 0.03511 0.0
O256 O 0.57336 0.90315 0.02818 0.0
C257 C 0.55132 0.87945 0.09722 0.0
O258 O 0.54243 0.90796 0.1008 0.0
O259 O 0.65068 0.89662 0.06326 0.0
C260 C 0.90396 0.74461 0.85563 0.0
O261 O 0.89127 0.75067 0.82791 0.0
O262 O 0.88266 0.83168 0.84334 0.0
Zn263 Zn 0.86594 0.79415 0.87078 0.0
O264 O 0.83257 0.77211 0.8458 0.0
C265 C 0.81861 0.82308 0.90617 0.0
O266 O 0.81373 0.8351 0.87782 0.0
O267 O 0.89776 0.76146 0.87966 0.0
C268 C 0.81146 0.75503 0.85954 0.0
O269 O 0.8133 0.74945 0.89041 0.0
C270 C 0.86726 0.84135 0.81955 0.0
O271 O 0.84033 0.82704 0.81261 0.0
O272 O 0.84221 0.80711 0.91027 0.0
C273 C 0.39385 0.54797 0.16651 0.0
O274 O 0.42028 0.54268 0.15279 0.0
O275 O 0.42891 0.63735 0.14156 0.0
Zn276 Zn 0.39807 0.60269 0.12329 0.0
O277 O 0.42437 0.57631 0.0975 0.0
C278 C 0.35918 0.60839 0.06492 0.0
O279 O 0.37315 0.58351 0.05601 0.0
O280 O 0.37961 0.57195 0.15817 0.0
C281 C 0.44918 0.5859 0.08347 0.0
O282 O 0.45751 0.61591 0.0828 0.0
C283 C 0.44995 0.62959 0.16087 0.0
O284 O 0.44921 0.60052 0.17087 0.0
O285 O 0.36543 0.62024 0.09251 0.0
C286 C 0.1221 0.72844 0.87871 0.0
O287 O 0.15208 0.73476 0.88188 0.0
O288 O 0.12852 0.62588 0.85088 0.0
Zn289 Zn 0.14526 0.66796 0.86881 0.0
O290 O 0.17715 0.68566 0.83856 0.0
C291 C 0.19543 0.64747 0.9078 0.0
O292 O 0.19971 0.63118 0.88173 0.0
O293 O 0.11231 0.70018 0.87357 0.0
C294 C 0.19176 0.67019 0.81827 0.0
O295 O 0.18386 0.64056 0.81317 0.0
C296 C 0.11674 0.62121 0.82319 0.0
O297 O 0.11425 0.64511 0.80389 0.0
O298 O 0.17164 0.66359 0.9095 0.0
C299 C 0.15118 0.46139 0.64239 0.0
O300 O 0.1618 0.47927 0.61876 0.0
O301 O 0.08724 0.37947 0.60576 0.0
Zn302 Zn 0.12023 0.41373 0.59526 0.0
O303 O 0.09921 0.44506 0.56976 0.0
C304 C 0.14916 0.36614 0.55812 0.0
O305 O 0.12957 0.3467 0.57334 0.0
O306 O 0.13717 0.43482 0.63627 0.0
C307 C 0.07961 0.43405 0.54945 0.0
O308 O 0.07466 0.40363 0.54655 0.0
C309 C 0.06378 0.38086 0.62394 0.0
O310 O 0.06031 0.40622 0.64085 0.0
O311 O 0.15029 0.39519 0.56472 0.0
C312 C 0.20057 0.3568 0.62498 0.0
O313 O 0.20782 0.33344 0.64324 0.0
O314 O 0.10191 0.32038 0.64306 0.0
Zn315 Zn 0.13973 0.34669 0.66004 0.0
O316 O 0.1607 0.31481 0.68416 0.0
C317 C 0.09769 0.37326 0.70801 0.0
O318 O 0.07742 0.35129 0.69808 0.0
O319 O 0.17315 0.36658 0.6273 0.0
C320 C 0.1734 0.3192 0.71123 0.0
O321 O 0.17372 0.34686 0.72479 0.0
C322 C 0.10278 0.29342 0.63029 0.0
O323 O 0.12958 0.28362 0.62127 0.0
O324 O 0.12429 0.37669 0.69447 0.0
C325 C 0.29425 0.66513 0.12769 0.0
O326 O 0.29658 0.69353 0.13958 0.0
O327 O 0.38672 0.68917 0.13288 0.0
Zn328 Zn 0.35387 0.66339 0.15913 0.0
O329 O 0.33827 0.692 0.1916 0.0
C330 C 0.37936 0.63334 0.21495 0.0
O331 O 0.38438 0.6623 0.2248 0.0
O332 O 0.31638 0.64738 0.13227 0.0
C333 C 0.31844 0.68215 0.21222 0.0
O334 O 0.30714 0.65297 0.2111 0.0
C335 C 0.3838 0.71854 0.13057 0.0
O336 O 0.35957 0.73039 0.14366 0.0
O337 O 0.36965 0.62827 0.18644 0.0
C338 C 0.5435 0.65534 0.59987 0.0
O339 O 0.52875 0.62856 0.59256 0.0
O340 O 0.60193 0.58921 0.61081 0.0
Zn341 Zn 0.59543 0.62233 0.57727 0.0
O342 O 0.56648 0.60388 0.54467 0.0
C343 C 0.64195 0.60464 0.53966 0.0
O344 O 0.62425 0.58004 0.54847 0.0
O345 O 0.57289 0.6584 0.59657 0.0
C346 C 0.55287 0.6208 0.52487 0.0
O347 O 0.55723 0.65138 0.52611 0.0
C348 C 0.58178 0.56762 0.61887 0.0
O349 O 0.55393 0.56686 0.60624 0.0
O350 O 0.63608 0.63102 0.55154 0.0
C351 C 0.93171 0.36345 0.13424 0.0
O352 O 0.91181 0.37343 0.15492 0.0
O353 O 0.8994 0.44396 0.11502 0.0
Zn354 Zn 0.91532 0.41182 0.08456 0.0
O355 O 0.95087 0.42953 0.05786 0.0
C356 C 0.8675 0.41578 0.03679 0.0
O357 O 0.87816 0.44519 0.03726 0.0
O358 O 0.93471 0.37598 0.10673 0.0
C359 C 0.95507 0.41859 0.03001 0.0
O360 O 0.93426 0.39851 0.01753 0.0
C361 C 0.91473 0.46675 0.12837 0.0
O362 O 0.94483 0.47035 0.12403 0.0
O363 O 0.87967 0.39643 0.05538 0.0
C364 C 0.63491 0.71233 0.61611 0.0
O365 O 0.66247 0.72324 0.62558 0.0
O366 O 0.68934 0.64468 0.61375 0.0
Zn367 Zn 0.65676 0.65773 0.64424 0.0
O368 O 0.67567 0.68663 0.6766 0.0
C369 C 0.65946 0.61312 0.69209 0.0
O370 O 0.68769 0.62641 0.69097 0.0
O371 O 0.6265 0.68363 0.62087 0.0
C372 C 0.65829 0.69361 0.69971 0.0
O373 O 0.62912 0.68291 0.69997 0.0
C374 C 0.69656 0.61691 0.60812 0.0
O375 O 0.6819 0.59344 0.62314 0.0
O376 O 0.63968 0.62113 0.67146 0.0
C377 C 0.4487 0.36547 0.40126 0.0
O378 O 0.45512 0.37901 0.42889 0.0
O379 O 0.36016 0.39986 0.42903 0.0
Zn380 Zn 0.39695 0.40993 0.39709 0.0
O381 O 0.42325 0.44218 0.42026 0.0
C382 C 0.36008 0.45051 0.3559 0.0
O383 O 0.33911 0.44389 0.3781 0.0
O384 O 0.42516 0.37368 0.38534 0.0
C385 C 0.40906 0.46543 0.42996 0.0
O386 O 0.37883 0.46501 0.42696 0.0
C387 C 0.3616 0.38652 0.45644 0.0
O388 O 0.38732 0.37397 0.46471 0.0
O389 O 0.38505 0.43617 0.3567 0.0
C390 C 0.06656 0.60125 0.90482 0.0
O391 O 0.06552 0.5907 0.93438 0.0
O392 O 0.14892 0.58829 0.93559 0.0
Zn393 Zn 0.12839 0.57067 0.8943 0.0
O394 O 0.1114 0.52701 0.902 0.0
C395 C 0.16549 0.56329 0.82769 0.0
O396 O 0.19257 0.56995 0.81428 0.0
O397 O 0.08961 0.59582 0.88702 0.0
C398 C 0.12533 0.50208 0.90538 0.0
O399 O 0.15565 0.50279 0.90301 0.0
C400 C 0.16083 0.57376 0.95878 0.0
O401 O 0.1616 0.54324 0.95752 0.0
O402 O 0.16114 0.57256 0.85658 0.0
C403 C 0.40075 0.26812 0.34568 0.0
O404 O 0.38053 0.26333 0.32247 0.0
O405 O 0.36446 0.34981 0.33277 0.0
Zn406 Zn 0.35823 0.31297 0.36324 0.0
O407 O 0.32654 0.28415 0.34358 0.0
C408 C 0.3163 0.34256 0.4047 0.0
O409 O 0.31112 0.35827 0.37848 0.0
O410 O 0.39651 0.2891 0.3666 0.0
C411 C 0.30317 0.27056 0.35721 0.0
O412 O 0.29991 0.27233 0.38841 0.0
C413 C 0.34241 0.35509 0.3137 0.0
O414 O 0.31663 0.33719 0.31466 0.0
O415 O 0.33865 0.32459 0.40525 0.0
H416 H 0.0374 0.10215 0.96608 0.0
H417 H 0.07982 0.03776 0.0304 0.0
H418 H 0.05782 0.99339 0.99901 0.0
H419 H 0.96843 0.06175 0.96018 0.0
H420 H 0.961 0.06868 0.91837 0.0
H421 H 0.98582 0.09606 0.94057 0.0
H422 H 0.03008 0.09008 0.89962 0.0
H423 H 0.00523 0.06283 0.87697 0.0
H424 H 0.0425 0.05173 0.8906 0.0
H425 H 0.02313 0.95735 0.97069 0.0
H426 H 0.97939 0.93004 0.94297 0.0
H427 H 0.96001 0.01542 0.89335 0.0
C428 C 0.04281 0.0787 0.97274 0.0
C429 C 0.06007 0.07318 1.00057 0.0
C430 C 0.06633 0.04234 0.00924 0.0
C431 C 0.05425 0.01702 0.99138 0.0
C432 C 0.03621 0.02301 0.96484 0.0
C433 C 0.03072 0.053 0.95514 0.0
C434 C 0.00715 0.05255 0.92825 0.0
C435 C 0.97894 0.07083 0.93742 0.0
C436 C 0.02215 0.06503 0.897 0.0
C437 C 0.99874 0.01778 0.92612 0.0
C438 C 0.01629 0.00129 0.94713 0.0
C439 C 0.01001 0.96966 0.95323 0.0
C440 C 0.98499 0.95441 0.9376 0.0
C441 C 0.96695 0.97065 0.91578 0.0
C442 C 0.97419 0.00253 0.90938 0.0
H443 H 0.27086 0.67196 0.25496 0.0
H444 H 0.34212 0.74143 0.22367 0.0
H445 H 0.32101 0.78008 0.25962 0.0
H446 H 0.21165 0.71925 0.2542 0.0
H447 H 0.19173 0.70388 0.28933 0.0
H448 H 0.21603 0.67953 0.26676 0.0
H449 H 0.248 0.66923 0.31775 0.0
H450 H 0.22356 0.69345 0.34065 0.0
H451 H 0.26495 0.70179 0.3404 0.0
H452 H 0.28714 0.81328 0.28886 0.0
H453 H 0.2431 0.83889 0.31255 0.0
H454 H 0.19444 0.74846 0.32758 0.0
C455 C 0.28254 0.69504 0.25645 0.0
C456 C 0.30798 0.70378 0.23655 0.0
C457 C 0.32247 0.73429 0.23868 0.0
C458 C 0.31083 0.75635 0.25922 0.0
C459 C 0.28501 0.74738 0.27771 0.0
C460 C 0.2712 0.71738 0.27691 0.0
C461 C 0.24154 0.71493 0.29627 0.0
C462 C 0.21361 0.70376 0.27538 0.0
C463 C 0.24472 0.69358 0.32551 0.0
C464 C 0.23988 0.74867 0.30626 0.0
C465 C 0.2655 0.76684 0.29573 0.0
C466 C 0.26742 0.79928 0.29816 0.0
C467 C 0.24228 0.8136 0.3113 0.0
C468 C 0.21587 0.7954 0.32197 0.0
C469 C 0.2149 0.76259 0.32025 0.0
H470 H 0.48632 0.9568 0.53134 0.0
H471 H 0.39778 0.97827 0.49069 0.0
H472 H 0.42512 0.01209 0.45014 0.0
H473 H 0.5227 0.03277 0.52323 0.0
H474 H 0.56013 0.01889 0.51394 0.0
H475 H 0.53333 0.9956 0.5385 0.0
H476 H 0.53701 0.94897 0.49938 0.0
H477 H 0.56367 0.97221 0.47453 0.0
H478 H 0.52863 0.95421 0.45749 0.0
H479 H 0.46271 0.04301 0.41391 0.0
H480 H 0.5073 0.07252 0.38819 0.0
H481 H 0.56978 0.03112 0.45485 0.0
C482 C 0.47262 0.96847 0.51383 0.0
C483 C 0.44006 0.96489 0.51386 0.0
C484 C 0.42286 0.98085 0.49093 0.0
C485 C 0.43814 0.99988 0.46778 0.0
C486 C 0.47041 0.00263 0.46825 0.0
C487 C 0.48737 0.98758 0.49092 0.0
C488 C 0.52167 0.99528 0.48737 0.0
C489 C 0.53524 0.01162 0.51755 0.0
C490 C 0.53874 0.96592 0.4792 0.0
C491 C 0.52144 0.01733 0.45932 0.0
C492 C 0.49178 0.02099 0.44822 0.0
C493 C 0.48604 0.04036 0.42238 0.0
C494 C 0.51138 0.05686 0.4079 0.0
C495 C 0.54167 0.05403 0.41984 0.0
C496 C 0.54672 0.03379 0.44552 0.0
H497 H 0.29374 0.24311 0.82612 0.0
H498 H 0.28203 0.16002 0.76674 0.0
H499 H 0.24058 0.18385 0.73669 0.0
H500 H 0.21187 0.26101 0.82842 0.0
H501 H 0.22086 0.30259 0.82594 0.0
H502 H 0.24764 0.27791 0.84493 0.0
H503 H 0.2913 0.29933 0.80666 0.0
H504 H 0.26471 0.32406 0.78762 0.0
H505 H 0.28532 0.297 0.76396 0.0
H506 H 0.20323 0.2171 0.71136 0.0
H507 H 0.17327 0.25919 0.68999 0.0
H508 H 0.20966 0.32138 0.76513 0.0
C509 C 0.28214 0.2298 0.80708 0.0
C510 C 0.2909 0.19977 0.79873 0.0
C511 C 0.27562 0.18315 0.7734 0.0
C512 C 0.25195 0.19636 0.75637 0.0
C513 C 0.24399 0.2261 0.76504 0.0
C514 C 0.25863 0.24272 0.78967 0.0
C515 C 0.24715 0.27516 0.79254 0.0
C516 C 0.23091 0.2794 0.82488 0.0
C517 C 0.2737 0.30036 0.78737 0.0
C518 C 0.22427 0.27438 0.76515 0.0
C519 C 0.22255 0.24569 0.74996 0.0
C520 C 0.20412 0.2396 0.72316 0.0
C521 C 0.18728 0.26371 0.71119 0.0
C522 C 0.18924 0.29355 0.72593 0.0
C523 C 0.20758 0.29875 0.75355 0.0
H524 H 0.01765 0.99416 0.42398 0.0
H525 H 0.05039 0.92679 0.49187 0.0
H526 H 0.01413 0.94444 0.53233 0.0
H527 H 0.00882 0.05543 0.48202 0.0
H528 H 0.97454 0.06889 0.46339 0.0
H529 H 0.00309 0.05086 0.43946 0.0
H530 H 0.96063 0.01043 0.41862 0.0
H531 H 0.93201 0.02814 0.44274 0.0
H532 H 0.93768 0.98706 0.44691 0.0
H533 H 0.97482 0.96845 0.56513 0.0
H534 H 0.93598 1.00018 0.59008 0.0
H535 H 0.92848 0.05232 0.50138 0.0
C536 C 0.0172 0.98318 0.44736 0.0
C537 C 0.03672 0.95909 0.45476 0.0
C538 C 0.03565 0.94537 0.48568 0.0
C539 C 0.01507 0.9551 0.50881 0.0
C540 C 0.99589 0.97862 0.50066 0.0
C541 C 0.99689 0.99273 0.47087 0.0
C542 C 0.97416 0.01802 0.46872 0.0
C543 C 0.99117 0.0502 0.46308 0.0
C544 C 0.94967 0.01044 0.44271 0.0
C545 C 0.96015 0.01567 0.50192 0.0
C546 C 0.97304 0.99273 0.51984 0.0
C547 C 0.96447 0.98649 0.55141 0.0
C548 C 0.94242 0.00463 0.56532 0.0
C549 C 0.92928 0.02864 0.54759 0.0
C550 C 0.93795 0.03392 0.51536 0.0
H551 H 0.29982 0.73237 0.67745 0.0
H552 H 0.34109 0.79769 0.74692 0.0
H553 H 0.3161 0.76699 0.79069 0.0
H554 H 0.22939 0.72655 0.71038 0.0
H555 H 0.21994 0.68558 0.70324 0.0
H556 H 0.24736 0.70686 0.67779 0.0
H557 H 0.28863 0.66743 0.69031 0.0
H558 H 0.26111 0.64566 0.71559 0.0
H559 H 0.29831 0.65943 0.73138 0.0
H560 H 0.27904 0.73816 0.8246 0.0
H561 H 0.23272 0.71053 0.84794 0.0
H562 H 0.21442 0.66242 0.75789 0.0
C563 C 0.30454 0.73929 0.70201 0.0
C564 C 0.32236 0.7671 0.70907 0.0
C565 C 0.32741 0.77633 0.74124 0.0
C566 C 0.31356 0.75893 0.76622 0.0
C567 C 0.29484 0.73238 0.75854 0.0
C568 C 0.29048 0.72227 0.72728 0.0
C569 C 0.26548 0.69589 0.72534 0.0
C570 C 0.23899 0.70425 0.70288 0.0
C571 C 0.27921 0.66528 0.71505 0.0
C572 C 0.25508 0.69436 0.75997 0.0
C573 C 0.27287 0.71517 0.77873 0.0
C574 C 0.26547 0.72111 0.81049 0.0
C575 C 0.23897 0.70564 0.82338 0.0
C576 C 0.22033 0.6845 0.80454 0.0
C577 C 0.22882 0.67813 0.77276 0.0
H578 H 0.42642 0.99435 0.95502 0.0
H579 H 0.46487 0.08831 0.97588 0.0
H580 H 0.51227 0.06673 0.99664 0.0
H581 H 0.45681 0.95777 0.02483 0.0
H582 H 0.4646 0.92227 0.00407 0.0
H583 H 0.43367 0.94524 0.99072 0.0
H584 H 0.45807 0.94833 0.93395 0.0
H585 H 0.48935 0.92576 0.94728 0.0
H586 H 0.49766 0.96357 0.9292 0.0
H587 H 0.55492 0.03562 0.0154 0.0
H588 H 0.58936 0.99608 0.03476 0.0
H589 H 0.52392 0.92225 0.00102 0.0
C590 C 0.4447 0.01035 0.96418 0.0
C591 C 0.44199 0.04298 0.96383 0.0
C592 C 0.46648 0.0632 0.97589 0.0
C593 C 0.49355 0.05122 0.98759 0.0
C594 C 0.49575 0.01902 0.98699 0.0
C595 C 0.47197 0.99881 0.97587 0.0
C596 C 0.48016 0.96512 0.97848 0.0
C597 C 0.45747 0.94651 0.00087 0.0
C598 C 0.48139 0.9498 0.94524 0.0
C599 C 0.51213 0.96963 0.99313 0.0
C600 C 0.52069 0.00093 0.99762 0.0
C601 C 0.54861 0.01102 0.01191 0.0
C602 C 0.568 0.98842 0.02276 0.0
C603 C 0.5593 0.9562 0.01921 0.0
C604 C 0.53135 0.94673 0.00356 0.0
H605 H 0.30602 0.25651 0.29436 0.0
H606 H 0.24155 0.26375 0.37341 0.0
H607 H 0.19772 0.25871 0.33519 0.0
H608 H 0.26631 0.30269 0.23954 0.0
H609 H 0.27517 0.2795 0.20512 0.0
H610 H 0.30128 0.28202 0.23876 0.0
H611 H 0.29773 0.22156 0.24465 0.0
H612 H 0.27272 0.21889 0.21024 0.0
H613 H 0.26015 0.20092 0.2475 0.0
H614 H 0.16168 0.25363 0.28816 0.0
H615 H 0.1355 0.24008 0.23704 0.0
H616 H 0.22466 0.24002 0.18939 0.0
C617 C 0.28266 0.25657 0.30376 0.0
C618 C 0.27701 0.26053 0.33669 0.0
C619 C 0.24622 0.2604 0.34819 0.0
C620 C 0.22131 0.25808 0.32666 0.0
C621 C 0.22792 0.25609 0.29405 0.0
C622 C 0.25781 0.25476 0.28277 0.0
C623 C 0.25896 0.25204 0.24681 0.0
C624 C 0.27647 0.28078 0.23168 0.0
C625 C 0.27321 0.22154 0.23672 0.0
C626 C 0.22484 0.25135 0.23945 0.0
C627 C 0.20731 0.25415 0.26696 0.0
C628 C 0.1751 0.25171 0.26644 0.0
C629 C 0.16049 0.24425 0.23734 0.0
C630 C 0.17823 0.23926 0.20949 0.0
C631 C 0.21062 0.24448 0.2102 0.0
H632 H 0.49837 0.59606 0.04232 0.0
H633 H 0.44509 0.52335 0.09484 0.0
H634 H 0.47729 0.48384 0.07216 0.0
H635 H 0.50319 0.55426 0.97205 0.0
H636 H 0.54204 0.56853 0.96167 0.0
H637 H 0.51834 0.592 0.98603 0.0
H638 H 0.56077 0.59502 0.02997 0.0
H639 H 0.58459 0.57135 0.00571 0.0
H640 H 0.57459 0.55945 0.04604 0.0
H641 H 0.50941 0.45175 0.03948 0.0
H642 H 0.53889 0.42835 0.99618 0.0
H643 H 0.57238 0.52085 0.9644 0.0
C644 C 0.49396 0.5719 0.0495 0.0
C645 C 0.46937 0.56278 0.07039 0.0
C646 C 0.46383 0.53089 0.07883 0.0
C647 C 0.48217 0.50826 0.06633 0.0
C648 C 0.50598 0.51788 0.0455 0.0
C649 C 0.51198 0.54887 0.03702 0.0
C650 C 0.53672 0.55232 0.01135 0.0
C651 C 0.52431 0.56767 0.98099 0.0
C652 C 0.5659 0.57062 0.02404 0.0
C653 C 0.54254 0.51832 0.00579 0.0
C654 C 0.52497 0.49897 0.02626 0.0
C655 C 0.52382 0.46656 0.02373 0.0
C656 C 0.54047 0.45352 0.99903 0.0
C657 C 0.55792 0.47291 0.97731 0.0
C658 C 0.55973 0.50562 0.98127 0.0
H659 H 0.81618 0.3068 0.23436 0.0
H660 H 0.83104 0.24896 0.15141 0.0
H661 H 0.80714 0.20289 0.17999 0.0
H662 H 0.82421 0.24583 0.29784 0.0
H663 H 0.79295 0.26026 0.32096 0.0
H664 H 0.81723 0.28682 0.29688 0.0
H665 H 0.76853 0.30497 0.26789 0.0
H666 H 0.74418 0.2784 0.29161 0.0
H667 H 0.74247 0.27637 0.24851 0.0
H668 H 0.77696 0.16484 0.21509 0.0
H669 H 0.73896 0.13861 0.2523 0.0
H670 H 0.74021 0.22275 0.31003 0.0
C671 C 0.81529 0.28415 0.22278 0.0
C672 C 0.82568 0.28097 0.19111 0.0
C673 C 0.82325 0.25148 0.1759 0.0
C674 C 0.80996 0.22526 0.19198 0.0
C675 C 0.79901 0.22923 0.223 0.0
C676 C 0.80137 0.25799 0.2382 0.0
C677 C 0.78373 0.25713 0.26947 0.0
C678 C 0.80586 0.26284 0.29797 0.0
C679 C 0.75822 0.28059 0.26933 0.0
C680 C 0.77017 0.22378 0.26891 0.0
C681 C 0.77996 0.20777 0.24243 0.0
C682 C 0.76939 0.17698 0.23612 0.0
C683 C 0.74785 0.16232 0.25727 0.0
C684 C 0.73674 0.17886 0.28373 0.0
C685 C 0.74837 0.20972 0.28982 0.0
H686 H 0.02333 0.42126 0.52168 0.0
H687 H 0.09706 0.49411 0.53277 0.0
H688 H 0.06812 0.52925 0.49866 0.0
H689 H 0.00366 0.43734 0.4399 0.0
H690 H 0.96258 0.42995 0.44606 0.0
H691 H 0.98958 0.41013 0.47035 0.0
H692 H 0.96437 0.43098 0.52177 0.0
H693 H 0.93724 0.45081 0.49766 0.0
H694 H 0.96114 0.47244 0.52643 0.0
H695 H 0.0321 0.55564 0.46287 0.0
H696 H 0.98904 0.57385 0.43084 0.0
H697 H 0.93728 0.4847 0.44554 0.0
C698 C 0.03344 0.44455 0.51671 0.0
C699 C 0.06243 0.45505 0.52948 0.0
C700 C 0.07481 0.48577 0.52309 0.0
C701 C 0.05864 0.50578 0.5037 0.0
C702 C 0.03009 0.49469 0.49141 0.0
C703 C 0.0174 0.46496 0.49792 0.0
C704 C 0.9857 0.45933 0.48293 0.0
C705 C 0.98538 0.4326 0.45834 0.0
C706 C 0.96064 0.45303 0.50874 0.0
C707 C 0.98264 0.49052 0.46679 0.0
C708 C 0.00865 0.51042 0.47174 0.0
C709 C 0.01154 0.54037 0.45888 0.0
C710 C 0.987 0.55041 0.44066 0.0
C711 C 0.95985 0.53063 0.43583 0.0
C712 C 0.95771 0.50031 0.44901 0.0
H713 H 0.76985 0.69655 0.30593 0.0
H714 H 0.81786 0.75847 0.37434 0.0
H715 H 0.79206 0.8033 0.35144 0.0
H716 H 0.7775 0.74512 0.24105 0.0
H717 H 0.73993 0.73464 0.22411 0.0
H718 H 0.75862 0.70712 0.24878 0.0
H719 H 0.71084 0.70241 0.28652 0.0
H720 H 0.69176 0.72966 0.26167 0.0
H721 H 0.6966 0.73719 0.30391 0.0
H722 H 0.76653 0.84198 0.31571 0.0
H723 H 0.73995 0.87043 0.27311 0.0
H724 H 0.70872 0.78177 0.23005 0.0
C725 C 0.7744 0.71943 0.31655 0.0
C726 C 0.79574 0.72425 0.34173 0.0
C727 C 0.80129 0.75442 0.3551 0.0
C728 C 0.78684 0.77996 0.34224 0.0
C729 C 0.76663 0.77457 0.31655 0.0
C730 C 0.76002 0.74491 0.30429 0.0
C731 C 0.73909 0.74533 0.27549 0.0
C732 C 0.75474 0.7323 0.24561 0.0
C733 C 0.70771 0.72761 0.28233 0.0
C734 C 0.73582 0.77998 0.27269 0.0
C735 C 0.75165 0.79659 0.29657 0.0
C736 C 0.75355 0.82919 0.29725 0.0
C737 C 0.73863 0.84512 0.27291 0.0
C738 C 0.7222 0.82825 0.2485 0.0
C739 C 0.72075 0.79534 0.24865 0.0
H740 H 0.76017 0.17511 0.75707 0.0
H741 H 0.82537 0.24509 0.71518 0.0
H742 H 0.79896 0.28656 0.7424 0.0
H743 H 0.6937 0.21787 0.75097 0.0
H744 H 0.67728 0.20551 0.78897 0.0
H745 H 0.70224 0.18063 0.76773 0.0
H746 H 0.73814 0.17902 0.81734 0.0
H747 H 0.71315 0.20377 0.83885 0.0
H748 H 0.75383 0.21514 0.83471 0.0
H749 H 0.76336 0.32045 0.76897 0.0
H750 H 0.7223 0.34549 0.79851 0.0
H751 H 0.68161 0.25424 0.82636 0.0
C752 C 0.76901 0.19914 0.75398 0.0
C753 C 0.79472 0.20693 0.73408 0.0
C754 C 0.80578 0.23859 0.73052 0.0
C755 C 0.79094 0.26235 0.7458 0.0
C756 C 0.76543 0.25399 0.76489 0.0
C757 C 0.75475 0.22322 0.76951 0.0
C758 C 0.72654 0.22093 0.79107 0.0
C759 C 0.69828 0.20532 0.77363 0.0
C760 C 0.73333 0.2037 0.82235 0.0
C761 C 0.72268 0.25526 0.79702 0.0
C762 C 0.74536 0.27383 0.78156 0.0
C763 C 0.74572 0.30627 0.78167 0.0
C764 C 0.72226 0.32022 0.79828 0.0
C765 C 0.69912 0.30166 0.81471 0.0
C766 C 0.69941 0.26882 0.8143 0.0
H767 H 0.80353 0.75949 0.79539 0.0
H768 H 0.75619 0.72899 0.88284 0.0
H769 H 0.70838 0.71601 0.85167 0.0
H770 H 0.7384 0.79386 0.75746 0.0
H771 H 0.74891 0.78075 0.71814 0.0
H772 H 0.77851 0.78944 0.74777 0.0
H773 H 0.79803 0.73378 0.7413 0.0
H774 H 0.76889 0.72518 0.71135 0.0
H775 H 0.77101 0.70025 0.74597 0.0
H776 H 0.66677 0.70429 0.81015 0.0
H777 H 0.63684 0.68952 0.76138 0.0
H778 H 0.71241 0.72871 0.70244 0.0
C779 C 0.78311 0.75022 0.80812 0.0
C780 C 0.78344 0.74525 0.84145 0.0
C781 C 0.75636 0.73282 0.85719 0.0
C782 C 0.72907 0.72571 0.83978 0.0
C783 C 0.72948 0.73138 0.80689 0.0
C784 C 0.75592 0.74312 0.79127 0.0
C785 C 0.75124 0.74521 0.75559 0.0
C786 C 0.75445 0.77935 0.74408 0.0
C787 C 0.7736 0.72488 0.73751 0.0
C788 C 0.71819 0.73196 0.75334 0.0
C789 C 0.70575 0.72463 0.78315 0.0
C790 C 0.67611 0.71026 0.78671 0.0
C791 C 0.65925 0.70213 0.75894 0.0
C792 C 0.67248 0.70807 0.72834 0.0
C793 C 0.70178 0.72409 0.72562 0.0
H794 H 0.47065 0.47237 0.44408 0.0
H795 H 0.38655 0.52242 0.44176 0.0
H796 H 0.41617 0.57046 0.45952 0.0
H797 H 0.50043 0.50621 0.51468 0.0
H798 H 0.54027 0.50756 0.50173 0.0
H799 H 0.51283 0.47829 0.48587 0.0
H800 H 0.52694 0.49683 0.42817 0.0
H801 H 0.55419 0.52649 0.44397 0.0
H802 H 0.52376 0.53724 0.41746 0.0
H803 H 0.45454 0.6123 0.47985 0.0
H804 H 0.49759 0.64276 0.507 0.0
H805 H 0.55544 0.56449 0.4968 0.0
C806 C 0.45849 0.49349 0.44705 0.0
C807 C 0.42641 0.49378 0.44149 0.0
C808 C 0.4112 0.52174 0.44597 0.0
C809 C 0.42784 0.54919 0.45574 0.0
C810 C 0.45956 0.54816 0.46082 0.0
C811 C 0.47465 0.52095 0.45689 0.0
C812 C 0.50832 0.52528 0.4663 0.0
C813 C 0.51588 0.50303 0.49378 0.0
C814 C 0.52955 0.52122 0.43724 0.0
C815 C 0.50955 0.55888 0.47719 0.0
C816 C 0.48145 0.57199 0.47313 0.0
C817 C 0.47677 0.60244 0.48284 0.0
C818 C 0.50128 0.61959 0.49802 0.0
C819 C 0.52956 0.60578 0.50369 0.0
C820 C 0.53395 0.57546 0.49248 0.0
H821 H 0.06694 0.47998 0.89138 0.0
H822 H 0.14346 0.46788 0.95607 0.0
H823 H 0.10796 0.43867 0.99344 0.0
H824 H 0.01537 0.49758 0.94495 0.0
H825 H 0.98148 0.47693 0.92827 0.0
H826 H 0.0133 0.48933 0.90261 0.0
H827 H 0.01834 0.4327 0.88286 0.0
H828 H 0.98564 0.42004 0.90755 0.0
H829 H 0.0218 0.40173 0.91163 0.0
H830 H 0.06285 0.42485 0.02917 0.0
H831 H 0.01217 0.41669 0.05657 0.0
H832 H 0.96499 0.43393 0.96738 0.0
C833 C 0.07642 0.46958 0.91257 0.0
C834 C 0.10781 0.47577 0.92086 0.0
C835 C 0.11955 0.46273 0.9491 0.0
C836 C 0.09948 0.44636 0.97056 0.0
C837 C 0.06809 0.4426 0.9628 0.0
C838 C 0.05678 0.45278 0.93389 0.0
C839 C 0.02176 0.44863 0.93261 0.0
C840 C 0.00716 0.47998 0.92678 0.0
C841 C 0.01127 0.42432 0.90716 0.0
C842 C 0.01498 0.43647 0.96606 0.0
C843 C 0.042 0.43313 0.98311 0.0
C844 C 0.04157 0.42627 0.01577 0.0
C845 C 0.0128 0.42212 0.03121 0.0
C846 C 0.98499 0.42453 0.01385 0.0
C847 C 0.98608 0.43145 0.98088 0.0
H848 H 0.0596 0.02978 0.1645 0.0
H849 H 0.15133 0.07317 0.14342 0.0
H850 H 0.17797 0.04173 0.1821 0.0
H851 H 0.05333 0.97761 0.26584 0.0
H852 H 0.04193 0.94694 0.24408 0.0
H853 H 0.03021 0.98459 0.23188 0.0
H854 H 0.03673 0.95387 0.18831 0.0
H855 H 0.06702 0.92814 0.19523 0.0
H856 H 0.06835 0.95877 0.16519 0.0
H857 H 0.19782 0.99451 0.2329 0.0
H858 H 0.20225 0.94779 0.2659 0.0
H859 H 0.1043 0.91761 0.2595 0.0
C860 C 0.08404 0.03276 0.17014 0.0
C861 C 0.10422 0.05499 0.15355 0.0
C862 C 0.1371 0.05724 0.15822 0.0
C863 C 0.15296 0.03959 0.18044 0.0
C864 C 0.13578 0.0196 0.20037 0.0
C865 C 0.09614 0.01452 0.19402 0.0
C866 C 0.07897 0.9756 0.21711 0.0
C867 C 0.05017 0.97197 0.24087 0.0
C868 C 0.0624 0.9529 0.19033 0.0
C869 C 0.11699 0.96213 0.23853 0.0
C870 C 0.14854 0.98767 0.22926 0.0
C871 C 0.17736 0.97982 0.23897 0.0
C872 C 0.17939 0.95248 0.25729 0.0
C873 C 0.15367 0.93115 0.26533 0.0
C874 C 0.12309 0.93481 0.25436 0.0
H875 H 0.30929 0.92154 0.54531 0.0
H876 H 0.35575 0.83782 0.51951 0.0
H877 H 0.31768 0.82108 0.4785 0.0
H878 H 0.23742 0.91952 0.54567 0.0
H879 H 0.20667 0.92848 0.51584 0.0
H880 H 0.23646 0.9539 0.52973 0.0
H881 H 0.28146 0.96212 0.4952 0.0
H882 H 0.24304 0.96659 0.47931 0.0
H883 H 0.26969 0.95282 0.45492 0.0
H884 H 0.26738 0.81965 0.42407 0.0
H885 H 0.23143 0.83515 0.38261 0.0
H886 H 0.20704 0.91946 0.43172 0.0
C887 C 0.30956 0.8998 0.5322 0.0
C888 C 0.33363 0.87915 0.5359 0.0
C889 C 0.336 0.85182 0.51642 0.0
C890 C 0.31402 0.84125 0.49324 0.0
C891 C 0.2878 0.85753 0.48953 0.0
C892 C 0.28564 0.89172 0.5114 0.0
C893 C 0.25229 0.91674 0.49439 0.0
C894 C 0.23155 0.92906 0.52236 0.0
C895 C 0.26258 0.95086 0.48028 0.0
C896 C 0.23576 0.88993 0.45865 0.0
C897 C 0.25642 0.85668 0.45558 0.0
C898 C 0.25372 0.83959 0.42777 0.0
C899 C 0.23349 0.84936 0.40402 0.0
C900 C 0.21657 0.87688 0.40582 0.0
C901 C 0.21854 0.89778 0.43206 0.0
H902 H 0.4392 0.08724 0.74919 0.0
H903 H 0.3427 0.06447 0.77311 0.0
H904 H 0.34058 0.02176 0.73365 0.0
H905 H 0.42983 0.06904 0.66276 0.0
H906 H 0.46749 0.05359 0.65968 0.0
H907 H 0.461 0.08399 0.68825 0.0
H908 H 0.48023 0.04934 0.73407 0.0
H909 H 0.48698 0.01925 0.70533 0.0
H910 H 0.46268 0.01047 0.73954 0.0
H911 H 0.34916 0.98025 0.69377 0.0
H912 H 0.36817 0.94185 0.65567 0.0
H913 H 0.45932 0.99066 0.65757 0.0
C914 C 0.41769 0.07317 0.7461 0.0
C915 C 0.39128 0.07871 0.76468 0.0
C916 C 0.36345 0.06006 0.75978 0.0
C917 C 0.36188 0.036 0.73713 0.0
C918 C 0.38834 0.03085 0.71949 0.0
C919 C 0.41577 0.04884 0.72362 0.0
C920 C 0.44102 0.03765 0.70205 0.0
C921 C 0.45037 0.06255 0.67668 0.0
C922 C 0.46935 0.02863 0.72143 0.0
C923 C 0.42399 0.00937 0.68686 0.0
C924 C 0.39347 0.00633 0.69674 0.0
C925 C 0.37306 0.98214 0.68599 0.0
C926 C 0.38414 0.96032 0.66457 0.0
C927 C 0.41533 0.9629 0.65408 0.0
C928 C 0.43541 0.98787 0.66537 0.0
H929 H 0.2671 0.07627 0.90004 0.0
H930 H 0.29861 0.17432 0.90163 0.0
H931 H 0.25917 0.18436 0.94252 0.0
H932 H 0.1846 0.08793 0.91396 0.0
H933 H 0.17915 0.05376 0.93903 0.0
H934 H 0.20776 0.05503 0.90756 0.0
H935 H 0.24893 0.04223 0.94872 0.0
H936 H 0.22176 0.04245 0.9814 0.0
H937 H 0.2568 0.06772 0.98225 0.0
H938 H 0.21625 0.18384 0.98275 0.0
H939 H 0.17559 0.17214 0.02337 0.0
H940 H 0.17555 0.07353 0.99988 0.0
C941 C 0.26564 0.09977 0.90918 0.0
C942 C 0.28586 0.12452 0.89803 0.0
C943 C 0.28344 0.15503 0.91026 0.0
C944 C 0.26094 0.161 0.93319 0.0
C945 C 0.24166 0.13603 0.94424 0.0
C946 C 0.24387 0.10598 0.93282 0.0
C947 C 0.22116 0.08317 0.94973 0.0
C948 C 0.19672 0.06915 0.92616 0.0
C949 C 0.23814 0.05738 0.96658 0.0
C950 C 0.20683 0.10491 0.97336 0.0
C951 C 0.21829 0.13543 0.96904 0.0
C952 C 0.20733 0.15998 0.98668 0.0
C953 C 0.18434 0.15309 0.0098 0.0
C954 C 0.17318 0.12186 0.01564 0.0
C955 C 0.18428 0.09759 0.99671 0.0
H956 H 0.10775 0.07568 0.21621 0.0
H957 H 0.18565 0.11917 0.26703 0.0
H958 H 0.18573 0.07352 0.30276 0.0
H959 H 0.07583 0.05593 0.25924 0.0
H960 H 0.06319 0.0231 0.27601 0.0
H961 H 0.05801 0.03025 0.23332 0.0
H962 H 0.11395 0.97693 0.16057 0.0
H963 H 0.11731 0.94432 0.18587 0.0
H964 H 0.14652 0.96941 0.17738 0.0
H965 H 0.17606 0.02844 0.33425 0.0
H966 H 0.15649 0.98298 0.36531 0.0
H967 H 0.08531 0.96281 0.29599 0.0
C968 C 0.12575 0.07457 0.23399 0.0
C969 C 0.14701 0.10037 0.23814 0.0
C970 C 0.1692 0.09948 0.2628 0.0
C971 C 0.16974 0.07333 0.28284 0.0
C972 C 0.14916 0.04747 0.27677 0.0
C973 C 0.12833 0.04666 0.25193 0.0
C974 C 0.10746 0.01375 0.24733 0.0
C975 C 0.07478 0.03058 0.25333 0.0
C976 C 0.1216 0.97052 0.18538 0.0
C977 C 0.11703 0.00298 0.28371 0.0
C978 C 0.14233 0.02075 0.29629 0.0
C979 C 0.15648 0.01403 0.32532 0.0
C980 C 0.14508 0.98831 0.34306 0.0
C981 C 0.11887 0.97012 0.33251 0.0
C982 C 0.10435 0.97816 0.30352 0.0
H983 H 0.28541 0.83645 0.54951 0.0
H984 H 0.24532 0.86384 0.63816 0.0
H985 H 0.19761 0.87583 0.60915 0.0
H986 H 0.28043 0.91041 0.43458 0.0
H987 H 0.30557 0.88625 0.44577 0.0
H988 H 0.30568 0.91878 0.46704 0.0
H989 H 0.2529 0.8121 0.50384 0.0
H990 H 0.21907 0.81854 0.48047 0.0
H991 H 0.21654 0.81467 0.52163 0.0
H992 H 0.15469 0.87979 0.5736 0.0
H993 H 0.11624 0.88337 0.53076 0.0
H994 H 0.18364 0.85783 0.4618 0.0
C995 C 0.26791 0.84844 0.56178 0.0
C996 C 0.26979 0.8511 0.5953 0.0
C997 C 0.24466 0.86224 0.61227 0.0
C998 C 0.21771 0.86933 0.5959 0.0
C999 C 0.21756 0.86813 0.56237 0.0
C1000 C 0.24361 0.86178 0.54474 0.0
C1001 C 0.23847 0.86387 0.50647 0.0
C1002 C 0.28789 0.90043 0.4581 0.0
C1003 C 0.23192 0.82566 0.50265 0.0
C1004 C 0.20234 0.87037 0.50904 0.0
C1005 C 0.1924 0.87295 0.54076 0.0
C1006 C 0.16168 0.87732 0.54888 0.0
C1007 C 0.13977 0.87861 0.52445 0.0
C1008 C 0.1481 0.87341 0.49234 0.0
C1009 C 0.17882 0.86671 0.48529 0.0
H1010 H 0.41139 0.00827 0.84013 0.0
H1011 H 0.32363 0.0514 0.84735 0.0
H1012 H 0.30076 0.01365 0.80803 0.0
H1013 H 0.41337 0.99259 0.76144 0.0
H1014 H 0.42648 0.95365 0.76204 0.0
H1015 H 0.4363 0.98035 0.79432 0.0
H1016 H 0.41184 0.94331 0.83658 0.0
H1017 H 0.40342 0.91475 0.80558 0.0
H1018 H 0.37283 0.9267 0.83126 0.0
H1019 H 0.28867 0.97438 0.7649 0.0
H1020 H 0.28702 0.93426 0.72257 0.0
H1021 H 0.38246 0.91568 0.74312 0.0
C1022 C 0.38728 0.00964 0.83362 0.0
C1023 C 0.36941 0.03324 0.84643 0.0
C1024 C 0.33785 0.03384 0.83766 0.0
C1025 C 0.3246 0.01232 0.81549 0.0
C1026 C 0.34303 0.98987 0.80277 0.0
C1027 C 0.3735 0.98789 0.812 0.0
C1028 C 0.38806 0.96126 0.79476 0.0
C1029 C 0.41782 0.9726 0.77707 0.0
C1030 C 0.3944 0.93495 0.81845 0.0
C1031 C 0.36209 0.95092 0.77189 0.0
C1032 C 0.33598 0.96699 0.77783 0.0
C1033 C 0.30884 0.96141 0.76026 0.0
C1034 C 0.30818 0.93861 0.73618 0.0
C1035 C 0.33464 0.92195 0.72938 0.0
C1036 C 0.36198 0.92827 0.74753 0.0
H1037 H 0.31152 0.07743 0.01795 0.0
H1038 H 0.32151 0.16769 0.97067 0.0
H1039 H 0.28256 0.18769 0.00746 0.0
H1040 H 0.23045 0.07347 0.03432 0.0
H1041 H 0.23491 0.05619 0.07307 0.0
H1042 H 0.26299 0.05033 0.04217 0.0
H1043 H 0.30564 0.07216 0.08211 0.0
H1044 H 0.27648 0.07928 0.11161 0.0
H1045 H 0.3031 0.1108 0.0985 0.0
H1046 H 0.23985 0.19672 0.04743 0.0
H1047 H 0.19801 0.19428 0.08808 0.0
H1048 H 0.2182 0.09907 0.11095 0.0
C1049 C 0.30561 0.10144 0.0153 0.0
C1050 C 0.31914 0.12081 0.99088 0.0
C1051 C 0.31113 0.15224 0.98879 0.0
C1052 C 0.28912 0.16385 0.00969 0.0
C1053 C 0.27572 0.14391 0.03298 0.0
C1054 C 0.28393 0.11346 0.03615 0.0
C1055 C 0.26671 0.09706 0.06371 0.0
C1056 C 0.24768 0.06751 0.05259 0.0
C1057 C 0.28933 0.08938 0.09057 0.0
C1058 C 0.24597 0.12232 0.07408 0.0
C1059 C 0.25191 0.14939 0.05652 0.0
C1060 C 0.23517 0.1757 0.06145 0.0
C1061 C 0.21127 0.17402 0.08435 0.0
C1062 C 0.20476 0.14643 0.10244 0.0
C1063 C 0.22264 0.12045 0.09741 0.0
H1064 H 0.8819 0.24111 0.09097 0.0
H1065 H 0.93389 0.32709 0.06416 0.0
H1066 H 0.98079 0.29779 0.05703 0.0
H1067 H 0.93583 0.21026 0.13776 0.0
H1068 H 0.9304 0.17001 0.12548 0.0
H1069 H 0.89884 0.19527 0.12297 0.0
H1070 H 0.89119 0.18519 0.063 0.0
H1071 H 0.92113 0.15788 0.06453 0.0
H1072 H 0.92383 0.18962 0.03612 0.0
H1073 H 0.0232 0.25886 0.05665 0.0
H1074 H 0.05688 0.21518 0.06403 0.0
H1075 H 0.977 0.15511 0.09265 0.0
C1076 C 0.90304 0.25375 0.0831 0.0
C1077 C 0.90429 0.28643 0.07812 0.0
C1078 C 0.9325 0.30211 0.06831 0.0
C1079 C 0.95928 0.28563 0.0643 0.0
C1080 C 0.95751 0.25355 0.07049 0.0
C1081 C 0.92997 0.23776 0.07936 0.0
C1082 C 0.93425 0.20352 0.08575 0.0
C1083 C 0.92429 0.19422 0.12002 0.0
C1084 C 0.91655 0.18284 0.06086 0.0
C1085 C 0.96892 0.20284 0.08103 0.0
C1086 C 0.9818 0.23168 0.07133 0.0
C1087 C 0.01337 0.23647 0.06485 0.0
C1088 C 0.03234 0.21143 0.069 0.0
C1089 C 0.01969 0.18182 0.07937 0.0
C1090 C 0.98746 0.17753 0.08506 0.0
H1091 H 0.49984 0.36066 0.82896 0.0
H1092 H 0.46955 0.36869 0.9274 0.0
H1093 H 0.43221 0.32332 0.91996 0.0
H1094 H 0.41673 0.33146 0.79842 0.0
H1095 H 0.43402 0.30749 0.76875 0.0
H1096 H 0.45298 0.34458 0.78 0.0
H1097 H 0.50172 0.31616 0.79152 0.0
H1098 H 0.48368 0.27768 0.78477 0.0
H1099 H 0.50103 0.28765 0.82303 0.0
H1100 H 0.4099 0.27072 0.90666 0.0
H1101 H 0.39293 0.21935 0.88438 0.0
H1102 H 0.43265 0.2469 0.79228 0.0
C1103 C 0.48446 0.35339 0.84845 0.0
C1104 C 0.48744 0.36778 0.87875 0.0
C1105 C 0.46732 0.3579 0.90398 0.0
C1106 C 0.44592 0.33235 0.89991 0.0
C1107 C 0.44429 0.31775 0.8701 0.0
C1108 C 0.46195 0.3287 0.84432 0.0
C1109 C 0.45686 0.30745 0.81551 0.0
C1110 C 0.43908 0.32371 0.78911 0.0
C1111 C 0.48764 0.29653 0.80283 0.0
C1112 C 0.4369 0.2809 0.83044 0.0
C1113 C 0.42954 0.28767 0.8618 0.0
C1114 C 0.4143 0.26564 0.88174 0.0
C1115 C 0.40521 0.23633 0.86898 0.0
C1116 C 0.41125 0.2293 0.83651 0.0
C1117 C 0.42735 0.2519 0.81703 0.0
H1118 H 0.99055 0.65376 0.30207 0.0
H1119 H 0.95983 0.6686 0.39963 0.0
H1120 H 1.00021 0.71087 0.4059 0.0
H1121 H 0.07335 0.6737 0.32237 0.0
H1122 H 0.08212 0.69133 0.28395 0.0
H1123 H 0.0526 0.65978 0.28721 0.0
H1124 H 0.01219 0.69417 0.26119 0.0
H1125 H 0.04254 0.72467 0.25682 0.0
H1126 H 0.00738 0.73247 0.27719 0.0
H1127 H 0.03923 0.75538 0.40086 0.0
H1128 H 0.07853 0.79674 0.38538 0.0
H1129 H 0.08342 0.75608 0.29035 0.0
C1130 C 0.99193 0.66653 0.32445 0.0
C1131 C 0.97153 0.6584 0.35009 0.0
C1132 C 0.97455 0.67497 0.37934 0.0
C1133 C 0.99728 0.69928 0.38313 0.0
C1134 C 0.01624 0.70757 0.35724 0.0
C1135 C 0.01413 0.69163 0.32848 0.0
C1136 C 0.03856 0.70478 0.30508 0.0
C1137 C 0.06311 0.68098 0.29933 0.0
C1138 C 0.02427 0.7146 0.27323 0.0
C1139 C 0.05217 0.73259 0.3241 0.0
C1140 C 0.03981 0.73283 0.3546 0.0
C1141 C 0.0491 0.75554 0.37704 0.0
C1142 C 0.07131 0.77906 0.36794 0.0
C1143 C 0.08344 0.78018 0.33641 0.0
C1144 C 0.07413 0.75622 0.31444 0.0
H1145 H 0.99346 0.36014 0.12546 0.0
H1146 H 0.9113 0.30694 0.15935 0.0
H1147 H 0.94179 0.26031 0.16592 0.0
H1148 H 0.02814 0.30659 0.08106 0.0
H1149 H 0.06731 0.31452 0.09451 0.0
H1150 H 0.04036 0.34474 0.09568 0.0
H1151 H 0.04953 0.35332 0.15582 0.0
H1152 H 0.07764 0.32409 0.15517 0.0
H1153 H 0.04573 0.32062 0.183 0.0
H1154 H 0.98159 0.21875 0.16595 0.0
H1155 H 0.02647 0.18637 0.15992 0.0
H1156 H 0.08229 0.26795 0.12697 0.0
C1157 C 0.98208 0.33871 0.13465 0.0
C1158 C 0.95019 0.33685 0.14191 0.0
C1159 C 0.93587 0.3087 0.15405 0.0
C1160 C 0.95296 0.28213 0.15762 0.0
C1161 C 0.9844 0.28453 0.14969 0.0
C1162 C 0.99895 0.31237 0.13919 0.0
C1163 C 0.03311 0.3092 0.13321 0.0
C1164 C 0.04276 0.31931 0.09909 0.0
C1165 C 0.05264 0.32791 0.15829 0.0
C1166 C 0.0348 0.27444 0.13852 0.0
C1167 C 0.00683 0.26079 0.14919 0.0
C1168 C 0.00336 0.22912 0.15705 0.0
C1169 C 0.02902 0.21092 0.15366 0.0
C1170 C 0.05776 0.22445 0.14245 0.0
C1171 C 0.06051 0.25667 0.13495 0.0
H1172 H 0.62571 0.77028 0.63918 0.0
H1173 H 0.59529 0.7043 0.56533 0.0
H1174 H 0.55335 0.73812 0.55034 0.0
H1175 H 0.55511 0.79347 0.66642 0.0
H1176 H 0.567 0.83419 0.67008 0.0
H1177 H 0.59529 0.80537 0.67306 0.0
H1178 H 0.62672 0.83424 0.62762 0.0
H1179 H 0.59763 0.86236 0.62453 0.0
H1180 H 0.60833 0.84074 0.58967 0.0
H1181 H 0.512 0.77572 0.54781 0.0
H1182 H 0.47464 0.81627 0.55521 0.0
H1183 H 0.53416 0.86048 0.62804 0.0
C1184 C 0.6105 0.76331 0.61949 0.0
C1185 C 0.61276 0.73421 0.6041 0.0
C1186 C 0.59287 0.72586 0.57825 0.0
C1187 C 0.56942 0.74517 0.56925 0.0
C1188 C 0.56685 0.77308 0.58589 0.0
C1189 C 0.58723 0.78253 0.61 0.0
C1190 C 0.57919 0.81358 0.62413 0.0
C1191 C 0.57383 0.81144 0.66054 0.0
C1192 C 0.60447 0.83925 0.61599 0.0
C1193 C 0.54952 0.81864 0.60614 0.0
C1194 C 0.54325 0.79534 0.58376 0.0
C1195 C 0.51659 0.79418 0.56509 0.0
C1196 C 0.49555 0.81727 0.56955 0.0
C1197 C 0.50157 0.84148 0.5922 0.0
C1198 C 0.52909 0.84232 0.61044 0.0
H1199 H 0.91057 0.72598 0.39061 0.0
H1200 H 0.93442 0.71761 0.29006 0.0
H1201 H 0.97124 0.76363 0.29483 0.0
H1202 H 0.91727 0.81242 0.3856 0.0
H1203 H 0.93075 0.81789 0.42614 0.0
H1204 H 0.90511 0.78447 0.41613 0.0
H1205 H 0.94619 0.74396 0.4361 0.0
H1206 H 0.96493 0.77977 0.45097 0.0
H1207 H 0.98628 0.75469 0.42662 0.0
H1208 H 0.01062 0.80511 0.31101 0.0
H1209 H 0.04571 0.8449 0.33737 0.0
H1210 H 0.99616 0.82836 0.42695 0.0
C1211 C 0.92424 0.73333 0.36987 0.0
C1212 C 0.92008 0.71775 0.3401 0.0
C1213 C 0.93745 0.72884 0.31318 0.0
C1214 C 0.95871 0.75472 0.31566 0.0
C1215 C 0.96277 0.76916 0.34525 0.0
C1216 C 0.94581 0.75928 0.37189 0.0
C1217 C 0.953 0.7811 0.40002 0.0
C1218 C 0.92486 0.80009 0.40739 0.0
C1219 C 0.96313 0.7637 0.43008 0.0
C1220 C 0.97936 0.80196 0.38597 0.0
C1221 C 0.98377 0.79537 0.354 0.0
C1222 C 0.00719 0.81083 0.33595 0.0
C1223 C 0.02718 0.83321 0.35119 0.0
C1224 C 0.02402 0.83941 0.38429 0.0
C1225 C 0.99928 0.82406 0.40163 0.0
H1226 H 0.46878 0.20751 0.93573 0.0
H1227 H 0.45085 0.15645 0.84719 0.0
H1228 H 0.49198 0.18945 0.82035 0.0
H1229 H 0.48308 0.28204 0.90225 0.0
H1230 H 0.51399 0.29479 0.92893 0.0
H1231 H 0.48444 0.26593 0.94197 0.0
H1232 H 0.52652 0.22758 0.95501 0.0
H1233 H 0.55623 0.25628 0.94203 0.0
H1234 H 0.55364 0.21785 0.92436 0.0
H1235 H 0.53522 0.22735 0.80314 0.0
H1236 H 0.57282 0.27212 0.79446 0.0
H1237 H 0.56241 0.30017 0.89366 0.0
C1238 C 0.4736 0.20317 0.91072 0.0
C1239 C 0.45635 0.17947 0.8935 0.0
C1240 C 0.46342 0.17464 0.86081 0.0
C1241 C 0.48698 0.19307 0.84543 0.0
C1242 C 0.50362 0.21605 0.86312 0.0
C1243 C 0.49719 0.22131 0.895 0.0
C1244 C 0.51793 0.2483 0.90814 0.0
C1245 C 0.49872 0.27434 0.92117 0.0
C1246 C 0.53988 0.23681 0.93391 0.0
C1247 C 0.53568 0.25857 0.87813 0.0
C1248 C 0.52791 0.23878 0.85284 0.0
C1249 C 0.54146 0.243 0.82275 0.0
C1250 C 0.56268 0.26873 0.81803 0.0
C1251 C 0.57025 0.29012 0.8432 0.0
C1252 C 0.5568 0.28459 0.8738 0.0
H1253 H 0.90154 0.07223 0.73106 0.0
H1254 H 0.80932 0.10101 0.74697 0.0
H1255 H 0.79552 0.05156 0.7749 0.0
H1256 H 0.89188 0.95421 0.68315 0.0
H1257 H 0.92357 0.9454 0.70323 0.0
H1258 H 0.92441 0.97646 0.67934 0.0
H1259 H 0.93087 0.04402 0.76837 0.0
H1260 H 0.92937 0.01078 0.79479 0.0
H1261 H 0.90365 0.03985 0.79883 0.0
H1262 H 0.79566 0.01009 0.81127 0.0
H1263 H 0.80764 0.97271 0.85334 0.0
H1264 H 0.89915 0.96728 0.81441 0.0
C1265 C 0.87792 0.06658 0.73874 0.0
C1266 C 0.85621 0.08944 0.73609 0.0
C1267 C 0.82613 0.08339 0.7483 0.0
C1268 C 0.81797 0.05508 0.76355 0.0
C1269 C 0.83959 0.03227 0.76488 0.0
C1270 C 0.86874 0.03642 0.75105 0.0
C1271 C 0.89009 0.00702 0.75614 0.0
C1272 C 0.90946 0.96643 0.6996 0.0
C1273 C 0.9151 0.02598 0.78008 0.0
C1274 C 0.8678 0.99329 0.78517 0.0
C1275 C 0.83913 0.00607 0.78615 0.0
C1276 C 0.81743 0.99904 0.81044 0.0
C1277 C 0.82456 0.97824 0.8347 0.0
C1278 C 0.8537 0.96554 0.83551 0.0
C1279 C 0.87577 0.97434 0.81163 0.0
H1280 H 0.67576 0.09279 0.52612 0.0
H1281 H 0.67419 0.1768 0.46817 0.0
H1282 H 0.70839 0.20508 0.507 0.0
H1283 H 0.67849 0.14057 0.60423 0.0
H1284 H 0.70128 0.11275 0.62425 0.0
H1285 H 0.67313 0.09962 0.59451 0.0
H1286 H 0.71594 0.07333 0.56148 0.0
H1287 H 0.74198 0.08489 0.59348 0.0
H1288 H 0.75156 0.0963 0.55329 0.0
H1289 H 0.74841 0.22207 0.54691 0.0
H1290 H 0.79076 0.22689 0.58653 0.0
H1291 H 0.76646 0.13246 0.61944 0.0
C1292 C 0.68235 0.11723 0.52184 0.0
C1293 C 0.67289 0.13241 0.4937 0.0
C1294 C 0.68155 0.16453 0.48923 0.0
C1295 C 0.70077 0.1809 0.51131 0.0
C1296 C 0.71072 0.165 0.53808 0.0
C1297 C 0.70137 0.13406 0.54389 0.0
C1298 C 0.71557 0.12279 0.57476 0.0
C1299 C 0.69064 0.1187 0.60099 0.0
C1300 C 0.73219 0.0925 0.57037 0.0
C1301 C 0.73804 0.15046 0.58216 0.0
C1302 C 0.73352 0.17518 0.5618 0.0
C1303 C 0.75187 0.20307 0.56333 0.0
C1304 C 0.77598 0.20552 0.58577 0.0
C1305 C 0.78203 0.17993 0.60572 0.0
C1306 C 0.76245 0.15227 0.60424 0.0
H1307 H 0.61856 0.89638 0.27628 0.0
H1308 H 0.676 0.94073 0.20173 0.0
H1309 H 0.68708 0.98631 0.23688 0.0
H1310 H 0.58402 0.96464 0.3073 0.0
H1311 H 0.58611 0.95089 0.34783 0.0
H1312 H 0.58311 0.92327 0.31535 0.0
H1313 H 0.63301 0.89982 0.33793 0.0
H1314 H 0.63634 0.92931 0.3687 0.0
H1315 H 0.66812 0.92464 0.34154 0.0
H1316 H 0.68793 0.02973 0.27866 0.0
H1317 H 0.68139 0.06464 0.32516 0.0
H1318 H 0.62547 0.9907 0.37268 0.0
C1319 C 0.63306 0.91592 0.2671 0.0
C1320 C 0.64591 0.91518 0.23597 0.0
C1321 C 0.66535 0.94096 0.22522 0.0
C1322 C 0.67179 0.96704 0.24501 0.0
C1323 C 0.65846 0.9672 0.27541 0.0
C1324 C 0.63963 0.94219 0.28646 0.0
C1325 C 0.62904 0.94761 0.32048 0.0
C1326 C 0.59347 0.94653 0.32281 0.0
C1327 C 0.64243 0.92394 0.34351 0.0
C1328 C 0.64348 0.98025 0.32621 0.0
C1329 C 0.66067 0.99109 0.30012 0.0
C1330 C 0.67497 0.02125 0.29944 0.0
C1331 C 0.67112 0.04093 0.32591 0.0
C1332 C 0.65316 0.03033 0.35265 0.0
C1333 C 0.63974 0.99938 0.35286 0.0
H1334 H 0.8227 0.9274 0.00169 0.0
H1335 H 0.8549 0.83801 0.97233 0.0
H1336 H 0.82575 0.81224 0.01686 0.0
H1337 H 0.82667 0.90504 0.0891 0.0
H1338 H 0.79457 0.92745 0.10031 0.0
H1339 H 0.81962 0.94042 0.0677 0.0
H1340 H 0.77213 0.93967 0.02701 0.0
H1341 H 0.74983 0.93211 0.06291 0.0
H1342 H 0.74434 0.90637 0.02961 0.0
H1343 H 0.78875 0.79488 0.06004 0.0
H1344 H 0.74823 0.78762 0.10147 0.0
H1345 H 0.73863 0.88769 0.10334 0.0
C1346 C 0.82336 0.90236 0.0045 0.0
C1347 C 0.84036 0.88453 0.98279 0.0
C1348 C 0.84143 0.85202 0.98798 0.0
C1349 C 0.82508 0.8372 0.01337 0.0
C1350 C 0.80749 0.85508 0.03337 0.0
C1351 C 0.80679 0.88705 0.02966 0.0
C1352 C 0.78722 0.90071 0.05594 0.0
C1353 C 0.80827 0.91951 0.07967 0.0
C1354 C 0.76199 0.92092 0.04293 0.0
C1355 C 0.7734 0.87095 0.07154 0.0
C1356 C 0.78676 0.84509 0.05926 0.0
C1357 C 0.77827 0.81498 0.06999 0.0
C1358 C 0.7551 0.81108 0.09343 0.0
C1359 C 0.7399 0.83701 0.10525 0.0
C1360 C 0.74948 0.86739 0.09435 0.0
H1361 H 0.84317 0.99305 0.695 0.0
H1362 H 0.95251 0.02702 0.71547 0.0
H1363 H 0.95695 0.97518 0.75738 0.0
H1364 H 0.81896 0.94235 0.77939 0.0
H1365 H 0.8007 0.91429 0.75309 0.0
H1366 H 0.80567 0.95452 0.74058 0.0
H1367 H 0.83219 0.92652 0.6897 0.0
H1368 H 0.82954 0.88979 0.71092 0.0
H1369 H 0.86655 0.90591 0.69743 0.0
H1370 H 0.94193 0.921 0.79284 0.0
H1371 H 0.92488 0.87217 0.82082 0.0
H1372 H 0.83509 0.87329 0.77488 0.0
C1373 C 0.86431 0.9913 0.70852 0.0
C1374 C 0.89686 0.01759 0.70087 0.0
C1375 C 0.93208 0.01196 0.7207 0.0
C1376 C 0.93493 0.97984 0.74669 0.0
C1377 C 0.90251 0.95449 0.75315 0.0
C1378 C 0.86815 0.95961 0.73447 0.0
C1379 C 0.84832 0.92951 0.73944 0.0
C1380 C 0.81662 0.93569 0.75393 0.0
C1381 C 0.84391 0.91199 0.70746 0.0
C1382 C 0.86835 0.91093 0.76253 0.0
C1383 C 0.89846 0.92408 0.7681 0.0
C1384 C 0.919 0.91017 0.78853 0.0
C1385 C 0.90898 0.88264 0.80464 0.0
C1386 C 0.87852 0.86923 0.80052 0.0
C1387 C 0.85846 0.88322 0.77864 0.0
H1388 H 0.81591 0.07556 0.53362 0.0
H1389 H 0.83365 0.1733 0.55843 0.0
H1390 H 0.7993 0.18823 0.51482 0.0
H1391 H 0.81742 0.09243 0.4476 0.0
H1392 H 0.78868 0.06186 0.43709 0.0
H1393 H 0.81314 0.05737 0.47152 0.0
H1394 H 0.76419 0.04974 0.51038 0.0
H1395 H 0.74293 0.0494 0.47327 0.0
H1396 H 0.73344 0.07579 0.50436 0.0
H1397 H 0.76168 0.19325 0.47031 0.0
H1398 H 0.72532 0.18793 0.42479 0.0
H1399 H 0.73372 0.08765 0.42466 0.0
C1400 C 0.81195 0.10002 0.53024 0.0
C1401 C 0.82666 0.12323 0.55038 0.0
C1402 C 0.82208 0.15505 0.54405 0.0
C1403 C 0.80261 0.16381 0.51923 0.0
C1404 C 0.78814 0.14058 0.50019 0.0
C1405 C 0.79287 0.10932 0.50488 0.0
C1406 C 0.77645 0.08955 0.47878 0.0
C1407 C 0.80035 0.07441 0.45749 0.0
C1408 C 0.75294 0.06467 0.49265 0.0
C1409 C 0.76018 0.11441 0.46036 0.0
C1410 C 0.76768 0.14369 0.47294 0.0
C1411 C 0.75561 0.17042 0.46025 0.0
C1412 C 0.73477 0.16714 0.4345 0.0
C1413 C 0.72627 0.13739 0.42136 0.0
C1414 C 0.73956 0.11072 0.4343 0.0
H1415 H 0.63723 0.99524 0.15231 0.0
H1416 H 0.57653 0.93496 0.21181 0.0
H1417 H 0.57714 0.97577 0.25323 0.0
H1418 H 0.68517 0.03453 0.21457 0.0
H1419 H 0.68507 0.07112 0.1938 0.0
H1420 H 0.68081 0.03509 0.17161 0.0
H1421 H 0.63025 0.05666 0.14769 0.0
H1422 H 0.63445 0.09076 0.17292 0.0
H1423 H 0.59938 0.0657 0.1745 0.0
H1424 H 0.58715 0.02208 0.29062 0.0
H1425 H 0.60198 0.07217 0.31786 0.0
H1426 H 0.65349 0.10372 0.23339 0.0
C1427 C 0.62451 0.99043 0.1743 0.0
C1428 C 0.60729 0.96146 0.17888 0.0
C1429 C 0.59015 0.95668 0.20767 0.0
C1430 C 0.59045 0.97974 0.23154 0.0
C1431 C 0.60782 0.00782 0.22649 0.0
C1432 C 0.62427 0.01345 0.19841 0.0
C1433 C 0.63928 0.04653 0.19817 0.0
C1434 C 0.67465 0.04674 0.1943 0.0
C1435 C 0.62498 0.06606 0.17175 0.0
C1436 C 0.6303 0.05776 0.23123 0.0
C1437 C 0.6119 0.0352 0.2471 0.0
C1438 C 0.60129 0.04002 0.27825 0.0
C1439 C 0.60991 0.0685 0.29362 0.0
C1440 C 0.62884 0.09194 0.27785 0.0
C1441 C 0.63881 0.08641 0.24609 0.0
H1442 H 0.68064 0.89443 0.00545 0.0
H1443 H 0.68165 0.81257 0.06652 0.0
H1444 H 0.7217 0.79147 0.03229 0.0
H1445 H 0.68996 0.84521 0.93273 0.0
H1446 H 0.71145 0.8755 0.9106 0.0
H1447 H 0.68282 0.88563 0.93957 0.0
H1448 H 0.72488 0.92098 0.97294 0.0
H1449 H 0.74855 0.91336 0.93871 0.0
H1450 H 0.76238 0.90513 0.97784 0.0
H1451 H 0.76567 0.78175 0.99578 0.0
H1452 H 0.80651 0.78101 0.95446 0.0
H1453 H 0.77495 0.86638 0.91353 0.0
C1454 C 0.68976 0.87234 0.01185 0.0
C1455 C 0.67882 0.85567 0.03945 0.0
C1456 C 0.69013 0.8261 0.04604 0.0
C1457 C 0.71293 0.8139 0.02673 0.0
C1458 C 0.72393 0.8312 1.00041 0.0
C1459 C 0.71227 0.85942 0.99231 0.0
C1460 C 0.72607 0.87132 0.9606 0.0
C1461 C 0.70109 0.86929 0.93432 0.0
C1462 C 0.74127 0.90467 0.96283 0.0
C1463 C 0.75 0.84753 0.95475 0.0
C1464 C 0.74766 0.82411 0.9775 0.0
C1465 C 0.76755 0.79981 0.97763 0.0
C1466 C 0.79091 0.79976 0.95427 0.0
C1467 C 0.79426 0.8239 0.93112 0.0
C1468 C 0.77312 0.84776 0.93111 0.0
H1469 H 0.959 0.80837 0.87652 0.0
H1470 H 0.0078 0.89034 0.91733 0.0
H1471 H 0.05761 0.8663 0.91011 0.0
H1472 H 0.00568 0.7562 0.91801 0.0
H1473 H 0.00328 0.72775 0.88624 0.0
H1474 H 0.97283 0.75436 0.89173 0.0
H1475 H 0.98099 0.7707 0.83137 0.0
H1476 H 0.01201 0.74471 0.82786 0.0
H1477 H 0.01897 0.78566 0.81878 0.0
H1478 H 0.10165 0.83154 0.90302 0.0
H1479 H 0.13634 0.78846 0.89802 0.0
H1480 H 0.05923 0.72707 0.8647 0.0
C1481 C 0.98031 0.82156 0.88291 0.0
C1482 C 0.97961 0.85141 0.89704 0.0
C1483 C 0.00784 0.86752 0.9063 0.0
C1484 C 0.0363 0.8541 0.90215 0.0
C1485 C 0.03627 0.8243 0.88892 0.0
C1486 C 0.00906 0.8082 0.87948 0.0
C1487 C 0.01514 0.77504 0.87003 0.0
C1488 C 0.99812 0.75188 0.89285 0.0
C1489 C 0.00624 0.76863 0.83492 0.0
C1490 C 0.04984 0.77496 0.87509 0.0
C1491 C 0.0616 0.80375 0.88593 0.0
C1492 C 0.09269 0.809 0.89423 0.0
C1493 C 0.11221 0.78423 0.89143 0.0
C1494 C 0.10066 0.75424 0.8809 0.0
C1495 C 0.06894 0.74969 0.8726 0.0
H1496 H 0.46701 0.6886 0.13627 0.0
H1497 H 0.4951 0.61945 0.20453 0.0
H1498 H 0.54295 0.65186 0.21567 0.0
H1499 H 0.54358 0.70793 0.10469 0.0
H1500 H 0.53662 0.74849 0.09945 0.0
H1501 H 0.50485 0.71898 0.09819 0.0
H1502 H 0.47746 0.74935 0.14594 0.0
H1503 H 0.5101 0.77799 0.14434 0.0
H1504 H 0.49979 0.75827 0.18126 0.0
H1505 H 0.58976 0.68985 0.2166 0.0
H1506 H 0.6305 0.73213 0.20979 0.0
H1507 H 0.57236 0.77851 0.14238 0.0
C1508 C 0.48297 0.68052 0.15394 0.0
C1509 C 0.47704 0.65135 0.16951 0.0
C1510 C 0.49888 0.6416 0.19221 0.0
C1511 C 0.52627 0.65988 0.19874 0.0
C1512 C 0.53169 0.68812 0.18255 0.0
C1513 C 0.5106 0.69856 0.16087 0.0
C1514 C 0.52264 0.72947 0.14629 0.0
C1515 C 0.5271 0.72612 0.10998 0.0
C1516 C 0.50122 0.75535 0.15484 0.0
C1517 C 0.55366 0.73482 0.16293 0.0
C1518 C 0.55848 0.71046 0.18364 0.0
C1519 C 0.58601 0.70917 0.20067 0.0
C1520 C 0.60912 0.73334 0.19648 0.0
C1521 C 0.60472 0.75886 0.17561 0.0
C1522 C 0.57638 0.75961 0.15877 0.0
H1523 H 0.01822 0.3676 0.6689 0.0
H1524 H 0.05479 0.33495 0.57897 0.0
H1525 H 0.01472 0.29129 0.57842 0.0
H1526 H 0.00399 0.29562 0.70472 0.0
H1527 H 0.96768 0.30292 0.72349 0.0
H1528 H 0.99587 0.33474 0.71556 0.0
H1529 H 0.9568 0.36418 0.68311 0.0
H1530 H 0.92744 0.33351 0.69164 0.0
H1531 H 0.93575 0.34478 0.65076 0.0
H1532 H 0.96969 0.25185 0.58703 0.0
H1533 H 0.92949 0.21394 0.60865 0.0
H1534 H 0.92506 0.26987 0.69504 0.0
C1535 C 0.01758 0.35144 0.64896 0.0
C1536 C 0.03956 0.35478 0.62393 0.0
C1537 C 0.03817 0.33292 0.59841 0.0
C1538 C 0.01532 0.30818 0.59771 0.0
C1539 C 0.99407 0.30548 0.62279 0.0
C1540 C 0.99517 0.32632 0.6481 0.0
C1541 C 0.9708 0.31697 0.67303 0.0
C1542 C 0.98545 0.31222 0.70612 0.0
C1543 C 0.94624 0.34131 0.67472 0.0
C1544 C 0.95725 0.28657 0.65871 0.0
C1545 C 0.97003 0.28111 0.6291 0.0
C1546 C 0.96002 0.25541 0.6105 0.0
C1547 C 0.93707 0.23409 0.62293 0.0
C1548 C 0.92466 0.23842 0.65388 0.0
C1549 C 0.93459 0.2654 0.67162 0.0
H1550 H 0.01701 0.62524 0.93713 0.0
H1551 H 0.05732 0.61717 0.84248 0.0
H1552 H 0.01781 0.64933 0.82011 0.0
H1553 H 0.93435 0.62333 0.90588 0.0
H1554 H 0.92292 0.64996 0.93644 0.0
H1555 H 0.95259 0.62338 0.94467 0.0
H1556 H 0.98731 0.66971 0.96246 0.0
H1557 H 0.96118 0.69875 0.95102 0.0
H1558 H 0.99988 0.69974 0.93469 0.0
H1559 H 0.97706 0.6847 0.80798 0.0
H1560 H 0.93756 0.72324 0.80666 0.0
H1561 H 0.92102 0.70957 0.90849 0.0
C1562 C 0.01726 0.62992 0.91164 0.0
C1563 C 0.04093 0.61909 0.89169 0.0
C1564 C 0.04023 0.62576 0.85848 0.0
C1565 C 0.0175 0.64373 0.8454 0.0
C1566 C 0.99495 0.65446 0.86565 0.0
C1567 C 0.99426 0.64761 0.89799 0.0
C1568 C 0.96777 0.6632 0.91432 0.0
C1569 C 0.94294 0.6385 0.92602 0.0
C1570 C 0.9797 0.68416 0.94218 0.0
C1571 C 0.95545 0.68185 0.88649 0.0
C1572 C 0.97091 0.67535 0.8585 0.0
C1573 C 0.9645 0.68974 0.8296 0.0
C1574 C 0.94198 0.7117 0.82913 0.0
C1575 C 0.92635 0.71974 0.85747 0.0
C1576 C 0.93276 0.70408 0.88649 0.0
H1577 H 0.44983 0.27782 0.38452 0.0
H1578 H 0.41372 0.21708 0.30943 0.0
H1579 H 0.46039 0.18734 0.31262 0.0
H1580 H 0.5558 0.3218 0.34068 0.0
H1581 H 0.58088 0.31685 0.36945 0.0
H1582 H 0.54865 0.33966 0.37395 0.0
H1583 H 0.4679 0.24598 0.42263 0.0
H1584 H 0.49538 0.26995 0.43969 0.0
H1585 H 0.49836 0.22819 0.43557 0.0
H1586 H 0.5059 0.163 0.32475 0.0
H1587 H 0.55017 0.13877 0.34838 0.0
H1588 H 0.56178 0.21221 0.41695 0.0
C1589 C 0.45266 0.25879 0.36802 0.0
C1590 C 0.42867 0.2501 0.34665 0.0
C1591 C 0.43202 0.22464 0.32592 0.0
C1592 C 0.45873 0.20798 0.32725 0.0
C1593 C 0.48262 0.21822 0.34807 0.0
C1594 C 0.48113 0.24408 0.36726 0.0
C1595 C 0.51219 0.25364 0.3884 0.0
C1596 C 0.55488 0.31546 0.36702 0.0
C1597 C 0.49349 0.25007 0.42281 0.0
C1598 C 0.5241 0.2183 0.38252 0.0
C1599 C 0.50906 0.20251 0.35714 0.0
C1600 C 0.51805 0.1743 0.34467 0.0
C1601 C 0.54308 0.16053 0.35828 0.0
C1602 C 0.55795 0.17402 0.38524 0.0
C1603 C 0.54798 0.20225 0.39787 0.0
H1604 H 0.98845 0.14667 0.58006 0.0
H1605 H 0.94139 0.15699 0.67095 0.0
H1606 H 0.97859 0.2013 0.68462 0.0
H1607 H 0.06663 0.16519 0.61407 0.0
H1608 H 0.08078 0.18407 0.57785 0.0
H1609 H 0.05112 0.1526 0.57579 0.0
H1610 H 0.0158 0.18835 0.54448 0.0
H1611 H 0.04549 0.21974 0.54657 0.0
H1612 H 0.00719 0.22548 0.56121 0.0
H1613 H 0.01766 0.24752 0.68584 0.0
H1614 H 0.05982 0.28876 0.67815 0.0
H1615 H 0.08456 0.24584 0.58848 0.0
C1616 C 0.98587 0.15821 0.60288 0.0
C1617 C 0.96135 0.14876 0.62411 0.0
C1618 C 0.95946 0.16412 0.654 0.0
C1619 C 0.98066 0.18919 0.66206 0.0
C1620 C 0.0038 0.19856 0.64007 0.0
C1621 C 0.00697 0.1831 0.61139 0.0
C1622 C 0.03471 0.19701 0.5926 0.0
C1623 C 0.05979 0.17331 0.58993 0.0
C1624 C 0.02519 0.20832 0.55927 0.0
C1625 C 0.04532 0.22414 0.61415 0.0
C1626 C 0.02726 0.22444 0.64148 0.0
C1627 C 0.03203 0.2476 0.66464 0.0
C1628 C 0.05592 0.27098 0.65993 0.0
C1629 C 0.07539 0.27067 0.63262 0.0
C1630 C 0.06998 0.24678 0.60952 0.0
H1631 H 0.39607 0.78029 0.14395 0.0
H1632 H 0.42709 0.70523 0.08493 0.0
H1633 H 0.46955 0.74109 0.06365 0.0
H1634 H 0.42006 0.84585 0.08673 0.0
H1635 H 0.43116 0.87164 0.11941 0.0
H1636 H 0.39981 0.84222 0.12445 0.0
H1637 H 0.42751 0.82078 0.17397 0.0
H1638 H 0.45902 0.84981 0.16884 0.0
H1639 H 0.46657 0.80904 0.17008 0.0
H1640 H 0.51488 0.78158 0.0581 0.0
H1641 H 0.55514 0.82502 0.06353 0.0
H1642 H 0.49416 0.87389 0.12566 0.0
C1643 C 0.41152 0.77149 0.12615 0.0
C1644 C 0.40834 0.73993 0.1161 0.0
C1645 C 0.42923 0.72924 0.0931 0.0
C1646 C 0.45335 0.74948 0.08087 0.0
C1647 C 0.45673 0.78008 0.09248 0.0
C1648 C 0.43605 0.79114 0.11431 0.0
C1649 C 0.44598 0.82408 0.125 0.0
C1650 C 0.42288 0.84732 0.11318 0.0
C1651 C 0.45002 0.82599 0.16161 0.0
C1652 C 0.47672 0.82898 0.10772 0.0
C1653 C 0.48232 0.8036 0.08862 0.0
C1654 C 0.51043 0.80176 0.07252 0.0
C1655 C 0.53329 0.8264 0.07598 0.0
C1656 C 0.52774 0.85284 0.09495 0.0
C1657 C 0.49893 0.85413 0.11072 0.0
H1658 H 0.55974 0.43206 0.77447 0.0
H1659 H 0.66052 0.43839 0.77958 0.0
H1660 H 0.66708 0.47774 0.73706 0.0
H1661 H 0.53153 0.46061 0.67535 0.0
H1662 H 0.50149 0.46814 0.69899 0.0
H1663 H 0.52562 0.43856 0.71229 0.0
H1664 H 0.50936 0.47571 0.75526 0.0
H1665 H 0.50463 0.50975 0.73082 0.0
H1666 H 0.52685 0.5102 0.7657 0.0
H1667 H 0.65758 0.51632 0.67356 0.0
H1668 H 0.6381 0.5475 0.62964 0.0
H1669 H 0.5414 0.53431 0.65885 0.0
C1670 C 0.58183 0.44313 0.76713 0.0
C1671 C 0.61017 0.43376 0.77993 0.0
C1672 C 0.63972 0.44712 0.76942 0.0
C1673 C 0.6441 0.47001 0.74521 0.0
C1674 C 0.61836 0.48245 0.73221 0.0
C1675 C 0.58241 0.46833 0.74619 0.0
C1676 C 0.54882 0.48645 0.72122 0.0
C1677 C 0.52614 0.46216 0.70117 0.0
C1678 C 0.52187 0.49664 0.74425 0.0
C1679 C 0.57377 0.51393 0.68991 0.0
C1680 C 0.61301 0.51005 0.69597 0.0
C1681 C 0.63323 0.52054 0.6722 0.0
C1682 C 0.62144 0.538 0.647 0.0
C1683 C 0.58954 0.54452 0.64344 0.0
C1684 C 0.56558 0.53082 0.6633 0.0
H1685 H 0.83731 0.4517 0.9938 0.0
H1686 H 0.83994 0.35668 0.02923 0.0
H1687 H 0.79548 0.34047 0.99452 0.0
H1688 H 0.75657 0.45645 0.9873 0.0
H1689 H 0.75797 0.47731 0.94991 0.0
H1690 H 0.7904 0.48109 0.97696 0.0
H1691 H 0.82655 0.46408 0.93158 0.0
H1692 H 0.794 0.46022 0.90462 0.0
H1693 H 0.81758 0.42765 0.91104 0.0
H1694 H 0.74831 0.33569 0.95925 0.0
H1695 H 0.70434 0.34114 0.92215 0.0
H1696 H 0.73463 0.43844 0.90667 0.0
C1697 C 0.82861 0.42745 0.99426 0.0
C1698 C 0.8418 0.40557 0.01476 0.0
C1699 C 0.83002 0.37396 0.01411 0.0
C1700 C 0.80486 0.3645 0.99433 0.0
C1701 C 0.79192 0.38684 0.97507 0.0
C1702 C 0.80373 0.41755 0.97444 0.0
C1703 C 0.78617 0.4367 0.9508 0.0
C1704 C 0.77195 0.46449 0.96726 0.0
C1705 C 0.80734 0.44781 0.92285 0.0
C1706 C 0.76145 0.41241 0.93971 0.0
C1707 C 0.76533 0.38377 0.95385 0.0
C1708 C 0.74501 0.3579 0.94791 0.0
C1709 C 0.72008 0.36129 0.92692 0.0
C1710 C 0.71605 0.39023 0.91158 0.0
C1711 C 0.73715 0.41604 0.91805 0.0
H1712 H 0.89547 0.59945 0.26078 0.0
H1713 H 0.79615 0.58192 0.24894 0.0
H1714 H 0.8051 0.54521 0.20504 0.0
H1715 H 0.9108 0.59493 0.17166 0.0
H1716 H 0.94757 0.57833 0.17777 0.0
H1717 H 0.93346 0.60512 0.20679 0.0
H1718 H 0.93942 0.56431 0.25108 0.0
H1719 H 0.95277 0.53674 0.22249 0.0
H1720 H 0.91977 0.52632 0.24736 0.0
H1721 H 0.82414 0.50713 0.16645 0.0
H1722 H 0.85224 0.47067 0.13363 0.0
H1723 H 0.93979 0.5146 0.16671 0.0
C1724 C 0.87568 0.58805 0.2487 0.0
C1725 C 0.84509 0.59332 0.25843 0.0
C1726 C 0.81974 0.57833 0.24184 0.0
C1727 C 0.82458 0.55747 0.21681 0.0
C1728 C 0.85491 0.55237 0.20813 0.0
C1729 C 0.88008 0.5677 0.22298 0.0
C1730 C 0.91024 0.55819 0.20833 0.0
C1731 C 0.92647 0.58578 0.19005 0.0
C1732 C 0.93183 0.54564 0.23383 0.0
C1733 C 0.89803 0.53287 0.18527 0.0
C1734 C 0.86602 0.53059 0.18504 0.0
C1735 C 0.84921 0.50868 0.16631 0.0
C1736 C 0.86544 0.48799 0.14779 0.0
C1737 C 0.89825 0.4895 0.14774 0.0
C1738 C 0.91471 0.51277 0.16626 0.0
H1739 H 0.79267 0.63574 0.42872 0.0
H1740 H 0.76381 0.54916 0.38281 0.0
H1741 H 0.72322 0.53978 0.42389 0.0
H1742 H 0.80764 0.6022 0.55666 0.0
H1743 H 0.80079 0.63799 0.56825 0.0
H1744 H 0.82954 0.62966 0.54008 0.0
H1745 H 0.7659 0.67165 0.45768 0.0
H1746 H 0.72521 0.66954 0.47325 0.0
H1747 H 0.73373 0.6511 0.4414 0.0
H1748 H 0.68371 0.54299 0.46246 0.0
H1749 H 0.64354 0.55591 0.49981 0.0
H1750 H 0.69448 0.64331 0.5226 0.0
C1751 C 0.77962 0.61345 0.4295 0.0
C1752 C 0.78254 0.59261 0.40388 0.0
C1753 C 0.76262 0.56531 0.40263 0.0
C1754 C 0.7398 0.55965 0.42621 0.0
C1755 C 0.73823 0.58067 0.45178 0.0
C1756 C 0.75856 0.60641 0.45498 0.0
C1757 C 0.75306 0.62737 0.4871 0.0
C1758 C 0.804 0.62545 0.54488 0.0
C1759 C 0.74509 0.65679 0.465 0.0
C1760 C 0.71827 0.61129 0.49172 0.0
C1761 C 0.71366 0.58358 0.47429 0.0
C1762 C 0.68683 0.56414 0.47654 0.0
C1763 C 0.66384 0.57197 0.49766 0.0
C1764 C 0.66657 0.60005 0.51539 0.0
C1765 C 0.69308 0.62094 0.51065 0.0
H1766 H 0.55236 0.4881 0.79819 0.0
H1767 H 0.62563 0.50044 0.86615 0.0
H1768 H 0.6555 0.535 0.82934 0.0
H1769 H 0.6096 0.45447 0.6855 0.0
H1770 H 0.57921 0.46592 0.66688 0.0
H1771 H 0.57628 0.43948 0.69923 0.0
H1772 H 0.55121 0.55306 0.76542 0.0
H1773 H 0.54288 0.54722 0.72333 0.0
H1774 H 0.56977 0.57388 0.73672 0.0
H1775 H 0.67834 0.56674 0.79007 0.0
H1776 H 0.69292 0.60213 0.74579 0.0
H1777 H 0.60716 0.57493 0.69816 0.0
C1778 C 0.57411 0.50011 0.80396 0.0
C1779 C 0.58661 0.49261 0.83393 0.0
C1780 C 0.61584 0.50569 0.84302 0.0
C1781 C 0.63302 0.52495 0.82204 0.0
C1782 C 0.62139 0.52972 0.79139 0.0
C1783 C 0.59258 0.51725 0.78078 0.0
C1784 C 0.587 0.52226 0.74217 0.0
C1785 C 0.58653 0.46344 0.69261 0.0
C1786 C 0.56151 0.54927 0.74145 0.0
C1787 C 0.61672 0.54821 0.74105 0.0
C1788 C 0.63612 0.54821 0.76706 0.0
C1789 C 0.66352 0.56724 0.76924 0.0
C1790 C 0.67149 0.58768 0.74414 0.0
C1791 C 0.65122 0.59051 0.71805 0.0
C1792 C 0.62332 0.57178 0.71739 0.0
H1793 H 0.73144 0.30834 0.06036 0.0
H1794 H 0.77913 0.40072 0.05995 0.0
H1795 H 0.73884 0.41965 0.02472 0.0
H1796 H 0.70582 0.30506 0.97983 0.0
H1797 H 0.66821 0.28688 0.98886 0.0
H1798 H 0.70044 0.28087 0.01493 0.0
H1799 H 0.66867 0.30057 0.06277 0.0
H1800 H 0.63679 0.307 0.03629 0.0
H1801 H 0.65323 0.33857 0.06064 0.0
H1802 H 0.69781 0.42736 0.98488 0.0
H1803 H 0.65295 0.4255 0.94845 0.0
H1804 H 0.62899 0.32947 0.97652 0.0
C1805 C 0.73339 0.33255 0.05281 0.0
C1806 C 0.75878 0.3529 0.06239 0.0
C1807 C 0.7602 0.38456 0.05252 0.0
C1808 C 0.73746 0.39557 0.03244 0.0
C1809 C 0.71336 0.37474 0.02259 0.0
C1810 C 0.71074 0.34406 0.03283 0.0
C1811 C 0.68176 0.32698 0.01936 0.0
C1812 C 0.68957 0.29828 0.99958 0.0
C1813 C 0.65875 0.31774 0.04637 0.0
C1814 C 0.66966 0.35241 0.99841 0.0
C1815 C 0.68822 0.3798 0.00093 0.0
C1816 C 0.68275 0.40627 0.98309 0.0
C1817 C 0.65744 0.40485 0.96222 0.0
C1818 C 0.63775 0.37726 0.9596 0.0
C1819 C 0.64379 0.35078 0.97811 0.0
H1820 H 0.91725 0.48764 0.30333 0.0
H1821 H 0.838 0.54436 0.31102 0.0
H1822 H 0.81094 0.51216 0.2694 0.0
H1823 H 0.91781 0.47697 0.21987 0.0
H1824 H 0.92735 0.4369 0.22149 0.0
H1825 H 0.939 0.46319 0.25356 0.0
H1826 H 0.91067 0.42464 0.29367 0.0
H1827 H 0.89855 0.39915 0.26106 0.0
H1828 H 0.87012 0.41356 0.28791 0.0
H1829 H 0.794 0.47663 0.22423 0.0
H1830 H 0.7876 0.43876 0.17979 0.0
H1831 H 0.87861 0.4064 0.19988 0.0
C1832 C 0.89417 0.49328 0.29633 0.0
C1833 C 0.88001 0.51901 0.30998 0.0
C1834 C 0.8496 0.52523 0.30047 0.0
C1835 C 0.83402 0.50703 0.27688 0.0
C1836 C 0.84917 0.48277 0.26291 0.0
C1837 C 0.87843 0.4756 0.27249 0.0
C1838 C 0.88952 0.44829 0.25349 0.0
C1839 C 0.92025 0.45688 0.2361 0.0
C1840 C 0.89237 0.41972 0.27533 0.0
C1841 C 0.86289 0.44286 0.23016 0.0
C1842 C 0.83943 0.46231 0.23672 0.0
C1843 C 0.81214 0.46117 0.21895 0.0
C1844 C 0.80878 0.43968 0.19368 0.0
C1845 C 0.83275 0.41992 0.18612 0.0
C1846 C 0.86012 0.42159 0.2047 0.0
H1847 H 0.84154 0.66408 0.46841 0.0
H1848 H 0.8485 0.56318 0.46051 0.0
H1849 H 0.80496 0.54968 0.49595 0.0
H1850 H 0.83149 0.67779 0.53521 0.0
H1851 H 0.80215 0.69065 0.56215 0.0
H1852 H 0.81304 0.70952 0.52479 0.0
H1853 H 0.76559 0.70824 0.49314 0.0
H1854 H 0.76027 0.71049 0.53491 0.0
H1855 H 0.7347 0.68655 0.51722 0.0
H1856 H 0.75057 0.54828 0.54421 0.0
H1857 H 0.71384 0.56072 0.58652 0.0
H1858 H 0.73178 0.66147 0.57658 0.0
C1859 C 0.8324 0.64059 0.47391 0.0
C1860 C 0.84613 0.61378 0.46122 0.0
C1861 C 0.83608 0.58235 0.46987 0.0
C1862 C 0.81081 0.57384 0.48972 0.0
C1863 C 0.79326 0.5971 0.50061 0.0
C1864 C 0.80515 0.6361 0.49162 0.0
C1865 C 0.78092 0.6649 0.51912 0.0
C1866 C 0.80798 0.68637 0.53662 0.0
C1867 C 0.7596 0.69359 0.51451 0.0
C1868 C 0.75311 0.63397 0.5419 0.0
C1869 C 0.76034 0.59627 0.53126 0.0
C1870 C 0.74613 0.57234 0.54915 0.0
C1871 C 0.72563 0.58008 0.57386 0.0
C1872 C 0.71988 0.61138 0.58312 0.0
C1873 C 0.73498 0.63794 0.56843 0.0
H1874 H 0.48744 0.66864 0.57562 0.0
H1875 H 0.55845 0.70255 0.64255 0.0
H1876 H 0.52776 0.74783 0.6551 0.0
H1877 H 0.46852 0.74149 0.54272 0.0
H1878 H 0.42755 0.73139 0.54087 0.0
H1879 H 0.45459 0.70126 0.53833 0.0
H1880 H 0.42723 0.67245 0.58605 0.0
H1881 H 0.4002 0.7026 0.58864 0.0
H1882 H 0.42254 0.69293 0.62327 0.0
H1883 H 0.48997 0.79072 0.65875 0.0
H1884 H 0.44659 0.82542 0.65592 0.0
H1885 H 0.40134 0.76407 0.58506 0.0
C1886 C 0.49657 0.68571 0.59288 0.0
C1887 C 0.52542 0.68236 0.60796 0.0
C1888 C 0.53658 0.70498 0.63047 0.0
C1889 C 0.51937 0.73081 0.63763 0.0
C1890 C 0.49138 0.73392 0.62169 0.0
C1891 C 0.47997 0.71184 0.59989 0.0
C1892 C 0.44892 0.7201 0.58663 0.0
C1893 C 0.45 0.72379 0.54998 0.0
C1894 C 0.42321 0.69556 0.59676 0.0
C1895 C 0.44522 0.75103 0.60329 0.0
C1896 C 0.46965 0.75832 0.62388 0.0
C1897 C 0.47071 0.78517 0.64276 0.0
C1898 C 0.44601 0.80485 0.64084 0.0
C1899 C 0.42063 0.79779 0.61997 0.0
C1900 C 0.42057 0.77056 0.60082 0.0
H1901 H 0.40471 0.57708 0.21859 0.0
H1902 H 0.34282 0.63524 0.26744 0.0
H1903 H 0.32652 0.59146 0.30311 0.0
H1904 H 0.32939 0.48126 0.17917 0.0
H1905 H 0.35205 0.45285 0.18737 0.0
H1906 H 0.36514 0.48204 0.16386 0.0
H1907 H 0.42996 0.53318 0.23935 0.0
H1908 H 0.42603 0.49742 0.26194 0.0
H1909 H 0.41976 0.53309 0.27989 0.0
H1910 H 0.31825 0.54535 0.33412 0.0
H1911 H 0.32298 0.49804 0.36591 0.0
H1912 H 0.38929 0.46657 0.29816 0.0
C1913 C 0.38588 0.57904 0.23518 0.0
C1914 C 0.37363 0.60839 0.23901 0.0
C1915 C 0.35222 0.6127 0.26376 0.0
C1916 C 0.34225 0.58773 0.28351 0.0
C1917 C 0.35236 0.55811 0.27694 0.0
C1918 C 0.37299 0.55271 0.25244 0.0
C1919 C 0.37878 0.51584 0.24739 0.0
C1920 C 0.35381 0.47911 0.18821 0.0
C1921 C 0.41539 0.51969 0.25721 0.0
C1922 C 0.36587 0.50786 0.28374 0.0
C1923 C 0.34772 0.53046 0.29593 0.0
C1924 C 0.33226 0.52724 0.32519 0.0
C1925 C 0.3355 0.50037 0.34346 0.0
C1926 C 0.35615 0.4779 0.33408 0.0
C1927 C 0.37265 0.4828 0.30484 0.0
H1928 H 0.27378 0.60546 0.10852 0.0
H1929 H 0.25441 0.70311 0.0992 0.0
H1930 H 0.21371 0.68895 0.05974 0.0
H1931 H 0.24579 0.5456 0.03771 0.0
H1932 H 0.26772 0.5596 0.07198 0.0
H1933 H 0.26889 0.58214 0.03589 0.0
H1934 H 0.22102 0.55962 0.10851 0.0
H1935 H 0.19769 0.54244 0.07648 0.0
H1936 H 0.18657 0.57759 0.09578 0.0
H1937 H 0.17887 0.66558 0.01783 0.0
H1938 H 0.15458 0.63506 0.97353 0.0
H1939 H 0.19598 0.55199 0.00856 0.0
C1940 C 0.26041 0.62371 0.09873 0.0
C1941 C 0.26746 0.65544 0.10687 0.0
C1942 C 0.24945 0.67865 0.09353 0.0
C1943 C 0.22611 0.67084 0.07115 0.0
C1944 C 0.22024 0.63954 0.063 0.0
C1945 C 0.23627 0.61618 0.07692 0.0
C1946 C 0.22597 0.58453 0.06275 0.0
C1947 C 0.2537 0.56689 0.05131 0.0
C1948 C 0.20667 0.5649 0.08734 0.0
C1949 C 0.20544 0.59455 0.03546 0.0
C1950 C 0.20091 0.62607 0.03754 0.0
C1951 C 0.1822 0.64085 0.0159 0.0
C1952 C 0.16863 0.62333 0.99065 0.0
C1953 C 0.17387 0.59128 0.98701 0.0
C1954 C 0.19192 0.57658 0.01032 0.0
H1955 H 0.1691 0.49777 0.82895 0.0
H1956 H 0.07787 0.56691 0.77083 0.0
H1957 H 0.05082 0.50778 0.75908 0.0
H1958 H 0.16701 0.44805 0.76545 0.0
H1959 H 0.17059 0.41353 0.78958 0.0
H1960 H 0.18176 0.45091 0.8058 0.0
H1961 H 0.14427 0.43814 0.85326 0.0
H1962 H 0.13175 0.40113 0.83543 0.0
H1963 H 0.10372 0.4288 0.84573 0.0
H1964 H 0.03724 0.44835 0.75117 0.0
H1965 H 0.04427 0.40338 0.7157 0.0
H1966 H 0.13194 0.38902 0.76032 0.0
C1967 C 0.14831 0.50352 0.81649 0.0
C1968 C 0.14219 0.54177 0.81002 0.0
C1969 C 0.09003 0.54677 0.77899 0.0
C1970 C 0.07234 0.50999 0.7723 0.0
C1971 C 0.08917 0.47703 0.78502 0.0
C1972 C 0.1232 0.47452 0.80378 0.0
C1973 C 0.13117 0.44095 0.8027 0.0
C1974 C 0.16449 0.43828 0.79006 0.0
C1975 C 0.1275 0.42641 0.83626 0.0
C1976 C 0.10649 0.42645 0.78009 0.0
C1977 C 0.08085 0.44443 0.7757 0.0
C1978 C 0.0569 0.43436 0.75475 0.0
C1979 C 0.06136 0.40912 0.73409 0.0
C1980 C 0.08949 0.39419 0.73455 0.0
C1981 C 0.11094 0.40137 0.75918 0.0
H1982 H 0.25585 0.33278 0.60779 0.0
H1983 H 0.20051 0.4115 0.58929 0.0
H1984 H 0.23586 0.42819 0.54489 0.0
H1985 H 0.33161 0.38256 0.5889 0.0
H1986 H 0.34965 0.34817 0.57543 0.0
H1987 H 0.3214 0.34528 0.60728 0.0
H1988 H 0.29411 0.30232 0.57572 0.0
H1989 H 0.31611 0.3068 0.53917 0.0
H1990 H 0.27482 0.31075 0.53932 0.0
H1991 H 0.27836 0.43579 0.50135 0.0
H1992 H 0.31804 0.42994 0.45973 0.0
H1993 H 0.3484 0.34838 0.5091 0.0
C1994 C 0.25124 0.35379 0.59473 0.0
C1995 C 0.22407 0.36979 0.601 0.0
C1996 C 0.21979 0.39764 0.58373 0.0
C1997 C 0.24024 0.40766 0.55883 0.0
C1998 C 0.26595 0.39051 0.55238 0.0
C1999 C 0.27208 0.36477 0.57065 0.0
C2000 C 0.30169 0.35079 0.55938 0.0
C2001 C 0.32762 0.35708 0.58422 0.0
C2002 C 0.29646 0.3156 0.55288 0.0
C2003 C 0.30879 0.36985 0.52914 0.0
C2004 C 0.289 0.39381 0.52662 0.0
C2005 C 0.29263 0.41603 0.50219 0.0
C2006 C 0.31559 0.41273 0.47873 0.0
C2007 C 0.33591 0.38819 0.48041 0.0
C2008 C 0.33271 0.36689 0.5065 0.0
H2009 H 0.39028 0.37866 0.27609 0.0
H2010 H 0.29682 0.39425 0.30666 0.0
H2011 H 0.2981 0.44318 0.27549 0.0
H2012 H 0.4283 0.44516 0.27759 0.0
H2013 H 0.44724 0.44732 0.23925 0.0
H2014 H 0.43671 0.41015 0.25746 0.0
H2015 H 0.40816 0.39019 0.21116 0.0
H2016 H 0.41624 0.42534 0.18812 0.0
H2017 H 0.37694 0.40945 0.19375 0.0
H2018 H 0.30461 0.49825 0.24054 0.0
H2019 H 0.32934 0.54623 0.19898 0.0
H2020 H 0.4263 0.49196 0.19209 0.0
C2021 C 0.37024 0.39254 0.27571 0.0
C2022 C 0.3436 0.38331 0.29377 0.0
C2023 C 0.31731 0.40115 0.29275 0.0
C2024 C 0.31769 0.4287 0.27496 0.0
C2025 C 0.34419 0.43764 0.25762 0.0
C2026 C 0.37042 0.41978 0.25702 0.0
C2027 C 0.39774 0.43325 0.23618 0.0
C2028 C 0.42916 0.43416 0.25372 0.0
C2029 C 0.39985 0.41355 0.20549 0.0
C2030 C 0.38764 0.46557 0.22829 0.0
C2031 C 0.35076 0.46699 0.24174 0.0
C2032 C 0.32829 0.49813 0.23223 0.0
C2033 C 0.34361 0.52777 0.20657 0.0
C2034 C 0.38199 0.52642 0.19221 0.0
C2035 C 0.40379 0.49455 0.20274 0.0
H2036 H 0.33678 0.58453 0.00739 0.0
H2037 H 0.33058 0.66358 0.07124 0.0
H2038 H 0.28944 0.68345 0.0371 0.0
H2039 H 0.32431 0.63224 0.93454 0.0
H2040 H 0.30394 0.60045 0.91361 0.0
H2041 H 0.33366 0.59255 0.94221 0.0
H2042 H 0.29401 0.55584 0.97674 0.0
H2043 H 0.26846 0.56179 0.94359 0.0
H2044 H 0.256 0.56985 0.98335 0.0
H2045 H 0.24481 0.69179 0.99873 0.0
H2046 H 0.20447 0.6904 0.95653 0.0
H2047 H 0.24147 0.60721 0.9166 0.0
C2048 C 0.32679 0.60603 0.01429 0.0
C2049 C 0.33607 0.62178 0.04298 0.0
C2050 C 0.32294 0.65031 0.05036 0.0
C2051 C 0.29969 0.66191 0.03092 0.0
C2052 C 0.29006 0.64506 0.00372 0.0
C2053 C 0.30374 0.61809 0.99494 0.0
C2054 C 0.28999 0.60508 0.96377 0.0
C2055 C 0.31443 0.60775 0.93695 0.0
C2056 C 0.27641 0.57116 0.96722 0.0
C2057 C 0.26473 0.62738 0.95801 0.0
C2058 C 0.26557 0.65071 0.98086 0.0
C2059 C 0.24415 0.67372 0.98062 0.0
C2060 C 0.22113 0.67262 0.95669 0.0
C2061 C 0.21946 0.64851 0.93344 0.0
C2062 C 0.2419 0.62588 0.93409 0.0
H2063 H 0.1791 0.516 0.67029 0.0
H2064 H 0.10659 0.44407 0.68361 0.0
H2065 H 0.09005 0.47452 0.72583 0.0
H2066 H 0.20173 0.54174 0.75336 0.0
H2067 H 0.19811 0.58213 0.74275 0.0
H2068 H 0.20951 0.55474 0.71292 0.0
H2069 H 0.16446 0.56983 0.67681 0.0
H2070 H 0.1523 0.59675 0.70646 0.0
H2071 H 0.12536 0.56609 0.69204 0.0
H2072 H 0.08528 0.4973 0.83636 0.0
H2073 H 0.09446 0.538 0.83167 0.0
H2074 H 0.14377 0.6067 0.76474 0.0
C2075 C 0.16285 0.50308 0.68587 0.0
C2076 C 0.14747 0.47475 0.67506 0.0
C2077 C 0.12259 0.46216 0.69328 0.0
C2078 C 0.11425 0.47641 0.72135 0.0
C2079 C 0.13377 0.49905 0.73661 0.0
C2080 C 0.15474 0.51584 0.71609 0.0
C2081 C 0.16025 0.5502 0.72536 0.0
C2082 C 0.19442 0.55765 0.73413 0.0
C2083 C 0.14998 0.57196 0.69859 0.0
C2084 C 0.13989 0.55271 0.75445 0.0
C2085 C 0.12685 0.51733 0.7666 0.0
C2086 C 0.0971 0.5197 0.82197 0.0
C2087 C 0.09672 0.56027 0.83373 0.0
C2088 C 0.11386 0.58911 0.81008 0.0
C2089 C 0.13317 0.58534 0.77481 0.0
H2090 H 0.16808 0.39199 0.50108 0.0
H2091 H 0.18002 0.31321 0.56394 0.0
H2092 H 0.22191 0.29619 0.52904 0.0
H2093 H 0.18885 0.34317 0.42481 0.0
H2094 H 0.2044 0.37862 0.40591 0.0
H2095 H 0.17144 0.37948 0.43233 0.0
H2096 H 0.20132 0.42325 0.45924 0.0
H2097 H 0.23954 0.42009 0.44298 0.0
H2098 H 0.23228 0.41554 0.48547 0.0
H2099 H 0.26606 0.29111 0.49007 0.0
H2100 H 0.30946 0.29895 0.45231 0.0
H2101 H 0.26797 0.38028 0.41326 0.0
C2102 C 0.17917 0.37081 0.50701 0.0
C2103 C 0.17133 0.35405 0.53527 0.0
C2104 C 0.18591 0.32631 0.54233 0.0
C2105 C 0.20971 0.31652 0.52267 0.0
C2106 C 0.21783 0.33422 0.49555 0.0
C2107 C 0.20214 0.36004 0.48695 0.0
C2108 C 0.21578 0.37523 0.45686 0.0
C2109 C 0.19382 0.36873 0.42829 0.0
C2110 C 0.22284 0.41057 0.46131 0.0
C2111 C 0.24457 0.35712 0.4531 0.0
C2112 C 0.2442 0.33238 0.47438 0.0
C2113 C 0.26718 0.31108 0.47421 0.0
C2114 C 0.29171 0.31563 0.45247 0.0
C2115 C 0.29253 0.34062 0.43027 0.0
C2116 C 0.26843 0.36144 0.4305 0.0
H2117 H 0.49492 0.33613 0.43319 0.0
H2118 H 0.45148 0.34658 0.33987 0.0
H2119 H 0.48403 0.31009 0.31298 0.0
H2120 H 0.56664 0.33925 0.42021 0.0
H2121 H 0.59695 0.3118 0.42023 0.0
H2122 H 0.57292 0.31901 0.45371 0.0
H2123 H 0.54085 0.27829 0.46601 0.0
H2124 H 0.57655 0.26387 0.45146 0.0
H2125 H 0.54307 0.24283 0.44626 0.0
H2126 H 0.53184 0.26131 0.29313 0.0
H2127 H 0.57694 0.23003 0.28877 0.0
H2128 H 0.60675 0.24595 0.38741 0.0
C2129 C 0.49216 0.32886 0.40849 0.0
C2130 C 0.46981 0.3421 0.38803 0.0
C2131 C 0.46783 0.33488 0.35455 0.0
C2132 C 0.48611 0.31369 0.33856 0.0
C2133 C 0.50627 0.29691 0.35633 0.0
C2134 C 0.51092 0.30623 0.39644 0.0
C2135 C 0.54953 0.28737 0.41362 0.0
C2136 C 0.57265 0.31553 0.4272 0.0
C2137 C 0.55183 0.26693 0.44529 0.0
C2138 C 0.56355 0.26471 0.37494 0.0
C2139 C 0.53847 0.26988 0.34318 0.0
C2140 C 0.54623 0.25796 0.31388 0.0
C2141 C 0.57272 0.24051 0.31183 0.0
C2142 C 0.5935 0.23524 0.33779 0.0
C2143 C 0.59016 0.24911 0.36847 0.0
loop_
_geom_bond_atom_site_label_1
_geom_bond_atom_site_label_2
_geom_bond_distance
_geom_bond_site_symmetry_2
_ccdc_geom_bond_type
C0 O1 1.160 . S
C0 O7 1.185 . S
O1 C0 1.160 . S
O2 Zn3 1.899 . S
O2 C10 1.284 . S
Zn3 O2 1.899 . S
Zn3 O4 2.032 . S
Zn3 O7 2.086 . S
Zn3 O12 1.977 . S
O4 Zn3 2.032 . S
O4 C8 1.278 . S
C5 O6 1.203 . S
C5 O12 1.267 . S
O6 C5 1.203 . S
O7 C0 1.185 . S
O7 Zn3 2.086 . S
C8 O4 1.278 . S
C8 O9 1.211 . S
O9 C8 1.211 . S
C10 O2 1.284 . S
C10 O11 1.273 . S
O11 C10 1.273 . S
O12 Zn3 1.977 . S
O12 C5 1.267 . S
C13 O14 1.160 . S
C13 O20 1.185 . S
O14 C13 1.160 . S
O15 Zn16 1.899 . S
O15 C23 1.284 . S
Zn16 O15 1.899 . S
Zn16 O17 2.032 . S
Zn16 O20 2.086 . S
Zn16 O25 1.977 . S
O17 Zn16 2.032 . S
O17 C21 1.278 . S
C18 O19 1.203 . S
C18 O25 1.267 . S
O19 C18 1.203 . S
O20 C13 1.185 . S
O20 Zn16 2.086 . S
C21 O17 1.278 . S
C21 O22 1.211 . S
O22 C21 1.211 . S
C23 O15 1.284 . S
C23 O24 1.273 . S
O24 C23 1.273 . S
O25 Zn16 1.977 . S
O25 C18 1.267 . S
C26 O27 1.160 . S
C26 O33 1.185 . S
O27 C26 1.160 . S
O28 Zn29 1.899 . S
O28 C36 1.284 . S
Zn29 O28 1.899 . S
Zn29 O30 2.032 . S
Zn29 O33 2.086 . S
Zn29 O38 1.977 . S
O30 Zn29 2.032 . S
O30 C34 1.278 . S
C31 O32 1.203 . S
C31 O38 1.267 . S
O32 C31 1.203 . S
O33 C26 1.185 . S
O33 Zn29 2.086 . S
C34 O30 1.278 . S
C34 O35 1.211 . S
O35 C34 1.211 . S
C36 O28 1.284 . S
C36 O37 1.273 . S
O37 C36 1.273 . S
O38 Zn29 1.977 . S
O38 C31 1.267 . S
C39 O40 1.160 . S
C39 O46 1.185 . S
O40 C39 1.160 . S
O41 Zn42 1.899 . S
O41 C49 1.284 . S
Zn42 O41 1.899 . S
Zn42 O43 2.032 . S
Zn42 O46 2.086 . S
Zn42 O51 1.977 . S
O43 Zn42 2.032 . S
O43 C47 1.278 . S
C44 O45 1.203 . S
C44 O51 1.267 . S
O45 C44 1.203 . S
O46 C39 1.185 . S
O46 Zn42 2.086 . S
C47 O43 1.278 . S
C47 O48 1.211 . S
O48 C47 1.211 . S
C49 O41 1.284 . S
C49 O50 1.273 . S
O50 C49 1.273 . S
O51 Zn42 1.977 . S
O51 C44 1.267 . S
C52 O53 1.160 . S
C52 O59 1.185 . S
O53 C52 1.160 . S
O54 Zn55 1.899 . S
O54 C62 1.284 . S
Zn55 O54 1.899 . S
Zn55 O56 2.032 . S
Zn55 O59 2.086 . S
Zn55 O64 1.977 . S
O56 Zn55 2.032 . S
O56 C60 1.278 . S
C57 O58 1.203 . S
C57 O64 1.267 . S
O58 C57 1.203 . S
O59 C52 1.185 . S
O59 Zn55 2.086 . S
C60 O56 1.278 . S
C60 O61 1.211 . S
O61 C60 1.211 . S
C62 O54 1.284 . S
C62 O63 1.273 . S
O63 C62 1.273 . S
O64 Zn55 1.977 . S
O64 C57 1.267 . S
C65 O66 1.160 . S
C65 O72 1.185 . S
O66 C65 1.160 . S
O67 Zn68 1.899 . S
O67 C75 1.284 . S
Zn68 O67 1.899 . S
Zn68 O69 2.032 . S
Zn68 O72 2.086 . S
Zn68 O77 1.977 . S
O69 Zn68 2.032 . S
O69 C73 1.278 . S
C70 O71 1.203 . S
C70 O77 1.267 . S
O71 C70 1.203 . S
O72 C65 1.185 . S
O72 Zn68 2.086 . S
C73 O69 1.278 . S
C73 O74 1.211 . S
O74 C73 1.211 . S
C75 O67 1.284 . S
C75 O76 1.273 . S
O76 C75 1.273 . S
O77 Zn68 1.977 . S
O77 C70 1.267 . S
C78 O79 1.160 . S
C78 O85 1.185 . S
O79 C78 1.160 . S
O80 Zn81 1.899 . S
O80 C88 1.284 . S
Zn81 O80 1.899 . S
Zn81 O82 2.032 . S
Zn81 O85 2.086 . S
Zn81 O90 1.977 . S
O82 Zn81 2.032 . S
O82 C86 1.278 . S
C83 O84 1.203 . S
C83 O90 1.267 . S
O84 C83 1.203 . S
O85 C78 1.185 . S
O85 Zn81 2.086 . S
C86 O82 1.278 . S
C86 O87 1.211 . S
O87 C86 1.211 . S
C88 O80 1.284 . S
C88 O89 1.273 . S
O89 C88 1.273 . S
O90 Zn81 1.977 . S
O90 C83 1.267 . S
C91 O92 1.160 . S
C91 O98 1.185 . S
O92 C91 1.160 . S
O93 Zn94 1.899 . S
O93 C101 1.284 . S
Zn94 O93 1.899 . S
Zn94 O95 2.032 . S
Zn94 O98 2.086 . S
Zn94 O103 1.977 . S
O95 Zn94 2.032 . S
O95 C99 1.278 . S
C96 O97 1.203 . S
C96 O103 1.267 . S
O97 C96 1.203 . S
O98 C91 1.185 . S
O98 Zn94 2.086 . S
C99 O95 1.278 . S
C99 O100 1.211 . S
O100 C99 1.211 . S
C101 O93 1.284 . S
C101 O102 1.273 . S
O102 C101 1.273 . S
O103 Zn94 1.977 . S
O103 C96 1.267 . S
C104 O105 1.160 . S
C104 O111 1.185 . S
O105 C104 1.160 . S
O106 Zn107 1.899 . S
O106 C114 1.284 . S
Zn107 O106 1.899 . S
Zn107 O108 2.032 . S
Zn107 O111 2.086 . S
Zn107 O116 1.977 . S
O108 Zn107 2.032 . S
O108 C112 1.278 . S
C109 O110 1.203 . S
C109 O116 1.267 . S
O110 C109 1.203 . S
O111 C104 1.185 . S
O111 Zn107 2.086 . S
C112 O108 1.278 . S
C112 O113 1.211 . S
O113 C112 1.211 . S
C114 O106 1.284 . S
C114 O115 1.273 . S
O115 C114 1.273 . S
O116 Zn107 1.977 . S
O116 C109 1.267 . S
C117 O118 1.160 . S
C117 O124 1.185 . S
O118 C117 1.160 . S
O119 Zn120 1.899 . S
O119 C127 1.284 . S
Zn120 O119 1.899 . S
Zn120 O121 2.032 . S
Zn120 O124 2.086 . S
Zn120 O129 1.977 . S
O121 Zn120 2.032 . S
O121 C125 1.278 . S
C122 O123 1.203 . S
C122 O129 1.267 . S
O123 C122 1.203 . S
O124 C117 1.185 . S
O124 Zn120 2.086 . S
C125 O121 1.278 . S
C125 O126 1.211 . S
O126 C125 1.211 . S
C127 O119 1.284 . S
C127 O128 1.273 . S
O128 C127 1.273 . S
O129 Zn120 1.977 . S
O129 C122 1.267 . S
C130 O131 1.160 . S
C130 O137 1.185 . S
O131 C130 1.160 . S
O132 Zn133 1.899 . S
O132 C140 1.284 . S
Zn133 O132 1.899 . S
Zn133 O134 2.032 . S
Zn133 O137 2.086 . S
Zn133 O142 1.977 . S
O134 Zn133 2.032 . S
O134 C138 1.278 . S
C135 O136 1.203 . S
C135 O142 1.267 . S
O136 C135 1.203 . S
O137 C130 1.185 . S
O137 Zn133 2.086 . S
C138 O134 1.278 . S
C138 O139 1.211 . S
O139 C138 1.211 . S
C140 O132 1.284 . S
C140 O141 1.273 . S
O141 C140 1.273 . S
O142 Zn133 1.977 . S
O142 C135 1.267 . S
C143 O144 1.160 . S
C143 O150 1.185 . S
O144 C143 1.160 . S
O145 Zn146 1.899 . S
O145 C153 1.284 . S
Zn146 O145 1.899 . S
Zn146 O147 2.032 . S
Zn146 O150 2.086 . S
Zn146 O155 1.977 . S
O147 Zn146 2.032 . S
O147 C151 1.278 . S
C148 O149 1.203 . S
C148 O155 1.267 . S
O149 C148 1.203 . S
O150 C143 1.185 . S
O150 Zn146 2.086 . S
C151 O147 1.278 . S
C151 O152 1.211 . S
O152 C151 1.211 . S
C153 O145 1.284 . S
C153 O154 1.273 . S
O154 C153 1.273 . S
O155 Zn146 1.977 . S
O155 C148 1.267 . S
C156 O157 1.160 . S
C156 O163 1.185 . S
O157 C156 1.160 . S
O158 Zn159 1.899 . S
O158 C166 1.284 . S
Zn159 O158 1.899 . S
Zn159 O160 2.032 . S
Zn159 O163 2.086 . S
Zn159 O168 1.977 . S
O160 Zn159 2.032 . S
O160 C164 1.278 . S
C161 O162 1.203 . S
C161 O168 1.267 . S
O162 C161 1.203 . S
O163 C156 1.185 . S
O163 Zn159 2.086 . S
C164 O160 1.278 . S
C164 O165 1.211 . S
O165 C164 1.211 . S
C166 O158 1.284 . S
C166 O167 1.273 . S
O167 C166 1.273 . S
O168 Zn159 1.977 . S
O168 C161 1.267 . S
C169 O170 1.160 . S
C169 O176 1.185 . S
O170 C169 1.160 . S
O171 Zn172 1.899 . S
O171 C179 1.284 . S
Zn172 O171 1.899 . S
Zn172 O173 2.032 . S
Zn172 O176 2.086 . S
Zn172 O181 1.977 . S
O173 Zn172 2.032 . S
O173 C177 1.278 . S
C174 O175 1.203 . S
C174 O181 1.267 . S
O175 C174 1.203 . S
O176 C169 1.185 . S
O176 Zn172 2.086 . S
C177 O173 1.278 . S
C177 O178 1.211 . S
O178 C177 1.211 . S
C179 O171 1.284 . S
C179 O180 1.273 . S
O180 C179 1.273 . S
O181 Zn172 1.977 . S
O181 C174 1.267 . S
C182 O183 1.160 . S
C182 O189 1.185 . S
O183 C182 1.160 . S
O184 Zn185 1.899 . S
O184 C192 1.284 . S
Zn185 O184 1.899 . S
Zn185 O186 2.032 . S
Zn185 O189 2.086 . S
Zn185 O194 1.977 . S
O186 Zn185 2.032 . S
O186 C190 1.278 . S
C187 O188 1.203 . S
C187 O194 1.267 . S
O188 C187 1.203 . S
O189 C182 1.185 . S
O189 Zn185 2.086 . S
C190 O186 1.278 . S
C190 O191 1.211 . S
O191 C190 1.211 . S
C192 O184 1.284 . S
C192 O193 1.273 . S
O193 C192 1.273 . S
O194 Zn185 1.977 . S
O194 C187 1.267 . S
C195 O196 1.160 . S
C195 O202 1.185 . S
O196 C195 1.160 . S
O197 Zn198 1.899 . S
O197 C205 1.284 . S
Zn198 O197 1.899 . S
Zn198 O199 2.032 . S
Zn198 O202 2.086 . S
Zn198 O207 1.977 . S
O199 Zn198 2.032 . S
O199 C203 1.278 . S
C200 O201 1.203 . S
C200 O207 1.267 . S
O201 C200 1.203 . S
O202 C195 1.185 . S
O202 Zn198 2.086 . S
C203 O199 1.278 . S
C203 O204 1.211 . S
O204 C203 1.211 . S
C205 O197 1.284 . S
C205 O206 1.273 . S
O206 C205 1.273 . S
O207 Zn198 1.977 . S
O207 C200 1.267 . S
C208 O209 1.160 . S
C208 O215 1.185 . S
O209 C208 1.160 . S
O210 Zn211 1.899 . S
O210 C218 1.284 . S
Zn211 O210 1.899 . S
Zn211 O212 2.032 . S
Zn211 O215 2.086 . S
Zn211 O220 1.977 . S
O212 Zn211 2.032 . S
O212 C216 1.278 . S
C213 O214 1.203 . S
C213 O220 1.267 . S
O214 C213 1.203 . S
O215 C208 1.185 . S
O215 Zn211 2.086 . S
C216 O212 1.278 . S
C216 O217 1.211 . S
O217 C216 1.211 . S
C218 O210 1.284 . S
C218 O219 1.273 . S
O219 C218 1.273 . S
O220 Zn211 1.977 . S
O220 C213 1.267 . S
C221 O222 1.160 . S
C221 O228 1.185 . S
O222 C221 1.160 . S
O223 Zn224 1.899 . S
O223 C231 1.284 . S
Zn224 O223 1.899 . S
Zn224 O225 2.032 . S
Zn224 O228 2.086 . S
Zn224 O233 1.977 . S
O225 Zn224 2.032 . S
O225 C229 1.278 . S
C226 O227 1.203 . S
C226 O233 1.267 . S
O227 C226 1.203 . S
O228 C221 1.185 . S
O228 Zn224 2.086 . S
C229 O225 1.278 . S
C229 O230 1.211 . S
O230 C229 1.211 . S
C231 O223 1.284 . S
C231 O232 1.273 . S
O232 C231 1.273 . S
O233 Zn224 1.977 . S
O233 C226 1.267 . S
C234 O235 1.160 . S
C234 O241 1.185 . S
O235 C234 1.160 . S
O236 Zn237 1.899 . S
O236 C244 1.284 . S
Zn237 O236 1.899 . S
Zn237 O238 2.032 . S
Zn237 O241 2.086 . S
Zn237 O246 1.977 . S
O238 Zn237 2.032 . S
O238 C242 1.278 . S
C239 O240 1.203 . S
C239 O246 1.267 . S
O240 C239 1.203 . S
O241 C234 1.185 . S
O241 Zn237 2.086 . S
C242 O238 1.278 . S
C242 O243 1.211 . S
O243 C242 1.211 . S
C244 O236 1.284 . S
C244 O245 1.273 . S
O245 C244 1.273 . S
O246 Zn237 1.977 . S
O246 C239 1.267 . S
C247 O248 1.160 . S
C247 O254 1.185 . S
O248 C247 1.160 . S
O249 Zn250 1.899 . S
O249 C257 1.284 . S
Zn250 O249 1.899 . S
Zn250 O251 2.032 . S
Zn250 O254 2.086 . S
Zn250 O259 1.977 . S
O251 Zn250 2.032 . S
O251 C255 1.278 . S
C252 O253 1.203 . S
C252 O259 1.267 . S
O253 C252 1.203 . S
O254 C247 1.185 . S
O254 Zn250 2.086 . S
C255 O251 1.278 . S
C255 O256 1.211 . S
O256 C255 1.211 . S
C257 O249 1.284 . S
C257 O258 1.273 . S
O258 C257 1.273 . S
O259 Zn250 1.977 . S
O259 C252 1.267 . S
C260 O261 1.160 . S
C260 O267 1.185 . S
O261 C260 1.160 . S
O262 Zn263 1.899 . S
O262 C270 1.284 . S
Zn263 O262 1.899 . S
Zn263 O264 2.032 . S
Zn263 O267 2.086 . S
Zn263 O272 1.977 . S
O264 Zn263 2.032 . S
O264 C268 1.278 . S
C265 O266 1.203 . S
C265 O272 1.267 . S
O266 C265 1.203 . S
O267 C260 1.185 . S
O267 Zn263 2.086 . S
C268 O264 1.278 . S
C268 O269 1.211 . S
O269 C268 1.211 . S
C270 O262 1.284 . S
C270 O271 1.273 . S
O271 C270 1.273 . S
O272 Zn263 1.977 . S
O272 C265 1.267 . S
C273 O274 1.160 . S
C273 O280 1.185 . S
O274 C273 1.160 . S
O275 Zn276 1.899 . S
O275 C283 1.284 . S
Zn276 O275 1.899 . S
Zn276 O277 2.032 . S
Zn276 O280 2.086 . S
Zn276 O285 1.977 . S
O277 Zn276 2.032 . S
O277 C281 1.278 . S
C278 O279 1.203 . S
C278 O285 1.267 . S
O279 C278 1.203 . S
O280 C273 1.185 . S
O280 Zn276 2.086 . S
C281 O277 1.278 . S
C281 O282 1.211 . S
O282 C281 1.211 . S
C283 O275 1.284 . S
C283 O284 1.273 . S
O284 C283 1.273 . S
O285 Zn276 1.977 . S
O285 C278 1.267 . S
C286 O287 1.160 . S
C286 O293 1.185 . S
O287 C286 1.160 . S
O288 Zn289 1.899 . S
O288 C296 1.284 . S
Zn289 O288 1.899 . S
Zn289 O290 2.032 . S
Zn289 O293 2.086 . S
Zn289 O298 1.977 . S
O290 Zn289 2.032 . S
O290 C294 1.278 . S
C291 O292 1.203 . S
C291 O298 1.267 . S
O292 C291 1.203 . S
O293 C286 1.185 . S
O293 Zn289 2.086 . S
C294 O290 1.278 . S
C294 O295 1.211 . S
O295 C294 1.211 . S
C296 O288 1.284 . S
C296 O297 1.273 . S
O297 C296 1.273 . S
O298 Zn289 1.977 . S
O298 C291 1.267 . S
C299 O300 1.160 . S
C299 O306 1.185 . S
O300 C299 1.160 . S
O301 Zn302 1.899 . S
O301 C309 1.284 . S
Zn302 O301 1.899 . S
Zn302 O303 2.032 . S
Zn302 O306 2.086 . S
Zn302 O311 1.977 . S
O303 Zn302 2.032 . S
O303 C307 1.278 . S
C304 O305 1.203 . S
C304 O311 1.267 . S
O305 C304 1.203 . S
O306 C299 1.185 . S
O306 Zn302 2.086 . S
C307 O303 1.278 . S
C307 O308 1.211 . S
O308 C307 1.211 . S
C309 O301 1.284 . S
C309 O310 1.273 . S
O310 C309 1.273 . S
O311 Zn302 1.977 . S
O311 C304 1.267 . S
C312 O313 1.160 . S
C312 O319 1.185 . S
O313 C312 1.160 . S
O314 Zn315 1.899 . S
O314 C322 1.284 . S
Zn315 O314 1.899 . S
Zn315 O316 2.032 . S
Zn315 O319 2.086 . S
Zn315 O324 1.977 . S
O316 Zn315 2.032 . S
O316 C320 1.278 . S
C317 O318 1.203 . S
C317 O324 1.267 . S
O318 C317 1.203 . S
O319 C312 1.185 . S
O319 Zn315 2.086 . S
C320 O316 1.278 . S
C320 O321 1.211 . S
O321 C320 1.211 . S
C322 O314 1.284 . S
C322 O323 1.273 . S
O323 C322 1.273 . S
O324 Zn315 1.977 . S
O324 C317 1.267 . S
C325 O326 1.160 . S
C325 O332 1.185 . S
O326 C325 1.160 . S
O327 Zn328 1.899 . S
O327 C335 1.284 . S
Zn328 O327 1.899 . S
Zn328 O329 2.032 . S
Zn328 O332 2.086 . S
Zn328 O337 1.977 . S
O329 Zn328 2.032 . S
O329 C333 1.278 . S
C330 O331 1.203 . S
C330 O337 1.267 . S
O331 C330 1.203 . S
O332 C325 1.185 . S
O332 Zn328 2.086 . S
C333 O329 1.278 . S
C333 O334 1.211 . S
O334 C333 1.211 . S
C335 O327 1.284 . S
C335 O336 1.273 . S
O336 C335 1.273 . S
O337 Zn328 1.977 . S
O337 C330 1.267 . S
C338 O339 1.160 . S
C338 O345 1.185 . S
O339 C338 1.160 . S
O340 Zn341 1.899 . S
O340 C348 1.284 . S
Zn341 O340 1.899 . S
Zn341 O342 2.032 . S
Zn341 O345 2.086 . S
Zn341 O350 1.977 . S
O342 Zn341 2.032 . S
O342 C346 1.278 . S
C343 O344 1.203 . S
C343 O350 1.267 . S
O344 C343 1.203 . S
O345 C338 1.185 . S
O345 Zn341 2.086 . S
C346 O342 1.278 . S
C346 O347 1.211 . S
O347 C346 1.211 . S
C348 O340 1.284 . S
C348 O349 1.273 . S
O349 C348 1.273 . S
O350 Zn341 1.977 . S
O350 C343 1.267 . S
C351 O352 1.160 . S
C351 O358 1.185 . S
O352 C351 1.160 . S
O353 Zn354 1.899 . S
O353 C361 1.284 . S
Zn354 O353 1.899 . S
Zn354 O355 2.032 . S
Zn354 O358 2.086 . S
Zn354 O363 1.977 . S
O355 Zn354 2.032 . S
O355 C359 1.278 . S
C356 O357 1.203 . S
C356 O363 1.267 . S
O357 C356 1.203 . S
O358 C351 1.185 . S
O358 Zn354 2.086 . S
C359 O355 1.278 . S
C359 O360 1.211 . S
O360 C359 1.211 . S
C361 O353 1.284 . S
C361 O362 1.273 . S
O362 C361 1.273 . S
O363 Zn354 1.977 . S
O363 C356 1.267 . S
C364 O365 1.160 . S
C364 O371 1.185 . S
O365 C364 1.160 . S
O366 Zn367 1.899 . S
O366 C374 1.284 . S
Zn367 O366 1.899 . S
Zn367 O368 2.032 . S
Zn367 O371 2.086 . S
Zn367 O376 1.977 . S
O368 Zn367 2.032 . S
O368 C372 1.278 . S
C369 O370 1.203 . S
C369 O376 1.267 . S
O370 C369 1.203 . S
O371 C364 1.185 . S
O371 Zn367 2.086 . S
C372 O368 1.278 . S
C372 O373 1.211 . S
O373 C372 1.211 . S
C374 O366 1.284 . S
C374 O375 1.273 . S
O375 C374 1.273 . S
O376 Zn367 1.977 . S
O376 C369 1.267 . S
C377 O378 1.160 . S
C377 O384 1.185 . S
O378 C377 1.160 . S
O379 Zn380 1.899 . S
O379 C387 1.284 . S
Zn380 O379 1.899 . S
Zn380 O381 2.032 . S
Zn380 O384 2.086 . S
Zn380 O389 1.977 . S
O381 Zn380 2.032 . S
O381 C385 1.278 . S
C382 O383 1.203 . S
C382 O389 1.267 . S
O383 C382 1.203 . S
O384 C377 1.185 . S
O384 Zn380 2.086 . S
C385 O381 1.278 . S
C385 O386 1.211 . S
O386 C385 1.211 . S
C387 O379 1.284 . S
C387 O388 1.273 . S
O388 C387 1.273 . S
O389 Zn380 1.977 . S
O389 C382 1.267 . S
C390 O391 1.160 . S
C390 O397 1.185 . S
O391 C390 1.160 . S
O392 Zn393 1.899 . S
O392 C400 1.284 . S
Zn393 O392 1.899 . S
Zn393 O394 2.032 . S
Zn393 O397 2.086 . S
Zn393 O402 1.977 . S
O394 Zn393 2.032 . S
O394 C398 1.278 . S
C395 O396 1.203 . S
C395 O402 1.267 . S
O396 C395 1.203 . S
O397 C390 1.185 . S
O397 Zn393 2.086 . S
C398 O394 1.278 . S
C398 O399 1.211 . S
O399 C398 1.211 . S
C400 O392 1.284 . S
C400 O401 1.273 . S
O401 C400 1.273 . S
O402 Zn393 1.977 . S
O402 C395 1.267 . S
C403 O404 1.160 . S
C403 O410 1.185 . S
O404 C403 1.160 . S
O405 Zn406 1.899 . S
O405 C413 1.284 . S
Zn406 O405 1.899 . S
Zn406 O407 2.032 . S
Zn406 O410 2.086 . S
Zn406 O415 1.977 . S
O407 Zn406 2.032 . S
O407 C411 1.278 . S
C408 O409 1.203 . S
C408 O415 1.267 . S
O409 C408 1.203 . S
O410 C403 1.185 . S
O410 Zn406 2.086 . S
C411 O407 1.278 . S
C411 O412 1.211 . S
O412 C411 1.211 . S
C413 O405 1.284 . S
C413 O414 1.273 . S
O414 C413 1.273 . S
O415 Zn406 1.977 . S
O415 C408 1.267 . S
H416 C428 0.930 . S
H417 C430 0.930 . S
H418 C431 0.930 . S
H419 C435 0.959 . S
H420 C435 0.959 . S
H421 C435 0.961 . S
H422 C436 0.960 . S
H423 C436 0.961 . S
H424 C436 0.959 . S
H425 C439 0.944 1_554 S
H426 C440 0.931 . S
H427 C442 0.930 . S
C428 H416 0.930 . S
C428 C429 1.399 . S
C428 C433 1.417 . S
C429 C428 1.399 . S
C429 C430 1.376 . S
C430 H417 0.930 . S
C430 C429 1.376 . S
C430 C431 1.388 1_545 S
C431 H418 0.930 . S
C431 C430 1.388 1_565 S
C431 C432 1.390 . S
C432 C431 1.390 . S
C432 C433 1.403 1_565 S
C432 C438 1.465 1_454 S
C433 C428 1.417 . S
C433 C432 1.403 1_545 S
C433 C434 1.489 1_454 S
C434 C433 1.489 1_656 S
C434 C435 1.502 . S
C434 C436 1.561 1_655 S
C434 C437 1.526 1_545 S
C435 H419 0.959 . S
C435 H420 0.959 . S
C435 H421 0.961 . S
C435 C434 1.502 . S
C436 H422 0.960 . S
C436 H423 0.961 . S
C436 H424 0.959 . S
C436 C434 1.561 1_455 S
C437 C434 1.526 1_565 S
C437 C438 1.396 . S
C437 C442 1.390 . S
C438 C432 1.465 1_656 S
C438 C437 1.396 . S
C438 C439 1.399 . S
C439 H425 0.944 1_556 S
C439 C438 1.399 . S
C439 C440 1.385 . S
C440 H426 0.931 . S
C440 C439 1.385 . S
C440 C441 1.389 . S
C441 C440 1.389 . S
C441 C442 1.387 . S
C442 H427 0.930 . S
C442 C437 1.390 . S
C442 C441 1.387 . S
H443 C455 0.930 . S
H444 C457 0.930 . S
H445 C458 0.930 . S
H446 C462 0.959 . S
H447 C462 0.959 . S
H448 C462 0.961 . S
H449 C463 0.960 . S
H450 C463 0.961 . S
H451 C463 0.959 . S
H452 C466 0.929 . S
H453 C467 0.931 . S
H454 C469 0.930 . S
C455 H443 0.930 . S
C455 C456 1.399 . S
C455 C460 1.399 . S
C456 C455 1.399 . S
C456 C457 1.376 . S
C457 H444 0.930 . S
C457 C456 1.376 . S
C457 C458 1.388 . S
C458 H445 0.930 . S
C458 C457 1.388 . S
C458 C459 1.390 . S
C459 C458 1.390 . S
C459 C460 1.394 . S
C459 C465 1.465 . S
C460 C455 1.399 . S
C460 C459 1.394 . S
C460 C461 1.516 . S
C461 C460 1.516 . S
C461 C462 1.502 . S
C461 C463 1.561 . S
C461 C464 1.526 . S
C462 H446 0.959 . S
C462 H447 0.959 . S
C462 H448 0.961 . S
C462 C461 1.502 . S
C463 H449 0.960 . S
C463 H450 0.961 . S
C463 H451 0.959 . S
C463 C461 1.561 . S
C464 C461 1.526 . S
C464 C465 1.396 . S
C464 C469 1.390 . S
C465 C459 1.465 . S
C465 C464 1.396 . S
C465 C466 1.399 . S
C466 H452 0.929 . S
C466 C465 1.399 . S
C466 C467 1.385 . S
C467 H453 0.931 . S
C467 C466 1.385 . S
C467 C468 1.389 . S
C468 C467 1.389 . S
C468 C469 1.387 . S
C469 H454 0.930 . S
C469 C464 1.390 . S
C469 C468 1.387 . S
H470 C482 0.930 . S
H471 C484 0.930 . S
H472 C485 0.930 . S
H473 C489 0.959 . S
H474 C489 0.959 . S
H475 C489 0.961 . S
H476 C490 0.960 . S
H477 C490 0.961 . S
H478 C490 0.959 . S
H479 C493 0.929 . S
H480 C494 0.931 . S
H481 C496 0.930 . S
C482 H470 0.930 . S
C482 C483 1.399 . S
C482 C487 1.399 . S
C483 C482 1.399 . S
C483 C484 1.376 . S
C484 H471 0.930 . S
C484 C483 1.376 . S
C484 C485 1.388 1_565 S
C485 H472 0.930 . S
C485 C484 1.388 1_545 S
C485 C486 1.390 . S
C486 C485 1.390 . S
C486 C487 1.394 1_545 S
C486 C492 1.465 . S
C487 C482 1.399 . S
C487 C486 1.394 1_565 S
C487 C488 1.516 . S
C488 C487 1.516 . S
C488 C489 1.502 . S
C488 C490 1.561 . S
C488 C491 1.526 1_565 S
C489 H473 0.959 . S
C489 H474 0.959 . S
C489 H475 0.961 . S
C489 C488 1.502 . S
C490 H476 0.960 . S
C490 H477 0.961 . S
C490 H478 0.959 . S
C490 C488 1.561 . S
C491 C488 1.526 1_545 S
C491 C492 1.396 . S
C491 C496 1.390 . S
C492 C486 1.465 . S
C492 C491 1.396 . S
C492 C493 1.399 . S
C493 H479 0.929 . S
C493 C492 1.399 . S
C493 C494 1.385 . S
C494 H480 0.931 . S
C494 C493 1.385 . S
C494 C495 1.389 . S
C495 C494 1.389 . S
C495 C496 1.387 . S
C496 H481 0.930 . S
C496 C491 1.390 . S
C496 C495 1.387 . S
H497 C509 0.930 . S
H498 C511 0.930 . S
H499 C512 0.930 . S
H500 C516 0.959 . S
H501 C516 0.959 . S
H502 C516 0.961 . S
H503 C517 0.960 . S
H504 C517 0.961 . S
H505 C517 0.959 . S
H506 C520 0.929 . S
H507 C521 0.931 . S
H508 C523 0.930 . S
C509 H497 0.930 . S
C509 C510 1.399 . S
C509 C514 1.399 . S
C510 C509 1.399 . S
C510 C511 1.376 . S
C511 H498 0.930 . S
C511 C510 1.376 . S
C511 C512 1.388 . S
C512 H499 0.930 . S
C512 C511 1.388 . S
C512 C513 1.390 . S
C513 C512 1.390 . S
C513 C514 1.394 . S
C513 C519 1.465 . S
C514 C509 1.399 . S
C514 C513 1.394 . S
C514 C515 1.516 . S
C515 C514 1.516 . S
C515 C516 1.502 . S
C515 C517 1.561 . S
C515 C518 1.526 . S
C516 H500 0.959 . S
C516 H501 0.959 . S
C516 H502 0.961 . S
C516 C515 1.502 . S
C517 H503 0.960 . S
C517 H504 0.961 . S
C517 H505 0.959 . S
C517 C515 1.561 . S
C518 C515 1.526 . S
C518 C519 1.396 . S
C518 C523 1.390 . S
C519 C513 1.465 . S
C519 C518 1.396 . S
C519 C520 1.399 . S
C520 H506 0.929 . S
C520 C519 1.399 . S
C520 C521 1.385 . S
C521 H507 0.931 . S
C521 C520 1.385 . S
C521 C522 1.389 . S
C522 C521 1.389 . S
C522 C523 1.387 . S
C523 H508 0.930 . S
C523 C518 1.390 . S
C523 C522 1.387 . S
H524 C536 0.930 . S
H525 C538 0.930 . S
H526 C539 0.930 . S
H527 C543 0.959 . S
H528 C543 0.959 . S
H529 C543 0.961 . S
H530 C544 0.960 . S
H531 C544 0.961 . S
H532 C544 0.959 1_565 S
H533 C547 0.929 . S
H534 C548 0.931 . S
H535 C550 0.930 . S
C536 H524 0.930 . S
C536 C537 1.399 . S
C536 C541 1.399 . S
C537 C536 1.399 . S
C537 C538 1.376 . S
C538 H525 0.930 . S
C538 C537 1.376 . S
C538 C539 1.388 . S
C539 H526 0.930 . S
C539 C538 1.388 . S
C539 C540 1.390 . S
C540 C539 1.390 . S
C540 C541 1.394 . S
C540 C546 1.465 1_455 S
C541 C536 1.399 . S
C541 C540 1.394 . S
C541 C542 1.516 1_565 S
C542 C541 1.516 1_545 S
C542 C543 1.502 . S
C542 C544 1.561 1_455 S
C542 C545 1.526 1_455 S
C543 H527 0.959 . S
C543 H528 0.959 . S
C543 H529 0.961 . S
C543 C542 1.502 . S
C544 H530 0.960 . S
C544 H531 0.961 . S
C544 H532 0.959 1_545 S
C544 C542 1.561 1_655 S
C545 C542 1.526 1_655 S
C545 C546 1.396 1_545 S
C545 C550 1.390 . S
C546 C540 1.465 1_655 S
C546 C545 1.396 1_565 S
C546 C547 1.399 . S
C547 H533 0.929 . S
C547 C546 1.399 . S
C547 C548 1.385 1_565 S
C548 H534 0.931 . S
C548 C547 1.385 1_545 S
C548 C549 1.389 . S
C549 C548 1.389 . S
C549 C550 1.387 . S
C550 H535 0.930 . S
C550 C545 1.390 . S
C550 C549 1.387 . S
H551 C563 0.930 . S
H552 C565 0.930 . S
H553 C566 0.930 . S
H554 C570 0.959 . S
H555 C570 0.959 . S
H556 C570 0.961 . S
H557 C571 0.960 . S
H558 C571 0.961 . S
H559 C571 0.959 . S
H560 C574 0.929 . S
H561 C575 0.931 . S
H562 C577 0.930 . S
C563 H551 0.930 . S
C563 C564 1.399 . S
C563 C568 1.399 . S
C564 C563 1.399 . S
C564 C565 1.376 . S
C565 H552 0.930 . S
C565 C564 1.376 . S
C565 C566 1.388 . S
C566 H553 0.930 . S
C566 C565 1.388 . S
C566 C567 1.390 . S
C567 C566 1.390 . S
C567 C568 1.394 . S
C567 C573 1.465 . S
C568 C563 1.399 . S
C568 C567 1.394 . S
C568 C569 1.516 . S
C569 C568 1.516 . S
C569 C570 1.502 . S
C569 C571 1.561 . S
C569 C572 1.526 . S
C570 H554 0.959 . S
C570 H555 0.959 . S
C570 H556 0.961 . S
C570 C569 1.502 . S
C571 H557 0.960 . S
C571 H558 0.961 . S
C571 H559 0.959 . S
C571 C569 1.561 . S
C572 C569 1.526 . S
C572 C573 1.396 . S
C572 C577 1.390 . S
C573 C567 1.465 . S
C573 C572 1.396 . S
C573 C574 1.399 . S
C574 H560 0.929 . S
C574 C573 1.399 . S
C574 C575 1.385 . S
C575 H561 0.931 . S
C575 C574 1.385 . S
C575 C576 1.389 . S
C576 C575 1.389 . S
C576 C577 1.387 . S
C577 H562 0.930 . S
C577 C572 1.390 . S
C577 C576 1.387 . S
H578 C590 0.930 . S
H579 C592 0.930 . S
H580 C593 0.930 . S
H581 C597 0.959 . S
H582 C597 0.959 . S
H583 C597 0.961 . S
H584 C598 0.960 . S
H585 C598 0.961 . S
H586 C598 0.959 1_545 S
H587 C601 0.929 . S
H588 C602 0.931 . S
H589 C604 0.930 . S
C590 H578 0.930 . S
C590 C591 1.399 . S
C590 C595 1.399 . S
C591 C590 1.399 . S
C591 C592 1.376 . S
C592 H579 0.930 . S
C592 C591 1.376 . S
C592 C593 1.388 1_556 S
C593 H580 0.930 . S
C593 C592 1.388 1_554 S
C593 C594 1.390 . S
C594 C593 1.390 . S
C594 C595 1.394 1_554 S
C594 C600 1.465 . S
C595 C590 1.399 . S
C595 C594 1.394 1_556 S
C595 C596 1.516 1_545 S
C596 C595 1.516 1_565 S
C596 C597 1.502 . S
C596 C598 1.561 . S
C596 C599 1.526 1_556 S
C597 H581 0.959 . S
C597 H582 0.959 . S
C597 H583 0.961 . S
C597 C596 1.502 . S
C598 H584 0.960 . S
C598 H585 0.961 . S
C598 H586 0.959 1_565 S
C598 C596 1.561 . S
C599 C596 1.526 1_554 S
C599 C600 1.396 1_565 S
C599 C604 1.390 . S
C600 C594 1.465 . S
C600 C599 1.396 1_545 S
C600 C601 1.399 . S
C601 H587 0.929 . S
C601 C600 1.399 . S
C601 C602 1.385 1_545 S
C602 H588 0.931 . S
C602 C601 1.385 1_565 S
C602 C603 1.389 . S
C603 C602 1.389 . S
C603 C604 1.387 . S
C604 H589 0.930 . S
C604 C599 1.390 . S
C604 C603 1.387 . S
H605 C617 0.930 . S
H606 C619 0.930 . S
H607 C620 0.930 . S
H608 C624 0.959 . S
H609 C624 0.959 . S
H610 C624 0.961 . S
H611 C625 0.960 . S
H612 C625 0.961 . S
H613 C625 0.959 . S
H614 C628 0.929 . S
H615 C629 0.931 . S
H616 C631 0.930 . S
C617 H605 0.930 . S
C617 C618 1.399 . S
C617 C622 1.399 . S
C618 C617 1.399 . S
C618 C619 1.376 . S
C619 H606 0.930 . S
C619 C618 1.376 . S
C619 C620 1.388 . S
C620 H607 0.930 . S
C620 C619 1.388 . S
C620 C621 1.390 . S
C621 C620 1.390 . S
C621 C622 1.394 . S
C621 C627 1.465 . S
C622 C617 1.399 . S
C622 C621 1.394 . S
C622 C623 1.516 . S
C623 C622 1.516 . S
C623 C624 1.502 . S
C623 C625 1.561 . S
C623 C626 1.526 . S
C624 H608 0.959 . S
C624 H609 0.959 . S
C624 H610 0.961 . S
C624 C623 1.502 . S
C625 H611 0.960 . S
C625 H612 0.961 . S
C625 H613 0.959 . S
C625 C623 1.561 . S
C626 C623 1.526 . S
C626 C627 1.396 . S
C626 C631 1.390 . S
C627 C621 1.465 . S
C627 C626 1.396 . S
C627 C628 1.399 . S
C628 H614 0.929 . S
C628 C627 1.399 . S
C628 C629 1.385 . S
C629 H615 0.931 . S
C629 C628 1.385 . S
C629 C630 1.389 . S
C630 C629 1.389 . S
C630 C631 1.387 . S
C631 H616 0.930 . S
C631 C626 1.390 . S
C631 C630 1.387 . S
H632 C644 0.930 . S
H633 C646 0.930 . S
H634 C647 0.930 . S
H635 C651 0.959 . S
H636 C651 0.959 . S
H637 C651 0.961 . S
H638 C652 0.960 . S
H639 C652 0.961 . S
H640 C652 0.959 . S
H641 C655 0.929 . S
H642 C656 0.931 1_554 S
H643 C658 0.930 . S
C644 H632 0.930 . S
C644 C645 1.399 . S
C644 C649 1.399 . S
C645 C644 1.399 . S
C645 C646 1.376 . S
C646 H633 0.930 . S
C646 C645 1.376 . S
C646 C647 1.388 . S
C647 H634 0.930 . S
C647 C646 1.388 . S
C647 C648 1.390 . S
C648 C647 1.390 . S
C648 C649 1.394 . S
C648 C654 1.465 . S
C649 C644 1.399 . S
C649 C648 1.394 . S
C649 C650 1.516 1_554 S
C650 C649 1.516 1_556 S
C650 C651 1.502 . S
C650 C652 1.561 . S
C650 C653 1.526 . S
C651 H635 0.959 . S
C651 H636 0.959 . S
C651 H637 0.961 . S
C651 C650 1.502 . S
C652 H638 0.960 . S
C652 H639 0.961 . S
C652 H640 0.959 . S
C652 C650 1.561 . S
C653 C650 1.526 . S
C653 C654 1.396 1_556 S
C653 C658 1.390 . S
C654 C648 1.465 . S
C654 C653 1.396 1_554 S
C654 C655 1.399 . S
C655 H641 0.929 . S
C655 C654 1.399 . S
C655 C656 1.385 1_554 S
C656 H642 0.931 1_556 S
C656 C655 1.385 1_556 S
C656 C657 1.389 . S
C657 C656 1.389 . S
C657 C658 1.387 . S
C658 H643 0.930 . S
C658 C653 1.390 . S
C658 C657 1.387 . S
H659 C671 0.930 . S
H660 C673 0.930 . S
H661 C674 0.930 . S
H662 C678 0.959 . S
H663 C678 0.959 . S
H664 C678 0.961 . S
H665 C679 0.960 . S
H666 C679 0.961 . S
H667 C679 0.959 . S
H668 C682 0.929 . S
H669 C683 0.931 . S
H670 C685 0.930 . S
C671 H659 0.930 . S
C671 C672 1.399 . S
C671 C676 1.399 . S
C672 C671 1.399 . S
C672 C673 1.376 . S
C673 H660 0.930 . S
C673 C672 1.376 . S
C673 C674 1.388 . S
C674 H661 0.930 . S
C674 C673 1.388 . S
C674 C675 1.390 . S
C675 C674 1.390 . S
C675 C676 1.394 . S
C675 C681 1.465 . S
C676 C671 1.399 . S
C676 C675 1.394 . S
C676 C677 1.516 . S
C677 C676 1.516 . S
C677 C678 1.502 . S
C677 C679 1.561 . S
C677 C680 1.526 . S
C678 H662 0.959 . S
C678 H663 0.959 . S
C678 H664 0.961 . S
C678 C677 1.502 . S
C679 H665 0.960 . S
C679 H666 0.961 . S
C679 H667 0.959 . S
C679 C677 1.561 . S
C680 C677 1.526 . S
C680 C681 1.396 . S
C680 C685 1.390 . S
C681 C675 1.465 . S
C681 C680 1.396 . S
C681 C682 1.399 . S
C682 H668 0.929 . S
C682 C681 1.399 . S
C682 C683 1.385 . S
C683 H669 0.931 . S
C683 C682 1.385 . S
C683 C684 1.389 . S
C684 C683 1.389 . S
C684 C685 1.387 . S
C685 H670 0.930 . S
C685 C680 1.390 . S
C685 C684 1.387 . S
H686 C698 0.930 1_655 S
H687 C700 0.930 . S
H688 C701 0.930 . S
H689 C705 0.959 . S
H690 C705 0.959 . S
H691 C705 0.961 . S
H692 C706 0.960 . S
H693 C706 0.961 . S
H694 C706 0.959 . S
H695 C709 0.929 . S
H696 C710 0.931 . S
H697 C712 0.930 . S
C698 H686 0.930 1_455 S
C698 C699 1.399 . S
C698 C703 1.399 1_455 S
C699 C698 1.399 . S
C699 C700 1.376 . S
C700 H687 0.930 . S
C700 C699 1.376 . S
C700 C701 1.388 . S
C701 H688 0.930 . S
C701 C700 1.388 . S
C701 C702 1.390 . S
C702 C701 1.390 . S
C702 C703 1.394 1_455 S
C702 C708 1.465 1_455 S
C703 C698 1.399 1_655 S
C703 C702 1.394 1_655 S
C703 C704 1.516 . S
C704 C703 1.516 . S
C704 C705 1.502 . S
C704 C706 1.561 . S
C704 C707 1.526 . S
C705 H689 0.959 . S
C705 H690 0.959 . S
C705 H691 0.961 . S
C705 C704 1.502 . S
C706 H692 0.960 . S
C706 H693 0.961 . S
C706 H694 0.959 . S
C706 C704 1.561 . S
C707 C704 1.526 . S
C707 C708 1.396 . S
C707 C712 1.390 . S
C708 C702 1.465 1_655 S
C708 C707 1.396 . S
C708 C709 1.399 1_655 S
C709 H695 0.929 . S
C709 C708 1.399 1_455 S
C709 C710 1.385 1_455 S
C710 H696 0.931 . S
C710 C709 1.385 1_655 S
C710 C711 1.389 . S
C711 C710 1.389 . S
C711 C712 1.387 . S
C712 H697 0.930 . S
C712 C707 1.390 . S
C712 C711 1.387 . S
H713 C725 0.930 . S
H714 C727 0.930 . S
H715 C728 0.930 . S
H716 C732 0.959 . S
H717 C732 0.959 . S
H718 C732 0.961 . S
H719 C733 0.960 . S
H720 C733 0.961 . S
H721 C733 0.959 . S
H722 C736 0.929 . S
H723 C737 0.931 . S
H724 C739 0.930 . S
C725 H713 0.930 . S
C725 C726 1.399 . S
C725 C730 1.399 . S
C726 C725 1.399 . S
C726 C727 1.376 . S
C727 H714 0.930 . S
C727 C726 1.376 . S
C727 C728 1.388 . S
C728 H715 0.930 . S
C728 C727 1.388 . S
C728 C729 1.390 . S
C729 C728 1.390 . S
C729 C730 1.394 . S
C729 C735 1.465 . S
C730 C725 1.399 . S
C730 C729 1.394 . S
C730 C731 1.516 . S
C731 C730 1.516 . S
C731 C732 1.502 . S
C731 C733 1.561 . S
C731 C734 1.526 . S
C732 H716 0.959 . S
C732 H717 0.959 . S
C732 H718 0.961 . S
C732 C731 1.502 . S
C733 H719 0.960 . S
C733 H720 0.961 . S
C733 H721 0.959 . S
C733 C731 1.561 . S
C734 C731 1.526 . S
C734 C735 1.396 . S
C734 C739 1.390 . S
C735 C729 1.465 . S
C735 C734 1.396 . S
C735 C736 1.399 . S
C736 H722 0.929 . S
C736 C735 1.399 . S
C736 C737 1.385 . S
C737 H723 0.931 . S
C737 C736 1.385 . S
C737 C738 1.389 . S
C738 C737 1.389 . S
C738 C739 1.387 . S
C739 H724 0.930 . S
C739 C734 1.390 . S
C739 C738 1.387 . S
H740 C752 0.930 . S
H741 C754 0.930 . S
H742 C755 0.930 . S
H743 C759 0.959 . S
H744 C759 0.959 . S
H745 C759 0.961 . S
H746 C760 0.960 . S
H747 C760 0.961 . S
H748 C760 0.959 . S
H749 C763 0.929 . S
H750 C764 0.931 . S
H751 C766 0.930 . S
C752 H740 0.930 . S
C752 C753 1.399 . S
C752 C757 1.399 . S
C753 C752 1.399 . S
C753 C754 1.376 . S
C754 H741 0.930 . S
C754 C753 1.376 . S
C754 C755 1.388 . S
C755 H742 0.930 . S
C755 C754 1.388 . S
C755 C756 1.390 . S
C756 C755 1.390 . S
C756 C757 1.394 . S
C756 C762 1.465 . S
C757 C752 1.399 . S
C757 C756 1.394 . S
C757 C758 1.516 . S
C758 C757 1.516 . S
C758 C759 1.502 . S
C758 C760 1.561 . S
C758 C761 1.526 . S
C759 H743 0.959 . S
C759 H744 0.959 . S
C759 H745 0.961 . S
C759 C758 1.502 . S
C760 H746 0.960 . S
C760 H747 0.961 . S
C760 H748 0.959 . S
C760 C758 1.561 . S
C761 C758 1.526 . S
C761 C762 1.396 . S
C761 C766 1.390 . S
C762 C756 1.465 . S
C762 C761 1.396 . S
C762 C763 1.399 . S
C763 H749 0.929 . S
C763 C762 1.399 . S
C763 C764 1.385 . S
C764 H750 0.931 . S
C764 C763 1.385 . S
C764 C765 1.389 . S
C765 C764 1.389 . S
C765 C766 1.387 . S
C766 H751 0.930 . S
C766 C761 1.390 . S
C766 C765 1.387 . S
H767 C779 0.930 . S
H768 C781 0.930 . S
H769 C782 0.930 . S
H770 C786 0.959 . S
H771 C786 0.959 . S
H772 C786 0.961 . S
H773 C787 0.960 . S
H774 C787 0.961 . S
H775 C787 0.959 . S
H776 C790 0.929 . S
H777 C791 0.931 . S
H778 C793 0.930 . S
C779 H767 0.930 . S
C779 C780 1.399 . S
C779 C784 1.399 . S
C780 C779 1.399 . S
C780 C781 1.376 . S
C781 H768 0.930 . S
C781 C780 1.376 . S
C781 C782 1.388 . S
C782 H769 0.930 . S
C782 C781 1.388 . S
C782 C783 1.390 . S
C783 C782 1.390 . S
C783 C784 1.394 . S
C783 C789 1.465 . S
C784 C779 1.399 . S
C784 C783 1.394 . S
C784 C785 1.516 . S
C785 C784 1.516 . S
C785 C786 1.502 . S
C785 C787 1.561 . S
C785 C788 1.526 . S
C786 H770 0.959 . S
C786 H771 0.959 . S
C786 H772 0.961 . S
C786 C785 1.502 . S
C787 H773 0.960 . S
C787 H774 0.961 . S
C787 H775 0.959 . S
C787 C785 1.561 . S
C788 C785 1.526 . S
C788 C789 1.396 . S
C788 C793 1.390 . S
C789 C783 1.465 . S
C789 C788 1.396 . S
C789 C790 1.399 . S
C790 H776 0.929 . S
C790 C789 1.399 . S
C790 C791 1.385 . S
C791 H777 0.931 . S
C791 C790 1.385 . S
C791 C792 1.389 . S
C792 C791 1.389 . S
C792 C793 1.387 . S
C793 H778 0.930 . S
C793 C788 1.390 . S
C793 C792 1.387 . S
H794 C806 0.930 . S
H795 C808 0.930 . S
H796 C809 0.930 . S
H797 C813 0.959 . S
H798 C813 0.959 . S
H799 C813 0.961 . S
H800 C814 0.960 . S
H801 C814 0.961 . S
H802 C814 0.959 . S
H803 C817 0.929 . S
H804 C818 0.931 . S
H805 C820 0.930 . S
C806 H794 0.930 . S
C806 C807 1.399 . S
C806 C811 1.399 . S
C807 C806 1.399 . S
C807 C808 1.376 . S
C808 H795 0.930 . S
C808 C807 1.376 . S
C808 C809 1.388 . S
C809 H796 0.930 . S
C809 C808 1.388 . S
C809 C810 1.390 . S
C810 C809 1.390 . S
C810 C811 1.394 . S
C810 C816 1.465 . S
C811 C806 1.399 . S
C811 C810 1.394 . S
C811 C812 1.516 . S
C812 C811 1.516 . S
C812 C813 1.502 . S
C812 C814 1.561 . S
C812 C815 1.526 . S
C813 H797 0.959 . S
C813 H798 0.959 . S
C813 H799 0.961 . S
C813 C812 1.502 . S
C814 H800 0.960 . S
C814 H801 0.961 . S
C814 H802 0.959 . S
C814 C812 1.561 . S
C815 C812 1.526 . S
C815 C816 1.396 . S
C815 C820 1.390 . S
C816 C810 1.465 . S
C816 C815 1.396 . S
C816 C817 1.399 . S
C817 H803 0.929 . S
C817 C816 1.399 . S
C817 C818 1.385 . S
C818 H804 0.931 . S
C818 C817 1.385 . S
C818 C819 1.389 . S
C819 C818 1.389 . S
C819 C820 1.387 . S
C820 H805 0.930 . S
C820 C815 1.390 . S
C820 C819 1.387 . S
H821 C833 0.930 . S
H822 C835 0.930 . S
H823 C836 0.930 1_554 S
H824 C840 0.959 . S
H825 C840 0.959 . S
H826 C840 0.961 . S
H827 C841 0.960 . S
H828 C841 0.961 . S
H829 C841 0.959 1_455 S
H830 C844 0.929 . S
H831 C845 0.931 . S
H832 C847 0.930 . S
C833 H821 0.930 . S
C833 C834 1.399 . S
C833 C838 1.399 . S
C834 C833 1.399 . S
C834 C835 1.376 . S
C835 H822 0.930 . S
C835 C834 1.376 . S
C835 C836 1.388 . S
C836 H823 0.930 1_556 S
C836 C835 1.388 . S
C836 C837 1.390 . S
C837 C836 1.390 . S
C837 C838 1.394 . S
C837 C843 1.465 1_556 S
C838 C833 1.399 . S
C838 C837 1.394 . S
C838 C839 1.516 1_455 S
C839 C838 1.516 1_655 S
C839 C840 1.502 . S
C839 C841 1.561 . S
C839 C842 1.526 . S
C840 H824 0.959 . S
C840 H825 0.959 . S
C840 H826 0.961 . S
C840 C839 1.502 . S
C841 H827 0.960 . S
C841 H828 0.961 . S
C841 H829 0.959 1_655 S
C841 C839 1.561 . S
C842 C839 1.526 . S
C842 C843 1.396 1_656 S
C842 C847 1.390 1_556 S
C843 C837 1.465 1_554 S
C843 C842 1.396 1_454 S
C843 C844 1.399 . S
C844 H830 0.929 . S
C844 C843 1.399 . S
C844 C845 1.385 1_455 S
C845 H831 0.931 . S
C845 C844 1.385 1_655 S
C845 C846 1.389 . S
C846 C845 1.389 . S
C846 C847 1.387 . S
C847 H832 0.930 . S
C847 C842 1.390 1_554 S
C847 C846 1.387 . S
H848 C860 0.930 1_565 S
H849 C862 0.930 . S
H850 C863 0.930 . S
H851 C867 0.959 . S
H852 C867 0.959 . S
H853 C867 0.961 . S
H854 C868 0.960 . S
H855 C868 0.961 . S
H856 C868 0.959 . S
H857 C871 0.929 . S
H858 C872 0.931 . S
H859 C874 0.930 . S
C860 H848 0.930 1_545 S
C860 C861 1.399 . S
C860 C865 1.399 1_545 S
C861 C860 1.399 . S
C861 C862 1.376 . S
C862 H849 0.930 . S
C862 C861 1.376 . S
C862 C863 1.388 . S
C863 H850 0.930 . S
C863 C862 1.388 . S
C863 C864 1.377 1_545 S
C864 C863 1.377 1_565 S
C864 C865 1.399 . S
C864 C870 1.475 . S
C865 C860 1.399 1_565 S
C865 C864 1.399 . S
C865 C866 1.516 . S
C866 C865 1.516 . S
C866 C867 1.502 . S
C866 C868 1.561 . S
C866 C869 1.526 . S
C867 H851 0.959 . S
C867 H852 0.959 . S
C867 H853 0.961 . S
C867 C866 1.502 . S
C868 H854 0.960 . S
C868 H855 0.961 . S
C868 H856 0.959 . S
C868 C866 1.561 . S
C869 C866 1.526 . S
C869 C870 1.396 . S
C869 C874 1.390 . S
C870 C864 1.475 . S
C870 C869 1.396 . S
C870 C871 1.399 . S
C871 H857 0.929 . S
C871 C870 1.399 . S
C871 C872 1.385 . S
C872 H858 0.931 . S
C872 C871 1.385 . S
C872 C873 1.389 . S
C873 C872 1.389 . S
C873 C874 1.387 . S
C874 H859 0.930 . S
C874 C869 1.390 . S
C874 C873 1.387 . S
H875 C887 0.930 . S
H876 C889 0.930 . S
H877 C890 0.930 . S
H878 C894 0.959 . S
H879 C894 0.959 . S
H880 C894 0.961 . S
H881 C895 0.960 . S
H882 C895 0.961 . S
H883 C895 0.959 . S
H884 C898 0.929 . S
H885 C899 0.931 . S
H886 C901 0.930 . S
C887 H875 0.930 . S
C887 C888 1.399 . S
C887 C892 1.399 . S
C888 C887 1.399 . S
C888 C889 1.376 . S
C889 H876 0.930 . S
C889 C888 1.376 . S
C889 C890 1.388 . S
C890 H877 0.930 . S
C890 C889 1.388 . S
C890 C891 1.390 . S
C891 C890 1.390 . S
C891 C892 1.394 . S
C891 C897 1.465 . S
C892 C887 1.399 . S
C892 C891 1.394 . S
C892 C893 1.516 . S
C893 C892 1.516 . S
C893 C894 1.502 . S
C893 C895 1.561 . S
C893 C896 1.526 . S
C894 H878 0.959 . S
C894 H879 0.959 . S
C894 H880 0.961 . S
C894 C893 1.502 . S
C895 H881 0.960 . S
C895 H882 0.961 . S
C895 H883 0.959 . S
C895 C893 1.561 . S
C896 C893 1.526 . S
C896 C897 1.396 . S
C896 C901 1.390 . S
C897 C891 1.465 . S
C897 C896 1.396 . S
C897 C898 1.399 . S
C898 H884 0.929 . S
C898 C897 1.399 . S
C898 C899 1.385 . S
C899 H885 0.931 . S
C899 C898 1.385 . S
C899 C900 1.389 . S
C900 C899 1.389 . S
C900 C901 1.387 . S
C901 H886 0.930 . S
C901 C896 1.390 . S
C901 C900 1.387 . S
H902 C914 0.930 . S
H903 C916 0.930 . S
H904 C917 0.930 . S
H905 C921 0.959 . S
H906 C921 0.959 . S
H907 C921 0.961 . S
H908 C922 0.960 . S
H909 C922 0.961 . S
H910 C922 0.959 . S
H911 C925 0.929 . S
H912 C926 0.931 . S
H913 C928 0.930 1_545 S
C914 H902 0.930 . S
C914 C915 1.399 . S
C914 C919 1.399 . S
C915 C914 1.399 . S
C915 C916 1.376 . S
C916 H903 0.930 . S
C916 C915 1.376 . S
C916 C917 1.388 . S
C917 H904 0.930 . S
C917 C916 1.388 . S
C917 C918 1.390 . S
C918 C917 1.390 . S
C918 C919 1.394 . S
C918 C924 1.465 1_545 S
C919 C914 1.399 . S
C919 C918 1.394 . S
C919 C920 1.516 . S
C920 C919 1.516 . S
C920 C921 1.502 . S
C920 C922 1.561 . S
C920 C923 1.526 . S
C921 H905 0.959 . S
C921 H906 0.959 . S
C921 H907 0.961 . S
C921 C920 1.502 . S
C922 H908 0.960 . S
C922 H909 0.961 . S
C922 H910 0.959 . S
C922 C920 1.561 . S
C923 C920 1.526 . S
C923 C924 1.396 1_545 S
C923 C928 1.390 1_545 S
C924 C918 1.465 1_565 S
C924 C923 1.396 1_565 S
C924 C925 1.399 . S
C925 H911 0.929 . S
C925 C924 1.399 . S
C925 C926 1.385 . S
C926 H912 0.931 . S
C926 C925 1.385 . S
C926 C927 1.389 . S
C927 C926 1.389 . S
C927 C928 1.387 . S
C928 H913 0.930 1_565 S
C928 C923 1.390 1_565 S
C928 C927 1.387 . S
H929 C941 0.930 . S
H930 C943 0.930 . S
H931 C944 0.930 . S
H932 C948 0.959 . S
H933 C948 0.959 . S
H934 C948 0.961 . S
H935 C949 0.960 . S
H936 C949 0.960 . S
H937 C949 0.959 1_554 S
H938 C952 0.929 . S
H939 C953 0.931 . S
H940 C955 0.930 . S
C941 H929 0.930 . S
C941 C942 1.399 . S
C941 C946 1.399 . S
C942 C941 1.399 . S
C942 C943 1.376 . S
C943 H930 0.930 . S
C943 C942 1.376 . S
C943 C944 1.388 . S
C944 H931 0.930 . S
C944 C943 1.388 . S
C944 C945 1.390 . S
C945 C944 1.390 . S
C945 C946 1.394 . S
C945 C951 1.465 . S
C946 C941 1.399 . S
C946 C945 1.394 . S
C946 C947 1.516 . S
C947 C946 1.516 . S
C947 C948 1.502 . S
C947 C949 1.561 . S
C947 C950 1.526 . S
C948 H932 0.959 . S
C948 H933 0.959 . S
C948 H934 0.961 . S
C948 C947 1.502 . S
C949 H935 0.960 . S
C949 H936 0.960 . S
C949 H937 0.959 1_556 S
C949 C947 1.561 . S
C950 C947 1.526 . S
C950 C951 1.396 . S
C950 C955 1.390 1_556 S
C951 C945 1.465 . S
C951 C950 1.396 . S
C951 C952 1.399 1_556 S
C952 H938 0.929 . S
C952 C951 1.399 1_554 S
C952 C953 1.385 . S
C953 H939 0.931 . S
C953 C952 1.385 . S
C953 C954 1.389 . S
C954 C953 1.389 . S
C954 C955 1.387 . S
C955 H940 0.930 . S
C955 C950 1.390 1_554 S
C955 C954 1.387 . S
H956 C968 0.930 . S
H957 C970 0.930 . S
H958 C971 0.930 . S
H959 C975 0.959 . S
H960 C975 0.959 . S
H961 C975 0.961 . S
H962 C976 0.960 . S
H963 C976 0.961 . S
H964 C976 0.959 . S
H965 C979 0.929 . S
H966 C980 0.931 . S
H967 C982 0.930 . S
C968 H956 0.930 . S
C968 C969 1.399 . S
C968 C973 1.399 . S
C969 C968 1.399 . S
C969 C970 1.376 . S
C970 H957 0.930 . S
C970 C969 1.376 . S
C970 C971 1.388 . S
C971 H958 0.930 . S
C971 C970 1.388 . S
C971 C972 1.390 . S
C972 C971 1.390 . S
C972 C973 1.394 . S
C972 C978 1.465 . S
C973 C968 1.399 . S
C973 C972 1.394 . S
C973 C974 1.516 1_545 S
C974 C973 1.516 1_565 S
C974 C975 1.502 . S
C974 C976 1.561 . S
C974 C977 1.526 . S
C975 H959 0.959 . S
C975 H960 0.959 . S
C975 H961 0.961 . S
C975 C974 1.502 . S
C976 H962 0.960 . S
C976 H963 0.961 . S
C976 H964 0.959 . S
C976 C974 1.561 . S
C977 C974 1.526 . S
C977 C978 1.396 1_565 S
C977 C982 1.390 . S
C978 C972 1.465 . S
C978 C977 1.396 1_545 S
C978 C979 1.399 . S
C979 H965 0.929 . S
C979 C978 1.399 . S
C979 C980 1.385 1_545 S
C980 H966 0.931 . S
C980 C979 1.385 1_565 S
C980 C981 1.389 . S
C981 C980 1.389 . S
C981 C982 1.387 . S
C982 H967 0.930 . S
C982 C977 1.390 . S
C982 C981 1.387 . S
H983 C995 0.930 . S
H984 C997 0.930 . S
H985 C998 0.930 . S
H986 C1002 0.959 . S
H987 C1002 0.959 . S
H988 C1002 0.961 . S
H989 C1003 0.960 . S
H990 C1003 0.961 . S
H991 C1003 0.959 . S
H992 C1006 0.929 . S
H993 C1007 0.931 . S
H994 C1009 0.930 . S
C995 H983 0.930 . S
C995 C996 1.399 . S
C995 C1000 1.399 . S
C996 C995 1.399 . S
C996 C997 1.376 . S
C997 H984 0.930 . S
C997 C996 1.376 . S
C997 C998 1.388 . S
C998 H985 0.930 . S
C998 C997 1.388 . S
C998 C999 1.390 . S
C999 C998 1.390 . S
C999 C1000 1.394 . S
C999 C1005 1.465 . S
C1000 C995 1.399 . S
C1000 C999 1.394 . S
C1000 C1001 1.516 . S
C1001 C1000 1.516 . S
C1001 C1002 1.502 . S
C1001 C1003 1.561 . S
C1001 C1004 1.526 . S
C1002 H986 0.959 . S
C1002 H987 0.959 . S
C1002 H988 0.961 . S
C1002 C1001 1.502 . S
C1003 H989 0.960 . S
C1003 H990 0.961 . S
C1003 H991 0.959 . S
C1003 C1001 1.561 . S
C1004 C1001 1.526 . S
C1004 C1005 1.396 . S
C1004 C1009 1.390 . S
C1005 C999 1.465 . S
C1005 C1004 1.396 . S
C1005 C1006 1.399 . S
C1006 H992 0.929 . S
C1006 C1005 1.399 . S
C1006 C1007 1.385 . S
C1007 H993 0.931 . S
C1007 C1006 1.385 . S
C1007 C1008 1.389 . S
C1008 C1007 1.389 . S
C1008 C1009 1.387 . S
C1009 H994 0.930 . S
C1009 C1004 1.390 . S
C1009 C1008 1.387 . S
H1010 C1022 0.930 . S
H1011 C1024 0.930 . S
H1012 C1025 0.930 . S
H1013 C1029 0.959 . S
H1014 C1029 0.959 . S
H1015 C1029 0.961 . S
H1016 C1030 0.960 . S
H1017 C1030 0.961 . S
H1018 C1030 0.959 . S
H1019 C1033 0.929 . S
H1020 C1034 0.931 . S
H1021 C1036 0.930 . S
C1022 H1010 0.930 . S
C1022 C1023 1.399 . S
C1022 C1027 1.399 1_545 S
C1023 C1022 1.399 . S
C1023 C1024 1.376 . S
C1024 H1011 0.930 . S
C1024 C1023 1.376 . S
C1024 C1025 1.388 . S
C1025 H1012 0.930 . S
C1025 C1024 1.388 . S
C1025 C1026 1.413 . S
C1026 C1025 1.413 . S
C1026 C1027 1.391 1_545 S
C1026 C1032 1.443 1_545 S
C1027 C1022 1.399 1_565 S
C1027 C1026 1.391 1_565 S
C1027 C1028 1.516 . S
C1028 C1027 1.516 . S
C1028 C1029 1.502 . S
C1028 C1030 1.561 . S
C1028 C1031 1.526 . S
C1029 H1013 0.959 . S
C1029 H1014 0.959 . S
C1029 H1015 0.961 . S
C1029 C1028 1.502 . S
C1030 H1016 0.960 . S
C1030 H1017 0.961 . S
C1030 H1018 0.959 . S
C1030 C1028 1.561 . S
C1031 C1028 1.526 . S
C1031 C1032 1.396 . S
C1031 C1036 1.390 . S
C1032 C1026 1.443 1_565 S
C1032 C1031 1.396 . S
C1032 C1033 1.399 . S
C1033 H1019 0.929 . S
C1033 C1032 1.399 . S
C1033 C1034 1.385 . S
C1034 H1020 0.931 . S
C1034 C1033 1.385 . S
C1034 C1035 1.389 . S
C1035 C1034 1.389 . S
C1035 C1036 1.387 . S
C1036 H1021 0.930 . S
C1036 C1031 1.390 . S
C1036 C1035 1.387 . S
H1037 C1049 0.930 . S
H1038 C1051 0.930 . S
H1039 C1052 0.930 . S
H1040 C1056 0.959 1_556 S
H1041 C1056 0.959 . S
H1042 C1056 0.961 1_556 S
H1043 C1057 0.960 . S
H1044 C1057 0.961 . S
H1045 C1057 0.959 . S
H1046 C1060 0.929 . S
H1047 C1061 0.931 . S
H1048 C1063 0.930 . S
C1049 H1037 0.930 . S
C1049 C1050 1.399 . S
C1049 C1054 1.399 1_556 S
C1050 C1049 1.399 . S
C1050 C1051 1.376 . S
C1051 H1038 0.930 . S
C1051 C1050 1.376 . S
C1051 C1052 1.387 1_556 S
C1052 H1039 0.930 . S
C1052 C1051 1.387 1_554 S
C1052 C1053 1.391 . S
C1053 C1052 1.391 . S
C1053 C1054 1.394 . S
C1053 C1059 1.465 . S
C1054 C1049 1.399 1_554 S
C1054 C1053 1.394 . S
C1054 C1055 1.516 . S
C1055 C1054 1.516 . S
C1055 C1056 1.502 . S
C1055 C1057 1.561 . S
C1055 C1058 1.526 . S
C1056 H1040 0.959 1_554 S
C1056 H1041 0.959 . S
C1056 H1042 0.961 1_554 S
C1056 C1055 1.502 . S
C1057 H1043 0.960 . S
C1057 H1044 0.961 . S
C1057 H1045 0.959 . S
C1057 C1055 1.561 . S
C1058 C1055 1.526 . S
C1058 C1059 1.396 . S
C1058 C1063 1.390 . S
C1059 C1053 1.465 . S
C1059 C1058 1.396 . S
C1059 C1060 1.399 . S
C1060 H1046 0.929 . S
C1060 C1059 1.399 . S
C1060 C1061 1.385 . S
C1061 H1047 0.931 . S
C1061 C1060 1.385 . S
C1061 C1062 1.389 . S
C1062 C1061 1.389 . S
C1062 C1063 1.387 . S
C1063 H1048 0.930 . S
C1063 C1058 1.390 . S
C1063 C1062 1.387 . S
H1064 C1076 0.930 . S
H1065 C1078 0.930 . S
H1066 C1079 0.930 . S
H1067 C1083 0.959 . S
H1068 C1083 0.959 . S
H1069 C1083 0.961 . S
H1070 C1084 0.960 . S
H1071 C1084 0.961 . S
H1072 C1084 0.959 . S
H1073 C1087 0.929 . S
H1074 C1088 0.931 . S
H1075 C1090 0.930 . S
C1076 H1064 0.930 . S
C1076 C1077 1.399 . S
C1076 C1081 1.399 . S
C1077 C1076 1.399 . S
C1077 C1078 1.376 . S
C1078 H1065 0.930 . S
C1078 C1077 1.376 . S
C1078 C1079 1.388 . S
C1079 H1066 0.930 . S
C1079 C1078 1.388 . S
C1079 C1080 1.390 . S
C1080 C1079 1.390 . S
C1080 C1081 1.394 . S
C1080 C1086 1.465 . S
C1081 C1076 1.399 . S
C1081 C1080 1.394 . S
C1081 C1082 1.516 . S
C1082 C1081 1.516 . S
C1082 C1083 1.502 1_655 S
C1082 C1084 1.561 . S
C1082 C1085 1.526 . S
C1083 H1067 0.959 . S
C1083 H1068 0.959 . S
C1083 H1069 0.961 . S
C1083 C1082 1.502 1_455 S
C1084 H1070 0.960 . S
C1084 H1071 0.961 . S
C1084 H1072 0.959 . S
C1084 C1082 1.561 . S
C1085 C1082 1.526 . S
C1085 C1086 1.396 . S
C1085 C1090 1.389 1_655 S
C1086 C1080 1.465 . S
C1086 C1085 1.396 . S
C1086 C1087 1.399 . S
C1087 H1073 0.929 . S
C1087 C1086 1.399 . S
C1087 C1088 1.385 1_655 S
C1088 H1074 0.931 . S
C1088 C1087 1.385 1_455 S
C1088 C1089 1.389 . S
C1089 C1088 1.389 . S
C1089 C1090 1.387 . S
C1090 H1075 0.930 . S
C1090 C1085 1.389 1_455 S
C1090 C1089 1.387 . S
H1091 C1103 0.930 . S
H1092 C1105 0.930 . S
H1093 C1106 0.930 . S
H1094 C1110 0.959 . S
H1095 C1110 0.959 . S
H1096 C1110 0.961 . S
H1097 C1111 0.960 . S
H1098 C1111 0.961 . S
H1099 C1111 0.959 . S
H1100 C1114 0.929 . S
H1101 C1115 0.931 . S
H1102 C1117 0.930 . S
C1103 H1091 0.930 . S
C1103 C1104 1.399 . S
C1103 C1108 1.399 . S
C1104 C1103 1.399 . S
C1104 C1105 1.376 . S
C1105 H1092 0.930 . S
C1105 C1104 1.376 . S
C1105 C1106 1.388 . S
C1106 H1093 0.930 . S
C1106 C1105 1.388 . S
C1106 C1107 1.390 . S
C1107 C1106 1.390 . S
C1107 C1108 1.394 . S
C1107 C1113 1.465 . S
C1108 C1103 1.399 . S
C1108 C1107 1.394 . S
C1108 C1109 1.516 . S
C1109 C1108 1.516 . S
C1109 C1110 1.502 . S
C1109 C1111 1.561 . S
C1109 C1112 1.526 . S
C1110 H1094 0.959 . S
C1110 H1095 0.959 . S
C1110 H1096 0.961 . S
C1110 C1109 1.502 . S
C1111 H1097 0.960 . S
C1111 H1098 0.961 . S
C1111 H1099 0.959 . S
C1111 C1109 1.561 . S
C1112 C1109 1.526 . S
C1112 C1113 1.396 . S
C1112 C1117 1.390 . S
C1113 C1107 1.465 . S
C1113 C1112 1.396 . S
C1113 C1114 1.399 . S
C1114 H1100 0.929 . S
C1114 C1113 1.399 . S
C1114 C1115 1.385 . S
C1115 H1101 0.931 . S
C1115 C1114 1.385 . S
C1115 C1116 1.389 . S
C1116 C1115 1.389 . S
C1116 C1117 1.387 . S
C1117 H1102 0.930 . S
C1117 C1112 1.390 . S
C1117 C1116 1.387 . S
H1118 C1130 0.930 . S
H1119 C1132 0.930 . S
H1120 C1133 0.930 . S
H1121 C1137 0.959 . S
H1122 C1137 0.959 . S
H1123 C1137 0.961 . S
H1124 C1138 0.960 1_655 S
H1125 C1138 0.961 . S
H1126 C1138 0.959 1_655 S
H1127 C1141 0.929 . S
H1128 C1142 0.931 . S
H1129 C1144 0.930 . S
C1130 H1118 0.930 . S
C1130 C1131 1.399 . S
C1130 C1135 1.399 . S
C1131 C1130 1.399 . S
C1131 C1132 1.376 . S
C1132 H1119 0.930 . S
C1132 C1131 1.376 . S
C1132 C1133 1.388 . S
C1133 H1120 0.930 . S
C1133 C1132 1.388 . S
C1133 C1134 1.390 . S
C1134 C1133 1.390 . S
C1134 C1135 1.394 . S
C1134 C1140 1.465 1_655 S
C1135 C1130 1.399 . S
C1135 C1134 1.394 . S
C1135 C1136 1.516 1_655 S
C1136 C1135 1.516 1_455 S
C1136 C1137 1.502 . S
C1136 C1138 1.561 . S
C1136 C1139 1.526 . S
C1137 H1121 0.959 . S
C1137 H1122 0.959 . S
C1137 H1123 0.961 . S
C1137 C1136 1.502 . S
C1138 H1124 0.960 1_455 S
C1138 H1125 0.961 . S
C1138 H1126 0.959 1_455 S
C1138 C1136 1.561 . S
C1139 C1136 1.526 . S
C1139 C1140 1.396 . S
C1139 C1144 1.390 . S
C1140 C1134 1.465 1_455 S
C1140 C1139 1.396 . S
C1140 C1141 1.399 . S
C1141 H1127 0.929 . S
C1141 C1140 1.399 . S
C1141 C1142 1.385 . S
C1142 H1128 0.931 . S
C1142 C1141 1.385 . S
C1142 C1143 1.389 . S
C1143 C1142 1.389 . S
C1143 C1144 1.387 . S
C1144 H1129 0.930 . S
C1144 C1139 1.390 . S
C1144 C1143 1.387 . S
H1145 C1157 0.930 . S
H1146 C1159 0.930 . S
H1147 C1160 0.930 . S
H1148 C1164 0.959 . S
H1149 C1164 0.959 1_455 S
H1150 C1164 0.961 . S
H1151 C1165 0.960 . S
H1152 C1165 0.961 . S
H1153 C1165 0.959 . S
H1154 C1168 0.929 . S
H1155 C1169 0.931 . S
H1156 C1171 0.930 . S
C1157 H1145 0.930 . S
C1157 C1158 1.399 . S
C1157 C1162 1.399 1_655 S
C1158 C1157 1.399 . S
C1158 C1159 1.376 . S
C1159 H1146 0.930 . S
C1159 C1158 1.376 . S
C1159 C1160 1.388 1_655 S
C1160 H1147 0.930 . S
C1160 C1159 1.388 1_455 S
C1160 C1161 1.390 . S
C1161 C1160 1.390 . S
C1161 C1162 1.394 . S
C1161 C1167 1.465 . S
C1162 C1157 1.399 1_455 S
C1162 C1161 1.394 . S
C1162 C1163 1.516 . S
C1163 C1162 1.516 . S
C1163 C1164 1.502 1_455 S
C1163 C1165 1.561 . S
C1163 C1166 1.526 . S
C1164 H1148 0.959 . S
C1164 H1149 0.959 1_655 S
C1164 H1150 0.961 . S
C1164 C1163 1.502 1_655 S
C1165 H1151 0.960 . S
C1165 H1152 0.961 . S
C1165 H1153 0.959 . S
C1165 C1163 1.561 . S
C1166 C1163 1.526 . S
C1166 C1167 1.396 . S
C1166 C1171 1.390 . S
C1167 C1161 1.465 . S
C1167 C1166 1.396 . S
C1167 C1168 1.399 . S
C1168 H1154 0.929 . S
C1168 C1167 1.399 . S
C1168 C1169 1.385 . S
C1169 H1155 0.931 . S
C1169 C1168 1.385 . S
C1169 C1170 1.389 . S
C1170 C1169 1.389 . S
C1170 C1171 1.387 . S
C1171 H1156 0.930 . S
C1171 C1166 1.390 . S
C1171 C1170 1.387 . S
H1172 C1184 0.930 . S
H1173 C1186 0.930 . S
H1174 C1187 0.930 . S
H1175 C1191 0.959 . S
H1176 C1191 0.959 . S
H1177 C1191 0.961 . S
H1178 C1192 0.960 . S
H1179 C1192 0.961 . S
H1180 C1192 0.959 . S
H1181 C1195 0.929 . S
H1182 C1196 0.931 . S
H1183 C1198 0.930 . S
C1184 H1172 0.930 . S
C1184 C1185 1.399 . S
C1184 C1189 1.399 . S
C1185 C1184 1.399 . S
C1185 C1186 1.376 . S
C1186 H1173 0.930 . S
C1186 C1185 1.376 . S
C1186 C1187 1.388 . S
C1187 H1174 0.930 . S
C1187 C1186 1.388 . S
C1187 C1188 1.390 . S
C1188 C1187 1.390 . S
C1188 C1189 1.394 . S
C1188 C1194 1.465 . S
C1189 C1184 1.399 . S
C1189 C1188 1.394 . S
C1189 C1190 1.516 . S
C1190 C1189 1.516 . S
C1190 C1191 1.502 . S
C1190 C1192 1.561 . S
C1190 C1193 1.526 . S
C1191 H1175 0.959 . S
C1191 H1176 0.959 . S
C1191 H1177 0.961 . S
C1191 C1190 1.502 . S
C1192 H1178 0.960 . S
C1192 H1179 0.961 . S
C1192 H1180 0.959 . S
C1192 C1190 1.561 . S
C1193 C1190 1.526 . S
C1193 C1194 1.396 . S
C1193 C1198 1.390 . S
C1194 C1188 1.465 . S
C1194 C1193 1.396 . S
C1194 C1195 1.399 . S
C1195 H1181 0.929 . S
C1195 C1194 1.399 . S
C1195 C1196 1.385 . S
C1196 H1182 0.931 . S
C1196 C1195 1.385 . S
C1196 C1197 1.389 . S
C1197 C1196 1.389 . S
C1197 C1198 1.387 . S
C1198 H1183 0.930 . S
C1198 C1193 1.390 . S
C1198 C1197 1.387 . S
H1199 C1211 0.930 . S
H1200 C1213 0.930 . S
H1201 C1214 0.930 . S
H1202 C1218 0.959 . S
H1203 C1218 0.959 . S
H1204 C1218 0.961 . S
H1205 C1219 0.960 . S
H1206 C1219 0.961 . S
H1207 C1219 0.959 . S
H1208 C1222 0.929 . S
H1209 C1223 0.931 . S
H1210 C1225 0.930 . S
C1211 H1199 0.930 . S
C1211 C1212 1.399 . S
C1211 C1216 1.399 . S
C1212 C1211 1.399 . S
C1212 C1213 1.376 . S
C1213 H1200 0.930 . S
C1213 C1212 1.376 . S
C1213 C1214 1.388 . S
C1214 H1201 0.930 . S
C1214 C1213 1.388 . S
C1214 C1215 1.390 . S
C1215 C1214 1.390 . S
C1215 C1216 1.394 . S
C1215 C1221 1.465 1_655 S
C1216 C1211 1.399 . S
C1216 C1215 1.394 . S
C1216 C1217 1.516 . S
C1217 C1216 1.516 . S
C1217 C1218 1.502 . S
C1217 C1219 1.561 1_655 S
C1217 C1220 1.526 1_655 S
C1218 H1202 0.959 . S
C1218 H1203 0.959 . S
C1218 H1204 0.961 . S
C1218 C1217 1.502 . S
C1219 H1205 0.960 . S
C1219 H1206 0.961 . S
C1219 H1207 0.959 . S
C1219 C1217 1.561 1_455 S
C1220 C1217 1.526 1_455 S
C1220 C1221 1.396 . S
C1220 C1225 1.390 . S
C1221 C1215 1.465 1_455 S
C1221 C1220 1.396 . S
C1221 C1222 1.399 . S
C1222 H1208 0.929 . S
C1222 C1221 1.399 . S
C1222 C1223 1.385 . S
C1223 H1209 0.931 . S
C1223 C1222 1.385 . S
C1223 C1224 1.389 . S
C1224 C1223 1.389 . S
C1224 C1225 1.387 . S
C1225 H1210 0.930 . S
C1225 C1220 1.390 . S
C1225 C1224 1.387 . S
H1226 C1238 0.930 . S
H1227 C1240 0.930 . S
H1228 C1241 0.930 . S
H1229 C1245 0.959 . S
H1230 C1245 0.959 . S
H1231 C1245 0.961 . S
H1232 C1246 0.960 . S
H1233 C1246 0.961 . S
H1234 C1246 0.959 . S
H1235 C1249 0.929 . S
H1236 C1250 0.931 . S
H1237 C1252 0.930 . S
C1238 H1226 0.930 . S
C1238 C1239 1.399 . S
C1238 C1243 1.399 . S
C1239 C1238 1.399 . S
C1239 C1240 1.376 . S
C1240 H1227 0.930 . S
C1240 C1239 1.376 . S
C1240 C1241 1.388 . S
C1241 H1228 0.930 . S
C1241 C1240 1.388 . S
C1241 C1242 1.390 . S
C1242 C1241 1.390 . S
C1242 C1243 1.394 . S
C1242 C1248 1.465 . S
C1243 C1238 1.399 . S
C1243 C1242 1.394 . S
C1243 C1244 1.516 . S
C1244 C1243 1.516 . S
C1244 C1245 1.502 . S
C1244 C1246 1.561 . S
C1244 C1247 1.526 . S
C1245 H1229 0.959 . S
C1245 H1230 0.959 . S
C1245 H1231 0.961 . S
C1245 C1244 1.502 . S
C1246 H1232 0.960 . S
C1246 H1233 0.961 . S
C1246 H1234 0.959 . S
C1246 C1244 1.561 . S
C1247 C1244 1.526 . S
C1247 C1248 1.396 . S
C1247 C1252 1.390 . S
C1248 C1242 1.465 . S
C1248 C1247 1.396 . S
C1248 C1249 1.399 . S
C1249 H1235 0.929 . S
C1249 C1248 1.399 . S
C1249 C1250 1.385 . S
C1250 H1236 0.931 . S
C1250 C1249 1.385 . S
C1250 C1251 1.389 . S
C1251 C1250 1.389 . S
C1251 C1252 1.387 . S
C1252 H1237 0.930 . S
C1252 C1247 1.390 . S
C1252 C1251 1.387 . S
H1253 C1265 0.930 . S
H1254 C1267 0.930 . S
H1255 C1268 0.930 . S
H1256 C1272 0.959 . S
H1257 C1272 0.959 . S
H1258 C1272 0.961 . S
H1259 C1273 0.960 1_545 S
H1260 C1273 0.961 . S
H1261 C1273 0.959 1_545 S
H1262 C1276 0.929 . S
H1263 C1277 0.931 . S
H1264 C1279 0.930 . S
C1265 H1253 0.930 . S
C1265 C1266 1.399 . S
C1265 C1270 1.399 . S
C1266 C1265 1.399 . S
C1266 C1267 1.376 . S
C1267 H1254 0.930 . S
C1267 C1266 1.376 . S
C1267 C1268 1.388 . S
C1268 H1255 0.930 . S
C1268 C1267 1.388 . S
C1268 C1269 1.390 . S
C1269 C1268 1.390 . S
C1269 C1270 1.394 . S
C1269 C1275 1.465 . S
C1270 C1265 1.399 . S
C1270 C1269 1.394 . S
C1270 C1271 1.516 1_545 S
C1271 C1270 1.516 1_565 S
C1271 C1272 1.502 . S
C1271 C1273 1.561 . S
C1271 C1274 1.526 . S
C1272 H1256 0.959 . S
C1272 H1257 0.959 . S
C1272 H1258 0.961 . S
C1272 C1271 1.502 . S
C1273 H1259 0.960 1_565 S
C1273 H1260 0.961 . S
C1273 H1261 0.959 1_565 S
C1273 C1271 1.561 . S
C1274 C1271 1.526 . S
C1274 C1275 1.396 1_565 S
C1274 C1279 1.390 . S
C1275 C1269 1.465 . S
C1275 C1274 1.396 1_545 S
C1275 C1276 1.399 . S
C1276 H1262 0.929 . S
C1276 C1275 1.399 . S
C1276 C1277 1.385 1_545 S
C1277 H1263 0.931 . S
C1277 C1276 1.385 1_565 S
C1277 C1278 1.389 . S
C1278 C1277 1.389 . S
C1278 C1279 1.387 . S
C1279 H1264 0.930 . S
C1279 C1274 1.390 . S
C1279 C1278 1.387 . S
H1280 C1292 0.930 . S
H1281 C1294 0.930 . S
H1282 C1295 0.930 . S
H1283 C1299 0.959 . S
H1284 C1299 0.959 . S
H1285 C1299 0.961 . S
H1286 C1300 0.960 . S
H1287 C1300 0.961 . S
H1288 C1300 0.959 . S
H1289 C1303 0.929 . S
H1290 C1304 0.931 . S
H1291 C1306 0.930 . S
C1292 H1280 0.930 . S
C1292 C1293 1.399 . S
C1292 C1297 1.399 . S
C1293 C1292 1.399 . S
C1293 C1294 1.376 . S
C1294 H1281 0.930 . S
C1294 C1293 1.376 . S
C1294 C1295 1.388 . S
C1295 H1282 0.930 . S
C1295 C1294 1.388 . S
C1295 C1296 1.390 . S
C1296 C1295 1.390 . S
C1296 C1297 1.394 . S
C1296 C1302 1.465 . S
C1297 C1292 1.399 . S
C1297 C1296 1.394 . S
C1297 C1298 1.516 . S
C1298 C1297 1.516 . S
C1298 C1299 1.502 . S
C1298 C1300 1.561 . S
C1298 C1301 1.526 . S
C1299 H1283 0.959 . S
C1299 H1284 0.959 . S
C1299 H1285 0.961 . S
C1299 C1298 1.502 . S
C1300 H1286 0.960 . S
C1300 H1287 0.961 . S
C1300 H1288 0.959 . S
C1300 C1298 1.561 . S
C1301 C1298 1.526 . S
C1301 C1302 1.396 . S
C1301 C1306 1.390 . S
C1302 C1296 1.465 . S
C1302 C1301 1.396 . S
C1302 C1303 1.399 . S
C1303 H1289 0.929 . S
C1303 C1302 1.399 . S
C1303 C1304 1.385 . S
C1304 H1290 0.931 . S
C1304 C1303 1.385 . S
C1304 C1305 1.389 . S
C1305 C1304 1.389 . S
C1305 C1306 1.387 . S
C1306 H1291 0.930 . S
C1306 C1301 1.390 . S
C1306 C1305 1.387 . S
H1307 C1319 0.930 . S
H1308 C1321 0.930 . S
H1309 C1322 0.930 . S
H1310 C1326 0.959 . S
H1311 C1326 0.959 . S
H1312 C1326 0.961 . S
H1313 C1327 0.960 . S
H1314 C1327 0.961 . S
H1315 C1327 0.959 . S
H1316 C1330 0.929 . S
H1317 C1331 0.931 . S
H1318 C1333 0.930 1_565 S
C1319 H1307 0.930 . S
C1319 C1320 1.399 . S
C1319 C1324 1.399 . S
C1320 C1319 1.399 . S
C1320 C1321 1.376 . S
C1321 H1308 0.930 . S
C1321 C1320 1.376 . S
C1321 C1322 1.388 . S
C1322 H1309 0.930 . S
C1322 C1321 1.388 . S
C1322 C1323 1.390 . S
C1323 C1322 1.390 . S
C1323 C1324 1.394 . S
C1323 C1329 1.465 1_565 S
C1324 C1319 1.399 . S
C1324 C1323 1.394 . S
C1324 C1325 1.516 . S
C1325 C1324 1.516 . S
C1325 C1326 1.502 . S
C1325 C1327 1.561 . S
C1325 C1328 1.526 . S
C1326 H1310 0.959 . S
C1326 H1311 0.959 . S
C1326 H1312 0.961 . S
C1326 C1325 1.502 . S
C1327 H1313 0.960 . S
C1327 H1314 0.961 . S
C1327 H1315 0.959 . S
C1327 C1325 1.561 . S
C1328 C1325 1.526 . S
C1328 C1329 1.396 1_565 S
C1328 C1333 1.390 1_565 S
C1329 C1323 1.465 1_545 S
C1329 C1328 1.396 1_545 S
C1329 C1330 1.399 . S
C1330 H1316 0.929 . S
C1330 C1329 1.399 . S
C1330 C1331 1.385 . S
C1331 H1317 0.931 . S
C1331 C1330 1.385 . S
C1331 C1332 1.389 . S
C1332 C1331 1.389 . S
C1332 C1333 1.387 . S
C1333 H1318 0.930 1_545 S
C1333 C1328 1.390 1_545 S
C1333 C1332 1.387 . S
H1334 C1346 0.930 . S
H1335 C1348 0.930 . S
H1336 C1349 0.930 . S
H1337 C1353 0.959 . S
H1338 C1353 0.959 . S
H1339 C1353 0.961 . S
H1340 C1354 0.960 1_556 S
H1341 C1354 0.961 . S
H1342 C1354 0.959 1_556 S
H1343 C1357 0.929 . S
H1344 C1358 0.931 . S
H1345 C1360 0.930 . S
C1346 H1334 0.930 . S
C1346 C1347 1.399 . S
C1346 C1351 1.399 . S
C1347 C1346 1.399 . S
C1347 C1348 1.376 . S
C1348 H1335 0.930 . S
C1348 C1347 1.376 . S
C1348 C1349 1.388 . S
C1349 H1336 0.930 . S
C1349 C1348 1.388 . S
C1349 C1350 1.390 . S
C1350 C1349 1.390 . S
C1350 C1351 1.394 . S
C1350 C1356 1.465 1_556 S
C1351 C1346 1.399 . S
C1351 C1350 1.394 . S
C1351 C1352 1.516 1_556 S
C1352 C1351 1.516 1_554 S
C1352 C1353 1.502 . S
C1352 C1354 1.561 . S
C1352 C1355 1.526 . S
C1353 H1337 0.959 . S
C1353 H1338 0.959 . S
C1353 H1339 0.961 . S
C1353 C1352 1.502 . S
C1354 H1340 0.960 1_554 S
C1354 H1341 0.961 . S
C1354 H1342 0.959 1_554 S
C1354 C1352 1.561 . S
C1355 C1352 1.526 . S
C1355 C1356 1.396 . S
C1355 C1360 1.390 . S
C1356 C1350 1.465 1_554 S
C1356 C1355 1.396 . S
C1356 C1357 1.399 . S
C1357 H1343 0.929 . S
C1357 C1356 1.399 . S
C1357 C1358 1.385 . S
C1358 H1344 0.931 . S
C1358 C1357 1.385 . S
C1358 C1359 1.389 . S
C1359 C1358 1.389 . S
C1359 C1360 1.387 . S
C1360 H1345 0.930 . S
C1360 C1355 1.390 . S
C1360 C1359 1.387 . S
H1361 C1373 0.930 . S
H1362 C1375 0.930 . S
H1363 C1376 0.930 . S
H1364 C1380 0.959 1_545 S
H1365 C1380 0.959 . S
H1366 C1380 0.961 1_545 S
H1367 C1381 0.960 . S
H1368 C1381 0.961 . S
H1369 C1381 0.959 . S
H1370 C1384 0.929 . S
H1371 C1385 0.931 . S
H1372 C1387 0.930 . S
C1373 H1361 0.930 . S
C1373 C1374 1.399 . S
C1373 C1378 1.399 1_545 S
C1374 C1373 1.399 . S
C1374 C1375 1.376 . S
C1375 H1362 0.930 . S
C1375 C1374 1.376 . S
C1375 C1376 1.388 1_545 S
C1376 H1363 0.930 . S
C1376 C1375 1.388 1_565 S
C1376 C1377 1.390 . S
C1377 C1376 1.390 . S
C1377 C1378 1.394 . S
C1377 C1383 1.465 . S
C1378 C1373 1.399 1_565 S
C1378 C1377 1.394 . S
C1378 C1379 1.516 . S
C1379 C1378 1.516 . S
C1379 C1380 1.502 . S
C1379 C1381 1.561 . S
C1379 C1382 1.526 . S
C1380 H1364 0.959 1_565 S
C1380 H1365 0.959 . S
C1380 H1366 0.961 1_565 S
C1380 C1379 1.502 . S
C1381 H1367 0.960 . S
C1381 H1368 0.961 . S
C1381 H1369 0.959 . S
C1381 C1379 1.561 . S
C1382 C1379 1.526 . S
C1382 C1383 1.396 . S
C1382 C1387 1.390 . S
C1383 C1377 1.465 . S
C1383 C1382 1.396 . S
C1383 C1384 1.399 . S
C1384 H1370 0.929 . S
C1384 C1383 1.399 . S
C1384 C1385 1.385 . S
C1385 H1371 0.931 . S
C1385 C1384 1.385 . S
C1385 C1386 1.389 . S
C1386 C1385 1.389 . S
C1386 C1387 1.387 . S
C1387 H1372 0.930 . S
C1387 C1382 1.390 . S
C1387 C1386 1.387 . S
H1388 C1400 0.930 . S
H1389 C1402 0.930 . S
H1390 C1403 0.930 . S
H1391 C1407 0.959 . S
H1392 C1407 0.959 . S
H1393 C1407 0.961 . S
H1394 C1408 0.960 . S
H1395 C1408 0.961 . S
H1396 C1408 0.959 . S
H1397 C1411 0.929 . S
H1398 C1412 0.931 . S
H1399 C1414 0.930 . S
C1400 H1388 0.930 . S
C1400 C1401 1.399 . S
C1400 C1405 1.399 . S
C1401 C1400 1.399 . S
C1401 C1402 1.376 . S
C1402 H1389 0.930 . S
C1402 C1401 1.376 . S
C1402 C1403 1.388 . S
C1403 H1390 0.930 . S
C1403 C1402 1.388 . S
C1403 C1404 1.390 . S
C1404 C1403 1.390 . S
C1404 C1405 1.394 . S
C1404 C1410 1.465 . S
C1405 C1400 1.399 . S
C1405 C1404 1.394 . S
C1405 C1406 1.516 . S
C1406 C1405 1.516 . S
C1406 C1407 1.502 . S
C1406 C1408 1.561 . S
C1406 C1409 1.526 . S
C1407 H1391 0.959 . S
C1407 H1392 0.959 . S
C1407 H1393 0.961 . S
C1407 C1406 1.502 . S
C1408 H1394 0.960 . S
C1408 H1395 0.961 . S
C1408 H1396 0.959 . S
C1408 C1406 1.561 . S
C1409 C1406 1.526 . S
C1409 C1410 1.396 . S
C1409 C1414 1.390 . S
C1410 C1404 1.465 . S
C1410 C1409 1.396 . S
C1410 C1411 1.399 . S
C1411 H1397 0.929 . S
C1411 C1410 1.399 . S
C1411 C1412 1.385 . S
C1412 H1398 0.931 . S
C1412 C1411 1.385 . S
C1412 C1413 1.389 . S
C1413 C1412 1.389 . S
C1413 C1414 1.387 . S
C1414 H1399 0.930 . S
C1414 C1409 1.390 . S
C1414 C1413 1.387 . S
H1415 C1427 0.930 1_545 S
H1416 C1429 0.930 . S
H1417 C1430 0.930 . S
H1418 C1434 0.959 . S
H1419 C1434 0.959 . S
H1420 C1434 0.961 . S
H1421 C1435 0.960 . S
H1422 C1435 0.961 . S
H1423 C1435 0.959 . S
H1424 C1438 0.929 . S
H1425 C1439 0.931 . S
H1426 C1441 0.930 . S
C1427 H1415 0.930 1_565 S
C1427 C1428 1.399 . S
C1427 C1432 1.399 1_565 S
C1428 C1427 1.399 . S
C1428 C1429 1.376 . S
C1429 H1416 0.930 . S
C1429 C1428 1.376 . S
C1429 C1430 1.388 . S
C1430 H1417 0.930 . S
C1430 C1429 1.388 . S
C1430 C1431 1.390 1_565 S
C1431 C1430 1.390 1_545 S
C1431 C1432 1.394 . S
C1431 C1437 1.465 . S
C1432 C1427 1.399 1_545 S
C1432 C1431 1.394 . S
C1432 C1433 1.516 . S
C1433 C1432 1.516 . S
C1433 C1434 1.502 . S
C1433 C1435 1.561 . S
C1433 C1436 1.526 . S
C1434 H1418 0.959 . S
C1434 H1419 0.959 . S
C1434 H1420 0.961 . S
C1434 C1433 1.502 . S
C1435 H1421 0.960 . S
C1435 H1422 0.961 . S
C1435 H1423 0.959 . S
C1435 C1433 1.561 . S
C1436 C1433 1.526 . S
C1436 C1437 1.396 . S
C1436 C1441 1.390 . S
C1437 C1431 1.465 . S
C1437 C1436 1.396 . S
C1437 C1438 1.399 . S
C1438 H1424 0.929 . S
C1438 C1437 1.399 . S
C1438 C1439 1.385 . S
C1439 H1425 0.931 . S
C1439 C1438 1.385 . S
C1439 C1440 1.389 . S
C1440 C1439 1.389 . S
C1440 C1441 1.387 . S
C1441 H1426 0.930 . S
C1441 C1436 1.390 . S
C1441 C1440 1.387 . S
H1442 C1454 0.930 . S
H1443 C1456 0.930 . S
H1444 C1457 0.930 . S
H1445 C1461 0.959 . S
H1446 C1461 0.959 . S
H1447 C1461 0.961 . S
H1448 C1462 0.960 . S
H1449 C1462 0.961 . S
H1450 C1462 0.959 . S
H1451 C1465 0.929 1_554 S
H1452 C1466 0.931 . S
H1453 C1468 0.930 . S
C1454 H1442 0.930 . S
C1454 C1455 1.399 . S
C1454 C1459 1.405 . S
C1455 C1454 1.399 . S
C1455 C1456 1.376 . S
C1456 H1443 0.930 . S
C1456 C1455 1.376 . S
C1456 C1457 1.388 . S
C1457 H1444 0.930 . S
C1457 C1456 1.388 . S
C1457 C1458 1.390 . S
C1458 C1457 1.390 . S
C1458 C1459 1.397 . S
C1458 C1464 1.465 1_554 S
C1459 C1454 1.405 . S
C1459 C1458 1.397 . S
C1459 C1460 1.507 1_554 S
C1460 C1459 1.507 1_556 S
C1460 C1461 1.502 . S
C1460 C1462 1.561 . S
C1460 C1463 1.526 . S
C1461 H1445 0.959 . S
C1461 H1446 0.959 . S
C1461 H1447 0.961 . S
C1461 C1460 1.502 . S
C1462 H1448 0.960 . S
C1462 H1449 0.961 . S
C1462 H1450 0.959 . S
C1462 C1460 1.561 . S
C1463 C1460 1.526 . S
C1463 C1464 1.396 . S
C1463 C1468 1.390 . S
C1464 C1458 1.465 1_556 S
C1464 C1463 1.396 . S
C1464 C1465 1.399 . S
C1465 H1451 0.929 1_556 S
C1465 C1464 1.399 . S
C1465 C1466 1.385 . S
C1466 H1452 0.931 . S
C1466 C1465 1.385 . S
C1466 C1467 1.389 . S
C1467 C1466 1.389 . S
C1467 C1468 1.387 . S
C1468 H1453 0.930 . S
C1468 C1463 1.390 . S
C1468 C1467 1.387 . S
H1469 C1481 0.930 . S
H1470 C1483 0.930 . S
H1471 C1484 0.930 . S
H1472 C1488 0.959 . S
H1473 C1488 0.959 . S
H1474 C1488 0.961 . S
H1475 C1489 0.960 . S
H1476 C1489 0.961 . S
H1477 C1489 0.959 . S
H1478 C1492 0.929 . S
H1479 C1493 0.931 . S
H1480 C1495 0.930 . S
C1481 H1469 0.930 . S
C1481 C1482 1.399 . S
C1481 C1486 1.399 . S
C1482 C1481 1.399 . S
C1482 C1483 1.376 . S
C1483 H1470 0.930 . S
C1483 C1482 1.376 . S
C1483 C1484 1.388 1_655 S
C1484 H1471 0.930 . S
C1484 C1483 1.388 1_455 S
C1484 C1485 1.390 . S
C1485 C1484 1.390 . S
C1485 C1486 1.394 1_455 S
C1485 C1491 1.465 . S
C1486 C1481 1.399 . S
C1486 C1485 1.394 1_655 S
C1486 C1487 1.516 . S
C1487 C1486 1.516 . S
C1487 C1488 1.502 . S
C1487 C1489 1.561 . S
C1487 C1490 1.526 1_655 S
C1488 H1472 0.959 . S
C1488 H1473 0.959 . S
C1488 H1474 0.961 . S
C1488 C1487 1.502 . S
C1489 H1475 0.960 . S
C1489 H1476 0.961 . S
C1489 H1477 0.959 . S
C1489 C1487 1.561 . S
C1490 C1487 1.526 1_455 S
C1490 C1491 1.396 . S
C1490 C1495 1.390 . S
C1491 C1485 1.465 . S
C1491 C1490 1.396 . S
C1491 C1492 1.399 . S
C1492 H1478 0.929 . S
C1492 C1491 1.399 . S
C1492 C1493 1.385 . S
C1493 H1479 0.931 . S
C1493 C1492 1.385 . S
C1493 C1494 1.389 . S
C1494 C1493 1.389 . S
C1494 C1495 1.387 . S
C1495 H1480 0.930 . S
C1495 C1490 1.390 . S
C1495 C1494 1.387 . S
H1496 C1508 0.930 . S
H1497 C1510 0.930 . S
H1498 C1511 0.930 . S
H1499 C1515 0.959 . S
H1500 C1515 0.959 . S
H1501 C1515 0.961 . S
H1502 C1516 0.960 . S
H1503 C1516 0.961 . S
H1504 C1516 0.959 . S
H1505 C1519 0.929 . S
H1506 C1520 0.931 . S
H1507 C1522 0.930 . S
C1508 H1496 0.930 . S
C1508 C1509 1.399 . S
C1508 C1513 1.399 . S
C1509 C1508 1.399 . S
C1509 C1510 1.376 . S
C1510 H1497 0.930 . S
C1510 C1509 1.376 . S
C1510 C1511 1.388 . S
C1511 H1498 0.930 . S
C1511 C1510 1.388 . S
C1511 C1512 1.390 . S
C1512 C1511 1.390 . S
C1512 C1513 1.394 . S
C1512 C1518 1.465 . S
C1513 C1508 1.399 . S
C1513 C1512 1.394 . S
C1513 C1514 1.516 . S
C1514 C1513 1.516 . S
C1514 C1515 1.502 . S
C1514 C1516 1.561 . S
C1514 C1517 1.526 . S
C1515 H1499 0.959 . S
C1515 H1500 0.959 . S
C1515 H1501 0.961 . S
C1515 C1514 1.502 . S
C1516 H1502 0.960 . S
C1516 H1503 0.961 . S
C1516 H1504 0.959 . S
C1516 C1514 1.561 . S
C1517 C1514 1.526 . S
C1517 C1518 1.396 . S
C1517 C1522 1.390 . S
C1518 C1512 1.465 . S
C1518 C1517 1.396 . S
C1518 C1519 1.399 . S
C1519 H1505 0.929 . S
C1519 C1518 1.399 . S
C1519 C1520 1.385 . S
C1520 H1506 0.931 . S
C1520 C1519 1.385 . S
C1520 C1521 1.389 . S
C1521 C1520 1.389 . S
C1521 C1522 1.387 . S
C1522 H1507 0.930 . S
C1522 C1517 1.390 . S
C1522 C1521 1.387 . S
H1523 C1535 0.930 . S
H1524 C1537 0.930 . S
H1525 C1538 0.930 . S
H1526 C1542 0.959 . S
H1527 C1542 0.959 1_655 S
H1528 C1542 0.961 . S
H1529 C1543 0.960 . S
H1530 C1543 0.961 . S
H1531 C1543 0.959 . S
H1532 C1546 0.929 . S
H1533 C1547 0.931 . S
H1534 C1549 0.930 . S
C1535 H1523 0.930 . S
C1535 C1536 1.399 . S
C1535 C1540 1.399 1_455 S
C1536 C1535 1.399 . S
C1536 C1537 1.376 . S
C1537 H1524 0.930 . S
C1537 C1536 1.376 . S
C1537 C1538 1.388 1_455 S
C1538 H1525 0.930 . S
C1538 C1537 1.388 1_655 S
C1538 C1539 1.390 . S
C1539 C1538 1.390 . S
C1539 C1540 1.394 . S
C1539 C1545 1.465 . S
C1540 C1535 1.399 1_655 S
C1540 C1539 1.394 . S
C1540 C1541 1.516 . S
C1541 C1540 1.516 . S
C1541 C1542 1.502 1_655 S
C1541 C1543 1.561 . S
C1541 C1544 1.526 . S
C1542 H1526 0.959 . S
C1542 H1527 0.959 1_455 S
C1542 H1528 0.961 . S
C1542 C1541 1.502 1_455 S
C1543 H1529 0.960 . S
C1543 H1530 0.961 . S
C1543 H1531 0.959 . S
C1543 C1541 1.561 . S
C1544 C1541 1.526 . S
C1544 C1545 1.396 . S
C1544 C1549 1.390 . S
C1545 C1539 1.465 . S
C1545 C1544 1.396 . S
C1545 C1546 1.399 . S
C1546 H1532 0.929 . S
C1546 C1545 1.399 . S
C1546 C1547 1.385 . S
C1547 H1533 0.931 . S
C1547 C1546 1.385 . S
C1547 C1548 1.389 . S
C1548 C1547 1.389 . S
C1548 C1549 1.387 . S
C1549 H1534 0.930 . S
C1549 C1544 1.390 . S
C1549 C1548 1.387 . S
H1550 C1562 0.930 . S
H1551 C1564 0.930 . S
H1552 C1565 0.930 . S
H1553 C1569 0.959 . S
H1554 C1569 0.959 . S
H1555 C1569 0.961 . S
H1556 C1570 0.960 . S
H1557 C1570 0.961 . S
H1558 C1570 0.959 . S
H1559 C1573 0.929 . S
H1560 C1574 0.931 . S
H1561 C1576 0.930 . S
C1562 H1550 0.930 . S
C1562 C1563 1.399 . S
C1562 C1567 1.399 1_455 S
C1563 C1562 1.399 . S
C1563 C1564 1.376 . S
C1564 H1551 0.930 . S
C1564 C1563 1.376 . S
C1564 C1565 1.388 . S
C1565 H1552 0.930 . S
C1565 C1564 1.388 . S
C1565 C1566 1.390 1_455 S
C1566 C1565 1.390 1_655 S
C1566 C1567 1.394 . S
C1566 C1572 1.465 . S
C1567 C1562 1.399 1_655 S
C1567 C1566 1.394 . S
C1567 C1568 1.516 . S
C1568 C1567 1.516 . S
C1568 C1569 1.502 . S
C1568 C1570 1.561 . S
C1568 C1571 1.526 . S
C1569 H1553 0.959 . S
C1569 H1554 0.959 . S
C1569 H1555 0.961 . S
C1569 C1568 1.502 . S
C1570 H1556 0.960 . S
C1570 H1557 0.961 . S
C1570 H1558 0.959 . S
C1570 C1568 1.561 . S
C1571 C1568 1.526 . S
C1571 C1572 1.396 . S
C1571 C1576 1.390 . S
C1572 C1566 1.465 . S
C1572 C1571 1.396 . S
C1572 C1573 1.399 . S
C1573 H1559 0.929 . S
C1573 C1572 1.399 . S
C1573 C1574 1.385 . S
C1574 H1560 0.931 . S
C1574 C1573 1.385 . S
C1574 C1575 1.389 . S
C1575 C1574 1.389 . S
C1575 C1576 1.387 . S
C1576 H1561 0.930 . S
C1576 C1571 1.390 . S
C1576 C1575 1.387 . S
H1577 C1589 0.930 . S
H1578 C1591 0.930 . S
H1579 C1592 0.930 . S
H1580 C1596 0.959 . S
H1581 C1596 0.959 . S
H1582 C1596 0.961 . S
H1583 C1597 0.960 . S
H1584 C1597 0.961 . S
H1585 C1597 0.959 . S
H1586 C1600 0.929 . S
H1587 C1601 0.931 . S
H1588 C1603 0.930 . S
C1589 H1577 0.930 . S
C1589 C1590 1.399 . S
C1589 C1594 1.399 . S
C1590 C1589 1.399 . S
C1590 C1591 1.376 . S
C1591 H1578 0.930 . S
C1591 C1590 1.376 . S
C1591 C1592 1.388 . S
C1592 H1579 0.930 . S
C1592 C1591 1.388 . S
C1592 C1593 1.390 . S
C1593 C1592 1.390 . S
C1593 C1594 1.394 . S
C1593 C1599 1.465 . S
C1594 C1589 1.399 . S
C1594 C1593 1.394 . S
C1594 C1595 1.516 . S
C1595 C1594 1.516 . S
C1595 C1596 1.502 . S
C1595 C1597 1.561 . S
C1595 C1598 1.526 . S
C1596 H1580 0.959 . S
C1596 H1581 0.959 . S
C1596 H1582 0.961 . S
C1596 C1595 1.502 . S
C1597 H1583 0.960 . S
C1597 H1584 0.961 . S
C1597 H1585 0.959 . S
C1597 C1595 1.561 . S
C1598 C1595 1.526 . S
C1598 C1599 1.396 . S
C1598 C1603 1.390 . S
C1599 C1593 1.465 . S
C1599 C1598 1.396 . S
C1599 C1600 1.399 . S
C1600 H1586 0.929 . S
C1600 C1599 1.399 . S
C1600 C1601 1.385 . S
C1601 H1587 0.931 . S
C1601 C1600 1.385 . S
C1601 C1602 1.389 . S
C1602 C1601 1.389 . S
C1602 C1603 1.387 . S
C1603 H1588 0.930 . S
C1603 C1598 1.390 . S
C1603 C1602 1.387 . S
H1604 C1616 0.930 . S
H1605 C1618 0.930 . S
H1606 C1619 0.930 . S
H1607 C1623 0.959 . S
H1608 C1623 0.959 . S
H1609 C1623 0.961 . S
H1610 C1624 0.960 . S
H1611 C1624 0.961 . S
H1612 C1624 0.959 . S
H1613 C1627 0.929 . S
H1614 C1628 0.931 . S
H1615 C1630 0.930 . S
C1616 H1604 0.930 . S
C1616 C1617 1.399 . S
C1616 C1621 1.399 1_655 S
C1617 C1616 1.399 . S
C1617 C1618 1.376 . S
C1618 H1605 0.930 . S
C1618 C1617 1.376 . S
C1618 C1619 1.388 . S
C1619 H1606 0.930 . S
C1619 C1618 1.388 . S
C1619 C1620 1.390 1_655 S
C1620 C1619 1.390 1_455 S
C1620 C1621 1.394 . S
C1620 C1626 1.465 . S
C1621 C1616 1.399 1_455 S
C1621 C1620 1.394 . S
C1621 C1622 1.516 . S
C1622 C1621 1.516 . S
C1622 C1623 1.502 . S
C1622 C1624 1.561 . S
C1622 C1625 1.526 . S
C1623 H1607 0.959 . S
C1623 H1608 0.959 . S
C1623 H1609 0.961 . S
C1623 C1622 1.502 . S
C1624 H1610 0.960 . S
C1624 H1611 0.961 . S
C1624 H1612 0.959 . S
C1624 C1622 1.561 . S
C1625 C1622 1.526 . S
C1625 C1626 1.396 . S
C1625 C1630 1.390 . S
C1626 C1620 1.465 . S
C1626 C1625 1.396 . S
C1626 C1627 1.399 . S
C1627 H1613 0.929 . S
C1627 C1626 1.399 . S
C1627 C1628 1.385 . S
C1628 H1614 0.931 . S
C1628 C1627 1.385 . S
C1628 C1629 1.389 . S
C1629 C1628 1.389 . S
C1629 C1630 1.387 . S
C1630 H1615 0.930 . S
C1630 C1625 1.390 . S
C1630 C1629 1.387 . S
H1631 C1643 0.930 . S
H1632 C1645 0.930 . S
H1633 C1646 0.930 . S
H1634 C1650 0.959 . S
H1635 C1650 0.959 . S
H1636 C1650 0.961 . S
H1637 C1651 0.960 . S
H1638 C1651 0.961 . S
H1639 C1651 0.959 . S
H1640 C1654 0.929 . S
H1641 C1655 0.931 . S
H1642 C1657 0.930 . S
C1643 H1631 0.930 . S
C1643 C1644 1.399 . S
C1643 C1648 1.399 . S
C1644 C1643 1.399 . S
C1644 C1645 1.376 . S
C1645 H1632 0.930 . S
C1645 C1644 1.376 . S
C1645 C1646 1.388 . S
C1646 H1633 0.930 . S
C1646 C1645 1.388 . S
C1646 C1647 1.390 . S
C1647 C1646 1.390 . S
C1647 C1648 1.394 . S
C1647 C1653 1.465 . S
C1648 C1643 1.399 . S
C1648 C1647 1.394 . S
C1648 C1649 1.516 . S
C1649 C1648 1.516 . S
C1649 C1650 1.502 . S
C1649 C1651 1.561 . S
C1649 C1652 1.526 . S
C1650 H1634 0.959 . S
C1650 H1635 0.959 . S
C1650 H1636 0.961 . S
C1650 C1649 1.502 . S
C1651 H1637 0.960 . S
C1651 H1638 0.961 . S
C1651 H1639 0.959 . S
C1651 C1649 1.561 . S
C1652 C1649 1.526 . S
C1652 C1653 1.396 . S
C1652 C1657 1.390 . S
C1653 C1647 1.465 . S
C1653 C1652 1.396 . S
C1653 C1654 1.399 . S
C1654 H1640 0.929 . S
C1654 C1653 1.399 . S
C1654 C1655 1.385 . S
C1655 H1641 0.931 . S
C1655 C1654 1.385 . S
C1655 C1656 1.389 . S
C1656 C1655 1.389 . S
C1656 C1657 1.387 . S
C1657 H1642 0.930 . S
C1657 C1652 1.390 . S
C1657 C1656 1.387 . S
H1658 C1670 0.930 . S
H1659 C1672 0.930 . S
H1660 C1673 0.930 . S
H1661 C1677 0.959 . S
H1662 C1677 0.959 . S
H1663 C1677 0.961 . S
H1664 C1678 0.960 . S
H1665 C1678 0.961 . S
H1666 C1678 0.959 . S
H1667 C1681 0.929 . S
H1668 C1682 0.931 . S
H1669 C1684 0.930 . S
C1670 H1658 0.930 . S
C1670 C1671 1.399 . S
C1670 C1675 1.399 . S
C1671 C1670 1.399 . S
C1671 C1672 1.376 . S
C1672 H1659 0.930 . S
C1672 C1671 1.376 . S
C1672 C1673 1.388 . S
C1673 H1660 0.930 . S
C1673 C1672 1.388 . S
C1673 C1674 1.390 . S
C1674 C1673 1.390 . S
C1674 C1675 1.394 . S
C1674 C1680 1.465 . S
C1675 C1670 1.399 . S
C1675 C1674 1.394 . S
C1675 C1676 1.516 . S
C1676 C1675 1.516 . S
C1676 C1677 1.502 . S
C1676 C1678 1.561 . S
C1676 C1679 1.526 . S
C1677 H1661 0.959 . S
C1677 H1662 0.959 . S
C1677 H1663 0.961 . S
C1677 C1676 1.502 . S
C1678 H1664 0.960 . S
C1678 H1665 0.961 . S
C1678 H1666 0.959 . S
C1678 C1676 1.561 . S
C1679 C1676 1.526 . S
C1679 C1680 1.396 . S
C1679 C1684 1.390 . S
C1680 C1674 1.465 . S
C1680 C1679 1.396 . S
C1680 C1681 1.399 . S
C1681 H1667 0.929 . S
C1681 C1680 1.399 . S
C1681 C1682 1.385 . S
C1682 H1668 0.931 . S
C1682 C1681 1.385 . S
C1682 C1683 1.389 . S
C1683 C1682 1.389 . S
C1683 C1684 1.387 . S
C1684 H1669 0.930 . S
C1684 C1679 1.390 . S
C1684 C1683 1.387 . S
H1685 C1697 0.930 . S
H1686 C1699 0.930 . S
H1687 C1700 0.930 . S
H1688 C1704 0.959 . S
H1689 C1704 0.958 1_556 S
H1690 C1704 0.961 . S
H1691 C1705 0.960 . S
H1692 C1705 0.961 . S
H1693 C1705 0.959 . S
H1694 C1708 0.929 . S
H1695 C1709 0.931 . S
H1696 C1711 0.930 . S
C1697 H1685 0.930 . S
C1697 C1698 1.399 . S
C1697 C1702 1.399 . S
C1698 C1697 1.399 . S
C1698 C1699 1.376 . S
C1699 H1686 0.930 . S
C1699 C1698 1.376 . S
C1699 C1700 1.388 1_554 S
C1700 H1687 0.930 . S
C1700 C1699 1.388 1_556 S
C1700 C1701 1.390 . S
C1701 C1700 1.390 . S
C1701 C1702 1.394 1_556 S
C1701 C1707 1.465 . S
C1702 C1697 1.399 . S
C1702 C1701 1.394 1_554 S
C1702 C1703 1.516 1_554 S
C1703 C1702 1.516 1_556 S
C1703 C1704 1.502 1_556 S
C1703 C1705 1.561 . S
C1703 C1706 1.526 . S
C1704 H1688 0.959 . S
C1704 H1689 0.958 1_554 S
C1704 H1690 0.961 . S
C1704 C1703 1.502 1_554 S
C1705 H1691 0.960 . S
C1705 H1692 0.961 . S
C1705 H1693 0.959 . S
C1705 C1703 1.561 . S
C1706 C1703 1.526 . S
C1706 C1707 1.396 . S
C1706 C1711 1.390 . S
C1707 C1701 1.465 . S
C1707 C1706 1.396 . S
C1707 C1708 1.399 . S
C1708 H1694 0.929 . S
C1708 C1707 1.399 . S
C1708 C1709 1.385 . S
C1709 H1695 0.931 . S
C1709 C1708 1.385 . S
C1709 C1710 1.389 . S
C1710 C1709 1.389 . S
C1710 C1711 1.387 . S
C1711 H1696 0.930 . S
C1711 C1706 1.390 . S
C1711 C1710 1.387 . S
H1712 C1724 0.930 . S
H1713 C1726 0.930 . S
H1714 C1727 0.930 . S
H1715 C1731 0.959 . S
H1716 C1731 0.959 . S
H1717 C1731 0.961 . S
H1718 C1732 0.960 . S
H1719 C1732 0.961 . S
H1720 C1732 0.959 . S
H1721 C1735 0.929 . S
H1722 C1736 0.931 . S
H1723 C1738 0.930 . S
C1724 H1712 0.930 . S
C1724 C1725 1.399 . S
C1724 C1729 1.399 . S
C1725 C1724 1.399 . S
C1725 C1726 1.376 . S
C1726 H1713 0.930 . S
C1726 C1725 1.376 . S
C1726 C1727 1.388 . S
C1727 H1714 0.930 . S
C1727 C1726 1.388 . S
C1727 C1728 1.390 . S
C1728 C1727 1.390 . S
C1728 C1729 1.394 . S
C1728 C1734 1.465 . S
C1729 C1724 1.399 . S
C1729 C1728 1.394 . S
C1729 C1730 1.516 . S
C1730 C1729 1.516 . S
C1730 C1731 1.502 . S
C1730 C1732 1.561 . S
C1730 C1733 1.526 . S
C1731 H1715 0.959 . S
C1731 H1716 0.959 . S
C1731 H1717 0.961 . S
C1731 C1730 1.502 . S
C1732 H1718 0.960 . S
C1732 H1719 0.961 . S
C1732 H1720 0.959 . S
C1732 C1730 1.561 . S
C1733 C1730 1.526 . S
C1733 C1734 1.396 . S
C1733 C1738 1.390 . S
C1734 C1728 1.465 . S
C1734 C1733 1.396 . S
C1734 C1735 1.399 . S
C1735 H1721 0.929 . S
C1735 C1734 1.399 . S
C1735 C1736 1.385 . S
C1736 H1722 0.931 . S
C1736 C1735 1.385 . S
C1736 C1737 1.389 . S
C1737 C1736 1.389 . S
C1737 C1738 1.387 . S
C1738 H1723 0.930 . S
C1738 C1733 1.390 . S
C1738 C1737 1.387 . S
H1739 C1751 0.930 . S
H1740 C1753 0.930 . S
H1741 C1754 0.930 . S
H1742 C1758 0.959 . S
H1743 C1758 0.959 . S
H1744 C1758 0.961 . S
H1745 C1759 0.960 . S
H1746 C1759 0.961 . S
H1747 C1759 0.959 . S
H1748 C1762 0.929 . S
H1749 C1763 0.931 . S
H1750 C1765 0.930 . S
C1751 H1739 0.930 . S
C1751 C1752 1.399 . S
C1751 C1756 1.399 . S
C1752 C1751 1.399 . S
C1752 C1753 1.376 . S
C1753 H1740 0.930 . S
C1753 C1752 1.376 . S
C1753 C1754 1.388 . S
C1754 H1741 0.930 . S
C1754 C1753 1.388 . S
C1754 C1755 1.390 . S
C1755 C1754 1.390 . S
C1755 C1756 1.394 . S
C1755 C1761 1.465 . S
C1756 C1751 1.399 . S
C1756 C1755 1.394 . S
C1756 C1757 1.516 . S
C1757 C1756 1.516 . S
C1757 C1758 1.502 . S
C1757 C1759 1.561 . S
C1757 C1760 1.526 . S
C1758 H1742 0.959 . S
C1758 H1743 0.959 . S
C1758 H1744 0.961 . S
C1758 C1757 1.502 . S
C1759 H1745 0.960 . S
C1759 H1746 0.961 . S
C1759 H1747 0.959 . S
C1759 C1757 1.561 . S
C1760 C1757 1.526 . S
C1760 C1761 1.396 . S
C1760 C1765 1.390 . S
C1761 C1755 1.465 . S
C1761 C1760 1.396 . S
C1761 C1762 1.399 . S
C1762 H1748 0.929 . S
C1762 C1761 1.399 . S
C1762 C1763 1.385 . S
C1763 H1749 0.931 . S
C1763 C1762 1.385 . S
C1763 C1764 1.389 . S
C1764 C1763 1.389 . S
C1764 C1765 1.387 . S
C1765 H1750 0.930 . S
C1765 C1760 1.390 . S
C1765 C1764 1.387 . S
H1766 C1778 0.930 . S
H1767 C1780 0.930 . S
H1768 C1781 0.930 . S
H1769 C1785 0.959 . S
H1770 C1785 0.959 . S
H1771 C1785 0.961 . S
H1772 C1786 0.960 . S
H1773 C1786 0.961 . S
H1774 C1786 0.959 . S
H1775 C1789 0.929 . S
H1776 C1790 0.931 . S
H1777 C1792 0.930 . S
C1778 H1766 0.930 . S
C1778 C1779 1.399 . S
C1778 C1783 1.399 . S
C1779 C1778 1.399 . S
C1779 C1780 1.376 . S
C1780 H1767 0.930 . S
C1780 C1779 1.376 . S
C1780 C1781 1.388 . S
C1781 H1768 0.930 . S
C1781 C1780 1.388 . S
C1781 C1782 1.390 . S
C1782 C1781 1.390 . S
C1782 C1783 1.394 . S
C1782 C1788 1.465 . S
C1783 C1778 1.399 . S
C1783 C1782 1.394 . S
C1783 C1784 1.516 . S
C1784 C1783 1.516 . S
C1784 C1785 1.502 . S
C1784 C1786 1.561 . S
C1784 C1787 1.526 . S
C1785 H1769 0.959 . S
C1785 H1770 0.959 . S
C1785 H1771 0.961 . S
C1785 C1784 1.502 . S
C1786 H1772 0.960 . S
C1786 H1773 0.961 . S
C1786 H1774 0.959 . S
C1786 C1784 1.561 . S
C1787 C1784 1.526 . S
C1787 C1788 1.396 . S
C1787 C1792 1.390 . S
C1788 C1782 1.465 . S
C1788 C1787 1.396 . S
C1788 C1789 1.399 . S
C1789 H1775 0.929 . S
C1789 C1788 1.399 . S
C1789 C1790 1.385 . S
C1790 H1776 0.931 . S
C1790 C1789 1.385 . S
C1790 C1791 1.389 . S
C1791 C1790 1.389 . S
C1791 C1792 1.387 . S
C1792 H1777 0.930 . S
C1792 C1787 1.390 . S
C1792 C1791 1.387 . S
H1793 C1805 0.930 . S
H1794 C1807 0.930 . S
H1795 C1808 0.930 . S
H1796 C1812 0.959 . S
H1797 C1812 0.959 . S
H1798 C1812 0.961 . S
H1799 C1813 0.960 . S
H1800 C1813 0.961 1_556 S
H1801 C1813 0.959 . S
H1802 C1816 0.929 . S
H1803 C1817 0.931 . S
H1804 C1819 0.930 . S
C1805 H1793 0.930 . S
C1805 C1806 1.399 . S
C1805 C1810 1.399 . S
C1806 C1805 1.399 . S
C1806 C1807 1.376 . S
C1807 H1794 0.930 . S
C1807 C1806 1.376 . S
C1807 C1808 1.388 . S
C1808 H1795 0.930 . S
C1808 C1807 1.388 . S
C1808 C1809 1.390 . S
C1809 C1808 1.390 . S
C1809 C1810 1.394 . S
C1809 C1815 1.465 . S
C1810 C1805 1.399 . S
C1810 C1809 1.394 . S
C1810 C1811 1.516 . S
C1811 C1810 1.516 . S
C1811 C1812 1.502 1_554 S
C1811 C1813 1.561 . S
C1811 C1814 1.526 1_554 S
C1812 H1796 0.959 . S
C1812 H1797 0.959 . S
C1812 H1798 0.961 . S
C1812 C1811 1.502 1_556 S
C1813 H1799 0.960 . S
C1813 H1800 0.961 1_554 S
C1813 H1801 0.959 . S
C1813 C1811 1.561 . S
C1814 C1811 1.526 1_556 S
C1814 C1815 1.396 1_556 S
C1814 C1819 1.390 . S
C1815 C1809 1.465 . S
C1815 C1814 1.396 1_554 S
C1815 C1816 1.399 . S
C1816 H1802 0.929 . S
C1816 C1815 1.399 . S
C1816 C1817 1.385 1_554 S
C1817 H1803 0.931 . S
C1817 C1816 1.385 1_556 S
C1817 C1818 1.389 . S
C1818 C1817 1.389 . S
C1818 C1819 1.387 . S
C1819 H1804 0.930 . S
C1819 C1814 1.390 . S
C1819 C1818 1.387 . S
H1820 C1832 0.930 . S
H1821 C1834 0.930 . S
H1822 C1835 0.930 . S
H1823 C1839 0.959 . S
H1824 C1839 0.959 . S
H1825 C1839 0.961 . S
H1826 C1840 0.960 . S
H1827 C1840 0.961 . S
H1828 C1840 0.959 . S
H1829 C1843 0.929 . S
H1830 C1844 0.931 . S
H1831 C1846 0.930 . S
C1832 H1820 0.930 . S
C1832 C1833 1.399 . S
C1832 C1837 1.399 . S
C1833 C1832 1.399 . S
C1833 C1834 1.376 . S
C1834 H1821 0.930 . S
C1834 C1833 1.376 . S
C1834 C1835 1.388 . S
C1835 H1822 0.930 . S
C1835 C1834 1.388 . S
C1835 C1836 1.390 . S
C1836 C1835 1.390 . S
C1836 C1837 1.394 . S
C1836 C1842 1.465 . S
C1837 C1832 1.399 . S
C1837 C1836 1.394 . S
C1837 C1838 1.516 . S
C1838 C1837 1.516 . S
C1838 C1839 1.502 . S
C1838 C1840 1.561 . S
C1838 C1841 1.526 . S
C1839 H1823 0.959 . S
C1839 H1824 0.959 . S
C1839 H1825 0.961 . S
C1839 C1838 1.502 . S
C1840 H1826 0.960 . S
C1840 H1827 0.961 . S
C1840 H1828 0.959 . S
C1840 C1838 1.561 . S
C1841 C1838 1.526 . S
C1841 C1842 1.396 . S
C1841 C1846 1.390 . S
C1842 C1836 1.465 . S
C1842 C1841 1.396 . S
C1842 C1843 1.399 . S
C1843 H1829 0.929 . S
C1843 C1842 1.399 . S
C1843 C1844 1.385 . S
C1844 H1830 0.931 . S
C1844 C1843 1.385 . S
C1844 C1845 1.389 . S
C1845 C1844 1.389 . S
C1845 C1846 1.387 . S
C1846 H1831 0.930 . S
C1846 C1841 1.390 . S
C1846 C1845 1.387 . S
H1847 C1859 0.930 . S
H1848 C1861 0.930 . S
H1849 C1862 0.930 . S
H1850 C1866 0.959 . S
H1851 C1866 0.959 . S
H1852 C1866 0.961 . S
H1853 C1867 0.960 . S
H1854 C1867 0.961 . S
H1855 C1867 0.959 . S
H1856 C1870 0.929 . S
H1857 C1871 0.931 . S
H1858 C1873 0.930 . S
C1859 H1847 0.930 . S
C1859 C1860 1.399 . S
C1859 C1864 1.399 . S
C1860 C1859 1.399 . S
C1860 C1861 1.376 . S
C1861 H1848 0.930 . S
C1861 C1860 1.376 . S
C1861 C1862 1.388 . S
C1862 H1849 0.930 . S
C1862 C1861 1.388 . S
C1862 C1863 1.390 . S
C1863 C1862 1.390 . S
C1863 C1864 1.394 . S
C1863 C1869 1.465 . S
C1864 C1859 1.399 . S
C1864 C1863 1.394 . S
C1864 C1865 1.516 . S
C1865 C1864 1.516 . S
C1865 C1866 1.502 . S
C1865 C1867 1.561 . S
C1865 C1868 1.526 . S
C1866 H1850 0.959 . S
C1866 H1851 0.959 . S
C1866 H1852 0.961 . S
C1866 C1865 1.502 . S
C1867 H1853 0.960 . S
C1867 H1854 0.961 . S
C1867 H1855 0.959 . S
C1867 C1865 1.561 . S
C1868 C1865 1.526 . S
C1868 C1869 1.396 . S
C1868 C1873 1.390 . S
C1869 C1863 1.465 . S
C1869 C1868 1.396 . S
C1869 C1870 1.399 . S
C1870 H1856 0.929 . S
C1870 C1869 1.399 . S
C1870 C1871 1.385 . S
C1871 H1857 0.931 . S
C1871 C1870 1.385 . S
C1871 C1872 1.389 . S
C1872 C1871 1.389 . S
C1872 C1873 1.387 . S
C1873 H1858 0.930 . S
C1873 C1868 1.390 . S
C1873 C1872 1.387 . S
H1874 C1886 0.930 . S
H1875 C1888 0.930 . S
H1876 C1889 0.930 . S
H1877 C1893 0.959 . S
H1878 C1893 0.959 . S
H1879 C1893 0.961 . S
H1880 C1894 0.960 . S
H1881 C1894 0.961 . S
H1882 C1894 0.959 . S
H1883 C1897 0.929 . S
H1884 C1898 0.931 . S
H1885 C1900 0.930 . S
C1886 H1874 0.930 . S
C1886 C1887 1.399 . S
C1886 C1891 1.399 . S
C1887 C1886 1.399 . S
C1887 C1888 1.376 . S
C1888 H1875 0.930 . S
C1888 C1887 1.376 . S
C1888 C1889 1.388 . S
C1889 H1876 0.930 . S
C1889 C1888 1.388 . S
C1889 C1890 1.390 . S
C1890 C1889 1.390 . S
C1890 C1891 1.394 . S
C1890 C1896 1.465 . S
C1891 C1886 1.399 . S
C1891 C1890 1.394 . S
C1891 C1892 1.516 . S
C1892 C1891 1.516 . S
C1892 C1893 1.502 . S
C1892 C1894 1.561 . S
C1892 C1895 1.526 . S
C1893 H1877 0.959 . S
C1893 H1878 0.959 . S
C1893 H1879 0.961 . S
C1893 C1892 1.502 . S
C1894 H1880 0.960 . S
C1894 H1881 0.961 . S
C1894 H1882 0.959 . S
C1894 C1892 1.561 . S
C1895 C1892 1.526 . S
C1895 C1896 1.396 . S
C1895 C1900 1.390 . S
C1896 C1890 1.465 . S
C1896 C1895 1.396 . S
C1896 C1897 1.399 . S
C1897 H1883 0.929 . S
C1897 C1896 1.399 . S
C1897 C1898 1.385 . S
C1898 H1884 0.931 . S
C1898 C1897 1.385 . S
C1898 C1899 1.389 . S
C1899 C1898 1.389 . S
C1899 C1900 1.387 . S
C1900 H1885 0.930 . S
C1900 C1895 1.390 . S
C1900 C1899 1.387 . S
H1901 C1913 0.930 . S
H1902 C1915 0.930 . S
H1903 C1916 0.930 . S
H1904 C1920 0.959 . S
H1905 C1920 0.959 . S
H1906 C1920 0.961 . S
H1907 C1921 0.960 . S
H1908 C1921 0.961 . S
H1909 C1921 0.959 . S
H1910 C1924 0.929 . S
H1911 C1925 0.931 . S
H1912 C1927 0.930 . S
C1913 H1901 0.930 . S
C1913 C1914 1.399 . S
C1913 C1918 1.399 . S
C1914 C1913 1.399 . S
C1914 C1915 1.376 . S
C1915 H1902 0.930 . S
C1915 C1914 1.376 . S
C1915 C1916 1.388 . S
C1916 H1903 0.930 . S
C1916 C1915 1.388 . S
C1916 C1917 1.390 . S
C1917 C1916 1.390 . S
C1917 C1918 1.394 . S
C1917 C1923 1.465 . S
C1918 C1913 1.399 . S
C1918 C1917 1.394 . S
C1918 C1919 1.516 . S
C1919 C1918 1.516 . S
C1919 C1920 1.502 . S
C1919 C1921 1.561 . S
C1919 C1922 1.526 . S
C1920 H1904 0.959 . S
C1920 H1905 0.959 . S
C1920 H1906 0.961 . S
C1920 C1919 1.502 . S
C1921 H1907 0.960 . S
C1921 H1908 0.961 . S
C1921 H1909 0.959 . S
C1921 C1919 1.561 . S
C1922 C1919 1.526 . S
C1922 C1923 1.396 . S
C1922 C1927 1.390 . S
C1923 C1917 1.465 . S
C1923 C1922 1.396 . S
C1923 C1924 1.399 . S
C1924 H1910 0.929 . S
C1924 C1923 1.399 . S
C1924 C1925 1.385 . S
C1925 H1911 0.931 . S
C1925 C1924 1.385 . S
C1925 C1926 1.389 . S
C1926 C1925 1.389 . S
C1926 C1927 1.387 . S
C1927 H1912 0.930 . S
C1927 C1922 1.390 . S
C1927 C1926 1.387 . S
H1928 C1940 0.930 . S
H1929 C1942 0.930 . S
H1930 C1943 0.930 . S
H1931 C1947 0.959 . S
H1932 C1947 0.959 . S
H1933 C1947 0.961 . S
H1934 C1948 0.960 1_554 S
H1935 C1948 0.961 . S
H1936 C1948 0.959 1_554 S
H1937 C1951 0.903 1_554 S
H1938 C1952 0.931 . S
H1939 C1954 0.930 . S
C1940 H1928 0.930 . S
C1940 C1941 1.399 . S
C1940 C1945 1.399 . S
C1941 C1940 1.399 . S
C1941 C1942 1.376 . S
C1942 H1929 0.930 . S
C1942 C1941 1.376 . S
C1942 C1943 1.388 . S
C1943 H1930 0.930 . S
C1943 C1942 1.388 . S
C1943 C1944 1.390 . S
C1944 C1943 1.390 . S
C1944 C1945 1.394 . S
C1944 C1950 1.465 . S
C1945 C1940 1.399 . S
C1945 C1944 1.394 . S
C1945 C1946 1.516 1_554 S
C1946 C1945 1.516 1_556 S
C1946 C1947 1.502 . S
C1946 C1948 1.561 . S
C1946 C1949 1.526 . S
C1947 H1931 0.959 . S
C1947 H1932 0.959 . S
C1947 H1933 0.961 . S
C1947 C1946 1.502 . S
C1948 H1934 0.960 1_556 S
C1948 H1935 0.961 . S
C1948 H1936 0.959 1_556 S
C1948 C1946 1.561 . S
C1949 C1946 1.526 . S
C1949 C1950 1.396 1_556 S
C1949 C1954 1.390 . S
C1950 C1944 1.465 . S
C1950 C1949 1.396 1_554 S
C1950 C1951 1.396 1_554 S
C1951 H1937 0.903 1_556 S
C1951 C1950 1.396 1_556 S
C1951 C1952 1.416 . S
C1952 H1938 0.931 . S
C1952 C1951 1.416 . S
C1952 C1953 1.389 . S
C1953 C1952 1.389 . S
C1953 C1954 1.387 . S
C1954 H1939 0.930 . S
C1954 C1949 1.390 . S
C1954 C1953 1.387 . S
H1955 C1967 0.930 . S
H1956 C1969 0.930 . S
H1957 C1970 0.930 . S
H1958 C1974 0.959 . S
H1959 C1974 0.959 . S
H1960 C1974 0.961 . S
H1961 C1975 0.960 . S
H1962 C1975 0.961 . S
H1963 C1975 0.959 . S
H1964 C1978 0.929 . S
H1965 C1979 0.931 . S
H1966 C1981 0.930 . S
C1967 H1955 0.930 . S
C1967 C1968 1.399 . S
C1967 C1972 1.399 . S
C1968 C1967 1.399 . S
C1968 C1969 1.376 . S
C1969 H1956 0.930 . S
C1969 C1968 1.376 . S
C1969 C1970 1.388 . S
C1970 H1957 0.930 . S
C1970 C1969 1.388 . S
C1970 C1971 1.390 . S
C1971 C1970 1.390 . S
C1971 C1972 1.394 . S
C1971 C1977 1.465 . S
C1972 C1967 1.399 . S
C1972 C1971 1.394 . S
C1972 C1973 1.516 . S
C1973 C1972 1.516 . S
C1973 C1974 1.502 . S
C1973 C1975 1.561 . S
C1973 C1976 1.526 . S
C1974 H1958 0.959 . S
C1974 H1959 0.959 . S
C1974 H1960 0.961 . S
C1974 C1973 1.502 . S
C1975 H1961 0.960 . S
C1975 H1962 0.961 . S
C1975 H1963 0.959 . S
C1975 C1973 1.561 . S
C1976 C1973 1.526 . S
C1976 C1977 1.396 . S
C1976 C1981 1.390 . S
C1977 C1971 1.465 . S
C1977 C1976 1.396 . S
C1977 C1978 1.399 . S
C1978 H1964 0.929 . S
C1978 C1977 1.399 . S
C1978 C1979 1.385 . S
C1979 H1965 0.931 . S
C1979 C1978 1.385 . S
C1979 C1980 1.389 . S
C1980 C1979 1.389 . S
C1980 C1981 1.387 . S
C1981 H1966 0.930 . S
C1981 C1976 1.390 . S
C1981 C1980 1.387 . S
H1982 C1994 0.930 . S
H1983 C1996 0.930 . S
H1984 C1997 0.930 . S
H1985 C2001 0.959 . S
H1986 C2001 0.959 . S
H1987 C2001 0.961 . S
H1988 C2002 0.960 . S
H1989 C2002 0.961 . S
H1990 C2002 0.959 . S
H1991 C2005 0.929 . S
H1992 C2006 0.931 . S
H1993 C2008 0.930 . S
C1994 H1982 0.930 . S
C1994 C1995 1.399 . S
C1994 C1999 1.399 . S
C1995 C1994 1.399 . S
C1995 C1996 1.376 . S
C1996 H1983 0.930 . S
C1996 C1995 1.376 . S
C1996 C1997 1.388 . S
C1997 H1984 0.930 . S
C1997 C1996 1.388 . S
C1997 C1998 1.390 . S
C1998 C1997 1.390 . S
C1998 C1999 1.394 . S
C1998 C2004 1.465 . S
C1999 C1994 1.399 . S
C1999 C1998 1.394 . S
C1999 C2000 1.516 . S
C2000 C1999 1.516 . S
C2000 C2001 1.502 . S
C2000 C2002 1.561 . S
C2000 C2003 1.526 . S
C2001 H1985 0.959 . S
C2001 H1986 0.959 . S
C2001 H1987 0.961 . S
C2001 C2000 1.502 . S
C2002 H1988 0.960 . S
C2002 H1989 0.961 . S
C2002 H1990 0.959 . S
C2002 C2000 1.561 . S
C2003 C2000 1.526 . S
C2003 C2004 1.396 . S
C2003 C2008 1.390 . S
C2004 C1998 1.465 . S
C2004 C2003 1.396 . S
C2004 C2005 1.399 . S
C2005 H1991 0.929 . S
C2005 C2004 1.399 . S
C2005 C2006 1.385 . S
C2006 H1992 0.931 . S
C2006 C2005 1.385 . S
C2006 C2007 1.389 . S
C2007 C2006 1.389 . S
C2007 C2008 1.387 . S
C2008 H1993 0.930 . S
C2008 C2003 1.390 . S
C2008 C2007 1.387 . S
H2009 C2021 0.930 . S
H2010 C2023 0.930 . S
H2011 C2024 0.930 . S
H2012 C2028 0.959 . S
H2013 C2028 0.959 . S
H2014 C2028 0.961 . S
H2015 C2029 0.960 . S
H2016 C2029 0.961 . S
H2017 C2029 0.959 . S
H2018 C2032 0.929 . S
H2019 C2033 0.931 . S
H2020 C2035 0.930 . S
C2021 H2009 0.930 . S
C2021 C2022 1.399 . S
C2021 C2026 1.399 . S
C2022 C2021 1.399 . S
C2022 C2023 1.376 . S
C2023 H2010 0.930 . S
C2023 C2022 1.376 . S
C2023 C2024 1.388 . S
C2024 H2011 0.930 . S
C2024 C2023 1.388 . S
C2024 C2025 1.390 . S
C2025 C2024 1.390 . S
C2025 C2026 1.394 . S
C2025 C2031 1.465 . S
C2026 C2021 1.399 . S
C2026 C2025 1.394 . S
C2026 C2027 1.516 . S
C2027 C2026 1.516 . S
C2027 C2028 1.502 . S
C2027 C2029 1.561 . S
C2027 C2030 1.526 . S
C2028 H2012 0.959 . S
C2028 H2013 0.959 . S
C2028 H2014 0.961 . S
C2028 C2027 1.502 . S
C2029 H2015 0.960 . S
C2029 H2016 0.961 . S
C2029 H2017 0.959 . S
C2029 C2027 1.561 . S
C2030 C2027 1.526 . S
C2030 C2031 1.396 . S
C2030 C2035 1.390 . S
C2031 C2025 1.465 . S
C2031 C2030 1.396 . S
C2031 C2032 1.399 . S
C2032 H2018 0.929 . S
C2032 C2031 1.399 . S
C2032 C2033 1.385 . S
C2033 H2019 0.931 . S
C2033 C2032 1.385 . S
C2033 C2034 1.389 . S
C2034 C2033 1.389 . S
C2034 C2035 1.387 . S
C2035 H2020 0.930 . S
C2035 C2030 1.390 . S
C2035 C2034 1.387 . S
H2036 C2048 0.930 . S
H2037 C2050 0.930 . S
H2038 C2051 0.930 . S
H2039 C2055 0.959 . S
H2040 C2055 0.959 . S
H2041 C2055 0.961 . S
H2042 C2056 0.945 1_554 S
H2043 C2056 0.961 . S
H2044 C2056 0.959 1_554 S
H2045 C2059 0.929 . S
H2046 C2060 0.931 . S
H2047 C2062 0.930 . S
C2048 H2036 0.930 . S
C2048 C2049 1.399 . S
C2048 C2053 1.399 . S
C2049 C2048 1.399 . S
C2049 C2050 1.376 . S
C2050 H2037 0.930 . S
C2050 C2049 1.376 . S
C2050 C2051 1.388 . S
C2051 H2038 0.930 . S
C2051 C2050 1.388 . S
C2051 C2052 1.390 . S
C2052 C2051 1.390 . S
C2052 C2053 1.394 . S
C2052 C2058 1.465 1_554 S
C2053 C2048 1.399 . S
C2053 C2052 1.394 . S
C2053 C2054 1.516 1_554 S
C2054 C2053 1.516 1_556 S
C2054 C2055 1.502 . S
C2054 C2056 1.561 . S
C2054 C2057 1.526 . S
C2055 H2039 0.959 . S
C2055 H2040 0.959 . S
C2055 H2041 0.961 . S
C2055 C2054 1.502 . S
C2056 H2042 0.945 1_556 S
C2056 H2043 0.961 . S
C2056 H2044 0.959 1_556 S
C2056 C2054 1.561 . S
C2057 C2054 1.526 . S
C2057 C2058 1.396 . S
C2057 C2062 1.390 . S
C2058 C2052 1.465 1_556 S
C2058 C2057 1.396 . S
C2058 C2059 1.399 . S
C2059 H2045 0.929 . S
C2059 C2058 1.399 . S
C2059 C2060 1.385 . S
C2060 H2046 0.931 . S
C2060 C2059 1.385 . S
C2060 C2061 1.389 . S
C2061 C2060 1.389 . S
C2061 C2062 1.387 . S
C2062 H2047 0.930 . S
C2062 C2057 1.390 . S
C2062 C2061 1.387 . S
H2063 C2075 0.930 . S
H2064 C2077 0.930 . S
H2065 C2078 0.930 . S
H2066 C2082 0.959 . S
H2067 C2082 0.959 . S
H2068 C2082 0.961 . S
H2069 C2083 0.960 . S
H2070 C2083 0.961 . S
H2071 C2083 0.959 . S
H2072 C2086 0.929 . S
H2073 C2087 0.931 . S
H2074 C2089 0.930 . S
C2075 H2063 0.930 . S
C2075 C2076 1.399 . S
C2075 C2080 1.399 . S
C2076 C2075 1.399 . S
C2076 C2077 1.376 . S
C2077 H2064 0.930 . S
C2077 C2076 1.376 . S
C2077 C2078 1.388 . S
C2078 H2065 0.930 . S
C2078 C2077 1.388 . S
C2078 C2079 1.390 . S
C2079 C2078 1.390 . S
C2079 C2080 1.394 . S
C2079 C2085 1.465 . S
C2080 C2075 1.399 . S
C2080 C2079 1.394 . S
C2080 C2081 1.516 . S
C2081 C2080 1.516 . S
C2081 C2082 1.502 . S
C2081 C2083 1.561 . S
C2081 C2084 1.526 . S
C2082 H2066 0.959 . S
C2082 H2067 0.959 . S
C2082 H2068 0.961 . S
C2082 C2081 1.502 . S
C2083 H2069 0.960 . S
C2083 H2070 0.961 . S
C2083 H2071 0.959 . S
C2083 C2081 1.561 . S
C2084 C2081 1.526 . S
C2084 C2085 1.396 . S
C2084 C2089 1.390 . S
C2085 C2079 1.465 . S
C2085 C2084 1.396 . S
C2085 C2086 1.399 . S
C2086 H2072 0.929 . S
C2086 C2085 1.399 . S
C2086 C2087 1.385 . S
C2087 H2073 0.931 . S
C2087 C2086 1.385 . S
C2087 C2088 1.389 . S
C2088 C2087 1.389 . S
C2088 C2089 1.387 . S
C2089 H2074 0.930 . S
C2089 C2084 1.390 . S
C2089 C2088 1.387 . S
H2090 C2102 0.930 . S
H2091 C2104 0.930 . S
H2092 C2105 0.930 . S
H2093 C2109 0.959 . S
H2094 C2109 0.959 . S
H2095 C2109 0.961 . S
H2096 C2110 0.960 . S
H2097 C2110 0.961 . S
H2098 C2110 0.959 . S
H2099 C2113 0.929 . S
H2100 C2114 0.931 . S
H2101 C2116 0.930 . S
C2102 H2090 0.930 . S
C2102 C2103 1.399 . S
C2102 C2107 1.399 . S
C2103 C2102 1.399 . S
C2103 C2104 1.376 . S
C2104 H2091 0.930 . S
C2104 C2103 1.376 . S
C2104 C2105 1.388 . S
C2105 H2092 0.930 . S
C2105 C2104 1.388 . S
C2105 C2106 1.390 . S
C2106 C2105 1.390 . S
C2106 C2107 1.394 . S
C2106 C2112 1.465 . S
C2107 C2102 1.399 . S
C2107 C2106 1.394 . S
C2107 C2108 1.516 . S
C2108 C2107 1.516 . S
C2108 C2109 1.502 . S
C2108 C2110 1.561 . S
C2108 C2111 1.526 . S
C2109 H2093 0.959 . S
C2109 H2094 0.959 . S
C2109 H2095 0.961 . S
C2109 C2108 1.502 . S
C2110 H2096 0.960 . S
C2110 H2097 0.961 . S
C2110 H2098 0.959 . S
C2110 C2108 1.561 . S
C2111 C2108 1.526 . S
C2111 C2112 1.396 . S
C2111 C2116 1.390 . S
C2112 C2106 1.465 . S
C2112 C2111 1.396 . S
C2112 C2113 1.399 . S
C2113 H2099 0.929 . S
C2113 C2112 1.399 . S
C2113 C2114 1.385 . S
C2114 H2100 0.931 . S
C2114 C2113 1.385 . S
C2114 C2115 1.389 . S
C2115 C2114 1.389 . S
C2115 C2116 1.387 . S
C2116 H2101 0.930 . S
C2116 C2111 1.390 . S
C2116 C2115 1.387 . S
H2117 C2129 0.930 . S
H2118 C2131 0.930 . S
H2119 C2132 0.930 . S
H2120 C2136 0.959 . S
H2121 C2136 0.959 . S
H2122 C2136 0.961 . S
H2123 C2137 0.960 . S
H2124 C2137 0.961 . S
H2125 C2137 0.959 . S
H2126 C2140 0.929 . S
H2127 C2141 0.931 . S
H2128 C2143 0.930 . S
C2129 H2117 0.930 . S
C2129 C2130 1.399 . S
C2129 C2134 1.399 . S
C2130 C2129 1.399 . S
C2130 C2131 1.376 . S
C2131 H2118 0.930 . S
C2131 C2130 1.376 . S
C2131 C2132 1.388 . S
C2132 H2119 0.930 . S
C2132 C2131 1.388 . S
C2132 C2133 1.390 . S
C2133 C2132 1.390 . S
C2133 C2134 1.394 . S
C2133 C2139 1.465 . S
C2134 C2129 1.399 . S
C2134 C2133 1.394 . S
C2134 C2135 1.516 . S
C2135 C2134 1.516 . S
C2135 C2136 1.502 . S
C2135 C2137 1.561 . S
C2135 C2138 1.526 . S
C2136 H2120 0.959 . S
C2136 H2121 0.959 . S
C2136 H2122 0.961 . S
C2136 C2135 1.502 . S
C2137 H2123 0.960 . S
C2137 H2124 0.961 . S
C2137 H2125 0.959 . S
C2137 C2135 1.561 . S
C2138 C2135 1.526 . S
C2138 C2139 1.396 . S
C2138 C2143 1.390 . S
C2139 C2133 1.465 . S
C2139 C2138 1.396 . S
C2139 C2140 1.399 . S
C2140 H2126 0.929 . S
C2140 C2139 1.399 . S
C2140 C2141 1.385 . S
C2141 H2127 0.931 . S
C2141 C2140 1.385 . S
C2141 C2142 1.389 . S
C2142 C2141 1.389 . S
C2142 C2143 1.387 . S
C2143 H2128 0.930 . S
C2143 C2138 1.390 . S
C2143 C2142 1.387 . S
C429 C8 0.899 . S
C441 C177 0.965 . S
C456 C333 1.284 . S
C468 C21 1.304 . S
C483 C34 0.887 . S
C495 C203 0.965 . S
C510 C47 1.264 . S
C522 C320 1.308 . S
C537 C60 1.399 . S
C549 C229 1.406 . S
C564 C73 0.980 . S
C576 C294 1.029 . S
C591 C86 1.398 . S
C603 C255 1.405 . S
C618 C411 1.018 . S
C630 C99 0.988 . S
C645 C281 1.409 . S
C657 C112 1.404 . S
C672 C125 1.054 . S
C684 C242 1.033 . S
C699 C307 1.377 . S
C711 C138 1.363 . S
C726 C151 1.275 . S
C738 C216 1.254 . S
C753 C190 1.293 . S
C765 C164 1.298 . S
C780 C268 0.988 . S
C792 C372 1.058 . S
C807 C385 0.943 . S
C819 C346 0.949 . S
C834 C398 0.915 . S
C846 C359 0.967 . S
C861 C10 1.598 . S
C873 C23 1.567 . S
C888 C31 1.508 . S
C900 C13 1.522 . S
C915 C49 1.590 . S
C927 C36 1.593 . S
C942 C39 1.525 . S
C954 C5 1.507 . S
C969 C96 1.345 . S
C981 C57 1.402 . S
C996 C75 1.465 . S
C1008 C52 1.549 . S
C1023 C83 1.418 . S
C1035 C70 1.343 . S
C1050 C78 1.544 . S
C1062 C101 1.468 . S
C1077 C117 1.544 . S
C1089 C0 1.569 . S
C1104 C114 1.445 . S
C1116 C44 1.511 . S
C1131 C140 1.464 . S
C1143 C18 1.506 . S
C1158 C351 1.553 . S
C1170 C91 1.564 . S
C1185 C364 1.544 . S
C1197 C26 1.565 . S
C1212 C148 1.450 . S
C1224 C62 1.485 . S
C1239 C88 1.449 . S
C1251 C161 1.455 . S
C1266 C187 1.527 . S
C1278 C174 1.507 . S
C1293 C205 1.472 . S
C1305 C182 1.442 . S
C1320 C213 1.566 . S
C1332 C200 1.560 . S
C1347 C179 1.472 . S
C1359 C208 1.442 . S
C1374 C221 1.457 . S
C1386 C270 1.447 . S
C1401 C226 1.606 . S
C1413 C239 1.587 . S
C1428 C247 1.443 . S
C1440 C244 1.470 . S
C1455 C252 1.615 . S
C1467 C265 1.602 . S
C1482 C169 1.509 . S
C1494 C286 1.485 . S
C1509 C283 1.478 . S
C1521 C218 1.457 . S
C1536 C309 1.451 . S
C1548 C192 1.501 . S
C1563 C390 1.490 . S
C1575 C260 1.448 . S
C1590 C403 1.500 . S
C1602 C195 1.498 . S
C1617 C231 1.530 . S
C1629 C322 1.496 . S
C1644 C335 1.530 . S
C1656 C257 1.493 . S
C1671 C166 1.592 . S
C1683 C348 1.590 . S
C1698 C356 1.495 . S
C1710 C156 1.514 . S
C1725 C153 1.531 . S
C1737 C361 1.573 . S
C1752 C143 1.498 . S
C1764 C343 1.449 . S
C1779 C109 1.374 . S
C1791 C369 1.370 . S
C1806 C127 1.479 . S
C1818 C104 1.554 . S
C1833 C135 1.416 . S
C1845 C122 1.348 . S
C1860 C130 1.569 . S
C1872 C374 1.529 . S
C1887 C338 1.554 . S
C1899 C65 1.562 . S
C1914 C330 1.528 . S
C1926 C382 1.507 . S
C1941 C325 1.474 . S
C1953 C400 1.418 . S
C1968 C395 1.555 . S
C1980 C317 1.565 . S
C1995 C312 1.479 . S
C2007 C387 1.416 . S
C2022 C413 1.434 . S
C2034 C273 1.467 . S
C2049 C278 1.612 . S
C2061 C291 1.597 . S
C2076 C299 1.443 . S
C2088 C296 1.470 . S
C2103 C304 1.611 . S
C2115 C408 1.595 . S
C2130 C377 1.509 . S
C2142 C234 1.454 . S
