# Generated by pormake.
# Topology uky, (4)-cn, num edge types: 1
# Building blocks:
#     Node 0, Type 0, BuildingBlock: CEKHIL_clean_sbu_0, # of connection points: 4
#     Node 1, Type 0, BuildingBlock: CEKHIL_clean_sbu_0, # of connection points: 4
#     Node 2, Type 0, BuildingBlock: CEKHIL_clean_sbu_0, # of connection points: 4
#     Node 3, Type 0, BuildingBlock: CEKHIL_clean_sbu_0, # of connection points: 4
#     Node 4, Type 0, BuildingBlock: CEKHIL_clean_sbu_0, # of connection points: 4
#     Node 5, Type 0, BuildingBlock: CEKHIL_clean_sbu_0, # of connection points: 4
#     Node 6, Type 0, BuildingBlock: CEKHIL_clean_sbu_0, # of connection points: 4
#     Node 7, Type 0, BuildingBlock: CEKHIL_clean_sbu_0, # of connection points: 4
#     Node 8, Type 0, BuildingBlock: CEKHIL_clean_sbu_0, # of connection points: 4
#     Node 9, Type 0, BuildingBlock: CEKHIL_clean_sbu_0, # of connection points: 4
#     Node 10, Type 0, BuildingBlock: CEKHIL_clean_sbu_0, # of connection points: 4
#     Node 11, Type 0, BuildingBlock: CEKHIL_clean_sbu_0, # of connection points: 4
#     Node 12, Type 0, BuildingBlock: CEKHIL_clean_sbu_0, # of connection points: 4
#     Node 13, Type 0, BuildingBlock: CEKHIL_clean_sbu_0, # of connection points: 4
#     Node 14, Type 0, BuildingBlock: CEKHIL_clean_sbu_0, # of connection points: 4
#     Node 15, Type 0, BuildingBlock: CEKHIL_clean_sbu_0, # of connection points: 4
#     Node 16, Type 0, BuildingBlock: CEKHIL_clean_sbu_0, # of connection points: 4
#     Node 17, Type 0, BuildingBlock: CEKHIL_clean_sbu_0, # of connection points: 4
#     Node 18, Type 0, BuildingBlock: CEKHIL_clean_sbu_0, # of connection points: 4
#     Node 19, Type 0, BuildingBlock: CEKHIL_clean_sbu_0, # of connection points: 4
#     Node 20, Type 0, BuildingBlock: CEKHIL_clean_sbu_0, # of connection points: 4
#     Node 21, Type 0, BuildingBlock: CEKHIL_clean_sbu_0, # of connection points: 4
#     Node 22, Type 0, BuildingBlock: CEKHIL_clean_sbu_0, # of connection points: 4
#     Node 23, Type 0, BuildingBlock: CEKHIL_clean_sbu_0, # of connection points: 4
#     Node 24, Type 0, BuildingBlock: CEKHIL_clean_sbu_0, # of connection points: 4
#     Node 25, Type 0, BuildingBlock: CEKHIL_clean_sbu_0, # of connection points: 4
#     Node 26, Type 0, BuildingBlock: CEKHIL_clean_sbu_0, # of connection points: 4
#     Node 27, Type 0, BuildingBlock: CEKHIL_clean_sbu_0, # of connection points: 4
#     Node 28, Type 0, BuildingBlock: CEKHIL_clean_sbu_0, # of connection points: 4
#     Node 29, Type 0, BuildingBlock: CEKHIL_clean_sbu_0, # of connection points: 4
#     Node 30, Type 0, BuildingBlock: CEKHIL_clean_sbu_0, # of connection points: 4
#     Node 31, Type 0, BuildingBlock: CEKHIL_clean_sbu_0, # of connection points: 4
#     Node 32, Type 0, BuildingBlock: CEKHIL_clean_sbu_0, # of connection points: 4
#     Node 33, Type 0, BuildingBlock: CEKHIL_clean_sbu_0, # of connection points: 4
#     Node 34, Type 0, BuildingBlock: CEKHIL_clean_sbu_0, # of connection points: 4
#     Node 35, Type 0, BuildingBlock: CEKHIL_clean_sbu_0, # of connection points: 4
#     Node 36, Type 0, BuildingBlock: CEKHIL_clean_sbu_0, # of connection points: 4
#     Node 37, Type 0, BuildingBlock: CEKHIL_clean_sbu_0, # of connection points: 4
#     Node 38, Type 0, BuildingBlock: CEKHIL_clean_sbu_0, # of connection points: 4
#     Node 39, Type 0, BuildingBlock: CEKHIL_clean_sbu_0, # of connection points: 4
#     Node 40, Type 0, BuildingBlock: CEKHIL_clean_sbu_0, # of connection points: 4
#     Node 41, Type 0, BuildingBlock: CEKHIL_clean_sbu_0, # of connection points: 4
#     Node 42, Type 0, BuildingBlock: CEKHIL_clean_sbu_0, # of connection points: 4
#     Node 43, Type 0, BuildingBlock: CEKHIL_clean_sbu_0, # of connection points: 4
#     Node 44, Type 0, BuildingBlock: CEKHIL_clean_sbu_0, # of connection points: 4
#     Node 45, Type 0, BuildingBlock: CEKHIL_clean_sbu_0, # of connection points: 4
#     Node 46, Type 0, BuildingBlock: CEKHIL_clean_sbu_0, # of connection points: 4
#     Node 47, Type 0, BuildingBlock: CEKHIL_clean_sbu_0, # of connection points: 4
#     Edge 48, Type (0, 0), BuildingBlock: CIFDUS_clean_linker_0, # of connection points: 2
#     Edge 49, Type (0, 0), BuildingBlock: CIFDUS_clean_linker_0, # of connection points: 2
#     Edge 50, Type (0, 0), BuildingBlock: CIFDUS_clean_linker_0, # of connection points: 2
#     Edge 51, Type (0, 0), BuildingBlock: CIFDUS_clean_linker_0, # of connection points: 2
#     Edge 52, Type (0, 0), BuildingBlock: CIFDUS_clean_linker_0, # of connection points: 2
#     Edge 53, Type (0, 0), BuildingBlock: CIFDUS_clean_linker_0, # of connection points: 2
#     Edge 54, Type (0, 0), BuildingBlock: CIFDUS_clean_linker_0, # of connection points: 2
#     Edge 55, Type (0, 0), BuildingBlock: CIFDUS_clean_linker_0, # of connection points: 2
#     Edge 56, Type (0, 0), BuildingBlock: CIFDUS_clean_linker_0, # of connection points: 2
#     Edge 57, Type (0, 0), BuildingBlock: CIFDUS_clean_linker_0, # of connection points: 2
#     Edge 58, Type (0, 0), BuildingBlock: CIFDUS_clean_linker_0, # of connection points: 2
#     Edge 59, Type (0, 0), BuildingBlock: CIFDUS_clean_linker_0, # of connection points: 2
#     Edge 60, Type (0, 0), BuildingBlock: CIFDUS_clean_linker_0, # of connection points: 2
#     Edge 61, Type (0, 0), BuildingBlock: CIFDUS_clean_linker_0, # of connection points: 2
#     Edge 62, Type (0, 0), BuildingBlock: CIFDUS_clean_linker_0, # of connection points: 2
#     Edge 63, Type (0, 0), BuildingBlock: CIFDUS_clean_linker_0, # of connection points: 2
#     Edge 64, Type (0, 0), BuildingBlock: CIFDUS_clean_linker_0, # of connection points: 2
#     Edge 65, Type (0, 0), BuildingBlock: CIFDUS_clean_linker_0, # of connection points: 2
#     Edge 66, Type (0, 0), BuildingBlock: CIFDUS_clean_linker_0, # of connection points: 2
#     Edge 67, Type (0, 0), BuildingBlock: CIFDUS_clean_linker_0, # of connection points: 2
#     Edge 68, Type (0, 0), BuildingBlock: CIFDUS_clean_linker_0, # of connection points: 2
#     Edge 69, Type (0, 0), BuildingBlock: CIFDUS_clean_linker_0, # of connection points: 2
#     Edge 70, Type (0, 0), BuildingBlock: CIFDUS_clean_linker_0, # of connection points: 2
#     Edge 71, Type (0, 0), BuildingBlock: CIFDUS_clean_linker_0, # of connection points: 2
#     Edge 72, Type (0, 0), BuildingBlock: CIFDUS_clean_linker_0, # of connection points: 2
#     Edge 73, Type (0, 0), BuildingBlock: CIFDUS_clean_linker_0, # of connection points: 2
#     Edge 74, Type (0, 0), BuildingBlock: CIFDUS_clean_linker_0, # of connection points: 2
#     Edge 75, Type (0, 0), BuildingBlock: CIFDUS_clean_linker_0, # of connection points: 2
#     Edge 76, Type (0, 0), BuildingBlock: CIFDUS_clean_linker_0, # of connection points: 2
#     Edge 77, Type (0, 0), BuildingBlock: CIFDUS_clean_linker_0, # of connection points: 2
#     Edge 78, Type (0, 0), BuildingBlock: CIFDUS_clean_linker_0, # of connection points: 2
#     Edge 79, Type (0, 0), BuildingBlock: CIFDUS_clean_linker_0, # of connection points: 2
#     Edge 80, Type (0, 0), BuildingBlock: CIFDUS_clean_linker_0, # of connection points: 2
#     Edge 81, Type (0, 0), BuildingBlock: CIFDUS_clean_linker_0, # of connection points: 2
#     Edge 82, Type (0, 0), BuildingBlock: CIFDUS_clean_linker_0, # of connection points: 2
#     Edge 83, Type (0, 0), BuildingBlock: CIFDUS_clean_linker_0, # of connection points: 2
#     Edge 84, Type (0, 0), BuildingBlock: CIFDUS_clean_linker_0, # of connection points: 2
#     Edge 85, Type (0, 0), BuildingBlock: CIFDUS_clean_linker_0, # of connection points: 2
#     Edge 86, Type (0, 0), BuildingBlock: CIFDUS_clean_linker_0, # of connection points: 2
#     Edge 87, Type (0, 0), BuildingBlock: CIFDUS_clean_linker_0, # of connection points: 2
#     Edge 88, Type (0, 0), BuildingBlock: CIFDUS_clean_linker_0, # of connection points: 2
#     Edge 89, Type (0, 0), BuildingBlock: CIFDUS_clean_linker_0, # of connection points: 2
#     Edge 90, Type (0, 0), BuildingBlock: CIFDUS_clean_linker_0, # of connection points: 2
#     Edge 91, Type (0, 0), BuildingBlock: CIFDUS_clean_linker_0, # of connection points: 2
#     Edge 92, Type (0, 0), BuildingBlock: CIFDUS_clean_linker_0, # of connection points: 2
#     Edge 93, Type (0, 0), BuildingBlock: CIFDUS_clean_linker_0, # of connection points: 2
#     Edge 94, Type (0, 0), BuildingBlock: CIFDUS_clean_linker_0, # of connection points: 2
#     Edge 95, Type (0, 0), BuildingBlock: CIFDUS_clean_linker_0, # of connection points: 2
#     Edge 96, Type (0, 0), BuildingBlock: CIFDUS_clean_linker_0, # of connection points: 2
#     Edge 97, Type (0, 0), BuildingBlock: CIFDUS_clean_linker_0, # of connection points: 2
#     Edge 98, Type (0, 0), BuildingBlock: CIFDUS_clean_linker_0, # of connection points: 2
#     Edge 99, Type (0, 0), BuildingBlock: CIFDUS_clean_linker_0, # of connection points: 2
#     Edge 100, Type (0, 0), BuildingBlock: CIFDUS_clean_linker_0, # of connection points: 2
#     Edge 101, Type (0, 0), BuildingBlock: CIFDUS_clean_linker_0, # of connection points: 2
#     Edge 102, Type (0, 0), BuildingBlock: CIFDUS_clean_linker_0, # of connection points: 2
#     Edge 103, Type (0, 0), BuildingBlock: CIFDUS_clean_linker_0, # of connection points: 2
#     Edge 104, Type (0, 0), BuildingBlock: CIFDUS_clean_linker_0, # of connection points: 2
#     Edge 105, Type (0, 0), BuildingBlock: CIFDUS_clean_linker_0, # of connection points: 2
#     Edge 106, Type (0, 0), BuildingBlock: CIFDUS_clean_linker_0, # of connection points: 2
#     Edge 107, Type (0, 0), BuildingBlock: CIFDUS_clean_linker_0, # of connection points: 2
#     Edge 108, Type (0, 0), BuildingBlock: CIFDUS_clean_linker_0, # of connection points: 2
#     Edge 109, Type (0, 0), BuildingBlock: CIFDUS_clean_linker_0, # of connection points: 2
#     Edge 110, Type (0, 0), BuildingBlock: CIFDUS_clean_linker_0, # of connection points: 2
#     Edge 111, Type (0, 0), BuildingBlock: CIFDUS_clean_linker_0, # of connection points: 2
#     Edge 112, Type (0, 0), BuildingBlock: CIFDUS_clean_linker_0, # of connection points: 2
#     Edge 113, Type (0, 0), BuildingBlock: CIFDUS_clean_linker_0, # of connection points: 2
#     Edge 114, Type (0, 0), BuildingBlock: CIFDUS_clean_linker_0, # of connection points: 2
#     Edge 115, Type (0, 0), BuildingBlock: CIFDUS_clean_linker_0, # of connection points: 2
#     Edge 116, Type (0, 0), BuildingBlock: CIFDUS_clean_linker_0, # of connection points: 2
#     Edge 117, Type (0, 0), BuildingBlock: CIFDUS_clean_linker_0, # of connection points: 2
#     Edge 118, Type (0, 0), BuildingBlock: CIFDUS_clean_linker_0, # of connection points: 2
#     Edge 119, Type (0, 0), BuildingBlock: CIFDUS_clean_linker_0, # of connection points: 2
#     Edge 120, Type (0, 0), BuildingBlock: CIFDUS_clean_linker_0, # of connection points: 2
#     Edge 121, Type (0, 0), BuildingBlock: CIFDUS_clean_linker_0, # of connection points: 2
#     Edge 122, Type (0, 0), BuildingBlock: CIFDUS_clean_linker_0, # of connection points: 2
#     Edge 123, Type (0, 0), BuildingBlock: CIFDUS_clean_linker_0, # of connection points: 2
#     Edge 124, Type (0, 0), BuildingBlock: CIFDUS_clean_linker_0, # of connection points: 2
#     Edge 125, Type (0, 0), BuildingBlock: CIFDUS_clean_linker_0, # of connection points: 2
#     Edge 126, Type (0, 0), BuildingBlock: CIFDUS_clean_linker_0, # of connection points: 2
#     Edge 127, Type (0, 0), BuildingBlock: CIFDUS_clean_linker_0, # of connection points: 2
#     Edge 128, Type (0, 0), BuildingBlock: CIFDUS_clean_linker_0, # of connection points: 2
#     Edge 129, Type (0, 0), BuildingBlock: CIFDUS_clean_linker_0, # of connection points: 2
#     Edge 130, Type (0, 0), BuildingBlock: CIFDUS_clean_linker_0, # of connection points: 2
#     Edge 131, Type (0, 0), BuildingBlock: CIFDUS_clean_linker_0, # of connection points: 2
#     Edge 132, Type (0, 0), BuildingBlock: CIFDUS_clean_linker_0, # of connection points: 2
#     Edge 133, Type (0, 0), BuildingBlock: CIFDUS_clean_linker_0, # of connection points: 2
#     Edge 134, Type (0, 0), BuildingBlock: CIFDUS_clean_linker_0, # of connection points: 2
#     Edge 135, Type (0, 0), BuildingBlock: CIFDUS_clean_linker_0, # of connection points: 2
#     Edge 136, Type (0, 0), BuildingBlock: CIFDUS_clean_linker_0, # of connection points: 2
#     Edge 137, Type (0, 0), BuildingBlock: CIFDUS_clean_linker_0, # of connection points: 2
#     Edge 138, Type (0, 0), BuildingBlock: CIFDUS_clean_linker_0, # of connection points: 2
#     Edge 139, Type (0, 0), BuildingBlock: CIFDUS_clean_linker_0, # of connection points: 2
#     Edge 140, Type (0, 0), BuildingBlock: CIFDUS_clean_linker_0, # of connection points: 2
#     Edge 141, Type (0, 0), BuildingBlock: CIFDUS_clean_linker_0, # of connection points: 2
#     Edge 142, Type (0, 0), BuildingBlock: CIFDUS_clean_linker_0, # of connection points: 2
#     Edge 143, Type (0, 0), BuildingBlock: CIFDUS_clean_linker_0, # of connection points: 2
# Relax obj value: 0.314
# Max RMSD: 0.251
# Mean RMSD: 0.251
data_MOF--net-uky--node1-CEKHIL_clean_sbu_0--edge1-CIFDUS_clean_linker_0
_symmetry_space_group_name_H-M    P1
_symmetry_Int_Tables_number       1
_symmetry_cell_setting            triclinic
loop_
_symmetry_equiv_pos_as_xyz
'x, y, z'
_cell_length_a     53.0906
_cell_length_b     53.142738
_cell_length_c     53.110497
_cell_angle_alpha  89.926245
_cell_angle_beta   90.031256
_cell_angle_gamma 89.872488
loop_
_atom_site_label
_atom_site_type_symbol
_atom_site_fract_x
_atom_site_fract_y
_atom_site_fract_z
_atom_type_partial_charge
Co0 Co 0.18866 0.19706 0.3349 0.0
O1 O 0.15607 0.1818 0.33916 0.0
O2 O 0.19266 0.16251 0.34526 0.0
C3 C 0.18215 0.21704 0.29812 0.0
O4 O 0.2257 0.20591 0.33131 0.0
Co5 Co 0.19467 0.25516 0.33522 0.0
O6 O 0.23036 0.24777 0.32663 0.0
C7 C 0.18616 0.22875 0.38287 0.0
C8 C 0.16819 0.16165 0.34606 0.0
C9 C 0.23931 0.22549 0.32723 0.0
O10 O 0.18879 0.2076 0.37141 0.0
O11 O 0.18544 0.24989 0.37135 0.0
O12 O 0.18728 0.19307 0.29833 0.0
O13 O 0.17753 0.22687 0.31984 0.0
Co14 Co -0.00411 0.94595 0.65461 0.0
O15 O 0.9907 0.92114 0.68059 0.0
O16 O 0.02766 0.93081 0.66379 0.0
C17 C 0.96356 0.93359 0.63006 0.0
O18 O 0.00903 0.96916 0.62694 0.0
Co19 Co 0.95614 0.98592 0.6389 0.0
O20 O 0.97593 0.9866 0.6072 0.0
C21 C 0.98412 0.9911 0.68721 0.0
C22 C 0.01483 0.91719 0.67955 0.0
C23 C -0.00091 0.98042 0.6079 0.0
O24 O -0.00076 0.97297 0.6813 0.0
O25 O 0.96538 -0.00232 0.67346 0.0
O26 O 0.98509 0.92194 0.62859 0.0
O27 O 0.9621 0.95092 0.64689 0.0
Co28 Co 0.29297 0.73768 0.90409 0.0
O29 O 0.32596 0.74175 0.9186 0.0
O30 O 0.30077 0.77285 0.90639 0.0
C31 C 0.30225 0.70704 0.87644 0.0
O32 O 0.25869 0.74127 0.88751 0.0
Co33 Co 0.26309 0.68764 0.90893 0.0
O34 O 0.23811 0.70433 0.88655 0.0
C35 C 0.27128 0.71954 0.95309 0.0
C36 C 0.32211 0.7658 0.91614 0.0
C37 C 0.23986 0.72759 0.88092 0.0
O38 O 0.27755 0.73805 0.93879 0.0
O39 O 0.26794 0.69713 0.94503 0.0
O40 O 0.30746 0.73034 0.87098 0.0
O41 O 0.29462 0.70309 0.89913 0.0
Co42 Co 0.52152 0.03665 0.13803 0.0
O43 O 0.52178 0.06792 0.15603 0.0
O44 O 0.48849 0.04299 0.15178 0.0
C45 C 0.54194 0.04959 0.10336 0.0
O46 O 0.51399 0.00408 0.11938 0.0
Co47 Co 0.57226 0.00946 0.12768 0.0
O48 O 0.55089 0.98866 0.10527 0.0
C49 C 0.55118 0.00787 0.17838 0.0
C50 C 0.49815 0.06367 0.16058 0.0
C51 C 0.52688 0.98854 0.10594 0.0
O52 O 0.53087 0.01781 0.16966 0.0
O53 O 0.57112 0.00501 0.16518 0.0
O54 O 0.51814 0.05456 0.10627 0.0
O55 O 0.55318 0.04033 0.12295 0.0
Co56 Co 0.15998 0.75975 0.11659 0.0
O57 O 0.13287 0.75621 0.09306 0.0
O58 O 0.14935 0.79262 0.1053 0.0
C59 C 0.14482 0.73237 0.14507 0.0
O60 O 0.18782 0.77072 0.14046 0.0
Co61 Co 0.19391 0.71417 0.13111 0.0
O62 O 0.20633 0.73685 0.15797 0.0
C63 C 0.20131 0.74038 0.08229 0.0
C64 C 0.13314 0.78057 0.09148 0.0
C65 C 0.20307 0.76054 0.15633 0.0
O66 O 0.18495 0.75725 0.08822 0.0
O67 O 0.20609 0.72113 0.09605 0.0
O68 O 0.13705 0.75558 0.14525 0.0
O69 O 0.15985 0.72631 0.12706 0.0
Co70 Co 0.50001 0.94166 0.36494 0.0
O71 O 0.50174 0.90783 0.35146 0.0
O72 O 0.46746 0.93174 0.35354 0.0
C73 C 0.52206 0.93622 0.40067 0.0
O74 O 0.48938 0.97565 0.3784 0.0
Co75 Co 0.54667 0.97583 0.37121 0.0
O76 O 0.52286 -7e-05 0.38713 0.0
C77 C 0.52746 0.96599 0.32069 0.0
C78 C 0.47775 0.91059 0.34698 0.0
C79 C 0.49923 -0.00415 0.38712 0.0
O80 O 0.50764 0.95615 0.33054 0.0
O81 O 0.54656 0.97269 0.3337 0.0
O82 O 0.4988 0.92868 0.39924 0.0
O83 O 0.53208 0.9433 0.37962 0.0
Co84 Co 0.24207 0.24315 0.56902 0.0
O85 O 0.27186 0.25003 0.54946 0.0
O86 O 0.2575 0.21198 0.55874 0.0
C87 C 0.2495 0.27012 0.60075 0.0
O88 O 0.21305 0.22849 0.58937 0.0
Co89 Co 0.20168 0.28504 0.57698 0.0
O90 O 0.18566 0.25954 0.59893 0.0
C91 C 0.20623 0.26064 0.52768 0.0
C92 C 0.27455 0.22578 0.54791 0.0
C93 C 0.19315 0.2368 0.60038 0.0
O94 O 0.22099 0.24401 0.53739 0.0
O95 O 0.19843 0.27997 0.53975 0.0
O96 O 0.26065 0.24834 0.60022 0.0
O97 O 0.23685 0.276 0.58079 0.0
Co98 Co 0.96108 0.0718 0.87033 0.0
O99 O 0.96138 0.10495 0.85597 0.0
O100 O 0.9951 0.08433 0.86985 0.0
C101 C 0.92797 0.07592 0.89651 0.0
O102 O 0.96763 0.03782 0.88668 0.0
Co103 Co 0.91508 0.03723 0.85951 0.0
O104 O 0.93284 0.01386 0.88272 0.0
C105 C 0.95031 0.04907 0.81912 0.0
C106 C 0.98567 0.10413 0.85886 0.0
C107 C 0.9551 0.01757 0.89097 0.0
O108 O 0.96614 0.05716 0.83551 0.0
O109 O 0.92762 0.04313 0.82446 0.0
O110 O 0.94993 0.08446 0.90318 0.0
O111 O 0.92626 0.06901 0.87329 0.0
Co112 Co 0.40903 0.20771 0.24961 0.0
O113 O 0.42695 0.17623 0.25129 0.0
O114 O 0.42211 0.19957 0.21686 0.0
C115 C 0.37466 0.19619 0.27137 0.0
O116 O 0.39058 0.2399 0.24011 0.0
Co117 Co 0.39924 0.23846 0.2982 0.0
O118 O 0.37848 0.25972 0.27552 0.0
C119 C 0.44977 0.23876 0.27637 0.0
C120 C 0.43108 0.17936 0.22738 0.0
C121 C 0.37863 0.25753 0.25163 0.0
O122 O 0.44094 0.22682 0.25726 0.0
O123 O 0.43665 0.24346 0.29601 0.0
O124 O 0.37715 0.18989 0.24788 0.0
O125 O 0.39434 0.20617 0.28173 0.0
Co126 Co 0.04853 0.07254 0.45879 0.0
O127 O 0.08239 0.07731 0.4467 0.0
O128 O 0.04804 0.07803 0.42294 0.0
C129 C 0.05499 0.03931 0.4843 0.0
O130 O 0.011 0.06698 0.46393 0.0
Co131 Co 0.03544 0.07987 0.51526 0.0
O132 O 0.00214 0.06595 0.50539 0.0
C133 C 0.04834 0.12352 0.48424 0.0
C134 C 0.07233 0.08073 0.42463 0.0
C135 C -0.00418 0.06307 0.48241 0.0
O136 O 0.04535 0.1101 0.46432 0.0
O137 O 0.04798 0.11428 0.50648 0.0
O138 O 0.05267 0.03594 0.46012 0.0
O139 O 0.0569 0.06242 0.49139 0.0
Co140 Co 0.09948 0.76585 0.76119 0.0
O141 O 0.0825 0.79768 0.76423 0.0
O142 O 0.10124 0.78387 0.72959 0.0
C143 C 0.12198 0.76712 0.7971 0.0
O144 O 0.11943 0.73435 0.75159 0.0
Co145 Co 0.08782 0.72383 0.80061 0.0
O146 O 0.11556 0.70628 0.78326 0.0
C147 C 0.05211 0.73306 0.75938 0.0
C148 C 0.08823 0.80139 0.74076 0.0
C149 C 0.12483 0.7132 0.76225 0.0
O150 O 0.06692 0.74977 0.75012 0.0
O151 O 0.05635 0.72145 0.78006 0.0
O152 O 0.12962 0.77922 0.77725 0.0
O153 O 0.09949 0.75795 0.79561 0.0
Co154 Co 0.47264 0.87217 0.96447 0.0
O155 O 0.45534 0.8441 0.97959 0.0
O156 O 0.44146 0.8667 0.94721 0.0
C157 C 0.4839 0.89155 0.0003 0.0
O158 O 0.48393 0.90244 0.94401 0.0
Co159 Co 0.52984 0.88164 0.97218 0.0
O160 O 0.52215 0.91497 0.95722 0.0
C161 C 0.51192 0.83721 0.94427 0.0
C162 C 0.43821 0.84784 0.96245 0.0
C163 C 0.50198 0.91844 0.9447 0.0
O164 O 0.49032 0.84787 0.94149 0.0
O165 O 0.52969 0.84688 0.95736 0.0
O166 O 0.46131 0.8948 0.99127 0.0
O167 O 0.49777 0.87539 0.98863 0.0
Co168 Co 0.35906 0.80113 0.24465 0.0
O169 O 0.37059 0.83511 0.24791 0.0
O170 O 0.37784 0.8045 0.27557 0.0
C171 C 0.31931 0.80925 0.23297 0.0
O172 O 0.34863 0.76455 0.24836 0.0
Co173 Co 0.34395 0.78096 0.19214 0.0
O174 O 0.33029 0.75243 0.21211 0.0
C175 C 0.3973 0.78714 0.20368 0.0
C176 C 0.38082 0.82788 0.26893 0.0
C177 C 0.33583 0.74878 0.2352 0.0
O178 O 0.39114 0.79163 0.22665 0.0
O179 O 0.38109 0.78453 0.18606 0.0
O180 O 0.32565 0.8104 0.2566 0.0
O181 O 0.33775 0.8069 0.21722 0.0
Co182 Co 0.43273 0.13432 0.48836 0.0
O183 O 0.40451 0.1559 0.4802 0.0
O184 O 0.40977 0.13545 0.51627 0.0
C185 C 0.43393 0.11252 0.45207 0.0
O186 O 0.45789 0.10971 0.50385 0.0
Co187 Co 0.48317 0.13311 0.45881 0.0
O188 O 0.48648 0.0994 0.47449 0.0
C189 C 0.47258 0.17474 0.49429 0.0
C190 C 0.39609 0.15039 0.50253 0.0
C191 C 0.47519 0.09514 0.49516 0.0
O192 O 0.45187 0.16437 0.50143 0.0
O193 O 0.48691 0.16573 0.47714 0.0
O194 O 0.41783 0.10649 0.46953 0.0
O195 O 0.44676 0.13268 0.45619 0.0
Co196 Co 0.09065 0.21334 0.74228 0.0
O197 O 0.06153 0.19177 0.74118 0.0
O198 O 0.08123 0.20401 0.77594 0.0
C199 C 0.11241 0.19428 0.71133 0.0
O200 O 0.12133 0.23402 0.75172 0.0
Co201 Co 0.10901 0.24633 0.69791 0.0
O202 O 0.1414 0.24652 0.71677 0.0
C203 C 0.06275 0.2603 0.72598 0.0
C204 C 0.06308 0.19134 0.76563 0.0
C205 C 0.14095 0.24247 0.7404 0.0
O206 O 0.06769 0.24372 0.74305 0.0
O207 O 0.07607 0.26299 0.70606 0.0
O208 O 0.11316 0.18514 0.73407 0.0
O209 O 0.09755 0.21318 0.70797 0.0
Co210 Co 0.99078 0.8655 -0.00182 0.0
O211 O 0.02496 0.85364 -0.00347 0.0
O212 O 0.00428 0.86302 0.03167 0.0
C213 C 0.99306 0.89475 0.96764 0.0
O214 O 0.95622 0.87923 0.0075 0.0
Co215 Co 0.95424 0.859 0.95284 0.0
O216 O 0.93109 0.87975 0.97333 0.0
C217 C 0.96945 0.81485 0.98273 0.0
C218 C 0.0248 0.85508 0.02096 0.0
C219 C 0.93547 0.88492 -0.00366 0.0
O220 O 0.97884 0.82937 -0.0003 0.0
O221 O 0.96086 0.82306 0.96175 0.0
O222 O 0.00131 0.89978 0.99013 0.0
O223 O 0.98664 0.87165 0.9638 0.0
Co224 Co 0.24525 0.37976 0.19505 0.0
O225 O 0.25715 0.40315 0.16984 0.0
O226 O 0.22265 0.37991 0.16682 0.0
C227 C 0.28264 0.36117 0.20252 0.0
O228 O 0.2272 0.35287 0.21571 0.0
Co229 Co 0.26417 0.3788 0.2503 0.0
O230 O 0.25068 0.34404 0.24978 0.0
C231 C 0.22836 0.41839 0.23369 0.0
C232 C 0.2377 0.39628 0.15667 0.0
C233 C 0.23319 0.33861 0.23436 0.0
O234 O 0.22588 0.40777 0.21203 0.0
O235 O 0.24342 0.41036 0.25077 0.0
O236 O 0.26915 0.35431 0.18328 0.0
O237 O 0.27404 0.38 0.21521 0.0
Co238 Co 0.74088 0.12434 0.7616 0.0
O239 O 0.73679 0.12109 0.79752 0.0
O240 O 0.70567 0.1229 0.7697 0.0
C241 C 0.76934 0.15531 0.76257 0.0
O242 O 0.737 0.12952 0.72399 0.0
Co243 Co 0.79157 0.11447 0.73423 0.0
O244 O 0.77531 0.1342 0.70686 0.0
C245 C 0.76177 0.07197 0.75386 0.0
C246 C 0.71271 0.12163 0.7931 0.0
C247 C 0.75144 0.13668 0.70597 0.0
O248 O 0.74275 0.0865 0.75782 0.0
O249 O 0.78339 0.07989 0.74679 0.0
O250 O 0.74554 0.16048 0.76492 0.0
O251 O 0.77534 0.13177 0.76197 0.0
Co252 Co 0.1904 0.49041 -6e-05 0.0
O253 O 0.21718 0.49467 0.02441 0.0
O254 O 0.19829 0.45873 0.01511 0.0
C255 C 0.16756 0.52399 0.01253 0.0
O256 O 0.16174 0.47736 0.97836 0.0
Co257 Co 0.17292 0.52837 0.95944 0.0
O258 O 0.14056 0.50966 0.96149 0.0
C259 C 0.21961 0.49792 0.95168 0.0
C260 C 0.21427 0.47078 0.02906 0.0
C261 C 0.14184 0.48677 0.96838 0.0
O262 O 0.21553 0.485 0.97187 0.0
O263 O 0.20555 0.51629 0.94468 0.0
O264 O 0.16603 0.50281 0.02472 0.0
O265 O 0.18342 0.52443 0.99417 0.0
Co266 Co 0.74271 0.87781 0.30015 0.0
O267 O 0.72967 0.90161 0.3243 0.0
O268 O 0.76378 0.87804 0.32966 0.0
C269 C 0.70565 0.85997 0.29013 0.0
O270 O 0.76187 0.85098 0.28054 0.0
Co271 Co 0.72704 0.8773 0.24372 0.0
O272 O 0.74097 0.84268 0.24474 0.0
C273 C 0.76045 0.91734 0.26329 0.0
C274 C 0.74879 0.89537 0.33829 0.0
C275 C 0.75744 0.83711 0.26125 0.0
O276 O 0.76296 0.90568 0.28441 0.0
O277 O 0.74611 0.90974 0.24547 0.0
O278 O 0.71773 0.85247 0.31015 0.0
O279 O 0.71543 0.87866 0.27825 0.0
Co280 Co 0.79472 0.00263 0.02624 0.0
O281 O 0.77429 0.00043 0.05603 0.0
O282 O 0.79341 0.03503 0.04274 0.0
C283 C 0.81776 0.96753 0.03328 0.0
O284 O 0.81774 0.01188 -0.00312 0.0
Co285 Co 0.79272 0.95979 0.98585 0.0
O286 O 0.8199 0.9794 0.96968 0.0
C287 C 0.75275 -0.00123 0.9873 0.0
C288 C 0.77953 0.02398 0.05962 0.0
C289 C 0.82621 0.00143 0.97671 0.0
O290 O 0.76409 0.0109 0.005 0.0
O291 O 0.76021 0.97742 0.979 0.0
O292 O 0.8237 0.9885 0.04432 0.0
O293 O 0.79694 0.96795 0.02085 0.0
Co294 Co 0.25052 0.57524 0.73796 0.0
O295 O 0.25046 0.55941 0.70559 0.0
O296 O 0.28416 0.5755 0.72446 0.0
C297 C 0.21652 0.59986 0.73197 0.0
O298 O 0.2577 0.59374 0.77058 0.0
Co299 Co 0.20575 0.56738 0.77494 0.0
O300 O 0.22377 0.5922 0.796 0.0
C301 C 0.2428 0.52667 0.76756 0.0
C302 C 0.27445 0.56411 0.70511 0.0
C303 C 0.24596 0.59969 0.79088 0.0
O304 O 0.25676 0.54149 0.75443 0.0
O305 O 0.22095 0.5329 0.77564 0.0
O306 O 0.23835 0.60675 0.72336 0.0
O307 O 0.21555 0.57742 0.74128 0.0
Co308 Co 0.14421 0.51561 0.47959 0.0
O309 O 0.16553 0.51452 0.45041 0.0
O310 O 0.14012 0.54616 0.4602 0.0
C311 C 0.12872 0.47646 0.47578 0.0
O312 O 0.11865 0.52276 0.50754 0.0
Co313 Co 0.15418 0.47891 0.52446 0.0
O314 O 0.1218 0.49214 0.53686 0.0
C315 C 0.18703 0.52288 0.51709 0.0
C316 C 0.15659 0.53656 0.44479 0.0
C317 C 0.11113 0.5116 0.52773 0.0
O318 O 0.17265 0.53117 0.4994 0.0
O319 O 0.18369 0.50182 0.52828 0.0
O320 O 0.1191 0.49481 0.4627 0.0
O321 O 0.14864 0.48192 0.48856 0.0
Co322 Co 0.41484 0.47321 0.89974 0.0
O323 O 0.40901 0.4636 0.86539 0.0
O324 O 0.41682 0.43712 0.89679 0.0
C325 C 0.44108 0.50561 0.89218 0.0
O326 O 0.4226 0.47607 0.93702 0.0
Co327 Co 0.3981 0.52602 0.91888 0.0
O328 O 0.41363 0.515 0.95116 0.0
C329 C 0.36019 0.48717 0.90917 0.0
C330 C 0.4113 0.44052 0.87315 0.0
C331 C 0.4219 0.4927 0.95456 0.0
O332 O 0.3776 0.47041 0.90729 0.0
O333 O 0.36465 0.51077 0.91063 0.0
O334 O 0.44985 0.48271 0.89237 0.0
O335 O 0.41698 0.50763 0.89377 0.0
Co336 Co 0.74209 0.76048 0.92642 0.0
O337 O 0.71216 0.76166 0.94719 0.0
O338 O 0.7306 0.72701 0.93299 0.0
C339 C 0.73106 0.79041 0.89845 0.0
O340 O 0.77096 0.75059 0.90359 0.0
Co341 Co 0.77905 0.80519 0.91913 0.0
O342 O 0.79472 0.78384 0.89281 0.0
C343 C 0.77886 0.77695 0.96692 0.0
C344 C 0.71211 0.73722 0.94527 0.0
C345 C 0.78872 0.76075 0.89077 0.0
O346 O 0.76445 0.75998 0.95729 0.0
O347 O 0.78475 0.7973 0.95547 0.0
O348 O 0.72198 0.76779 0.89646 0.0
O349 O 0.74406 0.79472 0.91852 0.0
Co350 Co 0.50634 0.4574 0.11715 0.0
O351 O 0.51164 0.42448 0.13163 0.0
O352 O 0.53997 0.45513 0.13007 0.0
C353 C 0.48728 0.44646 0.08109 0.0
O354 O 0.50879 0.49281 0.10317 0.0
Co355 Co 0.45275 0.47925 0.10995 0.0
O356 O 0.4704 0.50756 0.09308 0.0
C357 C 0.47379 0.47688 0.16061 0.0
C358 C 0.53406 0.43256 0.13731 0.0
C359 C 0.49429 0.50971 0.09363 0.0
O360 O 0.49492 0.47044 0.15078 0.0
O361 O 0.45357 0.47929 0.14773 0.0
O362 O 0.51159 0.44439 0.08334 0.0
O363 O 0.47518 0.45136 0.1017 0.0
Co364 Co 0.84195 0.286 0.36002 0.0
O365 O 0.87085 0.27335 0.37704 0.0
O366 O 0.86738 0.31233 0.36277 0.0
C367 C 0.83777 0.25204 0.33526 0.0
O368 O 0.81395 0.30446 0.34077 0.0
Co369 Co 0.79206 0.25523 0.36515 0.0
O370 O 0.78199 0.27676 0.33658 0.0
C371 C 0.80826 0.28874 0.4064 0.0
C372 C 0.8807 0.29545 0.37475 0.0
C373 C 0.79259 0.29761 0.33142 0.0
O374 O 0.82715 0.29651 0.39341 0.0
O375 O 0.79298 0.2717 0.39896 0.0
O376 O 0.85291 0.27001 0.32849 0.0
O377 O 0.82739 0.25456 0.35699 0.0
Co378 Co 0.97909 0.49989 0.65642 0.0
O379 O 0.96913 0.52887 0.67532 0.0
O380 O 0.94264 0.50156 0.658 0.0
C381 C 0.00854 0.51918 0.63271 0.0
O382 O 0.98287 0.46832 0.63489 0.0
Co383 Co 0.03428 0.48002 0.66103 0.0
O384 O 0.02378 0.4567 0.63407 0.0
C385 C -0.00184 0.47093 0.7022 0.0
C386 C 0.94614 0.52171 0.67143 0.0
C387 C 0.00097 0.45417 0.62705 0.0
O388 O 0.97995 0.47959 0.68869 0.0
O389 O 0.02121 0.47132 0.69519 0.0
O390 O 0.98495 0.52039 0.62617 0.0
O391 O 0.01293 0.50871 0.65416 0.0
Co392 Co 0.71875 0.2727 0.57952 0.0
O393 O 0.69494 0.2642 0.55349 0.0
O394 O 0.69265 0.29792 0.57791 0.0
C395 C 0.72177 0.23427 0.59713 0.0
O396 O 0.73868 0.2874 0.60892 0.0
Co397 Co 0.77226 0.24856 0.58182 0.0
O398 O 0.77319 0.2636 0.61581 0.0
C399 C 0.76034 0.28638 0.54287 0.0
C400 C 0.68317 0.28479 0.55958 0.0
C401 C 0.75791 0.28092 0.6222 0.0
O402 O 0.73934 0.29156 0.55381 0.0
O403 O 0.7752 0.26885 0.55022 0.0
O404 O 0.70298 0.24898 0.60278 0.0
O405 O 0.73638 0.24226 0.57946 0.0
Co406 Co 0.98993 0.42951 0.89655 0.0
O407 O 0.97557 0.39676 0.89104 0.0
O408 O 0.95411 0.43258 0.89351 0.0
C409 C 0.01696 0.42055 0.92783 0.0
O410 O -0.0029 0.46621 0.9034 0.0
Co411 Co 0.04628 0.44108 0.88694 0.0
O412 O 0.03877 0.47367 0.90379 0.0
C413 C 0.01266 0.43172 0.84427 0.0
C414 C 0.95404 0.40846 0.88959 0.0
C415 C 0.01609 0.48042 0.90786 0.0
O416 O 0.9935 0.43421 0.85888 0.0
O417 O 0.03535 0.43111 0.85236 0.0
O418 O 0.99312 0.42361 0.93276 0.0
O419 O 0.0226 0.4192 0.90424 0.0
Co420 Co 0.81823 0.70662 0.15345 0.0
O421 O 0.85325 0.69837 0.15059 0.0
O422 O 0.82174 0.67267 0.14112 0.0
C423 C 0.81935 0.72497 0.19149 0.0
O424 O 0.78009 0.70842 0.15488 0.0
Co425 Co 0.8019 0.7628 0.15575 0.0
O426 O 0.76761 0.74861 0.16023 0.0
C427 C 0.81571 0.74074 0.1071 0.0
C428 C 0.84589 0.67678 0.14189 0.0
C429 C 0.76288 0.7252 0.15802 0.0
O430 O 0.8176 0.719 0.11756 0.0
O431 O 0.81203 0.76102 0.11953 0.0
O432 O 0.81851 0.70057 0.18978 0.0
O433 O 0.82285 0.73686 0.17061 0.0
Co434 Co 0.48321 0.55457 0.33913 0.0
O435 O 0.4835 0.58357 0.31771 0.0
O436 O 0.51662 0.55916 0.32591 0.0
C437 C 0.46206 0.57194 0.3712 0.0
O438 O 0.49029 0.52376 0.36064 0.0
Co439 Co 0.43265 0.52895 0.35256 0.0
O440 O 0.45393 0.50578 0.37291 0.0
C441 C 0.45292 0.52381 0.30162 0.0
C442 C 0.50721 0.57858 0.3143 0.0
C443 C 0.4779 0.5069 0.37274 0.0
O444 O 0.47386 0.53306 0.30947 0.0
O445 O 0.43305 0.52291 0.31521 0.0
O446 O 0.48618 0.57542 0.36909 0.0
O447 O 0.45128 0.56041 0.35268 0.0
Co448 Co 0.86319 0.67057 0.7449 0.0
O449 O 0.87418 0.63624 0.74832 0.0
O450 O 0.85743 0.65281 0.71382 0.0
C451 C 0.84275 0.67395 0.78195 0.0
O452 O 0.8484 0.70441 0.73435 0.0
Co453 Co 0.88068 0.71253 0.78214 0.0
O454 O 0.85567 0.7335 0.7643 0.0
C455 C 0.91567 0.69324 0.74378 0.0
C456 C 0.86747 0.63343 0.72495 0.0
C457 C 0.84554 0.72655 0.74372 0.0
O458 O 0.89818 0.68029 0.73315 0.0
O459 O 0.91275 0.70559 0.76418 0.0
O460 O 0.83167 0.6633 0.76286 0.0
O461 O 0.86612 0.67939 0.77866 0.0
Co462 Co 0.54406 0.6551 0.98404 0.0
O463 O 0.56487 0.68019 -3e-05 0.0
O464 O 0.57457 0.65936 0.96508 0.0
C465 C 0.53401 0.63278 0.01846 0.0
O466 O 0.52827 0.62738 0.96269 0.0
Co467 Co 0.4869 0.65163 -0.00353 0.0
O468 O 0.4885 0.62066 0.97595 0.0
C469 C 0.50549 0.69338 0.96536 0.0
C470 C 0.58074 0.67608 0.98182 0.0
C471 C 0.50745 0.61503 0.96239 0.0
O472 O 0.52708 0.68246 0.96383 0.0
O473 O 0.48749 0.68506 0.97903 0.0
O474 O 0.55565 0.62947 0.00749 0.0
O475 O 0.52076 0.65152 0.01024 0.0
Co476 Co 0.63016 0.31633 0.25566 0.0
O477 O 0.61346 0.34755 0.24788 0.0
O478 O 0.61768 0.31527 0.22167 0.0
C479 C 0.66463 0.33247 0.27431 0.0
O480 O 0.64707 0.28216 0.2559 0.0
Co481 Co 0.63956 0.29927 0.3106 0.0
O482 O 0.65869 0.27104 0.29509 0.0
C483 C 0.58858 0.29557 0.28969 0.0
C484 C 0.60917 0.33782 0.22585 0.0
C485 C 0.65807 0.26719 0.27142 0.0
O486 O 0.59746 0.30138 0.26792 0.0
O487 O 0.60187 0.29591 0.3098 0.0
O488 O 0.66307 0.3316 0.24988 0.0
O489 O 0.64437 0.32635 0.28635 0.0
Co490 Co 0.02144 0.31567 0.50094 0.0
O491 O 0.99093 0.29767 0.49379 0.0
O492 O 0.01474 0.3169 0.46528 0.0
C493 C 0.00695 0.33822 0.53377 0.0
O494 O 0.05306 0.33722 0.50096 0.0
Co495 Co 0.05023 0.30936 0.55155 0.0
O496 O 0.06948 0.33898 0.53997 0.0
C497 C 0.05178 0.26875 0.51376 0.0
C498 C 0.99463 0.30403 0.47045 0.0
C499 C 0.06855 0.34637 0.51717 0.0
O500 O 0.04123 0.28322 0.49734 0.0
O501 O 0.05524 0.2752 0.53671 0.0
O502 O 0.00214 0.3453 0.51084 0.0
O503 O 0.01789 0.31657 0.53604 0.0
Co504 Co 0.8687 0.31556 0.75648 0.0
O505 O 0.87684 0.34481 0.7759 0.0
O506 O 0.87015 0.30659 0.79155 0.0
C507 C 0.8396 0.33299 0.73104 0.0
O508 O 0.85875 0.28145 0.743 0.0
Co509 Co 0.8789 0.31232 0.69915 0.0
O510 O 0.85461 0.28378 0.70096 0.0
C511 C 0.9212 0.30708 0.73474 0.0
C512 C 0.87603 0.32999 0.79538 0.0
C513 C 0.851 0.27261 0.72189 0.0
O514 O 0.90553 0.3069 0.75316 0.0
O515 O 0.91458 0.31099 0.71186 0.0
O516 O 0.83355 0.32611 0.75376 0.0
O517 O 0.86335 0.33198 0.7258 0.0
Co518 Co 0.98974 0.61897 0.03379 0.0
O519 O 0.9549 0.62552 0.04113 0.0
O520 O 0.9856 0.62384 0.06948 0.0
C521 C 0.98374 0.58646 0.00759 0.0
O522 O 0.02722 0.61073 0.03376 0.0
Co523 Co 0.01062 0.62563 0.97942 0.0
O524 O 0.04138 0.61015 0.99378 0.0
C525 C 0.99471 0.66954 0.00869 0.0
C526 C 0.96182 0.62701 0.06454 0.0
C527 C 0.04443 0.60631 0.01728 0.0
O528 O -0.00432 0.6563 0.02897 0.0
O529 O -0.00267 0.66008 0.98671 0.0
O530 O 0.98285 0.58298 0.03181 0.0
O531 O 0.98533 0.60955 0.00023 0.0
Co532 Co 0.58571 0.71589 0.2097 0.0
O533 O 0.56613 0.68637 0.2021 0.0
O534 O 0.57641 0.69972 0.24046 0.0
C535 C 0.61738 0.71001 0.18249 0.0
O536 O 0.60607 0.74423 0.22511 0.0
Co537 Co 0.59166 0.75809 0.16993 0.0
O538 O 0.61424 0.77338 0.19549 0.0
C539 C 0.54325 0.75194 0.19517 0.0
C540 C 0.56533 0.68316 0.22636 0.0
C541 C 0.61658 0.76471 0.21777 0.0
O542 O 0.55401 0.7367 0.2106 0.0
O543 O 0.55429 0.76082 0.17569 0.0
O544 O 0.61668 0.69772 0.20361 0.0
O545 O 0.59714 0.72254 0.17686 0.0
Co546 Co 0.52749 0.36169 0.47644 0.0
O547 O 0.5589 0.34357 0.47494 0.0
O548 O 0.54314 0.36142 0.50921 0.0
C549 C 0.53182 0.38584 0.44182 0.0
O550 O 0.49647 0.38259 0.48506 0.0
Co551 Co 0.48729 0.35504 0.43412 0.0
O552 O 0.47068 0.38346 0.45136 0.0
C553 C 0.49157 0.31678 0.47394 0.0
C554 C 0.5611 0.34841 0.49881 0.0
C555 C 0.47675 0.39066 0.47341 0.0
O556 O 0.50909 0.32947 0.48479 0.0
O557 O 0.48134 0.32318 0.4531 0.0
O558 O 0.54308 0.39196 0.46267 0.0
O559 O 0.52186 0.36367 0.44165 0.0
Co560 Co 0.73562 0.87454 0.71223 0.0
O561 O 0.72968 0.88539 0.67823 0.0
O562 O 0.69995 0.87702 0.70643 0.0
C563 C 0.76526 0.84542 0.70378 0.0
O564 O 0.73418 0.86151 0.74822 0.0
Co565 Co 0.78789 0.8817 0.7378 0.0
O566 O 0.7731 0.86119 0.76514 0.0
C567 C 0.75375 0.92518 0.73249 0.0
C568 C 0.70589 0.88414 0.68379 0.0
C569 C 0.74967 0.85612 0.76605 0.0
O570 O 0.73619 0.91078 0.72405 0.0
O571 O 0.77609 0.9174 0.7372 0.0
O572 O 0.74154 0.84008 0.7008 0.0
O573 O 0.77013 0.86866 0.70879 0.0
Co574 Co 0.22218 0.60412 0.27749 0.0
O575 O 0.23444 0.58246 0.30408 0.0
O576 O 0.19696 0.60094 0.30318 0.0
C577 C 0.25705 0.62792 0.27311 0.0
O578 O 0.20279 0.62851 0.25508 0.0
Co579 Co 0.24616 0.60676 0.22418 0.0
O580 O 0.22647 0.63828 0.22138 0.0
C581 C 0.21497 0.563 0.23826 0.0
C582 C 0.21284 0.5865 0.31494 0.0
C583 C 0.2077 0.64215 0.23574 0.0
O584 O 0.20859 0.57369 0.25909 0.0
O585 O 0.23063 0.57257 0.22266 0.0
O586 O 0.24114 0.63255 0.29115 0.0
O587 O 0.25259 0.60792 0.26011 0.0
Co588 Co 0.59215 0.9879 0.57722 0.0
O589 O 0.59973 0.98178 0.61205 0.0
O590 O 0.60195 0.95332 0.58149 0.0
C591 C 0.55636 0.00983 0.58256 0.0
O592 O 0.58469 0.98668 0.53983 0.0
Co593 Co 0.59168 0.04219 0.55576 0.0
O594 O 0.58035 0.0258 0.52409 0.0
C595 C 0.64006 0.01769 0.56618 0.0
C596 C 0.60507 0.95896 0.60511 0.0
C597 C 0.57982 0.00194 0.5217 0.0
O598 O 0.62847 -0.00312 0.57039 0.0
O599 O 0.62864 0.03861 0.56256 0.0
O600 O 0.55602 0.98538 0.58352 0.0
O601 O 0.57839 0.01999 0.58157 0.0
Co602 Co 0.28656 0.33339 0.78946 0.0
O603 O 0.30205 0.33642 0.82202 0.0
O604 O 0.32131 0.34304 0.78555 0.0
C605 C 0.26598 0.29697 0.79529 0.0
O606 O 0.27741 0.33061 0.75245 0.0
Co607 Co 0.22835 0.33471 0.78368 0.0
O608 O 0.23564 0.32455 0.7484 0.0
C609 C 0.2554 0.38111 0.79549 0.0
C610 C 0.32233 0.34298 0.81002 0.0
C611 C 0.25781 0.32536 0.73921 0.0
O612 O 0.27643 0.37013 0.79043 0.0
O613 O 0.23438 0.36945 0.79664 0.0
O614 O 0.28992 0.29668 0.78995 0.0
O615 O 0.25668 0.3188 0.80041 0.0
Co616 Co 0.37713 0.53352 0.54833 0.0
O617 O 0.36052 0.52182 0.57784 0.0
O618 O 0.37529 0.56054 0.57273 0.0
C619 C 0.40221 0.49972 0.5436 0.0
O620 O 0.39584 0.55149 0.52004 0.0
Co621 Co 0.37085 0.50232 0.4988 0.0
O622 O 0.39916 0.52374 0.48805 0.0
C623 C 0.33005 0.53617 0.51536 0.0
C624 C 0.36327 0.54435 0.58669 0.0
C625 C 0.40465 0.54454 0.49857 0.0
O626 O 0.3435 0.54402 0.5339 0.0
O627 O 0.33708 0.51892 0.5001 0.0
O628 O 0.40881 0.51758 0.55895 0.0
O629 O 0.38008 0.50192 0.53391 0.0
Co630 Co 0.75274 0.108 0.23002 0.0
O631 O 0.73999 0.09092 0.20072 0.0
O632 O 0.77943 0.10357 0.20578 0.0
C633 C 0.72176 0.13662 0.23438 0.0
O634 O 0.77246 0.12706 0.25675 0.0
Co635 Co 0.72259 0.10639 0.2805 0.0
O636 O 0.74837 0.13067 0.29154 0.0
C637 C 0.75302 0.0626 0.2656 0.0
C638 C 0.76262 0.0928 0.19163 0.0
C639 C 0.76831 0.13539 0.2791 0.0
O640 O 0.76125 0.07461 0.24622 0.0
O641 O 0.73643 0.07145 0.28065 0.0
O642 O 0.7395 0.13998 0.21787 0.0
O643 O 0.72145 0.11474 0.24503 0.0
Co644 Co 0.5826 0.06114 0.90429 0.0
O645 O 0.59183 0.06985 0.8707 0.0
O646 O 0.59541 0.09519 0.90378 0.0
C647 C 0.54579 0.04252 0.89495 0.0
O648 O 0.57392 0.05832 0.94138 0.0
Co649 Co 0.57764 0.00425 0.91774 0.0
O650 O 0.568 0.01745 0.9514 0.0
C651 C 0.62762 0.02645 0.91242 0.0
C652 C 0.59892 0.09129 0.87983 0.0
C653 C 0.56853 0.04074 0.95712 0.0
O654 O 0.6178 0.04857 0.91152 0.0
O655 O 0.61473 0.00618 0.91165 0.0
O656 O 0.5467 0.06689 0.89712 0.0
O657 O 0.56719 0.03116 0.89555 0.0
Co658 Co 0.826 0.97917 0.49233 0.0
O659 O 0.80776 0.98036 0.46087 0.0
O660 O 0.81713 0.94561 0.48205 0.0
C661 C 0.85767 0.00551 0.48203 0.0
O662 O 0.84531 0.96988 0.52416 0.0
Co663 Co 0.83197 0.02693 0.52571 0.0
O664 O 0.85404 0.00497 0.54628 0.0
C665 C 0.78307 0.00117 0.52368 0.0
C666 C 0.80688 0.95596 0.46236 0.0
C667 C 0.85584 0.98135 0.54266 0.0
O668 O 0.79325 0.98272 0.51163 0.0
O669 O 0.79488 0.02146 0.52893 0.0
O670 O 0.8581 0.98222 0.4746 0.0
O671 O 0.83693 0.01272 0.49253 0.0
H672 H 0.20922 0.21845 0.49867 0.0
H673 H 0.18494 0.29608 0.49708 0.0
H674 H 0.17429 0.29223 0.45265 0.0
H675 H 0.17483 0.26797 0.41363 0.0
H676 H 0.19894 0.1903 0.41486 0.0
H677 H 0.20621 0.19298 0.46016 0.0
C678 C 0.20151 0.23451 0.48864 0.0
C679 C 0.19822 0.25761 0.50116 0.0
C680 C 0.19534 0.23218 0.46304 0.0
C681 C 0.18781 0.27809 0.48794 0.0
C682 C 0.18172 0.27594 0.46249 0.0
C683 C 0.18144 0.25151 0.4238 0.0
C684 C 0.18666 0.22909 0.41075 0.0
C685 C 0.18583 0.25323 0.44976 0.0
C686 C 0.19484 0.20786 0.42436 0.0
C687 C 0.19916 0.2094 0.45027 0.0
H688 H 0.95786 0.03162 0.70342 0.0
H689 H 0.01513 0.97885 0.72719 0.0
H690 H 0.01234 -0.00483 0.77024 0.0
H691 H 0.98915 0.02043 0.80211 0.0
H692 H 0.92886 0.0692 0.77785 0.0
H693 H 0.93731 0.05852 0.73393 0.0
C694 C 0.97003 0.02376 0.71786 0.0
C695 C 0.98642 0.00371 0.71206 0.0
C696 C 0.96756 0.03245 0.74258 0.0
C697 C 0.00225 0.99419 0.73107 0.0
C698 C 0.00054 0.00342 0.75575 0.0
C699 C 0.97834 0.02906 0.78706 0.0
C700 C 0.95847 0.04558 0.79294 0.0
C701 C 0.98262 0.02194 0.76189 0.0
C702 C 0.94421 0.05644 0.77355 0.0
C703 C 0.949 0.05029 0.74852 0.0
H704 H 0.24348 0.75761 0.97254 0.0
H705 H 0.2852 0.69084 0.99262 0.0
H706 H 0.26888 0.69299 0.03553 0.0
H707 H 0.23927 0.71076 0.06546 0.0
H708 H 0.19476 0.77584 0.0451 0.0
H709 H 0.21571 0.77751 0.00415 0.0
C710 C 0.24942 0.74398 0.98658 0.0
C711 C 0.26545 0.72412 0.97967 0.0
C712 C 0.23912 0.74475 0.01092 0.0
C713 C 0.27281 0.70625 -0.00229 0.0
C714 C 0.2634 0.7074 0.02213 0.0
C715 C 0.23416 0.72545 0.0522 0.0
C716 C 0.21517 0.74289 0.05825 0.0
C717 C 0.24589 0.72604 0.02865 0.0
C718 C 0.20915 0.76199 0.04087 0.0
C719 C 0.22112 0.76298 0.01744 0.0
H720 H 0.56831 0.97544 0.29137 0.0
H721 H 0.48733 0.96847 0.28847 0.0
H722 H 0.48763 0.9807 0.24413 0.0
H723 H 0.51068 -0.00499 0.20673 0.0
H724 H 0.59175 0.00062 0.20925 0.0
H725 H 0.59157 0.98729 0.2533 0.0
C726 C 0.55071 0.9765 0.28104 0.0
C727 C 0.52781 0.97127 0.29331 0.0
C728 C 0.55101 0.98343 0.25555 0.0
C729 C 0.50523 0.97239 0.27951 0.0
C730 C 0.50536 0.9795 0.25418 0.0
C731 C 0.52832 0.99334 0.21692 0.0
C732 C 0.55118 -0.00095 0.2048 0.0
C733 C 0.52811 0.98537 0.24211 0.0
C734 C 0.5739 -0.00363 0.21814 0.0
C735 C 0.57381 0.98879 0.24334 0.0
H736 H 0.55957 0.27717 0.25187 0.0
H737 H 0.55833 0.2938 0.33139 0.0
H738 H 0.5153 0.2778 0.33431 0.0
H739 H 0.4782 0.25863 0.31436 0.0
H740 H 0.48041 0.24055 0.2351 0.0
H741 H 0.52291 0.25744 0.23214 0.0
C742 C 0.54984 0.27749 0.26982 0.0
C743 C 0.56214 0.28681 0.29134 0.0
C744 C 0.52531 0.26782 0.27148 0.0
C745 C 0.54934 0.28673 0.31452 0.0
C746 C 0.52473 0.27756 0.31622 0.0
C747 C 0.48795 0.25836 0.29643 0.0
C748 C 0.47599 0.24833 0.275 0.0
C749 C 0.51256 0.26795 0.29484 0.0
C750 C 0.48908 0.24804 0.25196 0.0
C751 C 0.51341 0.25779 0.25019 0.0
H752 H 0.03463 0.24063 0.47403 0.0
H753 H 0.08459 0.23802 0.53823 0.0
H754 H 0.08996 0.19294 0.53287 0.0
H755 H 0.07615 0.15363 0.51378 0.0
H756 H 0.02651 0.15502 0.44957 0.0
H757 H 0.0256 0.20118 0.45085 0.0
C758 C 0.04713 0.23028 0.48647 0.0
C759 C 0.05875 0.24265 0.50683 0.0
C760 C 0.04994 0.20409 0.4835 0.0
C761 C 0.075 0.22895 0.5227 0.0
C762 C 0.0781 0.20312 0.51969 0.0
C763 C 0.06539 0.16408 0.49986 0.0
C764 C 0.05104 0.15106 0.48193 0.0
C765 C 0.06491 0.19039 0.5008 0.0
C766 C 0.03761 0.16472 0.46364 0.0
C767 C 0.03699 0.19107 0.46447 0.0
H768 H 0.02952 0.68787 0.75382 0.0
H769 H 0.02148 0.7666 0.7357 0.0
H770 H 0.97802 0.75949 0.7222 0.0
H771 H 0.94044 0.73262 0.7246 0.0
H772 H 0.94826 0.65414 0.74322 0.0
H773 H 0.99398 0.65901 0.74652 0.0
C774 C 0.01835 0.70331 0.74637 0.0
C775 C 0.02825 0.72781 0.74633 0.0
C776 C 0.99347 0.69905 0.73866 0.0
C777 C 0.01403 0.74764 0.73613 0.0
C778 C 0.9892 0.74358 0.72848 0.0
C779 C 0.95239 0.71638 0.72807 0.0
C780 C 0.94129 0.69311 0.73371 0.0
C781 C 0.97842 0.71961 0.73082 0.0
C782 C 0.95662 0.67214 0.73852 0.0
C783 C 0.98266 0.67506 0.74087 0.0
H784 H 0.47455 0.80328 0.93808 0.0
H785 H 0.55539 0.81115 0.93504 0.0
H786 H 0.56025 0.76546 0.93668 0.0
H787 H 0.54193 0.72465 0.94774 0.0
H788 H 0.46123 0.71767 0.95509 0.0
H789 H 0.45593 0.7616 0.94284 0.0
C790 C 0.49322 0.79501 0.93687 0.0
C791 C 0.5146 0.81058 0.93678 0.0
C792 C 0.49591 0.76886 0.93922 0.0
C793 C 0.53864 0.79954 0.93534 0.0
C794 C 0.54144 0.77343 0.93649 0.0
C795 C 0.52313 0.73252 0.94604 0.0
C796 C 0.50204 0.71802 0.95279 0.0
C797 C 0.52026 0.75805 0.93984 0.0
C798 C 0.47782 0.72854 0.95041 0.0
C799 C 0.47476 0.75367 0.9434 0.0
H800 H 0.50734 0.76816 0.16204 0.0
H801 H 0.5203 0.75279 0.24084 0.0
H802 H 0.47681 0.76385 0.25046 0.0
H803 H 0.43479 0.77621 0.23653 0.0
H804 H 0.42047 0.7892 0.15756 0.0
H805 H 0.46479 0.78085 0.14801 0.0
C806 C 0.50066 0.76743 0.18132 0.0
C807 C 0.51704 0.75966 0.20068 0.0
C808 C 0.47538 0.7733 0.1867 0.0
C809 C 0.50805 0.75855 0.22555 0.0
C810 C 0.48318 0.76492 0.2311 0.0
C811 C 0.44135 0.77744 0.21722 0.0
C812 C 0.42432 0.78336 0.19781 0.0
C813 C 0.46664 0.77207 0.21182 0.0
C814 C 0.43316 0.7846 0.17287 0.0
C815 C 0.45851 0.77983 0.1674 0.0
H816 H 0.5202 0.28075 0.49611 0.0
H817 H 0.44361 0.3 0.47702 0.0
H818 H 0.42968 0.25782 0.48873 0.0
H819 H 0.4406 0.21373 0.49627 0.0
H820 H 0.51801 0.19298 0.50913 0.0
H821 H 0.53031 0.23734 0.50891 0.0
C822 C 0.50041 0.2758 0.49518 0.0
C823 C 0.48296 0.29315 0.48548 0.0
C824 C 0.49275 0.25114 0.50078 0.0
C825 C 0.45737 0.28667 0.48413 0.0
C826 C 0.4494 0.26261 0.49084 0.0
C827 C 0.45996 0.21907 0.50004 0.0
C828 C 0.47841 0.20035 0.50276 0.0
C829 C 0.46709 0.24438 0.49807 0.0
C830 C 0.50355 0.20726 0.50709 0.0
C831 C 0.5106 0.23256 0.50668 0.0
H832 H 0.96212 0.31957 0.70688 0.0
H833 H 0.94002 0.2797 0.77411 0.0
H834 H 0.98291 0.26359 0.77908 0.0
H835 H 0.02541 0.25708 0.76151 0.0
H836 H 0.04714 0.29784 0.69449 0.0
H837 H 0.00586 0.31752 0.69258 0.0
C838 C 0.96676 0.30758 0.72278 0.0
C839 C 0.94783 0.3005 0.73982 0.0
C840 C 0.9914 0.2984 0.72553 0.0
C841 C 0.95423 0.28534 0.76061 0.0
C842 C 0.97874 0.27603 0.76342 0.0
C843 C 0.0213 0.2706 0.74674 0.0
C844 C 0.03932 0.2755 0.72792 0.0
C845 C -0.00268 0.28187 0.74558 0.0
C846 C 0.03363 0.29331 0.70907 0.0
C847 C 0.00994 0.30461 0.70788 0.0
H848 H 0.968 0.69693 0.97588 0.0
H849 H 0.01026 0.70317 0.04487 0.0
H850 H 0.00502 0.74916 0.04397 0.0
H851 H 0.99078 0.78768 0.02146 0.0
H852 H 0.94761 0.77961 0.95285 0.0
H853 H 0.95076 0.73424 0.95589 0.0
C854 C 0.97601 0.70835 0.99079 0.0
C855 C 0.98985 0.69685 0.01016 0.0
C856 C 0.9728 0.73445 0.99018 0.0
C857 C -0.00038 0.71172 0.02969 0.0
C858 C -0.00331 0.73796 0.02911 0.0
C859 C 0.98182 0.77599 0.00735 0.0
C860 C 0.96929 0.78722 0.98676 0.0
C861 C 0.98366 0.74959 0.00915 0.0
C862 C 0.95767 0.77168 0.96875 0.0
C863 C 0.95942 0.74563 0.97042 0.0
H864 H 0.21369 0.45311 0.19907 0.0
H865 H 0.21548 0.43867 0.27901 0.0
H866 H 0.20557 0.48269 0.28751 0.0
H867 H 0.20521 0.52635 0.27242 0.0
H868 H 0.20737 0.54114 0.19259 0.0
H869 H 0.20628 0.49608 0.18384 0.0
C870 C 0.21111 0.45943 0.21832 0.0
C871 C 0.21575 0.44278 0.23837 0.0
C872 C 0.20644 0.48501 0.2231 0.0
C873 C 0.21239 0.45125 0.26323 0.0
C874 C 0.20679 0.47645 0.26813 0.0
C875 C 0.20454 0.51971 0.25312 0.0
C876 C 0.20673 0.53697 0.23319 0.0
C877 C 0.2051 0.49373 0.24825 0.0
C878 C 0.206 0.52813 0.20826 0.0
C879 C 0.20551 0.50237 0.20324 0.0
H880 H 0.72637 0.04107 0.73335 0.0
H881 H 0.79227 0.04191 0.78082 0.0
H882 H 0.79393 -0.00396 0.78032 0.0
H883 H 0.77982 0.95643 0.76269 0.0
H884 H 0.7154 0.95442 0.71317 0.0
H885 H 0.70982 -2e-05 0.71823 0.0
C886 C 0.74064 0.03105 0.74403 0.0
C887 C 0.75919 0.04464 0.75713 0.0
C888 C 0.74201 0.0046 0.74291 0.0
C889 C 0.77787 0.03168 0.77062 0.0
C890 C 0.7789 0.00552 0.77023 0.0
C891 C 0.76446 0.96587 0.75303 0.0
C892 C 0.74835 0.95212 0.7372 0.0
C893 C 0.76161 0.99189 0.75577 0.0
C894 C 0.7282 0.96461 0.72533 0.0
C895 C 0.72503 0.99066 0.72818 0.0
H896 H 0.25746 0.46352 0.9604 0.0
H897 H 0.23367 0.52157 0.90838 0.0
H898 H 0.27435 0.52026 0.88778 0.0
H899 H 0.31866 0.50787 0.88884 0.0
H900 H 0.34326 0.44969 0.9398 0.0
H901 H 0.30026 0.4454 0.95604 0.0
C902 C 0.261 0.47554 0.94428 0.0
C903 C 0.24266 0.49313 0.93655 0.0
C904 C 0.28467 0.47479 0.93234 0.0
C905 C 0.2475 0.50821 0.91525 0.0
C906 C 0.27083 0.50751 0.90334 0.0
C907 C 0.31439 0.49375 0.90299 0.0
C908 C 0.33396 0.47933 0.91335 0.0
C909 C 0.28985 0.49167 0.91238 0.0
C910 C 0.32836 0.46094 0.93151 0.0
C911 C 0.30385 0.4587 0.94099 0.0
H912 H 0.77054 0.02893 0.23135 0.0
H913 H 0.75565 0.03839 0.31066 0.0
H914 H 0.76317 0.99367 0.31786 0.0
H915 H 0.76603 0.95126 0.30048 0.0
H916 H 0.77612 0.94113 0.22057 0.0
H917 H 0.77933 0.98666 0.21481 0.0
C918 C 0.76954 0.02127 0.25027 0.0
C919 C 0.76208 0.03677 0.27035 0.0
C920 C 0.77297 -0.00464 0.25414 0.0
C921 C 0.76087 0.02667 0.29481 0.0
C922 C 0.76522 0.00113 0.29896 0.0
C923 C 0.76987 0.95898 0.28195 0.0
C924 C 0.77062 0.94299 0.26094 0.0
C925 C 0.77016 0.98514 0.2786 0.0
C926 C 0.77533 0.9532 0.23699 0.0
C927 C 0.77693 0.97921 0.23366 0.0
H928 H 0.65268 0.05098 0.94912 0.0
H929 H 0.66143 0.99468 0.89138 0.0
H930 H 0.70234 0.98264 0.90879 0.0
H931 H 0.73263 0.98465 0.94287 0.0
H932 H 0.72326 0.03862 0.00288 0.0
H933 H 0.68536 0.05512 0.98215 0.0
C934 C 0.66399 0.03663 0.93998 0.0
C935 C 0.65436 0.02381 0.91892 0.0
C936 C 0.68692 0.02901 0.95084 0.0
C937 C 0.66871 0.00484 0.90749 0.0
C938 C 0.69192 -0.00217 0.91757 0.0
C939 C 0.72239 4e-05 0.95156 0.0
C940 C 0.73051 0.01003 0.97471 0.0
C941 C 0.70069 0.00915 0.93973 0.0
C942 C 0.71726 0.03038 0.98523 0.0
C943 C 0.69563 0.03983 0.97335 0.0
H944 H 0.28452 0.41542 0.77103 0.0
H945 H 0.22361 0.40863 0.82435 0.0
H946 H 0.2161 0.45385 0.82218 0.0
H947 H 0.22342 0.49407 0.8016 0.0
H948 H 0.28271 0.50128 0.74646 0.0
H949 H 0.29441 0.45719 0.75303 0.0
C950 C 0.27002 0.42399 0.78258 0.0
C951 C 0.2545 0.40875 0.79768 0.0
C952 C 0.26524 0.44996 0.78061 0.0
C953 C 0.23563 0.41999 0.81242 0.0
C954 C 0.23127 0.44581 0.81113 0.0
C955 C 0.23903 0.48612 0.79107 0.0
C956 C 0.25187 0.50088 0.77325 0.0
C957 C 0.24537 0.46079 0.79464 0.0
C958 C 0.27235 0.49032 0.76018 0.0
C959 C 0.27903 0.46508 0.76389 0.0
H960 H 0.29609 0.54225 0.5525 0.0
H961 H 0.30589 0.54919 0.47226 0.0
H962 H 0.26032 0.55262 0.46652 0.0
H963 H 0.21833 0.54384 0.48334 0.0
H964 H 0.20902 0.5301 0.56276 0.0
H965 H 0.25344 0.53976 0.57009 0.0
C966 C 0.28819 0.54542 0.53391 0.0
C967 C 0.30406 0.54529 0.5128 0.0
C968 C 0.26197 0.54578 0.53065 0.0
C969 C 0.29382 0.54908 0.48871 0.0
C970 C 0.26781 0.55091 0.48543 0.0
C971 C 0.22587 0.54394 0.50234 0.0
C972 C 0.21067 0.53615 0.52248 0.0
C973 C 0.25171 0.54784 0.50611 0.0
C974 C 0.22057 0.53594 0.547 0.0
C975 C 0.24596 0.54128 0.55115 0.0
H976 H 0.81952 0.78239 0.07792 0.0
H977 H 0.80725 0.70222 0.07391 0.0
H978 H 0.79533 0.70609 0.02964 0.0
H979 H 0.78431 0.73299 0.99326 0.0
H980 H 0.79688 0.81314 -0.0019 0.0
H981 H 0.81251 0.80845 0.04085 0.0
C982 C 0.8146 0.76568 0.0673 0.0
C983 C 0.81394 0.74215 0.07933 0.0
C984 C 0.80736 0.76807 0.04206 0.0
C985 C 0.80788 0.72063 0.06515 0.0
C986 C 0.80082 0.72284 0.03987 0.0
C987 C 0.79051 0.74939 0.00369 0.0
C988 C 0.78909 0.77339 0.99258 0.0
C989 C 0.79973 0.74659 0.02836 0.0
C990 C 0.79763 0.79442 0.00618 0.0
C991 C 0.80662 0.7918 0.03066 0.0
H992 H 0.49239 0.50881 0.27316 0.0
H993 H 0.41139 0.51587 0.27206 0.0
H994 H 0.41049 0.50107 0.22847 0.0
H995 H 0.43302 0.48781 0.19016 0.0
H996 H 0.51407 0.48003 0.19231 0.0
H997 H 0.51449 0.49329 0.23607 0.0
C998 C 0.47451 0.50711 0.26342 0.0
C999 C 0.45203 0.51367 0.27574 0.0
C1000 C 0.47411 0.49847 0.23853 0.0
C1001 C 0.42899 0.51097 0.26297 0.0
C1002 C 0.42846 0.50256 0.23804 0.0
C1003 C 0.45076 0.4889 0.20022 0.0
C1004 C 0.47347 0.48315 0.18778 0.0
C1005 C 0.45095 0.4965 0.22554 0.0
C1006 C 0.49627 0.48443 0.20126 0.0
C1007 C 0.49659 0.49207 0.22633 0.0
H1008 H 0.76461 0.30298 0.42792 0.0
H1009 H 0.84411 0.29494 0.44236 0.0
H1010 H 0.83656 0.29868 0.48769 0.0
H1011 H 0.80636 0.29529 0.52269 0.0
H1012 H 0.7268 0.30328 0.50797 0.0
H1013 H 0.73537 0.30937 0.46325 0.0
C1014 C 0.7803 0.30281 0.44103 0.0
C1015 C 0.80476 0.2982 0.43212 0.0
C1016 C 0.77576 0.30476 0.46693 0.0
C1017 C 0.8251 0.29837 0.44898 0.0
C1018 C 0.82076 0.30032 0.47486 0.0
C1019 C 0.79099 0.29915 0.50976 0.0
C1020 C 0.76599 0.29825 0.51843 0.0
C1021 C 0.79603 0.30218 0.48403 0.0
C1022 C 0.74621 0.30374 0.5017 0.0
C1023 C 0.75108 0.30696 0.47607 0.0
H1024 H 0.0259 0.43697 0.7277 0.0
H1025 H 0.95863 0.48216 0.73367 0.0
H1026 H 0.95494 0.47099 0.77833 0.0
H1027 H 0.97459 0.45312 0.81683 0.0
H1028 H 0.04296 0.40952 0.80987 0.0
H1029 H 0.04228 0.41508 0.7644 0.0
C1030 C 0.01025 0.44418 0.73868 0.0
C1031 C 0.9929 0.46083 0.7276 0.0
C1032 C 0.00857 0.43808 0.76424 0.0
C1033 C 0.97237 0.46949 0.74187 0.0
C1034 C 0.97034 0.46321 0.76743 0.0
C1035 C 0.989 0.44442 0.80526 0.0
C1036 C 0.00906 0.43133 0.81671 0.0
C1037 C 0.98887 0.44822 0.77902 0.0
C1038 C 0.02758 0.42007 0.80152 0.0
C1039 C 0.02723 0.42323 0.77552 0.0
H1040 H 0.75483 0.03743 0.54605 0.0
H1041 H 0.75138 0.9604 0.52043 0.0
H1042 H 0.70734 0.95796 0.5337 0.0
H1043 H 0.6692 0.97853 0.55057 0.0
H1044 H 0.67281 0.05618 0.57402 0.0
H1045 H 0.71762 0.05737 0.56393 0.0
C1046 C 0.74459 0.02 0.54341 0.0
C1047 C 0.75648 -0.00084 0.53211 0.0
C1048 C 0.71929 0.01882 0.5508 0.0
C1049 C 0.74273 0.9768 0.52892 0.0
C1050 C 0.71754 0.97536 0.53657 0.0
C1051 C 0.67991 -0.00443 0.55384 0.0
C1052 C 0.66771 0.01725 0.56304 0.0
C1053 C 0.70556 -0.00365 0.5473 0.0
C1054 C 0.68174 0.03929 0.56688 0.0
C1055 C 0.70734 0.04 0.56105 0.0
H1056 H 0.24773 0.28993 0.23457 0.0
H1057 H 0.18408 0.33857 0.24761 0.0
H1058 H 0.16034 0.30331 0.26549 0.0
H1059 H 0.16055 0.26043 0.28313 0.0
H1060 H 0.22346 0.21121 0.26846 0.0
H1061 H 0.24451 0.24463 0.24487 0.0
C1062 C 0.22843 0.29251 0.24078 0.0
C1063 C 0.21758 0.31661 0.24012 0.0
C1064 C 0.21488 0.27212 0.25072 0.0
C1065 C 0.19262 0.32003 0.24802 0.0
C1066 C 0.17915 0.29995 0.2583 0.0
C1067 C 0.17844 0.25681 0.27394 0.0
C1068 C 0.19051 0.23355 0.27752 0.0
C1069 C 0.19043 0.27614 0.26053 0.0
C1070 C 0.21371 0.22893 0.26568 0.0
C1071 C 0.2259 0.24815 0.25249 0.0
H1072 H 0.91504 0.94417 0.63673 0.0
H1073 H 0.96826 0.92146 0.57987 0.0
H1074 H 0.93719 0.93097 0.54686 0.0
H1075 H 0.89728 0.95238 0.53444 0.0
H1076 H 0.84692 0.97885 0.59232 0.0
H1077 H 0.87428 0.96114 0.6248 0.0
C1078 C 0.91962 0.94072 0.61711 0.0
C1079 C 0.94382 0.9323 0.61063 0.0
C1080 C 0.90221 0.94726 0.59848 0.0
C1081 C 0.9496 0.92775 0.58525 0.0
C1082 C 0.93195 0.9335 0.56642 0.0
C1083 C 0.89215 0.95362 0.55417 0.0
C1084 C 0.87026 0.96679 0.56121 0.0
C1085 C 0.90856 0.94423 0.5728 0.0
C1086 C 0.86376 0.96877 0.58669 0.0
C1087 C 0.87939 0.95871 0.60519 0.0
H1088 H 0.2857 0.65985 0.88377 0.0
H1089 H 0.31003 0.71079 0.82537 0.0
H1090 H 0.29697 0.68038 0.79322 0.0
H1091 H 0.2744 0.64115 0.78201 0.0
H1092 H 0.24582 0.59357 0.84128 0.0
H1093 H 0.2645 0.62103 0.87297 0.0
C1094 C 0.28832 0.66435 0.86403 0.0
C1095 C 0.29851 0.68766 0.85694 0.0
C1096 C 0.27968 0.64747 0.84586 0.0
C1097 C 0.30213 0.69297 0.83128 0.0
C1098 C 0.29452 0.67567 0.81293 0.0
C1099 C 0.2726 0.63676 0.80188 0.0
C1100 C 0.25879 0.61554 0.80947 0.0
C1101 C 0.28261 0.65316 0.82002 0.0
C1102 C 0.25624 0.60999 0.83516 0.0
C1103 C 0.26695 0.6256 0.85322 0.0
H1104 H 0.59095 0.02317 -0.00095 0.0
H1105 H 0.53313 0.07392 0.97302 0.0
H1106 H 0.52074 0.08268 0.01663 0.0
H1107 H 0.5246 0.07336 0.06181 0.0
H1108 H 0.58453 0.02496 0.08797 0.0
H1109 H 0.59828 0.01813 0.04463 0.0
C1110 C 0.57578 0.03628 0.00307 0.0
C1111 C 0.56265 0.04769 0.98316 0.0
C1112 C 0.56925 0.04162 0.02808 0.0
C1113 C 0.54334 0.06495 0.98827 0.0
C1114 C 0.53628 0.0699 0.01311 0.0
C1115 C 0.54089 0.0616 0.05803 0.0
C1116 C 0.55319 0.04923 0.07798 0.0
C1117 C 0.54886 0.05802 0.03313 0.0
C1118 C 0.57454 0.03443 0.07291 0.0
C1119 C 0.58236 0.03044 0.04813 0.0
H1120 H 0.16297 0.7405 0.1916 0.0
H1121 H 0.12453 0.68607 0.14564 0.0
H1122 H 0.13698 0.65234 0.17439 0.0
H1123 H 0.16723 0.6376 0.20612 0.0
H1124 H 0.21055 0.69134 0.24834 0.0
H1125 H 0.18802 0.72614 0.22788 0.0
C1126 C 0.15641 0.7214 0.18866 0.0
C1127 C 0.14283 0.71557 0.16679 0.0
C1128 C 0.16528 0.70194 0.20424 0.0
C1129 C 0.13479 0.69082 0.16262 0.0
C1130 C 0.14224 0.67153 0.17883 0.0
C1131 C 0.17099 0.65697 0.21135 0.0
C1132 C 0.19024 0.6622 0.22857 0.0
C1133 C 0.15878 0.67669 0.19872 0.0
C1134 C 0.19556 0.68716 0.23515 0.0
C1135 C 0.18282 0.70697 0.22336 0.0
H1136 H 0.54987 0.96181 0.51312 0.0
H1137 H 0.59406 0.01848 0.4755 0.0
H1138 H 0.58263 0.00076 0.43456 0.0
H1139 H 0.55905 0.9702 0.40976 0.0
H1140 H 0.51008 0.91718 0.44683 0.0
H1141 H 0.52503 0.93182 0.4879 0.0
C1142 C 0.55708 0.97011 0.4959 0.0
C1143 C 0.57287 0.99126 0.49715 0.0
C1144 C 0.54973 0.96035 0.47249 0.0
C1145 C 0.58181 0.00222 0.47485 0.0
C1146 C 0.57537 0.99204 0.45152 0.0
C1147 C 0.55163 0.96176 0.42673 0.0
C1148 C 0.53339 0.9427 0.42522 0.0
C1149 C 0.55921 0.97123 0.45013 0.0
C1150 C 0.52414 0.93191 0.44752 0.0
C1151 C 0.53257 0.94036 0.47097 0.0
H1152 H 0.28463 0.27166 0.63735 0.0
H1153 H 0.21241 0.30231 0.61614 0.0
H1154 H 0.20886 0.32312 0.65702 0.0
H1155 H 0.22516 0.33013 0.69996 0.0
H1156 H 0.29868 0.3016 0.71987 0.0
H1157 H 0.30303 0.28272 0.67825 0.0
C1158 C 0.26825 0.28312 0.64163 0.0
C1159 C 0.24867 0.28519 0.62399 0.0
C1160 C 0.26658 0.29539 0.66493 0.0
C1161 C 0.22769 0.30036 0.6295 0.0
C1162 C 0.22561 0.3122 0.65289 0.0
C1163 C 0.24224 0.32005 0.69502 0.0
C1164 C 0.26151 0.31717 0.71294 0.0
C1165 C 0.24476 0.30948 0.67092 0.0
C1166 C 0.28365 0.30424 0.70631 0.0
C1167 C 0.28609 0.29328 0.68258 0.0
H1168 H 0.86359 0.03519 0.98801 0.0
H1169 H 0.8238 0.00074 0.92616 0.0
H1170 H 0.84969 0.02354 0.89609 0.0
H1171 H 0.88483 0.05107 0.88714 0.0
H1172 H 0.92836 0.08267 0.94789 0.0
H1173 H 0.89946 0.06384 0.97861 0.0
C1174 C 0.86061 0.03287 0.96795 0.0
C1175 C 0.842 0.01616 0.95928 0.0
C1176 C 0.87613 0.0456 0.95059 0.0
C1177 C 0.83828 0.01321 0.93326 0.0
C1178 C 0.85297 0.02633 0.91604 0.0
C1179 C 0.88803 0.05399 0.90707 0.0
C1180 C 0.90885 0.06805 0.91519 0.0
C1181 C 0.87215 0.04224 0.92447 0.0
C1182 C 0.91246 0.07188 0.94113 0.0
C1183 C 0.89604 0.06097 0.9587 0.0
H1184 H 0.35616 0.22844 0.30659 0.0
H1185 H 0.33701 0.16311 0.26259 0.0
H1186 H 0.29368 0.16504 0.27804 0.0
H1187 H 0.26048 0.18741 0.30115 0.0
H1188 H 0.27831 0.25596 0.34057 0.0
H1189 H 0.32285 0.25102 0.32956 0.0
C1190 C 0.34256 0.21454 0.30058 0.0
C1191 C 0.34969 0.19568 0.28348 0.0
C1192 C 0.31739 0.21658 0.30847 0.0
C1193 C 0.33187 0.1778 0.27576 0.0
C1194 C 0.3071 0.17896 0.28449 0.0
C1195 C 0.27422 0.20106 0.30758 0.0
C1196 C 0.26629 0.22189 0.32177 0.0
C1197 C 0.29953 0.19858 0.30041 0.0
C1198 C 0.28408 0.23977 0.3296 0.0
C1199 C 0.3095 0.23693 0.32335 0.0
H1200 H 0.98962 0.97561 0.55812 0.0
H1201 H 0.04484 0.00292 0.61089 0.0
H1202 H 0.06934 0.02105 0.57629 0.0
H1203 H 0.07211 0.03332 0.53165 0.0
H1204 H 0.01823 0.00413 0.47853 0.0
H1205 H -0.00364 0.982 0.51249 0.0
C1206 C 0.0072 0.98527 0.5619 0.0
C1207 C 0.01531 0.98839 0.58689 0.0
C1208 C 0.02139 -0.00484 0.54189 0.0
C1209 C 0.03828 0.00046 0.59173 0.0
C1210 C 0.05222 0.01084 0.57199 0.0
C1211 C 0.05606 0.02143 0.52747 0.0
C1212 C 0.04673 0.02033 0.50274 0.0
C1213 C 0.04362 0.00884 0.54708 0.0
C1214 C 0.02591 0.00498 0.49741 0.0
C1215 C 0.01321 0.99261 0.51688 0.0
H1216 H 0.16917 0.78482 0.80459 0.0
H1217 H 0.115 0.73219 0.83432 0.0
H1218 H 0.14669 0.71538 0.86315 0.0
H1219 H 0.19061 0.71388 0.87804 0.0
H1220 H 0.2442 0.76772 0.8494 0.0
H1221 H 0.21191 0.78583 0.82207 0.0
C1222 C 0.16422 0.76986 0.81757 0.0
C1223 C 0.13988 0.75953 0.81704 0.0
C1224 C 0.18249 0.76036 0.83416 0.0
C1225 C 0.13365 0.74035 0.83418 0.0
C1226 C 0.1518 0.73066 0.85063 0.0
C1227 C 0.19516 0.72962 0.86586 0.0
C1228 C 0.2198 0.73928 0.86555 0.0
C1229 C 0.17642 0.74018 0.85043 0.0
C1230 C 0.22536 0.75994 0.84998 0.0
C1231 C 0.20693 0.77028 0.83431 0.0
H1232 H 0.46032 0.92799 0.02816 0.0
H1233 H 0.53107 0.88867 0.01935 0.0
H1234 H 0.54983 0.91406 0.05233 0.0
H1235 H 0.54705 0.94835 0.08224 0.0
H1236 H 0.47702 0.98863 0.09181 0.0
H1237 H 0.45699 0.96161 0.06034 0.0
C1238 C 0.47978 0.92496 0.03359 0.0
C1239 C 0.4943 0.90661 0.02117 0.0
C1240 C 0.49059 0.93969 0.05275 0.0
C1241 C 0.51947 0.90276 0.02847 0.0
C1242 C 0.53027 0.91725 0.04738 0.0
C1243 C 0.52734 0.95121 0.07763 0.0
C1244 C 0.51364 0.97061 0.08926 0.0
C1245 C 0.51611 0.9359 0.05943 0.0
C1246 C 0.48803 0.97379 0.08318 0.0
C1247 C 0.4766 0.95844 0.06507 0.0
H1248 H 0.29459 0.82522 0.19149 0.0
H1249 H 0.28689 0.77839 0.25731 0.0
H1250 H 0.24817 0.76026 0.24031 0.0
H1251 H 0.21976 0.75402 0.20411 0.0
H1252 H 0.22572 0.80301 0.13963 0.0
H1253 H 0.26149 0.82453 0.15891 0.0
C1254 C 0.28399 0.81154 0.20231 0.0
C1255 C 0.2935 0.80292 0.22539 0.0
C1256 C 0.26155 0.80156 0.19263 0.0
C1257 C 0.27974 0.78532 0.23949 0.0
C1258 C 0.25773 0.77483 0.22971 0.0
C1259 C 0.22856 0.76981 0.19463 0.0
C1260 C 0.22043 0.7768 0.17046 0.0
C1261 C 0.24892 0.78225 0.20594 0.0
C1262 C 0.2317 0.79739 0.15833 0.0
C1263 C 0.25226 0.80956 0.16923 0.0
H1264 H 0.50181 0.04636 0.38233 0.0
H1265 H 0.4588 0.98703 0.41699 0.0
H1266 H 0.43228 0.01813 0.43834 0.0
H1267 H 0.42383 0.06226 0.44978 0.0
H1268 H 0.466 0.12141 0.41349 0.0
H1269 H 0.48986 0.09038 0.38962 0.0
C1270 C 0.48651 0.04035 0.39444 0.0
C1271 C 0.48236 0.01463 0.39843 0.0
C1272 C 0.47109 0.05826 0.40619 0.0
C1273 C 0.46227 0.00686 0.41377 0.0
C1274 C 0.44715 0.02459 0.42596 0.0
C1275 C 0.43777 0.06835 0.43617 0.0
C1276 C 0.44337 0.09404 0.43364 0.0
C1277 C 0.45163 0.05037 0.42261 0.0
C1278 C 0.4615 0.10168 0.41593 0.0
C1279 C 0.47529 0.08397 0.40238 0.0
H1280 H 0.10492 0.1927 0.66187 0.0
H1281 H 0.16303 0.18678 0.71814 0.0
H1282 H 0.19524 0.19522 0.68614 0.0
H1283 H 0.20526 0.21343 0.64419 0.0
H1284 H 0.14571 0.22307 0.58985 0.0
H1285 H 0.11564 0.2037 0.6187 0.0
C1286 C 0.12476 0.19225 0.66686 0.0
C1287 C 0.13172 0.18926 0.69215 0.0
C1288 C 0.14282 0.19827 0.64868 0.0
C1289 C 0.15734 0.18876 0.69865 0.0
C1290 C 0.17569 0.19401 0.68041 0.0
C1291 C 0.18587 0.21039 0.63851 0.0
C1292 C 0.17749 0.21952 0.61511 0.0
C1293 C 0.16847 0.20015 0.65566 0.0
C1294 C 0.15237 0.21605 0.60784 0.0
C1295 C 0.13521 0.20511 0.62434 0.0
H1296 H 0.00515 0.94448 0.97016 0.0
H1297 H 0.96687 0.88977 0.92395 0.0
H1298 H 0.95225 0.92299 0.89596 0.0
H1299 H 0.94831 0.96766 0.88581 0.0
H1300 H 0.98792 0.0227 0.93024 0.0
H1301 H 0.00428 0.98926 0.95763 0.0
C1302 C 0.99381 0.93985 0.95383 0.0
C1303 C 0.9868 0.91474 0.94937 0.0
C1304 C 0.98564 0.95908 0.93756 0.0
C1305 C 0.97234 0.90895 0.92799 0.0
C1306 C 0.96392 0.92794 0.91194 0.0
C1307 C 0.96061 0.9723 0.90144 0.0
C1308 C 0.96672 -0.00248 0.90624 0.0
C1309 C 0.97011 0.95307 0.91679 0.0
C1310 C 0.98301 0.00334 0.92624 0.0
C1311 C 0.99226 0.98427 0.94192 0.0
H1312 H 0.3018 0.31735 0.18348 0.0
H1313 H 0.31094 0.37105 0.24375 0.0
H1314 H 0.34264 0.34437 0.26329 0.0
H1315 H 0.36546 0.30464 0.26512 0.0
H1316 H 0.35745 0.25061 0.20513 0.0
H1317 H 0.32792 0.27872 0.18344 0.0
C1318 C 0.31096 0.32329 0.20072 0.0
C1319 C 0.30377 0.34597 0.21231 0.0
C1320 C 0.32931 0.3078 0.21196 0.0
C1321 C 0.31591 0.35355 0.23456 0.0
C1322 C 0.33407 0.33832 0.24579 0.0
C1323 C 0.35741 0.29908 0.24719 0.0
C1324 C 0.36338 0.27552 0.23687 0.0
C1325 C 0.34051 0.31521 0.23495 0.0
C1326 C 0.35313 0.26871 0.21345 0.0
C1327 C 0.33615 0.2847 0.20111 0.0
H1328 H 0.76564 0.19133 0.72692 0.0
H1329 H 0.81475 0.16163 0.7844 0.0
H1330 H 0.84574 0.19454 0.77543 0.0
H1331 H 0.85741 0.23312 0.75301 0.0
H1332 H 0.81023 0.26096 0.693 0.0
H1333 H 0.77999 0.22702 0.70066 0.0
C1334 C 0.78315 0.19223 0.73743 0.0
C1335 C 0.78788 0.17475 0.7567 0.0
C1336 C 0.80115 0.2106 0.73154 0.0
C1337 C 0.81079 0.17531 0.76976 0.0
C1338 C 0.82845 0.19399 0.76459 0.0
C1339 C 0.84068 0.23148 0.74138 0.0
C1340 C 0.83574 0.24959 0.72276 0.0
C1341 C 0.82366 0.21189 0.74575 0.0
C1342 C 0.81428 0.24718 0.7075 0.0
C1343 C 0.79695 0.22794 0.71201 0.0
H1344 H 0.09055 0.61191 -0.00299 0.0
H1345 H 0.05021 0.57125 0.05444 0.0
H1346 H 0.08621 0.54288 0.06009 0.0
H1347 H 0.12691 0.52633 0.04428 0.0
H1348 H 0.16667 0.56801 0.98691 0.0
H1349 H 0.13327 0.59927 0.98579 0.0
C1350 C 0.08989 0.59717 0.01115 0.0
C1351 C 0.06779 0.59347 0.0251 0.0
C1352 C 0.11042 0.58086 0.01404 0.0
C1353 C 0.06715 0.57451 0.04355 0.0
C1354 C 0.08761 0.55813 0.04659 0.0
C1355 C 0.12841 0.54248 0.03188 0.0
C1356 C 0.14898 0.54452 0.01533 0.0
C1357 C 0.10901 0.56058 0.03127 0.0
C1358 C 0.15084 0.56572 -0.00044 0.0
C1359 C 0.13175 0.58367 -0.00112 0.0
H1360 H 0.6247 0.81468 0.21776 0.0
H1361 H 0.64283 0.74678 0.25848 0.0
H1362 H 0.67066 0.7706 0.28651 0.0
H1363 H 0.69221 0.81063 0.2973 0.0
H1364 H 0.67285 0.87798 0.25601 0.0
H1365 H 0.64291 0.85456 0.23063 0.0
C1366 C 0.63468 0.80509 0.23282 0.0
C1367 C 0.63202 0.77903 0.23587 0.0
C1368 C 0.65038 0.81885 0.24884 0.0
C1369 C 0.64467 0.7669 0.25575 0.0
C1370 C 0.6606 0.78049 0.27174 0.0
C1371 C 0.68103 0.82017 0.2831 0.0
C1372 C 0.68484 0.84592 0.27839 0.0
C1373 C 0.66389 0.80647 0.26824 0.0
C1374 C 0.67038 0.8581 0.25984 0.0
C1375 C 0.65329 0.84474 0.24524 0.0
H1376 H 0.86664 0.96519 0.04922 0.0
H1377 H 0.80968 0.92337 0.00915 0.0
H1378 H 0.84102 0.89266 -0.00402 0.0
H1379 H 0.88521 0.88052 0.99156 0.0
H1380 H 0.94255 0.92123 0.03192 0.0
H1381 H 0.91046 0.94937 0.04955 0.0
C1382 C 0.86105 0.9491 0.038 0.0
C1383 C 0.836 0.94686 0.02971 0.0
C1384 C 0.87925 0.93145 0.03035 0.0
C1385 C 0.82894 0.92578 0.01542 0.0
C1386 C 0.84684 0.90819 0.00783 0.0
C1387 C 0.8906 0.89536 0.00449 0.0
C1388 C 0.9161 0.89912 0.01019 0.0
C1389 C 0.87215 0.91133 0.01447 0.0
C1390 C 0.92294 0.91806 0.02728 0.0
C1391 C 0.90464 0.93421 0.03723 0.0
H1392 H 0.21544 0.64975 0.71967 0.0
H1393 H 0.17018 0.58987 0.75082 0.0
H1394 H 0.1368 0.61974 0.76059 0.0
H1395 H 0.12213 0.66296 0.7639 0.0
H1396 H 0.16659 0.72361 0.73356 0.0
H1397 H 0.19855 0.69325 0.71937 0.0
C1398 C 0.19813 0.64324 0.7283 0.0
C1399 C 0.19542 0.6177 0.73484 0.0
C1400 C 0.17898 0.66061 0.73406 0.0
C1401 C 0.17285 0.60946 0.74585 0.0
C1402 C 0.15374 0.62651 0.75145 0.0
C1403 C 0.13873 0.66953 0.75396 0.0
C1404 C 0.14229 0.69542 0.75006 0.0
C1405 C 0.15689 0.65214 0.74622 0.0
C1406 C 0.16354 0.70372 0.73675 0.0
C1407 C 0.18183 0.6864 0.72883 0.0
H1408 H 0.06002 0.38012 0.47979 0.0
H1409 H 0.11309 0.3605 0.53825 0.0
H1410 H 0.1374 0.39839 0.52922 0.0
H1411 H 0.14187 0.43833 0.50687 0.0
H1412 H 0.08754 0.45946 0.45016 0.0
H1413 H 0.06544 0.41957 0.45624 0.0
C1414 C 0.07714 0.38393 0.49025 0.0
C1415 C 0.08477 0.36756 0.50964 0.0
C1416 C 0.09063 0.40609 0.48544 0.0
C1417 C 0.1068 0.37289 0.52329 0.0
C1418 C 0.12068 0.39455 0.51818 0.0
C1419 C 0.12529 0.43417 0.49572 0.0
C1420 C 0.11624 0.45184 0.47821 0.0
C1421 C 0.11247 0.41151 0.49966 0.0
C1422 C 0.09477 0.44616 0.46386 0.0
C1423 C 0.08215 0.42338 0.46732 0.0
H1424 H 0.47612 0.61243 0.92322 0.0
H1425 H 0.53124 0.56964 0.96457 0.0
H1426 H 0.51822 0.53106 0.9427 0.0
H1427 H 0.48611 0.50896 0.91694 0.0
H1428 H 0.43033 0.55268 0.87706 0.0
H1429 H 0.44898 0.59153 0.89257 0.0
C1430 C 0.48574 0.59473 0.92678 0.0
C1431 C 0.50451 0.59361 0.94527 0.0
C1432 C 0.47788 0.57282 0.91449 0.0
C1433 C 0.51687 0.57076 0.95012 0.0
C1434 C 0.50927 0.54875 0.93778 0.0
C1435 C 0.47868 0.52704 0.91099 0.0
C1436 C 0.45681 0.52806 0.89606 0.0
C1437 C 0.48911 0.5494 0.92061 0.0
C1438 C 0.44709 0.55153 0.88868 0.0
C1439 C 0.45764 0.57373 0.89764 0.0
H1440 H 0.71054 0.78431 0.85168 0.0
H1441 H 0.75466 0.83562 0.89661 0.0
H1442 H 0.76342 0.86106 0.85959 0.0
H1443 H 0.76187 0.8667 0.81392 0.0
H1444 H 0.7163 0.8173 0.76867 0.0
H1445 H 0.70458 0.79321 0.80633 0.0
C1446 C 0.72173 0.80127 0.8534 0.0
C1447 C 0.73237 0.80774 0.87676 0.0
C1448 C 0.72661 0.81602 0.83197 0.0
C1449 C 0.74657 0.82995 0.87878 0.0
C1450 C 0.75164 0.84454 0.85761 0.0
C1451 C 0.74918 0.85078 0.81242 0.0
C1452 C 0.74018 0.84346 0.78873 0.0
C1453 C 0.74234 0.83737 0.83404 0.0
C1454 C 0.72342 0.82315 0.78686 0.0
C1455 C 0.71683 0.80937 0.80832 0.0
H1456 H 0.44464 0.47216 0.06907 0.0
H1457 H 0.50424 0.42748 0.03668 0.0
H1458 H 0.48836 0.43673 0.99438 0.0
H1459 H 0.45926 0.45998 0.96663 0.0
H1460 H 0.40324 0.5089 -0.00065 0.0
H1461 H 0.41642 0.49615 0.0416 0.0
C1462 C 0.45413 0.46436 0.05282 0.0
C1463 C 0.47564 0.44925 0.05599 0.0
C1464 C 0.44578 0.47092 0.02863 0.0
C1465 C 0.48763 0.4392 0.03467 0.0
C1466 C 0.47866 0.4446 0.01052 0.0
C1467 C 0.44992 0.46775 0.98305 0.0
C1468 C 0.43033 0.48532 0.97997 0.0
C1469 C 0.45806 0.46086 0.00726 0.0
C1470 C 0.41852 0.49549 0.00132 0.0
C1471 C 0.42594 0.4881 0.02544 0.0
H1472 H 0.82541 0.20661 0.35193 0.0
H1473 H 0.83638 0.24894 0.28359 0.0
H1474 H 0.81882 0.21398 0.25889 0.0
H1475 H 0.7949 0.17378 0.25805 0.0
H1476 H 0.78263 0.13364 0.32762 0.0
H1477 H 0.80657 0.16517 0.35064 0.0
C1478 C 0.82427 0.20803 0.33156 0.0
C1479 C 0.83169 0.23024 0.3195 0.0
C1480 C 0.81386 0.18828 0.31783 0.0
C1481 C 0.83064 0.23188 0.29316 0.0
C1482 C 0.82049 0.212 0.27913 0.0
C1483 C 0.79811 0.17173 0.27812 0.0
C1484 C 0.78694 0.15169 0.29128 0.0
C1485 C 0.81127 0.19043 0.2914 0.0
C1486 C 0.79092 0.14914 0.31727 0.0
C1487 C 0.80452 0.16714 0.33042 0.0
H1488 H 0.00728 0.52484 0.58139 0.0
H1489 H 0.05695 0.52677 0.64574 0.0
H1490 H 0.09339 0.52895 0.61813 0.0
H1491 H 0.11134 0.52372 0.5763 0.0
H1492 H 0.063 0.5203 0.51133 0.0
H1493 H 0.02579 0.52579 0.53837 0.0
C1494 C 0.02606 0.52633 0.58927 0.0
C1495 C 0.02949 0.52525 0.61554 0.0
C1496 C 0.04713 0.52712 0.57318 0.0
C1497 C 0.05388 0.52721 0.62557 0.0
C1498 C 0.07475 0.52845 0.60982 0.0
C1499 C 0.09266 0.5249 0.56806 0.0
C1500 C 0.08969 0.52157 0.54207 0.0
C1501 C 0.07163 0.52745 0.58368 0.0
C1502 C 0.06557 0.52307 0.53137 0.0
C1503 C 0.04436 0.52592 0.54686 0.0
H1504 H 0.69504 0.21326 0.63542 0.0
H1505 H 0.7644 0.20598 0.59365 0.0
H1506 H 0.77883 0.17328 0.62241 0.0
H1507 H 0.77349 0.14958 0.66158 0.0
H1508 H 0.70389 0.1562 0.70312 0.0
H1509 H 0.68771 0.18585 0.67203 0.0
C1510 C 0.71318 0.2043 0.63247 0.0
C1511 C 0.7288 0.21237 0.61274 0.0
C1512 C 0.72137 0.18536 0.64904 0.0
C1513 C 0.75211 0.20037 0.60891 0.0
C1514 C 0.76042 0.18163 0.62535 0.0
C1515 C 0.75463 0.15719 0.66365 0.0
C1516 C 0.74009 0.15084 0.68481 0.0
C1517 C 0.74547 0.17441 0.64581 0.0
C1518 C 0.71557 0.16073 0.68704 0.0
C1519 C 0.70631 0.17785 0.66934 0.0
H1520 H 0.09249 0.4922 0.98051 0.0
H1521 H 0.14515 0.44271 0.94351 0.0
H1522 H 0.11081 0.41457 0.9315 0.0
H1523 H 0.06557 0.40679 0.92755 0.0
H1524 H 0.01266 0.45473 0.96609 0.0
H1525 H 0.04731 0.4803 0.98235 0.0
C1526 C 0.09629 0.47517 0.96991 0.0
C1527 C 0.12103 0.46967 0.9623 0.0
C1528 C 0.07653 0.45872 0.96371 0.0
C1529 C 0.12609 0.44733 0.9492 0.0
C1530 C 0.10653 0.43123 0.94245 0.0
C1531 C 0.06172 0.42228 0.94028 0.0
C1532 C 0.03669 0.42914 0.94532 0.0
C1533 C 0.08166 0.437 0.94919 0.0
C1534 C 0.03182 0.44912 0.96194 0.0
C1535 C 0.05162 0.46397 0.97092 0.0
H1536 H 0.74466 0.78841 0.25459 0.0
H1537 H 0.8078 0.83919 0.25496 0.0
H1538 H 0.8347 0.80662 0.23645 0.0
H1539 H 0.83783 0.76633 0.2138 0.0
H1540 H 0.77551 0.71461 0.21539 0.0
H1541 H 0.7507 0.74459 0.24007 0.0
C1542 C 0.76449 0.79197 0.2512 0.0
C1543 C 0.77436 0.81601 0.25573 0.0
C1544 C 0.77984 0.77307 0.24089 0.0
C1545 C 0.8 0.82067 0.25154 0.0
C1546 C 0.81528 0.80215 0.24087 0.0
C1547 C 0.81918 0.76133 0.22046 0.0
C1548 C 0.80838 0.73852 0.21287 0.0
C1549 C 0.80513 0.77863 0.2346 0.0
C1550 C 0.78421 0.73204 0.22135 0.0
C1551 C 0.76993 0.7493 0.23515 0.0
H1552 H 0.38643 0.5702 0.46002 0.0
H1553 H 0.45473 0.55512 0.50099 0.0
H1554 H 0.47986 0.5679 0.46441 0.0
H1555 H 0.4815 0.57324 0.41833 0.0
H1556 H 0.41231 0.5816 0.37651 0.0
H1557 H 0.38824 0.5818 0.41567 0.0
C1558 C 0.40683 0.57095 0.4612 0.0
C1559 C 0.41889 0.56206 0.48294 0.0
C1560 C 0.42087 0.57635 0.43962 0.0
C1561 C 0.44523 0.56239 0.48444 0.0
C1562 C 0.45951 0.56923 0.46339 0.0
C1563 C 0.46122 0.57581 0.41793 0.0
C1564 C 0.44853 0.57706 0.39474 0.0
C1565 C 0.44746 0.57468 0.44045 0.0
C1566 C 0.42231 0.58025 0.39425 0.0
C1567 C 0.40859 0.5804 0.41659 0.0
H1568 H 0.7693 0.72491 0.8603 0.0
H1569 H 0.83884 0.76124 0.8811 0.0
H1570 H 0.86193 0.73492 0.85122 0.0
H1571 H 0.86206 0.70302 0.81863 0.0
H1572 H 0.79227 0.67015 0.79324 0.0
H1573 H 0.76943 0.69314 0.82621 0.0
C1574 C 0.78954 0.72688 0.85831 0.0
C1575 C 0.80249 0.74483 0.87282 0.0
C1576 C 0.80251 0.71227 0.8405 0.0
C1577 C 0.82858 0.7476 0.86997 0.0
C1578 C 0.84174 0.73251 0.85301 0.0
C1579 C 0.84183 0.70086 0.82011 0.0
C1580 C 0.82883 0.68509 0.8033 0.0
C1581 C 0.82884 0.71501 0.83807 0.0
C1582 C 0.80269 0.68221 0.80593 0.0
C1583 C 0.78965 0.69546 0.82465 0.0
H1584 H 0.47122 0.55341 0.07979 0.0
H1585 H 0.54374 0.5164 0.08144 0.0
H1586 H 0.5627 0.55208 0.05979 0.0
H1587 H 0.55826 0.59254 0.03818 0.0
H1588 H 0.48602 0.6299 0.03676 0.0
H1589 H 0.46744 0.59538 0.06075 0.0
C1590 C 0.49119 0.55318 0.07552 0.0
C1591 C 0.50596 0.53215 0.08204 0.0
C1592 C 0.50203 0.57379 0.06309 0.0
C1593 C 0.53189 0.53231 0.07662 0.0
C1594 C 0.54277 0.55269 0.06418 0.0
C1595 C 0.5385 0.59324 0.04332 0.0
C1596 C 0.52348 0.61358 0.03548 0.0
C1597 C 0.52796 0.57334 0.05702 0.0
C1598 C 0.49797 0.61437 0.04246 0.0
C1599 C 0.48731 0.5946 0.05611 0.0
H1600 H 0.71182 0.32833 0.25454 0.0
H1601 H 0.67189 0.34262 0.32382 0.0
H1602 H 0.71122 0.33979 0.34743 0.0
H1603 H 0.7549 0.32522 0.34919 0.0
H1604 H 0.79397 0.30606 0.28091 0.0
H1605 H 0.75752 0.31966 0.2559 0.0
C1606 C 0.71187 0.33144 0.27471 0.0
C1607 C 0.68896 0.33534 0.28749 0.0
C1608 C 0.7345 0.32893 0.2883 0.0
C1609 C 0.68925 0.33928 0.31363 0.0
C1610 C 0.71174 0.33768 0.32713 0.0
C1611 C 0.75578 0.32524 0.32877 0.0
C1612 C 0.77706 0.31515 0.31677 0.0
C1613 C 0.73424 0.33147 0.3148 0.0
C1614 C 0.77793 0.31439 0.2904 0.0
C1615 C 0.75691 0.3217 0.27619 0.0
H1616 H 0.01915 0.40708 0.62892 0.0
H1617 H 0.97101 0.45581 0.58526 0.0
H1618 H 0.96732 0.42332 0.55263 0.0
H1619 H 0.981 0.38239 0.5352 0.0
H1620 H 0.02754 0.3333 0.58047 0.0
H1621 H 0.02852 0.36454 0.61395 0.0
C1622 C 0.00762 0.41042 0.61236 0.0
C1623 C -0.00442 0.43374 0.6092 0.0
C1624 C 0.00547 0.39169 0.59398 0.0
C1625 C 0.98038 0.43788 0.58798 0.0
C1626 C 0.97842 0.4194 0.56932 0.0
C1627 C 0.99112 0.37846 0.55252 0.0
C1628 C 0.00458 0.35577 0.55515 0.0
C1629 C 0.99136 0.39643 0.57189 0.0
C1630 C 0.01727 0.35071 0.57782 0.0
C1631 C 0.01787 0.36858 0.59699 0.0
H1632 H 0.794 0.30986 0.72972 0.0
H1633 H 0.84447 0.35567 0.68568 0.0
H1634 H 0.82013 0.34677 0.64774 0.0
H1635 H 0.78944 0.31988 0.62617 0.0
H1636 H 0.74113 0.27137 0.6694 0.0
H1637 H 0.75933 0.28748 0.70866 0.0
C1638 C 0.79908 0.31862 0.71199 0.0
C1639 C 0.82102 0.33332 0.7104 0.0
C1640 C 0.78556 0.31258 0.69006 0.0
C1641 C 0.82767 0.34424 0.68726 0.0
C1642 C 0.81387 0.33902 0.66555 0.0
C1643 C 0.78239 0.31357 0.64428 0.0
C1644 C 0.76392 0.29482 0.6452 0.0
C1645 C 0.79352 0.32231 0.66656 0.0
C1646 C 0.75512 0.28616 0.66852 0.0
C1647 C 0.76564 0.29524 0.69088 0.0
H1648 H 0.98325 0.48602 0.94553 0.0
H1649 H 0.03908 0.52626 0.90259 0.0
H1650 H 0.03217 0.56382 0.92865 0.0
H1651 H 0.01122 0.58423 0.96465 0.0
H1652 H 0.96055 0.54131 0.01128 0.0
H1653 H 0.96427 0.50547 0.9826 0.0
C1654 C 0.99371 0.50312 0.94172 0.0
C1655 C 0.01133 0.50368 0.92201 0.0
C1656 C 0.9906 0.52393 0.9575 0.0
C1657 C 0.02526 0.52562 0.91758 0.0
C1658 C 0.02135 0.54697 0.93248 0.0
C1659 C 0.001 0.56706 0.9685 0.0
C1660 C 0.98556 0.56531 0.98991 0.0
C1661 C 0.00422 0.54622 0.95264 0.0
C1662 C 0.97255 0.54293 0.99486 0.0
C1663 C 0.97466 0.52253 0.9785 0.0
H1664 H 0.65751 0.67931 0.1847 0.0
H1665 H 0.63204 0.74937 0.1524 0.0
H1666 H 0.67536 0.7599 0.14076 0.0
H1667 H 0.72092 0.75118 0.14443 0.0
H1668 H 0.74584 0.68051 0.17599 0.0
H1669 H 0.70218 0.66813 0.18326 0.0
C1670 C 0.6614 0.69668 0.17469 0.0
C1671 C 0.64178 0.7138 0.16987 0.0
C1672 C 0.68625 0.70261 0.16828 0.0
C1673 C 0.64689 0.73601 0.15651 0.0
C1674 C 0.67168 0.7421 0.15003 0.0
C1675 C 0.71672 0.73301 0.15273 0.0
C1676 C 0.7365 0.71692 0.16005 0.0
C1677 C 0.69158 0.72593 0.15664 0.0
C1678 C 0.7309 0.69322 0.1703 0.0
C1679 C 0.70597 0.68616 0.17449 0.0
H1680 H 0.47273 0.45686 0.36783 0.0
H1681 H 0.5151 0.51348 0.40728 0.0
H1682 H 0.53747 0.4807 0.43108 0.0
H1683 H 0.54283 0.43594 0.44229 0.0
H1684 H 0.50229 0.37945 0.40037 0.0
H1685 H 0.48174 0.41212 0.37549 0.0
C1686 C 0.48693 0.4619 0.38162 0.0
C1687 C 0.49209 0.48734 0.38625 0.0
C1688 C 0.50009 0.44302 0.39462 0.0
C1689 C 0.51083 0.49389 0.40367 0.0
C1690 C 0.52358 0.47519 0.4172 0.0
C1691 C 0.52984 0.43076 0.42742 0.0
C1692 C 0.52373 0.4053 0.42356 0.0
C1693 C 0.51815 0.44968 0.41303 0.0
C1694 C 0.50707 0.3989 0.40402 0.0
C1695 C 0.49521 0.41758 0.38981 0.0
H1696 H 0.75992 0.79464 0.69823 0.0
H1697 H 0.81419 0.85208 0.71697 0.0
H1698 H 0.84446 0.82003 0.72945 0.0
H1699 H 0.85408 0.77609 0.73901 0.0
H1700 H 0.8012 0.718 0.71914 0.0
H1701 H 0.7719 0.74985 0.70278 0.0
C1702 C 0.7785 0.80008 0.70469 0.0
C1703 C 0.78458 0.82571 0.70718 0.0
C1704 C 0.79599 0.78148 0.71176 0.0
C1705 C 0.80885 0.83251 0.71525 0.0
C1706 C 0.82622 0.81419 0.72242 0.0
C1707 C 0.83624 0.77043 0.73081 0.0
C1708 C 0.82954 0.74493 0.73052 0.0
C1709 C 0.81973 0.78871 0.72142 0.0
C1710 C 0.80665 0.73763 0.71952 0.0
C1711 C 0.78989 0.75582 0.71032 0.0
H1712 H 0.27235 0.67055 0.29728 0.0
H1713 H 0.28394 0.62721 0.22956 0.0
H1714 H 0.31053 0.66021 0.21239 0.0
H1715 H 0.32782 0.70282 0.21506 0.0
H1716 H 0.31877 0.74552 0.28342 0.0
H1717 H 0.29429 0.71125 0.30205 0.0
C1718 C 0.28093 0.66825 0.2789 0.0
C1719 C 0.27569 0.64669 0.26452 0.0
C1720 C 0.29668 0.68719 0.26923 0.0
C1721 C 0.28728 0.64377 0.2409 0.0
C1722 C 0.30256 0.66264 0.23102 0.0
C1723 C 0.32079 0.70442 0.23418 0.0
C1724 C 0.3249 0.72663 0.24781 0.0
C1725 C 0.30695 0.68463 0.24478 0.0
C1726 C 0.31595 0.72847 0.27263 0.0
C1727 C 0.30178 0.70898 0.28321 0.0
H1728 H 0.4868 0.09626 0.54456 0.0
H1729 H 0.48447 0.0474 0.47992 0.0
H1730 H 0.50481 0.01376 0.50415 0.0
H1731 H 0.52818 0.00057 0.54177 0.0
H1732 H 0.53744 0.05237 0.60332 0.0
H1733 H 0.5087 0.08228 0.58295 0.0
C1734 C 0.49028 0.07802 0.53607 0.0
C1735 C 0.48422 0.0741 0.51067 0.0
C1736 C 0.50312 0.05934 0.5497 0.0
C1737 C 0.48914 0.05067 0.49951 0.0
C1738 C 0.50071 0.03151 0.51333 0.0
C1739 C 0.52325 0.01811 0.55096 0.0
C1740 C 0.53445 0.02431 0.57404 0.0
C1741 C 0.50845 0.03591 0.5382 0.0
C1742 C 0.52861 0.04725 0.58566 0.0
C1743 C 0.51245 0.06439 0.5739 0.0
H1744 H 0.22145 0.28495 0.8155 0.0
H1745 H 0.27118 0.26673 0.75406 0.0
H1746 H 0.23632 0.24692 0.73137 0.0
H1747 H 0.19034 0.2406 0.72665 0.0
H1748 H 0.14117 0.25858 0.78881 0.0
H1749 H 0.17713 0.27267 0.81361 0.0
C1750 C 0.2248 0.27577 0.79756 0.0
C1751 C 0.24868 0.27732 0.78639 0.0
C1752 C 0.20462 0.265 0.78448 0.0
C1753 C 0.25296 0.26547 0.76315 0.0
C1754 C 0.23292 0.25455 0.74998 0.0
C1755 C 0.1876 0.24749 0.74568 0.0
C1756 C 0.16313 0.24912 0.75572 0.0
C1757 C 0.20845 0.25524 0.76002 0.0
C1758 C 0.15982 0.25741 0.7806 0.0
C1759 C 0.18035 0.26542 0.79481 0.0
H1760 H 0.3914 0.46291 0.51098 0.0
H1761 H 0.45171 0.49185 0.55697 0.0
H1762 H 0.48025 0.45954 0.54019 0.0
H1763 H 0.48813 0.42408 0.51082 0.0
H1764 H 0.42717 0.39754 0.46399 0.0
H1765 H 0.39878 0.4281 0.48273 0.0
C1766 C 0.41078 0.46221 0.51744 0.0
C1767 C 0.4195 0.47976 0.53508 0.0
C1768 C 0.42695 0.44407 0.50746 0.0
C1769 C 0.4446 0.47848 0.54335 0.0
C1770 C 0.46089 0.46008 0.53373 0.0
C1771 C 0.46858 0.42492 0.50493 0.0
C1772 C 0.45979 0.40865 0.48599 0.0
C1773 C 0.4523 0.4429 0.51555 0.0
C1774 C 0.43447 0.41 0.47836 0.0
C1775 C 0.41818 0.42742 0.4891 0.0
H1776 H 0.66166 0.22084 0.29275 0.0
H1777 H 0.68224 0.26333 0.22667 0.0
H1778 H 0.70318 0.22639 0.20899 0.0
H1779 H 0.71629 0.18232 0.21266 0.0
H1780 H 0.69357 0.13889 0.27744 0.0
H1781 H 0.67259 0.17576 0.29517 0.0
C1782 C 0.67081 0.22194 0.27453 0.0
C1783 C 0.67063 0.24472 0.26108 0.0
C1784 C 0.68229 0.20047 0.2642 0.0
C1785 C 0.68215 0.24592 0.23731 0.0
C1786 C 0.69413 0.22485 0.22721 0.0
C1787 C 0.70659 0.18088 0.23058 0.0
C1788 C 0.7067 0.15799 0.24382 0.0
C1789 C 0.69434 0.20205 0.2405 0.0
C1790 C 0.69386 0.15632 0.26689 0.0
C1791 C 0.68192 0.17743 0.2771 0.0
H1792 H 0.52953 0.00245 0.86955 0.0
H1793 H 0.51384 0.04836 0.93438 0.0
H1794 H 0.49426 0.01251 0.95554 0.0
H1795 H 0.49228 0.96608 0.95921 0.0
H1796 H 0.50933 0.92024 0.8946 0.0
H1797 H 0.51762 0.95796 0.86946 0.0
C1798 C 0.52049 0.00486 0.88772 0.0
C1799 C 0.5233 0.02769 0.90061 0.0
C1800 C 0.51034 0.98392 0.90006 0.0
C1801 C 0.51171 0.03088 0.92413 0.0
C1802 C 0.50102 0.01023 0.93642 0.0
C1803 C 0.497 0.96457 0.9394 0.0
C1804 C 0.50058 0.94074 0.92863 0.0
C1805 C 0.50189 0.98632 0.92521 0.0
C1806 C 0.50662 0.93859 0.90306 0.0
C1807 C 0.51139 0.9601 0.88877 0.0
H1808 H 0.95186 0.07326 0.50638 0.0
H1809 H 0.98387 0.02897 0.44639 0.0
H1810 H 0.9436 0.00753 0.44034 0.0
H1811 H 0.89997 -0.00041 0.45398 0.0
H1812 H 0.86718 0.04625 0.51178 0.0
H1813 H 0.90689 0.06862 0.5167 0.0
C1814 C 0.94986 0.05911 0.49181 0.0
C1815 C 0.97072 0.05259 0.47692 0.0
C1816 C 0.92656 0.04719 0.48814 0.0
C1817 C 0.96795 0.03441 0.45795 0.0
C1818 C 0.945 0.02204 0.45459 0.0
C1819 C 0.90149 0.01481 0.46748 0.0
C1820 C 0.88078 0.02094 0.48277 0.0
C1821 C 0.92428 0.02801 0.46984 0.0
C1822 C 0.88286 0.04096 0.49991 0.0
C1823 C 0.90561 0.05378 0.50278 0.0
H1824 H 0.12329 0.0814 0.4198 0.0
H1825 H 0.05468 0.10402 0.38245 0.0
H1826 H 0.07882 0.12922 0.35258 0.0
H1827 H 0.11883 0.14941 0.34096 0.0
H1828 H 0.18754 0.12623 0.37774 0.0
H1829 H 0.16404 0.09644 0.40367 0.0
C1830 C 0.11369 0.09144 0.4048 0.0
C1831 C 0.08723 0.09116 0.40358 0.0
C1832 C 0.12769 0.106 0.38773 0.0
C1833 C 0.07503 0.10399 0.38387 0.0
C1834 C 0.08881 0.11855 0.36686 0.0
C1835 C 0.1287 0.13747 0.35431 0.0
C1836 C 0.1548 0.14026 0.3577 0.0
C1837 C 0.11505 0.12042 0.3692 0.0
C1838 C 0.16743 0.12447 0.37482 0.0
C1839 C 0.15398 0.10754 0.38978 0.0
H1840 H 0.05781 0.89148 0.66914 0.0
H1841 H -0.00153 0.89829 0.72417 0.0
H1842 H 0.017 0.86402 0.74878 0.0
H1843 H 0.04894 0.83103 0.75372 0.0
H1844 H 0.1064 0.8217 0.6971 0.0
H1845 H 0.08979 0.85806 0.67399 0.0
C1846 C 0.04911 0.88558 0.68665 0.0
C1847 C 0.02689 0.8974 0.69493 0.0
C1848 C 0.05946 0.86536 0.7003 0.0
C1849 C 0.01556 0.8894 0.71743 0.0
C1850 C 0.02614 0.86983 0.73149 0.0
C1851 C 0.05797 0.8371 0.73643 0.0
C1852 C 0.07894 0.82383 0.72717 0.0
C1853 C 0.04792 0.85752 0.72297 0.0
C1854 C 0.09022 0.83164 0.70457 0.0
C1855 C 0.08074 0.85241 0.69138 0.0
H1856 H 0.39534 0.85645 0.9365 0.0
H1857 H 0.43446 0.79951 0.97941 0.0
H1858 H 0.40176 0.76888 0.96895 0.0
H1859 H 0.36296 0.75795 0.946 0.0
H1860 H 0.32367 0.81543 0.90388 0.0
H1861 H 0.35558 0.84622 0.91563 0.0
C1862 C 0.39657 0.83739 0.94376 0.0
C1863 C 0.4172 0.83021 0.95868 0.0
C1864 C 0.37778 0.81997 0.93767 0.0
C1865 C 0.41857 0.80552 0.96807 0.0
C1866 C 0.39999 0.78797 0.96195 0.0
C1867 C 0.3614 0.77723 0.93944 0.0
C1868 C 0.34113 0.78439 0.92395 0.0
C1869 C 0.37968 0.79492 0.94649 0.0
C1870 C 0.33914 0.80947 0.9158 0.0
C1871 C 0.35737 0.82708 0.92249 0.0
H1872 H 0.42849 0.12877 0.23119 0.0
H1873 H 0.46531 0.1887 0.1908 0.0
H1874 H 0.49001 0.15794 0.16694 0.0
H1875 H 0.5012 0.11402 0.15784 0.0
H1876 H 0.46129 0.0539 0.19481 0.0
H1877 H 0.4375 0.08463 0.21979 0.0
C1878 C 0.44198 0.13497 0.21717 0.0
C1879 C 0.44541 0.16079 0.2128 0.0
C1880 C 0.45541 0.11719 0.20297 0.0
C1881 C 0.4625 0.16882 0.19436 0.0
C1882 C 0.4766 0.15129 0.18079 0.0
C1883 C 0.48726 0.10774 0.17139 0.0
C1884 C 0.48303 0.08191 0.1748 0.0
C1885 C 0.47323 0.12545 0.18498 0.0
C1886 C 0.46472 0.0738 0.19198 0.0
C1887 C 0.45123 0.09131 0.20626 0.0
H1888 H 0.10733 0.82364 0.10031 0.0
H1889 H 0.12015 0.76613 0.04459 0.0
H1890 H 0.08935 0.78585 0.01655 0.0
H1891 H 0.05688 0.81777 0.0091 0.0
H1892 H 0.04017 0.87239 0.06667 0.0
H1893 H 0.07439 0.85567 0.09285 0.0
C1894 C 0.1035 0.81571 0.08189 0.0
C1895 C 0.11588 0.79365 0.07432 0.0
C1896 C 0.08502 0.82655 0.06635 0.0
C1897 C 0.11065 0.78313 0.05069 0.0
C1898 C 0.0931 0.79437 0.03469 0.0
C1899 C 0.06101 0.82619 0.02724 0.0
C1900 C 0.04633 0.84631 0.03598 0.0
C1901 C 0.0799 0.81585 0.0425 0.0
C1902 C 0.05137 0.85683 0.05967 0.0
C1903 C 0.07087 0.84729 0.0746 0.0
H1904 H 0.43401 0.91809 0.32288 0.0
H1905 H 0.48763 0.86007 0.34207 0.0
H1906 H 0.46127 0.82861 0.32089 0.0
H1907 H 0.42303 0.81806 0.29621 0.0
H1908 H 0.37182 0.87746 0.27474 0.0
H1909 H 0.39707 0.90804 0.29784 0.0
C1910 C 0.43991 0.89853 0.32256 0.0
C1911 C 0.46258 0.89131 0.33413 0.0
C1912 C 0.42502 0.88087 0.31004 0.0
C1913 C 0.47021 0.86601 0.33324 0.0
C1914 C 0.45512 0.84807 0.32122 0.0
C1915 C 0.41738 0.83767 0.29689 0.0
C1916 C 0.39558 0.8456 0.28409 0.0
C1917 C 0.43248 0.85531 0.30953 0.0
C1918 C 0.38856 0.87105 0.28455 0.0
C1919 C 0.40297 0.8885 0.29769 0.0
H1920 H 0.37303 0.19414 0.48919 0.0
H1921 H 0.36556 0.12935 0.53757 0.0
H1922 H 0.32626 0.14617 0.55459 0.0
H1923 H 0.29483 0.17995 0.55686 0.0
H1924 H 0.30394 0.24652 0.51131 0.0
H1925 H 0.34169 0.22841 0.49194 0.0
C1926 C 0.36265 0.18369 0.50332 0.0
C1927 C 0.37206 0.16054 0.51208 0.0
C1928 C 0.34042 0.19383 0.51355 0.0
C1929 C 0.35869 0.14727 0.53063 0.0
C1930 C 0.33621 0.15685 0.54033 0.0
C1931 C 0.30497 0.19037 0.54252 0.0
C1932 C 0.29661 0.21443 0.53539 0.0
C1933 C 0.32701 0.18019 0.53208 0.0
C1934 C 0.31009 0.22794 0.51709 0.0
C1935 C 0.33164 0.21761 0.50603 0.0
H1936 H 0.07074 0.17206 0.81223 0.0
H1937 H 0.015 0.17879 0.75347 0.0
H1938 H 0.98505 0.15467 0.77876 0.0
H1939 H 0.97558 0.12989 0.81647 0.0
H1940 H 0.03261 0.11925 0.87334 0.0
H1941 H 0.06123 0.14699 0.85009 0.0
C1942 C 0.05197 0.16835 0.80508 0.0
C1943 C 0.045 0.17711 0.78108 0.0
C1944 C 0.03515 0.15388 0.81941 0.0
C1945 C 0.02077 0.17203 0.77184 0.0
C1946 C 0.00365 0.15835 0.78631 0.0
C1947 C 0.99413 0.13402 0.82398 0.0
C1948 C 0.00197 0.12289 0.84667 0.0
C1949 C 0.01074 0.14898 0.80999 0.0
C1950 C 0.02621 0.1278 0.85594 0.0
C1951 C 0.04256 0.14354 0.84262 0.0
H1952 H 0.25798 0.43804 0.13466 0.0
H1953 H 0.20681 0.37645 0.12132 0.0
H1954 H 0.19767 0.39266 0.07938 0.0
H1955 H 0.20203 0.42533 0.04771 0.0
H1956 H 0.25036 0.48904 0.06134 0.0
H1957 H 0.26324 0.47074 0.10179 0.0
C1958 C 0.24496 0.42814 0.12247 0.0
C1959 C 0.23298 0.40615 0.13111 0.0
C1960 C 0.23938 0.43786 0.09845 0.0
C1961 C 0.21609 0.39353 0.1152 0.0
C1962 C 0.21092 0.40272 0.09118 0.0
C1963 C 0.21569 0.43511 0.0593 0.0
C1964 C 0.22525 0.45851 0.05152 0.0
C1965 C 0.22219 0.425 0.08276 0.0
C1966 C 0.24277 0.47097 0.0669 0.0
C1967 C 0.25 0.46058 0.09007 0.0
H1968 H 0.6621 0.12635 0.78906 0.0
H1969 H 0.72164 0.11598 0.84347 0.0
H1970 H 0.69051 0.11161 0.87707 0.0
H1971 H 0.64647 0.10469 0.88968 0.0
H1972 H 0.58747 0.11113 0.83438 0.0
H1973 H 0.61811 0.12413 0.80256 0.0
C1974 C 0.66828 0.12335 0.8083 0.0
C1975 C 0.69409 0.12099 0.81371 0.0
C1976 C 0.65031 0.12052 0.82741 0.0
C1977 C 0.70184 0.11751 0.83878 0.0
C1978 C 0.68406 0.1151 0.85801 0.0
C1979 C 0.64031 0.11004 0.87093 0.0
C1980 C 0.61488 0.10744 0.86429 0.0
C1981 C 0.65825 0.11587 0.85242 0.0
C1982 C 0.60699 0.11349 0.83982 0.0
C1983 C 0.62454 0.12051 0.8216 0.0
H1984 H 0.77732 0.87884 0.37733 0.0
H1985 H 0.73363 0.94244 0.35173 0.0
H1986 H 0.74719 0.9668 0.38833 0.0
H1987 H 0.77358 0.97079 0.42632 0.0
H1988 H 0.81569 0.90647 0.45281 0.0
H1989 H 0.80055 0.88159 0.41728 0.0
C1990 C 0.77059 0.89795 0.37993 0.0
C1991 C 0.75464 0.9089 0.36184 0.0
C1992 C 0.77829 0.91175 0.4011 0.0
C1993 C 0.74585 0.93358 0.36549 0.0
C1994 C 0.75371 0.94756 0.38633 0.0
C1995 C 0.7793 0.95128 0.42436 0.0
C1996 C 0.79592 0.94055 0.44199 0.0
C1997 C 0.77025 0.93697 0.40405 0.0
C1998 C 0.80292 0.91517 0.43946 0.0
C1999 C 0.79433 0.90094 0.41911 0.0
H2000 H 0.73544 0.06025 0.16342 0.0
H2001 H 0.80379 0.10397 0.16301 0.0
H2002 H 0.81395 0.0883 0.12093 0.0
H2003 H 0.80406 0.06094 0.08479 0.0
H2004 H 0.73737 0.01483 0.0869 0.0
H2005 H 0.72568 0.03287 0.12759 0.0
C2006 C 0.7525 0.06642 0.15407 0.0
C2007 C 0.76882 0.08325 0.16626 0.0
C2008 C 0.75843 0.05698 0.13012 0.0
C2009 C 0.79098 0.09093 0.15403 0.0
C2010 C 0.79675 0.08204 0.12995 0.0
C2011 C 0.7868 0.05517 0.09404 0.0
C2012 C 0.77145 0.0368 0.08286 0.0
C2013 C 0.78068 0.06496 0.11785 0.0
C2014 C 0.74941 0.02903 0.09519 0.0
C2015 C 0.74276 0.03927 0.11846 0.0
H2016 H 0.32455 0.52035 0.60791 0.0
H2017 H 0.37359 0.58412 0.61814 0.0
H2018 H 0.35118 0.59517 0.65709 0.0
H2019 H 0.31664 0.58695 0.68743 0.0
H2020 H 0.26618 0.5248 0.67415 0.0
H2021 H 0.29033 0.51265 0.63706 0.0
C2022 C 0.33055 0.53656 0.61876 0.0
C2023 C 0.35081 0.55128 0.61043 0.0
C2024 C 0.31728 0.54303 0.64047 0.0
C2025 C 0.35805 0.5725 0.62434 0.0
C2026 C 0.34526 0.57877 0.64654 0.0
C2027 C 0.31116 0.57066 0.67645 0.0
C2028 C 0.28982 0.55668 0.68341 0.0
C2029 C 0.32474 0.56421 0.6547 0.0
C2030 C 0.28253 0.53584 0.66899 0.0
C2031 C 0.29632 0.52888 0.64785 0.0
H2032 H 0.17446 0.59972 0.34584 0.0
H2033 H 0.23676 0.54788 0.33907 0.0
H2034 H 0.22503 0.52817 0.379 0.0
H2035 H 0.19645 0.52503 0.41517 0.0
H2036 H 0.13484 0.5776 0.42257 0.0
H2037 H 0.14704 0.59783 0.38303 0.0
C2038 C 0.18549 0.58412 0.35312 0.0
C2039 C 0.20635 0.57514 0.33947 0.0
C2040 C 0.17877 0.57305 0.37615 0.0
C2041 C 0.22062 0.55511 0.34924 0.0
C2042 C 0.2139 0.54382 0.37203 0.0
C2043 C 0.18571 0.54094 0.40816 0.0
C2044 C 0.16466 0.5497 0.42166 0.0
C2045 C 0.19292 0.55253 0.38554 0.0
C2046 C 0.1511 0.57051 0.4125 0.0
C2047 C 0.15803 0.58203 0.38988 0.0
H2048 H 0.39269 0.39557 0.88794 0.0
H2049 H 0.41113 0.43911 0.82193 0.0
H2050 H 0.3885 0.40916 0.79539 0.0
H2051 H 0.35753 0.37511 0.79213 0.0
H2052 H 0.33528 0.33464 0.85892 0.0
H2053 H 0.36555 0.35853 0.88394 0.0
C2054 C 0.39239 0.39806 0.86766 0.0
C2055 C 0.4034 0.41952 0.85687 0.0
C2056 C 0.37829 0.38148 0.85272 0.0
C2057 C 0.40266 0.42273 0.83063 0.0
C2058 C 0.38961 0.4057 0.81548 0.0
C2059 C 0.35982 0.37107 0.81203 0.0
C2060 C 0.34411 0.35333 0.82374 0.0
C2061 C 0.37643 0.38566 0.82647 0.0
C2062 C 0.34707 0.34839 0.84956 0.0
C2063 C 0.36431 0.36209 0.86388 0.0
H2064 H 0.62393 0.66013 0.96053 0.0
H2065 H 0.59065 0.72344 -0.00116 0.0
H2066 H 0.62921 0.7479 0.99239 0.0
H2067 H 0.67145 0.75198 0.97321 0.0
H2068 H 0.70476 0.68751 0.93654 0.0
H2069 H 0.66732 0.66274 0.94533 0.0
C2070 C 0.62522 0.67925 0.96757 0.0
C2071 C 0.60452 0.69014 0.97983 0.0
C2072 C 0.64745 0.69297 0.96412 0.0
C2073 C 0.60644 0.71473 0.98929 0.0
C2074 C 0.62843 0.72872 0.98555 0.0
C2075 C 0.6706 0.73242 0.96745 0.0
C2076 C 0.69076 0.72172 0.954 0.0
C2077 C 0.64894 0.71814 0.97264 0.0
C2078 C 0.68949 0.69629 0.94683 0.0
C2079 C 0.66803 0.68208 0.95175 0.0
H2080 H 0.60833 0.38795 0.21822 0.0
H2081 H 0.57764 0.31822 0.19064 0.0
H2082 H 0.55151 0.34131 0.16034 0.0
H2083 H 0.53641 0.38169 0.14276 0.0
H2084 H 0.56986 0.45099 0.16843 0.0
H2085 H 0.59604 0.42778 0.19827 0.0
C2086 C 0.59595 0.37788 0.20549 0.0
C2087 C 0.59463 0.35157 0.20669 0.0
C2088 C 0.58155 0.3912 0.18779 0.0
C2089 C 0.5789 0.33855 0.18993 0.0
C2090 C 0.56394 0.35172 0.17269 0.0
C2091 C 0.54959 0.3916 0.15479 0.0
C2092 C 0.55118 0.41794 0.15354 0.0
C2093 C 0.56497 0.37808 0.17159 0.0
C2094 C 0.56844 0.43066 0.169 0.0
C2095 C 0.58332 0.41744 0.18615 0.0
H2096 H 0.90676 0.26347 0.40391 0.0
H2097 H 0.90862 0.33933 0.37488 0.0
H2098 H 0.94643 0.34788 0.4002 0.0
H2099 H 0.97671 0.3344 0.4334 0.0
H2100 H 0.97073 0.25976 0.46475 0.0
H2101 H 0.9367 0.24992 0.43543 0.0
C2102 C 0.91546 0.28188 0.40282 0.0
C2103 C 0.90484 0.30079 0.38757 0.0
C2104 C 0.9364 0.2868 0.41794 0.0
C2105 C 0.91644 0.32448 0.3865 0.0
C2106 C 0.93798 0.32936 0.40101 0.0
C2107 C 0.96811 0.31591 0.43342 0.0
C2108 C 0.97608 0.29771 0.451 0.0
C2109 C 0.94782 0.31077 0.41719 0.0
C2110 C 0.96472 0.27396 0.45135 0.0
C2111 C 0.94532 0.26837 0.43465 0.0
H2112 H 0.88494 0.58953 0.74411 0.0
H2113 H 0.86542 0.62588 0.67407 0.0
H2114 H 0.88478 0.59142 0.65052 0.0
H2115 H 0.91332 0.55452 0.6502 0.0
H2116 H 0.93455 0.52002 0.72049 0.0
H2117 H 0.90817 0.54979 0.74361 0.0
C2118 C 0.88447 0.58968 0.72369 0.0
C2119 C 0.87417 0.6104 0.71087 0.0
C2120 C 0.89609 0.57011 0.71032 0.0
C2121 C 0.87341 0.6102 0.68441 0.0
C2122 C 0.88459 0.59055 0.67091 0.0
C2123 C 0.91138 0.55313 0.67049 0.0
C2124 C 0.92551 0.53517 0.68378 0.0
C2125 C 0.89685 0.57091 0.68368 0.0
C2126 C 0.92351 0.53365 0.71004 0.0
C2127 C 0.90862 0.55078 0.72323 0.0
H2128 H 0.59393 0.31156 0.48574 0.0
H2129 H 0.57688 0.36434 0.54501 0.0
H2130 H 0.61316 0.34928 0.56915 0.0
H2131 H 0.65001 0.32137 0.57317 0.0
H2132 H 0.6659 0.26746 0.51456 0.0
H2133 H 0.62973 0.28263 0.49045 0.0
C2134 C 0.5982 0.3198 0.50391 0.0
C2135 C 0.58288 0.33915 0.5135 0.0
C2136 C 0.61883 0.3108 0.51783 0.0
C2137 C 0.58842 0.34943 0.53722 0.0
C2138 C 0.60916 0.34084 0.55102 0.0
C2139 C 0.64551 0.31292 0.55514 0.0
C2140 C 0.66065 0.29338 0.54563 0.0
C2141 C 0.62453 0.32158 0.54148 0.0
C2142 C 0.6545 0.28248 0.52233 0.0
C2143 C 0.63387 0.2912 0.50849 0.0
H2144 H 0.87014 0.37618 0.81544 0.0
H2145 H 0.90292 0.30328 0.82969 0.0
H2146 H 0.92778 0.32069 0.86429 0.0
H2147 H 0.94579 0.35825 0.88454 0.0
H2148 H 0.91218 0.43098 0.87055 0.0
H2149 H 0.88154 0.41193 0.84233 0.0
C2150 C 0.88221 0.36404 0.82664 0.0
C2151 C 0.88516 0.33872 0.81992 0.0
C2152 C 0.89644 0.37418 0.84636 0.0
C2153 C 0.90048 0.32291 0.83462 0.0
C2154 C 0.91483 0.33289 0.85424 0.0
C2155 C 0.93131 0.36979 0.87585 0.0
C2156 C 0.93164 0.39601 0.87907 0.0
C2157 C 0.91384 0.35875 0.85943 0.0
C2158 C 0.91251 0.41074 0.86813 0.0
C2159 C 0.89506 0.39991 0.85183 0.0
H2160 H 0.89605 0.67433 0.15028 0.0
H2161 H 0.83656 0.64184 0.10562 0.0
H2162 H 0.86773 0.62161 0.07844 0.0
H2163 H 0.9117 0.61809 0.06419 0.0
H2164 H 0.97118 0.64987 0.10935 0.0
H2165 H 0.94019 0.66542 0.13966 0.0
C2166 C 0.88994 0.66236 0.13492 0.0
C2167 C 0.86413 0.65981 0.1297 0.0
C2168 C 0.90793 0.65104 0.11927 0.0
C2169 C 0.85637 0.64405 0.10998 0.0
C2170 C 0.87417 0.63269 0.0943 0.0
C2171 C 0.91784 0.62817 0.08084 0.0
C2172 C 0.94354 0.63329 0.08439 0.0
C2173 C 0.89996 0.63686 0.09822 0.0
C2174 C 0.95142 0.64589 0.10621 0.0
C2175 C 0.93373 0.65482 0.12349 0.0
H2176 H 0.58193 0.65525 0.26501 0.0
H2177 H 0.52019 0.6633 0.2129 0.0
H2178 H 0.49674 0.63041 0.23525 0.0
H2179 H 0.4929 0.60179 0.27156 0.0
H2180 H 0.55604 0.59153 0.32164 0.0
H2181 H 0.58023 0.62279 0.29796 0.0
C2182 C 0.56342 0.64956 0.25851 0.0
C2183 C 0.55247 0.66167 0.23775 0.0
C2184 C 0.55044 0.63042 0.27106 0.0
C2185 C 0.52878 0.65408 0.22897 0.0
C2186 C 0.51541 0.63543 0.24176 0.0
C2187 C 0.51205 0.60631 0.27706 0.0
C2188 C 0.5227 0.59486 0.29838 0.0
C2189 C 0.52589 0.62385 0.26312 0.0
C2190 C 0.5476 0.60029 0.30524 0.0
C2191 C 0.56133 0.61818 0.29182 0.0
H2192 H 0.64149 0.92566 0.59383 0.0
H2193 H 0.59727 0.95441 0.65549 0.0
H2194 H 0.62296 0.93047 0.68547 0.0
H2195 H 0.66095 0.90547 0.69426 0.0
H2196 H 0.70825 0.88148 0.6328 0.0
H2197 H 0.67842 0.89928 0.60248 0.0
C2198 C 0.63715 0.92615 0.61379 0.0
C2199 C 0.61752 0.94151 0.62258 0.0
C2200 C 0.65278 0.91345 0.63088 0.0
C2201 C 0.61233 0.94258 0.64845 0.0
C2202 C 0.62705 0.92901 0.66553 0.0
C2203 C 0.66442 0.90378 0.6742 0.0
C2204 C 0.68662 0.89225 0.66564 0.0
C2205 C 0.64777 0.915 0.65701 0.0
C2206 C 0.69125 0.89043 0.6397 0.0
C2207 C 0.67423 0.90058 0.62241 0.0
loop_
_geom_bond_atom_site_label_1
_geom_bond_atom_site_label_2
_geom_bond_distance
_geom_bond_site_symmetry_2
_ccdc_geom_bond_type
Co0 O1 2.216 . S
Co0 O2 2.091 . S
Co0 O4 2.004 . S
Co0 O10 2.021 . S
Co0 O12 2.137 . S
Co0 O13 2.244 . S
O1 Co0 2.216 . S
O1 C8 1.247 . S
O2 Co0 2.091 . S
O2 C8 1.261 . S
C3 O12 1.247 . S
C3 O13 1.272 . S
O4 Co0 2.004 . S
O4 C9 1.259 . S
Co5 O6 2.061 . S
Co5 O11 2.052 . S
Co5 O13 2.135 . S
O6 Co5 2.061 . S
O6 C9 1.235 . S
C7 O10 1.238 . S
C7 O11 1.241 . S
C8 O1 1.247 . S
C8 O2 1.261 . S
C9 O4 1.259 . S
C9 O6 1.235 . S
O10 Co0 2.021 . S
O10 C7 1.238 . S
O11 Co5 2.052 . S
O11 C7 1.241 . S
O12 Co0 2.137 . S
O12 C3 1.247 . S
O13 Co0 2.244 . S
O13 C3 1.272 . S
O13 Co5 2.135 . S
Co14 O15 2.216 . S
Co14 O16 2.091 . S
Co14 O18 2.004 . S
Co14 O24 2.021 . S
Co14 O26 2.137 . S
Co14 O27 2.244 1_455 S
O15 Co14 2.216 . S
O15 C22 1.247 . S
O16 Co14 2.091 . S
O16 C22 1.261 . S
C17 O26 1.247 1_655 S
C17 O27 1.272 . S
O18 Co14 2.004 . S
O18 C23 1.259 1_565 S
Co19 O20 2.061 1_655 S
Co19 O25 2.052 1_655 S
Co19 O27 2.135 1_545 S
O20 Co19 2.061 1_455 S
O20 C23 1.235 . S
C21 O24 1.238 . S
C21 O25 1.241 1_565 S
C22 O15 1.247 . S
C22 O16 1.261 . S
C23 O18 1.259 1_545 S
C23 O20 1.235 . S
O24 Co14 2.021 . S
O24 C21 1.238 . S
O25 Co19 2.052 1_455 S
O25 C21 1.241 1_545 S
O26 Co14 2.137 . S
O26 C17 1.247 1_455 S
O27 Co14 2.244 1_655 S
O27 C17 1.272 . S
O27 Co19 2.135 1_565 S
Co28 O29 2.216 . S
Co28 O30 2.091 . S
Co28 O32 2.004 . S
Co28 O38 2.021 . S
Co28 O40 2.137 . S
Co28 O41 2.244 . S
O29 Co28 2.216 . S
O29 C36 1.247 . S
O30 Co28 2.091 . S
O30 C36 1.261 . S
C31 O40 1.247 . S
C31 O41 1.272 . S
O32 Co28 2.004 . S
O32 C37 1.259 . S
Co33 O34 2.061 . S
Co33 O39 2.052 . S
Co33 O41 2.135 . S
O34 Co33 2.061 . S
O34 C37 1.235 . S
C35 O38 1.238 . S
C35 O39 1.241 . S
C36 O29 1.247 . S
C36 O30 1.261 . S
C37 O32 1.259 . S
C37 O34 1.235 . S
O38 Co28 2.021 . S
O38 C35 1.238 . S
O39 Co33 2.052 . S
O39 C35 1.241 . S
O40 Co28 2.137 . S
O40 C31 1.247 . S
O41 Co28 2.244 . S
O41 C31 1.272 . S
O41 Co33 2.135 . S
Co42 O43 2.216 . S
Co42 O44 2.091 . S
Co42 O46 2.004 . S
Co42 O52 2.021 . S
Co42 O54 2.137 . S
Co42 O55 2.244 . S
O43 Co42 2.216 . S
O43 C50 1.247 . S
O44 Co42 2.091 . S
O44 C50 1.261 . S
C45 O54 1.247 . S
C45 O55 1.272 . S
O46 Co42 2.004 . S
O46 C51 1.259 1_545 S
Co47 O48 2.061 . S
Co47 O53 2.052 . S
Co47 O55 2.135 1_565 S
O48 Co47 2.061 . S
O48 C51 1.235 . S
C49 O52 1.238 . S
C49 O53 1.241 1_545 S
C50 O43 1.247 . S
C50 O44 1.261 . S
C51 O46 1.259 1_565 S
C51 O48 1.235 . S
O52 Co42 2.021 . S
O52 C49 1.238 . S
O53 Co47 2.052 . S
O53 C49 1.241 1_565 S
O54 Co42 2.137 . S
O54 C45 1.247 . S
O55 Co42 2.244 . S
O55 C45 1.272 . S
O55 Co47 2.135 1_545 S
Co56 O57 2.216 . S
Co56 O58 2.091 . S
Co56 O60 2.004 . S
Co56 O66 2.021 . S
Co56 O68 2.137 . S
Co56 O69 2.244 . S
O57 Co56 2.216 . S
O57 C64 1.247 . S
O58 Co56 2.091 . S
O58 C64 1.261 . S
C59 O68 1.247 . S
C59 O69 1.272 . S
O60 Co56 2.004 . S
O60 C65 1.259 . S
Co61 O62 2.061 . S
Co61 O67 2.052 . S
Co61 O69 2.135 . S
O62 Co61 2.061 . S
O62 C65 1.235 . S
C63 O66 1.238 . S
C63 O67 1.241 . S
C64 O57 1.247 . S
C64 O58 1.261 . S
C65 O60 1.259 . S
C65 O62 1.235 . S
O66 Co56 2.021 . S
O66 C63 1.238 . S
O67 Co61 2.052 . S
O67 C63 1.241 . S
O68 Co56 2.137 . S
O68 C59 1.247 . S
O69 Co56 2.244 . S
O69 C59 1.272 . S
O69 Co61 2.135 . S
Co70 O71 2.216 . S
Co70 O72 2.091 . S
Co70 O74 2.004 . S
Co70 O80 2.021 . S
Co70 O82 2.137 . S
Co70 O83 2.244 . S
O71 Co70 2.216 . S
O71 C78 1.247 . S
O72 Co70 2.091 . S
O72 C78 1.261 . S
C73 O82 1.247 . S
C73 O83 1.272 . S
O74 Co70 2.004 . S
O74 C79 1.259 1_565 S
Co75 O76 2.061 . S
Co75 O81 2.052 . S
Co75 O83 2.135 1_545 S
O76 Co75 2.061 . S
O76 C79 1.235 . S
C77 O80 1.238 . S
C77 O81 1.241 1_565 S
C78 O71 1.247 . S
C78 O72 1.261 . S
C79 O74 1.259 1_545 S
C79 O76 1.235 . S
O80 Co70 2.021 . S
O80 C77 1.238 . S
O81 Co75 2.052 . S
O81 C77 1.241 1_545 S
O82 Co70 2.137 . S
O82 C73 1.247 . S
O83 Co70 2.244 . S
O83 C73 1.272 . S
O83 Co75 2.135 1_565 S
Co84 O85 2.216 . S
Co84 O86 2.091 . S
Co84 O88 2.004 . S
Co84 O94 2.021 . S
Co84 O96 2.137 . S
Co84 O97 2.244 . S
O85 Co84 2.216 . S
O85 C92 1.247 . S
O86 Co84 2.091 . S
O86 C92 1.261 . S
C87 O96 1.247 . S
C87 O97 1.272 . S
O88 Co84 2.004 . S
O88 C93 1.259 . S
Co89 O90 2.061 . S
Co89 O95 2.052 . S
Co89 O97 2.135 . S
O90 Co89 2.061 . S
O90 C93 1.235 . S
C91 O94 1.238 . S
C91 O95 1.241 . S
C92 O85 1.247 . S
C92 O86 1.261 . S
C93 O88 1.259 . S
C93 O90 1.235 . S
O94 Co84 2.021 . S
O94 C91 1.238 . S
O95 Co89 2.052 . S
O95 C91 1.241 . S
O96 Co84 2.137 . S
O96 C87 1.247 . S
O97 Co84 2.244 . S
O97 C87 1.272 . S
O97 Co89 2.135 . S
Co98 O99 2.216 . S
Co98 O100 2.091 . S
Co98 O102 2.004 . S
Co98 O108 2.021 . S
Co98 O110 2.137 . S
Co98 O111 2.244 1_455 S
O99 Co98 2.216 . S
O99 C106 1.247 . S
O100 Co98 2.091 . S
O100 C106 1.261 . S
C101 O110 1.247 1_655 S
C101 O111 1.272 . S
O102 Co98 2.004 . S
O102 C107 1.259 1_545 S
Co103 O104 2.061 1_655 S
Co103 O109 2.052 1_655 S
Co103 O111 2.135 1_565 S
O104 Co103 2.061 1_455 S
O104 C107 1.235 . S
C105 O108 1.238 . S
C105 O109 1.241 1_545 S
C106 O99 1.247 . S
C106 O100 1.261 . S
C107 O102 1.259 1_565 S
C107 O104 1.235 . S
O108 Co98 2.021 . S
O108 C105 1.238 . S
O109 Co103 2.052 1_455 S
O109 C105 1.241 1_565 S
O110 Co98 2.137 . S
O110 C101 1.247 1_455 S
O111 Co98 2.244 1_655 S
O111 C101 1.272 . S
O111 Co103 2.135 1_545 S
Co112 O113 2.216 . S
Co112 O114 2.091 . S
Co112 O116 2.004 . S
Co112 O122 2.021 . S
Co112 O124 2.137 . S
Co112 O125 2.244 . S
O113 Co112 2.216 . S
O113 C120 1.247 . S
O114 Co112 2.091 . S
O114 C120 1.261 . S
C115 O124 1.247 . S
C115 O125 1.272 . S
O116 Co112 2.004 . S
O116 C121 1.259 . S
Co117 O118 2.061 . S
Co117 O123 2.052 . S
Co117 O125 2.135 . S
O118 Co117 2.061 . S
O118 C121 1.235 . S
C119 O122 1.238 . S
C119 O123 1.241 . S
C120 O113 1.247 . S
C120 O114 1.261 . S
C121 O116 1.259 . S
C121 O118 1.235 . S
O122 Co112 2.021 . S
O122 C119 1.238 . S
O123 Co117 2.052 . S
O123 C119 1.241 . S
O124 Co112 2.137 . S
O124 C115 1.247 . S
O125 Co112 2.244 . S
O125 C115 1.272 . S
O125 Co117 2.135 . S
Co126 O127 2.216 . S
Co126 O128 2.091 . S
Co126 O130 2.004 . S
Co126 O136 2.021 . S
Co126 O138 2.137 . S
Co126 O139 2.244 . S
O127 Co126 2.216 . S
O127 C134 1.247 . S
O128 Co126 2.091 . S
O128 C134 1.261 . S
C129 O138 1.247 . S
C129 O139 1.272 . S
O130 Co126 2.004 . S
O130 C135 1.259 1_455 S
Co131 O132 2.061 . S
Co131 O137 2.052 . S
Co131 O139 2.135 1_655 S
O132 Co131 2.061 . S
O132 C135 1.235 . S
C133 O136 1.238 . S
C133 O137 1.241 1_455 S
C134 O127 1.247 . S
C134 O128 1.261 . S
C135 O130 1.259 1_655 S
C135 O132 1.235 . S
O136 Co126 2.021 . S
O136 C133 1.238 . S
O137 Co131 2.052 . S
O137 C133 1.241 1_655 S
O138 Co126 2.137 . S
O138 C129 1.247 . S
O139 Co126 2.244 . S
O139 C129 1.272 . S
O139 Co131 2.135 1_455 S
Co140 O141 2.216 . S
Co140 O142 2.091 . S
Co140 O144 2.004 . S
Co140 O150 2.021 . S
Co140 O152 2.137 . S
Co140 O153 2.244 . S
O141 Co140 2.216 . S
O141 C148 1.247 . S
O142 Co140 2.091 . S
O142 C148 1.261 . S
C143 O152 1.247 . S
C143 O153 1.272 . S
O144 Co140 2.004 . S
O144 C149 1.259 . S
Co145 O146 2.061 . S
Co145 O151 2.052 . S
Co145 O153 2.135 . S
O146 Co145 2.061 . S
O146 C149 1.235 . S
C147 O150 1.238 . S
C147 O151 1.241 . S
C148 O141 1.247 . S
C148 O142 1.261 . S
C149 O144 1.259 . S
C149 O146 1.235 . S
O150 Co140 2.021 . S
O150 C147 1.238 . S
O151 Co145 2.052 . S
O151 C147 1.241 . S
O152 Co140 2.137 . S
O152 C143 1.247 . S
O153 Co140 2.244 . S
O153 C143 1.272 . S
O153 Co145 2.135 . S
Co154 O155 2.216 . S
Co154 O156 2.091 . S
Co154 O158 2.004 . S
Co154 O164 2.021 . S
Co154 O166 2.137 . S
Co154 O167 2.244 1_556 S
O155 Co154 2.216 . S
O155 C162 1.247 . S
O156 Co154 2.091 . S
O156 C162 1.261 . S
C157 O166 1.247 1_554 S
C157 O167 1.272 . S
O158 Co154 2.004 . S
O158 C163 1.259 . S
Co159 O160 2.061 1_554 S
Co159 O165 2.052 1_554 S
Co159 O167 2.135 . S
O160 Co159 2.061 1_556 S
O160 C163 1.235 . S
C161 O164 1.238 . S
C161 O165 1.241 . S
C162 O155 1.247 . S
C162 O156 1.261 . S
C163 O158 1.259 . S
C163 O160 1.235 . S
O164 Co154 2.021 . S
O164 C161 1.238 . S
O165 Co159 2.052 1_556 S
O165 C161 1.241 . S
O166 Co154 2.137 . S
O166 C157 1.247 1_556 S
O167 Co154 2.244 1_554 S
O167 C157 1.272 . S
O167 Co159 2.135 . S
Co168 O169 2.216 . S
Co168 O170 2.091 . S
Co168 O172 2.004 . S
Co168 O178 2.021 . S
Co168 O180 2.137 . S
Co168 O181 2.244 . S
O169 Co168 2.216 . S
O169 C176 1.247 . S
O170 Co168 2.091 . S
O170 C176 1.261 . S
C171 O180 1.247 . S
C171 O181 1.272 . S
O172 Co168 2.004 . S
O172 C177 1.259 . S
Co173 O174 2.061 . S
Co173 O179 2.052 . S
Co173 O181 2.135 . S
O174 Co173 2.061 . S
O174 C177 1.235 . S
C175 O178 1.238 . S
C175 O179 1.241 . S
C176 O169 1.247 . S
C176 O170 1.261 . S
C177 O172 1.259 . S
C177 O174 1.235 . S
O178 Co168 2.021 . S
O178 C175 1.238 . S
O179 Co173 2.052 . S
O179 C175 1.241 . S
O180 Co168 2.137 . S
O180 C171 1.247 . S
O181 Co168 2.244 . S
O181 C171 1.272 . S
O181 Co173 2.135 . S
Co182 O183 2.216 . S
Co182 O184 2.091 . S
Co182 O186 2.004 . S
Co182 O192 2.021 . S
Co182 O194 2.137 . S
Co182 O195 2.244 . S
O183 Co182 2.216 . S
O183 C190 1.247 . S
O184 Co182 2.091 . S
O184 C190 1.261 . S
C185 O194 1.247 . S
C185 O195 1.272 . S
O186 Co182 2.004 . S
O186 C191 1.259 . S
Co187 O188 2.061 . S
Co187 O193 2.052 . S
Co187 O195 2.135 . S
O188 Co187 2.061 . S
O188 C191 1.235 . S
C189 O192 1.238 . S
C189 O193 1.241 . S
C190 O183 1.247 . S
C190 O184 1.261 . S
C191 O186 1.259 . S
C191 O188 1.235 . S
O192 Co182 2.021 . S
O192 C189 1.238 . S
O193 Co187 2.052 . S
O193 C189 1.241 . S
O194 Co182 2.137 . S
O194 C185 1.247 . S
O195 Co182 2.244 . S
O195 C185 1.272 . S
O195 Co187 2.135 . S
Co196 O197 2.216 . S
Co196 O198 2.091 . S
Co196 O200 2.004 . S
Co196 O206 2.021 . S
Co196 O208 2.137 . S
Co196 O209 2.244 . S
O197 Co196 2.216 . S
O197 C204 1.247 . S
O198 Co196 2.091 . S
O198 C204 1.261 . S
C199 O208 1.247 . S
C199 O209 1.272 . S
O200 Co196 2.004 . S
O200 C205 1.259 . S
Co201 O202 2.061 . S
Co201 O207 2.052 . S
Co201 O209 2.135 . S
O202 Co201 2.061 . S
O202 C205 1.235 . S
C203 O206 1.238 . S
C203 O207 1.241 . S
C204 O197 1.247 . S
C204 O198 1.261 . S
C205 O200 1.259 . S
C205 O202 1.235 . S
O206 Co196 2.021 . S
O206 C203 1.238 . S
O207 Co201 2.052 . S
O207 C203 1.241 . S
O208 Co196 2.137 . S
O208 C199 1.247 . S
O209 Co196 2.244 . S
O209 C199 1.272 . S
O209 Co201 2.135 . S
Co210 O211 2.216 . S
Co210 O212 2.091 . S
Co210 O214 2.004 . S
Co210 O220 2.021 . S
Co210 O222 2.137 . S
Co210 O223 2.244 1_554 S
O211 Co210 2.216 . S
O211 C218 1.247 . S
O212 Co210 2.091 . S
O212 C218 1.261 . S
C213 O222 1.247 1_556 S
C213 O223 1.272 . S
O214 Co210 2.004 . S
O214 C219 1.259 1_455 S
Co215 O216 2.061 1_556 S
Co215 O221 2.052 1_556 S
Co215 O223 2.135 1_655 S
O216 Co215 2.061 1_554 S
O216 C219 1.235 . S
C217 O220 1.238 . S
C217 O221 1.241 1_455 S
C218 O211 1.247 . S
C218 O212 1.261 . S
C219 O214 1.259 1_655 S
C219 O216 1.235 . S
O220 Co210 2.021 . S
O220 C217 1.238 . S
O221 Co215 2.052 1_554 S
O221 C217 1.241 1_655 S
O222 Co210 2.137 . S
O222 C213 1.247 1_554 S
O223 Co210 2.244 1_556 S
O223 C213 1.272 . S
O223 Co215 2.135 1_455 S
Co224 O225 2.216 . S
Co224 O226 2.091 . S
Co224 O228 2.004 . S
Co224 O234 2.021 . S
Co224 O236 2.137 . S
Co224 O237 2.244 . S
O225 Co224 2.216 . S
O225 C232 1.247 . S
O226 Co224 2.091 . S
O226 C232 1.261 . S
C227 O236 1.247 . S
C227 O237 1.272 . S
O228 Co224 2.004 . S
O228 C233 1.259 . S
Co229 O230 2.061 . S
Co229 O235 2.052 . S
Co229 O237 2.135 . S
O230 Co229 2.061 . S
O230 C233 1.235 . S
C231 O234 1.238 . S
C231 O235 1.241 . S
C232 O225 1.247 . S
C232 O226 1.261 . S
C233 O228 1.259 . S
C233 O230 1.235 . S
O234 Co224 2.021 . S
O234 C231 1.238 . S
O235 Co229 2.052 . S
O235 C231 1.241 . S
O236 Co224 2.137 . S
O236 C227 1.247 . S
O237 Co224 2.244 . S
O237 C227 1.272 . S
O237 Co229 2.135 . S
Co238 O239 2.216 . S
Co238 O240 2.091 . S
Co238 O242 2.004 . S
Co238 O248 2.021 . S
Co238 O250 2.137 . S
Co238 O251 2.244 . S
O239 Co238 2.216 . S
O239 C246 1.247 . S
O240 Co238 2.091 . S
O240 C246 1.261 . S
C241 O250 1.247 . S
C241 O251 1.272 . S
O242 Co238 2.004 . S
O242 C247 1.259 . S
Co243 O244 2.061 . S
Co243 O249 2.052 . S
Co243 O251 2.135 . S
O244 Co243 2.061 . S
O244 C247 1.235 . S
C245 O248 1.238 . S
C245 O249 1.241 . S
C246 O239 1.247 . S
C246 O240 1.261 . S
C247 O242 1.259 . S
C247 O244 1.235 . S
O248 Co238 2.021 . S
O248 C245 1.238 . S
O249 Co243 2.052 . S
O249 C245 1.241 . S
O250 Co238 2.137 . S
O250 C241 1.247 . S
O251 Co238 2.244 . S
O251 C241 1.272 . S
O251 Co243 2.135 . S
Co252 O253 2.216 . S
Co252 O254 2.091 . S
Co252 O256 2.004 . S
Co252 O262 2.021 . S
Co252 O264 2.137 . S
Co252 O265 2.244 . S
O253 Co252 2.216 . S
O253 C260 1.247 . S
O254 Co252 2.091 . S
O254 C260 1.261 . S
C255 O264 1.247 . S
C255 O265 1.272 . S
O256 Co252 2.004 . S
O256 C261 1.259 1_554 S
Co257 O258 2.061 . S
Co257 O263 2.052 . S
Co257 O265 2.135 1_556 S
O258 Co257 2.061 . S
O258 C261 1.235 . S
C259 O262 1.238 . S
C259 O263 1.241 1_554 S
C260 O253 1.247 . S
C260 O254 1.261 . S
C261 O256 1.259 1_556 S
C261 O258 1.235 . S
O262 Co252 2.021 . S
O262 C259 1.238 . S
O263 Co257 2.052 . S
O263 C259 1.241 1_556 S
O264 Co252 2.137 . S
O264 C255 1.247 . S
O265 Co252 2.244 . S
O265 C255 1.272 . S
O265 Co257 2.135 1_554 S
Co266 O267 2.216 . S
Co266 O268 2.091 . S
Co266 O270 2.004 . S
Co266 O276 2.021 . S
Co266 O278 2.137 . S
Co266 O279 2.244 . S
O267 Co266 2.216 . S
O267 C274 1.247 . S
O268 Co266 2.091 . S
O268 C274 1.261 . S
C269 O278 1.247 . S
C269 O279 1.272 . S
O270 Co266 2.004 . S
O270 C275 1.259 . S
Co271 O272 2.061 . S
Co271 O277 2.052 . S
Co271 O279 2.135 . S
O272 Co271 2.061 . S
O272 C275 1.235 . S
C273 O276 1.238 . S
C273 O277 1.241 . S
C274 O267 1.247 . S
C274 O268 1.261 . S
C275 O270 1.259 . S
C275 O272 1.235 . S
O276 Co266 2.021 . S
O276 C273 1.238 . S
O277 Co271 2.052 . S
O277 C273 1.241 . S
O278 Co266 2.137 . S
O278 C269 1.247 . S
O279 Co266 2.244 . S
O279 C269 1.272 . S
O279 Co271 2.135 . S
Co280 O281 2.216 . S
Co280 O282 2.091 . S
Co280 O284 2.004 . S
Co280 O290 2.021 . S
Co280 O292 2.137 . S
Co280 O293 2.244 1_545 S
O281 Co280 2.216 . S
O281 C288 1.247 . S
O282 Co280 2.091 . S
O282 C288 1.261 . S
C283 O292 1.247 1_565 S
C283 O293 1.272 . S
O284 Co280 2.004 . S
O284 C289 1.259 1_554 S
Co285 O286 2.061 1_565 S
Co285 O291 2.052 1_565 S
Co285 O293 2.135 1_556 S
O286 Co285 2.061 1_545 S
O286 C289 1.235 . S
C287 O290 1.238 . S
C287 O291 1.241 1_554 S
C288 O281 1.247 . S
C288 O282 1.261 . S
C289 O284 1.259 1_556 S
C289 O286 1.235 . S
O290 Co280 2.021 . S
O290 C287 1.238 . S
O291 Co285 2.052 1_545 S
O291 C287 1.241 1_556 S
O292 Co280 2.137 . S
O292 C283 1.247 1_545 S
O293 Co280 2.244 1_565 S
O293 C283 1.272 . S
O293 Co285 2.135 1_554 S
Co294 O295 2.216 . S
Co294 O296 2.091 . S
Co294 O298 2.004 . S
Co294 O304 2.021 . S
Co294 O306 2.137 . S
Co294 O307 2.244 . S
O295 Co294 2.216 . S
O295 C302 1.247 . S
O296 Co294 2.091 . S
O296 C302 1.261 . S
C297 O306 1.247 . S
C297 O307 1.272 . S
O298 Co294 2.004 . S
O298 C303 1.259 . S
Co299 O300 2.061 . S
Co299 O305 2.052 . S
Co299 O307 2.135 . S
O300 Co299 2.061 . S
O300 C303 1.235 . S
C301 O304 1.238 . S
C301 O305 1.241 . S
C302 O295 1.247 . S
C302 O296 1.261 . S
C303 O298 1.259 . S
C303 O300 1.235 . S
O304 Co294 2.021 . S
O304 C301 1.238 . S
O305 Co299 2.052 . S
O305 C301 1.241 . S
O306 Co294 2.137 . S
O306 C297 1.247 . S
O307 Co294 2.244 . S
O307 C297 1.272 . S
O307 Co299 2.135 . S
Co308 O309 2.216 . S
Co308 O310 2.091 . S
Co308 O312 2.004 . S
Co308 O318 2.021 . S
Co308 O320 2.137 . S
Co308 O321 2.244 . S
O309 Co308 2.216 . S
O309 C316 1.247 . S
O310 Co308 2.091 . S
O310 C316 1.261 . S
C311 O320 1.247 . S
C311 O321 1.272 . S
O312 Co308 2.004 . S
O312 C317 1.259 . S
Co313 O314 2.061 . S
Co313 O319 2.052 . S
Co313 O321 2.135 . S
O314 Co313 2.061 . S
O314 C317 1.235 . S
C315 O318 1.238 . S
C315 O319 1.241 . S
C316 O309 1.247 . S
C316 O310 1.261 . S
C317 O312 1.259 . S
C317 O314 1.235 . S
O318 Co308 2.021 . S
O318 C315 1.238 . S
O319 Co313 2.052 . S
O319 C315 1.241 . S
O320 Co308 2.137 . S
O320 C311 1.247 . S
O321 Co308 2.244 . S
O321 C311 1.272 . S
O321 Co313 2.135 . S
Co322 O323 2.216 . S
Co322 O324 2.091 . S
Co322 O326 2.004 . S
Co322 O332 2.021 . S
Co322 O334 2.137 . S
Co322 O335 2.244 . S
O323 Co322 2.216 . S
O323 C330 1.247 . S
O324 Co322 2.091 . S
O324 C330 1.261 . S
C325 O334 1.247 . S
C325 O335 1.272 . S
O326 Co322 2.004 . S
O326 C331 1.259 1_556 S
Co327 O328 2.061 . S
Co327 O333 2.052 . S
Co327 O335 2.135 1_554 S
O328 Co327 2.061 . S
O328 C331 1.235 . S
C329 O332 1.238 . S
C329 O333 1.241 1_556 S
C330 O323 1.247 . S
C330 O324 1.261 . S
C331 O326 1.259 1_554 S
C331 O328 1.235 . S
O332 Co322 2.021 . S
O332 C329 1.238 . S
O333 Co327 2.052 . S
O333 C329 1.241 1_554 S
O334 Co322 2.137 . S
O334 C325 1.247 . S
O335 Co322 2.244 . S
O335 C325 1.272 . S
O335 Co327 2.135 1_556 S
Co336 O337 2.216 . S
Co336 O338 2.091 . S
Co336 O340 2.004 . S
Co336 O346 2.021 . S
Co336 O348 2.137 . S
Co336 O349 2.244 . S
O337 Co336 2.216 . S
O337 C344 1.247 . S
O338 Co336 2.091 . S
O338 C344 1.261 . S
C339 O348 1.247 . S
C339 O349 1.272 . S
O340 Co336 2.004 . S
O340 C345 1.259 . S
Co341 O342 2.061 . S
Co341 O347 2.052 . S
Co341 O349 2.135 . S
O342 Co341 2.061 . S
O342 C345 1.235 . S
C343 O346 1.238 . S
C343 O347 1.241 . S
C344 O337 1.247 . S
C344 O338 1.261 . S
C345 O340 1.259 . S
C345 O342 1.235 . S
O346 Co336 2.021 . S
O346 C343 1.238 . S
O347 Co341 2.052 . S
O347 C343 1.241 . S
O348 Co336 2.137 . S
O348 C339 1.247 . S
O349 Co336 2.244 . S
O349 C339 1.272 . S
O349 Co341 2.135 . S
Co350 O351 2.216 . S
Co350 O352 2.091 . S
Co350 O354 2.004 . S
Co350 O360 2.021 . S
Co350 O362 2.137 . S
Co350 O363 2.244 . S
O351 Co350 2.216 . S
O351 C358 1.247 . S
O352 Co350 2.091 . S
O352 C358 1.261 . S
C353 O362 1.247 . S
C353 O363 1.272 . S
O354 Co350 2.004 . S
O354 C359 1.259 . S
Co355 O356 2.061 . S
Co355 O361 2.052 . S
Co355 O363 2.135 . S
O356 Co355 2.061 . S
O356 C359 1.235 . S
C357 O360 1.238 . S
C357 O361 1.241 . S
C358 O351 1.247 . S
C358 O352 1.261 . S
C359 O354 1.259 . S
C359 O356 1.235 . S
O360 Co350 2.021 . S
O360 C357 1.238 . S
O361 Co355 2.052 . S
O361 C357 1.241 . S
O362 Co350 2.137 . S
O362 C353 1.247 . S
O363 Co350 2.244 . S
O363 C353 1.272 . S
O363 Co355 2.135 . S
Co364 O365 2.216 . S
Co364 O366 2.091 . S
Co364 O368 2.004 . S
Co364 O374 2.021 . S
Co364 O376 2.137 . S
Co364 O377 2.244 . S
O365 Co364 2.216 . S
O365 C372 1.247 . S
O366 Co364 2.091 . S
O366 C372 1.261 . S
C367 O376 1.247 . S
C367 O377 1.272 . S
O368 Co364 2.004 . S
O368 C373 1.259 . S
Co369 O370 2.061 . S
Co369 O375 2.052 . S
Co369 O377 2.135 . S
O370 Co369 2.061 . S
O370 C373 1.235 . S
C371 O374 1.238 . S
C371 O375 1.241 . S
C372 O365 1.247 . S
C372 O366 1.261 . S
C373 O368 1.259 . S
C373 O370 1.235 . S
O374 Co364 2.021 . S
O374 C371 1.238 . S
O375 Co369 2.052 . S
O375 C371 1.241 . S
O376 Co364 2.137 . S
O376 C367 1.247 . S
O377 Co364 2.244 . S
O377 C367 1.272 . S
O377 Co369 2.135 . S
Co378 O379 2.216 . S
Co378 O380 2.091 . S
Co378 O382 2.004 . S
Co378 O388 2.021 . S
Co378 O390 2.137 . S
Co378 O391 2.244 1_655 S
O379 Co378 2.216 . S
O379 C386 1.247 . S
O380 Co378 2.091 . S
O380 C386 1.261 . S
C381 O390 1.247 1_455 S
C381 O391 1.272 . S
O382 Co378 2.004 . S
O382 C387 1.259 . S
Co383 O384 2.061 1_455 S
Co383 O389 2.052 1_455 S
Co383 O391 2.135 . S
O384 Co383 2.061 1_655 S
O384 C387 1.235 . S
C385 O388 1.238 . S
C385 O389 1.241 . S
C386 O379 1.247 . S
C386 O380 1.261 . S
C387 O382 1.259 . S
C387 O384 1.235 . S
O388 Co378 2.021 . S
O388 C385 1.238 . S
O389 Co383 2.052 1_655 S
O389 C385 1.241 . S
O390 Co378 2.137 . S
O390 C381 1.247 1_655 S
O391 Co378 2.244 1_455 S
O391 C381 1.272 . S
O391 Co383 2.135 . S
Co392 O393 2.216 . S
Co392 O394 2.091 . S
Co392 O396 2.004 . S
Co392 O402 2.021 . S
Co392 O404 2.137 . S
Co392 O405 2.244 . S
O393 Co392 2.216 . S
O393 C400 1.247 . S
O394 Co392 2.091 . S
O394 C400 1.261 . S
C395 O404 1.247 . S
C395 O405 1.272 . S
O396 Co392 2.004 . S
O396 C401 1.259 . S
Co397 O398 2.061 . S
Co397 O403 2.052 . S
Co397 O405 2.135 . S
O398 Co397 2.061 . S
O398 C401 1.235 . S
C399 O402 1.238 . S
C399 O403 1.241 . S
C400 O393 1.247 . S
C400 O394 1.261 . S
C401 O396 1.259 . S
C401 O398 1.235 . S
O402 Co392 2.021 . S
O402 C399 1.238 . S
O403 Co397 2.052 . S
O403 C399 1.241 . S
O404 Co392 2.137 . S
O404 C395 1.247 . S
O405 Co392 2.244 . S
O405 C395 1.272 . S
O405 Co397 2.135 . S
Co406 O407 2.216 . S
Co406 O408 2.091 . S
Co406 O410 2.004 . S
Co406 O416 2.021 . S
Co406 O418 2.137 . S
Co406 O419 2.244 1_655 S
O407 Co406 2.216 . S
O407 C414 1.247 . S
O408 Co406 2.091 . S
O408 C414 1.261 . S
C409 O418 1.247 1_455 S
C409 O419 1.272 . S
O410 Co406 2.004 . S
O410 C415 1.259 . S
Co411 O412 2.061 1_455 S
Co411 O417 2.052 1_455 S
Co411 O419 2.135 . S
O412 Co411 2.061 1_655 S
O412 C415 1.235 . S
C413 O416 1.238 . S
C413 O417 1.241 . S
C414 O407 1.247 . S
C414 O408 1.261 . S
C415 O410 1.259 . S
C415 O412 1.235 . S
O416 Co406 2.021 . S
O416 C413 1.238 . S
O417 Co411 2.052 1_655 S
O417 C413 1.241 . S
O418 Co406 2.137 . S
O418 C409 1.247 1_655 S
O419 Co406 2.244 1_455 S
O419 C409 1.272 . S
O419 Co411 2.135 . S
Co420 O421 2.216 . S
Co420 O422 2.091 . S
Co420 O424 2.004 . S
Co420 O430 2.021 . S
Co420 O432 2.137 . S
Co420 O433 2.244 . S
O421 Co420 2.216 . S
O421 C428 1.247 . S
O422 Co420 2.091 . S
O422 C428 1.261 . S
C423 O432 1.247 . S
C423 O433 1.272 . S
O424 Co420 2.004 . S
O424 C429 1.259 . S
Co425 O426 2.061 . S
Co425 O431 2.052 . S
Co425 O433 2.135 . S
O426 Co425 2.061 . S
O426 C429 1.235 . S
C427 O430 1.238 . S
C427 O431 1.241 . S
C428 O421 1.247 . S
C428 O422 1.261 . S
C429 O424 1.259 . S
C429 O426 1.235 . S
O430 Co420 2.021 . S
O430 C427 1.238 . S
O431 Co425 2.052 . S
O431 C427 1.241 . S
O432 Co420 2.137 . S
O432 C423 1.247 . S
O433 Co420 2.244 . S
O433 C423 1.272 . S
O433 Co425 2.135 . S
Co434 O435 2.216 . S
Co434 O436 2.091 . S
Co434 O438 2.004 . S
Co434 O444 2.021 . S
Co434 O446 2.137 . S
Co434 O447 2.244 . S
O435 Co434 2.216 . S
O435 C442 1.247 . S
O436 Co434 2.091 . S
O436 C442 1.261 . S
C437 O446 1.247 . S
C437 O447 1.272 . S
O438 Co434 2.004 . S
O438 C443 1.259 . S
Co439 O440 2.061 . S
Co439 O445 2.052 . S
Co439 O447 2.135 . S
O440 Co439 2.061 . S
O440 C443 1.235 . S
C441 O444 1.238 . S
C441 O445 1.241 . S
C442 O435 1.247 . S
C442 O436 1.261 . S
C443 O438 1.259 . S
C443 O440 1.235 . S
O444 Co434 2.021 . S
O444 C441 1.238 . S
O445 Co439 2.052 . S
O445 C441 1.241 . S
O446 Co434 2.137 . S
O446 C437 1.247 . S
O447 Co434 2.244 . S
O447 C437 1.272 . S
O447 Co439 2.135 . S
Co448 O449 2.216 . S
Co448 O450 2.091 . S
Co448 O452 2.004 . S
Co448 O458 2.021 . S
Co448 O460 2.137 . S
Co448 O461 2.244 . S
O449 Co448 2.216 . S
O449 C456 1.247 . S
O450 Co448 2.091 . S
O450 C456 1.261 . S
C451 O460 1.247 . S
C451 O461 1.272 . S
O452 Co448 2.004 . S
O452 C457 1.259 . S
Co453 O454 2.061 . S
Co453 O459 2.052 . S
Co453 O461 2.135 . S
O454 Co453 2.061 . S
O454 C457 1.235 . S
C455 O458 1.238 . S
C455 O459 1.241 . S
C456 O449 1.247 . S
C456 O450 1.261 . S
C457 O452 1.259 . S
C457 O454 1.235 . S
O458 Co448 2.021 . S
O458 C455 1.238 . S
O459 Co453 2.052 . S
O459 C455 1.241 . S
O460 Co448 2.137 . S
O460 C451 1.247 . S
O461 Co448 2.244 . S
O461 C451 1.272 . S
O461 Co453 2.135 . S
Co462 O463 2.216 . S
Co462 O464 2.091 . S
Co462 O466 2.004 . S
Co462 O472 2.021 . S
Co462 O474 2.137 . S
Co462 O475 2.244 1_556 S
O463 Co462 2.216 . S
O463 C470 1.247 . S
O464 Co462 2.091 . S
O464 C470 1.261 . S
C465 O474 1.247 1_554 S
C465 O475 1.272 . S
O466 Co462 2.004 . S
O466 C471 1.259 . S
Co467 O468 2.061 1_554 S
Co467 O473 2.052 1_554 S
Co467 O475 2.135 . S
O468 Co467 2.061 1_556 S
O468 C471 1.235 . S
C469 O472 1.238 . S
C469 O473 1.241 . S
C470 O463 1.247 . S
C470 O464 1.261 . S
C471 O466 1.259 . S
C471 O468 1.235 . S
O472 Co462 2.021 . S
O472 C469 1.238 . S
O473 Co467 2.052 1_556 S
O473 C469 1.241 . S
O474 Co462 2.137 . S
O474 C465 1.247 1_556 S
O475 Co462 2.244 1_554 S
O475 C465 1.272 . S
O475 Co467 2.135 . S
Co476 O477 2.216 . S
Co476 O478 2.091 . S
Co476 O480 2.004 . S
Co476 O486 2.021 . S
Co476 O488 2.137 . S
Co476 O489 2.244 . S
O477 Co476 2.216 . S
O477 C484 1.247 . S
O478 Co476 2.091 . S
O478 C484 1.261 . S
C479 O488 1.247 . S
C479 O489 1.272 . S
O480 Co476 2.004 . S
O480 C485 1.259 . S
Co481 O482 2.061 . S
Co481 O487 2.052 . S
Co481 O489 2.135 . S
O482 Co481 2.061 . S
O482 C485 1.235 . S
C483 O486 1.238 . S
C483 O487 1.241 . S
C484 O477 1.247 . S
C484 O478 1.261 . S
C485 O480 1.259 . S
C485 O482 1.235 . S
O486 Co476 2.021 . S
O486 C483 1.238 . S
O487 Co481 2.052 . S
O487 C483 1.241 . S
O488 Co476 2.137 . S
O488 C479 1.247 . S
O489 Co476 2.244 . S
O489 C479 1.272 . S
O489 Co481 2.135 . S
Co490 O491 2.216 . S
Co490 O492 2.091 . S
Co490 O494 2.004 . S
Co490 O500 2.021 . S
Co490 O502 2.137 . S
Co490 O503 2.244 . S
O491 Co490 2.216 . S
O491 C498 1.247 . S
O492 Co490 2.091 . S
O492 C498 1.261 . S
C493 O502 1.247 . S
C493 O503 1.272 . S
O494 Co490 2.004 . S
O494 C499 1.259 1_655 S
Co495 O496 2.061 . S
Co495 O501 2.052 . S
Co495 O503 2.135 1_455 S
O496 Co495 2.061 . S
O496 C499 1.235 . S
C497 O500 1.238 . S
C497 O501 1.241 1_655 S
C498 O491 1.247 . S
C498 O492 1.261 . S
C499 O494 1.259 1_455 S
C499 O496 1.235 . S
O500 Co490 2.021 . S
O500 C497 1.238 . S
O501 Co495 2.052 . S
O501 C497 1.241 1_455 S
O502 Co490 2.137 . S
O502 C493 1.247 . S
O503 Co490 2.244 . S
O503 C493 1.272 . S
O503 Co495 2.135 1_655 S
Co504 O505 2.216 . S
Co504 O506 2.091 . S
Co504 O508 2.004 . S
Co504 O514 2.021 . S
Co504 O516 2.137 . S
Co504 O517 2.244 . S
O505 Co504 2.216 . S
O505 C512 1.247 . S
O506 Co504 2.091 . S
O506 C512 1.261 . S
C507 O516 1.247 . S
C507 O517 1.272 . S
O508 Co504 2.004 . S
O508 C513 1.259 . S
Co509 O510 2.061 . S
Co509 O515 2.052 . S
Co509 O517 2.135 . S
O510 Co509 2.061 . S
O510 C513 1.235 . S
C511 O514 1.238 . S
C511 O515 1.241 . S
C512 O505 1.247 . S
C512 O506 1.261 . S
C513 O508 1.259 . S
C513 O510 1.235 . S
O514 Co504 2.021 . S
O514 C511 1.238 . S
O515 Co509 2.052 . S
O515 C511 1.241 . S
O516 Co504 2.137 . S
O516 C507 1.247 . S
O517 Co504 2.244 . S
O517 C507 1.272 . S
O517 Co509 2.135 . S
Co518 O519 2.216 . S
Co518 O520 2.091 . S
Co518 O522 2.004 . S
Co518 O528 2.021 . S
Co518 O530 2.137 . S
Co518 O531 2.244 1_554 S
O519 Co518 2.216 . S
O519 C526 1.247 . S
O520 Co518 2.091 . S
O520 C526 1.261 . S
C521 O530 1.247 1_556 S
C521 O531 1.272 . S
O522 Co518 2.004 . S
O522 C527 1.259 1_655 S
Co523 O524 2.061 1_556 S
Co523 O529 2.052 1_556 S
Co523 O531 2.135 1_455 S
O524 Co523 2.061 1_554 S
O524 C527 1.235 . S
C525 O528 1.238 . S
C525 O529 1.241 1_655 S
C526 O519 1.247 . S
C526 O520 1.261 . S
C527 O522 1.259 1_455 S
C527 O524 1.235 . S
O528 Co518 2.021 . S
O528 C525 1.238 . S
O529 Co523 2.052 1_554 S
O529 C525 1.241 1_455 S
O530 Co518 2.137 . S
O530 C521 1.247 1_554 S
O531 Co518 2.244 1_556 S
O531 C521 1.272 . S
O531 Co523 2.135 1_655 S
Co532 O533 2.216 . S
Co532 O534 2.091 . S
Co532 O536 2.004 . S
Co532 O542 2.021 . S
Co532 O544 2.137 . S
Co532 O545 2.244 . S
O533 Co532 2.216 . S
O533 C540 1.247 . S
O534 Co532 2.091 . S
O534 C540 1.261 . S
C535 O544 1.247 . S
C535 O545 1.272 . S
O536 Co532 2.004 . S
O536 C541 1.259 . S
Co537 O538 2.061 . S
Co537 O543 2.052 . S
Co537 O545 2.135 . S
O538 Co537 2.061 . S
O538 C541 1.235 . S
C539 O542 1.238 . S
C539 O543 1.241 . S
C540 O533 1.247 . S
C540 O534 1.261 . S
C541 O536 1.259 . S
C541 O538 1.235 . S
O542 Co532 2.021 . S
O542 C539 1.238 . S
O543 Co537 2.052 . S
O543 C539 1.241 . S
O544 Co532 2.137 . S
O544 C535 1.247 . S
O545 Co532 2.244 . S
O545 C535 1.272 . S
O545 Co537 2.135 . S
Co546 O547 2.216 . S
Co546 O548 2.091 . S
Co546 O550 2.004 . S
Co546 O556 2.021 . S
Co546 O558 2.137 . S
Co546 O559 2.244 . S
O547 Co546 2.216 . S
O547 C554 1.247 . S
O548 Co546 2.091 . S
O548 C554 1.261 . S
C549 O558 1.247 . S
C549 O559 1.272 . S
O550 Co546 2.004 . S
O550 C555 1.259 . S
Co551 O552 2.061 . S
Co551 O557 2.052 . S
Co551 O559 2.135 . S
O552 Co551 2.061 . S
O552 C555 1.235 . S
C553 O556 1.238 . S
C553 O557 1.241 . S
C554 O547 1.247 . S
C554 O548 1.261 . S
C555 O550 1.259 . S
C555 O552 1.235 . S
O556 Co546 2.021 . S
O556 C553 1.238 . S
O557 Co551 2.052 . S
O557 C553 1.241 . S
O558 Co546 2.137 . S
O558 C549 1.247 . S
O559 Co546 2.244 . S
O559 C549 1.272 . S
O559 Co551 2.135 . S
Co560 O561 2.216 . S
Co560 O562 2.091 . S
Co560 O564 2.004 . S
Co560 O570 2.021 . S
Co560 O572 2.137 . S
Co560 O573 2.244 . S
O561 Co560 2.216 . S
O561 C568 1.247 . S
O562 Co560 2.091 . S
O562 C568 1.261 . S
C563 O572 1.247 . S
C563 O573 1.272 . S
O564 Co560 2.004 . S
O564 C569 1.259 . S
Co565 O566 2.061 . S
Co565 O571 2.052 . S
Co565 O573 2.135 . S
O566 Co565 2.061 . S
O566 C569 1.235 . S
C567 O570 1.238 . S
C567 O571 1.241 . S
C568 O561 1.247 . S
C568 O562 1.261 . S
C569 O564 1.259 . S
C569 O566 1.235 . S
O570 Co560 2.021 . S
O570 C567 1.238 . S
O571 Co565 2.052 . S
O571 C567 1.241 . S
O572 Co560 2.137 . S
O572 C563 1.247 . S
O573 Co560 2.244 . S
O573 C563 1.272 . S
O573 Co565 2.135 . S
Co574 O575 2.216 . S
Co574 O576 2.091 . S
Co574 O578 2.004 . S
Co574 O584 2.021 . S
Co574 O586 2.137 . S
Co574 O587 2.244 . S
O575 Co574 2.216 . S
O575 C582 1.247 . S
O576 Co574 2.091 . S
O576 C582 1.261 . S
C577 O586 1.247 . S
C577 O587 1.272 . S
O578 Co574 2.004 . S
O578 C583 1.259 . S
Co579 O580 2.061 . S
Co579 O585 2.052 . S
Co579 O587 2.135 . S
O580 Co579 2.061 . S
O580 C583 1.235 . S
C581 O584 1.238 . S
C581 O585 1.241 . S
C582 O575 1.247 . S
C582 O576 1.261 . S
C583 O578 1.259 . S
C583 O580 1.235 . S
O584 Co574 2.021 . S
O584 C581 1.238 . S
O585 Co579 2.052 . S
O585 C581 1.241 . S
O586 Co574 2.137 . S
O586 C577 1.247 . S
O587 Co574 2.244 . S
O587 C577 1.272 . S
O587 Co579 2.135 . S
Co588 O589 2.216 . S
Co588 O590 2.091 . S
Co588 O592 2.004 . S
Co588 O598 2.021 . S
Co588 O600 2.137 . S
Co588 O601 2.244 1_565 S
O589 Co588 2.216 . S
O589 C596 1.247 . S
O590 Co588 2.091 . S
O590 C596 1.261 . S
C591 O600 1.247 1_545 S
C591 O601 1.272 . S
O592 Co588 2.004 . S
O592 C597 1.259 . S
Co593 O594 2.061 1_545 S
Co593 O599 2.052 1_545 S
Co593 O601 2.135 . S
O594 Co593 2.061 1_565 S
O594 C597 1.235 . S
C595 O598 1.238 . S
C595 O599 1.241 . S
C596 O589 1.247 . S
C596 O590 1.261 . S
C597 O592 1.259 . S
C597 O594 1.235 . S
O598 Co588 2.021 . S
O598 C595 1.238 . S
O599 Co593 2.052 1_565 S
O599 C595 1.241 . S
O600 Co588 2.137 . S
O600 C591 1.247 1_565 S
O601 Co588 2.244 1_545 S
O601 C591 1.272 . S
O601 Co593 2.135 . S
Co602 O603 2.216 . S
Co602 O604 2.091 . S
Co602 O606 2.004 . S
Co602 O612 2.021 . S
Co602 O614 2.137 . S
Co602 O615 2.244 . S
O603 Co602 2.216 . S
O603 C610 1.247 . S
O604 Co602 2.091 . S
O604 C610 1.261 . S
C605 O614 1.247 . S
C605 O615 1.272 . S
O606 Co602 2.004 . S
O606 C611 1.259 . S
Co607 O608 2.061 . S
Co607 O613 2.052 . S
Co607 O615 2.135 . S
O608 Co607 2.061 . S
O608 C611 1.235 . S
C609 O612 1.238 . S
C609 O613 1.241 . S
C610 O603 1.247 . S
C610 O604 1.261 . S
C611 O606 1.259 . S
C611 O608 1.235 . S
O612 Co602 2.021 . S
O612 C609 1.238 . S
O613 Co607 2.052 . S
O613 C609 1.241 . S
O614 Co602 2.137 . S
O614 C605 1.247 . S
O615 Co602 2.244 . S
O615 C605 1.272 . S
O615 Co607 2.135 . S
Co616 O617 2.216 . S
Co616 O618 2.091 . S
Co616 O620 2.004 . S
Co616 O626 2.021 . S
Co616 O628 2.137 . S
Co616 O629 2.244 . S
O617 Co616 2.216 . S
O617 C624 1.247 . S
O618 Co616 2.091 . S
O618 C624 1.261 . S
C619 O628 1.247 . S
C619 O629 1.272 . S
O620 Co616 2.004 . S
O620 C625 1.259 . S
Co621 O622 2.061 . S
Co621 O627 2.052 . S
Co621 O629 2.135 . S
O622 Co621 2.061 . S
O622 C625 1.235 . S
C623 O626 1.238 . S
C623 O627 1.241 . S
C624 O617 1.247 . S
C624 O618 1.261 . S
C625 O620 1.259 . S
C625 O622 1.235 . S
O626 Co616 2.021 . S
O626 C623 1.238 . S
O627 Co621 2.052 . S
O627 C623 1.241 . S
O628 Co616 2.137 . S
O628 C619 1.247 . S
O629 Co616 2.244 . S
O629 C619 1.272 . S
O629 Co621 2.135 . S
Co630 O631 2.216 . S
Co630 O632 2.091 . S
Co630 O634 2.004 . S
Co630 O640 2.021 . S
Co630 O642 2.137 . S
Co630 O643 2.244 . S
O631 Co630 2.216 . S
O631 C638 1.247 . S
O632 Co630 2.091 . S
O632 C638 1.261 . S
C633 O642 1.247 . S
C633 O643 1.272 . S
O634 Co630 2.004 . S
O634 C639 1.259 . S
Co635 O636 2.061 . S
Co635 O641 2.052 . S
Co635 O643 2.135 . S
O636 Co635 2.061 . S
O636 C639 1.235 . S
C637 O640 1.238 . S
C637 O641 1.241 . S
C638 O631 1.247 . S
C638 O632 1.261 . S
C639 O634 1.259 . S
C639 O636 1.235 . S
O640 Co630 2.021 . S
O640 C637 1.238 . S
O641 Co635 2.052 . S
O641 C637 1.241 . S
O642 Co630 2.137 . S
O642 C633 1.247 . S
O643 Co630 2.244 . S
O643 C633 1.272 . S
O643 Co635 2.135 . S
Co644 O645 2.216 . S
Co644 O646 2.091 . S
Co644 O648 2.004 . S
Co644 O654 2.021 . S
Co644 O656 2.137 . S
Co644 O657 2.244 1_545 S
O645 Co644 2.216 . S
O645 C652 1.247 . S
O646 Co644 2.091 . S
O646 C652 1.261 . S
C647 O656 1.247 1_565 S
C647 O657 1.272 . S
O648 Co644 2.004 . S
O648 C653 1.259 1_556 S
Co649 O650 2.061 1_565 S
Co649 O655 2.052 1_565 S
Co649 O657 2.135 1_554 S
O650 Co649 2.061 1_545 S
O650 C653 1.235 . S
C651 O654 1.238 . S
C651 O655 1.241 1_556 S
C652 O645 1.247 . S
C652 O646 1.261 . S
C653 O648 1.259 1_554 S
C653 O650 1.235 . S
O654 Co644 2.021 . S
O654 C651 1.238 . S
O655 Co649 2.052 1_545 S
O655 C651 1.241 1_554 S
O656 Co644 2.137 . S
O656 C647 1.247 1_545 S
O657 Co644 2.244 1_565 S
O657 C647 1.272 . S
O657 Co649 2.135 1_556 S
Co658 O659 2.216 . S
Co658 O660 2.091 . S
Co658 O662 2.004 . S
Co658 O668 2.021 . S
Co658 O670 2.137 . S
Co658 O671 2.244 1_565 S
O659 Co658 2.216 . S
O659 C666 1.247 . S
O660 Co658 2.091 . S
O660 C666 1.261 . S
C661 O670 1.247 1_545 S
C661 O671 1.272 . S
O662 Co658 2.004 . S
O662 C667 1.259 . S
Co663 O664 2.061 1_545 S
Co663 O669 2.052 1_545 S
Co663 O671 2.135 . S
O664 Co663 2.061 1_565 S
O664 C667 1.235 . S
C665 O668 1.238 . S
C665 O669 1.241 . S
C666 O659 1.247 . S
C666 O660 1.261 . S
C667 O662 1.259 . S
C667 O664 1.235 . S
O668 Co658 2.021 . S
O668 C665 1.238 . S
O669 Co663 2.052 1_565 S
O669 C665 1.241 . S
O670 Co658 2.137 . S
O670 C661 1.247 1_565 S
O671 Co658 2.244 1_545 S
O671 C661 1.272 . S
O671 Co663 2.135 . S
H672 C678 0.930 . S
H673 C681 0.930 . S
H674 C682 0.930 . S
H675 C683 0.930 . S
H676 C686 0.930 . S
H677 C687 0.930 . S
C678 H672 0.930 . S
C678 C679 1.355 . S
C678 C680 1.415 . S
C679 C678 1.355 . S
C679 C681 1.419 . S
C680 C678 1.415 . S
C680 C685 1.425 . S
C680 C687 1.409 . S
C681 H673 0.930 . S
C681 C679 1.419 . S
C681 C682 1.362 . S
C682 H674 0.930 . S
C682 C681 1.362 . S
C682 C685 1.409 . S
C683 H675 0.930 . S
C683 C684 1.355 . S
C683 C685 1.415 . S
C684 C683 1.355 . S
C684 C686 1.419 . S
C685 C680 1.425 . S
C685 C682 1.409 . S
C685 C683 1.415 . S
C686 H676 0.930 . S
C686 C684 1.419 . S
C686 C687 1.362 . S
C687 H677 0.930 . S
C687 C680 1.409 . S
C687 C686 1.362 . S
H688 C694 0.930 . S
H689 C697 0.930 . S
H690 C698 0.930 . S
H691 C699 0.930 . S
H692 C702 0.930 . S
H693 C703 0.930 . S
C694 H688 0.930 . S
C694 C695 1.355 1_545 S
C694 C696 1.415 . S
C695 C694 1.355 1_565 S
C695 C697 1.419 . S
C696 C694 1.415 . S
C696 C701 1.425 1_545 S
C696 C703 1.409 . S
C697 H689 0.930 . S
C697 C695 1.419 . S
C697 C698 1.362 . S
C698 H690 0.930 . S
C698 C697 1.362 . S
C698 C701 1.409 . S
C699 H691 0.930 . S
C699 C700 1.355 1_565 S
C699 C701 1.415 . S
C700 C699 1.355 1_545 S
C700 C702 1.419 . S
C701 C696 1.425 1_565 S
C701 C698 1.409 . S
C701 C699 1.415 . S
C702 H692 0.930 . S
C702 C700 1.419 . S
C702 C703 1.362 . S
C703 H693 0.930 . S
C703 C696 1.409 . S
C703 C702 1.362 . S
H704 C710 0.930 . S
H705 C713 0.930 . S
H706 C714 0.930 . S
H707 C715 0.930 . S
H708 C718 0.930 . S
H709 C719 0.930 . S
C710 H704 0.930 . S
C710 C711 1.355 . S
C710 C712 1.415 . S
C711 C710 1.355 . S
C711 C713 1.419 . S
C712 C710 1.415 . S
C712 C717 1.425 1_556 S
C712 C719 1.409 1_556 S
C713 H705 0.930 . S
C713 C711 1.419 . S
C713 C714 1.362 . S
C714 H706 0.930 . S
C714 C713 1.362 . S
C714 C717 1.409 1_556 S
C715 H707 0.930 . S
C715 C716 1.355 . S
C715 C717 1.415 . S
C716 C715 1.355 . S
C716 C718 1.419 . S
C717 C712 1.425 1_554 S
C717 C714 1.409 1_554 S
C717 C715 1.415 . S
C718 H708 0.930 . S
C718 C716 1.419 . S
C718 C719 1.362 . S
C719 H709 0.930 . S
C719 C712 1.409 1_554 S
C719 C718 1.362 . S
H720 C726 0.930 . S
H721 C729 0.930 . S
H722 C730 0.930 . S
H723 C731 0.930 . S
H724 C734 0.930 . S
H725 C735 0.930 . S
C726 H720 0.930 . S
C726 C727 1.355 1_565 S
C726 C728 1.415 . S
C727 C726 1.355 1_545 S
C727 C729 1.419 . S
C728 C726 1.415 . S
C728 C733 1.425 1_565 S
C728 C735 1.409 . S
C729 H721 0.930 . S
C729 C727 1.419 . S
C729 C730 1.362 . S
C730 H722 0.930 . S
C730 C729 1.362 . S
C730 C733 1.409 . S
C731 H723 0.930 . S
C731 C732 1.355 1_545 S
C731 C733 1.415 . S
C732 C731 1.355 1_565 S
C732 C734 1.419 . S
C733 C728 1.425 1_545 S
C733 C730 1.409 . S
C733 C731 1.415 . S
C734 H724 0.930 . S
C734 C732 1.419 . S
C734 C735 1.362 . S
C735 H725 0.930 . S
C735 C728 1.409 . S
C735 C734 1.362 . S
H736 C742 0.930 . S
H737 C745 0.930 . S
H738 C746 0.930 . S
H739 C747 0.930 . S
H740 C750 0.930 . S
H741 C751 0.930 . S
C742 H736 0.930 . S
C742 C743 1.355 . S
C742 C744 1.415 . S
C743 C742 1.355 . S
C743 C745 1.419 . S
C744 C742 1.415 . S
C744 C749 1.425 . S
C744 C751 1.409 . S
C745 H737 0.930 . S
C745 C743 1.419 . S
C745 C746 1.362 . S
C746 H738 0.930 . S
C746 C745 1.362 . S
C746 C749 1.409 . S
C747 H739 0.930 . S
C747 C748 1.355 . S
C747 C749 1.415 . S
C748 C747 1.355 . S
C748 C750 1.419 . S
C749 C744 1.425 . S
C749 C746 1.409 . S
C749 C747 1.415 . S
C750 H740 0.930 . S
C750 C748 1.419 . S
C750 C751 1.362 . S
C751 H741 0.930 . S
C751 C744 1.409 . S
C751 C750 1.362 . S
H752 C758 0.930 . S
H753 C761 0.930 . S
H754 C762 0.930 . S
H755 C763 0.930 . S
H756 C766 0.930 . S
H757 C767 0.930 . S
C758 H752 0.930 . S
C758 C759 1.355 1_655 S
C758 C760 1.415 . S
C759 C758 1.355 1_455 S
C759 C761 1.419 . S
C760 C758 1.415 . S
C760 C765 1.425 1_655 S
C760 C767 1.409 . S
C761 H753 0.930 . S
C761 C759 1.419 . S
C761 C762 1.362 . S
C762 H754 0.930 . S
C762 C761 1.362 . S
C762 C765 1.409 . S
C763 H755 0.930 . S
C763 C764 1.355 1_455 S
C763 C765 1.415 . S
C764 C763 1.355 1_655 S
C764 C766 1.419 . S
C765 C760 1.425 1_455 S
C765 C762 1.409 . S
C765 C763 1.415 . S
C766 H756 0.930 . S
C766 C764 1.419 . S
C766 C767 1.362 . S
C767 H757 0.930 . S
C767 C760 1.409 . S
C767 C766 1.362 . S
H768 C774 0.930 . S
H769 C777 0.930 . S
H770 C778 0.930 . S
H771 C779 0.930 . S
H772 C782 0.930 . S
H773 C783 0.930 . S
C774 H768 0.930 . S
C774 C775 1.355 . S
C774 C776 1.415 . S
C775 C774 1.355 . S
C775 C777 1.419 . S
C776 C774 1.415 . S
C776 C781 1.425 1_455 S
C776 C783 1.409 1_455 S
C777 H769 0.930 . S
C777 C775 1.419 . S
C777 C778 1.362 . S
C778 H770 0.930 . S
C778 C777 1.362 . S
C778 C781 1.409 1_455 S
C779 H771 0.930 . S
C779 C780 1.355 . S
C779 C781 1.415 . S
C780 C779 1.355 . S
C780 C782 1.419 . S
C781 C776 1.425 1_655 S
C781 C778 1.409 1_655 S
C781 C779 1.415 . S
C782 H772 0.930 . S
C782 C780 1.419 . S
C782 C783 1.362 . S
C783 H773 0.930 . S
C783 C776 1.409 1_655 S
C783 C782 1.362 . S
H784 C790 0.911 1_554 S
H785 C793 0.930 . S
H786 C794 0.930 . S
H787 C795 0.930 . S
H788 C798 0.930 1_554 S
H789 C799 0.905 1_554 S
C790 H784 0.911 1_556 S
C790 C791 1.355 . S
C790 C792 1.415 . S
C791 C790 1.355 . S
C791 C793 1.419 . S
C792 C790 1.415 . S
C792 C797 1.425 . S
C792 C799 1.429 . S
C793 H785 0.930 . S
C793 C791 1.419 . S
C793 C794 1.362 . S
C794 H786 0.930 . S
C794 C793 1.362 . S
C794 C797 1.409 . S
C795 H787 0.930 . S
C795 C796 1.355 . S
C795 C797 1.415 . S
C796 C795 1.355 . S
C796 C798 1.419 . S
C797 C792 1.425 . S
C797 C794 1.409 . S
C797 C795 1.415 . S
C798 H788 0.930 1_556 S
C798 C796 1.419 . S
C798 C799 1.367 . S
C799 H789 0.905 1_556 S
C799 C792 1.429 . S
C799 C798 1.367 . S
H800 C806 0.930 . S
H801 C809 0.930 . S
H802 C810 0.930 . S
H803 C811 0.930 . S
H804 C814 0.930 . S
H805 C815 0.930 . S
C806 H800 0.930 . S
C806 C807 1.355 . S
C806 C808 1.415 . S
C807 C806 1.355 . S
C807 C809 1.419 . S
C808 C806 1.415 . S
C808 C813 1.425 . S
C808 C815 1.409 . S
C809 H801 0.930 . S
C809 C807 1.419 . S
C809 C810 1.362 . S
C810 H802 0.930 . S
C810 C809 1.362 . S
C810 C813 1.409 . S
C811 H803 0.930 . S
C811 C812 1.355 . S
C811 C813 1.415 . S
C812 C811 1.355 . S
C812 C814 1.419 . S
C813 C808 1.425 . S
C813 C810 1.409 . S
C813 C811 1.415 . S
C814 H804 0.930 . S
C814 C812 1.419 . S
C814 C815 1.362 . S
C815 H805 0.930 . S
C815 C808 1.409 . S
C815 C814 1.362 . S
H816 C822 0.930 . S
H817 C825 0.930 . S
H818 C826 0.930 . S
H819 C827 0.930 . S
H820 C830 0.930 . S
H821 C831 0.930 . S
C822 H816 0.930 . S
C822 C823 1.355 . S
C822 C824 1.415 . S
C823 C822 1.355 . S
C823 C825 1.419 . S
C824 C822 1.415 . S
C824 C829 1.425 . S
C824 C831 1.409 . S
C825 H817 0.930 . S
C825 C823 1.419 . S
C825 C826 1.362 . S
C826 H818 0.930 . S
C826 C825 1.362 . S
C826 C829 1.409 . S
C827 H819 0.930 . S
C827 C828 1.355 . S
C827 C829 1.415 . S
C828 C827 1.355 . S
C828 C830 1.419 . S
C829 C824 1.425 . S
C829 C826 1.409 . S
C829 C827 1.415 . S
C830 H820 0.930 . S
C830 C828 1.419 . S
C830 C831 1.362 . S
C831 H821 0.930 . S
C831 C824 1.409 . S
C831 C830 1.362 . S
H832 C838 0.930 . S
H833 C841 0.930 . S
H834 C842 0.930 . S
H835 C843 0.930 . S
H836 C846 0.930 . S
H837 C847 0.930 . S
C838 H832 0.930 . S
C838 C839 1.355 . S
C838 C840 1.415 . S
C839 C838 1.355 . S
C839 C841 1.419 . S
C840 C838 1.415 . S
C840 C845 1.425 1_655 S
C840 C847 1.409 1_655 S
C841 H833 0.930 . S
C841 C839 1.419 . S
C841 C842 1.362 . S
C842 H834 0.930 . S
C842 C841 1.362 . S
C842 C845 1.409 1_655 S
C843 H835 0.930 . S
C843 C844 1.355 . S
C843 C845 1.415 . S
C844 C843 1.355 . S
C844 C846 1.419 . S
C845 C840 1.425 1_455 S
C845 C842 1.409 1_455 S
C845 C843 1.415 . S
C846 H836 0.930 . S
C846 C844 1.419 . S
C846 C847 1.362 . S
C847 H837 0.930 . S
C847 C840 1.409 1_455 S
C847 C846 1.362 . S
H848 C854 0.930 . S
H849 C857 0.930 . S
H850 C858 0.930 . S
H851 C859 0.930 . S
H852 C862 0.930 . S
H853 C863 0.930 . S
C854 H848 0.930 . S
C854 C855 1.355 1_655 S
C854 C856 1.415 . S
C855 C854 1.355 1_455 S
C855 C857 1.419 . S
C856 C854 1.415 . S
C856 C861 1.425 1_655 S
C856 C863 1.409 . S
C857 H849 0.930 . S
C857 C855 1.419 . S
C857 C858 1.362 . S
C858 H850 0.930 . S
C858 C857 1.362 . S
C858 C861 1.409 . S
C859 H851 0.930 . S
C859 C860 1.355 1_455 S
C859 C861 1.415 . S
C860 C859 1.355 1_655 S
C860 C862 1.419 . S
C861 C856 1.425 1_455 S
C861 C858 1.409 . S
C861 C859 1.415 . S
C862 H852 0.930 . S
C862 C860 1.419 . S
C862 C863 1.362 . S
C863 H853 0.930 . S
C863 C856 1.409 . S
C863 C862 1.362 . S
H864 C870 0.930 . S
H865 C873 0.930 . S
H866 C874 0.930 . S
H867 C875 0.930 . S
H868 C878 0.930 . S
H869 C879 0.930 . S
C870 H864 0.930 . S
C870 C871 1.355 . S
C870 C872 1.415 . S
C871 C870 1.355 . S
C871 C873 1.419 . S
C872 C870 1.415 . S
C872 C877 1.425 . S
C872 C879 1.409 . S
C873 H865 0.930 . S
C873 C871 1.419 . S
C873 C874 1.362 . S
C874 H866 0.930 . S
C874 C873 1.362 . S
C874 C877 1.409 . S
C875 H867 0.930 . S
C875 C876 1.355 . S
C875 C877 1.415 . S
C876 C875 1.355 . S
C876 C878 1.419 . S
C877 C872 1.425 . S
C877 C874 1.409 . S
C877 C875 1.415 . S
C878 H868 0.930 . S
C878 C876 1.419 . S
C878 C879 1.362 . S
C879 H869 0.930 . S
C879 C872 1.409 . S
C879 C878 1.362 . S
H880 C886 0.930 . S
H881 C889 0.930 . S
H882 C890 0.930 . S
H883 C891 0.930 . S
H884 C894 0.930 . S
H885 C895 0.930 . S
C886 H880 0.930 . S
C886 C887 1.355 . S
C886 C888 1.415 . S
C887 C886 1.355 . S
C887 C889 1.419 . S
C888 C886 1.415 . S
C888 C893 1.425 1_545 S
C888 C895 1.409 1_545 S
C889 H881 0.930 . S
C889 C887 1.419 . S
C889 C890 1.362 . S
C890 H882 0.930 . S
C890 C889 1.362 . S
C890 C893 1.409 1_545 S
C891 H883 0.930 . S
C891 C892 1.355 . S
C891 C893 1.415 . S
C892 C891 1.355 . S
C892 C894 1.419 . S
C893 C888 1.425 1_565 S
C893 C890 1.409 1_565 S
C893 C891 1.415 . S
C894 H884 0.930 . S
C894 C892 1.419 . S
C894 C895 1.362 . S
C895 H885 0.930 . S
C895 C888 1.409 1_565 S
C895 C894 1.362 . S
H896 C902 0.930 . S
H897 C905 0.930 . S
H898 C906 0.930 . S
H899 C907 0.930 . S
H900 C910 0.930 . S
H901 C911 0.930 . S
C902 H896 0.930 . S
C902 C903 1.355 1_554 S
C902 C904 1.415 . S
C903 C902 1.355 1_556 S
C903 C905 1.419 . S
C904 C902 1.415 . S
C904 C909 1.425 1_554 S
C904 C911 1.409 . S
C905 H897 0.930 . S
C905 C903 1.419 . S
C905 C906 1.362 . S
C906 H898 0.930 . S
C906 C905 1.362 . S
C906 C909 1.409 . S
C907 H899 0.930 . S
C907 C908 1.355 1_556 S
C907 C909 1.415 . S
C908 C907 1.355 1_554 S
C908 C910 1.419 . S
C909 C904 1.425 1_556 S
C909 C906 1.409 . S
C909 C907 1.415 . S
C910 H900 0.930 . S
C910 C908 1.419 . S
C910 C911 1.362 . S
C911 H901 0.930 . S
C911 C904 1.409 . S
C911 C910 1.362 . S
H912 C918 0.930 . S
H913 C921 0.930 . S
H914 C922 0.930 . S
H915 C923 0.930 . S
H916 C926 0.930 . S
H917 C927 0.930 . S
C918 H912 0.930 . S
C918 C919 1.355 . S
C918 C920 1.415 . S
C919 C918 1.355 . S
C919 C921 1.419 . S
C920 C918 1.415 . S
C920 C925 1.425 1_545 S
C920 C927 1.409 1_545 S
C921 H913 0.930 . S
C921 C919 1.419 . S
C921 C922 1.362 . S
C922 H914 0.930 . S
C922 C921 1.362 . S
C922 C925 1.409 1_545 S
C923 H915 0.930 . S
C923 C924 1.355 . S
C923 C925 1.415 . S
C924 C923 1.355 . S
C924 C926 1.419 . S
C925 C920 1.425 1_565 S
C925 C922 1.409 1_565 S
C925 C923 1.415 . S
C926 H916 0.930 . S
C926 C924 1.419 . S
C926 C927 1.362 . S
C927 H917 0.930 . S
C927 C920 1.409 1_565 S
C927 C926 1.362 . S
H928 C934 0.930 . S
H929 C937 0.930 . S
H930 C938 0.930 . S
H931 C939 0.930 . S
H932 C942 0.930 . S
H933 C943 0.930 . S
C934 H928 0.930 . S
C934 C935 1.355 1_554 S
C934 C936 1.415 . S
C935 C934 1.355 1_556 S
C935 C937 1.419 . S
C936 C934 1.415 . S
C936 C941 1.425 1_554 S
C936 C943 1.409 . S
C937 H929 0.930 . S
C937 C935 1.419 . S
C937 C938 1.362 . S
C938 H930 0.930 . S
C938 C937 1.362 . S
C938 C941 1.409 . S
C939 H931 0.930 . S
C939 C940 1.355 1_556 S
C939 C941 1.415 . S
C940 C939 1.355 1_554 S
C940 C942 1.419 . S
C941 C936 1.425 1_556 S
C941 C938 1.409 . S
C941 C939 1.415 . S
C942 H932 0.930 . S
C942 C940 1.419 . S
C942 C943 1.362 . S
C943 H933 0.930 . S
C943 C936 1.409 . S
C943 C942 1.362 . S
H944 C950 0.930 . S
H945 C953 0.930 . S
H946 C954 0.930 . S
H947 C955 0.930 . S
H948 C958 0.930 . S
H949 C959 0.930 . S
C950 H944 0.930 . S
C950 C951 1.355 . S
C950 C952 1.415 . S
C951 C950 1.355 . S
C951 C953 1.419 . S
C952 C950 1.415 . S
C952 C957 1.425 . S
C952 C959 1.409 . S
C953 H945 0.930 . S
C953 C951 1.419 . S
C953 C954 1.362 . S
C954 H946 0.930 . S
C954 C953 1.362 . S
C954 C957 1.409 . S
C955 H947 0.930 . S
C955 C956 1.355 . S
C955 C957 1.415 . S
C956 C955 1.355 . S
C956 C958 1.419 . S
C957 C952 1.425 . S
C957 C954 1.409 . S
C957 C955 1.415 . S
C958 H948 0.930 . S
C958 C956 1.419 . S
C958 C959 1.362 . S
C959 H949 0.930 . S
C959 C952 1.409 . S
C959 C958 1.362 . S
H960 C966 0.930 . S
H961 C969 0.930 . S
H962 C970 0.930 . S
H963 C971 0.930 . S
H964 C974 0.930 . S
H965 C975 0.930 . S
C966 H960 0.930 . S
C966 C967 1.355 . S
C966 C968 1.415 . S
C967 C966 1.355 . S
C967 C969 1.419 . S
C968 C966 1.415 . S
C968 C973 1.425 . S
C968 C975 1.409 . S
C969 H961 0.930 . S
C969 C967 1.419 . S
C969 C970 1.362 . S
C970 H962 0.930 . S
C970 C969 1.362 . S
C970 C973 1.409 . S
C971 H963 0.930 . S
C971 C972 1.355 . S
C971 C973 1.415 . S
C972 C971 1.355 . S
C972 C974 1.419 . S
C973 C968 1.425 . S
C973 C970 1.409 . S
C973 C971 1.415 . S
C974 H964 0.930 . S
C974 C972 1.419 . S
C974 C975 1.362 . S
C975 H965 0.930 . S
C975 C968 1.409 . S
C975 C974 1.362 . S
H976 C982 0.930 . S
H977 C985 0.930 . S
H978 C986 0.930 . S
H979 C987 0.930 . S
H980 C990 0.930 . S
H981 C991 0.930 . S
C982 H976 0.930 . S
C982 C983 1.355 . S
C982 C984 1.415 . S
C983 C982 1.355 . S
C983 C985 1.419 . S
C984 C982 1.415 . S
C984 C989 1.425 1_554 S
C984 C991 1.409 1_554 S
C985 H977 0.930 . S
C985 C983 1.419 . S
C985 C986 1.362 . S
C986 H978 0.930 . S
C986 C985 1.362 . S
C986 C989 1.409 1_554 S
C987 H979 0.930 . S
C987 C988 1.355 . S
C987 C989 1.415 . S
C988 C987 1.355 . S
C988 C990 1.419 . S
C989 C984 1.425 1_556 S
C989 C986 1.409 1_556 S
C989 C987 1.415 . S
C990 H980 0.930 . S
C990 C988 1.419 . S
C990 C991 1.362 . S
C991 H981 0.930 . S
C991 C984 1.409 1_556 S
C991 C990 1.362 . S
H992 C998 0.930 . S
H993 C1001 0.930 . S
H994 C1002 0.930 . S
H995 C1003 0.930 . S
H996 C1006 0.930 . S
H997 C1007 0.930 . S
C998 H992 0.930 . S
C998 C999 1.355 . S
C998 C1000 1.415 . S
C999 C998 1.355 . S
C999 C1001 1.419 . S
C1000 C998 1.415 . S
C1000 C1005 1.425 . S
C1000 C1007 1.409 . S
C1001 H993 0.930 . S
C1001 C999 1.419 . S
C1001 C1002 1.362 . S
C1002 H994 0.930 . S
C1002 C1001 1.362 . S
C1002 C1005 1.409 . S
C1003 H995 0.930 . S
C1003 C1004 1.355 . S
C1003 C1005 1.415 . S
C1004 C1003 1.355 . S
C1004 C1006 1.419 . S
C1005 C1000 1.425 . S
C1005 C1002 1.409 . S
C1005 C1003 1.415 . S
C1006 H996 0.930 . S
C1006 C1004 1.419 . S
C1006 C1007 1.362 . S
C1007 H997 0.930 . S
C1007 C1000 1.409 . S
C1007 C1006 1.362 . S
H1008 C1014 0.930 . S
H1009 C1017 0.930 . S
H1010 C1018 0.930 . S
H1011 C1019 0.930 . S
H1012 C1022 0.930 . S
H1013 C1023 0.930 . S
C1014 H1008 0.930 . S
C1014 C1015 1.355 . S
C1014 C1016 1.415 . S
C1015 C1014 1.355 . S
C1015 C1017 1.419 . S
C1016 C1014 1.415 . S
C1016 C1021 1.425 . S
C1016 C1023 1.409 . S
C1017 H1009 0.930 . S
C1017 C1015 1.419 . S
C1017 C1018 1.362 . S
C1018 H1010 0.930 . S
C1018 C1017 1.362 . S
C1018 C1021 1.409 . S
C1019 H1011 0.930 . S
C1019 C1020 1.355 . S
C1019 C1021 1.415 . S
C1020 C1019 1.355 . S
C1020 C1022 1.419 . S
C1021 C1016 1.425 . S
C1021 C1018 1.409 . S
C1021 C1019 1.415 . S
C1022 H1012 0.930 . S
C1022 C1020 1.419 . S
C1022 C1023 1.362 . S
C1023 H1013 0.930 . S
C1023 C1016 1.409 . S
C1023 C1022 1.362 . S
H1024 C1030 0.930 . S
H1025 C1033 0.930 . S
H1026 C1034 0.930 . S
H1027 C1035 0.930 . S
H1028 C1038 0.930 1_455 S
H1029 C1039 0.930 1_455 S
C1030 H1024 0.930 . S
C1030 C1031 1.355 . S
C1030 C1032 1.415 . S
C1031 C1030 1.355 . S
C1031 C1033 1.419 . S
C1032 C1030 1.415 . S
C1032 C1037 1.425 . S
C1032 C1039 1.409 . S
C1033 H1025 0.930 . S
C1033 C1031 1.419 . S
C1033 C1034 1.362 . S
C1034 H1026 0.930 . S
C1034 C1033 1.362 . S
C1034 C1037 1.409 . S
C1035 H1027 0.930 . S
C1035 C1036 1.355 . S
C1035 C1037 1.415 . S
C1036 C1035 1.355 . S
C1036 C1038 1.419 . S
C1037 C1032 1.425 . S
C1037 C1034 1.409 . S
C1037 C1035 1.415 . S
C1038 H1028 0.930 1_655 S
C1038 C1036 1.419 . S
C1038 C1039 1.362 . S
C1039 H1029 0.930 1_655 S
C1039 C1032 1.409 . S
C1039 C1038 1.362 . S
H1040 C1046 0.930 . S
H1041 C1049 0.930 . S
H1042 C1050 0.930 . S
H1043 C1051 0.930 . S
H1044 C1054 0.930 . S
H1045 C1055 0.930 . S
C1046 H1040 0.930 . S
C1046 C1047 1.355 . S
C1046 C1048 1.415 . S
C1047 C1046 1.355 . S
C1047 C1049 1.419 . S
C1048 C1046 1.415 . S
C1048 C1053 1.425 . S
C1048 C1055 1.409 . S
C1049 H1041 0.930 . S
C1049 C1047 1.419 . S
C1049 C1050 1.362 . S
C1050 H1042 0.930 . S
C1050 C1049 1.362 . S
C1050 C1053 1.409 . S
C1051 H1043 0.930 . S
C1051 C1052 1.355 . S
C1051 C1053 1.415 . S
C1052 C1051 1.355 . S
C1052 C1054 1.419 . S
C1053 C1048 1.425 . S
C1053 C1050 1.409 . S
C1053 C1051 1.415 . S
C1054 H1044 0.930 . S
C1054 C1052 1.419 . S
C1054 C1055 1.362 . S
C1055 H1045 0.930 . S
C1055 C1048 1.409 . S
C1055 C1054 1.362 . S
H1056 C1062 0.930 . S
H1057 C1065 0.930 . S
H1058 C1066 0.930 . S
H1059 C1067 0.930 . S
H1060 C1070 0.930 . S
H1061 C1071 0.930 . S
C1062 H1056 0.930 . S
C1062 C1063 1.355 . S
C1062 C1064 1.415 . S
C1063 C1062 1.355 . S
C1063 C1065 1.419 . S
C1064 C1062 1.415 . S
C1064 C1069 1.425 . S
C1064 C1071 1.409 . S
C1065 H1057 0.930 . S
C1065 C1063 1.419 . S
C1065 C1066 1.362 . S
C1066 H1058 0.930 . S
C1066 C1065 1.362 . S
C1066 C1069 1.409 . S
C1067 H1059 0.930 . S
C1067 C1068 1.355 . S
C1067 C1069 1.415 . S
C1068 C1067 1.355 . S
C1068 C1070 1.419 . S
C1069 C1064 1.425 . S
C1069 C1066 1.409 . S
C1069 C1067 1.415 . S
C1070 H1060 0.930 . S
C1070 C1068 1.419 . S
C1070 C1071 1.362 . S
C1071 H1061 0.930 . S
C1071 C1064 1.409 . S
C1071 C1070 1.362 . S
H1072 C1078 0.930 . S
H1073 C1081 0.930 . S
H1074 C1082 0.930 . S
H1075 C1083 0.930 . S
H1076 C1086 0.930 . S
H1077 C1087 0.930 1_545 S
C1078 H1072 0.930 . S
C1078 C1079 1.355 . S
C1078 C1080 1.415 . S
C1079 C1078 1.355 . S
C1079 C1081 1.419 . S
C1080 C1078 1.415 . S
C1080 C1085 1.425 . S
C1080 C1087 1.409 . S
C1081 H1073 0.930 . S
C1081 C1079 1.419 . S
C1081 C1082 1.362 . S
C1082 H1074 0.930 . S
C1082 C1081 1.362 . S
C1082 C1085 1.409 . S
C1083 H1075 0.930 . S
C1083 C1084 1.355 . S
C1083 C1085 1.415 . S
C1084 C1083 1.355 . S
C1084 C1086 1.419 . S
C1085 C1080 1.425 . S
C1085 C1082 1.409 . S
C1085 C1083 1.415 . S
C1086 H1076 0.930 . S
C1086 C1084 1.419 . S
C1086 C1087 1.362 . S
C1087 H1077 0.930 1_565 S
C1087 C1080 1.409 . S
C1087 C1086 1.362 . S
H1088 C1094 0.930 . S
H1089 C1097 0.930 . S
H1090 C1098 0.930 . S
H1091 C1099 0.930 . S
H1092 C1102 0.930 . S
H1093 C1103 0.930 . S
C1094 H1088 0.930 . S
C1094 C1095 1.355 . S
C1094 C1096 1.415 . S
C1095 C1094 1.355 . S
C1095 C1097 1.419 . S
C1096 C1094 1.415 . S
C1096 C1101 1.425 . S
C1096 C1103 1.409 . S
C1097 H1089 0.930 . S
C1097 C1095 1.419 . S
C1097 C1098 1.362 . S
C1098 H1090 0.930 . S
C1098 C1097 1.362 . S
C1098 C1101 1.409 . S
C1099 H1091 0.930 . S
C1099 C1100 1.355 . S
C1099 C1101 1.415 . S
C1100 C1099 1.355 . S
C1100 C1102 1.419 . S
C1101 C1096 1.425 . S
C1101 C1098 1.409 . S
C1101 C1099 1.415 . S
C1102 H1092 0.930 . S
C1102 C1100 1.419 . S
C1102 C1103 1.362 . S
C1103 H1093 0.930 . S
C1103 C1096 1.409 . S
C1103 C1102 1.362 . S
H1104 C1110 0.930 . S
H1105 C1113 0.930 . S
H1106 C1114 0.930 . S
H1107 C1115 0.930 . S
H1108 C1118 0.930 . S
H1109 C1119 0.930 . S
C1110 H1104 0.930 . S
C1110 C1111 1.355 . S
C1110 C1112 1.415 . S
C1111 C1110 1.355 . S
C1111 C1113 1.419 . S
C1112 C1110 1.415 . S
C1112 C1117 1.425 . S
C1112 C1119 1.409 . S
C1113 H1105 0.930 . S
C1113 C1111 1.419 . S
C1113 C1114 1.362 . S
C1114 H1106 0.930 . S
C1114 C1113 1.362 . S
C1114 C1117 1.409 . S
C1115 H1107 0.930 . S
C1115 C1116 1.355 . S
C1115 C1117 1.415 . S
C1116 C1115 1.355 . S
C1116 C1118 1.419 . S
C1117 C1112 1.425 . S
C1117 C1114 1.409 . S
C1117 C1115 1.415 . S
C1118 H1108 0.930 . S
C1118 C1116 1.419 . S
C1118 C1119 1.362 . S
C1119 H1109 0.930 . S
C1119 C1112 1.409 . S
C1119 C1118 1.362 . S
H1120 C1126 0.930 . S
H1121 C1129 0.930 . S
H1122 C1130 0.930 . S
H1123 C1131 0.930 . S
H1124 C1134 0.930 . S
H1125 C1135 0.930 . S
C1126 H1120 0.930 . S
C1126 C1127 1.355 . S
C1126 C1128 1.415 . S
C1127 C1126 1.355 . S
C1127 C1129 1.419 . S
C1128 C1126 1.415 . S
C1128 C1133 1.425 . S
C1128 C1135 1.409 . S
C1129 H1121 0.930 . S
C1129 C1127 1.419 . S
C1129 C1130 1.362 . S
C1130 H1122 0.930 . S
C1130 C1129 1.362 . S
C1130 C1133 1.409 . S
C1131 H1123 0.930 . S
C1131 C1132 1.355 . S
C1131 C1133 1.415 . S
C1132 C1131 1.355 . S
C1132 C1134 1.419 . S
C1133 C1128 1.425 . S
C1133 C1130 1.409 . S
C1133 C1131 1.415 . S
C1134 H1124 0.930 . S
C1134 C1132 1.419 . S
C1134 C1135 1.362 . S
C1135 H1125 0.930 . S
C1135 C1128 1.409 . S
C1135 C1134 1.362 . S
H1136 C1142 0.930 . S
H1137 C1145 0.930 . S
H1138 C1146 0.930 . S
H1139 C1147 0.930 . S
H1140 C1150 0.930 . S
H1141 C1151 0.930 . S
C1142 H1136 0.930 . S
C1142 C1143 1.355 . S
C1142 C1144 1.415 . S
C1143 C1142 1.355 . S
C1143 C1145 1.419 . S
C1144 C1142 1.415 . S
C1144 C1149 1.425 . S
C1144 C1151 1.409 . S
C1145 H1137 0.930 . S
C1145 C1143 1.419 . S
C1145 C1146 1.362 . S
C1146 H1138 0.930 . S
C1146 C1145 1.362 . S
C1146 C1149 1.409 . S
C1147 H1139 0.930 . S
C1147 C1148 1.355 . S
C1147 C1149 1.415 . S
C1148 C1147 1.355 . S
C1148 C1150 1.419 . S
C1149 C1144 1.425 . S
C1149 C1146 1.409 . S
C1149 C1147 1.415 . S
C1150 H1140 0.930 . S
C1150 C1148 1.419 . S
C1150 C1151 1.362 . S
C1151 H1141 0.930 . S
C1151 C1144 1.409 . S
C1151 C1150 1.362 . S
H1152 C1158 0.930 . S
H1153 C1161 0.930 . S
H1154 C1162 0.930 . S
H1155 C1163 0.930 . S
H1156 C1166 0.930 . S
H1157 C1167 0.930 . S
C1158 H1152 0.930 . S
C1158 C1159 1.355 . S
C1158 C1160 1.415 . S
C1159 C1158 1.355 . S
C1159 C1161 1.419 . S
C1160 C1158 1.415 . S
C1160 C1165 1.425 . S
C1160 C1167 1.409 . S
C1161 H1153 0.930 . S
C1161 C1159 1.419 . S
C1161 C1162 1.362 . S
C1162 H1154 0.930 . S
C1162 C1161 1.362 . S
C1162 C1165 1.409 . S
C1163 H1155 0.930 . S
C1163 C1164 1.355 . S
C1163 C1165 1.415 . S
C1164 C1163 1.355 . S
C1164 C1166 1.419 . S
C1165 C1160 1.425 . S
C1165 C1162 1.409 . S
C1165 C1163 1.415 . S
C1166 H1156 0.930 . S
C1166 C1164 1.419 . S
C1166 C1167 1.362 . S
C1167 H1157 0.930 . S
C1167 C1160 1.409 . S
C1167 C1166 1.362 . S
H1168 C1174 0.930 . S
H1169 C1177 0.930 . S
H1170 C1178 0.930 . S
H1171 C1179 0.930 . S
H1172 C1182 0.889 1_455 S
H1173 C1183 0.930 . S
C1174 H1168 0.930 . S
C1174 C1175 1.355 . S
C1174 C1176 1.415 . S
C1175 C1174 1.355 . S
C1175 C1177 1.419 . S
C1176 C1174 1.415 . S
C1176 C1181 1.425 . S
C1176 C1183 1.409 . S
C1177 H1169 0.930 . S
C1177 C1175 1.419 . S
C1177 C1178 1.362 . S
C1178 H1170 0.930 . S
C1178 C1177 1.362 . S
C1178 C1181 1.409 . S
C1179 H1171 0.930 . S
C1179 C1180 1.355 . S
C1179 C1181 1.415 . S
C1180 C1179 1.355 . S
C1180 C1182 1.419 . S
C1181 C1176 1.425 . S
C1181 C1178 1.409 . S
C1181 C1179 1.415 . S
C1182 H1172 0.889 1_655 S
C1182 C1180 1.419 . S
C1182 C1183 1.362 . S
C1183 H1173 0.930 . S
C1183 C1176 1.409 . S
C1183 C1182 1.362 . S
H1184 C1190 0.930 . S
H1185 C1193 0.930 . S
H1186 C1194 0.930 . S
H1187 C1195 0.930 . S
H1188 C1198 0.930 . S
H1189 C1199 0.930 . S
C1190 H1184 0.930 . S
C1190 C1191 1.355 . S
C1190 C1192 1.415 . S
C1191 C1190 1.355 . S
C1191 C1193 1.419 . S
C1192 C1190 1.415 . S
C1192 C1197 1.425 . S
C1192 C1199 1.409 . S
C1193 H1185 0.930 . S
C1193 C1191 1.419 . S
C1193 C1194 1.362 . S
C1194 H1186 0.930 . S
C1194 C1193 1.362 . S
C1194 C1197 1.409 . S
C1195 H1187 0.930 . S
C1195 C1196 1.355 . S
C1195 C1197 1.415 . S
C1196 C1195 1.355 . S
C1196 C1198 1.419 . S
C1197 C1192 1.425 . S
C1197 C1194 1.409 . S
C1197 C1195 1.415 . S
C1198 H1188 0.930 . S
C1198 C1196 1.419 . S
C1198 C1199 1.362 . S
C1199 H1189 0.930 . S
C1199 C1192 1.409 . S
C1199 C1198 1.362 . S
H1200 C1206 0.930 . S
H1201 C1209 0.930 . S
H1202 C1210 0.930 . S
H1203 C1211 0.930 . S
H1204 C1214 0.930 . S
H1205 C1215 0.930 . S
C1206 H1200 0.930 . S
C1206 C1207 1.355 . S
C1206 C1208 1.415 . S
C1207 C1206 1.355 . S
C1207 C1209 1.419 . S
C1208 C1206 1.415 . S
C1208 C1213 1.425 . S
C1208 C1215 1.409 . S
C1209 H1201 0.930 . S
C1209 C1207 1.419 . S
C1209 C1210 1.362 . S
C1210 H1202 0.930 . S
C1210 C1209 1.362 . S
C1210 C1213 1.409 . S
C1211 H1203 0.930 . S
C1211 C1212 1.355 . S
C1211 C1213 1.415 . S
C1212 C1211 1.355 . S
C1212 C1214 1.419 . S
C1213 C1208 1.425 . S
C1213 C1210 1.409 . S
C1213 C1211 1.415 . S
C1214 H1204 0.930 . S
C1214 C1212 1.419 . S
C1214 C1215 1.362 . S
C1215 H1205 0.930 . S
C1215 C1208 1.409 . S
C1215 C1214 1.362 . S
H1216 C1222 0.930 . S
H1217 C1225 0.930 . S
H1218 C1226 0.930 . S
H1219 C1227 0.930 . S
H1220 C1230 0.930 . S
H1221 C1231 0.930 . S
C1222 H1216 0.930 . S
C1222 C1223 1.355 . S
C1222 C1224 1.415 . S
C1223 C1222 1.355 . S
C1223 C1225 1.419 . S
C1224 C1222 1.415 . S
C1224 C1229 1.425 . S
C1224 C1231 1.409 . S
C1225 H1217 0.930 . S
C1225 C1223 1.419 . S
C1225 C1226 1.362 . S
C1226 H1218 0.930 . S
C1226 C1225 1.362 . S
C1226 C1229 1.409 . S
C1227 H1219 0.930 . S
C1227 C1228 1.355 . S
C1227 C1229 1.415 . S
C1228 C1227 1.355 . S
C1228 C1230 1.419 . S
C1229 C1224 1.425 . S
C1229 C1226 1.409 . S
C1229 C1227 1.415 . S
C1230 H1220 0.930 . S
C1230 C1228 1.419 . S
C1230 C1231 1.362 . S
C1231 H1221 0.930 . S
C1231 C1224 1.409 . S
C1231 C1230 1.362 . S
H1232 C1238 0.930 . S
H1233 C1241 0.930 . S
H1234 C1242 0.930 . S
H1235 C1243 0.930 . S
H1236 C1246 0.930 . S
H1237 C1247 0.930 . S
C1238 H1232 0.930 . S
C1238 C1239 1.355 . S
C1238 C1240 1.415 . S
C1239 C1238 1.355 . S
C1239 C1241 1.419 . S
C1240 C1238 1.415 . S
C1240 C1245 1.425 . S
C1240 C1247 1.409 . S
C1241 H1233 0.930 . S
C1241 C1239 1.419 . S
C1241 C1242 1.362 . S
C1242 H1234 0.930 . S
C1242 C1241 1.362 . S
C1242 C1245 1.409 . S
C1243 H1235 0.930 . S
C1243 C1244 1.355 . S
C1243 C1245 1.415 . S
C1244 C1243 1.355 . S
C1244 C1246 1.419 . S
C1245 C1240 1.425 . S
C1245 C1242 1.409 . S
C1245 C1243 1.415 . S
C1246 H1236 0.930 . S
C1246 C1244 1.419 . S
C1246 C1247 1.362 . S
C1247 H1237 0.930 . S
C1247 C1240 1.409 . S
C1247 C1246 1.362 . S
H1248 C1254 0.930 . S
H1249 C1257 0.930 . S
H1250 C1258 0.930 . S
H1251 C1259 0.930 . S
H1252 C1262 0.930 . S
H1253 C1263 0.930 . S
C1254 H1248 0.930 . S
C1254 C1255 1.355 . S
C1254 C1256 1.415 . S
C1255 C1254 1.355 . S
C1255 C1257 1.419 . S
C1256 C1254 1.415 . S
C1256 C1261 1.425 . S
C1256 C1263 1.409 . S
C1257 H1249 0.930 . S
C1257 C1255 1.419 . S
C1257 C1258 1.362 . S
C1258 H1250 0.930 . S
C1258 C1257 1.362 . S
C1258 C1261 1.409 . S
C1259 H1251 0.930 . S
C1259 C1260 1.355 . S
C1259 C1261 1.415 . S
C1260 C1259 1.355 . S
C1260 C1262 1.419 . S
C1261 C1256 1.425 . S
C1261 C1258 1.409 . S
C1261 C1259 1.415 . S
C1262 H1252 0.930 . S
C1262 C1260 1.419 . S
C1262 C1263 1.362 . S
C1263 H1253 0.930 . S
C1263 C1256 1.409 . S
C1263 C1262 1.362 . S
H1264 C1270 0.930 . S
H1265 C1273 0.930 . S
H1266 C1274 0.930 . S
H1267 C1275 0.930 . S
H1268 C1278 0.930 . S
H1269 C1279 0.930 . S
C1270 H1264 0.930 . S
C1270 C1271 1.355 . S
C1270 C1272 1.415 . S
C1271 C1270 1.355 . S
C1271 C1273 1.419 . S
C1272 C1270 1.415 . S
C1272 C1277 1.425 . S
C1272 C1279 1.409 . S
C1273 H1265 0.930 . S
C1273 C1271 1.419 . S
C1273 C1274 1.362 . S
C1274 H1266 0.930 . S
C1274 C1273 1.362 . S
C1274 C1277 1.409 . S
C1275 H1267 0.930 . S
C1275 C1276 1.355 . S
C1275 C1277 1.415 . S
C1276 C1275 1.355 . S
C1276 C1278 1.419 . S
C1277 C1272 1.425 . S
C1277 C1274 1.409 . S
C1277 C1275 1.415 . S
C1278 H1268 0.930 . S
C1278 C1276 1.419 . S
C1278 C1279 1.362 . S
C1279 H1269 0.930 . S
C1279 C1272 1.409 . S
C1279 C1278 1.362 . S
H1280 C1286 0.930 . S
H1281 C1289 0.930 . S
H1282 C1290 0.930 . S
H1283 C1291 0.930 . S
H1284 C1294 0.930 . S
H1285 C1295 0.930 . S
C1286 H1280 0.930 . S
C1286 C1287 1.355 . S
C1286 C1288 1.415 . S
C1287 C1286 1.355 . S
C1287 C1289 1.419 . S
C1288 C1286 1.415 . S
C1288 C1293 1.425 . S
C1288 C1295 1.409 . S
C1289 H1281 0.930 . S
C1289 C1287 1.419 . S
C1289 C1290 1.362 . S
C1290 H1282 0.930 . S
C1290 C1289 1.362 . S
C1290 C1293 1.409 . S
C1291 H1283 0.930 . S
C1291 C1292 1.355 . S
C1291 C1293 1.415 . S
C1292 C1291 1.355 . S
C1292 C1294 1.419 . S
C1293 C1288 1.425 . S
C1293 C1290 1.409 . S
C1293 C1291 1.415 . S
C1294 H1284 0.930 . S
C1294 C1292 1.419 . S
C1294 C1295 1.362 . S
C1295 H1285 0.930 . S
C1295 C1288 1.409 . S
C1295 C1294 1.362 . S
H1296 C1302 0.930 . S
H1297 C1305 0.937 . S
H1298 C1306 0.930 1_655 S
H1299 C1307 0.930 . S
H1300 C1310 0.930 . S
H1301 C1311 0.930 . S
C1302 H1296 0.930 . S
C1302 C1303 1.355 . S
C1302 C1304 1.415 . S
C1303 C1302 1.355 . S
C1303 C1305 1.419 . S
C1304 C1302 1.415 . S
C1304 C1309 1.425 . S
C1304 C1311 1.409 . S
C1305 H1297 0.937 . S
C1305 C1303 1.419 . S
C1305 C1306 1.362 . S
C1306 H1298 0.930 1_455 S
C1306 C1305 1.362 . S
C1306 C1309 1.409 . S
C1307 H1299 0.930 . S
C1307 C1308 1.355 . S
C1307 C1309 1.415 . S
C1308 C1307 1.355 . S
C1308 C1310 1.419 . S
C1309 C1304 1.425 . S
C1309 C1306 1.409 . S
C1309 C1307 1.415 . S
C1310 H1300 0.930 . S
C1310 C1308 1.419 . S
C1310 C1311 1.362 . S
C1311 H1301 0.930 . S
C1311 C1304 1.409 . S
C1311 C1310 1.362 . S
H1312 C1318 0.930 . S
H1313 C1321 0.930 . S
H1314 C1322 0.930 . S
H1315 C1323 0.930 . S
H1316 C1326 0.930 . S
H1317 C1327 0.930 . S
C1318 H1312 0.930 . S
C1318 C1319 1.355 . S
C1318 C1320 1.415 . S
C1319 C1318 1.355 . S
C1319 C1321 1.419 . S
C1320 C1318 1.415 . S
C1320 C1325 1.425 . S
C1320 C1327 1.409 . S
C1321 H1313 0.930 . S
C1321 C1319 1.419 . S
C1321 C1322 1.362 . S
C1322 H1314 0.930 . S
C1322 C1321 1.362 . S
C1322 C1325 1.409 . S
C1323 H1315 0.930 . S
C1323 C1324 1.355 . S
C1323 C1325 1.415 . S
C1324 C1323 1.355 . S
C1324 C1326 1.419 . S
C1325 C1320 1.425 . S
C1325 C1322 1.409 . S
C1325 C1323 1.415 . S
C1326 H1316 0.930 . S
C1326 C1324 1.419 . S
C1326 C1327 1.362 . S
C1327 H1317 0.930 . S
C1327 C1320 1.409 . S
C1327 C1326 1.362 . S
H1328 C1334 0.930 . S
H1329 C1337 0.930 . S
H1330 C1338 0.930 . S
H1331 C1339 0.930 . S
H1332 C1342 0.930 . S
H1333 C1343 0.930 . S
C1334 H1328 0.930 . S
C1334 C1335 1.355 . S
C1334 C1336 1.415 . S
C1335 C1334 1.355 . S
C1335 C1337 1.419 . S
C1336 C1334 1.415 . S
C1336 C1341 1.425 . S
C1336 C1343 1.409 . S
C1337 H1329 0.930 . S
C1337 C1335 1.419 . S
C1337 C1338 1.362 . S
C1338 H1330 0.930 . S
C1338 C1337 1.362 . S
C1338 C1341 1.409 . S
C1339 H1331 0.930 . S
C1339 C1340 1.355 . S
C1339 C1341 1.415 . S
C1340 C1339 1.355 . S
C1340 C1342 1.419 . S
C1341 C1336 1.425 . S
C1341 C1338 1.409 . S
C1341 C1339 1.415 . S
C1342 H1332 0.930 . S
C1342 C1340 1.419 . S
C1342 C1343 1.362 . S
C1343 H1333 0.930 . S
C1343 C1336 1.409 . S
C1343 C1342 1.362 . S
H1344 C1350 0.930 . S
H1345 C1353 0.930 . S
H1346 C1354 0.930 . S
H1347 C1355 0.930 . S
H1348 C1358 0.930 . S
H1349 C1359 0.910 1_556 S
C1350 H1344 0.930 . S
C1350 C1351 1.355 . S
C1350 C1352 1.415 . S
C1351 C1350 1.355 . S
C1351 C1353 1.419 . S
C1352 C1350 1.415 . S
C1352 C1357 1.425 . S
C1352 C1359 1.409 . S
C1353 H1345 0.930 . S
C1353 C1351 1.419 . S
C1353 C1354 1.362 . S
C1354 H1346 0.930 . S
C1354 C1353 1.362 . S
C1354 C1357 1.409 . S
C1355 H1347 0.930 . S
C1355 C1356 1.355 . S
C1355 C1357 1.415 . S
C1356 C1355 1.355 . S
C1356 C1358 1.419 . S
C1357 C1352 1.425 . S
C1357 C1354 1.409 . S
C1357 C1355 1.415 . S
C1358 H1348 0.930 . S
C1358 C1356 1.419 . S
C1358 C1359 1.362 . S
C1359 H1349 0.910 1_554 S
C1359 C1352 1.409 . S
C1359 C1358 1.362 . S
H1360 C1366 0.930 . S
H1361 C1369 0.930 . S
H1362 C1370 0.930 . S
H1363 C1371 0.930 . S
H1364 C1374 0.930 . S
H1365 C1375 0.930 . S
C1366 H1360 0.930 . S
C1366 C1367 1.355 . S
C1366 C1368 1.415 . S
C1367 C1366 1.355 . S
C1367 C1369 1.419 . S
C1368 C1366 1.415 . S
C1368 C1373 1.425 . S
C1368 C1375 1.409 . S
C1369 H1361 0.930 . S
C1369 C1367 1.419 . S
C1369 C1370 1.362 . S
C1370 H1362 0.930 . S
C1370 C1369 1.362 . S
C1370 C1373 1.409 . S
C1371 H1363 0.930 . S
C1371 C1372 1.355 . S
C1371 C1373 1.415 . S
C1372 C1371 1.355 . S
C1372 C1374 1.419 . S
C1373 C1368 1.425 . S
C1373 C1370 1.409 . S
C1373 C1371 1.415 . S
C1374 H1364 0.930 . S
C1374 C1372 1.419 . S
C1374 C1375 1.362 . S
C1375 H1365 0.930 . S
C1375 C1368 1.409 . S
C1375 C1374 1.362 . S
H1376 C1382 0.930 . S
H1377 C1385 0.930 . S
H1378 C1386 0.930 . S
H1379 C1387 0.930 . S
H1380 C1390 0.930 . S
H1381 C1391 0.930 . S
C1382 H1376 0.930 . S
C1382 C1383 1.355 . S
C1382 C1384 1.415 . S
C1383 C1382 1.355 . S
C1383 C1385 1.419 . S
C1384 C1382 1.415 . S
C1384 C1389 1.425 . S
C1384 C1391 1.409 . S
C1385 H1377 0.930 . S
C1385 C1383 1.419 . S
C1385 C1386 1.362 . S
C1386 H1378 0.930 . S
C1386 C1385 1.362 . S
C1386 C1389 1.409 . S
C1387 H1379 0.930 . S
C1387 C1388 1.355 . S
C1387 C1389 1.415 . S
C1388 C1387 1.355 . S
C1388 C1390 1.419 . S
C1389 C1384 1.425 . S
C1389 C1386 1.409 . S
C1389 C1387 1.415 . S
C1390 H1380 0.930 . S
C1390 C1388 1.419 . S
C1390 C1391 1.362 . S
C1391 H1381 0.930 . S
C1391 C1384 1.409 . S
C1391 C1390 1.362 . S
H1392 C1398 0.930 . S
H1393 C1401 0.930 . S
H1394 C1402 0.930 . S
H1395 C1403 0.930 . S
H1396 C1406 0.930 . S
H1397 C1407 0.930 . S
C1398 H1392 0.930 . S
C1398 C1399 1.355 . S
C1398 C1400 1.415 . S
C1399 C1398 1.355 . S
C1399 C1401 1.419 . S
C1400 C1398 1.415 . S
C1400 C1405 1.425 . S
C1400 C1407 1.409 . S
C1401 H1393 0.930 . S
C1401 C1399 1.419 . S
C1401 C1402 1.362 . S
C1402 H1394 0.930 . S
C1402 C1401 1.362 . S
C1402 C1405 1.409 . S
C1403 H1395 0.930 . S
C1403 C1404 1.355 . S
C1403 C1405 1.415 . S
C1404 C1403 1.355 . S
C1404 C1406 1.419 . S
C1405 C1400 1.425 . S
C1405 C1402 1.409 . S
C1405 C1403 1.415 . S
C1406 H1396 0.930 . S
C1406 C1404 1.419 . S
C1406 C1407 1.362 . S
C1407 H1397 0.930 . S
C1407 C1400 1.409 . S
C1407 C1406 1.362 . S
H1408 C1414 0.930 . S
H1409 C1417 0.930 . S
H1410 C1418 0.930 . S
H1411 C1419 0.930 . S
H1412 C1422 0.930 . S
H1413 C1423 0.930 . S
C1414 H1408 0.930 . S
C1414 C1415 1.355 . S
C1414 C1416 1.415 . S
C1415 C1414 1.355 . S
C1415 C1417 1.419 . S
C1416 C1414 1.415 . S
C1416 C1421 1.425 . S
C1416 C1423 1.409 . S
C1417 H1409 0.930 . S
C1417 C1415 1.419 . S
C1417 C1418 1.362 . S
C1418 H1410 0.930 . S
C1418 C1417 1.362 . S
C1418 C1421 1.409 . S
C1419 H1411 0.930 . S
C1419 C1420 1.355 . S
C1419 C1421 1.415 . S
C1420 C1419 1.355 . S
C1420 C1422 1.419 . S
C1421 C1416 1.425 . S
C1421 C1418 1.409 . S
C1421 C1419 1.415 . S
C1422 H1412 0.930 . S
C1422 C1420 1.419 . S
C1422 C1423 1.362 . S
C1423 H1413 0.930 . S
C1423 C1416 1.409 . S
C1423 C1422 1.362 . S
H1424 C1430 0.930 . S
H1425 C1433 0.930 . S
H1426 C1434 0.930 . S
H1427 C1435 0.930 . S
H1428 C1438 0.930 . S
H1429 C1439 0.930 . S
C1430 H1424 0.930 . S
C1430 C1431 1.355 . S
C1430 C1432 1.415 . S
C1431 C1430 1.355 . S
C1431 C1433 1.419 . S
C1432 C1430 1.415 . S
C1432 C1437 1.425 . S
C1432 C1439 1.409 . S
C1433 H1425 0.930 . S
C1433 C1431 1.419 . S
C1433 C1434 1.362 . S
C1434 H1426 0.930 . S
C1434 C1433 1.362 . S
C1434 C1437 1.409 . S
C1435 H1427 0.930 . S
C1435 C1436 1.355 . S
C1435 C1437 1.415 . S
C1436 C1435 1.355 . S
C1436 C1438 1.419 . S
C1437 C1432 1.425 . S
C1437 C1434 1.409 . S
C1437 C1435 1.415 . S
C1438 H1428 0.930 . S
C1438 C1436 1.419 . S
C1438 C1439 1.362 . S
C1439 H1429 0.930 . S
C1439 C1432 1.409 . S
C1439 C1438 1.362 . S
H1440 C1446 0.930 . S
H1441 C1449 0.930 . S
H1442 C1450 0.930 . S
H1443 C1451 0.930 . S
H1444 C1454 0.930 . S
H1445 C1455 0.930 . S
C1446 H1440 0.930 . S
C1446 C1447 1.355 . S
C1446 C1448 1.415 . S
C1447 C1446 1.355 . S
C1447 C1449 1.419 . S
C1448 C1446 1.415 . S
C1448 C1453 1.425 . S
C1448 C1455 1.409 . S
C1449 H1441 0.930 . S
C1449 C1447 1.419 . S
C1449 C1450 1.362 . S
C1450 H1442 0.930 . S
C1450 C1449 1.362 . S
C1450 C1453 1.409 . S
C1451 H1443 0.930 . S
C1451 C1452 1.355 . S
C1451 C1453 1.415 . S
C1452 C1451 1.355 . S
C1452 C1454 1.419 . S
C1453 C1448 1.425 . S
C1453 C1450 1.409 . S
C1453 C1451 1.415 . S
C1454 H1444 0.930 . S
C1454 C1452 1.419 . S
C1454 C1455 1.362 . S
C1455 H1445 0.930 . S
C1455 C1448 1.409 . S
C1455 C1454 1.362 . S
H1456 C1462 0.930 . S
H1457 C1465 0.930 . S
H1458 C1466 0.930 . S
H1459 C1467 0.930 . S
H1460 C1470 0.930 . S
H1461 C1471 0.930 . S
C1462 H1456 0.930 . S
C1462 C1463 1.355 . S
C1462 C1464 1.415 . S
C1463 C1462 1.355 . S
C1463 C1465 1.419 . S
C1464 C1462 1.415 . S
C1464 C1469 1.425 . S
C1464 C1471 1.409 . S
C1465 H1457 0.930 . S
C1465 C1463 1.419 . S
C1465 C1466 1.362 . S
C1466 H1458 0.930 . S
C1466 C1465 1.362 . S
C1466 C1469 1.409 . S
C1467 H1459 0.930 . S
C1467 C1468 1.355 . S
C1467 C1469 1.415 . S
C1468 C1467 1.355 . S
C1468 C1470 1.419 . S
C1469 C1464 1.425 . S
C1469 C1466 1.409 . S
C1469 C1467 1.415 . S
C1470 H1460 0.930 . S
C1470 C1468 1.419 . S
C1470 C1471 1.362 . S
C1471 H1461 0.930 . S
C1471 C1464 1.409 . S
C1471 C1470 1.362 . S
H1472 C1478 0.930 . S
H1473 C1481 0.930 . S
H1474 C1482 0.930 . S
H1475 C1483 0.930 . S
H1476 C1486 0.930 . S
H1477 C1487 0.930 . S
C1478 H1472 0.930 . S
C1478 C1479 1.355 . S
C1478 C1480 1.415 . S
C1479 C1478 1.355 . S
C1479 C1481 1.419 . S
C1480 C1478 1.415 . S
C1480 C1485 1.425 . S
C1480 C1487 1.409 . S
C1481 H1473 0.930 . S
C1481 C1479 1.419 . S
C1481 C1482 1.362 . S
C1482 H1474 0.930 . S
C1482 C1481 1.362 . S
C1482 C1485 1.409 . S
C1483 H1475 0.930 . S
C1483 C1484 1.355 . S
C1483 C1485 1.415 . S
C1484 C1483 1.355 . S
C1484 C1486 1.419 . S
C1485 C1480 1.425 . S
C1485 C1482 1.409 . S
C1485 C1483 1.415 . S
C1486 H1476 0.930 . S
C1486 C1484 1.419 . S
C1486 C1487 1.362 . S
C1487 H1477 0.930 . S
C1487 C1480 1.409 . S
C1487 C1486 1.362 . S
H1488 C1494 0.930 . S
H1489 C1497 0.930 . S
H1490 C1498 0.930 . S
H1491 C1499 0.930 . S
H1492 C1502 0.930 . S
H1493 C1503 0.930 . S
C1494 H1488 0.930 . S
C1494 C1495 1.355 . S
C1494 C1496 1.415 . S
C1495 C1494 1.355 . S
C1495 C1497 1.419 . S
C1496 C1494 1.415 . S
C1496 C1501 1.425 . S
C1496 C1503 1.409 . S
C1497 H1489 0.930 . S
C1497 C1495 1.419 . S
C1497 C1498 1.362 . S
C1498 H1490 0.930 . S
C1498 C1497 1.362 . S
C1498 C1501 1.409 . S
C1499 H1491 0.930 . S
C1499 C1500 1.355 . S
C1499 C1501 1.415 . S
C1500 C1499 1.355 . S
C1500 C1502 1.419 . S
C1501 C1496 1.425 . S
C1501 C1498 1.409 . S
C1501 C1499 1.415 . S
C1502 H1492 0.930 . S
C1502 C1500 1.419 . S
C1502 C1503 1.362 . S
C1503 H1493 0.930 . S
C1503 C1496 1.409 . S
C1503 C1502 1.362 . S
H1504 C1510 0.930 . S
H1505 C1513 0.930 . S
H1506 C1514 0.930 . S
H1507 C1515 0.930 . S
H1508 C1518 0.930 . S
H1509 C1519 0.930 . S
C1510 H1504 0.930 . S
C1510 C1511 1.355 . S
C1510 C1512 1.415 . S
C1511 C1510 1.355 . S
C1511 C1513 1.419 . S
C1512 C1510 1.415 . S
C1512 C1517 1.425 . S
C1512 C1519 1.409 . S
C1513 H1505 0.930 . S
C1513 C1511 1.419 . S
C1513 C1514 1.362 . S
C1514 H1506 0.930 . S
C1514 C1513 1.362 . S
C1514 C1517 1.409 . S
C1515 H1507 0.930 . S
C1515 C1516 1.355 . S
C1515 C1517 1.415 . S
C1516 C1515 1.355 . S
C1516 C1518 1.419 . S
C1517 C1512 1.425 . S
C1517 C1514 1.409 . S
C1517 C1515 1.415 . S
C1518 H1508 0.930 . S
C1518 C1516 1.419 . S
C1518 C1519 1.362 . S
C1519 H1509 0.930 . S
C1519 C1512 1.409 . S
C1519 C1518 1.362 . S
H1520 C1526 0.930 . S
H1521 C1529 0.930 . S
H1522 C1530 0.930 . S
H1523 C1531 0.930 . S
H1524 C1534 0.930 1_655 S
H1525 C1535 0.930 . S
C1526 H1520 0.930 . S
C1526 C1527 1.355 . S
C1526 C1528 1.415 . S
C1527 C1526 1.355 . S
C1527 C1529 1.419 . S
C1528 C1526 1.415 . S
C1528 C1533 1.425 . S
C1528 C1535 1.409 . S
C1529 H1521 0.930 . S
C1529 C1527 1.419 . S
C1529 C1530 1.362 . S
C1530 H1522 0.930 . S
C1530 C1529 1.362 . S
C1530 C1533 1.409 . S
C1531 H1523 0.930 . S
C1531 C1532 1.355 . S
C1531 C1533 1.415 . S
C1532 C1531 1.355 . S
C1532 C1534 1.419 . S
C1533 C1528 1.425 . S
C1533 C1530 1.409 . S
C1533 C1531 1.415 . S
C1534 H1524 0.930 1_455 S
C1534 C1532 1.419 . S
C1534 C1535 1.362 . S
C1535 H1525 0.930 . S
C1535 C1528 1.409 . S
C1535 C1534 1.362 . S
H1536 C1542 0.930 . S
H1537 C1545 0.930 . S
H1538 C1546 0.930 . S
H1539 C1547 0.930 . S
H1540 C1550 0.930 . S
H1541 C1551 0.930 . S
C1542 H1536 0.930 . S
C1542 C1543 1.355 . S
C1542 C1544 1.415 . S
C1543 C1542 1.355 . S
C1543 C1545 1.419 . S
C1544 C1542 1.415 . S
C1544 C1549 1.425 . S
C1544 C1551 1.409 . S
C1545 H1537 0.930 . S
C1545 C1543 1.419 . S
C1545 C1546 1.362 . S
C1546 H1538 0.930 . S
C1546 C1545 1.362 . S
C1546 C1549 1.409 . S
C1547 H1539 0.930 . S
C1547 C1548 1.355 . S
C1547 C1549 1.415 . S
C1548 C1547 1.355 . S
C1548 C1550 1.419 . S
C1549 C1544 1.425 . S
C1549 C1546 1.409 . S
C1549 C1547 1.415 . S
C1550 H1540 0.930 . S
C1550 C1548 1.419 . S
C1550 C1551 1.362 . S
C1551 H1541 0.930 . S
C1551 C1544 1.409 . S
C1551 C1550 1.362 . S
H1552 C1558 0.930 . S
H1553 C1561 0.930 . S
H1554 C1562 0.930 . S
H1555 C1563 0.930 . S
H1556 C1566 0.930 . S
H1557 C1567 0.930 . S
C1558 H1552 0.930 . S
C1558 C1559 1.355 . S
C1558 C1560 1.415 . S
C1559 C1558 1.355 . S
C1559 C1561 1.419 . S
C1560 C1558 1.415 . S
C1560 C1565 1.425 . S
C1560 C1567 1.409 . S
C1561 H1553 0.930 . S
C1561 C1559 1.419 . S
C1561 C1562 1.362 . S
C1562 H1554 0.930 . S
C1562 C1561 1.362 . S
C1562 C1565 1.409 . S
C1563 H1555 0.930 . S
C1563 C1564 1.355 . S
C1563 C1565 1.415 . S
C1564 C1563 1.355 . S
C1564 C1566 1.419 . S
C1565 C1560 1.425 . S
C1565 C1562 1.409 . S
C1565 C1563 1.415 . S
C1566 H1556 0.930 . S
C1566 C1564 1.419 . S
C1566 C1567 1.362 . S
C1567 H1557 0.930 . S
C1567 C1560 1.409 . S
C1567 C1566 1.362 . S
H1568 C1574 0.930 . S
H1569 C1577 0.930 . S
H1570 C1578 0.930 . S
H1571 C1579 0.930 . S
H1572 C1582 0.930 . S
H1573 C1583 0.930 . S
C1574 H1568 0.930 . S
C1574 C1575 1.355 . S
C1574 C1576 1.415 . S
C1575 C1574 1.355 . S
C1575 C1577 1.419 . S
C1576 C1574 1.415 . S
C1576 C1581 1.425 . S
C1576 C1583 1.409 . S
C1577 H1569 0.930 . S
C1577 C1575 1.419 . S
C1577 C1578 1.362 . S
C1578 H1570 0.930 . S
C1578 C1577 1.362 . S
C1578 C1581 1.409 . S
C1579 H1571 0.930 . S
C1579 C1580 1.355 . S
C1579 C1581 1.415 . S
C1580 C1579 1.355 . S
C1580 C1582 1.419 . S
C1581 C1576 1.425 . S
C1581 C1578 1.409 . S
C1581 C1579 1.415 . S
C1582 H1572 0.930 . S
C1582 C1580 1.419 . S
C1582 C1583 1.362 . S
C1583 H1573 0.930 . S
C1583 C1576 1.409 . S
C1583 C1582 1.362 . S
H1584 C1590 0.930 . S
H1585 C1593 0.930 . S
H1586 C1594 0.930 . S
H1587 C1595 0.930 . S
H1588 C1598 0.930 . S
H1589 C1599 0.930 . S
C1590 H1584 0.930 . S
C1590 C1591 1.355 . S
C1590 C1592 1.415 . S
C1591 C1590 1.355 . S
C1591 C1593 1.419 . S
C1592 C1590 1.415 . S
C1592 C1597 1.425 . S
C1592 C1599 1.409 . S
C1593 H1585 0.930 . S
C1593 C1591 1.419 . S
C1593 C1594 1.362 . S
C1594 H1586 0.930 . S
C1594 C1593 1.362 . S
C1594 C1597 1.409 . S
C1595 H1587 0.930 . S
C1595 C1596 1.355 . S
C1595 C1597 1.415 . S
C1596 C1595 1.355 . S
C1596 C1598 1.419 . S
C1597 C1592 1.425 . S
C1597 C1594 1.409 . S
C1597 C1595 1.415 . S
C1598 H1588 0.930 . S
C1598 C1596 1.419 . S
C1598 C1599 1.362 . S
C1599 H1589 0.930 . S
C1599 C1592 1.409 . S
C1599 C1598 1.362 . S
H1600 C1606 0.930 . S
H1601 C1609 0.930 . S
H1602 C1610 0.930 . S
H1603 C1611 0.930 . S
H1604 C1614 0.930 . S
H1605 C1615 0.930 . S
C1606 H1600 0.930 . S
C1606 C1607 1.355 . S
C1606 C1608 1.415 . S
C1607 C1606 1.355 . S
C1607 C1609 1.419 . S
C1608 C1606 1.415 . S
C1608 C1613 1.425 . S
C1608 C1615 1.409 . S
C1609 H1601 0.930 . S
C1609 C1607 1.419 . S
C1609 C1610 1.362 . S
C1610 H1602 0.930 . S
C1610 C1609 1.362 . S
C1610 C1613 1.409 . S
C1611 H1603 0.930 . S
C1611 C1612 1.355 . S
C1611 C1613 1.415 . S
C1612 C1611 1.355 . S
C1612 C1614 1.419 . S
C1613 C1608 1.425 . S
C1613 C1610 1.409 . S
C1613 C1611 1.415 . S
C1614 H1604 0.930 . S
C1614 C1612 1.419 . S
C1614 C1615 1.362 . S
C1615 H1605 0.930 . S
C1615 C1608 1.409 . S
C1615 C1614 1.362 . S
H1616 C1622 0.930 . S
H1617 C1625 0.930 . S
H1618 C1626 0.930 . S
H1619 C1627 0.930 . S
H1620 C1630 0.930 . S
H1621 C1631 0.930 . S
C1622 H1616 0.930 . S
C1622 C1623 1.355 . S
C1622 C1624 1.415 . S
C1623 C1622 1.355 . S
C1623 C1625 1.419 . S
C1624 C1622 1.415 . S
C1624 C1629 1.425 . S
C1624 C1631 1.409 . S
C1625 H1617 0.930 . S
C1625 C1623 1.419 . S
C1625 C1626 1.362 . S
C1626 H1618 0.930 . S
C1626 C1625 1.362 . S
C1626 C1629 1.409 . S
C1627 H1619 0.930 . S
C1627 C1628 1.355 . S
C1627 C1629 1.415 . S
C1628 C1627 1.355 . S
C1628 C1630 1.419 . S
C1629 C1624 1.425 . S
C1629 C1626 1.409 . S
C1629 C1627 1.415 . S
C1630 H1620 0.930 . S
C1630 C1628 1.419 . S
C1630 C1631 1.362 . S
C1631 H1621 0.930 . S
C1631 C1624 1.409 . S
C1631 C1630 1.362 . S
H1632 C1638 0.930 . S
H1633 C1641 0.930 . S
H1634 C1642 0.930 . S
H1635 C1643 0.930 . S
H1636 C1646 0.930 . S
H1637 C1647 0.930 . S
C1638 H1632 0.930 . S
C1638 C1639 1.355 . S
C1638 C1640 1.415 . S
C1639 C1638 1.355 . S
C1639 C1641 1.419 . S
C1640 C1638 1.415 . S
C1640 C1645 1.425 . S
C1640 C1647 1.409 . S
C1641 H1633 0.930 . S
C1641 C1639 1.419 . S
C1641 C1642 1.362 . S
C1642 H1634 0.930 . S
C1642 C1641 1.362 . S
C1642 C1645 1.409 . S
C1643 H1635 0.930 . S
C1643 C1644 1.355 . S
C1643 C1645 1.415 . S
C1644 C1643 1.355 . S
C1644 C1646 1.419 . S
C1645 C1640 1.425 . S
C1645 C1642 1.409 . S
C1645 C1643 1.415 . S
C1646 H1636 0.930 . S
C1646 C1644 1.419 . S
C1646 C1647 1.362 . S
C1647 H1637 0.930 . S
C1647 C1640 1.409 . S
C1647 C1646 1.362 . S
H1648 C1654 0.930 . S
H1649 C1657 0.930 . S
H1650 C1658 0.930 . S
H1651 C1659 0.930 . S
H1652 C1662 0.930 . S
H1653 C1663 0.930 . S
C1654 H1648 0.930 . S
C1654 C1655 1.355 . S
C1654 C1656 1.415 . S
C1655 C1654 1.355 . S
C1655 C1657 1.419 . S
C1656 C1654 1.415 . S
C1656 C1661 1.425 . S
C1656 C1663 1.409 . S
C1657 H1649 0.930 . S
C1657 C1655 1.419 . S
C1657 C1658 1.362 . S
C1658 H1650 0.930 . S
C1658 C1657 1.362 . S
C1658 C1661 1.409 . S
C1659 H1651 0.930 . S
C1659 C1660 1.355 . S
C1659 C1661 1.415 . S
C1660 C1659 1.355 . S
C1660 C1662 1.419 . S
C1661 C1656 1.425 . S
C1661 C1658 1.409 . S
C1661 C1659 1.415 . S
C1662 H1652 0.930 . S
C1662 C1660 1.419 . S
C1662 C1663 1.362 . S
C1663 H1653 0.930 . S
C1663 C1656 1.409 . S
C1663 C1662 1.362 . S
H1664 C1670 0.930 . S
H1665 C1673 0.930 . S
H1666 C1674 0.930 . S
H1667 C1675 0.930 . S
H1668 C1678 0.930 . S
H1669 C1679 0.930 . S
C1670 H1664 0.930 . S
C1670 C1671 1.355 . S
C1670 C1672 1.415 . S
C1671 C1670 1.355 . S
C1671 C1673 1.419 . S
C1672 C1670 1.415 . S
C1672 C1677 1.425 . S
C1672 C1679 1.409 . S
C1673 H1665 0.930 . S
C1673 C1671 1.419 . S
C1673 C1674 1.362 . S
C1674 H1666 0.930 . S
C1674 C1673 1.362 . S
C1674 C1677 1.409 . S
C1675 H1667 0.930 . S
C1675 C1676 1.355 . S
C1675 C1677 1.415 . S
C1676 C1675 1.355 . S
C1676 C1678 1.419 . S
C1677 C1672 1.425 . S
C1677 C1674 1.409 . S
C1677 C1675 1.415 . S
C1678 H1668 0.930 . S
C1678 C1676 1.419 . S
C1678 C1679 1.362 . S
C1679 H1669 0.930 . S
C1679 C1672 1.409 . S
C1679 C1678 1.362 . S
H1680 C1686 0.930 . S
H1681 C1689 0.930 . S
H1682 C1690 0.930 . S
H1683 C1691 0.930 . S
H1684 C1694 0.930 . S
H1685 C1695 0.930 . S
C1686 H1680 0.930 . S
C1686 C1687 1.355 . S
C1686 C1688 1.415 . S
C1687 C1686 1.355 . S
C1687 C1689 1.419 . S
C1688 C1686 1.415 . S
C1688 C1693 1.425 . S
C1688 C1695 1.409 . S
C1689 H1681 0.930 . S
C1689 C1687 1.419 . S
C1689 C1690 1.362 . S
C1690 H1682 0.930 . S
C1690 C1689 1.362 . S
C1690 C1693 1.409 . S
C1691 H1683 0.930 . S
C1691 C1692 1.355 . S
C1691 C1693 1.415 . S
C1692 C1691 1.355 . S
C1692 C1694 1.419 . S
C1693 C1688 1.425 . S
C1693 C1690 1.409 . S
C1693 C1691 1.415 . S
C1694 H1684 0.930 . S
C1694 C1692 1.419 . S
C1694 C1695 1.362 . S
C1695 H1685 0.930 . S
C1695 C1688 1.409 . S
C1695 C1694 1.362 . S
H1696 C1702 0.930 . S
H1697 C1705 0.930 . S
H1698 C1706 0.930 . S
H1699 C1707 0.930 . S
H1700 C1710 0.930 . S
H1701 C1711 0.930 . S
C1702 H1696 0.930 . S
C1702 C1703 1.355 . S
C1702 C1704 1.415 . S
C1703 C1702 1.355 . S
C1703 C1705 1.419 . S
C1704 C1702 1.415 . S
C1704 C1709 1.425 . S
C1704 C1711 1.409 . S
C1705 H1697 0.930 . S
C1705 C1703 1.419 . S
C1705 C1706 1.362 . S
C1706 H1698 0.930 . S
C1706 C1705 1.362 . S
C1706 C1709 1.409 . S
C1707 H1699 0.930 . S
C1707 C1708 1.355 . S
C1707 C1709 1.415 . S
C1708 C1707 1.355 . S
C1708 C1710 1.419 . S
C1709 C1704 1.425 . S
C1709 C1706 1.409 . S
C1709 C1707 1.415 . S
C1710 H1700 0.930 . S
C1710 C1708 1.419 . S
C1710 C1711 1.362 . S
C1711 H1701 0.930 . S
C1711 C1704 1.409 . S
C1711 C1710 1.362 . S
H1712 C1718 0.930 . S
H1713 C1721 0.930 . S
H1714 C1722 0.930 . S
H1715 C1723 0.930 . S
H1716 C1726 0.930 . S
H1717 C1727 0.930 . S
C1718 H1712 0.930 . S
C1718 C1719 1.355 . S
C1718 C1720 1.415 . S
C1719 C1718 1.355 . S
C1719 C1721 1.419 . S
C1720 C1718 1.415 . S
C1720 C1725 1.425 . S
C1720 C1727 1.409 . S
C1721 H1713 0.930 . S
C1721 C1719 1.419 . S
C1721 C1722 1.362 . S
C1722 H1714 0.930 . S
C1722 C1721 1.362 . S
C1722 C1725 1.409 . S
C1723 H1715 0.930 . S
C1723 C1724 1.355 . S
C1723 C1725 1.415 . S
C1724 C1723 1.355 . S
C1724 C1726 1.419 . S
C1725 C1720 1.425 . S
C1725 C1722 1.409 . S
C1725 C1723 1.415 . S
C1726 H1716 0.930 . S
C1726 C1724 1.419 . S
C1726 C1727 1.362 . S
C1727 H1717 0.930 . S
C1727 C1720 1.409 . S
C1727 C1726 1.362 . S
H1728 C1734 0.930 . S
H1729 C1737 0.930 . S
H1730 C1738 0.930 . S
H1731 C1739 0.930 . S
H1732 C1742 0.930 . S
H1733 C1743 0.930 . S
C1734 H1728 0.930 . S
C1734 C1735 1.355 . S
C1734 C1736 1.415 . S
C1735 C1734 1.355 . S
C1735 C1737 1.419 . S
C1736 C1734 1.415 . S
C1736 C1741 1.425 . S
C1736 C1743 1.409 . S
C1737 H1729 0.930 . S
C1737 C1735 1.419 . S
C1737 C1738 1.362 . S
C1738 H1730 0.930 . S
C1738 C1737 1.362 . S
C1738 C1741 1.409 . S
C1739 H1731 0.930 . S
C1739 C1740 1.355 . S
C1739 C1741 1.415 . S
C1740 C1739 1.355 . S
C1740 C1742 1.419 . S
C1741 C1736 1.425 . S
C1741 C1738 1.409 . S
C1741 C1739 1.415 . S
C1742 H1732 0.930 . S
C1742 C1740 1.419 . S
C1742 C1743 1.362 . S
C1743 H1733 0.930 . S
C1743 C1736 1.409 . S
C1743 C1742 1.362 . S
H1744 C1750 0.930 . S
H1745 C1753 0.930 . S
H1746 C1754 0.930 . S
H1747 C1755 0.930 . S
H1748 C1758 0.930 . S
H1749 C1759 0.930 . S
C1750 H1744 0.930 . S
C1750 C1751 1.355 . S
C1750 C1752 1.415 . S
C1751 C1750 1.355 . S
C1751 C1753 1.419 . S
C1752 C1750 1.415 . S
C1752 C1757 1.425 . S
C1752 C1759 1.409 . S
C1753 H1745 0.930 . S
C1753 C1751 1.419 . S
C1753 C1754 1.362 . S
C1754 H1746 0.930 . S
C1754 C1753 1.362 . S
C1754 C1757 1.409 . S
C1755 H1747 0.930 . S
C1755 C1756 1.355 . S
C1755 C1757 1.415 . S
C1756 C1755 1.355 . S
C1756 C1758 1.419 . S
C1757 C1752 1.425 . S
C1757 C1754 1.409 . S
C1757 C1755 1.415 . S
C1758 H1748 0.930 . S
C1758 C1756 1.419 . S
C1758 C1759 1.362 . S
C1759 H1749 0.930 . S
C1759 C1752 1.409 . S
C1759 C1758 1.362 . S
H1760 C1766 0.930 . S
H1761 C1769 0.930 . S
H1762 C1770 0.930 . S
H1763 C1771 0.930 . S
H1764 C1774 0.930 . S
H1765 C1775 0.930 . S
C1766 H1760 0.930 . S
C1766 C1767 1.355 . S
C1766 C1768 1.415 . S
C1767 C1766 1.355 . S
C1767 C1769 1.419 . S
C1768 C1766 1.415 . S
C1768 C1773 1.425 . S
C1768 C1775 1.409 . S
C1769 H1761 0.930 . S
C1769 C1767 1.419 . S
C1769 C1770 1.362 . S
C1770 H1762 0.930 . S
C1770 C1769 1.362 . S
C1770 C1773 1.409 . S
C1771 H1763 0.930 . S
C1771 C1772 1.355 . S
C1771 C1773 1.415 . S
C1772 C1771 1.355 . S
C1772 C1774 1.419 . S
C1773 C1768 1.425 . S
C1773 C1770 1.409 . S
C1773 C1771 1.415 . S
C1774 H1764 0.930 . S
C1774 C1772 1.419 . S
C1774 C1775 1.362 . S
C1775 H1765 0.930 . S
C1775 C1768 1.409 . S
C1775 C1774 1.362 . S
H1776 C1782 0.930 . S
H1777 C1785 0.930 . S
H1778 C1786 0.930 . S
H1779 C1787 0.930 . S
H1780 C1790 0.930 . S
H1781 C1791 0.930 . S
C1782 H1776 0.930 . S
C1782 C1783 1.355 . S
C1782 C1784 1.415 . S
C1783 C1782 1.355 . S
C1783 C1785 1.419 . S
C1784 C1782 1.415 . S
C1784 C1789 1.425 . S
C1784 C1791 1.409 . S
C1785 H1777 0.930 . S
C1785 C1783 1.419 . S
C1785 C1786 1.362 . S
C1786 H1778 0.930 . S
C1786 C1785 1.362 . S
C1786 C1789 1.409 . S
C1787 H1779 0.930 . S
C1787 C1788 1.355 . S
C1787 C1789 1.415 . S
C1788 C1787 1.355 . S
C1788 C1790 1.419 . S
C1789 C1784 1.425 . S
C1789 C1786 1.409 . S
C1789 C1787 1.415 . S
C1790 H1780 0.930 . S
C1790 C1788 1.419 . S
C1790 C1791 1.362 . S
C1791 H1781 0.930 . S
C1791 C1784 1.409 . S
C1791 C1790 1.362 . S
H1792 C1798 0.930 . S
H1793 C1801 0.930 . S
H1794 C1802 0.930 1_554 S
H1795 C1803 0.930 . S
H1796 C1806 0.930 . S
H1797 C1807 0.930 . S
C1798 H1792 0.930 . S
C1798 C1799 1.355 . S
C1798 C1800 1.415 . S
C1799 C1798 1.355 . S
C1799 C1801 1.419 . S
C1800 C1798 1.415 . S
C1800 C1805 1.425 . S
C1800 C1807 1.409 . S
C1801 H1793 0.930 . S
C1801 C1799 1.419 . S
C1801 C1802 1.362 . S
C1802 H1794 0.930 1_556 S
C1802 C1801 1.362 . S
C1802 C1805 1.409 . S
C1803 H1795 0.930 . S
C1803 C1804 1.355 . S
C1803 C1805 1.415 . S
C1804 C1803 1.355 . S
C1804 C1806 1.419 . S
C1805 C1800 1.425 . S
C1805 C1802 1.409 . S
C1805 C1803 1.415 . S
C1806 H1796 0.930 . S
C1806 C1804 1.419 . S
C1806 C1807 1.362 . S
C1807 H1797 0.930 . S
C1807 C1800 1.409 . S
C1807 C1806 1.362 . S
H1808 C1814 0.930 . S
H1809 C1817 0.930 . S
H1810 C1818 0.930 . S
H1811 C1819 0.930 . S
H1812 C1822 0.930 . S
H1813 C1823 0.930 . S
C1814 H1808 0.930 . S
C1814 C1815 1.355 . S
C1814 C1816 1.415 . S
C1815 C1814 1.355 . S
C1815 C1817 1.419 . S
C1816 C1814 1.415 . S
C1816 C1821 1.425 . S
C1816 C1823 1.409 . S
C1817 H1809 0.930 . S
C1817 C1815 1.419 . S
C1817 C1818 1.362 . S
C1818 H1810 0.930 . S
C1818 C1817 1.362 . S
C1818 C1821 1.409 . S
C1819 H1811 0.930 . S
C1819 C1820 1.355 . S
C1819 C1821 1.415 . S
C1820 C1819 1.355 . S
C1820 C1822 1.419 . S
C1821 C1816 1.425 . S
C1821 C1818 1.409 . S
C1821 C1819 1.415 . S
C1822 H1812 0.930 . S
C1822 C1820 1.419 . S
C1822 C1823 1.362 . S
C1823 H1813 0.930 . S
C1823 C1816 1.409 . S
C1823 C1822 1.362 . S
H1824 C1830 0.930 . S
H1825 C1833 0.930 . S
H1826 C1834 0.930 . S
H1827 C1835 0.930 . S
H1828 C1838 0.930 . S
H1829 C1839 0.930 . S
C1830 H1824 0.930 . S
C1830 C1831 1.355 . S
C1830 C1832 1.415 . S
C1831 C1830 1.355 . S
C1831 C1833 1.419 . S
C1832 C1830 1.415 . S
C1832 C1837 1.425 . S
C1832 C1839 1.409 . S
C1833 H1825 0.930 . S
C1833 C1831 1.419 . S
C1833 C1834 1.362 . S
C1834 H1826 0.930 . S
C1834 C1833 1.362 . S
C1834 C1837 1.409 . S
C1835 H1827 0.930 . S
C1835 C1836 1.355 . S
C1835 C1837 1.415 . S
C1836 C1835 1.355 . S
C1836 C1838 1.419 . S
C1837 C1832 1.425 . S
C1837 C1834 1.409 . S
C1837 C1835 1.415 . S
C1838 H1828 0.930 . S
C1838 C1836 1.419 . S
C1838 C1839 1.362 . S
C1839 H1829 0.930 . S
C1839 C1832 1.409 . S
C1839 C1838 1.362 . S
H1840 C1846 0.930 . S
H1841 C1849 0.930 . S
H1842 C1850 0.930 . S
H1843 C1851 0.930 . S
H1844 C1854 0.930 . S
H1845 C1855 0.930 . S
C1846 H1840 0.930 . S
C1846 C1847 1.355 . S
C1846 C1848 1.415 . S
C1847 C1846 1.355 . S
C1847 C1849 1.419 . S
C1848 C1846 1.415 . S
C1848 C1853 1.425 . S
C1848 C1855 1.409 . S
C1849 H1841 0.930 . S
C1849 C1847 1.419 . S
C1849 C1850 1.362 . S
C1850 H1842 0.930 . S
C1850 C1849 1.362 . S
C1850 C1853 1.409 . S
C1851 H1843 0.930 . S
C1851 C1852 1.355 . S
C1851 C1853 1.415 . S
C1852 C1851 1.355 . S
C1852 C1854 1.419 . S
C1853 C1848 1.425 . S
C1853 C1850 1.409 . S
C1853 C1851 1.415 . S
C1854 H1844 0.930 . S
C1854 C1852 1.419 . S
C1854 C1855 1.362 . S
C1855 H1845 0.930 . S
C1855 C1848 1.409 . S
C1855 C1854 1.362 . S
H1856 C1862 0.930 . S
H1857 C1865 0.930 . S
H1858 C1866 0.930 . S
H1859 C1867 0.930 . S
H1860 C1870 0.930 . S
H1861 C1871 0.930 . S
C1862 H1856 0.930 . S
C1862 C1863 1.355 . S
C1862 C1864 1.415 . S
C1863 C1862 1.355 . S
C1863 C1865 1.419 . S
C1864 C1862 1.415 . S
C1864 C1869 1.425 . S
C1864 C1871 1.409 . S
C1865 H1857 0.930 . S
C1865 C1863 1.419 . S
C1865 C1866 1.362 . S
C1866 H1858 0.930 . S
C1866 C1865 1.362 . S
C1866 C1869 1.409 . S
C1867 H1859 0.930 . S
C1867 C1868 1.355 . S
C1867 C1869 1.415 . S
C1868 C1867 1.355 . S
C1868 C1870 1.419 . S
C1869 C1864 1.425 . S
C1869 C1866 1.409 . S
C1869 C1867 1.415 . S
C1870 H1860 0.930 . S
C1870 C1868 1.419 . S
C1870 C1871 1.362 . S
C1871 H1861 0.930 . S
C1871 C1864 1.409 . S
C1871 C1870 1.362 . S
H1872 C1878 0.930 . S
H1873 C1881 0.930 . S
H1874 C1882 0.930 . S
H1875 C1883 0.930 . S
H1876 C1886 0.930 . S
H1877 C1887 0.930 . S
C1878 H1872 0.930 . S
C1878 C1879 1.355 . S
C1878 C1880 1.415 . S
C1879 C1878 1.355 . S
C1879 C1881 1.419 . S
C1880 C1878 1.415 . S
C1880 C1885 1.425 . S
C1880 C1887 1.409 . S
C1881 H1873 0.930 . S
C1881 C1879 1.419 . S
C1881 C1882 1.362 . S
C1882 H1874 0.930 . S
C1882 C1881 1.362 . S
C1882 C1885 1.409 . S
C1883 H1875 0.930 . S
C1883 C1884 1.355 . S
C1883 C1885 1.415 . S
C1884 C1883 1.355 . S
C1884 C1886 1.419 . S
C1885 C1880 1.425 . S
C1885 C1882 1.409 . S
C1885 C1883 1.415 . S
C1886 H1876 0.930 . S
C1886 C1884 1.419 . S
C1886 C1887 1.362 . S
C1887 H1877 0.930 . S
C1887 C1880 1.409 . S
C1887 C1886 1.362 . S
H1888 C1894 0.930 . S
H1889 C1897 0.930 . S
H1890 C1898 0.930 . S
H1891 C1899 0.930 . S
H1892 C1902 0.930 . S
H1893 C1903 0.930 . S
C1894 H1888 0.930 . S
C1894 C1895 1.355 . S
C1894 C1896 1.415 . S
C1895 C1894 1.355 . S
C1895 C1897 1.419 . S
C1896 C1894 1.415 . S
C1896 C1901 1.425 . S
C1896 C1903 1.409 . S
C1897 H1889 0.930 . S
C1897 C1895 1.419 . S
C1897 C1898 1.362 . S
C1898 H1890 0.930 . S
C1898 C1897 1.362 . S
C1898 C1901 1.409 . S
C1899 H1891 0.930 . S
C1899 C1900 1.355 . S
C1899 C1901 1.415 . S
C1900 C1899 1.355 . S
C1900 C1902 1.419 . S
C1901 C1896 1.425 . S
C1901 C1898 1.409 . S
C1901 C1899 1.415 . S
C1902 H1892 0.930 . S
C1902 C1900 1.419 . S
C1902 C1903 1.362 . S
C1903 H1893 0.930 . S
C1903 C1896 1.409 . S
C1903 C1902 1.362 . S
H1904 C1910 0.930 . S
H1905 C1913 0.930 . S
H1906 C1914 0.930 . S
H1907 C1915 0.930 . S
H1908 C1918 0.930 . S
H1909 C1919 0.930 . S
C1910 H1904 0.930 . S
C1910 C1911 1.355 . S
C1910 C1912 1.415 . S
C1911 C1910 1.355 . S
C1911 C1913 1.419 . S
C1912 C1910 1.415 . S
C1912 C1917 1.425 . S
C1912 C1919 1.409 . S
C1913 H1905 0.930 . S
C1913 C1911 1.419 . S
C1913 C1914 1.362 . S
C1914 H1906 0.930 . S
C1914 C1913 1.362 . S
C1914 C1917 1.409 . S
C1915 H1907 0.930 . S
C1915 C1916 1.355 . S
C1915 C1917 1.415 . S
C1916 C1915 1.355 . S
C1916 C1918 1.419 . S
C1917 C1912 1.425 . S
C1917 C1914 1.409 . S
C1917 C1915 1.415 . S
C1918 H1908 0.930 . S
C1918 C1916 1.419 . S
C1918 C1919 1.362 . S
C1919 H1909 0.930 . S
C1919 C1912 1.409 . S
C1919 C1918 1.362 . S
H1920 C1926 0.930 . S
H1921 C1929 0.930 . S
H1922 C1930 0.930 . S
H1923 C1931 0.930 . S
H1924 C1934 0.930 . S
H1925 C1935 0.930 . S
C1926 H1920 0.930 . S
C1926 C1927 1.355 . S
C1926 C1928 1.415 . S
C1927 C1926 1.355 . S
C1927 C1929 1.419 . S
C1928 C1926 1.415 . S
C1928 C1933 1.425 . S
C1928 C1935 1.409 . S
C1929 H1921 0.930 . S
C1929 C1927 1.419 . S
C1929 C1930 1.362 . S
C1930 H1922 0.930 . S
C1930 C1929 1.362 . S
C1930 C1933 1.409 . S
C1931 H1923 0.930 . S
C1931 C1932 1.355 . S
C1931 C1933 1.415 . S
C1932 C1931 1.355 . S
C1932 C1934 1.419 . S
C1933 C1928 1.425 . S
C1933 C1930 1.409 . S
C1933 C1931 1.415 . S
C1934 H1924 0.930 . S
C1934 C1932 1.419 . S
C1934 C1935 1.362 . S
C1935 H1925 0.930 . S
C1935 C1928 1.409 . S
C1935 C1934 1.362 . S
H1936 C1942 0.930 . S
H1937 C1945 0.930 . S
H1938 C1946 0.930 . S
H1939 C1947 0.930 . S
H1940 C1950 0.930 . S
H1941 C1951 0.930 . S
C1942 H1936 0.930 . S
C1942 C1943 1.355 . S
C1942 C1944 1.415 . S
C1943 C1942 1.355 . S
C1943 C1945 1.419 . S
C1944 C1942 1.415 . S
C1944 C1949 1.425 . S
C1944 C1951 1.409 . S
C1945 H1937 0.930 . S
C1945 C1943 1.419 . S
C1945 C1946 1.362 . S
C1946 H1938 0.930 . S
C1946 C1945 1.362 . S
C1946 C1949 1.409 . S
C1947 H1939 0.930 . S
C1947 C1948 1.355 . S
C1947 C1949 1.415 . S
C1948 C1947 1.355 . S
C1948 C1950 1.419 . S
C1949 C1944 1.425 . S
C1949 C1946 1.409 . S
C1949 C1947 1.415 . S
C1950 H1940 0.930 . S
C1950 C1948 1.419 . S
C1950 C1951 1.362 . S
C1951 H1941 0.930 . S
C1951 C1944 1.409 . S
C1951 C1950 1.362 . S
H1952 C1958 0.930 . S
H1953 C1961 0.930 . S
H1954 C1962 0.930 . S
H1955 C1963 0.930 . S
H1956 C1966 0.930 . S
H1957 C1967 0.930 . S
C1958 H1952 0.930 . S
C1958 C1959 1.355 . S
C1958 C1960 1.415 . S
C1959 C1958 1.355 . S
C1959 C1961 1.419 . S
C1960 C1958 1.415 . S
C1960 C1965 1.425 . S
C1960 C1967 1.409 . S
C1961 H1953 0.930 . S
C1961 C1959 1.419 . S
C1961 C1962 1.362 . S
C1962 H1954 0.930 . S
C1962 C1961 1.362 . S
C1962 C1965 1.409 . S
C1963 H1955 0.930 . S
C1963 C1964 1.355 . S
C1963 C1965 1.415 . S
C1964 C1963 1.355 . S
C1964 C1966 1.419 . S
C1965 C1960 1.425 . S
C1965 C1962 1.409 . S
C1965 C1963 1.415 . S
C1966 H1956 0.930 . S
C1966 C1964 1.419 . S
C1966 C1967 1.362 . S
C1967 H1957 0.930 . S
C1967 C1960 1.409 . S
C1967 C1966 1.362 . S
H1968 C1974 0.930 . S
H1969 C1977 0.930 . S
H1970 C1978 0.930 . S
H1971 C1979 0.930 . S
H1972 C1982 0.930 . S
H1973 C1983 0.930 . S
C1974 H1968 0.930 . S
C1974 C1975 1.355 . S
C1974 C1976 1.415 . S
C1975 C1974 1.355 . S
C1975 C1977 1.419 . S
C1976 C1974 1.415 . S
C1976 C1981 1.425 . S
C1976 C1983 1.409 . S
C1977 H1969 0.930 . S
C1977 C1975 1.419 . S
C1977 C1978 1.362 . S
C1978 H1970 0.930 . S
C1978 C1977 1.362 . S
C1978 C1981 1.409 . S
C1979 H1971 0.930 . S
C1979 C1980 1.355 . S
C1979 C1981 1.415 . S
C1980 C1979 1.355 . S
C1980 C1982 1.419 . S
C1981 C1976 1.425 . S
C1981 C1978 1.409 . S
C1981 C1979 1.415 . S
C1982 H1972 0.930 . S
C1982 C1980 1.419 . S
C1982 C1983 1.362 . S
C1983 H1973 0.930 . S
C1983 C1976 1.409 . S
C1983 C1982 1.362 . S
H1984 C1990 0.930 . S
H1985 C1993 0.930 . S
H1986 C1994 0.930 . S
H1987 C1995 0.930 . S
H1988 C1998 0.930 . S
H1989 C1999 0.930 . S
C1990 H1984 0.930 . S
C1990 C1991 1.355 . S
C1990 C1992 1.415 . S
C1991 C1990 1.355 . S
C1991 C1993 1.419 . S
C1992 C1990 1.415 . S
C1992 C1997 1.425 . S
C1992 C1999 1.409 . S
C1993 H1985 0.930 . S
C1993 C1991 1.419 . S
C1993 C1994 1.362 . S
C1994 H1986 0.930 . S
C1994 C1993 1.362 . S
C1994 C1997 1.409 . S
C1995 H1987 0.930 . S
C1995 C1996 1.355 . S
C1995 C1997 1.415 . S
C1996 C1995 1.355 . S
C1996 C1998 1.419 . S
C1997 C1992 1.425 . S
C1997 C1994 1.409 . S
C1997 C1995 1.415 . S
C1998 H1988 0.930 . S
C1998 C1996 1.419 . S
C1998 C1999 1.362 . S
C1999 H1989 0.930 . S
C1999 C1992 1.409 . S
C1999 C1998 1.362 . S
H2000 C2006 0.930 . S
H2001 C2009 0.930 . S
H2002 C2010 0.930 . S
H2003 C2011 0.930 . S
H2004 C2014 0.930 . S
H2005 C2015 0.930 . S
C2006 H2000 0.930 . S
C2006 C2007 1.355 . S
C2006 C2008 1.415 . S
C2007 C2006 1.355 . S
C2007 C2009 1.419 . S
C2008 C2006 1.415 . S
C2008 C2013 1.425 . S
C2008 C2015 1.409 . S
C2009 H2001 0.930 . S
C2009 C2007 1.419 . S
C2009 C2010 1.362 . S
C2010 H2002 0.930 . S
C2010 C2009 1.362 . S
C2010 C2013 1.409 . S
C2011 H2003 0.930 . S
C2011 C2012 1.355 . S
C2011 C2013 1.415 . S
C2012 C2011 1.355 . S
C2012 C2014 1.419 . S
C2013 C2008 1.425 . S
C2013 C2010 1.409 . S
C2013 C2011 1.415 . S
C2014 H2004 0.930 . S
C2014 C2012 1.419 . S
C2014 C2015 1.362 . S
C2015 H2005 0.930 . S
C2015 C2008 1.409 . S
C2015 C2014 1.362 . S
H2016 C2022 0.930 . S
H2017 C2025 0.930 . S
H2018 C2026 0.930 . S
H2019 C2027 0.930 . S
H2020 C2030 0.930 . S
H2021 C2031 0.930 . S
C2022 H2016 0.930 . S
C2022 C2023 1.355 . S
C2022 C2024 1.415 . S
C2023 C2022 1.355 . S
C2023 C2025 1.419 . S
C2024 C2022 1.415 . S
C2024 C2029 1.425 . S
C2024 C2031 1.409 . S
C2025 H2017 0.930 . S
C2025 C2023 1.419 . S
C2025 C2026 1.362 . S
C2026 H2018 0.930 . S
C2026 C2025 1.362 . S
C2026 C2029 1.409 . S
C2027 H2019 0.930 . S
C2027 C2028 1.355 . S
C2027 C2029 1.415 . S
C2028 C2027 1.355 . S
C2028 C2030 1.419 . S
C2029 C2024 1.425 . S
C2029 C2026 1.409 . S
C2029 C2027 1.415 . S
C2030 H2020 0.930 . S
C2030 C2028 1.419 . S
C2030 C2031 1.362 . S
C2031 H2021 0.930 . S
C2031 C2024 1.409 . S
C2031 C2030 1.362 . S
H2032 C2038 0.930 . S
H2033 C2041 0.930 . S
H2034 C2042 0.930 . S
H2035 C2043 0.930 . S
H2036 C2046 0.930 . S
H2037 C2047 0.930 . S
C2038 H2032 0.930 . S
C2038 C2039 1.355 . S
C2038 C2040 1.415 . S
C2039 C2038 1.355 . S
C2039 C2041 1.419 . S
C2040 C2038 1.415 . S
C2040 C2045 1.425 . S
C2040 C2047 1.409 . S
C2041 H2033 0.930 . S
C2041 C2039 1.419 . S
C2041 C2042 1.362 . S
C2042 H2034 0.930 . S
C2042 C2041 1.362 . S
C2042 C2045 1.409 . S
C2043 H2035 0.930 . S
C2043 C2044 1.355 . S
C2043 C2045 1.415 . S
C2044 C2043 1.355 . S
C2044 C2046 1.419 . S
C2045 C2040 1.425 . S
C2045 C2042 1.409 . S
C2045 C2043 1.415 . S
C2046 H2036 0.930 . S
C2046 C2044 1.419 . S
C2046 C2047 1.362 . S
C2047 H2037 0.930 . S
C2047 C2040 1.409 . S
C2047 C2046 1.362 . S
H2048 C2054 0.930 . S
H2049 C2057 0.930 . S
H2050 C2058 0.930 . S
H2051 C2059 0.930 . S
H2052 C2062 0.930 . S
H2053 C2063 0.930 . S
C2054 H2048 0.930 . S
C2054 C2055 1.355 . S
C2054 C2056 1.415 . S
C2055 C2054 1.355 . S
C2055 C2057 1.419 . S
C2056 C2054 1.415 . S
C2056 C2061 1.425 . S
C2056 C2063 1.409 . S
C2057 H2049 0.930 . S
C2057 C2055 1.419 . S
C2057 C2058 1.362 . S
C2058 H2050 0.930 . S
C2058 C2057 1.362 . S
C2058 C2061 1.409 . S
C2059 H2051 0.930 . S
C2059 C2060 1.355 . S
C2059 C2061 1.415 . S
C2060 C2059 1.355 . S
C2060 C2062 1.419 . S
C2061 C2056 1.425 . S
C2061 C2058 1.409 . S
C2061 C2059 1.415 . S
C2062 H2052 0.930 . S
C2062 C2060 1.419 . S
C2062 C2063 1.362 . S
C2063 H2053 0.930 . S
C2063 C2056 1.409 . S
C2063 C2062 1.362 . S
H2064 C2070 0.930 . S
H2065 C2073 0.930 . S
H2066 C2074 0.930 . S
H2067 C2075 0.930 . S
H2068 C2078 0.930 . S
H2069 C2079 0.930 . S
C2070 H2064 0.930 . S
C2070 C2071 1.355 . S
C2070 C2072 1.415 . S
C2071 C2070 1.355 . S
C2071 C2073 1.419 . S
C2072 C2070 1.415 . S
C2072 C2077 1.425 . S
C2072 C2079 1.409 . S
C2073 H2065 0.930 . S
C2073 C2071 1.419 . S
C2073 C2074 1.362 . S
C2074 H2066 0.930 . S
C2074 C2073 1.362 . S
C2074 C2077 1.409 . S
C2075 H2067 0.930 . S
C2075 C2076 1.355 . S
C2075 C2077 1.415 . S
C2076 C2075 1.355 . S
C2076 C2078 1.419 . S
C2077 C2072 1.425 . S
C2077 C2074 1.409 . S
C2077 C2075 1.415 . S
C2078 H2068 0.930 . S
C2078 C2076 1.419 . S
C2078 C2079 1.362 . S
C2079 H2069 0.930 . S
C2079 C2072 1.409 . S
C2079 C2078 1.362 . S
H2080 C2086 0.930 . S
H2081 C2089 0.930 . S
H2082 C2090 0.930 . S
H2083 C2091 0.930 . S
H2084 C2094 0.930 . S
H2085 C2095 0.930 . S
C2086 H2080 0.930 . S
C2086 C2087 1.355 . S
C2086 C2088 1.415 . S
C2087 C2086 1.355 . S
C2087 C2089 1.419 . S
C2088 C2086 1.415 . S
C2088 C2093 1.425 . S
C2088 C2095 1.409 . S
C2089 H2081 0.930 . S
C2089 C2087 1.419 . S
C2089 C2090 1.362 . S
C2090 H2082 0.930 . S
C2090 C2089 1.362 . S
C2090 C2093 1.409 . S
C2091 H2083 0.930 . S
C2091 C2092 1.355 . S
C2091 C2093 1.415 . S
C2092 C2091 1.355 . S
C2092 C2094 1.419 . S
C2093 C2088 1.425 . S
C2093 C2090 1.409 . S
C2093 C2091 1.415 . S
C2094 H2084 0.930 . S
C2094 C2092 1.419 . S
C2094 C2095 1.362 . S
C2095 H2085 0.930 . S
C2095 C2088 1.409 . S
C2095 C2094 1.362 . S
H2096 C2102 0.930 . S
H2097 C2105 0.930 . S
H2098 C2106 0.930 . S
H2099 C2107 0.930 . S
H2100 C2110 0.930 . S
H2101 C2111 0.930 . S
C2102 H2096 0.930 . S
C2102 C2103 1.355 . S
C2102 C2104 1.415 . S
C2103 C2102 1.355 . S
C2103 C2105 1.419 . S
C2104 C2102 1.415 . S
C2104 C2109 1.425 . S
C2104 C2111 1.409 . S
C2105 H2097 0.930 . S
C2105 C2103 1.419 . S
C2105 C2106 1.362 . S
C2106 H2098 0.930 . S
C2106 C2105 1.362 . S
C2106 C2109 1.409 . S
C2107 H2099 0.930 . S
C2107 C2108 1.355 . S
C2107 C2109 1.415 . S
C2108 C2107 1.355 . S
C2108 C2110 1.419 . S
C2109 C2104 1.425 . S
C2109 C2106 1.409 . S
C2109 C2107 1.415 . S
C2110 H2100 0.930 . S
C2110 C2108 1.419 . S
C2110 C2111 1.362 . S
C2111 H2101 0.930 . S
C2111 C2104 1.409 . S
C2111 C2110 1.362 . S
H2112 C2118 0.930 . S
H2113 C2121 0.930 . S
H2114 C2122 0.930 . S
H2115 C2123 0.930 . S
H2116 C2126 0.930 . S
H2117 C2127 0.930 . S
C2118 H2112 0.930 . S
C2118 C2119 1.355 . S
C2118 C2120 1.415 . S
C2119 C2118 1.355 . S
C2119 C2121 1.419 . S
C2120 C2118 1.415 . S
C2120 C2125 1.425 . S
C2120 C2127 1.409 . S
C2121 H2113 0.930 . S
C2121 C2119 1.419 . S
C2121 C2122 1.362 . S
C2122 H2114 0.930 . S
C2122 C2121 1.362 . S
C2122 C2125 1.409 . S
C2123 H2115 0.930 . S
C2123 C2124 1.355 . S
C2123 C2125 1.415 . S
C2124 C2123 1.355 . S
C2124 C2126 1.419 . S
C2125 C2120 1.425 . S
C2125 C2122 1.409 . S
C2125 C2123 1.415 . S
C2126 H2116 0.930 . S
C2126 C2124 1.419 . S
C2126 C2127 1.362 . S
C2127 H2117 0.930 . S
C2127 C2120 1.409 . S
C2127 C2126 1.362 . S
H2128 C2134 0.930 . S
H2129 C2137 0.930 . S
H2130 C2138 0.930 . S
H2131 C2139 0.930 . S
H2132 C2142 0.930 . S
H2133 C2143 0.930 . S
C2134 H2128 0.930 . S
C2134 C2135 1.355 . S
C2134 C2136 1.415 . S
C2135 C2134 1.355 . S
C2135 C2137 1.419 . S
C2136 C2134 1.415 . S
C2136 C2141 1.425 . S
C2136 C2143 1.409 . S
C2137 H2129 0.930 . S
C2137 C2135 1.419 . S
C2137 C2138 1.362 . S
C2138 H2130 0.930 . S
C2138 C2137 1.362 . S
C2138 C2141 1.409 . S
C2139 H2131 0.930 . S
C2139 C2140 1.355 . S
C2139 C2141 1.415 . S
C2140 C2139 1.355 . S
C2140 C2142 1.419 . S
C2141 C2136 1.425 . S
C2141 C2138 1.409 . S
C2141 C2139 1.415 . S
C2142 H2132 0.930 . S
C2142 C2140 1.419 . S
C2142 C2143 1.362 . S
C2143 H2133 0.930 . S
C2143 C2136 1.409 . S
C2143 C2142 1.362 . S
H2144 C2150 0.930 . S
H2145 C2153 0.930 . S
H2146 C2154 0.930 . S
H2147 C2155 0.930 . S
H2148 C2158 0.930 . S
H2149 C2159 0.930 . S
C2150 H2144 0.930 . S
C2150 C2151 1.355 . S
C2150 C2152 1.415 . S
C2151 C2150 1.355 . S
C2151 C2153 1.419 . S
C2152 C2150 1.415 . S
C2152 C2157 1.425 . S
C2152 C2159 1.409 . S
C2153 H2145 0.930 . S
C2153 C2151 1.419 . S
C2153 C2154 1.362 . S
C2154 H2146 0.930 . S
C2154 C2153 1.362 . S
C2154 C2157 1.409 . S
C2155 H2147 0.930 . S
C2155 C2156 1.355 . S
C2155 C2157 1.415 . S
C2156 C2155 1.355 . S
C2156 C2158 1.419 . S
C2157 C2152 1.425 . S
C2157 C2154 1.409 . S
C2157 C2155 1.415 . S
C2158 H2148 0.930 . S
C2158 C2156 1.419 . S
C2158 C2159 1.362 . S
C2159 H2149 0.930 . S
C2159 C2152 1.409 . S
C2159 C2158 1.362 . S
H2160 C2166 0.930 . S
H2161 C2169 0.930 . S
H2162 C2170 0.930 . S
H2163 C2171 0.930 . S
H2164 C2174 0.930 . S
H2165 C2175 0.930 . S
C2166 H2160 0.930 . S
C2166 C2167 1.355 . S
C2166 C2168 1.415 . S
C2167 C2166 1.355 . S
C2167 C2169 1.419 . S
C2168 C2166 1.415 . S
C2168 C2173 1.425 . S
C2168 C2175 1.409 . S
C2169 H2161 0.930 . S
C2169 C2167 1.419 . S
C2169 C2170 1.362 . S
C2170 H2162 0.930 . S
C2170 C2169 1.362 . S
C2170 C2173 1.409 . S
C2171 H2163 0.930 . S
C2171 C2172 1.355 . S
C2171 C2173 1.415 . S
C2172 C2171 1.355 . S
C2172 C2174 1.419 . S
C2173 C2168 1.425 . S
C2173 C2170 1.409 . S
C2173 C2171 1.415 . S
C2174 H2164 0.930 . S
C2174 C2172 1.419 . S
C2174 C2175 1.362 . S
C2175 H2165 0.930 . S
C2175 C2168 1.409 . S
C2175 C2174 1.362 . S
H2176 C2182 0.930 . S
H2177 C2185 0.930 . S
H2178 C2186 0.930 . S
H2179 C2187 0.930 . S
H2180 C2190 0.930 . S
H2181 C2191 0.930 . S
C2182 H2176 0.930 . S
C2182 C2183 1.355 . S
C2182 C2184 1.415 . S
C2183 C2182 1.355 . S
C2183 C2185 1.419 . S
C2184 C2182 1.415 . S
C2184 C2189 1.425 . S
C2184 C2191 1.409 . S
C2185 H2177 0.930 . S
C2185 C2183 1.419 . S
C2185 C2186 1.362 . S
C2186 H2178 0.930 . S
C2186 C2185 1.362 . S
C2186 C2189 1.409 . S
C2187 H2179 0.930 . S
C2187 C2188 1.355 . S
C2187 C2189 1.415 . S
C2188 C2187 1.355 . S
C2188 C2190 1.419 . S
C2189 C2184 1.425 . S
C2189 C2186 1.409 . S
C2189 C2187 1.415 . S
C2190 H2180 0.930 . S
C2190 C2188 1.419 . S
C2190 C2191 1.362 . S
C2191 H2181 0.930 . S
C2191 C2184 1.409 . S
C2191 C2190 1.362 . S
H2192 C2198 0.930 . S
H2193 C2201 0.930 . S
H2194 C2202 0.930 . S
H2195 C2203 0.930 . S
H2196 C2206 0.930 . S
H2197 C2207 0.930 . S
C2198 H2192 0.930 . S
C2198 C2199 1.355 . S
C2198 C2200 1.415 . S
C2199 C2198 1.355 . S
C2199 C2201 1.419 . S
C2200 C2198 1.415 . S
C2200 C2205 1.425 . S
C2200 C2207 1.409 . S
C2201 H2193 0.930 . S
C2201 C2199 1.419 . S
C2201 C2202 1.362 . S
C2202 H2194 0.930 . S
C2202 C2201 1.362 . S
C2202 C2205 1.409 . S
C2203 H2195 0.930 . S
C2203 C2204 1.355 . S
C2203 C2205 1.415 . S
C2204 C2203 1.355 . S
C2204 C2206 1.419 . S
C2205 C2200 1.425 . S
C2205 C2202 1.409 . S
C2205 C2203 1.415 . S
C2206 H2196 0.930 . S
C2206 C2204 1.419 . S
C2206 C2207 1.362 . S
C2207 H2197 0.930 . S
C2207 C2200 1.409 . S
C2207 C2206 1.362 . S
C679 C91 1.220 . S
C684 C7 1.206 . S
C695 C21 1.207 . S
C700 C105 1.193 . S
C711 C35 1.192 . S
C716 C63 1.208 . S
C727 C77 1.207 1_545 S
C732 C49 1.219 1_565 S
C743 C483 1.196 . S
C748 C119 1.226 . S
C759 C497 1.196 1_455 S
C764 C133 1.226 1_655 S
C775 C147 1.184 . S
C780 C455 1.225 . S
C791 C161 1.229 . S
C796 C469 1.189 . S
C807 C539 1.204 . S
C812 C175 1.195 . S
C823 C553 1.196 . S
C828 C189 1.226 . S
C839 C511 1.219 . S
C844 C203 1.207 . S
C855 C525 1.195 1_455 S
C860 C217 1.227 1_655 S
C871 C231 1.210 . S
C876 C581 1.217 . S
C887 C245 1.221 . S
C892 C567 1.184 . S
C903 C259 1.205 1_556 S
C908 C329 1.221 1_554 S
C919 C637 1.198 . S
C924 C273 1.225 . S
C935 C651 1.201 . S
C940 C287 1.198 . S
C951 C609 1.205 . S
C956 C301 1.195 . S
C967 C623 1.198 . S
C972 C315 1.225 . S
C983 C427 1.216 . S
C988 C343 1.211 . S
C999 C441 1.219 . S
C1004 C357 1.207 . S
C1015 C371 1.228 . S
C1020 C399 1.191 . S
C1031 C385 1.228 . S
C1036 C413 1.186 . S
C1047 C665 1.213 . S
C1052 C595 1.188 . S
C1063 C233 1.141 . S
C1068 C3 1.239 . S
C1079 C17 1.255 . S
C1084 C667 1.124 . S
C1095 C31 1.224 . S
C1100 C303 1.205 . S
C1111 C653 1.162 . S
C1116 C45 1.256 . S
C1127 C59 1.254 . S
C1132 C583 1.123 . S
C1143 C597 1.194 . S
C1148 C73 1.225 . S
C1159 C87 1.226 . S
C1164 C611 1.228 . S
C1175 C289 1.168 . S
C1180 C101 1.231 . S
C1191 C115 1.234 . S
C1196 C9 1.156 . S
C1207 C23 1.151 . S
C1212 C129 1.235 . S
C1223 C143 1.248 . S
C1228 C37 1.198 . S
C1239 C157 1.242 . S
C1244 C51 1.217 . S
C1255 C171 1.226 . S
C1260 C65 1.192 . S
C1271 C79 1.126 . S
C1276 C185 1.256 . S
C1287 C199 1.255 . S
C1292 C93 1.124 . S
C1303 C213 1.227 . S
C1308 C107 1.231 . S
C1319 C227 1.253 . S
C1324 C121 1.180 . S
C1335 C241 1.250 . S
C1340 C513 1.123 . S
C1351 C527 1.231 . S
C1356 C255 1.232 . S
C1367 C541 1.170 . S
C1372 C269 1.255 . S
C1383 C283 1.257 . S
C1388 C219 1.129 . S
C1399 C297 1.244 . S
C1404 C149 1.210 . S
C1415 C499 1.168 . S
C1420 C311 1.230 . S
C1431 C471 1.122 . S
C1436 C325 1.251 . S
C1447 C339 1.239 . S
C1452 C569 1.222 . S
C1463 C353 1.237 . S
C1468 C331 1.145 . S
C1479 C367 1.231 . S
C1484 C639 1.167 . S
C1495 C381 1.256 . S
C1500 C317 1.165 . S
C1511 C395 1.227 . S
C1516 C247 1.230 . S
C1527 C261 1.214 . S
C1532 C409 1.224 . S
C1543 C275 1.129 . S
C1548 C423 1.245 . S
C1559 C625 1.178 . S
C1564 C437 1.253 . S
C1575 C345 1.214 . S
C1580 C451 1.224 . S
C1591 C359 1.191 . S
C1596 C465 1.250 . S
C1607 C479 1.250 . S
C1612 C373 1.194 . S
C1623 C387 1.195 . S
C1628 C493 1.249 . S
C1639 C507 1.255 . S
C1644 C401 1.172 . S
C1655 C415 1.230 . S
C1660 C521 1.227 . S
C1671 C535 1.251 . S
C1676 C429 1.188 . S
C1687 C443 1.174 . S
C1692 C549 1.254 . S
C1703 C563 1.249 . S
C1708 C457 1.197 . S
C1719 C577 1.232 . S
C1724 C177 1.231 . S
C1735 C191 1.178 . S
C1740 C591 1.254 . S
C1751 C605 1.227 . S
C1756 C205 1.183 . S
C1767 C619 1.235 . S
C1772 C555 1.152 . S
C1783 C485 1.200 . S
C1788 C633 1.248 . S
C1799 C647 1.226 . S
C1804 C163 1.229 . S
C1815 C135 1.137 . S
C1820 C661 1.258 . S
C1831 C134 0.793 . S
C1836 C8 0.814 . S
C1847 C22 0.808 . S
C1852 C148 0.826 . S
C1863 C162 0.816 . S
C1868 C36 0.825 . S
C1879 C120 0.802 . S
C1884 C50 0.824 . S
C1895 C64 0.792 . S
C1900 C218 0.812 . S
C1911 C78 0.805 . S
C1916 C176 0.825 . S
C1927 C190 0.825 . S
C1932 C92 0.803 . S
C1943 C204 0.816 . S
C1948 C106 0.825 . S
C1959 C232 0.826 . S
C1964 C260 0.810 . S
C1975 C246 0.808 . S
C1980 C652 0.826 . S
C1991 C274 0.823 . S
C1996 C666 0.819 . S
C2007 C638 0.809 . S
C2012 C288 0.792 . S
C2023 C624 0.823 . S
C2028 C302 0.800 . S
C2039 C582 0.808 . S
C2044 C316 0.826 . S
C2055 C330 0.824 . S
C2060 C610 0.818 . S
C2071 C470 0.815 . S
C2076 C344 0.825 . S
C2087 C484 0.794 . S
C2092 C358 0.816 . S
C2103 C372 0.807 . S
C2108 C498 0.792 . S
C2119 C456 0.795 . S
C2124 C386 0.799 . S
C2135 C554 0.826 . S
C2140 C400 0.806 . S
C2151 C512 0.794 . S
C2156 C414 0.816 . S
C2167 C428 0.792 . S
C2172 C526 0.808 . S
C2183 C540 0.812 . S
C2188 C442 0.826 . S
C2199 C596 0.826 . S
C2204 C568 0.807 . S
