# Generated by pormake.
# Topology sow, (4)-cn, num edge types: 1
# Building blocks:
#     Node 0, Type 0, BuildingBlock: ICAMEG_clean_sbu_1, # of connection points: 4
#     Node 1, Type 0, BuildingBlock: ICAMEG_clean_sbu_1, # of connection points: 4
#     Node 2, Type 0, BuildingBlock: ICAMEG_clean_sbu_1, # of connection points: 4
#     Node 3, Type 0, BuildingBlock: ICAMEG_clean_sbu_1, # of connection points: 4
#     Node 4, Type 0, BuildingBlock: ICAMEG_clean_sbu_1, # of connection points: 4
#     Node 5, Type 0, BuildingBlock: ICAMEG_clean_sbu_1, # of connection points: 4
#     Node 6, Type 0, BuildingBlock: ICAMEG_clean_sbu_1, # of connection points: 4
#     Node 7, Type 0, BuildingBlock: ICAMEG_clean_sbu_1, # of connection points: 4
#     Edge 8, Type (0, 0), BuildingBlock: XIVTED_clean_linker_0, # of connection points: 2
#     Edge 9, Type (0, 0), BuildingBlock: XIVTED_clean_linker_0, # of connection points: 2
#     Edge 10, Type (0, 0), BuildingBlock: XIVTED_clean_linker_0, # of connection points: 2
#     Edge 11, Type (0, 0), BuildingBlock: XIVTED_clean_linker_0, # of connection points: 2
#     Edge 12, Type (0, 0), BuildingBlock: XIVTED_clean_linker_0, # of connection points: 2
#     Edge 13, Type (0, 0), BuildingBlock: XIVTED_clean_linker_0, # of connection points: 2
#     Edge 14, Type (0, 0), BuildingBlock: XIVTED_clean_linker_0, # of connection points: 2
#     Edge 15, Type (0, 0), BuildingBlock: XIVTED_clean_linker_0, # of connection points: 2
#     Edge 16, Type (0, 0), BuildingBlock: XIVTED_clean_linker_0, # of connection points: 2
#     Edge 17, Type (0, 0), BuildingBlock: XIVTED_clean_linker_0, # of connection points: 2
#     Edge 18, Type (0, 0), BuildingBlock: XIVTED_clean_linker_0, # of connection points: 2
#     Edge 19, Type (0, 0), BuildingBlock: XIVTED_clean_linker_0, # of connection points: 2
#     Edge 20, Type (0, 0), BuildingBlock: XIVTED_clean_linker_0, # of connection points: 2
#     Edge 21, Type (0, 0), BuildingBlock: XIVTED_clean_linker_0, # of connection points: 2
#     Edge 22, Type (0, 0), BuildingBlock: XIVTED_clean_linker_0, # of connection points: 2
#     Edge 23, Type (0, 0), BuildingBlock: XIVTED_clean_linker_0, # of connection points: 2
# Relax obj value: 0.052
# Max RMSD: 0.148
# Mean RMSD: 0.148
data_MOF--net-sow--node1-ICAMEG_clean_sbu_1--edge1-XIVTED_clean_linker_0
_symmetry_space_group_name_H-M    P1
_symmetry_Int_Tables_number       1
_symmetry_cell_setting            triclinic
loop_
_symmetry_equiv_pos_as_xyz
'x, y, z'
_cell_length_a     42.847484
_cell_length_b     18.844248
_cell_length_c     26.731247
_cell_angle_alpha  89.998899
_cell_angle_beta   89.988121
_cell_angle_gamma 89.992183
loop_
_atom_site_label
_atom_site_type_symbol
_atom_site_fract_x
_atom_site_fract_y
_atom_site_fract_z
_atom_type_partial_charge
Co0 Co 0.12382 0.28322 0.04 0.0
Co1 Co 0.14272 0.15458 0.12643 0.0
O2 O 0.15389 0.22637 0.07729 0.0
C3 C 0.16161 0.21382 0.9623 0.0
O4 O 0.15642 0.15407 0.98613 0.0
C5 C 0.18518 0.24881 0.18274 0.0
O6 O 0.16834 0.30286 0.16747 0.0
O7 O 0.11435 0.22204 0.1613 0.0
O8 O 0.09678 0.29444 0.10049 0.0
H9 H 0.06945 0.01373 0.23462 0.0
H10 H 0.19092 0.32192 0.03796 0.0
O11 O 0.15011 0.27173 0.97866 0.0
H12 H 0.13705 0.53004 0.10903 0.0
H13 H 0.09338 0.47064 0.91502 0.0
H14 H 0.05475 0.2891 0.03257 0.0
H15 H 0.10722 0.42417 0.08327 0.0
H16 H 0.13025 0.39824 0.96425 0.0
O17 O 0.1782 0.18596 0.16938 0.0
H18 H 0.08347 0.10316 0.17108 0.0
H19 H 0.17957 0.05406 0.1891 0.0
H20 H 0.01704 0.3607 0.98447 0.0
H21 H 0.22161 0.42686 0.06286 0.0
H22 H 0.03631 0.45231 0.92521 0.0
H23 H 0.19468 0.53185 0.09874 0.0
O24 O 0.09935 0.19764 0.02116 0.0
H25 H 0.2426 0.07992 0.04287 0.0
H26 H 0.13613 0.00586 0.08967 0.0
H27 H 0.17 0.92293 0.04332 0.0
H28 H 0.22358 0.95994 0.01942 0.0
H29 H 0.20779 0.16156 0.0887 0.0
H30 H 0.1666 0.96443 0.25308 0.0
H31 H 0.11118 0.94365 0.2761 0.0
O32 O 0.10695 0.12171 0.08478 0.0
C33 C 0.09603 0.27032 0.14512 0.0
C34 C 0.09367 0.02213 0.22479 0.0
C35 C 0.1482 0.99452 0.23519 0.0
N36 N 0.13227 0.08337 0.17608 0.0
C37 C 0.10175 0.07255 0.18874 0.0
C38 C 0.1554 0.04541 0.199 0.0
C39 C 0.1171 0.98287 0.24808 0.0
C40 C 0.17899 0.36764 0.05315 0.0
N41 N 0.1473 0.3671 0.05886 0.0
C42 C 0.19651 0.4268 0.06736 0.0
C43 C 0.18138 0.48565 0.08756 0.0
C44 C 0.14906 0.48465 0.09337 0.0
C45 C 0.13229 0.4245 0.07882 0.0
C46 C 0.08469 0.43111 0.94089 0.0
C47 C 0.0633 0.32933 0.00723 0.0
C48 C 0.10545 0.38993 0.96882 0.0
N49 N 0.09463 0.34025 0.0018 0.0
C50 C 0.04184 0.36949 0.97992 0.0
C51 C 0.05267 0.4208 0.94662 0.0
C52 C 0.09313 0.14048 0.04468 0.0
C53 C 0.21928 0.06321 0.05308 0.0
C54 C 0.15942 0.02238 0.0794 0.0
C55 C 0.17852 0.97513 0.05325 0.0
C56 C 0.20861 0.99589 0.03994 0.0
N57 N 0.17001 0.08842 0.09202 0.0
C58 C 0.19953 0.10906 0.07924 0.0
Co59 Co 0.37652 0.21849 0.53949 0.0
Co60 Co 0.35837 0.34677 0.62666 0.0
O61 O 0.34675 0.27558 0.57731 0.0
C62 C 0.33874 0.28886 0.46217 0.0
O63 O 0.34396 0.34848 0.48615 0.0
C64 C 0.31578 0.25298 0.68326 0.0
O65 O 0.33231 0.19861 0.6677 0.0
O66 O 0.3867 0.27857 0.66095 0.0
O67 O 0.40368 0.20632 0.59963 0.0
H68 H 0.4326 0.48568 0.73436 0.0
H69 H 0.30928 0.181 0.53784 0.0
O70 O 0.35014 0.2308 0.47841 0.0
H71 H 0.36262 0.97137 0.6077 0.0
H72 H 0.40598 0.03122 0.41377 0.0
H73 H 0.44554 0.21157 0.53139 0.0
H74 H 0.39275 0.07691 0.58214 0.0
H75 H 0.36949 0.104 0.46347 0.0
O76 O 0.32297 0.31572 0.66994 0.0
H77 H 0.41799 0.39693 0.6707 0.0
H78 H 0.32213 0.44736 0.69023 0.0
H79 H 0.48287 0.13955 0.48283 0.0
H80 H 0.27829 0.07639 0.56253 0.0
H81 H 0.46313 0.04853 0.42352 0.0
H82 H 0.30496 0.97065 0.5978 0.0
O83 O 0.40123 0.30381 0.52074 0.0
H84 H 0.25817 0.42397 0.54531 0.0
H85 H 0.36522 0.49572 0.59043 0.0
H86 H 0.33122 0.57987 0.54543 0.0
H87 H 0.27731 0.54411 0.52251 0.0
H88 H 0.2931 0.34111 0.58976 0.0
H89 H 0.33569 0.5363 0.75436 0.0
H90 H 0.39128 0.55607 0.77668 0.0
O91 O 0.39403 0.37938 0.5847 0.0
C92 C 0.40477 0.23008 0.64432 0.0
C93 C 0.4083 0.47771 0.72484 0.0
C94 C 0.3539 0.50606 0.73611 0.0
N95 N 0.36927 0.41741 0.67646 0.0
C96 C 0.39989 0.42768 0.68873 0.0
C97 C 0.34637 0.45555 0.69983 0.0
C98 C 0.3851 0.51714 0.74861 0.0
C99 C 0.32109 0.13496 0.55277 0.0
N100 N 0.3528 0.13489 0.55824 0.0
C101 C 0.3034 0.07598 0.56686 0.0
C102 C 0.31839 0.0167 0.58672 0.0
C103 C 0.35073 0.0171 0.59231 0.0
C104 C 0.36766 0.07707 0.57788 0.0
C105 C 0.41487 0.07048 0.43965 0.0
C106 C 0.43679 0.1716 0.50603 0.0
C107 C 0.39432 0.11188 0.46785 0.0
N108 N 0.4054 0.16122 0.50085 0.0
C109 C 0.45803 0.13121 0.47846 0.0
C110 C 0.44693 0.08023 0.44514 0.0
C111 C 0.40768 0.3607 0.54443 0.0
C112 C 0.28162 0.44017 0.55513 0.0
C113 C 0.34181 0.47968 0.58049 0.0
C114 C 0.32264 0.52763 0.55512 0.0
C115 C 0.29237 0.50757 0.54234 0.0
N116 N 0.33112 0.41365 0.59288 0.0
C117 C 0.30145 0.39361 0.58051 0.0
Co118 Co 0.62272 0.2202 0.95743 0.0
Co119 Co 0.64054 0.34576 0.86829 0.0
O120 O 0.65243 0.2752 0.91794 0.0
C121 C 0.66274 0.28862 0.03288 0.0
O122 O 0.65793 0.34854 0.00905 0.0
C123 C 0.68212 0.2503 0.81097 0.0
O124 O 0.66559 0.19643 0.82737 0.0
O125 O 0.6116 0.27746 0.83547 0.0
O126 O 0.59433 0.20896 0.89865 0.0
H127 H 0.56547 0.48412 0.7617 0.0
H128 H 0.68951 0.17874 0.95614 0.0
O129 O 0.65031 0.23136 0.01722 0.0
H130 H 0.63256 0.97166 0.88997 0.0
H131 H 0.59344 0.03612 0.08558 0.0
H132 H 0.55382 0.21744 0.96873 0.0
H133 H 0.60412 0.07919 0.91638 0.0
H134 H 0.62982 0.10605 0.03372 0.0
O135 O 0.67532 0.31332 0.8242 0.0
H136 H 0.58057 0.39622 0.82564 0.0
H137 H 0.67633 0.44463 0.80273 0.0
H138 H 0.51658 0.1483 0.0195 0.0
H139 H 0.71885 0.07207 0.93059 0.0
H140 H 0.53636 0.05682 0.07843 0.0
H141 H 0.69035 0.96762 0.89714 0.0
O142 O 0.59935 0.30721 0.97684 0.0
H143 H 0.74172 0.42225 0.94672 0.0
H144 H 0.63461 0.49552 0.90323 0.0
H145 H 0.66923 0.57954 0.94706 0.0
H146 H 0.72313 0.54293 0.96931 0.0
H147 H 0.70617 0.33953 0.90343 0.0
H148 H 0.66228 0.53269 0.73827 0.0
H149 H 0.60649 0.55306 0.71751 0.0
O150 O 0.60549 0.37989 0.91099 0.0
C151 C 0.59309 0.23095 0.85352 0.0
C152 C 0.58986 0.47588 0.77052 0.0
C153 C 0.6442 0.50308 0.75733 0.0
N154 N 0.62928 0.41572 0.81819 0.0
C155 C 0.59855 0.42632 0.80679 0.0
C156 C 0.65201 0.45306 0.7938 0.0
C157 C 0.61289 0.5145 0.74571 0.0
C158 C 0.67692 0.13326 0.94202 0.0
N159 N 0.64513 0.13502 0.93805 0.0
C160 C 0.69367 0.07312 0.92743 0.0
C161 C 0.67766 0.01456 0.9086 0.0
C162 C 0.64524 0.01682 0.90454 0.0
C163 C 0.62927 0.0779 0.91944 0.0
C164 C 0.58453 0.07561 0.05988 0.0
C165 C 0.56257 0.17726 0.99392 0.0
C166 C 0.60501 0.11541 0.03047 0.0
N167 N 0.59391 0.16505 0.9977 0.0
C168 C 0.54139 0.13849 0.02274 0.0
C169 C 0.5525 0.08725 0.05585 0.0
C170 C 0.59265 0.3633 0.95238 0.0
C171 C 0.71826 0.43879 0.93723 0.0
C172 C 0.65803 0.47916 0.9128 0.0
C173 C 0.67756 0.52703 0.93751 0.0
C174 C 0.70783 0.50651 0.94988 0.0
N175 N 0.66838 0.41273 0.90067 0.0
C176 C 0.69808 0.39232 0.91251 0.0
Co177 Co 0.87759 0.28202 0.45703 0.0
Co178 Co 0.85855 0.15564 0.36905 0.0
O179 O 0.8474 0.2273 0.41833 0.0
C180 C 0.83781 0.21463 0.53321 0.0
O181 O 0.84244 0.15461 0.5094 0.0
C182 C 0.81759 0.25217 0.31152 0.0
O183 O 0.83459 0.30555 0.32749 0.0
O184 O 0.88789 0.22229 0.33553 0.0
O185 O 0.90559 0.29229 0.3976 0.0
H186 H 0.93208 0.01282 0.26258 0.0
H187 H 0.81094 0.32465 0.45679 0.0
O188 O 0.85034 0.2717 0.51737 0.0
H189 H 0.86814 0.53018 0.38876 0.0
H190 H 0.90839 0.46657 0.58388 0.0
H191 H 0.94659 0.28388 0.46686 0.0
H192 H 0.89639 0.42237 0.4151 0.0
H193 H 0.87141 0.39671 0.5331 0.0
O194 O 0.82391 0.18904 0.32508 0.0
H195 H 0.91794 0.10211 0.32615 0.0
H196 H 0.82171 0.05754 0.30445 0.0
H197 H 0.98442 0.35294 0.51653 0.0
H198 H 0.78179 0.4316 0.4313 0.0
H199 H 0.96536 0.44512 0.57553 0.0
H200 H 0.81041 0.53529 0.39693 0.0
O201 O 0.90083 0.19479 0.47634 0.0
H202 H 0.75686 0.08421 0.44824 0.0
H203 H 0.86336 0.00611 0.40497 0.0
H204 H 0.82806 0.92392 0.44917 0.0
H205 H 0.77443 0.96291 0.47122 0.0
H206 H 0.79308 0.16509 0.40462 0.0
H207 H 0.8348 0.96814 0.24037 0.0
H208 H 0.89034 0.94514 0.2192 0.0
O209 O 0.89346 0.12061 0.41165 0.0
C210 C 0.90655 0.26915 0.35273 0.0
C211 C 0.9078 0.0222 0.2716 0.0
C212 C 0.8532 0.99718 0.25909 0.0
N213 N 0.86905 0.0846 0.31929 0.0
C214 C 0.89965 0.07255 0.30766 0.0
C215 C 0.84593 0.04796 0.29534 0.0
C216 C 0.88436 0.98429 0.24724 0.0
C217 C 0.82359 0.36979 0.44227 0.0
N218 N 0.85534 0.36744 0.43773 0.0
C219 C 0.80695 0.4301 0.42771 0.0
C220 C 0.82302 0.48822 0.40836 0.0
C221 C 0.8554 0.48537 0.40375 0.0
C222 C 0.87127 0.42412 0.41861 0.0
C223 C 0.91699 0.42677 0.55815 0.0
C224 C 0.93815 0.32435 0.49209 0.0
C225 C 0.89616 0.387 0.52934 0.0
N226 N 0.90687 0.33698 0.49653 0.0
C227 C 0.95966 0.36307 0.52029 0.0
C228 C 0.94895 0.41471 0.55345 0.0
C229 C 0.90685 0.13779 0.45247 0.0
C230 C 0.78018 0.06663 0.43882 0.0
C231 C 0.84007 0.02354 0.41451 0.0
C232 C 0.82016 0.9767 0.43943 0.0
C233 C 0.79005 0.99857 0.4517 0.0
N234 N 0.83026 0.09027 0.40208 0.0
C235 C 0.80074 0.11205 0.41392 0.0
Co236 Co 0.86024 0.83178 0.85832 0.0
Co237 Co 0.8744 0.71032 0.95188 0.0
O238 O 0.84641 0.76649 0.91011 0.0
C239 C 0.81684 0.73792 0.80292 0.0
O240 O 0.83244 0.68279 0.8196 0.0
C241 C 0.83653 0.79119 0.0237 0.0
O242 O 0.84331 0.84779 0.99722 0.0
O243 O 0.90029 0.79487 0.96808 0.0
O244 O 0.8958 0.86466 0.90035 0.0
H245 H 0.97805 0.62724 0.01766 0.0
H246 H 0.79439 0.83599 0.89252 0.0
O247 O 0.82494 0.80056 0.81507 0.0
H248 H 0.83619 0.07502 0.92633 0.0
H249 H 0.84373 0.0109 0.72105 0.0
H250 H 0.92155 0.87152 0.81499 0.0
H251 H 0.8694 0.98318 0.88773 0.0
H252 H 0.82722 0.92978 0.78848 0.0
O253 O 0.8471 0.73066 0.01084 0.0
H254 H 0.94305 0.69788 0.96394 0.0
H255 H 0.86379 0.60384 0.03247 0.0
H256 H 0.93909 0.95233 0.74807 0.0
H257 H 0.76025 0.92654 0.93064 0.0
H258 H 0.90004 0.02272 0.70057 0.0
H259 H 0.78117 0.04697 0.94792 0.0
O260 O 0.88764 0.75772 0.82857 0.0
H261 H 0.77415 0.5761 0.92842 0.0
H262 H 0.88888 0.5636 0.91698 0.0
H263 H 0.85736 0.45893 0.8941 0.0
H264 H 0.79954 0.46477 0.89988 0.0
H265 H 0.80653 0.67944 0.95094 0.0
H266 H 0.89791 0.53263 0.08732 0.0
H267 H 0.9555 0.54383 0.07989 0.0
O268 O 0.90246 0.69019 0.89386 0.0
C269 C 0.90827 0.8487 0.94215 0.0
C270 C 0.95301 0.62157 0.02105 0.0
C271 C 0.90803 0.56855 0.0602 0.0
N272 N 0.90144 0.65415 0.99452 0.0
C273 C 0.93308 0.66118 0.99056 0.0
C274 C 0.88882 0.60904 0.02908 0.0
C275 C 0.94033 0.57486 0.05601 0.0
C276 C 0.80358 0.88848 0.89951 0.0
N277 N 0.83381 0.90436 0.88768 0.0
C278 C 0.78417 0.93943 0.92129 0.0
C279 C 0.79593 0.00698 0.93103 0.0
C280 C 0.82681 0.02273 0.91896 0.0
C281 C 0.84554 0.97044 0.89724 0.0
C282 C 0.86097 0.98063 0.74155 0.0
C283 C 0.90443 0.90231 0.79471 0.0
C284 C 0.85176 0.93454 0.77972 0.0
N285 N 0.87343 0.89642 0.80594 0.0
C286 C 0.9145 0.94783 0.75676 0.0
C287 C 0.89257 0.98725 0.73009 0.0
C288 C 0.90456 0.70938 0.84818 0.0
C289 C 0.79931 0.57274 0.92605 0.0
C290 C 0.86374 0.56653 0.91956 0.0
C291 C 0.84601 0.50707 0.90663 0.0
C292 C 0.81358 0.51036 0.90991 0.0
N293 N 0.84956 0.6274 0.93559 0.0
C294 C 0.81777 0.63104 0.93886 0.0
Co295 Co 0.63954 0.67257 0.35705 0.0
Co296 Co 0.62439 0.79449 0.45006 0.0
O297 O 0.65286 0.73918 0.40846 0.0
C298 C 0.68165 0.76942 0.30218 0.0
O299 O 0.66635 0.82296 0.32187 0.0
C300 C 0.66329 0.71714 0.52267 0.0
O301 O 0.65754 0.65947 0.4967 0.0
O302 O 0.59943 0.70877 0.4669 0.0
O303 O 0.60468 0.63783 0.39988 0.0
H304 H 0.52 0.87266 0.51589 0.0
H305 H 0.70564 0.67296 0.39004 0.0
O306 O 0.67404 0.7059 0.31281 0.0
H307 H 0.66703 0.43177 0.42593 0.0
H308 H 0.65741 0.49309 0.22044 0.0
H309 H 0.57849 0.6285 0.31495 0.0
H310 H 0.63246 0.52101 0.38739 0.0
H311 H 0.67332 0.57592 0.2872 0.0
O312 O 0.65189 0.77653 0.50905 0.0
H313 H 0.55566 0.80324 0.46247 0.0
H314 H 0.634 0.90279 0.52979 0.0
H315 H 0.56154 0.5459 0.24873 0.0
H316 H 0.74112 0.58507 0.42811 0.0
H317 H 0.60115 0.47751 0.20095 0.0
H318 H 0.7218 0.46357 0.44645 0.0
O319 O 0.61107 0.74448 0.32729 0.0
H320 H 0.72325 0.93377 0.42596 0.0
H321 H 0.60843 0.93994 0.41408 0.0
H322 H 0.6389 0.04593 0.39055 0.0
H323 H 0.69676 0.04327 0.39656 0.0
H324 H 0.69192 0.82898 0.449 0.0
H325 H 0.59921 0.97285 0.58432 0.0
H326 H 0.54176 0.95827 0.57735 0.0
O327 O 0.59604 0.81254 0.39213 0.0
C328 C 0.59208 0.65389 0.44157 0.0
C329 C 0.54498 0.87981 0.51908 0.0
C330 C 0.58944 0.93596 0.55754 0.0
N331 N 0.59683 0.84977 0.49246 0.0
C332 C 0.56528 0.84089 0.48876 0.0
C333 C 0.60902 0.89611 0.5266 0.0
C334 C 0.55721 0.92775 0.55361 0.0
C335 C 0.69716 0.61999 0.3975 0.0
N336 N 0.66706 0.60205 0.38628 0.0
C337 C 0.71731 0.57055 0.41924 0.0
C338 C 0.70646 0.5024 0.42957 0.0
C339 C 0.67571 0.48454 0.4181 0.0
C340 C 0.65622 0.53536 0.39641 0.0
C341 C 0.63993 0.52248 0.24107 0.0
C342 C 0.59585 0.59859 0.29454 0.0
C343 C 0.6488 0.56955 0.27885 0.0
N344 N 0.62684 0.60658 0.30521 0.0
C345 C 0.58612 0.55205 0.25699 0.0
C346 C 0.60836 0.51375 0.23016 0.0
C347 C 0.59387 0.79245 0.34668 0.0
C348 C 0.69807 0.93572 0.42346 0.0
C349 C 0.6336 0.93837 0.41672 0.0
C350 C 0.65072 0.99858 0.40344 0.0
C351 C 0.68318 0.99709 0.40684 0.0
N352 N 0.64838 0.87849 0.43319 0.0
C353 C 0.68019 0.87661 0.43659 0.0
Co354 Co 0.35739 0.66809 0.13917 0.0
Co355 Co 0.37397 0.79039 0.04716 0.0
O356 O 0.34491 0.73403 0.08685 0.0
C357 C 0.3131 0.76249 0.1921 0.0
O358 O 0.32925 0.81723 0.17617 0.0
C359 C 0.33755 0.71144 0.9722 0.0
O360 O 0.34313 0.65408 -0.00142 0.0
O361 O 0.4 0.70562 0.03206 0.0
O362 O 0.3938 0.63501 0.09905 0.0
H363 H 0.47937 0.87285 0.9885 0.0
H364 H 0.29232 0.6651 0.10121 0.0
O365 O 0.32122 0.69965 0.18049 0.0
H366 H 0.33439 0.42601 0.0684 0.0
H367 H 0.33709 0.48818 0.27462 0.0
H368 H 0.41754 0.62673 0.18585 0.0
H369 H 0.36685 0.51694 0.10956 0.0
H370 H 0.32245 0.57017 0.2066 0.0
O371 O 0.34815 0.77132 0.9864 0.0
H372 H 0.44289 0.80205 0.03954 0.0
H373 H 0.36562 0.89809 0.96666 0.0
H374 H 0.43322 0.54503 0.25342 0.0
H375 H 0.25891 0.57543 0.06051 0.0
H376 H 0.39284 0.47507 0.29832 0.0
H377 H 0.28001 0.45502 0.04363 0.0
O378 O 0.38436 0.74133 0.17092 0.0
H379 H 0.27351 0.92558 0.06505 0.0
H380 H 0.3879 0.93656 0.08382 0.0
H381 H 0.35605 0.04135 0.10528 0.0
H382 H 0.2984 0.03628 0.09581 0.0
H383 H 0.30621 0.82209 0.04406 0.0
H384 H 0.40126 0.96947 0.91445 0.0
H385 H 0.45858 0.95735 0.92543 0.0
O386 O 0.40059 0.80953 0.10692 0.0
C387 C 0.40726 0.65134 0.05811 0.0
C388 C 0.45444 0.8789 0.98355 0.0
C389 C 0.4106 0.93306 0.94195 0.0
N390 N 0.40218 0.84672 0.0066 0.0
C391 C 0.43367 0.83919 0.01251 0.0
C392 C 0.39054 0.89246 0.97158 0.0
C393 C 0.44276 0.92623 0.94813 0.0
C394 C 0.30154 0.61259 0.09445 0.0
N395 N 0.33145 0.5962 0.10795 0.0
C396 C 0.28256 0.56214 0.0712 0.0
C397 C 0.29442 0.4946 0.06171 0.0
C398 C 0.32495 0.47831 0.07554 0.0
C399 C 0.34325 0.53009 0.09871 0.0
C400 C 0.3549 0.51826 0.25526 0.0
C401 C 0.39985 0.59612 0.20499 0.0
C402 C 0.34675 0.56485 0.21676 0.0
N403 N 0.36915 0.60275 0.192 0.0
C404 C 0.40886 0.5501 0.24332 0.0
C405 C 0.38619 0.51091 0.26853 0.0
C406 C 0.40175 0.78979 0.15254 0.0
C407 C 0.2986 0.92861 0.06904 0.0
C408 C 0.36283 0.93396 0.07964 0.0
C409 C 0.34492 0.99349 0.09177 0.0
C410 C 0.31258 0.99064 0.08642 0.0
N411 N 0.34893 0.87344 0.06239 0.0
C412 C 0.31725 0.87022 0.0571 0.0
Co413 Co 0.14083 0.82771 0.63891 0.0
Co414 Co 0.12356 0.70529 0.54727 0.0
O415 O 0.15292 0.76122 0.58669 0.0
C416 C 0.18469 0.73241 0.69205 0.0
O417 O 0.16825 0.67794 0.6764 0.0
C418 C 0.15996 0.7837 0.47201 0.0
O419 O 0.15456 0.84113 0.49843 0.0
O420 O 0.09771 0.79042 0.53234 0.0
O421 O 0.10457 0.86164 0.59883 0.0
H422 H 0.01773 0.62424 0.4897 0.0
H423 H 0.20587 0.82865 0.60075 0.0
O424 O 0.17687 0.79536 0.6802 0.0
H425 H 0.16521 0.06896 0.56784 0.0
H426 H 0.16218 0.00762 0.77392 0.0
H427 H 0.08095 0.87091 0.68565 0.0
H428 H 0.13221 0.97905 0.60904 0.0
H429 H 0.17634 0.92493 0.70606 0.0
O430 O 0.14924 0.72396 0.48628 0.0
H431 H 0.05459 0.69462 0.54031 0.0
H432 H 0.13133 0.59743 0.46673 0.0
H433 H 0.06574 0.95334 0.75306 0.0
H434 H 0.2398 0.91725 0.55999 0.0
H435 H 0.10651 0.02238 0.79771 0.0
H436 H 0.21944 0.0383 0.54312 0.0
O437 O 0.1135 0.75534 0.6709 0.0
H438 H 0.22367 0.56832 0.56373 0.0
H439 H 0.10935 0.55945 0.58429 0.0
H440 H 0.14096 0.45412 0.60533 0.0
H441 H 0.19856 0.45813 0.59494 0.0
H442 H 0.19122 0.67248 0.54334 0.0
H443 H 0.09531 0.52645 0.41494 0.0
H444 H 0.03806 0.53936 0.42649 0.0
O445 O 0.09708 0.68663 0.60729 0.0
C446 C 0.09085 0.8452 0.55814 0.0
C447 C 0.04262 0.61784 0.48451 0.0
C448 C 0.08617 0.56303 0.44251 0.0
N449 N 0.09506 0.64935 0.50701 0.0
C450 C 0.0636 0.65731 0.51322 0.0
C451 C 0.10644 0.6034 0.4719 0.0
C452 C 0.05405 0.5703 0.449 0.0
C453 C 0.19694 0.88142 0.59395 0.0
N454 N 0.16714 0.89873 0.60748 0.0
C455 C 0.21622 0.93126 0.57067 0.0
C456 C 0.20478 0.99916 0.56118 0.0
C457 C 0.17434 0.01638 0.575 0.0
C458 C 0.15573 0.96518 0.59818 0.0
C459 C 0.1442 0.97795 0.75467 0.0
C460 C 0.09881 0.90111 0.70468 0.0
C461 C 0.15207 0.93097 0.71627 0.0
N462 N 0.12946 0.89359 0.69163 0.0
C463 C 0.09006 0.94756 0.74292 0.0
C464 C 0.11296 0.98622 0.76799 0.0
C465 C 0.09601 0.70685 0.65281 0.0
C466 C 0.1986 0.56581 0.56818 0.0
C467 C 0.13441 0.56162 0.57977 0.0
C468 C 0.15218 0.50178 0.59165 0.0
C469 C 0.18449 0.50404 0.58579 0.0
N470 N 0.14841 0.62189 0.5623 0.0
C471 C 0.18008 0.62455 0.55655 0.0
H472 H 0.27368 0.35211 0.71402 0.0
H473 H 0.19483 0.10369 0.92106 0.0
H474 H 0.29859 0.13182 0.7338 0.0
H475 H 0.17421 0.32627 0.90119 0.0
H476 H 0.22974 0.10898 0.84856 0.0
H477 H 0.23374 0.33929 0.7779 0.0
C478 C 0.27067 0.3008 0.73167 0.0
C479 C 0.28978 0.2431 0.71891 0.0
C480 C 0.21743 0.15648 0.85998 0.0
C481 C 0.24396 0.22814 0.79262 0.0
C482 C 0.19749 0.15353 0.90132 0.0
C483 C 0.1817 0.21476 0.91739 0.0
C484 C 0.22156 0.22109 0.83462 0.0
C485 C 0.18602 0.27783 0.8904 0.0
C486 C 0.24779 0.29353 0.76824 0.0
C487 C 0.28449 0.17778 0.7427 0.0
N488 N 0.2056 0.27936 0.85053 0.0
N489 N 0.2622 0.17218 0.77879 0.0
H490 H 0.22799 0.15077 0.21261 0.0
H491 H 0.30538 0.39899 0.42113 0.0
H492 H 0.20175 0.37002 0.2337 0.0
H493 H 0.32672 0.17692 0.40042 0.0
H494 H 0.27074 0.39381 0.34827 0.0
H495 H 0.26793 0.16416 0.2764 0.0
C496 C 0.23072 0.20197 0.23053 0.0
C497 C 0.21122 0.25917 0.21819 0.0
C498 C 0.28315 0.34641 0.3596 0.0
C499 C 0.25702 0.27479 0.29181 0.0
C500 C 0.30293 0.3493 0.40114 0.0
C501 C 0.31882 0.28816 0.41708 0.0
C502 C 0.2793 0.28194 0.33394 0.0
C503 C 0.3148 0.22527 0.38976 0.0
C504 C 0.25359 0.20958 0.26704 0.0
C505 C 0.21615 0.32442 0.24229 0.0
N506 N 0.29538 0.2238 0.34973 0.0
N507 N 0.23843 0.33033 0.27835 0.0
H508 H 0.8016 0.37492 0.26174 0.0
H509 H 0.6735 0.17624 0.09477 0.0
H510 H 0.77543 0.15485 0.27836 0.0
H511 H 0.69853 0.39598 0.07244 0.0
H512 H 0.70856 0.17131 0.16613 0.0
H513 H 0.76161 0.38777 0.19664 0.0
C514 C 0.78733 0.32953 0.25202 0.0
C515 C 0.79209 0.26354 0.27518 0.0
C516 C 0.70637 0.2208 0.14584 0.0
C517 C 0.74651 0.2778 0.20092 0.0
C518 C 0.68634 0.22362 0.10494 0.0
C519 C 0.68318 0.28654 0.07738 0.0
C520 C 0.72361 0.2812 0.15939 0.0
C521 C 0.7003 0.34633 0.09261 0.0
C522 C 0.76457 0.33687 0.21482 0.0
C523 C 0.77286 0.20659 0.26123 0.0
N524 N 0.71995 0.3421 0.13251 0.0
N525 N 0.7511 0.21499 0.22493 0.0
H526 H 0.6993 0.12738 0.76246 0.0
H527 H 0.82641 0.32773 0.59427 0.0
H528 H 0.72329 0.34907 0.7766 0.0
H529 H 0.80244 0.10711 0.57339 0.0
H530 H 0.79109 0.33284 0.6654 0.0
H531 H 0.73949 0.11505 0.69762 0.0
C532 C 0.71313 0.17326 0.75223 0.0
C533 C 0.70771 0.2395 0.77465 0.0
C534 C 0.79358 0.28313 0.64547 0.0
C535 C 0.75353 0.22584 0.70068 0.0
C536 C 0.81377 0.2802 0.60473 0.0
C537 C 0.8173 0.21697 0.57764 0.0
C538 C 0.77658 0.22251 0.65933 0.0
C539 C 0.8004 0.15701 0.59319 0.0
C540 C 0.736 0.16622 0.71518 0.0
C541 C 0.72638 0.2971 0.76006 0.0
N542 N 0.78062 0.16133 0.63291 0.0
N543 N 0.74829 0.28895 0.72393 0.0
H544 H 0.80368 0.90737 0.05655 0.0
H545 H 0.70289 0.89616 0.26369 0.0
H546 H 0.82215 0.68751 0.09103 0.0
H547 H 0.718 0.6698 0.25693 0.0
H548 H 0.74266 0.91223 0.19924 0.0
H549 H 0.76767 0.9127 0.12702 0.0
C550 C 0.80042 0.86044 0.07937 0.0
C551 C 0.81587 0.79683 0.06775 0.0
C552 C 0.73716 0.85897 0.21133 0.0
C553 C 0.77493 0.80252 0.14925 0.0
C554 C 0.71454 0.84987 0.24857 0.0
C555 C 0.7068 0.78151 0.26533 0.0
C556 C 0.75197 0.79903 0.19067 0.0
C557 C 0.72289 0.72351 0.24489 0.0
C558 C 0.77989 0.86356 0.11998 0.0
C559 C 0.81065 0.73761 0.09835 0.0
N560 N 0.74452 0.73366 0.20864 0.0
N561 N 0.79056 0.74191 0.13742 0.0
H562 H 0.69731 0.60421 0.55854 0.0
H563 H 0.77393 0.83707 0.77628 0.0
H564 H 0.67511 0.82359 0.58895 0.0
H565 H 0.8003 0.61941 0.74863 0.0
H566 H 0.73412 0.82764 0.71209 0.0
H567 H 0.73201 0.60376 0.63155 0.0
C568 C 0.69958 0.65209 0.58067 0.0
C569 C 0.68343 0.71419 0.56744 0.0
C570 C 0.74844 0.78165 0.72005 0.0
C571 C 0.72293 0.71394 0.65073 0.0
C572 C 0.77124 0.78701 0.7568 0.0
C573 C 0.79074 0.72915 0.76742 0.0
C574 C 0.7451 0.7181 0.6932 0.0
C575 C 0.78585 0.6654 0.7414 0.0
C576 C 0.71938 0.65176 0.62228 0.0
C577 C 0.68723 0.77464 0.59742 0.0
N578 N 0.76365 0.66173 0.70503 0.0
N579 N 0.70662 0.77298 0.63744 0.0
H580 H 0.30369 0.59832 0.93641 0.0
H581 H 0.22946 0.82891 0.71544 0.0
H582 H 0.32743 0.81622 0.90389 0.0
H583 H 0.20045 0.61414 0.74711 0.0
H584 H 0.26979 0.81857 0.7788 0.0
H585 H 0.26971 0.59705 0.86254 0.0
C586 C 0.30194 0.64566 0.91359 0.0
C587 C 0.31822 0.70768 0.92655 0.0
C588 C 0.25479 0.77339 0.77186 0.0
C589 C 0.27955 0.70649 0.84229 0.0
C590 C 0.2317 0.77927 0.7356 0.0
C591 C 0.21127 0.7226 0.72647 0.0
C592 C 0.25745 0.71054 0.79972 0.0
C593 C 0.21561 0.65926 0.75323 0.0
C594 C 0.28255 0.64488 0.8715 0.0
C595 C 0.31513 0.76742 0.89567 0.0
N596 N 0.23806 0.65515 0.78916 0.0
N597 N 0.2961 0.76536 0.85521 0.0
H598 H 0.269 0.66485 0.21652 0.0
H599 H 0.19359 0.89684 0.4357 0.0
H600 H 0.29662 0.88113 0.24618 0.0
H601 H 0.17034 0.67836 0.4042 0.0
H602 H 0.22762 0.89779 0.3619 0.0
H603 H 0.2286 0.67503 0.2798 0.0
C604 C 0.26644 0.71478 0.23621 0.0
C605 C 0.2865 0.77196 0.22654 0.0
C606 C 0.21488 0.8499 0.37106 0.0
C607 C 0.24023 0.78384 0.2997 0.0
C608 C 0.19545 0.8493 0.41312 0.0
C609 C 0.1793 0.78723 0.42635 0.0
C610 C 0.21806 0.78803 0.34217 0.0
C611 C 0.18254 0.72723 0.39576 0.0
C612 C 0.2433 0.72057 0.27243 0.0
C613 C 0.28175 0.83563 0.25273 0.0
N614 N 0.20162 0.7291 0.35533 0.0
N615 N 0.25927 0.83966 0.28862 0.0
H616 H 0.0919 0.26021 0.2473 0.0
H617 H 0.9109 0.26404 0.25042 0.0
H618 H 0.04057 0.33043 0.11741 0.0
H619 H 0.96267 0.32382 0.38242 0.0
H620 H 0.95795 0.28347 0.20015 0.0
H621 H 0.04508 0.27878 0.29827 0.0
C622 C 0.07098 0.2806 0.22965 0.0
C623 C 0.0701 0.29314 0.17791 0.0
C624 C 0.95876 0.2935 0.24003 0.0
C625 C 0.01646 0.31282 0.23568 0.0
C626 C 0.93199 0.28226 0.26872 0.0
C627 C 0.9329 0.29176 0.32076 0.0
C628 C 0.98677 0.31247 0.26376 0.0
C629 C 0.96087 0.31561 0.34248 0.0
C630 C 0.04434 0.29129 0.25874 0.0
C631 C 0.04234 0.31972 0.15705 0.0
N632 N 0.9869 0.32371 0.31403 0.0
N633 N 0.01641 0.32722 0.18581 0.0
H634 H 0.4594 0.16714 0.61539 0.0
H635 H 0.53745 0.17592 0.88517 0.0
H636 H 0.41008 0.24073 0.74643 0.0
H637 H 0.58763 0.23431 0.75122 0.0
H638 H 0.49047 0.1577 0.83492 0.0
H639 H 0.50605 0.14963 0.6665 0.0
C640 C 0.4581 0.17821 0.65505 0.0
C641 C 0.43085 0.20648 0.67653 0.0
C642 C 0.51196 0.17333 0.81661 0.0
C643 C 0.48404 0.18545 0.735 0.0
C644 C 0.53884 0.18347 0.8451 0.0
C645 C 0.56647 0.20758 0.82242 0.0
C646 C 0.51291 0.18577 0.765 0.0
C647 C 0.56676 0.21643 0.77029 0.0
C648 C 0.4848 0.16844 0.68403 0.0
C649 C 0.43066 0.2196 0.72823 0.0
N650 N 0.5403 0.20575 0.74328 0.0
N651 N 0.45695 0.20925 0.75574 0.0
H652 H 0.09002 0.71428 0.75494 0.0
H653 H 0.91072 0.70714 0.74612 0.0
H654 H 0.04293 0.63866 0.6224 0.0
H655 H 0.95857 0.64911 0.88227 0.0
H656 H 0.95859 0.68263 0.69918 0.0
H657 H 0.04258 0.69102 0.80328 0.0
C658 C 0.06996 0.69158 0.73617 0.0
C659 C 0.07033 0.6795 0.68437 0.0
C660 C 0.95832 0.67384 0.73922 0.0
C661 C 0.01598 0.65433 0.73916 0.0
C662 C 0.93108 0.68797 0.76601 0.0
C663 C 0.93075 0.68105 0.81826 0.0
C664 C 0.98557 0.65461 0.76506 0.0
C665 C 0.95779 0.65571 0.8421 0.0
C666 C 0.04295 0.67817 0.76379 0.0
C667 C 0.04366 0.64959 0.6621 0.0
N668 N 0.98437 0.64508 0.81546 0.0
N669 N 0.01729 0.63968 0.68938 0.0
H670 H 0.40799 0.78312 0.25466 0.0
H671 H 0.58732 0.79283 0.24468 0.0
H672 H 0.45462 0.85831 0.12154 0.0
H673 H 0.53962 0.85156 0.38084 0.0
H674 H 0.53923 0.81578 0.19796 0.0
H675 H 0.45549 0.80724 0.3026 0.0
C676 C 0.42796 0.80591 0.23568 0.0
C677 C 0.42744 0.81762 0.18383 0.0
C678 C 0.53957 0.82503 0.23795 0.0
C679 C 0.48186 0.84375 0.23817 0.0
C680 C 0.56694 0.81178 0.26461 0.0
C681 C 0.56739 0.81942 0.31681 0.0
C682 C 0.51233 0.8441 0.26387 0.0
C683 C 0.54031 0.84445 0.34071 0.0
C684 C 0.455 0.81979 0.26307 0.0
C685 C 0.45399 0.84765 0.16128 0.0
N686 N 0.51362 0.85424 0.31421 0.0
N687 N 0.4804 0.85804 0.18836 0.0
H688 H 0.05443 0.16354 0.96439 0.0
H689 H 0.94614 0.82756 0.02374 0.0
H690 H 0.07218 0.0152 0.08439 0.0
H691 H 0.93083 0.97067 0.8998 0.0
H692 H 0.99182 0.89721 0.04766 0.0
H693 H 0.00904 0.09333 0.94008 0.0
C694 C 0.04899 0.11596 0.9854 0.0
C695 C 0.0672 0.09544 0.02658 0.0
C696 C 0.97838 0.91343 0.01531 0.0
C697 C 0.01501 0.01522 -0.00078 0.0
C698 C 0.95218 0.87387 0.00177 0.0
C699 C 0.93454 0.89315 0.95967 0.0
C700 C 0.98701 0.97273 0.9866 0.0
C701 C 0.94366 0.9536 0.93253 0.0
C702 C 0.02296 0.07603 0.9716 0.0
C703 C 0.05887 0.0333 0.05243 0.0
N704 N 0.96927 0.99107 0.94642 0.0
N705 N 0.03333 0.99561 0.03843 0.0
H706 H 0.55416 0.67462 0.52315 0.0
H707 H 0.44668 0.33702 0.46451 0.0
H708 H 0.57043 0.53035 0.40018 0.0
H709 H 0.42857 0.48611 0.58392 0.0
H710 H 0.49221 0.40705 0.44037 0.0
H711 H 0.50877 0.60422 0.54727 0.0
C712 C 0.5484 0.62787 0.50145 0.0
C713 C 0.5662 0.60856 0.45951 0.0
C714 C 0.47817 0.42452 0.47174 0.0
C715 C 0.51402 0.5281 0.48667 0.0
C716 C 0.45207 0.38472 0.48541 0.0
C717 C 0.43371 0.40553 0.52637 0.0
C718 C 0.48604 0.4855 0.49924 0.0
C719 C 0.44199 0.46778 0.55213 0.0
C720 C 0.52236 0.58787 0.51511 0.0
C721 C 0.55745 0.54749 0.43275 0.0
N722 N 0.46758 0.50534 0.53823 0.0
N723 N 0.53195 0.50962 0.44671 0.0
H724 H 0.42906 0.52923 0.10147 0.0
H725 H 0.57268 0.48935 0.91276 0.0
H726 H 0.44655 0.67227 0.97823 0.0
H727 H 0.55395 0.34224 0.03311 0.0
H728 H 0.5276 0.55904 0.9382 0.0
H729 H 0.47503 0.46109 0.07775 0.0
C730 C 0.44241 0.54618 0.0692 0.0
C731 C 0.4338 0.60673 0.04176 0.0
C732 C 0.53341 0.5117 0.9592 0.0
C733 C 0.48678 0.52889 0.01472 0.0
C734 C 0.55928 0.47186 0.94482 0.0
C735 C 0.56717 0.4095 0.97074 0.0
C736 C 0.51516 0.48921 -0.00021 0.0
C737 C 0.54882 0.38985 0.012 0.0
C738 C 0.46877 0.50724 0.05581 0.0
C739 C 0.45216 0.62593 0.00041 0.0
N740 N 0.52358 0.42943 0.0251 0.0
N741 N 0.47781 0.58722 0.98825 0.0
H742 H 0.07004 0.96869 0.60081 0.0
H743 H 0.92564 0.01013 0.41386 0.0
H744 H 0.05104 0.8243 0.47895 0.0
H745 H 0.94626 0.15918 0.53221 0.0
H746 H 0.97038 0.93932 0.43929 0.0
H747 H 0.02441 0.03801 0.57711 0.0
C748 C 0.05643 0.95168 0.56885 0.0
C749 C 0.06451 0.89041 0.5418 0.0
C750 C 0.96507 0.98734 0.45985 0.0
C751 C 0.01192 0.96962 0.51478 0.0
C752 C 0.93939 0.02783 0.44549 0.0
C753 C 0.93212 0.09104 0.47084 0.0
C754 C 0.98375 0.01003 0.49987 0.0
C755 C 0.9509 0.11091 0.51155 0.0
C756 C 0.03027 0.9913 0.55546 0.0
C757 C 0.04584 0.87117 0.50083 0.0
N758 N 0.97593 0.07068 0.52465 0.0
N759 N 0.02038 0.91056 0.48867 0.0
loop_
_geom_bond_atom_site_label_1
_geom_bond_atom_site_label_2
_geom_bond_distance
_geom_bond_site_symmetry_2
_ccdc_geom_bond_type
Co0 O2 2.143 . S
Co0 O8 2.074 . S
Co0 O11 2.093 1_554 S
Co0 O24 2.097 . S
Co0 N41 2.151 . S
Co0 N49 2.214 . S
Co1 O2 2.160 . S
Co1 O7 2.058 . S
Co1 O17 2.057 . S
Co1 O32 2.037 . S
Co1 N36 2.145 . S
Co1 N57 2.257 . S
O2 Co0 2.143 . S
O2 Co1 2.160 . S
C3 O4 1.278 1_556 S
C3 O11 1.224 . S
O4 C3 1.278 1_554 S
C5 O6 1.245 . S
C5 O17 1.232 . S
O6 C5 1.245 . S
O7 Co1 2.058 . S
O7 C33 1.269 . S
O8 Co0 2.074 . S
O8 C33 1.257 . S
H9 C34 0.930 1_565 S
H10 C40 0.930 . S
O11 Co0 2.093 1_556 S
O11 C3 1.224 . S
H12 C44 0.929 . S
H13 C46 0.930 . S
H14 C47 0.930 . S
H15 C45 0.929 . S
H16 C48 0.928 . S
O17 Co1 2.057 . S
O17 C5 1.232 . S
H18 C37 0.929 . S
H19 C38 0.929 . S
H20 C50 0.951 . S
H21 C42 0.929 . S
H22 C51 0.930 . S
H23 C43 0.931 . S
O24 Co0 2.097 . S
O24 C52 1.214 . S
H25 C53 0.929 . S
H26 C54 0.929 . S
H27 C55 0.930 . S
H28 C56 0.929 1_565 S
H29 C58 0.930 . S
H30 C35 0.930 . S
H31 C39 0.930 . S
O32 Co1 2.037 . S
O32 C52 1.234 . S
C33 O7 1.269 . S
C33 O8 1.257 . S
C34 H9 0.930 1_545 S
C34 C37 1.388 . S
C34 C39 1.418 1_545 S
C35 H30 0.930 . S
C35 C38 1.404 . S
C35 C39 1.353 1_545 S
N36 Co1 2.145 . S
N36 C37 1.397 . S
N36 C38 1.334 . S
C37 H18 0.929 . S
C37 C34 1.388 . S
C37 N36 1.397 . S
C38 H19 0.929 . S
C38 C35 1.404 . S
C38 N36 1.334 . S
C39 H31 0.930 . S
C39 C34 1.418 1_565 S
C39 C35 1.353 1_565 S
C40 H10 0.930 . S
C40 N41 1.330 . S
C40 C42 1.446 . S
N41 Co0 2.151 . S
N41 C40 1.330 . S
N41 C45 1.418 . S
C42 H21 0.929 . S
C42 C40 1.446 . S
C42 C43 1.332 . S
C43 H23 0.931 . S
C43 C42 1.332 . S
C43 C44 1.267 . S
C44 H12 0.929 . S
C44 C43 1.267 . S
C44 C45 1.251 . S
C45 H15 0.929 . S
C45 N41 1.418 . S
C45 C44 1.251 . S
C46 H13 0.930 . S
C46 C48 1.406 . S
C46 C51 1.261 . S
C47 H14 0.930 . S
C47 N49 1.325 . S
C47 C50 1.357 1_554 S
C48 H16 0.928 . S
C48 C46 1.406 . S
C48 N49 1.261 1_556 S
N49 Co0 2.214 . S
N49 C47 1.325 . S
N49 C48 1.261 1_554 S
C50 H20 0.951 . S
C50 C47 1.357 1_556 S
C50 C51 1.312 . S
C51 H22 0.930 . S
C51 C46 1.261 . S
C51 C50 1.312 . S
C52 O24 1.214 . S
C52 O32 1.234 . S
C53 H25 0.929 . S
C53 C56 1.392 . S
C53 C58 1.391 . S
C54 H26 0.929 . S
C54 C55 1.390 1_545 S
C54 N57 1.391 . S
C55 H27 0.930 . S
C55 C54 1.390 1_565 S
C55 C56 1.391 1_565 S
C56 H28 0.929 1_545 S
C56 C53 1.392 . S
C56 C55 1.391 1_545 S
N57 Co1 2.257 . S
N57 C54 1.391 . S
N57 C58 1.388 . S
C58 H29 0.930 . S
C58 C53 1.391 . S
C58 N57 1.388 . S
Co59 O61 2.143 . S
Co59 O67 2.074 . S
Co59 O70 2.093 . S
Co59 O83 2.097 . S
Co59 N100 2.151 . S
Co59 N108 2.214 . S
Co60 O61 2.160 . S
Co60 O66 2.058 . S
Co60 O76 2.057 . S
Co60 O91 2.037 . S
Co60 N95 2.145 . S
Co60 N116 2.257 . S
O61 Co59 2.143 . S
O61 Co60 2.160 . S
C62 O63 1.278 . S
C62 O70 1.224 . S
O63 C62 1.278 . S
C64 O65 1.245 . S
C64 O76 1.232 . S
O65 C64 1.245 . S
O66 Co60 2.058 . S
O66 C92 1.269 . S
O67 Co59 2.074 . S
O67 C92 1.257 . S
H68 C93 0.930 . S
H69 C99 0.930 . S
O70 Co59 2.093 . S
O70 C62 1.224 . S
H71 C103 0.929 . S
H72 C105 0.930 . S
H73 C106 0.930 . S
H74 C104 0.929 . S
H75 C107 0.928 . S
O76 Co60 2.057 . S
O76 C64 1.232 . S
H77 C96 0.929 . S
H78 C97 0.929 . S
H79 C109 0.931 . S
H80 C101 0.929 . S
H81 C110 0.930 . S
H82 C102 0.931 . S
O83 Co59 2.097 . S
O83 C111 1.214 . S
H84 C112 0.929 . S
H85 C113 0.929 . S
H86 C114 0.930 . S
H87 C115 0.929 . S
H88 C117 0.930 . S
H89 C94 0.930 . S
H90 C98 0.930 . S
O91 Co60 2.037 . S
O91 C111 1.234 . S
C92 O66 1.269 . S
C92 O67 1.257 . S
C93 H68 0.930 . S
C93 C96 1.388 . S
C93 C98 1.418 . S
C94 H89 0.930 . S
C94 C97 1.404 . S
C94 C98 1.353 . S
N95 Co60 2.145 . S
N95 C96 1.397 . S
N95 C97 1.334 . S
C96 H77 0.929 . S
C96 C93 1.388 . S
C96 N95 1.397 . S
C97 H78 0.929 . S
C97 C94 1.404 . S
C97 N95 1.334 . S
C98 H90 0.930 . S
C98 C93 1.418 . S
C98 C94 1.353 . S
C99 H69 0.930 . S
C99 N100 1.330 . S
C99 C101 1.446 1_545 S
N100 Co59 2.151 . S
N100 C99 1.330 . S
N100 C104 1.418 . S
C101 H80 0.929 . S
C101 C99 1.446 1_565 S
C101 C102 1.332 . S
C102 H82 0.931 . S
C102 C101 1.332 . S
C102 C103 1.267 . S
C103 H71 0.929 . S
C103 C102 1.267 . S
C103 C104 1.251 1_565 S
C104 H74 0.929 . S
C104 N100 1.418 . S
C104 C103 1.251 1_545 S
C105 H72 0.930 . S
C105 C107 1.406 . S
C105 C110 1.261 . S
C106 H73 0.930 . S
C106 N108 1.325 . S
C106 C109 1.357 . S
C107 H75 0.928 . S
C107 C105 1.406 . S
C107 N108 1.261 . S
N108 Co59 2.214 . S
N108 C106 1.325 . S
N108 C107 1.261 . S
C109 H79 0.931 . S
C109 C106 1.357 . S
C109 C110 1.312 . S
C110 H81 0.930 . S
C110 C105 1.261 . S
C110 C109 1.312 . S
C111 O83 1.214 . S
C111 O91 1.234 . S
C112 H84 0.929 . S
C112 C115 1.391 . S
C112 C117 1.391 . S
C113 H85 0.929 . S
C113 C114 1.390 . S
C113 N116 1.391 . S
C114 H86 0.930 . S
C114 C113 1.390 . S
C114 C115 1.392 . S
C115 H87 0.929 . S
C115 C112 1.391 . S
C115 C114 1.392 . S
N116 Co60 2.257 . S
N116 C113 1.391 . S
N116 C117 1.388 . S
C117 H88 0.930 . S
C117 C112 1.391 . S
C117 N116 1.388 . S
Co118 O120 2.143 . S
Co118 O126 2.074 . S
Co118 O129 2.093 1_556 S
Co118 O142 2.097 . S
Co118 N159 2.151 . S
Co118 N167 2.214 . S
Co119 O120 2.160 . S
Co119 O125 2.058 . S
Co119 O135 2.057 . S
Co119 O150 2.037 . S
Co119 N154 2.145 . S
Co119 N175 2.257 . S
O120 Co118 2.143 . S
O120 Co119 2.160 . S
C121 O122 1.278 1_554 S
C121 O129 1.224 . S
O122 C121 1.278 1_556 S
C123 O124 1.245 . S
C123 O135 1.232 . S
O124 C123 1.245 . S
O125 Co119 2.058 . S
O125 C151 1.269 . S
O126 Co118 2.074 . S
O126 C151 1.257 . S
H127 C152 0.930 . S
H128 C158 0.930 . S
O129 Co118 2.093 1_554 S
O129 C121 1.224 . S
H130 C162 0.929 . S
H131 C164 0.930 . S
H132 C165 0.930 . S
H133 C163 0.929 . S
H134 C166 0.928 . S
O135 Co119 2.057 . S
O135 C123 1.232 . S
H136 C155 0.929 . S
H137 C156 0.929 . S
H138 C168 0.931 . S
H139 C160 0.929 . S
H140 C169 0.930 . S
H141 C161 0.931 . S
O142 Co118 2.097 . S
O142 C170 1.214 . S
H143 C171 0.929 . S
H144 C172 0.929 . S
H145 C173 0.930 . S
H146 C174 0.929 . S
H147 C176 0.930 . S
H148 C153 0.930 . S
H149 C157 0.930 . S
O150 Co119 2.037 . S
O150 C170 1.234 . S
C151 O125 1.269 . S
C151 O126 1.257 . S
C152 H127 0.930 . S
C152 C155 1.388 . S
C152 C157 1.418 . S
C153 H148 0.930 . S
C153 C156 1.404 . S
C153 C157 1.353 . S
N154 Co119 2.145 . S
N154 C155 1.397 . S
N154 C156 1.334 . S
C155 H136 0.929 . S
C155 C152 1.388 . S
C155 N154 1.397 . S
C156 H137 0.929 . S
C156 C153 1.404 . S
C156 N154 1.334 . S
C157 H149 0.930 . S
C157 C152 1.418 . S
C157 C153 1.353 . S
C158 H128 0.930 . S
C158 N159 1.330 . S
C158 C160 1.446 1_545 S
N159 Co118 2.151 . S
N159 C158 1.330 . S
N159 C163 1.418 . S
C160 H139 0.929 . S
C160 C158 1.446 1_565 S
C160 C161 1.332 . S
C161 H141 0.931 . S
C161 C160 1.332 . S
C161 C162 1.267 . S
C162 H130 0.929 . S
C162 C161 1.267 . S
C162 C163 1.251 1_565 S
C163 H133 0.929 . S
C163 N159 1.418 . S
C163 C162 1.251 1_545 S
C164 H131 0.930 . S
C164 C166 1.406 . S
C164 C169 1.261 . S
C165 H132 0.930 . S
C165 N167 1.325 . S
C165 C168 1.357 1_556 S
C166 H134 0.928 . S
C166 C164 1.406 . S
C166 N167 1.261 1_554 S
N167 Co118 2.214 . S
N167 C165 1.325 . S
N167 C166 1.261 1_556 S
C168 H138 0.931 . S
C168 C165 1.357 1_554 S
C168 C169 1.312 . S
C169 H140 0.930 . S
C169 C164 1.261 . S
C169 C168 1.312 . S
C170 O142 1.214 . S
C170 O150 1.234 . S
C171 H143 0.929 . S
C171 C174 1.391 . S
C171 C176 1.391 . S
C172 H144 0.929 . S
C172 C173 1.390 . S
C172 N175 1.391 . S
C173 H145 0.930 . S
C173 C172 1.390 . S
C173 C174 1.392 . S
C174 H146 0.929 . S
C174 C171 1.391 . S
C174 C173 1.392 . S
N175 Co119 2.257 . S
N175 C172 1.391 . S
N175 C176 1.388 . S
C176 H147 0.930 . S
C176 C171 1.391 . S
C176 N175 1.388 . S
Co177 O179 2.143 . S
Co177 O185 2.074 . S
Co177 O188 2.093 . S
Co177 O201 2.097 . S
Co177 N218 2.151 . S
Co177 N226 2.214 . S
Co178 O179 2.160 . S
Co178 O184 2.058 . S
Co178 O194 2.057 . S
Co178 O209 2.037 . S
Co178 N213 2.145 . S
Co178 N234 2.257 . S
O179 Co177 2.143 . S
O179 Co178 2.160 . S
C180 O181 1.278 . S
C180 O188 1.224 . S
O181 C180 1.278 . S
C182 O183 1.245 . S
C182 O194 1.232 . S
O183 C182 1.245 . S
O184 Co178 2.058 . S
O184 C210 1.269 . S
O185 Co177 2.074 . S
O185 C210 1.257 . S
H186 C211 0.930 1_565 S
H187 C217 0.930 . S
O188 Co177 2.093 . S
O188 C180 1.224 . S
H189 C221 0.929 . S
H190 C223 0.930 . S
H191 C224 0.930 . S
H192 C222 0.929 . S
H193 C225 0.928 . S
O194 Co178 2.057 . S
O194 C182 1.232 . S
H195 C214 0.929 . S
H196 C215 0.929 . S
H197 C227 0.951 . S
H198 C219 0.929 . S
H199 C228 0.930 . S
H200 C220 0.931 . S
O201 Co177 2.097 . S
O201 C229 1.214 . S
H202 C230 0.929 . S
H203 C231 0.929 . S
H204 C232 0.930 . S
H205 C233 0.929 1_565 S
H206 C235 0.930 . S
H207 C212 0.930 . S
H208 C216 0.930 . S
O209 Co178 2.037 . S
O209 C229 1.234 . S
C210 O184 1.269 . S
C210 O185 1.257 . S
C211 H186 0.930 1_545 S
C211 C214 1.388 . S
C211 C216 1.418 1_545 S
C212 H207 0.930 . S
C212 C215 1.404 . S
C212 C216 1.353 1_545 S
N213 Co178 2.145 . S
N213 C214 1.397 . S
N213 C215 1.334 . S
C214 H195 0.929 . S
C214 C211 1.388 . S
C214 N213 1.397 . S
C215 H196 0.929 . S
C215 C212 1.404 . S
C215 N213 1.334 . S
C216 H208 0.930 . S
C216 C211 1.418 1_565 S
C216 C212 1.353 1_565 S
C217 H187 0.930 . S
C217 N218 1.330 . S
C217 C219 1.446 . S
N218 Co177 2.151 . S
N218 C217 1.330 . S
N218 C222 1.418 . S
C219 H198 0.929 . S
C219 C217 1.446 . S
C219 C220 1.332 . S
C220 H200 0.931 . S
C220 C219 1.332 . S
C220 C221 1.267 . S
C221 H189 0.929 . S
C221 C220 1.267 . S
C221 C222 1.251 . S
C222 H192 0.929 . S
C222 N218 1.418 . S
C222 C221 1.251 . S
C223 H190 0.930 . S
C223 C225 1.406 . S
C223 C228 1.261 . S
C224 H191 0.930 . S
C224 N226 1.325 . S
C224 C227 1.357 . S
C225 H193 0.928 . S
C225 C223 1.406 . S
C225 N226 1.261 . S
N226 Co177 2.214 . S
N226 C224 1.325 . S
N226 C225 1.261 . S
C227 H197 0.951 . S
C227 C224 1.357 . S
C227 C228 1.312 . S
C228 H199 0.930 . S
C228 C223 1.261 . S
C228 C227 1.312 . S
C229 O201 1.214 . S
C229 O209 1.234 . S
C230 H202 0.929 . S
C230 C233 1.392 . S
C230 C235 1.391 . S
C231 H203 0.929 . S
C231 C232 1.390 1_545 S
C231 N234 1.391 . S
C232 H204 0.930 . S
C232 C231 1.390 1_565 S
C232 C233 1.391 1_565 S
C233 H205 0.929 1_545 S
C233 C230 1.392 . S
C233 C232 1.391 1_545 S
N234 Co178 2.257 . S
N234 C231 1.391 . S
N234 C235 1.388 . S
C235 H206 0.930 . S
C235 C230 1.391 . S
C235 N234 1.388 . S
Co236 O238 2.143 . S
Co236 O244 2.074 . S
Co236 O247 2.093 . S
Co236 O260 2.097 . S
Co236 N277 2.151 . S
Co236 N285 2.214 . S
Co237 O238 2.160 . S
Co237 O243 2.058 . S
Co237 O253 2.057 . S
Co237 O268 2.037 . S
Co237 N272 2.145 . S
Co237 N293 2.257 . S
O238 Co236 2.143 . S
O238 Co237 2.160 . S
C239 O240 1.278 . S
C239 O247 1.224 . S
O240 C239 1.278 . S
C241 O242 1.246 1_554 S
C241 O253 1.232 1_554 S
O242 C241 1.246 1_556 S
O243 Co237 2.058 . S
O243 C269 1.269 . S
O244 Co236 2.074 . S
O244 C269 1.257 . S
H245 C270 0.930 . S
H246 C276 0.930 . S
O247 Co236 2.093 . S
O247 C239 1.224 . S
H248 C280 0.929 . S
H249 C282 0.930 1_545 S
H250 C283 0.930 . S
H251 C281 0.929 . S
H252 C284 0.928 . S
O253 Co237 2.057 . S
O253 C241 1.232 1_556 S
H254 C273 0.929 . S
H255 C274 0.929 . S
H256 C286 0.931 . S
H257 C278 0.929 . S
H258 C287 0.930 1_545 S
H259 C279 0.931 . S
O260 Co236 2.097 . S
O260 C288 1.214 . S
H261 C289 0.929 . S
H262 C290 0.929 . S
H263 C291 0.930 . S
H264 C292 0.929 . S
H265 C294 0.930 . S
H266 C271 0.930 . S
H267 C275 0.930 . S
O268 Co237 2.037 . S
O268 C288 1.234 . S
C269 O243 1.269 . S
C269 O244 1.257 . S
C270 H245 0.930 . S
C270 C273 1.388 1_554 S
C270 C275 1.418 . S
C271 H266 0.930 . S
C271 C274 1.404 . S
C271 C275 1.353 . S
N272 Co237 2.145 . S
N272 C273 1.397 . S
N272 C274 1.334 1_556 S
C273 H254 0.929 . S
C273 C270 1.388 1_556 S
C273 N272 1.397 . S
C274 H255 0.929 . S
C274 C271 1.404 . S
C274 N272 1.334 1_554 S
C275 H267 0.930 . S
C275 C270 1.418 . S
C275 C271 1.353 . S
C276 H246 0.930 . S
C276 N277 1.330 . S
C276 C278 1.446 . S
N277 Co236 2.151 . S
N277 C276 1.330 . S
N277 C281 1.418 . S
C278 H257 0.929 . S
C278 C276 1.446 . S
C278 C279 1.332 1_565 S
C279 H259 0.931 . S
C279 C278 1.332 1_545 S
C279 C280 1.267 . S
C280 H248 0.929 . S
C280 C279 1.267 . S
C280 C281 1.251 1_545 S
C281 H251 0.929 . S
C281 N277 1.418 . S
C281 C280 1.251 1_565 S
C282 H249 0.930 1_565 S
C282 C284 1.406 . S
C282 C287 1.261 . S
C283 H250 0.930 . S
C283 N285 1.325 . S
C283 C286 1.357 . S
C284 H252 0.928 . S
C284 C282 1.406 . S
C284 N285 1.261 . S
N285 Co236 2.214 . S
N285 C283 1.325 . S
N285 C284 1.261 . S
C286 H256 0.931 . S
C286 C283 1.357 . S
C286 C287 1.312 . S
C287 H258 0.930 1_565 S
C287 C282 1.261 . S
C287 C286 1.312 . S
C288 O260 1.214 . S
C288 O268 1.234 . S
C289 H261 0.929 . S
C289 C292 1.391 . S
C289 C294 1.391 . S
C290 H262 0.929 . S
C290 C291 1.390 . S
C290 N293 1.391 . S
C291 H263 0.930 . S
C291 C290 1.390 . S
C291 C292 1.392 . S
C292 H264 0.929 . S
C292 C289 1.391 . S
C292 C291 1.392 . S
N293 Co237 2.257 . S
N293 C290 1.391 . S
N293 C294 1.388 . S
C294 H265 0.930 . S
C294 C289 1.391 . S
C294 N293 1.388 . S
Co295 O297 2.143 . S
Co295 O303 2.074 . S
Co295 O306 2.093 . S
Co295 O319 2.097 . S
Co295 N336 2.151 . S
Co295 N344 2.214 . S
Co296 O297 2.160 . S
Co296 O302 2.058 . S
Co296 O312 2.057 . S
Co296 O327 2.037 . S
Co296 N331 2.145 . S
Co296 N352 2.257 . S
O297 Co295 2.143 . S
O297 Co296 2.160 . S
C298 O299 1.278 . S
C298 O306 1.224 . S
O299 C298 1.278 . S
C300 O301 1.245 . S
C300 O312 1.232 . S
O301 C300 1.245 . S
O302 Co296 2.058 . S
O302 C328 1.269 . S
O303 Co295 2.074 . S
O303 C328 1.257 . S
H304 C329 0.930 . S
H305 C335 0.930 . S
O306 Co295 2.093 . S
O306 C298 1.224 . S
H307 C339 0.929 . S
H308 C341 0.930 . S
H309 C342 0.930 . S
H310 C340 0.929 . S
H311 C343 0.928 . S
O312 Co296 2.057 . S
O312 C300 1.232 . S
H313 C332 0.929 . S
H314 C333 0.929 . S
H315 C345 0.931 . S
H316 C337 0.929 . S
H317 C346 0.930 . S
H318 C338 0.931 . S
O319 Co295 2.097 . S
O319 C347 1.214 . S
H320 C348 0.929 . S
H321 C349 0.929 . S
H322 C350 0.930 . S
H323 C351 0.929 . S
H324 C353 0.930 . S
H325 C330 0.930 . S
H326 C334 0.930 . S
O327 Co296 2.037 . S
O327 C347 1.234 . S
C328 O302 1.269 . S
C328 O303 1.257 . S
C329 H304 0.930 . S
C329 C332 1.388 . S
C329 C334 1.418 . S
C330 H325 0.930 . S
C330 C333 1.404 . S
C330 C334 1.353 . S
N331 Co296 2.145 . S
N331 C332 1.397 . S
N331 C333 1.334 . S
C332 H313 0.929 . S
C332 C329 1.388 . S
C332 N331 1.397 . S
C333 H314 0.929 . S
C333 C330 1.404 . S
C333 N331 1.334 . S
C334 H326 0.930 . S
C334 C329 1.418 . S
C334 C330 1.353 . S
C335 H305 0.930 . S
C335 N336 1.330 . S
C335 C337 1.446 . S
N336 Co295 2.151 . S
N336 C335 1.330 . S
N336 C340 1.418 . S
C337 H316 0.929 . S
C337 C335 1.446 . S
C337 C338 1.332 . S
C338 H318 0.931 . S
C338 C337 1.332 . S
C338 C339 1.267 . S
C339 H307 0.929 . S
C339 C338 1.267 . S
C339 C340 1.251 . S
C340 H310 0.929 . S
C340 N336 1.418 . S
C340 C339 1.251 . S
C341 H308 0.930 . S
C341 C343 1.406 . S
C341 C346 1.261 . S
C342 H309 0.930 . S
C342 N344 1.325 . S
C342 C345 1.357 . S
C343 H311 0.928 . S
C343 C341 1.406 . S
C343 N344 1.261 . S
N344 Co295 2.214 . S
N344 C342 1.325 . S
N344 C343 1.261 . S
C345 H315 0.931 . S
C345 C342 1.357 . S
C345 C346 1.312 . S
C346 H317 0.930 . S
C346 C341 1.261 . S
C346 C345 1.312 . S
C347 O319 1.214 . S
C347 O327 1.234 . S
C348 H320 0.929 . S
C348 C351 1.391 1_565 S
C348 C353 1.391 . S
C349 H321 0.929 . S
C349 C350 1.390 1_565 S
C349 N352 1.391 . S
C350 H322 0.930 . S
C350 C349 1.390 1_545 S
C350 C351 1.392 . S
C351 H323 0.929 . S
C351 C348 1.391 1_545 S
C351 C350 1.392 . S
N352 Co296 2.257 . S
N352 C349 1.391 . S
N352 C353 1.388 . S
C353 H324 0.930 . S
C353 C348 1.391 . S
C353 N352 1.388 . S
Co354 O356 2.143 . S
Co354 O362 2.074 . S
Co354 O365 2.093 . S
Co354 O378 2.097 . S
Co354 N395 2.151 . S
Co354 N403 2.214 . S
Co355 O356 2.160 . S
Co355 O361 2.058 . S
Co355 O371 2.057 . S
Co355 O386 2.037 . S
Co355 N390 2.145 . S
Co355 N411 2.257 . S
O356 Co354 2.143 . S
O356 Co355 2.160 . S
C357 O358 1.278 . S
C357 O365 1.224 . S
O358 C357 1.278 . S
C359 O360 1.246 1_556 S
C359 O371 1.232 1_556 S
O360 C359 1.246 1_554 S
O361 Co355 2.058 . S
O361 C387 1.269 . S
O362 Co354 2.074 . S
O362 C387 1.257 . S
H363 C388 0.930 . S
H364 C394 0.930 . S
O365 Co354 2.093 . S
O365 C357 1.224 . S
H366 C398 0.929 . S
H367 C400 0.930 . S
H368 C401 0.930 . S
H369 C399 0.929 . S
H370 C402 0.928 . S
O371 Co355 2.057 . S
O371 C359 1.232 1_554 S
H372 C391 0.929 . S
H373 C392 0.929 . S
H374 C404 0.931 . S
H375 C396 0.929 . S
H376 C405 0.930 . S
H377 C397 0.931 . S
O378 Co354 2.097 . S
O378 C406 1.214 . S
H379 C407 0.929 . S
H380 C408 0.929 . S
H381 C409 0.930 . S
H382 C410 0.929 . S
H383 C412 0.930 . S
H384 C389 0.930 . S
H385 C393 0.930 . S
O386 Co355 2.037 . S
O386 C406 1.234 . S
C387 O361 1.269 . S
C387 O362 1.257 . S
C388 H363 0.930 . S
C388 C391 1.388 1_556 S
C388 C393 1.418 . S
C389 H384 0.930 . S
C389 C392 1.404 . S
C389 C393 1.353 . S
N390 Co355 2.145 . S
N390 C391 1.397 . S
N390 C392 1.334 1_554 S
C391 H372 0.929 . S
C391 C388 1.388 1_554 S
C391 N390 1.397 . S
C392 H373 0.929 . S
C392 C389 1.404 . S
C392 N390 1.334 1_556 S
C393 H385 0.930 . S
C393 C388 1.418 . S
C393 C389 1.353 . S
C394 H364 0.930 . S
C394 N395 1.330 . S
C394 C396 1.446 . S
N395 Co354 2.151 . S
N395 C394 1.330 . S
N395 C399 1.418 . S
C396 H375 0.929 . S
C396 C394 1.446 . S
C396 C397 1.332 . S
C397 H377 0.931 . S
C397 C396 1.332 . S
C397 C398 1.267 . S
C398 H366 0.929 . S
C398 C397 1.267 . S
C398 C399 1.251 . S
C399 H369 0.929 . S
C399 N395 1.418 . S
C399 C398 1.251 . S
C400 H367 0.930 . S
C400 C402 1.406 . S
C400 C405 1.261 . S
C401 H368 0.930 . S
C401 N403 1.325 . S
C401 C404 1.357 . S
C402 H370 0.928 . S
C402 C400 1.406 . S
C402 N403 1.261 . S
N403 Co354 2.214 . S
N403 C401 1.325 . S
N403 C402 1.261 . S
C404 H374 0.931 . S
C404 C401 1.357 . S
C404 C405 1.312 . S
C405 H376 0.930 . S
C405 C400 1.261 . S
C405 C404 1.312 . S
C406 O378 1.214 . S
C406 O386 1.234 . S
C407 H379 0.929 . S
C407 C410 1.391 1_565 S
C407 C412 1.391 . S
C408 H380 0.929 . S
C408 C409 1.390 1_565 S
C408 N411 1.391 . S
C409 H381 0.930 . S
C409 C408 1.390 1_545 S
C409 C410 1.392 . S
C410 H382 0.929 . S
C410 C407 1.391 1_545 S
C410 C409 1.392 . S
N411 Co355 2.257 . S
N411 C408 1.391 . S
N411 C412 1.388 . S
C412 H383 0.930 . S
C412 C407 1.391 . S
C412 N411 1.388 . S
Co413 O415 2.143 . S
Co413 O421 2.074 . S
Co413 O424 2.093 . S
Co413 O437 2.097 . S
Co413 N454 2.151 . S
Co413 N462 2.214 . S
Co414 O415 2.160 . S
Co414 O420 2.058 . S
Co414 O430 2.057 . S
Co414 O445 2.037 . S
Co414 N449 2.145 . S
Co414 N470 2.257 . S
O415 Co413 2.143 . S
O415 Co414 2.160 . S
C416 O417 1.278 . S
C416 O424 1.224 . S
O417 C416 1.278 . S
C418 O419 1.245 . S
C418 O430 1.232 . S
O419 C418 1.245 . S
O420 Co414 2.058 . S
O420 C446 1.269 . S
O421 Co413 2.074 . S
O421 C446 1.257 . S
H422 C447 0.930 . S
H423 C453 0.930 . S
O424 Co413 2.093 . S
O424 C416 1.224 . S
H425 C457 0.929 . S
H426 C459 0.930 1_545 S
H427 C460 0.930 . S
H428 C458 0.929 . S
H429 C461 0.928 . S
O430 Co414 2.057 . S
O430 C418 1.232 . S
H431 C450 0.929 . S
H432 C451 0.929 . S
H433 C463 0.931 . S
H434 C455 0.929 . S
H435 C464 0.930 1_545 S
H436 C456 0.931 . S
O437 Co413 2.097 . S
O437 C465 1.214 . S
H438 C466 0.929 . S
H439 C467 0.929 . S
H440 C468 0.930 . S
H441 C469 0.929 . S
H442 C471 0.930 . S
H443 C448 0.930 . S
H444 C452 0.930 . S
O445 Co414 2.037 . S
O445 C465 1.234 . S
C446 O420 1.269 . S
C446 O421 1.257 . S
C447 H422 0.930 . S
C447 C450 1.388 . S
C447 C452 1.418 . S
C448 H443 0.930 . S
C448 C451 1.404 . S
C448 C452 1.353 . S
N449 Co414 2.145 . S
N449 C450 1.397 . S
N449 C451 1.334 . S
C450 H431 0.929 . S
C450 C447 1.388 . S
C450 N449 1.397 . S
C451 H432 0.929 . S
C451 C448 1.404 . S
C451 N449 1.334 . S
C452 H444 0.930 . S
C452 C447 1.418 . S
C452 C448 1.353 . S
C453 H423 0.930 . S
C453 N454 1.330 . S
C453 C455 1.446 . S
N454 Co413 2.151 . S
N454 C453 1.330 . S
N454 C458 1.418 . S
C455 H434 0.929 . S
C455 C453 1.446 . S
C455 C456 1.332 1_565 S
C456 H436 0.931 . S
C456 C455 1.332 1_545 S
C456 C457 1.267 . S
C457 H425 0.929 . S
C457 C456 1.267 . S
C457 C458 1.251 1_545 S
C458 H428 0.929 . S
C458 N454 1.418 . S
C458 C457 1.251 1_565 S
C459 H426 0.930 1_565 S
C459 C461 1.406 . S
C459 C464 1.261 . S
C460 H427 0.930 . S
C460 N462 1.325 . S
C460 C463 1.357 . S
C461 H429 0.928 . S
C461 C459 1.406 . S
C461 N462 1.261 . S
N462 Co413 2.214 . S
N462 C460 1.325 . S
N462 C461 1.261 . S
C463 H433 0.931 . S
C463 C460 1.357 . S
C463 C464 1.312 . S
C464 H435 0.930 1_565 S
C464 C459 1.261 . S
C464 C463 1.312 . S
C465 O437 1.214 . S
C465 O445 1.234 . S
C466 H438 0.929 . S
C466 C469 1.391 . S
C466 C471 1.391 . S
C467 H439 0.929 . S
C467 C468 1.390 . S
C467 N470 1.391 . S
C468 H440 0.930 . S
C468 C467 1.390 . S
C468 C469 1.392 . S
C469 H441 0.929 . S
C469 C466 1.391 . S
C469 C468 1.392 . S
N470 Co414 2.257 . S
N470 C467 1.391 . S
N470 C471 1.388 . S
C471 H442 0.930 . S
C471 C466 1.391 . S
C471 N470 1.388 . S
H472 C478 0.930 . S
H473 C482 0.930 . S
H474 C487 0.929 . S
H475 C485 0.929 . S
H476 C480 0.929 . S
H477 C486 0.929 . S
C478 H472 0.930 . S
C478 C479 1.367 . S
C478 C486 1.378 . S
C479 C478 1.367 . S
C479 C487 1.433 . S
C480 H476 0.929 . S
C480 C482 1.378 . S
C480 C484 1.350 . S
C481 C484 1.463 . S
C481 C486 1.350 . S
C481 N489 1.427 . S
C482 H473 0.930 . S
C482 C480 1.378 . S
C482 C483 1.367 . S
C483 C482 1.367 . S
C483 C485 1.433 . S
C484 C480 1.350 . S
C484 C481 1.463 . S
C484 N488 1.427 . S
C485 H475 0.929 . S
C485 C483 1.433 . S
C485 N488 1.384 . S
C486 H477 0.929 . S
C486 C478 1.378 . S
C486 C481 1.350 . S
C487 H474 0.929 . S
C487 C479 1.433 . S
C487 N489 1.384 . S
N488 C484 1.427 . S
N488 C485 1.384 . S
N489 C481 1.427 . S
N489 C487 1.384 . S
H490 C496 0.930 . S
H491 C500 0.930 . S
H492 C505 0.929 . S
H493 C503 0.929 . S
H494 C498 0.929 . S
H495 C504 0.929 . S
C496 H490 0.930 . S
C496 C497 1.367 . S
C496 C504 1.378 . S
C497 C496 1.367 . S
C497 C505 1.433 . S
C498 H494 0.929 . S
C498 C500 1.378 . S
C498 C502 1.350 . S
C499 C502 1.463 . S
C499 C504 1.350 . S
C499 N507 1.427 . S
C500 H491 0.930 . S
C500 C498 1.378 . S
C500 C501 1.367 . S
C501 C500 1.367 . S
C501 C503 1.433 . S
C502 C498 1.350 . S
C502 C499 1.463 . S
C502 N506 1.427 . S
C503 H493 0.929 . S
C503 C501 1.433 . S
C503 N506 1.384 . S
C504 H495 0.929 . S
C504 C496 1.378 . S
C504 C499 1.350 . S
C505 H492 0.929 . S
C505 C497 1.433 . S
C505 N507 1.384 . S
N506 C502 1.427 . S
N506 C503 1.384 . S
N507 C499 1.427 . S
N507 C505 1.384 . S
H508 C514 0.930 . S
H509 C518 0.930 . S
H510 C523 0.929 . S
H511 C521 0.929 . S
H512 C516 0.929 . S
H513 C522 0.929 . S
C514 H508 0.930 . S
C514 C515 1.367 . S
C514 C522 1.378 . S
C515 C514 1.367 . S
C515 C523 1.433 . S
C516 H512 0.929 . S
C516 C518 1.378 . S
C516 C520 1.350 . S
C517 C520 1.463 . S
C517 C522 1.350 . S
C517 N525 1.427 . S
C518 H509 0.930 . S
C518 C516 1.378 . S
C518 C519 1.367 . S
C519 C518 1.367 . S
C519 C521 1.433 . S
C520 C516 1.350 . S
C520 C517 1.463 . S
C520 N524 1.427 . S
C521 H511 0.929 . S
C521 C519 1.433 . S
C521 N524 1.384 . S
C522 H513 0.929 . S
C522 C514 1.378 . S
C522 C517 1.350 . S
C523 H510 0.929 . S
C523 C515 1.433 . S
C523 N525 1.384 . S
N524 C520 1.427 . S
N524 C521 1.384 . S
N525 C517 1.427 . S
N525 C523 1.384 . S
H526 C532 0.930 . S
H527 C536 0.930 . S
H528 C541 0.929 . S
H529 C539 0.929 . S
H530 C534 0.929 . S
H531 C540 0.929 . S
C532 H526 0.930 . S
C532 C533 1.367 . S
C532 C540 1.378 . S
C533 C532 1.367 . S
C533 C541 1.433 . S
C534 H530 0.929 . S
C534 C536 1.378 . S
C534 C538 1.350 . S
C535 C538 1.463 . S
C535 C540 1.350 . S
C535 N543 1.427 . S
C536 H527 0.930 . S
C536 C534 1.378 . S
C536 C537 1.367 . S
C537 C536 1.367 . S
C537 C539 1.433 . S
C538 C534 1.350 . S
C538 C535 1.463 . S
C538 N542 1.427 . S
C539 H529 0.929 . S
C539 C537 1.433 . S
C539 N542 1.384 . S
C540 H531 0.929 . S
C540 C532 1.378 . S
C540 C535 1.350 . S
C541 H528 0.929 . S
C541 C533 1.433 . S
C541 N543 1.384 . S
N542 C538 1.427 . S
N542 C539 1.384 . S
N543 C535 1.427 . S
N543 C541 1.384 . S
H544 C550 0.930 . S
H545 C554 0.930 . S
H546 C559 0.929 . S
H547 C557 0.929 . S
H548 C552 0.929 . S
H549 C558 0.929 . S
C550 H544 0.930 . S
C550 C551 1.367 . S
C550 C558 1.378 . S
C551 C550 1.367 . S
C551 C559 1.433 . S
C552 H548 0.929 . S
C552 C554 1.378 . S
C552 C556 1.350 . S
C553 C556 1.463 . S
C553 C558 1.350 . S
C553 N561 1.427 . S
C554 H545 0.930 . S
C554 C552 1.378 . S
C554 C555 1.367 . S
C555 C554 1.367 . S
C555 C557 1.433 . S
C556 C552 1.350 . S
C556 C553 1.463 . S
C556 N560 1.427 . S
C557 H547 0.929 . S
C557 C555 1.433 . S
C557 N560 1.384 . S
C558 H549 0.929 . S
C558 C550 1.378 . S
C558 C553 1.350 . S
C559 H546 0.929 . S
C559 C551 1.433 . S
C559 N561 1.384 . S
N560 C556 1.427 . S
N560 C557 1.384 . S
N561 C553 1.427 . S
N561 C559 1.384 . S
H562 C568 0.930 . S
H563 C572 0.930 . S
H564 C577 0.929 . S
H565 C575 0.929 . S
H566 C570 0.929 . S
H567 C576 0.929 . S
C568 H562 0.930 . S
C568 C569 1.367 . S
C568 C576 1.378 . S
C569 C568 1.367 . S
C569 C577 1.433 . S
C570 H566 0.929 . S
C570 C572 1.378 . S
C570 C574 1.350 . S
C571 C574 1.463 . S
C571 C576 1.350 . S
C571 N579 1.427 . S
C572 H563 0.930 . S
C572 C570 1.378 . S
C572 C573 1.367 . S
C573 C572 1.367 . S
C573 C575 1.433 . S
C574 C570 1.350 . S
C574 C571 1.463 . S
C574 N578 1.427 . S
C575 H565 0.929 . S
C575 C573 1.433 . S
C575 N578 1.384 . S
C576 H567 0.929 . S
C576 C568 1.378 . S
C576 C571 1.350 . S
C577 H564 0.929 . S
C577 C569 1.433 . S
C577 N579 1.384 . S
N578 C574 1.427 . S
N578 C575 1.384 . S
N579 C571 1.427 . S
N579 C577 1.384 . S
H580 C586 0.930 . S
H581 C590 0.930 . S
H582 C595 0.929 . S
H583 C593 0.929 . S
H584 C588 0.929 . S
H585 C594 0.929 . S
C586 H580 0.930 . S
C586 C587 1.367 . S
C586 C594 1.378 . S
C587 C586 1.367 . S
C587 C595 1.433 . S
C588 H584 0.929 . S
C588 C590 1.378 . S
C588 C592 1.350 . S
C589 C592 1.463 . S
C589 C594 1.350 . S
C589 N597 1.427 . S
C590 H581 0.930 . S
C590 C588 1.378 . S
C590 C591 1.367 . S
C591 C590 1.367 . S
C591 C593 1.433 . S
C592 C588 1.350 . S
C592 C589 1.463 . S
C592 N596 1.427 . S
C593 H583 0.929 . S
C593 C591 1.433 . S
C593 N596 1.384 . S
C594 H585 0.929 . S
C594 C586 1.378 . S
C594 C589 1.350 . S
C595 H582 0.929 . S
C595 C587 1.433 . S
C595 N597 1.384 . S
N596 C592 1.427 . S
N596 C593 1.384 . S
N597 C589 1.427 . S
N597 C595 1.384 . S
H598 C604 0.930 . S
H599 C608 0.930 . S
H600 C613 0.929 . S
H601 C611 0.929 . S
H602 C606 0.929 . S
H603 C612 0.929 . S
C604 H598 0.930 . S
C604 C605 1.367 . S
C604 C612 1.378 . S
C605 C604 1.367 . S
C605 C613 1.433 . S
C606 H602 0.929 . S
C606 C608 1.378 . S
C606 C610 1.350 . S
C607 C610 1.463 . S
C607 C612 1.350 . S
C607 N615 1.427 . S
C608 H599 0.930 . S
C608 C606 1.378 . S
C608 C609 1.367 . S
C609 C608 1.367 . S
C609 C611 1.433 . S
C610 C606 1.350 . S
C610 C607 1.463 . S
C610 N614 1.427 . S
C611 H601 0.929 . S
C611 C609 1.433 . S
C611 N614 1.384 . S
C612 H603 0.929 . S
C612 C604 1.378 . S
C612 C607 1.350 . S
C613 H600 0.929 . S
C613 C605 1.433 . S
C613 N615 1.384 . S
N614 C610 1.427 . S
N614 C611 1.384 . S
N615 C607 1.427 . S
N615 C613 1.384 . S
H616 C622 0.930 . S
H617 C626 0.930 . S
H618 C631 0.929 . S
H619 C629 0.929 . S
H620 C624 0.929 . S
H621 C630 0.929 . S
C622 H616 0.930 . S
C622 C623 1.367 . S
C622 C630 1.378 . S
C623 C622 1.367 . S
C623 C631 1.433 . S
C624 H620 0.929 . S
C624 C626 1.378 . S
C624 C628 1.350 . S
C625 C628 1.463 1_455 S
C625 C630 1.350 . S
C625 N633 1.427 . S
C626 H617 0.930 . S
C626 C624 1.378 . S
C626 C627 1.367 . S
C627 C626 1.367 . S
C627 C629 1.433 . S
C628 C624 1.350 . S
C628 C625 1.463 1_655 S
C628 N632 1.427 . S
C629 H619 0.929 . S
C629 C627 1.433 . S
C629 N632 1.384 . S
C630 H621 0.929 . S
C630 C622 1.378 . S
C630 C625 1.350 . S
C631 H618 0.929 . S
C631 C623 1.433 . S
C631 N633 1.384 . S
N632 C628 1.427 . S
N632 C629 1.384 . S
N633 C625 1.427 . S
N633 C631 1.384 . S
H634 C640 0.930 . S
H635 C644 0.930 . S
H636 C649 0.929 . S
H637 C647 0.929 . S
H638 C642 0.929 . S
H639 C648 0.929 . S
C640 H634 0.930 . S
C640 C641 1.367 . S
C640 C648 1.378 . S
C641 C640 1.367 . S
C641 C649 1.433 . S
C642 H638 0.929 . S
C642 C644 1.378 . S
C642 C646 1.350 . S
C643 C646 1.463 . S
C643 C648 1.350 . S
C643 N651 1.427 . S
C644 H635 0.930 . S
C644 C642 1.378 . S
C644 C645 1.367 . S
C645 C644 1.367 . S
C645 C647 1.433 . S
C646 C642 1.350 . S
C646 C643 1.463 . S
C646 N650 1.427 . S
C647 H637 0.929 . S
C647 C645 1.433 . S
C647 N650 1.384 . S
C648 H639 0.929 . S
C648 C640 1.378 . S
C648 C643 1.350 . S
C649 H636 0.929 . S
C649 C641 1.433 . S
C649 N651 1.384 . S
N650 C646 1.427 . S
N650 C647 1.384 . S
N651 C643 1.427 . S
N651 C649 1.384 . S
H652 C658 0.930 . S
H653 C662 0.930 . S
H654 C667 0.929 . S
H655 C665 0.929 . S
H656 C660 0.929 . S
H657 C666 0.929 . S
C658 H652 0.930 . S
C658 C659 1.367 . S
C658 C666 1.378 . S
C659 C658 1.367 . S
C659 C667 1.433 . S
C660 H656 0.929 . S
C660 C662 1.378 . S
C660 C664 1.350 . S
C661 C664 1.463 1_455 S
C661 C666 1.350 . S
C661 N669 1.427 . S
C662 H653 0.930 . S
C662 C660 1.378 . S
C662 C663 1.367 . S
C663 C662 1.367 . S
C663 C665 1.433 . S
C664 C660 1.350 . S
C664 C661 1.463 1_655 S
C664 N668 1.427 . S
C665 H655 0.929 . S
C665 C663 1.433 . S
C665 N668 1.384 . S
C666 H657 0.929 . S
C666 C658 1.378 . S
C666 C661 1.350 . S
C667 H654 0.929 . S
C667 C659 1.433 . S
C667 N669 1.384 . S
N668 C664 1.427 . S
N668 C665 1.384 . S
N669 C661 1.427 . S
N669 C667 1.384 . S
H670 C676 0.930 . S
H671 C680 0.930 . S
H672 C685 0.929 . S
H673 C683 0.929 . S
H674 C678 0.929 . S
H675 C684 0.929 . S
C676 H670 0.930 . S
C676 C677 1.367 . S
C676 C684 1.378 . S
C677 C676 1.367 . S
C677 C685 1.433 . S
C678 H674 0.929 . S
C678 C680 1.378 . S
C678 C682 1.350 . S
C679 C682 1.463 . S
C679 C684 1.350 . S
C679 N687 1.427 . S
C680 H671 0.930 . S
C680 C678 1.378 . S
C680 C681 1.367 . S
C681 C680 1.367 . S
C681 C683 1.433 . S
C682 C678 1.350 . S
C682 C679 1.463 . S
C682 N686 1.427 . S
C683 H673 0.929 . S
C683 C681 1.433 . S
C683 N686 1.384 . S
C684 H675 0.929 . S
C684 C676 1.378 . S
C684 C679 1.350 . S
C685 H672 0.929 . S
C685 C677 1.433 . S
C685 N687 1.384 . S
N686 C682 1.427 . S
N686 C683 1.384 . S
N687 C679 1.427 . S
N687 C685 1.384 . S
H688 C694 0.930 . S
H689 C698 0.930 . S
H690 C703 0.929 . S
H691 C701 0.929 . S
H692 C696 0.929 1_545 S
H693 C702 0.929 1_565 S
C694 H688 0.930 . S
C694 C695 1.367 1_556 S
C694 C702 1.378 . S
C695 C694 1.367 1_554 S
C695 C703 1.433 . S
C696 H692 0.929 1_565 S
C696 C698 1.378 . S
C696 C700 1.350 1_554 S
C697 C700 1.463 1_444 S
C697 C702 1.350 1_554 S
C697 N705 1.427 . S
C698 H689 0.930 . S
C698 C696 1.378 . S
C698 C699 1.367 1_554 S
C699 C698 1.367 1_556 S
C699 C701 1.433 . S
C700 C696 1.350 1_556 S
C700 C697 1.463 1_666 S
C700 N704 1.427 . S
C701 H691 0.929 . S
C701 C699 1.433 . S
C701 N704 1.384 . S
C702 H693 0.929 1_545 S
C702 C694 1.378 . S
C702 C697 1.350 1_556 S
C703 H690 0.929 . S
C703 C695 1.433 . S
C703 N705 1.384 . S
N704 C700 1.427 . S
N704 C701 1.384 . S
N705 C697 1.427 . S
N705 C703 1.384 . S
H706 C712 0.930 . S
H707 C716 0.930 . S
H708 C721 0.929 . S
H709 C719 0.929 . S
H710 C714 0.929 . S
H711 C720 0.929 . S
C712 H706 0.930 . S
C712 C713 1.367 . S
C712 C720 1.378 . S
C713 C712 1.367 . S
C713 C721 1.433 . S
C714 H710 0.929 . S
C714 C716 1.378 . S
C714 C718 1.350 . S
C715 C718 1.463 . S
C715 C720 1.350 . S
C715 N723 1.427 . S
C716 H707 0.930 . S
C716 C714 1.378 . S
C716 C717 1.367 . S
C717 C716 1.367 . S
C717 C719 1.433 . S
C718 C714 1.350 . S
C718 C715 1.463 . S
C718 N722 1.427 . S
C719 H709 0.929 . S
C719 C717 1.433 . S
C719 N722 1.384 . S
C720 H711 0.929 . S
C720 C712 1.378 . S
C720 C715 1.350 . S
C721 H708 0.929 . S
C721 C713 1.433 . S
C721 N723 1.384 . S
N722 C718 1.427 . S
N722 C719 1.384 . S
N723 C715 1.427 . S
N723 C721 1.384 . S
H724 C730 0.930 . S
H725 C734 0.930 . S
H726 C739 0.929 . S
H727 C737 0.929 . S
H728 C732 0.929 . S
H729 C738 0.929 . S
C730 H724 0.930 . S
C730 C731 1.367 . S
C730 C738 1.378 . S
C731 C730 1.367 . S
C731 C739 1.433 1_554 S
C732 H728 0.929 . S
C732 C734 1.378 . S
C732 C736 1.350 . S
C733 C736 1.463 1_554 S
C733 C738 1.350 . S
C733 N741 1.427 1_554 S
C734 H725 0.930 . S
C734 C732 1.378 . S
C734 C735 1.367 . S
C735 C734 1.367 . S
C735 C737 1.433 1_556 S
C736 C732 1.350 . S
C736 C733 1.463 1_556 S
C736 N740 1.427 1_556 S
C737 H727 0.929 . S
C737 C735 1.433 1_554 S
C737 N740 1.384 . S
C738 H729 0.929 . S
C738 C730 1.378 . S
C738 C733 1.350 . S
C739 H726 0.929 . S
C739 C731 1.433 1_556 S
C739 N741 1.384 . S
N740 C736 1.427 1_554 S
N740 C737 1.384 . S
N741 C733 1.427 1_556 S
N741 C739 1.384 . S
H742 C748 0.930 . S
H743 C752 0.930 . S
H744 C757 0.929 . S
H745 C755 0.929 . S
H746 C750 0.929 . S
H747 C756 0.929 . S
C748 H742 0.930 . S
C748 C749 1.367 . S
C748 C756 1.378 1_565 S
C749 C748 1.367 . S
C749 C757 1.433 . S
C750 H746 0.929 . S
C750 C752 1.378 1_565 S
C750 C754 1.350 1_565 S
C751 C754 1.463 1_465 S
C751 C756 1.350 1_565 S
C751 N759 1.427 . S
C752 H743 0.930 . S
C752 C750 1.378 1_545 S
C752 C753 1.367 . S
C753 C752 1.367 . S
C753 C755 1.433 . S
C754 C750 1.350 1_545 S
C754 C751 1.463 1_645 S
C754 N758 1.427 . S
C755 H745 0.929 . S
C755 C753 1.433 . S
C755 N758 1.384 . S
C756 H747 0.929 . S
C756 C748 1.378 1_545 S
C756 C751 1.350 1_545 S
C757 H744 0.929 . S
C757 C749 1.433 . S
C757 N759 1.384 . S
N758 C754 1.427 . S
N758 C755 1.384 . S
N759 C751 1.427 . S
N759 C757 1.384 . S
C479 C64 1.628 . S
C483 C3 1.587 . S
C497 C5 1.630 . S
C501 C62 1.589 . S
C515 C182 1.631 . S
C519 C121 1.598 . S
C533 C123 1.631 . S
C537 C180 1.599 . S
C551 C241 1.605 . S
C555 C298 1.620 . S
C569 C300 1.604 . S
C573 C239 1.613 . S
C587 C359 1.603 . S
C591 C416 1.620 . S
C605 C357 1.616 . S
C609 C418 1.601 . S
C623 C33 0.729 . S
C627 C210 0.749 . S
C641 C92 0.749 . S
C645 C151 0.735 . S
C659 C465 0.753 . S
C663 C288 0.736 . S
C677 C406 0.738 . S
C681 C347 0.746 . S
C695 C52 1.537 . S
C699 C269 1.530 . S
C713 C328 1.524 . S
C717 C111 1.533 . S
C731 C387 1.527 . S
C735 C170 1.535 . S
C749 C446 1.530 . S
C753 C229 1.537 . S
