# Generated by pormake.
# Topology rac, (4)-cn, num edge types: 1
# Building blocks:
#     Node 0, Type 0, BuildingBlock: CEKHIL_clean_sbu_0, # of connection points: 4
#     Node 1, Type 0, BuildingBlock: CEKHIL_clean_sbu_0, # of connection points: 4
#     Node 2, Type 0, BuildingBlock: CEKHIL_clean_sbu_0, # of connection points: 4
#     Node 3, Type 0, BuildingBlock: CEKHIL_clean_sbu_0, # of connection points: 4
#     Node 4, Type 0, BuildingBlock: CEKHIL_clean_sbu_0, # of connection points: 4
#     Node 5, Type 0, BuildingBlock: CEKHIL_clean_sbu_0, # of connection points: 4
#     Node 6, Type 0, BuildingBlock: CEKHIL_clean_sbu_0, # of connection points: 4
#     Node 7, Type 0, BuildingBlock: CEKHIL_clean_sbu_0, # of connection points: 4
#     Edge 8, Type (0, 0), BuildingBlock: OJICUG_clean_linker_0, # of connection points: 2
#     Edge 9, Type (0, 0), BuildingBlock: OJICUG_clean_linker_0, # of connection points: 2
#     Edge 10, Type (0, 0), BuildingBlock: OJICUG_clean_linker_0, # of connection points: 2
#     Edge 11, Type (0, 0), BuildingBlock: OJICUG_clean_linker_0, # of connection points: 2
#     Edge 12, Type (0, 0), BuildingBlock: OJICUG_clean_linker_0, # of connection points: 2
#     Edge 13, Type (0, 0), BuildingBlock: OJICUG_clean_linker_0, # of connection points: 2
#     Edge 14, Type (0, 0), BuildingBlock: OJICUG_clean_linker_0, # of connection points: 2
#     Edge 15, Type (0, 0), BuildingBlock: OJICUG_clean_linker_0, # of connection points: 2
#     Edge 16, Type (0, 0), BuildingBlock: OJICUG_clean_linker_0, # of connection points: 2
#     Edge 17, Type (0, 0), BuildingBlock: OJICUG_clean_linker_0, # of connection points: 2
#     Edge 18, Type (0, 0), BuildingBlock: OJICUG_clean_linker_0, # of connection points: 2
#     Edge 19, Type (0, 0), BuildingBlock: OJICUG_clean_linker_0, # of connection points: 2
#     Edge 20, Type (0, 0), BuildingBlock: OJICUG_clean_linker_0, # of connection points: 2
#     Edge 21, Type (0, 0), BuildingBlock: OJICUG_clean_linker_0, # of connection points: 2
#     Edge 22, Type (0, 0), BuildingBlock: OJICUG_clean_linker_0, # of connection points: 2
#     Edge 23, Type (0, 0), BuildingBlock: OJICUG_clean_linker_0, # of connection points: 2
# Relax obj value: 0.220
# Max RMSD: 0.073
# Mean RMSD: 0.073
data_MOF--net-rac--node1-CEKHIL_clean_sbu_0--edge1-OJICUG_clean_linker_0
_symmetry_space_group_name_H-M    P1
_symmetry_Int_Tables_number       1
_symmetry_cell_setting            triclinic
loop_
_symmetry_equiv_pos_as_xyz
'x, y, z'
_cell_length_a     30.143363
_cell_length_b     15.519915
_cell_length_c     26.07083
_cell_angle_alpha  89.97634
_cell_angle_beta   89.995194
_cell_angle_gamma 90.020837
loop_
_atom_site_label
_atom_site_type_symbol
_atom_site_fract_x
_atom_site_fract_y
_atom_site_fract_z
_atom_type_partial_charge
Co0 Co 0.37202 0.30909 0.05163 0.0
O1 O 0.40822 0.41037 0.06151 0.0
O2 O 0.42349 0.31268 0.00384 0.0
C3 C 0.36774 0.27968 0.13644 0.0
O4 O 0.33606 0.19667 0.03488 0.0
Co5 Co 0.2779 0.33025 0.10136 0.0
O6 O 0.27001 0.21302 0.0757 0.0
C7 C 0.29498 0.38698 0.9944 0.0
C8 C 0.43401 0.38629 0.02511 0.0
C9 C 0.29598 0.17073 0.04663 0.0
O10 O 0.33625 0.37055 -0.00101 0.0
O11 O 0.267 0.37825 0.03105 0.0
O12 O 0.40102 0.2528 0.10938 0.0
O13 O 0.34082 0.33044 0.11274 0.0
Co14 Co 0.13867 0.70075 0.05082 0.0
O15 O 0.10397 0.59731 0.05986 0.0
O16 O 0.08748 0.69495 0.00263 0.0
C17 C 0.14164 0.72834 0.13587 0.0
O18 O 0.17324 0.8152 0.03498 0.0
Co19 Co 0.23253 0.684 0.10232 0.0
O20 O 0.23864 0.80224 0.07764 0.0
C21 C 0.21768 0.62943 0.99436 0.0
C22 C 0.07789 0.62059 0.02359 0.0
C23 C 0.21273 0.84309 0.04775 0.0
O24 O 0.17599 0.64237 -0.00159 0.0
O25 O 0.245 0.63943 0.03155 0.0
O26 O 0.10828 0.7543 0.10862 0.0
O27 O 0.16953 0.67992 0.11204 0.0
Co28 Co 0.37231 0.19609 0.43916 0.0
O29 O 0.40881 0.09546 0.42863 0.0
O30 O 0.42367 0.1921 0.48708 0.0
C31 C 0.36801 0.22731 0.35457 0.0
O32 O 0.33603 0.3077 0.45665 0.0
Co33 Co 0.2783 0.17464 0.38909 0.0
O34 O 0.26994 0.291 0.41595 0.0
C35 C 0.29541 0.11607 0.49566 0.0
C36 C 0.43441 0.11904 0.46531 0.0
C37 C 0.29583 0.33319 0.44519 0.0
O38 O 0.33664 0.13312 0.49128 0.0
O39 O 0.26746 0.12512 0.45903 0.0
O40 O 0.40121 0.25397 0.38187 0.0
O41 O 0.34124 0.17571 0.37788 0.0
Co42 Co 0.13843 0.80226 0.43927 0.0
O43 O 0.10399 0.90587 0.42975 0.0
O44 O 0.08726 0.80915 0.48746 0.0
C45 C 0.14136 0.77349 0.35436 0.0
O46 O 0.17272 0.68784 0.45572 0.0
Co47 Co 0.23233 0.81762 0.38751 0.0
O48 O 0.23804 0.69963 0.41272 0.0
C49 C 0.21772 0.87298 0.49541 0.0
C50 C 0.07786 0.88329 0.46613 0.0
C51 C 0.21213 0.65952 0.44299 0.0
O52 O 0.17595 0.86095 0.49137 0.0
O53 O 0.245 0.86211 0.45825 0.0
O54 O 0.1079 0.74818 0.38169 0.0
O55 O 0.16934 0.82198 0.37799 0.0
Co56 Co 0.64068 0.69573 0.93862 0.0
O57 O 0.60447 0.59447 0.9287 0.0
O58 O 0.58924 0.69203 0.98646 0.0
C59 C 0.64493 0.72541 0.85385 0.0
O60 O 0.67663 0.8081 0.95542 0.0
Co61 Co 0.73478 0.67459 0.88881 0.0
O62 O 0.74267 0.79175 0.91459 0.0
C63 C 0.71776 0.61773 -0.00425 0.0
C64 C 0.57872 0.61847 0.96514 0.0
C65 C 0.71671 0.83403 0.94367 0.0
O66 O 0.67648 0.63417 0.9912 0.0
O67 O 0.74572 0.6265 0.95909 0.0
O68 O 0.61165 0.75217 0.88095 0.0
O69 O 0.67185 0.67456 0.87749 0.0
Co70 Co 0.87373 0.304 0.93814 0.0
O71 O 0.90845 0.40738 0.92884 0.0
O72 O 0.92501 0.30991 0.98617 0.0
C73 C 0.87048 0.2759 0.85316 0.0
O74 O 0.83924 0.18965 0.95434 0.0
Co75 Co 0.77972 0.32049 0.88705 0.0
O76 O 0.77365 0.20243 0.91205 0.0
C77 C 0.79488 0.37522 -0.00509 0.0
C78 C 0.93458 0.38419 0.9651 0.0
C79 C 0.79969 0.16172 0.94185 0.0
O80 O 0.83657 0.3626 0.99061 0.0
O81 O 0.76741 0.36494 0.95788 0.0
O82 O 0.90394 0.25014 0.88033 0.0
O83 O 0.84268 0.32453 0.87698 0.0
Co84 Co 0.64093 0.80902 0.5511 0.0
O85 O 0.60464 0.91001 0.56142 0.0
O86 O 0.58962 0.81321 0.50311 0.0
C87 C 0.64503 0.77819 0.63575 0.0
O88 O 0.67697 0.69705 0.53378 0.0
Co89 Co 0.73491 0.82972 0.60134 0.0
O90 O 0.74292 0.71304 0.57486 0.0
C91 C 0.71818 0.88733 0.49448 0.0
C92 C 0.579 0.88644 0.52476 0.0
C93 C 0.71706 0.67115 0.54544 0.0
O94 O 0.67683 0.87136 0.49895 0.0
O95 O 0.74608 0.87794 0.53113 0.0
O96 O 0.61181 0.75167 0.60844 0.0
O97 O 0.67196 0.82943 0.61241 0.0
Co98 Co 0.874 0.20176 0.54973 0.0
O99 O 0.90854 0.09832 0.55942 0.0
O100 O 0.92548 0.19532 0.50196 0.0
C101 C 0.87054 0.23039 0.63465 0.0
O102 O 0.83969 0.31611 0.53321 0.0
Co103 Co 0.77983 0.18553 0.60044 0.0
O104 O 0.77384 0.30331 0.57499 0.0
C105 C 0.79529 0.13024 0.49275 0.0
C106 C 0.93485 0.12115 0.52327 0.0
C107 C 0.80007 0.344 0.54537 0.0
O108 O 0.83697 0.14299 0.49719 0.0
O109 O 0.76772 0.14064 0.52966 0.0
O110 O 0.90409 0.25589 0.60754 0.0
O111 O 0.84276 0.18166 0.61083 0.0
C112 C 0.22924 0.08157 0.0248 0.0
C113 C 0.27618 0.08791 0.02843 0.0
H114 H 0.17166 0.99941 0.02799 0.0
C115 C 0.30097 0.01213 0.02536 0.0
H116 H 0.20895 0.13915 0.02593 0.0
C117 C 0.27925 0.93207 0.02524 0.0
C118 C 0.23233 0.92576 0.029 0.0
H119 H 0.33683 0.0142 0.0278 0.0
H120 H 0.29956 0.87452 0.02673 0.0
C121 C 0.20751 1.00147 0.02549 0.0
C122 C 0.27867 0.57153 0.46639 0.0
C123 C 0.23175 0.57738 0.46244 0.0
H124 H 0.33639 0.48992 0.46407 0.0
C125 C 0.20706 0.50152 0.46627 0.0
H126 H 0.29887 0.62923 0.46468 0.0
C127 C 0.22894 0.42162 0.46731 0.0
C128 C 0.27589 0.41567 0.46365 0.0
H129 H 0.17121 0.50327 0.46368 0.0
H130 H 0.20876 0.36384 0.46633 0.0
C131 C 0.30054 0.49167 0.46655 0.0
C132 C 0.78342 0.92337 0.96532 0.0
C133 C 0.73648 0.9169 0.96181 0.0
H134 H 0.84093 0.00567 0.96181 0.0
C135 C 0.71163 0.99261 0.96485 0.0
H136 H 0.80375 0.86584 0.96422 0.0
C137 C 0.73329 0.07273 0.96479 0.0
C138 C 0.7802 0.07913 0.96085 0.0
H139 H 0.67578 0.99043 0.96251 0.0
H140 H 0.71293 0.13021 0.96327 0.0
C141 C 0.80508 0.00352 0.96443 0.0
C142 C 0.78396 0.58258 0.52358 0.0
C143 C 0.73699 0.58882 0.52671 0.0
H144 H 0.84147 0.50037 0.52695 0.0
C145 C 0.71221 0.51315 0.52253 0.0
H146 H 0.80427 0.64011 0.52548 0.0
C147 C 0.7339 0.4331 0.52196 0.0
C148 C 0.78077 0.42673 0.52643 0.0
H149 H 0.67633 0.51516 0.52449 0.0
H150 H 0.71357 0.37551 0.5227 0.0
C151 C 0.80565 0.50249 0.52388 0.0
C152 C 0.40641 0.2614 0.21917 0.0
C153 C 0.36629 0.26618 0.19215 0.0
H154 H 0.43802 0.2477 0.29194 0.0
C155 C 0.32598 0.25939 0.21889 0.0
H156 H 0.43791 0.26722 0.19943 0.0
C157 C 0.32606 0.24583 0.2721 0.0
C158 C 0.36642 0.24225 0.29898 0.0
H159 H 0.29468 0.26303 0.1986 0.0
H160 H 0.29481 0.23928 0.29224 0.0
C161 C 0.40646 0.25089 0.27212 0.0
C162 C 0.183 0.75622 0.27186 0.0
C163 C 0.14265 0.76016 0.29868 0.0
H164 H 0.21441 0.74089 0.19834 0.0
C165 C 0.10256 0.75433 0.27166 0.0
H166 H 0.21428 0.76074 0.29214 0.0
C167 C 0.10263 0.74608 0.21854 0.0
C168 C 0.1428 0.74083 0.19162 0.0
H169 H 0.07101 0.75799 0.29148 0.0
H170 H 0.07114 0.7422 0.19862 0.0
C171 C 0.18308 0.745 0.21854 0.0
C172 C 0.60639 0.74549 0.77117 0.0
C173 C 0.64647 0.73938 0.79817 0.0
H174 H 0.57489 0.76025 0.69841 0.0
C175 C 0.68683 0.74513 0.77143 0.0
H176 H 0.57485 0.74054 0.7909 0.0
C177 C 0.68684 0.7588 0.71823 0.0
C178 C 0.64652 0.76352 0.69136 0.0
H179 H 0.7181 0.7405 0.7917 0.0
H180 H 0.71814 0.76443 0.69808 0.0
C181 C 0.60642 0.75611 0.71823 0.0
C182 C 0.90933 0.24903 0.71736 0.0
C183 C 0.86921 0.24334 0.69037 0.0
H184 H 0.94084 0.26133 0.79031 0.0
C185 C 0.82888 0.24746 0.71723 0.0
H186 H 0.94086 0.24524 0.69752 0.0
C187 C 0.82887 0.25888 0.77055 0.0
C188 C 0.86919 0.26306 0.79743 0.0
H189 H 0.79759 0.24305 0.69698 0.0
H190 H 0.79757 0.26321 0.79079 0.0
C191 C 0.90932 0.25748 0.77045 0.0
C192 C 0.47908 0.52224 0.03637 0.0
C193 C 0.47165 0.44415 0.00949 0.0
H194 H 0.51785 0.63829 0.04399 0.0
C195 C 0.49952 0.42522 0.96799 0.0
H196 H 0.45831 0.53963 0.06863 0.0
C197 C 0.53367 0.48248 0.95389 0.0
C198 C 0.5411 0.56058 0.98077 0.0
H199 H 0.4949 0.36643 0.94627 0.0
H200 H 0.55444 0.4651 0.92163 0.0
C201 C 0.51323 0.5795 0.02227 0.0
C202 C 0.03455 0.48249 0.0346 0.0
C203 C 0.04072 0.56148 0.00817 0.0
H204 H 0.99705 0.36489 0.04232 0.0
C205 C 0.01184 0.58042 0.96761 0.0
H206 H 0.05612 0.46507 0.06616 0.0
C207 C 0.97793 0.5223 0.954 0.0
C208 C 0.97176 0.44333 0.98045 0.0
H209 H 0.01543 0.63992 0.9463 0.0
H210 H 0.95635 0.53972 0.92246 0.0
C211 C 1.00065 0.42439 0.021 0.0
C212 C 0.51383 0.92624 0.46738 0.0
C213 C 0.54141 0.94443 0.50926 0.0
H214 H 0.45919 0.9668 0.42083 0.0
C215 C 0.53374 0.02194 0.53663 0.0
H216 H 0.51865 0.86793 0.44527 0.0
C217 C 0.49963 0.07933 0.52265 0.0
C218 C 0.47205 0.06112 0.48078 0.0
H219 H 0.55428 0.03876 0.5692 0.0
H220 H 0.4948 0.13763 0.54477 0.0
C221 C 0.47973 0.98363 0.4534 0.0
C222 C 0.97799 0.98305 0.5351 0.0
C223 C 0.97201 0.06173 0.5083 0.0
H224 H 0.01526 0.86532 0.5434 0.0
C225 C 1.00102 0.08004 0.46775 0.0
H226 H 0.95632 0.96612 0.56667 0.0
C227 C 0.03485 0.02159 0.45448 0.0
C228 C 0.04081 0.94288 0.48125 0.0
H229 H 0.99757 0.13929 0.44617 0.0
H230 H 0.05651 0.03851 0.4229 0.0
C231 C 0.01182 0.9246 0.52183 0.0
C232 C 0.2796 0.58797 0.93921 0.0
C233 C 0.23382 0.5839 0.94888 0.0
H234 H 0.33915 0.51472 0.94414 0.0
C235 C 0.21114 0.50774 0.93656 0.0
H236 H 0.2975 0.64784 0.94469 0.0
C237 C 0.23503 0.43097 0.93715 0.0
C238 C 0.28041 0.43462 0.94902 0.0
H239 H 0.17533 0.50419 0.93981 0.0
H240 H 0.2169 0.37099 0.941 0.0
C241 C 0.30352 0.51123 0.93894 0.0
C242 C 0.23554 0.07122 0.55282 0.0
C243 C 0.28087 0.06761 0.54074 0.0
H244 H 0.17578 0.99825 0.55042 0.0
C245 C 0.30397 0.99085 0.55037 0.0
H246 H 0.21749 0.13132 0.54925 0.0
C247 C 0.27997 0.91416 0.55016 0.0
C248 C 0.23416 0.91839 0.54079 0.0
H249 H 0.33958 0.98744 0.54493 0.0
H250 H 0.29785 0.85434 0.54444 0.0
C251 C 0.21159 0.9945 0.55343 0.0
C252 C 0.77776 0.57341 0.05281 0.0
C253 C 0.73235 0.56998 0.04109 0.0
H254 H 0.8374 0.50024 0.04954 0.0
C255 C 0.70923 0.49333 0.05104 0.0
H256 H 0.79586 0.63345 0.04912 0.0
C257 C 0.7331 0.41653 0.05035 0.0
C258 C 0.77884 0.42062 0.04048 0.0
H259 H 0.67357 0.49007 0.04605 0.0
H260 H 0.71509 0.35681 0.04473 0.0
C261 C 0.80161 0.4966 0.05297 0.0
C262 C 0.7098 0.01109 0.43843 0.0
C263 C 0.73302 0.93489 0.44919 0.0
H264 H 0.71564 0.14781 0.44226 0.0
C265 C 0.77841 0.93114 0.43737 0.0
H266 H 0.67416 0.01445 0.44366 0.0
C267 C 0.80217 0.00804 0.43559 0.0
C268 C 0.77942 0.08439 0.44723 0.0
H269 H 0.79659 0.87137 0.44184 0.0
H270 H 0.83798 0.00474 0.43874 0.0
C271 C 0.73366 0.08792 0.43745 0.0
loop_
_geom_bond_atom_site_label_1
_geom_bond_atom_site_label_2
_geom_bond_distance
_geom_bond_site_symmetry_2
_ccdc_geom_bond_type
Co0 O1 2.216 . S
Co0 O2 2.091 1_554 S
Co0 O4 2.004 . S
Co0 O10 2.018 1_554 S
Co0 O12 2.137 . S
Co0 O13 2.244 . S
O1 Co0 2.216 . S
O1 C8 1.247 . S
O2 Co0 2.091 1_556 S
O2 C8 1.261 1_556 S
C3 O12 1.247 . S
C3 O13 1.272 . S
O4 Co0 2.004 . S
O4 C9 1.259 . S
Co5 O6 2.061 . S
Co5 O11 2.052 . S
Co5 O13 2.135 . S
O6 Co5 2.061 . S
O6 C9 1.235 . S
C7 O10 1.235 1_554 S
C7 O11 1.241 . S
C8 O1 1.247 . S
C8 O2 1.261 1_554 S
C9 O4 1.259 . S
C9 O6 1.235 . S
O10 Co0 2.018 1_556 S
O10 C7 1.235 1_556 S
O11 Co5 2.052 . S
O11 C7 1.241 . S
O12 Co0 2.137 . S
O12 C3 1.247 . S
O13 Co0 2.244 . S
O13 C3 1.272 . S
O13 Co5 2.135 . S
Co14 O15 2.216 . S
Co14 O16 2.091 1_554 S
Co14 O18 2.004 . S
Co14 O24 2.018 1_554 S
Co14 O26 2.137 . S
Co14 O27 2.244 . S
O15 Co14 2.216 . S
O15 C22 1.247 . S
O16 Co14 2.091 1_556 S
O16 C22 1.261 1_556 S
C17 O26 1.247 . S
C17 O27 1.272 . S
O18 Co14 2.004 . S
O18 C23 1.259 . S
Co19 O20 2.061 . S
Co19 O25 2.052 . S
Co19 O27 2.135 . S
O20 Co19 2.061 . S
O20 C23 1.235 . S
C21 O24 1.235 1_554 S
C21 O25 1.241 . S
C22 O15 1.247 . S
C22 O16 1.261 1_554 S
C23 O18 1.259 . S
C23 O20 1.235 . S
O24 Co14 2.018 1_556 S
O24 C21 1.235 1_556 S
O25 Co19 2.052 . S
O25 C21 1.241 . S
O26 Co14 2.137 . S
O26 C17 1.247 . S
O27 Co14 2.244 . S
O27 C17 1.272 . S
O27 Co19 2.135 . S
Co28 O29 2.216 . S
Co28 O30 2.091 . S
Co28 O32 2.004 . S
Co28 O38 2.021 . S
Co28 O40 2.137 . S
Co28 O41 2.244 . S
O29 Co28 2.216 . S
O29 C36 1.247 . S
O30 Co28 2.091 . S
O30 C36 1.261 . S
C31 O40 1.247 . S
C31 O41 1.272 . S
O32 Co28 2.004 . S
O32 C37 1.259 . S
Co33 O34 2.061 . S
Co33 O39 2.052 . S
Co33 O41 2.135 . S
O34 Co33 2.061 . S
O34 C37 1.235 . S
C35 O38 1.238 . S
C35 O39 1.241 . S
C36 O29 1.247 . S
C36 O30 1.261 . S
C37 O32 1.259 . S
C37 O34 1.235 . S
O38 Co28 2.021 . S
O38 C35 1.238 . S
O39 Co33 2.052 . S
O39 C35 1.241 . S
O40 Co28 2.137 . S
O40 C31 1.247 . S
O41 Co28 2.244 . S
O41 C31 1.272 . S
O41 Co33 2.135 . S
Co42 O43 2.216 . S
Co42 O44 2.091 . S
Co42 O46 2.004 . S
Co42 O52 2.021 . S
Co42 O54 2.137 . S
Co42 O55 2.244 . S
O43 Co42 2.216 . S
O43 C50 1.247 . S
O44 Co42 2.091 . S
O44 C50 1.261 . S
C45 O54 1.247 . S
C45 O55 1.272 . S
O46 Co42 2.004 . S
O46 C51 1.259 . S
Co47 O48 2.061 . S
Co47 O53 2.052 . S
Co47 O55 2.135 . S
O48 Co47 2.061 . S
O48 C51 1.235 . S
C49 O52 1.238 . S
C49 O53 1.241 . S
C50 O43 1.247 . S
C50 O44 1.261 . S
C51 O46 1.259 . S
C51 O48 1.235 . S
O52 Co42 2.021 . S
O52 C49 1.238 . S
O53 Co47 2.052 . S
O53 C49 1.241 . S
O54 Co42 2.137 . S
O54 C45 1.247 . S
O55 Co42 2.244 . S
O55 C45 1.272 . S
O55 Co47 2.135 . S
Co56 O57 2.216 . S
Co56 O58 2.091 1_556 S
Co56 O60 2.004 . S
Co56 O66 2.018 1_556 S
Co56 O68 2.137 . S
Co56 O69 2.244 . S
O57 Co56 2.216 . S
O57 C64 1.247 . S
O58 Co56 2.091 1_554 S
O58 C64 1.261 1_554 S
C59 O68 1.247 . S
C59 O69 1.272 . S
O60 Co56 2.004 . S
O60 C65 1.259 . S
Co61 O62 2.061 . S
Co61 O67 2.052 . S
Co61 O69 2.135 . S
O62 Co61 2.061 . S
O62 C65 1.235 . S
C63 O66 1.235 1_556 S
C63 O67 1.241 . S
C64 O57 1.247 . S
C64 O58 1.261 1_556 S
C65 O60 1.259 . S
C65 O62 1.235 . S
O66 Co56 2.018 1_554 S
O66 C63 1.235 1_554 S
O67 Co61 2.052 . S
O67 C63 1.241 . S
O68 Co56 2.137 . S
O68 C59 1.247 . S
O69 Co56 2.244 . S
O69 C59 1.272 . S
O69 Co61 2.135 . S
Co70 O71 2.216 . S
Co70 O72 2.091 1_556 S
Co70 O74 2.004 . S
Co70 O80 2.018 1_556 S
Co70 O82 2.137 . S
Co70 O83 2.244 . S
O71 Co70 2.216 . S
O71 C78 1.247 . S
O72 Co70 2.091 1_554 S
O72 C78 1.261 1_554 S
C73 O82 1.247 . S
C73 O83 1.272 . S
O74 Co70 2.004 . S
O74 C79 1.259 . S
Co75 O76 2.061 . S
Co75 O81 2.052 . S
Co75 O83 2.135 . S
O76 Co75 2.061 . S
O76 C79 1.235 . S
C77 O80 1.235 1_556 S
C77 O81 1.241 . S
C78 O71 1.247 . S
C78 O72 1.261 1_556 S
C79 O74 1.259 . S
C79 O76 1.235 . S
O80 Co70 2.018 1_554 S
O80 C77 1.235 1_554 S
O81 Co75 2.052 . S
O81 C77 1.241 . S
O82 Co70 2.137 . S
O82 C73 1.247 . S
O83 Co70 2.244 . S
O83 C73 1.272 . S
O83 Co75 2.135 . S
Co84 O85 2.216 . S
Co84 O86 2.091 . S
Co84 O88 2.004 . S
Co84 O94 2.021 . S
Co84 O96 2.137 . S
Co84 O97 2.244 . S
O85 Co84 2.216 . S
O85 C92 1.247 . S
O86 Co84 2.091 . S
O86 C92 1.261 . S
C87 O96 1.247 . S
C87 O97 1.272 . S
O88 Co84 2.004 . S
O88 C93 1.259 . S
Co89 O90 2.061 . S
Co89 O95 2.052 . S
Co89 O97 2.135 . S
O90 Co89 2.061 . S
O90 C93 1.235 . S
C91 O94 1.238 . S
C91 O95 1.241 . S
C92 O85 1.247 . S
C92 O86 1.261 . S
C93 O88 1.259 . S
C93 O90 1.235 . S
O94 Co84 2.021 . S
O94 C91 1.238 . S
O95 Co89 2.052 . S
O95 C91 1.241 . S
O96 Co84 2.137 . S
O96 C87 1.247 . S
O97 Co84 2.244 . S
O97 C87 1.272 . S
O97 Co89 2.135 . S
Co98 O99 2.216 . S
Co98 O100 2.091 . S
Co98 O102 2.004 . S
Co98 O108 2.021 . S
Co98 O110 2.137 . S
Co98 O111 2.244 . S
O99 Co98 2.216 . S
O99 C106 1.247 . S
O100 Co98 2.091 . S
O100 C106 1.261 . S
C101 O110 1.247 . S
C101 O111 1.272 . S
O102 Co98 2.004 . S
O102 C107 1.259 . S
Co103 O104 2.061 . S
Co103 O109 2.052 . S
Co103 O111 2.135 . S
O104 Co103 2.061 . S
O104 C107 1.235 . S
C105 O108 1.238 . S
C105 O109 1.241 . S
C106 O99 1.247 . S
C106 O100 1.261 . S
C107 O102 1.259 . S
C107 O104 1.235 . S
O108 Co98 2.021 . S
O108 C105 1.238 . S
O109 Co103 2.052 . S
O109 C105 1.241 . S
O110 Co98 2.137 . S
O110 C101 1.247 . S
O111 Co98 2.244 . S
O111 C101 1.272 . S
O111 Co103 2.135 . S
C112 C113 1.387 1_556 S
C112 H116 0.950 . S
C112 C121 1.390 1_545 S
C113 C112 1.387 1_554 S
C113 C115 1.387 . S
H114 C121 0.950 . S
C115 C113 1.387 . S
C115 C117 1.390 1_545 S
C115 H119 0.950 . S
H116 C112 0.950 . S
C117 C115 1.390 1_565 S
C117 C118 1.387 . S
C117 H120 0.950 . S
C118 C117 1.387 . S
C118 C121 1.387 1_554 S
H119 C115 0.950 . S
H120 C117 0.950 . S
C121 C112 1.390 1_565 S
C121 H114 0.950 . S
C121 C118 1.387 1_556 S
C122 C123 1.387 . S
C122 H126 0.950 . S
C122 C131 1.390 . S
C123 C122 1.387 . S
C123 C125 1.387 . S
H124 C131 0.950 . S
C125 C123 1.387 . S
C125 C127 1.390 . S
C125 H129 0.950 . S
H126 C122 0.950 . S
C127 C125 1.390 . S
C127 C128 1.387 . S
C127 H130 0.950 . S
C128 C127 1.387 . S
C128 C131 1.387 . S
H129 C125 0.950 . S
H130 C127 0.950 . S
C131 C122 1.390 . S
C131 H124 0.950 . S
C131 C128 1.387 . S
C132 C133 1.387 1_554 S
C132 H136 0.950 . S
C132 C141 1.390 1_565 S
C133 C132 1.387 1_556 S
C133 C135 1.387 . S
H134 C141 0.950 . S
C135 C133 1.387 . S
C135 C137 1.390 1_565 S
C135 H139 0.950 . S
H136 C132 0.950 . S
C137 C135 1.390 1_545 S
C137 C138 1.387 . S
C137 H140 0.950 . S
C138 C137 1.387 . S
C138 C141 1.387 1_556 S
H139 C135 0.950 . S
H140 C137 0.950 . S
C141 C132 1.390 1_545 S
C141 H134 0.950 . S
C141 C138 1.387 1_554 S
C142 C143 1.387 . S
C142 H146 0.950 . S
C142 C151 1.390 . S
C143 C142 1.387 . S
C143 C145 1.387 . S
H144 C151 0.950 . S
C145 C143 1.387 . S
C145 C147 1.390 . S
C145 H149 0.950 . S
H146 C142 0.950 . S
C147 C145 1.390 . S
C147 C148 1.387 . S
C147 H150 0.950 . S
C148 C147 1.387 . S
C148 C151 1.387 . S
H149 C145 0.950 . S
H150 C147 0.950 . S
C151 C142 1.390 . S
C151 H144 0.950 . S
C151 C148 1.387 . S
C152 C153 1.387 . S
C152 H156 0.950 . S
C152 C161 1.390 . S
C153 C152 1.387 . S
C153 C155 1.387 . S
H154 C161 0.950 . S
C155 C153 1.387 . S
C155 C157 1.390 . S
C155 H159 0.950 . S
H156 C152 0.950 . S
C157 C155 1.390 . S
C157 C158 1.387 . S
C157 H160 0.950 . S
C158 C157 1.387 . S
C158 C161 1.387 . S
H159 C155 0.950 . S
H160 C157 0.950 . S
C161 C152 1.390 . S
C161 H154 0.950 . S
C161 C158 1.387 . S
C162 C163 1.387 . S
C162 H166 0.950 . S
C162 C171 1.390 . S
C163 C162 1.387 . S
C163 C165 1.387 . S
H164 C171 0.950 . S
C165 C163 1.387 . S
C165 C167 1.390 . S
C165 H169 0.950 . S
H166 C162 0.950 . S
C167 C165 1.390 . S
C167 C168 1.387 . S
C167 H170 0.950 . S
C168 C167 1.387 . S
C168 C171 1.387 . S
H169 C165 0.950 . S
H170 C167 0.950 . S
C171 C162 1.390 . S
C171 H164 0.950 . S
C171 C168 1.387 . S
C172 C173 1.387 . S
C172 H176 0.950 . S
C172 C181 1.390 . S
C173 C172 1.387 . S
C173 C175 1.387 . S
H174 C181 0.950 . S
C175 C173 1.387 . S
C175 C177 1.390 . S
C175 H179 0.950 . S
H176 C172 0.950 . S
C177 C175 1.390 . S
C177 C178 1.387 . S
C177 H180 0.950 . S
C178 C177 1.387 . S
C178 C181 1.387 . S
H179 C175 0.950 . S
H180 C177 0.950 . S
C181 C172 1.390 . S
C181 H174 0.950 . S
C181 C178 1.387 . S
C182 C183 1.387 . S
C182 H186 0.950 . S
C182 C191 1.390 . S
C183 C182 1.387 . S
C183 C185 1.387 . S
H184 C191 0.950 . S
C185 C183 1.387 . S
C185 C187 1.390 . S
C185 H189 0.950 . S
H186 C182 0.950 . S
C187 C185 1.390 . S
C187 C188 1.387 . S
C187 H190 0.950 . S
C188 C187 1.387 . S
C188 C191 1.387 . S
H189 C185 0.950 . S
H190 C187 0.950 . S
C191 C182 1.390 . S
C191 H184 0.950 . S
C191 C188 1.387 . S
C192 C193 1.387 1_554 S
C192 H196 0.950 . S
C192 C201 1.390 . S
C193 C192 1.387 1_556 S
C193 C195 1.387 . S
H194 C201 0.950 . S
C195 C193 1.387 . S
C195 C197 1.390 . S
C195 H199 0.950 . S
H196 C192 0.950 . S
C197 C195 1.390 . S
C197 C198 1.387 1_556 S
C197 H200 0.950 . S
C198 C197 1.387 1_554 S
C198 C201 1.387 . S
H199 C195 0.950 . S
H200 C197 0.950 . S
C201 C192 1.390 . S
C201 H194 0.950 . S
C201 C198 1.387 . S
C202 C203 1.387 1_554 S
C202 H206 0.950 . S
C202 C211 1.390 1_455 S
C203 C202 1.387 1_556 S
C203 C205 1.387 . S
H204 C211 0.950 . S
C205 C203 1.387 . S
C205 C207 1.390 1_455 S
C205 H209 0.950 . S
H206 C202 0.950 . S
C207 C205 1.390 1_655 S
C207 C208 1.387 1_556 S
C207 H210 0.950 . S
C208 C207 1.387 1_554 S
C208 C211 1.387 . S
H209 C205 0.950 . S
H210 C207 0.950 . S
C211 C202 1.390 1_655 S
C211 H204 0.950 . S
C211 C208 1.387 . S
C212 C213 1.387 . S
C212 H216 0.950 . S
C212 C221 1.390 1_565 S
C213 C212 1.387 . S
C213 C215 1.387 . S
H214 C221 0.950 . S
C215 C213 1.387 . S
C215 C217 1.390 1_565 S
C215 H219 0.950 . S
H216 C212 0.950 . S
C217 C215 1.390 1_545 S
C217 C218 1.387 . S
C217 H220 0.950 . S
C218 C217 1.387 . S
C218 C221 1.387 . S
H219 C215 0.950 . S
H220 C217 0.950 . S
C221 C212 1.390 1_545 S
C221 H214 0.950 . S
C221 C218 1.387 . S
C222 C223 1.387 . S
C222 H226 0.950 . S
C222 C231 1.390 1_645 S
C223 C222 1.387 . S
C223 C225 1.387 . S
H224 C231 0.950 . S
C225 C223 1.387 . S
C225 C227 1.390 1_645 S
C225 H229 0.950 . S
H226 C222 0.950 . S
C227 C225 1.390 1_465 S
C227 C228 1.387 . S
C227 H230 0.950 . S
C228 C227 1.387 . S
C228 C231 1.387 . S
H229 C225 0.950 . S
H230 C227 0.950 . S
C231 C222 1.390 1_465 S
C231 H224 0.950 . S
C231 C228 1.387 . S
C232 C233 1.387 . S
C232 H236 0.950 . S
C232 C241 1.390 . S
C233 C232 1.387 . S
C233 C235 1.387 1_554 S
H234 C241 0.950 . S
C235 C233 1.387 1_556 S
C235 C237 1.390 . S
C235 H239 0.950 . S
H236 C232 0.950 . S
C237 C235 1.390 . S
C237 C238 1.387 1_556 S
C237 H240 0.950 . S
C238 C237 1.387 1_554 S
C238 C241 1.387 . S
H239 C235 0.950 . S
H240 C237 0.950 . S
C241 C232 1.390 . S
C241 H234 0.950 . S
C241 C238 1.387 . S
C242 C243 1.387 . S
C242 H246 0.950 . S
C242 C251 1.390 1_545 S
C243 C242 1.387 . S
C243 C245 1.387 . S
H244 C251 0.950 . S
C245 C243 1.387 . S
C245 C247 1.390 1_545 S
C245 H249 0.950 . S
H246 C242 0.950 . S
C247 C245 1.390 1_565 S
C247 C248 1.387 . S
C247 H250 0.950 . S
C248 C247 1.387 . S
C248 C251 1.387 . S
H249 C245 0.950 . S
H250 C247 0.950 . S
C251 C242 1.390 1_565 S
C251 H244 0.950 . S
C251 C248 1.387 . S
C252 C253 1.387 1_554 S
C252 H256 0.950 . S
C252 C261 1.390 . S
C253 C252 1.387 1_556 S
C253 C255 1.387 . S
H254 C261 0.950 . S
C255 C253 1.387 . S
C255 C257 1.390 . S
C255 H259 0.950 . S
H256 C252 0.950 . S
C257 C255 1.390 . S
C257 C258 1.387 . S
C257 H260 0.950 . S
C258 C257 1.387 . S
C258 C261 1.387 1_556 S
H259 C255 0.950 . S
H260 C257 0.950 . S
C261 C252 1.390 . S
C261 H254 0.950 . S
C261 C258 1.387 1_554 S
C262 C263 1.387 . S
C262 H266 0.950 . S
C262 C271 1.390 1_565 S
C263 C262 1.387 . S
C263 C265 1.387 . S
H264 C271 0.950 . S
C265 C263 1.387 . S
C265 C267 1.390 1_565 S
C265 H269 0.950 . S
H266 C262 0.950 . S
C267 C265 1.390 1_545 S
C267 C268 1.387 . S
C267 H270 0.950 . S
C268 C267 1.387 . S
C268 C271 1.387 . S
H269 C265 0.950 . S
H270 C267 0.950 . S
C271 C262 1.390 1_545 S
C271 H264 0.950 . S
C271 C268 1.387 . S
C113 C9 1.542 . S
C118 C23 1.542 . S
C123 C51 1.545 . S
C128 C37 1.545 . S
C133 C65 1.545 . S
C138 C79 1.545 . S
C143 C93 1.545 . S
C148 C107 1.545 . S
C153 C3 1.670 . S
C158 C31 1.670 . S
C163 C45 1.669 . S
C168 C17 1.669 . S
C173 C59 1.669 . S
C178 C87 1.669 . S
C183 C101 1.669 . S
C188 C73 1.669 . S
C193 C8 1.539 1_556 S
C198 C64 1.539 1_554 S
C203 C22 1.539 1_556 S
C208 C78 1.539 1_554 S
C213 C92 1.539 . S
C218 C36 1.539 . S
C223 C106 1.541 . S
C228 C50 1.541 . S
C233 C21 1.153 . S
C238 C7 1.153 . S
C243 C35 1.155 . S
C248 C49 1.155 . S
C253 C63 1.153 . S
C258 C77 1.153 . S
C263 C91 1.155 . S
C268 C105 1.155 . S
