# Generated by pormake.
# Topology vbn, (6)-cn, num edge types: 1
# Building blocks:
#     Node 0, Type 0, BuildingBlock: IZENUY_clean_sbu_0, # of connection points: 6
#     Node 1, Type 0, BuildingBlock: IZENUY_clean_sbu_0, # of connection points: 6
#     Node 2, Type 0, BuildingBlock: IZENUY_clean_sbu_0, # of connection points: 6
#     Node 3, Type 0, BuildingBlock: IZENUY_clean_sbu_0, # of connection points: 6
#     Node 4, Type 0, BuildingBlock: IZENUY_clean_sbu_0, # of connection points: 6
#     Node 5, Type 0, BuildingBlock: IZENUY_clean_sbu_0, # of connection points: 6
#     Node 6, Type 0, BuildingBlock: IZENUY_clean_sbu_0, # of connection points: 6
#     Node 7, Type 0, BuildingBlock: IZENUY_clean_sbu_0, # of connection points: 6
#     Edge 8, Type (0, 0), BuildingBlock: UVAHIK_clean_linker_0, # of connection points: 2
#     Edge 9, Type (0, 0), BuildingBlock: UVAHIK_clean_linker_0, # of connection points: 2
#     Edge 10, Type (0, 0), BuildingBlock: UVAHIK_clean_linker_0, # of connection points: 2
#     Edge 11, Type (0, 0), BuildingBlock: UVAHIK_clean_linker_0, # of connection points: 2
#     Edge 12, Type (0, 0), BuildingBlock: UVAHIK_clean_linker_0, # of connection points: 2
#     Edge 13, Type (0, 0), BuildingBlock: UVAHIK_clean_linker_0, # of connection points: 2
#     Edge 14, Type (0, 0), BuildingBlock: UVAHIK_clean_linker_0, # of connection points: 2
#     Edge 15, Type (0, 0), BuildingBlock: UVAHIK_clean_linker_0, # of connection points: 2
#     Edge 16, Type (0, 0), BuildingBlock: UVAHIK_clean_linker_0, # of connection points: 2
#     Edge 17, Type (0, 0), BuildingBlock: UVAHIK_clean_linker_0, # of connection points: 2
#     Edge 18, Type (0, 0), BuildingBlock: UVAHIK_clean_linker_0, # of connection points: 2
#     Edge 19, Type (0, 0), BuildingBlock: UVAHIK_clean_linker_0, # of connection points: 2
#     Edge 20, Type (0, 0), BuildingBlock: UVAHIK_clean_linker_0, # of connection points: 2
#     Edge 21, Type (0, 0), BuildingBlock: UVAHIK_clean_linker_0, # of connection points: 2
#     Edge 22, Type (0, 0), BuildingBlock: UVAHIK_clean_linker_0, # of connection points: 2
#     Edge 23, Type (0, 0), BuildingBlock: UVAHIK_clean_linker_0, # of connection points: 2
#     Edge 24, Type (0, 0), BuildingBlock: UVAHIK_clean_linker_0, # of connection points: 2
#     Edge 25, Type (0, 0), BuildingBlock: UVAHIK_clean_linker_0, # of connection points: 2
#     Edge 26, Type (0, 0), BuildingBlock: UVAHIK_clean_linker_0, # of connection points: 2
#     Edge 27, Type (0, 0), BuildingBlock: UVAHIK_clean_linker_0, # of connection points: 2
#     Edge 28, Type (0, 0), BuildingBlock: UVAHIK_clean_linker_0, # of connection points: 2
#     Edge 29, Type (0, 0), BuildingBlock: UVAHIK_clean_linker_0, # of connection points: 2
#     Edge 30, Type (0, 0), BuildingBlock: UVAHIK_clean_linker_0, # of connection points: 2
#     Edge 31, Type (0, 0), BuildingBlock: UVAHIK_clean_linker_0, # of connection points: 2
# Relax obj value: 0.241
# Max RMSD: 0.242
# Mean RMSD: 0.242
data_MOF--net-vbn--node1-IZENUY_clean_sbu_0--edge1-UVAHIK_clean_linker_0
_symmetry_space_group_name_H-M    P1
_symmetry_Int_Tables_number       1
_symmetry_cell_setting            triclinic
loop_
_symmetry_equiv_pos_as_xyz
'x, y, z'
_cell_length_a     32.78762
_cell_length_b     36.06227
_cell_length_c     59.576703
_cell_angle_alpha  89.987588
_cell_angle_beta   89.984068
_cell_angle_gamma 90.01168
loop_
_atom_site_label
_atom_site_type_symbol
_atom_site_fract_x
_atom_site_fract_y
_atom_site_fract_z
_atom_type_partial_charge
Fe0 Fe 0.41523 0.334 0.40212 0.0
Fe1 Fe 0.38174 0.27903 0.43639 0.0
O2 O 0.37831 0.30086 0.40997 0.0
Fe3 Fe 0.33781 0.29005 0.39153 0.0
O4 O 0.32011 0.33734 0.3919 0.0
O5 O 0.37981 0.36246 0.38527 0.0
O6 O 0.40169 0.36326 0.42538 0.0
C7 C 0.40458 0.35357 0.44557 0.0
C8 C 0.40686 0.29693 0.3627 0.0
O9 O 0.40518 0.31942 0.45082 0.0
C10 C 0.35432 0.22118 0.40729 0.0
O11 O 0.45736 0.312 0.41802 0.0
O12 O 0.43084 0.25952 0.42951 0.0
O13 O 0.36838 0.29718 0.36562 0.0
O14 O 0.43051 0.30651 0.37831 0.0
C15 C 0.30008 0.29128 0.43465 0.0
O16 O 0.35871 0.23484 0.42682 0.0
O17 O 0.35292 0.24202 0.39034 0.0
C18 C 0.46168 0.2794 0.42577 0.0
O19 O 0.33307 0.29745 0.44476 0.0
O20 O 0.30017 0.28098 0.41422 0.0
C21 C 0.3414 0.36529 0.38716 0.0
Fe22 Fe 0.16556 0.2129 0.89113 0.0
Fe23 Fe 0.08833 0.16876 0.90201 0.0
O24 O 0.12549 0.20168 0.9098 0.0
Fe25 Fe 0.12273 0.22291 0.93642 0.0
O26 O 0.17152 0.20417 0.94425 0.0
O27 O 0.20374 0.2214 0.91362 0.0
O28 O 0.18322 0.16558 0.89096 0.0
C29 C 0.16178 0.13774 0.88621 0.0
C30 C 0.1496 0.28141 0.90763 0.0
O31 O 0.12331 0.14059 0.8847 0.0
C32 C 0.04255 0.22299 0.92636 0.0
O33 O 0.13435 0.20636 0.86539 0.0
O34 O 0.07256 0.19677 0.87854 0.0
O35 O 0.14565 0.26725 0.92705 0.0
O36 O 0.1505 0.26102 0.89047 0.0
C37 C 0.09988 0.14824 0.94522 0.0
O38 O 0.04659 0.19052 0.91836 0.0
O39 O 0.07353 0.24268 0.93007 0.0
C40 C 0.09579 0.20667 0.8628 0.0
O41 O 0.10232 0.13896 0.92495 0.0
O42 O 0.09951 0.18228 0.95071 0.0
C43 C 0.20428 0.21062 0.93396 0.0
Fe44 Fe 0.91482 0.16936 0.60561 0.0
Fe45 Fe 0.88145 0.22383 0.57105 0.0
O46 O 0.87799 0.20244 0.59761 0.0
Fe47 Fe 0.83749 0.21367 0.616 0.0
O48 O 0.81964 0.16636 0.61595 0.0
O49 O 0.87928 0.1411 0.62254 0.0
O50 O 0.90135 0.13981 0.58246 0.0
C51 C 0.90458 0.14925 0.56224 0.0
C52 C 0.90648 0.20693 0.64489 0.0
O53 O 0.905 0.18333 0.55685 0.0
C54 C 0.8542 0.28224 0.59974 0.0
O55 O 0.95704 0.1912 0.58966 0.0
O56 O 0.93054 0.24349 0.57783 0.0
O57 O 0.86801 0.20688 0.64195 0.0
O58 O 0.9301 0.19707 0.62932 0.0
C59 C 0.79981 0.21164 0.5729 0.0
O60 O 0.85838 0.26811 0.58033 0.0
O61 O 0.85273 0.26179 0.61687 0.0
C62 C 0.96137 0.22369 0.58171 0.0
O63 O 0.83279 0.2052 0.56282 0.0
O64 O 0.79993 0.22238 0.59325 0.0
C65 C 0.84083 0.13838 0.62073 0.0
Fe66 Fe 0.58836 0.33355 0.1054 0.0
Fe67 Fe 0.62252 0.27942 0.07088 0.0
O68 O 0.62535 0.30053 0.09753 0.0
Fe69 Fe 0.66536 0.2891 0.11615 0.0
O70 O 0.68325 0.3363 0.1163 0.0
O71 O 0.62354 0.36156 0.12269 0.0
O72 O 0.60244 0.36336 0.08247 0.0
C73 C 0.59987 0.35416 0.06219 0.0
C74 C 0.59573 0.29557 0.14458 0.0
O75 O 0.59934 0.32013 0.05666 0.0
C76 C 0.64923 0.22075 0.09959 0.0
O77 O 0.54651 0.31192 0.08906 0.0
O78 O 0.57329 0.25971 0.07726 0.0
O79 O 0.63427 0.29574 0.14194 0.0
O80 O 0.5725 0.30553 0.12886 0.0
C81 C 0.70409 0.29149 0.07333 0.0
O82 O 0.64541 0.23501 0.08018 0.0
O83 O 0.64998 0.24107 0.11678 0.0
C84 C 0.54237 0.27946 0.08104 0.0
O85 O 0.67136 0.29812 0.06306 0.0
O86 O 0.70346 0.2805 0.09363 0.0
C87 C 0.66202 0.36427 0.12104 0.0
Fe88 Fe 0.58916 0.66826 0.60606 0.0
Fe89 Fe 0.62016 0.7242 0.57174 0.0
O90 O 0.62477 0.70249 0.59815 0.0
Fe91 Fe 0.66505 0.71441 0.61651 0.0
O92 O 0.68422 0.66746 0.61623 0.0
O93 O 0.62535 0.64114 0.62312 0.0
O94 O 0.60392 0.6393 0.58285 0.0
C95 C 0.60011 0.64888 0.56267 0.0
C96 C 0.59606 0.70614 0.64527 0.0
O97 O 0.59813 0.68301 0.55744 0.0
C98 C 0.64653 0.78287 0.6006 0.0
O99 O 0.54634 0.68858 0.59005 0.0
O100 O 0.57024 0.7422 0.5788 0.0
O101 O 0.63459 0.70678 0.64247 0.0
O102 O 0.57284 0.69556 0.62969 0.0
C103 C 0.70233 0.7143 0.57319 0.0
O104 O 0.64178 0.76901 0.58116 0.0
O105 O 0.64868 0.7622 0.61761 0.0
C106 C 0.54041 0.72106 0.5825 0.0
O107 O 0.6694 0.70736 0.56318 0.0
O108 O 0.70225 0.72417 0.5937 0.0
C109 C 0.66375 0.63905 0.62106 0.0
Fe110 Fe 0.9164 0.83267 0.10652 0.0
Fe111 Fe 0.88192 0.77855 0.07204 0.0
O112 O 0.87877 0.80032 0.09848 0.0
Fe113 Fe 0.83779 0.79017 0.11677 0.0
O114 O 0.82112 0.83772 0.11632 0.0
O115 O 0.88127 0.86189 0.12314 0.0
O116 O 0.90406 0.86227 0.08321 0.0
C117 C 0.90669 0.85262 0.06301 0.0
C118 C 0.90642 0.79587 0.14593 0.0
O119 O 0.90641 0.81851 0.05769 0.0
C120 C 0.85312 0.7211 0.10103 0.0
O121 O 0.95827 0.80977 0.0908 0.0
O122 O 0.93042 0.75807 0.07899 0.0
O123 O 0.86803 0.79684 0.1428 0.0
O124 O 0.93057 0.80486 0.13041 0.0
C125 C 0.8006 0.79213 0.07355 0.0
O126 O 0.85785 0.73477 0.08152 0.0
O127 O 0.85194 0.7419 0.118 0.0
C128 C 0.96174 0.77725 0.08277 0.0
O129 O 0.83382 0.79797 0.06359 0.0
O130 O 0.80027 0.7817 0.09395 0.0
C131 C 0.8429 0.86531 0.12113 0.0
Fe132 Fe 0.09076 0.83478 0.40298 0.0
Fe133 Fe 0.1267 0.78127 0.43739 0.0
O134 O 0.12774 0.80153 0.41045 0.0
Fe135 Fe 0.16627 0.78904 0.39112 0.0
O136 O 0.18513 0.83598 0.39038 0.0
O137 O 0.12547 0.862 0.38494 0.0
O138 O 0.1064 0.86498 0.42542 0.0
C139 C 0.10504 0.85631 0.44582 0.0
C140 C 0.09534 0.79623 0.36388 0.0
O141 O 0.10503 0.82247 0.45169 0.0
C142 C 0.14991 0.72147 0.40861 0.0
O143 O 0.04964 0.81382 0.42018 0.0
O144 O 0.07671 0.76196 0.43248 0.0
O145 O 0.13396 0.79596 0.3659 0.0
O146 O 0.07313 0.80654 0.37996 0.0
C147 C 0.20812 0.79203 0.43282 0.0
O148 O 0.14814 0.73634 0.42795 0.0
O149 O 0.14968 0.74131 0.39119 0.0
C150 C 0.04575 0.78177 0.42884 0.0
O151 O 0.1765 0.79977 0.44384 0.0
O152 O 0.2055 0.77989 0.41286 0.0
C153 C 0.16406 0.86426 0.38604 0.0
Fe154 Fe 0.38493 0.72636 0.93686 0.0
Fe155 Fe 0.33887 0.71428 0.89266 0.0
O156 O 0.37975 0.70344 0.91085 0.0
Fe157 Fe 0.41563 0.66927 0.9031 0.0
O158 O 0.40195 0.64115 0.92686 0.0
O159 O 0.40767 0.68589 0.95162 0.0
O160 O 0.33609 0.70991 0.94624 0.0
C161 C 0.30296 0.71657 0.93639 0.0
C162 C 0.46436 0.72358 0.92544 0.0
O163 O 0.3022 0.72461 0.9156 0.0
C164 C 0.40708 0.70549 0.86339 0.0
O165 O 0.36279 0.77058 0.92693 0.0
O166 O 0.35466 0.76216 0.89068 0.0
O167 O 0.45885 0.69073 0.91838 0.0
O168 O 0.43422 0.74434 0.92897 0.0
C169 C 0.34075 0.63885 0.88913 0.0
O170 O 0.36864 0.70591 0.86657 0.0
O171 O 0.43089 0.6957 0.87889 0.0
C172 C 0.35729 0.78356 0.90733 0.0
O173 O 0.32026 0.66728 0.89382 0.0
O174 O 0.37913 0.64101 0.88683 0.0
C175 C 0.40591 0.65155 0.94687 0.0
C176 C 0.22773 0.90238 0.38454 0.0
C177 C 0.18488 0.90057 0.38375 0.0
C178 C 0.2477 0.93651 0.38573 0.0
C179 C 0.23552 0.03697 0.3765 0.0
H180 H 0.32276 0.04473 0.42029 0.0
C181 C 0.33589 0.16734 0.38279 0.0
C182 C 0.34238 0.18177 0.40444 0.0
C183 C 0.31905 0.13212 0.37987 0.0
C184 C 0.29839 0.04304 0.40806 0.0
H185 H 0.12953 0.93346 0.38279 0.0
H186 H 0.16455 0.99322 0.38473 0.0
H187 H 0.28736 0.98575 0.41524 0.0
H188 H 0.33805 0.16953 0.44002 0.0
H189 H 0.30877 0.1078 0.43487 0.0
H190 H 0.24614 0.09441 0.36956 0.0
C191 C 0.18262 0.96809 0.38435 0.0
C192 C 0.27837 0.00918 0.40499 0.0
C193 C 0.16255 0.93384 0.38321 0.0
C194 C 0.33351 0.1593 0.42311 0.0
C195 C 0.31673 0.12391 0.42017 0.0
C196 C 0.25571 0.07078 0.37947 0.0
C197 C 0.22538 0.96973 0.38612 0.0
C198 C 0.24672 0.00575 0.38918 0.0
C199 C 0.30842 0.11032 0.3985 0.0
C200 C 0.28738 0.0742 0.39528 0.0
H201 H 0.24598 0.87735 0.38491 0.0
H202 H 0.28069 0.93685 0.38664 0.0
H203 H 0.21141 0.03519 0.36413 0.0
H204 H 0.34268 0.18369 0.368 0.0
H205 H 0.31382 0.12214 0.36296 0.0
C206 C 0.17075 0.34276 0.924 0.0
C207 C 0.16161 0.32088 0.90512 0.0
C208 C 0.18748 0.37824 0.92139 0.0
C209 C 0.24754 0.43303 0.88093 0.0
H210 H 0.21748 0.51621 0.91864 0.0
C211 C 0.34153 0.5693 0.8857 0.0
C212 C 0.31951 0.60266 0.88725 0.0
C213 C 0.32128 0.53512 0.88665 0.0
C214 C 0.22602 0.49333 0.90785 0.0
H215 H 0.16084 0.3201 0.86867 0.0
H216 H 0.18956 0.38187 0.86421 0.0
H217 H 0.18195 0.45716 0.92289 0.0
H218 H 0.25873 0.62614 0.89017 0.0
H219 H 0.22369 0.56678 0.89153 0.0
H220 H 0.29143 0.46927 0.86579 0.0
C221 C 0.1846 0.37134 0.88102 0.0
C222 C 0.20593 0.45939 0.91045 0.0
C223 C 0.16783 0.33599 0.88361 0.0
C224 C 0.27675 0.60104 0.88901 0.0
C225 C 0.2566 0.56697 0.88998 0.0
C226 C 0.26776 0.46692 0.87839 0.0
C227 C 0.19546 0.39256 0.89986 0.0
C228 C 0.21639 0.42886 0.897 0.0
C229 C 0.27864 0.53361 0.88922 0.0
C230 C 0.25719 0.4975 0.89179 0.0
H231 H 0.16643 0.33201 0.94081 0.0
H232 H 0.19565 0.39384 0.93626 0.0
H233 H 0.25672 0.4099 0.87049 0.0
H234 H 0.37449 0.56954 0.8845 0.0
H235 H 0.33918 0.5099 0.88616 0.0
C236 C 0.72764 0.60106 0.62307 0.0
C237 C 0.68477 0.6028 0.62308 0.0
C238 C 0.74772 0.56693 0.62201 0.0
C239 C 0.73227 0.4716 0.60211 0.0
H240 H 0.83064 0.45057 0.63593 0.0
C241 C 0.83086 0.34285 0.58339 0.0
C242 C 0.84261 0.3218 0.60218 0.0
C243 C 0.81435 0.37835 0.58612 0.0
C244 C 0.80315 0.45599 0.62641 0.0
H245 H 0.62944 0.56982 0.62264 0.0
H246 H 0.66458 0.51018 0.62093 0.0
H247 H 0.79454 0.509 0.64196 0.0
H248 H 0.84823 0.32245 0.63848 0.0
H249 H 0.81961 0.38425 0.64317 0.0
H250 H 0.74055 0.41849 0.58675 0.0
C251 C 0.6826 0.53534 0.62156 0.0
C252 C 0.78262 0.48955 0.62976 0.0
C253 C 0.66247 0.5695 0.62277 0.0
C254 C 0.83936 0.33782 0.62364 0.0
C255 C 0.82309 0.37336 0.62634 0.0
C256 C 0.75291 0.43816 0.59868 0.0
C257 C 0.72545 0.53371 0.62078 0.0
C258 C 0.74686 0.4977 0.61769 0.0
C259 C 0.80951 0.3937 0.60767 0.0
C260 C 0.78857 0.42993 0.6108 0.0
H261 H 0.74579 0.62617 0.62324 0.0
H262 H 0.78073 0.56669 0.62127 0.0
H263 H 0.70512 0.47721 0.59233 0.0
H264 H 0.83295 0.33141 0.56662 0.0
H265 H 0.80476 0.39359 0.57137 0.0
C266 C 0.6743 0.16057 0.08338 0.0
C267 C 0.66175 0.18144 0.10208 0.0
C268 C 0.69196 0.12554 0.08625 0.0
C269 C 0.7055 0.04906 0.1273 0.0
H270 H 0.80242 0.0278 0.09226 0.0
C271 C 0.78028 0.9044 0.12451 0.0
C272 C 0.82305 0.90203 0.12341 0.0
C273 C 0.76068 0.93871 0.12352 0.0
C274 C 0.77566 0.03348 0.10236 0.0
H275 H 0.65598 0.18092 0.13838 0.0
H276 H 0.68672 0.12015 0.14334 0.0
H277 H 0.76609 0.08604 0.0865 0.0
H278 H 0.87884 0.93409 0.12108 0.0
H279 H 0.84451 0.99428 0.11961 0.0
H280 H 0.71543 0.99678 0.14341 0.0
C281 C 0.68292 0.13071 0.12645 0.0
C282 C 0.75445 0.06661 0.0988 0.0
C283 C 0.6654 0.16569 0.12359 0.0
C284 C 0.84587 0.93496 0.12211 0.0
C285 C 0.82618 0.9694 0.12101 0.0
C286 C 0.72667 0.01592 0.13083 0.0
C287 C 0.69724 0.11055 0.10787 0.0
C288 C 0.71907 0.07478 0.1112 0.0
C289 C 0.78331 0.97159 0.12132 0.0
C290 C 0.76196 0.00767 0.11837 0.0
H291 H 0.67194 0.17183 0.06657 0.0
H292 H 0.70203 0.11043 0.07156 0.0
H293 H 0.67824 0.05436 0.13705 0.0
H294 H 0.76171 0.8796 0.12547 0.0
H295 H 0.72766 0.93929 0.12357 0.0
C296 C 0.8427 0.06872 0.62197 0.0
C297 C 0.82033 0.10192 0.62311 0.0
C298 C 0.82259 0.03448 0.62102 0.0
C299 C 0.72295 0.98857 0.63122 0.0
H300 H 0.76143 0.91819 0.58681 0.0
C301 C 0.66277 0.83797 0.62464 0.0
C302 C 0.65841 0.82237 0.60312 0.0
C303 C 0.67989 0.87318 0.62738 0.0
C304 C 0.75006 0.93768 0.59914 0.0
H305 H 0.75929 0.12501 0.62505 0.0
H306 H 0.72445 0.06554 0.6235 0.0
H307 H 0.7979 0.97645 0.59222 0.0
H308 H 0.66691 0.8325 0.56753 0.0
H309 H 0.69644 0.89416 0.57234 0.0
H310 H 0.67477 0.94998 0.63792 0.0
C311 C 0.75748 0.06584 0.62341 0.0
C312 C 0.77134 0.97084 0.60248 0.0
C313 C 0.77752 0.1 0.62421 0.0
C314 C 0.66982 0.84361 0.58434 0.0
C315 C 0.68714 0.87881 0.58711 0.0
C316 C 0.70176 0.95532 0.62795 0.0
C317 C 0.7797 0.0327 0.62135 0.0
C318 C 0.75801 0.99673 0.61853 0.0
C319 C 0.6932 0.89366 0.60869 0.0
C320 C 0.71499 0.92951 0.61182 0.0
H321 H 0.87569 0.06922 0.62096 0.0
H322 H 0.84061 0.00941 0.61973 0.0
H323 H 0.712 0.00781 0.64381 0.0
H324 H 0.65424 0.82245 0.63949 0.0
H325 H 0.68428 0.88366 0.64425 0.0
C326 C 0.83338 0.66747 0.12541 0.0
C327 C 0.8406 0.68184 0.1038 0.0
C328 C 0.81622 0.63235 0.12821 0.0
C329 C 0.79616 0.54336 0.09985 0.0
H330 H 0.70815 0.53543 0.14318 0.0
C331 C 0.72542 0.40265 0.12287 0.0
C332 C 0.68257 0.40067 0.12341 0.0
C333 C 0.74525 0.43683 0.12183 0.0
C334 C 0.73254 0.53725 0.13096 0.0
H335 H 0.83715 0.66961 0.0682 0.0
H336 H 0.80731 0.60806 0.07313 0.0
H337 H 0.74298 0.59469 0.13798 0.0
H338 H 0.62704 0.43332 0.12409 0.0
H339 H 0.66184 0.49324 0.12238 0.0
H340 H 0.78534 0.48609 0.09259 0.0
C341 C 0.81495 0.62414 0.0879 0.0
C342 C 0.75278 0.57106 0.12814 0.0
C343 C 0.83205 0.65942 0.08507 0.0
C344 C 0.66007 0.43385 0.12385 0.0
C345 C 0.68001 0.46818 0.12285 0.0
C346 C 0.77608 0.5095 0.10277 0.0
C347 C 0.806 0.61059 0.1095 0.0
C348 C 0.78484 0.57449 0.11256 0.0
C349 C 0.7228 0.46997 0.12132 0.0
C350 C 0.74407 0.50604 0.11837 0.0
H351 H 0.8399 0.68378 0.14025 0.0
H352 H 0.81048 0.62239 0.14507 0.0
H353 H 0.82083 0.54506 0.0878 0.0
H354 H 0.7438 0.37769 0.12261 0.0
H355 H 0.77826 0.4373 0.12112 0.0
C356 C 0.34369 0.43488 0.38542 0.0
C357 C 0.32105 0.40179 0.38493 0.0
C358 C 0.32386 0.46923 0.38651 0.0
C359 C 0.22361 0.51514 0.37819 0.0
H360 H 0.26594 0.58656 0.42089 0.0
C361 C 0.16368 0.66552 0.38489 0.0
C362 C 0.16164 0.68194 0.40629 0.0
C363 C 0.18059 0.63028 0.38209 0.0
C364 C 0.25348 0.56677 0.40906 0.0
H365 H 0.25977 0.37897 0.3843 0.0
H366 H 0.22544 0.43857 0.38619 0.0
H367 H 0.30179 0.52813 0.41511 0.0
H368 H 0.17397 0.67324 0.44168 0.0
H369 H 0.20297 0.61143 0.43679 0.0
H370 H 0.17487 0.5535 0.37247 0.0
C371 C 0.25845 0.43813 0.38562 0.0
C372 C 0.2744 0.53352 0.40548 0.0
C373 C 0.27821 0.4039 0.38462 0.0
C374 C 0.17509 0.66148 0.42496 0.0
C375 C 0.19212 0.6262 0.42214 0.0
C376 C 0.20272 0.54843 0.38175 0.0
C377 C 0.28099 0.47118 0.38701 0.0
C378 C 0.25969 0.50726 0.39004 0.0
C379 C 0.19589 0.61055 0.4006 0.0
C380 C 0.21735 0.57462 0.39726 0.0
H381 H 0.37672 0.43425 0.3858 0.0
H382 H 0.3421 0.49423 0.38726 0.0
H383 H 0.21158 0.49563 0.36607 0.0
H384 H 0.15352 0.68043 0.37013 0.0
H385 H 0.18322 0.61919 0.36526 0.0
C386 C 0.22481 0.09932 0.88186 0.0
C387 C 0.18207 0.10128 0.88355 0.0
C388 C 0.24483 0.06517 0.88253 0.0
C389 C 0.23181 0.9708 0.90439 0.0
H390 H 0.32692 0.94908 0.86797 0.0
C391 C 0.33468 0.84488 0.92294 0.0
C392 C 0.34521 0.82289 0.90434 0.0
C393 C 0.31713 0.87989 0.91988 0.0
C394 C 0.30033 0.95467 0.87821 0.0
H395 H 0.12676 0.06867 0.88655 0.0
H396 H 0.16181 0.00884 0.88755 0.0
H397 H 0.28927 0.00664 0.86189 0.0
H398 H 0.34766 0.82142 0.86793 0.0
H399 H 0.31723 0.88237 0.86266 0.0
H400 H 0.24256 0.91871 0.92056 0.0
C401 C 0.17979 0.03389 0.88589 0.0
C402 C 0.27891 0.98775 0.87482 0.0
C403 C 0.15968 0.06813 0.88508 0.0
C404 C 0.3398 0.83755 0.88265 0.0
C405 C 0.32246 0.87259 0.87961 0.0
C406 C 0.25332 0.93783 0.90784 0.0
C407 C 0.22264 0.0321 0.88503 0.0
C408 C 0.24441 0.99621 0.88789 0.0
C409 C 0.30999 0.89379 0.89817 0.0
C410 C 0.28788 0.92939 0.89483 0.0
H411 H 0.24302 0.12432 0.8807 0.0
H412 H 0.27784 0.06484 0.88202 0.0
H413 H 0.20568 0.97668 0.91493 0.0
H414 H 0.33842 0.8345 0.93988 0.0
H415 H 0.3085 0.89584 0.93454 0.0
C416 C 0.44504 0.37465 0.47886 0.0
C417 C 0.41698 0.38245 0.46171 0.0
C418 C 0.46399 0.40365 0.49052 0.0
C419 C 0.49173 0.50158 0.48164 0.0
H420 H 0.52022 0.49956 0.54473 0.0
C421 C 0.55934 0.62738 0.52961 0.0
C422 C 0.58761 0.61976 0.5467 0.0
C423 C 0.54038 0.59827 0.51807 0.0
C424 C 0.51298 0.5003 0.527 0.0
H425 H 0.38405 0.42623 0.44456 0.0
H426 H 0.41612 0.47659 0.46527 0.0
H427 H 0.48016 0.44902 0.52883 0.0
H428 H 0.62075 0.57616 0.56388 0.0
H429 H 0.5886 0.52559 0.54338 0.0
H430 H 0.52453 0.55285 0.47981 0.0
C431 C 0.42455 0.44832 0.46929 0.0
C432 C 0.48989 0.47138 0.51793 0.0
C433 C 0.40588 0.41947 0.4576 0.0
C434 C 0.5988 0.58279 0.55088 0.0
C435 C 0.58008 0.55382 0.53932 0.0
C436 C 0.5148 0.53049 0.49071 0.0
C437 C 0.45496 0.44083 0.48525 0.0
C438 C 0.47891 0.47173 0.49516 0.0
C439 C 0.54957 0.56115 0.52338 0.0
C440 C 0.52575 0.53016 0.51348 0.0
H441 H 0.45444 0.34638 0.4822 0.0
H442 H 0.48735 0.39697 0.5027 0.0
H443 H 0.4845 0.50232 0.46391 0.0
H444 H 0.54981 0.65559 0.52621 0.0
H445 H 0.51691 0.60484 0.50592 0.0
C446 C 0.90918 0.91864 0.05122 0.0
C447 C 0.91914 0.88144 0.04683 0.0
C448 C 0.92765 0.94722 0.0392 0.0
C449 C 0.02288 0.96664 0.00944 0.0
H450 H 0.96856 0.05833 0.99324 0.0
C451 C 0.09788 0.08198 0.95661 0.0
C452 C 0.0878 0.11907 0.96126 0.0
C453 C 0.07952 0.05312 0.96845 0.0
C454 C 0.98428 0.03311 0.99801 0.0
H455 H 0.95436 0.84482 0.02549 0.0
H456 H 0.98652 0.89503 0.00415 0.0
H457 H 0.92872 0.00676 0.00808 0.0
H458 H 0.05253 0.15518 0.98289 0.0
H459 H 0.0206 0.10453 1.00391 0.0
H460 H 0.07844 0.99302 0.99935 0.0
C461 C 0.96473 0.90198 0.01715 0.0
C462 C 0.9614 0.00347 0.00635 0.0
C463 C 0.94596 0.87324 0.02914 0.0
C464 C 0.06103 0.12686 0.97905 0.0
C465 C 0.04238 0.09787 0.99085 0.0
C466 C 0.04575 0.99628 1.00108 0.0
C467 C 0.95666 0.93929 0.02254 0.0
C468 C 0.98044 0.96991 0.0122 0.0
C469 C 0.05051 0.06068 0.98518 0.0
C470 C 0.02672 0.02988 0.9953 0.0
H471 H 0.88851 0.92574 0.06476 0.0
H472 H 0.92088 0.97558 0.04388 0.0
H473 H 0.0386 0.94144 0.01423 0.0
H474 H 0.1185 0.07519 0.94299 0.0
H475 H 0.08635 0.02486 0.96359 0.0
C476 C 0.9086 0.08307 0.55089 0.0
C477 C 0.91791 0.12035 0.54633 0.0
C478 C 0.9283 0.05463 0.53936 0.0
C479 C 0.99263 0.03242 0.49029 0.0
H480 H 0.03307 0.95401 0.52899 0.0
C481 C 0.10287 0.92285 0.45656 0.0
C482 C 0.09331 0.88582 0.46168 0.0
C483 C 0.0843 0.95185 0.46817 0.0
C484 C 0.02174 0.97551 0.51794 0.0
H485 H 0.95318 0.1572 0.52513 0.0
H486 H 0.98777 0.10732 0.50485 0.0
H487 H 0.99159 0.00363 0.54482 0.0
H488 H 0.05883 0.84999 0.48389 0.0
H489 H 0.02609 0.90076 0.50419 0.0
H490 H 0.02257 0.00421 0.46338 0.0
C491 C 0.96508 0.10013 0.51733 0.0
C492 C 0.99786 0.00389 0.52697 0.0
C493 C 0.94516 0.12871 0.52885 0.0
C494 C 0.06704 0.87827 0.47973 0.0
C495 C 0.04819 0.90739 0.49129 0.0
C496 C 0.01646 0.004 0.48125 0.0
C497 C 0.9579 0.06282 0.52306 0.0
C498 C 0.98291 0.03259 0.51323 0.0
C499 C 0.05553 0.94447 0.48507 0.0
C500 C 0.0313 0.9752 0.49497 0.0
H501 H 0.88742 0.07584 0.56416 0.0
H502 H 0.92133 0.02617 0.54374 0.0
H503 H 0.98126 0.05393 0.47925 0.0
H504 H 0.1233 0.92943 0.44282 0.0
H505 H 0.09144 0.98009 0.46338 0.0
C506 C 0.44675 0.631 0.98017 0.0
C507 C 0.41832 0.62298 0.96324 0.0
C508 C 0.46561 0.60214 0.992 0.0
C509 C 0.46071 0.50077 1.00354 0.0
H510 H 0.57833 0.50939 0.00801 0.0
C511 C 0.55983 0.37597 0.02893 0.0
C512 C 0.58767 0.38342 0.04625 0.0
C513 C 0.54103 0.40521 0.01743 0.0
C514 C 0.54549 0.50663 0.00697 0.0
H515 H 0.38495 0.57897 0.94657 0.0
H516 H 0.41753 0.52894 0.96713 0.0
H517 H 0.53852 0.56145 0.99377 0.0
H518 H 0.62005 0.42687 0.064 0.0
H519 H 0.58771 0.47764 0.04387 0.0
H520 H 0.46772 0.44588 0.01664 0.0
C521 C 0.42547 0.55724 0.97137 0.0
C522 C 0.52263 0.53657 0.99899 0.0
C523 C 0.40685 0.58594 0.95953 0.0
C524 C 0.59863 0.42036 0.05071 0.0
C525 C 0.58015 0.44946 0.03915 0.0
C526 C 0.48357 0.47082 0.01146 0.0
C527 C 0.45609 0.56489 0.98719 0.0
C528 C 0.47997 0.53398 0.99716 0.0
C529 C 0.55009 0.44228 0.02294 0.0
C530 C 0.52622 0.47339 0.01324 0.0
H531 H 0.45635 0.65928 0.98327 0.0
H532 H 0.48863 0.60893 0.00437 0.0
H533 H 0.42787 0.49798 1.00254 0.0
H534 H 0.55061 0.34776 0.02526 0.0
H535 H 0.51839 0.39884 0.00477 0.0
C536 C 0.60081 0.28712 0.18658 0.0
C537 C 0.57713 0.28845 0.16692 0.0
C538 C 0.58207 0.28377 0.20767 0.0
C539 C 0.48294 0.30138 0.23557 0.0
H540 H 0.52844 0.24274 0.28398 0.0
C541 C 0.40014 0.28648 0.32096 0.0
C542 C 0.42476 0.28994 0.34016 0.0
C543 C 0.41786 0.28263 0.29965 0.0
C544 C 0.51546 0.25945 0.27067 0.0
H545 H 0.51526 0.28532 0.15404 0.0
H546 H 0.483 0.27904 0.1905 0.0
H547 H 0.56191 0.24308 0.24735 0.0
H548 H 0.48744 0.29075 0.35197 0.0
H549 H 0.518 0.28446 0.31508 0.0
H550 H 0.43684 0.31817 0.25888 0.0
C551 C 0.5159 0.28151 0.18978 0.0
C552 C 0.53472 0.25968 0.24968 0.0
C553 C 0.53451 0.28492 0.16881 0.0
C554 C 0.46742 0.28832 0.33759 0.0
C555 C 0.48505 0.2844 0.31638 0.0
C556 C 0.46373 0.30116 0.25653 0.0
C557 C 0.53928 0.2816 0.20953 0.0
C558 C 0.51876 0.28074 0.23187 0.0
C559 C 0.46059 0.28197 0.29708 0.0
C560 C 0.47982 0.28037 0.27441 0.0
H561 H 0.63368 0.28978 0.18574 0.0
H562 H 0.60102 0.28411 0.22255 0.0
H563 H 0.47016 0.31846 0.22238 0.0
H564 H 0.36722 0.28748 0.32231 0.0
H565 H 0.39809 0.28034 0.28516 0.0
C566 C 0.10079 0.21532 0.8208 0.0
C567 C 0.07716 0.21393 0.84048 0.0
C568 C 0.08199 0.21887 0.79974 0.0
C569 C 0.98271 0.20177 0.7719 0.0
H570 H 0.02829 0.2607 0.72363 0.0
C571 C 0.8998 0.2174 0.68663 0.0
C572 C 0.9244 0.21397 0.66741 0.0
C573 C 0.91756 0.22114 0.70793 0.0
C574 C 0.01528 0.24391 0.7369 0.0
H575 H 0.01533 0.21713 0.85345 0.0
H576 H 0.98299 0.22373 0.81704 0.0
H577 H 0.06186 0.25996 0.76022 0.0
H578 H 0.98706 0.21316 0.65556 0.0
H579 H 0.01767 0.21926 0.69243 0.0
H580 H 0.93649 0.1853 0.7486 0.0
C581 C 0.01588 0.22117 0.81772 0.0
C582 C 0.0346 0.24345 0.75787 0.0
C583 C 0.03455 0.21757 0.83865 0.0
C584 C 0.96706 0.21556 0.66996 0.0
C585 C 0.98472 0.21937 0.69115 0.0
C586 C 0.96344 0.20221 0.75097 0.0
C587 C 0.03921 0.22116 0.79794 0.0
C588 C 0.01863 0.22227 0.77562 0.0
C589 C 0.96029 0.22172 0.71047 0.0
C590 C 0.97956 0.22312 0.73314 0.0
H591 H 0.13365 0.21258 0.8216 0.0
H592 H 0.1009 0.21858 0.78483 0.0
H593 H 0.96991 0.1846 0.78505 0.0
H594 H 0.86688 0.21641 0.6853 0.0
H595 H 0.8978 0.22337 0.72244 0.0
C596 C 0.40008 0.71547 0.82159 0.0
C597 C 0.42478 0.7122 0.84077 0.0
C598 C 0.41776 0.71921 0.80025 0.0
C599 C 0.51529 0.7426 0.77123 0.0
H600 H 0.47048 0.68304 0.72306 0.0
C601 C 0.60113 0.71474 0.68729 0.0
C602 C 0.57748 0.71321 0.66763 0.0
C603 C 0.58232 0.7181 0.70837 0.0
C604 C 0.48313 0.70027 0.73622 0.0
H605 H 0.48752 0.71163 0.85252 0.0
H606 H 0.51794 0.71774 0.81561 0.0
H607 H 0.43695 0.68352 0.75951 0.0
H608 H 0.5156 0.71604 0.65471 0.0
H609 H 0.48326 0.72233 0.69113 0.0
H610 H 0.56181 0.75895 0.74793 0.0
C611 C 0.48499 0.71771 0.81693 0.0
C612 C 0.46379 0.70059 0.75714 0.0
C613 C 0.46743 0.71389 0.83815 0.0
C614 C 0.53484 0.71656 0.66949 0.0
C615 C 0.51617 0.71999 0.69043 0.0
C616 C 0.53467 0.74227 0.75027 0.0
C617 C 0.46048 0.72 0.79765 0.0
C618 C 0.47972 0.72158 0.77498 0.0
C619 C 0.53951 0.72008 0.71019 0.0
C620 C 0.5189 0.721 0.73251 0.0
H621 H 0.36717 0.7144 0.82299 0.0
H622 H 0.39794 0.72135 0.78577 0.0
H623 H 0.52815 0.75946 0.7845 0.0
H624 H 0.63401 0.71223 0.68646 0.0
H625 H 0.60124 0.71792 0.72326 0.0
C626 C 0.89864 0.78688 0.18772 0.0
C627 C 0.92369 0.78885 0.1686 0.0
C628 C 0.91586 0.78316 0.20916 0.0
C629 C 0.01182 0.75749 0.23886 0.0
H630 H 0.96922 0.82056 0.28601 0.0
C631 C 0.09893 0.78591 0.32204 0.0
C632 C 0.07573 0.78928 0.34178 0.0
C633 C 0.07968 0.78232 0.30113 0.0
C634 C 0.98119 0.80233 0.27315 0.0
H635 H 0.98651 0.78709 0.15706 0.0
H636 H 0.01623 0.78095 0.19417 0.0
H637 H 0.93604 0.81979 0.24947 0.0
H638 H 0.01402 0.7898 0.35503 0.0
H639 H 0.98078 0.78308 0.31883 0.0
H640 H 0.05732 0.7404 0.26253 0.0
C641 C 0.98332 0.78201 0.19271 0.0
C642 C 0.96207 0.80186 0.25217 0.0
C643 C 0.96619 0.78583 0.17138 0.0
C644 C 0.03294 0.78772 0.34018 0.0
C645 C 0.01378 0.78407 0.31936 0.0
C646 C 0.03096 0.75794 0.25987 0.0
C647 C 0.95848 0.7811 0.21192 0.0
C648 C 0.9773 0.77966 0.23469 0.0
C649 C 0.03682 0.78193 0.29951 0.0
C650 C 0.01603 0.78054 0.27726 0.0
H651 H 0.86581 0.78901 0.1862 0.0
H652 H 0.8958 0.78209 0.22358 0.0
H653 H 0.02406 0.73967 0.22587 0.0
H654 H 0.13193 0.78702 0.32264 0.0
H655 H 0.0984 0.781 0.28617 0.0
C656 C 0.53197 0.29446 0.43983 0.0
C657 C 0.50078 0.26832 0.43634 0.0
C658 C 0.56508 0.28608 0.45377 0.0
C659 C 0.61869 0.2085 0.48255 0.0
H660 H 0.65164 0.28582 0.52399 0.0
C661 C 0.76211 0.19661 0.53769 0.0
C662 C 0.762 0.21241 0.55928 0.0
C663 C 0.72892 0.20109 0.52334 0.0
C664 C 0.64245 0.26377 0.51274 0.0
H665 H 0.48143 0.21201 0.44362 0.0
H666 H 0.53873 0.19761 0.4679 0.0
H667 H 0.59867 0.29844 0.49635 0.0
H668 H 0.72596 0.24395 0.58307 0.0
H669 H 0.66734 0.25133 0.55799 0.0
H670 H 0.66171 0.17356 0.49929 0.0
C671 C 0.53783 0.22454 0.45988 0.0
C672 C 0.61257 0.2712 0.4966 0.0
C673 C 0.50482 0.23287 0.44596 0.0
C674 C 0.72701 0.23145 0.56655 0.0
C675 C 0.69363 0.23599 0.55209 0.0
C676 C 0.64845 0.20104 0.49872 0.0
C677 C 0.56778 0.25138 0.46448 0.0
C678 C 0.60043 0.24371 0.48123 0.0
C679 C 0.69454 0.22141 0.53015 0.0
C680 C 0.6609 0.22863 0.51394 0.0
H681 H 0.52988 0.32202 0.4327 0.0
H682 H 0.58809 0.30713 0.45656 0.0
H683 H 0.61029 0.18672 0.47093 0.0
H684 H 0.78847 0.1816 0.53156 0.0
H685 H 0.73097 0.1898 0.50653 0.0
C686 C 0.97222 0.20816 0.9405 0.0
C687 C 0.00362 0.23413 0.93712 0.0
C688 C 0.93918 0.21659 0.9545 0.0
C689 C 0.88633 0.2943 0.98361 0.0
H690 H 0.852 0.21669 0.02454 0.0
C691 C 0.7426 0.30698 0.03846 0.0
C692 C 0.74216 0.29069 0.05991 0.0
C693 C 0.77591 0.30239 0.02419 0.0
C694 C 0.86158 0.23882 0.01344 0.0
H695 H 0.02349 0.29018 0.94468 0.0
H696 H 0.96637 0.30465 0.96907 0.0
H697 H 0.90502 0.20393 0.99693 0.0
H698 H 0.77737 0.25818 0.08359 0.0
H699 H 0.83624 0.25063 0.05868 0.0
H700 H 0.84368 0.32947 1.00047 0.0
C701 C 0.96701 0.27782 0.96092 0.0
C702 C 0.89149 0.23131 0.99732 0.0
C703 C 0.99993 0.26944 0.94693 0.0
C704 C 0.77676 0.27108 0.06717 0.0
C705 C 0.81027 0.26644 0.0528 0.0
C706 C 0.85656 0.30184 0.99977 0.0
C707 C 0.93678 0.25117 0.96538 0.0
C708 C 0.90412 0.25891 0.98213 0.0
C709 C 0.80988 0.28148 0.03097 0.0
C710 C 0.8436 0.27414 0.01481 0.0
H711 H 0.97404 0.1807 0.93322 0.0
H712 H 0.91597 0.19568 0.95718 0.0
H713 H 0.89509 0.31618 0.97213 0.0
H714 H 0.71655 0.32244 0.03233 0.0
H715 H 0.77424 0.31406 0.00746 0.0
C716 C 0.00469 0.27011 0.5615 0.0
C717 C 1.00051 0.23466 0.5711 0.0
C718 C 0.03773 0.27837 0.54757 0.0
C719 C 0.11236 0.23164 0.51078 0.0
H720 H 0.16196 0.32913 0.50831 0.0
C721 C 0.2272 0.27152 0.44094 0.0
C722 C 0.26224 0.29042 0.44827 0.0
C723 C 0.19378 0.26694 0.45539 0.0
C724 C 0.14857 0.30169 0.50882 0.0
H725 H 0.02936 0.18084 0.57466 0.0
H726 H 0.08761 0.1956 0.55077 0.0
H727 H 0.11038 0.316 0.53661 0.0
H728 H 0.28877 0.32093 0.4761 0.0
H729 H 0.2312 0.31267 0.50109 0.0
H730 H 0.15145 0.21704 0.48338 0.0
C731 C 0.0647 0.21672 0.5536 0.0
C732 C 0.11872 0.29425 0.52495 0.0
C733 C 0.03157 0.20842 0.56756 0.0
C734 C 0.26237 0.30603 0.46991 0.0
C735 C 0.22913 0.30151 0.48425 0.0
C736 C 0.14233 0.23906 0.49467 0.0
C737 C 0.06757 0.25146 0.54293 0.0
C738 C 0.10029 0.2591 0.5262 0.0
C739 C 0.19469 0.28135 0.47737 0.0
C740 C 0.16095 0.27414 0.49355 0.0
H741 H 0.98139 0.29104 0.56389 0.0
H742 H 0.03874 0.30533 0.53959 0.0
H743 H 0.09834 0.20445 0.51098 0.0
H744 H 0.22613 0.25917 0.42439 0.0
H745 H 0.16744 0.25171 0.44944 0.0
C746 C 0.47217 0.29448 0.0668 0.0
C747 C 0.5034 0.2684 0.07031 0.0
C748 C 0.43914 0.28606 0.05281 0.0
C749 C 0.386 0.20825 0.02392 0.0
H750 H 0.35222 0.28557 0.98268 0.0
C751 C 0.24263 0.19533 0.9689 0.0
C752 C 0.24232 0.21144 0.9474 0.0
C753 C 0.27586 0.2 0.9832 0.0
C754 C 0.36166 0.26351 0.99386 0.0
H755 H 0.52295 0.21218 0.06299 0.0
H756 H 0.46586 0.19772 0.0386 0.0
H757 H 0.40514 0.29843 0.01031 0.0
H758 H 0.27771 0.24372 0.92367 0.0
H759 H 0.33647 0.2514 0.94863 0.0
H760 H 0.34335 0.17304 0.00711 0.0
C761 C 0.46662 0.22463 0.04665 0.0
C762 C 0.3915 0.27109 0.01 0.0
C763 C 0.49952 0.233 0.06063 0.0
C764 C 0.27699 0.23095 0.94012 0.0
C765 C 0.31044 0.23567 0.95452 0.0
C766 C 0.35632 0.20064 0.00774 0.0
C767 C 0.43657 0.25138 0.04206 0.0
C768 C 0.40394 0.24359 0.02531 0.0
C769 C 0.3099 0.22081 0.9764 0.0
C770 C 0.34355 0.22822 0.99258 0.0
H771 H 0.47414 0.32201 0.07398 0.0
H772 H 0.41606 0.30704 0.05002 0.0
H773 H 0.39461 0.18645 0.03549 0.0
H774 H 0.21651 0.17995 0.97504 0.0
H775 H 0.27407 0.18848 0.99996 0.0
C776 C 0.47856 0.70126 0.56127 0.0
C777 C 0.50135 0.72983 0.57131 0.0
C778 C 0.44647 0.70961 0.5467 0.0
C779 C 0.37028 0.77635 0.53077 0.0
H780 H 0.3859 0.74181 0.46971 0.0
C781 C 0.25587 0.81629 0.46176 0.0
C782 C 0.24683 0.78973 0.4453 0.0
C783 C 0.28892 0.8113 0.47624 0.0
C784 C 0.38054 0.75122 0.48671 0.0
H785 H 0.50701 0.78939 0.57497 0.0
H786 H 0.44937 0.80391 0.5502 0.0
H787 H 0.4364 0.72698 0.49837 0.0
H788 H 0.26536 0.73744 0.43071 0.0
H789 H 0.32192 0.72765 0.45654 0.0
H790 H 0.31364 0.79902 0.51973 0.0
C791 C 0.457 0.77516 0.55338 0.0
C792 C 0.40967 0.74285 0.50307 0.0
C793 C 0.4898 0.76686 0.56756 0.0
C794 C 0.27216 0.75863 0.44306 0.0
C795 C 0.30466 0.75312 0.45792 0.0
C796 C 0.34062 0.78401 0.51455 0.0
C797 C 0.43595 0.74661 0.54233 0.0
C798 C 0.40477 0.75537 0.5252 0.0
C799 C 0.31303 0.77903 0.47505 0.0
C800 C 0.34531 0.77164 0.49222 0.0
H801 H 0.48707 0.67247 0.56356 0.0
H802 H 0.43048 0.68717 0.5384 0.0
H803 H 0.36584 0.78612 0.54779 0.0
H804 H 0.23676 0.84059 0.46374 0.0
H805 H 0.29497 0.83251 0.48865 0.0
C806 C 1.00061 0.73529 0.05708 0.0
C807 C 1.00043 0.76574 0.07186 0.0
C808 C 0.03404 0.72845 0.0432 0.0
C809 C 0.12395 0.77718 0.01899 0.0
H810 H 0.15052 0.67881 0.99705 0.0
C811 C 0.27155 0.73846 0.97188 0.0
C812 C 0.26662 0.72223 0.9506 0.0
C813 C 0.23816 0.74385 0.98596 0.0
C814 C 0.14302 0.70642 1.0029 0.0
H815 H 0.03679 0.81111 0.08484 0.0
H816 H 0.09616 0.79798 0.06148 0.0
H817 H 0.09742 0.68626 0.02542 0.0
H818 H 0.22297 0.69891 0.92728 0.0
H819 H 0.16403 0.7071 0.9526 0.0
H820 H 0.17129 0.79681 0.99715 0.0
C821 C 0.06962 0.78032 0.05988 0.0
C822 C 0.11259 0.71082 0.01915 0.0
C823 C 0.03577 0.78759 0.07354 0.0
C824 C 0.22746 0.7115 0.9436 0.0
C825 C 0.19397 0.71606 0.95804 0.0
C826 C 0.15493 0.77263 1.00312 0.0
C827 C 0.06869 0.75139 0.04396 0.0
C828 C 0.10248 0.74631 0.0274 0.0
C829 C 0.1992 0.7324 0.97928 0.0
C830 C 0.16459 0.73726 0.99489 0.0
H831 H 0.97396 0.7178 0.05524 0.0
H832 H 0.03166 0.70617 0.0311 0.0
H833 H 0.11658 0.80503 0.0244 0.0
H834 H 0.30136 0.74734 0.97762 0.0
H835 H 0.24289 0.75639 1.00228 0.0
C836 C 0.00401 0.73728 0.45156 0.0
C837 C 0.0069 0.77116 0.43991 0.0
C838 C 0.97061 0.7298 0.46538 0.0
C839 C 0.86477 0.75655 0.47805 0.0
H840 H 0.8894 0.71784 0.53733 0.0
C841 C 0.73906 0.70408 0.53699 0.0
C842 C 0.73997 0.71641 0.5594 0.0
C843 C 0.77227 0.70974 0.52279 0.0
C844 C 0.8821 0.72882 0.52089 0.0
H845 H 0.97555 0.82282 0.43277 0.0
H846 H 0.91689 0.80943 0.45673 0.0
H847 H 0.94479 0.7297 0.51077 0.0
H848 H 0.77754 0.74288 0.5847 0.0
H849 H 0.83613 0.75248 0.55976 0.0
H850 H 0.80213 0.75581 0.48816 0.0
C851 C 0.94073 0.7888 0.4552 0.0
C852 C 0.91372 0.73526 0.5056 0.0
C853 C 0.97433 0.79643 0.44143 0.0
C854 C 0.77582 0.73304 0.56755 0.0
C855 C 0.80933 0.73856 0.55328 0.0
C856 C 0.83315 0.74981 0.49325 0.0
C857 C 0.93908 0.75583 0.46779 0.0
C858 C 0.90538 0.74907 0.48398 0.0
C859 C 0.80747 0.72769 0.5306 0.0
C860 C 0.84143 0.73572 0.51481 0.0
H861 H 0.02834 0.71701 0.4507 0.0
H862 H 0.96979 0.70382 0.4745 0.0
H863 H 0.85736 0.76709 0.46152 0.0
H864 H 0.7122 0.69073 0.53015 0.0
H865 H 0.77024 0.70031 0.50556 0.0
C866 C 0.76401 0.80633 0.03788 0.0
C867 C 0.76306 0.79143 0.0597 0.0
C868 C 0.73119 0.80162 0.02331 0.0
C869 C 0.64371 0.73977 0.01307 0.0
H870 H 0.61513 0.81498 0.96929 0.0
C871 C 0.50909 0.77016 0.94442 0.0
C872 C 0.50382 0.73419 0.93576 0.0
C873 C 0.54209 0.77843 0.95834 0.0
C874 C 0.6225 0.79371 0.98146 0.0
H875 H 0.72586 0.7614 0.08367 0.0
H876 H 0.66779 0.75377 0.05822 0.0
H877 H 0.66574 0.82874 0.99793 0.0
H878 H 0.53084 0.67938 0.93374 0.0
H879 H 0.58916 0.69416 0.95755 0.0
H880 H 0.59953 0.70512 0.997 0.0
C881 C 0.69451 0.76848 0.0523 0.0
C882 C 0.65183 0.8015 0.9978 0.0
C883 C 0.72756 0.77318 0.06697 0.0
C884 C 0.53391 0.70736 0.94012 0.0
C885 C 0.56706 0.7157 0.95404 0.0
C886 C 0.61418 0.73204 0.9968 0.0
C887 C 0.6963 0.78206 0.03014 0.0
C888 C 0.66303 0.77457 0.01374 0.0
C889 C 0.57087 0.75103 0.96387 0.0
C890 C 0.6033 0.75886 0.98072 0.0
H891 H 0.79078 0.82072 0.03172 0.0
H892 H 0.73397 0.81212 0.00634 0.0
H893 H 0.65192 0.71819 0.02488 0.0
H894 H 0.48657 0.79155 0.94137 0.0
H895 H 0.54381 0.80587 0.96566 0.0
loop_
_geom_bond_atom_site_label_1
_geom_bond_atom_site_label_2
_geom_bond_distance
_geom_bond_site_symmetry_2
_ccdc_geom_bond_type
Fe0 O2 1.918 . S
Fe0 O5 1.997 . S
Fe0 O6 2.002 . S
Fe0 O11 1.976 . S
Fe0 O14 1.996 . S
Fe1 O2 1.918 . S
Fe1 O9 1.997 . S
Fe1 O12 1.996 . S
Fe1 O16 1.976 . S
Fe1 O19 2.002 . S
O2 Fe0 1.918 . S
O2 Fe1 1.918 . S
O2 Fe3 1.918 . S
Fe3 O2 1.918 . S
Fe3 O4 2.002 . S
Fe3 O13 1.976 . S
Fe3 O17 1.996 . S
Fe3 O20 1.997 . S
O4 Fe3 2.002 . S
O4 C21 1.295 . S
O5 Fe0 1.997 . S
O5 C21 1.235 . S
O6 Fe0 2.002 . S
O6 C7 1.295 . S
C7 O6 1.295 . S
C7 O9 1.235 . S
C8 O13 1.287 . S
C8 O14 1.255 . S
O9 Fe1 1.997 . S
O9 C7 1.235 . S
C10 O16 1.287 . S
C10 O17 1.255 . S
O11 Fe0 1.976 . S
O11 C18 1.287 . S
O12 Fe1 1.996 . S
O12 C18 1.255 . S
O13 Fe3 1.976 . S
O13 C8 1.287 . S
O14 Fe0 1.996 . S
O14 C8 1.255 . S
C15 O19 1.295 . S
C15 O20 1.235 . S
O16 Fe1 1.976 . S
O16 C10 1.287 . S
O17 Fe3 1.996 . S
O17 C10 1.255 . S
C18 O11 1.287 . S
C18 O12 1.255 . S
O19 Fe1 2.002 . S
O19 C15 1.295 . S
O20 Fe3 1.997 . S
O20 C15 1.235 . S
C21 O4 1.295 . S
C21 O5 1.235 . S
Fe22 O24 1.918 . S
Fe22 O27 1.997 . S
Fe22 O28 2.002 . S
Fe22 O33 1.976 . S
Fe22 O36 1.996 . S
Fe23 O24 1.918 . S
Fe23 O31 1.997 . S
Fe23 O34 1.996 . S
Fe23 O38 1.976 . S
Fe23 O41 2.002 . S
O24 Fe22 1.918 . S
O24 Fe23 1.918 . S
O24 Fe25 1.918 . S
Fe25 O24 1.918 . S
Fe25 O26 2.002 . S
Fe25 O35 1.976 . S
Fe25 O39 1.996 . S
Fe25 O42 1.997 . S
O26 Fe25 2.002 . S
O26 C43 1.295 . S
O27 Fe22 1.997 . S
O27 C43 1.235 . S
O28 Fe22 2.002 . S
O28 C29 1.295 . S
C29 O28 1.295 . S
C29 O31 1.235 . S
C30 O35 1.287 . S
C30 O36 1.255 . S
O31 Fe23 1.997 . S
O31 C29 1.235 . S
C32 O38 1.287 . S
C32 O39 1.255 . S
O33 Fe22 1.976 . S
O33 C40 1.287 . S
O34 Fe23 1.996 . S
O34 C40 1.255 . S
O35 Fe25 1.976 . S
O35 C30 1.287 . S
O36 Fe22 1.996 . S
O36 C30 1.255 . S
C37 O41 1.295 . S
C37 O42 1.235 . S
O38 Fe23 1.976 . S
O38 C32 1.287 . S
O39 Fe25 1.996 . S
O39 C32 1.255 . S
C40 O33 1.287 . S
C40 O34 1.255 . S
O41 Fe23 2.002 . S
O41 C37 1.295 . S
O42 Fe25 1.997 . S
O42 C37 1.235 . S
C43 O26 1.295 . S
C43 O27 1.235 . S
Fe44 O46 1.918 . S
Fe44 O49 1.997 . S
Fe44 O50 2.002 . S
Fe44 O55 1.976 . S
Fe44 O58 1.996 . S
Fe45 O46 1.918 . S
Fe45 O53 1.997 . S
Fe45 O56 1.996 . S
Fe45 O60 1.976 . S
Fe45 O63 2.002 . S
O46 Fe44 1.918 . S
O46 Fe45 1.918 . S
O46 Fe47 1.918 . S
Fe47 O46 1.918 . S
Fe47 O48 2.002 . S
Fe47 O57 1.976 . S
Fe47 O61 1.996 . S
Fe47 O64 1.997 . S
O48 Fe47 2.002 . S
O48 C65 1.295 . S
O49 Fe44 1.997 . S
O49 C65 1.235 . S
O50 Fe44 2.002 . S
O50 C51 1.295 . S
C51 O50 1.295 . S
C51 O53 1.235 . S
C52 O57 1.287 . S
C52 O58 1.255 . S
O53 Fe45 1.997 . S
O53 C51 1.235 . S
C54 O60 1.287 . S
C54 O61 1.255 . S
O55 Fe44 1.976 . S
O55 C62 1.287 . S
O56 Fe45 1.996 . S
O56 C62 1.255 . S
O57 Fe47 1.976 . S
O57 C52 1.287 . S
O58 Fe44 1.996 . S
O58 C52 1.255 . S
C59 O63 1.295 . S
C59 O64 1.235 . S
O60 Fe45 1.976 . S
O60 C54 1.287 . S
O61 Fe47 1.996 . S
O61 C54 1.255 . S
C62 O55 1.287 . S
C62 O56 1.255 . S
O63 Fe45 2.002 . S
O63 C59 1.295 . S
O64 Fe47 1.997 . S
O64 C59 1.235 . S
C65 O48 1.295 . S
C65 O49 1.235 . S
Fe66 O68 1.918 . S
Fe66 O71 1.997 . S
Fe66 O72 2.002 . S
Fe66 O77 1.976 . S
Fe66 O80 1.996 . S
Fe67 O68 1.918 . S
Fe67 O75 1.997 . S
Fe67 O78 1.996 . S
Fe67 O82 1.976 . S
Fe67 O85 2.002 . S
O68 Fe66 1.918 . S
O68 Fe67 1.918 . S
O68 Fe69 1.918 . S
Fe69 O68 1.918 . S
Fe69 O70 2.002 . S
Fe69 O79 1.976 . S
Fe69 O83 1.996 . S
Fe69 O86 1.997 . S
O70 Fe69 2.002 . S
O70 C87 1.295 . S
O71 Fe66 1.997 . S
O71 C87 1.235 . S
O72 Fe66 2.002 . S
O72 C73 1.295 . S
C73 O72 1.295 . S
C73 O75 1.235 . S
C74 O79 1.287 . S
C74 O80 1.255 . S
O75 Fe67 1.997 . S
O75 C73 1.235 . S
C76 O82 1.287 . S
C76 O83 1.255 . S
O77 Fe66 1.976 . S
O77 C84 1.287 . S
O78 Fe67 1.996 . S
O78 C84 1.255 . S
O79 Fe69 1.976 . S
O79 C74 1.287 . S
O80 Fe66 1.996 . S
O80 C74 1.255 . S
C81 O85 1.295 . S
C81 O86 1.235 . S
O82 Fe67 1.976 . S
O82 C76 1.287 . S
O83 Fe69 1.996 . S
O83 C76 1.255 . S
C84 O77 1.287 . S
C84 O78 1.255 . S
O85 Fe67 2.002 . S
O85 C81 1.295 . S
O86 Fe69 1.997 . S
O86 C81 1.235 . S
C87 O70 1.295 . S
C87 O71 1.235 . S
Fe88 O90 1.918 . S
Fe88 O93 1.997 . S
Fe88 O94 2.002 . S
Fe88 O99 1.976 . S
Fe88 O102 1.996 . S
Fe89 O90 1.918 . S
Fe89 O97 1.997 . S
Fe89 O100 1.996 . S
Fe89 O104 1.976 . S
Fe89 O107 2.002 . S
O90 Fe88 1.918 . S
O90 Fe89 1.918 . S
O90 Fe91 1.918 . S
Fe91 O90 1.918 . S
Fe91 O92 2.002 . S
Fe91 O101 1.976 . S
Fe91 O105 1.996 . S
Fe91 O108 1.997 . S
O92 Fe91 2.002 . S
O92 C109 1.295 . S
O93 Fe88 1.997 . S
O93 C109 1.235 . S
O94 Fe88 2.002 . S
O94 C95 1.295 . S
C95 O94 1.295 . S
C95 O97 1.235 . S
C96 O101 1.287 . S
C96 O102 1.255 . S
O97 Fe89 1.997 . S
O97 C95 1.235 . S
C98 O104 1.287 . S
C98 O105 1.255 . S
O99 Fe88 1.976 . S
O99 C106 1.287 . S
O100 Fe89 1.996 . S
O100 C106 1.255 . S
O101 Fe91 1.976 . S
O101 C96 1.287 . S
O102 Fe88 1.996 . S
O102 C96 1.255 . S
C103 O107 1.295 . S
C103 O108 1.235 . S
O104 Fe89 1.976 . S
O104 C98 1.287 . S
O105 Fe91 1.996 . S
O105 C98 1.255 . S
C106 O99 1.287 . S
C106 O100 1.255 . S
O107 Fe89 2.002 . S
O107 C103 1.295 . S
O108 Fe91 1.997 . S
O108 C103 1.235 . S
C109 O92 1.295 . S
C109 O93 1.235 . S
Fe110 O112 1.918 . S
Fe110 O115 1.997 . S
Fe110 O116 2.002 . S
Fe110 O121 1.976 . S
Fe110 O124 1.996 . S
Fe111 O112 1.918 . S
Fe111 O119 1.997 . S
Fe111 O122 1.996 . S
Fe111 O126 1.976 . S
Fe111 O129 2.002 . S
O112 Fe110 1.918 . S
O112 Fe111 1.918 . S
O112 Fe113 1.918 . S
Fe113 O112 1.918 . S
Fe113 O114 2.002 . S
Fe113 O123 1.976 . S
Fe113 O127 1.996 . S
Fe113 O130 1.997 . S
O114 Fe113 2.002 . S
O114 C131 1.295 . S
O115 Fe110 1.997 . S
O115 C131 1.235 . S
O116 Fe110 2.002 . S
O116 C117 1.295 . S
C117 O116 1.295 . S
C117 O119 1.235 . S
C118 O123 1.287 . S
C118 O124 1.255 . S
O119 Fe111 1.997 . S
O119 C117 1.235 . S
C120 O126 1.287 . S
C120 O127 1.255 . S
O121 Fe110 1.976 . S
O121 C128 1.287 . S
O122 Fe111 1.996 . S
O122 C128 1.255 . S
O123 Fe113 1.976 . S
O123 C118 1.287 . S
O124 Fe110 1.996 . S
O124 C118 1.255 . S
C125 O129 1.295 . S
C125 O130 1.235 . S
O126 Fe111 1.976 . S
O126 C120 1.287 . S
O127 Fe113 1.996 . S
O127 C120 1.255 . S
C128 O121 1.287 . S
C128 O122 1.255 . S
O129 Fe111 2.002 . S
O129 C125 1.295 . S
O130 Fe113 1.997 . S
O130 C125 1.235 . S
C131 O114 1.295 . S
C131 O115 1.235 . S
Fe132 O134 1.918 . S
Fe132 O137 1.997 . S
Fe132 O138 2.002 . S
Fe132 O143 1.976 . S
Fe132 O146 1.996 . S
Fe133 O134 1.918 . S
Fe133 O141 1.997 . S
Fe133 O144 1.996 . S
Fe133 O148 1.976 . S
Fe133 O151 2.002 . S
O134 Fe132 1.918 . S
O134 Fe133 1.918 . S
O134 Fe135 1.918 . S
Fe135 O134 1.918 . S
Fe135 O136 2.002 . S
Fe135 O145 1.976 . S
Fe135 O149 1.996 . S
Fe135 O152 1.997 . S
O136 Fe135 2.002 . S
O136 C153 1.295 . S
O137 Fe132 1.997 . S
O137 C153 1.235 . S
O138 Fe132 2.002 . S
O138 C139 1.295 . S
C139 O138 1.295 . S
C139 O141 1.235 . S
C140 O145 1.287 . S
C140 O146 1.255 . S
O141 Fe133 1.997 . S
O141 C139 1.235 . S
C142 O148 1.287 . S
C142 O149 1.255 . S
O143 Fe132 1.976 . S
O143 C150 1.287 . S
O144 Fe133 1.996 . S
O144 C150 1.255 . S
O145 Fe135 1.976 . S
O145 C140 1.287 . S
O146 Fe132 1.996 . S
O146 C140 1.255 . S
C147 O151 1.295 . S
C147 O152 1.235 . S
O148 Fe133 1.976 . S
O148 C142 1.287 . S
O149 Fe135 1.996 . S
O149 C142 1.255 . S
C150 O143 1.287 . S
C150 O144 1.255 . S
O151 Fe133 2.002 . S
O151 C147 1.295 . S
O152 Fe135 1.997 . S
O152 C147 1.235 . S
C153 O136 1.295 . S
C153 O137 1.235 . S
Fe154 O156 1.918 . S
Fe154 O159 1.997 . S
Fe154 O160 2.002 . S
Fe154 O165 1.976 . S
Fe154 O168 1.996 . S
Fe155 O156 1.918 . S
Fe155 O163 1.997 . S
Fe155 O166 1.996 . S
Fe155 O170 1.976 . S
Fe155 O173 2.002 . S
O156 Fe154 1.918 . S
O156 Fe155 1.918 . S
O156 Fe157 1.918 . S
Fe157 O156 1.918 . S
Fe157 O158 2.002 . S
Fe157 O167 1.976 . S
Fe157 O171 1.996 . S
Fe157 O174 1.997 . S
O158 Fe157 2.002 . S
O158 C175 1.295 . S
O159 Fe154 1.997 . S
O159 C175 1.235 . S
O160 Fe154 2.002 . S
O160 C161 1.295 . S
C161 O160 1.295 . S
C161 O163 1.235 . S
C162 O167 1.287 . S
C162 O168 1.255 . S
O163 Fe155 1.997 . S
O163 C161 1.235 . S
C164 O170 1.287 . S
C164 O171 1.255 . S
O165 Fe154 1.976 . S
O165 C172 1.287 . S
O166 Fe155 1.996 . S
O166 C172 1.255 . S
O167 Fe157 1.976 . S
O167 C162 1.287 . S
O168 Fe154 1.996 . S
O168 C162 1.255 . S
C169 O173 1.295 . S
C169 O174 1.235 . S
O170 Fe155 1.976 . S
O170 C164 1.287 . S
O171 Fe157 1.996 . S
O171 C164 1.255 . S
C172 O165 1.287 . S
C172 O166 1.255 . S
O173 Fe155 2.002 . S
O173 C169 1.295 . S
O174 Fe157 1.997 . S
O174 C169 1.235 . S
C175 O158 1.295 . S
C175 O159 1.235 . S
C176 C177 1.349 . S
C176 C178 1.327 . S
C176 H201 0.950 . S
C177 C176 1.349 . S
C177 C193 1.349 . S
C178 C176 1.327 . S
C178 C197 1.429 . S
C178 H202 0.950 . S
C179 C196 1.574 . S
C179 C198 1.368 . S
C179 H203 0.949 . S
H180 C184 0.949 . S
C181 C182 1.349 . S
C181 C183 1.327 . S
C181 H204 0.950 . S
C182 C181 1.349 . S
C182 C194 1.349 . S
C183 C181 1.327 . S
C183 C199 1.429 . S
C183 H205 0.950 . S
C184 H180 0.949 . S
C184 C192 1.574 . S
C184 C200 1.368 . S
H185 C193 0.950 . S
H186 C191 0.950 1_545 S
H187 C192 0.949 . S
H188 C194 0.950 . S
H189 C195 0.950 . S
H190 C196 0.949 . S
C191 H186 0.950 1_565 S
C191 C193 1.327 . S
C191 C197 1.429 . S
C192 C184 1.574 . S
C192 H187 0.949 . S
C192 C198 1.368 . S
C193 C177 1.349 . S
C193 H185 0.950 . S
C193 C191 1.327 . S
C194 C182 1.349 . S
C194 H188 0.950 . S
C194 C195 1.327 . S
C195 H189 0.950 . S
C195 C194 1.327 . S
C195 C199 1.429 . S
C196 C179 1.574 . S
C196 H190 0.949 . S
C196 C200 1.368 . S
C197 C178 1.429 . S
C197 C191 1.429 . S
C197 C198 1.523 1_565 S
C198 C179 1.368 . S
C198 C192 1.368 . S
C198 C197 1.523 1_545 S
C199 C183 1.429 . S
C199 C195 1.429 . S
C199 C200 1.523 . S
C200 C184 1.368 . S
C200 C196 1.368 . S
C200 C199 1.523 . S
H201 C176 0.950 . S
H202 C178 0.950 . S
H203 C179 0.949 . S
H204 C181 0.950 . S
H205 C183 0.950 . S
C206 C207 1.349 . S
C206 C208 1.327 . S
C206 H231 0.950 . S
C207 C206 1.349 . S
C207 C223 1.349 . S
C208 C206 1.327 . S
C208 C227 1.429 . S
C208 H232 0.950 . S
C209 C226 1.574 . S
C209 C228 1.368 . S
C209 H233 0.949 . S
H210 C214 0.949 . S
C211 C212 1.349 . S
C211 C213 1.327 . S
C211 H234 0.950 . S
C212 C211 1.349 . S
C212 C224 1.349 . S
C213 C211 1.327 . S
C213 C229 1.429 . S
C213 H235 0.950 . S
C214 H210 0.949 . S
C214 C222 1.574 . S
C214 C230 1.368 . S
H215 C223 0.950 . S
H216 C221 0.950 . S
H217 C222 0.949 . S
H218 C224 0.950 . S
H219 C225 0.950 . S
H220 C226 0.949 . S
C221 H216 0.950 . S
C221 C223 1.327 . S
C221 C227 1.429 . S
C222 C214 1.574 . S
C222 H217 0.949 . S
C222 C228 1.368 . S
C223 C207 1.349 . S
C223 H215 0.950 . S
C223 C221 1.327 . S
C224 C212 1.349 . S
C224 H218 0.950 . S
C224 C225 1.327 . S
C225 H219 0.950 . S
C225 C224 1.327 . S
C225 C229 1.429 . S
C226 C209 1.574 . S
C226 H220 0.949 . S
C226 C230 1.368 . S
C227 C208 1.429 . S
C227 C221 1.429 . S
C227 C228 1.523 . S
C228 C209 1.368 . S
C228 C222 1.368 . S
C228 C227 1.523 . S
C229 C213 1.429 . S
C229 C225 1.429 . S
C229 C230 1.523 . S
C230 C214 1.368 . S
C230 C226 1.368 . S
C230 C229 1.523 . S
H231 C206 0.950 . S
H232 C208 0.950 . S
H233 C209 0.949 . S
H234 C211 0.950 . S
H235 C213 0.950 . S
C236 C237 1.349 . S
C236 C238 1.327 . S
C236 H261 0.950 . S
C237 C236 1.349 . S
C237 C253 1.349 . S
C238 C236 1.327 . S
C238 C257 1.429 . S
C238 H262 0.950 . S
C239 C256 1.574 . S
C239 C258 1.368 . S
C239 H263 0.949 . S
H240 C244 0.949 . S
C241 C242 1.349 . S
C241 C243 1.327 . S
C241 H264 0.950 . S
C242 C241 1.349 . S
C242 C254 1.349 . S
C243 C241 1.327 . S
C243 C259 1.429 . S
C243 H265 0.950 . S
C244 H240 0.949 . S
C244 C252 1.574 . S
C244 C260 1.368 . S
H245 C253 0.950 . S
H246 C251 0.950 . S
H247 C252 0.949 . S
H248 C254 0.950 . S
H249 C255 0.950 . S
H250 C256 0.949 . S
C251 H246 0.950 . S
C251 C253 1.327 . S
C251 C257 1.429 . S
C252 C244 1.574 . S
C252 H247 0.949 . S
C252 C258 1.368 . S
C253 C237 1.349 . S
C253 H245 0.950 . S
C253 C251 1.327 . S
C254 C242 1.349 . S
C254 H248 0.950 . S
C254 C255 1.327 . S
C255 H249 0.950 . S
C255 C254 1.327 . S
C255 C259 1.429 . S
C256 C239 1.574 . S
C256 H250 0.949 . S
C256 C260 1.368 . S
C257 C238 1.429 . S
C257 C251 1.429 . S
C257 C258 1.523 . S
C258 C239 1.368 . S
C258 C252 1.368 . S
C258 C257 1.523 . S
C259 C243 1.429 . S
C259 C255 1.429 . S
C259 C260 1.523 . S
C260 C244 1.368 . S
C260 C256 1.368 . S
C260 C259 1.523 . S
H261 C236 0.950 . S
H262 C238 0.950 . S
H263 C239 0.949 . S
H264 C241 0.950 . S
H265 C243 0.950 . S
C266 C267 1.349 . S
C266 C268 1.327 . S
C266 H291 0.950 . S
C267 C266 1.349 . S
C267 C283 1.349 . S
C268 C266 1.327 . S
C268 C287 1.429 . S
C268 H292 0.950 . S
C269 C286 1.574 . S
C269 C288 1.368 . S
C269 H293 0.949 . S
H270 C274 0.949 . S
C271 C272 1.349 . S
C271 C273 1.327 . S
C271 H294 0.950 . S
C272 C271 1.349 . S
C272 C284 1.349 . S
C273 C271 1.327 . S
C273 C289 1.429 . S
C273 H295 0.950 . S
C274 H270 0.949 . S
C274 C282 1.574 . S
C274 C290 1.368 . S
H275 C283 0.950 . S
H276 C281 0.950 . S
H277 C282 0.949 . S
H278 C284 0.950 . S
H279 C285 0.964 . S
H280 C286 0.949 . S
C281 H276 0.950 . S
C281 C283 1.327 . S
C281 C287 1.429 . S
C282 C274 1.574 . S
C282 H277 0.949 . S
C282 C288 1.368 . S
C283 C267 1.349 . S
C283 H275 0.950 . S
C283 C281 1.327 . S
C284 C272 1.349 . S
C284 H278 0.950 . S
C284 C285 1.327 . S
C285 H279 0.964 . S
C285 C284 1.327 . S
C285 C289 1.429 . S
C286 C269 1.574 . S
C286 H280 0.949 . S
C286 C290 1.368 . S
C287 C268 1.429 . S
C287 C281 1.429 . S
C287 C288 1.523 . S
C288 C269 1.368 . S
C288 C282 1.368 . S
C288 C287 1.523 . S
C289 C273 1.429 . S
C289 C285 1.429 . S
C289 C290 1.523 1_565 S
C290 C274 1.368 . S
C290 C286 1.368 . S
C290 C289 1.523 1_545 S
H291 C266 0.950 . S
H292 C268 0.950 . S
H293 C269 0.949 . S
H294 C271 0.950 . S
H295 C273 0.950 . S
C296 C297 1.349 . S
C296 C298 1.327 . S
C296 H321 0.950 . S
C297 C296 1.349 . S
C297 C313 1.349 . S
C298 C296 1.327 . S
C298 C317 1.429 . S
C298 H322 0.950 . S
C299 C316 1.574 . S
C299 C318 1.368 . S
C299 H323 0.949 . S
H300 C304 0.949 . S
C301 C302 1.349 . S
C301 C303 1.327 . S
C301 H324 0.950 . S
C302 C301 1.349 . S
C302 C314 1.349 . S
C303 C301 1.327 . S
C303 C319 1.429 . S
C303 H325 0.950 . S
C304 H300 0.949 . S
C304 C312 1.574 . S
C304 C320 1.368 . S
H305 C313 0.950 . S
H306 C311 0.950 . S
H307 C312 0.949 . S
H308 C314 0.950 . S
H309 C315 0.950 . S
H310 C316 0.949 . S
C311 H306 0.950 . S
C311 C313 1.327 . S
C311 C317 1.429 . S
C312 C304 1.574 . S
C312 H307 0.949 . S
C312 C318 1.368 . S
C313 C297 1.349 . S
C313 H305 0.950 . S
C313 C311 1.327 . S
C314 C302 1.349 . S
C314 H308 0.950 . S
C314 C315 1.327 . S
C315 H309 0.950 . S
C315 C314 1.327 . S
C315 C319 1.429 . S
C316 C299 1.574 . S
C316 H310 0.949 . S
C316 C320 1.368 . S
C317 C298 1.429 . S
C317 C311 1.429 . S
C317 C318 1.523 1_545 S
C318 C299 1.368 . S
C318 C312 1.368 . S
C318 C317 1.523 1_565 S
C319 C303 1.429 . S
C319 C315 1.429 . S
C319 C320 1.523 . S
C320 C304 1.368 . S
C320 C316 1.368 . S
C320 C319 1.523 . S
H321 C296 0.950 . S
H322 C298 0.950 . S
H323 C299 0.949 . S
H324 C301 0.950 . S
H325 C303 0.950 . S
C326 C327 1.349 . S
C326 C328 1.327 . S
C326 H351 0.950 . S
C327 C326 1.349 . S
C327 C343 1.349 . S
C328 C326 1.327 . S
C328 C347 1.429 . S
C328 H352 0.950 . S
C329 C346 1.574 . S
C329 C348 1.368 . S
C329 H353 0.949 . S
H330 C334 0.949 . S
C331 C332 1.349 . S
C331 C333 1.327 . S
C331 H354 0.950 . S
C332 C331 1.349 . S
C332 C344 1.349 . S
C333 C331 1.327 . S
C333 C349 1.429 . S
C333 H355 0.950 . S
C334 H330 0.949 . S
C334 C342 1.574 . S
C334 C350 1.368 . S
H335 C343 0.950 . S
H336 C341 0.950 . S
H337 C342 0.949 . S
H338 C344 0.950 . S
H339 C345 0.950 . S
H340 C346 0.949 . S
C341 H336 0.950 . S
C341 C343 1.327 . S
C341 C347 1.429 . S
C342 C334 1.574 . S
C342 H337 0.949 . S
C342 C348 1.368 . S
C343 C327 1.349 . S
C343 H335 0.950 . S
C343 C341 1.327 . S
C344 C332 1.349 . S
C344 H338 0.950 . S
C344 C345 1.327 . S
C345 H339 0.950 . S
C345 C344 1.327 . S
C345 C349 1.429 . S
C346 C329 1.574 . S
C346 H340 0.949 . S
C346 C350 1.368 . S
C347 C328 1.429 . S
C347 C341 1.429 . S
C347 C348 1.523 . S
C348 C329 1.368 . S
C348 C342 1.368 . S
C348 C347 1.523 . S
C349 C333 1.429 . S
C349 C345 1.429 . S
C349 C350 1.523 . S
C350 C334 1.368 . S
C350 C346 1.368 . S
C350 C349 1.523 . S
H351 C326 0.950 . S
H352 C328 0.950 . S
H353 C329 0.949 . S
H354 C331 0.950 . S
H355 C333 0.950 . S
C356 C357 1.349 . S
C356 C358 1.327 . S
C356 H381 0.950 . S
C357 C356 1.349 . S
C357 C373 1.349 . S
C358 C356 1.327 . S
C358 C377 1.429 . S
C358 H382 0.950 . S
C359 C376 1.574 . S
C359 C378 1.368 . S
C359 H383 0.949 . S
H360 C364 0.949 . S
C361 C362 1.349 . S
C361 C363 1.327 . S
C361 H384 0.950 . S
C362 C361 1.349 . S
C362 C374 1.349 . S
C363 C361 1.327 . S
C363 C379 1.429 . S
C363 H385 0.950 . S
C364 H360 0.949 . S
C364 C372 1.574 . S
C364 C380 1.368 . S
H365 C373 0.950 . S
H366 C371 0.950 . S
H367 C372 0.949 . S
H368 C374 0.950 . S
H369 C375 0.950 . S
H370 C376 0.949 . S
C371 H366 0.950 . S
C371 C373 1.327 . S
C371 C377 1.429 . S
C372 C364 1.574 . S
C372 H367 0.949 . S
C372 C378 1.368 . S
C373 C357 1.349 . S
C373 H365 0.950 . S
C373 C371 1.327 . S
C374 C362 1.349 . S
C374 H368 0.950 . S
C374 C375 1.327 . S
C375 H369 0.950 . S
C375 C374 1.327 . S
C375 C379 1.429 . S
C376 C359 1.574 . S
C376 H370 0.949 . S
C376 C380 1.368 . S
C377 C358 1.429 . S
C377 C371 1.429 . S
C377 C378 1.523 . S
C378 C359 1.368 . S
C378 C372 1.368 . S
C378 C377 1.523 . S
C379 C363 1.429 . S
C379 C375 1.429 . S
C379 C380 1.523 . S
C380 C364 1.368 . S
C380 C376 1.368 . S
C380 C379 1.523 . S
H381 C356 0.950 . S
H382 C358 0.950 . S
H383 C359 0.949 . S
H384 C361 0.950 . S
H385 C363 0.950 . S
C386 C387 1.349 . S
C386 C388 1.327 . S
C386 H411 0.950 . S
C387 C386 1.349 . S
C387 C403 1.349 . S
C388 C386 1.327 . S
C388 C407 1.429 . S
C388 H412 0.950 . S
C389 C406 1.574 . S
C389 C408 1.368 . S
C389 H413 0.949 . S
H390 C394 0.949 . S
C391 C392 1.349 . S
C391 C393 1.327 . S
C391 H414 0.950 . S
C392 C391 1.349 . S
C392 C404 1.349 . S
C393 C391 1.327 . S
C393 C409 1.429 . S
C393 H415 0.950 . S
C394 H390 0.949 . S
C394 C402 1.574 . S
C394 C410 1.368 . S
H395 C403 0.950 . S
H396 C401 0.950 . S
H397 C402 0.949 . S
H398 C404 0.950 . S
H399 C405 0.950 . S
H400 C406 0.949 . S
C401 H396 0.950 . S
C401 C403 1.327 . S
C401 C407 1.429 . S
C402 C394 1.574 . S
C402 H397 0.949 . S
C402 C408 1.368 . S
C403 C387 1.349 . S
C403 H395 0.950 . S
C403 C401 1.327 . S
C404 C392 1.349 . S
C404 H398 0.950 . S
C404 C405 1.327 . S
C405 H399 0.950 . S
C405 C404 1.327 . S
C405 C409 1.429 . S
C406 C389 1.574 . S
C406 H400 0.949 . S
C406 C410 1.368 . S
C407 C388 1.429 . S
C407 C401 1.429 . S
C407 C408 1.523 1_545 S
C408 C389 1.368 . S
C408 C402 1.368 . S
C408 C407 1.523 1_565 S
C409 C393 1.429 . S
C409 C405 1.429 . S
C409 C410 1.523 . S
C410 C394 1.368 . S
C410 C406 1.368 . S
C410 C409 1.523 . S
H411 C386 0.950 . S
H412 C388 0.950 . S
H413 C389 0.949 . S
H414 C391 0.950 . S
H415 C393 0.950 . S
C416 C417 1.349 . S
C416 C418 1.327 . S
C416 H441 0.950 . S
C417 C416 1.349 . S
C417 C433 1.349 . S
C418 C416 1.327 . S
C418 C437 1.429 . S
C418 H442 0.950 . S
C419 C436 1.574 . S
C419 C438 1.368 . S
C419 H443 0.949 . S
H420 C424 0.949 . S
C421 C422 1.349 . S
C421 C423 1.327 . S
C421 H444 0.950 . S
C422 C421 1.349 . S
C422 C434 1.349 . S
C423 C421 1.327 . S
C423 C439 1.429 . S
C423 H445 0.950 . S
C424 H420 0.949 . S
C424 C432 1.574 . S
C424 C440 1.368 . S
H425 C433 0.950 . S
H426 C431 0.950 . S
H427 C432 0.949 . S
H428 C434 0.950 . S
H429 C435 0.950 . S
H430 C436 0.949 . S
C431 H426 0.950 . S
C431 C433 1.327 . S
C431 C437 1.429 . S
C432 C424 1.574 . S
C432 H427 0.949 . S
C432 C438 1.368 . S
C433 C417 1.349 . S
C433 H425 0.950 . S
C433 C431 1.327 . S
C434 C422 1.349 . S
C434 H428 0.950 . S
C434 C435 1.327 . S
C435 H429 0.950 . S
C435 C434 1.327 . S
C435 C439 1.429 . S
C436 C419 1.574 . S
C436 H430 0.949 . S
C436 C440 1.368 . S
C437 C418 1.429 . S
C437 C431 1.429 . S
C437 C438 1.523 . S
C438 C419 1.368 . S
C438 C432 1.368 . S
C438 C437 1.523 . S
C439 C423 1.429 . S
C439 C435 1.429 . S
C439 C440 1.523 . S
C440 C424 1.368 . S
C440 C436 1.368 . S
C440 C439 1.523 . S
H441 C416 0.950 . S
H442 C418 0.950 . S
H443 C419 0.949 . S
H444 C421 0.950 . S
H445 C423 0.950 . S
C446 C447 1.349 . S
C446 C448 1.327 . S
C446 H471 0.950 . S
C447 C446 1.349 . S
C447 C463 1.349 . S
C448 C446 1.327 . S
C448 C467 1.429 . S
C448 H472 0.950 1_554 S
C449 C466 1.574 1_565 S
C449 C468 1.368 1_455 S
C449 H473 0.949 . S
H450 C454 0.949 . S
C451 C452 1.349 . S
C451 C453 1.327 . S
C451 H474 0.950 . S
C452 C451 1.349 . S
C452 C464 1.349 . S
C453 C451 1.327 . S
C453 C469 1.429 . S
C453 H475 0.950 1_556 S
C454 H450 0.949 . S
C454 C462 1.574 1_545 S
C454 C470 1.368 1_655 S
H455 C463 0.950 . S
H456 C461 0.950 . S
H457 C462 0.949 . S
H458 C464 0.950 . S
H459 C465 0.950 . S
H460 C466 0.949 . S
C461 H456 0.950 . S
C461 C463 1.327 . S
C461 C467 1.429 . S
C462 C454 1.574 1_565 S
C462 H457 0.949 . S
C462 C468 1.368 1_556 S
C463 C447 1.349 . S
C463 H455 0.950 . S
C463 C461 1.327 . S
C464 C452 1.349 . S
C464 H458 0.950 . S
C464 C465 1.327 . S
C465 H459 0.950 . S
C465 C464 1.327 . S
C465 C469 1.429 . S
C466 C449 1.574 1_545 S
C466 H460 0.949 . S
C466 C470 1.368 1_554 S
C467 C448 1.429 . S
C467 C461 1.429 . S
C467 C468 1.523 . S
C468 C449 1.368 1_655 S
C468 C462 1.368 1_554 S
C468 C467 1.523 . S
C469 C453 1.429 . S
C469 C465 1.429 . S
C469 C470 1.523 . S
C470 C454 1.368 1_455 S
C470 C466 1.368 1_556 S
C470 C469 1.523 . S
H471 C446 0.950 . S
H472 C448 0.950 1_556 S
H473 C449 0.949 . S
H474 C451 0.950 . S
H475 C453 0.950 1_554 S
C476 C477 1.349 . S
C476 C478 1.327 . S
C476 H501 0.950 . S
C477 C476 1.349 . S
C477 C493 1.349 . S
C478 C476 1.327 . S
C478 C497 1.429 . S
C478 H502 0.950 . S
C479 C496 1.574 . S
C479 C498 1.368 1_455 S
C479 H503 0.949 . S
H480 C484 0.949 . S
C481 C482 1.349 . S
C481 C483 1.327 . S
C481 H504 0.950 . S
C482 C481 1.349 . S
C482 C494 1.349 . S
C483 C481 1.327 . S
C483 C499 1.429 . S
C483 H505 0.950 . S
C484 H480 0.949 . S
C484 C492 1.574 . S
C484 C500 1.368 1_655 S
H485 C493 0.950 . S
H486 C491 0.950 . S
H487 C492 0.949 . S
H488 C494 0.950 . S
H489 C495 0.950 . S
H490 C496 0.949 . S
C491 H486 0.950 . S
C491 C493 1.327 . S
C491 C497 1.429 . S
C492 C484 1.574 . S
C492 H487 0.949 . S
C492 C498 1.368 1_565 S
C493 C477 1.349 . S
C493 H485 0.950 . S
C493 C491 1.327 . S
C494 C482 1.349 . S
C494 H488 0.950 . S
C494 C495 1.327 . S
C495 H489 0.950 . S
C495 C494 1.327 . S
C495 C499 1.429 . S
C496 C479 1.574 . S
C496 H490 0.949 . S
C496 C500 1.368 1_545 S
C497 C478 1.429 . S
C497 C491 1.429 . S
C497 C498 1.523 . S
C498 C479 1.368 1_655 S
C498 C492 1.368 1_545 S
C498 C497 1.523 . S
C499 C483 1.429 . S
C499 C495 1.429 . S
C499 C500 1.523 . S
C500 C484 1.368 1_455 S
C500 C496 1.368 1_565 S
C500 C499 1.523 . S
H501 C476 0.950 . S
H502 C478 0.950 . S
H503 C479 0.949 . S
H504 C481 0.950 . S
H505 C483 0.950 . S
C506 C507 1.349 . S
C506 C508 1.327 . S
C506 H531 0.950 . S
C507 C506 1.349 . S
C507 C523 1.349 . S
C508 C506 1.327 . S
C508 C527 1.429 . S
C508 H532 0.950 . S
C509 C526 1.574 . S
C509 C528 1.368 1_554 S
C509 H533 0.949 . S
H510 C514 0.949 . S
C511 C512 1.349 . S
C511 C513 1.327 . S
C511 H534 0.950 . S
C512 C511 1.349 . S
C512 C524 1.349 . S
C513 C511 1.327 . S
C513 C529 1.429 . S
C513 H535 0.950 . S
C514 H510 0.949 . S
C514 C522 1.574 . S
C514 C530 1.368 1_556 S
H515 C523 0.950 . S
H516 C521 0.950 . S
H517 C522 0.949 . S
H518 C524 0.950 . S
H519 C525 0.950 . S
H520 C526 0.949 . S
C521 H516 0.950 . S
C521 C523 1.327 . S
C521 C527 1.429 . S
C522 C514 1.574 . S
C522 H517 0.949 . S
C522 C528 1.368 . S
C523 C507 1.349 . S
C523 H515 0.950 . S
C523 C521 1.327 . S
C524 C512 1.349 . S
C524 H518 0.950 . S
C524 C525 1.327 . S
C525 H519 0.950 . S
C525 C524 1.327 . S
C525 C529 1.429 . S
C526 C509 1.574 . S
C526 H520 0.949 . S
C526 C530 1.368 . S
C527 C508 1.429 . S
C527 C521 1.429 . S
C527 C528 1.523 . S
C528 C509 1.368 1_556 S
C528 C522 1.368 . S
C528 C527 1.523 . S
C529 C513 1.429 . S
C529 C525 1.429 . S
C529 C530 1.523 . S
C530 C514 1.368 1_554 S
C530 C526 1.368 . S
C530 C529 1.523 . S
H531 C506 0.950 . S
H532 C508 0.950 . S
H533 C509 0.949 . S
H534 C511 0.950 . S
H535 C513 0.950 . S
C536 C537 1.349 . S
C536 C538 1.327 . S
C536 H561 0.950 . S
C537 C536 1.349 . S
C537 C553 1.349 . S
C538 C536 1.327 . S
C538 C557 1.429 . S
C538 H562 0.950 . S
C539 C556 1.574 . S
C539 C558 1.368 . S
C539 H563 0.949 . S
H540 C544 0.949 . S
C541 C542 1.349 . S
C541 C543 1.327 . S
C541 H564 0.950 . S
C542 C541 1.349 . S
C542 C554 1.349 . S
C543 C541 1.327 . S
C543 C559 1.429 . S
C543 H565 0.950 . S
C544 H540 0.949 . S
C544 C552 1.574 . S
C544 C560 1.368 . S
H545 C553 0.950 . S
H546 C551 0.950 . S
H547 C552 0.949 . S
H548 C554 0.950 . S
H549 C555 0.950 . S
H550 C556 0.949 . S
C551 H546 0.950 . S
C551 C553 1.327 . S
C551 C557 1.429 . S
C552 C544 1.574 . S
C552 H547 0.949 . S
C552 C558 1.368 . S
C553 C537 1.349 . S
C553 H545 0.950 . S
C553 C551 1.327 . S
C554 C542 1.349 . S
C554 H548 0.950 . S
C554 C555 1.327 . S
C555 H549 0.950 . S
C555 C554 1.327 . S
C555 C559 1.429 . S
C556 C539 1.574 . S
C556 H550 0.949 . S
C556 C560 1.368 . S
C557 C538 1.429 . S
C557 C551 1.429 . S
C557 C558 1.523 . S
C558 C539 1.368 . S
C558 C552 1.368 . S
C558 C557 1.523 . S
C559 C543 1.429 . S
C559 C555 1.429 . S
C559 C560 1.523 . S
C560 C544 1.368 . S
C560 C556 1.368 . S
C560 C559 1.523 . S
H561 C536 0.950 . S
H562 C538 0.950 . S
H563 C539 0.949 . S
H564 C541 0.950 . S
H565 C543 0.950 . S
C566 C567 1.349 . S
C566 C568 1.327 . S
C566 H591 0.950 . S
C567 C566 1.349 . S
C567 C583 1.349 . S
C568 C566 1.327 . S
C568 C587 1.429 . S
C568 H592 0.950 . S
C569 C586 1.574 . S
C569 C588 1.368 1_655 S
C569 H593 0.949 . S
H570 C574 0.949 . S
C571 C572 1.349 . S
C571 C573 1.327 . S
C571 H594 0.950 . S
C572 C571 1.349 . S
C572 C584 1.349 . S
C573 C571 1.327 . S
C573 C589 1.429 . S
C573 H595 0.950 . S
C574 H570 0.949 . S
C574 C582 1.574 . S
C574 C590 1.368 1_455 S
H575 C583 0.950 . S
H576 C581 0.950 . S
H577 C582 0.949 . S
H578 C584 0.950 . S
H579 C585 0.950 . S
H580 C586 0.949 . S
C581 H576 0.950 . S
C581 C583 1.327 . S
C581 C587 1.429 . S
C582 C574 1.574 . S
C582 H577 0.949 . S
C582 C588 1.368 . S
C583 C567 1.349 . S
C583 H575 0.950 . S
C583 C581 1.327 . S
C584 C572 1.349 . S
C584 H578 0.950 . S
C584 C585 1.327 . S
C585 H579 0.950 . S
C585 C584 1.327 . S
C585 C589 1.429 . S
C586 C569 1.574 . S
C586 H580 0.949 . S
C586 C590 1.368 . S
C587 C568 1.429 . S
C587 C581 1.429 . S
C587 C588 1.523 . S
C588 C569 1.368 1_455 S
C588 C582 1.368 . S
C588 C587 1.523 . S
C589 C573 1.429 . S
C589 C585 1.429 . S
C589 C590 1.523 . S
C590 C574 1.368 1_655 S
C590 C586 1.368 . S
C590 C589 1.523 . S
H591 C566 0.950 . S
H592 C568 0.950 . S
H593 C569 0.949 . S
H594 C571 0.950 . S
H595 C573 0.950 . S
C596 C597 1.349 . S
C596 C598 1.327 . S
C596 H621 0.950 . S
C597 C596 1.349 . S
C597 C613 1.349 . S
C598 C596 1.327 . S
C598 C617 1.429 . S
C598 H622 0.950 . S
C599 C616 1.574 . S
C599 C618 1.368 . S
C599 H623 0.949 . S
H600 C604 0.949 . S
C601 C602 1.349 . S
C601 C603 1.327 . S
C601 H624 0.950 . S
C602 C601 1.349 . S
C602 C614 1.349 . S
C603 C601 1.327 . S
C603 C619 1.429 . S
C603 H625 0.950 . S
C604 H600 0.949 . S
C604 C612 1.574 . S
C604 C620 1.368 . S
H605 C613 0.950 . S
H606 C611 0.950 . S
H607 C612 0.949 . S
H608 C614 0.950 . S
H609 C615 0.950 . S
H610 C616 0.949 . S
C611 H606 0.950 . S
C611 C613 1.327 . S
C611 C617 1.429 . S
C612 C604 1.574 . S
C612 H607 0.949 . S
C612 C618 1.368 . S
C613 C597 1.349 . S
C613 H605 0.950 . S
C613 C611 1.327 . S
C614 C602 1.349 . S
C614 H608 0.950 . S
C614 C615 1.327 . S
C615 H609 0.950 . S
C615 C614 1.327 . S
C615 C619 1.429 . S
C616 C599 1.574 . S
C616 H610 0.949 . S
C616 C620 1.368 . S
C617 C598 1.429 . S
C617 C611 1.429 . S
C617 C618 1.523 . S
C618 C599 1.368 . S
C618 C612 1.368 . S
C618 C617 1.523 . S
C619 C603 1.429 . S
C619 C615 1.429 . S
C619 C620 1.523 . S
C620 C604 1.368 . S
C620 C616 1.368 . S
C620 C619 1.523 . S
H621 C596 0.950 . S
H622 C598 0.950 . S
H623 C599 0.949 . S
H624 C601 0.950 . S
H625 C603 0.950 . S
C626 C627 1.349 . S
C626 C628 1.327 . S
C626 H651 0.950 . S
C627 C626 1.349 . S
C627 C643 1.349 . S
C628 C626 1.327 . S
C628 C647 1.429 . S
C628 H652 0.950 . S
C629 C646 1.574 . S
C629 C648 1.368 1_455 S
C629 H653 0.949 . S
H630 C634 0.949 . S
C631 C632 1.349 . S
C631 C633 1.327 . S
C631 H654 0.950 . S
C632 C631 1.349 . S
C632 C644 1.349 . S
C633 C631 1.327 . S
C633 C649 1.429 . S
C633 H655 0.950 . S
C634 H630 0.949 . S
C634 C642 1.574 . S
C634 C650 1.368 1_655 S
H635 C643 0.950 . S
H636 C641 0.950 . S
H637 C642 0.949 . S
H638 C644 0.950 . S
H639 C645 0.950 . S
H640 C646 0.949 . S
C641 H636 0.950 . S
C641 C643 1.327 . S
C641 C647 1.429 . S
C642 C634 1.574 . S
C642 H637 0.949 . S
C642 C648 1.368 . S
C643 C627 1.349 . S
C643 H635 0.950 . S
C643 C641 1.327 . S
C644 C632 1.349 . S
C644 H638 0.950 . S
C644 C645 1.327 . S
C645 H639 0.950 . S
C645 C644 1.327 . S
C645 C649 1.429 . S
C646 C629 1.574 . S
C646 H640 0.949 . S
C646 C650 1.368 . S
C647 C628 1.429 . S
C647 C641 1.429 . S
C647 C648 1.523 . S
C648 C629 1.368 1_655 S
C648 C642 1.368 . S
C648 C647 1.523 . S
C649 C633 1.429 . S
C649 C645 1.429 . S
C649 C650 1.523 . S
C650 C634 1.368 1_455 S
C650 C646 1.368 . S
C650 C649 1.523 . S
H651 C626 0.950 . S
H652 C628 0.950 . S
H653 C629 0.949 . S
H654 C631 0.950 . S
H655 C633 0.950 . S
C656 C657 1.349 . S
C656 C658 1.327 . S
C656 H681 0.950 . S
C657 C656 1.349 . S
C657 C673 1.349 . S
C658 C656 1.327 . S
C658 C677 1.429 . S
C658 H682 0.950 . S
C659 C676 1.574 . S
C659 C678 1.368 . S
C659 H683 0.949 . S
H660 C664 0.949 . S
C661 C662 1.349 . S
C661 C663 1.327 . S
C661 H684 0.950 . S
C662 C661 1.349 . S
C662 C674 1.349 . S
C663 C661 1.327 . S
C663 C679 1.429 . S
C663 H685 0.950 . S
C664 H660 0.949 . S
C664 C672 1.574 . S
C664 C680 1.368 . S
H665 C673 0.950 . S
H666 C671 0.950 . S
H667 C672 0.949 . S
H668 C674 0.950 . S
H669 C675 0.950 . S
H670 C676 0.949 . S
C671 H666 0.950 . S
C671 C673 1.327 . S
C671 C677 1.429 . S
C672 C664 1.574 . S
C672 H667 0.949 . S
C672 C678 1.368 . S
C673 C657 1.349 . S
C673 H665 0.950 . S
C673 C671 1.327 . S
C674 C662 1.349 . S
C674 H668 0.950 . S
C674 C675 1.327 . S
C675 H669 0.950 . S
C675 C674 1.327 . S
C675 C679 1.429 . S
C676 C659 1.574 . S
C676 H670 0.949 . S
C676 C680 1.368 . S
C677 C658 1.429 . S
C677 C671 1.429 . S
C677 C678 1.523 . S
C678 C659 1.368 . S
C678 C672 1.368 . S
C678 C677 1.523 . S
C679 C663 1.429 . S
C679 C675 1.429 . S
C679 C680 1.523 . S
C680 C664 1.368 . S
C680 C676 1.368 . S
C680 C679 1.523 . S
H681 C656 0.950 . S
H682 C658 0.950 . S
H683 C659 0.949 . S
H684 C661 0.950 . S
H685 C663 0.950 . S
C686 C687 1.349 . S
C686 C688 1.327 . S
C686 H711 0.950 1_655 S
C687 C686 1.349 . S
C687 C703 1.349 . S
C688 C686 1.327 . S
C688 C707 1.429 . S
C688 H712 0.950 . S
C689 C706 1.574 . S
C689 C708 1.368 . S
C689 H713 0.949 . S
H690 C694 0.949 . S
C691 C692 1.349 . S
C691 C693 1.327 . S
C691 H714 0.950 . S
C692 C691 1.349 . S
C692 C704 1.349 . S
C693 C691 1.327 . S
C693 C709 1.429 . S
C693 H715 0.945 1_554 S
C694 H690 0.949 . S
C694 C702 1.574 1_554 S
C694 C710 1.368 . S
H695 C703 0.950 . S
H696 C701 0.950 . S
H697 C702 0.949 1_554 S
H698 C704 0.950 . S
H699 C705 0.950 . S
H700 C706 0.949 . S
C701 H696 0.950 . S
C701 C703 1.327 . S
C701 C707 1.429 . S
C702 C694 1.574 1_556 S
C702 H697 0.949 1_556 S
C702 C708 1.368 . S
C703 C687 1.349 . S
C703 H695 0.950 . S
C703 C701 1.327 . S
C704 C692 1.349 . S
C704 H698 0.950 . S
C704 C705 1.327 . S
C705 H699 0.950 . S
C705 C704 1.327 . S
C705 C709 1.429 . S
C706 C689 1.574 . S
C706 H700 0.949 . S
C706 C710 1.368 1_556 S
C707 C688 1.429 . S
C707 C701 1.429 . S
C707 C708 1.523 . S
C708 C689 1.368 . S
C708 C702 1.368 . S
C708 C707 1.523 . S
C709 C693 1.429 . S
C709 C705 1.429 . S
C709 C710 1.523 . S
C710 C694 1.368 . S
C710 C706 1.368 1_554 S
C710 C709 1.523 . S
H711 C686 0.950 1_455 S
H712 C688 0.950 . S
H713 C689 0.949 . S
H714 C691 0.950 . S
H715 C693 0.945 1_556 S
C716 C717 1.349 . S
C716 C718 1.327 . S
C716 H741 0.950 . S
C717 C716 1.349 . S
C717 C733 1.349 . S
C718 C716 1.327 . S
C718 C737 1.429 . S
C718 H742 0.950 . S
C719 C736 1.574 . S
C719 C738 1.368 . S
C719 H743 0.949 . S
H720 C724 0.949 . S
C721 C722 1.349 . S
C721 C723 1.327 . S
C721 H744 0.950 . S
C722 C721 1.349 . S
C722 C734 1.349 . S
C723 C721 1.327 . S
C723 C739 1.429 . S
C723 H745 0.950 . S
C724 H720 0.949 . S
C724 C732 1.574 . S
C724 C740 1.368 . S
H725 C733 0.950 1_655 S
H726 C731 0.950 . S
H727 C732 0.949 . S
H728 C734 0.950 . S
H729 C735 0.950 . S
H730 C736 0.949 . S
C731 H726 0.950 . S
C731 C733 1.327 . S
C731 C737 1.429 . S
C732 C724 1.574 . S
C732 H727 0.949 . S
C732 C738 1.368 . S
C733 C717 1.349 . S
C733 H725 0.950 1_455 S
C733 C731 1.327 . S
C734 C722 1.349 . S
C734 H728 0.950 . S
C734 C735 1.327 . S
C735 H729 0.950 . S
C735 C734 1.327 . S
C735 C739 1.429 . S
C736 C719 1.574 . S
C736 H730 0.949 . S
C736 C740 1.368 . S
C737 C718 1.429 . S
C737 C731 1.429 . S
C737 C738 1.523 . S
C738 C719 1.368 . S
C738 C732 1.368 . S
C738 C737 1.523 . S
C739 C723 1.429 . S
C739 C735 1.429 . S
C739 C740 1.523 . S
C740 C724 1.368 . S
C740 C736 1.368 . S
C740 C739 1.523 . S
H741 C716 0.950 . S
H742 C718 0.950 . S
H743 C719 0.949 . S
H744 C721 0.950 . S
H745 C723 0.950 . S
C746 C747 1.349 . S
C746 C748 1.327 . S
C746 H771 0.950 . S
C747 C746 1.349 . S
C747 C763 1.349 . S
C748 C746 1.327 . S
C748 C767 1.429 . S
C748 H772 0.950 . S
C749 C766 1.574 . S
C749 C768 1.368 . S
C749 H773 0.949 . S
H750 C754 0.949 . S
C751 C752 1.349 . S
C751 C753 1.327 . S
C751 H774 0.950 . S
C752 C751 1.349 . S
C752 C764 1.349 . S
C753 C751 1.327 . S
C753 C769 1.429 . S
C753 H775 0.950 . S
C754 H750 0.949 . S
C754 C762 1.574 1_556 S
C754 C770 1.368 . S
H755 C763 0.950 . S
H756 C761 0.950 . S
H757 C762 0.949 . S
H758 C764 0.950 . S
H759 C765 0.950 . S
H760 C766 0.949 . S
C761 H756 0.950 . S
C761 C763 1.327 . S
C761 C767 1.429 . S
C762 C754 1.574 1_554 S
C762 H757 0.949 . S
C762 C768 1.368 . S
C763 C747 1.349 . S
C763 H755 0.950 . S
C763 C761 1.327 . S
C764 C752 1.349 . S
C764 H758 0.950 . S
C764 C765 1.327 . S
C765 H759 0.950 . S
C765 C764 1.327 . S
C765 C769 1.429 . S
C766 C749 1.574 . S
C766 H760 0.949 . S
C766 C770 1.368 1_554 S
C767 C748 1.429 . S
C767 C761 1.429 . S
C767 C768 1.523 . S
C768 C749 1.368 . S
C768 C762 1.368 . S
C768 C767 1.523 . S
C769 C753 1.429 . S
C769 C765 1.429 . S
C769 C770 1.523 . S
C770 C754 1.368 . S
C770 C766 1.368 1_556 S
C770 C769 1.523 . S
H771 C746 0.950 . S
H772 C748 0.950 . S
H773 C749 0.949 . S
H774 C751 0.950 . S
H775 C753 0.950 . S
C776 C777 1.349 . S
C776 C778 1.327 . S
C776 H801 0.950 . S
C777 C776 1.349 . S
C777 C793 1.349 . S
C778 C776 1.327 . S
C778 C797 1.429 . S
C778 H802 0.950 . S
C779 C796 1.574 . S
C779 C798 1.368 . S
C779 H803 0.949 . S
H780 C784 0.949 . S
C781 C782 1.349 . S
C781 C783 1.327 . S
C781 H804 0.950 . S
C782 C781 1.349 . S
C782 C794 1.349 . S
C783 C781 1.327 . S
C783 C799 1.429 . S
C783 H805 0.950 . S
C784 H780 0.949 . S
C784 C792 1.574 . S
C784 C800 1.368 . S
H785 C793 0.950 . S
H786 C791 0.950 . S
H787 C792 0.949 . S
H788 C794 0.950 . S
H789 C795 0.950 . S
H790 C796 0.949 . S
C791 H786 0.950 . S
C791 C793 1.327 . S
C791 C797 1.429 . S
C792 C784 1.574 . S
C792 H787 0.949 . S
C792 C798 1.368 . S
C793 C777 1.349 . S
C793 H785 0.950 . S
C793 C791 1.327 . S
C794 C782 1.349 . S
C794 H788 0.950 . S
C794 C795 1.327 . S
C795 H789 0.950 . S
C795 C794 1.327 . S
C795 C799 1.429 . S
C796 C779 1.574 . S
C796 H790 0.949 . S
C796 C800 1.368 . S
C797 C778 1.429 . S
C797 C791 1.429 . S
C797 C798 1.523 . S
C798 C779 1.368 . S
C798 C792 1.368 . S
C798 C797 1.523 . S
C799 C783 1.429 . S
C799 C795 1.429 . S
C799 C800 1.523 . S
C800 C784 1.368 . S
C800 C796 1.368 . S
C800 C799 1.523 . S
H801 C776 0.950 . S
H802 C778 0.950 . S
H803 C779 0.949 . S
H804 C781 0.950 . S
H805 C783 0.950 . S
C806 C807 1.349 . S
C806 C808 1.327 . S
C806 H831 0.950 1_455 S
C807 C806 1.349 . S
C807 C823 1.349 . S
C808 C806 1.327 . S
C808 C827 1.429 . S
C808 H832 0.950 . S
C809 C826 1.574 . S
C809 C828 1.368 . S
C809 H833 0.949 . S
H810 C814 0.961 . S
C811 C812 1.349 . S
C811 C813 1.327 . S
C811 H834 0.950 . S
C812 C811 1.349 . S
C812 C824 1.349 . S
C813 C811 1.327 . S
C813 C829 1.429 . S
C813 H835 0.950 . S
C814 H810 0.961 . S
C814 C822 1.556 1_556 S
C814 C830 1.374 . S
H815 C823 0.950 . S
H816 C821 0.950 . S
H817 C822 0.949 . S
H818 C824 0.950 . S
H819 C825 0.950 . S
H820 C826 0.949 1_556 S
C821 H816 0.950 . S
C821 C823 1.327 . S
C821 C827 1.429 . S
C822 C814 1.556 1_554 S
C822 H817 0.949 . S
C822 C828 1.368 . S
C823 C807 1.349 . S
C823 H815 0.950 . S
C823 C821 1.327 . S
C824 C812 1.349 . S
C824 H818 0.950 . S
C824 C825 1.327 . S
C825 H819 0.950 . S
C825 C824 1.327 . S
C825 C829 1.429 . S
C826 C809 1.574 . S
C826 H820 0.949 1_554 S
C826 C830 1.368 1_554 S
C827 C808 1.429 . S
C827 C821 1.429 . S
C827 C828 1.523 . S
C828 C809 1.368 . S
C828 C822 1.368 . S
C828 C827 1.523 . S
C829 C813 1.429 . S
C829 C825 1.429 . S
C829 C830 1.523 . S
C830 C814 1.374 . S
C830 C826 1.368 1_556 S
C830 C829 1.523 . S
H831 C806 0.950 1_655 S
H832 C808 0.950 . S
H833 C809 0.949 . S
H834 C811 0.950 . S
H835 C813 0.950 . S
C836 C837 1.349 . S
C836 C838 1.327 . S
C836 H861 0.950 1_655 S
C837 C836 1.349 . S
C837 C853 1.349 . S
C838 C836 1.327 . S
C838 C857 1.429 . S
C838 H862 0.950 . S
C839 C856 1.574 . S
C839 C858 1.368 . S
C839 H863 0.949 . S
H840 C844 0.949 . S
C841 C842 1.349 . S
C841 C843 1.327 . S
C841 H864 0.950 . S
C842 C841 1.349 . S
C842 C854 1.349 . S
C843 C841 1.327 . S
C843 C859 1.429 . S
C843 H865 0.950 . S
C844 H840 0.949 . S
C844 C852 1.574 . S
C844 C860 1.368 . S
H845 C853 0.950 . S
H846 C851 0.950 . S
H847 C852 0.949 . S
H848 C854 0.950 . S
H849 C855 0.950 . S
H850 C856 0.949 . S
C851 H846 0.950 . S
C851 C853 1.327 . S
C851 C857 1.429 . S
C852 C844 1.574 . S
C852 H847 0.949 . S
C852 C858 1.368 . S
C853 C837 1.349 . S
C853 H845 0.950 . S
C853 C851 1.327 . S
C854 C842 1.349 . S
C854 H848 0.950 . S
C854 C855 1.327 . S
C855 H849 0.950 . S
C855 C854 1.327 . S
C855 C859 1.429 . S
C856 C839 1.574 . S
C856 H850 0.949 . S
C856 C860 1.368 . S
C857 C838 1.429 . S
C857 C851 1.429 . S
C857 C858 1.523 . S
C858 C839 1.368 . S
C858 C852 1.368 . S
C858 C857 1.523 . S
C859 C843 1.429 . S
C859 C855 1.429 . S
C859 C860 1.523 . S
C860 C844 1.368 . S
C860 C856 1.368 . S
C860 C859 1.523 . S
H861 C836 0.950 1_455 S
H862 C838 0.950 . S
H863 C839 0.949 . S
H864 C841 0.950 . S
H865 C843 0.950 . S
C866 C867 1.349 . S
C866 C868 1.327 . S
C866 H891 0.950 . S
C867 C866 1.349 . S
C867 C883 1.349 . S
C868 C866 1.327 . S
C868 C887 1.429 . S
C868 H892 0.950 . S
C869 C886 1.574 1_554 S
C869 C888 1.368 . S
C869 H893 0.949 . S
H870 C874 0.949 . S
C871 C872 1.349 . S
C871 C873 1.327 . S
C871 H894 0.950 . S
C872 C871 1.349 . S
C872 C884 1.349 . S
C873 C871 1.327 . S
C873 C889 1.429 . S
C873 H895 0.950 . S
C874 H870 0.949 . S
C874 C882 1.574 . S
C874 C890 1.368 . S
H875 C883 0.950 . S
H876 C881 0.950 . S
H877 C882 0.949 . S
H878 C884 0.950 . S
H879 C885 0.950 . S
H880 C886 0.959 . S
C881 H876 0.950 . S
C881 C883 1.327 . S
C881 C887 1.429 . S
C882 C874 1.574 . S
C882 H877 0.949 . S
C882 C888 1.368 1_556 S
C883 C867 1.349 . S
C883 H875 0.950 . S
C883 C881 1.327 . S
C884 C872 1.349 . S
C884 H878 0.950 . S
C884 C885 1.327 . S
C885 H879 0.950 . S
C885 C884 1.327 . S
C885 C889 1.429 . S
C886 C869 1.574 1_556 S
C886 H880 0.959 . S
C886 C890 1.368 . S
C887 C868 1.429 . S
C887 C881 1.429 . S
C887 C888 1.523 . S
C888 C869 1.368 . S
C888 C882 1.368 1_554 S
C888 C887 1.523 . S
C889 C873 1.429 . S
C889 C885 1.429 . S
C889 C890 1.523 . S
C890 C874 1.368 . S
C890 C886 1.368 . S
C890 C889 1.523 . S
H891 C866 0.950 . S
H892 C868 0.950 . S
H893 C869 0.949 . S
H894 C871 0.950 . S
H895 C873 0.950 . S
C177 C153 1.499 . S
C182 C10 1.483 . S
C207 C30 1.483 . S
C212 C169 1.499 . S
C237 C109 1.499 . S
C242 C54 1.483 . S
C267 C76 1.483 . S
C272 C131 1.499 . S
C297 C65 1.499 . S
C302 C98 1.483 . S
C327 C120 1.483 . S
C332 C87 1.499 . S
C357 C21 1.499 . S
C362 C142 1.483 . S
C387 C29 1.499 . S
C392 C172 1.483 . S
C417 C7 0.774 . S
C422 C95 0.774 . S
C447 C117 0.774 . S
C452 C37 0.774 . S
C477 C51 0.774 . S
C482 C139 0.774 . S
C507 C175 0.774 . S
C512 C73 0.774 . S
C537 C74 1.551 . S
C542 C8 1.551 . S
C567 C40 1.551 . S
C572 C52 1.551 . S
C597 C164 1.551 . S
C602 C96 1.551 . S
C627 C118 1.551 . S
C632 C140 1.551 . S
C657 C18 1.423 . S
C662 C59 1.446 . S
C687 C32 1.423 1_655 S
C692 C81 1.446 . S
C717 C62 1.423 1_455 S
C722 C15 1.446 . S
C747 C84 1.423 . S
C752 C43 1.446 . S
C777 C106 1.423 . S
C782 C147 1.446 . S
C807 C128 1.423 1_455 S
C812 C161 1.446 . S
C837 C150 1.423 1_655 S
C842 C103 1.446 . S
C867 C125 1.446 . S
C872 C162 1.423 . S
