# Generated by pormake.
# Topology fnd, (5)-cn, num edge types: 1
# Building blocks:
#     Node 0, Type 0, BuildingBlock: XOMCOT_clean_sbu_1, # of connection points: 5
#     Node 1, Type 0, BuildingBlock: XOMCOT_clean_sbu_1, # of connection points: 5
#     Node 2, Type 0, BuildingBlock: XOMCOT_clean_sbu_1, # of connection points: 5
#     Node 3, Type 0, BuildingBlock: XOMCOT_clean_sbu_1, # of connection points: 5
#     Node 4, Type 0, BuildingBlock: XOMCOT_clean_sbu_1, # of connection points: 5
#     Node 5, Type 0, BuildingBlock: XOMCOT_clean_sbu_1, # of connection points: 5
#     Node 6, Type 0, BuildingBlock: XOMCOT_clean_sbu_1, # of connection points: 5
#     Node 7, Type 0, BuildingBlock: XOMCOT_clean_sbu_1, # of connection points: 5
#     Node 8, Type 0, BuildingBlock: XOMCOT_clean_sbu_1, # of connection points: 5
#     Node 9, Type 0, BuildingBlock: XOMCOT_clean_sbu_1, # of connection points: 5
#     Node 10, Type 0, BuildingBlock: XOMCOT_clean_sbu_1, # of connection points: 5
#     Node 11, Type 0, BuildingBlock: XOMCOT_clean_sbu_1, # of connection points: 5
#     Node 12, Type 0, BuildingBlock: XOMCOT_clean_sbu_1, # of connection points: 5
#     Node 13, Type 0, BuildingBlock: XOMCOT_clean_sbu_1, # of connection points: 5
#     Node 14, Type 0, BuildingBlock: XOMCOT_clean_sbu_1, # of connection points: 5
#     Node 15, Type 0, BuildingBlock: XOMCOT_clean_sbu_1, # of connection points: 5
#     Node 16, Type 0, BuildingBlock: XOMCOT_clean_sbu_1, # of connection points: 5
#     Node 17, Type 0, BuildingBlock: XOMCOT_clean_sbu_1, # of connection points: 5
#     Edge 18, Type (0, 0), BuildingBlock: OJICUG_clean_linker_0, # of connection points: 2
#     Edge 19, Type (0, 0), BuildingBlock: OJICUG_clean_linker_0, # of connection points: 2
#     Edge 20, Type (0, 0), BuildingBlock: OJICUG_clean_linker_0, # of connection points: 2
#     Edge 21, Type (0, 0), BuildingBlock: OJICUG_clean_linker_0, # of connection points: 2
#     Edge 22, Type (0, 0), BuildingBlock: OJICUG_clean_linker_0, # of connection points: 2
#     Edge 23, Type (0, 0), BuildingBlock: OJICUG_clean_linker_0, # of connection points: 2
#     Edge 24, Type (0, 0), BuildingBlock: OJICUG_clean_linker_0, # of connection points: 2
#     Edge 25, Type (0, 0), BuildingBlock: OJICUG_clean_linker_0, # of connection points: 2
#     Edge 26, Type (0, 0), BuildingBlock: OJICUG_clean_linker_0, # of connection points: 2
#     Edge 27, Type (0, 0), BuildingBlock: OJICUG_clean_linker_0, # of connection points: 2
#     Edge 28, Type (0, 0), BuildingBlock: OJICUG_clean_linker_0, # of connection points: 2
#     Edge 29, Type (0, 0), BuildingBlock: OJICUG_clean_linker_0, # of connection points: 2
#     Edge 30, Type (0, 0), BuildingBlock: OJICUG_clean_linker_0, # of connection points: 2
#     Edge 31, Type (0, 0), BuildingBlock: OJICUG_clean_linker_0, # of connection points: 2
#     Edge 32, Type (0, 0), BuildingBlock: OJICUG_clean_linker_0, # of connection points: 2
#     Edge 33, Type (0, 0), BuildingBlock: OJICUG_clean_linker_0, # of connection points: 2
#     Edge 34, Type (0, 0), BuildingBlock: OJICUG_clean_linker_0, # of connection points: 2
#     Edge 35, Type (0, 0), BuildingBlock: OJICUG_clean_linker_0, # of connection points: 2
#     Edge 36, Type (0, 0), BuildingBlock: OJICUG_clean_linker_0, # of connection points: 2
#     Edge 37, Type (0, 0), BuildingBlock: OJICUG_clean_linker_0, # of connection points: 2
#     Edge 38, Type (0, 0), BuildingBlock: OJICUG_clean_linker_0, # of connection points: 2
#     Edge 39, Type (0, 0), BuildingBlock: OJICUG_clean_linker_0, # of connection points: 2
#     Edge 40, Type (0, 0), BuildingBlock: OJICUG_clean_linker_0, # of connection points: 2
#     Edge 41, Type (0, 0), BuildingBlock: OJICUG_clean_linker_0, # of connection points: 2
#     Edge 42, Type (0, 0), BuildingBlock: OJICUG_clean_linker_0, # of connection points: 2
#     Edge 43, Type (0, 0), BuildingBlock: OJICUG_clean_linker_0, # of connection points: 2
#     Edge 44, Type (0, 0), BuildingBlock: OJICUG_clean_linker_0, # of connection points: 2
#     Edge 45, Type (0, 0), BuildingBlock: OJICUG_clean_linker_0, # of connection points: 2
#     Edge 46, Type (0, 0), BuildingBlock: OJICUG_clean_linker_0, # of connection points: 2
#     Edge 47, Type (0, 0), BuildingBlock: OJICUG_clean_linker_0, # of connection points: 2
#     Edge 48, Type (0, 0), BuildingBlock: OJICUG_clean_linker_0, # of connection points: 2
#     Edge 49, Type (0, 0), BuildingBlock: OJICUG_clean_linker_0, # of connection points: 2
#     Edge 50, Type (0, 0), BuildingBlock: OJICUG_clean_linker_0, # of connection points: 2
#     Edge 51, Type (0, 0), BuildingBlock: OJICUG_clean_linker_0, # of connection points: 2
#     Edge 52, Type (0, 0), BuildingBlock: OJICUG_clean_linker_0, # of connection points: 2
#     Edge 53, Type (0, 0), BuildingBlock: OJICUG_clean_linker_0, # of connection points: 2
#     Edge 54, Type (0, 0), BuildingBlock: OJICUG_clean_linker_0, # of connection points: 2
#     Edge 55, Type (0, 0), BuildingBlock: OJICUG_clean_linker_0, # of connection points: 2
#     Edge 56, Type (0, 0), BuildingBlock: OJICUG_clean_linker_0, # of connection points: 2
#     Edge 57, Type (0, 0), BuildingBlock: OJICUG_clean_linker_0, # of connection points: 2
#     Edge 58, Type (0, 0), BuildingBlock: OJICUG_clean_linker_0, # of connection points: 2
#     Edge 59, Type (0, 0), BuildingBlock: OJICUG_clean_linker_0, # of connection points: 2
#     Edge 60, Type (0, 0), BuildingBlock: OJICUG_clean_linker_0, # of connection points: 2
#     Edge 61, Type (0, 0), BuildingBlock: OJICUG_clean_linker_0, # of connection points: 2
#     Edge 62, Type (0, 0), BuildingBlock: OJICUG_clean_linker_0, # of connection points: 2
# Relax obj value: 0.035
# Max RMSD: 0.082
# Mean RMSD: 0.082
data_MOF--net-fnd--node1-XOMCOT_clean_sbu_1--edge1-OJICUG_clean_linker_0
_symmetry_space_group_name_H-M    P1
_symmetry_Int_Tables_number       1
_symmetry_cell_setting            triclinic
loop_
_symmetry_equiv_pos_as_xyz
'x, y, z'
_cell_length_a     62.744038
_cell_length_b     62.72075
_cell_length_c     13.566985
_cell_angle_alpha  89.927103
_cell_angle_beta   89.894123
_cell_angle_gamma 119.94359
loop_
_atom_site_label
_atom_site_type_symbol
_atom_site_fract_x
_atom_site_fract_y
_atom_site_fract_z
_atom_type_partial_charge
C0 C 0.14783 0.27906 0.59345 0.0
C1 C 0.14737 0.28102 0.69444 0.0
N2 N 0.1262 0.26202 0.72879 0.0
N3 N 0.12701 0.25899 0.56372 0.0
C4 C 0.11414 0.2491 0.64777 0.0
H5 H 0.16285 0.29097 0.54519 0.0
Co6 Co 0.12052 0.24707 0.43457 0.0
C7 C 0.06795 0.2062 0.4452 0.0
O8 O 0.07342 0.19172 0.39502 0.0
N9 N 0.11434 0.23507 0.30016 0.0
C10 C 0.11098 0.21325 0.16476 0.0
C11 C 0.11326 0.21429 0.2653 0.0
C12 C 0.11248 0.24619 0.21692 0.0
N13 N 0.1107 0.23345 0.13393 0.0
O14 O 0.11781 0.27551 0.39712 0.0
H15 H 0.11433 0.20047 0.30908 0.0
H16 H 0.11269 0.26349 0.21584 0.0
O17 O 0.0848 0.22817 0.46558 0.0
C18 C 0.1379 0.29242 0.3595 0.0
O19 O 0.15578 0.2877 0.34325 0.0
N20 N 0.12682 0.22172 0.47386 0.0
C21 C 0.14545 0.1907 0.52272 0.0
C22 C 0.1229 0.18652 0.56176 0.0
C23 C 0.11391 0.20234 0.53674 0.0
C24 C 0.14938 0.22677 0.44033 0.0
C25 C 0.15876 0.21128 0.46191 0.0
H26 H 0.09685 0.19911 0.56927 0.0
H27 H 0.16 0.24286 0.39474 0.0
H28 H 0.09651 0.23235 0.64995 0.0
H29 H 0.16212 0.29462 0.73938 0.0
H30 H 0.11074 0.19922 0.11764 0.0
H31 H 0.11228 0.1711 0.61067 0.0
H32 H 0.17655 0.21565 0.43248 0.0
C33 C 0.76883 0.89967 0.52609 0.0
C34 C 0.76808 0.90061 0.62743 0.0
N35 N 0.77495 0.88505 0.66493 0.0
N36 N 0.77635 0.88377 0.49978 0.0
C37 C 0.77967 0.87494 0.58588 0.0
H38 H 0.76473 0.91032 0.47467 0.0
Co39 Co 0.78238 0.87801 0.37089 0.0
C40 C 0.82374 0.86791 0.39359 0.0
O41 O 0.8359 0.88455 0.32541 0.0
N42 N 0.7877 0.87145 0.23829 0.0
C43 C 0.78948 0.85023 0.10966 0.0
C44 C 0.7895 0.8517 0.21056 0.0
C45 C 0.78561 0.88105 0.15146 0.0
N46 N 0.78686 0.86865 0.07201 0.0
O47 O 0.75251 0.84619 0.37584 0.0
H48 H 0.78945 0.83822 0.26034 0.0
H49 H 0.7811 0.89546 0.14586 0.0
O50 O 0.80223 0.86344 0.41963 0.0
C51 C 0.73486 0.84472 0.32383 0.0
O52 O 0.73886 0.86354 0.2684 0.0
N53 N 0.80994 0.91067 0.36798 0.0
C54 C 0.84039 0.96199 0.39025 0.0
C55 C 0.84381 0.94538 0.44857 0.0
C56 C 0.82826 0.91987 0.43717 0.0
C57 C 0.80639 0.92661 0.31149 0.0
C58 C 0.82179 0.95205 0.31868 0.0
H59 H 0.82977 0.90774 0.48963 0.0
H60 H 0.79011 0.91989 0.26723 0.0
H61 H 0.78622 0.86196 0.59085 0.0
H62 H 0.76294 0.91192 0.67009 0.0
H63 H 0.7905 0.8361 0.06787 0.0
H64 H 0.85724 0.9519 0.50733 0.0
H65 H 0.81811 0.96378 0.27169 0.0
C66 C 0.13468 0.87798 0.5676 0.0
C67 C 0.13313 0.8762 0.66881 0.0
N68 N 0.14643 0.89899 0.7072 0.0
N69 N 0.1488 0.90175 0.54172 0.0
C70 C 0.15589 0.91408 0.62804 0.0
H71 H 0.12543 0.86301 0.51587 0.0
Co72 Co 0.15367 0.91337 0.41266 0.0
C73 C 0.16571 0.96548 0.43359 0.0
O74 O 0.14919 0.96157 0.36592 0.0
N75 N 0.15907 0.925 0.28022 0.0
C76 C 0.17981 0.94694 0.14849 0.0
C77 C 0.17953 0.94558 0.24947 0.0
C78 C 0.14765 0.91375 0.1952 0.0
N79 N 0.15984 0.9268 0.11425 0.0
O80 O 0.18527 0.9147 0.41113 0.0
H81 H 0.19424 0.95817 0.29708 0.0
H82 H 0.13155 0.89571 0.19154 0.0
O83 O 0.16928 0.9479 0.4603 0.0
C84 C 0.18685 0.89932 0.35406 0.0
O85 O 0.16812 0.88532 0.29711 0.0
N86 N 0.12131 0.90882 0.41596 0.0
C87 C 0.07055 0.8885 0.44982 0.0
C88 C 0.08775 0.91008 0.49802 0.0
C89 C 0.11304 0.91959 0.48202 0.0
C90 C 0.10474 0.88791 0.36852 0.0
C91 C 0.07943 0.87772 0.38289 0.0
H92 H 0.12575 0.93436 0.52885 0.0
H93 H 0.11113 0.87764 0.32624 0.0
H94 H 0.1675 0.9338 0.63255 0.0
H95 H 0.12233 0.8594 0.71022 0.0
H96 H 0.19448 0.9608 0.10355 0.0
H97 H 0.08181 0.91851 0.55311 0.0
H98 H 0.06695 0.86078 0.3454 0.0
C99 C 0.26863 0.14872 0.48038 0.0
C100 C 0.26932 0.15047 0.37906 0.0
N101 N 0.26308 0.12822 0.34154 0.0
N102 N 0.26177 0.12544 0.50668 0.0
C103 C 0.25879 0.11344 0.42057 0.0
H104 H 0.27227 0.16331 0.53181 0.0
Co105 Co 0.25587 0.11365 0.6357 0.0
C106 C 0.2156 0.06181 0.61485 0.0
O107 O 0.20349 0.06597 0.68424 0.0
N108 N 0.25076 0.1019 0.76827 0.0
C109 C 0.25017 0.07951 0.89723 0.0
C110 C 0.25005 0.08087 0.79638 0.0
C111 C 0.25228 0.11343 0.8548 0.0
N112 N 0.25178 0.10014 0.93454 0.0
O113 O 0.28629 0.11269 0.63211 0.0
H114 H 0.25083 0.0678 0.74683 0.0
H115 H 0.25585 0.13207 0.85979 0.0
O116 O 0.23683 0.07912 0.58734 0.0
C117 C 0.30361 0.1293 0.68382 0.0
O118 O 0.29906 0.14408 0.73683 0.0
N119 N 0.22756 0.11759 0.63716 0.0
C120 C 0.19464 0.13533 0.61161 0.0
C121 C 0.19273 0.11587 0.55415 0.0
C122 C 0.20952 0.10753 0.567 0.0
C123 C 0.22978 0.13675 0.69254 0.0
C124 C 0.21322 0.14544 0.68292 0.0
H125 H 0.20902 0.09424 0.51518 0.0
H126 H 0.2458 0.14705 0.73765 0.0
H127 H 0.25274 0.09403 0.41559 0.0
H128 H 0.27397 0.16682 0.3364 0.0
H129 H 0.24994 0.06473 0.9392 0.0
H130 H 0.17907 0.10789 0.49646 0.0
H131 H 0.21618 0.16127 0.72563 0.0
C132 C 0.89518 0.15978 0.43527 0.0
C133 C 0.89644 0.16238 0.33429 0.0
N134 N 0.91464 0.15878 0.30072 0.0
N135 N 0.9126 0.15473 0.46588 0.0
C136 C 0.9242 0.15429 0.3823 0.0
H137 H 0.88179 0.16061 0.48295 0.0
Co138 Co 0.91664 0.14718 0.59537 0.0
C139 C 0.96922 0.15932 0.60819 0.0
O140 O 0.96317 0.14151 0.67231 0.0
N141 N 0.92017 0.13913 0.72962 0.0
C142 C 0.91782 0.1178 0.86537 0.0
C143 C 0.91527 0.11689 0.76493 0.0
C144 C 0.92588 0.15325 0.81217 0.0
N145 N 0.92427 0.14061 0.89556 0.0
O146 O 0.91994 0.17834 0.63699 0.0
H147 H 0.90984 0.10055 0.72188 0.0
H148 H 0.93076 0.17238 0.81208 0.0
O149 O 0.95256 0.16313 0.57223 0.0
C150 C 0.90082 0.17612 0.68043 0.0
O151 O 0.88271 0.15393 0.70107 0.0
N152 N 0.91001 0.11583 0.55136 0.0
C153 C 0.88955 0.06662 0.49112 0.0
C154 C 0.91483 0.08343 0.47876 0.0
C155 C 0.92472 0.10808 0.50859 0.0
C156 C 0.88543 0.09995 0.56147 0.0
C157 C 0.87495 0.07536 0.53366 0.0
H158 H 0.94392 0.12077 0.49495 0.0
H159 H 0.87393 0.10646 0.59353 0.0
H160 H 0.939 0.15016 0.38113 0.0
H161 H 0.88402 0.16539 0.28882 0.0
H162 H 0.914 0.10243 0.91298 0.0
H163 H 0.92679 0.07778 0.44424 0.0
H164 H 0.85548 0.06328 0.5466 0.0
C165 C 0.90373 0.76333 0.43748 0.0
C166 C 0.90489 0.76265 0.33618 0.0
N167 N 0.88997 0.77026 0.29822 0.0
N168 N 0.88833 0.77152 0.46333 0.0
C169 C 0.88003 0.77534 0.37693 0.0
H170 H 0.91399 0.75882 0.48921 0.0
Co171 Co 0.88328 0.77831 0.59218 0.0
C172 C 0.87222 0.81901 0.56818 0.0
O173 O 0.88899 0.83144 0.63518 0.0
N174 N 0.87752 0.78435 0.72457 0.0
C175 C 0.85621 0.78566 0.85381 0.0
C176 C 0.85754 0.78564 0.75305 0.0
C177 C 0.88748 0.78264 0.81096 0.0
N178 N 0.87492 0.78349 0.89095 0.0
O179 O 0.85172 0.74805 0.59424 0.0
H180 H 0.84369 0.78499 0.70397 0.0
H181 H 0.90231 0.77869 0.81555 0.0
O182 O 0.8679 0.79749 0.54302 0.0
C183 C 0.85249 0.73122 0.64476 0.0
O184 O 0.87315 0.73637 0.68861 0.0
N185 N 0.91569 0.80617 0.58927 0.0
C186 C 0.9665 0.83675 0.55661 0.0
C187 C 0.94927 0.84024 0.50373 0.0
C188 C 0.92399 0.82441 0.51938 0.0
C189 C 0.9323 0.80275 0.64154 0.0
C190 C 0.95762 0.81798 0.62774 0.0
H191 H 0.9113 0.82572 0.46959 0.0
H192 H 0.92604 0.78669 0.68742 0.0
H193 H 0.86767 0.78263 0.37144 0.0
H194 H 0.91595 0.75711 0.29383 0.0
H195 H 0.84185 0.78625 0.89578 0.0
H196 H 0.95521 0.85388 0.44554 0.0
H197 H 0.97014 0.81422 0.66907 0.0
C198 C 0.81369 0.61623 0.92502 0.0
C199 C 0.81298 0.61805 0.02601 0.0
N200 N 0.79271 0.59797 0.0603 0.0
N201 N 0.79393 0.59516 0.89526 0.0
C202 C 0.78142 0.58451 0.97926 0.0
H203 H 0.82819 0.62904 0.87674 0.0
Co204 Co 0.78808 0.58327 0.76612 0.0
C205 C 0.73547 0.54225 0.77008 0.0
O206 O 0.74095 0.52899 0.71193 0.0
N207 N 0.78263 0.57134 0.63167 0.0
C208 C 0.78112 0.55034 0.49609 0.0
C209 C 0.78345 0.55151 0.59658 0.0
C210 C 0.77958 0.58174 0.54863 0.0
N211 N 0.7789 0.56949 0.46549 0.0
O212 O 0.78495 0.61148 0.72748 0.0
H213 H 0.78565 0.53834 0.64014 0.0
H214 H 0.77814 0.59818 0.54789 0.0
O215 O 0.75231 0.56378 0.79603 0.0
C216 C 0.8046 0.62857 0.68771 0.0
O217 O 0.82273 0.62433 0.66945 0.0
N218 N 0.79463 0.55817 0.8068 0.0
C219 C 0.81304 0.52696 0.8555 0.0
C220 C 0.78972 0.52185 0.88865 0.0
C221 C 0.78083 0.53776 0.86372 0.0
C222 C 0.81789 0.56409 0.77948 0.0
C223 C 0.82723 0.54855 0.80107 0.0
H224 H 0.76309 0.53368 0.89151 0.0
H225 H 0.82906 0.58084 0.7382 0.0
H226 H 0.76462 0.56693 0.9813 0.0
H227 H 0.827 0.63244 0.07096 0.0
H228 H 0.78213 0.53698 0.44883 0.0
H229 H 0.77838 0.5056 0.93256 0.0
H230 H 0.84557 0.55356 0.77626 0.0
C231 C 0.41855 0.20295 0.92326 0.0
C232 C 0.41704 0.20033 0.02422 0.0
N233 N 0.43828 0.20255 0.05759 0.0
N234 N 0.44056 0.20664 0.8925 0.0
C235 C 0.45216 0.20625 0.97593 0.0
H236 H 0.40479 0.20303 0.87565 0.0
Co237 Co 0.45215 0.2135 0.7629 0.0
C238 C 0.49204 0.20043 0.75351 0.0
O239 O 0.50473 0.21853 0.69158 0.0
N240 N 0.46378 0.22086 0.62841 0.0
C241 C 0.48364 0.24148 0.49253 0.0
C242 C 0.48213 0.24255 0.59296 0.0
C243 C 0.45462 0.2069 0.54587 0.0
N244 N 0.46619 0.21913 0.46244 0.0
O245 O 0.42398 0.18244 0.72351 0.0
H246 H 0.49393 0.25861 0.63598 0.0
H247 H 0.43948 0.18819 0.54593 0.0
O248 O 0.47147 0.19695 0.78711 0.0
C249 C 0.4069 0.18451 0.68128 0.0
O250 O 0.41103 0.2066 0.6581 0.0
N251 N 0.47723 0.24478 0.80526 0.0
C252 C 0.50665 0.294 0.86371 0.0
C253 C 0.51439 0.27671 0.87934 0.0
C254 C 0.49926 0.25204 0.85059 0.0
C255 C 0.46928 0.26119 0.79163 0.0
C256 C 0.48372 0.28579 0.81872 0.0
H257 H 0.50512 0.23895 0.86721 0.0
H258 H 0.45155 0.25507 0.75781 0.0
H259 H 0.47067 0.2092 0.97691 0.0
H260 H 0.40194 0.19825 0.0698 0.0
H261 H 0.49595 0.2565 0.44488 0.0
H262 H 0.53166 0.282 0.91586 0.0
H263 H 0.47693 0.29829 0.80372 0.0
C264 C 0.80965 0.2113 0.9151 0.0
C265 C 0.80816 0.20955 1.01641 0.0
N266 N 0.81367 0.23169 0.05335 0.0
N267 N 0.81609 0.2344 0.88807 0.0
C268 C 0.81839 0.24637 0.97361 0.0
H269 H 0.80643 0.19674 0.86418 0.0
Co270 Co 0.82039 0.24564 0.7588 0.0
C271 C 0.8319 0.29757 0.77499 0.0
O272 O 0.8155 0.29305 0.70601 0.0
N273 N 0.82543 0.25693 0.62637 0.0
C274 C 0.84683 0.27826 0.49506 0.0
C275 C 0.84652 0.27679 0.59579 0.0
C276 C 0.81345 0.24628 0.5415 0.0
N277 N 0.82608 0.25899 0.46045 0.0
O278 O 0.85219 0.2474 0.75648 0.0
H279 H 0.86157 0.28873 0.64354 0.0
H280 H 0.79649 0.22893 0.53828 0.0
O281 O 0.83565 0.28031 0.80482 0.0
C282 C 0.85275 0.23107 0.70201 0.0
O283 O 0.8331 0.21627 0.65094 0.0
N284 N 0.78785 0.24047 0.76244 0.0
C285 C 0.73698 0.21918 0.79589 0.0
C286 C 0.75378 0.24153 0.84057 0.0
C287 C 0.77914 0.25159 0.82467 0.0
C288 C 0.77169 0.21888 0.71803 0.0
C289 C 0.74632 0.20819 0.73219 0.0
H290 H 0.79156 0.26721 0.8685 0.0
H291 H 0.77857 0.20875 0.67753 0.0
H292 H 0.82315 0.26544 0.97725 0.0
H293 H 0.80388 0.19332 0.05919 0.0
H294 H 0.86203 0.29159 0.45067 0.0
H295 H 0.74753 0.25027 0.89289 0.0
H296 H 0.73419 0.1908 0.69684 0.0
C297 C 0.93434 0.48192 0.81463 0.0
C298 C 0.93522 0.48377 0.71332 0.0
N299 N 0.92839 0.4614 0.67556 0.0
N300 N 0.92679 0.45848 0.84068 0.0
C301 C 0.92357 0.44646 0.75445 0.0
H302 H 0.93835 0.49658 0.86621 0.0
Co303 Co 0.92052 0.44664 0.96964 0.0
C304 C 0.87972 0.39503 0.94655 0.0
O305 O 0.86725 0.39937 1.0137 0.0
N306 N 0.91506 0.43484 0.10229 0.0
C307 C 0.91336 0.41204 0.23166 0.0
C308 C 0.91321 0.41331 0.13079 0.0
C309 C 0.91738 0.44673 0.18865 0.0
N310 N 0.91618 0.43319 0.2686 0.0
O311 O 0.9506 0.44511 0.96681 0.0
H312 H 0.91325 0.39979 0.08164 0.0
H313 H 0.92207 0.46573 0.19333 0.0
O314 O 0.90123 0.41217 0.92111 0.0
C315 C 0.96812 0.46179 1.01741 0.0
O316 O 0.96395 0.47701 0.06912 0.0
N317 N 0.89248 0.45107 0.97022 0.0
C318 C 0.86038 0.46975 0.94325 0.0
C319 C 0.85852 0.45052 0.88439 0.0
C320 C 0.87485 0.44164 0.89827 0.0
C321 C 0.89461 0.46999 0.02702 0.0
C322 C 0.87842 0.47911 1.01675 0.0
H323 H 0.87439 0.42846 0.84596 0.0
H324 H 0.91033 0.47983 0.074 0.0
H325 H 0.91697 0.42694 0.74929 0.0
H326 H 0.9404 0.50027 0.67086 0.0
H327 H 0.91232 0.39691 0.2739 0.0
H328 H 0.84526 0.44314 0.82505 0.0
H329 H 0.8813 0.49473 0.06078 0.0
C330 C 0.55298 0.46152 0.84146 0.0
C331 C 0.55116 0.46064 0.74011 0.0
N332 N 0.57364 0.47575 0.70187 0.0
N333 N 0.57651 0.47695 0.86718 0.0
C334 C 0.5886 0.48555 0.7806 0.0
H335 H 0.53825 0.45103 0.89325 0.0
Co336 Co 0.58867 0.48199 0.99579 0.0
C337 C 0.64009 0.4925 0.96273 0.0
O338 O 0.63641 0.47538 0.02748 0.0
N339 N 0.60091 0.48777 0.12814 0.0
C340 C 0.6243 0.50783 0.25745 0.0
C341 C 0.62301 0.50652 0.15648 0.0
C342 C 0.58881 0.47864 0.21483 0.0
N343 N 0.60266 0.49036 0.29466 0.0
O344 O 0.59036 0.51368 0.9965 0.0
H345 H 0.63695 0.51969 0.10739 0.0
H346 H 0.56951 0.46527 0.21997 0.0
O347 O 0.62279 0.49709 0.9437 0.0
C348 C 0.57404 0.51447 0.05037 0.0
O349 O 0.5591 0.49493 0.10222 0.0
N350 N 0.58386 0.44941 0.99399 0.0
C351 C 0.563 0.39822 0.96774 0.0
C352 C 0.5825 0.41504 0.9077 0.0
C353 C 0.59244 0.44049 0.92114 0.0
C354 C 0.56502 0.43324 0.05269 0.0
C355 C 0.55496 0.40785 0.04317 0.0
H356 H 0.60562 0.45284 0.86774 0.0
H357 H 0.55593 0.43973 0.10103 0.0
H358 H 0.6082 0.498 0.77494 0.0
H359 H 0.53461 0.44957 0.69797 0.0
H360 H 0.63978 0.52133 0.2996 0.0
H361 H 0.5889 0.40869 0.84635 0.0
H362 H 0.53994 0.39587 0.0915 0.0
C363 C 0.56742 0.09088 0.79227 0.0
C364 C 0.5689 0.0905 0.69104 0.0
N365 N 0.5562 0.10066 0.65236 0.0
N366 N 0.55393 0.10125 0.81783 0.0
C367 C 0.54713 0.10677 0.73131 0.0
H368 H 0.57638 0.08483 0.8442 0.0
Co369 Co 0.54975 0.10873 0.9467 0.0
C370 C 0.53903 0.1496 0.92321 0.0
O371 O 0.55603 0.1621 0.98935 0.0
N372 N 0.545 0.11563 0.07911 0.0
C373 C 0.52491 0.11792 0.21094 0.0
C374 C 0.52511 0.11683 0.10999 0.0
C375 C 0.5561 0.1151 0.16417 0.0
N376 N 0.54431 0.11662 0.24515 0.0
O377 O 0.51789 0.07879 0.95153 0.0
H378 H 0.51059 0.11534 0.06262 0.0
H379 H 0.57153 0.11204 0.16785 0.0
O380 O 0.53452 0.12803 0.89828 0.0
C381 C 0.51676 0.06201 1.00864 0.0
O382 O 0.53613 0.06672 0.06152 0.0
N383 N 0.58231 0.1362 0.94043 0.0
C384 C 0.63302 0.16652 0.90469 0.0
C385 C 0.61566 0.17027 0.85408 0.0
C386 C 0.59043 0.15458 0.87121 0.0
C387 C 0.59901 0.13237 0.98984 0.0
C388 C 0.6243 0.1475 0.97471 0.0
H389 H 0.57762 0.15618 0.82317 0.0
H390 H 0.59278 0.11614 0.03477 0.0
H391 H 0.53611 0.11555 0.72646 0.0
H392 H 0.57932 0.08403 0.64979 0.0
H393 H 0.51058 0.11781 0.25591 0.0
H394 H 0.62142 0.18408 0.79663 0.0
H395 H 0.63688 0.14352 1.01439 0.0
C396 C 0.48339 0.93462 0.21344 0.0
C397 C 0.48507 0.93518 0.31487 0.0
N398 N 0.46268 0.9194 0.3526 0.0
N399 N 0.46009 0.91859 0.18709 0.0
C400 C 0.44796 0.90967 0.27321 0.0
H401 H 0.49815 0.9453 0.16203 0.0
Co402 Co 0.44843 0.9113 0.05822 0.0
C403 C 0.39629 0.87152 0.08271 0.0
O404 O 0.39988 0.85893 1.01374 0.0
N405 N 0.43663 0.90464 0.92642 0.0
C406 C 0.41506 0.90462 0.79611 0.0
C407 C 0.41648 0.90545 0.89693 0.0
C408 C 0.44743 0.90385 0.84076 0.0
N409 N 0.43464 0.90379 0.7603 0.0
O410 O 0.44733 0.94172 0.05426 0.0
H411 H 0.4044 0.90825 0.94536 0.0
H412 H 0.46507 0.90488 0.83652 0.0
O413 O 0.41398 0.8927 0.10786 0.0
C414 C 0.46305 0.95822 0.99631 0.0
O415 O 0.47702 0.95286 0.94167 0.0
N416 N 0.45287 0.88342 0.06297 0.0
C417 C 0.47201 0.85183 0.09229 0.0
C418 C 0.45111 0.84832 0.1441 0.0
C419 C 0.44198 0.86443 0.12922 0.0
C420 C 0.47344 0.88723 1.01352 0.0
C421 C 0.4829 0.87137 0.02493 0.0
H422 H 0.42725 0.86245 0.17636 0.0
H423 H 0.48387 0.90386 0.97106 0.0
H424 H 0.4287 0.89596 0.27764 0.0
H425 H 0.50147 0.94669 0.3571 0.0
H426 H 0.40157 0.90638 0.75265 0.0
H427 H 0.44248 0.83383 0.19871 0.0
H428 H 0.4997 0.87547 0.98665 0.0
C429 C 0.08232 0.53113 0.26141 0.0
C430 C 0.08112 0.5284 0.36227 0.0
N431 N 0.10324 0.53288 0.39509 0.0
N432 N 0.10501 0.5371 0.23002 0.0
C433 C 0.11737 0.53804 0.31313 0.0
H434 H 0.06781 0.5298 0.2144 0.0
Co435 Co 0.11623 0.54511 0.10007 0.0
C436 C 0.15591 0.53204 0.07814 0.0
O437 O 0.16733 0.54963 1.01279 0.0
N438 N 0.12735 0.55361 0.96583 0.0
C439 C 0.1453 0.57542 0.82983 0.0
C440 C 0.14349 0.57627 0.93026 0.0
C441 C 0.11976 0.53933 0.8836 0.0
N442 N 0.13023 0.55223 0.80002 0.0
O443 O 0.08817 0.51421 0.05812 0.0
H444 H 0.15331 0.59286 0.97301 0.0
H445 H 0.10646 0.51988 0.88427 0.0
O446 O 0.13603 0.52882 0.11832 0.0
C447 C 0.07132 0.51638 1.01435 0.0
O448 O 0.07554 0.53854 0.99185 0.0
N449 N 0.14122 0.57615 0.14483 0.0
C450 C 0.17056 0.62518 0.20561 0.0
C451 C 0.17948 0.60857 0.20946 0.0
C452 C 0.16441 0.58399 0.17965 0.0
C453 C 0.13211 0.59183 0.14337 0.0
C454 C 0.14644 0.61632 0.17191 0.0
H455 H 0.17137 0.57145 0.18658 0.0
H456 H 0.11356 0.58525 0.11741 0.0
H457 H 0.13655 0.54304 0.31368 0.0
H458 H 0.06553 0.52474 0.40826 0.0
H459 H 0.15601 0.59103 0.78194 0.0
H460 H 0.19775 0.61435 0.2371 0.0
H461 H 0.13867 0.62828 0.16606 0.0
C462 C 0.46884 0.54284 0.23427 0.0
C463 C 0.46723 0.54102 0.33544 0.0
N464 N 0.48007 0.56385 0.37394 0.0
N465 N 0.48254 0.56666 0.20852 0.0
C466 C 0.48932 0.579 0.29485 0.0
H467 H 0.45993 0.52783 0.18247 0.0
Co468 Co 0.48728 0.57817 0.07944 0.0
C469 C 0.49815 0.62981 0.09713 0.0
O470 O 0.48174 0.62514 0.02801 0.0
N471 N 0.49257 0.58966 0.94689 0.0
C472 C 0.51327 0.61158 0.81511 0.0
C473 C 0.51305 0.61021 0.91605 0.0
C474 C 0.48107 0.57843 0.86198 0.0
N475 N 0.49324 0.59148 0.78101 0.0
O476 O 0.51919 0.58023 0.0785 0.0
H477 H 0.52776 0.62279 0.96366 0.0
H478 H 0.46491 0.56043 0.85841 0.0
O479 O 0.50221 0.61272 0.12641 0.0
C480 C 0.52112 0.56504 0.02156 0.0
O481 O 0.50247 0.55071 0.96487 0.0
N482 N 0.45468 0.57297 0.08226 0.0
C483 C 0.40386 0.55217 0.1155 0.0
C484 C 0.42084 0.57394 0.16316 0.0
C485 C 0.44617 0.58367 0.14759 0.0
C486 C 0.43831 0.55185 0.03544 0.0
C487 C 0.41296 0.5414 0.04961 0.0
H488 H 0.45872 0.59861 0.19413 0.0
H489 H 0.44494 0.54169 0.99368 0.0
H490 H 0.50056 0.59876 0.29935 0.0
H491 H 0.45672 0.52414 0.37671 0.0
H492 H 0.52793 0.62542 0.77005 0.0
H493 H 0.41472 0.58236 0.21754 0.0
H494 H 0.40063 0.52431 1.01272 0.0
C495 C 0.61686 0.80774 0.11452 0.0
C496 C 0.61909 0.80726 1.01367 0.0
N497 N 0.60061 0.78573 0.97988 0.0
N498 N 0.59715 0.78661 0.14464 0.0
C499 C 0.58773 0.7735 0.06107 0.0
H500 H 0.62839 0.82291 0.16255 0.0
Co501 Co 0.58558 0.78005 0.27419 0.0
C502 C 0.54445 0.72758 0.26617 0.0
O503 O 0.5302 0.73323 0.31711 0.0
N504 N 0.57404 0.77389 0.40935 0.0
C505 C 0.55236 0.77017 0.5459 0.0
C506 C 0.55326 0.77264 0.4455 0.0
C507 C 0.58536 0.77205 0.49183 0.0
N508 N 0.57265 0.76999 0.57546 0.0
O509 O 0.61395 0.77696 0.30776 0.0
H510 H 0.5393 0.77364 0.40273 0.0
H511 H 0.60276 0.77247 0.49188 0.0
O512 O 0.56639 0.74432 0.24417 0.0
C513 C 0.6317 0.79647 0.34488 0.0
O514 O 0.62796 0.81464 0.36855 0.0
N515 N 0.56015 0.78643 0.23706 0.0
C516 C 0.52866 0.80441 0.18746 0.0
C517 C 0.52507 0.78218 0.14785 0.0
C518 C 0.54111 0.77352 0.17323 0.0
C519 C 0.56465 0.80874 0.27135 0.0
C520 C 0.54886 0.81777 0.24956 0.0
H521 H 0.53835 0.75673 0.13995 0.0
H522 H 0.58052 0.81943 0.31755 0.0
H523 H 0.57137 0.75555 0.05936 0.0
H524 H 0.6325 0.82218 0.96842 0.0
H525 H 0.53833 0.76972 0.59387 0.0
H526 H 0.50997 0.77156 0.09795 0.0
H527 H 0.55274 0.83535 0.27949 0.0
C528 C 0.2162 0.79406 0.17611 0.0
C529 C 0.21424 0.79345 0.0748 0.0
N530 N 0.23675 0.80827 0.03614 0.0
N531 N 0.23985 0.80905 0.20148 0.0
C532 C 0.25186 0.81766 0.11473 0.0
H533 H 0.20148 0.78371 0.22807 0.0
Co534 Co 0.25215 0.8138 0.33002 0.0
C535 C 0.30306 0.82309 0.29124 0.0
O536 O 0.29927 0.8054 0.35317 0.0
N537 N 0.26444 0.81935 0.46239 0.0
C538 C 0.28828 0.83782 0.59275 0.0
C539 C 0.28727 0.83648 0.49168 0.0
C540 C 0.25172 0.81141 0.54854 0.0
N541 N 0.26582 0.82208 0.62893 0.0
O542 O 0.25428 0.8457 0.33146 0.0
H543 H 0.3021 0.84863 0.44339 0.0
H544 H 0.23203 0.79967 0.55266 0.0
O545 O 0.28615 0.82852 0.27688 0.0
C546 C 0.2375 0.8464 0.38253 0.0
O547 O 0.22173 0.82657 0.43085 0.0
N548 N 0.24709 0.781 0.32749 0.0
C549 C 0.22686 0.72979 0.30345 0.0
C550 C 0.24478 0.7466 0.23784 0.0
C551 C 0.25448 0.77203 0.25062 0.0
C552 C 0.22987 0.76484 0.39189 0.0
C553 C 0.2202 0.73948 0.38328 0.0
H554 H 0.26662 0.78432 0.1944 0.0
H555 H 0.22178 0.77118 0.44566 0.0
H556 H 0.27151 0.82981 0.10884 0.0
H557 H 0.19754 0.78273 0.03302 0.0
H558 H 0.30424 0.85013 0.63574 0.0
H559 H 0.25014 0.74023 0.17337 0.0
H560 H 0.20656 0.72755 0.43654 0.0
C561 C 0.23622 0.42581 0.10537 0.0
C562 C 0.23724 0.42483 1.0041 0.0
N563 N 0.22275 0.43291 0.96567 0.0
N564 N 0.22132 0.43464 0.13074 0.0
C565 C 0.21318 0.43856 0.0441 0.0
H566 H 0.24622 0.42104 0.15739 0.0
Co567 Co 0.2166 0.44183 0.25949 0.0
C568 C 0.20598 0.48275 0.23265 0.0
O569 O 0.22323 0.49566 0.29728 0.0
N570 N 0.21117 0.44819 0.39195 0.0
C571 C 0.19061 0.45055 0.52183 0.0
C572 C 0.19191 0.45069 0.42105 0.0
C573 C 0.22061 0.44548 0.47804 0.0
N574 N 0.20853 0.447 0.55838 0.0
O575 O 0.18502 0.41185 0.26295 0.0
H576 H 0.17838 0.45088 0.37255 0.0
H577 H 0.23459 0.44031 0.48207 0.0
O578 O 0.20127 0.46098 0.21 0.0
C579 C 0.18626 0.39486 0.31009 0.0
O580 O 0.20737 0.39981 0.34911 0.0
N581 N 0.24908 0.4696 0.25514 0.0
C582 C 0.29984 0.50019 0.22164 0.0
C583 C 0.28253 0.50317 0.167 0.0
C584 C 0.25728 0.48734 0.18318 0.0
C585 C 0.26577 0.46668 0.30911 0.0
C586 C 0.29108 0.48193 0.29482 0.0
H587 H 0.24453 0.48826 0.13252 0.0
H588 H 0.25963 0.45102 0.35713 0.0
H589 H 0.20124 0.44632 0.03823 0.0
H590 H 0.24792 0.41877 0.96212 0.0
H591 H 0.17676 0.45197 0.56421 0.0
H592 H 0.28838 0.51642 0.10733 0.0
H593 H 0.30368 0.47858 0.33761 0.0
C594 C 0.16954 0.15472 0.66519 0.0
C595 C 0.17961 0.14716 0.58922 0.0
H596 H 0.15044 0.17403 0.70376 0.0
C597 C 0.17683 0.15268 0.49121 0.0
H598 H 0.17133 0.15072 0.74142 0.0
C599 C 0.16513 0.16618 0.46989 0.0
C600 C 0.15562 0.17428 0.54583 0.0
H601 H 0.1846 0.14744 0.43096 0.0
H602 H 0.16389 0.17067 0.39376 0.0
C603 C 0.15747 0.16794 0.64365 0.0
C604 C 0.85395 0.02808 0.42136 0.0
C605 C 0.87801 0.04025 0.45925 0.0
H606 H 0.82321 0.99449 0.37393 0.0
C607 C 0.89022 0.02665 0.46989 0.0
H608 H 0.844 0.03785 0.40988 0.0
C609 C 0.87838 1.00148 0.44589 0.0
C610 C 0.85399 0.98919 0.4107 0.0
H611 H 0.90871 0.03527 0.4992 0.0
H612 H 0.88833 0.99165 0.45548 0.0
C613 C 0.84209 1.00304 0.39859 0.0
C614 C 1.00586 0.87607 0.51317 0.0
C615 C 0.99324 0.8505 0.53036 0.0
H616 H 0.04021 0.90824 0.4752 0.0
C617 C 1.00627 0.83775 0.52021 0.0
H618 H 0.99638 0.88644 0.52043 0.0
C619 C 0.03114 0.85012 0.49371 0.0
C620 C 0.04387 0.87567 0.47689 0.0
H621 H 0.99713 0.81803 0.53139 0.0
H622 H 0.04052 0.83962 0.48753 0.0
C623 C 0.03097 0.88856 0.48769 0.0
C624 C 0.86095 0.86785 0.45723 0.0
C625 C 0.8355 0.85496 0.43994 0.0
H626 H 0.89227 0.86659 0.51246 0.0
C627 C 0.82203 0.82973 0.46325 0.0
H628 H 0.87181 0.88728 0.43991 0.0
C629 C 0.83398 0.81762 0.50184 0.0
C630 C 0.8594 0.83076 0.5207 0.0
H631 H 0.80242 0.81932 0.44979 0.0
H632 H 0.8233 0.79818 0.5191 0.0
C633 C 0.87267 0.856 0.4986 0.0
C634 C 0.21648 0.02506 0.54426 0.0
C635 C 0.20358 0.03749 0.56589 0.0
H636 H 0.21434 0.9919 0.48827 0.0
C637 C 0.17835 0.02594 0.54468 0.0
H638 H 0.23591 0.03351 0.56074 0.0
C639 C 0.16627 1.00264 0.50142 0.0
C640 C 0.17892 0.98994 0.48135 0.0
H641 H 0.16797 0.0351 0.56066 0.0
H642 H 0.14685 0.99437 0.48489 0.0
C643 C 0.20413 1.00125 0.50381 0.0
C644 C 1.00581 0.19649 0.53176 0.0
C645 C 0.99467 0.1722 0.56787 0.0
H646 H 0.03828 0.22681 0.46715 0.0
C647 C 1.00812 0.1598 0.56536 0.0
H648 H 0.99589 0.20652 0.53307 0.0
C649 C 0.03186 0.17108 0.52589 0.0
C650 C 0.04312 0.19533 0.49017 0.0
H651 H 1.0001 0.14106 0.59209 0.0
H652 H 0.0415 0.16079 0.52379 0.0
C653 C 0.03004 0.20813 0.49467 0.0
C654 C 0.83492 0.4888 0.99592 0.0
C655 C 0.84592 0.48217 0.92044 0.0
H656 H 0.81547 0.50776 0.03442 0.0
C657 C 0.84467 0.48918 0.82308 0.0
H658 H 0.83558 0.48366 0.07163 0.0
C659 C 0.83351 0.50321 0.80213 0.0
C660 C 0.82297 0.51028 0.8777 0.0
H661 H 0.85321 0.48466 0.7634 0.0
H662 H 0.83342 0.50884 0.72668 0.0
C663 C 0.82333 0.50248 0.97461 0.0
C664 C 0.51003 0.33266 0.93411 0.0
C665 C 0.52171 0.32029 0.8956 0.0
H666 H 0.51338 0.36639 0.98366 0.0
C667 C 0.54748 0.33358 0.88457 0.0
H668 H 0.49031 0.32307 0.94546 0.0
C669 C 0.56104 0.35872 0.90901 0.0
C670 C 0.54918 0.37116 0.94555 0.0
H671 H 0.55713 0.32475 0.8547 0.0
H672 H 0.58081 0.3684 0.89901 0.0
C673 C 0.52346 0.35762 0.95787 0.0
C674 C 0.69786 0.18055 0.84098 0.0
C675 C 0.71028 0.20605 0.823 0.0
H676 H 0.66413 0.14828 0.87971 0.0
C677 C 0.69707 0.21866 0.83308 0.0
H678 H 0.70744 0.17024 0.83555 0.0
C679 C 0.67202 0.20597 0.85931 0.0
C680 C 0.65971 0.18045 0.8776 0.0
H681 H 0.70604 0.23828 0.81963 0.0
H682 H 0.66236 0.21616 0.86629 0.0
C683 C 0.67301 0.16797 0.86785 0.0
C684 C 0.48948 0.1618 0.823 0.0
C685 C 0.50356 0.18663 0.79441 0.0
H686 H 0.48982 0.13014 0.8833 0.0
C687 C 0.52923 0.19862 0.8054 0.0
H688 H 0.46966 0.1521 0.81506 0.0
C689 C 0.54056 0.18636 0.84636 0.0
C690 C 0.52661 0.16156 0.87451 0.0
H691 H 0.54059 0.21777 0.78456 0.0
H692 H 0.56034 0.1963 0.85593 0.0
C693 C 0.50098 0.14922 0.86124 0.0
C694 C 0.86974 0.33421 0.84416 0.0
C695 C 0.84456 0.32228 0.82086 0.0
H696 H 0.90101 0.36722 0.89921 0.0
C697 C 0.83141 0.33464 0.83757 0.0
H698 H 0.88033 0.32514 0.83115 0.0
C699 C 0.84299 0.35823 0.87826 0.0
C700 C 0.8682 0.37041 0.90017 0.0
H701 H 0.81199 0.32589 0.82026 0.0
H702 H 0.83223 0.36712 0.89164 0.0
C703 C 0.88159 0.3583 0.88202 0.0
C704 C 0.67532 0.53088 0.88763 0.0
C705 C 0.6641 0.50566 0.91079 0.0
H706 H 0.70724 0.56262 0.82739 0.0
C707 C 0.67648 0.49289 0.88698 0.0
H708 H 0.66622 0.54119 0.90588 0.0
C709 C 0.6994 0.50488 0.84026 0.0
C710 C 0.71094 0.53016 0.81858 0.0
H711 H 0.6683 0.47347 0.90377 0.0
H712 H 0.70833 0.49437 0.82274 0.0
C713 C 0.69878 0.54314 0.84339 0.0
C714 C 0.48892 0.83408 0.21491 0.0
C715 C 0.48422 0.83726 0.11626 0.0
H716 H 0.50671 0.82133 0.31442 0.0
C717 C 0.49299 0.82814 0.04118 0.0
H718 H 0.48269 0.84114 0.27442 0.0
C719 C 0.50655 0.81653 0.06423 0.0
C720 C 0.51206 0.81427 0.16277 0.0
H721 H 0.48964 0.8303 0.96451 0.0
H722 H 0.51353 0.81018 1.00484 0.0
C723 C 0.50284 0.82291 0.23781 0.0
C724 C 0.22464 0.69067 0.23798 0.0
C725 C 0.21323 0.70259 0.28365 0.0
H726 H 0.22034 0.6571 0.17744 0.0
C727 C 0.18804 0.68837 0.30715 0.0
H728 H 0.24401 0.70083 0.21943 0.0
C729 C 0.17467 0.6633 0.28502 0.0
C730 C 0.18581 0.65151 0.23683 0.0
H731 H 0.17823 0.69666 0.34037 0.0
H732 H 0.15538 0.65321 0.30497 0.0
C733 C 0.21111 0.66546 0.21493 0.0
C734 C 0.36408 0.55199 0.15066 0.0
C735 C 0.37717 0.53924 0.14214 0.0
H736 H 0.32933 0.54969 0.18153 0.0
C737 C 0.36465 0.51379 0.16108 0.0
H738 H 0.37317 0.57159 0.13649 0.0
C739 C 0.33978 0.50137 0.1876 0.0
C740 C 0.32656 0.51398 0.19547 0.0
H741 H 0.3742 0.50343 0.15662 0.0
H742 H 0.33079 0.48172 0.20058 0.0
C743 C 0.33897 0.53944 0.17605 0.0
C744 C 0.15467 0.49418 0.14958 0.0
C745 C 0.16818 0.51851 0.1143 0.0
H746 H 0.15613 0.46328 0.21167 0.0
C747 C 0.19401 0.53026 0.11419 0.0
H748 H 0.13476 0.48466 0.15028 0.0
C749 C 0.20609 0.51833 0.1512 0.0
C750 C 0.19269 0.49408 0.18626 0.0
H751 H 0.20496 0.54902 0.08799 0.0
H752 H 0.22602 0.52814 0.15274 0.0
C753 C 0.16685 0.48191 0.18384 0.0
C754 C 0.54678 0.6903 0.2105 0.0
C755 C 0.53337 0.7026 0.22284 0.0
H756 H 0.54588 0.657 0.16378 0.0
C757 C 0.50849 0.69057 0.19523 0.0
H758 H 0.56596 0.69912 0.23161 0.0
C759 C 0.4973 0.66698 0.15491 0.0
C760 C 0.51045 0.65446 0.14354 0.0
H761 H 0.49768 0.69958 0.20339 0.0
H762 H 0.47816 0.65842 0.13327 0.0
C763 C 0.53527 0.6662 0.17257 0.0
C764 C 0.36056 0.83433 0.15583 0.0
C765 C 0.37258 0.85975 0.13702 0.0
H766 H 0.32951 0.80308 0.22067 0.0
C767 C 0.36145 0.87325 0.16873 0.0
H768 H 0.36872 0.82346 0.13262 0.0
C769 C 0.33847 0.86135 0.21673 0.0
C770 C 0.32673 0.83595 0.23679 0.0
H771 H 0.37029 0.89285 0.15476 0.0
H772 H 0.33013 0.87204 0.2399 0.0
C773 C 0.33813 0.82266 0.20642 0.0
C774 C 0.14173 0.33243 0.41163 0.0
C775 C 0.14238 0.31739 0.33647 0.0
H776 H 0.15537 0.36955 0.4615 0.0
C777 C 0.15322 0.32819 0.24555 0.0
H778 H 0.13405 0.32464 0.48313 0.0
C779 C 0.16484 0.35372 0.2324 0.0
C780 C 0.16625 0.36898 0.31056 0.0
H781 H 0.15434 0.31703 0.18707 0.0
H782 H 0.17482 0.36168 0.1645 0.0
C783 C 0.1539 0.3581 0.39919 0.0
C784 C 0.66891 0.80067 0.26032 0.0
C785 C 0.65718 0.80097 0.3481 0.0
H786 H 0.70336 0.81464 0.1839 0.0
C787 C 0.67154 0.81152 0.43274 0.0
H788 H 0.65832 0.7932 0.19355 0.0
C789 C 0.69728 0.82311 0.42799 0.0
C790 C 0.70908 0.825 0.33775 0.0
H791 H 0.66293 0.81235 0.50083 0.0
H792 H 0.70794 0.83277 0.49229 0.0
C793 C 0.69467 0.81296 0.25481 0.0
C794 C 0.22842 0.8745 0.2838 0.0
C795 C 0.23231 0.86692 0.37603 0.0
H796 H 0.21064 0.89095 0.20475 0.0
C797 C 0.22534 0.87461 0.4616 0.0
H798 H 0.23316 0.86843 0.21676 0.0
C799 C 0.21304 0.88806 0.45492 0.0
C800 C 0.20682 0.89336 0.36239 0.0
H801 H 0.22786 0.86868 0.53356 0.0
H802 H 0.20626 0.8921 0.52174 0.0
C803 C 0.21545 0.88731 0.27703 0.0
C804 C 0.36884 0.15016 0.75634 0.0
C805 C 0.38147 0.16365 0.6722 0.0
H806 H 0.3336 0.12841 0.82587 0.0
C807 C 0.36802 0.1612 0.58601 0.0
H808 H 0.37871 0.15214 0.82428 0.0
C809 C 0.34227 0.147 0.58602 0.0
C810 C 0.32953 0.13558 0.67306 0.0
H811 H 0.37731 0.17173 0.52064 0.0
H812 H 0.33228 0.14704 0.52099 0.0
C813 C 0.34304 0.13659 0.75724 0.0
C814 C 0.88465 0.22473 0.61973 0.0
C815 C 0.87271 0.22511 0.70699 0.0
H816 H 0.90424 0.20962 0.54425 0.0
C817 C 0.87468 0.21313 0.79095 0.0
H818 H 0.88284 0.23332 0.55336 0.0
C819 C 0.88625 0.19896 0.78489 0.0
C820 C 0.89661 0.19709 0.69556 0.0
H821 H 0.86508 0.21258 0.85822 0.0
H822 H 0.88546 0.18797 0.84796 0.0
C823 C 0.89688 0.21116 0.6145 0.0
C824 C 0.81834 0.66467 0.57606 0.0
C825 C 0.80872 0.65357 0.66796 0.0
H826 H 0.83888 0.69846 0.49532 0.0
C827 C 0.8092 0.66839 0.74635 0.0
H828 H 0.81862 0.65369 0.51502 0.0
C829 C 0.82131 0.6941 0.73557 0.0
C830 C 0.83245 0.7053 0.64551 0.0
H831 H 0.80251 0.66039 0.81854 0.0
H832 H 0.82369 0.70532 0.79979 0.0
C833 C 0.82984 0.69028 0.5646 0.0
C834 C 0.03239 0.4939 0.91894 0.0
C835 C 0.04587 0.49561 1.00421 0.0
H836 H 0.99666 0.4805 0.85509 0.0
C837 C 0.03325 0.48144 0.08711 0.0
H838 H 0.04168 0.5049 0.85453 0.0
C839 C 1.00743 0.46802 0.08822 0.0
C840 C 0.99393 0.46782 1.0053 0.0
H841 H 0.04312 0.48277 0.15433 0.0
H842 H 0.998 0.45935 0.15628 0.0
C843 C 1.00664 0.47986 0.91907 0.0
C844 C 0.5502 0.55377 0.94402 0.0
C845 C 0.54156 0.55977 0.02945 0.0
H846 H 0.56849 0.53547 0.88385 0.0
C847 C 0.54836 0.55511 0.12195 0.0
H848 H 0.54497 0.55696 0.87179 0.0
C849 C 0.56126 0.54225 0.12872 0.0
C850 C 0.56821 0.53453 0.04321 0.0
H851 H 0.5416 0.55916 0.18885 0.0
H852 H 0.56425 0.53678 0.20083 0.0
C853 C 0.56374 0.54156 0.95082 0.0
C854 C 0.4883 0.02396 0.91546 0.0
C855 C 0.49622 0.03627 1.00584 0.0
H856 H 0.47133 0.98903 0.84193 0.0
C857 C 0.48859 0.02242 0.09365 0.0
H858 H 0.49426 0.03412 0.84677 0.0
C859 C 0.4749 0.99664 0.09104 0.0
C860 C 0.46924 0.98427 1.00044 0.0
H861 H 0.49471 0.03149 0.1643 0.0
H862 H 0.47092 0.98642 0.15954 0.0
C863 C 0.47524 0.99816 0.9128 0.0
C864 C 0.12934 0.27295 0.90606 0.0
C865 C 0.11979 0.25512 0.83099 0.0
H866 H 0.1338 0.2801 0.06138 0.0
C867 C 0.10524 0.23025 0.85809 0.0
H868 H 0.14035 0.29229 0.88789 0.0
C869 C 0.10137 0.22331 0.95743 0.0
C870 C 0.11186 0.24102 0.03245 0.0
H871 H 0.0977 0.21596 0.80276 0.0
H872 H 0.09064 0.20394 0.97559 0.0
C873 C 0.12535 0.266 1.00562 0.0
C874 C 0.77443 0.85811 0.7994 0.0
C875 C 0.77774 0.88088 0.76765 0.0
H876 H 0.77409 0.8361 0.91992 0.0
C877 C 0.78408 0.8996 0.83772 0.0
H878 H 0.76923 0.84321 0.74761 0.0
C879 C 0.78717 0.89566 0.93704 0.0
C880 C 0.78379 0.87282 0.96917 0.0
H881 H 0.78713 0.91749 0.81548 0.0
H882 H 0.79254 0.9107 0.9882 0.0
C883 C 0.7773 0.85408 0.89871 0.0
C884 C 0.15836 0.93057 0.83851 0.0
C885 C 0.14906 0.90587 0.81041 0.0
H886 H 0.16881 0.95644 0.95693 0.0
C887 C 0.14235 0.88803 0.88542 0.0
H888 H 0.16331 0.94491 0.78416 0.0
C889 C 0.14514 0.89474 0.98501 0.0
C890 C 0.15497 0.91947 1.0123 0.0
H891 H 0.13536 0.86888 0.86777 0.0
H892 H 0.14038 0.88066 0.04059 0.0
C893 C 0.16141 0.93726 0.93795 0.0
C894 C 0.26189 0.09563 0.10771 0.0
C895 C 0.25472 0.10737 0.03731 0.0
H896 H 0.27032 0.09313 0.2587 0.0
C897 C 0.25053 0.12631 0.0695 0.0
H898 H 0.26577 0.0813 0.08654 0.0
C899 C 0.25346 0.13327 0.16884 0.0
C900 C 0.26044 0.12135 0.23882 0.0
H901 H 0.24466 0.13559 1.01839 0.0
H902 H 0.24978 0.14768 0.19118 0.0
C903 C 0.26459 0.10244 0.20698 0.0
C904 C 0.9173 0.16463 0.02391 0.0
C905 C 0.92529 0.14812 0.99697 0.0
H906 H 0.90783 0.18113 0.14174 0.0
C907 C 0.93191 0.13703 0.072 0.0
H908 H 0.91192 0.17337 0.96814 0.0
C909 C 0.92943 0.14132 0.17142 0.0
C910 C 0.92013 0.15676 0.1986 0.0
H911 H 0.9384 0.12444 0.05373 0.0
H912 H 0.93372 0.13161 0.22672 0.0
C913 C 0.91468 0.16883 0.12354 0.0
C914 C 0.8637 0.7705 0.16335 0.0
C915 C 0.88622 0.77338 0.1954 0.0
H916 H 0.84214 0.77073 0.04301 0.0
C917 C 0.90504 0.77955 0.1256 0.0
H918 H 0.84872 0.7654 0.21491 0.0
C919 C 0.90145 0.78298 0.02615 0.0
C920 C 0.87884 0.78008 0.99377 0.0
H921 H 0.92274 0.78222 0.14817 0.0
H922 H 0.91654 0.78819 0.97515 0.0
C923 C 0.86 0.77367 0.06409 0.0
C924 C 0.7948 0.60873 0.2375 0.0
C925 C 0.78655 0.59086 0.16249 0.0
H926 H 0.79866 0.61597 0.39283 0.0
C927 C 0.77359 0.56588 0.1897 0.0
H928 H 0.80453 0.62812 0.21925 0.0
C929 C 0.7701 0.55896 0.28906 0.0
C930 C 0.77937 0.57679 0.36403 0.0
H931 H 0.76708 0.55158 0.13447 0.0
H932 H 0.76066 0.53956 0.30728 0.0
C933 C 0.79118 0.60177 0.3371 0.0
C934 C 0.47727 0.22198 0.28596 0.0
C935 C 0.45943 0.21185 0.36108 0.0
H936 H 0.48467 0.2271 0.13126 0.0
C937 C 0.43469 0.19664 0.33433 0.0
H938 H 0.49652 0.23354 0.30409 0.0
C939 C 0.42786 0.19284 0.23476 0.0
C940 C 0.4456 0.20403 0.15961 0.0
H941 H 0.42047 0.18866 0.39019 0.0
H942 H 0.40858 0.18157 0.21669 0.0
C943 C 0.47048 0.2181 0.18661 0.0
C944 C 0.80677 0.22723 0.33007 0.0
C945 C 0.82087 0.25204 0.35801 0.0
H946 H 0.79316 0.20128 0.21184 0.0
C947 C 0.83133 0.27004 0.28369 0.0
H948 H 0.79854 0.21284 0.38509 0.0
C949 C 0.82867 0.26342 0.18436 0.0
C950 C 0.81526 0.23856 0.15609 0.0
H951 H 0.84198 0.28935 0.30229 0.0
H952 H 0.83777 0.27789 0.13027 0.0
C953 C 0.80398 0.22057 0.23036 0.0
C954 C 0.91945 0.46711 0.5026 0.0
C955 C 0.92564 0.45457 0.57275 0.0
H956 H 0.91105 0.4699 0.352 0.0
C957 C 0.92883 0.43505 0.54101 0.0
H958 H 0.91652 0.48202 0.5248 0.0
C959 C 0.92591 0.4282 0.44175 0.0
C960 C 0.91949 0.44055 0.37125 0.0
H961 H 0.93395 0.42525 0.5928 0.0
H962 H 0.92901 0.41336 0.42066 0.0
C963 C 0.91632 0.46013 0.40325 0.0
C964 C 0.5676 0.46098 0.52893 0.0
C965 C 0.58062 0.47954 0.59891 0.0
H966 H 0.56461 0.44955 0.37855 0.0
C967 C 0.60088 0.50174 0.56683 0.0
H968 H 0.55212 0.44351 0.55121 0.0
C969 C 0.60798 0.5053 0.4676 0.0
C970 C 0.59513 0.48669 0.39736 0.0
H971 H 0.61111 0.51655 0.61833 0.0
H972 H 0.62342 0.52286 0.44626 0.0
C973 C 0.5748 0.46447 0.42961 0.0
C974 C 0.55984 0.09345 0.47421 0.0
C975 C 0.55395 0.10524 0.54911 0.0
H976 H 0.56153 0.08791 0.31901 0.0
C977 C 0.54589 0.12168 0.5209 0.0
H978 H 0.56586 0.08049 0.49205 0.0
C979 C 0.54324 0.12571 0.42142 0.0
C980 C 0.54885 0.11371 0.34714 0.0
H981 H 0.54164 0.1316 0.57522 0.0
H982 H 0.53679 0.1383 0.40237 0.0
C983 C 0.55745 0.09774 0.37454 0.0
C984 C 0.47348 0.92077 0.5299 0.0
C985 C 0.45566 0.91438 0.45555 0.0
H986 H 0.48094 0.92258 0.68452 0.0
C987 C 0.43078 0.90325 0.48391 0.0
H988 H 0.49278 0.92903 0.51151 0.0
C989 C 0.42398 0.89909 0.5832 0.0
C990 C 0.44179 0.90612 0.65763 0.0
H991 H 0.4164 0.89815 0.42993 0.0
H992 H 0.40464 0.89055 0.60161 0.0
C993 C 0.46664 0.91673 0.6296 0.0
C994 C 0.13523 0.55174 0.52427 0.0
C995 C 0.11082 0.53518 0.49706 0.0
H996 H 0.16058 0.56984 0.64208 0.0
C997 C 0.0935 0.52229 0.57207 0.0
H998 H 0.14904 0.56209 0.46894 0.0
C999 C 0.10014 0.52681 0.67172 0.0
C1000 C 0.12422 0.54445 0.69869 0.0
H1001 H 0.07463 0.50914 0.55376 0.0
H1002 H 0.08612 0.51742 0.72746 0.0
C1003 C 0.14181 0.55635 0.62373 0.0
C1004 C 0.47863 0.55946 0.65171 0.0
C1005 C 0.48832 0.58417 0.6791 0.0
H1006 H 0.46906 0.53368 0.53439 0.0
C1007 C 0.49465 0.60197 0.60491 0.0
H1008 H 0.47396 0.54539 0.70722 0.0
C1009 C 0.49167 0.59532 0.50544 0.0
C1010 C 0.48255 0.57066 0.47719 0.0
H1011 H 0.50195 0.62112 0.62404 0.0
H1012 H 0.49655 0.60967 0.45122 0.0
C1013 C 0.47591 0.5528 0.55209 0.0
C1014 C 0.61194 0.78915 0.80278 0.0
C1015 C 0.59403 0.77909 0.87785 0.0
H1016 H 0.61923 0.79397 0.64735 0.0
C1017 C 0.56931 0.76385 0.85084 0.0
H1018 H 0.63118 0.80068 0.82095 0.0
C1019 C 0.56253 0.7599 0.75157 0.0
C1020 C 0.58025 0.77099 0.67657 0.0
H1021 H 0.55497 0.75588 0.90615 0.0
H1022 H 0.54324 0.7487 0.7334 0.0
C1023 C 0.60514 0.78508 0.70323 0.0
C1024 C 0.23691 0.79726 0.76299 0.0
C1025 C 0.25811 0.8188 0.73132 0.0
H1026 H 0.21364 0.7769 0.88409 0.0
C1027 C 0.27177 0.837 0.80194 0.0
H1028 H 0.22607 0.78268 0.71142 0.0
C1029 C 0.26466 0.83364 0.9012 0.0
C1030 C 0.24362 0.81202 0.93295 0.0
H1031 H 0.28792 0.85406 0.78078 0.0
H1032 H 0.27558 0.84814 0.95297 0.0
C1033 C 0.22975 0.79394 0.86235 0.0
C1034 C 0.23433 0.44498 0.69323 0.0
C1035 C 0.21215 0.44312 0.661 0.0
H1036 H 0.25515 0.44331 0.81519 0.0
C1037 C 0.19346 0.43741 0.73136 0.0
H1038 H 0.24927 0.4496 0.6421 0.0
C1039 C 0.19696 0.43405 0.83063 0.0
C1040 C 0.21912 0.43602 0.86268 0.0
H1041 H 0.17589 0.43524 0.71029 0.0
H1042 H 0.18213 0.42956 0.88224 0.0
C1043 C 0.23773 0.44137 0.79272 0.0
loop_
_geom_bond_atom_site_label_1
_geom_bond_atom_site_label_2
_geom_bond_distance
_geom_bond_site_symmetry_2
_ccdc_geom_bond_type
C0 C1 1.351 . S
C0 N3 1.368 . S
C0 H5 0.931 . S
C1 C0 1.351 . S
C1 N2 1.373 . S
C1 H29 0.930 . S
N2 C1 1.373 . S
N2 C4 1.340 . S
N3 C0 1.368 . S
N3 C4 1.321 . S
N3 Co6 2.135 . S
C4 N2 1.340 . S
C4 N3 1.321 . S
C4 H28 0.930 . S
H5 C0 0.931 . S
Co6 N3 2.135 . S
Co6 N9 2.121 . S
Co6 O14 2.055 . S
Co6 O17 2.039 . S
Co6 N20 2.140 . S
C7 O8 1.227 . S
C7 O17 1.265 . S
O8 C7 1.227 . S
N9 Co6 2.121 . S
N9 C11 1.375 . S
N9 C12 1.313 . S
C10 C11 1.338 . S
C10 N13 1.377 . S
C10 H30 0.930 . S
C11 N9 1.375 . S
C11 C10 1.338 . S
C11 H15 0.931 . S
C12 N9 1.313 . S
C12 N13 1.344 . S
C12 H16 0.930 . S
N13 C10 1.377 . S
N13 C12 1.344 . S
O14 Co6 2.055 . S
O14 C18 1.253 . S
H15 C11 0.931 . S
H16 C12 0.930 . S
O17 Co6 2.039 . S
O17 C7 1.265 . S
C18 O14 1.253 . S
C18 O19 1.227 . S
O19 C18 1.227 . S
N20 Co6 2.140 . S
N20 C23 1.346 . S
N20 C24 1.345 . S
C21 C22 1.387 . S
C21 C25 1.391 . S
C22 C21 1.387 . S
C22 C23 1.369 . S
C22 H31 0.929 . S
C23 N20 1.346 . S
C23 C22 1.369 . S
C23 H26 0.928 . S
C24 N20 1.345 . S
C24 C25 1.371 . S
C24 H27 0.931 . S
C25 C21 1.391 . S
C25 C24 1.371 . S
C25 H32 0.930 . S
H26 C23 0.928 . S
H27 C24 0.931 . S
H28 C4 0.930 . S
H29 C1 0.930 . S
H30 C10 0.930 . S
H31 C22 0.929 . S
H32 C25 0.930 . S
C33 C34 1.351 . S
C33 N36 1.368 . S
C33 H38 0.931 . S
C34 C33 1.351 . S
C34 N35 1.373 . S
C34 H62 0.930 . S
N35 C34 1.373 . S
N35 C37 1.340 . S
N36 C33 1.368 . S
N36 C37 1.321 . S
N36 Co39 2.135 . S
C37 N35 1.340 . S
C37 N36 1.321 . S
C37 H61 0.930 . S
H38 C33 0.931 . S
Co39 N36 2.135 . S
Co39 N42 2.121 . S
Co39 O47 2.055 . S
Co39 O50 2.039 . S
Co39 N53 2.140 . S
C40 O41 1.227 . S
C40 O50 1.265 . S
O41 C40 1.227 . S
N42 Co39 2.121 . S
N42 C44 1.375 . S
N42 C45 1.313 . S
C43 C44 1.338 . S
C43 N46 1.377 . S
C43 H63 0.930 . S
C44 N42 1.375 . S
C44 C43 1.338 . S
C44 H48 0.931 . S
C45 N42 1.313 . S
C45 N46 1.344 . S
C45 H49 0.930 . S
N46 C43 1.377 . S
N46 C45 1.344 . S
O47 Co39 2.055 . S
O47 C51 1.253 . S
H48 C44 0.931 . S
H49 C45 0.930 . S
O50 Co39 2.039 . S
O50 C40 1.265 . S
C51 O47 1.253 . S
C51 O52 1.227 . S
O52 C51 1.227 . S
N53 Co39 2.140 . S
N53 C56 1.346 . S
N53 C57 1.345 . S
C54 C55 1.387 . S
C54 C58 1.391 . S
C55 C54 1.387 . S
C55 C56 1.369 . S
C55 H64 0.929 . S
C56 N53 1.346 . S
C56 C55 1.369 . S
C56 H59 0.928 . S
C57 N53 1.345 . S
C57 C58 1.371 . S
C57 H60 0.931 . S
C58 C54 1.391 . S
C58 C57 1.371 . S
C58 H65 0.930 . S
H59 C56 0.928 . S
H60 C57 0.931 . S
H61 C37 0.930 . S
H62 C34 0.930 . S
H63 C43 0.930 . S
H64 C55 0.929 . S
H65 C58 0.930 . S
C66 C67 1.351 . S
C66 N69 1.368 . S
C66 H71 0.931 . S
C67 C66 1.351 . S
C67 N68 1.373 . S
C67 H95 0.930 . S
N68 C67 1.373 . S
N68 C70 1.340 . S
N69 C66 1.368 . S
N69 C70 1.321 . S
N69 Co72 2.135 . S
C70 N68 1.340 . S
C70 N69 1.321 . S
C70 H94 0.930 . S
H71 C66 0.931 . S
Co72 N69 2.135 . S
Co72 N75 2.121 . S
Co72 O80 2.055 . S
Co72 O83 2.039 . S
Co72 N86 2.140 . S
C73 O74 1.227 . S
C73 O83 1.265 . S
O74 C73 1.227 . S
N75 Co72 2.121 . S
N75 C77 1.375 . S
N75 C78 1.313 . S
C76 C77 1.338 . S
C76 N79 1.377 . S
C76 H96 0.930 . S
C77 N75 1.375 . S
C77 C76 1.338 . S
C77 H81 0.931 . S
C78 N75 1.313 . S
C78 N79 1.344 . S
C78 H82 0.930 . S
N79 C76 1.377 . S
N79 C78 1.344 . S
O80 Co72 2.055 . S
O80 C84 1.253 . S
H81 C77 0.931 . S
H82 C78 0.930 . S
O83 Co72 2.039 . S
O83 C73 1.265 . S
C84 O80 1.253 . S
C84 O85 1.227 . S
O85 C84 1.227 . S
N86 Co72 2.140 . S
N86 C89 1.346 . S
N86 C90 1.345 . S
C87 C88 1.387 . S
C87 C91 1.391 . S
C88 C87 1.387 . S
C88 C89 1.369 . S
C88 H97 0.929 . S
C89 N86 1.346 . S
C89 C88 1.369 . S
C89 H92 0.928 . S
C90 N86 1.345 . S
C90 C91 1.371 . S
C90 H93 0.931 . S
C91 C87 1.391 . S
C91 C90 1.371 . S
C91 H98 0.930 . S
H92 C89 0.928 . S
H93 C90 0.931 . S
H94 C70 0.930 . S
H95 C67 0.930 . S
H96 C76 0.930 . S
H97 C88 0.929 . S
H98 C91 0.930 . S
C99 C100 1.351 . S
C99 N102 1.368 . S
C99 H104 0.931 . S
C100 C99 1.351 . S
C100 N101 1.373 . S
C100 H128 0.930 . S
N101 C100 1.373 . S
N101 C103 1.340 . S
N102 C99 1.368 . S
N102 C103 1.321 . S
N102 Co105 2.135 . S
C103 N101 1.340 . S
C103 N102 1.321 . S
C103 H127 0.930 . S
H104 C99 0.931 . S
Co105 N102 2.135 . S
Co105 N108 2.121 . S
Co105 O113 2.055 . S
Co105 O116 2.039 . S
Co105 N119 2.140 . S
C106 O107 1.227 . S
C106 O116 1.265 . S
O107 C106 1.227 . S
N108 Co105 2.121 . S
N108 C110 1.375 . S
N108 C111 1.313 . S
C109 C110 1.338 . S
C109 N112 1.377 . S
C109 H129 0.930 . S
C110 N108 1.375 . S
C110 C109 1.338 . S
C110 H114 0.931 . S
C111 N108 1.313 . S
C111 N112 1.344 . S
C111 H115 0.930 . S
N112 C109 1.377 . S
N112 C111 1.344 . S
O113 Co105 2.055 . S
O113 C117 1.253 . S
H114 C110 0.931 . S
H115 C111 0.930 . S
O116 Co105 2.039 . S
O116 C106 1.265 . S
C117 O113 1.253 . S
C117 O118 1.227 . S
O118 C117 1.227 . S
N119 Co105 2.140 . S
N119 C122 1.346 . S
N119 C123 1.345 . S
C120 C121 1.387 . S
C120 C124 1.391 . S
C121 C120 1.387 . S
C121 C122 1.369 . S
C121 H130 0.929 . S
C122 N119 1.346 . S
C122 C121 1.369 . S
C122 H125 0.928 . S
C123 N119 1.345 . S
C123 C124 1.371 . S
C123 H126 0.931 . S
C124 C120 1.391 . S
C124 C123 1.371 . S
C124 H131 0.930 . S
H125 C122 0.928 . S
H126 C123 0.931 . S
H127 C103 0.930 . S
H128 C100 0.930 . S
H129 C109 0.930 . S
H130 C121 0.929 . S
H131 C124 0.930 . S
C132 C133 1.351 . S
C132 N135 1.368 . S
C132 H137 0.931 . S
C133 C132 1.351 . S
C133 N134 1.373 . S
C133 H161 0.930 . S
N134 C133 1.373 . S
N134 C136 1.340 . S
N135 C132 1.368 . S
N135 C136 1.321 . S
N135 Co138 2.135 . S
C136 N134 1.340 . S
C136 N135 1.321 . S
C136 H160 0.930 . S
H137 C132 0.931 . S
Co138 N135 2.135 . S
Co138 N141 2.121 . S
Co138 O146 2.055 . S
Co138 O149 2.039 . S
Co138 N152 2.140 . S
C139 O140 1.227 . S
C139 O149 1.265 . S
O140 C139 1.227 . S
N141 Co138 2.121 . S
N141 C143 1.375 . S
N141 C144 1.313 . S
C142 C143 1.338 . S
C142 N145 1.377 . S
C142 H162 0.930 . S
C143 N141 1.375 . S
C143 C142 1.338 . S
C143 H147 0.931 . S
C144 N141 1.313 . S
C144 N145 1.344 . S
C144 H148 0.930 . S
N145 C142 1.377 . S
N145 C144 1.344 . S
O146 Co138 2.055 . S
O146 C150 1.253 . S
H147 C143 0.931 . S
H148 C144 0.930 . S
O149 Co138 2.039 . S
O149 C139 1.265 . S
C150 O146 1.253 . S
C150 O151 1.227 . S
O151 C150 1.227 . S
N152 Co138 2.140 . S
N152 C155 1.346 . S
N152 C156 1.345 . S
C153 C154 1.387 . S
C153 C157 1.391 . S
C154 C153 1.387 . S
C154 C155 1.369 . S
C154 H163 0.929 . S
C155 N152 1.346 . S
C155 C154 1.369 . S
C155 H158 0.928 . S
C156 N152 1.345 . S
C156 C157 1.371 . S
C156 H159 0.931 . S
C157 C153 1.391 . S
C157 C156 1.371 . S
C157 H164 0.930 . S
H158 C155 0.928 . S
H159 C156 0.931 . S
H160 C136 0.930 . S
H161 C133 0.930 . S
H162 C142 0.930 . S
H163 C154 0.929 . S
H164 C157 0.930 . S
C165 C166 1.351 . S
C165 N168 1.368 . S
C165 H170 0.931 . S
C166 C165 1.351 . S
C166 N167 1.373 . S
C166 H194 0.930 . S
N167 C166 1.373 . S
N167 C169 1.340 . S
N168 C165 1.368 . S
N168 C169 1.321 . S
N168 Co171 2.135 . S
C169 N167 1.340 . S
C169 N168 1.321 . S
C169 H193 0.930 . S
H170 C165 0.931 . S
Co171 N168 2.135 . S
Co171 N174 2.121 . S
Co171 O179 2.055 . S
Co171 O182 2.039 . S
Co171 N185 2.140 . S
C172 O173 1.227 . S
C172 O182 1.265 . S
O173 C172 1.227 . S
N174 Co171 2.121 . S
N174 C176 1.375 . S
N174 C177 1.313 . S
C175 C176 1.338 . S
C175 N178 1.377 . S
C175 H195 0.930 . S
C176 N174 1.375 . S
C176 C175 1.338 . S
C176 H180 0.931 . S
C177 N174 1.313 . S
C177 N178 1.344 . S
C177 H181 0.930 . S
N178 C175 1.377 . S
N178 C177 1.344 . S
O179 Co171 2.055 . S
O179 C183 1.253 . S
H180 C176 0.931 . S
H181 C177 0.930 . S
O182 Co171 2.039 . S
O182 C172 1.265 . S
C183 O179 1.253 . S
C183 O184 1.227 . S
O184 C183 1.227 . S
N185 Co171 2.140 . S
N185 C188 1.346 . S
N185 C189 1.345 . S
C186 C187 1.387 . S
C186 C190 1.391 . S
C187 C186 1.387 . S
C187 C188 1.369 . S
C187 H196 0.929 . S
C188 N185 1.346 . S
C188 C187 1.369 . S
C188 H191 0.928 . S
C189 N185 1.345 . S
C189 C190 1.371 . S
C189 H192 0.931 . S
C190 C186 1.391 . S
C190 C189 1.371 . S
C190 H197 0.930 . S
H191 C188 0.928 . S
H192 C189 0.931 . S
H193 C169 0.930 . S
H194 C166 0.930 . S
H195 C175 0.930 . S
H196 C187 0.929 . S
H197 C190 0.930 . S
C198 C199 1.351 1_556 S
C198 N201 1.368 . S
C198 H203 0.931 . S
C199 C198 1.351 1_554 S
C199 N200 1.373 . S
C199 H227 0.930 . S
N200 C199 1.373 . S
N200 C202 1.340 1_554 S
N201 C198 1.368 . S
N201 C202 1.321 . S
N201 Co204 2.135 . S
C202 N200 1.340 1_556 S
C202 N201 1.321 . S
C202 H226 0.930 . S
H203 C198 0.931 . S
Co204 N201 2.135 . S
Co204 N207 2.121 . S
Co204 O212 2.055 . S
Co204 O215 2.039 . S
Co204 N218 2.140 . S
C205 O206 1.227 . S
C205 O215 1.265 . S
O206 C205 1.227 . S
N207 Co204 2.121 . S
N207 C209 1.375 . S
N207 C210 1.313 . S
C208 C209 1.338 . S
C208 N211 1.377 . S
C208 H228 0.930 . S
C209 N207 1.375 . S
C209 C208 1.338 . S
C209 H213 0.931 . S
C210 N207 1.313 . S
C210 N211 1.344 . S
C210 H214 0.930 . S
N211 C208 1.377 . S
N211 C210 1.344 . S
O212 Co204 2.055 . S
O212 C216 1.253 . S
H213 C209 0.931 . S
H214 C210 0.930 . S
O215 Co204 2.039 . S
O215 C205 1.265 . S
C216 O212 1.253 . S
C216 O217 1.227 . S
O217 C216 1.227 . S
N218 Co204 2.140 . S
N218 C221 1.346 . S
N218 C222 1.345 . S
C219 C220 1.387 . S
C219 C223 1.391 . S
C220 C219 1.387 . S
C220 C221 1.369 . S
C220 H229 0.929 . S
C221 N218 1.346 . S
C221 C220 1.369 . S
C221 H224 0.928 . S
C222 N218 1.345 . S
C222 C223 1.371 . S
C222 H225 0.931 . S
C223 C219 1.391 . S
C223 C222 1.371 . S
C223 H230 0.930 . S
H224 C221 0.928 . S
H225 C222 0.931 . S
H226 C202 0.930 . S
H227 C199 0.930 . S
H228 C208 0.930 . S
H229 C220 0.929 . S
H230 C223 0.930 . S
C231 C232 1.351 1_556 S
C231 N234 1.368 . S
C231 H236 0.931 . S
C232 C231 1.351 1_554 S
C232 N233 1.373 . S
C232 H260 0.930 . S
N233 C232 1.373 . S
N233 C235 1.340 1_554 S
N234 C231 1.368 . S
N234 C235 1.321 . S
N234 Co237 2.135 . S
C235 N233 1.340 1_556 S
C235 N234 1.321 . S
C235 H259 0.930 . S
H236 C231 0.931 . S
Co237 N234 2.135 . S
Co237 N240 2.121 . S
Co237 O245 2.055 . S
Co237 O248 2.039 . S
Co237 N251 2.140 . S
C238 O239 1.227 . S
C238 O248 1.265 . S
O239 C238 1.227 . S
N240 Co237 2.121 . S
N240 C242 1.375 . S
N240 C243 1.313 . S
C241 C242 1.338 . S
C241 N244 1.377 . S
C241 H261 0.930 . S
C242 N240 1.375 . S
C242 C241 1.338 . S
C242 H246 0.931 . S
C243 N240 1.313 . S
C243 N244 1.344 . S
C243 H247 0.930 . S
N244 C241 1.377 . S
N244 C243 1.344 . S
O245 Co237 2.055 . S
O245 C249 1.253 . S
H246 C242 0.931 . S
H247 C243 0.930 . S
O248 Co237 2.039 . S
O248 C238 1.265 . S
C249 O245 1.253 . S
C249 O250 1.227 . S
O250 C249 1.227 . S
N251 Co237 2.140 . S
N251 C254 1.346 . S
N251 C255 1.345 . S
C252 C253 1.387 . S
C252 C256 1.391 . S
C253 C252 1.387 . S
C253 C254 1.369 . S
C253 H262 0.929 . S
C254 N251 1.346 . S
C254 C253 1.369 . S
C254 H257 0.928 . S
C255 N251 1.345 . S
C255 C256 1.371 . S
C255 H258 0.931 . S
C256 C252 1.391 . S
C256 C255 1.371 . S
C256 H263 0.930 . S
H257 C254 0.928 . S
H258 C255 0.931 . S
H259 C235 0.930 . S
H260 C232 0.930 . S
H261 C241 0.930 . S
H262 C253 0.929 . S
H263 C256 0.930 . S
C264 C265 1.351 1_556 S
C264 N267 1.368 . S
C264 H269 0.931 . S
C265 C264 1.351 1_554 S
C265 N266 1.373 . S
C265 H293 0.930 . S
N266 C265 1.373 . S
N266 C268 1.340 1_554 S
N267 C264 1.368 . S
N267 C268 1.321 . S
N267 Co270 2.135 . S
C268 N266 1.340 1_556 S
C268 N267 1.321 . S
C268 H292 0.930 . S
H269 C264 0.931 . S
Co270 N267 2.135 . S
Co270 N273 2.121 . S
Co270 O278 2.055 . S
Co270 O281 2.039 . S
Co270 N284 2.140 . S
C271 O272 1.227 . S
C271 O281 1.265 . S
O272 C271 1.227 . S
N273 Co270 2.121 . S
N273 C275 1.375 . S
N273 C276 1.313 . S
C274 C275 1.338 . S
C274 N277 1.377 . S
C274 H294 0.930 . S
C275 N273 1.375 . S
C275 C274 1.338 . S
C275 H279 0.931 . S
C276 N273 1.313 . S
C276 N277 1.344 . S
C276 H280 0.930 . S
N277 C274 1.377 . S
N277 C276 1.344 . S
O278 Co270 2.055 . S
O278 C282 1.253 . S
H279 C275 0.931 . S
H280 C276 0.930 . S
O281 Co270 2.039 . S
O281 C271 1.265 . S
C282 O278 1.253 . S
C282 O283 1.227 . S
O283 C282 1.227 . S
N284 Co270 2.140 . S
N284 C287 1.346 . S
N284 C288 1.345 . S
C285 C286 1.387 . S
C285 C289 1.391 . S
C286 C285 1.387 . S
C286 C287 1.369 . S
C286 H295 0.929 . S
C287 N284 1.346 . S
C287 C286 1.369 . S
C287 H290 0.928 . S
C288 N284 1.345 . S
C288 C289 1.371 . S
C288 H291 0.931 . S
C289 C285 1.391 . S
C289 C288 1.371 . S
C289 H296 0.930 . S
H290 C287 0.928 . S
H291 C288 0.931 . S
H292 C268 0.930 . S
H293 C265 0.930 . S
H294 C274 0.930 . S
H295 C286 0.929 . S
H296 C289 0.930 . S
C297 C298 1.351 . S
C297 N300 1.368 . S
C297 H302 0.931 . S
C298 C297 1.351 . S
C298 N299 1.373 . S
C298 H326 0.930 . S
N299 C298 1.373 . S
N299 C301 1.340 . S
N300 C297 1.368 . S
N300 C301 1.321 . S
N300 Co303 2.135 . S
C301 N299 1.340 . S
C301 N300 1.321 . S
C301 H325 0.930 . S
H302 C297 0.931 . S
Co303 N300 2.135 . S
Co303 N306 2.121 1_556 S
Co303 O311 2.055 . S
Co303 O314 2.039 . S
Co303 N317 2.140 . S
C304 O305 1.227 . S
C304 O314 1.265 . S
O305 C304 1.227 . S
N306 Co303 2.121 1_554 S
N306 C308 1.375 . S
N306 C309 1.313 . S
C307 C308 1.338 . S
C307 N310 1.377 . S
C307 H327 0.930 . S
C308 N306 1.375 . S
C308 C307 1.338 . S
C308 H312 0.931 . S
C309 N306 1.313 . S
C309 N310 1.344 . S
C309 H313 0.930 . S
N310 C307 1.377 . S
N310 C309 1.344 . S
O311 Co303 2.055 . S
O311 C315 1.253 . S
H312 C308 0.931 . S
H313 C309 0.930 . S
O314 Co303 2.039 . S
O314 C304 1.265 . S
C315 O311 1.253 . S
C315 O316 1.227 . S
O316 C315 1.227 . S
N317 Co303 2.140 . S
N317 C320 1.346 . S
N317 C321 1.345 . S
C318 C319 1.387 . S
C318 C322 1.391 . S
C319 C318 1.387 . S
C319 C320 1.369 . S
C319 H328 0.929 . S
C320 N317 1.346 . S
C320 C319 1.369 . S
C320 H323 0.928 . S
C321 N317 1.345 . S
C321 C322 1.371 . S
C321 H324 0.931 1_556 S
C322 C318 1.391 . S
C322 C321 1.371 . S
C322 H329 0.930 . S
H323 C320 0.928 . S
H324 C321 0.931 1_554 S
H325 C301 0.930 . S
H326 C298 0.930 . S
H327 C307 0.930 . S
H328 C319 0.929 . S
H329 C322 0.930 . S
C330 C331 1.351 . S
C330 N333 1.368 . S
C330 H335 0.931 . S
C331 C330 1.351 . S
C331 N332 1.373 . S
C331 H359 0.930 . S
N332 C331 1.373 . S
N332 C334 1.340 . S
N333 C330 1.368 . S
N333 C334 1.321 . S
N333 Co336 2.135 . S
C334 N332 1.340 . S
C334 N333 1.321 . S
C334 H358 0.930 . S
H335 C330 0.931 . S
Co336 N333 2.135 . S
Co336 N339 2.121 1_556 S
Co336 O344 2.055 . S
Co336 O347 2.039 . S
Co336 N350 2.140 . S
C337 O338 1.227 . S
C337 O347 1.265 . S
O338 C337 1.227 . S
N339 Co336 2.121 1_554 S
N339 C341 1.375 . S
N339 C342 1.313 . S
C340 C341 1.338 . S
C340 N343 1.377 . S
C340 H360 0.930 . S
C341 N339 1.375 . S
C341 C340 1.338 . S
C341 H345 0.931 . S
C342 N339 1.313 . S
C342 N343 1.344 . S
C342 H346 0.930 . S
N343 C340 1.377 . S
N343 C342 1.344 . S
O344 Co336 2.055 . S
O344 C348 1.253 . S
H345 C341 0.931 . S
H346 C342 0.930 . S
O347 Co336 2.039 . S
O347 C337 1.265 . S
C348 O344 1.253 . S
C348 O349 1.227 . S
O349 C348 1.227 . S
N350 Co336 2.140 . S
N350 C353 1.346 . S
N350 C354 1.345 . S
C351 C352 1.387 . S
C351 C355 1.391 . S
C352 C351 1.387 . S
C352 C353 1.369 . S
C352 H361 0.929 . S
C353 N350 1.346 . S
C353 C352 1.369 . S
C353 H356 0.928 . S
C354 N350 1.345 . S
C354 C355 1.371 . S
C354 H357 0.931 1_556 S
C355 C351 1.391 . S
C355 C354 1.371 . S
C355 H362 0.930 . S
H356 C353 0.928 . S
H357 C354 0.931 1_554 S
H358 C334 0.930 . S
H359 C331 0.930 . S
H360 C340 0.930 . S
H361 C352 0.929 . S
H362 C355 0.930 . S
C363 C364 1.351 . S
C363 N366 1.368 . S
C363 H368 0.931 . S
C364 C363 1.351 . S
C364 N365 1.373 . S
C364 H392 0.930 . S
N365 C364 1.373 . S
N365 C367 1.340 . S
N366 C363 1.368 . S
N366 C367 1.321 . S
N366 Co369 2.135 . S
C367 N365 1.340 . S
C367 N366 1.321 . S
C367 H391 0.930 . S
H368 C363 0.931 . S
Co369 N366 2.135 . S
Co369 N372 2.121 1_556 S
Co369 O377 2.055 . S
Co369 O380 2.039 . S
Co369 N383 2.140 . S
C370 O371 1.227 . S
C370 O380 1.265 . S
O371 C370 1.227 . S
N372 Co369 2.121 1_554 S
N372 C374 1.375 . S
N372 C375 1.313 . S
C373 C374 1.338 . S
C373 N376 1.377 . S
C373 H393 0.930 . S
C374 N372 1.375 . S
C374 C373 1.338 . S
C374 H378 0.931 . S
C375 N372 1.313 . S
C375 N376 1.344 . S
C375 H379 0.930 . S
N376 C373 1.377 . S
N376 C375 1.344 . S
O377 Co369 2.055 . S
O377 C381 1.253 . S
H378 C374 0.931 . S
H379 C375 0.930 . S
O380 Co369 2.039 . S
O380 C370 1.265 . S
C381 O377 1.253 . S
C381 O382 1.227 . S
O382 C381 1.227 . S
N383 Co369 2.140 . S
N383 C386 1.346 . S
N383 C387 1.345 . S
C384 C385 1.387 . S
C384 C388 1.391 . S
C385 C384 1.387 . S
C385 C386 1.369 . S
C385 H394 0.929 . S
C386 N383 1.346 . S
C386 C385 1.369 . S
C386 H389 0.928 . S
C387 N383 1.345 . S
C387 C388 1.371 . S
C387 H390 0.931 1_556 S
C388 C384 1.391 . S
C388 C387 1.371 . S
C388 H395 0.930 . S
H389 C386 0.928 . S
H390 C387 0.931 1_554 S
H391 C367 0.930 . S
H392 C364 0.930 . S
H393 C373 0.930 . S
H394 C385 0.929 . S
H395 C388 0.930 . S
C396 C397 1.351 . S
C396 N399 1.368 . S
C396 H401 0.931 . S
C397 C396 1.351 . S
C397 N398 1.373 . S
C397 H425 0.930 . S
N398 C397 1.373 . S
N398 C400 1.340 . S
N399 C396 1.368 . S
N399 C400 1.321 . S
N399 Co402 2.135 . S
C400 N398 1.340 . S
C400 N399 1.321 . S
C400 H424 0.930 . S
H401 C396 0.931 . S
Co402 N399 2.135 . S
Co402 N405 2.121 1_554 S
Co402 O410 2.055 . S
Co402 O413 2.039 . S
Co402 N416 2.140 . S
C403 O404 1.227 . S
C403 O413 1.265 . S
O404 C403 1.227 . S
N405 Co402 2.121 1_556 S
N405 C407 1.375 . S
N405 C408 1.313 . S
C406 C407 1.338 . S
C406 N409 1.377 . S
C406 H426 0.930 . S
C407 N405 1.375 . S
C407 C406 1.338 . S
C407 H411 0.931 . S
C408 N405 1.313 . S
C408 N409 1.344 . S
C408 H412 0.930 . S
N409 C406 1.377 . S
N409 C408 1.344 . S
O410 Co402 2.055 . S
O410 C414 1.253 . S
H411 C407 0.931 . S
H412 C408 0.930 . S
O413 Co402 2.039 . S
O413 C403 1.265 . S
C414 O410 1.253 . S
C414 O415 1.227 . S
O415 C414 1.227 . S
N416 Co402 2.140 . S
N416 C419 1.346 . S
N416 C420 1.345 . S
C417 C418 1.387 . S
C417 C421 1.391 . S
C418 C417 1.387 . S
C418 C419 1.369 . S
C418 H427 0.929 . S
C419 N416 1.346 . S
C419 C418 1.369 . S
C419 H422 0.928 . S
C420 N416 1.345 . S
C420 C421 1.371 . S
C420 H423 0.931 1_554 S
C421 C417 1.391 . S
C421 C420 1.371 . S
C421 H428 0.930 . S
H422 C419 0.928 . S
H423 C420 0.931 1_556 S
H424 C400 0.930 . S
H425 C397 0.930 . S
H426 C406 0.930 . S
H427 C418 0.929 . S
H428 C421 0.930 . S
C429 C430 1.351 . S
C429 N432 1.368 . S
C429 H434 0.931 . S
C430 C429 1.351 . S
C430 N431 1.373 . S
C430 H458 0.930 . S
N431 C430 1.373 . S
N431 C433 1.340 . S
N432 C429 1.368 . S
N432 C433 1.321 . S
N432 Co435 2.135 . S
C433 N431 1.340 . S
C433 N432 1.321 . S
C433 H457 0.930 . S
H434 C429 0.931 . S
Co435 N432 2.135 . S
Co435 N438 2.121 1_554 S
Co435 O443 2.055 . S
Co435 O446 2.039 . S
Co435 N449 2.140 . S
C436 O437 1.227 . S
C436 O446 1.265 . S
O437 C436 1.227 . S
N438 Co435 2.121 1_556 S
N438 C440 1.375 . S
N438 C441 1.313 . S
C439 C440 1.338 . S
C439 N442 1.377 . S
C439 H459 0.930 . S
C440 N438 1.375 . S
C440 C439 1.338 . S
C440 H444 0.931 . S
C441 N438 1.313 . S
C441 N442 1.344 . S
C441 H445 0.930 . S
N442 C439 1.377 . S
N442 C441 1.344 . S
O443 Co435 2.055 . S
O443 C447 1.253 . S
H444 C440 0.931 . S
H445 C441 0.930 . S
O446 Co435 2.039 . S
O446 C436 1.265 . S
C447 O443 1.253 . S
C447 O448 1.227 . S
O448 C447 1.227 . S
N449 Co435 2.140 . S
N449 C452 1.346 . S
N449 C453 1.345 . S
C450 C451 1.387 . S
C450 C454 1.391 . S
C451 C450 1.387 . S
C451 C452 1.369 . S
C451 H460 0.929 . S
C452 N449 1.346 . S
C452 C451 1.369 . S
C452 H455 0.928 . S
C453 N449 1.345 . S
C453 C454 1.371 . S
C453 H456 0.931 1_554 S
C454 C450 1.391 . S
C454 C453 1.371 . S
C454 H461 0.930 . S
H455 C452 0.928 . S
H456 C453 0.931 1_556 S
H457 C433 0.930 . S
H458 C430 0.930 . S
H459 C439 0.930 . S
H460 C451 0.929 . S
H461 C454 0.930 . S
C462 C463 1.351 . S
C462 N465 1.368 . S
C462 H467 0.931 . S
C463 C462 1.351 . S
C463 N464 1.373 . S
C463 H491 0.930 . S
N464 C463 1.373 . S
N464 C466 1.340 . S
N465 C462 1.368 . S
N465 C466 1.321 . S
N465 Co468 2.135 . S
C466 N464 1.340 . S
C466 N465 1.321 . S
C466 H490 0.930 . S
H467 C462 0.931 . S
Co468 N465 2.135 . S
Co468 N471 2.121 1_554 S
Co468 O476 2.055 . S
Co468 O479 2.039 . S
Co468 N482 2.140 . S
C469 O470 1.227 . S
C469 O479 1.265 . S
O470 C469 1.227 . S
N471 Co468 2.121 1_556 S
N471 C473 1.375 . S
N471 C474 1.313 . S
C472 C473 1.338 . S
C472 N475 1.377 . S
C472 H492 0.930 . S
C473 N471 1.375 . S
C473 C472 1.338 . S
C473 H477 0.931 . S
C474 N471 1.313 . S
C474 N475 1.344 . S
C474 H478 0.930 . S
N475 C472 1.377 . S
N475 C474 1.344 . S
O476 Co468 2.055 . S
O476 C480 1.253 . S
H477 C473 0.931 . S
H478 C474 0.930 . S
O479 Co468 2.039 . S
O479 C469 1.265 . S
C480 O476 1.253 . S
C480 O481 1.227 . S
O481 C480 1.227 . S
N482 Co468 2.140 . S
N482 C485 1.346 . S
N482 C486 1.345 . S
C483 C484 1.387 . S
C483 C487 1.391 . S
C484 C483 1.387 . S
C484 C485 1.369 . S
C484 H493 0.929 . S
C485 N482 1.346 . S
C485 C484 1.369 . S
C485 H488 0.928 . S
C486 N482 1.345 . S
C486 C487 1.371 . S
C486 H489 0.931 1_554 S
C487 C483 1.391 . S
C487 C486 1.371 . S
C487 H494 0.930 . S
H488 C485 0.928 . S
H489 C486 0.931 1_556 S
H490 C466 0.930 . S
H491 C463 0.930 . S
H492 C472 0.930 . S
H493 C484 0.929 . S
H494 C487 0.930 . S
C495 C496 1.351 1_554 S
C495 N498 1.368 . S
C495 H500 0.931 . S
C496 C495 1.351 1_556 S
C496 N497 1.373 . S
C496 H524 0.930 . S
N497 C496 1.373 . S
N497 C499 1.340 1_556 S
N498 C495 1.368 . S
N498 C499 1.321 . S
N498 Co501 2.135 . S
C499 N497 1.340 1_554 S
C499 N498 1.321 . S
C499 H523 0.930 . S
H500 C495 0.931 . S
Co501 N498 2.135 . S
Co501 N504 2.121 . S
Co501 O509 2.055 . S
Co501 O512 2.039 . S
Co501 N515 2.140 . S
C502 O503 1.227 . S
C502 O512 1.265 . S
O503 C502 1.227 . S
N504 Co501 2.121 . S
N504 C506 1.375 . S
N504 C507 1.313 . S
C505 C506 1.338 . S
C505 N508 1.377 . S
C505 H525 0.930 . S
C506 N504 1.375 . S
C506 C505 1.338 . S
C506 H510 0.931 . S
C507 N504 1.313 . S
C507 N508 1.344 . S
C507 H511 0.930 . S
N508 C505 1.377 . S
N508 C507 1.344 . S
O509 Co501 2.055 . S
O509 C513 1.253 . S
H510 C506 0.931 . S
H511 C507 0.930 . S
O512 Co501 2.039 . S
O512 C502 1.265 . S
C513 O509 1.253 . S
C513 O514 1.227 . S
O514 C513 1.227 . S
N515 Co501 2.140 . S
N515 C518 1.346 . S
N515 C519 1.345 . S
C516 C517 1.387 . S
C516 C520 1.391 . S
C517 C516 1.387 . S
C517 C518 1.369 . S
C517 H526 0.929 . S
C518 N515 1.346 . S
C518 C517 1.369 . S
C518 H521 0.928 . S
C519 N515 1.345 . S
C519 C520 1.371 . S
C519 H522 0.931 . S
C520 C516 1.391 . S
C520 C519 1.371 . S
C520 H527 0.930 . S
H521 C518 0.928 . S
H522 C519 0.931 . S
H523 C499 0.930 . S
H524 C496 0.930 . S
H525 C505 0.930 . S
H526 C517 0.929 . S
H527 C520 0.930 . S
C528 C529 1.351 1_554 S
C528 N531 1.368 . S
C528 H533 0.931 . S
C529 C528 1.351 1_556 S
C529 N530 1.373 . S
C529 H557 0.930 . S
N530 C529 1.373 . S
N530 C532 1.340 1_556 S
N531 C528 1.368 . S
N531 C532 1.321 . S
N531 Co534 2.135 . S
C532 N530 1.340 1_554 S
C532 N531 1.321 . S
C532 H556 0.930 . S
H533 C528 0.931 . S
Co534 N531 2.135 . S
Co534 N537 2.121 . S
Co534 O542 2.055 . S
Co534 O545 2.039 . S
Co534 N548 2.140 . S
C535 O536 1.227 . S
C535 O545 1.265 . S
O536 C535 1.227 . S
N537 Co534 2.121 . S
N537 C539 1.375 . S
N537 C540 1.313 . S
C538 C539 1.338 . S
C538 N541 1.377 . S
C538 H558 0.930 . S
C539 N537 1.375 . S
C539 C538 1.338 . S
C539 H543 0.931 . S
C540 N537 1.313 . S
C540 N541 1.344 . S
C540 H544 0.930 . S
N541 C538 1.377 . S
N541 C540 1.344 . S
O542 Co534 2.055 . S
O542 C546 1.253 . S
H543 C539 0.931 . S
H544 C540 0.930 . S
O545 Co534 2.039 . S
O545 C535 1.265 . S
C546 O542 1.253 . S
C546 O547 1.227 . S
O547 C546 1.227 . S
N548 Co534 2.140 . S
N548 C551 1.346 . S
N548 C552 1.345 . S
C549 C550 1.387 . S
C549 C553 1.391 . S
C550 C549 1.387 . S
C550 C551 1.369 . S
C550 H559 0.929 . S
C551 N548 1.346 . S
C551 C550 1.369 . S
C551 H554 0.928 . S
C552 N548 1.345 . S
C552 C553 1.371 . S
C552 H555 0.931 . S
C553 C549 1.391 . S
C553 C552 1.371 . S
C553 H560 0.930 . S
H554 C551 0.928 . S
H555 C552 0.931 . S
H556 C532 0.930 . S
H557 C529 0.930 . S
H558 C538 0.930 . S
H559 C550 0.929 . S
H560 C553 0.930 . S
C561 C562 1.351 1_554 S
C561 N564 1.368 . S
C561 H566 0.931 . S
C562 C561 1.351 1_556 S
C562 N563 1.373 . S
C562 H590 0.930 . S
N563 C562 1.373 . S
N563 C565 1.340 1_556 S
N564 C561 1.368 . S
N564 C565 1.321 . S
N564 Co567 2.135 . S
C565 N563 1.340 1_554 S
C565 N564 1.321 . S
C565 H589 0.930 . S
H566 C561 0.931 . S
Co567 N564 2.135 . S
Co567 N570 2.121 . S
Co567 O575 2.055 . S
Co567 O578 2.039 . S
Co567 N581 2.140 . S
C568 O569 1.227 . S
C568 O578 1.265 . S
O569 C568 1.227 . S
N570 Co567 2.121 . S
N570 C572 1.375 . S
N570 C573 1.313 . S
C571 C572 1.338 . S
C571 N574 1.377 . S
C571 H591 0.930 . S
C572 N570 1.375 . S
C572 C571 1.338 . S
C572 H576 0.931 . S
C573 N570 1.313 . S
C573 N574 1.344 . S
C573 H577 0.930 . S
N574 C571 1.377 . S
N574 C573 1.344 . S
O575 Co567 2.055 . S
O575 C579 1.253 . S
H576 C572 0.931 . S
H577 C573 0.930 . S
O578 Co567 2.039 . S
O578 C568 1.265 . S
C579 O575 1.253 . S
C579 O580 1.227 . S
O580 C579 1.227 . S
N581 Co567 2.140 . S
N581 C584 1.346 . S
N581 C585 1.345 . S
C582 C583 1.387 . S
C582 C586 1.391 . S
C583 C582 1.387 . S
C583 C584 1.369 . S
C583 H592 0.929 . S
C584 N581 1.346 . S
C584 C583 1.369 . S
C584 H587 0.928 . S
C585 N581 1.345 . S
C585 C586 1.371 . S
C585 H588 0.931 . S
C586 C582 1.391 . S
C586 C585 1.371 . S
C586 H593 0.930 . S
H587 C584 0.928 . S
H588 C585 0.931 . S
H589 C565 0.930 . S
H590 C562 0.930 . S
H591 C571 0.930 . S
H592 C583 0.929 . S
H593 C586 0.930 . S
C594 C595 1.387 . S
C594 H598 0.950 . S
C594 C603 1.390 . S
C595 C594 1.387 . S
C595 C597 1.387 . S
H596 C603 0.950 . S
C597 C595 1.387 . S
C597 C599 1.390 . S
C597 H601 0.950 . S
H598 C594 0.950 . S
C599 C597 1.390 . S
C599 C600 1.387 . S
C599 H602 0.950 . S
C600 C599 1.387 . S
C600 C603 1.387 . S
H601 C597 0.950 . S
H602 C599 0.950 . S
C603 C594 1.390 . S
C603 H596 0.950 . S
C603 C600 1.387 . S
C604 C605 1.387 . S
C604 H608 0.950 . S
C604 C613 1.390 1_545 S
C605 C604 1.387 . S
C605 C607 1.387 . S
H606 C613 0.950 . S
C607 C605 1.387 . S
C607 C609 1.390 1_545 S
C607 H611 0.950 . S
H608 C604 0.950 . S
C609 C607 1.390 1_565 S
C609 C610 1.387 . S
C609 H612 0.950 . S
C610 C609 1.387 . S
C610 C613 1.387 . S
H611 C607 0.950 . S
H612 C609 0.950 . S
C613 C604 1.390 1_565 S
C613 H606 0.950 . S
C613 C610 1.387 . S
C614 C615 1.387 . S
C614 H618 0.950 . S
C614 C623 1.390 1_655 S
C615 C614 1.387 . S
C615 C617 1.387 . S
H616 C623 0.950 . S
C617 C615 1.387 . S
C617 C619 1.390 1_655 S
C617 H621 0.950 . S
H618 C614 0.950 . S
C619 C617 1.390 1_455 S
C619 C620 1.387 . S
C619 H622 0.950 . S
C620 C619 1.387 . S
C620 C623 1.387 . S
H621 C617 0.950 . S
H622 C619 0.950 . S
C623 C614 1.390 1_455 S
C623 H616 0.950 . S
C623 C620 1.387 . S
C624 C625 1.387 . S
C624 H628 0.950 . S
C624 C633 1.390 . S
C625 C624 1.387 . S
C625 C627 1.387 . S
H626 C633 0.950 . S
C627 C625 1.387 . S
C627 C629 1.390 . S
C627 H631 0.950 . S
H628 C624 0.950 . S
C629 C627 1.390 . S
C629 C630 1.387 . S
C629 H632 0.950 . S
C630 C629 1.387 . S
C630 C633 1.387 . S
H631 C627 0.950 . S
H632 C629 0.950 . S
C633 C624 1.390 . S
C633 H626 0.950 . S
C633 C630 1.387 . S
C634 C635 1.387 . S
C634 H638 0.950 . S
C634 C643 1.390 1_545 S
C635 C634 1.387 . S
C635 C637 1.387 . S
H636 C643 0.950 . S
C637 C635 1.387 . S
C637 C639 1.390 1_545 S
C637 H641 0.950 . S
H638 C634 0.950 . S
C639 C637 1.390 1_565 S
C639 C640 1.387 . S
C639 H642 0.950 . S
C640 C639 1.387 . S
C640 C643 1.387 . S
H641 C637 0.950 . S
H642 C639 0.950 . S
C643 C634 1.390 1_565 S
C643 H636 0.950 . S
C643 C640 1.387 . S
C644 C645 1.387 . S
C644 H648 0.950 . S
C644 C653 1.390 1_655 S
C645 C644 1.387 . S
C645 C647 1.387 . S
H646 C653 0.950 . S
C647 C645 1.387 . S
C647 C649 1.390 1_655 S
C647 H651 0.950 . S
H648 C644 0.950 . S
C649 C647 1.390 1_455 S
C649 C650 1.387 . S
C649 H652 0.950 . S
C650 C649 1.387 . S
C650 C653 1.387 . S
H651 C647 0.950 . S
H652 C649 0.950 . S
C653 C644 1.390 1_455 S
C653 H646 0.950 . S
C653 C650 1.387 . S
C654 C655 1.387 . S
C654 H658 0.950 . S
C654 C663 1.390 . S
C655 C654 1.387 . S
C655 C657 1.387 . S
H656 C663 0.950 . S
C657 C655 1.387 . S
C657 C659 1.390 . S
C657 H661 0.950 . S
H658 C654 0.950 . S
C659 C657 1.390 . S
C659 C660 1.387 . S
C659 H662 0.950 . S
C660 C659 1.387 . S
C660 C663 1.387 . S
H661 C657 0.950 . S
H662 C659 0.950 . S
C663 C654 1.390 . S
C663 H656 0.950 . S
C663 C660 1.387 . S
C664 C665 1.387 . S
C664 H668 0.950 . S
C664 C673 1.390 . S
C665 C664 1.387 . S
C665 C667 1.387 . S
H666 C673 0.950 . S
C667 C665 1.387 . S
C667 C669 1.390 . S
C667 H671 0.950 . S
H668 C664 0.950 . S
C669 C667 1.390 . S
C669 C670 1.387 . S
C669 H672 0.950 . S
C670 C669 1.387 . S
C670 C673 1.387 . S
H671 C667 0.950 . S
H672 C669 0.950 . S
C673 C664 1.390 . S
C673 H666 0.950 . S
C673 C670 1.387 . S
C674 C675 1.387 . S
C674 H678 0.950 . S
C674 C683 1.390 . S
C675 C674 1.387 . S
C675 C677 1.387 . S
H676 C683 0.950 . S
C677 C675 1.387 . S
C677 C679 1.390 . S
C677 H681 0.950 . S
H678 C674 0.950 . S
C679 C677 1.390 . S
C679 C680 1.387 . S
C679 H682 0.950 . S
C680 C679 1.387 . S
C680 C683 1.387 . S
H681 C677 0.950 . S
H682 C679 0.950 . S
C683 C674 1.390 . S
C683 H676 0.950 . S
C683 C680 1.387 . S
C684 C685 1.387 . S
C684 H688 0.950 . S
C684 C693 1.390 . S
C685 C684 1.387 . S
C685 C687 1.387 . S
H686 C693 0.950 . S
C687 C685 1.387 . S
C687 C689 1.390 . S
C687 H691 0.950 . S
H688 C684 0.950 . S
C689 C687 1.390 . S
C689 C690 1.387 . S
C689 H692 0.950 . S
C690 C689 1.387 . S
C690 C693 1.387 . S
H691 C687 0.950 . S
H692 C689 0.950 . S
C693 C684 1.390 . S
C693 H686 0.950 . S
C693 C690 1.387 . S
C694 C695 1.387 . S
C694 H698 0.950 . S
C694 C703 1.390 . S
C695 C694 1.387 . S
C695 C697 1.387 . S
H696 C703 0.950 . S
C697 C695 1.387 . S
C697 C699 1.390 . S
C697 H701 0.950 . S
H698 C694 0.950 . S
C699 C697 1.390 . S
C699 C700 1.387 . S
C699 H702 0.950 . S
C700 C699 1.387 . S
C700 C703 1.387 . S
H701 C697 0.950 . S
H702 C699 0.950 . S
C703 C694 1.390 . S
C703 H696 0.950 . S
C703 C700 1.387 . S
C704 C705 1.387 . S
C704 H708 0.950 . S
C704 C713 1.390 . S
C705 C704 1.387 . S
C705 C707 1.387 . S
H706 C713 0.950 . S
C707 C705 1.387 . S
C707 C709 1.390 . S
C707 H711 0.950 . S
H708 C704 0.950 . S
C709 C707 1.390 . S
C709 C710 1.387 . S
C709 H712 0.950 . S
C710 C709 1.387 . S
C710 C713 1.387 . S
H711 C707 0.950 . S
H712 C709 0.950 . S
C713 C704 1.390 . S
C713 H706 0.950 . S
C713 C710 1.387 . S
C714 C715 1.387 . S
C714 H718 0.950 . S
C714 C723 1.390 . S
C715 C714 1.387 . S
C715 C717 1.387 . S
H716 C723 0.950 . S
C717 C715 1.387 . S
C717 C719 1.390 . S
C717 H721 0.950 . S
H718 C714 0.950 . S
C719 C717 1.390 . S
C719 C720 1.387 . S
C719 H722 0.950 . S
C720 C719 1.387 . S
C720 C723 1.387 . S
H721 C717 0.950 . S
H722 C719 0.950 . S
C723 C714 1.390 . S
C723 H716 0.950 . S
C723 C720 1.387 . S
C724 C725 1.387 . S
C724 H728 0.950 . S
C724 C733 1.390 . S
C725 C724 1.387 . S
C725 C727 1.387 . S
H726 C733 0.950 . S
C727 C725 1.387 . S
C727 C729 1.390 . S
C727 H731 0.950 . S
H728 C724 0.950 . S
C729 C727 1.390 . S
C729 C730 1.387 . S
C729 H732 0.950 . S
C730 C729 1.387 . S
C730 C733 1.387 . S
H731 C727 0.950 . S
H732 C729 0.950 . S
C733 C724 1.390 . S
C733 H726 0.950 . S
C733 C730 1.387 . S
C734 C735 1.387 . S
C734 H738 0.950 . S
C734 C743 1.390 . S
C735 C734 1.387 . S
C735 C737 1.387 . S
H736 C743 0.950 . S
C737 C735 1.387 . S
C737 C739 1.390 . S
C737 H741 0.950 . S
H738 C734 0.950 . S
C739 C737 1.390 . S
C739 C740 1.387 . S
C739 H742 0.950 . S
C740 C739 1.387 . S
C740 C743 1.387 . S
H741 C737 0.950 . S
H742 C739 0.950 . S
C743 C734 1.390 . S
C743 H736 0.950 . S
C743 C740 1.387 . S
C744 C745 1.387 . S
C744 H748 0.950 . S
C744 C753 1.390 . S
C745 C744 1.387 . S
C745 C747 1.387 . S
H746 C753 0.950 . S
C747 C745 1.387 . S
C747 C749 1.390 . S
C747 H751 0.950 . S
H748 C744 0.950 . S
C749 C747 1.390 . S
C749 C750 1.387 . S
C749 H752 0.950 . S
C750 C749 1.387 . S
C750 C753 1.387 . S
H751 C747 0.950 . S
H752 C749 0.950 . S
C753 C744 1.390 . S
C753 H746 0.950 . S
C753 C750 1.387 . S
C754 C755 1.387 . S
C754 H758 0.950 . S
C754 C763 1.390 . S
C755 C754 1.387 . S
C755 C757 1.387 . S
H756 C763 0.950 . S
C757 C755 1.387 . S
C757 C759 1.390 . S
C757 H761 0.950 . S
H758 C754 0.950 . S
C759 C757 1.390 . S
C759 C760 1.387 . S
C759 H762 0.950 . S
C760 C759 1.387 . S
C760 C763 1.387 . S
H761 C757 0.950 . S
H762 C759 0.950 . S
C763 C754 1.390 . S
C763 H756 0.950 . S
C763 C760 1.387 . S
C764 C765 1.387 . S
C764 H768 0.950 . S
C764 C773 1.390 . S
C765 C764 1.387 . S
C765 C767 1.387 . S
H766 C773 0.950 . S
C767 C765 1.387 . S
C767 C769 1.390 . S
C767 H771 0.950 . S
H768 C764 0.950 . S
C769 C767 1.390 . S
C769 C770 1.387 . S
C769 H772 0.950 . S
C770 C769 1.387 . S
C770 C773 1.387 . S
H771 C767 0.950 . S
H772 C769 0.950 . S
C773 C764 1.390 . S
C773 H766 0.950 . S
C773 C770 1.387 . S
C774 C775 1.387 . S
C774 H778 0.950 . S
C774 C783 1.390 . S
C775 C774 1.387 . S
C775 C777 1.387 . S
H776 C783 0.950 . S
C777 C775 1.387 . S
C777 C779 1.390 . S
C777 H781 0.950 . S
H778 C774 0.950 . S
C779 C777 1.390 . S
C779 C780 1.387 . S
C779 H782 0.950 . S
C780 C779 1.387 . S
C780 C783 1.387 . S
H781 C777 0.950 . S
H782 C779 0.950 . S
C783 C774 1.390 . S
C783 H776 0.950 . S
C783 C780 1.387 . S
C784 C785 1.387 . S
C784 H788 0.950 . S
C784 C793 1.390 . S
C785 C784 1.387 . S
C785 C787 1.387 . S
H786 C793 0.950 . S
C787 C785 1.387 . S
C787 C789 1.390 . S
C787 H791 0.950 . S
H788 C784 0.950 . S
C789 C787 1.390 . S
C789 C790 1.387 . S
C789 H792 0.950 . S
C790 C789 1.387 . S
C790 C793 1.387 . S
H791 C787 0.950 . S
H792 C789 0.950 . S
C793 C784 1.390 . S
C793 H786 0.950 . S
C793 C790 1.387 . S
C794 C795 1.387 . S
C794 H798 0.950 . S
C794 C803 1.390 . S
C795 C794 1.387 . S
C795 C797 1.387 . S
H796 C803 0.950 . S
C797 C795 1.387 . S
C797 C799 1.390 . S
C797 H801 0.950 . S
H798 C794 0.950 . S
C799 C797 1.390 . S
C799 C800 1.387 . S
C799 H802 0.950 . S
C800 C799 1.387 . S
C800 C803 1.387 . S
H801 C797 0.950 . S
H802 C799 0.950 . S
C803 C794 1.390 . S
C803 H796 0.950 . S
C803 C800 1.387 . S
C804 C805 1.387 . S
C804 H808 0.950 . S
C804 C813 1.390 . S
C805 C804 1.387 . S
C805 C807 1.387 . S
H806 C813 0.950 . S
C807 C805 1.387 . S
C807 C809 1.390 . S
C807 H811 0.950 . S
H808 C804 0.950 . S
C809 C807 1.390 . S
C809 C810 1.387 . S
C809 H812 0.950 . S
C810 C809 1.387 . S
C810 C813 1.387 . S
H811 C807 0.950 . S
H812 C809 0.950 . S
C813 C804 1.390 . S
C813 H806 0.950 . S
C813 C810 1.387 . S
C814 C815 1.387 . S
C814 H818 0.950 . S
C814 C823 1.390 . S
C815 C814 1.387 . S
C815 C817 1.387 . S
H816 C823 0.950 . S
C817 C815 1.387 . S
C817 C819 1.390 . S
C817 H821 0.950 . S
H818 C814 0.950 . S
C819 C817 1.390 . S
C819 C820 1.387 . S
C819 H822 0.950 . S
C820 C819 1.387 . S
C820 C823 1.387 . S
H821 C817 0.950 . S
H822 C819 0.950 . S
C823 C814 1.390 . S
C823 H816 0.950 . S
C823 C820 1.387 . S
C824 C825 1.387 . S
C824 H828 0.950 . S
C824 C833 1.390 . S
C825 C824 1.387 . S
C825 C827 1.387 . S
H826 C833 0.950 . S
C827 C825 1.387 . S
C827 C829 1.390 . S
C827 H831 0.950 . S
H828 C824 0.950 . S
C829 C827 1.390 . S
C829 C830 1.387 . S
C829 H832 0.950 . S
C830 C829 1.387 . S
C830 C833 1.387 . S
H831 C827 0.950 . S
H832 C829 0.950 . S
C833 C824 1.390 . S
C833 H826 0.950 . S
C833 C830 1.387 . S
C834 C835 1.387 1_556 S
C834 H838 0.950 . S
C834 C843 1.390 1_455 S
C835 C834 1.387 1_554 S
C835 C837 1.387 . S
H836 C843 0.950 . S
C837 C835 1.387 . S
C837 C839 1.390 1_455 S
C837 H841 0.950 . S
H838 C834 0.950 . S
C839 C837 1.390 1_655 S
C839 C840 1.387 1_554 S
C839 H842 0.950 . S
C840 C839 1.387 1_556 S
C840 C843 1.387 . S
H841 C837 0.950 . S
H842 C839 0.950 . S
C843 C834 1.390 1_655 S
C843 H836 0.950 . S
C843 C840 1.387 . S
C844 C845 1.387 1_556 S
C844 H848 0.950 . S
C844 C853 1.390 . S
C845 C844 1.387 1_554 S
C845 C847 1.387 . S
H846 C853 0.950 . S
C847 C845 1.387 . S
C847 C849 1.390 . S
C847 H851 0.950 . S
H848 C844 0.950 . S
C849 C847 1.390 . S
C849 C850 1.387 1_554 S
C849 H852 0.950 . S
C850 C849 1.387 1_556 S
C850 C853 1.387 . S
H851 C847 0.950 . S
H852 C849 0.950 . S
C853 C844 1.390 . S
C853 H846 0.950 . S
C853 C850 1.387 . S
C854 C855 1.387 . S
C854 H858 0.950 . S
C854 C863 1.390 1_546 S
C855 C854 1.387 . S
C855 C857 1.387 . S
H856 C863 0.950 . S
C857 C855 1.387 . S
C857 C859 1.390 1_546 S
C857 H861 0.950 . S
H858 C854 0.950 . S
C859 C857 1.390 1_564 S
C859 C860 1.387 . S
C859 H862 0.950 . S
C860 C859 1.387 . S
C860 C863 1.387 . S
H861 C857 0.950 . S
H862 C859 0.950 . S
C863 C854 1.390 1_564 S
C863 H856 0.950 . S
C863 C860 1.387 . S
C864 C865 1.387 . S
C864 H868 0.950 . S
C864 C873 1.390 . S
C865 C864 1.387 . S
C865 C867 1.387 . S
H866 C873 0.950 1_554 S
C867 C865 1.387 . S
C867 C869 1.390 . S
C867 H871 0.950 . S
H868 C864 0.950 . S
C869 C867 1.390 . S
C869 C870 1.387 1_556 S
C869 H872 0.950 1_556 S
C870 C869 1.387 1_554 S
C870 C873 1.387 1_554 S
H871 C867 0.950 . S
H872 C869 0.950 1_554 S
C873 C864 1.390 . S
C873 H866 0.950 1_556 S
C873 C870 1.387 1_556 S
C874 C875 1.387 . S
C874 H878 0.950 . S
C874 C883 1.390 . S
C875 C874 1.387 . S
C875 C877 1.387 . S
H876 C883 0.950 1_554 S
C877 C875 1.387 . S
C877 C879 1.390 . S
C877 H881 0.950 . S
H878 C874 0.950 . S
C879 C877 1.390 . S
C879 C880 1.387 1_556 S
C879 H882 0.950 1_556 S
C880 C879 1.387 1_554 S
C880 C883 1.387 1_554 S
H881 C877 0.950 . S
H882 C879 0.950 1_554 S
C883 C874 1.390 . S
C883 H876 0.950 1_556 S
C883 C880 1.387 1_556 S
C884 C885 1.387 . S
C884 H888 0.950 . S
C884 C893 1.390 . S
C885 C884 1.387 . S
C885 C887 1.387 . S
H886 C893 0.950 1_554 S
C887 C885 1.387 . S
C887 C889 1.390 . S
C887 H891 0.950 . S
H888 C884 0.950 . S
C889 C887 1.390 . S
C889 C890 1.387 1_556 S
C889 H892 0.950 1_556 S
C890 C889 1.387 1_554 S
C890 C893 1.387 1_554 S
H891 C887 0.950 . S
H892 C889 0.950 1_554 S
C893 C884 1.390 . S
C893 H886 0.950 1_556 S
C893 C890 1.387 1_556 S
C894 C895 1.387 1_554 S
C894 H898 0.950 1_554 S
C894 C903 1.390 . S
C895 C894 1.387 1_556 S
C895 C897 1.387 1_556 S
H896 C903 0.950 . S
C897 C895 1.387 1_554 S
C897 C899 1.390 . S
C897 H901 0.950 1_554 S
H898 C894 0.950 1_556 S
C899 C897 1.390 . S
C899 C900 1.387 . S
C899 H902 0.950 . S
C900 C899 1.387 . S
C900 C903 1.387 . S
H901 C897 0.950 1_556 S
H902 C899 0.950 . S
C903 C894 1.390 . S
C903 H896 0.950 . S
C903 C900 1.387 . S
C904 C905 1.387 1_554 S
C904 H908 0.950 1_554 S
C904 C913 1.390 . S
C905 C904 1.387 1_556 S
C905 C907 1.387 1_556 S
H906 C913 0.950 . S
C907 C905 1.387 1_554 S
C907 C909 1.390 . S
C907 H911 0.950 1_554 S
H908 C904 0.950 1_556 S
C909 C907 1.390 . S
C909 C910 1.387 . S
C909 H912 0.950 . S
C910 C909 1.387 . S
C910 C913 1.387 . S
H911 C907 0.950 1_556 S
H912 C909 0.950 . S
C913 C904 1.390 . S
C913 H906 0.950 . S
C913 C910 1.387 . S
C914 C915 1.387 . S
C914 H918 0.950 . S
C914 C923 1.390 . S
C915 C914 1.387 . S
C915 C917 1.387 . S
H916 C923 0.950 1_556 S
C917 C915 1.387 . S
C917 C919 1.390 . S
C917 H921 0.950 . S
H918 C914 0.950 . S
C919 C917 1.390 . S
C919 C920 1.387 1_554 S
C919 H922 0.950 1_554 S
C920 C919 1.387 1_556 S
C920 C923 1.387 1_556 S
H921 C917 0.950 . S
H922 C919 0.950 1_556 S
C923 C914 1.390 . S
C923 H916 0.950 1_554 S
C923 C920 1.387 1_554 S
C924 C925 1.387 . S
C924 H928 0.950 . S
C924 C933 1.390 . S
C925 C924 1.387 . S
C925 C927 1.387 . S
H926 C933 0.950 . S
C927 C925 1.387 . S
C927 C929 1.390 . S
C927 H931 0.950 . S
H928 C924 0.950 . S
C929 C927 1.390 . S
C929 C930 1.387 . S
C929 H932 0.950 . S
C930 C929 1.387 . S
C930 C933 1.387 . S
H931 C927 0.950 . S
H932 C929 0.950 . S
C933 C924 1.390 . S
C933 H926 0.950 . S
C933 C930 1.387 . S
C934 C935 1.387 . S
C934 H938 0.950 . S
C934 C943 1.390 . S
C935 C934 1.387 . S
C935 C937 1.387 . S
H936 C943 0.950 . S
C937 C935 1.387 . S
C937 C939 1.390 . S
C937 H941 0.950 . S
H938 C934 0.950 . S
C939 C937 1.390 . S
C939 C940 1.387 . S
C939 H942 0.950 . S
C940 C939 1.387 . S
C940 C943 1.387 . S
H941 C937 0.950 . S
H942 C939 0.950 . S
C943 C934 1.390 . S
C943 H936 0.950 . S
C943 C940 1.387 . S
C944 C945 1.387 . S
C944 H948 0.950 . S
C944 C953 1.390 . S
C945 C944 1.387 . S
C945 C947 1.387 . S
H946 C953 0.950 . S
C947 C945 1.387 . S
C947 C949 1.390 . S
C947 H951 0.950 . S
H948 C944 0.950 . S
C949 C947 1.390 . S
C949 C950 1.387 . S
C949 H952 0.950 . S
C950 C949 1.387 . S
C950 C953 1.387 . S
H951 C947 0.950 . S
H952 C949 0.950 . S
C953 C944 1.390 . S
C953 H946 0.950 . S
C953 C950 1.387 . S
C954 C955 1.387 . S
C954 H958 0.950 . S
C954 C963 1.390 . S
C955 C954 1.387 . S
C955 C957 1.387 . S
H956 C963 0.950 . S
C957 C955 1.387 . S
C957 C959 1.390 . S
C957 H961 0.950 . S
H958 C954 0.950 . S
C959 C957 1.390 . S
C959 C960 1.387 . S
C959 H962 0.950 . S
C960 C959 1.387 . S
C960 C963 1.387 . S
H961 C957 0.950 . S
H962 C959 0.950 . S
C963 C954 1.390 . S
C963 H956 0.950 . S
C963 C960 1.387 . S
C964 C965 1.387 . S
C964 H968 0.950 . S
C964 C973 1.390 . S
C965 C964 1.387 . S
C965 C967 1.387 . S
H966 C973 0.950 . S
C967 C965 1.387 . S
C967 C969 1.390 . S
C967 H971 0.950 . S
H968 C964 0.950 . S
C969 C967 1.390 . S
C969 C970 1.387 . S
C969 H972 0.950 . S
C970 C969 1.387 . S
C970 C973 1.387 . S
H971 C967 0.950 . S
H972 C969 0.950 . S
C973 C964 1.390 . S
C973 H966 0.950 . S
C973 C970 1.387 . S
C974 C975 1.387 . S
C974 H978 0.950 . S
C974 C983 1.390 . S
C975 C974 1.387 . S
C975 C977 1.387 . S
H976 C983 0.950 . S
C977 C975 1.387 . S
C977 C979 1.390 . S
C977 H981 0.950 . S
H978 C974 0.950 . S
C979 C977 1.390 . S
C979 C980 1.387 . S
C979 H982 0.950 . S
C980 C979 1.387 . S
C980 C983 1.387 . S
H981 C977 0.950 . S
H982 C979 0.950 . S
C983 C974 1.390 . S
C983 H976 0.950 . S
C983 C980 1.387 . S
C984 C985 1.387 . S
C984 H988 0.950 . S
C984 C993 1.390 . S
C985 C984 1.387 . S
C985 C987 1.387 . S
H986 C993 0.950 . S
C987 C985 1.387 . S
C987 C989 1.390 . S
C987 H991 0.950 . S
H988 C984 0.950 . S
C989 C987 1.390 . S
C989 C990 1.387 . S
C989 H992 0.950 . S
C990 C989 1.387 . S
C990 C993 1.387 . S
H991 C987 0.950 . S
H992 C989 0.950 . S
C993 C984 1.390 . S
C993 H986 0.950 . S
C993 C990 1.387 . S
C994 C995 1.387 . S
C994 H998 0.950 . S
C994 C1003 1.390 . S
C995 C994 1.387 . S
C995 C997 1.387 . S
H996 C1003 0.950 . S
C997 C995 1.387 . S
C997 C999 1.390 . S
C997 H1001 0.950 . S
H998 C994 0.950 . S
C999 C997 1.390 . S
C999 C1000 1.387 . S
C999 H1002 0.950 . S
C1000 C999 1.387 . S
C1000 C1003 1.387 . S
H1001 C997 0.950 . S
H1002 C999 0.950 . S
C1003 C994 1.390 . S
C1003 H996 0.950 . S
C1003 C1000 1.387 . S
C1004 C1005 1.387 . S
C1004 H1008 0.950 . S
C1004 C1013 1.390 . S
C1005 C1004 1.387 . S
C1005 C1007 1.387 . S
H1006 C1013 0.950 . S
C1007 C1005 1.387 . S
C1007 C1009 1.390 . S
C1007 H1011 0.950 . S
H1008 C1004 0.950 . S
C1009 C1007 1.390 . S
C1009 C1010 1.387 . S
C1009 H1012 0.950 . S
C1010 C1009 1.387 . S
C1010 C1013 1.387 . S
H1011 C1007 0.950 . S
H1012 C1009 0.950 . S
C1013 C1004 1.390 . S
C1013 H1006 0.950 . S
C1013 C1010 1.387 . S
C1014 C1015 1.387 . S
C1014 H1018 0.950 . S
C1014 C1023 1.390 . S
C1015 C1014 1.387 . S
C1015 C1017 1.387 . S
H1016 C1023 0.950 . S
C1017 C1015 1.387 . S
C1017 C1019 1.390 . S
C1017 H1021 0.950 . S
H1018 C1014 0.950 . S
C1019 C1017 1.390 . S
C1019 C1020 1.387 . S
C1019 H1022 0.950 . S
C1020 C1019 1.387 . S
C1020 C1023 1.387 . S
H1021 C1017 0.950 . S
H1022 C1019 0.950 . S
C1023 C1014 1.390 . S
C1023 H1016 0.950 . S
C1023 C1020 1.387 . S
C1024 C1025 1.387 . S
C1024 H1028 0.950 . S
C1024 C1033 1.390 . S
C1025 C1024 1.387 . S
C1025 C1027 1.387 . S
H1026 C1033 0.950 . S
C1027 C1025 1.387 . S
C1027 C1029 1.390 . S
C1027 H1031 0.950 . S
H1028 C1024 0.950 . S
C1029 C1027 1.390 . S
C1029 C1030 1.387 . S
C1029 H1032 0.950 . S
C1030 C1029 1.387 . S
C1030 C1033 1.387 . S
H1031 C1027 0.950 . S
H1032 C1029 0.950 . S
C1033 C1024 1.390 . S
C1033 H1026 0.950 . S
C1033 C1030 1.387 . S
C1034 C1035 1.387 . S
C1034 H1038 0.950 . S
C1034 C1043 1.390 . S
C1035 C1034 1.387 . S
C1035 C1037 1.387 . S
H1036 C1043 0.950 . S
C1037 C1035 1.387 . S
C1037 C1039 1.390 . S
C1037 H1041 0.950 . S
H1038 C1034 0.950 . S
C1039 C1037 1.390 . S
C1039 C1040 1.387 . S
C1039 H1042 0.950 . S
C1040 C1039 1.387 . S
C1040 C1043 1.387 . S
H1041 C1037 0.950 . S
H1042 C1039 0.950 . S
C1043 C1034 1.390 . S
C1043 H1036 0.950 . S
C1043 C1040 1.387 . S
C595 C120 1.499 . S
C600 C21 1.499 . S
C605 C153 1.499 . S
C610 C54 1.499 . S
C615 C186 1.499 . S
C620 C87 1.499 . S
C625 C40 1.471 . S
C630 C172 1.471 . S
C635 C106 1.470 . S
C640 C73 1.470 . S
C645 C139 1.470 . S
C650 C7 1.470 . S
C655 C318 1.499 . S
C660 C219 1.499 . S
C665 C252 1.499 . S
C670 C351 1.499 . S
C675 C285 1.499 . S
C680 C384 1.499 . S
C685 C238 1.470 . S
C690 C370 1.470 . S
C695 C271 1.470 . S
C700 C304 1.470 . S
C705 C337 1.470 . S
C710 C205 1.470 . S
C715 C417 1.499 . S
C720 C516 1.499 . S
C725 C549 1.498 . S
C730 C450 1.498 . S
C735 C483 1.498 . S
C740 C582 1.498 . S
C745 C436 1.470 . S
C750 C568 1.470 . S
C755 C502 1.470 . S
C760 C469 1.470 . S
C765 C403 1.471 . S
C770 C535 1.471 . S
C775 C18 1.540 . S
C780 C579 1.540 . S
C785 C513 1.540 . S
C790 C51 1.540 . S
C795 C546 1.540 . S
C800 C84 1.540 . S
C805 C249 1.540 . S
C810 C117 1.540 . S
C815 C282 1.540 . S
C820 C150 1.540 . S
C825 C216 1.540 . S
C830 C183 1.540 . S
C835 C447 1.540 . S
C840 C315 1.541 . S
C845 C480 1.540 . S
C850 C348 1.540 . S
C855 C381 1.540 . S
C860 C414 1.540 . S
C865 N2 1.436 . S
C870 N13 1.438 . S
C875 N35 1.436 . S
C880 N46 1.438 . S
C885 N68 1.437 . S
C890 N79 1.438 . S
C895 N112 1.438 . S
C900 N101 1.437 . S
C905 N145 1.438 . S
C910 N134 1.436 . S
C915 N167 1.437 . S
C920 N178 1.439 . S
C925 N200 1.437 . S
C930 N211 1.439 . S
C935 N244 1.440 . S
C940 N233 1.438 . S
C945 N277 1.439 . S
C950 N266 1.438 . S
C955 N299 1.438 . S
C960 N310 1.439 . S
C965 N332 1.436 . S
C970 N343 1.438 . S
C975 N365 1.436 . S
C980 N376 1.438 . S
C985 N398 1.438 . S
C990 N409 1.440 . S
C995 N431 1.438 . S
C1000 N442 1.440 . S
C1005 N475 1.439 . S
C1010 N464 1.438 . S
C1015 N497 1.438 . S
C1020 N508 1.439 . S
C1025 N541 1.439 . S
C1030 N530 1.438 . S
C1035 N574 1.440 . S
C1040 N563 1.438 . S
