# Generated by pormake.
# Topology snl, (6)-cn, num edge types: 1
# Building blocks:
#     Node 0, Type 0, BuildingBlock: MIDCAF_clean_sbu_0, # of connection points: 6
#     Node 1, Type 0, BuildingBlock: MIDCAF_clean_sbu_0, # of connection points: 6
#     Node 2, Type 0, BuildingBlock: MIDCAF_clean_sbu_0, # of connection points: 6
#     Node 3, Type 0, BuildingBlock: MIDCAF_clean_sbu_0, # of connection points: 6
#     Node 4, Type 0, BuildingBlock: MIDCAF_clean_sbu_0, # of connection points: 6
#     Node 5, Type 0, BuildingBlock: MIDCAF_clean_sbu_0, # of connection points: 6
#     Node 6, Type 0, BuildingBlock: MIDCAF_clean_sbu_0, # of connection points: 6
#     Node 7, Type 0, BuildingBlock: MIDCAF_clean_sbu_0, # of connection points: 6
#     Node 8, Type 0, BuildingBlock: MIDCAF_clean_sbu_0, # of connection points: 6
#     Node 9, Type 0, BuildingBlock: MIDCAF_clean_sbu_0, # of connection points: 6
#     Node 10, Type 0, BuildingBlock: MIDCAF_clean_sbu_0, # of connection points: 6
#     Node 11, Type 0, BuildingBlock: MIDCAF_clean_sbu_0, # of connection points: 6
#     Node 12, Type 0, BuildingBlock: MIDCAF_clean_sbu_0, # of connection points: 6
#     Node 13, Type 0, BuildingBlock: MIDCAF_clean_sbu_0, # of connection points: 6
#     Node 14, Type 0, BuildingBlock: MIDCAF_clean_sbu_0, # of connection points: 6
#     Node 15, Type 0, BuildingBlock: MIDCAF_clean_sbu_0, # of connection points: 6
#     Edge 16, Type (0, 0), BuildingBlock: KIFKEQ_clean_linker_1, # of connection points: 2
#     Edge 17, Type (0, 0), BuildingBlock: KIFKEQ_clean_linker_1, # of connection points: 2
#     Edge 18, Type (0, 0), BuildingBlock: KIFKEQ_clean_linker_1, # of connection points: 2
#     Edge 19, Type (0, 0), BuildingBlock: KIFKEQ_clean_linker_1, # of connection points: 2
#     Edge 20, Type (0, 0), BuildingBlock: KIFKEQ_clean_linker_1, # of connection points: 2
#     Edge 21, Type (0, 0), BuildingBlock: KIFKEQ_clean_linker_1, # of connection points: 2
#     Edge 22, Type (0, 0), BuildingBlock: KIFKEQ_clean_linker_1, # of connection points: 2
#     Edge 23, Type (0, 0), BuildingBlock: KIFKEQ_clean_linker_1, # of connection points: 2
#     Edge 24, Type (0, 0), BuildingBlock: KIFKEQ_clean_linker_1, # of connection points: 2
#     Edge 25, Type (0, 0), BuildingBlock: KIFKEQ_clean_linker_1, # of connection points: 2
#     Edge 26, Type (0, 0), BuildingBlock: KIFKEQ_clean_linker_1, # of connection points: 2
#     Edge 27, Type (0, 0), BuildingBlock: KIFKEQ_clean_linker_1, # of connection points: 2
#     Edge 28, Type (0, 0), BuildingBlock: KIFKEQ_clean_linker_1, # of connection points: 2
#     Edge 29, Type (0, 0), BuildingBlock: KIFKEQ_clean_linker_1, # of connection points: 2
#     Edge 30, Type (0, 0), BuildingBlock: KIFKEQ_clean_linker_1, # of connection points: 2
#     Edge 31, Type (0, 0), BuildingBlock: KIFKEQ_clean_linker_1, # of connection points: 2
#     Edge 32, Type (0, 0), BuildingBlock: KIFKEQ_clean_linker_1, # of connection points: 2
#     Edge 33, Type (0, 0), BuildingBlock: KIFKEQ_clean_linker_1, # of connection points: 2
#     Edge 34, Type (0, 0), BuildingBlock: KIFKEQ_clean_linker_1, # of connection points: 2
#     Edge 35, Type (0, 0), BuildingBlock: KIFKEQ_clean_linker_1, # of connection points: 2
#     Edge 36, Type (0, 0), BuildingBlock: KIFKEQ_clean_linker_1, # of connection points: 2
#     Edge 37, Type (0, 0), BuildingBlock: KIFKEQ_clean_linker_1, # of connection points: 2
#     Edge 38, Type (0, 0), BuildingBlock: KIFKEQ_clean_linker_1, # of connection points: 2
#     Edge 39, Type (0, 0), BuildingBlock: KIFKEQ_clean_linker_1, # of connection points: 2
#     Edge 40, Type (0, 0), BuildingBlock: KIFKEQ_clean_linker_1, # of connection points: 2
#     Edge 41, Type (0, 0), BuildingBlock: KIFKEQ_clean_linker_1, # of connection points: 2
#     Edge 42, Type (0, 0), BuildingBlock: KIFKEQ_clean_linker_1, # of connection points: 2
#     Edge 43, Type (0, 0), BuildingBlock: KIFKEQ_clean_linker_1, # of connection points: 2
#     Edge 44, Type (0, 0), BuildingBlock: KIFKEQ_clean_linker_1, # of connection points: 2
#     Edge 45, Type (0, 0), BuildingBlock: KIFKEQ_clean_linker_1, # of connection points: 2
#     Edge 46, Type (0, 0), BuildingBlock: KIFKEQ_clean_linker_1, # of connection points: 2
#     Edge 47, Type (0, 0), BuildingBlock: KIFKEQ_clean_linker_1, # of connection points: 2
#     Edge 48, Type (0, 0), BuildingBlock: KIFKEQ_clean_linker_1, # of connection points: 2
#     Edge 49, Type (0, 0), BuildingBlock: KIFKEQ_clean_linker_1, # of connection points: 2
#     Edge 50, Type (0, 0), BuildingBlock: KIFKEQ_clean_linker_1, # of connection points: 2
#     Edge 51, Type (0, 0), BuildingBlock: KIFKEQ_clean_linker_1, # of connection points: 2
#     Edge 52, Type (0, 0), BuildingBlock: KIFKEQ_clean_linker_1, # of connection points: 2
#     Edge 53, Type (0, 0), BuildingBlock: KIFKEQ_clean_linker_1, # of connection points: 2
#     Edge 54, Type (0, 0), BuildingBlock: KIFKEQ_clean_linker_1, # of connection points: 2
#     Edge 55, Type (0, 0), BuildingBlock: KIFKEQ_clean_linker_1, # of connection points: 2
#     Edge 56, Type (0, 0), BuildingBlock: KIFKEQ_clean_linker_1, # of connection points: 2
#     Edge 57, Type (0, 0), BuildingBlock: KIFKEQ_clean_linker_1, # of connection points: 2
#     Edge 58, Type (0, 0), BuildingBlock: KIFKEQ_clean_linker_1, # of connection points: 2
#     Edge 59, Type (0, 0), BuildingBlock: KIFKEQ_clean_linker_1, # of connection points: 2
#     Edge 60, Type (0, 0), BuildingBlock: KIFKEQ_clean_linker_1, # of connection points: 2
#     Edge 61, Type (0, 0), BuildingBlock: KIFKEQ_clean_linker_1, # of connection points: 2
#     Edge 62, Type (0, 0), BuildingBlock: KIFKEQ_clean_linker_1, # of connection points: 2
#     Edge 63, Type (0, 0), BuildingBlock: KIFKEQ_clean_linker_1, # of connection points: 2
# Relax obj value: 0.110
# Max RMSD: 0.168
# Mean RMSD: 0.168
data_MOF--net-snl--node1-MIDCAF_clean_sbu_0--edge1-KIFKEQ_clean_linker_1
_symmetry_space_group_name_H-M    P1
_symmetry_Int_Tables_number       1
_symmetry_cell_setting            triclinic
loop_
_symmetry_equiv_pos_as_xyz
'x, y, z'
_cell_length_a     61.252648
_cell_length_b     61.233631
_cell_length_c     15.580606
_cell_angle_alpha  90.000084
_cell_angle_beta   90.152639
_cell_angle_gamma 89.983427
loop_
_atom_site_label
_atom_site_type_symbol
_atom_site_fract_x
_atom_site_fract_y
_atom_site_fract_z
_atom_type_partial_charge
Zn0 Zn 0.10303 0.6092 0.25418 0.0
Zn1 Zn 0.15906 0.66368 0.12796 0.0
Zn2 Zn 0.13176 0.63495 0.18546 0.0
C3 C 0.12202 0.68706 0.16047 0.0
C4 C 0.17965 0.64491 0.26608 0.0
O5 O 0.12977 0.60631 0.09922 0.0
O6 O 0.10411 0.58683 0.16328 0.0
C7 C 0.08036 0.64689 0.22421 0.0
O8 O 0.1151 0.66744 0.17349 0.0
O9 O 0.14179 0.69048 0.14283 0.0
O10 O 0.18318 0.65867 0.20768 0.0
O11 O 0.16104 0.63515 0.27119 0.0
O12 O 0.07737 0.62856 0.25913 0.0
O13 O 0.09933 0.65191 0.19399 0.0
O14 O 0.14382 0.62483 0.31565 0.0
O15 O 0.11809 0.60254 0.36268 0.0
C16 C 0.13603 0.61221 0.37459 0.0
O17 O 0.14183 0.62296 0.05675 0.0
O18 O 0.16207 0.65061 0.01226 0.0
C19 C 0.1178 0.58905 0.10352 0.0
C20 C 0.15342 0.63223 -0.00189 0.0
Zn21 Zn 0.65205 0.84278 0.42115 0.0
Zn22 Zn 0.60666 0.89581 0.29221 0.0
Zn23 Zn 0.63256 0.87073 0.36502 0.0
C24 C 0.5808 0.86122 0.32494 0.0
C25 C 0.62397 0.91919 0.42997 0.0
O26 O 0.66481 0.87047 0.29648 0.0
O27 O 0.68124 0.85449 0.405 0.0
C28 C 0.62266 0.81878 0.35754 0.0
O29 O 0.59969 0.85463 0.35146 0.0
O30 O 0.57864 0.88022 0.29496 0.0
O31 O 0.61157 0.92122 0.36577 0.0
O32 O 0.63245 0.90047 0.44799 0.0
O33 O 0.64309 0.8164 0.35651 0.0
O34 O 0.61465 0.83806 0.37062 0.0
O35 O 0.64006 0.88155 0.4957 0.0
O36 O 0.64063 0.84737 0.53896 0.0
C37 C 0.64048 0.86749 0.55707 0.0
O38 O 0.64842 0.87821 0.24046 0.0
O39 O 0.62183 0.89764 0.18209 0.0
C40 C 0.68252 0.86576 0.33768 0.0
C41 C 0.64048 0.88904 0.17658 0.0
Zn42 Zn 0.41394 0.40264 0.62365 0.0
Zn43 Zn 0.36011 0.34943 0.49292 0.0
Zn44 Zn 0.38554 0.37693 0.55915 0.0
C45 C 0.38692 0.36126 0.36182 0.0
C46 C 0.38168 0.32651 0.61814 0.0
O47 O 0.3972 0.36347 0.68362 0.0
O48 O 0.42362 0.38577 0.72463 0.0
C49 C 0.37396 0.42497 0.62814 0.0
O50 O 0.39676 0.3705 0.42547 0.0
O51 O 0.36886 0.35187 0.37264 0.0
O52 O 0.36979 0.32294 0.55352 0.0
O53 O 0.3877 0.34615 0.63627 0.0
O54 O 0.39376 0.42665 0.64956 0.0
O55 O 0.36705 0.40756 0.59005 0.0
O56 O 0.4137 0.38162 0.4672 0.0
O57 O 0.43471 0.40635 0.52946 0.0
C58 C 0.43109 0.39362 0.4675 0.0
O59 O 0.35186 0.39214 0.55571 0.0
O60 O 0.33214 0.36324 0.51998 0.0
C61 C 0.41186 0.36927 0.73888 0.0
C62 C 0.33314 0.38312 0.54087 0.0
Zn63 Zn 0.85229 0.16716 0.91994 0.0
Zn64 Zn 0.90468 0.11374 0.78211 0.0
Zn65 Zn 0.87637 0.13824 0.85127 0.0
C66 C 0.86993 0.11514 0.66664 0.0
C67 C 0.92664 0.1516 0.79687 0.0
O68 O 0.8686 0.1255 0.98269 0.0
O69 O 0.84859 0.15279 0.03167 0.0
C70 C 0.82773 0.14883 0.78812 0.0
O71 O 0.8621 0.12786 0.72508 0.0
O72 O 0.88828 0.10623 0.6777 0.0
O73 O 0.92995 0.13284 0.76645 0.0
O74 O 0.90796 0.1563 0.83053 0.0
O75 O 0.82712 0.1641 0.84243 0.0
O76 O 0.84543 0.13775 0.7778 0.0
O77 O 0.89243 0.17169 0.85453 0.0
O78 O 0.86926 0.19426 0.91706 0.0
C79 C 0.88734 0.19109 0.88079 0.0
O80 O 0.87985 0.10883 0.93499 0.0
O81 O 0.90637 0.0909 0.86968 0.0
C82 C 0.8572 0.1343 0.0431 0.0
C83 C 0.8924 0.09198 0.92878 0.0
Zn84 Zn 0.10446 0.42091 0.71133 0.0
Zn85 Zn 0.16296 0.36714 0.82787 0.0
Zn86 Zn 0.13337 0.39397 0.77062 0.0
C87 C 0.1572 0.39854 0.9558 0.0
C88 C 0.12469 0.34287 0.81386 0.0
O89 O 0.14432 0.4038 0.64014 0.0
O90 O 0.11653 0.42373 0.59438 0.0
C91 C 0.1229 0.44163 0.85016 0.0
O92 O 0.14357 0.40593 0.89948 0.0
O93 O 0.16841 0.38176 0.93944 0.0
O94 O 0.14464 0.34072 0.83244 0.0
O95 O 0.11719 0.36153 0.78901 0.0
O96 O 0.1098 0.4454 0.78951 0.0
O97 O 0.13234 0.42289 0.85701 0.0
O98 O 0.10112 0.37618 0.76061 0.0
O99 O 0.07814 0.40294 0.72926 0.0
C100 C 0.08148 0.38315 0.74749 0.0
O101 O 0.16254 0.39445 0.68294 0.0
O102 O 0.18551 0.3704 0.739 0.0
C103 C 0.13487 0.41502 0.58058 0.0
C104 C 0.18125 0.38467 0.68308 0.0
Zn105 Zn 0.91386 0.90955 0.13584 0.0
Zn106 Zn 0.85501 0.86032 0.00491 0.0
Zn107 Zn 0.88286 0.88625 0.07604 0.0
C108 C 0.8615 0.89366 0.88747 0.0
C109 C 0.89049 0.8342 0.03119 0.0
O110 O 0.87161 0.89602 0.2062 0.0
O111 O 0.90074 0.9142 0.25012 0.0
C112 C 0.89707 0.93413 0.0049 0.0
O113 O 0.87408 0.90061 0.94829 0.0
O114 O 0.8511 0.87605 0.89651 0.0
O115 O 0.8714 0.83269 0.00124 0.0
O116 O 0.89748 0.8527 0.06029 0.0
O117 O 0.91244 0.93461 0.05873 0.0
O118 O 0.88486 0.91702 -0.00149 0.0
O119 O 0.91413 0.86676 0.0846 0.0
O120 O 0.93923 0.89036 0.12748 0.0
C121 C 0.93414 0.87139 0.10365 0.0
O122 O 0.85393 0.88594 0.16154 0.0
O123 O 0.83162 0.86413 0.08936 0.0
C124 C 0.88181 0.90697 0.26462 0.0
C125 C 0.83521 0.87663 0.15209 0.0
Zn126 Zn 0.35399 0.65447 0.60422 0.0
Zn127 Zn 0.40447 0.59375 0.4865 0.0
Zn128 Zn 0.37759 0.62391 0.53632 0.0
C129 C 0.37446 0.60245 0.35111 0.0
C130 C 0.43047 0.62926 0.51866 0.0
O131 O 0.36697 0.61318 0.66698 0.0
O132 O 0.34755 0.64095 0.71584 0.0
C133 C 0.33216 0.63965 0.45634 0.0
O134 O 0.36536 0.6145 0.40859 0.0
O135 O 0.39215 0.59266 0.36774 0.0
O136 O 0.43239 0.60895 0.5079 0.0
O137 O 0.41136 0.63801 0.52485 0.0
O138 O 0.33077 0.65342 0.51635 0.0
O139 O 0.34902 0.62717 0.45019 0.0
O140 O 0.39683 0.65523 0.5409 0.0
O141 O 0.37463 0.67907 0.6019 0.0
C142 C 0.39274 0.67481 0.56747 0.0
O143 O 0.37403 0.59455 0.62101 0.0
O144 O 0.39587 0.56986 0.56318 0.0
C145 C 0.35565 0.62223 0.72711 0.0
C146 C 0.3815 0.57485 0.61747 0.0
Zn147 Zn 0.64802 0.14388 0.6282 0.0
Zn148 Zn 0.59611 0.09634 0.72999 0.0
Zn149 Zn 0.62453 0.12017 0.68231 0.0
C150 C 0.57379 0.13223 0.67949 0.0
C151 C 0.61839 0.07194 0.61301 0.0
O152 O 0.65493 0.11811 0.76139 0.0
O153 O 0.67398 0.12542 0.64576 0.0
C154 C 0.62235 0.17063 0.71067 0.0
O155 O 0.59343 0.13951 0.68794 0.0
O156 O 0.57024 0.11199 0.68446 0.0
O157 O 0.6057 0.0693 0.67554 0.0
O158 O 0.62522 0.09128 0.59383 0.0
O159 O 0.64283 0.16907 0.70617 0.0
O160 O 0.61054 0.15411 0.68838 0.0
O161 O 0.63212 0.11021 0.55013 0.0
O162 O 0.63664 0.14432 0.50973 0.0
C163 C 0.63441 0.12445 0.48991 0.0
O164 O 0.63646 0.10991 0.8071 0.0
O165 O 0.60445 0.09825 0.85284 0.0
C166 C 0.67327 0.11796 0.72096 0.0
C167 C 0.62427 0.10263 0.86764 0.0
Zn168 Zn 0.9043 0.41715 0.63943 0.0
Zn169 Zn 0.84888 0.36004 0.74937 0.0
Zn170 Zn 0.8773 0.38891 0.7038 0.0
C171 C 0.85523 0.38912 0.88822 0.0
C172 C 0.88698 0.33706 0.7203 0.0
O173 O 0.8658 0.39838 0.57293 0.0
O174 O 0.89179 0.42006 0.52377 0.0
C175 C 0.88523 0.43664 0.78294 0.0
O176 O 0.86674 0.39935 0.83198 0.0
O177 O 0.84649 0.37102 0.8696 0.0
O178 O 0.86669 0.33384 0.72618 0.0
O179 O 0.89455 0.35672 0.71714 0.0
O180 O 0.89746 0.44096 0.72025 0.0
O181 O 0.87713 0.41736 0.79226 0.0
O182 O 0.91033 0.37279 0.69711 0.0
O183 O 0.93135 0.39982 0.65204 0.0
C184 C 0.92935 0.38034 0.67723 0.0
O185 O 0.84766 0.39002 0.61727 0.0
O186 O 0.82418 0.36662 0.67344 0.0
C187 C 0.87402 0.41009 0.51211 0.0
C188 C 0.82847 0.38124 0.61922 0.0
Zn189 Zn 0.40554 0.09938 0.77465 0.0
Zn190 Zn 0.35359 0.14425 0.64161 0.0
Zn191 Zn 0.37672 0.12241 0.70774 0.0
C192 C 0.36944 0.12465 0.51045 0.0
C193 C 0.37613 0.17326 0.72526 0.0
O194 O 0.36225 0.11211 0.83125 0.0
O195 O 0.3898 0.09263 0.88136 0.0
C196 C 0.3931 0.07674 0.62947 0.0
O197 O 0.37092 0.11109 0.57355 0.0
O198 O 0.36704 0.14469 0.52676 0.0
O199 O 0.35587 0.17054 0.71542 0.0
O200 O 0.389 0.15698 0.71063 0.0
O201 O 0.40681 0.07568 0.68983 0.0
O202 O 0.38062 0.0936 0.62203 0.0
O203 O 0.40701 0.14301 0.72136 0.0
O204 O 0.43016 0.11989 0.78147 0.0
C205 C 0.42623 0.13856 0.75096 0.0
O206 O 0.345 0.12053 0.77721 0.0
O207 O 0.32807 0.12479 0.65406 0.0
C208 C 0.37084 0.1003 0.89085 0.0
C209 C 0.32748 0.11896 0.73149 0.0
Zn210 Zn 0.6081 0.59261 0.42347 0.0
Zn211 Zn 0.65851 0.65205 0.53437 0.0
Zn212 Zn 0.63567 0.62114 0.47222 0.0
C213 C 0.65754 0.62077 0.66208 0.0
C214 C 0.62054 0.67254 0.49858 0.0
O215 O 0.64753 0.61148 0.34294 0.0
O216 O 0.61954 0.59081 0.30576 0.0
C217 C 0.63069 0.57255 0.55358 0.0
O218 O 0.64699 0.61047 0.60265 0.0
O219 O 0.66428 0.6399 0.64829 0.0
O220 O 0.63903 0.67729 0.5288 0.0
O221 O 0.61625 0.65263 0.47647 0.0
O222 O 0.61572 0.56836 0.50043 0.0
O223 O 0.63909 0.59187 0.55711 0.0
O224 O 0.60166 0.63551 0.46405 0.0
O225 O 0.58 0.60752 0.43545 0.0
C226 C 0.58236 0.62757 0.4513 0.0
O227 O 0.66418 0.62386 0.38545 0.0
O228 O 0.68241 0.65026 0.45101 0.0
C229 C 0.63734 0.59992 0.2864 0.0
C230 C 0.68118 0.63616 0.39221 0.0
Zn231 Zn 0.15028 0.86083 0.00248 0.0
Zn232 Zn 0.10599 0.91158 0.16127 0.0
Zn233 Zn 0.13208 0.88746 0.08292 0.0
C234 C 0.08213 0.87506 0.14791 0.0
C235 C 0.11622 0.93506 0.01796 0.0
O236 O 0.16467 0.88535 0.14587 0.0
O237 O 0.17987 0.87055 0.03208 0.0
C238 C 0.12149 0.83509 0.06654 0.0
O239 O 0.09997 0.87024 0.10781 0.0
O240 O 0.08031 0.89337 0.18408 0.0
O241 O 0.10268 0.93536 0.07869 0.0
O242 O 0.12862 0.91826 0.00684 0.0
O243 O 0.1406 0.83204 0.03943 0.0
O244 O 0.11465 0.85476 0.0803 0.0
O245 O 0.13708 0.90122 0.95081 0.0
O246 O 0.1399 0.86911 0.88852 0.0
C247 C 0.13791 0.8895 0.88212 0.0
O248 O 0.14953 0.8953 0.20471 0.0
O249 O 0.12524 0.91804 0.25929 0.0
C250 C 0.18192 0.88002 0.10348 0.0
C251 C 0.14333 0.90831 0.26509 0.0
Zn252 Zn 0.8528 0.6588 0.06276 0.0
Zn253 Zn 0.9089 0.60632 0.17309 0.0
Zn254 Zn 0.88097 0.6308 0.11834 0.0
C255 C 0.93274 0.64025 0.11982 0.0
C256 C 0.88641 0.5815 0.05749 0.0
O257 O 0.85229 0.63025 0.20685 0.0
O258 O 0.82874 0.65186 0.14011 0.0
C259 C 0.88947 0.68304 0.09923 0.0
O260 O 0.91323 0.64813 0.12413 0.0
O261 O 0.9357 0.61998 0.12766 0.0
O262 O 0.89846 0.57921 0.12242 0.0
O263 O 0.88034 0.60083 0.03432 0.0
O264 O 0.86945 0.68589 0.08395 0.0
O265 O 0.8972 0.66357 0.10822 0.0
O266 O 0.87154 0.61903 0.99079 0.0
O267 O 0.8511 0.64658 0.94514 0.0
C268 C 0.8603 0.62846 0.93136 0.0
O269 O 0.87049 0.6212 0.24783 0.0
O270 O 0.90193 0.60844 0.2963 0.0
C271 C 0.83311 0.6388 0.20017 0.0
C272 C 0.88229 0.61365 0.30962 0.0
Zn273 Zn 0.09471 0.11539 0.81627 0.0
Zn274 Zn 0.1498 0.1692 0.94449 0.0
Zn275 Zn 0.12482 0.1401 0.87692 0.0
C276 C 0.11466 0.19304 0.902 0.0
C277 C 0.17293 0.14997 0.80923 0.0
O278 O 0.12312 0.11048 0.96033 0.0
O279 O 0.09784 0.09078 0.89459 0.0
C280 C 0.07312 0.15281 0.84698 0.0
O281 O 0.10906 0.1735 0.87951 0.0
O282 O 0.13309 0.19647 0.93542 0.0
O283 O 0.17438 0.16461 0.86597 0.0
O284 O 0.15488 0.13947 0.79878 0.0
O285 O 0.06845 0.13345 0.82683 0.0
O286 O 0.09308 0.15823 0.86305 0.0
O287 O 0.13746 0.12968 0.75047 0.0
O288 O 0.10857 0.11176 0.70243 0.0
C289 C 0.12767 0.11892 0.6906 0.0
O290 O 0.13328 0.12773 0.00722 0.0
O291 O 0.15288 0.15521 0.05784 0.0
C292 C 0.1121 0.09262 0.95253 0.0
C293 C 0.14437 0.13663 0.0684 0.0
Zn294 Zn 0.59581 0.39803 0.60189 0.0
Zn295 Zn 0.65226 0.34369 0.49259 0.0
Zn296 Zn 0.62431 0.37143 0.54319 0.0
C297 C 0.62418 0.35071 0.35383 0.0
C298 C 0.63219 0.32269 0.62414 0.0
O299 O 0.61269 0.35917 0.67068 0.0
O300 O 0.58751 0.38302 0.709 0.0
C301 C 0.63475 0.42128 0.59932 0.0
O302 O 0.61408 0.36234 0.41024 0.0
O303 O 0.64161 0.34097 0.37387 0.0
O304 O 0.64712 0.31908 0.57046 0.0
O305 O 0.62261 0.34148 0.62597 0.0
O306 O 0.61489 0.42332 0.61875 0.0
O307 O 0.64189 0.40311 0.568 0.0
O308 O 0.59664 0.3739 0.44852 0.0
O309 O 0.57477 0.39852 0.50664 0.0
C310 C 0.57893 0.38535 0.44674 0.0
O311 O 0.6574 0.38808 0.53572 0.0
O312 O 0.67919 0.36044 0.50365 0.0
C313 C 0.59867 0.36624 0.72596 0.0
C314 C 0.67666 0.38043 0.51988 0.0
Zn315 Zn 0.35109 0.84728 0.45805 0.0
Zn316 Zn 0.41099 0.89918 0.34716 0.0
Zn317 Zn 0.38053 0.87383 0.40483 0.0
C318 C 0.38064 0.89473 0.21479 0.0
C319 C 0.43185 0.86079 0.38725 0.0
O320 O 0.37075 0.88621 0.53179 0.0
O321 O 0.3504 0.85874 0.57723 0.0
C322 C 0.33225 0.86887 0.32319 0.0
O323 O 0.37062 0.8839 0.2738 0.0
O324 O 0.39927 0.90274 0.22943 0.0
O325 O 0.43635 0.88015 0.3664 0.0
O326 O 0.41188 0.85499 0.4001 0.0
O327 O 0.32694 0.8565 0.3842 0.0
O328 O 0.35212 0.87553 0.31523 0.0
O329 O 0.39526 0.84044 0.42002 0.0
O330 O 0.36614 0.81938 0.43306 0.0
C331 C 0.38653 0.82129 0.42466 0.0
O332 O 0.38158 0.90336 0.48896 0.0
O333 O 0.40666 0.92372 0.42546 0.0
C334 C 0.35952 0.8769 0.59125 0.0
C335 C 0.39238 0.92137 0.48277 0.0
H336 H 0.18692 0.63856 0.88736 0.0
H337 H 0.1251 0.60533 0.9113 0.0
H338 H 0.18803 0.62965 0.73526 0.0
H339 H 0.12584 0.59684 0.75834 0.0
H340 H 0.13292 0.57824 0.48586 0.0
H341 H 0.14147 0.57846 0.63852 0.0
H342 H 0.16925 0.643 0.61219 0.0
H343 H 0.16119 0.64242 0.45888 0.0
C344 C 0.1737 0.62903 0.86024 0.0
C345 C 0.15581 0.62279 0.91115 0.0
C346 C 0.17427 0.62406 0.77282 0.0
C347 C 0.15688 0.61287 0.73379 0.0
C348 C 0.13966 0.60534 0.78607 0.0
C349 C 0.13918 0.61018 0.87399 0.0
C350 C 0.14138 0.59224 0.51238 0.0
C351 C 0.14622 0.61042 0.46054 0.0
C352 C 0.1461 0.59244 0.60011 0.0
C353 C 0.15561 0.61091 0.63841 0.0
C354 C 0.16201 0.62841 0.58512 0.0
C355 C 0.15744 0.62811 0.49694 0.0
H356 H 0.66512 0.8576 0.09829 0.0
H357 H 0.63918 0.92256 0.06409 0.0
H358 H 0.67063 0.85474 0.94324 0.0
H359 H 0.64389 0.91952 0.90987 0.0
H360 H 0.655 0.90653 0.62425 0.0
H361 H 0.66349 0.91411 0.77556 0.0
H362 H 0.64047 0.84971 0.84405 0.0
H363 H 0.63234 0.8422 0.69518 0.0
C364 C 0.66145 0.87156 0.05806 0.0
C365 C 0.65132 0.89008 0.09252 0.0
C366 C 0.66431 0.86987 0.96925 0.0
C367 C 0.65697 0.88663 0.91414 0.0
C368 C 0.64958 0.90626 0.95017 0.0
C369 C 0.6468 0.90796 0.03865 0.0
C370 C 0.6516 0.89417 0.67209 0.0
C371 C 0.64303 0.87379 0.64794 0.0
C372 C 0.65667 0.89838 0.75841 0.0
C373 C 0.65325 0.88226 0.82153 0.0
C374 C 0.64412 0.86219 0.79695 0.0
C375 C 0.6391 0.85802 0.71152 0.0
H376 H 0.42336 0.34213 0.29365 0.0
H377 H 0.36739 0.38182 0.23149 0.0
H378 H 0.43228 0.33928 0.14016 0.0
H379 H 0.37577 0.37858 0.07918 0.0
H380 H 0.44567 0.36888 0.85353 0.0
H381 H 0.44227 0.36486 0.00918 0.0
H382 H 0.3749 0.34578 0.9774 0.0
H383 H 0.37809 0.35035 0.82276 0.0
C384 C 0.41353 0.35091 0.24737 0.0
C385 C 0.39513 0.36276 0.27382 0.0
C386 C 0.41835 0.34894 0.15978 0.0
C387 C 0.40445 0.35834 0.09807 0.0
C388 C 0.38649 0.37077 0.12534 0.0
C389 C 0.38186 0.3729 0.21229 0.0
C390 C 0.43038 0.36305 0.87971 0.0
C391 C 0.41213 0.35989 0.82604 0.0
C392 C 0.42845 0.36077 0.96869 0.0
C393 C 0.40821 0.35548 0.00502 0.0
C394 C 0.39062 0.3502 0.95078 0.0
C395 C 0.39255 0.35242 0.86205 0.0
H396 H 0.84422 0.14438 0.57908 0.0
H397 H 0.87378 0.08061 0.55873 0.0
H398 H 0.83764 0.14441 0.42435 0.0
H399 H 0.86691 0.08039 0.40477 0.0
H400 H 0.88573 0.10801 0.13312 0.0
H401 H 0.88378 0.09951 0.28655 0.0
H402 H 0.82005 0.1296 0.2993 0.0
H403 H 0.82228 0.13842 0.14747 0.0
C404 C 0.84853 0.13003 0.54214 0.0
C405 C 0.85972 0.11264 0.5809 0.0
C406 C 0.84487 0.13002 0.45319 0.0
C407 C 0.8522 0.11255 0.40154 0.0
C408 C 0.86157 0.09433 0.44199 0.0
C409 C 0.86528 0.09438 0.53048 0.0
C410 C 0.8711 0.11223 0.16836 0.0
C411 C 0.85433 0.12414 0.12863 0.0
C412 C 0.86993 0.10741 0.25639 0.0
C413 C 0.85188 0.11427 0.30591 0.0
C414 C 0.8344 0.12458 0.26398 0.0
C415 C 0.83564 0.12948 0.17667 0.0
H416 H 0.19057 0.39474 0.07071 0.0
H417 H 0.12602 0.42206 0.04078 0.0
H418 H 0.18958 0.40269 0.22385 0.0
H419 H 0.12477 0.42965 0.19398 0.0
H420 H 0.12839 0.44811 0.46772 0.0
H421 H 0.13776 0.44896 0.31616 0.0
H422 H 0.17093 0.38702 0.34363 0.0
H423 H 0.162 0.38656 0.49623 0.0
C424 C 0.17631 0.40284 0.09663 0.0
C425 C 0.15832 0.40771 0.04363 0.0
C426 C 0.17568 0.40723 0.1846 0.0
C427 C 0.15699 0.41649 0.22184 0.0
C428 C 0.13956 0.42269 0.1677 0.0
C429 C 0.14026 0.4184 0.07951 0.0
C430 C 0.13806 0.43487 0.44168 0.0
C431 C 0.14429 0.41715 0.49366 0.0
C432 C 0.14331 0.4353 0.3546 0.0
C433 C 0.15474 0.41789 0.31698 0.0
C434 C 0.16223 0.40082 0.37033 0.0
C435 C 0.15713 0.4005 0.45797 0.0
H436 H 0.82703 0.89402 0.7783 0.0
H437 H 0.8936 0.91626 0.80318 0.0
H438 H 0.82776 0.90186 0.6252 0.0
H439 H 0.89462 0.92362 0.64914 0.0
H440 H 0.89087 0.94045 0.37262 0.0
H441 H 0.88244 0.94307 0.52472 0.0
H442 H 0.84479 0.88354 0.50696 0.0
H443 H 0.8529 0.88126 0.35373 0.0
C444 C 0.84169 0.90109 0.75117 0.0
C445 C 0.86036 0.90432 0.80244 0.0
C446 C 0.84216 0.90536 0.66321 0.0
C447 C 0.86138 0.91286 0.62419 0.0
C448 C 0.87948 0.9179 0.6769 0.0
C449 C 0.87893 0.91376 0.76539 0.0
C450 C 0.88041 0.92814 0.40088 0.0
C451 C 0.8727 0.9105 0.35143 0.0
C452 C 0.87571 0.92959 0.48828 0.0
C453 C 0.86328 0.91335 0.52876 0.0
C454 C 0.85431 0.89647 0.47797 0.0
C455 C 0.85891 0.89511 0.38999 0.0
H456 H 0.32227 0.62752 0.83938 0.0
H457 H 0.38432 0.59503 0.80947 0.0
H458 H 0.32214 0.61843 0.99141 0.0
H459 H 0.38477 0.58669 0.96241 0.0
H460 H 0.38035 0.56929 0.23764 0.0
H461 H 0.37143 0.56894 0.08537 0.0
H462 H 0.34081 0.63223 0.11173 0.0
H463 H 0.34903 0.63206 0.26474 0.0
C464 C 0.33574 0.61809 0.86525 0.0
C465 C 0.35343 0.61218 0.81287 0.0
C466 C 0.33577 0.61307 0.95264 0.0
C467 C 0.35366 0.60229 0.99011 0.0
C468 C 0.37061 0.59492 0.93613 0.0
C469 C 0.37041 0.59968 0.8482 0.0
C470 C 0.37132 0.58294 0.21108 0.0
C471 C 0.36555 0.60081 0.26298 0.0
C472 C 0.36635 0.5828 0.12356 0.0
C473 C 0.35573 0.60069 0.08541 0.0
C474 C 0.34881 0.61801 0.1386 0.0
C475 C 0.35355 0.618 0.22658 0.0
H476 H 0.6585 0.12401 0.94339 0.0
H477 H 0.60831 0.07596 0.99083 0.0
H478 H 0.66621 0.12564 0.09746 0.0
H479 H 0.61581 0.07776 0.14384 0.0
H480 H 0.63777 0.08328 0.42124 0.0
H481 H 0.64155 0.07374 0.26918 0.0
H482 H 0.6403 0.14226 0.20324 0.0
H483 H 0.6362 0.15168 0.35309 0.0
C484 C 0.64958 0.11337 0.98636 0.0
C485 C 0.63248 0.10027 0.95583 0.0
C486 C 0.65392 0.11434 0.07433 0.0
C487 C 0.64133 0.10207 0.13237 0.0
C488 C 0.62578 0.08735 0.10063 0.0
C489 C 0.62134 0.08651 0.01309 0.0
C490 C 0.63808 0.0962 0.37402 0.0
C491 C 0.63626 0.11815 0.39897 0.0
C492 C 0.64055 0.09078 0.28737 0.0
C493 C 0.64154 0.1073 0.2248 0.0
C494 C 0.64013 0.12921 0.2502 0.0
C495 C 0.63746 0.13457 0.33614 0.0
H496 H 0.82233 0.38117 0.00119 0.0
H497 H 0.88406 0.41442 0.97668 0.0
H498 H 0.82154 0.38984 0.15401 0.0
H499 H 0.88357 0.42292 0.12921 0.0
H500 H 0.84929 0.37892 0.4316 0.0
H501 H 0.84071 0.37737 0.27864 0.0
H502 H 0.8675 0.44214 0.24557 0.0
H503 H 0.8767 0.44326 0.39749 0.0
C504 C 0.83557 0.39067 0.02834 0.0
C505 C 0.85322 0.3973 0.97701 0.0
C506 C 0.83518 0.39553 0.11596 0.0
C507 C 0.85252 0.40697 0.15432 0.0
C508 C 0.8697 0.41442 0.10187 0.0
C509 C 0.87001 0.40965 0.01417 0.0
C510 C 0.85279 0.39301 0.39194 0.0
C511 C 0.86397 0.41104 0.42598 0.0
C512 C 0.84788 0.39217 0.30416 0.0
C513 C 0.85386 0.40947 0.24926 0.0
C514 C 0.86324 0.42828 0.28537 0.0
C515 C 0.86837 0.42899 0.37257 0.0
H516 H 0.37399 0.15005 0.36989 0.0
H517 H 0.36049 0.08359 0.44649 0.0
H518 H 0.36687 0.14068 0.2218 0.0
H519 H 0.35314 0.07409 0.29592 0.0
H520 H 0.37777 0.06786 0.00617 0.0
H521 H 0.37338 0.07098 0.16054 0.0
H522 H 0.33707 0.13082 0.12499 0.0
H523 H 0.3421 0.128 0.96981 0.0
C524 C 0.3695 0.13335 0.35502 0.0
C525 C 0.36781 0.11755 0.42004 0.0
C526 C 0.36507 0.12807 0.27 0.0
C527 C 0.3588 0.1068 0.24722 0.0
C528 C 0.35771 0.0907 0.31171 0.0
C529 C 0.36214 0.09605 0.39762 0.0
C530 C 0.36819 0.08131 0.03112 0.0
C531 C 0.36079 0.09803 0.97632 0.0
C532 C 0.36561 0.08303 0.11976 0.0
C533 C 0.35551 0.1015 0.15507 0.0
C534 C 0.34549 0.11669 0.09946 0.0
C535 C 0.3481 0.11497 0.01053 0.0
H536 H 0.67762 0.60989 0.21599 0.0
H537 H 0.61338 0.58593 0.15114 0.0
H538 H 0.68757 0.60895 0.06423 0.0
H539 H 0.62258 0.58614 0.00162 0.0
H540 H 0.63966 0.58354 0.73311 0.0
H541 H 0.64022 0.57295 0.88348 0.0
H542 H 0.68093 0.62881 0.94144 0.0
H543 H 0.68198 0.63799 0.79116 0.0
C544 C 0.66567 0.60443 0.16966 0.0
C545 C 0.6447 0.5982 0.19603 0.0
C546 C 0.6713 0.60392 0.0824 0.0
C547 C 0.65589 0.59754 0.01961 0.0
C548 C 0.63518 0.59066 0.04708 0.0
C549 C 0.62977 0.59081 0.13369 0.0
C550 C 0.6494 0.59301 0.77733 0.0
C551 C 0.66054 0.61173 0.7497 0.0
C552 C 0.64945 0.5872 0.86426 0.0
C553 C 0.66012 0.60035 0.92586 0.0
C554 C 0.67258 0.61812 0.89685 0.0
C555 C 0.67294 0.62358 0.81003 0.0
H556 H 0.16151 0.87488 0.35561 0.0
H557 H 0.14797 0.94396 0.36674 0.0
H558 H 0.1633 0.87375 0.51229 0.0
H559 H 0.14959 0.94281 0.52332 0.0
H560 H 0.16026 0.92554 0.82226 0.0
H561 H 0.16934 0.93247 0.67026 0.0
H562 H 0.12712 0.87937 0.59467 0.0
H563 H 0.11802 0.87274 0.74387 0.0
C564 C 0.16013 0.89003 0.39119 0.0
C565 C 0.15436 0.90944 0.34924 0.0
C566 C 0.16083 0.88935 0.48094 0.0
C567 C 0.15593 0.9081 0.52975 0.0
C568 C 0.15328 0.92812 0.48742 0.0
C569 C 0.15245 0.92876 0.39774 0.0
C570 C 0.15244 0.91592 0.77259 0.0
C571 C 0.13848 0.89859 0.79452 0.0
C572 C 0.15789 0.91962 0.68606 0.0
C573 C 0.14961 0.90585 0.62125 0.0
C574 C 0.1344 0.8897 0.64343 0.0
C575 C 0.12888 0.88617 0.72876 0.0
H576 H 0.89343 0.60941 0.84459 0.0
H577 H 0.82607 0.6291 0.82028 0.0
H578 H 0.89469 0.60158 0.69173 0.0
H579 H 0.827 0.62079 0.66687 0.0
H580 H 0.85229 0.63917 0.39228 0.0
H581 H 0.84337 0.63796 0.54491 0.0
H582 H 0.88315 0.58004 0.5739 0.0
H583 H 0.89272 0.58192 0.42268 0.0
C584 C 0.87866 0.61124 0.80683 0.0
C585 C 0.85963 0.61961 0.84388 0.0
C586 C 0.87932 0.60679 0.71912 0.0
C587 C 0.86093 0.61063 0.66677 0.0
C588 C 0.84152 0.61794 0.70509 0.0
C589 C 0.84093 0.62253 0.79283 0.0
C590 C 0.8587 0.62597 0.43117 0.0
C591 C 0.87348 0.6109 0.39657 0.0
C592 C 0.85356 0.62518 0.51854 0.0
C593 C 0.86289 0.6091 0.57204 0.0
C594 C 0.87619 0.59298 0.53512 0.0
C595 C 0.88159 0.594 0.44851 0.0
H596 H 0.15549 0.14625 0.60477 0.0
H597 H 0.12073 0.08526 0.581 0.0
H598 H 0.16309 0.14563 0.45117 0.0
H599 H 0.12899 0.08406 0.42841 0.0
H600 H 0.11476 0.11118 0.15413 0.0
H601 H 0.11527 0.10277 0.3073 0.0
H602 H 0.17989 0.13073 0.32849 0.0
H603 H 0.17885 0.13988 0.17659 0.0
C604 C 0.15017 0.13234 0.56723 0.0
C605 C 0.13727 0.116 0.60445 0.0
C606 C 0.1545 0.13191 0.47896 0.0
C607 C 0.14627 0.11495 0.4266 0.0
C608 C 0.13505 0.09766 0.46593 0.0
C609 C 0.13049 0.09826 0.55362 0.0
C610 C 0.12925 0.11497 0.19125 0.0
C611 C 0.1466 0.12645 0.15393 0.0
C612 C 0.12962 0.11016 0.27922 0.0
C613 C 0.1475 0.11648 0.33108 0.0
C614 C 0.16561 0.12621 0.29144 0.0
C615 C 0.16509 0.13126 0.20413 0.0
H616 H 0.5826 0.35033 0.28396 0.0
H617 H 0.6509 0.34929 0.21769 0.0
H618 H 0.57299 0.34873 0.13103 0.0
H619 H 0.64169 0.34836 0.06718 0.0
H620 H 0.56946 0.37665 0.8516 0.0
H621 H 0.57319 0.36978 0.00419 0.0
H622 H 0.62842 0.32773 0.95413 0.0
H623 H 0.62586 0.33625 0.80251 0.0
C624 C 0.59548 0.35005 0.23679 0.0
C625 C 0.61743 0.35009 0.26269 0.0
C626 C 0.59006 0.34898 0.14917 0.0
C627 C 0.60655 0.3481 0.08609 0.0
C628 C 0.62846 0.34826 0.11308 0.0
C629 C 0.63378 0.34905 0.19984 0.0
C630 C 0.58222 0.36562 0.87287 0.0
C631 C 0.59753 0.35716 0.81426 0.0
C632 C 0.58424 0.36155 0.96082 0.0
C633 C 0.60145 0.34863 0.99231 0.0
C634 C 0.61536 0.33836 0.93271 0.0
C635 C 0.61364 0.34284 0.84495 0.0
H636 H 0.38739 0.92786 0.10213 0.0
H637 H 0.35388 0.8663 0.12997 0.0
H638 H 0.378 0.92868 0.95022 0.0
H639 H 0.34515 0.86654 0.97745 0.0
H640 H 0.32653 0.87188 0.70536 0.0
H641 H 0.32691 0.88084 0.85751 0.0
H642 H 0.39057 0.9104 0.82755 0.0
H643 H 0.38959 0.90228 0.67456 0.0
C644 C 0.37774 0.91462 0.07576 0.0
C645 C 0.37146 0.89693 0.12756 0.0
C646 C 0.3725 0.91501 0.98854 0.0
C647 C 0.36115 0.89752 0.95075 0.0
C648 C 0.35371 0.88045 0.00405 0.0
C649 C 0.35871 0.88024 0.09171 0.0
C650 C 0.34038 0.88074 0.73115 0.0
C651 C 0.35816 0.88618 0.67848 0.0
C652 C 0.34068 0.88572 0.81853 0.0
C653 C 0.35895 0.89593 0.85564 0.0
C654 C 0.37611 0.90268 0.8015 0.0
C655 C 0.37563 0.898 0.7136 0.0
H656 H 0.09066 0.70001 0.04742 0.0
H657 H 0.12287 0.7179 0.28316 0.0
H658 H 0.07763 0.73754 0.03058 0.0
H659 H 0.11064 0.75541 0.26582 0.0
H660 H 0.0987 0.8236 0.21099 0.0
H661 H 0.08634 0.78645 0.24556 0.0
H662 H 0.10213 0.76605 0.98738 0.0
H663 H 0.11422 0.80272 0.95415 0.0
C664 C 0.09393 0.71172 0.09793 0.0
C665 C 0.10759 0.70616 0.16682 0.0
C666 C 0.08674 0.73329 0.08788 0.0
C667 C 0.09347 0.74967 0.14583 0.0
C668 C 0.10498 0.74335 0.22007 0.0
C669 C 0.11208 0.72182 0.23007 0.0
C670 C 0.09858 0.81129 0.16108 0.0
C671 C 0.10763 0.81578 0.08038 0.0
C672 C 0.09165 0.79001 0.18081 0.0
C673 C 0.09355 0.7731 0.11974 0.0
C674 C 0.10023 0.77851 0.0361 0.0
C675 C 0.10734 0.79955 0.01696 0.0
H676 H 0.54967 0.85471 0.20483 0.0
H677 H 0.56678 0.83889 0.4659 0.0
H678 H 0.51259 0.84238 0.22957 0.0
H679 H 0.5296 0.82569 0.49097 0.0
H680 H 0.44573 0.82954 0.27602 0.0
H681 H 0.48373 0.81747 0.26453 0.0
H682 H 0.49807 0.84853 0.50738 0.0
H683 H 0.46026 0.85998 0.51864 0.0
C684 C 0.54567 0.84762 0.26656 0.0
C685 C 0.56105 0.84765 0.33337 0.0
C686 C 0.52439 0.84036 0.28081 0.0
C687 C 0.51791 0.8332 0.36273 0.0
C688 C 0.53396 0.83128 0.42734 0.0
C689 C 0.55535 0.83854 0.41281 0.0
C690 C 0.45681 0.83261 0.32898 0.0
C691 C 0.45024 0.84565 0.39815 0.0
C692 C 0.47864 0.82596 0.32206 0.0
C693 C 0.49417 0.83251 0.38388 0.0
C694 C 0.48672 0.84307 0.45852 0.0
C695 C 0.46497 0.84967 0.46526 0.0
H696 H 0.40791 0.29591 0.55235 0.0
H697 H 0.37341 0.31315 0.7831 0.0
H698 H 0.4131 0.25906 0.60544 0.0
H699 H 0.37965 0.27644 0.83993 0.0
H700 H 0.35358 0.20564 0.80289 0.0
H701 H 0.36187 0.24416 0.80275 0.0
H702 H 0.42528 0.23047 0.69366 0.0
H703 H 0.41626 0.19156 0.69023 0.0
C704 C 0.40236 0.29201 0.61656 0.0
C705 C 0.39039 0.30735 0.66393 0.0
C706 C 0.40544 0.27085 0.64749 0.0
C707 C 0.39651 0.26447 0.72672 0.0
C708 C 0.38639 0.28059 0.77788 0.0
C709 C 0.38314 0.3018 0.74626 0.0
C710 C 0.36951 0.21076 0.78047 0.0
C711 C 0.3841 0.19556 0.7449 0.0
C712 C 0.37442 0.23299 0.78134 0.0
C713 C 0.39416 0.2407 0.74688 0.0
C714 C 0.40971 0.22523 0.71907 0.0
C715 C 0.40469 0.20285 0.71789 0.0
H716 H 0.95608 0.15854 0.67146 0.0
H717 H 0.93957 0.17816 0.92899 0.0
H718 H 0.99278 0.17233 0.69081 0.0
H719 H 0.97666 0.19235 0.9491 0.0
H720 H 0.05967 0.18347 0.73199 0.0
H721 H 0.02215 0.19713 0.72129 0.0
H722 H 0.00777 0.16845 0.96832 0.0
H723 H 0.0451 0.15539 0.97865 0.0
C724 C 0.96011 0.16672 0.73113 0.0
C725 C 0.94522 0.1669 0.7993 0.0
C726 C 0.98119 0.17482 0.74225 0.0
C727 C 0.98793 0.18305 0.82237 0.0
C728 C 0.9721 0.18577 0.88708 0.0
C729 C 0.95083 0.17778 0.8755 0.0
C730 C 0.04871 0.18122 0.78575 0.0
C731 C 0.05504 0.16836 0.85591 0.0
C732 C 0.02719 0.18885 0.77949 0.0
C733 C 0.01173 0.18341 0.84289 0.0
C734 C 0.0191 0.17306 0.91825 0.0
C735 C 0.04054 0.16548 0.92434 0.0
H736 H 0.09737 0.3219 0.69978 0.0
H737 H 0.12113 0.32048 0.96025 0.0
H738 H 0.08299 0.28465 0.71723 0.0
H739 H 0.10743 0.28381 0.97803 0.0
H740 H 0.09098 0.21799 0.01158 0.0
H741 H 0.08134 0.25622 0.98777 0.0
H742 H 0.10163 0.25035 0.72316 0.0
H743 H 0.10981 0.21188 0.74663 0.0
C744 C 0.09877 0.31391 0.76157 0.0
C745 C 0.11042 0.32387 0.8286 0.0
C746 C 0.09075 0.29253 0.77151 0.0
C747 C 0.09421 0.28094 0.84879 0.0
C748 C 0.10408 0.29202 0.91788 0.0
C749 C 0.11213 0.31311 0.9077 0.0
C750 C 0.0922 0.22467 0.94737 0.0
C751 C 0.10114 0.21215 0.88093 0.0
C752 C 0.08697 0.24665 0.93374 0.0
C753 C 0.09145 0.2567 0.85427 0.0
C754 C 0.09794 0.24335 0.78524 0.0
C755 C 0.10267 0.22122 0.79854 0.0
H756 H 0.05207 0.87024 0.27302 0.0
H757 H 0.06824 0.84793 0.01845 0.0
H758 H 0.01531 0.85649 0.25629 0.0
H759 H 0.03107 0.83368 0.00122 0.0
H760 H 0.96068 0.86649 0.9678 0.0
H761 H 0.99864 0.85528 0.97832 0.0
H762 H 0.98685 0.83072 0.23412 0.0
H763 H 0.94891 0.84285 0.22376 0.0
C764 C 0.04793 0.86161 0.21446 0.0
C765 C 0.06284 0.86055 0.14644 0.0
C766 C 0.0268 0.8535 0.20492 0.0
C767 C 0.01995 0.84427 0.12663 0.0
C768 C 0.03567 0.84102 0.06186 0.0
C769 C 0.05701 0.84903 0.07186 0.0
C770 C 0.96594 0.85757 0.02427 0.0
C771 C 0.95197 0.85551 0.09493 0.0
C772 C 0.9878 0.85114 0.03061 0.0
C773 C 0.99606 0.84264 0.10815 0.0
C774 C 0.98117 0.8377 0.17421 0.0
C775 C 0.95934 0.84434 0.168 0.0
H776 H 0.40334 0.7087 0.67117 0.0
H777 H 0.41255 0.68377 0.41509 0.0
H778 H 0.41298 0.74518 0.62257 0.0
H779 H 0.42219 0.72048 0.36563 0.0
H780 H 0.42233 0.81127 0.52286 0.0
H781 H 0.43588 0.77419 0.55202 0.0
H782 H 0.39301 0.7489 0.35516 0.0
H783 H 0.37941 0.78554 0.32792 0.0
C784 C 0.40855 0.71086 0.6053 0.0
C785 C 0.40706 0.69347 0.54677 0.0
C786 C 0.41412 0.73181 0.57729 0.0
C787 C 0.41796 0.73585 0.4898 0.0
C788 C 0.4191 0.71791 0.43331 0.0
C789 C 0.4138 0.69683 0.46175 0.0
C790 C 0.41654 0.79783 0.48374 0.0
C791 C 0.39972 0.80112 0.42373 0.0
C792 C 0.42419 0.77662 0.5006 0.0
C793 C 0.41541 0.75853 0.45641 0.0
C794 C 0.40033 0.76237 0.38991 0.0
C795 C 0.39241 0.78338 0.37446 0.0
H796 H 0.56201 0.16719 0.77874 0.0
H797 H 0.5422 0.12882 0.56016 0.0
H798 H 0.52475 0.18171 0.79076 0.0
H799 H 0.50541 0.14319 0.57092 0.0
H800 H 0.43903 0.16001 0.60635 0.0
H801 H 0.47669 0.17088 0.57577 0.0
H802 H 0.49381 0.15955 0.84123 0.0
H803 H 0.45638 0.14896 0.87103 0.0
C804 C 0.54995 0.16269 0.73091 0.0
C805 C 0.55479 0.14677 0.66905 0.0
C806 C 0.5286 0.17087 0.73801 0.0
C807 C 0.51195 0.1634 0.68258 0.0
C808 C 0.51771 0.14949 0.61443 0.0
C809 C 0.53882 0.14113 0.60832 0.0
C810 C 0.45062 0.16105 0.65888 0.0
C811 C 0.44492 0.15351 0.74086 0.0
C812 C 0.47224 0.16706 0.64131 0.0
C813 C 0.48843 0.16561 0.70558 0.0
C814 C 0.48188 0.16095 0.79008 0.0
C815 C 0.46038 0.15481 0.80733 0.0
H816 H 0.91057 0.1995 0.73434 0.0
H817 H 0.89352 0.2268 0.98034 0.0
H818 H 0.92232 0.23566 0.68543 0.0
H819 H 0.90494 0.2627 0.9321 0.0
H820 H 0.91817 0.32736 0.83954 0.0
H821 H 0.92994 0.2903 0.87707 0.0
H822 H 0.89728 0.26552 0.65109 0.0
H823 H 0.88586 0.30234 0.61423 0.0
C824 C 0.91022 0.21302 0.77915 0.0
C825 C 0.90091 0.21042 0.8608 0.0
C826 C 0.91677 0.23378 0.75096 0.0
C827 C 0.91425 0.25223 0.80423 0.0
C828 C 0.90727 0.24898 0.88923 0.0
C829 C 0.90057 0.22836 0.91692 0.0
C830 C 0.91464 0.31411 0.79561 0.0
C831 C 0.90119 0.31764 0.7239 0.0
C832 C 0.92111 0.29283 0.81759 0.0
C833 C 0.91424 0.27481 0.76798 0.0
C834 C 0.90303 0.27887 0.69068 0.0
C835 C 0.89644 0.30003 0.66935 0.0
H836 H 0.58998 0.80782 0.46775 0.0
H837 H 0.62643 0.78413 0.25083 0.0
H838 H 0.5768 0.77083 0.49601 0.0
H839 H 0.61392 0.74718 0.27968 0.0
H840 H 0.59862 0.68093 0.34925 0.0
H841 H 0.58774 0.71749 0.30112 0.0
H842 H 0.59972 0.7424 0.5564 0.0
H843 H 0.61049 0.70619 0.60328 0.0
C844 C 0.59418 0.79493 0.42328 0.0
C845 C 0.60905 0.79886 0.3567 0.0
C846 C 0.58693 0.77363 0.44021 0.0
C847 C 0.59454 0.75589 0.39098 0.0
C848 C 0.60753 0.76034 0.31869 0.0
C849 C 0.61482 0.78155 0.30218 0.0
C850 C 0.5978 0.69405 0.39581 0.0
C851 C 0.6056 0.69086 0.47968 0.0
C852 C 0.59181 0.71505 0.36812 0.0
C853 C 0.5933 0.73305 0.42432 0.0
C854 C 0.59828 0.72906 0.51112 0.0
C855 C 0.60449 0.70823 0.53826 0.0
H856 H 0.88791 0.71337 0.22386 0.0
H857 H 0.92032 0.69744 0.98698 0.0
H858 H 0.8994 0.75124 0.21011 0.0
H859 H 0.9319 0.73562 0.97215 0.0
H860 H 0.91454 0.81977 0.16813 0.0
H861 H 0.92577 0.78184 0.19373 0.0
H862 H 0.9056 0.76498 0.93622 0.0
H863 H 0.89447 0.80255 0.91151 0.0
C864 C 0.89846 0.71784 0.17097 0.0
C865 C 0.90327 0.70261 0.10653 0.0
C866 C 0.9051 0.73957 0.16297 0.0
C867 C 0.91633 0.74658 0.08933 0.0
C868 C 0.92311 0.73077 0.02925 0.0
C869 C 0.91665 0.70889 0.03794 0.0
C870 C 0.91347 0.80811 0.11603 0.0
C871 C 0.90352 0.81398 0.03809 0.0
C872 C 0.91973 0.78637 0.1308 0.0
C873 C 0.91637 0.77028 0.06737 0.0
C874 C 0.90863 0.77686 0.98635 0.0
C875 C 0.90211 0.79841 0.9722 0.0
H876 H 0.59254 0.19487 0.62106 0.0
H877 H 0.63276 0.19515 0.84842 0.0
H878 H 0.58921 0.23468 0.62959 0.0
H879 H 0.62879 0.23466 0.85948 0.0
H880 H 0.65772 0.29516 0.71443 0.0
H881 H 0.64806 0.25884 0.76341 0.0
H882 H 0.58061 0.27084 0.69623 0.0
H883 H 0.59056 0.30773 0.64757 0.0
C884 C 0.59966 0.20334 0.67538 0.0
C885 C 0.61311 0.19209 0.7335 0.0
C886 C 0.5978 0.22617 0.6804 0.0
C887 C 0.60923 0.23794 0.74407 0.0
C888 C 0.62022 0.22618 0.80851 0.0
C889 C 0.62235 0.20353 0.80267 0.0
C890 C 0.64069 0.29036 0.71342 0.0
C891 C 0.6249 0.30417 0.67738 0.0
C892 C 0.63507 0.26951 0.74164 0.0
C893 C 0.61352 0.26177 0.73323 0.0
C894 C 0.59735 0.27624 0.70306 0.0
C895 C 0.60299 0.29741 0.6761 0.0
H896 H 0.96059 0.37472 0.55787 0.0
H897 H 0.94451 0.35867 0.81934 0.0
H898 H 0.99845 0.36496 0.58384 0.0
H899 H 0.98271 0.34854 0.84621 0.0
H900 H 0.05166 0.38404 0.87394 0.0
H901 H 0.01366 0.37304 0.86035 0.0
H902 H 0.02844 0.34113 0.62008 0.0
H903 H 0.06664 0.35258 0.63409 0.0
C904 C 0.96504 0.36812 0.62005 0.0
C905 C 0.94962 0.36737 0.68645 0.0
C906 C 0.98682 0.36245 0.63512 0.0
C907 C 0.99385 0.35617 0.71756 0.0
C908 C 0.97795 0.35352 0.78215 0.0
C909 C 0.95599 0.35903 0.76662 0.0
C910 C 0.04698 0.37371 0.82049 0.0
C911 C 0.06207 0.36902 0.75541 0.0
C912 C 0.02512 0.3674 0.81242 0.0
C913 C 0.01776 0.35648 0.73828 0.0
C914 C 0.03343 0.3498 0.67744 0.0
C915 C 0.0554 0.35608 0.68585 0.0
H916 H 0.44591 0.65828 0.40092 0.0
H917 H 0.4612 0.62755 0.64238 0.0
H918 H 0.48427 0.66898 0.38488 0.0
H919 H 0.49933 0.63807 0.62713 0.0
H920 H 0.56821 0.6529 0.58481 0.0
H921 H 0.53018 0.66416 0.60865 0.0
H922 H 0.51353 0.64243 0.35292 0.0
H923 H 0.55112 0.63111 0.3304 0.0
C924 C 0.45728 0.65481 0.45253 0.0
C925 C 0.45068 0.64225 0.52314 0.0
C926 C 0.47927 0.66073 0.44308 0.0
C927 C 0.49497 0.65419 0.50428 0.0
C928 C 0.48776 0.64361 0.57915 0.0
C929 C 0.46589 0.63752 0.588 0.0
C930 C 0.55654 0.65147 0.53275 0.0
C931 C 0.56245 0.64107 0.45599 0.0
C932 C 0.53476 0.65774 0.54646 0.0
C933 C 0.51871 0.65398 0.48305 0.0
C934 C 0.52537 0.64578 0.40298 0.0
C935 C 0.54694 0.63921 0.39 0.0
H936 H 0.44628 0.35528 0.40123 0.0
H937 H 0.45749 0.42469 0.40147 0.0
H938 H 0.48264 0.34929 0.34236 0.0
H939 H 0.49418 0.41902 0.3506 0.0
H940 H 0.56202 0.41122 0.32081 0.0
H941 H 0.52404 0.41012 0.27361 0.0
H942 H 0.51576 0.34883 0.40821 0.0
H943 H 0.55398 0.34932 0.44762 0.0
C944 C 0.45612 0.36932 0.38455 0.0
C945 C 0.44899 0.39044 0.40523 0.0
C946 C 0.4773 0.36591 0.35301 0.0
C947 C 0.49198 0.38354 0.34405 0.0
C948 C 0.48374 0.40484 0.35584 0.0
C949 C 0.46254 0.40821 0.38571 0.0
C950 C 0.55229 0.39694 0.33548 0.0
C951 C 0.56083 0.38036 0.38772 0.0
C952 C 0.53033 0.39646 0.31017 0.0
C953 C 0.51624 0.37993 0.34033 0.0
C954 C 0.5257 0.36198 0.38342 0.0
C955 C 0.54781 0.36216 0.40621 0.0
H956 H 0.04771 0.65589 0.33561 0.0
H957 H 0.06873 0.66716 0.07561 0.0
H958 H 0.01064 0.66618 0.29647 0.0
H959 H 0.03151 0.67771 0.03582 0.0
H960 H 0.96604 0.63506 0.00932 0.0
H961 H 1.00285 0.64905 0.02733 0.0
H962 H 0.98089 0.68987 0.23618 0.0
H963 H 0.94361 0.6759 0.21646 0.0
C964 C 0.04457 0.66164 0.27097 0.0
C965 C 0.06101 0.66068 0.20853 0.0
C966 C 0.02331 0.66766 0.24845 0.0
C967 C 0.01802 0.67246 0.16262 0.0
C968 C 0.03506 0.67395 0.10234 0.0
C969 C 0.05643 0.66813 0.12523 0.0
C970 C 0.96889 0.64778 0.05638 0.0
C971 C 0.95215 0.65428 0.11201 0.0
C972 C 0.99 0.65591 0.06661 0.0
C973 C 0.99491 0.67038 0.13403 0.0
C974 C 0.97762 0.67862 0.18404 0.0
C975 C 0.9563 0.67074 0.17255 0.0
H976 H 0.15659 0.5709 0.05485 0.0
H977 H 0.08679 0.56381 0.03114 0.0
H978 H 0.16148 0.53336 0.00322 0.0
H979 H 0.09151 0.5269 0.97685 0.0
H980 H 0.15661 0.4695 0.83242 0.0
H981 H 0.15755 0.50697 0.88692 0.0
H982 H 0.1012 0.4931 0.04424 0.0
H983 H 0.09991 0.45605 0.98656 0.0
C984 C 0.14239 0.56159 0.03532 0.0
C985 C 0.12132 0.5701 0.04716 0.0
C986 C 0.14514 0.54004 0.00668 0.0
C987 C 0.12683 0.52684 0.989 0.0
C988 C 0.10593 0.53626 0.9933 0.0
C989 C 0.1032 0.55756 0.02272 0.0
C990 C 0.14504 0.47432 0.88141 0.0
C991 C 0.12836 0.45998 0.90647 0.0
C992 C 0.14544 0.49581 0.91202 0.0
C993 C 0.12908 0.50323 0.968 0.0
C994 C 0.11365 0.48811 -0.00095 0.0
C995 C 0.11314 0.46676 0.96768 0.0
H996 H 0.71589 0.87314 0.44604 0.0
H997 H 0.69889 0.87693 0.17717 0.0
H998 H 0.75364 0.88102 0.4127 0.0
H999 H 0.73736 0.88488 0.14337 0.0
H1000 H 0.80759 0.90966 0.1202 0.0
H1001 H 0.76947 0.91155 0.16722 0.0
H1002 H 0.78103 0.85732 0.3387 0.0
H1003 H 0.81892 0.85535 0.29036 0.0
C1004 C 0.7202 0.8758 0.37944 0.0
C1005 C 0.70445 0.87387 0.31379 0.0
C1006 C 0.74189 0.88036 0.36063 0.0
C1007 C 0.74854 0.88319 0.27555 0.0
C1008 C 0.73264 0.88277 0.20978 0.0
C1009 C 0.71066 0.87818 0.22883 0.0
C1010 C 0.80213 0.89884 0.17085 0.0
C1011 C 0.8162 0.88273 0.20363 0.0
C1012 C 0.78027 0.89965 0.1964 0.0
C1013 C 0.77222 0.88447 0.25587 0.0
C1014 C 0.7868 0.86936 0.29317 0.0
C1015 C 0.80855 0.86836 0.26653 0.0
H1016 H 0.36651 0.44287 0.78282 0.0
H1017 H 0.35253 0.45112 0.51363 0.0
H1018 H 0.35987 0.48164 0.80729 0.0
H1019 H 0.34592 0.49009 0.53768 0.0
H1020 H 0.34004 0.56103 0.5943 0.0
H1021 H 0.3279 0.52316 0.61294 0.0
H1022 H 0.38742 0.50887 0.75105 0.0
H1023 H 0.39964 0.54636 0.7299 0.0
C1024 C 0.3608 0.45279 0.7297 0.0
C1025 C 0.36004 0.44405 0.64632 0.0
C1026 C 0.35723 0.47505 0.74359 0.0
C1027 C 0.35283 0.48903 0.67424 0.0
C1028 C 0.34922 0.47974 0.59258 0.0
C1029 C 0.35284 0.45737 0.57869 0.0
C1030 C 0.34992 0.55004 0.63267 0.0
C1031 C 0.37065 0.55661 0.66169 0.0
C1032 C 0.34312 0.5283 0.64222 0.0
C1033 C 0.35675 0.51296 0.68282 0.0
C1034 C 0.37639 0.52028 0.72017 0.0
C1035 C 0.38339 0.54182 0.70873 0.0
H1036 H 0.81505 0.10666 0.75791 0.0
H1037 H 0.79206 0.17328 0.75201 0.0
H1038 H 0.77715 0.09369 0.75918 0.0
H1039 H 0.75449 0.16045 0.75294 0.0
H1040 H 0.70226 0.08811 0.66588 0.0
H1041 H 0.74171 0.09296 0.67651 0.0
H1042 H 0.73201 0.14299 0.86797 0.0
H1043 H 0.69249 0.1382 0.85623 0.0
C1044 C 0.80194 0.11849 0.75335 0.0
C1045 C 0.80649 0.141 0.75527 0.0
C1046 C 0.78026 0.11108 0.75563 0.0
C1047 C 0.76289 0.12609 0.75994 0.0
C1048 C 0.76753 0.14849 0.75325 0.0
C1049 C 0.78905 0.15584 0.75077 0.0
C1050 C 0.70866 0.09923 0.71387 0.0
C1051 C 0.6944 0.11274 0.76051 0.0
C1052 C 0.73125 0.10221 0.71911 0.0
C1053 C 0.73989 0.11886 0.77083 0.0
C1054 C 0.72573 0.13039 0.82579 0.0
C1055 C 0.70311 0.12731 0.8208 0.0
H1056 H 0.87323 0.54522 0.13837 0.0
H1057 H 0.88282 0.57165 0.88474 0.0
H1058 H 0.86778 0.50901 0.07793 0.0
H1059 H 0.87716 0.53519 0.82336 0.0
H1060 H 0.85601 0.46723 0.73837 0.0
H1061 H 0.85107 0.50312 0.80502 0.0
H1062 H 0.8953 0.48437 0.00847 0.0
H1063 H 0.9005 0.44874 0.94041 0.0
C1064 C 0.87371 0.54335 0.06922 0.0
C1065 C 0.87856 0.56127 0.01604 0.0
C1066 C 0.87067 0.52258 0.03481 0.0
C1067 C 0.87235 0.51918 0.94619 0.0
C1068 C 0.87565 0.53736 0.89208 0.0
C1069 C 0.87877 0.55829 0.92689 0.0
C1070 C 0.86405 0.47062 0.79899 0.0
C1071 C 0.87812 0.45511 0.83594 0.0
C1072 C 0.86144 0.4912 0.8364 0.0
C1073 C 0.87282 0.49658 0.91172 0.0
C1074 C 0.88606 0.48058 0.95101 0.0
C1075 C 0.88888 0.46009 0.91283 0.0
H1076 H 0.18517 0.10793 0.77404 0.0
H1077 H 0.208 0.1746 0.76847 0.0
H1078 H 0.22312 0.09502 0.76935 0.0
H1079 H 0.24558 0.16181 0.76415 0.0
H1080 H 0.29773 0.09089 0.66754 0.0
H1081 H 0.25827 0.09564 0.67948 0.0
H1082 H 0.26835 0.14323 0.88014 0.0
H1083 H 0.3079 0.13843 0.86779 0.0
C1084 C 0.19821 0.11978 0.76818 0.0
C1085 C 0.19367 0.14227 0.77205 0.0
C1086 C 0.21992 0.1124 0.76712 0.0
C1087 C 0.23726 0.12745 0.77019 0.0
C1088 C 0.23255 0.14985 0.76518 0.0
C1089 C 0.21102 0.15717 0.76577 0.0
C1090 C 0.29142 0.1015 0.71733 0.0
C1091 C 0.30577 0.11431 0.76685 0.0
C1092 C 0.26884 0.10437 0.7235 0.0
C1093 C 0.26032 0.12027 0.77877 0.0
C1094 C 0.27459 0.13119 0.83552 0.0
C1095 C 0.29719 0.12814 0.82988 0.0
H1096 H 0.67145 0.55638 0.53189 0.0
H1097 H 0.61111 0.54535 0.66652 0.0
H1098 H 0.68231 0.51836 0.5586 0.0
H1099 H 0.62205 0.5078 0.69563 0.0
H1100 H 0.64171 0.44224 0.7484 0.0
H1101 H 0.64893 0.48126 0.76174 0.0
H1102 H 0.66376 0.48429 0.49136 0.0
H1103 H 0.65662 0.44503 0.47853 0.0
C1104 C 0.66109 0.54616 0.57134 0.0
C1105 C 0.64058 0.55379 0.59828 0.0
C1106 C 0.66718 0.52435 0.58562 0.0
C1107 C 0.65303 0.51003 0.62884 0.0
C1108 C 0.63348 0.51842 0.66298 0.0
C1109 C 0.6272 0.53998 0.64682 0.0
C1110 C 0.6477 0.45102 0.69285 0.0
C1111 C 0.64861 0.44068 0.61242 0.0
C1112 C 0.65161 0.47342 0.70033 0.0
C1113 C 0.65645 0.48594 0.62735 0.0
C1114 C 0.66012 0.47507 0.54891 0.0
C1115 C 0.65618 0.45254 0.54147 0.0
H1116 H 0.31547 0.85187 0.17644 0.0
H1117 H 0.30768 0.9039 0.36001 0.0
H1118 H 0.27895 0.85925 0.11979 0.0
H1119 H 0.27095 0.91127 0.30438 0.0
H1120 H 0.19736 0.88674 0.26883 0.0
H1121 H 0.2359 0.8891 0.31264 0.0
H1122 H 0.25545 0.88662 0.04676 0.0
H1123 H 0.21752 0.88417 0.00351 0.0
C1124 C 0.30628 0.86554 0.2018 0.0
C1125 C 0.31446 0.87771 0.27073 0.0
C1126 C 0.28529 0.86966 0.17023 0.0
C1127 C 0.272 0.88573 0.20837 0.0
C1128 C 0.28073 0.89868 0.27436 0.0
C1129 C 0.30183 0.89472 0.30508 0.0
C1130 C 0.20991 0.8871 0.22008 0.0
C1131 C 0.20441 0.88479 0.13307 0.0
C1132 C 0.23194 0.8885 0.24489 0.0
C1133 C 0.24869 0.8877 0.18292 0.0
C1134 C 0.24298 0.88683 0.09596 0.0
C1135 C 0.22118 0.88541 0.07141 0.0
H1136 H 0.61841 0.93519 0.59427 0.0
H1137 H 0.64598 0.95002 0.34664 0.0
H1138 H 0.62262 0.97379 0.63604 0.0
H1139 H 0.64979 0.98829 0.38715 0.0
H1140 H 0.61086 0.05408 0.45412 0.0
H1141 H 0.61802 0.01595 0.41409 0.0
H1142 H 0.65126 0.00567 0.65534 0.0
H1143 H 0.64471 0.04384 0.69369 0.0
C1144 C 0.6261 0.94651 0.55031 0.0
C1145 C 0.63199 0.93973 0.46766 0.0
C1146 C 0.62837 0.96858 0.57363 0.0
C1147 C 0.63623 0.98405 0.51405 0.0
C1148 C 0.64345 0.97682 0.43379 0.0
C1149 C 0.64146 0.9549 0.41111 0.0
C1150 C 0.62064 0.04395 0.49632 0.0
C1151 C 0.62776 0.05197 0.57578 0.0
C1152 C 0.6245 0.02208 0.47419 0.0
C1153 C 0.63503 0.00783 0.53221 0.0
C1154 C 0.64299 0.01621 0.60984 0.0
C1155 C 0.63949 0.03809 0.63111 0.0
H1156 H 0.20362 0.36106 0.56563 0.0
H1157 H 0.20145 0.424 0.68877 0.0
H1158 H 0.2407 0.36846 0.51671 0.0
H1159 H 0.23904 0.43132 0.64198 0.0
H1160 H 0.30403 0.38619 0.41265 0.0
H1161 H 0.26501 0.39299 0.42736 0.0
H1162 H 0.275 0.41181 0.69149 0.0
H1163 H 0.31439 0.40502 0.67618 0.0
C1164 C 0.21079 0.37688 0.57887 0.0
C1165 C 0.19956 0.39212 0.62929 0.0
C1166 C 0.2321 0.38112 0.55151 0.0
C1167 C 0.2429 0.40046 0.57598 0.0
C1168 C 0.23118 0.41628 0.62231 0.0
C1169 C 0.20959 0.41223 0.64791 0.0
C1170 C 0.29802 0.39271 0.47281 0.0
C1171 C 0.31219 0.39509 0.5433 0.0
C1172 C 0.27564 0.39642 0.48139 0.0
C1173 C 0.26685 0.40255 0.56089 0.0
C1174 C 0.28131 0.40716 0.62923 0.0
C1175 C 0.30387 0.4034 0.62053 0.0
H1176 H 0.92339 0.96168 0.91792 0.0
H1177 H 0.85796 0.95485 0.01524 0.0
H1178 H 0.9189 1.00116 0.91271 0.0
H1179 H 0.85356 0.99463 0.01322 0.0
H1180 H 0.85426 0.0696 0.92978 0.0
H1181 H 0.85209 0.02971 0.93643 0.0
H1182 H 0.91868 0.02739 0.02799 0.0
H1183 H 0.92095 0.06701 0.01789 0.0
C1184 C 0.90771 0.96863 0.93486 0.0
C1185 C 0.891 0.95523 0.96636 0.0
C1186 C 0.90529 0.99129 0.93412 0.0
C1187 C 0.8862 1.00114 0.9662 0.0
C1188 C 0.86857 0.98762 0.9891 0.0
C1189 C 0.87095 0.9648 0.9889 0.0
C1190 C 0.86802 0.06057 0.95552 0.0
C1191 C 0.88777 0.07135 0.97357 0.0
C1192 C 0.86691 0.03767 0.95795 0.0
C1193 C 0.88551 0.02529 0.97921 0.0
C1194 C 0.90431 0.03637 0.0079 0.0
C1195 C 0.90548 0.05912 0.00445 0.0
H1196 H 0.20098 0.66989 0.38139 0.0
H1197 H 0.20175 0.60671 0.25991 0.0
H1198 H 0.23928 0.66565 0.42068 0.0
H1199 H 0.24051 0.60265 0.29567 0.0
H1200 H 0.30957 0.60187 0.43364 0.0
H1201 H 0.27054 0.59977 0.39898 0.0
H1202 H 0.27103 0.66825 0.33179 0.0
H1203 H 0.30954 0.67036 0.3698 0.0
C1204 C 0.2092 0.65471 0.36621 0.0
C1205 C 0.19847 0.63853 0.31873 0.0
C1206 C 0.23127 0.65245 0.38671 0.0
C1207 C 0.24321 0.63417 0.35827 0.0
C1208 C 0.23188 0.617 0.31796 0.0
C1209 C 0.20962 0.61917 0.29847 0.0
C1210 C 0.30143 0.61619 0.40808 0.0
C1211 C 0.31245 0.63628 0.40409 0.0
C1212 C 0.27903 0.61508 0.38933 0.0
C1213 C 0.26747 0.63404 0.36586 0.0
C1214 C 0.27921 0.65352 0.3531 0.0
C1215 C 0.30139 0.65467 0.37286 0.0
H1216 H 0.41749 0.94336 0.59596 0.0
H1217 H 0.35513 0.94475 0.46764 0.0
H1218 H 0.41486 0.98245 0.6233 0.0
H1219 H 0.35274 0.9842 0.49131 0.0
H1220 H 0.35445 0.05572 0.60671 0.0
H1221 H 0.3507 0.01631 0.58358 0.0
H1222 H 0.41957 0.01231 0.52602 0.0
H1223 H 0.42328 0.05129 0.55262 0.0
C1224 C 0.40278 0.95195 0.57688 0.0
C1225 C 0.38641 0.94109 0.53079 0.0
C1226 C 0.40148 0.97444 0.59041 0.0
C1227 C 0.38399 0.98665 0.55633 0.0
C1228 C 0.36651 0.97538 0.51778 0.0
C1229 C 0.36771 0.95272 0.50531 0.0
C1230 C 0.36854 0.04648 0.58553 0.0
C1231 C 0.38916 0.05647 0.5812 0.0
C1232 C 0.36647 0.02386 0.57348 0.0
C1233 C 0.38501 0.01099 0.55636 0.0
C1234 C 0.40511 0.02155 0.5427 0.0
C1235 C 0.40719 0.04398 0.55578 0.0
H1236 H 0.81356 0.66287 0.32264 0.0
H1237 H 0.81031 0.60112 0.19085 0.0
H1238 H 0.77541 0.65915 0.36459 0.0
H1239 H 0.77177 0.59756 0.23004 0.0
H1240 H 0.70501 0.66636 0.30878 0.0
H1241 H 0.74354 0.66332 0.27295 0.0
H1242 H 0.74221 0.59477 0.3385 0.0
H1243 H 0.70319 0.59786 0.37211 0.0
C1244 C 0.80488 0.64804 0.30603 0.0
C1245 C 0.81483 0.63215 0.2547 0.0
C1246 C 0.7829 0.64609 0.32819 0.0
C1247 C 0.77035 0.62843 0.29788 0.0
C1248 C 0.78093 0.61142 0.25388 0.0
C1249 C 0.80306 0.6133 0.23241 0.0
C1250 C 0.71277 0.65047 0.31223 0.0
C1251 C 0.70118 0.63233 0.34246 0.0
C1252 C 0.73495 0.64879 0.2936 0.0
C1253 C 0.74614 0.62898 0.30611 0.0
C1254 C 0.73411 0.61031 0.3291 0.0
C1255 C 0.71173 0.61198 0.34721 0.0
H1256 H 0.15114 0.0723 0.93966 0.0
H1257 H 0.0869 0.06603 0.04874 0.0
H1258 H 0.15527 0.03254 0.94104 0.0
H1259 H 0.09118 0.0265 0.05361 0.0
H1260 H 0.08692 0.96137 0.93963 0.0
H1261 H 0.08956 1.00103 0.93577 0.0
H1262 H 0.15716 0.99703 0.01404 0.0
H1263 H 0.15456 0.95712 0.0145 0.0
C1264 C 0.13846 0.06247 0.96887 0.0
C1265 C 0.11873 0.07218 0.9945 0.0
C1266 C 0.14066 0.03965 0.96825 0.0
C1267 C 0.12318 0.02629 0.99399 0.0
C1268 C 0.10462 0.03627 0.03001 0.0
C1269 C 0.10236 0.05896 0.02961 0.0
C1270 C 0.10263 0.96895 0.95156 0.0
C1271 C 0.12055 0.95621 0.97675 0.0
C1272 C 0.10403 0.9917 0.95176 0.0
C1273 C 0.12331 1.00224 0.97849 0.0
C1274 C 0.14198 0.98945 0.99425 0.0
C1275 C 0.14062 0.96657 0.99304 0.0
H1276 H 0.6974 0.40118 0.65261 0.0
H1277 H 0.7016 0.38788 0.38165 0.0
H1278 H 0.73671 0.40883 0.65624 0.0
H1279 H 0.74069 0.39552 0.38472 0.0
H1280 H 0.80923 0.4206 0.64079 0.0
H1281 H 0.77122 0.42931 0.60378 0.0
H1282 H 0.7671 0.36961 0.45724 0.0
H1283 H 0.80469 0.36079 0.49637 0.0
C1284 C 0.70648 0.40113 0.59304 0.0
C1285 C 0.69649 0.39407 0.5168 0.0
C1286 C 0.72905 0.40535 0.59503 0.0
C1287 C 0.74189 0.40239 0.5209 0.0
C1288 C 0.73132 0.39769 0.44299 0.0
C1289 C 0.70889 0.39357 0.44105 0.0
C1290 C 0.80046 0.40993 0.59724 0.0
C1291 C 0.80995 0.39021 0.57005 0.0
C1292 C 0.77863 0.41476 0.57713 0.0
C1293 C 0.76609 0.40012 0.52797 0.0
C1294 C 0.77633 0.38138 0.49443 0.0
C1295 C 0.79793 0.37634 0.51622 0.0
loop_
_geom_bond_atom_site_label_1
_geom_bond_atom_site_label_2
_geom_bond_distance
_geom_bond_site_symmetry_2
_ccdc_geom_bond_type
Zn0 O6 1.920 . S
Zn0 O12 1.898 . S
Zn0 O15 1.905 . S
Zn1 O9 1.905 . S
Zn1 O10 1.898 . S
Zn1 O18 1.920 1_554 S
Zn2 O5 2.080 . S
Zn2 O8 2.114 . S
Zn2 O11 2.120 . S
Zn2 O13 2.120 . S
Zn2 O14 2.114 . S
Zn2 O17 2.080 1_554 S
C3 O8 1.166 . S
C3 O9 1.182 . S
C4 O10 1.167 . S
C4 O11 1.299 . S
O5 Zn2 2.080 . S
O5 C19 1.305 . S
O6 Zn0 1.920 . S
O6 C19 1.234 . S
C7 O12 1.167 . S
C7 O13 1.299 . S
O8 Zn2 2.114 . S
O8 C3 1.166 . S
O9 Zn1 1.905 . S
O9 C3 1.182 . S
O10 Zn1 1.898 . S
O10 C4 1.167 . S
O11 Zn2 2.120 . S
O11 C4 1.299 . S
O12 Zn0 1.898 . S
O12 C7 1.167 . S
O13 Zn2 2.120 . S
O13 C7 1.299 . S
O14 Zn2 2.114 . S
O14 C16 1.166 . S
O15 Zn0 1.905 . S
O15 C16 1.182 . S
C16 O14 1.166 . S
C16 O15 1.182 . S
O17 Zn2 2.080 1_556 S
O17 C20 1.305 . S
O18 Zn1 1.920 1_556 S
O18 C20 1.234 . S
C19 O5 1.305 . S
C19 O6 1.234 . S
C20 O17 1.305 . S
C20 O18 1.234 . S
Zn21 O27 1.920 . S
Zn21 O33 1.898 . S
Zn21 O36 1.905 . S
Zn22 O30 1.905 . S
Zn22 O31 1.898 . S
Zn22 O39 1.920 . S
Zn23 O26 2.080 . S
Zn23 O29 2.114 . S
Zn23 O32 2.120 . S
Zn23 O34 2.120 . S
Zn23 O35 2.114 . S
Zn23 O38 2.080 . S
C24 O29 1.166 . S
C24 O30 1.182 . S
C25 O31 1.167 . S
C25 O32 1.299 . S
O26 Zn23 2.080 . S
O26 C40 1.305 . S
O27 Zn21 1.920 . S
O27 C40 1.234 . S
C28 O33 1.167 . S
C28 O34 1.299 . S
O29 Zn23 2.114 . S
O29 C24 1.166 . S
O30 Zn22 1.905 . S
O30 C24 1.182 . S
O31 Zn22 1.898 . S
O31 C25 1.167 . S
O32 Zn23 2.120 . S
O32 C25 1.299 . S
O33 Zn21 1.898 . S
O33 C28 1.167 . S
O34 Zn23 2.120 . S
O34 C28 1.299 . S
O35 Zn23 2.114 . S
O35 C37 1.166 . S
O36 Zn21 1.905 . S
O36 C37 1.182 . S
C37 O35 1.166 . S
C37 O36 1.182 . S
O38 Zn23 2.080 . S
O38 C41 1.305 . S
O39 Zn22 1.920 . S
O39 C41 1.234 . S
C40 O26 1.305 . S
C40 O27 1.234 . S
C41 O38 1.305 . S
C41 O39 1.234 . S
Zn42 O48 1.920 . S
Zn42 O54 1.898 . S
Zn42 O57 1.905 . S
Zn43 O51 1.905 . S
Zn43 O52 1.898 . S
Zn43 O60 1.920 . S
Zn44 O47 2.080 . S
Zn44 O50 2.114 . S
Zn44 O53 2.120 . S
Zn44 O55 2.120 . S
Zn44 O56 2.114 . S
Zn44 O59 2.080 . S
C45 O50 1.166 . S
C45 O51 1.182 . S
C46 O52 1.167 . S
C46 O53 1.299 . S
O47 Zn44 2.080 . S
O47 C61 1.305 . S
O48 Zn42 1.920 . S
O48 C61 1.234 . S
C49 O54 1.167 . S
C49 O55 1.299 . S
O50 Zn44 2.114 . S
O50 C45 1.166 . S
O51 Zn43 1.905 . S
O51 C45 1.182 . S
O52 Zn43 1.898 . S
O52 C46 1.167 . S
O53 Zn44 2.120 . S
O53 C46 1.299 . S
O54 Zn42 1.898 . S
O54 C49 1.167 . S
O55 Zn44 2.120 . S
O55 C49 1.299 . S
O56 Zn44 2.114 . S
O56 C58 1.166 . S
O57 Zn42 1.905 . S
O57 C58 1.182 . S
C58 O56 1.166 . S
C58 O57 1.182 . S
O59 Zn44 2.080 . S
O59 C62 1.305 . S
O60 Zn43 1.920 . S
O60 C62 1.234 . S
C61 O47 1.305 . S
C61 O48 1.234 . S
C62 O59 1.305 . S
C62 O60 1.234 . S
Zn63 O69 1.920 1_556 S
Zn63 O75 1.898 . S
Zn63 O78 1.905 . S
Zn64 O72 1.905 . S
Zn64 O73 1.898 . S
Zn64 O81 1.920 . S
Zn65 O68 2.080 1_556 S
Zn65 O71 2.114 . S
Zn65 O74 2.120 . S
Zn65 O76 2.120 . S
Zn65 O77 2.114 . S
Zn65 O80 2.080 . S
C66 O71 1.166 . S
C66 O72 1.182 . S
C67 O73 1.167 . S
C67 O74 1.299 . S
O68 Zn65 2.080 1_554 S
O68 C82 1.305 . S
O69 Zn63 1.920 1_554 S
O69 C82 1.234 . S
C70 O75 1.167 . S
C70 O76 1.299 . S
O71 Zn65 2.114 . S
O71 C66 1.166 . S
O72 Zn64 1.905 . S
O72 C66 1.182 . S
O73 Zn64 1.898 . S
O73 C67 1.167 . S
O74 Zn65 2.120 . S
O74 C67 1.299 . S
O75 Zn63 1.898 . S
O75 C70 1.167 . S
O76 Zn65 2.120 . S
O76 C70 1.299 . S
O77 Zn65 2.114 . S
O77 C79 1.166 . S
O78 Zn63 1.905 . S
O78 C79 1.182 . S
C79 O77 1.166 . S
C79 O78 1.182 . S
O80 Zn65 2.080 . S
O80 C83 1.305 . S
O81 Zn64 1.920 . S
O81 C83 1.234 . S
C82 O68 1.305 . S
C82 O69 1.234 . S
C83 O80 1.305 . S
C83 O81 1.234 . S
Zn84 O90 1.920 . S
Zn84 O96 1.898 . S
Zn84 O99 1.905 . S
Zn85 O93 1.905 1_556 S
Zn85 O94 1.898 . S
Zn85 O102 1.920 . S
Zn86 O89 2.080 . S
Zn86 O92 2.114 1_556 S
Zn86 O95 2.120 . S
Zn86 O97 2.120 . S
Zn86 O98 2.114 . S
Zn86 O101 2.080 . S
C87 O92 1.166 . S
C87 O93 1.182 . S
C88 O94 1.167 . S
C88 O95 1.299 . S
O89 Zn86 2.080 . S
O89 C103 1.305 . S
O90 Zn84 1.920 . S
O90 C103 1.234 . S
C91 O96 1.167 . S
C91 O97 1.299 . S
O92 Zn86 2.114 1_554 S
O92 C87 1.166 . S
O93 Zn85 1.905 1_554 S
O93 C87 1.182 . S
O94 Zn85 1.898 . S
O94 C88 1.167 . S
O95 Zn86 2.120 . S
O95 C88 1.299 . S
O96 Zn84 1.898 . S
O96 C91 1.167 . S
O97 Zn86 2.120 . S
O97 C91 1.299 . S
O98 Zn86 2.114 . S
O98 C100 1.166 . S
O99 Zn84 1.905 . S
O99 C100 1.182 . S
C100 O98 1.166 . S
C100 O99 1.182 . S
O101 Zn86 2.080 . S
O101 C104 1.305 . S
O102 Zn85 1.920 . S
O102 C104 1.234 . S
C103 O89 1.305 . S
C103 O90 1.234 . S
C104 O101 1.305 . S
C104 O102 1.234 . S
Zn105 O111 1.920 . S
Zn105 O117 1.898 . S
Zn105 O120 1.905 . S
Zn106 O114 1.905 1_554 S
Zn106 O115 1.898 . S
Zn106 O123 1.920 . S
Zn107 O110 2.080 . S
Zn107 O113 2.114 1_554 S
Zn107 O116 2.120 . S
Zn107 O118 2.120 . S
Zn107 O119 2.114 . S
Zn107 O122 2.080 . S
C108 O113 1.166 . S
C108 O114 1.182 . S
C109 O115 1.167 . S
C109 O116 1.299 . S
O110 Zn107 2.080 . S
O110 C124 1.305 . S
O111 Zn105 1.920 . S
O111 C124 1.234 . S
C112 O117 1.167 . S
C112 O118 1.299 . S
O113 Zn107 2.114 1_556 S
O113 C108 1.166 . S
O114 Zn106 1.905 1_556 S
O114 C108 1.182 . S
O115 Zn106 1.898 . S
O115 C109 1.167 . S
O116 Zn107 2.120 . S
O116 C109 1.299 . S
O117 Zn105 1.898 . S
O117 C112 1.167 . S
O118 Zn107 2.120 . S
O118 C112 1.299 . S
O119 Zn107 2.114 . S
O119 C121 1.166 . S
O120 Zn105 1.905 . S
O120 C121 1.182 . S
C121 O119 1.166 . S
C121 O120 1.182 . S
O122 Zn107 2.080 . S
O122 C125 1.305 . S
O123 Zn106 1.920 . S
O123 C125 1.234 . S
C124 O110 1.305 . S
C124 O111 1.234 . S
C125 O122 1.305 . S
C125 O123 1.234 . S
Zn126 O132 1.920 . S
Zn126 O138 1.898 . S
Zn126 O141 1.905 . S
Zn127 O135 1.905 . S
Zn127 O136 1.898 . S
Zn127 O144 1.920 . S
Zn128 O131 2.080 . S
Zn128 O134 2.114 . S
Zn128 O137 2.120 . S
Zn128 O139 2.120 . S
Zn128 O140 2.114 . S
Zn128 O143 2.080 . S
C129 O134 1.166 . S
C129 O135 1.182 . S
C130 O136 1.167 . S
C130 O137 1.299 . S
O131 Zn128 2.080 . S
O131 C145 1.305 . S
O132 Zn126 1.920 . S
O132 C145 1.234 . S
C133 O138 1.167 . S
C133 O139 1.299 . S
O134 Zn128 2.114 . S
O134 C129 1.166 . S
O135 Zn127 1.905 . S
O135 C129 1.182 . S
O136 Zn127 1.898 . S
O136 C130 1.167 . S
O137 Zn128 2.120 . S
O137 C130 1.299 . S
O138 Zn126 1.898 . S
O138 C133 1.167 . S
O139 Zn128 2.120 . S
O139 C133 1.299 . S
O140 Zn128 2.114 . S
O140 C142 1.166 . S
O141 Zn126 1.905 . S
O141 C142 1.182 . S
C142 O140 1.166 . S
C142 O141 1.182 . S
O143 Zn128 2.080 . S
O143 C146 1.305 . S
O144 Zn127 1.920 . S
O144 C146 1.234 . S
C145 O131 1.305 . S
C145 O132 1.234 . S
C146 O143 1.305 . S
C146 O144 1.234 . S
Zn147 O153 1.920 . S
Zn147 O159 1.898 . S
Zn147 O162 1.905 . S
Zn148 O156 1.905 . S
Zn148 O157 1.898 . S
Zn148 O165 1.920 . S
Zn149 O152 2.080 . S
Zn149 O155 2.114 . S
Zn149 O158 2.120 . S
Zn149 O160 2.120 . S
Zn149 O161 2.114 . S
Zn149 O164 2.080 . S
C150 O155 1.166 . S
C150 O156 1.182 . S
C151 O157 1.167 . S
C151 O158 1.299 . S
O152 Zn149 2.080 . S
O152 C166 1.305 . S
O153 Zn147 1.920 . S
O153 C166 1.234 . S
C154 O159 1.167 . S
C154 O160 1.299 . S
O155 Zn149 2.114 . S
O155 C150 1.166 . S
O156 Zn148 1.905 . S
O156 C150 1.182 . S
O157 Zn148 1.898 . S
O157 C151 1.167 . S
O158 Zn149 2.120 . S
O158 C151 1.299 . S
O159 Zn147 1.898 . S
O159 C154 1.167 . S
O160 Zn149 2.120 . S
O160 C154 1.299 . S
O161 Zn149 2.114 . S
O161 C163 1.166 . S
O162 Zn147 1.905 . S
O162 C163 1.182 . S
C163 O161 1.166 . S
C163 O162 1.182 . S
O164 Zn149 2.080 . S
O164 C167 1.305 . S
O165 Zn148 1.920 . S
O165 C167 1.234 . S
C166 O152 1.305 . S
C166 O153 1.234 . S
C167 O164 1.305 . S
C167 O165 1.234 . S
Zn168 O174 1.920 . S
Zn168 O180 1.898 . S
Zn168 O183 1.905 . S
Zn169 O177 1.905 1_556 S
Zn169 O178 1.898 . S
Zn169 O186 1.920 . S
Zn170 O173 2.080 . S
Zn170 O176 2.114 1_556 S
Zn170 O179 2.120 . S
Zn170 O181 2.120 . S
Zn170 O182 2.114 . S
Zn170 O185 2.080 . S
C171 O176 1.166 . S
C171 O177 1.182 . S
C172 O178 1.167 . S
C172 O179 1.299 . S
O173 Zn170 2.080 . S
O173 C187 1.305 . S
O174 Zn168 1.920 . S
O174 C187 1.234 . S
C175 O180 1.167 . S
C175 O181 1.299 . S
O176 Zn170 2.114 1_554 S
O176 C171 1.166 . S
O177 Zn169 1.905 1_554 S
O177 C171 1.182 . S
O178 Zn169 1.898 . S
O178 C172 1.167 . S
O179 Zn170 2.120 . S
O179 C172 1.299 . S
O180 Zn168 1.898 . S
O180 C175 1.167 . S
O181 Zn170 2.120 . S
O181 C175 1.299 . S
O182 Zn170 2.114 . S
O182 C184 1.166 . S
O183 Zn168 1.905 . S
O183 C184 1.182 . S
C184 O182 1.166 . S
C184 O183 1.182 . S
O185 Zn170 2.080 . S
O185 C188 1.305 . S
O186 Zn169 1.920 . S
O186 C188 1.234 . S
C187 O173 1.305 . S
C187 O174 1.234 . S
C188 O185 1.305 . S
C188 O186 1.234 . S
Zn189 O195 1.920 . S
Zn189 O201 1.898 . S
Zn189 O204 1.905 . S
Zn190 O198 1.905 . S
Zn190 O199 1.898 . S
Zn190 O207 1.920 . S
Zn191 O194 2.080 . S
Zn191 O197 2.114 . S
Zn191 O200 2.120 . S
Zn191 O202 2.120 . S
Zn191 O203 2.114 . S
Zn191 O206 2.080 . S
C192 O197 1.166 . S
C192 O198 1.182 . S
C193 O199 1.167 . S
C193 O200 1.299 . S
O194 Zn191 2.080 . S
O194 C208 1.305 . S
O195 Zn189 1.920 . S
O195 C208 1.234 . S
C196 O201 1.167 . S
C196 O202 1.299 . S
O197 Zn191 2.114 . S
O197 C192 1.166 . S
O198 Zn190 1.905 . S
O198 C192 1.182 . S
O199 Zn190 1.898 . S
O199 C193 1.167 . S
O200 Zn191 2.120 . S
O200 C193 1.299 . S
O201 Zn189 1.898 . S
O201 C196 1.167 . S
O202 Zn191 2.120 . S
O202 C196 1.299 . S
O203 Zn191 2.114 . S
O203 C205 1.166 . S
O204 Zn189 1.905 . S
O204 C205 1.182 . S
C205 O203 1.166 . S
C205 O204 1.182 . S
O206 Zn191 2.080 . S
O206 C209 1.305 . S
O207 Zn190 1.920 . S
O207 C209 1.234 . S
C208 O194 1.305 . S
C208 O195 1.234 . S
C209 O206 1.305 . S
C209 O207 1.234 . S
Zn210 O216 1.920 . S
Zn210 O222 1.898 . S
Zn210 O225 1.905 . S
Zn211 O219 1.905 . S
Zn211 O220 1.898 . S
Zn211 O228 1.920 . S
Zn212 O215 2.080 . S
Zn212 O218 2.114 . S
Zn212 O221 2.120 . S
Zn212 O223 2.120 . S
Zn212 O224 2.114 . S
Zn212 O227 2.080 . S
C213 O218 1.166 . S
C213 O219 1.182 . S
C214 O220 1.167 . S
C214 O221 1.299 . S
O215 Zn212 2.080 . S
O215 C229 1.305 . S
O216 Zn210 1.920 . S
O216 C229 1.234 . S
C217 O222 1.167 . S
C217 O223 1.299 . S
O218 Zn212 2.114 . S
O218 C213 1.166 . S
O219 Zn211 1.905 . S
O219 C213 1.182 . S
O220 Zn211 1.898 . S
O220 C214 1.167 . S
O221 Zn212 2.120 . S
O221 C214 1.299 . S
O222 Zn210 1.898 . S
O222 C217 1.167 . S
O223 Zn212 2.120 . S
O223 C217 1.299 . S
O224 Zn212 2.114 . S
O224 C226 1.166 . S
O225 Zn210 1.905 . S
O225 C226 1.182 . S
C226 O224 1.166 . S
C226 O225 1.182 . S
O227 Zn212 2.080 . S
O227 C230 1.305 . S
O228 Zn211 1.920 . S
O228 C230 1.234 . S
C229 O215 1.305 . S
C229 O216 1.234 . S
C230 O227 1.305 . S
C230 O228 1.234 . S
Zn231 O237 1.920 . S
Zn231 O243 1.898 . S
Zn231 O246 1.905 1_554 S
Zn232 O240 1.905 . S
Zn232 O241 1.898 . S
Zn232 O249 1.920 . S
Zn233 O236 2.080 . S
Zn233 O239 2.114 . S
Zn233 O242 2.120 . S
Zn233 O244 2.120 . S
Zn233 O245 2.114 1_554 S
Zn233 O248 2.080 . S
C234 O239 1.166 . S
C234 O240 1.182 . S
C235 O241 1.167 . S
C235 O242 1.299 . S
O236 Zn233 2.080 . S
O236 C250 1.305 . S
O237 Zn231 1.920 . S
O237 C250 1.234 . S
C238 O243 1.167 . S
C238 O244 1.299 . S
O239 Zn233 2.114 . S
O239 C234 1.166 . S
O240 Zn232 1.905 . S
O240 C234 1.182 . S
O241 Zn232 1.898 . S
O241 C235 1.167 . S
O242 Zn233 2.120 . S
O242 C235 1.299 . S
O243 Zn231 1.898 . S
O243 C238 1.167 . S
O244 Zn233 2.120 . S
O244 C238 1.299 . S
O245 Zn233 2.114 1_556 S
O245 C247 1.166 . S
O246 Zn231 1.905 1_556 S
O246 C247 1.182 . S
C247 O245 1.166 . S
C247 O246 1.182 . S
O248 Zn233 2.080 . S
O248 C251 1.305 . S
O249 Zn232 1.920 . S
O249 C251 1.234 . S
C250 O236 1.305 . S
C250 O237 1.234 . S
C251 O248 1.305 . S
C251 O249 1.234 . S
Zn252 O258 1.920 . S
Zn252 O264 1.898 . S
Zn252 O267 1.905 1_554 S
Zn253 O261 1.905 . S
Zn253 O262 1.898 . S
Zn253 O270 1.920 . S
Zn254 O257 2.080 . S
Zn254 O260 2.114 . S
Zn254 O263 2.120 . S
Zn254 O265 2.120 . S
Zn254 O266 2.114 1_554 S
Zn254 O269 2.080 . S
C255 O260 1.166 . S
C255 O261 1.182 . S
C256 O262 1.167 . S
C256 O263 1.299 . S
O257 Zn254 2.080 . S
O257 C271 1.305 . S
O258 Zn252 1.920 . S
O258 C271 1.234 . S
C259 O264 1.167 . S
C259 O265 1.299 . S
O260 Zn254 2.114 . S
O260 C255 1.166 . S
O261 Zn253 1.905 . S
O261 C255 1.182 . S
O262 Zn253 1.898 . S
O262 C256 1.167 . S
O263 Zn254 2.120 . S
O263 C256 1.299 . S
O264 Zn252 1.898 . S
O264 C259 1.167 . S
O265 Zn254 2.120 . S
O265 C259 1.299 . S
O266 Zn254 2.114 1_556 S
O266 C268 1.166 . S
O267 Zn252 1.905 1_556 S
O267 C268 1.182 . S
C268 O266 1.166 . S
C268 O267 1.182 . S
O269 Zn254 2.080 . S
O269 C272 1.305 . S
O270 Zn253 1.920 . S
O270 C272 1.234 . S
C271 O257 1.305 . S
C271 O258 1.234 . S
C272 O269 1.305 . S
C272 O270 1.234 . S
Zn273 O279 1.920 . S
Zn273 O285 1.898 . S
Zn273 O288 1.905 . S
Zn274 O282 1.905 . S
Zn274 O283 1.898 . S
Zn274 O291 1.920 1_556 S
Zn275 O278 2.080 . S
Zn275 O281 2.114 . S
Zn275 O284 2.120 . S
Zn275 O286 2.120 . S
Zn275 O287 2.114 . S
Zn275 O290 2.080 1_556 S
C276 O281 1.166 . S
C276 O282 1.182 . S
C277 O283 1.167 . S
C277 O284 1.299 . S
O278 Zn275 2.080 . S
O278 C292 1.305 . S
O279 Zn273 1.920 . S
O279 C292 1.234 . S
C280 O285 1.167 . S
C280 O286 1.299 . S
O281 Zn275 2.114 . S
O281 C276 1.166 . S
O282 Zn274 1.905 . S
O282 C276 1.182 . S
O283 Zn274 1.898 . S
O283 C277 1.167 . S
O284 Zn275 2.120 . S
O284 C277 1.299 . S
O285 Zn273 1.898 . S
O285 C280 1.167 . S
O286 Zn275 2.120 . S
O286 C280 1.299 . S
O287 Zn275 2.114 . S
O287 C289 1.166 . S
O288 Zn273 1.905 . S
O288 C289 1.182 . S
C289 O287 1.166 . S
C289 O288 1.182 . S
O290 Zn275 2.080 1_554 S
O290 C293 1.305 . S
O291 Zn274 1.920 1_554 S
O291 C293 1.234 . S
C292 O278 1.305 . S
C292 O279 1.234 . S
C293 O290 1.305 . S
C293 O291 1.234 . S
Zn294 O300 1.920 . S
Zn294 O306 1.898 . S
Zn294 O309 1.905 . S
Zn295 O303 1.905 . S
Zn295 O304 1.898 . S
Zn295 O312 1.920 . S
Zn296 O299 2.080 . S
Zn296 O302 2.114 . S
Zn296 O305 2.120 . S
Zn296 O307 2.120 . S
Zn296 O308 2.114 . S
Zn296 O311 2.080 . S
C297 O302 1.166 . S
C297 O303 1.182 . S
C298 O304 1.167 . S
C298 O305 1.299 . S
O299 Zn296 2.080 . S
O299 C313 1.305 . S
O300 Zn294 1.920 . S
O300 C313 1.234 . S
C301 O306 1.167 . S
C301 O307 1.299 . S
O302 Zn296 2.114 . S
O302 C297 1.166 . S
O303 Zn295 1.905 . S
O303 C297 1.182 . S
O304 Zn295 1.898 . S
O304 C298 1.167 . S
O305 Zn296 2.120 . S
O305 C298 1.299 . S
O306 Zn294 1.898 . S
O306 C301 1.167 . S
O307 Zn296 2.120 . S
O307 C301 1.299 . S
O308 Zn296 2.114 . S
O308 C310 1.166 . S
O309 Zn294 1.905 . S
O309 C310 1.182 . S
C310 O308 1.166 . S
C310 O309 1.182 . S
O311 Zn296 2.080 . S
O311 C314 1.305 . S
O312 Zn295 1.920 . S
O312 C314 1.234 . S
C313 O299 1.305 . S
C313 O300 1.234 . S
C314 O311 1.305 . S
C314 O312 1.234 . S
Zn315 O321 1.920 . S
Zn315 O327 1.898 . S
Zn315 O330 1.905 . S
Zn316 O324 1.905 . S
Zn316 O325 1.898 . S
Zn316 O333 1.920 . S
Zn317 O320 2.080 . S
Zn317 O323 2.114 . S
Zn317 O326 2.120 . S
Zn317 O328 2.120 . S
Zn317 O329 2.114 . S
Zn317 O332 2.080 . S
C318 O323 1.166 . S
C318 O324 1.182 . S
C319 O325 1.167 . S
C319 O326 1.299 . S
O320 Zn317 2.080 . S
O320 C334 1.305 . S
O321 Zn315 1.920 . S
O321 C334 1.234 . S
C322 O327 1.167 . S
C322 O328 1.299 . S
O323 Zn317 2.114 . S
O323 C318 1.166 . S
O324 Zn316 1.905 . S
O324 C318 1.182 . S
O325 Zn316 1.898 . S
O325 C319 1.167 . S
O326 Zn317 2.120 . S
O326 C319 1.299 . S
O327 Zn315 1.898 . S
O327 C322 1.167 . S
O328 Zn317 2.120 . S
O328 C322 1.299 . S
O329 Zn317 2.114 . S
O329 C331 1.166 . S
O330 Zn315 1.905 . S
O330 C331 1.182 . S
C331 O329 1.166 . S
C331 O330 1.182 . S
O332 Zn317 2.080 . S
O332 C335 1.305 . S
O333 Zn316 1.920 . S
O333 C335 1.234 . S
C334 O320 1.305 . S
C334 O321 1.234 . S
C335 O332 1.305 . S
C335 O333 1.234 . S
H336 C344 0.950 . S
H337 C349 0.950 . S
H338 C346 0.950 . S
H339 C348 0.950 . S
H340 C350 0.950 . S
H341 C352 0.950 . S
H342 C354 0.950 . S
H343 C355 0.950 . S
C344 H336 0.950 . S
C344 C345 1.386 . S
C344 C346 1.391 . S
C345 C344 1.386 . S
C345 C349 1.393 . S
C346 H338 0.950 . S
C346 C344 1.391 . S
C346 C347 1.400 . S
C347 C346 1.400 . S
C347 C348 1.398 . S
C347 C353 1.491 . S
C348 H339 0.950 . S
C348 C347 1.398 . S
C348 C349 1.391 . S
C349 H337 0.950 . S
C349 C345 1.393 . S
C349 C348 1.391 . S
C350 H340 0.950 . S
C350 C351 1.386 . S
C350 C352 1.391 . S
C351 C350 1.386 . S
C351 C355 1.393 . S
C352 H341 0.950 . S
C352 C350 1.391 . S
C352 C353 1.400 . S
C353 C347 1.491 . S
C353 C352 1.400 . S
C353 C354 1.398 . S
C354 H342 0.950 . S
C354 C353 1.398 . S
C354 C355 1.391 . S
C355 H343 0.950 . S
C355 C351 1.393 . S
C355 C354 1.391 . S
H356 C364 0.950 . S
H357 C369 0.950 . S
H358 C366 0.950 . S
H359 C368 0.950 . S
H360 C370 0.950 . S
H361 C372 0.950 . S
H362 C374 0.950 . S
H363 C375 0.950 . S
C364 H356 0.950 . S
C364 C365 1.386 . S
C364 C366 1.391 1_554 S
C365 C364 1.386 . S
C365 C369 1.393 . S
C366 H358 0.950 . S
C366 C364 1.391 1_556 S
C366 C367 1.400 . S
C367 C366 1.400 . S
C367 C368 1.398 . S
C367 C373 1.491 . S
C368 H359 0.950 . S
C368 C367 1.398 . S
C368 C369 1.391 1_556 S
C369 H357 0.950 . S
C369 C365 1.393 . S
C369 C368 1.391 1_554 S
C370 H360 0.950 . S
C370 C371 1.386 . S
C370 C372 1.391 . S
C371 C370 1.386 . S
C371 C375 1.393 . S
C372 H361 0.950 . S
C372 C370 1.391 . S
C372 C373 1.400 . S
C373 C367 1.491 . S
C373 C372 1.400 . S
C373 C374 1.398 . S
C374 H362 0.950 . S
C374 C373 1.398 . S
C374 C375 1.391 . S
C375 H363 0.950 . S
C375 C371 1.393 . S
C375 C374 1.391 . S
H376 C384 0.950 . S
H377 C389 0.950 . S
H378 C386 0.950 . S
H379 C388 0.950 . S
H380 C390 0.950 . S
H381 C392 0.950 . S
H382 C394 0.950 . S
H383 C395 0.950 . S
C384 H376 0.950 . S
C384 C385 1.386 . S
C384 C386 1.391 . S
C385 C384 1.386 . S
C385 C389 1.393 . S
C386 H378 0.950 . S
C386 C384 1.391 . S
C386 C387 1.400 . S
C387 C386 1.400 . S
C387 C388 1.398 . S
C387 C393 1.491 . S
C388 H379 0.950 . S
C388 C387 1.398 . S
C388 C389 1.391 . S
C389 H377 0.950 . S
C389 C385 1.393 . S
C389 C388 1.391 . S
C390 H380 0.950 . S
C390 C391 1.386 . S
C390 C392 1.391 1_556 S
C391 C390 1.386 . S
C391 C395 1.393 . S
C392 H381 0.950 . S
C392 C390 1.391 1_554 S
C392 C393 1.400 . S
C393 C387 1.491 . S
C393 C392 1.400 . S
C393 C394 1.398 . S
C394 H382 0.950 . S
C394 C393 1.398 . S
C394 C395 1.391 1_554 S
C395 H383 0.950 . S
C395 C391 1.393 . S
C395 C394 1.391 1_556 S
H396 C404 0.950 . S
H397 C409 0.950 . S
H398 C406 0.950 . S
H399 C408 0.950 . S
H400 C410 0.950 . S
H401 C412 0.950 . S
H402 C414 0.950 . S
H403 C415 0.950 . S
C404 H396 0.950 . S
C404 C405 1.386 . S
C404 C406 1.391 . S
C405 C404 1.386 . S
C405 C409 1.393 . S
C406 H398 0.950 . S
C406 C404 1.391 . S
C406 C407 1.400 . S
C407 C406 1.400 . S
C407 C408 1.398 . S
C407 C413 1.491 . S
C408 H399 0.950 . S
C408 C407 1.398 . S
C408 C409 1.391 . S
C409 H397 0.950 . S
C409 C405 1.393 . S
C409 C408 1.391 . S
C410 H400 0.950 . S
C410 C411 1.386 . S
C410 C412 1.391 . S
C411 C410 1.386 . S
C411 C415 1.393 . S
C412 H401 0.950 . S
C412 C410 1.391 . S
C412 C413 1.400 . S
C413 C407 1.491 . S
C413 C412 1.400 . S
C413 C414 1.398 . S
C414 H402 0.950 . S
C414 C413 1.398 . S
C414 C415 1.391 . S
C415 H403 0.950 . S
C415 C411 1.393 . S
C415 C414 1.391 . S
H416 C424 0.950 . S
H417 C429 0.950 . S
H418 C426 0.950 . S
H419 C428 0.950 . S
H420 C430 0.950 . S
H421 C432 0.950 . S
H422 C434 0.950 . S
H423 C435 0.950 . S
C424 H416 0.950 . S
C424 C425 1.386 . S
C424 C426 1.391 . S
C425 C424 1.386 . S
C425 C429 1.393 . S
C426 H418 0.950 . S
C426 C424 1.391 . S
C426 C427 1.400 . S
C427 C426 1.400 . S
C427 C428 1.398 . S
C427 C433 1.491 . S
C428 H419 0.950 . S
C428 C427 1.398 . S
C428 C429 1.391 . S
C429 H417 0.950 . S
C429 C425 1.393 . S
C429 C428 1.391 . S
C430 H420 0.950 . S
C430 C431 1.386 . S
C430 C432 1.391 . S
C431 C430 1.386 . S
C431 C435 1.393 . S
C432 H421 0.950 . S
C432 C430 1.391 . S
C432 C433 1.400 . S
C433 C427 1.491 . S
C433 C432 1.400 . S
C433 C434 1.398 . S
C434 H422 0.950 . S
C434 C433 1.398 . S
C434 C435 1.391 . S
C435 H423 0.950 . S
C435 C431 1.393 . S
C435 C434 1.391 . S
H436 C444 0.950 . S
H437 C449 0.950 . S
H438 C446 0.950 . S
H439 C448 0.950 . S
H440 C450 0.950 . S
H441 C452 0.950 . S
H442 C454 0.950 . S
H443 C455 0.950 . S
C444 H436 0.950 . S
C444 C445 1.386 . S
C444 C446 1.391 . S
C445 C444 1.386 . S
C445 C449 1.393 . S
C446 H438 0.950 . S
C446 C444 1.391 . S
C446 C447 1.400 . S
C447 C446 1.400 . S
C447 C448 1.398 . S
C447 C453 1.491 . S
C448 H439 0.950 . S
C448 C447 1.398 . S
C448 C449 1.391 . S
C449 H437 0.950 . S
C449 C445 1.393 . S
C449 C448 1.391 . S
C450 H440 0.950 . S
C450 C451 1.386 . S
C450 C452 1.391 . S
C451 C450 1.386 . S
C451 C455 1.393 . S
C452 H441 0.950 . S
C452 C450 1.391 . S
C452 C453 1.400 . S
C453 C447 1.491 . S
C453 C452 1.400 . S
C453 C454 1.398 . S
C454 H442 0.950 . S
C454 C453 1.398 . S
C454 C455 1.391 . S
C455 H443 0.950 . S
C455 C451 1.393 . S
C455 C454 1.391 . S
H456 C464 0.950 . S
H457 C469 0.950 . S
H458 C466 0.950 . S
H459 C468 0.950 . S
H460 C470 0.950 . S
H461 C472 0.950 . S
H462 C474 0.950 . S
H463 C475 0.950 . S
C464 H456 0.950 . S
C464 C465 1.386 . S
C464 C466 1.391 . S
C465 C464 1.386 . S
C465 C469 1.393 . S
C466 H458 0.950 . S
C466 C464 1.391 . S
C466 C467 1.400 . S
C467 C466 1.400 . S
C467 C468 1.398 . S
C467 C473 1.491 . S
C468 H459 0.950 . S
C468 C467 1.398 . S
C468 C469 1.391 . S
C469 H457 0.950 . S
C469 C465 1.393 . S
C469 C468 1.391 . S
C470 H460 0.950 . S
C470 C471 1.386 . S
C470 C472 1.391 1_554 S
C471 C470 1.386 . S
C471 C475 1.393 . S
C472 H461 0.950 . S
C472 C470 1.391 1_556 S
C472 C473 1.400 . S
C473 C467 1.491 . S
C473 C472 1.400 . S
C473 C474 1.398 . S
C474 H462 0.950 . S
C474 C473 1.398 . S
C474 C475 1.391 1_556 S
C475 H463 0.950 . S
C475 C471 1.393 . S
C475 C474 1.391 1_554 S
H476 C484 0.950 . S
H477 C489 0.950 . S
H478 C486 0.950 . S
H479 C488 0.950 . S
H480 C490 0.950 . S
H481 C492 0.950 . S
H482 C494 0.950 . S
H483 C495 0.950 . S
C484 H476 0.950 . S
C484 C485 1.386 . S
C484 C486 1.391 1_556 S
C485 C484 1.386 . S
C485 C489 1.393 . S
C486 H478 0.950 . S
C486 C484 1.391 1_554 S
C486 C487 1.400 . S
C487 C486 1.400 . S
C487 C488 1.398 . S
C487 C493 1.491 . S
C488 H479 0.950 . S
C488 C487 1.398 . S
C488 C489 1.391 1_554 S
C489 H477 0.950 . S
C489 C485 1.393 . S
C489 C488 1.391 1_556 S
C490 H480 0.950 . S
C490 C491 1.386 . S
C490 C492 1.391 . S
C491 C490 1.386 . S
C491 C495 1.393 . S
C492 H481 0.950 . S
C492 C490 1.391 . S
C492 C493 1.400 . S
C493 C487 1.491 . S
C493 C492 1.400 . S
C493 C494 1.398 . S
C494 H482 0.950 . S
C494 C493 1.398 . S
C494 C495 1.391 . S
C495 H483 0.950 . S
C495 C491 1.393 . S
C495 C494 1.391 . S
H496 C504 0.950 . S
H497 C509 0.950 . S
H498 C506 0.950 . S
H499 C508 0.950 . S
H500 C510 0.950 . S
H501 C512 0.950 . S
H502 C514 0.950 . S
H503 C515 0.950 . S
C504 H496 0.950 . S
C504 C505 1.386 . S
C504 C506 1.391 . S
C505 C504 1.386 . S
C505 C509 1.393 . S
C506 H498 0.950 . S
C506 C504 1.391 . S
C506 C507 1.400 . S
C507 C506 1.400 . S
C507 C508 1.398 . S
C507 C513 1.491 . S
C508 H499 0.950 . S
C508 C507 1.398 . S
C508 C509 1.391 . S
C509 H497 0.950 . S
C509 C505 1.393 . S
C509 C508 1.391 . S
C510 H500 0.950 . S
C510 C511 1.386 . S
C510 C512 1.391 . S
C511 C510 1.386 . S
C511 C515 1.393 . S
C512 H501 0.950 . S
C512 C510 1.391 . S
C512 C513 1.400 . S
C513 C507 1.491 . S
C513 C512 1.400 . S
C513 C514 1.398 . S
C514 H502 0.950 . S
C514 C513 1.398 . S
C514 C515 1.391 . S
C515 H503 0.950 . S
C515 C511 1.393 . S
C515 C514 1.391 . S
H516 C524 0.950 . S
H517 C529 0.950 . S
H518 C526 0.950 . S
H519 C528 0.950 . S
H520 C530 0.950 . S
H521 C532 0.950 . S
H522 C534 0.950 . S
H523 C535 0.950 . S
C524 H516 0.950 . S
C524 C525 1.386 . S
C524 C526 1.391 . S
C525 C524 1.386 . S
C525 C529 1.393 . S
C526 H518 0.950 . S
C526 C524 1.391 . S
C526 C527 1.400 . S
C527 C526 1.400 . S
C527 C528 1.398 . S
C527 C533 1.491 . S
C528 H519 0.950 . S
C528 C527 1.398 . S
C528 C529 1.391 . S
C529 H517 0.950 . S
C529 C525 1.393 . S
C529 C528 1.391 . S
C530 H520 0.950 . S
C530 C531 1.386 . S
C530 C532 1.391 1_556 S
C531 C530 1.386 . S
C531 C535 1.393 . S
C532 H521 0.950 . S
C532 C530 1.391 1_554 S
C532 C533 1.400 . S
C533 C527 1.491 . S
C533 C532 1.400 . S
C533 C534 1.398 . S
C534 H522 0.950 . S
C534 C533 1.398 . S
C534 C535 1.391 1_554 S
C535 H523 0.950 . S
C535 C531 1.393 . S
C535 C534 1.391 1_556 S
H536 C544 0.950 . S
H537 C549 0.950 . S
H538 C546 0.950 . S
H539 C548 0.950 . S
H540 C550 0.950 . S
H541 C552 0.950 . S
H542 C554 0.950 . S
H543 C555 0.950 . S
C544 H536 0.950 . S
C544 C545 1.386 . S
C544 C546 1.391 1_554 S
C545 C544 1.386 . S
C545 C549 1.393 . S
C546 H538 0.950 . S
C546 C544 1.391 1_556 S
C546 C547 1.400 . S
C547 C546 1.400 . S
C547 C548 1.398 . S
C547 C553 1.491 . S
C548 H539 0.950 . S
C548 C547 1.398 . S
C548 C549 1.391 1_556 S
C549 H537 0.950 . S
C549 C545 1.393 . S
C549 C548 1.391 1_554 S
C550 H540 0.950 . S
C550 C551 1.386 . S
C550 C552 1.391 . S
C551 C550 1.386 . S
C551 C555 1.393 . S
C552 H541 0.950 . S
C552 C550 1.391 . S
C552 C553 1.400 . S
C553 C547 1.491 . S
C553 C552 1.400 . S
C553 C554 1.398 . S
C554 H542 0.950 . S
C554 C553 1.398 . S
C554 C555 1.391 . S
C555 H543 0.950 . S
C555 C551 1.393 . S
C555 C554 1.391 . S
H556 C564 0.950 . S
H557 C569 0.950 . S
H558 C566 0.950 . S
H559 C568 0.950 . S
H560 C570 0.950 . S
H561 C572 0.950 . S
H562 C574 0.950 . S
H563 C575 0.950 . S
C564 H556 0.950 . S
C564 C565 1.386 . S
C564 C566 1.391 . S
C565 C564 1.386 . S
C565 C569 1.393 . S
C566 H558 0.950 . S
C566 C564 1.391 . S
C566 C567 1.400 . S
C567 C566 1.400 . S
C567 C568 1.398 . S
C567 C573 1.491 . S
C568 H559 0.950 . S
C568 C567 1.398 . S
C568 C569 1.391 . S
C569 H557 0.950 . S
C569 C565 1.393 . S
C569 C568 1.391 . S
C570 H560 0.950 . S
C570 C571 1.386 . S
C570 C572 1.391 . S
C571 C570 1.386 . S
C571 C575 1.393 . S
C572 H561 0.950 . S
C572 C570 1.391 . S
C572 C573 1.400 . S
C573 C567 1.491 . S
C573 C572 1.400 . S
C573 C574 1.398 . S
C574 H562 0.950 . S
C574 C573 1.398 . S
C574 C575 1.391 . S
C575 H563 0.950 . S
C575 C571 1.393 . S
C575 C574 1.391 . S
H576 C584 0.950 . S
H577 C589 0.950 . S
H578 C586 0.950 . S
H579 C588 0.950 . S
H580 C590 0.950 . S
H581 C592 0.950 . S
H582 C594 0.950 . S
H583 C595 0.950 . S
C584 H576 0.950 . S
C584 C585 1.386 . S
C584 C586 1.391 . S
C585 C584 1.386 . S
C585 C589 1.393 . S
C586 H578 0.950 . S
C586 C584 1.391 . S
C586 C587 1.400 . S
C587 C586 1.400 . S
C587 C588 1.398 . S
C587 C593 1.491 . S
C588 H579 0.950 . S
C588 C587 1.398 . S
C588 C589 1.391 . S
C589 H577 0.950 . S
C589 C585 1.393 . S
C589 C588 1.391 . S
C590 H580 0.950 . S
C590 C591 1.386 . S
C590 C592 1.391 . S
C591 C590 1.386 . S
C591 C595 1.393 . S
C592 H581 0.950 . S
C592 C590 1.391 . S
C592 C593 1.400 . S
C593 C587 1.491 . S
C593 C592 1.400 . S
C593 C594 1.398 . S
C594 H582 0.950 . S
C594 C593 1.398 . S
C594 C595 1.391 . S
C595 H583 0.950 . S
C595 C591 1.393 . S
C595 C594 1.391 . S
H596 C604 0.950 . S
H597 C609 0.950 . S
H598 C606 0.950 . S
H599 C608 0.950 . S
H600 C610 0.950 . S
H601 C612 0.950 . S
H602 C614 0.950 . S
H603 C615 0.950 . S
C604 H596 0.950 . S
C604 C605 1.386 . S
C604 C606 1.391 . S
C605 C604 1.386 . S
C605 C609 1.393 . S
C606 H598 0.950 . S
C606 C604 1.391 . S
C606 C607 1.400 . S
C607 C606 1.400 . S
C607 C608 1.398 . S
C607 C613 1.491 . S
C608 H599 0.950 . S
C608 C607 1.398 . S
C608 C609 1.391 . S
C609 H597 0.950 . S
C609 C605 1.393 . S
C609 C608 1.391 . S
C610 H600 0.950 . S
C610 C611 1.386 . S
C610 C612 1.391 . S
C611 C610 1.386 . S
C611 C615 1.393 . S
C612 H601 0.950 . S
C612 C610 1.391 . S
C612 C613 1.400 . S
C613 C607 1.491 . S
C613 C612 1.400 . S
C613 C614 1.398 . S
C614 H602 0.950 . S
C614 C613 1.398 . S
C614 C615 1.391 . S
C615 H603 0.950 . S
C615 C611 1.393 . S
C615 C614 1.391 . S
H616 C624 0.950 . S
H617 C629 0.950 . S
H618 C626 0.950 . S
H619 C628 0.950 . S
H620 C630 0.950 . S
H621 C632 0.950 . S
H622 C634 0.950 . S
H623 C635 0.950 . S
C624 H616 0.950 . S
C624 C625 1.386 . S
C624 C626 1.391 . S
C625 C624 1.386 . S
C625 C629 1.393 . S
C626 H618 0.950 . S
C626 C624 1.391 . S
C626 C627 1.400 . S
C627 C626 1.400 . S
C627 C628 1.398 . S
C627 C633 1.491 . S
C628 H619 0.950 . S
C628 C627 1.398 . S
C628 C629 1.391 . S
C629 H617 0.950 . S
C629 C625 1.393 . S
C629 C628 1.391 . S
C630 H620 0.950 . S
C630 C631 1.386 . S
C630 C632 1.391 1_556 S
C631 C630 1.386 . S
C631 C635 1.393 . S
C632 H621 0.950 . S
C632 C630 1.391 1_554 S
C632 C633 1.400 . S
C633 C627 1.491 . S
C633 C632 1.400 . S
C633 C634 1.398 . S
C634 H622 0.950 . S
C634 C633 1.398 . S
C634 C635 1.391 1_554 S
C635 H623 0.950 . S
C635 C631 1.393 . S
C635 C634 1.391 1_556 S
H636 C644 0.950 . S
H637 C649 0.950 . S
H638 C646 0.950 . S
H639 C648 0.950 . S
H640 C650 0.950 . S
H641 C652 0.950 . S
H642 C654 0.950 . S
H643 C655 0.950 . S
C644 H636 0.950 . S
C644 C645 1.386 . S
C644 C646 1.391 1_554 S
C645 C644 1.386 . S
C645 C649 1.393 . S
C646 H638 0.950 . S
C646 C644 1.391 1_556 S
C646 C647 1.400 . S
C647 C646 1.400 . S
C647 C648 1.398 . S
C647 C653 1.491 . S
C648 H639 0.950 . S
C648 C647 1.398 . S
C648 C649 1.391 1_556 S
C649 H637 0.950 . S
C649 C645 1.393 . S
C649 C648 1.391 1_554 S
C650 H640 0.950 . S
C650 C651 1.386 . S
C650 C652 1.391 . S
C651 C650 1.386 . S
C651 C655 1.393 . S
C652 H641 0.950 . S
C652 C650 1.391 . S
C652 C653 1.400 . S
C653 C647 1.491 . S
C653 C652 1.400 . S
C653 C654 1.398 . S
C654 H642 0.950 . S
C654 C653 1.398 . S
C654 C655 1.391 . S
C655 H643 0.950 . S
C655 C651 1.393 . S
C655 C654 1.391 . S
H656 C664 0.950 . S
H657 C669 0.950 . S
H658 C666 0.950 . S
H659 C668 0.950 . S
H660 C670 0.950 . S
H661 C672 0.950 . S
H662 C674 0.950 . S
H663 C675 0.950 . S
C664 H656 0.950 . S
C664 C665 1.386 . S
C664 C666 1.391 . S
C665 C664 1.386 . S
C665 C669 1.393 . S
C666 H658 0.950 . S
C666 C664 1.391 . S
C666 C667 1.400 . S
C667 C666 1.400 . S
C667 C668 1.398 . S
C667 C673 1.491 . S
C668 H659 0.950 . S
C668 C667 1.398 . S
C668 C669 1.391 . S
C669 H657 0.950 . S
C669 C665 1.393 . S
C669 C668 1.391 . S
C670 H660 0.950 . S
C670 C671 1.386 . S
C670 C672 1.391 . S
C671 C670 1.386 . S
C671 C675 1.393 . S
C672 H661 0.950 . S
C672 C670 1.391 . S
C672 C673 1.400 . S
C673 C667 1.491 . S
C673 C672 1.400 . S
C673 C674 1.398 . S
C674 H662 0.950 . S
C674 C673 1.398 . S
C674 C675 1.391 . S
C675 H663 0.950 . S
C675 C671 1.393 . S
C675 C674 1.391 . S
H676 C684 0.950 . S
H677 C689 0.950 . S
H678 C686 0.950 . S
H679 C688 0.950 . S
H680 C690 0.950 . S
H681 C692 0.950 . S
H682 C694 0.950 . S
H683 C695 0.950 . S
C684 H676 0.950 . S
C684 C685 1.386 . S
C684 C686 1.391 . S
C685 C684 1.386 . S
C685 C689 1.393 . S
C686 H678 0.950 . S
C686 C684 1.391 . S
C686 C687 1.400 . S
C687 C686 1.400 . S
C687 C688 1.398 . S
C687 C693 1.491 . S
C688 H679 0.950 . S
C688 C687 1.398 . S
C688 C689 1.391 . S
C689 H677 0.950 . S
C689 C685 1.393 . S
C689 C688 1.391 . S
C690 H680 0.950 . S
C690 C691 1.386 . S
C690 C692 1.391 . S
C691 C690 1.386 . S
C691 C695 1.393 . S
C692 H681 0.950 . S
C692 C690 1.391 . S
C692 C693 1.400 . S
C693 C687 1.491 . S
C693 C692 1.400 . S
C693 C694 1.398 . S
C694 H682 0.950 . S
C694 C693 1.398 . S
C694 C695 1.391 . S
C695 H683 0.950 . S
C695 C691 1.393 . S
C695 C694 1.391 . S
H696 C704 0.950 . S
H697 C709 0.950 . S
H698 C706 0.950 . S
H699 C708 0.950 . S
H700 C710 0.950 . S
H701 C712 0.950 . S
H702 C714 0.950 . S
H703 C715 0.950 . S
C704 H696 0.950 . S
C704 C705 1.386 . S
C704 C706 1.391 . S
C705 C704 1.386 . S
C705 C709 1.393 . S
C706 H698 0.950 . S
C706 C704 1.391 . S
C706 C707 1.400 . S
C707 C706 1.400 . S
C707 C708 1.398 . S
C707 C713 1.491 . S
C708 H699 0.950 . S
C708 C707 1.398 . S
C708 C709 1.391 . S
C709 H697 0.950 . S
C709 C705 1.393 . S
C709 C708 1.391 . S
C710 H700 0.950 . S
C710 C711 1.386 . S
C710 C712 1.391 . S
C711 C710 1.386 . S
C711 C715 1.393 . S
C712 H701 0.950 . S
C712 C710 1.391 . S
C712 C713 1.400 . S
C713 C707 1.491 . S
C713 C712 1.400 . S
C713 C714 1.398 . S
C714 H702 0.950 . S
C714 C713 1.398 . S
C714 C715 1.391 . S
C715 H703 0.950 . S
C715 C711 1.393 . S
C715 C714 1.391 . S
H716 C724 0.950 . S
H717 C729 0.950 . S
H718 C726 0.950 . S
H719 C728 0.950 . S
H720 C730 0.950 . S
H721 C732 0.950 . S
H722 C734 0.950 . S
H723 C735 0.950 . S
C724 H716 0.950 . S
C724 C725 1.386 . S
C724 C726 1.391 . S
C725 C724 1.386 . S
C725 C729 1.393 . S
C726 H718 0.950 . S
C726 C724 1.391 . S
C726 C727 1.400 . S
C727 C726 1.400 . S
C727 C728 1.398 . S
C727 C733 1.491 1_655 S
C728 H719 0.950 . S
C728 C727 1.398 . S
C728 C729 1.391 . S
C729 H717 0.950 . S
C729 C725 1.393 . S
C729 C728 1.391 . S
C730 H720 0.950 . S
C730 C731 1.386 . S
C730 C732 1.391 . S
C731 C730 1.386 . S
C731 C735 1.393 . S
C732 H721 0.950 . S
C732 C730 1.391 . S
C732 C733 1.400 . S
C733 C727 1.491 1_455 S
C733 C732 1.400 . S
C733 C734 1.398 . S
C734 H722 0.950 . S
C734 C733 1.398 . S
C734 C735 1.391 . S
C735 H723 0.950 . S
C735 C731 1.393 . S
C735 C734 1.391 . S
H736 C744 0.950 . S
H737 C749 0.950 1_554 S
H738 C746 0.950 . S
H739 C748 0.950 1_554 S
H740 C750 0.950 1_554 S
H741 C752 0.950 1_554 S
H742 C754 0.950 . S
H743 C755 0.950 . S
C744 H736 0.950 . S
C744 C745 1.386 . S
C744 C746 1.391 . S
C745 C744 1.386 . S
C745 C749 1.393 . S
C746 H738 0.950 . S
C746 C744 1.391 . S
C746 C747 1.400 . S
C747 C746 1.400 . S
C747 C748 1.398 . S
C747 C753 1.491 . S
C748 H739 0.950 1_556 S
C748 C747 1.398 . S
C748 C749 1.391 . S
C749 H737 0.950 1_556 S
C749 C745 1.393 . S
C749 C748 1.391 . S
C750 H740 0.950 1_556 S
C750 C751 1.386 . S
C750 C752 1.391 . S
C751 C750 1.386 . S
C751 C755 1.393 . S
C752 H741 0.950 1_556 S
C752 C750 1.391 . S
C752 C753 1.400 . S
C753 C747 1.491 . S
C753 C752 1.400 . S
C753 C754 1.398 . S
C754 H742 0.950 . S
C754 C753 1.398 . S
C754 C755 1.391 . S
C755 H743 0.950 . S
C755 C751 1.393 . S
C755 C754 1.391 . S
H756 C764 0.950 . S
H757 C769 0.950 . S
H758 C766 0.950 . S
H759 C768 0.950 . S
H760 C770 0.950 . S
H761 C772 0.950 . S
H762 C774 0.950 . S
H763 C775 0.950 . S
C764 H756 0.950 . S
C764 C765 1.386 . S
C764 C766 1.391 . S
C765 C764 1.386 . S
C765 C769 1.393 . S
C766 H758 0.950 . S
C766 C764 1.391 . S
C766 C767 1.400 . S
C767 C766 1.400 . S
C767 C768 1.398 . S
C767 C773 1.491 1_455 S
C768 H759 0.950 . S
C768 C767 1.398 . S
C768 C769 1.391 . S
C769 H757 0.950 . S
C769 C765 1.393 . S
C769 C768 1.391 . S
C770 H760 0.950 . S
C770 C771 1.386 . S
C770 C772 1.391 . S
C771 C770 1.386 . S
C771 C775 1.393 . S
C772 H761 0.950 . S
C772 C770 1.391 . S
C772 C773 1.400 . S
C773 C767 1.491 1_655 S
C773 C772 1.400 . S
C773 C774 1.398 . S
C774 H762 0.950 . S
C774 C773 1.398 . S
C774 C775 1.391 . S
C775 H763 0.950 . S
C775 C771 1.393 . S
C775 C774 1.391 . S
H776 C784 0.950 . S
H777 C789 0.950 . S
H778 C786 0.950 . S
H779 C788 0.950 . S
H780 C790 0.950 . S
H781 C792 0.950 . S
H782 C794 0.950 . S
H783 C795 0.950 . S
C784 H776 0.950 . S
C784 C785 1.386 . S
C784 C786 1.391 . S
C785 C784 1.386 . S
C785 C789 1.393 . S
C786 H778 0.950 . S
C786 C784 1.391 . S
C786 C787 1.400 . S
C787 C786 1.400 . S
C787 C788 1.398 . S
C787 C793 1.491 . S
C788 H779 0.950 . S
C788 C787 1.398 . S
C788 C789 1.391 . S
C789 H777 0.950 . S
C789 C785 1.393 . S
C789 C788 1.391 . S
C790 H780 0.950 . S
C790 C791 1.386 . S
C790 C792 1.391 . S
C791 C790 1.386 . S
C791 C795 1.393 . S
C792 H781 0.950 . S
C792 C790 1.391 . S
C792 C793 1.400 . S
C793 C787 1.491 . S
C793 C792 1.400 . S
C793 C794 1.398 . S
C794 H782 0.950 . S
C794 C793 1.398 . S
C794 C795 1.391 . S
C795 H783 0.950 . S
C795 C791 1.393 . S
C795 C794 1.391 . S
H796 C804 0.950 . S
H797 C809 0.950 . S
H798 C806 0.950 . S
H799 C808 0.950 . S
H800 C810 0.950 . S
H801 C812 0.950 . S
H802 C814 0.950 . S
H803 C815 0.950 . S
C804 H796 0.950 . S
C804 C805 1.386 . S
C804 C806 1.391 . S
C805 C804 1.386 . S
C805 C809 1.393 . S
C806 H798 0.950 . S
C806 C804 1.391 . S
C806 C807 1.400 . S
C807 C806 1.400 . S
C807 C808 1.398 . S
C807 C813 1.491 . S
C808 H799 0.950 . S
C808 C807 1.398 . S
C808 C809 1.391 . S
C809 H797 0.950 . S
C809 C805 1.393 . S
C809 C808 1.391 . S
C810 H800 0.950 . S
C810 C811 1.386 . S
C810 C812 1.391 . S
C811 C810 1.386 . S
C811 C815 1.393 . S
C812 H801 0.950 . S
C812 C810 1.391 . S
C812 C813 1.400 . S
C813 C807 1.491 . S
C813 C812 1.400 . S
C813 C814 1.398 . S
C814 H802 0.950 . S
C814 C813 1.398 . S
C814 C815 1.391 . S
C815 H803 0.950 . S
C815 C811 1.393 . S
C815 C814 1.391 . S
H816 C824 0.950 . S
H817 C829 0.950 1_554 S
H818 C826 0.950 . S
H819 C828 0.950 1_554 S
H820 C830 0.950 . S
H821 C832 0.950 . S
H822 C834 0.950 . S
H823 C835 0.950 . S
C824 H816 0.950 . S
C824 C825 1.386 . S
C824 C826 1.391 . S
C825 C824 1.386 . S
C825 C829 1.393 . S
C826 H818 0.950 . S
C826 C824 1.391 . S
C826 C827 1.400 . S
C827 C826 1.400 . S
C827 C828 1.398 . S
C827 C833 1.491 . S
C828 H819 0.950 1_556 S
C828 C827 1.398 . S
C828 C829 1.391 . S
C829 H817 0.950 1_556 S
C829 C825 1.393 . S
C829 C828 1.391 . S
C830 H820 0.950 . S
C830 C831 1.386 . S
C830 C832 1.391 . S
C831 C830 1.386 . S
C831 C835 1.393 . S
C832 H821 0.950 . S
C832 C830 1.391 . S
C832 C833 1.400 . S
C833 C827 1.491 . S
C833 C832 1.400 . S
C833 C834 1.398 . S
C834 H822 0.950 . S
C834 C833 1.398 . S
C834 C835 1.391 . S
C835 H823 0.950 . S
C835 C831 1.393 . S
C835 C834 1.391 . S
H836 C844 0.950 . S
H837 C849 0.950 . S
H838 C846 0.950 . S
H839 C848 0.950 . S
H840 C850 0.950 . S
H841 C852 0.950 . S
H842 C854 0.950 . S
H843 C855 0.950 . S
C844 H836 0.950 . S
C844 C845 1.386 . S
C844 C846 1.391 . S
C845 C844 1.386 . S
C845 C849 1.393 . S
C846 H838 0.950 . S
C846 C844 1.391 . S
C846 C847 1.400 . S
C847 C846 1.400 . S
C847 C848 1.398 . S
C847 C853 1.491 . S
C848 H839 0.950 . S
C848 C847 1.398 . S
C848 C849 1.391 . S
C849 H837 0.950 . S
C849 C845 1.393 . S
C849 C848 1.391 . S
C850 H840 0.950 . S
C850 C851 1.386 . S
C850 C852 1.391 . S
C851 C850 1.386 . S
C851 C855 1.393 . S
C852 H841 0.950 . S
C852 C850 1.391 . S
C852 C853 1.400 . S
C853 C847 1.491 . S
C853 C852 1.400 . S
C853 C854 1.398 . S
C854 H842 0.950 . S
C854 C853 1.398 . S
C854 C855 1.391 . S
C855 H843 0.950 . S
C855 C851 1.393 . S
C855 C854 1.391 . S
H856 C864 0.950 . S
H857 C869 0.950 . S
H858 C866 0.950 . S
H859 C868 0.950 . S
H860 C870 0.950 . S
H861 C872 0.950 . S
H862 C874 0.950 . S
H863 C875 0.950 . S
C864 H856 0.950 . S
C864 C865 1.386 . S
C864 C866 1.391 . S
C865 C864 1.386 . S
C865 C869 1.393 . S
C866 H858 0.950 . S
C866 C864 1.391 . S
C866 C867 1.400 . S
C867 C866 1.400 . S
C867 C868 1.398 . S
C867 C873 1.491 . S
C868 H859 0.950 . S
C868 C867 1.398 . S
C868 C869 1.391 . S
C869 H857 0.950 . S
C869 C865 1.393 . S
C869 C868 1.391 . S
C870 H860 0.950 . S
C870 C871 1.386 . S
C870 C872 1.391 . S
C871 C870 1.386 . S
C871 C875 1.393 . S
C872 H861 0.950 . S
C872 C870 1.391 . S
C872 C873 1.400 . S
C873 C867 1.491 . S
C873 C872 1.400 . S
C873 C874 1.398 . S
C874 H862 0.950 . S
C874 C873 1.398 . S
C874 C875 1.391 . S
C875 H863 0.950 . S
C875 C871 1.393 . S
C875 C874 1.391 . S
H876 C884 0.950 . S
H877 C889 0.950 . S
H878 C886 0.950 . S
H879 C888 0.950 . S
H880 C890 0.950 . S
H881 C892 0.950 . S
H882 C894 0.950 . S
H883 C895 0.950 . S
C884 H876 0.950 . S
C884 C885 1.386 . S
C884 C886 1.391 . S
C885 C884 1.386 . S
C885 C889 1.393 . S
C886 H878 0.950 . S
C886 C884 1.391 . S
C886 C887 1.400 . S
C887 C886 1.400 . S
C887 C888 1.398 . S
C887 C893 1.491 . S
C888 H879 0.950 . S
C888 C887 1.398 . S
C888 C889 1.391 . S
C889 H877 0.950 . S
C889 C885 1.393 . S
C889 C888 1.391 . S
C890 H880 0.950 . S
C890 C891 1.386 . S
C890 C892 1.391 . S
C891 C890 1.386 . S
C891 C895 1.393 . S
C892 H881 0.950 . S
C892 C890 1.391 . S
C892 C893 1.400 . S
C893 C887 1.491 . S
C893 C892 1.400 . S
C893 C894 1.398 . S
C894 H882 0.950 . S
C894 C893 1.398 . S
C894 C895 1.391 . S
C895 H883 0.950 . S
C895 C891 1.393 . S
C895 C894 1.391 . S
H896 C904 0.950 . S
H897 C909 0.950 . S
H898 C906 0.950 . S
H899 C908 0.950 . S
H900 C910 0.950 . S
H901 C912 0.950 . S
H902 C914 0.950 . S
H903 C915 0.950 . S
C904 H896 0.950 . S
C904 C905 1.386 . S
C904 C906 1.391 . S
C905 C904 1.386 . S
C905 C909 1.393 . S
C906 H898 0.950 . S
C906 C904 1.391 . S
C906 C907 1.400 . S
C907 C906 1.400 . S
C907 C908 1.398 . S
C907 C913 1.491 1_655 S
C908 H899 0.950 . S
C908 C907 1.398 . S
C908 C909 1.391 . S
C909 H897 0.950 . S
C909 C905 1.393 . S
C909 C908 1.391 . S
C910 H900 0.950 . S
C910 C911 1.386 . S
C910 C912 1.391 . S
C911 C910 1.386 . S
C911 C915 1.393 . S
C912 H901 0.950 . S
C912 C910 1.391 . S
C912 C913 1.400 . S
C913 C907 1.491 1_455 S
C913 C912 1.400 . S
C913 C914 1.398 . S
C914 H902 0.950 . S
C914 C913 1.398 . S
C914 C915 1.391 . S
C915 H903 0.950 . S
C915 C911 1.393 . S
C915 C914 1.391 . S
H916 C924 0.950 . S
H917 C929 0.950 . S
H918 C926 0.950 . S
H919 C928 0.950 . S
H920 C930 0.950 . S
H921 C932 0.950 . S
H922 C934 0.950 . S
H923 C935 0.950 . S
C924 H916 0.950 . S
C924 C925 1.386 . S
C924 C926 1.391 . S
C925 C924 1.386 . S
C925 C929 1.393 . S
C926 H918 0.950 . S
C926 C924 1.391 . S
C926 C927 1.400 . S
C927 C926 1.400 . S
C927 C928 1.398 . S
C927 C933 1.491 . S
C928 H919 0.950 . S
C928 C927 1.398 . S
C928 C929 1.391 . S
C929 H917 0.950 . S
C929 C925 1.393 . S
C929 C928 1.391 . S
C930 H920 0.950 . S
C930 C931 1.386 . S
C930 C932 1.391 . S
C931 C930 1.386 . S
C931 C935 1.393 . S
C932 H921 0.950 . S
C932 C930 1.391 . S
C932 C933 1.400 . S
C933 C927 1.491 . S
C933 C932 1.400 . S
C933 C934 1.398 . S
C934 H922 0.950 . S
C934 C933 1.398 . S
C934 C935 1.391 . S
C935 H923 0.950 . S
C935 C931 1.393 . S
C935 C934 1.391 . S
H936 C944 0.950 . S
H937 C949 0.950 . S
H938 C946 0.950 . S
H939 C948 0.950 . S
H940 C950 0.950 . S
H941 C952 0.950 . S
H942 C954 0.950 . S
H943 C955 0.950 . S
C944 H936 0.950 . S
C944 C945 1.386 . S
C944 C946 1.391 . S
C945 C944 1.386 . S
C945 C949 1.393 . S
C946 H938 0.950 . S
C946 C944 1.391 . S
C946 C947 1.400 . S
C947 C946 1.400 . S
C947 C948 1.398 . S
C947 C953 1.491 . S
C948 H939 0.950 . S
C948 C947 1.398 . S
C948 C949 1.391 . S
C949 H937 0.950 . S
C949 C945 1.393 . S
C949 C948 1.391 . S
C950 H940 0.950 . S
C950 C951 1.386 . S
C950 C952 1.391 . S
C951 C950 1.386 . S
C951 C955 1.393 . S
C952 H941 0.950 . S
C952 C950 1.391 . S
C952 C953 1.400 . S
C953 C947 1.491 . S
C953 C952 1.400 . S
C953 C954 1.398 . S
C954 H942 0.950 . S
C954 C953 1.398 . S
C954 C955 1.391 . S
C955 H943 0.950 . S
C955 C951 1.393 . S
C955 C954 1.391 . S
H956 C964 0.950 . S
H957 C969 0.950 . S
H958 C966 0.950 . S
H959 C968 0.950 . S
H960 C970 0.950 . S
H961 C972 0.950 . S
H962 C974 0.950 . S
H963 C975 0.950 . S
C964 H956 0.950 . S
C964 C965 1.386 . S
C964 C966 1.391 . S
C965 C964 1.386 . S
C965 C969 1.393 . S
C966 H958 0.950 . S
C966 C964 1.391 . S
C966 C967 1.400 . S
C967 C966 1.400 . S
C967 C968 1.398 . S
C967 C973 1.491 1_455 S
C968 H959 0.950 . S
C968 C967 1.398 . S
C968 C969 1.391 . S
C969 H957 0.950 . S
C969 C965 1.393 . S
C969 C968 1.391 . S
C970 H960 0.950 . S
C970 C971 1.386 . S
C970 C972 1.391 . S
C971 C970 1.386 . S
C971 C975 1.393 . S
C972 H961 0.950 . S
C972 C970 1.391 . S
C972 C973 1.400 . S
C973 C967 1.491 1_655 S
C973 C972 1.400 . S
C973 C974 1.398 . S
C974 H962 0.950 . S
C974 C973 1.398 . S
C974 C975 1.391 . S
C975 H963 0.950 . S
C975 C971 1.393 . S
C975 C974 1.391 . S
H976 C984 0.950 . S
H977 C989 0.950 . S
H978 C986 0.950 . S
H979 C988 0.950 . S
H980 C990 0.950 . S
H981 C992 0.950 . S
H982 C994 0.950 . S
H983 C995 0.950 . S
C984 H976 0.950 . S
C984 C985 1.386 . S
C984 C986 1.391 . S
C985 C984 1.386 . S
C985 C989 1.393 1_554 S
C986 H978 0.950 . S
C986 C984 1.391 . S
C986 C987 1.400 . S
C987 C986 1.400 . S
C987 C988 1.398 1_554 S
C987 C993 1.491 1_554 S
C988 H979 0.950 . S
C988 C987 1.398 1_556 S
C988 C989 1.391 . S
C989 H977 0.950 . S
C989 C985 1.393 1_556 S
C989 C988 1.391 . S
C990 H980 0.950 . S
C990 C991 1.386 . S
C990 C992 1.391 . S
C991 C990 1.386 . S
C991 C995 1.393 1_556 S
C992 H981 0.950 . S
C992 C990 1.391 . S
C992 C993 1.400 . S
C993 C987 1.491 1_556 S
C993 C992 1.400 . S
C993 C994 1.398 1_556 S
C994 H982 0.950 . S
C994 C993 1.398 1_554 S
C994 C995 1.391 . S
C995 H983 0.950 . S
C995 C991 1.393 1_554 S
C995 C994 1.391 . S
H996 C1004 0.950 . S
H997 C1009 0.950 . S
H998 C1006 0.950 . S
H999 C1008 0.950 . S
H1000 C1010 0.950 . S
H1001 C1012 0.950 . S
H1002 C1014 0.950 . S
H1003 C1015 0.950 . S
C1004 H996 0.950 . S
C1004 C1005 1.386 . S
C1004 C1006 1.391 . S
C1005 C1004 1.386 . S
C1005 C1009 1.393 . S
C1006 H998 0.950 . S
C1006 C1004 1.391 . S
C1006 C1007 1.400 . S
C1007 C1006 1.400 . S
C1007 C1008 1.398 . S
C1007 C1013 1.491 . S
C1008 H999 0.950 . S
C1008 C1007 1.398 . S
C1008 C1009 1.391 . S
C1009 H997 0.950 . S
C1009 C1005 1.393 . S
C1009 C1008 1.391 . S
C1010 H1000 0.950 . S
C1010 C1011 1.386 . S
C1010 C1012 1.391 . S
C1011 C1010 1.386 . S
C1011 C1015 1.393 . S
C1012 H1001 0.950 . S
C1012 C1010 1.391 . S
C1012 C1013 1.400 . S
C1013 C1007 1.491 . S
C1013 C1012 1.400 . S
C1013 C1014 1.398 . S
C1014 H1002 0.950 . S
C1014 C1013 1.398 . S
C1014 C1015 1.391 . S
C1015 H1003 0.950 . S
C1015 C1011 1.393 . S
C1015 C1014 1.391 . S
H1016 C1024 0.950 . S
H1017 C1029 0.950 . S
H1018 C1026 0.950 . S
H1019 C1028 0.950 . S
H1020 C1030 0.950 . S
H1021 C1032 0.950 . S
H1022 C1034 0.950 . S
H1023 C1035 0.950 . S
C1024 H1016 0.950 . S
C1024 C1025 1.386 . S
C1024 C1026 1.391 . S
C1025 C1024 1.386 . S
C1025 C1029 1.393 . S
C1026 H1018 0.950 . S
C1026 C1024 1.391 . S
C1026 C1027 1.400 . S
C1027 C1026 1.400 . S
C1027 C1028 1.398 . S
C1027 C1033 1.491 . S
C1028 H1019 0.950 . S
C1028 C1027 1.398 . S
C1028 C1029 1.391 . S
C1029 H1017 0.950 . S
C1029 C1025 1.393 . S
C1029 C1028 1.391 . S
C1030 H1020 0.950 . S
C1030 C1031 1.386 . S
C1030 C1032 1.391 . S
C1031 C1030 1.386 . S
C1031 C1035 1.393 . S
C1032 H1021 0.950 . S
C1032 C1030 1.391 . S
C1032 C1033 1.400 . S
C1033 C1027 1.491 . S
C1033 C1032 1.400 . S
C1033 C1034 1.398 . S
C1034 H1022 0.950 . S
C1034 C1033 1.398 . S
C1034 C1035 1.391 . S
C1035 H1023 0.950 . S
C1035 C1031 1.393 . S
C1035 C1034 1.391 . S
H1036 C1044 0.950 . S
H1037 C1049 0.950 . S
H1038 C1046 0.950 . S
H1039 C1048 0.950 . S
H1040 C1050 0.950 . S
H1041 C1052 0.950 . S
H1042 C1054 0.950 . S
H1043 C1055 0.950 . S
C1044 H1036 0.950 . S
C1044 C1045 1.386 . S
C1044 C1046 1.391 . S
C1045 C1044 1.386 . S
C1045 C1049 1.393 . S
C1046 H1038 0.950 . S
C1046 C1044 1.391 . S
C1046 C1047 1.400 . S
C1047 C1046 1.400 . S
C1047 C1048 1.398 . S
C1047 C1053 1.491 . S
C1048 H1039 0.950 . S
C1048 C1047 1.398 . S
C1048 C1049 1.391 . S
C1049 H1037 0.950 . S
C1049 C1045 1.393 . S
C1049 C1048 1.391 . S
C1050 H1040 0.950 . S
C1050 C1051 1.386 . S
C1050 C1052 1.391 . S
C1051 C1050 1.386 . S
C1051 C1055 1.393 . S
C1052 H1041 0.950 . S
C1052 C1050 1.391 . S
C1052 C1053 1.400 . S
C1053 C1047 1.491 . S
C1053 C1052 1.400 . S
C1053 C1054 1.398 . S
C1054 H1042 0.950 . S
C1054 C1053 1.398 . S
C1054 C1055 1.391 . S
C1055 H1043 0.950 . S
C1055 C1051 1.393 . S
C1055 C1054 1.391 . S
H1056 C1064 0.950 . S
H1057 C1069 0.950 . S
H1058 C1066 0.950 . S
H1059 C1068 0.950 . S
H1060 C1070 0.950 . S
H1061 C1072 0.950 . S
H1062 C1074 0.950 . S
H1063 C1075 0.950 . S
C1064 H1056 0.950 . S
C1064 C1065 1.386 . S
C1064 C1066 1.391 . S
C1065 C1064 1.386 . S
C1065 C1069 1.393 1_554 S
C1066 H1058 0.950 . S
C1066 C1064 1.391 . S
C1066 C1067 1.400 . S
C1067 C1066 1.400 . S
C1067 C1068 1.398 1_554 S
C1067 C1073 1.491 1_554 S
C1068 H1059 0.950 . S
C1068 C1067 1.398 1_556 S
C1068 C1069 1.391 . S
C1069 H1057 0.950 . S
C1069 C1065 1.393 1_556 S
C1069 C1068 1.391 . S
C1070 H1060 0.950 . S
C1070 C1071 1.386 . S
C1070 C1072 1.391 . S
C1071 C1070 1.386 . S
C1071 C1075 1.393 1_556 S
C1072 H1061 0.950 . S
C1072 C1070 1.391 . S
C1072 C1073 1.400 . S
C1073 C1067 1.491 1_556 S
C1073 C1072 1.400 . S
C1073 C1074 1.398 1_556 S
C1074 H1062 0.950 . S
C1074 C1073 1.398 1_554 S
C1074 C1075 1.391 . S
C1075 H1063 0.950 . S
C1075 C1071 1.393 1_554 S
C1075 C1074 1.391 . S
H1076 C1084 0.950 . S
H1077 C1089 0.950 . S
H1078 C1086 0.950 . S
H1079 C1088 0.950 . S
H1080 C1090 0.950 . S
H1081 C1092 0.950 . S
H1082 C1094 0.950 . S
H1083 C1095 0.950 . S
C1084 H1076 0.950 . S
C1084 C1085 1.386 . S
C1084 C1086 1.391 . S
C1085 C1084 1.386 . S
C1085 C1089 1.393 . S
C1086 H1078 0.950 . S
C1086 C1084 1.391 . S
C1086 C1087 1.400 . S
C1087 C1086 1.400 . S
C1087 C1088 1.398 . S
C1087 C1093 1.491 . S
C1088 H1079 0.950 . S
C1088 C1087 1.398 . S
C1088 C1089 1.391 . S
C1089 H1077 0.950 . S
C1089 C1085 1.393 . S
C1089 C1088 1.391 . S
C1090 H1080 0.950 . S
C1090 C1091 1.386 . S
C1090 C1092 1.391 . S
C1091 C1090 1.386 . S
C1091 C1095 1.393 . S
C1092 H1081 0.950 . S
C1092 C1090 1.391 . S
C1092 C1093 1.400 . S
C1093 C1087 1.491 . S
C1093 C1092 1.400 . S
C1093 C1094 1.398 . S
C1094 H1082 0.950 . S
C1094 C1093 1.398 . S
C1094 C1095 1.391 . S
C1095 H1083 0.950 . S
C1095 C1091 1.393 . S
C1095 C1094 1.391 . S
H1096 C1104 0.950 . S
H1097 C1109 0.950 . S
H1098 C1106 0.950 . S
H1099 C1108 0.950 . S
H1100 C1110 0.950 . S
H1101 C1112 0.950 . S
H1102 C1114 0.950 . S
H1103 C1115 0.950 . S
C1104 H1096 0.950 . S
C1104 C1105 1.386 . S
C1104 C1106 1.391 . S
C1105 C1104 1.386 . S
C1105 C1109 1.393 . S
C1106 H1098 0.950 . S
C1106 C1104 1.391 . S
C1106 C1107 1.400 . S
C1107 C1106 1.400 . S
C1107 C1108 1.398 . S
C1107 C1113 1.491 . S
C1108 H1099 0.950 . S
C1108 C1107 1.398 . S
C1108 C1109 1.391 . S
C1109 H1097 0.950 . S
C1109 C1105 1.393 . S
C1109 C1108 1.391 . S
C1110 H1100 0.950 . S
C1110 C1111 1.386 . S
C1110 C1112 1.391 . S
C1111 C1110 1.386 . S
C1111 C1115 1.393 . S
C1112 H1101 0.950 . S
C1112 C1110 1.391 . S
C1112 C1113 1.400 . S
C1113 C1107 1.491 . S
C1113 C1112 1.400 . S
C1113 C1114 1.398 . S
C1114 H1102 0.950 . S
C1114 C1113 1.398 . S
C1114 C1115 1.391 . S
C1115 H1103 0.950 . S
C1115 C1111 1.393 . S
C1115 C1114 1.391 . S
H1116 C1124 0.950 . S
H1117 C1129 0.950 . S
H1118 C1126 0.950 . S
H1119 C1128 0.950 . S
H1120 C1130 0.950 . S
H1121 C1132 0.950 . S
H1122 C1134 0.950 . S
H1123 C1135 0.950 . S
C1124 H1116 0.950 . S
C1124 C1125 1.386 . S
C1124 C1126 1.391 . S
C1125 C1124 1.386 . S
C1125 C1129 1.393 . S
C1126 H1118 0.950 . S
C1126 C1124 1.391 . S
C1126 C1127 1.400 . S
C1127 C1126 1.400 . S
C1127 C1128 1.398 . S
C1127 C1133 1.491 . S
C1128 H1119 0.950 . S
C1128 C1127 1.398 . S
C1128 C1129 1.391 . S
C1129 H1117 0.950 . S
C1129 C1125 1.393 . S
C1129 C1128 1.391 . S
C1130 H1120 0.950 . S
C1130 C1131 1.386 . S
C1130 C1132 1.391 . S
C1131 C1130 1.386 . S
C1131 C1135 1.393 . S
C1132 H1121 0.950 . S
C1132 C1130 1.391 . S
C1132 C1133 1.400 . S
C1133 C1127 1.491 . S
C1133 C1132 1.400 . S
C1133 C1134 1.398 . S
C1134 H1122 0.950 . S
C1134 C1133 1.398 . S
C1134 C1135 1.391 . S
C1135 H1123 0.950 . S
C1135 C1131 1.393 . S
C1135 C1134 1.391 . S
H1136 C1144 0.950 . S
H1137 C1149 0.950 . S
H1138 C1146 0.950 . S
H1139 C1148 0.950 . S
H1140 C1150 0.950 . S
H1141 C1152 0.950 . S
H1142 C1154 0.950 . S
H1143 C1155 0.950 . S
C1144 H1136 0.950 . S
C1144 C1145 1.386 . S
C1144 C1146 1.391 . S
C1145 C1144 1.386 . S
C1145 C1149 1.393 . S
C1146 H1138 0.950 . S
C1146 C1144 1.391 . S
C1146 C1147 1.400 . S
C1147 C1146 1.400 . S
C1147 C1148 1.398 . S
C1147 C1153 1.491 1_565 S
C1148 H1139 0.950 . S
C1148 C1147 1.398 . S
C1148 C1149 1.391 . S
C1149 H1137 0.950 . S
C1149 C1145 1.393 . S
C1149 C1148 1.391 . S
C1150 H1140 0.950 . S
C1150 C1151 1.386 . S
C1150 C1152 1.391 . S
C1151 C1150 1.386 . S
C1151 C1155 1.393 . S
C1152 H1141 0.950 . S
C1152 C1150 1.391 . S
C1152 C1153 1.400 . S
C1153 C1147 1.491 1_545 S
C1153 C1152 1.400 . S
C1153 C1154 1.398 . S
C1154 H1142 0.950 . S
C1154 C1153 1.398 . S
C1154 C1155 1.391 . S
C1155 H1143 0.950 . S
C1155 C1151 1.393 . S
C1155 C1154 1.391 . S
H1156 C1164 0.950 . S
H1157 C1169 0.950 . S
H1158 C1166 0.950 . S
H1159 C1168 0.950 . S
H1160 C1170 0.950 . S
H1161 C1172 0.950 . S
H1162 C1174 0.950 . S
H1163 C1175 0.950 . S
C1164 H1156 0.950 . S
C1164 C1165 1.386 . S
C1164 C1166 1.391 . S
C1165 C1164 1.386 . S
C1165 C1169 1.393 . S
C1166 H1158 0.950 . S
C1166 C1164 1.391 . S
C1166 C1167 1.400 . S
C1167 C1166 1.400 . S
C1167 C1168 1.398 . S
C1167 C1173 1.491 . S
C1168 H1159 0.950 . S
C1168 C1167 1.398 . S
C1168 C1169 1.391 . S
C1169 H1157 0.950 . S
C1169 C1165 1.393 . S
C1169 C1168 1.391 . S
C1170 H1160 0.950 . S
C1170 C1171 1.386 . S
C1170 C1172 1.391 . S
C1171 C1170 1.386 . S
C1171 C1175 1.393 . S
C1172 H1161 0.950 . S
C1172 C1170 1.391 . S
C1172 C1173 1.400 . S
C1173 C1167 1.491 . S
C1173 C1172 1.400 . S
C1173 C1174 1.398 . S
C1174 H1162 0.950 . S
C1174 C1173 1.398 . S
C1174 C1175 1.391 . S
C1175 H1163 0.950 . S
C1175 C1171 1.393 . S
C1175 C1174 1.391 . S
H1176 C1184 0.950 . S
H1177 C1189 0.950 1_556 S
H1178 C1186 0.950 . S
H1179 C1188 0.950 . S
H1180 C1190 0.950 . S
H1181 C1192 0.950 . S
H1182 C1194 0.950 . S
H1183 C1195 0.950 1_554 S
C1184 H1176 0.950 . S
C1184 C1185 1.386 . S
C1184 C1186 1.391 . S
C1185 C1184 1.386 . S
C1185 C1189 1.393 . S
C1186 H1178 0.950 . S
C1186 C1184 1.391 . S
C1186 C1187 1.400 . S
C1187 C1186 1.400 . S
C1187 C1188 1.398 1_554 S
C1187 C1193 1.491 1_564 S
C1188 H1179 0.950 . S
C1188 C1187 1.398 1_556 S
C1188 C1189 1.391 1_556 S
C1189 H1177 0.950 1_554 S
C1189 C1185 1.393 . S
C1189 C1188 1.391 1_554 S
C1190 H1180 0.950 . S
C1190 C1191 1.386 . S
C1190 C1192 1.391 . S
C1191 C1190 1.386 . S
C1191 C1195 1.393 . S
C1192 H1181 0.950 . S
C1192 C1190 1.391 . S
C1192 C1193 1.400 . S
C1193 C1187 1.491 1_546 S
C1193 C1192 1.400 . S
C1193 C1194 1.398 1_556 S
C1194 H1182 0.950 . S
C1194 C1193 1.398 1_554 S
C1194 C1195 1.391 1_554 S
C1195 H1183 0.950 1_556 S
C1195 C1191 1.393 . S
C1195 C1194 1.391 1_556 S
H1196 C1204 0.950 . S
H1197 C1209 0.950 . S
H1198 C1206 0.950 . S
H1199 C1208 0.950 . S
H1200 C1210 0.950 . S
H1201 C1212 0.950 . S
H1202 C1214 0.950 . S
H1203 C1215 0.950 . S
C1204 H1196 0.950 . S
C1204 C1205 1.386 . S
C1204 C1206 1.391 . S
C1205 C1204 1.386 . S
C1205 C1209 1.393 . S
C1206 H1198 0.950 . S
C1206 C1204 1.391 . S
C1206 C1207 1.400 . S
C1207 C1206 1.400 . S
C1207 C1208 1.398 . S
C1207 C1213 1.491 . S
C1208 H1199 0.950 . S
C1208 C1207 1.398 . S
C1208 C1209 1.391 . S
C1209 H1197 0.950 . S
C1209 C1205 1.393 . S
C1209 C1208 1.391 . S
C1210 H1200 0.950 . S
C1210 C1211 1.386 . S
C1210 C1212 1.391 . S
C1211 C1210 1.386 . S
C1211 C1215 1.393 . S
C1212 H1201 0.950 . S
C1212 C1210 1.391 . S
C1212 C1213 1.400 . S
C1213 C1207 1.491 . S
C1213 C1212 1.400 . S
C1213 C1214 1.398 . S
C1214 H1202 0.950 . S
C1214 C1213 1.398 . S
C1214 C1215 1.391 . S
C1215 H1203 0.950 . S
C1215 C1211 1.393 . S
C1215 C1214 1.391 . S
H1216 C1224 0.950 . S
H1217 C1229 0.950 . S
H1218 C1226 0.950 . S
H1219 C1228 0.950 . S
H1220 C1230 0.950 . S
H1221 C1232 0.950 . S
H1222 C1234 0.950 . S
H1223 C1235 0.950 . S
C1224 H1216 0.950 . S
C1224 C1225 1.386 . S
C1224 C1226 1.391 . S
C1225 C1224 1.386 . S
C1225 C1229 1.393 . S
C1226 H1218 0.950 . S
C1226 C1224 1.391 . S
C1226 C1227 1.400 . S
C1227 C1226 1.400 . S
C1227 C1228 1.398 . S
C1227 C1233 1.491 1_565 S
C1228 H1219 0.950 . S
C1228 C1227 1.398 . S
C1228 C1229 1.391 . S
C1229 H1217 0.950 . S
C1229 C1225 1.393 . S
C1229 C1228 1.391 . S
C1230 H1220 0.950 . S
C1230 C1231 1.386 . S
C1230 C1232 1.391 . S
C1231 C1230 1.386 . S
C1231 C1235 1.393 . S
C1232 H1221 0.950 . S
C1232 C1230 1.391 . S
C1232 C1233 1.400 . S
C1233 C1227 1.491 1_545 S
C1233 C1232 1.400 . S
C1233 C1234 1.398 . S
C1234 H1222 0.950 . S
C1234 C1233 1.398 . S
C1234 C1235 1.391 . S
C1235 H1223 0.950 . S
C1235 C1231 1.393 . S
C1235 C1234 1.391 . S
H1236 C1244 0.950 . S
H1237 C1249 0.950 . S
H1238 C1246 0.950 . S
H1239 C1248 0.950 . S
H1240 C1250 0.950 . S
H1241 C1252 0.950 . S
H1242 C1254 0.950 . S
H1243 C1255 0.950 . S
C1244 H1236 0.950 . S
C1244 C1245 1.386 . S
C1244 C1246 1.391 . S
C1245 C1244 1.386 . S
C1245 C1249 1.393 . S
C1246 H1238 0.950 . S
C1246 C1244 1.391 . S
C1246 C1247 1.400 . S
C1247 C1246 1.400 . S
C1247 C1248 1.398 . S
C1247 C1253 1.491 . S
C1248 H1239 0.950 . S
C1248 C1247 1.398 . S
C1248 C1249 1.391 . S
C1249 H1237 0.950 . S
C1249 C1245 1.393 . S
C1249 C1248 1.391 . S
C1250 H1240 0.950 . S
C1250 C1251 1.386 . S
C1250 C1252 1.391 . S
C1251 C1250 1.386 . S
C1251 C1255 1.393 . S
C1252 H1241 0.950 . S
C1252 C1250 1.391 . S
C1252 C1253 1.400 . S
C1253 C1247 1.491 . S
C1253 C1252 1.400 . S
C1253 C1254 1.398 . S
C1254 H1242 0.950 . S
C1254 C1253 1.398 . S
C1254 C1255 1.391 . S
C1255 H1243 0.950 . S
C1255 C1251 1.393 . S
C1255 C1254 1.391 . S
H1256 C1264 0.950 . S
H1257 C1269 0.950 1_554 S
H1258 C1266 0.950 . S
H1259 C1268 0.950 . S
H1260 C1270 0.950 . S
H1261 C1272 0.950 . S
H1262 C1274 0.950 . S
H1263 C1275 0.950 1_556 S
C1264 H1256 0.950 . S
C1264 C1265 1.386 . S
C1264 C1266 1.391 . S
C1265 C1264 1.386 . S
C1265 C1269 1.393 . S
C1266 H1258 0.950 . S
C1266 C1264 1.391 . S
C1266 C1267 1.400 . S
C1267 C1266 1.400 . S
C1267 C1268 1.398 1_556 S
C1267 C1273 1.491 1_546 S
C1268 H1259 0.950 . S
C1268 C1267 1.398 1_554 S
C1268 C1269 1.391 1_554 S
C1269 H1257 0.950 1_556 S
C1269 C1265 1.393 . S
C1269 C1268 1.391 1_556 S
C1270 H1260 0.950 . S
C1270 C1271 1.386 . S
C1270 C1272 1.391 . S
C1271 C1270 1.386 . S
C1271 C1275 1.393 . S
C1272 H1261 0.950 . S
C1272 C1270 1.391 . S
C1272 C1273 1.400 . S
C1273 C1267 1.491 1_564 S
C1273 C1272 1.400 . S
C1273 C1274 1.398 1_554 S
C1274 H1262 0.950 . S
C1274 C1273 1.398 1_556 S
C1274 C1275 1.391 1_556 S
C1275 H1263 0.950 1_554 S
C1275 C1271 1.393 . S
C1275 C1274 1.391 1_554 S
H1276 C1284 0.950 . S
H1277 C1289 0.950 . S
H1278 C1286 0.950 . S
H1279 C1288 0.950 . S
H1280 C1290 0.950 . S
H1281 C1292 0.950 . S
H1282 C1294 0.950 . S
H1283 C1295 0.950 . S
C1284 H1276 0.950 . S
C1284 C1285 1.386 . S
C1284 C1286 1.391 . S
C1285 C1284 1.386 . S
C1285 C1289 1.393 . S
C1286 H1278 0.950 . S
C1286 C1284 1.391 . S
C1286 C1287 1.400 . S
C1287 C1286 1.400 . S
C1287 C1288 1.398 . S
C1287 C1293 1.491 . S
C1288 H1279 0.950 . S
C1288 C1287 1.398 . S
C1288 C1289 1.391 . S
C1289 H1277 0.950 . S
C1289 C1285 1.393 . S
C1289 C1288 1.391 . S
C1290 H1280 0.950 . S
C1290 C1291 1.386 . S
C1290 C1292 1.391 . S
C1291 C1290 1.386 . S
C1291 C1295 1.393 . S
C1292 H1281 0.950 . S
C1292 C1290 1.391 . S
C1292 C1293 1.400 . S
C1293 C1287 1.491 . S
C1293 C1292 1.400 . S
C1293 C1294 1.398 . S
C1294 H1282 0.950 . S
C1294 C1293 1.398 . S
C1294 C1295 1.391 . S
C1295 H1283 0.950 . S
C1295 C1291 1.393 . S
C1295 C1294 1.391 . S
C345 C20 1.337 . S
C351 C16 1.326 . S
C365 C41 1.307 . S
C371 C37 1.305 . S
C385 C45 1.310 . S
C391 C61 1.301 . S
C405 C66 1.305 . S
C411 C82 1.313 . S
C425 C87 1.340 . S
C431 C103 1.329 . S
C445 C108 1.341 . S
C451 C124 1.330 . S
C465 C145 1.338 . S
C471 C129 1.335 . S
C485 C167 1.300 . S
C491 C163 1.309 . S
C505 C171 1.304 . S
C511 C187 1.300 . S
C525 C192 1.305 . S
C531 C208 1.314 . S
C545 C229 1.306 . S
C551 C213 1.305 . S
C565 C251 1.338 . S
C571 C247 1.334 . S
C585 C268 1.326 . S
C591 C272 1.308 . S
C605 C289 1.329 . S
C611 C293 1.311 . S
C625 C297 1.340 . S
C631 C313 1.337 . S
C645 C318 1.318 . S
C651 C334 1.331 . S
C665 C3 1.340 . S
C671 C238 1.297 . S
C685 C24 1.317 . S
C691 C319 1.294 . S
C705 C46 1.308 . S
C711 C193 1.288 . S
C725 C67 1.272 . S
C731 C280 1.281 . S
C745 C88 1.304 . S
C751 C276 1.360 . S
C765 C234 1.332 . S
C771 C121 1.378 . S
C785 C142 1.369 . S
C791 C331 1.345 . S
C805 C150 1.360 . S
C811 C205 1.328 . S
C825 C79 1.320 . S
C831 C172 1.346 . S
C845 C28 1.321 . S
C851 C214 1.275 . S
C865 C259 1.297 . S
C871 C109 1.305 . S
C885 C154 1.320 . S
C891 C298 1.284 . S
C905 C184 1.329 . S
C911 C100 1.372 . S
C925 C130 1.323 . S
C931 C226 1.299 . S
C945 C58 1.359 . S
C951 C310 1.316 . S
C965 C7 1.314 . S
C971 C255 1.300 . S
C985 C19 1.332 . S
C991 C91 1.350 . S
C1005 C40 1.345 . S
C1011 C125 1.366 . S
C1025 C49 1.323 . S
C1031 C146 1.342 . S
C1045 C70 1.363 . S
C1051 C166 1.385 . S
C1065 C256 1.369 . S
C1071 C175 1.352 . S
C1085 C277 1.371 . S
C1091 C209 1.358 . S
C1105 C217 1.365 . S
C1111 C301 1.348 . S
C1125 C322 1.327 . S
C1131 C250 1.352 . S
C1145 C25 1.366 . S
C1151 C151 1.346 . S
C1165 C104 1.349 . S
C1171 C62 1.355 . S
C1185 C112 1.349 . S
C1191 C83 1.358 . S
C1205 C4 1.387 . S
C1211 C133 1.386 . S
C1225 C335 1.335 . S
C1231 C196 1.324 . S
C1245 C271 1.337 . S
C1251 C230 1.358 . S
C1265 C292 1.373 . S
C1271 C235 1.363 . S
C1285 C314 1.336 . S
C1291 C188 1.348 . S
