# Generated by pormake.
# Topology zfn, (5)-cn, num edge types: 1
# Building blocks:
#     Node 0, Type 0, BuildingBlock: BEQFEK_clean_sbu_0, # of connection points: 5
#     Node 1, Type 0, BuildingBlock: BEQFEK_clean_sbu_0, # of connection points: 5
#     Node 2, Type 0, BuildingBlock: BEQFEK_clean_sbu_0, # of connection points: 5
#     Node 3, Type 0, BuildingBlock: BEQFEK_clean_sbu_0, # of connection points: 5
#     Node 4, Type 0, BuildingBlock: BEQFEK_clean_sbu_0, # of connection points: 5
#     Node 5, Type 0, BuildingBlock: BEQFEK_clean_sbu_0, # of connection points: 5
#     Node 6, Type 0, BuildingBlock: BEQFEK_clean_sbu_0, # of connection points: 5
#     Node 7, Type 0, BuildingBlock: BEQFEK_clean_sbu_0, # of connection points: 5
#     Node 8, Type 0, BuildingBlock: BEQFEK_clean_sbu_0, # of connection points: 5
#     Node 9, Type 0, BuildingBlock: BEQFEK_clean_sbu_0, # of connection points: 5
#     Node 10, Type 0, BuildingBlock: BEQFEK_clean_sbu_0, # of connection points: 5
#     Node 11, Type 0, BuildingBlock: BEQFEK_clean_sbu_0, # of connection points: 5
#     Node 12, Type 0, BuildingBlock: BEQFEK_clean_sbu_0, # of connection points: 5
#     Node 13, Type 0, BuildingBlock: BEQFEK_clean_sbu_0, # of connection points: 5
#     Node 14, Type 0, BuildingBlock: BEQFEK_clean_sbu_0, # of connection points: 5
#     Node 15, Type 0, BuildingBlock: BEQFEK_clean_sbu_0, # of connection points: 5
#     Edge 16, Type (0, 0), BuildingBlock: OJICUG_clean_linker_0, # of connection points: 2
#     Edge 17, Type (0, 0), BuildingBlock: OJICUG_clean_linker_0, # of connection points: 2
#     Edge 18, Type (0, 0), BuildingBlock: OJICUG_clean_linker_0, # of connection points: 2
#     Edge 19, Type (0, 0), BuildingBlock: OJICUG_clean_linker_0, # of connection points: 2
#     Edge 20, Type (0, 0), BuildingBlock: OJICUG_clean_linker_0, # of connection points: 2
#     Edge 21, Type (0, 0), BuildingBlock: OJICUG_clean_linker_0, # of connection points: 2
#     Edge 22, Type (0, 0), BuildingBlock: OJICUG_clean_linker_0, # of connection points: 2
#     Edge 23, Type (0, 0), BuildingBlock: OJICUG_clean_linker_0, # of connection points: 2
#     Edge 24, Type (0, 0), BuildingBlock: OJICUG_clean_linker_0, # of connection points: 2
#     Edge 25, Type (0, 0), BuildingBlock: OJICUG_clean_linker_0, # of connection points: 2
#     Edge 26, Type (0, 0), BuildingBlock: OJICUG_clean_linker_0, # of connection points: 2
#     Edge 27, Type (0, 0), BuildingBlock: OJICUG_clean_linker_0, # of connection points: 2
#     Edge 28, Type (0, 0), BuildingBlock: OJICUG_clean_linker_0, # of connection points: 2
#     Edge 29, Type (0, 0), BuildingBlock: OJICUG_clean_linker_0, # of connection points: 2
#     Edge 30, Type (0, 0), BuildingBlock: OJICUG_clean_linker_0, # of connection points: 2
#     Edge 31, Type (0, 0), BuildingBlock: OJICUG_clean_linker_0, # of connection points: 2
#     Edge 32, Type (0, 0), BuildingBlock: OJICUG_clean_linker_0, # of connection points: 2
#     Edge 33, Type (0, 0), BuildingBlock: OJICUG_clean_linker_0, # of connection points: 2
#     Edge 34, Type (0, 0), BuildingBlock: OJICUG_clean_linker_0, # of connection points: 2
#     Edge 35, Type (0, 0), BuildingBlock: OJICUG_clean_linker_0, # of connection points: 2
#     Edge 36, Type (0, 0), BuildingBlock: OJICUG_clean_linker_0, # of connection points: 2
#     Edge 37, Type (0, 0), BuildingBlock: OJICUG_clean_linker_0, # of connection points: 2
#     Edge 38, Type (0, 0), BuildingBlock: OJICUG_clean_linker_0, # of connection points: 2
#     Edge 39, Type (0, 0), BuildingBlock: OJICUG_clean_linker_0, # of connection points: 2
#     Edge 40, Type (0, 0), BuildingBlock: OJICUG_clean_linker_0, # of connection points: 2
#     Edge 41, Type (0, 0), BuildingBlock: OJICUG_clean_linker_0, # of connection points: 2
#     Edge 42, Type (0, 0), BuildingBlock: OJICUG_clean_linker_0, # of connection points: 2
#     Edge 43, Type (0, 0), BuildingBlock: OJICUG_clean_linker_0, # of connection points: 2
#     Edge 44, Type (0, 0), BuildingBlock: OJICUG_clean_linker_0, # of connection points: 2
#     Edge 45, Type (0, 0), BuildingBlock: OJICUG_clean_linker_0, # of connection points: 2
#     Edge 46, Type (0, 0), BuildingBlock: OJICUG_clean_linker_0, # of connection points: 2
#     Edge 47, Type (0, 0), BuildingBlock: OJICUG_clean_linker_0, # of connection points: 2
#     Edge 48, Type (0, 0), BuildingBlock: OJICUG_clean_linker_0, # of connection points: 2
#     Edge 49, Type (0, 0), BuildingBlock: OJICUG_clean_linker_0, # of connection points: 2
#     Edge 50, Type (0, 0), BuildingBlock: OJICUG_clean_linker_0, # of connection points: 2
#     Edge 51, Type (0, 0), BuildingBlock: OJICUG_clean_linker_0, # of connection points: 2
#     Edge 52, Type (0, 0), BuildingBlock: OJICUG_clean_linker_0, # of connection points: 2
#     Edge 53, Type (0, 0), BuildingBlock: OJICUG_clean_linker_0, # of connection points: 2
#     Edge 54, Type (0, 0), BuildingBlock: OJICUG_clean_linker_0, # of connection points: 2
#     Edge 55, Type (0, 0), BuildingBlock: OJICUG_clean_linker_0, # of connection points: 2
# Relax obj value: 0.152
# Max RMSD: 0.180
# Mean RMSD: 0.180
data_MOF--net-zfn--node1-BEQFEK_clean_sbu_0--edge1-OJICUG_clean_linker_0
_symmetry_space_group_name_H-M    P1
_symmetry_Int_Tables_number       1
_symmetry_cell_setting            triclinic
loop_
_symmetry_equiv_pos_as_xyz
'x, y, z'
_cell_length_a     55.00087
_cell_length_b     54.997765
_cell_length_c     15.061121
_cell_angle_alpha  90.051226
_cell_angle_beta   89.951132
_cell_angle_gamma 90.003676
loop_
_atom_site_label
_atom_site_type_symbol
_atom_site_fract_x
_atom_site_fract_y
_atom_site_fract_z
_atom_type_partial_charge
Co0 Co 0.99566 0.35934 0.0363 0.0
Co1 Co 0.01101 0.37339 0.22931 0.0
C2 C 0.96371 0.39032 0.14602 0.0
O3 O 0.9672 0.37836 0.07478 0.0
O4 O 0.9793 0.39011 0.20858 0.0
C5 C 0.98208 0.36318 0.85961 0.0
O6 O 0.97155 0.38266 0.89235 0.0
C7 C 0.00164 0.37271 0.41859 0.0
C8 C 0.03831 0.37657 0.47675 0.0
C9 C 0.01409 0.37284 0.49844 0.0
N10 N 0.01776 0.37596 0.35265 0.0
N11 N 0.03961 0.37863 0.38773 0.0
C12 C 0.9754 0.36674 0.40382 0.0
H13 H 0.97294 0.35775 0.33843 0.0
H14 H 0.96837 0.35471 0.45713 0.0
H15 H 0.96469 0.38384 0.40401 0.0
C16 C 0.0003 0.30963 0.11055 0.0
N17 N 0.00201 0.33398 0.11708 0.0
N18 N 0.00951 0.33981 0.19732 0.0
C19 C 0.01351 0.3192 0.24356 0.0
C20 C 0.00763 0.2995 0.19045 0.0
C21 C 0.9919 0.29656 0.0291 0.0
H22 H 0.00492 0.30008 0.97427 0.0
H23 H 0.97399 0.3039 0.00835 0.0
H24 H 0.99049 0.27667 0.04038 0.0
O25 O 0.02401 0.38116 0.02587 0.0
O26 O 0.03668 0.3906 0.16107 0.0
H27 H 0.03734 0.33099 0.34748 0.0
H28 H 0.02798 0.29968 0.3569 0.0
C29 C 0.02201 0.31821 0.33788 0.0
H30 H 0.00687 0.32353 0.38239 0.0
H31 H 0.05551 0.3809 0.35077 0.0
O32 O 0.99174 0.34803 0.91266 0.0
C33 C 0.03876 0.39211 0.07701 0.0
Co34 Co 0.13952 0.99645 0.52357 0.0
Co35 Co 0.12504 0.00974 0.71774 0.0
C36 C 0.10668 0.96438 0.62201 0.0
O37 O 0.11926 0.96796 0.55225 0.0
O38 O 0.10726 0.97932 0.68672 0.0
C39 C 0.14546 0.9791 0.34549 0.0
O40 O 0.13472 0.95918 0.37307 0.0
C41 C 0.12626 0.99876 0.90793 0.0
C42 C 0.1214 0.03525 0.96664 0.0
C43 C 0.12635 0.01123 0.98831 0.0
N44 N 0.12229 0.01486 0.84229 0.0
N45 N 0.11902 0.03656 0.87793 0.0
C46 C 0.12975 0.97204 0.89299 0.0
H47 H 0.12068 0.96608 0.83143 0.0
H48 H 0.14943 0.96803 0.88621 0.0
H49 H 0.12224 0.96143 0.9493 0.0
C50 C 0.18893 0.99872 0.60106 0.0
N51 N 0.16459 0.00073 0.60703 0.0
N52 N 0.15865 0.00754 0.68797 0.0
C53 C 0.17921 0.01076 0.7354 0.0
C54 C 0.19891 0.00504 0.68223 0.0
C55 C 0.20218 0.99118 0.51883 0.0
H56 H 0.20124 0.00616 0.46962 0.0
H57 H 0.19313 0.97507 0.48918 0.0
H58 H 0.22154 0.98701 0.53299 0.0
O59 O 0.11838 0.02542 0.51802 0.0
O60 O 0.1091 0.03707 0.65454 0.0
H61 H 0.16704 0.03444 0.83951 0.0
H62 H 0.19874 0.02622 0.84657 0.0
C63 C 0.1803 0.01954 0.82938 0.0
H64 H 0.17582 0.00434 0.87472 0.0
H65 H 0.11607 0.0524 0.84145 0.0
O66 O 0.15171 0.99519 0.40132 0.0
C67 C 0.10779 0.04 0.57084 0.0
Co68 Co 0.50168 0.13993 0.02245 0.0
Co69 Co 0.48587 0.12628 0.21543 0.0
C70 C 0.53268 0.10801 0.13152 0.0
O71 O 0.52966 0.12007 0.06032 0.0
O72 O 0.51705 0.10874 0.19397 0.0
C73 C 0.5153 0.13595 0.84553 0.0
O74 O 0.52556 0.11631 0.87792 0.0
C75 C 0.49538 0.12674 0.4046 0.0
C76 C 0.45869 0.12359 0.46329 0.0
C77 C 0.48299 0.12686 0.48465 0.0
N78 N 0.47916 0.1238 0.33888 0.0
N79 N 0.45728 0.12155 0.37428 0.0
C80 C 0.52172 0.13222 0.38946 0.0
H81 H 0.52432 0.14103 0.32387 0.0
H82 H 0.52897 0.14422 0.44248 0.0
H83 H 0.53213 0.11494 0.38995 0.0
C84 C 0.4981 0.1898 0.09756 0.0
N85 N 0.49596 0.16546 0.10374 0.0
N86 N 0.48826 0.15976 0.18387 0.0
C87 C 0.48457 0.18041 0.23033 0.0
C88 C 0.49086 0.20002 0.17755 0.0
C89 C 0.50667 0.20277 0.01617 0.0
H90 H 0.49326 0.19996 0.9621 0.0
H91 H 0.52417 0.19479 0.99382 0.0
H92 H 0.5089 0.22256 0.02831 0.0
O93 O 0.47277 0.11875 0.01193 0.0
O94 O 0.45976 0.10986 0.14723 0.0
H95 H 0.46022 0.16902 0.33331 0.0
H96 H 0.47017 0.20013 0.34358 0.0
C97 C 0.47583 0.1815 0.32441 0.0
H98 H 0.49073 0.17587 0.36929 0.0
H99 H 0.44132 0.11959 0.33755 0.0
O100 O 0.50584 0.1512 0.89888 0.0
C101 C 0.45769 0.10828 0.06319 0.0
Co102 Co 0.35885 0.50119 0.53986 0.0
Co103 Co 0.37291 0.48531 0.73241 0.0
C104 C 0.38977 0.53288 0.65042 0.0
O105 O 0.3778 0.52962 0.57911 0.0
O106 O 0.3896 0.51707 0.71225 0.0
C107 C 0.36291 0.51455 0.36294 0.0
O108 O 0.3825 0.52486 0.39559 0.0
C109 C 0.37222 0.49467 0.92179 0.0
C110 C 0.37604 0.45802 0.98009 0.0
C111 C 0.37235 0.48226 0.00173 0.0
N112 N 0.37545 0.47853 0.85586 0.0
N113 N 0.37809 0.45668 0.89104 0.0
C114 C 0.36627 0.52092 0.90698 0.0
H115 H 0.35719 0.52334 0.84182 0.0
H116 H 0.35434 0.528 0.96055 0.0
H117 H 0.38339 0.53159 0.90662 0.0
C118 C 0.30916 0.49636 0.61436 0.0
N119 N 0.33351 0.49459 0.62061 0.0
N120 N 0.33934 0.48687 0.70054 0.0
C121 C 0.31872 0.48279 0.74683 0.0
C122 C 0.29902 0.48884 0.6941 0.0
C123 C 0.2961 0.50502 0.53331 0.0
H124 H 0.29982 0.49229 0.47769 0.0
H125 H 0.3033 0.52309 0.51378 0.0
H126 H 0.27619 0.50618 0.54444 0.0
O127 O 0.38075 0.47295 0.52877 0.0
O128 O 0.39017 0.45975 0.66327 0.0
H129 H 0.33053 0.45881 0.85017 0.0
H130 H 0.29925 0.4682 0.8602 0.0
C131 C 0.31777 0.47417 0.84101 0.0
H132 H 0.32312 0.48924 0.88572 0.0
H133 H 0.38034 0.44077 0.85415 0.0
O134 O 0.34759 0.50516 0.41615 0.0
C135 C 0.39169 0.458 0.57907 0.0
Co136 Co 0.99602 0.14 0.46007 0.0
Co137 Co 0.01108 0.12609 0.26666 0.0
C138 C 0.96435 0.10832 0.35166 0.0
O139 O 0.96787 0.1204 0.42255 0.0
O140 O 0.97971 0.10874 0.2883 0.0
C141 C 0.98203 0.1364 0.6368 0.0
O142 O 0.97131 0.117 0.60433 0.0
C143 C 0.00158 0.12671 0.07763 0.0
C144 C 0.03826 0.12323 0.01903 0.0
C145 C 0.014 0.12675 -0.00235 0.0
N146 N 0.01776 0.12356 0.14333 0.0
N147 N 0.03962 0.12112 0.108 0.0
C148 C 0.97529 0.13243 0.09281 0.0
H149 H 0.97277 0.14121 0.15854 0.0
H150 H 0.96817 0.14454 0.03997 0.0
H151 H 0.96472 0.11524 0.09206 0.0
C152 C -2e-05 0.18977 0.3856 0.0
N153 N 0.00177 0.16542 0.3789 0.0
N154 N 0.00909 0.15965 0.29835 0.0
C155 C 0.0129 0.18029 0.25205 0.0
C156 C 0.00708 0.19995 0.30546 0.0
C157 C 0.9919 0.20281 0.4676 0.0
H158 H 0.00545 0.19975 0.521 0.0
H159 H 0.97436 0.19508 0.49061 0.0
H160 H 0.98993 0.22263 0.45591 0.0
O161 O 0.02482 0.11872 0.47006 0.0
O162 O 0.0372 0.10948 0.33422 0.0
H163 H 0.03688 0.16874 0.1481 0.0
H164 H 0.02722 0.19996 0.13877 0.0
C165 C 0.02142 0.18137 0.15772 0.0
H166 H 0.00636 0.17592 0.11321 0.0
H167 H 0.05555 0.11898 0.14476 0.0
O168 O 0.99195 0.15135 0.58358 0.0
C169 C 0.03961 0.10805 0.41816 0.0
Co170 Co 0.35783 0.99693 0.95531 0.0
Co171 Co 0.37275 0.00966 0.7609 0.0
C172 C 0.39046 0.96427 0.85702 0.0
O173 O 0.3779 0.96828 0.92654 0.0
O174 O 0.39013 0.97898 0.79169 0.0
C175 C 0.35201 0.97985 0.13368 0.0
O176 O 0.36277 0.95988 0.10645 0.0
C177 C 0.37357 -0.00075 0.56968 0.0
C178 C 0.37419 0.03636 0.51383 0.0
C179 C 0.37182 0.01207 0.49042 0.0
N180 N 0.37576 0.01534 0.6366 0.0
N181 N 0.37667 0.03744 0.60255 0.0
C182 C 0.37327 0.97224 0.58237 0.0
H183 H 0.3852 0.96701 0.63802 0.0
H184 H 0.35452 0.96622 0.59828 0.0
H185 H 0.37978 0.96268 0.52199 0.0
C186 C 0.30854 -0.00026 0.87758 0.0
N187 N 0.3329 0.00143 0.87154 0.0
N188 N 0.33896 0.00767 0.79016 0.0
C189 C 0.31846 0.01064 0.74213 0.0
C190 C 0.29859 0.00562 0.79579 0.0
C191 C 0.2953 0.99319 0.96097 0.0
H192 H 0.29909 0.00715 0.01235 0.0
H193 H 0.30226 0.97557 0.98624 0.0
H194 H 0.27538 0.992 0.95022 0.0
O195 O 0.37906 0.02571 0.96154 0.0
O196 O 0.38886 0.03685 0.82507 0.0
H197 H 0.32903 0.03348 0.63381 0.0
H198 H 0.29908 0.02062 0.62185 0.0
C199 C 0.3178 0.01709 0.64562 0.0
H200 H 0.32527 0.00179 0.60638 0.0
H201 H 0.3778 0.05332 0.64026 0.0
O202 O 0.34558 0.99575 0.07751 0.0
C203 C 0.38993 0.04004 0.90871 0.0
Co204 Co 0.5029 0.35869 0.45434 0.0
Co205 Co 0.48735 0.37321 0.26173 0.0
C206 C 0.53451 0.39032 0.34594 0.0
O207 O 0.53116 0.37808 0.41655 0.0
O208 O 0.51891 0.39017 0.28341 0.0
C209 C 0.51655 0.3624 0.63123 0.0
O210 O 0.52722 0.3818 0.59858 0.0
C211 C 0.49687 0.37269 0.07236 0.0
C212 C 0.46026 0.37663 0.0139 0.0
C213 C 0.48447 0.3728 0.99234 0.0
N214 N 0.48072 0.37602 0.1382 0.0
N215 N 0.4589 0.37875 0.10291 0.0
C216 C 0.52308 0.36661 0.08738 0.0
H217 H 0.52547 0.3578 0.15304 0.0
H218 H 0.53004 0.3544 0.03444 0.0
H219 H 0.53388 0.38365 0.08666 0.0
C220 C 0.49856 0.30914 0.37758 0.0
N221 N 0.49673 0.33351 0.37228 0.0
N222 N 0.48914 0.33955 0.2924 0.0
C223 C 0.48515 0.31907 0.24526 0.0
C224 C 0.49119 0.29923 0.29727 0.0
C225 C 0.50699 0.29584 0.45841 0.0
H226 H 0.49382 0.29895 0.5131 0.0
H227 H 0.52476 0.30335 0.4801 0.0
H228 H 0.50869 0.27603 0.4459 0.0
O229 O 0.47439 0.38026 0.46538 0.0
O230 O 0.4615 0.39002 0.33082 0.0
H231 H 0.46112 0.33121 0.14257 0.0
H232 H 0.47025 0.29988 0.13178 0.0
C233 C 0.4764 0.31832 0.15121 0.0
H234 H 0.49145 0.3236 0.10633 0.0
H235 H 0.44299 0.38105 0.13973 0.0
O236 O 0.50682 0.34728 0.57803 0.0
C237 C 0.45949 0.39124 0.415 0.0
Co238 Co 0.13884 0.5032 0.95909 0.0
Co239 Co 0.12569 0.48713 0.76573 0.0
C240 C 0.10832 0.53468 0.84577 0.0
O241 O 0.11991 0.53133 0.91773 0.0
O242 O 0.10886 0.51897 0.78353 0.0
C243 C 0.12856 0.51088 0.12959 0.0
O244 O 0.10806 0.51374 0.08608 0.0
C245 C 0.12872 0.49448 0.57453 0.0
C246 C 0.11425 0.45996 0.52127 0.0
C247 C 0.12351 0.48236 0.49641 0.0
N248 N 0.12317 0.47979 0.64282 0.0
N249 N 0.1146 0.45913 0.61064 0.0
C250 C 0.13716 0.52019 0.58454 0.0
H251 H 0.12185 0.53263 0.5692 0.0
H252 H 0.14347 0.52365 0.65338 0.0
H253 H 0.15206 0.5241 0.53697 0.0
C254 C 0.18903 0.49797 0.88769 0.0
N255 N 0.16469 0.49653 0.88014 0.0
N256 N 0.15911 0.48852 0.80022 0.0
C257 C 0.17984 0.48374 0.75564 0.0
C258 C 0.19939 0.48984 0.80905 0.0
C259 C 0.20187 0.50681 0.96898 0.0
H260 H 0.1971 0.49489 0.02579 0.0
H261 H 0.19542 0.5254 0.98538 0.0
H262 H 0.2219 0.50693 0.95974 0.0
O263 O 0.11732 0.47454 0.96845 0.0
O264 O 0.10803 0.46171 0.83353 0.0
H265 H 0.16646 0.46044 0.6521 0.0
H266 H 0.19888 0.46529 0.64927 0.0
C267 C 0.18108 0.47398 0.66292 0.0
H268 H 0.17879 0.48915 0.61531 0.0
H269 H 0.10867 0.44462 0.64965 0.0
O270 O 0.14809 0.50816 0.0851 0.0
C271 C 0.10645 0.45971 0.91751 0.0
Co272 Co 0.00199 0.63899 0.95698 0.0
Co273 Co 0.98638 0.62513 0.76407 0.0
C274 C 0.03378 0.6081 0.84635 0.0
O275 O 0.0304 0.62 0.91778 0.0
O276 O 0.01809 0.60833 0.78414 0.0
C277 C 0.01542 0.63492 0.13371 0.0
O278 O 0.02569 0.6153 0.10094 0.0
C279 C 0.9957 0.62583 0.57476 0.0
C280 C 0.95901 0.6222 0.51662 0.0
C281 C 0.98325 0.62577 0.49491 0.0
N282 N 0.97956 0.62269 0.64072 0.0
N283 N 0.95769 0.62017 0.60565 0.0
C284 C 0.02198 0.63163 0.5895 0.0
H285 H 0.02448 0.64072 0.65466 0.0
H286 H 0.02912 0.64349 0.53591 0.0
H287 H 0.03255 0.61444 0.58981 0.0
C288 C 0.99725 0.68876 0.88359 0.0
N289 N 0.99554 0.66442 0.87669 0.0
N290 N 0.98797 0.65868 0.79646 0.0
C291 C 0.98393 0.67935 0.75059 0.0
C292 C 0.98985 0.69899 0.80397 0.0
C293 C 0.00574 0.70173 0.96516 0.0
H294 H 0.99281 0.69809 0.02016 0.0
H295 H 0.0237 0.6944 0.98541 0.0
H296 H 0.00708 0.72164 0.95429 0.0
O297 O 0.97363 0.6172 0.96756 0.0
O298 O 0.96071 0.60792 0.83252 0.0
H299 H 0.96 0.66777 0.64669 0.0
H300 H 0.96963 0.699 0.63726 0.0
C301 C 0.97544 0.68042 0.65627 0.0
H302 H 0.99052 0.67497 0.61175 0.0
H303 H 0.94178 0.618 0.64261 0.0
O304 O 0.006 0.65022 0.08065 0.0
C305 C 0.95876 0.60635 0.91662 0.0
Co306 Co 0.85851 0.00314 0.46573 0.0
Co307 Co 0.87163 0.98763 0.27227 0.0
C308 C 0.89019 0.03431 0.35548 0.0
O309 O 0.87832 0.03105 0.42706 0.0
O310 O 0.88939 0.0188 0.29261 0.0
C311 C 0.86264 0.01683 0.64246 0.0
O312 O 0.88241 0.02688 0.6101 0.0
C313 C 0.8709 0.99699 0.0833 0.0
C314 C 0.87372 0.96024 0.0248 0.0
C315 C 0.87067 0.98456 0.00339 0.0
N316 N 0.87373 0.98078 0.14904 0.0
N317 N 0.87575 0.95886 0.1138 0.0
C318 C 0.86572 0.0234 0.09833 0.0
H319 H 0.8568 0.0261 0.16372 0.0
H320 H 0.85393 0.0308 0.04504 0.0
H321 H 0.88313 0.03359 0.09829 0.0
C322 C 0.8085 -0.00038 0.39358 0.0
N323 N 0.8328 0.99759 0.38577 0.0
N324 N 0.83822 0.99019 0.30499 0.0
C325 C 0.81739 0.9867 0.25953 0.0
C326 C 0.79801 0.99272 0.31385 0.0
C327 C 0.79579 0.00791 0.47598 0.0
H328 H 0.79824 0.99401 0.52858 0.0
H329 H 0.80423 0.02502 0.50002 0.0
H330 H 0.77607 0.01076 0.46424 0.0
O331 O 0.87943 0.97409 0.47561 0.0
O332 O 0.88806 0.96135 0.33969 0.0
H333 H 0.82817 0.96228 0.15585 0.0
H334 H 0.79704 0.97242 0.14799 0.0
C335 C 0.81583 0.97796 0.16558 0.0
H336 H 0.82138 0.99282 0.12028 0.0
H337 H 0.87762 0.94291 0.15062 0.0
O338 O 0.84736 0.00747 0.58917 0.0
C339 C 0.88971 0.95905 0.42361 0.0
Co340 Co 0.49532 0.85774 0.97295 0.0
Co341 Co 0.51106 0.87181 0.78011 0.0
C342 C 0.46419 0.88974 0.86466 0.0
O343 O 0.46726 0.87756 0.93554 0.0
O344 O 0.47982 0.88918 0.80217 0.0
C345 C 0.48162 0.8615 0.14995 0.0
O346 O 0.47109 0.881 0.11753 0.0
C347 C 0.50148 0.87141 0.59089 0.0
C348 C 0.53813 0.87491 0.53209 0.0
C349 C 0.51386 0.87139 0.51078 0.0
N350 N 0.51769 0.87452 0.65658 0.0
N351 N 0.53953 0.87699 0.62109 0.0
C352 C 0.4752 0.86564 0.60615 0.0
H353 H 0.4727 0.85692 0.67193 0.0
H354 H 0.46811 0.85347 0.55338 0.0
H355 H 0.46459 0.8828 0.60526 0.0
C356 C 0.4991 0.808 0.89643 0.0
N357 N 0.50113 0.83236 0.89095 0.0
N358 N 0.50882 0.83826 0.81099 0.0
C359 C 0.51264 0.81772 0.76399 0.0
C360 C 0.50642 0.79797 0.81617 0.0
C361 C 0.49062 0.79481 0.97748 0.0
H362 H 0.50397 0.79766 0.0317 0.0
H363 H 0.47303 0.8026 -0.00012 0.0
H364 H 0.48856 0.77503 0.96491 0.0
O365 O 0.52414 0.879 0.98371 0.0
O366 O 0.53714 0.8882 0.84865 0.0
H367 H 0.53691 0.82953 0.66138 0.0
H368 H 0.52731 0.79835 0.65036 0.0
C369 C 0.52144 0.81687 0.66994 0.0
H370 H 0.50649 0.82238 0.62507 0.0
H371 H 0.55548 0.8791 0.65776 0.0
O372 O 0.49126 0.84636 0.09661 0.0
C373 C 0.53919 0.88962 0.93274 0.0
Co374 Co 0.63891 0.49659 0.45963 0.0
Co375 Co 0.62499 0.51227 0.26688 0.0
C376 C 0.60802 0.46482 0.34935 0.0
O377 O 0.61993 0.46815 0.42072 0.0
O378 O 0.60827 0.48054 0.28724 0.0
C379 C 0.63497 0.48312 0.63647 0.0
O380 O 0.61542 0.4727 0.60393 0.0
C381 C 0.62576 0.50291 0.07758 0.0
C382 C 0.62188 0.53955 0.0193 0.0
C383 C 0.62561 0.51533 -0.00233 0.0
N384 N 0.6225 0.51904 0.14349 0.0
N385 N 0.61984 0.54089 0.10834 0.0
C386 C 0.63172 0.47666 0.09238 0.0
H387 H 0.64075 0.47423 0.15763 0.0
H388 H 0.6437 0.46961 0.03891 0.0
H389 H 0.61462 0.46597 0.09251 0.0
C390 C 0.68865 0.50132 0.38551 0.0
N391 N 0.66431 0.50308 0.379 0.0
N392 N 0.65854 0.51073 0.29894 0.0
C393 C 0.67918 0.51478 0.25282 0.0
C394 C 0.69884 0.50877 0.30581 0.0
C395 C 0.70166 0.49272 0.46674 0.0
H396 H 0.69825 0.50571 0.52178 0.0
H397 H 0.69418 0.47484 0.4873 0.0
H398 H 0.72154 0.49117 0.4553 0.0
O399 O 0.61704 0.52488 0.47035 0.0
O400 O 0.6077 0.53786 0.33551 0.0
H401 H 0.66745 0.53875 0.14932 0.0
H402 H 0.69877 0.52942 0.13985 0.0
C403 C 0.68023 0.52341 0.15867 0.0
H404 H 0.67495 0.50833 0.11386 0.0
H405 H 0.61756 0.55679 0.14526 0.0
O406 O 0.65019 0.49264 0.58324 0.0
C407 C 0.60612 0.53974 0.41964 0.0
Co408 Co -3e-05 0.85753 0.52816 0.0
Co409 Co 0.98712 0.87252 0.72231 0.0
C410 C 0.03251 0.89023 0.62504 0.0
O411 O 0.02866 0.87757 0.5557 0.0
O412 O 0.01773 0.88989 0.69025 0.0
C413 C 0.01725 0.85098 0.35017 0.0
O414 O 0.03754 0.86099 0.37787 0.0
C415 C 0.99827 0.87135 0.91246 0.0
C416 C 0.9619 0.87678 0.97139 0.0
C417 C 0.98584 0.87146 0.99296 0.0
N418 N 0.98219 0.87554 0.84691 0.0
N419 N 0.96058 0.87918 0.88271 0.0
C420 C 0.02491 0.86744 0.89721 0.0
H421 H 0.03093 0.87635 0.8354 0.0
H422 H 0.02862 0.84769 0.89065 0.0
H423 H 0.03569 0.87485 0.95328 0.0
C424 C 0.99733 0.80827 0.60708 0.0
N425 N 0.99556 0.83265 0.61238 0.0
N426 N 0.98873 0.83881 0.69307 0.0
C427 C 0.9851 0.81838 0.74086 0.0
C428 C 0.99068 0.79848 0.68831 0.0
C429 C 0.00469 0.79482 0.52507 0.0
H430 H 0.98988 0.79622 0.47532 0.0
H431 H 0.02112 0.80343 0.496 0.0
H432 H 0.00828 0.77535 0.53917 0.0
O433 O 0.97123 0.87902 0.52278 0.0
O434 O 0.95996 0.88874 0.65933 0.0
H435 H 0.96179 0.83117 0.84508 0.0
H436 H 0.96961 0.79941 0.85348 0.0
C437 C 0.97649 0.81768 0.83512 0.0
H438 H 0.99184 0.82209 0.87986 0.0
H439 H 0.94476 0.88235 0.84633 0.0
O440 O 0.00095 0.84524 0.40595 0.0
C441 C 0.95689 0.88993 0.57567 0.0
Co442 Co 0.63903 0.00079 0.04268 0.0
Co443 Co 0.62396 0.988 0.23697 0.0
C444 C 0.60632 0.03341 0.14063 0.0
O445 O 0.61895 0.02941 0.07126 0.0
O446 O 0.60659 0.01869 0.20597 0.0
C447 C 0.64491 0.01781 0.86427 0.0
O448 O 0.63414 0.03778 0.89143 0.0
C449 C 0.62324 0.99844 0.42819 0.0
C450 C 0.62239 0.96135 0.48416 0.0
C451 C 0.62493 0.98563 0.50751 0.0
N452 N 0.62091 0.98235 0.36133 0.0
N453 N 0.61986 0.96027 0.39546 0.0
C454 C 0.62369 0.02544 0.41538 0.0
H455 H 0.61191 0.03072 0.35938 0.0
H456 H 0.64252 0.03136 0.39997 0.0
H457 H 0.61712 0.03505 0.47557 0.0
C458 C 0.68824 0.99816 0.12103 0.0
N459 N 0.66388 0.99633 0.12675 0.0
N460 N 0.65777 0.99 0.20799 0.0
C461 C 0.67825 0.98705 0.25617 0.0
C462 C 0.69813 0.99223 0.20284 0.0
C463 C 0.70153 0.00489 0.03798 0.0
H464 H 0.69822 0.99074 0.98681 0.0
H465 H 0.69421 0.02229 0.012 0.0
H466 H 0.72139 0.00658 0.04945 0.0
O467 O 0.6178 0.97201 0.03635 0.0
O468 O 0.60788 0.9608 0.17263 0.0
H469 H 0.66746 0.96405 0.36376 0.0
H470 H 0.69762 0.97643 0.37563 0.0
C471 C 0.67891 0.98031 0.3524 0.0
H472 H 0.67171 0.9956 0.39236 0.0
H473 H 0.61863 0.94438 0.3578 0.0
O474 O 0.65135 0.00193 0.92052 0.0
C475 C 0.60688 0.95766 0.08894 0.0
Co476 Co 0.49433 0.63873 0.54112 0.0
Co477 Co 0.51035 0.62511 0.7341 0.0
C478 C 0.463 0.60763 0.65322 0.0
O479 O 0.46632 0.61947 0.58178 0.0
O480 O 0.47866 0.60808 0.71553 0.0
C481 C 0.4869 0.6284 0.37081 0.0
O482 O 0.48416 0.60794 0.41469 0.0
C483 C 0.50285 0.62762 0.92543 0.0
C484 C 0.53769 0.61393 0.97838 0.0
C485 C 0.51511 0.62274 0.00345 0.0
N486 N 0.51763 0.62235 0.857 0.0
N487 N 0.53846 0.61422 0.889 0.0
C488 C 0.47699 0.63561 0.9156 0.0
H489 H 0.46484 0.61996 0.92946 0.0
H490 H 0.47353 0.64222 0.84716 0.0
H491 H 0.47267 0.65015 0.96417 0.0
C492 C 0.49886 0.6888 0.61517 0.0
N493 N 0.50066 0.66444 0.62124 0.0
N494 N 0.50869 0.65863 0.70089 0.0
C495 C 0.51314 0.67923 0.7467 0.0
C496 C 0.50677 0.69892 0.69451 0.0
C497 C 0.48984 0.70187 0.53472 0.0
H498 H 0.5014 0.697 0.47696 0.0
H499 H 0.47108 0.69571 0.51958 0.0
H500 H 0.49003 0.72188 0.54435 0.0
O501 O 0.5232 0.61751 0.5313 0.0
O502 O 0.536 0.60786 0.66581 0.0
H503 H 0.5365 0.66572 0.8497 0.0
H504 H 0.53124 0.69803 0.85439 0.0
C505 C 0.52279 0.6802 0.83959 0.0
H506 H 0.50759 0.67755 0.88692 0.0
H507 H 0.5531 0.60864 0.84985 0.0
O508 O 0.48941 0.64801 0.41498 0.0
C509 C 0.53808 0.60658 0.58177 0.0
Co510 Co 0.85831 0.49574 0.03653 0.0
Co511 Co 0.87231 0.5113 0.22945 0.0
C512 C 0.88941 0.464 0.14607 0.0
O513 O 0.87742 0.46735 0.07491 0.0
O514 O 0.88914 0.47965 0.2085 0.0
C515 C 0.86211 0.4821 0.8596 0.0
O516 O 0.88158 0.47152 0.892 0.0
C517 C 0.87153 0.50187 0.41862 0.0
C518 C 0.87544 0.53849 0.47729 0.0
C519 C 0.87167 0.51426 0.49866 0.0
N520 N 0.87483 0.51801 0.35289 0.0
N521 N 0.87752 0.53985 0.38827 0.0
C522 C 0.86553 0.47563 0.40351 0.0
H523 H 0.85657 0.47323 0.33809 0.0
H524 H 0.85347 0.4686 0.45674 0.0
H525 H 0.88261 0.4649 0.40357 0.0
C526 C 0.80858 0.50052 0.11085 0.0
N527 N 0.83294 0.50213 0.11741 0.0
N528 N 0.83875 0.50971 0.19758 0.0
C529 C 0.81813 0.51386 0.24374 0.0
C530 C 0.79844 0.508 0.19064 0.0
C531 C 0.79552 0.49217 0.02935 0.0
H532 H 0.79887 0.50534 0.97493 0.0
H533 H 0.803 0.47437 0.00782 0.0
H534 H 0.77565 0.49057 0.04094 0.0
O535 O 0.88011 0.5241 0.02602 0.0
O536 O 0.88946 0.53699 0.16107 0.0
H537 H 0.82993 0.53789 0.34708 0.0
H538 H 0.7986 0.5286 0.35676 0.0
C539 C 0.81712 0.52256 0.33786 0.0
H540 H 0.82241 0.50751 0.3827 0.0
H541 H 0.87982 0.55576 0.35154 0.0
O542 O 0.847 0.49178 0.91293 0.0
C543 C 0.891 0.53896 0.07697 0.0
C544 C 0.92598 0.40852 0.08109 0.0
C545 C 0.94231 0.40657 0.15251 0.0
H546 H 0.89635 0.42799 0.02333 0.0
C547 C 0.93918 0.42186 0.22652 0.0
H548 H 0.92771 0.39691 0.0233 0.0
C549 C 0.92112 0.43975 0.22655 0.0
C550 C 0.90582 0.44272 0.15255 0.0
H551 H 0.95129 0.42072 0.28303 0.0
H552 H 0.91984 0.45188 0.28306 0.0
C553 C 0.90795 0.42638 0.08111 0.0
C554 C 0.07566 0.93943 0.70253 0.0
C555 C 0.08979 0.94345 0.6261 0.0
H556 H 0.04672 0.91939 0.76249 0.0
C557 C 0.08639 0.92827 0.55195 0.0
H558 H 0.07791 0.95064 0.76114 0.0
C559 C 0.06843 0.91027 0.55274 0.0
C560 C 0.0535 0.90709 0.62769 0.0
H561 H 0.09703 0.93078 0.49213 0.0
H562 H 0.06573 0.89944 0.49348 0.0
C563 C 0.05774 0.92147 0.70333 0.0
C564 C 0.57421 0.05831 0.21623 0.0
C565 C 0.58961 0.05453 0.14291 0.0
H566 H 0.54436 0.07828 0.27064 0.0
C567 C 0.58763 0.07012 0.06933 0.0
H568 H 0.57527 0.04673 0.27422 0.0
C569 C 0.56983 0.08824 0.06723 0.0
C570 C 0.55361 0.09118 0.13867 0.0
H571 H 0.59929 0.06784 0.01192 0.0
H572 H 0.56827 0.09936 0.00819 0.0
C573 C 0.55643 0.07643 0.21417 0.0
C574 C 0.40762 0.57107 0.58778 0.0
C575 C 0.40593 0.55433 0.65798 0.0
H576 H 0.42673 0.60115 0.53163 0.0
C577 C 0.42135 0.55716 0.73173 0.0
H578 H 0.39589 0.56958 0.53027 0.0
C579 C 0.43912 0.57536 0.73255 0.0
C580 C 0.44182 0.59108 0.65963 0.0
H581 H 0.42041 0.54472 0.78733 0.0
H582 H 0.45138 0.5764 0.78868 0.0
C583 C 0.42534 0.58922 0.5886 0.0
C584 C 0.92201 0.05827 0.27407 0.0
C585 C 0.90682 0.05541 0.34852 0.0
H586 H 0.95198 0.07737 0.21614 0.0
C587 C 0.90907 0.07184 0.4196 0.0
H588 H 0.92065 0.04605 0.21784 0.0
C589 C 0.92701 0.08979 0.41859 0.0
C590 C 0.94315 0.09175 0.34651 0.0
H591 H 0.89755 0.07032 0.47771 0.0
H592 H 0.92876 0.10154 0.476 0.0
C593 C 0.93999 0.07626 0.27307 0.0
C594 C 0.4403 0.92132 0.78258 0.0
C595 C 0.44323 0.90654 0.85794 0.0
H596 H 0.42139 0.95102 0.72299 0.0
C597 C 0.42708 0.90944 0.92966 0.0
H598 H 0.45231 0.9195 0.72591 0.0
C599 C 0.40926 0.92754 0.92793 0.0
C600 C 0.40718 0.94316 0.85445 0.0
H601 H 0.42872 0.89829 0.98861 0.0
H602 H 0.39767 0.9298 0.98552 0.0
C603 C 0.42251 0.93942 0.78089 0.0
C604 C 0.57658 0.44045 0.26779 0.0
C605 C 0.59178 0.44342 0.34207 0.0
H606 H 0.54669 0.42118 0.21022 0.0
C607 C 0.58977 0.42691 0.4129 0.0
H608 H 0.57777 0.45271 0.21171 0.0
C609 C 0.57196 0.40883 0.41203 0.0
C610 C 0.55572 0.40684 0.34031 0.0
H611 H 0.60131 0.42852 0.47087 0.0
H612 H 0.57031 0.39707 0.46937 0.0
C613 C 0.55874 0.42235 0.26692 0.0
C614 C 0.0719 0.59031 0.90965 0.0
C615 C 0.05523 0.59191 0.83919 0.0
H616 H 0.10187 0.57121 0.96655 0.0
C617 C 0.05812 0.57638 0.76568 0.0
H618 H 0.07038 0.60213 0.96697 0.0
C619 C 0.07627 0.55857 0.7654 0.0
C620 C 0.09189 0.55594 0.83864 0.0
H621 H 0.04573 0.57726 0.7099 0.0
H622 H 0.07734 0.54621 0.70949 0.0
C623 C 0.09001 0.57254 0.90937 0.0
C624 C 0.06017 0.40913 0.94374 0.0
C625 C 0.05769 0.40782 0.03675 0.0
H626 H 0.07752 0.42634 0.83307 0.0
C627 C 0.07254 0.42262 0.08995 0.0
H628 H 0.0491 0.39791 0.90059 0.0
C629 C 0.08884 0.43894 0.05104 0.0
C630 C 0.09071 0.44083 0.95797 0.0
H631 H 0.07115 0.42206 0.16167 0.0
H632 H 0.09958 0.45048 0.0942 0.0
C633 C 0.0765 0.42542 0.90482 0.0
C634 C 0.07755 0.07393 0.58742 0.0
C635 C 0.09234 0.05947 0.53274 0.0
H636 H 0.04942 0.10067 0.59427 0.0
C637 C 0.091 0.06256 0.44002 0.0
H638 H 0.07816 0.07208 0.65898 0.0
C639 C 0.07449 0.07893 0.40273 0.0
C640 C 0.05892 0.0926 0.45725 0.0
H641 H 0.10225 0.05186 0.39577 0.0
H642 H 0.07347 0.08032 0.33109 0.0
C643 C 0.06102 0.09031 0.55011 0.0
C644 C 0.43688 0.09018 0.93044 0.0
C645 C 0.43849 0.09282 0.02334 0.0
H646 H 0.42023 0.07161 0.82117 0.0
C647 C 0.42257 0.07943 0.07732 0.0
H648 H 0.44878 0.10032 0.88668 0.0
C649 C 0.40618 0.06301 0.03958 0.0
C650 C 0.40532 0.05955 0.94694 0.0
H651 H 0.4232 0.0811 0.14896 0.0
H652 H 0.39464 0.05254 0.08351 0.0
C653 C 0.42047 0.07373 0.89267 0.0
C654 C 0.42201 0.42398 0.58968 0.0
C655 C 0.40741 0.43925 0.53754 0.0
H656 H 0.44976 0.3968 0.59204 0.0
C657 C 0.4089 0.43738 0.44434 0.0
H658 H 0.42129 0.42486 0.66149 0.0
C659 C 0.42523 0.42128 0.40429 0.0
C660 C 0.44049 0.40667 0.45646 0.0
H661 H 0.39782 0.44878 0.40194 0.0
H662 H 0.42631 0.42076 0.3325 0.0
C663 C 0.43837 0.40789 0.54963 0.0
C664 C 0.92129 0.57295 0.08939 0.0
C665 C 0.90671 0.55784 0.0364 0.0
H666 H 0.949 0.60015 0.09329 0.0
C667 C 0.90825 0.55999 0.94333 0.0
H668 H 0.92053 0.57184 0.16115 0.0
C669 C 0.92459 0.57625 0.9042 0.0
C670 C 0.93981 0.59071 0.95719 0.0
H671 H 0.8972 0.54872 0.90031 0.0
H672 H 0.9257 0.57701 0.83245 0.0
C673 C 0.93765 0.58918 0.05027 0.0
C674 C 0.93446 0.907 0.44501 0.0
C675 C 0.93763 0.90563 0.5377 0.0
H676 H 0.91686 0.92477 0.33625 0.0
C677 C 0.92345 0.92066 0.5925 0.0
H678 H 0.94496 0.89557 0.40068 0.0
C679 C 0.90729 0.93743 0.55535 0.0
C680 C 0.90494 0.93954 0.46252 0.0
H681 H 0.92535 0.92005 0.66404 0.0
H682 H 0.89714 0.9492 0.59961 0.0
C683 C 0.91832 0.92375 0.40787 0.0
C684 C 0.59074 0.9348 0.95763 0.0
C685 C 0.5915 0.93819 0.05032 0.0
H686 H 0.57382 0.91683 0.8478 0.0
C687 C 0.57626 0.924 0.1042 0.0
H688 H 0.60236 0.94528 0.91398 0.0
C689 C 0.55987 0.90761 0.066 0.0
C690 C 0.55836 0.90504 0.97304 0.0
H691 H 0.57642 0.92608 0.17573 0.0
H692 H 0.5479 0.89746 0.10948 0.0
C693 C 0.57436 0.91844 0.91945 0.0
C694 C 0.57543 0.57339 0.40793 0.0
C695 C 0.59033 0.55853 0.46054 0.0
H696 H 0.54736 0.60023 0.40478 0.0
C697 C 0.58903 0.56079 0.55364 0.0
H698 H 0.57597 0.57217 0.33616 0.0
C699 C 0.57263 0.57691 0.59321 0.0
C700 C 0.5571 0.59112 0.54065 0.0
H701 H 0.60034 0.54971 0.59637 0.0
H702 H 0.57171 0.57776 0.665 0.0
C703 C 0.55899 0.58948 0.44749 0.0
C704 C 0.98534 0.26173 0.23161 0.0
C705 C 0.00746 0.27377 0.2171 0.0
H706 H 0.96799 0.22865 0.27338 0.0
C707 C 0.02943 0.26169 0.23391 0.0
H708 H 0.96824 0.27094 0.21971 0.0
C709 C 0.02928 0.23771 0.2644 0.0
C710 C 0.00717 0.2257 0.27935 0.0
H711 H 0.04664 0.27084 0.22361 0.0
H712 H 0.04639 0.22848 0.27599 0.0
C713 C 0.98519 0.23781 0.263 0.0
C714 C 0.25947 0.98385 0.76976 0.0
C715 C 0.27282 0.00558 0.7693 0.0
H716 H 0.2253 0.96669 0.74047 0.0
C717 C 0.26185 0.02706 0.73902 0.0
H718 H 0.26773 0.96709 0.79246 0.0
C719 C 0.23782 0.0268 0.70908 0.0
C720 C 0.2246 0.00503 0.70868 0.0
H721 H 0.27192 0.04399 0.73832 0.0
H722 H 0.22951 0.04356 0.68663 0.0
C723 C 0.23546 0.98357 0.73942 0.0
C724 C 0.4691 0.2617 0.25248 0.0
C725 C 0.49117 0.27357 0.2695 0.0
H726 H 0.45184 0.22879 0.2088 0.0
C727 C 0.51319 0.26145 0.25367 0.0
H728 H 0.45197 0.27092 0.26371 0.0
C729 C 0.51312 0.23765 0.22086 0.0
C730 C 0.49103 0.22575 0.20434 0.0
H731 H 0.53037 0.27051 0.26565 0.0
H732 H 0.53024 0.22841 0.20965 0.0
C733 C 0.46903 0.23786 0.22047 0.0
C734 C 0.26122 0.51127 0.73424 0.0
C735 C 0.2733 0.4891 0.72108 0.0
H736 H 0.2281 0.52878 0.77484 0.0
C737 C 0.26123 0.46721 0.73928 0.0
H738 H 0.27041 0.52833 0.72126 0.0
C739 C 0.23724 0.46747 0.76981 0.0
C740 C 0.22519 0.48963 0.78326 0.0
H741 H 0.27039 0.44995 0.72999 0.0
H742 H 0.22804 0.4504 0.78252 0.0
C743 C 0.23729 0.51154 0.76561 0.0
C744 C 0.01243 0.76074 0.73282 0.0
C745 C 0.99049 0.77282 0.71554 0.0
H746 H 0.02929 0.72762 0.77661 0.0
C747 C 0.96835 0.76081 0.72974 0.0
H748 H 0.02966 0.7699 0.72294 0.0
C749 C 0.96813 0.73683 0.76021 0.0
C750 C 0.99006 0.72475 0.7777 0.0
H751 H 0.95127 0.77002 0.71736 0.0
H752 H 0.9509 0.72766 0.76982 0.0
C753 C 0.01221 0.73682 0.76416 0.0
C754 C 0.76099 0.01446 0.2621 0.0
C755 C 0.77218 0.99279 0.28911 0.0
H756 H 0.72846 0.0311 0.21194 0.0
C757 C 0.7592 0.97089 0.28588 0.0
H758 H 0.77096 0.03145 0.26322 0.0
C759 C 0.73511 0.97068 0.25663 0.0
C760 C 0.72387 0.99233 0.22954 0.0
H761 H 0.76776 0.95399 0.30546 0.0
H762 H 0.72523 0.95364 0.25506 0.0
C763 C 0.73694 0.01422 0.23216 0.0
C764 C 0.52851 0.76048 0.77086 0.0
C765 C 0.50644 0.77229 0.78863 0.0
H766 H 0.54579 0.72774 0.72564 0.0
C767 C 0.48443 0.76016 0.77292 0.0
H768 H 0.54564 0.76972 0.78187 0.0
C769 C 0.48451 0.73643 0.73944 0.0
C770 C 0.50661 0.7246 0.7221 0.0
H771 H 0.46724 0.76917 0.78534 0.0
H772 H 0.46739 0.72717 0.72829 0.0
C773 C 0.52859 0.73673 0.73809 0.0
C774 C 0.76045 0.48621 0.23261 0.0
C775 C 0.77269 0.50817 0.21702 0.0
H776 H 0.72721 0.46932 0.27527 0.0
C777 C 0.76077 0.5303 0.23264 0.0
H778 H 0.76952 0.46898 0.22166 0.0
C779 C 0.73678 0.53049 0.26307 0.0
C780 C 0.72458 0.50855 0.27914 0.0
H781 H 0.77009 0.54739 0.22155 0.0
H782 H 0.7277 0.54773 0.27388 0.0
C783 C 0.73651 0.4864 0.26395 0.0
C784 C 0.00868 0.34997 0.73396 0.0
C785 C 0.98793 0.36243 0.76399 0.0
H786 H 0.03345 0.34396 0.62615 0.0
C787 C 0.97492 0.37706 0.70411 0.0
H788 H 0.01924 0.33878 0.77878 0.0
C789 C 0.983 0.37988 0.61678 0.0
C790 C 0.00437 0.36835 0.58819 0.0
H791 H 0.95896 0.38701 0.72562 0.0
H792 H 0.97312 0.39192 0.57284 0.0
C793 C 0.01698 0.35314 0.64704 0.0
C794 C 0.14657 0.98194 0.0951 0.0
C795 C 0.13161 0.00231 0.07922 0.0
H796 H 0.16228 0.95812 0.19275 0.0
C797 C 0.12232 0.01524 0.15218 0.0
H798 H 0.15534 0.97232 0.04147 0.0
C799 C 0.12742 0.00778 0.23846 0.0
C800 C 0.14162 0.98704 0.25381 0.0
H801 H 0.11095 0.03111 0.14275 0.0
H802 H 0.1198 0.01797 0.29347 0.0
C803 C 0.15106 0.97402 0.18185 0.0
C804 C 0.52219 0.122 0.6898 0.0
C805 C 0.50945 0.13683 0.74996 0.0
H806 H 0.52369 0.10713 0.55842 0.0
C807 C 0.4889 0.14965 0.72024 0.0
H808 H 0.53799 0.11179 0.71105 0.0
C809 C 0.48051 0.14663 0.63339 0.0
C810 C 0.49284 0.13121 0.57428 0.0
H811 H 0.47854 0.16101 0.76526 0.0
H812 H 0.46419 0.15608 0.61277 0.0
C813 C 0.51403 0.11932 0.60254 0.0
C814 C 0.35271 0.47951 0.1507 0.0
C815 C 0.36793 0.49203 0.09154 0.0
H816 H 0.33838 0.47739 0.28264 0.0
C817 C 0.37956 0.51337 0.11988 0.0
H818 H 0.34346 0.46306 0.13004 0.0
C819 C 0.37681 0.52151 0.20721 0.0
C820 C 0.36214 0.50861 0.26736 0.0
H821 H 0.39161 0.5232 0.07573 0.0
H822 H 0.38682 0.53745 0.22849 0.0
C823 C 0.34959 0.48788 0.23761 0.0
C824 C 0.97481 0.12254 0.79232 0.0
C825 C 0.98781 0.1372 0.73241 0.0
H826 H 0.97305 0.10763 0.92349 0.0
C827 C 0.00851 0.14973 0.76241 0.0
H828 H 0.95889 0.11256 0.77086 0.0
C829 C 0.0168 0.14657 0.84927 0.0
C830 C 0.00424 0.13129 0.90809 0.0
H831 H 0.01905 0.16096 0.7176 0.0
H832 H 0.03324 0.15579 0.87011 0.0
C833 C 0.9829 0.11971 0.87959 0.0
C834 C 0.36853 0.00966 0.2404 0.0
C835 C 0.35578 0.98795 0.22536 0.0
H836 H 0.38422 0.03373 0.33571 0.0
C837 C 0.34805 0.97398 0.29762 0.0
H838 H 0.37486 0.0206 0.18524 0.0
C839 C 0.35279 0.98187 0.38426 0.0
C840 C 0.36644 0.00318 0.3996 0.0
H841 H 0.33797 0.9573 0.28707 0.0
H842 H 0.34526 0.97147 0.43847 0.0
C843 C 0.37397 0.01709 0.3265 0.0
C844 C 0.52381 0.37629 0.78678 0.0
C845 C 0.51065 0.36176 0.72687 0.0
H846 H 0.52574 0.39128 0.91792 0.0
C847 C 0.48973 0.3496 0.75688 0.0
H848 H 0.5399 0.38602 0.76531 0.0
C849 C 0.48143 0.35296 0.84376 0.0
C850 C 0.49419 0.36808 0.90263 0.0
H851 H 0.47904 0.33851 0.71205 0.0
H852 H 0.46483 0.34401 0.86459 0.0
C853 C 0.51572 0.37931 0.87405 0.0
C854 C 0.14878 0.50534 0.27826 0.0
C855 C 0.12763 0.50598 0.22599 0.0
H856 H 0.16395 0.49755 0.40672 0.0
C857 C 0.10518 0.49993 0.26511 0.0
H858 H 0.16631 0.50978 0.24975 0.0
C859 C 0.10397 0.49255 0.35341 0.0
C860 C 0.12504 0.49164 0.40513 0.0
H861 H 0.08854 0.50002 0.22672 0.0
H862 H 0.08654 0.48736 0.3812 0.0
C863 C 0.14744 0.49842 0.36771 0.0
C864 C 0.01426 0.61831 0.37664 0.0
C865 C 0.99302 0.6301 0.40513 0.0
H866 H 0.03823 0.61086 0.26786 0.0
C867 C 0.98058 0.64541 0.34615 0.0
H868 H 0.02401 0.6062 0.42068 0.0
C869 C 0.98893 0.64845 0.25923 0.0
C870 C 0.00955 0.63574 0.2293 0.0
H871 H 0.96421 0.65479 0.36696 0.0
H872 H 0.9785 0.65974 0.21432 0.0
C873 C 0.02238 0.62099 0.28929 0.0
C874 C 0.85107 0.98236 0.85458 0.0
C875 C 0.86662 0.99445 0.91375 0.0
H876 H 0.83684 0.98057 0.72261 0.0
C877 C 0.87892 0.01541 0.88555 0.0
H878 H 0.84129 0.96622 0.87521 0.0
C879 C 0.87652 0.02357 0.79822 0.0
C880 C 0.86156 0.01105 0.738 0.0
H881 H 0.89122 0.02488 0.92979 0.0
H882 H 0.88704 0.03917 0.77699 0.0
C883 C 0.84832 0.99075 0.76768 0.0
C884 C 0.51662 0.85154 0.36216 0.0
C885 C 0.50406 0.86681 0.42117 0.0
H886 H 0.51881 0.8371 0.2304 0.0
C887 C 0.48267 0.87831 0.39283 0.0
H888 H 0.5331 0.84238 0.38282 0.0
C889 C 0.47453 0.87542 0.30562 0.0
C890 C 0.4875 0.86076 0.24555 0.0
H891 H 0.47281 0.89039 0.43684 0.0
H892 H 0.45856 0.88535 0.28432 0.0
C893 C 0.50826 0.84831 0.27535 0.0
C894 C 0.6184 0.48421 0.87957 0.0
C895 C 0.63002 0.50556 0.90788 0.0
H896 H 0.61113 0.46015 0.77094 0.0
C897 C 0.64522 0.51811 0.84872 0.0
H898 H 0.60637 0.47438 0.92374 0.0
C899 C 0.64831 0.50976 0.76179 0.0
C900 C 0.63577 0.48903 0.73205 0.0
H901 H 0.65446 0.53456 0.86938 0.0
H902 H 0.6595 0.52027 0.71674 0.0
C903 C 0.62113 0.47609 0.79222 0.0
C904 C 0.02256 0.84585 0.18635 0.0
C905 C 0.00947 0.85514 0.25843 0.0
H906 H 0.0245 0.84204 0.04587 0.0
C907 C 0.9889 0.86959 0.24317 0.0
H908 H 0.03835 0.83447 0.19715 0.0
C909 C 0.98167 0.87507 0.15693 0.0
C910 C 0.99464 0.8659 0.08384 0.0
H911 H 0.97866 0.87713 0.29823 0.0
H912 H 0.96592 0.88661 0.14764 0.0
C913 C 0.01486 0.85072 0.09959 0.0
C914 C 0.64882 0.02368 0.7003 0.0
C915 C 0.64114 0.0097 0.77259 0.0
H916 H 0.65153 0.02623 0.55947 0.0
C917 C 0.62841 0.98798 0.75757 0.0
H918 H 0.65888 0.04037 0.71082 0.0
C919 C 0.62292 0.98056 0.67148 0.0
C920 C 0.63038 0.9945 0.59834 0.0
H921 H 0.62212 0.97701 0.81274 0.0
H922 H 0.61267 0.96392 0.66232 0.0
C923 C 0.64404 0.01581 0.61366 0.0
C924 C 0.49883 0.6468 0.13165 0.0
C925 C 0.50597 0.62441 0.09497 0.0
H926 H 0.48725 0.66582 0.24912 0.0
C927 C 0.50559 0.6035 0.14768 0.0
H928 H 0.49932 0.6632 0.0919 0.0
C929 C 0.49833 0.60487 0.23612 0.0
C930 C 0.49186 0.62731 0.27442 0.0
H931 H 0.51111 0.5861 0.12053 0.0
H932 H 0.49865 0.58835 0.27523 0.0
C933 C 0.49202 0.6483 0.22125 0.0
C934 C 0.85202 0.5171 0.64754 0.0
C935 C 0.86718 0.5045 0.58833 0.0
H936 H 0.83773 0.51934 0.77948 0.0
C937 C 0.87869 0.48309 0.61653 0.0
H938 H 0.84286 0.5336 0.62697 0.0
C939 C 0.8759 0.47498 0.70381 0.0
C940 C 0.86133 0.48799 0.76404 0.0
H941 H 0.89069 0.4732 0.57233 0.0
H942 H 0.88583 0.45899 0.725 0.0
C943 C 0.84888 0.50877 0.7344 0.0
loop_
_geom_bond_atom_site_label_1
_geom_bond_atom_site_label_2
_geom_bond_distance
_geom_bond_site_symmetry_2
_ccdc_geom_bond_type
Co0 O3 1.970 1_455 S
Co0 N17 1.989 . S
Co0 O25 1.967 . S
Co0 O32 1.920 1_554 S
Co1 O4 1.966 1_455 S
Co1 N10 2.022 . S
Co1 N18 1.993 . S
Co1 O26 1.941 . S
C2 O3 1.258 . S
C2 O4 1.263 . S
O3 Co0 1.970 1_655 S
O3 C2 1.258 . S
O4 Co1 1.966 1_655 S
O4 C2 1.263 . S
C5 O6 1.235 . S
C5 O32 1.289 1_655 S
O6 C5 1.235 . S
C7 C9 1.400 . S
C7 N10 1.351 . S
C7 C12 1.501 1_455 S
C8 C9 1.387 . S
C8 N11 1.341 . S
C9 C7 1.400 . S
C9 C8 1.387 . S
N10 Co1 2.022 . S
N10 C7 1.351 . S
N10 N11 1.365 . S
N11 C8 1.341 . S
N11 N10 1.365 . S
N11 H31 0.862 . S
C12 C7 1.501 1_655 S
C12 H13 0.961 . S
C12 H14 0.961 . S
C12 H15 0.960 . S
H13 C12 0.961 . S
H14 C12 0.961 . S
H15 C12 0.960 . S
C16 N17 1.342 . S
C16 C20 1.401 . S
C16 C21 1.497 1_554 S
N17 Co0 1.989 . S
N17 C16 1.342 . S
N17 N18 1.388 . S
N18 Co1 1.993 . S
N18 N17 1.388 . S
N18 C19 1.346 . S
C19 N18 1.346 . S
C19 C20 1.396 . S
C19 C29 1.510 . S
C20 C16 1.401 . S
C20 C19 1.396 . S
C21 C16 1.497 1_556 S
C21 H22 0.960 . S
C21 H23 0.960 . S
C21 H24 0.961 . S
H22 C21 0.960 . S
H23 C21 0.960 . S
H24 C21 0.961 . S
O25 Co0 1.967 . S
O25 C33 1.258 . S
O26 Co1 1.941 . S
O26 C33 1.266 . S
H27 C29 0.959 . S
H28 C29 0.961 . S
C29 C19 1.510 . S
C29 H27 0.959 . S
C29 H28 0.961 . S
C29 H30 0.960 . S
H30 C29 0.960 . S
H31 N11 0.862 . S
O32 Co0 1.920 1_556 S
O32 C5 1.289 1_455 S
C33 O25 1.258 . S
C33 O26 1.266 . S
Co34 O37 1.970 1_545 S
Co34 N51 1.989 . S
Co34 O59 1.967 . S
Co34 O66 1.920 . S
Co35 O38 1.966 1_545 S
Co35 N44 2.022 . S
Co35 N52 1.993 . S
Co35 O60 1.941 . S
C36 O37 1.258 . S
C36 O38 1.263 . S
O37 Co34 1.970 1_565 S
O37 C36 1.258 . S
O38 Co35 1.966 1_565 S
O38 C36 1.263 . S
C39 O40 1.235 . S
C39 O66 1.289 1_565 S
O40 C39 1.235 . S
C41 C43 1.400 1_556 S
C41 N44 1.351 . S
C41 C46 1.501 1_545 S
C42 C43 1.387 . S
C42 N45 1.341 1_554 S
C43 C41 1.400 1_554 S
C43 C42 1.387 . S
N44 Co35 2.022 . S
N44 C41 1.351 . S
N44 N45 1.365 . S
N45 C42 1.341 1_556 S
N45 N44 1.365 . S
N45 H65 0.862 . S
C46 C41 1.501 1_565 S
C46 H47 0.961 . S
C46 H48 0.961 . S
C46 H49 0.960 . S
H47 C46 0.961 . S
H48 C46 0.961 . S
H49 C46 0.960 . S
C50 N51 1.342 . S
C50 C54 1.401 . S
C50 C55 1.499 . S
N51 Co34 1.989 . S
N51 C50 1.342 . S
N51 N52 1.388 . S
N52 Co35 1.993 . S
N52 N51 1.388 . S
N52 C53 1.346 . S
C53 N52 1.346 . S
C53 C54 1.396 . S
C53 C63 1.510 . S
C54 C50 1.401 . S
C54 C53 1.396 . S
C55 C50 1.499 . S
C55 H56 0.959 . S
C55 H57 0.960 . S
C55 H58 0.961 . S
H56 C55 0.959 . S
H57 C55 0.960 . S
H58 C55 0.961 . S
O59 Co34 1.967 . S
O59 C67 1.258 . S
O60 Co35 1.941 . S
O60 C67 1.266 . S
H61 C63 0.959 . S
H62 C63 0.961 . S
C63 C53 1.510 . S
C63 H61 0.959 . S
C63 H62 0.961 . S
C63 H64 0.960 . S
H64 C63 0.960 . S
H65 N45 0.862 . S
O66 Co34 1.920 . S
O66 C39 1.289 1_545 S
C67 O59 1.258 . S
C67 O60 1.266 . S
Co68 O71 1.970 . S
Co68 N85 1.989 . S
Co68 O93 1.967 . S
Co68 O100 1.920 1_554 S
Co69 O72 1.966 . S
Co69 N78 2.022 . S
Co69 N86 1.993 . S
Co69 O94 1.941 . S
C70 O71 1.258 . S
C70 O72 1.263 . S
O71 Co68 1.970 . S
O71 C70 1.258 . S
O72 Co69 1.966 . S
O72 C70 1.263 . S
C73 O74 1.235 . S
C73 O100 1.289 . S
O74 C73 1.235 . S
C75 C77 1.400 . S
C75 N78 1.351 . S
C75 C80 1.501 . S
C76 C77 1.387 . S
C76 N79 1.341 . S
C77 C75 1.400 . S
C77 C76 1.387 . S
N78 Co69 2.022 . S
N78 C75 1.351 . S
N78 N79 1.365 . S
N79 C76 1.341 . S
N79 N78 1.365 . S
N79 H99 0.862 . S
C80 C75 1.501 . S
C80 H81 0.961 . S
C80 H82 0.961 . S
C80 H83 0.960 . S
H81 C80 0.961 . S
H82 C80 0.961 . S
H83 C80 0.960 . S
C84 N85 1.342 . S
C84 C88 1.401 . S
C84 C89 1.497 1_554 S
N85 Co68 1.989 . S
N85 C84 1.342 . S
N85 N86 1.388 . S
N86 Co69 1.993 . S
N86 N85 1.388 . S
N86 C87 1.346 . S
C87 N86 1.346 . S
C87 C88 1.396 . S
C87 C97 1.510 . S
C88 C84 1.401 . S
C88 C87 1.396 . S
C89 C84 1.497 1_556 S
C89 H90 0.960 . S
C89 H91 0.960 . S
C89 H92 0.961 . S
H90 C89 0.960 . S
H91 C89 0.960 . S
H92 C89 0.961 . S
O93 Co68 1.967 . S
O93 C101 1.258 . S
O94 Co69 1.941 . S
O94 C101 1.266 . S
H95 C97 0.959 . S
H96 C97 0.961 . S
C97 C87 1.510 . S
C97 H95 0.959 . S
C97 H96 0.961 . S
C97 H98 0.960 . S
H98 C97 0.960 . S
H99 N79 0.862 . S
O100 Co68 1.920 1_556 S
O100 C73 1.289 . S
C101 O93 1.258 . S
C101 O94 1.266 . S
Co102 O105 1.970 . S
Co102 N119 1.989 . S
Co102 O127 1.967 . S
Co102 O134 1.920 . S
Co103 O106 1.966 . S
Co103 N112 2.022 . S
Co103 N120 1.993 . S
Co103 O128 1.941 . S
C104 O105 1.258 . S
C104 O106 1.263 . S
O105 Co102 1.970 . S
O105 C104 1.258 . S
O106 Co103 1.966 . S
O106 C104 1.263 . S
C107 O108 1.235 . S
C107 O134 1.289 . S
O108 C107 1.235 . S
C109 C111 1.400 1_556 S
C109 N112 1.351 . S
C109 C114 1.501 . S
C110 C111 1.387 . S
C110 N113 1.341 1_554 S
C111 C109 1.400 1_554 S
C111 C110 1.387 . S
N112 Co103 2.022 . S
N112 C109 1.351 . S
N112 N113 1.365 . S
N113 C110 1.341 1_556 S
N113 N112 1.365 . S
N113 H133 0.862 . S
C114 C109 1.501 . S
C114 H115 0.961 . S
C114 H116 0.961 . S
C114 H117 0.960 . S
H115 C114 0.961 . S
H116 C114 0.961 . S
H117 C114 0.960 . S
C118 N119 1.342 . S
C118 C122 1.401 . S
C118 C123 1.499 . S
N119 Co102 1.989 . S
N119 C118 1.342 . S
N119 N120 1.388 . S
N120 Co103 1.993 . S
N120 N119 1.388 . S
N120 C121 1.346 . S
C121 N120 1.346 . S
C121 C122 1.396 . S
C121 C131 1.510 . S
C122 C118 1.401 . S
C122 C121 1.396 . S
C123 C118 1.499 . S
C123 H124 0.959 . S
C123 H125 0.960 . S
C123 H126 0.961 . S
H124 C123 0.959 . S
H125 C123 0.960 . S
H126 C123 0.961 . S
O127 Co102 1.967 . S
O127 C135 1.258 . S
O128 Co103 1.941 . S
O128 C135 1.266 . S
H129 C131 0.959 . S
H130 C131 0.961 . S
C131 C121 1.510 . S
C131 H129 0.959 . S
C131 H130 0.961 . S
C131 H132 0.960 . S
H132 C131 0.960 . S
H133 N113 0.862 . S
O134 Co102 1.920 . S
O134 C107 1.289 . S
C135 O127 1.258 . S
C135 O128 1.266 . S
Co136 O139 1.970 1_455 S
Co136 N153 1.989 . S
Co136 O161 1.967 . S
Co136 O168 1.920 . S
Co137 O140 1.966 1_455 S
Co137 N146 2.022 . S
Co137 N154 1.993 . S
Co137 O162 1.941 . S
C138 O139 1.258 . S
C138 O140 1.263 . S
O139 Co136 1.970 1_655 S
O139 C138 1.258 . S
O140 Co137 1.966 1_655 S
O140 C138 1.263 . S
C141 O142 1.235 . S
C141 O168 1.289 1_655 S
O142 C141 1.235 . S
C143 C145 1.400 1_554 S
C143 N146 1.351 . S
C143 C148 1.501 1_455 S
C144 C145 1.387 . S
C144 N147 1.341 1_556 S
C145 C143 1.400 1_556 S
C145 C144 1.387 . S
N146 Co137 2.022 . S
N146 C143 1.351 . S
N146 N147 1.365 . S
N147 C144 1.341 1_554 S
N147 N146 1.365 . S
N147 H167 0.862 . S
C148 C143 1.501 1_655 S
C148 H149 0.961 . S
C148 H150 0.961 . S
C148 H151 0.960 . S
H149 C148 0.961 . S
H150 C148 0.961 . S
H151 C148 0.960 . S
C152 N153 1.342 . S
C152 C156 1.401 . S
C152 C157 1.499 . S
N153 Co136 1.989 . S
N153 C152 1.342 . S
N153 N154 1.388 . S
N154 Co137 1.993 . S
N154 N153 1.388 . S
N154 C155 1.346 . S
C155 N154 1.346 . S
C155 C156 1.396 . S
C155 C165 1.510 . S
C156 C152 1.401 . S
C156 C155 1.396 . S
C157 C152 1.499 . S
C157 H158 0.959 . S
C157 H159 0.960 . S
C157 H160 0.961 . S
H158 C157 0.959 . S
H159 C157 0.960 . S
H160 C157 0.961 . S
O161 Co136 1.967 . S
O161 C169 1.258 . S
O162 Co137 1.941 . S
O162 C169 1.266 . S
H163 C165 0.959 . S
H164 C165 0.961 . S
C165 C155 1.510 . S
C165 H163 0.959 . S
C165 H164 0.961 . S
C165 H166 0.960 . S
H166 C165 0.960 . S
H167 N147 0.862 . S
O168 Co136 1.920 . S
O168 C141 1.289 1_455 S
C169 O161 1.258 . S
C169 O162 1.266 . S
Co170 O173 1.970 1_545 S
Co170 N187 1.989 . S
Co170 O195 1.967 . S
Co170 O202 1.920 1_556 S
Co171 O174 1.966 1_545 S
Co171 N180 2.022 . S
Co171 N188 1.993 . S
Co171 O196 1.941 . S
C172 O173 1.258 . S
C172 O174 1.263 . S
O173 Co170 1.970 1_565 S
O173 C172 1.258 . S
O174 Co171 1.966 1_565 S
O174 C172 1.263 . S
C175 O176 1.235 . S
C175 O202 1.289 1_565 S
O176 C175 1.235 . S
C177 C179 1.400 . S
C177 N180 1.351 . S
C177 C182 1.501 1_545 S
C178 C179 1.387 . S
C178 N181 1.341 . S
C179 C177 1.400 . S
C179 C178 1.387 . S
N180 Co171 2.022 . S
N180 C177 1.351 . S
N180 N181 1.365 . S
N181 C178 1.341 . S
N181 N180 1.365 . S
N181 H201 0.862 . S
C182 C177 1.501 1_565 S
C182 H183 0.961 . S
C182 H184 0.961 . S
C182 H185 0.960 . S
H183 C182 0.961 . S
H184 C182 0.961 . S
H185 C182 0.960 . S
C186 N187 1.342 . S
C186 C190 1.401 . S
C186 C191 1.497 1_556 S
N187 Co170 1.989 . S
N187 C186 1.342 . S
N187 N188 1.388 . S
N188 Co171 1.993 . S
N188 N187 1.388 . S
N188 C189 1.346 . S
C189 N188 1.346 . S
C189 C190 1.396 . S
C189 C199 1.510 . S
C190 C186 1.401 . S
C190 C189 1.396 . S
C191 C186 1.497 1_554 S
C191 H192 0.960 . S
C191 H193 0.960 . S
C191 H194 0.961 . S
H192 C191 0.960 . S
H193 C191 0.960 . S
H194 C191 0.961 . S
O195 Co170 1.967 . S
O195 C203 1.258 . S
O196 Co171 1.941 . S
O196 C203 1.266 . S
H197 C199 0.959 . S
H198 C199 0.961 . S
C199 C189 1.510 . S
C199 H197 0.959 . S
C199 H198 0.961 . S
C199 H200 0.960 . S
H200 C199 0.960 . S
H201 N181 0.862 . S
O202 Co170 1.920 1_554 S
O202 C175 1.289 1_545 S
C203 O195 1.258 . S
C203 O196 1.266 . S
Co204 O207 1.970 . S
Co204 N221 1.989 . S
Co204 O229 1.967 . S
Co204 O236 1.920 . S
Co205 O208 1.966 . S
Co205 N214 2.022 . S
Co205 N222 1.993 . S
Co205 O230 1.941 . S
C206 O207 1.258 . S
C206 O208 1.263 . S
O207 Co204 1.970 . S
O207 C206 1.258 . S
O208 Co205 1.966 . S
O208 C206 1.263 . S
C209 O210 1.235 . S
C209 O236 1.289 . S
O210 C209 1.235 . S
C211 C213 1.400 1_554 S
C211 N214 1.351 . S
C211 C216 1.501 . S
C212 C213 1.387 . S
C212 N215 1.341 1_556 S
C213 C211 1.400 1_556 S
C213 C212 1.387 . S
N214 Co205 2.022 . S
N214 C211 1.351 . S
N214 N215 1.365 . S
N215 C212 1.341 1_554 S
N215 N214 1.365 . S
N215 H235 0.862 . S
C216 C211 1.501 . S
C216 H217 0.961 . S
C216 H218 0.961 . S
C216 H219 0.960 . S
H217 C216 0.961 . S
H218 C216 0.961 . S
H219 C216 0.960 . S
C220 N221 1.342 . S
C220 C224 1.401 . S
C220 C225 1.499 . S
N221 Co204 1.989 . S
N221 C220 1.342 . S
N221 N222 1.388 . S
N222 Co205 1.993 . S
N222 N221 1.388 . S
N222 C223 1.346 . S
C223 N222 1.346 . S
C223 C224 1.396 . S
C223 C233 1.510 . S
C224 C220 1.401 . S
C224 C223 1.396 . S
C225 C220 1.499 . S
C225 H226 0.959 . S
C225 H227 0.960 . S
C225 H228 0.961 . S
H226 C225 0.959 . S
H227 C225 0.960 . S
H228 C225 0.961 . S
O229 Co204 1.967 . S
O229 C237 1.258 . S
O230 Co205 1.941 . S
O230 C237 1.266 . S
H231 C233 0.959 . S
H232 C233 0.961 . S
C233 C223 1.510 . S
C233 H231 0.959 . S
C233 H232 0.961 . S
C233 H234 0.960 . S
H234 C233 0.960 . S
H235 N215 0.862 . S
O236 Co204 1.920 . S
O236 C209 1.289 . S
C237 O229 1.258 . S
C237 O230 1.266 . S
Co238 O241 1.970 . S
Co238 N255 1.989 . S
Co238 O263 1.967 . S
Co238 O270 1.920 1_556 S
Co239 O242 1.966 . S
Co239 N248 2.022 . S
Co239 N256 1.993 . S
Co239 O264 1.941 . S
C240 O241 1.258 . S
C240 O242 1.263 . S
O241 Co238 1.970 . S
O241 C240 1.258 . S
O242 Co239 1.966 . S
O242 C240 1.263 . S
C243 O244 1.235 . S
C243 O270 1.289 . S
O244 C243 1.235 . S
C245 C247 1.400 . S
C245 N248 1.351 . S
C245 C250 1.501 . S
C246 C247 1.387 . S
C246 N249 1.341 . S
C247 C245 1.400 . S
C247 C246 1.387 . S
N248 Co239 2.022 . S
N248 C245 1.351 . S
N248 N249 1.365 . S
N249 C246 1.341 . S
N249 N248 1.365 . S
N249 H269 0.862 . S
C250 C245 1.501 . S
C250 H251 0.961 . S
C250 H252 0.961 . S
C250 H253 0.960 . S
H251 C250 0.961 . S
H252 C250 0.961 . S
H253 C250 0.960 . S
C254 N255 1.342 . S
C254 C258 1.401 . S
C254 C259 1.497 1_556 S
N255 Co238 1.989 . S
N255 C254 1.342 . S
N255 N256 1.388 . S
N256 Co239 1.993 . S
N256 N255 1.388 . S
N256 C257 1.346 . S
C257 N256 1.346 . S
C257 C258 1.396 . S
C257 C267 1.510 . S
C258 C254 1.401 . S
C258 C257 1.396 . S
C259 C254 1.497 1_554 S
C259 H260 0.960 . S
C259 H261 0.960 . S
C259 H262 0.961 . S
H260 C259 0.960 . S
H261 C259 0.960 . S
H262 C259 0.961 . S
O263 Co238 1.967 . S
O263 C271 1.258 . S
O264 Co239 1.941 . S
O264 C271 1.266 . S
H265 C267 0.959 . S
H266 C267 0.961 . S
C267 C257 1.510 . S
C267 H265 0.959 . S
C267 H266 0.961 . S
C267 H268 0.960 . S
H268 C267 0.960 . S
H269 N249 0.862 . S
O270 Co238 1.920 1_554 S
O270 C243 1.289 . S
C271 O263 1.258 . S
C271 O264 1.266 . S
Co272 O275 1.970 1_655 S
Co272 N289 1.989 . S
Co272 O297 1.967 . S
Co272 O304 1.920 1_556 S
Co273 O276 1.966 1_655 S
Co273 N282 2.022 . S
Co273 N290 1.993 . S
Co273 O298 1.941 . S
C274 O275 1.258 . S
C274 O276 1.263 . S
O275 Co272 1.970 1_455 S
O275 C274 1.258 . S
O276 Co273 1.966 1_455 S
O276 C274 1.263 . S
C277 O278 1.235 . S
C277 O304 1.289 1_455 S
O278 C277 1.235 . S
C279 C281 1.400 . S
C279 N282 1.351 . S
C279 C284 1.501 1_655 S
C280 C281 1.387 . S
C280 N283 1.341 . S
C281 C279 1.400 . S
C281 C280 1.387 . S
N282 Co273 2.022 . S
N282 C279 1.351 . S
N282 N283 1.365 . S
N283 C280 1.341 . S
N283 N282 1.365 . S
N283 H303 0.862 . S
C284 C279 1.501 1_455 S
C284 H285 0.961 . S
C284 H286 0.961 . S
C284 H287 0.960 . S
H285 C284 0.961 . S
H286 C284 0.961 . S
H287 C284 0.960 . S
C288 N289 1.342 . S
C288 C292 1.401 . S
C288 C293 1.497 1_556 S
N289 Co272 1.989 . S
N289 C288 1.342 . S
N289 N290 1.388 . S
N290 Co273 1.993 . S
N290 N289 1.388 . S
N290 C291 1.346 . S
C291 N290 1.346 . S
C291 C292 1.396 . S
C291 C301 1.510 . S
C292 C288 1.401 . S
C292 C291 1.396 . S
C293 C288 1.497 1_554 S
C293 H294 0.960 . S
C293 H295 0.960 . S
C293 H296 0.961 . S
H294 C293 0.960 . S
H295 C293 0.960 . S
H296 C293 0.961 . S
O297 Co272 1.967 . S
O297 C305 1.258 . S
O298 Co273 1.941 . S
O298 C305 1.266 . S
H299 C301 0.959 . S
H300 C301 0.961 . S
C301 C291 1.510 . S
C301 H299 0.959 . S
C301 H300 0.961 . S
C301 H302 0.960 . S
H302 C301 0.960 . S
H303 N283 0.862 . S
O304 Co272 1.920 1_554 S
O304 C277 1.289 1_655 S
C305 O297 1.258 . S
C305 O298 1.266 . S
Co306 O309 1.970 1_565 S
Co306 N323 1.989 . S
Co306 O331 1.967 . S
Co306 O338 1.920 . S
Co307 O310 1.966 1_565 S
Co307 N316 2.022 . S
Co307 N324 1.993 . S
Co307 O332 1.941 . S
C308 O309 1.258 . S
C308 O310 1.263 . S
O309 Co306 1.970 1_545 S
O309 C308 1.258 . S
O310 Co307 1.966 1_545 S
O310 C308 1.263 . S
C311 O312 1.235 . S
C311 O338 1.289 1_545 S
O312 C311 1.235 . S
C313 C315 1.400 1_554 S
C313 N316 1.351 . S
C313 C318 1.501 1_565 S
C314 C315 1.387 . S
C314 N317 1.341 1_556 S
C315 C313 1.400 1_556 S
C315 C314 1.387 . S
N316 Co307 2.022 . S
N316 C313 1.351 . S
N316 N317 1.365 . S
N317 C314 1.341 1_554 S
N317 N316 1.365 . S
N317 H337 0.862 . S
C318 C313 1.501 1_545 S
C318 H319 0.961 . S
C318 H320 0.961 . S
C318 H321 0.960 . S
H319 C318 0.961 . S
H320 C318 0.961 . S
H321 C318 0.960 . S
C322 N323 1.342 . S
C322 C326 1.401 . S
C322 C327 1.499 . S
N323 Co306 1.989 . S
N323 C322 1.342 . S
N323 N324 1.388 . S
N324 Co307 1.993 . S
N324 N323 1.388 . S
N324 C325 1.346 . S
C325 N324 1.346 . S
C325 C326 1.396 . S
C325 C335 1.510 . S
C326 C322 1.401 . S
C326 C325 1.396 . S
C327 C322 1.499 . S
C327 H328 0.959 . S
C327 H329 0.960 . S
C327 H330 0.961 . S
H328 C327 0.959 . S
H329 C327 0.960 . S
H330 C327 0.961 . S
O331 Co306 1.967 . S
O331 C339 1.258 . S
O332 Co307 1.941 . S
O332 C339 1.266 . S
H333 C335 0.959 . S
H334 C335 0.961 . S
C335 C325 1.510 . S
C335 H333 0.959 . S
C335 H334 0.961 . S
C335 H336 0.960 . S
H336 C335 0.960 . S
H337 N317 0.862 . S
O338 Co306 1.920 . S
O338 C311 1.289 1_565 S
C339 O331 1.258 . S
C339 O332 1.266 . S
Co340 O343 1.970 . S
Co340 N357 1.989 . S
Co340 O365 1.967 . S
Co340 O372 1.920 1_556 S
Co341 O344 1.966 . S
Co341 N350 2.022 . S
Co341 N358 1.993 . S
Co341 O366 1.941 . S
C342 O343 1.258 . S
C342 O344 1.263 . S
O343 Co340 1.970 . S
O343 C342 1.258 . S
O344 Co341 1.966 . S
O344 C342 1.263 . S
C345 O346 1.235 . S
C345 O372 1.289 . S
O346 C345 1.235 . S
C347 C349 1.400 . S
C347 N350 1.351 . S
C347 C352 1.501 . S
C348 C349 1.387 . S
C348 N351 1.341 . S
C349 C347 1.400 . S
C349 C348 1.387 . S
N350 Co341 2.022 . S
N350 C347 1.351 . S
N350 N351 1.365 . S
N351 C348 1.341 . S
N351 N350 1.365 . S
N351 H371 0.862 . S
C352 C347 1.501 . S
C352 H353 0.961 . S
C352 H354 0.961 . S
C352 H355 0.960 . S
H353 C352 0.961 . S
H354 C352 0.961 . S
H355 C352 0.960 . S
C356 N357 1.342 . S
C356 C360 1.401 . S
C356 C361 1.497 1_556 S
N357 Co340 1.989 . S
N357 C356 1.342 . S
N357 N358 1.388 . S
N358 Co341 1.993 . S
N358 N357 1.388 . S
N358 C359 1.346 . S
C359 N358 1.346 . S
C359 C360 1.396 . S
C359 C369 1.510 . S
C360 C356 1.401 . S
C360 C359 1.396 . S
C361 C356 1.497 1_554 S
C361 H362 0.960 . S
C361 H363 0.960 . S
C361 H364 0.961 . S
H362 C361 0.960 . S
H363 C361 0.960 . S
H364 C361 0.961 . S
O365 Co340 1.967 . S
O365 C373 1.258 . S
O366 Co341 1.941 . S
O366 C373 1.266 . S
H367 C369 0.959 . S
H368 C369 0.961 . S
C369 C359 1.510 . S
C369 H367 0.959 . S
C369 H368 0.961 . S
C369 H370 0.960 . S
H370 C369 0.960 . S
H371 N351 0.862 . S
O372 Co340 1.920 1_554 S
O372 C345 1.289 . S
C373 O365 1.258 . S
C373 O366 1.266 . S
Co374 O377 1.970 . S
Co374 N391 1.989 . S
Co374 O399 1.967 . S
Co374 O406 1.920 . S
Co375 O378 1.966 . S
Co375 N384 2.022 . S
Co375 N392 1.993 . S
Co375 O400 1.941 . S
C376 O377 1.258 . S
C376 O378 1.263 . S
O377 Co374 1.970 . S
O377 C376 1.258 . S
O378 Co375 1.966 . S
O378 C376 1.263 . S
C379 O380 1.235 . S
C379 O406 1.289 . S
O380 C379 1.235 . S
C381 C383 1.400 1_554 S
C381 N384 1.351 . S
C381 C386 1.501 . S
C382 C383 1.387 . S
C382 N385 1.341 1_556 S
C383 C381 1.400 1_556 S
C383 C382 1.387 . S
N384 Co375 2.022 . S
N384 C381 1.351 . S
N384 N385 1.365 . S
N385 C382 1.341 1_554 S
N385 N384 1.365 . S
N385 H405 0.862 . S
C386 C381 1.501 . S
C386 H387 0.961 . S
C386 H388 0.961 . S
C386 H389 0.960 . S
H387 C386 0.961 . S
H388 C386 0.961 . S
H389 C386 0.960 . S
C390 N391 1.342 . S
C390 C394 1.401 . S
C390 C395 1.499 . S
N391 Co374 1.989 . S
N391 C390 1.342 . S
N391 N392 1.388 . S
N392 Co375 1.993 . S
N392 N391 1.388 . S
N392 C393 1.346 . S
C393 N392 1.346 . S
C393 C394 1.396 . S
C393 C403 1.510 . S
C394 C390 1.401 . S
C394 C393 1.396 . S
C395 C390 1.499 . S
C395 H396 0.959 . S
C395 H397 0.960 . S
C395 H398 0.961 . S
H396 C395 0.959 . S
H397 C395 0.960 . S
H398 C395 0.961 . S
O399 Co374 1.967 . S
O399 C407 1.258 . S
O400 Co375 1.941 . S
O400 C407 1.266 . S
H401 C403 0.959 . S
H402 C403 0.961 . S
C403 C393 1.510 . S
C403 H401 0.959 . S
C403 H402 0.961 . S
C403 H404 0.960 . S
H404 C403 0.960 . S
H405 N385 0.862 . S
O406 Co374 1.920 . S
O406 C379 1.289 . S
C407 O399 1.258 . S
C407 O400 1.266 . S
Co408 O411 1.970 1_655 S
Co408 N425 1.989 . S
Co408 O433 1.967 . S
Co408 O440 1.920 . S
Co409 O412 1.966 1_655 S
Co409 N418 2.022 . S
Co409 N426 1.993 . S
Co409 O434 1.941 . S
C410 O411 1.258 . S
C410 O412 1.263 . S
O411 Co408 1.970 1_455 S
O411 C410 1.258 . S
O412 Co409 1.966 1_455 S
O412 C410 1.263 . S
C413 O414 1.235 . S
C413 O440 1.289 1_455 S
O414 C413 1.235 . S
C415 C417 1.400 1_556 S
C415 N418 1.351 . S
C415 C420 1.501 1_655 S
C416 C417 1.387 . S
C416 N419 1.341 1_554 S
C417 C415 1.400 1_554 S
C417 C416 1.387 . S
N418 Co409 2.022 . S
N418 C415 1.351 . S
N418 N419 1.365 . S
N419 C416 1.341 1_556 S
N419 N418 1.365 . S
N419 H439 0.862 . S
C420 C415 1.501 1_455 S
C420 H421 0.961 . S
C420 H422 0.961 . S
C420 H423 0.960 . S
H421 C420 0.961 . S
H422 C420 0.961 . S
H423 C420 0.960 . S
C424 N425 1.342 . S
C424 C428 1.401 . S
C424 C429 1.499 . S
N425 Co408 1.989 . S
N425 C424 1.342 . S
N425 N426 1.388 . S
N426 Co409 1.993 . S
N426 N425 1.388 . S
N426 C427 1.346 . S
C427 N426 1.346 . S
C427 C428 1.396 . S
C427 C437 1.510 . S
C428 C424 1.401 . S
C428 C427 1.396 . S
C429 C424 1.499 . S
C429 H430 0.959 . S
C429 H431 0.960 . S
C429 H432 0.961 . S
H430 C429 0.959 . S
H431 C429 0.960 . S
H432 C429 0.961 . S
O433 Co408 1.967 . S
O433 C441 1.258 . S
O434 Co409 1.941 . S
O434 C441 1.266 . S
H435 C437 0.959 . S
H436 C437 0.961 . S
C437 C427 1.510 . S
C437 H435 0.959 . S
C437 H436 0.961 . S
C437 H438 0.960 . S
H438 C437 0.960 . S
H439 N419 0.862 . S
O440 Co408 1.920 . S
O440 C413 1.289 1_655 S
C441 O433 1.258 . S
C441 O434 1.266 . S
Co442 O445 1.970 1_565 S
Co442 N459 1.989 . S
Co442 O467 1.967 . S
Co442 O474 1.920 1_554 S
Co443 O446 1.966 1_565 S
Co443 N452 2.022 . S
Co443 N460 1.993 . S
Co443 O468 1.941 . S
C444 O445 1.258 . S
C444 O446 1.263 . S
O445 Co442 1.970 1_545 S
O445 C444 1.258 . S
O446 Co443 1.966 1_545 S
O446 C444 1.263 . S
C447 O448 1.235 . S
C447 O474 1.289 1_545 S
O448 C447 1.235 . S
C449 C451 1.400 . S
C449 N452 1.351 . S
C449 C454 1.501 1_565 S
C450 C451 1.387 . S
C450 N453 1.341 . S
C451 C449 1.400 . S
C451 C450 1.387 . S
N452 Co443 2.022 . S
N452 C449 1.351 . S
N452 N453 1.365 . S
N453 C450 1.341 . S
N453 N452 1.365 . S
N453 H473 0.862 . S
C454 C449 1.501 1_545 S
C454 H455 0.961 . S
C454 H456 0.961 . S
C454 H457 0.960 . S
H455 C454 0.961 . S
H456 C454 0.961 . S
H457 C454 0.960 . S
C458 N459 1.342 . S
C458 C462 1.401 . S
C458 C463 1.497 1_554 S
N459 Co442 1.989 . S
N459 C458 1.342 . S
N459 N460 1.388 . S
N460 Co443 1.993 . S
N460 N459 1.388 . S
N460 C461 1.346 . S
C461 N460 1.346 . S
C461 C462 1.396 . S
C461 C471 1.510 . S
C462 C458 1.401 . S
C462 C461 1.396 . S
C463 C458 1.497 1_556 S
C463 H464 0.960 . S
C463 H465 0.960 . S
C463 H466 0.961 . S
H464 C463 0.960 . S
H465 C463 0.960 . S
H466 C463 0.961 . S
O467 Co442 1.967 . S
O467 C475 1.258 . S
O468 Co443 1.941 . S
O468 C475 1.266 . S
H469 C471 0.959 . S
H470 C471 0.961 . S
C471 C461 1.510 . S
C471 H469 0.959 . S
C471 H470 0.961 . S
C471 H472 0.960 . S
H472 C471 0.960 . S
H473 N453 0.862 . S
O474 Co442 1.920 1_556 S
O474 C447 1.289 1_565 S
C475 O467 1.258 . S
C475 O468 1.266 . S
Co476 O479 1.970 . S
Co476 N493 1.989 . S
Co476 O501 1.967 . S
Co476 O508 1.920 . S
Co477 O480 1.966 . S
Co477 N486 2.022 . S
Co477 N494 1.993 . S
Co477 O502 1.941 . S
C478 O479 1.258 . S
C478 O480 1.263 . S
O479 Co476 1.970 . S
O479 C478 1.258 . S
O480 Co477 1.966 . S
O480 C478 1.263 . S
C481 O482 1.235 . S
C481 O508 1.289 . S
O482 C481 1.235 . S
C483 C485 1.400 1_556 S
C483 N486 1.351 . S
C483 C488 1.501 . S
C484 C485 1.387 . S
C484 N487 1.341 1_554 S
C485 C483 1.400 1_554 S
C485 C484 1.387 . S
N486 Co477 2.022 . S
N486 C483 1.351 . S
N486 N487 1.365 . S
N487 C484 1.341 1_556 S
N487 N486 1.365 . S
N487 H507 0.862 . S
C488 C483 1.501 . S
C488 H489 0.961 . S
C488 H490 0.961 . S
C488 H491 0.960 . S
H489 C488 0.961 . S
H490 C488 0.961 . S
H491 C488 0.960 . S
C492 N493 1.342 . S
C492 C496 1.401 . S
C492 C497 1.499 . S
N493 Co476 1.989 . S
N493 C492 1.342 . S
N493 N494 1.388 . S
N494 Co477 1.993 . S
N494 N493 1.388 . S
N494 C495 1.346 . S
C495 N494 1.346 . S
C495 C496 1.396 . S
C495 C505 1.510 . S
C496 C492 1.401 . S
C496 C495 1.396 . S
C497 C492 1.499 . S
C497 H498 0.959 . S
C497 H499 0.960 . S
C497 H500 0.961 . S
H498 C497 0.959 . S
H499 C497 0.960 . S
H500 C497 0.961 . S
O501 Co476 1.967 . S
O501 C509 1.258 . S
O502 Co477 1.941 . S
O502 C509 1.266 . S
H503 C505 0.959 . S
H504 C505 0.961 . S
C505 C495 1.510 . S
C505 H503 0.959 . S
C505 H504 0.961 . S
C505 H506 0.960 . S
H506 C505 0.960 . S
H507 N487 0.862 . S
O508 Co476 1.920 . S
O508 C481 1.289 . S
C509 O501 1.258 . S
C509 O502 1.266 . S
Co510 O513 1.970 . S
Co510 N527 1.989 . S
Co510 O535 1.967 . S
Co510 O542 1.920 1_554 S
Co511 O514 1.966 . S
Co511 N520 2.022 . S
Co511 N528 1.993 . S
Co511 O536 1.941 . S
C512 O513 1.258 . S
C512 O514 1.263 . S
O513 Co510 1.970 . S
O513 C512 1.258 . S
O514 Co511 1.966 . S
O514 C512 1.263 . S
C515 O516 1.235 . S
C515 O542 1.289 . S
O516 C515 1.235 . S
C517 C519 1.400 . S
C517 N520 1.351 . S
C517 C522 1.501 . S
C518 C519 1.387 . S
C518 N521 1.341 . S
C519 C517 1.400 . S
C519 C518 1.387 . S
N520 Co511 2.022 . S
N520 C517 1.351 . S
N520 N521 1.365 . S
N521 C518 1.341 . S
N521 N520 1.365 . S
N521 H541 0.862 . S
C522 C517 1.501 . S
C522 H523 0.961 . S
C522 H524 0.961 . S
C522 H525 0.960 . S
H523 C522 0.961 . S
H524 C522 0.961 . S
H525 C522 0.960 . S
C526 N527 1.342 . S
C526 C530 1.401 . S
C526 C531 1.497 1_554 S
N527 Co510 1.989 . S
N527 C526 1.342 . S
N527 N528 1.388 . S
N528 Co511 1.993 . S
N528 N527 1.388 . S
N528 C529 1.346 . S
C529 N528 1.346 . S
C529 C530 1.396 . S
C529 C539 1.510 . S
C530 C526 1.401 . S
C530 C529 1.396 . S
C531 C526 1.497 1_556 S
C531 H532 0.960 . S
C531 H533 0.960 . S
C531 H534 0.961 . S
H532 C531 0.960 . S
H533 C531 0.960 . S
H534 C531 0.961 . S
O535 Co510 1.967 . S
O535 C543 1.258 . S
O536 Co511 1.941 . S
O536 C543 1.266 . S
H537 C539 0.959 . S
H538 C539 0.961 . S
C539 C529 1.510 . S
C539 H537 0.959 . S
C539 H538 0.961 . S
C539 H540 0.960 . S
H540 C539 0.960 . S
H541 N521 0.862 . S
O542 Co510 1.920 1_556 S
O542 C515 1.289 . S
C543 O535 1.258 . S
C543 O536 1.266 . S
C544 C545 1.387 . S
C544 H548 0.950 . S
C544 C553 1.390 . S
C545 C544 1.387 . S
C545 C547 1.387 . S
H546 C553 0.950 . S
C547 C545 1.387 . S
C547 C549 1.390 . S
C547 H551 0.950 . S
H548 C544 0.950 . S
C549 C547 1.390 . S
C549 C550 1.387 . S
C549 H552 0.950 . S
C550 C549 1.387 . S
C550 C553 1.387 . S
H551 C547 0.950 . S
H552 C549 0.950 . S
C553 C544 1.390 . S
C553 H546 0.950 . S
C553 C550 1.387 . S
C554 C555 1.387 . S
C554 H558 0.950 . S
C554 C563 1.390 . S
C555 C554 1.387 . S
C555 C557 1.387 . S
H556 C563 0.950 . S
C557 C555 1.387 . S
C557 C559 1.390 . S
C557 H561 0.950 . S
H558 C554 0.950 . S
C559 C557 1.390 . S
C559 C560 1.387 . S
C559 H562 0.950 . S
C560 C559 1.387 . S
C560 C563 1.387 . S
H561 C557 0.950 . S
H562 C559 0.950 . S
C563 C554 1.390 . S
C563 H556 0.950 . S
C563 C560 1.387 . S
C564 C565 1.387 . S
C564 H568 0.950 . S
C564 C573 1.390 . S
C565 C564 1.387 . S
C565 C567 1.387 . S
H566 C573 0.950 . S
C567 C565 1.387 . S
C567 C569 1.390 . S
C567 H571 0.950 . S
H568 C564 0.950 . S
C569 C567 1.390 . S
C569 C570 1.387 . S
C569 H572 0.950 . S
C570 C569 1.387 . S
C570 C573 1.387 . S
H571 C567 0.950 . S
H572 C569 0.950 . S
C573 C564 1.390 . S
C573 H566 0.950 . S
C573 C570 1.387 . S
C574 C575 1.387 . S
C574 H578 0.950 . S
C574 C583 1.390 . S
C575 C574 1.387 . S
C575 C577 1.387 . S
H576 C583 0.950 . S
C577 C575 1.387 . S
C577 C579 1.390 . S
C577 H581 0.950 . S
H578 C574 0.950 . S
C579 C577 1.390 . S
C579 C580 1.387 . S
C579 H582 0.950 . S
C580 C579 1.387 . S
C580 C583 1.387 . S
H581 C577 0.950 . S
H582 C579 0.950 . S
C583 C574 1.390 . S
C583 H576 0.950 . S
C583 C580 1.387 . S
C584 C585 1.387 . S
C584 H588 0.950 . S
C584 C593 1.390 . S
C585 C584 1.387 . S
C585 C587 1.387 . S
H586 C593 0.950 . S
C587 C585 1.387 . S
C587 C589 1.390 . S
C587 H591 0.950 . S
H588 C584 0.950 . S
C589 C587 1.390 . S
C589 C590 1.387 . S
C589 H592 0.950 . S
C590 C589 1.387 . S
C590 C593 1.387 . S
H591 C587 0.950 . S
H592 C589 0.950 . S
C593 C584 1.390 . S
C593 H586 0.950 . S
C593 C590 1.387 . S
C594 C595 1.387 . S
C594 H598 0.950 . S
C594 C603 1.390 . S
C595 C594 1.387 . S
C595 C597 1.387 . S
H596 C603 0.950 . S
C597 C595 1.387 . S
C597 C599 1.390 . S
C597 H601 0.950 . S
H598 C594 0.950 . S
C599 C597 1.390 . S
C599 C600 1.387 . S
C599 H602 0.950 . S
C600 C599 1.387 . S
C600 C603 1.387 . S
H601 C597 0.950 . S
H602 C599 0.950 . S
C603 C594 1.390 . S
C603 H596 0.950 . S
C603 C600 1.387 . S
C604 C605 1.387 . S
C604 H608 0.950 . S
C604 C613 1.390 . S
C605 C604 1.387 . S
C605 C607 1.387 . S
H606 C613 0.950 . S
C607 C605 1.387 . S
C607 C609 1.390 . S
C607 H611 0.950 . S
H608 C604 0.950 . S
C609 C607 1.390 . S
C609 C610 1.387 . S
C609 H612 0.950 . S
C610 C609 1.387 . S
C610 C613 1.387 . S
H611 C607 0.950 . S
H612 C609 0.950 . S
C613 C604 1.390 . S
C613 H606 0.950 . S
C613 C610 1.387 . S
C614 C615 1.387 . S
C614 H618 0.950 . S
C614 C623 1.390 . S
C615 C614 1.387 . S
C615 C617 1.387 . S
H616 C623 0.950 . S
C617 C615 1.387 . S
C617 C619 1.390 . S
C617 H621 0.950 . S
H618 C614 0.950 . S
C619 C617 1.390 . S
C619 C620 1.387 . S
C619 H622 0.950 . S
C620 C619 1.387 . S
C620 C623 1.387 . S
H621 C617 0.950 . S
H622 C619 0.950 . S
C623 C614 1.390 . S
C623 H616 0.950 . S
C623 C620 1.387 . S
C624 C625 1.387 1_556 S
C624 H628 0.950 . S
C624 C633 1.390 . S
C625 C624 1.387 1_554 S
C625 C627 1.387 . S
H626 C633 0.950 . S
C627 C625 1.387 . S
C627 C629 1.390 . S
C627 H631 0.950 . S
H628 C624 0.950 . S
C629 C627 1.390 . S
C629 C630 1.387 1_554 S
C629 H632 0.950 . S
C630 C629 1.387 1_556 S
C630 C633 1.387 . S
H631 C627 0.950 . S
H632 C629 0.950 . S
C633 C624 1.390 . S
C633 H626 0.950 . S
C633 C630 1.387 . S
C634 C635 1.387 . S
C634 H638 0.950 . S
C634 C643 1.390 . S
C635 C634 1.387 . S
C635 C637 1.387 . S
H636 C643 0.950 . S
C637 C635 1.387 . S
C637 C639 1.390 . S
C637 H641 0.950 . S
H638 C634 0.950 . S
C639 C637 1.390 . S
C639 C640 1.387 . S
C639 H642 0.950 . S
C640 C639 1.387 . S
C640 C643 1.387 . S
H641 C637 0.950 . S
H642 C639 0.950 . S
C643 C634 1.390 . S
C643 H636 0.950 . S
C643 C640 1.387 . S
C644 C645 1.387 1_556 S
C644 H648 0.950 . S
C644 C653 1.390 . S
C645 C644 1.387 1_554 S
C645 C647 1.387 . S
H646 C653 0.950 . S
C647 C645 1.387 . S
C647 C649 1.390 . S
C647 H651 0.950 . S
H648 C644 0.950 . S
C649 C647 1.390 . S
C649 C650 1.387 1_554 S
C649 H652 0.950 . S
C650 C649 1.387 1_556 S
C650 C653 1.387 . S
H651 C647 0.950 . S
H652 C649 0.950 . S
C653 C644 1.390 . S
C653 H646 0.950 . S
C653 C650 1.387 . S
C654 C655 1.387 . S
C654 H658 0.950 . S
C654 C663 1.390 . S
C655 C654 1.387 . S
C655 C657 1.387 . S
H656 C663 0.950 . S
C657 C655 1.387 . S
C657 C659 1.390 . S
C657 H661 0.950 . S
H658 C654 0.950 . S
C659 C657 1.390 . S
C659 C660 1.387 . S
C659 H662 0.950 . S
C660 C659 1.387 . S
C660 C663 1.387 . S
H661 C657 0.950 . S
H662 C659 0.950 . S
C663 C654 1.390 . S
C663 H656 0.950 . S
C663 C660 1.387 . S
C664 C665 1.387 . S
C664 H668 0.950 . S
C664 C673 1.390 1_554 S
C665 C664 1.387 . S
C665 C667 1.387 . S
H666 C673 0.950 . S
C667 C665 1.387 . S
C667 C669 1.390 1_554 S
C667 H671 0.950 . S
H668 C664 0.950 . S
C669 C667 1.390 1_556 S
C669 C670 1.387 . S
C669 H672 0.950 . S
C670 C669 1.387 . S
C670 C673 1.387 . S
H671 C667 0.950 . S
H672 C669 0.950 . S
C673 C664 1.390 1_556 S
C673 H666 0.950 . S
C673 C670 1.387 . S
C674 C675 1.387 . S
C674 H678 0.950 . S
C674 C683 1.390 . S
C675 C674 1.387 . S
C675 C677 1.387 . S
H676 C683 0.950 . S
C677 C675 1.387 . S
C677 C679 1.390 . S
C677 H681 0.950 . S
H678 C674 0.950 . S
C679 C677 1.390 . S
C679 C680 1.387 . S
C679 H682 0.950 . S
C680 C679 1.387 . S
C680 C683 1.387 . S
H681 C677 0.950 . S
H682 C679 0.950 . S
C683 C674 1.390 . S
C683 H676 0.950 . S
C683 C680 1.387 . S
C684 C685 1.387 1_556 S
C684 H688 0.950 . S
C684 C693 1.390 . S
C685 C684 1.387 1_554 S
C685 C687 1.387 . S
H686 C693 0.950 . S
C687 C685 1.387 . S
C687 C689 1.390 . S
C687 H691 0.950 . S
H688 C684 0.950 . S
C689 C687 1.390 . S
C689 C690 1.387 1_554 S
C689 H692 0.950 . S
C690 C689 1.387 1_556 S
C690 C693 1.387 . S
H691 C687 0.950 . S
H692 C689 0.950 . S
C693 C684 1.390 . S
C693 H686 0.950 . S
C693 C690 1.387 . S
C694 C695 1.387 . S
C694 H698 0.950 . S
C694 C703 1.390 . S
C695 C694 1.387 . S
C695 C697 1.387 . S
H696 C703 0.950 . S
C697 C695 1.387 . S
C697 C699 1.390 . S
C697 H701 0.950 . S
H698 C694 0.950 . S
C699 C697 1.390 . S
C699 C700 1.387 . S
C699 H702 0.950 . S
C700 C699 1.387 . S
C700 C703 1.387 . S
H701 C697 0.950 . S
H702 C699 0.950 . S
C703 C694 1.390 . S
C703 H696 0.950 . S
C703 C700 1.387 . S
C704 C705 1.387 1_655 S
C704 H708 0.950 . S
C704 C713 1.390 . S
C705 C704 1.387 1_455 S
C705 C707 1.387 . S
H706 C713 0.950 . S
C707 C705 1.387 . S
C707 C709 1.390 . S
C707 H711 0.950 . S
H708 C704 0.950 . S
C709 C707 1.390 . S
C709 C710 1.387 . S
C709 H712 0.950 . S
C710 C709 1.387 . S
C710 C713 1.387 1_455 S
H711 C707 0.950 . S
H712 C709 0.950 . S
C713 C704 1.390 . S
C713 H706 0.950 . S
C713 C710 1.387 1_655 S
C714 C715 1.387 1_565 S
C714 H718 0.950 . S
C714 C723 1.390 . S
C715 C714 1.387 1_545 S
C715 C717 1.387 . S
H716 C723 0.950 . S
C717 C715 1.387 . S
C717 C719 1.390 . S
C717 H721 0.950 . S
H718 C714 0.950 . S
C719 C717 1.390 . S
C719 C720 1.387 . S
C719 H722 0.950 . S
C720 C719 1.387 . S
C720 C723 1.387 1_545 S
H721 C717 0.950 . S
H722 C719 0.950 . S
C723 C714 1.390 . S
C723 H716 0.950 . S
C723 C720 1.387 1_565 S
C724 C725 1.387 . S
C724 H728 0.950 . S
C724 C733 1.390 . S
C725 C724 1.387 . S
C725 C727 1.387 . S
H726 C733 0.950 . S
C727 C725 1.387 . S
C727 C729 1.390 . S
C727 H731 0.950 . S
H728 C724 0.950 . S
C729 C727 1.390 . S
C729 C730 1.387 . S
C729 H732 0.950 . S
C730 C729 1.387 . S
C730 C733 1.387 . S
H731 C727 0.950 . S
H732 C729 0.950 . S
C733 C724 1.390 . S
C733 H726 0.950 . S
C733 C730 1.387 . S
C734 C735 1.387 . S
C734 H738 0.950 . S
C734 C743 1.390 . S
C735 C734 1.387 . S
C735 C737 1.387 . S
H736 C743 0.950 . S
C737 C735 1.387 . S
C737 C739 1.390 . S
C737 H741 0.950 . S
H738 C734 0.950 . S
C739 C737 1.390 . S
C739 C740 1.387 . S
C739 H742 0.950 . S
C740 C739 1.387 . S
C740 C743 1.387 . S
H741 C737 0.950 . S
H742 C739 0.950 . S
C743 C734 1.390 . S
C743 H736 0.950 . S
C743 C740 1.387 . S
C744 C745 1.387 1_455 S
C744 H748 0.950 . S
C744 C753 1.390 . S
C745 C744 1.387 1_655 S
C745 C747 1.387 . S
H746 C753 0.950 . S
C747 C745 1.387 . S
C747 C749 1.390 . S
C747 H751 0.950 . S
H748 C744 0.950 . S
C749 C747 1.390 . S
C749 C750 1.387 . S
C749 H752 0.950 . S
C750 C749 1.387 . S
C750 C753 1.387 1_655 S
H751 C747 0.950 . S
H752 C749 0.950 . S
C753 C744 1.390 . S
C753 H746 0.950 . S
C753 C750 1.387 1_455 S
C754 C755 1.387 1_545 S
C754 H758 0.950 . S
C754 C763 1.390 . S
C755 C754 1.387 1_565 S
C755 C757 1.387 . S
H756 C763 0.950 . S
C757 C755 1.387 . S
C757 C759 1.390 . S
C757 H761 0.950 . S
H758 C754 0.950 . S
C759 C757 1.390 . S
C759 C760 1.387 . S
C759 H762 0.950 . S
C760 C759 1.387 . S
C760 C763 1.387 1_565 S
H761 C757 0.950 . S
H762 C759 0.950 . S
C763 C754 1.390 . S
C763 H756 0.950 . S
C763 C760 1.387 1_545 S
C764 C765 1.387 . S
C764 H768 0.950 . S
C764 C773 1.390 . S
C765 C764 1.387 . S
C765 C767 1.387 . S
H766 C773 0.950 . S
C767 C765 1.387 . S
C767 C769 1.390 . S
C767 H771 0.950 . S
H768 C764 0.950 . S
C769 C767 1.390 . S
C769 C770 1.387 . S
C769 H772 0.950 . S
C770 C769 1.387 . S
C770 C773 1.387 . S
H771 C767 0.950 . S
H772 C769 0.950 . S
C773 C764 1.390 . S
C773 H766 0.950 . S
C773 C770 1.387 . S
C774 C775 1.387 . S
C774 H778 0.950 . S
C774 C783 1.390 . S
C775 C774 1.387 . S
C775 C777 1.387 . S
H776 C783 0.950 . S
C777 C775 1.387 . S
C777 C779 1.390 . S
C777 H781 0.950 . S
H778 C774 0.950 . S
C779 C777 1.390 . S
C779 C780 1.387 . S
C779 H782 0.950 . S
C780 C779 1.387 . S
C780 C783 1.387 . S
H781 C777 0.950 . S
H782 C779 0.950 . S
C783 C774 1.390 . S
C783 H776 0.950 . S
C783 C780 1.387 . S
C784 C785 1.387 . S
C784 H788 0.950 . S
C784 C793 1.390 . S
C785 C784 1.387 . S
C785 C787 1.387 . S
H786 C793 0.950 . S
C787 C785 1.387 . S
C787 C789 1.390 1_655 S
C787 H791 0.950 . S
H788 C784 0.950 . S
C789 C787 1.390 1_455 S
C789 C790 1.387 . S
C789 H792 0.950 . S
C790 C789 1.387 . S
C790 C793 1.387 1_455 S
H791 C787 0.950 . S
H792 C789 0.950 . S
C793 C784 1.390 . S
C793 H786 0.950 . S
C793 C790 1.387 1_655 S
C794 C795 1.387 1_565 S
C794 H798 0.950 . S
C794 C803 1.390 . S
C795 C794 1.387 1_545 S
C795 C797 1.387 . S
H796 C803 0.950 . S
C797 C795 1.387 . S
C797 C799 1.390 . S
C797 H801 0.950 . S
H798 C794 0.950 . S
C799 C797 1.390 . S
C799 C800 1.387 1_545 S
C799 H802 0.950 . S
C800 C799 1.387 1_565 S
C800 C803 1.387 . S
H801 C797 0.950 . S
H802 C799 0.950 . S
C803 C794 1.390 . S
C803 H796 0.950 . S
C803 C800 1.387 . S
C804 C805 1.387 . S
C804 H808 0.950 . S
C804 C813 1.390 . S
C805 C804 1.387 . S
C805 C807 1.387 . S
H806 C813 0.950 . S
C807 C805 1.387 . S
C807 C809 1.390 . S
C807 H811 0.950 . S
H808 C804 0.950 . S
C809 C807 1.390 . S
C809 C810 1.387 . S
C809 H812 0.950 . S
C810 C809 1.387 . S
C810 C813 1.387 . S
H811 C807 0.950 . S
H812 C809 0.950 . S
C813 C804 1.390 . S
C813 H806 0.950 . S
C813 C810 1.387 . S
C814 C815 1.387 . S
C814 H818 0.950 . S
C814 C823 1.390 . S
C815 C814 1.387 . S
C815 C817 1.387 . S
H816 C823 0.950 . S
C817 C815 1.387 . S
C817 C819 1.390 . S
C817 H821 0.950 . S
H818 C814 0.950 . S
C819 C817 1.390 . S
C819 C820 1.387 . S
C819 H822 0.950 . S
C820 C819 1.387 . S
C820 C823 1.387 . S
H821 C817 0.950 . S
H822 C819 0.950 . S
C823 C814 1.390 . S
C823 H816 0.950 . S
C823 C820 1.387 . S
C824 C825 1.387 . S
C824 H828 0.950 . S
C824 C833 1.390 . S
C825 C824 1.387 . S
C825 C827 1.387 1_655 S
H826 C833 0.950 . S
C827 C825 1.387 1_455 S
C827 C829 1.390 . S
C827 H831 0.950 . S
H828 C824 0.950 . S
C829 C827 1.390 . S
C829 C830 1.387 . S
C829 H832 0.950 . S
C830 C829 1.387 . S
C830 C833 1.387 1_455 S
H831 C827 0.950 . S
H832 C829 0.950 . S
C833 C824 1.390 . S
C833 H826 0.950 . S
C833 C830 1.387 1_655 S
C834 C835 1.387 1_545 S
C834 H838 0.950 . S
C834 C843 1.390 . S
C835 C834 1.387 1_565 S
C835 C837 1.387 . S
H836 C843 0.950 . S
C837 C835 1.387 . S
C837 C839 1.390 . S
C837 H841 0.950 . S
H838 C834 0.950 . S
C839 C837 1.390 . S
C839 C840 1.387 1_565 S
C839 H842 0.950 . S
C840 C839 1.387 1_545 S
C840 C843 1.387 . S
H841 C837 0.950 . S
H842 C839 0.950 . S
C843 C834 1.390 . S
C843 H836 0.950 . S
C843 C840 1.387 . S
C844 C845 1.387 . S
C844 H848 0.950 . S
C844 C853 1.390 . S
C845 C844 1.387 . S
C845 C847 1.387 . S
H846 C853 0.950 . S
C847 C845 1.387 . S
C847 C849 1.390 . S
C847 H851 0.950 . S
H848 C844 0.950 . S
C849 C847 1.390 . S
C849 C850 1.387 . S
C849 H852 0.950 . S
C850 C849 1.387 . S
C850 C853 1.387 . S
H851 C847 0.950 . S
H852 C849 0.950 . S
C853 C844 1.390 . S
C853 H846 0.950 . S
C853 C850 1.387 . S
C854 C855 1.387 . S
C854 H858 0.950 . S
C854 C863 1.390 . S
C855 C854 1.387 . S
C855 C857 1.387 . S
H856 C863 0.950 . S
C857 C855 1.387 . S
C857 C859 1.390 . S
C857 H861 0.950 . S
H858 C854 0.950 . S
C859 C857 1.390 . S
C859 C860 1.387 . S
C859 H862 0.950 . S
C860 C859 1.387 . S
C860 C863 1.387 . S
H861 C857 0.950 . S
H862 C859 0.950 . S
C863 C854 1.390 . S
C863 H856 0.950 . S
C863 C860 1.387 . S
C864 C865 1.387 1_455 S
C864 H868 0.950 . S
C864 C873 1.390 . S
C865 C864 1.387 1_655 S
C865 C867 1.387 . S
H866 C873 0.950 . S
C867 C865 1.387 . S
C867 C869 1.390 . S
C867 H871 0.950 . S
H868 C864 0.950 . S
C869 C867 1.390 . S
C869 C870 1.387 1_655 S
C869 H872 0.950 . S
C870 C869 1.387 1_455 S
C870 C873 1.387 . S
H871 C867 0.950 . S
H872 C869 0.950 . S
C873 C864 1.390 . S
C873 H866 0.950 . S
C873 C870 1.387 . S
C874 C875 1.387 . S
C874 H878 0.950 . S
C874 C883 1.390 . S
C875 C874 1.387 . S
C875 C877 1.387 1_565 S
H876 C883 0.950 . S
C877 C875 1.387 1_545 S
C877 C879 1.390 . S
C877 H881 0.950 . S
H878 C874 0.950 . S
C879 C877 1.390 . S
C879 C880 1.387 . S
C879 H882 0.950 . S
C880 C879 1.387 . S
C880 C883 1.387 1_545 S
H881 C877 0.950 . S
H882 C879 0.950 . S
C883 C874 1.390 . S
C883 H876 0.950 . S
C883 C880 1.387 1_565 S
C884 C885 1.387 . S
C884 H888 0.950 . S
C884 C893 1.390 . S
C885 C884 1.387 . S
C885 C887 1.387 . S
H886 C893 0.950 . S
C887 C885 1.387 . S
C887 C889 1.390 . S
C887 H891 0.950 . S
H888 C884 0.950 . S
C889 C887 1.390 . S
C889 C890 1.387 . S
C889 H892 0.950 . S
C890 C889 1.387 . S
C890 C893 1.387 . S
H891 C887 0.950 . S
H892 C889 0.950 . S
C893 C884 1.390 . S
C893 H886 0.950 . S
C893 C890 1.387 . S
C894 C895 1.387 . S
C894 H898 0.950 . S
C894 C903 1.390 . S
C895 C894 1.387 . S
C895 C897 1.387 . S
H896 C903 0.950 . S
C897 C895 1.387 . S
C897 C899 1.390 . S
C897 H901 0.950 . S
H898 C894 0.950 . S
C899 C897 1.390 . S
C899 C900 1.387 . S
C899 H902 0.950 . S
C900 C899 1.387 . S
C900 C903 1.387 . S
H901 C897 0.950 . S
H902 C899 0.950 . S
C903 C894 1.390 . S
C903 H896 0.950 . S
C903 C900 1.387 . S
C904 C905 1.387 . S
C904 H908 0.950 . S
C904 C913 1.390 . S
C905 C904 1.387 . S
C905 C907 1.387 1_455 S
H906 C913 0.950 . S
C907 C905 1.387 1_655 S
C907 C909 1.390 . S
C907 H911 0.950 . S
H908 C904 0.950 . S
C909 C907 1.390 . S
C909 C910 1.387 . S
C909 H912 0.950 . S
C910 C909 1.387 . S
C910 C913 1.387 1_655 S
H911 C907 0.950 . S
H912 C909 0.950 . S
C913 C904 1.390 . S
C913 H906 0.950 . S
C913 C910 1.387 1_455 S
C914 C915 1.387 . S
C914 H918 0.950 . S
C914 C923 1.390 . S
C915 C914 1.387 . S
C915 C917 1.387 1_545 S
H916 C923 0.950 . S
C917 C915 1.387 1_565 S
C917 C919 1.390 . S
C917 H921 0.950 . S
H918 C914 0.950 . S
C919 C917 1.390 . S
C919 C920 1.387 . S
C919 H922 0.950 . S
C920 C919 1.387 . S
C920 C923 1.387 1_565 S
H921 C917 0.950 . S
H922 C919 0.950 . S
C923 C914 1.390 . S
C923 H916 0.950 . S
C923 C920 1.387 1_545 S
C924 C925 1.387 . S
C924 H928 0.950 . S
C924 C933 1.390 . S
C925 C924 1.387 . S
C925 C927 1.387 . S
H926 C933 0.950 . S
C927 C925 1.387 . S
C927 C929 1.390 . S
C927 H931 0.950 . S
H928 C924 0.950 . S
C929 C927 1.390 . S
C929 C930 1.387 . S
C929 H932 0.950 . S
C930 C929 1.387 . S
C930 C933 1.387 . S
H931 C927 0.950 . S
H932 C929 0.950 . S
C933 C924 1.390 . S
C933 H926 0.950 . S
C933 C930 1.387 . S
C934 C935 1.387 . S
C934 H938 0.950 . S
C934 C943 1.390 . S
C935 C934 1.387 . S
C935 C937 1.387 . S
H936 C943 0.950 . S
C937 C935 1.387 . S
C937 C939 1.390 . S
C937 H941 0.950 . S
H938 C934 0.950 . S
C939 C937 1.390 . S
C939 C940 1.387 . S
C939 H942 0.950 . S
C940 C939 1.387 . S
C940 C943 1.387 . S
H941 C937 0.950 . S
H942 C939 0.950 . S
C943 C934 1.390 . S
C943 H936 0.950 . S
C943 C940 1.387 . S
C545 C2 1.677 . S
C550 C512 1.677 . S
C555 C36 1.677 . S
C560 C410 1.677 . S
C565 C444 1.677 . S
C570 C70 1.677 . S
C575 C104 1.677 . S
C580 C478 1.677 . S
C585 C308 1.677 . S
C590 C138 1.677 . S
C595 C342 1.677 . S
C600 C172 1.677 . S
C605 C376 1.677 . S
C610 C206 1.677 . S
C615 C274 1.677 . S
C620 C240 1.677 . S
C625 C33 1.378 . S
C630 C271 1.377 . S
C635 C67 1.377 . S
C640 C169 1.378 . S
C645 C101 1.378 . S
C650 C203 1.377 . S
C655 C135 1.375 . S
C660 C237 1.376 . S
C665 C543 1.376 . S
C670 C305 1.375 . S
C675 C441 1.375 . S
C680 C339 1.376 . S
C685 C475 1.377 . S
C690 C373 1.378 . S
C695 C407 1.377 . S
C700 C509 1.376 . S
C705 C20 1.606 . S
C710 C156 1.606 . S
C715 C190 1.606 . S
C720 C54 1.606 . S
C725 C224 1.608 . S
C730 C88 1.608 . S
C735 C122 1.606 . S
C740 C258 1.606 . S
C745 C428 1.608 . S
C750 C292 1.608 . S
C755 C326 1.608 . S
C760 C462 1.608 . S
C765 C360 1.607 . S
C770 C496 1.606 . S
C775 C530 1.608 . S
C780 C394 1.608 . S
C785 C5 1.378 . S
C790 C9 1.374 . S
C795 C43 1.374 . S
C800 C39 1.379 . S
C805 C73 1.379 . S
C810 C77 1.372 . S
C815 C111 1.374 . S
C820 C107 1.378 . S
C825 C141 1.379 . S
C830 C145 1.373 . S
C835 C175 1.377 . S
C840 C179 1.373 . S
C845 C209 1.379 . S
C850 C213 1.372 . S
C855 C243 1.378 . S
C860 C247 1.374 . S
C865 C281 1.374 . S
C870 C277 1.377 . S
C875 C315 1.373 . S
C880 C311 1.379 . S
C885 C349 1.372 . S
C890 C345 1.379 . S
C895 C383 1.373 . S
C900 C379 1.377 . S
C905 C413 1.377 . S
C910 C417 1.372 . S
C915 C447 1.377 . S
C920 C451 1.373 . S
C925 C485 1.372 . S
C930 C481 1.377 . S
C935 C519 1.373 . S
C940 C515 1.379 . S
