# Generated by pormake.
# Topology can, (4)-cn, num edge types: 1
# Building blocks:
#     Node 0, Type 0, BuildingBlock: QUQFOY_clean_sbu_3, # of connection points: 4
#     Node 1, Type 0, BuildingBlock: QUQFOY_clean_sbu_3, # of connection points: 4
#     Node 2, Type 0, BuildingBlock: QUQFOY_clean_sbu_3, # of connection points: 4
#     Node 3, Type 0, BuildingBlock: QUQFOY_clean_sbu_3, # of connection points: 4
#     Node 4, Type 0, BuildingBlock: QUQFOY_clean_sbu_3, # of connection points: 4
#     Node 5, Type 0, BuildingBlock: QUQFOY_clean_sbu_3, # of connection points: 4
#     Node 6, Type 0, BuildingBlock: QUQFOY_clean_sbu_3, # of connection points: 4
#     Node 7, Type 0, BuildingBlock: QUQFOY_clean_sbu_3, # of connection points: 4
#     Node 8, Type 0, BuildingBlock: QUQFOY_clean_sbu_3, # of connection points: 4
#     Node 9, Type 0, BuildingBlock: QUQFOY_clean_sbu_3, # of connection points: 4
#     Node 10, Type 0, BuildingBlock: QUQFOY_clean_sbu_3, # of connection points: 4
#     Node 11, Type 0, BuildingBlock: QUQFOY_clean_sbu_3, # of connection points: 4
#     Edge 12, Type (0, 0), BuildingBlock: AJUNOK_clean_linker_0, # of connection points: 2
#     Edge 13, Type (0, 0), BuildingBlock: AJUNOK_clean_linker_0, # of connection points: 2
#     Edge 14, Type (0, 0), BuildingBlock: AJUNOK_clean_linker_0, # of connection points: 2
#     Edge 15, Type (0, 0), BuildingBlock: AJUNOK_clean_linker_0, # of connection points: 2
#     Edge 16, Type (0, 0), BuildingBlock: AJUNOK_clean_linker_0, # of connection points: 2
#     Edge 17, Type (0, 0), BuildingBlock: AJUNOK_clean_linker_0, # of connection points: 2
#     Edge 18, Type (0, 0), BuildingBlock: AJUNOK_clean_linker_0, # of connection points: 2
#     Edge 19, Type (0, 0), BuildingBlock: AJUNOK_clean_linker_0, # of connection points: 2
#     Edge 20, Type (0, 0), BuildingBlock: AJUNOK_clean_linker_0, # of connection points: 2
#     Edge 21, Type (0, 0), BuildingBlock: AJUNOK_clean_linker_0, # of connection points: 2
#     Edge 22, Type (0, 0), BuildingBlock: AJUNOK_clean_linker_0, # of connection points: 2
#     Edge 23, Type (0, 0), BuildingBlock: AJUNOK_clean_linker_0, # of connection points: 2
#     Edge 24, Type (0, 0), BuildingBlock: AJUNOK_clean_linker_0, # of connection points: 2
#     Edge 25, Type (0, 0), BuildingBlock: AJUNOK_clean_linker_0, # of connection points: 2
#     Edge 26, Type (0, 0), BuildingBlock: AJUNOK_clean_linker_0, # of connection points: 2
#     Edge 27, Type (0, 0), BuildingBlock: AJUNOK_clean_linker_0, # of connection points: 2
#     Edge 28, Type (0, 0), BuildingBlock: AJUNOK_clean_linker_0, # of connection points: 2
#     Edge 29, Type (0, 0), BuildingBlock: AJUNOK_clean_linker_0, # of connection points: 2
#     Edge 30, Type (0, 0), BuildingBlock: AJUNOK_clean_linker_0, # of connection points: 2
#     Edge 31, Type (0, 0), BuildingBlock: AJUNOK_clean_linker_0, # of connection points: 2
#     Edge 32, Type (0, 0), BuildingBlock: AJUNOK_clean_linker_0, # of connection points: 2
#     Edge 33, Type (0, 0), BuildingBlock: AJUNOK_clean_linker_0, # of connection points: 2
#     Edge 34, Type (0, 0), BuildingBlock: AJUNOK_clean_linker_0, # of connection points: 2
#     Edge 35, Type (0, 0), BuildingBlock: AJUNOK_clean_linker_0, # of connection points: 2
# Relax obj value: 0.050
# Max RMSD: 0.037
# Mean RMSD: 0.037
data_MOF--net-can--node1-QUQFOY_clean_sbu_3--edge1-AJUNOK_clean_linker_0
_symmetry_space_group_name_H-M    P1
_symmetry_Int_Tables_number       1
_symmetry_cell_setting            triclinic
loop_
_symmetry_equiv_pos_as_xyz
'x, y, z'
_cell_length_a     42.583319
_cell_length_b     42.476425
_cell_length_c     21.233937
_cell_angle_alpha  89.59044
_cell_angle_beta   90.457521
_cell_angle_gamma 120.11653
loop_
_atom_site_label
_atom_site_type_symbol
_atom_site_fract_x
_atom_site_fract_y
_atom_site_fract_z
_atom_type_partial_charge
C0 C -0.00037 0.3421 0.38484 0.0
O1 O 0.97094 0.32968 0.35163 0.0
Cd2 Cd 0.97059 0.34396 0.24204 0.0
O3 O 0.03063 0.36177 0.35991 0.0
Cd4 Cd 0.05852 0.38568 0.25701 0.0
C5 C 0.01939 0.43786 0.25245 0.0
O6 O 0.01551 0.33471 0.19342 0.0
O7 O 0.05572 0.38225 0.14343 0.0
O8 O 0.10044 0.36627 0.28693 0.0
C9 C 0.02893 0.35012 0.14122 0.0
O10 O -0.0104 0.40854 0.24191 0.0
C11 C 0.1289 0.39573 0.27234 0.0
O12 O 0.04862 0.43727 0.26252 0.0
O13 O 0.12471 0.42167 0.2523 0.0
C14 C 0.64485 0.98938 0.83924 0.0
O15 O 0.62652 0.96155 0.80498 0.0
Cd16 Cd 0.61123 0.96594 0.69705 0.0
O17 O 0.65741 0.02118 0.81628 0.0
Cd18 Cd 0.66196 0.05374 0.71862 0.0
C19 C 0.57095 0.01837 0.71883 0.0
O20 O 0.66566 0.01142 0.64855 0.0
O21 O 0.66161 0.05534 0.60471 0.0
O22 O 0.72479 0.0927 0.74315 0.0
C23 C 0.66437 0.02718 0.5985 0.0
O24 O 0.5684 0.98803 0.70488 0.0
C25 C 0.72431 0.12228 0.73923 0.0
O26 O 0.60179 0.04647 0.72896 0.0
O27 O 0.69395 0.11997 0.72696 0.0
C28 C 0.63303 0.63785 0.31885 0.0
O29 O 0.64592 0.62286 0.2841 0.0
Cd30 Cd 0.63612 0.61684 0.17117 0.0
O31 O 0.61531 0.65167 0.29446 0.0
Cd32 Cd 0.59505 0.66309 0.19319 0.0
C33 C 0.54263 0.57245 0.16702 0.0
O34 O 0.6475 0.67457 0.13189 0.0
O35 O 0.60349 0.67469 0.08107 0.0
O36 O 0.61354 0.72147 0.23683 0.0
C37 C 0.63464 0.67777 0.07967 0.0
O38 O 0.5719 0.57189 0.15811 0.0
C39 C 0.58414 0.72123 0.22545 0.0
O40 O 0.54347 0.60168 0.18325 0.0
O41 O 0.5588 0.693 0.19908 0.0
C42 C 0.97469 0.64106 0.86993 0.0
O43 O 0.00414 0.65471 0.83914 0.0
Cd44 Cd 0.00744 0.63761 0.73318 0.0
O45 O 0.94465 0.61931 0.84341 0.0
Cd46 Cd 0.91932 0.59274 0.74022 0.0
C47 C 0.9615 0.54398 0.75508 0.0
O48 O 0.96227 0.64236 0.67462 0.0
O49 O 0.92556 0.59183 0.62754 0.0
O50 O 0.87779 0.61424 0.75284 0.0
C51 C 0.95073 0.62475 0.62362 0.0
O52 O -0.00943 0.57391 0.74425 0.0
C53 C 0.84912 0.58406 0.74284 0.0
O54 O 0.93099 0.54269 0.75817 0.0
O55 O 0.85274 0.55644 0.73431 0.0
C56 C 0.33217 0.99041 0.32836 0.0
O57 O 0.34851 0.01927 0.29545 0.0
Cd58 Cd 0.36154 0.01829 0.18524 0.0
O59 O 0.32039 0.95945 0.30305 0.0
Cd60 Cd 0.31452 0.92995 0.20214 0.0
C61 C 0.40582 0.96881 0.19811 0.0
O62 O 0.30723 0.9726 0.1362 0.0
O63 O 0.31281 0.93069 0.08891 0.0
O64 O 0.25266 0.89022 0.23014 0.0
C65 C 0.30824 0.95791 0.08499 0.0
O66 O 0.40631 -0.00146 0.18672 0.0
C67 C 0.253 0.8608 0.22243 0.0
O68 O 0.37595 0.93954 0.20836 0.0
O69 O 0.28298 0.86348 0.20647 0.0
C70 C 0.31507 0.32376 0.80953 0.0
O71 O 0.30605 0.3425 0.77508 0.0
Cd72 Cd 0.33617 0.36699 0.67661 0.0
O73 O 0.33887 0.31632 0.79091 0.0
Cd74 Cd 0.37652 0.32315 0.70035 0.0
C75 C 0.42597 0.41253 0.72516 0.0
O76 O 0.33687 0.32014 0.61541 0.0
O77 O 0.39391 0.34293 0.59382 0.0
O78 O 0.35499 0.25935 0.70137 0.0
C79 C 0.36181 0.33176 0.57444 0.0
O80 O 0.39847 0.41356 0.70359 0.0
C81 C 0.38588 0.26193 0.70678 0.0
O82 O 0.42502 0.38232 0.73284 0.0
O83 O 0.41325 0.29379 0.71099 0.0
C84 C 0.63961 0.98062 0.11056 0.0
O85 O 0.65219 0.01034 0.14058 0.0
Cd86 Cd 0.6343 0.01407 0.24574 0.0
O87 O 0.61828 0.95053 0.1374 0.0
Cd88 Cd 0.59113 0.92596 0.24032 0.0
C89 C 0.54102 0.96667 0.22409 0.0
O90 O 0.63981 0.96979 0.30616 0.0
O91 O 0.58927 0.93271 0.35264 0.0
O92 O 0.61327 0.88458 0.23649 0.0
C93 C 0.622 0.9582 0.35687 0.0
O94 O 0.57053 -0.00369 0.23424 0.0
C95 C 0.5826 0.85577 0.24033 0.0
O96 O 0.5405 0.93644 0.22197 0.0
O97 O 0.5546 0.85919 0.24131 0.0
C98 C 0.63787 0.63464 0.59305 0.0
O99 O 0.62321 0.64949 0.6236 0.0
Cd100 Cd 0.61185 0.64186 0.73546 0.0
O101 O 0.6493 0.61594 0.62178 0.0
Cd102 Cd 0.65485 0.59765 0.72932 0.0
C103 C 0.5634 0.54821 0.74133 0.0
O104 O 0.66591 0.65165 0.78747 0.0
O105 O 0.65656 0.60443 0.84169 0.0
O106 O 0.71626 0.61582 0.70518 0.0
C107 C 0.66394 0.63727 0.84102 0.0
O108 O 0.56439 0.57851 0.74718 0.0
C109 C 0.71439 0.586 0.7205 0.0
O110 O 0.59236 0.54723 0.73111 0.0
O111 O 0.68356 0.56013 0.7376 0.0
C112 C 0.98426 0.64485 0.14159 0.0
O113 O 0.95652 0.62606 0.1756 0.0
Cd114 Cd 0.96058 0.61135 0.28397 0.0
O115 O 0.016 0.65812 0.1649 0.0
Cd116 Cd 0.04784 0.66293 0.26374 0.0
C117 C 0.01369 0.5718 0.26536 0.0
O118 O 0.00493 0.66666 0.33222 0.0
O119 O 0.0487 0.6633 0.3778 0.0
O120 O 0.08745 0.72589 0.23956 0.0
C121 C 0.0205 0.66595 0.38288 0.0
O122 O 0.98314 0.56874 0.27859 0.0
C123 C 0.11672 0.72498 0.24437 0.0
O124 O 0.04138 0.6029 0.25502 0.0
O125 O 0.11392 0.69439 0.25695 0.0
C126 C 0.33951 -0.00135 0.60091 0.0
O127 O 0.3276 0.96991 0.634 0.0
Cd128 Cd 0.34208 0.97026 0.74375 0.0
O129 O 0.35862 0.02978 0.62601 0.0
Cd130 Cd 0.38204 0.05817 0.72879 0.0
C131 C 0.43571 0.02082 0.734 0.0
O132 O 0.33146 0.0146 0.79173 0.0
O133 O 0.37822 0.05565 0.84237 0.0
O134 O 0.36075 0.09848 0.6988 0.0
C135 C 0.34639 0.02837 0.8441 0.0
O136 O 0.40682 0.99059 0.74423 0.0
C137 C 0.39001 0.12771 0.71117 0.0
O138 O 0.43441 0.04974 0.72404 0.0
O139 O 0.41673 0.12469 0.73038 0.0
C140 C 0.31274 0.3275 0.07603 0.0
O141 O 0.3329 0.31744 0.10312 0.0
Cd142 Cd 0.36309 0.34268 0.2007 0.0
O143 O 0.30601 0.35017 0.10264 0.0
Cd144 Cd 0.31949 0.3815 0.20416 0.0
C145 C 0.40664 0.43479 0.17009 0.0
O146 O 0.32065 0.33807 0.2781 0.0
O147 O 0.34976 0.395 0.30455 0.0
O148 O 0.25743 0.36037 0.22932 0.0
C149 C 0.33656 0.36194 0.32041 0.0
O150 O 0.40888 0.40657 0.18246 0.0
C151 C 0.26022 0.39147 0.23151 0.0
O152 O 0.37595 0.43307 0.16948 0.0
O153 O 0.29079 0.41876 0.21747 0.0
C154 C -0.00923 0.3365 0.65719 0.0
O155 O 0.01945 0.35375 0.69018 0.0
Cd156 Cd 0.01804 0.36759 0.79977 0.0
O157 O 0.95974 0.32434 0.68212 0.0
Cd158 Cd 0.93015 0.31916 0.78269 0.0
C159 C 0.96757 0.41062 0.78442 0.0
O160 O 0.97318 0.31276 0.84885 0.0
O161 O 0.93109 0.31779 0.89619 0.0
O162 O 0.89002 0.25696 0.75554 0.0
C163 C 0.95845 0.31356 0.90007 0.0
O164 O -0.00247 0.41188 0.79643 0.0
C165 C 0.86087 0.25772 0.76295 0.0
O166 O 0.93873 0.38025 0.77478 0.0
O167 O 0.86392 0.28798 0.77852 0.0
C168 C 0.03114 0.34616 0.0249 0.0
C169 C 0.01081 0.33466 0.08074 0.0
C170 C 0.01405 0.33691 0.96596 0.0
C171 C 0.97605 0.31662 0.96119 0.0
H172 H 0.06038 0.36351 0.02676 0.0
H173 H 0.03055 0.34763 0.92411 0.0
S174 S 0.91077 0.27663 0.0927 0.0
N175 N 0.95092 0.29882 0.12738 0.0
N176 N 0.91872 0.2825 0.0163 0.0
C177 C 0.95553 0.30327 0.0164 0.0
C178 C 0.97296 0.31197 0.0764 0.0
C179 C 0.62543 0.9552 0.47319 0.0
C180 C 0.63709 0.97588 0.41749 0.0
C181 C 0.63639 0.97185 0.53207 0.0
C182 C 0.65851 0.00978 0.53687 0.0
H183 H 0.60715 0.92604 0.47125 0.0
H184 H 0.62592 0.95514 0.57398 0.0
S185 S 0.69812 0.07574 0.40525 0.0
N186 N 0.6739 0.03585 0.3706 0.0
N187 N 0.69342 0.06736 0.48172 0.0
C188 C 0.67136 0.03061 0.48163 0.0
C189 C 0.66094 0.01357 0.42168 0.0
C190 C 0.66712 0.65468 0.01513 0.0
C191 C 0.64988 0.6754 0.01917 0.0
C192 C 0.6737 0.64432 0.95657 0.0
C193 C 0.66401 0.65503 0.90029 0.0
H194 H 0.6731 0.6441 0.05729 0.0
H195 H 0.68489 0.62637 0.95543 0.0
S196 S 0.62378 0.71453 0.88586 0.0
N197 N 0.62707 0.70981 0.9625 0.0
N198 N 0.64042 0.69114 0.85211 0.0
C199 C 0.64989 0.67857 0.90366 0.0
C200 C 0.64253 0.68854 0.96333 0.0
C201 C 0.96502 0.63844 0.44848 0.0
C202 C 0.00287 0.66062 0.44413 0.0
C203 C 0.94817 0.62787 0.50718 0.0
C204 C 0.96855 0.63996 0.56315 0.0
H205 H 0.94855 0.62757 0.40641 0.0
H206 H 0.9191 0.60942 0.50879 0.0
S207 S 0.06806 0.70158 0.57644 0.0
N208 N 0.06004 0.69624 0.4999 0.0
N209 N 0.02815 0.67745 0.61064 0.0
C210 C 0.00614 0.66399 0.55933 0.0
C211 C 0.02339 0.67402 0.49957 0.0
C212 C 0.34167 0.03073 0.96029 0.0
C213 C 0.33059 0.0103 0.90442 0.0
C214 C 0.33192 0.01365 0.01918 0.0
C215 C 0.3115 0.97557 0.02388 0.0
H216 H 0.35909 0.06003 0.95853 0.0
H217 H 0.34238 0.03021 0.06112 0.0
S218 S 0.2724 0.91003 0.89217 0.0
N219 N 0.29498 0.95025 0.85757 0.0
N220 N 0.27767 0.91807 0.96861 0.0
C221 C 0.29852 0.95497 0.96858 0.0
C222 C 0.30777 0.97238 0.90862 0.0
C223 C 0.37564 0.37533 0.41459 0.0
C224 C 0.34274 0.3523 0.38369 0.0
C225 C 0.38186 0.36783 0.47598 0.0
C226 C 0.35497 0.33762 0.50893 0.0
H227 H 0.39676 0.39929 0.39111 0.0
H228 H 0.40754 0.38638 0.49834 0.0
S229 S 0.2643 0.26898 0.44855 0.0
N230 N 0.28327 0.29777 0.38938 0.0
N231 N 0.29453 0.28425 0.50631 0.0
C232 C 0.32198 0.3143 0.47855 0.0
C233 C 0.31599 0.32147 0.41535 0.0
C234 C 0.00955 0.66556 0.96985 0.0
C235 C 0.97582 0.64717 0.93873 0.0
C236 C 0.01178 0.66633 0.03552 0.0
C237 C 0.98039 0.6487 0.07297 0.0
H238 H 0.03465 0.67809 0.94349 0.0
H239 H 0.03856 0.67955 0.05684 0.0
S240 S 0.88516 0.60233 0.01478 0.0
N241 N 0.91004 0.61508 0.95035 0.0
N242 N 0.91431 0.6164 0.07406 0.0
C243 C 0.94636 0.63266 0.04261 0.0
C244 C 0.94406 0.63192 0.97547 0.0
C245 C 0.35114 0.02585 0.42855 0.0
C246 C 0.32956 0.99258 0.39756 0.0
C247 C 0.35305 0.02768 0.49432 0.0
C248 C 0.33346 -0.00368 0.53185 0.0
H249 H 0.36788 0.05051 0.40194 0.0
H250 H 0.37111 0.0538 0.51569 0.0
S251 S 0.26872 0.9034 0.47391 0.0
N252 N 0.28504 0.92814 0.40944 0.0
N253 N 0.28878 0.93163 0.53309 0.0
C254 C 0.31011 0.96323 0.50155 0.0
C255 C 0.30811 0.96136 0.43446 0.0
C256 C 0.29289 0.33847 0.90685 0.0
C257 C 0.3031 0.31593 0.87565 0.0
C258 C 0.29252 0.33945 0.97265 0.0
C259 C 0.30239 0.31797 0.0093 0.0
H260 H 0.28829 0.35779 0.88069 0.0
H261 H 0.28746 0.35943 -0.00545 0.0
S262 S 0.32042 0.24666 0.94972 0.0
N263 N 0.31527 0.26593 0.8857 0.0
N264 N 0.31466 0.26783 0.00957 0.0
C265 C 0.30784 0.2919 0.97857 0.0
C266 C 0.30817 0.29087 0.91159 0.0
C267 C 0.02641 0.35496 0.5574 0.0
C268 C -0.00681 0.33328 0.5882 0.0
C269 C 0.02842 0.35639 0.49163 0.0
C270 C -0.00271 0.33623 0.45394 0.0
H271 H 0.05088 0.37217 0.58409 0.0
H272 H 0.05445 0.3746 0.47038 0.0
S273 S 0.90471 0.27085 0.5115 0.0
N274 N 0.92914 0.28793 0.57607 0.0
N275 N 0.93295 0.29078 0.45244 0.0
C276 C 0.9643 0.31269 0.48411 0.0
C277 C 0.96225 0.31117 0.55119 0.0
C278 C 0.66661 0.0171 0.94514 0.0
C279 C 0.64871 0.98555 0.90785 0.0
C280 C 0.66544 0.01506 0.01081 0.0
C281 C 0.64637 0.98139 0.04207 0.0
H282 H 0.68031 0.04388 0.92366 0.0
H283 H 0.67816 0.04031 0.03699 0.0
S284 S 0.60079 0.89025 0.96661 0.0
N285 N 0.61559 0.9193 0.90715 0.0
N286 N 0.61352 0.91538 0.03088 0.0
C287 C 0.631 0.94941 0.00556 0.0
C288 C 0.63214 0.95151 0.93841 0.0
C289 C 0.62229 0.65524 0.42533 0.0
C290 C 0.63723 0.63858 0.38846 0.0
C291 C 0.62354 0.65465 0.49113 0.0
C292 C 0.63977 0.63736 0.52322 0.0
H293 H 0.60886 0.66845 0.40337 0.0
H294 H 0.61093 0.66728 0.51691 0.0
S295 S 0.68533 0.59185 0.44908 0.0
N296 N 0.67055 0.60586 0.38912 0.0
N297 N 0.67302 0.60478 0.5129 0.0
C298 C 0.65592 0.62156 0.48706 0.0
C299 C 0.65463 0.62217 0.41978 0.0
C300 C 0.98464 0.50418 0.26113 0.0
C301 C 0.01652 0.53846 0.26137 0.0
C302 C 0.98601 0.47206 0.25768 0.0
C303 C 0.01933 0.47271 0.25475 0.0
H304 H 0.9582 0.50196 0.26344 0.0
H305 H 0.96057 0.44648 0.25794 0.0
S306 S 0.11089 0.55539 0.25328 0.0
N307 N 0.0826 0.57119 0.25781 0.0
N308 N 0.08516 0.51065 0.25151 0.0
C309 C 0.05153 0.50678 0.25474 0.0
C310 C 0.05013 0.53965 0.25792 0.0
C311 C 0.47104 0.98859 0.72874 0.0
C312 C 0.47089 0.0216 0.73161 0.0
C313 C 0.50347 0.98801 0.72472 0.0
C314 C 0.53729 0.0204 0.72384 0.0
H315 H 0.44583 0.96278 0.72886 0.0
H316 H 0.50184 0.96176 0.7224 0.0
S317 S 0.55216 0.11427 0.73182 0.0
N318 N 0.50763 0.08772 0.73434 0.0
N319 N 0.56875 0.08662 0.72698 0.0
C320 C 0.5377 0.05371 0.72741 0.0
C321 C 0.50451 0.05431 0.73116 0.0
C322 C 0.5068 0.50468 0.15969 0.0
C323 C 0.50738 0.53808 0.16156 0.0
C324 C 0.47407 0.47155 0.15998 0.0
C325 C 0.44045 0.47033 0.1618 0.0
H326 H 0.53186 0.50393 0.15996 0.0
H327 H 0.47531 0.44669 0.16037 0.0
S328 S 0.42686 0.5502 0.16015 0.0
N329 N 0.47135 0.56799 0.16021 0.0
N330 N 0.40973 0.50568 0.16061 0.0
C331 C 0.44053 0.50355 0.16055 0.0
C332 C 0.47399 0.53739 0.16057 0.0
C333 C 0.93203 0.47602 0.75951 0.0
C334 C 0.96351 0.51042 0.76461 0.0
C335 C 0.93353 0.44396 0.7666 0.0
C336 C 0.96654 0.445 0.77954 0.0
H337 H 0.90604 0.47374 0.74895 0.0
H338 H 0.90856 0.41819 0.76138 0.0
S339 S 0.05656 0.52842 0.80142 0.0
N340 N 0.0285 0.54368 0.78614 0.0
N341 N 0.03137 0.48367 0.79957 0.0
C342 C -0.00186 0.47932 0.78612 0.0
C343 C -0.00338 0.51192 0.77859 0.0
C344 C 0.4406 0.93624 0.21605 0.0
C345 C 0.44061 0.96867 0.20165 0.0
C346 C 0.47312 0.93569 0.2223 0.0
C347 C 0.50696 0.96758 0.21481 0.0
H348 H 0.41531 0.91103 0.22328 0.0
H349 H 0.47166 0.91015 0.23423 0.0
S350 S 0.52218 0.05923 0.17265 0.0
N351 N 0.47768 0.03329 0.17707 0.0
N352 N 0.53854 0.03218 0.18899 0.0
C353 C 0.50741 6e-05 0.19909 0.0
C354 C 0.47434 0.00061 0.19242 0.0
C355 C 0.52669 0.48017 0.73791 0.0
C356 C 0.52794 0.51379 0.74347 0.0
C357 C 0.49356 0.44742 0.7347 0.0
C358 C 0.46033 0.44697 0.73642 0.0
H359 H 0.55148 0.47905 0.73459 0.0
H360 H 0.49412 0.42241 0.7285 0.0
S361 S 0.44823 0.52691 0.75748 0.0
N362 N 0.49263 0.54415 0.75574 0.0
N363 N 0.43051 0.48258 0.74924 0.0
C364 C 0.46105 0.48014 0.74467 0.0
C365 C 0.49479 0.51352 0.74836 0.0
C366 C 0.19333 0.42534 0.23657 0.0
C367 C 0.16458 0.39789 0.27165 0.0
C368 C 0.22511 0.42407 0.22577 0.0
C369 C 0.22892 0.39517 0.24936 0.0
H370 H 0.19064 0.447 0.21473 0.0
H371 H 0.24601 0.44485 0.19637 0.0
S372 S 0.16453 0.32035 0.35357 0.0
N373 N 0.1442 0.34382 0.33704 0.0
N374 N 0.20367 0.34129 0.31617 0.0
C375 C 0.2015 0.36902 0.28808 0.0
C376 C 0.16938 0.37044 0.29945 0.0
C377 C 0.82431 0.19071 0.75109 0.0
C378 C 0.82533 0.22418 0.75623 0.0
C379 C 0.79146 0.1581 0.74637 0.0
C380 C 0.75818 0.15754 0.74602 0.0
H381 H 0.84912 0.18949 0.75122 0.0
H382 H 0.79232 0.13313 0.74243 0.0
S383 S 0.74577 0.23775 0.75788 0.0
N384 N 0.79019 0.25496 0.7607 0.0
N385 N 0.72806 0.1933 0.75112 0.0
C386 C 0.75863 0.19078 0.75083 0.0
C387 C 0.79229 0.22418 0.75615 0.0
C388 C 0.55237 0.75688 0.21075 0.0
C389 C 0.58102 0.75372 0.23763 0.0
C390 C 0.55195 0.78963 0.21414 0.0
C391 C 0.58034 0.82017 0.24395 0.0
H392 H 0.53091 0.73446 0.18472 0.0
H393 H 0.53026 0.79156 0.19078 0.0
S394 S 0.65818 0.82429 0.33087 0.0
N395 N 0.63591 0.78266 0.3021 0.0
N396 N 0.63529 0.84415 0.30738 0.0
C397 C 0.60783 0.81668 0.27433 0.0
C398 C 0.60812 0.78342 0.2715 0.0
C399 C 0.81377 0.61517 0.72609 0.0
C400 C 0.81385 0.58254 0.73696 0.0
C401 C 0.78142 0.61553 0.71904 0.0
C402 C 0.74763 0.58333 0.72334 0.0
H403 H 0.839 0.64086 0.72254 0.0
H404 H 0.7831 0.64157 0.71132 0.0
S405 S 0.73277 0.49041 0.75031 0.0
N406 N 0.77738 0.51691 0.75043 0.0
N407 N 0.71603 0.51762 0.73828 0.0
C408 C 0.74712 0.55031 0.73375 0.0
C409 C 0.78036 0.54991 0.74023 0.0
C410 C 0.18614 0.82495 0.23439 0.0
C411 C 0.21925 0.82541 0.22899 0.0
C412 C 0.15332 0.79228 0.23862 0.0
C413 C 0.15217 0.75865 0.23823 0.0
H414 H 0.18536 0.85005 0.23476 0.0
H415 H 0.12864 0.79357 0.24274 0.0
S416 S 0.23125 0.74473 0.22556 0.0
N417 N 0.24906 0.78936 0.22357 0.0
N418 N 0.18699 0.72758 0.23228 0.0
C419 C 0.18505 0.75854 0.23326 0.0
C420 C 0.21867 0.79201 0.22841 0.0
C421 C 0.35871 0.19577 0.68848 0.0
C422 C 0.38909 0.22895 0.70637 0.0
C423 C 0.35989 0.1636 0.68849 0.0
C424 C 0.39143 0.1631 0.7068 0.0
H425 H 0.33356 0.19445 0.67446 0.0
H426 H 0.33548 0.13879 0.67498 0.0
S427 S 0.47895 0.24293 0.75591 0.0
N428 N 0.45214 0.2598 0.74112 0.0
N429 N 0.45432 0.19886 0.74168 0.0
C430 C 0.42238 0.19619 0.72366 0.0
C431 C 0.42122 0.22922 0.72332 0.0
loop_
_geom_bond_atom_site_label_1
_geom_bond_atom_site_label_2
_geom_bond_distance
_geom_bond_site_symmetry_2
_ccdc_geom_bond_type
C0 O1 1.306 1_455 S
C0 O3 1.160 . S
O1 C0 1.306 1_655 S
O1 Cd2 2.228 . S
Cd2 O1 2.228 . S
Cd2 O6 2.273 1_655 S
Cd2 O10 2.277 1_655 S
O3 C0 1.160 . S
O3 Cd4 2.203 . S
Cd4 O3 2.203 . S
Cd4 O6 2.411 . S
Cd4 O7 2.333 . S
Cd4 O8 2.352 . S
Cd4 O12 2.277 . S
Cd4 O13 2.356 . S
C5 O10 1.209 . S
C5 O12 1.226 . S
O6 Cd2 2.273 1_455 S
O6 Cd4 2.411 . S
O6 C9 1.320 . S
O7 Cd4 2.333 . S
O7 C9 1.214 . S
O8 Cd4 2.352 . S
O8 C11 1.258 . S
C9 O6 1.320 . S
C9 O7 1.214 . S
O10 Cd2 2.277 1_455 S
O10 C5 1.209 . S
C11 O8 1.258 . S
C11 O13 1.282 . S
O12 Cd4 2.277 . S
O12 C5 1.226 . S
O13 Cd4 2.356 . S
O13 C11 1.282 . S
C14 O15 1.306 1_545 S
C14 O17 1.160 . S
O15 C14 1.306 1_565 S
O15 Cd16 2.228 . S
Cd16 O15 2.228 . S
Cd16 O20 2.273 1_565 S
Cd16 O24 2.277 1_565 S
O17 C14 1.160 . S
O17 Cd18 2.203 . S
Cd18 O17 2.203 . S
Cd18 O20 2.411 . S
Cd18 O21 2.333 . S
Cd18 O22 2.352 . S
Cd18 O26 2.277 . S
Cd18 O27 2.356 . S
C19 O24 1.209 . S
C19 O26 1.226 . S
O20 Cd16 2.273 1_545 S
O20 Cd18 2.411 . S
O20 C23 1.320 . S
O21 Cd18 2.333 . S
O21 C23 1.214 . S
O22 Cd18 2.352 . S
O22 C25 1.258 . S
C23 O20 1.320 . S
C23 O21 1.214 . S
O24 Cd16 2.277 1_545 S
O24 C19 1.209 . S
C25 O22 1.258 . S
C25 O27 1.282 . S
O26 Cd18 2.277 . S
O26 C19 1.226 . S
O27 Cd18 2.356 . S
O27 C25 1.282 . S
C28 O29 1.306 . S
C28 O31 1.160 . S
O29 C28 1.306 . S
O29 Cd30 2.228 . S
Cd30 O29 2.228 . S
Cd30 O34 2.273 . S
Cd30 O38 2.277 . S
O31 C28 1.160 . S
O31 Cd32 2.203 . S
Cd32 O31 2.203 . S
Cd32 O34 2.411 . S
Cd32 O35 2.333 . S
Cd32 O36 2.352 . S
Cd32 O40 2.277 . S
Cd32 O41 2.356 . S
C33 O38 1.209 . S
C33 O40 1.226 . S
O34 Cd30 2.273 . S
O34 Cd32 2.411 . S
O34 C37 1.320 . S
O35 Cd32 2.333 . S
O35 C37 1.214 . S
O36 Cd32 2.352 . S
O36 C39 1.258 . S
C37 O34 1.320 . S
C37 O35 1.214 . S
O38 Cd30 2.277 . S
O38 C33 1.209 . S
C39 O36 1.258 . S
C39 O41 1.282 . S
O40 Cd32 2.277 . S
O40 C33 1.226 . S
O41 Cd32 2.356 . S
O41 C39 1.282 . S
C42 O43 1.306 1_655 S
C42 O45 1.160 . S
O43 C42 1.306 1_455 S
O43 Cd44 2.228 . S
Cd44 O43 2.228 . S
Cd44 O48 2.273 1_455 S
Cd44 O52 2.277 1_455 S
O45 C42 1.160 . S
O45 Cd46 2.203 . S
Cd46 O45 2.203 . S
Cd46 O48 2.411 . S
Cd46 O49 2.333 . S
Cd46 O50 2.352 . S
Cd46 O54 2.277 . S
Cd46 O55 2.356 . S
C47 O52 1.209 . S
C47 O54 1.226 . S
O48 Cd44 2.273 1_655 S
O48 Cd46 2.411 . S
O48 C51 1.320 . S
O49 Cd46 2.333 . S
O49 C51 1.214 . S
O50 Cd46 2.352 . S
O50 C53 1.258 . S
C51 O48 1.320 . S
C51 O49 1.214 . S
O52 Cd44 2.277 1_655 S
O52 C47 1.209 . S
C53 O50 1.258 . S
C53 O55 1.282 . S
O54 Cd46 2.277 . S
O54 C47 1.226 . S
O55 Cd46 2.356 . S
O55 C53 1.282 . S
C56 O57 1.306 1_565 S
C56 O59 1.160 . S
O57 C56 1.306 1_545 S
O57 Cd58 2.228 . S
Cd58 O57 2.228 . S
Cd58 O62 2.273 1_545 S
Cd58 O66 2.277 1_545 S
O59 C56 1.160 . S
O59 Cd60 2.203 . S
Cd60 O59 2.203 . S
Cd60 O62 2.411 . S
Cd60 O63 2.333 . S
Cd60 O64 2.352 . S
Cd60 O68 2.277 . S
Cd60 O69 2.356 . S
C61 O66 1.209 . S
C61 O68 1.226 . S
O62 Cd58 2.273 1_565 S
O62 Cd60 2.411 . S
O62 C65 1.320 . S
O63 Cd60 2.333 . S
O63 C65 1.214 . S
O64 Cd60 2.352 . S
O64 C67 1.258 . S
C65 O62 1.320 . S
C65 O63 1.214 . S
O66 Cd58 2.277 1_565 S
O66 C61 1.209 . S
C67 O64 1.258 . S
C67 O69 1.282 . S
O68 Cd60 2.277 . S
O68 C61 1.226 . S
O69 Cd60 2.356 . S
O69 C67 1.282 . S
C70 O71 1.306 . S
C70 O73 1.160 . S
O71 C70 1.306 . S
O71 Cd72 2.228 . S
Cd72 O71 2.228 . S
Cd72 O76 2.273 . S
Cd72 O80 2.277 . S
O73 C70 1.160 . S
O73 Cd74 2.203 . S
Cd74 O73 2.203 . S
Cd74 O76 2.411 . S
Cd74 O77 2.333 . S
Cd74 O78 2.352 . S
Cd74 O82 2.277 . S
Cd74 O83 2.356 . S
C75 O80 1.209 . S
C75 O82 1.226 . S
O76 Cd72 2.273 . S
O76 Cd74 2.411 . S
O76 C79 1.320 . S
O77 Cd74 2.333 . S
O77 C79 1.214 . S
O78 Cd74 2.352 . S
O78 C81 1.258 . S
C79 O76 1.320 . S
C79 O77 1.214 . S
O80 Cd72 2.277 . S
O80 C75 1.209 . S
C81 O78 1.258 . S
C81 O83 1.282 . S
O82 Cd74 2.277 . S
O82 C75 1.226 . S
O83 Cd74 2.356 . S
O83 C81 1.282 . S
C84 O85 1.306 1_565 S
C84 O87 1.160 . S
O85 C84 1.306 1_545 S
O85 Cd86 2.228 . S
Cd86 O85 2.228 . S
Cd86 O90 2.273 1_545 S
Cd86 O94 2.277 1_545 S
O87 C84 1.160 . S
O87 Cd88 2.203 . S
Cd88 O87 2.203 . S
Cd88 O90 2.411 . S
Cd88 O91 2.333 . S
Cd88 O92 2.352 . S
Cd88 O96 2.277 . S
Cd88 O97 2.356 . S
C89 O94 1.209 . S
C89 O96 1.226 . S
O90 Cd86 2.273 1_565 S
O90 Cd88 2.411 . S
O90 C93 1.320 . S
O91 Cd88 2.333 . S
O91 C93 1.214 . S
O92 Cd88 2.352 . S
O92 C95 1.258 . S
C93 O90 1.320 . S
C93 O91 1.214 . S
O94 Cd86 2.277 1_565 S
O94 C89 1.209 . S
C95 O92 1.258 . S
C95 O97 1.282 . S
O96 Cd88 2.277 . S
O96 C89 1.226 . S
O97 Cd88 2.356 . S
O97 C95 1.282 . S
C98 O99 1.306 . S
C98 O101 1.160 . S
O99 C98 1.306 . S
O99 Cd100 2.228 . S
Cd100 O99 2.228 . S
Cd100 O104 2.273 . S
Cd100 O108 2.277 . S
O101 C98 1.160 . S
O101 Cd102 2.203 . S
Cd102 O101 2.203 . S
Cd102 O104 2.411 . S
Cd102 O105 2.333 . S
Cd102 O106 2.352 . S
Cd102 O110 2.277 . S
Cd102 O111 2.356 . S
C103 O108 1.209 . S
C103 O110 1.226 . S
O104 Cd100 2.273 . S
O104 Cd102 2.411 . S
O104 C107 1.320 . S
O105 Cd102 2.333 . S
O105 C107 1.214 . S
O106 Cd102 2.352 . S
O106 C109 1.258 . S
C107 O104 1.320 . S
C107 O105 1.214 . S
O108 Cd100 2.277 . S
O108 C103 1.209 . S
C109 O106 1.258 . S
C109 O111 1.282 . S
O110 Cd102 2.277 . S
O110 C103 1.226 . S
O111 Cd102 2.356 . S
O111 C109 1.282 . S
C112 O113 1.306 1_455 S
C112 O115 1.160 . S
O113 C112 1.306 1_655 S
O113 Cd114 2.228 . S
Cd114 O113 2.228 . S
Cd114 O118 2.273 1_655 S
Cd114 O122 2.277 1_655 S
O115 C112 1.160 . S
O115 Cd116 2.203 . S
Cd116 O115 2.203 . S
Cd116 O118 2.411 . S
Cd116 O119 2.333 . S
Cd116 O120 2.352 . S
Cd116 O124 2.277 . S
Cd116 O125 2.356 . S
C117 O122 1.209 . S
C117 O124 1.226 . S
O118 Cd114 2.273 1_455 S
O118 Cd116 2.411 . S
O118 C121 1.320 . S
O119 Cd116 2.333 . S
O119 C121 1.214 . S
O120 Cd116 2.352 . S
O120 C123 1.258 . S
C121 O118 1.320 . S
C121 O119 1.214 . S
O122 Cd114 2.277 1_455 S
O122 C117 1.209 . S
C123 O120 1.258 . S
C123 O125 1.282 . S
O124 Cd116 2.277 . S
O124 C117 1.226 . S
O125 Cd116 2.356 . S
O125 C123 1.282 . S
C126 O127 1.306 1_545 S
C126 O129 1.160 . S
O127 C126 1.306 1_565 S
O127 Cd128 2.228 . S
Cd128 O127 2.228 . S
Cd128 O132 2.273 1_565 S
Cd128 O136 2.277 1_565 S
O129 C126 1.160 . S
O129 Cd130 2.203 . S
Cd130 O129 2.203 . S
Cd130 O132 2.411 . S
Cd130 O133 2.333 . S
Cd130 O134 2.352 . S
Cd130 O138 2.277 . S
Cd130 O139 2.356 . S
C131 O136 1.209 . S
C131 O138 1.226 . S
O132 Cd128 2.273 1_545 S
O132 Cd130 2.411 . S
O132 C135 1.320 . S
O133 Cd130 2.333 . S
O133 C135 1.214 . S
O134 Cd130 2.352 . S
O134 C137 1.258 . S
C135 O132 1.320 . S
C135 O133 1.214 . S
O136 Cd128 2.277 1_545 S
O136 C131 1.209 . S
C137 O134 1.258 . S
C137 O139 1.282 . S
O138 Cd130 2.277 . S
O138 C131 1.226 . S
O139 Cd130 2.356 . S
O139 C137 1.282 . S
C140 O141 1.306 . S
C140 O143 1.160 . S
O141 C140 1.306 . S
O141 Cd142 2.228 . S
Cd142 O141 2.228 . S
Cd142 O146 2.273 . S
Cd142 O150 2.277 . S
O143 C140 1.160 . S
O143 Cd144 2.203 . S
Cd144 O143 2.203 . S
Cd144 O146 2.411 . S
Cd144 O147 2.333 . S
Cd144 O148 2.352 . S
Cd144 O152 2.277 . S
Cd144 O153 2.356 . S
C145 O150 1.209 . S
C145 O152 1.226 . S
O146 Cd142 2.273 . S
O146 Cd144 2.411 . S
O146 C149 1.320 . S
O147 Cd144 2.333 . S
O147 C149 1.214 . S
O148 Cd144 2.352 . S
O148 C151 1.258 . S
C149 O146 1.320 . S
C149 O147 1.214 . S
O150 Cd142 2.277 . S
O150 C145 1.209 . S
C151 O148 1.258 . S
C151 O153 1.282 . S
O152 Cd144 2.277 . S
O152 C145 1.226 . S
O153 Cd144 2.356 . S
O153 C151 1.282 . S
C154 O155 1.306 1_655 S
C154 O157 1.160 . S
O155 C154 1.306 1_455 S
O155 Cd156 2.228 . S
Cd156 O155 2.228 . S
Cd156 O160 2.273 1_455 S
Cd156 O164 2.277 1_455 S
O157 C154 1.160 . S
O157 Cd158 2.203 . S
Cd158 O157 2.203 . S
Cd158 O160 2.411 . S
Cd158 O161 2.333 . S
Cd158 O162 2.352 . S
Cd158 O166 2.277 . S
Cd158 O167 2.356 . S
C159 O164 1.209 . S
C159 O166 1.226 . S
O160 Cd156 2.273 1_655 S
O160 Cd158 2.411 . S
O160 C163 1.320 . S
O161 Cd158 2.333 . S
O161 C163 1.214 . S
O162 Cd158 2.352 . S
O162 C165 1.258 . S
C163 O160 1.320 . S
C163 O161 1.214 . S
O164 Cd156 2.277 1_655 S
O164 C159 1.209 . S
C165 O162 1.258 . S
C165 O167 1.282 . S
O166 Cd158 2.277 . S
O166 C159 1.226 . S
O167 Cd158 2.356 . S
O167 C165 1.282 . S
C168 C169 1.369 . S
C168 C170 1.419 1_554 S
C168 H172 0.930 . S
C169 C168 1.369 . S
C169 C178 1.429 1_455 S
C170 C168 1.419 1_556 S
C170 C171 1.363 1_455 S
C170 H173 0.929 . S
C171 C170 1.363 1_655 S
C171 C177 1.428 . S
H172 C168 0.930 . S
H173 C170 0.929 . S
S174 N175 1.613 . S
S174 N176 1.610 1_554 S
N175 S174 1.613 . S
N175 C178 1.350 . S
N176 S174 1.610 1_556 S
N176 C177 1.351 . S
C177 C171 1.428 . S
C177 N176 1.351 . S
C177 C178 1.434 1_556 S
C178 C169 1.429 1_655 S
C178 N175 1.350 . S
C178 C177 1.434 1_554 S
C179 C180 1.369 . S
C179 C181 1.419 . S
C179 H183 0.930 . S
C180 C179 1.369 . S
C180 C189 1.429 1_565 S
C181 C179 1.419 . S
C181 C182 1.363 1_565 S
C181 H184 0.929 . S
C182 C181 1.363 1_545 S
C182 C188 1.428 . S
H183 C179 0.930 . S
H184 C181 0.929 . S
S185 N186 1.613 . S
S185 N187 1.610 . S
N186 S185 1.613 . S
N186 C189 1.350 . S
N187 S185 1.610 . S
N187 C188 1.351 . S
C188 C182 1.428 . S
C188 N187 1.351 . S
C188 C189 1.434 . S
C189 C180 1.429 1_545 S
C189 N186 1.350 . S
C189 C188 1.434 . S
C190 C191 1.369 . S
C190 C192 1.419 1_554 S
C190 H194 0.930 . S
C191 C190 1.369 . S
C191 C200 1.429 . S
C192 C190 1.419 1_556 S
C192 C193 1.363 . S
C192 H195 0.929 . S
C193 C192 1.363 . S
C193 C199 1.428 . S
H194 C190 0.930 . S
H195 C192 0.929 . S
S196 N197 1.613 1_556 S
S196 N198 1.610 . S
N197 S196 1.613 1_554 S
N197 C200 1.350 . S
N198 S196 1.610 . S
N198 C199 1.351 . S
C199 C193 1.428 . S
C199 N198 1.351 . S
C199 C200 1.434 1_556 S
C200 C191 1.429 . S
C200 N197 1.350 . S
C200 C199 1.434 1_554 S
C201 C202 1.369 1_655 S
C201 C203 1.419 . S
C201 H205 0.930 . S
C202 C201 1.369 1_455 S
C202 C211 1.429 . S
C203 C201 1.419 . S
C203 C204 1.363 . S
C203 H206 0.929 . S
C204 C203 1.363 . S
C204 C210 1.428 1_655 S
H205 C201 0.930 . S
H206 C203 0.929 . S
S207 N208 1.613 . S
S207 N209 1.610 . S
N208 S207 1.613 . S
N208 C211 1.350 . S
N209 S207 1.610 . S
N209 C210 1.351 . S
C210 C204 1.428 1_455 S
C210 N209 1.351 . S
C210 C211 1.434 . S
C211 C202 1.429 . S
C211 N208 1.350 . S
C211 C210 1.434 . S
C212 C213 1.369 . S
C212 C214 1.419 1_556 S
C212 H216 0.930 . S
C213 C212 1.369 . S
C213 C222 1.429 1_545 S
C214 C212 1.419 1_554 S
C214 C215 1.363 1_545 S
C214 H217 0.929 . S
C215 C214 1.363 1_565 S
C215 C221 1.428 . S
H216 C212 0.930 . S
H217 C214 0.929 . S
S218 N219 1.613 . S
S218 N220 1.610 1_556 S
N219 S218 1.613 . S
N219 C222 1.350 . S
N220 S218 1.610 1_554 S
N220 C221 1.351 . S
C221 C215 1.428 . S
C221 N220 1.351 . S
C221 C222 1.434 1_554 S
C222 C213 1.429 1_565 S
C222 N219 1.350 . S
C222 C221 1.434 1_556 S
C223 C224 1.369 . S
C223 C225 1.419 . S
C223 H227 0.930 . S
C224 C223 1.369 . S
C224 C233 1.429 . S
C225 C223 1.419 . S
C225 C226 1.363 . S
C225 H228 0.929 . S
C226 C225 1.363 . S
C226 C232 1.428 . S
H227 C223 0.930 . S
H228 C225 0.929 . S
S229 N230 1.613 . S
S229 N231 1.610 . S
N230 S229 1.613 . S
N230 C233 1.350 . S
N231 S229 1.610 . S
N231 C232 1.351 . S
C232 C226 1.428 . S
C232 N231 1.351 . S
C232 C233 1.434 . S
C233 C224 1.429 . S
C233 N230 1.350 . S
C233 C232 1.434 . S
C234 C235 1.369 1_455 S
C234 C236 1.419 1_556 S
C234 H238 0.930 . S
C235 C234 1.369 1_655 S
C235 C244 1.429 . S
C236 C234 1.419 1_554 S
C236 C237 1.363 . S
C236 H239 0.929 . S
C237 C236 1.363 . S
C237 C243 1.428 1_455 S
H238 C234 0.930 . S
H239 C236 0.929 . S
S240 N241 1.613 1_554 S
S240 N242 1.610 . S
N241 S240 1.613 1_556 S
N241 C244 1.350 . S
N242 S240 1.610 . S
N242 C243 1.351 . S
C243 C237 1.428 1_655 S
C243 N242 1.351 . S
C243 C244 1.434 1_554 S
C244 C235 1.429 . S
C244 N241 1.350 . S
C244 C243 1.434 1_556 S
C245 C246 1.369 1_545 S
C245 C247 1.419 . S
C245 H249 0.930 . S
C246 C245 1.369 1_565 S
C246 C255 1.429 . S
C247 C245 1.419 . S
C247 C248 1.363 . S
C247 H250 0.929 . S
C248 C247 1.363 . S
C248 C254 1.428 1_545 S
H249 C245 0.930 . S
H250 C247 0.929 . S
S251 N252 1.613 . S
S251 N253 1.610 . S
N252 S251 1.613 . S
N252 C255 1.350 . S
N253 S251 1.610 . S
N253 C254 1.351 . S
C254 C248 1.428 1_565 S
C254 N253 1.351 . S
C254 C255 1.434 . S
C255 C246 1.429 . S
C255 N252 1.350 . S
C255 C254 1.434 . S
C256 C257 1.369 . S
C256 C258 1.419 1_556 S
C256 H260 0.930 . S
C257 C256 1.369 . S
C257 C266 1.429 . S
C258 C256 1.419 1_554 S
C258 C259 1.363 . S
C258 H261 0.929 . S
C259 C258 1.363 . S
C259 C265 1.428 . S
H260 C256 0.930 . S
H261 C258 0.929 . S
S262 N263 1.613 1_554 S
S262 N264 1.610 . S
N263 S262 1.613 1_556 S
N263 C266 1.350 . S
N264 S262 1.610 . S
N264 C265 1.351 . S
C265 C259 1.428 . S
C265 N264 1.351 . S
C265 C266 1.434 1_554 S
C266 C257 1.429 . S
C266 N263 1.350 . S
C266 C265 1.434 1_556 S
C267 C268 1.369 1_455 S
C267 C269 1.419 . S
C267 H271 0.930 . S
C268 C267 1.369 1_655 S
C268 C277 1.429 . S
C269 C267 1.419 . S
C269 C270 1.363 . S
C269 H272 0.929 . S
C270 C269 1.363 . S
C270 C276 1.428 1_455 S
H271 C267 0.930 . S
H272 C269 0.929 . S
S273 N274 1.613 . S
S273 N275 1.610 . S
N274 S273 1.613 . S
N274 C277 1.350 . S
N275 S273 1.610 . S
N275 C276 1.351 . S
C276 C270 1.428 1_655 S
C276 N275 1.351 . S
C276 C277 1.434 . S
C277 C268 1.429 . S
C277 N274 1.350 . S
C277 C276 1.434 . S
C278 C279 1.369 . S
C278 C280 1.419 1_556 S
C278 H282 0.930 . S
C279 C278 1.369 . S
C279 C288 1.429 1_545 S
C280 C278 1.419 1_554 S
C280 C281 1.363 1_545 S
C280 H283 0.929 . S
C281 C280 1.363 1_565 S
C281 C287 1.428 . S
H282 C278 0.930 . S
H283 C280 0.929 . S
S284 N285 1.613 . S
S284 N286 1.610 1_556 S
N285 S284 1.613 . S
N285 C288 1.350 . S
N286 S284 1.610 1_554 S
N286 C287 1.351 . S
C287 C281 1.428 . S
C287 N286 1.351 . S
C287 C288 1.434 1_554 S
C288 C279 1.429 1_565 S
C288 N285 1.350 . S
C288 C287 1.434 1_556 S
C289 C290 1.369 . S
C289 C291 1.419 . S
C289 H293 0.930 . S
C290 C289 1.369 . S
C290 C299 1.429 . S
C291 C289 1.419 . S
C291 C292 1.363 . S
C291 H294 0.929 . S
C292 C291 1.363 . S
C292 C298 1.428 . S
H293 C289 0.930 . S
H294 C291 0.929 . S
S295 N296 1.613 . S
S295 N297 1.610 . S
N296 S295 1.613 . S
N296 C299 1.350 . S
N297 S295 1.610 . S
N297 C298 1.351 . S
C298 C292 1.428 . S
C298 N297 1.351 . S
C298 C299 1.434 . S
C299 C290 1.429 . S
C299 N296 1.350 . S
C299 C298 1.434 . S
C300 C301 1.369 . S
C300 C302 1.419 . S
C300 H304 0.930 . S
C301 C300 1.369 . S
C301 C310 1.429 . S
C302 C300 1.419 . S
C302 C303 1.363 . S
C302 H305 0.929 . S
C303 C302 1.363 . S
C303 C309 1.428 . S
H304 C300 0.930 . S
H305 C302 0.929 . S
S306 N307 1.613 . S
S306 N308 1.610 . S
N307 S306 1.613 . S
N307 C310 1.350 . S
N308 S306 1.610 . S
N308 C309 1.351 . S
C309 C303 1.428 . S
C309 N308 1.351 . S
C309 C310 1.434 . S
C310 C301 1.429 . S
C310 N307 1.350 . S
C310 C309 1.434 . S
C311 C312 1.369 . S
C311 C313 1.419 . S
C311 H315 0.930 . S
C312 C311 1.369 . S
C312 C321 1.429 . S
C313 C311 1.419 . S
C313 C314 1.363 . S
C313 H316 0.929 . S
C314 C313 1.363 . S
C314 C320 1.428 . S
H315 C311 0.930 . S
H316 C313 0.929 . S
S317 N318 1.613 . S
S317 N319 1.610 . S
N318 S317 1.613 . S
N318 C321 1.350 . S
N319 S317 1.610 . S
N319 C320 1.351 . S
C320 C314 1.428 . S
C320 N319 1.351 . S
C320 C321 1.434 . S
C321 C312 1.429 . S
C321 N318 1.350 . S
C321 C320 1.434 . S
C322 C323 1.369 . S
C322 C324 1.419 . S
C322 H326 0.930 . S
C323 C322 1.369 . S
C323 C332 1.429 . S
C324 C322 1.419 . S
C324 C325 1.363 . S
C324 H327 0.929 . S
C325 C324 1.363 . S
C325 C331 1.428 . S
H326 C322 0.930 . S
H327 C324 0.929 . S
S328 N329 1.613 . S
S328 N330 1.610 . S
N329 S328 1.613 . S
N329 C332 1.350 . S
N330 S328 1.610 . S
N330 C331 1.351 . S
C331 C325 1.428 . S
C331 N330 1.351 . S
C331 C332 1.434 . S
C332 C323 1.429 . S
C332 N329 1.350 . S
C332 C331 1.434 . S
C333 C334 1.369 . S
C333 C335 1.419 . S
C333 H337 0.930 . S
C334 C333 1.369 . S
C334 C343 1.429 . S
C335 C333 1.419 . S
C335 C336 1.363 . S
C335 H338 0.929 . S
C336 C335 1.363 . S
C336 C342 1.428 . S
H337 C333 0.930 . S
H338 C335 0.929 . S
S339 N340 1.613 . S
S339 N341 1.610 . S
N340 S339 1.613 . S
N340 C343 1.350 1_455 S
N341 S339 1.610 . S
N341 C342 1.351 1_455 S
C342 C336 1.428 . S
C342 N341 1.351 1_655 S
C342 C343 1.434 . S
C343 C334 1.429 . S
C343 N340 1.350 1_655 S
C343 C342 1.434 . S
C344 C345 1.369 . S
C344 C346 1.419 . S
C344 H348 0.930 . S
C345 C344 1.369 . S
C345 C354 1.429 . S
C346 C344 1.419 . S
C346 C347 1.363 . S
C346 H349 0.929 . S
C347 C346 1.363 . S
C347 C353 1.428 . S
H348 C344 0.930 . S
H349 C346 0.929 . S
S350 N351 1.613 . S
S350 N352 1.610 . S
N351 S350 1.613 . S
N351 C354 1.350 1_545 S
N352 S350 1.610 . S
N352 C353 1.351 1_545 S
C353 C347 1.428 . S
C353 N352 1.351 1_565 S
C353 C354 1.434 . S
C354 C345 1.429 . S
C354 N351 1.350 1_565 S
C354 C353 1.434 . S
C355 C356 1.369 . S
C355 C357 1.419 . S
C355 H359 0.930 . S
C356 C355 1.369 . S
C356 C365 1.429 . S
C357 C355 1.419 . S
C357 C358 1.363 . S
C357 H360 0.929 . S
C358 C357 1.363 . S
C358 C364 1.428 . S
H359 C355 0.930 . S
H360 C357 0.929 . S
S361 N362 1.613 . S
S361 N363 1.610 . S
N362 S361 1.613 . S
N362 C365 1.350 . S
N363 S361 1.610 . S
N363 C364 1.351 . S
C364 C358 1.428 . S
C364 N363 1.351 . S
C364 C365 1.434 . S
C365 C356 1.429 . S
C365 N362 1.350 . S
C365 C364 1.434 . S
C366 C367 1.369 . S
C366 C368 1.419 . S
C366 H370 0.930 . S
C367 C366 1.369 . S
C367 C376 1.429 . S
C368 C366 1.419 . S
C368 C369 1.363 . S
C368 H371 0.929 . S
C369 C368 1.363 . S
C369 C375 1.428 . S
H370 C366 0.930 . S
H371 C368 0.929 . S
S372 N373 1.613 . S
S372 N374 1.610 . S
N373 S372 1.613 . S
N373 C376 1.350 . S
N374 S372 1.610 . S
N374 C375 1.351 . S
C375 C369 1.428 . S
C375 N374 1.351 . S
C375 C376 1.434 . S
C376 C367 1.429 . S
C376 N373 1.350 . S
C376 C375 1.434 . S
C377 C378 1.369 . S
C377 C379 1.419 . S
C377 H381 0.930 . S
C378 C377 1.369 . S
C378 C387 1.429 . S
C379 C377 1.419 . S
C379 C380 1.363 . S
C379 H382 0.929 . S
C380 C379 1.363 . S
C380 C386 1.428 . S
H381 C377 0.930 . S
H382 C379 0.929 . S
S383 N384 1.613 . S
S383 N385 1.610 . S
N384 S383 1.613 . S
N384 C387 1.350 . S
N385 S383 1.610 . S
N385 C386 1.351 . S
C386 C380 1.428 . S
C386 N385 1.351 . S
C386 C387 1.434 . S
C387 C378 1.429 . S
C387 N384 1.350 . S
C387 C386 1.434 . S
C388 C389 1.369 . S
C388 C390 1.419 . S
C388 H392 0.930 . S
C389 C388 1.369 . S
C389 C398 1.429 . S
C390 C388 1.419 . S
C390 C391 1.363 . S
C390 H393 0.929 . S
C391 C390 1.363 . S
C391 C397 1.428 . S
H392 C388 0.930 . S
H393 C390 0.929 . S
S394 N395 1.613 . S
S394 N396 1.610 . S
N395 S394 1.613 . S
N395 C398 1.350 . S
N396 S394 1.610 . S
N396 C397 1.351 . S
C397 C391 1.428 . S
C397 N396 1.351 . S
C397 C398 1.434 . S
C398 C389 1.429 . S
C398 N395 1.350 . S
C398 C397 1.434 . S
C399 C400 1.369 . S
C399 C401 1.419 . S
C399 H403 0.930 . S
C400 C399 1.369 . S
C400 C409 1.429 . S
C401 C399 1.419 . S
C401 C402 1.363 . S
C401 H404 0.929 . S
C402 C401 1.363 . S
C402 C408 1.428 . S
H403 C399 0.930 . S
H404 C401 0.929 . S
S405 N406 1.613 . S
S405 N407 1.610 . S
N406 S405 1.613 . S
N406 C409 1.350 . S
N407 S405 1.610 . S
N407 C408 1.351 . S
C408 C402 1.428 . S
C408 N407 1.351 . S
C408 C409 1.434 . S
C409 C400 1.429 . S
C409 N406 1.350 . S
C409 C408 1.434 . S
C410 C411 1.369 . S
C410 C412 1.419 . S
C410 H414 0.930 . S
C411 C410 1.369 . S
C411 C420 1.429 . S
C412 C410 1.419 . S
C412 C413 1.363 . S
C412 H415 0.929 . S
C413 C412 1.363 . S
C413 C419 1.428 . S
H414 C410 0.930 . S
H415 C412 0.929 . S
S416 N417 1.613 . S
S416 N418 1.610 . S
N417 S416 1.613 . S
N417 C420 1.350 . S
N418 S416 1.610 . S
N418 C419 1.351 . S
C419 C413 1.428 . S
C419 N418 1.351 . S
C419 C420 1.434 . S
C420 C411 1.429 . S
C420 N417 1.350 . S
C420 C419 1.434 . S
C421 C422 1.369 . S
C421 C423 1.419 . S
C421 H425 0.930 . S
C422 C421 1.369 . S
C422 C431 1.429 . S
C423 C421 1.419 . S
C423 C424 1.363 . S
C423 H426 0.929 . S
C424 C423 1.363 . S
C424 C430 1.428 . S
H425 C421 0.930 . S
H426 C423 0.929 . S
S427 N428 1.613 . S
S427 N429 1.610 . S
N428 S427 1.613 . S
N428 C431 1.350 . S
N429 S427 1.610 . S
N429 C430 1.351 . S
C430 C424 1.428 . S
C430 N429 1.351 . S
C430 C431 1.434 . S
C431 C422 1.429 . S
C431 N428 1.350 . S
C431 C430 1.434 . S
C169 C9 1.424 . S
C171 C163 1.420 . S
C180 C93 1.424 . S
C182 C23 1.419 . S
C191 C37 1.419 . S
C193 C107 1.421 . S
C202 C121 1.419 . S
C204 C51 1.421 . S
C213 C135 1.424 . S
C215 C65 1.419 . S
C224 C149 1.422 . S
C226 C79 1.423 . S
C235 C42 1.370 . S
C237 C112 1.371 . S
C246 C56 1.374 . S
C248 C126 1.374 . S
C257 C70 1.375 . S
C259 C140 1.375 . S
C268 C154 1.371 . S
C270 C0 1.372 . S
C279 C14 1.374 . S
C281 C84 1.373 . S
C290 C28 1.370 . S
C292 C98 1.371 . S
C301 C117 1.624 . S
C303 C5 1.624 . S
C312 C131 1.624 . S
C314 C19 1.624 . S
C323 C33 1.624 . S
C325 C145 1.624 . S
C334 C47 1.624 . S
C336 C159 1.624 . S
C345 C61 1.624 . S
C347 C89 1.624 . S
C356 C103 1.624 . S
C358 C75 1.624 . S
C367 C11 1.586 . S
C369 C151 1.586 . S
C378 C165 1.584 . S
C380 C25 1.584 . S
C389 C39 1.586 . S
C391 C95 1.585 . S
C400 C53 1.582 . S
C402 C109 1.583 . S
C411 C67 1.583 . S
C413 C123 1.583 . S
C422 C81 1.582 . S
C424 C137 1.583 . S
