# Generated by pormake.
# Topology noo, (5)-cn, num edge types: 1
# Building blocks:
#     Node 0, Type 0, BuildingBlock: XOMCOT_clean_sbu_0, # of connection points: 5
#     Node 1, Type 0, BuildingBlock: XOMCOT_clean_sbu_0, # of connection points: 5
#     Node 2, Type 0, BuildingBlock: XOMCOT_clean_sbu_0, # of connection points: 5
#     Node 3, Type 0, BuildingBlock: XOMCOT_clean_sbu_0, # of connection points: 5
#     Node 4, Type 0, BuildingBlock: XOMCOT_clean_sbu_0, # of connection points: 5
#     Node 5, Type 0, BuildingBlock: XOMCOT_clean_sbu_0, # of connection points: 5
#     Node 6, Type 0, BuildingBlock: XOMCOT_clean_sbu_0, # of connection points: 5
#     Node 7, Type 0, BuildingBlock: XOMCOT_clean_sbu_0, # of connection points: 5
#     Edge 8, Type (0, 0), BuildingBlock: KIFKEQ_clean_linker_1, # of connection points: 2
#     Edge 9, Type (0, 0), BuildingBlock: KIFKEQ_clean_linker_1, # of connection points: 2
#     Edge 10, Type (0, 0), BuildingBlock: KIFKEQ_clean_linker_1, # of connection points: 2
#     Edge 11, Type (0, 0), BuildingBlock: KIFKEQ_clean_linker_1, # of connection points: 2
#     Edge 12, Type (0, 0), BuildingBlock: KIFKEQ_clean_linker_1, # of connection points: 2
#     Edge 13, Type (0, 0), BuildingBlock: KIFKEQ_clean_linker_1, # of connection points: 2
#     Edge 14, Type (0, 0), BuildingBlock: KIFKEQ_clean_linker_1, # of connection points: 2
#     Edge 15, Type (0, 0), BuildingBlock: KIFKEQ_clean_linker_1, # of connection points: 2
#     Edge 16, Type (0, 0), BuildingBlock: KIFKEQ_clean_linker_1, # of connection points: 2
#     Edge 17, Type (0, 0), BuildingBlock: KIFKEQ_clean_linker_1, # of connection points: 2
#     Edge 18, Type (0, 0), BuildingBlock: KIFKEQ_clean_linker_1, # of connection points: 2
#     Edge 19, Type (0, 0), BuildingBlock: KIFKEQ_clean_linker_1, # of connection points: 2
#     Edge 20, Type (0, 0), BuildingBlock: KIFKEQ_clean_linker_1, # of connection points: 2
#     Edge 21, Type (0, 0), BuildingBlock: KIFKEQ_clean_linker_1, # of connection points: 2
#     Edge 22, Type (0, 0), BuildingBlock: KIFKEQ_clean_linker_1, # of connection points: 2
#     Edge 23, Type (0, 0), BuildingBlock: KIFKEQ_clean_linker_1, # of connection points: 2
#     Edge 24, Type (0, 0), BuildingBlock: KIFKEQ_clean_linker_1, # of connection points: 2
#     Edge 25, Type (0, 0), BuildingBlock: KIFKEQ_clean_linker_1, # of connection points: 2
#     Edge 26, Type (0, 0), BuildingBlock: KIFKEQ_clean_linker_1, # of connection points: 2
#     Edge 27, Type (0, 0), BuildingBlock: KIFKEQ_clean_linker_1, # of connection points: 2
# Relax obj value: 0.061
# Max RMSD: 0.110
# Mean RMSD: 0.110
data_MOF--net-noo--node1-XOMCOT_clean_sbu_0--edge1-KIFKEQ_clean_linker_1
_symmetry_space_group_name_H-M    P1
_symmetry_Int_Tables_number       1
_symmetry_cell_setting            triclinic
loop_
_symmetry_equiv_pos_as_xyz
'x, y, z'
_cell_length_a     39.524094
_cell_length_b     39.557807
_cell_length_c     30.304025
_cell_angle_alpha  90.355478
_cell_angle_beta   89.923692
_cell_angle_gamma 90.215542
loop_
_atom_site_label
_atom_site_type_symbol
_atom_site_fract_x
_atom_site_fract_y
_atom_site_fract_z
_atom_type_partial_charge
Co0 Co 0.44344 0.23078 0.05726 0.0
C1 C 0.47238 0.16187 0.07176 0.0
C2 C 0.50398 0.20137 0.09765 0.0
C3 C 0.51949 0.17082 0.10519 0.0
N4 N 0.47473 0.19587 0.07593 0.0
N5 N 0.49957 0.14602 0.08884 0.0
H6 H 0.45141 0.14873 0.05673 0.0
H7 H 0.51316 0.22589 0.10809 0.0
C8 C 0.48992 0.28854 0.02514 0.0
O9 O 0.46538 0.30454 1.00509 0.0
N10 N 0.41152 0.26541 0.03921 0.0
C11 C 0.38606 0.26063 0.01021 0.0
C12 C 0.36686 0.28935 1.00833 0.0
C13 C 0.40674 0.29702 0.0556 0.0
N14 N 0.37982 0.31232 0.03668 0.0
C15 C 0.42104 0.18287 0.99262 0.0
C16 C 0.4497 0.21224 0.91916 0.0
C17 C 0.42789 0.18444 0.91329 0.0
C18 C 0.41455 0.16913 0.95109 0.0
C19 C 0.45635 0.22472 0.96173 0.0
N20 N 0.44142 0.21058 0.99798 0.0
H21 H 0.40828 0.17168 0.02035 0.0
H22 H 0.47246 0.24646 0.96462 0.0
H23 H 0.38106 0.23764 0.992 0.0
H24 H 0.42251 0.30848 0.0808 0.0
O25 O 0.40622 0.2066 0.0841 0.0
O26 O 0.43829 0.2443 0.11861 0.0
O27 O 0.48459 0.2598 0.04317 0.0
C28 C 0.41348 0.2226 0.1204 0.0
H29 H 0.54322 0.16712 0.12224 0.0
H30 H 0.3451 0.29316 0.98729 0.0
H31 H 0.46059 0.22519 0.89114 0.0
H32 H 0.39837 0.14705 0.94885 0.0
Co33 Co 0.81017 0.44495 0.04514 0.0
C34 C 0.87803 0.47689 0.05582 0.0
C35 C 0.83838 0.51003 0.07701 0.0
C36 C 0.86904 0.52568 0.08487 0.0
N37 N 0.84395 0.47947 0.05845 0.0
N38 N 0.8939 0.50481 0.07136 0.0
H39 H 0.89126 0.45457 0.04492 0.0
H40 H 0.81386 0.52009 0.08555 0.0
C41 C 0.75401 0.49287 0.05732 0.0
O42 O 0.74981 0.47824 0.09569 0.0
N43 N 0.77707 0.40989 0.03158 0.0
C44 C 0.78518 0.38011 0.01265 0.0
C45 C 0.75643 0.36097 1.00766 0.0
C46 C 0.74316 0.40833 0.03807 0.0
N47 N 0.72989 0.37853 0.02378 0.0
C48 C 0.85498 0.42444 0.97635 0.0
C49 C 0.81663 0.44563 0.90571 0.0
C50 C 0.84593 0.42657 0.89767 0.0
C51 C 0.86551 0.41675 0.93371 0.0
C52 C 0.80689 0.45295 0.94934 0.0
N53 N 0.82595 0.44214 0.98414 0.0
H54 H 0.86956 0.41432 1.0031 0.0
H55 H 0.78324 0.46585 0.95479 0.0
H56 H 0.81044 0.37267 1.00313 0.0
H57 H 0.72848 0.42806 0.05343 0.0
O58 O 0.83912 0.41083 0.07078 0.0
O59 O 0.80143 0.44063 0.10788 0.0
O60 O 0.77679 0.482 0.03075 0.0
C61 C 0.82499 0.41788 0.1083 0.0
H62 H 0.87275 0.55041 0.09959 0.0
H63 H 0.75529 0.33607 0.99278 0.0
H64 H 0.80057 0.45342 0.87872 0.0
H65 H 0.88846 0.40224 0.92913 0.0
Co66 Co 0.59817 0.81017 0.06034 0.0
C67 C 0.57113 0.879 0.07536 0.0
C68 C 0.53912 0.84088 0.10356 0.0
C69 C 0.52468 0.87202 0.11104 0.0
N70 N 0.56807 0.84529 0.08094 0.0
N71 N 0.54479 0.8961 0.09327 0.0
H72 H 0.59238 0.89067 0.05885 0.0
H73 H 0.52909 0.81669 0.11376 0.0
C74 C 0.55147 0.75627 0.02156 0.0
O75 O 0.57381 0.74844 0.99107 0.0
N76 N 0.62883 0.7748 0.03989 0.0
C77 C 0.65419 0.77812 0.01031 0.0
C78 C 0.66933 0.74738 1.00383 0.0
C79 C 0.62986 0.74191 0.0522 0.0
N80 N 0.654 0.72455 0.02987 0.0
C81 C 0.6242 0.85235 0.9918 0.0
C82 C 0.57392 0.84187 0.93019 0.0
C83 C 0.60224 0.86142 0.9184 0.0
C84 C 0.62715 0.86711 0.9504 0.0
C85 C 0.57196 0.82747 0.97235 0.0
N86 N 0.59794 0.83114 1.00181 0.0
H87 H 0.64417 0.85705 0.01523 0.0
H88 H 0.5493 0.81387 0.98092 0.0
H89 H 0.66198 0.80108 0.99444 0.0
H90 H 0.6127 0.73075 0.07591 0.0
O91 O 0.63619 0.83417 0.08613 0.0
O92 O 0.60499 0.79616 0.12083 0.0
O93 O 0.55714 0.78072 0.04834 0.0
C94 C 0.62982 0.81781 0.12224 0.0
H95 H 0.50084 0.87633 0.12766 0.0
H96 H 0.69046 0.74229 0.98204 0.0
H97 H 0.55335 0.83784 0.90716 0.0
H98 H 0.64955 0.88194 0.94323 0.0
Co99 Co 0.23188 0.59847 0.05348 0.0
C100 C 0.16188 0.57116 0.06586 0.0
C101 C 0.19886 0.54356 0.10253 0.0
C102 C 0.16739 0.52971 0.11072 0.0
N103 N 0.19544 0.56947 0.07422 0.0
N104 N 0.14425 0.54703 0.08739 0.0
H105 H 0.15013 0.59004 0.04561 0.0
H106 H 0.2226 0.53547 0.1166 0.0
C107 C 0.28784 0.54897 0.02527 0.0
O108 O 0.30366 0.57155 1.00123 0.0
N109 N 0.26815 0.62818 0.03312 0.0
C110 C 0.26538 0.65079 1.00016 0.0
C111 C 0.29586 0.66669 0.99419 0.0
C112 C 0.3003 0.63192 0.04816 0.0
N113 N 0.31798 0.65468 0.02391 0.0
C114 C 0.18636 0.6203 0.98616 0.0
C115 C 0.21323 0.58381 0.91668 0.0
C116 C 0.18747 0.60712 0.90847 0.0
C117 C 0.1734 0.6248 0.94389 0.0
C118 C 0.22484 0.57925 0.95989 0.0
N119 N 0.21215 0.59813 0.99405 0.0
H120 H 0.17619 0.63579 0.01231 0.0
H121 H 0.2446 0.56122 0.96488 0.0
H122 H 0.24287 0.65573 0.98129 0.0
H123 H 0.31094 0.61718 0.07469 0.0
O124 O 0.20893 0.63759 0.07761 0.0
O125 O 0.2453 0.60597 0.11417 0.0
O126 O 0.2594 0.55586 0.0434 0.0
C127 C 0.22432 0.63121 0.11447 0.0
H128 H 0.16201 0.50836 0.1318 0.0
H129 H 0.30137 0.68575 0.9697 0.0
H130 H 0.22461 0.56964 0.88983 0.0
H131 H 0.15367 0.64329 0.93865 0.0
Co132 Co 0.94419 0.30314 0.45223 0.0
C133 C 0.9745 0.37196 0.4565 0.0
C134 C 1.01126 0.33425 0.43951 0.0
C135 C 0.02666 0.36546 0.43846 0.0
N136 N 0.9786 0.33827 0.45099 0.0
N137 N 1.00353 0.38928 0.44883 0.0
H138 H 0.95045 0.38356 0.46428 0.0
H139 H 0.02299 0.31043 0.43114 0.0
C140 C 0.99035 0.25155 0.49732 0.0
O141 O 0.97258 0.25155 0.53398 0.0
N142 N 0.90911 0.26754 0.45193 0.0
C143 C 0.87737 0.27117 0.43587 0.0
C144 C 0.85913 0.24226 0.44302 0.0
C145 C 0.90954 0.23548 0.46785 0.0
N146 N 0.87918 0.21984 0.46328 0.0
C147 C 0.90239 0.31745 0.52645 0.0
C148 C 0.95315 0.33439 0.58522 0.0
C149 C 0.91928 0.33904 0.59797 0.0
C150 C 0.89384 0.32979 0.5681 0.0
C151 C 0.96066 0.32175 0.543 0.0
N152 N 0.93535 0.3132 0.51423 0.0
H153 H 0.88224 0.31282 0.50332 0.0
H154 H 0.98684 0.31963 0.53306 0.0
H155 H 0.86718 0.29363 0.42097 0.0
H156 H 0.93101 0.22369 0.48305 0.0
O157 O 0.9126 0.33471 0.42735 0.0
O158 O 0.94627 0.30084 0.38859 0.0
O159 O 0.98096 0.26901 0.46425 0.0
C160 C 0.92321 0.3243 0.38893 0.0
H161 H 0.05287 0.37015 0.4301 0.0
H162 H 0.83294 0.23805 0.43403 0.0
H163 H 0.97369 0.3416 0.60698 0.0
H164 H 0.86734 0.33264 0.57644 0.0
Co165 Co 0.72875 0.93939 0.4711 0.0
C166 C 0.65979 0.96653 0.45462 0.0
C167 C 0.69878 0.99856 0.4285 0.0
C168 C 0.66788 1.01302 0.41985 0.0
N169 N 0.69372 0.9696 0.45067 0.0
N170 N 0.64329 0.9929 0.43632 0.0
H171 H 0.64741 0.94519 0.46979 0.0
H172 H 0.72326 1.00848 0.41915 0.0
C173 C 0.78459 0.98632 0.50655 0.0
O174 O 0.79909 0.96222 0.5292 0.0
N175 N 0.7638 0.90855 0.49116 0.0
C176 C 0.7602 0.88474 0.52254 0.0
C177 C 0.78941 0.86635 0.52529 0.0
C178 C 0.79535 0.90374 0.47465 0.0
N179 N 0.81158 0.87821 0.49532 0.0
C180 C 0.68218 0.91407 0.53529 0.0
C181 C 0.70098 0.95463 0.60558 0.0
C182 C 0.67743 0.92858 0.61258 0.0
C183 C 0.66748 0.90881 0.57646 0.0
C184 C 0.71533 0.95899 0.56359 0.0
N185 N 0.70682 0.938 0.52925 0.0
H186 H 0.67437 0.89772 0.50863 0.0
H187 H 0.73345 0.97903 0.55959 0.0
H188 H 0.7379 0.88027 0.5421 0.0
H189 H 0.80609 0.91844 0.44803 0.0
O190 O 0.7059 0.90155 0.44324 0.0
O191 O 0.74393 0.93398 0.4105 0.0
O192 O 0.75691 0.98084 0.4858 0.0
C193 C 0.72269 0.90886 0.40771 0.0
H194 H 0.66402 0.03681 0.40322 0.0
H195 H 0.79408 0.84588 0.548 0.0
H196 H 0.70907 0.97077 0.63259 0.0
H197 H 0.64876 0.88894 0.58009 0.0
Co198 Co 0.09584 0.72896 0.46096 0.0
C199 C 0.06833 0.65864 0.45367 0.0
C200 C 0.03567 0.6953 0.42435 0.0
C201 C 0.02085 0.66387 0.42008 0.0
N202 N 0.06524 0.69213 0.44594 0.0
N203 N 0.04139 0.64081 0.43863 0.0
H204 H 0.08966 0.64736 0.46994 0.0
H205 H 0.02573 0.71884 0.41203 0.0
C206 C 0.04865 0.7856 0.49405 0.0
O207 O 0.0727 0.80156 0.51566 0.0
N208 N 0.12705 0.76548 0.47532 0.0
C209 C 0.15563 0.76209 0.49919 0.0
C210 C 0.17323 0.79208 0.49882 0.0
C211 C 0.12817 0.79747 0.45967 0.0
N212 N 0.15587 0.81424 0.4743 0.0
C213 C 0.12311 0.6854 0.52653 0.0
C214 C 0.09154 0.71251 0.5997 0.0
C215 C 0.1154 0.68668 0.60573 0.0
C216 C 0.13034 0.67254 0.56803 0.0
C217 C 0.08419 0.72408 0.55707 0.0
N218 N 0.10054 0.71111 0.52097 0.0
H219 H 0.13638 0.67462 0.49882 0.0
H220 H 0.06581 0.74375 0.55398 0.0
H221 H 0.16377 0.73919 0.51509 0.0
H222 H 0.10923 0.80823 0.4382 0.0
O223 O 0.13299 0.70536 0.43315 0.0
O224 O 0.09865 0.7405 0.39885 0.0
O225 O 0.05434 0.75704 0.47541 0.0
C226 C 0.12434 0.72008 0.39676 0.0
H227 H 0.99709 0.65841 0.40379 0.0
H228 H 0.19688 0.7974 0.51554 0.0
H229 H 0.07918 0.72442 0.62761 0.0
H230 H 0.14795 0.65173 0.57022 0.0
Co231 Co 0.30879 0.09624 0.46375 0.0
C232 C 0.37736 0.06712 0.44748 0.0
C233 C 0.33764 0.03328 0.42768 0.0
C234 C 0.36821 1.01758 0.42057 0.0
N235 N 0.34329 0.06417 0.44529 0.0
N236 N 0.39318 0.03885 0.43316 0.0
H237 H 0.39049 0.08923 0.45958 0.0
H238 H 0.31299 0.02274 0.42038 0.0
C239 C 0.24885 0.05055 0.49204 0.0
O240 O 0.23216 0.07476 0.51213 0.0
N241 N 0.27473 0.12899 0.48185 0.0
C242 C 0.27992 0.154 0.5115 0.0
C243 C 0.25059 0.17191 0.51686 0.0
C244 C 0.2425 0.1333 0.46776 0.0
N245 N 0.22675 0.1586 0.49006 0.0
C246 C 0.35627 0.11574 0.5306 0.0
C247 C 0.32343 0.08738 0.60182 0.0
C248 C 0.35236 0.10716 0.60922 0.0
C249 C 0.36924 0.12078 0.5729 0.0
C250 C 0.31168 0.08226 0.55872 0.0
N251 N 0.32767 0.09687 0.52356 0.0
H252 H 0.36854 0.12866 0.50378 0.0
H253 H 0.28911 0.06755 0.55454 0.0
H254 H 0.30342 0.1591 0.52842 0.0
H255 H 0.23034 0.11706 0.44361 0.0
O256 O 0.3346 0.13305 0.4386 0.0
O257 O 0.29665 0.10239 0.40238 0.0
O258 O 0.27835 0.05575 0.47592 0.0
C259 C 0.31901 0.12663 0.40177 0.0
H260 H 0.37175 0.99252 0.40682 0.0
H261 H 0.24712 0.19311 0.53913 0.0
H262 H 0.30968 0.07643 0.62921 0.0
H263 H 0.39134 0.13674 0.57733 0.0
H264 H 0.57398 0.94307 0.03953 0.0
H265 H 0.50192 0.93201 0.14605 0.0
H266 H 0.56328 1.00364 0.03853 0.0
H267 H 0.49084 0.99236 0.14411 0.0
H268 H 0.45342 0.09521 0.093 0.0
H269 H 0.46467 0.03451 0.09349 0.0
H270 H 0.57198 0.05467 0.08669 0.0
H271 H 0.56067 0.11535 0.0856 0.0
C272 C 0.55607 0.95337 0.06297 0.0
C273 C 0.53885 0.93223 0.09285 0.0
C274 C 0.54988 0.9882 0.06227 0.0
C275 C 0.52611 1.0028 0.09112 0.0
C276 C 0.50894 0.98181 0.12099 0.0
C277 C 0.51532 0.94707 0.122 0.0
C278 C 0.47938 0.08668 0.09131 0.0
C279 C 0.50615 0.11013 0.08931 0.0
C280 C 0.48585 0.05192 0.09198 0.0
C281 C 0.51923 0.03977 0.09018 0.0
C282 C 0.54598 0.06321 0.0878 0.0
C283 C 0.53952 0.09797 0.08762 0.0
H284 H 0.94169 0.48328 0.01384 0.0
H285 H 0.92774 0.53947 0.13492 0.0
H286 H 1.00277 0.49343 0.01793 0.0
H287 H 0.98882 0.54955 0.13914 0.0
H288 H 0.10369 0.5246 0.15323 0.0
H289 H 0.04262 0.51411 0.14963 0.0
H290 H 0.04226 0.54494 0.01326 0.0
H291 H 0.10324 0.5555 0.01695 0.0
C292 C 0.95172 0.49764 0.04143 0.0
C293 C 0.92992 0.51061 0.07403 0.0
C294 C 0.98662 0.50366 0.04361 0.0
C295 C 1.00057 0.5223 0.07885 0.0
C296 C 0.97882 0.53494 0.11173 0.0
C297 C 0.94386 0.52941 0.10914 0.0
C298 C 0.09055 0.52902 0.1225 0.0
C299 C 0.10825 0.54092 0.08541 0.0
C300 C 0.05559 0.52325 0.12051 0.0
C301 C 0.03767 0.52869 0.08115 0.0
C302 C 0.05542 0.54033 0.04396 0.0
C303 C 0.09025 0.54664 0.04617 0.0
H304 H 0.05149 0.42435 0.40377 0.0
H305 H 0.96688 0.43708 0.49266 0.0
H306 H 0.06035 0.48503 0.40308 0.0
H307 H 0.97575 0.49825 0.49174 0.0
H308 H 0.98098 0.60779 0.43896 0.0
H309 H 0.97145 0.54691 0.44238 0.0
H310 H 0.07928 0.53089 0.45047 0.0
H311 H 0.08886 0.59157 0.4455 0.0
C312 C 0.03496 0.43997 0.42365 0.0
C313 C 1.00855 0.42555 0.44853 0.0
C314 C 0.04007 0.47494 0.4232 0.0
C315 C 1.01891 0.49661 0.44753 0.0
C316 C 0.99233 0.48233 0.47224 0.0
C317 C 0.98723 0.44722 0.47277 0.0
C318 C 1.00269 0.5913 0.4411 0.0
C319 C 0.03572 0.60474 0.4417 0.0
C320 C 0.99718 0.55637 0.44362 0.0
C321 C 0.02458 0.53392 0.44662 0.0
C322 C 0.05758 0.54738 0.44766 0.0
C323 C 0.06308 0.58229 0.44528 0.0
H324 H 0.60883 0.03364 0.38009 0.0
H325 H 0.59507 0.96586 0.49005 0.0
H326 H 0.54838 0.04489 0.3795 0.0
H327 H 0.53447 0.97683 0.48887 0.0
H328 H 0.42377 0.97804 0.44176 0.0
H329 H 0.48436 0.96656 0.44185 0.0
H330 H 0.50497 0.07303 0.42557 0.0
H331 H 0.44427 0.08442 0.42452 0.0
C332 C 0.59309 0.02124 0.40435 0.0
C333 C 0.60716 0.99884 0.4352 0.0
C334 C 0.55832 0.02773 0.40396 0.0
C335 C 0.53657 1.01184 0.43418 0.0
C336 C 0.55047 0.98919 0.46476 0.0
C337 C 0.5853 0.98284 0.46536 0.0
C338 C 0.44119 0.99897 0.43778 0.0
C339 C 0.4291 0.03216 0.43301 0.0
C340 C 0.47595 0.99243 0.43833 0.0
C341 C 0.49954 1.01886 0.43378 0.0
C342 C 0.48748 0.05204 0.42878 0.0
C343 C 0.45269 0.05863 0.4286 0.0
H344 H 0.34781 0.52448 0.99232 0.0
H345 H 0.26095 0.49542 0.07029 0.0
H346 H 0.37114 0.46777 1.00061 0.0
H347 H 0.28457 0.4392 0.07928 0.0
H348 H 0.3148 0.33238 0.0339 0.0
H349 H 0.29375 0.39002 0.03383 0.0
H350 H 0.39543 0.42756 0.05359 0.0
H351 H 0.41663 0.36926 0.05251 0.0
C352 C 0.33372 0.50609 0.01134 0.0
C353 C 0.3023 0.51453 0.03026 0.0
C354 C 0.34728 0.47365 0.01647 0.0
C355 C 0.32975 0.44882 0.04058 0.0
C356 C 0.29859 0.45748 0.06001 0.0
C357 C 0.28505 0.48984 0.05491 0.0
C358 C 0.33266 0.35291 0.03849 0.0
C359 C 0.3674 0.34628 0.0429 0.0
C360 C 0.32056 0.38601 0.03882 0.0
C361 C 0.34287 0.41356 0.04351 0.0
C362 C 0.37759 0.40695 0.04939 0.0
C363 C 0.38972 0.37361 0.04933 0.0
H364 H 0.513 0.34675 0.98549 0.0
H365 H 0.54605 0.26345 0.06596 0.0
H366 H 0.57051 0.36976 0.98612 0.0
H367 H 0.60266 0.28693 0.0681 0.0
H368 H 0.70762 0.31357 0.02262 0.0
H369 H 0.64985 0.29353 0.02176 0.0
H370 H 0.61406 0.39641 0.03069 0.0
H371 H 0.67259 0.4168 0.02909 0.0
C372 C 0.5324 0.3334 1.00352 0.0
C373 C 0.52476 0.30304 0.02545 0.0
C374 C 0.56536 0.34678 1.00419 0.0
C375 C 0.59147 0.33018 0.02695 0.0
C376 C 0.58355 0.30014 0.04943 0.0
C377 C 0.55081 0.28671 0.04847 0.0
C378 C 0.68764 0.33214 0.02386 0.0
C379 C 0.69508 0.36694 0.02555 0.0
C380 C 0.65425 0.32052 0.02404 0.0
C381 C 0.62704 0.34325 0.02642 0.0
C382 C 0.63432 0.37813 0.02841 0.0
C383 C 0.66794 0.38984 0.02804 0.0
H384 H 0.65521 0.68479 0.1024 0.0
H385 H 0.67227 0.68442 0.96191 0.0
H386 H 0.67671 0.62694 0.10656 0.0
H387 H 0.69268 0.62651 0.96537 0.0
H388 H 0.76841 0.54209 0.99664 0.0
H389 H 0.74092 0.59684 0.98905 0.0
H390 H 0.66836 0.569 0.08946 0.0
H391 H 0.69659 0.51488 0.09797 0.0
C392 C 0.6629 0.67202 0.07234 0.0
C393 C 0.66244 0.68917 0.03197 0.0
C394 C 0.67521 0.63885 0.07456 0.0
C395 C 0.68691 0.62199 0.0363 0.0
C396 C 0.68482 0.63882 0.99569 0.0
C397 C 0.67293 0.67198 0.99362 0.0
C398 C 0.74631 0.54751 0.01661 0.0
C399 C 0.73483 0.52419 0.04803 0.0
C400 C 0.73043 0.57893 0.01226 0.0
C401 C 0.70244 0.58764 0.03891 0.0
C402 C 0.69022 0.56363 0.06905 0.0
C403 C 0.70628 0.5324 0.07366 0.0
H404 H 0.35889 0.66697 0.95481 0.0
H405 H 0.35736 0.66238 0.0969 0.0
H406 H 0.41659 0.68831 0.95649 0.0
H407 H 0.41602 0.68337 0.09887 0.0
H408 H 0.49951 0.76627 0.08014 0.0
H409 H 0.44512 0.73723 0.08319 0.0
H410 H 0.47479 0.67444 0.97278 0.0
H411 H 0.5291 0.70388 0.96922 0.0
C412 C 0.3711 0.6703 0.9865 0.0
C413 C 0.35345 0.6634 0.02577 0.0
C414 C 0.40438 0.68221 0.98746 0.0
C415 C 0.42104 0.68773 0.0278 0.0
C416 C 0.4038 0.67975 0.06722 0.0
C417 C 0.37038 0.66746 0.06618 0.0
C418 C 0.49456 0.74622 0.05652 0.0
C419 C 0.51867 0.73773 0.02408 0.0
C420 C 0.4634 0.72931 0.0586 0.0
C421 C 0.45545 0.70349 0.02822 0.0
C422 C 0.47986 0.69449 0.99638 0.0
C423 C 0.51107 0.71136 0.99436 0.0
H424 H 0.75686 0.04362 0.47272 0.0
H425 H 0.84709 1.00709 0.5368 0.0
H426 H 0.78209 0.09931 0.46676 0.0
H427 H 0.87229 0.06367 0.53167 0.0
H428 H 0.91589 0.16178 0.46173 0.0
H429 H 0.89449 0.1045 0.47654 0.0
H430 H 0.79755 0.14644 0.51297 0.0
H431 H 0.81873 0.20291 0.49755 0.0
C432 C 0.78205 0.04747 0.48584 0.0
C433 C 0.79987 0.02073 0.50527 0.0
C434 C 0.79649 0.07962 0.48273 0.0
C435 C 0.82918 0.08616 0.49905 0.0
C436 C 0.84713 0.05948 0.51856 0.0
C437 C 0.83257 0.02713 0.52179 0.0
C438 C 0.89023 0.15859 0.47357 0.0
C439 C 0.86877 0.18669 0.4777 0.0
C440 C 0.87793 0.12586 0.48207 0.0
C441 C 0.84404 0.12078 0.49509 0.0
C442 C 0.82344 0.14924 0.50178 0.0
C443 C 0.83559 0.18166 0.49306 0.0
H444 H 0.99219 0.75758 0.45648 0.0
H445 H 0.02659 0.847 0.52591 0.0
H446 H 0.93588 0.7814 0.45111 0.0
H447 H 0.96956 0.87058 0.52154 0.0
H448 H 0.8679 0.91432 0.47394 0.0
H449 H 0.92623 0.89306 0.47066 0.0
H450 H 0.88968 0.79265 0.5003 0.0
H451 H 0.83206 0.81365 0.50232 0.0
C452 C 0.9878 0.78231 0.47075 0.0
C453 C 1.01405 0.80021 0.49186 0.0
C454 C 0.95533 0.79596 0.46781 0.0
C455 C 0.94804 0.82789 0.48605 0.0
C456 C 0.97435 0.84608 0.50671 0.0
C457 C 1.00697 0.83238 0.50962 0.0
C458 C 0.87246 0.88764 0.4789 0.0
C459 C 0.84545 0.86568 0.48858 0.0
C460 C 0.90583 0.87551 0.47758 0.0
C461 C 0.91272 0.84112 0.4854 0.0
C462 C 0.88543 0.81917 0.49368 0.0
C463 C 0.85235 0.83127 0.49523 0.0
H464 H 0.18179 0.0336 0.4904 0.0
H465 H 0.28171 0.99021 0.48537 0.0
H466 H 0.15687 0.97764 0.4801 0.0
H467 H 0.25716 0.9341 0.47787 0.0
H468 H 0.20986 0.8383 0.43104 0.0
H469 H 0.23068 0.89649 0.43167 0.0
H470 H 0.14459 0.92604 0.51136 0.0
H471 H 0.1231 0.86804 0.50746 0.0
C472 C 0.19841 1.01196 0.48775 0.0
C473 C 0.2337 1.01631 0.48859 0.0
C474 C 0.18414 0.97975 0.48197 0.0
C475 C 0.20481 0.95094 0.47777 0.0
C476 C 0.2402 0.95548 0.47959 0.0
C477 C 0.25441 0.98773 0.4844 0.0
C478 C 0.19513 0.85767 0.44751 0.0
C479 C 0.16481 0.84912 0.46868 0.0
C480 C 0.20724 0.89092 0.44867 0.0
C481 C 0.18981 0.91628 0.47234 0.0
C482 C 0.15869 0.90764 0.49231 0.0
C483 C 0.14624 0.87444 0.49018 0.0
H484 H 0.03353 0.24689 0.42677 0.0
H485 H 0.0203 0.21246 0.56075 0.0
H486 H 0.08898 0.22053 0.42396 0.0
H487 H 0.07544 0.18508 0.5574 0.0
H488 H 0.19103 0.1855 0.55782 0.0
H489 H 0.13276 0.20383 0.55773 0.0
H490 H 0.12197 0.16904 0.42304 0.0
H491 H 0.18151 0.15172 0.42264 0.0
C492 C 0.04222 0.23333 0.45552 0.0
C493 C 0.02254 0.23228 0.49428 0.0
C494 C 0.07401 0.2179 0.45371 0.0
C495 C 0.08697 0.20088 0.49055 0.0
C496 C 0.0666 0.19854 0.52864 0.0
C497 C 0.03484 0.21409 0.53052 0.0
C498 C 0.17651 0.18197 0.52791 0.0
C499 C 0.19131 0.16764 0.48992 0.0
C500 C 0.14271 0.19201 0.52814 0.0
C501 C 0.12244 0.18791 0.49045 0.0
C502 C 0.13692 0.17289 0.45257 0.0
C503 C 0.17096 0.16273 0.45238 0.0
H504 H 0.43667 0.23173 0.20442 0.0
H505 H 0.35134 0.19377 0.13033 0.0
H506 H 0.41131 0.21091 0.27233 0.0
H507 H 0.32477 0.17468 0.19833 0.0
H508 H 0.30813 0.10586 0.317 0.0
H509 H 0.32881 0.13203 0.24969 0.0
H510 H 0.37027 0.21484 0.32661 0.0
H511 H 0.35121 0.18737 0.39398 0.0
C512 C 0.41205 0.21966 0.20287 0.0
C513 C 0.39606 0.21422 0.16212 0.0
C514 C 0.39733 0.20779 0.24189 0.0
C515 C 0.36592 0.19073 0.24117 0.0
C516 C 0.34931 0.18682 0.20036 0.0
C517 C 0.36437 0.19808 0.16131 0.0
C518 C 0.32139 0.12982 0.31939 0.0
C519 C 0.32818 0.14449 0.36071 0.0
C520 C 0.33315 0.14504 0.2807 0.0
C521 C 0.35146 0.17569 0.28232 0.0
C522 C 0.35702 0.19093 0.32383 0.0
C523 C 0.34582 0.17535 0.36254 0.0
H524 H 0.86086 0.35977 0.11757 0.0
H525 H 0.81663 0.44188 0.19194 0.0
H526 H 0.88339 0.33602 0.18538 0.0
H527 H 0.84068 0.41945 0.25952 0.0
H528 H 0.86309 0.3565 0.37956 0.0
H529 H 0.83759 0.37711 0.31198 0.0
H530 H 0.9254 0.34395 0.23832 0.0
H531 H 0.94985 0.32158 0.30588 0.0
C532 C 0.85605 0.37275 0.14852 0.0
C533 C 0.83692 0.40255 0.14961 0.0
C534 C 0.86924 0.35936 0.1874 0.0
C535 C 0.86414 0.37585 0.22816 0.0
C536 C 0.84469 0.40561 0.22904 0.0
C537 C 0.83097 0.41862 0.19025 0.0
C538 C 0.87689 0.35361 0.34886 0.0
C539 C 0.90843 0.33745 0.34788 0.0
C540 C 0.86237 0.36563 0.31006 0.0
C541 C 0.87937 0.36236 0.26943 0.0
C542 C 0.91116 0.34636 0.2687 0.0
C543 C 0.92537 0.33375 0.30746 0.0
H544 H 0.73342 0.93234 0.32443 0.0
H545 H 0.69475 0.84644 0.39584 0.0
H546 H 0.71396 0.90727 0.25543 0.0
H547 H 0.67706 0.82012 0.32673 0.0
H548 H 0.60901 0.80516 0.20625 0.0
H549 H 0.63498 0.82452 0.27453 0.0
H550 H 0.71835 0.86692 0.20022 0.0
H551 H 0.69102 0.84917 0.1318 0.0
C552 C 0.72153 0.90763 0.32518 0.0
C553 C 0.71542 0.89143 0.36548 0.0
C554 C 0.71045 0.89307 0.28551 0.0
C555 C 0.69354 0.86161 0.28513 0.0
C556 C 0.6891 0.84471 0.32553 0.0
C557 C 0.69955 0.85963 0.36523 0.0
C558 C 0.63308 0.81828 0.20461 0.0
C559 C 0.6479 0.82578 0.16371 0.0
C560 C 0.64819 0.82929 0.24388 0.0
C561 C 0.67889 0.84755 0.24331 0.0
C562 C 0.69439 0.85369 0.20221 0.0
C563 C 0.67889 0.84324 0.1629 0.0
H564 H 0.10099 0.72786 0.31267 0.0
H565 H 0.18788 0.69514 0.38688 0.0
H566 H 0.12829 0.70962 0.24443 0.0
H567 H 0.21616 0.67866 0.31875 0.0
H568 H 0.19093 0.6912 0.12326 0.0
H569 H 0.17026 0.7173 0.19121 0.0
H570 H 0.21423 0.63587 0.26632 0.0
H571 H 0.23627 0.61109 0.19871 0.0
C572 C 0.12626 0.71741 0.31422 0.0
C573 C 0.1422 0.71263 0.35502 0.0
C574 C 0.14209 0.70711 0.27506 0.0
C575 C 0.17449 0.69233 0.2758 0.0
C576 C 0.19093 0.68907 0.31673 0.0
C577 C 0.17483 0.69877 0.35586 0.0
C578 C 0.19664 0.6793 0.15446 0.0
C579 C 0.21525 0.64915 0.1557 0.0
C580 C 0.1845 0.69405 0.19345 0.0
C581 C 0.1902 0.67866 0.23454 0.0
C582 C 0.20973 0.64894 0.23562 0.0
C583 C 0.22232 0.63455 0.19673 0.0
H584 H 0.62949 0.92234 0.89314 0.0
H585 H 0.58624 0.83027 0.84001 0.0
H586 H 0.64587 0.9396 0.81928 0.0
H587 H 0.60067 0.84855 0.76578 0.0
H588 H 0.67249 0.86677 0.65073 0.0
H589 H 0.65058 0.8527 0.72325 0.0
H590 H 0.62983 0.95836 0.74816 0.0
H591 H 0.65284 0.97244 0.67549 0.0
C592 C 0.62308 0.90592 0.86565 0.0
C593 C 0.60705 0.87457 0.87277 0.0
C594 C 0.63212 0.91607 0.82309 0.0
C595 C 0.62508 0.8953 0.7864 0.0
C596 C 0.60725 0.86488 0.79329 0.0
C597 C 0.59846 0.8546 0.8359 0.0
C598 C 0.66302 0.88699 0.67157 0.0
C599 C 0.66422 0.9207 0.65731 0.0
C600 C 0.65023 0.87891 0.71315 0.0
C601 C 0.63797 0.90429 0.74161 0.0
C602 C 0.63929 0.93813 0.72737 0.0
C603 C 0.65245 0.94626 0.68575 0.0
H604 H 0.07681 0.68299 0.68182 0.0
H605 H 0.17762 0.66383 0.63218 0.0
H606 H 0.09431 0.66391 0.75435 0.0
H607 H 0.19381 0.64138 0.70265 0.0
H608 H 0.2265 0.63459 0.84466 0.0
H609 H 0.20874 0.65503 0.77284 0.0
H610 H 0.10727 0.61811 0.79797 0.0
H611 H 0.12505 0.60003 0.87131 0.0
C612 C 0.10262 0.6746 0.6861 0.0
C613 C 0.12558 0.67485 0.65057 0.0
C614 C 0.11255 0.66299 0.72771 0.0
C615 C 0.14556 0.65079 0.73479 0.0
C616 C 0.16837 0.651 0.69916 0.0
C617 C 0.15873 0.6633 0.65805 0.0
C618 C 0.20052 0.6306 0.83439 0.0
C619 C 0.17718 0.61551 0.86304 0.0
C620 C 0.19023 0.64219 0.79311 0.0
C621 C 0.15644 0.63823 0.77901 0.0
C622 C 0.1333 0.62231 0.80768 0.0
C623 C 0.14349 0.61148 0.84948 0.0
H624 H 0.31432 0.13399 0.67525 0.0
H625 H 0.41562 0.10126 0.6445 0.0
H626 H 0.33306 0.15329 0.74757 0.0
H627 H 0.4344 0.11872 0.71798 0.0
H628 H 0.46525 0.18353 0.8361 0.0
H629 H 0.44705 0.16504 0.76312 0.0
H630 H 0.34958 0.13687 0.81674 0.0
H631 H 0.36646 0.15825 0.88809 0.0
C632 C 0.3405 0.13026 0.68452 0.0
C633 C 0.36348 0.11596 0.65452 0.0
C634 C 0.35134 0.14122 0.72608 0.0
C635 C 0.38535 0.13754 0.7391 0.0
C636 C 0.40819 0.12262 0.70909 0.0
C637 C 0.39743 0.11227 0.66712 0.0
C638 C 0.43976 0.17389 0.8322 0.0
C639 C 0.41753 0.17232 0.86845 0.0
C640 C 0.42944 0.16271 0.79033 0.0
C641 C 0.39675 0.14927 0.78367 0.0
C642 C 0.37473 0.1475 0.82005 0.0
C643 C 0.38477 0.15921 0.86153 0.0
H644 H 0.94837 0.32772 0.67874 0.0
H645 H 0.8695 0.38516 0.61563 0.0
H646 H 0.93127 0.35078 0.7502 0.0
H647 H 0.85144 0.40694 0.6871 0.0
H648 H 0.84725 0.463 0.82066 0.0
H649 H 0.86652 0.44377 0.74787 0.0
H650 H 0.88473 0.34426 0.80065 0.0
H651 H 0.86596 0.36352 0.87288 0.0
C652 C 0.92751 0.34537 0.68005 0.0
C653 C 0.91012 0.35427 0.64145 0.0
C654 C 0.91742 0.35831 0.72109 0.0
C655 C 0.88971 0.38048 0.72453 0.0
C656 C 0.87297 0.3901 0.68575 0.0
C657 C 0.88307 0.37722 0.64477 0.0
C658 C 0.85518 0.43699 0.81648 0.0
C659 C 0.85548 0.41492 0.8526 0.0
C660 C 0.86625 0.42594 0.77484 0.0
C661 C 0.87765 0.39254 0.76849 0.0
C662 C 0.87705 0.37036 0.80451 0.0
C663 C 0.86614 0.38139 0.84594 0.0
loop_
_geom_bond_atom_site_label_1
_geom_bond_atom_site_label_2
_geom_bond_distance
_geom_bond_site_symmetry_2
_ccdc_geom_bond_type
Co0 N4 2.148 . S
Co0 N10 2.128 . S
Co0 N20 2.194 1_554 S
Co0 O25 2.351 . S
Co0 O26 2.155 . S
Co0 O27 2.096 . S
C1 N4 1.301 . S
C1 N5 1.328 . S
C1 H6 0.930 . S
C2 C3 1.333 . S
C2 N4 1.317 . S
C2 H7 0.930 . S
C3 C2 1.333 . S
C3 N5 1.350 . S
C3 H29 0.931 . S
N4 Co0 2.148 . S
N4 C1 1.301 . S
N4 C2 1.317 . S
N5 C1 1.328 . S
N5 C3 1.350 . S
H6 C1 0.930 . S
H7 C2 0.930 . S
C8 O9 1.224 1_554 S
C8 O27 1.247 . S
O9 C8 1.224 1_556 S
N10 Co0 2.128 . S
N10 C11 1.355 . S
N10 C13 1.311 . S
C11 N10 1.355 . S
C11 C12 1.363 . S
C11 H23 0.929 . S
C12 C11 1.363 . S
C12 N14 1.375 . S
C12 H30 0.931 . S
C13 N10 1.311 . S
C13 N14 1.347 . S
C13 H24 0.929 . S
N14 C12 1.375 . S
N14 C13 1.347 . S
C15 C18 1.365 . S
C15 N20 1.328 . S
C15 H21 0.929 1_556 S
C16 C17 1.362 . S
C16 C19 1.378 . S
C16 H31 0.929 . S
C17 C16 1.362 . S
C17 C18 1.366 . S
C18 C15 1.365 . S
C18 C17 1.366 . S
C18 H32 0.930 . S
C19 C16 1.378 . S
C19 N20 1.315 . S
C19 H22 0.930 . S
N20 Co0 2.194 1_556 S
N20 C15 1.328 . S
N20 C19 1.315 . S
H21 C15 0.929 1_554 S
H22 C19 0.930 . S
H23 C11 0.929 . S
H24 C13 0.929 . S
O25 Co0 2.351 . S
O25 C28 1.244 . S
O26 Co0 2.155 . S
O26 C28 1.240 . S
O27 Co0 2.096 . S
O27 C8 1.247 . S
C28 O25 1.244 . S
C28 O26 1.240 . S
H29 C3 0.931 . S
H30 C12 0.931 . S
H31 C16 0.929 . S
H32 C18 0.930 . S
Co33 N37 2.148 . S
Co33 N43 2.128 . S
Co33 N53 2.194 1_554 S
Co33 O58 2.351 . S
Co33 O59 2.155 . S
Co33 O60 2.096 . S
C34 N37 1.301 . S
C34 N38 1.328 . S
C34 H39 0.930 . S
C35 C36 1.333 . S
C35 N37 1.317 . S
C35 H40 0.930 . S
C36 C35 1.333 . S
C36 N38 1.350 . S
C36 H62 0.931 . S
N37 Co33 2.148 . S
N37 C34 1.301 . S
N37 C35 1.317 . S
N38 C34 1.328 . S
N38 C36 1.350 . S
H39 C34 0.930 . S
H40 C35 0.930 . S
C41 O42 1.224 1_554 S
C41 O60 1.247 . S
O42 C41 1.224 1_556 S
N43 Co33 2.128 . S
N43 C44 1.355 . S
N43 C46 1.311 . S
C44 N43 1.355 . S
C44 C45 1.363 . S
C44 H56 0.929 . S
C45 C44 1.363 . S
C45 N47 1.375 . S
C45 H63 0.931 . S
C46 N43 1.311 . S
C46 N47 1.347 . S
C46 H57 0.929 . S
N47 C45 1.375 . S
N47 C46 1.347 . S
C48 C51 1.365 . S
C48 N53 1.328 . S
C48 H54 0.929 1_556 S
C49 C50 1.362 . S
C49 C52 1.378 . S
C49 H64 0.929 . S
C50 C49 1.362 . S
C50 C51 1.366 . S
C51 C48 1.365 . S
C51 C50 1.366 . S
C51 H65 0.930 . S
C52 C49 1.378 . S
C52 N53 1.315 . S
C52 H55 0.930 . S
N53 Co33 2.194 1_556 S
N53 C48 1.328 . S
N53 C52 1.315 . S
H54 C48 0.929 1_554 S
H55 C52 0.930 . S
H56 C44 0.929 . S
H57 C46 0.929 . S
O58 Co33 2.351 . S
O58 C61 1.244 . S
O59 Co33 2.155 . S
O59 C61 1.240 . S
O60 Co33 2.096 . S
O60 C41 1.247 . S
C61 O58 1.244 . S
C61 O59 1.240 . S
H62 C36 0.931 . S
H63 C45 0.931 . S
H64 C49 0.929 . S
H65 C51 0.930 . S
Co66 N70 2.148 . S
Co66 N76 2.128 . S
Co66 N86 2.194 1_554 S
Co66 O91 2.351 . S
Co66 O92 2.155 . S
Co66 O93 2.096 . S
C67 N70 1.301 . S
C67 N71 1.328 . S
C67 H72 0.930 . S
C68 C69 1.333 . S
C68 N70 1.317 . S
C68 H73 0.930 . S
C69 C68 1.333 . S
C69 N71 1.350 . S
C69 H95 0.931 . S
N70 Co66 2.148 . S
N70 C67 1.301 . S
N70 C68 1.317 . S
N71 C67 1.328 . S
N71 C69 1.350 . S
H72 C67 0.930 . S
H73 C68 0.930 . S
C74 O75 1.224 1_554 S
C74 O93 1.247 . S
O75 C74 1.224 1_556 S
N76 Co66 2.128 . S
N76 C77 1.355 . S
N76 C79 1.311 . S
C77 N76 1.355 . S
C77 C78 1.363 . S
C77 H89 0.929 . S
C78 C77 1.363 . S
C78 N80 1.375 . S
C78 H96 0.931 . S
C79 N76 1.311 . S
C79 N80 1.347 . S
C79 H90 0.929 . S
N80 C78 1.375 . S
N80 C79 1.347 . S
C81 C84 1.365 . S
C81 N86 1.328 . S
C81 H87 0.929 1_556 S
C82 C83 1.362 . S
C82 C85 1.378 . S
C82 H97 0.929 . S
C83 C82 1.362 . S
C83 C84 1.366 . S
C84 C81 1.365 . S
C84 C83 1.366 . S
C84 H98 0.930 . S
C85 C82 1.378 . S
C85 N86 1.315 . S
C85 H88 0.930 . S
N86 Co66 2.194 1_556 S
N86 C81 1.328 . S
N86 C85 1.315 . S
H87 C81 0.929 1_554 S
H88 C85 0.930 . S
H89 C77 0.929 . S
H90 C79 0.929 . S
O91 Co66 2.351 . S
O91 C94 1.244 . S
O92 Co66 2.155 . S
O92 C94 1.240 . S
O93 Co66 2.096 . S
O93 C74 1.247 . S
C94 O91 1.244 . S
C94 O92 1.240 . S
H95 C69 0.931 . S
H96 C78 0.931 . S
H97 C82 0.929 . S
H98 C84 0.930 . S
Co99 N103 2.148 . S
Co99 N109 2.128 . S
Co99 N119 2.194 1_554 S
Co99 O124 2.351 . S
Co99 O125 2.155 . S
Co99 O126 2.096 . S
C100 N103 1.301 . S
C100 N104 1.328 . S
C100 H105 0.930 . S
C101 C102 1.333 . S
C101 N103 1.317 . S
C101 H106 0.930 . S
C102 C101 1.333 . S
C102 N104 1.350 . S
C102 H128 0.931 . S
N103 Co99 2.148 . S
N103 C100 1.301 . S
N103 C101 1.317 . S
N104 C100 1.328 . S
N104 C102 1.350 . S
H105 C100 0.930 . S
H106 C101 0.930 . S
C107 O108 1.224 1_554 S
C107 O126 1.247 . S
O108 C107 1.224 1_556 S
N109 Co99 2.128 . S
N109 C110 1.355 . S
N109 C112 1.311 . S
C110 N109 1.355 . S
C110 C111 1.363 . S
C110 H122 0.929 . S
C111 C110 1.363 . S
C111 N113 1.375 . S
C111 H129 0.931 . S
C112 N109 1.311 . S
C112 N113 1.347 . S
C112 H123 0.929 . S
N113 C111 1.375 . S
N113 C112 1.347 . S
C114 C117 1.365 . S
C114 N119 1.328 . S
C114 H120 0.929 1_556 S
C115 C116 1.362 . S
C115 C118 1.378 . S
C115 H130 0.929 . S
C116 C115 1.362 . S
C116 C117 1.366 . S
C117 C114 1.365 . S
C117 C116 1.366 . S
C117 H131 0.930 . S
C118 C115 1.378 . S
C118 N119 1.315 . S
C118 H121 0.930 . S
N119 Co99 2.194 1_556 S
N119 C114 1.328 . S
N119 C118 1.315 . S
H120 C114 0.929 1_554 S
H121 C118 0.930 . S
H122 C110 0.929 . S
H123 C112 0.929 . S
O124 Co99 2.351 . S
O124 C127 1.244 . S
O125 Co99 2.155 . S
O125 C127 1.240 . S
O126 Co99 2.096 . S
O126 C107 1.247 . S
C127 O124 1.244 . S
C127 O125 1.240 . S
H128 C102 0.931 . S
H129 C111 0.931 . S
H130 C115 0.929 . S
H131 C117 0.930 . S
Co132 N136 2.148 . S
Co132 N142 2.128 . S
Co132 N152 2.194 . S
Co132 O157 2.351 . S
Co132 O158 2.155 . S
Co132 O159 2.096 . S
C133 N136 1.301 . S
C133 N137 1.328 . S
C133 H138 0.930 . S
C134 C135 1.336 . S
C134 N136 1.317 . S
C134 H139 0.930 1_655 S
C135 C134 1.336 . S
C135 N137 1.357 . S
C135 H161 0.924 1_655 S
N136 Co132 2.148 . S
N136 C133 1.301 . S
N136 C134 1.317 . S
N137 C133 1.328 . S
N137 C135 1.357 . S
H138 C133 0.930 . S
H139 C134 0.930 1_455 S
C140 O141 1.224 . S
C140 O159 1.247 . S
O141 C140 1.224 . S
N142 Co132 2.128 . S
N142 C143 1.355 . S
N142 C145 1.311 . S
C143 N142 1.355 . S
C143 C144 1.363 . S
C143 H155 0.929 . S
C144 C143 1.363 . S
C144 N146 1.375 . S
C144 H162 0.931 . S
C145 N142 1.311 . S
C145 N146 1.347 . S
C145 H156 0.929 . S
N146 C144 1.375 . S
N146 C145 1.347 . S
C147 C150 1.365 . S
C147 N152 1.328 . S
C147 H153 0.929 . S
C148 C149 1.362 . S
C148 C151 1.378 . S
C148 H163 0.929 . S
C149 C148 1.362 . S
C149 C150 1.366 . S
C150 C147 1.365 . S
C150 C149 1.366 . S
C150 H164 0.930 . S
C151 C148 1.378 . S
C151 N152 1.315 . S
C151 H154 0.930 . S
N152 Co132 2.194 . S
N152 C147 1.328 . S
N152 C151 1.315 . S
H153 C147 0.929 . S
H154 C151 0.930 . S
H155 C143 0.929 . S
H156 C145 0.929 . S
O157 Co132 2.351 . S
O157 C160 1.244 . S
O158 Co132 2.155 . S
O158 C160 1.240 . S
O159 Co132 2.096 . S
O159 C140 1.247 . S
C160 O157 1.244 . S
C160 O158 1.240 . S
H161 C135 0.924 1_455 S
H162 C144 0.931 . S
H163 C148 0.929 . S
H164 C150 0.930 . S
Co165 N169 2.148 . S
Co165 N175 2.128 . S
Co165 N185 2.194 . S
Co165 O190 2.351 . S
Co165 O191 2.155 . S
Co165 O192 2.096 . S
C166 N169 1.301 . S
C166 N170 1.328 . S
C166 H171 0.930 . S
C167 C168 1.336 . S
C167 N169 1.317 . S
C167 H172 0.930 1_565 S
C168 C167 1.336 . S
C168 N170 1.357 . S
C168 H194 0.924 1_565 S
N169 Co165 2.148 . S
N169 C166 1.301 . S
N169 C167 1.317 . S
N170 C166 1.328 . S
N170 C168 1.357 . S
H171 C166 0.930 . S
H172 C167 0.930 1_545 S
C173 O174 1.224 . S
C173 O192 1.247 . S
O174 C173 1.224 . S
N175 Co165 2.128 . S
N175 C176 1.355 . S
N175 C178 1.311 . S
C176 N175 1.355 . S
C176 C177 1.363 . S
C176 H188 0.929 . S
C177 C176 1.363 . S
C177 N179 1.375 . S
C177 H195 0.931 . S
C178 N175 1.311 . S
C178 N179 1.347 . S
C178 H189 0.929 . S
N179 C177 1.375 . S
N179 C178 1.347 . S
C180 C183 1.365 . S
C180 N185 1.328 . S
C180 H186 0.929 . S
C181 C182 1.362 . S
C181 C184 1.378 . S
C181 H196 0.929 . S
C182 C181 1.362 . S
C182 C183 1.366 . S
C183 C180 1.365 . S
C183 C182 1.366 . S
C183 H197 0.930 . S
C184 C181 1.378 . S
C184 N185 1.315 . S
C184 H187 0.930 . S
N185 Co165 2.194 . S
N185 C180 1.328 . S
N185 C184 1.315 . S
H186 C180 0.929 . S
H187 C184 0.930 . S
H188 C176 0.929 . S
H189 C178 0.929 . S
O190 Co165 2.351 . S
O190 C193 1.244 . S
O191 Co165 2.155 . S
O191 C193 1.240 . S
O192 Co165 2.096 . S
O192 C173 1.247 . S
C193 O190 1.244 . S
C193 O191 1.240 . S
H194 C168 0.924 1_545 S
H195 C177 0.931 . S
H196 C181 0.929 . S
H197 C183 0.930 . S
Co198 N202 2.148 . S
Co198 N208 2.128 . S
Co198 N218 2.194 . S
Co198 O223 2.351 . S
Co198 O224 2.155 . S
Co198 O225 2.096 . S
C199 N202 1.301 . S
C199 N203 1.328 . S
C199 H204 0.930 . S
C200 C201 1.336 . S
C200 N202 1.317 . S
C200 H205 0.930 1_455 S
C201 C200 1.336 . S
C201 N203 1.357 . S
C201 H227 0.924 1_455 S
N202 Co198 2.148 . S
N202 C199 1.301 . S
N202 C200 1.317 . S
N203 C199 1.328 . S
N203 C201 1.357 . S
H204 C199 0.930 . S
H205 C200 0.930 1_655 S
C206 O207 1.224 . S
C206 O225 1.247 . S
O207 C206 1.224 . S
N208 Co198 2.128 . S
N208 C209 1.355 . S
N208 C211 1.311 . S
C209 N208 1.355 . S
C209 C210 1.363 . S
C209 H221 0.929 . S
C210 C209 1.363 . S
C210 N212 1.375 . S
C210 H228 0.931 . S
C211 N208 1.311 . S
C211 N212 1.347 . S
C211 H222 0.929 . S
N212 C210 1.375 . S
N212 C211 1.347 . S
C213 C216 1.365 . S
C213 N218 1.328 . S
C213 H219 0.929 . S
C214 C215 1.362 . S
C214 C217 1.378 . S
C214 H229 0.929 . S
C215 C214 1.362 . S
C215 C216 1.366 . S
C216 C213 1.365 . S
C216 C215 1.366 . S
C216 H230 0.930 . S
C217 C214 1.378 . S
C217 N218 1.315 . S
C217 H220 0.930 . S
N218 Co198 2.194 . S
N218 C213 1.328 . S
N218 C217 1.315 . S
H219 C213 0.929 . S
H220 C217 0.930 . S
H221 C209 0.929 . S
H222 C211 0.929 . S
O223 Co198 2.351 . S
O223 C226 1.244 . S
O224 Co198 2.155 . S
O224 C226 1.240 . S
O225 Co198 2.096 . S
O225 C206 1.247 . S
C226 O223 1.244 . S
C226 O224 1.240 . S
H227 C201 0.924 1_655 S
H228 C210 0.931 . S
H229 C214 0.929 . S
H230 C216 0.930 . S
Co231 N235 2.148 . S
Co231 N241 2.128 . S
Co231 N251 2.194 . S
Co231 O256 2.351 . S
Co231 O257 2.155 . S
Co231 O258 2.096 . S
C232 N235 1.301 . S
C232 N236 1.328 . S
C232 H237 0.930 . S
C233 C234 1.336 . S
C233 N235 1.317 . S
C233 H238 0.930 1_545 S
C234 C233 1.336 . S
C234 N236 1.357 . S
C234 H260 0.924 1_545 S
N235 Co231 2.148 . S
N235 C232 1.301 . S
N235 C233 1.317 . S
N236 C232 1.328 . S
N236 C234 1.357 . S
H237 C232 0.930 . S
H238 C233 0.930 1_565 S
C239 O240 1.224 . S
C239 O258 1.247 . S
O240 C239 1.224 . S
N241 Co231 2.128 . S
N241 C242 1.355 . S
N241 C244 1.311 . S
C242 N241 1.355 . S
C242 C243 1.363 . S
C242 H254 0.929 . S
C243 C242 1.363 . S
C243 N245 1.375 . S
C243 H261 0.931 . S
C244 N241 1.311 . S
C244 N245 1.347 . S
C244 H255 0.929 . S
N245 C243 1.375 . S
N245 C244 1.347 . S
C246 C249 1.365 . S
C246 N251 1.328 . S
C246 H252 0.929 . S
C247 C248 1.362 . S
C247 C250 1.378 . S
C247 H262 0.929 . S
C248 C247 1.362 . S
C248 C249 1.366 . S
C249 C246 1.365 . S
C249 C248 1.366 . S
C249 H263 0.930 . S
C250 C247 1.378 . S
C250 N251 1.315 . S
C250 H253 0.930 . S
N251 Co231 2.194 . S
N251 C246 1.328 . S
N251 C250 1.315 . S
H252 C246 0.929 . S
H253 C250 0.930 . S
H254 C242 0.929 . S
H255 C244 0.929 . S
O256 Co231 2.351 . S
O256 C259 1.244 . S
O257 Co231 2.155 . S
O257 C259 1.240 . S
O258 Co231 2.096 . S
O258 C239 1.247 . S
C259 O256 1.244 . S
C259 O257 1.240 . S
H260 C234 0.924 1_565 S
H261 C243 0.931 . S
H262 C247 0.929 . S
H263 C249 0.930 . S
H264 C272 0.950 1_556 S
H265 C277 0.950 . S
H266 C274 0.950 1_556 S
H267 C276 0.950 . S
H268 C278 0.950 . S
H269 C280 0.950 . S
H270 C282 0.950 1_556 S
H271 C283 0.950 1_556 S
C272 H264 0.950 1_554 S
C272 C273 1.386 . S
C272 C274 1.391 . S
C273 C272 1.386 . S
C273 C277 1.393 . S
C274 H266 0.950 1_554 S
C274 C272 1.391 . S
C274 C275 1.400 . S
C275 C274 1.400 . S
C275 C276 1.398 . S
C275 C281 1.491 1_565 S
C276 H267 0.950 . S
C276 C275 1.398 . S
C276 C277 1.391 . S
C277 H265 0.950 . S
C277 C273 1.393 . S
C277 C276 1.391 . S
C278 H268 0.950 . S
C278 C279 1.386 . S
C278 C280 1.391 . S
C279 C278 1.386 . S
C279 C283 1.393 . S
C280 H269 0.950 . S
C280 C278 1.391 . S
C280 C281 1.400 . S
C281 C275 1.491 1_545 S
C281 C280 1.400 . S
C281 C282 1.398 . S
C282 H270 0.950 1_554 S
C282 C281 1.398 . S
C282 C283 1.391 . S
C283 H271 0.950 1_554 S
C283 C279 1.393 . S
C283 C282 1.391 . S
H284 C292 0.950 1_556 S
H285 C297 0.950 . S
H286 C294 0.950 1_556 S
H287 C296 0.950 . S
H288 C298 0.950 . S
H289 C300 0.950 . S
H290 C302 0.950 1_556 S
H291 C303 0.950 1_556 S
C292 H284 0.950 1_554 S
C292 C293 1.386 . S
C292 C294 1.391 . S
C293 C292 1.386 . S
C293 C297 1.393 . S
C294 H286 0.950 1_554 S
C294 C292 1.391 . S
C294 C295 1.400 . S
C295 C294 1.400 . S
C295 C296 1.398 . S
C295 C301 1.491 1_655 S
C296 H287 0.950 . S
C296 C295 1.398 . S
C296 C297 1.391 . S
C297 H285 0.950 . S
C297 C293 1.393 . S
C297 C296 1.391 . S
C298 H288 0.950 . S
C298 C299 1.386 . S
C298 C300 1.391 . S
C299 C298 1.386 . S
C299 C303 1.393 . S
C300 H289 0.950 . S
C300 C298 1.391 . S
C300 C301 1.400 . S
C301 C295 1.491 1_455 S
C301 C300 1.400 . S
C301 C302 1.398 . S
C302 H290 0.950 1_554 S
C302 C301 1.398 . S
C302 C303 1.391 . S
C303 H291 0.950 1_554 S
C303 C299 1.393 . S
C303 C302 1.391 . S
H304 C312 0.950 . S
H305 C317 0.950 . S
H306 C314 0.941 1_455 S
H307 C316 0.950 . S
H308 C318 0.950 . S
H309 C320 0.941 1_655 S
H310 C322 0.950 . S
H311 C323 0.950 . S
C312 H304 0.950 . S
C312 C313 1.386 . S
C312 C314 1.391 . S
C313 C312 1.386 . S
C313 C317 1.393 . S
C314 H306 0.941 1_655 S
C314 C312 1.391 . S
C314 C315 1.400 . S
C315 C314 1.400 . S
C315 C316 1.398 . S
C315 C321 1.491 1_655 S
C316 H307 0.950 . S
C316 C315 1.398 . S
C316 C317 1.391 . S
C317 H305 0.950 . S
C317 C313 1.393 . S
C317 C316 1.391 . S
C318 H308 0.950 . S
C318 C319 1.386 . S
C318 C320 1.391 . S
C319 C318 1.386 . S
C319 C323 1.393 . S
C320 H309 0.941 1_455 S
C320 C318 1.391 . S
C320 C321 1.400 . S
C321 C315 1.491 1_455 S
C321 C320 1.400 . S
C321 C322 1.398 . S
C322 H310 0.950 . S
C322 C321 1.398 . S
C322 C323 1.391 . S
C323 H311 0.950 . S
C323 C319 1.393 . S
C323 C322 1.391 . S
H324 C332 0.950 . S
H325 C337 0.950 . S
H326 C334 0.950 1_545 S
H327 C336 0.950 . S
H328 C338 0.950 . S
H329 C340 0.950 1_565 S
H330 C342 0.950 . S
H331 C343 0.950 . S
C332 H324 0.950 . S
C332 C333 1.386 . S
C332 C334 1.391 . S
C333 C332 1.386 . S
C333 C337 1.393 . S
C334 H326 0.950 1_565 S
C334 C332 1.391 . S
C334 C335 1.400 . S
C335 C334 1.400 . S
C335 C336 1.398 . S
C335 C341 1.491 1_565 S
C336 H327 0.950 . S
C336 C335 1.398 . S
C336 C337 1.391 . S
C337 H325 0.950 . S
C337 C333 1.393 . S
C337 C336 1.391 . S
C338 H328 0.950 . S
C338 C339 1.386 . S
C338 C340 1.391 . S
C339 C338 1.386 . S
C339 C343 1.393 . S
C340 H329 0.950 1_545 S
C340 C338 1.391 . S
C340 C341 1.400 . S
C341 C335 1.491 1_545 S
C341 C340 1.400 . S
C341 C342 1.398 . S
C342 H330 0.950 . S
C342 C341 1.398 . S
C342 C343 1.391 . S
C343 H331 0.950 . S
C343 C339 1.393 . S
C343 C342 1.391 . S
H344 C352 0.950 . S
H345 C357 0.950 1_556 S
H346 C354 0.950 . S
H347 C356 0.950 1_556 S
H348 C358 0.950 1_556 S
H349 C360 0.950 1_556 S
H350 C362 0.950 . S
H351 C363 0.950 . S
C352 H344 0.950 . S
C352 C353 1.386 . S
C352 C354 1.391 . S
C353 C352 1.386 . S
C353 C357 1.393 . S
C354 H346 0.950 . S
C354 C352 1.391 . S
C354 C355 1.400 . S
C355 C354 1.400 . S
C355 C356 1.398 . S
C355 C361 1.491 . S
C356 H347 0.950 1_554 S
C356 C355 1.398 . S
C356 C357 1.391 . S
C357 H345 0.950 1_554 S
C357 C353 1.393 . S
C357 C356 1.391 . S
C358 H348 0.950 1_554 S
C358 C359 1.386 . S
C358 C360 1.391 . S
C359 C358 1.386 . S
C359 C363 1.393 . S
C360 H349 0.950 1_554 S
C360 C358 1.391 . S
C360 C361 1.400 . S
C361 C355 1.491 . S
C361 C360 1.400 . S
C361 C362 1.398 . S
C362 H350 0.950 . S
C362 C361 1.398 . S
C362 C363 1.391 . S
C363 H351 0.950 . S
C363 C359 1.393 . S
C363 C362 1.391 . S
H364 C372 0.950 . S
H365 C377 0.950 1_556 S
H366 C374 0.950 . S
H367 C376 0.950 1_556 S
H368 C378 0.950 1_556 S
H369 C380 0.950 1_556 S
H370 C382 0.950 . S
H371 C383 0.950 . S
C372 H364 0.950 . S
C372 C373 1.386 . S
C372 C374 1.391 . S
C373 C372 1.386 . S
C373 C377 1.393 . S
C374 H366 0.950 . S
C374 C372 1.391 . S
C374 C375 1.400 . S
C375 C374 1.400 . S
C375 C376 1.398 . S
C375 C381 1.491 . S
C376 H367 0.950 1_554 S
C376 C375 1.398 . S
C376 C377 1.391 . S
C377 H365 0.950 1_554 S
C377 C373 1.393 . S
C377 C376 1.391 . S
C378 H368 0.950 1_554 S
C378 C379 1.386 . S
C378 C380 1.391 . S
C379 C378 1.386 . S
C379 C383 1.393 . S
C380 H369 0.950 1_554 S
C380 C378 1.391 . S
C380 C381 1.400 . S
C381 C375 1.491 . S
C381 C380 1.400 . S
C381 C382 1.398 . S
C382 H370 0.950 . S
C382 C381 1.398 . S
C382 C383 1.391 . S
C383 H371 0.950 . S
C383 C379 1.393 . S
C383 C382 1.391 . S
H384 C392 0.950 . S
H385 C397 0.950 . S
H386 C394 0.950 . S
H387 C396 0.950 . S
H388 C398 0.950 . S
H389 C400 0.950 . S
H390 C402 0.950 . S
H391 C403 0.950 . S
C392 H384 0.950 . S
C392 C393 1.386 . S
C392 C394 1.391 . S
C393 C392 1.386 . S
C393 C397 1.393 1_554 S
C394 H386 0.950 . S
C394 C392 1.391 . S
C394 C395 1.400 . S
C395 C394 1.400 . S
C395 C396 1.398 1_554 S
C395 C401 1.491 . S
C396 H387 0.950 . S
C396 C395 1.398 1_556 S
C396 C397 1.391 . S
C397 H385 0.950 . S
C397 C393 1.393 1_556 S
C397 C396 1.391 . S
C398 H388 0.950 . S
C398 C399 1.386 1_556 S
C398 C400 1.391 . S
C399 C398 1.386 1_554 S
C399 C403 1.393 . S
C400 H389 0.950 . S
C400 C398 1.391 . S
C400 C401 1.400 1_556 S
C401 C395 1.491 . S
C401 C400 1.400 1_554 S
C401 C402 1.398 . S
C402 H390 0.950 . S
C402 C401 1.398 . S
C402 C403 1.391 . S
C403 H391 0.950 . S
C403 C399 1.393 . S
C403 C402 1.391 . S
H404 C412 0.950 1_556 S
H405 C417 0.950 . S
H406 C414 0.950 1_556 S
H407 C416 0.950 . S
H408 C418 0.950 . S
H409 C420 0.950 . S
H410 C422 0.950 1_556 S
H411 C423 0.950 1_556 S
C412 H404 0.950 1_554 S
C412 C413 1.386 . S
C412 C414 1.391 . S
C413 C412 1.386 . S
C413 C417 1.393 . S
C414 H406 0.950 1_554 S
C414 C412 1.391 . S
C414 C415 1.400 . S
C415 C414 1.400 . S
C415 C416 1.398 . S
C415 C421 1.491 . S
C416 H407 0.950 . S
C416 C415 1.398 . S
C416 C417 1.391 . S
C417 H405 0.950 . S
C417 C413 1.393 . S
C417 C416 1.391 . S
C418 H408 0.950 . S
C418 C419 1.386 . S
C418 C420 1.391 . S
C419 C418 1.386 . S
C419 C423 1.393 . S
C420 H409 0.950 . S
C420 C418 1.391 . S
C420 C421 1.400 . S
C421 C415 1.491 . S
C421 C420 1.400 . S
C421 C422 1.398 . S
C422 H410 0.950 1_554 S
C422 C421 1.398 . S
C422 C423 1.391 . S
C423 H411 0.950 1_554 S
C423 C419 1.393 . S
C423 C422 1.391 . S
H424 C432 0.950 . S
H425 C437 0.950 1_565 S
H426 C434 0.950 . S
H427 C436 0.950 . S
H428 C438 0.950 . S
H429 C440 0.950 . S
H430 C442 0.950 . S
H431 C443 0.950 . S
C432 H424 0.950 . S
C432 C433 1.386 . S
C432 C434 1.391 . S
C433 C432 1.386 . S
C433 C437 1.393 . S
C434 H426 0.950 . S
C434 C432 1.391 . S
C434 C435 1.400 . S
C435 C434 1.400 . S
C435 C436 1.398 . S
C435 C441 1.491 . S
C436 H427 0.950 . S
C436 C435 1.398 . S
C436 C437 1.391 . S
C437 H425 0.950 1_545 S
C437 C433 1.393 . S
C437 C436 1.391 . S
C438 H428 0.950 . S
C438 C439 1.386 . S
C438 C440 1.391 . S
C439 C438 1.386 . S
C439 C443 1.393 . S
C440 H429 0.950 . S
C440 C438 1.391 . S
C440 C441 1.400 . S
C441 C435 1.491 . S
C441 C440 1.400 . S
C441 C442 1.398 . S
C442 H430 0.950 . S
C442 C441 1.398 . S
C442 C443 1.391 . S
C443 H431 0.950 . S
C443 C439 1.393 . S
C443 C442 1.391 . S
H444 C452 0.950 . S
H445 C457 0.950 1_455 S
H446 C454 0.950 . S
H447 C456 0.950 . S
H448 C458 0.950 . S
H449 C460 0.950 . S
H450 C462 0.950 . S
H451 C463 0.950 . S
C452 H444 0.950 . S
C452 C453 1.386 . S
C452 C454 1.391 . S
C453 C452 1.386 . S
C453 C457 1.393 . S
C454 H446 0.950 . S
C454 C452 1.391 . S
C454 C455 1.400 . S
C455 C454 1.400 . S
C455 C456 1.398 . S
C455 C461 1.491 . S
C456 H447 0.950 . S
C456 C455 1.398 . S
C456 C457 1.391 . S
C457 H445 0.950 1_655 S
C457 C453 1.393 . S
C457 C456 1.391 . S
C458 H448 0.950 . S
C458 C459 1.386 . S
C458 C460 1.391 . S
C459 C458 1.386 . S
C459 C463 1.393 . S
C460 H449 0.950 . S
C460 C458 1.391 . S
C460 C461 1.400 . S
C461 C455 1.491 . S
C461 C460 1.400 . S
C461 C462 1.398 . S
C462 H450 0.950 . S
C462 C461 1.398 . S
C462 C463 1.391 . S
C463 H451 0.950 . S
C463 C459 1.393 . S
C463 C462 1.391 . S
H464 C472 0.950 1_545 S
H465 C477 0.950 . S
H466 C474 0.950 . S
H467 C476 0.950 . S
H468 C478 0.950 . S
H469 C480 0.950 . S
H470 C482 0.950 . S
H471 C483 0.950 . S
C472 H464 0.950 1_565 S
C472 C473 1.386 . S
C472 C474 1.391 . S
C473 C472 1.386 . S
C473 C477 1.393 . S
C474 H466 0.950 . S
C474 C472 1.391 . S
C474 C475 1.400 . S
C475 C474 1.400 . S
C475 C476 1.398 . S
C475 C481 1.491 . S
C476 H467 0.950 . S
C476 C475 1.398 . S
C476 C477 1.391 . S
C477 H465 0.950 . S
C477 C473 1.393 . S
C477 C476 1.391 . S
C478 H468 0.950 . S
C478 C479 1.386 . S
C478 C480 1.391 . S
C479 C478 1.386 . S
C479 C483 1.393 . S
C480 H469 0.950 . S
C480 C478 1.391 . S
C480 C481 1.400 . S
C481 C475 1.491 . S
C481 C480 1.400 . S
C481 C482 1.398 . S
C482 H470 0.950 . S
C482 C481 1.398 . S
C482 C483 1.391 . S
C483 H471 0.950 . S
C483 C479 1.393 . S
C483 C482 1.391 . S
H484 C492 0.950 . S
H485 C497 0.950 . S
H486 C494 0.950 . S
H487 C496 0.950 . S
H488 C498 0.950 . S
H489 C500 0.950 . S
H490 C502 0.950 . S
H491 C503 0.950 . S
C492 H484 0.950 . S
C492 C493 1.386 . S
C492 C494 1.391 . S
C493 C492 1.386 . S
C493 C497 1.393 . S
C494 H486 0.950 . S
C494 C492 1.391 . S
C494 C495 1.400 . S
C495 C494 1.400 . S
C495 C496 1.398 . S
C495 C501 1.491 . S
C496 H487 0.950 . S
C496 C495 1.398 . S
C496 C497 1.391 . S
C497 H485 0.950 . S
C497 C493 1.393 . S
C497 C496 1.391 . S
C498 H488 0.950 . S
C498 C499 1.386 . S
C498 C500 1.391 . S
C499 C498 1.386 . S
C499 C503 1.393 . S
C500 H489 0.950 . S
C500 C498 1.391 . S
C500 C501 1.400 . S
C501 C495 1.491 . S
C501 C500 1.400 . S
C501 C502 1.398 . S
C502 H490 0.950 . S
C502 C501 1.398 . S
C502 C503 1.391 . S
C503 H491 0.950 . S
C503 C499 1.393 . S
C503 C502 1.391 . S
H504 C512 0.950 . S
H505 C517 0.950 . S
H506 C514 0.950 . S
H507 C516 0.950 . S
H508 C518 0.950 . S
H509 C520 0.950 . S
H510 C522 0.950 . S
H511 C523 0.950 . S
C512 H504 0.950 . S
C512 C513 1.386 . S
C512 C514 1.391 . S
C513 C512 1.386 . S
C513 C517 1.393 . S
C514 H506 0.950 . S
C514 C512 1.391 . S
C514 C515 1.400 . S
C515 C514 1.400 . S
C515 C516 1.398 . S
C515 C521 1.491 . S
C516 H507 0.950 . S
C516 C515 1.398 . S
C516 C517 1.391 . S
C517 H505 0.950 . S
C517 C513 1.393 . S
C517 C516 1.391 . S
C518 H508 0.950 . S
C518 C519 1.386 . S
C518 C520 1.391 . S
C519 C518 1.386 . S
C519 C523 1.393 . S
C520 H509 0.950 . S
C520 C518 1.391 . S
C520 C521 1.400 . S
C521 C515 1.491 . S
C521 C520 1.400 . S
C521 C522 1.398 . S
C522 H510 0.950 . S
C522 C521 1.398 . S
C522 C523 1.391 . S
C523 H511 0.950 . S
C523 C519 1.393 . S
C523 C522 1.391 . S
H524 C532 0.950 . S
H525 C537 0.950 . S
H526 C534 0.950 . S
H527 C536 0.950 . S
H528 C538 0.950 . S
H529 C540 0.950 . S
H530 C542 0.950 . S
H531 C543 0.950 . S
C532 H524 0.950 . S
C532 C533 1.386 . S
C532 C534 1.391 . S
C533 C532 1.386 . S
C533 C537 1.393 . S
C534 H526 0.950 . S
C534 C532 1.391 . S
C534 C535 1.400 . S
C535 C534 1.400 . S
C535 C536 1.398 . S
C535 C541 1.491 . S
C536 H527 0.950 . S
C536 C535 1.398 . S
C536 C537 1.391 . S
C537 H525 0.950 . S
C537 C533 1.393 . S
C537 C536 1.391 . S
C538 H528 0.950 . S
C538 C539 1.386 . S
C538 C540 1.391 . S
C539 C538 1.386 . S
C539 C543 1.393 . S
C540 H529 0.950 . S
C540 C538 1.391 . S
C540 C541 1.400 . S
C541 C535 1.491 . S
C541 C540 1.400 . S
C541 C542 1.398 . S
C542 H530 0.950 . S
C542 C541 1.398 . S
C542 C543 1.391 . S
C543 H531 0.950 . S
C543 C539 1.393 . S
C543 C542 1.391 . S
H544 C552 0.950 . S
H545 C557 0.950 . S
H546 C554 0.950 . S
H547 C556 0.950 . S
H548 C558 0.950 . S
H549 C560 0.950 . S
H550 C562 0.950 . S
H551 C563 0.950 . S
C552 H544 0.950 . S
C552 C553 1.386 . S
C552 C554 1.391 . S
C553 C552 1.386 . S
C553 C557 1.393 . S
C554 H546 0.950 . S
C554 C552 1.391 . S
C554 C555 1.400 . S
C555 C554 1.400 . S
C555 C556 1.398 . S
C555 C561 1.491 . S
C556 H547 0.950 . S
C556 C555 1.398 . S
C556 C557 1.391 . S
C557 H545 0.950 . S
C557 C553 1.393 . S
C557 C556 1.391 . S
C558 H548 0.950 . S
C558 C559 1.386 . S
C558 C560 1.391 . S
C559 C558 1.386 . S
C559 C563 1.393 . S
C560 H549 0.950 . S
C560 C558 1.391 . S
C560 C561 1.400 . S
C561 C555 1.491 . S
C561 C560 1.400 . S
C561 C562 1.398 . S
C562 H550 0.950 . S
C562 C561 1.398 . S
C562 C563 1.391 . S
C563 H551 0.950 . S
C563 C559 1.393 . S
C563 C562 1.391 . S
H564 C572 0.950 . S
H565 C577 0.950 . S
H566 C574 0.950 . S
H567 C576 0.950 . S
H568 C578 0.950 . S
H569 C580 0.950 . S
H570 C582 0.950 . S
H571 C583 0.950 . S
C572 H564 0.950 . S
C572 C573 1.386 . S
C572 C574 1.391 . S
C573 C572 1.386 . S
C573 C577 1.393 . S
C574 H566 0.950 . S
C574 C572 1.391 . S
C574 C575 1.400 . S
C575 C574 1.400 . S
C575 C576 1.398 . S
C575 C581 1.491 . S
C576 H567 0.950 . S
C576 C575 1.398 . S
C576 C577 1.391 . S
C577 H565 0.950 . S
C577 C573 1.393 . S
C577 C576 1.391 . S
C578 H568 0.950 . S
C578 C579 1.386 . S
C578 C580 1.391 . S
C579 C578 1.386 . S
C579 C583 1.393 . S
C580 H569 0.950 . S
C580 C578 1.391 . S
C580 C581 1.400 . S
C581 C575 1.491 . S
C581 C580 1.400 . S
C581 C582 1.398 . S
C582 H570 0.950 . S
C582 C581 1.398 . S
C582 C583 1.391 . S
C583 H571 0.950 . S
C583 C579 1.393 . S
C583 C582 1.391 . S
H584 C592 0.950 . S
H585 C597 0.950 . S
H586 C594 0.950 . S
H587 C596 0.950 . S
H588 C598 0.950 . S
H589 C600 0.950 . S
H590 C602 0.950 . S
H591 C603 0.950 . S
C592 H584 0.950 . S
C592 C593 1.386 . S
C592 C594 1.391 . S
C593 C592 1.386 . S
C593 C597 1.393 . S
C594 H586 0.950 . S
C594 C592 1.391 . S
C594 C595 1.400 . S
C595 C594 1.400 . S
C595 C596 1.398 . S
C595 C601 1.491 . S
C596 H587 0.950 . S
C596 C595 1.398 . S
C596 C597 1.391 . S
C597 H585 0.950 . S
C597 C593 1.393 . S
C597 C596 1.391 . S
C598 H588 0.950 . S
C598 C599 1.386 . S
C598 C600 1.391 . S
C599 C598 1.386 . S
C599 C603 1.393 . S
C600 H589 0.950 . S
C600 C598 1.391 . S
C600 C601 1.400 . S
C601 C595 1.491 . S
C601 C600 1.400 . S
C601 C602 1.398 . S
C602 H590 0.950 . S
C602 C601 1.398 . S
C602 C603 1.391 . S
C603 H591 0.950 . S
C603 C599 1.393 . S
C603 C602 1.391 . S
H604 C612 0.950 . S
H605 C617 0.950 . S
H606 C614 0.950 . S
H607 C616 0.950 . S
H608 C618 0.950 . S
H609 C620 0.950 . S
H610 C622 0.950 . S
H611 C623 0.950 . S
C612 H604 0.950 . S
C612 C613 1.386 . S
C612 C614 1.391 . S
C613 C612 1.386 . S
C613 C617 1.393 . S
C614 H606 0.950 . S
C614 C612 1.391 . S
C614 C615 1.400 . S
C615 C614 1.400 . S
C615 C616 1.398 . S
C615 C621 1.491 . S
C616 H607 0.950 . S
C616 C615 1.398 . S
C616 C617 1.391 . S
C617 H605 0.950 . S
C617 C613 1.393 . S
C617 C616 1.391 . S
C618 H608 0.950 . S
C618 C619 1.386 . S
C618 C620 1.391 . S
C619 C618 1.386 . S
C619 C623 1.393 . S
C620 H609 0.950 . S
C620 C618 1.391 . S
C620 C621 1.400 . S
C621 C615 1.491 . S
C621 C620 1.400 . S
C621 C622 1.398 . S
C622 H610 0.950 . S
C622 C621 1.398 . S
C622 C623 1.391 . S
C623 H611 0.950 . S
C623 C619 1.393 . S
C623 C622 1.391 . S
H624 C632 0.950 . S
H625 C637 0.950 . S
H626 C634 0.950 . S
H627 C636 0.950 . S
H628 C638 0.950 . S
H629 C640 0.950 . S
H630 C642 0.950 . S
H631 C643 0.950 . S
C632 H624 0.950 . S
C632 C633 1.386 . S
C632 C634 1.391 . S
C633 C632 1.386 . S
C633 C637 1.393 . S
C634 H626 0.950 . S
C634 C632 1.391 . S
C634 C635 1.400 . S
C635 C634 1.400 . S
C635 C636 1.398 . S
C635 C641 1.491 . S
C636 H627 0.950 . S
C636 C635 1.398 . S
C636 C637 1.391 . S
C637 H625 0.950 . S
C637 C633 1.393 . S
C637 C636 1.391 . S
C638 H628 0.950 . S
C638 C639 1.386 . S
C638 C640 1.391 . S
C639 C638 1.386 . S
C639 C643 1.393 . S
C640 H629 0.950 . S
C640 C638 1.391 . S
C640 C641 1.400 . S
C641 C635 1.491 . S
C641 C640 1.400 . S
C641 C642 1.398 . S
C642 H630 0.950 . S
C642 C641 1.398 . S
C642 C643 1.391 . S
C643 H631 0.950 . S
C643 C639 1.393 . S
C643 C642 1.391 . S
H644 C652 0.950 . S
H645 C657 0.950 . S
H646 C654 0.950 . S
H647 C656 0.950 . S
H648 C658 0.950 . S
H649 C660 0.950 . S
H650 C662 0.950 . S
H651 C663 0.950 . S
C652 H644 0.950 . S
C652 C653 1.386 . S
C652 C654 1.391 . S
C653 C652 1.386 . S
C653 C657 1.393 . S
C654 H646 0.950 . S
C654 C652 1.391 . S
C654 C655 1.400 . S
C655 C654 1.400 . S
C655 C656 1.398 . S
C655 C661 1.491 . S
C656 H647 0.950 . S
C656 C655 1.398 . S
C656 C657 1.391 . S
C657 H645 0.950 . S
C657 C653 1.393 . S
C657 C656 1.391 . S
C658 H648 0.950 . S
C658 C659 1.386 . S
C658 C660 1.391 . S
C659 C658 1.386 . S
C659 C663 1.393 . S
C660 H649 0.950 . S
C660 C658 1.391 . S
C660 C661 1.400 . S
C661 C655 1.491 . S
C661 C660 1.400 . S
C661 C662 1.398 . S
C662 H650 0.950 . S
C662 C661 1.398 . S
C662 C663 1.391 . S
C663 H651 0.950 . S
C663 C659 1.393 . S
C663 C662 1.391 . S
C273 N71 1.533 . S
C279 N5 1.534 . S
C293 N38 1.533 . S
C299 N104 1.533 . S
C313 N137 1.543 . S
C319 N203 1.543 . S
C333 N170 1.543 . S
C339 N236 1.543 . S
C353 C107 1.600 . S
C359 N14 1.549 . S
C373 C8 1.600 . S
C379 N47 1.548 . S
C393 N80 1.550 . S
C399 C41 1.600 . S
C413 N113 1.529 . S
C419 C74 1.602 . S
C433 C173 1.600 1_545 S
C439 N146 1.529 . S
C453 C206 1.600 1_655 S
C459 N179 1.530 . S
C473 C239 1.602 1_565 S
C479 N212 1.538 . S
C493 C140 1.598 1_455 S
C499 N245 1.549 . S
C513 C28 1.363 . S
C519 C259 1.362 . S
C533 C61 1.362 . S
C539 C160 1.362 . S
C553 C193 1.365 . S
C559 C94 1.365 . S
C573 C226 1.358 . S
C579 C127 1.357 . S
C593 C83 1.455 . S
C599 C182 1.451 . S
C613 C215 1.448 . S
C619 C116 1.457 . S
C633 C248 1.446 . S
C639 C17 1.457 . S
C653 C149 1.446 . S
C659 C50 1.456 . S
