# Generated by pormake.
# Topology sxb, (6)-cn, num edge types: 1
# Building blocks:
#     Node 0, Type 0, BuildingBlock: CUWYAW_clean_sbu_0, # of connection points: 6
#     Node 1, Type 0, BuildingBlock: CUWYAW_clean_sbu_0, # of connection points: 6
#     Node 2, Type 0, BuildingBlock: CUWYAW_clean_sbu_0, # of connection points: 6
#     Node 3, Type 0, BuildingBlock: CUWYAW_clean_sbu_0, # of connection points: 6
#     Edge 4, Type (0, 0), BuildingBlock: KIFKEQ_clean_linker_1, # of connection points: 2
#     Edge 5, Type (0, 0), BuildingBlock: KIFKEQ_clean_linker_1, # of connection points: 2
#     Edge 6, Type (0, 0), BuildingBlock: KIFKEQ_clean_linker_1, # of connection points: 2
#     Edge 7, Type (0, 0), BuildingBlock: KIFKEQ_clean_linker_1, # of connection points: 2
#     Edge 8, Type (0, 0), BuildingBlock: KIFKEQ_clean_linker_1, # of connection points: 2
#     Edge 9, Type (0, 0), BuildingBlock: KIFKEQ_clean_linker_1, # of connection points: 2
#     Edge 10, Type (0, 0), BuildingBlock: KIFKEQ_clean_linker_1, # of connection points: 2
#     Edge 11, Type (0, 0), BuildingBlock: KIFKEQ_clean_linker_1, # of connection points: 2
#     Edge 12, Type (0, 0), BuildingBlock: KIFKEQ_clean_linker_1, # of connection points: 2
#     Edge 13, Type (0, 0), BuildingBlock: KIFKEQ_clean_linker_1, # of connection points: 2
#     Edge 14, Type (0, 0), BuildingBlock: KIFKEQ_clean_linker_1, # of connection points: 2
#     Edge 15, Type (0, 0), BuildingBlock: KIFKEQ_clean_linker_1, # of connection points: 2
# Relax obj value: 0.426
# Max RMSD: 0.113
# Mean RMSD: 0.090
data_MOF--net-sxb--node1-CUWYAW_clean_sbu_0--edge1-KIFKEQ_clean_linker_1
_symmetry_space_group_name_H-M    P1
_symmetry_Int_Tables_number       1
_symmetry_cell_setting            triclinic
loop_
_symmetry_equiv_pos_as_xyz
'x, y, z'
_cell_length_a     16.299436
_cell_length_b     36.225491
_cell_length_c     30.128813
_cell_angle_alpha  97.280069
_cell_angle_beta   93.725664
_cell_angle_gamma 61.68958
loop_
_atom_site_label
_atom_site_type_symbol
_atom_site_fract_x
_atom_site_fract_y
_atom_site_fract_z
_atom_type_partial_charge
C0 C 0.32405 1.07786 0.98405 0.0
Eu1 Eu 0.18632 1.07447 0.01846 0.0
C2 C 0.32612 0.09201 0.94078 0.0
C3 C 0.41106 1.07842 0.91977 0.0
C4 C 0.41271 0.09095 0.87805 0.0
C5 C 0.32921 0.11723 0.85647 0.0
C6 C 0.24393 0.1296 0.87706 0.0
C7 C 0.24248 0.11694 0.91881 0.0
C8 C 0.16031 1.0698 0.10609 0.0
C9 C 0.18191 0.98928 0.02665 0.0
C10 C 0.84712 0.08628 0.03103 0.0
Eu11 Eu 1.00844 1.08241 0.02825 0.0
C12 C 0.77169 0.1096 -0.00038 0.0
C13 C 0.74113 0.15284 0.99718 0.0
C14 C 0.69183 0.1721 0.95975 0.0
C15 C 0.67336 0.1484 0.92386 0.0
C16 C 0.69898 0.10596 0.92739 0.0
C17 C 0.7471 0.08683 0.96502 0.0
C18 C 1.04298 0.08955 0.94226 0.0
C19 C 1.00935 0.16864 0.03084 0.0
O20 O 0.26897 0.10684 0.01429 0.0
O21 O 0.31615 1.04351 0.98109 0.0
O22 O 0.23958 1.05036 0.08556 0.0
O23 O 0.09826 0.09436 0.08097 0.0
O24 O 0.22523 1.00527 0.00656 0.0
O25 O 0.10009 1.01485 0.04527 0.0
O26 O 0.87269 0.10883 0.06033 0.0
O27 O 0.91853 1.05323 0.01196 0.0
O28 O 0.96745 0.11421 0.96394 0.0
O29 O 0.09776 1.06222 0.96677 0.0
O30 O 0.96778 0.1509 0.0491 0.0
O31 O 0.0894 0.14432 0.01013 0.0
H32 H 0.47612 1.05868 0.9359 0.0
H33 H 0.47992 1.08169 0.86379 0.0
H34 H 0.17867 0.14987 0.86145 0.0
H35 H 0.17595 0.12703 0.93413 0.0
H36 H 0.75971 0.17134 0.02294 0.0
H37 H 0.67134 0.20505 0.95808 0.0
H38 H 0.68276 0.08737 0.9007 0.0
H39 H 0.77024 1.05351 0.96577 0.0
C40 C 0.99017 0.19927 0.50331 0.0
Eu41 Eu 1.05268 0.12229 0.52158 0.0
C42 C 1.03209 0.22742 0.51229 0.0
C43 C 1.07482 0.2297 0.55382 0.0
C44 C 0.13185 0.24883 0.55935 0.0
C45 C 0.14831 0.26546 0.52331 0.0
C46 C 0.10107 0.26541 0.48257 0.0
C47 C 1.04318 0.24654 0.47715 0.0
C48 C 1.06303 0.10333 0.60731 0.0
C49 C 0.28389 1.08011 0.52946 0.0
C50 C 0.22705 0.95714 0.54546 0.0
Eu51 Eu 0.15556 1.03489 0.5272 0.0
C52 C 0.1909 0.92872 0.55419 0.0
C53 C 0.23054 0.88776 0.53192 0.0
C54 C 0.18823 0.86242 0.534 0.0
C55 C 0.10641 0.87768 0.55882 0.0
C56 C 1.0699 0.91777 0.58322 0.0
C57 C 0.11148 0.9433 0.58068 0.0
C58 C 0.14626 1.05439 0.44172 0.0
C59 C 0.92571 1.07729 0.5201 0.0
O60 O 1.03564 0.16638 0.47448 0.0
O61 O 0.96375 0.18969 0.53822 0.0
O62 O 0.98838 0.13024 0.5886 0.0
O63 O 0.13052 0.08749 0.58021 0.0
O64 O 0.20396 0.11342 0.52067 0.0
O65 O 0.28267 1.04541 0.5375 0.0
O66 O 0.21097 0.98896 0.57575 0.0
O67 O 0.21331 0.96788 0.50484 0.0
O68 O 0.2209 1.0278 0.46075 0.0
O69 O 1.07833 1.06994 0.46856 0.0
O70 O 1.00361 1.0464 0.53496 0.0
O71 O 0.92985 0.10922 0.50546 0.0
H72 H 1.06811 0.21488 0.58144 0.0
H73 H 0.16572 0.24924 0.59142 0.0
H74 H 0.11281 0.27779 0.45411 0.0
H75 H 1.01153 0.24466 0.44475 0.0
H76 H 0.29171 0.87614 0.51126 0.0
H77 H 0.21734 0.83154 0.51497 0.0
H78 H 1.00605 0.93034 0.60205 0.0
H79 H 1.07915 0.97501 0.59778 0.0
C80 C 0.82206 0.58155 0.99539 0.0
Eu81 Eu 0.68227 0.57577 0.02391 0.0
C82 C 0.84147 0.58344 0.9487 0.0
C83 C 0.82806 0.62167 0.93553 0.0
C84 C 0.83584 0.62538 0.89065 0.0
C85 C 0.85723 0.59091 0.85764 0.0
C86 C 0.87051 0.55262 0.87092 0.0
C87 C 0.86312 0.54886 0.91592 0.0
C88 C 0.64975 0.56939 0.10993 0.0
C89 C 0.68323 0.48924 0.02383 0.0
C90 C 0.35426 0.5779 0.02298 0.0
Eu91 Eu 0.50885 0.58127 0.02774 0.0
C92 C 0.28931 0.59296 0.98498 0.0
C93 C 0.25909 0.6339 0.97311 0.0
C94 C 0.22219 0.64428 0.93057 0.0
C95 C 0.21552 0.61387 0.89896 0.0
C96 C 0.24102 0.57373 0.9116 0.0
C97 C 0.27714 0.56345 0.95421 0.0
C98 C 0.5467 0.59055 0.94348 0.0
C99 C 0.50228 0.66932 0.03673 0.0
O100 O 0.74817 0.61409 0.01303 0.0
O101 O 0.82859 0.54608 0.00479 0.0
O102 O 0.72994 0.54992 0.0905 0.0
O103 O 0.58953 0.59445 0.08468 0.0
O104 O 0.723 0.50701 0.00416 0.0
O105 O 0.60269 0.51372 0.04391 0.0
O106 O 0.36526 0.60641 0.05015 0.0
O107 O 0.43372 0.54498 0.01176 0.0
O108 O 0.47031 0.61413 0.96474 0.0
O109 O 0.60208 0.56298 0.96768 0.0
O110 O 0.45883 0.65024 0.05049 0.0
O111 O 0.5861 0.64626 0.01918 0.0
H112 H 0.81101 0.64888 0.95999 0.0
H113 H 0.82848 0.655 0.88226 0.0
H114 H 0.88723 0.52539 0.8466 0.0
H115 H 0.87267 0.51901 0.92477 0.0
H116 H 0.26877 0.65731 0.99568 0.0
H117 H 0.20169 0.67563 0.9219 0.0
H118 H 0.23355 0.55009 0.88837 0.0
H119 H 0.30075 0.5316 0.96221 0.0
C120 C 0.48629 0.70262 0.50261 0.0
Eu121 Eu 0.5476 0.62657 0.52358 0.0
C122 C 0.52581 0.73166 0.51241 0.0
C123 C 0.56 0.73694 0.55546 0.0
C124 C 0.6162 0.75646 0.56248 0.0
C125 C 0.6403 0.77049 0.52652 0.0
C126 C 0.60098 0.76769 0.48408 0.0
C127 C 0.54391 0.74847 0.47714 0.0
C128 C 0.56078 0.60913 0.60991 0.0
C129 C 0.77886 0.58404 0.5324 0.0
C130 C 0.72231 0.46053 0.54743 0.0
Eu131 Eu 0.65073 0.53859 0.53024 0.0
C132 C 0.68666 0.43113 0.5531 0.0
C133 C 0.72303 0.39219 0.52647 0.0
C134 C 0.68134 0.36632 0.52633 0.0
C135 C 0.6036 0.37889 0.55333 0.0
C136 C 0.5705 0.41674 0.58186 0.0
C137 C 0.61134 0.44288 0.58155 0.0
C138 C 0.63907 0.55851 0.44506 0.0
C139 C 0.42061 0.58147 0.52391 0.0
O140 O 0.53624 0.66893 0.47555 0.0
O141 O 0.45543 0.69407 0.53682 0.0
O142 O 0.48716 0.63762 0.59214 0.0
O143 O 0.62683 0.59176 0.58199 0.0
O144 O 0.69935 0.61711 0.52255 0.0
O145 O 0.77714 0.54968 0.54144 0.0
O146 O 0.70135 0.49232 0.57837 0.0
O147 O 0.7139 0.47156 0.50714 0.0
O148 O 0.71505 0.53267 0.46381 0.0
O149 O 0.5718 0.57339 0.47209 0.0
O150 O 0.49868 0.55044 0.53847 0.0
O151 O 0.42454 0.61336 0.50902 0.0
H152 H 0.54762 0.72403 0.58329 0.0
H153 H 0.64382 0.75904 0.59574 0.0
H154 H 0.61869 0.77802 0.45565 0.0
H155 H 0.51879 0.74434 0.44364 0.0
H156 H 0.78115 0.38267 0.50434 0.0
H157 H 0.7079 0.33716 0.50417 0.0
H158 H 0.50982 0.42721 0.60253 0.0
H159 H 0.58155 0.47293 0.60219 0.0
H160 H 0.31717 0.72602 0.05167 0.0
H161 H 0.58003 0.71977 0.02396 0.0
H162 H 0.23933 0.80224 0.04928 0.0
H163 H 0.50365 0.796 0.02353 0.0
H164 H 0.33401 0.9272 0.9804 0.0
H165 H 0.40844 0.85144 0.98341 0.0
H166 H 0.20952 0.86903 0.08267 0.0
H167 H 0.1326 0.94499 0.07798 0.0
C168 C 0.35874 0.74096 0.04566 0.0
C169 C 0.45514 0.71645 0.03794 0.0
C170 C 0.31399 0.78498 0.04449 0.0
C171 C 0.36428 0.8061 0.03598 0.0
C172 C 0.46124 0.78141 0.02915 0.0
C173 C 0.50565 0.7374 0.0298 0.0
C174 C 0.30586 0.915 0.00287 0.0
C175 C 0.22694 0.94256 0.02892 0.0
C176 C 0.34932 0.87122 0.00494 0.0
C177 C 0.31628 0.85328 0.03358 0.0
C178 C 0.23699 0.88101 0.05965 0.0
C179 C 0.19284 0.92488 0.05719 0.0
H180 H 0.60881 0.43967 0.0453 0.0
H181 H 0.86557 0.43217 0.0047 0.0
H182 H 0.68579 0.36335 0.04621 0.0
H183 H 0.94436 0.35629 0.00788 0.0
H184 H 1.04985 0.21483 0.97871 0.0
H185 H 0.9707 0.29083 0.97598 0.0
H186 H 0.78609 0.30548 0.08127 0.0
H187 H 0.86253 0.22921 0.082 0.0
C188 C 0.68205 0.42176 0.03692 0.0
C189 C 0.73055 0.44233 0.02475 0.0
C190 C 0.7269 0.37771 0.03778 0.0
C191 C 0.82237 0.35268 0.0272 0.0
C192 C 0.87071 0.37362 0.01537 0.0
C193 C 0.82546 0.41754 0.01384 0.0
C194 C 0.99244 0.23429 0.00136 0.0
C195 C 0.96299 0.21561 0.03064 0.0
C196 C 0.94694 0.27826 5e-05 0.0
C197 C 0.87109 0.30529 0.02847 0.0
C198 C 0.84251 0.28635 0.05808 0.0
C199 C 0.88716 0.24232 0.05887 0.0
H200 H 0.31842 0.22856 0.56401 0.0
H201 H 0.1402 0.33437 0.491 0.0
H202 H 0.43673 0.25208 0.57079 0.0
H203 H 0.26033 0.35693 0.49665 0.0
H204 H 0.53805 0.35534 0.47612 0.0
H205 H 0.43158 0.3249 0.46784 0.0
H206 H 0.44064 0.32024 0.61069 0.0
H207 H 0.54684 0.35105 0.61903 0.0
C208 C 0.30412 0.25704 0.54979 0.0
C209 C 0.21955 0.27996 0.52739 0.0
C210 C 0.37209 0.27021 0.55342 0.0
C211 C 0.35722 0.30612 0.53415 0.0
C212 C 0.27344 0.3288 0.51131 0.0
C213 C 0.20493 0.31592 0.5081 0.0
C214 C 0.51867 0.34698 0.50557 0.0
C215 C 0.5503 0.35533 0.54819 0.0
C216 C 0.45736 0.33001 0.50088 0.0
C217 C 0.42795 0.32064 0.53868 0.0
C218 C 0.46287 0.32717 0.5811 0.0
C219 C 0.52311 0.34478 0.58588 0.0
H220 H 1.0363 0.85746 0.62617 0.0
H221 H 1.05189 0.84761 0.48226 0.0
H222 H 0.92682 0.82838 0.61845 0.0
H223 H 0.94215 0.81898 0.47461 0.0
H224 H 0.64227 0.83592 0.49099 0.0
H225 H 0.76526 0.85672 0.49835 0.0
H226 H 0.92273 0.75819 0.58319 0.0
H227 H 0.80182 0.73622 0.57471 0.0
C228 C 1.01733 0.8484 0.59302 0.0
C229 C 1.05221 0.85454 0.5548 0.0
C230 C 0.95516 0.83181 0.58861 0.0
C231 C 0.92602 0.82195 0.54597 0.0
C232 C 0.96339 0.82673 0.50779 0.0
C233 C 1.02659 0.84265 0.51218 0.0
C234 C 0.70339 0.81851 0.51091 0.0
C235 C 0.71206 0.78467 0.53251 0.0
C236 C 0.77353 0.83038 0.5151 0.0
C237 C 0.85294 0.80888 0.54125 0.0
C238 C 0.86152 0.77536 0.56318 0.0
C239 C 0.79199 0.76312 0.55857 0.0
H240 H 0.43991 1.0806 0.78158 0.0
H241 H 0.22724 0.20046 0.84047 0.0
H242 H 0.51421 0.11594 0.75173 0.0
H243 H 0.30008 0.23582 0.80853 0.0
H244 H 0.72289 0.1204 0.83617 0.0
H245 H 0.61657 0.13815 0.77267 0.0
H246 H 0.40381 0.23879 0.85835 0.0
H247 H 0.51132 0.22161 0.92033 0.0
C248 C 0.40695 0.11474 0.7867 0.0
C249 C 0.33416 0.13736 0.81752 0.0
C250 C 0.44975 0.13542 0.76968 0.0
C251 C 0.42343 0.17769 0.78663 0.0
C252 C 0.3305 0.20189 0.8014 0.0
C253 C 0.28769 0.18161 0.81943 0.0
C254 C 0.65371 0.14697 0.84076 0.0
C255 C 0.62266 0.16786 0.88359 0.0
C256 C 0.59218 0.15724 0.80436 0.0
C257 C 0.4971 0.18645 0.81117 0.0
C258 C 0.4737 0.21362 0.85173 0.0
C259 C 0.53563 0.20386 0.8879 0.0
H260 H 0.46203 1.01376 0.53361 0.0
H261 H 0.32004 0.14758 0.52425 0.0
H262 H 0.61167 1.01282 0.53075 0.0
H263 H 0.47028 0.1473 0.52326 0.0
H264 H 0.75452 0.13263 0.48627 0.0
H265 H 0.60419 0.13376 0.48856 0.0
H266 H 0.73044 1.0241 0.56107 0.0
H267 H 0.88141 1.02229 0.55704 0.0
C268 C 0.46228 1.04332 0.53142 0.0
C269 C 0.37701 1.08074 0.52918 0.0
C270 C 0.54948 1.04287 0.53007 0.0
C271 C 0.55645 1.07994 0.52682 0.0
C272 C 0.47063 0.11758 0.52495 0.0
C273 C 0.38314 0.11792 0.52589 0.0
C274 C 0.75072 0.10851 0.50257 0.0
C275 C 0.83212 1.07721 0.52121 0.0
C276 C 0.66305 0.10936 0.5043 0.0
C277 C 0.65181 1.0791 0.52509 0.0
C278 C 0.73373 1.04781 0.54388 0.0
C279 C 0.82161 1.04681 0.54184 0.0
H280 H 0.77505 0.65751 0.80542 0.0
H281 H 0.99498 0.52901 0.80258 0.0
H282 H 0.86964 0.67331 0.75959 0.0
H283 H 1.08614 0.54466 0.75654 0.0
H284 H 1.05806 0.68387 0.87841 0.0
H285 H 0.96116 0.68683 0.814 0.0
H286 H 0.18485 0.57177 0.75136 0.0
H287 H 0.28167 0.56866 0.81736 0.0
C288 C 0.84197 0.63221 0.79375 0.0
C289 C 0.88209 0.59332 0.81181 0.0
C290 C 0.89609 0.64111 0.76698 0.0
C291 C 0.99157 0.61224 0.76192 0.0
C292 C 1.01689 0.56962 0.76519 0.0
C293 C 0.96394 0.56034 0.79202 0.0
C294 C 1.08786 0.65999 0.85024 0.0
C295 C 0.17454 0.6244 0.85408 0.0
C296 C 1.03214 0.66159 0.81262 0.0
C297 C 1.06134 0.62665 0.77936 0.0
C298 C 0.15701 0.59728 0.77814 0.0
C299 C 0.21256 0.59529 0.81608 0.0
H300 H 0.37625 0.5266 0.56117 0.0
H301 H 0.24959 0.63653 0.48974 0.0
H302 H 0.22533 0.52831 0.56506 0.0
H303 H 0.09945 0.63752 0.49182 0.0
H304 H 0.81514 0.65133 0.52659 0.0
H305 H 0.96529 0.65111 0.52595 0.0
H306 H 0.10669 0.51687 0.53505 0.0
H307 H 0.95698 0.5178 0.53764 0.0
C308 C 0.31651 0.55102 0.54581 0.0
C309 C 0.32707 0.58135 0.52507 0.0
C310 C 0.22867 0.55196 0.54776 0.0
C311 C 0.14685 0.58308 0.52872 0.0
C312 C 0.15817 0.61325 0.50779 0.0
C313 C 0.24576 0.61249 0.50618 0.0
C314 C 0.87822 0.62173 0.52866 0.0
C315 C 0.87205 0.58462 0.53232 0.0
C316 C 0.96569 0.62142 0.52792 0.0
C317 C 1.0515 0.58387 0.53032 0.0
C318 C 1.04451 0.54686 0.53395 0.0
C319 C 0.95728 0.5473 0.53514 0.0
H320 H 0.27314 1.00257 0.37858 0.0
H321 H 1.00708 0.11464 0.39341 0.0
H322 H 0.27043 1.00718 0.29908 0.0
H323 H 1.00613 0.12106 0.31311 0.0
H324 H 1.00153 0.09999 0.15711 0.0
H325 H 0.99248 0.09733 0.23762 0.0
H326 H 0.29267 1.04168 0.24695 0.0
H327 H 0.30101 1.04222 0.16712 0.0
C328 C 0.21411 1.02862 0.36484 0.0
C329 C 0.14057 1.05832 0.39264 0.0
C330 C 0.21288 1.0316 0.31889 0.0
C331 C 0.13895 1.06504 0.29887 0.0
C332 C 1.06428 0.09464 0.32672 0.0
C333 C 1.06487 0.09117 0.37296 0.0
C334 C 1.06533 0.08719 0.17659 0.0
C335 C 0.15202 1.07101 0.15547 0.0
C336 C 1.0603 1.08582 0.22295 0.0
C337 C 0.14188 1.06865 0.24953 0.0
C338 C 0.22805 1.05386 0.22812 0.0
C339 C 0.233 1.05455 0.18201 0.0
H340 H 0.18301 1.03155 0.88465 0.0
H341 H 0.93092 0.15045 0.89018 0.0
H342 H 0.19402 1.03292 0.80395 0.0
H343 H 0.94315 0.15286 0.81086 0.0
H344 H 0.91816 0.12716 0.66266 0.0
H345 H 0.91959 0.12212 0.74219 0.0
H346 H 0.22043 1.06345 0.74331 0.0
H347 H 0.21842 1.06708 0.6622 0.0
C348 C 0.13029 1.05807 0.86869 0.0
C349 C 1.05517 0.09052 0.89377 0.0
C350 C 0.13683 1.05906 0.8224 0.0
C351 C 1.06852 0.09263 0.80008 0.0
C352 C 0.99571 0.12573 0.82599 0.0
C353 C 0.98892 0.12455 0.87185 0.0
C354 C 0.98485 0.11305 0.67972 0.0
C355 C 1.06808 0.09783 0.65594 0.0
C356 C 0.98576 0.11046 0.72574 0.0
C357 C 1.07006 0.09307 0.75007 0.0
C358 C 0.15397 1.07691 0.72605 0.0
C359 C 0.15297 1.07911 0.6795 0.0
H360 H 0.78215 0.53872 0.39013 0.0
H361 H 0.48284 0.59226 0.39074 0.0
H362 H 0.77871 0.54405 0.31054 0.0
H363 H 0.47898 0.59605 0.30969 0.0
H364 H 0.76788 0.51145 0.16316 0.0
H365 H 0.75866 0.51063 0.24303 0.0
H366 H 0.49955 0.62711 0.24814 0.0
H367 H 0.5075 0.62669 0.16688 0.0
C368 C 0.71532 0.55148 0.37307 0.0
C369 C 0.63292 0.56466 0.39676 0.0
C370 C 0.71327 0.55423 0.32709 0.0
C371 C 0.62873 0.56963 0.30287 0.0
C372 C 0.54554 0.58408 0.32691 0.0
C373 C 0.54761 0.58178 0.37339 0.0
C374 C 0.70873 0.5369 0.18124 0.0
C375 C 0.63901 0.56934 0.15866 0.0
C376 C 0.70367 0.53667 0.22737 0.0
C377 C 0.6293 0.56929 0.25283 0.0
C378 C 0.55788 0.60135 0.22995 0.0
C379 C 0.56251 0.60127 0.18335 0.0
H380 H 0.68386 0.54191 0.65499 0.0
H381 H 0.4577 0.66859 0.67585 0.0
H382 H 0.68459 0.5352 0.73493 0.0
H383 H 0.46263 0.66367 0.75538 0.0
H384 H 0.40969 0.63516 0.88645 0.0
H385 H 0.41842 0.63726 0.80721 0.0
H386 H 0.71336 0.54978 0.8097 0.0
H387 H 0.70112 0.54501 0.88935 0.0
C388 C 0.6352 0.5685 0.67676 0.0
C389 C 0.56964 0.60548 0.65889 0.0
C390 C 0.63586 0.56487 0.72285 0.0
C391 C 0.57219 0.59854 0.75236 0.0
C392 C 0.51032 0.63621 0.73422 0.0
C393 C 0.50808 0.63933 0.68832 0.0
C394 C 0.47659 0.61628 0.87019 0.0
C395 C 0.55539 0.59057 0.89456 0.0
C396 C 0.48209 0.61785 0.82441 0.0
C397 C 0.56736 0.59467 0.80134 0.0
C398 C 0.64625 0.56824 0.82574 0.0
C399 C 0.63991 0.56585 0.87165 0.0
loop_
_geom_bond_atom_site_label_1
_geom_bond_atom_site_label_2
_geom_bond_distance
_geom_bond_site_symmetry_2
_ccdc_geom_bond_type
C0 Eu1 2.833 1_565 S
C0 C2 1.502 . S
C0 O20 1.262 1_554 S
C0 O21 1.255 1_565 S
Eu1 C0 2.833 1_545 S
Eu1 O20 2.473 1_544 S
Eu1 O21 2.480 . S
Eu1 O22 2.430 . S
Eu1 O23 2.670 1_455 S
Eu1 O24 2.394 1_545 S
Eu1 O29 2.355 1_544 S
Eu1 O31 2.374 1_455 S
C2 C0 1.502 . S
C2 C3 1.377 . S
C2 C7 1.377 1_554 S
C3 C2 1.377 . S
C3 C4 1.395 . S
C3 H32 0.931 . S
C4 C3 1.395 . S
C4 C5 1.383 1_554 S
C4 H33 0.931 . S
C5 C4 1.383 1_556 S
C5 C6 1.394 . S
C6 C5 1.394 . S
C6 C7 1.378 . S
C6 H34 0.931 . S
C7 C2 1.377 1_556 S
C7 C6 1.378 . S
C7 H35 0.931 . S
C8 O22 1.259 . S
C8 O23 1.270 1_455 S
C9 O24 1.251 . S
C9 O25 1.251 1_554 S
C10 Eu11 2.835 1_545 S
C10 C12 1.500 . S
C10 O26 1.257 1_556 S
C10 O27 1.260 1_545 S
Eu11 C10 2.835 1_565 S
Eu11 O23 2.355 1_566 S
Eu11 O25 2.374 1_655 S
Eu11 O26 2.473 1_566 S
Eu11 O27 2.480 . S
Eu11 O28 2.430 . S
Eu11 O29 2.670 1_655 S
Eu11 O30 2.394 1_565 S
C12 C10 1.500 . S
C12 C13 1.377 . S
C12 C17 1.377 1_556 S
C13 C12 1.377 . S
C13 C14 1.395 . S
C13 H36 0.931 . S
C14 C13 1.395 . S
C14 C15 1.383 1_556 S
C14 H37 0.931 . S
C15 C14 1.383 1_554 S
C15 C16 1.394 . S
C16 C15 1.394 . S
C16 C17 1.378 . S
C16 H38 0.931 . S
C17 C12 1.377 1_554 S
C17 C16 1.378 . S
C17 H39 0.931 . S
C18 O28 1.259 . S
C18 O29 1.270 1_655 S
C19 O30 1.251 . S
C19 O31 1.251 1_556 S
O20 C0 1.262 1_556 S
O20 Eu1 2.473 1_566 S
O21 C0 1.255 1_545 S
O21 Eu1 2.480 . S
O22 Eu1 2.430 . S
O22 C8 1.259 . S
O23 Eu1 2.670 1_655 S
O23 C8 1.270 1_655 S
O23 Eu11 2.355 1_544 S
O24 Eu1 2.394 1_565 S
O24 C9 1.251 . S
O25 C9 1.251 1_556 S
O25 Eu11 2.374 1_455 S
O26 C10 1.257 1_554 S
O26 Eu11 2.473 1_544 S
O27 C10 1.260 1_565 S
O27 Eu11 2.480 . S
O28 Eu11 2.430 . S
O28 C18 1.259 . S
O29 Eu1 2.355 1_566 S
O29 Eu11 2.670 1_455 S
O29 C18 1.270 1_455 S
O30 Eu11 2.394 1_545 S
O30 C19 1.251 . S
O31 Eu1 2.374 1_655 S
O31 C19 1.251 1_554 S
H32 C3 0.931 . S
H33 C4 0.931 . S
H34 C6 0.931 . S
H35 C7 0.931 . S
H36 C13 0.931 . S
H37 C14 0.931 . S
H38 C16 0.931 . S
H39 C17 0.931 . S
C40 Eu41 2.835 1_455 S
C40 C42 1.500 . S
C40 O60 1.257 . S
C40 O61 1.260 . S
Eu41 C40 2.835 1_655 S
Eu41 O60 2.473 1_655 S
Eu41 O61 2.480 1_655 S
Eu41 O62 2.430 . S
Eu41 O63 2.670 1_545 S
Eu41 O64 2.394 1_655 S
Eu41 O69 2.355 1_655 S
Eu41 O71 2.374 . S
C42 C40 1.500 . S
C42 C43 1.377 . S
C42 C47 1.377 . S
C43 C42 1.377 . S
C43 C44 1.395 . S
C43 H72 0.931 . S
C44 C43 1.395 . S
C44 C45 1.383 . S
C44 H73 0.931 . S
C45 C44 1.383 . S
C45 C46 1.394 . S
C46 C45 1.394 . S
C46 C47 1.378 . S
C46 H74 0.931 . S
C47 C42 1.377 . S
C47 C46 1.378 . S
C47 H75 0.931 . S
C48 O62 1.260 1_455 S
C48 O63 1.269 1_445 S
C49 O64 1.251 1_565 S
C49 O65 1.251 . S
C50 Eu51 2.835 1_655 S
C50 C52 1.500 . S
C50 O66 1.257 . S
C50 O67 1.260 . S
Eu51 C50 2.835 1_455 S
Eu51 O63 2.355 1_455 S
Eu51 O65 2.374 . S
Eu51 O66 2.473 1_455 S
Eu51 O67 2.480 1_455 S
Eu51 O68 2.430 . S
Eu51 O69 2.670 1_565 S
Eu51 O70 2.394 1_455 S
C52 C50 1.500 . S
C52 C53 1.377 . S
C52 C57 1.377 . S
C53 C52 1.377 . S
C53 C54 1.395 . S
C53 H76 0.931 . S
C54 C53 1.395 . S
C54 C55 1.383 . S
C54 H77 0.931 . S
C55 C54 1.383 . S
C55 C56 1.394 . S
C56 C55 1.394 . S
C56 C57 1.378 . S
C56 H78 0.931 . S
C57 C52 1.377 . S
C57 C56 1.378 . S
C57 H79 0.931 . S
C58 O68 1.257 . S
C58 O69 1.272 1_565 S
C59 O70 1.251 1_545 S
C59 O71 1.251 . S
O60 C40 1.257 . S
O60 Eu41 2.473 1_455 S
O61 C40 1.260 . S
O61 Eu41 2.480 1_455 S
O62 Eu41 2.430 . S
O62 C48 1.260 1_655 S
O63 Eu41 2.670 1_565 S
O63 C48 1.269 1_665 S
O63 Eu51 2.355 1_655 S
O64 Eu41 2.394 1_455 S
O64 C49 1.251 1_545 S
O65 C49 1.251 . S
O65 Eu51 2.374 . S
O66 C50 1.257 . S
O66 Eu51 2.473 1_655 S
O67 C50 1.260 . S
O67 Eu51 2.480 1_655 S
O68 Eu51 2.430 . S
O68 C58 1.257 . S
O69 Eu41 2.355 1_455 S
O69 Eu51 2.670 1_545 S
O69 C58 1.272 1_545 S
O70 Eu51 2.394 1_655 S
O70 C59 1.251 1_565 S
O71 Eu41 2.374 . S
O71 C59 1.251 . S
H72 C43 0.931 . S
H73 C44 0.931 . S
H74 C46 0.931 . S
H75 C47 0.931 . S
H76 C53 0.931 . S
H77 C54 0.931 . S
H78 C56 0.931 . S
H79 C57 0.931 . S
C80 Eu81 2.835 . S
C80 C82 1.500 . S
C80 O100 1.257 1_554 S
C80 O101 1.260 . S
Eu81 C80 2.835 . S
Eu81 O100 2.473 1_554 S
Eu81 O101 2.480 . S
Eu81 O102 2.430 . S
Eu81 O103 2.670 . S
Eu81 O104 2.394 . S
Eu81 O109 2.355 1_554 S
Eu81 O111 2.374 . S
C82 C80 1.500 . S
C82 C83 1.377 . S
C82 C87 1.377 1_554 S
C83 C82 1.377 . S
C83 C84 1.395 . S
C83 H112 0.931 . S
C84 C83 1.395 . S
C84 C85 1.383 1_554 S
C84 H113 0.931 . S
C85 C84 1.383 1_556 S
C85 C86 1.394 . S
C86 C85 1.394 . S
C86 C87 1.378 . S
C86 H114 0.931 . S
C87 C82 1.377 1_556 S
C87 C86 1.378 . S
C87 H115 0.931 . S
C88 O102 1.259 . S
C88 O103 1.270 . S
C89 O104 1.251 . S
C89 O105 1.251 1_554 S
C90 Eu91 2.835 . S
C90 C92 1.500 . S
C90 O106 1.257 1_556 S
C90 O107 1.260 . S
Eu91 C90 2.835 . S
Eu91 O103 2.355 1_556 S
Eu91 O105 2.374 . S
Eu91 O106 2.473 1_556 S
Eu91 O107 2.480 . S
Eu91 O108 2.430 . S
Eu91 O109 2.670 . S
Eu91 O110 2.394 . S
C92 C90 1.500 . S
C92 C93 1.377 . S
C92 C97 1.377 1_556 S
C93 C92 1.377 . S
C93 C94 1.395 . S
C93 H116 0.931 . S
C94 C93 1.395 . S
C94 C95 1.383 1_556 S
C94 H117 0.931 . S
C95 C94 1.383 1_554 S
C95 C96 1.394 . S
C96 C95 1.394 . S
C96 C97 1.378 . S
C96 H118 0.931 . S
C97 C92 1.377 1_554 S
C97 C96 1.378 . S
C97 H119 0.931 . S
C98 O108 1.259 . S
C98 O109 1.270 . S
C99 O110 1.251 . S
C99 O111 1.251 1_556 S
O100 C80 1.257 1_556 S
O100 Eu81 2.473 1_556 S
O101 C80 1.260 . S
O101 Eu81 2.480 . S
O102 Eu81 2.430 . S
O102 C88 1.259 . S
O103 Eu81 2.670 . S
O103 C88 1.270 . S
O103 Eu91 2.355 1_554 S
O104 Eu81 2.394 . S
O104 C89 1.251 . S
O105 C89 1.251 1_556 S
O105 Eu91 2.374 . S
O106 C90 1.257 1_554 S
O106 Eu91 2.473 1_554 S
O107 C90 1.260 . S
O107 Eu91 2.480 . S
O108 Eu91 2.430 . S
O108 C98 1.259 . S
O109 Eu81 2.355 1_556 S
O109 Eu91 2.670 . S
O109 C98 1.270 . S
O110 Eu91 2.394 . S
O110 C99 1.251 . S
O111 Eu81 2.374 . S
O111 C99 1.251 1_554 S
H112 C83 0.931 . S
H113 C84 0.931 . S
H114 C86 0.931 . S
H115 C87 0.931 . S
H116 C93 0.931 . S
H117 C94 0.931 . S
H118 C96 0.931 . S
H119 C97 0.931 . S
C120 Eu121 2.835 . S
C120 C122 1.500 . S
C120 O140 1.257 . S
C120 O141 1.260 . S
Eu121 C120 2.835 . S
Eu121 O140 2.473 . S
Eu121 O141 2.480 . S
Eu121 O142 2.430 . S
Eu121 O143 2.670 . S
Eu121 O144 2.394 . S
Eu121 O149 2.355 . S
Eu121 O151 2.374 . S
C122 C120 1.500 . S
C122 C123 1.377 . S
C122 C127 1.377 . S
C123 C122 1.377 . S
C123 C124 1.395 . S
C123 H152 0.931 . S
C124 C123 1.395 . S
C124 C125 1.383 . S
C124 H153 0.931 . S
C125 C124 1.383 . S
C125 C126 1.394 . S
C126 C125 1.394 . S
C126 C127 1.378 . S
C126 H154 0.931 . S
C127 C122 1.377 . S
C127 C126 1.378 . S
C127 H155 0.931 . S
C128 O142 1.259 . S
C128 O143 1.270 . S
C129 O144 1.251 . S
C129 O145 1.251 . S
C130 Eu131 2.835 . S
C130 C132 1.500 . S
C130 O146 1.257 . S
C130 O147 1.260 . S
Eu131 C130 2.835 . S
Eu131 O143 2.355 . S
Eu131 O145 2.374 . S
Eu131 O146 2.473 . S
Eu131 O147 2.480 . S
Eu131 O148 2.430 . S
Eu131 O149 2.670 . S
Eu131 O150 2.394 . S
C132 C130 1.500 . S
C132 C133 1.377 . S
C132 C137 1.377 . S
C133 C132 1.377 . S
C133 C134 1.395 . S
C133 H156 0.931 . S
C134 C133 1.395 . S
C134 C135 1.383 . S
C134 H157 0.931 . S
C135 C134 1.383 . S
C135 C136 1.394 . S
C136 C135 1.394 . S
C136 C137 1.378 . S
C136 H158 0.931 . S
C137 C132 1.377 . S
C137 C136 1.378 . S
C137 H159 0.931 . S
C138 O148 1.259 . S
C138 O149 1.270 . S
C139 O150 1.251 . S
C139 O151 1.251 . S
O140 C120 1.257 . S
O140 Eu121 2.473 . S
O141 C120 1.260 . S
O141 Eu121 2.480 . S
O142 Eu121 2.430 . S
O142 C128 1.259 . S
O143 Eu121 2.670 . S
O143 C128 1.270 . S
O143 Eu131 2.355 . S
O144 Eu121 2.394 . S
O144 C129 1.251 . S
O145 C129 1.251 . S
O145 Eu131 2.374 . S
O146 C130 1.257 . S
O146 Eu131 2.473 . S
O147 C130 1.260 . S
O147 Eu131 2.480 . S
O148 Eu131 2.430 . S
O148 C138 1.259 . S
O149 Eu121 2.355 . S
O149 Eu131 2.670 . S
O149 C138 1.270 . S
O150 Eu131 2.394 . S
O150 C139 1.251 . S
O151 Eu121 2.374 . S
O151 C139 1.251 . S
H152 C123 0.931 . S
H153 C124 0.931 . S
H154 C126 0.931 . S
H155 C127 0.931 . S
H156 C133 0.931 . S
H157 C134 0.931 . S
H158 C136 0.931 . S
H159 C137 0.931 . S
H160 C168 0.950 . S
H161 C173 0.950 . S
H162 C170 0.950 . S
H163 C172 0.950 . S
H164 C174 0.950 . S
H165 C176 0.950 . S
H166 C178 0.950 . S
H167 C179 0.950 . S
C168 H160 0.950 . S
C168 C169 1.372 1_556 S
C168 C170 1.391 . S
C169 C168 1.372 1_554 S
C169 C173 1.406 . S
C170 H162 0.950 . S
C170 C168 1.391 . S
C170 C171 1.394 1_556 S
C171 C170 1.394 1_554 S
C171 C172 1.405 . S
C171 C177 1.490 1_554 S
C172 H163 0.950 . S
C172 C171 1.405 . S
C172 C173 1.391 . S
C173 H161 0.950 . S
C173 C169 1.406 . S
C173 C172 1.391 . S
C174 H164 0.950 . S
C174 C175 1.378 1_554 S
C174 C176 1.391 . S
C175 C174 1.378 1_556 S
C175 C179 1.400 . S
C176 H165 0.950 . S
C176 C174 1.391 . S
C176 C177 1.400 1_554 S
C177 C171 1.490 1_556 S
C177 C176 1.400 1_556 S
C177 C178 1.399 . S
C178 H166 0.950 . S
C178 C177 1.399 . S
C178 C179 1.391 . S
C179 H167 0.950 . S
C179 C175 1.400 . S
C179 C178 1.391 . S
H180 C188 0.950 . S
H181 C193 0.950 . S
H182 C190 0.950 . S
H183 C192 0.950 . S
H184 C194 0.950 . S
H185 C196 0.950 . S
H186 C198 0.950 . S
H187 C199 0.950 . S
C188 H180 0.950 . S
C188 C189 1.399 . S
C188 C190 1.391 . S
C189 C188 1.399 . S
C189 C193 1.379 1_556 S
C190 H182 0.950 . S
C190 C188 1.391 . S
C190 C191 1.406 . S
C191 C190 1.406 . S
C191 C192 1.393 1_556 S
C191 C197 1.488 1_556 S
C192 H183 0.950 . S
C192 C191 1.393 1_554 S
C192 C193 1.391 . S
C193 H181 0.950 . S
C193 C189 1.379 1_554 S
C193 C192 1.391 . S
C194 H184 0.950 . S
C194 C195 1.386 . S
C194 C196 1.391 . S
C195 C194 1.386 . S
C195 C199 1.393 1_554 S
C196 H185 0.950 . S
C196 C194 1.391 . S
C196 C197 1.410 . S
C197 C191 1.488 1_554 S
C197 C196 1.410 . S
C197 C198 1.390 1_554 S
C198 H186 0.950 . S
C198 C197 1.390 1_556 S
C198 C199 1.391 . S
C199 H187 0.950 . S
C199 C195 1.393 1_556 S
C199 C198 1.391 . S
H200 C208 0.950 . S
H201 C213 0.950 . S
H202 C210 0.950 . S
H203 C212 0.950 . S
H204 C214 0.950 . S
H205 C216 0.950 . S
H206 C218 0.950 . S
H207 C219 0.950 . S
C208 H200 0.950 . S
C208 C209 1.386 . S
C208 C210 1.391 . S
C209 C208 1.386 . S
C209 C213 1.393 . S
C210 H202 0.950 . S
C210 C208 1.391 . S
C210 C211 1.400 . S
C211 C210 1.400 . S
C211 C212 1.398 . S
C211 C217 1.491 . S
C212 H203 0.950 . S
C212 C211 1.398 . S
C212 C213 1.391 . S
C213 H201 0.950 . S
C213 C209 1.393 . S
C213 C212 1.391 . S
C214 H204 0.950 . S
C214 C215 1.386 . S
C214 C216 1.391 . S
C215 C214 1.386 . S
C215 C219 1.393 . S
C216 H205 0.950 . S
C216 C214 1.391 . S
C216 C217 1.400 . S
C217 C211 1.491 . S
C217 C216 1.400 . S
C217 C218 1.398 . S
C218 H206 0.950 . S
C218 C217 1.398 . S
C218 C219 1.391 . S
C219 H207 0.950 . S
C219 C215 1.393 . S
C219 C218 1.391 . S
H220 C228 0.950 . S
H221 C233 0.950 . S
H222 C230 0.950 . S
H223 C232 0.950 . S
H224 C234 0.950 . S
H225 C236 0.950 . S
H226 C238 0.950 . S
H227 C239 0.950 . S
C228 H220 0.950 . S
C228 C229 1.386 . S
C228 C230 1.391 . S
C229 C228 1.386 . S
C229 C233 1.393 . S
C230 H222 0.950 . S
C230 C228 1.391 . S
C230 C231 1.400 . S
C231 C230 1.400 . S
C231 C232 1.398 . S
C231 C237 1.491 . S
C232 H223 0.950 . S
C232 C231 1.398 . S
C232 C233 1.391 . S
C233 H221 0.950 . S
C233 C229 1.393 . S
C233 C232 1.391 . S
C234 H224 0.950 . S
C234 C235 1.386 . S
C234 C236 1.391 . S
C235 C234 1.386 . S
C235 C239 1.393 . S
C236 H225 0.950 . S
C236 C234 1.391 . S
C236 C237 1.400 . S
C237 C231 1.491 . S
C237 C236 1.400 . S
C237 C238 1.398 . S
C238 H226 0.950 . S
C238 C237 1.398 . S
C238 C239 1.391 . S
C239 H227 0.950 . S
C239 C235 1.393 . S
C239 C238 1.391 . S
H240 C248 0.950 . S
H241 C253 0.950 1_554 S
H242 C250 0.950 . S
H243 C252 0.950 . S
H244 C254 0.950 . S
H245 C256 0.950 . S
H246 C258 0.950 . S
H247 C259 0.950 1_556 S
C248 H240 0.950 . S
C248 C249 1.386 . S
C248 C250 1.391 . S
C249 C248 1.386 . S
C249 C253 1.393 . S
C250 H242 0.950 . S
C250 C248 1.391 . S
C250 C251 1.400 . S
C251 C250 1.400 . S
C251 C252 1.398 1_566 S
C251 C257 1.491 1_566 S
C252 H243 0.950 . S
C252 C251 1.398 1_544 S
C252 C253 1.391 1_544 S
C253 H241 0.950 1_556 S
C253 C249 1.393 . S
C253 C252 1.391 1_566 S
C254 H244 0.950 . S
C254 C255 1.386 . S
C254 C256 1.391 . S
C255 C254 1.386 . S
C255 C259 1.393 . S
C256 H245 0.950 . S
C256 C254 1.391 . S
C256 C257 1.400 . S
C257 C251 1.491 1_544 S
C257 C256 1.400 . S
C257 C258 1.398 1_544 S
C258 H246 0.950 . S
C258 C257 1.398 1_566 S
C258 C259 1.391 1_566 S
C259 H247 0.950 1_554 S
C259 C255 1.393 . S
C259 C258 1.391 1_544 S
H260 C268 0.950 . S
H261 C273 0.950 . S
H262 C270 0.950 . S
H263 C272 0.950 . S
H264 C274 0.950 . S
H265 C276 0.950 . S
H266 C278 0.950 . S
H267 C279 0.950 . S
C268 H260 0.950 . S
C268 C269 1.386 . S
C268 C270 1.391 . S
C269 C268 1.386 . S
C269 C273 1.393 . S
C270 H262 0.950 . S
C270 C268 1.391 . S
C270 C271 1.403 . S
C271 C270 1.403 . S
C271 C272 1.400 . S
C271 C277 1.487 1_565 S
C272 H263 0.950 . S
C272 C271 1.400 . S
C272 C273 1.391 . S
C273 H261 0.950 . S
C273 C269 1.393 . S
C273 C272 1.391 . S
C274 H264 0.950 . S
C274 C275 1.386 . S
C274 C276 1.391 . S
C275 C274 1.386 . S
C275 C279 1.393 . S
C276 H265 0.950 . S
C276 C274 1.391 . S
C276 C277 1.400 . S
C277 C271 1.487 1_545 S
C277 C276 1.400 . S
C277 C278 1.398 . S
C278 H266 0.950 . S
C278 C277 1.398 . S
C278 C279 1.391 . S
C279 H267 0.950 . S
C279 C275 1.393 . S
C279 C278 1.391 . S
H280 C288 0.950 . S
H281 C293 0.950 . S
H282 C290 0.950 . S
H283 C292 0.950 1_455 S
H284 C294 0.950 . S
H285 C296 0.950 . S
H286 C298 0.950 1_655 S
H287 C299 0.950 . S
C288 H280 0.950 . S
C288 C289 1.386 . S
C288 C290 1.391 . S
C289 C288 1.386 . S
C289 C293 1.393 1_556 S
C290 H282 0.950 . S
C290 C288 1.391 . S
C290 C291 1.400 . S
C291 C290 1.400 . S
C291 C292 1.398 1_556 S
C291 C297 1.491 1_656 S
C292 H283 0.950 1_655 S
C292 C291 1.398 1_554 S
C292 C293 1.391 . S
C293 H281 0.950 . S
C293 C289 1.393 1_554 S
C293 C292 1.391 . S
C294 H284 0.950 . S
C294 C295 1.386 . S
C294 C296 1.391 . S
C295 C294 1.386 . S
C295 C299 1.393 1_554 S
C296 H285 0.950 . S
C296 C294 1.391 . S
C296 C297 1.400 . S
C297 C291 1.491 1_454 S
C297 C296 1.400 . S
C297 C298 1.398 1_554 S
C298 H286 0.950 1_455 S
C298 C297 1.398 1_556 S
C298 C299 1.391 . S
C299 H287 0.950 . S
C299 C295 1.393 1_556 S
C299 C298 1.391 . S
H300 C308 0.950 . S
H301 C313 0.950 . S
H302 C310 0.950 . S
H303 C312 0.950 . S
H304 C314 0.950 . S
H305 C316 0.950 . S
H306 C318 0.950 . S
H307 C319 0.950 . S
C308 H300 0.950 . S
C308 C309 1.386 . S
C308 C310 1.391 . S
C309 C308 1.386 . S
C309 C313 1.393 . S
C310 H302 0.950 . S
C310 C308 1.391 . S
C310 C311 1.400 . S
C311 C310 1.400 . S
C311 C312 1.398 . S
C311 C317 1.491 1_455 S
C312 H303 0.950 . S
C312 C311 1.398 . S
C312 C313 1.391 . S
C313 H301 0.950 . S
C313 C309 1.393 . S
C313 C312 1.391 . S
C314 H304 0.950 . S
C314 C315 1.386 . S
C314 C316 1.391 . S
C315 C314 1.386 . S
C315 C319 1.393 . S
C316 H305 0.950 . S
C316 C314 1.391 . S
C316 C317 1.400 . S
C317 C311 1.491 1_655 S
C317 C316 1.400 . S
C317 C318 1.398 . S
C318 H306 0.950 . S
C318 C317 1.398 . S
C318 C319 1.391 . S
C319 H307 0.950 . S
C319 C315 1.393 . S
C319 C318 1.391 . S
H320 C328 0.950 . S
H321 C333 0.950 . S
H322 C330 0.950 . S
H323 C332 0.950 . S
H324 C334 0.950 . S
H325 C336 0.950 . S
H326 C338 0.950 . S
H327 C339 0.950 . S
C328 H320 0.950 . S
C328 C329 1.386 1_455 S
C328 C330 1.391 . S
C329 C328 1.386 1_655 S
C329 C333 1.393 1_545 S
C330 H322 0.950 . S
C330 C328 1.391 . S
C330 C331 1.400 1_455 S
C331 C330 1.400 1_655 S
C331 C332 1.398 1_545 S
C331 C337 1.491 . S
C332 H323 0.950 . S
C332 C331 1.398 1_565 S
C332 C333 1.391 . S
C333 H321 0.950 . S
C333 C329 1.393 1_565 S
C333 C332 1.391 . S
C334 H324 0.950 . S
C334 C335 1.386 1_565 S
C334 C336 1.391 . S
C335 C334 1.386 1_545 S
C335 C339 1.393 1_655 S
C336 H325 0.950 . S
C336 C334 1.391 . S
C336 C337 1.400 1_565 S
C337 C331 1.491 . S
C337 C336 1.400 1_545 S
C337 C338 1.398 1_655 S
C338 H326 0.950 . S
C338 C337 1.398 1_455 S
C338 C339 1.391 . S
C339 H327 0.950 . S
C339 C335 1.393 1_455 S
C339 C338 1.391 . S
H340 C348 0.950 . S
H341 C353 0.950 . S
H342 C350 0.950 . S
H343 C352 0.950 . S
H344 C354 0.950 . S
H345 C356 0.950 . S
H346 C358 0.950 . S
H347 C359 0.950 . S
C348 H340 0.950 . S
C348 C349 1.383 . S
C348 C350 1.391 . S
C349 C348 1.383 . S
C349 C353 1.393 1_465 S
C350 H342 0.950 . S
C350 C348 1.391 . S
C350 C351 1.400 . S
C351 C350 1.400 . S
C351 C352 1.401 1_465 S
C351 C357 1.487 1_565 S
C352 H343 0.950 . S
C352 C351 1.401 1_645 S
C352 C353 1.391 . S
C353 H341 0.950 . S
C353 C349 1.393 1_645 S
C353 C352 1.391 . S
C354 H344 0.950 . S
C354 C355 1.384 1_655 S
C354 C356 1.391 . S
C355 C354 1.384 1_455 S
C355 C359 1.393 1_545 S
C356 H345 0.950 . S
C356 C354 1.391 . S
C356 C357 1.400 1_655 S
C357 C351 1.487 1_545 S
C357 C356 1.400 1_455 S
C357 C358 1.400 1_545 S
C358 H346 0.950 . S
C358 C357 1.400 1_565 S
C358 C359 1.391 . S
C359 H347 0.950 . S
C359 C355 1.393 1_565 S
C359 C358 1.391 . S
H360 C368 0.950 . S
H361 C373 0.950 . S
H362 C370 0.950 . S
H363 C372 0.950 . S
H364 C374 0.950 . S
H365 C376 0.950 . S
H366 C378 0.950 . S
H367 C379 0.950 . S
C368 H360 0.950 . S
C368 C369 1.386 . S
C368 C370 1.391 . S
C369 C368 1.386 . S
C369 C373 1.393 . S
C370 H362 0.950 . S
C370 C368 1.391 . S
C370 C371 1.400 . S
C371 C370 1.400 . S
C371 C372 1.398 . S
C371 C377 1.491 . S
C372 H363 0.950 . S
C372 C371 1.398 . S
C372 C373 1.391 . S
C373 H361 0.950 . S
C373 C369 1.393 . S
C373 C372 1.391 . S
C374 H364 0.950 . S
C374 C375 1.386 . S
C374 C376 1.391 . S
C375 C374 1.386 . S
C375 C379 1.393 . S
C376 H365 0.950 . S
C376 C374 1.391 . S
C376 C377 1.400 . S
C377 C371 1.491 . S
C377 C376 1.400 . S
C377 C378 1.398 . S
C378 H366 0.950 . S
C378 C377 1.398 . S
C378 C379 1.391 . S
C379 H367 0.950 . S
C379 C375 1.393 . S
C379 C378 1.391 . S
H380 C388 0.950 . S
H381 C393 0.950 . S
H382 C390 0.950 . S
H383 C392 0.950 . S
H384 C394 0.950 . S
H385 C396 0.950 . S
H386 C398 0.950 . S
H387 C399 0.950 . S
C388 H380 0.950 . S
C388 C389 1.386 . S
C388 C390 1.391 . S
C389 C388 1.386 . S
C389 C393 1.393 . S
C390 H382 0.950 . S
C390 C388 1.391 . S
C390 C391 1.400 . S
C391 C390 1.400 . S
C391 C392 1.398 . S
C391 C397 1.491 . S
C392 H383 0.950 . S
C392 C391 1.398 . S
C392 C393 1.391 . S
C393 H381 0.950 . S
C393 C389 1.393 . S
C393 C392 1.391 . S
C394 H384 0.950 . S
C394 C395 1.386 . S
C394 C396 1.391 . S
C395 C394 1.386 . S
C395 C399 1.393 . S
C396 H385 0.950 . S
C396 C394 1.391 . S
C396 C397 1.400 . S
C397 C391 1.491 . S
C397 C396 1.400 . S
C397 C398 1.398 . S
C398 H386 0.950 . S
C398 C397 1.398 . S
C398 C399 1.391 . S
C399 H387 0.950 . S
C399 C395 1.393 . S
C399 C398 1.391 . S
C169 C99 3.576 1_554 S
C175 C9 3.576 1_556 S
C189 C89 3.576 1_556 S
C195 C19 3.576 1_554 S
C209 C45 0.257 . S
C215 C135 0.257 . S
C229 C55 0.241 . S
C235 C125 0.241 . S
C249 C5 0.995 . S
C255 C15 0.995 . S
C269 C49 4.817 . S
C275 C59 4.818 . S
C289 C85 0.988 . S
C295 C95 0.988 . S
C309 C139 4.818 . S
C315 C129 4.818 . S
C329 C58 1.436 1_645 S
C335 C8 1.448 1_655 S
C349 C18 1.447 1_455 S
C355 C48 1.441 . S
C369 C138 1.438 . S
C375 C88 1.454 . S
C389 C128 1.436 . S
C395 C98 1.450 . S
