# Generated by pormake.
# Topology zfj, (5)-cn, num edge types: 1
# Building blocks:
#     Node 0, Type 0, BuildingBlock: XOMCOT_clean_sbu_0, # of connection points: 5
#     Node 1, Type 0, BuildingBlock: XOMCOT_clean_sbu_0, # of connection points: 5
#     Node 2, Type 0, BuildingBlock: XOMCOT_clean_sbu_0, # of connection points: 5
#     Node 3, Type 0, BuildingBlock: XOMCOT_clean_sbu_0, # of connection points: 5
#     Node 4, Type 0, BuildingBlock: XOMCOT_clean_sbu_0, # of connection points: 5
#     Node 5, Type 0, BuildingBlock: XOMCOT_clean_sbu_0, # of connection points: 5
#     Node 6, Type 0, BuildingBlock: XOMCOT_clean_sbu_0, # of connection points: 5
#     Node 7, Type 0, BuildingBlock: XOMCOT_clean_sbu_0, # of connection points: 5
#     Node 8, Type 0, BuildingBlock: XOMCOT_clean_sbu_0, # of connection points: 5
#     Node 9, Type 0, BuildingBlock: XOMCOT_clean_sbu_0, # of connection points: 5
#     Node 10, Type 0, BuildingBlock: XOMCOT_clean_sbu_0, # of connection points: 5
#     Node 11, Type 0, BuildingBlock: XOMCOT_clean_sbu_0, # of connection points: 5
#     Node 12, Type 0, BuildingBlock: XOMCOT_clean_sbu_0, # of connection points: 5
#     Node 13, Type 0, BuildingBlock: XOMCOT_clean_sbu_0, # of connection points: 5
#     Node 14, Type 0, BuildingBlock: XOMCOT_clean_sbu_0, # of connection points: 5
#     Node 15, Type 0, BuildingBlock: XOMCOT_clean_sbu_0, # of connection points: 5
#     Edge 16, Type (0, 0), BuildingBlock: EZIPEK_clean_linker_0, # of connection points: 2
#     Edge 17, Type (0, 0), BuildingBlock: EZIPEK_clean_linker_0, # of connection points: 2
#     Edge 18, Type (0, 0), BuildingBlock: EZIPEK_clean_linker_0, # of connection points: 2
#     Edge 19, Type (0, 0), BuildingBlock: EZIPEK_clean_linker_0, # of connection points: 2
#     Edge 20, Type (0, 0), BuildingBlock: EZIPEK_clean_linker_0, # of connection points: 2
#     Edge 21, Type (0, 0), BuildingBlock: EZIPEK_clean_linker_0, # of connection points: 2
#     Edge 22, Type (0, 0), BuildingBlock: EZIPEK_clean_linker_0, # of connection points: 2
#     Edge 23, Type (0, 0), BuildingBlock: EZIPEK_clean_linker_0, # of connection points: 2
#     Edge 24, Type (0, 0), BuildingBlock: EZIPEK_clean_linker_0, # of connection points: 2
#     Edge 25, Type (0, 0), BuildingBlock: EZIPEK_clean_linker_0, # of connection points: 2
#     Edge 26, Type (0, 0), BuildingBlock: EZIPEK_clean_linker_0, # of connection points: 2
#     Edge 27, Type (0, 0), BuildingBlock: EZIPEK_clean_linker_0, # of connection points: 2
#     Edge 28, Type (0, 0), BuildingBlock: EZIPEK_clean_linker_0, # of connection points: 2
#     Edge 29, Type (0, 0), BuildingBlock: EZIPEK_clean_linker_0, # of connection points: 2
#     Edge 30, Type (0, 0), BuildingBlock: EZIPEK_clean_linker_0, # of connection points: 2
#     Edge 31, Type (0, 0), BuildingBlock: EZIPEK_clean_linker_0, # of connection points: 2
#     Edge 32, Type (0, 0), BuildingBlock: EZIPEK_clean_linker_0, # of connection points: 2
#     Edge 33, Type (0, 0), BuildingBlock: EZIPEK_clean_linker_0, # of connection points: 2
#     Edge 34, Type (0, 0), BuildingBlock: EZIPEK_clean_linker_0, # of connection points: 2
#     Edge 35, Type (0, 0), BuildingBlock: EZIPEK_clean_linker_0, # of connection points: 2
#     Edge 36, Type (0, 0), BuildingBlock: EZIPEK_clean_linker_0, # of connection points: 2
#     Edge 37, Type (0, 0), BuildingBlock: EZIPEK_clean_linker_0, # of connection points: 2
#     Edge 38, Type (0, 0), BuildingBlock: EZIPEK_clean_linker_0, # of connection points: 2
#     Edge 39, Type (0, 0), BuildingBlock: EZIPEK_clean_linker_0, # of connection points: 2
#     Edge 40, Type (0, 0), BuildingBlock: EZIPEK_clean_linker_0, # of connection points: 2
#     Edge 41, Type (0, 0), BuildingBlock: EZIPEK_clean_linker_0, # of connection points: 2
#     Edge 42, Type (0, 0), BuildingBlock: EZIPEK_clean_linker_0, # of connection points: 2
#     Edge 43, Type (0, 0), BuildingBlock: EZIPEK_clean_linker_0, # of connection points: 2
#     Edge 44, Type (0, 0), BuildingBlock: EZIPEK_clean_linker_0, # of connection points: 2
#     Edge 45, Type (0, 0), BuildingBlock: EZIPEK_clean_linker_0, # of connection points: 2
#     Edge 46, Type (0, 0), BuildingBlock: EZIPEK_clean_linker_0, # of connection points: 2
#     Edge 47, Type (0, 0), BuildingBlock: EZIPEK_clean_linker_0, # of connection points: 2
#     Edge 48, Type (0, 0), BuildingBlock: EZIPEK_clean_linker_0, # of connection points: 2
#     Edge 49, Type (0, 0), BuildingBlock: EZIPEK_clean_linker_0, # of connection points: 2
#     Edge 50, Type (0, 0), BuildingBlock: EZIPEK_clean_linker_0, # of connection points: 2
#     Edge 51, Type (0, 0), BuildingBlock: EZIPEK_clean_linker_0, # of connection points: 2
#     Edge 52, Type (0, 0), BuildingBlock: EZIPEK_clean_linker_0, # of connection points: 2
#     Edge 53, Type (0, 0), BuildingBlock: EZIPEK_clean_linker_0, # of connection points: 2
#     Edge 54, Type (0, 0), BuildingBlock: EZIPEK_clean_linker_0, # of connection points: 2
#     Edge 55, Type (0, 0), BuildingBlock: EZIPEK_clean_linker_0, # of connection points: 2
# Relax obj value: 0.191
# Max RMSD: 0.168
# Mean RMSD: 0.167
data_MOF--net-zfj--node1-XOMCOT_clean_sbu_0--edge1-EZIPEK_clean_linker_0
_symmetry_space_group_name_H-M    P1
_symmetry_Int_Tables_number       1
_symmetry_cell_setting            triclinic
loop_
_symmetry_equiv_pos_as_xyz
'x, y, z'
_cell_length_a     27.051993
_cell_length_b     27.190423
_cell_length_c     36.297066
_cell_angle_alpha  90.137083
_cell_angle_beta   89.989439
_cell_angle_gamma 89.835458
loop_
_atom_site_label
_atom_site_type_symbol
_atom_site_fract_x
_atom_site_fract_y
_atom_site_fract_z
_atom_type_partial_charge
Co0 Co 0.49886 0.21877 0.12831 0.0
C1 C 0.51166 0.32338 0.14873 0.0
C2 C 0.43539 0.30194 0.14916 0.0
C3 C 0.4378 0.35233 0.15183 0.0
N4 N 0.48167 0.28353 0.14731 0.0
N5 N 0.48565 0.36593 0.15072 0.0
H6 H 0.55137 0.32159 0.14528 0.0
H7 H 0.40207 0.28056 0.1458 0.0
C8 C 0.44397 0.19567 0.20064 0.0
O9 O 0.44191 0.2417 0.2114 0.0
N10 N 0.51622 0.15411 0.10826 0.0
C11 C 0.54248 0.14429 0.07741 0.0
C12 C 0.55075 0.0944 0.075 0.0
C13 C 0.50749 0.10944 0.12338 0.0
N14 N 0.5287 0.07258 0.10391 0.0
C15 C 0.60352 0.22128 0.13051 0.0
C16 C 0.61514 0.23658 0.20522 0.0
C17 C 0.657 0.23582 0.1824 0.0
C18 C 0.65076 0.22758 0.14477 0.0
C19 C 0.56814 0.22937 0.18978 0.0
N20 N 0.56282 0.22187 0.15275 0.0
H21 H 0.59974 0.21767 0.10112 0.0
H22 H 0.53624 0.23212 0.20737 0.0
H23 H 0.55582 0.17141 0.05813 0.0
H24 H 0.48747 0.10342 0.14872 0.0
O25 O 0.51712 0.25047 0.08278 0.0
O26 O 0.44246 0.22133 0.09507 0.0
O27 O 0.46626 0.1832 0.171 0.0
C28 C 0.472 0.24315 0.07197 0.0
H29 H 0.40666 0.37743 0.15186 0.0
H30 H 0.57179 0.07552 0.05387 0.0
H31 H 0.61842 0.24463 0.23424 0.0
H32 H 0.68223 0.22754 0.12629 0.0
Co33 Co 0.29672 0.50105 0.63517 0.0
C34 C 0.1889 0.49203 0.62275 0.0
C35 C 0.21359 0.4426 0.66499 0.0
C36 C 0.16308 0.43807 0.66144 0.0
N37 N 0.22978 0.47664 0.64085 0.0
N38 N 0.14784 0.46903 0.63483 0.0
H39 H 0.18886 0.51984 0.60149 0.0
H40 H 0.23648 0.42246 0.68415 0.0
C41 C 0.35244 0.47267 0.70394 0.0
O42 O 0.37559 0.51502 0.70467 0.0
N43 N 0.36418 0.52639 0.62943 0.0
C44 C 0.37766 0.57414 0.63121 0.0
C45 C 0.42825 0.57725 0.63214 0.0
C46 C 0.40765 0.5012 0.62778 0.0
N47 N 0.44727 0.53153 0.63045 0.0
C48 C 0.25645 0.59796 0.63658 0.0
C49 C 0.27329 0.6201 0.70962 0.0
C50 C 0.25944 0.65786 0.68544 0.0
C51 C 0.24884 0.64577 0.64899 0.0
C52 C 0.28014 0.57213 0.69601 0.0
N53 N 0.27554 0.5624 0.65919 0.0
H54 H 0.24928 0.5909 0.60793 0.0
H55 H 0.28959 0.54364 0.71518 0.0
H56 H 0.35299 0.6052 0.633 0.0
H57 H 0.41041 0.46168 0.62595 0.0
O58 O 0.28248 0.5193 0.58503 0.0
O59 O 0.31133 0.44653 0.60194 0.0
O60 O 0.31634 0.46559 0.68196 0.0
C61 C 0.29535 0.4751 0.57584 0.0
H62 H 0.13928 0.41395 0.6771 0.0
H63 H 0.44967 0.61068 0.63457 0.0
H64 H 0.28027 0.62774 0.73831 0.0
H65 H 0.23655 0.67366 0.62974 0.0
Co66 Co 0.0124 0.30999 0.1236 0.0
C67 C 0.01575 0.20016 0.13238 0.0
C68 C 0.08302 0.23566 0.1488 0.0
C69 C 0.09001 0.18557 0.15077 0.0
N70 N 0.03662 0.24498 0.13711 0.0
N71 N 0.04793 0.16334 0.1402 0.0
H72 H 0.97867 0.19452 0.12205 0.0
H73 H 0.11085 0.2634 0.15366 0.0
C74 C 0.03781 0.36502 0.19433 0.0
O75 O 0.99145 0.37851 0.19797 0.0
N76 N 0.98932 0.37656 0.1096 0.0
C77 C 0.9541 0.38724 0.08436 0.0
C78 C 0.94456 0.43689 0.08458 0.0
C79 C 1.00309 0.42147 0.12266 0.0
N80 N 0.97539 0.45861 0.10866 0.0
C81 C 0.90926 0.29762 0.13077 0.0
C82 C 0.90455 0.27196 0.20407 0.0
C83 C 0.86085 0.27394 0.18315 0.0
C84 C 0.86401 0.28607 0.14606 0.0
C85 C 0.9501 0.28291 0.18711 0.0
N86 N 0.95162 0.29814 0.15122 0.0
H87 H 0.90979 0.30411 0.10173 0.0
H88 H 0.98394 0.27847 0.20253 0.0
H89 H 0.93648 0.36122 0.06618 0.0
H90 H 0.03259 0.42775 0.14191 0.0
O91 O 0.98898 0.28455 0.07727 0.0
O92 O 0.0642 0.31302 0.086 0.0
O93 O 0.05076 0.33751 0.16735 0.0
C94 C 0.0323 0.29268 0.06367 0.0
H95 H 0.12419 0.16678 0.15744 0.0
H96 H 0.91738 0.45582 0.06789 0.0
H97 H 0.90362 0.2609 0.23264 0.0
H98 H 0.83132 0.28652 0.12877 0.0
Co99 Co 0.23063 0.02617 0.63075 0.0
C100 C 0.34118 0.03227 0.63697 0.0
C101 C 0.30553 0.10173 0.64564 0.0
C102 C 0.35599 0.10907 0.64558 0.0
N103 N 0.29601 0.05345 0.64082 0.0
N104 N 0.37815 0.06532 0.63996 0.0
H105 H 0.34761 0.99429 0.63006 0.0
H106 H 0.27756 0.13013 0.64658 0.0
C107 C 0.21702 0.07412 0.70662 0.0
O108 O 0.26188 0.06249 0.71736 0.0
N109 N 0.16553 0.99964 0.62053 0.0
C110 C 0.15537 0.95322 0.60988 0.0
C111 C 0.1051 0.94604 0.61171 0.0
C112 C 0.12109 0.02043 0.62797 0.0
N113 N 0.08358 0.98819 0.62315 0.0
C114 C 0.27406 0.93121 0.63914 0.0
C115 C 0.22376 0.90373 0.70187 0.0
C116 C 0.25076 0.86801 0.68236 0.0
C117 C 0.27662 0.88266 0.65097 0.0
C118 C 0.22058 0.95187 0.68812 0.0
N119 N 0.24604 0.96548 0.65731 0.0
H120 H 0.29193 0.93979 0.61347 0.0
H121 H 0.19445 0.97664 0.70036 0.0
H122 H 0.18271 0.92582 0.60259 0.0
H123 H 0.11638 0.05756 0.63822 0.0
O124 O 0.25308 1.00567 0.58282 0.0
O125 O 0.21943 0.07833 0.59485 0.0
O126 O 0.20093 0.06098 0.67503 0.0
C127 C 0.23931 0.04845 0.57096 0.0
H128 H 0.37489 0.14403 0.64738 0.0
H129 H 0.08577 0.91207 0.60594 0.0
H130 H 0.20248 0.89372 0.7259 0.0
H131 H 0.29748 0.85619 0.63484 0.0
Co132 Co 0.49988 0.29397 0.86153 0.0
C133 C 0.49955 0.18547 0.86322 0.0
C134 C 0.42966 0.21458 0.8453 0.0
C135 C 0.42572 0.16421 0.84829 0.0
N136 N 0.47574 0.22779 0.85516 0.0
N137 N 0.46965 0.1461 0.85963 0.0
H138 H 0.53732 0.18349 0.87288 0.0
H139 H 0.40041 0.23997 0.83804 0.0
C140 C 0.47239 0.34759 0.79237 0.0
O141 O 0.51666 0.36716 0.79076 0.0
N142 N 0.52459 0.36134 0.86802 0.0
C143 C 0.57238 0.37547 0.87005 0.0
C144 C 0.57505 0.42574 0.86878 0.0
C145 C 0.49875 0.40429 0.86718 0.0
N146 N 0.52895 0.44402 0.86653 0.0
C147 C 0.60033 0.26211 0.85801 0.0
C148 C 0.6109 0.25845 0.7825 0.0
C149 C 0.65253 0.25142 0.80492 0.0
C150 C 0.64638 0.25157 0.84301 0.0
C151 C 0.56491 0.26885 0.79883 0.0
N152 N 0.56087 0.27416 0.83621 0.0
H153 H 0.59759 0.26333 0.88758 0.0
H154 H 0.53304 0.27256 0.7813 0.0
H155 H 0.60412 0.35181 0.87168 0.0
H156 H 0.459 0.40659 0.86594 0.0
O157 O 0.51895 0.27795 0.91139 0.0
O158 O 0.44574 0.30758 0.89541 0.0
O159 O 0.46311 0.31366 0.81546 0.0
C160 C 0.47466 0.29091 0.92109 0.0
H161 H 0.39293 0.1425 0.8432 0.0
H162 H 0.60854 0.44746 0.86902 0.0
H163 H 0.61399 0.25683 0.75289 0.0
H164 H 0.67748 0.24501 0.86119 0.0
Co165 Co 0.22021 0.49411 0.36692 0.0
C166 C 0.32766 0.49637 0.35164 0.0
C167 C 0.29362 0.43192 0.32875 0.0
C168 C 0.34402 0.42858 0.32343 0.0
N169 N 0.28352 0.47422 0.34672 0.0
N170 N 0.36521 0.46869 0.33844 0.0
H171 H 0.33257 0.53028 0.36688 0.0
H172 H 0.26666 0.40411 0.32184 0.0
C173 C 0.15738 0.47368 0.29885 0.0
O174 O 0.14441 0.52023 0.29752 0.0
N175 N 0.15573 0.51359 0.38813 0.0
C176 C 0.14838 0.54117 0.41882 0.0
C177 C 0.09872 0.55076 0.42308 0.0
C178 C 0.10928 0.50432 0.37587 0.0
N179 N 0.07428 0.5277 0.3959 0.0
C180 C 0.22356 0.59803 0.36174 0.0
C181 C 0.2542 0.60462 0.28935 0.0
C182 C 0.25196 0.64732 0.31107 0.0
C183 C 0.23601 0.64361 0.34744 0.0
C184 C 0.24198 0.55911 0.30509 0.0
N185 N 0.22588 0.55635 0.34078 0.0
H186 H 0.21512 0.5963 0.39056 0.0
H187 H 0.24714 0.52595 0.28908 0.0
H188 H 0.17709 0.5548 0.4368 0.0
H189 H 0.10006 0.48172 0.35265 0.0
O190 O 0.25312 0.5148 0.41147 0.0
O191 O 0.22386 0.43993 0.40204 0.0
O192 O 0.18656 0.45848 0.3242 0.0
C193 C 0.24631 0.47074 0.42401 0.0
H194 H 0.36391 0.39753 0.31193 0.0
H195 H 0.08186 0.57365 0.44408 0.0
H196 H 0.26685 0.60615 0.26113 0.0
H197 H 0.2344 0.6758 0.36508 0.0
Co198 Co 0.02327 0.22953 0.85043 0.0
C199 C 0.03655 0.33828 0.85703 0.0
C200 C 0.05135 0.31381 0.80213 0.0
C201 C 0.05402 0.36435 0.80282 0.0
N202 N 0.04092 0.29688 0.83623 0.0
N203 N 0.04455 0.37948 0.83733 0.0
H204 H 0.02522 0.33904 0.88556 0.0
H205 H 0.05415 0.29206 0.77765 0.0
C206 C 0.06525 0.19513 0.77368 0.0
O207 O 0.03076 0.21414 0.75261 0.0
N208 N 1.0036 0.16365 0.86482 0.0
C209 C 0.96125 0.153 0.88274 0.0
C210 C 0.95559 0.10278 0.88402 0.0
C211 C 0.02332 0.11955 0.85549 0.0
N212 N 0.99439 0.08197 0.86675 0.0
C213 C 0.92991 0.2707 0.83647 0.0
C214 C 0.89588 0.20334 0.78548 0.0
C215 C 0.86228 0.23715 0.80093 0.0
C216 C 0.88019 0.27087 0.82687 0.0
C217 C 0.94473 0.20149 0.79862 0.0
N218 N 0.96148 0.23565 0.8233 0.0
H219 H 0.94223 0.29694 0.85678 0.0
H220 H 0.96795 0.1712 0.79044 0.0
H221 H 0.935 0.18002 0.89266 0.0
H222 H 0.05701 0.1149 0.83988 0.0
O223 O 0.99958 0.25329 0.89746 0.0
O224 O 0.07637 0.22859 0.88663 0.0
O225 O 0.06426 0.19989 0.80875 0.0
C226 C 0.04401 0.24583 0.90982 0.0
H227 H 0.06055 0.38831 0.77955 0.0
H228 H 0.92424 0.08304 0.89506 0.0
H229 H 0.88356 0.17635 0.76553 0.0
H230 H 0.85569 0.29721 0.83998 0.0
Co231 Co 0.3116 1.00957 0.36089 0.0
C232 C 0.20226 0.01296 0.34541 0.0
C233 C 0.2386 0.08141 0.33513 0.0
C234 C 0.18845 0.08836 0.33094 0.0
N235 N 0.24759 0.03404 0.34391 0.0
N236 N 0.16571 0.04547 0.33806 0.0
H237 H 0.19517 0.97611 0.35483 0.0
H238 H 0.26647 0.10982 0.33423 0.0
C239 C 0.33305 0.05054 0.28479 0.0
O240 O 0.2941 0.02778 0.27155 0.0
N241 N 0.37541 0.98578 0.3778 0.0
C242 C 0.38288 0.94541 0.39864 0.0
C243 C 0.43288 0.93599 0.40062 0.0
C244 C 0.42113 1.0005 0.36744 0.0
N245 N 0.45669 0.97046 0.3809 0.0
C246 C 0.27221 0.91398 0.3517 0.0
C247 C 0.32645 0.88409 0.29133 0.0
C248 C 0.29511 0.85028 0.30877 0.0
C249 C 0.26825 0.86592 0.33941 0.0
C250 C 0.33076 0.93209 0.30555 0.0
N251 N 0.3027 0.94707 0.3349 0.0
H252 H 0.2514 0.92351 0.37591 0.0
H253 H 0.35778 0.95612 0.29366 0.0
H254 H 0.35385 0.92302 0.41026 0.0
H255 H 0.4284 0.03127 0.34944 0.0
O256 O 0.28248 0.99027 0.40721 0.0
O257 O 0.31322 0.06366 0.39667 0.0
O258 O 0.34575 0.0444 0.31841 0.0
C259 C 0.29078 0.03413 0.41942 0.0
H260 H 0.16983 0.1231 0.3263 0.0
H261 H 0.4504 0.90521 0.41431 0.0
H262 H 0.34885 0.87295 0.2681 0.0
H263 H 0.24421 0.84082 0.35405 0.0
Co264 Co 0.52041 0.79486 0.8643 0.0
C265 C 0.5091 0.68829 0.85033 0.0
C266 C 0.5774 0.71595 0.82861 0.0
C267 C 0.57751 0.66546 0.82525 0.0
N268 N 0.5347 0.73013 0.84464 0.0
N269 N 0.53489 0.6483 0.83941 0.0
H270 H 0.47395 0.68682 0.86454 0.0
H271 H 0.60787 0.74017 0.82231 0.0
C272 C 0.54765 0.85295 0.79561 0.0
O273 O 0.50193 0.86864 0.79207 0.0
N274 N 0.50684 0.86063 0.88523 0.0
C275 C 0.48239 0.87024 0.91709 0.0
C276 C 0.475 0.92004 0.9207 0.0
C277 C 0.5164 0.90587 0.87133 0.0
N278 N 0.49618 0.94223 0.89174 0.0
C279 C 0.4162 0.80527 0.85817 0.0
C280 C 0.40631 0.77166 0.7867 0.0
C281 C 0.3638 0.78265 0.80733 0.0
C282 C 0.36927 0.80005 0.84324 0.0
C283 C 0.45309 0.77777 0.80277 0.0
N284 N 0.45762 0.79524 0.838 0.0
H285 H 0.41872 0.81476 0.88681 0.0
H286 H 0.48559 0.76715 0.78732 0.0
H287 H 0.4686 0.84299 0.93607 0.0
H288 H 0.53667 0.91334 0.84665 0.0
O289 O 0.49706 0.76508 0.90921 0.0
O290 O 0.57466 0.78684 0.89871 0.0
O291 O 0.55941 0.82406 0.82191 0.0
C292 C 0.54227 0.76785 0.92113 0.0
H293 H 0.60806 0.6428 0.81599 0.0
H294 H 0.45461 0.93853 0.94237 0.0
H295 H 0.40337 0.75656 0.75923 0.0
H296 H 0.3372 0.80772 0.86024 0.0
Co297 Co 0.72201 0.51062 0.3583 0.0
C298 C 0.83095 0.51893 0.36604 0.0
C299 C 0.79799 0.58616 0.34697 0.0
C300 C 0.84799 0.59367 0.35163 0.0
N301 N 0.78735 0.53936 0.35609 0.0
N302 N 0.86851 0.55134 0.36351 0.0
H303 H 0.83526 0.48165 0.37578 0.0
H304 H 0.77103 0.6133 0.33846 0.0
C305 C 0.66929 0.53942 0.28884 0.0
O306 O 0.64816 0.49615 0.28641 0.0
N307 N 0.65581 0.4814 0.3608 0.0
C308 C 0.64445 0.43335 0.35625 0.0
C309 C 0.59412 0.42816 0.35456 0.0
C310 C 0.61126 0.50448 0.36312 0.0
N311 N 0.57318 0.47275 0.35846 0.0
C312 C 0.76486 0.41482 0.35667 0.0
C313 C 0.75704 0.39701 0.28216 0.0
C314 C 0.76932 0.3582 0.30584 0.0
C315 C 0.77531 0.36813 0.3432 0.0
C316 C 0.74739 0.44388 0.29681 0.0
N317 N 0.74793 0.45145 0.33405 0.0
H318 H 0.76789 0.42005 0.38594 0.0
H319 H 0.73859 0.47321 0.27812 0.0
H320 H 0.67029 0.4035 0.35307 0.0
H321 H 0.6066 0.54355 0.36712 0.0
O322 O 0.73402 0.49155 0.40843 0.0
O323 O 0.70162 0.56296 0.39155 0.0
O324 O 0.70446 0.54688 0.31154 0.0
C325 C 0.71768 0.53462 0.41772 0.0
H326 H 0.86784 0.62759 0.34688 0.0
H327 H 0.57417 0.39415 0.35025 0.0
H328 H 0.7532 0.39091 0.25302 0.0
H329 H 0.78589 0.33927 0.3622 0.0
Co330 Co 1.00004 0.729 0.85621 0.0
C331 C 1.00807 0.83607 0.84395 0.0
C332 C 0.93551 0.8088 0.83141 0.0
C333 C 0.93412 0.85943 0.83111 0.0
N334 N 0.98169 0.7942 0.83986 0.0
N335 N 0.9796 0.87657 0.83931 0.0
H336 H 0.04635 0.83692 0.85263 0.0
H337 H 0.90424 0.78442 0.82841 0.0
C338 C 0.97984 0.67009 0.7865 0.0
O339 O 0.02585 0.65443 0.78569 0.0
N340 N 0.01869 0.66288 0.87432 0.0
C341 C 0.04608 0.6534 0.90481 0.0
C342 C 0.0536 0.60358 0.90823 0.0
C343 C 1.00844 0.61745 0.86073 0.0
N344 N 0.03038 0.58126 0.88018 0.0
C345 C 0.10449 0.73337 0.85434 0.0
C346 C 0.11632 0.75742 0.781 0.0
C347 C 0.15808 0.75285 0.80367 0.0
C348 C 0.15164 0.741 0.84066 0.0
C349 C 0.06912 0.74969 0.79608 0.0
N350 N 0.06391 0.73609 0.83214 0.0
H351 H 0.10081 0.72706 0.88337 0.0
H352 H 0.03687 0.75534 0.77902 0.0
H353 H 0.06005 0.68063 0.92381 0.0
H354 H 0.98525 0.60964 0.83753 0.0
O355 O 0.01754 0.75711 0.9031 0.0
O356 O 0.94311 0.72848 0.8889 0.0
O357 O 0.96596 0.70074 0.81114 0.0
C358 C 0.97215 0.74909 0.91297 0.0
H359 H 0.90166 0.8821 0.82683 0.0
H360 H 0.07543 0.58519 0.92908 0.0
H361 H 0.12008 0.7678 0.75241 0.0
H362 H 0.18305 0.7384 0.85911 0.0
Co363 Co 0.81159 0.99451 0.36093 0.0
C364 C 0.70094 0.9865 0.35548 0.0
C365 C 0.7373 0.91644 0.35446 0.0
C366 C 0.687 0.9087 0.35573 0.0
N367 N 0.74634 0.96522 0.35411 0.0
N368 N 0.6644 0.9528 0.35648 0.0
H369 H 0.69396 0.02536 0.35757 0.0
H370 H 0.76553 0.88836 0.35609 0.0
C371 C 0.81852 0.94263 0.28668 0.0
O372 O 0.77178 0.95144 0.27952 0.0
N373 N 0.87639 0.02356 0.36805 0.0
C374 C 0.88518 0.07102 0.37664 0.0
C375 C 0.935 0.07982 0.37384 0.0
C376 C 0.92135 1.00381 0.36074 0.0
N377 N 0.95776 0.03771 0.36383 0.0
C378 C 0.76563 0.08797 0.3521 0.0
C379 C 0.81171 0.11372 0.28713 0.0
C380 C 0.78607 0.14988 0.30714 0.0
C381 C 0.76213 0.13611 0.33958 0.0
C382 C 0.81617 0.06612 0.30161 0.0
N383 N 0.79284 0.05342 0.33357 0.0
H384 H 0.74913 0.0798 0.37838 0.0
H385 H 0.84191 0.04125 0.28892 0.0
H386 H 0.85724 0.09785 0.38379 0.0
H387 H 0.92722 0.96601 0.35237 0.0
O388 O 0.79169 0.01606 0.40934 0.0
O389 O 0.82695 0.94424 0.3974 0.0
O390 O 0.8387 0.95878 0.31614 0.0
C391 C 0.8074 0.97404 0.42149 0.0
H392 H 0.66849 0.87356 0.35773 0.0
H393 H 0.95331 0.11461 0.37864 0.0
H394 H 0.83125 0.12301 0.26214 0.0
H395 H 0.742 0.16294 0.35589 0.0
Co396 Co 0.52301 0.71948 0.13203 0.0
C397 C 0.52143 0.82837 0.13155 0.0
C398 C 0.59121 0.79967 0.15009 0.0
C399 C 0.5947 0.85012 0.14774 0.0
N400 N 0.54539 0.78613 0.1398 0.0
N401 N 0.55092 0.86799 0.13598 0.0
H402 H 0.48398 0.83005 0.12114 0.0
H403 H 0.62061 0.77446 0.15733 0.0
C404 C 0.54854 0.66691 0.20246 0.0
O405 O 0.504 0.64803 0.20414 0.0
N406 N 0.50046 0.65178 0.12342 0.0
C407 C 0.45811 0.63763 0.1067 0.0
C408 C 0.45463 0.58715 0.10746 0.0
C409 C 0.52317 0.60888 0.13237 0.0
N410 N 0.49531 0.56935 0.12393 0.0
C411 C 0.42101 0.74423 0.13364 0.0
C412 C 0.40949 0.75787 0.20849 0.0
C413 C 0.3684 0.76259 0.18515 0.0
C414 C 0.37488 0.75653 0.14743 0.0
C415 C 0.45586 0.74566 0.19327 0.0
N416 N 0.46059 0.73645 0.15632 0.0
H417 H 0.42431 0.74141 0.10422 0.0
H418 H 0.48764 0.74437 0.21117 0.0
H419 H 0.43121 0.6617 0.09436 0.0
H420 H 0.55871 0.60611 0.1454 0.0
O421 O 0.50467 0.73654 0.08258 0.0
O422 O 0.57838 0.70807 0.09892 0.0
O423 O 0.55863 0.69958 0.17858 0.0
C424 C 0.54921 0.72429 0.07319 0.0
H425 H 0.6272 0.87203 0.15336 0.0
H426 H 0.4242 0.56516 0.09733 0.0
H427 H 0.40581 0.76371 0.23785 0.0
H428 H 0.34413 0.76109 0.12857 0.0
Co429 Co 0.79994 0.51793 0.62445 0.0
C430 C 0.69347 0.50692 0.64211 0.0
C431 C 0.72361 0.57355 0.66445 0.0
C432 C 0.67305 0.57453 0.66904 0.0
N433 N 0.73632 0.53144 0.64715 0.0
N434 N 0.65421 0.5331 0.65432 0.0
H435 H 0.69063 0.47252 0.62721 0.0
H436 H 0.74871 0.60333 0.67057 0.0
C437 C 0.85981 0.54634 0.69283 0.0
O438 O 0.86859 0.50014 0.70101 0.0
N439 N 0.86472 0.50594 0.60097 0.0
C440 C 0.87433 0.49935 0.56458 0.0
C441 C 0.92435 0.49234 0.55944 0.0
C442 C 0.90969 0.50194 0.61716 0.0
N443 N 0.94619 0.49399 0.59261 0.0
C444 C 0.81683 0.41531 0.62917 0.0
C445 C 0.77507 0.40089 0.69776 0.0
C446 C 0.78704 0.35989 0.67594 0.0
C447 C 0.80923 0.36759 0.6417 0.0
C448 C 0.78314 0.44832 0.68408 0.0
N449 N 0.80365 0.45514 0.65001 0.0
H450 H 0.83031 0.42002 0.60144 0.0
H451 H 0.7711 0.47954 0.7003 0.0
H452 H 0.84725 0.49869 0.54279 0.0
H453 H 0.91667 0.50416 0.64613 0.0
O454 O 0.76654 0.49384 0.58105 0.0
O455 O 0.78723 0.57157 0.59041 0.0
O456 O 0.8332 0.55771 0.66497 0.0
C457 C 0.7666 0.53886 0.56906 0.0
H458 H 0.65137 0.60517 0.67929 0.0
H459 H 0.94318 0.48602 0.53354 0.0
H460 H 0.75679 0.39645 0.72401 0.0
H461 H 0.81861 0.33681 0.62399 0.0
Co462 Co 1.0051 0.81107 0.12488 0.0
C463 C 0.99791 0.70082 0.1344 0.0
C464 C 0.93001 0.73856 0.14576 0.0
C465 C 0.92152 0.68869 0.14787 0.0
N466 N 0.97805 0.74655 0.13768 0.0
N467 N 0.96417 0.66512 0.14051 0.0
H468 H 0.03511 0.69312 0.12546 0.0
H469 H 0.90226 0.76713 0.14797 0.0
C470 C 0.95813 0.82812 0.19983 0.0
O471 O 0.97977 0.78854 0.21295 0.0
N472 N 0.0312 0.87533 0.11206 0.0
C473 C 0.07532 0.88366 0.09597 0.0
C474 C 0.08397 0.93356 0.09538 0.0
C475 C 0.01336 0.92046 0.12083 0.0
N476 N 0.04511 0.95656 0.11106 0.0
C477 C 0.0995 0.76881 0.137 0.0
C478 C 0.12612 0.82176 0.19874 0.0
C479 C 0.16156 0.79177 0.18138 0.0
C480 C 0.14747 0.76519 0.15022 0.0
C481 C 0.07853 0.82598 0.18351 0.0
N482 N 0.06532 0.79896 0.15325 0.0
H483 H 0.09123 0.74904 0.11208 0.0
H484 H 0.05358 0.85268 0.1951 0.0
H485 H 0.10041 0.85527 0.08654 0.0
H486 H 0.97867 0.92689 0.13486 0.0
O487 O 0.02815 0.78595 0.0782 0.0
O488 O 0.95382 0.81707 0.08748 0.0
O489 O 0.96711 0.84233 0.16697 0.0
C490 C 0.98502 0.7963 0.06489 0.0
H491 H 0.88614 0.67103 0.15199 0.0
H492 H 0.1169 0.9516 0.08528 0.0
H493 H 0.13589 0.84386 0.22244 0.0
H494 H 0.17383 0.74213 0.13571 0.0
Co495 Co 0.72976 0.99556 0.63237 0.0
C496 C 0.83767 0.01081 0.64671 0.0
C497 C 0.81022 0.94325 0.66909 0.0
C498 C 0.86086 0.9434 0.67247 0.0
N499 N 0.7956 0.98515 0.65249 0.0
N500 N 0.87811 0.98544 0.65786 0.0
H501 H 0.83899 0.04578 0.63259 0.0
H502 H 0.78618 0.91275 0.67551 0.0
C503 C 0.66841 0.9685 0.69879 0.0
O504 O 0.65268 0.01395 0.70169 0.0
N505 N 0.66219 1.00328 0.6126 0.0
C506 C 0.64091 0.97346 0.5873 0.0
C507 C 0.59097 0.98276 0.58563 0.0
C508 C 0.62387 0.03081 0.62569 0.0
N509 N 0.58028 0.01845 0.60997 0.0
C510 C 0.71731 0.09802 0.63427 0.0
C511 C 0.75092 0.11478 0.70514 0.0
C512 C 0.74307 0.15485 0.68148 0.0
C513 C 0.72527 0.14595 0.64599 0.0
C514 C 0.74329 0.06676 0.69194 0.0
N515 N 0.72634 0.05903 0.65689 0.0
H516 H 0.70582 0.09198 0.60612 0.0
H517 H 0.75293 0.03586 0.70921 0.0
H518 H 0.65929 0.9446 0.57229 0.0
H519 H 0.62685 0.05809 0.64721 0.0
O520 O 0.75763 0.01931 0.58667 0.0
O521 O 0.74305 0.9414 0.59817 0.0
O522 O 0.70113 0.95669 0.67493 0.0
C523 C 0.75987 0.97417 0.57517 0.0
H524 H 0.88365 0.91311 0.68184 0.0
H525 H 0.56409 0.9632 0.5691 0.0
H526 H 0.76524 0.12045 0.73265 0.0
H527 H 0.71904 0.17596 0.62693 0.0
C528 C 0.4442 0.22244 0.00751 0.0
C529 C 0.45664 0.25816 0.03443 0.0
C530 C 0.46802 0.32009 0.98631 0.0
C531 C 0.45796 0.28386 0.95946 0.0
N532 N 0.41727 0.20787 0.94478 0.0
N533 N 0.4596 0.34397 0.05017 0.0
C534 C 0.43964 0.23732 0.97019 0.0
C535 C 0.46202 0.30807 0.02403 0.0
N536 N 0.43947 0.1741 0.01702 0.0
N537 N 0.48481 0.3653 0.97591 0.0
H538 H 0.45335 0.33574 0.07774 0.0
H539 H 0.45812 0.38132 0.04391 0.0
H540 H 0.48747 0.3758 0.94835 0.0
H541 H 0.49817 0.39123 -0.00542 0.0
H542 H 0.43633 0.1459 -0.00231 0.0
H543 H 0.4416 0.16176 0.04412 0.0
H544 H 0.39987 0.17492 0.95139 0.0
H545 H 0.4114 0.21958 0.91786 0.0
C546 C 0.22983 0.4397 0.48877 0.0
C547 C 0.2633 0.45822 0.46199 0.0
C548 C 0.32362 0.47669 0.51078 0.0
C549 C 0.28996 0.45898 0.53723 0.0
N550 N 0.21819 0.4107 0.55141 0.0
N551 N 0.34704 0.48048 0.44681 0.0
C552 C 0.24557 0.43578 0.52611 0.0
C553 C 0.31185 0.47226 0.47287 0.0
N554 N 0.18195 0.4297 0.47943 0.0
N555 N 0.36617 0.49926 0.52199 0.0
H556 H 0.33976 0.47537 0.41909 0.0
H557 H 0.38419 0.48666 0.45265 0.0
H558 H 0.37734 0.50016 0.54949 0.0
H559 H 0.38913 0.51901 0.50442 0.0
H560 H 0.15457 0.42203 0.49874 0.0
H561 H 0.16829 0.43278 0.45273 0.0
H562 H 0.18785 0.38913 0.5444 0.0
H563 H 0.22912 0.40733 0.57885 0.0
C564 C 0.0744 0.29786 0.96248 0.0
C565 C 0.05475 0.25299 0.94941 0.0
C566 C 0.02726 0.23127 0.01114 0.0
C567 C 0.04379 0.27794 0.02477 0.0
N568 N 0.07717 0.35856 0.01154 0.0
N569 N 0.03045 0.17036 0.96238 0.0
C570 C 0.06691 0.31171 0.00011 0.0
C571 C 0.03658 0.21779 0.97412 0.0
N572 N 0.10114 0.32648 0.93893 0.0
N573 N 1.00019 0.20033 0.03268 0.0
H574 H 0.03973 0.15916 0.93577 0.0
H575 H 0.02225 0.14119 0.97988 0.0
H576 H 0.99659 0.20403 0.06089 0.0
H577 H 0.97974 0.17106 0.02218 0.0
H578 H 0.12038 0.35782 0.94689 0.0
H579 H 0.1082 0.31574 0.91182 0.0
H580 H 0.08907 0.38636 0.99405 0.0
H581 H 0.06967 0.37154 0.03795 0.0
C582 C 0.22547 0.03072 0.46883 0.0
C583 C 0.2723 0.04885 0.45677 0.0
C584 C 0.2839 0.08632 0.51787 0.0
C585 C 0.2431 0.05942 0.53121 0.0
N586 N 0.17225 1.00878 0.51991 0.0
N587 N 0.34858 0.09085 0.47204 0.0
C588 C 0.21283 0.03284 0.50669 0.0
C589 C 0.30184 0.07687 0.4816 0.0
N590 N 0.19229 0.01262 0.444 0.0
N591 N 0.30562 0.12055 0.54004 0.0
H592 H 0.36473 0.08264 0.44675 0.0
H593 H 0.37325 0.10667 0.4906 0.0
H594 H 0.29292 0.12771 0.56666 0.0
H595 H 0.33254 0.14491 0.53076 0.0
H596 H 0.15617 1.00284 0.45051 0.0
H597 H 0.19873 0.01266 0.41591 0.0
H598 H 0.15286 0.98222 0.50515 0.0
H599 H 0.15887 0.01456 0.5465 0.0
C600 C 0.53896 0.70523 0.97227 0.0
C601 C 0.55496 0.75216 0.95929 0.0
C602 C 0.58482 0.77231 0.02152 0.0
C603 C 0.56407 0.72805 0.03438 0.0
N604 N 0.53658 0.64612 0.02241 0.0
N605 N 0.58886 0.83272 0.9728 0.0
C606 C 0.54599 0.6925 0.00974 0.0
C607 C 0.57805 0.78595 0.98401 0.0
N608 N 0.51444 0.67382 0.94938 0.0
N609 N 0.61112 0.80098 0.0454 0.0
H610 H 0.58309 0.84551 0.94616 0.0
H611 H 0.59991 0.86066 0.99059 0.0
H612 H 0.61656 0.79095 0.07283 0.0
H613 H 0.63129 0.83175 0.03756 0.0
H614 H 0.49548 0.64275 0.95819 0.0
H615 H 0.51134 0.67965 0.92134 0.0
H616 H 0.52782 0.61639 0.00555 0.0
H617 H 0.54268 0.63623 0.0498 0.0
C618 C 0.69052 0.52369 0.48223 0.0
C619 C 0.71934 0.54983 0.45661 0.0
C620 C 0.77499 0.5775 0.50554 0.0
C621 C 0.74681 0.55012 0.53158 0.0
N622 N 0.66957 0.50993 0.54574 0.0
N623 N 0.77844 0.61365 0.44453 0.0
C624 C 0.70191 0.52733 0.52018 0.0
C625 C 0.75776 0.58116 0.46862 0.0
N626 N 0.65312 0.49406 0.47004 0.0
N627 N 0.82009 0.59647 0.51477 0.0
H628 H 0.76618 0.61721 0.41747 0.0
H629 H 0.80368 0.64056 0.45239 0.0
H630 H 0.83534 0.59476 0.54099 0.0
H631 H 0.84472 0.61056 0.49545 0.0
H632 H 0.63515 0.4685 0.4866 0.0
H633 H 0.64147 0.49359 0.44263 0.0
H634 H 0.63419 0.49735 0.53959 0.0
H635 H 0.67608 0.51349 0.57364 0.0
C636 C 0.95201 0.81865 0.00165 0.0
C637 C 0.97222 0.78286 0.0262 0.0
C638 C 0.96864 0.72104 0.97692 0.0
C639 C 0.95737 0.75808 0.9515 0.0
N640 N 0.93126 0.84019 0.93814 0.0
N641 N 1.00692 0.7008 0.03429 0.0
C642 C 0.94618 0.80631 0.96356 0.0
C643 C 0.98224 0.73423 0.01313 0.0
N644 N 0.94102 0.86488 0.01418 0.0
N645 N 0.96578 0.67289 0.96637 0.0
H646 H 0.01439 0.70554 0.06204 0.0
H647 H 0.02196 0.66845 0.02356 0.0
H648 H 0.95345 0.66262 0.94022 0.0
H649 H 0.9701 0.64356 0.98451 0.0
H650 H 0.92238 0.89129 -0.00117 0.0
H651 H 0.94991 0.87729 0.0405 0.0
H652 H 0.9261 0.87742 0.9435 0.0
H653 H 0.92437 0.83045 0.9108 0.0
C654 C 0.82947 0.99617 0.48584 0.0
C655 C 0.80546 0.96343 0.46156 0.0
C656 C 0.76019 0.92686 0.51353 0.0
C657 C 0.78123 0.96278 0.53767 0.0
N658 N 0.84905 0.01886 0.54813 0.0
N659 N 0.75909 0.889 0.4527 0.0
C660 C 0.81982 0.99357 0.52412 0.0
C661 C 0.77451 0.92586 0.47558 0.0
N662 N 0.86144 0.03044 0.47213 0.0
N663 N 0.72503 0.89503 0.52599 0.0
H664 H 0.76871 0.88737 0.42498 0.0
H665 H 0.74074 0.85763 0.46163 0.0
H666 H 0.71826 0.88831 0.55364 0.0
H667 H 0.70185 0.87504 0.5087 0.0
H668 H 0.87368 0.0609 0.48693 0.0
H669 H 0.87467 0.02913 0.4452 0.0
H670 H 0.88095 0.03771 0.54069 0.0
H671 H 0.84507 0.01583 0.57629 0.0
C672 C 0.52693 0.93469 0.09251 0.0
C673 C 0.53979 0.91904 0.12853 0.0
C674 C 0.54719 1.00502 0.14803 0.0
C675 C 0.53019 0.02077 0.11296 0.0
N676 N 0.49151 0.9997 0.05529 0.0
N677 N 0.54837 0.93911 0.19271 0.0
C678 C 0.51626 0.98525 0.0862 0.0
C679 C 0.54547 0.95425 0.15698 0.0
N680 N 0.52727 0.90193 0.06396 0.0
N681 N 0.56804 0.03781 0.17191 0.0
H682 H 0.54599 0.90213 0.20013 0.0
H683 H 0.54739 0.96358 0.21484 0.0
H684 H 0.57388 0.0746 0.16531 0.0
H685 H 0.5847 0.02725 0.19656 0.0
H686 H 0.52312 0.91244 0.03653 0.0
H687 H 0.53632 0.86497 0.06726 0.0
H688 H 0.47686 0.97496 0.03627 0.0
H689 H 0.48093 0.03613 0.05083 0.0
C690 C 0.57339 0.49469 0.66703 0.0
C691 C 0.603 0.52539 0.64483 0.0
C692 C 0.53106 0.54378 0.60609 0.0
C693 C 0.49979 0.52054 0.63194 0.0
N694 N 0.49123 0.47517 0.68857 0.0
N695 N 0.60979 0.58297 0.59472 0.0
C696 C 0.52102 0.49546 0.66254 0.0
C697 C 0.58185 0.55071 0.61452 0.0
N698 N 0.59551 0.46552 0.69282 0.0
N699 N 0.51171 0.55901 0.5733 0.0
H700 H 0.64737 0.58828 0.59955 0.0
H701 H 0.59509 0.60656 0.57497 0.0
H702 H 0.4747 0.55313 0.56645 0.0
H703 H 0.53312 0.57251 0.55174 0.0
H704 H 0.57683 0.43858 0.70763 0.0
H705 H 0.63363 0.46575 0.69725 0.0
H706 H 0.50385 0.46166 0.71369 0.0
H707 H 0.45323 0.47431 0.68572 0.0
C708 C 0.97384 0.52787 0.15449 0.0
C709 C 0.97682 0.51084 0.11738 0.0
C710 C 0.96482 0.59558 0.09638 0.0
C711 C 0.96941 0.61315 0.13288 0.0
N712 N 0.98472 0.59657 0.19674 0.0
N713 N 0.98827 0.53182 0.0534 0.0
C714 C 0.97649 0.57937 0.16196 0.0
C715 C 0.97632 0.54578 0.08842 0.0
N716 N 0.96409 0.4956 0.18221 0.0
N717 N 0.94663 0.62564 0.06964 0.0
H718 H 1.00036 0.49634 0.04705 0.0
H719 H 0.99171 0.55693 0.03188 0.0
H720 H 0.93552 0.66169 0.07509 0.0
H721 H 0.9378 0.61292 0.04334 0.0
H722 H 0.95799 0.50647 0.20939 0.0
H723 H 0.9557 0.45892 0.17714 0.0
H724 H 0.99471 0.57378 0.21857 0.0
H725 H 0.98541 0.63412 0.20279 0.0
C726 C 0.96258 0.01343 0.6726 0.0
C727 C 0.92887 0.99321 0.64709 0.0
C728 C 0.99653 0.98219 0.60294 0.0
C729 C 0.03133 0.99484 0.63052 0.0
N730 N 0.04679 0.01244 0.69471 0.0
N731 N 0.91562 0.9484 0.59063 0.0
C732 C 0.01429 1.00848 0.66616 0.0
C733 C 0.94627 0.97502 0.61282 0.0
N734 N 0.94509 0.03688 0.70317 0.0
N735 N 1.01152 0.97762 0.5672 0.0
H736 H 0.87895 0.94115 0.59753 0.0
H737 H 0.9278 0.93027 0.56696 0.0
H738 H 0.04784 0.98454 0.55906 0.0
H739 H 0.98692 0.97234 0.54545 0.0
H740 H 0.96792 0.05676 0.72087 0.0
H741 H 0.90731 0.03996 0.70864 0.0
H742 H 0.03524 0.01619 0.72194 0.0
H743 H 0.08457 1.00615 0.69182 0.0
C744 C 0.49702 0.568 0.82546 0.0
C745 C 0.52526 0.59794 0.84925 0.0
C746 C 0.53762 0.52792 0.89053 0.0
C747 C 0.5177 0.49601 0.86356 0.0
N748 N 0.48018 0.48567 0.80376 0.0
N749 N 0.57735 0.60585 0.90271 0.0
C750 C 0.49688 0.5161 0.83082 0.0
C751 C 0.54653 0.57788 0.88158 0.0
N752 N 0.47124 0.58931 0.79735 0.0
N753 N 0.54821 0.50989 0.92469 0.0
H754 H 0.58483 0.64261 0.89691 0.0
H755 H 0.598 0.59172 0.92449 0.0
H756 H 0.54094 0.47341 0.93176 0.0
H757 H 0.55907 0.53201 0.94671 0.0
H758 H 0.44607 0.57035 0.78094 0.0
H759 H 0.47225 0.62711 0.79245 0.0
H760 H 0.46993 0.49752 0.77759 0.0
H761 H 0.47931 0.44791 0.80693 0.0
C762 C 0.95585 0.54998 0.34348 0.0
C763 C 0.92016 0.54288 0.3715 0.0
C764 C 0.98623 0.51852 0.4141 0.0
C765 C 0.02215 0.53194 0.3875 0.0
N766 N 0.04038 0.57192 0.32983 0.0
N767 N 0.90199 0.52915 0.43563 0.0
C768 C 1.00678 0.5507 0.35288 0.0
C769 C 0.93547 0.52939 0.40748 0.0
N770 N 0.94109 0.55475 0.30772 0.0
N771 N 1.00051 0.49407 0.44513 0.0
H772 H 0.86498 0.53876 0.43197 0.0
H773 H 0.91191 0.52413 0.46311 0.0
H774 H 0.03719 0.48415 0.45006 0.0
H775 H 0.97552 0.47945 0.46397 0.0
H776 H 0.96582 0.55548 0.28571 0.0
H777 H 0.90408 0.55261 0.29983 0.0
H778 H 0.03042 0.58984 0.30558 0.0
H779 H 0.07734 0.57675 0.33704 0.0
C780 C 0.0183 0.99733 0.88352 0.0
C781 C 0.99853 0.03054 0.85748 0.0
C782 C 0.97982 0.96176 0.81625 0.0
C783 C 0.99226 0.92793 0.84442 0.0
N784 N 0.01824 0.9143 0.90741 0.0
N785 N 0.95218 0.04418 0.80197 0.0
C786 C 1.01093 0.94577 0.87866 0.0
C787 C 0.97734 0.01276 0.82446 0.0
N788 N 0.04334 0.01545 0.91321 0.0
N789 N 0.97107 0.94497 0.7814 0.0
H790 H 0.94953 0.08181 0.80726 0.0
H791 H 0.93035 0.03207 0.78015 0.0
H792 H 0.97468 0.9079 0.77434 0.0
H793 H 0.96552 0.96825 0.75903 0.0
H794 H 0.06284 0.99339 0.93161 0.0
H795 H 0.04792 0.05314 0.91753 0.0
H796 H 0.02636 0.92599 0.93406 0.0
H797 H 1.01217 0.87668 0.90568 0.0
C798 C 0.52705 0.95371 0.33886 0.0
C799 C 0.50908 0.97108 0.37323 0.0
C800 C 0.59408 0.97659 0.39663 0.0
C801 C 0.61215 0.96152 0.3617 0.0
N802 N 0.59766 0.94276 0.29807 0.0
N803 N 0.52435 1.00645 0.43271 0.0
C804 C 0.57902 0.95231 0.3323 0.0
C805 C 0.54243 0.98489 0.40146 0.0
N806 N 0.49437 0.93647 0.31324 0.0
N807 N 0.62612 0.98055 0.42557 0.0
H808 H 0.48664 0.01274 0.43667 0.0
H809 H 0.5466 0.02159 0.45318 0.0
H810 H 0.66395 0.97394 0.42295 0.0
H811 H 0.61495 0.98663 0.45264 0.0
H812 H 0.50486 0.91902 0.28891 0.0
H813 H 0.45626 0.93658 0.31754 0.0
H814 H 0.57597 0.93936 0.27457 0.0
H815 H 0.63557 0.94178 0.29277 0.0
C816 C 0.49874 0.07997 0.90203 0.0
C817 C 0.48112 0.09508 0.86691 0.0
C818 C 0.47137 1.00885 0.84887 0.0
C819 C 0.49307 0.9938 0.8826 0.0
N820 N 0.53814 0.01526 0.93739 0.0
N821 N 0.46439 0.07383 0.80374 0.0
C822 C 0.51011 0.02952 0.90801 0.0
C823 C 0.47176 0.0594 0.83931 0.0
N824 N 0.50222 0.11303 0.93025 0.0
N825 N 0.44771 0.9755 0.82697 0.0
H826 H 0.46676 0.11054 0.79564 0.0
H827 H 0.46158 0.04904 0.7819 0.0
H828 H 0.44324 0.93877 0.83433 0.0
H829 H 0.42768 0.98549 0.80362 0.0
H830 H 0.50991 0.10285 0.95731 0.0
H831 H 0.49294 0.14995 0.92748 0.0
H832 H 0.55535 0.04008 0.95511 0.0
H833 H 0.54835 0.9787 0.94172 0.0
C834 C 0.43968 0.44876 0.37526 0.0
C835 C 0.41714 0.47508 0.34601 0.0
C836 C 0.4981 0.50702 0.32754 0.0
C837 C 0.52042 0.48169 0.35752 0.0
N838 N 0.511 0.44031 0.41528 0.0
N839 N 0.42241 0.53606 0.29852 0.0
C840 C 0.49045 0.45652 0.38316 0.0
C841 C 0.44564 0.5068 0.32371 0.0
N842 N 0.41312 0.41482 0.39452 0.0
N843 N 0.52707 0.52859 0.30151 0.0
H844 H 0.38427 0.53492 0.29429 0.0
H845 H 0.44023 0.56368 0.28383 0.0
H846 H 0.56521 0.52989 0.30386 0.0
H847 H 0.51368 0.54258 0.27675 0.0
H848 H 0.42893 0.39077 0.41348 0.0
H849 H 0.37574 0.40827 0.38976 0.0
H850 H 0.49046 0.42542 0.43679 0.0
H851 H 0.54806 0.44662 0.42176 0.0
C852 C 0.08405 0.45879 0.85184 0.0
C853 C 0.04081 0.4298 0.84969 0.0
C854 C 0.9911 0.49995 0.87107 0.0
C855 C 0.03377 0.52999 0.87008 0.0
N856 N 0.11881 0.54082 0.85244 0.0
N857 N 0.95218 0.42394 0.85132 0.0
C858 C 0.07981 0.51013 0.85861 0.0
C859 C 0.99395 0.45066 0.8578 0.0
N860 N 0.12921 0.43678 0.84817 0.0
N861 N 0.9483 0.51838 0.88556 0.0
H862 H 0.95328 0.38815 0.84096 0.0
H863 H 0.91662 0.43847 0.85324 0.0
H864 H 0.94556 0.55425 0.89566 0.0
H865 H 0.91696 0.49717 0.89029 0.0
H866 H 0.16247 0.45491 0.85296 0.0
H867 H 0.13319 0.39909 0.84351 0.0
H868 H 0.15199 0.52925 0.84067 0.0
H869 H 0.11634 0.57885 0.85574 0.0
C870 C 0.03028 0.01841 0.3236 0.0
C871 C 1.01051 0.03212 0.35843 0.0
C872 C 0.09332 0.05559 0.37935 0.0
C873 C 0.11361 0.03917 0.34545 0.0
N874 N 0.10334 0.99614 0.28819 0.0
N875 N 0.02505 0.05012 0.42232 0.0
C876 C 0.08263 0.01737 0.31859 0.0
C877 C 0.04277 0.04647 0.38719 0.0
N878 N 0.9993 1.00969 0.29466 0.0
N879 N 0.12187 0.08129 0.40363 0.0
H880 H 0.98853 0.04162 0.42897 0.0
H881 H 0.04763 0.05616 0.44513 0.0
H882 H 0.15923 0.08825 0.39918 0.0
H883 H 0.10762 0.09866 0.42696 0.0
H884 H 1.01178 1.00418 0.26784 0.0
H885 H 0.96098 0.01215 0.29675 0.0
H886 H 0.0834 0.97438 0.26983 0.0
H887 H 0.14133 0.99691 0.28322 0.0
C888 C 0.48721 0.4498 0.17578 0.0
C889 C 0.50226 0.41645 0.14793 0.0
C890 C 0.52735 0.48651 0.10933 0.0
C891 C 0.50352 0.51878 0.13424 0.0
N892 N 0.45988 0.53242 0.191 0.0
N893 N 0.53995 0.40276 0.0883 0.0
C894 C 0.48393 0.50086 0.16778 0.0
C895 C 0.52436 0.43465 0.115 0.0
N896 N 0.47589 0.432 0.20988 0.0
N897 N 0.55227 0.50591 0.08007 0.0
H898 H 0.54024 0.36485 0.0915 0.0
H899 H 0.55063 0.41354 0.062 0.0
H900 H 0.55363 0.54371 0.07523 0.0
H901 H 0.57453 0.48544 0.06235 0.0
H902 H 0.4684 0.45426 0.2326 0.0
H903 H 0.47885 0.39462 0.21609 0.0
H904 H 0.44034 0.52114 0.21419 0.0
H905 H 0.4567 0.5699 0.18557 0.0
C906 C 0.0718 0.43631 0.60597 0.0
C907 C 0.09769 0.47608 0.62229 0.0
C908 C 0.02557 0.52936 0.61294 0.0
C909 C 0.99802 0.48825 0.60079 0.0
N910 N 0.99214 0.4012 0.59028 0.0
N911 N 0.09689 0.55837 0.64698 0.0
C912 C 0.02045 0.44128 0.5984 0.0
C913 C 0.07401 0.52223 0.62719 0.0
N914 N 0.09678 0.39436 0.59677 0.0
N915 N 1.00566 0.57532 0.60989 0.0
H916 H 0.1317 0.55372 0.6588 0.0
H917 H 0.07956 0.59113 0.65455 0.0
H918 H 0.97073 0.58131 0.59852 0.0
H919 H 0.02534 0.60741 0.61526 0.0
H920 H 0.08118 0.36583 0.58156 0.0
H921 H 0.13455 0.39003 0.6015 0.0
H922 H 1.00517 0.36519 0.59179 0.0
H923 H 0.95434 0.40381 0.58494 0.0
C924 C 0.04499 0.02646 0.15529 0.0
C925 C 0.04159 1.00871 0.11862 0.0
C926 C 0.04728 0.0934 0.09622 0.0
C927 C 0.04291 0.11134 0.13276 0.0
N928 N 0.03211 0.09505 0.19721 0.0
N929 N 0.03213 0.02583 0.05406 0.0
C930 C 0.0397 0.07776 0.16236 0.0
C931 C 0.04018 0.04249 0.08902 0.0
N932 N 0.05739 0.9949 0.18292 0.0
N933 N 0.06221 0.12428 0.0689 0.0
H934 H 0.02638 0.98869 0.0482 0.0
H935 H 0.02667 0.04931 0.03176 0.0
H936 H 0.07162 0.16081 0.07409 0.0
H937 H 0.07035 0.11233 0.04227 0.0
H938 H 0.06538 1.00666 0.20956 0.0
H939 H 0.06469 0.95774 0.17817 0.0
H940 H 0.02522 0.07211 0.21958 0.0
H941 H 0.02866 0.13255 0.20292 0.0
C942 C 0.45843 0.03124 0.66046 0.0
C943 C 0.43019 0.05638 0.63359 0.0
C944 C 0.50407 0.06402 0.59458 0.0
C945 C 0.53104 0.03473 0.61973 0.0
N946 N 0.53289 0.9849 0.67431 0.0
N947 N 0.42365 0.09111 0.57298 0.0
C948 C 0.50802 0.0171 0.65227 0.0
C949 C 0.45248 0.07161 0.60013 0.0
N950 N 0.43778 0.02161 0.694 0.0
N951 N 0.52828 0.08487 0.56557 0.0
H952 H 0.38573 0.09599 0.57619 0.0
H953 H 0.4363 0.09862 0.54651 0.0
H954 H 0.56606 0.07964 0.56113 0.0
H955 H 0.51215 0.11032 0.54784 0.0
H956 H 0.45747 1.00738 0.7162 0.0
H957 H 0.40149 0.03153 0.70043 0.0
H958 H 0.51692 0.96655 0.69644 0.0
H959 H 0.56889 0.97375 0.66861 0.0
C960 C 0.79292 0.21579 0.20069 0.0
C961 C 0.81047 0.26476 0.19811 0.0
C962 C 0.72461 0.29527 0.19811 0.0
C963 C 0.70776 0.24598 0.19617 0.0
N964 N 0.72472 0.15918 0.20117 0.0
N965 N 0.79427 0.3516 0.19568 0.0
C966 C 0.74157 0.20643 0.19971 0.0
C967 C 0.77644 0.30473 0.19828 0.0
N968 N 0.82443 0.17674 0.20176 0.0
N969 N 0.69088 0.3328 0.19921 0.0
H970 H 0.83173 0.35969 0.19889 0.0
H971 H 0.77271 0.38217 0.18938 0.0
H972 H 0.65284 0.32685 0.19882 0.0
H973 H 0.69994 0.36965 0.20264 0.0
H974 H 0.86285 0.17982 0.20257 0.0
H975 H 0.86285 0.17982 0.20257 0.0
H976 H 0.74842 0.12897 0.20348 0.0
H977 H 0.68711 0.15067 0.20134 0.0
C978 C 0.3011 0.7389 0.69782 0.0
C979 C 0.25701 0.71067 0.69648 0.0
C980 C 0.20757 0.78626 0.69206 0.0
C981 C 0.25155 0.81477 0.69281 0.0
N982 N 0.33887 0.81937 0.70522 0.0
N983 N 0.16763 0.70865 0.69916 0.0
C984 C 0.29793 0.79126 0.6987 0.0
C985 C 0.21042 0.73466 0.69656 0.0
N986 N 0.34598 0.71575 0.6961 0.0
N987 N 0.16272 0.80751 0.68507 0.0
H988 H 0.16631 0.67068 0.70332 0.0
H989 H 0.16631 0.67068 0.70332 0.0
H990 H 0.1581 0.84453 0.67869 0.0
H991 H 0.13005 0.7872 0.68394 0.0
H992 H 0.37929 0.73399 0.69204 0.0
H993 H 0.34993 0.67763 0.69669 0.0
H994 H 0.37359 0.80518 0.71135 0.0
H995 H 0.33727 0.85759 0.70758 0.0
C996 C 0.78499 0.2828 0.78254 0.0
C997 C 0.80811 0.23737 0.79184 0.0
C998 C 0.72607 0.1983 0.79297 0.0
C999 C 0.70353 0.2451 0.79026 0.0
N1000 N 0.71227 0.33219 0.77794 0.0
N1001 N 0.79856 0.15266 0.81154 0.0
C1002 C 0.73292 0.28706 0.78337 0.0
C1003 C 0.77826 0.19484 0.79767 0.0
N1004 N 0.81285 0.32314 0.77431 0.0
N1005 N 0.69707 0.15729 0.79201 0.0
H1006 H 0.83562 0.14911 0.81871 0.0
H1007 H 0.77765 0.12252 0.81974 0.0
H1008 H 0.65878 0.15946 0.78867 0.0
H1009 H 0.71118 0.12165 0.79066 0.0
H1010 H 0.79753 0.35798 0.77068 0.0
H1011 H 0.85098 0.32151 0.77024 0.0
H1012 H 0.67426 0.33882 0.77745 0.0
H1013 H 0.67426 0.33882 0.77745 0.0
C1014 C 0.23966 0.78235 0.28883 0.0
C1015 C 0.28851 0.79831 0.29636 0.0
C1016 C 0.31575 0.71191 0.29803 0.0
C1017 C 0.26559 0.69687 0.29728 0.0
N1018 N 0.17936 0.71871 0.28878 0.0
N1019 N 0.37339 0.77788 0.31068 0.0
C1020 C 0.22772 0.73207 0.29151 0.0
C1021 C 0.32707 0.76304 0.30065 0.0
N1022 N 0.20351 0.81579 0.28076 0.0
N1023 N 0.35244 0.67732 0.29708 0.0
H1024 H 0.3834 0.81463 0.31344 0.0
H1025 H 0.40128 0.75372 0.31869 0.0
H1026 H 0.34525 0.63969 0.29625 0.0
H1027 H 0.38965 0.6859 0.29359 0.0
H1028 H 0.16667 0.80569 0.27699 0.0
H1029 H 0.21102 0.85298 0.2764 0.0
H1030 H 0.16708 0.68235 0.28944 0.0
H1031 H 0.16708 0.68235 0.28944 0.0
C1032 C 0.24162 0.71934 0.78939 0.0
C1033 C 0.20943 0.76057 0.79045 0.0
C1034 C 0.2812 0.81546 0.78837 0.0
C1035 C 0.31279 0.77426 0.79345 0.0
N1036 N 0.32327 0.686 0.79703 0.0
N1037 N 0.19787 0.8484 0.79195 0.0
C1038 C 0.29317 0.726 0.79273 0.0
C1039 C 0.229 0.8089 0.78926 0.0
N1040 N 0.22363 0.67272 0.78715 0.0
N1041 N 0.30147 0.86083 0.78291 0.0
H1042 H 0.1595 0.84506 0.79138 0.0
H1043 H 0.20988 0.88427 0.79639 0.0
H1044 H 0.33964 0.86632 0.78204 0.0
H1045 H 0.281 0.89184 0.77576 0.0
H1046 H 0.18622 0.66446 0.7838 0.0
H1047 H 0.18622 0.66446 0.7838 0.0
H1048 H 0.3096 0.65018 0.79829 0.0
H1049 H 0.36149 0.68849 0.79993 0.0
C1050 C 0.82658 0.23289 0.29646 0.0
C1051 C 0.78372 0.2026 0.29572 0.0
C1052 C 0.73122 0.27646 0.29099 0.0
C1053 C 0.77414 0.30626 0.29335 0.0
N1054 N 0.86277 0.31354 0.2927 0.0
N1055 N 0.6966 0.19435 0.28421 0.0
C1056 C 0.82167 0.28448 0.29337 0.0
C1057 C 0.73641 0.22425 0.29011 0.0
N1058 N 0.87271 0.21433 0.30233 0.0
N1059 N 0.68556 0.29818 0.2915 0.0
H1060 H 0.69998 0.1563 0.28129 0.0
H1061 H 0.66078 0.20669 0.27981 0.0
H1062 H 0.68056 0.33618 0.29057 0.0
H1063 H 0.65252 0.27912 0.29424 0.0
H1064 H 0.88069 0.17727 0.30669 0.0
H1065 H 0.88069 0.17727 0.30669 0.0
H1066 H 0.89859 0.29925 0.29404 0.0
H1067 H 0.86075 0.35164 0.28949 0.0
C1068 C 0.29857 0.82121 0.19563 0.0
C1069 C 0.31745 0.77275 0.19836 0.0
C1070 C 0.2335 0.74038 0.20221 0.0
C1071 C 0.21404 0.78781 0.19396 0.0
N1072 N 0.22899 0.87351 0.17999 0.0
N1073 N 0.30352 0.68619 0.20723 0.0
C1074 C 0.24671 0.82869 0.19088 0.0
C1075 C 0.28507 0.73264 0.20308 0.0
N1076 N 0.33074 0.85982 0.1964 0.0
N1077 N 0.20349 0.70113 0.2085 0.0
H1078 H 0.3413 0.67885 0.20934 0.0
H1079 H 0.2808 0.65533 0.20878 0.0
H1080 H 0.165 0.70329 0.20986 0.0
H1081 H 0.165 0.70329 0.20986 0.0
H1082 H 0.31975 0.89648 0.19798 0.0
H1083 H 0.36882 0.85478 0.19921 0.0
H1084 H 0.25143 0.90315 0.17321 0.0
H1085 H 0.1918 0.8806 0.17495 0.0
C1086 C 0.80435 0.22308 0.69277 0.0
C1087 C 0.75452 0.20665 0.69189 0.0
C1088 C 0.72533 0.29184 0.68756 0.0
C1089 C 0.77508 0.30854 0.68716 0.0
N1090 N 0.86116 0.29168 0.69861 0.0
N1091 N 0.66743 0.2254 0.69344 0.0
C1092 C 0.81434 0.27452 0.69283 0.0
C1093 C 0.71525 0.24123 0.69177 0.0
N1094 N 0.84218 0.18973 0.69065 0.0
N1095 N 0.68629 0.32285 0.68247 0.0
H1096 H 0.65821 0.18872 0.69832 0.0
H1097 H 0.63731 0.24923 0.69094 0.0
H1098 H 0.68925 0.36057 0.6779 0.0
H1099 H 0.68925 0.36057 0.6779 0.0
H1100 H 0.87893 0.19939 0.68639 0.0
H1101 H 0.83679 0.15184 0.69097 0.0
H1102 H 0.89056 0.2695 0.70685 0.0
H1103 H 0.86951 0.32913 0.699 0.0
C1104 C 0.33649 0.12626 0.24424 0.0
C1105 C 0.36132 0.08598 0.26126 0.0
C1106 C 0.44115 0.11909 0.23978 0.0
C1107 C 0.41589 0.15763 0.22134 0.0
N1108 N 0.33921 0.19159 0.19898 0.0
N1109 N 0.43652 0.03894 0.26861 0.0
C1110 C 0.36348 0.1594 0.22159 0.0
C1111 C 0.41351 0.08103 0.25723 0.0
N1112 N 0.28741 0.13449 0.25087 0.0
N1113 N 0.49163 0.11957 0.24154 0.0
H1114 H 0.41768 0.01 0.28086 0.0
H1115 H 0.47331 0.03059 0.26288 0.0
H1116 H 0.51307 0.14627 0.22862 0.0
H1117 H 0.51219 0.09586 0.25805 0.0
H1118 H 0.26921 0.16679 0.24344 0.0
H1119 H 0.26535 0.11106 0.26628 0.0
H1120 H 0.30119 0.19062 0.19451 0.0
H1121 H 0.35743 0.2164 0.18189 0.0
C1122 C 0.43496 0.36662 0.73056 0.0
C1123 C 0.4319 0.36859 0.76946 0.0
C1124 C 0.36826 0.43277 0.76527 0.0
C1125 C 0.37192 0.43132 0.72643 0.0
N1126 N 0.39426 0.38377 0.67262 0.0
N1127 N 0.38136 0.38917 0.8224 0.0
C1128 C 0.40034 0.39373 0.7092 0.0
C1129 C 0.39372 0.39679 0.78642 0.0
N1130 N 0.47139 0.33963 0.71399 0.0
N1131 N 0.34131 0.46899 0.78203 0.0
H1132 H 0.39711 0.36149 0.8383 0.0
H1133 H 0.35139 0.40634 0.83512 0.0
H1134 H 0.31993 0.49417 0.76731 0.0
H1135 H 0.34244 0.47558 0.81032 0.0
H1136 H 0.47928 0.34185 0.68594 0.0
H1137 H 0.4954 0.31693 0.72871 0.0
H1138 H 0.41152 0.35441 0.6593 0.0
H1139 H 0.36757 0.40119 0.65662 0.0
C1140 C 0.10187 0.40081 0.28471 0.0
C1141 C 0.13422 0.43845 0.27218 0.0
C1142 C 0.11449 0.41577 0.20804 0.0
C1143 C 0.07545 0.38506 0.22071 0.0
N1144 N 0.03171 0.34829 0.27155 0.0
N1145 N 0.17101 0.48246 0.22156 0.0
C1146 C 0.06928 0.37747 0.25919 0.0
C1147 C 0.14053 0.4459 0.23373 0.0
N1148 N 0.10246 0.38658 0.3208 0.0
N1149 N 0.12753 0.41597 0.17164 0.0
H1150 H 0.19408 0.50243 0.239 0.0
H1151 H 0.17157 0.4948 0.19443 0.0
H1152 H 0.11029 0.39484 0.15157 0.0
H1153 H 0.15901 0.43343 0.1617 0.0
H1154 H 0.08362 0.35594 0.3306 0.0
H1155 H 0.1255 0.40194 0.3406 0.0
H1156 H 0.02042 0.34711 0.29897 0.0
H1157 H 1.01001 0.32687 0.25411 0.0
C1158 C 0.15002 0.18722 0.74475 0.0
C1159 C 0.10549 0.16482 0.75699 0.0
C1160 C 0.14274 0.08347 0.74714 0.0
C1161 C 0.18419 0.10529 0.73014 0.0
N1162 N 0.22902 0.17814 0.71339 0.0
N1163 N 0.05934 0.08962 0.76716 0.0
C1164 C 0.18849 0.15734 0.72939 0.0
C1165 C 0.10181 0.11277 0.75736 0.0
N1166 N 0.15607 0.23681 0.74873 0.0
N1167 N 0.14248 0.03428 0.75425 0.0
H1168 H 0.02645 0.10792 0.77335 0.0
H1169 H 0.02645 0.10792 0.77335 0.0
H1170 H 0.17432 0.01292 0.75168 0.0
H1171 H 0.11232 0.01656 0.76625 0.0
H1172 H 0.18935 0.25492 0.7442 0.0
H1173 H 0.12838 0.25977 0.75888 0.0
H1174 H 0.23183 0.21536 0.70714 0.0
H1175 H 0.25979 0.15749 0.7056 0.0
C1176 C 0.65206 0.93529 0.76202 0.0
C1177 C 0.64636 0.9307 0.72334 0.0
C1178 C 0.58207 0.86816 0.73234 0.0
C1179 C 0.58658 0.87389 0.77111 0.0
N1180 N 0.63579 0.90247 0.82271 0.0
N1181 N 0.61518 0.88453 0.67144 0.0
C1182 C 0.62486 0.90392 0.78595 0.0
C1183 C 0.61462 0.89414 0.70844 0.0
N1184 N 0.68271 0.97067 0.77596 0.0
N1185 N 0.54573 0.83867 0.71832 0.0
H1186 H 0.6367 0.90404 0.65277 0.0
H1187 H 0.59698 0.85493 0.65937 0.0
H1188 H 0.52403 0.81587 0.73475 0.0
H1189 H 0.53558 0.83814 0.69067 0.0
H1190 H 0.68312 0.98119 0.80355 0.0
H1191 H 0.70633 0.99144 0.75949 0.0
H1192 H 0.66665 0.91938 0.8342 0.0
H1193 H 0.61717 0.88081 0.84168 0.0
C1194 C 0.58381 0.64421 0.26413 0.0
C1195 C 0.5887 0.64509 0.22529 0.0
C1196 C 0.65396 0.58235 0.22871 0.0
C1197 C 0.64855 0.58107 0.2674 0.0
N1198 N 0.62205 0.62383 0.32238 0.0
N1199 N 0.64292 0.62962 0.17312 0.0
C1200 C 0.61803 0.61639 0.28532 0.0
C1201 C 0.62847 0.61902 0.20827 0.0
N1202 N 0.54621 0.66949 0.2808 0.0
N1203 N 0.68278 0.5481 0.21132 0.0
H1204 H 0.62717 0.65739 0.15735 0.0
H1205 H 0.67439 0.61445 0.161 0.0
H1206 H 0.70421 0.52251 0.22559 0.0
H1207 H 0.68308 0.5434 0.18281 0.0
H1208 H 0.53689 0.66498 0.30844 0.0
H1209 H 0.52279 0.69327 0.26649 0.0
H1210 H 0.60333 0.65168 0.33642 0.0
H1211 H 0.64847 0.60606 0.33838 0.0
C1212 C 0.87452 0.58685 0.75405 0.0
C1213 C 0.88372 0.58541 0.71559 0.0
C1214 C 0.95084 0.64561 0.7232 0.0
C1215 C 0.9426 0.64611 0.76187 0.0
N1216 N 0.88829 0.62602 0.81302 0.0
N1217 N 0.92237 0.62231 0.66236 0.0
C1218 C 0.90173 0.61975 0.77696 0.0
C1219 C 0.91911 0.61773 0.69976 0.0
N1220 N 0.84016 0.5558 0.76892 0.0
N1221 N 0.98983 0.67115 0.70883 0.0
H1222 H 0.90182 0.60146 0.64389 0.0
H1223 H 0.94269 0.64969 0.64935 0.0
H1224 H 1.01084 0.69586 0.72425 0.0
H1225 H 1.00282 0.66644 0.68205 0.0
H1226 H 0.83708 0.54878 0.797 0.0
H1227 H 0.81582 0.53506 0.75295 0.0
H1228 H 0.85535 0.61289 0.824 0.0
H1229 H 0.90742 0.64742 0.83191 0.0
C1230 C 0.8819 0.83225 0.24086 0.0
C1231 C 0.92157 0.85649 0.22256 0.0
C1232 C 0.88326 0.93601 0.23769 0.0
C1233 C 0.84894 0.9124 0.26092 0.0
N1234 N 0.81616 0.83747 0.28617 0.0
N1235 N 0.96474 0.93262 0.21121 0.0
C1236 C 0.84846 0.86029 0.26299 0.0
C1237 C 0.92349 0.90875 0.22305 0.0
N1238 N 0.87422 0.78307 0.2356 0.0
N1239 N 0.87628 0.98407 0.22829 0.0
H1240 H 0.99653 0.91402 0.20301 0.0
H1241 H 0.96918 0.97052 0.21366 0.0
H1242 H 0.84416 1.00305 0.23547 0.0
H1243 H 0.89832 1.00235 0.20919 0.0
H1244 H 0.8429 0.76478 0.24499 0.0
H1245 H 0.89648 0.76113 0.2189 0.0
H1246 H 0.81841 0.80026 0.29277 0.0
H1247 H 0.78834 0.85644 0.30007 0.0
loop_
_geom_bond_atom_site_label_1
_geom_bond_atom_site_label_2
_geom_bond_distance
_geom_bond_site_symmetry_2
_ccdc_geom_bond_type
Co0 N4 2.148 . S
Co0 N10 2.128 . S
Co0 N20 2.194 . S
Co0 O25 2.351 . S
Co0 O26 2.155 . S
Co0 O27 2.096 . S
C1 N4 1.301 . S
C1 N5 1.328 . S
C1 H6 0.930 . S
C2 C3 1.333 . S
C2 N4 1.317 . S
C2 H7 0.930 . S
C3 C2 1.333 . S
C3 N5 1.350 . S
C3 H29 0.931 . S
N4 Co0 2.148 . S
N4 C1 1.301 . S
N4 C2 1.317 . S
N5 C1 1.328 . S
N5 C3 1.350 . S
H6 C1 0.930 . S
H7 C2 0.930 . S
C8 O9 1.224 . S
C8 O27 1.247 . S
O9 C8 1.224 . S
N10 Co0 2.128 . S
N10 C11 1.355 . S
N10 C13 1.311 . S
C11 N10 1.355 . S
C11 C12 1.363 . S
C11 H23 0.929 . S
C12 C11 1.363 . S
C12 N14 1.375 . S
C12 H30 0.931 . S
C13 N10 1.311 . S
C13 N14 1.347 . S
C13 H24 0.929 . S
N14 C12 1.375 . S
N14 C13 1.347 . S
C15 C18 1.365 . S
C15 N20 1.328 . S
C15 H21 0.929 . S
C16 C17 1.362 . S
C16 C19 1.378 . S
C16 H31 0.929 . S
C17 C16 1.362 . S
C17 C18 1.366 . S
C18 C15 1.365 . S
C18 C17 1.366 . S
C18 H32 0.930 . S
C19 C16 1.378 . S
C19 N20 1.315 . S
C19 H22 0.930 . S
N20 Co0 2.194 . S
N20 C15 1.328 . S
N20 C19 1.315 . S
H21 C15 0.929 . S
H22 C19 0.930 . S
H23 C11 0.929 . S
H24 C13 0.929 . S
O25 Co0 2.351 . S
O25 C28 1.244 . S
O26 Co0 2.155 . S
O26 C28 1.240 . S
O27 Co0 2.096 . S
O27 C8 1.247 . S
C28 O25 1.244 . S
C28 O26 1.240 . S
H29 C3 0.931 . S
H30 C12 0.931 . S
H31 C16 0.929 . S
H32 C18 0.930 . S
Co33 N37 2.148 . S
Co33 N43 2.128 . S
Co33 N53 2.194 . S
Co33 O58 2.351 . S
Co33 O59 2.155 . S
Co33 O60 2.096 . S
C34 N37 1.301 . S
C34 N38 1.328 . S
C34 H39 0.930 . S
C35 C36 1.333 . S
C35 N37 1.317 . S
C35 H40 0.930 . S
C36 C35 1.333 . S
C36 N38 1.350 . S
C36 H62 0.931 . S
N37 Co33 2.148 . S
N37 C34 1.301 . S
N37 C35 1.317 . S
N38 C34 1.328 . S
N38 C36 1.350 . S
H39 C34 0.930 . S
H40 C35 0.930 . S
C41 O42 1.224 . S
C41 O60 1.247 . S
O42 C41 1.224 . S
N43 Co33 2.128 . S
N43 C44 1.355 . S
N43 C46 1.311 . S
C44 N43 1.355 . S
C44 C45 1.363 . S
C44 H56 0.929 . S
C45 C44 1.363 . S
C45 N47 1.375 . S
C45 H63 0.931 . S
C46 N43 1.311 . S
C46 N47 1.347 . S
C46 H57 0.929 . S
N47 C45 1.375 . S
N47 C46 1.347 . S
C48 C51 1.365 . S
C48 N53 1.328 . S
C48 H54 0.929 . S
C49 C50 1.362 . S
C49 C52 1.378 . S
C49 H64 0.929 . S
C50 C49 1.362 . S
C50 C51 1.366 . S
C51 C48 1.365 . S
C51 C50 1.366 . S
C51 H65 0.930 . S
C52 C49 1.378 . S
C52 N53 1.315 . S
C52 H55 0.930 . S
N53 Co33 2.194 . S
N53 C48 1.328 . S
N53 C52 1.315 . S
H54 C48 0.929 . S
H55 C52 0.930 . S
H56 C44 0.929 . S
H57 C46 0.929 . S
O58 Co33 2.351 . S
O58 C61 1.244 . S
O59 Co33 2.155 . S
O59 C61 1.240 . S
O60 Co33 2.096 . S
O60 C41 1.247 . S
C61 O58 1.244 . S
C61 O59 1.240 . S
H62 C36 0.931 . S
H63 C45 0.931 . S
H64 C49 0.929 . S
H65 C51 0.930 . S
Co66 N70 2.148 . S
Co66 N76 2.128 . S
Co66 N86 2.194 1_455 S
Co66 O91 2.351 1_455 S
Co66 O92 2.155 . S
Co66 O93 2.096 . S
C67 N70 1.301 . S
C67 N71 1.328 . S
C67 H72 0.930 1_455 S
C68 C69 1.333 . S
C68 N70 1.317 . S
C68 H73 0.930 . S
C69 C68 1.333 . S
C69 N71 1.350 . S
C69 H95 0.931 . S
N70 Co66 2.148 . S
N70 C67 1.301 . S
N70 C68 1.317 . S
N71 C67 1.328 . S
N71 C69 1.350 . S
H72 C67 0.930 1_655 S
H73 C68 0.930 . S
C74 O75 1.224 . S
C74 O93 1.247 . S
O75 C74 1.224 . S
N76 Co66 2.128 . S
N76 C77 1.355 1_455 S
N76 C79 1.311 . S
C77 N76 1.355 1_655 S
C77 C78 1.363 . S
C77 H89 0.929 . S
C78 C77 1.363 . S
C78 N80 1.372 1_655 S
C78 H96 0.931 . S
C79 N76 1.311 . S
C79 N80 1.349 . S
C79 H90 0.929 . S
N80 C78 1.372 1_455 S
N80 C79 1.349 . S
C81 C84 1.365 . S
C81 N86 1.328 . S
C81 H87 0.929 . S
C82 C83 1.362 . S
C82 C85 1.378 . S
C82 H97 0.929 . S
C83 C82 1.362 . S
C83 C84 1.366 . S
C84 C81 1.365 . S
C84 C83 1.366 . S
C84 H98 0.930 . S
C85 C82 1.378 . S
C85 N86 1.315 . S
C85 H88 0.930 . S
N86 Co66 2.194 1_655 S
N86 C81 1.328 . S
N86 C85 1.315 . S
H87 C81 0.929 . S
H88 C85 0.930 . S
H89 C77 0.929 . S
H90 C79 0.929 . S
O91 Co66 2.351 1_655 S
O91 C94 1.244 1_655 S
O92 Co66 2.155 . S
O92 C94 1.240 . S
O93 Co66 2.096 . S
O93 C74 1.247 . S
C94 O91 1.244 1_455 S
C94 O92 1.240 . S
H95 C69 0.931 . S
H96 C78 0.931 . S
H97 C82 0.929 . S
H98 C84 0.930 . S
Co99 N103 2.148 . S
Co99 N109 2.128 . S
Co99 N119 2.194 1_545 S
Co99 O124 2.351 1_545 S
Co99 O125 2.155 . S
Co99 O126 2.096 . S
C100 N103 1.301 . S
C100 N104 1.328 . S
C100 H105 0.930 1_545 S
C101 C102 1.333 . S
C101 N103 1.317 . S
C101 H106 0.930 . S
C102 C101 1.333 . S
C102 N104 1.350 . S
C102 H128 0.931 . S
N103 Co99 2.148 . S
N103 C100 1.301 . S
N103 C101 1.317 . S
N104 C100 1.328 . S
N104 C102 1.350 . S
H105 C100 0.930 1_565 S
H106 C101 0.930 . S
C107 O108 1.224 . S
C107 O126 1.247 . S
O108 C107 1.224 . S
N109 Co99 2.128 . S
N109 C110 1.355 1_545 S
N109 C112 1.311 . S
C110 N109 1.355 1_565 S
C110 C111 1.363 . S
C110 H122 0.929 . S
C111 C110 1.363 . S
C111 N113 1.375 1_565 S
C111 H129 0.931 . S
C112 N109 1.311 . S
C112 N113 1.347 . S
C112 H123 0.929 . S
N113 C111 1.375 1_545 S
N113 C112 1.347 . S
C114 C117 1.365 . S
C114 N119 1.328 . S
C114 H120 0.929 . S
C115 C116 1.362 . S
C115 C118 1.378 . S
C115 H130 0.929 . S
C116 C115 1.362 . S
C116 C117 1.366 . S
C117 C114 1.365 . S
C117 C116 1.366 . S
C117 H131 0.930 . S
C118 C115 1.378 . S
C118 N119 1.315 . S
C118 H121 0.930 . S
N119 Co99 2.194 1_565 S
N119 C114 1.328 . S
N119 C118 1.315 . S
H120 C114 0.929 . S
H121 C118 0.930 . S
H122 C110 0.929 . S
H123 C112 0.929 . S
O124 Co99 2.351 1_565 S
O124 C127 1.244 1_565 S
O125 Co99 2.155 . S
O125 C127 1.240 . S
O126 Co99 2.096 . S
O126 C107 1.247 . S
C127 O124 1.244 1_545 S
C127 O125 1.240 . S
H128 C102 0.931 . S
H129 C111 0.931 . S
H130 C115 0.929 . S
H131 C117 0.930 . S
Co132 N136 2.148 . S
Co132 N142 2.128 . S
Co132 N152 2.194 . S
Co132 O157 2.351 . S
Co132 O158 2.155 . S
Co132 O159 2.096 . S
C133 N136 1.301 . S
C133 N137 1.328 . S
C133 H138 0.930 . S
C134 C135 1.333 . S
C134 N136 1.317 . S
C134 H139 0.930 . S
C135 C134 1.333 . S
C135 N137 1.350 . S
C135 H161 0.931 . S
N136 Co132 2.148 . S
N136 C133 1.301 . S
N136 C134 1.317 . S
N137 C133 1.328 . S
N137 C135 1.350 . S
H138 C133 0.930 . S
H139 C134 0.930 . S
C140 O141 1.224 . S
C140 O159 1.247 . S
O141 C140 1.224 . S
N142 Co132 2.128 . S
N142 C143 1.355 . S
N142 C145 1.311 . S
C143 N142 1.355 . S
C143 C144 1.363 . S
C143 H155 0.929 . S
C144 C143 1.363 . S
C144 N146 1.375 . S
C144 H162 0.931 . S
C145 N142 1.311 . S
C145 N146 1.347 . S
C145 H156 0.929 . S
N146 C144 1.375 . S
N146 C145 1.347 . S
C147 C150 1.365 . S
C147 N152 1.328 . S
C147 H153 0.929 . S
C148 C149 1.362 . S
C148 C151 1.378 . S
C148 H163 0.929 . S
C149 C148 1.362 . S
C149 C150 1.366 . S
C150 C147 1.365 . S
C150 C149 1.366 . S
C150 H164 0.930 . S
C151 C148 1.378 . S
C151 N152 1.315 . S
C151 H154 0.930 . S
N152 Co132 2.194 . S
N152 C147 1.328 . S
N152 C151 1.315 . S
H153 C147 0.929 . S
H154 C151 0.930 . S
H155 C143 0.929 . S
H156 C145 0.929 . S
O157 Co132 2.351 . S
O157 C160 1.244 . S
O158 Co132 2.155 . S
O158 C160 1.240 . S
O159 Co132 2.096 . S
O159 C140 1.247 . S
C160 O157 1.244 . S
C160 O158 1.240 . S
H161 C135 0.931 . S
H162 C144 0.931 . S
H163 C148 0.929 . S
H164 C150 0.930 . S
Co165 N169 2.148 . S
Co165 N175 2.128 . S
Co165 N185 2.194 . S
Co165 O190 2.351 . S
Co165 O191 2.155 . S
Co165 O192 2.096 . S
C166 N169 1.301 . S
C166 N170 1.328 . S
C166 H171 0.930 . S
C167 C168 1.333 . S
C167 N169 1.317 . S
C167 H172 0.930 . S
C168 C167 1.333 . S
C168 N170 1.350 . S
C168 H194 0.931 . S
N169 Co165 2.148 . S
N169 C166 1.301 . S
N169 C167 1.317 . S
N170 C166 1.328 . S
N170 C168 1.350 . S
H171 C166 0.930 . S
H172 C167 0.930 . S
C173 O174 1.224 . S
C173 O192 1.247 . S
O174 C173 1.224 . S
N175 Co165 2.128 . S
N175 C176 1.355 . S
N175 C178 1.311 . S
C176 N175 1.355 . S
C176 C177 1.363 . S
C176 H188 0.929 . S
C177 C176 1.363 . S
C177 N179 1.375 . S
C177 H195 0.931 . S
C178 N175 1.311 . S
C178 N179 1.347 . S
C178 H189 0.929 . S
N179 C177 1.375 . S
N179 C178 1.347 . S
C180 C183 1.365 . S
C180 N185 1.328 . S
C180 H186 0.929 . S
C181 C182 1.362 . S
C181 C184 1.378 . S
C181 H196 0.929 . S
C182 C181 1.362 . S
C182 C183 1.366 . S
C183 C180 1.365 . S
C183 C182 1.366 . S
C183 H197 0.930 . S
C184 C181 1.378 . S
C184 N185 1.315 . S
C184 H187 0.930 . S
N185 Co165 2.194 . S
N185 C180 1.328 . S
N185 C184 1.315 . S
H186 C180 0.929 . S
H187 C184 0.930 . S
H188 C176 0.929 . S
H189 C178 0.929 . S
O190 Co165 2.351 . S
O190 C193 1.244 . S
O191 Co165 2.155 . S
O191 C193 1.240 . S
O192 Co165 2.096 . S
O192 C173 1.247 . S
C193 O190 1.244 . S
C193 O191 1.240 . S
H194 C168 0.931 . S
H195 C177 0.931 . S
H196 C181 0.929 . S
H197 C183 0.930 . S
Co198 N202 2.148 . S
Co198 N208 2.128 . S
Co198 N218 2.194 1_455 S
Co198 O223 2.351 1_455 S
Co198 O224 2.155 . S
Co198 O225 2.096 . S
C199 N202 1.301 . S
C199 N203 1.328 . S
C199 H204 0.930 1_455 S
C200 C201 1.333 . S
C200 N202 1.317 . S
C200 H205 0.930 . S
C201 C200 1.333 . S
C201 N203 1.350 . S
C201 H227 0.931 . S
N202 Co198 2.148 . S
N202 C199 1.301 . S
N202 C200 1.317 . S
N203 C199 1.328 . S
N203 C201 1.350 . S
H204 C199 0.930 1_655 S
H205 C200 0.930 . S
C206 O207 1.224 . S
C206 O225 1.247 . S
O207 C206 1.224 . S
N208 Co198 2.128 . S
N208 C209 1.355 1_455 S
N208 C211 1.311 . S
C209 N208 1.355 1_655 S
C209 C210 1.363 . S
C209 H221 0.929 . S
C210 C209 1.363 . S
C210 N212 1.375 1_655 S
C210 H228 0.931 . S
C211 N208 1.311 . S
C211 N212 1.347 . S
C211 H222 0.929 . S
N212 C210 1.375 1_455 S
N212 C211 1.347 . S
C213 C216 1.365 . S
C213 N218 1.328 . S
C213 H219 0.929 . S
C214 C215 1.362 . S
C214 C217 1.378 . S
C214 H229 0.929 . S
C215 C214 1.362 . S
C215 C216 1.366 . S
C216 C213 1.365 . S
C216 C215 1.366 . S
C216 H230 0.930 . S
C217 C214 1.378 . S
C217 N218 1.315 . S
C217 H220 0.930 . S
N218 Co198 2.194 1_655 S
N218 C213 1.328 . S
N218 C217 1.315 . S
H219 C213 0.929 . S
H220 C217 0.930 . S
H221 C209 0.929 . S
H222 C211 0.929 . S
O223 Co198 2.351 1_655 S
O223 C226 1.244 1_655 S
O224 Co198 2.155 . S
O224 C226 1.240 . S
O225 Co198 2.096 . S
O225 C206 1.247 . S
C226 O223 1.244 1_455 S
C226 O224 1.240 . S
H227 C201 0.931 . S
H228 C210 0.931 . S
H229 C214 0.929 . S
H230 C216 0.930 . S
Co231 N235 2.148 . S
Co231 N241 2.128 . S
Co231 N251 2.194 1_545 S
Co231 O256 2.351 1_545 S
Co231 O257 2.155 . S
Co231 O258 2.096 . S
C232 N235 1.301 . S
C232 N236 1.328 . S
C232 H237 0.930 1_545 S
C233 C234 1.333 . S
C233 N235 1.317 . S
C233 H238 0.930 . S
C234 C233 1.333 . S
C234 N236 1.350 . S
C234 H260 0.931 . S
N235 Co231 2.148 . S
N235 C232 1.301 . S
N235 C233 1.317 . S
N236 C232 1.328 . S
N236 C234 1.350 . S
H237 C232 0.930 1_565 S
H238 C233 0.930 . S
C239 O240 1.224 . S
C239 O258 1.247 . S
O240 C239 1.224 . S
N241 Co231 2.128 . S
N241 C242 1.355 1_545 S
N241 C244 1.311 . S
C242 N241 1.355 1_565 S
C242 C243 1.363 . S
C242 H254 0.929 . S
C243 C242 1.363 . S
C243 N245 1.372 1_565 S
C243 H261 0.931 . S
C244 N241 1.311 . S
C244 N245 1.349 . S
C244 H255 0.929 . S
N245 C243 1.372 1_545 S
N245 C244 1.349 . S
C246 C249 1.365 . S
C246 N251 1.328 . S
C246 H252 0.929 . S
C247 C248 1.362 . S
C247 C250 1.378 . S
C247 H262 0.929 . S
C248 C247 1.362 . S
C248 C249 1.366 . S
C249 C246 1.365 . S
C249 C248 1.366 . S
C249 H263 0.930 . S
C250 C247 1.378 . S
C250 N251 1.315 . S
C250 H253 0.930 . S
N251 Co231 2.194 1_565 S
N251 C246 1.328 . S
N251 C250 1.315 . S
H252 C246 0.929 . S
H253 C250 0.930 . S
H254 C242 0.929 . S
H255 C244 0.929 . S
O256 Co231 2.351 1_565 S
O256 C259 1.244 1_565 S
O257 Co231 2.155 . S
O257 C259 1.240 . S
O258 Co231 2.096 . S
O258 C239 1.247 . S
C259 O256 1.244 1_545 S
C259 O257 1.240 . S
H260 C234 0.931 . S
H261 C243 0.931 . S
H262 C247 0.929 . S
H263 C249 0.930 . S
Co264 N268 2.148 . S
Co264 N274 2.128 . S
Co264 N284 2.194 . S
Co264 O289 2.351 . S
Co264 O290 2.155 . S
Co264 O291 2.096 . S
C265 N268 1.301 . S
C265 N269 1.328 . S
C265 H270 0.930 . S
C266 C267 1.333 . S
C266 N268 1.317 . S
C266 H271 0.930 . S
C267 C266 1.333 . S
C267 N269 1.350 . S
C267 H293 0.931 . S
N268 Co264 2.148 . S
N268 C265 1.301 . S
N268 C266 1.317 . S
N269 C265 1.328 . S
N269 C267 1.350 . S
H270 C265 0.930 . S
H271 C266 0.930 . S
C272 O273 1.224 . S
C272 O291 1.247 . S
O273 C272 1.224 . S
N274 Co264 2.128 . S
N274 C275 1.355 . S
N274 C277 1.311 . S
C275 N274 1.355 . S
C275 C276 1.363 . S
C275 H287 0.929 . S
C276 C275 1.363 . S
C276 N278 1.375 . S
C276 H294 0.931 . S
C277 N274 1.311 . S
C277 N278 1.347 . S
C277 H288 0.929 . S
N278 C276 1.375 . S
N278 C277 1.347 . S
C279 C282 1.365 . S
C279 N284 1.328 . S
C279 H285 0.929 . S
C280 C281 1.362 . S
C280 C283 1.378 . S
C280 H295 0.929 . S
C281 C280 1.362 . S
C281 C282 1.366 . S
C282 C279 1.365 . S
C282 C281 1.366 . S
C282 H296 0.930 . S
C283 C280 1.378 . S
C283 N284 1.315 . S
C283 H286 0.930 . S
N284 Co264 2.194 . S
N284 C279 1.328 . S
N284 C283 1.315 . S
H285 C279 0.929 . S
H286 C283 0.930 . S
H287 C275 0.929 . S
H288 C277 0.929 . S
O289 Co264 2.351 . S
O289 C292 1.244 . S
O290 Co264 2.155 . S
O290 C292 1.240 . S
O291 Co264 2.096 . S
O291 C272 1.247 . S
C292 O289 1.244 . S
C292 O290 1.240 . S
H293 C267 0.931 . S
H294 C276 0.931 . S
H295 C280 0.929 . S
H296 C282 0.930 . S
Co297 N301 2.148 . S
Co297 N307 2.128 . S
Co297 N317 2.194 . S
Co297 O322 2.351 . S
Co297 O323 2.155 . S
Co297 O324 2.096 . S
C298 N301 1.301 . S
C298 N302 1.328 . S
C298 H303 0.930 . S
C299 C300 1.333 . S
C299 N301 1.317 . S
C299 H304 0.930 . S
C300 C299 1.333 . S
C300 N302 1.350 . S
C300 H326 0.931 . S
N301 Co297 2.148 . S
N301 C298 1.301 . S
N301 C299 1.317 . S
N302 C298 1.328 . S
N302 C300 1.350 . S
H303 C298 0.930 . S
H304 C299 0.930 . S
C305 O306 1.224 . S
C305 O324 1.247 . S
O306 C305 1.224 . S
N307 Co297 2.128 . S
N307 C308 1.355 . S
N307 C310 1.311 . S
C308 N307 1.355 . S
C308 C309 1.363 . S
C308 H320 0.929 . S
C309 C308 1.363 . S
C309 N311 1.375 . S
C309 H327 0.931 . S
C310 N307 1.311 . S
C310 N311 1.347 . S
C310 H321 0.929 . S
N311 C309 1.375 . S
N311 C310 1.347 . S
C312 C315 1.365 . S
C312 N317 1.328 . S
C312 H318 0.929 . S
C313 C314 1.362 . S
C313 C316 1.378 . S
C313 H328 0.929 . S
C314 C313 1.362 . S
C314 C315 1.366 . S
C315 C312 1.365 . S
C315 C314 1.366 . S
C315 H329 0.930 . S
C316 C313 1.378 . S
C316 N317 1.315 . S
C316 H319 0.930 . S
N317 Co297 2.194 . S
N317 C312 1.328 . S
N317 C316 1.315 . S
H318 C312 0.929 . S
H319 C316 0.930 . S
H320 C308 0.929 . S
H321 C310 0.929 . S
O322 Co297 2.351 . S
O322 C325 1.244 . S
O323 Co297 2.155 . S
O323 C325 1.240 . S
O324 Co297 2.096 . S
O324 C305 1.247 . S
C325 O322 1.244 . S
C325 O323 1.240 . S
H326 C300 0.931 . S
H327 C309 0.931 . S
H328 C313 0.929 . S
H329 C315 0.930 . S
Co330 N334 2.148 . S
Co330 N340 2.128 . S
Co330 N350 2.194 1_655 S
Co330 O355 2.351 1_655 S
Co330 O356 2.155 . S
Co330 O357 2.096 . S
C331 N334 1.301 . S
C331 N335 1.328 . S
C331 H336 0.930 1_655 S
C332 C333 1.333 . S
C332 N334 1.317 . S
C332 H337 0.930 . S
C333 C332 1.333 . S
C333 N335 1.350 . S
C333 H359 0.931 . S
N334 Co330 2.148 . S
N334 C331 1.301 . S
N334 C332 1.317 . S
N335 C331 1.328 . S
N335 C333 1.350 . S
H336 C331 0.930 1_455 S
H337 C332 0.930 . S
C338 O339 1.224 . S
C338 O357 1.247 . S
O339 C338 1.224 . S
N340 Co330 2.128 . S
N340 C341 1.355 1_655 S
N340 C343 1.311 . S
C341 N340 1.355 1_455 S
C341 C342 1.363 . S
C341 H353 0.929 . S
C342 C341 1.363 . S
C342 N344 1.372 1_455 S
C342 H360 0.931 . S
C343 N340 1.311 . S
C343 N344 1.349 . S
C343 H354 0.929 . S
N344 C342 1.372 1_655 S
N344 C343 1.349 . S
C345 C348 1.365 . S
C345 N350 1.328 . S
C345 H351 0.929 . S
C346 C347 1.362 . S
C346 C349 1.378 . S
C346 H361 0.929 . S
C347 C346 1.362 . S
C347 C348 1.366 . S
C348 C345 1.365 . S
C348 C347 1.366 . S
C348 H362 0.930 . S
C349 C346 1.378 . S
C349 N350 1.315 . S
C349 H352 0.930 . S
N350 Co330 2.194 1_455 S
N350 C345 1.328 . S
N350 C349 1.315 . S
H351 C345 0.929 . S
H352 C349 0.930 . S
H353 C341 0.929 . S
H354 C343 0.929 . S
O355 Co330 2.351 1_455 S
O355 C358 1.244 1_455 S
O356 Co330 2.155 . S
O356 C358 1.240 . S
O357 Co330 2.096 . S
O357 C338 1.247 . S
C358 O355 1.244 1_655 S
C358 O356 1.240 . S
H359 C333 0.931 . S
H360 C342 0.931 . S
H361 C346 0.929 . S
H362 C348 0.930 . S
Co363 N367 2.148 . S
Co363 N373 2.128 . S
Co363 N383 2.194 1_565 S
Co363 O388 2.351 1_565 S
Co363 O389 2.155 . S
Co363 O390 2.096 . S
C364 N367 1.301 . S
C364 N368 1.328 . S
C364 H369 0.930 1_565 S
C365 C366 1.333 . S
C365 N367 1.317 . S
C365 H370 0.930 . S
C366 C365 1.333 . S
C366 N368 1.350 . S
C366 H392 0.931 . S
N367 Co363 2.148 . S
N367 C364 1.301 . S
N367 C365 1.317 . S
N368 C364 1.328 . S
N368 C366 1.350 . S
H369 C364 0.930 1_545 S
H370 C365 0.930 . S
C371 O372 1.224 . S
C371 O390 1.247 . S
O372 C371 1.224 . S
N373 Co363 2.128 . S
N373 C374 1.355 1_565 S
N373 C376 1.311 . S
C374 N373 1.355 1_545 S
C374 C375 1.363 . S
C374 H386 0.929 . S
C375 C374 1.363 . S
C375 N377 1.375 1_545 S
C375 H393 0.931 . S
C376 N373 1.311 . S
C376 N377 1.347 . S
C376 H387 0.929 . S
N377 C375 1.375 1_565 S
N377 C376 1.347 . S
C378 C381 1.365 . S
C378 N383 1.328 . S
C378 H384 0.929 . S
C379 C380 1.362 . S
C379 C382 1.378 . S
C379 H394 0.929 . S
C380 C379 1.362 . S
C380 C381 1.366 . S
C381 C378 1.365 . S
C381 C380 1.366 . S
C381 H395 0.930 . S
C382 C379 1.378 . S
C382 N383 1.315 . S
C382 H385 0.930 . S
N383 Co363 2.194 1_545 S
N383 C378 1.328 . S
N383 C382 1.315 . S
H384 C378 0.929 . S
H385 C382 0.930 . S
H386 C374 0.929 . S
H387 C376 0.929 . S
O388 Co363 2.351 1_545 S
O388 C391 1.244 1_545 S
O389 Co363 2.155 . S
O389 C391 1.240 . S
O390 Co363 2.096 . S
O390 C371 1.247 . S
C391 O388 1.244 1_565 S
C391 O389 1.240 . S
H392 C366 0.931 . S
H393 C375 0.931 . S
H394 C379 0.929 . S
H395 C381 0.930 . S
Co396 N400 2.148 . S
Co396 N406 2.128 . S
Co396 N416 2.194 . S
Co396 O421 2.351 . S
Co396 O422 2.155 . S
Co396 O423 2.096 . S
C397 N400 1.301 . S
C397 N401 1.328 . S
C397 H402 0.930 . S
C398 C399 1.333 . S
C398 N400 1.317 . S
C398 H403 0.930 . S
C399 C398 1.333 . S
C399 N401 1.350 . S
C399 H425 0.931 . S
N400 Co396 2.148 . S
N400 C397 1.301 . S
N400 C398 1.317 . S
N401 C397 1.328 . S
N401 C399 1.350 . S
H402 C397 0.930 . S
H403 C398 0.930 . S
C404 O405 1.224 . S
C404 O423 1.247 . S
O405 C404 1.224 . S
N406 Co396 2.128 . S
N406 C407 1.355 . S
N406 C409 1.311 . S
C407 N406 1.355 . S
C407 C408 1.363 . S
C407 H419 0.929 . S
C408 C407 1.363 . S
C408 N410 1.375 . S
C408 H426 0.931 . S
C409 N406 1.311 . S
C409 N410 1.347 . S
C409 H420 0.929 . S
N410 C408 1.375 . S
N410 C409 1.347 . S
C411 C414 1.365 . S
C411 N416 1.328 . S
C411 H417 0.929 . S
C412 C413 1.362 . S
C412 C415 1.378 . S
C412 H427 0.929 . S
C413 C412 1.362 . S
C413 C414 1.366 . S
C414 C411 1.365 . S
C414 C413 1.366 . S
C414 H428 0.930 . S
C415 C412 1.378 . S
C415 N416 1.315 . S
C415 H418 0.930 . S
N416 Co396 2.194 . S
N416 C411 1.328 . S
N416 C415 1.315 . S
H417 C411 0.929 . S
H418 C415 0.930 . S
H419 C407 0.929 . S
H420 C409 0.929 . S
O421 Co396 2.351 . S
O421 C424 1.244 . S
O422 Co396 2.155 . S
O422 C424 1.240 . S
O423 Co396 2.096 . S
O423 C404 1.247 . S
C424 O421 1.244 . S
C424 O422 1.240 . S
H425 C399 0.931 . S
H426 C408 0.931 . S
H427 C412 0.929 . S
H428 C414 0.930 . S
Co429 N433 2.148 . S
Co429 N439 2.128 . S
Co429 N449 2.194 . S
Co429 O454 2.351 . S
Co429 O455 2.155 . S
Co429 O456 2.096 . S
C430 N433 1.301 . S
C430 N434 1.328 . S
C430 H435 0.930 . S
C431 C432 1.333 . S
C431 N433 1.317 . S
C431 H436 0.930 . S
C432 C431 1.333 . S
C432 N434 1.350 . S
C432 H458 0.931 . S
N433 Co429 2.148 . S
N433 C430 1.301 . S
N433 C431 1.317 . S
N434 C430 1.328 . S
N434 C432 1.350 . S
H435 C430 0.930 . S
H436 C431 0.930 . S
C437 O438 1.224 . S
C437 O456 1.247 . S
O438 C437 1.224 . S
N439 Co429 2.128 . S
N439 C440 1.355 . S
N439 C442 1.311 . S
C440 N439 1.355 . S
C440 C441 1.363 . S
C440 H452 0.929 . S
C441 C440 1.363 . S
C441 N443 1.375 . S
C441 H459 0.931 . S
C442 N439 1.311 . S
C442 N443 1.347 . S
C442 H453 0.929 . S
N443 C441 1.375 . S
N443 C442 1.347 . S
C444 C447 1.365 . S
C444 N449 1.328 . S
C444 H450 0.929 . S
C445 C446 1.362 . S
C445 C448 1.378 . S
C445 H460 0.929 . S
C446 C445 1.362 . S
C446 C447 1.366 . S
C447 C444 1.365 . S
C447 C446 1.366 . S
C447 H461 0.930 . S
C448 C445 1.378 . S
C448 N449 1.315 . S
C448 H451 0.930 . S
N449 Co429 2.194 . S
N449 C444 1.328 . S
N449 C448 1.315 . S
H450 C444 0.929 . S
H451 C448 0.930 . S
H452 C440 0.929 . S
H453 C442 0.929 . S
O454 Co429 2.351 . S
O454 C457 1.244 . S
O455 Co429 2.155 . S
O455 C457 1.240 . S
O456 Co429 2.096 . S
O456 C437 1.247 . S
C457 O454 1.244 . S
C457 O455 1.240 . S
H458 C432 0.931 . S
H459 C441 0.931 . S
H460 C445 0.929 . S
H461 C447 0.930 . S
Co462 N466 2.148 . S
Co462 N472 2.128 . S
Co462 N482 2.194 1_655 S
Co462 O487 2.351 1_655 S
Co462 O488 2.155 . S
Co462 O489 2.096 . S
C463 N466 1.301 . S
C463 N467 1.328 . S
C463 H468 0.930 1_655 S
C464 C465 1.333 . S
C464 N466 1.317 . S
C464 H469 0.930 . S
C465 C464 1.333 . S
C465 N467 1.350 . S
C465 H491 0.931 . S
N466 Co462 2.148 . S
N466 C463 1.301 . S
N466 C464 1.317 . S
N467 C463 1.328 . S
N467 C465 1.350 . S
H468 C463 0.930 1_455 S
H469 C464 0.930 . S
C470 O471 1.224 . S
C470 O489 1.247 . S
O471 C470 1.224 . S
N472 Co462 2.128 . S
N472 C473 1.355 1_655 S
N472 C475 1.311 . S
C473 N472 1.355 1_455 S
C473 C474 1.363 . S
C473 H485 0.929 . S
C474 C473 1.363 . S
C474 N476 1.375 1_455 S
C474 H492 0.931 . S
C475 N472 1.311 . S
C475 N476 1.347 . S
C475 H486 0.929 . S
N476 C474 1.375 1_655 S
N476 C475 1.347 . S
C477 C480 1.365 . S
C477 N482 1.328 . S
C477 H483 0.929 . S
C478 C479 1.362 . S
C478 C481 1.378 . S
C478 H493 0.929 . S
C479 C478 1.362 . S
C479 C480 1.366 . S
C480 C477 1.365 . S
C480 C479 1.366 . S
C480 H494 0.930 . S
C481 C478 1.378 . S
C481 N482 1.315 . S
C481 H484 0.930 . S
N482 Co462 2.194 1_455 S
N482 C477 1.328 . S
N482 C481 1.315 . S
H483 C477 0.929 . S
H484 C481 0.930 . S
H485 C473 0.929 . S
H486 C475 0.929 . S
O487 Co462 2.351 1_455 S
O487 C490 1.244 1_455 S
O488 Co462 2.155 . S
O488 C490 1.240 . S
O489 Co462 2.096 . S
O489 C470 1.247 . S
C490 O487 1.244 1_655 S
C490 O488 1.240 . S
H491 C465 0.931 . S
H492 C474 0.931 . S
H493 C478 0.929 . S
H494 C480 0.930 . S
Co495 N499 2.148 . S
Co495 N505 2.128 . S
Co495 N515 2.194 1_565 S
Co495 O520 2.351 1_565 S
Co495 O521 2.155 . S
Co495 O522 2.096 . S
C496 N499 1.301 . S
C496 N500 1.328 . S
C496 H501 0.930 1_565 S
C497 C498 1.333 . S
C497 N499 1.317 . S
C497 H502 0.930 . S
C498 C497 1.333 . S
C498 N500 1.350 . S
C498 H524 0.931 . S
N499 Co495 2.148 . S
N499 C496 1.301 . S
N499 C497 1.317 . S
N500 C496 1.328 . S
N500 C498 1.350 . S
H501 C496 0.930 1_545 S
H502 C497 0.930 . S
C503 O504 1.224 . S
C503 O522 1.247 . S
O504 C503 1.224 . S
N505 Co495 2.128 . S
N505 C506 1.355 1_565 S
N505 C508 1.311 . S
C506 N505 1.355 1_545 S
C506 C507 1.363 . S
C506 H518 0.929 . S
C507 C506 1.363 . S
C507 N509 1.372 1_545 S
C507 H525 0.931 . S
C508 N505 1.311 . S
C508 N509 1.349 . S
C508 H519 0.929 . S
N509 C507 1.372 1_565 S
N509 C508 1.349 . S
C510 C513 1.365 . S
C510 N515 1.328 . S
C510 H516 0.929 . S
C511 C512 1.362 . S
C511 C514 1.378 . S
C511 H526 0.929 . S
C512 C511 1.362 . S
C512 C513 1.366 . S
C513 C510 1.365 . S
C513 C512 1.366 . S
C513 H527 0.930 . S
C514 C511 1.378 . S
C514 N515 1.315 . S
C514 H517 0.930 . S
N515 Co495 2.194 1_545 S
N515 C510 1.328 . S
N515 C514 1.315 . S
H516 C510 0.929 . S
H517 C514 0.930 . S
H518 C506 0.929 . S
H519 C508 0.929 . S
O520 Co495 2.351 1_545 S
O520 C523 1.244 1_545 S
O521 Co495 2.155 . S
O521 C523 1.240 . S
O522 Co495 2.096 . S
O522 C503 1.247 . S
C523 O520 1.244 1_565 S
C523 O521 1.240 . S
H524 C498 0.931 . S
H525 C507 0.931 . S
H526 C511 0.929 . S
H527 C513 0.930 . S
C528 C529 1.363 . S
C528 C534 1.379 1_554 S
C528 N536 1.356 . S
C529 C528 1.363 . S
C529 C535 1.363 . S
C530 C531 1.363 . S
C530 C535 1.379 1_556 S
C530 N537 1.356 . S
C531 C530 1.363 . S
C531 C534 1.363 . S
N532 C534 1.356 . S
N532 H544 0.984 . S
N532 H545 0.985 . S
N533 C535 1.356 . S
N533 H538 0.984 . S
N533 H539 0.985 . S
C534 C528 1.379 1_556 S
C534 C531 1.363 . S
C534 N532 1.356 . S
C535 C529 1.363 . S
C535 C530 1.379 1_554 S
C535 N533 1.356 . S
N536 C528 1.356 . S
N536 H542 0.984 . S
N536 H543 0.984 . S
N537 C530 1.356 . S
N537 H540 0.984 . S
N537 H541 0.985 . S
H538 N533 0.984 . S
H539 N533 0.985 . S
H540 N537 0.984 . S
H541 N537 0.985 . S
H542 N536 0.984 . S
H543 N536 0.984 . S
H544 N532 0.984 . S
H545 N532 0.985 . S
C546 C547 1.363 . S
C546 C552 1.379 . S
C546 N554 1.356 . S
C547 C546 1.363 . S
C547 C553 1.363 . S
C548 C549 1.363 . S
C548 C553 1.379 . S
C548 N555 1.356 . S
C549 C548 1.363 . S
C549 C552 1.363 . S
N550 C552 1.356 . S
N550 H562 0.984 . S
N550 H563 0.985 . S
N551 C553 1.356 . S
N551 H556 0.984 . S
N551 H557 0.985 . S
C552 C546 1.379 . S
C552 C549 1.363 . S
C552 N550 1.356 . S
C553 C547 1.363 . S
C553 C548 1.379 . S
C553 N551 1.356 . S
N554 C546 1.356 . S
N554 H560 0.984 . S
N554 H561 0.984 . S
N555 C548 1.356 . S
N555 H558 0.984 . S
N555 H559 0.985 . S
H556 N551 0.984 . S
H557 N551 0.985 . S
H558 N555 0.984 . S
H559 N555 0.985 . S
H560 N554 0.984 . S
H561 N554 0.984 . S
H562 N550 0.984 . S
H563 N550 0.985 . S
C564 C565 1.363 . S
C564 C570 1.379 1_556 S
C564 N572 1.356 . S
C565 C564 1.363 . S
C565 C571 1.363 . S
C566 C567 1.363 . S
C566 C571 1.379 1_554 S
C566 N573 1.356 . S
C567 C566 1.363 . S
C567 C570 1.363 . S
N568 C570 1.356 . S
N568 H580 0.984 . S
N568 H581 0.985 . S
N569 C571 1.356 . S
N569 H574 0.984 . S
N569 H575 0.985 1_455 S
C570 C564 1.379 1_554 S
C570 C567 1.363 . S
C570 N568 1.356 . S
C571 C565 1.363 . S
C571 C566 1.379 1_556 S
C571 N569 1.356 . S
N572 C564 1.356 . S
N572 H578 0.984 . S
N572 H579 0.984 . S
N573 C566 1.356 . S
N573 H576 0.984 . S
N573 H577 0.985 1_455 S
H574 N569 0.984 . S
H575 N569 0.985 1_655 S
H576 N573 0.984 . S
H577 N573 0.985 1_655 S
H578 N572 0.984 . S
H579 N572 0.984 . S
H580 N568 0.984 . S
H581 N568 0.985 . S
C582 C583 1.363 . S
C582 C588 1.379 . S
C582 N590 1.356 1_545 S
C583 C582 1.363 . S
C583 C589 1.363 . S
C584 C585 1.363 . S
C584 C589 1.379 . S
C584 N591 1.356 . S
C585 C584 1.363 . S
C585 C588 1.363 . S
N586 C588 1.356 1_565 S
N586 H598 0.984 . S
N586 H599 0.985 . S
N587 C589 1.356 . S
N587 H592 0.984 . S
N587 H593 0.985 . S
C588 C582 1.379 . S
C588 C585 1.363 . S
C588 N586 1.356 1_545 S
C589 C583 1.363 . S
C589 C584 1.379 . S
C589 N587 1.356 . S
N590 C582 1.356 1_565 S
N590 H596 0.984 . S
N590 H597 0.984 . S
N591 C584 1.356 . S
N591 H594 0.984 . S
N591 H595 0.985 . S
H592 N587 0.984 . S
H593 N587 0.985 . S
H594 N591 0.984 . S
H595 N591 0.985 . S
H596 N590 0.984 . S
H597 N590 0.984 . S
H598 N586 0.984 . S
H599 N586 0.985 . S
C600 C601 1.363 . S
C600 C606 1.379 1_556 S
C600 N608 1.356 . S
C601 C600 1.363 . S
C601 C607 1.363 . S
C602 C603 1.363 . S
C602 C607 1.379 1_554 S
C602 N609 1.356 . S
C603 C602 1.363 . S
C603 C606 1.363 . S
N604 C606 1.356 . S
N604 H616 0.984 . S
N604 H617 0.985 . S
N605 C607 1.356 . S
N605 H610 0.984 . S
N605 H611 0.985 . S
C606 C600 1.379 1_554 S
C606 C603 1.363 . S
C606 N604 1.356 . S
C607 C601 1.363 . S
C607 C602 1.379 1_556 S
C607 N605 1.356 . S
N608 C600 1.356 . S
N608 H614 0.984 . S
N608 H615 0.984 . S
N609 C602 1.356 . S
N609 H612 0.984 . S
N609 H613 0.985 . S
H610 N605 0.984 . S
H611 N605 0.985 . S
H612 N609 0.984 . S
H613 N609 0.985 . S
H614 N608 0.984 . S
H615 N608 0.984 . S
H616 N604 0.984 . S
H617 N604 0.985 . S
C618 C619 1.363 . S
C618 C624 1.379 . S
C618 N626 1.356 . S
C619 C618 1.363 . S
C619 C625 1.363 . S
C620 C621 1.363 . S
C620 C625 1.379 . S
C620 N627 1.356 . S
C621 C620 1.363 . S
C621 C624 1.363 . S
N622 C624 1.356 . S
N622 H634 0.984 . S
N622 H635 0.985 . S
N623 C625 1.356 . S
N623 H628 0.984 . S
N623 H629 0.985 . S
C624 C618 1.379 . S
C624 C621 1.363 . S
C624 N622 1.356 . S
C625 C619 1.363 . S
C625 C620 1.379 . S
C625 N623 1.356 . S
N626 C618 1.356 . S
N626 H632 0.984 . S
N626 H633 0.984 . S
N627 C620 1.356 . S
N627 H630 0.984 . S
N627 H631 0.985 . S
H628 N623 0.984 . S
H629 N623 0.985 . S
H630 N627 0.984 . S
H631 N627 0.985 . S
H632 N626 0.984 . S
H633 N626 0.984 . S
H634 N622 0.984 . S
H635 N622 0.985 . S
C636 C637 1.363 . S
C636 C642 1.379 1_554 S
C636 N644 1.356 . S
C637 C636 1.363 . S
C637 C643 1.363 . S
C638 C639 1.363 . S
C638 C643 1.379 1_556 S
C638 N645 1.356 . S
C639 C638 1.363 . S
C639 C642 1.363 . S
N640 C642 1.356 . S
N640 H652 0.984 . S
N640 H653 0.985 . S
N641 C643 1.356 . S
N641 H646 0.984 . S
N641 H647 0.985 1_655 S
C642 C636 1.379 1_556 S
C642 C639 1.363 . S
C642 N640 1.356 . S
C643 C637 1.363 . S
C643 C638 1.379 1_554 S
C643 N641 1.356 . S
N644 C636 1.356 . S
N644 H650 0.984 . S
N644 H651 0.984 . S
N645 C638 1.356 . S
N645 H648 0.984 . S
N645 H649 0.985 1_655 S
H646 N641 0.984 . S
H647 N641 0.985 1_455 S
H648 N645 0.984 . S
H649 N645 0.985 1_455 S
H650 N644 0.984 . S
H651 N644 0.984 . S
H652 N640 0.984 . S
H653 N640 0.985 . S
C654 C655 1.363 . S
C654 C660 1.379 . S
C654 N662 1.356 1_565 S
C655 C654 1.363 . S
C655 C661 1.363 . S
C656 C657 1.363 . S
C656 C661 1.379 . S
C656 N663 1.356 . S
C657 C656 1.363 . S
C657 C660 1.363 . S
N658 C660 1.356 1_545 S
N658 H670 0.984 . S
N658 H671 0.985 . S
N659 C661 1.356 . S
N659 H664 0.984 . S
N659 H665 0.985 . S
C660 C654 1.379 . S
C660 C657 1.363 . S
C660 N658 1.356 1_565 S
C661 C655 1.363 . S
C661 C656 1.379 . S
C661 N659 1.356 . S
N662 C654 1.356 1_545 S
N662 H668 0.984 . S
N662 H669 0.984 . S
N663 C656 1.356 . S
N663 H666 0.984 . S
N663 H667 0.985 . S
H664 N659 0.984 . S
H665 N659 0.985 . S
H666 N663 0.984 . S
H667 N663 0.985 . S
H668 N662 0.984 . S
H669 N662 0.984 . S
H670 N658 0.984 . S
H671 N658 0.985 . S
C672 C673 1.363 . S
C672 C678 1.379 1_565 S
C672 N680 1.356 . S
C673 C672 1.363 . S
C673 C679 1.363 . S
C674 C675 1.363 1_565 S
C674 C679 1.379 . S
C674 N681 1.356 1_565 S
C675 C674 1.363 1_545 S
C675 C678 1.363 . S
N676 C678 1.356 . S
N676 H688 0.984 . S
N676 H689 0.985 . S
N677 C679 1.356 . S
N677 H682 0.984 . S
N677 H683 0.985 . S
C678 C672 1.379 1_545 S
C678 C675 1.363 . S
C678 N676 1.356 . S
C679 C673 1.363 . S
C679 C674 1.379 . S
C679 N677 1.356 . S
N680 C672 1.356 . S
N680 H686 0.984 . S
N680 H687 0.984 . S
N681 C674 1.356 1_545 S
N681 H684 0.984 . S
N681 H685 0.985 . S
H682 N677 0.984 . S
H683 N677 0.985 . S
H684 N681 0.984 . S
H685 N681 0.985 . S
H686 N680 0.984 . S
H687 N680 0.984 . S
H688 N676 0.984 . S
H689 N676 0.985 . S
C690 C691 1.363 . S
C690 C696 1.379 . S
C690 N698 1.356 . S
C691 C690 1.363 . S
C691 C697 1.363 . S
C692 C693 1.363 . S
C692 C697 1.379 . S
C692 N699 1.356 . S
C693 C692 1.363 . S
C693 C696 1.363 . S
N694 C696 1.356 . S
N694 H706 0.984 . S
N694 H707 0.985 . S
N695 C697 1.356 . S
N695 H700 0.984 . S
N695 H701 0.985 . S
C696 C690 1.379 . S
C696 C693 1.363 . S
C696 N694 1.356 . S
C697 C691 1.363 . S
C697 C692 1.379 . S
C697 N695 1.356 . S
N698 C690 1.356 . S
N698 H704 0.984 . S
N698 H705 0.984 . S
N699 C692 1.356 . S
N699 H702 0.984 . S
N699 H703 0.985 . S
H700 N695 0.984 . S
H701 N695 0.985 . S
H702 N699 0.984 . S
H703 N699 0.985 . S
H704 N698 0.984 . S
H705 N698 0.984 . S
H706 N694 0.984 . S
H707 N694 0.985 . S
C708 C709 1.364 1_655 S
C708 C714 1.379 . S
C708 N716 1.356 . S
C709 C708 1.364 1_455 S
C709 C715 1.362 . S
C710 C711 1.351 1_455 S
C710 C715 1.385 . S
C710 N717 1.360 . S
C711 C710 1.351 1_655 S
C711 C714 1.363 . S
N712 C714 1.356 . S
N712 H724 0.984 . S
N712 H725 0.985 . S
N713 C715 1.356 . S
N713 H718 0.984 . S
N713 H719 0.985 . S
C714 C708 1.379 . S
C714 C711 1.363 . S
C714 N712 1.356 . S
C715 C709 1.362 . S
C715 C710 1.385 . S
C715 N713 1.356 . S
N716 C708 1.356 . S
N716 H722 0.984 . S
N716 H723 0.984 . S
N717 C710 1.360 . S
N717 H720 0.984 1_455 S
N717 H721 0.985 . S
H718 N713 0.984 . S
H719 N713 0.985 . S
H720 N717 0.984 1_655 S
H721 N717 0.985 . S
H722 N716 0.984 . S
H723 N716 0.984 . S
H724 N712 0.984 . S
H725 N712 0.985 . S
C726 C727 1.363 1_545 S
C726 C732 1.379 . S
C726 N734 1.356 . S
C727 C726 1.363 1_565 S
C727 C733 1.363 . S
C728 C729 1.362 1_565 S
C728 C733 1.379 1_455 S
C728 N735 1.356 . S
C729 C728 1.362 1_545 S
C729 C732 1.364 1_455 S
N730 C732 1.356 1_455 S
N730 H742 0.984 . S
N730 H743 0.985 . S
N731 C733 1.356 . S
N731 H736 0.984 . S
N731 H737 0.985 . S
C732 C726 1.379 . S
C732 C729 1.364 1_655 S
C732 N730 1.356 1_655 S
C733 C727 1.363 . S
C733 C728 1.379 1_655 S
C733 N731 1.356 . S
N734 C726 1.356 . S
N734 H740 0.984 . S
N734 H741 0.984 . S
N735 C728 1.356 . S
N735 H738 0.984 . S
N735 H739 0.985 . S
H736 N731 0.984 . S
H737 N731 0.985 . S
H738 N735 0.984 . S
H739 N735 0.985 . S
H740 N734 0.984 . S
H741 N734 0.984 . S
H742 N730 0.984 . S
H743 N730 0.985 . S
C744 C745 1.363 . S
C744 C750 1.379 . S
C744 N752 1.356 . S
C745 C744 1.363 . S
C745 C751 1.363 . S
C746 C747 1.363 . S
C746 C751 1.379 . S
C746 N753 1.356 . S
C747 C746 1.363 . S
C747 C750 1.363 . S
N748 C750 1.356 . S
N748 H760 0.984 . S
N748 H761 0.985 . S
N749 C751 1.356 . S
N749 H754 0.984 . S
N749 H755 0.985 . S
C750 C744 1.379 . S
C750 C747 1.363 . S
C750 N748 1.356 . S
C751 C745 1.363 . S
C751 C746 1.379 . S
C751 N749 1.356 . S
N752 C744 1.356 . S
N752 H758 0.984 . S
N752 H759 0.984 . S
N753 C746 1.356 . S
N753 H756 0.984 . S
N753 H757 0.985 . S
H754 N749 0.984 . S
H755 N749 0.985 . S
H756 N753 0.984 . S
H757 N753 0.985 . S
H758 N752 0.984 . S
H759 N752 0.984 . S
H760 N748 0.984 . S
H761 N748 0.985 . S
C762 C763 1.363 . S
C762 C768 1.379 . S
C762 N770 1.356 . S
C763 C762 1.363 . S
C763 C769 1.363 . S
C764 C765 1.363 . S
C764 C769 1.379 1_455 S
C764 N771 1.356 . S
C765 C764 1.363 . S
C765 C768 1.363 1_455 S
N766 C768 1.356 1_455 S
N766 H778 0.984 . S
N766 H779 0.985 . S
N767 C769 1.356 . S
N767 H772 0.984 . S
N767 H773 0.985 . S
C768 C762 1.379 . S
C768 C765 1.363 1_655 S
C768 N766 1.356 1_655 S
C769 C763 1.363 . S
C769 C764 1.379 1_655 S
C769 N767 1.356 . S
N770 C762 1.356 . S
N770 H776 0.984 . S
N770 H777 0.984 . S
N771 C764 1.356 . S
N771 H774 0.984 . S
N771 H775 0.985 . S
H772 N767 0.984 . S
H773 N767 0.985 . S
H774 N771 0.984 . S
H775 N771 0.985 . S
H776 N770 0.984 . S
H777 N770 0.984 . S
H778 N766 0.984 . S
H779 N766 0.985 . S
C780 C781 1.364 1_465 S
C780 C786 1.378 1_455 S
C780 N788 1.356 1_565 S
C781 C780 1.364 1_645 S
C781 C787 1.362 . S
C782 C783 1.363 . S
C782 C787 1.379 1_565 S
C782 N789 1.356 . S
C783 C782 1.363 . S
C783 C786 1.365 . S
N784 C786 1.356 1_455 S
N784 H796 0.984 . S
N784 H797 0.985 1_455 S
N785 C787 1.356 . S
N785 H790 0.984 . S
N785 H791 0.985 . S
C786 C780 1.378 1_655 S
C786 C783 1.365 . S
C786 N784 1.356 1_655 S
C787 C781 1.362 . S
C787 C782 1.379 1_545 S
C787 N785 1.356 . S
N788 C780 1.356 1_545 S
N788 H794 0.984 . S
N788 H795 0.984 . S
N789 C782 1.356 . S
N789 H792 0.984 . S
N789 H793 0.985 . S
H790 N785 0.984 . S
H791 N785 0.985 . S
H792 N789 0.984 . S
H793 N789 0.985 . S
H794 N788 0.984 . S
H795 N788 0.984 . S
H796 N784 0.984 . S
H797 N784 0.985 1_655 S
C798 C799 1.364 1_565 S
C798 C804 1.379 . S
C798 N806 1.356 . S
C799 C798 1.364 1_545 S
C799 C805 1.362 . S
C800 C801 1.363 1_545 S
C800 C805 1.379 . S
C800 N807 1.356 . S
C801 C800 1.363 1_565 S
C801 C804 1.363 . S
N802 C804 1.356 . S
N802 H814 0.984 . S
N802 H815 0.985 . S
N803 C805 1.356 . S
N803 H808 0.984 . S
N803 H809 0.985 . S
C804 C798 1.379 . S
C804 C801 1.363 . S
C804 N802 1.356 . S
C805 C799 1.362 . S
C805 C800 1.379 . S
C805 N803 1.356 . S
N806 C798 1.356 . S
N806 H812 0.984 . S
N806 H813 0.984 . S
N807 C800 1.356 . S
N807 H810 0.984 . S
N807 H811 0.985 . S
H808 N803 0.984 . S
H809 N803 0.985 . S
H810 N807 0.984 . S
H811 N807 0.985 . S
H812 N806 0.984 . S
H813 N806 0.984 . S
H814 N802 0.984 . S
H815 N802 0.985 . S
C816 C817 1.363 . S
C816 C822 1.379 . S
C816 N824 1.356 . S
C817 C816 1.363 . S
C817 C823 1.363 . S
C818 C819 1.363 . S
C818 C823 1.379 1_565 S
C818 N825 1.356 . S
C819 C818 1.363 . S
C819 C822 1.363 1_565 S
N820 C822 1.356 1_565 S
N820 H832 0.984 1_565 S
N820 H833 0.985 . S
N821 C823 1.356 . S
N821 H826 0.984 . S
N821 H827 0.985 . S
C822 C816 1.379 . S
C822 C819 1.363 1_545 S
C822 N820 1.356 1_545 S
C823 C817 1.363 . S
C823 C818 1.379 1_545 S
C823 N821 1.356 . S
N824 C816 1.356 . S
N824 H830 0.984 . S
N824 H831 0.984 . S
N825 C818 1.356 . S
N825 H828 0.984 . S
N825 H829 0.985 . S
H826 N821 0.984 . S
H827 N821 0.985 . S
H828 N825 0.984 . S
H829 N825 0.985 . S
H830 N824 0.984 . S
H831 N824 0.984 . S
H832 N820 0.984 1_545 S
H833 N820 0.985 . S
C834 C835 1.363 . S
C834 C840 1.379 . S
C834 N842 1.356 . S
C835 C834 1.363 . S
C835 C841 1.363 . S
C836 C837 1.363 . S
C836 C841 1.379 . S
C836 N843 1.356 . S
C837 C836 1.363 . S
C837 C840 1.363 . S
N838 C840 1.356 . S
N838 H850 0.984 . S
N838 H851 0.985 . S
N839 C841 1.356 . S
N839 H844 0.984 . S
N839 H845 0.985 . S
C840 C834 1.379 . S
C840 C837 1.363 . S
C840 N838 1.356 . S
C841 C835 1.363 . S
C841 C836 1.379 . S
C841 N839 1.356 . S
N842 C834 1.356 . S
N842 H848 0.984 . S
N842 H849 0.984 . S
N843 C836 1.356 . S
N843 H846 0.984 . S
N843 H847 0.985 . S
H844 N839 0.984 . S
H845 N839 0.985 . S
H846 N843 0.984 . S
H847 N843 0.985 . S
H848 N842 0.984 . S
H849 N842 0.984 . S
H850 N838 0.984 . S
H851 N838 0.985 . S
C852 C853 1.363 . S
C852 C858 1.379 . S
C852 N860 1.356 . S
C853 C852 1.363 . S
C853 C859 1.363 1_455 S
C854 C855 1.365 . S
C854 C859 1.379 . S
C854 N861 1.356 . S
C855 C854 1.365 . S
C855 C858 1.360 1_655 S
N856 C858 1.356 . S
N856 H868 0.984 . S
N856 H869 0.985 . S
N857 C859 1.356 . S
N857 H862 0.984 . S
N857 H863 0.985 . S
C858 C852 1.379 . S
C858 C855 1.360 1_455 S
C858 N856 1.356 . S
C859 C853 1.363 1_655 S
C859 C854 1.379 . S
C859 N857 1.356 . S
N860 C852 1.356 . S
N860 H866 0.984 . S
N860 H867 0.984 . S
N861 C854 1.356 . S
N861 H864 0.984 . S
N861 H865 0.985 . S
H862 N857 0.984 . S
H863 N857 0.985 . S
H864 N861 0.984 . S
H865 N861 0.985 . S
H866 N860 0.984 . S
H867 N860 0.984 . S
H868 N856 0.984 . S
H869 N856 0.985 . S
C870 C871 1.364 1_465 S
C870 C876 1.379 . S
C870 N878 1.356 1_455 S
C871 C870 1.364 1_645 S
C871 C877 1.361 . S
C872 C873 1.363 . S
C872 C877 1.379 1_455 S
C872 N879 1.356 . S
C873 C872 1.363 . S
C873 C876 1.363 1_545 S
N874 C876 1.356 . S
N874 H886 0.984 . S
N874 H887 0.985 . S
N875 C877 1.356 . S
N875 H880 0.984 . S
N875 H881 0.985 . S
C876 C870 1.379 . S
C876 C873 1.363 1_565 S
C876 N874 1.356 . S
C877 C871 1.361 . S
C877 C872 1.379 1_655 S
C877 N875 1.356 . S
N878 C870 1.356 1_655 S
N878 H884 0.984 . S
N878 H885 0.984 . S
N879 C872 1.356 . S
N879 H882 0.984 . S
N879 H883 0.985 . S
H880 N875 0.984 . S
H881 N875 0.985 . S
H882 N879 0.984 . S
H883 N879 0.985 . S
H884 N878 0.984 . S
H885 N878 0.984 . S
H886 N874 0.984 . S
H887 N874 0.985 . S
C888 C889 1.363 . S
C888 C894 1.379 . S
C888 N896 1.356 . S
C889 C888 1.363 . S
C889 C895 1.363 . S
C890 C891 1.363 . S
C890 C895 1.379 . S
C890 N897 1.356 . S
C891 C890 1.363 . S
C891 C894 1.363 . S
N892 C894 1.356 . S
N892 H904 0.984 . S
N892 H905 0.985 . S
N893 C895 1.356 . S
N893 H898 0.984 . S
N893 H899 0.985 . S
C894 C888 1.379 . S
C894 C891 1.363 . S
C894 N892 1.356 . S
C895 C889 1.363 . S
C895 C890 1.379 . S
C895 N893 1.356 . S
N896 C888 1.356 . S
N896 H902 0.984 . S
N896 H903 0.984 . S
N897 C890 1.356 . S
N897 H900 0.984 . S
N897 H901 0.985 . S
H898 N893 0.984 . S
H899 N893 0.985 . S
H900 N897 0.984 . S
H901 N897 0.985 . S
H902 N896 0.984 . S
H903 N896 0.984 . S
H904 N892 0.984 . S
H905 N892 0.985 . S
C906 C907 1.363 . S
C906 C912 1.379 1_455 S
C906 N914 1.356 . S
C907 C906 1.363 . S
C907 C913 1.363 . S
C908 C909 1.363 1_455 S
C908 C913 1.379 . S
C908 N915 1.356 1_455 S
C909 C908 1.363 1_655 S
C909 C912 1.363 . S
N910 C912 1.356 . S
N910 H922 0.984 . S
N910 H923 0.985 . S
N911 C913 1.356 . S
N911 H916 0.984 . S
N911 H917 0.985 . S
C912 C906 1.379 1_655 S
C912 C909 1.363 . S
C912 N910 1.356 . S
C913 C907 1.363 . S
C913 C908 1.379 . S
C913 N911 1.356 . S
N914 C906 1.356 . S
N914 H920 0.984 . S
N914 H921 0.984 . S
N915 C908 1.356 1_655 S
N915 H918 0.984 . S
N915 H919 0.985 1_655 S
H916 N911 0.984 . S
H917 N911 0.985 . S
H918 N915 0.984 . S
H919 N915 0.985 1_455 S
H920 N914 0.984 . S
H921 N914 0.984 . S
H922 N910 0.984 . S
H923 N910 0.985 . S
C924 C925 1.364 1_645 S
C924 C930 1.379 . S
C924 N932 1.356 1_545 S
C925 C924 1.364 1_465 S
C925 C931 1.367 . S
C926 C927 1.363 . S
C926 C931 1.368 1_545 S
C926 N933 1.356 . S
C927 C926 1.363 . S
C927 C930 1.363 1_455 S
N928 C930 1.356 . S
N928 H940 0.984 . S
N928 H941 0.985 1_655 S
N929 C931 1.364 . S
N929 H934 0.984 . S
N929 H935 0.985 . S
C930 C924 1.379 . S
C930 C927 1.363 1_655 S
C930 N928 1.356 . S
C931 C925 1.367 . S
C931 C926 1.368 1_565 S
C931 N929 1.364 . S
N932 C924 1.356 1_565 S
N932 H938 0.984 . S
N932 H939 0.984 . S
N933 C926 1.356 . S
N933 H936 0.984 . S
N933 H937 0.985 . S
H934 N929 0.984 . S
H935 N929 0.985 . S
H936 N933 0.984 . S
H937 N933 0.985 . S
H938 N932 0.984 . S
H939 N932 0.984 . S
H940 N928 0.984 . S
H941 N928 0.985 1_455 S
C942 C943 1.363 1_565 S
C942 C948 1.379 . S
C942 N950 1.356 . S
C943 C942 1.363 1_545 S
C943 C949 1.363 . S
C944 C945 1.360 1_545 S
C944 C949 1.379 . S
C944 N951 1.356 . S
C945 C944 1.360 1_565 S
C945 C948 1.365 . S
N946 C948 1.356 . S
N946 H958 0.984 . S
N946 H959 0.985 . S
N947 C949 1.356 . S
N947 H952 0.984 . S
N947 H953 0.985 . S
C948 C942 1.379 . S
C948 C945 1.365 . S
C948 N946 1.356 . S
C949 C943 1.363 . S
C949 C944 1.379 . S
C949 N947 1.356 . S
N950 C942 1.356 . S
N950 H956 0.984 . S
N950 H957 0.984 . S
N951 C944 1.356 . S
N951 H954 0.984 . S
N951 H955 0.985 . S
H952 N947 0.984 . S
H953 N947 0.985 . S
H954 N951 0.984 . S
H955 N951 0.985 . S
H956 N950 0.984 . S
H957 N950 0.984 . S
H958 N946 0.984 . S
H959 N946 0.985 . S
C960 C961 1.363 . S
C960 C966 1.379 . S
C960 N968 1.356 . S
C961 C960 1.363 . S
C961 C967 1.363 . S
C962 C963 1.363 . S
C962 C967 1.379 . S
C962 N969 1.356 . S
C963 C962 1.363 . S
C963 C966 1.363 . S
N964 C966 1.356 . S
N964 H976 0.984 . S
N964 H977 0.985 . S
N965 C967 1.356 . S
N965 H970 0.984 . S
N965 H971 0.985 . S
C966 C960 1.379 . S
C966 C963 1.363 . S
C966 N964 1.356 . S
C967 C961 1.363 . S
C967 C962 1.379 . S
C967 N965 1.356 . S
N968 C960 1.356 . S
N968 H974 0.984 . S
N968 H975 0.984 . S
N969 C962 1.356 . S
N969 H972 0.984 . S
N969 H973 0.985 . S
H970 N965 0.984 . S
H971 N965 0.985 . S
H972 N969 0.984 . S
H973 N969 0.985 . S
H974 N968 0.984 . S
H975 N968 0.984 . S
H976 N964 0.984 . S
H977 N964 0.985 . S
C978 C979 1.363 . S
C978 C984 1.379 . S
C978 N986 1.356 . S
C979 C978 1.363 . S
C979 C985 1.363 . S
C980 C981 1.363 . S
C980 C985 1.379 . S
C980 N987 1.356 . S
C981 C980 1.363 . S
C981 C984 1.363 . S
N982 C984 1.356 . S
N982 H994 0.984 . S
N982 H995 0.985 . S
N983 C985 1.356 . S
N983 H988 0.984 . S
N983 H989 0.985 . S
C984 C978 1.379 . S
C984 C981 1.363 . S
C984 N982 1.356 . S
C985 C979 1.363 . S
C985 C980 1.379 . S
C985 N983 1.356 . S
N986 C978 1.356 . S
N986 H992 0.984 . S
N986 H993 0.984 . S
N987 C980 1.356 . S
N987 H990 0.984 . S
N987 H991 0.985 . S
H988 N983 0.984 . S
H989 N983 0.985 . S
H990 N987 0.984 . S
H991 N987 0.985 . S
H992 N986 0.984 . S
H993 N986 0.984 . S
H994 N982 0.984 . S
H995 N982 0.985 . S
C996 C997 1.363 . S
C996 C1002 1.379 . S
C996 N1004 1.356 . S
C997 C996 1.363 . S
C997 C1003 1.363 . S
C998 C999 1.363 . S
C998 C1003 1.379 . S
C998 N1005 1.356 . S
C999 C998 1.363 . S
C999 C1002 1.363 . S
N1000 C1002 1.356 . S
N1000 H1012 0.984 . S
N1000 H1013 0.985 . S
N1001 C1003 1.356 . S
N1001 H1006 0.984 . S
N1001 H1007 0.985 . S
C1002 C996 1.379 . S
C1002 C999 1.363 . S
C1002 N1000 1.356 . S
C1003 C997 1.363 . S
C1003 C998 1.379 . S
C1003 N1001 1.356 . S
N1004 C996 1.356 . S
N1004 H1010 0.984 . S
N1004 H1011 0.984 . S
N1005 C998 1.356 . S
N1005 H1008 0.984 . S
N1005 H1009 0.985 . S
H1006 N1001 0.984 . S
H1007 N1001 0.985 . S
H1008 N1005 0.984 . S
H1009 N1005 0.985 . S
H1010 N1004 0.984 . S
H1011 N1004 0.984 . S
H1012 N1000 0.984 . S
H1013 N1000 0.985 . S
C1014 C1015 1.363 . S
C1014 C1020 1.379 . S
C1014 N1022 1.356 . S
C1015 C1014 1.363 . S
C1015 C1021 1.363 . S
C1016 C1017 1.363 . S
C1016 C1021 1.379 . S
C1016 N1023 1.356 . S
C1017 C1016 1.363 . S
C1017 C1020 1.363 . S
N1018 C1020 1.356 . S
N1018 H1030 0.984 . S
N1018 H1031 0.985 . S
N1019 C1021 1.356 . S
N1019 H1024 0.984 . S
N1019 H1025 0.985 . S
C1020 C1014 1.379 . S
C1020 C1017 1.363 . S
C1020 N1018 1.356 . S
C1021 C1015 1.363 . S
C1021 C1016 1.379 . S
C1021 N1019 1.356 . S
N1022 C1014 1.356 . S
N1022 H1028 0.984 . S
N1022 H1029 0.984 . S
N1023 C1016 1.356 . S
N1023 H1026 0.984 . S
N1023 H1027 0.985 . S
H1024 N1019 0.984 . S
H1025 N1019 0.985 . S
H1026 N1023 0.984 . S
H1027 N1023 0.985 . S
H1028 N1022 0.984 . S
H1029 N1022 0.984 . S
H1030 N1018 0.984 . S
H1031 N1018 0.985 . S
C1032 C1033 1.363 . S
C1032 C1038 1.379 . S
C1032 N1040 1.356 . S
C1033 C1032 1.363 . S
C1033 C1039 1.363 . S
C1034 C1035 1.363 . S
C1034 C1039 1.379 . S
C1034 N1041 1.356 . S
C1035 C1034 1.363 . S
C1035 C1038 1.363 . S
N1036 C1038 1.356 . S
N1036 H1048 0.984 . S
N1036 H1049 0.985 . S
N1037 C1039 1.356 . S
N1037 H1042 0.984 . S
N1037 H1043 0.985 . S
C1038 C1032 1.379 . S
C1038 C1035 1.363 . S
C1038 N1036 1.356 . S
C1039 C1033 1.363 . S
C1039 C1034 1.379 . S
C1039 N1037 1.356 . S
N1040 C1032 1.356 . S
N1040 H1046 0.984 . S
N1040 H1047 0.984 . S
N1041 C1034 1.356 . S
N1041 H1044 0.984 . S
N1041 H1045 0.985 . S
H1042 N1037 0.984 . S
H1043 N1037 0.985 . S
H1044 N1041 0.984 . S
H1045 N1041 0.985 . S
H1046 N1040 0.984 . S
H1047 N1040 0.984 . S
H1048 N1036 0.984 . S
H1049 N1036 0.985 . S
C1050 C1051 1.363 . S
C1050 C1056 1.379 . S
C1050 N1058 1.356 . S
C1051 C1050 1.363 . S
C1051 C1057 1.363 . S
C1052 C1053 1.363 . S
C1052 C1057 1.379 . S
C1052 N1059 1.356 . S
C1053 C1052 1.363 . S
C1053 C1056 1.363 . S
N1054 C1056 1.356 . S
N1054 H1066 0.984 . S
N1054 H1067 0.985 . S
N1055 C1057 1.356 . S
N1055 H1060 0.984 . S
N1055 H1061 0.985 . S
C1056 C1050 1.379 . S
C1056 C1053 1.363 . S
C1056 N1054 1.356 . S
C1057 C1051 1.363 . S
C1057 C1052 1.379 . S
C1057 N1055 1.356 . S
N1058 C1050 1.356 . S
N1058 H1064 0.984 . S
N1058 H1065 0.984 . S
N1059 C1052 1.356 . S
N1059 H1062 0.984 . S
N1059 H1063 0.985 . S
H1060 N1055 0.984 . S
H1061 N1055 0.985 . S
H1062 N1059 0.984 . S
H1063 N1059 0.985 . S
H1064 N1058 0.984 . S
H1065 N1058 0.984 . S
H1066 N1054 0.984 . S
H1067 N1054 0.985 . S
C1068 C1069 1.363 . S
C1068 C1074 1.379 . S
C1068 N1076 1.356 . S
C1069 C1068 1.363 . S
C1069 C1075 1.363 . S
C1070 C1071 1.363 . S
C1070 C1075 1.379 . S
C1070 N1077 1.356 . S
C1071 C1070 1.363 . S
C1071 C1074 1.363 . S
N1072 C1074 1.356 . S
N1072 H1084 0.984 . S
N1072 H1085 0.985 . S
N1073 C1075 1.356 . S
N1073 H1078 0.984 . S
N1073 H1079 0.985 . S
C1074 C1068 1.379 . S
C1074 C1071 1.363 . S
C1074 N1072 1.356 . S
C1075 C1069 1.363 . S
C1075 C1070 1.379 . S
C1075 N1073 1.356 . S
N1076 C1068 1.356 . S
N1076 H1082 0.984 . S
N1076 H1083 0.984 . S
N1077 C1070 1.356 . S
N1077 H1080 0.984 . S
N1077 H1081 0.985 . S
H1078 N1073 0.984 . S
H1079 N1073 0.985 . S
H1080 N1077 0.984 . S
H1081 N1077 0.985 . S
H1082 N1076 0.984 . S
H1083 N1076 0.984 . S
H1084 N1072 0.984 . S
H1085 N1072 0.985 . S
C1086 C1087 1.363 . S
C1086 C1092 1.379 . S
C1086 N1094 1.356 . S
C1087 C1086 1.363 . S
C1087 C1093 1.363 . S
C1088 C1089 1.363 . S
C1088 C1093 1.379 . S
C1088 N1095 1.356 . S
C1089 C1088 1.363 . S
C1089 C1092 1.363 . S
N1090 C1092 1.356 . S
N1090 H1102 0.984 . S
N1090 H1103 0.985 . S
N1091 C1093 1.356 . S
N1091 H1096 0.984 . S
N1091 H1097 0.985 . S
C1092 C1086 1.379 . S
C1092 C1089 1.363 . S
C1092 N1090 1.356 . S
C1093 C1087 1.363 . S
C1093 C1088 1.379 . S
C1093 N1091 1.356 . S
N1094 C1086 1.356 . S
N1094 H1100 0.984 . S
N1094 H1101 0.984 . S
N1095 C1088 1.356 . S
N1095 H1098 0.984 . S
N1095 H1099 0.985 . S
H1096 N1091 0.984 . S
H1097 N1091 0.985 . S
H1098 N1095 0.984 . S
H1099 N1095 0.985 . S
H1100 N1094 0.984 . S
H1101 N1094 0.984 . S
H1102 N1090 0.984 . S
H1103 N1090 0.985 . S
C1104 C1105 1.363 . S
C1104 C1110 1.379 . S
C1104 N1112 1.356 . S
C1105 C1104 1.363 . S
C1105 C1111 1.363 . S
C1106 C1107 1.363 . S
C1106 C1111 1.379 . S
C1106 N1113 1.356 . S
C1107 C1106 1.363 . S
C1107 C1110 1.363 . S
N1108 C1110 1.356 . S
N1108 H1120 0.984 . S
N1108 H1121 0.985 . S
N1109 C1111 1.356 . S
N1109 H1114 0.984 . S
N1109 H1115 0.985 . S
C1110 C1104 1.379 . S
C1110 C1107 1.363 . S
C1110 N1108 1.356 . S
C1111 C1105 1.363 . S
C1111 C1106 1.379 . S
C1111 N1109 1.356 . S
N1112 C1104 1.356 . S
N1112 H1118 0.984 . S
N1112 H1119 0.984 . S
N1113 C1106 1.356 . S
N1113 H1116 0.984 . S
N1113 H1117 0.985 . S
H1114 N1109 0.984 . S
H1115 N1109 0.985 . S
H1116 N1113 0.984 . S
H1117 N1113 0.985 . S
H1118 N1112 0.984 . S
H1119 N1112 0.984 . S
H1120 N1108 0.984 . S
H1121 N1108 0.985 . S
C1122 C1123 1.363 . S
C1122 C1128 1.379 . S
C1122 N1130 1.356 . S
C1123 C1122 1.363 . S
C1123 C1129 1.363 . S
C1124 C1125 1.363 . S
C1124 C1129 1.379 . S
C1124 N1131 1.356 . S
C1125 C1124 1.363 . S
C1125 C1128 1.363 . S
N1126 C1128 1.356 . S
N1126 H1138 0.984 . S
N1126 H1139 0.985 . S
N1127 C1129 1.356 . S
N1127 H1132 0.984 . S
N1127 H1133 0.985 . S
C1128 C1122 1.379 . S
C1128 C1125 1.363 . S
C1128 N1126 1.356 . S
C1129 C1123 1.363 . S
C1129 C1124 1.379 . S
C1129 N1127 1.356 . S
N1130 C1122 1.356 . S
N1130 H1136 0.984 . S
N1130 H1137 0.984 . S
N1131 C1124 1.356 . S
N1131 H1134 0.984 . S
N1131 H1135 0.985 . S
H1132 N1127 0.984 . S
H1133 N1127 0.985 . S
H1134 N1131 0.984 . S
H1135 N1131 0.985 . S
H1136 N1130 0.984 . S
H1137 N1130 0.984 . S
H1138 N1126 0.984 . S
H1139 N1126 0.985 . S
C1140 C1141 1.363 . S
C1140 C1146 1.379 . S
C1140 N1148 1.356 . S
C1141 C1140 1.363 . S
C1141 C1147 1.363 . S
C1142 C1143 1.363 . S
C1142 C1147 1.379 . S
C1142 N1149 1.356 . S
C1143 C1142 1.363 . S
C1143 C1146 1.363 . S
N1144 C1146 1.356 . S
N1144 H1156 0.984 . S
N1144 H1157 0.985 . S
N1145 C1147 1.356 . S
N1145 H1150 0.984 . S
N1145 H1151 0.985 . S
C1146 C1140 1.379 . S
C1146 C1143 1.363 . S
C1146 N1144 1.356 . S
C1147 C1141 1.363 . S
C1147 C1142 1.379 . S
C1147 N1145 1.356 . S
N1148 C1140 1.356 . S
N1148 H1154 0.984 . S
N1148 H1155 0.984 . S
N1149 C1142 1.356 . S
N1149 H1152 0.984 . S
N1149 H1153 0.985 . S
H1150 N1145 0.984 . S
H1151 N1145 0.985 . S
H1152 N1149 0.984 . S
H1153 N1149 0.985 . S
H1154 N1148 0.984 . S
H1155 N1148 0.984 . S
H1156 N1144 0.984 . S
H1157 N1144 0.985 . S
C1158 C1159 1.363 . S
C1158 C1164 1.379 . S
C1158 N1166 1.356 . S
C1159 C1158 1.363 . S
C1159 C1165 1.363 . S
C1160 C1161 1.363 . S
C1160 C1165 1.379 . S
C1160 N1167 1.356 . S
C1161 C1160 1.363 . S
C1161 C1164 1.363 . S
N1162 C1164 1.356 . S
N1162 H1174 0.984 . S
N1162 H1175 0.985 . S
N1163 C1165 1.356 . S
N1163 H1168 0.984 . S
N1163 H1169 0.985 . S
C1164 C1158 1.379 . S
C1164 C1161 1.363 . S
C1164 N1162 1.356 . S
C1165 C1159 1.363 . S
C1165 C1160 1.379 . S
C1165 N1163 1.356 . S
N1166 C1158 1.356 . S
N1166 H1172 0.984 . S
N1166 H1173 0.984 . S
N1167 C1160 1.356 . S
N1167 H1170 0.984 . S
N1167 H1171 0.985 . S
H1168 N1163 0.984 . S
H1169 N1163 0.985 . S
H1170 N1167 0.984 . S
H1171 N1167 0.985 . S
H1172 N1166 0.984 . S
H1173 N1166 0.984 . S
H1174 N1162 0.984 . S
H1175 N1162 0.985 . S
C1176 C1177 1.363 . S
C1176 C1182 1.379 . S
C1176 N1184 1.356 . S
C1177 C1176 1.363 . S
C1177 C1183 1.363 . S
C1178 C1179 1.363 . S
C1178 C1183 1.379 . S
C1178 N1185 1.356 . S
C1179 C1178 1.363 . S
C1179 C1182 1.363 . S
N1180 C1182 1.356 . S
N1180 H1192 0.984 . S
N1180 H1193 0.985 . S
N1181 C1183 1.356 . S
N1181 H1186 0.984 . S
N1181 H1187 0.985 . S
C1182 C1176 1.379 . S
C1182 C1179 1.363 . S
C1182 N1180 1.356 . S
C1183 C1177 1.363 . S
C1183 C1178 1.379 . S
C1183 N1181 1.356 . S
N1184 C1176 1.356 . S
N1184 H1190 0.984 . S
N1184 H1191 0.984 . S
N1185 C1178 1.356 . S
N1185 H1188 0.984 . S
N1185 H1189 0.985 . S
H1186 N1181 0.984 . S
H1187 N1181 0.985 . S
H1188 N1185 0.984 . S
H1189 N1185 0.985 . S
H1190 N1184 0.984 . S
H1191 N1184 0.984 . S
H1192 N1180 0.984 . S
H1193 N1180 0.985 . S
C1194 C1195 1.363 . S
C1194 C1200 1.379 . S
C1194 N1202 1.356 . S
C1195 C1194 1.363 . S
C1195 C1201 1.363 . S
C1196 C1197 1.363 . S
C1196 C1201 1.379 . S
C1196 N1203 1.356 . S
C1197 C1196 1.363 . S
C1197 C1200 1.363 . S
N1198 C1200 1.356 . S
N1198 H1210 0.984 . S
N1198 H1211 0.985 . S
N1199 C1201 1.356 . S
N1199 H1204 0.984 . S
N1199 H1205 0.985 . S
C1200 C1194 1.379 . S
C1200 C1197 1.363 . S
C1200 N1198 1.356 . S
C1201 C1195 1.363 . S
C1201 C1196 1.379 . S
C1201 N1199 1.356 . S
N1202 C1194 1.356 . S
N1202 H1208 0.984 . S
N1202 H1209 0.984 . S
N1203 C1196 1.356 . S
N1203 H1206 0.984 . S
N1203 H1207 0.985 . S
H1204 N1199 0.984 . S
H1205 N1199 0.985 . S
H1206 N1203 0.984 . S
H1207 N1203 0.985 . S
H1208 N1202 0.984 . S
H1209 N1202 0.984 . S
H1210 N1198 0.984 . S
H1211 N1198 0.985 . S
C1212 C1213 1.363 . S
C1212 C1218 1.379 . S
C1212 N1220 1.356 . S
C1213 C1212 1.363 . S
C1213 C1219 1.363 . S
C1214 C1215 1.363 . S
C1214 C1219 1.379 . S
C1214 N1221 1.356 . S
C1215 C1214 1.363 . S
C1215 C1218 1.363 . S
N1216 C1218 1.356 . S
N1216 H1228 0.984 . S
N1216 H1229 0.985 . S
N1217 C1219 1.356 . S
N1217 H1222 0.984 . S
N1217 H1223 0.985 . S
C1218 C1212 1.379 . S
C1218 C1215 1.363 . S
C1218 N1216 1.356 . S
C1219 C1213 1.363 . S
C1219 C1214 1.379 . S
C1219 N1217 1.356 . S
N1220 C1212 1.356 . S
N1220 H1226 0.984 . S
N1220 H1227 0.984 . S
N1221 C1214 1.356 . S
N1221 H1224 0.984 . S
N1221 H1225 0.985 . S
H1222 N1217 0.984 . S
H1223 N1217 0.985 . S
H1224 N1221 0.984 . S
H1225 N1221 0.985 . S
H1226 N1220 0.984 . S
H1227 N1220 0.984 . S
H1228 N1216 0.984 . S
H1229 N1216 0.985 . S
C1230 C1231 1.363 . S
C1230 C1236 1.379 . S
C1230 N1238 1.356 . S
C1231 C1230 1.363 . S
C1231 C1237 1.363 . S
C1232 C1233 1.363 . S
C1232 C1237 1.379 . S
C1232 N1239 1.356 . S
C1233 C1232 1.363 . S
C1233 C1236 1.363 . S
N1234 C1236 1.356 . S
N1234 H1246 0.984 . S
N1234 H1247 0.985 . S
N1235 C1237 1.356 . S
N1235 H1240 0.984 . S
N1235 H1241 0.985 . S
C1236 C1230 1.379 . S
C1236 C1233 1.363 . S
C1236 N1234 1.356 . S
C1237 C1231 1.363 . S
C1237 C1232 1.379 . S
C1237 N1235 1.356 . S
N1238 C1230 1.356 . S
N1238 H1244 0.984 . S
N1238 H1245 0.984 . S
N1239 C1232 1.356 . S
N1239 H1242 0.984 . S
N1239 H1243 0.985 . S
H1240 N1235 0.984 . S
H1241 N1235 0.985 . S
H1242 N1239 0.984 . S
H1243 N1239 0.985 . S
H1244 N1238 0.984 . S
H1245 N1238 0.984 . S
H1246 N1234 0.984 . S
H1247 N1234 0.985 . S
C529 C28 1.587 . S
C531 C160 1.587 . S
C547 C193 1.587 . S
C549 C61 1.587 . S
C565 C226 1.585 . S
C567 C94 1.585 . S
C583 C259 1.585 . S
C585 C127 1.585 . S
C601 C292 1.587 . S
C603 C424 1.587 . S
C619 C325 1.587 . S
C621 C457 1.587 . S
C637 C490 1.585 . S
C639 C358 1.585 . S
C655 C391 1.585 . S
C657 C523 1.585 . S
C673 N401 1.418 . S
C675 N14 1.374 . S
C691 N434 1.424 . S
C693 N47 1.379 . S
C709 N80 1.369 . S
C711 N467 1.409 . S
C727 N500 1.404 . S
C729 N113 1.363 . S
C745 N269 1.424 . S
C747 N146 1.379 . S
C763 N302 1.418 . S
C765 N179 1.374 . S
C781 N212 1.363 1_655 S
C783 N335 1.403 . S
C799 N245 1.368 . S
C801 N368 1.409 . S
C817 N137 1.418 . S
C819 N278 1.374 . S
C835 N170 1.424 . S
C837 N311 1.379 . S
C853 N203 1.410 . S
C855 N344 1.369 . S
C871 N377 1.363 1_545 S
C873 N236 1.403 . S
C889 N5 1.424 . S
C891 N410 1.379 . S
C907 N38 1.418 . S
C909 N443 1.374 . S
C925 N476 1.363 1_455 S
C927 N71 1.403 . S
C943 N104 1.410 . S
C945 N509 1.368 . S
C961 C83 1.440 . S
C963 C17 1.438 . S
C979 C50 1.440 . S
C981 C116 1.437 . S
C997 C215 1.439 . S
C999 C149 1.437 . S
C1015 C248 1.440 . S
C1017 C182 1.438 . S
C1033 C347 1.440 . S
C1035 C281 1.438 . S
C1051 C380 1.439 . S
C1053 C314 1.437 . S
C1069 C413 1.440 . S
C1071 C479 1.437 . S
C1087 C512 1.440 . S
C1089 C446 1.438 . S
C1105 C239 1.278 . S
C1107 C8 1.277 . S
C1123 C140 1.269 . S
C1125 C41 1.269 . S
C1141 C173 1.276 . S
C1143 C74 1.280 . S
C1159 C206 1.285 . S
C1161 C107 1.288 . S
C1177 C503 1.278 . S
C1179 C272 1.277 . S
C1195 C404 1.269 . S
C1197 C305 1.269 . S
C1213 C437 1.276 . S
C1215 C338 1.280 . S
C1231 C470 1.285 . S
C1233 C371 1.288 . S
